# Generated by pormake.
# Topology und, (4)-cn, num edge types: 1
# Building blocks:
#     Node 0, Type 0, BuildingBlock: AZAVOO_clean_sbu_0, # of connection points: 4
#     Node 1, Type 0, BuildingBlock: AZAVOO_clean_sbu_0, # of connection points: 4
#     Node 2, Type 0, BuildingBlock: AZAVOO_clean_sbu_0, # of connection points: 4
#     Node 3, Type 0, BuildingBlock: AZAVOO_clean_sbu_0, # of connection points: 4
#     Node 4, Type 0, BuildingBlock: AZAVOO_clean_sbu_0, # of connection points: 4
#     Node 5, Type 0, BuildingBlock: AZAVOO_clean_sbu_0, # of connection points: 4
#     Node 6, Type 0, BuildingBlock: AZAVOO_clean_sbu_0, # of connection points: 4
#     Node 7, Type 0, BuildingBlock: AZAVOO_clean_sbu_0, # of connection points: 4
#     Node 8, Type 0, BuildingBlock: AZAVOO_clean_sbu_0, # of connection points: 4
#     Node 9, Type 0, BuildingBlock: AZAVOO_clean_sbu_0, # of connection points: 4
#     Node 10, Type 0, BuildingBlock: AZAVOO_clean_sbu_0, # of connection points: 4
#     Node 11, Type 0, BuildingBlock: AZAVOO_clean_sbu_0, # of connection points: 4
#     Node 12, Type 0, BuildingBlock: AZAVOO_clean_sbu_0, # of connection points: 4
#     Node 13, Type 0, BuildingBlock: AZAVOO_clean_sbu_0, # of connection points: 4
#     Node 14, Type 0, BuildingBlock: AZAVOO_clean_sbu_0, # of connection points: 4
#     Node 15, Type 0, BuildingBlock: AZAVOO_clean_sbu_0, # of connection points: 4
#     Edge 16, Type (0, 0), BuildingBlock: KIFKEQ_clean_linker_1, # of connection points: 2
#     Edge 17, Type (0, 0), BuildingBlock: KIFKEQ_clean_linker_1, # of connection points: 2
#     Edge 18, Type (0, 0), BuildingBlock: KIFKEQ_clean_linker_1, # of connection points: 2
#     Edge 19, Type (0, 0), BuildingBlock: KIFKEQ_clean_linker_1, # of connection points: 2
#     Edge 20, Type (0, 0), BuildingBlock: KIFKEQ_clean_linker_1, # of connection points: 2
#     Edge 21, Type (0, 0), BuildingBlock: KIFKEQ_clean_linker_1, # of connection points: 2
#     Edge 22, Type (0, 0), BuildingBlock: KIFKEQ_clean_linker_1, # of connection points: 2
#     Edge 23, Type (0, 0), BuildingBlock: KIFKEQ_clean_linker_1, # of connection points: 2
#     Edge 24, Type (0, 0), BuildingBlock: KIFKEQ_clean_linker_1, # of connection points: 2
#     Edge 25, Type (0, 0), BuildingBlock: KIFKEQ_clean_linker_1, # of connection points: 2
#     Edge 26, Type (0, 0), BuildingBlock: KIFKEQ_clean_linker_1, # of connection points: 2
#     Edge 27, Type (0, 0), BuildingBlock: KIFKEQ_clean_linker_1, # of connection points: 2
#     Edge 28, Type (0, 0), BuildingBlock: KIFKEQ_clean_linker_1, # of connection points: 2
#     Edge 29, Type (0, 0), BuildingBlock: KIFKEQ_clean_linker_1, # of connection points: 2
#     Edge 30, Type (0, 0), BuildingBlock: KIFKEQ_clean_linker_1, # of connection points: 2
#     Edge 31, Type (0, 0), BuildingBlock: KIFKEQ_clean_linker_1, # of connection points: 2
#     Edge 32, Type (0, 0), BuildingBlock: KIFKEQ_clean_linker_1, # of connection points: 2
#     Edge 33, Type (0, 0), BuildingBlock: KIFKEQ_clean_linker_1, # of connection points: 2
#     Edge 34, Type (0, 0), BuildingBlock: KIFKEQ_clean_linker_1, # of connection points: 2
#     Edge 35, Type (0, 0), BuildingBlock: KIFKEQ_clean_linker_1, # of connection points: 2
#     Edge 36, Type (0, 0), BuildingBlock: KIFKEQ_clean_linker_1, # of connection points: 2
#     Edge 37, Type (0, 0), BuildingBlock: KIFKEQ_clean_linker_1, # of connection points: 2
#     Edge 38, Type (0, 0), BuildingBlock: KIFKEQ_clean_linker_1, # of connection points: 2
#     Edge 39, Type (0, 0), BuildingBlock: KIFKEQ_clean_linker_1, # of connection points: 2
#     Edge 40, Type (0, 0), BuildingBlock: KIFKEQ_clean_linker_1, # of connection points: 2
#     Edge 41, Type (0, 0), BuildingBlock: KIFKEQ_clean_linker_1, # of connection points: 2
#     Edge 42, Type (0, 0), BuildingBlock: KIFKEQ_clean_linker_1, # of connection points: 2
#     Edge 43, Type (0, 0), BuildingBlock: KIFKEQ_clean_linker_1, # of connection points: 2
#     Edge 44, Type (0, 0), BuildingBlock: KIFKEQ_clean_linker_1, # of connection points: 2
#     Edge 45, Type (0, 0), BuildingBlock: KIFKEQ_clean_linker_1, # of connection points: 2
#     Edge 46, Type (0, 0), BuildingBlock: KIFKEQ_clean_linker_1, # of connection points: 2
#     Edge 47, Type (0, 0), BuildingBlock: KIFKEQ_clean_linker_1, # of connection points: 2
# Relax obj value: 0.169
# Max RMSD: 0.209
# Mean RMSD: 0.203
data_MOF--net-und--node1-AZAVOO_clean_sbu_0--edge1-KIFKEQ_clean_linker_1
_symmetry_space_group_name_H-M    P1
_symmetry_Int_Tables_number       1
_symmetry_cell_setting            triclinic
loop_
_symmetry_equiv_pos_as_xyz
'x, y, z'
_cell_length_a     59.737712
_cell_length_b     59.664691
_cell_length_c     22.203046
_cell_angle_alpha  91.966309
_cell_angle_beta   91.986696
_cell_angle_gamma 95.805248
loop_
_atom_site_label
_atom_site_type_symbol
_atom_site_fract_x
_atom_site_fract_y
_atom_site_fract_z
_atom_type_partial_charge
Mg0 Mg 0.25276 0.36997 0.14579 0.0
O1 O 0.2413 0.34223 0.07455 0.0
O2 O 0.21452 0.31816 0.11116 0.0
Mg3 Mg 0.20642 0.33267 0.20346 0.0
C4 C 0.22784 0.32418 0.06962 0.0
C5 C 0.28943 0.40313 0.08785 0.0
O6 O 0.29628 0.40602 0.14472 0.0
O7 O 0.22171 0.38846 0.12709 0.0
O8 O 0.19459 0.36459 0.16329 0.0
O9 O 0.27594 0.34626 0.18463 0.0
O10 O 0.24116 0.349 0.21287 0.0
C11 C 0.20108 0.38298 0.13831 0.0
C12 C 0.25906 0.33878 0.21598 0.0
O13 O 0.2722 0.38939 0.07405 0.0
Mg14 Mg 0.90279 0.01207 0.19041 0.0
O15 O 0.93102 0.02341 0.26011 0.0
O16 O 0.95501 0.0501 0.22287 0.0
Mg17 Mg 0.93987 0.05832 0.13136 0.0
C18 C 0.94913 0.03677 0.2645 0.0
C19 C 0.86944 0.97607 0.25063 0.0
O20 O 0.86485 0.96995 0.19377 0.0
O21 O 0.88467 0.04326 0.21057 0.0
O22 O 0.90844 0.07033 0.17366 0.0
O23 O 0.92606 0.98878 0.15029 0.0
O24 O 0.92326 0.02364 0.12226 0.0
C25 C 0.89024 0.06392 0.19952 0.0
C26 C 0.93338 0.00567 0.1187 0.0
O27 O 0.88413 0.99263 0.26338 0.0
Mg28 Mg 0.28154 0.71599 0.50862 0.0
O29 O 0.26648 0.73306 0.58938 0.0
O30 O 0.24223 0.75645 0.5562 0.0
Mg31 Mg 0.24135 0.75394 0.45323 0.0
C32 C 0.25266 0.74765 0.59907 0.0
C33 C 0.31459 0.69456 0.59622 0.0
O34 O 0.32658 0.71367 0.58621 0.0
O35 O 0.24917 0.69275 0.48767 0.0
O36 O 0.22616 0.71713 0.45301 0.0
O37 O 0.30816 0.74557 0.50868 0.0
O38 O 0.27546 0.7432 0.45754 0.0
C39 C 0.23014 0.69716 0.46566 0.0
C40 C 0.29386 0.75491 0.47525 0.0
O41 O 0.29512 0.69046 0.57099 0.0
Mg42 Mg 0.54764 0.99449 0.81437 0.0
O43 O 0.53642 0.01372 0.73285 0.0
O44 O 0.51644 0.04119 0.76483 0.0
Mg45 Mg 0.51521 0.03992 0.86744 0.0
C46 C 0.52494 0.03019 0.72251 0.0
C47 C 0.57037 0.95612 0.7504 0.0
O48 O 0.55449 0.94445 0.77897 0.0
O49 O 0.57486 0.02325 0.84358 0.0
O50 O 0.55315 0.04935 0.87556 0.0
O51 O 0.51427 0.9726 0.80561 0.0
O52 O 0.52079 0.0042 0.86129 0.0
C53 C 0.57248 0.04279 0.86644 0.0
C54 C 0.5068 0.98795 0.83985 0.0
O55 O 0.57203 0.9775 0.75542 0.0
Mg56 Mg 0.77997 0.69846 0.15207 0.0
O57 O 0.74519 0.67781 0.1539 0.0
O58 O 0.72004 0.70212 0.17386 0.0
Mg59 Mg 0.73779 0.73776 0.18222 0.0
C60 C 0.72505 0.68207 0.16368 0.0
C61 C 0.81314 0.6621 0.12254 0.0
O62 O 0.82399 0.67166 0.17075 0.0
O63 O 0.77196 0.71215 0.06004 0.0
O64 O 0.74669 0.73605 0.08281 0.0
O65 O 0.78443 0.69567 0.25295 0.0
O66 O 0.76863 0.72293 0.20815 0.0
C67 C 0.7587 0.72662 0.04492 0.0
C68 C 0.77375 0.71346 0.25702 0.0
O69 O 0.79445 0.66877 0.10589 0.0
Mg70 Mg 0.0739 -1e-05 0.71072 0.0
O71 O 0.09435 0.03483 0.70607 0.0
O72 O 0.06938 0.06017 0.69817 0.0
Mg73 Mg 0.03389 0.04267 0.70223 0.0
C74 C 0.08963 0.0551 0.7002 0.0
C75 C 0.09979 0.96573 0.76924 0.0
O76 O 0.07848 0.95764 0.76835 0.0
O77 O 0.06528 0.00648 0.80848 0.0
O78 O 0.04069 0.03213 0.79874 0.0
O79 O 0.07086 0.99735 0.60859 0.0
O80 O 0.04653 0.01176 0.66715 0.0
C81 C 0.05185 0.01951 0.83101 0.0
C82 C 0.05263 0.00722 0.61374 0.0
O83 O 0.10501 0.98416 0.74361 0.0
Mg84 Mg 0.7238 0.35269 0.61787 0.0
O85 O 0.75933 0.37161 0.62402 0.0
O86 O 0.78257 0.34738 0.65848 0.0
Mg87 Mg 0.76241 0.31381 0.67679 0.0
C88 C 0.77899 0.36687 0.64049 0.0
C89 C 0.69646 0.37067 0.51499 0.0
O90 O 0.69121 0.34874 0.51061 0.0
O91 O 0.73252 0.33153 0.5361 0.0
O92 O 0.75334 0.3064 0.57641 0.0
O93 O 0.71818 0.36388 0.7139 0.0
O94 O 0.73324 0.33293 0.68632 0.0
C95 C 0.74302 0.31399 0.53135 0.0
C96 C 0.72805 0.3464 0.72871 0.0
O97 O 0.71032 0.37878 0.55686 0.0
Mg98 Mg 0.42388 0.06876 0.21725 0.0
O99 O 0.40794 0.03221 0.21038 0.0
O100 O 0.43276 0.01085 0.17006 0.0
Mg101 Mg 0.46479 0.03399 0.15401 0.0
C102 C 0.41342 0.01321 0.19076 0.0
C103 C 0.37748 0.08091 0.27484 0.0
O104 O 0.36845 0.07786 0.22 0.0
O105 O 0.44643 0.06133 0.29652 0.0
O106 O 0.47152 0.04049 0.25652 0.0
O107 O 0.40917 0.07169 0.12453 0.0
O108 O 0.44345 0.06201 0.14512 0.0
C109 C 0.46361 0.05041 0.30178 0.0
C110 C 0.42738 0.06403 0.1061 0.0
O111 O 0.39809 0.07812 0.28423 0.0
Mg112 Mg 0.75031 0.86775 0.65341 0.0
O113 O 0.74443 0.83656 0.58974 0.0
O114 O 0.71933 0.8113 0.62855 0.0
Mg115 Mg 0.70759 0.82728 0.71533 0.0
C116 C 0.73311 0.81721 0.588 0.0
C117 C 0.78978 0.8928 0.58402 0.0
O118 O 0.80104 0.88821 0.63319 0.0
O119 O 0.71688 0.88066 0.62453 0.0
O120 O 0.6922 0.85512 0.66437 0.0
O121 O 0.77596 0.84956 0.70341 0.0
O122 O 0.74003 0.84841 0.72509 0.0
C123 C 0.69669 0.87288 0.63473 0.0
C124 C 0.75936 0.84126 0.73452 0.0
O125 O 0.76877 0.88667 0.57906 0.0
Mg126 Mg 0.40843 0.51719 0.69509 0.0
O127 O 0.43803 0.52646 0.76265 0.0
O128 O 0.46106 0.55436 0.72705 0.0
Mg129 Mg 0.44496 0.56447 0.6388 0.0
C130 C 0.45608 0.53993 0.76682 0.0
C131 C 0.36916 0.4931 0.76629 0.0
O132 O 0.35744 0.50224 0.72425 0.0
O133 O 0.39106 0.54823 0.72295 0.0
O134 O 0.41464 0.57582 0.68753 0.0
O135 O 0.43047 0.49446 0.64781 0.0
O136 O 0.42792 0.53006 0.62631 0.0
C137 C 0.3969 0.56907 0.71489 0.0
C138 C 0.43757 0.51196 0.61819 0.0
O139 O 0.39054 0.49607 0.76634 0.0
Mg140 Mg 0.73861 0.19005 0.04013 0.0
O141 O 0.72915 0.2062 0.12942 0.0
O142 O 0.69877 0.22436 0.11273 0.0
Mg143 Mg 0.68776 0.21842 0.01367 0.0
C144 C 0.71446 0.21871 0.14773 0.0
C145 C 0.78334 0.17316 0.08742 0.0
O146 O 0.79123 0.18931 0.05279 0.0
O147 O 0.71014 0.16159 0.04143 0.0
O148 O 0.68017 0.1803 0.02365 0.0
O149 O 0.7587 0.2227 0.02261 0.0
O150 O 0.723 0.21426 0.99347 0.0
C151 C 0.68896 0.16203 0.03298 0.0
C152 C 0.74034 0.22895 -0.00122 0.0
O153 O 0.76218 0.16925 0.09194 0.0
Mg154 Mg 0.07511 0.53532 0.30007 0.0
O155 O 0.06035 0.54546 0.20981 0.0
O156 O 0.04229 0.57598 0.22576 0.0
Mg157 Mg 0.04674 0.58627 0.3256 0.0
C158 C 0.04831 0.56045 0.19082 0.0
C159 C 0.09281 0.49072 0.25476 0.0
O160 O 0.0767 0.4828 0.28944 0.0
O161 O 0.10363 0.56379 0.30242 0.0
O162 O 0.08498 0.59389 0.3197 0.0
O163 O 0.04216 0.51518 0.31389 0.0
O164 O 0.05037 0.55077 0.34477 0.0
C165 C 0.10326 0.58498 0.31171 0.0
C166 C 0.03569 0.53345 0.33772 0.0
O167 O 0.09646 0.51189 0.24952 0.0
Mg168 Mg 0.26579 0.19907 0.62498 0.0
O169 O 0.23151 0.17798 0.62997 0.0
O170 O 0.2052 0.20191 0.63699 0.0
Mg171 Mg 0.22195 0.23778 0.63189 0.0
C172 C 0.21104 0.18192 0.63549 0.0
C173 C 0.30246 0.17032 0.58381 0.0
O174 O 0.31394 0.18981 0.59858 0.0
O175 O 0.25926 0.20718 0.52687 0.0
O176 O 0.23284 0.231 0.53561 0.0
O177 O 0.26824 0.20254 0.72697 0.0
O178 O 0.25345 0.22641 0.66755 0.0
C179 C 0.24587 0.22016 0.50379 0.0
C180 C 0.25807 0.22057 0.7212 0.0
O181 O 0.28156 0.16778 0.59363 0.0
Mg182 Mg 0.58004 0.5029 0.20543 0.0
O183 O 0.60239 0.53688 0.20353 0.0
O184 O 0.57876 0.56324 0.18999 0.0
Mg185 Mg 0.54248 0.54736 0.1851 0.0
C186 C 0.59866 0.5574 0.19643 0.0
C187 C 0.60228 0.46578 0.26394 0.0
O188 O 0.58083 0.45841 0.25702 0.0
O189 O 0.56876 0.51067 0.30015 0.0
O190 O 0.54534 0.53693 0.28314 0.0
O191 O 0.58052 0.49874 0.10426 0.0
O192 O 0.5555 0.5162 0.15377 0.0
C193 C 0.555 0.52416 0.31857 0.0
C194 C 0.56342 0.51046 0.10317 0.0
O195 O 0.60887 0.48506 0.24471 0.0
Mg196 Mg 0.2394 0.86461 0.101 0.0
O197 O 0.27354 0.88579 0.09957 0.0
O198 O 0.30032 0.86359 0.12378 0.0
Mg199 Mg 0.28313 0.82895 0.14603 0.0
C200 C 0.29418 0.88264 0.10921 0.0
C201 C 0.20227 0.893 0.05646 0.0
O202 O 0.19274 0.88257 0.10163 0.0
O203 O 0.24624 0.84485 0.01495 0.0
O204 O 0.27073 0.82162 0.04778 0.0
O205 O 0.23736 0.87556 0.19851 0.0
O206 O 0.25286 0.84545 0.1657 0.0
C207 C 0.25809 0.82848 0.00616 0.0
C208 C 0.24901 0.85891 0.20965 0.0
O209 O 0.22248 0.88998 0.04535 0.0
Mg210 Mg 0.91516 0.55026 0.71937 0.0
O211 O 0.89764 0.5141 0.7158 0.0
O212 O 0.92236 0.49178 0.67949 0.0
Mg213 Mg 0.95487 0.51316 0.65801 0.0
C214 C 0.90296 0.49465 0.69918 0.0
C215 C 0.89829 0.57868 0.8198 0.0
O216 O 0.91955 0.58628 0.81475 0.0
O217 O 0.93774 0.54282 0.79925 0.0
O218 O 0.96317 0.52266 0.75795 0.0
O219 O 0.90225 0.5549 0.62424 0.0
O220 O 0.93429 0.54136 0.64923 0.0
C221 C 0.95566 0.53291 0.80323 0.0
C222 C 0.91992 0.54567 0.608 0.0
O223 O 0.8898 0.56277 0.78387 0.0
H224 H 0.23005 0.32518 0.30085 0.0
H225 H 0.28724 0.30496 0.20657 0.0
H226 H 0.22707 0.29026 0.35288 0.0
H227 H 0.28415 0.26924 0.25941 0.0
H228 H 0.2849 0.23081 0.44738 0.0
H229 H 0.28904 0.25624 0.36375 0.0
H230 H 0.21672 0.25035 0.33553 0.0
H231 H 0.21266 0.22597 0.42119 0.0
C232 C 0.24189 0.3131 0.29071 0.0
C233 C 0.25876 0.31775 0.24922 0.0
C234 C 0.24003 0.29289 0.32019 0.0
C235 C 0.25498 0.27663 0.30909 0.0
C236 C 0.27225 0.28137 0.26841 0.0
C237 C 0.2741 0.3018 0.23853 0.0
C238 C 0.26997 0.23418 0.42151 0.0
C239 C 0.24843 0.22684 0.44112 0.0
C240 C 0.27234 0.2488 0.37364 0.0
C241 C 0.25317 0.25591 0.34449 0.0
C242 C 0.23178 0.24574 0.35852 0.0
C243 C 0.22942 0.2316 0.40707 0.0
H244 H 0.94023 0.01502 0.36829 0.0
H245 H 0.99347 0.05393 0.27892 0.0
H246 H 0.96649 0.00892 0.45064 0.0
H247 H 0.01981 0.04793 0.36234 0.0
H248 H 0.06255 0.00608 0.49323 0.0
H249 H 0.03809 0.0151 0.40798 0.0
H250 H 0.98767 0.03172 0.53216 0.0
H251 H 0.01142 0.02233 0.61598 0.0
C252 C 0.95748 0.02249 0.36646 0.0
C253 C 0.9647 0.03504 0.31708 0.0
C254 C 0.97253 0.01902 0.41376 0.0
C255 C 0.9952 0.02795 0.41285 0.0
C256 C 0.00247 0.04069 0.36388 0.0
C257 C 0.98732 0.04432 0.31654 0.0
C258 C 0.04628 0.01177 0.50206 0.0
C259 C 0.03898 0.01354 0.56135 0.0
C260 C 0.03237 0.01705 0.45345 0.0
C261 C 0.01093 0.02398 0.46355 0.0
C262 C 0.00396 0.02616 0.5229 0.0
C263 C 0.01775 0.02096 0.57106 0.0
H264 H 0.28084 0.74304 0.69604 0.0
H265 H 0.2209 0.77342 0.64262 0.0
H266 H 0.28139 0.7623 0.79399 0.0
H267 H 0.2208 0.79196 0.74217 0.0
H268 H 0.24339 0.84288 0.8971 0.0
H269 H 0.2406 0.822 0.80023 0.0
H270 H 0.26448 0.76455 0.88655 0.0
H271 H 0.26832 0.78576 0.98212 0.0
C272 C 0.26743 0.75341 0.70571 0.0
C273 C 0.25086 0.75672 0.66138 0.0
C274 C 0.2677 0.76446 0.76216 0.0
C275 C 0.2512 0.77884 0.77617 0.0
C276 C 0.23406 0.78142 0.73261 0.0
C277 C 0.23397 0.77059 0.67572 0.0
C278 C 0.24811 0.82582 0.89514 0.0
C279 C 0.25631 0.81608 0.94709 0.0
C280 C 0.24632 0.81374 0.83974 0.0
C281 C 0.25234 0.79153 0.83533 0.0
C282 C 0.26015 0.78174 0.88774 0.0
C283 C 0.26229 0.79391 0.94272 0.0
H284 H 0.40238 0.02619 0.06234 0.0
H285 H 0.45562 0.07656 0.01845 0.0
H286 H 0.41183 0.00209 0.97685 0.0
H287 H 0.46442 0.05316 0.93185 0.0
H288 H 0.48226 0.96775 0.92641 0.0
H289 H 0.45209 0.98527 0.97534 0.0
H290 H 0.44919 0.03111 0.82981 0.0
H291 H 0.47895 0.01309 0.78025 0.0
C292 C 0.41535 0.03252 0.03255 0.0
C293 C 0.42823 0.0532 0.04615 0.0
C294 C 0.42075 0.01875 0.98392 0.0
C295 C 0.43869 0.02587 0.94754 0.0
C296 C 0.45022 0.04745 0.95843 0.0
C297 C 0.44526 0.06084 0.00793 0.0
C298 C 0.47402 0.98045 0.90285 0.0
C299 C 0.48286 0.98918 0.84985 0.0
C300 C 0.45683 0.9906 0.93099 0.0
C301 C 0.44865 0.00979 0.90673 0.0
C302 C 0.45532 0.0164 0.84944 0.0
C303 C 0.47225 0.00603 0.82098 0.0
H304 H 0.22766 0.84509 0.30928 0.0
H305 H 0.29328 0.86453 0.2419 0.0
H306 H 0.24496 0.82745 0.39396 0.0
H307 H 0.31093 0.84762 0.3276 0.0
H308 H 0.27496 0.78924 0.52928 0.0
H309 H 0.26847 0.82461 0.48237 0.0
H310 H 0.31147 0.80804 0.338 0.0
H311 H 0.31816 0.7732 0.38603 0.0
C312 C 0.24586 0.84654 0.31446 0.0
C313 C 0.25921 0.85586 0.26928 0.0
C314 C 0.25587 0.83649 0.36304 0.0
C315 C 0.27939 0.83571 0.36698 0.0
C316 C 0.29277 0.84749 0.3252 0.0
C317 C 0.28272 0.85727 0.27634 0.0
C318 C 0.28378 0.79382 0.48901 0.0
C319 C 0.29702 0.77872 0.46094 0.0
C320 C 0.27995 0.81393 0.46187 0.0
C321 C 0.28905 0.81899 0.40577 0.0
C322 C 0.3043 0.80489 0.3814 0.0
C323 C 0.3082 0.78487 0.4088 0.0
H324 H 0.44747 0.06245 0.41054 0.0
H325 H 0.50429 0.03512 0.33042 0.0
H326 H 0.46444 0.05901 0.51028 0.0
H327 H 0.52172 0.03242 0.43048 0.0
H328 H 0.50669 0.06729 0.68122 0.0
H329 H 0.49412 0.07385 0.57846 0.0
H330 H 0.51735 0.01084 0.51822 0.0
H331 H 0.53066 0.00471 0.62047 0.0
C332 C 0.46373 0.05595 0.41413 0.0
C333 C 0.47447 0.04899 0.36239 0.0
C334 C 0.47357 0.05413 0.47147 0.0
C335 C 0.49453 0.04551 0.47861 0.0
C336 C 0.50543 0.03885 0.42677 0.0
C337 C 0.49547 0.04048 0.36934 0.0
C338 C 0.50938 0.05498 0.64591 0.0
C339 C 0.51956 0.03541 0.6592 0.0
C340 C 0.50201 0.05865 0.587 0.0
C341 C 0.50443 0.04274 0.54004 0.0
C342 C 0.51539 0.02359 0.55301 0.0
C343 C 0.52296 0.02002 0.61183 0.0
H344 H 0.24215 0.26146 0.71781 0.0
H345 H 0.25952 0.21114 0.84196 0.0
H346 H 0.2326 0.28541 0.80119 0.0
H347 H 0.25023 0.23572 0.9266 0.0
H348 H 0.24909 0.33342 0.96522 0.0
H349 H 0.25523 0.30721 0.88261 0.0
H350 H 0.21704 0.2535 0.97162 0.0
H351 H 0.21095 0.27976 0.05507 0.0
C352 C 0.24373 0.25535 0.76294 0.0
C353 C 0.25154 0.23429 0.7732 0.0
C354 C 0.23842 0.26924 0.81082 0.0
C355 C 0.24081 0.26252 0.87036 0.0
C356 C 0.24811 0.24124 0.88098 0.0
C357 C 0.25354 0.22726 0.8327 0.0
C358 C 0.2418 0.3161 0.96708 0.0
C359 C 0.22947 0.30873 0.01671 0.0
C360 C 0.24529 0.30107 0.91966 0.0
C361 C 0.23664 0.2783 0.92079 0.0
C362 C 0.22407 0.27092 0.96992 0.0
C363 C 0.22039 0.28603 0.0173 0.0
H364 H 0.04553 0.05277 0.91296 0.0
H365 H 0.0417 0.98045 0.88788 0.0
H366 H 0.0211 0.04854 -0.00165 0.0
H367 H 0.0162 0.97612 0.97126 0.0
H368 H 0.96741 0.97779 0.12842 0.0
H369 H 0.00305 0.9811 0.07549 0.0
H370 H 0.98132 0.03761 0.9805 0.0
H371 H 0.94646 0.03442 0.0327 0.0
C372 C 0.04012 0.03596 0.92729 0.0
C373 C 0.04516 0.01696 0.89363 0.0
C374 C 0.02594 0.0335 0.97568 0.0
C375 C 0.01603 0.01202 0.98991 0.0
C376 C 0.02343 0.99289 0.96118 0.0
C377 C 0.03809 0.99537 0.91348 0.0
C378 C 0.97038 0.99083 0.09605 0.0
C379 C 0.95426 0.00597 0.08501 0.0
C380 C 0.99077 0.99282 0.06614 0.0
C381 C 0.99529 0.01001 0.02506 0.0
C382 C 0.97884 0.02472 0.01351 0.0
C383 C 0.95868 0.02273 0.04304 0.0
H384 H 0.7232 0.73441 0.97239 0.0
H385 H 0.79578 0.74008 0.98281 0.0
H386 H 0.72423 0.75887 0.88669 0.0
H387 H 0.79701 0.7658 0.89937 0.0
H388 H 0.79002 0.80971 0.73386 0.0
H389 H 0.78995 0.77669 0.79706 0.0
H390 H 0.73292 0.79828 0.88988 0.0
H391 H 0.73261 0.83029 0.82625 0.0
C392 C 0.73936 0.74051 0.95522 0.0
C393 C 0.75939 0.73559 0.98415 0.0
C394 C 0.74002 0.75475 0.9067 0.0
C395 C 0.76072 0.76497 0.88758 0.0
C396 C 0.78079 0.75831 0.91298 0.0
C397 C 0.78011 0.74355 0.96072 0.0
C398 C 0.7776 0.8073 0.76806 0.0
C399 C 0.76124 0.82243 0.77503 0.0
C400 C 0.77749 0.7884 0.80404 0.0
C401 C 0.76109 0.7845 0.84764 0.0
C402 C 0.74527 0.80017 0.85536 0.0
C403 C 0.74525 0.81875 0.81933 0.0
H404 H 0.72338 0.32438 0.42374 0.0
H405 H 0.75758 0.27263 0.50906 0.0
H406 H 0.71639 0.30011 0.33318 0.0
H407 H 0.74992 0.24819 0.41951 0.0
H408 H 0.7511 0.21944 0.2254 0.0
H409 H 0.75909 0.24279 0.31696 0.0
H410 H 0.69321 0.26645 0.29988 0.0
H411 H 0.68546 0.24362 0.2071 0.0
C412 C 0.72953 0.3079 0.42313 0.0
C413 C 0.74102 0.30048 0.47381 0.0
C414 C 0.72528 0.29387 0.37143 0.0
C415 C 0.73231 0.27205 0.36933 0.0
C416 C 0.7444 0.26492 0.41933 0.0
C417 C 0.74877 0.27899 0.47082 0.0
C418 C 0.73815 0.22934 0.2416 0.0
C419 C 0.71767 0.22974 0.20863 0.0
C420 C 0.74276 0.24277 0.2942 0.0
C421 C 0.72692 0.25677 0.31536 0.0
C422 C 0.70601 0.25631 0.284 0.0
C423 C 0.70146 0.243 0.23116 0.0
H424 H 0.70463 0.2455 0.94286 0.0
H425 H 0.77271 0.26508 0.01084 0.0
H426 H 0.70306 0.28213 0.9012 0.0
H427 H 0.77111 0.30228 0.9686 0.0
H428 H 0.7674 0.33494 0.77588 0.0
H429 H 0.7712 0.31219 0.86344 0.0
H430 H 0.70345 0.32287 0.91135 0.0
H431 H 0.69956 0.34521 0.82177 0.0
C432 C 0.71909 0.25784 0.95044 0.0
C433 C 0.73887 0.25226 0.97977 0.0
C434 C 0.71811 0.27905 0.9269 0.0
C435 C 0.73694 0.29523 0.93167 0.0
C436 C 0.75635 0.29013 0.964 0.0
C437 C 0.7573 0.26882 0.98792 0.0
C438 C 0.7536 0.333 0.80627 0.0
C439 C 0.73298 0.34114 0.79151 0.0
C440 C 0.75584 0.32016 0.85693 0.0
C441 C 0.73738 0.31519 0.89345 0.0
C442 C 0.71779 0.32604 0.88319 0.0
C443 C 0.7156 0.33899 0.83234 0.0
H444 H 0.80011 0.72644 0.35693 0.0
H445 H 0.73171 0.72199 0.28531 0.0
H446 H 0.78975 0.74996 0.44248 0.0
H447 H 0.72131 0.74533 0.37018 0.0
H448 H 0.70877 0.77676 0.55699 0.0
H449 H 0.7184 0.74786 0.48431 0.0
H450 H 0.77826 0.79021 0.44178 0.0
H451 H 0.76872 0.81911 0.51386 0.0
C452 C 0.78276 0.72995 0.36056 0.0
C453 C 0.7667 0.72263 0.31472 0.0
C454 C 0.77688 0.74356 0.40894 0.0
C455 C 0.75479 0.74967 0.41242 0.0
C456 C 0.73843 0.74087 0.36871 0.0
C457 C 0.74439 0.72761 0.32004 0.0
C458 C 0.72393 0.77995 0.53194 0.0
C459 C 0.7379 0.80031 0.54102 0.0
C460 C 0.72945 0.76338 0.49053 0.0
C461 C 0.74922 0.7667 0.4581 0.0
C462 C 0.76313 0.78704 0.46701 0.0
C463 C 0.75748 0.80371 0.50773 0.0
H464 H 0.55355 0.48412 0.00156 0.0
H465 H 0.54872 0.55083 0.07802 0.0
H466 H 0.52876 0.49214 0.91627 0.0
H467 H 0.52396 0.55884 0.99342 0.0
H468 H 0.49294 0.56892 0.8034 0.0
H469 H 0.52216 0.56266 0.87909 0.0
H470 H 0.48672 0.49814 0.91536 0.0
H471 H 0.45749 0.50431 0.84027 0.0
C472 C 0.5476 0.50064 -0.00069 0.0
C473 C 0.55268 0.51676 0.04653 0.0
C474 C 0.53328 0.50515 0.95102 0.0
C475 C 0.52422 0.52599 0.94887 0.0
C476 C 0.53067 0.54264 -0.00596 0.0
C477 C 0.54467 0.538 0.04265 0.0
C478 C 0.49132 0.55346 0.82777 0.0
C479 C 0.47284 0.53715 0.81593 0.0
C480 C 0.50806 0.54988 0.87093 0.0
C481 C 0.50681 0.52979 0.90235 0.0
C482 C 0.48828 0.5136 0.89095 0.0
C483 C 0.47141 0.51729 0.84848 0.0
H484 H 0.0184 0.56926 0.39117 0.0
H485 H -6e-05 0.50067 0.32526 0.0
H486 H 0.98167 0.57051 0.43198 0.0
H487 H 0.96263 0.50191 0.36684 0.0
H488 H 0.93133 0.50618 0.56161 0.0
H489 H 0.9532 0.50214 0.47257 0.0
H490 H 0.94086 0.56931 0.42247 0.0
H491 H 0.91936 0.57344 0.51343 0.0
C492 C 0.00628 0.55462 0.38376 0.0
C493 C 0.01222 0.5348 0.35538 0.0
C494 C 0.985 0.55541 0.40683 0.0
C495 C 0.96912 0.53632 0.40263 0.0
C496 C 0.97454 0.51687 0.37097 0.0
C497 C 0.99592 0.51613 0.34744 0.0
C498 C 0.93264 0.51975 0.53037 0.0
C499 C 0.92433 0.54033 0.54485 0.0
C500 C 0.94499 0.51738 0.47889 0.0
C501 C 0.94932 0.53567 0.44132 0.0
C502 C 0.93818 0.55511 0.45139 0.0
C503 C 0.92572 0.55743 0.50306 0.0
H504 H 0.04899 0.52456 0.11104 0.0
H505 H 0.02422 0.58995 0.13076 0.0
H506 H 0.02678 0.51722 0.01732 0.0
H507 H 0.00252 0.58284 0.03602 0.0
H508 H 0.94505 0.55209 0.91101 0.0
H509 H 0.96916 0.55919 0.00169 0.0
H510 H 0.02191 0.5273 0.91452 0.0
H511 H -0.00238 0.51958 0.82452 0.0
C512 C 0.03923 0.5376 0.09474 0.0
C513 C 0.03825 0.55778 0.12878 0.0
C514 C 0.02647 0.53337 0.0409 0.0
C515 C 0.01257 0.54929 0.01965 0.0
C516 C 0.01259 0.56998 0.05195 0.0
C517 C 0.02524 0.57416 0.10596 0.0
C518 C 0.9617 0.54637 0.91135 0.0
C519 C 0.96937 0.53527 0.86038 0.0
C520 C 0.97563 0.55067 0.96314 0.0
C521 C -0.00241 0.54409 0.96509 0.0
C522 C 0.00505 0.53248 0.9147 0.0
C523 C 0.99109 0.52807 0.86302 0.0
H524 H 0.47154 0.48401 0.6209 0.0
H525 H 0.4489 0.54141 0.53223 0.0
H526 H 0.50581 0.48739 0.56256 0.0
H527 H 0.48226 0.54441 0.47345 0.0
H528 H 0.546 0.55833 0.39472 0.0
H529 H 0.52139 0.55501 0.47988 0.0
H530 H 0.51806 0.48236 0.4611 0.0
H531 H 0.54386 0.48589 0.37834 0.0
C532 C 0.47382 0.4972 0.58869 0.0
C533 C 0.45764 0.5125 0.58122 0.0
C534 C 0.49344 0.4992 0.55549 0.0
C535 C 0.49707 0.51647 0.51417 0.0
C536 C 0.48054 0.5314 0.50631 0.0
C537 C 0.4612 0.52952 0.53956 0.0
C538 C 0.54071 0.54172 0.41054 0.0
C539 C 0.54656 0.52238 0.37982 0.0
C540 C 0.52639 0.53975 0.45875 0.0
C541 C 0.51705 0.51839 0.4758 0.0
C542 C 0.52484 0.49906 0.44908 0.0
C543 C 0.53966 0.50107 0.40167 0.0
H544 H 0.09234 0.44541 0.26724 0.0
H545 H 0.12571 0.50097 0.17403 0.0
H546 H 0.11739 0.42026 0.22378 0.0
H547 H 0.15048 0.47552 0.12861 0.0
H548 H 0.15562 0.37456 0.12127 0.0
H549 H 0.12785 0.40129 0.13542 0.0
H550 H 0.18143 0.45559 0.15928 0.0
H551 H 0.2091 0.42892 0.14253 0.0
C552 C 0.10482 0.4522 0.23669 0.0
C553 C 0.10712 0.47523 0.22451 0.0
C554 C 0.1191 0.4377 0.21117 0.0
C555 C 0.13596 0.44579 0.17233 0.0
C556 C 0.13786 0.46875 0.15879 0.0
C557 C 0.12361 0.48332 0.18469 0.0
C558 C 0.1614 0.39231 0.12786 0.0
C559 C 0.18453 0.39962 0.13158 0.0
C560 C 0.14551 0.40761 0.13656 0.0
C561 C 0.1524 0.43052 0.15019 0.0
C562 C 0.17547 0.4381 0.1488 0.0
C563 C 0.19138 0.4228 0.13918 0.0
H564 H 0.77156 0.9047 0.47633 0.0
H565 H 0.83436 0.9084 0.58062 0.0
H566 H 0.79071 0.9249 0.39609 0.0
H567 H 0.85355 0.92822 0.4999 0.0
H568 H 0.87507 0.98445 0.37242 0.0
H569 H 0.85568 0.96447 0.45254 0.0
H570 H 0.81814 0.91974 0.31952 0.0
H571 H 0.83723 0.93999 0.23924 0.0
C572 C 0.78946 0.90975 0.48209 0.0
C573 C 0.80142 0.90495 0.53499 0.0
C574 C 0.80046 0.92122 0.4359 0.0
C575 C 0.82367 0.92819 0.44152 0.0
C576 C 0.83561 0.92336 0.49442 0.0
C577 C 0.82462 0.91187 0.54059 0.0
C578 C 0.86267 0.97037 0.3602 0.0
C579 C 0.8577 0.96384 0.29936 0.0
C580 C 0.85165 0.95882 0.4062 0.0
C581 C 0.83537 0.94048 0.3925 0.0
C582 C 0.83038 0.93397 0.33163 0.0
C583 C 0.84143 0.94551 0.2856 0.0
H584 H 0.29282 0.65708 0.64456 0.0
H585 H 0.3587 0.69295 0.62848 0.0
H586 H 0.30979 0.6271 0.696 0.0
H587 H 0.37576 0.66274 0.67626 0.0
H588 H 0.35226 0.56563 0.68537 0.0
H589 H 0.32998 0.59709 0.67156 0.0
H590 H 0.38365 0.64222 0.75862 0.0
H591 H 0.40646 0.6108 0.76781 0.0
C592 C 0.31093 0.65858 0.65221 0.0
C593 C 0.32445 0.67727 0.63199 0.0
C594 C 0.32069 0.64134 0.68149 0.0
C595 C 0.34424 0.64225 0.69028 0.0
C596 C 0.35757 0.66146 0.6718 0.0
C597 C 0.34779 0.6788 0.6436 0.0
C598 C 0.35891 0.58217 0.70337 0.0
C599 C 0.3811 0.58591 0.72702 0.0
C600 C 0.34614 0.60032 0.69546 0.0
C601 C 0.35521 0.62248 0.71225 0.0
C602 C 0.37641 0.6256 0.74287 0.0
C603 C 0.38938 0.60756 0.74914 0.0
H604 H 0.64491 0.15448 0.05928 0.0
H605 H 0.69951 0.1219 0.98414 0.0
H606 H 0.61829 0.12318 0.02158 0.0
H607 H 0.67266 0.09079 0.9441 0.0
H608 H 0.61392 0.03252 0.90906 0.0
H609 H 0.6437 0.05887 0.95897 0.0
H610 H 0.60502 0.11433 0.91915 0.0
H611 H 0.57545 0.08826 0.87134 0.0
C612 C 0.65125 0.14038 0.03566 0.0
C613 C 0.6742 0.14072 0.02404 0.0
C614 C 0.636 0.12255 0.01347 0.0
C615 C 0.64328 0.10487 0.97809 0.0
C616 C 0.66651 0.10421 0.9709 0.0
C617 C 0.68188 0.12199 -0.006 0.0
C618 C 0.61206 0.0504 0.91034 0.0
C619 C 0.59229 0.05835 0.88697 0.0
C620 C 0.62902 0.06545 0.93912 0.0
C621 C 0.62641 0.08861 0.94462 0.0
C622 C 0.60722 0.09652 0.91778 0.0
C623 C 0.59035 0.0816 0.88972 0.0
H624 H 0.11146 0.62934 0.28812 0.0
H625 H 0.14279 0.57364 0.3617 0.0
H626 H 0.14358 0.65518 0.32432 0.0
H627 H 0.17455 0.59964 0.4009 0.0
H628 H 0.23565 0.65374 0.42974 0.0
H629 H 0.20673 0.6255 0.38511 0.0
H630 H 0.15606 0.67073 0.41961 0.0
H631 H 0.18498 0.69907 0.46128 0.0
C632 C 0.12539 0.62261 0.31148 0.0
C633 C 0.12459 0.59954 0.32242 0.0
C634 C 0.14368 0.63744 0.33299 0.0
C635 C 0.16139 0.62962 0.36723 0.0
C636 C 0.16125 0.60629 0.37479 0.0
C637 C 0.14307 0.59136 0.3522 0.0
C638 C 0.21825 0.65743 0.42844 0.0
C639 C 0.21255 0.67863 0.44854 0.0
C640 C 0.20168 0.64129 0.40273 0.0
C641 C 0.17909 0.646 0.39737 0.0
C642 C 0.17336 0.66678 0.42086 0.0
C643 C 0.18989 0.68295 0.44554 0.0
H644 H 0.57548 0.91127 0.74673 0.0
H645 H 0.60297 0.97461 0.67753 0.0
H646 H 0.60483 0.89244 0.69994 0.0
H647 H 0.63206 0.95553 0.62815 0.0
H648 H 0.69769 0.91861 0.64291 0.0
H649 H 0.66531 0.93969 0.65656 0.0
H650 H 0.62075 0.87918 0.61265 0.0
H651 H 0.65327 0.85796 0.60247 0.0
C652 C 0.58756 0.92112 0.72047 0.0
C653 C 0.58701 0.94448 0.71647 0.0
C654 C 0.60435 0.91025 0.69292 0.0
C655 C 0.62092 0.9224 0.65992 0.0
C656 C 0.6198 0.94566 0.65382 0.0
C657 C 0.60307 0.9566 0.68198 0.0
C658 C 0.68097 0.91002 0.63417 0.0
C659 C 0.67795 0.88661 0.62251 0.0
C660 C 0.66233 0.9221 0.64207 0.0
C661 C 0.64032 0.91103 0.63746 0.0
C662 C 0.63743 0.88812 0.6187 0.0
C663 C 0.65604 0.87598 0.61206 0.0
H664 H 0.38833 0.4726 0.86076 0.0
H665 H 0.32387 0.48316 0.77809 0.0
H666 H 0.36928 0.45049 0.93781 0.0
H667 H 0.30485 0.46139 0.85571 0.0
H668 H 0.2793 0.40148 0.96651 0.0
H669 H 0.29879 0.4228 0.88881 0.0
H670 H 0.3459 0.45544 0.02428 0.0
H671 H 0.32666 0.43383 0.10193 0.0
C672 C 0.3701 0.47026 0.85907 0.0
C673 C 0.35763 0.47965 0.81318 0.0
C674 C 0.35918 0.45769 0.90347 0.0
C675 C 0.33553 0.45417 0.90297 0.0
C676 C 0.32308 0.46353 0.85699 0.0
C677 C 0.334 0.47613 0.81266 0.0
C678 C 0.29384 0.41317 0.97977 0.0
C679 C 0.30141 0.41595 0.0405 0.0
C680 C 0.30494 0.42549 0.93522 0.0
C681 C 0.32388 0.44087 0.95031 0.0
C682 C 0.33152 0.44354 0.01101 0.0
C683 C 0.32041 0.43124 0.05558 0.0
H684 H 0.7731 0.14035 0.16845 0.0
H685 H 0.82862 0.17374 0.0753 0.0
H686 H 0.79846 0.11544 0.21359 0.0
H687 H 0.85368 0.14852 0.11841 0.0
H688 H 0.89918 0.10933 0.21804 0.0
H689 H 0.87275 0.13749 0.2058 0.0
H690 H 0.81797 0.08439 0.18194 0.0
H691 H 0.84435 0.05634 0.19686 0.0
C692 C 0.79072 0.14243 0.15778 0.0
C693 C 0.79882 0.15894 0.11797 0.0
C694 C 0.80525 0.1281 0.18351 0.0
C695 C 0.82815 0.12991 0.16977 0.0
C696 C 0.83627 0.14686 0.13115 0.0
C697 C 0.82182 0.16124 0.10583 0.0
C698 C 0.8814 0.10373 0.2119 0.0
C699 C 0.87386 0.08064 0.2076 0.0
C700 C 0.86626 0.11985 0.2043 0.0
C701 C 0.84329 0.11323 0.19116 0.0
C702 C 0.83551 0.09017 0.19208 0.0
C703 C 0.85065 0.07403 0.20063 0.0
H704 H 0.85323 0.64466 0.14299 0.0
H705 H 0.79734 0.64302 0.01345 0.0
H706 H 0.87283 0.62168 0.0734 0.0
H707 H 0.81717 0.62054 0.94339 0.0
H708 H 0.8537 0.5678 0.84339 0.0
H709 H 0.83206 0.58475 0.92134 0.0
H710 H 0.89116 0.62894 0.9799 0.0
H711 H 0.91274 0.61184 0.90344 0.0
C712 C 0.84503 0.63925 0.09991 0.0
C713 C 0.82383 0.6459 0.08357 0.0
C714 C 0.85633 0.62619 0.05985 0.0
C715 C 0.84671 0.61952 0.00246 0.0
C716 C 0.82502 0.62524 0.98733 0.0
C717 C 0.81369 0.63826 0.02745 0.0
C718 C 0.86205 0.58107 0.87314 0.0
C719 C 0.88492 0.58852 0.86703 0.0
C720 C 0.84965 0.59082 0.91767 0.0
C721 C 0.85989 0.60814 0.95707 0.0
C722 C 0.88281 0.61536 0.95115 0.0
C723 C 0.89515 0.60567 0.90679 0.0
H724 H 0.21389 0.13661 0.61513 0.0
H725 H 0.16881 0.18417 0.67619 0.0
H726 H 0.18499 0.10557 0.63082 0.0
H727 H 0.14049 0.15336 0.6941 0.0
H728 H 0.0855 0.09695 0.6589 0.0
H729 H 0.11501 0.12661 0.64143 0.0
H730 H 0.16498 0.08469 0.70609 0.0
H731 H 0.13522 0.05438 0.72138 0.0
C732 C 0.19787 0.14044 0.63207 0.0
C733 C 0.1936 0.16289 0.64383 0.0
C734 C 0.18136 0.12264 0.64154 0.0
C735 C 0.16032 0.12691 0.6635 0.0
C736 C 0.15625 0.14939 0.67586 0.0
C737 C 0.17259 0.16712 0.66576 0.0
C738 C 0.10275 0.094 0.66975 0.0
C739 C 0.10795 0.07329 0.69197 0.0
C740 C 0.11973 0.11113 0.65992 0.0
C741 C 0.14244 0.1082 0.67282 0.0
C742 C 0.14771 0.08746 0.69502 0.0
C743 C 0.13065 0.07014 0.70424 0.0
H744 H 0.69739 0.41685 0.52127 0.0
H745 H 0.67075 0.35775 0.41394 0.0
H746 H 0.67626 0.44032 0.45651 0.0
H747 H 0.65017 0.38112 0.34892 0.0
H748 H 0.59292 0.42351 0.30443 0.0
H749 H 0.61751 0.40141 0.36155 0.0
H750 H 0.67182 0.45473 0.35386 0.0
H751 H 0.64689 0.47724 0.29704 0.0
C752 C 0.68727 0.40892 0.48347 0.0
C753 C 0.68549 0.38541 0.47327 0.0
C754 C 0.67527 0.42237 0.4462 0.0
C755 C 0.66131 0.41255 0.398 0.0
C756 C 0.66037 0.38916 0.38643 0.0
C757 C 0.67225 0.37576 0.42365 0.0
C758 C 0.61012 0.43056 0.31455 0.0
C759 C 0.61793 0.45215 0.29612 0.0
C760 C 0.62429 0.41779 0.34704 0.0
C761 C 0.64668 0.42624 0.36201 0.0
C762 C 0.65461 0.44782 0.34336 0.0
C763 C 0.64038 0.46063 0.31053 0.0
H764 H 0.36929 0.01539 0.16261 0.0
H765 H 0.41786 0.96821 0.19811 0.0
H766 H 0.34078 0.98449 0.13621 0.0
H767 H 0.38886 0.9369 0.17649 0.0
H768 H 0.3388 0.88429 0.08418 0.0
H769 H 0.36751 0.91607 0.10262 0.0
H770 H 0.31664 0.95634 0.16944 0.0
H771 H 0.28805 0.92522 0.14636 0.0
C772 C 0.37366 -0.0017 0.16649 0.0
C773 C 0.3957 0.99416 0.18295 0.0
C774 C 0.35726 0.98046 0.15142 0.0
C775 C 0.3623 0.95796 0.1541 0.0
C776 C 0.38433 0.9539 0.17234 0.0
C777 C 0.40093 0.97182 0.18569 0.0
C778 C 0.33382 0.90016 0.10159 0.0
C779 C 0.3112 0.90239 0.1132 0.0
C780 C 0.35031 0.91832 0.11311 0.0
C781 C 0.34462 0.93892 0.13824 0.0
C782 C 0.32182 0.94107 0.14894 0.0
C783 C 0.30531 0.92315 0.13579 0.0
H784 H 0.77824 0.41129 0.61304 0.0
H785 H 0.82252 0.36381 0.67908 0.0
H786 H 0.8085 0.44173 0.62957 0.0
H787 H 0.85247 0.39428 0.69678 0.0
H788 H 0.90731 0.45126 0.66124 0.0
H789 H 0.87771 0.4204 0.64468 0.0
H790 H 0.82915 0.46271 0.71376 0.0
H791 H 0.85871 0.49388 0.72915 0.0
C792 C 0.79443 0.40729 0.63072 0.0
C793 C 0.79789 0.38506 0.64473 0.0
C794 C 0.81171 0.42479 0.64079 0.0
C795 C 0.83284 0.42047 0.66507 0.0
C796 C 0.83646 0.39817 0.67762 0.0
C797 C 0.81923 0.38069 0.66752 0.0
C798 C 0.89038 0.45399 0.67353 0.0
C799 C 0.88543 0.47514 0.69637 0.0
C800 C 0.8734 0.43623 0.66409 0.0
C801 C 0.85102 0.43914 0.67737 0.0
C802 C 0.84615 0.46005 0.70196 0.0
C803 C 0.86316 0.47785 0.71139 0.0
H804 H 0.28156 0.13301 0.52177 0.0
H805 H 0.347 0.16915 0.56289 0.0
H806 H 0.29852 0.10789 0.45129 0.0
H807 H 0.36381 0.14426 0.49239 0.0
H808 H 0.39121 0.08727 0.39318 0.0
H809 H 0.37217 0.10526 0.4739 0.0
H810 H 0.31584 0.11256 0.35141 0.0
H811 H 0.3348 0.09423 0.27036 0.0
C812 C 0.2996 0.13538 0.51652 0.0
C813 C 0.31294 0.15315 0.54772 0.0
C814 C 0.30926 0.1211 0.47581 0.0
C815 C 0.33247 0.12416 0.46603 0.0
C816 C 0.34591 0.1413 0.4993 0.0
C817 C 0.33625 0.15565 0.53955 0.0
C818 C 0.37465 0.09248 0.38343 0.0
C819 C 0.36465 0.08957 0.32501 0.0
C820 C 0.36378 0.10285 0.42976 0.0
C821 C 0.34262 0.11055 0.41891 0.0
C822 C 0.33208 0.10667 0.3613 0.0
C823 C 0.343 0.09628 0.31477 0.0
H824 H 0.59695 0.60038 0.16063 0.0
H825 H 0.64379 0.55444 0.22122 0.0
H826 H 0.62777 0.62938 0.15052 0.0
H827 H 0.67489 0.58407 0.2129 0.0
H828 H 0.72661 0.63713 0.13327 0.0
H829 H 0.6966 0.60639 0.14113 0.0
H830 H 0.65321 0.65373 0.21265 0.0
H831 H 0.68262 0.68427 0.20303 0.0
C832 C 0.61383 0.5965 0.17252 0.0
C833 C 0.61782 0.57506 0.19225 0.0
C834 C 0.63157 0.61325 0.1669 0.0
C835 C 0.65384 0.60919 0.18145 0.0
C836 C 0.65795 0.58771 0.20082 0.0
C837 C 0.64012 0.57078 0.20603 0.0
C838 C 0.7106 0.64095 0.15032 0.0
C839 C 0.70698 0.66323 0.16692 0.0
C840 C 0.69347 0.62331 0.15529 0.0
C841 C 0.67243 0.62759 0.1772 0.0
C842 C 0.669 0.64984 0.19435 0.0
C843 C 0.68597 0.6674 0.18899 0.0
H844 H 0.15887 0.90234 0.06826 0.0
H845 H 0.21517 0.91295 0.95181 0.0
H846 H 0.13548 0.92054 -0.00313 0.0
H847 H 0.19152 0.93096 0.8797 0.0
H848 H 0.14431 0.98067 0.79498 0.0
H849 H 0.17029 0.96442 0.86494 0.0
H850 H 0.11894 0.91018 0.89612 0.0
H851 H 0.09307 0.92638 0.82734 0.0
C852 C 0.16631 0.90865 0.02757 0.0
C853 C 0.18884 0.90601 0.01555 0.0
C854 C 0.15285 0.91896 0.98642 0.0
C855 C 0.16155 0.92688 0.93218 0.0
C856 C 0.18434 0.92507 0.92115 0.0
C857 C 0.19785 0.9147 0.9624 0.0
C858 C 0.13868 0.96515 0.81635 0.0
C859 C 0.11656 0.95491 0.80593 0.0
C860 C 0.15356 0.95585 0.85636 0.0
C861 C 0.14654 0.93622 0.88678 0.0
C862 C 0.1247 0.92561 0.8745 0.0
C863 C 0.10992 0.93482 0.83463 0.0
loop_
_geom_bond_atom_site_label_1
_geom_bond_atom_site_label_2
_geom_bond_distance
_geom_bond_site_symmetry_2
_ccdc_geom_bond_type
Mg0 O1 2.028 1_554 S
Mg0 O7 1.986 . S
Mg0 O9 2.114 . S
Mg0 O10 2.251 . S
Mg0 O13 2.010 . S
O1 Mg0 2.028 1_556 S
O1 C4 1.250 . S
O2 Mg3 2.028 . S
O2 C4 1.248 1_554 S
Mg3 O2 2.028 . S
Mg3 O8 2.032 . S
Mg3 O10 2.079 . S
C4 O1 1.250 . S
C4 O2 1.248 1_556 S
C5 O6 1.264 . S
C5 O13 1.249 . S
O6 C5 1.264 . S
O7 Mg0 1.986 . S
O7 C11 1.246 . S
O8 Mg3 2.032 . S
O8 C11 1.259 . S
O9 Mg0 2.114 . S
O9 C12 1.252 . S
O10 Mg0 2.251 . S
O10 Mg3 2.079 . S
O10 C12 1.273 . S
C11 O7 1.246 . S
C11 O8 1.259 . S
C12 O9 1.252 . S
C12 O10 1.273 . S
O13 Mg0 2.010 . S
O13 C5 1.249 . S
Mg14 O15 2.028 . S
Mg14 O21 1.986 . S
Mg14 O23 2.114 . S
Mg14 O24 2.251 . S
Mg14 O27 2.010 . S
O15 Mg14 2.028 . S
O15 C18 1.250 . S
O16 Mg17 2.028 . S
O16 C18 1.248 . S
Mg17 O16 2.028 . S
Mg17 O22 2.032 . S
Mg17 O24 2.079 . S
C18 O15 1.250 . S
C18 O16 1.248 . S
C19 O20 1.264 . S
C19 O27 1.249 1_565 S
O20 C19 1.264 . S
O21 Mg14 1.986 . S
O21 C25 1.246 . S
O22 Mg17 2.032 . S
O22 C25 1.259 . S
O23 Mg14 2.114 . S
O23 C26 1.252 . S
O24 Mg14 2.251 . S
O24 Mg17 2.079 . S
O24 C26 1.273 . S
C25 O21 1.246 . S
C25 O22 1.259 . S
C26 O23 1.252 . S
C26 O24 1.273 . S
O27 Mg14 2.010 . S
O27 C19 1.249 1_545 S
Mg28 O29 2.028 . S
Mg28 O35 1.986 . S
Mg28 O37 2.114 . S
Mg28 O38 2.251 . S
Mg28 O41 2.010 . S
O29 Mg28 2.028 . S
O29 C32 1.250 . S
O30 Mg31 2.028 . S
O30 C32 1.248 . S
Mg31 O30 2.028 . S
Mg31 O36 2.032 . S
Mg31 O38 2.079 . S
C32 O29 1.250 . S
C32 O30 1.248 . S
C33 O34 1.264 . S
C33 O41 1.249 . S
O34 C33 1.264 . S
O35 Mg28 1.986 . S
O35 C39 1.246 . S
O36 Mg31 2.032 . S
O36 C39 1.259 . S
O37 Mg28 2.114 . S
O37 C40 1.252 . S
O38 Mg28 2.251 . S
O38 Mg31 2.079 . S
O38 C40 1.273 . S
C39 O35 1.246 . S
C39 O36 1.259 . S
C40 O37 1.252 . S
C40 O38 1.273 . S
O41 Mg28 2.010 . S
O41 C33 1.249 . S
Mg42 O43 2.028 . S
Mg42 O49 1.986 . S
Mg42 O51 2.114 1_545 S
Mg42 O52 2.251 . S
Mg42 O55 2.010 1_545 S
O43 Mg42 2.028 . S
O43 C46 1.250 . S
O44 Mg45 2.028 . S
O44 C46 1.248 . S
Mg45 O44 2.028 . S
Mg45 O50 2.032 . S
Mg45 O52 2.079 . S
C46 O43 1.250 . S
C46 O44 1.248 . S
C47 O48 1.264 . S
C47 O55 1.249 . S
O48 C47 1.264 . S
O49 Mg42 1.986 . S
O49 C53 1.246 . S
O50 Mg45 2.032 . S
O50 C53 1.259 . S
O51 Mg42 2.114 1_565 S
O51 C54 1.252 1_565 S
O52 Mg42 2.251 . S
O52 Mg45 2.079 . S
O52 C54 1.273 . S
C53 O49 1.246 . S
C53 O50 1.259 . S
C54 O51 1.252 1_545 S
C54 O52 1.273 . S
O55 Mg42 2.010 1_565 S
O55 C47 1.249 . S
Mg56 O57 2.028 . S
Mg56 O63 1.986 1_554 S
Mg56 O65 2.114 . S
Mg56 O66 2.251 . S
Mg56 O69 2.010 . S
O57 Mg56 2.028 . S
O57 C60 1.250 . S
O58 Mg59 2.028 . S
O58 C60 1.248 . S
Mg59 O58 2.028 . S
Mg59 O64 2.032 1_554 S
Mg59 O66 2.079 . S
C60 O57 1.250 . S
C60 O58 1.248 . S
C61 O62 1.264 . S
C61 O69 1.249 . S
O62 C61 1.264 . S
O63 Mg56 1.986 1_556 S
O63 C67 1.246 . S
O64 Mg59 2.032 1_556 S
O64 C67 1.259 . S
O65 Mg56 2.114 . S
O65 C68 1.252 . S
O66 Mg56 2.251 . S
O66 Mg59 2.079 . S
O66 C68 1.273 . S
C67 O63 1.246 . S
C67 O64 1.259 . S
C68 O65 1.252 . S
C68 O66 1.273 . S
O69 Mg56 2.010 . S
O69 C61 1.249 . S
Mg70 O71 2.028 . S
Mg70 O77 1.986 . S
Mg70 O79 2.114 . S
Mg70 O80 2.251 . S
Mg70 O83 2.012 1_545 S
O71 Mg70 2.028 . S
O71 C74 1.250 . S
O72 Mg73 2.028 . S
O72 C74 1.248 . S
Mg73 O72 2.028 . S
Mg73 O78 2.032 . S
Mg73 O80 2.079 . S
C74 O71 1.250 . S
C74 O72 1.248 . S
C75 O76 1.264 . S
C75 O83 1.248 . S
O76 C75 1.264 . S
O77 Mg70 1.986 . S
O77 C81 1.246 . S
O78 Mg73 2.032 . S
O78 C81 1.259 . S
O79 Mg70 2.114 . S
O79 C82 1.252 . S
O80 Mg70 2.251 . S
O80 Mg73 2.079 . S
O80 C82 1.273 . S
C81 O77 1.246 . S
C81 O78 1.259 . S
C82 O79 1.252 . S
C82 O80 1.273 . S
O83 Mg70 2.012 1_565 S
O83 C75 1.248 . S
Mg84 O85 2.028 . S
Mg84 O91 1.986 . S
Mg84 O93 2.114 . S
Mg84 O94 2.251 . S
Mg84 O97 2.010 . S
O85 Mg84 2.028 . S
O85 C88 1.250 . S
O86 Mg87 2.028 . S
O86 C88 1.248 . S
Mg87 O86 2.028 . S
Mg87 O92 2.032 . S
Mg87 O94 2.079 . S
C88 O85 1.250 . S
C88 O86 1.248 . S
C89 O90 1.264 . S
C89 O97 1.249 . S
O90 C89 1.264 . S
O91 Mg84 1.986 . S
O91 C95 1.246 . S
O92 Mg87 2.032 . S
O92 C95 1.259 . S
O93 Mg84 2.114 . S
O93 C96 1.252 . S
O94 Mg84 2.251 . S
O94 Mg87 2.079 . S
O94 C96 1.273 . S
C95 O91 1.246 . S
C95 O92 1.259 . S
C96 O93 1.252 . S
C96 O94 1.273 . S
O97 Mg84 2.010 . S
O97 C89 1.249 . S
Mg98 O99 2.028 . S
Mg98 O105 1.986 . S
Mg98 O107 2.114 . S
Mg98 O108 2.251 . S
Mg98 O111 2.010 . S
O99 Mg98 2.028 . S
O99 C102 1.250 1_545 S
O100 Mg101 2.028 . S
O100 C102 1.248 . S
Mg101 O100 2.028 . S
Mg101 O106 2.032 . S
Mg101 O108 2.079 1_565 S
C102 O99 1.250 1_565 S
C102 O100 1.248 . S
C103 O104 1.264 . S
C103 O111 1.249 . S
O104 C103 1.264 . S
O105 Mg98 1.986 . S
O105 C109 1.246 . S
O106 Mg101 2.032 . S
O106 C109 1.259 1_565 S
O107 Mg98 2.114 . S
O107 C110 1.252 . S
O108 Mg98 2.251 . S
O108 Mg101 2.079 1_545 S
O108 C110 1.273 . S
C109 O105 1.246 . S
C109 O106 1.259 1_545 S
C110 O107 1.252 . S
C110 O108 1.273 . S
O111 Mg98 2.010 . S
O111 C103 1.249 . S
Mg112 O113 2.028 . S
Mg112 O119 1.986 . S
Mg112 O121 2.114 . S
Mg112 O122 2.251 . S
Mg112 O125 2.010 . S
O113 Mg112 2.028 . S
O113 C116 1.250 . S
O114 Mg115 2.028 . S
O114 C116 1.248 . S
Mg115 O114 2.028 . S
Mg115 O120 2.032 . S
Mg115 O122 2.079 . S
C116 O113 1.250 . S
C116 O114 1.248 . S
C117 O118 1.264 . S
C117 O125 1.249 . S
O118 C117 1.264 . S
O119 Mg112 1.986 . S
O119 C123 1.246 . S
O120 Mg115 2.032 . S
O120 C123 1.259 . S
O121 Mg112 2.114 . S
O121 C124 1.252 . S
O122 Mg112 2.251 . S
O122 Mg115 2.079 . S
O122 C124 1.273 . S
C123 O119 1.246 . S
C123 O120 1.259 . S
C124 O121 1.252 . S
C124 O122 1.273 . S
O125 Mg112 2.010 . S
O125 C117 1.249 . S
Mg126 O127 2.028 . S
Mg126 O133 1.986 . S
Mg126 O135 2.114 . S
Mg126 O136 2.251 . S
Mg126 O139 2.010 . S
O127 Mg126 2.028 . S
O127 C130 1.250 . S
O128 Mg129 2.028 . S
O128 C130 1.248 . S
Mg129 O128 2.028 . S
Mg129 O134 2.032 . S
Mg129 O136 2.079 . S
C130 O127 1.250 . S
C130 O128 1.248 . S
C131 O132 1.264 . S
C131 O139 1.249 . S
O132 C131 1.264 . S
O133 Mg126 1.986 . S
O133 C137 1.246 . S
O134 Mg129 2.032 . S
O134 C137 1.259 . S
O135 Mg126 2.114 . S
O135 C138 1.252 . S
O136 Mg126 2.251 . S
O136 Mg129 2.079 . S
O136 C138 1.273 . S
C137 O133 1.246 . S
C137 O134 1.259 . S
C138 O135 1.252 . S
C138 O136 1.273 . S
O139 Mg126 2.010 . S
O139 C131 1.249 . S
Mg140 O141 2.028 . S
Mg140 O147 1.986 . S
Mg140 O149 2.114 1_554 S
Mg140 O150 2.251 1_554 S
Mg140 O153 2.010 . S
O141 Mg140 2.028 . S
O141 C144 1.250 . S
O142 Mg143 2.026 1_554 S
O142 C144 1.248 . S
Mg143 O142 2.026 1_556 S
Mg143 O148 2.032 1_556 S
Mg143 O150 2.080 . S
C144 O141 1.250 . S
C144 O142 1.248 . S
C145 O146 1.264 . S
C145 O153 1.249 . S
O146 C145 1.264 . S
O147 Mg140 1.986 . S
O147 C151 1.246 . S
O148 Mg143 2.032 1_554 S
O148 C151 1.259 . S
O149 Mg140 2.114 1_556 S
O149 C152 1.252 . S
O150 Mg140 2.251 1_556 S
O150 Mg143 2.080 . S
O150 C152 1.273 . S
C151 O147 1.246 . S
C151 O148 1.259 . S
C152 O149 1.252 . S
C152 O150 1.273 . S
O153 Mg140 2.010 . S
O153 C145 1.249 . S
Mg154 O155 2.028 . S
Mg154 O161 1.986 . S
Mg154 O163 2.114 . S
Mg154 O164 2.251 . S
Mg154 O167 2.010 . S
O155 Mg154 2.028 . S
O155 C158 1.250 . S
O156 Mg157 2.028 . S
O156 C158 1.248 . S
Mg157 O156 2.028 . S
Mg157 O162 2.032 . S
Mg157 O164 2.079 . S
C158 O155 1.250 . S
C158 O156 1.248 . S
C159 O160 1.264 . S
C159 O167 1.249 . S
O160 C159 1.264 . S
O161 Mg154 1.986 . S
O161 C165 1.246 . S
O162 Mg157 2.032 . S
O162 C165 1.259 . S
O163 Mg154 2.114 . S
O163 C166 1.252 . S
O164 Mg154 2.251 . S
O164 Mg157 2.079 . S
O164 C166 1.273 . S
C165 O161 1.246 . S
C165 O162 1.259 . S
C166 O163 1.252 . S
C166 O164 1.273 . S
O167 Mg154 2.010 . S
O167 C159 1.249 . S
Mg168 O169 2.028 . S
Mg168 O175 1.986 . S
Mg168 O177 2.114 . S
Mg168 O178 2.251 . S
Mg168 O181 2.010 . S
O169 Mg168 2.028 . S
O169 C172 1.250 . S
O170 Mg171 2.028 . S
O170 C172 1.248 . S
Mg171 O170 2.028 . S
Mg171 O176 2.032 . S
Mg171 O178 2.079 . S
C172 O169 1.250 . S
C172 O170 1.248 . S
C173 O174 1.264 . S
C173 O181 1.249 . S
O174 C173 1.264 . S
O175 Mg168 1.986 . S
O175 C179 1.246 . S
O176 Mg171 2.032 . S
O176 C179 1.259 . S
O177 Mg168 2.114 . S
O177 C180 1.252 . S
O178 Mg168 2.251 . S
O178 Mg171 2.079 . S
O178 C180 1.273 . S
C179 O175 1.246 . S
C179 O176 1.259 . S
C180 O177 1.252 . S
C180 O178 1.273 . S
O181 Mg168 2.010 . S
O181 C173 1.249 . S
Mg182 O183 2.028 . S
Mg182 O189 1.986 . S
Mg182 O191 2.114 . S
Mg182 O192 2.251 . S
Mg182 O195 2.010 . S
O183 Mg182 2.028 . S
O183 C186 1.250 . S
O184 Mg185 2.028 . S
O184 C186 1.248 . S
Mg185 O184 2.028 . S
Mg185 O190 2.032 . S
Mg185 O192 2.079 . S
C186 O183 1.250 . S
C186 O184 1.248 . S
C187 O188 1.264 . S
C187 O195 1.249 . S
O188 C187 1.264 . S
O189 Mg182 1.986 . S
O189 C193 1.246 . S
O190 Mg185 2.032 . S
O190 C193 1.259 . S
O191 Mg182 2.114 . S
O191 C194 1.252 . S
O192 Mg182 2.251 . S
O192 Mg185 2.079 . S
O192 C194 1.273 . S
C193 O189 1.246 . S
C193 O190 1.259 . S
C194 O191 1.252 . S
C194 O192 1.273 . S
O195 Mg182 2.010 . S
O195 C187 1.249 . S
Mg196 O197 2.028 . S
Mg196 O203 1.986 1_554 S
Mg196 O205 2.114 . S
Mg196 O206 2.251 . S
Mg196 O209 2.010 . S
O197 Mg196 2.028 . S
O197 C200 1.250 . S
O198 Mg199 2.028 . S
O198 C200 1.248 . S
Mg199 O198 2.028 . S
Mg199 O204 2.032 1_554 S
Mg199 O206 2.079 . S
C200 O197 1.250 . S
C200 O198 1.248 . S
C201 O202 1.264 . S
C201 O209 1.249 1_556 S
O202 C201 1.264 . S
O203 Mg196 1.986 1_556 S
O203 C207 1.246 . S
O204 Mg199 2.032 1_556 S
O204 C207 1.259 . S
O205 Mg196 2.114 . S
O205 C208 1.252 . S
O206 Mg196 2.251 . S
O206 Mg199 2.079 . S
O206 C208 1.273 . S
C207 O203 1.246 . S
C207 O204 1.259 . S
C208 O205 1.252 . S
C208 O206 1.273 . S
O209 Mg196 2.010 . S
O209 C201 1.249 1_554 S
Mg210 O211 2.028 . S
Mg210 O217 1.986 . S
Mg210 O219 2.114 . S
Mg210 O220 2.251 . S
Mg210 O223 2.010 . S
O211 Mg210 2.028 . S
O211 C214 1.250 . S
O212 Mg213 2.028 . S
O212 C214 1.248 . S
Mg213 O212 2.028 . S
Mg213 O218 2.032 . S
Mg213 O220 2.079 . S
C214 O211 1.250 . S
C214 O212 1.248 . S
C215 O216 1.264 . S
C215 O223 1.249 . S
O216 C215 1.264 . S
O217 Mg210 1.986 . S
O217 C221 1.246 . S
O218 Mg213 2.032 . S
O218 C221 1.259 . S
O219 Mg210 2.114 . S
O219 C222 1.252 . S
O220 Mg210 2.251 . S
O220 Mg213 2.079 . S
O220 C222 1.273 . S
C221 O217 1.246 . S
C221 O218 1.259 . S
C222 O219 1.252 . S
C222 O220 1.273 . S
O223 Mg210 2.010 . S
O223 C215 1.249 . S
H224 C232 0.950 . S
H225 C237 0.950 . S
H226 C234 0.950 . S
H227 C236 0.950 . S
H228 C238 0.950 . S
H229 C240 0.950 . S
H230 C242 0.950 . S
H231 C243 0.950 . S
C232 H224 0.950 . S
C232 C233 1.386 . S
C232 C234 1.391 . S
C233 C232 1.386 . S
C233 C237 1.393 . S
C234 H226 0.950 . S
C234 C232 1.391 . S
C234 C235 1.400 . S
C235 C234 1.400 . S
C235 C236 1.398 . S
C235 C241 1.491 . S
C236 H227 0.950 . S
C236 C235 1.398 . S
C236 C237 1.391 . S
C237 H225 0.950 . S
C237 C233 1.393 . S
C237 C236 1.391 . S
C238 H228 0.950 . S
C238 C239 1.386 . S
C238 C240 1.391 . S
C239 C238 1.386 . S
C239 C243 1.393 . S
C240 H229 0.950 . S
C240 C238 1.391 . S
C240 C241 1.400 . S
C241 C235 1.491 . S
C241 C240 1.400 . S
C241 C242 1.398 . S
C242 H230 0.950 . S
C242 C241 1.398 . S
C242 C243 1.391 . S
C243 H231 0.950 . S
C243 C239 1.393 . S
C243 C242 1.391 . S
H244 C252 0.950 . S
H245 C257 0.950 . S
H246 C254 0.950 . S
H247 C256 0.950 . S
H248 C258 0.950 . S
H249 C260 0.950 . S
H250 C262 0.950 . S
H251 C263 0.950 1_565 S
C252 H244 0.950 . S
C252 C253 1.386 . S
C252 C254 1.391 . S
C253 C252 1.386 . S
C253 C257 1.393 . S
C254 H246 0.950 . S
C254 C252 1.391 . S
C254 C255 1.400 . S
C255 C254 1.400 . S
C255 C256 1.398 . S
C255 C261 1.491 1_655 S
C256 H247 0.950 . S
C256 C255 1.398 . S
C256 C257 1.391 . S
C257 H245 0.950 . S
C257 C253 1.393 . S
C257 C256 1.391 . S
C258 H248 0.950 . S
C258 C259 1.386 . S
C258 C260 1.391 . S
C259 C258 1.386 . S
C259 C263 1.393 . S
C260 H249 0.950 . S
C260 C258 1.391 . S
C260 C261 1.400 . S
C261 C255 1.491 1_455 S
C261 C260 1.400 . S
C261 C262 1.398 . S
C262 H250 0.950 . S
C262 C261 1.398 . S
C262 C263 1.391 . S
C263 H251 0.950 1_545 S
C263 C259 1.393 . S
C263 C262 1.391 . S
H264 C272 0.950 . S
H265 C277 0.950 . S
H266 C274 0.950 . S
H267 C276 0.950 . S
H268 C278 0.950 . S
H269 C280 0.950 . S
H270 C282 0.950 . S
H271 C283 0.950 . S
C272 H264 0.950 . S
C272 C273 1.386 . S
C272 C274 1.391 . S
C273 C272 1.386 . S
C273 C277 1.393 . S
C274 H266 0.950 . S
C274 C272 1.391 . S
C274 C275 1.400 . S
C275 C274 1.400 . S
C275 C276 1.398 . S
C275 C281 1.491 . S
C276 H267 0.950 . S
C276 C275 1.398 . S
C276 C277 1.391 . S
C277 H265 0.950 . S
C277 C273 1.393 . S
C277 C276 1.391 . S
C278 H268 0.950 . S
C278 C279 1.386 . S
C278 C280 1.391 . S
C279 C278 1.386 . S
C279 C283 1.393 . S
C280 H269 0.950 . S
C280 C278 1.391 . S
C280 C281 1.400 . S
C281 C275 1.491 . S
C281 C280 1.400 . S
C281 C282 1.398 . S
C282 H270 0.950 . S
C282 C281 1.398 . S
C282 C283 1.391 . S
C283 H271 0.950 . S
C283 C279 1.393 . S
C283 C282 1.391 . S
H284 C292 0.950 . S
H285 C297 0.950 . S
H286 C294 0.950 . S
H287 C296 0.950 . S
H288 C298 0.950 1_565 S
H289 C300 0.950 . S
H290 C302 0.950 . S
H291 C303 0.950 . S
C292 H284 0.950 . S
C292 C293 1.386 . S
C292 C294 1.391 . S
C293 C292 1.386 . S
C293 C297 1.393 . S
C294 H286 0.950 . S
C294 C292 1.391 . S
C294 C295 1.400 . S
C295 C294 1.400 . S
C295 C296 1.398 . S
C295 C301 1.491 . S
C296 H287 0.950 . S
C296 C295 1.398 . S
C296 C297 1.391 . S
C297 H285 0.950 . S
C297 C293 1.393 . S
C297 C296 1.391 . S
C298 H288 0.950 1_545 S
C298 C299 1.386 1_554 S
C298 C300 1.391 . S
C299 C298 1.386 1_556 S
C299 C303 1.393 . S
C300 H289 0.950 . S
C300 C298 1.391 . S
C300 C301 1.400 . S
C301 C295 1.491 . S
C301 C300 1.400 . S
C301 C302 1.398 1_554 S
C302 H290 0.950 . S
C302 C301 1.398 1_556 S
C302 C303 1.391 . S
C303 H291 0.950 . S
C303 C299 1.393 . S
C303 C302 1.391 . S
H304 C312 0.950 . S
H305 C317 0.950 . S
H306 C314 0.950 . S
H307 C316 0.950 . S
H308 C318 0.950 . S
H309 C320 0.950 . S
H310 C322 0.950 . S
H311 C323 0.950 . S
C312 H304 0.950 . S
C312 C313 1.386 . S
C312 C314 1.391 . S
C313 C312 1.386 . S
C313 C317 1.393 . S
C314 H306 0.950 . S
C314 C312 1.391 . S
C314 C315 1.400 . S
C315 C314 1.400 . S
C315 C316 1.398 . S
C315 C321 1.491 . S
C316 H307 0.950 . S
C316 C315 1.398 . S
C316 C317 1.391 . S
C317 H305 0.950 . S
C317 C313 1.393 . S
C317 C316 1.391 . S
C318 H308 0.950 . S
C318 C319 1.386 . S
C318 C320 1.391 . S
C319 C318 1.386 . S
C319 C323 1.393 . S
C320 H309 0.950 . S
C320 C318 1.391 . S
C320 C321 1.400 . S
C321 C315 1.491 . S
C321 C320 1.400 . S
C321 C322 1.398 . S
C322 H310 0.950 . S
C322 C321 1.398 . S
C322 C323 1.391 . S
C323 H311 0.950 . S
C323 C319 1.393 . S
C323 C322 1.391 . S
H324 C332 0.950 1_565 S
H325 C337 0.950 . S
H326 C334 0.948 1_565 S
H327 C336 0.950 . S
H328 C338 0.950 . S
H329 C340 0.950 . S
H330 C342 0.950 . S
H331 C343 0.950 . S
C332 H324 0.950 1_545 S
C332 C333 1.386 . S
C332 C334 1.391 . S
C333 C332 1.386 . S
C333 C337 1.393 . S
C334 H326 0.948 1_545 S
C334 C332 1.391 . S
C334 C335 1.400 . S
C335 C334 1.400 . S
C335 C336 1.398 . S
C335 C341 1.491 . S
C336 H327 0.950 . S
C336 C335 1.398 . S
C336 C337 1.391 . S
C337 H325 0.950 . S
C337 C333 1.393 . S
C337 C336 1.391 . S
C338 H328 0.950 . S
C338 C339 1.386 . S
C338 C340 1.391 . S
C339 C338 1.386 . S
C339 C343 1.393 . S
C340 H329 0.950 . S
C340 C338 1.391 . S
C340 C341 1.400 . S
C341 C335 1.491 . S
C341 C340 1.400 . S
C341 C342 1.398 . S
C342 H330 0.950 . S
C342 C341 1.398 . S
C342 C343 1.391 . S
C343 H331 0.950 . S
C343 C339 1.393 . S
C343 C342 1.391 . S
H344 C352 0.950 . S
H345 C357 0.950 . S
H346 C354 0.950 . S
H347 C356 0.950 . S
H348 C358 0.950 . S
H349 C360 0.950 . S
H350 C362 0.950 . S
H351 C363 0.950 . S
C352 H344 0.950 . S
C352 C353 1.386 . S
C352 C354 1.391 . S
C353 C352 1.386 . S
C353 C357 1.393 . S
C354 H346 0.950 . S
C354 C352 1.391 . S
C354 C355 1.400 . S
C355 C354 1.400 . S
C355 C356 1.398 . S
C355 C361 1.491 . S
C356 H347 0.950 . S
C356 C355 1.398 . S
C356 C357 1.391 . S
C357 H345 0.950 . S
C357 C353 1.393 . S
C357 C356 1.391 . S
C358 H348 0.950 . S
C358 C359 1.386 . S
C358 C360 1.391 . S
C359 C358 1.386 . S
C359 C363 1.393 . S
C360 H349 0.950 . S
C360 C358 1.391 . S
C360 C361 1.400 . S
C361 C355 1.491 . S
C361 C360 1.400 . S
C361 C362 1.398 . S
C362 H350 0.950 . S
C362 C361 1.398 . S
C362 C363 1.391 . S
C363 H351 0.950 . S
C363 C359 1.393 . S
C363 C362 1.391 . S
H364 C372 0.950 . S
H365 C377 0.950 . S
H366 C374 0.978 . S
H367 C376 0.950 . S
H368 C378 0.950 . S
H369 C380 0.950 1_455 S
H370 C382 0.950 . S
H371 C383 0.950 . S
C372 H364 0.950 . S
C372 C373 1.386 . S
C372 C374 1.391 . S
C373 C372 1.386 . S
C373 C377 1.393 . S
C374 H366 0.978 . S
C374 C372 1.391 . S
C374 C375 1.400 1_556 S
C375 C374 1.400 1_554 S
C375 C376 1.398 . S
C375 C381 1.491 1_455 S
C376 H367 0.950 . S
C376 C375 1.398 . S
C376 C377 1.391 1_554 S
C377 H365 0.950 . S
C377 C373 1.393 . S
C377 C376 1.391 1_556 S
C378 H368 0.950 . S
C378 C379 1.386 . S
C378 C380 1.391 . S
C379 C378 1.386 . S
C379 C383 1.393 . S
C380 H369 0.950 1_655 S
C380 C378 1.391 . S
C380 C381 1.400 . S
C381 C375 1.491 1_655 S
C381 C380 1.400 . S
C381 C382 1.398 . S
C382 H370 0.950 . S
C382 C381 1.398 . S
C382 C383 1.391 . S
C383 H371 0.950 . S
C383 C379 1.393 . S
C383 C382 1.391 . S
H384 C392 0.950 . S
H385 C397 0.950 . S
H386 C394 0.950 . S
H387 C396 0.950 . S
H388 C398 0.950 . S
H389 C400 0.950 . S
H390 C402 0.950 . S
H391 C403 0.950 . S
C392 H384 0.950 . S
C392 C393 1.386 . S
C392 C394 1.391 . S
C393 C392 1.386 . S
C393 C397 1.393 . S
C394 H386 0.950 . S
C394 C392 1.391 . S
C394 C395 1.400 . S
C395 C394 1.400 . S
C395 C396 1.398 . S
C395 C401 1.491 . S
C396 H387 0.950 . S
C396 C395 1.398 . S
C396 C397 1.391 . S
C397 H385 0.950 . S
C397 C393 1.393 . S
C397 C396 1.391 . S
C398 H388 0.950 . S
C398 C399 1.386 . S
C398 C400 1.391 . S
C399 C398 1.386 . S
C399 C403 1.393 . S
C400 H389 0.950 . S
C400 C398 1.391 . S
C400 C401 1.400 . S
C401 C395 1.491 . S
C401 C400 1.400 . S
C401 C402 1.398 . S
C402 H390 0.950 . S
C402 C401 1.398 . S
C402 C403 1.391 . S
C403 H391 0.950 . S
C403 C399 1.393 . S
C403 C402 1.391 . S
H404 C412 0.950 . S
H405 C417 0.950 . S
H406 C414 0.950 . S
H407 C416 0.950 . S
H408 C418 0.950 . S
H409 C420 0.950 . S
H410 C422 0.950 . S
H411 C423 0.950 . S
C412 H404 0.950 . S
C412 C413 1.386 . S
C412 C414 1.391 . S
C413 C412 1.386 . S
C413 C417 1.393 . S
C414 H406 0.950 . S
C414 C412 1.391 . S
C414 C415 1.400 . S
C415 C414 1.400 . S
C415 C416 1.398 . S
C415 C421 1.491 . S
C416 H407 0.950 . S
C416 C415 1.398 . S
C416 C417 1.391 . S
C417 H405 0.950 . S
C417 C413 1.393 . S
C417 C416 1.391 . S
C418 H408 0.950 . S
C418 C419 1.386 . S
C418 C420 1.391 . S
C419 C418 1.386 . S
C419 C423 1.393 . S
C420 H409 0.950 . S
C420 C418 1.391 . S
C420 C421 1.400 . S
C421 C415 1.491 . S
C421 C420 1.400 . S
C421 C422 1.398 . S
C422 H410 0.950 . S
C422 C421 1.398 . S
C422 C423 1.391 . S
C423 H411 0.950 . S
C423 C419 1.393 . S
C423 C422 1.391 . S
H424 C432 0.950 . S
H425 C437 0.950 . S
H426 C434 0.950 . S
H427 C436 0.950 . S
H428 C438 0.950 . S
H429 C440 0.950 . S
H430 C442 0.950 . S
H431 C443 0.950 . S
C432 H424 0.950 . S
C432 C433 1.386 . S
C432 C434 1.391 . S
C433 C432 1.386 . S
C433 C437 1.393 . S
C434 H426 0.950 . S
C434 C432 1.391 . S
C434 C435 1.400 . S
C435 C434 1.400 . S
C435 C436 1.398 . S
C435 C441 1.491 . S
C436 H427 0.950 . S
C436 C435 1.398 . S
C436 C437 1.391 . S
C437 H425 0.950 . S
C437 C433 1.393 . S
C437 C436 1.391 . S
C438 H428 0.950 . S
C438 C439 1.386 . S
C438 C440 1.391 . S
C439 C438 1.386 . S
C439 C443 1.393 . S
C440 H429 0.950 . S
C440 C438 1.391 . S
C440 C441 1.400 . S
C441 C435 1.491 . S
C441 C440 1.400 . S
C441 C442 1.398 . S
C442 H430 0.950 . S
C442 C441 1.398 . S
C442 C443 1.391 . S
C443 H431 0.950 . S
C443 C439 1.393 . S
C443 C442 1.391 . S
H444 C452 0.950 . S
H445 C457 0.950 . S
H446 C454 0.950 . S
H447 C456 0.950 . S
H448 C458 0.950 . S
H449 C460 0.950 . S
H450 C462 0.950 . S
H451 C463 0.950 . S
C452 H444 0.950 . S
C452 C453 1.386 . S
C452 C454 1.391 . S
C453 C452 1.386 . S
C453 C457 1.393 . S
C454 H446 0.950 . S
C454 C452 1.391 . S
C454 C455 1.400 . S
C455 C454 1.400 . S
C455 C456 1.398 . S
C455 C461 1.491 . S
C456 H447 0.950 . S
C456 C455 1.398 . S
C456 C457 1.391 . S
C457 H445 0.950 . S
C457 C453 1.393 . S
C457 C456 1.391 . S
C458 H448 0.950 . S
C458 C459 1.386 . S
C458 C460 1.391 . S
C459 C458 1.386 . S
C459 C463 1.393 . S
C460 H449 0.950 . S
C460 C458 1.391 . S
C460 C461 1.400 . S
C461 C455 1.491 . S
C461 C460 1.400 . S
C461 C462 1.398 . S
C462 H450 0.950 . S
C462 C461 1.398 . S
C462 C463 1.391 . S
C463 H451 0.950 . S
C463 C459 1.393 . S
C463 C462 1.391 . S
H464 C472 0.950 . S
H465 C477 0.950 . S
H466 C474 0.950 . S
H467 C476 0.950 . S
H468 C478 0.950 . S
H469 C480 0.950 . S
H470 C482 0.950 . S
H471 C483 0.950 . S
C472 H464 0.950 . S
C472 C473 1.386 . S
C472 C474 1.391 . S
C473 C472 1.386 . S
C473 C477 1.393 . S
C474 H466 0.950 . S
C474 C472 1.391 . S
C474 C475 1.400 . S
C475 C474 1.400 . S
C475 C476 1.398 . S
C475 C481 1.491 . S
C476 H467 0.950 . S
C476 C475 1.398 . S
C476 C477 1.391 . S
C477 H465 0.950 . S
C477 C473 1.393 . S
C477 C476 1.391 . S
C478 H468 0.950 . S
C478 C479 1.386 . S
C478 C480 1.391 1_556 S
C479 C478 1.386 . S
C479 C483 1.393 . S
C480 H469 0.950 . S
C480 C478 1.391 1_554 S
C480 C481 1.400 . S
C481 C475 1.491 . S
C481 C480 1.400 . S
C481 C482 1.398 1_554 S
C482 H470 0.950 . S
C482 C481 1.398 1_556 S
C482 C483 1.391 . S
C483 H471 0.950 . S
C483 C479 1.393 . S
C483 C482 1.391 . S
H484 C492 0.950 . S
H485 C497 0.950 . S
H486 C494 0.950 . S
H487 C496 0.950 . S
H488 C498 0.950 . S
H489 C500 0.950 . S
H490 C502 0.950 1_455 S
H491 C503 0.950 . S
C492 H484 0.950 . S
C492 C493 1.386 . S
C492 C494 1.391 . S
C493 C492 1.386 . S
C493 C497 1.393 . S
C494 H486 0.950 . S
C494 C492 1.391 . S
C494 C495 1.400 . S
C495 C494 1.400 . S
C495 C496 1.398 1_455 S
C495 C501 1.491 1_455 S
C496 H487 0.950 . S
C496 C495 1.398 1_655 S
C496 C497 1.391 1_655 S
C497 H485 0.950 . S
C497 C493 1.393 . S
C497 C496 1.391 1_455 S
C498 H488 0.950 . S
C498 C499 1.386 . S
C498 C500 1.391 . S
C499 C498 1.386 . S
C499 C503 1.393 . S
C500 H489 0.950 . S
C500 C498 1.391 . S
C500 C501 1.400 . S
C501 C495 1.491 1_655 S
C501 C500 1.400 . S
C501 C502 1.398 . S
C502 H490 0.950 1_655 S
C502 C501 1.398 . S
C502 C503 1.391 . S
C503 H491 0.950 . S
C503 C499 1.393 . S
C503 C502 1.391 . S
H504 C512 0.950 . S
H505 C517 0.950 . S
H506 C514 0.950 1_655 S
H507 C516 0.950 . S
H508 C518 0.950 . S
H509 C520 0.950 1_455 S
H510 C522 0.950 . S
H511 C523 0.950 . S
C512 H504 0.950 . S
C512 C513 1.386 . S
C512 C514 1.391 . S
C513 C512 1.386 . S
C513 C517 1.393 . S
C514 H506 0.950 1_455 S
C514 C512 1.391 . S
C514 C515 1.400 . S
C515 C514 1.400 . S
C515 C516 1.398 . S
C515 C521 1.491 1_455 S
C516 H507 0.950 . S
C516 C515 1.398 . S
C516 C517 1.391 . S
C517 H505 0.950 . S
C517 C513 1.393 . S
C517 C516 1.391 . S
C518 H508 0.950 . S
C518 C519 1.386 . S
C518 C520 1.391 . S
C519 C518 1.386 . S
C519 C523 1.393 1_556 S
C520 H509 0.950 1_655 S
C520 C518 1.391 . S
C520 C521 1.400 1_556 S
C521 C515 1.491 1_655 S
C521 C520 1.400 1_554 S
C521 C522 1.398 . S
C522 H510 0.950 . S
C522 C521 1.398 . S
C522 C523 1.391 . S
C523 H511 0.950 . S
C523 C519 1.393 1_554 S
C523 C522 1.391 . S
H524 C532 0.950 . S
H525 C537 0.950 . S
H526 C534 0.950 . S
H527 C536 0.950 . S
H528 C538 0.950 . S
H529 C540 0.950 . S
H530 C542 0.950 . S
H531 C543 0.950 . S
C532 H524 0.950 . S
C532 C533 1.386 . S
C532 C534 1.391 . S
C533 C532 1.386 . S
C533 C537 1.393 . S
C534 H526 0.950 . S
C534 C532 1.391 . S
C534 C535 1.400 . S
C535 C534 1.400 . S
C535 C536 1.398 . S
C535 C541 1.491 . S
C536 H527 0.950 . S
C536 C535 1.398 . S
C536 C537 1.391 . S
C537 H525 0.950 . S
C537 C533 1.393 . S
C537 C536 1.391 . S
C538 H528 0.950 . S
C538 C539 1.386 . S
C538 C540 1.391 . S
C539 C538 1.386 . S
C539 C543 1.393 . S
C540 H529 0.950 . S
C540 C538 1.391 . S
C540 C541 1.400 . S
C541 C535 1.491 . S
C541 C540 1.400 . S
C541 C542 1.398 . S
C542 H530 0.950 . S
C542 C541 1.398 . S
C542 C543 1.391 . S
C543 H531 0.950 . S
C543 C539 1.393 . S
C543 C542 1.391 . S
H544 C552 0.950 . S
H545 C557 0.950 . S
H546 C554 0.950 . S
H547 C556 0.950 . S
H548 C558 0.950 . S
H549 C560 0.950 . S
H550 C562 0.950 . S
H551 C563 0.950 . S
C552 H544 0.950 . S
C552 C553 1.386 . S
C552 C554 1.391 . S
C553 C552 1.386 . S
C553 C557 1.393 . S
C554 H546 0.950 . S
C554 C552 1.391 . S
C554 C555 1.400 . S
C555 C554 1.400 . S
C555 C556 1.398 . S
C555 C561 1.491 . S
C556 H547 0.950 . S
C556 C555 1.398 . S
C556 C557 1.391 . S
C557 H545 0.950 . S
C557 C553 1.393 . S
C557 C556 1.391 . S
C558 H548 0.950 . S
C558 C559 1.386 . S
C558 C560 1.391 . S
C559 C558 1.386 . S
C559 C563 1.393 . S
C560 H549 0.950 . S
C560 C558 1.391 . S
C560 C561 1.400 . S
C561 C555 1.491 . S
C561 C560 1.400 . S
C561 C562 1.398 . S
C562 H550 0.950 . S
C562 C561 1.398 . S
C562 C563 1.391 . S
C563 H551 0.950 . S
C563 C559 1.393 . S
C563 C562 1.391 . S
H564 C572 0.950 . S
H565 C577 0.950 . S
H566 C574 0.950 . S
H567 C576 0.950 . S
H568 C578 0.950 . S
H569 C580 0.950 . S
H570 C582 0.950 . S
H571 C583 0.950 . S
C572 H564 0.950 . S
C572 C573 1.386 . S
C572 C574 1.391 . S
C573 C572 1.386 . S
C573 C577 1.393 . S
C574 H566 0.950 . S
C574 C572 1.391 . S
C574 C575 1.400 . S
C575 C574 1.400 . S
C575 C576 1.398 . S
C575 C581 1.491 . S
C576 H567 0.950 . S
C576 C575 1.398 . S
C576 C577 1.391 . S
C577 H565 0.950 . S
C577 C573 1.393 . S
C577 C576 1.391 . S
C578 H568 0.950 . S
C578 C579 1.386 . S
C578 C580 1.391 . S
C579 C578 1.386 . S
C579 C583 1.393 . S
C580 H569 0.950 . S
C580 C578 1.391 . S
C580 C581 1.400 . S
C581 C575 1.491 . S
C581 C580 1.400 . S
C581 C582 1.398 . S
C582 H570 0.950 . S
C582 C581 1.398 . S
C582 C583 1.391 . S
C583 H571 0.950 . S
C583 C579 1.393 . S
C583 C582 1.391 . S
H584 C592 0.950 . S
H585 C597 0.950 . S
H586 C594 0.950 . S
H587 C596 0.950 . S
H588 C598 0.950 . S
H589 C600 0.950 . S
H590 C602 0.950 . S
H591 C603 0.950 . S
C592 H584 0.950 . S
C592 C593 1.386 . S
C592 C594 1.391 . S
C593 C592 1.386 . S
C593 C597 1.393 . S
C594 H586 0.950 . S
C594 C592 1.391 . S
C594 C595 1.400 . S
C595 C594 1.400 . S
C595 C596 1.398 . S
C595 C601 1.491 . S
C596 H587 0.950 . S
C596 C595 1.398 . S
C596 C597 1.391 . S
C597 H585 0.950 . S
C597 C593 1.393 . S
C597 C596 1.391 . S
C598 H588 0.950 . S
C598 C599 1.386 . S
C598 C600 1.391 . S
C599 C598 1.386 . S
C599 C603 1.393 . S
C600 H589 0.950 . S
C600 C598 1.391 . S
C600 C601 1.400 . S
C601 C595 1.491 . S
C601 C600 1.400 . S
C601 C602 1.398 . S
C602 H590 0.950 . S
C602 C601 1.398 . S
C602 C603 1.391 . S
C603 H591 0.950 . S
C603 C599 1.393 . S
C603 C602 1.391 . S
H604 C612 0.950 . S
H605 C617 0.950 . S
H606 C614 0.950 . S
H607 C616 0.950 . S
H608 C618 0.950 . S
H609 C620 0.950 . S
H610 C622 0.950 . S
H611 C623 0.950 . S
C612 H604 0.950 . S
C612 C613 1.386 . S
C612 C614 1.391 . S
C613 C612 1.386 . S
C613 C617 1.393 . S
C614 H606 0.950 . S
C614 C612 1.391 . S
C614 C615 1.400 . S
C615 C614 1.400 . S
C615 C616 1.398 . S
C615 C621 1.491 . S
C616 H607 0.950 . S
C616 C615 1.398 . S
C616 C617 1.391 . S
C617 H605 0.950 . S
C617 C613 1.393 . S
C617 C616 1.391 . S
C618 H608 0.950 . S
C618 C619 1.386 . S
C618 C620 1.391 . S
C619 C618 1.386 . S
C619 C623 1.393 . S
C620 H609 0.950 . S
C620 C618 1.391 . S
C620 C621 1.400 . S
C621 C615 1.491 . S
C621 C620 1.400 . S
C621 C622 1.398 . S
C622 H610 0.950 . S
C622 C621 1.398 . S
C622 C623 1.391 . S
C623 H611 0.950 . S
C623 C619 1.393 . S
C623 C622 1.391 . S
H624 C632 0.950 . S
H625 C637 0.950 . S
H626 C634 0.950 . S
H627 C636 0.950 . S
H628 C638 0.950 . S
H629 C640 0.950 . S
H630 C642 0.950 . S
H631 C643 0.950 . S
C632 H624 0.950 . S
C632 C633 1.386 . S
C632 C634 1.391 . S
C633 C632 1.386 . S
C633 C637 1.393 . S
C634 H626 0.950 . S
C634 C632 1.391 . S
C634 C635 1.400 . S
C635 C634 1.400 . S
C635 C636 1.398 . S
C635 C641 1.491 . S
C636 H627 0.950 . S
C636 C635 1.398 . S
C636 C637 1.391 . S
C637 H625 0.950 . S
C637 C633 1.393 . S
C637 C636 1.391 . S
C638 H628 0.950 . S
C638 C639 1.386 . S
C638 C640 1.391 . S
C639 C638 1.386 . S
C639 C643 1.393 . S
C640 H629 0.950 . S
C640 C638 1.391 . S
C640 C641 1.400 . S
C641 C635 1.491 . S
C641 C640 1.400 . S
C641 C642 1.398 . S
C642 H630 0.950 . S
C642 C641 1.398 . S
C642 C643 1.391 . S
C643 H631 0.950 . S
C643 C639 1.393 . S
C643 C642 1.391 . S
H644 C652 0.950 . S
H645 C657 0.950 . S
H646 C654 0.950 . S
H647 C656 0.950 . S
H648 C658 0.950 . S
H649 C660 0.950 . S
H650 C662 0.950 . S
H651 C663 0.950 . S
C652 H644 0.950 . S
C652 C653 1.386 . S
C652 C654 1.391 . S
C653 C652 1.386 . S
C653 C657 1.393 . S
C654 H646 0.950 . S
C654 C652 1.391 . S
C654 C655 1.400 . S
C655 C654 1.400 . S
C655 C656 1.398 . S
C655 C661 1.491 . S
C656 H647 0.950 . S
C656 C655 1.398 . S
C656 C657 1.391 . S
C657 H645 0.950 . S
C657 C653 1.393 . S
C657 C656 1.391 . S
C658 H648 0.950 . S
C658 C659 1.386 . S
C658 C660 1.391 . S
C659 C658 1.386 . S
C659 C663 1.393 . S
C660 H649 0.950 . S
C660 C658 1.391 . S
C660 C661 1.400 . S
C661 C655 1.491 . S
C661 C660 1.400 . S
C661 C662 1.398 . S
C662 H650 0.950 . S
C662 C661 1.398 . S
C662 C663 1.391 . S
C663 H651 0.950 . S
C663 C659 1.393 . S
C663 C662 1.391 . S
H664 C672 0.950 . S
H665 C677 0.950 . S
H666 C674 0.950 . S
H667 C676 0.950 . S
H668 C678 0.950 . S
H669 C680 0.950 . S
H670 C682 0.950 1_554 S
H671 C683 0.950 . S
C672 H664 0.950 . S
C672 C673 1.386 . S
C672 C674 1.391 . S
C673 C672 1.386 . S
C673 C677 1.393 . S
C674 H666 0.950 . S
C674 C672 1.391 . S
C674 C675 1.400 . S
C675 C674 1.400 . S
C675 C676 1.398 . S
C675 C681 1.491 . S
C676 H667 0.950 . S
C676 C675 1.398 . S
C676 C677 1.391 . S
C677 H665 0.950 . S
C677 C673 1.393 . S
C677 C676 1.391 . S
C678 H668 0.950 . S
C678 C679 1.386 . S
C678 C680 1.391 . S
C679 C678 1.386 . S
C679 C683 1.393 1_556 S
C680 H669 0.950 . S
C680 C678 1.391 . S
C680 C681 1.400 . S
C681 C675 1.491 . S
C681 C680 1.400 . S
C681 C682 1.398 . S
C682 H670 0.950 1_556 S
C682 C681 1.398 . S
C682 C683 1.391 1_556 S
C683 H671 0.950 . S
C683 C679 1.393 1_554 S
C683 C682 1.391 1_554 S
H684 C692 0.950 . S
H685 C697 0.950 . S
H686 C694 0.950 . S
H687 C696 0.950 . S
H688 C698 0.950 . S
H689 C700 0.950 . S
H690 C702 0.950 . S
H691 C703 0.950 . S
C692 H684 0.950 . S
C692 C693 1.386 . S
C692 C694 1.391 . S
C693 C692 1.386 . S
C693 C697 1.393 . S
C694 H686 0.950 . S
C694 C692 1.391 . S
C694 C695 1.400 . S
C695 C694 1.400 . S
C695 C696 1.398 . S
C695 C701 1.491 . S
C696 H687 0.950 . S
C696 C695 1.398 . S
C696 C697 1.391 . S
C697 H685 0.950 . S
C697 C693 1.393 . S
C697 C696 1.391 . S
C698 H688 0.950 . S
C698 C699 1.386 . S
C698 C700 1.391 . S
C699 C698 1.386 . S
C699 C703 1.393 . S
C700 H689 0.950 . S
C700 C698 1.391 . S
C700 C701 1.400 . S
C701 C695 1.491 . S
C701 C700 1.400 . S
C701 C702 1.398 . S
C702 H690 0.950 . S
C702 C701 1.398 . S
C702 C703 1.391 . S
C703 H691 0.950 . S
C703 C699 1.393 . S
C703 C702 1.391 . S
H704 C712 0.950 . S
H705 C717 0.950 . S
H706 C714 0.950 . S
H707 C716 0.950 . S
H708 C718 0.950 . S
H709 C720 0.950 . S
H710 C722 0.950 . S
H711 C723 0.950 . S
C712 H704 0.950 . S
C712 C713 1.386 1_556 S
C712 C714 1.391 . S
C713 C712 1.386 1_554 S
C713 C717 1.393 . S
C714 H706 0.950 . S
C714 C712 1.391 . S
C714 C715 1.400 . S
C715 C714 1.400 . S
C715 C716 1.398 . S
C715 C721 1.491 . S
C716 H707 0.950 . S
C716 C715 1.398 . S
C716 C717 1.391 1_556 S
C717 H705 0.950 . S
C717 C713 1.393 . S
C717 C716 1.391 1_554 S
C718 H708 0.950 . S
C718 C719 1.386 . S
C718 C720 1.391 . S
C719 C718 1.386 . S
C719 C723 1.393 . S
C720 H709 0.950 . S
C720 C718 1.391 . S
C720 C721 1.400 . S
C721 C715 1.491 . S
C721 C720 1.400 . S
C721 C722 1.398 . S
C722 H710 0.950 . S
C722 C721 1.398 . S
C722 C723 1.391 . S
C723 H711 0.950 . S
C723 C719 1.393 . S
C723 C722 1.391 . S
H724 C732 0.950 . S
H725 C737 0.950 . S
H726 C734 0.950 . S
H727 C736 0.950 . S
H728 C738 0.950 . S
H729 C740 0.950 . S
H730 C742 0.950 . S
H731 C743 0.950 . S
C732 H724 0.950 . S
C732 C733 1.386 . S
C732 C734 1.391 . S
C733 C732 1.386 . S
C733 C737 1.393 . S
C734 H726 0.950 . S
C734 C732 1.391 . S
C734 C735 1.400 . S
C735 C734 1.400 . S
C735 C736 1.398 . S
C735 C741 1.491 . S
C736 H727 0.950 . S
C736 C735 1.398 . S
C736 C737 1.391 . S
C737 H725 0.950 . S
C737 C733 1.393 . S
C737 C736 1.391 . S
C738 H728 0.950 . S
C738 C739 1.386 . S
C738 C740 1.391 . S
C739 C738 1.386 . S
C739 C743 1.393 . S
C740 H729 0.950 . S
C740 C738 1.391 . S
C740 C741 1.400 . S
C741 C735 1.491 . S
C741 C740 1.400 . S
C741 C742 1.398 . S
C742 H730 0.950 . S
C742 C741 1.398 . S
C742 C743 1.391 . S
C743 H731 0.950 . S
C743 C739 1.393 . S
C743 C742 1.391 . S
H744 C752 0.950 . S
H745 C757 0.950 . S
H746 C754 0.950 . S
H747 C756 0.950 . S
H748 C758 0.950 . S
H749 C760 0.950 . S
H750 C762 0.950 . S
H751 C763 0.950 . S
C752 H744 0.950 . S
C752 C753 1.386 . S
C752 C754 1.391 . S
C753 C752 1.386 . S
C753 C757 1.393 . S
C754 H746 0.950 . S
C754 C752 1.391 . S
C754 C755 1.400 . S
C755 C754 1.400 . S
C755 C756 1.398 . S
C755 C761 1.491 . S
C756 H747 0.950 . S
C756 C755 1.398 . S
C756 C757 1.391 . S
C757 H745 0.950 . S
C757 C753 1.393 . S
C757 C756 1.391 . S
C758 H748 0.950 . S
C758 C759 1.386 . S
C758 C760 1.391 . S
C759 C758 1.386 . S
C759 C763 1.393 . S
C760 H749 0.950 . S
C760 C758 1.391 . S
C760 C761 1.400 . S
C761 C755 1.491 . S
C761 C760 1.400 . S
C761 C762 1.398 . S
C762 H750 0.950 . S
C762 C761 1.398 . S
C762 C763 1.391 . S
C763 H751 0.950 . S
C763 C759 1.393 . S
C763 C762 1.391 . S
H764 C772 0.964 . S
H765 C777 0.950 . S
H766 C774 0.950 . S
H767 C776 0.950 . S
H768 C778 0.950 . S
H769 C780 0.950 . S
H770 C782 0.950 . S
H771 C783 0.950 . S
C772 H764 0.964 . S
C772 C773 1.386 . S
C772 C774 1.391 . S
C773 C772 1.386 . S
C773 C777 1.393 . S
C774 H766 0.950 . S
C774 C772 1.391 . S
C774 C775 1.400 . S
C775 C774 1.400 . S
C775 C776 1.398 . S
C775 C781 1.491 . S
C776 H767 0.950 . S
C776 C775 1.398 . S
C776 C777 1.391 . S
C777 H765 0.950 . S
C777 C773 1.393 . S
C777 C776 1.391 . S
C778 H768 0.950 . S
C778 C779 1.386 . S
C778 C780 1.391 . S
C779 C778 1.386 . S
C779 C783 1.393 . S
C780 H769 0.950 . S
C780 C778 1.391 . S
C780 C781 1.400 . S
C781 C775 1.491 . S
C781 C780 1.400 . S
C781 C782 1.398 . S
C782 H770 0.950 . S
C782 C781 1.398 . S
C782 C783 1.391 . S
C783 H771 0.950 . S
C783 C779 1.393 . S
C783 C782 1.391 . S
H784 C792 0.950 . S
H785 C797 0.950 . S
H786 C794 0.950 . S
H787 C796 0.950 . S
H788 C798 0.950 . S
H789 C800 0.950 . S
H790 C802 0.950 . S
H791 C803 0.950 . S
C792 H784 0.950 . S
C792 C793 1.386 . S
C792 C794 1.391 . S
C793 C792 1.386 . S
C793 C797 1.393 . S
C794 H786 0.950 . S
C794 C792 1.391 . S
C794 C795 1.400 . S
C795 C794 1.400 . S
C795 C796 1.398 . S
C795 C801 1.491 . S
C796 H787 0.950 . S
C796 C795 1.398 . S
C796 C797 1.391 . S
C797 H785 0.950 . S
C797 C793 1.393 . S
C797 C796 1.391 . S
C798 H788 0.950 . S
C798 C799 1.386 . S
C798 C800 1.391 . S
C799 C798 1.386 . S
C799 C803 1.393 . S
C800 H789 0.950 . S
C800 C798 1.391 . S
C800 C801 1.400 . S
C801 C795 1.491 . S
C801 C800 1.400 . S
C801 C802 1.398 . S
C802 H790 0.950 . S
C802 C801 1.398 . S
C802 C803 1.391 . S
C803 H791 0.950 . S
C803 C799 1.393 . S
C803 C802 1.391 . S
H804 C812 0.950 . S
H805 C817 0.950 . S
H806 C814 0.950 . S
H807 C816 0.950 . S
H808 C818 0.950 . S
H809 C820 0.950 . S
H810 C822 0.950 . S
H811 C823 0.950 . S
C812 H804 0.950 . S
C812 C813 1.386 . S
C812 C814 1.391 . S
C813 C812 1.386 . S
C813 C817 1.393 . S
C814 H806 0.950 . S
C814 C812 1.391 . S
C814 C815 1.400 . S
C815 C814 1.400 . S
C815 C816 1.398 . S
C815 C821 1.491 . S
C816 H807 0.950 . S
C816 C815 1.398 . S
C816 C817 1.391 . S
C817 H805 0.950 . S
C817 C813 1.393 . S
C817 C816 1.391 . S
C818 H808 0.950 . S
C818 C819 1.386 . S
C818 C820 1.391 . S
C819 C818 1.386 . S
C819 C823 1.393 . S
C820 H809 0.950 . S
C820 C818 1.391 . S
C820 C821 1.400 . S
C821 C815 1.491 . S
C821 C820 1.400 . S
C821 C822 1.398 . S
C822 H810 0.950 . S
C822 C821 1.398 . S
C822 C823 1.391 . S
C823 H811 0.950 . S
C823 C819 1.393 . S
C823 C822 1.391 . S
H824 C832 0.950 . S
H825 C837 0.950 . S
H826 C834 0.950 . S
H827 C836 0.950 . S
H828 C838 0.950 . S
H829 C840 0.950 . S
H830 C842 0.950 . S
H831 C843 0.950 . S
C832 H824 0.950 . S
C832 C833 1.386 . S
C832 C834 1.391 . S
C833 C832 1.386 . S
C833 C837 1.393 . S
C834 H826 0.950 . S
C834 C832 1.391 . S
C834 C835 1.400 . S
C835 C834 1.400 . S
C835 C836 1.398 . S
C835 C841 1.491 . S
C836 H827 0.950 . S
C836 C835 1.398 . S
C836 C837 1.391 . S
C837 H825 0.950 . S
C837 C833 1.393 . S
C837 C836 1.391 . S
C838 H828 0.950 . S
C838 C839 1.386 . S
C838 C840 1.391 . S
C839 C838 1.386 . S
C839 C843 1.393 . S
C840 H829 0.950 . S
C840 C838 1.391 . S
C840 C841 1.400 . S
C841 C835 1.491 . S
C841 C840 1.400 . S
C841 C842 1.398 . S
C842 H830 0.950 . S
C842 C841 1.398 . S
C842 C843 1.391 . S
C843 H831 0.950 . S
C843 C839 1.393 . S
C843 C842 1.391 . S
H844 C852 0.950 . S
H845 C857 0.950 . S
H846 C854 0.950 . S
H847 C856 0.950 . S
H848 C858 0.950 . S
H849 C860 0.950 . S
H850 C862 0.950 . S
H851 C863 0.950 . S
C852 H844 0.950 . S
C852 C853 1.386 1_554 S
C852 C854 1.391 1_554 S
C853 C852 1.386 1_556 S
C853 C857 1.393 . S
C854 H846 0.950 . S
C854 C852 1.391 1_556 S
C854 C855 1.400 . S
C855 C854 1.400 . S
C855 C856 1.398 . S
C855 C861 1.491 . S
C856 H847 0.950 . S
C856 C855 1.398 . S
C856 C857 1.391 . S
C857 H845 0.950 . S
C857 C853 1.393 . S
C857 C856 1.391 . S
C858 H848 0.950 . S
C858 C859 1.386 . S
C858 C860 1.391 . S
C859 C858 1.386 . S
C859 C863 1.393 . S
C860 H849 0.950 . S
C860 C858 1.391 . S
C860 C861 1.400 . S
C861 C855 1.491 . S
C861 C860 1.400 . S
C861 C862 1.398 . S
C862 H850 0.950 . S
C862 C861 1.398 . S
C862 C863 1.391 . S
C863 H851 0.950 . S
C863 C859 1.393 . S
C863 C862 1.391 . S
C233 C12 1.084 . S
C239 C179 1.075 . S
C253 C18 1.125 . S
C259 C82 1.142 . S
C273 C32 1.026 . S
C279 C207 1.031 . S
C293 C110 1.143 . S
C299 C54 1.143 . S
C313 C208 1.125 . S
C319 C40 1.124 . S
C333 C109 1.036 . S
C339 C46 1.029 . S
C353 C180 1.135 . S
C359 C4 1.142 . S
C373 C81 1.076 . S
C379 C26 1.082 . S
C393 C67 1.075 . S
C399 C124 1.087 . S
C413 C95 1.048 . S
C419 C144 1.041 . S
C433 C152 1.129 . S
C439 C96 1.128 . S
C453 C68 1.148 . S
C459 C116 1.131 . S
C473 C194 1.144 . S
C479 C130 1.127 . S
C493 C166 1.128 . S
C499 C222 1.127 . S
C513 C158 1.029 . S
C519 C221 1.036 . S
C533 C138 1.092 . S
C539 C193 1.096 . S
C553 C159 1.297 . S
C559 C11 1.451 . S
C573 C117 1.340 . S
C579 C19 1.358 . S
C593 C33 1.274 . S
C599 C137 1.446 . S
C613 C151 1.485 1_556 S
C619 C53 1.484 . S
C633 C165 1.484 . S
C639 C39 1.486 . S
C653 C47 1.309 . S
C659 C123 1.440 . S
C673 C131 1.351 . S
C679 C5 1.367 1_556 S
C693 C145 1.262 . S
C699 C25 1.453 . S
C713 C61 1.337 . S
C719 C215 1.350 . S
C733 C172 1.418 . S
C739 C74 1.429 . S
C753 C89 1.325 . S
C759 C187 1.332 . S
C773 C102 1.424 . S
C779 C200 1.427 . S
C793 C88 1.439 . S
C799 C214 1.424 . S
C813 C173 1.316 . S
C819 C103 1.362 . S
C833 C186 1.429 . S
C839 C60 1.441 . S
C853 C201 1.362 . S
C859 C75 1.318 . S
