# Generated by pormake.
# Topology sml, (6)-cn, num edge types: 1
# Building blocks:
#     Node 0, Type 0, BuildingBlock: MIDCAF_clean_sbu_0, # of connection points: 6
#     Node 1, Type 0, BuildingBlock: MIDCAF_clean_sbu_0, # of connection points: 6
#     Node 2, Type 0, BuildingBlock: MIDCAF_clean_sbu_0, # of connection points: 6
#     Node 3, Type 0, BuildingBlock: MIDCAF_clean_sbu_0, # of connection points: 6
#     Node 4, Type 0, BuildingBlock: MIDCAF_clean_sbu_0, # of connection points: 6
#     Node 5, Type 0, BuildingBlock: MIDCAF_clean_sbu_0, # of connection points: 6
#     Edge 6, Type (0, 0), BuildingBlock: MIFKUJ_clean_linker_0, # of connection points: 2
#     Edge 7, Type (0, 0), BuildingBlock: MIFKUJ_clean_linker_0, # of connection points: 2
#     Edge 8, Type (0, 0), BuildingBlock: MIFKUJ_clean_linker_0, # of connection points: 2
#     Edge 9, Type (0, 0), BuildingBlock: MIFKUJ_clean_linker_0, # of connection points: 2
#     Edge 10, Type (0, 0), BuildingBlock: MIFKUJ_clean_linker_0, # of connection points: 2
#     Edge 11, Type (0, 0), BuildingBlock: MIFKUJ_clean_linker_0, # of connection points: 2
#     Edge 12, Type (0, 0), BuildingBlock: MIFKUJ_clean_linker_0, # of connection points: 2
#     Edge 13, Type (0, 0), BuildingBlock: MIFKUJ_clean_linker_0, # of connection points: 2
#     Edge 14, Type (0, 0), BuildingBlock: MIFKUJ_clean_linker_0, # of connection points: 2
#     Edge 15, Type (0, 0), BuildingBlock: MIFKUJ_clean_linker_0, # of connection points: 2
#     Edge 16, Type (0, 0), BuildingBlock: MIFKUJ_clean_linker_0, # of connection points: 2
#     Edge 17, Type (0, 0), BuildingBlock: MIFKUJ_clean_linker_0, # of connection points: 2
#     Edge 18, Type (0, 0), BuildingBlock: MIFKUJ_clean_linker_0, # of connection points: 2
#     Edge 19, Type (0, 0), BuildingBlock: MIFKUJ_clean_linker_0, # of connection points: 2
#     Edge 20, Type (0, 0), BuildingBlock: MIFKUJ_clean_linker_0, # of connection points: 2
#     Edge 21, Type (0, 0), BuildingBlock: MIFKUJ_clean_linker_0, # of connection points: 2
#     Edge 22, Type (0, 0), BuildingBlock: MIFKUJ_clean_linker_0, # of connection points: 2
#     Edge 23, Type (0, 0), BuildingBlock: MIFKUJ_clean_linker_0, # of connection points: 2
# Relax obj value: 0.360
# Max RMSD: 0.205
# Mean RMSD: 0.205
data_MOF--net-sml--node1-MIDCAF_clean_sbu_0--edge1-MIFKUJ_clean_linker_0
_symmetry_space_group_name_H-M    P1
_symmetry_Int_Tables_number       1
_symmetry_cell_setting            triclinic
loop_
_symmetry_equiv_pos_as_xyz
'x, y, z'
_cell_length_a     51.876239
_cell_length_b     51.747534
_cell_length_c     17.439595
_cell_angle_alpha  90.058886
_cell_angle_beta   89.89162
_cell_angle_gamma 120.24557
loop_
_atom_site_label
_atom_site_type_symbol
_atom_site_fract_x
_atom_site_fract_y
_atom_site_fract_z
_atom_type_partial_charge
Zn0 Zn 0.29908 0.44682 0.91704 0.0
Zn1 Zn 0.17169 0.42461 0.08637 0.0
Zn2 Zn 0.21148 0.4238 0.00885 0.0
C3 C 0.14177 0.39415 0.96907 0.0
C4 C 0.18999 0.38582 0.15122 0.0
O5 O 0.24473 0.47097 0.98096 0.0
O6 O 0.282 0.46305 0.00213 0.0
C7 C 0.24136 0.41839 0.85078 0.0
O8 O 0.1662 0.39376 0.96721 0.0
O9 O 0.14183 0.41577 0.00254 0.0
O10 O 0.16845 0.39073 0.1505 0.0
O11 O 0.21203 0.39975 0.10548 0.0
O12 O 0.26768 0.42576 0.82902 0.0
O13 O 0.23768 0.42485 0.91804 0.0
O14 O 0.23258 0.39792 0.04867 0.0
O15 O 0.27769 0.43359 0.02314 0.0
C16 C 0.25986 0.40579 0.03443 0.0
O17 O 0.22266 0.4702 0.03822 0.0
O18 O 0.19147 0.46505 0.13079 0.0
C19 C 0.27304 0.48064 0.98008 0.0
C20 C 0.21375 0.48169 0.08974 0.0
Zn21 Zn 0.76571 0.21444 0.53648 0.0
Zn22 Zn 0.83326 0.25958 0.26385 0.0
Zn23 Zn 0.7976 0.21431 0.32193 0.0
C24 C 0.86959 0.25443 0.34127 0.0
C25 C 0.81211 0.21319 0.15747 0.0
O26 O 0.7609 0.22386 0.35964 0.0
O27 O 0.73848 0.18947 0.44901 0.0
C28 C 0.80802 0.25627 0.45862 0.0
O29 O 0.84635 0.22871 0.33076 0.0
O30 O 0.86663 0.27718 0.33942 0.0
O31 O 0.83629 0.23644 0.17539 0.0
O32 O 0.79075 0.20196 0.20544 0.0
O33 O 0.7916 0.25995 0.50546 0.0
O34 O 0.7957 0.24558 0.3935 0.0
O35 O 0.77556 0.16894 0.36328 0.0
O36 O 0.75999 0.17421 0.47859 0.0
C37 C 0.76242 0.15778 0.42693 0.0
O38 O 0.78103 0.24857 0.31455 0.0
O39 O 0.81415 0.28193 0.23424 0.0
C40 C 0.73713 0.2066 0.39966 0.0
C41 C 0.78999 0.27187 0.27039 0.0
Zn42 Zn 0.53561 0.71377 0.75216 0.0
Zn43 Zn 0.59551 0.81926 0.52112 0.0
Zn44 Zn 0.57986 0.78988 0.65404 0.0
C45 C 0.62569 0.85932 0.64201 0.0
C46 C 0.60823 0.77245 0.51679 0.0
O47 O 0.53013 0.76572 0.67069 0.0
O48 O 0.52191 0.72042 0.64879 0.0
C49 C 0.55469 0.76613 0.82386 0.0
O50 O 0.6103 0.83651 0.68482 0.0
O51 O 0.62347 0.85719 0.56999 0.0
O52 O 0.61184 0.79501 0.4799 0.0
O53 O 0.59612 0.76685 0.58317 0.0
O54 O 0.53796 0.73951 0.84634 0.0
O55 O 0.56078 0.76986 0.75338 0.0
O56 O 0.6019 0.76209 0.67027 0.0
O57 O 0.57622 0.71906 0.73646 0.0
C58 C 0.59988 0.73863 0.70308 0.0
O59 O 0.5418 0.78897 0.59861 0.0
O60 O 0.55517 0.81193 0.4874 0.0
C61 C 0.51163 0.73756 0.65996 0.0
C62 C 0.53518 0.79782 0.53718 0.0
Zn63 Zn 0.81997 0.5375 0.11032 0.0
Zn64 Zn 0.79337 0.61181 0.8307 0.0
Zn65 Zn 0.7978 0.58332 -0.00226 0.0
C66 C 0.77003 0.62733 0.96155 0.0
C67 C 0.84513 0.61662 0.89216 0.0
O68 O 0.76913 0.53351 0.00515 0.0
O69 O 0.80812 0.52806 -0.00089 0.0
C70 C 0.7792 0.55168 0.16764 0.0
O71 O 0.78011 0.61437 0.00524 0.0
O72 O 0.77112 0.62648 0.88904 0.0
O73 O 0.83029 0.62959 0.89786 0.0
O74 O 0.84066 0.59826 0.94577 0.0
O75 O 0.78851 0.53429 0.18768 0.0
O76 O 0.78638 0.56377 0.10237 0.0
O77 O 0.8458 0.60506 0.03782 0.0
O78 O 0.85634 0.57814 0.11895 0.0
C79 C 0.86371 0.6026 0.08488 0.0
O80 O 0.76714 0.54918 0.92032 0.0
O81 O 0.76485 0.56725 0.80689 0.0
C82 C 0.78016 0.51612 0.00159 0.0
C83 C 0.75652 0.54537 0.85254 0.0
Zn84 Zn 0.25535 0.83873 0.37048 0.0
Zn85 Zn 0.18973 0.78112 0.2081 0.0
Zn86 Zn 0.21911 0.80516 0.30245 0.0
C87 C 0.15349 0.78943 0.3018 0.0
C88 C 0.23954 0.83542 0.16227 0.0
O89 O 0.24351 0.78373 0.35645 0.0
O90 O 0.28579 0.82641 0.34846 0.0
C91 C 0.20764 0.78693 0.44875 0.0
O92 O 0.17943 0.81006 0.32381 0.0
O93 O 0.15139 0.76968 0.25594 0.0
O94 O 0.21162 0.8204 0.15224 0.0
O95 O 0.25076 0.82866 0.21752 0.0
O96 O 0.22232 0.81521 0.45229 0.0
O97 O 0.21237 0.7742 0.39157 0.0
O98 O 0.20767 0.8392 0.34469 0.0
O99 O 0.25428 0.87252 0.31932 0.0
C100 C 0.22804 0.86678 0.33444 0.0
O101 O 0.21127 0.7591 0.31984 0.0
O102 O 0.19884 0.74845 0.19831 0.0
C103 C 0.27223 0.79837 0.3575 0.0
C104 C 0.20444 0.74104 0.26241 0.0
Zn105 Zn 0.42873 0.23545 0.77097 0.0
Zn106 Zn 0.42216 0.18926 0.54061 0.0
Zn107 Zn 0.42173 0.21573 0.65674 0.0
C108 C 0.38307 0.14329 0.63017 0.0
C109 C 0.39593 0.2253 0.50913 0.0
O110 O 0.47057 0.25175 0.678 0.0
O111 O 0.45876 0.2777 0.75466 0.0
C112 C 0.41844 0.18411 0.80843 0.0
O113 O 0.39204 0.16586 0.67581 0.0
O114 O 0.39364 0.14714 0.56337 0.0
O115 O 0.40612 0.20992 0.47988 0.0
O116 O 0.39782 0.23027 0.5815 0.0
O117 O 0.44181 0.20888 0.82031 0.0
O118 O 0.40369 0.18134 0.74675 0.0
O119 O 0.39444 0.23814 0.66043 0.0
O120 O 0.38692 0.22651 0.78242 0.0
C121 C 0.37996 0.23553 0.72298 0.0
O122 O 0.46906 0.23148 0.62359 0.0
O123 O 0.46424 0.2017 0.52662 0.0
C124 C 0.47827 0.27633 0.71478 0.0
C125 C 0.48064 0.22229 0.57243 0.0
H126 H 0.36427 0.26644 0.62022 0.0
H127 H 0.33409 0.28979 0.64926 0.0
H128 H 0.31806 0.25261 0.87764 0.0
H129 H 0.34579 0.22804 0.84766 0.0
H130 H 0.27273 0.25402 0.84327 0.0
H131 H 0.37915 0.32824 0.81918 0.0
H132 H 0.42627 0.35519 0.74631 0.0
H133 H 0.38397 0.38372 0.58251 0.0
H134 H 0.33651 0.35665 0.65416 0.0
H135 H 0.31425 0.41071 0.0172 0.0
H136 H 0.32659 0.37738 0.94778 0.0
H137 H 0.23357 0.32023 0.89066 0.0
H138 H 0.22099 0.35183 0.96754 0.0
H139 H 0.32633 0.3642 0.81295 0.0
H140 H 0.21771 0.25163 0.83691 0.0
H141 H 0.17451 0.22421 0.92331 0.0
H142 H 0.22857 0.27302 0.11619 0.0
H143 H 0.27214 0.30054 0.03094 0.0
C144 C 0.3536 0.2627 0.67577 0.0
C145 C 0.35797 0.24579 0.73189 0.0
C146 C 0.33658 0.2763 0.69277 0.0
C147 C 0.32432 0.27378 0.76668 0.0
C148 C 0.32714 0.2552 0.82033 0.0
C149 C 0.34341 0.24125 0.80306 0.0
C150 C 0.31083 0.29205 0.79243 0.0
C151 C 0.28441 0.27812 0.83611 0.0
C152 C 0.32575 0.32354 0.78355 0.0
C153 C 0.3543 0.34021 0.74139 0.0
C154 C 0.37993 0.34021 0.7675 0.0
C155 C 0.40666 0.35547 0.72642 0.0
C156 C 0.40808 0.37108 0.65969 0.0
C157 C 0.38281 0.37156 0.6341 0.0
C158 C 0.356 0.35627 0.67488 0.0
C159 C 0.29638 0.39064 0.99124 0.0
C160 C 0.26666 0.38394 -0.00207 0.0
C161 C 0.30346 0.3717 0.95057 0.0
C162 C 0.28111 0.34591 0.91358 0.0
C163 C 0.25133 0.33932 0.92001 0.0
C164 C 0.24413 0.35763 0.96353 0.0
C165 C 0.28942 0.3264 0.86862 0.0
C166 C 0.31452 0.34009 0.82002 0.0
C167 C 0.27393 0.29477 0.87555 0.0
C168 C 0.24802 0.27835 0.92747 0.0
C169 C 0.22035 0.25645 0.89779 0.0
C170 C 0.19582 0.24092 0.94652 0.0
C171 C 0.19877 0.24695 0.02515 0.0
C172 C 0.2263 0.26846 0.05524 0.0
C173 C 0.2509 0.28406 0.00675 0.0
H174 H 0.17975 0.23491 0.06277 0.0
H175 H 0.42879 0.38286 0.62792 0.0
H176 H 0.08809 0.3751 0.89532 0.0
H177 H 0.03938 0.33828 0.9479 0.0
H178 H 0.08388 0.31812 0.12763 0.0
H179 H 0.13109 0.34919 0.06467 0.0
H180 H 0.03666 0.27756 0.13657 0.0
H181 H 0.05913 0.38234 0.11832 0.0
H182 H 0.06844 0.42766 0.04785 0.0
H183 H 0.98556 0.37671 0.92745 0.0
H184 H 0.97589 0.33114 -0.00303 0.0
H185 H 0.92266 0.30415 0.37533 0.0
H186 H 0.97015 0.31954 0.31165 0.0
H187 H 0.93303 0.23219 0.20875 0.0
H188 H 0.88529 0.21661 0.27235 0.0
H189 H 0.97294 0.32328 0.15884 0.0
H190 H 0.99103 0.22123 0.16025 0.0
H191 H 0.98621 0.18237 0.25081 0.0
H192 H 0.99687 0.23979 0.44077 0.0
H193 H 0.00192 0.27898 0.35145 0.0
C194 C 0.0871 0.36128 0.94312 0.0
C195 C 0.11348 0.36539 0.97656 0.0
C196 C 0.05926 0.34098 0.97534 0.0
C197 C 0.05751 0.3269 0.04616 0.0
C198 C 0.08382 0.32876 0.07427 0.0
C199 C 0.11122 0.34691 0.0382 0.0
C200 C 0.02969 0.313 0.09511 0.0
C201 C 0.02297 0.28785 0.14097 0.0
C202 C 0.01125 0.32596 0.10308 0.0
C203 C 0.01698 0.35338 0.06211 0.0
C204 C 0.04296 0.38088 0.07674 0.0
C205 C 0.04829 0.40657 0.03696 0.0
C206 C 0.02765 0.40504 0.98306 0.0
C207 C 0.00155 0.37785 0.96908 0.0
C208 C 0.99612 0.35211 0.00868 0.0
C209 C 0.92488 0.2878 0.34154 0.0
C210 C 0.90001 0.25927 0.32816 0.0
C211 C 0.95203 0.29673 0.30458 0.0
C212 C 0.95502 0.27725 0.25409 0.0
C213 C 0.93128 0.24766 0.24731 0.0
C214 C 0.90399 0.23868 0.28427 0.0
C215 C 0.9812 0.28913 0.20135 0.0
C216 C 0.98708 0.31344 0.15432 0.0
C217 C 0.99966 0.27644 0.19535 0.0
C218 C 0.9965 0.25285 0.24914 0.0
C219 C 0.99235 0.22553 0.22133 0.0
C220 C 0.98957 0.20345 0.27247 0.0
C221 C 0.99112 0.20856 0.35149 0.0
C222 C 0.99551 0.23578 0.37959 0.0
C223 C 0.99824 0.25788 0.32874 0.0
H224 H 0.98899 0.19146 0.39094 0.0
H225 H 0.03184 0.42494 0.95224 0.0
H226 H 0.70826 0.12224 0.49046 0.0
H227 H 0.68743 0.07071 0.53441 0.0
H228 H 0.76454 0.06944 0.44591 0.0
H229 H 0.78479 0.12084 0.39819 0.0
H230 H 0.7138 0.01511 0.43054 0.0
H231 H 0.76072 0.088 0.62999 0.0
H232 H 0.76759 0.13242 0.69934 0.0
H233 H 0.67763 0.08317 0.78288 0.0
H234 H 0.66952 0.03875 0.71023 0.0
H235 H 0.68556 0.88978 0.63595 0.0
H236 H 0.71428 0.94367 0.61328 0.0
H237 H 0.63823 0.95112 0.6803 0.0
H238 H 0.60953 0.89712 0.70331 0.0
H239 H 0.69246 0.00334 0.71018 0.0
H240 H 0.64266 0.93493 0.5026 0.0
H241 H 0.6299 0.89264 0.41533 0.0
H242 H 0.72145 0.93335 0.34432 0.0
H243 H 0.73487 0.97572 0.43217 0.0
C244 C 0.72046 0.11072 0.47904 0.0
C245 C 0.74822 0.12546 0.44178 0.0
C246 C 0.70861 0.08135 0.50437 0.0
C247 C 0.72487 0.06655 0.4956 0.0
C248 C 0.75175 0.08055 0.45392 0.0
C249 C 0.7633 0.10983 0.42671 0.0
C250 C 0.71484 0.0376 0.53528 0.0
C251 C 0.70973 0.01267 0.49188 0.0
C252 C 0.70889 0.03428 0.61525 0.0
C253 C 0.71446 0.06007 0.66424 0.0
C254 C 0.74238 0.08659 0.66318 0.0
C255 C 0.74648 0.11182 0.7029 0.0
C256 C 0.72319 0.11059 0.74596 0.0
C257 C 0.69569 0.08406 0.74953 0.0
C258 C 0.69126 0.05887 0.70877 0.0
C259 C 0.67567 0.90324 0.65087 0.0
C260 C 0.64546 0.88944 0.67196 0.0
C261 C 0.69192 0.93396 0.63656 0.0
C262 C 0.67807 0.95118 0.64297 0.0
C263 C 0.64926 0.93816 0.67455 0.0
C264 C 0.63298 0.90735 0.68885 0.0
C265 C 0.69145 0.98089 0.60538 0.0
C266 C 0.69711 0.00593 0.64912 0.0
C267 C 0.69763 0.98426 0.52554 0.0
C268 C 0.68983 0.95833 0.47467 0.0
C269 C 0.66015 0.93469 0.46917 0.0
C270 C 0.65278 0.91075 0.41941 0.0
C271 C 0.67485 0.91037 0.37425 0.0
C272 C 0.70439 0.93373 0.37933 0.0
C273 C 0.71189 0.95769 0.42912 0.0
H274 H 0.66901 0.89208 0.33487 0.0
H275 H 0.72641 0.13025 0.77611 0.0
H276 H 0.65863 0.78146 0.72597 0.0
H277 H 0.69712 0.7721 0.77966 0.0
H278 H 0.63732 0.67716 0.7569 0.0
H279 H 0.59942 0.68623 0.70209 0.0
H280 H 0.66516 0.71482 0.92283 0.0
H281 H 0.67853 0.68168 0.66739 0.0
H282 H 0.69195 0.68977 0.53031 0.0
H283 H 0.77809 0.76407 0.58721 0.0
H284 H 0.76488 0.75674 0.72476 0.0
H285 H 0.71312 0.61026 0.00081 0.0
H286 H 0.69123 0.64146 0.97271 0.0
H287 H 0.77933 0.71811 0.94522 0.0
H288 H 0.80114 0.68703 0.975 0.0
H289 H 0.74546 0.70119 0.81102 0.0
H290 H 0.73568 0.72379 0.06936 0.0
H291 H 0.72219 0.71441 0.20619 0.0
H292 H 0.62976 0.65966 0.14646 0.0
H293 H 0.6427 0.66829 0.00914 0.0
C294 C 0.65432 0.75871 0.72899 0.0
C295 C 0.62603 0.73456 0.71002 0.0
C296 C 0.67616 0.75338 0.76034 0.0
C297 C 0.66991 0.72392 0.77237 0.0
C298 C 0.6426 0.70003 0.74768 0.0
C299 C 0.62101 0.70528 0.71617 0.0
C300 C 0.6895 0.71742 0.82025 0.0
C301 C 0.68285 0.71193 0.89874 0.0
C302 C 0.71281 0.71423 0.78875 0.0
C303 C 0.72044 0.71912 0.70614 0.0
C304 C 0.70009 0.70012 0.6506 0.0
C305 C 0.70772 0.70445 0.57284 0.0
C306 C 0.73579 0.72754 0.55001 0.0
C307 C 0.7563 0.7463 0.60494 0.0
C308 C 0.74873 0.74209 0.68279 0.0
C309 C 0.72777 0.63419 -0.00542 0.0
C310 C 0.7588 0.64634 0.9912 0.0
C311 C 0.71527 0.65197 0.97724 0.0
C312 C 0.73368 0.68204 0.95574 0.0
C313 C 0.76473 0.69498 0.96151 0.0
C314 C 0.77718 0.6773 0.97997 0.0
C315 C 0.72072 0.69781 0.91386 0.0
C316 C 0.72841 0.70486 0.83614 0.0
C317 C 0.69816 0.70214 0.94611 0.0
C318 C 0.69022 0.69655 0.02872 0.0
C319 C 0.7125 0.7095 0.08528 0.0
C320 C 0.70494 0.70437 0.163 0.0
C321 C 0.67514 0.68642 0.18501 0.0
C322 C 0.65284 0.67356 0.12932 0.0
C323 C 0.66027 0.6786 0.05151 0.0
H324 H 0.66933 0.68251 0.2452 0.0
H325 H 0.7417 0.73081 0.48981 0.0
H326 H 0.13293 0.82048 0.22516 0.0
H327 H 0.08044 0.79659 0.18785 0.0
H328 H 0.05786 0.73043 0.36474 0.0
H329 H 0.11033 0.75424 0.40154 0.0
H330 H 0.0487 0.70809 0.21354 0.0
H331 H 0.02697 0.77383 0.36586 0.0
H332 H 0.03622 0.82371 0.40394 0.0
H333 H 0.02088 0.84086 0.17251 0.0
H334 H 0.0119 0.7912 0.13288 0.0
H335 H 0.89972 0.60659 0.2022 0.0
H336 H 0.94829 0.6477 0.23649 0.0
H337 H 0.94495 0.69971 0.04781 0.0
H338 H 0.89502 0.65806 0.01302 0.0
H339 H 0.9695 0.73421 0.18169 0.0
H340 H 0.98769 0.67035 0.02703 0.0
H341 H 0.98117 0.62276 0.97773 0.0
H342 H 0.00748 0.60514 0.19576 0.0
H343 H 0.01372 0.65242 0.24684 0.0
C344 C 0.11645 0.80225 0.25991 0.0
C345 C 0.12565 0.78933 0.31666 0.0
C346 C 0.08645 0.78822 0.23753 0.0
C347 C 0.0653 0.76138 0.27257 0.0
C348 C 0.07386 0.75102 0.33657 0.0
C349 C 0.10379 0.76503 0.35879 0.0
C350 C 0.03622 0.74134 0.23475 0.0
C351 C 0.03124 0.71366 0.20756 0.0
C352 C 0.01428 0.74943 0.22207 0.0
C353 C 0.01898 0.77892 0.24633 0.0
C354 C 0.02573 0.78831 0.32303 0.0
C355 C 0.0309 0.81653 0.3449 0.0
C356 C 0.0292 0.83547 0.29065 0.0
C357 C 0.0222 0.82618 0.21447 0.0
C358 C 0.01702 0.79798 0.1923 0.0
C359 C 0.90909 0.62659 0.16722 0.0
C360 C 0.89349 0.62868 0.10376 0.0
C361 C 0.93702 0.65022 0.18727 0.0
C362 C 0.95058 0.67662 0.14404 0.0
C363 C 0.93494 0.67943 0.08177 0.0
C364 C 0.90652 0.65559 0.06172 0.0
C365 C 0.98145 0.70031 0.16443 0.0
C366 C 0.98702 0.72872 0.18734 0.0
C367 C 0.00445 0.69331 0.17142 0.0
C368 C 0.00102 0.66491 0.14091 0.0
C369 C 0.99191 0.65625 0.06466 0.0
C370 C 0.98828 0.62933 0.03636 0.0
C371 C 0.99387 0.61092 0.08361 0.0
C372 C 0.00317 0.61943 0.15922 0.0
C373 C 0.0068 0.64632 0.18785 0.0
H374 H 0.99104 0.59008 0.06161 0.0
H375 H 0.03325 0.85732 0.30768 0.0
H376 H 0.37846 0.0947 0.70748 0.0
H377 H 0.33819 0.04284 0.68869 0.0
H378 H 0.2891 0.07464 0.55793 0.0
H379 H 0.32781 0.12584 0.58254 0.0
H380 H 0.25178 0.0264 0.58558 0.0
H381 H 0.35117 0.05582 0.48524 0.0
H382 H 0.40466 0.07171 0.49362 0.0
H383 H 0.38348 0.99535 0.63399 0.0
H384 H 0.3299 0.97916 0.62674 0.0
H385 H 0.25692 0.9221 0.27321 0.0
H386 H 0.27099 0.96779 0.34432 0.0
H387 H 0.20681 0.91657 0.5198 0.0
H388 H 0.19372 0.87017 0.4504 0.0
H389 H 0.29627 0.96755 0.48808 0.0
H390 H 0.19139 0.95487 0.59292 0.0
H391 H 0.14157 0.94308 0.54673 0.0
H392 H 0.18122 0.99484 0.34311 0.0
H393 H 0.23113 0.00667 0.38814 0.0
C394 C 0.35835 0.09043 0.67788 0.0
C395 C 0.35623 0.11416 0.64598 0.0
C396 C 0.33558 0.06072 0.66518 0.0
C397 C 0.31139 0.05433 0.61616 0.0
C398 C 0.30781 0.07837 0.59306 0.0
C399 C 0.32993 0.10787 0.60783 0.0
C400 C 0.29226 0.02397 0.58019 0.0
C401 C 0.26182 0.01371 0.56506 0.0
C402 C 0.30457 0.00672 0.55148 0.0
C403 C 0.3367 0.01658 0.55645 0.0
C404 C 0.358 0.04255 0.51817 0.0
C405 C 0.38829 0.05158 0.5227 0.0
C406 C 0.39747 0.03462 0.56459 0.0
C407 C 0.37636 0.00853 0.60182 0.0
C408 C 0.34604 0.99941 0.59755 0.0
C409 C 0.24486 0.92058 0.32543 0.0
C410 C 0.22473 0.89251 0.35716 0.0
C411 C 0.25306 0.94678 0.36624 0.0
C412 C 0.24079 0.94549 0.43876 0.0
C413 C 0.21707 0.91798 0.46468 0.0
C414 C 0.20924 0.89146 0.4244 0.0
C415 C 0.25692 0.97139 0.49165 0.0
C416 C 0.28654 0.98037 0.51017 0.0
C417 C 0.24447 0.98823 0.51948 0.0
C418 C 0.21473 0.98167 0.49388 0.0
C419 C 0.18936 0.96379 0.53854 0.0
C420 C 0.16116 0.95704 0.51246 0.0
C421 C 0.15823 0.96823 0.44207 0.0
C422 C 0.1835 0.98619 0.39758 0.0
C423 C 0.2117 0.99288 0.42328 0.0
H424 H 0.13639 0.96298 0.42199 0.0
H425 H 0.42093 0.04165 0.56801 0.0
H426 H 0.21085 0.35846 0.83817 0.0
H427 H 0.17913 0.33031 0.73096 0.0
H428 H 0.18358 0.41061 0.64501 0.0
H429 H 0.21488 0.43872 0.75422 0.0
H430 H 0.13664 0.35574 0.5752 0.0
H431 H 0.24027 0.41658 0.58762 0.0
H432 H 0.28889 0.44216 0.65348 0.0
H433 H 0.28064 0.35725 0.70625 0.0
H434 H 0.2317 0.33116 0.64076 0.0
H435 H 0.23687 0.40007 0.24203 0.0
H436 H 0.23241 0.38302 0.37292 0.0
H437 H 0.1422 0.31183 0.32849 0.0
H438 H 0.14585 0.33127 0.19855 0.0
H439 H 0.22173 0.34761 0.47247 0.0
H440 H 0.09645 0.31009 0.45731 0.0
H441 H 0.06228 0.31466 0.36694 0.0
H442 H 0.13437 0.39846 0.2859 0.0
H443 H 0.16879 0.39447 0.37615 0.0
C444 C 0.2037 0.36966 0.79873 0.0
C445 C 0.21578 0.40065 0.80196 0.0
C446 C 0.18517 0.3535 0.7382 0.0
C447 C 0.1798 0.36865 0.67944 0.0
C448 C 0.18767 0.39864 0.68984 0.0
C449 C 0.20599 0.41479 0.75112 0.0
C450 C 0.17824 0.35795 0.60072 0.0
C451 C 0.15467 0.35307 0.55266 0.0
C452 C 0.2031 0.35706 0.57048 0.0
C453 C 0.23232 0.37196 0.61019 0.0
C454 C 0.24882 0.40339 0.61357 0.0
C455 C 0.27642 0.41797 0.65059 0.0
C456 C 0.28785 0.40132 0.68407 0.0
C457 C 0.2717 0.37007 0.68036 0.0
C458 C 0.24403 0.35536 0.64321 0.0
C459 C 0.21654 0.38006 0.25938 0.0
C460 C 0.19134 0.36755 0.21242 0.0
C461 C 0.21395 0.3701 0.33436 0.0
C462 C 0.18634 0.34698 0.36165 0.0
C463 C 0.16322 0.33052 0.30934 0.0
C464 C 0.16535 0.34143 0.23522 0.0
C465 C 0.18023 0.34554 0.44482 0.0
C466 C 0.20254 0.34828 0.49489 0.0
C467 C 0.1562 0.34857 0.47392 0.0
C468 C 0.13516 0.35179 0.4228 0.0
C469 C 0.10489 0.32956 0.42056 0.0
C470 C 0.08552 0.33203 0.36927 0.0
C471 C 0.09617 0.35677 0.3205 0.0
C472 C 0.12614 0.37928 0.32355 0.0
C473 C 0.14556 0.37696 0.37483 0.0
H474 H 0.08119 0.35851 0.28045 0.0
H475 H 0.30921 0.41264 0.71291 0.0
H476 H 0.84648 0.24324 0.03683 0.0
H477 H 0.83888 0.22868 0.90355 0.0
H478 H 0.76173 0.14395 0.96237 0.0
H479 H 0.76885 0.15882 0.09896 0.0
H480 H 0.82169 0.15825 0.83729 0.0
H481 H 0.73298 0.16193 0.88185 0.0
H482 H 0.70094 0.17884 0.94116 0.0
H483 H 0.7587 0.26777 0.85683 0.0
H484 H 0.79141 0.2516 0.79801 0.0
H485 H 0.81407 0.20641 0.43716 0.0
H486 H 0.81507 0.17889 0.54861 0.0
H487 H 0.85211 0.26023 0.6804 0.0
H488 H 0.8484 0.28665 0.56963 0.0
H489 H 0.78789 0.21826 0.69354 0.0
H490 H 0.88238 0.21638 0.68096 0.0
H491 H 0.91534 0.19991 0.62444 0.0
H492 H 0.8463 0.10809 0.64917 0.0
H493 H 0.81285 0.12402 0.70501 0.0
C494 C 0.82808 0.22128 0.0223 0.0
C495 C 0.80822 0.20215 0.07832 0.0
C496 C 0.8238 0.21303 0.94598 0.0
C497 C 0.7998 0.18538 0.92378 0.0
C498 C 0.78033 0.16545 0.97915 0.0
C499 C 0.7844 0.17396 0.05657 0.0
C500 C 0.79542 0.1798 0.84117 0.0
C501 C 0.8135 0.17049 0.80468 0.0
C502 C 0.78429 0.19538 0.79912 0.0
C503 C 0.76469 0.20539 0.83505 0.0
C504 C 0.739 0.18511 0.87609 0.0
C505 C 0.72067 0.1946 0.90971 0.0
C506 C 0.72775 0.22435 0.90269 0.0
C507 C 0.75318 0.24469 0.86208 0.0
C508 C 0.7716 0.23534 0.82843 0.0
C509 C 0.82319 0.21849 0.48864 0.0
C510 C 0.82813 0.24756 0.49645 0.0
C511 C 0.82432 0.20286 0.55257 0.0
C512 C 0.83211 0.21724 0.62356 0.0
C513 C 0.84513 0.24851 0.6261 0.0
C514 C 0.84313 0.26369 0.56243 0.0
C515 C 0.81734 0.20022 0.69356 0.0
C516 C 0.79522 0.20506 0.72516 0.0
C517 C 0.82481 0.18069 0.73071 0.0
C518 C 0.84493 0.17143 0.69586 0.0
C519 C 0.87407 0.19271 0.67327 0.0
C520 C 0.8929 0.18345 0.6417 0.0
C521 C 0.88288 0.15298 0.63287 0.0
C522 C 0.85402 0.13169 0.65576 0.0
C523 C 0.83513 0.14082 0.68737 0.0
H524 H 0.89751 0.14587 0.60856 0.0
H525 H 0.71354 0.23164 0.92877 0.0
H526 H 0.65438 0.76706 0.44944 0.0
H527 H 0.64979 0.76594 0.30987 0.0
H528 H 0.55464 0.72921 0.33667 0.0
H529 H 0.55916 0.72279 0.47047 0.0
H530 H 0.55636 0.73139 0.21278 0.0
H531 H 0.63063 0.82326 0.35153 0.0
H532 H 0.67687 0.85203 0.42709 0.0
H533 H 0.7271 0.83982 0.24907 0.0
H534 H 0.68095 0.81023 0.17401 0.0
H535 H 0.53571 0.79556 0.91722 0.0
H536 H 0.556 0.81214 0.04621 0.0
H537 H 0.63035 0.80038 0.98883 0.0
H538 H 0.61199 0.78731 0.85834 0.0
H539 H 0.6395 0.82941 0.12632 0.0
H540 H 0.54767 0.72765 0.01579 0.0
H541 H 0.49745 0.70647 0.95794 0.0
H542 H 0.47573 0.75585 0.11767 0.0
H543 H 0.5254 0.77661 0.17741 0.0
C544 C 0.63234 0.75645 0.42408 0.0
C545 C 0.60721 0.74848 0.47006 0.0
C546 C 0.62984 0.75751 0.34433 0.0
C547 C 0.60261 0.75214 0.31239 0.0
C548 C 0.57667 0.73572 0.35766 0.0
C549 C 0.5792 0.73154 0.4357 0.0
C550 C 0.6013 0.76686 0.23922 0.0
C551 C 0.57455 0.75327 0.197 0.0
C552 C 0.62458 0.79565 0.21466 0.0
C553 C 0.65235 0.81398 0.25849 0.0
C554 C 0.65152 0.8264 0.32937 0.0
C555 C 0.67767 0.84283 0.37196 0.0
C556 C 0.70488 0.8476 0.34309 0.0
C557 C 0.706 0.83601 0.27151 0.0
C558 C 0.67986 0.81936 0.22904 0.0
C559 C 0.55749 0.79876 0.93087 0.0
C560 C 0.57201 0.78941 0.87973 0.0
C561 C 0.56894 0.80789 0.00467 0.0
C562 C 0.5933 0.80507 0.02833 0.0
C563 C 0.61096 0.8018 0.97248 0.0
C564 C 0.60036 0.79416 0.89779 0.0
C565 C 0.59425 0.79471 0.1068 0.0
C566 C 0.62115 0.80839 0.14721 0.0
C567 C 0.57027 0.76748 0.13446 0.0
C568 C 0.54007 0.7536 0.10072 0.0
C569 C 0.532 0.73366 0.03888 0.0
C570 C 0.5037 0.72181 0.00575 0.0
C571 C 0.48351 0.72993 0.03384 0.0
C572 C 0.49136 0.74956 0.09593 0.0
C573 C 0.51945 0.76118 0.12978 0.0
H574 H 0.46176 0.72097 0.00758 0.0
H575 H 0.72512 0.86039 0.37601 0.0
H576 H 0.87694 0.65444 0.77736 0.0
H577 H 0.86111 0.64476 0.64354 0.0
H578 H 0.80029 0.55205 0.70003 0.0
H579 H 0.81909 0.56105 0.83002 0.0
H580 H 0.80768 0.55163 0.56808 0.0
H581 H 0.78106 0.61927 0.70375 0.0
H582 H 0.79354 0.66567 0.77445 0.0
H583 H 0.85098 0.71842 0.59045 0.0
H584 H 0.83897 0.67241 0.51926 0.0
H585 H 0.72936 0.52145 0.2567 0.0
H586 H 0.72638 0.53768 0.38682 0.0
H587 H 0.80417 0.62364 0.34132 0.0
H588 H 0.80463 0.60892 0.20949 0.0
H589 H 0.78096 0.62566 0.47448 0.0
H590 H 0.81507 0.55251 0.36848 0.0
H591 H 0.80044 0.50484 0.30184 0.0
H592 H 0.72066 0.46035 0.43798 0.0
H593 H 0.73541 0.50751 0.50702 0.0
C594 C 0.86158 0.63167 0.75952 0.0
C595 C 0.84846 0.60861 0.81388 0.0
C596 C 0.85169 0.62633 0.68375 0.0
C597 C 0.82762 0.59827 0.663 0.0
C598 C 0.81824 0.57424 0.71454 0.0
C599 C 0.82919 0.57929 0.7892 0.0
C600 C 0.81069 0.59408 0.59089 0.0
C601 C 0.80137 0.56767 0.54928 0.0
C602 C 0.80238 0.61489 0.56464 0.0
C603 C 0.80956 0.64249 0.6072 0.0
C604 C 0.79662 0.6408 0.67913 0.0
C605 C 0.80353 0.66698 0.71905 0.0
C606 C 0.8232 0.69492 0.68724 0.0
C607 C 0.83584 0.69677 0.61518 0.0
C608 C 0.82895 0.67067 0.57498 0.0
C609 C 0.74436 0.54446 0.27333 0.0
C610 C 0.76793 0.56372 0.22542 0.0
C611 C 0.74289 0.55367 0.34761 0.0
C612 C 0.7666 0.58082 0.375 0.0
C613 C 0.7862 0.60214 0.32216 0.0
C614 C 0.78659 0.59363 0.24674 0.0
C615 C 0.77744 0.58298 0.45437 0.0
C616 C 0.78631 0.60926 0.49612 0.0
C617 C 0.7846 0.56168 0.48253 0.0
C618 C 0.77618 0.53339 0.44217 0.0
C619 C 0.79453 0.53247 0.38429 0.0
C620 C 0.78624 0.50558 0.34629 0.0
C621 C 0.75954 0.47965 0.36524 0.0
C622 C 0.7413 0.48044 0.42322 0.0
C623 C 0.74973 0.50714 0.46224 0.0
H624 H 0.75303 0.45894 0.33523 0.0
H625 H 0.82851 0.71513 0.71825 0.0
H626 H 0.16067 0.78963 0.50049 0.0
H627 H 0.15658 0.79601 0.6375 0.0
H628 H 0.21061 0.75613 0.68371 0.0
H629 H 0.21572 0.75089 0.54617 0.0
H630 H 0.16769 0.7548 0.80982 0.0
H631 H 0.24955 0.8201 0.62984 0.0
H632 H 0.27624 0.85609 0.52571 0.0
H633 H 0.2398 0.91006 0.60113 0.0
H634 H 0.21156 0.87357 0.70247 0.0
H635 H 0.27678 0.82432 0.07973 0.0
H636 H 0.25861 0.81078 0.94867 0.0
H637 H 0.2225 0.86974 0.95932 0.0
H638 H 0.24015 0.88262 0.09137 0.0
H639 H 0.24524 0.8626 0.81203 0.0
H640 H 0.16947 0.80614 -0.00607 0.0
H641 H 0.14205 0.77472 0.1048 0.0
H642 H 0.16642 0.70991 0.03829 0.0
H643 H 0.19348 0.74075 0.9259 0.0
C644 C 0.1698 0.78021 0.54023 0.0
C645 C 0.18933 0.77077 0.51414 0.0
C646 C 0.16766 0.78414 0.6183 0.0
C647 C 0.18425 0.77754 0.66944 0.0
C648 C 0.19803 0.76166 0.64413 0.0
C649 C 0.20067 0.75831 0.56569 0.0
C650 C 0.19428 0.79406 0.74156 0.0
C651 C 0.18462 0.77834 0.81054 0.0
C652 C 0.21547 0.82511 0.74204 0.0
C653 C 0.22755 0.84349 0.67196 0.0
C654 C 0.24615 0.83892 0.62198 0.0
C655 C 0.26174 0.85957 0.56369 0.0
C656 C 0.25903 0.88494 0.55517 0.0
C657 C 0.24089 0.88981 0.60534 0.0
C658 C 0.22496 0.86908 0.66293 0.0
C659 C 0.26683 0.836 0.05237 0.0
C660 C 0.25718 0.85218 0.09645 0.0
C661 C 0.25552 0.82739 0.9786 0.0
C662 C 0.23739 0.83765 0.94772 0.0
C663 C 0.23531 0.8606 0.9844 0.0
C664 C 0.24636 0.86876 0.05866 0.0
C665 C 0.21955 0.82314 0.87964 0.0
C666 C 0.22777 0.83923 0.8115 0.0
C667 C 0.19671 0.79274 0.88023 0.0
C668 C 0.18382 0.77593 0.9522 0.0
C669 C 0.16939 0.78543 0.00367 0.0
C670 C 0.15361 0.76755 0.06626 0.0
C671 C 0.15244 0.7403 0.07856 0.0
C672 C 0.16726 0.73098 0.02857 0.0
C673 C 0.18274 0.74861 0.96529 0.0
H674 H 0.14017 0.72645 0.127 0.0
H675 H 0.27135 0.90107 0.51057 0.0
H676 H 0.33683 0.20241 0.47513 0.0
H677 H 0.32434 0.192 0.33935 0.0
H678 H 0.41503 0.25896 0.28195 0.0
H679 H 0.42523 0.27212 0.41488 0.0
H680 H 0.39371 0.24918 0.16476 0.0
H681 H 0.3795 0.16875 0.34837 0.0
H682 H 0.35428 0.12959 0.44699 0.0
H683 H 0.27133 0.09482 0.32608 0.0
H684 H 0.29611 0.13364 0.2266 0.0
H685 H 0.44362 0.17521 0.935 0.0
H686 H 0.42508 0.1763 0.06298 0.0
H687 H 0.34094 0.15727 0.96631 0.0
H688 H 0.35893 0.15524 0.83853 0.0
H689 H 0.34875 0.13912 0.14486 0.0
H690 H 0.37947 0.23776 0.97074 0.0
H691 H 0.41761 0.27432 0.88171 0.0
H692 H 0.48644 0.27002 0.00753 0.0
H693 H 0.44881 0.23412 0.09804 0.0
C694 C 0.35317 0.21655 0.43275 0.0
C695 C 0.38261 0.23681 0.45509 0.0
C696 C 0.34648 0.20964 0.3549 0.0
C697 C 0.36951 0.22233 0.2999 0.0
C698 C 0.39672 0.24758 0.32195 0.0
C699 C 0.40258 0.25564 0.39899 0.0
C700 C 0.36776 0.20718 0.22496 0.0
C701 C 0.38376 0.22509 0.16183 0.0
C702 C 0.35473 0.17553 0.21784 0.0
C703 C 0.33946 0.15431 0.28116 0.0
C704 C 0.3558 0.15302 0.34368 0.0
C705 C 0.34162 0.13084 0.39945 0.0
C706 C 0.31122 0.10987 0.3929 0.0
C707 C 0.29484 0.11117 0.33113 0.0
C708 C 0.3089 0.13321 0.27512 0.0
C709 C 0.42047 0.16917 0.94153 0.0
C710 C 0.4031 0.16634 0.87682 0.0
C711 C 0.41003 0.17018 0.01462 0.0
C712 C 0.38216 0.16807 0.02302 0.0
C713 C 0.36273 0.15943 0.96033 0.0
C714 C 0.373 0.15798 0.88729 0.0
C715 C 0.37636 0.18147 0.09069 0.0
C716 C 0.35839 0.16316 0.14982 0.0
C717 C 0.38932 0.21274 0.09688 0.0
C718 C 0.41143 0.23326 0.04048 0.0
C719 C 0.40273 0.24459 0.97899 0.0
C720 C 0.42426 0.26524 0.92854 0.0
C721 C 0.45441 0.27442 0.93894 0.0
C722 C 0.4631 0.2629 -0.00046 0.0
C723 C 0.44174 0.24254 0.05052 0.0
H724 H 0.4711 0.29063 0.90052 0.0
H725 H 0.30036 0.09236 0.435 0.0
H726 H 0.19228 0.51087 0.01111 0.0
H727 H 0.19745 0.55869 0.04519 0.0
H728 H 0.26457 0.57276 0.21247 0.0
H729 H 0.2575 0.52325 0.18159 0.0
H730 H 0.22579 0.58102 0.27663 0.0
H731 H 0.28513 0.64115 0.0405 0.0
H732 H 0.29521 0.64457 0.90108 0.0
H733 H 0.20158 0.60552 0.85518 0.0
H734 H 0.19117 0.60179 -0.00572 0.0
H735 H 0.23942 0.72685 0.35136 0.0
H736 H 0.24673 0.68399 0.33117 0.0
H737 H 0.17557 0.64812 0.16461 0.0
H738 H 0.16901 0.69102 0.18287 0.0
H739 H 0.22611 0.65694 0.10317 0.0
H740 H 0.16953 0.61323 0.3336 0.0
H741 H 0.15743 0.61037 0.47121 0.0
H742 H 0.24162 0.61834 0.52822 0.0
H743 H 0.25439 0.62157 0.39086 0.0
C744 C 0.20912 0.52485 0.05262 0.0
C745 C 0.22497 0.51389 0.09269 0.0
C746 C 0.21235 0.55248 0.0717 0.0
C747 C 0.23217 0.57015 0.12981 0.0
C748 C 0.24939 0.55981 0.16681 0.0
C749 C 0.24566 0.53175 0.14868 0.0
C750 C 0.23127 0.59665 0.1596 0.0
C751 C 0.22662 0.59805 0.23879 0.0
C752 C 0.23138 0.61852 0.11061 0.0
C753 C 0.23733 0.61982 0.02735 0.0
C754 C 0.26672 0.63263 0.00045 0.0
C755 C 0.2725 0.63487 0.92161 0.0
C756 C 0.249 0.62481 0.86928 0.0
C757 C 0.21973 0.61293 0.89571 0.0
C758 C 0.21391 0.61077 0.97448 0.0
C759 C 0.22508 0.70951 0.31172 0.0
C760 C 0.20433 0.71261 0.26702 0.0
C761 C 0.22918 0.68499 0.30026 0.0
C762 C 0.2121 0.66322 0.24504 0.0
C763 C 0.18936 0.66495 0.20641 0.0
C764 C 0.18562 0.68946 0.21697 0.0
C765 C 0.21983 0.6407 0.21942 0.0
C766 C 0.22594 0.64025 0.14121 0.0
C767 C 0.22054 0.61959 0.26925 0.0
C768 C 0.21313 0.61814 0.35191 0.0
C769 C 0.18564 0.61476 0.37547 0.0
C770 C 0.17861 0.61295 0.45344 0.0
C771 C 0.1988 0.6143 0.50844 0.0
C772 C 0.22604 0.61739 0.48556 0.0
C773 C 0.23318 0.6192 0.40764 0.0
H774 H 0.19329 0.61284 0.56877 0.0
H775 H 0.2535 0.62653 0.8083 0.0
H776 H 0.69373 0.18344 0.50854 0.0
H777 H 0.65314 0.19293 0.52862 0.0
H778 H 0.68238 0.25286 0.33502 0.0
H779 H 0.72276 0.24196 0.31128 0.0
H780 H 0.66955 0.27341 0.49091 0.0
H781 H 0.62568 0.19396 0.30247 0.0
H782 H 0.61329 0.1448 0.2497 0.0
H783 H 0.56406 0.10163 0.45394 0.0
H784 H 0.57657 0.15055 0.50851 0.0
H785 H 0.52192 0.26343 0.47575 0.0
H786 H 0.57115 0.26946 0.44755 0.0
H787 H 0.55845 0.20785 0.62977 0.0
H788 H 0.50984 0.20265 0.65956 0.0
H789 H 0.56425 0.19194 0.46653 0.0
H790 H 0.6075 0.26421 0.66175 0.0
H791 H 0.6242 0.30998 0.73772 0.0
H792 H 0.67826 0.36308 0.54926 0.0
H793 H 0.66047 0.31778 0.47044 0.0
C794 C 0.69185 0.19873 0.46969 0.0
C795 C 0.7124 0.21287 0.40937 0.0
C796 C 0.66847 0.20405 0.48154 0.0
C797 C 0.66494 0.22368 0.43369 0.0
C798 C 0.68506 0.23783 0.37302 0.0
C799 C 0.70836 0.232 0.36014 0.0
C800 C 0.64002 0.22899 0.44901 0.0
C801 C 0.64643 0.25607 0.4834 0.0
C802 C 0.61009 0.20551 0.44302 0.0
C803 C 0.60221 0.17599 0.40972 0.0
C804 C 0.61239 0.17402 0.33637 0.0
C805 C 0.60532 0.14618 0.3061 0.0
C806 C 0.58793 0.12011 0.34847 0.0
C807 C 0.57752 0.12183 0.42115 0.0
C808 C 0.58457 0.14961 0.45173 0.0
C809 C 0.53042 0.25239 0.51189 0.0
C810 C 0.51262 0.23297 0.57044 0.0
C811 C 0.55835 0.25572 0.49564 0.0
C812 C 0.56828 0.23909 0.5367 0.0
C813 C 0.55118 0.22102 0.59803 0.0
C814 C 0.52361 0.2182 0.61527 0.0
C815 C 0.5937 0.23658 0.50798 0.0
C816 C 0.58729 0.20978 0.47177 0.0
C817 C 0.62362 0.25999 0.5146 0.0
C818 C 0.63206 0.28753 0.55936 0.0
C819 C 0.62213 0.28568 0.63542 0.0
C820 C 0.63193 0.31158 0.67927 0.0
C821 C 0.65213 0.33946 0.64829 0.0
C822 C 0.66237 0.34151 0.5731 0.0
C823 C 0.65225 0.31575 0.52856 0.0
H824 H 0.65994 0.35945 0.6827 0.0
H825 H 0.58249 0.09859 0.32494 0.0
H826 H 0.33067 0.51726 0.0178 0.0
H827 H 0.36702 0.56408 0.95554 0.0
H828 H 0.30063 0.55317 0.79006 0.0
H829 H 0.26358 0.50674 0.8545 0.0
H830 H 0.37241 0.57061 0.75074 0.0
H831 H 0.30388 0.5918 0.90014 0.0
H832 H 0.28079 0.58638 0.02611 0.0
H833 H 0.36688 0.64316 0.12633 0.0
H834 H 0.39088 0.6463 0.00174 0.0
H835 H 0.46284 0.70389 0.57409 0.0
H836 H 0.41534 0.66381 0.62374 0.0
H837 H 0.44449 0.69535 0.85441 0.0
H838 H 0.49039 0.7373 0.80354 0.0
H839 H 0.38943 0.66646 0.86105 0.0
H840 H 0.45918 0.64351 0.76341 0.0
H841 H 0.49493 0.64164 0.67359 0.0
H842 H 0.42359 0.58842 0.51758 0.0
H843 H 0.38741 0.59043 0.60601 0.0
C844 C 0.32381 0.52491 0.96824 0.0
C845 C 0.29431 0.50872 0.94136 0.0
C846 C 0.3446 0.55149 0.93264 0.0
C847 C 0.33641 0.56196 0.8685 0.0
C848 C 0.30724 0.54532 0.83967 0.0
C849 C 0.2861 0.51909 0.87679 0.0
C850 C 0.35806 0.59116 0.83456 0.0
C851 C 0.37565 0.59162 0.77309 0.0
C852 C 0.36381 0.6184 0.86854 0.0
C853 C 0.34922 0.61876 0.94157 0.0
C854 C 0.31802 0.60254 0.9492 0.0
C855 C 0.30476 0.59971 0.02071 0.0
C856 C 0.3223 0.61447 0.08448 0.0
C857 C 0.35328 0.63171 0.07693 0.0
C858 C 0.36676 0.6337 0.00596 0.0
C859 C 0.45828 0.70316 0.63497 0.0
C860 C 0.48041 0.72318 0.68528 0.0
C861 C 0.43139 0.67994 0.66357 0.0
C862 C 0.42692 0.67553 0.74314 0.0
C863 C 0.44751 0.69778 0.79283 0.0
C864 C 0.4739 0.72177 0.76378 0.0
C865 C 0.4032 0.64622 0.77402 0.0
C866 C 0.38566 0.64561 0.8363 0.0
C867 C 0.39904 0.61872 0.74473 0.0
C868 C 0.42062 0.61747 0.69087 0.0
C869 C 0.45113 0.63163 0.70963 0.0
C870 C 0.47148 0.63052 0.65903 0.0
C871 C 0.46155 0.615 0.5898 0.0
C872 C 0.43124 0.60051 0.57115 0.0
C873 C 0.4108 0.60164 0.62147 0.0
H874 H 0.47733 0.61412 0.55072 0.0
H875 H 0.31191 0.61271 0.13958 0.0
H876 H 0.77173 0.28236 0.13715 0.0
H877 H 0.75904 0.32092 0.11125 0.0
H878 H 0.76086 0.33846 0.3535 0.0
H879 H 0.77393 0.29952 0.37983 0.0
H880 H 0.71253 0.34169 0.24063 0.0
H881 H 0.8171 0.38218 0.29484 0.0
H882 H 0.86528 0.38364 0.28703 0.0
H883 H 0.86562 0.39264 0.04225 0.0
H884 H 0.8171 0.39056 0.04845 0.0
H885 H 0.74222 0.49054 0.12511 0.0
H886 H 0.73391 0.44488 0.1897 0.0
H887 H 0.77111 0.42378 -0.00581 0.0
H888 H 0.7818 0.47049 0.93338 0.0
H889 H 0.80062 0.42596 0.11494 0.0
H890 H 0.69309 0.37502 0.05775 0.0
H891 H 0.64299 0.36957 0.06024 0.0
H892 H 0.64888 0.38156 0.30451 0.0
H893 H 0.69871 0.38632 0.30362 0.0
C894 C 0.76829 0.29363 0.18514 0.0
C895 C 0.77359 0.28797 0.26041 0.0
C896 C 0.76113 0.31568 0.17026 0.0
C897 C 0.75926 0.33265 0.23035 0.0
C898 C 0.76209 0.32545 0.30645 0.0
C899 C 0.76941 0.30322 0.32148 0.0
C900 C 0.75881 0.36028 0.21083 0.0
C901 C 0.73192 0.36051 0.2147 0.0
C902 C 0.78402 0.38457 0.17607 0.0
C903 C 0.81328 0.38589 0.1721 0.0
C904 C 0.82726 0.38411 0.23927 0.0
C905 C 0.85468 0.38511 0.23514 0.0
C906 C 0.86847 0.38815 0.16417 0.0
C907 C 0.85489 0.39024 0.09719 0.0
C908 C 0.82743 0.38915 0.10099 0.0
C909 C 0.74806 0.47583 0.09549 0.0
C910 C 0.76335 0.48439 0.02512 0.0
C911 C 0.74311 0.44955 0.13227 0.0
C912 C 0.75239 0.43102 0.09756 0.0
C913 C 0.76421 0.43789 0.02295 0.0
C914 C 0.76995 0.46442 0.9876 0.0
C915 C 0.75384 0.40695 0.14105 0.0
C916 C 0.78122 0.40753 0.142 0.0
C917 C 0.72912 0.38355 0.17996 0.0
C918 C 0.69959 0.38126 0.1805 0.0
C919 C 0.68368 0.37656 0.1119 0.0
C920 C 0.65529 0.3734 0.11313 0.0
C921 C 0.64284 0.37538 0.18246 0.0
C922 C 0.65858 0.3801 0.25089 0.0
C923 C 0.68679 0.38281 0.25014 0.0
H924 H 0.62097 0.3732 0.18317 0.0
H925 H 0.88971 0.38897 0.1611 0.0
H926 H 0.3168 0.80113 0.27189 0.0
H927 H 0.35355 0.78742 0.31122 0.0
H928 H 0.306 0.75224 0.52392 0.0
H929 H 0.26864 0.7655 0.48344 0.0
H930 H 0.3654 0.79593 0.5435 0.0
H931 H 0.31188 0.70425 0.41085 0.0
H932 H 0.28404 0.66905 0.30632 0.0
H933 H 0.36015 0.71412 0.15814 0.0
H934 H 0.38855 0.74968 0.26162 0.0
H935 H 0.49024 0.78073 0.64322 0.0
H936 H 0.43901 0.76862 0.62117 0.0
H937 H 0.45932 0.79154 0.38218 0.0
H938 H 0.51011 0.80154 0.40285 0.0
H939 H 0.40661 0.74331 0.39414 0.0
H940 H 0.4563 0.83994 0.52377 0.0
H941 H 0.4837 0.87435 0.63017 0.0
H942 H 0.41302 0.81889 0.78591 0.0
H943 H 0.38535 0.78396 0.68055 0.0
C944 C 0.31368 0.78952 0.32583 0.0
C945 C 0.28989 0.78406 0.37441 0.0
C946 C 0.33461 0.78165 0.34826 0.0
C947 C 0.33245 0.76867 0.42036 0.0
C948 C 0.30793 0.76202 0.46782 0.0
C949 C 0.28659 0.76944 0.44463 0.0
C950 C 0.35803 0.76616 0.449 0.0
C951 C 0.37404 0.78378 0.51211 0.0
C952 C 0.36949 0.7507 0.40729 0.0
C953 C 0.35232 0.72981 0.34403 0.0
C954 C 0.32263 0.70688 0.35578 0.0
C955 C 0.30675 0.68679 0.29677 0.0
C956 C 0.32023 0.68943 0.22558 0.0
C957 C 0.3497 0.71212 0.21331 0.0
C958 C 0.36575 0.7322 0.27222 0.0
C959 C 0.48369 0.78244 0.58552 0.0
C960 C 0.50422 0.79147 0.52446 0.0
C961 C 0.4544 0.77599 0.57324 0.0
C962 C 0.44525 0.7794 0.50009 0.0
C963 C 0.46576 0.78859 0.43912 0.0
C964 C 0.4949 0.79454 0.45112 0.0
C965 C 0.4146 0.77407 0.48669 0.0
C966 C 0.39768 0.75498 0.42648 0.0
C967 C 0.40226 0.78816 0.53118 0.0
C968 C 0.41893 0.80916 0.59447 0.0
C969 C 0.44672 0.83497 0.58082 0.0
C970 C 0.46227 0.85458 0.64092 0.0
C971 C 0.45015 0.84876 0.7148 0.0
C972 C 0.42241 0.82334 0.7287 0.0
C973 C 0.40677 0.80364 0.66881 0.0
H974 H 0.46222 0.86397 0.76122 0.0
H975 H 0.30787 0.67383 0.18004 0.0
H976 H 0.70237 0.5338 0.80356 0.0
H977 H 0.65806 0.48486 0.7786 0.0
H978 H 0.70885 0.44166 0.82638 0.0
H979 H 0.75309 0.49072 0.85388 0.0
H980 H 0.66099 0.43363 0.66599 0.0
H981 H 0.67763 0.42192 0.94273 0.0
H982 H 0.68553 0.43973 0.07634 0.0
H983 H 0.60579 0.44517 0.06822 0.0
H984 H 0.59787 0.42836 0.93347 0.0
H985 H 0.53159 0.28099 0.66533 0.0
H986 H 0.58223 0.32428 0.68115 0.0
H987 H 0.54524 0.37342 0.78904 0.0
H988 H 0.49534 0.3313 0.77169 0.0
H989 H 0.58974 0.37569 0.87355 0.0
H990 H 0.56754 0.38355 0.61288 0.0
H991 H 0.55629 0.36966 0.47709 0.0
H992 H 0.64224 0.37785 0.44691 0.0
H993 H 0.65397 0.39179 0.58253 0.0
C994 C 0.70408 0.51384 0.80834 0.0
C995 C 0.73102 0.51591 0.83106 0.0
C996 C 0.67877 0.48595 0.79452 0.0
C997 C 0.68006 0.45964 0.8019 0.0
C998 C 0.70725 0.46168 0.82187 0.0
C999 C 0.73246 0.48961 0.83752 0.0
C1000 C 0.65288 0.43027 0.78731 0.0
C1001 C 0.64564 0.42036 0.71124 0.0
C1002 C 0.63242 0.41399 0.84646 0.0
C1003 C 0.63758 0.42457 0.92719 0.0
C1004 C 0.6622 0.42766 0.96857 0.0
C1005 C 0.66666 0.43753 0.04465 0.0
C1006 C 0.64637 0.44385 0.08054 0.0
C1007 C 0.62159 0.44041 0.04028 0.0
C1008 C 0.61716 0.43082 0.96395 0.0
C1009 C 0.53426 0.3012 0.69082 0.0
C1010 C 0.50923 0.30251 0.71669 0.0
C1011 C 0.56324 0.32587 0.70056 0.0
C1012 C 0.56758 0.35207 0.737 0.0
C1013 C 0.54258 0.35344 0.76151 0.0
C1014 C 0.51392 0.32919 0.75114 0.0
C1015 C 0.59784 0.37825 0.75171 0.0
C1016 C 0.60542 0.38808 0.82795 0.0
C1017 C 0.61819 0.39481 0.69214 0.0
C1018 C 0.61108 0.38711 0.60957 0.0
C1019 C 0.58379 0.38164 0.57809 0.0
C1020 C 0.57741 0.37407 0.50066 0.0
C1021 C 0.59833 0.3724 0.45353 0.0
C1022 C 0.62585 0.37875 0.48351 0.0
C1023 C 0.63233 0.3864 0.56077 0.0
H1024 H 0.59337 0.36654 0.39362 0.0
H1025 H 0.64975 0.45119 0.13968 0.0
loop_
_geom_bond_atom_site_label_1
_geom_bond_atom_site_label_2
_geom_bond_distance
_geom_bond_site_symmetry_2
_ccdc_geom_bond_type
Zn0 O6 1.920 . S
Zn0 O12 1.898 . S
Zn0 O15 1.905 . S
Zn1 O9 1.905 . S
Zn1 O10 1.898 . S
Zn1 O18 1.920 . S
Zn2 O5 2.080 1_554 S
Zn2 O8 2.114 . S
Zn2 O11 2.120 . S
Zn2 O13 2.120 1_554 S
Zn2 O14 2.114 1_554 S
Zn2 O17 2.080 . S
C3 O8 1.166 . S
C3 O9 1.182 . S
C4 O10 1.167 . S
C4 O11 1.299 . S
O5 Zn2 2.080 1_556 S
O5 C19 1.305 . S
O6 Zn0 1.920 . S
O6 C19 1.234 . S
C7 O12 1.167 . S
C7 O13 1.299 . S
O8 Zn2 2.114 . S
O8 C3 1.166 . S
O9 Zn1 1.905 . S
O9 C3 1.182 . S
O10 Zn1 1.898 . S
O10 C4 1.167 . S
O11 Zn2 2.120 . S
O11 C4 1.299 . S
O12 Zn0 1.898 . S
O12 C7 1.167 . S
O13 Zn2 2.120 1_556 S
O13 C7 1.299 . S
O14 Zn2 2.114 1_556 S
O14 C16 1.166 . S
O15 Zn0 1.905 . S
O15 C16 1.182 . S
C16 O14 1.166 . S
C16 O15 1.182 . S
O17 Zn2 2.080 . S
O17 C20 1.305 . S
O18 Zn1 1.920 . S
O18 C20 1.234 . S
C19 O5 1.305 . S
C19 O6 1.234 . S
C20 O17 1.305 . S
C20 O18 1.234 . S
Zn21 O27 1.920 . S
Zn21 O33 1.898 . S
Zn21 O36 1.905 . S
Zn22 O30 1.905 . S
Zn22 O31 1.898 . S
Zn22 O39 1.920 . S
Zn23 O26 2.080 . S
Zn23 O29 2.114 . S
Zn23 O32 2.120 . S
Zn23 O34 2.120 . S
Zn23 O35 2.114 . S
Zn23 O38 2.080 . S
C24 O29 1.166 . S
C24 O30 1.182 . S
C25 O31 1.167 . S
C25 O32 1.299 . S
O26 Zn23 2.080 . S
O26 C40 1.305 . S
O27 Zn21 1.920 . S
O27 C40 1.234 . S
C28 O33 1.167 . S
C28 O34 1.299 . S
O29 Zn23 2.114 . S
O29 C24 1.166 . S
O30 Zn22 1.905 . S
O30 C24 1.182 . S
O31 Zn22 1.898 . S
O31 C25 1.167 . S
O32 Zn23 2.120 . S
O32 C25 1.299 . S
O33 Zn21 1.898 . S
O33 C28 1.167 . S
O34 Zn23 2.120 . S
O34 C28 1.299 . S
O35 Zn23 2.114 . S
O35 C37 1.166 . S
O36 Zn21 1.905 . S
O36 C37 1.182 . S
C37 O35 1.166 . S
C37 O36 1.182 . S
O38 Zn23 2.080 . S
O38 C41 1.305 . S
O39 Zn22 1.920 . S
O39 C41 1.234 . S
C40 O26 1.305 . S
C40 O27 1.234 . S
C41 O38 1.305 . S
C41 O39 1.234 . S
Zn42 O48 1.920 . S
Zn42 O54 1.898 . S
Zn42 O57 1.905 . S
Zn43 O51 1.905 . S
Zn43 O52 1.898 . S
Zn43 O60 1.920 . S
Zn44 O47 2.080 . S
Zn44 O50 2.114 . S
Zn44 O53 2.120 . S
Zn44 O55 2.120 . S
Zn44 O56 2.114 . S
Zn44 O59 2.080 . S
C45 O50 1.166 . S
C45 O51 1.182 . S
C46 O52 1.167 . S
C46 O53 1.299 . S
O47 Zn44 2.080 . S
O47 C61 1.305 . S
O48 Zn42 1.920 . S
O48 C61 1.234 . S
C49 O54 1.167 . S
C49 O55 1.299 . S
O50 Zn44 2.114 . S
O50 C45 1.166 . S
O51 Zn43 1.905 . S
O51 C45 1.182 . S
O52 Zn43 1.898 . S
O52 C46 1.167 . S
O53 Zn44 2.120 . S
O53 C46 1.299 . S
O54 Zn42 1.898 . S
O54 C49 1.167 . S
O55 Zn44 2.120 . S
O55 C49 1.299 . S
O56 Zn44 2.114 . S
O56 C58 1.166 . S
O57 Zn42 1.905 . S
O57 C58 1.182 . S
C58 O56 1.166 . S
C58 O57 1.182 . S
O59 Zn44 2.080 . S
O59 C62 1.305 . S
O60 Zn43 1.920 . S
O60 C62 1.234 . S
C61 O47 1.305 . S
C61 O48 1.234 . S
C62 O59 1.305 . S
C62 O60 1.234 . S
Zn63 O69 1.920 . S
Zn63 O75 1.898 . S
Zn63 O78 1.905 . S
Zn64 O72 1.905 . S
Zn64 O73 1.898 . S
Zn64 O81 1.920 . S
Zn65 O68 2.080 . S
Zn65 O71 2.114 1_554 S
Zn65 O74 2.120 1_554 S
Zn65 O76 2.120 . S
Zn65 O77 2.114 . S
Zn65 O80 2.080 1_554 S
C66 O71 1.166 . S
C66 O72 1.182 . S
C67 O73 1.167 . S
C67 O74 1.299 . S
O68 Zn65 2.080 . S
O68 C82 1.305 . S
O69 Zn63 1.920 . S
O69 C82 1.234 . S
C70 O75 1.167 . S
C70 O76 1.299 . S
O71 Zn65 2.114 1_556 S
O71 C66 1.166 . S
O72 Zn64 1.905 . S
O72 C66 1.182 . S
O73 Zn64 1.898 . S
O73 C67 1.167 . S
O74 Zn65 2.120 1_556 S
O74 C67 1.299 . S
O75 Zn63 1.898 . S
O75 C70 1.167 . S
O76 Zn65 2.120 . S
O76 C70 1.299 . S
O77 Zn65 2.114 . S
O77 C79 1.166 . S
O78 Zn63 1.905 . S
O78 C79 1.182 . S
C79 O77 1.166 . S
C79 O78 1.182 . S
O80 Zn65 2.080 1_556 S
O80 C83 1.305 . S
O81 Zn64 1.920 . S
O81 C83 1.234 . S
C82 O68 1.305 . S
C82 O69 1.234 . S
C83 O80 1.305 . S
C83 O81 1.234 . S
Zn84 O90 1.920 . S
Zn84 O96 1.898 . S
Zn84 O99 1.905 . S
Zn85 O93 1.905 . S
Zn85 O94 1.898 . S
Zn85 O102 1.920 . S
Zn86 O89 2.080 . S
Zn86 O92 2.114 . S
Zn86 O95 2.120 . S
Zn86 O97 2.120 . S
Zn86 O98 2.114 . S
Zn86 O101 2.080 . S
C87 O92 1.166 . S
C87 O93 1.182 . S
C88 O94 1.167 . S
C88 O95 1.299 . S
O89 Zn86 2.080 . S
O89 C103 1.305 . S
O90 Zn84 1.920 . S
O90 C103 1.234 . S
C91 O96 1.167 . S
C91 O97 1.299 . S
O92 Zn86 2.114 . S
O92 C87 1.166 . S
O93 Zn85 1.905 . S
O93 C87 1.182 . S
O94 Zn85 1.898 . S
O94 C88 1.167 . S
O95 Zn86 2.120 . S
O95 C88 1.299 . S
O96 Zn84 1.898 . S
O96 C91 1.167 . S
O97 Zn86 2.120 . S
O97 C91 1.299 . S
O98 Zn86 2.114 . S
O98 C100 1.166 . S
O99 Zn84 1.905 . S
O99 C100 1.182 . S
C100 O98 1.166 . S
C100 O99 1.182 . S
O101 Zn86 2.080 . S
O101 C104 1.305 . S
O102 Zn85 1.920 . S
O102 C104 1.234 . S
C103 O89 1.305 . S
C103 O90 1.234 . S
C104 O101 1.305 . S
C104 O102 1.234 . S
Zn105 O111 1.920 . S
Zn105 O117 1.898 . S
Zn105 O120 1.905 . S
Zn106 O114 1.905 . S
Zn106 O115 1.898 . S
Zn106 O123 1.920 . S
Zn107 O110 2.080 . S
Zn107 O113 2.114 . S
Zn107 O116 2.120 . S
Zn107 O118 2.120 . S
Zn107 O119 2.114 . S
Zn107 O122 2.080 . S
C108 O113 1.166 . S
C108 O114 1.182 . S
C109 O115 1.167 . S
C109 O116 1.299 . S
O110 Zn107 2.080 . S
O110 C124 1.305 . S
O111 Zn105 1.920 . S
O111 C124 1.234 . S
C112 O117 1.167 . S
C112 O118 1.299 . S
O113 Zn107 2.114 . S
O113 C108 1.166 . S
O114 Zn106 1.905 . S
O114 C108 1.182 . S
O115 Zn106 1.898 . S
O115 C109 1.167 . S
O116 Zn107 2.120 . S
O116 C109 1.299 . S
O117 Zn105 1.898 . S
O117 C112 1.167 . S
O118 Zn107 2.120 . S
O118 C112 1.299 . S
O119 Zn107 2.114 . S
O119 C121 1.166 . S
O120 Zn105 1.905 . S
O120 C121 1.182 . S
C121 O119 1.166 . S
C121 O120 1.182 . S
O122 Zn107 2.080 . S
O122 C125 1.305 . S
O123 Zn106 1.920 . S
O123 C125 1.234 . S
C124 O110 1.305 . S
C124 O111 1.234 . S
C125 O122 1.305 . S
C125 O123 1.234 . S
H126 C144 0.951 . S
H127 C146 0.951 . S
H128 C148 0.950 . S
H129 C149 0.950 . S
H130 C151 0.950 . S
H131 C154 0.950 . S
H132 C155 0.950 . S
H133 C157 0.950 . S
H134 C158 0.950 . S
H135 C159 0.951 . S
H136 C161 0.951 1_554 S
H137 C163 0.950 . S
H138 C164 0.950 . S
H139 C166 0.950 . S
H140 C169 0.950 . S
H141 C170 0.950 . S
H142 C172 0.950 . S
H143 C173 0.950 . S
C144 H126 0.951 . S
C144 C145 1.366 . S
C144 C146 1.388 . S
C145 C144 1.366 . S
C145 C149 1.385 . S
C146 H127 0.951 . S
C146 C144 1.388 . S
C146 C147 1.366 . S
C147 C146 1.366 . S
C147 C148 1.414 . S
C147 C150 1.499 . S
C148 H128 0.950 . S
C148 C147 1.414 . S
C148 C149 1.374 . S
C149 H129 0.950 . S
C149 C145 1.385 . S
C149 C148 1.374 . S
C150 C147 1.499 . S
C150 C151 1.373 . S
C150 C152 1.389 . S
C151 H130 0.950 . S
C151 C150 1.373 . S
C151 C167 1.377 . S
C152 C150 1.389 . S
C152 C153 1.524 . S
C152 C166 1.377 . S
C153 C152 1.524 . S
C153 C154 1.397 . S
C153 C158 1.363 . S
C154 H131 0.950 . S
C154 C153 1.397 . S
C154 C155 1.334 . S
C155 H132 0.950 . S
C155 C154 1.334 . S
C155 C156 1.287 . S
C156 C155 1.287 . S
C156 C157 1.524 . S
C156 H175 0.913 . S
C157 H133 0.950 . S
C157 C156 1.524 . S
C157 C158 1.415 . S
C158 H134 0.950 . S
C158 C153 1.363 . S
C158 C157 1.415 . S
C159 H135 0.951 . S
C159 C160 1.366 1_554 S
C159 C161 1.388 1_554 S
C160 C159 1.366 1_556 S
C160 C164 1.385 . S
C161 H136 0.951 1_556 S
C161 C159 1.388 1_556 S
C161 C162 1.366 . S
C162 C161 1.366 . S
C162 C163 1.414 . S
C162 C165 1.499 . S
C163 H137 0.950 . S
C163 C162 1.414 . S
C163 C164 1.374 . S
C164 H138 0.950 . S
C164 C160 1.385 . S
C164 C163 1.374 . S
C165 C162 1.499 . S
C165 C166 1.373 . S
C165 C167 1.389 . S
C166 H139 0.950 . S
C166 C152 1.377 . S
C166 C165 1.373 . S
C167 C151 1.377 . S
C167 C165 1.389 . S
C167 C168 1.524 . S
C168 C167 1.524 . S
C168 C169 1.397 . S
C168 C173 1.363 1_556 S
C169 H140 0.950 . S
C169 C168 1.397 . S
C169 C170 1.334 . S
C170 H141 0.950 . S
C170 C169 1.334 . S
C170 C171 1.287 1_556 S
C171 C170 1.287 1_554 S
C171 C172 1.524 . S
C171 H174 0.999 . S
C172 H142 0.950 . S
C172 C171 1.524 . S
C172 C173 1.415 . S
C173 H143 0.950 . S
C173 C168 1.363 1_554 S
C173 C172 1.415 . S
H174 C171 0.999 . S
H175 C156 0.913 . S
H176 C194 0.951 . S
H177 C196 0.951 1_556 S
H178 C198 0.950 . S
H179 C199 0.950 . S
H180 C201 0.950 . S
H181 C204 0.950 . S
H182 C205 0.950 . S
H183 C207 0.950 . S
H184 C208 0.950 . S
H185 C209 0.951 . S
H186 C211 0.951 . S
H187 C213 0.950 . S
H188 C214 0.950 . S
H189 C216 0.950 . S
H190 C219 0.950 . S
H191 C220 0.950 . S
H192 C222 0.950 . S
H193 C223 0.950 . S
C194 H176 0.951 . S
C194 C195 1.366 1_556 S
C194 C196 1.388 1_556 S
C195 C194 1.366 1_554 S
C195 C199 1.385 . S
C196 H177 0.951 1_554 S
C196 C194 1.388 1_554 S
C196 C197 1.366 . S
C197 C196 1.366 . S
C197 C198 1.414 . S
C197 C200 1.499 . S
C198 H178 0.950 . S
C198 C197 1.414 . S
C198 C199 1.374 . S
C199 H179 0.950 . S
C199 C195 1.385 . S
C199 C198 1.374 . S
C200 C197 1.499 . S
C200 C201 1.373 . S
C200 C202 1.389 . S
C201 H180 0.950 . S
C201 C200 1.373 . S
C201 C217 1.377 1_455 S
C202 C200 1.389 . S
C202 C203 1.524 . S
C202 C216 1.377 1_455 S
C203 C202 1.524 . S
C203 C204 1.397 . S
C203 C208 1.363 1_454 S
C204 H181 0.950 . S
C204 C203 1.397 . S
C204 C205 1.334 . S
C205 H182 0.950 . S
C205 C204 1.334 . S
C205 C206 1.287 1_554 S
C206 C205 1.287 1_556 S
C206 C207 1.524 1_455 S
C206 H225 0.913 . S
C207 H183 0.950 . S
C207 C206 1.524 1_655 S
C207 C208 1.415 . S
C208 H184 0.950 . S
C208 C203 1.363 1_656 S
C208 C207 1.415 . S
C209 H185 0.951 . S
C209 C210 1.366 . S
C209 C211 1.388 . S
C210 C209 1.366 . S
C210 C214 1.385 . S
C211 H186 0.951 . S
C211 C209 1.388 . S
C211 C212 1.366 . S
C212 C211 1.366 . S
C212 C213 1.414 . S
C212 C215 1.499 . S
C213 H187 0.950 . S
C213 C212 1.414 . S
C213 C214 1.374 . S
C214 H188 0.950 . S
C214 C210 1.385 . S
C214 C213 1.374 . S
C215 C212 1.499 . S
C215 C216 1.373 . S
C215 C217 1.389 . S
C216 H189 0.950 . S
C216 C202 1.377 1_655 S
C216 C215 1.373 . S
C217 C201 1.377 1_655 S
C217 C215 1.389 . S
C217 C218 1.524 . S
C218 C217 1.524 . S
C218 C219 1.397 . S
C218 C223 1.363 1_655 S
C219 H190 0.950 . S
C219 C218 1.397 . S
C219 C220 1.334 . S
C220 H191 0.950 . S
C220 C219 1.334 . S
C220 C221 1.287 . S
C221 C220 1.287 . S
C221 C222 1.524 1_655 S
C221 H224 0.999 . S
C222 H192 0.950 . S
C222 C221 1.524 1_455 S
C222 C223 1.415 . S
C223 H193 0.950 . S
C223 C218 1.363 1_455 S
C223 C222 1.415 . S
H224 C221 0.999 . S
H225 C206 0.913 . S
H226 C244 0.951 . S
H227 C246 0.951 . S
H228 C248 0.950 . S
H229 C249 0.950 . S
H230 C251 0.950 . S
H231 C254 0.950 . S
H232 C255 0.950 . S
H233 C257 0.950 . S
H234 C258 0.950 . S
H235 C259 0.951 . S
H236 C261 0.951 . S
H237 C263 0.950 . S
H238 C264 0.950 . S
H239 C266 0.950 . S
H240 C269 0.950 . S
H241 C270 0.950 . S
H242 C272 0.950 . S
H243 C273 0.950 . S
C244 H226 0.951 . S
C244 C245 1.366 . S
C244 C246 1.388 . S
C245 C244 1.366 . S
C245 C249 1.385 . S
C246 H227 0.951 . S
C246 C244 1.388 . S
C246 C247 1.366 . S
C247 C246 1.366 . S
C247 C248 1.414 . S
C247 C250 1.499 . S
C248 H228 0.950 . S
C248 C247 1.414 . S
C248 C249 1.374 . S
C249 H229 0.950 . S
C249 C245 1.385 . S
C249 C248 1.374 . S
C250 C247 1.499 . S
C250 C251 1.373 . S
C250 C252 1.389 . S
C251 H230 0.950 . S
C251 C250 1.373 . S
C251 C267 1.377 1_545 S
C252 C250 1.389 . S
C252 C253 1.524 . S
C252 C266 1.377 1_545 S
C253 C252 1.524 . S
C253 C254 1.397 . S
C253 C258 1.363 . S
C254 H231 0.950 . S
C254 C253 1.397 . S
C254 C255 1.334 . S
C255 H232 0.950 . S
C255 C254 1.334 . S
C255 C256 1.287 . S
C256 C255 1.287 . S
C256 C257 1.524 . S
C256 H275 0.913 . S
C257 H233 0.950 . S
C257 C256 1.524 . S
C257 C258 1.415 . S
C258 H234 0.950 . S
C258 C253 1.363 . S
C258 C257 1.415 . S
C259 H235 0.951 . S
C259 C260 1.366 . S
C259 C261 1.388 . S
C260 C259 1.366 . S
C260 C264 1.385 . S
C261 H236 0.951 . S
C261 C259 1.388 . S
C261 C262 1.366 . S
C262 C261 1.366 . S
C262 C263 1.414 . S
C262 C265 1.499 . S
C263 H237 0.950 . S
C263 C262 1.414 . S
C263 C264 1.374 . S
C264 H238 0.950 . S
C264 C260 1.385 . S
C264 C263 1.374 . S
C265 C262 1.499 . S
C265 C266 1.373 . S
C265 C267 1.389 . S
C266 H239 0.950 . S
C266 C252 1.377 1_565 S
C266 C265 1.373 . S
C267 C251 1.377 1_565 S
C267 C265 1.389 . S
C267 C268 1.524 . S
C268 C267 1.524 . S
C268 C269 1.397 . S
C268 C273 1.363 . S
C269 H240 0.950 . S
C269 C268 1.397 . S
C269 C270 1.334 . S
C270 H241 0.950 . S
C270 C269 1.334 . S
C270 C271 1.287 . S
C271 C270 1.287 . S
C271 C272 1.524 . S
C271 H274 0.999 . S
C272 H242 0.950 . S
C272 C271 1.524 . S
C272 C273 1.415 . S
C273 H243 0.950 . S
C273 C268 1.363 . S
C273 C272 1.415 . S
H274 C271 0.999 . S
H275 C256 0.913 . S
H276 C294 0.951 . S
H277 C296 0.951 . S
H278 C298 0.950 . S
H279 C299 0.950 . S
H280 C301 0.950 . S
H281 C304 0.950 . S
H282 C305 0.950 . S
H283 C307 0.950 . S
H284 C308 0.950 . S
H285 C309 0.951 1_554 S
H286 C311 0.951 . S
H287 C313 0.950 . S
H288 C314 0.950 . S
H289 C316 0.950 . S
H290 C319 0.950 . S
H291 C320 0.950 . S
H292 C322 0.950 . S
H293 C323 0.950 1_556 S
C294 H276 0.951 . S
C294 C295 1.366 . S
C294 C296 1.388 . S
C295 C294 1.366 . S
C295 C299 1.385 . S
C296 H277 0.951 . S
C296 C294 1.388 . S
C296 C297 1.366 . S
C297 C296 1.366 . S
C297 C298 1.414 . S
C297 C300 1.499 . S
C298 H278 0.950 . S
C298 C297 1.414 . S
C298 C299 1.374 . S
C299 H279 0.950 . S
C299 C295 1.385 . S
C299 C298 1.374 . S
C300 C297 1.499 . S
C300 C301 1.373 . S
C300 C302 1.389 . S
C301 H280 0.950 . S
C301 C300 1.373 . S
C301 C317 1.377 . S
C302 C300 1.389 . S
C302 C303 1.524 . S
C302 C316 1.377 . S
C303 C302 1.524 . S
C303 C304 1.397 . S
C303 C308 1.363 . S
C304 H281 0.950 . S
C304 C303 1.397 . S
C304 C305 1.334 . S
C305 H282 0.950 . S
C305 C304 1.334 . S
C305 C306 1.287 . S
C306 C305 1.287 . S
C306 C307 1.524 . S
C306 H325 0.913 . S
C307 H283 0.950 . S
C307 C306 1.524 . S
C307 C308 1.415 . S
C308 H284 0.950 . S
C308 C303 1.363 . S
C308 C307 1.415 . S
C309 H285 0.951 1_556 S
C309 C310 1.366 . S
C309 C311 1.388 . S
C310 C309 1.366 . S
C310 C314 1.385 . S
C311 H286 0.951 . S
C311 C309 1.388 . S
C311 C312 1.366 . S
C312 C311 1.366 . S
C312 C313 1.414 . S
C312 C315 1.499 . S
C313 H287 0.950 . S
C313 C312 1.414 . S
C313 C314 1.374 . S
C314 H288 0.950 . S
C314 C310 1.385 . S
C314 C313 1.374 . S
C315 C312 1.499 . S
C315 C316 1.373 . S
C315 C317 1.389 . S
C316 H289 0.950 . S
C316 C302 1.377 . S
C316 C315 1.373 . S
C317 C301 1.377 . S
C317 C315 1.389 . S
C317 C318 1.524 1_556 S
C318 C317 1.524 1_554 S
C318 C319 1.397 . S
C318 C323 1.363 . S
C319 H290 0.950 . S
C319 C318 1.397 . S
C319 C320 1.334 . S
C320 H291 0.950 . S
C320 C319 1.334 . S
C320 C321 1.287 . S
C321 C320 1.287 . S
C321 C322 1.524 . S
C321 H324 0.999 . S
C322 H292 0.950 . S
C322 C321 1.524 . S
C322 C323 1.415 . S
C323 H293 0.950 1_554 S
C323 C318 1.363 . S
C323 C322 1.415 . S
H324 C321 0.999 . S
H325 C306 0.913 . S
H326 C344 0.951 . S
H327 C346 0.951 . S
H328 C348 0.950 . S
H329 C349 0.950 . S
H330 C351 0.950 . S
H331 C354 0.950 . S
H332 C355 0.950 . S
H333 C357 0.950 . S
H334 C358 0.950 . S
H335 C359 0.951 . S
H336 C361 0.951 . S
H337 C363 0.950 . S
H338 C364 0.950 1_556 S
H339 C366 0.950 . S
H340 C369 0.950 . S
H341 C370 0.950 1_556 S
H342 C372 0.950 . S
H343 C373 0.950 . S
C344 H326 0.951 . S
C344 C345 1.366 . S
C344 C346 1.388 . S
C345 C344 1.366 . S
C345 C349 1.385 . S
C346 H327 0.951 . S
C346 C344 1.388 . S
C346 C347 1.366 . S
C347 C346 1.366 . S
C347 C348 1.414 . S
C347 C350 1.499 . S
C348 H328 0.950 . S
C348 C347 1.414 . S
C348 C349 1.374 . S
C349 H329 0.950 . S
C349 C345 1.385 . S
C349 C348 1.374 . S
C350 C347 1.499 . S
C350 C351 1.373 . S
C350 C352 1.389 . S
C351 H330 0.950 . S
C351 C350 1.373 . S
C351 C367 1.377 1_455 S
C352 C350 1.389 . S
C352 C353 1.524 . S
C352 C366 1.377 1_455 S
C353 C352 1.524 . S
C353 C354 1.397 . S
C353 C358 1.363 . S
C354 H331 0.950 . S
C354 C353 1.397 . S
C354 C355 1.334 . S
C355 H332 0.950 . S
C355 C354 1.334 . S
C355 C356 1.287 . S
C356 C355 1.287 . S
C356 C357 1.524 . S
C356 H375 0.913 . S
C357 H333 0.950 . S
C357 C356 1.524 . S
C357 C358 1.415 . S
C358 H334 0.950 . S
C358 C353 1.363 . S
C358 C357 1.415 . S
C359 H335 0.951 . S
C359 C360 1.366 . S
C359 C361 1.388 . S
C360 C359 1.366 . S
C360 C364 1.385 . S
C361 H336 0.951 . S
C361 C359 1.388 . S
C361 C362 1.366 . S
C362 C361 1.366 . S
C362 C363 1.414 . S
C362 C365 1.499 . S
C363 H337 0.950 . S
C363 C362 1.414 . S
C363 C364 1.374 . S
C364 H338 0.950 1_554 S
C364 C360 1.385 . S
C364 C363 1.374 . S
C365 C362 1.499 . S
C365 C366 1.373 . S
C365 C367 1.389 . S
C366 H339 0.950 . S
C366 C352 1.377 1_655 S
C366 C365 1.373 . S
C367 C351 1.377 1_655 S
C367 C365 1.389 . S
C367 C368 1.524 . S
C368 C367 1.524 . S
C368 C369 1.397 . S
C368 C373 1.363 . S
C369 H340 0.950 . S
C369 C368 1.397 . S
C369 C370 1.334 . S
C370 H341 0.950 1_554 S
C370 C369 1.334 . S
C370 C371 1.287 . S
C371 C370 1.287 . S
C371 C372 1.524 . S
C371 H374 0.999 . S
C372 H342 0.950 . S
C372 C371 1.524 . S
C372 C373 1.415 . S
C373 H343 0.950 . S
C373 C368 1.363 . S
C373 C372 1.415 . S
H374 C371 0.999 . S
H375 C356 0.913 . S
H376 C394 0.951 . S
H377 C396 0.951 . S
H378 C398 0.950 . S
H379 C399 0.950 . S
H380 C401 0.950 . S
H381 C404 0.950 . S
H382 C405 0.950 . S
H383 C407 0.950 1_565 S
H384 C408 0.950 1_565 S
H385 C409 0.951 . S
H386 C411 0.951 . S
H387 C413 0.950 . S
H388 C414 0.950 . S
H389 C416 0.950 . S
H390 C419 0.950 . S
H391 C420 0.950 . S
H392 C422 0.950 1_545 S
H393 C423 0.950 1_545 S
C394 H376 0.951 . S
C394 C395 1.366 . S
C394 C396 1.388 . S
C395 C394 1.366 . S
C395 C399 1.385 . S
C396 H377 0.951 . S
C396 C394 1.388 . S
C396 C397 1.366 . S
C397 C396 1.366 . S
C397 C398 1.414 . S
C397 C400 1.499 . S
C398 H378 0.950 . S
C398 C397 1.414 . S
C398 C399 1.374 . S
C399 H379 0.950 . S
C399 C395 1.385 . S
C399 C398 1.374 . S
C400 C397 1.499 . S
C400 C401 1.373 . S
C400 C402 1.389 . S
C401 H380 0.950 . S
C401 C400 1.373 . S
C401 C417 1.377 1_545 S
C402 C400 1.389 . S
C402 C403 1.524 . S
C402 C416 1.377 1_545 S
C403 C402 1.524 . S
C403 C404 1.397 . S
C403 C408 1.363 . S
C404 H381 0.950 . S
C404 C403 1.397 . S
C404 C405 1.334 . S
C405 H382 0.950 . S
C405 C404 1.334 . S
C405 C406 1.287 . S
C406 C405 1.287 . S
C406 C407 1.524 . S
C406 H425 0.913 . S
C407 H383 0.950 1_545 S
C407 C406 1.524 . S
C407 C408 1.415 . S
C408 H384 0.950 1_545 S
C408 C403 1.363 . S
C408 C407 1.415 . S
C409 H385 0.951 . S
C409 C410 1.366 . S
C409 C411 1.388 . S
C410 C409 1.366 . S
C410 C414 1.385 . S
C411 H386 0.951 . S
C411 C409 1.388 . S
C411 C412 1.366 . S
C412 C411 1.366 . S
C412 C413 1.414 . S
C412 C415 1.499 . S
C413 H387 0.950 . S
C413 C412 1.414 . S
C413 C414 1.374 . S
C414 H388 0.950 . S
C414 C410 1.385 . S
C414 C413 1.374 . S
C415 C412 1.499 . S
C415 C416 1.373 . S
C415 C417 1.389 . S
C416 H389 0.950 . S
C416 C402 1.377 1_565 S
C416 C415 1.373 . S
C417 C401 1.377 1_565 S
C417 C415 1.389 . S
C417 C418 1.524 . S
C418 C417 1.524 . S
C418 C419 1.397 . S
C418 C423 1.363 . S
C419 H390 0.950 . S
C419 C418 1.397 . S
C419 C420 1.334 . S
C420 H391 0.950 . S
C420 C419 1.334 . S
C420 C421 1.287 . S
C421 C420 1.287 . S
C421 C422 1.524 . S
C421 H424 0.999 . S
C422 H392 0.950 1_565 S
C422 C421 1.524 . S
C422 C423 1.415 . S
C423 H393 0.950 1_565 S
C423 C418 1.363 . S
C423 C422 1.415 . S
H424 C421 0.999 . S
H425 C406 0.913 . S
H426 C444 0.951 . S
H427 C446 0.951 . S
H428 C448 0.950 . S
H429 C449 0.950 . S
H430 C451 0.950 . S
H431 C454 0.950 . S
H432 C455 0.950 . S
H433 C457 0.950 . S
H434 C458 0.950 . S
H435 C459 0.951 . S
H436 C461 0.951 . S
H437 C463 0.950 . S
H438 C464 0.950 . S
H439 C466 0.950 . S
H440 C469 0.950 . S
H441 C470 0.950 . S
H442 C472 0.950 . S
H443 C473 0.950 . S
C444 H426 0.951 . S
C444 C445 1.366 . S
C444 C446 1.388 . S
C445 C444 1.366 . S
C445 C449 1.385 . S
C446 H427 0.951 . S
C446 C444 1.388 . S
C446 C447 1.366 . S
C447 C446 1.366 . S
C447 C448 1.414 . S
C447 C450 1.499 . S
C448 H428 0.950 . S
C448 C447 1.414 . S
C448 C449 1.374 . S
C449 H429 0.950 . S
C449 C445 1.385 . S
C449 C448 1.374 . S
C450 C447 1.499 . S
C450 C451 1.373 . S
C450 C452 1.389 . S
C451 H430 0.950 . S
C451 C450 1.373 . S
C451 C467 1.377 . S
C452 C450 1.389 . S
C452 C453 1.524 . S
C452 C466 1.377 . S
C453 C452 1.524 . S
C453 C454 1.397 . S
C453 C458 1.363 . S
C454 H431 0.950 . S
C454 C453 1.397 . S
C454 C455 1.334 . S
C455 H432 0.950 . S
C455 C454 1.334 . S
C455 C456 1.287 . S
C456 C455 1.287 . S
C456 C457 1.524 . S
C456 H475 0.913 . S
C457 H433 0.950 . S
C457 C456 1.524 . S
C457 C458 1.415 . S
C458 H434 0.950 . S
C458 C453 1.363 . S
C458 C457 1.415 . S
C459 H435 0.951 . S
C459 C460 1.366 . S
C459 C461 1.388 . S
C460 C459 1.366 . S
C460 C464 1.385 . S
C461 H436 0.951 . S
C461 C459 1.388 . S
C461 C462 1.366 . S
C462 C461 1.366 . S
C462 C463 1.414 . S
C462 C465 1.499 . S
C463 H437 0.950 . S
C463 C462 1.414 . S
C463 C464 1.374 . S
C464 H438 0.950 . S
C464 C460 1.385 . S
C464 C463 1.374 . S
C465 C462 1.499 . S
C465 C466 1.373 . S
C465 C467 1.389 . S
C466 H439 0.950 . S
C466 C452 1.377 . S
C466 C465 1.373 . S
C467 C451 1.377 . S
C467 C465 1.389 . S
C467 C468 1.524 . S
C468 C467 1.524 . S
C468 C469 1.397 . S
C468 C473 1.363 . S
C469 H440 0.950 . S
C469 C468 1.397 . S
C469 C470 1.334 . S
C470 H441 0.950 . S
C470 C469 1.334 . S
C470 C471 1.287 . S
C471 C470 1.287 . S
C471 C472 1.524 . S
C471 H474 0.999 . S
C472 H442 0.950 . S
C472 C471 1.524 . S
C472 C473 1.415 . S
C473 H443 0.950 . S
C473 C468 1.363 . S
C473 C472 1.415 . S
H474 C471 0.999 . S
H475 C456 0.913 . S
H476 C494 0.951 . S
H477 C496 0.951 . S
H478 C498 0.950 . S
H479 C499 0.950 . S
H480 C501 0.950 . S
H481 C504 0.950 . S
H482 C505 0.950 1_554 S
H483 C507 0.950 . S
H484 C508 0.950 . S
H485 C509 0.951 . S
H486 C511 0.951 . S
H487 C513 0.950 . S
H488 C514 0.950 . S
H489 C516 0.950 . S
H490 C519 0.950 . S
H491 C520 0.950 . S
H492 C522 0.950 . S
H493 C523 0.950 . S
C494 H476 0.951 . S
C494 C495 1.366 . S
C494 C496 1.388 . S
C495 C494 1.366 . S
C495 C499 1.385 . S
C496 H477 0.951 . S
C496 C494 1.388 . S
C496 C497 1.366 . S
C497 C496 1.366 . S
C497 C498 1.414 . S
C497 C500 1.499 1_554 S
C498 H478 0.950 . S
C498 C497 1.414 . S
C498 C499 1.374 . S
C499 H479 0.950 . S
C499 C495 1.385 . S
C499 C498 1.374 . S
C500 C497 1.499 1_556 S
C500 C501 1.373 . S
C500 C502 1.389 . S
C501 H480 0.950 . S
C501 C500 1.373 . S
C501 C517 1.377 . S
C502 C500 1.389 . S
C502 C503 1.524 . S
C502 C516 1.377 . S
C503 C502 1.524 . S
C503 C504 1.397 . S
C503 C508 1.363 . S
C504 H481 0.950 . S
C504 C503 1.397 . S
C504 C505 1.334 . S
C505 H482 0.950 1_556 S
C505 C504 1.334 . S
C505 C506 1.287 . S
C506 C505 1.287 . S
C506 C507 1.524 . S
C506 H525 0.913 1_556 S
C507 H483 0.950 . S
C507 C506 1.524 . S
C507 C508 1.415 . S
C508 H484 0.950 . S
C508 C503 1.363 . S
C508 C507 1.415 . S
C509 H485 0.951 . S
C509 C510 1.366 . S
C509 C511 1.388 . S
C510 C509 1.366 . S
C510 C514 1.385 . S
C511 H486 0.951 . S
C511 C509 1.388 . S
C511 C512 1.366 . S
C512 C511 1.366 . S
C512 C513 1.414 . S
C512 C515 1.499 . S
C513 H487 0.950 . S
C513 C512 1.414 . S
C513 C514 1.374 . S
C514 H488 0.950 . S
C514 C510 1.385 . S
C514 C513 1.374 . S
C515 C512 1.499 . S
C515 C516 1.373 . S
C515 C517 1.389 . S
C516 H489 0.950 . S
C516 C502 1.377 . S
C516 C515 1.373 . S
C517 C501 1.377 . S
C517 C515 1.389 . S
C517 C518 1.524 . S
C518 C517 1.524 . S
C518 C519 1.397 . S
C518 C523 1.363 . S
C519 H490 0.950 . S
C519 C518 1.397 . S
C519 C520 1.334 . S
C520 H491 0.950 . S
C520 C519 1.334 . S
C520 C521 1.287 . S
C521 C520 1.287 . S
C521 C522 1.524 . S
C521 H524 0.999 . S
C522 H492 0.950 . S
C522 C521 1.524 . S
C522 C523 1.415 . S
C523 H493 0.950 . S
C523 C518 1.363 . S
C523 C522 1.415 . S
H524 C521 0.999 . S
H525 C506 0.913 1_554 S
H526 C544 0.951 . S
H527 C546 0.951 . S
H528 C548 0.950 . S
H529 C549 0.950 . S
H530 C551 0.950 . S
H531 C554 0.950 . S
H532 C555 0.950 . S
H533 C557 0.950 . S
H534 C558 0.950 . S
H535 C559 0.951 . S
H536 C561 0.951 1_554 S
H537 C563 0.950 . S
H538 C564 0.950 . S
H539 C566 0.950 . S
H540 C569 0.950 . S
H541 C570 0.950 1_556 S
H542 C572 0.950 . S
H543 C573 0.950 . S
C544 H526 0.951 . S
C544 C545 1.366 . S
C544 C546 1.388 . S
C545 C544 1.366 . S
C545 C549 1.385 . S
C546 H527 0.951 . S
C546 C544 1.388 . S
C546 C547 1.366 . S
C547 C546 1.366 . S
C547 C548 1.414 . S
C547 C550 1.499 . S
C548 H528 0.950 . S
C548 C547 1.414 . S
C548 C549 1.374 . S
C549 H529 0.950 . S
C549 C545 1.385 . S
C549 C548 1.374 . S
C550 C547 1.499 . S
C550 C551 1.373 . S
C550 C552 1.389 . S
C551 H530 0.950 . S
C551 C550 1.373 . S
C551 C567 1.377 . S
C552 C550 1.389 . S
C552 C553 1.524 . S
C552 C566 1.377 . S
C553 C552 1.524 . S
C553 C554 1.397 . S
C553 C558 1.363 . S
C554 H531 0.950 . S
C554 C553 1.397 . S
C554 C555 1.334 . S
C555 H532 0.950 . S
C555 C554 1.334 . S
C555 C556 1.287 . S
C556 C555 1.287 . S
C556 C557 1.524 . S
C556 H575 0.913 . S
C557 H533 0.950 . S
C557 C556 1.524 . S
C557 C558 1.415 . S
C558 H534 0.950 . S
C558 C553 1.363 . S
C558 C557 1.415 . S
C559 H535 0.951 . S
C559 C560 1.366 . S
C559 C561 1.388 . S
C560 C559 1.366 . S
C560 C564 1.385 . S
C561 H536 0.951 1_556 S
C561 C559 1.388 . S
C561 C562 1.366 1_556 S
C562 C561 1.366 1_554 S
C562 C563 1.414 1_554 S
C562 C565 1.499 . S
C563 H537 0.950 . S
C563 C562 1.414 1_556 S
C563 C564 1.374 . S
C564 H538 0.950 . S
C564 C560 1.385 . S
C564 C563 1.374 . S
C565 C562 1.499 . S
C565 C566 1.373 . S
C565 C567 1.389 . S
C566 H539 0.950 . S
C566 C552 1.377 . S
C566 C565 1.373 . S
C567 C551 1.377 . S
C567 C565 1.389 . S
C567 C568 1.524 . S
C568 C567 1.524 . S
C568 C569 1.397 . S
C568 C573 1.363 . S
C569 H540 0.950 . S
C569 C568 1.397 . S
C569 C570 1.334 . S
C570 H541 0.950 1_554 S
C570 C569 1.334 . S
C570 C571 1.287 . S
C571 C570 1.287 . S
C571 C572 1.524 . S
C571 H574 0.999 . S
C572 H542 0.950 . S
C572 C571 1.524 . S
C572 C573 1.415 . S
C573 H543 0.950 . S
C573 C568 1.363 . S
C573 C572 1.415 . S
H574 C571 0.999 . S
H575 C556 0.913 . S
H576 C594 0.951 . S
H577 C596 0.951 . S
H578 C598 0.950 . S
H579 C599 0.950 . S
H580 C601 0.950 . S
H581 C604 0.950 . S
H582 C605 0.950 . S
H583 C607 0.950 . S
H584 C608 0.950 . S
H585 C609 0.951 . S
H586 C611 0.951 . S
H587 C613 0.950 . S
H588 C614 0.950 . S
H589 C616 0.950 . S
H590 C619 0.950 . S
H591 C620 0.950 . S
H592 C622 0.950 . S
H593 C623 0.950 . S
C594 H576 0.951 . S
C594 C595 1.366 . S
C594 C596 1.388 . S
C595 C594 1.366 . S
C595 C599 1.385 . S
C596 H577 0.951 . S
C596 C594 1.388 . S
C596 C597 1.366 . S
C597 C596 1.366 . S
C597 C598 1.414 . S
C597 C600 1.499 . S
C598 H578 0.950 . S
C598 C597 1.414 . S
C598 C599 1.374 . S
C599 H579 0.950 . S
C599 C595 1.385 . S
C599 C598 1.374 . S
C600 C597 1.499 . S
C600 C601 1.373 . S
C600 C602 1.389 . S
C601 H580 0.950 . S
C601 C600 1.373 . S
C601 C617 1.377 . S
C602 C600 1.389 . S
C602 C603 1.524 . S
C602 C616 1.377 . S
C603 C602 1.524 . S
C603 C604 1.397 . S
C603 C608 1.363 . S
C604 H581 0.950 . S
C604 C603 1.397 . S
C604 C605 1.334 . S
C605 H582 0.950 . S
C605 C604 1.334 . S
C605 C606 1.287 . S
C606 C605 1.287 . S
C606 C607 1.524 . S
C606 H625 0.913 . S
C607 H583 0.950 . S
C607 C606 1.524 . S
C607 C608 1.415 . S
C608 H584 0.950 . S
C608 C603 1.363 . S
C608 C607 1.415 . S
C609 H585 0.951 . S
C609 C610 1.366 . S
C609 C611 1.388 . S
C610 C609 1.366 . S
C610 C614 1.385 . S
C611 H586 0.951 . S
C611 C609 1.388 . S
C611 C612 1.366 . S
C612 C611 1.366 . S
C612 C613 1.414 . S
C612 C615 1.499 . S
C613 H587 0.950 . S
C613 C612 1.414 . S
C613 C614 1.374 . S
C614 H588 0.950 . S
C614 C610 1.385 . S
C614 C613 1.374 . S
C615 C612 1.499 . S
C615 C616 1.373 . S
C615 C617 1.389 . S
C616 H589 0.950 . S
C616 C602 1.377 . S
C616 C615 1.373 . S
C617 C601 1.377 . S
C617 C615 1.389 . S
C617 C618 1.524 . S
C618 C617 1.524 . S
C618 C619 1.397 . S
C618 C623 1.363 . S
C619 H590 0.950 . S
C619 C618 1.397 . S
C619 C620 1.334 . S
C620 H591 0.950 . S
C620 C619 1.334 . S
C620 C621 1.287 . S
C621 C620 1.287 . S
C621 C622 1.524 . S
C621 H624 0.999 . S
C622 H592 0.950 . S
C622 C621 1.524 . S
C622 C623 1.415 . S
C623 H593 0.950 . S
C623 C618 1.363 . S
C623 C622 1.415 . S
H624 C621 0.999 . S
H625 C606 0.913 . S
H626 C644 0.951 . S
H627 C646 0.951 . S
H628 C648 0.950 . S
H629 C649 0.950 . S
H630 C651 0.950 . S
H631 C654 0.950 . S
H632 C655 0.950 . S
H633 C657 0.950 . S
H634 C658 0.950 . S
H635 C659 0.951 . S
H636 C661 0.951 . S
H637 C663 0.950 . S
H638 C664 0.950 . S
H639 C666 0.950 . S
H640 C669 0.950 . S
H641 C670 0.950 . S
H642 C672 0.950 . S
H643 C673 0.950 . S
C644 H626 0.951 . S
C644 C645 1.366 . S
C644 C646 1.388 . S
C645 C644 1.366 . S
C645 C649 1.385 . S
C646 H627 0.951 . S
C646 C644 1.388 . S
C646 C647 1.366 . S
C647 C646 1.366 . S
C647 C648 1.414 . S
C647 C650 1.499 . S
C648 H628 0.950 . S
C648 C647 1.414 . S
C648 C649 1.374 . S
C649 H629 0.950 . S
C649 C645 1.385 . S
C649 C648 1.374 . S
C650 C647 1.499 . S
C650 C651 1.373 . S
C650 C652 1.389 . S
C651 H630 0.950 . S
C651 C650 1.373 . S
C651 C667 1.377 . S
C652 C650 1.389 . S
C652 C653 1.524 . S
C652 C666 1.377 . S
C653 C652 1.524 . S
C653 C654 1.397 . S
C653 C658 1.363 . S
C654 H631 0.950 . S
C654 C653 1.397 . S
C654 C655 1.334 . S
C655 H632 0.950 . S
C655 C654 1.334 . S
C655 C656 1.287 . S
C656 C655 1.287 . S
C656 C657 1.524 . S
C656 H675 0.913 . S
C657 H633 0.950 . S
C657 C656 1.524 . S
C657 C658 1.415 . S
C658 H634 0.950 . S
C658 C653 1.363 . S
C658 C657 1.415 . S
C659 H635 0.951 . S
C659 C660 1.366 . S
C659 C661 1.388 . S
C660 C659 1.366 . S
C660 C664 1.385 . S
C661 H636 0.951 . S
C661 C659 1.388 . S
C661 C662 1.366 . S
C662 C661 1.366 . S
C662 C663 1.414 . S
C662 C665 1.499 1_554 S
C663 H637 0.950 . S
C663 C662 1.414 . S
C663 C664 1.374 . S
C664 H638 0.950 . S
C664 C660 1.385 . S
C664 C663 1.374 . S
C665 C662 1.499 1_556 S
C665 C666 1.373 . S
C665 C667 1.389 . S
C666 H639 0.950 . S
C666 C652 1.377 . S
C666 C665 1.373 . S
C667 C651 1.377 . S
C667 C665 1.389 . S
C667 C668 1.524 . S
C668 C667 1.524 . S
C668 C669 1.397 . S
C668 C673 1.363 . S
C669 H640 0.950 . S
C669 C668 1.397 . S
C669 C670 1.334 1_556 S
C670 H641 0.950 . S
C670 C669 1.334 1_554 S
C670 C671 1.287 . S
C671 C670 1.287 . S
C671 C672 1.524 1_554 S
C671 H674 0.999 . S
C672 H642 0.950 . S
C672 C671 1.524 1_556 S
C672 C673 1.415 . S
C673 H643 0.950 . S
C673 C668 1.363 . S
C673 C672 1.415 . S
H674 C671 0.999 . S
H675 C656 0.913 . S
H676 C694 0.951 . S
H677 C696 0.951 . S
H678 C698 0.950 . S
H679 C699 0.950 . S
H680 C701 0.950 . S
H681 C704 0.950 . S
H682 C705 0.950 . S
H683 C707 0.950 . S
H684 C708 0.950 . S
H685 C709 0.951 . S
H686 C711 0.951 . S
H687 C713 0.950 . S
H688 C714 0.950 . S
H689 C716 0.950 . S
H690 C719 0.950 . S
H691 C720 0.950 . S
H692 C722 0.950 . S
H693 C723 0.950 . S
C694 H676 0.951 . S
C694 C695 1.366 . S
C694 C696 1.388 . S
C695 C694 1.366 . S
C695 C699 1.385 . S
C696 H677 0.951 . S
C696 C694 1.388 . S
C696 C697 1.366 . S
C697 C696 1.366 . S
C697 C698 1.414 . S
C697 C700 1.499 . S
C698 H678 0.950 . S
C698 C697 1.414 . S
C698 C699 1.374 . S
C699 H679 0.950 . S
C699 C695 1.385 . S
C699 C698 1.374 . S
C700 C697 1.499 . S
C700 C701 1.373 . S
C700 C702 1.389 . S
C701 H680 0.950 . S
C701 C700 1.373 . S
C701 C717 1.377 . S
C702 C700 1.389 . S
C702 C703 1.524 . S
C702 C716 1.377 . S
C703 C702 1.524 . S
C703 C704 1.397 . S
C703 C708 1.363 . S
C704 H681 0.950 . S
C704 C703 1.397 . S
C704 C705 1.334 . S
C705 H682 0.950 . S
C705 C704 1.334 . S
C705 C706 1.287 . S
C706 C705 1.287 . S
C706 C707 1.524 . S
C706 H725 0.913 . S
C707 H683 0.950 . S
C707 C706 1.524 . S
C707 C708 1.415 . S
C708 H684 0.950 . S
C708 C703 1.363 . S
C708 C707 1.415 . S
C709 H685 0.951 . S
C709 C710 1.366 . S
C709 C711 1.388 . S
C710 C709 1.366 . S
C710 C714 1.385 . S
C711 H686 0.951 . S
C711 C709 1.388 . S
C711 C712 1.366 1_556 S
C712 C711 1.366 1_554 S
C712 C713 1.414 1_554 S
C712 C715 1.499 . S
C713 H687 0.950 . S
C713 C712 1.414 1_556 S
C713 C714 1.374 . S
C714 H688 0.950 . S
C714 C710 1.385 . S
C714 C713 1.374 . S
C715 C712 1.499 . S
C715 C716 1.373 . S
C715 C717 1.389 . S
C716 H689 0.950 . S
C716 C702 1.377 . S
C716 C715 1.373 . S
C717 C701 1.377 . S
C717 C715 1.389 . S
C717 C718 1.524 . S
C718 C717 1.524 . S
C718 C719 1.397 . S
C718 C723 1.363 . S
C719 H690 0.950 . S
C719 C718 1.397 . S
C719 C720 1.334 1_554 S
C720 H691 0.950 . S
C720 C719 1.334 1_556 S
C720 C721 1.287 1_556 S
C721 C720 1.287 1_554 S
C721 C722 1.524 . S
C721 H724 0.999 1_554 S
C722 H692 0.950 . S
C722 C721 1.524 . S
C722 C723 1.415 . S
C723 H693 0.950 . S
C723 C718 1.363 . S
C723 C722 1.415 . S
H724 C721 0.999 1_556 S
H725 C706 0.913 . S
H726 C744 0.951 1_556 S
H727 C746 0.951 . S
H728 C748 0.950 . S
H729 C749 0.950 . S
H730 C751 0.950 . S
H731 C754 0.950 1_554 S
H732 C755 0.950 . S
H733 C757 0.950 . S
H734 C758 0.950 . S
H735 C759 0.951 . S
H736 C761 0.951 . S
H737 C763 0.950 . S
H738 C764 0.950 . S
H739 C766 0.950 . S
H740 C769 0.950 . S
H741 C770 0.950 . S
H742 C772 0.950 . S
H743 C773 0.950 . S
C744 H726 0.951 1_554 S
C744 C745 1.366 . S
C744 C746 1.388 . S
C745 C744 1.366 . S
C745 C749 1.385 . S
C746 H727 0.951 . S
C746 C744 1.388 . S
C746 C747 1.366 . S
C747 C746 1.366 . S
C747 C748 1.414 . S
C747 C750 1.499 . S
C748 H728 0.950 . S
C748 C747 1.414 . S
C748 C749 1.374 . S
C749 H729 0.950 . S
C749 C745 1.385 . S
C749 C748 1.374 . S
C750 C747 1.499 . S
C750 C751 1.373 . S
C750 C752 1.389 . S
C751 H730 0.950 . S
C751 C750 1.373 . S
C751 C767 1.377 . S
C752 C750 1.389 . S
C752 C753 1.524 . S
C752 C766 1.377 . S
C753 C752 1.524 . S
C753 C754 1.397 1_554 S
C753 C758 1.363 1_554 S
C754 H731 0.950 1_556 S
C754 C753 1.397 1_556 S
C754 C755 1.334 . S
C755 H732 0.950 . S
C755 C754 1.334 . S
C755 C756 1.287 . S
C756 C755 1.287 . S
C756 C757 1.524 . S
C756 H775 0.913 . S
C757 H733 0.950 . S
C757 C756 1.524 . S
C757 C758 1.415 . S
C758 H734 0.950 . S
C758 C753 1.363 1_556 S
C758 C757 1.415 . S
C759 H735 0.951 . S
C759 C760 1.366 . S
C759 C761 1.388 . S
C760 C759 1.366 . S
C760 C764 1.385 . S
C761 H736 0.951 . S
C761 C759 1.388 . S
C761 C762 1.366 . S
C762 C761 1.366 . S
C762 C763 1.414 . S
C762 C765 1.499 . S
C763 H737 0.950 . S
C763 C762 1.414 . S
C763 C764 1.374 . S
C764 H738 0.950 . S
C764 C760 1.385 . S
C764 C763 1.374 . S
C765 C762 1.499 . S
C765 C766 1.373 . S
C765 C767 1.389 . S
C766 H739 0.950 . S
C766 C752 1.377 . S
C766 C765 1.373 . S
C767 C751 1.377 . S
C767 C765 1.389 . S
C767 C768 1.524 . S
C768 C767 1.524 . S
C768 C769 1.397 . S
C768 C773 1.363 . S
C769 H740 0.950 . S
C769 C768 1.397 . S
C769 C770 1.334 . S
C770 H741 0.950 . S
C770 C769 1.334 . S
C770 C771 1.287 . S
C771 C770 1.287 . S
C771 C772 1.524 . S
C771 H774 0.999 . S
C772 H742 0.950 . S
C772 C771 1.524 . S
C772 C773 1.415 . S
C773 H743 0.950 . S
C773 C768 1.363 . S
C773 C772 1.415 . S
H774 C771 0.999 . S
H775 C756 0.913 . S
H776 C794 0.951 . S
H777 C796 0.951 . S
H778 C798 0.950 . S
H779 C799 0.950 . S
H780 C801 0.950 . S
H781 C804 0.950 . S
H782 C805 0.950 . S
H783 C807 0.950 . S
H784 C808 0.950 . S
H785 C809 0.951 . S
H786 C811 0.951 . S
H787 C813 0.950 . S
H788 C814 0.950 . S
H789 C816 0.950 . S
H790 C819 0.950 . S
H791 C820 0.950 . S
H792 C822 0.950 . S
H793 C823 0.950 . S
C794 H776 0.951 . S
C794 C795 1.366 . S
C794 C796 1.388 . S
C795 C794 1.366 . S
C795 C799 1.385 . S
C796 H777 0.951 . S
C796 C794 1.388 . S
C796 C797 1.366 . S
C797 C796 1.366 . S
C797 C798 1.414 . S
C797 C800 1.499 . S
C798 H778 0.950 . S
C798 C797 1.414 . S
C798 C799 1.374 . S
C799 H779 0.950 . S
C799 C795 1.385 . S
C799 C798 1.374 . S
C800 C797 1.499 . S
C800 C801 1.373 . S
C800 C802 1.389 . S
C801 H780 0.950 . S
C801 C800 1.373 . S
C801 C817 1.377 . S
C802 C800 1.389 . S
C802 C803 1.524 . S
C802 C816 1.377 . S
C803 C802 1.524 . S
C803 C804 1.397 . S
C803 C808 1.363 . S
C804 H781 0.950 . S
C804 C803 1.397 . S
C804 C805 1.334 . S
C805 H782 0.950 . S
C805 C804 1.334 . S
C805 C806 1.287 . S
C806 C805 1.287 . S
C806 C807 1.524 . S
C806 H825 0.913 . S
C807 H783 0.950 . S
C807 C806 1.524 . S
C807 C808 1.415 . S
C808 H784 0.950 . S
C808 C803 1.363 . S
C808 C807 1.415 . S
C809 H785 0.951 . S
C809 C810 1.366 . S
C809 C811 1.388 . S
C810 C809 1.366 . S
C810 C814 1.385 . S
C811 H786 0.951 . S
C811 C809 1.388 . S
C811 C812 1.366 . S
C812 C811 1.366 . S
C812 C813 1.414 . S
C812 C815 1.499 . S
C813 H787 0.950 . S
C813 C812 1.414 . S
C813 C814 1.374 . S
C814 H788 0.950 . S
C814 C810 1.385 . S
C814 C813 1.374 . S
C815 C812 1.499 . S
C815 C816 1.373 . S
C815 C817 1.389 . S
C816 H789 0.950 . S
C816 C802 1.377 . S
C816 C815 1.373 . S
C817 C801 1.377 . S
C817 C815 1.389 . S
C817 C818 1.524 . S
C818 C817 1.524 . S
C818 C819 1.397 . S
C818 C823 1.363 . S
C819 H790 0.950 . S
C819 C818 1.397 . S
C819 C820 1.334 . S
C820 H791 0.950 . S
C820 C819 1.334 . S
C820 C821 1.287 . S
C821 C820 1.287 . S
C821 C822 1.524 . S
C821 H824 0.999 . S
C822 H792 0.950 . S
C822 C821 1.524 . S
C822 C823 1.415 . S
C823 H793 0.950 . S
C823 C818 1.363 . S
C823 C822 1.415 . S
H824 C821 0.999 . S
H825 C806 0.913 . S
H826 C844 0.951 1_554 S
H827 C846 0.951 1_554 S
H828 C848 0.950 . S
H829 C849 0.950 . S
H830 C851 0.950 . S
H831 C854 0.950 . S
H832 C855 0.950 . S
H833 C857 0.950 . S
H834 C858 0.950 . S
H835 C859 0.951 . S
H836 C861 0.951 . S
H837 C863 0.950 . S
H838 C864 0.950 . S
H839 C866 0.950 . S
H840 C869 0.950 . S
H841 C870 0.950 . S
H842 C872 0.950 . S
H843 C873 0.950 . S
C844 H826 0.951 1_556 S
C844 C845 1.366 . S
C844 C846 1.388 . S
C845 C844 1.366 . S
C845 C849 1.385 . S
C846 H827 0.951 1_556 S
C846 C844 1.388 . S
C846 C847 1.366 . S
C847 C846 1.366 . S
C847 C848 1.414 . S
C847 C850 1.499 . S
C848 H828 0.950 . S
C848 C847 1.414 . S
C848 C849 1.374 . S
C849 H829 0.950 . S
C849 C845 1.385 . S
C849 C848 1.374 . S
C850 C847 1.499 . S
C850 C851 1.373 . S
C850 C852 1.389 . S
C851 H830 0.950 . S
C851 C850 1.373 . S
C851 C867 1.377 . S
C852 C850 1.389 . S
C852 C853 1.524 . S
C852 C866 1.377 . S
C853 C852 1.524 . S
C853 C854 1.397 . S
C853 C858 1.363 1_556 S
C854 H831 0.950 . S
C854 C853 1.397 . S
C854 C855 1.334 . S
C855 H832 0.950 . S
C855 C854 1.334 . S
C855 C856 1.287 1_556 S
C856 C855 1.287 1_554 S
C856 C857 1.524 . S
C856 H875 0.913 . S
C857 H833 0.950 . S
C857 C856 1.524 . S
C857 C858 1.415 . S
C858 H834 0.950 . S
C858 C853 1.363 1_554 S
C858 C857 1.415 . S
C859 H835 0.951 . S
C859 C860 1.366 . S
C859 C861 1.388 . S
C860 C859 1.366 . S
C860 C864 1.385 . S
C861 H836 0.951 . S
C861 C859 1.388 . S
C861 C862 1.366 . S
C862 C861 1.366 . S
C862 C863 1.414 . S
C862 C865 1.499 . S
C863 H837 0.950 . S
C863 C862 1.414 . S
C863 C864 1.374 . S
C864 H838 0.950 . S
C864 C860 1.385 . S
C864 C863 1.374 . S
C865 C862 1.499 . S
C865 C866 1.373 . S
C865 C867 1.389 . S
C866 H839 0.950 . S
C866 C852 1.377 . S
C866 C865 1.373 . S
C867 C851 1.377 . S
C867 C865 1.389 . S
C867 C868 1.524 . S
C868 C867 1.524 . S
C868 C869 1.397 . S
C868 C873 1.363 . S
C869 H840 0.950 . S
C869 C868 1.397 . S
C869 C870 1.334 . S
C870 H841 0.950 . S
C870 C869 1.334 . S
C870 C871 1.287 . S
C871 C870 1.287 . S
C871 C872 1.524 . S
C871 H874 0.999 . S
C872 H842 0.950 . S
C872 C871 1.524 . S
C872 C873 1.415 . S
C873 H843 0.950 . S
C873 C868 1.363 . S
C873 C872 1.415 . S
H874 C871 0.999 . S
H875 C856 0.913 . S
H876 C894 0.951 . S
H877 C896 0.951 . S
H878 C898 0.950 . S
H879 C899 0.950 . S
H880 C901 0.950 . S
H881 C904 0.950 . S
H882 C905 0.950 . S
H883 C907 0.950 . S
H884 C908 0.950 . S
H885 C909 0.951 . S
H886 C911 0.951 . S
H887 C913 0.950 . S
H888 C914 0.950 1_556 S
H889 C916 0.950 . S
H890 C919 0.950 . S
H891 C920 0.950 . S
H892 C922 0.950 . S
H893 C923 0.950 . S
C894 H876 0.951 . S
C894 C895 1.366 . S
C894 C896 1.388 . S
C895 C894 1.366 . S
C895 C899 1.385 . S
C896 H877 0.951 . S
C896 C894 1.388 . S
C896 C897 1.366 . S
C897 C896 1.366 . S
C897 C898 1.414 . S
C897 C900 1.499 . S
C898 H878 0.950 . S
C898 C897 1.414 . S
C898 C899 1.374 . S
C899 H879 0.950 . S
C899 C895 1.385 . S
C899 C898 1.374 . S
C900 C897 1.499 . S
C900 C901 1.373 . S
C900 C902 1.389 . S
C901 H880 0.950 . S
C901 C900 1.373 . S
C901 C917 1.377 . S
C902 C900 1.389 . S
C902 C903 1.524 . S
C902 C916 1.377 . S
C903 C902 1.524 . S
C903 C904 1.397 . S
C903 C908 1.363 . S
C904 H881 0.950 . S
C904 C903 1.397 . S
C904 C905 1.334 . S
C905 H882 0.950 . S
C905 C904 1.334 . S
C905 C906 1.287 . S
C906 C905 1.287 . S
C906 C907 1.524 . S
C906 H925 0.913 . S
C907 H883 0.950 . S
C907 C906 1.524 . S
C907 C908 1.415 . S
C908 H884 0.950 . S
C908 C903 1.363 . S
C908 C907 1.415 . S
C909 H885 0.951 . S
C909 C910 1.366 . S
C909 C911 1.388 . S
C910 C909 1.366 . S
C910 C914 1.385 . S
C911 H886 0.951 . S
C911 C909 1.388 . S
C911 C912 1.366 . S
C912 C911 1.366 . S
C912 C913 1.414 . S
C912 C915 1.499 . S
C913 H887 0.950 . S
C913 C912 1.414 . S
C913 C914 1.374 . S
C914 H888 0.950 1_554 S
C914 C910 1.385 . S
C914 C913 1.374 . S
C915 C912 1.499 . S
C915 C916 1.373 . S
C915 C917 1.389 . S
C916 H889 0.950 . S
C916 C902 1.377 . S
C916 C915 1.373 . S
C917 C901 1.377 . S
C917 C915 1.389 . S
C917 C918 1.524 . S
C918 C917 1.524 . S
C918 C919 1.397 . S
C918 C923 1.363 . S
C919 H890 0.950 . S
C919 C918 1.397 . S
C919 C920 1.334 . S
C920 H891 0.950 . S
C920 C919 1.334 . S
C920 C921 1.287 . S
C921 C920 1.287 . S
C921 C922 1.524 . S
C921 H924 0.999 . S
C922 H892 0.950 . S
C922 C921 1.524 . S
C922 C923 1.415 . S
C923 H893 0.950 . S
C923 C918 1.363 . S
C923 C922 1.415 . S
H924 C921 0.999 . S
H925 C906 0.913 . S
H926 C944 0.951 . S
H927 C946 0.951 . S
H928 C948 0.950 . S
H929 C949 0.950 . S
H930 C951 0.950 . S
H931 C954 0.950 . S
H932 C955 0.950 . S
H933 C957 0.950 . S
H934 C958 0.950 . S
H935 C959 0.951 . S
H936 C961 0.951 . S
H937 C963 0.950 . S
H938 C964 0.950 . S
H939 C966 0.950 . S
H940 C969 0.950 . S
H941 C970 0.950 . S
H942 C972 0.950 . S
H943 C973 0.950 . S
C944 H926 0.951 . S
C944 C945 1.366 . S
C944 C946 1.388 . S
C945 C944 1.366 . S
C945 C949 1.385 . S
C946 H927 0.951 . S
C946 C944 1.388 . S
C946 C947 1.366 . S
C947 C946 1.366 . S
C947 C948 1.414 . S
C947 C950 1.499 . S
C948 H928 0.950 . S
C948 C947 1.414 . S
C948 C949 1.374 . S
C949 H929 0.950 . S
C949 C945 1.385 . S
C949 C948 1.374 . S
C950 C947 1.499 . S
C950 C951 1.373 . S
C950 C952 1.389 . S
C951 H930 0.950 . S
C951 C950 1.373 . S
C951 C967 1.377 . S
C952 C950 1.389 . S
C952 C953 1.524 . S
C952 C966 1.377 . S
C953 C952 1.524 . S
C953 C954 1.397 . S
C953 C958 1.363 . S
C954 H931 0.950 . S
C954 C953 1.397 . S
C954 C955 1.334 . S
C955 H932 0.950 . S
C955 C954 1.334 . S
C955 C956 1.287 . S
C956 C955 1.287 . S
C956 C957 1.524 . S
C956 H975 0.913 . S
C957 H933 0.950 . S
C957 C956 1.524 . S
C957 C958 1.415 . S
C958 H934 0.950 . S
C958 C953 1.363 . S
C958 C957 1.415 . S
C959 H935 0.951 . S
C959 C960 1.366 . S
C959 C961 1.388 . S
C960 C959 1.366 . S
C960 C964 1.385 . S
C961 H936 0.951 . S
C961 C959 1.388 . S
C961 C962 1.366 . S
C962 C961 1.366 . S
C962 C963 1.414 . S
C962 C965 1.499 . S
C963 H937 0.950 . S
C963 C962 1.414 . S
C963 C964 1.374 . S
C964 H938 0.950 . S
C964 C960 1.385 . S
C964 C963 1.374 . S
C965 C962 1.499 . S
C965 C966 1.373 . S
C965 C967 1.389 . S
C966 H939 0.950 . S
C966 C952 1.377 . S
C966 C965 1.373 . S
C967 C951 1.377 . S
C967 C965 1.389 . S
C967 C968 1.524 . S
C968 C967 1.524 . S
C968 C969 1.397 . S
C968 C973 1.363 . S
C969 H940 0.950 . S
C969 C968 1.397 . S
C969 C970 1.334 . S
C970 H941 0.950 . S
C970 C969 1.334 . S
C970 C971 1.287 . S
C971 C970 1.287 . S
C971 C972 1.524 . S
C971 H974 0.999 . S
C972 H942 0.950 . S
C972 C971 1.524 . S
C972 C973 1.415 . S
C973 H943 0.950 . S
C973 C968 1.363 . S
C973 C972 1.415 . S
H974 C971 0.999 . S
H975 C956 0.913 . S
H976 C994 0.951 . S
H977 C996 0.951 . S
H978 C998 0.950 . S
H979 C999 0.950 . S
H980 C1001 0.950 . S
H981 C1004 0.950 . S
H982 C1005 0.950 . S
H983 C1007 0.950 . S
H984 C1008 0.950 1_556 S
H985 C1009 0.951 . S
H986 C1011 0.951 . S
H987 C1013 0.950 . S
H988 C1014 0.950 . S
H989 C1016 0.950 . S
H990 C1019 0.950 . S
H991 C1020 0.950 . S
H992 C1022 0.950 . S
H993 C1023 0.950 . S
C994 H976 0.951 . S
C994 C995 1.366 . S
C994 C996 1.388 . S
C995 C994 1.366 . S
C995 C999 1.385 . S
C996 H977 0.951 . S
C996 C994 1.388 . S
C996 C997 1.366 . S
C997 C996 1.366 . S
C997 C998 1.414 . S
C997 C1000 1.499 . S
C998 H978 0.950 . S
C998 C997 1.414 . S
C998 C999 1.374 . S
C999 H979 0.950 . S
C999 C995 1.385 . S
C999 C998 1.374 . S
C1000 C997 1.499 . S
C1000 C1001 1.373 . S
C1000 C1002 1.389 . S
C1001 H980 0.950 . S
C1001 C1000 1.373 . S
C1001 C1017 1.377 . S
C1002 C1000 1.389 . S
C1002 C1003 1.524 1_556 S
C1002 C1016 1.377 . S
C1003 C1002 1.524 1_554 S
C1003 C1004 1.397 . S
C1003 C1008 1.363 . S
C1004 H981 0.950 . S
C1004 C1003 1.397 . S
C1004 C1005 1.334 . S
C1005 H982 0.950 . S
C1005 C1004 1.334 . S
C1005 C1006 1.287 . S
C1006 C1005 1.287 . S
C1006 C1007 1.524 . S
C1006 H1025 0.913 . S
C1007 H983 0.950 . S
C1007 C1006 1.524 . S
C1007 C1008 1.415 . S
C1008 H984 0.950 1_554 S
C1008 C1003 1.363 . S
C1008 C1007 1.415 . S
C1009 H985 0.951 . S
C1009 C1010 1.366 . S
C1009 C1011 1.388 . S
C1010 C1009 1.366 . S
C1010 C1014 1.385 . S
C1011 H986 0.951 . S
C1011 C1009 1.388 . S
C1011 C1012 1.366 . S
C1012 C1011 1.366 . S
C1012 C1013 1.414 . S
C1012 C1015 1.499 . S
C1013 H987 0.950 . S
C1013 C1012 1.414 . S
C1013 C1014 1.374 . S
C1014 H988 0.950 . S
C1014 C1010 1.385 . S
C1014 C1013 1.374 . S
C1015 C1012 1.499 . S
C1015 C1016 1.373 . S
C1015 C1017 1.389 . S
C1016 H989 0.950 . S
C1016 C1002 1.377 . S
C1016 C1015 1.373 . S
C1017 C1001 1.377 . S
C1017 C1015 1.389 . S
C1017 C1018 1.524 . S
C1018 C1017 1.524 . S
C1018 C1019 1.397 . S
C1018 C1023 1.363 . S
C1019 H990 0.950 . S
C1019 C1018 1.397 . S
C1019 C1020 1.334 . S
C1020 H991 0.950 . S
C1020 C1019 1.334 . S
C1020 C1021 1.287 . S
C1021 C1020 1.287 . S
C1021 C1022 1.524 . S
C1021 H1024 0.999 . S
C1022 H992 0.950 . S
C1022 C1021 1.524 . S
C1022 C1023 1.415 . S
C1023 H993 0.950 . S
C1023 C1018 1.363 . S
C1023 C1022 1.415 . S
H1024 C1021 0.999 . S
H1025 C1006 0.913 . S
C145 C121 1.246 . S
C160 C16 1.245 . S
C195 C3 1.246 . S
C210 C24 1.245 . S
C245 C37 1.247 . S
C260 C45 1.247 . S
C295 C58 1.245 . S
C310 C66 1.244 . S
C345 C87 1.245 . S
C360 C79 1.245 . S
C395 C108 1.246 . S
C410 C100 1.245 . S
C445 C7 0.774 . S
C460 C4 0.774 . S
C495 C25 0.772 . S
C510 C28 0.771 . S
C545 C46 0.772 . S
C560 C49 0.773 . S
C595 C67 0.772 . S
C610 C70 0.773 . S
C645 C91 0.774 . S
C660 C88 0.774 . S
C695 C109 0.773 . S
C710 C112 0.774 . S
C745 C20 1.398 . S
C760 C104 1.399 . S
C795 C40 1.400 . S
C810 C125 1.399 . S
C845 C19 1.399 . S
C860 C61 1.400 . S
C895 C41 1.400 . S
C910 C82 1.399 . S
C945 C103 1.398 . S
C960 C62 1.399 . S
C995 C83 1.399 . S
C1010 C124 1.399 . S
