# Generated by pormake.
# Topology utj, (3)-cn, num edge types: 1
# Building blocks:
#     Node 0, Type 0, BuildingBlock: WUSLED_clean_sbu_0, # of connection points: 3
#     Node 1, Type 0, BuildingBlock: WUSLED_clean_sbu_0, # of connection points: 3
#     Node 2, Type 0, BuildingBlock: WUSLED_clean_sbu_0, # of connection points: 3
#     Node 3, Type 0, BuildingBlock: WUSLED_clean_sbu_0, # of connection points: 3
#     Node 4, Type 0, BuildingBlock: WUSLED_clean_sbu_0, # of connection points: 3
#     Node 5, Type 0, BuildingBlock: WUSLED_clean_sbu_0, # of connection points: 3
#     Node 6, Type 0, BuildingBlock: WUSLED_clean_sbu_0, # of connection points: 3
#     Node 7, Type 0, BuildingBlock: WUSLED_clean_sbu_0, # of connection points: 3
#     Node 8, Type 0, BuildingBlock: WUSLED_clean_sbu_0, # of connection points: 3
#     Node 9, Type 0, BuildingBlock: WUSLED_clean_sbu_0, # of connection points: 3
#     Node 10, Type 0, BuildingBlock: WUSLED_clean_sbu_0, # of connection points: 3
#     Node 11, Type 0, BuildingBlock: WUSLED_clean_sbu_0, # of connection points: 3
#     Node 12, Type 0, BuildingBlock: WUSLED_clean_sbu_0, # of connection points: 3
#     Node 13, Type 0, BuildingBlock: WUSLED_clean_sbu_0, # of connection points: 3
#     Node 14, Type 0, BuildingBlock: WUSLED_clean_sbu_0, # of connection points: 3
#     Node 15, Type 0, BuildingBlock: WUSLED_clean_sbu_0, # of connection points: 3
#     Edge 16, Type (0, 0), None
#     Edge 17, Type (0, 0), None
#     Edge 18, Type (0, 0), None
#     Edge 19, Type (0, 0), None
#     Edge 20, Type (0, 0), None
#     Edge 21, Type (0, 0), None
#     Edge 22, Type (0, 0), None
#     Edge 23, Type (0, 0), None
#     Edge 24, Type (0, 0), None
#     Edge 25, Type (0, 0), None
#     Edge 26, Type (0, 0), None
#     Edge 27, Type (0, 0), None
#     Edge 28, Type (0, 0), None
#     Edge 29, Type (0, 0), None
#     Edge 30, Type (0, 0), None
#     Edge 31, Type (0, 0), None
#     Edge 32, Type (0, 0), None
#     Edge 33, Type (0, 0), None
#     Edge 34, Type (0, 0), None
#     Edge 35, Type (0, 0), None
#     Edge 36, Type (0, 0), None
#     Edge 37, Type (0, 0), None
#     Edge 38, Type (0, 0), None
#     Edge 39, Type (0, 0), None
# Relax obj value: 0.003
# Max RMSD: 0.010
# Mean RMSD: 0.010
data_MOF--net-utj--node1-WUSLED_clean_sbu_0--edge1-none
_symmetry_space_group_name_H-M    P1
_symmetry_Int_Tables_number       1
_symmetry_cell_setting            triclinic
loop_
_symmetry_equiv_pos_as_xyz
'x, y, z'
_cell_length_a     48.704855
_cell_length_b     48.70533
_cell_length_c     41.106984
_cell_angle_alpha  89.999702
_cell_angle_beta   89.999922
_cell_angle_gamma 90.001561
loop_
_atom_site_label
_atom_site_type_symbol
_atom_site_fract_x
_atom_site_fract_y
_atom_site_fract_z
_atom_type_partial_charge
C0 C 0.0497 0.46266 0.051 0.0
C1 C 0.04295 0.48132 0.07576 0.0
C2 C 0.0326 0.51655 0.03539 0.0
C3 C 0.03439 0.50796 0.06804 0.0
C4 C 0.03963 0.49775 1.01071 0.0
C5 C 0.04805 0.47106 1.01847 0.0
U6 U 0.07954 0.41144 0.11098 0.0
O7 O 0.06783 0.3687 0.12162 0.0
O8 O 0.10937 0.378 0.10422 0.0
C9 C 0.09137 0.35879 0.11129 0.0
C10 C 0.05866 0.43455 0.05887 0.0
C11 C 0.0895 0.3361 0.08769 0.0
C12 C 0.07944 0.31903 0.03337 0.0
C13 C 0.08038 0.34069 0.05577 0.0
C14 C 0.09641 0.2879 0.07469 0.0
C15 C 0.0876 0.29235 0.04249 0.0
C16 C 0.09736 0.30957 0.09702 0.0
C17 C 0.09842 0.44183 0.19594 0.0
C18 C 0.09903 0.42199 0.25026 0.0
C19 C 0.11967 0.4665 0.24078 0.0
C20 C 0.11276 0.46467 0.20786 0.0
C21 C 0.11233 0.4455 0.2626 0.0
C22 C 0.09213 0.42016 0.21721 0.0
C23 C 0.08821 0.44262 0.16215 0.0
O24 O 0.08519 0.43146 0.06337 0.0
O25 O 0.04376 0.42168 0.08075 0.0
O26 O 0.06473 0.43022 0.15629 0.0
O27 O 0.10646 0.43919 0.13896 0.0
H28 H 0.0442 0.47525 0.10108 0.0
H29 H 1.02883 0.52168 0.08768 0.0
H30 H 0.03897 0.50373 0.98535 0.0
H31 H 0.05338 0.457 0.99905 0.0
H32 H 0.07221 0.32315 1.00894 0.0
H33 H 0.07413 0.36105 0.04816 0.0
H34 H 0.10318 0.26777 0.08248 0.0
H35 H 0.10451 0.30566 0.12155 0.0
H36 H 0.0934 0.40526 0.26628 0.0
H37 H 0.12955 0.48505 0.24937 0.0
H38 H 0.11769 0.48167 0.19189 0.0
H39 H 0.08117 0.40225 0.20854 0.0
C40 C 0.0991 0.04969 0.551 0.0
C41 C 0.08044 0.04295 0.57576 0.0
C42 C 0.04521 0.0326 0.53539 0.0
C43 C 0.0538 0.03438 0.56804 0.0
C44 C 0.06401 0.03963 0.51071 0.0
C45 C 0.0907 0.04805 0.51847 0.0
U46 U 0.15032 0.07954 0.61098 0.0
O47 O 0.19306 0.06783 0.62162 0.0
O48 O 0.18376 0.10937 0.60422 0.0
C49 C 0.20298 0.09137 0.6113 0.0
C50 C 0.12721 0.05865 0.55887 0.0
C51 C 0.22566 0.0895 0.58769 0.0
C52 C 0.24274 0.07944 0.53337 0.0
C53 C 0.22107 0.08037 0.55578 0.0
C54 C 0.27387 0.09641 0.57469 0.0
C55 C 0.26941 0.0876 0.54249 0.0
C56 C 0.25219 0.09736 0.59702 0.0
C57 C 0.11993 0.09842 0.69594 0.0
C58 C 0.13977 0.09903 0.75026 0.0
C59 C 0.09526 0.11967 0.74078 0.0
C60 C 0.09709 0.11275 0.70786 0.0
C61 C 0.11626 0.11233 0.7626 0.0
C62 C 0.1416 0.09213 0.71721 0.0
C63 C 0.11913 0.0882 0.66215 0.0
O64 O 0.1303 0.08518 0.56337 0.0
O65 O 0.14008 0.04375 0.58075 0.0
O66 O 0.13154 0.06473 0.65629 0.0
O67 O 0.12257 0.10646 0.63896 0.0
H68 H 0.08651 0.04419 0.60108 0.0
H69 H 0.04007 1.02882 0.58768 0.0
H70 H 0.05803 0.03896 0.48535 0.0
H71 H 0.10476 0.05337 0.49905 0.0
H72 H 0.23861 0.07221 0.50895 0.0
H73 H 0.20071 0.07412 0.54817 0.0
H74 H 0.294 0.10318 0.58248 0.0
H75 H 0.2561 0.10452 0.62155 0.0
H76 H 0.15649 0.0934 0.76629 0.0
H77 H 0.07671 0.12955 0.74937 0.0
H78 H 0.08009 0.11768 0.69189 0.0
H79 H 0.15951 0.08117 0.70855 0.0
C80 C 0.51206 0.09909 0.051 0.0
C81 C 0.5188 0.08043 0.07576 0.0
C82 C 0.52916 0.0452 0.03539 0.0
C83 C 0.52736 0.05379 0.06804 0.0
C84 C 0.52214 0.06401 1.01071 0.0
C85 C 0.51372 0.09069 1.01847 0.0
U86 U 0.48222 0.15031 0.11098 0.0
O87 O 0.49393 0.19305 0.12162 0.0
O88 O 0.45239 0.18375 0.10422 0.0
C89 C 0.47039 0.20297 0.11129 0.0
C90 C 0.50311 0.1272 0.05887 0.0
C91 C 0.47226 0.22565 0.08769 0.0
C92 C 0.48232 0.24273 0.03337 0.0
C93 C 0.48139 0.22106 0.05577 0.0
C94 C 0.46535 0.27385 0.07469 0.0
C95 C 0.47416 0.2694 0.04249 0.0
C96 C 0.4644 0.25218 0.09702 0.0
C97 C 0.46334 0.11992 0.19593 0.0
C98 C 0.46273 0.13976 0.25026 0.0
C99 C 0.44209 0.09525 0.24078 0.0
C100 C 0.44901 0.09708 0.20786 0.0
C101 C 0.44943 0.11626 0.2626 0.0
C102 C 0.46963 0.14159 0.21721 0.0
C103 C 0.47355 0.11913 0.16215 0.0
O104 O 0.47657 0.13029 0.06337 0.0
O105 O 0.518 0.14007 0.08075 0.0
O106 O 0.49703 0.13153 0.15629 0.0
O107 O 0.4553 0.12256 0.13896 0.0
H108 H 0.51755 0.0865 0.10108 0.0
H109 H 0.53291 0.04006 0.08768 0.0
H110 H 0.52281 0.05803 0.98535 0.0
H111 H 0.5084 0.10476 0.99905 0.0
H112 H 0.48956 0.2386 1.00895 0.0
H113 H 0.48764 0.2007 0.04816 0.0
H114 H 0.45857 0.29398 0.08248 0.0
H115 H 0.45724 0.25609 0.12154 0.0
H116 H 0.46836 0.15649 0.26628 0.0
H117 H 0.43221 0.0767 0.24937 0.0
H118 H 0.44408 0.08008 0.19189 0.0
H119 H 0.48059 0.1595 0.20854 0.0
C120 C 0.46266 0.51206 0.551 0.0
C121 C 0.48133 0.5188 0.57576 0.0
C122 C 0.51655 0.52915 0.53539 0.0
C123 C 0.50796 0.52737 0.56804 0.0
C124 C 0.49775 0.52213 0.51071 0.0
C125 C 0.47107 0.5137 0.51847 0.0
U126 U 0.41144 0.48221 0.61098 0.0
O127 O 0.3687 0.49392 0.62162 0.0
O128 O 0.378 0.45238 0.60422 0.0
C129 C 0.35879 0.47038 0.6113 0.0
C130 C 0.43455 0.5031 0.55887 0.0
C131 C 0.3361 0.47225 0.58769 0.0
C132 C 0.31902 0.48233 0.53338 0.0
C133 C 0.34069 0.4814 0.55578 0.0
C134 C 0.2879 0.46532 0.57468 0.0
C135 C 0.29235 0.47416 0.54249 0.0
C136 C 0.30958 0.46437 0.59702 0.0
C137 C 0.44184 0.46333 0.69594 0.0
C138 C 0.42199 0.46272 0.75026 0.0
C139 C 0.46651 0.44208 0.74078 0.0
C140 C 0.46467 0.449 0.70786 0.0
C141 C 0.4455 0.44942 0.7626 0.0
C142 C 0.42017 0.46962 0.71721 0.0
C143 C 0.44263 0.47355 0.66215 0.0
O144 O 0.43146 0.47657 0.56337 0.0
O145 O 0.42169 0.518 0.58075 0.0
O146 O 0.43023 0.49702 0.65629 0.0
O147 O 0.43919 0.45529 0.63896 0.0
H148 H 0.47526 0.51756 0.60108 0.0
H149 H 0.52169 0.53293 0.58768 0.0
H150 H 0.50373 0.52279 0.48535 0.0
H151 H 0.457 0.50838 0.49905 0.0
H152 H 0.32314 0.48959 0.50896 0.0
H153 H 0.36105 0.48767 0.54818 0.0
H154 H 0.26778 0.45853 0.58247 0.0
H155 H 0.30567 0.45719 0.62153 0.0
H156 H 0.40527 0.46835 0.76628 0.0
H157 H 0.48506 0.4322 0.74937 0.0
H158 H 0.48168 0.44407 0.69189 0.0
H159 H 0.40225 0.48058 0.70854 0.0
C160 C 0.04969 0.09909 1.00989 0.0
C161 C 0.04294 0.08043 0.98513 0.0
C162 C 0.0326 0.04521 1.0255 0.0
C163 C 0.03438 0.0538 0.99285 0.0
C164 C 0.03964 0.064 0.05018 0.0
C165 C 0.04806 0.09069 0.04242 0.0
U166 U 0.07954 0.15031 0.94991 0.0
O167 O 0.06783 0.19306 0.93927 0.0
O168 O 0.10937 0.18376 0.95667 0.0
C169 C 0.09138 0.20297 0.94959 0.0
C170 C 0.05865 0.1272 1.00202 0.0
C171 C 0.0895 0.22566 0.9732 0.0
C172 C 0.07944 0.24273 1.02752 0.0
C173 C 0.08037 0.22107 1.00511 0.0
C174 C 0.09642 0.27386 0.9862 0.0
C175 C 0.0876 0.26941 1.0184 0.0
C176 C 0.09736 0.25218 0.96387 0.0
C177 C 0.09842 0.11993 0.86495 0.0
C178 C 0.09903 0.13977 0.81063 0.0
C179 C 0.11967 0.09525 0.82011 0.0
C180 C 0.11275 0.09709 0.85303 0.0
C181 C 0.11233 0.11626 0.79829 0.0
C182 C 0.09213 0.14159 0.84368 0.0
C183 C 0.08821 0.11913 0.89874 0.0
O184 O 0.08519 0.1303 0.99752 0.0
O185 O 0.04376 0.14007 0.98014 0.0
O186 O 0.06473 0.13153 0.9046 0.0
O187 O 0.10646 0.12257 0.92193 0.0
H188 H 0.04418 0.08651 0.95981 0.0
H189 H 1.02881 0.04007 0.97321 0.0
H190 H 0.03898 0.05802 0.07554 0.0
H191 H 0.05339 0.10475 0.06184 0.0
H192 H 0.0722 0.23861 0.05194 0.0
H193 H 0.07411 0.2007 1.01272 0.0
H194 H 0.10319 0.29399 0.97841 0.0
H195 H 0.10453 0.25609 0.93935 0.0
H196 H 0.0934 0.15649 0.79461 0.0
H197 H 0.12955 0.0767 0.81152 0.0
H198 H 0.11768 0.08008 0.869 0.0
H199 H 0.08117 0.15951 0.85235 0.0
C200 C 0.46267 0.04969 0.50989 0.0
C201 C 0.48133 0.04295 0.48513 0.0
C202 C 0.51655 0.0326 0.5255 0.0
C203 C 0.50796 0.03439 0.49285 0.0
C204 C 0.49775 0.03962 0.55018 0.0
C205 C 0.47107 0.04805 0.54242 0.0
U206 U 0.41145 0.07954 0.44991 0.0
O207 O 0.3687 0.06782 0.43927 0.0
O208 O 0.37801 0.10936 0.45666 0.0
C209 C 0.35879 0.09137 0.4496 0.0
C210 C 0.43456 0.05865 0.50202 0.0
C211 C 0.33611 0.08949 0.4732 0.0
C212 C 0.31903 0.07944 0.52752 0.0
C213 C 0.3407 0.08037 0.50512 0.0
C214 C 0.2879 0.09641 0.4862 0.0
C215 C 0.29235 0.0876 0.5184 0.0
C216 C 0.30958 0.09736 0.46387 0.0
C217 C 0.44184 0.09841 0.36495 0.0
C218 C 0.42199 0.09903 0.31063 0.0
C219 C 0.46651 0.11966 0.3201 0.0
C220 C 0.46467 0.11275 0.35303 0.0
C221 C 0.4455 0.11232 0.29829 0.0
C222 C 0.42017 0.09212 0.34368 0.0
C223 C 0.44263 0.0882 0.39874 0.0
O224 O 0.43147 0.08518 0.49752 0.0
O225 O 0.42169 0.04375 0.48014 0.0
O226 O 0.43023 0.06473 0.4046 0.0
O227 O 0.4392 0.10646 0.42193 0.0
H228 H 0.47526 0.04419 0.45981 0.0
H229 H 0.52169 1.02882 0.47321 0.0
H230 H 0.50374 0.03896 0.57554 0.0
H231 H 0.457 0.05337 0.56184 0.0
H232 H 0.32316 0.0722 0.55194 0.0
H233 H 0.36106 0.07411 0.51273 0.0
H234 H 0.26777 0.10319 0.47841 0.0
H235 H 0.30567 0.10452 0.43934 0.0
H236 H 0.40527 0.0934 0.29461 0.0
H237 H 0.48506 0.12954 0.31151 0.0
H238 H 0.48168 0.11768 0.369 0.0
H239 H 0.40225 0.08117 0.35235 0.0
C240 C 0.51207 0.46266 1.00989 0.0
C241 C 0.51881 0.48132 0.98513 0.0
C242 C 0.52916 0.51655 1.0255 0.0
C243 C 0.52737 0.50796 0.99285 0.0
C244 C 0.52213 0.49775 0.05018 0.0
C245 C 0.51371 0.47106 0.04242 0.0
U246 U 0.48222 0.41144 0.94991 0.0
O247 O 0.49393 0.3687 0.93927 0.0
O248 O 0.45239 0.378 0.95667 0.0
C249 C 0.47039 0.35878 0.9496 0.0
C250 C 0.50311 0.43455 1.00202 0.0
C251 C 0.47226 0.3361 0.9732 0.0
C252 C 0.48232 0.31902 1.02752 0.0
C253 C 0.48139 0.34069 1.00512 0.0
C254 C 0.46535 0.28789 0.9862 0.0
C255 C 0.47416 0.29235 1.0184 0.0
C256 C 0.4644 0.30957 0.96387 0.0
C257 C 0.46334 0.44183 0.86495 0.0
C258 C 0.46273 0.42198 0.81063 0.0
C259 C 0.44209 0.4665 0.82011 0.0
C260 C 0.44901 0.46467 0.85303 0.0
C261 C 0.44944 0.44549 0.79829 0.0
C262 C 0.46963 0.42016 0.84368 0.0
C263 C 0.47356 0.44262 0.89874 0.0
O264 O 0.47657 0.43146 0.99752 0.0
O265 O 0.518 0.42168 0.98014 0.0
O266 O 0.49703 0.43022 0.9046 0.0
O267 O 0.4553 0.43919 0.92193 0.0
H268 H 0.51757 0.47525 0.95981 0.0
H269 H 0.53293 0.52168 0.97321 0.0
H270 H 0.52279 0.50373 0.07554 0.0
H271 H 0.50838 0.457 0.06184 0.0
H272 H 0.48955 0.32315 0.05194 0.0
H273 H 0.48764 0.36105 1.01273 0.0
H274 H 0.45858 0.26776 0.97841 0.0
H275 H 0.45724 0.30566 0.93934 0.0
H276 H 0.46836 0.40526 0.79461 0.0
H277 H 0.43221 0.48505 0.81152 0.0
H278 H 0.44408 0.48167 0.869 0.0
H279 H 0.48059 0.40224 0.85235 0.0
C280 C 0.0991 0.51206 0.50989 0.0
C281 C 0.08043 0.51881 0.48513 0.0
C282 C 0.04521 0.52915 0.5255 0.0
C283 C 0.0538 0.52737 0.49285 0.0
C284 C 0.06401 0.52213 0.55018 0.0
C285 C 0.09069 0.5137 0.54242 0.0
U286 U 0.15032 0.48221 0.44991 0.0
O287 O 0.19306 0.49393 0.43927 0.0
O288 O 0.18376 0.45239 0.45667 0.0
C289 C 0.20297 0.47038 0.4496 0.0
C290 C 0.12721 0.5031 0.50202 0.0
C291 C 0.22566 0.47226 0.4732 0.0
C292 C 0.24273 0.48229 0.52753 0.0
C293 C 0.22106 0.48136 0.50513 0.0
C294 C 0.27387 0.46536 0.4862 0.0
C295 C 0.26941 0.47416 0.5184 0.0
C296 C 0.25219 0.46442 0.46386 0.0
C297 C 0.11993 0.46334 0.36495 0.0
C298 C 0.13977 0.46273 0.31063 0.0
C299 C 0.09525 0.44209 0.32011 0.0
C300 C 0.09709 0.44901 0.35303 0.0
C301 C 0.11626 0.44943 0.29829 0.0
C302 C 0.1416 0.46963 0.34368 0.0
C303 C 0.11913 0.47355 0.39874 0.0
O304 O 0.1303 0.47657 0.49752 0.0
O305 O 0.14008 0.518 0.48014 0.0
O306 O 0.13153 0.49702 0.4046 0.0
O307 O 0.12257 0.4553 0.42193 0.0
H308 H 0.08651 0.51756 0.45981 0.0
H309 H 0.04007 0.53293 0.47321 0.0
H310 H 0.05803 0.52279 0.57554 0.0
H311 H 0.10476 0.50838 0.56184 0.0
H312 H 0.2386 0.48951 0.55196 0.0
H313 H 0.2007 0.4876 0.51274 0.0
H314 H 0.294 0.45861 0.4784 0.0
H315 H 0.2561 0.45728 0.43933 0.0
H316 H 0.1565 0.46835 0.29461 0.0
H317 H 0.0767 0.43221 0.31151 0.0
H318 H 0.08008 0.44408 0.369 0.0
H319 H 0.15951 0.48059 0.35235 0.0
C320 C 1.0062 0.59878 1.01157 0.0
C321 C 0.99812 0.57649 0.99216 0.0
C322 C 1.02348 0.54496 1.02715 0.0
C323 C 1.00659 0.54984 0.99993 0.0
C324 C 0.03158 0.56748 0.0464 0.0
C325 C 1.02299 0.59411 0.03867 0.0
U326 U 0.97762 0.65 0.95076 0.0
O327 O 0.94809 0.6838 0.95672 0.0
O328 O 0.98998 0.69256 0.94013 0.0
C329 C 0.9664 0.70278 0.9499 0.0
C330 C 0.99772 0.62694 1.00334 0.0
C331 C 0.96818 0.72552 0.97342 0.0
C332 C 0.97809 0.74274 1.02769 0.0
C333 C 0.97725 0.72102 1.00537 0.0
C334 C 0.96109 0.77372 0.98624 0.0
C335 C 0.96989 0.76937 1.01845 0.0
C336 C 0.96024 0.752 0.96398 0.0
C337 C 0.95975 0.62024 0.86546 0.0
C338 C 0.96006 0.64116 0.81171 0.0
C339 C 0.93949 0.59636 0.81939 0.0
C340 C 0.94578 0.59757 0.85253 0.0
C341 C 0.94714 0.61784 0.79838 0.0
C342 C 0.9663 0.64237 0.84497 0.0
C343 C 0.96935 0.61889 0.89945 0.0
O344 O 1.01305 0.63929 0.98149 0.0
O345 O 0.97128 0.63046 0.99842 0.0
O346 O 0.95078 0.62254 0.92225 0.0
O347 O 0.99292 0.63088 0.90592 0.0
H348 H 0.98524 0.57973 0.97101 0.0
H349 H 0.99964 0.53303 0.98479 0.0
H350 H 0.04492 0.56461 0.0672 0.0
H351 H 1.02961 0.61111 0.05376 0.0
H352 H 0.98531 0.73869 0.05215 0.0
H353 H 0.98353 0.70069 1.01306 0.0
H354 H 0.95428 0.79382 0.97837 0.0
H355 H 0.9531 0.75582 0.93943 0.0
H356 H 0.96591 0.65822 0.7963 0.0
H357 H 0.92987 0.57795 0.81001 0.0
H358 H 0.94065 0.58023 0.8679 0.0
H359 H 0.97697 0.66017 0.85443 0.0
C360 C 0.96298 1.00619 0.51156 0.0
C361 C 0.98526 0.99812 0.49216 0.0
C362 C 1.0168 1.02347 0.52714 0.0
C363 C 1.01192 1.00659 0.49993 0.0
C364 C 0.99428 0.03158 0.54639 0.0
C365 C 0.96765 1.02298 0.53867 0.0
U366 U 0.91176 0.97761 0.45076 0.0
O367 O 0.87795 0.94809 0.45672 0.0
O368 O 0.8692 0.98998 0.44012 0.0
C369 C 0.85898 0.9664 0.4499 0.0
C370 C 0.93482 0.99771 0.50334 0.0
C371 C 0.83623 0.96817 0.47341 0.0
C372 C 0.81902 0.97809 0.52769 0.0
C373 C 0.84074 0.97725 0.50536 0.0
C374 C 0.78803 0.96108 0.48624 0.0
C375 C 0.79239 0.96989 0.51845 0.0
C376 C 0.80976 0.96023 0.46398 0.0
C377 C 0.94152 0.95974 0.36545 0.0
C378 C 0.92059 0.96005 0.31171 0.0
C379 C 0.9654 0.93949 0.31939 0.0
C380 C 0.96419 0.94577 0.35253 0.0
C381 C 0.94392 0.94713 0.29838 0.0
C382 C 0.91939 0.96629 0.34497 0.0
C383 C 0.94287 0.96934 0.39945 0.0
O384 O 0.92247 1.01305 0.48149 0.0
O385 O 0.93129 0.97127 0.49841 0.0
O386 O 0.93922 0.95077 0.42225 0.0
O387 O 0.93088 0.99291 0.40592 0.0
H388 H 0.98203 0.98523 0.47101 0.0
H389 H 1.02873 0.99963 0.48479 0.0
H390 H 0.99715 0.04491 0.5672 0.0
H391 H 0.95065 1.0296 0.55376 0.0
H392 H 0.82306 0.98531 0.55214 0.0
H393 H 0.86107 0.98353 0.51306 0.0
H394 H 0.76794 0.95426 0.47837 0.0
H395 H 0.80593 0.95308 0.43943 0.0
H396 H 0.90354 0.9659 0.2963 0.0
H397 H 0.98381 0.92987 0.31 0.0
H398 H 0.98153 0.94064 0.3679 0.0
H399 H 0.90159 0.97696 0.35443 0.0
C400 C 0.55556 0.96298 1.01156 0.0
C401 C 0.56365 0.98526 0.99216 0.0
C402 C 0.53828 1.0168 1.02714 0.0
C403 C 0.55518 1.01192 0.99993 0.0
C404 C 0.53017 0.99427 0.04639 0.0
C405 C 0.53876 0.96764 0.03866 0.0
U406 U 0.58414 0.91175 0.95076 0.0
O407 O 0.61367 0.87795 0.95672 0.0
O408 O 0.57178 0.86919 0.94013 0.0
C409 C 0.59536 0.85897 0.9499 0.0
C410 C 0.56404 0.93481 1.00334 0.0
C411 C 0.59358 0.83623 0.97342 0.0
C412 C 0.58367 0.81901 1.0277 0.0
C413 C 0.58452 0.84073 1.00537 0.0
C414 C 0.60066 0.78803 0.98623 0.0
C415 C 0.59187 0.79238 1.01846 0.0
C416 C 0.60151 0.80975 0.96397 0.0
C417 C 0.60202 0.94151 0.86545 0.0
C418 C 0.60171 0.92059 0.81171 0.0
C419 C 0.62227 0.96539 0.81939 0.0
C420 C 0.61599 0.96418 0.85253 0.0
C421 C 0.61462 0.94391 0.79838 0.0
C422 C 0.59547 0.91938 0.84497 0.0
C423 C 0.59241 0.94286 0.89945 0.0
O424 O 0.54871 0.92246 0.98149 0.0
O425 O 0.59048 0.93129 0.99841 0.0
O426 O 0.61098 0.93922 0.92225 0.0
O427 O 0.56884 0.93088 0.90592 0.0
H428 H 0.57654 0.98203 0.97102 0.0
H429 H 0.56214 1.02873 0.9848 0.0
H430 H 0.51683 0.99714 0.06718 0.0
H431 H 0.53214 0.95064 0.05375 0.0
H432 H 0.57646 0.82306 0.05215 0.0
H433 H 0.57824 0.86106 1.01307 0.0
H434 H 0.60747 0.76793 0.97836 0.0
H435 H 0.60865 0.80593 0.93942 0.0
H436 H 0.59586 0.90353 0.7963 0.0
H437 H 0.63189 0.9838 0.81001 0.0
H438 H 0.62111 0.98153 0.8679 0.0
H439 H 0.58479 0.90158 0.85443 0.0
C440 C 0.59878 0.55556 0.51157 0.0
C441 C 0.5765 0.56364 0.49216 0.0
C442 C 0.54496 0.53828 0.52714 0.0
C443 C 0.54984 0.55516 0.49993 0.0
C444 C 0.56748 0.53018 0.54639 0.0
C445 C 0.59411 0.53877 0.53867 0.0
U446 U 0.65001 0.58414 0.45076 0.0
O447 O 0.68381 0.61367 0.45672 0.0
O448 O 0.69256 0.57177 0.44012 0.0
C449 C 0.70279 0.59536 0.4499 0.0
C450 C 0.62695 0.56404 0.50334 0.0
C451 C 0.72553 0.59358 0.47341 0.0
C452 C 0.74275 0.58367 0.52769 0.0
C453 C 0.72103 0.58451 0.50537 0.0
C454 C 0.77373 0.60066 0.48623 0.0
C455 C 0.76938 0.59186 0.51845 0.0
C456 C 0.752 0.60152 0.46397 0.0
C457 C 0.62024 0.60201 0.36545 0.0
C458 C 0.64117 0.6017 0.31171 0.0
C459 C 0.59637 0.62227 0.31939 0.0
C460 C 0.59757 0.61598 0.35253 0.0
C461 C 0.61785 0.61462 0.29838 0.0
C462 C 0.64237 0.59546 0.34497 0.0
C463 C 0.6189 0.59241 0.39945 0.0
O464 O 0.6393 0.5487 0.48149 0.0
O465 O 0.63047 0.59048 0.49841 0.0
O466 O 0.62254 0.61098 0.42225 0.0
O467 O 0.63088 0.56884 0.40592 0.0
H468 H 0.57973 0.57652 0.47101 0.0
H469 H 0.53303 0.56212 0.48479 0.0
H470 H 0.56462 0.51684 0.5672 0.0
H471 H 0.61111 0.53215 0.55376 0.0
H472 H 0.7387 0.57645 0.55214 0.0
H473 H 0.7007 0.57823 0.51306 0.0
H474 H 0.79383 0.60748 0.47836 0.0
H475 H 0.75583 0.60866 0.43942 0.0
H476 H 0.65823 0.59585 0.2963 0.0
H477 H 0.57796 0.63189 0.31001 0.0
H478 H 0.58023 0.62111 0.3679 0.0
H479 H 0.66018 0.58479 0.35443 0.0
C480 C 1.0062 0.96298 0.04932 0.0
C481 C 0.99813 0.98526 0.06874 0.0
C482 C 1.02348 1.0168 0.03374 0.0
C483 C 1.0066 1.01192 0.06097 0.0
C484 C 0.03157 0.99428 1.01449 0.0
C485 C 1.02298 0.96764 1.02221 0.0
U486 U 0.97762 0.91175 0.11013 0.0
O487 O 0.94809 0.87795 0.10417 0.0
O488 O 0.98998 0.86919 0.12077 0.0
C489 C 0.9664 0.85897 0.11099 0.0
C490 C 0.99772 0.93481 0.05755 0.0
C491 C 0.96818 0.83623 0.08748 0.0
C492 C 0.97809 0.81901 0.0332 0.0
C493 C 0.97724 0.84073 0.05552 0.0
C494 C 0.9611 0.78803 0.07466 0.0
C495 C 0.96989 0.79238 0.04244 0.0
C496 C 0.96024 0.80975 0.09692 0.0
C497 C 0.95975 0.94151 0.19544 0.0
C498 C 0.96005 0.92059 0.24918 0.0
C499 C 0.9395 0.96539 0.2415 0.0
C500 C 0.94578 0.96418 0.20836 0.0
C501 C 0.94714 0.94391 0.26251 0.0
C502 C 0.96629 0.91938 0.21592 0.0
C503 C 0.96935 0.94286 0.16144 0.0
O504 O 1.01305 0.92246 0.0794 0.0
O505 O 0.97128 0.93129 0.06248 0.0
O506 O 0.95078 0.93921 0.13864 0.0
O507 O 0.99292 0.93088 0.15497 0.0
H508 H 0.98525 0.98202 0.08989 0.0
H509 H 0.99965 1.02872 0.07611 0.0
H510 H 0.0449 0.99714 0.99368 0.0
H511 H 1.02959 0.95065 1.00711 0.0
H512 H 0.9853 0.82306 1.00874 0.0
H513 H 0.98352 0.86106 0.04783 0.0
H514 H 0.95429 0.76793 0.08253 0.0
H515 H 0.95311 0.80592 0.12147 0.0
H516 H 0.9659 0.90353 0.26459 0.0
H517 H 0.92988 0.9838 0.25089 0.0
H518 H 0.94065 0.98153 0.19299 0.0
H519 H 0.97697 0.90158 0.20646 0.0
C520 C 0.59878 1.00619 0.54933 0.0
C521 C 0.5765 0.99812 0.56873 0.0
C522 C 0.54496 1.02347 0.53375 0.0
C523 C 0.54984 1.00659 0.56096 0.0
C524 C 0.56748 0.03158 0.5145 0.0
C525 C 0.59412 1.02298 0.52222 0.0
U526 U 0.65001 0.97761 0.61013 0.0
O527 O 0.68381 0.94809 0.60417 0.0
O528 O 0.69256 0.98998 0.62077 0.0
C529 C 0.70279 0.9664 0.61099 0.0
C530 C 0.62695 0.99772 0.55755 0.0
C531 C 0.72553 0.96817 0.58748 0.0
C532 C 0.74274 0.97808 0.53319 0.0
C533 C 0.72103 0.97723 0.55552 0.0
C534 C 0.77373 0.9611 0.57466 0.0
C535 C 0.76938 0.96989 0.54244 0.0
C536 C 0.75201 0.96024 0.59692 0.0
C537 C 0.62024 0.95974 0.69544 0.0
C538 C 0.64117 0.96005 0.74918 0.0
C539 C 0.59637 0.93949 0.7415 0.0
C540 C 0.59757 0.94577 0.70836 0.0
C541 C 0.61785 0.94713 0.76251 0.0
C542 C 0.64238 0.96629 0.71592 0.0
C543 C 0.6189 0.96934 0.66144 0.0
O544 O 0.6393 1.01305 0.5794 0.0
O545 O 0.63047 0.97127 0.56248 0.0
O546 O 0.62254 0.95077 0.63865 0.0
O547 O 0.63088 0.99291 0.65497 0.0
H548 H 0.57973 0.98523 0.58988 0.0
H549 H 0.53303 0.99963 0.5761 0.0
H550 H 0.56462 0.04491 0.49369 0.0
H551 H 0.61111 1.0296 0.50713 0.0
H552 H 0.73869 0.98528 0.50874 0.0
H553 H 0.70069 0.98351 0.54782 0.0
H554 H 0.79383 0.95429 0.58253 0.0
H555 H 0.75583 0.95311 0.62147 0.0
H556 H 0.65823 0.9659 0.76459 0.0
H557 H 0.57795 0.92987 0.75089 0.0
H558 H 0.58023 0.94065 0.69299 0.0
H559 H 0.66018 0.97696 0.70646 0.0
C560 C 0.55556 0.59878 0.04933 0.0
C561 C 0.56364 0.57649 0.06873 0.0
C562 C 0.53828 0.54495 0.03375 0.0
C563 C 0.55517 0.54984 0.06096 0.0
C564 C 0.53018 0.56748 1.0145 0.0
C565 C 0.53877 0.59411 1.02222 0.0
U566 U 0.58414 0.65 0.11013 0.0
O567 O 0.61367 0.68381 0.10417 0.0
O568 O 0.57178 0.69256 0.12077 0.0
C569 C 0.59536 0.70278 0.11099 0.0
C570 C 0.56404 0.62694 0.05755 0.0
C571 C 0.59358 0.72552 0.08748 0.0
C572 C 0.58367 0.74274 0.0332 0.0
C573 C 0.58451 0.72102 0.05552 0.0
C574 C 0.60067 0.77373 0.07466 0.0
C575 C 0.59187 0.76937 0.04244 0.0
C576 C 0.60152 0.752 0.09692 0.0
C577 C 0.60202 0.62024 0.19544 0.0
C578 C 0.60171 0.64117 0.24918 0.0
C579 C 0.62227 0.59636 0.2415 0.0
C580 C 0.61598 0.59757 0.20836 0.0
C581 C 0.61462 0.61784 0.26251 0.0
C582 C 0.59547 0.64237 0.21592 0.0
C583 C 0.59242 0.61889 0.16144 0.0
O584 O 0.54871 0.63929 0.0794 0.0
O585 O 0.59048 0.63047 0.06248 0.0
O586 O 0.61098 0.62254 0.13864 0.0
O587 O 0.56884 0.63087 0.15497 0.0
H588 H 0.57652 0.57973 0.08988 0.0
H589 H 0.56212 0.53303 0.0761 0.0
H590 H 0.51685 0.56461 0.99369 0.0
H591 H 0.53216 0.6111 1.00713 0.0
H592 H 0.57645 0.73869 1.00875 0.0
H593 H 0.57823 0.70069 0.04783 0.0
H594 H 0.60748 0.79382 0.08253 0.0
H595 H 0.60866 0.75583 0.12147 0.0
H596 H 0.59586 0.65822 0.26459 0.0
H597 H 0.63189 0.57795 0.25089 0.0
H598 H 0.62111 0.58023 0.19299 0.0
H599 H 0.58479 0.66017 0.20646 0.0
C600 C 0.96298 0.55556 0.54933 0.0
C601 C 0.98526 0.56364 0.56873 0.0
C602 C 1.0168 0.53828 0.53375 0.0
C603 C 1.01192 0.55516 0.56096 0.0
C604 C 0.99428 0.53018 0.5145 0.0
C605 C 0.96765 0.53877 0.52222 0.0
U606 U 0.91176 0.58414 0.61014 0.0
O607 O 0.87795 0.61367 0.60417 0.0
O608 O 0.8692 0.57177 0.62077 0.0
C609 C 0.85898 0.59536 0.61099 0.0
C610 C 0.93482 0.56404 0.55755 0.0
C611 C 0.83624 0.59358 0.58748 0.0
C612 C 0.81902 0.58367 0.5332 0.0
C613 C 0.84074 0.58452 0.55552 0.0
C614 C 0.78803 0.60066 0.57466 0.0
C615 C 0.79239 0.59186 0.54244 0.0
C616 C 0.80976 0.60151 0.59692 0.0
C617 C 0.94152 0.60201 0.69544 0.0
C618 C 0.92059 0.6017 0.74918 0.0
C619 C 0.9654 0.62226 0.7415 0.0
C620 C 0.96419 0.61598 0.70836 0.0
C621 C 0.94392 0.61462 0.76251 0.0
C622 C 0.91939 0.59546 0.71592 0.0
C623 C 0.94287 0.59241 0.66144 0.0
O624 O 0.92247 0.5487 0.5794 0.0
O625 O 0.93129 0.59048 0.56248 0.0
O626 O 0.93922 0.61098 0.63865 0.0
O627 O 0.93088 0.56884 0.65497 0.0
H628 H 0.98203 0.57652 0.58988 0.0
H629 H 1.02873 0.56212 0.5761 0.0
H630 H 0.99714 0.51684 0.49369 0.0
H631 H 0.95065 0.53215 0.50713 0.0
H632 H 0.82307 0.57646 0.50874 0.0
H633 H 0.86107 0.57824 0.54783 0.0
H634 H 0.76794 0.60747 0.58253 0.0
H635 H 0.80593 0.60865 0.62147 0.0
H636 H 0.90353 0.59586 0.76459 0.0
H637 H 0.98381 0.63188 0.75089 0.0
H638 H 0.98154 0.6211 0.69299 0.0
H639 H 0.90159 0.58479 0.70646 0.0
loop_
_geom_bond_atom_site_label_1
_geom_bond_atom_site_label_2
_geom_bond_distance
_geom_bond_site_symmetry_2
_ccdc_geom_bond_type
C0 C1 1.264 . S
C0 C5 1.479 1_554 S
C0 C10 1.465 . S
C1 C0 1.264 . S
C1 C3 1.339 . S
C1 H28 0.931 . S
C2 C3 1.395 1_556 S
C2 C4 1.320 . S
C3 C1 1.339 . S
C3 C2 1.395 1_554 S
C3 H29 0.929 . S
C4 C2 1.320 . S
C4 C5 1.405 . S
C4 H30 0.930 . S
C5 C0 1.479 1_556 S
C5 C4 1.405 . S
C5 H31 0.931 . S
U6 O7 2.454 . S
U6 O8 2.458 . S
U6 C9 2.984 . S
U6 C10 2.847 . S
U6 C23 2.882 . S
U6 O24 2.441 . S
U6 O25 2.420 . S
U6 O26 2.455 . S
U6 O27 2.449 . S
O7 U6 2.454 . S
O7 C9 1.353 . S
O8 U6 2.458 . S
O8 C9 1.286 . S
C9 U6 2.984 . S
C9 O7 1.353 . S
C9 O8 1.286 . S
C9 C11 1.363 . S
C10 C0 1.465 . S
C10 U6 2.847 . S
C10 O24 1.249 . S
C10 O25 1.202 . S
C11 C9 1.363 . S
C11 C13 1.408 1_554 S
C11 C16 1.342 . S
C12 C13 1.310 . S
C12 C15 1.461 1_556 S
C12 H32 0.932 . S
C13 C11 1.408 1_556 S
C13 C12 1.310 . S
C13 H33 0.930 . S
C14 C15 1.474 . S
C14 C16 1.285 . S
C14 H34 0.929 . S
C15 C12 1.461 1_554 S
C15 C14 1.474 . S
C16 C11 1.342 . S
C16 C14 1.285 . S
C16 H35 0.930 . S
C17 C20 1.424 . S
C17 C22 1.245 . S
C17 C23 1.428 . S
C18 C21 1.260 . S
C18 C22 1.477 . S
C18 H36 0.932 . S
C19 C20 1.384 . S
C19 C21 1.479 . S
C19 H37 0.929 . S
C20 C17 1.424 . S
C20 C19 1.384 . S
C20 H38 0.928 . S
C21 C18 1.260 . S
C21 C19 1.479 . S
C22 C17 1.245 . S
C22 C18 1.477 . S
C22 H39 0.932 . S
C23 U6 2.882 . S
C23 C17 1.428 . S
C23 O26 1.301 . S
C23 O27 1.282 . S
O24 U6 2.441 . S
O24 C10 1.249 . S
O25 U6 2.420 . S
O25 C10 1.202 . S
O26 U6 2.455 . S
O26 C23 1.301 . S
O27 U6 2.449 . S
O27 C23 1.282 . S
H28 C1 0.931 . S
H29 C3 0.929 . S
H30 C4 0.930 . S
H31 C5 0.931 . S
H32 C12 0.932 . S
H33 C13 0.930 . S
H34 C14 0.929 . S
H35 C16 0.930 . S
H36 C18 0.932 . S
H37 C19 0.929 . S
H38 C20 0.928 . S
H39 C22 0.932 . S
C40 C41 1.264 . S
C40 C45 1.479 . S
C40 C50 1.465 . S
C41 C40 1.264 . S
C41 C43 1.339 . S
C41 H68 0.931 . S
C42 C43 1.395 . S
C42 C44 1.320 . S
C43 C41 1.339 . S
C43 C42 1.395 . S
C43 H69 0.929 1_455 S
C44 C42 1.320 . S
C44 C45 1.405 . S
C44 H70 0.930 . S
C45 C40 1.479 . S
C45 C44 1.405 . S
C45 H71 0.931 . S
U46 O47 2.454 . S
U46 O48 2.458 . S
U46 C49 2.984 . S
U46 C50 2.847 . S
U46 C63 2.882 . S
U46 O64 2.441 . S
U46 O65 2.420 . S
U46 O66 2.455 . S
U46 O67 2.449 . S
O47 U46 2.454 . S
O47 C49 1.353 . S
O48 U46 2.458 . S
O48 C49 1.286 . S
C49 U46 2.984 . S
C49 O47 1.353 . S
C49 O48 1.286 . S
C49 C51 1.363 . S
C50 C40 1.465 . S
C50 U46 2.847 . S
C50 O64 1.249 . S
C50 O65 1.202 . S
C51 C49 1.363 . S
C51 C53 1.408 . S
C51 C56 1.342 . S
C52 C53 1.310 . S
C52 C55 1.461 . S
C52 H72 0.932 . S
C53 C51 1.408 . S
C53 C52 1.310 . S
C53 H73 0.930 . S
C54 C55 1.474 . S
C54 C56 1.285 . S
C54 H74 0.929 . S
C55 C52 1.461 . S
C55 C54 1.474 . S
C56 C51 1.342 . S
C56 C54 1.285 . S
C56 H75 0.930 . S
C57 C60 1.424 . S
C57 C62 1.245 . S
C57 C63 1.428 . S
C58 C61 1.260 . S
C58 C62 1.477 . S
C58 H76 0.932 . S
C59 C60 1.384 . S
C59 C61 1.479 . S
C59 H77 0.929 . S
C60 C57 1.424 . S
C60 C59 1.384 . S
C60 H78 0.928 . S
C61 C58 1.260 . S
C61 C59 1.479 . S
C62 C57 1.245 . S
C62 C58 1.477 . S
C62 H79 0.932 . S
C63 U46 2.882 . S
C63 C57 1.428 . S
C63 O66 1.301 . S
C63 O67 1.282 . S
O64 U46 2.441 . S
O64 C50 1.249 . S
O65 U46 2.420 . S
O65 C50 1.202 . S
O66 U46 2.455 . S
O66 C63 1.301 . S
O67 U46 2.449 . S
O67 C63 1.282 . S
H68 C41 0.931 . S
H69 C43 0.929 1_655 S
H70 C44 0.930 . S
H71 C45 0.931 . S
H72 C52 0.932 . S
H73 C53 0.930 . S
H74 C54 0.929 . S
H75 C56 0.930 . S
H76 C58 0.932 . S
H77 C59 0.929 . S
H78 C60 0.928 . S
H79 C62 0.932 . S
C80 C81 1.264 . S
C80 C85 1.479 1_554 S
C80 C90 1.465 . S
C81 C80 1.264 . S
C81 C83 1.339 . S
C81 H108 0.931 . S
C82 C83 1.395 1_556 S
C82 C84 1.320 . S
C83 C81 1.339 . S
C83 C82 1.395 1_554 S
C83 H109 0.929 1_545 S
C84 C82 1.320 . S
C84 C85 1.405 . S
C84 H110 0.930 . S
C85 C80 1.479 1_556 S
C85 C84 1.405 . S
C85 H111 0.931 . S
U86 O87 2.454 . S
U86 O88 2.458 . S
U86 C89 2.984 . S
U86 C90 2.847 . S
U86 C103 2.882 . S
U86 O104 2.441 . S
U86 O105 2.420 . S
U86 O106 2.455 . S
U86 O107 2.449 . S
O87 U86 2.454 . S
O87 C89 1.353 . S
O88 U86 2.458 . S
O88 C89 1.286 . S
C89 U86 2.984 . S
C89 O87 1.353 . S
C89 O88 1.286 . S
C89 C91 1.363 . S
C90 C80 1.465 . S
C90 U86 2.847 . S
C90 O104 1.249 . S
C90 O105 1.202 . S
C91 C89 1.363 . S
C91 C93 1.408 1_554 S
C91 C96 1.342 . S
C92 C93 1.310 . S
C92 C95 1.461 1_556 S
C92 H112 0.932 . S
C93 C91 1.408 1_556 S
C93 C92 1.310 . S
C93 H113 0.930 . S
C94 C95 1.474 . S
C94 C96 1.285 . S
C94 H114 0.929 . S
C95 C92 1.461 1_554 S
C95 C94 1.474 . S
C96 C91 1.342 . S
C96 C94 1.285 . S
C96 H115 0.930 . S
C97 C100 1.424 . S
C97 C102 1.245 . S
C97 C103 1.428 . S
C98 C101 1.260 . S
C98 C102 1.477 . S
C98 H116 0.932 . S
C99 C100 1.384 . S
C99 C101 1.479 . S
C99 H117 0.929 . S
C100 C97 1.424 . S
C100 C99 1.384 . S
C100 H118 0.928 . S
C101 C98 1.260 . S
C101 C99 1.479 . S
C102 C97 1.245 . S
C102 C98 1.477 . S
C102 H119 0.932 . S
C103 U86 2.882 . S
C103 C97 1.428 . S
C103 O106 1.301 . S
C103 O107 1.282 . S
O104 U86 2.441 . S
O104 C90 1.249 . S
O105 U86 2.420 . S
O105 C90 1.202 . S
O106 U86 2.455 . S
O106 C103 1.301 . S
O107 U86 2.449 . S
O107 C103 1.282 . S
H108 C81 0.931 . S
H109 C83 0.929 1_565 S
H110 C84 0.930 . S
H111 C85 0.931 . S
H112 C92 0.932 . S
H113 C93 0.930 . S
H114 C94 0.929 . S
H115 C96 0.930 . S
H116 C98 0.932 . S
H117 C99 0.929 . S
H118 C100 0.928 . S
H119 C102 0.932 . S
C120 C121 1.264 . S
C120 C125 1.479 . S
C120 C130 1.465 . S
C121 C120 1.264 . S
C121 C123 1.339 . S
C121 H148 0.931 . S
C122 C123 1.395 . S
C122 C124 1.320 . S
C123 C121 1.339 . S
C123 C122 1.395 . S
C123 H149 0.929 . S
C124 C122 1.320 . S
C124 C125 1.405 . S
C124 H150 0.930 . S
C125 C120 1.479 . S
C125 C124 1.405 . S
C125 H151 0.931 . S
U126 O127 2.454 . S
U126 O128 2.458 . S
U126 C129 2.984 . S
U126 C130 2.847 . S
U126 C143 2.882 . S
U126 O144 2.441 . S
U126 O145 2.420 . S
U126 O146 2.455 . S
U126 O147 2.449 . S
O127 U126 2.454 . S
O127 C129 1.353 . S
O128 U126 2.458 . S
O128 C129 1.286 . S
C129 U126 2.984 . S
C129 O127 1.353 . S
C129 O128 1.286 . S
C129 C131 1.363 . S
C130 C120 1.465 . S
C130 U126 2.847 . S
C130 O144 1.249 . S
C130 O145 1.202 . S
C131 C129 1.363 . S
C131 C133 1.408 . S
C131 C136 1.342 . S
C132 C133 1.310 . S
C132 C135 1.461 . S
C132 H152 0.932 . S
C133 C131 1.408 . S
C133 C132 1.310 . S
C133 H153 0.930 . S
C134 C135 1.474 . S
C134 C136 1.285 . S
C134 H154 0.929 . S
C135 C132 1.461 . S
C135 C134 1.474 . S
C136 C131 1.342 . S
C136 C134 1.285 . S
C136 H155 0.930 . S
C137 C140 1.424 . S
C137 C142 1.245 . S
C137 C143 1.428 . S
C138 C141 1.260 . S
C138 C142 1.477 . S
C138 H156 0.932 . S
C139 C140 1.384 . S
C139 C141 1.479 . S
C139 H157 0.929 . S
C140 C137 1.424 . S
C140 C139 1.384 . S
C140 H158 0.928 . S
C141 C138 1.260 . S
C141 C139 1.479 . S
C142 C137 1.245 . S
C142 C138 1.477 . S
C142 H159 0.932 . S
C143 U126 2.882 . S
C143 C137 1.428 . S
C143 O146 1.301 . S
C143 O147 1.282 . S
O144 U126 2.441 . S
O144 C130 1.249 . S
O145 U126 2.420 . S
O145 C130 1.202 . S
O146 U126 2.455 . S
O146 C143 1.301 . S
O147 U126 2.449 . S
O147 C143 1.282 . S
H148 C121 0.931 . S
H149 C123 0.929 . S
H150 C124 0.930 . S
H151 C125 0.931 . S
H152 C132 0.932 . S
H153 C133 0.930 . S
H154 C134 0.929 . S
H155 C136 0.930 . S
H156 C138 0.932 . S
H157 C139 0.929 . S
H158 C140 0.928 . S
H159 C142 0.932 . S
C160 C161 1.264 . S
C160 C165 1.479 1_556 S
C160 C170 1.465 . S
C161 C160 1.264 . S
C161 C163 1.339 . S
C161 H188 0.931 . S
C162 C163 1.395 1_554 S
C162 C164 1.320 . S
C163 C161 1.339 . S
C163 C162 1.395 1_556 S
C163 H189 0.929 1_545 S
C164 C162 1.320 . S
C164 C165 1.405 . S
C164 H190 0.930 . S
C165 C160 1.479 1_554 S
C165 C164 1.405 . S
C165 H191 0.931 . S
U166 O167 2.454 . S
U166 O168 2.458 . S
U166 C169 2.984 . S
U166 C170 2.847 . S
U166 C183 2.882 . S
U166 O184 2.441 . S
U166 O185 2.420 . S
U166 O186 2.455 . S
U166 O187 2.449 . S
O167 U166 2.454 . S
O167 C169 1.353 . S
O168 U166 2.458 . S
O168 C169 1.286 . S
C169 U166 2.984 . S
C169 O167 1.353 . S
C169 O168 1.286 . S
C169 C171 1.363 . S
C170 C160 1.465 . S
C170 U166 2.847 . S
C170 O184 1.249 . S
C170 O185 1.202 . S
C171 C169 1.363 . S
C171 C173 1.408 1_556 S
C171 C176 1.342 . S
C172 C173 1.310 . S
C172 C175 1.461 1_554 S
C172 H192 0.932 . S
C173 C171 1.408 1_554 S
C173 C172 1.310 . S
C173 H193 0.930 . S
C174 C175 1.474 . S
C174 C176 1.285 . S
C174 H194 0.929 . S
C175 C172 1.461 1_556 S
C175 C174 1.474 . S
C176 C171 1.342 . S
C176 C174 1.285 . S
C176 H195 0.930 . S
C177 C180 1.424 . S
C177 C182 1.245 . S
C177 C183 1.428 . S
C178 C181 1.260 . S
C178 C182 1.477 . S
C178 H196 0.932 . S
C179 C180 1.384 . S
C179 C181 1.479 . S
C179 H197 0.929 . S
C180 C177 1.424 . S
C180 C179 1.384 . S
C180 H198 0.928 . S
C181 C178 1.260 . S
C181 C179 1.479 . S
C182 C177 1.245 . S
C182 C178 1.477 . S
C182 H199 0.932 . S
C183 U166 2.882 . S
C183 C177 1.428 . S
C183 O186 1.301 . S
C183 O187 1.282 . S
O184 U166 2.441 . S
O184 C170 1.249 . S
O185 U166 2.420 . S
O185 C170 1.202 . S
O186 U166 2.455 . S
O186 C183 1.301 . S
O187 U166 2.449 . S
O187 C183 1.282 . S
H188 C161 0.931 . S
H189 C163 0.929 1_565 S
H190 C164 0.930 . S
H191 C165 0.931 . S
H192 C172 0.932 . S
H193 C173 0.930 . S
H194 C174 0.929 . S
H195 C176 0.930 . S
H196 C178 0.932 . S
H197 C179 0.929 . S
H198 C180 0.928 . S
H199 C182 0.932 . S
C200 C201 1.264 . S
C200 C205 1.479 . S
C200 C210 1.465 . S
C201 C200 1.264 . S
C201 C203 1.339 . S
C201 H228 0.931 . S
C202 C203 1.395 . S
C202 C204 1.320 . S
C203 C201 1.339 . S
C203 C202 1.395 . S
C203 H229 0.929 . S
C204 C202 1.320 . S
C204 C205 1.405 . S
C204 H230 0.930 . S
C205 C200 1.479 . S
C205 C204 1.405 . S
C205 H231 0.931 . S
U206 O207 2.454 . S
U206 O208 2.458 . S
U206 C209 2.984 . S
U206 C210 2.847 . S
U206 C223 2.882 . S
U206 O224 2.441 . S
U206 O225 2.420 . S
U206 O226 2.455 . S
U206 O227 2.449 . S
O207 U206 2.454 . S
O207 C209 1.353 . S
O208 U206 2.458 . S
O208 C209 1.286 . S
C209 U206 2.984 . S
C209 O207 1.353 . S
C209 O208 1.286 . S
C209 C211 1.363 . S
C210 C200 1.465 . S
C210 U206 2.847 . S
C210 O224 1.249 . S
C210 O225 1.202 . S
C211 C209 1.363 . S
C211 C213 1.408 . S
C211 C216 1.342 . S
C212 C213 1.310 . S
C212 C215 1.461 . S
C212 H232 0.932 . S
C213 C211 1.408 . S
C213 C212 1.310 . S
C213 H233 0.930 . S
C214 C215 1.474 . S
C214 C216 1.285 . S
C214 H234 0.929 . S
C215 C212 1.461 . S
C215 C214 1.474 . S
C216 C211 1.342 . S
C216 C214 1.285 . S
C216 H235 0.930 . S
C217 C220 1.424 . S
C217 C222 1.245 . S
C217 C223 1.428 . S
C218 C221 1.260 . S
C218 C222 1.477 . S
C218 H236 0.932 . S
C219 C220 1.384 . S
C219 C221 1.479 . S
C219 H237 0.929 . S
C220 C217 1.424 . S
C220 C219 1.384 . S
C220 H238 0.928 . S
C221 C218 1.260 . S
C221 C219 1.479 . S
C222 C217 1.245 . S
C222 C218 1.477 . S
C222 H239 0.932 . S
C223 U206 2.882 . S
C223 C217 1.428 . S
C223 O226 1.301 . S
C223 O227 1.282 . S
O224 U206 2.441 . S
O224 C210 1.249 . S
O225 U206 2.420 . S
O225 C210 1.202 . S
O226 U206 2.455 . S
O226 C223 1.301 . S
O227 U206 2.449 . S
O227 C223 1.282 . S
H228 C201 0.931 . S
H229 C203 0.929 . S
H230 C204 0.930 . S
H231 C205 0.931 . S
H232 C212 0.932 . S
H233 C213 0.930 . S
H234 C214 0.929 . S
H235 C216 0.930 . S
H236 C218 0.932 . S
H237 C219 0.929 . S
H238 C220 0.928 . S
H239 C222 0.932 . S
C240 C241 1.264 . S
C240 C245 1.479 1_556 S
C240 C250 1.465 . S
C241 C240 1.264 . S
C241 C243 1.339 . S
C241 H268 0.931 . S
C242 C243 1.395 1_554 S
C242 C244 1.320 . S
C243 C241 1.339 . S
C243 C242 1.395 1_556 S
C243 H269 0.929 . S
C244 C242 1.320 . S
C244 C245 1.405 . S
C244 H270 0.930 . S
C245 C240 1.479 1_554 S
C245 C244 1.405 . S
C245 H271 0.931 . S
U246 O247 2.454 . S
U246 O248 2.458 . S
U246 C249 2.984 . S
U246 C250 2.847 . S
U246 C263 2.882 . S
U246 O264 2.441 . S
U246 O265 2.420 . S
U246 O266 2.455 . S
U246 O267 2.449 . S
O247 U246 2.454 . S
O247 C249 1.353 . S
O248 U246 2.458 . S
O248 C249 1.286 . S
C249 U246 2.984 . S
C249 O247 1.353 . S
C249 O248 1.286 . S
C249 C251 1.363 . S
C250 C240 1.465 . S
C250 U246 2.847 . S
C250 O264 1.249 . S
C250 O265 1.202 . S
C251 C249 1.363 . S
C251 C253 1.408 1_556 S
C251 C256 1.342 . S
C252 C253 1.310 . S
C252 C255 1.461 1_554 S
C252 H272 0.932 . S
C253 C251 1.408 1_554 S
C253 C252 1.310 . S
C253 H273 0.930 . S
C254 C255 1.474 . S
C254 C256 1.285 . S
C254 H274 0.929 . S
C255 C252 1.461 1_556 S
C255 C254 1.474 . S
C256 C251 1.342 . S
C256 C254 1.285 . S
C256 H275 0.930 . S
C257 C260 1.424 . S
C257 C262 1.245 . S
C257 C263 1.428 . S
C258 C261 1.260 . S
C258 C262 1.477 . S
C258 H276 0.932 . S
C259 C260 1.384 . S
C259 C261 1.479 . S
C259 H277 0.929 . S
C260 C257 1.424 . S
C260 C259 1.384 . S
C260 H278 0.928 . S
C261 C258 1.260 . S
C261 C259 1.479 . S
C262 C257 1.245 . S
C262 C258 1.477 . S
C262 H279 0.932 . S
C263 U246 2.882 . S
C263 C257 1.428 . S
C263 O266 1.301 . S
C263 O267 1.282 . S
O264 U246 2.441 . S
O264 C250 1.249 . S
O265 U246 2.420 . S
O265 C250 1.202 . S
O266 U246 2.455 . S
O266 C263 1.301 . S
O267 U246 2.449 . S
O267 C263 1.282 . S
H268 C241 0.931 . S
H269 C243 0.929 . S
H270 C244 0.930 . S
H271 C245 0.931 . S
H272 C252 0.932 . S
H273 C253 0.930 . S
H274 C254 0.929 . S
H275 C256 0.930 . S
H276 C258 0.932 . S
H277 C259 0.929 . S
H278 C260 0.928 . S
H279 C262 0.932 . S
C280 C281 1.264 . S
C280 C285 1.479 . S
C280 C290 1.465 . S
C281 C280 1.264 . S
C281 C283 1.339 . S
C281 H308 0.931 . S
C282 C283 1.395 . S
C282 C284 1.320 . S
C283 C281 1.339 . S
C283 C282 1.395 . S
C283 H309 0.929 1_455 S
C284 C282 1.320 . S
C284 C285 1.405 . S
C284 H310 0.930 . S
C285 C280 1.479 . S
C285 C284 1.405 . S
C285 H311 0.931 . S
U286 O287 2.454 . S
U286 O288 2.458 . S
U286 C289 2.984 . S
U286 C290 2.847 . S
U286 C303 2.882 . S
U286 O304 2.441 . S
U286 O305 2.420 . S
U286 O306 2.455 . S
U286 O307 2.449 . S
O287 U286 2.454 . S
O287 C289 1.353 . S
O288 U286 2.458 . S
O288 C289 1.286 . S
C289 U286 2.984 . S
C289 O287 1.353 . S
C289 O288 1.286 . S
C289 C291 1.363 . S
C290 C280 1.465 . S
C290 U286 2.847 . S
C290 O304 1.249 . S
C290 O305 1.202 . S
C291 C289 1.363 . S
C291 C293 1.408 . S
C291 C296 1.342 . S
C292 C293 1.310 . S
C292 C295 1.461 . S
C292 H312 0.932 . S
C293 C291 1.408 . S
C293 C292 1.310 . S
C293 H313 0.930 . S
C294 C295 1.474 . S
C294 C296 1.285 . S
C294 H314 0.929 . S
C295 C292 1.461 . S
C295 C294 1.474 . S
C296 C291 1.342 . S
C296 C294 1.285 . S
C296 H315 0.930 . S
C297 C300 1.424 . S
C297 C302 1.245 . S
C297 C303 1.428 . S
C298 C301 1.260 . S
C298 C302 1.477 . S
C298 H316 0.932 . S
C299 C300 1.384 . S
C299 C301 1.479 . S
C299 H317 0.929 . S
C300 C297 1.424 . S
C300 C299 1.384 . S
C300 H318 0.928 . S
C301 C298 1.260 . S
C301 C299 1.479 . S
C302 C297 1.245 . S
C302 C298 1.477 . S
C302 H319 0.932 . S
C303 U286 2.882 . S
C303 C297 1.428 . S
C303 O306 1.301 . S
C303 O307 1.282 . S
O304 U286 2.441 . S
O304 C290 1.249 . S
O305 U286 2.420 . S
O305 C290 1.202 . S
O306 U286 2.455 . S
O306 C303 1.301 . S
O307 U286 2.449 . S
O307 C303 1.282 . S
H308 C281 0.931 . S
H309 C283 0.929 1_655 S
H310 C284 0.930 . S
H311 C285 0.931 . S
H312 C292 0.932 . S
H313 C293 0.930 . S
H314 C294 0.929 . S
H315 C296 0.930 . S
H316 C298 0.932 . S
H317 C299 0.929 . S
H318 C300 0.928 . S
H319 C302 0.932 . S
C320 C321 1.264 . S
C320 C325 1.479 1_556 S
C320 C330 1.465 . S
C321 C320 1.264 . S
C321 C323 1.339 . S
C321 H348 0.931 . S
C322 C323 1.395 1_554 S
C322 C324 1.320 . S
C323 C321 1.339 . S
C323 C322 1.395 1_556 S
C323 H349 0.929 . S
C324 C322 1.320 . S
C324 C325 1.405 . S
C324 H350 0.930 . S
C325 C320 1.479 1_554 S
C325 C324 1.405 . S
C325 H351 0.931 . S
U326 O327 2.454 . S
U326 O328 2.458 . S
U326 C329 2.984 . S
U326 C330 2.847 . S
U326 C343 2.882 . S
U326 O344 2.441 . S
U326 O345 2.420 . S
U326 O346 2.455 . S
U326 O347 2.449 . S
O327 U326 2.454 . S
O327 C329 1.353 . S
O328 U326 2.458 . S
O328 C329 1.286 . S
C329 U326 2.984 . S
C329 O327 1.353 . S
C329 O328 1.286 . S
C329 C331 1.363 . S
C330 C320 1.465 . S
C330 U326 2.847 . S
C330 O344 1.249 . S
C330 O345 1.202 . S
C331 C329 1.363 . S
C331 C333 1.408 1_556 S
C331 C336 1.342 . S
C332 C333 1.310 . S
C332 C335 1.461 1_554 S
C332 H352 0.932 . S
C333 C331 1.408 1_554 S
C333 C332 1.310 . S
C333 H353 0.930 . S
C334 C335 1.474 . S
C334 C336 1.285 . S
C334 H354 0.929 . S
C335 C332 1.461 1_556 S
C335 C334 1.474 . S
C336 C331 1.342 . S
C336 C334 1.285 . S
C336 H355 0.930 . S
C337 C340 1.424 . S
C337 C342 1.245 . S
C337 C343 1.428 . S
C338 C341 1.260 . S
C338 C342 1.477 . S
C338 H356 0.932 . S
C339 C340 1.384 . S
C339 C341 1.479 . S
C339 H357 0.929 . S
C340 C337 1.424 . S
C340 C339 1.384 . S
C340 H358 0.928 . S
C341 C338 1.260 . S
C341 C339 1.479 . S
C342 C337 1.245 . S
C342 C338 1.477 . S
C342 H359 0.932 . S
C343 U326 2.882 . S
C343 C337 1.428 . S
C343 O346 1.301 . S
C343 O347 1.282 . S
O344 U326 2.441 . S
O344 C330 1.249 . S
O345 U326 2.420 . S
O345 C330 1.202 . S
O346 U326 2.455 . S
O346 C343 1.301 . S
O347 U326 2.449 . S
O347 C343 1.282 . S
H348 C321 0.931 . S
H349 C323 0.929 . S
H350 C324 0.930 . S
H351 C325 0.931 . S
H352 C332 0.932 . S
H353 C333 0.930 . S
H354 C334 0.929 . S
H355 C336 0.930 . S
H356 C338 0.932 . S
H357 C339 0.929 . S
H358 C340 0.928 . S
H359 C342 0.932 . S
C360 C361 1.264 . S
C360 C365 1.479 . S
C360 C370 1.465 . S
C361 C360 1.264 . S
C361 C363 1.339 . S
C361 H388 0.931 . S
C362 C363 1.395 . S
C362 C364 1.320 . S
C363 C361 1.339 . S
C363 C362 1.395 . S
C363 H389 0.929 1_655 S
C364 C362 1.320 . S
C364 C365 1.405 . S
C364 H390 0.930 . S
C365 C360 1.479 . S
C365 C364 1.405 . S
C365 H391 0.931 . S
U366 O367 2.454 . S
U366 O368 2.458 . S
U366 C369 2.984 . S
U366 C370 2.847 . S
U366 C383 2.882 . S
U366 O384 2.441 . S
U366 O385 2.420 . S
U366 O386 2.455 . S
U366 O387 2.449 . S
O367 U366 2.454 . S
O367 C369 1.353 . S
O368 U366 2.458 . S
O368 C369 1.286 . S
C369 U366 2.984 . S
C369 O367 1.353 . S
C369 O368 1.286 . S
C369 C371 1.363 . S
C370 C360 1.465 . S
C370 U366 2.847 . S
C370 O384 1.249 . S
C370 O385 1.202 . S
C371 C369 1.363 . S
C371 C373 1.408 . S
C371 C376 1.342 . S
C372 C373 1.310 . S
C372 C375 1.461 . S
C372 H392 0.932 . S
C373 C371 1.408 . S
C373 C372 1.310 . S
C373 H393 0.930 . S
C374 C375 1.474 . S
C374 C376 1.285 . S
C374 H394 0.929 . S
C375 C372 1.461 . S
C375 C374 1.474 . S
C376 C371 1.342 . S
C376 C374 1.285 . S
C376 H395 0.930 . S
C377 C380 1.424 . S
C377 C382 1.245 . S
C377 C383 1.428 . S
C378 C381 1.260 . S
C378 C382 1.477 . S
C378 H396 0.932 . S
C379 C380 1.384 . S
C379 C381 1.479 . S
C379 H397 0.929 . S
C380 C377 1.424 . S
C380 C379 1.384 . S
C380 H398 0.928 . S
C381 C378 1.260 . S
C381 C379 1.479 . S
C382 C377 1.245 . S
C382 C378 1.477 . S
C382 H399 0.932 . S
C383 U366 2.882 . S
C383 C377 1.428 . S
C383 O386 1.301 . S
C383 O387 1.282 . S
O384 U366 2.441 . S
O384 C370 1.249 . S
O385 U366 2.420 . S
O385 C370 1.202 . S
O386 U366 2.455 . S
O386 C383 1.301 . S
O387 U366 2.449 . S
O387 C383 1.282 . S
H388 C361 0.931 . S
H389 C363 0.929 1_455 S
H390 C364 0.930 . S
H391 C365 0.931 . S
H392 C372 0.932 . S
H393 C373 0.930 . S
H394 C374 0.929 . S
H395 C376 0.930 . S
H396 C378 0.932 . S
H397 C379 0.929 . S
H398 C380 0.928 . S
H399 C382 0.932 . S
C400 C401 1.264 . S
C400 C405 1.479 1_556 S
C400 C410 1.465 . S
C401 C400 1.264 . S
C401 C403 1.339 . S
C401 H428 0.931 . S
C402 C403 1.395 1_554 S
C402 C404 1.320 . S
C403 C401 1.339 . S
C403 C402 1.395 1_556 S
C403 H429 0.929 1_565 S
C404 C402 1.320 . S
C404 C405 1.405 . S
C404 H430 0.930 . S
C405 C400 1.479 1_554 S
C405 C404 1.405 . S
C405 H431 0.931 . S
U406 O407 2.454 . S
U406 O408 2.458 . S
U406 C409 2.984 . S
U406 C410 2.847 . S
U406 C423 2.882 . S
U406 O424 2.441 . S
U406 O425 2.420 . S
U406 O426 2.455 . S
U406 O427 2.449 . S
O407 U406 2.454 . S
O407 C409 1.353 . S
O408 U406 2.458 . S
O408 C409 1.286 . S
C409 U406 2.984 . S
C409 O407 1.353 . S
C409 O408 1.286 . S
C409 C411 1.363 . S
C410 C400 1.465 . S
C410 U406 2.847 . S
C410 O424 1.249 . S
C410 O425 1.202 . S
C411 C409 1.363 . S
C411 C413 1.408 1_556 S
C411 C416 1.342 . S
C412 C413 1.310 . S
C412 C415 1.461 1_554 S
C412 H432 0.932 . S
C413 C411 1.408 1_554 S
C413 C412 1.310 . S
C413 H433 0.930 . S
C414 C415 1.474 . S
C414 C416 1.285 . S
C414 H434 0.929 . S
C415 C412 1.461 1_556 S
C415 C414 1.474 . S
C416 C411 1.342 . S
C416 C414 1.285 . S
C416 H435 0.930 . S
C417 C420 1.424 . S
C417 C422 1.245 . S
C417 C423 1.428 . S
C418 C421 1.260 . S
C418 C422 1.477 . S
C418 H436 0.932 . S
C419 C420 1.384 . S
C419 C421 1.479 . S
C419 H437 0.929 . S
C420 C417 1.424 . S
C420 C419 1.384 . S
C420 H438 0.928 . S
C421 C418 1.260 . S
C421 C419 1.479 . S
C422 C417 1.245 . S
C422 C418 1.477 . S
C422 H439 0.932 . S
C423 U406 2.882 . S
C423 C417 1.428 . S
C423 O426 1.301 . S
C423 O427 1.282 . S
O424 U406 2.441 . S
O424 C410 1.249 . S
O425 U406 2.420 . S
O425 C410 1.202 . S
O426 U406 2.455 . S
O426 C423 1.301 . S
O427 U406 2.449 . S
O427 C423 1.282 . S
H428 C401 0.931 . S
H429 C403 0.929 1_545 S
H430 C404 0.930 . S
H431 C405 0.931 . S
H432 C412 0.932 . S
H433 C413 0.930 . S
H434 C414 0.929 . S
H435 C416 0.930 . S
H436 C418 0.932 . S
H437 C419 0.929 . S
H438 C420 0.928 . S
H439 C422 0.932 . S
C440 C441 1.264 . S
C440 C445 1.479 . S
C440 C450 1.465 . S
C441 C440 1.264 . S
C441 C443 1.339 . S
C441 H468 0.931 . S
C442 C443 1.395 . S
C442 C444 1.320 . S
C443 C441 1.339 . S
C443 C442 1.395 . S
C443 H469 0.929 . S
C444 C442 1.320 . S
C444 C445 1.405 . S
C444 H470 0.930 . S
C445 C440 1.479 . S
C445 C444 1.405 . S
C445 H471 0.931 . S
U446 O447 2.454 . S
U446 O448 2.458 . S
U446 C449 2.984 . S
U446 C450 2.847 . S
U446 C463 2.882 . S
U446 O464 2.441 . S
U446 O465 2.420 . S
U446 O466 2.455 . S
U446 O467 2.449 . S
O447 U446 2.454 . S
O447 C449 1.353 . S
O448 U446 2.458 . S
O448 C449 1.286 . S
C449 U446 2.984 . S
C449 O447 1.353 . S
C449 O448 1.286 . S
C449 C451 1.363 . S
C450 C440 1.465 . S
C450 U446 2.847 . S
C450 O464 1.249 . S
C450 O465 1.202 . S
C451 C449 1.363 . S
C451 C453 1.408 . S
C451 C456 1.342 . S
C452 C453 1.310 . S
C452 C455 1.461 . S
C452 H472 0.932 . S
C453 C451 1.408 . S
C453 C452 1.310 . S
C453 H473 0.930 . S
C454 C455 1.474 . S
C454 C456 1.285 . S
C454 H474 0.929 . S
C455 C452 1.461 . S
C455 C454 1.474 . S
C456 C451 1.342 . S
C456 C454 1.285 . S
C456 H475 0.930 . S
C457 C460 1.424 . S
C457 C462 1.245 . S
C457 C463 1.428 . S
C458 C461 1.260 . S
C458 C462 1.477 . S
C458 H476 0.932 . S
C459 C460 1.384 . S
C459 C461 1.479 . S
C459 H477 0.929 . S
C460 C457 1.424 . S
C460 C459 1.384 . S
C460 H478 0.928 . S
C461 C458 1.260 . S
C461 C459 1.479 . S
C462 C457 1.245 . S
C462 C458 1.477 . S
C462 H479 0.932 . S
C463 U446 2.882 . S
C463 C457 1.428 . S
C463 O466 1.301 . S
C463 O467 1.282 . S
O464 U446 2.441 . S
O464 C450 1.249 . S
O465 U446 2.420 . S
O465 C450 1.202 . S
O466 U446 2.455 . S
O466 C463 1.301 . S
O467 U446 2.449 . S
O467 C463 1.282 . S
H468 C441 0.931 . S
H469 C443 0.929 . S
H470 C444 0.930 . S
H471 C445 0.931 . S
H472 C452 0.932 . S
H473 C453 0.930 . S
H474 C454 0.929 . S
H475 C456 0.930 . S
H476 C458 0.932 . S
H477 C459 0.929 . S
H478 C460 0.928 . S
H479 C462 0.932 . S
C480 C481 1.264 . S
C480 C485 1.479 1_554 S
C480 C490 1.465 . S
C481 C480 1.264 . S
C481 C483 1.339 . S
C481 H508 0.931 . S
C482 C483 1.395 1_556 S
C482 C484 1.320 . S
C483 C481 1.339 . S
C483 C482 1.395 1_554 S
C483 H509 0.929 1_565 S
C484 C482 1.320 . S
C484 C485 1.405 . S
C484 H510 0.930 . S
C485 C480 1.479 1_556 S
C485 C484 1.405 . S
C485 H511 0.931 . S
U486 O487 2.454 . S
U486 O488 2.458 . S
U486 C489 2.984 . S
U486 C490 2.847 . S
U486 C503 2.882 . S
U486 O504 2.441 . S
U486 O505 2.420 . S
U486 O506 2.455 . S
U486 O507 2.449 . S
O487 U486 2.454 . S
O487 C489 1.353 . S
O488 U486 2.458 . S
O488 C489 1.286 . S
C489 U486 2.984 . S
C489 O487 1.353 . S
C489 O488 1.286 . S
C489 C491 1.363 . S
C490 C480 1.465 . S
C490 U486 2.847 . S
C490 O504 1.249 . S
C490 O505 1.202 . S
C491 C489 1.363 . S
C491 C493 1.408 1_554 S
C491 C496 1.342 . S
C492 C493 1.310 . S
C492 C495 1.461 1_556 S
C492 H512 0.932 . S
C493 C491 1.408 1_556 S
C493 C492 1.310 . S
C493 H513 0.930 . S
C494 C495 1.474 . S
C494 C496 1.285 . S
C494 H514 0.929 . S
C495 C492 1.461 1_554 S
C495 C494 1.474 . S
C496 C491 1.342 . S
C496 C494 1.285 . S
C496 H515 0.930 . S
C497 C500 1.424 . S
C497 C502 1.245 . S
C497 C503 1.428 . S
C498 C501 1.260 . S
C498 C502 1.477 . S
C498 H516 0.932 . S
C499 C500 1.384 . S
C499 C501 1.479 . S
C499 H517 0.929 . S
C500 C497 1.424 . S
C500 C499 1.384 . S
C500 H518 0.928 . S
C501 C498 1.260 . S
C501 C499 1.479 . S
C502 C497 1.245 . S
C502 C498 1.477 . S
C502 H519 0.932 . S
C503 U486 2.882 . S
C503 C497 1.428 . S
C503 O506 1.301 . S
C503 O507 1.282 . S
O504 U486 2.441 . S
O504 C490 1.249 . S
O505 U486 2.420 . S
O505 C490 1.202 . S
O506 U486 2.455 . S
O506 C503 1.301 . S
O507 U486 2.449 . S
O507 C503 1.282 . S
H508 C481 0.931 . S
H509 C483 0.929 1_545 S
H510 C484 0.930 . S
H511 C485 0.931 . S
H512 C492 0.932 . S
H513 C493 0.930 . S
H514 C494 0.929 . S
H515 C496 0.930 . S
H516 C498 0.932 . S
H517 C499 0.929 . S
H518 C500 0.928 . S
H519 C502 0.932 . S
C520 C521 1.264 . S
C520 C525 1.479 . S
C520 C530 1.465 . S
C521 C520 1.264 . S
C521 C523 1.339 . S
C521 H548 0.931 . S
C522 C523 1.395 . S
C522 C524 1.320 . S
C523 C521 1.339 . S
C523 C522 1.395 . S
C523 H549 0.929 . S
C524 C522 1.320 . S
C524 C525 1.405 . S
C524 H550 0.930 . S
C525 C520 1.479 . S
C525 C524 1.405 . S
C525 H551 0.931 . S
U526 O527 2.454 . S
U526 O528 2.458 . S
U526 C529 2.984 . S
U526 C530 2.847 . S
U526 C543 2.882 . S
U526 O544 2.441 . S
U526 O545 2.420 . S
U526 O546 2.455 . S
U526 O547 2.449 . S
O527 U526 2.454 . S
O527 C529 1.353 . S
O528 U526 2.458 . S
O528 C529 1.286 . S
C529 U526 2.984 . S
C529 O527 1.353 . S
C529 O528 1.286 . S
C529 C531 1.363 . S
C530 C520 1.465 . S
C530 U526 2.847 . S
C530 O544 1.249 . S
C530 O545 1.202 . S
C531 C529 1.363 . S
C531 C533 1.408 . S
C531 C536 1.342 . S
C532 C533 1.310 . S
C532 C535 1.461 . S
C532 H552 0.932 . S
C533 C531 1.408 . S
C533 C532 1.310 . S
C533 H553 0.930 . S
C534 C535 1.474 . S
C534 C536 1.285 . S
C534 H554 0.929 . S
C535 C532 1.461 . S
C535 C534 1.474 . S
C536 C531 1.342 . S
C536 C534 1.285 . S
C536 H555 0.930 . S
C537 C540 1.424 . S
C537 C542 1.245 . S
C537 C543 1.428 . S
C538 C541 1.260 . S
C538 C542 1.477 . S
C538 H556 0.932 . S
C539 C540 1.384 . S
C539 C541 1.479 . S
C539 H557 0.929 . S
C540 C537 1.424 . S
C540 C539 1.384 . S
C540 H558 0.928 . S
C541 C538 1.260 . S
C541 C539 1.479 . S
C542 C537 1.245 . S
C542 C538 1.477 . S
C542 H559 0.932 . S
C543 U526 2.882 . S
C543 C537 1.428 . S
C543 O546 1.301 . S
C543 O547 1.282 . S
O544 U526 2.441 . S
O544 C530 1.249 . S
O545 U526 2.420 . S
O545 C530 1.202 . S
O546 U526 2.455 . S
O546 C543 1.301 . S
O547 U526 2.449 . S
O547 C543 1.282 . S
H548 C521 0.931 . S
H549 C523 0.929 . S
H550 C524 0.930 . S
H551 C525 0.931 . S
H552 C532 0.932 . S
H553 C533 0.930 . S
H554 C534 0.929 . S
H555 C536 0.930 . S
H556 C538 0.932 . S
H557 C539 0.929 . S
H558 C540 0.928 . S
H559 C542 0.932 . S
C560 C561 1.264 . S
C560 C565 1.479 1_554 S
C560 C570 1.465 . S
C561 C560 1.264 . S
C561 C563 1.339 . S
C561 H588 0.931 . S
C562 C563 1.395 1_556 S
C562 C564 1.320 . S
C563 C561 1.339 . S
C563 C562 1.395 1_554 S
C563 H589 0.929 . S
C564 C562 1.320 . S
C564 C565 1.405 . S
C564 H590 0.930 . S
C565 C560 1.479 1_556 S
C565 C564 1.405 . S
C565 H591 0.931 . S
U566 O567 2.454 . S
U566 O568 2.458 . S
U566 C569 2.984 . S
U566 C570 2.847 . S
U566 C583 2.882 . S
U566 O584 2.441 . S
U566 O585 2.420 . S
U566 O586 2.455 . S
U566 O587 2.449 . S
O567 U566 2.454 . S
O567 C569 1.353 . S
O568 U566 2.458 . S
O568 C569 1.286 . S
C569 U566 2.984 . S
C569 O567 1.353 . S
C569 O568 1.286 . S
C569 C571 1.363 . S
C570 C560 1.465 . S
C570 U566 2.847 . S
C570 O584 1.249 . S
C570 O585 1.202 . S
C571 C569 1.363 . S
C571 C573 1.408 1_554 S
C571 C576 1.342 . S
C572 C573 1.310 . S
C572 C575 1.461 1_556 S
C572 H592 0.932 . S
C573 C571 1.408 1_556 S
C573 C572 1.310 . S
C573 H593 0.930 . S
C574 C575 1.474 . S
C574 C576 1.285 . S
C574 H594 0.929 . S
C575 C572 1.461 1_554 S
C575 C574 1.474 . S
C576 C571 1.342 . S
C576 C574 1.285 . S
C576 H595 0.930 . S
C577 C580 1.424 . S
C577 C582 1.245 . S
C577 C583 1.428 . S
C578 C581 1.260 . S
C578 C582 1.477 . S
C578 H596 0.932 . S
C579 C580 1.384 . S
C579 C581 1.479 . S
C579 H597 0.929 . S
C580 C577 1.424 . S
C580 C579 1.384 . S
C580 H598 0.928 . S
C581 C578 1.260 . S
C581 C579 1.479 . S
C582 C577 1.245 . S
C582 C578 1.477 . S
C582 H599 0.932 . S
C583 U566 2.882 . S
C583 C577 1.428 . S
C583 O586 1.301 . S
C583 O587 1.282 . S
O584 U566 2.441 . S
O584 C570 1.249 . S
O585 U566 2.420 . S
O585 C570 1.202 . S
O586 U566 2.455 . S
O586 C583 1.301 . S
O587 U566 2.449 . S
O587 C583 1.282 . S
H588 C561 0.931 . S
H589 C563 0.929 . S
H590 C564 0.930 . S
H591 C565 0.931 . S
H592 C572 0.932 . S
H593 C573 0.930 . S
H594 C574 0.929 . S
H595 C576 0.930 . S
H596 C578 0.932 . S
H597 C579 0.929 . S
H598 C580 0.928 . S
H599 C582 0.932 . S
C600 C601 1.264 . S
C600 C605 1.479 . S
C600 C610 1.465 . S
C601 C600 1.264 . S
C601 C603 1.339 . S
C601 H628 0.931 . S
C602 C603 1.395 . S
C602 C604 1.320 . S
C603 C601 1.339 . S
C603 C602 1.395 . S
C603 H629 0.929 1_655 S
C604 C602 1.320 . S
C604 C605 1.405 . S
C604 H630 0.930 . S
C605 C600 1.479 . S
C605 C604 1.405 . S
C605 H631 0.931 . S
U606 O607 2.454 . S
U606 O608 2.458 . S
U606 C609 2.984 . S
U606 C610 2.847 . S
U606 C623 2.882 . S
U606 O624 2.441 . S
U606 O625 2.420 . S
U606 O626 2.455 . S
U606 O627 2.449 . S
O607 U606 2.454 . S
O607 C609 1.353 . S
O608 U606 2.458 . S
O608 C609 1.286 . S
C609 U606 2.984 . S
C609 O607 1.353 . S
C609 O608 1.286 . S
C609 C611 1.363 . S
C610 C600 1.465 . S
C610 U606 2.847 . S
C610 O624 1.249 . S
C610 O625 1.202 . S
C611 C609 1.363 . S
C611 C613 1.408 . S
C611 C616 1.342 . S
C612 C613 1.310 . S
C612 C615 1.461 . S
C612 H632 0.932 . S
C613 C611 1.408 . S
C613 C612 1.310 . S
C613 H633 0.930 . S
C614 C615 1.474 . S
C614 C616 1.285 . S
C614 H634 0.929 . S
C615 C612 1.461 . S
C615 C614 1.474 . S
C616 C611 1.342 . S
C616 C614 1.285 . S
C616 H635 0.930 . S
C617 C620 1.424 . S
C617 C622 1.245 . S
C617 C623 1.428 . S
C618 C621 1.260 . S
C618 C622 1.477 . S
C618 H636 0.932 . S
C619 C620 1.384 . S
C619 C621 1.479 . S
C619 H637 0.929 . S
C620 C617 1.424 . S
C620 C619 1.384 . S
C620 H638 0.928 . S
C621 C618 1.260 . S
C621 C619 1.479 . S
C622 C617 1.245 . S
C622 C618 1.477 . S
C622 H639 0.932 . S
C623 U606 2.882 . S
C623 C617 1.428 . S
C623 O626 1.301 . S
C623 O627 1.282 . S
O624 U606 2.441 . S
O624 C610 1.249 . S
O625 U606 2.420 . S
O625 C610 1.202 . S
O626 U606 2.455 . S
O626 C623 1.301 . S
O627 U606 2.449 . S
O627 C623 1.282 . S
H628 C601 0.931 . S
H629 C603 0.929 1_455 S
H630 C604 0.930 . S
H631 C605 0.931 . S
H632 C612 0.932 . S
H633 C613 0.930 . S
H634 C614 0.929 . S
H635 C616 0.930 . S
H636 C618 0.932 . S
H637 C619 0.929 . S
H638 C620 0.928 . S
H639 C622 0.932 . S
C21 C301 2.311 . S
C61 C181 2.311 . S
C221 C101 2.311 . S
C261 C141 2.311 . S
C341 C621 2.868 . S
C501 C381 2.868 . S
C541 C421 2.868 . S
C461 C581 2.868 . S
C15 C175 1.905 1_554 S
C215 C55 1.905 . S
C255 C95 1.905 1_556 S
C135 C295 1.905 . S
C495 C335 1.923 1_554 S
C535 C375 1.923 . S
C575 C415 1.923 1_554 S
C455 C615 1.923 . S
C322 C2 2.886 1_654 S
C42 C362 2.886 1_445 S
C82 C402 2.886 1_546 S
C442 C122 2.886 . S
C162 C482 2.886 1_444 S
C202 C522 2.886 1_545 S
C562 C242 2.886 1_556 S
C602 C282 2.886 1_655 S
