# Generated by pormake.
# Topology upc, (4)-cn, num edge types: 1
# Building blocks:
#     Node 0, Type 0, BuildingBlock: ICAMEG_clean_sbu_1, # of connection points: 4
#     Node 1, Type 0, BuildingBlock: ICAMEG_clean_sbu_1, # of connection points: 4
#     Node 2, Type 0, BuildingBlock: ICAMEG_clean_sbu_1, # of connection points: 4
#     Node 3, Type 0, BuildingBlock: ICAMEG_clean_sbu_1, # of connection points: 4
#     Node 4, Type 0, BuildingBlock: ICAMEG_clean_sbu_1, # of connection points: 4
#     Node 5, Type 0, BuildingBlock: ICAMEG_clean_sbu_1, # of connection points: 4
#     Node 6, Type 0, BuildingBlock: ICAMEG_clean_sbu_1, # of connection points: 4
#     Node 7, Type 0, BuildingBlock: ICAMEG_clean_sbu_1, # of connection points: 4
#     Node 8, Type 0, BuildingBlock: ICAMEG_clean_sbu_1, # of connection points: 4
#     Node 9, Type 0, BuildingBlock: ICAMEG_clean_sbu_1, # of connection points: 4
#     Node 10, Type 0, BuildingBlock: ICAMEG_clean_sbu_1, # of connection points: 4
#     Node 11, Type 0, BuildingBlock: ICAMEG_clean_sbu_1, # of connection points: 4
#     Node 12, Type 0, BuildingBlock: ICAMEG_clean_sbu_1, # of connection points: 4
#     Node 13, Type 0, BuildingBlock: ICAMEG_clean_sbu_1, # of connection points: 4
#     Node 14, Type 0, BuildingBlock: ICAMEG_clean_sbu_1, # of connection points: 4
#     Node 15, Type 0, BuildingBlock: ICAMEG_clean_sbu_1, # of connection points: 4
#     Edge 16, Type (0, 0), BuildingBlock: CIFDUS_clean_linker_0, # of connection points: 2
#     Edge 17, Type (0, 0), BuildingBlock: CIFDUS_clean_linker_0, # of connection points: 2
#     Edge 18, Type (0, 0), BuildingBlock: CIFDUS_clean_linker_0, # of connection points: 2
#     Edge 19, Type (0, 0), BuildingBlock: CIFDUS_clean_linker_0, # of connection points: 2
#     Edge 20, Type (0, 0), BuildingBlock: CIFDUS_clean_linker_0, # of connection points: 2
#     Edge 21, Type (0, 0), BuildingBlock: CIFDUS_clean_linker_0, # of connection points: 2
#     Edge 22, Type (0, 0), BuildingBlock: CIFDUS_clean_linker_0, # of connection points: 2
#     Edge 23, Type (0, 0), BuildingBlock: CIFDUS_clean_linker_0, # of connection points: 2
#     Edge 24, Type (0, 0), BuildingBlock: CIFDUS_clean_linker_0, # of connection points: 2
#     Edge 25, Type (0, 0), BuildingBlock: CIFDUS_clean_linker_0, # of connection points: 2
#     Edge 26, Type (0, 0), BuildingBlock: CIFDUS_clean_linker_0, # of connection points: 2
#     Edge 27, Type (0, 0), BuildingBlock: CIFDUS_clean_linker_0, # of connection points: 2
#     Edge 28, Type (0, 0), BuildingBlock: CIFDUS_clean_linker_0, # of connection points: 2
#     Edge 29, Type (0, 0), BuildingBlock: CIFDUS_clean_linker_0, # of connection points: 2
#     Edge 30, Type (0, 0), BuildingBlock: CIFDUS_clean_linker_0, # of connection points: 2
#     Edge 31, Type (0, 0), BuildingBlock: CIFDUS_clean_linker_0, # of connection points: 2
#     Edge 32, Type (0, 0), BuildingBlock: CIFDUS_clean_linker_0, # of connection points: 2
#     Edge 33, Type (0, 0), BuildingBlock: CIFDUS_clean_linker_0, # of connection points: 2
#     Edge 34, Type (0, 0), BuildingBlock: CIFDUS_clean_linker_0, # of connection points: 2
#     Edge 35, Type (0, 0), BuildingBlock: CIFDUS_clean_linker_0, # of connection points: 2
#     Edge 36, Type (0, 0), BuildingBlock: CIFDUS_clean_linker_0, # of connection points: 2
#     Edge 37, Type (0, 0), BuildingBlock: CIFDUS_clean_linker_0, # of connection points: 2
#     Edge 38, Type (0, 0), BuildingBlock: CIFDUS_clean_linker_0, # of connection points: 2
#     Edge 39, Type (0, 0), BuildingBlock: CIFDUS_clean_linker_0, # of connection points: 2
#     Edge 40, Type (0, 0), BuildingBlock: CIFDUS_clean_linker_0, # of connection points: 2
#     Edge 41, Type (0, 0), BuildingBlock: CIFDUS_clean_linker_0, # of connection points: 2
#     Edge 42, Type (0, 0), BuildingBlock: CIFDUS_clean_linker_0, # of connection points: 2
#     Edge 43, Type (0, 0), BuildingBlock: CIFDUS_clean_linker_0, # of connection points: 2
#     Edge 44, Type (0, 0), BuildingBlock: CIFDUS_clean_linker_0, # of connection points: 2
#     Edge 45, Type (0, 0), BuildingBlock: CIFDUS_clean_linker_0, # of connection points: 2
#     Edge 46, Type (0, 0), BuildingBlock: CIFDUS_clean_linker_0, # of connection points: 2
#     Edge 47, Type (0, 0), BuildingBlock: CIFDUS_clean_linker_0, # of connection points: 2
# Relax obj value: 0.215
# Max RMSD: 0.210
# Mean RMSD: 0.210
data_MOF--net-upc--node1-ICAMEG_clean_sbu_1--edge1-CIFDUS_clean_linker_0
_symmetry_space_group_name_H-M    P1
_symmetry_Int_Tables_number       1
_symmetry_cell_setting            triclinic
loop_
_symmetry_equiv_pos_as_xyz
'x, y, z'
_cell_length_a     31.126272
_cell_length_b     31.174493
_cell_length_c     41.374896
_cell_angle_alpha  90.040361
_cell_angle_beta   90.0096
_cell_angle_gamma 89.983276
loop_
_atom_site_label
_atom_site_type_symbol
_atom_site_fract_x
_atom_site_fract_y
_atom_site_fract_z
_atom_type_partial_charge
Co0 Co 0.14643 0.60883 0.15504 0.0
Co1 Co 0.06757 0.66641 0.11491 0.0
O2 O 0.09189 0.6135 0.13214 0.0
C3 C 0.08179 0.58293 0.20129 0.0
O4 O 0.06137 0.61695 0.19086 0.0
C5 C 0.06273 0.59897 0.06254 0.0
O6 O 0.10106 0.58553 0.07102 0.0
O7 O 0.12362 0.68184 0.09389 0.0
O8 O 0.17473 0.64673 0.12234 0.0
H9 H 0.06352 0.82453 0.09123 0.0
H10 H 0.09936 0.52914 0.13838 0.0
O11 O 0.11761 0.57231 0.18864 0.0
H12 H 0.23829 0.51844 0.08167 0.0
H13 H 0.25897 0.53034 0.21937 0.0
H14 H 0.2167 0.66915 0.17193 0.0
H15 H 0.22177 0.58121 0.11585 0.0
H16 H 0.19153 0.53708 0.18835 0.0
O17 O 0.04741 0.6332 0.07524 0.0
H18 H 0.0933 0.75806 0.11446 0.0
H19 H 0.98806 0.68666 0.0775 0.0
H20 H 0.2846 0.66375 0.20246 0.0
H21 H 0.11467 0.46559 0.10471 0.0
H22 H 0.30601 0.59398 0.22654 0.0
H23 H 0.18451 0.46006 0.07597 0.0
O24 O 0.13351 0.65975 0.18215 0.0
H25 H 0.94668 0.56848 0.14767 0.0
H26 H 0.00555 0.71492 0.15587 0.0
H27 H 0.93831 0.69707 0.18431 0.0
H28 H 0.90843 0.62339 0.18031 0.0
H29 H 0.01402 0.58749 0.11994 0.0
H30 H 0.95721 0.75229 0.05371 0.0
H31 H 0.99501 0.82189 0.06049 0.0
O32 O 0.08532 0.69957 0.15495 0.0
C33 C 0.16295 0.67335 0.10053 0.0
C34 C 0.04682 0.79438 0.088 0.0
C35 C 0.98719 0.75383 0.06692 0.0
N36 N 0.04278 0.71842 0.09706 0.0
C37 C 0.06359 0.75662 0.10107 0.0
C38 C 0.00495 0.71671 0.08031 0.0
C39 C 0.00838 0.79288 0.07077 0.0
C40 C 0.12999 0.52671 0.12622 0.0
N41 N 0.15965 0.55879 0.12906 0.0
C42 C 0.13841 0.49076 0.10708 0.0
C43 C 0.17757 0.48772 0.0909 0.0
C44 C 0.20774 0.52049 0.09406 0.0
C45 C 0.19816 0.55602 0.11335 0.0
C46 C 0.25005 0.56087 0.20889 0.0
C47 C 0.22606 0.63856 0.182 0.0
C48 C 0.21189 0.56489 0.19135 0.0
N49 N 0.20042 0.60337 0.1781 0.0
C50 C 0.26445 0.63574 0.19938 0.0
C51 C 0.27644 0.59659 0.2129 0.0
C52 C 0.10962 0.69268 0.17942 0.0
C53 C 0.95926 0.60076 0.14947 0.0
C54 C 0.99273 0.6828 0.15392 0.0
C55 C 0.95462 0.67289 0.17009 0.0
C56 C 0.93786 0.63156 0.16783 0.0
N57 N 0.01355 0.65244 0.13593 0.0
C58 C 0.99728 0.61182 0.13361 0.0
Co59 Co 0.90754 0.12347 0.15696 0.0
Co60 Co 0.8498 0.05569 0.10758 0.0
O61 O 0.90326 0.07672 0.12618 0.0
C62 C 0.94595 0.05054 0.1896 0.0
O63 O 0.91181 0.02958 0.17982 0.0
C64 C 0.9128 0.06807 0.05411 0.0
O65 O 0.91822 0.1075 0.06454 0.0
O66 O 0.83322 0.11543 0.09431 0.0
O67 O 0.86366 0.15759 0.13251 0.0
H68 H 0.69095 0.05478 0.08552 0.0
H69 H 0.98614 0.08958 0.12554 0.0
O70 O 0.95089 0.08965 0.1818 0.0
H71 H 0.98151 0.2433 0.09767 0.0
H72 H 0.98505 0.20561 0.24267 0.0
H73 H 0.84486 0.17894 0.19092 0.0
H74 H 0.92553 0.21127 0.13234 0.0
H75 H 0.98044 0.1637 0.19223 0.0
O76 O 0.88268 0.04516 0.06601 0.0
H77 H 0.7578 0.08025 0.11113 0.0
H78 H 0.82957 0.98526 0.06119 0.0
H79 H 0.84802 0.2211 0.24134 0.0
H80 H 0.04292 0.12025 0.09093 0.0
H81 H 0.91817 0.23111 0.26892 0.0
H82 H 0.04071 0.19763 0.07671 0.0
O83 O 0.86158 0.09812 0.18402 0.0
H84 H 0.9496 0.93003 0.12187 0.0
H85 H 0.80328 0.98506 0.14119 0.0
H86 H 0.82243 0.91239 0.15972 0.0
H87 H 0.89602 0.88436 0.15001 0.0
H88 H 0.9294 1.00272 0.10426 0.0
H89 H 0.76356 0.95883 0.03489 0.0
H90 H 0.69359 0.99365 0.04703 0.0
O91 O 0.81738 0.06404 0.1497 0.0
C92 C 0.83859 0.15173 0.10837 0.0
C93 C 0.72125 0.03938 0.07999 0.0
C94 C 0.762 0.98557 0.05155 0.0
N95 N 0.79756 0.03446 0.08757 0.0
C96 C 0.7592 0.0537 0.09442 0.0
C97 C 0.79931 1.0008 0.06642 0.0
C98 C 0.72275 0.00509 0.0584 0.0
C99 C 0.98521 0.12335 0.11966 0.0
N100 N 0.95263 0.14865 0.1309 0.0
C101 C 0.01735 0.14051 0.09998 0.0
C102 C 0.01605 0.18391 0.09197 0.0
C103 C 0.98282 0.20955 0.1037 0.0
C104 C 0.95118 0.19125 0.12324 0.0
C105 C 0.95423 0.20043 0.2312 0.0
C106 C 0.87576 0.18575 0.2017 0.0
C107 C 0.95145 0.17707 0.2025 0.0
N108 N 0.91238 0.16864 0.18884 0.0
C109 C 0.87729 0.20918 0.23043 0.0
C110 C 0.9167 0.21528 0.24572 0.0
C111 C 0.82699 0.07799 0.17794 0.0
C112 C 0.91737 0.94179 0.12611 0.0
C113 C 0.83541 0.97318 0.13692 0.0
C114 C 0.84604 0.93195 0.14743 0.0
C115 C 0.88732 0.91623 0.14195 0.0
N116 N 0.86502 0.99806 0.12132 0.0
C117 C 0.90561 0.98286 0.11595 0.0
Co118 Co 0.37151 0.90938 0.15096 0.0
Co119 Co 0.43771 0.84831 0.10222 0.0
O120 O 0.42121 0.90136 0.12339 0.0
C121 C 0.44591 0.92409 0.19155 0.0
O122 O 0.46128 0.89057 0.1764 0.0
C123 C 0.42974 0.91645 0.05242 0.0
O124 O 0.39065 0.92248 0.06343 0.0
O125 O 0.37731 0.83768 0.08746 0.0
O126 O 0.33427 0.87739 0.11963 0.0
H127 H 0.42561 0.6924 0.07245 0.0
H128 H 0.42481 0.98426 0.13275 0.0
O129 O 0.40929 0.93928 0.18351 0.0
H130 H 0.28053 0.01443 0.08904 0.0
H131 H 0.2778 0.99396 0.22692 0.0
H132 H 0.29804 0.85524 0.1716 0.0
H133 H 0.29428 0.94836 0.12022 0.0
H134 H 0.3399 0.98236 0.19079 0.0
O135 O 0.45138 0.88416 0.06243 0.0
H136 H 0.40614 0.75845 0.10185 0.0
H137 H 0.50616 0.82649 0.05458 0.0
H138 H 0.2353 0.86558 0.2072 0.0
H139 H 0.41251 0.05076 0.10176 0.0
H140 H 0.22482 0.93539 0.23506 0.0
H141 H 0.33996 0.06607 0.07956 0.0
O142 O 0.38285 0.85516 0.17425 0.0
H143 H 0.57127 0.93529 0.12254 0.0
H144 H 0.50343 0.79317 0.13386 0.0
H145 H 0.57718 0.80423 0.15401 0.0
H146 H 0.61161 0.8757 0.14834 0.0
H147 H 0.49747 0.92305 0.10315 0.0
H148 H 0.5265 0.76127 0.02442 0.0
H149 H 0.48608 0.69361 0.03325 0.0
O150 O 0.42544 0.8138 0.14305 0.0
C151 C 0.34016 0.84966 0.09722 0.0
C152 C 0.44346 0.72169 0.06835 0.0
C153 C 0.50004 0.76036 0.04137 0.0
N154 N 0.45481 0.79634 0.07983 0.0
C155 C 0.43259 0.75919 0.08497 0.0
C156 C 0.48825 0.79724 0.05843 0.0
C157 C 0.47737 0.72239 0.04636 0.0
C158 C 0.39305 0.99099 0.12348 0.0
N159 N 0.36024 0.96265 0.1284 0.0
C160 C 0.38631 0.02858 0.10584 0.0
C161 C 0.34562 0.03712 0.09334 0.0
C162 C 0.31226 0.00814 0.09863 0.0
C163 C 0.32022 0.97079 0.11628 0.0
C164 C 0.28191 0.96348 0.21476 0.0
C165 C 0.29352 0.88582 0.18345 0.0
C166 C 0.31702 0.95672 0.19435 0.0
N167 N 0.32228 0.91835 0.17885 0.0
C168 C 0.25802 0.89143 0.20368 0.0
C169 C 0.2522 0.93059 0.21934 0.0
C170 C 0.40429 0.82103 0.16918 0.0
C171 C 0.55669 0.90396 0.12502 0.0
C172 C 0.51819 0.82436 0.1313 0.0
C173 C 0.55997 0.83042 0.14273 0.0
C174 C 0.57927 0.87052 0.13954 0.0
N175 N 0.49624 0.85728 0.11703 0.0
C176 C 0.51496 0.89673 0.11387 0.0
Co177 Co 0.59777 0.37446 0.1571 0.0
Co178 Co 0.66049 0.43361 0.10536 0.0
O179 O 0.60565 0.41806 0.12439 0.0
C180 C 0.56168 0.45184 0.18564 0.0
O181 O 0.59732 0.4706 0.17634 0.0
C182 C 0.59758 0.42056 0.05219 0.0
O183 O 0.59113 0.38185 0.06369 0.0
O184 O 0.67263 0.37198 0.09467 0.0
O185 O 0.64055 0.33568 0.13534 0.0
H186 H 0.81903 0.42127 0.084 0.0
H187 H 0.52284 0.40988 0.12176 0.0
O188 O 0.55542 0.4125 0.17916 0.0
H189 H 0.51893 0.25387 0.10215 0.0
H190 H 0.51062 0.3034 0.24302 0.0
H191 H 0.65583 0.32118 0.19723 0.0
H192 H 0.57487 0.28569 0.13703 0.0
H193 H 0.52095 0.34003 0.19087 0.0
O194 O 0.62836 0.44322 0.0634 0.0
H195 H 0.75064 0.40323 0.11081 0.0
H196 H 0.68575 0.49812 0.05574 0.0
H197 H 0.64713 0.28592 0.25015 0.0
H198 H 0.46612 0.37951 0.0869 0.0
H199 H 0.57415 0.27903 0.2741 0.0
H200 H 0.4641 0.30098 0.07677 0.0
O201 O 0.64439 0.39982 0.18368 0.0
H202 H 0.5701 0.56697 0.11451 0.0
H203 H 0.71217 0.503 0.13603 0.0
H204 H 0.69844 0.57813 0.15159 0.0
H205 H 0.62701 0.61063 0.14077 0.0
H206 H 0.58492 0.49184 0.09984 0.0
H207 H 0.75337 0.51698 0.0281 0.0
H208 H 0.82065 0.47845 0.04221 0.0
O209 O 0.69194 0.42594 0.14796 0.0
C210 C 0.66566 0.33756 0.11081 0.0
C211 C 0.78992 0.43826 0.07761 0.0
C212 C 0.75306 0.49194 0.04622 0.0
N213 N 0.71419 0.44938 0.08473 0.0
C214 C 0.75109 0.42818 0.09272 0.0
C215 C 0.71482 0.48098 0.06185 0.0
C216 C 0.79081 0.47033 0.05416 0.0
C217 C 0.52191 0.37565 0.11767 0.0
N218 N 0.55223 0.34955 0.13122 0.0
C219 C 0.48981 0.35865 0.09784 0.0
C220 C 0.48874 0.31459 0.09212 0.0
C221 C 0.51953 0.28815 0.10632 0.0
C222 C 0.55122 0.30631 0.12592 0.0
C223 C 0.54256 0.30679 0.233 0.0
C224 C 0.62389 0.31655 0.20688 0.0
C225 C 0.54858 0.32696 0.20327 0.0
N226 N 0.58899 0.33281 0.19109 0.0
C227 C 0.61918 0.29697 0.23699 0.0
C228 C 0.57825 0.2929 0.25035 0.0
C229 C 0.68087 0.41585 0.17683 0.0
C230 C 0.60143 0.55325 0.11919 0.0
C231 C 0.68098 0.51688 0.13125 0.0
C232 C 0.67342 0.55947 0.14008 0.0
C233 C 0.63334 0.5777 0.13398 0.0
N234 N 0.64956 0.49311 0.11667 0.0
C235 C 0.61015 0.51077 0.11069 0.0
Co236 Co 0.13378 0.90309 0.37091 0.0
Co237 Co 0.06667 0.8383 0.41623 0.0
O238 O 0.0828 0.89277 0.39685 0.0
C239 C 0.0613 0.91842 0.3286 0.0
O240 O 0.04647 0.88304 0.34145 0.0
C241 C 0.06261 0.90696 0.4672 0.0
O242 O 0.09951 0.92148 0.45646 0.0
O243 O 0.12635 0.82942 0.43338 0.0
O244 O 0.16992 0.87042 0.4025 0.0
H245 H 0.08141 0.68122 0.44148 0.0
H246 H 0.07844 0.97695 0.38843 0.0
O247 O 0.09712 0.93379 0.33825 0.0
H248 H 0.21949 0.00751 0.43761 0.0
H249 H 0.22939 0.99278 0.29987 0.0
H250 H 0.20957 0.85147 0.35126 0.0
H251 H 0.20828 0.94173 0.40548 0.0
H252 H 0.16578 0.9784 0.33385 0.0
O253 O 0.04808 0.87119 0.45652 0.0
H254 H 0.10128 0.7495 0.41549 0.0
H255 H 0.99521 0.8117 0.45987 0.0
H256 H 0.27382 0.8646 0.31778 0.0
H257 H 0.08833 0.04333 0.42009 0.0
H258 H 0.28407 0.93571 0.29189 0.0
H259 H 0.15922 0.05883 0.44507 0.0
O260 O 0.12504 0.84973 0.3458 0.0
H261 H 0.93199 0.92139 0.39123 0.0
H262 H 0.00572 0.7821 0.38037 0.0
H263 H 0.93357 0.79147 0.3568 0.0
H264 H 0.8962 0.86151 0.36218 0.0
H265 H 0.00426 0.91086 0.41409 0.0
H266 H 0.97427 0.74414 0.4865 0.0
H267 H 0.01749 0.67825 0.47737 0.0
O268 O 0.08331 0.80581 0.37542 0.0
C269 C 0.16365 0.84231 0.42455 0.0
C270 C 0.0624 0.70974 0.44576 0.0
C271 C 1.00231 0.74507 0.47105 0.0
N272 N 0.04982 0.78471 0.43644 0.0
C273 C 0.07357 0.74854 0.43114 0.0
C274 C 0.01448 0.78331 0.45604 0.0
C275 C 0.02654 0.70809 0.46588 0.0
C276 C 0.10952 0.98377 0.39889 0.0
N277 N 0.14279 0.95562 0.39506 0.0
C278 C 0.11488 0.0213 0.41691 0.0
C279 C 0.15464 0.02992 0.43098 0.0
C280 C 0.18846 1.00111 0.42684 0.0
C281 C 0.1819 0.96388 0.4087 0.0
C282 C 0.22538 0.96174 0.31118 0.0
C283 C 0.21398 0.88261 0.34027 0.0
C284 C 0.18941 0.9534 0.33037 0.0
N285 N 0.18424 0.9143 0.34478 0.0
C286 C 0.25035 0.8898 0.32125 0.0
C287 C 0.25605 0.9297 0.30669 0.0
C288 C 0.10511 0.81452 0.34993 0.0
C289 C 0.94786 0.89065 0.38887 0.0
C290 C 0.98966 0.81266 0.38288 0.0
C291 C 0.94879 0.81777 0.36949 0.0
C292 C 0.92783 0.85707 0.37252 0.0
N293 N 0.00911 0.84572 0.39894 0.0
C294 C 0.98872 0.88437 0.40198 0.0
Co295 Co 0.61359 0.11754 0.36138 0.0
Co296 Co 0.67021 0.05519 0.41397 0.0
O297 O 0.61602 0.07329 0.3944 0.0
C298 C 0.56847 0.04518 0.33259 0.0
O299 O 0.60145 0.02223 0.34211 0.0
C300 C 0.60211 0.05707 0.46551 0.0
O301 O 0.58857 0.09388 0.454 0.0
O302 O 0.68082 0.11558 0.4283 0.0
O303 O 0.66095 0.15096 0.38314 0.0
H304 H 0.82704 0.06799 0.44122 0.0
H305 H 0.53271 0.09365 0.39464 0.0
O306 O 0.56687 0.08492 0.33926 0.0
H307 H 0.55074 0.24867 0.41422 0.0
H308 H 0.54108 0.19149 0.2696 0.0
H309 H 0.67929 0.16513 0.32427 0.0
H310 H 0.60379 0.20859 0.38174 0.0
H311 H 0.54298 0.1587 0.3238 0.0
O312 O 0.63715 0.04086 0.45491 0.0
H313 H 0.7593 0.08893 0.41466 0.0
H314 H 0.69476 0.98409 0.45858 0.0
H315 H 0.67881 0.19861 0.27037 0.0
H316 H 0.47859 0.13251 0.42696 0.0
H317 H 0.60957 0.20797 0.24149 0.0
H318 H 0.48758 0.21057 0.43705 0.0
O319 O 0.65617 0.08594 0.33539 0.0
H320 H 0.58159 0.92208 0.39649 0.0
H321 H 0.72333 0.98928 0.38019 0.0
H322 H 0.71075 0.91576 0.36044 0.0
H323 H 0.63951 0.88159 0.36865 0.0
H324 H 0.59518 0.9958 0.41523 0.0
H325 H 0.76173 0.96218 0.48584 0.0
H326 H 0.82855 0.00418 0.47714 0.0
O327 O 0.70435 0.06692 0.37272 0.0
C328 C 0.68059 0.14899 0.4103 0.0
C329 C 0.79817 0.04937 0.44515 0.0
C330 C 0.7615 0.99003 0.47023 0.0
N331 N 0.72316 0.03767 0.43492 0.0
C332 C 0.75973 0.06104 0.43012 0.0
C333 C 0.72364 1.00267 0.4548 0.0
C334 C 0.79898 0.01359 0.46532 0.0
C335 C 0.53658 0.12768 0.39869 0.0
N336 N 0.57137 0.14883 0.38644 0.0
C337 C 0.50594 0.14949 0.41711 0.0
C338 C 0.51104 0.19327 0.4228 0.0
C339 C 0.54651 0.21465 0.41004 0.0
C340 C 0.57651 0.19178 0.39177 0.0
C341 C 0.57151 0.18637 0.28167 0.0
C342 C 0.64884 0.17214 0.31287 0.0
C343 C 0.57277 0.16828 0.31249 0.0
N344 N 0.61123 0.15947 0.32696 0.0
C345 C 0.64883 0.19047 0.28211 0.0
C346 C 0.60994 0.19607 0.26602 0.0
C347 C 0.69331 0.07293 0.34321 0.0
C348 C 0.61284 0.93655 0.39289 0.0
C349 C 0.69213 0.9748 0.3837 0.0
C350 C 0.68526 0.93306 0.37256 0.0
C351 C 0.64531 0.91389 0.37721 0.0
N352 N 0.66013 0.99689 0.39907 0.0
C353 C 0.62086 0.97823 0.40371 0.0
Co354 Co 0.37635 0.61323 0.36175 0.0
Co355 Co 0.4468 0.67601 0.40594 0.0
O356 O 0.42842 0.62189 0.38697 0.0
C357 C 0.44702 0.59554 0.3181 0.0
O358 O 0.46358 0.63034 0.33069 0.0
C359 C 0.45005 0.60807 0.45751 0.0
O360 O 0.41277 0.59406 0.4471 0.0
O361 O 0.38797 0.68667 0.42403 0.0
O362 O 0.34211 0.64697 0.39402 0.0
H363 H 0.43631 0.83335 0.43138 0.0
H364 H 0.42978 0.5378 0.37873 0.0
O365 O 0.41113 0.5813 0.32854 0.0
H366 H 0.28878 0.51153 0.42931 0.0
H367 H 0.27694 0.52735 0.29086 0.0
H368 H 0.30182 0.66731 0.34323 0.0
H369 H 0.30136 0.57686 0.39701 0.0
H370 H 0.34105 0.53911 0.3249 0.0
O371 O 0.46538 0.64312 0.44617 0.0
H372 H 0.41391 0.76533 0.40601 0.0
H373 H 0.52055 0.70118 0.44795 0.0
H374 H 0.23707 0.65681 0.30973 0.0
H375 H 0.41853 0.47187 0.4106 0.0
H376 H 0.22439 0.58645 0.28319 0.0
H377 H 0.34765 0.45852 0.43626 0.0
O378 O 0.38621 0.66613 0.33641 0.0
H379 H 0.57806 0.58848 0.37941 0.0
H380 H 0.50862 0.73 0.36902 0.0
H381 H 0.57982 0.7181 0.34449 0.0
H382 H 0.61503 0.64693 0.34963 0.0
H383 H 0.50674 0.60154 0.40324 0.0
H384 H 0.544 0.76842 0.47396 0.0
H385 H 0.50178 0.83516 0.46571 0.0
O386 O 0.43033 0.70862 0.3652 0.0
C387 C 0.35003 0.67466 0.41612 0.0
C388 C 0.45495 0.80447 0.43521 0.0
C389 C 0.51534 0.76802 0.45914 0.0
N390 N 0.46567 0.72926 0.42566 0.0
C391 C 0.44239 0.76586 0.42091 0.0
C392 C 0.50178 0.72998 0.44447 0.0
C393 C 0.49167 0.80546 0.45447 0.0
C394 C 0.39872 0.53194 0.38953 0.0
N395 N 0.36624 0.56104 0.38599 0.0
C396 C 0.39259 0.49466 0.40766 0.0
C397 C 0.35284 0.48723 0.4221 0.0
C398 C 0.3198 0.517 0.41824 0.0
C399 C 0.32714 0.55397 0.40001 0.0
C400 C 0.28203 0.55809 0.30241 0.0
C401 C 0.29625 0.63644 0.33208 0.0
C402 C 0.31828 0.56495 0.32166 0.0
N403 N 0.32491 0.60371 0.33628 0.0
C404 C 0.25963 0.63075 0.31302 0.0
C405 C 0.25255 0.59127 0.29812 0.0
C406 C 0.40774 0.70048 0.33999 0.0
C407 C 0.56313 0.6197 0.37714 0.0
C408 C 0.52374 0.69895 0.37142 0.0
C409 C 0.56408 0.69241 0.35748 0.0
C410 C 0.58383 0.65248 0.36038 0.0
N411 N 0.50364 0.66666 0.38787 0.0
C412 C 0.52283 0.6274 0.39079 0.0
Co413 Co 0.90581 0.39428 0.35875 0.0
Co414 Co 0.83646 0.43912 0.41333 0.0
O415 O 0.89281 0.43381 0.39347 0.0
C416 C 0.93341 0.47762 0.33431 0.0
O417 O 0.896 0.4921 0.34403 0.0
C418 C 0.90309 0.43687 0.46524 0.0
O419 O 0.91854 0.40208 0.45166 0.0
O420 O 0.83494 0.37589 0.42224 0.0
O421 O 0.86738 0.34925 0.37788 0.0
H422 H 0.68303 0.39835 0.43541 0.0
H423 H 0.97803 0.43464 0.39432 0.0
O424 O 0.94351 0.4386 0.33893 0.0
H425 H 0.99716 0.2788 0.40879 0.0
H426 H 1.00158 0.33634 0.27181 0.0
H427 H 0.85445 0.33755 0.31609 0.0
H428 H 0.93684 0.30698 0.37644 0.0
H429 H 0.98613 0.37174 0.32379 0.0
O430 O 0.86697 0.45184 0.45567 0.0
H431 H 0.7534 0.39287 0.40833 0.0
H432 H 0.80086 0.49704 0.46405 0.0
H433 H 0.86823 0.30287 0.26351 0.0
H434 H 0.03919 0.40789 0.42644 0.0
H435 H 0.94207 0.30358 0.24053 0.0
H436 H 0.0489 0.32944 0.434 0.0
O437 O 0.85687 0.41654 0.33328 0.0
H438 H 0.90278 0.58627 0.40872 0.0
H439 H 0.77376 0.50031 0.38442 0.0
H440 H 0.77454 0.57738 0.37112 0.0
H441 H 0.83935 0.62093 0.38334 0.0
H442 H 0.90096 0.50907 0.42114 0.0
H443 H 0.73108 0.50349 0.49191 0.0
H444 H 0.67154 0.45397 0.47758 0.0
O445 O 0.80585 0.42841 0.37054 0.0
C446 C 0.84384 0.34482 0.40307 0.0
C447 C 0.70869 0.42017 0.44184 0.0
C448 C 0.73569 0.47913 0.47358 0.0
N449 N 0.78117 0.44463 0.43455 0.0
C450 C 0.74859 0.41727 0.42653 0.0
C451 C 0.77518 0.47523 0.45779 0.0
C452 C 0.70228 0.45135 0.46551 0.0
C453 C 0.98234 0.40045 0.39719 0.0
N454 N 0.95387 0.37238 0.38359 0.0
C455 C 0.01691 0.3855 0.41552 0.0
C456 C 0.02229 0.34148 0.41981 0.0
C457 C 0.99323 0.31306 0.40572 0.0
C458 C 0.95901 0.32918 0.38757 0.0
C459 C 0.96926 0.33619 0.28145 0.0
C460 C 0.88685 0.33673 0.3067 0.0
C461 C 0.96038 0.35577 0.31104 0.0
N462 N 0.91942 0.35666 0.32294 0.0
C463 C 0.89441 0.31739 0.27681 0.0
C464 C 0.93583 0.31773 0.26395 0.0
C465 C 0.81811 0.42427 0.34107 0.0
C466 C 0.87427 0.56767 0.40341 0.0
C467 C 0.80216 0.51898 0.38974 0.0
C468 C 0.80236 0.56265 0.38222 0.0
C469 C 0.83871 0.58708 0.38911 0.0
N470 N 0.83714 0.50014 0.40379 0.0
C471 C 0.87291 0.52394 0.41061 0.0
Co472 Co 0.85001 0.41805 0.86788 0.0
Co473 Co 0.93125 0.35832 0.90324 0.0
O474 O 0.90493 0.41207 0.88991 0.0
C475 C 0.91427 0.44993 0.82363 0.0
O476 O 0.93377 0.41432 0.8317 0.0
C477 C 0.93437 0.41982 0.95954 0.0
O478 O 0.89543 0.43265 0.95219 0.0
O479 O 0.87571 0.33815 0.92295 0.0
O480 O 0.82307 0.37624 0.89842 0.0
H481 H 0.94201 0.19818 0.91519 0.0
H482 H 0.89598 0.49694 0.88844 0.0
O483 O 0.87794 0.45882 0.83627 0.0
H484 H 0.7595 0.49757 0.94897 0.0
H485 H 0.73311 0.502 0.81253 0.0
H486 H 0.78031 0.35857 0.84809 0.0
H487 H 0.77562 0.43965 0.91014 0.0
H488 H 0.80288 0.49248 0.84004 0.0
O489 O 0.95052 0.38732 0.94497 0.0
H490 H 0.90913 0.26604 0.89722 0.0
H491 H 0.01174 0.33668 0.93888 0.0
H492 H 0.71028 0.36664 0.82081 0.0
H493 H 0.88089 0.55582 0.92665 0.0
H494 H 0.68616 0.43882 0.80303 0.0
H495 H 0.81236 0.5562 0.9574 0.0
O496 O 0.86281 0.36967 0.8379 0.0
H497 H 0.04729 0.46492 0.87627 0.0
H498 H 0.99505 0.31733 0.85929 0.0
H499 H 0.06077 0.34142 0.83148 0.0
H500 H 0.08728 0.41574 0.83985 0.0
H501 H 0.98149 0.43977 0.90327 0.0
H502 H 0.04568 0.26964 0.95747 0.0
H503 H 0.0108 0.19971 0.94562 0.0
O504 O 0.91437 0.3297 0.86112 0.0
C505 C 0.836 0.34667 0.91753 0.0
C506 C 0.95745 0.22845 0.92062 0.0
C507 C 0.0156 0.26855 0.94437 0.0
N508 N 0.95814 0.30533 0.91729 0.0
C509 C 0.93889 0.26699 0.91055 0.0
C510 C 0.99608 0.30645 0.93394 0.0
C511 C 0.99604 0.22933 0.93768 0.0
C512 C 0.86579 0.49726 0.90133 0.0
N513 N 0.83665 0.46499 0.89699 0.0
C514 C 0.85753 0.53055 0.92308 0.0
C515 C 0.81911 0.53069 0.94038 0.0
C516 C 0.78946 0.49778 0.93569 0.0
C517 C 0.79881 0.465 0.91375 0.0
C518 C 0.74315 0.47044 0.82038 0.0
C519 C 0.76997 0.39011 0.84052 0.0
C520 C 0.78265 0.46484 0.83586 0.0
N521 N 0.79539 0.42511 0.84596 0.0
C522 C 0.73031 0.39447 0.82505 0.0
C523 C 0.71678 0.43498 0.81509 0.0
C524 C 0.88809 0.33744 0.83799 0.0
C525 C 0.03618 0.4324 0.87255 0.0
C526 C 0.00643 0.34966 0.86318 0.0
C527 C 0.04369 0.36312 0.84736 0.0
C528 C 0.05856 0.40481 0.85208 0.0
N529 N 0.98457 0.37691 0.8832 0.0
C530 C 0.99906 0.41783 0.88799 0.0
Co531 Co 0.10771 0.84351 0.86805 0.0
Co532 Co 0.15371 0.93034 0.90699 0.0
O533 O 0.10501 0.89901 0.8894 0.0
C534 C 0.07615 0.90228 0.81953 0.0
O535 O 0.10807 0.92627 0.82945 0.0
C536 C 0.08767 0.92465 0.95908 0.0
O537 O 0.08594 0.88331 0.95311 0.0
O538 O 0.17493 0.87779 0.92991 0.0
O539 O 0.14806 0.8215 0.90197 0.0
H540 H 0.30918 0.95651 0.93359 0.0
H541 H 0.02286 0.88184 0.8832 0.0
O542 O 0.06865 0.86642 0.83326 0.0
H543 H 0.02731 0.74504 0.94291 0.0
H544 H 0.04523 0.72057 0.80469 0.0
H545 H 0.17656 0.78022 0.85398 0.0
H546 H 0.08811 0.76699 0.9084 0.0
H547 H 0.04284 0.78902 0.8347 0.0
O548 O 0.11605 0.94753 0.94493 0.0
H549 H 0.24815 0.91698 0.91003 0.0
H550 H 0.16169 0.01296 0.94284 0.0
H551 H 0.1803 0.71141 0.82459 0.0
H552 H 0.96123 0.86107 0.91729 0.0
H553 H 0.11436 0.68134 0.79947 0.0
H554 H 0.96333 0.79229 0.94754 0.0
O555 O 0.15788 0.86117 0.84161 0.0
H556 H 0.04298 0.03641 0.86879 0.0
H557 H 0.19596 0.99553 0.86503 0.0
H558 H 0.17108 0.05849 0.83419 0.0
H559 H 0.09408 0.07929 0.83595 0.0
H560 H 0.06906 0.97349 0.89898 0.0
H561 H 0.22175 0.05346 0.96689 0.0
H562 H 0.29616 0.02527 0.96233 0.0
O563 O 0.19086 0.91464 0.86854 0.0
C564 C 0.17221 0.83749 0.92396 0.0
C565 C 0.27689 0.96906 0.93583 0.0
C566 C 0.22782 0.02343 0.95456 0.0
N567 N 0.20132 0.96233 0.92535 0.0
C568 C 0.24218 0.94676 0.92258 0.0
C569 C 0.19389 1.00022 0.94104 0.0
C570 C 0.26957 0.00763 0.95196 0.0
C571 C 0.02376 0.85165 0.89603 0.0
N572 N 0.0589 0.82556 0.89375 0.0
C573 C 0.98887 0.84015 0.91539 0.0
C574 C 0.9901 0.80158 0.9324 0.0
C575 C 0.02601 0.77507 0.92983 0.0
C576 C 0.06035 0.78767 0.9103 0.0
C577 C 0.07416 0.7333 0.8156 0.0
C578 C 0.1476 0.76701 0.84353 0.0
C579 C 0.073 0.77206 0.83257 0.0
N580 N 0.10944 0.7884 0.84628 0.0
C581 C 0.14996 0.72815 0.82678 0.0
C582 C 0.11296 0.7113 0.81268 0.0
C583 C 0.18808 0.88839 0.84479 0.0
C584 C 0.07664 0.02778 0.86794 0.0
C585 C 0.16241 0.00441 0.86598 0.0
C586 C 0.14852 0.04011 0.84847 0.0
C587 C 0.10532 0.05177 0.84948 0.0
N588 N 0.1341 0.98101 0.88404 0.0
C589 C 0.09168 0.9923 0.88515 0.0
Co590 Co 0.62292 0.10429 0.85824 0.0
Co591 Co 0.56331 0.16284 0.91257 0.0
O592 O 0.57843 0.11002 0.89054 0.0
C593 C 0.5441 0.07642 0.82687 0.0
O594 O 0.52796 0.1124 0.83794 0.0
C595 C 0.57459 0.09411 0.96174 0.0
O596 O 0.61324 0.08828 0.94982 0.0
O597 O 0.62489 0.17284 0.92462 0.0
O598 O 0.66245 0.1427 0.88368 0.0
H599 H 0.57672 0.3185 0.94291 0.0
H600 H 0.58298 0.0267 0.88681 0.0
O601 O 0.58315 0.0669 0.83266 0.0
H602 H 0.73791 0.01403 0.90987 0.0
H603 H 0.69518 0.026 0.76769 0.0
H604 H 0.68254 0.16404 0.82521 0.0
H605 H 0.70978 0.07574 0.87906 0.0
H606 H 0.6539 0.03116 0.81842 0.0
O607 O 0.55245 0.12641 0.95246 0.0
H608 H 0.59517 0.25266 0.91287 0.0
H609 H 0.49796 0.18383 0.96275 0.0
H610 H 0.72367 0.16045 0.77433 0.0
H611 H 0.60966 0.96437 0.91759 0.0
H612 H 0.72797 0.09151 0.7443 0.0
H613 H 0.68764 0.95784 0.92939 0.0
O614 O 0.60106 0.15475 0.83462 0.0
H615 H 0.4286 0.07599 0.89691 0.0
H616 H 0.49533 0.21841 0.88406 0.0
H617 H 0.42029 0.20749 0.86682 0.0
H618 H 0.38641 0.13588 0.87326 0.0
H619 H 0.50364 0.08809 0.91339 0.0
H620 H 0.4786 0.24886 0.99348 0.0
H621 H 0.51797 0.31683 0.98352 0.0
O622 O 0.57254 0.19864 0.87197 0.0
C623 C 0.65994 0.16624 0.90908 0.0
C624 C 0.55931 0.28906 0.94746 0.0
C625 C 0.50429 0.24996 0.97587 0.0
N626 N 0.54783 0.2144 0.93614 0.0
C627 C 0.56962 0.25168 0.93051 0.0
C628 C 0.51553 0.21319 0.95849 0.0
C629 C 0.52639 0.28811 0.97027 0.0
C630 C 0.61699 0.02385 0.89162 0.0
N631 N 0.64484 0.05475 0.88118 0.0
C632 C 0.63189 0.98858 0.90915 0.0
C633 C 0.67564 0.98498 0.91581 0.0
C634 C 0.70386 0.01652 0.90489 0.0
C635 C 0.68778 0.05142 0.88753 0.0
C636 C 0.69289 0.05633 0.78031 0.0
C637 C 0.68603 0.13354 0.81304 0.0
C638 C 0.66995 0.05936 0.80921 0.0
N639 N 0.66576 0.09789 0.82467 0.0
C640 C 0.70896 0.13179 0.78407 0.0
C641 C 0.71147 0.09309 0.76728 0.0
C642 C 0.58476 0.19044 0.84299 0.0
C643 C 0.44292 0.1074 0.89414 0.0
C644 C 0.48085 0.18714 0.88694 0.0
C645 C 0.43831 0.18117 0.87717 0.0
C646 C 0.41931 0.14099 0.88081 0.0
N647 N 0.50381 0.15407 0.90004 0.0
C648 C 0.48537 0.11456 0.90366 0.0
Co649 Co 0.4039 0.65028 0.86881 0.0
Co650 Co 0.3595 0.56008 0.90403 0.0
O651 O 0.40783 0.59394 0.88865 0.0
C652 C 0.44363 0.59629 0.82031 0.0
O653 O 0.41144 0.5705 0.82655 0.0
C654 C 0.42312 0.56454 0.95773 0.0
O655 O 0.42345 0.60627 0.95345 0.0
O656 O 0.33564 0.6104 0.92841 0.0
O657 O 0.3597 0.66847 0.90122 0.0
H658 H 0.20404 0.52682 0.92574 0.0
H659 H 0.48928 0.61583 0.88745 0.0
O660 O 0.44748 0.63148 0.83574 0.0
H661 H 0.47128 0.74862 0.9509 0.0
H662 H 0.46447 0.78001 0.8126 0.0
H663 H 0.33286 0.71022 0.85299 0.0
H664 H 0.41559 0.72574 0.91208 0.0
H665 H 0.46828 0.71011 0.84049 0.0
O666 O 0.39621 0.54164 0.94206 0.0
H667 H 0.26449 0.56971 0.90496 0.0
H668 H 0.35305 0.47522 0.93689 0.0
H669 H 0.32764 0.78038 0.82569 0.0
H670 H 0.546 0.63773 0.92573 0.0
H671 H 0.39374 0.81559 0.80508 0.0
H672 H 0.53699 0.7044 0.95796 0.0
O673 O 0.35689 0.63112 0.83945 0.0
H674 H 0.47479 0.45963 0.86474 0.0
H675 H 0.32091 0.49651 0.85875 0.0
H676 H 0.34876 0.43603 0.82651 0.0
H677 H 0.42622 0.41722 0.82941 0.0
H678 H 0.44574 0.52006 0.89633 0.0
H679 H 0.2936 0.43134 0.95817 0.0
H680 H 0.21842 0.45707 0.95266 0.0
O681 O 0.32337 0.57724 0.86553 0.0
C682 C 0.33616 0.65086 0.92282 0.0
C683 C 0.23666 0.51534 0.92844 0.0
C684 C 0.28693 0.46179 0.94666 0.0
N685 N 0.31233 0.5254 0.92011 0.0
C686 C 0.27105 0.53959 0.91678 0.0
C687 C 0.3205 0.48693 0.93473 0.0
C688 C 0.24475 0.47621 0.94352 0.0
C689 C 0.48546 0.64522 0.90103 0.0
N690 N 0.44926 0.66956 0.89748 0.0
C691 C 0.51757 0.65734 0.92279 0.0
C692 C 0.51246 0.69472 0.9409 0.0
C693 C 0.47558 0.71953 0.93697 0.0
C694 C 0.44413 0.70638 0.91501 0.0
C695 C 0.43545 0.76502 0.82153 0.0
C696 C 0.36184 0.72562 0.84448 0.0
C697 C 0.43741 0.72544 0.83729 0.0
N698 N 0.40088 0.70629 0.84855 0.0
C699 C 0.35865 0.76525 0.8289 0.0
C700 C 0.39575 0.78498 0.81732 0.0
C701 C 0.3268 0.60355 0.8419 0.0
C702 C 0.44095 0.4674 0.86337 0.0
C703 C 0.35465 0.48852 0.86016 0.0
C704 C 0.37023 0.45421 0.84187 0.0
C705 C 0.41369 0.44366 0.84352 0.0
N706 N 0.38156 0.51162 0.87964 0.0
C707 C 0.42424 0.50147 0.88135 0.0
Co708 Co 0.88739 0.09516 0.67279 0.0
Co709 Co 0.93625 0.15845 0.61662 0.0
O710 O 0.92646 0.10276 0.63676 0.0
C711 C 0.96782 0.05615 0.69368 0.0
O712 O 0.98589 0.09179 0.68377 0.0
C713 C 0.93328 0.09039 0.56517 0.0
O714 O 0.89853 0.07491 0.57878 0.0
O715 O 0.87331 0.16379 0.60742 0.0
O716 O 0.84688 0.13963 0.65468 0.0
H717 H 0.90523 0.31347 0.59274 0.0
H718 H 0.91465 0.01772 0.63645 0.0
O719 O 0.92737 0.0514 0.69128 0.0
H720 H 0.75666 0.02124 0.62791 0.0
H721 H 0.82164 0.01022 0.763 0.0
H722 H 0.84025 0.15443 0.71614 0.0
H723 H 0.79542 0.07718 0.65842 0.0
H724 H 0.85628 0.01939 0.70984 0.0
O725 O 0.94796 0.12677 0.57444 0.0
H726 H 0.89504 0.24421 0.62039 0.0
H727 H 0.99746 0.18963 0.56642 0.0
H728 H 0.80674 0.14686 0.76979 0.0
H729 H 0.8772 0.96081 0.60604 0.0
H730 H 0.79843 0.07439 0.79399 0.0
H731 H 0.79762 0.96248 0.60151 0.0
O732 O 0.91802 0.14023 0.6971 0.0
H733 H 0.07942 0.08347 0.62223 0.0
H734 H 1.00095 0.21731 0.64581 0.0
H735 H 0.07785 0.21204 0.65943 0.0
H736 H 0.11768 0.14481 0.64753 0.0
H737 H 1.00241 0.08971 0.60965 0.0
H738 H 0.00869 0.2583 0.53808 0.0
H739 H 0.96241 0.32086 0.55122 0.0
O740 O 0.92675 0.19067 0.6591 0.0
C741 C 0.84309 0.16117 0.62838 0.0
C742 C 0.92566 0.28648 0.58683 0.0
C743 C 0.98367 0.25549 0.55612 0.0
N744 N 0.94564 0.2129 0.59507 0.0
C745 C 0.92007 0.24717 0.60245 0.0
C746 C 0.97707 0.21664 0.57218 0.0
C747 C 0.95771 0.29058 0.56352 0.0
C748 C 0.88 0.0184 0.63485 0.0
N749 N 0.85724 0.05077 0.64909 0.0
C750 C 0.85898 0.9862 0.61748 0.0
C751 C 0.81434 0.98721 0.6149 0.0
C752 C 0.79134 0.02021 0.62966 0.0
C753 C 0.81346 0.05191 0.64676 0.0
C754 C 0.82544 0.04197 0.75283 0.0
C755 C 0.8357 0.12272 0.72612 0.0
C756 C 0.84461 0.04733 0.72259 0.0
N757 N 0.85032 0.08742 0.70994 0.0
C758 C 0.81703 0.11866 0.75663 0.0
C759 C 0.81247 0.078 0.77021 0.0
C760 C 0.92564 0.1786 0.68871 0.0
C761 C 0.06248 0.11302 0.62738 0.0
C762 C 0.01793 0.18783 0.64071 0.0
C763 C 0.06155 0.1851 0.64838 0.0
C764 C 0.08389 0.1474 0.64165 0.0
N765 N 0.99709 0.15398 0.62671 0.0
C766 C 0.01886 0.1169 0.62004 0.0
Co767 Co 0.40505 0.85378 0.65662 0.0
Co768 Co 0.34735 0.93033 0.61434 0.0
O769 O 0.40024 0.90707 0.63244 0.0
C770 C 0.43217 0.9205 0.70085 0.0
O771 O 0.39704 0.93972 0.69111 0.0
C772 C 0.41517 0.93286 0.56265 0.0
O773 O 0.42731 0.89431 0.57152 0.0
O774 O 0.33269 0.87363 0.59417 0.0
O775 O 0.36652 0.82408 0.62493 0.0
H776 H 0.18913 0.93373 0.5897 0.0
H777 H 0.48479 0.89969 0.63804 0.0
O778 O 0.44241 0.88412 0.68901 0.0
H779 H 0.49421 0.75819 0.58513 0.0
H780 H 0.48385 0.74485 0.72406 0.0
H781 H 0.3446 0.78473 0.67578 0.0
H782 H 0.43198 0.77655 0.61941 0.0
H783 H 0.47713 0.8102 0.69076 0.0
O784 O 0.38119 0.94934 0.57485 0.0
H785 H 0.25537 0.90482 0.61398 0.0
H786 H 0.32753 0.00809 0.57505 0.0
H787 H 0.34996 0.71887 0.7086 0.0
H788 H 0.54782 0.88254 0.60425 0.0
H789 H 0.41992 0.69873 0.73318 0.0
H790 H 0.55268 0.81142 0.57739 0.0
O791 O 0.35423 0.8681 0.68349 0.0
H792 H 0.44386 0.05284 0.64606 0.0
H793 H 0.29764 0.99292 0.65392 0.0
H794 H 0.31449 0.06103 0.68145 0.0
H795 H 0.38806 0.09143 0.67762 0.0
H796 H 0.42583 0.98465 0.6192 0.0
H797 H 0.26212 0.03809 0.55022 0.0
H798 H 0.19225 1.00085 0.55746 0.0
O799 O 0.31355 0.91328 0.65413 0.0
C800 C 0.34049 0.83473 0.60236 0.0
C801 C 0.21941 0.95015 0.58622 0.0
C802 C 0.26038 0.00869 0.56404 0.0
N803 N 0.29544 0.95427 0.59555 0.0
C804 C 0.25707 0.93382 0.59985 0.0
C805 C 0.29739 0.99137 0.57801 0.0
C806 C 0.22118 0.98781 0.56815 0.0
C807 C 0.48695 0.86849 0.62675 0.0
N808 N 0.45481 0.83912 0.6307 0.0
C809 C 0.52261 0.85903 0.60752 0.0
C810 C 0.52527 0.81915 0.5924 0.0
C811 C 0.49244 0.78929 0.5967 0.0
C812 C 0.45723 0.7999 0.61604 0.0
C813 C 0.45321 0.75325 0.71343 0.0
C814 C 0.37528 0.77585 0.68603 0.0
C815 C 0.44922 0.79021 0.69457 0.0
N816 N 0.41061 0.80105 0.68114 0.0
C817 C 0.37807 0.73864 0.70472 0.0
C818 C 0.41733 0.72738 0.71853 0.0
C819 C 0.32054 0.89061 0.67939 0.0
C820 C 0.41163 0.04002 0.64778 0.0
C821 C 0.32971 0.00596 0.65206 0.0
C822 C 0.33905 0.04457 0.6677 0.0
C823 C 0.38033 0.06162 0.66553 0.0
N824 N 0.36056 0.98495 0.63466 0.0
C825 C 0.40112 1.00152 0.63242 0.0
Co826 Co 0.63893 0.41502 0.66347 0.0
Co827 Co 0.57319 0.35806 0.61234 0.0
O828 O 0.59198 0.41148 0.63227 0.0
C829 C 0.565 0.4547 0.69355 0.0
O830 O 0.54562 0.41927 0.68465 0.0
C831 C 0.57444 0.4263 0.56056 0.0
O832 O 0.61087 0.44058 0.5723 0.0
O833 O 0.63321 0.34623 0.59729 0.0
O834 O 0.67206 0.36923 0.63988 0.0
H835 H 0.58359 0.20119 0.58549 0.0
H836 H 0.60795 0.49632 0.63422 0.0
O837 O 0.60503 0.45945 0.688 0.0
H838 H 0.7597 0.48366 0.60135 0.0
H839 H 0.741 0.49333 0.73723 0.0
H840 H 0.69491 0.35181 0.69678 0.0
H841 H 0.72627 0.42845 0.63583 0.0
H842 H 0.68142 0.48737 0.69805 0.0
O843 O 0.55863 0.39117 0.57132 0.0
H844 H 0.60563 0.26864 0.61186 0.0
H845 H 0.50133 0.33438 0.56796 0.0
H846 H 0.7548 0.35633 0.73571 0.0
H847 H 0.64028 0.55261 0.60017 0.0
H848 H 0.77855 0.4275 0.75586 0.0
H849 H 0.71663 0.54633 0.58334 0.0
O850 O 0.61265 0.36974 0.69049 0.0
H851 H 0.43989 0.44702 0.62876 0.0
H852 H 0.50733 0.30594 0.64685 0.0
H853 H 0.43347 0.31871 0.666 0.0
H854 H 0.3991 0.38956 0.65674 0.0
H855 H 0.51417 0.43347 0.61105 0.0
H856 H 0.47836 0.26771 0.54089 0.0
H857 H 0.51954 0.20046 0.54966 0.0
O858 O 0.58508 0.3245 0.65361 0.0
C859 C 0.66779 0.34713 0.61401 0.0
C860 C 0.56534 0.23027 0.58151 0.0
C861 C 0.50632 0.26762 0.55645 0.0
N862 N 0.55474 0.30538 0.59156 0.0
C863 C 0.57763 0.26855 0.59644 0.0
C864 C 0.51957 0.30531 0.57176 0.0
C865 C 0.52943 0.22989 0.5614 0.0
C866 C 0.64136 0.49368 0.62741 0.0
N867 N 0.6652 0.45916 0.63704 0.0
C868 C 0.65943 0.52552 0.60795 0.0
C869 C 0.70223 0.52193 0.59845 0.0
C870 C 0.72639 0.48673 0.6085 0.0
C871 C 0.70724 0.45548 0.62791 0.0
C872 C 0.73118 0.46216 0.72837 0.0
C873 C 0.70508 0.38293 0.70542 0.0
C874 C 0.6974 0.45859 0.70628 0.0
N875 N 0.6851 0.41935 0.69482 0.0
C876 C 0.73895 0.38526 0.7275 0.0
C877 C 0.75222 0.42522 0.73884 0.0
C878 C 0.59583 0.33399 0.68272 0.0
C879 C 0.45444 0.41594 0.63279 0.0
C880 C 0.49286 0.33705 0.64306 0.0
C881 C 0.4509 0.34401 0.65381 0.0
C882 C 0.43161 0.38373 0.64856 0.0
N883 N 0.51508 0.36878 0.62756 0.0
C884 C 0.49645 0.40795 0.62258 0.0
Co885 Co 0.09807 0.63797 0.66114 0.0
Co886 Co 0.15682 0.56666 0.61473 0.0
O887 O 0.10385 0.58657 0.63477 0.0
C888 C 0.0735 0.56681 0.70208 0.0
O889 O 0.11005 0.55052 0.69226 0.0
C890 C 0.08676 0.56322 0.56464 0.0
O891 O 0.07327 0.60074 0.57485 0.0
O892 O 0.16757 0.62484 0.5958 0.0
O893 O 0.13492 0.67105 0.63011 0.0
H894 H 0.31367 0.57223 0.5859 0.0
H895 H 0.01929 0.59096 0.64154 0.0
O896 O 0.06225 0.60403 0.6925 0.0
H897 H 0.00411 0.7359 0.59525 0.0
H898 H 0.01788 0.73903 0.73445 0.0
H899 H 0.15681 0.7075 0.6823 0.0
H900 H 0.0678 0.71692 0.62776 0.0
H901 H 0.02564 0.6766 0.69815 0.0
O902 O 0.12196 0.54778 0.57563 0.0
H903 H 0.24727 0.59691 0.61248 0.0
H904 H 0.17846 0.49167 0.57293 0.0
H905 H 0.15038 0.77048 0.71815 0.0
H906 H 0.95483 0.60869 0.60953 0.0
H907 H 0.08058 0.78641 0.74466 0.0
H908 H 0.94706 0.68156 0.58599 0.0
O909 O 0.15008 0.62348 0.68664 0.0
H910 H 0.06803 0.43789 0.64492 0.0
H911 H 0.21132 0.50482 0.6513 0.0
H912 H 0.19919 0.43447 0.67691 0.0
H913 H 0.12713 0.4005 0.67377 0.0
H914 H 0.08136 0.50834 0.61998 0.0
H915 H 0.24407 0.4659 0.54578 0.0
H916 H 0.31234 0.50626 0.55219 0.0
O917 O 0.19189 0.58356 0.65404 0.0
C918 C 0.15954 0.66284 0.60605 0.0
C919 C 0.28409 0.55445 0.5828 0.0
C920 C 0.24502 0.49482 0.56026 0.0
N921 N 0.20885 0.54617 0.59393 0.0
C922 C 0.24634 0.56836 0.59774 0.0
C923 C 0.20788 0.50973 0.57554 0.0
C924 C 0.28332 0.51744 0.5639 0.0
C925 C 0.01588 0.6229 0.63172 0.0
N926 N 0.04723 0.6529 0.63652 0.0
C927 C 0.97941 0.63268 0.61348 0.0
C928 C 0.97511 0.67355 0.60022 0.0
C929 C 0.00714 0.70404 0.60536 0.0
C930 C 0.0432 0.69307 0.62369 0.0
C931 C 0.04843 0.73248 0.72296 0.0
C932 C 0.12618 0.71458 0.69339 0.0
C933 C 0.05301 0.69717 0.70241 0.0
N934 N 0.09153 0.68865 0.68792 0.0
C935 C 0.12278 0.75016 0.71379 0.0
C936 C 0.08362 0.75907 0.72867 0.0
C937 C 0.1849 0.60363 0.68055 0.0
C938 C 0.09964 0.45224 0.64629 0.0
C939 C 0.17987 0.49026 0.64979 0.0
C940 C 0.17321 0.45039 0.66432 0.0
C941 C 0.13279 0.43132 0.66253 0.0
N942 N 0.14723 0.51056 0.63382 0.0
C943 C 0.10748 0.49206 0.63202 0.0
H944 H 0.16096 0.75932 0.0906 0.0
H945 H 0.24294 0.64869 0.08095 0.0
H946 H 0.30494 0.69539 0.07183 0.0
H947 H 0.33732 0.76688 0.07645 0.0
H948 H 0.25653 0.87669 0.09459 0.0
H949 H 0.19261 0.83153 0.08994 0.0
C950 C 0.19209 0.74542 0.08551 0.0
C951 C 0.19724 0.70054 0.08637 0.0
C952 C 0.22802 0.77255 0.08231 0.0
C953 C 0.23809 0.6831 0.0803 0.0
C954 C 0.2736 0.70984 0.07533 0.0
C955 C 0.30576 0.78122 0.07855 0.0
C956 C 0.30188 0.82518 0.08607 0.0
C957 C 0.26926 0.75457 0.07775 0.0
C958 C 0.26054 0.843 0.0889 0.0
C959 C 0.22394 0.81709 0.08644 0.0
H960 H 0.75176 0.1548 0.10582 0.0
H961 H 0.86484 0.23208 0.09197 0.0
H962 H 0.82013 0.29642 0.0864 0.0
H963 H 0.74949 0.33156 0.09196 0.0
H964 H 0.63781 0.25474 0.11279 0.0
H965 H 0.68082 0.18944 0.1086 0.0
C966 C 0.76645 0.18551 0.10064 0.0
C967 C 0.81146 0.18862 0.09878 0.0
C968 C 0.74064 0.22259 0.09911 0.0
C969 C 0.83022 0.2289 0.09315 0.0
C970 C 0.80465 0.26568 0.09015 0.0
C971 C 0.73442 0.30054 0.09498 0.0
C972 C 0.6904 0.29817 0.10275 0.0
C973 C 0.75988 0.26312 0.09403 0.0
C974 C 0.67156 0.25757 0.10694 0.0
C975 C 0.69622 0.22016 0.10461 0.0
H976 H 0.16893 0.7573 0.43846 0.0
H977 H 0.24536 0.87235 0.43348 0.0
H978 H 0.31105 0.82948 0.4371 0.0
H979 H 0.3463 0.75919 0.43211 0.0
H980 H 0.2692 0.64446 0.4283 0.0
H981 H 0.20436 0.68695 0.43801 0.0
C982 C 0.19984 0.77313 0.43906 0.0
C983 C 0.20207 0.81807 0.43569 0.0
C984 C 0.23749 0.74805 0.43903 0.0
C985 C 0.24265 0.83788 0.43614 0.0
C986 C 0.28025 0.81331 0.43793 0.0
C987 C 0.3155 0.74332 0.43425 0.0
C988 C 0.31271 0.69862 0.42948 0.0
C989 C 0.27808 0.76829 0.43796 0.0
C990 C 0.2723 0.67875 0.43189 0.0
C991 C 0.23517 0.70311 0.43728 0.0
H992 H 0.77292 0.32494 0.44017 0.0
H993 H 0.86609 0.26866 0.37538 0.0
H994 H 0.82547 0.20214 0.37438 0.0
H995 H 0.7597 0.16211 0.38691 0.0
H996 H 0.66473 0.2174 0.44997 0.0
H997 H 0.70939 0.28197 0.45653 0.0
C998 C 0.78476 0.29793 0.42628 0.0
C999 C 0.82256 0.30232 0.40766 0.0
C1000 C 0.76054 0.25958 0.42518 0.0
C1001 C 0.83715 0.26667 0.38983 0.0
C1002 C 0.8138 0.22846 0.3891 0.0
C1003 C 0.74936 0.18798 0.40267 0.0
C1004 C 0.70945 0.18504 0.41831 0.0
C1005 C 0.77492 0.22492 0.40592 0.0
C1006 C 0.69573 0.21891 0.43813 0.0
C1007 C 0.72117 0.25583 0.44169 0.0
H1008 H 0.83857 0.26008 0.91452 0.0
H1009 H 0.75727 0.36521 0.94315 0.0
H1010 H 0.69625 0.31604 0.94857 0.0
H1011 H 0.66407 0.24536 0.9374 0.0
H1012 H 0.74392 0.14316 0.9009 0.0
H1013 H 0.80747 0.18844 0.90681 0.0
C1014 C 0.80792 0.27198 0.92301 0.0
C1015 C 0.8027 0.31616 0.92894 0.0
C1016 C 0.77246 0.24395 0.92411 0.0
C1017 C 0.76225 0.33128 0.93888 0.0
C1018 C 0.72729 0.3032 0.94168 0.0
C1019 C 0.69541 0.23268 0.93129 0.0
C1020 C 0.69901 0.19084 0.91854 0.0
C1021 C 0.73164 0.25975 0.93317 0.0
C1022 C 0.74007 0.17518 0.91063 0.0
C1023 C 0.77647 0.20117 0.91392 0.0
H1024 H 0.34171 0.73513 0.94024 0.0
H1025 H 0.25362 0.62859 0.93731 0.0
H1026 H 0.19291 0.67752 0.94189 0.0
H1027 H 0.16519 0.75143 0.93566 0.0
H1028 H 0.25312 0.85767 0.94445 0.0
H1029 H 0.31325 0.80818 0.94948 0.0
C1030 C 0.3093 0.72252 0.94172 0.0
C1031 C 0.30225 0.67828 0.93736 0.0
C1032 C 0.27437 0.75093 0.94494 0.0
C1033 C 0.2601 0.66242 0.93998 0.0
C1034 C 0.22519 0.69052 0.94244 0.0
C1035 C 0.19732 0.76376 0.93976 0.0
C1036 C 0.20468 0.80831 0.9385 0.0
C1037 C 0.23192 0.73498 0.94321 0.0
C1038 C 0.24643 0.82367 0.94457 0.0
C1039 C 0.28104 0.79529 0.94732 0.0
H1040 H 0.67702 0.27465 0.64733 0.0
H1041 H 0.73223 0.34537 0.56833 0.0
H1042 H 0.79006 0.29165 0.56358 0.0
H1043 H 0.82726 0.22674 0.58484 0.0
H1044 H 0.76995 0.15751 0.66439 0.0
H1045 H 0.71036 0.20774 0.66546 0.0
C1046 C 0.70147 0.27789 0.62878 0.0
C1047 C 0.70055 0.31364 0.60815 0.0
C1048 C 0.73426 0.24706 0.62631 0.0
C1049 C 0.73232 0.31787 0.58431 0.0
C1050 C 0.76535 0.28722 0.58172 0.0
C1051 C 0.80146 0.22223 0.60209 0.0
C1052 C 0.80371 0.18827 0.62471 0.0
C1053 C 0.76703 0.2519 0.60295 0.0
C1054 C 0.76963 0.18321 0.64679 0.0
C1055 C 0.7354 0.21211 0.64755 0.0
H1056 H 0.2425 0.66147 0.58539 0.0
H1057 H 0.13483 0.74645 0.59927 0.0
H1058 H 0.18176 0.80851 0.59161 0.0
H1059 H 0.25479 0.83808 0.59095 0.0
H1060 H 0.36347 0.7527 0.58689 0.0
H1061 H 0.31516 0.69138 0.58021 0.0
C1062 C 0.22908 0.69346 0.586 0.0
C1063 C 0.18517 0.69919 0.59311 0.0
C1064 C 0.2568 0.72901 0.5837 0.0
C1065 C 0.16846 0.74108 0.59391 0.0
C1066 C 0.19538 0.7766 0.58973 0.0
C1067 C 0.26797 0.80629 0.58767 0.0
C1068 C 0.31272 0.80007 0.58938 0.0
C1069 C 0.23989 0.77096 0.58607 0.0
C1070 C 0.32918 0.75838 0.58555 0.0
C1071 C 0.30151 0.72329 0.58199 0.0
H1072 H 0.00616 0.45374 0.30286 0.0
H1073 H 0.92348 0.56255 0.32103 0.0
H1074 H 0.96459 0.60536 0.28267 0.0
H1075 H 0.01964 0.61002 0.24127 0.0
H1076 H 0.10184 0.50154 0.22154 0.0
H1077 H 0.06516 0.46021 0.26373 0.0
C1078 C 0.99742 0.48698 0.29873 0.0
C1079 C 0.9615 0.50485 0.31443 0.0
C1080 C 0.02075 0.51119 0.2763 0.0
C1081 C 0.95073 0.54797 0.30899 0.0
C1082 C 0.97414 0.57242 0.28705 0.0
C1083 C 0.02968 0.57732 0.24618 0.0
C1084 C 0.06284 0.55847 0.22804 0.0
C1085 C 0.00845 0.554 0.27007 0.0
C1086 C 0.07613 0.5165 0.23512 0.0
C1087 C 0.05516 0.49295 0.25914 0.0
H1088 H 0.93578 0.97378 0.21801 0.0
H1089 H 0.02154 0.08243 0.21384 0.0
H1090 H 0.06611 0.05068 0.25635 0.0
H1091 H 0.0785 0.99309 0.29641 0.0
H1092 H 0.98924 0.88698 0.30082 0.0
H1093 H 0.94814 0.91709 0.25665 0.0
C1094 C 0.96439 0.99048 0.22614 0.0
C1095 C 0.97532 0.03034 0.2129 0.0
C1096 C 0.98904 0.97271 0.25089 0.0
C1097 C 0.01247 0.05159 0.22377 0.0
C1098 C 0.03784 0.03357 0.24812 0.0
C1099 C 0.05007 0.97668 0.28764 0.0
C1100 C 0.03696 0.938 0.30197 0.0
C1101 C 0.02605 0.99437 0.2622 0.0
C1102 C 1.00007 0.91694 0.29037 0.0
C1103 C 0.97648 0.934 0.265 0.0
H1104 H 0.57288 0.96775 0.30419 0.0
H1105 H 0.4942 0.08155 0.30974 0.0
H1106 H 0.44745 0.05342 0.26712 0.0
H1107 H 0.43198 0.99805 0.22577 0.0
H1108 H 0.51467 0.88685 0.21978 0.0
H1109 H 0.55682 0.91272 0.26489 0.0
C1110 C 0.54524 0.98629 0.2964 0.0
C1111 C 0.5371 0.02664 0.30996 0.0
C1112 C 0.51946 0.97064 0.27147 0.0
C1113 C 0.50119 0.0503 0.29953 0.0
C1114 C 0.47457 0.03436 0.2751 0.0
C1115 C 0.45915 0.97957 0.23446 0.0
C1116 C 0.47031 0.94087 0.21924 0.0
C1117 C 0.48391 0.99487 0.26042 0.0
C1118 C 0.50554 0.91706 0.23078 0.0
C1119 C 0.52968 0.93165 0.25672 0.0
H1120 H 0.5699 0.53256 0.208 0.0
H1121 H 0.4865 0.42204 0.21175 0.0
H1122 H 0.4418 0.45762 0.2523 0.0
H1123 H 0.42953 0.5185 0.28942 0.0
H1124 H 0.51596 0.62693 0.28613 0.0
H1125 H 0.55632 0.59355 0.2428 0.0
C1126 C 0.54175 0.5163 0.21743 0.0
C1127 C 0.53174 0.47469 0.20711 0.0
C1128 C 0.51692 0.53639 0.24111 0.0
C1129 C 0.49499 0.45416 0.21945 0.0
C1130 C 0.46951 0.47437 0.24271 0.0
C1131 C 0.45708 0.53478 0.27908 0.0
C1132 C 0.46992 0.57485 0.2912 0.0
C1133 C 0.48069 0.51519 0.25421 0.0
C1134 C 0.50558 0.59578 0.27752 0.0
C1135 C 0.52872 0.57684 0.25263 0.0
H1136 H 0.9985 0.59002 0.73272 0.0
H1137 H 0.08647 0.48417 0.71854 0.0
H1138 H 0.04359 0.43937 0.75353 0.0
H1139 H 0.98346 0.42994 0.78876 0.0
H1140 H 0.89395 0.53324 0.8059 0.0
H1141 H 0.93499 0.57932 0.76872 0.0
C1142 C 0.00807 0.55713 0.7373 0.0
C1143 C 0.04581 0.54064 0.72315 0.0
C1144 C 0.98314 0.5311 0.75784 0.0
C1145 C 0.05783 0.49793 0.72921 0.0
C1146 C 0.03329 0.4721 0.74921 0.0
C1147 C 0.9726 0.46255 0.78454 0.0
C1148 C 0.9359 0.47829 0.80023 0.0
C1149 C 0.99624 0.48843 0.76375 0.0
C1150 C 0.92222 0.52044 0.79405 0.0
C1151 C 0.94573 0.54673 0.77292 0.0
H1152 H 0.10396 0.95137 0.7713 0.0
H1153 H 0.99017 0.88944 0.80797 0.0
H1154 H 0.946 0.92895 0.7687 0.0
H1155 H 0.93974 0.98809 0.72919 0.0
H1156 H 0.05477 0.05119 0.69516 0.0
H1157 H 0.09873 0.00391 0.72826 0.0
C1158 C 0.0695 0.94612 0.77042 0.0
C1159 C 0.05 0.91835 0.79266 0.0
C1160 C 0.04468 0.96944 0.74858 0.0
C1161 C 0.00563 0.91091 0.79099 0.0
C1162 C 0.98049 0.9337 0.76878 0.0
C1163 C 0.97446 0.99101 0.72867 0.0
C1164 C 0.99399 0.02358 0.71024 0.0
C1165 C 0.99959 0.96415 0.74824 0.0
C1166 C 0.03897 0.02685 0.70957 0.0
C1167 C 0.06414 0.99982 0.72844 0.0
H1168 H 0.56825 0.00385 0.79468 0.0
H1169 H 0.45938 0.08627 0.81364 0.0
H1170 H 0.41524 0.04378 0.77731 0.0
H1171 H 0.40815 0.98607 0.7386 0.0
H1172 H 0.51548 0.90257 0.71841 0.0
H1173 H 0.55971 0.94257 0.75723 0.0
C1174 C 0.53479 0.01227 0.79101 0.0
C1175 C 0.51725 0.04841 0.80657 0.0
C1176 C 0.50943 0.98771 0.76991 0.0
C1177 C 0.47382 0.05886 0.80173 0.0
C1178 C 0.44848 0.03459 0.78098 0.0
C1179 C 0.44123 0.97645 0.74264 0.0
C1180 C 0.45877 0.9418 0.72546 0.0
C1181 C 0.46613 0.99944 0.76466 0.0
C1182 C 0.50139 0.92931 0.73136 0.0
C1183 C 0.52663 0.9522 0.75344 0.0
H1184 H 0.59155 0.51483 0.73773 0.0
H1185 H 0.48056 0.46866 0.68571 0.0
H1186 H 0.43384 0.5142 0.71771 0.0
H1187 H 0.42316 0.55891 0.76485 0.0
H1188 H 0.53156 0.60435 0.81971 0.0
H1189 H 0.5809 0.56815 0.78201 0.0
C1190 C 0.55726 0.51556 0.7331 0.0
C1191 C 0.53935 0.48794 0.70981 0.0
C1192 C 0.53018 0.54137 0.75225 0.0
C1193 C 0.49495 0.48908 0.70388 0.0
C1194 C 0.46817 0.51515 0.72214 0.0
C1195 C 0.45768 0.56148 0.76819 0.0
C1196 C 0.47397 0.58351 0.79498 0.0
C1197 C 0.48525 0.54009 0.74708 0.0
C1198 C 0.51856 0.5874 0.79905 0.0
C1199 C 0.54661 0.56644 0.7777 0.0
H1200 H 0.11227 0.66968 0.24257 0.0
H1201 H 0.09959 0.78 0.18042 0.0
H1202 H 0.09712 0.82707 0.22796 0.0
H1203 H 0.10012 0.83678 0.28698 0.0
H1204 H 0.10705 0.72632 0.34944 0.0
H1205 H 0.10991 0.67906 0.30189 0.0
C1206 C 0.10913 0.70409 0.23943 0.0
C1207 C 0.10687 0.72149 0.20795 0.0
C1208 C 0.10659 0.73072 0.26689 0.0
C1209 C 0.10167 0.76593 0.20431 0.0
C1210 C 0.1003 0.79277 0.23149 0.0
C1211 C 0.10228 0.80231 0.29021 0.0
C1212 C 0.10402 0.78502 0.32172 0.0
C1213 C 0.103 0.77552 0.26284 0.0
C1214 C 0.10581 0.74034 0.3255 0.0
C1215 C 0.10758 0.71342 0.29832 0.0
H1216 H 0.84581 0.07918 0.24229 0.0
H1217 H 0.74049 0.06123 0.17573 0.0
H1218 H 0.69053 0.05565 0.22122 0.0
H1219 H 0.67624 0.05992 0.27957 0.0
H1220 H 0.78149 0.07625 0.34638 0.0
H1221 H 0.83215 0.07786 0.30101 0.0
C1222 C 0.81193 0.07388 0.23766 0.0
C1223 C 0.7969 0.07113 0.20547 0.0
C1224 C 0.78343 0.07036 0.26398 0.0
C1225 C 0.75299 0.06356 0.2001 0.0
C1226 C 0.72438 0.06047 0.22615 0.0
C1227 C 0.71034 0.06347 0.28432 0.0
C1228 C 0.72498 0.06827 0.31645 0.0
C1229 C 0.73917 0.0644 0.25814 0.0
C1230 C 0.76931 0.07233 0.32202 0.0
C1231 C 0.79824 0.07354 0.29604 0.0
H1232 H 0.40563 0.67702 0.27693 0.0
H1233 H 0.41623 0.78818 0.33861 0.0
H1234 H 0.41695 0.83481 0.29081 0.0
H1235 H 0.41198 0.84383 0.23182 0.0
H1236 H 0.40595 0.73271 0.16984 0.0
H1237 H 0.40634 0.68582 0.21762 0.0
C1238 C 0.40797 0.71152 0.27996 0.0
C1239 C 0.41005 0.72925 0.3114 0.0
C1240 C 0.40926 0.73789 0.25237 0.0
C1241 C 0.41426 0.77382 0.31481 0.0
C1242 C 0.41462 0.8004 0.28747 0.0
C1243 C 0.41083 0.80928 0.22873 0.0
C1244 C 0.40829 0.79168 0.19729 0.0
C1245 C 0.41172 0.78278 0.2562 0.0
C1246 C 0.40779 0.74695 0.19369 0.0
C1247 C 0.40784 0.72026 0.22102 0.0
H1248 H 0.66357 0.4153 0.24156 0.0
H1249 H 0.76779 0.43024 0.17361 0.0
H1250 H 0.81878 0.4356 0.21842 0.0
H1251 H 0.8342 0.43313 0.27663 0.0
H1252 H 0.72999 0.41982 0.34477 0.0
H1253 H 0.67857 0.41709 0.30002 0.0
C1254 C 0.69743 0.41988 0.23644 0.0
C1255 C 0.71174 0.422 0.20404 0.0
C1256 C 0.7266 0.42322 0.26238 0.0
C1257 C 0.75574 0.42845 0.19813 0.0
C1258 C 0.78497 0.43142 0.2238 0.0
C1259 C 0.80021 0.42984 0.28184 0.0
C1260 C 0.78614 0.42637 0.31422 0.0
C1261 C 0.77082 0.42841 0.25599 0.0
C1262 C 0.74186 0.42259 0.32025 0.0
C1263 C 0.71243 0.42086 0.29461 0.0
H1264 H 0.87371 0.24667 0.70082 0.0
H1265 H 0.98317 0.17784 0.7376 0.0
H1266 H 0.98127 0.22025 0.78746 0.0
H1267 H 0.94607 0.27441 0.82184 0.0
H1268 H 0.83422 0.34103 0.78576 0.0
H1269 H 0.83901 0.30175 0.73502 0.0
C1270 C 0.89778 0.24194 0.71944 0.0
C1271 C 0.92926 0.21007 0.7153 0.0
C1272 C 0.89542 0.26536 0.7486 0.0
C1273 C 0.95927 0.20291 0.74007 0.0
C1274 C 0.95787 0.22681 0.7687 0.0
C1275 C 0.92263 0.2803 0.80299 0.0
C1276 C 0.88982 0.31079 0.80797 0.0
C1277 C 0.92559 0.25761 0.77353 0.0
C1278 C 0.85987 0.31784 0.78293 0.0
C1279 C 0.86265 0.29547 0.75368 0.0
H1280 H 0.3396 0.89371 0.74316 0.0
H1281 H 0.23276 0.89237 0.6768 0.0
H1282 H 0.18239 0.89138 0.72242 0.0
H1283 H 0.16906 0.88867 0.78115 0.0
H1284 H 0.27554 0.89629 0.84754 0.0
H1285 H 0.32604 0.8971 0.80192 0.0
C1286 C 0.30525 0.89323 0.73873 0.0
C1287 C 0.2898 0.89253 0.70668 0.0
C1288 C 0.27663 0.89376 0.76504 0.0
C1289 C 0.24531 0.89282 0.70123 0.0
C1290 C 0.2166 0.89214 0.72729 0.0
C1291 C 0.20337 0.89067 0.78558 0.0
C1292 C 0.21876 0.89194 0.81761 0.0
C1293 C 0.23192 0.89225 0.75927 0.0
C1294 C 0.2631 0.89526 0.82309 0.0
C1295 C 0.29187 0.89559 0.79703 0.0
H1296 H 0.58015 0.17671 0.77836 0.0
H1297 H 0.58188 0.27836 0.84921 0.0
H1298 H 0.58457 0.33173 0.8057 0.0
H1299 H 0.59038 0.34907 0.74758 0.0
H1300 H 0.58681 0.24692 0.67711 0.0
H1301 H 0.5809 0.19411 0.72057 0.0
C1302 C 0.58084 0.21058 0.78439 0.0
C1303 C 0.58119 0.22347 0.81714 0.0
C1304 C 0.58232 0.24093 0.7593 0.0
C1305 C 0.58148 0.2675 0.82434 0.0
C1306 C 0.58328 0.298 0.79943 0.0
C1307 C 0.58818 0.31524 0.74168 0.0
C1308 C 0.58945 0.302 0.709 0.0
C1309 C 0.58438 0.28503 0.76684 0.0
C1310 C 0.58593 0.25807 0.7019 0.0
C1311 C 0.58265 0.22784 0.72679 0.0
H1312 H 0.34257 0.60848 0.77742 0.0
H1313 H 0.24019 0.593 0.84661 0.0
H1314 H 0.18732 0.59233 0.80273 0.0
H1315 H 0.17018 0.59727 0.74478 0.0
H1316 H 0.2726 0.60637 0.67499 0.0
H1317 H 0.32566 0.60811 0.7189 0.0
C1318 C 0.30865 0.60491 0.7828 0.0
C1319 C 0.29515 0.60118 0.81521 0.0
C1320 C 0.27859 0.60332 0.75735 0.0
C1321 C 0.25127 0.59585 0.82189 0.0
C1322 C 0.22109 0.59559 0.79681 0.0
C1323 C 0.20416 0.59959 0.73919 0.0
C1324 C 0.21749 0.60216 0.7067 0.0
C1325 C 0.23436 0.59946 0.76448 0.0
C1326 C 0.2616 0.60435 0.69978 0.0
C1327 C 0.29187 0.60549 0.72489 0.0
H1328 H 0.07833 0.51715 0.04061 0.0
H1329 H 0.98275 0.61745 0.03839 0.0
H1330 H 0.93431 0.57069 1.00809 0.0
H1331 H 0.91849 0.5011 0.98217 0.0
H1332 H 0.01421 0.40097 0.98387 0.0
H1333 H 0.06253 0.44753 0.01454 0.0
C1334 C 0.04707 0.52904 0.03327 0.0
C1335 C 0.03462 0.57121 0.04175 0.0
C1336 C 0.01896 0.50168 0.01598 0.0
C1337 C 0.9936 0.58547 0.0322 0.0
C1338 C 0.96566 0.55857 0.01492 0.0
C1339 C 0.94973 0.48918 0.9895 0.0
C1340 C 0.96228 0.44713 0.98078 0.0
C1341 C 0.97783 0.5165 1.00681 0.0
C1342 C 1.00331 0.43286 0.99027 0.0
C1343 C 0.03117 0.45965 1.00775 0.0
H1344 H 0.07394 0.0106 0.97016 0.0
H1345 H 0.0225 0.88536 0.99209 0.0
H1346 H 0.96303 0.91833 0.0214 0.0
H1347 H 0.92506 0.98264 0.04103 0.0
H1348 H 0.97717 0.10794 0.02045 0.0
H1349 H 0.03606 0.07511 0.99017 0.0
C1350 C 0.04994 0.99044 0.98155 0.0
C1351 C 0.05319 0.94536 0.97895 0.0
C1352 C 0.01537 0.00969 0.99836 0.0
C1353 C 0.0213 0.92002 0.99372 0.0
C1354 C 0.98699 0.9389 1.01043 0.0
C1355 C 0.949 1.0029 0.02967 0.0
C1356 C 0.94619 0.04792 0.03293 0.0
C1357 C 0.98351 0.98371 0.0128 0.0
C1358 C 0.97808 0.07332 0.01826 0.0
C1359 C 0.01204 0.05451 1.00104 0.0
H1360 H 0.51532 0.9262 0.03689 0.0
H1361 H 0.39136 0.98628 0.02501 0.0
H1362 H 0.42493 0.04705 0.99789 0.0
H1363 H 0.4895 0.08412 0.97771 0.0
H1364 H 0.61355 0.02411 0.98893 0.0
H1365 H 0.58012 0.96329 0.01633 0.0
C1366 C 0.49554 0.95232 0.02805 0.0
C1367 C 0.45063 0.95114 0.03291 0.0
C1368 C 0.51521 0.98781 0.01266 0.0
C1369 C 0.42586 0.98583 0.02155 0.0
C1370 C 0.4451 0.0209 1.00613 0.0
C1371 C 0.50937 0.05799 0.98642 0.0
C1372 C 0.55422 0.05921 0.98135 0.0
C1373 C 0.48978 0.02249 1.00174 0.0
C1374 C 0.57909 0.02451 0.99257 0.0
C1375 C 0.55991 0.98942 1.00814 0.0
H1376 H 0.43617 0.47858 0.96898 0.0
H1377 H 0.48919 0.60352 0.98994 0.0
H1378 H 0.54898 0.57022 0.01863 0.0
H1379 H 0.58665 0.50577 0.03806 0.0
H1380 H 0.53233 0.38088 0.01945 0.0
H1381 H 0.47352 0.41389 0.98919 0.0
C1382 C 0.4606 0.4986 0.98001 0.0
C1383 C 0.45773 0.54369 0.9773 0.0
C1384 C 0.49522 0.47917 0.99661 0.0
C1385 C 0.49009 0.56886 0.99168 0.0
C1386 C 0.52458 0.54979 1.00801 0.0
C1387 C 0.56222 0.48564 0.02716 0.0
C1388 C 0.56439 0.44068 0.03089 0.0
C1389 C 0.52764 0.50499 1.01054 0.0
C1390 C 0.53191 0.41543 0.01679 0.0
C1391 C 0.498 0.43436 0.99963 0.0
H1392 H 0.07391 0.99211 0.48168 0.0
H1393 H 0.98718 0.88636 0.49797 0.0
H1394 H 0.93883 0.93374 0.52799 0.0
H1395 H 0.92086 0.00541 0.54987 0.0
H1396 H 0.00743 0.11118 0.53294 0.0
H1397 H 0.05541 0.06386 0.5027 0.0
C1398 C 0.04463 0.9792 0.492 0.0
C1399 C 0.03468 0.9353 0.48769 0.0
C1400 C 0.01645 0.00691 0.50887 0.0
C1401 C 0.9961 0.91971 0.50099 0.0
C1402 C 0.96822 0.94694 0.51808 0.0
C1403 C 0.94994 0.01836 0.53926 0.0
C1404 C 0.96006 0.06223 0.54367 0.0
C1405 C 0.9779 0.99069 0.52208 0.0
C1406 C 0.99836 0.07787 0.52991 0.0
C1407 C 0.02608 0.05067 0.51271 0.0
H1408 H 0.5184 0.07309 0.48265 0.0
H1409 H 0.61987 0.97999 0.49444 0.0
H1410 H 0.57095 0.93289 0.52389 0.0
H1411 H 0.49899 0.91731 0.54594 0.0
H1412 H 0.39762 0.01056 0.53461 0.0
H1413 H 0.44657 0.05779 0.5052 0.0
C1414 C 0.53006 0.04274 0.49197 0.0
C1415 C 0.57316 0.03051 0.48639 0.0
C1416 C 0.50148 0.01536 0.50868 0.0
C1417 C 0.58717 0.99064 0.49842 0.0
C1418 C 0.55905 0.96344 0.51517 0.0
C1419 C 0.48738 0.94776 0.53679 0.0
C1420 C 0.4443 0.95998 0.54238 0.0
C1421 C 0.51601 0.97525 0.52024 0.0
C1422 C 0.43035 0.99999 0.53061 0.0
C1423 C 0.45847 0.02721 0.51387 0.0
H1424 H 0.58943 0.50986 0.54249 0.0
H1425 H 0.49868 0.40647 0.53018 0.0
H1426 H 0.45193 0.45351 0.49868 0.0
H1427 H 0.43588 0.52436 0.475 0.0
H1428 H 0.52658 0.62781 0.48702 0.0
H1429 H 0.57361 0.5807 0.51834 0.0
C1430 C 0.55966 0.49737 0.53266 0.0
C1431 C 0.54802 0.45425 0.5387 0.0
C1432 C 0.53243 0.52491 0.51475 0.0
C1433 C 0.50888 0.4392 0.52592 0.0
C1434 C 0.48189 0.46625 0.50797 0.0
C1435 C 0.46574 0.53685 0.48468 0.0
C1436 C 0.47722 0.58002 0.47874 0.0
C1437 C 0.4931 0.50928 0.50242 0.0
C1438 C 0.5165 0.59504 0.49126 0.0
C1439 C 0.54363 0.56796 0.50911 0.0
H1440 H 0.98751 0.42325 0.4814 0.0
H1441 H 0.88251 0.51125 0.49719 0.0
H1442 H 0.93 0.55855 0.5279 0.0
H1443 H 1.00181 0.57594 0.54969 0.0
H1444 H 0.10672 0.48782 0.534 0.0
H1445 H 0.05908 0.44025 0.50363 0.0
C1446 C 0.97478 0.45254 0.49181 0.0
C1447 C 0.93112 0.46328 0.48698 0.0
C1448 C 1.00254 0.48008 0.50918 0.0
C1449 C 0.91568 0.50174 0.50056 0.0
C1450 C 0.94298 0.52906 0.51802 0.0
C1451 C 0.01445 0.54653 0.5394 0.0
C1452 C 0.05817 0.5359 0.54402 0.0
C1453 C 0.98659 0.51882 0.52226 0.0
C1454 C 0.07348 0.49719 0.53078 0.0
C1455 C 0.04612 0.46976 0.51348 0.0
loop_
_geom_bond_atom_site_label_1
_geom_bond_atom_site_label_2
_geom_bond_distance
_geom_bond_site_symmetry_2
_ccdc_geom_bond_type
Co0 O2 2.143 . S
Co0 O8 2.074 . S
Co0 O11 2.093 . S
Co0 O24 2.097 . S
Co0 N41 2.151 . S
Co0 N49 2.214 . S
Co1 O2 2.160 . S
Co1 O7 2.058 . S
Co1 O17 2.057 . S
Co1 O32 2.037 . S
Co1 N36 2.145 . S
Co1 N57 2.257 1_455 S
O2 Co0 2.143 . S
O2 Co1 2.160 . S
C3 O4 1.278 1_455 S
C3 O11 1.224 . S
O4 C3 1.278 1_655 S
C5 O6 1.245 . S
C5 O17 1.232 . S
O6 C5 1.245 . S
O7 Co1 2.058 . S
O7 C33 1.269 . S
O8 Co0 2.074 . S
O8 C33 1.257 . S
H9 C34 0.930 . S
H10 C40 0.930 . S
O11 Co0 2.093 . S
O11 C3 1.224 . S
H12 C44 0.929 . S
H13 C46 0.930 . S
H14 C47 0.930 . S
H15 C45 0.929 . S
H16 C48 0.928 . S
O17 Co1 2.057 . S
O17 C5 1.232 . S
H18 C37 0.929 . S
H19 C38 0.929 . S
H20 C50 0.931 . S
H21 C42 0.929 . S
H22 C51 0.930 . S
H23 C43 0.931 . S
O24 Co0 2.097 . S
O24 C52 1.214 . S
H25 C53 0.929 . S
H26 C54 0.929 . S
H27 C55 0.930 . S
H28 C56 0.929 . S
H29 C58 0.930 . S
H30 C35 0.949 . S
H31 C39 0.930 . S
O32 Co1 2.037 . S
O32 C52 1.234 . S
C33 O7 1.269 . S
C33 O8 1.257 . S
C34 H9 0.930 . S
C34 C37 1.388 . S
C34 C39 1.418 . S
C35 H30 0.949 . S
C35 C38 1.404 . S
C35 C39 1.353 . S
N36 Co1 2.145 . S
N36 C37 1.397 . S
N36 C38 1.334 . S
C37 H18 0.929 . S
C37 C34 1.388 . S
C37 N36 1.397 . S
C38 H19 0.929 . S
C38 C35 1.404 . S
C38 N36 1.334 . S
C39 H31 0.930 . S
C39 C34 1.418 . S
C39 C35 1.353 . S
C40 H10 0.930 . S
C40 N41 1.330 . S
C40 C42 1.446 . S
N41 Co0 2.151 . S
N41 C40 1.330 . S
N41 C45 1.418 . S
C42 H21 0.929 . S
C42 C40 1.446 . S
C42 C43 1.332 . S
C43 H23 0.931 . S
C43 C42 1.332 . S
C43 C44 1.267 . S
C44 H12 0.929 . S
C44 C43 1.267 . S
C44 C45 1.251 . S
C45 H15 0.929 . S
C45 N41 1.418 . S
C45 C44 1.251 . S
C46 H13 0.930 . S
C46 C48 1.406 . S
C46 C51 1.261 . S
C47 H14 0.930 . S
C47 N49 1.325 . S
C47 C50 1.357 . S
C48 H16 0.928 . S
C48 C46 1.406 . S
C48 N49 1.261 . S
N49 Co0 2.214 . S
N49 C47 1.325 . S
N49 C48 1.261 . S
C50 H20 0.931 . S
C50 C47 1.357 . S
C50 C51 1.312 . S
C51 H22 0.930 . S
C51 C46 1.261 . S
C51 C50 1.312 . S
C52 O24 1.214 . S
C52 O32 1.234 . S
C53 H25 0.929 . S
C53 C56 1.391 . S
C53 C58 1.391 . S
C54 H26 0.929 . S
C54 C55 1.390 . S
C54 N57 1.391 . S
C55 H27 0.930 . S
C55 C54 1.390 . S
C55 C56 1.392 . S
C56 H28 0.929 . S
C56 C53 1.391 . S
C56 C55 1.392 . S
N57 Co1 2.257 1_655 S
N57 C54 1.391 . S
N57 C58 1.388 . S
C58 H29 0.930 . S
C58 C53 1.391 . S
C58 N57 1.388 . S
Co59 O61 2.143 . S
Co59 O67 2.074 . S
Co59 O70 2.093 . S
Co59 O83 2.097 . S
Co59 N100 2.151 . S
Co59 N108 2.214 . S
Co60 O61 2.160 . S
Co60 O66 2.058 . S
Co60 O76 2.057 . S
Co60 O91 2.037 . S
Co60 N95 2.145 . S
Co60 N116 2.257 1_545 S
O61 Co59 2.143 . S
O61 Co60 2.160 . S
C62 O63 1.278 1_545 S
C62 O70 1.224 . S
O63 C62 1.278 1_565 S
C64 O65 1.245 . S
C64 O76 1.232 . S
O65 C64 1.245 . S
O66 Co60 2.058 . S
O66 C92 1.269 . S
O67 Co59 2.074 . S
O67 C92 1.257 . S
H68 C93 0.930 . S
H69 C99 0.930 . S
O70 Co59 2.093 . S
O70 C62 1.224 . S
H71 C103 0.929 . S
H72 C105 0.930 . S
H73 C106 0.930 . S
H74 C104 0.929 . S
H75 C107 0.928 . S
O76 Co60 2.057 . S
O76 C64 1.232 . S
H77 C96 0.929 . S
H78 C97 0.929 . S
H79 C109 0.931 . S
H80 C101 0.923 1_455 S
H81 C110 0.930 . S
H82 C102 0.931 1_455 S
O83 Co59 2.097 . S
O83 C111 1.214 . S
H84 C112 0.929 . S
H85 C113 0.929 . S
H86 C114 0.930 . S
H87 C115 0.929 . S
H88 C117 0.930 . S
H89 C94 0.949 . S
H90 C98 0.930 . S
O91 Co60 2.037 . S
O91 C111 1.234 . S
C92 O66 1.269 . S
C92 O67 1.257 . S
C93 H68 0.930 . S
C93 C96 1.388 . S
C93 C98 1.418 . S
C94 H89 0.949 . S
C94 C97 1.404 . S
C94 C98 1.353 . S
N95 Co60 2.145 . S
N95 C96 1.397 . S
N95 C97 1.334 . S
C96 H77 0.929 . S
C96 C93 1.388 . S
C96 N95 1.397 . S
C97 H78 0.929 . S
C97 C94 1.404 . S
C97 N95 1.334 . S
C98 H90 0.930 . S
C98 C93 1.418 . S
C98 C94 1.353 . S
C99 H69 0.930 . S
C99 N100 1.330 . S
C99 C101 1.452 . S
N100 Co59 2.151 . S
N100 C99 1.330 . S
N100 C104 1.418 . S
C101 H80 0.923 1_655 S
C101 C99 1.452 . S
C101 C102 1.332 . S
C102 H82 0.931 1_655 S
C102 C101 1.332 . S
C102 C103 1.267 . S
C103 H71 0.929 . S
C103 C102 1.267 . S
C103 C104 1.251 . S
C104 H74 0.929 . S
C104 N100 1.418 . S
C104 C103 1.251 . S
C105 H72 0.930 . S
C105 C107 1.406 . S
C105 C110 1.261 . S
C106 H73 0.930 . S
C106 N108 1.325 . S
C106 C109 1.357 . S
C107 H75 0.928 . S
C107 C105 1.406 . S
C107 N108 1.261 . S
N108 Co59 2.214 . S
N108 C106 1.325 . S
N108 C107 1.261 . S
C109 H79 0.931 . S
C109 C106 1.357 . S
C109 C110 1.312 . S
C110 H81 0.930 . S
C110 C105 1.261 . S
C110 C109 1.312 . S
C111 O83 1.214 . S
C111 O91 1.234 . S
C112 H84 0.929 . S
C112 C115 1.391 . S
C112 C117 1.391 . S
C113 H85 0.929 . S
C113 C114 1.390 . S
C113 N116 1.391 . S
C114 H86 0.930 . S
C114 C113 1.390 . S
C114 C115 1.392 . S
C115 H87 0.929 . S
C115 C112 1.391 . S
C115 C114 1.392 . S
N116 Co60 2.257 1_565 S
N116 C113 1.391 . S
N116 C117 1.388 . S
C117 H88 0.930 . S
C117 C112 1.391 . S
C117 N116 1.388 . S
Co118 O120 2.143 . S
Co118 O126 2.074 . S
Co118 O129 2.093 . S
Co118 O142 2.097 . S
Co118 N159 2.151 . S
Co118 N167 2.214 . S
Co119 O120 2.160 . S
Co119 O125 2.058 . S
Co119 O135 2.057 . S
Co119 O150 2.037 . S
Co119 N154 2.145 . S
Co119 N175 2.257 . S
O120 Co118 2.143 . S
O120 Co119 2.160 . S
C121 O122 1.278 . S
C121 O129 1.224 . S
O122 C121 1.278 . S
C123 O124 1.245 . S
C123 O135 1.232 . S
O124 C123 1.245 . S
O125 Co119 2.058 . S
O125 C151 1.269 . S
O126 Co118 2.074 . S
O126 C151 1.257 . S
H127 C152 0.930 . S
H128 C158 0.930 . S
O129 Co118 2.093 . S
O129 C121 1.224 . S
H130 C162 0.929 . S
H131 C164 0.930 . S
H132 C165 0.930 . S
H133 C163 0.929 . S
H134 C166 0.928 . S
O135 Co119 2.057 . S
O135 C123 1.232 . S
H136 C155 0.929 . S
H137 C156 0.929 . S
H138 C168 0.931 . S
H139 C160 0.924 1_545 S
H140 C169 0.930 . S
H141 C161 0.931 1_545 S
O142 Co118 2.097 . S
O142 C170 1.214 . S
H143 C171 0.929 . S
H144 C172 0.929 . S
H145 C173 0.930 . S
H146 C174 0.929 . S
H147 C176 0.930 . S
H148 C153 0.949 . S
H149 C157 0.930 . S
O150 Co119 2.037 . S
O150 C170 1.234 . S
C151 O125 1.269 . S
C151 O126 1.257 . S
C152 H127 0.930 . S
C152 C155 1.388 . S
C152 C157 1.418 . S
C153 H148 0.949 . S
C153 C156 1.404 . S
C153 C157 1.353 . S
N154 Co119 2.145 . S
N154 C155 1.397 . S
N154 C156 1.334 . S
C155 H136 0.929 . S
C155 C152 1.388 . S
C155 N154 1.397 . S
C156 H137 0.929 . S
C156 C153 1.404 . S
C156 N154 1.334 . S
C157 H149 0.930 . S
C157 C152 1.418 . S
C157 C153 1.353 . S
C158 H128 0.930 . S
C158 N159 1.330 . S
C158 C160 1.451 . S
N159 Co118 2.151 . S
N159 C158 1.330 . S
N159 C163 1.418 . S
C160 H139 0.924 1_565 S
C160 C158 1.451 . S
C160 C161 1.332 . S
C161 H141 0.931 1_565 S
C161 C160 1.332 . S
C161 C162 1.267 . S
C162 H130 0.929 . S
C162 C161 1.267 . S
C162 C163 1.251 . S
C163 H133 0.929 . S
C163 N159 1.418 . S
C163 C162 1.251 . S
C164 H131 0.930 . S
C164 C166 1.406 . S
C164 C169 1.261 . S
C165 H132 0.930 . S
C165 N167 1.325 . S
C165 C168 1.357 . S
C166 H134 0.928 . S
C166 C164 1.406 . S
C166 N167 1.261 . S
N167 Co118 2.214 . S
N167 C165 1.325 . S
N167 C166 1.261 . S
C168 H138 0.931 . S
C168 C165 1.357 . S
C168 C169 1.312 . S
C169 H140 0.930 . S
C169 C164 1.261 . S
C169 C168 1.312 . S
C170 O142 1.214 . S
C170 O150 1.234 . S
C171 H143 0.929 . S
C171 C174 1.391 . S
C171 C176 1.391 . S
C172 H144 0.929 . S
C172 C173 1.390 . S
C172 N175 1.391 . S
C173 H145 0.930 . S
C173 C172 1.390 . S
C173 C174 1.392 . S
C174 H146 0.929 . S
C174 C171 1.391 . S
C174 C173 1.392 . S
N175 Co119 2.257 . S
N175 C172 1.391 . S
N175 C176 1.388 . S
C176 H147 0.930 . S
C176 C171 1.391 . S
C176 N175 1.388 . S
Co177 O179 2.143 . S
Co177 O185 2.074 . S
Co177 O188 2.093 . S
Co177 O201 2.097 . S
Co177 N218 2.151 . S
Co177 N226 2.214 . S
Co178 O179 2.160 . S
Co178 O184 2.058 . S
Co178 O194 2.057 . S
Co178 O209 2.037 . S
Co178 N213 2.145 . S
Co178 N234 2.257 . S
O179 Co177 2.143 . S
O179 Co178 2.160 . S
C180 O181 1.278 . S
C180 O188 1.224 . S
O181 C180 1.278 . S
C182 O183 1.245 . S
C182 O194 1.232 . S
O183 C182 1.245 . S
O184 Co178 2.058 . S
O184 C210 1.269 . S
O185 Co177 2.074 . S
O185 C210 1.257 . S
H186 C211 0.930 . S
H187 C217 0.930 . S
O188 Co177 2.093 . S
O188 C180 1.224 . S
H189 C221 0.929 . S
H190 C223 0.930 . S
H191 C224 0.930 . S
H192 C222 0.929 . S
H193 C225 0.928 . S
O194 Co178 2.057 . S
O194 C182 1.232 . S
H195 C214 0.929 . S
H196 C215 0.929 . S
H197 C227 0.931 . S
H198 C219 0.929 . S
H199 C228 0.930 . S
H200 C220 0.931 . S
O201 Co177 2.097 . S
O201 C229 1.214 . S
H202 C230 0.929 . S
H203 C231 0.929 . S
H204 C232 0.930 . S
H205 C233 0.929 . S
H206 C235 0.930 . S
H207 C212 0.949 . S
H208 C216 0.930 . S
O209 Co178 2.037 . S
O209 C229 1.234 . S
C210 O184 1.269 . S
C210 O185 1.257 . S
C211 H186 0.930 . S
C211 C214 1.388 . S
C211 C216 1.418 . S
C212 H207 0.949 . S
C212 C215 1.404 . S
C212 C216 1.353 . S
N213 Co178 2.145 . S
N213 C214 1.397 . S
N213 C215 1.334 . S
C214 H195 0.929 . S
C214 C211 1.388 . S
C214 N213 1.397 . S
C215 H196 0.929 . S
C215 C212 1.404 . S
C215 N213 1.334 . S
C216 H208 0.930 . S
C216 C211 1.418 . S
C216 C212 1.353 . S
C217 H187 0.930 . S
C217 N218 1.330 . S
C217 C219 1.446 . S
N218 Co177 2.151 . S
N218 C217 1.330 . S
N218 C222 1.418 . S
C219 H198 0.929 . S
C219 C217 1.446 . S
C219 C220 1.332 . S
C220 H200 0.931 . S
C220 C219 1.332 . S
C220 C221 1.267 . S
C221 H189 0.929 . S
C221 C220 1.267 . S
C221 C222 1.251 . S
C222 H192 0.929 . S
C222 N218 1.418 . S
C222 C221 1.251 . S
C223 H190 0.930 . S
C223 C225 1.406 . S
C223 C228 1.261 . S
C224 H191 0.930 . S
C224 N226 1.325 . S
C224 C227 1.357 . S
C225 H193 0.928 . S
C225 C223 1.406 . S
C225 N226 1.261 . S
N226 Co177 2.214 . S
N226 C224 1.325 . S
N226 C225 1.261 . S
C227 H197 0.931 . S
C227 C224 1.357 . S
C227 C228 1.312 . S
C228 H199 0.930 . S
C228 C223 1.261 . S
C228 C227 1.312 . S
C229 O201 1.214 . S
C229 O209 1.234 . S
C230 H202 0.929 . S
C230 C233 1.391 . S
C230 C235 1.391 . S
C231 H203 0.929 . S
C231 C232 1.390 . S
C231 N234 1.391 . S
C232 H204 0.930 . S
C232 C231 1.390 . S
C232 C233 1.392 . S
C233 H205 0.929 . S
C233 C230 1.391 . S
C233 C232 1.392 . S
N234 Co178 2.257 . S
N234 C231 1.391 . S
N234 C235 1.388 . S
C235 H206 0.930 . S
C235 C230 1.391 . S
C235 N234 1.388 . S
Co236 O238 2.143 . S
Co236 O244 2.074 . S
Co236 O247 2.093 . S
Co236 O260 2.097 . S
Co236 N277 2.151 . S
Co236 N285 2.214 . S
Co237 O238 2.160 . S
Co237 O243 2.058 . S
Co237 O253 2.057 . S
Co237 O268 2.037 . S
Co237 N272 2.145 . S
Co237 N293 2.257 1_455 S
O238 Co236 2.143 . S
O238 Co237 2.160 . S
C239 O240 1.278 1_455 S
C239 O247 1.224 . S
O240 C239 1.278 1_655 S
C241 O242 1.245 . S
C241 O253 1.232 . S
O242 C241 1.245 . S
O243 Co237 2.058 . S
O243 C269 1.269 . S
O244 Co236 2.074 . S
O244 C269 1.257 . S
H245 C270 0.930 . S
H246 C276 0.930 . S
O247 Co236 2.093 . S
O247 C239 1.224 . S
H248 C280 0.929 . S
H249 C282 0.930 . S
H250 C283 0.930 . S
H251 C281 0.929 . S
H252 C284 0.928 . S
O253 Co237 2.057 . S
O253 C241 1.232 . S
H254 C273 0.929 . S
H255 C274 0.929 . S
H256 C286 0.931 . S
H257 C278 0.923 1_545 S
H258 C287 0.930 . S
H259 C279 0.931 1_545 S
O260 Co236 2.097 . S
O260 C288 1.214 . S
H261 C289 0.929 . S
H262 C290 0.929 . S
H263 C291 0.930 . S
H264 C292 0.929 . S
H265 C294 0.930 . S
H266 C271 0.930 . S
H267 C275 0.930 . S
O268 Co237 2.037 . S
O268 C288 1.234 . S
C269 O243 1.269 . S
C269 O244 1.257 . S
C270 H245 0.930 . S
C270 C273 1.388 . S
C270 C275 1.418 . S
C271 H266 0.930 . S
C271 C274 1.404 . S
C271 C275 1.353 . S
N272 Co237 2.145 . S
N272 C273 1.397 . S
N272 C274 1.334 . S
C273 H254 0.929 . S
C273 C270 1.388 . S
C273 N272 1.397 . S
C274 H255 0.929 . S
C274 C271 1.404 . S
C274 N272 1.334 . S
C275 H267 0.930 . S
C275 C270 1.418 . S
C275 C271 1.353 . S
C276 H246 0.930 . S
C276 N277 1.330 . S
C276 C278 1.452 . S
N277 Co236 2.151 . S
N277 C276 1.330 . S
N277 C281 1.418 . S
C278 H257 0.923 1_565 S
C278 C276 1.452 . S
C278 C279 1.332 . S
C279 H259 0.931 1_565 S
C279 C278 1.332 . S
C279 C280 1.267 . S
C280 H248 0.929 . S
C280 C279 1.267 . S
C280 C281 1.251 . S
C281 H251 0.929 . S
C281 N277 1.418 . S
C281 C280 1.251 . S
C282 H249 0.930 . S
C282 C284 1.406 . S
C282 C287 1.261 . S
C283 H250 0.930 . S
C283 N285 1.325 . S
C283 C286 1.357 . S
C284 H252 0.928 . S
C284 C282 1.406 . S
C284 N285 1.261 . S
N285 Co236 2.214 . S
N285 C283 1.325 . S
N285 C284 1.261 . S
C286 H256 0.931 . S
C286 C283 1.357 . S
C286 C287 1.312 . S
C287 H258 0.930 . S
C287 C282 1.261 . S
C287 C286 1.312 . S
C288 O260 1.214 . S
C288 O268 1.234 . S
C289 H261 0.929 . S
C289 C292 1.391 . S
C289 C294 1.391 . S
C290 H262 0.929 . S
C290 C291 1.390 . S
C290 N293 1.391 . S
C291 H263 0.930 . S
C291 C290 1.390 . S
C291 C292 1.392 . S
C292 H264 0.929 . S
C292 C289 1.391 . S
C292 C291 1.392 . S
N293 Co237 2.257 1_655 S
N293 C290 1.391 . S
N293 C294 1.388 . S
C294 H265 0.930 . S
C294 C289 1.391 . S
C294 N293 1.388 . S
Co295 O297 2.143 . S
Co295 O303 2.074 . S
Co295 O306 2.093 . S
Co295 O319 2.097 . S
Co295 N336 2.151 . S
Co295 N344 2.214 . S
Co296 O297 2.160 . S
Co296 O302 2.058 . S
Co296 O312 2.057 . S
Co296 O327 2.037 . S
Co296 N331 2.145 . S
Co296 N352 2.257 1_545 S
O297 Co295 2.143 . S
O297 Co296 2.160 . S
C298 O299 1.278 1_545 S
C298 O306 1.224 . S
O299 C298 1.278 1_565 S
C300 O301 1.245 . S
C300 O312 1.232 . S
O301 C300 1.245 . S
O302 Co296 2.058 . S
O302 C328 1.269 . S
O303 Co295 2.074 . S
O303 C328 1.257 . S
H304 C329 0.930 . S
H305 C335 0.930 . S
O306 Co295 2.093 . S
O306 C298 1.224 . S
H307 C339 0.929 . S
H308 C341 0.930 . S
H309 C342 0.930 . S
H310 C340 0.929 . S
H311 C343 0.928 . S
O312 Co296 2.057 . S
O312 C300 1.232 . S
H313 C332 0.929 . S
H314 C333 0.929 . S
H315 C345 0.931 . S
H316 C337 0.929 . S
H317 C346 0.930 . S
H318 C338 0.931 . S
O319 Co295 2.097 . S
O319 C347 1.214 . S
H320 C348 0.929 . S
H321 C349 0.929 . S
H322 C350 0.930 . S
H323 C351 0.929 . S
H324 C353 0.930 . S
H325 C330 0.930 . S
H326 C334 0.930 . S
O327 Co296 2.037 . S
O327 C347 1.234 . S
C328 O302 1.269 . S
C328 O303 1.257 . S
C329 H304 0.930 . S
C329 C332 1.388 . S
C329 C334 1.418 . S
C330 H325 0.930 . S
C330 C333 1.404 . S
C330 C334 1.353 . S
N331 Co296 2.145 . S
N331 C332 1.397 . S
N331 C333 1.334 . S
C332 H313 0.929 . S
C332 C329 1.388 . S
C332 N331 1.397 . S
C333 H314 0.929 . S
C333 C330 1.404 . S
C333 N331 1.334 . S
C334 H326 0.930 . S
C334 C329 1.418 . S
C334 C330 1.353 . S
C335 H305 0.930 . S
C335 N336 1.330 . S
C335 C337 1.446 . S
N336 Co295 2.151 . S
N336 C335 1.330 . S
N336 C340 1.418 . S
C337 H316 0.929 . S
C337 C335 1.446 . S
C337 C338 1.332 . S
C338 H318 0.931 . S
C338 C337 1.332 . S
C338 C339 1.267 . S
C339 H307 0.929 . S
C339 C338 1.267 . S
C339 C340 1.251 . S
C340 H310 0.929 . S
C340 N336 1.418 . S
C340 C339 1.251 . S
C341 H308 0.930 . S
C341 C343 1.406 . S
C341 C346 1.261 . S
C342 H309 0.930 . S
C342 N344 1.325 . S
C342 C345 1.357 . S
C343 H311 0.928 . S
C343 C341 1.406 . S
C343 N344 1.261 . S
N344 Co295 2.214 . S
N344 C342 1.325 . S
N344 C343 1.261 . S
C345 H315 0.931 . S
C345 C342 1.357 . S
C345 C346 1.312 . S
C346 H317 0.930 . S
C346 C341 1.261 . S
C346 C345 1.312 . S
C347 O319 1.214 . S
C347 O327 1.234 . S
C348 H320 0.929 . S
C348 C351 1.391 . S
C348 C353 1.391 . S
C349 H321 0.929 . S
C349 C350 1.390 . S
C349 N352 1.391 . S
C350 H322 0.930 . S
C350 C349 1.390 . S
C350 C351 1.392 . S
C351 H323 0.929 . S
C351 C348 1.391 . S
C351 C350 1.392 . S
N352 Co296 2.257 1_565 S
N352 C349 1.391 . S
N352 C353 1.388 . S
C353 H324 0.930 . S
C353 C348 1.391 . S
C353 N352 1.388 . S
Co354 O356 2.143 . S
Co354 O362 2.074 . S
Co354 O365 2.093 . S
Co354 O378 2.097 . S
Co354 N395 2.151 . S
Co354 N403 2.214 . S
Co355 O356 2.160 . S
Co355 O361 2.058 . S
Co355 O371 2.057 . S
Co355 O386 2.037 . S
Co355 N390 2.145 . S
Co355 N411 2.257 . S
O356 Co354 2.143 . S
O356 Co355 2.160 . S
C357 O358 1.278 . S
C357 O365 1.224 . S
O358 C357 1.278 . S
C359 O360 1.245 . S
C359 O371 1.232 . S
O360 C359 1.245 . S
O361 Co355 2.058 . S
O361 C387 1.269 . S
O362 Co354 2.074 . S
O362 C387 1.257 . S
H363 C388 0.930 . S
H364 C394 0.930 . S
O365 Co354 2.093 . S
O365 C357 1.224 . S
H366 C398 0.929 . S
H367 C400 0.930 . S
H368 C401 0.930 . S
H369 C399 0.929 . S
H370 C402 0.928 . S
O371 Co355 2.057 . S
O371 C359 1.232 . S
H372 C391 0.929 . S
H373 C392 0.929 . S
H374 C404 0.931 . S
H375 C396 0.929 . S
H376 C405 0.930 . S
H377 C397 0.931 . S
O378 Co354 2.097 . S
O378 C406 1.214 . S
H379 C407 0.929 . S
H380 C408 0.929 . S
H381 C409 0.930 . S
H382 C410 0.929 . S
H383 C412 0.930 . S
H384 C389 0.930 . S
H385 C393 0.930 . S
O386 Co355 2.037 . S
O386 C406 1.234 . S
C387 O361 1.269 . S
C387 O362 1.257 . S
C388 H363 0.930 . S
C388 C391 1.388 . S
C388 C393 1.418 . S
C389 H384 0.930 . S
C389 C392 1.404 . S
C389 C393 1.353 . S
N390 Co355 2.145 . S
N390 C391 1.397 . S
N390 C392 1.334 . S
C391 H372 0.929 . S
C391 C388 1.388 . S
C391 N390 1.397 . S
C392 H373 0.929 . S
C392 C389 1.404 . S
C392 N390 1.334 . S
C393 H385 0.930 . S
C393 C388 1.418 . S
C393 C389 1.353 . S
C394 H364 0.930 . S
C394 N395 1.330 . S
C394 C396 1.446 . S
N395 Co354 2.151 . S
N395 C394 1.330 . S
N395 C399 1.418 . S
C396 H375 0.929 . S
C396 C394 1.446 . S
C396 C397 1.332 . S
C397 H377 0.931 . S
C397 C396 1.332 . S
C397 C398 1.267 . S
C398 H366 0.929 . S
C398 C397 1.267 . S
C398 C399 1.251 . S
C399 H369 0.929 . S
C399 N395 1.418 . S
C399 C398 1.251 . S
C400 H367 0.930 . S
C400 C402 1.406 . S
C400 C405 1.261 . S
C401 H368 0.930 . S
C401 N403 1.325 . S
C401 C404 1.357 . S
C402 H370 0.928 . S
C402 C400 1.406 . S
C402 N403 1.261 . S
N403 Co354 2.214 . S
N403 C401 1.325 . S
N403 C402 1.261 . S
C404 H374 0.931 . S
C404 C401 1.357 . S
C404 C405 1.312 . S
C405 H376 0.930 . S
C405 C400 1.261 . S
C405 C404 1.312 . S
C406 O378 1.214 . S
C406 O386 1.234 . S
C407 H379 0.929 . S
C407 C410 1.391 . S
C407 C412 1.391 . S
C408 H380 0.929 . S
C408 C409 1.390 . S
C408 N411 1.391 . S
C409 H381 0.930 . S
C409 C408 1.390 . S
C409 C410 1.392 . S
C410 H382 0.929 . S
C410 C407 1.391 . S
C410 C409 1.392 . S
N411 Co355 2.257 . S
N411 C408 1.391 . S
N411 C412 1.388 . S
C412 H383 0.930 . S
C412 C407 1.391 . S
C412 N411 1.388 . S
Co413 O415 2.143 . S
Co413 O421 2.074 . S
Co413 O424 2.093 . S
Co413 O437 2.097 . S
Co413 N454 2.151 . S
Co413 N462 2.214 . S
Co414 O415 2.160 . S
Co414 O420 2.058 . S
Co414 O430 2.057 . S
Co414 O445 2.037 . S
Co414 N449 2.145 . S
Co414 N470 2.257 . S
O415 Co413 2.143 . S
O415 Co414 2.160 . S
C416 O417 1.278 . S
C416 O424 1.224 . S
O417 C416 1.278 . S
C418 O419 1.245 . S
C418 O430 1.232 . S
O419 C418 1.245 . S
O420 Co414 2.058 . S
O420 C446 1.269 . S
O421 Co413 2.074 . S
O421 C446 1.257 . S
H422 C447 0.930 . S
H423 C453 0.930 . S
O424 Co413 2.093 . S
O424 C416 1.224 . S
H425 C457 0.929 . S
H426 C459 0.930 . S
H427 C460 0.930 . S
H428 C458 0.929 . S
H429 C461 0.928 . S
O430 Co414 2.057 . S
O430 C418 1.232 . S
H431 C450 0.929 . S
H432 C451 0.929 . S
H433 C463 0.931 . S
H434 C455 0.923 1_455 S
H435 C464 0.930 . S
H436 C456 0.931 1_455 S
O437 Co413 2.097 . S
O437 C465 1.214 . S
H438 C466 0.929 . S
H439 C467 0.929 . S
H440 C468 0.930 . S
H441 C469 0.929 . S
H442 C471 0.930 . S
H443 C448 0.930 . S
H444 C452 0.930 . S
O445 Co414 2.037 . S
O445 C465 1.234 . S
C446 O420 1.269 . S
C446 O421 1.257 . S
C447 H422 0.930 . S
C447 C450 1.388 . S
C447 C452 1.418 . S
C448 H443 0.930 . S
C448 C451 1.404 . S
C448 C452 1.353 . S
N449 Co414 2.145 . S
N449 C450 1.397 . S
N449 C451 1.334 . S
C450 H431 0.929 . S
C450 C447 1.388 . S
C450 N449 1.397 . S
C451 H432 0.929 . S
C451 C448 1.404 . S
C451 N449 1.334 . S
C452 H444 0.930 . S
C452 C447 1.418 . S
C452 C448 1.353 . S
C453 H423 0.930 . S
C453 N454 1.330 . S
C453 C455 1.452 . S
N454 Co413 2.151 . S
N454 C453 1.330 . S
N454 C458 1.418 . S
C455 H434 0.923 1_655 S
C455 C453 1.452 . S
C455 C456 1.332 . S
C456 H436 0.931 1_655 S
C456 C455 1.332 . S
C456 C457 1.267 . S
C457 H425 0.929 . S
C457 C456 1.267 . S
C457 C458 1.251 . S
C458 H428 0.929 . S
C458 N454 1.418 . S
C458 C457 1.251 . S
C459 H426 0.930 . S
C459 C461 1.406 . S
C459 C464 1.261 . S
C460 H427 0.930 . S
C460 N462 1.325 . S
C460 C463 1.357 . S
C461 H429 0.928 . S
C461 C459 1.406 . S
C461 N462 1.261 . S
N462 Co413 2.214 . S
N462 C460 1.325 . S
N462 C461 1.261 . S
C463 H433 0.931 . S
C463 C460 1.357 . S
C463 C464 1.312 . S
C464 H435 0.930 . S
C464 C459 1.261 . S
C464 C463 1.312 . S
C465 O437 1.214 . S
C465 O445 1.234 . S
C466 H438 0.929 . S
C466 C469 1.391 . S
C466 C471 1.391 . S
C467 H439 0.929 . S
C467 C468 1.390 . S
C467 N470 1.391 . S
C468 H440 0.930 . S
C468 C467 1.390 . S
C468 C469 1.392 . S
C469 H441 0.929 . S
C469 C466 1.391 . S
C469 C468 1.392 . S
N470 Co414 2.257 . S
N470 C467 1.391 . S
N470 C471 1.388 . S
C471 H442 0.930 . S
C471 C466 1.391 . S
C471 N470 1.388 . S
Co472 O474 2.143 . S
Co472 O480 2.074 . S
Co472 O483 2.093 . S
Co472 O496 2.097 . S
Co472 N513 2.151 . S
Co472 N521 2.214 . S
Co473 O474 2.160 . S
Co473 O479 2.058 . S
Co473 O489 2.057 . S
Co473 O504 2.037 . S
Co473 N508 2.145 . S
Co473 N529 2.257 1_655 S
O474 Co472 2.143 . S
O474 Co473 2.160 . S
C475 O476 1.278 1_655 S
C475 O483 1.224 . S
O476 C475 1.278 1_455 S
C477 O478 1.245 . S
C477 O489 1.232 . S
O478 C477 1.245 . S
O479 Co473 2.058 . S
O479 C505 1.269 . S
O480 Co472 2.074 . S
O480 C505 1.257 . S
H481 C506 0.930 . S
H482 C512 0.930 . S
O483 Co472 2.093 . S
O483 C475 1.224 . S
H484 C516 0.929 . S
H485 C518 0.930 . S
H486 C519 0.930 . S
H487 C517 0.929 . S
H488 C520 0.928 . S
O489 Co473 2.057 . S
O489 C477 1.232 . S
H490 C509 0.929 . S
H491 C510 0.929 . S
H492 C522 0.931 . S
H493 C514 0.929 . S
H494 C523 0.930 . S
H495 C515 0.931 . S
O496 Co472 2.097 . S
O496 C524 1.214 . S
H497 C525 0.929 . S
H498 C526 0.929 . S
H499 C527 0.930 . S
H500 C528 0.929 . S
H501 C530 0.930 . S
H502 C507 0.949 . S
H503 C511 0.930 . S
O504 Co473 2.037 . S
O504 C524 1.234 . S
C505 O479 1.269 . S
C505 O480 1.257 . S
C506 H481 0.930 . S
C506 C509 1.388 . S
C506 C511 1.418 . S
C507 H502 0.949 . S
C507 C510 1.404 . S
C507 C511 1.353 . S
N508 Co473 2.145 . S
N508 C509 1.397 . S
N508 C510 1.334 . S
C509 H490 0.929 . S
C509 C506 1.388 . S
C509 N508 1.397 . S
C510 H491 0.929 . S
C510 C507 1.404 . S
C510 N508 1.334 . S
C511 H503 0.930 . S
C511 C506 1.418 . S
C511 C507 1.353 . S
C512 H482 0.930 . S
C512 N513 1.330 . S
C512 C514 1.446 . S
N513 Co472 2.151 . S
N513 C512 1.330 . S
N513 C517 1.418 . S
C514 H493 0.929 . S
C514 C512 1.446 . S
C514 C515 1.332 . S
C515 H495 0.931 . S
C515 C514 1.332 . S
C515 C516 1.267 . S
C516 H484 0.929 . S
C516 C515 1.267 . S
C516 C517 1.251 . S
C517 H487 0.929 . S
C517 N513 1.418 . S
C517 C516 1.251 . S
C518 H485 0.930 . S
C518 C520 1.406 . S
C518 C523 1.261 . S
C519 H486 0.930 . S
C519 N521 1.325 . S
C519 C522 1.357 . S
C520 H488 0.928 . S
C520 C518 1.406 . S
C520 N521 1.261 . S
N521 Co472 2.214 . S
N521 C519 1.325 . S
N521 C520 1.261 . S
C522 H492 0.931 . S
C522 C519 1.357 . S
C522 C523 1.312 . S
C523 H494 0.930 . S
C523 C518 1.261 . S
C523 C522 1.312 . S
C524 O496 1.214 . S
C524 O504 1.234 . S
C525 H497 0.929 . S
C525 C528 1.391 . S
C525 C530 1.391 . S
C526 H498 0.929 . S
C526 C527 1.390 . S
C526 N529 1.391 . S
C527 H499 0.930 . S
C527 C526 1.390 . S
C527 C528 1.392 . S
C528 H500 0.929 . S
C528 C525 1.391 . S
C528 C527 1.392 . S
N529 Co473 2.257 1_455 S
N529 C526 1.391 . S
N529 C530 1.388 . S
C530 H501 0.930 . S
C530 C525 1.391 . S
C530 N529 1.388 . S
Co531 O533 2.143 . S
Co531 O539 2.074 . S
Co531 O542 2.093 . S
Co531 O555 2.097 . S
Co531 N572 2.151 . S
Co531 N580 2.214 . S
Co532 O533 2.160 . S
Co532 O538 2.058 . S
Co532 O548 2.057 . S
Co532 O563 2.037 . S
Co532 N567 2.145 . S
Co532 N588 2.257 1_565 S
O533 Co531 2.143 . S
O533 Co532 2.160 . S
C534 O535 1.278 1_565 S
C534 O542 1.224 . S
O535 C534 1.278 1_545 S
C536 O537 1.245 . S
C536 O548 1.232 . S
O537 C536 1.245 . S
O538 Co532 2.058 . S
O538 C564 1.269 . S
O539 Co531 2.074 . S
O539 C564 1.257 . S
H540 C565 0.930 . S
H541 C571 0.930 . S
O542 Co531 2.093 . S
O542 C534 1.224 . S
H543 C575 0.929 . S
H544 C577 0.930 . S
H545 C578 0.930 . S
H546 C576 0.929 . S
H547 C579 0.928 . S
O548 Co532 2.057 . S
O548 C536 1.232 . S
H549 C568 0.929 . S
H550 C569 0.929 . S
H551 C581 0.931 . S
H552 C573 0.923 1_655 S
H553 C582 0.930 . S
H554 C574 0.931 1_655 S
O555 Co531 2.097 . S
O555 C583 1.214 . S
H556 C584 0.929 . S
H557 C585 0.929 . S
H558 C586 0.930 . S
H559 C587 0.929 . S
H560 C589 0.930 . S
H561 C566 0.949 . S
H562 C570 0.930 . S
O563 Co532 2.037 . S
O563 C583 1.234 . S
C564 O538 1.269 . S
C564 O539 1.257 . S
C565 H540 0.930 . S
C565 C568 1.388 . S
C565 C570 1.418 . S
C566 H561 0.949 . S
C566 C569 1.404 . S
C566 C570 1.353 . S
N567 Co532 2.145 . S
N567 C568 1.397 . S
N567 C569 1.334 . S
C568 H549 0.929 . S
C568 C565 1.388 . S
C568 N567 1.397 . S
C569 H550 0.929 . S
C569 C566 1.404 . S
C569 N567 1.334 . S
C570 H562 0.930 . S
C570 C565 1.418 . S
C570 C566 1.353 . S
C571 H541 0.930 . S
C571 N572 1.330 . S
C571 C573 1.452 . S
N572 Co531 2.151 . S
N572 C571 1.330 . S
N572 C576 1.418 . S
C573 H552 0.923 1_455 S
C573 C571 1.452 . S
C573 C574 1.332 . S
C574 H554 0.931 1_455 S
C574 C573 1.332 . S
C574 C575 1.267 . S
C575 H543 0.929 . S
C575 C574 1.267 . S
C575 C576 1.251 . S
C576 H546 0.929 . S
C576 N572 1.418 . S
C576 C575 1.251 . S
C577 H544 0.930 . S
C577 C579 1.406 . S
C577 C582 1.261 . S
C578 H545 0.930 . S
C578 N580 1.325 . S
C578 C581 1.357 . S
C579 H547 0.928 . S
C579 C577 1.406 . S
C579 N580 1.261 . S
N580 Co531 2.214 . S
N580 C578 1.325 . S
N580 C579 1.261 . S
C581 H551 0.931 . S
C581 C578 1.357 . S
C581 C582 1.312 . S
C582 H553 0.930 . S
C582 C577 1.261 . S
C582 C581 1.312 . S
C583 O555 1.214 . S
C583 O563 1.234 . S
C584 H556 0.929 . S
C584 C587 1.391 . S
C584 C589 1.391 . S
C585 H557 0.929 . S
C585 C586 1.390 . S
C585 N588 1.391 . S
C586 H558 0.930 . S
C586 C585 1.390 . S
C586 C587 1.392 . S
C587 H559 0.929 . S
C587 C584 1.391 . S
C587 C586 1.392 . S
N588 Co532 2.257 1_545 S
N588 C585 1.391 . S
N588 C589 1.388 . S
C589 H560 0.930 . S
C589 C584 1.391 . S
C589 N588 1.388 . S
Co590 O592 2.143 . S
Co590 O598 2.074 . S
Co590 O601 2.093 . S
Co590 O614 2.097 . S
Co590 N631 2.151 . S
Co590 N639 2.214 . S
Co591 O592 2.160 . S
Co591 O597 2.058 . S
Co591 O607 2.057 . S
Co591 O622 2.037 . S
Co591 N626 2.145 . S
Co591 N647 2.257 . S
O592 Co590 2.143 . S
O592 Co591 2.160 . S
C593 O594 1.278 . S
C593 O601 1.224 . S
O594 C593 1.278 . S
C595 O596 1.245 . S
C595 O607 1.232 . S
O596 C595 1.245 . S
O597 Co591 2.058 . S
O597 C623 1.269 . S
O598 Co590 2.074 . S
O598 C623 1.257 . S
H599 C624 0.930 . S
H600 C630 0.930 . S
O601 Co590 2.093 . S
O601 C593 1.224 . S
H602 C634 0.929 . S
H603 C636 0.930 . S
H604 C637 0.930 . S
H605 C635 0.929 . S
H606 C638 0.928 . S
O607 Co591 2.057 . S
O607 C595 1.232 . S
H608 C627 0.929 . S
H609 C628 0.929 . S
H610 C640 0.931 . S
H611 C632 0.924 1_565 S
H612 C641 0.930 . S
H613 C633 0.931 1_565 S
O614 Co590 2.097 . S
O614 C642 1.214 . S
H615 C643 0.929 . S
H616 C644 0.929 . S
H617 C645 0.930 . S
H618 C646 0.929 . S
H619 C648 0.930 . S
H620 C625 0.949 . S
H621 C629 0.930 . S
O622 Co591 2.037 . S
O622 C642 1.234 . S
C623 O597 1.269 . S
C623 O598 1.257 . S
C624 H599 0.930 . S
C624 C627 1.388 . S
C624 C629 1.418 . S
C625 H620 0.949 . S
C625 C628 1.404 . S
C625 C629 1.353 . S
N626 Co591 2.145 . S
N626 C627 1.397 . S
N626 C628 1.334 . S
C627 H608 0.929 . S
C627 C624 1.388 . S
C627 N626 1.397 . S
C628 H609 0.929 . S
C628 C625 1.404 . S
C628 N626 1.334 . S
C629 H621 0.930 . S
C629 C624 1.418 . S
C629 C625 1.353 . S
C630 H600 0.930 . S
C630 N631 1.330 . S
C630 C632 1.451 . S
N631 Co590 2.151 . S
N631 C630 1.330 . S
N631 C635 1.418 . S
C632 H611 0.924 1_545 S
C632 C630 1.451 . S
C632 C633 1.332 . S
C633 H613 0.931 1_545 S
C633 C632 1.332 . S
C633 C634 1.267 . S
C634 H602 0.929 . S
C634 C633 1.267 . S
C634 C635 1.251 . S
C635 H605 0.929 . S
C635 N631 1.418 . S
C635 C634 1.251 . S
C636 H603 0.930 . S
C636 C638 1.406 . S
C636 C641 1.261 . S
C637 H604 0.930 . S
C637 N639 1.325 . S
C637 C640 1.357 . S
C638 H606 0.928 . S
C638 C636 1.406 . S
C638 N639 1.261 . S
N639 Co590 2.214 . S
N639 C637 1.325 . S
N639 C638 1.261 . S
C640 H610 0.931 . S
C640 C637 1.357 . S
C640 C641 1.312 . S
C641 H612 0.930 . S
C641 C636 1.261 . S
C641 C640 1.312 . S
C642 O614 1.214 . S
C642 O622 1.234 . S
C643 H615 0.929 . S
C643 C646 1.391 . S
C643 C648 1.391 . S
C644 H616 0.929 . S
C644 C645 1.390 . S
C644 N647 1.391 . S
C645 H617 0.930 . S
C645 C644 1.390 . S
C645 C646 1.392 . S
C646 H618 0.929 . S
C646 C643 1.391 . S
C646 C645 1.392 . S
N647 Co591 2.257 . S
N647 C644 1.391 . S
N647 C648 1.388 . S
C648 H619 0.930 . S
C648 C643 1.391 . S
C648 N647 1.388 . S
Co649 O651 2.143 . S
Co649 O657 2.074 . S
Co649 O660 2.093 . S
Co649 O673 2.097 . S
Co649 N690 2.151 . S
Co649 N698 2.214 . S
Co650 O651 2.160 . S
Co650 O656 2.058 . S
Co650 O666 2.057 . S
Co650 O681 2.037 . S
Co650 N685 2.145 . S
Co650 N706 2.257 . S
O651 Co649 2.143 . S
O651 Co650 2.160 . S
C652 O653 1.278 . S
C652 O660 1.224 . S
O653 C652 1.278 . S
C654 O655 1.245 . S
C654 O666 1.232 . S
O655 C654 1.245 . S
O656 Co650 2.058 . S
O656 C682 1.269 . S
O657 Co649 2.074 . S
O657 C682 1.257 . S
H658 C683 0.930 . S
H659 C689 0.930 . S
O660 Co649 2.093 . S
O660 C652 1.224 . S
H661 C693 0.929 . S
H662 C695 0.930 . S
H663 C696 0.930 . S
H664 C694 0.929 . S
H665 C697 0.928 . S
O666 Co650 2.057 . S
O666 C654 1.232 . S
H667 C686 0.929 . S
H668 C687 0.929 . S
H669 C699 0.931 . S
H670 C691 0.929 . S
H671 C700 0.930 . S
H672 C692 0.931 . S
O673 Co649 2.097 . S
O673 C701 1.214 . S
H674 C702 0.929 . S
H675 C703 0.929 . S
H676 C704 0.930 . S
H677 C705 0.929 . S
H678 C707 0.930 . S
H679 C684 0.949 . S
H680 C688 0.930 . S
O681 Co650 2.037 . S
O681 C701 1.234 . S
C682 O656 1.269 . S
C682 O657 1.257 . S
C683 H658 0.930 . S
C683 C686 1.388 . S
C683 C688 1.418 . S
C684 H679 0.949 . S
C684 C687 1.404 . S
C684 C688 1.353 . S
N685 Co650 2.145 . S
N685 C686 1.397 . S
N685 C687 1.334 . S
C686 H667 0.929 . S
C686 C683 1.388 . S
C686 N685 1.397 . S
C687 H668 0.929 . S
C687 C684 1.404 . S
C687 N685 1.334 . S
C688 H680 0.930 . S
C688 C683 1.418 . S
C688 C684 1.353 . S
C689 H659 0.930 . S
C689 N690 1.330 . S
C689 C691 1.446 . S
N690 Co649 2.151 . S
N690 C689 1.330 . S
N690 C694 1.418 . S
C691 H670 0.929 . S
C691 C689 1.446 . S
C691 C692 1.332 . S
C692 H672 0.931 . S
C692 C691 1.332 . S
C692 C693 1.267 . S
C693 H661 0.929 . S
C693 C692 1.267 . S
C693 C694 1.251 . S
C694 H664 0.929 . S
C694 N690 1.418 . S
C694 C693 1.251 . S
C695 H662 0.930 . S
C695 C697 1.406 . S
C695 C700 1.261 . S
C696 H663 0.930 . S
C696 N698 1.325 . S
C696 C699 1.357 . S
C697 H665 0.928 . S
C697 C695 1.406 . S
C697 N698 1.261 . S
N698 Co649 2.214 . S
N698 C696 1.325 . S
N698 C697 1.261 . S
C699 H669 0.931 . S
C699 C696 1.357 . S
C699 C700 1.312 . S
C700 H671 0.930 . S
C700 C695 1.261 . S
C700 C699 1.312 . S
C701 O673 1.214 . S
C701 O681 1.234 . S
C702 H674 0.929 . S
C702 C705 1.391 . S
C702 C707 1.391 . S
C703 H675 0.929 . S
C703 C704 1.390 . S
C703 N706 1.391 . S
C704 H676 0.930 . S
C704 C703 1.390 . S
C704 C705 1.392 . S
C705 H677 0.929 . S
C705 C702 1.391 . S
C705 C704 1.392 . S
N706 Co650 2.257 . S
N706 C703 1.391 . S
N706 C707 1.388 . S
C707 H678 0.930 . S
C707 C702 1.391 . S
C707 N706 1.388 . S
Co708 O710 2.143 . S
Co708 O716 2.074 . S
Co708 O719 2.093 . S
Co708 O732 2.097 . S
Co708 N749 2.151 . S
Co708 N757 2.214 . S
Co709 O710 2.160 . S
Co709 O715 2.058 . S
Co709 O725 2.057 . S
Co709 O740 2.037 . S
Co709 N744 2.145 . S
Co709 N765 2.257 1_655 S
O710 Co708 2.143 . S
O710 Co709 2.160 . S
C711 O712 1.278 1_655 S
C711 O719 1.224 . S
O712 C711 1.278 1_455 S
C713 O714 1.245 . S
C713 O725 1.232 . S
O714 C713 1.245 . S
O715 Co709 2.058 . S
O715 C741 1.269 . S
O716 Co708 2.074 . S
O716 C741 1.257 . S
H717 C742 0.930 . S
H718 C748 0.930 . S
O719 Co708 2.093 . S
O719 C711 1.224 . S
H720 C752 0.929 . S
H721 C754 0.930 . S
H722 C755 0.930 . S
H723 C753 0.929 . S
H724 C756 0.928 . S
O725 Co709 2.057 . S
O725 C713 1.232 . S
H726 C745 0.929 . S
H727 C746 0.929 . S
H728 C758 0.931 . S
H729 C750 0.923 1_565 S
H730 C759 0.930 . S
H731 C751 0.931 1_565 S
O732 Co708 2.097 . S
O732 C760 1.214 . S
H733 C761 0.929 . S
H734 C762 0.929 . S
H735 C763 0.930 . S
H736 C764 0.929 . S
H737 C766 0.930 . S
H738 C743 0.930 . S
H739 C747 0.930 . S
O740 Co709 2.037 . S
O740 C760 1.234 . S
C741 O715 1.269 . S
C741 O716 1.257 . S
C742 H717 0.930 . S
C742 C745 1.388 . S
C742 C747 1.418 . S
C743 H738 0.930 . S
C743 C746 1.404 . S
C743 C747 1.353 . S
N744 Co709 2.145 . S
N744 C745 1.397 . S
N744 C746 1.334 . S
C745 H726 0.929 . S
C745 C742 1.388 . S
C745 N744 1.397 . S
C746 H727 0.929 . S
C746 C743 1.404 . S
C746 N744 1.334 . S
C747 H739 0.930 . S
C747 C742 1.418 . S
C747 C743 1.353 . S
C748 H718 0.930 . S
C748 N749 1.330 . S
C748 C750 1.452 . S
N749 Co708 2.151 . S
N749 C748 1.330 . S
N749 C753 1.418 . S
C750 H729 0.923 1_545 S
C750 C748 1.452 . S
C750 C751 1.332 . S
C751 H731 0.931 1_545 S
C751 C750 1.332 . S
C751 C752 1.267 . S
C752 H720 0.929 . S
C752 C751 1.267 . S
C752 C753 1.251 . S
C753 H723 0.929 . S
C753 N749 1.418 . S
C753 C752 1.251 . S
C754 H721 0.930 . S
C754 C756 1.406 . S
C754 C759 1.261 . S
C755 H722 0.930 . S
C755 N757 1.325 . S
C755 C758 1.357 . S
C756 H724 0.928 . S
C756 C754 1.406 . S
C756 N757 1.261 . S
N757 Co708 2.214 . S
N757 C755 1.325 . S
N757 C756 1.261 . S
C758 H728 0.931 . S
C758 C755 1.357 . S
C758 C759 1.312 . S
C759 H730 0.930 . S
C759 C754 1.261 . S
C759 C758 1.312 . S
C760 O732 1.214 . S
C760 O740 1.234 . S
C761 H733 0.929 . S
C761 C764 1.391 . S
C761 C766 1.391 . S
C762 H734 0.929 . S
C762 C763 1.390 . S
C762 N765 1.391 . S
C763 H735 0.930 . S
C763 C762 1.390 . S
C763 C764 1.392 . S
C764 H736 0.929 . S
C764 C761 1.391 . S
C764 C763 1.392 . S
N765 Co709 2.257 1_455 S
N765 C762 1.391 . S
N765 C766 1.388 . S
C766 H737 0.930 . S
C766 C761 1.391 . S
C766 N765 1.388 . S
Co767 O769 2.143 . S
Co767 O775 2.074 . S
Co767 O778 2.093 . S
Co767 O791 2.097 . S
Co767 N808 2.151 . S
Co767 N816 2.214 . S
Co768 O769 2.160 . S
Co768 O774 2.058 . S
Co768 O784 2.057 . S
Co768 O799 2.037 . S
Co768 N803 2.145 . S
Co768 N824 2.257 1_565 S
O769 Co767 2.143 . S
O769 Co768 2.160 . S
C770 O771 1.278 1_565 S
C770 O778 1.224 . S
O771 C770 1.278 1_545 S
C772 O773 1.245 . S
C772 O784 1.232 . S
O773 C772 1.245 . S
O774 Co768 2.058 . S
O774 C800 1.269 . S
O775 Co767 2.074 . S
O775 C800 1.257 . S
H776 C801 0.930 . S
H777 C807 0.930 . S
O778 Co767 2.093 . S
O778 C770 1.224 . S
H779 C811 0.929 . S
H780 C813 0.930 . S
H781 C814 0.930 . S
H782 C812 0.929 . S
H783 C815 0.928 . S
O784 Co768 2.057 . S
O784 C772 1.232 . S
H785 C804 0.929 . S
H786 C805 0.929 . S
H787 C817 0.931 . S
H788 C809 0.929 . S
H789 C818 0.930 . S
H790 C810 0.931 . S
O791 Co767 2.097 . S
O791 C819 1.214 . S
H792 C820 0.929 . S
H793 C821 0.929 . S
H794 C822 0.930 . S
H795 C823 0.929 . S
H796 C825 0.930 . S
H797 C802 0.930 . S
H798 C806 0.930 . S
O799 Co768 2.037 . S
O799 C819 1.234 . S
C800 O774 1.269 . S
C800 O775 1.257 . S
C801 H776 0.930 . S
C801 C804 1.388 . S
C801 C806 1.418 . S
C802 H797 0.930 . S
C802 C805 1.404 . S
C802 C806 1.353 . S
N803 Co768 2.145 . S
N803 C804 1.397 . S
N803 C805 1.334 . S
C804 H785 0.929 . S
C804 C801 1.388 . S
C804 N803 1.397 . S
C805 H786 0.929 . S
C805 C802 1.404 . S
C805 N803 1.334 . S
C806 H798 0.930 . S
C806 C801 1.418 . S
C806 C802 1.353 . S
C807 H777 0.930 . S
C807 N808 1.330 . S
C807 C809 1.446 . S
N808 Co767 2.151 . S
N808 C807 1.330 . S
N808 C812 1.418 . S
C809 H788 0.929 . S
C809 C807 1.446 . S
C809 C810 1.332 . S
C810 H790 0.931 . S
C810 C809 1.332 . S
C810 C811 1.267 . S
C811 H779 0.929 . S
C811 C810 1.267 . S
C811 C812 1.251 . S
C812 H782 0.929 . S
C812 N808 1.418 . S
C812 C811 1.251 . S
C813 H780 0.930 . S
C813 C815 1.406 . S
C813 C818 1.261 . S
C814 H781 0.930 . S
C814 N816 1.325 . S
C814 C817 1.357 . S
C815 H783 0.928 . S
C815 C813 1.406 . S
C815 N816 1.261 . S
N816 Co767 2.214 . S
N816 C814 1.325 . S
N816 C815 1.261 . S
C817 H787 0.931 . S
C817 C814 1.357 . S
C817 C818 1.312 . S
C818 H789 0.930 . S
C818 C813 1.261 . S
C818 C817 1.312 . S
C819 O791 1.214 . S
C819 O799 1.234 . S
C820 H792 0.929 . S
C820 C823 1.391 . S
C820 C825 1.391 . S
C821 H793 0.929 . S
C821 C822 1.390 . S
C821 N824 1.391 . S
C822 H794 0.930 . S
C822 C821 1.390 . S
C822 C823 1.392 . S
C823 H795 0.929 . S
C823 C820 1.391 . S
C823 C822 1.392 . S
N824 Co768 2.257 1_545 S
N824 C821 1.391 . S
N824 C825 1.388 . S
C825 H796 0.930 . S
C825 C820 1.391 . S
C825 N824 1.388 . S
Co826 O828 2.143 . S
Co826 O834 2.074 . S
Co826 O837 2.093 . S
Co826 O850 2.097 . S
Co826 N867 2.151 . S
Co826 N875 2.214 . S
Co827 O828 2.160 . S
Co827 O833 2.058 . S
Co827 O843 2.057 . S
Co827 O858 2.037 . S
Co827 N862 2.145 . S
Co827 N883 2.257 . S
O828 Co826 2.143 . S
O828 Co827 2.160 . S
C829 O830 1.278 . S
C829 O837 1.224 . S
O830 C829 1.278 . S
C831 O832 1.245 . S
C831 O843 1.232 . S
O832 C831 1.245 . S
O833 Co827 2.058 . S
O833 C859 1.269 . S
O834 Co826 2.074 . S
O834 C859 1.257 . S
H835 C860 0.930 . S
H836 C866 0.930 . S
O837 Co826 2.093 . S
O837 C829 1.224 . S
H838 C870 0.929 . S
H839 C872 0.930 . S
H840 C873 0.930 . S
H841 C871 0.929 . S
H842 C874 0.928 . S
O843 Co827 2.057 . S
O843 C831 1.232 . S
H844 C863 0.929 . S
H845 C864 0.929 . S
H846 C876 0.931 . S
H847 C868 0.929 . S
H848 C877 0.930 . S
H849 C869 0.931 . S
O850 Co826 2.097 . S
O850 C878 1.214 . S
H851 C879 0.929 . S
H852 C880 0.929 . S
H853 C881 0.930 . S
H854 C882 0.929 . S
H855 C884 0.930 . S
H856 C861 0.930 . S
H857 C865 0.930 . S
O858 Co827 2.037 . S
O858 C878 1.234 . S
C859 O833 1.269 . S
C859 O834 1.257 . S
C860 H835 0.930 . S
C860 C863 1.388 . S
C860 C865 1.418 . S
C861 H856 0.930 . S
C861 C864 1.404 . S
C861 C865 1.353 . S
N862 Co827 2.145 . S
N862 C863 1.397 . S
N862 C864 1.334 . S
C863 H844 0.929 . S
C863 C860 1.388 . S
C863 N862 1.397 . S
C864 H845 0.929 . S
C864 C861 1.404 . S
C864 N862 1.334 . S
C865 H857 0.930 . S
C865 C860 1.418 . S
C865 C861 1.353 . S
C866 H836 0.930 . S
C866 N867 1.330 . S
C866 C868 1.446 . S
N867 Co826 2.151 . S
N867 C866 1.330 . S
N867 C871 1.418 . S
C868 H847 0.929 . S
C868 C866 1.446 . S
C868 C869 1.332 . S
C869 H849 0.931 . S
C869 C868 1.332 . S
C869 C870 1.267 . S
C870 H838 0.929 . S
C870 C869 1.267 . S
C870 C871 1.251 . S
C871 H841 0.929 . S
C871 N867 1.418 . S
C871 C870 1.251 . S
C872 H839 0.930 . S
C872 C874 1.406 . S
C872 C877 1.261 . S
C873 H840 0.930 . S
C873 N875 1.325 . S
C873 C876 1.357 . S
C874 H842 0.928 . S
C874 C872 1.406 . S
C874 N875 1.261 . S
N875 Co826 2.214 . S
N875 C873 1.325 . S
N875 C874 1.261 . S
C876 H846 0.931 . S
C876 C873 1.357 . S
C876 C877 1.312 . S
C877 H848 0.930 . S
C877 C872 1.261 . S
C877 C876 1.312 . S
C878 O850 1.214 . S
C878 O858 1.234 . S
C879 H851 0.929 . S
C879 C882 1.391 . S
C879 C884 1.391 . S
C880 H852 0.929 . S
C880 C881 1.390 . S
C880 N883 1.391 . S
C881 H853 0.930 . S
C881 C880 1.390 . S
C881 C882 1.392 . S
C882 H854 0.929 . S
C882 C879 1.391 . S
C882 C881 1.392 . S
N883 Co827 2.257 . S
N883 C880 1.391 . S
N883 C884 1.388 . S
C884 H855 0.930 . S
C884 C879 1.391 . S
C884 N883 1.388 . S
Co885 O887 2.143 . S
Co885 O893 2.074 . S
Co885 O896 2.093 . S
Co885 O909 2.097 . S
Co885 N926 2.151 . S
Co885 N934 2.214 . S
Co886 O887 2.160 . S
Co886 O892 2.058 . S
Co886 O902 2.057 . S
Co886 O917 2.037 . S
Co886 N921 2.145 . S
Co886 N942 2.257 . S
O887 Co885 2.143 . S
O887 Co886 2.160 . S
C888 O889 1.278 . S
C888 O896 1.224 . S
O889 C888 1.278 . S
C890 O891 1.245 . S
C890 O902 1.232 . S
O891 C890 1.245 . S
O892 Co886 2.058 . S
O892 C918 1.269 . S
O893 Co885 2.074 . S
O893 C918 1.257 . S
H894 C919 0.930 . S
H895 C925 0.930 . S
O896 Co885 2.093 . S
O896 C888 1.224 . S
H897 C929 0.929 . S
H898 C931 0.930 . S
H899 C932 0.930 . S
H900 C930 0.929 . S
H901 C933 0.928 . S
O902 Co886 2.057 . S
O902 C890 1.232 . S
H903 C922 0.929 . S
H904 C923 0.929 . S
H905 C935 0.931 . S
H906 C927 0.923 1_655 S
H907 C936 0.930 . S
H908 C928 0.931 1_655 S
O909 Co885 2.097 . S
O909 C937 1.214 . S
H910 C938 0.929 . S
H911 C939 0.929 . S
H912 C940 0.930 . S
H913 C941 0.929 . S
H914 C943 0.930 . S
H915 C920 0.930 . S
H916 C924 0.930 . S
O917 Co886 2.037 . S
O917 C937 1.234 . S
C918 O892 1.269 . S
C918 O893 1.257 . S
C919 H894 0.930 . S
C919 C922 1.388 . S
C919 C924 1.418 . S
C920 H915 0.930 . S
C920 C923 1.404 . S
C920 C924 1.353 . S
N921 Co886 2.145 . S
N921 C922 1.397 . S
N921 C923 1.334 . S
C922 H903 0.929 . S
C922 C919 1.388 . S
C922 N921 1.397 . S
C923 H904 0.929 . S
C923 C920 1.404 . S
C923 N921 1.334 . S
C924 H916 0.930 . S
C924 C919 1.418 . S
C924 C920 1.353 . S
C925 H895 0.930 . S
C925 N926 1.330 . S
C925 C927 1.452 . S
N926 Co885 2.151 . S
N926 C925 1.330 . S
N926 C930 1.418 . S
C927 H906 0.923 1_455 S
C927 C925 1.452 . S
C927 C928 1.332 . S
C928 H908 0.931 1_455 S
C928 C927 1.332 . S
C928 C929 1.267 . S
C929 H897 0.929 . S
C929 C928 1.267 . S
C929 C930 1.251 . S
C930 H900 0.929 . S
C930 N926 1.418 . S
C930 C929 1.251 . S
C931 H898 0.930 . S
C931 C933 1.406 . S
C931 C936 1.261 . S
C932 H899 0.930 . S
C932 N934 1.325 . S
C932 C935 1.357 . S
C933 H901 0.928 . S
C933 C931 1.406 . S
C933 N934 1.261 . S
N934 Co885 2.214 . S
N934 C932 1.325 . S
N934 C933 1.261 . S
C935 H905 0.931 . S
C935 C932 1.357 . S
C935 C936 1.312 . S
C936 H907 0.930 . S
C936 C931 1.261 . S
C936 C935 1.312 . S
C937 O909 1.214 . S
C937 O917 1.234 . S
C938 H910 0.929 . S
C938 C941 1.391 . S
C938 C943 1.391 . S
C939 H911 0.929 . S
C939 C940 1.390 . S
C939 N942 1.391 . S
C940 H912 0.930 . S
C940 C939 1.390 . S
C940 C941 1.392 . S
C941 H913 0.929 . S
C941 C938 1.391 . S
C941 C940 1.392 . S
N942 Co886 2.257 . S
N942 C939 1.391 . S
N942 C943 1.388 . S
C943 H914 0.930 . S
C943 C938 1.391 . S
C943 N942 1.388 . S
H944 C950 0.930 . S
H945 C953 0.930 . S
H946 C954 0.930 . S
H947 C955 0.930 . S
H948 C958 0.930 . S
H949 C959 0.930 . S
C950 H944 0.930 . S
C950 C951 1.355 . S
C950 C952 1.415 . S
C951 C950 1.355 . S
C951 C953 1.419 . S
C952 C950 1.415 . S
C952 C957 1.425 . S
C952 C959 1.409 . S
C953 H945 0.930 . S
C953 C951 1.419 . S
C953 C954 1.362 . S
C954 H946 0.930 . S
C954 C953 1.362 . S
C954 C957 1.409 . S
C955 H947 0.930 . S
C955 C956 1.355 . S
C955 C957 1.415 . S
C956 C955 1.355 . S
C956 C958 1.419 . S
C957 C952 1.425 . S
C957 C954 1.409 . S
C957 C955 1.415 . S
C958 H948 0.930 . S
C958 C956 1.419 . S
C958 C959 1.362 . S
C959 H949 0.930 . S
C959 C952 1.409 . S
C959 C958 1.362 . S
H960 C966 0.930 . S
H961 C969 0.930 . S
H962 C970 0.930 . S
H963 C971 0.930 . S
H964 C974 0.930 . S
H965 C975 0.930 . S
C966 H960 0.930 . S
C966 C967 1.355 . S
C966 C968 1.415 . S
C967 C966 1.355 . S
C967 C969 1.419 . S
C968 C966 1.415 . S
C968 C973 1.425 . S
C968 C975 1.409 . S
C969 H961 0.930 . S
C969 C967 1.419 . S
C969 C970 1.362 . S
C970 H962 0.930 . S
C970 C969 1.362 . S
C970 C973 1.409 . S
C971 H963 0.930 . S
C971 C972 1.355 . S
C971 C973 1.415 . S
C972 C971 1.355 . S
C972 C974 1.419 . S
C973 C968 1.425 . S
C973 C970 1.409 . S
C973 C971 1.415 . S
C974 H964 0.930 . S
C974 C972 1.419 . S
C974 C975 1.362 . S
C975 H965 0.930 . S
C975 C968 1.409 . S
C975 C974 1.362 . S
H976 C982 0.930 . S
H977 C985 0.930 . S
H978 C986 0.930 . S
H979 C987 0.930 . S
H980 C990 0.930 . S
H981 C991 0.930 . S
C982 H976 0.930 . S
C982 C983 1.355 . S
C982 C984 1.415 . S
C983 C982 1.355 . S
C983 C985 1.419 . S
C984 C982 1.415 . S
C984 C989 1.425 . S
C984 C991 1.409 . S
C985 H977 0.930 . S
C985 C983 1.419 . S
C985 C986 1.362 . S
C986 H978 0.930 . S
C986 C985 1.362 . S
C986 C989 1.409 . S
C987 H979 0.930 . S
C987 C988 1.355 . S
C987 C989 1.415 . S
C988 C987 1.355 . S
C988 C990 1.419 . S
C989 C984 1.425 . S
C989 C986 1.409 . S
C989 C987 1.415 . S
C990 H980 0.930 . S
C990 C988 1.419 . S
C990 C991 1.362 . S
C991 H981 0.930 . S
C991 C984 1.409 . S
C991 C990 1.362 . S
H992 C998 0.930 . S
H993 C1001 0.930 . S
H994 C1002 0.930 . S
H995 C1003 0.930 . S
H996 C1006 0.930 . S
H997 C1007 0.930 . S
C998 H992 0.930 . S
C998 C999 1.355 . S
C998 C1000 1.415 . S
C999 C998 1.355 . S
C999 C1001 1.419 . S
C1000 C998 1.415 . S
C1000 C1005 1.425 . S
C1000 C1007 1.409 . S
C1001 H993 0.930 . S
C1001 C999 1.419 . S
C1001 C1002 1.362 . S
C1002 H994 0.930 . S
C1002 C1001 1.362 . S
C1002 C1005 1.409 . S
C1003 H995 0.930 . S
C1003 C1004 1.355 . S
C1003 C1005 1.415 . S
C1004 C1003 1.355 . S
C1004 C1006 1.419 . S
C1005 C1000 1.425 . S
C1005 C1002 1.409 . S
C1005 C1003 1.415 . S
C1006 H996 0.930 . S
C1006 C1004 1.419 . S
C1006 C1007 1.362 . S
C1007 H997 0.930 . S
C1007 C1000 1.409 . S
C1007 C1006 1.362 . S
H1008 C1014 0.930 . S
H1009 C1017 0.930 . S
H1010 C1018 0.930 . S
H1011 C1019 0.930 . S
H1012 C1022 0.930 . S
H1013 C1023 0.930 . S
C1014 H1008 0.930 . S
C1014 C1015 1.355 . S
C1014 C1016 1.415 . S
C1015 C1014 1.355 . S
C1015 C1017 1.419 . S
C1016 C1014 1.415 . S
C1016 C1021 1.425 . S
C1016 C1023 1.409 . S
C1017 H1009 0.930 . S
C1017 C1015 1.419 . S
C1017 C1018 1.362 . S
C1018 H1010 0.930 . S
C1018 C1017 1.362 . S
C1018 C1021 1.409 . S
C1019 H1011 0.930 . S
C1019 C1020 1.355 . S
C1019 C1021 1.415 . S
C1020 C1019 1.355 . S
C1020 C1022 1.419 . S
C1021 C1016 1.425 . S
C1021 C1018 1.409 . S
C1021 C1019 1.415 . S
C1022 H1012 0.930 . S
C1022 C1020 1.419 . S
C1022 C1023 1.362 . S
C1023 H1013 0.930 . S
C1023 C1016 1.409 . S
C1023 C1022 1.362 . S
H1024 C1030 0.930 . S
H1025 C1033 0.930 . S
H1026 C1034 0.930 . S
H1027 C1035 0.930 . S
H1028 C1038 0.930 . S
H1029 C1039 0.930 . S
C1030 H1024 0.930 . S
C1030 C1031 1.355 . S
C1030 C1032 1.415 . S
C1031 C1030 1.355 . S
C1031 C1033 1.419 . S
C1032 C1030 1.415 . S
C1032 C1037 1.425 . S
C1032 C1039 1.409 . S
C1033 H1025 0.930 . S
C1033 C1031 1.419 . S
C1033 C1034 1.362 . S
C1034 H1026 0.930 . S
C1034 C1033 1.362 . S
C1034 C1037 1.409 . S
C1035 H1027 0.930 . S
C1035 C1036 1.355 . S
C1035 C1037 1.415 . S
C1036 C1035 1.355 . S
C1036 C1038 1.419 . S
C1037 C1032 1.425 . S
C1037 C1034 1.409 . S
C1037 C1035 1.415 . S
C1038 H1028 0.930 . S
C1038 C1036 1.419 . S
C1038 C1039 1.362 . S
C1039 H1029 0.930 . S
C1039 C1032 1.409 . S
C1039 C1038 1.362 . S
H1040 C1046 0.930 . S
H1041 C1049 0.930 . S
H1042 C1050 0.930 . S
H1043 C1051 0.930 . S
H1044 C1054 0.930 . S
H1045 C1055 0.930 . S
C1046 H1040 0.930 . S
C1046 C1047 1.355 . S
C1046 C1048 1.415 . S
C1047 C1046 1.355 . S
C1047 C1049 1.419 . S
C1048 C1046 1.415 . S
C1048 C1053 1.425 . S
C1048 C1055 1.409 . S
C1049 H1041 0.930 . S
C1049 C1047 1.419 . S
C1049 C1050 1.362 . S
C1050 H1042 0.930 . S
C1050 C1049 1.362 . S
C1050 C1053 1.409 . S
C1051 H1043 0.930 . S
C1051 C1052 1.355 . S
C1051 C1053 1.415 . S
C1052 C1051 1.355 . S
C1052 C1054 1.419 . S
C1053 C1048 1.425 . S
C1053 C1050 1.409 . S
C1053 C1051 1.415 . S
C1054 H1044 0.930 . S
C1054 C1052 1.419 . S
C1054 C1055 1.362 . S
C1055 H1045 0.930 . S
C1055 C1048 1.409 . S
C1055 C1054 1.362 . S
H1056 C1062 0.930 . S
H1057 C1065 0.930 . S
H1058 C1066 0.930 . S
H1059 C1067 0.930 . S
H1060 C1070 0.930 . S
H1061 C1071 0.930 . S
C1062 H1056 0.930 . S
C1062 C1063 1.355 . S
C1062 C1064 1.415 . S
C1063 C1062 1.355 . S
C1063 C1065 1.419 . S
C1064 C1062 1.415 . S
C1064 C1069 1.425 . S
C1064 C1071 1.409 . S
C1065 H1057 0.930 . S
C1065 C1063 1.419 . S
C1065 C1066 1.362 . S
C1066 H1058 0.930 . S
C1066 C1065 1.362 . S
C1066 C1069 1.409 . S
C1067 H1059 0.930 . S
C1067 C1068 1.355 . S
C1067 C1069 1.415 . S
C1068 C1067 1.355 . S
C1068 C1070 1.419 . S
C1069 C1064 1.425 . S
C1069 C1066 1.409 . S
C1069 C1067 1.415 . S
C1070 H1060 0.930 . S
C1070 C1068 1.419 . S
C1070 C1071 1.362 . S
C1071 H1061 0.930 . S
C1071 C1064 1.409 . S
C1071 C1070 1.362 . S
H1072 C1078 0.930 . S
H1073 C1081 0.930 . S
H1074 C1082 0.930 . S
H1075 C1083 0.930 . S
H1076 C1086 0.930 . S
H1077 C1087 0.930 . S
C1078 H1072 0.930 . S
C1078 C1079 1.355 . S
C1078 C1080 1.415 . S
C1079 C1078 1.355 . S
C1079 C1081 1.419 . S
C1080 C1078 1.415 . S
C1080 C1085 1.425 . S
C1080 C1087 1.409 1_655 S
C1081 H1073 0.930 . S
C1081 C1079 1.419 . S
C1081 C1082 1.362 . S
C1082 H1074 0.930 . S
C1082 C1081 1.362 . S
C1082 C1085 1.409 . S
C1083 H1075 0.930 . S
C1083 C1084 1.355 . S
C1083 C1085 1.415 . S
C1084 C1083 1.355 . S
C1084 C1086 1.419 1_655 S
C1085 C1080 1.425 . S
C1085 C1082 1.409 . S
C1085 C1083 1.415 . S
C1086 H1076 0.930 . S
C1086 C1084 1.419 1_455 S
C1086 C1087 1.362 . S
C1087 H1077 0.930 . S
C1087 C1080 1.409 1_455 S
C1087 C1086 1.362 . S
H1088 C1094 0.930 . S
H1089 C1097 0.930 . S
H1090 C1098 0.930 . S
H1091 C1099 0.930 1_455 S
H1092 C1102 0.930 . S
H1093 C1103 0.930 . S
C1094 H1088 0.930 . S
C1094 C1095 1.355 . S
C1094 C1096 1.415 . S
C1095 C1094 1.355 . S
C1095 C1097 1.419 1_565 S
C1096 C1094 1.415 . S
C1096 C1101 1.425 . S
C1096 C1103 1.409 . S
C1097 H1089 0.930 . S
C1097 C1095 1.419 1_545 S
C1097 C1098 1.362 . S
C1098 H1090 0.930 . S
C1098 C1097 1.362 . S
C1098 C1101 1.409 1_545 S
C1099 H1091 0.930 1_655 S
C1099 C1100 1.355 . S
C1099 C1101 1.415 . S
C1100 C1099 1.355 . S
C1100 C1102 1.419 . S
C1101 C1096 1.425 . S
C1101 C1098 1.409 1_565 S
C1101 C1099 1.415 . S
C1102 H1092 0.930 . S
C1102 C1100 1.419 . S
C1102 C1103 1.362 . S
C1103 H1093 0.930 . S
C1103 C1096 1.409 . S
C1103 C1102 1.362 . S
H1104 C1110 0.930 . S
H1105 C1113 0.930 . S
H1106 C1114 0.930 . S
H1107 C1115 0.930 . S
H1108 C1118 0.930 . S
H1109 C1119 0.930 . S
C1110 H1104 0.930 . S
C1110 C1111 1.355 . S
C1110 C1112 1.415 . S
C1111 C1110 1.355 . S
C1111 C1113 1.419 1_565 S
C1112 C1110 1.415 . S
C1112 C1117 1.425 . S
C1112 C1119 1.409 . S
C1113 H1105 0.930 . S
C1113 C1111 1.419 1_545 S
C1113 C1114 1.362 1_545 S
C1114 H1106 0.930 . S
C1114 C1113 1.362 1_565 S
C1114 C1117 1.409 . S
C1115 H1107 0.930 . S
C1115 C1116 1.355 . S
C1115 C1117 1.415 . S
C1116 C1115 1.355 . S
C1116 C1118 1.419 . S
C1117 C1112 1.425 . S
C1117 C1114 1.409 . S
C1117 C1115 1.415 . S
C1118 H1108 0.930 . S
C1118 C1116 1.419 . S
C1118 C1119 1.362 . S
C1119 H1109 0.930 . S
C1119 C1112 1.409 . S
C1119 C1118 1.362 . S
H1120 C1126 0.930 . S
H1121 C1129 0.930 . S
H1122 C1130 0.930 . S
H1123 C1131 0.930 . S
H1124 C1134 0.930 . S
H1125 C1135 0.930 . S
C1126 H1120 0.930 . S
C1126 C1127 1.355 . S
C1126 C1128 1.415 . S
C1127 C1126 1.355 . S
C1127 C1129 1.419 . S
C1128 C1126 1.415 . S
C1128 C1133 1.425 . S
C1128 C1135 1.409 . S
C1129 H1121 0.930 . S
C1129 C1127 1.419 . S
C1129 C1130 1.362 . S
C1130 H1122 0.930 . S
C1130 C1129 1.362 . S
C1130 C1133 1.409 . S
C1131 H1123 0.930 . S
C1131 C1132 1.355 . S
C1131 C1133 1.415 . S
C1132 C1131 1.355 . S
C1132 C1134 1.419 . S
C1133 C1128 1.425 . S
C1133 C1130 1.409 . S
C1133 C1131 1.415 . S
C1134 H1124 0.930 . S
C1134 C1132 1.419 . S
C1134 C1135 1.362 . S
C1135 H1125 0.930 . S
C1135 C1128 1.409 . S
C1135 C1134 1.362 . S
H1136 C1142 0.930 . S
H1137 C1145 0.930 . S
H1138 C1146 0.930 . S
H1139 C1147 0.930 . S
H1140 C1150 0.930 . S
H1141 C1151 0.930 . S
C1142 H1136 0.930 . S
C1142 C1143 1.355 . S
C1142 C1144 1.415 . S
C1143 C1142 1.355 . S
C1143 C1145 1.419 . S
C1144 C1142 1.415 . S
C1144 C1149 1.425 . S
C1144 C1151 1.409 1_455 S
C1145 H1137 0.930 . S
C1145 C1143 1.419 . S
C1145 C1146 1.362 . S
C1146 H1138 0.930 . S
C1146 C1145 1.362 . S
C1146 C1149 1.409 . S
C1147 H1139 0.930 . S
C1147 C1148 1.355 . S
C1147 C1149 1.415 . S
C1148 C1147 1.355 . S
C1148 C1150 1.419 1_455 S
C1149 C1144 1.425 . S
C1149 C1146 1.409 . S
C1149 C1147 1.415 . S
C1150 H1140 0.930 . S
C1150 C1148 1.419 1_655 S
C1150 C1151 1.362 . S
C1151 H1141 0.930 . S
C1151 C1144 1.409 1_655 S
C1151 C1150 1.362 . S
H1152 C1158 0.930 . S
H1153 C1161 0.930 . S
H1154 C1162 0.930 1_655 S
H1155 C1163 0.930 . S
H1156 C1166 0.930 . S
H1157 C1167 0.930 . S
C1158 H1152 0.930 . S
C1158 C1159 1.355 . S
C1158 C1160 1.415 . S
C1159 C1158 1.355 . S
C1159 C1161 1.419 1_545 S
C1160 C1158 1.415 . S
C1160 C1165 1.425 . S
C1160 C1167 1.409 . S
C1161 H1153 0.930 . S
C1161 C1159 1.419 1_565 S
C1161 C1162 1.362 . S
C1162 H1154 0.930 1_455 S
C1162 C1161 1.362 . S
C1162 C1165 1.409 1_565 S
C1163 H1155 0.930 . S
C1163 C1164 1.355 1_655 S
C1163 C1165 1.415 1_655 S
C1164 C1163 1.355 1_455 S
C1164 C1166 1.419 . S
C1165 C1160 1.425 . S
C1165 C1162 1.409 1_545 S
C1165 C1163 1.415 1_455 S
C1166 H1156 0.930 . S
C1166 C1164 1.419 . S
C1166 C1167 1.362 . S
C1167 H1157 0.930 . S
C1167 C1160 1.409 . S
C1167 C1166 1.362 . S
H1168 C1174 0.930 . S
H1169 C1177 0.930 . S
H1170 C1178 0.930 . S
H1171 C1179 0.930 . S
H1172 C1182 0.930 . S
H1173 C1183 0.930 1_565 S
C1174 H1168 0.930 . S
C1174 C1175 1.355 . S
C1174 C1176 1.415 . S
C1175 C1174 1.355 . S
C1175 C1177 1.419 . S
C1176 C1174 1.415 . S
C1176 C1181 1.425 . S
C1176 C1183 1.409 . S
C1177 H1169 0.930 . S
C1177 C1175 1.419 . S
C1177 C1178 1.362 . S
C1178 H1170 0.930 . S
C1178 C1177 1.362 . S
C1178 C1181 1.409 . S
C1179 H1171 0.930 . S
C1179 C1180 1.355 . S
C1179 C1181 1.415 . S
C1180 C1179 1.355 . S
C1180 C1182 1.419 1_545 S
C1181 C1176 1.425 . S
C1181 C1178 1.409 . S
C1181 C1179 1.415 . S
C1182 H1172 0.930 . S
C1182 C1180 1.419 1_565 S
C1182 C1183 1.362 1_565 S
C1183 H1173 0.930 1_545 S
C1183 C1176 1.409 . S
C1183 C1182 1.362 1_545 S
H1184 C1190 0.930 . S
H1185 C1193 0.930 . S
H1186 C1194 0.930 . S
H1187 C1195 0.930 . S
H1188 C1198 0.930 . S
H1189 C1199 0.930 . S
C1190 H1184 0.930 . S
C1190 C1191 1.355 . S
C1190 C1192 1.415 . S
C1191 C1190 1.355 . S
C1191 C1193 1.419 . S
C1192 C1190 1.415 . S
C1192 C1197 1.425 . S
C1192 C1199 1.409 . S
C1193 H1185 0.930 . S
C1193 C1191 1.419 . S
C1193 C1194 1.362 . S
C1194 H1186 0.930 . S
C1194 C1193 1.362 . S
C1194 C1197 1.409 . S
C1195 H1187 0.930 . S
C1195 C1196 1.355 . S
C1195 C1197 1.415 . S
C1196 C1195 1.355 . S
C1196 C1198 1.419 . S
C1197 C1192 1.425 . S
C1197 C1194 1.409 . S
C1197 C1195 1.415 . S
C1198 H1188 0.930 . S
C1198 C1196 1.419 . S
C1198 C1199 1.362 . S
C1199 H1189 0.930 . S
C1199 C1192 1.409 . S
C1199 C1198 1.362 . S
H1200 C1206 0.930 . S
H1201 C1209 0.930 . S
H1202 C1210 0.930 . S
H1203 C1211 0.930 . S
H1204 C1214 0.930 . S
H1205 C1215 0.930 . S
C1206 H1200 0.930 . S
C1206 C1207 1.355 . S
C1206 C1208 1.415 . S
C1207 C1206 1.355 . S
C1207 C1209 1.419 . S
C1208 C1206 1.415 . S
C1208 C1213 1.425 . S
C1208 C1215 1.409 . S
C1209 H1201 0.930 . S
C1209 C1207 1.419 . S
C1209 C1210 1.362 . S
C1210 H1202 0.930 . S
C1210 C1209 1.362 . S
C1210 C1213 1.409 . S
C1211 H1203 0.930 . S
C1211 C1212 1.355 . S
C1211 C1213 1.415 . S
C1212 C1211 1.355 . S
C1212 C1214 1.419 . S
C1213 C1208 1.425 . S
C1213 C1210 1.409 . S
C1213 C1211 1.415 . S
C1214 H1204 0.930 . S
C1214 C1212 1.419 . S
C1214 C1215 1.362 . S
C1215 H1205 0.930 . S
C1215 C1208 1.409 . S
C1215 C1214 1.362 . S
H1216 C1222 0.930 1_565 S
H1217 C1225 0.930 . S
H1218 C1226 0.930 . S
H1219 C1227 0.930 . S
H1220 C1230 0.942 . S
H1221 C1231 0.930 . S
C1222 H1216 0.930 1_545 S
C1222 C1223 1.355 . S
C1222 C1224 1.415 . S
C1223 C1222 1.355 . S
C1223 C1225 1.419 . S
C1224 C1222 1.415 . S
C1224 C1229 1.425 . S
C1224 C1231 1.409 1_545 S
C1225 H1217 0.930 . S
C1225 C1223 1.419 . S
C1225 C1226 1.362 . S
C1226 H1218 0.930 . S
C1226 C1225 1.362 . S
C1226 C1229 1.409 . S
C1227 H1219 0.930 . S
C1227 C1228 1.355 . S
C1227 C1229 1.415 . S
C1228 C1227 1.355 . S
C1228 C1230 1.404 1_545 S
C1229 C1224 1.425 . S
C1229 C1226 1.409 . S
C1229 C1227 1.415 . S
C1230 H1220 0.942 . S
C1230 C1228 1.404 1_565 S
C1230 C1231 1.365 . S
C1231 H1221 0.930 . S
C1231 C1224 1.409 1_565 S
C1231 C1230 1.365 . S
H1232 C1238 0.930 . S
H1233 C1241 0.930 . S
H1234 C1242 0.930 . S
H1235 C1243 0.930 . S
H1236 C1246 0.930 . S
H1237 C1247 0.930 . S
C1238 H1232 0.930 . S
C1238 C1239 1.355 . S
C1238 C1240 1.415 . S
C1239 C1238 1.355 . S
C1239 C1241 1.419 . S
C1240 C1238 1.415 . S
C1240 C1245 1.425 . S
C1240 C1247 1.409 . S
C1241 H1233 0.930 . S
C1241 C1239 1.419 . S
C1241 C1242 1.362 . S
C1242 H1234 0.930 . S
C1242 C1241 1.362 . S
C1242 C1245 1.409 . S
C1243 H1235 0.930 . S
C1243 C1244 1.355 . S
C1243 C1245 1.415 . S
C1244 C1243 1.355 . S
C1244 C1246 1.419 . S
C1245 C1240 1.425 . S
C1245 C1242 1.409 . S
C1245 C1243 1.415 . S
C1246 H1236 0.930 . S
C1246 C1244 1.419 . S
C1246 C1247 1.362 . S
C1247 H1237 0.930 . S
C1247 C1240 1.409 . S
C1247 C1246 1.362 . S
H1248 C1254 0.930 . S
H1249 C1257 0.930 . S
H1250 C1258 0.930 . S
H1251 C1259 0.930 . S
H1252 C1262 0.930 . S
H1253 C1263 0.930 . S
C1254 H1248 0.930 . S
C1254 C1255 1.355 . S
C1254 C1256 1.415 . S
C1255 C1254 1.355 . S
C1255 C1257 1.419 . S
C1256 C1254 1.415 . S
C1256 C1261 1.425 . S
C1256 C1263 1.409 . S
C1257 H1249 0.930 . S
C1257 C1255 1.419 . S
C1257 C1258 1.362 . S
C1258 H1250 0.930 . S
C1258 C1257 1.362 . S
C1258 C1261 1.409 . S
C1259 H1251 0.930 . S
C1259 C1260 1.355 . S
C1259 C1261 1.415 . S
C1260 C1259 1.355 . S
C1260 C1262 1.419 . S
C1261 C1256 1.425 . S
C1261 C1258 1.409 . S
C1261 C1259 1.415 . S
C1262 H1252 0.930 . S
C1262 C1260 1.419 . S
C1262 C1263 1.362 . S
C1263 H1253 0.930 . S
C1263 C1256 1.409 . S
C1263 C1262 1.362 . S
H1264 C1270 0.930 . S
H1265 C1273 0.930 . S
H1266 C1274 0.930 . S
H1267 C1275 0.930 . S
H1268 C1278 0.930 . S
H1269 C1279 0.930 . S
C1270 H1264 0.930 . S
C1270 C1271 1.355 . S
C1270 C1272 1.415 . S
C1271 C1270 1.355 . S
C1271 C1273 1.419 . S
C1272 C1270 1.415 . S
C1272 C1277 1.425 . S
C1272 C1279 1.409 . S
C1273 H1265 0.930 . S
C1273 C1271 1.419 . S
C1273 C1274 1.362 . S
C1274 H1266 0.930 . S
C1274 C1273 1.362 . S
C1274 C1277 1.409 . S
C1275 H1267 0.930 . S
C1275 C1276 1.355 . S
C1275 C1277 1.415 . S
C1276 C1275 1.355 . S
C1276 C1278 1.419 . S
C1277 C1272 1.425 . S
C1277 C1274 1.409 . S
C1277 C1275 1.415 . S
C1278 H1268 0.930 . S
C1278 C1276 1.419 . S
C1278 C1279 1.362 . S
C1279 H1269 0.930 . S
C1279 C1272 1.409 . S
C1279 C1278 1.362 . S
H1280 C1286 0.930 . S
H1281 C1289 0.930 . S
H1282 C1290 0.930 . S
H1283 C1291 0.930 . S
H1284 C1294 0.930 . S
H1285 C1295 0.930 1_545 S
C1286 H1280 0.930 . S
C1286 C1287 1.355 . S
C1286 C1288 1.415 . S
C1287 C1286 1.355 . S
C1287 C1289 1.419 . S
C1288 C1286 1.415 . S
C1288 C1293 1.425 . S
C1288 C1295 1.409 . S
C1289 H1281 0.930 . S
C1289 C1287 1.419 . S
C1289 C1290 1.362 . S
C1290 H1282 0.930 . S
C1290 C1289 1.362 . S
C1290 C1293 1.409 . S
C1291 H1283 0.930 . S
C1291 C1292 1.355 . S
C1291 C1293 1.415 . S
C1292 C1291 1.355 . S
C1292 C1294 1.419 . S
C1293 C1288 1.425 . S
C1293 C1290 1.409 . S
C1293 C1291 1.415 . S
C1294 H1284 0.930 . S
C1294 C1292 1.419 . S
C1294 C1295 1.362 . S
C1295 H1285 0.930 1_565 S
C1295 C1288 1.409 . S
C1295 C1294 1.362 . S
H1296 C1302 0.930 . S
H1297 C1305 0.930 . S
H1298 C1306 0.930 . S
H1299 C1307 0.930 . S
H1300 C1310 0.930 . S
H1301 C1311 0.930 . S
C1302 H1296 0.930 . S
C1302 C1303 1.355 . S
C1302 C1304 1.415 . S
C1303 C1302 1.355 . S
C1303 C1305 1.419 . S
C1304 C1302 1.415 . S
C1304 C1309 1.425 . S
C1304 C1311 1.409 . S
C1305 H1297 0.930 . S
C1305 C1303 1.419 . S
C1305 C1306 1.362 . S
C1306 H1298 0.930 . S
C1306 C1305 1.362 . S
C1306 C1309 1.409 . S
C1307 H1299 0.930 . S
C1307 C1308 1.355 . S
C1307 C1309 1.415 . S
C1308 C1307 1.355 . S
C1308 C1310 1.419 . S
C1309 C1304 1.425 . S
C1309 C1306 1.409 . S
C1309 C1307 1.415 . S
C1310 H1300 0.930 . S
C1310 C1308 1.419 . S
C1310 C1311 1.362 . S
C1311 H1301 0.930 . S
C1311 C1304 1.409 . S
C1311 C1310 1.362 . S
H1312 C1318 0.930 . S
H1313 C1321 0.930 . S
H1314 C1322 0.930 . S
H1315 C1323 0.930 . S
H1316 C1326 0.930 . S
H1317 C1327 0.930 . S
C1318 H1312 0.930 . S
C1318 C1319 1.355 . S
C1318 C1320 1.415 . S
C1319 C1318 1.355 . S
C1319 C1321 1.419 . S
C1320 C1318 1.415 . S
C1320 C1325 1.425 . S
C1320 C1327 1.409 . S
C1321 H1313 0.930 . S
C1321 C1319 1.419 . S
C1321 C1322 1.362 . S
C1322 H1314 0.930 . S
C1322 C1321 1.362 . S
C1322 C1325 1.409 . S
C1323 H1315 0.930 . S
C1323 C1324 1.355 . S
C1323 C1325 1.415 . S
C1324 C1323 1.355 . S
C1324 C1326 1.419 . S
C1325 C1320 1.425 . S
C1325 C1322 1.409 . S
C1325 C1323 1.415 . S
C1326 H1316 0.930 . S
C1326 C1324 1.419 . S
C1326 C1327 1.362 . S
C1327 H1317 0.930 . S
C1327 C1320 1.409 . S
C1327 C1326 1.362 . S
H1328 C1334 0.930 . S
H1329 C1337 0.930 . S
H1330 C1338 0.930 . S
H1331 C1339 0.930 . S
H1332 C1342 0.930 . S
H1333 C1343 0.930 . S
C1334 H1328 0.930 . S
C1334 C1335 1.355 . S
C1334 C1336 1.415 . S
C1335 C1334 1.355 . S
C1335 C1337 1.419 1_554 S
C1336 C1334 1.415 . S
C1336 C1341 1.425 1_454 S
C1336 C1343 1.409 1_455 S
C1337 H1329 0.930 . S
C1337 C1335 1.419 1_556 S
C1337 C1338 1.362 . S
C1338 H1330 0.930 . S
C1338 C1337 1.362 . S
C1338 C1341 1.409 1_455 S
C1339 H1331 0.930 . S
C1339 C1340 1.355 . S
C1339 C1341 1.415 . S
C1340 C1339 1.355 . S
C1340 C1342 1.419 1_556 S
C1341 C1336 1.425 1_656 S
C1341 C1338 1.409 1_655 S
C1341 C1339 1.415 . S
C1342 H1332 0.930 . S
C1342 C1340 1.419 1_554 S
C1342 C1343 1.362 . S
C1343 H1333 0.930 . S
C1343 C1336 1.409 1_655 S
C1343 C1342 1.362 . S
H1344 C1350 0.930 . S
H1345 C1353 0.930 . S
H1346 C1354 0.936 . S
H1347 C1355 0.930 . S
H1348 C1358 0.930 . S
H1349 C1359 0.936 . S
C1350 H1344 0.930 . S
C1350 C1351 1.355 1_545 S
C1350 C1352 1.410 1_556 S
C1351 C1350 1.355 1_565 S
C1351 C1353 1.419 . S
C1352 C1350 1.410 1_554 S
C1352 C1357 1.425 1_444 S
C1352 C1359 1.417 . S
C1353 H1345 0.930 . S
C1353 C1351 1.419 . S
C1353 C1354 1.354 1_455 S
C1354 H1346 0.936 . S
C1354 C1353 1.354 1_655 S
C1354 C1357 1.417 . S
C1355 H1347 0.930 . S
C1355 C1356 1.355 1_565 S
C1355 C1357 1.410 1_554 S
C1356 C1355 1.355 1_545 S
C1356 C1358 1.419 . S
C1357 C1352 1.425 1_666 S
C1357 C1354 1.417 . S
C1357 C1355 1.410 1_556 S
C1358 H1348 0.930 . S
C1358 C1356 1.419 . S
C1358 C1359 1.354 1_655 S
C1359 H1349 0.936 . S
C1359 C1352 1.417 . S
C1359 C1358 1.354 1_455 S
H1360 C1366 0.930 . S
H1361 C1369 0.930 . S
H1362 C1370 0.930 1_545 S
H1363 C1371 0.930 . S
H1364 C1374 0.930 . S
H1365 C1375 0.930 1_565 S
C1366 H1360 0.930 . S
C1366 C1367 1.355 . S
C1366 C1368 1.415 . S
C1367 C1366 1.355 . S
C1367 C1369 1.419 . S
C1368 C1366 1.415 . S
C1368 C1373 1.425 1_564 S
C1368 C1375 1.409 1_565 S
C1369 H1361 0.930 . S
C1369 C1367 1.419 . S
C1369 C1370 1.362 1_554 S
C1370 H1362 0.930 1_565 S
C1370 C1369 1.362 1_556 S
C1370 C1373 1.409 1_565 S
C1371 H1363 0.930 . S
C1371 C1372 1.355 . S
C1371 C1373 1.415 . S
C1372 C1371 1.355 . S
C1372 C1374 1.419 . S
C1373 C1368 1.425 1_546 S
C1373 C1370 1.409 1_545 S
C1373 C1371 1.415 . S
C1374 H1364 0.930 . S
C1374 C1372 1.419 . S
C1374 C1375 1.362 1_556 S
C1375 H1365 0.930 1_545 S
C1375 C1368 1.409 1_545 S
C1375 C1374 1.362 1_554 S
H1376 C1382 0.930 1_554 S
H1377 C1385 0.930 . S
H1378 C1386 0.930 . S
H1379 C1387 0.930 1_556 S
H1380 C1390 0.930 . S
H1381 C1391 0.930 . S
C1382 H1376 0.930 1_556 S
C1382 C1383 1.355 . S
C1382 C1384 1.415 1_556 S
C1383 C1382 1.355 . S
C1383 C1385 1.419 . S
C1384 C1382 1.415 1_554 S
C1384 C1389 1.425 1_554 S
C1384 C1391 1.409 . S
C1385 H1377 0.930 . S
C1385 C1383 1.419 . S
C1385 C1386 1.362 . S
C1386 H1378 0.930 . S
C1386 C1385 1.362 . S
C1386 C1389 1.409 . S
C1387 H1379 0.930 1_554 S
C1387 C1388 1.355 . S
C1387 C1389 1.415 1_554 S
C1388 C1387 1.355 . S
C1388 C1390 1.419 . S
C1389 C1384 1.425 1_556 S
C1389 C1386 1.409 . S
C1389 C1387 1.415 1_556 S
C1390 H1380 0.930 . S
C1390 C1388 1.419 . S
C1390 C1391 1.362 . S
C1391 H1381 0.930 . S
C1391 C1384 1.409 . S
C1391 C1390 1.362 . S
H1392 C1398 0.930 . S
H1393 C1401 0.930 . S
H1394 C1402 0.930 . S
H1395 C1403 0.930 . S
H1396 C1406 0.930 . S
H1397 C1407 0.930 . S
C1398 H1392 0.930 . S
C1398 C1399 1.355 . S
C1398 C1400 1.415 1_565 S
C1399 C1398 1.355 . S
C1399 C1401 1.419 . S
C1400 C1398 1.415 1_545 S
C1400 C1405 1.425 1_445 S
C1400 C1407 1.409 . S
C1401 H1393 0.930 . S
C1401 C1399 1.419 . S
C1401 C1402 1.362 1_455 S
C1402 H1394 0.930 . S
C1402 C1401 1.362 1_655 S
C1402 C1405 1.409 . S
C1403 H1395 0.930 . S
C1403 C1404 1.355 . S
C1403 C1405 1.415 1_545 S
C1404 C1403 1.355 . S
C1404 C1406 1.419 . S
C1405 C1400 1.425 1_665 S
C1405 C1402 1.409 . S
C1405 C1403 1.415 1_565 S
C1406 H1396 0.930 . S
C1406 C1404 1.419 . S
C1406 C1407 1.362 1_655 S
C1407 H1397 0.930 . S
C1407 C1400 1.409 . S
C1407 C1406 1.362 1_455 S
H1408 C1414 0.930 . S
H1409 C1417 0.930 . S
H1410 C1418 0.930 . S
H1411 C1419 0.930 . S
H1412 C1422 0.930 . S
H1413 C1423 0.930 . S
C1414 H1408 0.930 . S
C1414 C1415 1.355 . S
C1414 C1416 1.415 . S
C1415 C1414 1.355 . S
C1415 C1417 1.419 1_545 S
C1416 C1414 1.415 . S
C1416 C1421 1.425 1_545 S
C1416 C1423 1.409 . S
C1417 H1409 0.930 . S
C1417 C1415 1.419 1_565 S
C1417 C1418 1.362 . S
C1418 H1410 0.930 . S
C1418 C1417 1.362 . S
C1418 C1421 1.409 . S
C1419 H1411 0.930 . S
C1419 C1420 1.355 . S
C1419 C1421 1.415 . S
C1420 C1419 1.355 . S
C1420 C1422 1.419 1_565 S
C1421 C1416 1.425 1_565 S
C1421 C1418 1.409 . S
C1421 C1419 1.415 . S
C1422 H1412 0.930 . S
C1422 C1420 1.419 1_545 S
C1422 C1423 1.362 . S
C1423 H1413 0.930 . S
C1423 C1416 1.409 . S
C1423 C1422 1.362 . S
H1424 C1430 0.930 . S
H1425 C1433 0.930 . S
H1426 C1434 0.930 . S
H1427 C1435 0.930 . S
H1428 C1438 0.930 . S
H1429 C1439 0.930 . S
C1430 H1424 0.930 . S
C1430 C1431 1.355 . S
C1430 C1432 1.415 . S
C1431 C1430 1.355 . S
C1431 C1433 1.419 . S
C1432 C1430 1.415 . S
C1432 C1437 1.425 . S
C1432 C1439 1.409 . S
C1433 H1425 0.930 . S
C1433 C1431 1.419 . S
C1433 C1434 1.362 . S
C1434 H1426 0.930 . S
C1434 C1433 1.362 . S
C1434 C1437 1.409 . S
C1435 H1427 0.930 . S
C1435 C1436 1.355 . S
C1435 C1437 1.415 . S
C1436 C1435 1.355 . S
C1436 C1438 1.419 . S
C1437 C1432 1.425 . S
C1437 C1434 1.409 . S
C1437 C1435 1.415 . S
C1438 H1428 0.930 . S
C1438 C1436 1.419 . S
C1438 C1439 1.362 . S
C1439 H1429 0.930 . S
C1439 C1432 1.409 . S
C1439 C1438 1.362 . S
H1440 C1446 0.930 . S
H1441 C1449 0.930 . S
H1442 C1450 0.930 . S
H1443 C1451 0.930 . S
H1444 C1454 0.930 . S
H1445 C1455 0.930 . S
C1446 H1440 0.930 . S
C1446 C1447 1.355 . S
C1446 C1448 1.415 . S
C1447 C1446 1.355 . S
C1447 C1449 1.419 . S
C1448 C1446 1.415 . S
C1448 C1453 1.425 1_655 S
C1448 C1455 1.409 1_655 S
C1449 H1441 0.930 . S
C1449 C1447 1.419 . S
C1449 C1450 1.362 . S
C1450 H1442 0.930 . S
C1450 C1449 1.362 . S
C1450 C1453 1.409 1_655 S
C1451 H1443 0.930 . S
C1451 C1452 1.355 . S
C1451 C1453 1.415 . S
C1452 C1451 1.355 . S
C1452 C1454 1.419 . S
C1453 C1448 1.425 1_455 S
C1453 C1450 1.409 1_455 S
C1453 C1451 1.415 . S
C1454 H1444 0.930 . S
C1454 C1452 1.419 . S
C1454 C1455 1.362 . S
C1455 H1445 0.930 . S
C1455 C1448 1.409 1_455 S
C1455 C1454 1.362 . S
C951 C33 1.677 . S
C956 C151 1.673 . S
C967 C92 1.655 . S
C972 C210 1.677 . S
C983 C269 1.676 . S
C988 C387 1.674 . S
C999 C446 1.679 . S
C1004 C328 1.668 . S
C1015 C505 1.668 . S
C1020 C623 1.679 . S
C1031 C682 1.645 . S
C1036 C564 1.638 . S
C1047 C859 1.667 . S
C1052 C741 1.642 . S
C1063 C918 1.679 . S
C1068 C800 1.664 . S
C1079 C416 0.877 . S
C1084 C3 0.909 1_655 S
C1095 C62 0.915 1_565 S
C1100 C239 0.878 1_655 S
C1111 C298 0.983 1_565 S
C1116 C121 0.931 . S
C1127 C180 0.995 . S
C1132 C357 0.950 . S
C1143 C888 0.893 . S
C1148 C475 0.945 1_455 S
C1159 C534 0.984 1_545 S
C1164 C711 0.932 1_455 S
C1175 C593 0.919 . S
C1180 C770 0.973 1_545 S
C1191 C829 0.972 . S
C1196 C652 1.002 . S
C1207 C52 1.105 . S
C1212 C288 1.106 . S
C1223 C111 1.208 . S
C1228 C347 1.219 . S
C1239 C406 1.244 . S
C1244 C170 1.239 . S
C1255 C229 1.106 . S
C1260 C465 1.106 . S
C1271 C760 1.106 . S
C1276 C524 1.106 . S
C1287 C819 1.212 . S
C1292 C583 1.223 . S
C1303 C642 1.123 . S
C1308 C878 1.133 . S
C1319 C701 1.143 . S
C1324 C937 1.156 . S
C1335 C5 1.907 . S
C1340 C477 1.907 . S
C1351 C536 1.873 . S
C1356 C64 1.873 . S
C1367 C123 1.868 . S
C1372 C595 1.868 . S
C1383 C654 1.851 . S
C1388 C182 1.851 . S
C1399 C241 1.909 . S
C1404 C713 1.909 . S
C1415 C300 1.881 . S
C1420 C772 1.881 . S
C1431 C831 1.855 . S
C1436 C359 1.855 . S
C1447 C418 1.882 . S
C1452 C890 1.882 . S
