# Generated by pormake.
# Topology rkf, (6)-cn, num edge types: 1
# Building blocks:
#     Node 0, Type 0, BuildingBlock: BETDIP_clean_sbu_0, # of connection points: 6
#     Node 1, Type 0, BuildingBlock: BETDIP_clean_sbu_0, # of connection points: 6
#     Node 2, Type 0, BuildingBlock: BETDIP_clean_sbu_0, # of connection points: 6
#     Node 3, Type 0, BuildingBlock: BETDIP_clean_sbu_0, # of connection points: 6
#     Node 4, Type 0, BuildingBlock: BETDIP_clean_sbu_0, # of connection points: 6
#     Node 5, Type 0, BuildingBlock: BETDIP_clean_sbu_0, # of connection points: 6
#     Edge 6, Type (0, 0), BuildingBlock: CIFDUS_clean_linker_0, # of connection points: 2
#     Edge 7, Type (0, 0), BuildingBlock: CIFDUS_clean_linker_0, # of connection points: 2
#     Edge 8, Type (0, 0), BuildingBlock: CIFDUS_clean_linker_0, # of connection points: 2
#     Edge 9, Type (0, 0), BuildingBlock: CIFDUS_clean_linker_0, # of connection points: 2
#     Edge 10, Type (0, 0), BuildingBlock: CIFDUS_clean_linker_0, # of connection points: 2
#     Edge 11, Type (0, 0), BuildingBlock: CIFDUS_clean_linker_0, # of connection points: 2
#     Edge 12, Type (0, 0), BuildingBlock: CIFDUS_clean_linker_0, # of connection points: 2
#     Edge 13, Type (0, 0), BuildingBlock: CIFDUS_clean_linker_0, # of connection points: 2
#     Edge 14, Type (0, 0), BuildingBlock: CIFDUS_clean_linker_0, # of connection points: 2
#     Edge 15, Type (0, 0), BuildingBlock: CIFDUS_clean_linker_0, # of connection points: 2
#     Edge 16, Type (0, 0), BuildingBlock: CIFDUS_clean_linker_0, # of connection points: 2
#     Edge 17, Type (0, 0), BuildingBlock: CIFDUS_clean_linker_0, # of connection points: 2
#     Edge 18, Type (0, 0), BuildingBlock: CIFDUS_clean_linker_0, # of connection points: 2
#     Edge 19, Type (0, 0), BuildingBlock: CIFDUS_clean_linker_0, # of connection points: 2
#     Edge 20, Type (0, 0), BuildingBlock: CIFDUS_clean_linker_0, # of connection points: 2
#     Edge 21, Type (0, 0), BuildingBlock: CIFDUS_clean_linker_0, # of connection points: 2
#     Edge 22, Type (0, 0), BuildingBlock: CIFDUS_clean_linker_0, # of connection points: 2
#     Edge 23, Type (0, 0), BuildingBlock: CIFDUS_clean_linker_0, # of connection points: 2
# Relax obj value: 0.840
# Max RMSD: 0.247
# Mean RMSD: 0.247
data_MOF--net-rkf--node1-BETDIP_clean_sbu_0--edge1-CIFDUS_clean_linker_0
_symmetry_space_group_name_H-M    P1
_symmetry_Int_Tables_number       1
_symmetry_cell_setting            triclinic
loop_
_symmetry_equiv_pos_as_xyz
'x, y, z'
_cell_length_a     22.71915
_cell_length_b     22.364144
_cell_length_c     37.961658
_cell_angle_alpha  90.555911
_cell_angle_beta   88.982977
_cell_angle_gamma 118.8779
loop_
_atom_site_label
_atom_site_type_symbol
_atom_site_fract_x
_atom_site_fract_y
_atom_site_fract_z
_atom_type_partial_charge
Tb0 Tb 0.30092 0.13389 0.21141 0.0
Tb1 Tb 0.38023 0.2652 1.19412 0.0
C2 C 0.25514 0.00965 0.22157 0.0
C3 C 0.27823 -0.01572 0.24996 0.0
C4 C 0.33964 0.02985 0.2657 0.0
C5 C 0.35265 0.01945 0.29997 0.0
C6 C 0.30436 0.96311 0.31823 0.0
C7 C 0.24648 0.91342 0.30106 0.0
C8 C 0.233 0.9245 0.26704 0.0
C9 C 0.22426 0.18768 1.194 0.0
C10 C 0.32865 0.23084 0.27428 0.0
C11 C 0.44359 0.39357 1.1922 0.0
C12 C 0.45703 0.45246 1.17059 0.0
C13 C 0.40732 0.47133 1.16551 0.0
C14 C 0.42006 0.52515 1.1433 0.0
C15 C 0.48211 0.55995 1.12527 0.0
C16 C 0.53285 0.54318 1.13179 0.0
C17 C 0.52086 0.49069 1.15498 0.0
C18 C 0.45234 0.20363 0.20644 0.0
C19 C 0.32974 0.16592 1.12884 0.0
O20 O 0.30099 0.04323 0.19774 0.0
O21 O 0.22397 0.04265 0.23245 0.0
O22 O 0.2785 0.19887 1.17937 0.0
O23 O 0.21971 0.15602 0.22295 0.0
O24 O 0.31982 0.16951 0.26637 0.0
O25 O 0.34518 0.27498 0.24822 0.0
O26 O 0.38302 0.3581 0.20542 0.0
O27 O 0.46785 0.35479 1.18051 0.0
O28 O 0.40291 0.1979 0.2247 0.0
O29 O 0.46133 0.24279 1.18005 0.0
O30 O 0.34958 0.23032 1.13867 0.0
O31 O 0.31555 0.12057 1.1542 0.0
H32 H 0.37435 0.07715 0.253 0.0
H33 H 0.39735 0.05762 0.31292 0.0
H34 H 0.20903 0.86884 0.31507 0.0
H35 H 0.18507 0.88985 0.25545 0.0
H36 H 0.35772 0.44292 1.1774 0.0
H37 H 0.37884 0.5348 1.1375 0.0
H38 H 0.5793 0.56628 1.11673 0.0
H39 H 0.56019 0.47739 1.1591 0.0
Tb40 Tb 0.27325 0.3382 0.54377 0.0
Tb41 Tb 0.23779 0.4369 0.53342 0.0
C42 C 0.33131 0.27562 0.56522 0.0
C43 C 0.38205 0.2966 0.5927 0.0
C44 C 0.45049 0.33793 0.5839 0.0
C45 C 0.49901 0.36054 0.60981 0.0
C46 C 0.48009 0.34083 0.64483 0.0
C47 C 0.41137 0.30217 0.65391 0.0
C48 C 0.36276 0.28016 0.62804 0.0
C49 C 0.15083 0.28151 0.51676 0.0
C50 C 0.20029 0.37065 0.60745 0.0
C51 C 0.20727 0.52896 0.51928 0.0
C52 C 0.16108 0.54184 0.49811 0.0
C53 C 0.10191 0.53576 0.51377 0.0
C54 C 0.04961 0.52907 0.49267 0.0
C55 C 0.05607 0.5267 0.45606 0.0
C56 C 0.12003 0.54872 0.44085 0.0
C57 C 0.17244 0.55515 0.46187 0.0
C58 C 0.3603 0.48565 0.56174 0.0
C59 C 0.27646 0.37348 0.46546 0.0
O60 O 0.3509 0.31487 0.53758 0.0
O61 O 0.27008 0.2597 0.57524 0.0
O62 O 0.1738 0.3282 0.53976 0.0
O63 O 0.19869 0.2687 0.50811 0.0
O64 O 0.24897 0.35632 0.59879 0.0
O65 O 0.17856 0.3956 0.58258 0.0
O66 O 0.17952 0.4842 0.5444 0.0
O67 O 0.25398 0.52129 0.50267 0.0
O68 O 0.33588 0.44424 0.53685 0.0
O69 O 0.31495 0.50067 0.57198 0.0
O70 O 0.24131 0.40382 0.47703 0.0
O71 O 0.3026 0.35049 0.48871 0.0
H72 H 0.46691 0.35191 0.55683 0.0
H73 H 0.55159 0.38965 0.60223 0.0
H74 H 0.39529 0.28458 0.68065 0.0
H75 H 0.3104 0.24903 0.63564 0.0
H76 H 0.09329 0.52888 0.54196 0.0
H77 H 0.00076 0.51334 0.50477 0.0
H78 H 0.12616 0.54839 0.41248 0.0
H79 H 0.21901 0.56355 0.44932 0.0
Tb80 Tb 0.03675 0.30822 0.8767 0.0
Tb81 Tb 0.90355 0.26772 0.86583 0.0
C82 C 0.15136 0.36707 0.89976 0.0
C83 C 0.17044 0.3968 0.93449 0.0
C84 C 0.20221 0.46796 0.93792 0.0
C85 C 0.22739 0.49759 0.97013 0.0
C86 C 0.22451 0.45585 0.99802 0.0
C87 C 0.18058 0.38539 0.99675 0.0
C88 C 0.15433 0.35546 0.96459 0.0
C89 C -0.02661 0.18455 0.84963 0.0
C90 C 0.93437 0.23897 0.94154 0.0
C91 C 0.78466 0.22533 0.84762 0.0
C92 C 0.75104 0.20765 0.81427 0.0
C93 C 0.78264 0.19715 0.78472 0.0
C94 C 0.74696 0.17155 0.75401 0.0
C95 C 0.67889 0.15426 0.75316 0.0
C96 C 0.64878 0.16801 0.7822 0.0
C97 C 0.6851 0.19603 0.81258 0.0
C98 C -0.02968 0.39234 0.89306 0.0
C99 C 0.00868 0.31428 0.7986 0.0
O100 O 0.12741 0.39779 0.88017 0.0
O101 O 0.11672 0.30032 0.89822 0.0
O102 O -0.04847 0.2077 0.87384 0.0
O103 O 0.03253 0.23211 0.84045 0.0
O104 O -0.00332 0.28387 0.9319 0.0
O105 O 0.88689 0.21817 0.91772 0.0
O106 O 0.80805 0.18526 0.85769 0.0
O107 O 0.82786 0.28973 0.85128 0.0
O108 O -0.0108 0.36765 0.86829 0.0
O109 O 0.91211 0.34569 0.9039 0.0
O110 O -0.05553 0.28118 0.80964 0.0
O111 O 0.05629 0.33691 0.82203 0.0
H112 H 0.21176 0.50073 0.91528 0.0
H113 H 0.25932 0.55249 0.97116 0.0
H114 H 0.17625 0.35291 1.01876 0.0
H115 H 0.12605 0.30027 0.96297 0.0
H116 H 0.83299 0.20411 0.78601 0.0
H117 H 0.77028 0.15817 0.7324 0.0
H118 H 0.59586 0.15074 0.78251 0.0
H119 H 0.66033 0.20367 0.83548 0.0
Tb120 Tb 0.84305 0.06329 0.21316 0.0
Tb121 Tb 0.73515 0.95146 1.19642 0.0
C122 C 0.92788 0.18229 0.22698 0.0
C123 C 0.92384 0.20991 0.26089 0.0
C124 C 0.86098 0.17908 0.27838 0.0
C125 C 0.85549 0.19276 0.31343 0.0
C126 C 0.91323 0.23636 0.3315 0.0
C127 C -0.0236 0.26764 0.31432 0.0
C128 C -0.01823 0.25427 0.2789 0.0
C129 C 0.87629 -0.03022 1.1891 0.0
C130 C 0.79581 0.96092 0.2738 0.0
C131 C 0.64673 0.82997 1.18862 0.0
C132 C 0.6544 0.77726 1.16969 0.0
C133 C 0.71169 0.77007 1.17462 0.0
C134 C 0.72782 0.73261 1.1508 0.0
C135 C 0.687 0.70125 1.12142 0.0
C136 C 0.63029 0.70994 1.1168 0.0
C137 C 0.61318 0.74589 1.14109 0.0
C138 C 0.7003 0.04613 0.21072 0.0
C139 C 0.80605 0.05008 1.13257 0.0
O140 O 0.87677 0.16797 0.20682 0.0
O141 O 0.94082 0.13172 0.22933 0.0
O142 O 0.8333 -0.01658 1.17717 0.0
O143 O 0.89662 0.00477 0.21773 0.0
O144 O 0.82533 0.0271 0.26817 0.0
O145 O 0.76361 0.92101 0.24687 0.0
O146 O 0.68158 0.85261 0.21721 0.0
O147 O 0.6519 0.87935 1.16869 0.0
O148 O 0.74085 0.03534 0.22883 0.0
O149 O 0.67846 0.00252 1.18566 0.0
O150 O 0.76924 -0.01555 1.14099 0.0
O151 O 0.836 0.093 1.15856 0.0
H152 H 0.81622 0.14201 0.26533 0.0
H153 H 0.80656 0.1695 0.32637 0.0
H154 H 0.02114 0.30316 0.32824 0.0
H155 H 0.03068 0.27669 0.26597 0.0
H156 H 0.74653 0.79679 1.19561 0.0
H157 H 0.77485 0.73269 1.15465 0.0
H158 H 0.60007 0.69179 1.0938 0.0
H159 H 0.57075 0.75392 1.13605 0.0
Tb160 Tb 0.85777 0.8601 0.55343 0.0
Tb161 Tb 0.89146 0.76284 0.52869 0.0
C162 C 0.78504 0.90989 0.56939 0.0
C163 C 0.74027 0.88991 0.60005 0.0
C164 C 0.67073 0.85129 0.59519 0.0
C165 C 0.62719 0.83304 0.62404 0.0
C166 C 0.65305 0.85744 0.65746 0.0
C167 C 0.72221 0.88487 0.66307 0.0
C168 C 0.766 0.9022 0.63431 0.0
C169 C -0.01201 0.91604 0.54349 0.0
C170 C 0.92333 0.81258 0.6095 0.0
C171 C 0.94286 0.68803 0.51467 0.0
C172 C -0.00524 0.68083 0.49506 0.0
C173 C 0.06111 0.71175 0.50696 0.0
C174 C 0.11253 0.7228 0.48324 0.0
C175 C 0.09696 0.7073 0.44763 0.0
C176 C 0.03093 0.6614 0.43821 0.0
C177 C -0.02072 0.64793 0.46221 0.0
C178 C 0.76413 0.68914 0.55151 0.0
C179 C 0.86325 0.84861 0.46948 0.0
O180 O 0.7679 0.86136 0.54597 0.0
O181 O 0.84962 0.94199 0.57553 0.0
O182 O -0.05586 0.87247 0.523 0.0
O183 O -0.0424 0.92707 0.56987 0.0
O184 O 0.87777 0.83288 0.60611 0.0
O185 O 0.94065 0.78957 0.58104 0.0
O186 O -0.03792 0.73184 0.54081 0.0
O187 O 0.89619 0.69029 0.49582 0.0
O188 O 0.79916 0.75317 0.55223 0.0
O189 O 0.80103 0.66637 0.53806 0.0
O190 O 0.87795 0.79822 0.4751 0.0
O191 O 0.85828 0.88285 0.49694 0.0
H192 H 0.64993 0.83803 0.56901 0.0
H193 H 0.57378 0.81096 0.61948 0.0
H194 H 0.74304 0.90325 0.68891 0.0
H195 H 0.81962 0.9285 0.63892 0.0
H196 H 0.07398 0.73399 0.53304 0.0
H197 H 0.16387 0.75637 0.4911 0.0
H198 H 0.01855 0.64795 0.41083 0.0
H199 H 0.92778 0.61975 0.45344 0.0
Tb200 Tb 0.08934 0.89638 0.88319 0.0
Tb201 Tb 0.21414 0.92314 0.86325 0.0
C202 C -0.02098 0.84471 0.91392 0.0
C203 C -0.03886 0.79477 0.94226 0.0
C204 C 0.93581 0.72534 0.93382 0.0
C205 C 0.92422 0.67796 0.96 0.0
C206 C 0.93249 0.69849 0.9953 0.0
C207 C -0.03578 0.76851 1.00357 0.0
C208 C -0.02197 0.81639 0.97719 0.0
C209 C 0.15395 0.01803 0.85291 0.0
C210 C 0.2018 -0.03186 0.93959 0.0
C211 C 0.32837 0.95097 0.83868 0.0
C212 C 0.38132 0.0078 0.81884 0.0
C213 C 0.37145 0.01947 0.78374 0.0
C214 C 0.41584 0.08063 0.76757 0.0
C215 C 0.46988 0.13082 0.78645 0.0
C216 C 0.48258 0.11747 0.82056 0.0
C217 C 0.43924 0.05542 0.83643 0.0
C218 C 0.14558 0.80042 0.89378 0.0
C219 C 0.10217 0.88664 0.80295 0.0
O220 O -0.0118 0.82317 0.88337 0.0
O221 O 0.02598 0.90692 0.92081 0.0
O222 O 0.17904 -0.00594 0.87399 0.0
O223 O 0.09085 -0.02538 0.85044 0.0
O224 O 0.13973 0.91827 0.93512 0.0
O225 O 0.24148 -0.01131 0.9113 0.0
O226 O 0.31767 0.96641 0.87041 0.0
O227 O 0.27215 0.91293 0.82246 0.0
O228 O 0.12457 0.82596 0.87129 0.0
O229 O 0.20634 0.84504 0.90022 0.0
O230 O 0.16797 0.91947 0.80989 0.0
O231 O 0.05961 0.86364 0.82958 0.0
H232 H 0.92318 0.70708 0.90702 0.0
H233 H 0.8994 0.6242 0.9532 0.0
H234 H -0.0294 0.78557 1.03074 0.0
H235 H -0.00041 0.86982 0.98433 0.0
H236 H 0.32761 -0.01666 0.76942 0.0
H237 H 0.40535 0.09069 0.74119 0.0
H238 H 0.52447 0.15591 0.83522 0.0
H239 H 0.44845 0.04661 0.8633 0.0
H240 H 0.93682 0.0665 1.14112 0.0
H241 H 0.93921 0.89151 1.18583 0.0
H242 H 0.06112 0.94634 1.17653 0.0
H243 H 0.16318 0.05615 1.17824 0.0
H244 H 0.15381 0.24128 1.16029 0.0
H245 H 0.03995 0.17378 1.13682 0.0
C246 C -0.03621 0.03921 1.14736 0.0
C247 C 0.93015 -0.02363 1.16519 0.0
C248 C 0.03365 0.07597 1.14852 0.0
C249 C -0.0354 0.9404 1.17253 0.0
C250 C 0.03434 -0.02741 1.168 0.0
C251 C 0.13623 0.08158 1.16879 0.0
C252 C 0.16462 0.15286 1.17222 0.0
C253 C 0.06915 0.04256 1.15975 0.0
C254 C 0.13154 0.18625 1.15865 0.0
C255 C 0.06679 0.1476 1.14535 0.0
H256 H 0.00599 -0.01413 0.48227 0.0
H257 H 0.10401 -0.01129 0.57826 0.0
H258 H 0.13341 0.10765 0.58832 0.0
H259 H 0.11882 0.20505 0.57352 0.0
H260 H 0.04775 0.21519 0.4707 0.0
H261 H 0.00754 0.09294 0.46214 0.0
C262 C 0.03529 0.01358 0.50472 0.0
C263 C 0.04729 -0.02224 0.53126 0.0
C264 C 0.04947 0.08119 0.51083 0.0
C265 C 0.09174 0.01502 0.55825 0.0
C266 C 0.1057 0.08193 0.56494 0.0
C267 C 0.09181 0.17955 0.54985 0.0
C268 C 0.08774 0.21888 0.52239 0.0
C269 C 0.08097 0.11375 0.54249 0.0
C270 C 0.05188 0.18577 0.4921 0.0
C271 C 0.03169 0.11662 0.48658 0.0
H272 H 0.1447 0.08787 0.79793 0.0
H273 H 0.20123 0.11523 0.90621 0.0
H274 H 0.10759 0.13627 0.92168 0.0
H275 H -0.00104 0.12682 0.9048 0.0
H276 H 0.93867 0.09065 0.79673 0.0
H277 H 0.03607 0.07622 0.78127 0.0
C278 C 0.13778 0.10137 0.82465 0.0
C279 C 0.17162 0.08985 0.85194 0.0
C280 C 0.07826 0.10226 0.83356 0.0
C281 C 0.16973 0.11628 0.88539 0.0
C282 C 0.1144 0.12479 0.89459 0.0
C283 C 0.00581 0.11277 0.87818 0.0
C284 C -0.03291 0.11706 0.85095 0.0
C285 C 0.06556 0.1124 0.86921 0.0
C286 C -0.02849 0.09231 0.81751 0.0
C287 C 0.02891 0.08779 0.80829 0.0
H288 H 0.4974 0.52056 1.06133 0.0
H289 H 0.46435 0.67211 1.11488 0.0
H290 H 0.3776 0.65582 1.07318 0.0
H291 H 0.28606 0.56932 1.03768 0.0
H292 H 0.30442 0.39863 0.99606 0.0
H293 H 0.41655 0.44501 1.01969 0.0
C294 C 0.47315 0.55217 1.06272 0.0
C295 C 0.4824 0.59317 1.09228 0.0
C296 C 0.4157 0.53329 1.04322 0.0
C297 C 0.45552 0.63805 1.09279 0.0
C298 C 0.40396 0.62661 1.0699 0.0
C299 C 0.31484 0.54251 1.03422 0.0
C300 C 0.28658 0.47952 1.01705 0.0
C301 C 0.37891 0.56908 1.04804 0.0
C302 C 0.32434 0.44559 1.01117 0.0
C303 C 0.38905 0.47297 1.02364 0.0
H304 H 0.02699 0.39911 0.46295 0.0
H305 H -0.03432 0.52803 0.40886 0.0
H306 H 0.89153 0.4319 0.37149 0.0
H307 H 0.86809 0.32225 0.34603 0.0
H308 H -0.04936 0.20475 0.39273 0.0
H309 H -0.00986 0.28331 0.44283 0.0
C310 C -0.00465 0.40517 0.44374 0.0
C311 C 0.00082 0.46962 0.43837 0.0
C312 C -0.04316 0.35143 0.42139 0.0
C313 C -0.03836 0.47856 0.4132 0.0
C314 C 0.91956 0.42373 0.39195 0.0
C315 C 0.89178 0.31254 0.36824 0.0
C316 C 0.90753 0.25946 0.36637 0.0
C317 C 0.91973 0.36126 0.39468 0.0
C318 C 0.93848 0.24599 0.39438 0.0
C319 C -0.03821 0.29133 0.42249 0.0
H320 H 0.59662 0.0253 0.76831 0.0
H321 H 0.67611 0.16835 0.68237 0.0
H322 H 0.65644 0.07563 0.64155 0.0
H323 H 0.64679 0.9639 0.63485 0.0
H324 H 0.59642 0.82895 0.72389 0.0
H325 H 0.57394 0.90802 0.7598 0.0
C326 C 0.60579 0.03504 0.74023 0.0
C327 C 0.63735 0.10248 0.72786 0.0
C328 C 0.60135 -0.01693 0.71812 0.0
C329 C 0.65087 0.11619 0.69188 0.0
C330 C 0.6409 0.06351 0.66889 0.0
C331 C 0.62772 0.9505 0.66171 0.0
C332 C 0.6213 0.8907 0.67692 0.0
C333 C 0.62056 -0.00193 0.68232 0.0
C334 C 0.60001 0.8744 0.71193 0.0
C335 C 0.58782 0.91971 0.73226 0.0
H336 H 0.76918 0.64379 1.12932 0.0
H337 H 0.64909 0.67392 1.0509 0.0
H338 H 0.70196 0.64135 1.0055 0.0
H339 H 0.80253 0.64139 0.98615 0.0
H340 H -0.04936 0.66165 1.06157 0.0
H341 H 0.86884 0.63811 1.10963 0.0
C342 C 0.75519 0.64514 1.10237 0.0
C343 C 0.70747 0.66596 1.09427 0.0
C344 C 0.79212 0.63537 1.07539 0.0
C345 C 0.68605 0.66 1.05909 0.0
C346 C 0.71693 0.64167 1.03251 0.0
C347 C 0.81585 0.63714 1.01301 0.0
C348 C 0.88196 0.65292 1.02063 0.0
C349 C 0.77302 0.63438 1.04017 0.0
C350 C 0.8995 0.64877 1.05537 0.0
C351 C 0.85322 0.63683 1.0827 0.0
H352 H 0.2252 0.75505 0.42544 0.0
H353 H 0.05403 0.78914 0.42063 0.0
H354 H 0.1229 0.90025 0.3938 0.0
H355 H 0.22746 -0.0197 0.36581 0.0
H356 H 0.38721 0.93062 0.35466 0.0
H357 H 0.33278 0.83944 0.39832 0.0
C358 C 0.2034 0.78671 0.41786 0.0
C359 C 0.13519 0.76405 0.4239 0.0
C360 C 0.24289 0.84993 0.40197 0.0
C361 C 0.10648 0.80518 0.41485 0.0
C362 C 0.146 0.86936 0.40055 0.0
C363 C 0.25148 0.95125 0.37452 0.0
C364 C 0.30804 0.95777 0.35612 0.0
C365 C 0.21408 0.89188 0.39378 0.0
C366 C 0.34178 0.9237 0.36797 0.0
C367 C 0.30942 0.87011 0.39176 0.0
H368 H 0.55016 0.16971 0.72903 0.0
H369 H 0.46558 0.24222 0.81024 0.0
H370 H 0.48701 0.34067 0.7741 0.0
H371 H 0.49555 0.38047 0.71338 0.0
H372 H 0.57358 0.30137 0.63189 0.0
H373 H 0.59553 0.23555 0.67492 0.0
C374 C 0.54053 0.20949 0.73956 0.0
C375 C 0.50626 0.19952 0.77176 0.0
C376 C 0.55221 0.26497 0.71854 0.0
C377 C 0.4923 0.24988 0.78533 0.0
C378 C 0.50418 0.30576 0.76462 0.0
C379 C 0.52117 0.35203 0.70558 0.0
C380 C 0.52969 0.34257 0.66968 0.0
C381 C 0.52936 0.3107 0.73019 0.0
C382 C 0.56492 0.30789 0.65948 0.0
C383 C 0.57625 0.26899 0.684 0.0
H384 H 0.57481 0.2433 0.23673 0.0
H385 H 0.41512 0.0785 1.18047 0.0
H386 H 0.47262 0.01128 1.1837 0.0
H387 H 0.57092 0.00202 0.19797 0.0
H388 H 0.74293 0.17262 0.24377 0.0
H389 H 0.67879 0.23464 0.24973 0.0
C390 C 0.55238 0.19209 0.22589 0.0
C391 C 0.48821 0.1637 0.21049 0.0
C392 C 0.58846 0.15511 0.22588 0.0
C393 C 0.4614 0.09911 1.1948 0.0
C394 C 0.49517 0.06124 1.19602 0.0
C395 C 0.59454 0.05247 0.20983 0.0
C396 C 0.66148 0.08163 0.22123 0.0
C397 C 0.5588 0.08888 0.21119 0.0
C398 C 0.69095 0.14742 0.23608 0.0
C399 C 0.65441 0.18347 0.23884 0.0
H400 H 0.46085 0.45893 0.54378 0.0
H401 H 0.42473 0.61502 0.58983 0.0
H402 H 0.54617 0.69338 0.59174 0.0
H403 H 0.66474 0.71948 0.57728 0.0
H404 H 0.69573 0.55662 0.53501 0.0
H405 H 0.57601 0.48008 0.53519 0.0
C406 C 0.4796 0.50977 0.55469 0.0
C407 C 0.43375 0.53103 0.56644 0.0
C408 C 0.54938 0.55408 0.55626 0.0
C409 C 0.45893 0.59722 0.58055 0.0
C410 C 0.52855 0.64227 0.58155 0.0
C411 C 0.64512 0.66722 0.56838 0.0
C412 C 0.68989 0.64468 0.55571 0.0
C413 C 0.57465 0.62171 0.569 0.0
C414 C 0.66316 0.57619 0.54467 0.0
C415 C 0.59422 0.53184 0.54467 0.0
H416 H 0.09701 0.49727 0.90074 0.0
H417 H 0.89121 0.45233 0.89048 0.0
H418 H 0.92657 0.57459 0.88913 0.0
H419 H 0.01765 0.69509 0.888 0.0
H420 H 0.22147 0.73907 0.9056 0.0
H421 H 0.186 0.61724 0.90642 0.0
C422 C 0.06005 0.51444 0.89852 0.0
C423 C -0.00824 0.46609 0.8956 0.0
C424 C 0.0806 0.58483 0.89878 0.0
C425 C 0.9441 0.48877 0.89298 0.0
C426 C -0.03567 0.55865 0.89201 0.0
C427 C 0.05379 0.6778 0.89279 0.0
C428 C 0.12187 0.72613 0.89693 0.0
C429 C 0.03258 0.60727 0.89458 0.0
C430 C 0.16861 0.70304 0.90253 0.0
C431 C 0.14843 0.63326 0.90291 0.0
H432 H 0.31549 0.34249 0.29889 0.0
H433 H 0.315 0.16003 0.33523 0.0
H434 H 0.29758 0.18681 0.39578 0.0
H435 H 0.28479 0.26282 0.43947 0.0
H436 H 0.27812 0.44198 0.40428 0.0
H437 H 0.29545 0.41575 0.34305 0.0
C438 C 0.3118 0.30853 0.32001 0.0
C439 C 0.31769 0.24923 0.3118 0.0
C440 C 0.30029 0.32378 0.35539 0.0
C441 C 0.31145 0.20601 0.34005 0.0
C442 C 0.30131 0.22139 0.37499 0.0
C443 C 0.28694 0.2964 0.41849 0.0
C444 C 0.28073 0.35526 0.42709 0.0
C445 C 0.296 0.28024 0.38311 0.0
C446 C 0.28257 0.39665 0.39898 0.0
C447 C 0.29286 0.3816 0.36378 0.0
H448 H 0.07642 0.35524 0.63207 0.0
H449 H 0.25617 0.3562 0.6677 0.0
H450 H 0.21308 0.3385 0.72822 0.0
H451 H 0.12617 0.32507 0.77201 0.0
H452 H 0.94183 0.31524 0.73787 0.0
H453 H -0.01586 0.33311 0.67653 0.0
C454 C 0.10635 0.35176 0.65305 0.0
C455 C 0.17067 0.35831 0.64472 0.0
C456 C 0.08015 0.33976 0.68842 0.0
C457 C 0.20726 0.35208 0.67269 0.0
C458 C 0.18244 0.34185 0.70759 0.0
C459 C 0.09484 0.32687 0.75127 0.0
C460 C 0.03076 0.31991 0.76018 0.0
C461 C 0.11924 0.33603 0.7159 0.0
C462 C -0.00884 0.32082 0.73233 0.0
C463 C 0.01571 0.3313 0.69708 0.0
H464 H 0.83224 0.11437 0.96653 0.0
H465 H 0.00079 0.3017 1.00181 0.0
H466 H -0.02402 0.26154 1.06279 0.0
H467 H 0.90618 0.17352 1.10702 0.0
H468 H 0.74242 -0.01752 1.07199 0.0
H469 H 0.76582 0.02301 1.01087 0.0
C470 C 0.86349 0.14663 0.98754 0.0
C471 C 0.91817 0.21199 0.97906 0.0
C472 C 0.84979 0.12218 1.023 0.0
C473 C -0.04157 0.25172 1.00703 0.0
C474 C -0.05587 0.22861 1.04215 0.0
C475 C 0.87522 0.14059 1.08611 0.0
C476 C 0.82155 0.07484 1.09471 0.0
C477 C 0.88986 0.16403 1.05061 0.0
C478 C 0.78347 0.0332 1.06669 0.0
C479 C 0.79696 0.05659 1.03151 0.0
H480 H 0.87557 0.02442 0.33297 0.0
H481 H 0.73061 0.82625 0.29449 0.0
H482 H 0.74058 0.77322 0.34848 0.0
H483 H 0.79026 0.78132 0.40831 0.0
H484 H 0.92619 -0.01908 0.4482 0.0
H485 H 0.92217 0.03296 0.39303 0.0
C486 C 0.84591 -0.03041 0.33622 0.0
C487 C 0.80216 0.93014 0.30871 0.0
C488 C 0.85168 0.93855 0.36801 0.0
C489 C 0.76488 0.8589 0.31441 0.0
C490 C 0.7707 0.82806 0.34562 0.0
C491 C 0.82004 0.83604 0.40476 0.0
C492 C 0.86152 0.87626 0.4328 0.0
C493 C 0.81422 0.86697 0.37279 0.0
C494 C 0.89664 0.94758 0.42732 0.0
C495 C 0.89331 -0.02208 0.39555 0.0
H496 H 0.91283 0.86755 0.6749 0.0
H497 H 0.02917 0.78858 0.62065 0.0
H498 H 0.09843 0.80982 0.67249 0.0
H499 H 0.12505 0.84635 0.73549 0.0
H500 H 0.0067 0.92256 0.7899 0.0
H501 H 0.94168 0.90762 0.73699 0.0
C502 C -0.04706 0.85442 0.67434 0.0
C503 C -0.03619 0.82491 0.64325 0.0
C504 C -0.00642 0.86679 0.70488 0.0
C505 C 0.01765 0.81002 0.64375 0.0
C506 C 0.0581 0.82258 0.67366 0.0
C507 C 0.08594 0.86088 0.73563 0.0
C508 C 0.0719 0.88611 0.76729 0.0
C509 C 0.04662 0.85054 0.70468 0.0
C510 C 0.01956 0.9032 0.76639 0.0
C511 C -0.01833 0.89432 0.73591 0.0
H512 H 0.24746 0.10115 0.96532 0.0
H513 H 0.21034 0.90138 0.99705 0.0
H514 H 0.2476 0.94387 1.05672 0.0
H515 H 0.28972 0.0372 1.10101 0.0
H516 H 0.32277 0.23651 1.07094 0.0
H517 H 0.28736 0.19507 1.0108 0.0
C518 C 0.24793 0.06697 0.98522 0.0
C519 C 0.22656 -0.00237 0.97606 0.0
C520 C 0.26846 0.09186 1.02031 0.0
C521 C 0.2265 0.95456 1.00284 0.0
C522 C 0.24791 -0.02096 1.03719 0.0
C523 C 0.28999 0.07212 1.08132 0.0
C524 C 0.3108 0.141 1.09103 0.0
C525 C 0.26899 0.04754 1.04642 0.0
C526 C 0.30891 0.18404 1.06469 0.0
C527 C 0.28818 0.16002 1.03003 0.0
loop_
_geom_bond_atom_site_label_1
_geom_bond_atom_site_label_2
_geom_bond_distance
_geom_bond_site_symmetry_2
_ccdc_geom_bond_type
Tb0 C2 2.809 . S
Tb0 O20 2.484 . S
Tb0 O21 2.440 . S
Tb0 O22 2.658 . S
Tb0 O23 2.409 . S
Tb0 O24 2.378 . S
Tb0 O28 2.325 . S
Tb0 O31 2.341 1_554 S
Tb1 C11 2.809 . S
Tb1 O22 2.325 1_556 S
Tb1 O25 2.341 1_556 S
Tb1 O26 2.484 . S
Tb1 O27 2.440 . S
Tb1 O28 2.658 1_556 S
Tb1 O29 2.409 . S
Tb1 O30 2.378 . S
C2 Tb0 2.809 . S
C2 C3 1.514 . S
C2 O20 1.248 . S
C2 O21 1.266 . S
C3 C2 1.514 . S
C3 C4 1.359 . S
C3 C8 1.348 . S
C4 C3 1.359 . S
C4 C5 1.380 . S
C4 H32 0.929 . S
C5 C4 1.380 . S
C5 C6 1.347 . S
C5 H33 0.931 . S
C6 C5 1.347 . S
C6 C7 1.369 . S
C7 C6 1.369 . S
C7 C8 1.408 . S
C7 H34 0.930 . S
C8 C3 1.348 . S
C8 C7 1.408 . S
C8 H35 0.930 . S
C9 O22 1.281 . S
C9 O23 1.254 . S
C10 O24 1.236 . S
C10 O25 1.266 . S
C11 Tb1 2.809 . S
C11 C12 1.514 . S
C11 O26 1.248 . S
C11 O27 1.266 . S
C12 C11 1.514 . S
C12 C13 1.359 . S
C12 C17 1.348 . S
C13 C12 1.359 . S
C13 C14 1.380 . S
C13 H36 0.929 . S
C14 C13 1.380 . S
C14 C15 1.347 . S
C14 H37 0.931 . S
C15 C14 1.347 . S
C15 C16 1.369 . S
C16 C15 1.369 . S
C16 C17 1.408 . S
C16 H38 0.930 . S
C17 C12 1.348 . S
C17 C16 1.408 . S
C17 H39 0.930 . S
C18 O28 1.281 . S
C18 O29 1.254 1_554 S
C19 O30 1.236 . S
C19 O31 1.266 . S
O20 Tb0 2.484 . S
O20 C2 1.248 . S
O21 Tb0 2.440 . S
O21 C2 1.266 . S
O22 Tb0 2.658 . S
O22 Tb1 2.325 1_554 S
O22 C9 1.281 . S
O23 Tb0 2.409 . S
O23 C9 1.254 . S
O24 Tb0 2.378 . S
O24 C10 1.236 . S
O25 Tb1 2.341 1_554 S
O25 C10 1.266 . S
O26 Tb1 2.484 . S
O26 C11 1.248 . S
O27 Tb1 2.440 . S
O27 C11 1.266 . S
O28 Tb0 2.325 . S
O28 Tb1 2.658 1_554 S
O28 C18 1.281 . S
O29 Tb1 2.409 . S
O29 C18 1.254 1_556 S
O30 Tb1 2.378 . S
O30 C19 1.236 . S
O31 Tb0 2.341 1_556 S
O31 C19 1.266 . S
H32 C4 0.929 . S
H33 C5 0.931 . S
H34 C7 0.930 . S
H35 C8 0.930 . S
H36 C13 0.929 . S
H37 C14 0.931 . S
H38 C16 0.930 . S
H39 C17 0.930 . S
Tb40 C42 2.809 . S
Tb40 O60 2.484 . S
Tb40 O61 2.440 . S
Tb40 O62 2.658 . S
Tb40 O63 2.409 . S
Tb40 O64 2.378 . S
Tb40 O68 2.325 . S
Tb40 O71 2.341 . S
Tb41 C51 2.809 . S
Tb41 O62 2.325 . S
Tb41 O65 2.341 . S
Tb41 O66 2.484 . S
Tb41 O67 2.440 . S
Tb41 O68 2.658 . S
Tb41 O69 2.409 . S
Tb41 O70 2.378 . S
C42 Tb40 2.809 . S
C42 C43 1.514 . S
C42 O60 1.248 . S
C42 O61 1.266 . S
C43 C42 1.514 . S
C43 C44 1.359 . S
C43 C48 1.348 . S
C44 C43 1.359 . S
C44 C45 1.380 . S
C44 H72 0.929 . S
C45 C44 1.380 . S
C45 C46 1.347 . S
C45 H73 0.931 . S
C46 C45 1.347 . S
C46 C47 1.369 . S
C47 C46 1.369 . S
C47 C48 1.408 . S
C47 H74 0.930 . S
C48 C43 1.348 . S
C48 C47 1.408 . S
C48 H75 0.930 . S
C49 O62 1.281 . S
C49 O63 1.254 . S
C50 O64 1.236 . S
C50 O65 1.266 . S
C51 Tb41 2.809 . S
C51 C52 1.514 . S
C51 O66 1.248 . S
C51 O67 1.266 . S
C52 C51 1.514 . S
C52 C53 1.359 . S
C52 C57 1.348 . S
C53 C52 1.359 . S
C53 C54 1.380 . S
C53 H76 0.929 . S
C54 C53 1.380 . S
C54 C55 1.347 . S
C54 H77 0.931 . S
C55 C54 1.347 . S
C55 C56 1.369 . S
C56 C55 1.369 . S
C56 C57 1.408 . S
C56 H78 0.930 . S
C57 C52 1.348 . S
C57 C56 1.408 . S
C57 H79 0.930 . S
C58 O68 1.281 . S
C58 O69 1.254 . S
C59 O70 1.236 . S
C59 O71 1.266 . S
O60 Tb40 2.484 . S
O60 C42 1.248 . S
O61 Tb40 2.440 . S
O61 C42 1.266 . S
O62 Tb40 2.658 . S
O62 Tb41 2.325 . S
O62 C49 1.281 . S
O63 Tb40 2.409 . S
O63 C49 1.254 . S
O64 Tb40 2.378 . S
O64 C50 1.236 . S
O65 Tb41 2.341 . S
O65 C50 1.266 . S
O66 Tb41 2.484 . S
O66 C51 1.248 . S
O67 Tb41 2.440 . S
O67 C51 1.266 . S
O68 Tb40 2.325 . S
O68 Tb41 2.658 . S
O68 C58 1.281 . S
O69 Tb41 2.409 . S
O69 C58 1.254 . S
O70 Tb41 2.378 . S
O70 C59 1.236 . S
O71 Tb40 2.341 . S
O71 C59 1.266 . S
H72 C44 0.929 . S
H73 C45 0.931 . S
H74 C47 0.930 . S
H75 C48 0.930 . S
H76 C53 0.929 . S
H77 C54 0.931 . S
H78 C56 0.930 . S
H79 C57 0.930 . S
Tb80 C82 2.809 . S
Tb80 O100 2.484 . S
Tb80 O101 2.440 . S
Tb80 O102 2.658 . S
Tb80 O103 2.409 . S
Tb80 O104 2.378 . S
Tb80 O108 2.325 . S
Tb80 O111 2.341 . S
Tb81 C91 2.809 . S
Tb81 O102 2.325 1_655 S
Tb81 O105 2.341 . S
Tb81 O106 2.484 . S
Tb81 O107 2.440 . S
Tb81 O108 2.658 1_655 S
Tb81 O109 2.409 . S
Tb81 O110 2.378 1_655 S
C82 Tb80 2.809 . S
C82 C83 1.514 . S
C82 O100 1.248 . S
C82 O101 1.266 . S
C83 C82 1.514 . S
C83 C84 1.359 . S
C83 C88 1.348 . S
C84 C83 1.359 . S
C84 C85 1.380 . S
C84 H112 0.929 . S
C85 C84 1.380 . S
C85 C86 1.347 . S
C85 H113 0.931 . S
C86 C85 1.347 . S
C86 C87 1.369 . S
C87 C86 1.369 . S
C87 C88 1.408 . S
C87 H114 0.930 . S
C88 C83 1.348 . S
C88 C87 1.408 . S
C88 H115 0.930 . S
C89 O102 1.281 . S
C89 O103 1.254 . S
C90 O104 1.236 1_655 S
C90 O105 1.266 . S
C91 Tb81 2.809 . S
C91 C92 1.514 . S
C91 O106 1.248 . S
C91 O107 1.266 . S
C92 C91 1.514 . S
C92 C93 1.359 . S
C92 C97 1.348 . S
C93 C92 1.359 . S
C93 C94 1.380 . S
C93 H116 0.929 . S
C94 C93 1.380 . S
C94 C95 1.347 . S
C94 H117 0.931 . S
C95 C94 1.347 . S
C95 C96 1.369 . S
C96 C95 1.369 . S
C96 C97 1.408 . S
C96 H118 0.930 . S
C97 C92 1.348 . S
C97 C96 1.408 . S
C97 H119 0.930 . S
C98 O108 1.281 1_655 S
C98 O109 1.254 . S
C99 O110 1.236 . S
C99 O111 1.266 . S
O100 Tb80 2.484 . S
O100 C82 1.248 . S
O101 Tb80 2.440 . S
O101 C82 1.266 . S
O102 Tb80 2.658 . S
O102 Tb81 2.325 1_455 S
O102 C89 1.281 . S
O103 Tb80 2.409 . S
O103 C89 1.254 . S
O104 Tb80 2.378 . S
O104 C90 1.236 1_455 S
O105 Tb81 2.341 . S
O105 C90 1.266 . S
O106 Tb81 2.484 . S
O106 C91 1.248 . S
O107 Tb81 2.440 . S
O107 C91 1.266 . S
O108 Tb80 2.325 . S
O108 Tb81 2.658 1_455 S
O108 C98 1.281 1_455 S
O109 Tb81 2.409 . S
O109 C98 1.254 . S
O110 Tb81 2.378 1_455 S
O110 C99 1.236 . S
O111 Tb80 2.341 . S
O111 C99 1.266 . S
H112 C84 0.929 . S
H113 C85 0.931 . S
H114 C87 0.930 . S
H115 C88 0.930 . S
H116 C93 0.929 . S
H117 C94 0.931 . S
H118 C96 0.930 . S
H119 C97 0.930 . S
Tb120 C122 2.809 . S
Tb120 O140 2.484 . S
Tb120 O141 2.440 . S
Tb120 O142 2.658 . S
Tb120 O143 2.409 . S
Tb120 O144 2.378 . S
Tb120 O148 2.325 . S
Tb120 O151 2.341 1_554 S
Tb121 C131 2.809 . S
Tb121 O142 2.325 1_566 S
Tb121 O145 2.341 1_556 S
Tb121 O146 2.484 . S
Tb121 O147 2.440 . S
Tb121 O148 2.658 1_566 S
Tb121 O149 2.409 . S
Tb121 O150 2.378 1_565 S
C122 Tb120 2.809 . S
C122 C123 1.514 . S
C122 O140 1.248 . S
C122 O141 1.266 . S
C123 C122 1.514 . S
C123 C124 1.359 . S
C123 C128 1.348 . S
C124 C123 1.359 . S
C124 C125 1.380 . S
C124 H152 0.929 . S
C125 C124 1.380 . S
C125 C126 1.347 . S
C125 H153 0.931 . S
C126 C125 1.347 . S
C126 C127 1.369 . S
C127 C126 1.369 . S
C127 C128 1.408 . S
C127 H154 0.930 . S
C128 C123 1.348 . S
C128 C127 1.408 . S
C128 H155 0.930 . S
C129 O142 1.281 . S
C129 O143 1.254 . S
C130 O144 1.236 1_565 S
C130 O145 1.266 . S
C131 Tb121 2.809 . S
C131 C132 1.514 . S
C131 O146 1.248 . S
C131 O147 1.266 . S
C132 C131 1.514 . S
C132 C133 1.359 . S
C132 C137 1.348 . S
C133 C132 1.359 . S
C133 C134 1.380 . S
C133 H156 0.929 . S
C134 C133 1.380 . S
C134 C135 1.347 . S
C134 H157 0.931 . S
C135 C134 1.347 . S
C135 C136 1.369 . S
C136 C135 1.369 . S
C136 C137 1.408 . S
C136 H158 0.930 . S
C137 C132 1.348 . S
C137 C136 1.408 . S
C137 H159 0.930 . S
C138 O148 1.281 1_565 S
C138 O149 1.254 1_554 S
C139 O150 1.236 . S
C139 O151 1.266 . S
O140 Tb120 2.484 . S
O140 C122 1.248 . S
O141 Tb120 2.440 . S
O141 C122 1.266 . S
O142 Tb120 2.658 . S
O142 Tb121 2.325 1_544 S
O142 C129 1.281 . S
O143 Tb120 2.409 . S
O143 C129 1.254 . S
O144 Tb120 2.378 . S
O144 C130 1.236 1_545 S
O145 Tb121 2.341 1_554 S
O145 C130 1.266 . S
O146 Tb121 2.484 . S
O146 C131 1.248 . S
O147 Tb121 2.440 . S
O147 C131 1.266 . S
O148 Tb120 2.325 . S
O148 Tb121 2.658 1_544 S
O148 C138 1.281 1_545 S
O149 Tb121 2.409 . S
O149 C138 1.254 1_556 S
O150 Tb121 2.378 1_545 S
O150 C139 1.236 . S
O151 Tb120 2.341 1_556 S
O151 C139 1.266 . S
H152 C124 0.929 . S
H153 C125 0.931 . S
H154 C127 0.930 . S
H155 C128 0.930 . S
H156 C133 0.929 . S
H157 C134 0.931 . S
H158 C136 0.930 . S
H159 C137 0.930 . S
Tb160 C162 2.809 . S
Tb160 O180 2.484 . S
Tb160 O181 2.440 . S
Tb160 O182 2.658 1_655 S
Tb160 O183 2.409 1_655 S
Tb160 O184 2.378 . S
Tb160 O188 2.325 . S
Tb160 O191 2.341 . S
Tb161 C171 2.809 1_655 S
Tb161 O182 2.325 1_655 S
Tb161 O185 2.341 1_655 S
Tb161 O186 2.484 1_655 S
Tb161 O187 2.440 . S
Tb161 O188 2.658 . S
Tb161 O189 2.409 . S
Tb161 O190 2.378 . S
C162 Tb160 2.809 . S
C162 C163 1.514 . S
C162 O180 1.248 . S
C162 O181 1.266 . S
C163 C162 1.514 . S
C163 C164 1.359 . S
C163 C168 1.348 . S
C164 C163 1.359 . S
C164 C165 1.380 . S
C164 H192 0.929 . S
C165 C164 1.380 . S
C165 C166 1.347 . S
C165 H193 0.931 . S
C166 C165 1.347 . S
C166 C167 1.369 . S
C167 C166 1.369 . S
C167 C168 1.408 . S
C167 H194 0.930 . S
C168 C163 1.348 . S
C168 C167 1.408 . S
C168 H195 0.930 . S
C169 O182 1.281 . S
C169 O183 1.254 . S
C170 O184 1.236 . S
C170 O185 1.266 1_655 S
C171 Tb161 2.809 1_455 S
C171 C172 1.514 . S
C171 O186 1.248 . S
C171 O187 1.266 1_455 S
C172 C171 1.514 . S
C172 C173 1.359 . S
C172 C177 1.348 . S
C173 C172 1.359 . S
C173 C174 1.380 . S
C173 H196 0.929 . S
C174 C173 1.380 . S
C174 C175 1.347 . S
C174 H197 0.931 . S
C175 C174 1.347 . S
C175 C176 1.369 . S
C176 C175 1.369 . S
C176 C177 1.408 . S
C176 H198 0.930 . S
C177 C172 1.348 . S
C177 C176 1.408 . S
C177 H199 0.930 1_455 S
C178 O188 1.281 . S
C178 O189 1.254 . S
C179 O190 1.236 . S
C179 O191 1.266 . S
O180 Tb160 2.484 . S
O180 C162 1.248 . S
O181 Tb160 2.440 . S
O181 C162 1.266 . S
O182 Tb160 2.658 1_455 S
O182 Tb161 2.325 1_455 S
O182 C169 1.281 . S
O183 Tb160 2.409 1_455 S
O183 C169 1.254 . S
O184 Tb160 2.378 . S
O184 C170 1.236 . S
O185 Tb161 2.341 1_455 S
O185 C170 1.266 1_455 S
O186 Tb161 2.484 1_455 S
O186 C171 1.248 . S
O187 Tb161 2.440 . S
O187 C171 1.266 1_655 S
O188 Tb160 2.325 . S
O188 Tb161 2.658 . S
O188 C178 1.281 . S
O189 Tb161 2.409 . S
O189 C178 1.254 . S
O190 Tb161 2.378 . S
O190 C179 1.236 . S
O191 Tb160 2.341 . S
O191 C179 1.266 . S
H192 C164 0.929 . S
H193 C165 0.931 . S
H194 C167 0.930 . S
H195 C168 0.930 . S
H196 C173 0.929 . S
H197 C174 0.931 . S
H198 C176 0.930 . S
H199 C177 0.930 1_655 S
Tb200 C202 2.809 . S
Tb200 O220 2.484 . S
Tb200 O221 2.440 . S
Tb200 O222 2.658 1_565 S
Tb200 O223 2.409 1_565 S
Tb200 O224 2.378 . S
Tb200 O228 2.325 . S
Tb200 O231 2.341 . S
Tb201 C211 2.809 . S
Tb201 O222 2.325 . S
Tb201 O225 2.341 . S
Tb201 O226 2.484 . S
Tb201 O227 2.440 . S
Tb201 O228 2.658 1_545 S
Tb201 O229 2.409 1_545 S
Tb201 O230 2.378 1_545 S
C202 Tb200 2.809 . S
C202 C203 1.514 . S
C202 O220 1.248 . S
C202 O221 1.266 . S
C203 C202 1.514 . S
C203 C204 1.359 . S
C203 C208 1.348 . S
C204 C203 1.359 . S
C204 C205 1.380 . S
C204 H232 0.929 . S
C205 C204 1.380 . S
C205 C206 1.347 . S
C205 H233 0.931 . S
C206 C205 1.347 . S
C206 C207 1.369 . S
C207 C206 1.369 . S
C207 C208 1.408 . S
C207 H234 0.917 1_455 S
C208 C203 1.348 . S
C208 C207 1.408 . S
C208 H235 0.930 . S
C209 O222 1.281 . S
C209 O223 1.254 . S
C210 O224 1.236 1_545 S
C210 O225 1.266 . S
C211 Tb201 2.809 . S
C211 C212 1.514 . S
C211 O226 1.248 . S
C211 O227 1.266 . S
C212 C211 1.514 . S
C212 C213 1.359 . S
C212 C217 1.348 . S
C213 C212 1.359 . S
C213 C214 1.380 . S
C213 H236 0.929 . S
C214 C213 1.380 . S
C214 C215 1.347 . S
C214 H237 0.931 . S
C215 C214 1.347 . S
C215 C216 1.369 . S
C216 C215 1.369 . S
C216 C217 1.408 . S
C216 H238 0.930 . S
C217 C212 1.348 . S
C217 C216 1.408 . S
C217 H239 0.945 . S
C218 O228 1.281 . S
C218 O229 1.254 . S
C219 O230 1.236 . S
C219 O231 1.266 . S
O220 Tb200 2.484 . S
O220 C202 1.248 . S
O221 Tb200 2.440 . S
O221 C202 1.266 . S
O222 Tb200 2.658 1_545 S
O222 Tb201 2.325 . S
O222 C209 1.281 . S
O223 Tb200 2.409 1_545 S
O223 C209 1.254 . S
O224 Tb200 2.378 . S
O224 C210 1.236 1_565 S
O225 Tb201 2.341 . S
O225 C210 1.266 . S
O226 Tb201 2.484 . S
O226 C211 1.248 . S
O227 Tb201 2.440 . S
O227 C211 1.266 . S
O228 Tb200 2.325 . S
O228 Tb201 2.658 1_565 S
O228 C218 1.281 . S
O229 Tb201 2.409 1_565 S
O229 C218 1.254 . S
O230 Tb201 2.378 1_565 S
O230 C219 1.236 . S
O231 Tb200 2.341 . S
O231 C219 1.266 . S
H232 C204 0.929 . S
H233 C205 0.931 . S
H234 C207 0.917 1_655 S
H235 C208 0.930 . S
H236 C213 0.929 . S
H237 C214 0.931 . S
H238 C216 0.930 . S
H239 C217 0.945 . S
H240 C246 0.930 1_655 S
H241 C249 0.920 1_565 S
H242 C250 0.930 . S
H243 C251 0.930 . S
H244 C254 0.930 . S
H245 C255 0.930 . S
C246 H240 0.930 1_455 S
C246 C247 1.355 1_455 S
C246 C248 1.415 . S
C247 C246 1.355 1_655 S
C247 C249 1.428 1_655 S
C248 C246 1.415 . S
C248 C253 1.425 . S
C248 C255 1.409 . S
C249 H241 0.920 1_545 S
C249 C247 1.428 1_455 S
C249 C250 1.363 . S
C250 H242 0.930 . S
C250 C249 1.363 . S
C250 C253 1.409 . S
C251 H243 0.930 . S
C251 C252 1.355 . S
C251 C253 1.415 . S
C252 C251 1.355 . S
C252 C254 1.419 . S
C253 C248 1.425 . S
C253 C250 1.409 . S
C253 C251 1.415 . S
C254 H244 0.930 . S
C254 C252 1.419 . S
C254 C255 1.362 . S
C255 H245 0.930 . S
C255 C248 1.409 . S
C255 C254 1.362 . S
H256 C262 0.930 . S
H257 C265 0.930 . S
H258 C266 0.930 . S
H259 C267 0.930 . S
H260 C270 0.930 . S
H261 C271 0.930 . S
C262 H256 0.930 . S
C262 C263 1.355 . S
C262 C264 1.415 . S
C263 C262 1.355 . S
C263 C265 1.419 . S
C264 C262 1.415 . S
C264 C269 1.425 . S
C264 C271 1.409 . S
C265 H257 0.930 . S
C265 C263 1.419 . S
C265 C266 1.362 . S
C266 H258 0.930 . S
C266 C265 1.362 . S
C266 C269 1.409 . S
C267 H259 0.930 . S
C267 C268 1.355 . S
C267 C269 1.415 . S
C268 C267 1.355 . S
C268 C270 1.419 . S
C269 C264 1.425 . S
C269 C266 1.409 . S
C269 C267 1.415 . S
C270 H260 0.930 . S
C270 C268 1.419 . S
C270 C271 1.362 . S
C271 H261 0.930 . S
C271 C264 1.409 . S
C271 C270 1.362 . S
H272 C278 0.930 . S
H273 C281 0.930 . S
H274 C282 0.930 . S
H275 C283 0.930 . S
H276 C286 0.930 . S
H277 C287 0.930 . S
C278 H272 0.930 . S
C278 C279 1.355 . S
C278 C280 1.415 . S
C279 C278 1.355 . S
C279 C281 1.419 . S
C280 C278 1.415 . S
C280 C285 1.425 . S
C280 C287 1.409 . S
C281 H273 0.930 . S
C281 C279 1.419 . S
C281 C282 1.362 . S
C282 H274 0.930 . S
C282 C281 1.362 . S
C282 C285 1.409 . S
C283 H275 0.930 . S
C283 C284 1.355 . S
C283 C285 1.415 . S
C284 C283 1.355 . S
C284 C286 1.419 . S
C285 C280 1.425 . S
C285 C282 1.409 . S
C285 C283 1.415 . S
C286 H276 0.930 . S
C286 C284 1.419 . S
C286 C287 1.362 . S
C287 H277 0.930 . S
C287 C280 1.409 . S
C287 C286 1.362 . S
H288 C294 0.930 . S
H289 C297 0.930 . S
H290 C298 0.930 . S
H291 C299 0.930 . S
H292 C302 0.930 . S
H293 C303 0.930 . S
C294 H288 0.930 . S
C294 C295 1.355 . S
C294 C296 1.415 . S
C295 C294 1.355 . S
C295 C297 1.419 . S
C296 C294 1.415 . S
C296 C301 1.425 . S
C296 C303 1.409 . S
C297 H289 0.930 . S
C297 C295 1.419 . S
C297 C298 1.362 . S
C298 H290 0.930 . S
C298 C297 1.362 . S
C298 C301 1.409 . S
C299 H291 0.930 . S
C299 C300 1.355 . S
C299 C301 1.415 . S
C300 C299 1.355 . S
C300 C302 1.419 . S
C301 C296 1.425 . S
C301 C298 1.409 . S
C301 C299 1.415 . S
C302 H292 0.930 . S
C302 C300 1.419 . S
C302 C303 1.362 . S
C303 H293 0.930 . S
C303 C296 1.409 . S
C303 C302 1.362 . S
H304 C310 0.930 . S
H305 C313 0.930 . S
H306 C314 0.913 1_655 S
H307 C315 0.930 . S
H308 C318 0.930 . S
H309 C319 0.930 . S
C310 H304 0.930 . S
C310 C311 1.355 . S
C310 C312 1.415 . S
C311 C310 1.355 . S
C311 C313 1.419 . S
C312 C310 1.415 . S
C312 C317 1.425 1_455 S
C312 C319 1.409 . S
C313 H305 0.930 . S
C313 C311 1.419 . S
C313 C314 1.374 . S
C314 H306 0.913 1_455 S
C314 C313 1.374 . S
C314 C317 1.415 1_455 S
C315 H307 0.930 . S
C315 C316 1.355 . S
C315 C317 1.415 . S
C316 C315 1.355 . S
C316 C318 1.419 . S
C317 C312 1.425 1_655 S
C317 C314 1.415 1_655 S
C317 C315 1.415 . S
C318 H308 0.930 . S
C318 C316 1.419 . S
C318 C319 1.362 1_655 S
C319 H309 0.930 . S
C319 C312 1.409 . S
C319 C318 1.362 1_455 S
H320 C326 0.930 . S
H321 C329 0.930 . S
H322 C330 0.930 . S
H323 C331 0.930 . S
H324 C334 0.930 . S
H325 C335 0.930 . S
C326 H320 0.930 . S
C326 C327 1.355 . S
C326 C328 1.415 . S
C327 C326 1.355 . S
C327 C329 1.419 . S
C328 C326 1.415 . S
C328 C333 1.425 . S
C328 C335 1.409 1_545 S
C329 H321 0.930 . S
C329 C327 1.419 . S
C329 C330 1.362 . S
C330 H322 0.930 . S
C330 C329 1.362 . S
C330 C333 1.409 . S
C331 H323 0.930 . S
C331 C332 1.355 . S
C331 C333 1.415 1_565 S
C332 C331 1.355 . S
C332 C334 1.419 . S
C333 C328 1.425 . S
C333 C330 1.409 . S
C333 C331 1.415 1_545 S
C334 H324 0.930 . S
C334 C332 1.419 . S
C334 C335 1.362 . S
C335 H325 0.930 . S
C335 C328 1.409 1_565 S
C335 C334 1.362 . S
H336 C342 0.930 . S
H337 C345 0.930 . S
H338 C346 0.930 . S
H339 C347 0.930 . S
H340 C350 0.930 . S
H341 C351 0.930 . S
C342 H336 0.930 . S
C342 C343 1.355 . S
C342 C344 1.415 . S
C343 C342 1.355 . S
C343 C345 1.419 . S
C344 C342 1.415 . S
C344 C349 1.425 . S
C344 C351 1.409 . S
C345 H337 0.930 . S
C345 C343 1.419 . S
C345 C346 1.362 . S
C346 H338 0.930 . S
C346 C345 1.362 . S
C346 C349 1.409 . S
C347 H339 0.930 . S
C347 C348 1.355 1_655 S
C347 C349 1.415 . S
C348 C347 1.355 1_455 S
C348 C350 1.419 . S
C349 C344 1.425 . S
C349 C346 1.409 . S
C349 C347 1.415 . S
C350 H340 0.930 . S
C350 C348 1.419 . S
C350 C351 1.362 1_455 S
C351 H341 0.930 . S
C351 C344 1.409 . S
C351 C350 1.362 1_655 S
H352 C358 0.930 . S
H353 C361 0.930 . S
H354 C362 0.930 . S
H355 C363 0.930 . S
H356 C366 0.930 . S
H357 C367 0.930 . S
C358 H352 0.930 . S
C358 C359 1.355 . S
C358 C360 1.415 . S
C359 C358 1.355 . S
C359 C361 1.419 . S
C360 C358 1.415 . S
C360 C365 1.425 . S
C360 C367 1.409 . S
C361 H353 0.930 . S
C361 C359 1.419 . S
C361 C362 1.362 . S
C362 H354 0.930 . S
C362 C361 1.362 . S
C362 C365 1.409 . S
C363 H355 0.930 . S
C363 C364 1.355 . S
C363 C365 1.415 1_545 S
C364 C363 1.355 . S
C364 C366 1.419 1_545 S
C365 C360 1.425 . S
C365 C362 1.409 . S
C365 C363 1.415 1_565 S
C366 H356 0.930 . S
C366 C364 1.419 1_565 S
C366 C367 1.362 . S
C367 H357 0.930 . S
C367 C360 1.409 . S
C367 C366 1.362 . S
H368 C374 0.930 . S
H369 C377 0.930 . S
H370 C378 0.930 . S
H371 C379 0.930 . S
H372 C382 0.930 . S
H373 C383 0.930 . S
C374 H368 0.930 . S
C374 C375 1.355 . S
C374 C376 1.415 . S
C375 C374 1.355 . S
C375 C377 1.419 . S
C376 C374 1.415 . S
C376 C381 1.425 . S
C376 C383 1.409 . S
C377 H369 0.930 . S
C377 C375 1.419 . S
C377 C378 1.362 . S
C378 H370 0.930 . S
C378 C377 1.362 . S
C378 C381 1.409 . S
C379 H371 0.930 . S
C379 C380 1.355 . S
C379 C381 1.415 . S
C380 C379 1.355 . S
C380 C382 1.419 . S
C381 C376 1.425 . S
C381 C378 1.409 . S
C381 C379 1.415 . S
C382 H372 0.930 . S
C382 C380 1.419 . S
C382 C383 1.362 . S
C383 H373 0.930 . S
C383 C376 1.409 . S
C383 C382 1.362 . S
H384 C390 0.930 . S
H385 C393 0.930 . S
H386 C394 0.917 1_556 S
H387 C395 0.930 1_565 S
H388 C398 0.930 . S
H389 C399 0.930 . S
C390 H384 0.930 . S
C390 C391 1.355 . S
C390 C392 1.415 . S
C391 C390 1.355 . S
C391 C393 1.419 . S
C392 C390 1.415 . S
C392 C397 1.425 . S
C392 C399 1.409 . S
C393 H385 0.930 . S
C393 C391 1.419 . S
C393 C394 1.362 . S
C394 H386 0.917 1_554 S
C394 C393 1.362 . S
C394 C397 1.409 . S
C395 H387 0.930 1_545 S
C395 C396 1.355 . S
C395 C397 1.415 . S
C396 C395 1.355 . S
C396 C398 1.419 . S
C397 C392 1.425 . S
C397 C394 1.409 . S
C397 C395 1.415 . S
C398 H388 0.930 . S
C398 C396 1.419 . S
C398 C399 1.362 . S
C399 H389 0.930 . S
C399 C392 1.409 . S
C399 C398 1.362 . S
H400 C406 0.930 . S
H401 C409 0.930 . S
H402 C410 0.930 . S
H403 C411 0.930 . S
H404 C414 0.930 . S
H405 C415 0.930 . S
C406 H400 0.930 . S
C406 C407 1.355 . S
C406 C408 1.415 . S
C407 C406 1.355 . S
C407 C409 1.419 . S
C408 C406 1.415 . S
C408 C413 1.425 . S
C408 C415 1.409 . S
C409 H401 0.930 . S
C409 C407 1.419 . S
C409 C410 1.362 . S
C410 H402 0.930 . S
C410 C409 1.362 . S
C410 C413 1.409 . S
C411 H403 0.930 . S
C411 C412 1.355 . S
C411 C413 1.415 . S
C412 C411 1.355 . S
C412 C414 1.419 . S
C413 C408 1.425 . S
C413 C410 1.409 . S
C413 C411 1.415 . S
C414 H404 0.930 . S
C414 C412 1.419 . S
C414 C415 1.362 . S
C415 H405 0.930 . S
C415 C408 1.409 . S
C415 C414 1.362 . S
H416 C422 0.930 . S
H417 C425 0.930 . S
H418 C426 0.930 . S
H419 C427 0.930 . S
H420 C430 0.930 . S
H421 C431 0.930 . S
C422 H416 0.930 . S
C422 C423 1.355 . S
C422 C424 1.415 . S
C423 C422 1.355 . S
C423 C425 1.419 1_455 S
C424 C422 1.415 . S
C424 C429 1.425 . S
C424 C431 1.409 . S
C425 H417 0.930 . S
C425 C423 1.419 1_655 S
C425 C426 1.362 1_655 S
C426 H418 0.930 . S
C426 C425 1.362 1_455 S
C426 C429 1.409 . S
C427 H419 0.930 . S
C427 C428 1.355 . S
C427 C429 1.415 . S
C428 C427 1.355 . S
C428 C430 1.419 . S
C429 C424 1.425 . S
C429 C426 1.409 . S
C429 C427 1.415 . S
C430 H420 0.930 . S
C430 C428 1.419 . S
C430 C431 1.362 . S
C431 H421 0.930 . S
C431 C424 1.409 . S
C431 C430 1.362 . S
H432 C438 0.930 . S
H433 C441 0.930 . S
H434 C442 0.930 . S
H435 C443 0.930 . S
H436 C446 0.930 . S
H437 C447 0.930 . S
C438 H432 0.930 . S
C438 C439 1.355 . S
C438 C440 1.415 . S
C439 C438 1.355 . S
C439 C441 1.419 . S
C440 C438 1.415 . S
C440 C445 1.425 . S
C440 C447 1.409 . S
C441 H433 0.930 . S
C441 C439 1.419 . S
C441 C442 1.362 . S
C442 H434 0.930 . S
C442 C441 1.362 . S
C442 C445 1.409 . S
C443 H435 0.930 . S
C443 C444 1.355 . S
C443 C445 1.415 . S
C444 C443 1.355 . S
C444 C446 1.419 . S
C445 C440 1.425 . S
C445 C442 1.409 . S
C445 C443 1.415 . S
C446 H436 0.930 . S
C446 C444 1.419 . S
C446 C447 1.362 . S
C447 H437 0.930 . S
C447 C440 1.409 . S
C447 C446 1.362 . S
H448 C454 0.930 . S
H449 C457 0.930 . S
H450 C458 0.930 . S
H451 C459 0.930 . S
H452 C462 0.930 . S
H453 C463 0.930 . S
C454 H448 0.930 . S
C454 C455 1.355 . S
C454 C456 1.415 . S
C455 C454 1.355 . S
C455 C457 1.419 . S
C456 C454 1.415 . S
C456 C461 1.425 . S
C456 C463 1.409 . S
C457 H449 0.930 . S
C457 C455 1.419 . S
C457 C458 1.362 . S
C458 H450 0.930 . S
C458 C457 1.362 . S
C458 C461 1.409 . S
C459 H451 0.930 . S
C459 C460 1.355 . S
C459 C461 1.415 . S
C460 C459 1.355 . S
C460 C462 1.419 . S
C461 C456 1.425 . S
C461 C458 1.409 . S
C461 C459 1.415 . S
C462 H452 0.930 . S
C462 C460 1.419 . S
C462 C463 1.362 . S
C463 H453 0.930 . S
C463 C456 1.409 . S
C463 C462 1.362 . S
H464 C470 0.930 . S
H465 C473 0.930 . S
H466 C474 0.930 . S
H467 C475 0.930 . S
H468 C478 0.930 . S
H469 C479 0.930 . S
C470 H464 0.930 . S
C470 C471 1.355 . S
C470 C472 1.415 . S
C471 C470 1.355 . S
C471 C473 1.419 . S
C472 C470 1.415 . S
C472 C477 1.425 . S
C472 C479 1.409 . S
C473 H465 0.930 . S
C473 C471 1.419 . S
C473 C474 1.362 . S
C474 H466 0.930 . S
C474 C473 1.362 . S
C474 C477 1.409 . S
C475 H467 0.930 . S
C475 C476 1.355 . S
C475 C477 1.415 . S
C476 C475 1.355 . S
C476 C478 1.419 . S
C477 C472 1.425 . S
C477 C474 1.409 . S
C477 C475 1.415 . S
C478 H468 0.930 . S
C478 C476 1.419 . S
C478 C479 1.362 . S
C479 H469 0.930 . S
C479 C472 1.409 . S
C479 C478 1.362 . S
H480 C486 0.930 . S
H481 C489 0.930 . S
H482 C490 0.930 . S
H483 C491 0.930 . S
H484 C494 0.930 . S
H485 C495 0.930 1_545 S
C486 H480 0.930 . S
C486 C487 1.355 . S
C486 C488 1.415 . S
C487 C486 1.355 . S
C487 C489 1.419 . S
C488 C486 1.415 . S
C488 C493 1.425 . S
C488 C495 1.409 . S
C489 H481 0.930 . S
C489 C487 1.419 . S
C489 C490 1.362 . S
C490 H482 0.930 . S
C490 C489 1.362 . S
C490 C493 1.409 . S
C491 H483 0.930 . S
C491 C492 1.355 . S
C491 C493 1.415 . S
C492 C491 1.355 . S
C492 C494 1.419 . S
C493 C488 1.425 . S
C493 C490 1.409 . S
C493 C491 1.415 . S
C494 H484 0.930 . S
C494 C492 1.419 . S
C494 C495 1.362 . S
C495 H485 0.930 1_565 S
C495 C488 1.409 . S
C495 C494 1.362 . S
H496 C502 0.930 1_655 S
H497 C505 0.930 . S
H498 C506 0.930 . S
H499 C507 0.930 . S
H500 C510 0.930 . S
H501 C511 0.930 1_655 S
C502 H496 0.930 1_455 S
C502 C503 1.355 . S
C502 C504 1.415 . S
C503 C502 1.355 . S
C503 C505 1.419 . S
C504 C502 1.415 . S
C504 C509 1.425 . S
C504 C511 1.409 . S
C505 H497 0.930 . S
C505 C503 1.419 . S
C505 C506 1.362 . S
C506 H498 0.930 . S
C506 C505 1.362 . S
C506 C509 1.409 . S
C507 H499 0.930 . S
C507 C508 1.355 . S
C507 C509 1.415 . S
C508 C507 1.355 . S
C508 C510 1.419 . S
C509 C504 1.425 . S
C509 C506 1.409 . S
C509 C507 1.415 . S
C510 H500 0.930 . S
C510 C508 1.419 . S
C510 C511 1.362 . S
C511 H501 0.930 1_455 S
C511 C504 1.409 . S
C511 C510 1.362 . S
H512 C518 0.930 . S
H513 C521 0.930 1_565 S
H514 C522 0.930 1_565 S
H515 C523 0.930 . S
H516 C526 0.930 . S
H517 C527 0.930 . S
C518 H512 0.930 . S
C518 C519 1.355 . S
C518 C520 1.415 . S
C519 C518 1.355 . S
C519 C521 1.419 . S
C520 C518 1.415 . S
C520 C525 1.425 . S
C520 C527 1.409 . S
C521 H513 0.930 1_545 S
C521 C519 1.419 . S
C521 C522 1.362 . S
C522 H514 0.930 1_545 S
C522 C521 1.362 . S
C522 C525 1.409 . S
C523 H515 0.930 . S
C523 C524 1.355 . S
C523 C525 1.415 . S
C524 C523 1.355 . S
C524 C526 1.419 . S
C525 C520 1.425 . S
C525 C522 1.409 . S
C525 C523 1.415 . S
C526 H516 0.930 . S
C526 C524 1.419 . S
C526 C527 1.362 . S
C527 H517 0.930 . S
C527 C520 1.409 . S
C527 C526 1.362 . S
C247 C129 0.998 . S
C252 C9 0.988 . S
C263 C169 0.975 1_545 S
C268 C49 0.995 . S
C279 C209 0.907 . S
C284 C89 0.950 . S
C295 C15 0.877 . S
C300 C86 0.861 . S
C311 C55 0.988 . S
C316 C126 0.963 . S
C327 C95 0.906 . S
C332 C166 1.010 . S
C343 C135 0.988 . S
C348 C206 1.039 . S
C359 C175 0.827 . S
C364 C6 0.942 . S
C375 C215 0.802 . S
C380 C46 0.852 . S
C391 C18 1.588 . S
C396 C138 1.604 1_545 S
C407 C58 1.646 . S
C412 C178 1.627 . S
C423 C98 1.647 1_455 S
C428 C218 1.645 . S
C439 C10 4.110 . S
C444 C59 4.163 . S
C455 C50 4.114 . S
C460 C99 4.164 . S
C471 C90 4.121 . S
C476 C139 4.167 . S
C487 C130 4.121 . S
C492 C179 4.173 . S
C503 C170 4.110 1_455 S
C508 C219 4.173 . S
C519 C210 4.123 . S
C524 C19 4.170 . S
