# Generated by pormake.
# Topology zfg, (5)-cn, num edge types: 1
# Building blocks:
#     Node 0, Type 0, BuildingBlock: XOMCOT_clean_sbu_0, # of connection points: 5
#     Node 1, Type 0, BuildingBlock: XOMCOT_clean_sbu_0, # of connection points: 5
#     Node 2, Type 0, BuildingBlock: XOMCOT_clean_sbu_0, # of connection points: 5
#     Node 3, Type 0, BuildingBlock: XOMCOT_clean_sbu_0, # of connection points: 5
#     Node 4, Type 0, BuildingBlock: XOMCOT_clean_sbu_0, # of connection points: 5
#     Node 5, Type 0, BuildingBlock: XOMCOT_clean_sbu_0, # of connection points: 5
#     Node 6, Type 0, BuildingBlock: XOMCOT_clean_sbu_0, # of connection points: 5
#     Node 7, Type 0, BuildingBlock: XOMCOT_clean_sbu_0, # of connection points: 5
#     Node 8, Type 0, BuildingBlock: XOMCOT_clean_sbu_0, # of connection points: 5
#     Node 9, Type 0, BuildingBlock: XOMCOT_clean_sbu_0, # of connection points: 5
#     Node 10, Type 0, BuildingBlock: XOMCOT_clean_sbu_0, # of connection points: 5
#     Node 11, Type 0, BuildingBlock: XOMCOT_clean_sbu_0, # of connection points: 5
#     Node 12, Type 0, BuildingBlock: XOMCOT_clean_sbu_0, # of connection points: 5
#     Node 13, Type 0, BuildingBlock: XOMCOT_clean_sbu_0, # of connection points: 5
#     Node 14, Type 0, BuildingBlock: XOMCOT_clean_sbu_0, # of connection points: 5
#     Node 15, Type 0, BuildingBlock: XOMCOT_clean_sbu_0, # of connection points: 5
#     Edge 16, Type (0, 0), BuildingBlock: MIFKUJ_clean_linker_0, # of connection points: 2
#     Edge 17, Type (0, 0), BuildingBlock: MIFKUJ_clean_linker_0, # of connection points: 2
#     Edge 18, Type (0, 0), BuildingBlock: MIFKUJ_clean_linker_0, # of connection points: 2
#     Edge 19, Type (0, 0), BuildingBlock: MIFKUJ_clean_linker_0, # of connection points: 2
#     Edge 20, Type (0, 0), BuildingBlock: MIFKUJ_clean_linker_0, # of connection points: 2
#     Edge 21, Type (0, 0), BuildingBlock: MIFKUJ_clean_linker_0, # of connection points: 2
#     Edge 22, Type (0, 0), BuildingBlock: MIFKUJ_clean_linker_0, # of connection points: 2
#     Edge 23, Type (0, 0), BuildingBlock: MIFKUJ_clean_linker_0, # of connection points: 2
#     Edge 24, Type (0, 0), BuildingBlock: MIFKUJ_clean_linker_0, # of connection points: 2
#     Edge 25, Type (0, 0), BuildingBlock: MIFKUJ_clean_linker_0, # of connection points: 2
#     Edge 26, Type (0, 0), BuildingBlock: MIFKUJ_clean_linker_0, # of connection points: 2
#     Edge 27, Type (0, 0), BuildingBlock: MIFKUJ_clean_linker_0, # of connection points: 2
#     Edge 28, Type (0, 0), BuildingBlock: MIFKUJ_clean_linker_0, # of connection points: 2
#     Edge 29, Type (0, 0), BuildingBlock: MIFKUJ_clean_linker_0, # of connection points: 2
#     Edge 30, Type (0, 0), BuildingBlock: MIFKUJ_clean_linker_0, # of connection points: 2
#     Edge 31, Type (0, 0), BuildingBlock: MIFKUJ_clean_linker_0, # of connection points: 2
#     Edge 32, Type (0, 0), BuildingBlock: MIFKUJ_clean_linker_0, # of connection points: 2
#     Edge 33, Type (0, 0), BuildingBlock: MIFKUJ_clean_linker_0, # of connection points: 2
#     Edge 34, Type (0, 0), BuildingBlock: MIFKUJ_clean_linker_0, # of connection points: 2
#     Edge 35, Type (0, 0), BuildingBlock: MIFKUJ_clean_linker_0, # of connection points: 2
#     Edge 36, Type (0, 0), BuildingBlock: MIFKUJ_clean_linker_0, # of connection points: 2
#     Edge 37, Type (0, 0), BuildingBlock: MIFKUJ_clean_linker_0, # of connection points: 2
#     Edge 38, Type (0, 0), BuildingBlock: MIFKUJ_clean_linker_0, # of connection points: 2
#     Edge 39, Type (0, 0), BuildingBlock: MIFKUJ_clean_linker_0, # of connection points: 2
#     Edge 40, Type (0, 0), BuildingBlock: MIFKUJ_clean_linker_0, # of connection points: 2
#     Edge 41, Type (0, 0), BuildingBlock: MIFKUJ_clean_linker_0, # of connection points: 2
#     Edge 42, Type (0, 0), BuildingBlock: MIFKUJ_clean_linker_0, # of connection points: 2
#     Edge 43, Type (0, 0), BuildingBlock: MIFKUJ_clean_linker_0, # of connection points: 2
#     Edge 44, Type (0, 0), BuildingBlock: MIFKUJ_clean_linker_0, # of connection points: 2
#     Edge 45, Type (0, 0), BuildingBlock: MIFKUJ_clean_linker_0, # of connection points: 2
#     Edge 46, Type (0, 0), BuildingBlock: MIFKUJ_clean_linker_0, # of connection points: 2
#     Edge 47, Type (0, 0), BuildingBlock: MIFKUJ_clean_linker_0, # of connection points: 2
#     Edge 48, Type (0, 0), BuildingBlock: MIFKUJ_clean_linker_0, # of connection points: 2
#     Edge 49, Type (0, 0), BuildingBlock: MIFKUJ_clean_linker_0, # of connection points: 2
#     Edge 50, Type (0, 0), BuildingBlock: MIFKUJ_clean_linker_0, # of connection points: 2
#     Edge 51, Type (0, 0), BuildingBlock: MIFKUJ_clean_linker_0, # of connection points: 2
#     Edge 52, Type (0, 0), BuildingBlock: MIFKUJ_clean_linker_0, # of connection points: 2
#     Edge 53, Type (0, 0), BuildingBlock: MIFKUJ_clean_linker_0, # of connection points: 2
#     Edge 54, Type (0, 0), BuildingBlock: MIFKUJ_clean_linker_0, # of connection points: 2
#     Edge 55, Type (0, 0), BuildingBlock: MIFKUJ_clean_linker_0, # of connection points: 2
# Relax obj value: 0.156
# Max RMSD: 0.183
# Mean RMSD: 0.183
data_MOF--net-zfg--node1-XOMCOT_clean_sbu_0--edge1-MIFKUJ_clean_linker_0
_symmetry_space_group_name_H-M    P1
_symmetry_Int_Tables_number       1
_symmetry_cell_setting            triclinic
loop_
_symmetry_equiv_pos_as_xyz
'x, y, z'
_cell_length_a     52.634354
_cell_length_b     52.634819
_cell_length_c     68.629945
_cell_angle_alpha  90.021298
_cell_angle_beta   90.119892
_cell_angle_gamma 89.998322
loop_
_atom_site_label
_atom_site_type_symbol
_atom_site_fract_x
_atom_site_fract_y
_atom_site_fract_z
_atom_type_partial_charge
Co0 Co 0.08016 0.31037 0.1339 0.0
C1 C 0.11146 0.26342 0.13916 0.0
C2 C 0.12355 0.2941 0.15759 0.0
C3 C 0.13866 0.27338 0.16132 0.0
N4 N 0.10626 0.28784 0.14389 0.0
N5 N 0.13107 0.2541 0.14977 0.0
H6 H 0.10114 0.25265 0.12833 0.0
H7 H 0.12533 0.31256 0.16434 0.0
C8 C 0.06604 0.34466 0.16813 0.0
O9 O 0.04286 0.34839 0.1616 0.0
N10 N 0.0546 0.33354 0.12386 0.0
C11 C 0.03084 0.32845 0.11759 0.0
C12 C 0.01922 0.35102 0.11252 0.0
C13 C 0.05732 0.35895 0.12197 0.0
N14 N 0.03589 0.37016 0.11536 0.0
C15 C 0.0487 0.26664 0.12931 0.0
C16 C 0.01904 0.27187 0.16212 0.0
C17 C 0.01253 0.25311 0.14839 0.0
C18 C 0.02847 0.25007 0.13227 0.0
C19 C 0.04005 0.28779 0.15883 0.0
N20 N 0.0539 0.28598 0.14203 0.0
H21 H 0.05977 0.26393 0.11633 0.0
H22 H 0.04462 0.30149 0.16983 0.0
H23 H 0.02228 0.30982 0.11699 0.0
H24 H 0.07423 0.36917 0.12636 0.0
O25 O 0.08548 0.2978 0.1079 0.0
O26 O 0.10609 0.33039 0.12068 0.0
O27 O 0.08107 0.32914 0.15963 0.0
C28 C 0.10206 0.31574 0.1057 0.0
H29 H 0.15441 0.27273 0.17148 0.0
H30 H 0.99992 0.3532 0.10732 0.0
H31 H 0.0077 0.27479 0.17506 0.0
H32 H 0.02524 0.23517 0.12167 0.0
Co33 Co 0.7197 0.06458 0.13806 0.0
C34 C 0.76904 0.09313 0.14317 0.0
C35 C 0.73669 0.11254 0.15493 0.0
C36 C 0.75792 0.12673 0.15888 0.0
N37 N 0.74352 0.0912 0.14539 0.0
N38 N 0.77821 0.11456 0.15153 0.0
H39 H 0.7808 0.0793 0.1359 0.0
H40 H 0.71752 0.11773 0.15873 0.0
C41 C 0.68472 0.08121 0.16919 0.0
O42 O 0.67335 0.09448 0.15553 0.0
N43 N 0.69516 0.03866 0.13094 0.0
C44 C 0.69946 0.01529 0.12358 0.0
C45 C 0.67639 1.00414 0.11918 0.0
C46 C 0.6697 0.04149 0.13059 0.0
N47 N 0.65772 0.02075 0.12354 0.0
C48 C 0.76259 0.03159 0.13491 0.0
C49 C 0.75373 1.00257 0.16769 0.0
C50 C 0.77348 0.99536 0.15506 0.0
C51 C 0.77785 0.01049 0.13861 0.0
C52 C 0.73866 0.02387 0.16336 0.0
N53 N 0.74312 0.03812 0.14704 0.0
H54 H 0.76602 0.04207 0.12169 0.0
H55 H 0.72287 0.02805 0.17282 0.0
H56 H 0.71799 1.00708 0.12111 0.0
H57 H 0.66005 0.05855 0.13511 0.0
O58 O 0.73051 0.06629 0.11124 0.0
O59 O 0.69968 0.08957 0.12353 0.0
O60 O 0.70394 0.06753 0.16483 0.0
C61 C 0.7129 0.08305 0.10834 0.0
H62 H 0.75842 0.14484 0.16637 0.0
H63 H 0.67366 0.98556 0.11274 0.0
H64 H 0.7496 0.99164 0.18066 0.0
H65 H 0.79228 1.00556 0.12805 0.0
Co66 Co 0.96084 0.70354 0.14212 0.0
C67 C 0.92832 0.74933 0.14856 0.0
C68 C 0.9371 0.72939 0.17502 0.0
C69 C 0.92143 0.74948 0.17946 0.0
N70 N 0.94127 0.72913 0.15566 0.0
N71 N 0.91599 0.76201 0.16285 0.0
H72 H 0.92749 0.75444 0.13331 0.0
H73 H 0.94487 0.71586 0.18526 0.0
C74 C 0.9398 0.66668 0.16666 0.0
O75 O 0.96249 0.67085 0.17405 0.0
N76 N 0.98055 0.67757 0.12876 0.0
C77 C 0.99742 0.6813 0.11429 0.0
C78 C 1.00686 0.65809 0.10839 0.0
C79 C 0.97974 0.65209 0.13123 0.0
N80 N 0.99558 0.63972 0.119 0.0
C81 C 0.98868 0.74793 0.12965 0.0
C82 C 0.03236 0.73587 0.1502 0.0
C83 C 0.03223 0.75773 0.13845 0.0
C84 C 0.00989 0.76379 0.12826 0.0
C85 C 0.01064 0.72061 0.15129 0.0
N86 N 0.98942 0.72654 0.14087 0.0
H87 H 0.9718 0.75279 0.12152 0.0
H88 H 0.01082 0.70368 0.16023 0.0
H89 H 1.00234 0.69961 0.10823 0.0
H90 H 0.96791 0.64256 0.14172 0.0
O91 O 0.94649 0.71432 0.11668 0.0
O92 O 0.9286 0.68535 0.13314 0.0
O93 O 0.93404 0.67765 0.15039 0.0
C94 C 0.92852 0.69851 0.11729 0.0
H95 H 0.91482 0.75474 0.19383 0.0
H96 H 0.02048 0.65498 0.09685 0.0
H97 H 0.04906 0.73065 0.15853 0.0
H98 H 0.00896 0.78034 0.11891 0.0
Co99 Co 0.32334 0.94998 0.12176 0.0
C100 C 0.27451 0.91869 0.12351 0.0
C101 C 0.30814 0.89944 0.13311 0.0
C102 C 0.28821 0.8828 0.13421 0.0
N103 N 0.29975 0.92212 0.12661 0.0
N104 N 0.26703 0.89479 0.12811 0.0
H105 H 0.26183 0.93271 0.11754 0.0
H106 H 0.3277 0.89524 0.13673 0.0
C107 C 0.32749 0.93973 0.16427 0.0
O108 O 0.30255 0.94047 0.16489 0.0
N109 N 0.34824 0.97613 0.11708 0.0
C110 C 0.34558 0.99848 0.10776 0.0
C111 C 0.36933 0.00944 0.10595 0.0
C112 C 0.37327 0.97367 0.12066 0.0
N113 N 0.38673 0.99368 0.11397 0.0
C114 C 0.27886 0.98081 0.12038 0.0
C115 C 0.2918 0.01399 0.14994 0.0
C116 C 0.27017 0.01923 0.13857 0.0
C117 C 0.26351 1.00182 0.124 0.0
C118 C 0.30653 0.99232 0.146 0.0
N119 N 0.29985 0.97583 0.13144 0.0
H120 H 0.27457 0.96948 0.10774 0.0
H121 H 0.32415 0.98979 0.15385 0.0
H122 H 0.32784 1.00586 0.10215 0.0
H123 H 0.38143 0.95718 0.12769 0.0
O124 O 0.31349 0.95126 0.09483 0.0
O125 O 0.34398 0.92653 0.10651 0.0
O126 O 0.339 0.94406 0.14824 0.0
C127 C 0.33111 0.93461 0.09149 0.0
H128 H 0.28929 0.86334 0.13921 0.0
H129 H 0.37352 0.02713 0.09859 0.0
H130 H 0.29813 0.02719 0.16104 0.0
H131 H 0.24703 1.00485 0.11483 0.0
Co132 Co 0.55334 0.20762 0.36784 0.0
C133 C 0.58613 0.25349 0.36273 0.0
C134 C 0.57477 0.23683 0.33552 0.0
C135 C 0.59019 0.2573 0.33168 0.0
N136 N 0.57246 0.23418 0.35497 0.0
N137 N 0.59723 0.26776 0.34876 0.0
H138 H 0.58821 0.25696 0.37819 0.0
H139 H 0.56574 0.22489 0.32476 0.0
C140 C 0.57102 0.17407 0.3394 0.0
O141 O 0.54853 0.18134 0.33315 0.0
N142 N 0.53416 0.18092 0.38057 0.0
C143 C 0.52579 0.18126 0.39912 0.0
C144 C 0.51694 0.1574 0.40388 0.0
C145 C 0.52994 0.15697 0.37423 0.0
N146 N 0.51959 0.14219 0.3882 0.0
C147 C 0.52783 0.25101 0.38479 0.0
C148 C 0.4832 0.24341 0.36415 0.0
C149 C 0.48477 0.26406 0.37708 0.0
C150 C 0.50751 0.26779 0.38743 0.0
C151 C 0.504 0.22719 0.36188 0.0
N152 N 0.52577 0.23106 0.37218 0.0
H153 H 0.54517 0.25417 0.39285 0.0
H154 H 0.50282 0.21138 0.35184 0.0
H155 H 0.52709 0.19742 0.4088 0.0
H156 H 0.53554 0.14992 0.36012 0.0
O157 O 0.57072 0.2151 0.39291 0.0
O158 O 0.58542 0.18732 0.37362 0.0
O159 O 0.57817 0.18175 0.35643 0.0
C160 C 0.58773 0.19861 0.39021 0.0
H161 H 0.59543 0.26432 0.31741 0.0
H162 H 0.50969 0.15154 0.41792 0.0
H163 H 0.46617 0.24 0.35566 0.0
H164 H 0.5095 0.28333 0.39766 0.0
Co165 Co 0.7935 0.56882 0.3729 0.0
C166 C 0.74597 0.59692 0.36145 0.0
C167 C 0.77183 0.62023 0.37771 0.0
C168 C 0.75133 0.63482 0.37242 0.0
N169 N 0.76859 0.5963 0.37098 0.0
N170 N 0.73508 0.62017 0.36227 0.0
H171 H 0.73783 0.58107 0.35361 0.0
H172 H 0.78811 0.62709 0.38573 0.0
C173 C 0.81776 0.59686 0.34117 0.0
O174 O 0.82398 0.6132 0.35482 0.0
N175 N 0.81878 0.54232 0.37457 0.0
C176 C 0.81599 0.51866 0.38171 0.0
C177 C 0.83956 0.50722 0.3824 0.0
C178 C 0.84386 0.54507 0.37121 0.0
N179 N 0.8571 0.52392 0.3759 0.0
C180 C 0.74879 0.5388 0.37498 0.0
C181 C 0.75805 0.50865 0.3428 0.0
C182 C 0.73786 0.50213 0.35528 0.0
C183 C 0.73314 0.51797 0.37133 0.0
C184 C 0.77347 0.5297 0.34709 0.0
N185 N 0.76893 0.54421 0.36322 0.0
H186 H 0.74518 0.5502 0.38777 0.0
H187 H 0.78979 0.53345 0.33802 0.0
H188 H 0.79826 0.51064 0.38674 0.0
H189 H 0.85225 0.56252 0.36593 0.0
O190 O 0.78638 0.56487 0.40026 0.0
O191 O 0.81599 0.59033 0.38866 0.0
O192 O 0.80511 0.57704 0.34568 0.0
C193 C 0.80427 0.58112 0.40379 0.0
H194 H 0.74842 0.65465 0.37598 0.0
H195 H 0.84357 0.4885 0.38815 0.0
H196 H 0.76236 0.49725 0.3301 0.0
H197 H 0.71822 0.51374 0.38165 0.0
Co198 Co 0.44014 0.80865 0.37177 0.0
C199 C 0.41148 0.75976 0.36671 0.0
C200 C 0.39076 0.79291 0.35761 0.0
C201 C 0.37553 0.77205 0.35501 0.0
N202 N 0.41322 0.78532 0.36496 0.0
N203 N 0.38844 0.7512 0.36074 0.0
H204 H 0.42641 0.74782 0.37254 0.0
H205 H 0.38574 0.81242 0.35451 0.0
C206 C 0.45024 0.83619 0.3339 0.0
O207 O 0.47483 0.83561 0.33722 0.0
N208 N 0.46621 0.8334 0.37856 0.0
C209 C 0.48741 0.83064 0.38945 0.0
C210 C 0.49798 0.85427 0.39267 0.0
C211 C 0.46395 0.85873 0.37579 0.0
N212 N 0.48323 0.8719 0.38398 0.0
C213 C 0.47953 0.77171 0.37511 0.0
C214 C 0.48616 0.76109 0.33606 0.0
C215 C 0.50144 0.74866 0.34984 0.0
C216 C 0.49763 0.75389 0.36955 0.0
C217 C 0.46764 0.77852 0.34235 0.0
N218 N 0.46535 0.78463 0.36167 0.0
H219 H 0.47694 0.77484 0.39048 0.0
H220 H 0.45499 0.7866 0.33164 0.0
H221 H 0.49442 0.81307 0.39544 0.0
H222 H 0.4479 0.86742 0.3685 0.0
O223 O 0.43933 0.79688 0.39828 0.0
O224 O 0.41612 0.82866 0.387 0.0
O225 O 0.43481 0.82577 0.34581 0.0
C226 C 0.4228 0.81457 0.40174 0.0
H227 H 0.35639 0.77218 0.34919 0.0
H228 H 0.51505 0.85814 0.40097 0.0
H229 H 0.48812 0.75695 0.32068 0.0
H230 H 0.50882 0.74444 0.38066 0.0
Co231 Co 0.1943 0.45419 0.37932 0.0
C232 C 0.24383 0.42656 0.37987 0.0
C233 C 0.21488 0.40748 0.36328 0.0
C234 C 0.23617 0.39247 0.36354 0.0
N235 N 0.21963 0.42882 0.37346 0.0
N236 N 0.25433 0.40434 0.37403 0.0
H237 H 0.25313 0.4403 0.38921 0.0
H238 H 0.19685 0.40273 0.35662 0.0
C239 C 0.16908 0.46307 0.34037 0.0
O240 O 0.16987 0.48777 0.3431 0.0
N241 N 0.16759 0.4787 0.38512 0.0
C242 C 0.1683 0.50035 0.39567 0.0
C243 C 0.144 0.50978 0.39741 0.0
C244 C 0.14267 0.47499 0.38119 0.0
N245 N 0.12786 0.49382 0.38828 0.0
C246 C 0.22744 0.49669 0.38355 0.0
C247 C 0.24255 0.50139 0.34524 0.0
C248 C 0.25093 0.51934 0.35894 0.0
C249 C 0.24359 0.51643 0.37833 0.0
C250 C 0.22585 0.48194 0.3511 0.0
N251 N 0.21734 0.48067 0.36992 0.0
H252 H 0.22328 0.49433 0.39878 0.0
H253 H 0.22006 0.46787 0.34054 0.0
H254 H 0.18479 0.5085 0.40252 0.0
H255 H 0.13556 0.45861 0.37338 0.0
O256 O 0.20469 0.4542 0.40616 0.0
O257 O 0.17515 0.4289 0.39386 0.0
O258 O 0.17873 0.44797 0.35292 0.0
C259 C 0.18811 0.43636 0.40901 0.0
H260 H 0.23804 0.37402 0.3567 0.0
H261 H 0.13859 0.52662 0.40545 0.0
H262 H 0.24852 0.50258 0.33017 0.0
H263 H 0.25053 0.52925 0.3895 0.0
Co264 Co 0.93852 0.70808 0.88469 0.0
C265 C 0.9081 0.75688 0.87785 0.0
C266 C 0.88727 0.72223 0.87438 0.0
C267 C 0.87132 0.7421 0.87034 0.0
N268 N 0.91045 0.73122 0.87904 0.0
N269 N 0.88427 0.76403 0.87255 0.0
H270 H 0.92317 0.77017 0.88067 0.0
H271 H 0.88243 0.70229 0.87349 0.0
C272 C 0.92801 0.70116 0.84239 0.0
O273 O 0.92956 0.72596 0.84055 0.0
N274 N 0.96499 0.68356 0.88996 0.0
C275 C 0.98797 0.68704 0.89816 0.0
C276 C 1.00028 0.66386 0.89884 0.0
C277 C 0.9635 0.65853 0.88597 0.0
N278 N 0.98485 0.64588 0.89114 0.0
C279 C 0.96919 0.7528 0.88394 0.0
C280 C 1.00146 0.7383 0.85429 0.0
C281 C 1.00646 0.76105 0.86432 0.0
C282 C 0.98979 0.76825 0.8792 0.0
C283 C 0.98032 0.72345 0.85939 0.0
N284 N 0.96408 0.73104 0.87382 0.0
H285 H 0.95795 0.75795 0.89645 0.0
H286 H 0.97784 0.70524 0.85239 0.0
H287 H 0.9953 0.70511 0.90316 0.0
H288 H 0.9468 0.6498 0.87966 0.0
O289 O 0.94008 0.71994 0.91119 0.0
O290 O 0.91573 0.68824 0.90121 0.0
O291 O 0.93188 0.69071 0.85894 0.0
C292 C 0.9236 0.70255 0.91551 0.0
H293 H 0.8518 0.74027 0.8656 0.0
H294 H 0.01925 0.66068 0.90442 0.0
H295 H 0.01408 0.73171 0.84293 0.0
H296 H 0.99336 0.78505 0.8879 0.0
Co297 Co 0.30296 0.94484 0.86628 0.0
C298 C 0.25383 0.91616 0.86305 0.0
C299 C 0.28427 0.90009 0.84626 0.0
C300 C 0.26345 0.88461 0.84449 0.0
N301 N 0.27834 0.91989 0.85779 0.0
N302 N 0.24432 0.89455 0.8551 0.0
H303 H 0.24358 0.92834 0.87301 0.0
H304 H 0.30281 0.89664 0.84006 0.0
C305 C 0.33205 0.95911 0.82959 0.0
O306 O 0.33688 0.98204 0.83616 0.0
N307 N 0.32876 0.96902 0.87476 0.0
C308 C 0.32612 0.99278 0.88187 0.0
C309 C 0.3499 1.00262 0.88572 0.0
C310 C 0.35412 0.96467 0.87478 0.0
N311 N 0.36748 0.98494 0.88122 0.0
C312 C 0.26493 0.98142 0.8758 0.0
C313 C 0.2587 1.00352 0.83966 0.0
C314 C 0.24609 0.01416 0.85575 0.0
C315 C 0.24886 1.00223 0.87381 0.0
C316 C 0.27488 0.98243 0.8423 0.0
N317 N 0.27876 0.97232 0.86045 0.0
H318 H 0.26688 0.97347 0.89015 0.0
H319 H 0.28416 0.97456 0.82971 0.0
H320 H 0.30842 1.00263 0.88409 0.0
H321 H 0.36265 0.94728 0.86949 0.0
O322 O 0.29363 0.93896 0.89299 0.0
O323 O 0.32353 0.91763 0.87744 0.0
O324 O 0.31783 0.94396 0.8392 0.0
C325 C 0.31095 0.9215 0.89347 0.0
H326 H 0.26255 0.86717 0.83616 0.0
H327 H 0.35391 0.02136 0.89144 0.0
H328 H 0.25663 0.0118 0.8253 0.0
H329 H 0.23889 0.00918 0.88654 0.0
Co330 Co 0.06011 0.3085 0.87662 0.0
C331 C 0.08547 0.25698 0.87483 0.0
C332 C 0.11123 0.2885 0.87265 0.0
C333 C 0.12508 0.26647 0.87177 0.0
N334 N 0.08644 0.28274 0.87479 0.0
N335 N 0.10897 0.24668 0.87307 0.0
H336 H 0.06819 0.246 0.87625 0.0
H337 H 0.11877 0.30756 0.87161 0.0
C338 C 0.05669 0.33031 0.83615 0.0
O339 O 0.03183 0.33146 0.8375 0.0
N340 N 0.03474 0.33563 0.87819 0.0
C341 C 0.00908 0.33449 0.87802 0.0
C342 C 0.99941 0.35879 0.87832 0.0
C343 C 0.04011 0.36081 0.87863 0.0
N344 N 0.01892 0.37533 0.87871 0.0
C345 C 0.01846 0.27464 0.88149 0.0
C346 C 0.01324 0.25806 0.84353 0.0
C347 C 0.99526 0.25045 0.85747 0.0
C348 C 0.9986 0.2584 0.8767 0.0
C349 C 0.033 0.27475 0.84896 0.0
N350 N 0.03459 0.28392 0.8676 0.0
H351 H 0.01966 0.28097 0.89637 0.0
H352 H 0.04683 0.2802 0.83816 0.0
H353 H 0.99767 0.31757 0.87717 0.0
H354 H 0.0592 0.36842 0.87825 0.0
O355 O 0.05693 0.30248 0.90424 0.0
O356 O 0.08363 0.32998 0.89126 0.0
O357 O 0.06986 0.32019 0.84973 0.0
C358 C 0.07435 0.31953 0.90687 0.0
H359 H 0.14545 0.26503 0.8699 0.0
H360 H 0.97948 0.36388 0.87825 0.0
H361 H 0.01164 0.25176 0.82855 0.0
H362 H 0.98552 0.2525 0.888 0.0
Co363 Co 0.70136 0.06662 0.87452 0.0
C364 C 0.75079 0.09632 0.87069 0.0
C365 C 0.71695 0.11892 0.86939 0.0
C366 C 0.73748 0.13463 0.86699 0.0
N367 N 0.72506 0.09486 0.87186 0.0
N368 N 0.75884 0.12052 0.86782 0.0
H369 H 0.76351 0.08035 0.87182 0.0
H370 H 0.69721 0.12462 0.86893 0.0
C371 C 0.6712 0.06696 0.83629 0.0
O372 O 0.66303 0.04371 0.8392 0.0
N373 N 0.67658 0.03942 0.87728 0.0
C374 C 0.68047 0.01419 0.87873 0.0
C375 C 0.65725 1.00229 0.88077 0.0
C376 C 0.65117 0.0425 0.87904 0.0
N377 N 0.63874 0.0201 0.88086 0.0
C378 C 0.74527 0.03504 0.8755 0.0
C379 C 0.7398 0.01137 0.83989 0.0
C380 C 0.75884 1.00296 0.85267 0.0
C381 C 0.76183 0.01554 0.87042 0.0
C382 C 0.72395 0.03167 0.84532 0.0
N383 N 0.72623 0.04285 0.86327 0.0
H384 H 0.74786 0.04371 0.88958 0.0
H385 H 0.70961 0.03751 0.8352 0.0
H386 H 0.69878 1.00493 0.87831 0.0
H387 H 0.64205 0.06089 0.87867 0.0
O388 O 0.71056 0.06191 0.90142 0.0
O389 O 0.68027 0.08785 0.89162 0.0
O390 O 0.68685 0.07731 0.84823 0.0
C391 C 0.69297 0.07794 0.90606 0.0
H392 H 0.73664 0.15486 0.86424 0.0
H393 H 0.65437 0.98199 0.88174 0.0
H394 H 0.737 1.00215 0.82593 0.0
H395 H 0.7762 0.00957 0.88078 0.0
Co396 Co 0.45272 0.80619 0.6338 0.0
C397 C 0.42627 0.7554 0.63727 0.0
C398 C 0.40227 0.78778 0.64224 0.0
C399 C 0.38795 0.76624 0.64438 0.0
N400 N 0.42622 0.78117 0.63769 0.0
N401 N 0.40289 0.74584 0.64126 0.0
H402 H 0.44283 0.74397 0.63408 0.0
H403 H 0.39573 0.80711 0.64412 0.0
C404 C 0.45911 0.83054 0.6731 0.0
O405 O 0.48389 0.83001 0.67086 0.0
N406 N 0.47809 0.83283 0.63021 0.0
C407 C 0.503 0.83172 0.62567 0.0
C408 C 0.51262 0.85604 0.62512 0.0
C409 C 0.47304 0.85792 0.63209 0.0
N410 N 0.49378 0.87263 0.62917 0.0
C411 C 0.49403 0.77181 0.62981 0.0
C412 C 0.49926 0.75688 0.66815 0.0
C413 C 0.51686 0.74825 0.65429 0.0
C414 C 0.51358 0.75542 0.63491 0.0
C415 C 0.47976 0.7737 0.66237 0.0
N416 N 0.47824 0.78209 0.6435 0.0
H417 H 0.49253 0.77707 0.6147 0.0
H418 H 0.46605 0.77983 0.67305 0.0
H419 H 0.51391 0.81483 0.62296 0.0
H420 H 0.45435 0.8651 0.63558 0.0
O421 O 0.45475 0.79743 0.60663 0.0
O422 O 0.42905 0.82674 0.6184 0.0
O423 O 0.44456 0.8205 0.66032 0.0
C424 C 0.43778 0.81469 0.60325 0.0
H425 H 0.36808 0.76564 0.64841 0.0
H426 H 0.5322 0.8609 0.62219 0.0
H427 H 0.50084 0.75112 0.68325 0.0
H428 H 0.52641 0.74866 0.62371 0.0
Co429 Co 0.21154 0.44837 0.63799 0.0
C430 C 0.26156 0.42021 0.63754 0.0
C431 C 0.22967 0.39815 0.64728 0.0
C432 C 0.25084 0.38306 0.64777 0.0
N433 N 0.23622 0.42138 0.64087 0.0
N434 N 0.27095 0.39674 0.6416 0.0
H435 H 0.27276 0.43594 0.63216 0.0
H436 H 0.21065 0.39259 0.65141 0.0
C437 C 0.18861 0.45373 0.67803 0.0
O438 O 0.18759 0.47854 0.6761 0.0
N439 N 0.18525 0.47438 0.63543 0.0
C440 C 0.18696 0.49986 0.63338 0.0
C441 C 0.16282 0.50997 0.63258 0.0
C442 C 0.15999 0.46954 0.63575 0.0
N443 N 0.14587 0.49087 0.63404 0.0
C444 C 0.24693 0.48862 0.63273 0.0
C445 C 0.2628 0.4947 0.6708 0.0
C446 C 0.27141 0.5118 0.65655 0.0
C447 C 0.26379 0.50803 0.6373 0.0
C448 C 0.24552 0.47534 0.66557 0.0
N449 N 0.23675 0.47336 0.64682 0.0
H450 H 0.24099 0.48706 0.61777 0.0
H451 H 0.23925 0.46218 0.67661 0.0
H452 H 0.20417 0.51083 0.63269 0.0
H453 H 0.15208 0.45074 0.63768 0.0
O454 O 0.21835 0.45045 0.61053 0.0
O455 O 0.18965 0.42502 0.62353 0.0
O456 O 0.19898 0.44005 0.66491 0.0
C457 C 0.20061 0.43373 0.60792 0.0
H458 H 0.25141 0.36354 0.65272 0.0
H459 H 0.15814 0.52986 0.63084 0.0
H460 H 0.26879 0.49668 0.68583 0.0
H461 H 0.27043 0.52044 0.62578 0.0
Co462 Co 0.56991 0.20552 0.62318 0.0
C463 C 0.60153 0.25333 0.62982 0.0
C464 C 0.62266 0.22236 0.61777 0.0
C465 C 0.63883 0.24249 0.62028 0.0
N466 N 0.59899 0.22899 0.62344 0.0
N467 N 0.62562 0.26199 0.62786 0.0
H468 H 0.58656 0.26442 0.63633 0.0
H469 H 0.62832 0.20385 0.61257 0.0
C470 C 0.58811 0.20302 0.66459 0.0
O471 O 0.58771 0.22794 0.66512 0.0
N472 N 0.54234 0.18126 0.62293 0.0
C473 C 0.51794 0.18465 0.61756 0.0
C474 C 0.5056 0.16151 0.61858 0.0
C475 C 0.54464 0.15626 0.62682 0.0
N476 N 0.52251 0.1437 0.62428 0.0
C477 C 0.54234 0.25191 0.62374 0.0
C478 C 0.51267 0.24187 0.65598 0.0
C479 C 0.50759 0.26372 0.64486 0.0
C480 C 0.52307 0.26882 0.62879 0.0
C481 C 0.53268 0.22563 0.65065 0.0
N482 N 0.54727 0.23079 0.63466 0.0
H483 H 0.55313 0.25559 0.61066 0.0
H484 H 0.53545 0.20818 0.65868 0.0
H485 H 0.50983 0.20253 0.6129 0.0
H486 H 0.56231 0.14743 0.63122 0.0
O487 O 0.56307 0.2135 0.59626 0.0
O488 O 0.58879 0.18276 0.60601 0.0
O489 O 0.58104 0.1913 0.6492 0.0
C490 C 0.57829 0.19509 0.59163 0.0
H491 H 0.65903 0.24246 0.61736 0.0
H492 H 0.48596 0.15793 0.61476 0.0
H493 H 0.50088 0.23704 0.66835 0.0
H494 H 0.51948 0.28509 0.61952 0.0
Co495 Co 0.81039 0.56331 0.63722 0.0
C496 C 0.76053 0.59166 0.64081 0.0
C497 C 0.79334 0.61278 0.64996 0.0
C498 C 0.77235 0.6279 0.65219 0.0
N499 N 0.78611 0.59005 0.64285 0.0
N500 N 0.75169 0.61473 0.64643 0.0
H501 H 0.74864 0.57673 0.63502 0.0
H502 H 0.81274 0.61805 0.65327 0.0
C503 C 0.84296 0.56 0.67424 0.0
O504 O 0.85217 0.53767 0.66952 0.0
N505 N 0.83577 0.53752 0.63156 0.0
C506 C 0.83283 0.51231 0.62894 0.0
C507 C 0.85648 0.50152 0.62624 0.0
C508 C 0.86099 0.54175 0.6298 0.0
N509 N 0.87423 0.52004 0.62699 0.0
C510 C 0.76857 0.5292 0.63468 0.0
C511 C 0.77488 0.50401 0.6696 0.0
C512 C 0.7576 0.4944 0.65588 0.0
C513 C 0.75395 0.50783 0.63859 0.0
C514 C 0.78941 0.52566 0.66505 0.0
N515 N 0.7869 0.53746 0.64736 0.0
H516 H 0.76547 0.53848 0.62092 0.0
H517 H 0.80305 0.53205 0.6756 0.0
H518 H 0.81496 0.50223 0.62939 0.0
H519 H 0.86949 0.56034 0.63137 0.0
O520 O 0.79971 0.5622 0.61044 0.0
O521 O 0.82989 0.58752 0.62141 0.0
O522 O 0.82599 0.57078 0.66372 0.0
C523 C 0.81641 0.57952 0.60668 0.0
H524 H 0.77229 0.64711 0.65784 0.0
H525 H 0.86029 0.48143 0.62464 0.0
H526 H 0.77802 0.49421 0.68327 0.0
H527 H 0.74038 0.50133 0.62778 0.0
H528 H 0.11778 0.34479 0.91794 0.0
H529 H 0.13216 0.35347 0.95145 0.0
H530 H 0.0639 0.31885 0.97378 0.0
H531 H 0.04968 0.30995 0.94066 0.0
H532 H 0.07668 0.36328 0.99363 0.0
H533 H 0.11576 0.2845 0.97078 0.0
H534 H 0.14267 0.25956 0.94844 0.0
H535 H 0.20659 0.30707 0.96217 0.0
H536 H 0.1799 0.33251 0.98439 0.0
H537 H 0.10754 0.28192 0.07635 0.0
H538 H 0.11495 0.29148 0.0421 0.0
H539 H 0.12779 0.37022 0.05654 0.0
H540 H 0.12006 0.36071 0.09107 0.0
H541 H 0.15086 0.31404 0.01762 0.0
H542 H 0.09657 0.40206 0.02891 0.0
H543 H 0.06817 0.42196 0.05313 0.0
H544 H 0.03193 0.35013 0.06329 0.0
H545 H 0.06068 0.32969 0.03953 0.0
C546 C 0.10579 0.33929 0.93003 0.0
C547 C 0.08272 0.32652 0.92672 0.0
C548 C 0.114 0.34427 0.94912 0.0
C549 C 0.09906 0.33682 0.96508 0.0
C550 C 0.07564 0.32491 0.96169 0.0
C551 C 0.06764 0.31966 0.94274 0.0
C552 C 0.10823 0.33942 0.98544 0.0
C553 C 0.0933 0.35306 0.99877 0.0
C554 C 0.12977 0.32595 0.99225 0.0
C555 C 0.14579 0.31059 0.97901 0.0
C556 C 0.1355 0.28974 0.9689 0.0
C557 C 0.15071 0.2755 0.95629 0.0
C558 C 0.1763 0.28178 0.95384 0.0
C559 C 0.18675 0.30227 0.96404 0.0
C560 C 0.17159 0.3166 0.97664 0.0
C561 C 0.11266 0.30115 0.07232 0.0
C562 C 0.11294 0.32064 0.08629 0.0
C563 C 0.11705 0.30656 0.05274 0.0
C564 C 0.1216 0.3316 0.04674 0.0
C565 C 0.12412 0.35079 0.06088 0.0
C566 C 0.11983 0.34533 0.08059 0.0
C567 C 0.11923 0.33772 0.02572 0.0
C568 C 0.13513 0.32544 0.01231 0.0
C569 C 0.09847 0.3522 0.0188 0.0
C570 C 0.08049 0.3645 0.03237 0.0
C571 C 0.08236 0.39062 0.03619 0.0
C572 C 0.06628 0.40195 0.04987 0.0
C573 C 0.04798 0.38742 0.05949 0.0
C574 C 0.04598 0.3614 0.0557 0.0
C575 C 0.0622 0.34992 0.0422 0.0
H576 H 0.03537 0.3963 0.0699 0.0
H577 H 0.18805 0.27073 0.94407 0.0
H578 H 0.66273 0.11551 0.92221 0.0
H579 H 0.65591 0.12378 0.95721 0.0
H580 H 0.70431 0.06032 0.97151 0.0
H581 H 0.71117 0.05212 0.93713 0.0
H582 H 0.66155 0.06068 0.99399 0.0
H583 H 0.72689 0.12064 0.97187 0.0
H584 H 0.74199 0.15646 0.95181 0.0
H585 H 0.68335 0.20416 0.97529 0.0
H586 H 0.66774 0.16849 0.99533 0.0
H587 H 0.73763 0.07052 0.07508 0.0
H588 H 0.72421 0.0784 0.04166 0.0
H589 H 0.66078 0.12257 0.06226 0.0
H590 H 0.67386 0.11429 0.09618 0.0
H591 H 0.69722 0.13895 0.02372 0.0
H592 H 0.63748 0.07967 0.0512 0.0
H593 H 0.62728 0.04396 0.07304 0.0
H594 H 0.67567 0.99484 0.03968 0.0
H595 H 0.68698 0.03055 0.01809 0.0
C596 C 0.67176 0.10332 0.93288 0.0
C597 C 0.68762 0.08328 0.92688 0.0
C598 C 0.66786 0.10804 0.95284 0.0
C599 C 0.67959 0.09263 0.96701 0.0
C600 C 0.69491 0.07237 0.96091 0.0
C601 C 0.69896 0.06783 0.94117 0.0
C602 C 0.67735 0.09773 0.98828 0.0
C603 C 0.66891 0.078 1.00046 0.0
C604 C 0.68649 0.12048 0.99683 0.0
C605 C 0.69596 0.14186 0.98487 0.0
C606 C 0.71711 0.13872 0.97263 0.0
C607 C 0.72578 0.15899 0.96129 0.0
C608 C 0.71358 0.18255 0.96222 0.0
C609 C 0.69274 0.18589 0.97455 0.0
C610 C 0.68398 0.16566 0.98589 0.0
C611 C 0.72105 0.08229 0.07262 0.0
C612 C 0.70669 0.09162 0.08832 0.0
C613 C 0.71346 0.08682 0.05347 0.0
C614 C 0.6915 0.10096 0.04953 0.0
C615 C 0.67786 0.11168 0.06506 0.0
C616 C 0.68533 0.1069 0.08439 0.0
C617 C 0.68195 0.10173 0.02921 0.0
C618 C 0.68857 0.12225 0.01724 0.0
C619 C 0.67097 0.07978 0.02082 0.0
C620 C 0.66325 0.05788 0.03311 0.0
C621 C 0.64613 0.06132 0.04861 0.0
C622 C 0.64018 0.04109 0.06098 0.0
C623 C 0.65082 0.01714 0.05776 0.0
C624 C 0.66744 0.0134 0.04216 0.0
C625 C 0.67367 0.03366 0.02987 0.0
H626 H 0.64614 1.0015 0.06734 0.0
H627 H 0.72032 0.19822 0.95343 0.0
H628 H 0.9034 0.65995 0.93299 0.0
H629 H 0.89549 0.65378 0.96801 0.0
H630 H 0.91709 0.73162 0.97884 0.0
H631 H 0.92563 0.73753 0.94432 0.0
H632 H 0.94214 0.70208 1.00205 0.0
H633 H 0.85425 0.70903 0.98229 0.0
H634 H 0.81593 0.69704 0.96371 0.0
H635 H 0.81837 0.62223 0.98858 0.0
H636 H 0.85693 0.63369 0.00713 0.0
H637 H 0.90741 0.73372 0.094 0.0
H638 H 0.8961 0.7278 0.05979 0.0
H639 H 0.90578 0.6469 0.06597 0.0
H640 H 0.91682 0.65278 0.10057 0.0
H641 H 0.86415 0.67091 0.03482 0.0
H642 H 0.95517 0.66393 0.05168 0.0
H643 H 0.99248 0.67748 0.07078 0.0
H644 H 0.98173 0.75441 0.05166 0.0
H645 H 0.94448 0.74115 0.03217 0.0
C646 C 0.90604 0.67578 0.94287 0.0
C647 C 0.91534 0.69915 0.93596 0.0
C648 C 0.90148 0.67227 0.96287 0.0
C649 C 0.90576 0.69222 0.97615 0.0
C650 C 0.91387 0.71584 0.96899 0.0
C651 C 0.91871 0.71922 0.9492 0.0
C652 C 0.90388 0.68845 0.99765 0.0
C653 C 0.92497 0.69529 0.00906 0.0
C654 C 0.88181 0.67898 0.00702 0.0
C655 C 0.85863 0.67212 0.99592 0.0
C656 C 0.84674 0.68995 0.98367 0.0
C657 C 0.82495 0.68327 0.97317 0.0
C658 C 0.81477 0.65886 0.97491 0.0
C659 C 0.82631 0.64111 0.98721 0.0
C660 C 0.84812 0.6477 0.99773 0.0
C661 C 0.9058 0.71455 0.08834 0.0
C662 C 0.91282 0.69369 0.09989 0.0
C663 C 0.89937 0.71119 0.06878 0.0
C664 C 0.9002 0.68694 0.06033 0.0
C665 C 0.90472 0.66573 0.07229 0.0
C666 C 0.91093 0.66909 0.09205 0.0
C667 C 0.90217 0.68501 0.03881 0.0
C668 C 0.88129 0.67723 0.02755 0.0
C669 C 0.92437 0.69365 0.02939 0.0
C670 C 0.94707 0.70159 0.0406 0.0
C671 C 0.96077 0.68373 0.05159 0.0
C672 C 0.98189 0.69136 0.06249 0.0
C673 C 0.98937 0.71683 0.06259 0.0
C674 C 0.97589 0.73469 0.0516 0.0
C675 C 0.95487 0.72711 0.04054 0.0
H676 H 1.00566 0.72271 0.07113 0.0
H677 H 0.7979 0.65372 0.96677 0.0
H678 H 0.27966 0.91474 0.92416 0.0
H679 H 0.29179 0.90369 0.95733 0.0
H680 H 0.36855 0.88932 0.93831 0.0
H681 H 0.35639 0.90063 0.90481 0.0
H682 H 0.31336 0.86599 0.97885 0.0
H683 H 0.40663 0.91952 0.97196 0.0
H684 H 0.42817 0.94885 0.94925 0.0
H685 H 0.35614 0.98037 0.93245 0.0
H686 H 0.33427 0.95156 0.9553 0.0
H687 H 0.35315 0.89017 0.0787 0.0
H688 H 0.35895 0.87684 0.04451 0.0
H689 H 0.32749 0.94818 0.02512 0.0
H690 H 0.32128 0.96122 0.0588 0.0
H691 H 0.37072 0.93336 0.00394 0.0
H692 H 0.28954 0.90028 0.02731 0.0
H693 H 0.26276 0.87439 0.04909 0.0
H694 H 0.30383 0.80733 0.03246 0.0
H695 H 0.33105 0.83294 0.01073 0.0
C696 C 0.29897 0.90855 0.92693 0.0
C697 C 0.31719 0.90887 0.91203 0.0
C698 C 0.30584 0.90203 0.94588 0.0
C699 C 0.33113 0.89597 0.95036 0.0
C700 C 0.34894 0.89406 0.93517 0.0
C701 C 0.34198 0.90046 0.91606 0.0
C702 C 0.33908 0.89618 0.97111 0.0
C703 C 0.32647 0.88022 0.98433 0.0
C704 C 0.35587 0.91503 0.97829 0.0
C705 C 0.36886 0.9332 0.96516 0.0
C706 C 0.39544 0.93283 0.9635 0.0
C707 C 0.40769 0.94935 0.95061 0.0
C708 C 0.39352 0.96641 0.93938 0.0
C709 C 0.36709 0.96713 0.94113 0.0
C710 C 0.35477 0.95074 0.95407 0.0
C711 C 0.34775 0.903 0.06707 0.0
C712 C 0.33657 0.9266 0.07134 0.0
C713 C 0.35108 0.89541 0.04763 0.0
C714 C 0.34372 0.9116 0.03232 0.0
C715 C 0.33346 0.93549 0.03669 0.0
C716 C 0.32973 0.94282 0.05596 0.0
C717 C 0.34463 0.90348 0.01166 0.0
C718 C 0.35874 0.91817 0.99847 0.0
C719 C 0.32876 0.88388 0.00452 0.0
C720 C 0.31255 0.86854 0.01764 0.0
C721 C 0.29301 0.88005 0.02846 0.0
C722 C 0.27772 0.86543 0.04075 0.0
C723 C 0.28166 0.83925 0.04222 0.0
C724 C 0.30086 0.82763 0.03135 0.0
C725 C 0.31622 0.84218 0.01905 0.0
H726 H 0.26978 0.82795 0.05172 0.0
H727 H 0.40303 0.97912 0.92937 0.0
H728 H 0.58301 0.15299 0.40775 0.0
H729 H 0.59021 0.14617 0.4426 0.0
H730 H 0.63125 0.21699 0.44579 0.0
H731 H 0.62275 0.22444 0.41121 0.0
H732 H 0.6235 0.14488 0.47286 0.0
H733 H 0.60638 0.25285 0.48007 0.0
H734 H 0.58874 0.28795 0.46038 0.0
H735 H 0.54049 0.23538 0.42997 0.0
H736 H 0.55765 0.20005 0.4496 0.0
H737 H 0.62198 0.17638 0.57517 0.0
H738 H 0.63097 0.17161 0.54024 0.0
H739 H 0.55417 0.19477 0.52684 0.0
H740 H 0.54582 0.20091 0.56142 0.0
H741 H 0.5821 0.21873 0.50461 0.0
H742 H 0.57865 0.13077 0.52193 0.0
H743 H 0.58993 0.092 0.54017 0.0
H744 H 0.66715 0.09828 0.5207 0.0
H745 H 0.6564 0.13729 0.50253 0.0
C746 C 0.59483 0.16635 0.41568 0.0
C747 C 0.60249 0.18917 0.40686 0.0
C748 C 0.59879 0.16253 0.43566 0.0
C749 C 0.61067 0.1814 0.44694 0.0
C750 C 0.62162 0.20238 0.43745 0.0
C751 C 0.61706 0.20651 0.41763 0.0
C752 C 0.60704 0.18186 0.46847 0.0
C753 C 0.61466 0.16107 0.47989 0.0
C754 C 0.59457 0.20255 0.47758 0.0
C755 C 0.58349 0.22382 0.46618 0.0
C756 C 0.59191 0.24883 0.46926 0.0
C757 C 0.58202 0.26875 0.45808 0.0
C758 C 0.56358 0.26387 0.44387 0.0
C759 C 0.55485 0.2391 0.44091 0.0
C760 C 0.56464 0.21914 0.45206 0.0
C761 C 0.60702 0.18014 0.5647 0.0
C762 C 0.58326 0.18912 0.57094 0.0
C763 C 0.61211 0.17733 0.54473 0.0
C764 C 0.59326 0.18276 0.53072 0.0
C765 C 0.56921 0.19073 0.53719 0.0
C766 C 0.56438 0.19414 0.557 0.0
C767 C 0.59862 0.18169 0.50934 0.0
C768 C 0.59123 0.20251 0.49782 0.0
C769 C 0.61025 0.16052 0.50015 0.0
C770 C 0.61678 0.1371 0.51105 0.0
C771 C 0.59808 0.12399 0.52167 0.0
C772 C 0.60437 0.10195 0.53197 0.0
C773 C 0.62926 0.09273 0.53164 0.0
C774 C 0.64789 0.10548 0.52097 0.0
C775 C 0.64171 0.12754 0.51065 0.0
H776 H 0.63409 0.07566 0.53963 0.0
H777 H 0.55601 0.27929 0.43519 0.0
H778 H 0.84633 0.60653 0.41805 0.0
H779 H 0.85548 0.61692 0.45241 0.0
H780 H 0.78419 0.58317 0.46932 0.0
H781 H 0.77512 0.57275 0.43552 0.0
H782 H 0.79261 0.62935 0.48732 0.0
H783 H 0.83898 0.55054 0.4731 0.0
H784 H 0.87163 0.52598 0.45549 0.0
H785 H 0.92927 0.57757 0.47547 0.0
H786 H 0.89688 0.60262 0.49299 0.0
H787 H 0.78315 0.5735 0.5771 0.0
H788 H 0.78833 0.58464 0.54306 0.0
H789 H 0.86189 0.61693 0.55559 0.0
H790 H 0.85681 0.60549 0.59028 0.0
H791 H 0.8618 0.58478 0.52266 0.0
H792 H 0.8157 0.65681 0.54386 0.0
H793 H 0.78266 0.68022 0.56187 0.0
H794 H 0.72457 0.64221 0.52893 0.0
H795 H 0.75722 0.61828 0.51091 0.0
C796 C 0.83261 0.60152 0.42914 0.0
C797 C 0.81006 0.58874 0.4241 0.0
C798 C 0.83787 0.60741 0.44873 0.0
C799 C 0.82049 0.60081 0.46344 0.0
C800 C 0.79781 0.58857 0.45826 0.0
C801 C 0.79272 0.58249 0.43888 0.0
C802 C 0.82565 0.60558 0.48444 0.0
C803 C 0.80785 0.6198 0.49505 0.0
C804 C 0.84608 0.59389 0.49446 0.0
C805 C 0.86549 0.57863 0.48412 0.0
C806 C 0.85859 0.55675 0.4736 0.0
C807 C 0.87704 0.54272 0.46366 0.0
C808 C 0.90249 0.55027 0.46429 0.0
C809 C 0.90954 0.57179 0.47495 0.0
C810 C 0.89115 0.5859 0.48488 0.0
C811 C 0.80041 0.58317 0.57276 0.0
C812 C 0.81957 0.58865 0.58642 0.0
C813 C 0.80329 0.58965 0.55324 0.0
C814 C 0.82536 0.60191 0.54675 0.0
C815 C 0.84463 0.60762 0.56031 0.0
C816 C 0.84165 0.60122 0.58009 0.0
C817 C 0.82797 0.6075 0.5256 0.0
C818 C 0.84713 0.5952 0.51494 0.0
C819 C 0.80879 0.62102 0.51547 0.0
C820 C 0.78898 0.63571 0.52602 0.0
C821 C 0.79588 0.65336 0.5405 0.0
C822 C 0.77721 0.66672 0.55072 0.0
C823 C 0.75153 0.6627 0.54655 0.0
C824 C 0.74447 0.64534 0.53212 0.0
C825 C 0.76307 0.63191 0.52186 0.0
H826 H 0.73711 0.67303 0.55451 0.0
H827 H 0.91675 0.53944 0.45657 0.0
H828 H 0.4007 0.8478 0.59021 0.0
H829 H 0.39005 0.85771 0.55602 0.0
H830 H 0.44787 0.80541 0.53672 0.0
H831 H 0.45837 0.79545 0.57032 0.0
H832 H 0.45024 0.85107 0.51733 0.0
H833 H 0.38696 0.78796 0.53686 0.0
H834 H 0.35115 0.77275 0.55684 0.0
H835 H 0.30624 0.83663 0.53863 0.0
H836 H 0.34196 0.85237 0.51873 0.0
H837 H 0.43016 0.78423 0.43307 0.0
H838 H 0.42292 0.79451 0.46718 0.0
H839 H 0.38899 0.86587 0.45068 0.0
H840 H 0.39651 0.85581 0.41609 0.0
H841 H 0.36819 0.82497 0.4877 0.0
H842 H 0.43216 0.88475 0.46392 0.0
H843 H 0.46809 0.89467 0.44216 0.0
H844 H 0.51177 0.83452 0.468 0.0
H845 H 0.47588 0.82394 0.48963 0.0
C846 C 0.41103 0.83844 0.57862 0.0
C847 C 0.43031 0.82079 0.58297 0.0
C848 C 0.40498 0.84413 0.55914 0.0
C849 C 0.41828 0.83238 0.54384 0.0
C850 C 0.4375 0.81487 0.54827 0.0
C851 C 0.44336 0.80907 0.56754 0.0
C852 C 0.41235 0.83744 0.52303 0.0
C853 C 0.43209 0.8459 0.51093 0.0
C854 C 0.3886 0.83101 0.51463 0.0
C855 C 0.3672 0.82152 0.52655 0.0
C856 C 0.36952 0.79888 0.53727 0.0
C857 C 0.34924 0.79014 0.54854 0.0
C858 C 0.32646 0.80377 0.54906 0.0
C859 C 0.32391 0.82613 0.53826 0.0
C860 C 0.34416 0.83497 0.52698 0.0
C861 C 0.42071 0.80194 0.43658 0.0
C862 C 0.41415 0.81935 0.42189 0.0
C863 C 0.41647 0.80769 0.4561 0.0
C864 C 0.40551 0.83092 0.46139 0.0
C865 C 0.39738 0.84777 0.4468 0.0
C866 C 0.40172 0.84203 0.4271 0.0
C867 C 0.40616 0.83827 0.48218 0.0
C868 C 0.38574 0.83163 0.49425 0.0
C869 C 0.42925 0.84645 0.49062 0.0
C870 C 0.4513 0.85349 0.47831 0.0
C871 C 0.4494 0.87358 0.46489 0.0
C872 C 0.46974 0.87932 0.45258 0.0
C873 C 0.49218 0.86521 0.45368 0.0
C874 C 0.49437 0.84543 0.46716 0.0
C875 C 0.47404 0.83958 0.47947 0.0
H876 H 0.50788 0.86962 0.44409 0.0
H877 H 0.31077 0.79697 0.55779 0.0
H878 H 0.17052 0.3936 0.59609 0.0
H879 H 0.1574 0.38354 0.5624 0.0
H880 H 0.19879 0.44884 0.54168 0.0
H881 H 0.21217 0.45862 0.57473 0.0
H882 H 0.14821 0.44459 0.52673 0.0
H883 H 0.22583 0.39448 0.53792 0.0
H884 H 0.2502 0.36099 0.55477 0.0
H885 H 0.19382 0.3058 0.53869 0.0
H886 H 0.16896 0.33911 0.52195 0.0
H887 H 0.21479 0.44797 0.44155 0.0
H888 H 0.20563 0.43576 0.47495 0.0
H889 H 0.14274 0.3899 0.45533 0.0
H890 H 0.15163 0.40239 0.42138 0.0
H891 H 0.18824 0.3735 0.49054 0.0
H892 H 0.11533 0.42519 0.47257 0.0
H893 H 0.09567 0.46052 0.45434 0.0
H894 H 0.14522 0.51358 0.48297 0.0
H895 H 0.16548 0.47849 0.5011 0.0
C896 C 0.17677 0.40571 0.58428 0.0
C897 C 0.19247 0.42681 0.58801 0.0
C898 C 0.16925 0.39999 0.56512 0.0
C899 C 0.17701 0.41559 0.54963 0.0
C900 C 0.19244 0.4367 0.55345 0.0
C901 C 0.20022 0.44214 0.57237 0.0
C902 C 0.17011 0.41015 0.52913 0.0
C903 C 0.15635 0.42866 0.51887 0.0
C904 C 0.18044 0.38922 0.51893 0.0
C905 C 0.19538 0.3693 0.52896 0.0
C906 C 0.21852 0.37525 0.53815 0.0
C907 C 0.23244 0.3563 0.54764 0.0
C908 C 0.22351 0.3313 0.54787 0.0
C909 C 0.20068 0.32519 0.53855 0.0
C910 C 0.18667 0.34409 0.52907 0.0
C911 C 0.19916 0.43505 0.44419 0.0
C912 C 0.18377 0.42633 0.42883 0.0
C913 C 0.19405 0.428 0.46331 0.0
C914 C 0.17353 0.41202 0.46753 0.0
C915 C 0.15871 0.40222 0.45225 0.0
C916 C 0.16378 0.40941 0.43295 0.0
C917 C 0.16682 0.40821 0.4882 0.0
C918 C 0.17853 0.3884 0.49851 0.0
C919 C 0.15456 0.42793 0.49851 0.0
C920 C 0.14197 0.4492 0.4881 0.0
C921 C 0.12212 0.44438 0.47488 0.0
C922 C 0.11087 0.46436 0.46458 0.0
C923 C 0.11922 0.48927 0.46748 0.0
C924 C 0.13877 0.49427 0.48074 0.0
C925 C 0.15012 0.47435 0.49105 0.0
H926 H 0.11051 0.50471 0.45946 0.0
H927 H 0.23432 0.31665 0.55522 0.0
H928 H 0.24987 0.0485 0.10949 0.0
H929 H 0.22509 0.08721 0.11238 0.0
H930 H 0.23387 0.08522 0.17486 0.0
H931 H 0.25775 0.04532 0.17216 0.0
H932 H 0.18648 0.09797 0.16564 0.0
H933 H 0.2685 0.12671 0.14603 0.0
H934 H 0.30737 0.12802 0.12607 0.0
H935 H 0.26317 0.14814 0.07573 0.0
H936 H 0.22397 0.14661 0.09534 0.0
H937 H 0.15172 0.22796 0.17974 0.0
H938 H 0.17381 0.18715 0.1782 0.0
H939 H 0.15827 0.18265 0.11658 0.0
H940 H 0.13615 0.22373 0.11806 0.0
H941 H 0.20912 0.17348 0.12604 0.0
H942 H 0.12688 0.14491 0.1467 0.0
H943 H 0.08879 0.14444 0.16755 0.0
H944 H 0.13476 0.12526 0.21717 0.0
H945 H 0.1732 0.12598 0.19666 0.0
C946 C 0.24628 0.05595 0.12393 0.0
C947 C 0.25567 0.0435 0.14063 0.0
C948 C 0.23235 0.07841 0.12552 0.0
C949 C 0.22786 0.08943 0.14381 0.0
C950 C 0.23715 0.07714 0.16057 0.0
C951 C 0.251 0.05444 0.15899 0.0
C952 C 0.2133 0.11366 0.14525 0.0
C953 C 0.19168 0.1146 0.15721 0.0
C954 C 0.21972 0.13529 0.13397 0.0
C955 C 0.24327 0.13633 0.12213 0.0
C956 C 0.26704 0.13124 0.13068 0.0
C957 C 0.28914 0.13204 0.11943 0.0
C958 C 0.28773 0.1381 0.09963 0.0
C959 C 0.26423 0.14343 0.09106 0.0
C960 C 0.24207 0.14262 0.10224 0.0
C961 C 0.15294 0.21825 0.16587 0.0
C962 C 0.1423 0.22911 0.14899 0.0
C963 C 0.16541 0.19484 0.16504 0.0
C964 C 0.16763 0.18179 0.1473 0.0
C965 C 0.15674 0.19239 0.13043 0.0
C966 C 0.14398 0.21574 0.1313 0.0
C967 C 0.18228 0.15767 0.14628 0.0
C968 C 0.20395 0.15682 0.13445 0.0
C969 C 0.17605 0.13627 0.15782 0.0
C970 C 0.15296 0.13574 0.17017 0.0
C971 C 0.1289 0.14081 0.16209 0.0
C972 C 0.10724 0.14045 0.17384 0.0
C973 C 0.10936 0.13488 0.19368 0.0
C974 C 0.13315 0.1296 0.2018 0.0
C975 C 0.15488 0.12995 0.19012 0.0
H976 H 0.09257 0.13461 0.20276 0.0
H977 H 0.30486 0.13872 0.09095 0.0
H978 H 0.81301 0.11541 0.12259 0.0
H979 H 0.85481 0.13607 0.12367 0.0
H980 H 0.84344 0.15373 0.18449 0.0
H981 H 0.80132 0.13423 0.18301 0.0
H982 H 0.85955 0.19335 0.16838 0.0
H983 H 0.88796 0.10734 0.16678 0.0
H984 H 0.89097 0.06329 0.15476 0.0
H985 H 0.91997 0.09017 0.1001 0.0
H986 H 0.9168 0.13442 0.11169 0.0
H987 H 0.98944 0.23502 0.18189 0.0
H988 H 0.95093 0.20899 0.18422 0.0
H989 H 0.9445 0.20823 0.12164 0.0
H990 H 0.9818 0.23525 0.11908 0.0
H991 H 0.93929 0.15871 0.14065 0.0
H992 H 0.9077 0.24531 0.14327 0.0
H993 H 0.90548 0.28865 0.15682 0.0
H994 H 0.8837 0.2584 0.21244 0.0
H995 H 0.88617 0.21482 0.19926 0.0
C996 C 0.81976 0.12335 0.13621 0.0
C997 C 0.80405 0.12333 0.1527 0.0
C998 C 0.84366 0.1351 0.13688 0.0
C999 C 0.85253 0.14641 0.15423 0.0
C1000 C 0.8371 0.14538 0.17089 0.0
C1001 C 0.81309 0.13416 0.17009 0.0
C1002 C 0.87701 0.16073 0.1548 0.0
C1003 C 0.87704 0.18545 0.16264 0.0
C1004 C 0.89993 0.15082 0.14707 0.0
C1005 C 0.90192 0.12422 0.14005 0.0
C1006 C 0.8948 0.10387 0.15214 0.0
C1007 C 0.89656 0.07886 0.14542 0.0
C1008 C 0.9056 0.07394 0.12666 0.0
C1009 C 0.91295 0.09401 0.11461 0.0
C1010 C 0.9112 0.11907 0.12126 0.0
C1011 C 0.97973 0.22961 0.16861 0.0
C1012 C 0.9891 0.23717 0.15028 0.0
C1013 C 0.95782 0.21453 0.16998 0.0
C1014 C 0.94504 0.20651 0.15308 0.0
C1015 C 0.9543 0.21391 0.13484 0.0
C1016 C 0.97582 0.22929 0.13345 0.0
C1017 C 0.92155 0.19099 0.15422 0.0
C1018 C 0.92176 0.16623 0.14662 0.0
C1019 C 0.89895 0.20064 0.16245 0.0
C1020 C 0.89743 0.22681 0.17035 0.0
C1021 C 0.90269 0.24789 0.15844 0.0
C1022 C 0.90133 0.27249 0.16604 0.0
C1023 C 0.89454 0.27627 0.1855 0.0
C1024 C 0.88902 0.25544 0.19738 0.0
C1025 C 0.89038 0.23079 0.18985 0.0
H1026 H 0.89349 0.29533 0.19135 0.0
H1027 H 0.90695 0.05456 0.12148 0.0
H1028 H 0.75756 0.94958 0.17038 0.0
H1029 H 0.78155 0.90986 0.17263 0.0
H1030 H 0.84706 0.94674 0.14793 0.0
H1031 H 0.82386 0.98683 0.14656 0.0
H1032 H 0.8312 0.8991 0.12915 0.0
H1033 H 0.85045 0.93455 0.19263 0.0
H1034 H 0.83924 0.95259 0.22464 0.0
H1035 H 0.79806 0.8847 0.23893 0.0
H1036 H 0.80873 0.8664 0.20686 0.0
H1037 H 0.92471 0.80295 0.14004 0.0
H1038 H 0.90007 0.84243 0.13912 0.0
H1039 H 0.84708 0.81083 0.18051 0.0
H1040 H 0.87251 0.77197 0.1821 0.0
H1041 H 0.85504 0.85586 0.19072 0.0
H1042 H 0.8341 0.81924 0.12919 0.0
H1043 H 0.8419 0.79985 0.09704 0.0
H1044 H 0.881 0.86718 0.07845 0.0
H1045 H 0.87375 0.88685 0.1106 0.0
C1046 C 0.77724 0.94951 0.16585 0.0
C1047 C 0.78859 0.97158 0.15814 0.0
C1048 C 0.79086 0.92666 0.16698 0.0
C1049 C 0.816 0.92532 0.16028 0.0
C1050 C 0.82758 0.94731 0.15298 0.0
C1051 C 0.81417 0.97022 0.15213 0.0
C1052 C 0.83014 0.90088 0.16044 0.0
C1053 C 0.8367 0.88971 0.14258 0.0
C1054 C 0.83647 0.88828 0.17796 0.0
C1055 C 0.83016 0.89923 0.19726 0.0
C1056 C 0.83881 0.92357 0.20252 0.0
C1057 C 0.83259 0.93382 0.22069 0.0
C1058 C 0.81788 0.91983 0.23379 0.0
C1059 C 0.80942 0.89553 0.22876 0.0
C1060 C 0.81556 0.8852 0.21059 0.0
C1061 C 0.90765 0.80444 0.14875 0.0
C1062 C 0.90047 0.78446 0.16111 0.0
C1063 C 0.89348 0.82697 0.1482 0.0
C1064 C 0.87137 0.82967 0.15955 0.0
C1065 C 0.86404 0.80943 0.17166 0.0
C1066 C 0.87852 0.78717 0.17254 0.0
C1067 C 0.85634 0.85379 0.15932 0.0
C1068 C 0.84954 0.865 0.17719 0.0
C1069 C 0.84926 0.86614 0.14176 0.0
C1070 C 0.85359 0.85442 0.12238 0.0
C1071 C 0.84452 0.82984 0.1183 0.0
C1072 C 0.84882 0.81881 0.10007 0.0
C1073 C 0.86199 0.83225 0.08573 0.0
C1074 C 0.87083 0.85678 0.08958 0.0
C1075 C 0.86661 0.86789 0.1078 0.0
H1076 H 0.8653 0.82367 0.07162 0.0
H1077 H 0.8131 0.92779 0.24785 0.0
H1078 H 0.25561 0.84513 0.1227 0.0
H1079 H 0.21379 0.82567 0.12266 0.0
H1080 H 0.17913 0.89941 0.12939 0.0
H1081 H 0.22142 0.91909 0.13028 0.0
H1082 H 0.15782 0.86559 0.15353 0.0
H1083 H 0.17655 0.86761 0.08583 0.0
H1084 H 0.20288 0.86144 0.05654 0.0
H1085 H 0.20386 0.78094 0.06658 0.0
H1086 H 0.17791 0.78665 0.09615 0.0
H1087 H 0.0352 0.80978 0.1381 0.0
H1088 H 0.07319 0.83614 0.13422 0.0
H1089 H 0.11946 0.76868 0.13064 0.0
H1090 H 0.08153 0.74222 0.13416 0.0
H1091 H 0.13213 0.80366 0.10264 0.0
H1092 H 0.11733 0.80286 0.17212 0.0
H1093 H 0.09202 0.80936 0.20191 0.0
H1094 H 0.08359 0.88844 0.18798 0.0
H1095 H 0.10857 0.88233 0.15794 0.0
C1096 C 0.23919 0.8573 0.12429 0.0
C1097 C 0.24197 0.88372 0.12664 0.0
C1098 C 0.21518 0.84612 0.12402 0.0
C1099 C 0.19322 0.86106 0.12577 0.0
C1100 C 0.1958 0.8875 0.12793 0.0
C1101 C 0.21997 0.89875 0.12827 0.0
C1102 C 0.16779 0.84867 0.12601 0.0
C1103 C 0.15196 0.85248 0.14218 0.0
C1104 C 0.16028 0.83121 0.11136 0.0
C1105 C 0.17539 0.82759 0.0933 0.0
C1106 C 0.18248 0.8486 0.08186 0.0
C1107 C 0.19734 0.84518 0.0652 0.0
C1108 C 0.20507 0.82082 0.05972 0.0
C1109 C 0.19787 0.79981 0.07085 0.0
C1110 C 0.18305 0.80312 0.08755 0.0
C1111 C 0.05345 0.80055 0.13638 0.0
C1112 C 0.05533 0.77387 0.13651 0.0
C1113 C 0.07517 0.81565 0.13428 0.0
C1114 C 0.09921 0.8044 0.13225 0.0
C1115 C 0.10112 0.77779 0.1322 0.0
C1116 C 0.07945 0.76268 0.1344 0.0
C1117 C 0.12247 0.82025 0.13033 0.0
C1118 C 0.13786 0.81707 0.11382 0.0
C1119 C 0.12951 0.83838 0.14461 0.0
C1120 C 0.11456 0.84208 0.16268 0.0
C1121 C 0.10989 0.82159 0.17533 0.0
C1122 C 0.09565 0.82521 0.19227 0.0
C1123 C 0.08614 0.84928 0.1968 0.0
C1124 C 0.09092 0.8698 0.18443 0.0
C1125 C 0.10513 0.86627 0.16745 0.0
H1126 H 0.07512 0.85204 0.20993 0.0
H1127 H 0.21662 0.81823 0.04684 0.0
H1128 H 0.75414 0.45581 0.34123 0.0
H1129 H 0.73033 0.41596 0.33965 0.0
H1130 H 0.66426 0.45356 0.36279 0.0
H1131 H 0.68728 0.49381 0.36343 0.0
H1132 H 0.68052 0.40608 0.38272 0.0
H1133 H 0.66097 0.44015 0.31879 0.0
H1134 H 0.67219 0.45768 0.28662 0.0
H1135 H 0.71424 0.39 0.27324 0.0
H1136 H 0.70357 0.37221 0.30547 0.0
H1137 H 0.58854 0.30784 0.37242 0.0
H1138 H 0.61271 0.34765 0.37356 0.0
H1139 H 0.66587 0.31711 0.33178 0.0
H1140 H 0.64069 0.27811 0.32984 0.0
H1141 H 0.65723 0.36153 0.32157 0.0
H1142 H 0.67879 0.32625 0.3835 0.0
H1143 H 0.67112 0.30727 0.4158 0.0
H1144 H 0.63086 0.37427 0.43365 0.0
H1145 H 0.63798 0.39353 0.40135 0.0
C1146 C 0.73438 0.45588 0.34555 0.0
C1147 C 0.72281 0.47823 0.35258 0.0
C1148 C 0.72087 0.43296 0.34482 0.0
C1149 C 0.69562 0.43179 0.35129 0.0
C1150 C 0.68383 0.45401 0.35795 0.0
C1151 C 0.69714 0.47701 0.35837 0.0
C1152 C 0.68159 0.40731 0.35141 0.0
C1153 C 0.67513 0.3964 0.36939 0.0
C1154 C 0.6754 0.39434 0.33402 0.0
C1155 C 0.6817 0.40497 0.31462 0.0
C1156 C 0.67281 0.42911 0.30906 0.0
C1157 C 0.67902 0.43907 0.2908 0.0
C1158 C 0.69398 0.42499 0.27792 0.0
C1159 C 0.70269 0.40089 0.28325 0.0
C1160 C 0.69654 0.39086 0.3015 0.0
C1161 C 0.60557 0.30966 0.36371 0.0
C1162 C 0.61285 0.29 0.35109 0.0
C1163 C 0.61949 0.33235 0.36439 0.0
C1164 C 0.64146 0.33548 0.35294 0.0
C1165 C 0.649 0.31542 0.3407 0.0
C1166 C 0.63472 0.29307 0.33965 0.0
C1167 C 0.65601 0.3599 0.35299 0.0
C1168 C 0.66261 0.37094 0.33502 0.0
C1169 C 0.66289 0.37267 0.37044 0.0
C1170 C 0.65871 0.36123 0.38993 0.0
C1171 C 0.66815 0.33687 0.39427 0.0
C1172 C 0.66392 0.32607 0.41258 0.0
C1173 C 0.65045 0.33952 0.42675 0.0
C1174 C 0.64126 0.36385 0.42265 0.0
C1175 C 0.64541 0.37473 0.40435 0.0
H1176 H 0.64718 0.33112 0.44092 0.0
H1177 H 0.69877 0.43274 0.26379 0.0
H1178 H 0.543 0.75738 0.32712 0.0
H1179 H 0.58054 0.73015 0.32397 0.0
H1180 H 0.54287 0.67166 0.35723 0.0
H1181 H 0.50586 0.69935 0.36101 0.0
H1182 H 0.58635 0.67874 0.37207 0.0
H1183 H 0.55865 0.66555 0.30682 0.0
H1184 H 0.5438 0.67709 0.2739 0.0
H1185 H 0.61323 0.7177 0.2636 0.0
H1186 H 0.62837 0.7067 0.29657 0.0
H1187 H 0.69098 0.59384 0.3636 0.0
H1188 H 0.64838 0.61044 0.35602 0.0
H1189 H 0.68162 0.68107 0.33702 0.0
H1190 H 0.72401 0.66468 0.34486 0.0
H1191 H 0.63892 0.66329 0.31335 0.0
H1192 H 0.66305 0.6798 0.38058 0.0
H1193 H 0.67761 0.66697 0.4133 0.0
H1194 H 0.61303 0.6177 0.41906 0.0
H1195 H 0.5983 0.62997 0.3862 0.0
C1196 C 0.54256 0.73843 0.33326 0.0
C1197 C 0.52159 0.7304 0.34426 0.0
C1198 C 0.56401 0.72281 0.33146 0.0
C1199 C 0.56465 0.69868 0.34031 0.0
C1200 C 0.54301 0.69018 0.35035 0.0
C1201 C 0.52179 0.70592 0.3524 0.0
C1202 C 0.5886 0.68345 0.34088 0.0
C1203 C 0.59744 0.67492 0.35909 0.0
C1204 C 0.60357 0.67877 0.3241 0.0
C1205 C 0.59455 0.68547 0.30425 0.0
C1206 C 0.57067 0.67711 0.2976 0.0
C1207 C 0.56222 0.68352 0.27892 0.0
C1208 C 0.57753 0.69816 0.26669 0.0
C1209 C 0.60137 0.70637 0.2731 0.0
C1210 C 0.60992 0.70003 0.29178 0.0
C1211 C 0.68914 0.61265 0.35737 0.0
C1212 C 0.71068 0.62807 0.35492 0.0
C1213 C 0.66487 0.62214 0.35311 0.0
C1214 C 0.66186 0.64704 0.34604 0.0
C1215 C 0.68351 0.66181 0.34241 0.0
C1216 C 0.70767 0.65251 0.34699 0.0
C1217 C 0.63627 0.65876 0.34442 0.0
C1218 C 0.62736 0.66678 0.32614 0.0
C1219 C 0.62103 0.66278 0.36107 0.0
C1220 C 0.62976 0.65555 0.38086 0.0
C1221 C 0.65208 0.66605 0.38875 0.0
C1222 C 0.66034 0.65892 0.40733 0.0
C1223 C 0.6463 0.64146 0.41823 0.0
C1224 C 0.62392 0.63117 0.41058 0.0
C1225 C 0.61561 0.63821 0.39199 0.0
H1226 H 0.65272 0.63597 0.43261 0.0
H1227 H 0.57095 0.7031 0.25222 0.0
H1228 H 0.24019 0.56897 0.36466 0.0
H1229 H 0.26839 0.60542 0.36052 0.0
H1230 H 0.3269 0.55603 0.33819 0.0
H1231 H 0.29835 0.51923 0.34225 0.0
H1232 H 0.34411 0.5895 0.36782 0.0
H1233 H 0.30026 0.5952 0.30734 0.0
H1234 H 0.26315 0.59537 0.28536 0.0
H1235 H 0.23353 0.66114 0.31455 0.0
H1236 H 0.27027 0.66115 0.33691 0.0
H1237 H 0.41427 0.70757 0.35291 0.0
H1238 H 0.39577 0.66488 0.34887 0.0
H1239 H 0.32203 0.69466 0.36405 0.0
H1240 H 0.34029 0.73686 0.36787 0.0
H1241 H 0.31864 0.66727 0.33197 0.0
H1242 H 0.35836 0.65717 0.39545 0.0
H1243 H 0.39454 0.65676 0.41835 0.0
H1244 H 0.43137 0.59943 0.38398 0.0
H1245 H 0.39551 0.59973 0.36074 0.0
C1246 C 0.25891 0.56595 0.35853 0.0
C1247 C 0.26707 0.54137 0.35364 0.0
C1248 C 0.27502 0.58677 0.35618 0.0
C1249 C 0.29975 0.5835 0.34898 0.0
C1250 C 0.30788 0.55898 0.34373 0.0
C1251 C 0.29154 0.53806 0.34588 0.0
C1252 C 0.31704 0.60583 0.34785 0.0
C1253 C 0.33891 0.60634 0.35962 0.0
C1254 C 0.31009 0.6279 0.33737 0.0
C1255 C 0.28799 0.62809 0.32388 0.0
C1256 C 0.28575 0.6096 0.30917 0.0
C1257 C 0.26479 0.60968 0.29662 0.0
C1258 C 0.24599 0.62823 0.29857 0.0
C1259 C 0.24812 0.64678 0.31306 0.0
C1260 C 0.26904 0.64678 0.32565 0.0
C1261 C 0.39421 0.70479 0.35564 0.0
C1262 C 0.37867 0.72559 0.3605 0.0
C1263 C 0.38363 0.68045 0.35329 0.0
C1264 C 0.3574 0.67652 0.35602 0.0
C1265 C 0.3422 0.69718 0.36158 0.0
C1266 C 0.35267 0.72134 0.36378 0.0
C1267 C 0.34516 0.65136 0.35258 0.0
C1268 C 0.3242 0.6503 0.33988 0.0
C1269 C 0.35292 0.62889 0.36227 0.0
C1270 C 0.37443 0.62871 0.37623 0.0
C1271 C 0.37428 0.64464 0.39269 0.0
C1272 C 0.3947 0.64439 0.40575 0.0
C1273 C 0.41529 0.62815 0.40258 0.0
C1274 C 0.41545 0.61205 0.38639 0.0
C1275 C 0.39508 0.61224 0.37327 0.0
H1276 H 0.43108 0.62798 0.41271 0.0
H1277 H 0.22977 0.62826 0.28885 0.0
H1278 H 0.26591 0.35509 0.38003 0.0
H1279 H 0.30791 0.33675 0.38478 0.0
H1280 H 0.34114 0.41165 0.38353 0.0
H1281 H 0.29867 0.43022 0.37838 0.0
H1282 H 0.36653 0.37832 0.35992 0.0
H1283 H 0.33981 0.37933 0.42583 0.0
H1284 H 0.31086 0.37287 0.45357 0.0
H1285 H 0.31081 0.29247 0.44298 0.0
H1286 H 0.33946 0.29846 0.41497 0.0
H1287 H 0.48524 0.3161 0.37975 0.0
H1288 H 0.44877 0.34469 0.38326 0.0
H1289 H 0.39824 0.28019 0.38351 0.0
H1290 H 0.43455 0.25154 0.3804 0.0
H1291 H 0.38544 0.31485 0.41139 0.0
H1292 H 0.40656 0.31531 0.34268 0.0
H1293 H 0.43491 0.32171 0.31455 0.0
H1294 H 0.44533 0.39982 0.33077 0.0
H1295 H 0.41728 0.39378 0.35918 0.0
C1296 C 0.28211 0.36771 0.3808 0.0
C1297 C 0.27902 0.3941 0.37867 0.0
C1298 C 0.30613 0.35721 0.38372 0.0
C1299 C 0.3277 0.37281 0.38469 0.0
C1300 C 0.32473 0.39927 0.38291 0.0
C1301 C 0.30051 0.40986 0.3801 0.0
C1302 C 0.35325 0.36095 0.38643 0.0
C1303 C 0.37094 0.36492 0.37146 0.0
C1304 C 0.35887 0.34314 0.4013 0.0
C1305 C 0.3417 0.33938 0.41821 0.0
C1306 C 0.33349 0.36028 0.42932 0.0
C1307 C 0.31715 0.3567 0.44511 0.0
C1308 C 0.30898 0.33228 0.45002 0.0
C1309 C 0.31716 0.31138 0.43916 0.0
C1310 C 0.33349 0.31485 0.42334 0.0
C1311 C 0.46638 0.308 0.38076 0.0
C1312 C 0.46279 0.28153 0.37969 0.0
C1313 C 0.44555 0.32438 0.38263 0.0
C1314 C 0.42075 0.31459 0.38349 0.0
C1315 C 0.41719 0.28817 0.38286 0.0
C1316 C 0.43795 0.27183 0.3809 0.0
C1317 C 0.39831 0.3317 0.38461 0.0
C1318 C 0.38123 0.32866 0.40011 0.0
C1319 C 0.39328 0.35037 0.37025 0.0
C1320 C 0.41009 0.35401 0.35318 0.0
C1321 C 0.41507 0.33379 0.34034 0.0
C1322 C 0.43105 0.33736 0.32433 0.0
C1323 C 0.44199 0.36113 0.32091 0.0
C1324 C 0.4369 0.38141 0.33347 0.0
C1325 C 0.42095 0.37792 0.34952 0.0
H1326 H 0.45435 0.36386 0.3085 0.0
H1327 H 0.29632 0.32955 0.46225 0.0
H1328 H 0.83457 0.77837 0.87055 0.0
H1329 H 0.81777 0.82022 0.86335 0.0
H1330 H 0.89372 0.85049 0.86086 0.0
H1331 H 0.91111 0.80815 0.86734 0.0
H1332 H 0.85741 0.87988 0.88367 0.0
H1333 H 0.86593 0.84347 0.81997 0.0
H1334 H 0.86071 0.81018 0.795 0.0
H1335 H 0.77961 0.81529 0.80037 0.0
H1336 H 0.78435 0.84835 0.82561 0.0
H1337 H 0.8105 0.99884 0.85374 0.0
H1338 H 0.83567 0.95972 0.8532 0.0
H1339 H 0.76734 0.9161 0.84362 0.0
H1340 H 0.74232 0.95538 0.84336 0.0
H1341 H 0.80435 0.89455 0.82486 0.0
H1342 H 0.79429 0.92587 0.89019 0.0
H1343 H 0.79722 0.95749 0.91663 0.0
H1344 H 0.8783 0.96007 0.91008 0.0
H1345 H 0.8758 0.92872 0.88339 0.0
C1346 C 0.84796 0.79363 0.86822 0.0
C1347 C 0.87439 0.78943 0.8693 0.0
C1348 C 0.83818 0.81771 0.86418 0.0
C1349 C 0.85447 0.83841 0.86133 0.0
C1350 C 0.88081 0.8347 0.86294 0.0
C1351 C 0.89071 0.81042 0.86675 0.0
C1352 C 0.84362 0.86382 0.85684 0.0
C1353 C 0.84626 0.88332 0.87061 0.0
C1354 C 0.82845 0.868 0.84009 0.0
C1355 C 0.82551 0.84826 0.8248 0.0
C1356 C 0.84699 0.83736 0.81594 0.0
C1357 C 0.84411 0.81855 0.80172 0.0
C1358 C 0.81985 0.81059 0.79613 0.0
C1359 C 0.7984 0.82147 0.80472 0.0
C1360 C 0.80117 0.84026 0.81897 0.0
C1361 C 0.80099 0.98092 0.85107 0.0
C1362 C 0.77448 0.98009 0.84864 0.0
C1363 C 0.81533 0.95854 0.85093 0.0
C1364 C 0.80337 0.9348 0.84892 0.0
C1365 C 0.77706 0.93411 0.8453 0.0
C1366 C 0.76275 0.95656 0.84509 0.0
C1367 C 0.81788 0.9107 0.8518 0.0
C1368 C 0.81582 0.89135 0.83778 0.0
C1369 C 0.83326 0.9065 0.86851 0.0
C1370 C 0.83483 0.92518 0.88466 0.0
C1371 C 0.81272 0.93331 0.89431 0.0
C1372 C 0.81431 0.95117 0.90934 0.0
C1373 C 0.83792 0.96084 0.91499 0.0
C1374 C 0.86002 0.9526 0.90566 0.0
C1375 C 0.85853 0.93479 0.89058 0.0
H1376 H 0.83911 0.97467 0.92664 0.0
H1377 H 0.81766 0.79603 0.78511 0.0
H1378 H 0.19899 0.91861 0.85997 0.0
H1379 H 0.15676 0.89858 0.86096 0.0
H1380 H 0.19178 0.82465 0.85702 0.0
H1381 H 0.23355 0.84445 0.85597 0.0
H1382 H 0.15422 0.8281 0.83159 0.0
H1383 H 0.16553 0.8476 0.89984 0.0
H1384 H 0.1733 0.87568 0.928 0.0
H1385 H 0.10702 0.91936 0.91345 0.0
H1386 H 0.09905 0.89171 0.88503 0.0
H1387 H 0.05496 0.74385 0.85808 0.0
H1388 H 0.09384 0.76899 0.85548 0.0
H1389 H 0.05004 0.83798 0.86012 0.0
H1390 H 0.01106 0.8129 0.86281 0.0
H1391 H 0.09003 0.84043 0.88352 0.0
H1392 H 0.07712 0.8192 0.81649 0.0
H1393 H 0.06932 0.79109 0.78836 0.0
H1394 H 0.13859 0.75088 0.80037 0.0
H1395 H 0.14664 0.77854 0.82875 0.0
C1396 C 0.19759 0.8981 0.85959 0.0
C1397 C 0.21959 0.88315 0.85766 0.0
C1398 C 0.17348 0.88664 0.86012 0.0
C1399 C 0.17103 0.86003 0.85898 0.0
C1400 C 0.19308 0.84518 0.85768 0.0
C1401 C 0.217 0.85656 0.85706 0.0
C1402 C 0.14568 0.84736 0.8585 0.0
C1403 C 0.14029 0.83063 0.84306 0.0
C1404 C 0.12711 0.85118 0.8731 0.0
C1405 C 0.13186 0.86777 0.89019 0.0
C1406 C 0.15274 0.86332 0.90255 0.0
C1407 C 0.15716 0.87913 0.91858 0.0
C1408 C 0.14071 0.89934 0.92248 0.0
C1409 C 0.11977 0.90373 0.91039 0.0
C1410 C 0.11528 0.88798 0.89433 0.0
C1411 C 0.05351 0.76437 0.85814 0.0
C1412 C 0.02984 0.77633 0.86062 0.0
C1413 C 0.07581 0.77877 0.85671 0.0
C1414 C 0.07494 0.80546 0.85748 0.0
C1415 C 0.05127 0.81745 0.85957 0.0
C1416 C 0.02899 0.80307 0.86108 0.0
C1417 C 0.09879 0.82078 0.8568 0.0
C1418 C 0.10387 0.83803 0.87197 0.0
C1419 C 0.11711 0.81746 0.84194 0.0
C1420 C 0.11237 0.80083 0.82485 0.0
C1421 C 0.0906 0.80425 0.81322 0.0
C1422 C 0.08615 0.78841 0.79722 0.0
C1423 C 0.10342 0.76918 0.79261 0.0
C1424 C 0.12521 0.76578 0.80397 0.0
C1425 C 0.12974 0.78155 0.82 0.0
H1426 H 0.09994 0.75694 0.78021 0.0
H1427 H 0.14416 0.91156 0.93489 0.0
H1428 H 0.20935 0.02708 0.82867 0.0
H1429 H 0.18103 0.0643 0.82946 0.0
H1430 H 0.21975 0.09169 0.8808 0.0
H1431 H 0.2477 0.05483 0.8801 0.0
H1432 H 0.17032 0.09323 0.88643 0.0
H1433 H 0.22748 0.11902 0.83522 0.0
H1434 H 0.24946 0.11505 0.80367 0.0
H1435 H 0.17763 0.1136 0.7739 0.0
H1436 H 0.1552 0.11723 0.80534 0.0
H1437 H 0.14694 0.22482 0.89301 0.0
H1438 H 0.16434 0.18216 0.88822 0.0
H1439 H 0.10651 0.16672 0.84521 0.0
H1440 H 0.08874 0.20965 0.85033 0.0
H1441 H 0.15817 0.15549 0.833 0.0
H1442 H 0.10176 0.13582 0.88512 0.0
H1443 H 0.08133 0.14172 0.91709 0.0
H1444 H 0.1535 0.13306 0.94561 0.0
H1445 H 0.17444 0.12749 0.91378 0.0
C1446 C 0.21199 0.04128 0.83992 0.0
C1447 C 0.2306 0.03785 0.85444 0.0
C1448 C 0.19577 0.06252 0.84041 0.0
C1449 C 0.19808 0.08082 0.85529 0.0
C1450 C 0.21727 0.07776 0.86932 0.0
C1451 C 0.2333 0.05665 0.86889 0.0
C1452 C 0.18029 0.10286 0.85691 0.0
C1453 C 0.1678 0.10686 0.87474 0.0
C1454 C 0.17623 0.12034 0.84151 0.0
C1455 C 0.18967 0.11804 0.82264 0.0
C1456 C 0.21637 0.1176 0.82196 0.0
C1457 C 0.22891 0.11547 0.8041 0.0
C1458 C 0.21495 0.11397 0.7868 0.0
C1459 C 0.18841 0.11469 0.78732 0.0
C1460 C 0.17578 0.11679 0.80515 0.0
C1461 C 0.13767 0.21211 0.88282 0.0
C1462 C 0.11643 0.22038 0.87214 0.0
C1463 C 0.14762 0.18778 0.88005 0.0
C1464 C 0.13676 0.17121 0.86634 0.0
C1465 C 0.11518 0.17919 0.85587 0.0
C1466 C 0.1049 0.20353 0.85892 0.0
C1467 C 0.14891 0.14609 0.86267 0.0
C1468 C 0.16034 0.14154 0.84452 0.0
C1469 C 0.15221 0.12817 0.87782 0.0
C1470 C 0.1397 0.1314 0.89703 0.0
C1471 C 0.11331 0.13537 0.89819 0.0
C1472 C 0.10163 0.13862 0.9163 0.0
C1473 C 0.11611 0.1378 0.93337 0.0
C1474 C 0.14231 0.13369 0.93237 0.0
C1475 C 0.15409 0.13045 0.9143 0.0
H1476 H 0.10704 0.14032 0.94738 0.0
H1477 H 0.22469 0.11234 0.77298 0.0
H1478 H 0.80016 0.09498 0.85384 0.0
H1479 H 0.84263 0.11264 0.84769 0.0
H1480 H 0.81798 0.18512 0.87003 0.0
H1481 H 0.776 0.16769 0.87635 0.0
H1482 H 0.84207 0.1907 0.83574 0.0
H1483 H 0.85661 0.14526 0.89635 0.0
H1484 H 0.85757 0.10711 0.91719 0.0
H1485 H 0.90968 0.07121 0.87777 0.0
H1486 H 0.90877 0.10906 0.85656 0.0
H1487 H 0.94646 0.26331 0.86453 0.0
H1488 H 0.90859 0.23697 0.86124 0.0
H1489 H 0.95386 0.17665 0.83668 0.0
H1490 H 0.99222 0.20328 0.84011 0.0
H1491 H 0.92195 0.15929 0.86568 0.0
H1492 H 0.91252 0.20759 0.80782 0.0
H1493 H 0.91188 0.24597 0.78725 0.0
H1494 H 0.85026 0.27629 0.82093 0.0
H1495 H 0.85076 0.23826 0.8419 0.0
C1496 C 0.80392 0.11456 0.85767 0.0
C1497 C 0.7845 0.12995 0.86542 0.0
C1498 C 0.82819 0.12468 0.85409 0.0
C1499 C 0.83353 0.15031 0.85829 0.0
C1500 C 0.81432 0.16541 0.86642 0.0
C1501 C 0.79022 0.15538 0.86999 0.0
C1502 C 0.85878 0.16195 0.85403 0.0
C1503 C 0.85951 0.18386 0.84235 0.0
C1504 C 0.88178 0.15253 0.86199 0.0
C1505 C 0.88237 0.12984 0.87475 0.0
C1506 C 0.8681 0.12914 0.89204 0.0
C1507 C 0.86867 0.10759 0.90394 0.0
C1508 C 0.8836 0.08671 0.89877 0.0
C1509 C 0.89807 0.08737 0.88173 0.0
C1510 C 0.89755 0.10887 0.86977 0.0
C1511 C 0.9483 0.24458 0.85812 0.0
C1512 C 0.97225 0.23537 0.85251 0.0
C1513 C 0.92662 0.22953 0.8562 0.0
C1514 C 0.92825 0.20482 0.84858 0.0
C1515 C 0.95211 0.19567 0.84254 0.0
C1516 C 0.97394 0.21093 0.84434 0.0
C1517 C 0.90501 0.18858 0.848 0.0
C1518 C 0.90462 0.16584 0.85873 0.0
C1519 C 0.88226 0.19718 0.83914 0.0
C1520 C 0.88177 0.22009 0.8265 0.0
C1521 C 0.89894 0.22251 0.81093 0.0
C1522 C 0.89858 0.2442 0.79918 0.0
C1523 C 0.88106 0.26357 0.80279 0.0
C1524 C 0.86382 0.26126 0.81814 0.0
C1525 C 0.8641 0.23962 0.82995 0.0
H1526 H 0.88082 0.28035 0.79368 0.0
H1527 H 0.88402 0.07004 0.908 0.0
H1528 H 0.42987 0.7051 0.6546 0.0
H1529 H 0.41291 0.66229 0.66129 0.0
H1530 H 0.34016 0.6852 0.6382 0.0
H1531 H 0.35692 0.72738 0.63147 0.0
H1532 H 0.33552 0.6639 0.674 0.0
H1533 H 0.3794 0.64534 0.61331 0.0
H1534 H 0.41718 0.64254 0.59221 0.0
H1535 H 0.45279 0.59196 0.63305 0.0
H1536 H 0.41532 0.59473 0.65452 0.0
H1537 H 0.25968 0.5607 0.64893 0.0
H1538 H 0.28722 0.59783 0.65107 0.0
H1539 H 0.3468 0.55158 0.67576 0.0
H1540 H 0.31896 0.51393 0.67343 0.0
H1541 H 0.36457 0.582 0.6461 0.0
H1542 H 0.31767 0.59513 0.70414 0.0
H1543 H 0.27975 0.5976 0.72508 0.0
H1544 H 0.25021 0.65843 0.69006 0.0
H1545 H 0.28777 0.6561 0.66873 0.0
C1546 C 0.41044 0.70074 0.65064 0.0
C1547 C 0.39464 0.71972 0.64274 0.0
C1548 C 0.40072 0.67634 0.65453 0.0
C1549 C 0.37512 0.67057 0.65046 0.0
C1550 C 0.35982 0.68922 0.64176 0.0
C1551 C 0.36945 0.71338 0.63791 0.0
C1552 C 0.36343 0.64572 0.65584 0.0
C1553 C 0.34186 0.646 0.66785 0.0
C1554 C 0.37226 0.62217 0.64853 0.0
C1555 C 0.39472 0.62051 0.63563 0.0
C1556 C 0.39539 0.63381 0.61787 0.0
C1557 C 0.41672 0.63219 0.60583 0.0
C1558 C 0.43741 0.61715 0.61132 0.0
C1559 C 0.43678 0.60365 0.62884 0.0
C1560 C 0.4155 0.60523 0.64094 0.0
C1561 C 0.27849 0.55852 0.65517 0.0
C1562 C 0.28714 0.53449 0.66113 0.0
C1563 C 0.29424 0.57977 0.65641 0.0
C1564 C 0.31909 0.57764 0.66371 0.0
C1565 C 0.32769 0.55373 0.67013 0.0
C1566 C 0.31174 0.53231 0.66899 0.0
C1567 C 0.336 0.60041 0.66358 0.0
C1568 C 0.35854 0.59978 0.65262 0.0
C1569 C 0.32814 0.62373 0.67191 0.0
C1570 C 0.30553 0.62535 0.68478 0.0
C1571 C 0.30302 0.60894 0.70083 0.0
C1572 C 0.28159 0.61032 0.71278 0.0
C1573 C 0.26257 0.62814 0.70889 0.0
C1574 C 0.26497 0.64465 0.69306 0.0
C1575 C 0.28635 0.64333 0.68105 0.0
H1576 H 0.24599 0.62918 0.71816 0.0
H1577 H 0.4539 0.61592 0.60197 0.0
H1578 H 0.28552 0.34842 0.63455 0.0
H1579 H 0.32813 0.33084 0.63715 0.0
H1580 H 0.35828 0.40568 0.64791 0.0
H1581 H 0.31505 0.42356 0.64585 0.0
H1582 H 0.38772 0.37226 0.62071 0.0
H1583 H 0.35287 0.37247 0.68531 0.0
H1584 H 0.31963 0.36463 0.70984 0.0
H1585 H 0.32163 0.28483 0.69694 0.0
H1586 H 0.35461 0.29224 0.67209 0.0
H1587 H 0.50555 0.31565 0.64638 0.0
H1588 H 0.46764 0.34252 0.64799 0.0
H1589 H 0.42062 0.27559 0.65218 0.0
H1590 H 0.45857 0.24876 0.65119 0.0
H1591 H 0.40156 0.31042 0.67429 0.0
H1592 H 0.43138 0.30918 0.608 0.0
H1593 H 0.46265 0.3151 0.58167 0.0
H1594 H 0.4684 0.39439 0.59575 0.0
H1595 H 0.43739 0.38885 0.62235 0.0
C1596 C 0.30111 0.36125 0.63753 0.0
C1597 C 0.29673 0.38737 0.6404 0.0
C1598 C 0.32552 0.35114 0.63891 0.0
C1599 C 0.34632 0.36685 0.64305 0.0
C1600 C 0.34242 0.39319 0.6448 0.0
C1601 C 0.31776 0.4034 0.64355 0.0
C1602 C 0.37168 0.35513 0.64632 0.0
C1603 C 0.39103 0.35917 0.63266 0.0
C1604 C 0.37569 0.33753 0.66162 0.0
C1605 C 0.3561 0.33294 0.67674 0.0
C1606 C 0.3461 0.35327 0.6876 0.0
C1607 C 0.32732 0.3489 0.70158 0.0
C1608 C 0.31849 0.32425 0.70492 0.0
C1609 C 0.32848 0.30391 0.69433 0.0
C1610 C 0.34724 0.30818 0.68031 0.0
C1611 C 0.48712 0.30672 0.64791 0.0
C1612 C 0.48503 0.28008 0.6486 0.0
C1613 C 0.46543 0.32209 0.6487 0.0
C1614 C 0.4411 0.31115 0.64973 0.0
C1615 C 0.4391 0.28457 0.65132 0.0
C1616 C 0.46083 0.26921 0.65082 0.0
C1617 C 0.41769 0.32715 0.64847 0.0
C1618 C 0.39858 0.32383 0.6625 0.0
C1619 C 0.4138 0.34515 0.63334 0.0
C1620 C 0.4323 0.34854 0.6173 0.0
C1621 C 0.43945 0.32784 0.60556 0.0
C1622 C 0.4571 0.33113 0.59058 0.0
C1623 C 0.46756 0.35509 0.58708 0.0
C1624 C 0.46032 0.37583 0.59851 0.0
C1625 C 0.4427 0.37263 0.61353 0.0
H1626 H 0.48123 0.3576 0.57548 0.0
H1627 H 0.30395 0.32091 0.71575 0.0
H1628 H 0.61085 0.29268 0.65776 0.0
H1629 H 0.63141 0.33239 0.6682 0.0
H1630 H 0.68443 0.32598 0.62059 0.0
H1631 H 0.66413 0.28663 0.61026 0.0
H1632 H 0.70896 0.33572 0.65351 0.0
H1633 H 0.63432 0.36881 0.62054 0.0
H1634 H 0.58823 0.37375 0.6152 0.0
H1635 H 0.5796 0.40256 0.67336 0.0
H1636 H 0.62564 0.39747 0.67912 0.0
H1637 H 0.7597 0.45445 0.6313 0.0
H1638 H 0.7358 0.41479 0.63277 0.0
H1639 H 0.70188 0.43845 0.68698 0.0
H1640 H 0.72615 0.47858 0.68556 0.0
H1641 H 0.6663 0.41946 0.6589 0.0
H1642 H 0.743 0.39256 0.68935 0.0
H1643 H 0.78936 0.38844 0.69348 0.0
H1644 H 0.7943 0.34822 0.63918 0.0
H1645 H 0.74801 0.35242 0.63457 0.0
C1646 C 0.62666 0.29999 0.64941 0.0
C1647 C 0.636 0.2864 0.63327 0.0
C1648 C 0.63845 0.32263 0.65541 0.0
C1649 C 0.65959 0.33216 0.64523 0.0
C1650 C 0.66838 0.31891 0.62884 0.0
C1651 C 0.65676 0.29637 0.62294 0.0
C1652 C 0.67323 0.35555 0.65162 0.0
C1653 C 0.69959 0.35403 0.65464 0.0
C1654 C 0.66096 0.37933 0.65383 0.0
C1655 C 0.63334 0.38245 0.65034 0.0
C1656 C 0.62256 0.376 0.63224 0.0
C1657 C 0.59646 0.37886 0.62913 0.0
C1658 C 0.58098 0.38837 0.64396 0.0
C1659 C 0.5916 0.39513 0.66191 0.0
C1660 C 0.61769 0.39227 0.6651 0.0
C1661 C 0.74734 0.4511 0.64365 0.0
C1662 C 0.74475 0.46952 0.65832 0.0
C1663 C 0.73373 0.42842 0.64449 0.0
C1664 C 0.71712 0.42358 0.66002 0.0
C1665 C 0.71464 0.44181 0.67489 0.0
C1666 C 0.72859 0.46456 0.67415 0.0
C1667 C 0.70208 0.39966 0.66001 0.0
C1668 C 0.67553 0.40105 0.65821 0.0
C1669 C 0.71415 0.3757 0.65882 0.0
C1670 C 0.74201 0.37292 0.66158 0.0
C1671 C 0.75399 0.38298 0.67823 0.0
C1672 C 0.78025 0.38061 0.68066 0.0
C1673 C 0.79477 0.3681 0.66659 0.0
C1674 C 0.78303 0.35789 0.65007 0.0
C1675 C 0.75677 0.36023 0.64756 0.0
H1676 H 0.8151 0.36629 0.6685 0.0
H1677 H 0.56078 0.39058 0.64152 0.0
H1678 H 0.51859 0.6987 0.66679 0.0
H1679 H 0.55632 0.67095 0.66695 0.0
H1680 H 0.60332 0.73508 0.65176 0.0
H1681 H 0.56586 0.76249 0.65143 0.0
H1682 H 0.61008 0.69626 0.62682 0.0
H1683 H 0.60628 0.70725 0.6968 0.0
H1684 H 0.58601 0.70489 0.72912 0.0
H1685 H 0.57691 0.62425 0.72263 0.0
H1686 H 0.59685 0.62619 0.69014 0.0
H1687 H 0.73684 0.66309 0.64022 0.0
H1688 H 0.69411 0.68038 0.64273 0.0
H1689 H 0.66475 0.60556 0.65488 0.0
H1690 H 0.70811 0.58806 0.65273 0.0
H1691 H 0.64496 0.64254 0.67987 0.0
H1692 H 0.65328 0.6309 0.6115 0.0
H1693 H 0.67449 0.6332 0.57955 0.0
H1694 H 0.67476 0.71466 0.58274 0.0
H1695 H 0.65392 0.71287 0.61487 0.0
C1696 C 0.53714 0.70689 0.66414 0.0
C1697 C 0.53944 0.73272 0.65927 0.0
C1698 C 0.55865 0.69105 0.6641 0.0
C1699 C 0.58269 0.70088 0.65922 0.0
C1700 C 0.58501 0.72698 0.65542 0.0
C1701 C 0.56366 0.74269 0.65542 0.0
C1702 C 0.60524 0.68408 0.65655 0.0
C1703 C 0.61776 0.68465 0.63849 0.0
C1704 C 0.61475 0.66807 0.67145 0.0
C1705 C 0.60276 0.66691 0.69095 0.0
C1706 C 0.59974 0.68905 0.70219 0.0
C1707 C 0.58836 0.68778 0.72055 0.0
C1708 C 0.5801 0.66445 0.72789 0.0
C1709 C 0.58327 0.64232 0.71691 0.0
C1710 C 0.59462 0.64349 0.69852 0.0
C1711 C 0.72136 0.65025 0.64346 0.0
C1712 C 0.72592 0.62419 0.64637 0.0
C1713 C 0.69685 0.66015 0.64476 0.0
C1714 C 0.67612 0.64429 0.64887 0.0
C1715 C 0.68045 0.61816 0.65166 0.0
C1716 C 0.70515 0.60815 0.65026 0.0
C1717 C 0.65021 0.65552 0.65039 0.0
C1718 C 0.63702 0.65384 0.66813 0.0
C1719 C 0.63996 0.67051 0.63517 0.0
C1720 C 0.65214 0.67173 0.61567 0.0
C1721 C 0.65799 0.64931 0.60545 0.0
C1722 C 0.66994 0.65052 0.5873 0.0
C1723 C 0.67601 0.67406 0.57914 0.0
C1724 C 0.67006 0.69644 0.58909 0.0
C1725 C 0.65813 0.69534 0.60726 0.0
H1726 H 0.68529 0.67495 0.56509 0.0
H1727 H 0.5713 0.66351 0.74211 0.0
H1728 H 0.15777 0.48657 0.30566 0.0
H1729 H 0.1381 0.46741 0.27677 0.0
H1730 H 0.13111 0.39616 0.30743 0.0
H1731 H 0.15163 0.41482 0.33583 0.0
H1732 H 0.14711 0.38616 0.27406 0.0
H1733 H 0.07881 0.43738 0.29721 0.0
H1734 H 0.05622 0.47594 0.30795 0.0
H1735 H 0.07 0.51091 0.25245 0.0
H1736 H 0.09291 0.47263 0.24144 0.0
H1737 H 0.03745 0.36357 0.19819 0.0
H1738 H 0.05292 0.38417 0.22802 0.0
H1739 H 0.12996 0.37773 0.20713 0.0
H1740 H 0.11471 0.35621 0.17791 0.0
H1741 H 0.07653 0.42536 0.23671 0.0
H1742 H 0.17141 0.36927 0.24288 0.0
H1743 H 0.18825 0.32695 0.23438 0.0
H1744 H 0.11296 0.2957 0.23667 0.0
H1745 H 0.09572 0.33773 0.24544 0.0
C1746 C 0.15196 0.46685 0.3062 0.0
C1747 C 0.15642 0.45218 0.32298 0.0
C1748 C 0.14055 0.45593 0.28972 0.0
C1749 C 0.13286 0.43032 0.28989 0.0
C1750 C 0.13697 0.41587 0.3068 0.0
C1751 C 0.14872 0.42661 0.32308 0.0
C1752 C 0.12151 0.41808 0.2723 0.0
C1753 C 0.13165 0.3948 0.26596 0.0
C1754 C 0.10097 0.42893 0.26182 0.0
C1755 C 0.08778 0.45222 0.26857 0.0
C1756 C 0.07725 0.45339 0.28736 0.0
C1757 C 0.06432 0.47517 0.29348 0.0
C1758 C 0.0617 0.49588 0.2809 0.0
C1759 C 0.07206 0.49486 0.26218 0.0
C1760 C 0.08499 0.47312 0.25599 0.0
C1761 C 0.05768 0.3665 0.20005 0.0
C1762 C 0.07491 0.35788 0.1859 0.0
C1763 C 0.06651 0.37836 0.21705 0.0
C1764 C 0.09269 0.38209 0.22007 0.0
C1765 C 0.10976 0.37441 0.2055 0.0
C1766 C 0.10101 0.36212 0.18876 0.0
C1767 C 0.1023 0.39365 0.23849 0.0
C1768 C 0.09194 0.41678 0.2449 0.0
C1769 C 0.12199 0.38221 0.24951 0.0
C1770 C 0.13227 0.35672 0.24464 0.0
C1771 C 0.15847 0.35334 0.24167 0.0
C1772 C 0.16808 0.32941 0.23678 0.0
C1773 C 0.15167 0.30867 0.23492 0.0
C1774 C 0.12564 0.31179 0.23804 0.0
C1775 C 0.11594 0.33567 0.24296 0.0
H1776 H 0.15914 0.29017 0.2311 0.0
H1777 H 0.05158 0.51268 0.2856 0.0
H1778 H 0.64321 0.10663 0.18234 0.0
H1779 H 0.63244 0.11731 0.21579 0.0
H1780 H 0.69737 0.07527 0.23652 0.0
H1781 H 0.70849 0.06433 0.2027 0.0
H1782 H 0.65099 0.06977 0.26022 0.0
H1783 H 0.70559 0.13402 0.23598 0.0
H1784 H 0.7222 0.16433 0.21178 0.0
H1785 H 0.65157 0.20513 0.21273 0.0
H1786 H 0.63434 0.17478 0.23666 0.0
H1787 H 0.61798 0.15198 0.3467 0.0
H1788 H 0.64594 0.13106 0.32262 0.0
H1789 H 0.59013 0.14454 0.27776 0.0
H1790 H 0.5623 0.16455 0.30129 0.0
H1791 H 0.64548 0.16268 0.27191 0.0
H1792 H 0.58963 0.09103 0.29054 0.0
H1793 H 0.57357 0.06081 0.31506 0.0
H1794 H 0.64959 0.03482 0.32604 0.0
H1795 H 0.66614 0.06525 0.30179 0.0
C1796 C 0.65517 0.09937 0.19394 0.0
C1797 C 0.67691 0.08486 0.18978 0.0
C1798 C 0.64894 0.1055 0.2131 0.0
C1799 C 0.66429 0.09739 0.22862 0.0
C1800 C 0.68532 0.08178 0.22473 0.0
C1801 C 0.69164 0.0756 0.20541 0.0
C1802 C 0.6588 0.10697 0.24855 0.0
C1803 C 0.65042 0.09004 0.263 0.0
C1804 C 0.65828 0.13342 0.25228 0.0
C1805 C 0.66864 0.15204 0.23809 0.0
C1806 C 0.69353 0.14937 0.23094 0.0
C1807 C 0.70307 0.16656 0.21727 0.0
C1808 C 0.68795 0.18664 0.21071 0.0
C1809 C 0.66327 0.18958 0.21783 0.0
C1810 C 0.65362 0.1724 0.23148 0.0
C1811 C 0.61167 0.15018 0.33174 0.0
C1812 C 0.58792 0.15995 0.32594 0.0
C1813 C 0.62761 0.13828 0.31804 0.0
C1814 C 0.62004 0.13638 0.29844 0.0
C1815 C 0.59631 0.14586 0.29281 0.0
C1816 C 0.58038 0.15726 0.30637 0.0
C1817 C 0.63665 0.12559 0.28314 0.0
C1818 C 0.64701 0.14238 0.26945 0.0
C1819 C 0.63919 0.09911 0.28027 0.0
C1820 C 0.62915 0.08063 0.29457 0.0
C1821 C 0.60294 0.07906 0.29833 0.0
C1822 C 0.59374 0.06185 0.31214 0.0
C1823 C 0.61056 0.04595 0.32214 0.0
C1824 C 0.6366 0.04718 0.31831 0.0
C1825 C 0.64589 0.0644 0.30454 0.0
H1826 H 0.6034 0.03263 0.33281 0.0
H1827 H 0.69536 0.19993 0.20012 0.0
H1828 H 0.80229 0.57213 0.30784 0.0
H1829 H 0.81579 0.58058 0.27427 0.0
H1830 H 0.86526 0.64021 0.29493 0.0
H1831 H 0.85129 0.63246 0.3282 0.0
H1832 H 0.84371 0.65579 0.2635 0.0
H1833 H 0.88659 0.57842 0.28249 0.0
H1834 H 0.88911 0.53412 0.29405 0.0
H1835 H 0.84462 0.50945 0.24505 0.0
H1836 H 0.84158 0.55369 0.23333 0.0
H1837 H 0.95043 0.63038 0.19326 0.0
H1838 H 0.92232 0.61391 0.21835 0.0
H1839 H 0.85913 0.65348 0.1921 0.0
H1840 H 0.88764 0.67056 0.16695 0.0
H1841 H 0.88077 0.58685 0.22327 0.0
H1842 H 0.82443 0.67975 0.22913 0.0
H1843 H 0.82815 0.72468 0.21915 0.0
H1844 H 0.9095 0.71936 0.22197 0.0
H1845 H 0.90621 0.67458 0.23222 0.0
C1846 C 0.81601 0.58707 0.30519 0.0
C1847 C 0.82575 0.60157 0.32073 0.0
C1848 C 0.82376 0.59186 0.28598 0.0
C1849 C 0.84174 0.61094 0.28198 0.0
C1850 C 0.85127 0.6255 0.29752 0.0
C1851 C 0.84333 0.62094 0.31662 0.0
C1852 C 0.85132 0.61558 0.26182 0.0
C1853 C 0.85152 0.64061 0.25464 0.0
C1854 C 0.86174 0.59594 0.25018 0.0
C1855 C 0.86359 0.56937 0.25718 0.0
C1856 C 0.87719 0.56356 0.27426 0.0
C1857 C 0.87874 0.53847 0.28083 0.0
C1858 C 0.86696 0.51899 0.27032 0.0
C1859 C 0.85368 0.52456 0.25319 0.0
C1860 C 0.85205 0.54964 0.24658 0.0
C1861 C 0.93042 0.63512 0.19253 0.0
C1862 C 0.92128 0.65202 0.1783 0.0
C1863 C 0.9143 0.62556 0.20686 0.0
C1864 C 0.88866 0.63279 0.20739 0.0
C1865 C 0.87893 0.64791 0.19216 0.0
C1866 C 0.89517 0.65751 0.1777 0.0
C1867 C 0.8735 0.62704 0.22517 0.0
C1868 C 0.87228 0.60186 0.23191 0.0
C1869 C 0.86289 0.64664 0.23673 0.0
C1870 C 0.86504 0.67377 0.2312 0.0
C1871 C 0.84308 0.68824 0.2277 0.0
C1872 C 0.84512 0.71367 0.22199 0.0
C1873 C 0.86905 0.72484 0.21985 0.0
C1874 C 0.89098 0.71068 0.22356 0.0
C1875 C 0.88903 0.68528 0.22933 0.0
H1876 H 0.87059 0.7445 0.21537 0.0
H1877 H 0.86819 0.49958 0.27542 0.0
H1878 H 0.40049 0.84385 0.32449 0.0
H1879 H 0.3831 0.86275 0.295 0.0
H1880 H 0.45886 0.8747 0.27298 0.0
H1881 H 0.47661 0.85612 0.30286 0.0
H1882 H 0.42889 0.91535 0.26556 0.0
H1883 H 0.42312 0.82601 0.25575 0.0
H1884 H 0.41266 0.78167 0.26409 0.0
H1885 H 0.33353 0.801 0.26742 0.0
H1886 H 0.34356 0.84556 0.25939 0.0
H1887 H 0.37929 0.93754 0.16877 0.0
H1888 H 0.40306 0.92154 0.19692 0.0
H1889 H 0.33271 0.9081 0.22735 0.0
H1890 H 0.30885 0.92391 0.19933 0.0
H1891 H 0.36394 0.86697 0.22844 0.0
H1892 H 0.37107 0.95736 0.23925 0.0
H1893 H 0.38253 1.00129 0.23047 0.0
H1894 H 0.46062 0.97922 0.22422 0.0
H1895 H 0.44954 0.93501 0.23257 0.0
C1896 C 0.41356 0.85046 0.31342 0.0
C1897 C 0.43999 0.84822 0.31599 0.0
C1898 C 0.40354 0.86123 0.29651 0.0
C1899 C 0.41964 0.86974 0.2816 0.0
C1900 C 0.44607 0.86814 0.28426 0.0
C1901 C 0.45617 0.85745 0.30131 0.0
C1902 C 0.40859 0.87994 0.26323 0.0
C1903 C 0.41501 0.90462 0.25723 0.0
C1904 C 0.3903 0.86604 0.25245 0.0
C1905 C 0.38413 0.83918 0.2571 0.0
C1906 C 0.40351 0.82085 0.25838 0.0
C1907 C 0.39765 0.79567 0.26304 0.0
C1908 C 0.37245 0.78854 0.26632 0.0
C1909 C 0.35305 0.80656 0.26489 0.0
C1910 C 0.3588 0.83178 0.26026 0.0
C1911 C 0.36888 0.93138 0.18152 0.0
C1912 C 0.34213 0.93195 0.18177 0.0
C1913 C 0.38252 0.9223 0.19762 0.0
C1914 C 0.36966 0.91365 0.21426 0.0
C1915 C 0.34302 0.91462 0.21464 0.0
C1916 C 0.3294 0.92376 0.19862 0.0
C1917 C 0.38373 0.90262 0.23103 0.0
C1918 C 0.37794 0.87766 0.23667 0.0
C1919 C 0.40274 0.9162 0.24131 0.0
C1920 C 0.40942 0.94279 0.23631 0.0
C1921 C 0.39064 0.9618 0.23581 0.0
C1922 C 0.39708 0.98677 0.23093 0.0
C1923 C 0.42227 0.99302 0.22671 0.0
C1924 C 0.4411 0.97434 0.22744 0.0
C1925 C 0.43475 0.94932 0.23223 0.0
H1926 H 0.42722 0.01236 0.22293 0.0
H1927 H 0.36796 0.76904 0.26993 0.0
H1928 H 0.90371 0.65538 0.84211 0.0
H1929 H 0.89038 0.63061 0.81374 0.0
H1930 H 0.92501 0.68604 0.77576 0.0
H1931 H 0.93685 0.71161 0.8041 0.0
H1932 H 0.88408 0.67431 0.76049 0.0
H1933 H 0.95108 0.62376 0.78627 0.0
H1934 H 0.97499 0.60019 0.81137 0.0
H1935 H 0.91211 0.54917 0.81879 0.0
H1936 H 0.88765 0.57267 0.79394 0.0
H1937 H 0.88884 0.55441 0.6923 0.0
H1938 H 0.90485 0.57758 0.72069 0.0
H1939 H 0.83281 0.61622 0.72585 0.0
H1940 H 0.81737 0.59423 0.69678 0.0
H1941 H 0.89548 0.58093 0.75647 0.0
H1942 H 0.83842 0.67424 0.74404 0.0
H1943 H 0.82072 0.69894 0.71664 0.0
H1944 H 0.87595 0.66641 0.67802 0.0
H1945 H 0.8942 0.6418 0.70523 0.0
C1946 C 0.90857 0.66217 0.82769 0.0
C1947 C 0.92135 0.68539 0.82529 0.0
C1948 C 0.90108 0.64791 0.81145 0.0
C1949 C 0.907 0.65612 0.79247 0.0
C1950 C 0.92008 0.67922 0.79016 0.0
C1951 C 0.92695 0.69381 0.80637 0.0
C1952 C 0.89887 0.64114 0.77504 0.0
C1953 C 0.8867 0.6539 0.75965 0.0
C1954 C 0.90268 0.61453 0.77356 0.0
C1955 C 0.91745 0.60012 0.78835 0.0
C1956 C 0.94229 0.6076 0.79333 0.0
C1957 C 0.95595 0.59425 0.80752 0.0
C1958 C 0.94506 0.57323 0.8167 0.0
C1959 C 0.92051 0.56548 0.81168 0.0
C1960 C 0.90675 0.57879 0.79753 0.0
C1961 C 0.87643 0.56785 0.69953 0.0
C1962 C 0.85194 0.57269 0.69223 0.0
C1963 C 0.88557 0.58105 0.71581 0.0
C1964 C 0.87028 0.5991 0.72531 0.0
C1965 C 0.84535 0.60304 0.7185 0.0
C1966 C 0.83644 0.59033 0.70194 0.0
C1967 C 0.88054 0.61411 0.74205 0.0
C1968 C 0.89302 0.60136 0.75731 0.0
C1969 C 0.87806 0.6409 0.74303 0.0
C1970 C 0.8675 0.656 0.72664 0.0
C1971 C 0.84686 0.67246 0.72972 0.0
C1972 C 0.83672 0.68642 0.71422 0.0
C1973 C 0.84715 0.68418 0.69559 0.0
C1974 C 0.86783 0.66806 0.69244 0.0
C1975 C 0.87807 0.65409 0.70789 0.0
H1976 H 0.83924 0.69497 0.6836 0.0
H1977 H 0.95566 0.56292 0.82767 0.0
H1978 H 0.40988 0.84585 0.67728 0.0
H1979 H 0.39146 0.87064 0.70382 0.0
H1980 H 0.46381 0.87131 0.73337 0.0
H1981 H 0.48261 0.84672 0.70664 0.0
H1982 H 0.42184 0.85991 0.75799 0.0
H1983 H 0.44847 0.92305 0.7131 0.0
H1984 H 0.45309 0.94301 0.68087 0.0
H1985 H 0.37209 0.95124 0.67655 0.0
H1986 H 0.36699 0.93103 0.70876 0.0
H1987 H 0.37077 0.98121 0.80871 0.0
H1988 H 0.39486 0.96225 0.78179 0.0
H1989 H 0.3462 0.89639 0.7833 0.0
H1990 H 0.32213 0.91505 0.80999 0.0
H1991 H 0.38269 0.94394 0.74445 0.0
H1992 H 0.38456 0.84356 0.77987 0.0
H1993 H 0.38271 0.82474 0.81275 0.0
H1994 H 0.41241 0.89364 0.83737 0.0
H1995 H 0.41493 0.91268 0.80463 0.0
C1996 C 0.4219 0.8511 0.68946 0.0
C1997 C 0.44775 0.84428 0.68983 0.0
C1998 C 0.41135 0.8654 0.70457 0.0
C1999 C 0.42631 0.87297 0.72049 0.0
C2000 C 0.45196 0.86569 0.72119 0.0
C2001 C 0.46266 0.85168 0.7059 0.0
C2002 C 0.41498 0.88858 0.73627 0.0
C2003 C 0.41334 0.8783 0.75507 0.0
C2004 C 0.40446 0.91285 0.73253 0.0
C2005 C 0.40734 0.92533 0.71327 0.0
C2006 C 0.43163 0.92895 0.70522 0.0
C2007 C 0.43433 0.94034 0.68695 0.0
C2008 C 0.41289 0.94832 0.6766 0.0
C2009 C 0.38869 0.94502 0.68457 0.0
C2010 C 0.38588 0.93364 0.70285 0.0
C2011 C 0.36494 0.96288 0.8031 0.0
C2012 C 0.34466 0.94956 0.81168 0.0
C2013 C 0.37873 0.95208 0.78771 0.0
C2014 C 0.37256 0.92774 0.78075 0.0
C2015 C 0.35155 0.91502 0.78864 0.0
C2016 C 0.33778 0.92576 0.80393 0.0
C2017 C 0.38871 0.91483 0.76602 0.0
C2018 C 0.39128 0.92561 0.74742 0.0
C2019 C 0.40051 0.89119 0.77004 0.0
C2020 C 0.39973 0.87962 0.78978 0.0
C2021 C 0.39087 0.85463 0.79228 0.0
C2022 C 0.38969 0.84393 0.8109 0.0
C2023 C 0.39739 0.858 0.82714 0.0
C2024 C 0.40639 0.88277 0.82479 0.0
C2025 C 0.4077 0.89353 0.8062 0.0
H2026 H 0.3964 0.8497 0.84155 0.0
H2027 H 0.41503 0.95711 0.66244 0.0
H2028 H 0.03668 0.34349 0.80059 0.0
H2029 H 0.05884 0.36337 0.77317 0.0
H2030 H 0.12817 0.36479 0.80685 0.0
H2031 H 0.10651 0.34395 0.83378 0.0
H2032 H 0.08016 0.40627 0.76747 0.0
H2033 H 0.17977 0.36058 0.7793 0.0
H2034 H 0.19806 0.32036 0.79132 0.0
H2035 H 0.12885 0.28126 0.77712 0.0
H2036 H 0.11028 0.32116 0.76478 0.0
H2037 H 0.1698 0.47541 0.71149 0.0
H2038 H 0.14748 0.45406 0.73816 0.0
H2039 H 0.15593 0.38221 0.70854 0.0
H2040 H 0.17897 0.40316 0.68239 0.0
H2041 H 0.16353 0.37441 0.74439 0.0
H2042 H 0.09876 0.41719 0.70865 0.0
H2043 H 0.07735 0.45347 0.69288 0.0
H2044 H 0.07117 0.49113 0.74818 0.0
H2045 H 0.09288 0.45522 0.76424 0.0
C2046 C 0.05671 0.34783 0.80204 0.0
C2047 C 0.06989 0.34185 0.81927 0.0
C2048 C 0.06934 0.35932 0.78639 0.0
C2049 C 0.09534 0.3653 0.78774 0.0
C2050 C 0.10833 0.35979 0.80514 0.0
C2051 C 0.09586 0.34791 0.82061 0.0
C2052 C 0.10889 0.37747 0.77111 0.0
C2053 C 0.09837 0.39925 0.76242 0.0
C2054 C 0.13243 0.3681 0.76412 0.0
C2055 C 0.14356 0.34393 0.77129 0.0
C2056 C 0.1685 0.34338 0.77866 0.0
C2057 C 0.17891 0.32064 0.78555 0.0
C2058 C 0.1646 0.29829 0.78504 0.0
C2059 C 0.13988 0.2986 0.77758 0.0
C2060 C 0.1294 0.32128 0.77065 0.0
C2061 C 0.16705 0.45504 0.71075 0.0
C2062 C 0.17618 0.44103 0.69479 0.0
C2063 C 0.15411 0.44285 0.72595 0.0
C2064 C 0.14961 0.41651 0.72528 0.0
C2065 C 0.15913 0.40251 0.70949 0.0
C2066 C 0.17232 0.41458 0.69448 0.0
C2067 C 0.13497 0.40339 0.74091 0.0
C2068 C 0.14532 0.38144 0.74943 0.0
C2069 C 0.11083 0.41203 0.74719 0.0
C2070 C 0.09767 0.43362 0.73761 0.0
C2071 C 0.093 0.43329 0.71742 0.0
C2072 C 0.08079 0.45378 0.70844 0.0
C2073 C 0.07296 0.47462 0.71952 0.0
C2074 C 0.07727 0.47499 0.73962 0.0
C2075 C 0.08952 0.45457 0.74867 0.0
H2076 H 0.06351 0.49046 0.71254 0.0
H2077 H 0.17268 0.28071 0.7904 0.0
H2078 H 0.58745 0.15134 0.67017 0.0
H2079 H 0.60186 0.1277 0.69885 0.0
H2080 H 0.62236 0.19801 0.72709 0.0
H2081 H 0.60819 0.22176 0.69847 0.0
H2082 H 0.65938 0.16231 0.73124 0.0
H2083 H 0.56842 0.16644 0.73939 0.0
H2084 H 0.52383 0.16011 0.72942 0.0
H2085 H 0.53657 0.07978 0.72467 0.0
H2086 H 0.5814 0.08568 0.73422 0.0
H2087 H 0.67691 0.11757 0.82782 0.0
H2088 H 0.66298 0.14007 0.79852 0.0
H2089 H 0.6345 0.06979 0.77455 0.0
H2090 H 0.64751 0.04742 0.80409 0.0
H2091 H 0.60181 0.10472 0.76749 0.0
H2092 H 0.69173 0.09904 0.75892 0.0
H2093 H 0.73687 0.10391 0.76786 0.0
H2094 H 0.72722 0.18473 0.77199 0.0
H2095 H 0.68191 0.18031 0.76332 0.0
C2096 C 0.59501 0.1618 0.68248 0.0
C2097 C 0.59658 0.1885 0.682 0.0
C2098 C 0.60317 0.14824 0.69891 0.0
C2099 C 0.61304 0.16108 0.71522 0.0
C2100 C 0.61483 0.18768 0.7147 0.0
C2101 C 0.6066 0.20125 0.69833 0.0
C2102 C 0.62157 0.14688 0.73284 0.0
C2103 C 0.64672 0.14994 0.73931 0.0
C2104 C 0.6053 0.13013 0.74305 0.0
C2105 C 0.57833 0.12655 0.73735 0.0
C2106 C 0.56177 0.14745 0.73605 0.0
C2107 C 0.53645 0.14394 0.73048 0.0
C2108 C 0.52739 0.11957 0.72635 0.0
C2109 C 0.54363 0.09865 0.72784 0.0
C2110 C 0.569 0.10207 0.73332 0.0
C2111 C 0.66776 0.10689 0.81629 0.0
C2112 C 0.66341 0.08066 0.81831 0.0
C2113 C 0.65989 0.11977 0.79946 0.0
C2114 C 0.64798 0.10663 0.78408 0.0
C2115 C 0.64361 0.08043 0.78614 0.0
C2116 C 0.65115 0.06762 0.80305 0.0
C2117 C 0.63969 0.12017 0.76602 0.0
C2118 C 0.61457 0.117 0.75943 0.0
C2119 C 0.6561 0.13656 0.75554 0.0
C2120 C 0.68337 0.13931 0.76066 0.0
C2121 C 0.69919 0.11783 0.76187 0.0
C2122 C 0.72482 0.12051 0.76687 0.0
C2123 C 0.73489 0.14461 0.77054 0.0
C2124 C 0.71938 0.16608 0.76917 0.0
C2125 C 0.69373 0.1635 0.76419 0.0
H2126 H 0.75473 0.14664 0.77441 0.0
H2127 H 0.50778 0.11688 0.72205 0.0
H2128 H 0.96164 0.60261 0.12781 0.0
H2129 H 0.9682 0.55677 0.12595 0.0
H2130 H 0.04424 0.56896 0.10462 0.0
H2131 H 0.03778 0.61495 0.10644 0.0
H2132 H 0.02117 0.5316 0.08457 0.0
H2133 H 0.03317 0.55198 0.15227 0.0
H2134 H 0.02131 0.57062 0.18394 0.0
H2135 H 0.95521 0.5229 0.18615 0.0
H2136 H 0.9665 0.5042 0.15435 0.0
H2137 H 0.06958 0.40682 0.10539 0.0
H2138 H 0.06188 0.45278 0.10418 0.0
H2139 H 0.98384 0.44047 0.12068 0.0
H2140 H 0.99142 0.39459 0.12181 0.0
H2141 H 0.00774 0.47769 0.14293 0.0
H2142 H 0.99566 0.45662 0.07604 0.0
H2143 H 1.00551 0.43924 0.04357 0.0
H2144 H 0.07039 0.48834 0.03941 0.0
H2145 H 0.06122 0.50573 0.07204 0.0
C2146 C 0.97985 0.59561 0.12289 0.0
C2147 C 0.99927 0.61256 0.11746 0.0
C2148 C 0.98357 0.56933 0.12178 0.0
C2149 C 1.00687 0.55933 0.11542 0.0
C2150 C 0.02611 0.57618 0.1096 0.0
C2151 C 0.02237 0.6025 0.11062 0.0
C2152 C 0.0112 0.53135 0.11499 0.0
C2153 C 0.01863 0.51986 0.09741 0.0
C2154 C 0.00722 0.51588 0.1316 0.0
C2155 C 1.00056 0.52686 0.15084 0.0
C2156 C 0.01602 0.54557 0.15945 0.0
C2157 C 0.00941 0.55613 0.17744 0.0
C2158 C 0.98748 0.548 0.18703 0.0
C2159 C 0.97217 0.52921 0.17869 0.0
C2160 C 0.97868 0.5186 0.1607 0.0
C2161 C 0.0508 0.41395 0.10873 0.0
C2162 C 0.03112 0.39708 0.1137 0.0
C2163 C 0.04636 0.44017 0.1079 0.0
C2164 C 0.02226 0.45006 0.1123 0.0
C2165 C 1.00257 0.43326 0.1172 0.0
C2166 C 1.00688 0.40703 0.11771 0.0
C2167 C 0.01781 0.47798 0.11254 0.0
C2168 C 0.01037 0.48944 0.1301 0.0
C2169 C 0.02176 0.49338 0.09592 0.0
C2170 C 0.02789 0.48231 0.07659 0.0
C2171 C 0.01223 0.46349 0.06832 0.0
C2172 C 0.0176 0.45373 0.04984 0.0
C2173 C 0.03848 0.46278 0.0394 0.0
C2174 C 0.05416 0.48143 0.04749 0.0
C2175 C 0.04889 0.49123 0.06598 0.0
H2176 H 0.0426 0.4552 0.02508 0.0
H2177 H 0.98238 0.55622 0.20094 0.0
H2178 H 0.4221 0.95614 0.11568 0.0
H2179 H 0.46809 0.96093 0.1167 0.0
H2180 H 0.46 0.04233 0.1134 0.0
H2181 H 0.41369 0.03772 0.11255 0.0
H2182 H 0.49741 0.02465 0.08911 0.0
H2183 H 0.47382 0.01391 0.15638 0.0
H2184 H 0.45247 0.99218 0.18364 0.0
H2185 H 0.49712 0.92526 0.17332 0.0
H2186 H 0.51846 0.94646 0.14578 0.0
H2187 H 0.62259 0.05759 0.11723 0.0
H2188 H 0.57668 0.05238 0.11484 0.0
H2189 H 0.58514 0.97128 0.12107 0.0
H2190 H 0.63124 0.97648 0.1241 0.0
H2191 H 0.54749 0.98851 0.14382 0.0
H2192 H 0.56949 0.99674 0.07647 0.0
H2193 H 0.59011 0.01613 0.04788 0.0
H2194 H 0.54905 0.08545 0.05764 0.0
H2195 H 0.52806 0.0664 0.08626 0.0
C2196 C 0.42996 0.97512 0.11541 0.0
C2197 C 0.41404 0.99658 0.11425 0.0
C2198 C 0.45635 0.97781 0.11592 0.0
C2199 C 0.46752 1.002 0.11539 0.0
C2200 C 0.4518 0.02347 0.11385 0.0
C2201 C 0.42532 0.0208 0.11333 0.0
C2202 C 0.49561 1.00478 0.1165 0.0
C2203 C 0.50833 0.01708 0.10121 0.0
C2204 C 0.50995 0.99425 0.13201 0.0
C2205 C 0.49758 0.98171 0.1489 0.0
C2206 C 0.47899 0.99452 0.15985 0.0
C2207 C 0.4669 0.98229 0.17536 0.0
C2208 C 0.47338 0.95732 0.18017 0.0
C2209 C 0.49209 0.94459 0.16956 0.0
C2210 C 0.50421 0.95671 0.15401 0.0
C2211 C 0.61475 0.03864 0.11823 0.0
C2212 C 0.63066 0.01745 0.12101 0.0
C2213 C 0.58844 0.03566 0.11663 0.0
C2214 C 0.5774 0.01141 0.11762 0.0
C2215 C 0.59321 0.99018 0.12024 0.0
C2216 C 0.61959 0.99315 0.12181 0.0
C2217 C 0.54931 0.00841 0.11643 0.0
C2218 C 0.53659 0.9961 0.13172 0.0
C2219 C 0.53497 0.01872 0.10085 0.0
C2220 C 0.54737 0.03022 0.08359 0.0
C2221 C 0.56494 0.01616 0.07256 0.0
C2222 C 0.57662 0.02705 0.05632 0.0
C2223 C 0.57099 0.05205 0.051 0.0
C2224 C 0.55344 0.06611 0.0618 0.0
C2225 C 0.54154 0.05523 0.07798 0.0
H2226 H 0.5802 0.0605 0.03849 0.0
H2227 H 0.46394 0.94783 0.19211 0.0
H2228 H 0.52635 0.1077 0.41698 0.0
H2229 H 0.52015 0.06163 0.41488 0.0
H2230 H 0.49644 0.06927 0.355 0.0
H2231 H 0.50292 0.11545 0.35699 0.0
H2232 H 0.46443 0.03678 0.3789 0.0
H2233 H 0.55148 0.04786 0.36083 0.0
H2234 H 0.59512 0.0642 0.36451 0.0
H2235 H 0.60297 0.02408 0.41866 0.0
H2236 H 0.55916 0.00785 0.41547 0.0
H2237 H 0.46844 0.90501 0.35595 0.0
H2238 H 0.47454 0.95106 0.35566 0.0
H2239 H 0.51224 0.94677 0.41144 0.0
H2240 H 0.5064 0.90065 0.41167 0.0
H2241 H 0.53728 0.97813 0.38816 0.0
H2242 H 0.44974 0.9677 0.40651 0.0
H2243 H 0.4059 0.95182 0.40292 0.0
H2244 H 0.39871 0.99096 0.3483 0.0
H2245 H 0.44265 1.0068 0.35144 0.0
C2246 C 0.5196 0.09959 0.40343 0.0
C2247 C 0.51506 0.11518 0.38716 0.0
C2248 C 0.51622 0.07327 0.40221 0.0
C2249 C 0.50791 0.06202 0.38477 0.0
C2250 C 0.50287 0.07757 0.36859 0.0
C2251 C 0.50668 0.10388 0.36971 0.0
C2252 C 0.50478 0.034 0.38346 0.0
C2253 C 0.48038 0.02392 0.38064 0.0
C2254 C 0.52554 0.01727 0.38609 0.0
C2255 C 0.55194 0.02686 0.38801 0.0
C2256 C 0.56242 0.04271 0.37361 0.0
C2257 C 0.5872 0.05191 0.37559 0.0
C2258 C 0.60179 0.04522 0.39183 0.0
C2259 C 0.59163 0.02927 0.4061 0.0
C2260 C 0.56683 0.02005 0.40421 0.0
C2261 C 0.47785 0.91389 0.36822 0.0
C2262 C 0.48683 0.89912 0.38387 0.0
C2263 C 0.48135 0.94026 0.36805 0.0
C2264 C 0.49358 0.95255 0.38365 0.0
C2265 C 0.50279 0.9378 0.39921 0.0
C2266 C 0.49946 0.91139 0.39932 0.0
C2267 C 0.4968 0.98072 0.38378 0.0
C2268 C 0.52127 0.9909 0.38638 0.0
C2269 C 0.47606 0.99755 0.38095 0.0
C2270 C 0.44956 0.98823 0.37912 0.0
C2271 C 0.43886 0.97278 0.39367 0.0
C2272 C 0.41399 0.9638 0.39173 0.0
C2273 C 0.39955 0.97032 0.37537 0.0
C2274 C 0.40993 0.9859 0.36095 0.0
C2275 C 0.43481 0.9949 0.36281 0.0
H2276 H 0.3803 0.96335 0.37389 0.0
H2277 H 0.62098 0.05235 0.39333 0.0
H2278 H 0.88312 0.47955 0.37295 0.0
H2279 H 0.92917 0.47374 0.37423 0.0
H2280 H 0.93926 0.55473 0.37981 0.0
H2281 H 0.89327 0.56067 0.3786 0.0
H2282 H 0.97339 0.5353 0.35502 0.0
H2283 H 0.94364 0.51546 0.41931 0.0
H2284 H 0.91726 0.49334 0.44363 0.0
H2285 H 0.94853 0.42169 0.42581 0.0
H2286 H 0.97479 0.44333 0.40113 0.0
H2287 H 0.10013 0.53723 0.39004 0.0
H2288 H 0.05407 0.54141 0.38746 0.0
H2289 H 0.04721 0.46034 0.38003 0.0
H2290 H 0.09329 0.4559 0.38319 0.0
H2291 H 0.0115 0.47878 0.40501 0.0
H2292 H 0.04388 0.50022 0.34198 0.0
H2293 H 0.07127 0.52363 0.31912 0.0
H2294 H 0.03498 0.59363 0.33503 0.0
H2295 H 0.00808 0.57083 0.35863 0.0
C2296 C 0.8951 0.49613 0.37453 0.0
C2297 C 0.88438 0.52057 0.37576 0.0
C2298 C 0.92147 0.49278 0.37523 0.0
C2299 C 0.93773 0.51377 0.37737 0.0
C2300 C 0.92713 0.53824 0.37814 0.0
C2301 C 0.90077 0.54161 0.37738 0.0
C2302 C 0.96573 0.51025 0.3791 0.0
C2303 C 0.98173 0.52316 0.36609 0.0
C2304 C 0.97665 0.49402 0.3933 0.0
C2305 C 0.96099 0.481 0.40822 0.0
C2306 C 0.94475 0.49497 0.42047 0.0
C2307 C 0.92984 0.48252 0.43433 0.0
C2308 C 0.93119 0.45613 0.43624 0.0
C2309 C 0.94749 0.44213 0.4243 0.0
C2310 C 0.96239 0.45447 0.41037 0.0
C2311 C 0.08888 0.52023 0.38806 0.0
C2312 C 0.10055 0.49623 0.38677 0.0
C2313 C 0.0625 0.52268 0.38641 0.0
C2314 C 0.04716 0.50122 0.38331 0.0
C2315 C 0.05866 0.47719 0.38233 0.0
C2316 C 0.08507 0.47471 0.38396 0.0
C2317 C 0.01916 0.50393 0.381 0.0
C2318 C 1.00316 0.49085 0.39389 0.0
C2319 C 0.00827 0.52014 0.36676 0.0
C2320 C 0.02409 0.53381 0.35224 0.0
C2321 C 0.04186 0.52063 0.34075 0.0
C2322 C 0.05731 0.5338 0.32764 0.0
C2323 C 0.0548 0.56007 0.32556 0.0
C2324 C 0.0369 0.57327 0.33665 0.0
C2325 C 0.0216 0.56024 0.34994 0.0
H2326 H 0.06674 0.57021 0.31536 0.0
H2327 H 0.91964 0.44653 0.44699 0.0
H2328 H 0.02101 0.61766 0.90979 0.0
H2329 H 0.02854 0.57208 0.90664 0.0
H2330 H 0.96736 0.56658 0.86504 0.0
H2331 H 0.96009 0.61215 0.86758 0.0
H2332 H 0.9645 0.52993 0.89381 0.0
H2333 H 0.02707 0.56294 0.84962 0.0
H2334 H 0.06332 0.58975 0.83993 0.0
H2335 H 0.11015 0.55394 0.88325 0.0
H2336 H 0.07405 0.52715 0.89339 0.0
H2337 H 0.98292 0.40435 0.86147 0.0
H2338 H 0.97879 0.45052 0.8629 0.0
H2339 H 0.04665 0.45482 0.89814 0.0
H2340 H 0.05115 0.40849 0.89627 0.0
H2341 H 0.04668 0.49243 0.87328 0.0
H2342 H 0.98513 0.45977 0.91795 0.0
H2343 H 0.94917 0.43326 0.9287 0.0
H2344 H 0.90076 0.46876 0.88626 0.0
H2345 H 0.93653 0.49526 0.87508 0.0
C2346 C 0.00931 0.60695 0.89975 0.0
C2347 C 0.9898 0.6189 0.88904 0.0
C2348 C 0.01364 0.58078 0.89801 0.0
C2349 C 0.99856 0.56588 0.88556 0.0
C2350 C 0.97917 0.57766 0.8748 0.0
C2351 C 0.97496 0.60383 0.87639 0.0
C2352 C 1.00251 0.53791 0.88411 0.0
C2353 C 0.98237 0.52173 0.88908 0.0
C2354 C 0.02605 0.52717 0.8785 0.0
C2355 C 0.04778 0.54322 0.8724 0.0
C2356 C 0.04504 0.56093 0.8572 0.0
C2357 C 0.06557 0.5761 0.8516 0.0
C2358 C 0.089 0.5736 0.86101 0.0
C2359 C 0.09197 0.55588 0.876 0.0
C2360 C 0.07149 0.54069 0.88166 0.0
C2361 C 0.99692 0.41512 0.86957 0.0
C2362 C 0.01722 0.40272 0.87892 0.0
C2363 C 0.99453 0.44156 0.87041 0.0
C2364 C 0.01207 0.45626 0.88101 0.0
C2365 C 0.03278 0.44398 0.88993 0.0
C2366 C 0.03537 0.41749 0.88885 0.0
C2367 C 0.00859 0.48433 0.8829 0.0
C2368 C 0.02881 0.50057 0.87805 0.0
C2369 C 0.98516 0.49517 0.88881 0.0
C2370 C 0.96358 0.47933 0.89556 0.0
C2371 C 0.96686 0.4618 0.91082 0.0
C2372 C 0.9465 0.44679 0.91701 0.0
C2373 C 0.92271 0.44928 0.90814 0.0
C2374 C 0.91921 0.46683 0.8931 0.0
C2375 C 0.93951 0.48187 0.88685 0.0
H2376 H 0.90698 0.43764 0.91295 0.0
H2377 H 0.10488 0.58535 0.85665 0.0
H2378 H 0.60101 0.05345 0.87108 0.0
H2379 H 0.55534 0.04639 0.87257 0.0
H2380 H 0.56796 0.97033 0.89365 0.0
H2381 H 0.61378 0.97731 0.89272 0.0
H2382 H 0.53187 0.97223 0.86411 0.0
H2383 H 0.54864 0.01497 0.92464 0.0
H2384 H 0.56578 0.04922 0.94537 0.0
H2385 H 0.51877 0.10365 0.91578 0.0
H2386 H 0.50162 0.06976 0.89467 0.0
H2387 H 0.40235 0.94806 0.88831 0.0
H2388 H 0.44864 0.95285 0.88939 0.0
H2389 H 0.44078 0.03278 0.87676 0.0
H2390 H 0.39463 0.02811 0.87614 0.0
H2391 H 0.47515 0.0276 0.90312 0.0
H2392 H 0.45923 0.98644 0.84185 0.0
H2393 H 0.44338 0.95339 0.81941 0.0
H2394 H 0.48911 0.89743 0.84848 0.0
H2395 H 0.50492 0.93005 0.8713 0.0
C2396 C 0.5943 0.0353 0.87632 0.0
C2397 C 0.61147 0.01604 0.88187 0.0
C2398 C 0.56801 0.03127 0.87707 0.0
C2399 C 0.55815 0.00788 0.88334 0.0
C2400 C 0.5751 0.98853 0.88872 0.0
C2401 C 0.60141 0.99258 0.88812 0.0
C2402 C 0.53015 1.00363 0.88414 0.0
C2403 C 0.51947 0.98407 0.87287 0.0
C2404 C 0.51389 0.01948 0.89517 0.0
C2405 C 0.52401 0.03985 0.90796 0.0
C2406 C 0.5421 0.03427 0.92245 0.0
C2407 C 0.55179 0.05361 0.93429 0.0
C2408 C 0.54341 0.0786 0.93186 0.0
C2409 C 0.52526 0.08429 0.91763 0.0
C2410 C 0.51553 0.06501 0.90574 0.0
C2411 C 0.41054 0.9666 0.88566 0.0
C2412 C 0.39479 0.98768 0.88208 0.0
C2413 C 0.43704 0.96934 0.88625 0.0
C2414 C 0.44841 0.99314 0.88286 0.0
C2415 C 0.43262 0.01422 0.87947 0.0
C2416 C 0.40617 0.01155 0.87914 0.0
C2417 C 0.47666 0.99626 0.88292 0.0
C2418 C 0.48745 0.01563 0.89438 0.0
C2419 C 0.493 0.98038 0.87188 0.0
C2420 C 0.48308 0.96066 0.85841 0.0
C2421 C 0.46571 0.96704 0.84359 0.0
C2422 C 0.45676 0.94839 0.83078 0.0
C2423 C 0.46526 0.92334 0.83253 0.0
C2424 C 0.48257 0.91684 0.84715 0.0
C2425 C 0.49152 0.9354 0.86003 0.0
H2426 H 0.45855 0.90896 0.8225 0.0
H2427 H 0.55095 0.09355 0.94104 0.0
H2428 H 0.45936 0.90585 0.64487 0.0
H2429 H 0.46233 0.95206 0.6459 0.0
H2430 H 0.53531 0.94877 0.61774 0.0
H2431 H 0.53232 0.90274 0.61595 0.0
H2432 H 0.53496 0.98166 0.64948 0.0
H2433 H 0.48293 0.96512 0.59196 0.0
H2434 H 0.44584 0.94638 0.57525 0.0
H2435 H 0.39564 0.98731 0.61324 0.0
H2436 H 0.43246 1.00607 0.63029 0.0
H2437 H 0.55618 0.10613 0.61682 0.0
H2438 H 0.54929 0.06046 0.61979 0.0
H2439 H 0.47252 0.07409 0.63913 0.0
H2440 H 0.47925 0.11999 0.63563 0.0
H2441 H 0.47205 0.03605 0.61535 0.0
H2442 H 0.5214 0.05628 0.67094 0.0
H2443 H 0.55683 0.07517 0.68948 0.0
H2444 H 0.60979 0.0273 0.65931 0.0
H2445 H 0.57475 0.00854 0.64021 0.0
C2446 C 0.47599 0.91476 0.63868 0.0
C2447 C 0.49554 0.90013 0.63022 0.0
C2448 C 0.4777 0.94132 0.63943 0.0
C2449 C 0.49904 0.95391 0.6319 0.0
C2450 C 0.51871 0.93947 0.62374 0.0
C2451 C 0.51694 0.91298 0.62279 0.0
C2452 C 0.50083 0.98214 0.63218 0.0
C2453 C 0.52137 0.99359 0.64187 0.0
C2454 C 0.48252 0.99775 0.62295 0.0
C2455 C 0.46042 0.98685 0.61247 0.0
C2456 C 0.46397 0.97002 0.59679 0.0
C2457 C 0.44301 0.95941 0.58726 0.0
C2458 C 0.4184 0.96562 0.5932 0.0
C2459 C 0.41471 0.98251 0.60865 0.0
C2460 C 0.43561 0.99317 0.61824 0.0
C2461 C 0.53791 0.09943 0.62187 0.0
C2462 C 0.51833 0.1167 0.62616 0.0
C2463 C 0.53397 0.07326 0.62361 0.0
C2464 C 0.51052 0.06369 0.63008 0.0
C2465 C 0.49081 0.08092 0.63416 0.0
C2466 C 0.49465 0.10714 0.63216 0.0
C2467 C 0.50662 0.03573 0.63227 0.0
C2468 C 0.48563 0.02428 0.62311 0.0
C2469 C 0.52427 0.02015 0.64236 0.0
C2470 C 0.54543 0.03112 0.65402 0.0
C2471 C 0.54061 0.04988 0.66816 0.0
C2472 C 0.56063 0.06057 0.67878 0.0
C2473 C 0.58554 0.05244 0.67559 0.0
C2474 C 0.59048 0.03359 0.66177 0.0
C2475 C 0.57055 0.02292 0.65103 0.0
H2476 H 0.601 0.06074 0.68384 0.0
H2477 H 0.40219 0.95736 0.58582 0.0
H2478 H 0.90143 0.48084 0.61164 0.0
H2479 H 0.94751 0.47502 0.6127 0.0
H2480 H 0.95557 0.54632 0.64301 0.0
H2481 H 0.90965 0.55212 0.64233 0.0
H2482 H 0.99045 0.54166 0.61416 0.0
H2483 H 0.96012 0.49047 0.66734 0.0
H2484 H 0.93408 0.45711 0.6827 0.0
H2485 H 0.96783 0.40092 0.64549 0.0
H2486 H 0.99384 0.43403 0.62971 0.0
H2487 H 0.1174 0.53048 0.64667 0.0
H2488 H 0.0712 0.53459 0.64522 0.0
H2489 H 0.06579 0.46023 0.6191 0.0
H2490 H 0.11207 0.45589 0.62082 0.0
H2491 H 0.02936 0.4657 0.64489 0.0
H2492 H 0.05999 0.51615 0.59183 0.0
H2493 H 0.08591 0.5492 0.57597 0.0
H2494 H 0.05146 0.60632 0.61195 0.0
H2495 H 0.02557 0.57355 0.62822 0.0
C2496 C 0.91293 0.49524 0.61864 0.0
C2497 C 0.9016 0.51698 0.62688 0.0
C2498 C 0.93934 0.49189 0.61922 0.0
C2499 C 0.95505 0.51013 0.62809 0.0
C2500 C 0.94388 0.53201 0.63603 0.0
C2501 C 0.91751 0.53535 0.63552 0.0
C2502 C 0.98312 0.50651 0.62913 0.0
C2503 C 0.99896 0.52519 0.62108 0.0
C2504 C 0.99428 0.4847 0.6377 0.0
C2505 C 0.97872 0.46477 0.64721 0.0
C2506 C 0.96184 0.47104 0.66232 0.0
C2507 C 0.94711 0.45217 0.67112 0.0
C2508 C 0.94925 0.42692 0.66503 0.0
C2509 C 0.96617 0.42049 0.65017 0.0
C2510 C 0.98092 0.43929 0.6413 0.0
C2511 C 0.1064 0.51505 0.64052 0.0
C2512 C 0.11848 0.49294 0.63371 0.0
C2513 C 0.07994 0.51743 0.63968 0.0
C2514 C 0.06491 0.49793 0.6317 0.0
C2515 C 0.07689 0.47558 0.62528 0.0
C2516 C 0.10337 0.47309 0.6263 0.0
C2517 C 0.03677 0.50094 0.62998 0.0
C2518 C 0.0209 0.48214 0.6379 0.0
C2519 C 0.02555 0.52259 0.62118 0.0
C2520 C 0.04101 0.54236 0.61136 0.0
C2521 C 0.05807 0.53574 0.59645 0.0
C2522 C 0.07274 0.55442 0.58738 0.0
C2523 C 0.07038 0.57984 0.59298 0.0
C2524 C 0.05329 0.58662 0.60764 0.0
C2525 C 0.03859 0.568 0.61678 0.0
H2526 H 0.08175 0.59428 0.58594 0.0
H2527 H 0.93783 0.41234 0.67187 0.0
loop_
_geom_bond_atom_site_label_1
_geom_bond_atom_site_label_2
_geom_bond_distance
_geom_bond_site_symmetry_2
_ccdc_geom_bond_type
Co0 N4 2.148 . S
Co0 N10 2.128 . S
Co0 N20 2.194 . S
Co0 O25 2.351 . S
Co0 O26 2.155 . S
Co0 O27 2.096 . S
C1 N4 1.301 . S
C1 N5 1.328 . S
C1 H6 0.930 . S
C2 C3 1.333 . S
C2 N4 1.317 . S
C2 H7 0.930 . S
C3 C2 1.333 . S
C3 N5 1.350 . S
C3 H29 0.931 . S
N4 Co0 2.148 . S
N4 C1 1.301 . S
N4 C2 1.317 . S
N5 C1 1.328 . S
N5 C3 1.350 . S
H6 C1 0.930 . S
H7 C2 0.930 . S
C8 O9 1.224 . S
C8 O27 1.247 . S
O9 C8 1.224 . S
N10 Co0 2.128 . S
N10 C11 1.355 . S
N10 C13 1.311 . S
C11 N10 1.355 . S
C11 C12 1.363 . S
C11 H23 0.929 . S
C12 C11 1.363 . S
C12 N14 1.375 . S
C12 H30 0.931 . S
C13 N10 1.311 . S
C13 N14 1.347 . S
C13 H24 0.929 . S
N14 C12 1.375 . S
N14 C13 1.347 . S
C15 C18 1.365 . S
C15 N20 1.328 . S
C15 H21 0.929 . S
C16 C17 1.383 . S
C16 C19 1.378 . S
C16 H31 0.929 . S
C17 C16 1.383 . S
C17 C18 1.381 . S
C18 C15 1.365 . S
C18 C17 1.381 . S
C18 H32 0.930 . S
C19 C16 1.378 . S
C19 N20 1.315 . S
C19 H22 0.930 . S
N20 Co0 2.194 . S
N20 C15 1.328 . S
N20 C19 1.315 . S
H21 C15 0.929 . S
H22 C19 0.930 . S
H23 C11 0.929 . S
H24 C13 0.929 . S
O25 Co0 2.351 . S
O25 C28 1.244 . S
O26 Co0 2.155 . S
O26 C28 1.240 . S
O27 Co0 2.096 . S
O27 C8 1.247 . S
C28 O25 1.244 . S
C28 O26 1.240 . S
H29 C3 0.931 . S
H30 C12 0.931 . S
H31 C16 0.929 . S
H32 C18 0.930 . S
Co33 N37 2.148 . S
Co33 N43 2.128 . S
Co33 N53 2.194 . S
Co33 O58 2.351 . S
Co33 O59 2.155 . S
Co33 O60 2.096 . S
C34 N37 1.301 . S
C34 N38 1.328 . S
C34 H39 0.930 . S
C35 C36 1.333 . S
C35 N37 1.317 . S
C35 H40 0.930 . S
C36 C35 1.333 . S
C36 N38 1.350 . S
C36 H62 0.931 . S
N37 Co33 2.148 . S
N37 C34 1.301 . S
N37 C35 1.317 . S
N38 C34 1.328 . S
N38 C36 1.350 . S
H39 C34 0.930 . S
H40 C35 0.930 . S
C41 O42 1.224 . S
C41 O60 1.247 . S
O42 C41 1.224 . S
N43 Co33 2.128 . S
N43 C44 1.355 . S
N43 C46 1.311 . S
C44 N43 1.355 . S
C44 C45 1.363 . S
C44 H56 0.929 . S
C45 C44 1.363 . S
C45 N47 1.375 . S
C45 H63 0.931 . S
C46 N43 1.311 . S
C46 N47 1.347 . S
C46 H57 0.929 . S
N47 C45 1.375 . S
N47 C46 1.347 . S
C48 C51 1.365 . S
C48 N53 1.328 . S
C48 H54 0.929 . S
C49 C50 1.383 . S
C49 C52 1.378 . S
C49 H64 0.929 . S
C50 C49 1.383 . S
C50 C51 1.381 . S
C51 C48 1.365 . S
C51 C50 1.381 . S
C51 H65 0.930 . S
C52 C49 1.378 . S
C52 N53 1.315 . S
C52 H55 0.930 . S
N53 Co33 2.194 . S
N53 C48 1.328 . S
N53 C52 1.315 . S
H54 C48 0.929 . S
H55 C52 0.930 . S
H56 C44 0.929 . S
H57 C46 0.929 . S
O58 Co33 2.351 . S
O58 C61 1.244 . S
O59 Co33 2.155 . S
O59 C61 1.240 . S
O60 Co33 2.096 . S
O60 C41 1.247 . S
C61 O58 1.244 . S
C61 O59 1.240 . S
H62 C36 0.931 . S
H63 C45 0.931 . S
H64 C49 0.929 . S
H65 C51 0.930 . S
Co66 N70 2.148 . S
Co66 N76 2.128 . S
Co66 N86 2.194 . S
Co66 O91 2.351 . S
Co66 O92 2.155 . S
Co66 O93 2.096 . S
C67 N70 1.301 . S
C67 N71 1.328 . S
C67 H72 0.930 . S
C68 C69 1.333 . S
C68 N70 1.317 . S
C68 H73 0.930 . S
C69 C68 1.333 . S
C69 N71 1.350 . S
C69 H95 0.931 . S
N70 Co66 2.148 . S
N70 C67 1.301 . S
N70 C68 1.317 . S
N71 C67 1.328 . S
N71 C69 1.350 . S
H72 C67 0.930 . S
H73 C68 0.930 . S
C74 O75 1.224 . S
C74 O93 1.247 . S
O75 C74 1.224 . S
N76 Co66 2.128 . S
N76 C77 1.355 . S
N76 C79 1.311 . S
C77 N76 1.355 . S
C77 C78 1.363 . S
C77 H89 0.929 . S
C78 C77 1.363 . S
C78 N80 1.375 . S
C78 H96 0.931 . S
C79 N76 1.311 . S
C79 N80 1.347 . S
C79 H90 0.929 . S
N80 C78 1.375 . S
N80 C79 1.347 . S
C81 C84 1.365 . S
C81 N86 1.328 . S
C81 H87 0.929 . S
C82 C83 1.383 . S
C82 C85 1.378 . S
C82 H97 0.929 . S
C83 C82 1.383 . S
C83 C84 1.381 . S
C84 C81 1.365 . S
C84 C83 1.381 . S
C84 H98 0.930 . S
C85 C82 1.378 . S
C85 N86 1.315 . S
C85 H88 0.930 . S
N86 Co66 2.194 . S
N86 C81 1.328 . S
N86 C85 1.315 . S
H87 C81 0.929 . S
H88 C85 0.930 . S
H89 C77 0.929 . S
H90 C79 0.929 . S
O91 Co66 2.351 . S
O91 C94 1.244 . S
O92 Co66 2.155 . S
O92 C94 1.240 . S
O93 Co66 2.096 . S
O93 C74 1.247 . S
C94 O91 1.244 . S
C94 O92 1.240 . S
H95 C69 0.931 . S
H96 C78 0.931 . S
H97 C82 0.929 . S
H98 C84 0.930 . S
Co99 N103 2.148 . S
Co99 N109 2.128 . S
Co99 N119 2.194 . S
Co99 O124 2.351 . S
Co99 O125 2.155 . S
Co99 O126 2.096 . S
C100 N103 1.301 . S
C100 N104 1.328 . S
C100 H105 0.930 . S
C101 C102 1.333 . S
C101 N103 1.317 . S
C101 H106 0.930 . S
C102 C101 1.333 . S
C102 N104 1.350 . S
C102 H128 0.931 . S
N103 Co99 2.148 . S
N103 C100 1.301 . S
N103 C101 1.317 . S
N104 C100 1.328 . S
N104 C102 1.350 . S
H105 C100 0.930 . S
H106 C101 0.930 . S
C107 O108 1.224 . S
C107 O126 1.247 . S
O108 C107 1.224 . S
N109 Co99 2.128 . S
N109 C110 1.355 . S
N109 C112 1.311 . S
C110 N109 1.355 . S
C110 C111 1.363 . S
C110 H122 0.929 . S
C111 C110 1.363 . S
C111 N113 1.375 . S
C111 H129 0.931 . S
C112 N109 1.311 . S
C112 N113 1.347 . S
C112 H123 0.929 . S
N113 C111 1.375 . S
N113 C112 1.347 . S
C114 C117 1.365 . S
C114 N119 1.328 . S
C114 H120 0.929 . S
C115 C116 1.383 . S
C115 C118 1.378 . S
C115 H130 0.929 . S
C116 C115 1.383 . S
C116 C117 1.381 . S
C117 C114 1.365 . S
C117 C116 1.381 . S
C117 H131 0.930 . S
C118 C115 1.378 . S
C118 N119 1.315 . S
C118 H121 0.930 . S
N119 Co99 2.194 . S
N119 C114 1.328 . S
N119 C118 1.315 . S
H120 C114 0.929 . S
H121 C118 0.930 . S
H122 C110 0.929 . S
H123 C112 0.929 . S
O124 Co99 2.351 . S
O124 C127 1.244 . S
O125 Co99 2.155 . S
O125 C127 1.240 . S
O126 Co99 2.096 . S
O126 C107 1.247 . S
C127 O124 1.244 . S
C127 O125 1.240 . S
H128 C102 0.931 . S
H129 C111 0.931 . S
H130 C115 0.929 . S
H131 C117 0.930 . S
Co132 N136 2.148 . S
Co132 N142 2.128 . S
Co132 N152 2.194 . S
Co132 O157 2.351 . S
Co132 O158 2.155 . S
Co132 O159 2.096 . S
C133 N136 1.301 . S
C133 N137 1.328 . S
C133 H138 0.930 . S
C134 C135 1.333 . S
C134 N136 1.317 . S
C134 H139 0.930 . S
C135 C134 1.333 . S
C135 N137 1.350 . S
C135 H161 0.931 . S
N136 Co132 2.148 . S
N136 C133 1.301 . S
N136 C134 1.317 . S
N137 C133 1.328 . S
N137 C135 1.350 . S
H138 C133 0.930 . S
H139 C134 0.930 . S
C140 O141 1.224 . S
C140 O159 1.247 . S
O141 C140 1.224 . S
N142 Co132 2.128 . S
N142 C143 1.355 . S
N142 C145 1.311 . S
C143 N142 1.355 . S
C143 C144 1.363 . S
C143 H155 0.929 . S
C144 C143 1.363 . S
C144 N146 1.375 . S
C144 H162 0.931 . S
C145 N142 1.311 . S
C145 N146 1.347 . S
C145 H156 0.929 . S
N146 C144 1.375 . S
N146 C145 1.347 . S
C147 C150 1.365 . S
C147 N152 1.328 . S
C147 H153 0.929 . S
C148 C149 1.362 . S
C148 C151 1.378 . S
C148 H163 0.929 . S
C149 C148 1.362 . S
C149 C150 1.366 . S
C150 C147 1.365 . S
C150 C149 1.366 . S
C150 H164 0.930 . S
C151 C148 1.378 . S
C151 N152 1.315 . S
C151 H154 0.930 . S
N152 Co132 2.194 . S
N152 C147 1.328 . S
N152 C151 1.315 . S
H153 C147 0.929 . S
H154 C151 0.930 . S
H155 C143 0.929 . S
H156 C145 0.929 . S
O157 Co132 2.351 . S
O157 C160 1.244 . S
O158 Co132 2.155 . S
O158 C160 1.240 . S
O159 Co132 2.096 . S
O159 C140 1.247 . S
C160 O157 1.244 . S
C160 O158 1.240 . S
H161 C135 0.931 . S
H162 C144 0.931 . S
H163 C148 0.929 . S
H164 C150 0.930 . S
Co165 N169 2.148 . S
Co165 N175 2.128 . S
Co165 N185 2.194 . S
Co165 O190 2.351 . S
Co165 O191 2.155 . S
Co165 O192 2.096 . S
C166 N169 1.301 . S
C166 N170 1.328 . S
C166 H171 0.930 . S
C167 C168 1.333 . S
C167 N169 1.317 . S
C167 H172 0.930 . S
C168 C167 1.333 . S
C168 N170 1.350 . S
C168 H194 0.931 . S
N169 Co165 2.148 . S
N169 C166 1.301 . S
N169 C167 1.317 . S
N170 C166 1.328 . S
N170 C168 1.350 . S
H171 C166 0.930 . S
H172 C167 0.930 . S
C173 O174 1.224 . S
C173 O192 1.247 . S
O174 C173 1.224 . S
N175 Co165 2.128 . S
N175 C176 1.355 . S
N175 C178 1.311 . S
C176 N175 1.355 . S
C176 C177 1.363 . S
C176 H188 0.929 . S
C177 C176 1.363 . S
C177 N179 1.375 . S
C177 H195 0.931 . S
C178 N175 1.311 . S
C178 N179 1.347 . S
C178 H189 0.929 . S
N179 C177 1.375 . S
N179 C178 1.347 . S
C180 C183 1.365 . S
C180 N185 1.328 . S
C180 H186 0.929 . S
C181 C182 1.362 . S
C181 C184 1.378 . S
C181 H196 0.929 . S
C182 C181 1.362 . S
C182 C183 1.366 . S
C183 C180 1.365 . S
C183 C182 1.366 . S
C183 H197 0.930 . S
C184 C181 1.378 . S
C184 N185 1.315 . S
C184 H187 0.930 . S
N185 Co165 2.194 . S
N185 C180 1.328 . S
N185 C184 1.315 . S
H186 C180 0.929 . S
H187 C184 0.930 . S
H188 C176 0.929 . S
H189 C178 0.929 . S
O190 Co165 2.351 . S
O190 C193 1.244 . S
O191 Co165 2.155 . S
O191 C193 1.240 . S
O192 Co165 2.096 . S
O192 C173 1.247 . S
C193 O190 1.244 . S
C193 O191 1.240 . S
H194 C168 0.931 . S
H195 C177 0.931 . S
H196 C181 0.929 . S
H197 C183 0.930 . S
Co198 N202 2.148 . S
Co198 N208 2.128 . S
Co198 N218 2.194 . S
Co198 O223 2.351 . S
Co198 O224 2.155 . S
Co198 O225 2.096 . S
C199 N202 1.301 . S
C199 N203 1.328 . S
C199 H204 0.930 . S
C200 C201 1.333 . S
C200 N202 1.317 . S
C200 H205 0.930 . S
C201 C200 1.333 . S
C201 N203 1.350 . S
C201 H227 0.931 . S
N202 Co198 2.148 . S
N202 C199 1.301 . S
N202 C200 1.317 . S
N203 C199 1.328 . S
N203 C201 1.350 . S
H204 C199 0.930 . S
H205 C200 0.930 . S
C206 O207 1.224 . S
C206 O225 1.247 . S
O207 C206 1.224 . S
N208 Co198 2.128 . S
N208 C209 1.355 . S
N208 C211 1.311 . S
C209 N208 1.355 . S
C209 C210 1.363 . S
C209 H221 0.929 . S
C210 C209 1.363 . S
C210 N212 1.375 . S
C210 H228 0.931 . S
C211 N208 1.311 . S
C211 N212 1.347 . S
C211 H222 0.929 . S
N212 C210 1.375 . S
N212 C211 1.347 . S
C213 C216 1.365 . S
C213 N218 1.328 . S
C213 H219 0.929 . S
C214 C215 1.362 . S
C214 C217 1.378 . S
C214 H229 0.929 . S
C215 C214 1.362 . S
C215 C216 1.366 . S
C216 C213 1.365 . S
C216 C215 1.366 . S
C216 H230 0.930 . S
C217 C214 1.378 . S
C217 N218 1.315 . S
C217 H220 0.930 . S
N218 Co198 2.194 . S
N218 C213 1.328 . S
N218 C217 1.315 . S
H219 C213 0.929 . S
H220 C217 0.930 . S
H221 C209 0.929 . S
H222 C211 0.929 . S
O223 Co198 2.351 . S
O223 C226 1.244 . S
O224 Co198 2.155 . S
O224 C226 1.240 . S
O225 Co198 2.096 . S
O225 C206 1.247 . S
C226 O223 1.244 . S
C226 O224 1.240 . S
H227 C201 0.931 . S
H228 C210 0.931 . S
H229 C214 0.929 . S
H230 C216 0.930 . S
Co231 N235 2.148 . S
Co231 N241 2.128 . S
Co231 N251 2.194 . S
Co231 O256 2.351 . S
Co231 O257 2.155 . S
Co231 O258 2.096 . S
C232 N235 1.301 . S
C232 N236 1.328 . S
C232 H237 0.930 . S
C233 C234 1.333 . S
C233 N235 1.317 . S
C233 H238 0.930 . S
C234 C233 1.333 . S
C234 N236 1.350 . S
C234 H260 0.931 . S
N235 Co231 2.148 . S
N235 C232 1.301 . S
N235 C233 1.317 . S
N236 C232 1.328 . S
N236 C234 1.350 . S
H237 C232 0.930 . S
H238 C233 0.930 . S
C239 O240 1.224 . S
C239 O258 1.247 . S
O240 C239 1.224 . S
N241 Co231 2.128 . S
N241 C242 1.355 . S
N241 C244 1.311 . S
C242 N241 1.355 . S
C242 C243 1.363 . S
C242 H254 0.929 . S
C243 C242 1.363 . S
C243 N245 1.375 . S
C243 H261 0.931 . S
C244 N241 1.311 . S
C244 N245 1.347 . S
C244 H255 0.929 . S
N245 C243 1.375 . S
N245 C244 1.347 . S
C246 C249 1.365 . S
C246 N251 1.328 . S
C246 H252 0.929 . S
C247 C248 1.362 . S
C247 C250 1.378 . S
C247 H262 0.929 . S
C248 C247 1.362 . S
C248 C249 1.366 . S
C249 C246 1.365 . S
C249 C248 1.366 . S
C249 H263 0.930 . S
C250 C247 1.378 . S
C250 N251 1.315 . S
C250 H253 0.930 . S
N251 Co231 2.194 . S
N251 C246 1.328 . S
N251 C250 1.315 . S
H252 C246 0.929 . S
H253 C250 0.930 . S
H254 C242 0.929 . S
H255 C244 0.929 . S
O256 Co231 2.351 . S
O256 C259 1.244 . S
O257 Co231 2.155 . S
O257 C259 1.240 . S
O258 Co231 2.096 . S
O258 C239 1.247 . S
C259 O256 1.244 . S
C259 O257 1.240 . S
H260 C234 0.931 . S
H261 C243 0.931 . S
H262 C247 0.929 . S
H263 C249 0.930 . S
Co264 N268 2.148 . S
Co264 N274 2.128 . S
Co264 N284 2.194 . S
Co264 O289 2.351 . S
Co264 O290 2.155 . S
Co264 O291 2.096 . S
C265 N268 1.301 . S
C265 N269 1.328 . S
C265 H270 0.930 . S
C266 C267 1.333 . S
C266 N268 1.317 . S
C266 H271 0.930 . S
C267 C266 1.333 . S
C267 N269 1.350 . S
C267 H293 0.931 . S
N268 Co264 2.148 . S
N268 C265 1.301 . S
N268 C266 1.317 . S
N269 C265 1.328 . S
N269 C267 1.350 . S
H270 C265 0.930 . S
H271 C266 0.930 . S
C272 O273 1.224 . S
C272 O291 1.247 . S
O273 C272 1.224 . S
N274 Co264 2.128 . S
N274 C275 1.355 . S
N274 C277 1.311 . S
C275 N274 1.355 . S
C275 C276 1.363 . S
C275 H287 0.929 . S
C276 C275 1.363 . S
C276 N278 1.375 . S
C276 H294 0.931 . S
C277 N274 1.311 . S
C277 N278 1.347 . S
C277 H288 0.929 . S
N278 C276 1.375 . S
N278 C277 1.347 . S
C279 C282 1.365 . S
C279 N284 1.328 . S
C279 H285 0.929 . S
C280 C281 1.383 . S
C280 C283 1.378 . S
C280 H295 0.929 . S
C281 C280 1.383 . S
C281 C282 1.381 . S
C282 C279 1.365 . S
C282 C281 1.381 . S
C282 H296 0.930 . S
C283 C280 1.378 . S
C283 N284 1.315 . S
C283 H286 0.930 . S
N284 Co264 2.194 . S
N284 C279 1.328 . S
N284 C283 1.315 . S
H285 C279 0.929 . S
H286 C283 0.930 . S
H287 C275 0.929 . S
H288 C277 0.929 . S
O289 Co264 2.351 . S
O289 C292 1.244 . S
O290 Co264 2.155 . S
O290 C292 1.240 . S
O291 Co264 2.096 . S
O291 C272 1.247 . S
C292 O289 1.244 . S
C292 O290 1.240 . S
H293 C267 0.931 . S
H294 C276 0.931 . S
H295 C280 0.929 . S
H296 C282 0.930 . S
Co297 N301 2.148 . S
Co297 N307 2.128 . S
Co297 N317 2.194 . S
Co297 O322 2.351 . S
Co297 O323 2.155 . S
Co297 O324 2.096 . S
C298 N301 1.301 . S
C298 N302 1.328 . S
C298 H303 0.930 . S
C299 C300 1.333 . S
C299 N301 1.317 . S
C299 H304 0.930 . S
C300 C299 1.333 . S
C300 N302 1.350 . S
C300 H326 0.931 . S
N301 Co297 2.148 . S
N301 C298 1.301 . S
N301 C299 1.317 . S
N302 C298 1.328 . S
N302 C300 1.350 . S
H303 C298 0.930 . S
H304 C299 0.930 . S
C305 O306 1.224 . S
C305 O324 1.247 . S
O306 C305 1.224 . S
N307 Co297 2.128 . S
N307 C308 1.355 . S
N307 C310 1.311 . S
C308 N307 1.355 . S
C308 C309 1.363 . S
C308 H320 0.929 . S
C309 C308 1.363 . S
C309 N311 1.375 . S
C309 H327 0.931 . S
C310 N307 1.311 . S
C310 N311 1.347 . S
C310 H321 0.929 . S
N311 C309 1.375 . S
N311 C310 1.347 . S
C312 C315 1.365 . S
C312 N317 1.328 . S
C312 H318 0.929 . S
C313 C314 1.383 . S
C313 C316 1.378 . S
C313 H328 0.929 . S
C314 C313 1.383 . S
C314 C315 1.381 . S
C315 C312 1.365 . S
C315 C314 1.381 . S
C315 H329 0.930 . S
C316 C313 1.378 . S
C316 N317 1.315 . S
C316 H319 0.930 . S
N317 Co297 2.194 . S
N317 C312 1.328 . S
N317 C316 1.315 . S
H318 C312 0.929 . S
H319 C316 0.930 . S
H320 C308 0.929 . S
H321 C310 0.929 . S
O322 Co297 2.351 . S
O322 C325 1.244 . S
O323 Co297 2.155 . S
O323 C325 1.240 . S
O324 Co297 2.096 . S
O324 C305 1.247 . S
C325 O322 1.244 . S
C325 O323 1.240 . S
H326 C300 0.931 . S
H327 C309 0.931 . S
H328 C313 0.929 . S
H329 C315 0.930 . S
Co330 N334 2.148 . S
Co330 N340 2.128 . S
Co330 N350 2.194 . S
Co330 O355 2.351 . S
Co330 O356 2.155 . S
Co330 O357 2.096 . S
C331 N334 1.301 . S
C331 N335 1.328 . S
C331 H336 0.930 . S
C332 C333 1.333 . S
C332 N334 1.317 . S
C332 H337 0.930 . S
C333 C332 1.333 . S
C333 N335 1.350 . S
C333 H359 0.931 . S
N334 Co330 2.148 . S
N334 C331 1.301 . S
N334 C332 1.317 . S
N335 C331 1.328 . S
N335 C333 1.350 . S
H336 C331 0.930 . S
H337 C332 0.930 . S
C338 O339 1.224 . S
C338 O357 1.247 . S
O339 C338 1.224 . S
N340 Co330 2.128 . S
N340 C341 1.355 . S
N340 C343 1.311 . S
C341 N340 1.355 . S
C341 C342 1.363 . S
C341 H353 0.929 . S
C342 C341 1.363 . S
C342 N344 1.375 . S
C342 H360 0.931 . S
C343 N340 1.311 . S
C343 N344 1.347 . S
C343 H354 0.929 . S
N344 C342 1.375 . S
N344 C343 1.347 . S
C345 C348 1.365 . S
C345 N350 1.328 . S
C345 H351 0.929 . S
C346 C347 1.383 . S
C346 C349 1.378 . S
C346 H361 0.929 . S
C347 C346 1.383 . S
C347 C348 1.381 . S
C348 C345 1.365 . S
C348 C347 1.381 . S
C348 H362 0.930 . S
C349 C346 1.378 . S
C349 N350 1.315 . S
C349 H352 0.930 . S
N350 Co330 2.194 . S
N350 C345 1.328 . S
N350 C349 1.315 . S
H351 C345 0.929 . S
H352 C349 0.930 . S
H353 C341 0.929 . S
H354 C343 0.929 . S
O355 Co330 2.351 . S
O355 C358 1.244 . S
O356 Co330 2.155 . S
O356 C358 1.240 . S
O357 Co330 2.096 . S
O357 C338 1.247 . S
C358 O355 1.244 . S
C358 O356 1.240 . S
H359 C333 0.931 . S
H360 C342 0.931 . S
H361 C346 0.929 . S
H362 C348 0.930 . S
Co363 N367 2.148 . S
Co363 N373 2.128 . S
Co363 N383 2.194 . S
Co363 O388 2.351 . S
Co363 O389 2.155 . S
Co363 O390 2.096 . S
C364 N367 1.301 . S
C364 N368 1.328 . S
C364 H369 0.930 . S
C365 C366 1.333 . S
C365 N367 1.317 . S
C365 H370 0.930 . S
C366 C365 1.333 . S
C366 N368 1.350 . S
C366 H392 0.931 . S
N367 Co363 2.148 . S
N367 C364 1.301 . S
N367 C365 1.317 . S
N368 C364 1.328 . S
N368 C366 1.350 . S
H369 C364 0.930 . S
H370 C365 0.930 . S
C371 O372 1.224 . S
C371 O390 1.247 . S
O372 C371 1.224 . S
N373 Co363 2.128 . S
N373 C374 1.355 . S
N373 C376 1.311 . S
C374 N373 1.355 . S
C374 C375 1.363 . S
C374 H386 0.929 . S
C375 C374 1.363 . S
C375 N377 1.375 . S
C375 H393 0.931 . S
C376 N373 1.311 . S
C376 N377 1.347 . S
C376 H387 0.929 . S
N377 C375 1.375 . S
N377 C376 1.347 . S
C378 C381 1.365 . S
C378 N383 1.328 . S
C378 H384 0.929 . S
C379 C380 1.383 . S
C379 C382 1.378 . S
C379 H394 0.929 . S
C380 C379 1.383 . S
C380 C381 1.381 . S
C381 C378 1.365 . S
C381 C380 1.381 . S
C381 H395 0.930 . S
C382 C379 1.378 . S
C382 N383 1.315 . S
C382 H385 0.930 . S
N383 Co363 2.194 . S
N383 C378 1.328 . S
N383 C382 1.315 . S
H384 C378 0.929 . S
H385 C382 0.930 . S
H386 C374 0.929 . S
H387 C376 0.929 . S
O388 Co363 2.351 . S
O388 C391 1.244 . S
O389 Co363 2.155 . S
O389 C391 1.240 . S
O390 Co363 2.096 . S
O390 C371 1.247 . S
C391 O388 1.244 . S
C391 O389 1.240 . S
H392 C366 0.931 . S
H393 C375 0.931 . S
H394 C379 0.929 . S
H395 C381 0.930 . S
Co396 N400 2.148 . S
Co396 N406 2.128 . S
Co396 N416 2.194 . S
Co396 O421 2.351 . S
Co396 O422 2.155 . S
Co396 O423 2.096 . S
C397 N400 1.301 . S
C397 N401 1.328 . S
C397 H402 0.930 . S
C398 C399 1.333 . S
C398 N400 1.317 . S
C398 H403 0.930 . S
C399 C398 1.333 . S
C399 N401 1.350 . S
C399 H425 0.931 . S
N400 Co396 2.148 . S
N400 C397 1.301 . S
N400 C398 1.317 . S
N401 C397 1.328 . S
N401 C399 1.350 . S
H402 C397 0.930 . S
H403 C398 0.930 . S
C404 O405 1.224 . S
C404 O423 1.247 . S
O405 C404 1.224 . S
N406 Co396 2.128 . S
N406 C407 1.355 . S
N406 C409 1.311 . S
C407 N406 1.355 . S
C407 C408 1.363 . S
C407 H419 0.929 . S
C408 C407 1.363 . S
C408 N410 1.375 . S
C408 H426 0.931 . S
C409 N406 1.311 . S
C409 N410 1.347 . S
C409 H420 0.929 . S
N410 C408 1.375 . S
N410 C409 1.347 . S
C411 C414 1.365 . S
C411 N416 1.328 . S
C411 H417 0.929 . S
C412 C413 1.362 . S
C412 C415 1.378 . S
C412 H427 0.929 . S
C413 C412 1.362 . S
C413 C414 1.366 . S
C414 C411 1.365 . S
C414 C413 1.366 . S
C414 H428 0.930 . S
C415 C412 1.378 . S
C415 N416 1.315 . S
C415 H418 0.930 . S
N416 Co396 2.194 . S
N416 C411 1.328 . S
N416 C415 1.315 . S
H417 C411 0.929 . S
H418 C415 0.930 . S
H419 C407 0.929 . S
H420 C409 0.929 . S
O421 Co396 2.351 . S
O421 C424 1.244 . S
O422 Co396 2.155 . S
O422 C424 1.240 . S
O423 Co396 2.096 . S
O423 C404 1.247 . S
C424 O421 1.244 . S
C424 O422 1.240 . S
H425 C399 0.931 . S
H426 C408 0.931 . S
H427 C412 0.929 . S
H428 C414 0.930 . S
Co429 N433 2.148 . S
Co429 N439 2.128 . S
Co429 N449 2.194 . S
Co429 O454 2.351 . S
Co429 O455 2.155 . S
Co429 O456 2.096 . S
C430 N433 1.301 . S
C430 N434 1.328 . S
C430 H435 0.930 . S
C431 C432 1.333 . S
C431 N433 1.317 . S
C431 H436 0.930 . S
C432 C431 1.333 . S
C432 N434 1.350 . S
C432 H458 0.931 . S
N433 Co429 2.148 . S
N433 C430 1.301 . S
N433 C431 1.317 . S
N434 C430 1.328 . S
N434 C432 1.350 . S
H435 C430 0.930 . S
H436 C431 0.930 . S
C437 O438 1.224 . S
C437 O456 1.247 . S
O438 C437 1.224 . S
N439 Co429 2.128 . S
N439 C440 1.355 . S
N439 C442 1.311 . S
C440 N439 1.355 . S
C440 C441 1.363 . S
C440 H452 0.929 . S
C441 C440 1.363 . S
C441 N443 1.375 . S
C441 H459 0.931 . S
C442 N439 1.311 . S
C442 N443 1.347 . S
C442 H453 0.929 . S
N443 C441 1.375 . S
N443 C442 1.347 . S
C444 C447 1.365 . S
C444 N449 1.328 . S
C444 H450 0.929 . S
C445 C446 1.362 . S
C445 C448 1.378 . S
C445 H460 0.929 . S
C446 C445 1.362 . S
C446 C447 1.366 . S
C447 C444 1.365 . S
C447 C446 1.366 . S
C447 H461 0.930 . S
C448 C445 1.378 . S
C448 N449 1.315 . S
C448 H451 0.930 . S
N449 Co429 2.194 . S
N449 C444 1.328 . S
N449 C448 1.315 . S
H450 C444 0.929 . S
H451 C448 0.930 . S
H452 C440 0.929 . S
H453 C442 0.929 . S
O454 Co429 2.351 . S
O454 C457 1.244 . S
O455 Co429 2.155 . S
O455 C457 1.240 . S
O456 Co429 2.096 . S
O456 C437 1.247 . S
C457 O454 1.244 . S
C457 O455 1.240 . S
H458 C432 0.931 . S
H459 C441 0.931 . S
H460 C445 0.929 . S
H461 C447 0.930 . S
Co462 N466 2.148 . S
Co462 N472 2.128 . S
Co462 N482 2.194 . S
Co462 O487 2.351 . S
Co462 O488 2.155 . S
Co462 O489 2.096 . S
C463 N466 1.301 . S
C463 N467 1.328 . S
C463 H468 0.930 . S
C464 C465 1.333 . S
C464 N466 1.317 . S
C464 H469 0.930 . S
C465 C464 1.333 . S
C465 N467 1.350 . S
C465 H491 0.931 . S
N466 Co462 2.148 . S
N466 C463 1.301 . S
N466 C464 1.317 . S
N467 C463 1.328 . S
N467 C465 1.350 . S
H468 C463 0.930 . S
H469 C464 0.930 . S
C470 O471 1.224 . S
C470 O489 1.247 . S
O471 C470 1.224 . S
N472 Co462 2.128 . S
N472 C473 1.355 . S
N472 C475 1.311 . S
C473 N472 1.355 . S
C473 C474 1.363 . S
C473 H485 0.929 . S
C474 C473 1.363 . S
C474 N476 1.375 . S
C474 H492 0.931 . S
C475 N472 1.311 . S
C475 N476 1.347 . S
C475 H486 0.929 . S
N476 C474 1.375 . S
N476 C475 1.347 . S
C477 C480 1.365 . S
C477 N482 1.328 . S
C477 H483 0.929 . S
C478 C479 1.362 . S
C478 C481 1.378 . S
C478 H493 0.929 . S
C479 C478 1.362 . S
C479 C480 1.366 . S
C480 C477 1.365 . S
C480 C479 1.366 . S
C480 H494 0.930 . S
C481 C478 1.378 . S
C481 N482 1.315 . S
C481 H484 0.930 . S
N482 Co462 2.194 . S
N482 C477 1.328 . S
N482 C481 1.315 . S
H483 C477 0.929 . S
H484 C481 0.930 . S
H485 C473 0.929 . S
H486 C475 0.929 . S
O487 Co462 2.351 . S
O487 C490 1.244 . S
O488 Co462 2.155 . S
O488 C490 1.240 . S
O489 Co462 2.096 . S
O489 C470 1.247 . S
C490 O487 1.244 . S
C490 O488 1.240 . S
H491 C465 0.931 . S
H492 C474 0.931 . S
H493 C478 0.929 . S
H494 C480 0.930 . S
Co495 N499 2.148 . S
Co495 N505 2.128 . S
Co495 N515 2.194 . S
Co495 O520 2.351 . S
Co495 O521 2.155 . S
Co495 O522 2.096 . S
C496 N499 1.301 . S
C496 N500 1.328 . S
C496 H501 0.930 . S
C497 C498 1.333 . S
C497 N499 1.317 . S
C497 H502 0.930 . S
C498 C497 1.333 . S
C498 N500 1.350 . S
C498 H524 0.931 . S
N499 Co495 2.148 . S
N499 C496 1.301 . S
N499 C497 1.317 . S
N500 C496 1.328 . S
N500 C498 1.350 . S
H501 C496 0.930 . S
H502 C497 0.930 . S
C503 O504 1.224 . S
C503 O522 1.247 . S
O504 C503 1.224 . S
N505 Co495 2.128 . S
N505 C506 1.355 . S
N505 C508 1.311 . S
C506 N505 1.355 . S
C506 C507 1.363 . S
C506 H518 0.929 . S
C507 C506 1.363 . S
C507 N509 1.375 . S
C507 H525 0.931 . S
C508 N505 1.311 . S
C508 N509 1.347 . S
C508 H519 0.929 . S
N509 C507 1.375 . S
N509 C508 1.347 . S
C510 C513 1.365 . S
C510 N515 1.328 . S
C510 H516 0.929 . S
C511 C512 1.362 . S
C511 C514 1.378 . S
C511 H526 0.929 . S
C512 C511 1.362 . S
C512 C513 1.366 . S
C513 C510 1.365 . S
C513 C512 1.366 . S
C513 H527 0.930 . S
C514 C511 1.378 . S
C514 N515 1.315 . S
C514 H517 0.930 . S
N515 Co495 2.194 . S
N515 C510 1.328 . S
N515 C514 1.315 . S
H516 C510 0.929 . S
H517 C514 0.930 . S
H518 C506 0.929 . S
H519 C508 0.929 . S
O520 Co495 2.351 . S
O520 C523 1.244 . S
O521 Co495 2.155 . S
O521 C523 1.240 . S
O522 Co495 2.096 . S
O522 C503 1.247 . S
C523 O520 1.244 . S
C523 O521 1.240 . S
H524 C498 0.931 . S
H525 C507 0.931 . S
H526 C511 0.929 . S
H527 C513 0.930 . S
H528 C546 0.951 . S
H529 C548 0.951 . S
H530 C550 0.950 . S
H531 C551 0.950 . S
H532 C553 0.950 . S
H533 C556 0.950 . S
H534 C557 0.950 . S
H535 C559 0.950 . S
H536 C560 0.950 . S
H537 C561 0.951 . S
H538 C563 0.951 . S
H539 C565 0.950 . S
H540 C566 0.950 . S
H541 C568 0.950 . S
H542 C571 0.950 . S
H543 C572 0.950 . S
H544 C574 0.950 1_655 S
H545 C575 0.950 . S
C546 H528 0.951 . S
C546 C547 1.366 . S
C546 C548 1.388 . S
C547 C546 1.366 . S
C547 C551 1.385 . S
C548 H529 0.951 . S
C548 C546 1.388 . S
C548 C549 1.366 . S
C549 C548 1.366 . S
C549 C550 1.414 . S
C549 C552 1.499 . S
C550 H530 0.950 . S
C550 C549 1.414 . S
C550 C551 1.374 . S
C551 H531 0.950 . S
C551 C547 1.385 . S
C551 C550 1.374 . S
C552 C549 1.499 . S
C552 C553 1.373 . S
C552 C554 1.389 . S
C553 H532 0.950 . S
C553 C552 1.373 . S
C553 C569 1.377 1_556 S
C554 C552 1.389 . S
C554 C555 1.524 . S
C554 C568 1.377 1_556 S
C555 C554 1.524 . S
C555 C556 1.397 . S
C555 C560 1.363 . S
C556 H533 0.950 . S
C556 C555 1.397 . S
C556 C557 1.334 . S
C557 H534 0.950 . S
C557 C556 1.334 . S
C557 C558 1.287 . S
C558 C557 1.287 . S
C558 C559 1.524 . S
C558 H577 0.913 . S
C559 H535 0.950 . S
C559 C558 1.524 . S
C559 C560 1.415 . S
C560 H536 0.950 . S
C560 C555 1.363 . S
C560 C559 1.415 . S
C561 H537 0.951 . S
C561 C562 1.366 . S
C561 C563 1.388 . S
C562 C561 1.366 . S
C562 C566 1.385 . S
C563 H538 0.951 . S
C563 C561 1.388 . S
C563 C564 1.366 . S
C564 C563 1.366 . S
C564 C565 1.414 . S
C564 C567 1.499 . S
C565 H539 0.950 . S
C565 C564 1.414 . S
C565 C566 1.374 . S
C566 H540 0.950 . S
C566 C562 1.385 . S
C566 C565 1.374 . S
C567 C564 1.499 . S
C567 C568 1.373 . S
C567 C569 1.389 . S
C568 H541 0.950 . S
C568 C554 1.377 1_554 S
C568 C567 1.373 . S
C569 C553 1.377 1_554 S
C569 C567 1.389 . S
C569 C570 1.524 . S
C570 C569 1.524 . S
C570 C571 1.397 . S
C570 C575 1.363 . S
C571 H542 0.950 . S
C571 C570 1.397 . S
C571 C572 1.334 . S
C572 H543 0.950 . S
C572 C571 1.334 . S
C572 C573 1.287 . S
C573 C572 1.287 . S
C573 C574 1.524 . S
C573 H576 0.999 . S
C574 H544 0.950 1_455 S
C574 C573 1.524 . S
C574 C575 1.415 . S
C575 H545 0.950 . S
C575 C570 1.363 . S
C575 C574 1.415 . S
H576 C573 0.999 . S
H577 C558 0.913 . S
H578 C596 0.951 . S
H579 C598 0.951 . S
H580 C600 0.950 . S
H581 C601 0.950 . S
H582 C603 0.950 . S
H583 C606 0.950 . S
H584 C607 0.950 . S
H585 C609 0.950 . S
H586 C610 0.950 . S
H587 C611 0.951 . S
H588 C613 0.951 . S
H589 C615 0.950 . S
H590 C616 0.950 . S
H591 C618 0.950 . S
H592 C621 0.950 . S
H593 C622 0.950 . S
H594 C624 0.950 . S
H595 C625 0.950 . S
C596 H578 0.951 . S
C596 C597 1.366 . S
C596 C598 1.388 . S
C597 C596 1.366 . S
C597 C601 1.385 . S
C598 H579 0.951 . S
C598 C596 1.388 . S
C598 C599 1.366 . S
C599 C598 1.366 . S
C599 C600 1.414 . S
C599 C602 1.499 . S
C600 H580 0.950 . S
C600 C599 1.414 . S
C600 C601 1.374 . S
C601 H581 0.950 . S
C601 C597 1.385 . S
C601 C600 1.374 . S
C602 C599 1.499 . S
C602 C603 1.373 . S
C602 C604 1.389 . S
C603 H582 0.950 . S
C603 C602 1.373 . S
C603 C619 1.377 1_556 S
C604 C602 1.389 . S
C604 C605 1.524 . S
C604 C618 1.377 1_556 S
C605 C604 1.524 . S
C605 C606 1.397 . S
C605 C610 1.363 . S
C606 H583 0.950 . S
C606 C605 1.397 . S
C606 C607 1.334 . S
C607 H584 0.950 . S
C607 C606 1.334 . S
C607 C608 1.287 . S
C608 C607 1.287 . S
C608 C609 1.524 . S
C608 H627 0.913 . S
C609 H585 0.950 . S
C609 C608 1.524 . S
C609 C610 1.415 . S
C610 H586 0.950 . S
C610 C605 1.363 . S
C610 C609 1.415 . S
C611 H587 0.951 . S
C611 C612 1.366 . S
C611 C613 1.388 . S
C612 C611 1.366 . S
C612 C616 1.385 . S
C613 H588 0.951 . S
C613 C611 1.388 . S
C613 C614 1.366 . S
C614 C613 1.366 . S
C614 C615 1.414 . S
C614 C617 1.499 . S
C615 H589 0.950 . S
C615 C614 1.414 . S
C615 C616 1.374 . S
C616 H590 0.950 . S
C616 C612 1.385 . S
C616 C615 1.374 . S
C617 C614 1.499 . S
C617 C618 1.373 . S
C617 C619 1.389 . S
C618 H591 0.950 . S
C618 C604 1.377 1_554 S
C618 C617 1.373 . S
C619 C603 1.377 1_554 S
C619 C617 1.389 . S
C619 C620 1.524 . S
C620 C619 1.524 . S
C620 C621 1.397 . S
C620 C625 1.363 . S
C621 H592 0.950 . S
C621 C620 1.397 . S
C621 C622 1.334 . S
C622 H593 0.950 . S
C622 C621 1.334 . S
C622 C623 1.287 . S
C623 C622 1.287 . S
C623 C624 1.524 . S
C623 H626 0.999 1_545 S
C624 H594 0.950 . S
C624 C623 1.524 . S
C624 C625 1.415 . S
C625 H595 0.950 . S
C625 C620 1.363 . S
C625 C624 1.415 . S
H626 C623 0.999 1_565 S
H627 C608 0.913 . S
H628 C646 0.951 . S
H629 C648 0.951 . S
H630 C650 0.950 . S
H631 C651 0.950 . S
H632 C653 0.950 . S
H633 C656 0.950 . S
H634 C657 0.950 . S
H635 C659 0.950 . S
H636 C660 0.950 . S
H637 C661 0.951 . S
H638 C663 0.951 . S
H639 C665 0.950 . S
H640 C666 0.950 . S
H641 C668 0.950 . S
H642 C671 0.950 . S
H643 C672 0.950 . S
H644 C674 0.950 . S
H645 C675 0.950 . S
C646 H628 0.951 . S
C646 C647 1.366 . S
C646 C648 1.388 . S
C647 C646 1.366 . S
C647 C651 1.385 . S
C648 H629 0.951 . S
C648 C646 1.388 . S
C648 C649 1.366 . S
C649 C648 1.366 . S
C649 C650 1.414 . S
C649 C652 1.499 . S
C650 H630 0.950 . S
C650 C649 1.414 . S
C650 C651 1.374 . S
C651 H631 0.950 . S
C651 C647 1.385 . S
C651 C650 1.374 . S
C652 C649 1.499 . S
C652 C653 1.373 . S
C652 C654 1.389 . S
C653 H632 0.950 . S
C653 C652 1.373 . S
C653 C669 1.377 1_556 S
C654 C652 1.389 . S
C654 C655 1.524 . S
C654 C668 1.377 1_556 S
C655 C654 1.524 . S
C655 C656 1.397 . S
C655 C660 1.363 . S
C656 H633 0.950 . S
C656 C655 1.397 . S
C656 C657 1.334 . S
C657 H634 0.950 . S
C657 C656 1.334 . S
C657 C658 1.287 . S
C658 C657 1.287 . S
C658 C659 1.524 . S
C658 H677 0.913 . S
C659 H635 0.950 . S
C659 C658 1.524 . S
C659 C660 1.415 . S
C660 H636 0.950 . S
C660 C655 1.363 . S
C660 C659 1.415 . S
C661 H637 0.951 . S
C661 C662 1.366 . S
C661 C663 1.388 . S
C662 C661 1.366 . S
C662 C666 1.385 . S
C663 H638 0.951 . S
C663 C661 1.388 . S
C663 C664 1.366 . S
C664 C663 1.366 . S
C664 C665 1.414 . S
C664 C667 1.499 . S
C665 H639 0.950 . S
C665 C664 1.414 . S
C665 C666 1.374 . S
C666 H640 0.950 . S
C666 C662 1.385 . S
C666 C665 1.374 . S
C667 C664 1.499 . S
C667 C668 1.373 . S
C667 C669 1.389 . S
C668 H641 0.950 . S
C668 C654 1.377 1_554 S
C668 C667 1.373 . S
C669 C653 1.377 1_554 S
C669 C667 1.389 . S
C669 C670 1.524 . S
C670 C669 1.524 . S
C670 C671 1.397 . S
C670 C675 1.363 . S
C671 H642 0.950 . S
C671 C670 1.397 . S
C671 C672 1.334 . S
C672 H643 0.950 . S
C672 C671 1.334 . S
C672 C673 1.287 . S
C673 C672 1.287 . S
C673 C674 1.524 . S
C673 H676 0.999 . S
C674 H644 0.950 . S
C674 C673 1.524 . S
C674 C675 1.415 . S
C675 H645 0.950 . S
C675 C670 1.363 . S
C675 C674 1.415 . S
H676 C673 0.999 . S
H677 C658 0.913 . S
H678 C696 0.951 . S
H679 C698 0.951 . S
H680 C700 0.950 . S
H681 C701 0.950 . S
H682 C703 0.950 . S
H683 C706 0.950 . S
H684 C707 0.950 . S
H685 C709 0.950 1_545 S
H686 C710 0.950 . S
H687 C711 0.951 . S
H688 C713 0.951 . S
H689 C715 0.950 . S
H690 C716 0.950 . S
H691 C718 0.950 . S
H692 C721 0.950 . S
H693 C722 0.950 . S
H694 C724 0.950 . S
H695 C725 0.950 . S
C696 H678 0.951 . S
C696 C697 1.366 . S
C696 C698 1.388 . S
C697 C696 1.366 . S
C697 C701 1.385 . S
C698 H679 0.951 . S
C698 C696 1.388 . S
C698 C699 1.366 . S
C699 C698 1.366 . S
C699 C700 1.414 . S
C699 C702 1.499 . S
C700 H680 0.950 . S
C700 C699 1.414 . S
C700 C701 1.374 . S
C701 H681 0.950 . S
C701 C697 1.385 . S
C701 C700 1.374 . S
C702 C699 1.499 . S
C702 C703 1.373 . S
C702 C704 1.389 . S
C703 H682 0.950 . S
C703 C702 1.373 . S
C703 C719 1.377 1_556 S
C704 C702 1.389 . S
C704 C705 1.524 . S
C704 C718 1.377 1_556 S
C705 C704 1.524 . S
C705 C706 1.397 . S
C705 C710 1.363 . S
C706 H683 0.950 . S
C706 C705 1.397 . S
C706 C707 1.334 . S
C707 H684 0.950 . S
C707 C706 1.334 . S
C707 C708 1.287 . S
C708 C707 1.287 . S
C708 C709 1.524 . S
C708 H727 0.913 . S
C709 H685 0.950 1_565 S
C709 C708 1.524 . S
C709 C710 1.415 . S
C710 H686 0.950 . S
C710 C705 1.363 . S
C710 C709 1.415 . S
C711 H687 0.951 . S
C711 C712 1.366 . S
C711 C713 1.388 . S
C712 C711 1.366 . S
C712 C716 1.385 . S
C713 H688 0.951 . S
C713 C711 1.388 . S
C713 C714 1.366 . S
C714 C713 1.366 . S
C714 C715 1.414 . S
C714 C717 1.499 . S
C715 H689 0.950 . S
C715 C714 1.414 . S
C715 C716 1.374 . S
C716 H690 0.950 . S
C716 C712 1.385 . S
C716 C715 1.374 . S
C717 C714 1.499 . S
C717 C718 1.373 . S
C717 C719 1.389 . S
C718 H691 0.950 . S
C718 C704 1.377 1_554 S
C718 C717 1.373 . S
C719 C703 1.377 1_554 S
C719 C717 1.389 . S
C719 C720 1.524 . S
C720 C719 1.524 . S
C720 C721 1.397 . S
C720 C725 1.363 . S
C721 H692 0.950 . S
C721 C720 1.397 . S
C721 C722 1.334 . S
C722 H693 0.950 . S
C722 C721 1.334 . S
C722 C723 1.287 . S
C723 C722 1.287 . S
C723 C724 1.524 . S
C723 H726 0.999 . S
C724 H694 0.950 . S
C724 C723 1.524 . S
C724 C725 1.415 . S
C725 H695 0.950 . S
C725 C720 1.363 . S
C725 C724 1.415 . S
H726 C723 0.999 . S
H727 C708 0.913 . S
H728 C746 0.951 . S
H729 C748 0.951 . S
H730 C750 0.950 . S
H731 C751 0.950 . S
H732 C753 0.950 . S
H733 C756 0.950 . S
H734 C757 0.950 . S
H735 C759 0.950 . S
H736 C760 0.950 . S
H737 C761 0.951 . S
H738 C763 0.951 . S
H739 C765 0.950 . S
H740 C766 0.950 . S
H741 C768 0.950 . S
H742 C771 0.950 . S
H743 C772 0.950 . S
H744 C774 0.950 . S
H745 C775 0.950 . S
C746 H728 0.951 . S
C746 C747 1.366 . S
C746 C748 1.388 . S
C747 C746 1.366 . S
C747 C751 1.385 . S
C748 H729 0.951 . S
C748 C746 1.388 . S
C748 C749 1.366 . S
C749 C748 1.366 . S
C749 C750 1.414 . S
C749 C752 1.499 . S
C750 H730 0.950 . S
C750 C749 1.414 . S
C750 C751 1.374 . S
C751 H731 0.950 . S
C751 C747 1.385 . S
C751 C750 1.374 . S
C752 C749 1.499 . S
C752 C753 1.373 . S
C752 C754 1.389 . S
C753 H732 0.950 . S
C753 C752 1.373 . S
C753 C769 1.377 . S
C754 C752 1.389 . S
C754 C755 1.524 . S
C754 C768 1.377 . S
C755 C754 1.524 . S
C755 C756 1.397 . S
C755 C760 1.363 . S
C756 H733 0.950 . S
C756 C755 1.397 . S
C756 C757 1.334 . S
C757 H734 0.950 . S
C757 C756 1.334 . S
C757 C758 1.287 . S
C758 C757 1.287 . S
C758 C759 1.524 . S
C758 H777 0.913 . S
C759 H735 0.950 . S
C759 C758 1.524 . S
C759 C760 1.415 . S
C760 H736 0.950 . S
C760 C755 1.363 . S
C760 C759 1.415 . S
C761 H737 0.951 . S
C761 C762 1.366 . S
C761 C763 1.388 . S
C762 C761 1.366 . S
C762 C766 1.385 . S
C763 H738 0.951 . S
C763 C761 1.388 . S
C763 C764 1.366 . S
C764 C763 1.366 . S
C764 C765 1.414 . S
C764 C767 1.499 . S
C765 H739 0.950 . S
C765 C764 1.414 . S
C765 C766 1.374 . S
C766 H740 0.950 . S
C766 C762 1.385 . S
C766 C765 1.374 . S
C767 C764 1.499 . S
C767 C768 1.373 . S
C767 C769 1.389 . S
C768 H741 0.950 . S
C768 C754 1.377 . S
C768 C767 1.373 . S
C769 C753 1.377 . S
C769 C767 1.389 . S
C769 C770 1.524 . S
C770 C769 1.524 . S
C770 C771 1.397 . S
C770 C775 1.363 . S
C771 H742 0.950 . S
C771 C770 1.397 . S
C771 C772 1.334 . S
C772 H743 0.950 . S
C772 C771 1.334 . S
C772 C773 1.287 . S
C773 C772 1.287 . S
C773 C774 1.524 . S
C773 H776 0.999 . S
C774 H744 0.950 . S
C774 C773 1.524 . S
C774 C775 1.415 . S
C775 H745 0.950 . S
C775 C770 1.363 . S
C775 C774 1.415 . S
H776 C773 0.999 . S
H777 C758 0.913 . S
H778 C796 0.951 . S
H779 C798 0.951 . S
H780 C800 0.950 . S
H781 C801 0.950 . S
H782 C803 0.950 . S
H783 C806 0.950 . S
H784 C807 0.950 . S
H785 C809 0.950 . S
H786 C810 0.950 . S
H787 C811 0.951 . S
H788 C813 0.951 . S
H789 C815 0.950 . S
H790 C816 0.950 . S
H791 C818 0.950 . S
H792 C821 0.950 . S
H793 C822 0.950 . S
H794 C824 0.950 . S
H795 C825 0.950 . S
C796 H778 0.951 . S
C796 C797 1.366 . S
C796 C798 1.388 . S
C797 C796 1.366 . S
C797 C801 1.385 . S
C798 H779 0.951 . S
C798 C796 1.388 . S
C798 C799 1.366 . S
C799 C798 1.366 . S
C799 C800 1.414 . S
C799 C802 1.499 . S
C800 H780 0.950 . S
C800 C799 1.414 . S
C800 C801 1.374 . S
C801 H781 0.950 . S
C801 C797 1.385 . S
C801 C800 1.374 . S
C802 C799 1.499 . S
C802 C803 1.373 . S
C802 C804 1.389 . S
C803 H782 0.950 . S
C803 C802 1.373 . S
C803 C819 1.377 . S
C804 C802 1.389 . S
C804 C805 1.524 . S
C804 C818 1.377 . S
C805 C804 1.524 . S
C805 C806 1.397 . S
C805 C810 1.363 . S
C806 H783 0.950 . S
C806 C805 1.397 . S
C806 C807 1.334 . S
C807 H784 0.950 . S
C807 C806 1.334 . S
C807 C808 1.287 . S
C808 C807 1.287 . S
C808 C809 1.524 . S
C808 H827 0.913 . S
C809 H785 0.950 . S
C809 C808 1.524 . S
C809 C810 1.415 . S
C810 H786 0.950 . S
C810 C805 1.363 . S
C810 C809 1.415 . S
C811 H787 0.951 . S
C811 C812 1.366 . S
C811 C813 1.388 . S
C812 C811 1.366 . S
C812 C816 1.385 . S
C813 H788 0.951 . S
C813 C811 1.388 . S
C813 C814 1.366 . S
C814 C813 1.366 . S
C814 C815 1.414 . S
C814 C817 1.499 . S
C815 H789 0.950 . S
C815 C814 1.414 . S
C815 C816 1.374 . S
C816 H790 0.950 . S
C816 C812 1.385 . S
C816 C815 1.374 . S
C817 C814 1.499 . S
C817 C818 1.373 . S
C817 C819 1.389 . S
C818 H791 0.950 . S
C818 C804 1.377 . S
C818 C817 1.373 . S
C819 C803 1.377 . S
C819 C817 1.389 . S
C819 C820 1.524 . S
C820 C819 1.524 . S
C820 C821 1.397 . S
C820 C825 1.363 . S
C821 H792 0.950 . S
C821 C820 1.397 . S
C821 C822 1.334 . S
C822 H793 0.950 . S
C822 C821 1.334 . S
C822 C823 1.287 . S
C823 C822 1.287 . S
C823 C824 1.524 . S
C823 H826 0.999 . S
C824 H794 0.950 . S
C824 C823 1.524 . S
C824 C825 1.415 . S
C825 H795 0.950 . S
C825 C820 1.363 . S
C825 C824 1.415 . S
H826 C823 0.999 . S
H827 C808 0.913 . S
H828 C846 0.951 . S
H829 C848 0.951 . S
H830 C850 0.950 . S
H831 C851 0.950 . S
H832 C853 0.950 . S
H833 C856 0.950 . S
H834 C857 0.950 . S
H835 C859 0.950 . S
H836 C860 0.950 . S
H837 C861 0.951 . S
H838 C863 0.951 . S
H839 C865 0.950 . S
H840 C866 0.950 . S
H841 C868 0.950 . S
H842 C871 0.950 . S
H843 C872 0.950 . S
H844 C874 0.950 . S
H845 C875 0.950 . S
C846 H828 0.951 . S
C846 C847 1.366 . S
C846 C848 1.388 . S
C847 C846 1.366 . S
C847 C851 1.385 . S
C848 H829 0.951 . S
C848 C846 1.388 . S
C848 C849 1.366 . S
C849 C848 1.366 . S
C849 C850 1.414 . S
C849 C852 1.499 . S
C850 H830 0.950 . S
C850 C849 1.414 . S
C850 C851 1.374 . S
C851 H831 0.950 . S
C851 C847 1.385 . S
C851 C850 1.374 . S
C852 C849 1.499 . S
C852 C853 1.373 . S
C852 C854 1.389 . S
C853 H832 0.950 . S
C853 C852 1.373 . S
C853 C869 1.377 . S
C854 C852 1.389 . S
C854 C855 1.524 . S
C854 C868 1.377 . S
C855 C854 1.524 . S
C855 C856 1.397 . S
C855 C860 1.363 . S
C856 H833 0.950 . S
C856 C855 1.397 . S
C856 C857 1.334 . S
C857 H834 0.950 . S
C857 C856 1.334 . S
C857 C858 1.287 . S
C858 C857 1.287 . S
C858 C859 1.524 . S
C858 H877 0.913 . S
C859 H835 0.950 . S
C859 C858 1.524 . S
C859 C860 1.415 . S
C860 H836 0.950 . S
C860 C855 1.363 . S
C860 C859 1.415 . S
C861 H837 0.951 . S
C861 C862 1.366 . S
C861 C863 1.388 . S
C862 C861 1.366 . S
C862 C866 1.385 . S
C863 H838 0.951 . S
C863 C861 1.388 . S
C863 C864 1.366 . S
C864 C863 1.366 . S
C864 C865 1.414 . S
C864 C867 1.499 . S
C865 H839 0.950 . S
C865 C864 1.414 . S
C865 C866 1.374 . S
C866 H840 0.950 . S
C866 C862 1.385 . S
C866 C865 1.374 . S
C867 C864 1.499 . S
C867 C868 1.373 . S
C867 C869 1.389 . S
C868 H841 0.950 . S
C868 C854 1.377 . S
C868 C867 1.373 . S
C869 C853 1.377 . S
C869 C867 1.389 . S
C869 C870 1.524 . S
C870 C869 1.524 . S
C870 C871 1.397 . S
C870 C875 1.363 . S
C871 H842 0.950 . S
C871 C870 1.397 . S
C871 C872 1.334 . S
C872 H843 0.950 . S
C872 C871 1.334 . S
C872 C873 1.287 . S
C873 C872 1.287 . S
C873 C874 1.524 . S
C873 H876 0.999 . S
C874 H844 0.950 . S
C874 C873 1.524 . S
C874 C875 1.415 . S
C875 H845 0.950 . S
C875 C870 1.363 . S
C875 C874 1.415 . S
H876 C873 0.999 . S
H877 C858 0.913 . S
H878 C896 0.951 . S
H879 C898 0.951 . S
H880 C900 0.950 . S
H881 C901 0.950 . S
H882 C903 0.950 . S
H883 C906 0.950 . S
H884 C907 0.950 . S
H885 C909 0.950 . S
H886 C910 0.950 . S
H887 C911 0.951 . S
H888 C913 0.951 . S
H889 C915 0.950 . S
H890 C916 0.950 . S
H891 C918 0.950 . S
H892 C921 0.950 . S
H893 C922 0.950 . S
H894 C924 0.950 . S
H895 C925 0.950 . S
C896 H878 0.951 . S
C896 C897 1.366 . S
C896 C898 1.388 . S
C897 C896 1.366 . S
C897 C901 1.385 . S
C898 H879 0.951 . S
C898 C896 1.388 . S
C898 C899 1.366 . S
C899 C898 1.366 . S
C899 C900 1.414 . S
C899 C902 1.499 . S
C900 H880 0.950 . S
C900 C899 1.414 . S
C900 C901 1.374 . S
C901 H881 0.950 . S
C901 C897 1.385 . S
C901 C900 1.374 . S
C902 C899 1.499 . S
C902 C903 1.373 . S
C902 C904 1.389 . S
C903 H882 0.950 . S
C903 C902 1.373 . S
C903 C919 1.377 . S
C904 C902 1.389 . S
C904 C905 1.524 . S
C904 C918 1.377 . S
C905 C904 1.524 . S
C905 C906 1.397 . S
C905 C910 1.363 . S
C906 H883 0.950 . S
C906 C905 1.397 . S
C906 C907 1.334 . S
C907 H884 0.950 . S
C907 C906 1.334 . S
C907 C908 1.287 . S
C908 C907 1.287 . S
C908 C909 1.524 . S
C908 H927 0.913 . S
C909 H885 0.950 . S
C909 C908 1.524 . S
C909 C910 1.415 . S
C910 H886 0.950 . S
C910 C905 1.363 . S
C910 C909 1.415 . S
C911 H887 0.951 . S
C911 C912 1.366 . S
C911 C913 1.388 . S
C912 C911 1.366 . S
C912 C916 1.385 . S
C913 H888 0.951 . S
C913 C911 1.388 . S
C913 C914 1.366 . S
C914 C913 1.366 . S
C914 C915 1.414 . S
C914 C917 1.499 . S
C915 H889 0.950 . S
C915 C914 1.414 . S
C915 C916 1.374 . S
C916 H890 0.950 . S
C916 C912 1.385 . S
C916 C915 1.374 . S
C917 C914 1.499 . S
C917 C918 1.373 . S
C917 C919 1.389 . S
C918 H891 0.950 . S
C918 C904 1.377 . S
C918 C917 1.373 . S
C919 C903 1.377 . S
C919 C917 1.389 . S
C919 C920 1.524 . S
C920 C919 1.524 . S
C920 C921 1.397 . S
C920 C925 1.363 . S
C921 H892 0.950 . S
C921 C920 1.397 . S
C921 C922 1.334 . S
C922 H893 0.950 . S
C922 C921 1.334 . S
C922 C923 1.287 . S
C923 C922 1.287 . S
C923 C924 1.524 . S
C923 H926 0.999 . S
C924 H894 0.950 . S
C924 C923 1.524 . S
C924 C925 1.415 . S
C925 H895 0.950 . S
C925 C920 1.363 . S
C925 C924 1.415 . S
H926 C923 0.999 . S
H927 C908 0.913 . S
H928 C946 0.951 . S
H929 C948 0.951 . S
H930 C950 0.950 . S
H931 C951 0.950 . S
H932 C953 0.950 . S
H933 C956 0.950 . S
H934 C957 0.950 . S
H935 C959 0.950 . S
H936 C960 0.950 . S
H937 C961 0.951 . S
H938 C963 0.951 . S
H939 C965 0.950 . S
H940 C966 0.950 . S
H941 C968 0.950 . S
H942 C971 0.950 . S
H943 C972 0.950 . S
H944 C974 0.950 . S
H945 C975 0.950 . S
C946 H928 0.951 . S
C946 C947 1.366 . S
C946 C948 1.388 . S
C947 C946 1.366 . S
C947 C951 1.385 . S
C948 H929 0.951 . S
C948 C946 1.388 . S
C948 C949 1.366 . S
C949 C948 1.366 . S
C949 C950 1.414 . S
C949 C952 1.499 . S
C950 H930 0.950 . S
C950 C949 1.414 . S
C950 C951 1.374 . S
C951 H931 0.950 . S
C951 C947 1.385 . S
C951 C950 1.374 . S
C952 C949 1.499 . S
C952 C953 1.373 . S
C952 C954 1.389 . S
C953 H932 0.950 . S
C953 C952 1.373 . S
C953 C969 1.377 . S
C954 C952 1.389 . S
C954 C955 1.524 . S
C954 C968 1.377 . S
C955 C954 1.524 . S
C955 C956 1.397 . S
C955 C960 1.363 . S
C956 H933 0.950 . S
C956 C955 1.397 . S
C956 C957 1.334 . S
C957 H934 0.950 . S
C957 C956 1.334 . S
C957 C958 1.287 . S
C958 C957 1.287 . S
C958 C959 1.524 . S
C958 H977 0.913 . S
C959 H935 0.950 . S
C959 C958 1.524 . S
C959 C960 1.415 . S
C960 H936 0.950 . S
C960 C955 1.363 . S
C960 C959 1.415 . S
C961 H937 0.951 . S
C961 C962 1.366 . S
C961 C963 1.388 . S
C962 C961 1.366 . S
C962 C966 1.385 . S
C963 H938 0.951 . S
C963 C961 1.388 . S
C963 C964 1.366 . S
C964 C963 1.366 . S
C964 C965 1.414 . S
C964 C967 1.499 . S
C965 H939 0.950 . S
C965 C964 1.414 . S
C965 C966 1.374 . S
C966 H940 0.950 . S
C966 C962 1.385 . S
C966 C965 1.374 . S
C967 C964 1.499 . S
C967 C968 1.373 . S
C967 C969 1.389 . S
C968 H941 0.950 . S
C968 C954 1.377 . S
C968 C967 1.373 . S
C969 C953 1.377 . S
C969 C967 1.389 . S
C969 C970 1.524 . S
C970 C969 1.524 . S
C970 C971 1.397 . S
C970 C975 1.363 . S
C971 H942 0.950 . S
C971 C970 1.397 . S
C971 C972 1.334 . S
C972 H943 0.950 . S
C972 C971 1.334 . S
C972 C973 1.287 . S
C973 C972 1.287 . S
C973 C974 1.524 . S
C973 H976 0.999 . S
C974 H944 0.950 . S
C974 C973 1.524 . S
C974 C975 1.415 . S
C975 H945 0.950 . S
C975 C970 1.363 . S
C975 C974 1.415 . S
H976 C973 0.999 . S
H977 C958 0.913 . S
H978 C996 0.951 . S
H979 C998 0.951 . S
H980 C1000 0.950 . S
H981 C1001 0.950 . S
H982 C1003 0.950 . S
H983 C1006 0.950 . S
H984 C1007 0.950 . S
H985 C1009 0.950 . S
H986 C1010 0.950 . S
H987 C1011 0.951 . S
H988 C1013 0.951 . S
H989 C1015 0.950 . S
H990 C1016 0.950 . S
H991 C1018 0.950 . S
H992 C1021 0.950 . S
H993 C1022 0.950 . S
H994 C1024 0.950 . S
H995 C1025 0.950 . S
C996 H978 0.951 . S
C996 C997 1.366 . S
C996 C998 1.388 . S
C997 C996 1.366 . S
C997 C1001 1.385 . S
C998 H979 0.951 . S
C998 C996 1.388 . S
C998 C999 1.366 . S
C999 C998 1.366 . S
C999 C1000 1.414 . S
C999 C1002 1.499 . S
C1000 H980 0.950 . S
C1000 C999 1.414 . S
C1000 C1001 1.374 . S
C1001 H981 0.950 . S
C1001 C997 1.385 . S
C1001 C1000 1.374 . S
C1002 C999 1.499 . S
C1002 C1003 1.373 . S
C1002 C1004 1.389 . S
C1003 H982 0.950 . S
C1003 C1002 1.373 . S
C1003 C1019 1.377 . S
C1004 C1002 1.389 . S
C1004 C1005 1.524 . S
C1004 C1018 1.377 . S
C1005 C1004 1.524 . S
C1005 C1006 1.397 . S
C1005 C1010 1.363 . S
C1006 H983 0.950 . S
C1006 C1005 1.397 . S
C1006 C1007 1.334 . S
C1007 H984 0.950 . S
C1007 C1006 1.334 . S
C1007 C1008 1.287 . S
C1008 C1007 1.287 . S
C1008 C1009 1.524 . S
C1008 H1027 0.913 . S
C1009 H985 0.950 . S
C1009 C1008 1.524 . S
C1009 C1010 1.415 . S
C1010 H986 0.950 . S
C1010 C1005 1.363 . S
C1010 C1009 1.415 . S
C1011 H987 0.951 . S
C1011 C1012 1.366 . S
C1011 C1013 1.388 . S
C1012 C1011 1.366 . S
C1012 C1016 1.385 . S
C1013 H988 0.951 . S
C1013 C1011 1.388 . S
C1013 C1014 1.366 . S
C1014 C1013 1.366 . S
C1014 C1015 1.414 . S
C1014 C1017 1.499 . S
C1015 H989 0.950 . S
C1015 C1014 1.414 . S
C1015 C1016 1.374 . S
C1016 H990 0.950 . S
C1016 C1012 1.385 . S
C1016 C1015 1.374 . S
C1017 C1014 1.499 . S
C1017 C1018 1.373 . S
C1017 C1019 1.389 . S
C1018 H991 0.950 . S
C1018 C1004 1.377 . S
C1018 C1017 1.373 . S
C1019 C1003 1.377 . S
C1019 C1017 1.389 . S
C1019 C1020 1.524 . S
C1020 C1019 1.524 . S
C1020 C1021 1.397 . S
C1020 C1025 1.363 . S
C1021 H992 0.950 . S
C1021 C1020 1.397 . S
C1021 C1022 1.334 . S
C1022 H993 0.950 . S
C1022 C1021 1.334 . S
C1022 C1023 1.287 . S
C1023 C1022 1.287 . S
C1023 C1024 1.524 . S
C1023 H1026 0.999 . S
C1024 H994 0.950 . S
C1024 C1023 1.524 . S
C1024 C1025 1.415 . S
C1025 H995 0.950 . S
C1025 C1020 1.363 . S
C1025 C1024 1.415 . S
H1026 C1023 0.999 . S
H1027 C1008 0.913 . S
H1028 C1046 0.951 . S
H1029 C1048 0.951 . S
H1030 C1050 0.950 . S
H1031 C1051 0.950 . S
H1032 C1053 0.950 . S
H1033 C1056 0.950 . S
H1034 C1057 0.950 . S
H1035 C1059 0.950 . S
H1036 C1060 0.950 . S
H1037 C1061 0.951 . S
H1038 C1063 0.951 . S
H1039 C1065 0.950 . S
H1040 C1066 0.950 . S
H1041 C1068 0.950 . S
H1042 C1071 0.950 . S
H1043 C1072 0.950 . S
H1044 C1074 0.950 . S
H1045 C1075 0.950 . S
C1046 H1028 0.951 . S
C1046 C1047 1.366 . S
C1046 C1048 1.388 . S
C1047 C1046 1.366 . S
C1047 C1051 1.385 . S
C1048 H1029 0.951 . S
C1048 C1046 1.388 . S
C1048 C1049 1.366 . S
C1049 C1048 1.366 . S
C1049 C1050 1.414 . S
C1049 C1052 1.499 . S
C1050 H1030 0.950 . S
C1050 C1049 1.414 . S
C1050 C1051 1.374 . S
C1051 H1031 0.950 . S
C1051 C1047 1.385 . S
C1051 C1050 1.374 . S
C1052 C1049 1.499 . S
C1052 C1053 1.373 . S
C1052 C1054 1.389 . S
C1053 H1032 0.950 . S
C1053 C1052 1.373 . S
C1053 C1069 1.377 . S
C1054 C1052 1.389 . S
C1054 C1055 1.524 . S
C1054 C1068 1.377 . S
C1055 C1054 1.524 . S
C1055 C1056 1.397 . S
C1055 C1060 1.363 . S
C1056 H1033 0.950 . S
C1056 C1055 1.397 . S
C1056 C1057 1.334 . S
C1057 H1034 0.950 . S
C1057 C1056 1.334 . S
C1057 C1058 1.287 . S
C1058 C1057 1.287 . S
C1058 C1059 1.524 . S
C1058 H1077 0.913 . S
C1059 H1035 0.950 . S
C1059 C1058 1.524 . S
C1059 C1060 1.415 . S
C1060 H1036 0.950 . S
C1060 C1055 1.363 . S
C1060 C1059 1.415 . S
C1061 H1037 0.951 . S
C1061 C1062 1.366 . S
C1061 C1063 1.388 . S
C1062 C1061 1.366 . S
C1062 C1066 1.385 . S
C1063 H1038 0.951 . S
C1063 C1061 1.388 . S
C1063 C1064 1.366 . S
C1064 C1063 1.366 . S
C1064 C1065 1.414 . S
C1064 C1067 1.499 . S
C1065 H1039 0.950 . S
C1065 C1064 1.414 . S
C1065 C1066 1.374 . S
C1066 H1040 0.950 . S
C1066 C1062 1.385 . S
C1066 C1065 1.374 . S
C1067 C1064 1.499 . S
C1067 C1068 1.373 . S
C1067 C1069 1.389 . S
C1068 H1041 0.950 . S
C1068 C1054 1.377 . S
C1068 C1067 1.373 . S
C1069 C1053 1.377 . S
C1069 C1067 1.389 . S
C1069 C1070 1.524 . S
C1070 C1069 1.524 . S
C1070 C1071 1.397 . S
C1070 C1075 1.363 . S
C1071 H1042 0.950 . S
C1071 C1070 1.397 . S
C1071 C1072 1.334 . S
C1072 H1043 0.950 . S
C1072 C1071 1.334 . S
C1072 C1073 1.287 . S
C1073 C1072 1.287 . S
C1073 C1074 1.524 . S
C1073 H1076 0.999 . S
C1074 H1044 0.950 . S
C1074 C1073 1.524 . S
C1074 C1075 1.415 . S
C1075 H1045 0.950 . S
C1075 C1070 1.363 . S
C1075 C1074 1.415 . S
H1076 C1073 0.999 . S
H1077 C1058 0.913 . S
H1078 C1096 0.951 . S
H1079 C1098 0.951 . S
H1080 C1100 0.950 . S
H1081 C1101 0.950 . S
H1082 C1103 0.950 . S
H1083 C1106 0.950 . S
H1084 C1107 0.950 . S
H1085 C1109 0.950 . S
H1086 C1110 0.950 . S
H1087 C1111 0.951 . S
H1088 C1113 0.951 . S
H1089 C1115 0.950 . S
H1090 C1116 0.950 . S
H1091 C1118 0.950 . S
H1092 C1121 0.950 . S
H1093 C1122 0.950 . S
H1094 C1124 0.950 . S
H1095 C1125 0.950 . S
C1096 H1078 0.951 . S
C1096 C1097 1.366 . S
C1096 C1098 1.388 . S
C1097 C1096 1.366 . S
C1097 C1101 1.385 . S
C1098 H1079 0.951 . S
C1098 C1096 1.388 . S
C1098 C1099 1.366 . S
C1099 C1098 1.366 . S
C1099 C1100 1.414 . S
C1099 C1102 1.499 . S
C1100 H1080 0.950 . S
C1100 C1099 1.414 . S
C1100 C1101 1.374 . S
C1101 H1081 0.950 . S
C1101 C1097 1.385 . S
C1101 C1100 1.374 . S
C1102 C1099 1.499 . S
C1102 C1103 1.373 . S
C1102 C1104 1.389 . S
C1103 H1082 0.950 . S
C1103 C1102 1.373 . S
C1103 C1119 1.377 . S
C1104 C1102 1.389 . S
C1104 C1105 1.524 . S
C1104 C1118 1.377 . S
C1105 C1104 1.524 . S
C1105 C1106 1.397 . S
C1105 C1110 1.363 . S
C1106 H1083 0.950 . S
C1106 C1105 1.397 . S
C1106 C1107 1.334 . S
C1107 H1084 0.950 . S
C1107 C1106 1.334 . S
C1107 C1108 1.287 . S
C1108 C1107 1.287 . S
C1108 C1109 1.524 . S
C1108 H1127 0.913 . S
C1109 H1085 0.950 . S
C1109 C1108 1.524 . S
C1109 C1110 1.415 . S
C1110 H1086 0.950 . S
C1110 C1105 1.363 . S
C1110 C1109 1.415 . S
C1111 H1087 0.951 . S
C1111 C1112 1.366 . S
C1111 C1113 1.388 . S
C1112 C1111 1.366 . S
C1112 C1116 1.385 . S
C1113 H1088 0.951 . S
C1113 C1111 1.388 . S
C1113 C1114 1.366 . S
C1114 C1113 1.366 . S
C1114 C1115 1.414 . S
C1114 C1117 1.499 . S
C1115 H1089 0.950 . S
C1115 C1114 1.414 . S
C1115 C1116 1.374 . S
C1116 H1090 0.950 . S
C1116 C1112 1.385 . S
C1116 C1115 1.374 . S
C1117 C1114 1.499 . S
C1117 C1118 1.373 . S
C1117 C1119 1.389 . S
C1118 H1091 0.950 . S
C1118 C1104 1.377 . S
C1118 C1117 1.373 . S
C1119 C1103 1.377 . S
C1119 C1117 1.389 . S
C1119 C1120 1.524 . S
C1120 C1119 1.524 . S
C1120 C1121 1.397 . S
C1120 C1125 1.363 . S
C1121 H1092 0.950 . S
C1121 C1120 1.397 . S
C1121 C1122 1.334 . S
C1122 H1093 0.950 . S
C1122 C1121 1.334 . S
C1122 C1123 1.287 . S
C1123 C1122 1.287 . S
C1123 C1124 1.524 . S
C1123 H1126 0.999 . S
C1124 H1094 0.950 . S
C1124 C1123 1.524 . S
C1124 C1125 1.415 . S
C1125 H1095 0.950 . S
C1125 C1120 1.363 . S
C1125 C1124 1.415 . S
H1126 C1123 0.999 . S
H1127 C1108 0.913 . S
H1128 C1146 0.951 . S
H1129 C1148 0.951 . S
H1130 C1150 0.950 . S
H1131 C1151 0.950 . S
H1132 C1153 0.950 . S
H1133 C1156 0.950 . S
H1134 C1157 0.950 . S
H1135 C1159 0.950 . S
H1136 C1160 0.950 . S
H1137 C1161 0.951 . S
H1138 C1163 0.951 . S
H1139 C1165 0.950 . S
H1140 C1166 0.950 . S
H1141 C1168 0.950 . S
H1142 C1171 0.950 . S
H1143 C1172 0.950 . S
H1144 C1174 0.950 . S
H1145 C1175 0.950 . S
C1146 H1128 0.951 . S
C1146 C1147 1.366 . S
C1146 C1148 1.388 . S
C1147 C1146 1.366 . S
C1147 C1151 1.385 . S
C1148 H1129 0.951 . S
C1148 C1146 1.388 . S
C1148 C1149 1.366 . S
C1149 C1148 1.366 . S
C1149 C1150 1.414 . S
C1149 C1152 1.499 . S
C1150 H1130 0.950 . S
C1150 C1149 1.414 . S
C1150 C1151 1.374 . S
C1151 H1131 0.950 . S
C1151 C1147 1.385 . S
C1151 C1150 1.374 . S
C1152 C1149 1.499 . S
C1152 C1153 1.373 . S
C1152 C1154 1.389 . S
C1153 H1132 0.950 . S
C1153 C1152 1.373 . S
C1153 C1169 1.377 . S
C1154 C1152 1.389 . S
C1154 C1155 1.524 . S
C1154 C1168 1.377 . S
C1155 C1154 1.524 . S
C1155 C1156 1.397 . S
C1155 C1160 1.363 . S
C1156 H1133 0.950 . S
C1156 C1155 1.397 . S
C1156 C1157 1.334 . S
C1157 H1134 0.950 . S
C1157 C1156 1.334 . S
C1157 C1158 1.287 . S
C1158 C1157 1.287 . S
C1158 C1159 1.524 . S
C1158 H1177 0.913 . S
C1159 H1135 0.950 . S
C1159 C1158 1.524 . S
C1159 C1160 1.415 . S
C1160 H1136 0.950 . S
C1160 C1155 1.363 . S
C1160 C1159 1.415 . S
C1161 H1137 0.951 . S
C1161 C1162 1.366 . S
C1161 C1163 1.388 . S
C1162 C1161 1.366 . S
C1162 C1166 1.385 . S
C1163 H1138 0.951 . S
C1163 C1161 1.388 . S
C1163 C1164 1.366 . S
C1164 C1163 1.366 . S
C1164 C1165 1.414 . S
C1164 C1167 1.499 . S
C1165 H1139 0.950 . S
C1165 C1164 1.414 . S
C1165 C1166 1.374 . S
C1166 H1140 0.950 . S
C1166 C1162 1.385 . S
C1166 C1165 1.374 . S
C1167 C1164 1.499 . S
C1167 C1168 1.373 . S
C1167 C1169 1.389 . S
C1168 H1141 0.950 . S
C1168 C1154 1.377 . S
C1168 C1167 1.373 . S
C1169 C1153 1.377 . S
C1169 C1167 1.389 . S
C1169 C1170 1.524 . S
C1170 C1169 1.524 . S
C1170 C1171 1.397 . S
C1170 C1175 1.363 . S
C1171 H1142 0.950 . S
C1171 C1170 1.397 . S
C1171 C1172 1.334 . S
C1172 H1143 0.950 . S
C1172 C1171 1.334 . S
C1172 C1173 1.287 . S
C1173 C1172 1.287 . S
C1173 C1174 1.524 . S
C1173 H1176 0.999 . S
C1174 H1144 0.950 . S
C1174 C1173 1.524 . S
C1174 C1175 1.415 . S
C1175 H1145 0.950 . S
C1175 C1170 1.363 . S
C1175 C1174 1.415 . S
H1176 C1173 0.999 . S
H1177 C1158 0.913 . S
H1178 C1196 0.951 . S
H1179 C1198 0.951 . S
H1180 C1200 0.950 . S
H1181 C1201 0.950 . S
H1182 C1203 0.950 . S
H1183 C1206 0.950 . S
H1184 C1207 0.950 . S
H1185 C1209 0.950 . S
H1186 C1210 0.950 . S
H1187 C1211 0.951 . S
H1188 C1213 0.951 . S
H1189 C1215 0.950 . S
H1190 C1216 0.950 . S
H1191 C1218 0.950 . S
H1192 C1221 0.950 . S
H1193 C1222 0.950 . S
H1194 C1224 0.950 . S
H1195 C1225 0.950 . S
C1196 H1178 0.951 . S
C1196 C1197 1.366 . S
C1196 C1198 1.388 . S
C1197 C1196 1.366 . S
C1197 C1201 1.385 . S
C1198 H1179 0.951 . S
C1198 C1196 1.388 . S
C1198 C1199 1.366 . S
C1199 C1198 1.366 . S
C1199 C1200 1.414 . S
C1199 C1202 1.499 . S
C1200 H1180 0.950 . S
C1200 C1199 1.414 . S
C1200 C1201 1.374 . S
C1201 H1181 0.950 . S
C1201 C1197 1.385 . S
C1201 C1200 1.374 . S
C1202 C1199 1.499 . S
C1202 C1203 1.373 . S
C1202 C1204 1.389 . S
C1203 H1182 0.950 . S
C1203 C1202 1.373 . S
C1203 C1219 1.377 . S
C1204 C1202 1.389 . S
C1204 C1205 1.524 . S
C1204 C1218 1.377 . S
C1205 C1204 1.524 . S
C1205 C1206 1.397 . S
C1205 C1210 1.363 . S
C1206 H1183 0.950 . S
C1206 C1205 1.397 . S
C1206 C1207 1.334 . S
C1207 H1184 0.950 . S
C1207 C1206 1.334 . S
C1207 C1208 1.287 . S
C1208 C1207 1.287 . S
C1208 C1209 1.524 . S
C1208 H1227 0.913 . S
C1209 H1185 0.950 . S
C1209 C1208 1.524 . S
C1209 C1210 1.415 . S
C1210 H1186 0.950 . S
C1210 C1205 1.363 . S
C1210 C1209 1.415 . S
C1211 H1187 0.951 . S
C1211 C1212 1.366 . S
C1211 C1213 1.388 . S
C1212 C1211 1.366 . S
C1212 C1216 1.385 . S
C1213 H1188 0.951 . S
C1213 C1211 1.388 . S
C1213 C1214 1.366 . S
C1214 C1213 1.366 . S
C1214 C1215 1.414 . S
C1214 C1217 1.499 . S
C1215 H1189 0.950 . S
C1215 C1214 1.414 . S
C1215 C1216 1.374 . S
C1216 H1190 0.950 . S
C1216 C1212 1.385 . S
C1216 C1215 1.374 . S
C1217 C1214 1.499 . S
C1217 C1218 1.373 . S
C1217 C1219 1.389 . S
C1218 H1191 0.950 . S
C1218 C1204 1.377 . S
C1218 C1217 1.373 . S
C1219 C1203 1.377 . S
C1219 C1217 1.389 . S
C1219 C1220 1.524 . S
C1220 C1219 1.524 . S
C1220 C1221 1.397 . S
C1220 C1225 1.363 . S
C1221 H1192 0.950 . S
C1221 C1220 1.397 . S
C1221 C1222 1.334 . S
C1222 H1193 0.950 . S
C1222 C1221 1.334 . S
C1222 C1223 1.287 . S
C1223 C1222 1.287 . S
C1223 C1224 1.524 . S
C1223 H1226 0.999 . S
C1224 H1194 0.950 . S
C1224 C1223 1.524 . S
C1224 C1225 1.415 . S
C1225 H1195 0.950 . S
C1225 C1220 1.363 . S
C1225 C1224 1.415 . S
H1226 C1223 0.999 . S
H1227 C1208 0.913 . S
H1228 C1246 0.951 . S
H1229 C1248 0.951 . S
H1230 C1250 0.950 . S
H1231 C1251 0.950 . S
H1232 C1253 0.950 . S
H1233 C1256 0.950 . S
H1234 C1257 0.950 . S
H1235 C1259 0.950 . S
H1236 C1260 0.950 . S
H1237 C1261 0.951 . S
H1238 C1263 0.951 . S
H1239 C1265 0.950 . S
H1240 C1266 0.950 . S
H1241 C1268 0.950 . S
H1242 C1271 0.950 . S
H1243 C1272 0.950 . S
H1244 C1274 0.950 . S
H1245 C1275 0.950 . S
C1246 H1228 0.951 . S
C1246 C1247 1.366 . S
C1246 C1248 1.388 . S
C1247 C1246 1.366 . S
C1247 C1251 1.385 . S
C1248 H1229 0.951 . S
C1248 C1246 1.388 . S
C1248 C1249 1.366 . S
C1249 C1248 1.366 . S
C1249 C1250 1.414 . S
C1249 C1252 1.499 . S
C1250 H1230 0.950 . S
C1250 C1249 1.414 . S
C1250 C1251 1.374 . S
C1251 H1231 0.950 . S
C1251 C1247 1.385 . S
C1251 C1250 1.374 . S
C1252 C1249 1.499 . S
C1252 C1253 1.373 . S
C1252 C1254 1.389 . S
C1253 H1232 0.950 . S
C1253 C1252 1.373 . S
C1253 C1269 1.377 . S
C1254 C1252 1.389 . S
C1254 C1255 1.524 . S
C1254 C1268 1.377 . S
C1255 C1254 1.524 . S
C1255 C1256 1.397 . S
C1255 C1260 1.363 . S
C1256 H1233 0.950 . S
C1256 C1255 1.397 . S
C1256 C1257 1.334 . S
C1257 H1234 0.950 . S
C1257 C1256 1.334 . S
C1257 C1258 1.287 . S
C1258 C1257 1.287 . S
C1258 C1259 1.524 . S
C1258 H1277 0.913 . S
C1259 H1235 0.950 . S
C1259 C1258 1.524 . S
C1259 C1260 1.415 . S
C1260 H1236 0.950 . S
C1260 C1255 1.363 . S
C1260 C1259 1.415 . S
C1261 H1237 0.951 . S
C1261 C1262 1.366 . S
C1261 C1263 1.388 . S
C1262 C1261 1.366 . S
C1262 C1266 1.385 . S
C1263 H1238 0.951 . S
C1263 C1261 1.388 . S
C1263 C1264 1.366 . S
C1264 C1263 1.366 . S
C1264 C1265 1.414 . S
C1264 C1267 1.499 . S
C1265 H1239 0.950 . S
C1265 C1264 1.414 . S
C1265 C1266 1.374 . S
C1266 H1240 0.950 . S
C1266 C1262 1.385 . S
C1266 C1265 1.374 . S
C1267 C1264 1.499 . S
C1267 C1268 1.373 . S
C1267 C1269 1.389 . S
C1268 H1241 0.950 . S
C1268 C1254 1.377 . S
C1268 C1267 1.373 . S
C1269 C1253 1.377 . S
C1269 C1267 1.389 . S
C1269 C1270 1.524 . S
C1270 C1269 1.524 . S
C1270 C1271 1.397 . S
C1270 C1275 1.363 . S
C1271 H1242 0.950 . S
C1271 C1270 1.397 . S
C1271 C1272 1.334 . S
C1272 H1243 0.950 . S
C1272 C1271 1.334 . S
C1272 C1273 1.287 . S
C1273 C1272 1.287 . S
C1273 C1274 1.524 . S
C1273 H1276 0.999 . S
C1274 H1244 0.950 . S
C1274 C1273 1.524 . S
C1274 C1275 1.415 . S
C1275 H1245 0.950 . S
C1275 C1270 1.363 . S
C1275 C1274 1.415 . S
H1276 C1273 0.999 . S
H1277 C1258 0.913 . S
H1278 C1296 0.951 . S
H1279 C1298 0.951 . S
H1280 C1300 0.950 . S
H1281 C1301 0.950 . S
H1282 C1303 0.950 . S
H1283 C1306 0.950 . S
H1284 C1307 0.950 . S
H1285 C1309 0.950 . S
H1286 C1310 0.950 . S
H1287 C1311 0.951 . S
H1288 C1313 0.951 . S
H1289 C1315 0.950 . S
H1290 C1316 0.950 . S
H1291 C1318 0.950 . S
H1292 C1321 0.950 . S
H1293 C1322 0.950 . S
H1294 C1324 0.950 . S
H1295 C1325 0.950 . S
C1296 H1278 0.951 . S
C1296 C1297 1.366 . S
C1296 C1298 1.388 . S
C1297 C1296 1.366 . S
C1297 C1301 1.385 . S
C1298 H1279 0.951 . S
C1298 C1296 1.388 . S
C1298 C1299 1.366 . S
C1299 C1298 1.366 . S
C1299 C1300 1.414 . S
C1299 C1302 1.499 . S
C1300 H1280 0.950 . S
C1300 C1299 1.414 . S
C1300 C1301 1.374 . S
C1301 H1281 0.950 . S
C1301 C1297 1.385 . S
C1301 C1300 1.374 . S
C1302 C1299 1.499 . S
C1302 C1303 1.373 . S
C1302 C1304 1.389 . S
C1303 H1282 0.950 . S
C1303 C1302 1.373 . S
C1303 C1319 1.377 . S
C1304 C1302 1.389 . S
C1304 C1305 1.524 . S
C1304 C1318 1.377 . S
C1305 C1304 1.524 . S
C1305 C1306 1.397 . S
C1305 C1310 1.363 . S
C1306 H1283 0.950 . S
C1306 C1305 1.397 . S
C1306 C1307 1.334 . S
C1307 H1284 0.950 . S
C1307 C1306 1.334 . S
C1307 C1308 1.287 . S
C1308 C1307 1.287 . S
C1308 C1309 1.524 . S
C1308 H1327 0.913 . S
C1309 H1285 0.950 . S
C1309 C1308 1.524 . S
C1309 C1310 1.415 . S
C1310 H1286 0.950 . S
C1310 C1305 1.363 . S
C1310 C1309 1.415 . S
C1311 H1287 0.951 . S
C1311 C1312 1.366 . S
C1311 C1313 1.388 . S
C1312 C1311 1.366 . S
C1312 C1316 1.385 . S
C1313 H1288 0.951 . S
C1313 C1311 1.388 . S
C1313 C1314 1.366 . S
C1314 C1313 1.366 . S
C1314 C1315 1.414 . S
C1314 C1317 1.499 . S
C1315 H1289 0.950 . S
C1315 C1314 1.414 . S
C1315 C1316 1.374 . S
C1316 H1290 0.950 . S
C1316 C1312 1.385 . S
C1316 C1315 1.374 . S
C1317 C1314 1.499 . S
C1317 C1318 1.373 . S
C1317 C1319 1.389 . S
C1318 H1291 0.950 . S
C1318 C1304 1.377 . S
C1318 C1317 1.373 . S
C1319 C1303 1.377 . S
C1319 C1317 1.389 . S
C1319 C1320 1.524 . S
C1320 C1319 1.524 . S
C1320 C1321 1.397 . S
C1320 C1325 1.363 . S
C1321 H1292 0.950 . S
C1321 C1320 1.397 . S
C1321 C1322 1.334 . S
C1322 H1293 0.950 . S
C1322 C1321 1.334 . S
C1322 C1323 1.287 . S
C1323 C1322 1.287 . S
C1323 C1324 1.524 . S
C1323 H1326 0.999 . S
C1324 H1294 0.950 . S
C1324 C1323 1.524 . S
C1324 C1325 1.415 . S
C1325 H1295 0.950 . S
C1325 C1320 1.363 . S
C1325 C1324 1.415 . S
H1326 C1323 0.999 . S
H1327 C1308 0.913 . S
H1328 C1346 0.951 . S
H1329 C1348 0.951 . S
H1330 C1350 0.950 . S
H1331 C1351 0.950 . S
H1332 C1353 0.950 . S
H1333 C1356 0.950 . S
H1334 C1357 0.950 . S
H1335 C1359 0.950 . S
H1336 C1360 0.950 . S
H1337 C1361 0.951 . S
H1338 C1363 0.951 . S
H1339 C1365 0.950 . S
H1340 C1366 0.950 . S
H1341 C1368 0.950 . S
H1342 C1371 0.950 . S
H1343 C1372 0.950 . S
H1344 C1374 0.950 . S
H1345 C1375 0.950 . S
C1346 H1328 0.951 . S
C1346 C1347 1.366 . S
C1346 C1348 1.388 . S
C1347 C1346 1.366 . S
C1347 C1351 1.385 . S
C1348 H1329 0.951 . S
C1348 C1346 1.388 . S
C1348 C1349 1.366 . S
C1349 C1348 1.366 . S
C1349 C1350 1.414 . S
C1349 C1352 1.499 . S
C1350 H1330 0.950 . S
C1350 C1349 1.414 . S
C1350 C1351 1.374 . S
C1351 H1331 0.950 . S
C1351 C1347 1.385 . S
C1351 C1350 1.374 . S
C1352 C1349 1.499 . S
C1352 C1353 1.373 . S
C1352 C1354 1.389 . S
C1353 H1332 0.950 . S
C1353 C1352 1.373 . S
C1353 C1369 1.377 . S
C1354 C1352 1.389 . S
C1354 C1355 1.524 . S
C1354 C1368 1.377 . S
C1355 C1354 1.524 . S
C1355 C1356 1.397 . S
C1355 C1360 1.363 . S
C1356 H1333 0.950 . S
C1356 C1355 1.397 . S
C1356 C1357 1.334 . S
C1357 H1334 0.950 . S
C1357 C1356 1.334 . S
C1357 C1358 1.287 . S
C1358 C1357 1.287 . S
C1358 C1359 1.524 . S
C1358 H1377 0.913 . S
C1359 H1335 0.950 . S
C1359 C1358 1.524 . S
C1359 C1360 1.415 . S
C1360 H1336 0.950 . S
C1360 C1355 1.363 . S
C1360 C1359 1.415 . S
C1361 H1337 0.951 . S
C1361 C1362 1.366 . S
C1361 C1363 1.388 . S
C1362 C1361 1.366 . S
C1362 C1366 1.385 . S
C1363 H1338 0.951 . S
C1363 C1361 1.388 . S
C1363 C1364 1.366 . S
C1364 C1363 1.366 . S
C1364 C1365 1.414 . S
C1364 C1367 1.499 . S
C1365 H1339 0.950 . S
C1365 C1364 1.414 . S
C1365 C1366 1.374 . S
C1366 H1340 0.950 . S
C1366 C1362 1.385 . S
C1366 C1365 1.374 . S
C1367 C1364 1.499 . S
C1367 C1368 1.373 . S
C1367 C1369 1.389 . S
C1368 H1341 0.950 . S
C1368 C1354 1.377 . S
C1368 C1367 1.373 . S
C1369 C1353 1.377 . S
C1369 C1367 1.389 . S
C1369 C1370 1.524 . S
C1370 C1369 1.524 . S
C1370 C1371 1.397 . S
C1370 C1375 1.363 . S
C1371 H1342 0.950 . S
C1371 C1370 1.397 . S
C1371 C1372 1.334 . S
C1372 H1343 0.950 . S
C1372 C1371 1.334 . S
C1372 C1373 1.287 . S
C1373 C1372 1.287 . S
C1373 C1374 1.524 . S
C1373 H1376 0.999 . S
C1374 H1344 0.950 . S
C1374 C1373 1.524 . S
C1374 C1375 1.415 . S
C1375 H1345 0.950 . S
C1375 C1370 1.363 . S
C1375 C1374 1.415 . S
H1376 C1373 0.999 . S
H1377 C1358 0.913 . S
H1378 C1396 0.951 . S
H1379 C1398 0.951 . S
H1380 C1400 0.950 . S
H1381 C1401 0.950 . S
H1382 C1403 0.950 . S
H1383 C1406 0.950 . S
H1384 C1407 0.950 . S
H1385 C1409 0.950 . S
H1386 C1410 0.950 . S
H1387 C1411 0.951 . S
H1388 C1413 0.951 . S
H1389 C1415 0.950 . S
H1390 C1416 0.950 . S
H1391 C1418 0.950 . S
H1392 C1421 0.950 . S
H1393 C1422 0.950 . S
H1394 C1424 0.950 . S
H1395 C1425 0.950 . S
C1396 H1378 0.951 . S
C1396 C1397 1.366 . S
C1396 C1398 1.388 . S
C1397 C1396 1.366 . S
C1397 C1401 1.385 . S
C1398 H1379 0.951 . S
C1398 C1396 1.388 . S
C1398 C1399 1.366 . S
C1399 C1398 1.366 . S
C1399 C1400 1.414 . S
C1399 C1402 1.499 . S
C1400 H1380 0.950 . S
C1400 C1399 1.414 . S
C1400 C1401 1.374 . S
C1401 H1381 0.950 . S
C1401 C1397 1.385 . S
C1401 C1400 1.374 . S
C1402 C1399 1.499 . S
C1402 C1403 1.373 . S
C1402 C1404 1.389 . S
C1403 H1382 0.950 . S
C1403 C1402 1.373 . S
C1403 C1419 1.377 . S
C1404 C1402 1.389 . S
C1404 C1405 1.524 . S
C1404 C1418 1.377 . S
C1405 C1404 1.524 . S
C1405 C1406 1.397 . S
C1405 C1410 1.363 . S
C1406 H1383 0.950 . S
C1406 C1405 1.397 . S
C1406 C1407 1.334 . S
C1407 H1384 0.950 . S
C1407 C1406 1.334 . S
C1407 C1408 1.287 . S
C1408 C1407 1.287 . S
C1408 C1409 1.524 . S
C1408 H1427 0.913 . S
C1409 H1385 0.950 . S
C1409 C1408 1.524 . S
C1409 C1410 1.415 . S
C1410 H1386 0.950 . S
C1410 C1405 1.363 . S
C1410 C1409 1.415 . S
C1411 H1387 0.951 . S
C1411 C1412 1.366 . S
C1411 C1413 1.388 . S
C1412 C1411 1.366 . S
C1412 C1416 1.385 . S
C1413 H1388 0.951 . S
C1413 C1411 1.388 . S
C1413 C1414 1.366 . S
C1414 C1413 1.366 . S
C1414 C1415 1.414 . S
C1414 C1417 1.499 . S
C1415 H1389 0.950 . S
C1415 C1414 1.414 . S
C1415 C1416 1.374 . S
C1416 H1390 0.950 . S
C1416 C1412 1.385 . S
C1416 C1415 1.374 . S
C1417 C1414 1.499 . S
C1417 C1418 1.373 . S
C1417 C1419 1.389 . S
C1418 H1391 0.950 . S
C1418 C1404 1.377 . S
C1418 C1417 1.373 . S
C1419 C1403 1.377 . S
C1419 C1417 1.389 . S
C1419 C1420 1.524 . S
C1420 C1419 1.524 . S
C1420 C1421 1.397 . S
C1420 C1425 1.363 . S
C1421 H1392 0.950 . S
C1421 C1420 1.397 . S
C1421 C1422 1.334 . S
C1422 H1393 0.950 . S
C1422 C1421 1.334 . S
C1422 C1423 1.287 . S
C1423 C1422 1.287 . S
C1423 C1424 1.524 . S
C1423 H1426 0.999 . S
C1424 H1394 0.950 . S
C1424 C1423 1.524 . S
C1424 C1425 1.415 . S
C1425 H1395 0.950 . S
C1425 C1420 1.363 . S
C1425 C1424 1.415 . S
H1426 C1423 0.999 . S
H1427 C1408 0.913 . S
H1428 C1446 0.951 . S
H1429 C1448 0.951 . S
H1430 C1450 0.950 . S
H1431 C1451 0.950 . S
H1432 C1453 0.950 . S
H1433 C1456 0.950 . S
H1434 C1457 0.950 . S
H1435 C1459 0.950 . S
H1436 C1460 0.950 . S
H1437 C1461 0.951 . S
H1438 C1463 0.951 . S
H1439 C1465 0.950 . S
H1440 C1466 0.950 . S
H1441 C1468 0.950 . S
H1442 C1471 0.950 . S
H1443 C1472 0.950 . S
H1444 C1474 0.950 . S
H1445 C1475 0.950 . S
C1446 H1428 0.951 . S
C1446 C1447 1.366 . S
C1446 C1448 1.388 . S
C1447 C1446 1.366 . S
C1447 C1451 1.385 . S
C1448 H1429 0.951 . S
C1448 C1446 1.388 . S
C1448 C1449 1.366 . S
C1449 C1448 1.366 . S
C1449 C1450 1.414 . S
C1449 C1452 1.499 . S
C1450 H1430 0.950 . S
C1450 C1449 1.414 . S
C1450 C1451 1.374 . S
C1451 H1431 0.950 . S
C1451 C1447 1.385 . S
C1451 C1450 1.374 . S
C1452 C1449 1.499 . S
C1452 C1453 1.373 . S
C1452 C1454 1.389 . S
C1453 H1432 0.950 . S
C1453 C1452 1.373 . S
C1453 C1469 1.377 . S
C1454 C1452 1.389 . S
C1454 C1455 1.524 . S
C1454 C1468 1.377 . S
C1455 C1454 1.524 . S
C1455 C1456 1.397 . S
C1455 C1460 1.363 . S
C1456 H1433 0.950 . S
C1456 C1455 1.397 . S
C1456 C1457 1.334 . S
C1457 H1434 0.950 . S
C1457 C1456 1.334 . S
C1457 C1458 1.287 . S
C1458 C1457 1.287 . S
C1458 C1459 1.524 . S
C1458 H1477 0.913 . S
C1459 H1435 0.950 . S
C1459 C1458 1.524 . S
C1459 C1460 1.415 . S
C1460 H1436 0.950 . S
C1460 C1455 1.363 . S
C1460 C1459 1.415 . S
C1461 H1437 0.951 . S
C1461 C1462 1.366 . S
C1461 C1463 1.388 . S
C1462 C1461 1.366 . S
C1462 C1466 1.385 . S
C1463 H1438 0.951 . S
C1463 C1461 1.388 . S
C1463 C1464 1.366 . S
C1464 C1463 1.366 . S
C1464 C1465 1.414 . S
C1464 C1467 1.499 . S
C1465 H1439 0.950 . S
C1465 C1464 1.414 . S
C1465 C1466 1.374 . S
C1466 H1440 0.950 . S
C1466 C1462 1.385 . S
C1466 C1465 1.374 . S
C1467 C1464 1.499 . S
C1467 C1468 1.373 . S
C1467 C1469 1.389 . S
C1468 H1441 0.950 . S
C1468 C1454 1.377 . S
C1468 C1467 1.373 . S
C1469 C1453 1.377 . S
C1469 C1467 1.389 . S
C1469 C1470 1.524 . S
C1470 C1469 1.524 . S
C1470 C1471 1.397 . S
C1470 C1475 1.363 . S
C1471 H1442 0.950 . S
C1471 C1470 1.397 . S
C1471 C1472 1.334 . S
C1472 H1443 0.950 . S
C1472 C1471 1.334 . S
C1472 C1473 1.287 . S
C1473 C1472 1.287 . S
C1473 C1474 1.524 . S
C1473 H1476 0.999 . S
C1474 H1444 0.950 . S
C1474 C1473 1.524 . S
C1474 C1475 1.415 . S
C1475 H1445 0.950 . S
C1475 C1470 1.363 . S
C1475 C1474 1.415 . S
H1476 C1473 0.999 . S
H1477 C1458 0.913 . S
H1478 C1496 0.951 . S
H1479 C1498 0.951 . S
H1480 C1500 0.950 . S
H1481 C1501 0.950 . S
H1482 C1503 0.950 . S
H1483 C1506 0.950 . S
H1484 C1507 0.950 . S
H1485 C1509 0.950 . S
H1486 C1510 0.950 . S
H1487 C1511 0.951 . S
H1488 C1513 0.951 . S
H1489 C1515 0.950 . S
H1490 C1516 0.950 . S
H1491 C1518 0.950 . S
H1492 C1521 0.950 . S
H1493 C1522 0.950 . S
H1494 C1524 0.950 . S
H1495 C1525 0.950 . S
C1496 H1478 0.951 . S
C1496 C1497 1.366 . S
C1496 C1498 1.388 . S
C1497 C1496 1.366 . S
C1497 C1501 1.385 . S
C1498 H1479 0.951 . S
C1498 C1496 1.388 . S
C1498 C1499 1.366 . S
C1499 C1498 1.366 . S
C1499 C1500 1.414 . S
C1499 C1502 1.499 . S
C1500 H1480 0.950 . S
C1500 C1499 1.414 . S
C1500 C1501 1.374 . S
C1501 H1481 0.950 . S
C1501 C1497 1.385 . S
C1501 C1500 1.374 . S
C1502 C1499 1.499 . S
C1502 C1503 1.373 . S
C1502 C1504 1.389 . S
C1503 H1482 0.950 . S
C1503 C1502 1.373 . S
C1503 C1519 1.377 . S
C1504 C1502 1.389 . S
C1504 C1505 1.524 . S
C1504 C1518 1.377 . S
C1505 C1504 1.524 . S
C1505 C1506 1.397 . S
C1505 C1510 1.363 . S
C1506 H1483 0.950 . S
C1506 C1505 1.397 . S
C1506 C1507 1.334 . S
C1507 H1484 0.950 . S
C1507 C1506 1.334 . S
C1507 C1508 1.287 . S
C1508 C1507 1.287 . S
C1508 C1509 1.524 . S
C1508 H1527 0.913 . S
C1509 H1485 0.950 . S
C1509 C1508 1.524 . S
C1509 C1510 1.415 . S
C1510 H1486 0.950 . S
C1510 C1505 1.363 . S
C1510 C1509 1.415 . S
C1511 H1487 0.951 . S
C1511 C1512 1.366 . S
C1511 C1513 1.388 . S
C1512 C1511 1.366 . S
C1512 C1516 1.385 . S
C1513 H1488 0.951 . S
C1513 C1511 1.388 . S
C1513 C1514 1.366 . S
C1514 C1513 1.366 . S
C1514 C1515 1.414 . S
C1514 C1517 1.499 . S
C1515 H1489 0.950 . S
C1515 C1514 1.414 . S
C1515 C1516 1.374 . S
C1516 H1490 0.950 . S
C1516 C1512 1.385 . S
C1516 C1515 1.374 . S
C1517 C1514 1.499 . S
C1517 C1518 1.373 . S
C1517 C1519 1.389 . S
C1518 H1491 0.950 . S
C1518 C1504 1.377 . S
C1518 C1517 1.373 . S
C1519 C1503 1.377 . S
C1519 C1517 1.389 . S
C1519 C1520 1.524 . S
C1520 C1519 1.524 . S
C1520 C1521 1.397 . S
C1520 C1525 1.363 . S
C1521 H1492 0.950 . S
C1521 C1520 1.397 . S
C1521 C1522 1.334 . S
C1522 H1493 0.950 . S
C1522 C1521 1.334 . S
C1522 C1523 1.287 . S
C1523 C1522 1.287 . S
C1523 C1524 1.524 . S
C1523 H1526 0.999 . S
C1524 H1494 0.950 . S
C1524 C1523 1.524 . S
C1524 C1525 1.415 . S
C1525 H1495 0.950 . S
C1525 C1520 1.363 . S
C1525 C1524 1.415 . S
H1526 C1523 0.999 . S
H1527 C1508 0.913 . S
H1528 C1546 0.951 . S
H1529 C1548 0.951 . S
H1530 C1550 0.950 . S
H1531 C1551 0.950 . S
H1532 C1553 0.950 . S
H1533 C1556 0.950 . S
H1534 C1557 0.950 . S
H1535 C1559 0.950 . S
H1536 C1560 0.950 . S
H1537 C1561 0.951 . S
H1538 C1563 0.951 . S
H1539 C1565 0.950 . S
H1540 C1566 0.950 . S
H1541 C1568 0.950 . S
H1542 C1571 0.950 . S
H1543 C1572 0.950 . S
H1544 C1574 0.950 . S
H1545 C1575 0.950 . S
C1546 H1528 0.951 . S
C1546 C1547 1.366 . S
C1546 C1548 1.388 . S
C1547 C1546 1.366 . S
C1547 C1551 1.385 . S
C1548 H1529 0.951 . S
C1548 C1546 1.388 . S
C1548 C1549 1.366 . S
C1549 C1548 1.366 . S
C1549 C1550 1.414 . S
C1549 C1552 1.499 . S
C1550 H1530 0.950 . S
C1550 C1549 1.414 . S
C1550 C1551 1.374 . S
C1551 H1531 0.950 . S
C1551 C1547 1.385 . S
C1551 C1550 1.374 . S
C1552 C1549 1.499 . S
C1552 C1553 1.373 . S
C1552 C1554 1.389 . S
C1553 H1532 0.950 . S
C1553 C1552 1.373 . S
C1553 C1569 1.377 . S
C1554 C1552 1.389 . S
C1554 C1555 1.524 . S
C1554 C1568 1.377 . S
C1555 C1554 1.524 . S
C1555 C1556 1.397 . S
C1555 C1560 1.363 . S
C1556 H1533 0.950 . S
C1556 C1555 1.397 . S
C1556 C1557 1.334 . S
C1557 H1534 0.950 . S
C1557 C1556 1.334 . S
C1557 C1558 1.287 . S
C1558 C1557 1.287 . S
C1558 C1559 1.524 . S
C1558 H1577 0.913 . S
C1559 H1535 0.950 . S
C1559 C1558 1.524 . S
C1559 C1560 1.415 . S
C1560 H1536 0.950 . S
C1560 C1555 1.363 . S
C1560 C1559 1.415 . S
C1561 H1537 0.951 . S
C1561 C1562 1.366 . S
C1561 C1563 1.388 . S
C1562 C1561 1.366 . S
C1562 C1566 1.385 . S
C1563 H1538 0.951 . S
C1563 C1561 1.388 . S
C1563 C1564 1.366 . S
C1564 C1563 1.366 . S
C1564 C1565 1.414 . S
C1564 C1567 1.499 . S
C1565 H1539 0.950 . S
C1565 C1564 1.414 . S
C1565 C1566 1.374 . S
C1566 H1540 0.950 . S
C1566 C1562 1.385 . S
C1566 C1565 1.374 . S
C1567 C1564 1.499 . S
C1567 C1568 1.373 . S
C1567 C1569 1.389 . S
C1568 H1541 0.950 . S
C1568 C1554 1.377 . S
C1568 C1567 1.373 . S
C1569 C1553 1.377 . S
C1569 C1567 1.389 . S
C1569 C1570 1.524 . S
C1570 C1569 1.524 . S
C1570 C1571 1.397 . S
C1570 C1575 1.363 . S
C1571 H1542 0.950 . S
C1571 C1570 1.397 . S
C1571 C1572 1.334 . S
C1572 H1543 0.950 . S
C1572 C1571 1.334 . S
C1572 C1573 1.287 . S
C1573 C1572 1.287 . S
C1573 C1574 1.524 . S
C1573 H1576 0.999 . S
C1574 H1544 0.950 . S
C1574 C1573 1.524 . S
C1574 C1575 1.415 . S
C1575 H1545 0.950 . S
C1575 C1570 1.363 . S
C1575 C1574 1.415 . S
H1576 C1573 0.999 . S
H1577 C1558 0.913 . S
H1578 C1596 0.951 . S
H1579 C1598 0.951 . S
H1580 C1600 0.950 . S
H1581 C1601 0.950 . S
H1582 C1603 0.950 . S
H1583 C1606 0.950 . S
H1584 C1607 0.950 . S
H1585 C1609 0.950 . S
H1586 C1610 0.950 . S
H1587 C1611 0.951 . S
H1588 C1613 0.951 . S
H1589 C1615 0.950 . S
H1590 C1616 0.950 . S
H1591 C1618 0.950 . S
H1592 C1621 0.950 . S
H1593 C1622 0.950 . S
H1594 C1624 0.950 . S
H1595 C1625 0.950 . S
C1596 H1578 0.951 . S
C1596 C1597 1.366 . S
C1596 C1598 1.388 . S
C1597 C1596 1.366 . S
C1597 C1601 1.385 . S
C1598 H1579 0.951 . S
C1598 C1596 1.388 . S
C1598 C1599 1.366 . S
C1599 C1598 1.366 . S
C1599 C1600 1.414 . S
C1599 C1602 1.499 . S
C1600 H1580 0.950 . S
C1600 C1599 1.414 . S
C1600 C1601 1.374 . S
C1601 H1581 0.950 . S
C1601 C1597 1.385 . S
C1601 C1600 1.374 . S
C1602 C1599 1.499 . S
C1602 C1603 1.373 . S
C1602 C1604 1.389 . S
C1603 H1582 0.950 . S
C1603 C1602 1.373 . S
C1603 C1619 1.377 . S
C1604 C1602 1.389 . S
C1604 C1605 1.524 . S
C1604 C1618 1.377 . S
C1605 C1604 1.524 . S
C1605 C1606 1.397 . S
C1605 C1610 1.363 . S
C1606 H1583 0.950 . S
C1606 C1605 1.397 . S
C1606 C1607 1.334 . S
C1607 H1584 0.950 . S
C1607 C1606 1.334 . S
C1607 C1608 1.287 . S
C1608 C1607 1.287 . S
C1608 C1609 1.524 . S
C1608 H1627 0.913 . S
C1609 H1585 0.950 . S
C1609 C1608 1.524 . S
C1609 C1610 1.415 . S
C1610 H1586 0.950 . S
C1610 C1605 1.363 . S
C1610 C1609 1.415 . S
C1611 H1587 0.951 . S
C1611 C1612 1.366 . S
C1611 C1613 1.388 . S
C1612 C1611 1.366 . S
C1612 C1616 1.385 . S
C1613 H1588 0.951 . S
C1613 C1611 1.388 . S
C1613 C1614 1.366 . S
C1614 C1613 1.366 . S
C1614 C1615 1.414 . S
C1614 C1617 1.499 . S
C1615 H1589 0.950 . S
C1615 C1614 1.414 . S
C1615 C1616 1.374 . S
C1616 H1590 0.950 . S
C1616 C1612 1.385 . S
C1616 C1615 1.374 . S
C1617 C1614 1.499 . S
C1617 C1618 1.373 . S
C1617 C1619 1.389 . S
C1618 H1591 0.950 . S
C1618 C1604 1.377 . S
C1618 C1617 1.373 . S
C1619 C1603 1.377 . S
C1619 C1617 1.389 . S
C1619 C1620 1.524 . S
C1620 C1619 1.524 . S
C1620 C1621 1.397 . S
C1620 C1625 1.363 . S
C1621 H1592 0.950 . S
C1621 C1620 1.397 . S
C1621 C1622 1.334 . S
C1622 H1593 0.950 . S
C1622 C1621 1.334 . S
C1622 C1623 1.287 . S
C1623 C1622 1.287 . S
C1623 C1624 1.524 . S
C1623 H1626 0.999 . S
C1624 H1594 0.950 . S
C1624 C1623 1.524 . S
C1624 C1625 1.415 . S
C1625 H1595 0.950 . S
C1625 C1620 1.363 . S
C1625 C1624 1.415 . S
H1626 C1623 0.999 . S
H1627 C1608 0.913 . S
H1628 C1646 0.951 . S
H1629 C1648 0.951 . S
H1630 C1650 0.950 . S
H1631 C1651 0.950 . S
H1632 C1653 0.950 . S
H1633 C1656 0.950 . S
H1634 C1657 0.950 . S
H1635 C1659 0.950 . S
H1636 C1660 0.950 . S
H1637 C1661 0.951 . S
H1638 C1663 0.951 . S
H1639 C1665 0.950 . S
H1640 C1666 0.950 . S
H1641 C1668 0.950 . S
H1642 C1671 0.950 . S
H1643 C1672 0.950 . S
H1644 C1674 0.950 . S
H1645 C1675 0.950 . S
C1646 H1628 0.951 . S
C1646 C1647 1.366 . S
C1646 C1648 1.388 . S
C1647 C1646 1.366 . S
C1647 C1651 1.385 . S
C1648 H1629 0.951 . S
C1648 C1646 1.388 . S
C1648 C1649 1.366 . S
C1649 C1648 1.366 . S
C1649 C1650 1.414 . S
C1649 C1652 1.499 . S
C1650 H1630 0.950 . S
C1650 C1649 1.414 . S
C1650 C1651 1.374 . S
C1651 H1631 0.950 . S
C1651 C1647 1.385 . S
C1651 C1650 1.374 . S
C1652 C1649 1.499 . S
C1652 C1653 1.373 . S
C1652 C1654 1.389 . S
C1653 H1632 0.950 . S
C1653 C1652 1.373 . S
C1653 C1669 1.377 . S
C1654 C1652 1.389 . S
C1654 C1655 1.524 . S
C1654 C1668 1.377 . S
C1655 C1654 1.524 . S
C1655 C1656 1.397 . S
C1655 C1660 1.363 . S
C1656 H1633 0.950 . S
C1656 C1655 1.397 . S
C1656 C1657 1.334 . S
C1657 H1634 0.950 . S
C1657 C1656 1.334 . S
C1657 C1658 1.287 . S
C1658 C1657 1.287 . S
C1658 C1659 1.524 . S
C1658 H1677 0.913 . S
C1659 H1635 0.950 . S
C1659 C1658 1.524 . S
C1659 C1660 1.415 . S
C1660 H1636 0.950 . S
C1660 C1655 1.363 . S
C1660 C1659 1.415 . S
C1661 H1637 0.951 . S
C1661 C1662 1.366 . S
C1661 C1663 1.388 . S
C1662 C1661 1.366 . S
C1662 C1666 1.385 . S
C1663 H1638 0.951 . S
C1663 C1661 1.388 . S
C1663 C1664 1.366 . S
C1664 C1663 1.366 . S
C1664 C1665 1.414 . S
C1664 C1667 1.499 . S
C1665 H1639 0.950 . S
C1665 C1664 1.414 . S
C1665 C1666 1.374 . S
C1666 H1640 0.950 . S
C1666 C1662 1.385 . S
C1666 C1665 1.374 . S
C1667 C1664 1.499 . S
C1667 C1668 1.373 . S
C1667 C1669 1.389 . S
C1668 H1641 0.950 . S
C1668 C1654 1.377 . S
C1668 C1667 1.373 . S
C1669 C1653 1.377 . S
C1669 C1667 1.389 . S
C1669 C1670 1.524 . S
C1670 C1669 1.524 . S
C1670 C1671 1.397 . S
C1670 C1675 1.363 . S
C1671 H1642 0.950 . S
C1671 C1670 1.397 . S
C1671 C1672 1.334 . S
C1672 H1643 0.950 . S
C1672 C1671 1.334 . S
C1672 C1673 1.287 . S
C1673 C1672 1.287 . S
C1673 C1674 1.524 . S
C1673 H1676 0.999 . S
C1674 H1644 0.950 . S
C1674 C1673 1.524 . S
C1674 C1675 1.415 . S
C1675 H1645 0.950 . S
C1675 C1670 1.363 . S
C1675 C1674 1.415 . S
H1676 C1673 0.999 . S
H1677 C1658 0.913 . S
H1678 C1696 0.951 . S
H1679 C1698 0.951 . S
H1680 C1700 0.950 . S
H1681 C1701 0.950 . S
H1682 C1703 0.950 . S
H1683 C1706 0.950 . S
H1684 C1707 0.950 . S
H1685 C1709 0.950 . S
H1686 C1710 0.950 . S
H1687 C1711 0.951 . S
H1688 C1713 0.951 . S
H1689 C1715 0.950 . S
H1690 C1716 0.950 . S
H1691 C1718 0.950 . S
H1692 C1721 0.950 . S
H1693 C1722 0.950 . S
H1694 C1724 0.950 . S
H1695 C1725 0.950 . S
C1696 H1678 0.951 . S
C1696 C1697 1.366 . S
C1696 C1698 1.388 . S
C1697 C1696 1.366 . S
C1697 C1701 1.385 . S
C1698 H1679 0.951 . S
C1698 C1696 1.388 . S
C1698 C1699 1.366 . S
C1699 C1698 1.366 . S
C1699 C1700 1.414 . S
C1699 C1702 1.499 . S
C1700 H1680 0.950 . S
C1700 C1699 1.414 . S
C1700 C1701 1.374 . S
C1701 H1681 0.950 . S
C1701 C1697 1.385 . S
C1701 C1700 1.374 . S
C1702 C1699 1.499 . S
C1702 C1703 1.373 . S
C1702 C1704 1.389 . S
C1703 H1682 0.950 . S
C1703 C1702 1.373 . S
C1703 C1719 1.377 . S
C1704 C1702 1.389 . S
C1704 C1705 1.524 . S
C1704 C1718 1.377 . S
C1705 C1704 1.524 . S
C1705 C1706 1.397 . S
C1705 C1710 1.363 . S
C1706 H1683 0.950 . S
C1706 C1705 1.397 . S
C1706 C1707 1.334 . S
C1707 H1684 0.950 . S
C1707 C1706 1.334 . S
C1707 C1708 1.287 . S
C1708 C1707 1.287 . S
C1708 C1709 1.524 . S
C1708 H1727 0.913 . S
C1709 H1685 0.950 . S
C1709 C1708 1.524 . S
C1709 C1710 1.415 . S
C1710 H1686 0.950 . S
C1710 C1705 1.363 . S
C1710 C1709 1.415 . S
C1711 H1687 0.951 . S
C1711 C1712 1.366 . S
C1711 C1713 1.388 . S
C1712 C1711 1.366 . S
C1712 C1716 1.385 . S
C1713 H1688 0.951 . S
C1713 C1711 1.388 . S
C1713 C1714 1.366 . S
C1714 C1713 1.366 . S
C1714 C1715 1.414 . S
C1714 C1717 1.499 . S
C1715 H1689 0.950 . S
C1715 C1714 1.414 . S
C1715 C1716 1.374 . S
C1716 H1690 0.950 . S
C1716 C1712 1.385 . S
C1716 C1715 1.374 . S
C1717 C1714 1.499 . S
C1717 C1718 1.373 . S
C1717 C1719 1.389 . S
C1718 H1691 0.950 . S
C1718 C1704 1.377 . S
C1718 C1717 1.373 . S
C1719 C1703 1.377 . S
C1719 C1717 1.389 . S
C1719 C1720 1.524 . S
C1720 C1719 1.524 . S
C1720 C1721 1.397 . S
C1720 C1725 1.363 . S
C1721 H1692 0.950 . S
C1721 C1720 1.397 . S
C1721 C1722 1.334 . S
C1722 H1693 0.950 . S
C1722 C1721 1.334 . S
C1722 C1723 1.287 . S
C1723 C1722 1.287 . S
C1723 C1724 1.524 . S
C1723 H1726 0.999 . S
C1724 H1694 0.950 . S
C1724 C1723 1.524 . S
C1724 C1725 1.415 . S
C1725 H1695 0.950 . S
C1725 C1720 1.363 . S
C1725 C1724 1.415 . S
H1726 C1723 0.999 . S
H1727 C1708 0.913 . S
H1728 C1746 0.951 . S
H1729 C1748 0.951 . S
H1730 C1750 0.950 . S
H1731 C1751 0.950 . S
H1732 C1753 0.950 . S
H1733 C1756 0.950 . S
H1734 C1757 0.950 . S
H1735 C1759 0.950 . S
H1736 C1760 0.950 . S
H1737 C1761 0.951 . S
H1738 C1763 0.951 . S
H1739 C1765 0.950 . S
H1740 C1766 0.950 . S
H1741 C1768 0.950 . S
H1742 C1771 0.950 . S
H1743 C1772 0.950 . S
H1744 C1774 0.950 . S
H1745 C1775 0.950 . S
C1746 H1728 0.951 . S
C1746 C1747 1.366 . S
C1746 C1748 1.388 . S
C1747 C1746 1.366 . S
C1747 C1751 1.385 . S
C1748 H1729 0.951 . S
C1748 C1746 1.388 . S
C1748 C1749 1.366 . S
C1749 C1748 1.366 . S
C1749 C1750 1.414 . S
C1749 C1752 1.499 . S
C1750 H1730 0.950 . S
C1750 C1749 1.414 . S
C1750 C1751 1.374 . S
C1751 H1731 0.950 . S
C1751 C1747 1.385 . S
C1751 C1750 1.374 . S
C1752 C1749 1.499 . S
C1752 C1753 1.373 . S
C1752 C1754 1.389 . S
C1753 H1732 0.950 . S
C1753 C1752 1.373 . S
C1753 C1769 1.377 . S
C1754 C1752 1.389 . S
C1754 C1755 1.524 . S
C1754 C1768 1.377 . S
C1755 C1754 1.524 . S
C1755 C1756 1.397 . S
C1755 C1760 1.363 . S
C1756 H1733 0.950 . S
C1756 C1755 1.397 . S
C1756 C1757 1.334 . S
C1757 H1734 0.950 . S
C1757 C1756 1.334 . S
C1757 C1758 1.287 . S
C1758 C1757 1.287 . S
C1758 C1759 1.524 . S
C1758 H1777 0.913 . S
C1759 H1735 0.950 . S
C1759 C1758 1.524 . S
C1759 C1760 1.415 . S
C1760 H1736 0.950 . S
C1760 C1755 1.363 . S
C1760 C1759 1.415 . S
C1761 H1737 0.951 . S
C1761 C1762 1.366 . S
C1761 C1763 1.388 . S
C1762 C1761 1.366 . S
C1762 C1766 1.385 . S
C1763 H1738 0.951 . S
C1763 C1761 1.388 . S
C1763 C1764 1.366 . S
C1764 C1763 1.366 . S
C1764 C1765 1.414 . S
C1764 C1767 1.499 . S
C1765 H1739 0.950 . S
C1765 C1764 1.414 . S
C1765 C1766 1.374 . S
C1766 H1740 0.950 . S
C1766 C1762 1.385 . S
C1766 C1765 1.374 . S
C1767 C1764 1.499 . S
C1767 C1768 1.373 . S
C1767 C1769 1.389 . S
C1768 H1741 0.950 . S
C1768 C1754 1.377 . S
C1768 C1767 1.373 . S
C1769 C1753 1.377 . S
C1769 C1767 1.389 . S
C1769 C1770 1.524 . S
C1770 C1769 1.524 . S
C1770 C1771 1.397 . S
C1770 C1775 1.363 . S
C1771 H1742 0.950 . S
C1771 C1770 1.397 . S
C1771 C1772 1.334 . S
C1772 H1743 0.950 . S
C1772 C1771 1.334 . S
C1772 C1773 1.287 . S
C1773 C1772 1.287 . S
C1773 C1774 1.524 . S
C1773 H1776 0.999 . S
C1774 H1744 0.950 . S
C1774 C1773 1.524 . S
C1774 C1775 1.415 . S
C1775 H1745 0.950 . S
C1775 C1770 1.363 . S
C1775 C1774 1.415 . S
H1776 C1773 0.999 . S
H1777 C1758 0.913 . S
H1778 C1796 0.951 . S
H1779 C1798 0.951 . S
H1780 C1800 0.950 . S
H1781 C1801 0.950 . S
H1782 C1803 0.950 . S
H1783 C1806 0.950 . S
H1784 C1807 0.950 . S
H1785 C1809 0.950 . S
H1786 C1810 0.950 . S
H1787 C1811 0.951 . S
H1788 C1813 0.951 . S
H1789 C1815 0.950 . S
H1790 C1816 0.950 . S
H1791 C1818 0.950 . S
H1792 C1821 0.950 . S
H1793 C1822 0.950 . S
H1794 C1824 0.950 . S
H1795 C1825 0.950 . S
C1796 H1778 0.951 . S
C1796 C1797 1.366 . S
C1796 C1798 1.388 . S
C1797 C1796 1.366 . S
C1797 C1801 1.385 . S
C1798 H1779 0.951 . S
C1798 C1796 1.388 . S
C1798 C1799 1.366 . S
C1799 C1798 1.366 . S
C1799 C1800 1.414 . S
C1799 C1802 1.499 . S
C1800 H1780 0.950 . S
C1800 C1799 1.414 . S
C1800 C1801 1.374 . S
C1801 H1781 0.950 . S
C1801 C1797 1.385 . S
C1801 C1800 1.374 . S
C1802 C1799 1.499 . S
C1802 C1803 1.373 . S
C1802 C1804 1.389 . S
C1803 H1782 0.950 . S
C1803 C1802 1.373 . S
C1803 C1819 1.377 . S
C1804 C1802 1.389 . S
C1804 C1805 1.524 . S
C1804 C1818 1.377 . S
C1805 C1804 1.524 . S
C1805 C1806 1.397 . S
C1805 C1810 1.363 . S
C1806 H1783 0.950 . S
C1806 C1805 1.397 . S
C1806 C1807 1.334 . S
C1807 H1784 0.950 . S
C1807 C1806 1.334 . S
C1807 C1808 1.287 . S
C1808 C1807 1.287 . S
C1808 C1809 1.524 . S
C1808 H1827 0.913 . S
C1809 H1785 0.950 . S
C1809 C1808 1.524 . S
C1809 C1810 1.415 . S
C1810 H1786 0.950 . S
C1810 C1805 1.363 . S
C1810 C1809 1.415 . S
C1811 H1787 0.951 . S
C1811 C1812 1.366 . S
C1811 C1813 1.388 . S
C1812 C1811 1.366 . S
C1812 C1816 1.385 . S
C1813 H1788 0.951 . S
C1813 C1811 1.388 . S
C1813 C1814 1.366 . S
C1814 C1813 1.366 . S
C1814 C1815 1.414 . S
C1814 C1817 1.499 . S
C1815 H1789 0.950 . S
C1815 C1814 1.414 . S
C1815 C1816 1.374 . S
C1816 H1790 0.950 . S
C1816 C1812 1.385 . S
C1816 C1815 1.374 . S
C1817 C1814 1.499 . S
C1817 C1818 1.373 . S
C1817 C1819 1.389 . S
C1818 H1791 0.950 . S
C1818 C1804 1.377 . S
C1818 C1817 1.373 . S
C1819 C1803 1.377 . S
C1819 C1817 1.389 . S
C1819 C1820 1.524 . S
C1820 C1819 1.524 . S
C1820 C1821 1.397 . S
C1820 C1825 1.363 . S
C1821 H1792 0.950 . S
C1821 C1820 1.397 . S
C1821 C1822 1.334 . S
C1822 H1793 0.950 . S
C1822 C1821 1.334 . S
C1822 C1823 1.287 . S
C1823 C1822 1.287 . S
C1823 C1824 1.524 . S
C1823 H1826 0.999 . S
C1824 H1794 0.950 . S
C1824 C1823 1.524 . S
C1824 C1825 1.415 . S
C1825 H1795 0.950 . S
C1825 C1820 1.363 . S
C1825 C1824 1.415 . S
H1826 C1823 0.999 . S
H1827 C1808 0.913 . S
H1828 C1846 0.951 . S
H1829 C1848 0.951 . S
H1830 C1850 0.950 . S
H1831 C1851 0.950 . S
H1832 C1853 0.950 . S
H1833 C1856 0.950 . S
H1834 C1857 0.950 . S
H1835 C1859 0.950 . S
H1836 C1860 0.950 . S
H1837 C1861 0.951 . S
H1838 C1863 0.951 . S
H1839 C1865 0.950 . S
H1840 C1866 0.950 . S
H1841 C1868 0.950 . S
H1842 C1871 0.950 . S
H1843 C1872 0.950 . S
H1844 C1874 0.950 . S
H1845 C1875 0.950 . S
C1846 H1828 0.951 . S
C1846 C1847 1.366 . S
C1846 C1848 1.388 . S
C1847 C1846 1.366 . S
C1847 C1851 1.385 . S
C1848 H1829 0.951 . S
C1848 C1846 1.388 . S
C1848 C1849 1.366 . S
C1849 C1848 1.366 . S
C1849 C1850 1.414 . S
C1849 C1852 1.499 . S
C1850 H1830 0.950 . S
C1850 C1849 1.414 . S
C1850 C1851 1.374 . S
C1851 H1831 0.950 . S
C1851 C1847 1.385 . S
C1851 C1850 1.374 . S
C1852 C1849 1.499 . S
C1852 C1853 1.373 . S
C1852 C1854 1.389 . S
C1853 H1832 0.950 . S
C1853 C1852 1.373 . S
C1853 C1869 1.377 . S
C1854 C1852 1.389 . S
C1854 C1855 1.524 . S
C1854 C1868 1.377 . S
C1855 C1854 1.524 . S
C1855 C1856 1.397 . S
C1855 C1860 1.363 . S
C1856 H1833 0.950 . S
C1856 C1855 1.397 . S
C1856 C1857 1.334 . S
C1857 H1834 0.950 . S
C1857 C1856 1.334 . S
C1857 C1858 1.287 . S
C1858 C1857 1.287 . S
C1858 C1859 1.524 . S
C1858 H1877 0.913 . S
C1859 H1835 0.950 . S
C1859 C1858 1.524 . S
C1859 C1860 1.415 . S
C1860 H1836 0.950 . S
C1860 C1855 1.363 . S
C1860 C1859 1.415 . S
C1861 H1837 0.951 . S
C1861 C1862 1.366 . S
C1861 C1863 1.388 . S
C1862 C1861 1.366 . S
C1862 C1866 1.385 . S
C1863 H1838 0.951 . S
C1863 C1861 1.388 . S
C1863 C1864 1.366 . S
C1864 C1863 1.366 . S
C1864 C1865 1.414 . S
C1864 C1867 1.499 . S
C1865 H1839 0.950 . S
C1865 C1864 1.414 . S
C1865 C1866 1.374 . S
C1866 H1840 0.950 . S
C1866 C1862 1.385 . S
C1866 C1865 1.374 . S
C1867 C1864 1.499 . S
C1867 C1868 1.373 . S
C1867 C1869 1.389 . S
C1868 H1841 0.950 . S
C1868 C1854 1.377 . S
C1868 C1867 1.373 . S
C1869 C1853 1.377 . S
C1869 C1867 1.389 . S
C1869 C1870 1.524 . S
C1870 C1869 1.524 . S
C1870 C1871 1.397 . S
C1870 C1875 1.363 . S
C1871 H1842 0.950 . S
C1871 C1870 1.397 . S
C1871 C1872 1.334 . S
C1872 H1843 0.950 . S
C1872 C1871 1.334 . S
C1872 C1873 1.287 . S
C1873 C1872 1.287 . S
C1873 C1874 1.524 . S
C1873 H1876 0.999 . S
C1874 H1844 0.950 . S
C1874 C1873 1.524 . S
C1874 C1875 1.415 . S
C1875 H1845 0.950 . S
C1875 C1870 1.363 . S
C1875 C1874 1.415 . S
H1876 C1873 0.999 . S
H1877 C1858 0.913 . S
H1878 C1896 0.951 . S
H1879 C1898 0.951 . S
H1880 C1900 0.950 . S
H1881 C1901 0.950 . S
H1882 C1903 0.950 . S
H1883 C1906 0.950 . S
H1884 C1907 0.950 . S
H1885 C1909 0.950 . S
H1886 C1910 0.950 . S
H1887 C1911 0.951 . S
H1888 C1913 0.951 . S
H1889 C1915 0.950 . S
H1890 C1916 0.950 . S
H1891 C1918 0.950 . S
H1892 C1921 0.950 . S
H1893 C1922 0.950 . S
H1894 C1924 0.950 . S
H1895 C1925 0.950 . S
C1896 H1878 0.951 . S
C1896 C1897 1.366 . S
C1896 C1898 1.388 . S
C1897 C1896 1.366 . S
C1897 C1901 1.385 . S
C1898 H1879 0.951 . S
C1898 C1896 1.388 . S
C1898 C1899 1.366 . S
C1899 C1898 1.366 . S
C1899 C1900 1.414 . S
C1899 C1902 1.499 . S
C1900 H1880 0.950 . S
C1900 C1899 1.414 . S
C1900 C1901 1.374 . S
C1901 H1881 0.950 . S
C1901 C1897 1.385 . S
C1901 C1900 1.374 . S
C1902 C1899 1.499 . S
C1902 C1903 1.373 . S
C1902 C1904 1.389 . S
C1903 H1882 0.950 . S
C1903 C1902 1.373 . S
C1903 C1919 1.377 . S
C1904 C1902 1.389 . S
C1904 C1905 1.524 . S
C1904 C1918 1.377 . S
C1905 C1904 1.524 . S
C1905 C1906 1.397 . S
C1905 C1910 1.363 . S
C1906 H1883 0.950 . S
C1906 C1905 1.397 . S
C1906 C1907 1.334 . S
C1907 H1884 0.950 . S
C1907 C1906 1.334 . S
C1907 C1908 1.287 . S
C1908 C1907 1.287 . S
C1908 C1909 1.524 . S
C1908 H1927 0.913 . S
C1909 H1885 0.950 . S
C1909 C1908 1.524 . S
C1909 C1910 1.415 . S
C1910 H1886 0.950 . S
C1910 C1905 1.363 . S
C1910 C1909 1.415 . S
C1911 H1887 0.951 . S
C1911 C1912 1.366 . S
C1911 C1913 1.388 . S
C1912 C1911 1.366 . S
C1912 C1916 1.385 . S
C1913 H1888 0.951 . S
C1913 C1911 1.388 . S
C1913 C1914 1.366 . S
C1914 C1913 1.366 . S
C1914 C1915 1.414 . S
C1914 C1917 1.499 . S
C1915 H1889 0.950 . S
C1915 C1914 1.414 . S
C1915 C1916 1.374 . S
C1916 H1890 0.950 . S
C1916 C1912 1.385 . S
C1916 C1915 1.374 . S
C1917 C1914 1.499 . S
C1917 C1918 1.373 . S
C1917 C1919 1.389 . S
C1918 H1891 0.950 . S
C1918 C1904 1.377 . S
C1918 C1917 1.373 . S
C1919 C1903 1.377 . S
C1919 C1917 1.389 . S
C1919 C1920 1.524 . S
C1920 C1919 1.524 . S
C1920 C1921 1.397 . S
C1920 C1925 1.363 . S
C1921 H1892 0.950 . S
C1921 C1920 1.397 . S
C1921 C1922 1.334 . S
C1922 H1893 0.950 . S
C1922 C1921 1.334 . S
C1922 C1923 1.287 . S
C1923 C1922 1.287 . S
C1923 C1924 1.524 . S
C1923 H1926 0.999 . S
C1924 H1894 0.950 . S
C1924 C1923 1.524 . S
C1924 C1925 1.415 . S
C1925 H1895 0.950 . S
C1925 C1920 1.363 . S
C1925 C1924 1.415 . S
H1926 C1923 0.999 . S
H1927 C1908 0.913 . S
H1928 C1946 0.951 . S
H1929 C1948 0.951 . S
H1930 C1950 0.950 . S
H1931 C1951 0.950 . S
H1932 C1953 0.950 . S
H1933 C1956 0.950 . S
H1934 C1957 0.950 . S
H1935 C1959 0.950 . S
H1936 C1960 0.950 . S
H1937 C1961 0.951 . S
H1938 C1963 0.951 . S
H1939 C1965 0.950 . S
H1940 C1966 0.950 . S
H1941 C1968 0.950 . S
H1942 C1971 0.950 . S
H1943 C1972 0.950 . S
H1944 C1974 0.950 . S
H1945 C1975 0.950 . S
C1946 H1928 0.951 . S
C1946 C1947 1.366 . S
C1946 C1948 1.388 . S
C1947 C1946 1.366 . S
C1947 C1951 1.385 . S
C1948 H1929 0.951 . S
C1948 C1946 1.388 . S
C1948 C1949 1.366 . S
C1949 C1948 1.366 . S
C1949 C1950 1.414 . S
C1949 C1952 1.499 . S
C1950 H1930 0.950 . S
C1950 C1949 1.414 . S
C1950 C1951 1.374 . S
C1951 H1931 0.950 . S
C1951 C1947 1.385 . S
C1951 C1950 1.374 . S
C1952 C1949 1.499 . S
C1952 C1953 1.373 . S
C1952 C1954 1.389 . S
C1953 H1932 0.950 . S
C1953 C1952 1.373 . S
C1953 C1969 1.377 . S
C1954 C1952 1.389 . S
C1954 C1955 1.524 . S
C1954 C1968 1.377 . S
C1955 C1954 1.524 . S
C1955 C1956 1.397 . S
C1955 C1960 1.363 . S
C1956 H1933 0.950 . S
C1956 C1955 1.397 . S
C1956 C1957 1.334 . S
C1957 H1934 0.950 . S
C1957 C1956 1.334 . S
C1957 C1958 1.287 . S
C1958 C1957 1.287 . S
C1958 C1959 1.524 . S
C1958 H1977 0.913 . S
C1959 H1935 0.950 . S
C1959 C1958 1.524 . S
C1959 C1960 1.415 . S
C1960 H1936 0.950 . S
C1960 C1955 1.363 . S
C1960 C1959 1.415 . S
C1961 H1937 0.951 . S
C1961 C1962 1.366 . S
C1961 C1963 1.388 . S
C1962 C1961 1.366 . S
C1962 C1966 1.385 . S
C1963 H1938 0.951 . S
C1963 C1961 1.388 . S
C1963 C1964 1.366 . S
C1964 C1963 1.366 . S
C1964 C1965 1.414 . S
C1964 C1967 1.499 . S
C1965 H1939 0.950 . S
C1965 C1964 1.414 . S
C1965 C1966 1.374 . S
C1966 H1940 0.950 . S
C1966 C1962 1.385 . S
C1966 C1965 1.374 . S
C1967 C1964 1.499 . S
C1967 C1968 1.373 . S
C1967 C1969 1.389 . S
C1968 H1941 0.950 . S
C1968 C1954 1.377 . S
C1968 C1967 1.373 . S
C1969 C1953 1.377 . S
C1969 C1967 1.389 . S
C1969 C1970 1.524 . S
C1970 C1969 1.524 . S
C1970 C1971 1.397 . S
C1970 C1975 1.363 . S
C1971 H1942 0.950 . S
C1971 C1970 1.397 . S
C1971 C1972 1.334 . S
C1972 H1943 0.950 . S
C1972 C1971 1.334 . S
C1972 C1973 1.287 . S
C1973 C1972 1.287 . S
C1973 C1974 1.524 . S
C1973 H1976 0.999 . S
C1974 H1944 0.950 . S
C1974 C1973 1.524 . S
C1974 C1975 1.415 . S
C1975 H1945 0.950 . S
C1975 C1970 1.363 . S
C1975 C1974 1.415 . S
H1976 C1973 0.999 . S
H1977 C1958 0.913 . S
H1978 C1996 0.951 . S
H1979 C1998 0.951 . S
H1980 C2000 0.950 . S
H1981 C2001 0.950 . S
H1982 C2003 0.950 . S
H1983 C2006 0.950 . S
H1984 C2007 0.950 . S
H1985 C2009 0.950 . S
H1986 C2010 0.950 . S
H1987 C2011 0.951 . S
H1988 C2013 0.951 . S
H1989 C2015 0.950 . S
H1990 C2016 0.950 . S
H1991 C2018 0.950 . S
H1992 C2021 0.950 . S
H1993 C2022 0.950 . S
H1994 C2024 0.950 . S
H1995 C2025 0.950 . S
C1996 H1978 0.951 . S
C1996 C1997 1.366 . S
C1996 C1998 1.388 . S
C1997 C1996 1.366 . S
C1997 C2001 1.385 . S
C1998 H1979 0.951 . S
C1998 C1996 1.388 . S
C1998 C1999 1.366 . S
C1999 C1998 1.366 . S
C1999 C2000 1.414 . S
C1999 C2002 1.499 . S
C2000 H1980 0.950 . S
C2000 C1999 1.414 . S
C2000 C2001 1.374 . S
C2001 H1981 0.950 . S
C2001 C1997 1.385 . S
C2001 C2000 1.374 . S
C2002 C1999 1.499 . S
C2002 C2003 1.373 . S
C2002 C2004 1.389 . S
C2003 H1982 0.950 . S
C2003 C2002 1.373 . S
C2003 C2019 1.377 . S
C2004 C2002 1.389 . S
C2004 C2005 1.524 . S
C2004 C2018 1.377 . S
C2005 C2004 1.524 . S
C2005 C2006 1.397 . S
C2005 C2010 1.363 . S
C2006 H1983 0.950 . S
C2006 C2005 1.397 . S
C2006 C2007 1.334 . S
C2007 H1984 0.950 . S
C2007 C2006 1.334 . S
C2007 C2008 1.287 . S
C2008 C2007 1.287 . S
C2008 C2009 1.524 . S
C2008 H2027 0.913 . S
C2009 H1985 0.950 . S
C2009 C2008 1.524 . S
C2009 C2010 1.415 . S
C2010 H1986 0.950 . S
C2010 C2005 1.363 . S
C2010 C2009 1.415 . S
C2011 H1987 0.951 . S
C2011 C2012 1.366 . S
C2011 C2013 1.388 . S
C2012 C2011 1.366 . S
C2012 C2016 1.385 . S
C2013 H1988 0.951 . S
C2013 C2011 1.388 . S
C2013 C2014 1.366 . S
C2014 C2013 1.366 . S
C2014 C2015 1.414 . S
C2014 C2017 1.499 . S
C2015 H1989 0.950 . S
C2015 C2014 1.414 . S
C2015 C2016 1.374 . S
C2016 H1990 0.950 . S
C2016 C2012 1.385 . S
C2016 C2015 1.374 . S
C2017 C2014 1.499 . S
C2017 C2018 1.373 . S
C2017 C2019 1.389 . S
C2018 H1991 0.950 . S
C2018 C2004 1.377 . S
C2018 C2017 1.373 . S
C2019 C2003 1.377 . S
C2019 C2017 1.389 . S
C2019 C2020 1.524 . S
C2020 C2019 1.524 . S
C2020 C2021 1.397 . S
C2020 C2025 1.363 . S
C2021 H1992 0.950 . S
C2021 C2020 1.397 . S
C2021 C2022 1.334 . S
C2022 H1993 0.950 . S
C2022 C2021 1.334 . S
C2022 C2023 1.287 . S
C2023 C2022 1.287 . S
C2023 C2024 1.524 . S
C2023 H2026 0.999 . S
C2024 H1994 0.950 . S
C2024 C2023 1.524 . S
C2024 C2025 1.415 . S
C2025 H1995 0.950 . S
C2025 C2020 1.363 . S
C2025 C2024 1.415 . S
H2026 C2023 0.999 . S
H2027 C2008 0.913 . S
H2028 C2046 0.951 . S
H2029 C2048 0.951 . S
H2030 C2050 0.950 . S
H2031 C2051 0.950 . S
H2032 C2053 0.950 . S
H2033 C2056 0.950 . S
H2034 C2057 0.950 . S
H2035 C2059 0.950 . S
H2036 C2060 0.950 . S
H2037 C2061 0.951 . S
H2038 C2063 0.951 . S
H2039 C2065 0.950 . S
H2040 C2066 0.950 . S
H2041 C2068 0.950 . S
H2042 C2071 0.950 . S
H2043 C2072 0.950 . S
H2044 C2074 0.950 . S
H2045 C2075 0.950 . S
C2046 H2028 0.951 . S
C2046 C2047 1.366 . S
C2046 C2048 1.388 . S
C2047 C2046 1.366 . S
C2047 C2051 1.385 . S
C2048 H2029 0.951 . S
C2048 C2046 1.388 . S
C2048 C2049 1.366 . S
C2049 C2048 1.366 . S
C2049 C2050 1.414 . S
C2049 C2052 1.499 . S
C2050 H2030 0.950 . S
C2050 C2049 1.414 . S
C2050 C2051 1.374 . S
C2051 H2031 0.950 . S
C2051 C2047 1.385 . S
C2051 C2050 1.374 . S
C2052 C2049 1.499 . S
C2052 C2053 1.373 . S
C2052 C2054 1.389 . S
C2053 H2032 0.950 . S
C2053 C2052 1.373 . S
C2053 C2069 1.377 . S
C2054 C2052 1.389 . S
C2054 C2055 1.524 . S
C2054 C2068 1.377 . S
C2055 C2054 1.524 . S
C2055 C2056 1.397 . S
C2055 C2060 1.363 . S
C2056 H2033 0.950 . S
C2056 C2055 1.397 . S
C2056 C2057 1.334 . S
C2057 H2034 0.950 . S
C2057 C2056 1.334 . S
C2057 C2058 1.287 . S
C2058 C2057 1.287 . S
C2058 C2059 1.524 . S
C2058 H2077 0.913 . S
C2059 H2035 0.950 . S
C2059 C2058 1.524 . S
C2059 C2060 1.415 . S
C2060 H2036 0.950 . S
C2060 C2055 1.363 . S
C2060 C2059 1.415 . S
C2061 H2037 0.951 . S
C2061 C2062 1.366 . S
C2061 C2063 1.388 . S
C2062 C2061 1.366 . S
C2062 C2066 1.385 . S
C2063 H2038 0.951 . S
C2063 C2061 1.388 . S
C2063 C2064 1.366 . S
C2064 C2063 1.366 . S
C2064 C2065 1.414 . S
C2064 C2067 1.499 . S
C2065 H2039 0.950 . S
C2065 C2064 1.414 . S
C2065 C2066 1.374 . S
C2066 H2040 0.950 . S
C2066 C2062 1.385 . S
C2066 C2065 1.374 . S
C2067 C2064 1.499 . S
C2067 C2068 1.373 . S
C2067 C2069 1.389 . S
C2068 H2041 0.950 . S
C2068 C2054 1.377 . S
C2068 C2067 1.373 . S
C2069 C2053 1.377 . S
C2069 C2067 1.389 . S
C2069 C2070 1.524 . S
C2070 C2069 1.524 . S
C2070 C2071 1.397 . S
C2070 C2075 1.363 . S
C2071 H2042 0.950 . S
C2071 C2070 1.397 . S
C2071 C2072 1.334 . S
C2072 H2043 0.950 . S
C2072 C2071 1.334 . S
C2072 C2073 1.287 . S
C2073 C2072 1.287 . S
C2073 C2074 1.524 . S
C2073 H2076 0.999 . S
C2074 H2044 0.950 . S
C2074 C2073 1.524 . S
C2074 C2075 1.415 . S
C2075 H2045 0.950 . S
C2075 C2070 1.363 . S
C2075 C2074 1.415 . S
H2076 C2073 0.999 . S
H2077 C2058 0.913 . S
H2078 C2096 0.951 . S
H2079 C2098 0.951 . S
H2080 C2100 0.950 . S
H2081 C2101 0.950 . S
H2082 C2103 0.950 . S
H2083 C2106 0.950 . S
H2084 C2107 0.950 . S
H2085 C2109 0.950 . S
H2086 C2110 0.950 . S
H2087 C2111 0.951 . S
H2088 C2113 0.951 . S
H2089 C2115 0.950 . S
H2090 C2116 0.950 . S
H2091 C2118 0.950 . S
H2092 C2121 0.950 . S
H2093 C2122 0.950 . S
H2094 C2124 0.950 . S
H2095 C2125 0.950 . S
C2096 H2078 0.951 . S
C2096 C2097 1.366 . S
C2096 C2098 1.388 . S
C2097 C2096 1.366 . S
C2097 C2101 1.385 . S
C2098 H2079 0.951 . S
C2098 C2096 1.388 . S
C2098 C2099 1.366 . S
C2099 C2098 1.366 . S
C2099 C2100 1.414 . S
C2099 C2102 1.499 . S
C2100 H2080 0.950 . S
C2100 C2099 1.414 . S
C2100 C2101 1.374 . S
C2101 H2081 0.950 . S
C2101 C2097 1.385 . S
C2101 C2100 1.374 . S
C2102 C2099 1.499 . S
C2102 C2103 1.373 . S
C2102 C2104 1.389 . S
C2103 H2082 0.950 . S
C2103 C2102 1.373 . S
C2103 C2119 1.377 . S
C2104 C2102 1.389 . S
C2104 C2105 1.524 . S
C2104 C2118 1.377 . S
C2105 C2104 1.524 . S
C2105 C2106 1.397 . S
C2105 C2110 1.363 . S
C2106 H2083 0.950 . S
C2106 C2105 1.397 . S
C2106 C2107 1.334 . S
C2107 H2084 0.950 . S
C2107 C2106 1.334 . S
C2107 C2108 1.287 . S
C2108 C2107 1.287 . S
C2108 C2109 1.524 . S
C2108 H2127 0.913 . S
C2109 H2085 0.950 . S
C2109 C2108 1.524 . S
C2109 C2110 1.415 . S
C2110 H2086 0.950 . S
C2110 C2105 1.363 . S
C2110 C2109 1.415 . S
C2111 H2087 0.951 . S
C2111 C2112 1.366 . S
C2111 C2113 1.388 . S
C2112 C2111 1.366 . S
C2112 C2116 1.385 . S
C2113 H2088 0.951 . S
C2113 C2111 1.388 . S
C2113 C2114 1.366 . S
C2114 C2113 1.366 . S
C2114 C2115 1.414 . S
C2114 C2117 1.499 . S
C2115 H2089 0.950 . S
C2115 C2114 1.414 . S
C2115 C2116 1.374 . S
C2116 H2090 0.950 . S
C2116 C2112 1.385 . S
C2116 C2115 1.374 . S
C2117 C2114 1.499 . S
C2117 C2118 1.373 . S
C2117 C2119 1.389 . S
C2118 H2091 0.950 . S
C2118 C2104 1.377 . S
C2118 C2117 1.373 . S
C2119 C2103 1.377 . S
C2119 C2117 1.389 . S
C2119 C2120 1.524 . S
C2120 C2119 1.524 . S
C2120 C2121 1.397 . S
C2120 C2125 1.363 . S
C2121 H2092 0.950 . S
C2121 C2120 1.397 . S
C2121 C2122 1.334 . S
C2122 H2093 0.950 . S
C2122 C2121 1.334 . S
C2122 C2123 1.287 . S
C2123 C2122 1.287 . S
C2123 C2124 1.524 . S
C2123 H2126 0.999 . S
C2124 H2094 0.950 . S
C2124 C2123 1.524 . S
C2124 C2125 1.415 . S
C2125 H2095 0.950 . S
C2125 C2120 1.363 . S
C2125 C2124 1.415 . S
H2126 C2123 0.999 . S
H2127 C2108 0.913 . S
H2128 C2146 0.951 . S
H2129 C2148 0.951 . S
H2130 C2150 0.950 . S
H2131 C2151 0.950 1_455 S
H2132 C2153 0.950 . S
H2133 C2156 0.950 1_455 S
H2134 C2157 0.950 . S
H2135 C2159 0.950 . S
H2136 C2160 0.950 . S
H2137 C2161 0.951 . S
H2138 C2163 0.951 . S
H2139 C2165 0.950 . S
H2140 C2166 0.950 1_655 S
H2141 C2168 0.950 . S
H2142 C2171 0.950 1_655 S
H2143 C2172 0.950 . S
H2144 C2174 0.950 . S
H2145 C2175 0.950 . S
C2146 H2128 0.951 . S
C2146 C2147 1.366 . S
C2146 C2148 1.388 . S
C2147 C2146 1.366 . S
C2147 C2151 1.385 . S
C2148 H2129 0.951 . S
C2148 C2146 1.388 . S
C2148 C2149 1.366 . S
C2149 C2148 1.366 . S
C2149 C2150 1.414 1_655 S
C2149 C2152 1.499 . S
C2150 H2130 0.950 . S
C2150 C2149 1.414 1_455 S
C2150 C2151 1.374 1_455 S
C2151 H2131 0.950 1_655 S
C2151 C2147 1.385 . S
C2151 C2150 1.374 1_655 S
C2152 C2149 1.499 . S
C2152 C2153 1.373 1_655 S
C2152 C2154 1.389 . S
C2153 H2132 0.950 . S
C2153 C2152 1.373 1_455 S
C2153 C2169 1.377 . S
C2154 C2152 1.389 . S
C2154 C2155 1.524 . S
C2154 C2168 1.377 . S
C2155 C2154 1.524 . S
C2155 C2156 1.397 . S
C2155 C2160 1.363 . S
C2156 H2133 0.950 1_655 S
C2156 C2155 1.397 . S
C2156 C2157 1.334 . S
C2157 H2134 0.950 . S
C2157 C2156 1.334 . S
C2157 C2158 1.287 . S
C2158 C2157 1.287 . S
C2158 C2159 1.524 . S
C2158 H2177 0.913 . S
C2159 H2135 0.950 . S
C2159 C2158 1.524 . S
C2159 C2160 1.415 . S
C2160 H2136 0.950 . S
C2160 C2155 1.363 . S
C2160 C2159 1.415 . S
C2161 H2137 0.951 . S
C2161 C2162 1.366 . S
C2161 C2163 1.388 . S
C2162 C2161 1.366 . S
C2162 C2166 1.385 . S
C2163 H2138 0.951 . S
C2163 C2161 1.388 . S
C2163 C2164 1.366 . S
C2164 C2163 1.366 . S
C2164 C2165 1.414 1_455 S
C2164 C2167 1.499 . S
C2165 H2139 0.950 . S
C2165 C2164 1.414 1_655 S
C2165 C2166 1.374 1_655 S
C2166 H2140 0.950 1_455 S
C2166 C2162 1.385 . S
C2166 C2165 1.374 1_455 S
C2167 C2164 1.499 . S
C2167 C2168 1.373 1_455 S
C2167 C2169 1.389 . S
C2168 H2141 0.950 . S
C2168 C2154 1.377 . S
C2168 C2167 1.373 1_655 S
C2169 C2153 1.377 . S
C2169 C2167 1.389 . S
C2169 C2170 1.524 . S
C2170 C2169 1.524 . S
C2170 C2171 1.397 . S
C2170 C2175 1.363 . S
C2171 H2142 0.950 1_455 S
C2171 C2170 1.397 . S
C2171 C2172 1.334 . S
C2172 H2143 0.950 . S
C2172 C2171 1.334 . S
C2172 C2173 1.287 . S
C2173 C2172 1.287 . S
C2173 C2174 1.524 . S
C2173 H2176 0.999 . S
C2174 H2144 0.950 . S
C2174 C2173 1.524 . S
C2174 C2175 1.415 . S
C2175 H2145 0.950 . S
C2175 C2170 1.363 . S
C2175 C2174 1.415 . S
H2176 C2173 0.999 . S
H2177 C2158 0.913 . S
H2178 C2196 0.951 . S
H2179 C2198 0.951 . S
H2180 C2200 0.950 . S
H2181 C2201 0.950 1_545 S
H2182 C2203 0.950 . S
H2183 C2206 0.950 . S
H2184 C2207 0.950 . S
H2185 C2209 0.950 . S
H2186 C2210 0.950 . S
H2187 C2211 0.951 . S
H2188 C2213 0.951 . S
H2189 C2215 0.950 . S
H2190 C2216 0.950 1_565 S
H2191 C2218 0.950 . S
H2192 C2221 0.950 . S
H2193 C2222 0.950 . S
H2194 C2224 0.950 . S
H2195 C2225 0.950 . S
C2196 H2178 0.951 . S
C2196 C2197 1.366 . S
C2196 C2198 1.388 . S
C2197 C2196 1.366 . S
C2197 C2201 1.385 . S
C2198 H2179 0.951 . S
C2198 C2196 1.388 . S
C2198 C2199 1.366 . S
C2199 C2198 1.366 . S
C2199 C2200 1.414 1_565 S
C2199 C2202 1.499 . S
C2200 H2180 0.950 . S
C2200 C2199 1.414 1_545 S
C2200 C2201 1.374 1_545 S
C2201 H2181 0.950 1_565 S
C2201 C2197 1.385 . S
C2201 C2200 1.374 1_565 S
C2202 C2199 1.499 . S
C2202 C2203 1.373 1_565 S
C2202 C2204 1.389 . S
C2203 H2182 0.950 . S
C2203 C2202 1.373 1_545 S
C2203 C2219 1.377 . S
C2204 C2202 1.389 . S
C2204 C2205 1.524 . S
C2204 C2218 1.377 . S
C2205 C2204 1.524 . S
C2205 C2206 1.397 . S
C2205 C2210 1.363 . S
C2206 H2183 0.950 . S
C2206 C2205 1.397 . S
C2206 C2207 1.334 . S
C2207 H2184 0.950 . S
C2207 C2206 1.334 . S
C2207 C2208 1.287 . S
C2208 C2207 1.287 . S
C2208 C2209 1.524 . S
C2208 H2227 0.913 . S
C2209 H2185 0.950 . S
C2209 C2208 1.524 . S
C2209 C2210 1.415 . S
C2210 H2186 0.950 . S
C2210 C2205 1.363 . S
C2210 C2209 1.415 . S
C2211 H2187 0.951 . S
C2211 C2212 1.366 . S
C2211 C2213 1.388 . S
C2212 C2211 1.366 . S
C2212 C2216 1.385 . S
C2213 H2188 0.951 . S
C2213 C2211 1.388 . S
C2213 C2214 1.366 . S
C2214 C2213 1.366 . S
C2214 C2215 1.414 1_545 S
C2214 C2217 1.499 . S
C2215 H2189 0.950 . S
C2215 C2214 1.414 1_565 S
C2215 C2216 1.374 1_565 S
C2216 H2190 0.950 1_545 S
C2216 C2212 1.385 . S
C2216 C2215 1.374 1_545 S
C2217 C2214 1.499 . S
C2217 C2218 1.373 1_545 S
C2217 C2219 1.389 . S
C2218 H2191 0.950 . S
C2218 C2204 1.377 . S
C2218 C2217 1.373 1_565 S
C2219 C2203 1.377 . S
C2219 C2217 1.389 . S
C2219 C2220 1.524 . S
C2220 C2219 1.524 . S
C2220 C2221 1.397 . S
C2220 C2225 1.363 . S
C2221 H2192 0.950 . S
C2221 C2220 1.397 . S
C2221 C2222 1.334 . S
C2222 H2193 0.950 . S
C2222 C2221 1.334 . S
C2222 C2223 1.287 . S
C2223 C2222 1.287 . S
C2223 C2224 1.524 . S
C2223 H2226 0.999 . S
C2224 H2194 0.950 . S
C2224 C2223 1.524 . S
C2224 C2225 1.415 . S
C2225 H2195 0.950 . S
C2225 C2220 1.363 . S
C2225 C2224 1.415 . S
H2226 C2223 0.999 . S
H2227 C2208 0.913 . S
H2228 C2246 0.951 . S
H2229 C2248 0.951 . S
H2230 C2250 0.950 . S
H2231 C2251 0.950 . S
H2232 C2253 0.950 . S
H2233 C2256 0.950 . S
H2234 C2257 0.950 . S
H2235 C2259 0.950 . S
H2236 C2260 0.950 1_565 S
H2237 C2261 0.951 . S
H2238 C2263 0.951 . S
H2239 C2265 0.950 . S
H2240 C2266 0.950 . S
H2241 C2268 0.950 . S
H2242 C2271 0.950 . S
H2243 C2272 0.950 . S
H2244 C2274 0.950 . S
H2245 C2275 0.950 1_545 S
C2246 H2228 0.951 . S
C2246 C2247 1.366 . S
C2246 C2248 1.388 . S
C2247 C2246 1.366 . S
C2247 C2251 1.385 . S
C2248 H2229 0.951 . S
C2248 C2246 1.388 . S
C2248 C2249 1.366 . S
C2249 C2248 1.366 . S
C2249 C2250 1.414 . S
C2249 C2252 1.499 . S
C2250 H2230 0.950 . S
C2250 C2249 1.414 . S
C2250 C2251 1.374 . S
C2251 H2231 0.950 . S
C2251 C2247 1.385 . S
C2251 C2250 1.374 . S
C2252 C2249 1.499 . S
C2252 C2253 1.373 . S
C2252 C2254 1.389 . S
C2253 H2232 0.950 . S
C2253 C2252 1.373 . S
C2253 C2269 1.377 1_545 S
C2254 C2252 1.389 . S
C2254 C2255 1.524 . S
C2254 C2268 1.377 1_545 S
C2255 C2254 1.524 . S
C2255 C2256 1.397 . S
C2255 C2260 1.363 . S
C2256 H2233 0.950 . S
C2256 C2255 1.397 . S
C2256 C2257 1.334 . S
C2257 H2234 0.950 . S
C2257 C2256 1.334 . S
C2257 C2258 1.287 . S
C2258 C2257 1.287 . S
C2258 C2259 1.524 . S
C2258 H2277 0.913 . S
C2259 H2235 0.950 . S
C2259 C2258 1.524 . S
C2259 C2260 1.415 . S
C2260 H2236 0.950 1_545 S
C2260 C2255 1.363 . S
C2260 C2259 1.415 . S
C2261 H2237 0.951 . S
C2261 C2262 1.366 . S
C2261 C2263 1.388 . S
C2262 C2261 1.366 . S
C2262 C2266 1.385 . S
C2263 H2238 0.951 . S
C2263 C2261 1.388 . S
C2263 C2264 1.366 . S
C2264 C2263 1.366 . S
C2264 C2265 1.414 . S
C2264 C2267 1.499 . S
C2265 H2239 0.950 . S
C2265 C2264 1.414 . S
C2265 C2266 1.374 . S
C2266 H2240 0.950 . S
C2266 C2262 1.385 . S
C2266 C2265 1.374 . S
C2267 C2264 1.499 . S
C2267 C2268 1.373 . S
C2267 C2269 1.389 . S
C2268 H2241 0.950 . S
C2268 C2254 1.377 1_565 S
C2268 C2267 1.373 . S
C2269 C2253 1.377 1_565 S
C2269 C2267 1.389 . S
C2269 C2270 1.524 . S
C2270 C2269 1.524 . S
C2270 C2271 1.397 . S
C2270 C2275 1.363 . S
C2271 H2242 0.950 . S
C2271 C2270 1.397 . S
C2271 C2272 1.334 . S
C2272 H2243 0.950 . S
C2272 C2271 1.334 . S
C2272 C2273 1.287 . S
C2273 C2272 1.287 . S
C2273 C2274 1.524 . S
C2273 H2276 0.999 . S
C2274 H2244 0.950 . S
C2274 C2273 1.524 . S
C2274 C2275 1.415 . S
C2275 H2245 0.950 1_565 S
C2275 C2270 1.363 . S
C2275 C2274 1.415 . S
H2276 C2273 0.999 . S
H2277 C2258 0.913 . S
H2278 C2296 0.951 . S
H2279 C2298 0.951 . S
H2280 C2300 0.950 . S
H2281 C2301 0.950 . S
H2282 C2303 0.950 . S
H2283 C2306 0.950 . S
H2284 C2307 0.950 . S
H2285 C2309 0.950 . S
H2286 C2310 0.950 . S
H2287 C2311 0.951 . S
H2288 C2313 0.951 . S
H2289 C2315 0.950 . S
H2290 C2316 0.950 . S
H2291 C2318 0.950 . S
H2292 C2321 0.950 . S
H2293 C2322 0.950 . S
H2294 C2324 0.950 . S
H2295 C2325 0.950 . S
C2296 H2278 0.951 . S
C2296 C2297 1.366 . S
C2296 C2298 1.388 . S
C2297 C2296 1.366 . S
C2297 C2301 1.385 . S
C2298 H2279 0.951 . S
C2298 C2296 1.388 . S
C2298 C2299 1.366 . S
C2299 C2298 1.366 . S
C2299 C2300 1.414 . S
C2299 C2302 1.499 . S
C2300 H2280 0.950 . S
C2300 C2299 1.414 . S
C2300 C2301 1.374 . S
C2301 H2281 0.950 . S
C2301 C2297 1.385 . S
C2301 C2300 1.374 . S
C2302 C2299 1.499 . S
C2302 C2303 1.373 . S
C2302 C2304 1.389 . S
C2303 H2282 0.950 . S
C2303 C2302 1.373 . S
C2303 C2319 1.377 1_655 S
C2304 C2302 1.389 . S
C2304 C2305 1.524 . S
C2304 C2318 1.377 1_655 S
C2305 C2304 1.524 . S
C2305 C2306 1.397 . S
C2305 C2310 1.363 . S
C2306 H2283 0.950 . S
C2306 C2305 1.397 . S
C2306 C2307 1.334 . S
C2307 H2284 0.950 . S
C2307 C2306 1.334 . S
C2307 C2308 1.287 . S
C2308 C2307 1.287 . S
C2308 C2309 1.524 . S
C2308 H2327 0.913 . S
C2309 H2285 0.950 . S
C2309 C2308 1.524 . S
C2309 C2310 1.415 . S
C2310 H2286 0.950 . S
C2310 C2305 1.363 . S
C2310 C2309 1.415 . S
C2311 H2287 0.951 . S
C2311 C2312 1.366 . S
C2311 C2313 1.388 . S
C2312 C2311 1.366 . S
C2312 C2316 1.385 . S
C2313 H2288 0.951 . S
C2313 C2311 1.388 . S
C2313 C2314 1.366 . S
C2314 C2313 1.366 . S
C2314 C2315 1.414 . S
C2314 C2317 1.499 . S
C2315 H2289 0.950 . S
C2315 C2314 1.414 . S
C2315 C2316 1.374 . S
C2316 H2290 0.950 . S
C2316 C2312 1.385 . S
C2316 C2315 1.374 . S
C2317 C2314 1.499 . S
C2317 C2318 1.373 . S
C2317 C2319 1.389 . S
C2318 H2291 0.950 . S
C2318 C2304 1.377 1_455 S
C2318 C2317 1.373 . S
C2319 C2303 1.377 1_455 S
C2319 C2317 1.389 . S
C2319 C2320 1.524 . S
C2320 C2319 1.524 . S
C2320 C2321 1.397 . S
C2320 C2325 1.363 . S
C2321 H2292 0.950 . S
C2321 C2320 1.397 . S
C2321 C2322 1.334 . S
C2322 H2293 0.950 . S
C2322 C2321 1.334 . S
C2322 C2323 1.287 . S
C2323 C2322 1.287 . S
C2323 C2324 1.524 . S
C2323 H2326 0.999 . S
C2324 H2294 0.950 . S
C2324 C2323 1.524 . S
C2324 C2325 1.415 . S
C2325 H2295 0.950 . S
C2325 C2320 1.363 . S
C2325 C2324 1.415 . S
H2326 C2323 0.999 . S
H2327 C2308 0.913 . S
H2328 C2346 0.951 . S
H2329 C2348 0.951 1_455 S
H2330 C2350 0.950 . S
H2331 C2351 0.950 . S
H2332 C2353 0.950 . S
H2333 C2356 0.950 . S
H2334 C2357 0.950 . S
H2335 C2359 0.950 . S
H2336 C2360 0.950 . S
H2337 C2361 0.951 . S
H2338 C2363 0.951 1_655 S
H2339 C2365 0.950 . S
H2340 C2366 0.950 . S
H2341 C2368 0.950 . S
H2342 C2371 0.950 . S
H2343 C2372 0.950 . S
H2344 C2374 0.950 . S
H2345 C2375 0.950 . S
C2346 H2328 0.951 . S
C2346 C2347 1.366 . S
C2346 C2348 1.388 . S
C2347 C2346 1.366 . S
C2347 C2351 1.385 . S
C2348 H2329 0.951 1_655 S
C2348 C2346 1.388 . S
C2348 C2349 1.366 . S
C2349 C2348 1.366 . S
C2349 C2350 1.414 . S
C2349 C2352 1.499 . S
C2350 H2330 0.950 . S
C2350 C2349 1.414 . S
C2350 C2351 1.374 . S
C2351 H2331 0.950 . S
C2351 C2347 1.385 . S
C2351 C2350 1.374 . S
C2352 C2349 1.499 . S
C2352 C2353 1.373 . S
C2352 C2354 1.389 1_655 S
C2353 H2332 0.950 . S
C2353 C2352 1.373 . S
C2353 C2369 1.377 . S
C2354 C2352 1.389 1_455 S
C2354 C2355 1.524 . S
C2354 C2368 1.377 . S
C2355 C2354 1.524 . S
C2355 C2356 1.397 . S
C2355 C2360 1.363 . S
C2356 H2333 0.950 . S
C2356 C2355 1.397 . S
C2356 C2357 1.334 . S
C2357 H2334 0.950 . S
C2357 C2356 1.334 . S
C2357 C2358 1.287 . S
C2358 C2357 1.287 . S
C2358 C2359 1.524 . S
C2358 H2377 0.913 . S
C2359 H2335 0.950 . S
C2359 C2358 1.524 . S
C2359 C2360 1.415 . S
C2360 H2336 0.950 . S
C2360 C2355 1.363 . S
C2360 C2359 1.415 . S
C2361 H2337 0.951 . S
C2361 C2362 1.366 . S
C2361 C2363 1.388 . S
C2362 C2361 1.366 . S
C2362 C2366 1.385 . S
C2363 H2338 0.951 1_455 S
C2363 C2361 1.388 . S
C2363 C2364 1.366 . S
C2364 C2363 1.366 . S
C2364 C2365 1.414 . S
C2364 C2367 1.499 . S
C2365 H2339 0.950 . S
C2365 C2364 1.414 . S
C2365 C2366 1.374 . S
C2366 H2340 0.950 . S
C2366 C2362 1.385 . S
C2366 C2365 1.374 . S
C2367 C2364 1.499 . S
C2367 C2368 1.373 . S
C2367 C2369 1.389 1_455 S
C2368 H2341 0.950 . S
C2368 C2354 1.377 . S
C2368 C2367 1.373 . S
C2369 C2353 1.377 . S
C2369 C2367 1.389 1_655 S
C2369 C2370 1.524 . S
C2370 C2369 1.524 . S
C2370 C2371 1.397 . S
C2370 C2375 1.363 . S
C2371 H2342 0.950 . S
C2371 C2370 1.397 . S
C2371 C2372 1.334 . S
C2372 H2343 0.950 . S
C2372 C2371 1.334 . S
C2372 C2373 1.287 . S
C2373 C2372 1.287 . S
C2373 C2374 1.524 . S
C2373 H2376 0.999 . S
C2374 H2344 0.950 . S
C2374 C2373 1.524 . S
C2374 C2375 1.415 . S
C2375 H2345 0.950 . S
C2375 C2370 1.363 . S
C2375 C2374 1.415 . S
H2376 C2373 0.999 . S
H2377 C2358 0.913 . S
H2378 C2396 0.951 . S
H2379 C2398 0.951 . S
H2380 C2400 0.950 . S
H2381 C2401 0.950 1_565 S
H2382 C2403 0.950 . S
H2383 C2406 0.950 . S
H2384 C2407 0.950 . S
H2385 C2409 0.950 . S
H2386 C2410 0.950 . S
H2387 C2411 0.951 . S
H2388 C2413 0.951 . S
H2389 C2415 0.950 . S
H2390 C2416 0.950 1_545 S
H2391 C2418 0.950 . S
H2392 C2421 0.950 . S
H2393 C2422 0.950 . S
H2394 C2424 0.950 . S
H2395 C2425 0.950 . S
C2396 H2378 0.951 . S
C2396 C2397 1.366 . S
C2396 C2398 1.388 . S
C2397 C2396 1.366 . S
C2397 C2401 1.385 . S
C2398 H2379 0.951 . S
C2398 C2396 1.388 . S
C2398 C2399 1.366 . S
C2399 C2398 1.366 . S
C2399 C2400 1.414 1_545 S
C2399 C2402 1.499 . S
C2400 H2380 0.950 . S
C2400 C2399 1.414 1_565 S
C2400 C2401 1.374 1_565 S
C2401 H2381 0.950 1_545 S
C2401 C2397 1.385 . S
C2401 C2400 1.374 1_545 S
C2402 C2399 1.499 . S
C2402 C2403 1.373 1_545 S
C2402 C2404 1.389 . S
C2403 H2382 0.950 . S
C2403 C2402 1.373 1_565 S
C2403 C2419 1.377 . S
C2404 C2402 1.389 . S
C2404 C2405 1.524 . S
C2404 C2418 1.377 . S
C2405 C2404 1.524 . S
C2405 C2406 1.397 . S
C2405 C2410 1.363 . S
C2406 H2383 0.950 . S
C2406 C2405 1.397 . S
C2406 C2407 1.334 . S
C2407 H2384 0.950 . S
C2407 C2406 1.334 . S
C2407 C2408 1.287 . S
C2408 C2407 1.287 . S
C2408 C2409 1.524 . S
C2408 H2427 0.913 . S
C2409 H2385 0.950 . S
C2409 C2408 1.524 . S
C2409 C2410 1.415 . S
C2410 H2386 0.950 . S
C2410 C2405 1.363 . S
C2410 C2409 1.415 . S
C2411 H2387 0.951 . S
C2411 C2412 1.366 . S
C2411 C2413 1.388 . S
C2412 C2411 1.366 . S
C2412 C2416 1.385 . S
C2413 H2388 0.951 . S
C2413 C2411 1.388 . S
C2413 C2414 1.366 . S
C2414 C2413 1.366 . S
C2414 C2415 1.414 1_565 S
C2414 C2417 1.499 . S
C2415 H2389 0.950 . S
C2415 C2414 1.414 1_545 S
C2415 C2416 1.374 1_545 S
C2416 H2390 0.950 1_565 S
C2416 C2412 1.385 . S
C2416 C2415 1.374 1_565 S
C2417 C2414 1.499 . S
C2417 C2418 1.373 1_565 S
C2417 C2419 1.389 . S
C2418 H2391 0.950 . S
C2418 C2404 1.377 . S
C2418 C2417 1.373 1_545 S
C2419 C2403 1.377 . S
C2419 C2417 1.389 . S
C2419 C2420 1.524 . S
C2420 C2419 1.524 . S
C2420 C2421 1.397 . S
C2420 C2425 1.363 . S
C2421 H2392 0.950 . S
C2421 C2420 1.397 . S
C2421 C2422 1.334 . S
C2422 H2393 0.950 . S
C2422 C2421 1.334 . S
C2422 C2423 1.287 . S
C2423 C2422 1.287 . S
C2423 C2424 1.524 . S
C2423 H2426 0.999 . S
C2424 H2394 0.950 . S
C2424 C2423 1.524 . S
C2424 C2425 1.415 . S
C2425 H2395 0.950 . S
C2425 C2420 1.363 . S
C2425 C2424 1.415 . S
H2426 C2423 0.999 . S
H2427 C2408 0.913 . S
H2428 C2446 0.951 . S
H2429 C2448 0.951 . S
H2430 C2450 0.950 . S
H2431 C2451 0.950 . S
H2432 C2453 0.950 . S
H2433 C2456 0.950 . S
H2434 C2457 0.950 . S
H2435 C2459 0.952 . S
H2436 C2460 0.950 . S
H2437 C2461 0.951 . S
H2438 C2463 0.951 . S
H2439 C2465 0.950 . S
H2440 C2466 0.950 . S
H2441 C2468 0.950 . S
H2442 C2471 0.950 . S
H2443 C2472 0.950 . S
H2444 C2474 0.952 . S
H2445 C2475 0.950 . S
C2446 H2428 0.951 . S
C2446 C2447 1.366 . S
C2446 C2448 1.388 . S
C2447 C2446 1.366 . S
C2447 C2451 1.385 . S
C2448 H2429 0.951 . S
C2448 C2446 1.388 . S
C2448 C2449 1.366 . S
C2449 C2448 1.366 . S
C2449 C2450 1.414 . S
C2449 C2452 1.499 . S
C2450 H2430 0.950 . S
C2450 C2449 1.414 . S
C2450 C2451 1.374 . S
C2451 H2431 0.950 . S
C2451 C2447 1.385 . S
C2451 C2450 1.374 . S
C2452 C2449 1.499 . S
C2452 C2453 1.373 . S
C2452 C2454 1.389 . S
C2453 H2432 0.950 . S
C2453 C2452 1.373 . S
C2453 C2469 1.377 1_565 S
C2454 C2452 1.389 . S
C2454 C2455 1.524 . S
C2454 C2468 1.377 1_565 S
C2455 C2454 1.524 . S
C2455 C2456 1.397 . S
C2455 C2460 1.363 1_565 S
C2456 H2433 0.950 . S
C2456 C2455 1.397 . S
C2456 C2457 1.334 . S
C2457 H2434 0.950 . S
C2457 C2456 1.334 . S
C2457 C2458 1.287 . S
C2458 C2457 1.287 . S
C2458 C2459 1.521 1_565 S
C2458 H2477 0.913 . S
C2459 H2435 0.952 . S
C2459 C2458 1.521 1_545 S
C2459 C2460 1.415 . S
C2460 H2436 0.950 . S
C2460 C2455 1.363 1_545 S
C2460 C2459 1.415 . S
C2461 H2437 0.951 . S
C2461 C2462 1.366 . S
C2461 C2463 1.388 . S
C2462 C2461 1.366 . S
C2462 C2466 1.385 . S
C2463 H2438 0.951 . S
C2463 C2461 1.388 . S
C2463 C2464 1.366 . S
C2464 C2463 1.366 . S
C2464 C2465 1.414 . S
C2464 C2467 1.499 . S
C2465 H2439 0.950 . S
C2465 C2464 1.414 . S
C2465 C2466 1.374 . S
C2466 H2440 0.950 . S
C2466 C2462 1.385 . S
C2466 C2465 1.374 . S
C2467 C2464 1.499 . S
C2467 C2468 1.373 . S
C2467 C2469 1.389 . S
C2468 H2441 0.950 . S
C2468 C2454 1.377 1_545 S
C2468 C2467 1.373 . S
C2469 C2453 1.377 1_545 S
C2469 C2467 1.389 . S
C2469 C2470 1.524 . S
C2470 C2469 1.524 . S
C2470 C2471 1.397 . S
C2470 C2475 1.363 1_545 S
C2471 H2442 0.950 . S
C2471 C2470 1.397 . S
C2471 C2472 1.334 . S
C2472 H2443 0.950 . S
C2472 C2471 1.334 . S
C2472 C2473 1.287 . S
C2473 C2472 1.287 . S
C2473 C2474 1.521 1_545 S
C2473 H2476 0.999 . S
C2474 H2444 0.952 . S
C2474 C2473 1.521 1_565 S
C2474 C2475 1.415 . S
C2475 H2445 0.950 . S
C2475 C2470 1.363 1_565 S
C2475 C2474 1.415 . S
H2476 C2473 0.999 . S
H2477 C2458 0.913 . S
H2478 C2496 0.951 . S
H2479 C2498 0.951 . S
H2480 C2500 0.950 . S
H2481 C2501 0.950 . S
H2482 C2503 0.950 . S
H2483 C2506 0.950 . S
H2484 C2507 0.950 . S
H2485 C2509 0.950 . S
H2486 C2510 0.950 . S
H2487 C2511 0.951 . S
H2488 C2513 0.951 . S
H2489 C2515 0.950 . S
H2490 C2516 0.950 . S
H2491 C2518 0.950 . S
H2492 C2521 0.950 . S
H2493 C2522 0.950 . S
H2494 C2524 0.950 . S
H2495 C2525 0.950 . S
C2496 H2478 0.951 . S
C2496 C2497 1.366 . S
C2496 C2498 1.388 . S
C2497 C2496 1.366 . S
C2497 C2501 1.385 . S
C2498 H2479 0.951 . S
C2498 C2496 1.388 . S
C2498 C2499 1.366 . S
C2499 C2498 1.366 . S
C2499 C2500 1.414 . S
C2499 C2502 1.499 . S
C2500 H2480 0.950 . S
C2500 C2499 1.414 . S
C2500 C2501 1.374 . S
C2501 H2481 0.950 . S
C2501 C2497 1.385 . S
C2501 C2500 1.374 . S
C2502 C2499 1.499 . S
C2502 C2503 1.373 . S
C2502 C2504 1.389 . S
C2503 H2482 0.950 . S
C2503 C2502 1.373 . S
C2503 C2519 1.377 1_655 S
C2504 C2502 1.389 . S
C2504 C2505 1.524 . S
C2504 C2518 1.377 1_655 S
C2505 C2504 1.524 . S
C2505 C2506 1.397 . S
C2505 C2510 1.363 . S
C2506 H2483 0.950 . S
C2506 C2505 1.397 . S
C2506 C2507 1.334 . S
C2507 H2484 0.950 . S
C2507 C2506 1.334 . S
C2507 C2508 1.287 . S
C2508 C2507 1.287 . S
C2508 C2509 1.524 . S
C2508 H2527 0.913 . S
C2509 H2485 0.950 . S
C2509 C2508 1.524 . S
C2509 C2510 1.415 . S
C2510 H2486 0.950 . S
C2510 C2505 1.363 . S
C2510 C2509 1.415 . S
C2511 H2487 0.951 . S
C2511 C2512 1.366 . S
C2511 C2513 1.388 . S
C2512 C2511 1.366 . S
C2512 C2516 1.385 . S
C2513 H2488 0.951 . S
C2513 C2511 1.388 . S
C2513 C2514 1.366 . S
C2514 C2513 1.366 . S
C2514 C2515 1.414 . S
C2514 C2517 1.499 . S
C2515 H2489 0.950 . S
C2515 C2514 1.414 . S
C2515 C2516 1.374 . S
C2516 H2490 0.950 . S
C2516 C2512 1.385 . S
C2516 C2515 1.374 . S
C2517 C2514 1.499 . S
C2517 C2518 1.373 . S
C2517 C2519 1.389 . S
C2518 H2491 0.950 . S
C2518 C2504 1.377 1_455 S
C2518 C2517 1.373 . S
C2519 C2503 1.377 1_455 S
C2519 C2517 1.389 . S
C2519 C2520 1.524 . S
C2520 C2519 1.524 . S
C2520 C2521 1.397 . S
C2520 C2525 1.363 . S
C2521 H2492 0.950 . S
C2521 C2520 1.397 . S
C2521 C2522 1.334 . S
C2522 H2493 0.950 . S
C2522 C2521 1.334 . S
C2522 C2523 1.287 . S
C2523 C2522 1.287 . S
C2523 C2524 1.524 . S
C2523 H2526 0.999 . S
C2524 H2494 0.950 . S
C2524 C2523 1.524 . S
C2524 C2525 1.415 . S
C2525 H2495 0.950 . S
C2525 C2520 1.363 . S
C2525 C2524 1.415 . S
H2526 C2523 0.999 . S
H2527 C2508 0.913 . S
C547 C358 1.218 . S
C562 C28 1.219 . S
C597 C391 1.218 . S
C612 C61 1.219 . S
C647 C292 1.218 . S
C662 C94 1.219 . S
C697 C325 1.219 . S
C712 C127 1.218 . S
C747 C160 1.219 . S
C762 C490 1.218 . S
C797 C193 1.219 . S
C812 C523 1.218 . S
C847 C424 1.218 . S
C862 C226 1.219 . S
C897 C457 1.218 . S
C912 C259 1.219 . S
C947 C116 1.481 1_545 S
C962 N5 1.473 . S
C997 N38 1.473 . S
C1012 C17 1.480 1_655 S
C1047 C50 1.480 1_565 S
C1062 N71 1.473 . S
C1097 N104 1.473 . S
C1112 C83 1.480 1_455 S
C1147 C182 1.513 . S
C1162 N137 1.473 . S
C1197 C215 1.513 . S
C1212 N170 1.473 . S
C1247 C248 1.513 . S
C1262 N203 1.473 . S
C1297 N236 1.473 . S
C1312 C149 1.513 . S
C1347 N269 1.474 . S
C1362 C380 1.481 1_565 S
C1397 N302 1.473 . S
C1412 C281 1.480 1_455 S
C1447 C314 1.480 1_545 S
C1462 N335 1.473 . S
C1497 N368 1.473 . S
C1512 C347 1.480 1_655 S
C1547 N401 1.473 . S
C1562 C446 1.513 . S
C1597 N434 1.474 . S
C1612 C479 1.514 . S
C1647 N467 1.473 . S
C1662 C512 1.513 . S
C1697 C413 1.513 . S
C1712 N500 1.473 . S
C1747 C239 0.682 . S
C1762 C8 0.681 . S
C1797 C41 0.681 . S
C1812 C140 0.681 . S
C1847 C173 0.682 . S
C1862 C74 0.682 . S
C1897 C206 0.682 . S
C1912 C107 0.682 . S
C1947 C272 0.681 . S
C1962 C503 0.681 . S
C1997 C404 0.681 . S
C2012 C305 0.681 . S
C2047 C338 0.681 . S
C2062 C437 0.682 . S
C2097 C470 0.682 . S
C2112 C371 0.682 . S
C2147 N80 1.685 . S
C2162 N14 1.685 . S
C2197 N113 1.685 . S
C2212 N47 1.685 . S
C2247 N146 1.685 . S
C2262 N212 1.685 . S
C2297 N179 1.685 . S
C2312 N245 1.685 . S
C2347 N278 1.685 . S
C2362 N344 1.685 . S
C2397 N377 1.685 . S
C2412 N311 1.685 . S
C2447 N410 1.685 . S
C2462 N476 1.685 . S
C2497 N509 1.685 . S
C2512 N443 1.685 . S
