# Generated by pormake.
# Topology hcp, (12)-cn, num edge types: 1
# Building blocks:
#     Node 0, Type 0, BuildingBlock: EZIPEK_clean_sbu_0, # of connection points: 12
#     Node 1, Type 0, BuildingBlock: EZIPEK_clean_sbu_0, # of connection points: 12
#     Edge 2, Type (0, 0), BuildingBlock: XUDNAN_clean_linker_2, # of connection points: 2
#     Edge 3, Type (0, 0), BuildingBlock: XUDNAN_clean_linker_2, # of connection points: 2
#     Edge 4, Type (0, 0), BuildingBlock: XUDNAN_clean_linker_2, # of connection points: 2
#     Edge 5, Type (0, 0), BuildingBlock: XUDNAN_clean_linker_2, # of connection points: 2
#     Edge 6, Type (0, 0), BuildingBlock: XUDNAN_clean_linker_2, # of connection points: 2
#     Edge 7, Type (0, 0), BuildingBlock: XUDNAN_clean_linker_2, # of connection points: 2
#     Edge 8, Type (0, 0), BuildingBlock: XUDNAN_clean_linker_2, # of connection points: 2
#     Edge 9, Type (0, 0), BuildingBlock: XUDNAN_clean_linker_2, # of connection points: 2
#     Edge 10, Type (0, 0), BuildingBlock: XUDNAN_clean_linker_2, # of connection points: 2
#     Edge 11, Type (0, 0), BuildingBlock: XUDNAN_clean_linker_2, # of connection points: 2
#     Edge 12, Type (0, 0), BuildingBlock: XUDNAN_clean_linker_2, # of connection points: 2
#     Edge 13, Type (0, 0), BuildingBlock: XUDNAN_clean_linker_2, # of connection points: 2
# Relax obj value: 0.186
# Max RMSD: 0.270
# Mean RMSD: 0.270
data_MOF--net-hcp--node1-EZIPEK_clean_sbu_0--edge1-XUDNAN_clean_linker_2
_symmetry_space_group_name_H-M    P1
_symmetry_Int_Tables_number       1
_symmetry_cell_setting            triclinic
loop_
_symmetry_equiv_pos_as_xyz
'x, y, z'
_cell_length_a     18.756589
_cell_length_b     18.724414
_cell_length_c     29.015187
_cell_angle_alpha  90.010277
_cell_angle_beta   90.09547
_cell_angle_gamma 119.88624
loop_
_atom_site_label
_atom_site_type_symbol
_atom_site_fract_x
_atom_site_fract_y
_atom_site_fract_z
_atom_type_partial_charge
C0 C 0.66011 0.07946 0.29771 0.0
C1 C 0.82579 0.38934 0.17075 0.0
C2 C 0.50402 0.22958 0.42985 0.0
C3 C 0.62824 0.54619 0.2853 0.0
C4 C 0.40153 0.30686 0.2946 0.0
C5 C 0.56285 0.14283 0.17293 0.0
C6 C 0.70913 0.48225 0.4241 0.0
C7 C 0.90331 0.34579 0.29539 0.0
C8 C 0.88115 0.57799 0.30065 0.0
C9 C 0.57247 0.41243 0.16834 0.0
C10 C 0.75093 0.2719 0.42912 0.0
C11 C 0.41358 0.08066 0.30026 0.0
Eu12 Eu 0.71581 0.25652 0.2475 0.0
O13 O 0.65332 0.31815 0.22085 0.0
O14 O 0.71793 0.26722 0.32146 0.0
Eu15 Eu 0.52739 0.2559 0.24402 0.0
Eu16 Eu 0.77645 0.39319 0.3465 0.0
O17 O 0.59538 0.20269 0.27469 0.0
O18 O 0.77079 0.38106 0.27277 0.0
Eu19 Eu 0.59737 0.19575 0.34875 0.0
Eu20 Eu 0.71767 0.44569 0.24162 0.0
O21 O 0.5344 0.25599 0.31861 0.0
O22 O 0.59566 0.37623 0.27129 0.0
O23 O 0.70473 0.43987 0.31619 0.0
O24 O 0.65142 0.32267 0.36803 0.0
Eu25 Eu 0.58114 0.37712 0.34507 0.0
O26 O 0.70328 0.13512 0.26575 0.0
O27 O 0.78242 0.31112 0.18282 0.0
O28 O 0.53058 0.30806 0.41606 0.0
O29 O 0.58883 0.49558 0.32043 0.0
O30 O 0.41991 0.27346 0.25937 0.0
O31 O 0.51842 0.17778 0.1835 0.0
O32 O 0.76016 0.45364 0.41315 0.0
O33 O 0.89042 0.38772 0.32826 0.0
O34 O 0.83599 0.56086 0.26235 0.0
O35 O 0.65212 0.45439 0.17879 0.0
O36 O 0.67217 0.21679 0.41788 0.0
O37 O 0.46909 0.09303 0.33279 0.0
O38 O 0.64643 0.47179 0.39852 0.0
O39 O 0.44892 0.34253 0.33131 0.0
O40 O 0.84881 0.29571 0.264 0.0
O41 O 0.63388 0.15938 0.19327 0.0
O42 O 0.81418 0.44977 0.18826 0.0
O43 O 0.67763 0.53922 0.25468 0.0
O44 O 0.61967 0.08971 0.33255 0.0
O45 O 0.51048 0.17397 0.40521 0.0
O46 O 0.42322 0.13003 0.26466 0.0
O47 O 0.51733 0.34113 0.18863 0.0
O48 O 0.80356 0.32941 0.40125 0.0
O49 O 0.86877 0.52587 0.33486 0.0
C50 C 0.33088 0.41336 0.80626 0.0
C51 C 0.16283 0.54843 0.67063 0.0
C52 C 0.48547 0.72623 0.92928 0.0
C53 C 0.3529 0.90685 0.78263 0.0
C54 C 0.27441 0.76793 0.92232 0.0
C55 C 0.08624 0.42913 0.79706 0.0
C56 C 0.58341 0.89641 0.7957 0.0
C57 C 0.42402 0.5718 0.67414 0.0
C58 C 0.41419 0.8311 0.66915 0.0
C59 C 0.08925 0.66075 0.79026 0.0
C60 C 0.55967 0.63506 0.79252 0.0
C61 C 0.23942 0.51997 0.93155 0.0
Eu62 Eu 0.27321 0.52936 0.75011 0.0
O63 O 0.21798 0.59993 0.77325 0.0
O64 O 0.39189 0.60119 0.77773 0.0
Eu65 Eu 0.20803 0.60766 0.84653 0.0
Eu66 Eu 0.45809 0.7197 0.74501 0.0
O67 O 0.27073 0.54238 0.82378 0.0
O68 O 0.33248 0.65251 0.72154 0.0
Eu69 Eu 0.39221 0.59554 0.85154 0.0
Eu70 Eu 0.2675 0.7161 0.74051 0.0
O71 O 0.33342 0.66493 0.86862 0.0
O72 O 0.27806 0.72593 0.81536 0.0
O73 O 0.38853 0.77072 0.77089 0.0
O74 O 0.45443 0.71714 0.81983 0.0
Eu75 Eu 0.40233 0.7882 0.8444 0.0
O76 O 0.29207 0.42345 0.77055 0.0
O77 O 0.20258 0.51165 0.68623 0.0
O78 O 0.45105 0.77182 0.91655 0.0
O79 O 0.39534 0.89616 0.81626 0.0
O80 O 0.22302 0.68812 0.91164 0.0
O81 O 0.09711 0.48456 0.82922 0.0
O82 O 0.56725 0.84258 0.76178 0.0
O83 O 0.46503 0.652 0.68315 0.0
O84 O 0.33418 0.79189 0.67851 0.0
O85 O 0.14111 0.69545 0.75527 0.0
O86 O 0.51033 0.59989 0.82876 0.0
O87 O 0.31932 0.54703 0.92144 0.0
O88 O 0.53407 0.88685 0.83103 0.0
O89 O 0.33689 0.81957 0.89658 0.0
O90 O 0.35612 0.51598 0.69621 0.0
O91 O 0.14201 0.43378 0.76674 0.0
O92 O 0.17604 0.62265 0.68545 0.0
O93 O 0.2994 0.84913 0.75363 0.0
O94 O 0.36582 0.46578 0.84111 0.0
O95 O 0.48825 0.67128 0.9023 0.0
O96 O 0.18543 0.51883 0.90204 0.0
O97 O 0.10383 0.63058 0.82847 0.0
O98 O 0.55213 0.68171 0.76023 0.0
O99 O 0.46951 0.81594 0.69016 0.0
H100 H 0.30667 0.92228 0.94628 0.0
H101 H 0.2661 0.69271 1.00409 0.0
H102 H 0.33551 0.7633 0.07547 0.0
H103 H 0.50149 0.03943 0.98332 0.0
H104 H 0.49775 0.13122 0.99752 0.0
H105 H 0.42913 0.06125 0.95463 0.0
H106 H 0.3023 0.04442 0.9993 0.0
H107 H 0.37053 0.11735 1.04141 0.0
H108 H 0.29082 0.01686 0.05947 0.0
H109 H 0.435 0.86466 0.13423 0.0
H110 H 0.52785 0.98382 0.18319 0.0
H111 H 0.50265 0.14826 0.08817 0.0
C112 C 0.308 0.88605 0.97502 0.0
C113 C 0.27882 0.8006 0.96961 0.0
C114 C 0.28499 0.75665 1.0075 0.0
C115 C 0.3261 0.7971 0.04814 0.0
C116 C 0.3601 0.88222 0.05075 0.0
C117 C 0.34886 0.92591 1.01584 0.0
C118 C 0.39587 0.01769 1.02582 0.0
C119 C 0.45981 0.06512 0.98807 0.0
C120 C 0.33633 0.05104 1.03188 0.0
C121 C 0.43728 0.01892 0.07099 0.0
C122 C 0.41647 0.94023 0.08467 0.0
C123 C 0.45072 0.92643 0.12412 0.0
C124 C 0.50476 -0.00548 0.15126 0.0
C125 C 0.52372 0.07517 0.13894 0.0
C126 C 0.48998 0.08724 0.09804 0.0
H127 H 0.48704 0.63968 0.59026 0.0
H128 H 0.45624 0.44564 0.68357 0.0
H129 H 0.54957 0.41942 0.63504 0.0
H130 H 0.48535 0.53187 0.48568 0.0
H131 H 0.55834 0.62525 0.45686 0.0
H132 H 0.49135 0.6284 0.50009 0.0
H133 H 0.61936 0.73968 0.54393 0.0
H134 H 0.68652 0.73425 0.50147 0.0
H135 H 0.69862 0.7176 0.5615 0.0
H136 H 0.6498 0.41784 0.57717 0.0
H137 H 0.71823 0.41548 0.50576 0.0
H138 H 0.67986 0.60627 0.44812 0.0
C139 C 0.49894 0.59071 0.59995 0.0
C140 C 0.46406 0.54408 0.64038 0.0
C141 C 0.4811 0.48081 0.65222 0.0
C142 C 0.53519 0.46663 0.62532 0.0
C143 C 0.57074 0.51559 0.58642 0.0
C144 C 0.55123 0.57458 0.57297 0.0
C145 C 0.59257 0.6144 0.52779 0.0
C146 C 0.52808 0.599 0.4904 0.0
C147 C 0.65285 0.70698 0.53408 0.0
C148 C 0.63803 0.56815 0.51764 0.0
C149 C 0.62638 0.51305 0.55249 0.0
C150 C 0.65938 0.46104 0.54983 0.0
C151 C 0.69981 0.46096 0.50916 0.0
C152 C 0.70601 0.5111 0.47132 0.0
C153 C 0.67824 0.56849 0.47682 0.0
H154 H 0.91611 0.51884 0.10807 0.0
H155 H 0.89506 0.29253 0.16176 0.0
H156 H 0.01483 0.31534 0.11768 0.0
H157 H 0.95537 0.47086 0.99424 0.0
H158 H 0.02119 0.57705 0.97832 0.0
H159 H 0.94194 0.5506 1.02057 0.0
H160 H 0.05145 0.64904 0.08146 0.0
H161 H 0.12523 0.67729 1.03596 0.0
H162 H 0.14246 0.64109 0.09023 0.0
H163 H 0.14114 0.36195 0.06658 0.0
H164 H 0.23487 0.40963 0.99854 0.0
H165 H 0.15473 0.58526 0.96925 0.0
C166 C 0.9376 0.47506 0.11115 0.0
C167 C 0.89704 0.40592 0.1403 0.0
C168 C 0.9249 0.34744 0.14068 0.0
C169 C -0.00575 0.35999 0.11606 0.0
C170 C 0.03417 0.42942 0.08868 0.0
C171 C 0.00469 0.48405 0.08449 0.0
C172 C 0.04901 0.54449 1.04605 0.0
C173 C 0.98829 0.53514 1.00753 0.0
C174 C 0.09492 0.63318 0.06459 0.0
C175 C 0.10815 0.51586 1.0303 0.0
C176 C 0.1009 0.45109 0.05606 0.0
C177 C 0.14792 0.41335 1.0462 0.0
C178 C 0.20166 0.44105 1.00779 0.0
C179 C 0.20569 0.50405 0.97928 0.0
C180 C 0.15792 0.5409 0.99142 0.0
H181 H 0.32976 0.84765 0.59569 0.0
H182 H 0.5599 0.9783 0.67034 0.0
H183 H 0.59693 0.10377 0.62479 0.0
H184 H 0.41208 0.94058 0.48448 0.0
H185 H 0.32015 0.9421 0.468 0.0
H186 H 0.31371 0.86482 0.5073 0.0
H187 H 0.2399 0.9103 0.56601 0.0
H188 H 0.24909 0.98974 0.52731 0.0
H189 H 0.28968 0.016 0.58505 0.0
H190 H 0.60836 0.21646 0.57007 0.0
H191 H 0.60507 0.29445 0.50252 0.0
H192 H 0.36838 0.09265 0.46331 0.0
C193 C 0.38847 0.90238 0.60215 0.0
C194 C 0.44251 0.90235 0.63654 0.0
C195 C 0.5184 0.9757 0.64372 0.0
C196 C 0.53923 0.04787 0.61842 0.0
C197 C 0.48366 0.04622 0.58565 0.0
C198 C 0.41058 0.97466 0.57678 0.0
C199 C 0.36357 0.98766 0.53795 0.0
C200 C 0.35173 0.93044 0.49701 0.0
C201 C 0.28064 0.97517 0.55513 0.0
C202 C 0.42184 0.0775 0.52594 0.0
C203 C 0.49001 0.11071 0.5545 0.0
C204 C 0.55431 0.19126 0.54827 0.0
C205 C 0.55113 0.23686 0.51046 0.0
C206 C 0.48501 0.20262 0.47876 0.0
C207 C 0.41804 0.12264 0.48801 0.0
H208 H 0.65959 0.51903 0.09743 0.0
H209 H 0.42334 0.40699 0.16566 0.0
H210 H 0.38451 0.49385 0.11996 0.0
H211 H 0.691 0.72427 0.0888 0.0
H212 H 0.7361 0.74333 1.03212 0.0
H213 H 0.74608 0.67317 0.07054 0.0
H214 H 0.68087 0.5567 1.00951 0.0
H215 H 0.67356 0.6274 0.97047 0.0
H216 H 0.58301 0.53115 0.98438 0.0
H217 H 0.37191 0.59509 0.0657 0.0
H218 H 0.37666 0.67902 0.99907 0.0
H219 H 0.6201 0.72598 0.96563 0.0
C220 C 0.59921 0.51197 0.10247 0.0
C221 C 0.54401 0.45488 0.13526 0.0
C222 C 0.46595 0.44841 0.14047 0.0
C223 C 0.44398 0.49878 0.11501 0.0
C224 C 0.5006 0.55568 0.0839 0.0
C225 C 0.57597 0.56109 0.0768 0.0
C226 C 0.62396 0.62381 1.03942 0.0
C227 C 0.70404 0.69538 0.0589 0.0
C228 C 0.64133 0.5823 0.99853 0.0
C229 C 0.56368 0.6525 1.02626 0.0
C230 C 0.49349 0.61366 0.05295 0.0
C231 C 0.42743 0.62696 1.04537 0.0
C232 C 0.43131 0.67714 1.00812 0.0
C233 C 0.50001 0.71333 0.97834 0.0
C234 C 0.56822 0.7028 0.98891 0.0
H235 H 0.82625 0.41741 0.47209 0.0
H236 H 0.76477 0.16392 0.49054 0.0
H237 H 0.86031 0.20817 0.55788 0.0
H238 H 0.02558 0.50941 0.49334 0.0
H239 H 0.0361 0.5981 0.5238 0.0
H240 H 0.95445 0.54588 0.48261 0.0
H241 H 0.85289 0.53163 0.54409 0.0
H242 H 0.92786 0.57494 0.58919 0.0
H243 H 0.84043 0.47298 0.59584 0.0
H244 H 0.98507 0.28787 0.60957 0.0
H245 H 0.10308 0.3844 0.65476 0.0
H246 H 0.06757 0.58659 0.61075 0.0
C247 C 0.82686 0.36945 0.49215 0.0
C248 C 0.78399 0.28613 0.47703 0.0
C249 C 0.7939 0.2272 0.50226 0.0
C250 C 0.84874 0.25232 0.54024 0.0
C251 C 0.89116 0.33598 0.55295 0.0
C252 C 0.87809 0.3931 0.53059 0.0
C253 C 0.9348 0.48028 0.54828 0.0
C254 C -0.00899 0.53666 0.50971 0.0
C255 C 0.88589 0.51684 0.57073 0.0
C256 C 0.98387 0.46422 0.5839 0.0
C257 C 0.95883 0.38087 0.58517 0.0
C258 C 0.00239 0.35232 0.61016 0.0
C259 C 0.07069 0.4091 0.63557 0.0
C260 C 0.09425 0.49438 0.6382 0.0
C261 C 0.05013 0.52209 0.61123 0.0
H262 H 0.62794 0.95486 0.3603 0.0
H263 H 0.66543 0.01784 0.2147 0.0
H264 H 0.64165 0.88058 0.19629 0.0
H265 H 0.73731 0.84623 0.35995 0.0
H266 H 0.67071 0.76752 0.39996 0.0
H267 H 0.68021 0.86793 0.40218 0.0
H268 H 0.52213 0.80085 0.39339 0.0
H269 H 0.51264 0.70027 0.39063 0.0
H270 H 0.47137 0.73424 0.34493 0.0
H271 H 0.62429 0.74443 0.1922 0.0
H272 H 0.62663 0.61577 0.20402 0.0
H273 H 0.60464 0.63637 0.35187 0.0
C274 C 0.63034 0.9391 0.32464 0.0
C275 C 0.64849 -0.00299 0.28902 0.0
C276 C 0.65225 0.97486 0.24273 0.0
C277 C 0.63789 0.89659 0.2317 0.0
C278 C 0.62055 0.84106 0.26731 0.0
C279 C 0.61761 0.86094 0.31292 0.0
C280 C 0.60574 0.79126 0.34447 0.0
C281 C 0.67781 0.81997 0.37863 0.0
C282 C 0.52303 0.75448 0.36985 0.0
C283 C 0.60552 0.73118 0.30931 0.0
C284 C 0.61223 0.76086 0.26501 0.0
C285 C 0.6184 0.71986 0.22662 0.0
C286 C 0.62022 0.64726 0.2337 0.0
C287 C 0.61634 0.61699 0.27882 0.0
C288 C 0.60667 0.65809 0.31702 0.0
H289 H 0.97743 0.64683 0.85629 0.0
H290 H 0.0129 0.64344 0.70845 0.0
H291 H 0.87299 0.6177 0.69488 0.0
H292 H 0.75584 0.48864 0.85722 0.0
H293 H 0.73123 0.54184 0.90061 0.0
H294 H 0.83148 0.55076 0.89993 0.0
H295 H 0.89981 0.70983 0.89631 0.0
H296 H 0.79985 0.70106 0.89734 0.0
H297 H 0.87034 0.75633 0.85124 0.0
H298 H 0.73741 0.6038 0.69566 0.0
H299 H 0.61321 0.61248 0.71073 0.0
H300 H 0.66031 0.62454 0.85789 0.0
C301 C 0.95518 0.63991 0.82118 0.0
C302 C 0.00602 0.64774 0.78343 0.0
C303 C 0.97544 0.63902 0.73789 0.0
C304 C 0.89566 0.62326 0.72978 0.0
C305 C 0.84724 0.61638 0.76755 0.0
C306 C 0.8755 0.62491 0.81236 0.0
C307 C 0.81252 0.62185 0.84623 0.0
C308 C 0.78089 0.54625 0.87786 0.0
C309 C 0.84775 0.70205 0.87441 0.0
C310 C 0.74614 0.61338 0.81312 0.0
C311 C 0.76721 0.60866 0.76802 0.0
C312 C 0.71953 0.60649 0.73078 0.0
C313 C 0.64941 0.61181 0.73968 0.0
C314 C 0.62779 0.61923 0.78541 0.0
C315 C 0.67527 0.61767 0.82272 0.0
H316 H 0.30105 0.98184 0.23477 0.0
H317 H 0.34131 0.02031 0.38236 0.0
H318 H 0.20246 0.90476 0.3968 0.0
H319 H 0.08128 0.91708 0.2348 0.0
H320 H 0.05533 0.83861 0.19163 0.0
H321 H 0.15582 0.92943 0.19177 0.0
H322 H 0.22384 0.83837 0.19535 0.0
H323 H 0.12373 0.74743 0.19475 0.0
H324 H 0.19504 0.76299 0.2406 0.0
H325 H 0.06502 0.78579 0.39648 0.0
H326 H 0.93736 0.65593 0.38204 0.0
H327 H 0.9832 0.68676 0.23464 0.0
C328 C 0.27997 0.96603 0.26999 0.0
C329 C 0.33141 0.00965 0.30749 0.0
C330 C 0.30288 0.98701 0.35321 0.0
C331 C 0.22388 0.92213 0.36177 0.0
C332 C 0.17453 0.88029 0.32423 0.0
C333 C 0.20131 0.90015 0.27926 0.0
C334 C 0.13755 0.84004 0.24567 0.0
C335 C 0.10561 0.88394 0.2141 0.0
C336 C 0.17211 0.79451 0.21745 0.0
C337 C 0.07169 0.78272 0.27907 0.0
C338 C 0.09423 0.80853 0.32407 0.0
C339 C 0.04624 0.76484 0.36146 0.0
C340 C 0.97408 0.69107 0.35286 0.0
C341 C 0.95098 0.66141 0.30725 0.0
C342 C -0.00082 0.70879 0.26975 0.0
H343 H 0.23131 0.25783 0.77092 0.0
H344 H 0.46868 0.41556 0.83506 0.0
H345 H 0.50487 0.30711 0.82578 0.0
H346 H 0.1971 0.07339 0.82604 0.0
H347 H 0.14734 0.00758 0.77715 0.0
H348 H 0.14233 0.10035 0.78484 0.0
H349 H 0.20318 0.14841 0.70309 0.0
H350 H 0.20953 0.05616 0.69549 0.0
H351 H 0.30012 0.15579 0.68874 0.0
H352 H 0.51618 0.18531 0.81137 0.0
H353 H 0.49448 0.04548 0.80388 0.0
H354 H 0.24683 0.9594 0.75276 0.0
C355 C 0.29074 0.26909 0.78294 0.0
C356 C 0.34705 0.34452 0.80396 0.0
C357 C 0.42416 0.35753 0.81956 0.0
C358 C 0.44582 0.29689 0.81382 0.0
C359 C 0.38943 0.22347 0.79275 0.0
C360 C 0.31293 0.20832 0.77826 0.0
C361 C 0.26166 0.12089 0.76045 0.0
C362 C 0.18245 0.07272 0.78883 0.0
C363 C 0.24251 0.12032 0.70887 0.0
C364 C 0.32077 0.08901 0.76851 0.0
C365 C 0.39478 0.15037 0.78596 0.0
C366 C 0.45859 0.13654 0.7978 0.0
C367 C 0.4454 0.05679 0.79358 0.0
C368 C 0.36849 0.99161 0.77837 0.0
C369 C 0.30628 0.00833 0.76417 0.0
H370 H 0.29929 0.31211 0.36183 0.0
H371 H 0.33381 0.31311 0.21392 0.0
H372 H 0.22402 0.34547 0.20115 0.0
H373 H 0.07769 0.19963 0.35069 0.0
H374 H 0.06008 0.24912 0.39914 0.0
H375 H 0.14996 0.23786 0.39788 0.0
H376 H 0.24205 0.39546 0.40924 0.0
H377 H 0.15234 0.40726 0.40976 0.0
H378 H 0.23401 0.46485 0.36928 0.0
H379 H 0.12001 0.38693 0.20364 0.0
H380 H -0.00618 0.39263 0.21923 0.0
H381 H 0.00198 0.33478 0.36249 0.0
C382 C 0.2837 0.31965 0.3269 0.0
C383 C 0.32755 0.31404 0.28882 0.0
C384 C 0.30345 0.32071 0.24353 0.0
C385 C 0.2412 0.33917 0.23591 0.0
C386 C 0.20102 0.34708 0.27395 0.0
C387 C 0.21831 0.33401 0.31844 0.0
C388 C 0.15646 0.33403 0.35212 0.0
C389 C 0.10818 0.25016 0.37637 0.0
C390 C 0.19878 0.40462 0.38717 0.0
C391 C 0.10215 0.34892 0.31927 0.0
C392 C 0.13154 0.35927 0.2747 0.0
C393 C 0.09458 0.37615 0.23807 0.0
C394 C 0.02251 0.37774 0.24676 0.0
C395 C 0.98656 0.3591 0.2908 0.0
C396 C 0.02817 0.34782 0.3282 0.0
H397 H 0.97897 0.32661 0.86386 0.0
H398 H 0.00749 0.37504 0.71738 0.0
H399 H 0.87979 0.24542 0.70195 0.0
H400 H 0.90285 0.11522 0.85881 0.0
H401 H 0.82654 0.0858 0.90343 0.0
H402 H 0.91671 0.18659 0.90435 0.0
H403 H 0.82562 0.25459 0.90587 0.0
H404 H 0.735 0.1539 0.9058 0.0
H405 H 0.74783 0.22794 0.8622 0.0
H406 H 0.76854 0.10483 0.70125 0.0
H407 H 0.65484 0.96539 0.71485 0.0
H408 H 0.68068 0.00838 0.86267 0.0
C409 C 0.9568 0.31026 0.8288 0.0
C410 C 0.00365 0.35856 0.79119 0.0
C411 C 0.97354 0.33634 0.74587 0.0
C412 C 0.90084 0.26359 0.73702 0.0
C413 C 0.85802 0.21477 0.77432 0.0
C414 C 0.8829 0.23757 0.81942 0.0
C415 C 0.82486 0.17143 0.85259 0.0
C416 C 0.87049 0.1378 0.88149 0.0
C417 C 0.78069 0.20392 0.88344 0.0
C418 C 0.76581 0.10736 0.81872 0.0
C419 C 0.78734 0.13405 0.77386 0.0
C420 C 0.74884 0.0839 0.73613 0.0
C421 C 0.68454 0.00462 0.74429 0.0
C422 C 0.65762 0.977 0.78973 0.0
C423 C 0.69905 0.02884 0.82757 0.0
loop_
_geom_bond_atom_site_label_1
_geom_bond_atom_site_label_2
_geom_bond_distance
_geom_bond_site_symmetry_2
_ccdc_geom_bond_type
C0 O26 1.283 . S
C0 O44 1.283 . S
C1 O27 1.283 . S
C1 O42 1.283 . S
C2 O28 1.283 . S
C2 O45 1.283 . S
C3 O29 1.283 . S
C3 O43 1.283 . S
C4 O30 1.283 . S
C4 O39 1.283 . S
C5 O31 1.283 . S
C5 O41 1.283 . S
C6 O32 1.283 . S
C6 O38 1.283 . S
C7 O33 1.283 . S
C7 O40 1.283 . S
C8 O34 1.283 . S
C8 O49 1.283 . S
C9 O35 1.283 . S
C9 O47 1.283 . S
C10 O36 1.283 . S
C10 O48 1.283 . S
C11 O37 1.283 . S
C11 O46 1.283 . S
Eu12 O13 2.370 . S
Eu12 O14 2.370 . S
Eu12 O17 2.370 . S
Eu12 O18 2.370 . S
Eu12 O26 2.363 . S
Eu12 O27 2.363 . S
Eu12 O40 2.363 . S
Eu12 O41 2.363 . S
O13 Eu12 2.370 . S
O13 Eu15 2.370 . S
O13 Eu20 2.370 . S
O14 Eu12 2.370 . S
O14 Eu16 2.370 . S
O14 Eu19 2.370 . S
Eu15 O13 2.370 . S
Eu15 O17 2.370 . S
Eu15 O21 2.370 . S
Eu15 O22 2.370 . S
Eu15 O30 2.363 . S
Eu15 O31 2.363 . S
Eu15 O46 2.363 . S
Eu15 O47 2.363 . S
Eu16 O14 2.370 . S
Eu16 O18 2.370 . S
Eu16 O23 2.370 . S
Eu16 O24 2.370 . S
Eu16 O32 2.363 . S
Eu16 O33 2.363 . S
Eu16 O48 2.363 . S
Eu16 O49 2.363 . S
O17 Eu12 2.370 . S
O17 Eu15 2.370 . S
O17 Eu19 2.370 . S
O18 Eu12 2.370 . S
O18 Eu16 2.370 . S
O18 Eu20 2.370 . S
Eu19 O14 2.370 . S
Eu19 O17 2.370 . S
Eu19 O21 2.370 . S
Eu19 O24 2.370 . S
Eu19 O36 2.363 . S
Eu19 O37 2.363 . S
Eu19 O44 2.363 . S
Eu19 O45 2.363 . S
Eu20 O13 2.370 . S
Eu20 O18 2.370 . S
Eu20 O22 2.370 . S
Eu20 O23 2.370 . S
Eu20 O34 2.363 . S
Eu20 O35 2.363 . S
Eu20 O42 2.363 . S
Eu20 O43 2.363 . S
O21 Eu15 2.370 . S
O21 Eu19 2.370 . S
O21 Eu25 2.370 . S
O22 Eu15 2.370 . S
O22 Eu20 2.370 . S
O22 Eu25 2.370 . S
O23 Eu16 2.370 . S
O23 Eu20 2.370 . S
O23 Eu25 2.370 . S
O24 Eu16 2.370 . S
O24 Eu19 2.370 . S
O24 Eu25 2.370 . S
Eu25 O21 2.370 . S
Eu25 O22 2.370 . S
Eu25 O23 2.370 . S
Eu25 O24 2.370 . S
Eu25 O28 2.363 . S
Eu25 O29 2.363 . S
Eu25 O38 2.363 . S
Eu25 O39 2.363 . S
O26 C0 1.283 . S
O26 Eu12 2.363 . S
O27 C1 1.283 . S
O27 Eu12 2.363 . S
O28 C2 1.283 . S
O28 Eu25 2.363 . S
O29 C3 1.283 . S
O29 Eu25 2.363 . S
O30 C4 1.283 . S
O30 Eu15 2.363 . S
O31 C5 1.283 . S
O31 Eu15 2.363 . S
O32 C6 1.283 . S
O32 Eu16 2.363 . S
O33 C7 1.283 . S
O33 Eu16 2.363 . S
O34 C8 1.283 . S
O34 Eu20 2.363 . S
O35 C9 1.283 . S
O35 Eu20 2.363 . S
O36 C10 1.283 . S
O36 Eu19 2.363 . S
O37 C11 1.283 . S
O37 Eu19 2.363 . S
O38 C6 1.283 . S
O38 Eu25 2.363 . S
O39 C4 1.283 . S
O39 Eu25 2.363 . S
O40 C7 1.283 . S
O40 Eu12 2.363 . S
O41 C5 1.283 . S
O41 Eu12 2.363 . S
O42 C1 1.283 . S
O42 Eu20 2.363 . S
O43 C3 1.283 . S
O43 Eu20 2.363 . S
O44 C0 1.283 . S
O44 Eu19 2.363 . S
O45 C2 1.283 . S
O45 Eu19 2.363 . S
O46 C11 1.283 . S
O46 Eu15 2.363 . S
O47 C9 1.283 . S
O47 Eu15 2.363 . S
O48 C10 1.283 . S
O48 Eu16 2.363 . S
O49 C8 1.283 . S
O49 Eu16 2.363 . S
C50 O76 1.283 . S
C50 O94 1.283 . S
C51 O77 1.283 . S
C51 O92 1.283 . S
C52 O78 1.283 . S
C52 O95 1.283 . S
C53 O79 1.283 . S
C53 O93 1.283 . S
C54 O80 1.283 . S
C54 O89 1.283 . S
C55 O81 1.283 . S
C55 O91 1.283 . S
C56 O82 1.283 . S
C56 O88 1.283 . S
C57 O83 1.283 . S
C57 O90 1.283 . S
C58 O84 1.283 . S
C58 O99 1.283 . S
C59 O85 1.283 . S
C59 O97 1.283 . S
C60 O86 1.283 . S
C60 O98 1.283 . S
C61 O87 1.283 . S
C61 O96 1.283 . S
Eu62 O63 2.370 . S
Eu62 O64 2.370 . S
Eu62 O67 2.370 . S
Eu62 O68 2.370 . S
Eu62 O76 2.363 . S
Eu62 O77 2.363 . S
Eu62 O90 2.363 . S
Eu62 O91 2.363 . S
O63 Eu62 2.370 . S
O63 Eu65 2.370 . S
O63 Eu70 2.370 . S
O64 Eu62 2.370 . S
O64 Eu66 2.370 . S
O64 Eu69 2.370 . S
Eu65 O63 2.370 . S
Eu65 O67 2.370 . S
Eu65 O71 2.370 . S
Eu65 O72 2.370 . S
Eu65 O80 2.363 . S
Eu65 O81 2.363 . S
Eu65 O96 2.363 . S
Eu65 O97 2.363 . S
Eu66 O64 2.370 . S
Eu66 O68 2.370 . S
Eu66 O73 2.370 . S
Eu66 O74 2.370 . S
Eu66 O82 2.363 . S
Eu66 O83 2.363 . S
Eu66 O98 2.363 . S
Eu66 O99 2.363 . S
O67 Eu62 2.370 . S
O67 Eu65 2.370 . S
O67 Eu69 2.370 . S
O68 Eu62 2.370 . S
O68 Eu66 2.370 . S
O68 Eu70 2.370 . S
Eu69 O64 2.370 . S
Eu69 O67 2.370 . S
Eu69 O71 2.370 . S
Eu69 O74 2.370 . S
Eu69 O86 2.363 . S
Eu69 O87 2.363 . S
Eu69 O94 2.363 . S
Eu69 O95 2.363 . S
Eu70 O63 2.370 . S
Eu70 O68 2.370 . S
Eu70 O72 2.370 . S
Eu70 O73 2.370 . S
Eu70 O84 2.363 . S
Eu70 O85 2.363 . S
Eu70 O92 2.363 . S
Eu70 O93 2.363 . S
O71 Eu65 2.370 . S
O71 Eu69 2.370 . S
O71 Eu75 2.370 . S
O72 Eu65 2.370 . S
O72 Eu70 2.370 . S
O72 Eu75 2.370 . S
O73 Eu66 2.370 . S
O73 Eu70 2.370 . S
O73 Eu75 2.370 . S
O74 Eu66 2.370 . S
O74 Eu69 2.370 . S
O74 Eu75 2.370 . S
Eu75 O71 2.370 . S
Eu75 O72 2.370 . S
Eu75 O73 2.370 . S
Eu75 O74 2.370 . S
Eu75 O78 2.363 . S
Eu75 O79 2.363 . S
Eu75 O88 2.363 . S
Eu75 O89 2.363 . S
O76 C50 1.283 . S
O76 Eu62 2.363 . S
O77 C51 1.283 . S
O77 Eu62 2.363 . S
O78 C52 1.283 . S
O78 Eu75 2.363 . S
O79 C53 1.283 . S
O79 Eu75 2.363 . S
O80 C54 1.283 . S
O80 Eu65 2.363 . S
O81 C55 1.283 . S
O81 Eu65 2.363 . S
O82 C56 1.283 . S
O82 Eu66 2.363 . S
O83 C57 1.283 . S
O83 Eu66 2.363 . S
O84 C58 1.283 . S
O84 Eu70 2.363 . S
O85 C59 1.283 . S
O85 Eu70 2.363 . S
O86 C60 1.283 . S
O86 Eu69 2.363 . S
O87 C61 1.283 . S
O87 Eu69 2.363 . S
O88 C56 1.283 . S
O88 Eu75 2.363 . S
O89 C54 1.283 . S
O89 Eu75 2.363 . S
O90 C57 1.283 . S
O90 Eu62 2.363 . S
O91 C55 1.283 . S
O91 Eu62 2.363 . S
O92 C51 1.283 . S
O92 Eu70 2.363 . S
O93 C53 1.283 . S
O93 Eu70 2.363 . S
O94 C50 1.283 . S
O94 Eu69 2.363 . S
O95 C52 1.283 . S
O95 Eu69 2.363 . S
O96 C61 1.283 . S
O96 Eu65 2.363 . S
O97 C59 1.283 . S
O97 Eu65 2.363 . S
O98 C60 1.283 . S
O98 Eu66 2.363 . S
O99 C58 1.283 . S
O99 Eu66 2.363 . S
H100 C112 0.930 . S
H101 C114 0.930 . S
H102 C115 0.930 1_554 S
H103 C119 0.959 . S
H104 C119 0.959 . S
H105 C119 0.961 . S
H106 C120 0.969 . S
H107 C120 0.957 1_554 S
H108 C120 0.951 1_554 S
H109 C123 0.929 . S
H110 C124 0.931 1_565 S
H111 C126 0.930 . S
C112 H100 0.930 . S
C112 C113 1.399 . S
C112 C117 1.399 . S
C113 C112 1.399 . S
C113 C114 1.376 . S
C114 H101 0.930 . S
C114 C113 1.376 . S
C114 C115 1.388 . S
C115 H102 0.930 1_556 S
C115 C114 1.388 . S
C115 C116 1.390 . S
C116 C115 1.390 . S
C116 C117 1.394 . S
C116 C122 1.465 1_556 S
C117 C112 1.399 . S
C117 C116 1.394 . S
C117 C118 1.516 1_565 S
C118 C117 1.516 1_545 S
C118 C119 1.502 . S
C118 C120 1.565 . S
C118 C121 1.526 1_556 S
C119 H103 0.959 . S
C119 H104 0.959 . S
C119 H105 0.961 . S
C119 C118 1.502 . S
C120 H106 0.969 . S
C120 H107 0.957 1_556 S
C120 H108 0.951 1_556 S
C120 C118 1.565 . S
C121 C118 1.526 1_554 S
C121 C122 1.396 1_545 S
C121 C126 1.390 . S
C122 C116 1.465 1_554 S
C122 C121 1.396 1_565 S
C122 C123 1.399 . S
C123 H109 0.929 . S
C123 C122 1.399 . S
C123 C124 1.385 1_565 S
C124 H110 0.931 1_545 S
C124 C123 1.385 1_545 S
C124 C125 1.389 . S
C125 C124 1.389 . S
C125 C126 1.387 . S
C126 H111 0.930 . S
C126 C121 1.390 . S
C126 C125 1.387 . S
H127 C139 0.930 . S
H128 C141 0.930 . S
H129 C142 0.930 . S
H130 C146 0.959 . S
H131 C146 0.959 . S
H132 C146 0.961 . S
H133 C147 0.960 . S
H134 C147 0.961 . S
H135 C147 0.959 . S
H136 C150 0.929 . S
H137 C151 0.931 . S
H138 C153 0.930 . S
C139 H127 0.930 . S
C139 C140 1.399 . S
C139 C144 1.399 . S
C140 C139 1.399 . S
C140 C141 1.376 . S
C141 H128 0.930 . S
C141 C140 1.376 . S
C141 C142 1.388 . S
C142 H129 0.930 . S
C142 C141 1.388 . S
C142 C143 1.390 . S
C143 C142 1.390 . S
C143 C144 1.394 . S
C143 C149 1.465 . S
C144 C139 1.399 . S
C144 C143 1.394 . S
C144 C145 1.516 . S
C145 C144 1.516 . S
C145 C146 1.502 . S
C145 C147 1.561 . S
C145 C148 1.526 . S
C146 H130 0.959 . S
C146 H131 0.959 . S
C146 H132 0.961 . S
C146 C145 1.502 . S
C147 H133 0.960 . S
C147 H134 0.961 . S
C147 H135 0.959 . S
C147 C145 1.561 . S
C148 C145 1.526 . S
C148 C149 1.396 . S
C148 C153 1.390 . S
C149 C143 1.465 . S
C149 C148 1.396 . S
C149 C150 1.399 . S
C150 H136 0.929 . S
C150 C149 1.399 . S
C150 C151 1.385 . S
C151 H137 0.931 . S
C151 C150 1.385 . S
C151 C152 1.389 . S
C152 C151 1.389 . S
C152 C153 1.387 . S
C153 H138 0.930 . S
C153 C148 1.390 . S
C153 C152 1.387 . S
H154 C166 0.930 . S
H155 C168 0.930 . S
H156 C169 0.930 . S
H157 C173 0.959 . S
H158 C173 0.959 . S
H159 C173 0.969 . S
H160 C174 0.960 . S
H161 C174 0.961 . S
H162 C174 0.959 . S
H163 C177 0.929 . S
H164 C178 0.931 . S
H165 C180 0.930 . S
C166 H154 0.930 . S
C166 C167 1.399 . S
C166 C171 1.399 1_655 S
C167 C166 1.399 . S
C167 C168 1.376 . S
C168 H155 0.930 . S
C168 C167 1.376 . S
C168 C169 1.388 . S
C169 H156 0.930 . S
C169 C168 1.388 . S
C169 C170 1.390 . S
C170 C169 1.390 . S
C170 C171 1.394 1_655 S
C170 C176 1.465 1_654 S
C171 C166 1.399 1_455 S
C171 C170 1.394 1_455 S
C171 C172 1.516 . S
C172 C171 1.516 . S
C172 C173 1.502 1_554 S
C172 C174 1.561 . S
C172 C175 1.526 1_554 S
C173 H157 0.959 . S
C173 H158 0.959 . S
C173 H159 0.969 . S
C173 C172 1.502 1_556 S
C174 H160 0.960 . S
C174 H161 0.961 . S
C174 H162 0.959 . S
C174 C172 1.561 . S
C175 C172 1.526 1_556 S
C175 C176 1.396 . S
C175 C180 1.390 . S
C176 C170 1.465 1_456 S
C176 C175 1.396 . S
C176 C177 1.399 . S
C177 H163 0.929 . S
C177 C176 1.399 . S
C177 C178 1.385 . S
C178 H164 0.931 . S
C178 C177 1.385 . S
C178 C179 1.389 . S
C179 C178 1.389 . S
C179 C180 1.387 . S
C180 H165 0.930 . S
C180 C175 1.390 . S
C180 C179 1.387 . S
H181 C193 0.930 . S
H182 C195 0.930 1_545 S
H183 C196 0.930 . S
H184 C200 0.959 . S
H185 C200 0.959 . S
H186 C200 0.961 . S
H187 C201 0.960 . S
H188 C201 0.961 . S
H189 C201 0.959 . S
H190 C204 0.929 . S
H191 C205 0.931 . S
H192 C207 0.930 . S
C193 H181 0.930 . S
C193 C194 1.399 . S
C193 C198 1.399 . S
C194 C193 1.399 . S
C194 C195 1.376 . S
C195 H182 0.930 1_565 S
C195 C194 1.376 . S
C195 C196 1.388 1_565 S
C196 H183 0.930 . S
C196 C195 1.388 1_545 S
C196 C197 1.390 . S
C197 C196 1.390 . S
C197 C198 1.394 1_545 S
C197 C203 1.465 . S
C198 C193 1.399 . S
C198 C197 1.394 1_565 S
C198 C199 1.516 . S
C199 C198 1.516 . S
C199 C200 1.502 . S
C199 C201 1.561 . S
C199 C202 1.526 1_565 S
C200 H184 0.959 . S
C200 H185 0.959 . S
C200 H186 0.961 . S
C200 C199 1.502 . S
C201 H187 0.960 . S
C201 H188 0.961 . S
C201 H189 0.959 . S
C201 C199 1.561 . S
C202 C199 1.526 1_545 S
C202 C203 1.396 . S
C202 C207 1.390 . S
C203 C197 1.465 . S
C203 C202 1.396 . S
C203 C204 1.399 . S
C204 H190 0.929 . S
C204 C203 1.399 . S
C204 C205 1.385 . S
C205 H191 0.931 . S
C205 C204 1.385 . S
C205 C206 1.389 . S
C206 C205 1.389 . S
C206 C207 1.387 . S
C207 H192 0.930 . S
C207 C202 1.390 . S
C207 C206 1.387 . S
H208 C220 0.930 . S
H209 C222 0.930 . S
H210 C223 0.930 . S
H211 C227 0.959 . S
H212 C227 0.959 1_556 S
H213 C227 0.961 . S
H214 C228 0.960 . S
H215 C228 0.961 . S
H216 C228 0.959 . S
H217 C231 0.929 . S
H218 C232 0.931 . S
H219 C234 0.930 . S
C220 H208 0.930 . S
C220 C221 1.399 . S
C220 C225 1.399 . S
C221 C220 1.399 . S
C221 C222 1.376 . S
C222 H209 0.930 . S
C222 C221 1.376 . S
C222 C223 1.388 . S
C223 H210 0.930 . S
C223 C222 1.388 . S
C223 C224 1.390 . S
C224 C223 1.390 . S
C224 C225 1.394 . S
C224 C230 1.465 1_554 S
C225 C220 1.399 . S
C225 C224 1.394 . S
C225 C226 1.516 1_554 S
C226 C225 1.516 1_556 S
C226 C227 1.502 1_556 S
C226 C228 1.561 . S
C226 C229 1.526 . S
C227 H211 0.959 . S
C227 H212 0.959 1_554 S
C227 H213 0.961 . S
C227 C226 1.502 1_554 S
C228 H214 0.960 . S
C228 H215 0.961 . S
C228 H216 0.959 . S
C228 C226 1.561 . S
C229 C226 1.526 . S
C229 C230 1.396 . S
C229 C234 1.390 . S
C230 C224 1.465 1_556 S
C230 C229 1.396 . S
C230 C231 1.399 . S
C231 H217 0.929 . S
C231 C230 1.399 . S
C231 C232 1.385 . S
C232 H218 0.931 . S
C232 C231 1.385 . S
C232 C233 1.389 . S
C233 C232 1.389 . S
C233 C234 1.387 . S
C234 H219 0.930 . S
C234 C229 1.390 . S
C234 C233 1.387 . S
H235 C247 0.930 . S
H236 C249 0.930 . S
H237 C250 0.930 . S
H238 C254 0.959 1_455 S
H239 C254 0.959 . S
H240 C254 0.961 . S
H241 C255 0.960 . S
H242 C255 0.961 . S
H243 C255 0.959 . S
H244 C258 0.929 . S
H245 C259 0.931 . S
H246 C261 0.930 . S
C247 H235 0.930 . S
C247 C248 1.399 . S
C247 C252 1.399 . S
C248 C247 1.399 . S
C248 C249 1.376 . S
C249 H236 0.930 . S
C249 C248 1.376 . S
C249 C250 1.388 . S
C250 H237 0.930 . S
C250 C249 1.388 . S
C250 C251 1.390 . S
C251 C250 1.390 . S
C251 C252 1.394 . S
C251 C257 1.465 . S
C252 C247 1.399 . S
C252 C251 1.394 . S
C252 C253 1.516 . S
C253 C252 1.516 . S
C253 C254 1.502 . S
C253 C255 1.561 . S
C253 C256 1.526 . S
C254 H238 0.959 1_655 S
C254 H239 0.959 . S
C254 H240 0.961 . S
C254 C253 1.502 . S
C255 H241 0.960 . S
C255 H242 0.961 . S
C255 H243 0.959 . S
C255 C253 1.561 . S
C256 C253 1.526 . S
C256 C257 1.396 . S
C256 C261 1.390 1_655 S
C257 C251 1.465 . S
C257 C256 1.396 . S
C257 C258 1.399 1_655 S
C258 H244 0.929 . S
C258 C257 1.399 1_455 S
C258 C259 1.385 . S
C259 H245 0.931 . S
C259 C258 1.385 . S
C259 C260 1.389 . S
C260 C259 1.389 . S
C260 C261 1.387 . S
C261 H246 0.930 . S
C261 C256 1.390 1_455 S
C261 C260 1.387 . S
H262 C274 0.930 1_545 S
H263 C276 0.930 1_545 S
H264 C277 0.930 . S
H265 C281 0.959 . S
H266 C281 0.959 . S
H267 C281 0.961 . S
H268 C282 0.960 . S
H269 C282 0.961 . S
H270 C282 0.959 . S
H271 C285 0.929 . S
H272 C286 0.931 . S
H273 C288 0.930 . S
C274 H262 0.930 1_565 S
C274 C275 1.399 1_565 S
C274 C279 1.399 . S
C275 C274 1.399 1_545 S
C275 C276 1.376 1_545 S
C276 H263 0.930 1_565 S
C276 C275 1.376 1_565 S
C276 C277 1.388 . S
C277 H264 0.930 . S
C277 C276 1.388 . S
C277 C278 1.390 . S
C278 C277 1.390 . S
C278 C279 1.394 . S
C278 C284 1.465 . S
C279 C274 1.399 . S
C279 C278 1.394 . S
C279 C280 1.516 . S
C280 C279 1.516 . S
C280 C281 1.502 . S
C280 C282 1.561 . S
C280 C283 1.526 . S
C281 H265 0.959 . S
C281 H266 0.959 . S
C281 H267 0.961 . S
C281 C280 1.502 . S
C282 H268 0.960 . S
C282 H269 0.961 . S
C282 H270 0.959 . S
C282 C280 1.561 . S
C283 C280 1.526 . S
C283 C284 1.396 . S
C283 C288 1.390 . S
C284 C278 1.465 . S
C284 C283 1.396 . S
C284 C285 1.399 . S
C285 H271 0.929 . S
C285 C284 1.399 . S
C285 C286 1.385 . S
C286 H272 0.931 . S
C286 C285 1.385 . S
C286 C287 1.389 . S
C287 C286 1.389 . S
C287 C288 1.387 . S
C288 H273 0.930 . S
C288 C283 1.390 . S
C288 C287 1.387 . S
H289 C301 0.930 . S
H290 C303 0.930 . S
H291 C304 0.930 . S
H292 C308 0.959 . S
H293 C308 0.959 . S
H294 C308 0.961 . S
H295 C309 0.960 . S
H296 C309 0.961 . S
H297 C309 0.959 . S
H298 C312 0.929 . S
H299 C313 0.931 . S
H300 C315 0.930 . S
C301 H289 0.930 . S
C301 C302 1.399 1_655 S
C301 C306 1.399 . S
C302 C301 1.399 1_455 S
C302 C303 1.376 . S
C303 H290 0.930 . S
C303 C302 1.376 . S
C303 C304 1.388 1_455 S
C304 H291 0.930 . S
C304 C303 1.388 1_655 S
C304 C305 1.390 . S
C305 C304 1.390 . S
C305 C306 1.394 . S
C305 C311 1.465 . S
C306 C301 1.399 . S
C306 C305 1.394 . S
C306 C307 1.516 . S
C307 C306 1.516 . S
C307 C308 1.502 . S
C307 C309 1.561 . S
C307 C310 1.526 . S
C308 H292 0.959 . S
C308 H293 0.959 . S
C308 H294 0.961 . S
C308 C307 1.502 . S
C309 H295 0.960 . S
C309 H296 0.961 . S
C309 H297 0.959 . S
C309 C307 1.561 . S
C310 C307 1.526 . S
C310 C311 1.396 . S
C310 C315 1.390 . S
C311 C305 1.465 . S
C311 C310 1.396 . S
C311 C312 1.399 . S
C312 H298 0.929 . S
C312 C311 1.399 . S
C312 C313 1.385 . S
C313 H299 0.931 . S
C313 C312 1.385 . S
C313 C314 1.389 . S
C314 C313 1.389 . S
C314 C315 1.387 . S
C315 H300 0.930 . S
C315 C310 1.390 . S
C315 C314 1.387 . S
H316 C328 0.930 1_545 S
H317 C330 0.930 . S
H318 C331 0.930 . S
H319 C335 0.959 . S
H320 C335 0.959 . S
H321 C335 0.961 . S
H322 C336 0.960 . S
H323 C336 0.961 . S
H324 C336 0.959 . S
H325 C339 0.929 . S
H326 C340 0.931 1_655 S
H327 C342 0.930 1_655 S
C328 H316 0.930 1_565 S
C328 C329 1.399 . S
C328 C333 1.399 . S
C329 C328 1.399 . S
C329 C330 1.376 . S
C330 H317 0.930 . S
C330 C329 1.376 . S
C330 C331 1.388 . S
C331 H318 0.930 . S
C331 C330 1.388 . S
C331 C332 1.390 . S
C332 C331 1.390 . S
C332 C333 1.394 . S
C332 C338 1.465 . S
C333 C328 1.399 . S
C333 C332 1.394 . S
C333 C334 1.516 . S
C334 C333 1.516 . S
C334 C335 1.502 . S
C334 C336 1.561 . S
C334 C337 1.526 . S
C335 H319 0.959 . S
C335 H320 0.959 . S
C335 H321 0.961 . S
C335 C334 1.502 . S
C336 H322 0.960 . S
C336 H323 0.961 . S
C336 H324 0.959 . S
C336 C334 1.561 . S
C337 C334 1.526 . S
C337 C338 1.396 . S
C337 C342 1.390 . S
C338 C332 1.465 . S
C338 C337 1.396 . S
C338 C339 1.399 . S
C339 H325 0.929 . S
C339 C338 1.399 . S
C339 C340 1.385 . S
C340 H326 0.931 1_455 S
C340 C339 1.385 . S
C340 C341 1.389 1_455 S
C341 C340 1.389 1_655 S
C341 C342 1.387 1_655 S
C342 H327 0.930 1_455 S
C342 C337 1.390 . S
C342 C341 1.387 1_455 S
H343 C355 0.930 . S
H344 C357 0.930 . S
H345 C358 0.930 . S
H346 C362 0.959 . S
H347 C362 0.959 . S
H348 C362 0.961 . S
H349 C363 0.960 . S
H350 C363 0.961 . S
H351 C363 0.959 . S
H352 C366 0.929 . S
H353 C367 0.931 . S
H354 C369 0.930 1_565 S
C355 H343 0.930 . S
C355 C356 1.399 . S
C355 C360 1.399 . S
C356 C355 1.399 . S
C356 C357 1.376 . S
C357 H344 0.930 . S
C357 C356 1.376 . S
C357 C358 1.388 . S
C358 H345 0.930 . S
C358 C357 1.388 . S
C358 C359 1.390 . S
C359 C358 1.390 . S
C359 C360 1.394 . S
C359 C365 1.465 . S
C360 C355 1.399 . S
C360 C359 1.394 . S
C360 C361 1.516 . S
C361 C360 1.516 . S
C361 C362 1.502 . S
C361 C363 1.561 . S
C361 C364 1.526 . S
C362 H346 0.959 . S
C362 H347 0.959 . S
C362 H348 0.961 . S
C362 C361 1.502 . S
C363 H349 0.960 . S
C363 H350 0.961 . S
C363 H351 0.959 . S
C363 C361 1.561 . S
C364 C361 1.526 . S
C364 C365 1.396 . S
C364 C369 1.390 . S
C365 C359 1.465 . S
C365 C364 1.396 . S
C365 C366 1.399 . S
C366 H352 0.929 . S
C366 C365 1.399 . S
C366 C367 1.385 . S
C367 H353 0.931 . S
C367 C366 1.385 . S
C367 C368 1.389 . S
C368 C367 1.389 . S
C368 C369 1.387 . S
C369 H354 0.930 1_545 S
C369 C364 1.390 . S
C369 C368 1.387 . S
H370 C382 0.930 . S
H371 C384 0.930 . S
H372 C385 0.930 . S
H373 C389 0.959 . S
H374 C389 0.959 . S
H375 C389 0.961 . S
H376 C390 0.960 . S
H377 C390 0.961 . S
H378 C390 0.959 . S
H379 C393 0.929 . S
H380 C394 0.931 . S
H381 C396 0.930 . S
C382 H370 0.930 . S
C382 C383 1.399 . S
C382 C387 1.399 . S
C383 C382 1.399 . S
C383 C384 1.376 . S
C384 H371 0.930 . S
C384 C383 1.376 . S
C384 C385 1.388 . S
C385 H372 0.930 . S
C385 C384 1.388 . S
C385 C386 1.390 . S
C386 C385 1.390 . S
C386 C387 1.394 . S
C386 C392 1.465 . S
C387 C382 1.399 . S
C387 C386 1.394 . S
C387 C388 1.516 . S
C388 C387 1.516 . S
C388 C389 1.502 . S
C388 C390 1.561 . S
C388 C391 1.526 . S
C389 H373 0.959 . S
C389 H374 0.959 . S
C389 H375 0.961 . S
C389 C388 1.502 . S
C390 H376 0.960 . S
C390 H377 0.961 . S
C390 H378 0.959 . S
C390 C388 1.561 . S
C391 C388 1.526 . S
C391 C392 1.396 . S
C391 C396 1.390 . S
C392 C386 1.465 . S
C392 C391 1.396 . S
C392 C393 1.399 . S
C393 H379 0.929 . S
C393 C392 1.399 . S
C393 C394 1.385 . S
C394 H380 0.931 . S
C394 C393 1.385 . S
C394 C395 1.389 . S
C395 C394 1.389 . S
C395 C396 1.387 . S
C396 H381 0.930 . S
C396 C391 1.390 . S
C396 C395 1.387 . S
H397 C409 0.930 1_455 S
H398 C411 0.930 . S
H399 C412 0.930 . S
H400 C416 0.959 . S
H401 C416 0.959 . S
H402 C416 0.961 . S
H403 C417 0.960 . S
H404 C417 0.961 . S
H405 C417 0.959 . S
H406 C420 0.929 . S
H407 C421 0.931 1_565 S
H408 C423 0.930 1_565 S
C409 H397 0.930 1_655 S
C409 C410 1.399 . S
C409 C414 1.399 . S
C410 C409 1.399 . S
C410 C411 1.376 . S
C411 H398 0.930 . S
C411 C410 1.376 . S
C411 C412 1.388 . S
C412 H399 0.930 . S
C412 C411 1.388 . S
C412 C413 1.390 . S
C413 C412 1.390 . S
C413 C414 1.394 . S
C413 C419 1.465 . S
C414 C409 1.399 . S
C414 C413 1.394 . S
C414 C415 1.516 . S
C415 C414 1.516 . S
C415 C416 1.502 . S
C415 C417 1.561 . S
C415 C418 1.526 . S
C416 H400 0.959 . S
C416 H401 0.959 . S
C416 H402 0.961 . S
C416 C415 1.502 . S
C417 H403 0.960 . S
C417 H404 0.961 . S
C417 H405 0.959 . S
C417 C415 1.561 . S
C418 C415 1.526 . S
C418 C419 1.396 . S
C418 C423 1.390 . S
C419 C413 1.465 . S
C419 C418 1.396 . S
C419 C420 1.399 . S
C420 H406 0.929 . S
C420 C419 1.399 . S
C420 C421 1.385 . S
C421 H407 0.931 1_545 S
C421 C420 1.385 . S
C421 C422 1.389 1_545 S
C422 C421 1.389 1_565 S
C422 C423 1.387 1_565 S
C423 H408 0.930 1_545 S
C423 C418 1.390 . S
C423 C422 1.387 1_545 S
C113 C54 1.829 . S
C125 C5 1.956 . S
C140 C57 1.954 . S
C152 C6 1.806 . S
C167 C1 1.929 . S
C179 C61 1.858 . S
C194 C58 1.946 . S
C206 C2 1.821 . S
C221 C9 1.970 . S
C233 C52 1.789 . S
C248 C10 1.866 . S
C260 C51 1.930 . S
C275 C0 1.101 . S
C287 C3 1.131 . S
C302 C59 1.143 . S
C314 C60 1.102 . S
C329 C11 1.141 1_565 S
C341 C8 1.105 . S
C356 C50 1.096 . S
C368 C53 1.145 1_545 S
C383 C4 1.105 . S
C395 C7 1.127 1_455 S
C410 C55 1.141 1_655 S
C422 C56 1.105 . S
