# Generated by pormake.
# Topology qtz-x, (6)-cn, num edge types: 1
# Building blocks:
#     Node 0, Type 0, BuildingBlock: BETDIP_clean_sbu_0, # of connection points: 6
#     Node 1, Type 0, BuildingBlock: BETDIP_clean_sbu_0, # of connection points: 6
#     Node 2, Type 0, BuildingBlock: BETDIP_clean_sbu_0, # of connection points: 6
#     Edge 3, Type (0, 0), BuildingBlock: TEMPAE_clean_linker_10, # of connection points: 2
#     Edge 4, Type (0, 0), BuildingBlock: TEMPAE_clean_linker_10, # of connection points: 2
#     Edge 5, Type (0, 0), BuildingBlock: TEMPAE_clean_linker_10, # of connection points: 2
#     Edge 6, Type (0, 0), BuildingBlock: TEMPAE_clean_linker_10, # of connection points: 2
#     Edge 7, Type (0, 0), BuildingBlock: TEMPAE_clean_linker_10, # of connection points: 2
#     Edge 8, Type (0, 0), BuildingBlock: TEMPAE_clean_linker_10, # of connection points: 2
#     Edge 9, Type (0, 0), BuildingBlock: TEMPAE_clean_linker_10, # of connection points: 2
#     Edge 10, Type (0, 0), BuildingBlock: TEMPAE_clean_linker_10, # of connection points: 2
#     Edge 11, Type (0, 0), BuildingBlock: TEMPAE_clean_linker_10, # of connection points: 2
# Relax obj value: 0.235
# Max RMSD: 0.258
# Mean RMSD: 0.239
data_MOF--net-qtz-x--node1-BETDIP_clean_sbu_0--edge1-TEMPAE_clean_linker_10
_symmetry_space_group_name_H-M    P1
_symmetry_Int_Tables_number       1
_symmetry_cell_setting            triclinic
loop_
_symmetry_equiv_pos_as_xyz
'x, y, z'
_cell_length_a     14.67632
_cell_length_b     14.692864
_cell_length_c     53.059017
_cell_angle_alpha  68.741688
_cell_angle_beta   113.44869
_cell_angle_gamma 121.16503
loop_
_atom_site_label
_atom_site_type_symbol
_atom_site_fract_x
_atom_site_fract_y
_atom_site_fract_z
_atom_type_partial_charge
Tb0 Tb 1.02677 0.6305 0.19975 0.0
Tb1 Tb 0.24894 0.77341 0.19151 0.0
C2 C 0.86785 0.48023 0.21935 0.0
C3 C 0.84814 0.44416 0.24743 0.0
C4 C 0.92671 0.42407 0.27179 0.0
C5 C 0.90977 0.39577 0.29826 0.0
C6 C 0.81417 0.38738 0.30111 0.0
C7 C 0.73497 0.40621 0.27666 0.0
C8 C 0.75182 0.43417 0.25012 0.0
C9 C 0.07867 0.83954 0.18859 0.0
C10 C 0.23791 0.70308 0.25238 0.0
C11 C 0.40799 0.91996 0.1718 0.0
C12 C 0.43015 0.93825 0.14505 0.0
C13 C 0.3702 -0.02163 0.11932 0.0
C14 C 0.37822 -0.02209 0.09398 0.0
C15 C 0.44581 0.93693 0.09389 0.0
C16 C 0.51063 0.90299 0.11954 0.0
C17 C 0.50336 0.90423 0.14484 0.0
C18 C 0.19388 0.56255 0.20237 0.0
C19 C 1.04186 0.70279 0.13848 0.0
O20 O 0.94562 0.46604 0.21737 0.0
O21 O 0.87124 0.57538 0.20553 0.0
O22 O 0.1419 0.79525 0.20422 0.0
O23 O 0.98151 0.7651 0.17966 0.0
O24 O 0.13522 0.6324 0.24297 0.0
O25 O 0.29647 0.78023 0.23504 0.0
O26 O 0.32391 0.93331 0.17005 0.0
O27 O 0.41106 0.8324 0.18994 0.0
O28 O 0.13338 0.6094 0.18686 0.0
O29 O 0.29226 0.6366 0.21033 0.0
O30 O 0.14296 0.77431 0.14839 0.0
O31 O 0.98182 0.62503 0.15564 0.0
H32 H 1.00196 0.43101 0.27051 0.0
H33 H 0.97173 0.37997 0.3165 0.0
H34 H 0.66095 0.40165 0.27799 0.0
H35 H 0.69024 0.44969 0.23168 0.0
H36 H 0.31377 0.00622 0.11868 0.0
H37 H 0.32813 0.00539 0.07451 0.0
H38 H 0.56543 0.87336 0.12004 0.0
H39 H 0.55171 0.87423 0.16429 0.0
Tb40 Tb 0.83896 0.17884 0.5601 0.0
Tb41 Tb 0.73892 0.94965 0.5555 0.0
C42 C 0.89516 0.35373 0.57278 0.0
C43 C 0.94708 0.39767 0.59867 0.0
C44 C 0.89711 0.44403 0.60472 0.0
C45 C 0.9452 0.48738 0.62889 0.0
C46 C 1.04485 0.486 0.64743 0.0
C47 C 0.09508 0.43979 0.64134 0.0
C48 C 1.0464 0.39547 0.61728 0.0
C49 C 0.97398 0.12135 0.55559 0.0
C50 C 0.82411 -0.01008 0.61555 0.0
C51 C 0.68275 0.77786 0.54139 0.0
C52 C 0.65299 0.75153 0.514 0.0
C53 C 0.71715 0.82051 0.49486 0.0
C54 C 0.67805 0.80548 0.4673 0.0
C55 C 0.57464 0.72102 0.45841 0.0
C56 C 0.51371 0.64782 0.47803 0.0
C57 C 0.55247 0.66326 0.50559 0.0
C58 C 0.60429 0.00693 0.56046 0.0
C59 C 0.75581 0.13834 0.50048 0.0
O60 O 0.79566 0.27413 0.57047 0.0
O61 O 0.95701 0.33791 0.56421 0.0
O62 O 0.90448 0.06462 0.57 0.0
O63 O 0.97296 0.21511 0.54439 0.0
O64 O 0.84001 0.09162 0.60371 0.0
O65 O 0.79546 0.91938 0.60076 0.0
O66 O 0.78566 0.84407 0.55114 0.0
O67 O 0.61361 0.80172 0.54424 0.0
O68 O 0.67347 0.06369 0.54593 0.0
O69 O 0.60285 0.91194 0.57064 0.0
O70 O 0.75267 0.04111 0.51293 0.0
O71 O 0.77028 0.20338 0.51497 0.0
H72 H 0.82073 0.44686 0.59067 0.0
H73 H 0.90498 0.52306 0.63296 0.0
H74 H 0.17111 0.43637 0.65543 0.0
H75 H 0.08653 0.35952 0.61329 0.0
H76 H 0.79554 0.88853 0.50083 0.0
H77 H 0.72735 0.86139 0.45268 0.0
H78 H 0.43364 0.58203 0.47169 0.0
H79 H 0.50161 0.60908 0.52001 0.0
Tb80 Tb 0.78429 0.79284 0.86842 0.0
Tb81 Tb 0.95738 0.71584 0.88543 0.0
C82 C 0.61317 0.80262 0.86451 0.0
C83 C 0.58034 0.82698 0.8833 0.0
C84 C 0.48413 0.75068 0.89201 0.0
C85 C 0.45868 0.7668 0.91233 0.0
C86 C 0.5289 0.85996 0.92419 0.0
C87 C 0.62225 0.93865 0.91437 0.0
C88 C 0.64819 0.92203 0.89431 0.0
C89 C 0.98615 0.95046 0.87103 0.0
C90 C 0.90017 0.73012 0.93397 0.0
C91 C 0.12041 0.69228 0.88863 0.0
C92 C 0.1679 0.69746 0.86785 0.0
C93 C 0.22769 0.79706 0.85199 0.0
C94 C 0.26284 0.7993 0.83067 0.0
C95 C 0.23912 0.70211 0.82477 0.0
C96 C 0.18403 0.60318 0.84163 0.0
C97 C 0.14979 0.60099 0.86299 0.0
C98 C 0.75474 0.56365 0.88383 0.0
C99 C 0.84637 0.78619 0.82037 0.0
O100 O 0.6239 0.71221 0.87351 0.0
O101 O 0.69326 0.88278 0.85363 0.0
O102 O 0.95922 0.85909 0.88737 0.0
O103 O 0.89748 0.95935 0.85407 0.0
O104 O 0.8181 0.75019 0.91448 0.0
O105 O 0.97483 0.72455 0.92727 0.0
O106 O 0.12703 0.78308 0.88963 0.0
O107 O 1.02359 0.61156 0.89025 0.0
O108 O 0.78373 0.65118 0.86633 0.0
O109 O 0.84105 0.55583 0.90269 0.0
O110 O 0.93324 0.77529 0.83976 0.0
O111 O 0.76546 0.7787 0.82729 0.0
H112 H 0.4306 0.6768 0.88377 0.0
H113 H 0.38639 0.70431 0.91949 0.0
H114 H 0.67664 0.01252 0.92255 0.0
H115 H 0.72293 -0.01743 0.888 0.0
H116 H 0.24503 0.87328 0.85552 0.0
H117 H 0.30642 0.87704 0.81843 0.0
H118 H 0.16201 0.52651 0.83747 0.0
H119 H 0.10527 0.52311 0.87506 0.0
C120 C 1.01119 -0.02131 0.17729 0.0
C121 C 0.09875 0.94934 0.18874 0.0
C122 C 1.02589 0.079 0.17897 0.0
C123 C 0.13125 0.15286 0.19208 0.0
C124 C 0.22077 0.12477 0.20305 0.0
C125 C 0.2033 0.0231 0.20139 0.0
C126 C 0.92794 0.10493 0.1672 0.0
C127 C 0.33475 0.20162 0.21685 0.0
C128 C 0.18704 0.44975 0.17558 0.0
C129 C 0.1745 0.45748 0.19943 0.0
C130 C 0.17419 0.35148 0.173 0.0
C131 C 0.14701 0.25853 0.1947 0.0
C132 C 0.13329 0.26628 0.21874 0.0
C133 C 0.14801 0.36606 0.2209 0.0
C134 C 0.19057 0.34737 0.14715 0.0
C135 C 0.10289 0.1691 0.24217 0.0
H136 H 0.93009 0.92207 0.1675 0.0
H137 H 0.2713 0.00092 0.21022 0.0
H138 H 0.91217 0.11776 0.18415 0.0
H139 H 0.94567 0.18136 0.15122 0.0
H140 H 0.85173 0.03927 0.15743 0.0
H141 H 0.3965 0.16978 0.22324 0.0
H142 H 0.36227 0.28125 0.20231 0.0
H143 H 0.3329 0.21619 0.2357 0.0
H144 H 0.20832 0.52118 0.1591 0.0
H145 H 0.13876 0.37271 0.23936 0.0
H146 H 0.11394 0.28625 0.13603 0.0
H147 H 0.25677 0.32171 0.15326 0.0
H148 H 0.21298 0.42707 0.13239 0.0
H149 H 1.02408 0.10212 0.23386 0.0
H150 H 0.09378 0.18811 0.25924 0.0
H151 H 0.16712 0.13907 0.25118 0.0
C152 C 0.4041 0.96285 0.54367 0.0
C153 C 0.51149 0.02682 0.55772 0.0
C154 C 0.31298 0.97372 0.54279 0.0
C155 C 0.32944 0.04886 0.55683 0.0
C156 C 0.43814 0.11312 0.57124 0.0
C157 C 0.52784 0.10137 0.57146 0.0
C158 C 0.1991 0.9047 0.52686 0.0
C159 C 0.45954 0.19316 0.5868 0.0
C160 C 0.11751 0.15797 0.53475 0.0
C161 C 1.05869 0.09565 0.5552 0.0
C162 C 0.20372 0.14175 0.53469 0.0
C163 C 0.23356 0.06228 0.5559 0.0
C164 C 0.17305 -0.00241 0.57638 0.0
C165 C 0.08554 0.01438 0.57562 0.0
C166 C 0.26399 0.21098 0.5121 0.0
C167 C 0.20263 0.91263 0.59951 0.0
H168 H 0.39146 0.90393 0.5334 0.0
H169 H 0.61028 0.14798 0.58317 0.0
H170 H 0.14495 0.853 0.54126 0.0
H171 H 0.16146 0.95736 0.51049 0.0
H172 H 0.20043 0.85151 0.51667 0.0
H173 H 0.54853 0.23615 0.59719 0.0
H174 H 0.42998 0.25435 0.5721 0.0
H175 H 0.41278 0.15036 0.60295 0.0
H176 H 0.0964 0.22034 0.51877 0.0
H177 H 1.04042 0.96623 0.5915 0.0
H178 H 0.26335 0.15865 0.50126 0.0
H179 H 0.35157 0.26196 0.52166 0.0
H180 H 0.22684 0.26505 0.49625 0.0
H181 H 0.19945 0.85349 0.59046 0.0
H182 H 0.14648 0.86777 0.6135 0.0
H183 H 0.28846 0.95171 0.61232 0.0
C184 C 0.1117 0.14783 0.86023 0.0
C185 C 0.09823 0.0423 0.87439 0.0
C186 C 0.21705 0.23599 0.8626 0.0
C187 C 0.31202 0.21772 0.87815 0.0
C188 C 0.29867 0.11107 0.89254 0.0
C189 C 0.19187 0.02585 0.89147 0.0
C190 C 0.2265 0.34894 0.84893 0.0
C191 C 0.39548 0.08426 0.9089 0.0
C192 C 0.57995 0.43083 0.85833 0.0
C193 C 0.64063 0.47867 0.88192 0.0
C194 C 0.47347 0.34478 0.857 0.0
C195 C 0.42463 0.30995 0.87916 0.0
C196 C 0.48504 0.36088 0.90265 0.0
C197 C 0.59343 0.44314 0.90403 0.0
C198 C 0.41515 0.28817 0.83247 0.0
C199 C 0.4357 0.32746 0.92649 0.0
H200 H 1.03954 0.16198 0.84765 0.0
H201 H 0.18243 0.94625 0.9038 0.0
H202 H 0.26002 0.39623 0.8654 0.0
H203 H 0.28518 0.39114 0.83582 0.0
H204 H 0.14586 0.34902 0.83566 0.0
H205 H 0.38216 0.01266 0.90281 0.0
H206 H 0.47588 0.15129 0.90566 0.0
H207 H 0.40026 0.06206 0.93156 0.0
H208 H 0.61757 0.45801 0.84142 0.0
H209 H 0.64089 0.48083 0.92221 0.0
H210 H 0.33521 0.29257 0.82131 0.0
H211 H 0.39671 0.20091 0.84022 0.0
H212 H 0.4652 0.32388 0.81723 0.0
H213 H 0.35332 0.32749 0.91824 0.0
H214 H 0.48894 0.38189 0.94186 0.0
H215 H 0.42387 0.24358 0.93758 0.0
C216 C 0.59778 0.9147 0.97025 0.0
C217 C 0.50878 0.87278 0.94777 0.0
C218 C 0.58117 0.92652 0.99289 0.0
C219 C 0.47278 0.89568 0.99314 0.0
C220 C 0.38244 0.8535 0.97053 0.0
C221 C 0.40148 0.842 0.94818 0.0
C222 C 0.6797 0.97091 1.01672 0.0
C223 C 0.26596 0.82188 0.96972 0.0
C224 C 0.43709 0.82773 0.0656 0.0
C225 C 0.44558 0.92496 0.06731 0.0
C226 C 0.44116 0.81571 1.04112 0.0
C227 C 0.45487 0.90336 1.01782 0.0
C228 C 0.45955 0.00046 1.01904 0.0
C229 C 0.45415 0.00987 0.04377 0.0
C230 C 0.43313 0.70995 1.04037 0.0
C231 C 0.47141 0.09471 0.99438 0.0
H232 H 0.68077 0.93646 0.97047 0.0
H233 H 0.33248 0.811 0.93072 0.0
H234 H 0.68324 0.04348 1.01986 0.0
H235 H 0.6714 0.90931 1.03647 0.0
H236 H 0.75886 -0.00622 1.01295 0.0
H237 H 0.204 0.77498 0.95309 0.0
H238 H 0.24862 0.77287 0.99022 0.0
H239 H 0.25576 0.89617 0.96554 0.0
H240 H 0.42742 0.76087 0.08353 0.0
H241 H 0.45978 0.08479 0.04497 0.0
H242 H 0.51113 0.72412 1.03776 0.0
H243 H 0.36574 0.67699 1.02214 0.0
H244 H 0.41722 0.64794 0.05976 0.0
H245 H 0.54056 0.11505 0.98644 0.0
H246 H 0.48587 0.1684 0.99972 0.0
H247 H 0.3948 0.07169 0.97711 0.0
C248 C 0.77179 0.12329 0.45717 0.0
C249 C 0.75254 0.17711 0.47023 0.0
C250 C 0.77769 0.16205 0.42926 0.0
C251 C 0.76162 0.25605 0.41362 0.0
C252 C 0.73975 0.3098 0.42639 0.0
C253 C 0.73637 0.27019 0.45465 0.0
C254 C 0.80203 0.10248 0.4166 0.0
C255 C 0.722 0.41016 0.41037 0.0
C256 C 0.88832 0.40118 0.35189 0.0
C257 C 0.79812 0.35969 0.32953 0.0
C258 C 0.87663 0.37188 0.3791 0.0
C259 C 0.77183 0.29912 0.38424 0.0
C260 C 0.67954 0.25944 0.36168 0.0
C261 C 0.69368 0.29017 0.33461 0.0
C262 C 0.97763 0.415 0.40258 0.0
C263 C 0.56625 0.1829 0.36627 0.0
H264 H 0.78567 0.05222 0.46901 0.0
H265 H 0.72156 0.31239 0.46455 0.0
H266 H 0.72621 0.05904 0.40124 0.0
H267 H 0.86646 0.15995 0.40522 0.0
H268 H 0.83069 0.04269 0.43271 0.0
H269 H 0.70095 0.43969 0.42287 0.0
H270 H 0.79783 0.47596 0.40411 0.0
H271 H 0.6546 0.39326 0.39083 0.0
H272 H 0.96884 0.45604 0.34821 0.0
H273 H 0.62339 0.25695 0.3176 0.0
H274 H 0.99737 0.34735 0.41715 0.0
H275 H 0.96161 0.44997 0.41483 0.0
H276 H 1.05098 0.47816 0.39477 0.0
H277 H 0.56904 0.11157 0.38304 0.0
H278 H 0.50418 0.15401 0.34694 0.0
H279 H 0.53855 0.22451 0.37342 0.0
C280 C 0.91324 0.79518 0.78247 0.0
C281 C 0.83966 0.80659 0.79034 0.0
C282 C 0.91002 0.81748 0.75414 0.0
C283 C 0.83349 0.85494 0.73318 0.0
C284 C 0.75738 0.86439 0.74095 0.0
C285 C 0.76102 0.83964 0.76941 0.0
C286 C 0.9913 0.80397 0.74695 0.0
C287 C 0.67339 0.9026 0.71922 0.0
C288 C 0.89669 0.02941 0.66362 0.0
C289 C 0.83334 0.95373 0.64601 0.0
C290 C 0.89966 -0.00231 0.69218 0.0
C291 C 0.83553 0.88819 0.70325 0.0
C292 C 0.77234 0.81118 0.68562 0.0
C293 C 0.77296 0.84467 0.65727 0.0
C294 C 0.9707 0.08158 0.71047 0.0
C295 C 0.70258 0.69387 0.69662 0.0
H296 H 0.97389 0.76899 0.79844 0.0
H297 H 0.70359 0.8485 0.77526 0.0
H298 H 0.06381 0.88374 0.7446 0.0
H299 H 1.0198 0.74524 0.76375 0.0
H300 H 0.9555 0.77532 0.72697 0.0
H301 H 0.61522 0.89852 0.72849 0.0
H302 H 0.71623 -0.01223 0.70871 0.0
H303 H 0.62541 0.85273 0.70282 0.0
H304 H 0.94397 0.11373 0.65505 0.0
H305 H 0.72305 0.78601 0.64369 0.0
H306 H 1.02999 0.0554 0.72839 0.0
H307 H 0.91845 0.08918 0.71928 0.0
H308 H 1.01774 0.16275 0.6988 0.0
H309 H 0.7552 0.65855 0.71431 0.0
H310 H 0.65841 0.64401 0.68024 0.0
H311 H 0.64081 0.68846 0.70483 0.0
C312 C 0.9928 0.69272 0.98533 0.0
C313 C 0.91094 0.7194 0.96389 0.0
C314 C 1.00665 0.68678 1.01359 0.0
C315 C 0.93583 0.7065 1.02071 0.0
C316 C 0.85114 0.73076 0.99924 0.0
C317 C 0.83999 0.73727 0.97114 0.0
C318 C 0.09884 0.66181 1.03576 0.0
C319 C 0.77439 0.7534 1.00577 0.0
C320 C 0.92595 0.61075 0.09717 0.0
C321 C 1.00347 0.70515 0.1079 0.0
C322 C 0.90119 0.61033 0.06867 0.0
C323 C 0.95414 0.70688 0.05046 0.0
C324 C 1.02859 0.80342 0.06099 0.0
C325 C 1.05284 0.80115 0.08954 0.0
C326 C 0.82149 0.50572 0.05825 0.0
C327 C 0.08573 0.90856 0.04232 0.0
H328 H 1.04663 0.67688 0.98005 0.0
H329 H 0.77623 0.75785 0.95481 0.0
H330 H 0.16213 0.73445 0.04497 0.0
H331 H 0.06691 0.5953 0.05301 0.0
H332 H 0.13963 0.63807 1.02719 0.0
H333 H 0.7038 0.75574 0.98739 0.0
H334 H 0.74153 0.69086 1.02342 0.0
H335 H 0.82072 0.83294 1.0123 0.0
H336 H 0.88811 0.53612 0.11126 0.0
H337 H 0.11218 0.87472 0.09761 0.0
H338 H 0.86549 0.48031 0.05129 0.0
H339 H 0.75521 0.51795 1.03982 0.0
H340 H 0.78305 0.43905 0.07463 0.0
H341 H 0.14697 0.90258 1.03653 0.0
H342 H 0.12932 -0.02105 0.05276 0.0
H343 H 1.02544 0.9244 1.02262 0.0
C344 C 0.40008 0.73258 0.29427 0.0
C345 C 0.28615 0.699 0.28282 0.0
C346 C 0.44781 0.73137 0.32309 0.0
C347 C 0.38036 0.69872 0.34071 0.0
C348 C 0.26541 0.66652 0.32912 0.0
C349 C 0.21921 0.66448 0.30039 0.0
C350 C 0.57079 0.76769 0.3346 0.0
C351 C 0.19177 0.63753 0.34684 0.0
C352 C 0.48247 0.61705 0.41975 0.0
C353 C 0.527 0.7148 0.42832 0.0
C354 C 0.43575 0.61105 0.39122 0.0
C355 C 0.43115 0.70435 0.37094 0.0
C356 C 0.4755 0.80311 0.37963 0.0
C357 C 0.52365 0.80718 0.40816 0.0
C358 C 0.39249 0.5053 0.38274 0.0
C359 C 0.4725 0.90561 0.35938 0.0
H360 H 0.45191 0.75913 0.28068 0.0
H361 H 0.13122 0.63968 0.2915 0.0
H362 H 0.60917 0.8443 0.34209 0.0
H363 H 0.5884 0.70597 0.35283 0.0
H364 H 0.61026 0.78177 0.31864 0.0
H365 H 0.10833 0.63048 0.33387 0.0
H366 H 0.1832 0.55911 0.36158 0.0
H367 H 0.2287 0.69999 0.35954 0.0
H368 H 0.48557 0.54573 0.43534 0.0
H369 H 0.55659 0.88263 0.41475 0.0
H370 H 0.43364 0.51828 0.36731 0.0
H371 H 0.30273 0.47538 0.37238 0.0
H372 H 0.40618 0.44153 0.40093 0.0
H373 H 0.55831 0.96954 0.3601 0.0
H374 H 0.43185 0.93547 0.36615 0.0
H375 H 0.42846 0.89575 0.33738 0.0
C376 C 0.28481 0.62078 0.7998 0.0
C377 C 0.25917 0.70104 0.79941 0.0
C378 C 0.27213 0.5977 0.77482 0.0
C379 C 0.23436 0.65767 0.74879 0.0
C380 C 0.22406 0.74887 0.74838 0.0
C381 C 0.237 0.76976 0.77374 0.0
C382 C 0.28937 0.50245 0.77669 0.0
C383 C 0.18965 0.81852 0.72108 0.0
C384 C 0.20761 0.60067 0.68088 0.0
C385 C 0.09471 0.53059 0.67332 0.0
C386 C 0.25479 0.64363 0.70529 0.0
C387 C 0.18765 0.6146 0.72266 0.0
C388 C 0.07387 0.54299 0.7152 0.0
C389 C 1.0288 0.50248 0.69058 0.0
C390 C 0.37624 0.71947 0.71254 0.0
C391 C 0.99961 0.50845 0.73337 0.0
H392 H 0.30897 0.57191 0.81966 0.0
H393 H 0.22126 0.83485 0.77316 0.0
H394 H 0.2142 0.42645 0.78004 0.0
H395 H 0.30542 0.50666 0.75749 0.0
H396 H 0.35974 0.49754 0.79484 0.0
H397 H 0.20369 0.89606 0.72419 0.0
H398 H 0.23552 0.83709 0.70618 0.0
H399 H 0.10051 0.77368 0.71126 0.0
H400 H 0.25868 0.62306 0.66748 0.0
H401 H 0.9419 0.4472 0.68502 0.0
H402 H 0.41882 0.68354 0.73297 0.0
H403 H 0.38821 0.79734 0.71485 0.0
H404 H 0.4162 0.73664 0.69638 0.0
H405 H 1.03243 0.46972 0.75486 0.0
H406 H 0.9136 0.45034 0.72495 0.0
H407 H 0.99786 0.58059 0.73507 0.0
loop_
_geom_bond_atom_site_label_1
_geom_bond_atom_site_label_2
_geom_bond_distance
_geom_bond_site_symmetry_2
_ccdc_geom_bond_type
Tb0 C2 2.809 . S
Tb0 O20 2.484 . S
Tb0 O21 2.440 . S
Tb0 O22 2.658 1_655 S
Tb0 O23 2.409 . S
Tb0 O24 2.378 1_655 S
Tb0 O28 2.325 . S
Tb0 O31 2.341 . S
Tb1 C11 2.809 . S
Tb1 O22 2.325 . S
Tb1 O25 2.341 . S
Tb1 O26 2.484 . S
Tb1 O27 2.440 . S
Tb1 O28 2.658 1_455 S
Tb1 O29 2.409 . S
Tb1 O30 2.378 1_455 S
C2 Tb0 2.809 . S
C2 C3 1.514 . S
C2 O20 1.248 . S
C2 O21 1.266 . S
C3 C2 1.514 . S
C3 C4 1.359 . S
C3 C8 1.348 . S
C4 C3 1.359 . S
C4 C5 1.380 . S
C4 H32 0.929 . S
C5 C4 1.380 . S
C5 C6 1.347 . S
C5 H33 0.931 . S
C6 C5 1.347 . S
C6 C7 1.369 . S
C7 C6 1.369 . S
C7 C8 1.408 . S
C7 H34 0.930 . S
C8 C3 1.348 . S
C8 C7 1.408 . S
C8 H35 0.930 . S
C9 O22 1.281 1_655 S
C9 O23 1.254 . S
C10 O24 1.236 . S
C10 O25 1.266 . S
C11 Tb1 2.809 . S
C11 C12 1.514 . S
C11 O26 1.248 . S
C11 O27 1.266 . S
C12 C11 1.514 . S
C12 C13 1.359 . S
C12 C17 1.348 . S
C13 C12 1.359 . S
C13 C14 1.380 1_565 S
C13 H36 0.929 1_565 S
C14 C13 1.380 1_545 S
C14 C15 1.347 1_545 S
C14 H37 0.931 . S
C15 C14 1.347 1_565 S
C15 C16 1.369 . S
C16 C15 1.369 . S
C16 C17 1.408 . S
C16 H38 0.930 . S
C17 C12 1.348 . S
C17 C16 1.408 . S
C17 H39 0.930 . S
C18 O28 1.281 1_455 S
C18 O29 1.254 . S
C19 O30 1.236 . S
C19 O31 1.266 . S
O20 Tb0 2.484 . S
O20 C2 1.248 . S
O21 Tb0 2.440 . S
O21 C2 1.266 . S
O22 Tb0 2.658 1_455 S
O22 Tb1 2.325 . S
O22 C9 1.281 1_455 S
O23 Tb0 2.409 . S
O23 C9 1.254 . S
O24 Tb0 2.378 1_455 S
O24 C10 1.236 . S
O25 Tb1 2.341 . S
O25 C10 1.266 . S
O26 Tb1 2.484 . S
O26 C11 1.248 . S
O27 Tb1 2.440 . S
O27 C11 1.266 . S
O28 Tb0 2.325 . S
O28 Tb1 2.658 1_655 S
O28 C18 1.281 1_655 S
O29 Tb1 2.409 . S
O29 C18 1.254 . S
O30 Tb1 2.378 1_655 S
O30 C19 1.236 . S
O31 Tb0 2.341 . S
O31 C19 1.266 . S
H32 C4 0.929 . S
H33 C5 0.931 . S
H34 C7 0.930 . S
H35 C8 0.930 . S
H36 C13 0.929 1_545 S
H37 C14 0.931 . S
H38 C16 0.930 . S
H39 C17 0.930 . S
Tb40 C42 2.809 . S
Tb40 O60 2.484 . S
Tb40 O61 2.440 . S
Tb40 O62 2.658 1_545 S
Tb40 O63 2.409 . S
Tb40 O64 2.378 . S
Tb40 O68 2.325 . S
Tb40 O71 2.341 . S
Tb41 C51 2.809 . S
Tb41 O62 2.325 . S
Tb41 O65 2.341 . S
Tb41 O66 2.484 . S
Tb41 O67 2.440 . S
Tb41 O68 2.658 1_565 S
Tb41 O69 2.409 . S
Tb41 O70 2.378 1_565 S
C42 Tb40 2.809 . S
C42 C43 1.514 . S
C42 O60 1.248 . S
C42 O61 1.266 . S
C43 C42 1.514 . S
C43 C44 1.359 . S
C43 C48 1.348 1_655 S
C44 C43 1.359 . S
C44 C45 1.380 . S
C44 H72 0.929 . S
C45 C44 1.380 . S
C45 C46 1.347 . S
C45 H73 0.931 . S
C46 C45 1.347 . S
C46 C47 1.369 1_655 S
C47 C46 1.369 1_455 S
C47 C48 1.408 . S
C47 H74 0.930 . S
C48 C43 1.348 1_455 S
C48 C47 1.408 . S
C48 H75 0.930 . S
C49 O62 1.281 1_545 S
C49 O63 1.254 . S
C50 O64 1.236 1_565 S
C50 O65 1.266 . S
C51 Tb41 2.809 . S
C51 C52 1.514 . S
C51 O66 1.248 . S
C51 O67 1.266 . S
C52 C51 1.514 . S
C52 C53 1.359 . S
C52 C57 1.348 . S
C53 C52 1.359 . S
C53 C54 1.380 . S
C53 H76 0.929 . S
C54 C53 1.380 . S
C54 C55 1.347 . S
C54 H77 0.931 . S
C55 C54 1.347 . S
C55 C56 1.369 . S
C56 C55 1.369 . S
C56 C57 1.408 . S
C56 H78 0.930 . S
C57 C52 1.348 . S
C57 C56 1.408 . S
C57 H79 0.930 . S
C58 O68 1.281 1_565 S
C58 O69 1.254 . S
C59 O70 1.236 . S
C59 O71 1.266 . S
O60 Tb40 2.484 . S
O60 C42 1.248 . S
O61 Tb40 2.440 . S
O61 C42 1.266 . S
O62 Tb40 2.658 1_565 S
O62 Tb41 2.325 . S
O62 C49 1.281 1_565 S
O63 Tb40 2.409 . S
O63 C49 1.254 . S
O64 Tb40 2.378 . S
O64 C50 1.236 1_545 S
O65 Tb41 2.341 . S
O65 C50 1.266 . S
O66 Tb41 2.484 . S
O66 C51 1.248 . S
O67 Tb41 2.440 . S
O67 C51 1.266 . S
O68 Tb40 2.325 . S
O68 Tb41 2.658 1_545 S
O68 C58 1.281 1_545 S
O69 Tb41 2.409 . S
O69 C58 1.254 . S
O70 Tb41 2.378 1_545 S
O70 C59 1.236 . S
O71 Tb40 2.341 . S
O71 C59 1.266 . S
H72 C44 0.929 . S
H73 C45 0.931 . S
H74 C47 0.930 . S
H75 C48 0.930 . S
H76 C53 0.929 . S
H77 C54 0.931 . S
H78 C56 0.930 . S
H79 C57 0.930 . S
Tb80 C82 2.809 . S
Tb80 O100 2.484 1_545 S
Tb80 O101 2.440 . S
Tb80 O102 2.665 . S
Tb80 O103 2.409 1_655 S
Tb80 O104 2.378 1_545 S
Tb80 O108 2.325 1_545 S
Tb80 O111 2.341 1_545 S
Tb81 C91 2.809 1_655 S
Tb81 O102 2.323 1_565 S
Tb81 O105 2.341 . S
Tb81 O106 2.484 1_655 S
Tb81 O107 2.440 . S
Tb81 O108 2.658 . S
Tb81 O109 2.409 . S
Tb81 O110 2.378 . S
C82 Tb80 2.809 . S
C82 C83 1.514 . S
C82 O100 1.248 1_545 S
C82 O101 1.266 . S
C83 C82 1.514 . S
C83 C84 1.359 1_545 S
C83 C88 1.348 . S
C84 C83 1.359 1_565 S
C84 C85 1.380 . S
C84 H112 0.929 . S
C85 C84 1.380 . S
C85 C86 1.347 1_565 S
C85 H113 0.931 . S
C86 C85 1.347 1_545 S
C86 C87 1.369 . S
C87 C86 1.369 . S
C87 C88 1.408 . S
C87 H114 0.930 . S
C88 C83 1.348 . S
C88 C87 1.408 . S
C88 H115 0.930 . S
C89 O102 1.281 1_455 S
C89 O103 1.254 . S
C90 O104 1.236 . S
C90 O105 1.266 . S
C91 Tb81 2.809 1_455 S
C91 C92 1.514 . S
C91 O106 1.248 . S
C91 O107 1.266 1_455 S
C92 C91 1.514 . S
C92 C93 1.359 . S
C92 C97 1.348 . S
C93 C92 1.359 . S
C93 C94 1.380 . S
C93 H116 0.929 . S
C94 C93 1.380 . S
C94 C95 1.347 . S
C94 H117 0.931 . S
C95 C94 1.347 . S
C95 C96 1.369 . S
C96 C95 1.369 . S
C96 C97 1.408 . S
C96 H118 0.930 . S
C97 C92 1.348 . S
C97 C96 1.408 . S
C97 H119 0.930 1_455 S
C98 O108 1.281 . S
C98 O109 1.254 . S
C99 O110 1.236 . S
C99 O111 1.266 . S
O100 Tb80 2.484 1_565 S
O100 C82 1.248 1_565 S
O101 Tb80 2.440 . S
O101 C82 1.266 . S
O102 Tb80 2.665 . S
O102 Tb81 2.323 1_545 S
O102 C89 1.281 1_655 S
O103 Tb80 2.409 1_455 S
O103 C89 1.254 . S
O104 Tb80 2.378 1_565 S
O104 C90 1.236 . S
O105 Tb81 2.341 . S
O105 C90 1.266 . S
O106 Tb81 2.484 1_455 S
O106 C91 1.248 . S
O107 Tb81 2.440 . S
O107 C91 1.266 1_655 S
O108 Tb80 2.325 1_565 S
O108 Tb81 2.658 . S
O108 C98 1.281 . S
O109 Tb81 2.409 . S
O109 C98 1.254 . S
O110 Tb81 2.378 . S
O110 C99 1.236 . S
O111 Tb80 2.341 1_565 S
O111 C99 1.266 . S
H112 C84 0.929 . S
H113 C85 0.931 . S
H114 C87 0.930 . S
H115 C88 0.930 . S
H116 C93 0.929 . S
H117 C94 0.931 . S
H118 C96 0.930 . S
H119 C97 0.930 1_655 S
C120 C121 1.391 1_655 S
C120 C122 1.394 1_565 S
C120 H136 0.931 . S
C121 C120 1.391 1_455 S
C121 C125 1.376 1_565 S
C122 C120 1.394 1_545 S
C122 C123 1.369 . S
C122 C126 1.531 . S
C123 C122 1.369 . S
C123 C124 1.410 1_655 S
C123 C131 1.503 . S
C124 C123 1.410 1_455 S
C124 C125 1.392 . S
C124 C127 1.511 . S
C125 C121 1.376 1_545 S
C125 C124 1.392 . S
C125 H137 0.929 . S
C126 C122 1.531 . S
C126 H138 0.960 . S
C126 H139 0.962 . S
C126 H140 0.960 1_545 S
C127 C124 1.511 . S
C127 H141 0.961 . S
C127 H142 0.961 . S
C127 H143 0.961 . S
C128 C129 1.370 1_455 S
C128 C130 1.363 . S
C128 H144 0.931 . S
C129 C128 1.370 1_655 S
C129 C133 1.408 . S
C130 C128 1.363 . S
C130 C131 1.370 1_455 S
C130 C134 1.524 . S
C131 C123 1.503 . S
C131 C130 1.370 1_655 S
C131 C132 1.403 . S
C132 C131 1.403 . S
C132 C133 1.404 . S
C132 C135 1.539 . S
C133 C129 1.408 . S
C133 C132 1.404 . S
C133 H145 0.930 . S
C134 C130 1.524 . S
C134 H146 0.956 1_455 S
C134 H147 0.961 . S
C134 H148 0.961 . S
C135 C132 1.539 . S
C135 H149 0.958 . S
C135 H150 0.961 . S
C135 H151 0.960 . S
H136 C120 0.931 . S
H137 C125 0.929 . S
H138 C126 0.960 . S
H139 C126 0.962 . S
H140 C126 0.960 1_565 S
H141 C127 0.961 . S
H142 C127 0.961 . S
H143 C127 0.961 . S
H144 C128 0.931 . S
H145 C133 0.930 . S
H146 C134 0.956 1_655 S
H147 C134 0.961 . S
H148 C134 0.961 . S
H149 C135 0.958 . S
H150 C135 0.961 . S
H151 C135 0.960 . S
C152 C153 1.391 . S
C152 C154 1.394 . S
C152 H168 0.931 . S
C153 C152 1.391 . S
C153 C157 1.376 1_565 S
C154 C152 1.394 . S
C154 C155 1.369 . S
C154 C158 1.531 . S
C155 C154 1.369 . S
C155 C156 1.410 1_565 S
C155 C163 1.503 . S
C156 C155 1.410 1_545 S
C156 C157 1.392 . S
C156 C159 1.511 . S
C157 C153 1.376 1_545 S
C157 C156 1.392 . S
C157 H169 0.929 . S
C158 C154 1.531 . S
C158 H170 0.960 . S
C158 H171 0.962 . S
C158 H172 0.960 . S
C159 C156 1.511 . S
C159 H173 0.961 . S
C159 H174 0.961 . S
C159 H175 0.961 1_545 S
C160 C161 1.370 1_545 S
C160 C162 1.363 . S
C160 H176 0.931 . S
C161 C160 1.370 1_565 S
C161 C165 1.408 . S
C162 C160 1.363 . S
C162 C163 1.370 1_545 S
C162 C166 1.524 . S
C163 C155 1.503 . S
C163 C162 1.370 1_565 S
C163 C164 1.403 . S
C164 C163 1.403 . S
C164 C165 1.404 . S
C164 C167 1.539 . S
C165 C161 1.408 . S
C165 C164 1.404 . S
C165 H177 0.930 1_455 S
C166 C162 1.524 . S
C166 H178 0.956 . S
C166 H179 0.961 . S
C166 H180 0.961 . S
C167 C164 1.539 . S
C167 H181 0.958 . S
C167 H182 0.961 . S
C167 H183 0.960 . S
H168 C152 0.931 . S
H169 C157 0.929 . S
H170 C158 0.960 . S
H171 C158 0.962 . S
H172 C158 0.960 . S
H173 C159 0.961 . S
H174 C159 0.961 . S
H175 C159 0.961 1_565 S
H176 C160 0.931 . S
H177 C165 0.930 1_655 S
H178 C166 0.956 . S
H179 C166 0.961 . S
H180 C166 0.961 . S
H181 C167 0.958 . S
H182 C167 0.961 . S
H183 C167 0.960 . S
C184 C185 1.391 . S
C184 C186 1.394 . S
C184 H200 0.931 . S
C185 C184 1.391 . S
C185 C189 1.376 . S
C186 C184 1.394 . S
C186 C187 1.369 . S
C186 C190 1.531 . S
C187 C186 1.369 . S
C187 C188 1.410 . S
C187 C195 1.503 . S
C188 C187 1.410 . S
C188 C189 1.392 . S
C188 C191 1.511 . S
C189 C185 1.376 . S
C189 C188 1.392 . S
C189 H201 0.929 . S
C190 C186 1.531 . S
C190 H202 0.960 . S
C190 H203 0.962 . S
C190 H204 0.960 . S
C191 C188 1.511 . S
C191 H205 0.961 . S
C191 H206 0.961 . S
C191 H207 0.961 . S
C192 C193 1.370 . S
C192 C194 1.363 . S
C192 H208 0.931 . S
C193 C192 1.370 . S
C193 C197 1.408 . S
C194 C192 1.363 . S
C194 C195 1.370 . S
C194 C198 1.524 . S
C195 C187 1.503 . S
C195 C194 1.370 . S
C195 C196 1.403 . S
C196 C195 1.403 . S
C196 C197 1.404 . S
C196 C199 1.539 . S
C197 C193 1.408 . S
C197 C196 1.404 . S
C197 H209 0.930 . S
C198 C194 1.524 . S
C198 H210 0.956 . S
C198 H211 0.961 . S
C198 H212 0.961 . S
C199 C196 1.539 . S
C199 H213 0.958 . S
C199 H214 0.961 . S
C199 H215 0.960 . S
H200 C184 0.931 . S
H201 C189 0.929 . S
H202 C190 0.960 . S
H203 C190 0.962 . S
H204 C190 0.960 . S
H205 C191 0.961 . S
H206 C191 0.961 . S
H207 C191 0.961 . S
H208 C192 0.931 . S
H209 C197 0.930 . S
H210 C198 0.956 . S
H211 C198 0.961 . S
H212 C198 0.961 . S
H213 C199 0.958 . S
H214 C199 0.961 . S
H215 C199 0.960 . S
C216 C217 1.391 . S
C216 C218 1.394 . S
C216 H232 0.931 . S
C217 C216 1.391 . S
C217 C221 1.376 . S
C218 C216 1.394 . S
C218 C219 1.369 . S
C218 C222 1.531 . S
C219 C218 1.369 . S
C219 C220 1.410 . S
C219 C227 1.503 . S
C220 C219 1.410 . S
C220 C221 1.392 . S
C220 C223 1.511 1_545 S
C221 C217 1.376 . S
C221 C220 1.392 . S
C221 H233 0.929 . S
C222 C218 1.531 . S
C222 H234 0.971 . S
C222 H235 0.962 1_556 S
C222 H236 0.960 . S
C223 C220 1.511 1_565 S
C223 H237 0.961 . S
C223 H238 0.961 . S
C223 H239 0.961 1_565 S
C224 C225 1.370 1_565 S
C224 C226 1.363 1_554 S
C224 H240 0.931 . S
C225 C224 1.370 1_545 S
C225 C229 1.408 1_554 S
C226 C224 1.363 1_556 S
C226 C227 1.370 1_565 S
C226 C230 1.523 . S
C227 C219 1.503 . S
C227 C226 1.370 1_545 S
C227 C228 1.403 . S
C228 C227 1.403 . S
C228 C229 1.404 . S
C228 C231 1.539 . S
C229 C225 1.408 1_556 S
C229 C228 1.404 . S
C229 H241 0.930 . S
C230 C226 1.523 . S
C230 H242 0.956 1_556 S
C230 H243 0.964 . S
C230 H244 0.958 1_556 S
C231 C228 1.539 . S
C231 H245 0.958 . S
C231 H246 0.961 . S
C231 H247 0.960 . S
H232 C216 0.931 . S
H233 C221 0.929 . S
H234 C222 0.971 . S
H235 C222 0.962 1_554 S
H236 C222 0.960 . S
H237 C223 0.961 . S
H238 C223 0.961 . S
H239 C223 0.961 1_545 S
H240 C224 0.931 . S
H241 C229 0.930 . S
H242 C230 0.956 1_554 S
H243 C230 0.964 . S
H244 C230 0.958 1_554 S
H245 C231 0.958 . S
H246 C231 0.961 . S
H247 C231 0.960 . S
C248 C249 1.391 . S
C248 C250 1.394 . S
C248 H264 0.931 . S
C249 C248 1.391 . S
C249 C253 1.376 . S
C250 C248 1.394 . S
C250 C251 1.369 . S
C250 C254 1.531 . S
C251 C250 1.369 . S
C251 C252 1.410 . S
C251 C259 1.503 . S
C252 C251 1.410 . S
C252 C253 1.392 . S
C252 C255 1.511 . S
C253 C249 1.376 . S
C253 C252 1.392 . S
C253 H265 0.929 . S
C254 C250 1.531 . S
C254 H266 0.960 . S
C254 H267 0.962 . S
C254 H268 0.960 1_545 S
C255 C252 1.511 . S
C255 H269 0.961 . S
C255 H270 0.961 . S
C255 H271 0.961 . S
C256 C257 1.370 . S
C256 C258 1.363 . S
C256 H272 0.931 . S
C257 C256 1.370 . S
C257 C261 1.408 . S
C258 C256 1.363 . S
C258 C259 1.370 . S
C258 C262 1.524 . S
C259 C251 1.503 . S
C259 C258 1.370 . S
C259 C260 1.403 . S
C260 C259 1.403 . S
C260 C261 1.404 . S
C260 C263 1.539 . S
C261 C257 1.408 . S
C261 C260 1.404 . S
C261 H273 0.930 . S
C262 C258 1.524 . S
C262 H274 0.956 . S
C262 H275 0.961 . S
C262 H276 0.961 . S
C263 C260 1.539 . S
C263 H277 0.958 . S
C263 H278 0.961 . S
C263 H279 0.960 . S
H264 C248 0.931 . S
H265 C253 0.929 . S
H266 C254 0.960 . S
H267 C254 0.962 . S
H268 C254 0.960 1_565 S
H269 C255 0.961 . S
H270 C255 0.961 . S
H271 C255 0.961 . S
H272 C256 0.931 . S
H273 C261 0.930 . S
H274 C262 0.956 . S
H275 C262 0.961 . S
H276 C262 0.961 . S
H277 C263 0.958 . S
H278 C263 0.961 . S
H279 C263 0.960 . S
C280 C281 1.391 . S
C280 C282 1.394 . S
C280 H296 0.931 . S
C281 C280 1.391 . S
C281 C285 1.376 1_565 S
C282 C280 1.394 . S
C282 C283 1.369 . S
C282 C286 1.531 . S
C283 C282 1.369 . S
C283 C284 1.410 . S
C283 C291 1.503 . S
C284 C283 1.410 . S
C284 C285 1.392 1_565 S
C284 C287 1.511 1_565 S
C285 C281 1.376 1_545 S
C285 C284 1.392 1_545 S
C285 H297 0.929 . S
C286 C282 1.531 . S
C286 H298 0.960 . S
C286 H299 0.962 . S
C286 H300 0.960 . S
C287 C284 1.511 1_545 S
C287 H301 0.961 . S
C287 H302 0.961 . S
C287 H303 0.961 . S
C288 C289 1.370 . S
C288 C290 1.363 . S
C288 H304 0.931 . S
C289 C288 1.370 . S
C289 C293 1.408 . S
C290 C288 1.363 . S
C290 C291 1.370 . S
C290 C294 1.524 1_565 S
C291 C283 1.503 . S
C291 C290 1.370 . S
C291 C292 1.403 . S
C292 C291 1.403 . S
C292 C293 1.404 . S
C292 C295 1.539 . S
C293 C289 1.408 . S
C293 C292 1.404 . S
C293 H305 0.930 . S
C294 C290 1.524 1_545 S
C294 H306 0.956 1_545 S
C294 H307 0.961 . S
C294 H308 0.961 1_655 S
C295 C292 1.539 . S
C295 H309 0.958 . S
C295 H310 0.961 . S
C295 H311 0.960 . S
H296 C280 0.931 . S
H297 C285 0.929 . S
H298 C286 0.960 . S
H299 C286 0.962 . S
H300 C286 0.960 . S
H301 C287 0.961 . S
H302 C287 0.961 . S
H303 C287 0.961 . S
H304 C288 0.931 . S
H305 C293 0.930 . S
H306 C294 0.956 1_565 S
H307 C294 0.961 . S
H308 C294 0.961 1_455 S
H309 C295 0.958 . S
H310 C295 0.961 . S
H311 C295 0.960 . S
C312 C313 1.391 1_455 S
C312 C314 1.394 . S
C312 H328 0.931 . S
C313 C312 1.391 1_655 S
C313 C317 1.376 . S
C314 C312 1.394 . S
C314 C315 1.369 1_455 S
C314 C318 1.531 . S
C315 C314 1.369 1_655 S
C315 C316 1.410 . S
C315 C323 1.503 1_556 S
C316 C315 1.410 . S
C316 C317 1.392 . S
C316 C319 1.511 . S
C317 C313 1.376 . S
C317 C316 1.392 . S
C317 H329 0.929 . S
C318 C314 1.531 . S
C318 H330 0.960 1_556 S
C318 H331 0.962 1_556 S
C318 H332 0.960 . S
C319 C316 1.511 . S
C319 H333 0.961 . S
C319 H334 0.961 . S
C319 H335 0.961 . S
C320 C321 1.370 . S
C320 C322 1.363 . S
C320 H336 0.931 . S
C321 C320 1.370 . S
C321 C325 1.408 . S
C322 C320 1.363 . S
C322 C323 1.370 . S
C322 C326 1.524 . S
C323 C315 1.503 1_554 S
C323 C322 1.370 . S
C323 C324 1.403 . S
C324 C323 1.403 . S
C324 C325 1.404 . S
C324 C327 1.539 . S
C325 C321 1.408 . S
C325 C324 1.404 . S
C325 H337 0.930 . S
C326 C322 1.524 . S
C326 H338 0.956 . S
C326 H339 0.961 1_554 S
C326 H340 0.961 . S
C327 C324 1.539 . S
C327 H341 0.958 1_665 S
C327 H342 0.961 . S
C327 H343 0.960 1_554 S
H328 C312 0.931 . S
H329 C317 0.929 . S
H330 C318 0.960 1_554 S
H331 C318 0.962 1_554 S
H332 C318 0.960 . S
H333 C319 0.961 . S
H334 C319 0.961 . S
H335 C319 0.961 . S
H336 C320 0.931 . S
H337 C325 0.930 . S
H338 C326 0.956 . S
H339 C326 0.961 1_556 S
H340 C326 0.961 . S
H341 C327 0.958 1_445 S
H342 C327 0.961 . S
H343 C327 0.960 1_556 S
C344 C345 1.391 . S
C344 C346 1.394 . S
C344 H360 0.931 . S
C345 C344 1.391 . S
C345 C349 1.376 . S
C346 C344 1.394 . S
C346 C347 1.369 . S
C346 C350 1.531 . S
C347 C346 1.369 . S
C347 C348 1.410 . S
C347 C355 1.503 . S
C348 C347 1.410 . S
C348 C349 1.392 . S
C348 C351 1.511 . S
C349 C345 1.376 . S
C349 C348 1.392 . S
C349 H361 0.929 . S
C350 C346 1.531 . S
C350 H362 0.960 . S
C350 H363 0.962 . S
C350 H364 0.960 . S
C351 C348 1.511 . S
C351 H365 0.961 . S
C351 H366 0.961 . S
C351 H367 0.961 . S
C352 C353 1.370 . S
C352 C354 1.363 . S
C352 H368 0.931 . S
C353 C352 1.370 . S
C353 C357 1.408 . S
C354 C352 1.363 . S
C354 C355 1.370 . S
C354 C358 1.524 . S
C355 C347 1.503 . S
C355 C354 1.370 . S
C355 C356 1.403 . S
C356 C355 1.403 . S
C356 C357 1.404 . S
C356 C359 1.539 . S
C357 C353 1.408 . S
C357 C356 1.404 . S
C357 H369 0.930 . S
C358 C354 1.524 . S
C358 H370 0.956 . S
C358 H371 0.961 . S
C358 H372 0.961 . S
C359 C356 1.539 . S
C359 H373 0.958 . S
C359 H374 0.961 . S
C359 H375 0.960 . S
H360 C344 0.931 . S
H361 C349 0.929 . S
H362 C350 0.960 . S
H363 C350 0.962 . S
H364 C350 0.960 . S
H365 C351 0.961 . S
H366 C351 0.961 . S
H367 C351 0.961 . S
H368 C352 0.931 . S
H369 C357 0.930 . S
H370 C358 0.956 . S
H371 C358 0.961 . S
H372 C358 0.961 . S
H373 C359 0.958 . S
H374 C359 0.961 . S
H375 C359 0.960 . S
C376 C377 1.391 . S
C376 C378 1.394 . S
C376 H392 0.931 . S
C377 C376 1.391 . S
C377 C381 1.376 . S
C378 C376 1.394 . S
C378 C379 1.369 . S
C378 C382 1.531 . S
C379 C378 1.369 . S
C379 C380 1.410 . S
C379 C387 1.503 . S
C380 C379 1.410 . S
C380 C381 1.392 . S
C380 C383 1.511 1_455 S
C381 C377 1.376 . S
C381 C380 1.392 . S
C381 H393 0.929 . S
C382 C378 1.531 . S
C382 H394 0.960 . S
C382 H395 0.962 . S
C382 H396 0.960 . S
C383 C380 1.511 1_655 S
C383 H397 0.961 . S
C383 H398 0.961 . S
C383 H399 0.961 . S
C384 C385 1.367 1_455 S
C384 C386 1.363 . S
C384 H400 0.931 . S
C385 C384 1.367 1_655 S
C385 C389 1.416 . S
C386 C384 1.363 . S
C386 C387 1.370 . S
C386 C390 1.524 . S
C387 C379 1.503 . S
C387 C386 1.370 . S
C387 C388 1.403 1_455 S
C388 C387 1.403 1_655 S
C388 C389 1.404 . S
C388 C391 1.539 . S
C389 C385 1.416 . S
C389 C388 1.404 . S
C389 H401 0.930 . S
C390 C386 1.524 . S
C390 H402 0.956 . S
C390 H403 0.961 . S
C390 H404 0.961 . S
C391 C388 1.539 . S
C391 H405 0.958 . S
C391 H406 0.961 . S
C391 H407 0.960 . S
H392 C376 0.931 . S
H393 C381 0.929 . S
H394 C382 0.960 . S
H395 C382 0.962 . S
H396 C382 0.960 . S
H397 C383 0.961 . S
H398 C383 0.961 . S
H399 C383 0.961 . S
H400 C384 0.931 . S
H401 C389 0.930 . S
H402 C390 0.956 . S
H403 C390 0.961 . S
H404 C390 0.961 . S
H405 C391 0.958 . S
H406 C391 0.961 . S
H407 C391 0.960 . S
C121 C9 1.509 1_455 S
C129 C18 1.555 1_655 S
C153 C58 1.580 . S
C161 C49 1.621 1_465 S
C185 C89 1.315 . S
C193 C98 1.329 . S
C217 C86 0.996 . S
C225 C15 0.984 1_545 S
C249 C59 1.858 . S
C257 C6 1.832 . S
C281 C99 2.413 . S
C289 C50 2.425 . S
C313 C90 2.380 . S
C321 C19 2.336 . S
C345 C10 1.832 . S
C353 C55 1.716 . S
C377 C95 0.952 . S
C385 C46 1.027 . S
