# Generated by pormake.
# Topology vby, (6)-cn, num edge types: 1
# Building blocks:
#     Node 0, Type 0, BuildingBlock: PAMTOO_clean_sbu_0, # of connection points: 6
#     Node 1, Type 0, BuildingBlock: PAMTOO_clean_sbu_0, # of connection points: 6
#     Node 2, Type 0, BuildingBlock: PAMTOO_clean_sbu_0, # of connection points: 6
#     Node 3, Type 0, BuildingBlock: PAMTOO_clean_sbu_0, # of connection points: 6
#     Node 4, Type 0, BuildingBlock: PAMTOO_clean_sbu_0, # of connection points: 6
#     Node 5, Type 0, BuildingBlock: PAMTOO_clean_sbu_0, # of connection points: 6
#     Node 6, Type 0, BuildingBlock: PAMTOO_clean_sbu_0, # of connection points: 6
#     Node 7, Type 0, BuildingBlock: PAMTOO_clean_sbu_0, # of connection points: 6
#     Edge 8, Type (0, 0), BuildingBlock: AJUNOK_clean_linker_0, # of connection points: 2
#     Edge 9, Type (0, 0), BuildingBlock: AJUNOK_clean_linker_0, # of connection points: 2
#     Edge 10, Type (0, 0), BuildingBlock: AJUNOK_clean_linker_0, # of connection points: 2
#     Edge 11, Type (0, 0), BuildingBlock: AJUNOK_clean_linker_0, # of connection points: 2
#     Edge 12, Type (0, 0), BuildingBlock: AJUNOK_clean_linker_0, # of connection points: 2
#     Edge 13, Type (0, 0), BuildingBlock: AJUNOK_clean_linker_0, # of connection points: 2
#     Edge 14, Type (0, 0), BuildingBlock: AJUNOK_clean_linker_0, # of connection points: 2
#     Edge 15, Type (0, 0), BuildingBlock: AJUNOK_clean_linker_0, # of connection points: 2
#     Edge 16, Type (0, 0), BuildingBlock: AJUNOK_clean_linker_0, # of connection points: 2
#     Edge 17, Type (0, 0), BuildingBlock: AJUNOK_clean_linker_0, # of connection points: 2
#     Edge 18, Type (0, 0), BuildingBlock: AJUNOK_clean_linker_0, # of connection points: 2
#     Edge 19, Type (0, 0), BuildingBlock: AJUNOK_clean_linker_0, # of connection points: 2
#     Edge 20, Type (0, 0), BuildingBlock: AJUNOK_clean_linker_0, # of connection points: 2
#     Edge 21, Type (0, 0), BuildingBlock: AJUNOK_clean_linker_0, # of connection points: 2
#     Edge 22, Type (0, 0), BuildingBlock: AJUNOK_clean_linker_0, # of connection points: 2
#     Edge 23, Type (0, 0), BuildingBlock: AJUNOK_clean_linker_0, # of connection points: 2
#     Edge 24, Type (0, 0), BuildingBlock: AJUNOK_clean_linker_0, # of connection points: 2
#     Edge 25, Type (0, 0), BuildingBlock: AJUNOK_clean_linker_0, # of connection points: 2
#     Edge 26, Type (0, 0), BuildingBlock: AJUNOK_clean_linker_0, # of connection points: 2
#     Edge 27, Type (0, 0), BuildingBlock: AJUNOK_clean_linker_0, # of connection points: 2
#     Edge 28, Type (0, 0), BuildingBlock: AJUNOK_clean_linker_0, # of connection points: 2
#     Edge 29, Type (0, 0), BuildingBlock: AJUNOK_clean_linker_0, # of connection points: 2
#     Edge 30, Type (0, 0), BuildingBlock: AJUNOK_clean_linker_0, # of connection points: 2
#     Edge 31, Type (0, 0), BuildingBlock: AJUNOK_clean_linker_0, # of connection points: 2
# Relax obj value: 0.143
# Max RMSD: 0.198
# Mean RMSD: 0.188
data_MOF--net-vby--node1-PAMTOO_clean_sbu_0--edge1-AJUNOK_clean_linker_0
_symmetry_space_group_name_H-M    P1
_symmetry_Int_Tables_number       1
_symmetry_cell_setting            triclinic
loop_
_symmetry_equiv_pos_as_xyz
'x, y, z'
_cell_length_a     11.338158
_cell_length_b     89.429639
_cell_length_c     22.087901
_cell_angle_alpha  85.770144
_cell_angle_beta   94.372579
_cell_angle_gamma 90.033956
loop_
_atom_site_label
_atom_site_type_symbol
_atom_site_fract_x
_atom_site_fract_y
_atom_site_fract_z
_atom_type_partial_charge
Dy0 Dy 0.11491 0.40877 -6e-05 0.0
Dy1 Dy 0.11359 0.37151 0.02061 0.0
C2 C 0.08698 0.39265 0.12949 0.0
O3 O 0.30024 0.40083 0.02815 0.0
O4 O 0.2925 0.37762 -0.00892 0.0
O5 O 0.18465 0.42972 0.02879 0.0
O6 O 0.07275 0.42938 0.94423 0.0
O7 O 0.06519 0.37682 0.92158 0.0
O8 O 0.15501 0.39971 0.91269 0.0
O9 O 0.92942 0.37862 0.03391 0.0
O10 O 0.92289 0.40243 0.9856 0.0
O11 O 0.04097 0.34964 0.00483 0.0
O12 O 0.18881 0.3518 0.07199 0.0
C13 C 0.35347 0.38919 0.00907 0.0
O14 O 0.05002 0.4039 0.09157 0.0
O15 O 0.14345 0.38124 0.11078 0.0
C16 C 0.09494 0.45299 0.98908 0.0
C17 C 0.06422 0.48397 0.00048 0.0
C18 C 0.07233 0.47383 0.05245 0.0
C19 C 0.08797 0.45845 0.04685 0.0
C20 C 0.0812 0.46305 0.93721 0.0
C21 C 0.06615 0.47837 0.94281 0.0
C22 C 0.13462 0.43755 0.98155 0.0
C23 C 0.10329 0.38829 0.88804 0.0
C24 C 0.86984 0.39034 0.00826 0.0
C25 C 0.16292 0.32786 0.03186 0.0
C26 C 0.22273 0.2977 0.01781 0.0
C27 C 0.16468 0.30655 0.96924 0.0
C28 C 0.13436 0.32149 0.97627 0.0
C29 C 0.22544 0.31918 0.07932 0.0
C30 C 0.25539 0.30429 0.07234 0.0
C31 C 0.11653 0.34267 0.04468 0.0
H32 H 0.07205 0.47787 0.09748 0.0
H33 H 0.09938 0.45096 0.0877 0.0
H34 H 0.08752 0.45914 0.89226 0.0
H35 H 0.05913 0.48591 0.90199 0.0
H36 H 0.1389 0.30175 0.92662 0.0
H37 H 0.08554 0.32787 0.93895 0.0
H38 H 0.24785 0.32377 0.12276 0.0
H39 H 0.30243 0.29784 0.11007 0.0
Dy40 Dy 0.98273 0.66203 0.98072 0.0
Dy41 Dy 0.97822 0.62472 0.98162 0.0
C42 C 1.00138 0.64133 0.10335 0.0
O43 O 0.17122 0.65494 -0.00115 0.0
O44 O 0.16933 0.63029 0.97345 0.0
O45 O 1.03273 0.68229 0.02373 0.0
O46 O 0.94435 0.68356 0.93262 0.0
O47 O 0.9303 0.6349 0.88765 0.0
O48 O 0.04687 0.6554 0.89409 0.0
O49 O 0.79679 0.63183 -0.00017 0.0
O50 O 0.79397 0.65607 0.95796 0.0
O51 O 0.99894 0.60471 0.93397 0.0
O52 O 0.92849 0.6032 0.02308 0.0
C53 C 0.22577 0.64273 0.98595 0.0
O54 O 0.94494 0.65279 0.07367 0.0
O55 O 0.04548 0.63059 0.07427 0.0
C56 C 0.92724 0.70499 0.99047 0.0
C57 C 0.84308 0.73417 0.00501 0.0
C58 C 0.9249 0.72705 0.04879 0.0
C59 C 0.96668 0.71264 0.04153 0.0
C60 C 0.84242 0.71193 0.94766 0.0
C61 C 0.80084 0.72637 0.95489 0.0
C62 C 0.98804 0.69103 0.97771 0.0
C63 C 0.9968 0.64513 0.86189 0.0
C64 C 0.73894 0.64403 0.97856 0.0
C65 C 1.00284 0.5804 0.98805 0.0
C66 C 0.04297 0.54906 0.00228 0.0
C67 C 0.04306 0.55686 0.94466 0.0
C68 C 1.02297 0.57231 0.93765 0.0
C69 C 1.00781 0.57275 0.04621 0.0
C70 C 1.02833 0.55723 0.05327 0.0
C71 C 0.95742 0.59596 0.97718 0.0
H72 H 0.96074 0.73289 0.08729 0.0
H73 H 1.03377 0.70774 0.07464 0.0
H74 H 0.81127 0.70645 0.90735 0.0
H75 H 0.73748 0.73158 0.92055 0.0
H76 H 0.05336 0.5509 0.90442 0.0
H77 H 1.01753 0.57783 0.89216 0.0
H78 H 0.99166 0.57863 0.08594 0.0
H79 H 1.03028 0.55159 0.09843 0.0
Dy80 Dy 0.0922 0.66013 0.48272 0.0
Dy81 Dy 0.09931 0.62265 0.49144 0.0
C82 C 0.07252 0.64187 0.36697 0.0
O83 O 0.90895 0.65302 0.49847 0.0
O84 O 0.90556 0.62822 0.47578 0.0
O85 O 0.12629 0.68134 0.43404 0.0
O86 O 0.04062 0.68081 0.5189 0.0
O87 O 0.04658 0.62957 0.58035 0.0
O88 O 0.14575 0.65191 0.57872 0.0
O89 O 0.28515 0.62992 0.51344 0.0
O90 O 0.27798 0.65396 0.46859 0.0
O91 O 0.15268 0.60123 0.53778 0.0
O92 O 0.07218 0.60244 0.44465 0.0
C93 C 0.85147 0.64071 0.48651 0.0
O94 O 1.02077 0.65238 0.39372 0.0
O95 O 0.14022 0.63194 0.39921 0.0
C96 C 0.13639 0.70362 0.48832 0.0
C97 C 0.22057 0.73306 0.50182 0.0
C98 C 0.28997 0.72245 0.47635 0.0
C99 C 0.24821 0.70785 0.46957 0.0
C100 C 0.06889 0.7141 0.51525 0.0
C101 C 0.11036 0.72864 0.5219 0.0
C102 C 0.0812 0.68918 0.47431 0.0
C103 C 0.09188 0.64095 0.60841 0.0
C104 C 0.33777 0.642 0.49143 0.0
C105 C 0.0822 0.57802 0.49829 0.0
C106 C 0.06196 0.54646 0.50744 0.0
C107 C 0.08082 0.55429 0.56018 0.0
C108 C 0.09189 0.56995 0.55564 0.0
C109 C 0.05636 0.57019 0.44606 0.0
C110 C 0.04625 0.5546 0.45059 0.0
C111 C 0.11959 0.59386 0.49049 0.0
H112 H 0.37466 0.72558 0.45976 0.0
H113 H 0.30179 0.70004 0.44815 0.0
H114 H 0.98196 0.71116 0.52953 0.0
H115 H 0.05538 0.73653 0.54207 0.0
H116 H 0.09294 0.54823 0.60454 0.0
H117 H 0.11328 0.57563 0.59667 0.0
H118 H 0.05001 0.57604 0.40119 0.0
H119 H 1.03 0.54883 0.40934 0.0
Dy120 Dy 0.98008 0.36939 0.50957 0.0
Dy121 Dy 0.97204 0.40677 0.49635 0.0
C122 C 0.98097 0.38828 0.38366 0.0
O123 O 0.16935 0.37613 0.5242 0.0
O124 O 0.16219 0.40112 0.48833 0.0
O125 O 0.96699 0.34896 0.464 0.0
O126 O 1.00771 0.34794 0.56175 0.0
O127 O 0.05001 0.40007 0.58957 0.0
O128 O 0.95887 0.37726 0.60195 0.0
O129 O 0.79621 0.39899 0.52333 0.0
O130 O 0.78901 0.37555 0.4878 0.0
O131 O 0.91344 0.42752 0.52837 0.0
O132 O 0.99749 0.42769 0.44302 0.0
C133 C 0.22155 0.38872 0.50675 0.0
O134 O 1.03681 0.3778 0.41911 0.0
O135 O 0.91551 0.39807 0.407 0.0
C136 C 0.92061 0.32606 0.51944 0.0
C137 C 0.82939 0.29654 0.52465 0.0
C138 C 0.81956 0.30568 0.4699 0.0
C139 C 0.86432 0.32024 0.46734 0.0
C140 C 0.92812 0.31707 0.57459 0.0
C141 C 0.88277 0.30247 0.5772 0.0
C142 C 0.98719 0.34032 0.51389 0.0
C143 C 1.01406 0.38877 0.62476 0.0
C144 C 0.73604 0.38745 0.50491 0.0
C145 C 0.99635 0.45081 0.49145 0.0
C146 C 0.04535 0.48147 0.50437 0.0
C147 C 1.03416 0.47152 0.55598 0.0
C148 C 1.00993 0.45631 0.54963 0.0
C149 C 1.01087 0.46067 0.44019 0.0
C150 C 1.03484 0.47581 0.44651 0.0
C151 C 0.94947 0.43566 0.48192 0.0
H152 H 0.78196 0.30134 0.4282 0.0
H153 H 0.85926 0.32669 0.42373 0.0
H154 H 0.97291 0.3211 0.61527 0.0
H155 H 0.89175 0.29569 0.62002 0.0
H156 H 0.04182 0.47557 0.60113 0.0
H157 H 0.9979 0.44902 0.59003 0.0
H158 H 0.9983 0.4568 0.39479 0.0
H159 H 0.0399 0.48323 0.40574 0.0
Dy160 Dy 0.59068 0.90716 0.03288 0.0
Dy161 Dy 0.58636 0.86975 0.03647 0.0
C162 C 0.57978 0.88717 0.15415 0.0
O163 O 0.7723 0.90008 0.01478 0.0
O164 O 0.7759 0.87574 0.05619 0.0
O165 O 0.5646 0.92737 0.07857 0.0
O166 O 0.64339 0.92856 -0.00845 0.0
O167 O 0.62373 0.87859 0.94295 0.0
O168 O 0.52365 0.90088 0.94072 0.0
O169 O 0.3987 0.87688 0.0162 0.0
O170 O 0.40012 0.90142 0.04249 0.0
O171 O 0.53556 0.8493 -0.00498 0.0
O172 O 0.62415 0.84839 0.08603 0.0
C173 C 0.83021 0.88782 0.03534 0.0
O174 O 0.64465 0.89724 0.12637 0.0
O175 O 0.52663 0.8768 0.1236 0.0
C176 C 0.57002 0.95174 0.02419 0.0
C177 C 0.54319 0.98333 0.01214 0.0
C178 C 0.51537 0.97506 0.06573 0.0
C179 C 0.52921 0.95946 0.0718 0.0
C180 C 0.59172 0.95993 0.96934 0.0
C181 C 0.57791 0.97555 0.96331 0.0
C182 C 0.61064 0.93597 0.03625 0.0
C183 C 0.56641 0.88988 0.91252 0.0
C184 C 0.3437 0.88903 0.0293 0.0
C185 C 0.63954 0.8266 0.03005 0.0
C186 C 0.71866 0.79701 0.01936 0.0
C187 C 0.63784 0.804 0.97478 0.0
C188 C 0.59817 0.81861 0.98026 0.0
C189 C 0.72501 0.81985 0.07302 0.0
C190 C 0.76442 0.80523 0.06758 0.0
C191 C 0.57993 0.84073 0.04162 0.0
H192 H 0.48852 0.98073 0.10415 0.0
H193 H 0.51372 0.95354 0.11502 0.0
H194 H 0.62446 0.95439 0.93196 0.0
H195 H 0.59751 0.98159 0.92096 0.0
H196 H 0.60113 0.79792 0.93714 0.0
H197 H 0.53111 0.82339 0.94687 0.0
H198 H 0.75822 0.82563 0.11217 0.0
H199 H 0.82863 0.80021 0.10193 0.0
Dy200 Dy 0.47564 0.16211 0.98152 0.0
Dy201 Dy 0.47084 0.12468 0.98633 0.0
C202 C 0.50503 0.14199 0.10644 0.0
O203 O 0.6656 0.15524 -0.00244 0.0
O204 O 0.66094 0.1302 0.97715 0.0
O205 O 0.52514 0.18288 0.02075 0.0
O206 O 0.43404 0.18323 0.93049 0.0
O207 O 0.41365 0.1346 0.89325 0.0
O208 O 0.53402 0.15477 0.89455 0.0
O209 O 0.29428 0.13197 0.01003 0.0
O210 O 0.28505 0.15582 0.96412 0.0
O211 O 0.49135 0.10463 0.9391 0.0
O212 O 0.42036 0.10319 0.02805 0.0
C213 C 0.71887 0.14261 0.98823 0.0
O214 O 0.44846 0.15349 0.07691 0.0
O215 O 0.5436 0.13083 0.07762 0.0
C216 C 0.41737 0.2053 0.98443 0.0
C217 C 0.3341 0.23465 -0.00255 0.0
C218 C 0.39396 0.2263 0.04691 0.0
C219 C 0.4353 0.2118 0.04046 0.0
C220 C 0.35461 0.21351 0.93552 0.0
C221 C 0.31335 0.228 0.94199 0.0
C222 C 0.4786 0.19118 0.97385 0.0
C223 C 0.47966 0.14437 0.86469 0.0
C224 C 0.23323 0.14373 0.98698 0.0
C225 C 0.49343 0.08025 -0.00683 0.0
C226 C 0.53033 0.0488 0.00346 0.0
C227 C 0.55626 0.05745 0.9504 0.0
C228 C 0.53792 0.07298 0.9453 0.0
C229 C 0.47163 0.07167 0.04712 0.0
C230 C 0.49004 0.05613 0.05221 0.0
C231 C 0.44931 0.0959 0.98225 0.0
H232 H 0.41341 0.23122 0.08989 0.0
H233 H 0.48535 0.20594 0.07872 0.0
H234 H 0.34108 0.20895 0.89143 0.0
H235 H 0.26727 0.23414 0.90314 0.0
H236 H 0.58511 0.05212 0.91156 0.0
H237 H 0.55293 0.07917 0.90257 0.0
H238 H 0.43532 0.07685 0.08447 0.0
H239 H 0.4697 0.04977 0.09375 0.0
Dy240 Dy 0.59433 0.16014 0.48749 0.0
Dy241 Dy 0.6035 0.12288 0.4935 0.0
C242 C 0.58031 0.14248 0.37029 0.0
O243 O 0.40765 0.15326 0.49767 0.0
O244 O 0.40957 0.12811 0.47942 0.0
O245 O 0.62188 0.18139 0.43709 0.0
O246 O 0.5517 0.18078 0.52613 0.0
O247 O 0.54145 0.12892 0.58152 0.0
O248 O 0.63483 0.1516 0.58462 0.0
O249 O 0.78476 0.13042 0.52234 0.0
O250 O 0.78221 0.15407 0.47481 0.0
O251 O 0.6658 0.1016 0.53716 0.0
O252 O 0.57452 0.10272 0.44652 0.0
C253 C 0.35308 0.14055 0.48862 0.0
O254 O 0.52531 0.1526 0.39762 0.0
O255 O 0.64816 0.13257 0.40248 0.0
C256 C 0.64115 0.20375 0.49008 0.0
C257 C 0.70948 0.23359 0.50755 0.0
C258 C 0.68142 0.22903 0.44873 0.0
C259 C 0.64748 0.21429 0.44014 0.0
C260 C 0.67437 0.20809 0.54892 0.0
C261 C 0.70911 0.2229 0.5575 0.0
C262 C 0.5845 0.18918 0.47958 0.0
C263 C 0.58005 0.14028 0.61167 0.0
C264 C 0.84014 0.14204 0.49867 0.0
C265 C 0.58501 0.07858 0.50223 0.0
C266 C 0.55283 0.04718 0.51185 0.0
C267 C 0.60953 0.05441 0.56033 0.0
C268 C 0.626 0.06995 0.55545 0.0
C269 C 0.52224 0.07143 0.45523 0.0
C270 C 0.50584 0.0559 0.46014 0.0
C271 C 0.62681 0.09415 0.49106 0.0
H272 H 0.6831 0.23699 0.40938 0.0
H273 H 0.62157 0.21127 0.3944 0.0
H274 H 0.66967 0.20023 0.58836 0.0
H275 H 0.7309 0.22615 0.60329 0.0
H276 H 0.6444 0.04799 0.60129 0.0
H277 H 0.67583 0.07507 0.59222 0.0
H278 H 0.49108 0.07769 0.41323 0.0
H279 H 0.46174 0.05062 0.42208 0.0
Dy280 Dy 0.47224 0.8693 0.53361 0.0
Dy281 Dy 0.46239 0.90662 0.52739 0.0
C282 C 0.48676 0.88931 0.40907 0.0
O283 O 0.65837 0.87624 0.5224 0.0
O284 O 0.65641 0.90131 0.5419 0.0
O285 O 0.51136 0.84846 0.49538 0.0
O286 O 0.44966 0.84822 0.58622 0.0
O287 O 0.41504 0.89678 0.6174 0.0
O288 O 0.54138 0.87715 0.6231 0.0
O289 O 0.28136 0.89909 0.498 0.0
O290 O 0.2837 0.87537 0.54509 0.0
O291 O 0.48934 0.92658 0.57565 0.0
O292 O 0.40288 0.92806 0.48391 0.0
C293 C 0.71295 0.88893 0.53197 0.0
O294 O 0.43445 0.87772 0.43594 0.0
O295 O 0.52418 0.90068 0.43942 0.0
C296 C 0.42851 0.82547 0.53594 0.0
C297 C 0.35732 0.79552 0.52245 0.0
C298 C 0.3466 0.80625 0.47242 0.0
C299 C 0.38265 0.8211 0.47898 0.0
C300 C 0.43453 0.81487 0.58623 0.0
C301 C 0.39915 0.80008 0.57964 0.0
C302 C 0.48386 0.84025 0.54354 0.0
C303 C 0.48528 0.88725 0.65 0.0
C304 C 0.2259 0.88742 0.52128 0.0
C305 C 0.48506 0.9508 0.5209 0.0
C306 C 0.52721 0.98202 0.51307 0.0
C307 C 0.57201 0.97292 0.56423 0.0
C308 C 0.5511 0.95748 0.56813 0.0
C309 C 0.44438 0.95982 0.46867 0.0
C310 C 0.4654 0.97526 0.46478 0.0
C311 C 0.44006 0.93534 0.53084 0.0
H312 H 0.31403 0.80304 0.42787 0.0
H313 H 0.37762 0.82902 0.43931 0.0
H314 H 0.47023 0.81793 0.63052 0.0
H315 H 0.40591 0.79214 0.61924 0.0
H316 H 0.61802 0.97783 0.60266 0.0
H317 H 0.58155 0.95093 0.60957 0.0
H318 H 0.39146 0.95508 0.43196 0.0
H319 H 0.43025 0.98201 0.42471 0.0
C320 C 0.54774 0.40284 0.00761 0.0
C321 C 0.48492 0.38921 0.00802 0.0
C322 C 0.67169 0.40318 0.00646 0.0
C323 C 0.73821 0.38989 0.00679 0.0
H324 H 0.50079 0.41338 0.00775 0.0
H325 H 0.71577 0.41393 0.00643 0.0
S326 S 0.61712 0.35125 0.00693 0.0
N327 N 0.49955 0.36209 0.00777 0.0
N328 N 0.73134 0.3627 0.00632 0.0
C329 C 0.6765 0.3762 0.00699 0.0
C330 C 0.55037 0.37586 0.00736 0.0
C331 C 0.42416 0.63012 -0.00708 0.0
C332 C 0.35608 0.64332 0.98357 0.0
C333 C 0.54751 0.63049 -0.00892 0.0
C334 C 0.60782 0.64407 0.97901 0.0
H335 H 0.38213 0.61941 0.00251 0.0
H336 H 0.59571 0.61999 -0.00092 0.0
S337 S 0.46918 0.68175 0.94804 0.0
N338 N 0.35736 0.67034 0.95956 0.0
N339 N 0.58859 0.67104 0.95601 0.0
C340 C 0.54036 0.65734 0.96856 0.0
C341 C 0.41482 0.65697 0.97092 0.0
C342 C 0.65531 0.62789 0.49451 0.0
C343 C 0.72045 0.64118 0.48644 0.0
C344 C 0.53191 0.62827 0.49692 0.0
C345 C 0.46865 0.64194 0.49067 0.0
H346 H 0.69993 0.61712 0.49982 0.0
H347 H 0.48578 0.61772 0.50313 0.0
S348 S 0.59712 0.67996 0.46756 0.0
N349 N 0.71158 0.66846 0.47122 0.0
N350 N 0.481 0.66911 0.47607 0.0
C351 C 0.5327 0.6553 0.48221 0.0
C352 C 0.6581 0.65494 0.48003 0.0
C353 C 0.53859 0.37472 0.50586 0.0
C354 C 0.60501 0.388 0.50461 0.0
C355 C 0.41502 0.37507 0.50719 0.0
C356 C 0.35263 0.38873 0.50651 0.0
H357 H 0.58235 0.36394 0.50656 0.0
H358 H 0.36808 0.36451 0.50816 0.0
S359 S 0.48475 0.42676 0.50165 0.0
N360 N 0.59862 0.41529 0.5016 0.0
N361 N 0.36728 0.4159 0.50401 0.0
C362 C 0.41795 0.40211 0.50466 0.0
C363 C 0.54373 0.40175 0.50378 0.0
C364 C 1.02264 0.90142 0.02842 0.0
C365 C 0.96102 0.88775 0.03432 0.0
C366 C 0.14609 0.90176 0.02695 0.0
C367 C 0.21294 0.88844 0.03053 0.0
H368 H 0.97538 0.912 0.02535 0.0
H369 H 0.18917 0.91255 0.0225 0.0
S370 S 0.09451 0.84965 0.04638 0.0
N371 N 0.9766 0.86054 0.04373 0.0
N372 N 0.20788 0.86111 0.04091 0.0
C373 C 0.15237 0.87467 0.03633 0.0
C374 C 1.02679 0.87435 0.03832 0.0
C375 C 1.03491 0.15649 0.97938 0.0
C376 C 0.1023 0.1432 0.98746 0.0
C377 C 0.91133 0.15619 0.9804 0.0
C378 C 0.84991 0.14258 0.98882 0.0
H379 H 0.07782 0.16725 0.97267 0.0
H380 H 0.8636 0.16675 0.97379 0.0
S381 S 0.98456 0.10455 0.01181 0.0
N382 N 0.09772 0.11595 0.00398 0.0
N383 N 0.86632 0.11545 0.00588 0.0
C384 C 0.91614 0.12919 -0.00317 0.0
C385 C 0.04195 0.12949 -0.00379 0.0
C386 C 0.15841 0.15402 0.48113 0.0
C387 C 0.22233 0.14042 0.49031 0.0
C388 C 1.0354 0.15444 0.48415 0.0
C389 C 0.97099 0.14131 0.49721 0.0
H390 H 0.20356 0.16449 0.47114 0.0
H391 H 0.99074 0.16519 0.47644 0.0
S392 S 0.09625 0.10276 0.52557 0.0
N393 N 0.21184 0.11347 0.51334 0.0
N394 N 0.98105 0.11419 0.51921 0.0
C395 C 1.03386 0.1276 0.5067 0.0
C396 C 0.1592 0.12717 0.50308 0.0
C397 C 0.90747 0.87544 0.53837 0.0
C398 C 0.84372 0.88906 0.53012 0.0
C399 C 1.03043 0.87501 0.53514 0.0
C400 C 0.09502 0.88817 0.52275 0.0
H401 H 0.86223 0.86495 0.54781 0.0
H402 H 0.07493 0.86424 0.54216 0.0
S403 S 0.97032 0.92679 0.49698 0.0
N404 N 0.85461 0.91606 0.50873 0.0
N405 N 0.08531 0.91533 0.50243 0.0
C406 C 1.03233 0.9019 0.51418 0.0
C407 C 0.90702 0.90233 0.51804 0.0
C408 C 0.13822 0.5253 0.9764 0.0
C409 C 0.053 0.53239 0.00769 0.0
C410 C 0.1422 0.50966 0.97536 0.0
C411 C 0.06142 0.50044 0.00574 0.0
H412 H 0.20162 0.53192 0.95179 0.0
H413 H 0.20874 0.50474 0.95015 0.0
S414 S 0.82021 0.51329 0.0939 0.0
N415 N 0.88518 0.5289 0.06964 0.0
N416 N 0.89412 0.49946 0.06827 0.0
C417 C 0.97751 0.5073 0.03842 0.0
C418 C 0.97296 0.52327 0.03927 0.0
C419 C 0.9845 0.50559 0.54523 0.0
C420 C 0.05961 0.49788 0.50996 0.0
C421 C 0.98767 0.5213 0.54574 0.0
C422 C 0.06546 0.52983 0.51068 0.0
H423 H 0.91982 0.49949 0.57088 0.0
H424 H 0.92621 0.52684 0.57207 0.0
S425 S 0.29114 0.51501 0.41744 0.0
N426 N 0.22234 0.49995 0.44429 0.0
N427 N 0.22687 0.5294 0.44455 0.0
C428 C 0.14439 0.52223 0.47744 0.0
C429 C 0.14179 0.50629 0.47723 0.0
C430 C 0.44331 1.00774 0.02684 0.0
C431 C 0.54132 1.00004 0.00867 0.0
C432 C 0.44115 0.02346 0.02557 0.0
C433 C 0.53707 0.03212 0.00627 0.0
H434 H 0.36711 1.00157 0.04163 0.0
H435 H 0.36282 0.02889 0.03895 0.0
S436 S 0.81901 0.01736 0.95908 0.0
N437 N 0.73955 1.00224 0.97405 0.0
N438 N 0.73534 0.03175 0.97168 0.0
C439 C 0.63628 0.02455 0.9888 0.0
C440 C 0.63845 1.00854 0.99 0.0
C441 C 0.44117 0.0233 0.49775 0.0
C442 C 0.54813 0.03054 0.51347 0.0
C443 C 0.43563 1.00764 0.49718 0.0
C444 C 0.53693 0.99862 0.5121 0.0
H445 H 0.36085 0.02979 0.48632 0.0
H446 H 0.35086 1.00255 0.48584 0.0
S447 S 0.84045 1.01213 0.55148 0.0
N448 N 0.75905 0.02754 0.54104 0.0
N449 N 0.74844 0.99812 0.53999 0.0
C450 C 0.64472 1.00572 0.52711 0.0
C451 C 0.65037 0.02166 0.52777 0.0
C452 C 0.30365 0.27688 0.96256 0.0
C453 C 0.2467 0.28152 0.01241 0.0
C454 C 0.33007 0.2617 0.95773 0.0
C455 C 0.30014 0.25057 0.00243 0.0
H456 H 0.33017 0.28508 0.92769 0.0
H457 H 0.37662 0.25869 0.9193 0.0
S458 S 0.13871 0.25671 0.13842 0.0
N459 N 0.15359 0.27367 0.10506 0.0
N460 N 0.20291 0.24517 0.09584 0.0
C461 C 0.24039 0.25503 0.05164 0.0
C462 C 0.2137 0.27048 0.05662 0.0
C463 C 0.78687 0.7757 0.96272 0.0
C464 C 0.75058 0.78096 0.01685 0.0
C465 C 0.81526 0.76053 0.95913 0.0
C466 C 0.80804 0.75005 0.00949 0.0
H467 H 0.79466 0.7834 0.92302 0.0
H468 H 0.84497 0.75704 0.91687 0.0
S469 S 0.70712 0.75783 0.15989 0.0
N470 N 0.70197 0.77431 0.12073 0.0
N471 N 0.75533 0.74583 0.11393 0.0
C472 C 0.76991 0.75511 0.06353 0.0
C473 C 0.74117 0.77055 0.06722 0.0
C474 C 0.18219 0.76072 0.4838 0.0
C475 C 0.25973 0.74888 0.50556 0.0
C476 C 0.21516 0.77576 0.48821 0.0
C477 C 0.32642 0.77954 0.51524 0.0
H478 H 0.09516 0.75834 0.46309 0.0
H479 H 0.15217 0.78449 0.4715 0.0
S480 S 0.56327 0.75283 0.57771 0.0
N481 N 0.45362 0.74201 0.55408 0.0
N482 N 0.51592 0.77025 0.56206 0.0
C483 C 0.40544 0.76783 0.53638 0.0
C484 C 0.37216 0.75252 0.53151 0.0
C485 C 0.8686 0.2691 0.55194 0.0
C486 C 0.79175 0.28057 0.5254 0.0
C487 C 0.84021 0.2539 0.54763 0.0
C488 C 0.73438 0.24963 0.5163 0.0
H489 H 0.95325 0.27189 0.57432 0.0
H490 H 0.90323 0.24544 0.56713 0.0
S491 S 0.49605 0.27514 0.44612 0.0
N492 N 0.59986 0.28648 0.47223 0.0
N493 N 0.54761 0.25797 0.46341 0.0
C494 C 0.65468 0.26094 0.49189 0.0
C495 C 0.68307 0.27638 0.49659 0.0
C496 C 0.08862 0.37925 0.23258 0.0
C497 C 0.05995 0.3922 0.1942 0.0
C498 C 0.06045 0.37805 0.29318 0.0
C499 C 1.0022 0.38974 0.31822 0.0
H500 H 0.13278 0.36982 0.21582 0.0
H501 H 0.08498 0.36782 0.32059 0.0
S502 S 0.90887 0.42624 0.23771 0.0
N503 N 0.97053 0.41711 0.18591 0.0
N504 N 0.91767 0.41484 0.30018 0.0
C505 C 0.97256 0.40279 0.28054 0.0
C506 C 1.00157 0.40403 0.21854 0.0
C507 C 0.98427 0.65332 0.20104 0.0
C508 C 1.01854 0.6409 0.17069 0.0
C509 C 1.00202 0.65351 0.26436 0.0
C510 C 0.05512 0.6413 0.30006 0.0
H511 H 0.9441 0.6631 0.17578 0.0
H512 H 0.97462 0.66338 0.28531 0.0
S513 S 0.15589 0.60569 0.24361 0.0
N514 N 0.10474 0.61582 0.18171 0.0
N515 N 0.13828 0.61618 0.30068 0.0
C516 C 0.08875 0.62872 0.27053 0.0
C517 C 0.07039 0.62851 0.20593 0.0
C518 C 0.96349 0.63396 0.76154 0.0
C519 C 1.02249 0.64443 0.79735 0.0
C520 C 0.98839 0.63275 0.70099 0.0
C521 C 0.07325 0.64196 0.67365 0.0
H522 H 0.89706 0.62664 0.78022 0.0
H523 H 0.93908 0.62464 0.67524 0.0
S524 S 0.25762 0.67067 0.74854 0.0
N525 N 0.17327 0.66385 0.80156 0.0
N526 N 0.2196 0.66156 0.68779 0.0
C527 C 0.13412 0.65236 0.7091 0.0
C528 C 0.10885 0.6536 0.77086 0.0
C529 C 1.02219 0.37583 0.72949 0.0
C530 C 0.0381 0.38892 0.69161 0.0
C531 C 0.04523 0.37565 0.79277 0.0
C532 C 0.08525 0.38855 0.82076 0.0
H533 H 0.99205 0.36558 0.71023 0.0
H534 H 1.03119 0.3653 0.81987 0.0
S535 S 0.13731 0.42594 0.74217 0.0
N536 N 0.09402 0.41527 0.68696 0.0
N537 N 0.13747 0.41494 0.80548 0.0
C538 C 0.10151 0.40175 0.78337 0.0
C539 C 0.07787 0.40193 0.71897 0.0
C540 C 0.50445 0.87597 0.25069 0.0
C541 C 0.56 0.88796 0.21935 0.0
C542 C 0.4799 0.87658 0.31163 0.0
C543 C 0.50943 0.88924 0.34378 0.0
H544 H 0.47963 0.86596 0.22809 0.0
H545 H 0.43796 0.86698 0.33365 0.0
S546 S 0.653 0.92392 0.28187 0.0
N547 N 0.64195 0.91302 0.22465 0.0
N548 N 0.59574 0.91425 0.33892 0.0
C549 C 0.56447 0.90138 0.3128 0.0
C550 C 0.58989 0.90072 0.25075 0.0
C551 C 0.47588 0.15296 0.20525 0.0
C552 C 0.52598 0.14173 0.17369 0.0
C553 C 0.49452 0.15314 0.26859 0.0
C554 C 0.56438 0.14212 0.30313 0.0
H555 H 0.42124 0.16173 0.18102 0.0
H556 H 0.45343 0.16202 0.2905 0.0
S557 S 0.71716 0.11025 0.24275 0.0
N558 N 0.6497 0.1193 0.18205 0.0
N559 N 0.68461 0.11963 0.30092 0.0
C560 C 0.61556 0.13082 0.27224 0.0
C561 C 0.59635 0.13062 0.20764 0.0
C562 C 0.56213 0.15453 0.76843 0.0
C563 C 0.50071 0.1431 0.79987 0.0
C564 C 0.58869 0.15341 0.70808 0.0
C565 C 0.55533 0.14078 0.67655 0.0
H566 H 0.59026 0.16449 0.79052 0.0
H567 H 0.63531 0.16261 0.68602 0.0
S568 S 0.39486 0.10747 0.73872 0.0
N569 N 0.40844 0.11859 0.79521 0.0
N570 N 0.45834 0.11642 0.68192 0.0
C571 C 0.49417 0.12919 0.70755 0.0
C572 C 0.46673 0.13037 0.76906 0.0
C573 C 0.57281 0.87731 0.75232 0.0
C574 C 0.5039 0.88823 0.71671 0.0
C575 C 0.59334 0.87805 0.81531 0.0
C576 C 0.54613 0.88977 0.8454 0.0
H577 H 0.61121 0.86805 0.73153 0.0
H578 H 0.64651 0.86928 0.8405 0.0
S579 S 0.36127 0.92144 0.77277 0.0
N580 N 0.38954 0.91131 0.71607 0.0
N581 N 0.42817 0.9127 0.83432 0.0
C582 C 0.47766 0.90085 0.81026 0.0
C583 C 0.45646 0.90007 0.74604 0.0
loop_
_geom_bond_atom_site_label_1
_geom_bond_atom_site_label_2
_geom_bond_distance
_geom_bond_site_symmetry_2
_ccdc_geom_bond_type
Dy0 O3 2.307 . S
Dy0 O5 2.397 . S
Dy0 O6 2.379 1_554 S
Dy0 O8 2.339 1_554 S
Dy0 O10 2.298 1_454 S
Dy0 O14 2.275 . S
Dy0 C22 2.738 1_455 S
Dy1 O4 2.298 . S
Dy1 O7 2.275 1_554 S
Dy1 O9 2.307 1_455 S
Dy1 O11 2.395 1_554 S
Dy1 O12 2.379 . S
Dy1 O15 2.339 . S
Dy1 C31 2.738 . S
C2 O14 1.254 . S
C2 O15 1.257 . S
O3 Dy0 2.307 . S
O3 C13 1.266 . S
O4 Dy1 2.298 . S
O4 C13 1.236 . S
O5 Dy0 2.397 . S
O5 C22 1.255 1_455 S
O6 Dy0 2.379 1_556 S
O6 C22 1.249 1_456 S
O7 Dy1 2.275 1_556 S
O7 C23 1.254 . S
O8 Dy0 2.339 1_556 S
O8 C23 1.257 . S
O9 Dy1 2.307 1_655 S
O9 C24 1.266 . S
O10 Dy0 2.298 1_656 S
O10 C24 1.236 1_556 S
O11 Dy1 2.395 1_556 S
O11 C31 1.255 1_556 S
O12 Dy1 2.379 . S
O12 C31 1.249 . S
C13 O3 1.266 . S
C13 O4 1.236 . S
O14 Dy0 2.275 . S
O14 C2 1.254 . S
O15 Dy1 2.339 . S
O15 C2 1.257 . S
C16 C19 1.344 . S
C16 C20 1.328 1_554 S
C16 C22 1.516 . S
C17 C18 1.304 . S
C17 C21 1.323 1_554 S
C18 C17 1.304 . S
C18 C19 1.371 . S
C18 H32 0.930 . S
C19 C16 1.344 . S
C19 C18 1.371 . S
C19 H33 0.931 . S
C20 C16 1.328 1_556 S
C20 C21 1.433 . S
C20 H34 0.931 . S
C21 C17 1.323 1_556 S
C21 C20 1.433 . S
C21 H35 0.933 . S
C22 Dy0 2.738 1_655 S
C22 O5 1.255 1_655 S
C22 O6 1.249 1_654 S
C22 C16 1.516 . S
C23 O7 1.254 . S
C23 O8 1.257 . S
C24 O9 1.266 . S
C24 O10 1.236 1_554 S
C25 C28 1.344 1_554 S
C25 C29 1.328 . S
C25 C31 1.516 . S
C26 C27 1.304 1_554 S
C26 C30 1.323 . S
C27 C26 1.304 1_556 S
C27 C28 1.371 . S
C27 H36 0.930 . S
C28 C25 1.344 1_556 S
C28 C27 1.371 . S
C28 H37 0.931 . S
C29 C25 1.328 . S
C29 C30 1.433 . S
C29 H38 0.931 . S
C30 C26 1.323 . S
C30 C29 1.433 . S
C30 H39 0.933 . S
C31 Dy1 2.738 . S
C31 O11 1.255 1_554 S
C31 O12 1.249 . S
C31 C25 1.516 . S
H32 C18 0.930 . S
H33 C19 0.931 . S
H34 C20 0.931 . S
H35 C21 0.933 . S
H36 C27 0.930 . S
H37 C28 0.931 . S
H38 C29 0.931 . S
H39 C30 0.933 . S
Dy40 O43 2.307 1_655 S
Dy40 O45 2.395 1_556 S
Dy40 O46 2.379 . S
Dy40 O48 2.339 . S
Dy40 O50 2.298 . S
Dy40 O54 2.275 1_556 S
Dy40 C62 2.738 1_556 S
Dy41 O44 2.298 1_655 S
Dy41 O47 2.275 1_554 S
Dy41 O49 2.307 . S
Dy41 O51 2.397 1_554 S
Dy41 O52 2.379 . S
Dy41 O55 2.339 . S
Dy41 C71 2.738 1_655 S
C42 O54 1.254 . S
C42 O55 1.257 . S
O43 Dy40 2.307 1_455 S
O43 C53 1.266 1_556 S
O44 Dy41 2.298 1_455 S
O44 C53 1.236 . S
O45 Dy40 2.395 1_554 S
O45 C62 1.255 . S
O46 Dy40 2.379 . S
O46 C62 1.249 1_556 S
O47 Dy41 2.275 1_556 S
O47 C63 1.254 . S
O48 Dy40 2.339 . S
O48 C63 1.257 . S
O49 Dy41 2.307 . S
O49 C64 1.266 . S
O50 Dy40 2.298 . S
O50 C64 1.236 1_556 S
O51 Dy41 2.397 1_556 S
O51 C71 1.255 1_656 S
O52 Dy41 2.379 . S
O52 C71 1.249 1_655 S
C53 O43 1.266 1_554 S
C53 O44 1.236 . S
O54 Dy40 2.275 1_554 S
O54 C42 1.254 . S
O55 Dy41 2.339 . S
O55 C42 1.257 . S
C56 C59 1.344 . S
C56 C60 1.328 1_554 S
C56 C62 1.516 . S
C57 C58 1.304 . S
C57 C61 1.323 1_554 S
C58 C57 1.304 . S
C58 C59 1.371 . S
C58 H72 0.930 . S
C59 C56 1.344 . S
C59 C58 1.371 . S
C59 H73 0.931 . S
C60 C56 1.328 1_556 S
C60 C61 1.433 . S
C60 H74 0.931 . S
C61 C57 1.323 1_556 S
C61 C60 1.433 . S
C61 H75 0.933 . S
C62 Dy40 2.738 1_554 S
C62 O45 1.255 . S
C62 O46 1.249 1_554 S
C62 C56 1.516 . S
C63 O47 1.254 . S
C63 O48 1.257 . S
C64 O49 1.266 . S
C64 O50 1.236 1_554 S
C65 C68 1.344 1_554 S
C65 C69 1.328 . S
C65 C71 1.516 . S
C66 C67 1.311 . S
C66 C70 1.314 1_556 S
C67 C66 1.311 . S
C67 C68 1.371 . S
C67 H76 0.930 . S
C68 C65 1.344 1_556 S
C68 C67 1.371 . S
C68 H77 0.931 . S
C69 C65 1.328 . S
C69 C70 1.433 . S
C69 H78 0.931 . S
C70 C66 1.314 1_554 S
C70 C69 1.433 . S
C70 H79 0.933 . S
C71 Dy41 2.738 1_455 S
C71 O51 1.255 1_454 S
C71 O52 1.249 1_455 S
C71 C65 1.516 . S
H72 C58 0.930 . S
H73 C59 0.931 . S
H74 C60 0.931 . S
H75 C61 0.933 . S
H76 C67 0.930 . S
H77 C68 0.931 . S
H78 C69 0.931 . S
H79 C70 0.933 . S
Dy80 O83 2.307 1_455 S
Dy80 O85 2.395 . S
Dy80 O86 2.379 . S
Dy80 O88 2.339 . S
Dy80 O90 2.298 . S
Dy80 O94 2.275 . S
Dy80 C102 2.738 . S
Dy81 O84 2.298 1_455 S
Dy81 O87 2.275 . S
Dy81 O89 2.307 . S
Dy81 O91 2.398 . S
Dy81 O92 2.379 . S
Dy81 O95 2.339 . S
Dy81 C111 2.738 1_455 S
C82 O94 1.254 . S
C82 O95 1.257 . S
O83 Dy80 2.307 1_655 S
O83 C93 1.266 . S
O84 Dy81 2.298 1_655 S
O84 C93 1.236 . S
O85 Dy80 2.395 . S
O85 C102 1.255 . S
O86 Dy80 2.379 . S
O86 C102 1.249 . S
O87 Dy81 2.275 . S
O87 C103 1.254 . S
O88 Dy80 2.339 . S
O88 C103 1.257 . S
O89 Dy81 2.307 . S
O89 C104 1.266 . S
O90 Dy80 2.298 . S
O90 C104 1.236 . S
O91 Dy81 2.398 . S
O91 C111 1.255 1_455 S
O92 Dy81 2.379 . S
O92 C111 1.249 1_455 S
C93 O83 1.266 . S
C93 O84 1.236 . S
O94 Dy80 2.275 . S
O94 C82 1.254 . S
O95 Dy81 2.339 . S
O95 C82 1.257 . S
C96 C99 1.344 . S
C96 C100 1.328 . S
C96 C102 1.516 . S
C97 C98 1.304 . S
C97 C101 1.323 . S
C98 C97 1.304 . S
C98 C99 1.371 . S
C98 H112 0.930 . S
C99 C96 1.344 . S
C99 C98 1.371 . S
C99 H113 0.931 . S
C100 C96 1.328 . S
C100 C101 1.433 . S
C100 H114 0.931 . S
C101 C97 1.323 . S
C101 C100 1.433 . S
C101 H115 0.933 . S
C102 Dy80 2.738 . S
C102 O85 1.255 . S
C102 O86 1.249 . S
C102 C96 1.516 . S
C103 O87 1.254 . S
C103 O88 1.257 . S
C104 O89 1.266 . S
C104 O90 1.236 . S
C105 C108 1.344 . S
C105 C109 1.328 . S
C105 C111 1.516 . S
C106 C107 1.304 . S
C106 C110 1.323 . S
C107 C106 1.304 . S
C107 C108 1.371 . S
C107 H116 0.930 . S
C108 C105 1.344 . S
C108 C107 1.371 . S
C108 H117 0.931 . S
C109 C105 1.328 . S
C109 C110 1.433 . S
C109 H118 0.931 . S
C110 C106 1.323 . S
C110 C109 1.433 . S
C110 H119 0.933 . S
C111 Dy81 2.738 1_655 S
C111 O91 1.255 1_655 S
C111 O92 1.249 1_655 S
C111 C105 1.516 . S
H112 C98 0.930 . S
H113 C99 0.931 . S
H114 C100 0.931 . S
H115 C101 0.933 . S
H116 C107 0.930 . S
H117 C108 0.931 . S
H118 C109 0.931 . S
H119 C110 0.933 . S
Dy120 O123 2.307 1_655 S
Dy120 O125 2.395 . S
Dy120 O126 2.379 . S
Dy120 O128 2.339 . S
Dy120 O130 2.298 . S
Dy120 O134 2.275 . S
Dy120 C142 2.738 . S
Dy121 O124 2.298 1_655 S
Dy121 O127 2.275 . S
Dy121 O129 2.307 . S
Dy121 O131 2.395 1_655 S
Dy121 O132 2.379 . S
Dy121 O135 2.339 . S
Dy121 C151 2.738 1_655 S
C122 O134 1.254 . S
C122 O135 1.257 . S
O123 Dy120 2.307 1_455 S
O123 C133 1.266 . S
O124 Dy121 2.298 1_455 S
O124 C133 1.236 . S
O125 Dy120 2.395 . S
O125 C142 1.255 . S
O126 Dy120 2.379 . S
O126 C142 1.249 . S
O127 Dy121 2.275 . S
O127 C143 1.254 . S
O128 Dy120 2.339 . S
O128 C143 1.257 . S
O129 Dy121 2.307 . S
O129 C144 1.266 . S
O130 Dy120 2.298 . S
O130 C144 1.236 . S
O131 Dy121 2.395 1_455 S
O131 C151 1.255 . S
O132 Dy121 2.379 . S
O132 C151 1.249 1_655 S
C133 O123 1.266 . S
C133 O124 1.236 . S
O134 Dy120 2.275 . S
O134 C122 1.254 . S
O135 Dy121 2.339 . S
O135 C122 1.257 . S
C136 C139 1.344 . S
C136 C140 1.328 . S
C136 C142 1.516 . S
C137 C138 1.304 . S
C137 C141 1.323 . S
C138 C137 1.304 . S
C138 C139 1.371 . S
C138 H152 0.930 . S
C139 C136 1.344 . S
C139 C138 1.371 . S
C139 H153 0.931 . S
C140 C136 1.328 . S
C140 C141 1.433 . S
C140 H154 0.931 . S
C141 C137 1.323 . S
C141 C140 1.433 . S
C141 H155 0.933 . S
C142 Dy120 2.738 . S
C142 O125 1.255 . S
C142 O126 1.249 . S
C142 C136 1.516 . S
C143 O127 1.254 . S
C143 O128 1.257 . S
C144 O129 1.266 . S
C144 O130 1.236 . S
C145 C148 1.344 . S
C145 C149 1.328 . S
C145 C151 1.516 . S
C146 C147 1.304 . S
C146 C150 1.323 . S
C147 C146 1.304 . S
C147 C148 1.371 . S
C147 H156 0.930 . S
C148 C145 1.344 . S
C148 C147 1.371 . S
C148 H157 0.931 . S
C149 C145 1.328 . S
C149 C150 1.433 . S
C149 H158 0.931 . S
C150 C146 1.323 . S
C150 C149 1.433 . S
C150 H159 0.933 . S
C151 Dy121 2.738 1_455 S
C151 O131 1.255 . S
C151 O132 1.249 1_455 S
C151 C145 1.516 . S
H152 C138 0.930 . S
H153 C139 0.931 . S
H154 C140 0.931 . S
H155 C141 0.933 . S
H156 C147 0.930 . S
H157 C148 0.931 . S
H158 C149 0.931 . S
H159 C150 0.933 . S
Dy160 O163 2.307 . S
Dy160 O165 2.395 . S
Dy160 O166 2.379 1_554 S
Dy160 O168 2.339 1_554 S
Dy160 O170 2.298 1_554 S
Dy160 O174 2.275 . S
Dy160 C182 2.738 . S
Dy161 O164 2.298 . S
Dy161 O167 2.275 1_554 S
Dy161 O169 2.307 . S
Dy161 O171 2.395 1_554 S
Dy161 O172 2.379 . S
Dy161 O175 2.339 . S
Dy161 C191 2.738 . S
C162 O174 1.254 . S
C162 O175 1.257 . S
O163 Dy160 2.307 . S
O163 C173 1.266 . S
O164 Dy161 2.298 . S
O164 C173 1.236 . S
O165 Dy160 2.395 . S
O165 C182 1.255 . S
O166 Dy160 2.379 1_556 S
O166 C182 1.249 1_556 S
O167 Dy161 2.275 1_556 S
O167 C183 1.254 . S
O168 Dy160 2.339 1_556 S
O168 C183 1.257 . S
O169 Dy161 2.307 . S
O169 C184 1.266 . S
O170 Dy160 2.298 1_556 S
O170 C184 1.236 1_556 S
O171 Dy161 2.395 1_556 S
O171 C191 1.255 1_556 S
O172 Dy161 2.379 . S
O172 C191 1.249 . S
C173 O163 1.266 . S
C173 O164 1.236 . S
O174 Dy160 2.275 . S
O174 C162 1.254 . S
O175 Dy161 2.339 . S
O175 C162 1.257 . S
C176 C179 1.344 . S
C176 C180 1.328 1_554 S
C176 C182 1.516 . S
C177 C178 1.304 . S
C177 C181 1.323 1_554 S
C178 C177 1.304 . S
C178 C179 1.371 . S
C178 H192 0.930 . S
C179 C176 1.344 . S
C179 C178 1.371 . S
C179 H193 0.931 . S
C180 C176 1.328 1_556 S
C180 C181 1.433 . S
C180 H194 0.931 . S
C181 C177 1.323 1_556 S
C181 C180 1.433 . S
C181 H195 0.933 . S
C182 Dy160 2.738 . S
C182 O165 1.255 . S
C182 O166 1.249 1_554 S
C182 C176 1.516 . S
C183 O167 1.254 . S
C183 O168 1.257 . S
C184 O169 1.266 . S
C184 O170 1.236 1_554 S
C185 C188 1.344 1_554 S
C185 C189 1.328 . S
C185 C191 1.516 . S
C186 C187 1.304 1_554 S
C186 C190 1.323 . S
C187 C186 1.304 1_556 S
C187 C188 1.371 . S
C187 H196 0.930 . S
C188 C185 1.344 1_556 S
C188 C187 1.371 . S
C188 H197 0.931 . S
C189 C185 1.328 . S
C189 C190 1.433 . S
C189 H198 0.931 . S
C190 C186 1.323 . S
C190 C189 1.433 . S
C190 H199 0.933 . S
C191 Dy161 2.738 . S
C191 O171 1.255 1_554 S
C191 O172 1.249 . S
C191 C185 1.516 . S
H192 C178 0.930 . S
H193 C179 0.931 . S
H194 C180 0.931 . S
H195 C181 0.933 . S
H196 C187 0.930 . S
H197 C188 0.931 . S
H198 C189 0.931 . S
H199 C190 0.933 . S
Dy200 O203 2.307 . S
Dy200 O205 2.395 1_556 S
Dy200 O206 2.379 . S
Dy200 O208 2.339 . S
Dy200 O210 2.298 . S
Dy200 O214 2.275 1_556 S
Dy200 C222 2.738 1_556 S
Dy201 O204 2.298 . S
Dy201 O207 2.275 1_554 S
Dy201 O209 2.307 . S
Dy201 O211 2.395 1_554 S
Dy201 O212 2.379 . S
Dy201 O215 2.339 . S
Dy201 C231 2.738 . S
C202 O214 1.254 . S
C202 O215 1.257 . S
O203 Dy200 2.307 . S
O203 C213 1.265 1_556 S
O204 Dy201 2.298 . S
O204 C213 1.236 . S
O205 Dy200 2.395 1_554 S
O205 C222 1.255 . S
O206 Dy200 2.379 . S
O206 C222 1.249 1_556 S
O207 Dy201 2.275 1_556 S
O207 C223 1.254 . S
O208 Dy200 2.339 . S
O208 C223 1.257 . S
O209 Dy201 2.307 . S
O209 C224 1.266 . S
O210 Dy200 2.298 . S
O210 C224 1.236 1_556 S
O211 Dy201 2.395 1_556 S
O211 C231 1.255 1_556 S
O212 Dy201 2.379 . S
O212 C231 1.249 . S
C213 O203 1.265 1_554 S
C213 O204 1.236 . S
O214 Dy200 2.275 1_554 S
O214 C202 1.254 . S
O215 Dy201 2.339 . S
O215 C202 1.257 . S
C216 C219 1.344 . S
C216 C220 1.328 1_554 S
C216 C222 1.516 . S
C217 C218 1.304 . S
C217 C221 1.323 1_554 S
C218 C217 1.304 . S
C218 C219 1.371 . S
C218 H232 0.930 . S
C219 C216 1.344 . S
C219 C218 1.371 . S
C219 H233 0.931 . S
C220 C216 1.328 1_556 S
C220 C221 1.433 . S
C220 H234 0.931 . S
C221 C217 1.323 1_556 S
C221 C220 1.433 . S
C221 H235 0.933 . S
C222 Dy200 2.738 1_554 S
C222 O205 1.255 . S
C222 O206 1.249 1_554 S
C222 C216 1.516 . S
C223 O207 1.254 . S
C223 O208 1.257 . S
C224 O209 1.266 . S
C224 O210 1.236 1_554 S
C225 C228 1.344 1_554 S
C225 C229 1.328 . S
C225 C231 1.516 . S
C226 C227 1.313 . S
C226 C230 1.311 1_556 S
C227 C226 1.313 . S
C227 C228 1.371 . S
C227 H236 0.930 . S
C228 C225 1.344 1_556 S
C228 C227 1.371 . S
C228 H237 0.931 . S
C229 C225 1.328 . S
C229 C230 1.433 . S
C229 H238 0.931 . S
C230 C226 1.311 1_554 S
C230 C229 1.433 . S
C230 H239 0.933 . S
C231 Dy201 2.738 . S
C231 O211 1.255 1_554 S
C231 O212 1.249 . S
C231 C225 1.516 . S
H232 C218 0.930 . S
H233 C219 0.931 . S
H234 C220 0.931 . S
H235 C221 0.933 . S
H236 C227 0.930 . S
H237 C228 0.931 . S
H238 C229 0.931 . S
H239 C230 0.933 . S
Dy240 O243 2.307 . S
Dy240 O245 2.395 . S
Dy240 O246 2.379 . S
Dy240 O248 2.339 . S
Dy240 O250 2.298 . S
Dy240 O254 2.275 . S
Dy240 C262 2.738 . S
Dy241 O244 2.298 . S
Dy241 O247 2.275 . S
Dy241 O249 2.307 . S
Dy241 O251 2.395 . S
Dy241 O252 2.379 . S
Dy241 O255 2.339 . S
Dy241 C271 2.738 . S
C242 O254 1.254 . S
C242 O255 1.257 . S
O243 Dy240 2.307 . S
O243 C253 1.266 . S
O244 Dy241 2.298 . S
O244 C253 1.236 . S
O245 Dy240 2.395 . S
O245 C262 1.255 . S
O246 Dy240 2.379 . S
O246 C262 1.249 . S
O247 Dy241 2.275 . S
O247 C263 1.254 . S
O248 Dy240 2.339 . S
O248 C263 1.257 . S
O249 Dy241 2.307 . S
O249 C264 1.266 . S
O250 Dy240 2.298 . S
O250 C264 1.236 . S
O251 Dy241 2.395 . S
O251 C271 1.255 . S
O252 Dy241 2.379 . S
O252 C271 1.249 . S
C253 O243 1.266 . S
C253 O244 1.236 . S
O254 Dy240 2.275 . S
O254 C242 1.254 . S
O255 Dy241 2.339 . S
O255 C242 1.257 . S
C256 C259 1.344 . S
C256 C260 1.328 . S
C256 C262 1.516 . S
C257 C258 1.304 . S
C257 C261 1.323 . S
C258 C257 1.304 . S
C258 C259 1.371 . S
C258 H272 0.930 . S
C259 C256 1.344 . S
C259 C258 1.371 . S
C259 H273 0.931 . S
C260 C256 1.328 . S
C260 C261 1.433 . S
C260 H274 0.931 . S
C261 C257 1.323 . S
C261 C260 1.433 . S
C261 H275 0.933 . S
C262 Dy240 2.738 . S
C262 O245 1.255 . S
C262 O246 1.249 . S
C262 C256 1.516 . S
C263 O247 1.254 . S
C263 O248 1.257 . S
C264 O249 1.266 . S
C264 O250 1.236 . S
C265 C268 1.344 . S
C265 C269 1.328 . S
C265 C271 1.516 . S
C266 C267 1.304 . S
C266 C270 1.323 . S
C267 C266 1.304 . S
C267 C268 1.371 . S
C267 H276 0.930 . S
C268 C265 1.344 . S
C268 C267 1.371 . S
C268 H277 0.931 . S
C269 C265 1.328 . S
C269 C270 1.433 . S
C269 H278 0.931 . S
C270 C266 1.323 . S
C270 C269 1.433 . S
C270 H279 0.933 . S
C271 Dy241 2.738 . S
C271 O251 1.255 . S
C271 O252 1.249 . S
C271 C265 1.516 . S
H272 C258 0.930 . S
H273 C259 0.931 . S
H274 C260 0.931 . S
H275 C261 0.933 . S
H276 C267 0.930 . S
H277 C268 0.931 . S
H278 C269 0.931 . S
H279 C270 0.933 . S
Dy280 O283 2.307 . S
Dy280 O285 2.395 . S
Dy280 O286 2.379 . S
Dy280 O288 2.339 . S
Dy280 O290 2.298 . S
Dy280 O294 2.275 . S
Dy280 C302 2.738 . S
Dy281 O284 2.298 . S
Dy281 O287 2.275 . S
Dy281 O289 2.307 . S
Dy281 O291 2.395 . S
Dy281 O292 2.379 . S
Dy281 O295 2.339 . S
Dy281 C311 2.738 . S
C282 O294 1.254 . S
C282 O295 1.257 . S
O283 Dy280 2.307 . S
O283 C293 1.266 . S
O284 Dy281 2.298 . S
O284 C293 1.236 . S
O285 Dy280 2.395 . S
O285 C302 1.255 . S
O286 Dy280 2.379 . S
O286 C302 1.249 . S
O287 Dy281 2.275 . S
O287 C303 1.254 . S
O288 Dy280 2.339 . S
O288 C303 1.257 . S
O289 Dy281 2.307 . S
O289 C304 1.266 . S
O290 Dy280 2.298 . S
O290 C304 1.236 . S
O291 Dy281 2.395 . S
O291 C311 1.255 . S
O292 Dy281 2.379 . S
O292 C311 1.249 . S
C293 O283 1.266 . S
C293 O284 1.236 . S
O294 Dy280 2.275 . S
O294 C282 1.254 . S
O295 Dy281 2.339 . S
O295 C282 1.257 . S
C296 C299 1.344 . S
C296 C300 1.328 . S
C296 C302 1.516 . S
C297 C298 1.304 . S
C297 C301 1.323 . S
C298 C297 1.304 . S
C298 C299 1.371 . S
C298 H312 0.930 . S
C299 C296 1.344 . S
C299 C298 1.371 . S
C299 H313 0.931 . S
C300 C296 1.328 . S
C300 C301 1.433 . S
C300 H314 0.931 . S
C301 C297 1.323 . S
C301 C300 1.433 . S
C301 H315 0.933 . S
C302 Dy280 2.738 . S
C302 O285 1.255 . S
C302 O286 1.249 . S
C302 C296 1.516 . S
C303 O287 1.254 . S
C303 O288 1.257 . S
C304 O289 1.266 . S
C304 O290 1.236 . S
C305 C308 1.344 . S
C305 C309 1.328 . S
C305 C311 1.516 . S
C306 C307 1.304 . S
C306 C310 1.323 . S
C307 C306 1.304 . S
C307 C308 1.371 . S
C307 H316 0.930 . S
C308 C305 1.344 . S
C308 C307 1.371 . S
C308 H317 0.931 . S
C309 C305 1.328 . S
C309 C310 1.433 . S
C309 H318 0.931 . S
C310 C306 1.323 . S
C310 C309 1.433 . S
C310 H319 0.933 . S
C311 Dy281 2.738 . S
C311 O291 1.255 . S
C311 O292 1.249 . S
C311 C305 1.516 . S
H312 C298 0.930 . S
H313 C299 0.931 . S
H314 C300 0.931 . S
H315 C301 0.933 . S
H316 C307 0.930 . S
H317 C308 0.931 . S
H318 C309 0.931 . S
H319 C310 0.933 . S
C320 C321 1.369 . S
C320 C322 1.419 . S
C320 H324 0.930 . S
C321 C320 1.369 . S
C321 C330 1.429 1_554 S
C322 C320 1.419 . S
C322 C323 1.363 . S
C322 H325 0.929 . S
C323 C322 1.363 . S
C323 C329 1.428 1_554 S
H324 C320 0.930 . S
H325 C322 0.929 . S
S326 N327 1.613 . S
S326 N328 1.610 . S
N327 S326 1.613 . S
N327 C330 1.350 . S
N328 S326 1.610 . S
N328 C329 1.351 . S
C329 C323 1.428 1_556 S
C329 N328 1.351 . S
C329 C330 1.434 . S
C330 C321 1.429 1_556 S
C330 N327 1.350 . S
C330 C329 1.434 . S
C331 C332 1.369 . S
C331 C333 1.419 . S
C331 H335 0.930 . S
C332 C331 1.369 . S
C332 C341 1.429 1_554 S
C333 C331 1.419 . S
C333 C334 1.363 . S
C333 H336 0.929 . S
C334 C333 1.363 . S
C334 C340 1.428 1_554 S
H335 C331 0.930 . S
H336 C333 0.929 . S
S337 N338 1.613 . S
S337 N339 1.610 . S
N338 S337 1.613 . S
N338 C341 1.350 . S
N339 S337 1.610 . S
N339 C340 1.351 . S
C340 C334 1.428 1_556 S
C340 N339 1.351 . S
C340 C341 1.434 . S
C341 C332 1.429 1_556 S
C341 N338 1.350 . S
C341 C340 1.434 . S
C342 C343 1.369 . S
C342 C344 1.419 . S
C342 H346 0.930 . S
C343 C342 1.369 . S
C343 C352 1.429 . S
C344 C342 1.419 . S
C344 C345 1.363 . S
C344 H347 0.929 . S
C345 C344 1.363 . S
C345 C351 1.428 . S
H346 C342 0.930 . S
H347 C344 0.929 . S
S348 N349 1.613 . S
S348 N350 1.610 . S
N349 S348 1.613 . S
N349 C352 1.350 . S
N350 S348 1.610 . S
N350 C351 1.351 . S
C351 C345 1.428 . S
C351 N350 1.351 . S
C351 C352 1.434 . S
C352 C343 1.429 . S
C352 N349 1.350 . S
C352 C351 1.434 . S
C353 C354 1.369 . S
C353 C355 1.419 . S
C353 H357 0.930 . S
C354 C353 1.369 . S
C354 C363 1.429 . S
C355 C353 1.419 . S
C355 C356 1.363 . S
C355 H358 0.929 . S
C356 C355 1.363 . S
C356 C362 1.428 . S
H357 C353 0.930 . S
H358 C355 0.929 . S
S359 N360 1.613 . S
S359 N361 1.610 . S
N360 S359 1.613 . S
N360 C363 1.350 . S
N361 S359 1.610 . S
N361 C362 1.351 . S
C362 C356 1.428 . S
C362 N361 1.351 . S
C362 C363 1.434 . S
C363 C354 1.429 . S
C363 N360 1.350 . S
C363 C362 1.434 . S
C364 C365 1.369 1_455 S
C364 C366 1.419 . S
C364 H368 0.930 1_455 S
C365 C364 1.369 1_655 S
C365 C374 1.429 1_554 S
C366 C364 1.419 . S
C366 C367 1.363 . S
C366 H369 0.929 . S
C367 C366 1.363 . S
C367 C373 1.428 1_554 S
H368 C364 0.930 1_655 S
H369 C366 0.929 . S
S370 N371 1.613 1_455 S
S370 N372 1.610 . S
N371 S370 1.613 1_655 S
N371 C374 1.350 . S
N372 S370 1.610 . S
N372 C373 1.351 . S
C373 C367 1.428 1_556 S
C373 N372 1.351 . S
C373 C374 1.434 1_455 S
C374 C365 1.429 1_556 S
C374 N371 1.350 . S
C374 C373 1.434 1_655 S
C375 C376 1.369 1_656 S
C375 C377 1.419 . S
C375 H379 0.930 . S
C376 C375 1.369 1_454 S
C376 C385 1.429 . S
C377 C375 1.419 . S
C377 C378 1.363 1_556 S
C377 H380 0.929 . S
C378 C377 1.363 1_554 S
C378 C384 1.428 . S
H379 C375 0.930 . S
H380 C377 0.929 . S
S381 N382 1.613 . S
S381 N383 1.610 1_455 S
N382 S381 1.613 . S
N382 C385 1.350 . S
N383 S381 1.610 1_655 S
N383 C384 1.351 . S
C384 C378 1.428 . S
C384 N383 1.351 . S
C384 C385 1.434 1_655 S
C385 C376 1.429 . S
C385 N382 1.350 . S
C385 C384 1.434 1_455 S
C386 C387 1.369 . S
C386 C388 1.419 . S
C386 H390 0.930 . S
C387 C386 1.369 . S
C387 C396 1.429 . S
C388 C386 1.419 . S
C388 C389 1.363 1_455 S
C388 H391 0.929 . S
C389 C388 1.363 1_655 S
C389 C395 1.428 . S
H390 C386 0.930 . S
H391 C388 0.929 . S
S392 N393 1.613 1_655 S
S392 N394 1.610 . S
N393 S392 1.613 1_455 S
N393 C396 1.350 . S
N394 S392 1.610 . S
N394 C395 1.351 . S
C395 C389 1.428 . S
C395 N394 1.351 . S
C395 C396 1.434 1_655 S
C396 C387 1.429 . S
C396 N393 1.350 . S
C396 C395 1.434 1_455 S
C397 C398 1.369 . S
C397 C399 1.419 . S
C397 H401 0.930 . S
C398 C397 1.369 . S
C398 C407 1.429 . S
C399 C397 1.419 . S
C399 C400 1.363 1_655 S
C399 H402 0.929 . S
C400 C399 1.363 1_455 S
C400 C406 1.428 . S
H401 C397 0.930 . S
H402 C399 0.929 . S
S403 N404 1.613 1_455 S
S403 N405 1.610 . S
N404 S403 1.613 1_655 S
N404 C407 1.350 . S
N405 S403 1.610 . S
N405 C406 1.351 . S
C406 C400 1.428 . S
C406 N405 1.351 . S
C406 C407 1.434 1_455 S
C407 C398 1.429 . S
C407 N404 1.350 . S
C407 C406 1.434 1_655 S
C408 C409 1.369 1_556 S
C408 C410 1.419 . S
C408 H412 0.930 . S
C409 C408 1.369 1_554 S
C409 C418 1.429 1_455 S
C410 C408 1.419 . S
C410 C411 1.363 1_456 S
C410 H413 0.929 . S
C411 C410 1.363 1_654 S
C411 C417 1.428 . S
H412 C408 0.930 . S
H413 C410 0.929 . S
S414 N415 1.613 . S
S414 N416 1.610 . S
N415 S414 1.613 . S
N415 C418 1.350 . S
N416 S414 1.610 . S
N416 C417 1.351 . S
C417 C411 1.428 . S
C417 N416 1.351 . S
C417 C418 1.434 . S
C418 C409 1.429 1_655 S
C418 N415 1.350 . S
C418 C417 1.434 . S
C419 C420 1.369 1_655 S
C419 C421 1.419 . S
C419 H423 0.930 . S
C420 C419 1.369 1_455 S
C420 C429 1.429 . S
C421 C419 1.419 . S
C421 C422 1.363 . S
C421 H424 0.929 . S
C422 C421 1.363 . S
C422 C428 1.428 1_655 S
H423 C419 0.930 . S
H424 C421 0.929 . S
S425 N426 1.613 . S
S425 N427 1.610 . S
N426 S425 1.613 . S
N426 C429 1.350 . S
N427 S425 1.610 . S
N427 C428 1.351 . S
C428 C422 1.428 1_455 S
C428 N427 1.351 . S
C428 C429 1.434 . S
C429 C420 1.429 . S
C429 N426 1.350 . S
C429 C428 1.434 . S
C430 C431 1.369 1_545 S
C430 C432 1.419 . S
C430 H434 0.930 . S
C431 C430 1.369 1_565 S
C431 C440 1.435 . S
C432 C430 1.419 . S
C432 C433 1.363 . S
C432 H435 0.929 . S
C433 C432 1.363 . S
C433 C439 1.428 1_544 S
H434 C430 0.930 . S
H435 C432 0.929 . S
S436 N437 1.613 . S
S436 N438 1.610 . S
N437 S436 1.613 . S
N437 C440 1.345 1_556 S
N438 S436 1.610 . S
N438 C439 1.351 . S
C439 C433 1.428 1_566 S
C439 N438 1.351 . S
C439 C440 1.433 1_556 S
C440 C431 1.435 . S
C440 N437 1.345 1_554 S
C440 C439 1.433 1_554 S
C441 C442 1.404 . S
C441 C443 1.386 1_545 S
C441 H445 0.930 . S
C442 C441 1.404 . S
C442 C451 1.429 . S
C443 C441 1.386 1_565 S
C443 C444 1.363 . S
C443 H446 0.929 . S
C444 C443 1.363 . S
C444 C450 1.447 . S
H445 C441 0.930 . S
H446 C443 0.929 . S
S447 N448 1.613 . S
S447 N449 1.610 . S
N448 S447 1.613 . S
N448 C451 1.350 . S
N449 S447 1.610 . S
N449 C450 1.348 1_545 S
C450 C444 1.447 . S
C450 N449 1.348 1_565 S
C450 C451 1.416 1_565 S
C451 C442 1.429 . S
C451 N448 1.350 . S
C451 C450 1.416 1_545 S
C452 C453 1.369 1_556 S
C452 C454 1.419 . S
C452 H456 0.930 . S
C453 C452 1.369 1_554 S
C453 C462 1.429 . S
C454 C452 1.419 . S
C454 C455 1.363 1_556 S
C454 H457 0.929 . S
C455 C454 1.363 1_554 S
C455 C461 1.428 . S
H456 C452 0.930 . S
H457 C454 0.929 . S
S458 N459 1.613 . S
S458 N460 1.610 . S
N459 S458 1.613 . S
N459 C462 1.350 . S
N460 S458 1.610 . S
N460 C461 1.351 . S
C461 C455 1.428 . S
C461 N460 1.351 . S
C461 C462 1.434 . S
C462 C453 1.429 . S
C462 N459 1.350 . S
C462 C461 1.434 . S
C463 C464 1.369 1_556 S
C463 C465 1.419 . S
C463 H467 0.930 . S
C464 C463 1.369 1_554 S
C464 C473 1.429 . S
C465 C463 1.419 . S
C465 C466 1.363 1_556 S
C465 H468 0.929 . S
C466 C465 1.363 1_554 S
C466 C472 1.428 . S
H467 C463 0.930 . S
H468 C465 0.929 . S
S469 N470 1.613 . S
S469 N471 1.610 . S
N470 S469 1.613 . S
N470 C473 1.350 . S
N471 S469 1.610 . S
N471 C472 1.351 . S
C472 C466 1.428 . S
C472 N471 1.351 . S
C472 C473 1.434 . S
C473 C464 1.429 . S
C473 N470 1.350 . S
C473 C472 1.434 . S
C474 C475 1.369 . S
C474 C476 1.419 . S
C474 H478 0.930 . S
C475 C474 1.369 . S
C475 C484 1.429 . S
C476 C474 1.419 . S
C476 C477 1.363 . S
C476 H479 0.929 . S
C477 C476 1.363 . S
C477 C483 1.428 . S
H478 C474 0.930 . S
H479 C476 0.929 . S
S480 N481 1.613 . S
S480 N482 1.610 . S
N481 S480 1.613 . S
N481 C484 1.350 . S
N482 S480 1.610 . S
N482 C483 1.351 . S
C483 C477 1.428 . S
C483 N482 1.351 . S
C483 C484 1.434 . S
C484 C475 1.429 . S
C484 N481 1.350 . S
C484 C483 1.434 . S
C485 C486 1.369 . S
C485 C487 1.419 . S
C485 H489 0.930 . S
C486 C485 1.369 . S
C486 C495 1.429 . S
C487 C485 1.419 . S
C487 C488 1.363 . S
C487 H490 0.929 . S
C488 C487 1.363 . S
C488 C494 1.428 . S
H489 C485 0.930 . S
H490 C487 0.929 . S
S491 N492 1.613 . S
S491 N493 1.610 . S
N492 S491 1.613 . S
N492 C495 1.350 . S
N493 S491 1.610 . S
N493 C494 1.351 . S
C494 C488 1.428 . S
C494 N493 1.351 . S
C494 C495 1.434 . S
C495 C486 1.429 . S
C495 N492 1.350 . S
C495 C494 1.434 . S
C496 C497 1.369 1_655 S
C496 C498 1.419 . S
C496 H500 0.930 . S
C497 C496 1.369 1_455 S
C497 C506 1.429 . S
C498 C496 1.419 . S
C498 C499 1.363 . S
C498 H501 0.929 . S
C499 C498 1.363 . S
C499 C505 1.428 . S
H500 C496 0.930 . S
H501 C498 0.929 . S
S502 N503 1.613 . S
S502 N504 1.610 . S
N503 S502 1.613 . S
N503 C506 1.350 . S
N504 S502 1.610 . S
N504 C505 1.351 1_455 S
C505 C499 1.428 . S
C505 N504 1.351 1_655 S
C505 C506 1.434 1_655 S
C506 C497 1.429 . S
C506 N503 1.350 . S
C506 C505 1.434 1_455 S
C507 C508 1.369 1_455 S
C507 C509 1.419 . S
C507 H511 0.930 . S
C508 C507 1.369 1_655 S
C508 C517 1.429 . S
C509 C507 1.419 . S
C509 C510 1.363 . S
C509 H512 0.929 . S
C510 C509 1.363 . S
C510 C516 1.428 1_455 S
H511 C507 0.930 . S
H512 C509 0.929 . S
S513 N514 1.613 . S
S513 N515 1.610 . S
N514 S513 1.613 . S
N514 C517 1.350 . S
N515 S513 1.610 . S
N515 C516 1.351 . S
C516 C510 1.428 1_655 S
C516 N515 1.351 . S
C516 C517 1.434 . S
C517 C508 1.429 . S
C517 N514 1.350 . S
C517 C516 1.434 . S
C518 C519 1.369 . S
C518 C520 1.419 . S
C518 H522 0.930 . S
C519 C518 1.369 . S
C519 C528 1.429 1_655 S
C520 C518 1.419 . S
C520 C521 1.363 1_655 S
C520 H523 0.929 . S
C521 C520 1.363 1_455 S
C521 C527 1.428 . S
H522 C518 0.930 . S
H523 C520 0.929 . S
S524 N525 1.613 . S
S524 N526 1.610 . S
N525 S524 1.613 . S
N525 C528 1.350 . S
N526 S524 1.610 . S
N526 C527 1.351 . S
C527 C521 1.428 . S
C527 N526 1.351 . S
C527 C528 1.434 . S
C528 C519 1.429 1_455 S
C528 N525 1.350 . S
C528 C527 1.434 . S
C529 C530 1.369 1_455 S
C529 C531 1.419 . S
C529 H533 0.930 . S
C530 C529 1.369 1_655 S
C530 C539 1.429 . S
C531 C529 1.419 . S
C531 C532 1.363 . S
C531 H534 0.929 . S
C532 C531 1.363 . S
C532 C538 1.428 1_455 S
H533 C529 0.930 . S
H534 C531 0.929 . S
S535 N536 1.613 . S
S535 N537 1.610 . S
N536 S535 1.613 . S
N536 C539 1.350 . S
N537 S535 1.610 . S
N537 C538 1.351 . S
C538 C532 1.428 1_655 S
C538 N537 1.351 . S
C538 C539 1.434 . S
C539 C530 1.429 . S
C539 N536 1.350 . S
C539 C538 1.434 . S
C540 C541 1.369 . S
C540 C542 1.419 . S
C540 H544 0.930 . S
C541 C540 1.369 . S
C541 C550 1.429 . S
C542 C540 1.419 . S
C542 C543 1.363 . S
C542 H545 0.929 . S
C543 C542 1.363 . S
C543 C549 1.428 . S
H544 C540 0.930 . S
H545 C542 0.929 . S
S546 N547 1.613 . S
S546 N548 1.610 . S
N547 S546 1.613 . S
N547 C550 1.350 . S
N548 S546 1.610 . S
N548 C549 1.351 . S
C549 C543 1.428 . S
C549 N548 1.351 . S
C549 C550 1.434 . S
C550 C541 1.429 . S
C550 N547 1.350 . S
C550 C549 1.434 . S
C551 C552 1.369 . S
C551 C553 1.419 . S
C551 H555 0.930 . S
C552 C551 1.369 . S
C552 C561 1.429 . S
C553 C551 1.419 . S
C553 C554 1.363 . S
C553 H556 0.929 . S
C554 C553 1.363 . S
C554 C560 1.428 . S
H555 C551 0.930 . S
H556 C553 0.929 . S
S557 N558 1.613 . S
S557 N559 1.610 . S
N558 S557 1.613 . S
N558 C561 1.350 . S
N559 S557 1.610 . S
N559 C560 1.351 . S
C560 C554 1.428 . S
C560 N559 1.351 . S
C560 C561 1.434 . S
C561 C552 1.429 . S
C561 N558 1.350 . S
C561 C560 1.434 . S
C562 C563 1.369 . S
C562 C564 1.419 . S
C562 H566 0.930 . S
C563 C562 1.369 . S
C563 C572 1.429 . S
C564 C562 1.419 . S
C564 C565 1.363 . S
C564 H567 0.929 . S
C565 C564 1.363 . S
C565 C571 1.428 . S
H566 C562 0.930 . S
H567 C564 0.929 . S
S568 N569 1.613 . S
S568 N570 1.610 . S
N569 S568 1.613 . S
N569 C572 1.350 . S
N570 S568 1.610 . S
N570 C571 1.351 . S
C571 C565 1.428 . S
C571 N570 1.351 . S
C571 C572 1.434 . S
C572 C563 1.429 . S
C572 N569 1.350 . S
C572 C571 1.434 . S
C573 C574 1.369 . S
C573 C575 1.419 . S
C573 H577 0.930 . S
C574 C573 1.369 . S
C574 C583 1.429 . S
C575 C573 1.419 . S
C575 C576 1.363 . S
C575 H578 0.929 . S
C576 C575 1.363 . S
C576 C582 1.428 . S
H577 C573 0.930 . S
H578 C575 0.929 . S
S579 N580 1.613 . S
S579 N581 1.610 . S
N580 S579 1.613 . S
N580 C583 1.350 . S
N581 S579 1.610 . S
N581 C582 1.351 . S
C582 C576 1.428 . S
C582 N581 1.351 . S
C582 C583 1.434 . S
C583 C574 1.429 . S
C583 N580 1.350 . S
C583 C582 1.434 . S
C321 C13 2.085 . S
C323 C24 2.080 . S
C332 C53 2.082 . S
C334 C64 2.083 . S
C343 C93 2.077 . S
C345 C104 2.081 . S
C354 C144 2.096 . S
C356 C133 2.102 . S
C365 C173 2.084 . S
C367 C184 2.081 . S
C376 C224 2.079 . S
C378 C213 2.084 . S
C387 C253 2.081 . S
C389 C264 2.078 . S
C398 C293 2.102 . S
C400 C304 2.097 . S
C409 C66 2.548 1_554 S
C411 C17 2.554 . S
C420 C146 2.563 . S
C422 C106 2.556 . S
C431 C177 2.546 . S
C433 C226 2.553 1_554 S
C442 C266 2.557 . S
C444 C306 2.564 . S
C453 C26 1.803 . S
C455 C217 1.805 . S
C464 C186 1.804 . S
C466 C57 1.805 . S
C475 C97 1.828 . S
C477 C297 1.823 . S
C486 C137 1.828 . S
C488 C257 1.823 . S
C497 C2 1.645 . S
C499 C122 1.602 . S
C508 C42 1.535 . S
C510 C82 1.493 . S
C519 C63 1.597 . S
C521 C103 1.566 . S
C530 C143 1.483 . S
C532 C23 1.462 . S
C541 C162 1.643 . S
C543 C282 1.606 . S
C552 C202 1.530 . S
C554 C242 1.497 . S
C563 C223 1.599 . S
C565 C263 1.568 . S
C574 C303 1.482 . S
C576 C183 1.463 . S
