# Generated by pormake.
# Topology uoy, (4)-cn, num edge types: 1
# Building blocks:
#     Node 0, Type 0, BuildingBlock: QUQFOY_clean_sbu_1, # of connection points: 4
#     Node 1, Type 0, BuildingBlock: QUQFOY_clean_sbu_1, # of connection points: 4
#     Node 2, Type 0, BuildingBlock: QUQFOY_clean_sbu_1, # of connection points: 4
#     Node 3, Type 0, BuildingBlock: QUQFOY_clean_sbu_1, # of connection points: 4
#     Node 4, Type 0, BuildingBlock: QUQFOY_clean_sbu_1, # of connection points: 4
#     Node 5, Type 0, BuildingBlock: QUQFOY_clean_sbu_1, # of connection points: 4
#     Node 6, Type 0, BuildingBlock: QUQFOY_clean_sbu_1, # of connection points: 4
#     Node 7, Type 0, BuildingBlock: QUQFOY_clean_sbu_1, # of connection points: 4
#     Node 8, Type 0, BuildingBlock: QUQFOY_clean_sbu_1, # of connection points: 4
#     Node 9, Type 0, BuildingBlock: QUQFOY_clean_sbu_1, # of connection points: 4
#     Node 10, Type 0, BuildingBlock: QUQFOY_clean_sbu_1, # of connection points: 4
#     Node 11, Type 0, BuildingBlock: QUQFOY_clean_sbu_1, # of connection points: 4
#     Node 12, Type 0, BuildingBlock: QUQFOY_clean_sbu_1, # of connection points: 4
#     Node 13, Type 0, BuildingBlock: QUQFOY_clean_sbu_1, # of connection points: 4
#     Node 14, Type 0, BuildingBlock: QUQFOY_clean_sbu_1, # of connection points: 4
#     Node 15, Type 0, BuildingBlock: QUQFOY_clean_sbu_1, # of connection points: 4
#     Edge 16, Type (0, 0), BuildingBlock: XIVTED_clean_linker_0, # of connection points: 2
#     Edge 17, Type (0, 0), BuildingBlock: XIVTED_clean_linker_0, # of connection points: 2
#     Edge 18, Type (0, 0), BuildingBlock: XIVTED_clean_linker_0, # of connection points: 2
#     Edge 19, Type (0, 0), BuildingBlock: XIVTED_clean_linker_0, # of connection points: 2
#     Edge 20, Type (0, 0), BuildingBlock: XIVTED_clean_linker_0, # of connection points: 2
#     Edge 21, Type (0, 0), BuildingBlock: XIVTED_clean_linker_0, # of connection points: 2
#     Edge 22, Type (0, 0), BuildingBlock: XIVTED_clean_linker_0, # of connection points: 2
#     Edge 23, Type (0, 0), BuildingBlock: XIVTED_clean_linker_0, # of connection points: 2
#     Edge 24, Type (0, 0), BuildingBlock: XIVTED_clean_linker_0, # of connection points: 2
#     Edge 25, Type (0, 0), BuildingBlock: XIVTED_clean_linker_0, # of connection points: 2
#     Edge 26, Type (0, 0), BuildingBlock: XIVTED_clean_linker_0, # of connection points: 2
#     Edge 27, Type (0, 0), BuildingBlock: XIVTED_clean_linker_0, # of connection points: 2
#     Edge 28, Type (0, 0), BuildingBlock: XIVTED_clean_linker_0, # of connection points: 2
#     Edge 29, Type (0, 0), BuildingBlock: XIVTED_clean_linker_0, # of connection points: 2
#     Edge 30, Type (0, 0), BuildingBlock: XIVTED_clean_linker_0, # of connection points: 2
#     Edge 31, Type (0, 0), BuildingBlock: XIVTED_clean_linker_0, # of connection points: 2
#     Edge 32, Type (0, 0), BuildingBlock: XIVTED_clean_linker_0, # of connection points: 2
#     Edge 33, Type (0, 0), BuildingBlock: XIVTED_clean_linker_0, # of connection points: 2
#     Edge 34, Type (0, 0), BuildingBlock: XIVTED_clean_linker_0, # of connection points: 2
#     Edge 35, Type (0, 0), BuildingBlock: XIVTED_clean_linker_0, # of connection points: 2
#     Edge 36, Type (0, 0), BuildingBlock: XIVTED_clean_linker_0, # of connection points: 2
#     Edge 37, Type (0, 0), BuildingBlock: XIVTED_clean_linker_0, # of connection points: 2
#     Edge 38, Type (0, 0), BuildingBlock: XIVTED_clean_linker_0, # of connection points: 2
#     Edge 39, Type (0, 0), BuildingBlock: XIVTED_clean_linker_0, # of connection points: 2
#     Edge 40, Type (0, 0), BuildingBlock: XIVTED_clean_linker_0, # of connection points: 2
#     Edge 41, Type (0, 0), BuildingBlock: XIVTED_clean_linker_0, # of connection points: 2
#     Edge 42, Type (0, 0), BuildingBlock: XIVTED_clean_linker_0, # of connection points: 2
#     Edge 43, Type (0, 0), BuildingBlock: XIVTED_clean_linker_0, # of connection points: 2
#     Edge 44, Type (0, 0), BuildingBlock: XIVTED_clean_linker_0, # of connection points: 2
#     Edge 45, Type (0, 0), BuildingBlock: XIVTED_clean_linker_0, # of connection points: 2
#     Edge 46, Type (0, 0), BuildingBlock: XIVTED_clean_linker_0, # of connection points: 2
#     Edge 47, Type (0, 0), BuildingBlock: XIVTED_clean_linker_0, # of connection points: 2
# Relax obj value: 0.057
# Max RMSD: 0.096
# Mean RMSD: 0.096
data_MOF--net-uoy--node1-QUQFOY_clean_sbu_1--edge1-XIVTED_clean_linker_0
_symmetry_space_group_name_H-M    P1
_symmetry_Int_Tables_number       1
_symmetry_cell_setting            triclinic
loop_
_symmetry_equiv_pos_as_xyz
'x, y, z'
_cell_length_a     28.404693
_cell_length_b     28.401584
_cell_length_c     114.32541
_cell_angle_alpha  90.021964
_cell_angle_beta   90.026572
_cell_angle_gamma 89.99917
loop_
_atom_site_label
_atom_site_type_symbol
_atom_site_fract_x
_atom_site_fract_y
_atom_site_fract_z
_atom_type_partial_charge
O0 O 0.24472 0.12703 0.21399 0.0
Cd1 Cd 0.24338 0.08624 0.19899 0.0
Cd2 Cd 0.28421 0.16408 0.19049 0.0
O3 O 0.27039 0.19396 0.20661 0.0
O4 O 0.1962 0.03679 0.20293 0.0
O5 O 0.18587 0.08793 0.18857 0.0
C6 C 0.16956 0.05375 0.19483 0.0
C7 C 0.26707 0.2015 0.17283 0.0
C8 C 0.2557 0.17012 0.21528 0.0
C9 C 0.34285 0.07534 0.19124 0.0
O10 O 0.34143 0.11965 0.18977 0.0
O11 O 0.30589 0.05312 0.19428 0.0
O12 O 0.30131 0.21522 0.17941 0.0
O13 O 0.24047 0.16787 0.1766 0.0
O14 O 0.8703 0.75024 0.4642 0.0
Cd15 Cd 0.91174 0.74951 0.44931 0.0
Cd16 Cd 0.83347 0.78703 0.44029 0.0
O17 O 0.80318 0.7726 0.45629 0.0
O18 O 0.96384 0.70557 0.45367 0.0
O19 O 0.91381 0.69064 0.43934 0.0
C20 C 0.94868 0.67701 0.44575 0.0
C21 C 0.80325 0.75988 0.42261 0.0
C22 C 0.82673 0.75969 0.46518 0.0
C23 C 0.91797 0.84991 0.44119 0.0
O24 O 0.87376 0.84718 0.43957 0.0
O25 O 0.94124 0.81363 0.4443 0.0
O26 O 0.78246 0.79289 0.4284 0.0
O27 O 0.84044 0.7409 0.4271 0.0
O28 O 0.26601 0.38287 0.7145 0.0
Cd29 Cd 0.26765 0.42519 0.6999 0.0
Cd30 Cd 0.22636 0.35036 0.68964 0.0
O31 O 0.23466 0.32024 0.7061 0.0
O32 O 0.31696 0.47419 0.70247 0.0
O33 O 0.32298 0.41825 0.68904 0.0
C34 C 0.3412 0.45412 0.69433 0.0
C35 C 0.24338 0.30999 0.67233 0.0
C36 C 0.25094 0.3408 0.71514 0.0
C37 C 0.17018 0.44038 0.69086 0.0
O38 O 0.17181 0.39758 0.6877 0.0
O39 O 0.20532 0.45954 0.69585 0.0
O40 O 0.20753 0.29922 0.67869 0.0
O41 O 0.27177 0.34196 0.67619 0.0
O42 O 0.62421 0.76202 0.96415 0.0
Cd43 Cd 0.58552 0.76268 0.94878 0.0
Cd44 Cd 0.66491 0.72633 0.94027 0.0
O45 O 0.69269 0.74193 0.9565 0.0
O46 O 0.53375 0.80983 0.95074 0.0
O47 O 0.59313 0.81948 0.93843 0.0
C48 C 0.55522 0.83583 0.94318 0.0
C49 C 0.70189 0.74537 0.92268 0.0
C50 C 0.66804 0.75387 0.96531 0.0
C51 C 0.57997 0.66311 0.94057 0.0
O52 O 0.62427 0.6665 0.93939 0.0
O53 O 0.55588 0.69906 0.94347 0.0
O54 O 0.71748 0.71212 0.92931 0.0
O55 O 0.66674 0.77006 0.92639 0.0
O56 O 0.24359 0.37837 0.0476 0.0
Cd57 Cd 0.24109 0.42092 0.06231 0.0
Cd58 Cd 0.28041 0.34363 0.07166 0.0
O59 O 0.26843 0.31231 0.05564 0.0
O60 O 0.19337 0.46961 0.05807 0.0
O61 O 0.18339 0.41952 0.07266 0.0
C62 C 0.16681 0.45307 0.06624 0.0
C63 C 0.26316 0.30693 0.08942 0.0
C64 C 0.25478 0.33515 0.04669 0.0
C65 C 0.33994 0.43191 0.07055 0.0
O66 O 0.33764 0.3879 0.07242 0.0
O67 O 0.30364 0.45423 0.06707 0.0
O68 O 0.29774 0.29329 0.08296 0.0
O69 O 0.23622 0.33996 0.08547 0.0
O70 O 0.63365 0.74687 0.2984 0.0
Cd71 Cd 0.59381 0.74806 0.31354 0.0
Cd72 Cd 0.67373 0.78456 0.32188 0.0
O73 O 0.70218 0.76777 0.30579 0.0
O74 O 0.54092 0.70421 0.30976 0.0
O75 O 0.59259 0.69009 0.32378 0.0
C76 C 0.557 0.67613 0.31767 0.0
C77 C 0.70422 0.7579 0.33958 0.0
C78 C 0.67739 0.75481 0.29711 0.0
C79 C 0.59025 0.849 0.32127 0.0
O80 O 0.63459 0.84553 0.32254 0.0
O81 O 0.56593 0.81295 0.31849 0.0
O82 O 0.72558 0.78993 0.33358 0.0
O83 O 0.66637 0.73956 0.33527 0.0
O84 O 0.26342 0.1199 0.54796 0.0
Cd85 Cd 0.26526 0.08235 0.56348 0.0
Cd86 Cd 0.22814 0.16165 0.57182 0.0
O87 O 0.24297 0.1886 0.55543 0.0
O88 O 0.31372 0.03171 0.56176 0.0
O89 O 0.32191 0.09242 0.57374 0.0
C90 C 0.33923 0.05457 0.56918 0.0
C91 C 0.24668 0.20021 0.58927 0.0
C92 C 0.25478 0.16358 0.54667 0.0
C93 C 0.1662 0.07559 0.5719 0.0
O94 O 0.16902 0.12001 0.57294 0.0
O95 O 0.20237 0.05186 0.56899 0.0
O96 O 0.21321 0.21481 0.58257 0.0
O97 O 0.27188 0.16519 0.58571 0.0
O98 O 0.88482 0.76204 0.79787 0.0
Cd99 Cd 0.92301 0.76344 0.81331 0.0
Cd100 Cd 0.84409 0.72606 0.82176 0.0
O101 O 0.81649 0.74131 0.80548 0.0
O102 O 0.97396 0.81147 0.8115 0.0
O103 O 0.91403 0.81987 0.8237 0.0
C104 C 0.95183 0.83693 0.81907 0.0
C105 C 0.8059 0.74394 0.83927 0.0
C106 C 0.84111 0.75336 0.79668 0.0
C107 C 0.93002 0.66416 0.82156 0.0
O108 O 0.88564 0.66685 0.82268 0.0
O109 O 0.95358 0.70046 0.81867 0.0
O110 O 0.79124 0.71064 0.83252 0.0
O111 O 0.8408 0.76934 0.83572 0.0
O112 O 0.74804 0.62889 0.71449 0.0
Cd113 Cd 0.74872 0.58765 0.69969 0.0
Cd114 Cd 0.78543 0.66529 0.68972 0.0
O115 O 0.77328 0.69425 0.70613 0.0
O116 O 0.70201 0.53559 0.70196 0.0
O117 O 0.69291 0.59265 0.68897 0.0
C118 C 0.67648 0.55549 0.69404 0.0
C119 C 0.75868 0.69927 0.67238 0.0
C120 C 0.75928 0.67213 0.71518 0.0
C121 C 0.84822 0.58066 0.69088 0.0
O122 O 0.84454 0.62377 0.68806 0.0
O123 O 0.81349 0.55869 0.69532 0.0
O124 O 0.79244 0.71813 0.6783 0.0
O125 O 0.73859 0.66219 0.67658 0.0
O126 O 0.38399 0.2455 0.964 0.0
Cd127 Cd 0.42208 0.24457 0.94856 0.0
Cd128 Cd 0.34238 0.281 0.94023 0.0
O129 O 0.3151 0.26531 0.95653 0.0
O130 O 0.47396 0.19752 0.95049 0.0
O131 O 0.41424 0.18752 0.93829 0.0
C132 C 0.4523 0.17131 0.94299 0.0
C133 C 0.30568 0.26191 0.92258 0.0
C134 C 0.3402 0.25358 0.96528 0.0
C135 C 0.42738 0.34417 0.94042 0.0
O136 O 0.38301 0.34084 0.93937 0.0
O137 O 0.45159 0.30812 0.94319 0.0
O138 O 0.28983 0.29503 0.92922 0.0
O139 O 0.34082 0.23729 0.92632 0.0
O140 O 0.76161 0.87304 0.21372 0.0
Cd141 Cd 0.76078 0.91327 0.19864 0.0
Cd142 Cd 0.72283 0.83411 0.19024 0.0
O143 O 0.73902 0.8051 0.2063 0.0
O144 O 0.80435 0.96609 0.20263 0.0
O145 O 0.81905 0.91515 0.18849 0.0
C146 C 0.83266 0.95057 0.19471 0.0
C147 C 0.75013 0.80443 0.17253 0.0
C148 C 0.7527 0.82948 0.21498 0.0
C149 C 0.65983 0.91846 0.19088 0.0
O150 O 0.66242 0.87409 0.18956 0.0
O151 O 0.6963 0.94202 0.19371 0.0
O152 O 0.71766 0.78294 0.17835 0.0
O153 O 0.7685 0.84193 0.17702 0.0
O154 O 0.12972 0.26311 0.46453 0.0
Cd155 Cd 0.08681 0.26603 0.44989 0.0
Cd156 Cd 0.16332 0.22547 0.44043 0.0
O157 O 0.19505 0.23672 0.45644 0.0
O158 O 0.0384 0.31374 0.45431 0.0
O159 O 0.08779 0.3239 0.43958 0.0
C160 C 0.05451 0.34038 0.44611 0.0
C161 C 0.20009 0.24297 0.4227 0.0
C162 C 0.17269 0.25098 0.46539 0.0
C163 C 0.07426 0.16728 0.44164 0.0
O164 O 0.11822 0.16888 0.43965 0.0
O165 O 0.05268 0.20389 0.4452 0.0
O166 O 0.21328 0.2079 0.42906 0.0
O167 O 0.1674 0.27015 0.42673 0.0
O168 O 0.74766 0.88311 0.54854 0.0
Cd169 Cd 0.74753 0.92016 0.56413 0.0
Cd170 Cd 0.78265 0.83923 0.57232 0.0
O171 O 0.76465 0.81349 0.556 0.0
O172 O 0.70116 0.97314 0.56249 0.0
O173 O 0.69021 0.91217 0.57421 0.0
C174 C 0.67444 0.95082 0.56975 0.0
C175 C 0.75697 0.80664 0.58991 0.0
C176 C 0.75391 0.83904 0.54726 0.0
C177 C 0.84795 0.92172 0.57239 0.0
O178 O 0.84422 0.87724 0.57318 0.0
O179 O 0.81207 0.94666 0.56983 0.0
O180 O 0.78801 0.78549 0.58356 0.0
O181 O 0.73899 0.84531 0.58601 0.0
O182 O 0.12265 0.24616 0.7978 0.0
Cd183 Cd 0.0859 0.24468 0.81344 0.0
Cd184 Cd 0.16561 0.28197 0.82143 0.0
O185 O 0.1919 0.26624 0.80502 0.0
O186 O 0.03458 0.19689 0.81181 0.0
O187 O 0.09547 0.18798 0.8237 0.0
C188 C 0.05723 0.17116 0.81922 0.0
C189 C 0.20386 0.2637 0.83893 0.0
C190 C 0.1663 0.25449 0.79635 0.0
C191 C 0.07992 0.34412 0.8216 0.0
O192 O 0.12441 0.34142 0.82242 0.0
O193 O 0.05599 0.30773 0.81897 0.0
O194 O 0.2189 0.29673 0.83216 0.0
O195 O 0.16863 0.2387 0.83539 0.0
O196 O 0.75686 0.63517 0.04819 0.0
Cd197 Cd 0.75717 0.59385 0.06311 0.0
Cd198 Cd 0.72117 0.67277 0.07211 0.0
O199 O 0.73627 0.70283 0.05612 0.0
O200 O 0.80088 0.54136 0.05884 0.0
O201 O 0.81597 0.59173 0.07309 0.0
C202 C 0.8295 0.55666 0.06674 0.0
C203 C 0.74897 0.70197 0.08984 0.0
C204 C 0.74844 0.67896 0.04722 0.0
C205 C 0.65673 0.5894 0.07122 0.0
O206 O 0.66029 0.63358 0.07279 0.0
O207 O 0.6926 0.56538 0.06815 0.0
O208 O 0.71641 0.72364 0.08408 0.0
O209 O 0.76715 0.66452 0.08527 0.0
O210 O 0.38129 0.26137 0.29757 0.0
Cd211 Cd 0.42314 0.26437 0.31237 0.0
Cd212 Cd 0.34553 0.22657 0.32176 0.0
O213 O 0.3144 0.24016 0.30578 0.0
O214 O 0.47224 0.31155 0.30816 0.0
O215 O 0.42145 0.32249 0.32257 0.0
C216 C 0.45541 0.33857 0.31621 0.0
C217 C 0.30795 0.24298 0.33948 0.0
C218 C 0.33762 0.25209 0.29674 0.0
C219 C 0.43315 0.16591 0.32071 0.0
O220 O 0.38905 0.16854 0.32243 0.0
O221 O 0.45593 0.20206 0.31735 0.0
O222 O 0.29438 0.20903 0.3328 0.0
O223 O 0.34159 0.26975 0.33579 0.0
H224 H 0.18562 0.31017 0.10396 0.0
H225 H 0.33255 0.24964 0.16034 0.0
H226 H 0.32985 0.26275 0.10239 0.0
H227 H 0.19045 0.19651 0.158 0.0
H228 H 0.32791 0.27422 0.13993 0.0
H229 H 0.18241 0.28496 0.12462 0.0
C230 C 0.21636 0.29418 0.10791 0.0
C231 C 0.25805 0.28844 0.10145 0.0
C232 C 0.29764 0.25749 0.14393 0.0
C233 C 0.25493 0.26117 0.12494 0.0
C234 C 0.30007 0.24374 0.15559 0.0
C235 C 0.26186 0.2208 0.16087 0.0
C236 C 0.25641 0.24922 0.13751 0.0
C237 C 0.22076 0.2139 0.15423 0.0
C238 C 0.21445 0.27986 0.11964 0.0
C239 C 0.29692 0.26764 0.10699 0.0
N240 N 0.21898 0.22825 0.14285 0.0
N241 N 0.29462 0.25543 0.11845 0.0
H242 H 0.71438 0.7676 0.41371 0.0
H243 H 0.79331 0.76535 0.34841 0.0
H244 H 0.85527 0.72488 0.40447 0.0
H245 H 0.65214 0.72434 0.35785 0.0
H246 H 0.81746 0.75523 0.36884 0.0
H247 H 0.69028 0.7565 0.3933 0.0
C248 C 0.74006 0.75529 0.40741 0.0
C249 C 0.78688 0.74721 0.41075 0.0
C250 C 0.7814 0.74773 0.36639 0.0
C251 C 0.75987 0.73557 0.38742 0.0
C252 C 0.76758 0.75362 0.35476 0.0
C253 C 0.72066 0.74575 0.35146 0.0
C254 C 0.74775 0.73522 0.37482 0.0
C255 C 0.6887 0.7306 0.36003 0.0
C256 C 0.72627 0.74885 0.39579 0.0
C257 C 0.81878 0.73131 0.40225 0.0
N258 N 0.70261 0.72669 0.37138 0.0
N259 N 0.80492 0.72687 0.39091 0.0
H260 H 0.32299 0.19383 0.60413 0.0
H261 H 0.17601 0.26559 0.65959 0.0
H262 H 0.18211 0.24993 0.60168 0.0
H263 H 0.32138 0.30943 0.65791 0.0
H264 H 0.18057 0.24037 0.63923 0.0
H265 H 0.3263 0.22009 0.62469 0.0
C266 C 0.29304 0.21201 0.60787 0.0
C267 C 0.25223 0.21981 0.60119 0.0
C268 C 0.21155 0.2552 0.64336 0.0
C269 C 0.25537 0.24829 0.62459 0.0
C270 C 0.20916 0.26928 0.655 0.0
C271 C 0.24837 0.28981 0.66046 0.0
C272 C 0.25367 0.26071 0.63714 0.0
C273 C 0.29031 0.29392 0.65401 0.0
C274 C 0.29501 0.2269 0.61955 0.0
C275 C 0.21436 0.24338 0.60646 0.0
N276 N 0.29199 0.27929 0.64265 0.0
N277 N 0.21659 0.25611 0.61788 0.0
H278 H 0.75707 0.67859 0.85163 0.0
H279 H 0.69589 0.82266 0.90816 0.0
H280 H 0.81152 0.82013 0.85418 0.0
H281 H 0.74896 0.68042 0.9098 0.0
H282 H 0.72073 0.82666 0.88749 0.0
H283 H 0.73308 0.68276 0.8721 0.0
C284 C 0.7633 0.71088 0.85643 0.0
C285 C 0.78647 0.74906 0.8512 0.0
C286 C 0.72718 0.79491 0.89248 0.0
C287 C 0.75874 0.75396 0.87461 0.0
C288 C 0.71309 0.79255 0.90422 0.0
C289 C 0.72052 0.75118 0.91069 0.0
C290 C 0.74727 0.75512 0.88719 0.0
C291 C 0.7428 0.71309 0.90517 0.0
C292 C 0.74991 0.71302 0.86813 0.0
C293 C 0.7939 0.78988 0.85792 0.0
N294 N 0.75469 0.71572 0.8937 0.0
N295 N 0.77986 0.7914 0.86932 0.0
H296 H 0.76421 0.71662 0.59821 0.0
H297 H 0.76956 0.7887 0.66401 0.0
H298 H 0.72524 0.85736 0.6086 0.0
H299 H 0.72189 0.65028 0.65396 0.0
H300 H 0.7592 0.81505 0.64375 0.0
H301 H 0.75455 0.69071 0.61854 0.0
C302 C 0.75307 0.7419 0.60475 0.0
C303 C 0.74556 0.78919 0.60175 0.0
C304 C 0.75033 0.77912 0.64603 0.0
C305 C 0.73559 0.7601 0.62496 0.0
C306 C 0.75633 0.76407 0.65756 0.0
C307 C 0.74658 0.71728 0.66064 0.0
C308 C 0.73585 0.74677 0.63747 0.0
C309 C 0.72959 0.68672 0.65195 0.0
C310 C 0.74744 0.72708 0.61631 0.0
C311 C 0.7312 0.82054 0.61054 0.0
N312 N 0.72561 0.70175 0.6407 0.0
N313 N 0.72752 0.80564 0.62181 0.0
H314 H 0.31165 0.18459 0.90805 0.0
H315 H 0.25305 0.32876 0.85133 0.0
H316 H 0.25958 0.32721 0.90958 0.0
H317 H 0.19752 0.18766 0.85386 0.0
H318 H 0.27656 0.32461 0.87186 0.0
H319 H 0.28749 0.18073 0.88732 0.0
C320 C 0.29481 0.21482 0.90407 0.0
C321 C 0.28742 0.25624 0.91054 0.0
C322 C 0.25961 0.29444 0.86786 0.0
C323 C 0.26149 0.25247 0.88696 0.0
C324 C 0.24651 0.29656 0.85614 0.0
C325 C 0.22316 0.25851 0.85089 0.0
C326 C 0.25034 0.25363 0.87435 0.0
C327 C 0.2153 0.21782 0.85761 0.0
C328 C 0.28111 0.21254 0.8923 0.0
C329 C 0.26565 0.29448 0.90496 0.0
N330 N 0.22907 0.21629 0.86903 0.0
N331 N 0.25416 0.29193 0.89346 0.0
H332 H 0.78355 0.6486 0.10777 0.0
H333 H 0.78497 0.85735 0.15455 0.0
H334 H 0.74271 0.79057 0.09901 0.0
H335 H 0.74284 0.71582 0.16338 0.0
H336 H 0.79458 0.8327 0.1341 0.0
H337 H 0.7937 0.67308 0.12823 0.0
C338 C 0.77769 0.6851 0.11011 0.0
C339 C 0.76197 0.7176 0.10173 0.0
C340 C 0.78393 0.80701 0.14058 0.0
C341 C 0.77402 0.7457 0.12497 0.0
C342 C 0.77871 0.8209 0.15223 0.0
C343 C 0.76278 0.78859 0.16063 0.0
C344 C 0.7742 0.7603 0.13739 0.0
C345 C 0.75483 0.74187 0.15714 0.0
C346 C 0.78322 0.69889 0.12176 0.0
C347 C 0.75454 0.76438 0.10523 0.0
N348 N 0.76061 0.72908 0.14577 0.0
N349 N 0.76061 0.77707 0.1166 0.0
H350 H 0.19805 0.3214 0.40844 0.0
H351 H 0.25908 0.17714 0.35165 0.0
H352 H 0.2437 0.17651 0.40955 0.0
H353 H 0.3131 0.31874 0.35459 0.0
H354 H 0.23386 0.18081 0.37202 0.0
H355 H 0.22393 0.32559 0.38785 0.0
C356 C 0.21378 0.2907 0.4044 0.0
C357 C 0.21883 0.24856 0.41071 0.0
C358 C 0.25094 0.21118 0.36817 0.0
C359 C 0.2469 0.25283 0.38729 0.0
C360 C 0.26507 0.20931 0.35653 0.0
C361 C 0.28842 0.24766 0.35142 0.0
C362 C 0.25928 0.25198 0.37474 0.0
C363 C 0.29539 0.28833 0.35822 0.0
C364 C 0.2285 0.29318 0.3927 0.0
C365 C 0.23933 0.20978 0.40506 0.0
N366 N 0.28069 0.28957 0.36958 0.0
N367 N 0.25195 0.21266 0.39364 0.0
H368 H 0.21242 0.1357 0.23484 0.0
H369 H 0.2492 0.22056 0.29085 0.0
H370 H 0.29987 0.25041 0.223 0.0
H371 H 0.37526 0.28006 0.27581 0.0
H372 H 0.21817 0.20812 0.27115 0.0
H373 H 0.22273 0.16233 0.2549 0.0
C374 C 0.23301 0.16715 0.23644 0.0
C375 C 0.25551 0.19069 0.2272 0.0
C376 C 0.25271 0.22366 0.27214 0.0
C377 C 0.26719 0.22194 0.25027 0.0
C378 C 0.27025 0.23131 0.28342 0.0
C379 C 0.31533 0.25057 0.28501 0.0
C380 C 0.28058 0.23514 0.26239 0.0
C381 C 0.34066 0.26438 0.27502 0.0
C382 C 0.23857 0.18267 0.24794 0.0
C383 C 0.28183 0.23119 0.22983 0.0
N384 N 0.32311 0.25606 0.26416 0.0
N385 N 0.28762 0.24503 0.24114 0.0
H386 H 0.74657 0.80563 0.47212 0.0
H387 H 0.78993 0.75426 0.54011 0.0
H388 H 0.85847 0.71724 0.48517 0.0
H389 H 0.71736 0.8773 0.52721 0.0
H390 H 0.79901 0.72658 0.51995 0.0
H391 H 0.71958 0.81786 0.49225 0.0
C392 C 0.76489 0.78801 0.47919 0.0
C393 C 0.80517 0.76077 0.47697 0.0
C394 C 0.78057 0.75932 0.52157 0.0
C395 C 0.77445 0.77465 0.49997 0.0
C396 C 0.77515 0.77507 0.53307 0.0
C397 C 0.75331 0.81847 0.53535 0.0
C398 C 0.76356 0.78688 0.51229 0.0
C399 C 0.73491 0.84391 0.52585 0.0
C400 C 0.74962 0.79526 0.49067 0.0
C401 C 0.82758 0.73893 0.48648 0.0
N402 N 0.74069 0.82787 0.51474 0.0
N403 N 0.8121 0.74657 0.49757 0.0
H404 H 0.29807 0.36479 0.73514 0.0
H405 H 0.12645 0.2203 0.77622 0.0
H406 H 0.19673 0.26526 0.72172 0.0
H407 H 0.25059 0.29128 0.78903 0.0
H408 H 0.15406 0.23233 0.7562 0.0
H409 H 0.28424 0.33469 0.75484 0.0
C410 C 0.27334 0.33615 0.73631 0.0
C411 C 0.24821 0.31782 0.72676 0.0
C412 C 0.17561 0.24467 0.76339 0.0
C413 C 0.23166 0.2836 0.74937 0.0
C414 C 0.15983 0.23787 0.77484 0.0
C415 C 0.18599 0.25522 0.78434 0.0
C416 C 0.21753 0.26963 0.7614 0.0
C417 C 0.22913 0.27746 0.78199 0.0
C418 C 0.26549 0.31892 0.74758 0.0
C419 C 0.21683 0.28051 0.72882 0.0
N420 N 0.24318 0.28464 0.77076 0.0
N421 N 0.20889 0.26514 0.73992 0.0
H422 H 0.70477 0.7605 0.04034 0.0
H423 H 0.75165 0.71456 0.97226 0.0
H424 H 0.78918 0.64582 0.02715 0.0
H425 H 0.63223 0.79216 0.98544 0.0
H426 H 0.77991 0.70471 0.99234 0.0
H427 H 0.69265 0.78773 0.02023 0.0
C428 C 0.72156 0.74159 0.03325 0.0
C429 C 0.74761 0.7005 0.03542 0.0
C430 C 0.74785 0.72441 0.9908 0.0
C431 C 0.73382 0.73147 0.01243 0.0
C432 C 0.73178 0.73026 0.97934 0.0
C433 C 0.68918 0.75377 0.97716 0.0
C434 C 0.72144 0.74263 1.00014 0.0
C435 C 0.66496 0.77332 0.98671 0.0
C436 C 0.71436 0.75701 0.02178 0.0
C437 C 0.7684 0.67737 0.02587 0.0
N438 N 0.68127 0.76707 0.99779 0.0
N439 N 0.76082 0.69299 0.01479 0.0
H440 H 0.21126 0.36499 0.02667 0.0
H441 H 0.37755 0.21637 0.98536 0.0
H442 H 0.30351 0.25646 0.03981 0.0
H443 H 0.25674 0.29258 0.97247 0.0
H444 H 0.34898 0.22753 1.00533 0.0
H445 H 0.22471 0.33633 0.00681 0.0
C446 C 0.23383 0.33468 0.0254 0.0
C447 C 0.25661 0.31335 0.03492 0.0
C448 C 0.32834 0.24121 0.99813 0.0
C449 C 0.27278 0.28079 0.01215 0.0
C450 C 0.34468 0.23492 0.98671 0.0
C451 C 0.31974 0.25394 0.97721 0.0
C452 C 0.28716 0.26741 1.0001 0.0
C453 C 0.27721 0.27742 0.97951 0.0
C454 C 0.24146 0.31829 0.01404 0.0
C455 C 0.28528 0.27403 0.03273 0.0
N456 N 0.26266 0.28412 0.99072 0.0
N457 N 0.29317 0.25951 0.02156 0.0
H458 H 0.64176 0.71204 0.27758 0.0
H459 H 0.79648 0.86397 0.23451 0.0
H460 H 0.75898 0.79616 0.28943 0.0
H461 H 0.70975 0.74868 0.22264 0.0
H462 H 0.78675 0.83672 0.25462 0.0
H463 H 0.669 0.72142 0.25745 0.0
C464 C 0.67364 0.73193 0.27596 0.0
C465 C 0.69786 0.75375 0.2852 0.0
C466 C 0.77046 0.8169 0.24761 0.0
C467 C 0.72886 0.76523 0.26213 0.0
C468 C 0.77594 0.8325 0.23611 0.0
C469 C 0.7535 0.80885 0.22688 0.0
C470 C 0.74163 0.77785 0.24993 0.0
C471 C 0.72757 0.76809 0.22949 0.0
C472 C 0.68922 0.7372 0.26446 0.0
C473 C 0.73912 0.77884 0.28258 0.0
N474 N 0.72168 0.75435 0.24079 0.0
N475 N 0.75287 0.78457 0.27128 0.0
H476 H 0.1439 0.29485 0.48546 0.0
H477 H 0.29127 0.12615 0.52652 0.0
H478 H 0.25071 0.20095 0.47217 0.0
H479 H 0.21592 0.24723 0.53957 0.0
H480 H 0.28003 0.15507 0.50659 0.0
H481 H 0.17263 0.28073 0.50529 0.0
C482 C 0.17385 0.27177 0.4867 0.0
C483 C 0.19466 0.24873 0.47714 0.0
C484 C 0.26654 0.17568 0.51382 0.0
C485 C 0.22727 0.23179 0.49987 0.0
C486 C 0.27287 0.15913 0.52521 0.0
C487 C 0.25412 0.18405 0.53475 0.0
C488 C 0.24061 0.21707 0.5119 0.0
C489 C 0.23085 0.22674 0.5325 0.0
C490 C 0.19028 0.26375 0.49803 0.0
C491 C 0.23354 0.2194 0.47927 0.0
N492 N 0.22413 0.24152 0.52131 0.0
N493 N 0.24809 0.21116 0.49043 0.0
H494 H 0.80682 0.7522 0.72157 0.0
H495 H 0.75674 0.71529 0.78985 0.0
H496 H 0.71649 0.64343 0.7354 0.0
H497 H 0.87799 0.78911 0.77638 0.0
H498 H 0.72857 0.70422 0.76981 0.0
H499 H 0.81963 0.78124 0.7415 0.0
C500 C 0.78893 0.73498 0.72876 0.0
C501 C 0.76095 0.69497 0.72682 0.0
C502 C 0.76103 0.72335 0.77127 0.0
C503 C 0.77555 0.72801 0.74961 0.0
C504 C 0.77707 0.72989 0.78271 0.0
C505 C 0.82013 0.75268 0.7848 0.0
C506 C 0.78799 0.74009 0.76186 0.0
C507 C 0.84489 0.77085 0.77517 0.0
C508 C 0.7965 0.75143 0.74013 0.0
C509 C 0.73877 0.67405 0.73649 0.0
N510 N 0.82863 0.76388 0.76412 0.0
N511 N 0.74679 0.69061 0.74747 0.0
H512 H 0.11129 0.05874 0.17555 0.0
H513 H 0.88111 1.00018 0.21109 0.0
H514 H 0.11571 0.01193 0.21143 0.0
H515 H 0.89429 0.94439 0.17613 0.0
H516 H 0.96337 0.02515 0.21034 0.0
H517 H 0.02782 0.03464 0.17457 0.0
C518 C 0.09482 0.04324 0.18317 0.0
C519 C 0.12044 0.0371 0.19357 0.0
C520 C 0.94806 0.0078 0.2028 0.0
C521 C 0.0255 0.01112 0.19259 0.0
C522 C 0.90107 0.99381 0.20318 0.0
C523 C 0.88085 0.97002 0.19367 0.0
C524 C 0.97488 0.99896 0.19275 0.0
C525 C 0.90865 0.96246 0.18367 0.0
C526 C 0.04744 0.02952 0.18259 0.0
C527 C 0.09744 0.01698 0.20321 0.0
N528 N 0.95438 0.9771 0.18343 0.0
N529 N 0.05118 0.00533 0.20254 0.0
H530 H 0.05743 0.39845 0.42678 0.0
H531 H 0.99724 0.62889 0.4624 0.0
H532 H 0.01423 0.39448 0.46294 0.0
H533 H 0.94353 0.61478 0.42725 0.0
H534 H 0.02283 0.54678 0.46179 0.0
H535 H 0.0325 0.48166 0.42584 0.0
C536 C 0.0426 0.41498 0.43448 0.0
C537 C 0.03768 0.38952 0.44494 0.0
C538 C 0.00574 0.56182 0.45419 0.0
C539 C 0.01065 0.48426 0.444 0.0
C540 C 0.9914 0.60874 0.45448 0.0
C541 C 0.96808 0.6287 0.44487 0.0
C542 C 0.99774 0.53477 0.44412 0.0
C543 C 0.96122 0.60065 0.43487 0.0
C544 C 0.02837 0.46223 0.43392 0.0
C545 C 0.01834 0.41261 0.45467 0.0
N546 N 0.97622 0.55501 0.43472 0.0
N547 N 0.00613 0.45876 0.45401 0.0
H548 H 0.37702 0.54271 0.69674 0.0
H549 H 0.64143 0.46657 0.69709 0.0
H550 H 0.41559 0.40183 0.68642 0.0
H551 H 0.60174 0.60575 0.68565 0.0
H552 H 0.55916 0.44139 0.69498 0.0
H553 H 0.45939 0.56698 0.69451 0.0
C554 C 0.40279 0.51704 0.69389 0.0
C555 C 0.38958 0.47023 0.69175 0.0
C556 C 0.56869 0.47724 0.69279 0.0
C557 C 0.48376 0.49744 0.68947 0.0
C558 C 0.61549 0.49166 0.69402 0.0
C559 C 0.62834 0.53831 0.69154 0.0
C560 C 0.53437 0.51008 0.6894 0.0
C561 C 0.59335 0.56941 0.6876 0.0
C562 C 0.44965 0.53092 0.69259 0.0
C563 C 0.42434 0.43832 0.68809 0.0
N564 N 0.54776 0.55498 0.68685 0.0
N565 N 0.47008 0.4523 0.68727 0.0
H566 H 0.54157 0.13651 0.94531 0.0
H567 H 0.46603 0.87073 0.94557 0.0
H568 H 0.40071 0.09572 0.9355 0.0
H569 H 0.60665 0.91121 0.9355 0.0
H570 H 0.44092 0.95292 0.94348 0.0
H571 H 0.56665 0.05426 0.94331 0.0
C572 C 0.51605 0.11031 0.94262 0.0
C573 C 0.46899 0.12291 0.94057 0.0
C574 C 0.47711 0.94365 0.94159 0.0
C575 C 0.49719 0.02881 0.93853 0.0
C576 C 0.49149 0.89685 0.94281 0.0
C577 C 0.53849 0.88418 0.94071 0.0
C578 C 0.51025 0.97823 0.93856 0.0
C579 C 0.57003 0.91945 0.93715 0.0
C580 C 0.53041 0.06348 0.94145 0.0
C581 C 0.43737 0.08754 0.93711 0.0
N582 N 0.55554 0.96504 0.93638 0.0
N583 N 0.45184 0.04193 0.93639 0.0
H584 H 0.10886 0.44938 0.08558 0.0
H585 H 0.87766 0.50792 0.05013 0.0
H586 H 0.11235 0.49339 0.04948 0.0
H587 H 0.89181 0.56221 0.08521 0.0
H588 H 0.95996 0.48286 0.0507 0.0
H589 H 0.02546 0.47362 0.08657 0.0
C590 C 0.09219 0.46426 0.0779 0.0
C591 C 0.11758 0.46961 0.06744 0.0
C592 C 0.94487 0.49994 0.0583 0.0
C593 C 0.0226 0.4958 0.06844 0.0
C594 C 0.89785 0.51396 0.05802 0.0
C595 C 0.87785 0.53732 0.06763 0.0
C596 C 0.97198 0.50828 0.06834 0.0
C597 C 0.90596 0.54448 0.0776 0.0
C598 C 0.04483 0.47808 0.07849 0.0
C599 C 0.09428 0.48897 0.05774 0.0
N600 N 0.95169 0.52978 0.07774 0.0
N601 N 0.04803 0.50076 0.05843 0.0
H602 H 0.56345 0.61529 0.33639 0.0
H603 H 0.49791 0.39147 0.29949 0.0
H604 H 0.50884 0.62629 0.30127 0.0
H605 H 0.45025 0.3979 0.33529 0.0
H606 H 0.52031 0.47441 0.30063 0.0
H607 H 0.5377 0.53231 0.33692 0.0
C608 C 0.54574 0.60042 0.32886 0.0
C609 C 0.53813 0.62772 0.31878 0.0
C610 C 0.50516 0.45754 0.30825 0.0
C611 C 0.51019 0.53323 0.31923 0.0
C612 C 0.49267 0.41017 0.30765 0.0
C613 C 0.47212 0.38776 0.31732 0.0
C614 C 0.49817 0.48259 0.31867 0.0
C615 C 0.46585 0.41396 0.32764 0.0
C616 C 0.53109 0.55329 0.32918 0.0
C617 C 0.51516 0.6067 0.30924 0.0
N618 N 0.47919 0.46009 0.32809 0.0
N619 N 0.50271 0.56058 0.30963 0.0
H620 H 0.59993 0.89868 0.57753 0.0
H621 H 0.41329 0.10874 0.57651 0.0
H622 H 0.63804 0.0396 0.56711 0.0
H623 H 0.37641 0.9661 0.56732 0.0
H624 H 0.49595 0.08432 0.5784 0.0
H625 H 0.51762 0.92395 0.57917 0.0
C626 C 0.59113 0.93511 0.57578 0.0
C627 C 0.62583 0.96707 0.57212 0.0
C628 C 0.46956 0.05838 0.5761 0.0
C629 C 0.53199 0.99613 0.5741 0.0
C630 C 0.42245 0.07216 0.57509 0.0
C631 C 0.38804 0.03939 0.5717 0.0
C632 C 0.48207 0.01133 0.57398 0.0
C633 C 0.4019 0.99251 0.56988 0.0
C634 C 0.54417 0.94937 0.57665 0.0
C635 C 0.61234 0.01378 0.56989 0.0
N636 N 0.44784 0.97984 0.57107 0.0
N637 N 0.56645 0.02697 0.57093 0.0
H638 H 0.11036 0.09673 0.82674 0.0
H639 H 0.89916 0.91109 0.82695 0.0
H640 H 0.96835 0.13495 0.8173 0.0
H641 H 0.04052 0.87329 0.81686 0.0
H642 H 0.92452 0.99341 0.82891 0.0
H643 H 0.08508 0.01438 0.82862 0.0
C644 C 0.07372 0.08794 0.82526 0.0
C645 C 0.04141 0.12262 0.82179 0.0
C646 C 0.94999 0.96689 0.8264 0.0
C647 C 0.01237 0.0289 0.82406 0.0
C648 C 0.93568 0.91997 0.82534 0.0
C649 C 0.96777 0.88542 0.82167 0.0
C650 C 0.99692 0.97908 0.82403 0.0
C651 C 0.01461 0.89891 0.81963 0.0
C652 C 0.05945 0.04099 0.82627 0.0
C653 C 0.99443 0.10922 0.81992 0.0
N654 N 0.02782 0.94469 0.82085 0.0
N655 N 0.98127 0.06341 0.82108 0.0
H656 H 0.6407 0.01332 0.19088 0.0
H657 H 0.36108 0.98012 0.19245 0.0
H658 H 0.57304 0.87757 0.18834 0.0
H659 H 0.42937 0.11433 0.18726 0.0
H660 H 0.43819 0.94157 0.19142 0.0
H661 H 0.56332 0.05096 0.19003 0.0
C662 C 0.60965 0.99141 0.19009 0.0
C663 C 0.61349 0.94217 0.1897 0.0
C664 C 0.43617 0.97944 0.19044 0.0
C665 C 0.52463 0.98506 0.18883 0.0
C666 C 0.39215 1.00146 0.19104 0.0
C667 C 0.38861 0.05058 0.18998 0.0
C668 C 0.477 0.00675 0.18889 0.0
C669 C 0.43021 0.07639 0.18814 0.0
C670 C 0.56544 0.01293 0.18959 0.0
C671 C 0.57189 0.91564 0.18866 0.0
N672 N 0.47257 0.05424 0.18774 0.0
N673 N 0.52925 0.93737 0.18835 0.0
H674 H 0.0128 0.86932 0.44136 0.0
H675 H 0.9792 0.14873 0.44349 0.0
H676 H 0.87693 0.93656 0.4386 0.0
H677 H 0.11289 0.0811 0.43709 0.0
H678 H 0.94077 0.07148 0.44249 0.0
H679 H 0.05021 0.94688 0.4406 0.0
C680 C 0.99083 0.90031 0.44054 0.0
C681 C 0.94163 0.89629 0.44005 0.0
C682 C 0.97849 0.0737 0.44124 0.0
C683 C 0.98421 0.98533 0.43929 0.0
C684 C 1.00044 0.11779 0.44182 0.0
C685 C 0.04939 0.12155 0.4404 0.0
C686 C 0.00574 0.03304 0.43936 0.0
C687 C 0.07508 0.0801 0.43824 0.0
C688 C 0.01221 0.94461 0.44009 0.0
C689 C 0.91499 0.93783 0.43898 0.0
N690 N 0.05304 0.03768 0.43788 0.0
N691 N 0.93657 0.98056 0.43872 0.0
H692 H 0.11007 0.44097 0.67223 0.0
H693 H 0.88798 0.51966 0.70635 0.0
H694 H 0.12756 0.49578 0.70713 0.0
H695 H 0.91424 0.59049 0.67363 0.0
H696 H 0.96873 0.4885 0.7059 0.0
H697 H 0.03081 0.47625 0.67152 0.0
C698 C 0.09736 0.46089 0.67967 0.0
C699 C 0.12531 0.46602 0.68971 0.0
C700 C 0.95645 0.51057 0.6988 0.0
C701 C 0.03485 0.5042 0.68913 0.0
C702 C 0.91048 0.52792 0.69898 0.0
C703 C 0.8946 0.55753 0.69 0.0
C704 C 0.98606 0.52175 0.6894 0.0
C705 C 0.92533 0.56777 0.68072 0.0
C706 C 0.05239 0.4808 0.67926 0.0
C707 C 0.10723 0.49166 0.69918 0.0
N708 N 0.96963 0.54947 0.68059 0.0
N709 N 0.06267 0.50911 0.69876 0.0
H710 H 0.38423 0.42914 0.93694 0.0
H711 H 0.62301 0.57824 0.93685 0.0
H712 H 0.52181 0.36643 0.94087 0.0
H713 H 0.48557 0.6408 0.9412 0.0
H714 H 0.58637 0.5007 0.93579 0.0
H715 H 0.42084 0.5067 0.93596 0.0
C716 C 0.42221 0.43155 0.93752 0.0
C717 C 0.44995 0.391 0.93904 0.0
C718 C 0.5642 0.53138 0.93693 0.0
C719 C 0.49211 0.48017 0.93792 0.0
C720 C 0.58505 0.5758 0.9375 0.0
C721 C 0.55736 0.6163 0.93917 0.0
C722 C 0.51517 0.52716 0.93795 0.0
C723 C 0.50835 0.61066 0.93995 0.0
C724 C 0.44305 0.47599 0.937 0.0
C725 C 0.49899 0.39661 0.93973 0.0
N726 N 0.48884 0.56693 0.93935 0.0
N727 N 0.51848 0.44035 0.93918 0.0
H728 H 0.57099 0.63224 0.0739 0.0
H729 H 0.42517 0.39166 0.07532 0.0
H730 H 0.6352 0.49494 0.07097 0.0
H731 H 0.36053 0.52667 0.06869 0.0
H732 H 0.50178 0.42991 0.07635 0.0
H733 H 0.49355 0.59489 0.07457 0.0
C734 C 0.56892 0.59419 0.07348 0.0
C735 C 0.60985 0.5667 0.07234 0.0
C736 C 0.47087 0.45123 0.0747 0.0
C737 C 0.52098 0.52378 0.07313 0.0
C738 C 0.42693 0.42946 0.07415 0.0
C739 C 0.38611 0.45593 0.07186 0.0
C740 C 0.47434 0.50003 0.07306 0.0
C741 C 0.39095 0.50481 0.07043 0.0
C742 C 0.52459 0.57296 0.07382 0.0
C743 C 0.60473 0.51758 0.07181 0.0
N744 N 0.43427 0.52528 0.07105 0.0
N745 N 0.56115 0.49773 0.07222 0.0
H746 H 0.39244 0.0807 0.32533 0.0
H747 H 0.63312 0.93479 0.32383 0.0
H748 H 0.52781 0.14513 0.31909 0.0
H749 H 0.49578 0.87044 0.32128 0.0
H750 H 0.59575 0.01218 0.3246 0.0
H751 H 0.43056 0.00395 0.3264 0.0
C752 C 0.43027 0.07885 0.32426 0.0
C753 C 0.4569 0.11964 0.32207 0.0
C754 C 0.5738 0.98113 0.32391 0.0
C755 C 0.50083 0.03134 0.32329 0.0
C756 C 0.59507 0.93682 0.32351 0.0
C757 C 0.56758 0.89587 0.32244 0.0
C758 C 0.52459 0.9847 0.32334 0.0
C759 C 0.51843 0.90094 0.32205 0.0
C760 C 0.45198 0.03486 0.32483 0.0
C761 C 0.50582 0.11474 0.32075 0.0
N762 N 0.49854 0.9445 0.3225 0.0
N763 N 0.5262 0.07139 0.32138 0.0
H764 H 0.93324 0.87799 0.57513 0.0
H765 H 0.08134 0.11757 0.57626 0.0
H766 H 0.87022 0.01601 0.57275 0.0
H767 H 0.14464 0.98096 0.57101 0.0
H768 H 0.00424 0.08025 0.57749 0.0
H769 H 0.01092 0.91463 0.5761 0.0
C770 C 0.93562 0.91604 0.5749 0.0
C771 C 0.89495 0.94393 0.5738 0.0
C772 C 0.03497 0.05838 0.57611 0.0
C773 C 0.98415 0.98609 0.57492 0.0
C774 C 0.07917 0.07963 0.57544 0.0
C775 C 0.11974 0.05241 0.57347 0.0
C776 C 0.03103 0.0094 0.57487 0.0
C777 C 0.11443 1.0034 0.5725 0.0
C778 C 0.9801 0.9369 0.57542 0.0
C779 C 0.90047 0.99305 0.57354 0.0
N780 N 0.07089 0.98348 0.57318 0.0
N781 N 0.9442 0.01253 0.57408 0.0
H782 H 0.02474 0.6436 0.82101 0.0
H783 H 0.9852 0.36472 0.8217 0.0
H784 H 0.8884 0.57859 0.82525 0.0
H785 H 0.12203 0.42989 0.82466 0.0
H786 H 0.9489 0.4428 0.8228 0.0
H787 H 0.06122 0.5656 0.82213 0.0
C788 C 1.00249 0.61304 0.82224 0.0
C789 C 0.9534 0.61777 0.82299 0.0
C790 C 0.98687 0.43993 0.82328 0.0
C791 C 0.99487 0.5283 0.82419 0.0
C792 C 0.0076 0.39533 0.82265 0.0
C793 C 0.05677 0.39061 0.82305 0.0
C794 C 0.01548 0.48019 0.82421 0.0
C795 C 0.08399 0.43168 0.8243 0.0
C796 C 0.02333 0.56849 0.82289 0.0
C797 C 0.92638 0.57679 0.82461 0.0
N798 N 0.06303 0.47465 0.82475 0.0
N799 N 0.94741 0.53386 0.82507 0.0
loop_
_geom_bond_atom_site_label_1
_geom_bond_atom_site_label_2
_geom_bond_distance
_geom_bond_site_symmetry_2
_ccdc_geom_bond_type
O0 Cd1 2.223 . S
O0 C8 1.315 . S
Cd1 O0 2.223 . S
Cd1 O4 2.297 . S
Cd1 O5 2.439 . S
Cd1 O11 2.240 . S
Cd2 O3 2.240 . S
Cd2 O10 2.223 . S
Cd2 O12 2.297 . S
Cd2 O13 2.439 . S
O3 Cd2 2.240 . S
O3 C8 1.279 . S
O4 Cd1 2.297 . S
O4 C6 1.247 . S
O5 Cd1 2.439 . S
O5 C6 1.208 . S
C6 O4 1.247 . S
C6 O5 1.208 . S
C7 O12 1.247 . S
C7 O13 1.208 . S
C8 O0 1.315 . S
C8 O3 1.279 . S
C9 O10 1.315 . S
C9 O11 1.279 . S
O10 Cd2 2.223 . S
O10 C9 1.315 . S
O11 Cd1 2.240 . S
O11 C9 1.279 . S
O12 Cd2 2.297 . S
O12 C7 1.247 . S
O13 Cd2 2.439 . S
O13 C7 1.208 . S
O14 Cd15 2.223 . S
O14 C22 1.315 . S
Cd15 O14 2.223 . S
Cd15 O18 2.297 . S
Cd15 O19 2.439 . S
Cd15 O25 2.240 . S
Cd16 O17 2.240 . S
Cd16 O24 2.223 . S
Cd16 O26 2.297 . S
Cd16 O27 2.439 . S
O17 Cd16 2.240 . S
O17 C22 1.279 . S
O18 Cd15 2.297 . S
O18 C20 1.247 . S
O19 Cd15 2.439 . S
O19 C20 1.208 . S
C20 O18 1.247 . S
C20 O19 1.208 . S
C21 O26 1.247 . S
C21 O27 1.208 . S
C22 O14 1.315 . S
C22 O17 1.279 . S
C23 O24 1.315 . S
C23 O25 1.279 . S
O24 Cd16 2.223 . S
O24 C23 1.315 . S
O25 Cd15 2.240 . S
O25 C23 1.279 . S
O26 Cd16 2.297 . S
O26 C21 1.247 . S
O27 Cd16 2.439 . S
O27 C21 1.208 . S
O28 Cd29 2.223 . S
O28 C36 1.315 . S
Cd29 O28 2.223 . S
Cd29 O32 2.297 . S
Cd29 O33 2.439 . S
Cd29 O39 2.240 . S
Cd30 O31 2.240 . S
Cd30 O38 2.223 . S
Cd30 O40 2.297 . S
Cd30 O41 2.439 . S
O31 Cd30 2.240 . S
O31 C36 1.279 . S
O32 Cd29 2.297 . S
O32 C34 1.247 . S
O33 Cd29 2.439 . S
O33 C34 1.208 . S
C34 O32 1.247 . S
C34 O33 1.208 . S
C35 O40 1.247 . S
C35 O41 1.208 . S
C36 O28 1.315 . S
C36 O31 1.279 . S
C37 O38 1.315 . S
C37 O39 1.279 . S
O38 Cd30 2.223 . S
O38 C37 1.315 . S
O39 Cd29 2.240 . S
O39 C37 1.279 . S
O40 Cd30 2.297 . S
O40 C35 1.247 . S
O41 Cd30 2.439 . S
O41 C35 1.208 . S
O42 Cd43 2.223 . S
O42 C50 1.315 . S
Cd43 O42 2.223 . S
Cd43 O46 2.297 . S
Cd43 O47 2.439 . S
Cd43 O53 2.240 . S
Cd44 O45 2.240 . S
Cd44 O52 2.223 . S
Cd44 O54 2.297 . S
Cd44 O55 2.439 . S
O45 Cd44 2.240 . S
O45 C50 1.279 . S
O46 Cd43 2.297 . S
O46 C48 1.247 . S
O47 Cd43 2.439 . S
O47 C48 1.208 . S
C48 O46 1.247 . S
C48 O47 1.208 . S
C49 O54 1.247 . S
C49 O55 1.208 . S
C50 O42 1.315 . S
C50 O45 1.279 . S
C51 O52 1.315 . S
C51 O53 1.279 . S
O52 Cd44 2.223 . S
O52 C51 1.315 . S
O53 Cd43 2.240 . S
O53 C51 1.279 . S
O54 Cd44 2.297 . S
O54 C49 1.247 . S
O55 Cd44 2.439 . S
O55 C49 1.208 . S
O56 Cd57 2.223 . S
O56 C64 1.315 . S
Cd57 O56 2.223 . S
Cd57 O60 2.297 . S
Cd57 O61 2.439 . S
Cd57 O67 2.240 . S
Cd58 O59 2.240 . S
Cd58 O66 2.223 . S
Cd58 O68 2.297 . S
Cd58 O69 2.439 . S
O59 Cd58 2.240 . S
O59 C64 1.279 . S
O60 Cd57 2.297 . S
O60 C62 1.247 . S
O61 Cd57 2.439 . S
O61 C62 1.208 . S
C62 O60 1.247 . S
C62 O61 1.208 . S
C63 O68 1.247 . S
C63 O69 1.208 . S
C64 O56 1.315 . S
C64 O59 1.279 . S
C65 O66 1.315 . S
C65 O67 1.279 . S
O66 Cd58 2.223 . S
O66 C65 1.315 . S
O67 Cd57 2.240 . S
O67 C65 1.279 . S
O68 Cd58 2.297 . S
O68 C63 1.247 . S
O69 Cd58 2.439 . S
O69 C63 1.208 . S
O70 Cd71 2.223 . S
O70 C78 1.315 . S
Cd71 O70 2.223 . S
Cd71 O74 2.297 . S
Cd71 O75 2.439 . S
Cd71 O81 2.240 . S
Cd72 O73 2.240 . S
Cd72 O80 2.223 . S
Cd72 O82 2.297 . S
Cd72 O83 2.439 . S
O73 Cd72 2.240 . S
O73 C78 1.279 . S
O74 Cd71 2.297 . S
O74 C76 1.247 . S
O75 Cd71 2.439 . S
O75 C76 1.208 . S
C76 O74 1.247 . S
C76 O75 1.208 . S
C77 O82 1.247 . S
C77 O83 1.208 . S
C78 O70 1.315 . S
C78 O73 1.279 . S
C79 O80 1.315 . S
C79 O81 1.279 . S
O80 Cd72 2.223 . S
O80 C79 1.315 . S
O81 Cd71 2.240 . S
O81 C79 1.279 . S
O82 Cd72 2.297 . S
O82 C77 1.247 . S
O83 Cd72 2.439 . S
O83 C77 1.208 . S
O84 Cd85 2.223 . S
O84 C92 1.315 . S
Cd85 O84 2.223 . S
Cd85 O88 2.297 . S
Cd85 O89 2.439 . S
Cd85 O95 2.240 . S
Cd86 O87 2.240 . S
Cd86 O94 2.223 . S
Cd86 O96 2.297 . S
Cd86 O97 2.439 . S
O87 Cd86 2.240 . S
O87 C92 1.279 . S
O88 Cd85 2.297 . S
O88 C90 1.247 . S
O89 Cd85 2.439 . S
O89 C90 1.208 . S
C90 O88 1.247 . S
C90 O89 1.208 . S
C91 O96 1.247 . S
C91 O97 1.208 . S
C92 O84 1.315 . S
C92 O87 1.279 . S
C93 O94 1.315 . S
C93 O95 1.279 . S
O94 Cd86 2.223 . S
O94 C93 1.315 . S
O95 Cd85 2.240 . S
O95 C93 1.279 . S
O96 Cd86 2.297 . S
O96 C91 1.247 . S
O97 Cd86 2.439 . S
O97 C91 1.208 . S
O98 Cd99 2.223 . S
O98 C106 1.315 . S
Cd99 O98 2.223 . S
Cd99 O102 2.297 . S
Cd99 O103 2.439 . S
Cd99 O109 2.240 . S
Cd100 O101 2.240 . S
Cd100 O108 2.223 . S
Cd100 O110 2.297 . S
Cd100 O111 2.439 . S
O101 Cd100 2.240 . S
O101 C106 1.279 . S
O102 Cd99 2.297 . S
O102 C104 1.247 . S
O103 Cd99 2.439 . S
O103 C104 1.208 . S
C104 O102 1.247 . S
C104 O103 1.208 . S
C105 O110 1.247 . S
C105 O111 1.208 . S
C106 O98 1.315 . S
C106 O101 1.279 . S
C107 O108 1.315 . S
C107 O109 1.279 . S
O108 Cd100 2.223 . S
O108 C107 1.315 . S
O109 Cd99 2.240 . S
O109 C107 1.279 . S
O110 Cd100 2.297 . S
O110 C105 1.247 . S
O111 Cd100 2.439 . S
O111 C105 1.208 . S
O112 Cd113 2.223 . S
O112 C120 1.315 . S
Cd113 O112 2.223 . S
Cd113 O116 2.297 . S
Cd113 O117 2.439 . S
Cd113 O123 2.240 . S
Cd114 O115 2.240 . S
Cd114 O122 2.223 . S
Cd114 O124 2.297 . S
Cd114 O125 2.439 . S
O115 Cd114 2.240 . S
O115 C120 1.279 . S
O116 Cd113 2.297 . S
O116 C118 1.247 . S
O117 Cd113 2.439 . S
O117 C118 1.208 . S
C118 O116 1.247 . S
C118 O117 1.208 . S
C119 O124 1.247 . S
C119 O125 1.208 . S
C120 O112 1.315 . S
C120 O115 1.279 . S
C121 O122 1.315 . S
C121 O123 1.279 . S
O122 Cd114 2.223 . S
O122 C121 1.315 . S
O123 Cd113 2.240 . S
O123 C121 1.279 . S
O124 Cd114 2.297 . S
O124 C119 1.247 . S
O125 Cd114 2.439 . S
O125 C119 1.208 . S
O126 Cd127 2.223 . S
O126 C134 1.315 . S
Cd127 O126 2.223 . S
Cd127 O130 2.297 . S
Cd127 O131 2.439 . S
Cd127 O137 2.240 . S
Cd128 O129 2.240 . S
Cd128 O136 2.223 . S
Cd128 O138 2.297 . S
Cd128 O139 2.439 . S
O129 Cd128 2.240 . S
O129 C134 1.279 . S
O130 Cd127 2.297 . S
O130 C132 1.247 . S
O131 Cd127 2.439 . S
O131 C132 1.208 . S
C132 O130 1.247 . S
C132 O131 1.208 . S
C133 O138 1.247 . S
C133 O139 1.208 . S
C134 O126 1.315 . S
C134 O129 1.279 . S
C135 O136 1.315 . S
C135 O137 1.279 . S
O136 Cd128 2.223 . S
O136 C135 1.315 . S
O137 Cd127 2.240 . S
O137 C135 1.279 . S
O138 Cd128 2.297 . S
O138 C133 1.247 . S
O139 Cd128 2.439 . S
O139 C133 1.208 . S
O140 Cd141 2.223 . S
O140 C148 1.315 . S
Cd141 O140 2.223 . S
Cd141 O144 2.297 . S
Cd141 O145 2.439 . S
Cd141 O151 2.240 . S
Cd142 O143 2.240 . S
Cd142 O150 2.223 . S
Cd142 O152 2.297 . S
Cd142 O153 2.439 . S
O143 Cd142 2.240 . S
O143 C148 1.279 . S
O144 Cd141 2.297 . S
O144 C146 1.247 . S
O145 Cd141 2.439 . S
O145 C146 1.208 . S
C146 O144 1.247 . S
C146 O145 1.208 . S
C147 O152 1.247 . S
C147 O153 1.208 . S
C148 O140 1.315 . S
C148 O143 1.279 . S
C149 O150 1.315 . S
C149 O151 1.279 . S
O150 Cd142 2.223 . S
O150 C149 1.315 . S
O151 Cd141 2.240 . S
O151 C149 1.279 . S
O152 Cd142 2.297 . S
O152 C147 1.247 . S
O153 Cd142 2.439 . S
O153 C147 1.208 . S
O154 Cd155 2.223 . S
O154 C162 1.315 . S
Cd155 O154 2.223 . S
Cd155 O158 2.297 . S
Cd155 O159 2.439 . S
Cd155 O165 2.240 . S
Cd156 O157 2.240 . S
Cd156 O164 2.223 . S
Cd156 O166 2.297 . S
Cd156 O167 2.439 . S
O157 Cd156 2.240 . S
O157 C162 1.279 . S
O158 Cd155 2.297 . S
O158 C160 1.247 . S
O159 Cd155 2.439 . S
O159 C160 1.208 . S
C160 O158 1.247 . S
C160 O159 1.208 . S
C161 O166 1.247 . S
C161 O167 1.208 . S
C162 O154 1.315 . S
C162 O157 1.279 . S
C163 O164 1.315 . S
C163 O165 1.279 . S
O164 Cd156 2.223 . S
O164 C163 1.315 . S
O165 Cd155 2.240 . S
O165 C163 1.279 . S
O166 Cd156 2.297 . S
O166 C161 1.247 . S
O167 Cd156 2.439 . S
O167 C161 1.208 . S
O168 Cd169 2.223 . S
O168 C176 1.315 . S
Cd169 O168 2.223 . S
Cd169 O172 2.297 . S
Cd169 O173 2.439 . S
Cd169 O179 2.240 . S
Cd170 O171 2.240 . S
Cd170 O178 2.223 . S
Cd170 O180 2.297 . S
Cd170 O181 2.439 . S
O171 Cd170 2.240 . S
O171 C176 1.279 . S
O172 Cd169 2.297 . S
O172 C174 1.247 . S
O173 Cd169 2.439 . S
O173 C174 1.208 . S
C174 O172 1.247 . S
C174 O173 1.208 . S
C175 O180 1.247 . S
C175 O181 1.208 . S
C176 O168 1.315 . S
C176 O171 1.279 . S
C177 O178 1.315 . S
C177 O179 1.279 . S
O178 Cd170 2.223 . S
O178 C177 1.315 . S
O179 Cd169 2.240 . S
O179 C177 1.279 . S
O180 Cd170 2.297 . S
O180 C175 1.247 . S
O181 Cd170 2.439 . S
O181 C175 1.208 . S
O182 Cd183 2.223 . S
O182 C190 1.315 . S
Cd183 O182 2.223 . S
Cd183 O186 2.297 . S
Cd183 O187 2.439 . S
Cd183 O193 2.240 . S
Cd184 O185 2.240 . S
Cd184 O192 2.223 . S
Cd184 O194 2.297 . S
Cd184 O195 2.439 . S
O185 Cd184 2.240 . S
O185 C190 1.279 . S
O186 Cd183 2.297 . S
O186 C188 1.247 . S
O187 Cd183 2.439 . S
O187 C188 1.208 . S
C188 O186 1.247 . S
C188 O187 1.208 . S
C189 O194 1.247 . S
C189 O195 1.208 . S
C190 O182 1.315 . S
C190 O185 1.279 . S
C191 O192 1.315 . S
C191 O193 1.279 . S
O192 Cd184 2.223 . S
O192 C191 1.315 . S
O193 Cd183 2.240 . S
O193 C191 1.279 . S
O194 Cd184 2.297 . S
O194 C189 1.247 . S
O195 Cd184 2.439 . S
O195 C189 1.208 . S
O196 Cd197 2.223 . S
O196 C204 1.315 . S
Cd197 O196 2.223 . S
Cd197 O200 2.297 . S
Cd197 O201 2.439 . S
Cd197 O207 2.240 . S
Cd198 O199 2.240 . S
Cd198 O206 2.223 . S
Cd198 O208 2.297 . S
Cd198 O209 2.439 . S
O199 Cd198 2.240 . S
O199 C204 1.279 . S
O200 Cd197 2.297 . S
O200 C202 1.247 . S
O201 Cd197 2.439 . S
O201 C202 1.208 . S
C202 O200 1.247 . S
C202 O201 1.208 . S
C203 O208 1.247 . S
C203 O209 1.208 . S
C204 O196 1.315 . S
C204 O199 1.279 . S
C205 O206 1.315 . S
C205 O207 1.279 . S
O206 Cd198 2.223 . S
O206 C205 1.315 . S
O207 Cd197 2.240 . S
O207 C205 1.279 . S
O208 Cd198 2.297 . S
O208 C203 1.247 . S
O209 Cd198 2.439 . S
O209 C203 1.208 . S
O210 Cd211 2.223 . S
O210 C218 1.315 . S
Cd211 O210 2.223 . S
Cd211 O214 2.297 . S
Cd211 O215 2.439 . S
Cd211 O221 2.240 . S
Cd212 O213 2.240 . S
Cd212 O220 2.223 . S
Cd212 O222 2.297 . S
Cd212 O223 2.439 . S
O213 Cd212 2.240 . S
O213 C218 1.279 . S
O214 Cd211 2.297 . S
O214 C216 1.247 . S
O215 Cd211 2.439 . S
O215 C216 1.208 . S
C216 O214 1.247 . S
C216 O215 1.208 . S
C217 O222 1.247 . S
C217 O223 1.208 . S
C218 O210 1.315 . S
C218 O213 1.279 . S
C219 O220 1.315 . S
C219 O221 1.279 . S
O220 Cd212 2.223 . S
O220 C219 1.315 . S
O221 Cd211 2.240 . S
O221 C219 1.279 . S
O222 Cd212 2.297 . S
O222 C217 1.247 . S
O223 Cd212 2.439 . S
O223 C217 1.208 . S
H224 C230 0.930 . S
H225 C234 0.930 . S
H226 C239 0.929 . S
H227 C237 0.929 . S
H228 C232 0.929 . S
H229 C238 0.929 . S
C230 H224 0.930 . S
C230 C231 1.367 . S
C230 C238 1.378 . S
C231 C230 1.367 . S
C231 C239 1.433 . S
C232 H228 0.929 . S
C232 C234 1.378 . S
C232 C236 1.350 . S
C233 C236 1.463 . S
C233 C238 1.350 . S
C233 N241 1.427 . S
C234 H225 0.930 . S
C234 C232 1.378 . S
C234 C235 1.367 . S
C235 C234 1.367 . S
C235 C237 1.433 . S
C236 C232 1.350 . S
C236 C233 1.463 . S
C236 N240 1.427 . S
C237 H227 0.929 . S
C237 C235 1.433 . S
C237 N240 1.384 . S
C238 H229 0.929 . S
C238 C230 1.378 . S
C238 C233 1.350 . S
C239 H226 0.929 . S
C239 C231 1.433 . S
C239 N241 1.384 . S
N240 C236 1.427 . S
N240 C237 1.384 . S
N241 C233 1.427 . S
N241 C239 1.384 . S
H242 C248 0.930 . S
H243 C252 0.930 . S
H244 C257 0.929 . S
H245 C255 0.929 . S
H246 C250 0.929 . S
H247 C256 0.929 . S
C248 H242 0.930 . S
C248 C249 1.367 . S
C248 C256 1.378 . S
C249 C248 1.367 . S
C249 C257 1.433 . S
C250 H246 0.929 . S
C250 C252 1.378 . S
C250 C254 1.350 . S
C251 C254 1.463 . S
C251 C256 1.350 . S
C251 N259 1.427 . S
C252 H243 0.930 . S
C252 C250 1.378 . S
C252 C253 1.367 . S
C253 C252 1.367 . S
C253 C255 1.433 . S
C254 C250 1.350 . S
C254 C251 1.463 . S
C254 N258 1.427 . S
C255 H245 0.929 . S
C255 C253 1.433 . S
C255 N258 1.384 . S
C256 H247 0.929 . S
C256 C248 1.378 . S
C256 C251 1.350 . S
C257 H244 0.929 . S
C257 C249 1.433 . S
C257 N259 1.384 . S
N258 C254 1.427 . S
N258 C255 1.384 . S
N259 C251 1.427 . S
N259 C257 1.384 . S
H260 C266 0.930 . S
H261 C270 0.930 . S
H262 C275 0.929 . S
H263 C273 0.929 . S
H264 C268 0.929 . S
H265 C274 0.929 . S
C266 H260 0.930 . S
C266 C267 1.367 . S
C266 C274 1.378 . S
C267 C266 1.367 . S
C267 C275 1.433 . S
C268 H264 0.929 . S
C268 C270 1.378 . S
C268 C272 1.350 . S
C269 C272 1.463 . S
C269 C274 1.350 . S
C269 N277 1.427 . S
C270 H261 0.930 . S
C270 C268 1.378 . S
C270 C271 1.367 . S
C271 C270 1.367 . S
C271 C273 1.433 . S
C272 C268 1.350 . S
C272 C269 1.463 . S
C272 N276 1.427 . S
C273 H263 0.929 . S
C273 C271 1.433 . S
C273 N276 1.384 . S
C274 H265 0.929 . S
C274 C266 1.378 . S
C274 C269 1.350 . S
C275 H262 0.929 . S
C275 C267 1.433 . S
C275 N277 1.384 . S
N276 C272 1.427 . S
N276 C273 1.384 . S
N277 C269 1.427 . S
N277 C275 1.384 . S
H278 C284 0.930 . S
H279 C288 0.930 . S
H280 C293 0.929 . S
H281 C291 0.929 . S
H282 C286 0.929 . S
H283 C292 0.929 . S
C284 H278 0.930 . S
C284 C285 1.367 . S
C284 C292 1.378 . S
C285 C284 1.367 . S
C285 C293 1.433 . S
C286 H282 0.929 . S
C286 C288 1.378 . S
C286 C290 1.350 . S
C287 C290 1.463 . S
C287 C292 1.350 . S
C287 N295 1.427 . S
C288 H279 0.930 . S
C288 C286 1.378 . S
C288 C289 1.367 . S
C289 C288 1.367 . S
C289 C291 1.433 . S
C290 C286 1.350 . S
C290 C287 1.463 . S
C290 N294 1.427 . S
C291 H281 0.929 . S
C291 C289 1.433 . S
C291 N294 1.384 . S
C292 H283 0.929 . S
C292 C284 1.378 . S
C292 C287 1.350 . S
C293 H280 0.929 . S
C293 C285 1.433 . S
C293 N295 1.384 . S
N294 C290 1.427 . S
N294 C291 1.384 . S
N295 C287 1.427 . S
N295 C293 1.384 . S
H296 C302 0.930 . S
H297 C306 0.930 . S
H298 C311 0.929 . S
H299 C309 0.929 . S
H300 C304 0.929 . S
H301 C310 0.929 . S
C302 H296 0.930 . S
C302 C303 1.367 . S
C302 C310 1.378 . S
C303 C302 1.367 . S
C303 C311 1.433 . S
C304 H300 0.929 . S
C304 C306 1.378 . S
C304 C308 1.350 . S
C305 C308 1.463 . S
C305 C310 1.350 . S
C305 N313 1.427 . S
C306 H297 0.930 . S
C306 C304 1.378 . S
C306 C307 1.367 . S
C307 C306 1.367 . S
C307 C309 1.433 . S
C308 C304 1.350 . S
C308 C305 1.463 . S
C308 N312 1.427 . S
C309 H299 0.929 . S
C309 C307 1.433 . S
C309 N312 1.384 . S
C310 H301 0.929 . S
C310 C302 1.378 . S
C310 C305 1.350 . S
C311 H298 0.929 . S
C311 C303 1.433 . S
C311 N313 1.384 . S
N312 C308 1.427 . S
N312 C309 1.384 . S
N313 C305 1.427 . S
N313 C311 1.384 . S
H314 C320 0.930 . S
H315 C324 0.930 . S
H316 C329 0.929 . S
H317 C327 0.929 . S
H318 C322 0.929 . S
H319 C328 0.929 . S
C320 H314 0.930 . S
C320 C321 1.367 . S
C320 C328 1.378 . S
C321 C320 1.367 . S
C321 C329 1.433 . S
C322 H318 0.929 . S
C322 C324 1.378 . S
C322 C326 1.350 . S
C323 C326 1.463 . S
C323 C328 1.350 . S
C323 N331 1.427 . S
C324 H315 0.930 . S
C324 C322 1.378 . S
C324 C325 1.367 . S
C325 C324 1.367 . S
C325 C327 1.433 . S
C326 C322 1.350 . S
C326 C323 1.463 . S
C326 N330 1.427 . S
C327 H317 0.929 . S
C327 C325 1.433 . S
C327 N330 1.384 . S
C328 H319 0.929 . S
C328 C320 1.378 . S
C328 C323 1.350 . S
C329 H316 0.929 . S
C329 C321 1.433 . S
C329 N331 1.384 . S
N330 C326 1.427 . S
N330 C327 1.384 . S
N331 C323 1.427 . S
N331 C329 1.384 . S
H332 C338 0.930 . S
H333 C342 0.930 . S
H334 C347 0.929 . S
H335 C345 0.929 . S
H336 C340 0.929 . S
H337 C346 0.929 . S
C338 H332 0.930 . S
C338 C339 1.367 . S
C338 C346 1.378 . S
C339 C338 1.367 . S
C339 C347 1.433 . S
C340 H336 0.929 . S
C340 C342 1.378 . S
C340 C344 1.350 . S
C341 C344 1.463 . S
C341 C346 1.350 . S
C341 N349 1.427 . S
C342 H333 0.930 . S
C342 C340 1.378 . S
C342 C343 1.367 . S
C343 C342 1.367 . S
C343 C345 1.433 . S
C344 C340 1.350 . S
C344 C341 1.463 . S
C344 N348 1.427 . S
C345 H335 0.929 . S
C345 C343 1.433 . S
C345 N348 1.384 . S
C346 H337 0.929 . S
C346 C338 1.378 . S
C346 C341 1.350 . S
C347 H334 0.929 . S
C347 C339 1.433 . S
C347 N349 1.384 . S
N348 C344 1.427 . S
N348 C345 1.384 . S
N349 C341 1.427 . S
N349 C347 1.384 . S
H350 C356 0.930 . S
H351 C360 0.930 . S
H352 C365 0.929 . S
H353 C363 0.929 . S
H354 C358 0.929 . S
H355 C364 0.929 . S
C356 H350 0.930 . S
C356 C357 1.367 . S
C356 C364 1.378 . S
C357 C356 1.367 . S
C357 C365 1.433 . S
C358 H354 0.929 . S
C358 C360 1.378 . S
C358 C362 1.350 . S
C359 C362 1.463 . S
C359 C364 1.350 . S
C359 N367 1.427 . S
C360 H351 0.930 . S
C360 C358 1.378 . S
C360 C361 1.367 . S
C361 C360 1.367 . S
C361 C363 1.433 . S
C362 C358 1.350 . S
C362 C359 1.463 . S
C362 N366 1.427 . S
C363 H353 0.929 . S
C363 C361 1.433 . S
C363 N366 1.384 . S
C364 H355 0.929 . S
C364 C356 1.378 . S
C364 C359 1.350 . S
C365 H352 0.929 . S
C365 C357 1.433 . S
C365 N367 1.384 . S
N366 C362 1.427 . S
N366 C363 1.384 . S
N367 C359 1.427 . S
N367 C365 1.384 . S
H368 C374 0.930 . S
H369 C378 0.930 . S
H370 C383 0.929 . S
H371 C381 0.929 . S
H372 C376 0.929 . S
H373 C382 0.929 . S
C374 H368 0.930 . S
C374 C375 1.367 . S
C374 C382 1.378 . S
C375 C374 1.367 . S
C375 C383 1.433 . S
C376 H372 0.929 . S
C376 C378 1.378 . S
C376 C380 1.350 . S
C377 C380 1.463 . S
C377 C382 1.350 . S
C377 N385 1.427 . S
C378 H369 0.930 . S
C378 C376 1.378 . S
C378 C379 1.367 . S
C379 C378 1.367 . S
C379 C381 1.433 . S
C380 C376 1.350 . S
C380 C377 1.463 . S
C380 N384 1.427 . S
C381 H371 0.929 . S
C381 C379 1.433 . S
C381 N384 1.384 . S
C382 H373 0.929 . S
C382 C374 1.378 . S
C382 C377 1.350 . S
C383 H370 0.929 . S
C383 C375 1.433 . S
C383 N385 1.384 . S
N384 C380 1.427 . S
N384 C381 1.384 . S
N385 C377 1.427 . S
N385 C383 1.384 . S
H386 C392 0.930 . S
H387 C396 0.930 . S
H388 C401 0.929 . S
H389 C399 0.929 . S
H390 C394 0.929 . S
H391 C400 0.929 . S
C392 H386 0.930 . S
C392 C393 1.367 . S
C392 C400 1.378 . S
C393 C392 1.367 . S
C393 C401 1.433 . S
C394 H390 0.929 . S
C394 C396 1.378 . S
C394 C398 1.350 . S
C395 C398 1.463 . S
C395 C400 1.350 . S
C395 N403 1.427 . S
C396 H387 0.930 . S
C396 C394 1.378 . S
C396 C397 1.367 . S
C397 C396 1.367 . S
C397 C399 1.433 . S
C398 C394 1.350 . S
C398 C395 1.463 . S
C398 N402 1.427 . S
C399 H389 0.929 . S
C399 C397 1.433 . S
C399 N402 1.384 . S
C400 H391 0.929 . S
C400 C392 1.378 . S
C400 C395 1.350 . S
C401 H388 0.929 . S
C401 C393 1.433 . S
C401 N403 1.384 . S
N402 C398 1.427 . S
N402 C399 1.384 . S
N403 C395 1.427 . S
N403 C401 1.384 . S
H404 C410 0.930 . S
H405 C414 0.930 . S
H406 C419 0.929 . S
H407 C417 0.929 . S
H408 C412 0.929 . S
H409 C418 0.929 . S
C410 H404 0.930 . S
C410 C411 1.367 . S
C410 C418 1.378 . S
C411 C410 1.367 . S
C411 C419 1.433 . S
C412 H408 0.929 . S
C412 C414 1.378 . S
C412 C416 1.350 . S
C413 C416 1.463 . S
C413 C418 1.350 . S
C413 N421 1.427 . S
C414 H405 0.930 . S
C414 C412 1.378 . S
C414 C415 1.367 . S
C415 C414 1.367 . S
C415 C417 1.433 . S
C416 C412 1.350 . S
C416 C413 1.463 . S
C416 N420 1.427 . S
C417 H407 0.929 . S
C417 C415 1.433 . S
C417 N420 1.384 . S
C418 H409 0.929 . S
C418 C410 1.378 . S
C418 C413 1.350 . S
C419 H406 0.929 . S
C419 C411 1.433 . S
C419 N421 1.384 . S
N420 C416 1.427 . S
N420 C417 1.384 . S
N421 C413 1.427 . S
N421 C419 1.384 . S
H422 C428 0.930 . S
H423 C432 0.930 . S
H424 C437 0.929 . S
H425 C435 0.929 . S
H426 C430 0.929 . S
H427 C436 0.929 . S
C428 H422 0.930 . S
C428 C429 1.367 . S
C428 C436 1.378 . S
C429 C428 1.367 . S
C429 C437 1.433 . S
C430 H426 0.929 . S
C430 C432 1.378 . S
C430 C434 1.350 . S
C431 C434 1.463 1_554 S
C431 C436 1.350 . S
C431 N439 1.427 . S
C432 H423 0.930 . S
C432 C430 1.378 . S
C432 C433 1.367 . S
C433 C432 1.367 . S
C433 C435 1.433 . S
C434 C430 1.350 . S
C434 C431 1.463 1_556 S
C434 N438 1.427 . S
C435 H425 0.929 . S
C435 C433 1.433 . S
C435 N438 1.384 . S
C436 H427 0.929 . S
C436 C428 1.378 . S
C436 C431 1.350 . S
C437 H424 0.929 . S
C437 C429 1.433 . S
C437 N439 1.384 . S
N438 C434 1.427 . S
N438 C435 1.384 . S
N439 C431 1.427 . S
N439 C437 1.384 . S
H440 C446 0.930 . S
H441 C450 0.930 . S
H442 C455 0.929 . S
H443 C453 0.929 . S
H444 C448 0.929 . S
H445 C454 0.929 . S
C446 H440 0.930 . S
C446 C447 1.367 . S
C446 C454 1.378 . S
C447 C446 1.367 . S
C447 C455 1.433 . S
C448 H444 0.929 . S
C448 C450 1.378 . S
C448 C452 1.350 . S
C449 C452 1.463 1_554 S
C449 C454 1.350 . S
C449 N457 1.427 . S
C450 H441 0.930 . S
C450 C448 1.378 . S
C450 C451 1.367 . S
C451 C450 1.367 . S
C451 C453 1.433 . S
C452 C448 1.350 . S
C452 C449 1.463 1_556 S
C452 N456 1.427 . S
C453 H443 0.929 . S
C453 C451 1.433 . S
C453 N456 1.384 . S
C454 H445 0.929 . S
C454 C446 1.378 . S
C454 C449 1.350 . S
C455 H442 0.929 . S
C455 C447 1.433 . S
C455 N457 1.384 . S
N456 C452 1.427 . S
N456 C453 1.384 . S
N457 C449 1.427 . S
N457 C455 1.384 . S
H458 C464 0.930 . S
H459 C468 0.930 . S
H460 C473 0.929 . S
H461 C471 0.929 . S
H462 C466 0.929 . S
H463 C472 0.929 . S
C464 H458 0.930 . S
C464 C465 1.367 . S
C464 C472 1.378 . S
C465 C464 1.367 . S
C465 C473 1.433 . S
C466 H462 0.929 . S
C466 C468 1.378 . S
C466 C470 1.350 . S
C467 C470 1.463 . S
C467 C472 1.350 . S
C467 N475 1.427 . S
C468 H459 0.930 . S
C468 C466 1.378 . S
C468 C469 1.367 . S
C469 C468 1.367 . S
C469 C471 1.433 . S
C470 C466 1.350 . S
C470 C467 1.463 . S
C470 N474 1.427 . S
C471 H461 0.929 . S
C471 C469 1.433 . S
C471 N474 1.384 . S
C472 H463 0.929 . S
C472 C464 1.378 . S
C472 C467 1.350 . S
C473 H460 0.929 . S
C473 C465 1.433 . S
C473 N475 1.384 . S
N474 C470 1.427 . S
N474 C471 1.384 . S
N475 C467 1.427 . S
N475 C473 1.384 . S
H476 C482 0.930 . S
H477 C486 0.930 . S
H478 C491 0.929 . S
H479 C489 0.929 . S
H480 C484 0.929 . S
H481 C490 0.929 . S
C482 H476 0.930 . S
C482 C483 1.367 . S
C482 C490 1.378 . S
C483 C482 1.367 . S
C483 C491 1.433 . S
C484 H480 0.929 . S
C484 C486 1.378 . S
C484 C488 1.350 . S
C485 C488 1.463 . S
C485 C490 1.350 . S
C485 N493 1.427 . S
C486 H477 0.930 . S
C486 C484 1.378 . S
C486 C487 1.367 . S
C487 C486 1.367 . S
C487 C489 1.433 . S
C488 C484 1.350 . S
C488 C485 1.463 . S
C488 N492 1.427 . S
C489 H479 0.929 . S
C489 C487 1.433 . S
C489 N492 1.384 . S
C490 H481 0.929 . S
C490 C482 1.378 . S
C490 C485 1.350 . S
C491 H478 0.929 . S
C491 C483 1.433 . S
C491 N493 1.384 . S
N492 C488 1.427 . S
N492 C489 1.384 . S
N493 C485 1.427 . S
N493 C491 1.384 . S
H494 C500 0.930 . S
H495 C504 0.930 . S
H496 C509 0.929 . S
H497 C507 0.929 . S
H498 C502 0.929 . S
H499 C508 0.929 . S
C500 H494 0.930 . S
C500 C501 1.367 . S
C500 C508 1.378 . S
C501 C500 1.367 . S
C501 C509 1.433 . S
C502 H498 0.929 . S
C502 C504 1.378 . S
C502 C506 1.350 . S
C503 C506 1.463 . S
C503 C508 1.350 . S
C503 N511 1.427 . S
C504 H495 0.930 . S
C504 C502 1.378 . S
C504 C505 1.367 . S
C505 C504 1.367 . S
C505 C507 1.433 . S
C506 C502 1.350 . S
C506 C503 1.463 . S
C506 N510 1.427 . S
C507 H497 0.929 . S
C507 C505 1.433 . S
C507 N510 1.384 . S
C508 H499 0.929 . S
C508 C500 1.378 . S
C508 C503 1.350 . S
C509 H496 0.929 . S
C509 C501 1.433 . S
C509 N511 1.384 . S
N510 C506 1.427 . S
N510 C507 1.384 . S
N511 C503 1.427 . S
N511 C509 1.384 . S
H512 C518 0.930 . S
H513 C522 0.930 . S
H514 C527 0.929 . S
H515 C525 0.929 . S
H516 C520 0.929 1_545 S
H517 C526 0.929 1_565 S
C518 H512 0.930 . S
C518 C519 1.367 . S
C518 C526 1.378 . S
C519 C518 1.367 . S
C519 C527 1.433 . S
C520 H516 0.929 1_565 S
C520 C522 1.378 . S
C520 C524 1.350 . S
C521 C524 1.463 1_445 S
C521 C526 1.350 . S
C521 N529 1.427 . S
C522 H513 0.930 . S
C522 C520 1.378 . S
C522 C523 1.367 . S
C523 C522 1.367 . S
C523 C525 1.433 . S
C524 C520 1.350 . S
C524 C521 1.463 1_665 S
C524 N528 1.427 . S
C525 H515 0.929 . S
C525 C523 1.433 . S
C525 N528 1.384 . S
C526 H517 0.929 1_545 S
C526 C518 1.378 . S
C526 C521 1.350 . S
C527 H514 0.929 . S
C527 C519 1.433 . S
C527 N529 1.384 . S
N528 C524 1.427 . S
N528 C525 1.384 . S
N529 C521 1.427 . S
N529 C527 1.384 . S
H530 C536 0.930 . S
H531 C540 0.930 . S
H532 C545 0.929 . S
H533 C543 0.929 . S
H534 C538 0.929 . S
H535 C544 0.929 . S
C536 H530 0.930 . S
C536 C537 1.367 . S
C536 C544 1.378 . S
C537 C536 1.367 . S
C537 C545 1.433 . S
C538 H534 0.929 . S
C538 C540 1.378 . S
C538 C542 1.350 . S
C539 C542 1.463 1_455 S
C539 C544 1.350 . S
C539 N547 1.427 . S
C540 H531 0.930 . S
C540 C538 1.378 . S
C540 C541 1.367 . S
C541 C540 1.367 . S
C541 C543 1.433 . S
C542 C538 1.350 . S
C542 C539 1.463 1_655 S
C542 N546 1.427 . S
C543 H533 0.929 . S
C543 C541 1.433 . S
C543 N546 1.384 . S
C544 H535 0.929 . S
C544 C536 1.378 . S
C544 C539 1.350 . S
C545 H532 0.929 . S
C545 C537 1.433 . S
C545 N547 1.384 . S
N546 C542 1.427 . S
N546 C543 1.384 . S
N547 C539 1.427 . S
N547 C545 1.384 . S
H548 C554 0.930 . S
H549 C558 0.930 . S
H550 C563 0.929 . S
H551 C561 0.929 . S
H552 C556 0.929 . S
H553 C562 0.929 . S
C554 H548 0.930 . S
C554 C555 1.367 . S
C554 C562 1.378 . S
C555 C554 1.367 . S
C555 C563 1.433 . S
C556 H552 0.929 . S
C556 C558 1.378 . S
C556 C560 1.350 . S
C557 C560 1.463 . S
C557 C562 1.350 . S
C557 N565 1.427 . S
C558 H549 0.930 . S
C558 C556 1.378 . S
C558 C559 1.367 . S
C559 C558 1.367 . S
C559 C561 1.433 . S
C560 C556 1.350 . S
C560 C557 1.463 . S
C560 N564 1.427 . S
C561 H551 0.929 . S
C561 C559 1.433 . S
C561 N564 1.384 . S
C562 H553 0.929 . S
C562 C554 1.378 . S
C562 C557 1.350 . S
C563 H550 0.929 . S
C563 C555 1.433 . S
C563 N565 1.384 . S
N564 C560 1.427 . S
N564 C561 1.384 . S
N565 C557 1.427 . S
N565 C563 1.384 . S
H566 C572 0.930 . S
H567 C576 0.930 . S
H568 C581 0.929 . S
H569 C579 0.929 . S
H570 C574 0.929 . S
H571 C580 0.929 . S
C572 H566 0.930 . S
C572 C573 1.367 . S
C572 C580 1.378 . S
C573 C572 1.367 . S
C573 C581 1.433 . S
C574 H570 0.929 . S
C574 C576 1.378 . S
C574 C578 1.350 . S
C575 C578 1.463 1_545 S
C575 C580 1.350 . S
C575 N583 1.427 . S
C576 H567 0.930 . S
C576 C574 1.378 . S
C576 C577 1.367 . S
C577 C576 1.367 . S
C577 C579 1.433 . S
C578 C574 1.350 . S
C578 C575 1.463 1_565 S
C578 N582 1.427 . S
C579 H569 0.929 . S
C579 C577 1.433 . S
C579 N582 1.384 . S
C580 H571 0.929 . S
C580 C572 1.378 . S
C580 C575 1.350 . S
C581 H568 0.929 . S
C581 C573 1.433 . S
C581 N583 1.384 . S
N582 C578 1.427 . S
N582 C579 1.384 . S
N583 C575 1.427 . S
N583 C581 1.384 . S
H584 C590 0.930 . S
H585 C594 0.930 . S
H586 C599 0.929 . S
H587 C597 0.929 . S
H588 C592 0.929 . S
H589 C598 0.929 . S
C590 H584 0.930 . S
C590 C591 1.367 . S
C590 C598 1.378 . S
C591 C590 1.367 . S
C591 C599 1.433 . S
C592 H588 0.929 . S
C592 C594 1.378 . S
C592 C596 1.350 . S
C593 C596 1.463 1_455 S
C593 C598 1.350 . S
C593 N601 1.427 . S
C594 H585 0.930 . S
C594 C592 1.378 . S
C594 C595 1.367 . S
C595 C594 1.367 . S
C595 C597 1.433 . S
C596 C592 1.350 . S
C596 C593 1.463 1_655 S
C596 N600 1.427 . S
C597 H587 0.929 . S
C597 C595 1.433 . S
C597 N600 1.384 . S
C598 H589 0.929 . S
C598 C590 1.378 . S
C598 C593 1.350 . S
C599 H586 0.929 . S
C599 C591 1.433 . S
C599 N601 1.384 . S
N600 C596 1.427 . S
N600 C597 1.384 . S
N601 C593 1.427 . S
N601 C599 1.384 . S
H602 C608 0.930 . S
H603 C612 0.930 . S
H604 C617 0.929 . S
H605 C615 0.929 . S
H606 C610 0.929 . S
H607 C616 0.929 . S
C608 H602 0.930 . S
C608 C609 1.367 . S
C608 C616 1.378 . S
C609 C608 1.367 . S
C609 C617 1.433 . S
C610 H606 0.929 . S
C610 C612 1.378 . S
C610 C614 1.350 . S
C611 C614 1.463 . S
C611 C616 1.350 . S
C611 N619 1.427 . S
C612 H603 0.930 . S
C612 C610 1.378 . S
C612 C613 1.367 . S
C613 C612 1.367 . S
C613 C615 1.433 . S
C614 C610 1.350 . S
C614 C611 1.463 . S
C614 N618 1.427 . S
C615 H605 0.929 . S
C615 C613 1.433 . S
C615 N618 1.384 . S
C616 H607 0.929 . S
C616 C608 1.378 . S
C616 C611 1.350 . S
C617 H604 0.929 . S
C617 C609 1.433 . S
C617 N619 1.384 . S
N618 C614 1.427 . S
N618 C615 1.384 . S
N619 C611 1.427 . S
N619 C617 1.384 . S
H620 C626 0.930 . S
H621 C630 0.930 . S
H622 C635 0.929 . S
H623 C633 0.929 . S
H624 C628 0.929 . S
H625 C634 0.929 . S
C626 H620 0.930 . S
C626 C627 1.367 . S
C626 C634 1.378 . S
C627 C626 1.367 . S
C627 C635 1.433 . S
C628 H624 0.929 . S
C628 C630 1.378 . S
C628 C632 1.350 . S
C629 C632 1.463 1_565 S
C629 C634 1.350 . S
C629 N637 1.427 1_565 S
C630 H621 0.930 . S
C630 C628 1.378 . S
C630 C631 1.367 . S
C631 C630 1.367 . S
C631 C633 1.433 . S
C632 C628 1.350 . S
C632 C629 1.463 1_545 S
C632 N636 1.427 1_545 S
C633 H623 0.929 . S
C633 C631 1.433 . S
C633 N636 1.384 1_545 S
C634 H625 0.929 . S
C634 C626 1.378 . S
C634 C629 1.350 . S
C635 H622 0.929 . S
C635 C627 1.433 . S
C635 N637 1.384 1_565 S
N636 C632 1.427 1_565 S
N636 C633 1.384 1_565 S
N637 C629 1.427 1_545 S
N637 C635 1.384 1_545 S
H638 C644 0.930 . S
H639 C648 0.930 . S
H640 C653 0.929 . S
H641 C651 0.929 . S
H642 C646 0.929 . S
H643 C652 0.929 . S
C644 H638 0.930 . S
C644 C645 1.367 . S
C644 C652 1.378 . S
C645 C644 1.367 . S
C645 C653 1.433 . S
C646 H642 0.929 . S
C646 C648 1.378 . S
C646 C650 1.350 . S
C647 C650 1.463 1_445 S
C647 C652 1.350 . S
C647 N655 1.427 1_455 S
C648 H639 0.930 . S
C648 C646 1.378 . S
C648 C649 1.367 . S
C649 C648 1.367 . S
C649 C651 1.433 . S
C650 C646 1.350 . S
C650 C647 1.463 1_665 S
C650 N654 1.427 1_655 S
C651 H641 0.929 . S
C651 C649 1.433 . S
C651 N654 1.384 1_655 S
C652 H643 0.929 . S
C652 C644 1.378 . S
C652 C647 1.350 . S
C653 H640 0.929 . S
C653 C645 1.433 . S
C653 N655 1.384 1_455 S
N654 C650 1.427 1_455 S
N654 C651 1.384 1_455 S
N655 C647 1.427 1_655 S
N655 C653 1.384 1_655 S
H656 C662 0.930 . S
H657 C666 0.930 . S
H658 C671 0.929 . S
H659 C669 0.929 . S
H660 C664 0.929 1_565 S
H661 C670 0.929 1_545 S
C662 H656 0.930 . S
C662 C663 1.367 . S
C662 C670 1.378 . S
C663 C662 1.367 . S
C663 C671 1.433 . S
C664 H660 0.929 1_545 S
C664 C666 1.378 . S
C664 C668 1.350 . S
C665 C668 1.463 1_565 S
C665 C670 1.350 . S
C665 N673 1.427 . S
C666 H657 0.930 . S
C666 C664 1.378 . S
C666 C667 1.367 . S
C667 C666 1.367 . S
C667 C669 1.433 . S
C668 C664 1.350 . S
C668 C665 1.463 1_545 S
C668 N672 1.427 . S
C669 H659 0.929 . S
C669 C667 1.433 . S
C669 N672 1.384 . S
C670 H661 0.929 1_565 S
C670 C662 1.378 . S
C670 C665 1.350 . S
C671 H658 0.929 . S
C671 C663 1.433 . S
C671 N673 1.384 . S
N672 C668 1.427 . S
N672 C669 1.384 . S
N673 C665 1.427 . S
N673 C671 1.384 . S
H674 C680 0.930 . S
H675 C684 0.930 . S
H676 C689 0.929 . S
H677 C687 0.929 . S
H678 C682 0.929 . S
H679 C688 0.929 . S
C680 H674 0.930 . S
C680 C681 1.367 . S
C680 C688 1.378 1_655 S
C681 C680 1.367 . S
C681 C689 1.433 . S
C682 H678 0.929 . S
C682 C684 1.378 1_655 S
C682 C686 1.350 1_655 S
C683 C686 1.463 1_665 S
C683 C688 1.350 1_655 S
C683 N691 1.427 . S
C684 H675 0.930 . S
C684 C682 1.378 1_455 S
C684 C685 1.367 . S
C685 C684 1.367 . S
C685 C687 1.433 . S
C686 C682 1.350 1_455 S
C686 C683 1.463 1_445 S
C686 N690 1.427 . S
C687 H677 0.929 . S
C687 C685 1.433 . S
C687 N690 1.384 . S
C688 H679 0.929 . S
C688 C680 1.378 1_455 S
C688 C683 1.350 1_455 S
C689 H676 0.929 . S
C689 C681 1.433 . S
C689 N691 1.384 . S
N690 C686 1.427 . S
N690 C687 1.384 . S
N691 C683 1.427 . S
N691 C689 1.384 . S
H692 C698 0.930 . S
H693 C702 0.930 . S
H694 C707 0.929 . S
H695 C705 0.929 . S
H696 C700 0.929 . S
H697 C706 0.929 . S
C698 H692 0.930 . S
C698 C699 1.367 . S
C698 C706 1.378 . S
C699 C698 1.367 . S
C699 C707 1.433 . S
C700 H696 0.929 . S
C700 C702 1.378 . S
C700 C704 1.350 . S
C701 C704 1.463 1_455 S
C701 C706 1.350 . S
C701 N709 1.427 . S
C702 H693 0.930 . S
C702 C700 1.378 . S
C702 C703 1.367 . S
C703 C702 1.367 . S
C703 C705 1.433 . S
C704 C700 1.350 . S
C704 C701 1.463 1_655 S
C704 N708 1.427 . S
C705 H695 0.929 . S
C705 C703 1.433 . S
C705 N708 1.384 . S
C706 H697 0.929 . S
C706 C698 1.378 . S
C706 C701 1.350 . S
C707 H694 0.929 . S
C707 C699 1.433 . S
C707 N709 1.384 . S
N708 C704 1.427 . S
N708 C705 1.384 . S
N709 C701 1.427 . S
N709 C707 1.384 . S
H710 C716 0.930 . S
H711 C720 0.930 . S
H712 C725 0.929 . S
H713 C723 0.929 . S
H714 C718 0.929 . S
H715 C724 0.929 . S
C716 H710 0.930 . S
C716 C717 1.367 . S
C716 C724 1.378 . S
C717 C716 1.367 . S
C717 C725 1.433 . S
C718 H714 0.929 . S
C718 C720 1.378 . S
C718 C722 1.350 . S
C719 C722 1.463 . S
C719 C724 1.350 . S
C719 N727 1.427 . S
C720 H711 0.930 . S
C720 C718 1.378 . S
C720 C721 1.367 . S
C721 C720 1.367 . S
C721 C723 1.433 . S
C722 C718 1.350 . S
C722 C719 1.463 . S
C722 N726 1.427 . S
C723 H713 0.929 . S
C723 C721 1.433 . S
C723 N726 1.384 . S
C724 H715 0.929 . S
C724 C716 1.378 . S
C724 C719 1.350 . S
C725 H712 0.929 . S
C725 C717 1.433 . S
C725 N727 1.384 . S
N726 C722 1.427 . S
N726 C723 1.384 . S
N727 C719 1.427 . S
N727 C725 1.384 . S
H728 C734 0.930 . S
H729 C738 0.930 . S
H730 C743 0.929 . S
H731 C741 0.929 . S
H732 C736 0.929 . S
H733 C742 0.929 . S
C734 H728 0.930 . S
C734 C735 1.367 . S
C734 C742 1.378 . S
C735 C734 1.367 . S
C735 C743 1.433 . S
C736 H732 0.929 . S
C736 C738 1.378 . S
C736 C740 1.350 . S
C737 C740 1.463 . S
C737 C742 1.350 . S
C737 N745 1.427 . S
C738 H729 0.930 . S
C738 C736 1.378 . S
C738 C739 1.367 . S
C739 C738 1.367 . S
C739 C741 1.433 . S
C740 C736 1.350 . S
C740 C737 1.463 . S
C740 N744 1.427 . S
C741 H731 0.929 . S
C741 C739 1.433 . S
C741 N744 1.384 . S
C742 H733 0.929 . S
C742 C734 1.378 . S
C742 C737 1.350 . S
C743 H730 0.929 . S
C743 C735 1.433 . S
C743 N745 1.384 . S
N744 C740 1.427 . S
N744 C741 1.384 . S
N745 C737 1.427 . S
N745 C743 1.384 . S
H746 C752 0.930 . S
H747 C756 0.930 . S
H748 C761 0.929 . S
H749 C759 0.929 . S
H750 C754 0.929 . S
H751 C760 0.929 . S
C752 H746 0.930 . S
C752 C753 1.367 . S
C752 C760 1.378 . S
C753 C752 1.367 . S
C753 C761 1.433 . S
C754 H750 0.929 . S
C754 C756 1.378 . S
C754 C758 1.350 . S
C755 C758 1.463 1_545 S
C755 C760 1.350 . S
C755 N763 1.427 . S
C756 H747 0.930 . S
C756 C754 1.378 . S
C756 C757 1.367 . S
C757 C756 1.367 . S
C757 C759 1.433 . S
C758 C754 1.350 . S
C758 C755 1.463 1_565 S
C758 N762 1.427 . S
C759 H749 0.929 . S
C759 C757 1.433 . S
C759 N762 1.384 . S
C760 H751 0.929 . S
C760 C752 1.378 . S
C760 C755 1.350 . S
C761 H748 0.929 . S
C761 C753 1.433 . S
C761 N763 1.384 . S
N762 C758 1.427 . S
N762 C759 1.384 . S
N763 C755 1.427 . S
N763 C761 1.384 . S
H764 C770 0.930 . S
H765 C774 0.930 . S
H766 C779 0.929 . S
H767 C777 0.929 . S
H768 C772 0.929 . S
H769 C778 0.929 . S
C770 H764 0.930 . S
C770 C771 1.367 . S
C770 C778 1.378 . S
C771 C770 1.367 . S
C771 C779 1.433 . S
C772 H768 0.929 . S
C772 C774 1.378 . S
C772 C776 1.350 . S
C773 C776 1.463 1_665 S
C773 C778 1.350 . S
C773 N781 1.427 . S
C774 H765 0.930 . S
C774 C772 1.378 . S
C774 C775 1.367 . S
C775 C774 1.367 . S
C775 C777 1.433 . S
C776 C772 1.350 . S
C776 C773 1.463 1_445 S
C776 N780 1.427 . S
C777 H767 0.929 . S
C777 C775 1.433 . S
C777 N780 1.384 . S
C778 H769 0.929 . S
C778 C770 1.378 . S
C778 C773 1.350 . S
C779 H766 0.929 . S
C779 C771 1.433 . S
C779 N781 1.384 . S
N780 C776 1.427 . S
N780 C777 1.384 . S
N781 C773 1.427 . S
N781 C779 1.384 . S
H782 C788 0.930 . S
H783 C792 0.930 . S
H784 C797 0.929 . S
H785 C795 0.929 . S
H786 C790 0.929 . S
H787 C796 0.929 . S
C788 H782 0.930 . S
C788 C789 1.367 . S
C788 C796 1.378 1_655 S
C789 C788 1.367 . S
C789 C797 1.433 . S
C790 H786 0.929 . S
C790 C792 1.378 1_655 S
C790 C794 1.350 1_655 S
C791 C794 1.463 1_655 S
C791 C796 1.350 1_655 S
C791 N799 1.427 . S
C792 H783 0.930 . S
C792 C790 1.378 1_455 S
C792 C793 1.367 . S
C793 C792 1.367 . S
C793 C795 1.433 . S
C794 C790 1.350 1_455 S
C794 C791 1.463 1_455 S
C794 N798 1.427 . S
C795 H785 0.929 . S
C795 C793 1.433 . S
C795 N798 1.384 . S
C796 H787 0.929 . S
C796 C788 1.378 1_455 S
C796 C791 1.350 1_455 S
C797 H784 0.929 . S
C797 C789 1.433 . S
C797 N799 1.384 . S
N798 C794 1.427 . S
N798 C795 1.384 . S
N799 C791 1.427 . S
N799 C797 1.384 . S
C231 C63 1.483 . S
C235 C7 1.480 . S
C249 C21 1.476 . S
C253 C77 1.477 . S
C267 C91 1.483 . S
C271 C35 1.479 . S
C285 C105 1.480 . S
C289 C49 1.483 . S
C303 C175 1.477 . S
C307 C119 1.476 . S
C321 C133 1.479 . S
C325 C189 1.476 . S
C339 C203 1.483 . S
C343 C147 1.481 . S
C357 C161 1.480 . S
C361 C217 1.477 . S
C375 C8 1.450 . S
C379 C218 1.455 . S
C393 C22 1.453 . S
C397 C176 1.456 . S
C411 C36 1.449 . S
C415 C190 1.447 . S
C429 C204 1.456 . S
C433 C50 1.452 . S
C447 C64 1.450 . S
C451 C134 1.447 . S
C465 C78 1.448 . S
C469 C148 1.448 . S
C483 C162 1.449 . S
C487 C92 1.448 . S
C501 C120 1.455 . S
C505 C106 1.456 . S
C519 C6 1.634 . S
C523 C146 1.633 . S
C537 C160 1.634 . S
C541 C20 1.633 . S
C555 C34 1.630 . S
C559 C118 1.630 . S
C573 C132 1.630 . S
C577 C48 1.630 . S
C591 C62 1.636 . S
C595 C202 1.635 . S
C609 C76 1.632 . S
C613 C216 1.631 . S
C627 C174 1.639 . S
C631 C90 1.639 . S
C645 C188 1.638 . S
C649 C104 1.639 . S
C663 C149 1.462 . S
C667 C9 1.460 . S
C681 C23 1.463 . S
C685 C163 1.461 . S
C699 C37 1.459 . S
C703 C121 1.461 . S
C717 C135 1.457 . S
C721 C51 1.459 . S
C735 C205 1.459 . S
C739 C65 1.457 . S
C753 C219 1.457 . S
C757 C79 1.460 . S
C771 C177 1.457 . S
C775 C93 1.460 . S
C789 C107 1.463 . S
C793 C191 1.462 . S
