# Generated by pormake.
# Topology vby, (6)-cn, num edge types: 1
# Building blocks:
#     Node 0, Type 0, BuildingBlock: GEDQOX_clean_sbu_0, # of connection points: 6
#     Node 1, Type 0, BuildingBlock: GEDQOX_clean_sbu_0, # of connection points: 6
#     Node 2, Type 0, BuildingBlock: GEDQOX_clean_sbu_0, # of connection points: 6
#     Node 3, Type 0, BuildingBlock: GEDQOX_clean_sbu_0, # of connection points: 6
#     Node 4, Type 0, BuildingBlock: GEDQOX_clean_sbu_0, # of connection points: 6
#     Node 5, Type 0, BuildingBlock: GEDQOX_clean_sbu_0, # of connection points: 6
#     Node 6, Type 0, BuildingBlock: GEDQOX_clean_sbu_0, # of connection points: 6
#     Node 7, Type 0, BuildingBlock: GEDQOX_clean_sbu_0, # of connection points: 6
#     Edge 8, Type (0, 0), BuildingBlock: AJUNOK_clean_linker_0, # of connection points: 2
#     Edge 9, Type (0, 0), BuildingBlock: AJUNOK_clean_linker_0, # of connection points: 2
#     Edge 10, Type (0, 0), BuildingBlock: AJUNOK_clean_linker_0, # of connection points: 2
#     Edge 11, Type (0, 0), BuildingBlock: AJUNOK_clean_linker_0, # of connection points: 2
#     Edge 12, Type (0, 0), BuildingBlock: AJUNOK_clean_linker_0, # of connection points: 2
#     Edge 13, Type (0, 0), BuildingBlock: AJUNOK_clean_linker_0, # of connection points: 2
#     Edge 14, Type (0, 0), BuildingBlock: AJUNOK_clean_linker_0, # of connection points: 2
#     Edge 15, Type (0, 0), BuildingBlock: AJUNOK_clean_linker_0, # of connection points: 2
#     Edge 16, Type (0, 0), BuildingBlock: AJUNOK_clean_linker_0, # of connection points: 2
#     Edge 17, Type (0, 0), BuildingBlock: AJUNOK_clean_linker_0, # of connection points: 2
#     Edge 18, Type (0, 0), BuildingBlock: AJUNOK_clean_linker_0, # of connection points: 2
#     Edge 19, Type (0, 0), BuildingBlock: AJUNOK_clean_linker_0, # of connection points: 2
#     Edge 20, Type (0, 0), BuildingBlock: AJUNOK_clean_linker_0, # of connection points: 2
#     Edge 21, Type (0, 0), BuildingBlock: AJUNOK_clean_linker_0, # of connection points: 2
#     Edge 22, Type (0, 0), BuildingBlock: AJUNOK_clean_linker_0, # of connection points: 2
#     Edge 23, Type (0, 0), BuildingBlock: AJUNOK_clean_linker_0, # of connection points: 2
#     Edge 24, Type (0, 0), BuildingBlock: AJUNOK_clean_linker_0, # of connection points: 2
#     Edge 25, Type (0, 0), BuildingBlock: AJUNOK_clean_linker_0, # of connection points: 2
#     Edge 26, Type (0, 0), BuildingBlock: AJUNOK_clean_linker_0, # of connection points: 2
#     Edge 27, Type (0, 0), BuildingBlock: AJUNOK_clean_linker_0, # of connection points: 2
#     Edge 28, Type (0, 0), BuildingBlock: AJUNOK_clean_linker_0, # of connection points: 2
#     Edge 29, Type (0, 0), BuildingBlock: AJUNOK_clean_linker_0, # of connection points: 2
#     Edge 30, Type (0, 0), BuildingBlock: AJUNOK_clean_linker_0, # of connection points: 2
#     Edge 31, Type (0, 0), BuildingBlock: AJUNOK_clean_linker_0, # of connection points: 2
# Relax obj value: 0.135
# Max RMSD: 0.228
# Mean RMSD: 0.224
data_MOF--net-vby--node1-GEDQOX_clean_sbu_0--edge1-AJUNOK_clean_linker_0
_symmetry_space_group_name_H-M    P1
_symmetry_Int_Tables_number       1
_symmetry_cell_setting            triclinic
loop_
_symmetry_equiv_pos_as_xyz
'x, y, z'
_cell_length_a     21.170404
_cell_length_b     39.087049
_cell_length_c     20.598301
_cell_angle_alpha  93.719099
_cell_angle_beta   93.019944
_cell_angle_gamma 90.274664
loop_
_atom_site_label
_atom_site_type_symbol
_atom_site_fract_x
_atom_site_fract_y
_atom_site_fract_z
_atom_type_partial_charge
Nd0 Nd 0.16909 0.37996 0.05765 0.0
Nd1 Nd 0.05965 0.34318 0.04765 0.0
C2 C 0.28934 0.40003 0.06983 0.0
C3 C 0.35284 0.38786 0.0528 0.0
C4 C 0.37407 0.35505 0.06753 0.0
C5 C 0.43661 0.3454 0.05771 0.0
C6 C 0.47919 0.36827 0.03265 0.0
C7 C 0.4572 0.40064 1.01605 0.0
C8 C 0.39471 0.41032 0.02607 0.0
C9 C 0.11018 0.37644 0.17653 0.0
C10 C 0.18959 0.30204 0.03246 0.0
C11 C 0.94645 0.31771 0.06942 0.0
C12 C 0.8789 0.32316 0.05305 0.0
C13 C 0.85798 0.3533 1.02564 0.0
C14 C 0.79315 0.35941 1.01593 0.0
C15 C 0.74817 0.33544 0.03328 0.0
C16 C 0.76957 0.30487 0.05919 0.0
C17 C 0.83437 0.2988 0.06885 0.0
C18 C 0.08826 0.35045 0.92121 0.0
C19 C 0.06109 0.42995 0.03818 0.0
O20 O 0.25039 0.40906 1.02272 0.0
O21 O 0.26113 0.3835 0.11328 0.0
O22 O 0.12824 0.40446 0.15261 0.0
O23 O 0.12177 0.35146 0.13691 0.0
O24 O 0.20121 0.33073 1.00696 0.0
O25 O 0.1369 0.30054 0.06423 0.0
O26 O 0.97532 0.34182 0.10669 0.0
O27 O 0.98099 0.30579 1.02262 0.0
O28 O 0.07227 0.32179 0.94435 0.0
O29 O 0.09704 0.37398 0.96711 0.0
O30 O 1.02665 0.40177 0.04544 0.0
O31 O 0.12214 0.42822 0.03485 0.0
H32 H 0.34291 0.33714 0.08835 0.0
H33 H 0.45217 0.32051 0.07208 0.0
H34 H 0.48876 0.41877 0.99638 0.0
H35 H 0.37955 0.43576 1.01453 0.0
H36 H 0.89173 0.37242 1.01316 0.0
H37 H 0.77812 0.38312 0.99568 0.0
H38 H 0.73628 0.28622 0.07429 0.0
H39 H 0.8497 0.27546 0.09041 0.0
Nd40 Nd 0.90655 0.6201 0.968 0.0
Nd41 Nd 1.02022 0.65547 0.99485 0.0
C42 C 0.78928 0.59917 0.93404 0.0
C43 C 0.72388 0.61085 0.94603 0.0
C44 C 0.6886 0.62784 0.89821 0.0
C45 C 0.62634 0.6381 0.90827 0.0
C46 C 0.59778 0.63147 0.9663 0.0
C47 C 0.63308 0.61459 1.01417 0.0
C48 C 0.69533 0.60441 1.00422 0.0
C49 C 0.94462 0.62825 0.10191 0.0
C50 C 0.89054 0.69967 0.99231 0.0
C51 C 0.13436 0.67769 0.03956 0.0
C52 C 0.20226 0.67296 0.02706 0.0
C53 C 0.24254 0.6594 0.07514 0.0
C54 C 0.30669 0.65434 0.06493 0.0
C55 C 0.33238 0.66304 1.0066 0.0
C56 C 0.29235 0.67713 0.95873 0.0
C57 C 0.22789 0.68204 0.96881 0.0
C58 C 1.00132 0.64638 0.86045 0.0
C59 C 1.01286 0.5698 0.97824 0.0
O60 O 0.82282 0.61793 0.89817 0.0
O61 O 0.8229 0.58757 0.98284 0.0
O62 O 0.9239 0.59971 0.07271 0.0
O63 O 0.94294 0.6508 0.0612 0.0
O64 O 0.87431 0.67441 0.9502 0.0
O65 O 0.94585 0.69742 1.02504 0.0
O66 O 0.10518 0.65179 0.06191 0.0
O67 O 0.09882 0.69363 0.9976 0.0
O68 O 1.01471 0.6753 0.89248 0.0
O69 O 0.99091 0.62364 0.9004 0.0
O70 O 1.03963 0.5969 1.01153 0.0
O71 O 0.96422 0.57461 0.93852 0.0
H72 H 0.70889 0.63287 0.85254 0.0
H73 H 0.60003 0.65042 0.86988 0.0
H74 H 0.61241 0.60918 0.05945 0.0
H75 H 0.72082 0.59126 0.04205 0.0
H76 H 0.22424 0.65252 0.12073 0.0
H77 H 0.33639 0.64364 0.10286 0.0
H78 H 0.3106 0.68365 0.91292 0.0
H79 H 0.19817 0.69263 0.9308 0.0
Nd80 Nd 0.05369 0.65552 0.49711 0.0
Nd81 Nd 0.16362 0.61829 0.48012 0.0
C82 C 0.94313 0.67984 0.53436 0.0
C83 C 0.87441 0.6722 0.52648 0.0
C84 C 0.84913 0.6416 0.54706 0.0
C85 C 0.78378 0.6357 0.54287 0.0
C86 C 0.74227 0.66016 0.51791 0.0
C87 C 0.76752 0.69049 0.49637 0.0
C88 C 0.83294 0.69656 0.50107 0.0
C89 C 0.07053 0.64637 0.36489 0.0
C90 C 0.05238 0.56996 0.47704 0.0
C91 C 0.2784 0.59406 0.45961 0.0
C92 C 0.34479 0.606 0.47148 0.0
C93 C 0.36534 0.63747 0.45019 0.0
C94 C 0.42865 0.64789 0.46056 0.0
C95 C 0.47268 0.62715 0.4927 0.0
C96 C 0.45196 0.59577 0.51424 0.0
C97 C 0.38869 0.58534 0.50374 0.0
C98 C 0.12774 0.62688 0.61044 0.0
C99 C 0.18409 0.69824 0.49213 0.0
O100 O 0.97815 0.65903 0.56745 0.0
O101 O 0.97115 0.69022 0.48416 0.0
O102 O 0.05949 0.67542 0.39594 0.0
O103 O 0.07881 0.62317 0.40514 0.0
O104 O 1.02802 0.59721 0.50851 0.0
O105 O 0.10184 0.57421 0.44337 0.0
O106 O 0.2436 0.60929 0.41609 0.0
O107 O 0.24738 0.58774 0.51065 0.0
O108 O 0.14351 0.59796 0.58166 0.0
O109 O 0.13176 0.64993 0.57068 0.0
O110 O 0.19786 0.67089 0.45637 0.0
O111 O 0.13118 0.698 0.52382 0.0
H112 H 0.87968 0.62226 0.56687 0.0
H113 H 0.76565 0.61185 0.55882 0.0
H114 H 0.73654 0.70978 0.47698 0.0
H115 H 0.85113 0.72048 0.48545 0.0
H116 H 0.33268 0.65395 0.42508 0.0
H117 H 0.44319 0.67221 0.44353 0.0
H118 H 0.485 0.57892 0.53801 0.0
H119 H 0.37414 0.5609 0.52029 0.0
Nd120 Nd 0.90057 0.3811 0.53014 0.0
Nd121 Nd 1.01693 0.3443 0.52367 0.0
C122 C 0.78551 0.40521 0.55007 0.0
C123 C 0.71949 0.39222 0.54562 0.0
C124 C 0.70424 0.35889 0.56202 0.0
C125 C 0.64109 0.34751 0.55832 0.0
C126 C 0.59197 0.36916 0.53788 0.0
C127 C 0.60771 0.40236 0.52101 0.0
C128 C 0.67069 0.41371 0.52481 0.0
C129 C 0.9523 0.3773 0.40654 0.0
C130 C 0.88058 0.30035 0.51614 0.0
C131 C 0.12214 0.31115 0.49579 0.0
C132 C 0.19091 0.31857 0.5047 0.0
C133 C 0.21538 0.35087 0.49233 0.0
C134 C 0.28045 0.35749 0.49941 0.0
C135 C 0.32278 0.33212 0.5195 0.0
C136 C 0.29807 0.29996 0.53294 0.0
C137 C 0.23282 0.29323 0.52531 0.0
C138 C 1.00486 0.37019 0.64968 0.0
C139 C 1.01531 0.42875 0.54011 0.0
O140 O 0.82342 0.39415 0.59613 0.0
O141 O 0.81314 0.40723 0.4953 0.0
O142 O 0.9303 0.40513 0.4348 0.0
O143 O 0.94626 0.35308 0.44346 0.0
O144 O 0.85395 0.33008 0.51296 0.0
O145 O 0.94335 0.29805 0.52426 0.0
O146 O 0.0901 0.32944 0.45468 0.0
O147 O 0.09179 0.30656 0.54828 0.0
O148 O 0.05499 0.3729 0.61714 0.0
O149 O 0.9599 0.35585 0.61323 0.0
O150 O 1.04143 0.40218 0.50797 0.0
O151 O 0.96405 0.4238 0.57062 0.0
H152 H 0.741 0.34173 0.57817 0.0
H153 H 0.63069 0.32199 0.57259 0.0
H154 H 0.57119 0.41959 0.50456 0.0
H155 H 0.68129 0.43943 0.51168 0.0
H156 H 0.18425 0.37104 0.47678 0.0
H157 H 0.29776 0.38247 0.48838 0.0
H158 H 0.32904 0.28012 0.55007 0.0
H159 H 0.21507 0.26821 0.53561 0.0
Nd160 Nd 0.67202 0.87677 0.08741 0.0
Nd161 Nd 0.56072 0.83944 0.06316 0.0
C162 C 0.78893 0.90151 0.10968 0.0
C163 C 0.85452 0.89261 0.09524 0.0
C164 C 0.87054 0.85926 0.07287 0.0
C165 C 0.9338 0.85058 0.0645 0.0
C166 C 0.98218 0.87531 0.07718 0.0
C167 C 0.96555 0.90896 0.09782 0.0
C168 C 0.90237 0.91746 0.10692 0.0
C169 C 0.59992 0.87243 0.19764 0.0
C170 C 0.69152 0.79685 0.05956 0.0
C171 C 0.44539 0.81233 0.06668 0.0
C172 C 0.37837 0.82209 0.06573 0.0
C173 C 0.36029 0.85632 0.07744 0.0
C174 C 0.29611 0.86488 0.07699 0.0
C175 C 0.24908 0.83937 0.06445 0.0
C176 C 0.2676 0.80512 0.05264 0.0
C177 C 0.33171 0.7966 0.05317 0.0
C178 C 0.61192 0.84493 0.94516 0.0
C179 C 0.56349 0.92569 0.05735 0.0
O180 O 0.75138 0.90987 0.06101 0.0
O181 O 0.76108 0.88198 0.14877 0.0
O182 O 0.62228 0.90056 0.17779 0.0
O183 O 0.61449 0.84776 0.15869 0.0
O184 O 0.71397 0.82692 0.04913 0.0
O185 O 0.63167 0.79383 0.07447 0.0
O186 O 0.48048 0.82222 0.11853 0.0
O187 O 0.47441 0.81543 1.01319 0.0
O188 O 0.59306 0.81649 0.96714 0.0
O189 O 0.61083 0.86945 0.98943 0.0
O190 O 0.52805 0.8979 0.06419 0.0
O191 O 0.62462 0.92348 0.05592 0.0
H192 H 0.83437 0.83977 0.06308 0.0
H193 H 0.94484 0.82427 0.04986 0.0
H194 H 1.00154 0.92869 0.10743 0.0
H195 H 0.89095 0.94339 0.12402 0.0
H196 H 0.39573 0.87635 0.0871 0.0
H197 H 0.28319 0.89147 0.08611 0.0
H198 H 0.23254 0.78483 0.04413 0.0
H199 H 0.34487 0.77001 0.04423 0.0
Nd200 Nd 0.40207 0.11614 0.99884 0.0
Nd201 Nd 0.51653 0.15212 1.02177 0.0
C202 C 0.28627 0.092 0.96681 0.0
C203 C 0.22042 0.10213 0.97759 0.0
C204 C 0.20634 0.13468 1.00579 0.0
C205 C 0.14342 0.14417 1.01453 0.0
C206 C 0.09343 0.12125 0.99507 0.0
C207 C 0.108 0.08853 0.96747 0.0
C208 C 0.17087 0.07912 0.95875 0.0
C209 C 0.44526 0.12324 0.13106 0.0
C210 C 0.38738 0.19711 1.0203 0.0
C211 C 0.63179 0.17445 0.06276 0.0
C212 C 0.69843 0.16784 0.0488 0.0
C213 C 0.71683 0.13636 1.01917 0.0
C214 C 0.78073 0.12992 1.0091 0.0
C215 C 0.82741 0.15489 0.02814 0.0
C216 C 0.80854 0.18655 0.05712 0.0
C217 C 0.74463 0.19295 0.0672 0.0
C218 C 0.49403 0.14248 0.88777 0.0
C219 C 0.51035 0.06646 1.00413 0.0
O220 O 0.31786 0.11125 0.93007 0.0
O221 O 0.3202 0.08301 1.01762 0.0
O222 O 0.42338 0.09502 0.10158 0.0
O223 O 0.44204 0.14651 0.09146 0.0
O224 O 0.36486 0.16996 0.98659 0.0
O225 O 0.44546 0.19643 0.04771 0.0
O226 O 0.60166 0.15004 0.08882 0.0
O227 O 0.59698 0.18883 1.01823 0.0
O228 O 0.50817 0.17145 0.9192 0.0
O229 O 0.4844 0.11998 0.92849 0.0
O230 O 0.53804 0.09353 0.03659 0.0
O231 O 0.46013 0.0713 0.96667 0.0
H232 H 0.24399 0.15271 1.02099 0.0
H233 H 0.13399 0.16928 0.03718 0.0
H234 H 0.07065 0.07034 0.95183 0.0
H235 H 0.18077 0.05387 0.93691 0.0
H236 H 0.68187 0.11664 1.00444 0.0
H237 H 0.79369 0.10537 0.98637 0.0
H238 H 0.84331 0.20607 0.07345 0.0
H239 H 0.73138 0.21737 0.09034 0.0
Nd240 Nd 0.55641 0.14973 0.52089 0.0
Nd241 Nd 0.66697 0.11121 0.51228 0.0
C242 C 0.44363 0.17433 0.5506 0.0
C243 C 0.37643 0.16372 0.54535 0.0
C244 C 0.35819 0.12954 0.55157 0.0
C245 C 0.29407 0.12022 0.54766 0.0
C246 C 0.24698 0.14484 0.53691 0.0
C247 C 0.26554 0.17903 0.53074 0.0
C248 C 0.32964 0.18834 0.5348 0.0
C249 C 0.58007 0.1401 0.3905 0.0
C250 C 0.55359 0.06437 0.49841 0.0
C251 C 0.77967 0.08338 0.49559 0.0
C252 C 0.84713 0.09286 0.50793 0.0
C253 C 0.86824 0.12676 0.50366 0.0
C254 C 0.93286 0.13482 0.51073 0.0
C255 C 0.9777 0.10913 0.5219 0.0
C256 C 0.9562 0.07544 0.52819 0.0
C257 C 0.89156 0.06739 0.5211 0.0
C258 C 0.62198 0.12004 0.63874 0.0
C259 C 0.68964 0.19214 0.5224 0.0
O260 O 0.48101 0.15845 0.59081 0.0
O261 O 0.47008 0.17972 0.49648 0.0
O262 O 0.56923 0.16947 0.42049 0.0
O263 O 0.58661 0.1172 0.4318 0.0
O264 O 0.52854 0.09116 0.53074 0.0
O265 O 0.60446 0.06942 0.46767 0.0
O266 O 0.74824 0.09995 0.45144 0.0
O267 O 0.74671 0.07852 0.54611 0.0
O268 O 0.63883 0.09091 0.61138 0.0
O269 O 0.62957 0.14314 0.59961 0.0
O270 O 0.71105 0.16282 0.49991 0.0
O271 O 0.63062 0.19457 0.541 0.0
H272 H 0.39345 0.11007 0.55985 0.0
H273 H 0.28132 0.09382 0.5539 0.0
H274 H 0.23047 0.19854 0.52213 0.0
H275 H 0.34273 0.21483 0.52978 0.0
H276 H 0.835 0.1469 0.49347 0.0
H277 H 0.94787 0.161 0.50566 0.0
H278 H 0.98943 0.05524 0.53833 0.0
H279 H 0.87632 0.04113 0.52489 0.0
Nd280 Nd 0.41986 0.87277 0.56438 0.0
Nd281 Nd 0.52764 0.83727 0.53648 0.0
C282 C 0.30499 0.89328 0.59532 0.0
C283 C 0.23824 0.8816 0.58257 0.0
C284 C 0.20593 0.86684 0.63191 0.0
C285 C 0.14248 0.85665 0.62155 0.0
C286 C 0.10961 0.86115 0.56166 0.0
C287 C 0.14187 0.87587 0.51225 0.0
C288 C 0.20544 0.88593 0.52249 0.0
C289 C 0.44673 0.86852 0.43039 0.0
C290 C 0.39899 0.79387 0.54386 0.0
C291 C 0.63713 0.81529 0.49174 0.0
C292 C 0.70642 0.82008 0.50383 0.0
C293 C 0.74207 0.83192 0.45411 0.0
C294 C 0.80744 0.83697 0.46367 0.0
C295 C 0.83899 0.83002 0.52308 0.0
C296 C 0.80347 0.81776 0.57274 0.0
C297 C 0.73781 0.81284 0.56326 0.0
C298 C 0.52019 0.84169 0.67039 0.0
C299 C 0.52687 0.92266 0.56346 0.0
O300 O 0.34124 0.87461 0.63179 0.0
O301 O 0.33474 0.90478 0.54714 0.0
O302 O 0.4307 0.89608 0.46362 0.0
O303 O 0.44652 0.84418 0.46766 0.0
O304 O 0.3912 0.81924 0.58639 0.0
O305 O 0.44791 0.7959 0.50657 0.0
O306 O 0.60597 0.84116 0.46964 0.0
O307 O 0.6058 0.79935 0.53378 0.0
O308 O 0.52851 0.81389 0.63448 0.0
O309 O 0.50848 0.86649 0.6343 0.0
O310 O 0.54941 0.89622 0.5281 0.0
O311 O 0.48106 0.91708 0.60127 0.0
H312 H 0.22959 0.86349 0.67897 0.0
H313 H 0.1187 0.84604 0.66106 0.0
H314 H 0.11784 0.87965 0.46555 0.0
H315 H 0.2286 0.89735 0.48344 0.0
H316 H 0.7192 0.83743 0.40767 0.0
H317 H 0.83347 0.84624 0.42437 0.0
H318 H 0.82623 0.81267 0.61941 0.0
H319 H 0.71169 0.80369 0.6026 0.0
C320 C 0.59392 0.38347 0.05363 0.0
C321 C 0.54744 0.35956 0.02862 0.0
C322 C 0.65847 0.37562 0.05372 0.0
C323 C 0.67939 0.34349 0.02888 0.0
H324 H 0.58028 0.40823 0.07496 0.0
H325 H 0.6922 0.3946 0.07509 0.0
S326 S 0.57736 0.27282 0.95268 0.0
N327 N 0.52716 0.30308 0.97474 0.0
N328 N 0.64853 0.28826 0.97507 0.0
C329 C 0.63357 0.31955 1.00243 0.0
C330 C 0.5677 0.32759 1.00227 0.0
C331 C 0.42514 0.62346 1.00672 0.0
C332 C 0.40019 0.65597 0.99525 0.0
C333 C 0.48883 0.61591 0.99725 0.0
C334 C 0.5304 0.64054 0.97596 0.0
H335 H 0.39496 0.6035 1.02258 0.0
H336 H 0.50549 0.59036 1.006 0.0
S337 S 0.49001 0.73036 0.94339 0.0
N338 N 0.4228 0.71353 0.96411 0.0
N339 N 0.54266 0.69936 0.94647 0.0
C340 C 0.50629 0.67328 0.96476 0.0
C341 C 0.44124 0.68098 0.97435 0.0
C342 C 0.63793 0.65596 0.45405 0.0
C343 C 0.67283 0.65368 0.51363 0.0
C344 C 0.57303 0.64798 0.44803 0.0
C345 C 0.54056 0.63751 0.50141 0.0
H346 H 0.66132 0.66308 0.41132 0.0
H347 H 0.54845 0.64915 0.40076 0.0
S348 S 0.60868 0.63189 0.67007 0.0
N349 N 0.6691 0.64314 0.62833 0.0
N350 N 0.5472 0.62836 0.61719 0.0
C351 C 0.5745 0.63638 0.56183 0.0
C352 C 0.64055 0.64442 0.56789 0.0
C353 C 0.47834 0.38012 0.56143 0.0
C354 C 0.5242 0.35793 0.53547 0.0
C355 C 0.41389 0.37122 0.5572 0.0
C356 C 0.3922 0.33973 0.5267 0.0
H357 H 0.49236 0.40469 0.58532 0.0
H358 H 0.38067 0.38928 0.578 0.0
S359 S 0.49264 0.27252 0.44987 0.0
N360 N 0.54316 0.30296 0.47795 0.0
N361 N 0.42213 0.2863 0.46962 0.0
C362 C 0.43759 0.31701 0.50133 0.0
C363 C 0.50342 0.32608 0.50579 0.0
C364 C 0.09496 0.87742 0.12149 0.0
C365 C 0.05003 0.86594 0.07186 0.0
C366 C 0.15904 0.86891 0.1184 0.0
C367 C 0.18091 0.8484 0.06573 0.0
H368 H 0.08036 0.89274 0.16373 0.0
H369 H 0.1916 0.87802 0.15818 0.0
S370 S 0.08381 0.81346 0.92106 0.0
N371 N 1.0328 0.83423 0.96676 0.0
N372 N 0.15316 0.81791 0.96144 0.0
C373 C 0.13676 0.83691 1.01548 0.0
C374 C 0.07144 0.84573 1.01844 0.0
C375 C 0.98494 0.10809 0.03118 0.0
C376 C 1.02618 0.13097 1.00406 0.0
C377 C 0.92109 0.11609 0.03882 0.0
C378 C 0.89564 0.14733 1.01968 0.0
H379 H 1.00229 0.08383 0.04716 0.0
H380 H 0.8915 0.09774 0.06055 0.0
S381 S 0.98258 0.21543 0.94284 0.0
N382 N 1.0363 0.18581 0.95596 0.0
N383 N 0.91639 0.20084 0.97038 0.0
C384 C 0.93627 0.17046 0.99238 0.0
C385 C 1.0014 0.1623 0.98457 0.0
C386 C 0.13488 0.15479 0.5679 0.0
C387 C 0.17862 0.13506 0.53266 0.0
C388 C 0.07023 0.14618 0.56446 0.0
C389 C 0.04669 0.11746 0.52569 0.0
H390 H 0.15084 0.17691 0.59895 0.0
H391 H 1.0385 0.16197 0.59287 0.0
S392 S 0.14051 0.0591 0.41958 0.0
N393 N 0.19308 0.0866 0.45493 0.0
N394 N 0.07186 0.07043 0.44849 0.0
C395 C 0.08979 0.09775 0.48961 0.0
C396 C 0.15558 0.10653 0.49309 0.0
C397 C 0.93343 0.86854 0.51735 0.0
C398 C 0.90831 0.83695 0.53348 0.0
C399 C 0.99836 0.87595 0.52624 0.0
C400 C 1.04105 0.8521 0.55165 0.0
H401 H 0.90246 0.88794 0.49842 0.0
H402 H 1.01513 0.90084 0.514 0.0
S403 S 1.0005 0.76459 0.59691 0.0
N404 N 0.93191 0.7809 0.57307 0.0
N405 N 0.05396 0.79484 0.58974 0.0
C406 C 1.01679 0.82022 0.56727 0.0
C407 C 0.95052 0.81265 0.55822 0.0
C408 C 1.00166 0.50634 0.95326 0.0
C409 C 1.02517 0.53397 0.99557 0.0
C410 C 1.00667 0.47217 0.97036 0.0
C411 C 1.03463 0.46432 0.03076 0.0
H412 H 0.98008 0.51107 0.90586 0.0
H413 H 0.9919 0.45173 0.93464 0.0
S414 S 0.10029 0.5266 0.16084 0.0
N415 N 0.07478 0.55072 0.10211 0.0
N416 N 0.08464 0.4866 0.1337 0.0
C417 C 0.05665 0.4916 0.07418 0.0
C418 C 0.05196 0.52635 0.05676 0.0
C419 C 0.05977 0.47284 0.47199 0.0
C420 C 1.03018 0.46492 0.52853 0.0
C421 C 0.06323 0.50677 0.45395 0.0
C422 C 1.0374 0.53425 0.49171 0.0
H423 H 0.07881 0.45265 0.44038 0.0
H424 H 0.08706 0.51149 0.41008 0.0
S425 S 0.95564 0.52729 0.6451 0.0
N426 N 0.97546 0.48758 0.62326 0.0
N427 N 0.98165 0.55105 0.58861 0.0
C428 C 1.00776 0.5267 0.54842 0.0
C429 C 1.00461 0.4922 0.56716 0.0
C430 C 0.50191 0.96877 0.99682 0.0
C431 C 0.53852 0.96063 0.05223 0.0
C432 C 0.4948 0.00304 0.98092 0.0
C433 C 0.5244 0.03049 1.01955 0.0
H434 H 0.48156 0.9485 0.9637 0.0
H435 H 0.46644 0.00797 0.93726 0.0
S436 S 0.62352 0.02219 0.17152 0.0
N437 N 0.60326 0.9824 0.14698 0.0
N438 N 0.58976 0.04663 0.1174 0.0
C439 C 0.55996 0.02254 0.07597 0.0
C440 C 0.56684 0.98771 0.09224 0.0
C441 C 0.51199 0.01979 0.56763 0.0
C442 C 0.53907 0.02812 0.50991 0.0
C443 C 0.51116 0.98579 0.586 0.0
C444 C 0.53756 0.95873 0.54756 0.0
H445 H 0.49338 0.03975 0.60006 0.0
H446 H 0.48939 0.98072 0.63086 0.0
S447 S 0.61354 0.96696 0.39107 0.0
N448 N 0.59156 0.00625 0.41323 0.0
N449 N 0.59102 0.94287 0.44866 0.0
C450 C 0.56439 0.96673 0.48952 0.0
C451 C 0.56452 0.00119 0.47034 0.0
C452 C 0.24021 0.24674 0.0691 0.0
C453 C 0.24016 0.2749 0.02973 0.0
C454 C 0.29032 0.22283 0.06894 0.0
C455 C 0.34306 0.22632 0.03043 0.0
H456 H 0.20135 0.24307 0.10015 0.0
H457 H 0.2872 0.20097 0.09839 0.0
S458 S 0.36573 0.29393 0.91615 0.0
N459 N 0.29797 0.30358 0.94872 0.0
N460 N 0.39096 0.25916 0.95043 0.0
C461 C 0.3438 0.25415 0.99117 0.0
C462 C 0.2928 0.27822 0.99035 0.0
C463 C 0.73002 0.74504 0.99524 0.0
C464 C 0.73607 0.76771 0.05096 0.0
C465 C 0.7806 0.72386 0.97636 0.0
C466 C 0.83991 0.72462 1.0119 0.0
H467 H 0.68699 0.74478 0.9643 0.0
H468 H 0.77312 0.70698 0.93278 0.0
S469 S 0.87842 0.77864 0.16385 0.0
N470 N 0.80484 0.78888 0.14297 0.0
N471 N 0.8995 0.74943 0.10771 0.0
C472 C 0.84579 0.74677 0.06857 0.0
C473 C 0.79413 0.76814 0.08791 0.0
C474 C 0.28467 0.72618 0.46071 0.0
C475 C 0.23496 0.72507 0.504 0.0
C476 C 0.33863 0.74727 0.4745 0.0
C477 C 0.34555 0.76833 0.53239 0.0
H478 H 0.28216 0.71032 0.41553 0.0
H479 H 0.37463 0.74742 0.43905 0.0
S480 S 0.22951 0.77474 0.66294 0.0
N481 N 0.19677 0.74694 0.60733 0.0
N482 N 0.29715 0.78628 0.63413 0.0
C483 C 0.29591 0.76749 0.57615 0.0
C484 C 0.24093 0.74615 0.5617 0.0
C485 C 0.84502 0.24221 0.5503 0.0
C486 C 0.83484 0.27079 0.5132 0.0
C487 C 0.79634 0.2178 0.55568 0.0
C488 C 0.73523 0.22137 0.52557 0.0
H489 H 0.89012 0.23906 0.57647 0.0
H490 H 0.80665 0.19575 0.58359 0.0
S491 S 0.68623 0.28901 0.41654 0.0
N492 N 0.75995 0.29913 0.44052 0.0
N493 N 0.6694 0.25401 0.45315 0.0
C494 C 0.72491 0.24929 0.48749 0.0
C495 C 0.77443 0.27368 0.48065 0.0
C496 C 0.05028 0.40628 0.26721 0.0
C497 C 0.07036 0.37542 0.23534 0.0
C498 C 1.01165 0.40656 0.32128 0.0
C499 C 0.9914 0.37601 0.34698 0.0
H500 H 0.06423 0.43066 0.25 0.0
H501 H 0.99803 0.43111 0.34351 0.0
S502 S 1.02931 0.28807 0.28151 0.0
N503 N 0.06561 0.31328 0.23369 0.0
N504 N 0.99402 0.31378 0.33496 0.0
C505 C 1.01093 0.34493 0.31555 0.0
C506 C 0.04998 0.34464 0.26009 0.0
C507 C 0.98647 0.60457 0.20852 0.0
C508 C 0.97916 0.6323 0.16803 0.0
C509 C 1.01883 0.60844 0.27077 0.0
C510 C 0.04533 0.64024 0.29526 0.0
H511 H 0.96641 0.57974 0.19236 0.0
H512 H 1.02127 0.58664 0.30066 0.0
S513 S 0.04414 0.72023 0.20706 0.0
N514 N 1.00477 0.69224 0.15668 0.0
N515 N 0.06505 0.6993 0.27175 0.0
C516 C 1.0401 0.66772 0.25426 0.0
C517 C 1.00722 0.66384 0.19141 0.0
C518 C 1.03772 0.66678 0.75425 0.0
C519 C 1.0282 0.63932 0.79422 0.0
C520 C 0.06984 0.66258 0.69575 0.0
C521 C 0.09453 0.63067 0.67387 0.0
H522 H 1.02096 0.69212 0.76887 0.0
H523 H 0.0756 0.68473 0.66754 0.0
S524 S 0.08518 0.55047 0.76091 0.0
N525 N 0.04778 0.57891 0.80736 0.0
N526 N 0.10774 0.571 0.6983 0.0
C527 C 0.08521 0.60288 0.71312 0.0
C528 C 0.05219 0.60715 0.77272 0.0
C529 C 1.00683 0.33647 0.74995 0.0
C530 C 1.01494 0.36789 0.7218 0.0
C531 C 1.03147 0.33122 0.81358 0.0
C532 C 0.06497 0.35723 0.85269 0.0
H533 H 0.98415 0.31514 0.72142 0.0
H534 H 1.0245 0.30622 0.83196 0.0
S535 S 0.09608 0.44498 0.80265 0.0
N536 N 0.05771 0.42573 0.73835 0.0
N537 N 0.10174 0.41634 0.85823 0.0
C538 C 0.07149 0.38915 0.82569 0.0
C539 C 0.04719 0.3943 0.76042 0.0
C540 C 0.55206 0.84063 0.28842 0.0
C541 C 0.55765 0.87065 0.25442 0.0
C542 C 0.5149 0.83966 0.3438 0.0
C543 C 0.48119 0.8686 0.36767 0.0
H544 H 0.57783 0.8179 0.27312 0.0
H545 H 0.51376 0.8162 0.36897 0.0
S546 S 0.47172 0.9518 0.29021 0.0
N547 N 0.5206 0.92893 0.24538 0.0
N548 N 0.45134 0.92706 0.34777 0.0
C549 C 0.48417 0.89818 0.3321 0.0
C550 C 0.52217 0.89922 0.27622 0.0
C551 C 0.50886 0.15768 0.22068 0.0
C552 C 0.48181 0.12608 0.19628 0.0
C553 C 0.54299 0.16128 0.28162 0.0
C554 C 0.5524 0.13346 0.32156 0.0
H555 H 0.50299 0.18011 0.19276 0.0
H556 H 0.56105 0.18648 0.29831 0.0
S557 S 0.49332 0.0447 0.27989 0.0
N558 N 0.46858 0.06598 0.21679 0.0
N559 N 0.53251 0.07273 0.33048 0.0
C560 C 0.52711 0.10145 0.29697 0.0
C561 C 0.49193 0.0978 0.23487 0.0
C562 C 0.53833 0.16259 0.78463 0.0
C563 C 0.52055 0.13503 0.82129 0.0
C564 C 0.57055 0.15751 0.72633 0.0
C565 C 0.58721 0.12455 0.70123 0.0
H566 H 0.5283 0.18868 0.80181 0.0
H567 H 0.58315 0.17981 0.70104 0.0
S568 S 0.54957 0.04314 0.77559 0.0
N569 N 0.52065 0.07308 0.82578 0.0
N570 N 0.58081 0.06354 0.71705 0.0
C571 C 0.56857 0.09661 0.73643 0.0
C572 C 0.53541 0.1018 0.79588 0.0
C573 C 0.5392 0.87399 0.78255 0.0
C574 C 0.54881 0.84505 0.73946 0.0
C575 C 0.56377 0.87561 0.84839 0.0
C576 C 0.59973 0.84854 0.87341 0.0
H577 H 0.51068 0.89498 0.76604 0.0
H578 H 0.55181 0.89735 0.88059 0.0
S579 S 0.64492 0.76884 0.78011 0.0
N580 N 0.60171 0.78985 0.72713 0.0
N581 N 0.64747 0.79342 0.84836 0.0
C582 C 0.61236 0.82054 0.82988 0.0
C583 C 0.58709 0.81863 0.76382 0.0
loop_
_geom_bond_atom_site_label_1
_geom_bond_atom_site_label_2
_geom_bond_distance
_geom_bond_site_symmetry_2
_ccdc_geom_bond_type
Nd0 C2 2.836 . S
Nd0 O20 2.500 1_554 S
Nd0 O21 2.492 . S
Nd0 O22 2.487 . S
Nd0 O23 2.682 . S
Nd0 O24 2.410 . S
Nd0 O29 2.414 1_554 S
Nd0 O31 2.424 . S
Nd1 C11 2.836 . S
Nd1 O23 2.414 1_656 S
Nd1 O25 2.424 1_655 S
Nd1 O26 2.500 1_556 S
Nd1 O27 2.492 . S
Nd1 O28 2.485 1_655 S
Nd1 O29 2.682 1_655 S
Nd1 O30 2.410 . S
C2 Nd0 2.836 . S
C2 C3 1.498 . S
C2 O20 1.258 1_554 S
C2 O21 1.239 . S
C3 C2 1.498 . S
C3 C4 1.366 1_554 S
C3 C8 1.407 . S
C4 C3 1.366 1_556 S
C4 C5 1.392 . S
C4 H32 0.930 . S
C5 C4 1.392 . S
C5 C6 1.397 1_556 S
C5 H33 0.929 . S
C6 C5 1.397 1_554 S
C6 C7 1.354 . S
C7 C6 1.354 . S
C7 C8 1.384 . S
C7 H34 0.930 . S
C8 C3 1.407 . S
C8 C7 1.384 . S
C8 H35 0.929 . S
C9 O22 1.241 . S
C9 O23 1.273 . S
C10 O24 1.251 1_556 S
C10 O25 1.268 . S
C11 Nd1 2.836 . S
C11 C12 1.498 . S
C11 O26 1.258 1_556 S
C11 O27 1.239 . S
C12 C11 1.498 . S
C12 C13 1.366 1_556 S
C12 C17 1.407 . S
C13 C12 1.366 1_554 S
C13 C14 1.392 . S
C13 H36 0.930 . S
C14 C13 1.392 . S
C14 C15 1.398 . S
C14 H37 0.929 . S
C15 C14 1.398 . S
C15 C16 1.352 1_554 S
C16 C15 1.352 1_556 S
C16 C17 1.384 . S
C16 H38 0.930 . S
C17 C12 1.407 . S
C17 C16 1.384 . S
C17 H39 0.929 . S
C18 O28 1.250 . S
C18 O29 1.273 . S
C19 O30 1.251 1_554 S
C19 O31 1.268 1_655 S
O20 Nd0 2.500 1_556 S
O20 C2 1.258 1_556 S
O21 Nd0 2.492 . S
O21 C2 1.239 . S
O22 Nd0 2.487 . S
O22 C9 1.241 . S
O23 Nd0 2.682 . S
O23 Nd1 2.414 1_454 S
O23 C9 1.273 . S
O24 Nd0 2.410 . S
O24 C10 1.251 1_554 S
O25 Nd1 2.424 1_455 S
O25 C10 1.268 . S
O26 Nd1 2.500 1_554 S
O26 C11 1.258 1_554 S
O27 Nd1 2.492 . S
O27 C11 1.239 . S
O28 Nd1 2.485 1_455 S
O28 C18 1.250 . S
O29 Nd0 2.414 1_556 S
O29 Nd1 2.682 1_455 S
O29 C18 1.273 . S
O30 Nd1 2.410 . S
O30 C19 1.251 1_556 S
O31 Nd0 2.424 . S
O31 C19 1.268 1_455 S
H32 C4 0.930 . S
H33 C5 0.929 . S
H34 C7 0.930 . S
H35 C8 0.929 . S
H36 C13 0.930 . S
H37 C14 0.929 . S
H38 C16 0.930 . S
H39 C17 0.929 . S
Nd40 C42 2.836 1_554 S
Nd40 O60 2.500 1_554 S
Nd40 O61 2.492 . S
Nd40 O62 2.487 . S
Nd40 O63 2.682 . S
Nd40 O64 2.410 . S
Nd40 O69 2.414 1_554 S
Nd40 O71 2.424 . S
Nd41 C51 2.836 1_556 S
Nd41 O63 2.414 1_456 S
Nd41 O65 2.424 1_455 S
Nd41 O66 2.500 1_556 S
Nd41 O67 2.492 . S
Nd41 O68 2.487 1_455 S
Nd41 O69 2.682 1_455 S
Nd41 O70 2.410 . S
C42 Nd40 2.836 1_556 S
C42 C43 1.498 . S
C42 O60 1.258 . S
C42 O61 1.239 1_556 S
C43 C42 1.498 . S
C43 C44 1.366 . S
C43 C48 1.407 1_556 S
C44 C43 1.366 . S
C44 C45 1.392 . S
C44 H72 0.930 . S
C45 C44 1.392 . S
C45 C46 1.398 . S
C45 H73 0.929 . S
C46 C45 1.398 . S
C46 C47 1.352 1_556 S
C47 C46 1.352 1_554 S
C47 C48 1.384 . S
C47 H74 0.930 . S
C48 C43 1.407 1_554 S
C48 C47 1.384 . S
C48 H75 0.929 . S
C49 O62 1.241 . S
C49 O63 1.273 . S
C50 O64 1.251 . S
C50 O65 1.267 1_554 S
C51 Nd41 2.836 1_554 S
C51 C52 1.498 . S
C51 O66 1.258 . S
C51 O67 1.239 1_554 S
C52 C51 1.498 . S
C52 C53 1.366 . S
C52 C57 1.407 1_554 S
C53 C52 1.366 . S
C53 C54 1.392 . S
C53 H76 0.930 . S
C54 C53 1.392 . S
C54 C55 1.398 . S
C54 H77 0.929 . S
C55 C54 1.398 . S
C55 C56 1.352 1_554 S
C56 C55 1.352 1_556 S
C56 C57 1.384 . S
C56 H78 0.930 . S
C57 C52 1.407 1_556 S
C57 C56 1.384 . S
C57 H79 0.929 . S
C58 O68 1.241 . S
C58 O69 1.273 . S
C59 O70 1.244 1_554 S
C59 O71 1.271 1_455 S
O60 Nd40 2.500 1_556 S
O60 C42 1.258 . S
O61 Nd40 2.492 . S
O61 C42 1.239 1_554 S
O62 Nd40 2.487 . S
O62 C49 1.241 . S
O63 Nd40 2.682 . S
O63 Nd41 2.414 1_654 S
O63 C49 1.273 . S
O64 Nd40 2.410 . S
O64 C50 1.251 . S
O65 Nd41 2.424 1_655 S
O65 C50 1.267 1_556 S
O66 Nd41 2.500 1_554 S
O66 C51 1.258 . S
O67 Nd41 2.492 . S
O67 C51 1.239 1_556 S
O68 Nd41 2.487 1_655 S
O68 C58 1.241 . S
O69 Nd40 2.414 1_556 S
O69 Nd41 2.682 1_655 S
O69 C58 1.273 . S
O70 Nd41 2.410 . S
O70 C59 1.244 1_556 S
O71 Nd40 2.424 . S
O71 C59 1.271 1_655 S
H72 C44 0.930 . S
H73 C45 0.929 . S
H74 C47 0.930 . S
H75 C48 0.929 . S
H76 C53 0.930 . S
H77 C54 0.929 . S
H78 C56 0.930 . S
H79 C57 0.929 . S
Nd80 C82 2.836 . S
Nd80 O100 2.500 . S
Nd80 O101 2.492 . S
Nd80 O102 2.487 . S
Nd80 O103 2.682 1_655 S
Nd80 O104 2.410 . S
Nd80 O109 2.414 1_655 S
Nd80 O111 2.424 1_655 S
Nd81 C91 2.836 . S
Nd81 O103 2.414 . S
Nd81 O105 2.424 . S
Nd81 O106 2.500 . S
Nd81 O107 2.492 . S
Nd81 O108 2.487 . S
Nd81 O109 2.682 . S
Nd81 O110 2.410 . S
C82 Nd80 2.836 . S
C82 C83 1.498 . S
C82 O100 1.258 . S
C82 O101 1.239 . S
C83 C82 1.498 . S
C83 C84 1.366 . S
C83 C88 1.407 . S
C84 C83 1.366 . S
C84 C85 1.392 . S
C84 H112 0.930 . S
C85 C84 1.392 . S
C85 C86 1.398 . S
C85 H113 0.929 . S
C86 C85 1.398 . S
C86 C87 1.352 . S
C87 C86 1.352 . S
C87 C88 1.384 . S
C87 H114 0.930 . S
C88 C83 1.407 . S
C88 C87 1.384 . S
C88 H115 0.929 . S
C89 O102 1.241 1_455 S
C89 O103 1.273 . S
C90 O104 1.251 . S
C90 O105 1.268 1_655 S
C91 Nd81 2.836 . S
C91 C92 1.498 . S
C91 O106 1.258 . S
C91 O107 1.239 . S
C92 C91 1.498 . S
C92 C93 1.366 . S
C92 C97 1.407 . S
C93 C92 1.366 . S
C93 C94 1.392 . S
C93 H116 0.930 . S
C94 C93 1.392 . S
C94 C95 1.398 . S
C94 H117 0.929 . S
C95 C94 1.398 . S
C95 C96 1.352 . S
C96 C95 1.352 . S
C96 C97 1.384 . S
C96 H118 0.930 . S
C97 C92 1.407 . S
C97 C96 1.384 . S
C97 H119 0.929 . S
C98 O108 1.241 . S
C98 O109 1.273 . S
C99 O110 1.251 . S
C99 O111 1.268 . S
O100 Nd80 2.500 . S
O100 C82 1.258 . S
O101 Nd80 2.492 . S
O101 C82 1.239 . S
O102 Nd80 2.487 . S
O102 C89 1.241 1_655 S
O103 Nd80 2.682 1_455 S
O103 Nd81 2.414 . S
O103 C89 1.273 . S
O104 Nd80 2.410 . S
O104 C90 1.251 . S
O105 Nd81 2.424 . S
O105 C90 1.268 1_455 S
O106 Nd81 2.500 . S
O106 C91 1.258 . S
O107 Nd81 2.492 . S
O107 C91 1.239 . S
O108 Nd81 2.487 . S
O108 C98 1.241 . S
O109 Nd80 2.414 1_455 S
O109 Nd81 2.682 . S
O109 C98 1.273 . S
O110 Nd81 2.410 . S
O110 C99 1.251 . S
O111 Nd80 2.424 1_455 S
O111 C99 1.268 . S
H112 C84 0.930 . S
H113 C85 0.929 . S
H114 C87 0.930 . S
H115 C88 0.929 . S
H116 C93 0.930 . S
H117 C94 0.929 . S
H118 C96 0.930 . S
H119 C97 0.929 . S
Nd120 C122 2.836 . S
Nd120 O140 2.500 . S
Nd120 O141 2.492 . S
Nd120 O142 2.487 . S
Nd120 O143 2.682 . S
Nd120 O144 2.410 . S
Nd120 O149 2.414 . S
Nd120 O151 2.424 . S
Nd121 C131 2.836 . S
Nd121 O143 2.414 1_455 S
Nd121 O145 2.424 1_455 S
Nd121 O146 2.500 . S
Nd121 O147 2.492 . S
Nd121 O148 2.487 . S
Nd121 O149 2.682 1_455 S
Nd121 O150 2.410 . S
C122 Nd120 2.836 . S
C122 C123 1.498 . S
C122 O140 1.258 . S
C122 O141 1.239 . S
C123 C122 1.498 . S
C123 C124 1.366 . S
C123 C128 1.407 . S
C124 C123 1.366 . S
C124 C125 1.392 . S
C124 H152 0.930 . S
C125 C124 1.392 . S
C125 C126 1.398 . S
C125 H153 0.929 . S
C126 C125 1.398 . S
C126 C127 1.352 . S
C127 C126 1.352 . S
C127 C128 1.384 . S
C127 H154 0.930 . S
C128 C123 1.407 . S
C128 C127 1.384 . S
C128 H155 0.929 . S
C129 O142 1.241 . S
C129 O143 1.273 . S
C130 O144 1.251 . S
C130 O145 1.268 . S
C131 Nd121 2.836 . S
C131 C132 1.498 . S
C131 O146 1.258 . S
C131 O147 1.239 . S
C132 C131 1.498 . S
C132 C133 1.366 . S
C132 C137 1.407 . S
C133 C132 1.366 . S
C133 C134 1.392 . S
C133 H156 0.930 . S
C134 C133 1.392 . S
C134 C135 1.398 . S
C134 H157 0.929 . S
C135 C134 1.398 . S
C135 C136 1.352 . S
C136 C135 1.352 . S
C136 C137 1.384 . S
C136 H158 0.930 . S
C137 C132 1.407 . S
C137 C136 1.384 . S
C137 H159 0.929 . S
C138 O148 1.241 1_655 S
C138 O149 1.273 . S
C139 O150 1.251 . S
C139 O151 1.268 1_455 S
O140 Nd120 2.500 . S
O140 C122 1.258 . S
O141 Nd120 2.492 . S
O141 C122 1.239 . S
O142 Nd120 2.487 . S
O142 C129 1.241 . S
O143 Nd120 2.682 . S
O143 Nd121 2.414 1_655 S
O143 C129 1.273 . S
O144 Nd120 2.410 . S
O144 C130 1.251 . S
O145 Nd121 2.424 1_655 S
O145 C130 1.268 . S
O146 Nd121 2.500 . S
O146 C131 1.258 . S
O147 Nd121 2.492 . S
O147 C131 1.239 . S
O148 Nd121 2.487 . S
O148 C138 1.241 1_455 S
O149 Nd120 2.414 . S
O149 Nd121 2.682 1_655 S
O149 C138 1.273 . S
O150 Nd121 2.410 . S
O150 C139 1.251 . S
O151 Nd120 2.424 . S
O151 C139 1.268 1_655 S
H152 C124 0.930 . S
H153 C125 0.929 . S
H154 C127 0.930 . S
H155 C128 0.929 . S
H156 C133 0.930 . S
H157 C134 0.929 . S
H158 C136 0.930 . S
H159 C137 0.929 . S
Nd160 C162 2.836 . S
Nd160 O180 2.500 1_554 S
Nd160 O181 2.492 . S
Nd160 O182 2.487 . S
Nd160 O183 2.682 . S
Nd160 O184 2.410 . S
Nd160 O189 2.414 1_554 S
Nd160 O191 2.424 . S
Nd161 C171 2.836 . S
Nd161 O183 2.414 1_556 S
Nd161 O185 2.424 . S
Nd161 O186 2.500 1_556 S
Nd161 O187 2.492 . S
Nd161 O188 2.487 . S
Nd161 O189 2.682 . S
Nd161 O190 2.410 . S
C162 Nd160 2.836 . S
C162 C163 1.498 . S
C162 O180 1.258 1_554 S
C162 O181 1.239 . S
C163 C162 1.498 . S
C163 C164 1.366 1_554 S
C163 C168 1.407 . S
C164 C163 1.366 1_556 S
C164 C165 1.392 . S
C164 H192 0.930 . S
C165 C164 1.392 . S
C165 C166 1.397 1_556 S
C165 H193 0.929 . S
C166 C165 1.397 1_554 S
C166 C167 1.354 . S
C167 C166 1.354 . S
C167 C168 1.384 . S
C167 H194 0.930 . S
C168 C163 1.407 . S
C168 C167 1.384 . S
C168 H195 0.929 . S
C169 O182 1.241 . S
C169 O183 1.273 . S
C170 O184 1.251 1_556 S
C170 O185 1.268 . S
C171 Nd161 2.836 . S
C171 C172 1.498 . S
C171 O186 1.258 1_556 S
C171 O187 1.239 . S
C172 C171 1.498 . S
C172 C173 1.366 1_556 S
C172 C177 1.407 . S
C173 C172 1.366 1_554 S
C173 C174 1.392 . S
C173 H196 0.930 . S
C174 C173 1.392 . S
C174 C175 1.398 . S
C174 H197 0.929 . S
C175 C174 1.398 . S
C175 C176 1.352 1_554 S
C176 C175 1.352 1_556 S
C176 C177 1.384 . S
C176 H198 0.930 . S
C177 C172 1.407 . S
C177 C176 1.384 . S
C177 H199 0.929 . S
C178 O188 1.241 . S
C178 O189 1.273 . S
C179 O190 1.251 1_554 S
C179 O191 1.268 . S
O180 Nd160 2.500 1_556 S
O180 C162 1.258 1_556 S
O181 Nd160 2.492 . S
O181 C162 1.239 . S
O182 Nd160 2.487 . S
O182 C169 1.241 . S
O183 Nd160 2.682 . S
O183 Nd161 2.414 1_554 S
O183 C169 1.273 . S
O184 Nd160 2.410 . S
O184 C170 1.251 1_554 S
O185 Nd161 2.424 . S
O185 C170 1.268 . S
O186 Nd161 2.500 1_554 S
O186 C171 1.258 1_554 S
O187 Nd161 2.492 . S
O187 C171 1.239 . S
O188 Nd161 2.487 . S
O188 C178 1.241 . S
O189 Nd160 2.414 1_556 S
O189 Nd161 2.682 . S
O189 C178 1.273 . S
O190 Nd161 2.410 . S
O190 C179 1.251 1_556 S
O191 Nd160 2.424 . S
O191 C179 1.268 . S
H192 C164 0.930 . S
H193 C165 0.929 . S
H194 C167 0.930 . S
H195 C168 0.929 . S
H196 C173 0.930 . S
H197 C174 0.929 . S
H198 C176 0.930 . S
H199 C177 0.929 . S
Nd200 C202 2.836 1_554 S
Nd200 O220 2.500 1_554 S
Nd200 O221 2.492 . S
Nd200 O222 2.487 . S
Nd200 O223 2.682 . S
Nd200 O224 2.410 . S
Nd200 O229 2.414 1_554 S
Nd200 O231 2.424 . S
Nd201 C211 2.836 1_556 S
Nd201 O223 2.414 1_556 S
Nd201 O225 2.424 . S
Nd201 O226 2.500 1_556 S
Nd201 O227 2.492 . S
Nd201 O228 2.487 . S
Nd201 O229 2.682 . S
Nd201 O230 2.410 . S
C202 Nd200 2.836 1_556 S
C202 C203 1.498 . S
C202 O220 1.258 . S
C202 O221 1.239 1_556 S
C203 C202 1.498 . S
C203 C204 1.366 . S
C203 C208 1.407 1_556 S
C204 C203 1.366 . S
C204 C205 1.392 . S
C204 H232 0.930 . S
C205 C204 1.392 . S
C205 C206 1.398 . S
C205 H233 0.929 . S
C206 C205 1.398 . S
C206 C207 1.352 1_556 S
C207 C206 1.352 1_554 S
C207 C208 1.384 . S
C207 H234 0.930 . S
C208 C203 1.407 1_554 S
C208 C207 1.384 . S
C208 H235 0.929 . S
C209 O222 1.241 . S
C209 O223 1.273 . S
C210 O224 1.251 . S
C210 O225 1.267 1_554 S
C211 Nd201 2.836 1_554 S
C211 C212 1.498 . S
C211 O226 1.258 . S
C211 O227 1.239 1_554 S
C212 C211 1.498 . S
C212 C213 1.366 . S
C212 C217 1.407 1_554 S
C213 C212 1.366 . S
C213 C214 1.392 . S
C213 H236 0.930 . S
C214 C213 1.392 . S
C214 C215 1.398 . S
C214 H237 0.929 . S
C215 C214 1.398 . S
C215 C216 1.352 1_554 S
C216 C215 1.352 1_556 S
C216 C217 1.384 . S
C216 H238 0.930 . S
C217 C212 1.407 1_556 S
C217 C216 1.384 . S
C217 H239 0.929 . S
C218 O228 1.241 . S
C218 O229 1.273 . S
C219 O230 1.244 1_554 S
C219 O231 1.271 . S
O220 Nd200 2.500 1_556 S
O220 C202 1.258 . S
O221 Nd200 2.492 . S
O221 C202 1.239 1_554 S
O222 Nd200 2.487 . S
O222 C209 1.241 . S
O223 Nd200 2.682 . S
O223 Nd201 2.414 1_554 S
O223 C209 1.273 . S
O224 Nd200 2.410 . S
O224 C210 1.251 . S
O225 Nd201 2.424 . S
O225 C210 1.267 1_556 S
O226 Nd201 2.500 1_554 S
O226 C211 1.258 . S
O227 Nd201 2.492 . S
O227 C211 1.239 1_556 S
O228 Nd201 2.487 . S
O228 C218 1.241 . S
O229 Nd200 2.414 1_556 S
O229 Nd201 2.682 . S
O229 C218 1.273 . S
O230 Nd201 2.410 . S
O230 C219 1.244 1_556 S
O231 Nd200 2.424 . S
O231 C219 1.271 . S
H232 C204 0.930 . S
H233 C205 0.929 . S
H234 C207 0.930 . S
H235 C208 0.929 . S
H236 C213 0.930 . S
H237 C214 0.929 . S
H238 C216 0.930 . S
H239 C217 0.929 . S
Nd240 C242 2.836 . S
Nd240 O260 2.500 . S
Nd240 O261 2.492 . S
Nd240 O262 2.487 . S
Nd240 O263 2.682 . S
Nd240 O264 2.410 . S
Nd240 O269 2.414 . S
Nd240 O271 2.424 . S
Nd241 C251 2.836 . S
Nd241 O263 2.414 . S
Nd241 O265 2.424 . S
Nd241 O266 2.500 . S
Nd241 O267 2.492 . S
Nd241 O268 2.487 . S
Nd241 O269 2.682 . S
Nd241 O270 2.410 . S
C242 Nd240 2.836 . S
C242 C243 1.498 . S
C242 O260 1.258 . S
C242 O261 1.239 . S
C243 C242 1.498 . S
C243 C244 1.366 . S
C243 C248 1.407 . S
C244 C243 1.366 . S
C244 C245 1.392 . S
C244 H272 0.930 . S
C245 C244 1.392 . S
C245 C246 1.398 . S
C245 H273 0.929 . S
C246 C245 1.398 . S
C246 C247 1.352 . S
C247 C246 1.352 . S
C247 C248 1.384 . S
C247 H274 0.930 . S
C248 C243 1.407 . S
C248 C247 1.384 . S
C248 H275 0.929 . S
C249 O262 1.241 . S
C249 O263 1.273 . S
C250 O264 1.251 . S
C250 O265 1.268 . S
C251 Nd241 2.836 . S
C251 C252 1.498 . S
C251 O266 1.258 . S
C251 O267 1.239 . S
C252 C251 1.498 . S
C252 C253 1.366 . S
C252 C257 1.407 . S
C253 C252 1.366 . S
C253 C254 1.392 . S
C253 H276 0.930 . S
C254 C253 1.392 . S
C254 C255 1.398 . S
C254 H277 0.929 . S
C255 C254 1.398 . S
C255 C256 1.352 . S
C256 C255 1.352 . S
C256 C257 1.384 . S
C256 H278 0.930 . S
C257 C252 1.407 . S
C257 C256 1.384 . S
C257 H279 0.929 . S
C258 O268 1.241 . S
C258 O269 1.273 . S
C259 O270 1.251 . S
C259 O271 1.268 . S
O260 Nd240 2.500 . S
O260 C242 1.258 . S
O261 Nd240 2.492 . S
O261 C242 1.239 . S
O262 Nd240 2.487 . S
O262 C249 1.241 . S
O263 Nd240 2.682 . S
O263 Nd241 2.414 . S
O263 C249 1.273 . S
O264 Nd240 2.410 . S
O264 C250 1.251 . S
O265 Nd241 2.424 . S
O265 C250 1.268 . S
O266 Nd241 2.500 . S
O266 C251 1.258 . S
O267 Nd241 2.492 . S
O267 C251 1.239 . S
O268 Nd241 2.487 . S
O268 C258 1.241 . S
O269 Nd240 2.414 . S
O269 Nd241 2.682 . S
O269 C258 1.273 . S
O270 Nd241 2.410 . S
O270 C259 1.251 . S
O271 Nd240 2.424 . S
O271 C259 1.268 . S
H272 C244 0.930 . S
H273 C245 0.929 . S
H274 C247 0.930 . S
H275 C248 0.929 . S
H276 C253 0.930 . S
H277 C254 0.929 . S
H278 C256 0.930 . S
H279 C257 0.929 . S
Nd280 C282 2.836 . S
Nd280 O300 2.500 . S
Nd280 O301 2.492 . S
Nd280 O302 2.487 . S
Nd280 O303 2.682 . S
Nd280 O304 2.410 . S
Nd280 O309 2.414 . S
Nd280 O311 2.424 . S
Nd281 C291 2.836 . S
Nd281 O303 2.414 . S
Nd281 O305 2.424 . S
Nd281 O306 2.500 . S
Nd281 O307 2.492 . S
Nd281 O308 2.487 . S
Nd281 O309 2.682 . S
Nd281 O310 2.410 . S
C282 Nd280 2.836 . S
C282 C283 1.498 . S
C282 O300 1.258 . S
C282 O301 1.239 . S
C283 C282 1.498 . S
C283 C284 1.366 . S
C283 C288 1.407 . S
C284 C283 1.366 . S
C284 C285 1.392 . S
C284 H312 0.930 . S
C285 C284 1.392 . S
C285 C286 1.398 . S
C285 H313 0.929 . S
C286 C285 1.398 . S
C286 C287 1.352 . S
C287 C286 1.352 . S
C287 C288 1.384 . S
C287 H314 0.930 . S
C288 C283 1.407 . S
C288 C287 1.384 . S
C288 H315 0.929 . S
C289 O302 1.241 . S
C289 O303 1.273 . S
C290 O304 1.251 . S
C290 O305 1.268 . S
C291 Nd281 2.836 . S
C291 C292 1.498 . S
C291 O306 1.258 . S
C291 O307 1.239 . S
C292 C291 1.498 . S
C292 C293 1.366 . S
C292 C297 1.407 . S
C293 C292 1.366 . S
C293 C294 1.392 . S
C293 H316 0.930 . S
C294 C293 1.392 . S
C294 C295 1.398 . S
C294 H317 0.929 . S
C295 C294 1.398 . S
C295 C296 1.352 . S
C296 C295 1.352 . S
C296 C297 1.384 . S
C296 H318 0.930 . S
C297 C292 1.407 . S
C297 C296 1.384 . S
C297 H319 0.929 . S
C298 O308 1.241 . S
C298 O309 1.273 . S
C299 O310 1.251 . S
C299 O311 1.268 . S
O300 Nd280 2.500 . S
O300 C282 1.258 . S
O301 Nd280 2.492 . S
O301 C282 1.239 . S
O302 Nd280 2.487 . S
O302 C289 1.241 . S
O303 Nd280 2.682 . S
O303 Nd281 2.414 . S
O303 C289 1.273 . S
O304 Nd280 2.410 . S
O304 C290 1.251 . S
O305 Nd281 2.424 . S
O305 C290 1.268 . S
O306 Nd281 2.500 . S
O306 C291 1.258 . S
O307 Nd281 2.492 . S
O307 C291 1.239 . S
O308 Nd281 2.487 . S
O308 C298 1.241 . S
O309 Nd280 2.414 . S
O309 Nd281 2.682 . S
O309 C298 1.273 . S
O310 Nd281 2.410 . S
O310 C299 1.251 . S
O311 Nd280 2.424 . S
O311 C299 1.268 . S
H312 C284 0.930 . S
H313 C285 0.929 . S
H314 C287 0.930 . S
H315 C288 0.929 . S
H316 C293 0.930 . S
H317 C294 0.929 . S
H318 C296 0.930 . S
H319 C297 0.929 . S
C320 C321 1.369 1_554 S
C320 C322 1.419 . S
C320 H324 0.930 . S
C321 C320 1.369 1_556 S
C321 C330 1.429 . S
C322 C320 1.419 . S
C322 C323 1.363 . S
C322 H325 0.929 . S
C323 C322 1.363 . S
C323 C329 1.428 1_554 S
H324 C320 0.930 . S
H325 C322 0.929 . S
S326 N327 1.613 . S
S326 N328 1.610 . S
N327 S326 1.613 . S
N327 C330 1.350 . S
N328 S326 1.610 . S
N328 C329 1.351 . S
C329 C323 1.428 1_556 S
C329 N328 1.351 . S
C329 C330 1.434 . S
C330 C321 1.429 . S
C330 N327 1.350 . S
C330 C329 1.434 . S
C331 C332 1.369 . S
C331 C333 1.419 . S
C331 H335 0.930 . S
C332 C331 1.369 . S
C332 C341 1.432 . S
C333 C331 1.419 . S
C333 C334 1.363 1_554 S
C333 H336 0.929 . S
C334 C333 1.363 1_556 S
C334 C340 1.428 . S
H335 C331 0.930 . S
H336 C333 0.929 . S
S337 N338 1.613 . S
S337 N339 1.610 . S
N338 S337 1.613 . S
N338 C341 1.349 1_556 S
N339 S337 1.610 . S
N339 C340 1.351 . S
C340 C334 1.428 . S
C340 N339 1.351 . S
C340 C341 1.431 1_556 S
C341 C332 1.432 . S
C341 N338 1.349 1_554 S
C341 C340 1.431 1_554 S
C342 C343 1.369 . S
C342 C344 1.419 . S
C342 H346 0.930 . S
C343 C342 1.369 . S
C343 C352 1.429 . S
C344 C342 1.419 . S
C344 C345 1.363 . S
C344 H347 0.929 . S
C345 C344 1.363 . S
C345 C351 1.428 . S
H346 C342 0.930 . S
H347 C344 0.929 . S
S348 N349 1.613 . S
S348 N350 1.610 . S
N349 S348 1.613 . S
N349 C352 1.350 . S
N350 S348 1.610 . S
N350 C351 1.351 . S
C351 C345 1.428 . S
C351 N350 1.351 . S
C351 C352 1.434 . S
C352 C343 1.429 . S
C352 N349 1.350 . S
C352 C351 1.434 . S
C353 C354 1.369 . S
C353 C355 1.419 . S
C353 H357 0.930 . S
C354 C353 1.369 . S
C354 C363 1.429 . S
C355 C353 1.419 . S
C355 C356 1.363 . S
C355 H358 0.929 . S
C356 C355 1.363 . S
C356 C362 1.428 . S
H357 C353 0.930 . S
H358 C355 0.929 . S
S359 N360 1.613 . S
S359 N361 1.610 . S
N360 S359 1.613 . S
N360 C363 1.350 . S
N361 S359 1.610 . S
N361 C362 1.351 . S
C362 C356 1.428 . S
C362 N361 1.351 . S
C362 C363 1.434 . S
C363 C354 1.429 . S
C363 N360 1.350 . S
C363 C362 1.434 . S
C364 C365 1.363 1_454 S
C364 C366 1.419 . S
C364 H368 0.930 . S
C365 C364 1.363 1_656 S
C365 C374 1.424 1_655 S
C366 C364 1.419 . S
C366 C367 1.363 . S
C366 H369 0.929 . S
C367 C366 1.363 . S
C367 C373 1.428 1_554 S
H368 C364 0.930 . S
H369 C366 0.929 . S
S370 N371 1.613 1_455 S
S370 N372 1.610 . S
N371 S370 1.613 1_655 S
N371 C374 1.350 1_655 S
N372 S370 1.610 . S
N372 C373 1.351 . S
C373 C367 1.428 1_556 S
C373 N372 1.351 . S
C373 C374 1.434 . S
C374 C365 1.424 1_455 S
C374 N371 1.350 1_455 S
C374 C373 1.434 . S
C375 C376 1.369 1_554 S
C375 C377 1.419 . S
C375 H379 0.930 1_655 S
C376 C375 1.369 1_556 S
C376 C385 1.429 . S
C377 C375 1.419 . S
C377 C378 1.363 . S
C377 H380 0.929 . S
C378 C377 1.363 . S
C378 C384 1.428 1_554 S
H379 C375 0.930 1_455 S
H380 C377 0.929 . S
S381 N382 1.613 . S
S381 N383 1.610 . S
N382 S381 1.613 . S
N382 C385 1.350 . S
N383 S381 1.610 . S
N383 C384 1.351 . S
C384 C378 1.428 1_556 S
C384 N383 1.351 . S
C384 C385 1.434 . S
C385 C376 1.429 . S
C385 N382 1.350 . S
C385 C384 1.434 . S
C386 C387 1.369 . S
C386 C388 1.419 . S
C386 H390 0.930 . S
C387 C386 1.369 . S
C387 C396 1.429 . S
C388 C386 1.419 . S
C388 C389 1.360 1_455 S
C388 H391 0.929 . S
C389 C388 1.360 1_655 S
C389 C395 1.427 1_655 S
H390 C386 0.930 . S
H391 C388 0.929 . S
S392 N393 1.613 . S
S392 N394 1.610 1_455 S
N393 S392 1.613 . S
N393 C396 1.350 . S
N394 S392 1.610 1_655 S
N394 C395 1.351 1_655 S
C395 C389 1.427 1_455 S
C395 N394 1.351 1_455 S
C395 C396 1.434 . S
C396 C387 1.429 . S
C396 N393 1.350 . S
C396 C395 1.434 . S
C397 C398 1.369 . S
C397 C399 1.419 . S
C397 H401 0.930 . S
C398 C397 1.369 . S
C398 C407 1.429 . S
C399 C397 1.419 . S
C399 C400 1.363 1_655 S
C399 H402 0.929 1_655 S
C400 C399 1.363 1_455 S
C400 C406 1.429 1_455 S
H401 C397 0.930 . S
H402 C399 0.929 1_455 S
S403 N404 1.613 . S
S403 N405 1.610 . S
N404 S403 1.613 . S
N404 C407 1.350 . S
N405 S403 1.610 . S
N405 C406 1.351 . S
C406 C400 1.429 1_655 S
C406 N405 1.351 . S
C406 C407 1.434 . S
C407 C398 1.429 . S
C407 N404 1.350 . S
C407 C406 1.434 . S
C408 C409 1.369 1_655 S
C408 C410 1.419 . S
C408 H412 0.930 . S
C409 C408 1.369 1_455 S
C409 C418 1.429 1_554 S
C410 C408 1.419 . S
C410 C411 1.363 . S
C410 H413 0.929 . S
C411 C410 1.363 . S
C411 C417 1.428 1_654 S
H412 C408 0.930 . S
H413 C410 0.929 . S
S414 N415 1.613 . S
S414 N416 1.610 . S
N415 S414 1.613 . S
N415 C418 1.350 . S
N416 S414 1.610 . S
N416 C417 1.351 . S
C417 C411 1.428 1_456 S
C417 N416 1.351 . S
C417 C418 1.434 . S
C418 C409 1.429 1_556 S
C418 N415 1.350 . S
C418 C417 1.434 . S
C419 C420 1.369 . S
C419 C421 1.419 . S
C419 H423 0.930 . S
C420 C419 1.369 . S
C420 C429 1.429 1_455 S
C421 C419 1.419 . S
C421 C422 1.363 1_455 S
C421 H424 0.929 . S
C422 C421 1.363 1_655 S
C422 C428 1.428 . S
H423 C419 0.930 . S
H424 C421 0.929 . S
S425 N426 1.613 . S
S425 N427 1.610 . S
N426 S425 1.613 . S
N426 C429 1.350 . S
N427 S425 1.610 . S
N427 C428 1.351 . S
C428 C422 1.428 . S
C428 N427 1.351 . S
C428 C429 1.434 . S
C429 C420 1.429 1_655 S
C429 N426 1.350 . S
C429 C428 1.434 . S
C430 C431 1.369 . S
C430 C432 1.419 1_565 S
C430 H434 0.930 . S
C431 C430 1.369 . S
C431 C440 1.429 1_554 S
C432 C430 1.419 1_545 S
C432 C433 1.363 . S
C432 H435 0.929 . S
C433 C432 1.363 . S
C433 C439 1.428 1_554 S
H434 C430 0.930 . S
H435 C432 0.929 . S
S436 N437 1.613 . S
S436 N438 1.610 1_565 S
N437 S436 1.613 . S
N437 C440 1.350 . S
N438 S436 1.610 1_545 S
N438 C439 1.351 . S
C439 C433 1.428 1_556 S
C439 N438 1.351 . S
C439 C440 1.434 1_545 S
C440 C431 1.429 1_556 S
C440 N437 1.350 . S
C440 C439 1.434 1_565 S
C441 C442 1.369 . S
C441 C443 1.419 1_545 S
C441 H445 0.930 . S
C442 C441 1.369 . S
C442 C451 1.429 . S
C443 C441 1.419 1_565 S
C443 C444 1.363 . S
C443 H446 0.929 . S
C444 C443 1.363 . S
C444 C450 1.428 . S
H445 C441 0.930 . S
H446 C443 0.929 . S
S447 N448 1.613 . S
S447 N449 1.610 1_545 S
N448 S447 1.613 . S
N448 C451 1.350 . S
N449 S447 1.610 1_565 S
N449 C450 1.351 . S
C450 C444 1.428 . S
C450 N449 1.351 . S
C450 C451 1.434 1_565 S
C451 C442 1.429 . S
C451 N448 1.350 . S
C451 C450 1.434 1_545 S
C452 C453 1.369 1_554 S
C452 C454 1.419 . S
C452 H456 0.930 . S
C453 C452 1.369 1_556 S
C453 C462 1.429 . S
C454 C452 1.419 . S
C454 C455 1.363 1_554 S
C454 H457 0.929 . S
C455 C454 1.363 1_556 S
C455 C461 1.428 . S
H456 C452 0.930 . S
H457 C454 0.929 . S
S458 N459 1.613 . S
S458 N460 1.610 . S
N459 S458 1.613 . S
N459 C462 1.350 . S
N460 S458 1.610 . S
N460 C461 1.351 . S
C461 C455 1.428 . S
C461 N460 1.351 . S
C461 C462 1.434 . S
C462 C453 1.429 . S
C462 N459 1.350 . S
C462 C461 1.434 . S
C463 C464 1.369 . S
C463 C465 1.419 . S
C463 H467 0.930 . S
C464 C463 1.369 . S
C464 C473 1.429 1_556 S
C465 C463 1.419 . S
C465 C466 1.363 . S
C465 H468 0.929 . S
C466 C465 1.363 . S
C466 C472 1.428 1_556 S
H467 C463 0.930 . S
H468 C465 0.929 . S
S469 N470 1.613 . S
S469 N471 1.610 . S
N470 S469 1.613 . S
N470 C473 1.350 . S
N471 S469 1.610 . S
N471 C472 1.351 . S
C472 C466 1.428 1_554 S
C472 N471 1.351 . S
C472 C473 1.434 . S
C473 C464 1.429 1_554 S
C473 N470 1.350 . S
C473 C472 1.434 . S
C474 C475 1.369 . S
C474 C476 1.419 . S
C474 H478 0.930 . S
C475 C474 1.369 . S
C475 C484 1.429 . S
C476 C474 1.419 . S
C476 C477 1.363 . S
C476 H479 0.929 . S
C477 C476 1.363 . S
C477 C483 1.428 . S
H478 C474 0.930 . S
H479 C476 0.929 . S
S480 N481 1.613 . S
S480 N482 1.610 . S
N481 S480 1.613 . S
N481 C484 1.350 . S
N482 S480 1.610 . S
N482 C483 1.351 . S
C483 C477 1.428 . S
C483 N482 1.351 . S
C483 C484 1.434 . S
C484 C475 1.429 . S
C484 N481 1.350 . S
C484 C483 1.434 . S
C485 C486 1.369 . S
C485 C487 1.419 . S
C485 H489 0.930 . S
C486 C485 1.369 . S
C486 C495 1.429 . S
C487 C485 1.419 . S
C487 C488 1.363 . S
C487 H490 0.929 . S
C488 C487 1.363 . S
C488 C494 1.428 . S
H489 C485 0.930 . S
H490 C487 0.929 . S
S491 N492 1.613 . S
S491 N493 1.610 . S
N492 S491 1.613 . S
N492 C495 1.350 . S
N493 S491 1.610 . S
N493 C494 1.351 . S
C494 C488 1.428 . S
C494 N493 1.351 . S
C494 C495 1.434 . S
C495 C486 1.429 . S
C495 N492 1.350 . S
C495 C494 1.434 . S
C496 C497 1.369 . S
C496 C498 1.419 1_455 S
C496 H500 0.930 . S
C497 C496 1.369 . S
C497 C506 1.429 . S
C498 C496 1.419 1_655 S
C498 C499 1.363 . S
C498 H501 0.929 . S
C499 C498 1.363 . S
C499 C505 1.428 . S
H500 C496 0.930 . S
H501 C498 0.929 . S
S502 N503 1.605 1_655 S
S502 N504 1.618 . S
N503 S502 1.605 1_455 S
N503 C506 1.350 . S
N504 S502 1.618 . S
N504 C505 1.351 . S
C505 C499 1.428 . S
C505 N504 1.351 . S
C505 C506 1.434 1_655 S
C506 C497 1.429 . S
C506 N503 1.350 . S
C506 C505 1.434 1_455 S
C507 C508 1.369 . S
C507 C509 1.419 1_655 S
C507 H511 0.930 . S
C508 C507 1.369 . S
C508 C517 1.429 1_655 S
C509 C507 1.419 1_455 S
C509 C510 1.363 . S
C509 H512 0.929 1_455 S
C510 C509 1.363 . S
C510 C516 1.428 . S
H511 C507 0.930 . S
H512 C509 0.929 1_655 S
S513 N514 1.613 . S
S513 N515 1.610 . S
N514 S513 1.613 . S
N514 C517 1.350 . S
N515 S513 1.610 . S
N515 C516 1.351 . S
C516 C510 1.428 . S
C516 N515 1.351 . S
C516 C517 1.434 . S
C517 C508 1.429 1_455 S
C517 N514 1.350 . S
C517 C516 1.434 . S
C518 C519 1.369 1_455 S
C518 C520 1.419 . S
C518 H522 0.930 . S
C519 C518 1.369 1_655 S
C519 C528 1.429 . S
C520 C518 1.419 . S
C520 C521 1.363 . S
C520 H523 0.929 . S
C521 C520 1.363 . S
C521 C527 1.428 1_455 S
H522 C518 0.930 . S
H523 C520 0.929 . S
S524 N525 1.613 . S
S524 N526 1.610 . S
N525 S524 1.613 . S
N525 C528 1.350 . S
N526 S524 1.610 . S
N526 C527 1.351 . S
C527 C521 1.428 1_655 S
C527 N526 1.351 . S
C527 C528 1.434 . S
C528 C519 1.429 . S
C528 N525 1.350 . S
C528 C527 1.434 . S
C529 C530 1.369 . S
C529 C531 1.419 1_655 S
C529 H533 0.930 . S
C530 C529 1.369 . S
C530 C539 1.429 . S
C531 C529 1.419 1_455 S
C531 C532 1.363 . S
C531 H534 0.929 . S
C532 C531 1.363 . S
C532 C538 1.428 . S
H533 C529 0.930 . S
H534 C531 0.929 . S
S535 N536 1.613 . S
S535 N537 1.610 1_655 S
N536 S535 1.613 . S
N536 C539 1.350 . S
N537 S535 1.610 1_455 S
N537 C538 1.351 . S
C538 C532 1.428 . S
C538 N537 1.351 . S
C538 C539 1.434 1_455 S
C539 C530 1.429 . S
C539 N536 1.350 . S
C539 C538 1.434 1_655 S
C540 C541 1.369 . S
C540 C542 1.419 . S
C540 H544 0.930 . S
C541 C540 1.369 . S
C541 C550 1.429 . S
C542 C540 1.419 . S
C542 C543 1.363 . S
C542 H545 0.929 . S
C543 C542 1.363 . S
C543 C549 1.428 . S
H544 C540 0.930 . S
H545 C542 0.929 . S
S546 N547 1.613 . S
S546 N548 1.610 . S
N547 S546 1.613 . S
N547 C550 1.350 . S
N548 S546 1.610 . S
N548 C549 1.351 . S
C549 C543 1.428 . S
C549 N548 1.351 . S
C549 C550 1.434 . S
C550 C541 1.429 . S
C550 N547 1.350 . S
C550 C549 1.434 . S
C551 C552 1.369 . S
C551 C553 1.419 . S
C551 H555 0.930 . S
C552 C551 1.369 . S
C552 C561 1.429 . S
C553 C551 1.419 . S
C553 C554 1.363 . S
C553 H556 0.929 . S
C554 C553 1.363 . S
C554 C560 1.428 . S
H555 C551 0.930 . S
H556 C553 0.929 . S
S557 N558 1.613 . S
S557 N559 1.610 . S
N558 S557 1.613 . S
N558 C561 1.350 . S
N559 S557 1.610 . S
N559 C560 1.351 . S
C560 C554 1.428 . S
C560 N559 1.351 . S
C560 C561 1.434 . S
C561 C552 1.429 . S
C561 N558 1.350 . S
C561 C560 1.434 . S
C562 C563 1.369 . S
C562 C564 1.419 . S
C562 H566 0.930 . S
C563 C562 1.369 . S
C563 C572 1.429 . S
C564 C562 1.419 . S
C564 C565 1.363 . S
C564 H567 0.929 . S
C565 C564 1.363 . S
C565 C571 1.428 . S
H566 C562 0.930 . S
H567 C564 0.929 . S
S568 N569 1.613 . S
S568 N570 1.610 . S
N569 S568 1.613 . S
N569 C572 1.350 . S
N570 S568 1.610 . S
N570 C571 1.351 . S
C571 C565 1.428 . S
C571 N570 1.351 . S
C571 C572 1.434 . S
C572 C563 1.429 . S
C572 N569 1.350 . S
C572 C571 1.434 . S
C573 C574 1.369 . S
C573 C575 1.419 . S
C573 H577 0.930 . S
C574 C573 1.369 . S
C574 C583 1.429 . S
C575 C573 1.419 . S
C575 C576 1.363 . S
C575 H578 0.929 . S
C576 C575 1.363 . S
C576 C582 1.428 . S
H577 C573 0.930 . S
H578 C575 0.929 . S
S579 N580 1.613 . S
S579 N581 1.610 . S
N580 S579 1.613 . S
N580 C583 1.350 . S
N581 S579 1.610 . S
N581 C582 1.351 . S
C582 C576 1.428 . S
C582 N581 1.351 . S
C582 C583 1.434 . S
C583 C574 1.429 . S
C583 N580 1.350 . S
C583 C582 1.434 . S
C321 C6 1.400 1_556 S
C323 C15 1.398 . S
C332 C55 1.479 . S
C334 C46 1.487 . S
C343 C86 1.412 . S
C345 C95 1.410 . S
C354 C126 1.413 . S
C356 C135 1.409 . S
C365 C166 1.411 1_556 S
C367 C175 1.398 . S
C376 C206 1.487 1_655 S
C378 C215 1.481 . S
C387 C246 1.414 . S
C389 C255 1.412 . S
C398 C295 1.409 . S
C400 C286 1.412 . S
C409 C59 1.891 . S
C411 C19 1.870 . S
C420 C139 1.875 . S
C422 C90 1.878 . S
C431 C179 1.866 . S
C433 C219 1.895 . S
C442 C250 1.875 . S
C444 C299 1.877 . S
C453 C10 1.892 . S
C455 C210 1.903 1_556 S
C464 C170 1.890 . S
C466 C50 1.900 1_556 S
C475 C99 1.898 . S
C477 C290 1.894 . S
C486 C130 1.893 . S
C488 C259 1.898 . S
C497 C9 1.848 . S
C499 C129 1.839 . S
C508 C49 1.760 . S
C510 C89 1.540 . S
C519 C58 1.670 . S
C521 C98 1.947 . S
C530 C138 1.605 . S
C532 C18 1.606 . S
C541 C169 1.846 . S
C543 C289 1.836 . S
C552 C209 1.759 . S
C554 C249 1.534 . S
C563 C218 1.671 . S
C565 C258 1.947 . S
C574 C298 1.606 . S
C576 C178 1.602 . S
