# Generated by pormake.
# Topology oof, (8)-cn, num edge types: 1
# Building blocks:
#     Node 0, Type 0, BuildingBlock: LIZSOE_clean_sbu_0, # of connection points: 8
#     Node 1, Type 0, BuildingBlock: LIZSOE_clean_sbu_0, # of connection points: 8
#     Node 2, Type 0, BuildingBlock: LIZSOE_clean_sbu_0, # of connection points: 8
#     Node 3, Type 0, BuildingBlock: LIZSOE_clean_sbu_0, # of connection points: 8
#     Edge 4, Type (0, 0), BuildingBlock: EZIPEK_clean_linker_0, # of connection points: 2
#     Edge 5, Type (0, 0), BuildingBlock: EZIPEK_clean_linker_0, # of connection points: 2
#     Edge 6, Type (0, 0), BuildingBlock: EZIPEK_clean_linker_0, # of connection points: 2
#     Edge 7, Type (0, 0), BuildingBlock: EZIPEK_clean_linker_0, # of connection points: 2
#     Edge 8, Type (0, 0), BuildingBlock: EZIPEK_clean_linker_0, # of connection points: 2
#     Edge 9, Type (0, 0), BuildingBlock: EZIPEK_clean_linker_0, # of connection points: 2
#     Edge 10, Type (0, 0), BuildingBlock: EZIPEK_clean_linker_0, # of connection points: 2
#     Edge 11, Type (0, 0), BuildingBlock: EZIPEK_clean_linker_0, # of connection points: 2
#     Edge 12, Type (0, 0), BuildingBlock: EZIPEK_clean_linker_0, # of connection points: 2
#     Edge 13, Type (0, 0), BuildingBlock: EZIPEK_clean_linker_0, # of connection points: 2
#     Edge 14, Type (0, 0), BuildingBlock: EZIPEK_clean_linker_0, # of connection points: 2
#     Edge 15, Type (0, 0), BuildingBlock: EZIPEK_clean_linker_0, # of connection points: 2
#     Edge 16, Type (0, 0), BuildingBlock: EZIPEK_clean_linker_0, # of connection points: 2
#     Edge 17, Type (0, 0), BuildingBlock: EZIPEK_clean_linker_0, # of connection points: 2
#     Edge 18, Type (0, 0), BuildingBlock: EZIPEK_clean_linker_0, # of connection points: 2
#     Edge 19, Type (0, 0), BuildingBlock: EZIPEK_clean_linker_0, # of connection points: 2
# Relax obj value: 0.123
# Max RMSD: 0.218
# Mean RMSD: 0.215
data_MOF--net-oof--node1-LIZSOE_clean_sbu_0--edge1-EZIPEK_clean_linker_0
_symmetry_space_group_name_H-M    P1
_symmetry_Int_Tables_number       1
_symmetry_cell_setting            triclinic
loop_
_symmetry_equiv_pos_as_xyz
'x, y, z'
_cell_length_a     11.396003
_cell_length_b     30.721405
_cell_length_c     18.433363
_cell_angle_alpha  88.930204
_cell_angle_beta   116.99497
_cell_angle_gamma 90.425092
loop_
_atom_site_label
_atom_site_type_symbol
_atom_site_fract_x
_atom_site_fract_y
_atom_site_fract_z
_atom_type_partial_charge
Co0 Co 0.04285 0.2111 0.12087 0.0
N1 N 0.10456 0.22412 0.04924 0.0
C2 C 1.02109 0.24866 0.98594 0.0
N3 N 0.1448 0.21361 0.94392 0.0
C4 C 0.18306 0.20419 1.02315 0.0
C5 C 0.04445 0.24202 0.92109 0.0
Co6 Co 1.00133 0.13982 0.43116 0.0
N7 N 0.96374 0.15794 0.51063 0.0
N8 N 1.00251 0.17498 0.63544 0.0
C9 C 0.87399 0.18212 0.5867 0.0
C10 C 0.84987 0.17124 0.50911 0.0
C11 C 0.05419 0.1597 0.589 0.0
Co12 Co 1.01518 0.16098 0.26848 0.0
C13 C 0.96873 0.0901 0.38386 0.0
H14 H 0.75561 0.17233 0.45573 0.0
O15 O 0.9695 0.20492 0.17874 0.0
O16 O 0.07098 0.21259 0.34767 0.0
O17 O 0.20807 0.15667 0.29767 0.0
O18 O 0.97885 0.11329 0.1827 0.0
O19 O 1.02051 0.15188 0.0909 0.0
O20 O 0.1422 0.17854 0.46636 0.0
O21 O 0.04306 0.11498 0.3595 0.0
O22 O 0.8792 0.18395 0.36308 0.0
O23 O 0.21211 0.1992 0.20052 0.0
O24 O 0.06266 0.26496 0.15874 0.0
O25 O 0.82443 0.16354 0.24024 0.0
O26 O 0.86817 0.10546 0.38973 0.0
C27 C 0.27072 0.17679 0.265 0.0
C28 C 0.19605 0.14639 0.62209 0.0
H29 H 0.21341 0.12717 0.57832 0.0
H30 H 0.25885 0.17587 0.6363 0.0
H31 H 0.22725 0.12739 0.67965 0.0
C32 C 0.14031 0.21217 0.42559 0.0
C33 C 0.99448 0.11585 0.11669 0.0
H34 H 0.93989 0.26691 0.98477 0.0
H35 H 0.3694 0.19995 0.12834 0.0
H36 H 0.35913 0.16848 0.04411 0.0
H37 H 0.27609 0.15027 0.10306 0.0
C38 C 0.30421 0.17903 0.07738 0.0
C39 C 0.96579 0.24741 0.16724 0.0
C40 C 0.7903 0.1776 0.2917 0.0
H41 H 0.98653 0.25482 0.85988 0.0
H42 H 0.80341 0.19361 0.6062 0.0
Co43 Co 0.07711 0.91682 0.62949 0.0
N44 N 0.13415 0.8824 0.56921 0.0
C45 C 0.16595 0.83963 0.58372 0.0
N46 N 0.10119 0.85026 0.4533 0.0
C47 C 0.10023 0.88803 0.48955 0.0
C48 C 0.14457 0.81996 0.51303 0.0
Co49 Co 0.98184 0.88269 0.94241 0.0
N50 N 0.88908 0.879 1.00168 0.0
N51 N 0.87292 0.86092 0.11472 0.0
C52 C 0.76151 0.84842 0.05039 0.0
C53 C 0.77089 0.86007 0.98089 0.0
C54 C 0.94764 0.87999 0.08334 0.0
Co55 Co 0.03622 0.91644 0.78951 0.0
C56 C 0.07648 0.83939 0.91269 0.0
H57 H 0.70192 0.85081 0.92006 0.0
O58 O 1.02166 0.95283 0.68598 0.0
O59 O 0.05906 0.97153 0.85887 0.0
O60 O 0.23378 0.91387 0.82873 0.0
O61 O 0.9856 0.85848 0.72477 0.0
O62 O 0.93482 0.8816 0.59935 0.0
O63 O 0.98526 0.94344 0.94565 0.0
O64 O 0.07316 0.88076 0.89156 0.0
O65 O 0.82515 0.88406 0.85064 0.0
O66 O 0.18536 0.88017 0.71932 0.0
O67 O 0.20467 0.95225 0.66097 0.0
O68 O 0.8369 0.92163 0.75069 0.0
O69 O 0.98842 0.82607 0.93434 0.0
C70 C 0.27376 0.89422 0.78466 0.0
C71 C 0.08654 0.89533 0.13209 0.0
H72 H 0.10499 0.924 0.10164 0.0
H73 H 0.10626 0.90391 0.19481 0.0
H74 H 0.15575 0.86938 0.1349 0.0
C75 C 1.02267 0.97564 0.91647 0.0
C76 C 0.92288 0.85392 0.64669 0.0
H77 H 0.18658 0.8219 0.63907 0.0
H78 H 0.94872 0.93498 0.43284 0.0
H79 H 0.05801 0.93099 0.38665 0.0
H80 H 0.11366 0.95692 0.48377 0.0
C81 C 0.05243 0.93033 0.44522 0.0
C82 C 0.10112 0.97164 0.65781 0.0
C83 C 0.76982 0.90222 0.78182 0.0
H84 H 0.14811 0.78542 0.50537 0.0
H85 H 0.68359 0.82942 0.05374 0.0
Co86 Co 0.5558 0.70117 0.12213 0.0
N87 N 0.60095 0.70429 0.03863 0.0
C88 C 0.50554 0.69561 0.96345 0.0
N89 N 0.68983 0.69982 0.95379 0.0
C90 C 0.71267 0.70817 0.03044 0.0
C91 C 0.55995 0.69246 0.91137 0.0
Co92 Co 0.60077 0.62162 0.46417 0.0
N93 N 0.61559 0.63197 0.568 0.0
N94 N 0.68847 0.64738 0.6993 0.0
C95 C 0.55644 0.6456 0.66465 0.0
C96 C 0.51189 0.63589 0.58417 0.0
C97 C 0.72298 0.63878 0.64047 0.0
Co98 Co 0.55817 0.65549 0.28497 0.0
C99 C 0.65342 0.58763 0.44534 0.0
H100 H 0.40975 0.6327 0.54007 0.0
O101 O 0.50059 0.70225 0.19549 0.0
O102 O 0.62221 0.70757 0.35868 0.0
O103 O 0.74212 0.64863 0.30161 0.0
O104 O 0.49923 0.60656 0.19964 0.0
O105 O 0.50501 0.64295 0.0948 0.0
O106 O 0.67059 0.6765 0.47519 0.0
O107 O 0.59162 0.60744 0.37193 0.0
O108 O 0.42233 0.64406 0.40968 0.0
O109 O 0.72604 0.6818 0.19058 0.0
O110 O 0.61226 0.75354 0.15632 0.0
O111 O 0.37953 0.66081 0.27929 0.0
O112 O 0.76607 0.60154 0.50034 0.0
C113 C 0.79273 0.66205 0.25694 0.0
C114 C 0.86395 0.63714 0.65549 0.0
H115 H 0.87631 0.65463 0.60682 0.0
H116 H 0.93149 0.65175 0.7145 0.0
H117 H 0.89367 0.60272 0.65708 0.0
C118 C 0.67326 0.70922 0.43535 0.0
C119 C 0.49021 0.60765 0.12676 0.0
H120 H 0.40384 0.68925 0.94877 0.0
H121 H 0.90211 0.73791 0.06956 0.0
H122 H 0.90026 0.69142 0.12804 0.0
H123 H 0.834 0.74225 0.14105 0.0
C124 C 0.8445 0.72095 0.09642 0.0
C125 C 0.50349 0.73509 0.14769 0.0
C126 C 0.34342 0.65546 0.33577 0.0
H127 H 0.50978 0.68305 0.84816 0.0
H128 H 0.49672 0.6522 0.69512 0.0
Co129 Co 0.47158 0.44526 0.59847 0.0
N130 N 0.47637 0.43039 0.50196 0.0
C131 C 0.58957 0.42499 0.49614 0.0
N132 N 0.42966 0.41121 0.37577 0.0
C133 C 0.37969 0.42211 0.42645 0.0
C134 C 0.56104 0.41291 0.41878 0.0
Co135 Co 0.43257 0.37767 0.91339 0.0
N136 N 0.31582 0.37046 0.95481 0.0
N137 N 0.25 0.37373 0.05074 0.0
C138 C 0.14747 0.35958 0.98311 0.0
C139 C 0.18904 0.35703 0.92395 0.0
C140 C 0.35049 0.37946 0.03243 0.0
Co141 Co 0.496 0.41971 0.77757 0.0
C142 C 0.55448 0.33861 0.89874 0.0
H143 H 0.13052 0.34547 0.86321 0.0
O144 O 0.46763 0.4635 0.68465 0.0
O145 O 0.53883 0.46991 0.85766 0.0
O146 O 0.68116 0.41225 0.79228 0.0
O147 O 0.43953 0.3646 0.71032 0.0
O148 O 0.39839 0.39104 0.591 0.0
O149 O 0.42015 0.44025 0.9168 0.0
O150 O 0.54859 0.3803 0.87871 0.0
O151 O 0.29154 0.37075 0.81008 0.0
O152 O 0.64232 0.42265 0.6613 0.0
O153 O 0.30539 0.46531 0.55128 0.0
O154 O 0.30711 0.43012 0.75141 0.0
O155 O 0.45937 0.32265 0.91089 0.0
C156 C 0.7183 0.41275 0.73567 0.0
C157 C 0.4871 0.39261 0.09169 0.0
H158 H 0.52077 0.3727 0.14849 0.0
H159 H 0.55632 0.38848 0.06514 0.0
H160 H 0.48634 0.42714 0.10793 0.0
C161 C 0.4842 0.47231 0.90629 0.0
C162 C 0.39278 0.36018 0.63402 0.0
H163 H 0.6876 0.42998 0.5447 0.0
H164 H 0.17502 0.41076 0.34018 0.0
H165 H 0.2067 0.46026 0.39624 0.0
H166 H 0.2098 0.40873 0.4453 0.0
C167 C 0.23457 0.42544 0.40051 0.0
C168 C 0.41251 0.48095 0.60899 0.0
C169 C 0.23623 0.40211 0.76323 0.0
H170 H 0.63061 0.40679 0.39515 0.0
H171 H 0.05094 0.35166 0.97741 0.0
C172 C 0.20511 0.22379 0.83641 0.0
C173 C 0.17883 0.19413 0.88628 0.0
C174 C 0.06755 0.14578 0.77203 0.0
C175 C 0.07163 0.17973 0.72091 0.0
N176 N 0.17965 0.24353 0.70261 0.0
N177 N 0.13245 0.11987 0.90939 0.0
C178 C 0.15371 0.21608 0.75268 0.0
C179 C 0.1276 0.15238 0.85695 0.0
N180 N 0.25862 0.26287 0.86742 0.0
N181 N 1.00177 0.10824 0.7384 0.0
H182 H 0.16506 0.12438 0.97106 0.0
H183 H 0.11633 0.0874 0.89292 0.0
H184 H 0.96027 0.10253 0.67603 0.0
H185 H 0.98575 0.0831 0.77126 0.0
H186 H 0.24998 0.28968 0.83011 0.0
H187 H 0.29972 0.26861 0.92988 0.0
H188 H 0.2529 0.26725 0.7243 0.0
H189 H 0.1333 0.24085 0.63939 0.0
C190 C 0.89755 0.85416 0.32429 0.0
C191 C 0.03146 0.84188 0.3677 0.0
C192 C 0.03092 0.82343 0.23998 0.0
C193 C 0.91425 0.84824 0.19811 0.0
N194 N 0.73481 0.88821 0.20091 0.0
N195 N 0.22654 0.81265 0.36754 0.0
C196 C 0.84489 0.8631 0.23992 0.0
C197 C 0.09795 0.82491 0.32592 0.0
N198 N 0.8223 0.85743 0.36413 0.0
N199 N 0.07755 0.79927 0.19727 0.0
H200 H 0.27998 0.81452 0.43065 0.0
H201 H 0.28145 0.80297 0.33847 0.0
H202 H 0.02954 0.79829 0.13385 0.0
H203 H 0.15551 0.77736 0.22467 0.0
H204 H 0.72125 0.86339 0.33416 0.0
H205 H 0.85934 0.84952 0.42595 0.0
H206 H 0.68927 0.90348 0.2315 0.0
H207 H 0.69547 0.89668 0.13935 0.0
C208 C 0.81233 0.6474 0.91895 0.0
C209 C 0.78103 0.69143 0.92252 0.0
C210 C 0.77992 0.70734 0.7931 0.0
C211 C 0.76989 0.66221 0.77975 0.0
N212 N 0.82458 0.58984 0.83345 0.0
N213 N 0.77173 0.76508 0.87886 0.0
C214 C 0.80591 0.63237 0.84515 0.0
C215 C 0.78426 0.72227 0.86626 0.0
N216 N 0.83184 0.61993 0.98237 0.0
N217 N 0.77589 0.73511 0.73348 0.0
H218 H 0.77216 0.77503 0.93279 0.0
H219 H 0.76196 0.78998 0.83765 0.0
H220 H 0.76769 0.72377 0.67839 0.0
H221 H 0.79075 0.76848 0.74082 0.0
H222 H 0.84904 0.58668 0.98333 0.0
H223 H 0.83337 0.63136 0.03569 0.0
H224 H 0.84883 0.56533 0.8776 0.0
H225 H 0.82188 0.57995 0.77888 0.0
C226 C 0.26782 0.42694 0.15017 0.0
C227 C 0.25436 0.38301 0.12708 0.0
C228 C 0.31893 0.35952 0.26631 0.0
C229 C 0.35893 0.40245 0.29116 0.0
N230 N 0.38382 0.47702 0.25929 0.0
N231 N 0.28634 0.30698 0.16357 0.0
C232 C 0.33491 0.4365 0.23369 0.0
C233 C 0.28181 0.34896 0.18481 0.0
N234 N 0.22313 0.45898 0.09163 0.0
N235 N 0.31822 0.32895 0.32057 0.0
H236 H 0.26192 0.29829 0.10399 0.0
H237 H 0.32299 0.28161 0.20633 0.0
H238 H 0.35044 0.33554 0.38203 0.0
H239 H 0.273 0.29879 0.3019 0.0
H240 H 0.2232 0.49187 0.10448 0.0
H241 H 0.17567 0.45185 0.0297 0.0
H242 H 0.38054 0.50233 0.21998 0.0
H243 H 0.43805 0.48391 0.32083 0.0
C244 C 0.60445 0.21279 0.30455 0.0
C245 C 0.65124 0.17638 0.27893 0.0
C246 C 0.45725 0.13445 0.2657 0.0
C247 C 0.41408 0.17079 0.29338 0.0
N248 N 0.46536 0.23851 0.36267 0.0
N249 N 0.62616 0.10035 0.24087 0.0
C250 C 0.49426 0.20802 0.32039 0.0
C251 C 0.57866 0.13653 0.26086 0.0
N252 N 0.66233 0.25252 0.3104 0.0
N253 N 0.37821 0.09865 0.24052 0.0
H254 H 0.70869 0.1003 0.23075 0.0
H255 H 0.58722 0.06931 0.23765 0.0
H256 H 0.29577 0.09523 0.2505 0.0
H257 H 0.39076 0.07341 0.20782 0.0
H258 H 0.62572 0.28108 0.32215 0.0
H259 H 0.73794 0.25753 0.29413 0.0
H260 H 0.52698 0.26461 0.3913 0.0
H261 H 0.3858 0.23473 0.37578 0.0
C262 C 0.55752 0.8649 0.74135 0.0
C263 C 0.62393 0.90497 0.75021 0.0
C264 C 0.47336 0.93841 0.79613 0.0
C265 C 0.41012 0.89745 0.79074 0.0
N266 N 0.41488 0.81986 0.77673 0.0
N267 N 0.61687 0.98207 0.75808 0.0
C268 C 0.45813 0.86025 0.76765 0.0
C269 C 0.57304 0.9424 0.76937 0.0
N270 N 0.59066 0.83126 0.70706 0.0
N271 N 0.44262 0.97317 0.82939 0.0
H272 H 0.68304 0.9848 0.73352 0.0
H273 H 0.5762 1.01147 0.76273 0.0
H274 H 0.37367 0.97193 0.85164 0.0
H275 H 0.49486 1.00231 0.84243 0.0
H276 H 0.53865 0.8021 0.69065 0.0
H277 H 0.66507 0.83449 0.6892 0.0
H278 H 0.45449 0.79097 0.76877 0.0
H279 H 0.34761 0.81524 0.80014 0.0
C280 C 1.02257 0.6886 0.33663 0.0
C281 C 0.93509 0.65748 0.28359 0.0
C282 C 0.10992 0.62943 0.2548 0.0
C283 C 0.20118 0.6582 0.31362 0.0
N284 N 0.24742 0.71249 0.41613 0.0
N285 N 0.895 0.595 0.19911 0.0
C286 C 0.15841 0.6868 0.35652 0.0
C287 C 0.97897 0.62684 0.24495 0.0
N288 N 0.97427 0.7216 0.36404 0.0
N289 N 0.14671 0.60495 0.20726 0.0
H290 H 0.79706 0.59345 0.18828 0.0
H291 H 0.92406 0.56842 0.1769 0.0
H292 H 0.24256 0.60282 0.2148 0.0
H293 H 0.0801 0.58836 0.15627 0.0
H294 H 0.02951 0.74863 0.39296 0.0
H295 H 0.87593 0.72385 0.35232 0.0
H296 H 0.22587 0.7285 0.45787 0.0
H297 H 0.34487 0.7162 0.42662 0.0
C298 C 0.88341 0.37349 0.70837 0.0
C299 C 0.85669 0.40554 0.75351 0.0
C300 C 0.05983 0.44352 0.77714 0.0
C301 C 0.09501 0.40889 0.74088 0.0
N302 N 0.04419 0.33887 0.67669 0.0
N303 N 0.93234 0.4661 0.84496 0.0
C304 C 1.00696 0.37348 0.707 0.0
C305 C 0.94944 0.43881 0.79281 0.0
N306 N 0.78941 0.34331 0.66597 0.0
N307 N 0.12894 0.48156 0.79431 0.0
H308 H 0.85291 0.46377 0.85823 0.0
H309 H 1.00379 0.48815 0.88142 0.0
H310 H 0.20289 0.48758 0.77737 0.0
H311 H 0.10105 0.50918 0.81463 0.0
H312 H 0.79467 0.32291 0.62306 0.0
H313 H 0.70222 0.34015 0.67098 0.0
H314 H 0.99205 0.30976 0.66026 0.0
H315 H 0.13201 0.33839 0.67212 0.0
C316 C 0.19165 0.32398 0.52703 0.0
C317 C 0.32367 0.31992 0.58946 0.0
C318 C 0.3389 0.24796 0.53723 0.0
C319 C 0.20675 0.25193 0.47425 0.0
N320 N 1.01153 0.2962 0.40419 0.0
N321 N 0.51452 0.27512 0.66347 0.0
C322 C 0.13435 0.29068 0.46776 0.0
C323 C 0.39464 0.28095 0.59739 0.0
N324 N 0.11863 0.3591 0.52742 0.0
N325 N 0.41391 0.21355 0.53647 0.0
H326 H 0.55748 0.29851 0.70815 0.0
H327 H 0.5665 0.24592 0.67833 0.0
H328 H 0.37872 0.18979 0.49186 0.0
H329 H 0.51431 0.21048 0.5747 0.0
H330 H 1.01799 0.36255 0.49044 0.0
H331 H 0.15661 0.38368 0.57029 0.0
H332 H 0.96016 0.3255 0.38923 0.0
H333 H 0.96248 0.27235 0.36197 0.0
C334 C 0.77553 0.33856 1.02437 0.0
C335 C 0.68112 0.31616 0.95595 0.0
C336 C 0.74659 0.24719 0.03631 0.0
C337 C 0.84046 0.26973 0.10556 0.0
N338 N 0.91494 0.33853 0.17069 0.0
N339 N 0.6038 0.248 0.89005 0.0
C340 C 0.84426 0.31608 0.10084 0.0
C341 C 0.67644 0.26997 0.96023 0.0
N342 N 0.80774 0.38039 1.01488 0.0
N343 N 0.71581 0.20497 0.04421 0.0
H344 H 0.55233 0.26427 0.8342 0.0
H345 H 0.60536 0.21429 0.88559 0.0
H346 H 0.75104 0.18898 0.10015 0.0
H347 H 0.64056 0.1879 0.99799 0.0
H348 H 0.88402 0.39743 0.06059 0.0
H349 H 0.77128 0.39579 0.95801 0.0
H350 H 0.91348 0.37234 0.17374 0.0
H351 H 0.96422 0.32274 0.22726 0.0
C352 C 0.87121 0.74484 0.54533 0.0
C353 C 0.73925 0.74879 0.48336 0.0
C354 C 0.7214 0.81901 0.53992 0.0
C355 C 0.85127 0.81372 0.60466 0.0
N356 N 0.04054 0.76763 0.67662 0.0
N357 N 0.54823 0.79375 0.41131 0.0
C358 C 0.92318 0.77538 0.6097 0.0
C359 C 0.66662 0.78699 0.47791 0.0
N360 N 0.95034 0.71351 0.53892 0.0
N361 N 0.64898 0.85438 0.53971 0.0
H362 H 0.50317 0.77062 0.36638 0.0
H363 H 0.50065 0.82374 0.39642 0.0
H364 H 0.68606 0.87814 0.58432 0.0
H365 H 0.54947 0.85859 0.50019 0.0
H366 H 0.0516 0.71193 0.57594 0.0
H367 H 0.91621 0.69131 0.49153 0.0
H368 H 0.09028 0.73802 0.68831 0.0
H369 H 0.08303 0.7895 0.72406 0.0
C370 C 0.2752 0.74219 1.02751 0.0
C371 C 0.3814 0.76143 0.09485 0.0
C372 C 0.30836 0.83395 0.02938 0.0
C373 C 0.20323 0.81459 0.96051 0.0
N374 N 0.1044 0.74952 0.88771 0.0
N375 N 0.47026 0.82605 0.17147 0.0
C376 C 0.19335 0.76835 0.95792 0.0
C377 C 0.38955 0.80754 0.09874 0.0
N378 N 0.24555 0.69955 0.0326 0.0
N379 N 0.33522 0.87725 1.02788 0.0
H380 H 0.52517 0.80733 0.22388 0.0
H381 H 0.47063 0.85916 0.18253 0.0
H382 H 0.2866 0.89727 0.97704 0.0
H383 H 0.41735 0.89229 0.07308 0.0
H384 H 0.16063 0.68466 0.98966 0.0
H385 H 0.29617 0.68078 0.08521 0.0
H386 H 0.09964 0.71616 0.87762 0.0
H387 H 0.04325 0.76805 0.83654 0.0
C388 C 0.08003 0.04248 0.0984 0.0
C389 C 0.98692 0.07683 0.06521 0.0
C390 C 0.92834 0.04875 0.92689 0.0
C391 C 0.03068 1.01736 0.96062 0.0
N392 N 0.22507 0.99243 0.07722 0.0
N393 N 0.82255 0.11325 0.94536 0.0
C394 C 0.11307 1.01705 0.04604 0.0
C395 C 0.91141 0.08008 0.97846 0.0
N396 N 0.13354 1.03262 0.17957 0.0
N397 N 0.84637 0.04822 0.84534 0.0
H398 H 0.79635 0.13337 0.98062 0.0
H399 H 0.77728 0.12158 0.88369 0.0
H400 H 0.86417 1.02815 0.80638 0.0
H401 H 0.76096 0.06678 0.81658 0.0
H402 H 0.19241 1.0053 0.20565 0.0
H403 H 0.10802 0.04895 0.21934 0.0
H404 H 0.29609 0.99363 0.13788 0.0
H405 H 0.25222 0.97406 0.04012 0.0
C406 C 0.14314 0.05059 0.50956 0.0
C407 C 1.01752 0.05079 0.44165 0.0
C408 C 0.93279 1.00594 0.52216 0.0
C409 C 0.0574 1.00763 0.59224 0.0
N410 N 0.27258 0.04032 0.656 0.0
N411 N 0.80921 1.01482 0.37476 0.0
C412 C 0.15964 1.03275 0.58638 0.0
C413 C 0.91795 1.02386 0.44587 0.0
N414 N 0.24824 0.06525 0.49957 0.0
N415 N 0.82673 0.98887 0.52835 0.0
H416 H 0.80021 1.02628 0.31875 0.0
H417 H 0.73715 0.99245 0.37008 0.0
H418 H 0.82966 0.97949 0.5836 0.0
H419 H 0.73141 0.98941 0.48086 0.0
H420 H 0.34533 0.06293 0.5446 0.0
H421 H 0.23895 0.07514 0.4428 0.0
H422 H 0.34905 0.05997 0.65847 0.0
H423 H 0.28268 1.03053 0.71306 0.0
C424 C 0.56795 0.53294 0.10343 0.0
C425 C 0.47471 0.56771 0.07537 0.0
C426 C 0.41332 0.54586 0.93316 0.0
C427 C 0.50202 0.51035 0.96138 0.0
N428 N 0.67242 0.47202 0.07503 0.0
N429 N 0.28348 0.59823 0.96312 0.0
C430 C 0.58088 0.50458 0.04686 0.0
C431 C 0.39041 0.57142 0.98983 0.0
N432 N 0.64697 0.52546 0.18412 0.0
N433 N 0.3543 0.55618 0.85207 0.0
H434 H 0.25912 0.61421 1.00383 0.0
H435 H 0.21146 0.60023 0.90275 0.0
H436 H 0.37456 0.53905 0.81064 0.0
H437 H 0.29729 0.58402 0.82764 0.0
H438 H 0.64406 0.54337 0.23074 0.0
H439 H 0.64406 0.54337 0.23074 0.0
H440 H 0.73242 0.46603 0.13697 0.0
H441 H 0.68974 0.4519 0.03597 0.0
C442 C 0.615 0.51941 0.60792 0.0
C443 C 0.47657 0.51743 0.57892 0.0
C444 C 0.45191 0.54849 0.44696 0.0
C445 C 0.5905 0.55065 0.47627 0.0
N446 N 0.8 0.52338 0.5784 0.0
N447 N 0.26924 0.54689 0.48054 0.0
C448 C 0.66991 0.53125 0.5545 0.0
C449 C 0.39714 0.53697 0.50105 0.0
N450 N 0.69855 0.5124 0.68779 0.0
N451 N 0.37145 0.55507 0.36622 0.0
H452 H 0.22996 0.54183 0.52136 0.0
H453 H 0.20885 0.56479 0.42832 0.0
H454 H 0.40846 0.56062 0.32458 0.0
H455 H 0.27058 0.54898 0.33983 0.0
H456 H 0.66712 0.50834 0.73254 0.0
H457 H 0.66712 0.50834 0.73254 0.0
H458 H 0.8619 0.50953 0.63516 0.0
H459 H 0.8413 0.52723 0.53839 0.0
loop_
_geom_bond_atom_site_label_1
_geom_bond_atom_site_label_2
_geom_bond_distance
_geom_bond_site_symmetry_2
_ccdc_geom_bond_type
Co0 N1 2.034 1_554 S
Co0 O15 2.262 1_455 S
Co0 O19 1.958 1_455 S
Co0 O23 1.950 . S
Co0 O24 2.057 1_455 S
N1 Co0 2.034 1_556 S
N1 C2 1.366 . S
N1 C4 1.332 . S
C2 N1 1.366 . S
C2 C5 1.377 . S
C2 H34 0.931 1_455 S
N3 C4 1.346 . S
N3 C5 1.337 . S
C4 N1 1.332 . S
C4 N3 1.346 . S
C4 C38 1.361 1_556 S
C5 C2 1.377 . S
C5 N3 1.337 . S
C5 H41 0.930 . S
Co6 N7 2.034 . S
Co6 O20 1.950 1_655 S
Co6 O21 2.262 1_655 S
Co6 O22 1.958 . S
Co6 O26 2.057 1_655 S
N7 Co6 2.034 . S
N7 C10 1.366 . S
N7 C11 1.332 . S
N8 C9 1.337 . S
N8 C11 1.346 . S
C9 N8 1.337 . S
C9 C10 1.377 . S
C9 H42 0.930 . S
C10 N7 1.366 . S
C10 C9 1.377 . S
C10 H14 0.931 . S
C11 N7 1.332 . S
C11 N8 1.346 . S
C11 C28 1.361 1_655 S
Co12 O15 2.097 . S
Co12 O16 2.065 1_655 S
Co12 O17 2.065 1_655 S
Co12 O18 2.042 . S
Co12 O21 2.097 1_655 S
Co12 O25 2.042 . S
C13 O21 1.253 . S
C13 O26 1.263 . S
H14 C10 0.931 . S
O15 Co0 2.262 1_655 S
O15 Co12 2.097 . S
O15 C39 1.253 . S
O16 Co12 2.065 1_455 S
O16 C32 1.221 . S
O17 Co12 2.065 1_455 S
O17 C27 1.221 . S
O18 Co12 2.042 . S
O18 C33 1.237 . S
O19 Co0 1.958 1_655 S
O19 C33 1.278 . S
O20 Co6 1.950 1_455 S
O20 C32 1.277 . S
O21 Co6 2.262 1_455 S
O21 Co12 2.097 1_455 S
O21 C13 1.253 . S
O22 Co6 1.958 . S
O22 C40 1.278 . S
O23 Co0 1.950 . S
O23 C27 1.277 . S
O24 Co0 2.057 1_655 S
O24 C39 1.263 . S
O25 Co12 2.042 . S
O25 C40 1.237 . S
O26 Co6 2.057 1_455 S
O26 C13 1.263 . S
C27 O17 1.221 . S
C27 O23 1.277 . S
C28 C11 1.361 1_455 S
C28 H29 0.960 . S
C28 H30 0.961 . S
C28 H31 0.961 . S
H29 C28 0.960 . S
H30 C28 0.961 . S
H31 C28 0.961 . S
C32 O16 1.221 . S
C32 O20 1.277 . S
C33 O18 1.237 . S
C33 O19 1.278 . S
H34 C2 0.931 1_655 S
H35 C38 0.961 1_556 S
H36 C38 0.961 . S
H37 C38 0.960 . S
C38 C4 1.361 1_554 S
C38 H35 0.961 1_554 S
C38 H36 0.961 . S
C38 H37 0.960 . S
C39 O15 1.253 . S
C39 O24 1.263 . S
C40 O22 1.278 . S
C40 O25 1.237 . S
H41 C5 0.930 . S
H42 C9 0.930 . S
Co43 N44 2.034 . S
Co43 O58 2.262 1_455 S
Co43 O62 1.958 1_455 S
Co43 O66 1.950 . S
Co43 O67 2.057 1_455 S
N44 Co43 2.034 . S
N44 C45 1.366 . S
N44 C47 1.332 . S
C45 N44 1.366 . S
C45 C48 1.377 . S
C45 H77 0.931 1_455 S
N46 C47 1.346 . S
N46 C48 1.337 . S
C47 N44 1.332 . S
C47 N46 1.346 . S
C47 C81 1.361 . S
C48 C45 1.377 . S
C48 N46 1.337 . S
C48 H84 0.930 . S
Co49 N50 2.034 . S
Co49 O63 1.950 1_655 S
Co49 O64 2.262 1_655 S
Co49 O65 1.958 . S
Co49 O69 2.057 1_655 S
N50 Co49 2.034 . S
N50 C53 1.366 . S
N50 C54 1.332 1_556 S
N51 C52 1.337 . S
N51 C54 1.346 . S
C52 N51 1.337 . S
C52 C53 1.377 1_554 S
C52 H85 0.930 . S
C53 N50 1.366 . S
C53 C52 1.377 1_556 S
C53 H57 0.931 . S
C54 N50 1.332 1_554 S
C54 N51 1.346 . S
C54 C71 1.361 1_655 S
Co55 O58 2.097 . S
Co55 O59 2.065 1_655 S
Co55 O60 2.065 1_655 S
Co55 O61 2.042 . S
Co55 O64 2.097 1_655 S
Co55 O68 2.042 . S
C56 O64 1.253 . S
C56 O69 1.263 . S
H57 C53 0.931 . S
O58 Co43 2.262 1_655 S
O58 Co55 2.097 . S
O58 C82 1.253 . S
O59 Co55 2.065 1_455 S
O59 C75 1.221 . S
O60 Co55 2.065 1_455 S
O60 C70 1.221 . S
O61 Co55 2.042 . S
O61 C76 1.237 . S
O62 Co43 1.958 1_655 S
O62 C76 1.278 . S
O63 Co49 1.950 1_455 S
O63 C75 1.277 . S
O64 Co49 2.262 1_455 S
O64 Co55 2.097 1_455 S
O64 C56 1.253 . S
O65 Co49 1.958 . S
O65 C83 1.278 . S
O66 Co43 1.950 . S
O66 C70 1.277 . S
O67 Co43 2.057 1_655 S
O67 C82 1.263 . S
O68 Co55 2.042 . S
O68 C83 1.237 . S
O69 Co49 2.057 1_455 S
O69 C56 1.263 . S
C70 O60 1.221 . S
C70 O66 1.277 . S
C71 C54 1.361 1_455 S
C71 H72 0.960 . S
C71 H73 0.961 . S
C71 H74 0.961 . S
H72 C71 0.960 . S
H73 C71 0.961 . S
H74 C71 0.961 . S
C75 O59 1.221 . S
C75 O63 1.277 . S
C76 O61 1.237 . S
C76 O62 1.278 . S
H77 C45 0.931 1_655 S
H78 C81 0.961 . S
H79 C81 0.961 . S
H80 C81 0.960 . S
C81 C47 1.361 . S
C81 H78 0.961 . S
C81 H79 0.961 . S
C81 H80 0.960 . S
C82 O58 1.253 . S
C82 O67 1.263 . S
C83 O65 1.278 . S
C83 O68 1.237 . S
H84 C48 0.930 . S
H85 C52 0.930 . S
Co86 N87 2.034 1_554 S
Co86 O101 2.262 . S
Co86 O105 1.958 . S
Co86 O109 1.950 . S
Co86 O110 2.057 . S
N87 Co86 2.034 1_556 S
N87 C88 1.366 . S
N87 C90 1.332 . S
C88 N87 1.366 . S
C88 C91 1.377 . S
C88 H120 0.931 . S
N89 C90 1.346 . S
N89 C91 1.337 . S
C90 N87 1.332 . S
C90 N89 1.346 . S
C90 C124 1.361 1_556 S
C91 C88 1.377 . S
C91 N89 1.337 . S
C91 H127 0.930 . S
Co92 N93 2.034 . S
Co92 O106 1.950 . S
Co92 O107 2.262 . S
Co92 O108 1.958 . S
Co92 O112 2.057 . S
N93 Co92 2.034 . S
N93 C96 1.366 . S
N93 C97 1.332 . S
N94 C95 1.337 . S
N94 C97 1.346 . S
C95 N94 1.337 . S
C95 C96 1.377 . S
C95 H128 0.930 . S
C96 N93 1.366 . S
C96 C95 1.377 . S
C96 H100 0.931 . S
C97 N93 1.332 . S
C97 N94 1.346 . S
C97 C114 1.361 . S
Co98 O101 2.097 . S
Co98 O102 2.065 . S
Co98 O103 2.065 . S
Co98 O104 2.042 . S
Co98 O107 2.097 . S
Co98 O111 2.042 . S
C99 O107 1.253 . S
C99 O112 1.263 . S
H100 C96 0.931 . S
O101 Co86 2.262 . S
O101 Co98 2.097 . S
O101 C125 1.253 . S
O102 Co98 2.065 . S
O102 C118 1.221 . S
O103 Co98 2.065 . S
O103 C113 1.221 . S
O104 Co98 2.042 . S
O104 C119 1.237 . S
O105 Co86 1.958 . S
O105 C119 1.278 . S
O106 Co92 1.950 . S
O106 C118 1.277 . S
O107 Co92 2.262 . S
O107 Co98 2.097 . S
O107 C99 1.253 . S
O108 Co92 1.958 . S
O108 C126 1.278 . S
O109 Co86 1.950 . S
O109 C113 1.277 . S
O110 Co86 2.057 . S
O110 C125 1.263 . S
O111 Co98 2.042 . S
O111 C126 1.237 . S
O112 Co92 2.057 . S
O112 C99 1.263 . S
C113 O103 1.221 . S
C113 O109 1.277 . S
C114 C97 1.361 . S
C114 H115 0.960 . S
C114 H116 0.961 . S
C114 H117 0.961 . S
H115 C114 0.960 . S
H116 C114 0.961 . S
H117 C114 0.961 . S
C118 O102 1.221 . S
C118 O106 1.277 . S
C119 O104 1.237 . S
C119 O105 1.278 . S
H120 C88 0.931 . S
H121 C124 0.961 1_556 S
H122 C124 0.961 . S
H123 C124 0.960 . S
C124 C90 1.361 1_554 S
C124 H121 0.961 1_554 S
C124 H122 0.961 . S
C124 H123 0.960 . S
C125 O101 1.253 . S
C125 O110 1.263 . S
C126 O108 1.278 . S
C126 O111 1.237 . S
H127 C91 0.930 . S
H128 C95 0.930 . S
Co129 N130 2.034 . S
Co129 O144 2.262 . S
Co129 O148 1.958 . S
Co129 O152 1.950 . S
Co129 O153 2.057 . S
N130 Co129 2.034 . S
N130 C131 1.366 . S
N130 C133 1.332 . S
C131 N130 1.366 . S
C131 C134 1.377 . S
C131 H163 0.931 . S
N132 C133 1.346 . S
N132 C134 1.337 . S
C133 N130 1.332 . S
C133 N132 1.346 . S
C133 C167 1.361 . S
C134 C131 1.377 . S
C134 N132 1.337 . S
C134 H170 0.930 . S
Co135 N136 2.034 . S
Co135 O149 1.950 . S
Co135 O150 2.262 . S
Co135 O151 1.958 . S
Co135 O155 2.057 . S
N136 Co135 2.034 . S
N136 C139 1.366 . S
N136 C140 1.332 1_556 S
N137 C138 1.337 . S
N137 C140 1.346 . S
C138 N137 1.337 . S
C138 C139 1.377 1_554 S
C138 H171 0.930 . S
C139 N136 1.366 . S
C139 C138 1.377 1_556 S
C139 H143 0.931 . S
C140 N136 1.332 1_554 S
C140 N137 1.346 . S
C140 C157 1.361 . S
Co141 O144 2.097 . S
Co141 O145 2.065 . S
Co141 O146 2.065 . S
Co141 O147 2.042 . S
Co141 O150 2.097 . S
Co141 O154 2.042 . S
C142 O150 1.253 . S
C142 O155 1.263 . S
H143 C139 0.931 . S
O144 Co129 2.262 . S
O144 Co141 2.097 . S
O144 C168 1.253 . S
O145 Co141 2.065 . S
O145 C161 1.221 . S
O146 Co141 2.065 . S
O146 C156 1.221 . S
O147 Co141 2.042 . S
O147 C162 1.237 . S
O148 Co129 1.958 . S
O148 C162 1.278 . S
O149 Co135 1.950 . S
O149 C161 1.277 . S
O150 Co135 2.262 . S
O150 Co141 2.097 . S
O150 C142 1.253 . S
O151 Co135 1.958 . S
O151 C169 1.278 . S
O152 Co129 1.950 . S
O152 C156 1.277 . S
O153 Co129 2.057 . S
O153 C168 1.263 . S
O154 Co141 2.042 . S
O154 C169 1.237 . S
O155 Co135 2.057 . S
O155 C142 1.263 . S
C156 O146 1.221 . S
C156 O152 1.277 . S
C157 C140 1.361 . S
C157 H158 0.960 . S
C157 H159 0.961 . S
C157 H160 0.961 . S
H158 C157 0.960 . S
H159 C157 0.961 . S
H160 C157 0.961 . S
C161 O145 1.221 . S
C161 O149 1.277 . S
C162 O147 1.237 . S
C162 O148 1.278 . S
H163 C131 0.931 . S
H164 C167 0.961 . S
H165 C167 0.961 . S
H166 C167 0.960 . S
C167 C133 1.361 . S
C167 H164 0.961 . S
C167 H165 0.961 . S
C167 H166 0.960 . S
C168 O144 1.253 . S
C168 O153 1.263 . S
C169 O151 1.278 . S
C169 O154 1.237 . S
H170 C134 0.930 . S
H171 C138 0.930 . S
C172 C173 1.363 . S
C172 C178 1.379 1_455 S
C172 N180 1.356 . S
C173 C172 1.363 . S
C173 C179 1.363 . S
C174 C175 1.363 1_455 S
C174 C179 1.379 . S
C174 N181 1.356 . S
C175 C174 1.363 1_655 S
C175 C178 1.363 . S
N176 C178 1.356 . S
N176 H188 0.984 . S
N176 H189 0.985 . S
N177 C179 1.356 . S
N177 H182 0.984 . S
N177 H183 0.985 . S
C178 C172 1.379 1_655 S
C178 C175 1.363 . S
C178 N176 1.356 . S
C179 C173 1.363 . S
C179 C174 1.379 . S
C179 N177 1.356 . S
N180 C172 1.356 . S
N180 H186 0.984 1_455 S
N180 H187 0.984 . S
N181 C174 1.356 . S
N181 H184 0.984 1_455 S
N181 H185 0.985 . S
H182 N177 0.984 . S
H183 N177 0.985 . S
H184 N181 0.984 1_655 S
H185 N181 0.985 . S
H186 N180 0.984 1_655 S
H187 N180 0.984 . S
H188 N176 0.984 . S
H189 N176 0.985 . S
C190 C191 1.363 . S
C190 C196 1.379 1_455 S
C190 N198 1.356 . S
C191 C190 1.363 . S
C191 C197 1.363 . S
C192 C193 1.363 1_455 S
C192 C197 1.379 . S
C192 N199 1.356 . S
C193 C192 1.363 1_655 S
C193 C196 1.363 . S
N194 C196 1.356 . S
N194 H206 0.984 . S
N194 H207 0.985 . S
N195 C197 1.356 . S
N195 H200 0.984 . S
N195 H201 0.985 . S
C196 C190 1.379 1_655 S
C196 C193 1.363 . S
C196 N194 1.356 . S
C197 C191 1.363 . S
C197 C192 1.379 . S
C197 N195 1.356 . S
N198 C190 1.356 . S
N198 H204 0.984 1_455 S
N198 H205 0.984 . S
N199 C192 1.356 . S
N199 H202 0.984 1_455 S
N199 H203 0.985 . S
H200 N195 0.984 . S
H201 N195 0.985 . S
H202 N199 0.984 1_655 S
H203 N199 0.985 . S
H204 N198 0.984 1_655 S
H205 N198 0.984 . S
H206 N194 0.984 . S
H207 N194 0.985 . S
C208 C209 1.363 . S
C208 C214 1.379 . S
C208 N216 1.356 . S
C209 C208 1.363 . S
C209 C215 1.363 . S
C210 C211 1.363 . S
C210 C215 1.379 . S
C210 N217 1.356 . S
C211 C210 1.363 . S
C211 C214 1.363 . S
N212 C214 1.356 . S
N212 H224 0.984 . S
N212 H225 0.985 . S
N213 C215 1.356 . S
N213 H218 0.984 . S
N213 H219 0.985 . S
C214 C208 1.379 . S
C214 C211 1.363 . S
C214 N212 1.356 . S
C215 C209 1.363 . S
C215 C210 1.379 . S
C215 N213 1.356 . S
N216 C208 1.356 . S
N216 H222 0.984 . S
N216 H223 0.984 . S
N217 C210 1.356 . S
N217 H220 0.984 . S
N217 H221 0.985 . S
H218 N213 0.984 . S
H219 N213 0.985 . S
H220 N217 0.984 . S
H221 N217 0.985 . S
H222 N216 0.984 . S
H223 N216 0.984 . S
H224 N212 0.984 . S
H225 N212 0.985 . S
C226 C227 1.363 . S
C226 C232 1.379 . S
C226 N234 1.356 . S
C227 C226 1.363 . S
C227 C233 1.363 . S
C228 C229 1.363 . S
C228 C233 1.379 . S
C228 N235 1.356 . S
C229 C228 1.363 . S
C229 C232 1.363 . S
N230 C232 1.356 . S
N230 H242 0.984 . S
N230 H243 0.985 . S
N231 C233 1.356 . S
N231 H236 0.984 . S
N231 H237 0.985 . S
C232 C226 1.379 . S
C232 C229 1.363 . S
C232 N230 1.356 . S
C233 C227 1.363 . S
C233 C228 1.379 . S
C233 N231 1.356 . S
N234 C226 1.356 . S
N234 H240 0.984 . S
N234 H241 0.984 . S
N235 C228 1.356 . S
N235 H238 0.984 . S
N235 H239 0.985 . S
H236 N231 0.984 . S
H237 N231 0.985 . S
H238 N235 0.984 . S
H239 N235 0.985 . S
H240 N234 0.984 . S
H241 N234 0.984 . S
H242 N230 0.984 . S
H243 N230 0.985 . S
C244 C245 1.363 . S
C244 C250 1.379 . S
C244 N252 1.356 . S
C245 C244 1.363 . S
C245 C251 1.363 . S
C246 C247 1.363 . S
C246 C251 1.379 . S
C246 N253 1.356 . S
C247 C246 1.363 . S
C247 C250 1.363 . S
N248 C250 1.356 . S
N248 H260 0.984 . S
N248 H261 0.985 . S
N249 C251 1.356 . S
N249 H254 0.984 . S
N249 H255 0.985 . S
C250 C244 1.379 . S
C250 C247 1.363 . S
C250 N248 1.356 . S
C251 C245 1.363 . S
C251 C246 1.379 . S
C251 N249 1.356 . S
N252 C244 1.356 . S
N252 H258 0.984 . S
N252 H259 0.984 . S
N253 C246 1.356 . S
N253 H256 0.984 . S
N253 H257 0.985 . S
H254 N249 0.984 . S
H255 N249 0.985 . S
H256 N253 0.984 . S
H257 N253 0.985 . S
H258 N252 0.984 . S
H259 N252 0.984 . S
H260 N248 0.984 . S
H261 N248 0.985 . S
C262 C263 1.363 . S
C262 C268 1.379 . S
C262 N270 1.356 . S
C263 C262 1.363 . S
C263 C269 1.363 . S
C264 C265 1.363 . S
C264 C269 1.379 . S
C264 N271 1.356 . S
C265 C264 1.363 . S
C265 C268 1.363 . S
N266 C268 1.356 . S
N266 H278 0.984 . S
N266 H279 0.985 . S
N267 C269 1.356 . S
N267 H272 0.984 . S
N267 H273 0.985 . S
C268 C262 1.379 . S
C268 C265 1.363 . S
C268 N266 1.356 . S
C269 C263 1.363 . S
C269 C264 1.379 . S
C269 N267 1.356 . S
N270 C262 1.356 . S
N270 H276 0.984 . S
N270 H277 0.984 . S
N271 C264 1.356 . S
N271 H274 0.984 . S
N271 H275 0.985 . S
H272 N267 0.984 . S
H273 N267 0.985 . S
H274 N271 0.984 . S
H275 N271 0.985 . S
H276 N270 0.984 . S
H277 N270 0.984 . S
H278 N266 0.984 . S
H279 N266 0.985 . S
C280 C281 1.363 . S
C280 C286 1.379 . S
C280 N288 1.356 . S
C281 C280 1.363 . S
C281 C287 1.363 . S
C282 C283 1.363 . S
C282 C287 1.379 1_455 S
C282 N289 1.356 . S
C283 C282 1.363 . S
C283 C286 1.363 1_455 S
N284 C286 1.356 1_455 S
N284 H296 0.984 1_455 S
N284 H297 0.985 . S
N285 C287 1.356 . S
N285 H290 0.984 . S
N285 H291 0.985 . S
C286 C280 1.379 . S
C286 C283 1.363 1_655 S
C286 N284 1.356 1_655 S
C287 C281 1.363 . S
C287 C282 1.379 1_655 S
C287 N285 1.356 . S
N288 C280 1.356 . S
N288 H294 0.984 . S
N288 H295 0.984 . S
N289 C282 1.356 . S
N289 H292 0.984 . S
N289 H293 0.985 . S
H290 N285 0.984 . S
H291 N285 0.985 . S
H292 N289 0.984 . S
H293 N289 0.985 . S
H294 N288 0.984 . S
H295 N288 0.984 . S
H296 N284 0.984 1_655 S
H297 N284 0.985 . S
C298 C299 1.363 . S
C298 C304 1.379 1_655 S
C298 N306 1.356 . S
C299 C298 1.363 . S
C299 C305 1.363 . S
C300 C301 1.363 . S
C300 C305 1.379 1_455 S
C300 N307 1.356 . S
C301 C300 1.363 . S
C301 C304 1.363 . S
N302 C304 1.356 . S
N302 H314 0.984 . S
N302 H315 0.985 . S
N303 C305 1.356 . S
N303 H308 0.984 . S
N303 H309 0.985 . S
C304 C298 1.379 1_455 S
C304 C301 1.363 . S
C304 N302 1.356 . S
C305 C299 1.363 . S
C305 C300 1.379 1_655 S
C305 N303 1.356 . S
N306 C298 1.356 . S
N306 H312 0.984 . S
N306 H313 0.984 . S
N307 C300 1.356 . S
N307 H310 0.984 . S
N307 H311 0.985 . S
H308 N303 0.984 . S
H309 N303 0.985 . S
H310 N307 0.984 . S
H311 N307 0.985 . S
H312 N306 0.984 . S
H313 N306 0.984 . S
H314 N302 0.984 . S
H315 N302 0.985 . S
C316 C317 1.363 . S
C316 C322 1.379 . S
C316 N324 1.356 . S
C317 C316 1.363 . S
C317 C323 1.363 . S
C318 C319 1.363 . S
C318 C323 1.379 . S
C318 N325 1.356 . S
C319 C318 1.363 . S
C319 C322 1.363 . S
N320 C322 1.356 . S
N320 H332 0.984 . S
N320 H333 0.985 . S
N321 C323 1.356 . S
N321 H326 0.984 . S
N321 H327 0.985 . S
C322 C316 1.379 . S
C322 C319 1.363 . S
C322 N320 1.356 . S
C323 C317 1.363 . S
C323 C318 1.379 . S
C323 N321 1.356 . S
N324 C316 1.356 . S
N324 H330 0.984 . S
N324 H331 0.984 . S
N325 C318 1.356 . S
N325 H328 0.984 . S
N325 H329 0.985 . S
H326 N321 0.984 . S
H327 N321 0.985 . S
H328 N325 0.984 . S
H329 N325 0.985 . S
H330 N324 0.984 . S
H331 N324 0.984 . S
H332 N320 0.984 . S
H333 N320 0.985 . S
C334 C335 1.363 1_554 S
C334 C340 1.379 . S
C334 N342 1.356 . S
C335 C334 1.363 1_556 S
C335 C341 1.363 . S
C336 C337 1.363 1_556 S
C336 C341 1.379 . S
C336 N343 1.356 . S
C337 C336 1.363 1_554 S
C337 C340 1.363 . S
N338 C340 1.356 . S
N338 H350 0.984 . S
N338 H351 0.985 . S
N339 C341 1.356 . S
N339 H344 0.984 . S
N339 H345 0.985 . S
C340 C334 1.379 . S
C340 C337 1.363 . S
C340 N338 1.356 . S
C341 C335 1.363 . S
C341 C336 1.379 . S
C341 N339 1.356 . S
N342 C334 1.356 . S
N342 H348 0.984 . S
N342 H349 0.984 1_554 S
N343 C336 1.356 . S
N343 H346 0.984 1_556 S
N343 H347 0.985 . S
H344 N339 0.984 . S
H345 N339 0.985 . S
H346 N343 0.984 1_554 S
H347 N343 0.985 . S
H348 N342 0.984 . S
H349 N342 0.984 1_556 S
H350 N338 0.984 . S
H351 N338 0.985 . S
C352 C353 1.363 . S
C352 C358 1.379 . S
C352 N360 1.356 . S
C353 C352 1.363 . S
C353 C359 1.363 . S
C354 C355 1.363 . S
C354 C359 1.379 . S
C354 N361 1.356 . S
C355 C354 1.363 . S
C355 C358 1.363 . S
N356 C358 1.356 . S
N356 H368 0.984 . S
N356 H369 0.985 . S
N357 C359 1.356 . S
N357 H362 0.984 . S
N357 H363 0.985 . S
C358 C352 1.379 . S
C358 C355 1.363 . S
C358 N356 1.356 . S
C359 C353 1.363 . S
C359 C354 1.379 . S
C359 N357 1.356 . S
N360 C352 1.356 . S
N360 H366 0.984 . S
N360 H367 0.984 . S
N361 C354 1.356 . S
N361 H364 0.984 . S
N361 H365 0.985 . S
H362 N357 0.984 . S
H363 N357 0.985 . S
H364 N361 0.984 . S
H365 N361 0.985 . S
H366 N360 0.984 . S
H367 N360 0.984 . S
H368 N356 0.984 . S
H369 N356 0.985 . S
C370 C371 1.363 1_556 S
C370 C376 1.379 . S
C370 N378 1.355 . S
C371 C370 1.363 1_554 S
C371 C377 1.363 . S
C372 C373 1.363 1_554 S
C372 C377 1.379 . S
C372 N379 1.356 1_554 S
C373 C372 1.363 1_556 S
C373 C376 1.363 . S
N374 C376 1.356 . S
N374 H386 0.984 . S
N374 H387 0.985 . S
N375 C377 1.356 . S
N375 H380 0.984 . S
N375 H381 0.985 . S
C376 C370 1.379 . S
C376 C373 1.363 . S
C376 N374 1.356 . S
C377 C371 1.363 . S
C377 C372 1.379 . S
C377 N375 1.356 . S
N378 C370 1.355 . S
N378 H384 0.998 . S
N378 H385 0.973 1_556 S
N379 C372 1.356 1_556 S
N379 H382 0.984 . S
N379 H383 0.985 1_556 S
H380 N375 0.984 . S
H381 N375 0.985 . S
H382 N379 0.984 . S
H383 N379 0.985 1_554 S
H384 N378 0.998 . S
H385 N378 0.973 1_554 S
H386 N374 0.984 . S
H387 N374 0.985 . S
C388 C389 1.363 1_465 S
C388 C394 1.379 . S
C388 N396 1.356 . S
C389 C388 1.363 1_645 S
C389 C395 1.363 1_554 S
C390 C391 1.363 1_645 S
C390 C395 1.379 . S
C390 N397 1.356 . S
C391 C390 1.363 1_465 S
C391 C394 1.363 1_556 S
N392 C394 1.356 . S
N392 H404 0.984 . S
N392 H405 0.985 1_554 S
N393 C395 1.356 . S
N393 H398 0.984 1_556 S
N393 H399 0.985 . S
C394 C388 1.379 . S
C394 C391 1.363 1_554 S
C394 N392 1.356 . S
C395 C389 1.363 1_556 S
C395 C390 1.379 . S
C395 N393 1.356 . S
N396 C388 1.356 . S
N396 H402 0.984 . S
N396 H403 0.984 1_455 S
N397 C390 1.356 . S
N397 H400 0.984 1_655 S
N397 H401 0.985 . S
H398 N393 0.984 1_554 S
H399 N393 0.985 . S
H400 N397 0.984 1_455 S
H401 N397 0.985 . S
H402 N396 0.984 . S
H403 N396 0.984 1_655 S
H404 N392 0.984 . S
H405 N392 0.985 1_556 S
C406 C407 1.363 . S
C406 C412 1.379 . S
C406 N414 1.356 . S
C407 C406 1.363 . S
C407 C413 1.363 1_445 S
C408 C409 1.363 . S
C408 C413 1.379 . S
C408 N415 1.356 . S
C409 C408 1.363 . S
C409 C412 1.363 1_665 S
N410 C412 1.356 . S
N410 H422 0.984 . S
N410 H423 0.985 1_455 S
N411 C413 1.356 . S
N411 H416 0.984 1_655 S
N411 H417 0.985 . S
C412 C406 1.379 . S
C412 C409 1.363 1_445 S
C412 N410 1.356 . S
C413 C407 1.363 1_665 S
C413 C408 1.379 . S
C413 N411 1.356 . S
N414 C406 1.356 . S
N414 H420 0.984 . S
N414 H421 0.984 . S
N415 C408 1.356 . S
N415 H418 0.984 . S
N415 H419 0.985 . S
H416 N411 0.984 1_455 S
H417 N411 0.985 . S
H418 N415 0.984 . S
H419 N415 0.985 . S
H420 N414 0.984 . S
H421 N414 0.984 . S
H422 N410 0.984 . S
H423 N410 0.985 1_655 S
C424 C425 1.363 . S
C424 C430 1.379 . S
C424 N432 1.356 . S
C425 C424 1.363 . S
C425 C431 1.363 1_554 S
C426 C427 1.363 . S
C426 C431 1.379 . S
C426 N433 1.356 . S
C427 C426 1.363 . S
C427 C430 1.363 1_556 S
N428 C430 1.356 . S
N428 H440 0.984 . S
N428 H441 0.985 1_554 S
N429 C431 1.356 . S
N429 H434 0.984 1_556 S
N429 H435 0.985 . S
C430 C424 1.379 . S
C430 C427 1.363 1_554 S
C430 N428 1.356 . S
C431 C425 1.363 1_556 S
C431 C426 1.379 . S
C431 N429 1.356 . S
N432 C424 1.356 . S
N432 H438 0.984 . S
N432 H439 0.984 . S
N433 C426 1.356 . S
N433 H436 0.984 . S
N433 H437 0.985 . S
H434 N429 0.984 1_554 S
H435 N429 0.985 . S
H436 N433 0.984 . S
H437 N433 0.985 . S
H438 N432 0.984 . S
H439 N432 0.984 . S
H440 N428 0.984 . S
H441 N428 0.985 1_556 S
C442 C443 1.363 . S
C442 C448 1.379 . S
C442 N450 1.356 . S
C443 C442 1.363 . S
C443 C449 1.363 . S
C444 C445 1.363 . S
C444 C449 1.379 . S
C444 N451 1.356 . S
C445 C444 1.363 . S
C445 C448 1.363 . S
N446 C448 1.356 . S
N446 H458 0.984 . S
N446 H459 0.985 . S
N447 C449 1.356 . S
N447 H452 0.984 . S
N447 H453 0.985 . S
C448 C442 1.379 . S
C448 C445 1.363 . S
C448 N446 1.356 . S
C449 C443 1.363 . S
C449 C444 1.379 . S
C449 N447 1.356 . S
N450 C442 1.356 . S
N450 H456 0.984 . S
N450 H457 0.984 . S
N451 C444 1.356 . S
N451 H454 0.984 . S
N451 H455 0.985 . S
H452 N447 0.984 . S
H453 N447 0.985 . S
H454 N451 0.984 . S
H455 N451 0.985 . S
H456 N450 0.984 . S
H457 N450 0.984 . S
H458 N446 0.984 . S
H459 N446 0.985 . S
C173 N3 1.115 . S
C175 N8 1.206 . S
C191 N46 1.128 . S
C193 N51 1.223 . S
C209 N89 1.115 . S
C211 N94 1.206 . S
C227 N137 1.223 . S
C229 N132 1.128 . S
C245 C40 1.305 . S
C247 C27 1.307 . S
C263 C83 1.305 . S
C265 C70 1.307 . S
C281 C113 1.307 . S
C283 C126 1.305 . S
C299 C156 1.307 . S
C301 C169 1.305 . S
C317 C162 1.641 . S
C319 C32 1.655 . S
C335 C142 1.635 . S
C337 C39 1.624 . S
C353 C118 1.655 . S
C355 C76 1.641 . S
C371 C125 1.624 . S
C373 C56 1.635 . S
C389 C33 2.078 . S
C391 C75 2.046 . S
C407 C13 1.970 . S
C409 C82 2.004 . S
C425 C119 2.078 . S
C427 C161 2.046 . S
C443 C168 2.004 . S
C445 C99 1.970 . S
