# Generated by pormake.
# Topology umk, (4)-cn, num edge types: 1
# Building blocks:
#     Node 0, Type 0, BuildingBlock: AZAVOO_clean_sbu_0, # of connection points: 4
#     Node 1, Type 0, BuildingBlock: AZAVOO_clean_sbu_0, # of connection points: 4
#     Node 2, Type 0, BuildingBlock: AZAVOO_clean_sbu_0, # of connection points: 4
#     Node 3, Type 0, BuildingBlock: AZAVOO_clean_sbu_0, # of connection points: 4
#     Node 4, Type 0, BuildingBlock: AZAVOO_clean_sbu_0, # of connection points: 4
#     Node 5, Type 0, BuildingBlock: AZAVOO_clean_sbu_0, # of connection points: 4
#     Node 6, Type 0, BuildingBlock: AZAVOO_clean_sbu_0, # of connection points: 4
#     Node 7, Type 0, BuildingBlock: AZAVOO_clean_sbu_0, # of connection points: 4
#     Node 8, Type 0, BuildingBlock: AZAVOO_clean_sbu_0, # of connection points: 4
#     Node 9, Type 0, BuildingBlock: AZAVOO_clean_sbu_0, # of connection points: 4
#     Node 10, Type 0, BuildingBlock: AZAVOO_clean_sbu_0, # of connection points: 4
#     Node 11, Type 0, BuildingBlock: AZAVOO_clean_sbu_0, # of connection points: 4
#     Node 12, Type 0, BuildingBlock: AZAVOO_clean_sbu_0, # of connection points: 4
#     Node 13, Type 0, BuildingBlock: AZAVOO_clean_sbu_0, # of connection points: 4
#     Node 14, Type 0, BuildingBlock: AZAVOO_clean_sbu_0, # of connection points: 4
#     Node 15, Type 0, BuildingBlock: AZAVOO_clean_sbu_0, # of connection points: 4
#     Node 16, Type 0, BuildingBlock: AZAVOO_clean_sbu_0, # of connection points: 4
#     Node 17, Type 0, BuildingBlock: AZAVOO_clean_sbu_0, # of connection points: 4
#     Node 18, Type 0, BuildingBlock: AZAVOO_clean_sbu_0, # of connection points: 4
#     Node 19, Type 0, BuildingBlock: AZAVOO_clean_sbu_0, # of connection points: 4
#     Node 20, Type 0, BuildingBlock: AZAVOO_clean_sbu_0, # of connection points: 4
#     Node 21, Type 0, BuildingBlock: AZAVOO_clean_sbu_0, # of connection points: 4
#     Node 22, Type 0, BuildingBlock: AZAVOO_clean_sbu_0, # of connection points: 4
#     Node 23, Type 0, BuildingBlock: AZAVOO_clean_sbu_0, # of connection points: 4
#     Edge 24, Type (0, 0), BuildingBlock: KIFKEQ_clean_linker_1, # of connection points: 2
#     Edge 25, Type (0, 0), BuildingBlock: KIFKEQ_clean_linker_1, # of connection points: 2
#     Edge 26, Type (0, 0), BuildingBlock: KIFKEQ_clean_linker_1, # of connection points: 2
#     Edge 27, Type (0, 0), BuildingBlock: KIFKEQ_clean_linker_1, # of connection points: 2
#     Edge 28, Type (0, 0), BuildingBlock: KIFKEQ_clean_linker_1, # of connection points: 2
#     Edge 29, Type (0, 0), BuildingBlock: KIFKEQ_clean_linker_1, # of connection points: 2
#     Edge 30, Type (0, 0), BuildingBlock: KIFKEQ_clean_linker_1, # of connection points: 2
#     Edge 31, Type (0, 0), BuildingBlock: KIFKEQ_clean_linker_1, # of connection points: 2
#     Edge 32, Type (0, 0), BuildingBlock: KIFKEQ_clean_linker_1, # of connection points: 2
#     Edge 33, Type (0, 0), BuildingBlock: KIFKEQ_clean_linker_1, # of connection points: 2
#     Edge 34, Type (0, 0), BuildingBlock: KIFKEQ_clean_linker_1, # of connection points: 2
#     Edge 35, Type (0, 0), BuildingBlock: KIFKEQ_clean_linker_1, # of connection points: 2
#     Edge 36, Type (0, 0), BuildingBlock: KIFKEQ_clean_linker_1, # of connection points: 2
#     Edge 37, Type (0, 0), BuildingBlock: KIFKEQ_clean_linker_1, # of connection points: 2
#     Edge 38, Type (0, 0), BuildingBlock: KIFKEQ_clean_linker_1, # of connection points: 2
#     Edge 39, Type (0, 0), BuildingBlock: KIFKEQ_clean_linker_1, # of connection points: 2
#     Edge 40, Type (0, 0), BuildingBlock: KIFKEQ_clean_linker_1, # of connection points: 2
#     Edge 41, Type (0, 0), BuildingBlock: KIFKEQ_clean_linker_1, # of connection points: 2
#     Edge 42, Type (0, 0), BuildingBlock: KIFKEQ_clean_linker_1, # of connection points: 2
#     Edge 43, Type (0, 0), BuildingBlock: KIFKEQ_clean_linker_1, # of connection points: 2
#     Edge 44, Type (0, 0), BuildingBlock: KIFKEQ_clean_linker_1, # of connection points: 2
#     Edge 45, Type (0, 0), BuildingBlock: KIFKEQ_clean_linker_1, # of connection points: 2
#     Edge 46, Type (0, 0), BuildingBlock: KIFKEQ_clean_linker_1, # of connection points: 2
#     Edge 47, Type (0, 0), BuildingBlock: KIFKEQ_clean_linker_1, # of connection points: 2
#     Edge 48, Type (0, 0), BuildingBlock: KIFKEQ_clean_linker_1, # of connection points: 2
#     Edge 49, Type (0, 0), BuildingBlock: KIFKEQ_clean_linker_1, # of connection points: 2
#     Edge 50, Type (0, 0), BuildingBlock: KIFKEQ_clean_linker_1, # of connection points: 2
#     Edge 51, Type (0, 0), BuildingBlock: KIFKEQ_clean_linker_1, # of connection points: 2
#     Edge 52, Type (0, 0), BuildingBlock: KIFKEQ_clean_linker_1, # of connection points: 2
#     Edge 53, Type (0, 0), BuildingBlock: KIFKEQ_clean_linker_1, # of connection points: 2
#     Edge 54, Type (0, 0), BuildingBlock: KIFKEQ_clean_linker_1, # of connection points: 2
#     Edge 55, Type (0, 0), BuildingBlock: KIFKEQ_clean_linker_1, # of connection points: 2
#     Edge 56, Type (0, 0), BuildingBlock: KIFKEQ_clean_linker_1, # of connection points: 2
#     Edge 57, Type (0, 0), BuildingBlock: KIFKEQ_clean_linker_1, # of connection points: 2
#     Edge 58, Type (0, 0), BuildingBlock: KIFKEQ_clean_linker_1, # of connection points: 2
#     Edge 59, Type (0, 0), BuildingBlock: KIFKEQ_clean_linker_1, # of connection points: 2
#     Edge 60, Type (0, 0), BuildingBlock: KIFKEQ_clean_linker_1, # of connection points: 2
#     Edge 61, Type (0, 0), BuildingBlock: KIFKEQ_clean_linker_1, # of connection points: 2
#     Edge 62, Type (0, 0), BuildingBlock: KIFKEQ_clean_linker_1, # of connection points: 2
#     Edge 63, Type (0, 0), BuildingBlock: KIFKEQ_clean_linker_1, # of connection points: 2
#     Edge 64, Type (0, 0), BuildingBlock: KIFKEQ_clean_linker_1, # of connection points: 2
#     Edge 65, Type (0, 0), BuildingBlock: KIFKEQ_clean_linker_1, # of connection points: 2
#     Edge 66, Type (0, 0), BuildingBlock: KIFKEQ_clean_linker_1, # of connection points: 2
#     Edge 67, Type (0, 0), BuildingBlock: KIFKEQ_clean_linker_1, # of connection points: 2
#     Edge 68, Type (0, 0), BuildingBlock: KIFKEQ_clean_linker_1, # of connection points: 2
#     Edge 69, Type (0, 0), BuildingBlock: KIFKEQ_clean_linker_1, # of connection points: 2
#     Edge 70, Type (0, 0), BuildingBlock: KIFKEQ_clean_linker_1, # of connection points: 2
#     Edge 71, Type (0, 0), BuildingBlock: KIFKEQ_clean_linker_1, # of connection points: 2
# Relax obj value: 0.145
# Max RMSD: 0.163
# Mean RMSD: 0.163
data_MOF--net-umk--node1-AZAVOO_clean_sbu_0--edge1-KIFKEQ_clean_linker_1
_symmetry_space_group_name_H-M    P1
_symmetry_Int_Tables_number       1
_symmetry_cell_setting            triclinic
loop_
_symmetry_equiv_pos_as_xyz
'x, y, z'
_cell_length_a     66.645737
_cell_length_b     66.714006
_cell_length_c     44.326505
_cell_angle_alpha  90.138978
_cell_angle_beta   89.939415
_cell_angle_gamma 119.94093
loop_
_atom_site_label
_atom_site_type_symbol
_atom_site_fract_x
_atom_site_fract_y
_atom_site_fract_z
_atom_type_partial_charge
Mg0 Mg 0.33062 0.46456 0.1027 0.0
O1 O 0.35968 0.49761 0.08091 0.0
O2 O 0.3928 0.50646 0.10431 0.0
Mg3 Mg 0.38531 0.47916 0.14014 0.0
C4 C 0.38152 0.51058 0.08438 0.0
C5 C 0.30409 0.47404 0.05206 0.0
O6 O 0.32151 0.47538 0.03649 0.0
O7 O 0.33073 0.48447 0.14482 0.0
O8 O 0.36348 0.4908 0.16691 0.0
O9 O 0.33694 0.44275 0.06991 0.0
O10 O 0.35487 0.4547 0.11372 0.0
C11 C 0.34508 0.49225 0.16672 0.0
C12 C 0.3526 0.4442 0.08846 0.0
O13 O 0.3031 0.47022 0.08025 0.0
Mg14 Mg 0.85785 0.32293 0.59999 0.0
O15 O 0.85252 0.35079 0.57656 0.0
O16 O 0.87512 0.38406 0.60085 0.0
Mg17 Mg 0.89437 0.37805 0.6387 0.0
C18 C 0.86048 0.37249 0.58025 0.0
C19 C 0.81919 0.29256 0.55037 0.0
O20 O 0.8308 0.31018 0.53218 0.0
O21 O 0.83586 0.32188 0.64016 0.0
O22 O 0.85959 0.35583 0.66226 0.0
O23 O 0.88807 0.33161 0.56947 0.0
O24 O 0.89064 0.34798 0.6137 0.0
C25 C 0.84038 0.33681 0.66094 0.0
C26 C 0.9007 0.34694 0.58948 0.0
O27 O 0.82608 0.29364 0.57736 0.0
Mg28 Mg 0.55492 0.88178 0.05315 0.0
O29 O 0.52139 0.87763 0.03285 0.0
O30 O 0.51372 0.90301 0.05558 0.0
Mg31 Mg 0.54294 0.92448 0.08861 0.0
C32 C 0.50862 0.88669 0.03669 0.0
C33 C 0.55625 0.83622 0.04377 0.0
O34 O 0.57085 0.84533 0.06635 0.0
O35 O 0.53654 0.86467 0.09706 0.0
O36 O 0.5315 0.89238 0.11807 0.0
O37 O 0.57638 0.9085 0.01848 0.0
O38 O 0.56588 0.91616 0.06239 0.0
C39 C 0.52972 0.87241 0.11878 0.0
C40 C 0.57598 0.92345 0.03678 0.0
O41 O 0.54675 0.8471 0.03311 0.0
Mg42 Mg 0.66569 0.55058 0.55732 0.0
O43 O 0.63175 0.52144 0.5372 0.0
O44 O 0.60234 0.51933 0.5641 0.0
Mg45 Mg 0.61715 0.54477 0.60304 0.0
C46 C 0.61009 0.51259 0.54233 0.0
C47 C 0.69864 0.5521 0.50664 0.0
O48 O 0.69795 0.57102 0.50067 0.0
O49 O 0.66334 0.52631 0.59532 0.0
O50 O 0.63329 0.52393 0.62089 0.0
O51 O 0.66183 0.5769 0.52989 0.0
O52 O 0.64804 0.56602 0.57584 0.0
C53 C 0.64888 0.51835 0.61707 0.0
C54 C 0.64981 0.5779 0.5522 0.0
O55 O 0.68666 0.53939 0.52841 0.0
Mg56 Mg 0.12382 0.67803 0.05933 0.0
O57 O 0.11642 0.642 0.04427 0.0
O58 O 0.08432 0.6155 0.06768 0.0
Mg59 Mg 0.07144 0.63444 0.09783 0.0
C60 C 0.10123 0.62098 0.04968 0.0
C61 C 0.17497 0.71362 0.04796 0.0
O62 O 0.17053 0.72188 0.07244 0.0
O63 O 0.13774 0.67327 0.10438 0.0
O64 O 0.10451 0.64667 0.12545 0.0
O65 O 0.10068 0.6777 0.02251 0.0
O66 O 0.08905 0.66493 0.06891 0.0
C67 C 0.12648 0.65978 0.12615 0.0
C68 C 0.08401 0.66756 0.04179 0.0
O69 O 0.15927 0.69448 0.03736 0.0
Mg70 Mg 0.44917 0.13622 0.60032 0.0
O71 O 0.47679 0.12782 0.58334 0.0
O72 O 0.47139 0.09593 0.60711 0.0
Mg73 Mg 0.4414 0.08476 0.63991 0.0
C74 C 0.48228 0.1123 0.58826 0.0
C75 C 0.47157 0.17369 0.55015 0.0
O76 O 0.46475 0.15508 0.5335 0.0
O77 O 0.46965 0.15103 0.64388 0.0
O78 O 0.46418 0.11843 0.66551 0.0
O79 O 0.42505 0.11236 0.56487 0.0
O80 O 0.42756 0.10176 0.61128 0.0
C81 C 0.47314 0.1404 0.66531 0.0
C82 C 0.41922 0.09601 0.58447 0.0
O83 O 0.46819 0.17154 0.57843 0.0
Mg84 Mg 0.53152 0.65731 0.89413 0.0
O85 O 0.5011 0.63035 0.92236 0.0
O86 O 0.4888 0.59583 0.90084 0.0
Mg87 Mg 0.51137 0.60029 0.85992 0.0
C88 C 0.48734 0.60852 0.92131 0.0
C89 C 0.53152 0.68861 0.94672 0.0
O90 O 0.53365 0.67312 0.96246 0.0
O91 O 0.50663 0.65535 0.85704 0.0
O92 O 0.4968 0.62091 0.83685 0.0
O93 O 0.55649 0.65109 0.92114 0.0
O94 O 0.53918 0.63236 0.87945 0.0
C95 C 0.49568 0.63948 0.83743 0.0
C96 C 0.55274 0.63514 0.90159 0.0
O97 O 0.52966 0.68652 0.9182 0.0
Mg98 Mg 0.87355 0.53594 0.41162 0.0
O99 O 0.86676 0.50197 0.43376 0.0
O100 O 0.8921 0.4929 0.41391 0.0
Mg101 Mg 0.91583 0.52117 0.38121 0.0
C102 C 0.87516 0.4885 0.43142 0.0
C103 C 0.82663 0.5355 0.41197 0.0
O104 O 0.8337 0.5429 0.38442 0.0
O105 O 0.85707 0.51672 0.36761 0.0
O106 O 0.8849 0.5105 0.34993 0.0
O107 O 0.89962 0.55711 0.44747 0.0
O108 O 0.90785 0.54506 0.40528 0.0
C109 C 0.86521 0.50919 0.34723 0.0
C110 C 0.91467 0.55539 0.43085 0.0
O111 O 0.83906 0.5307 0.42883 0.0
Mg112 Mg 0.33516 0.86125 0.87234 0.0
O113 O 0.36681 0.86275 0.89536 0.0
O114 O 0.39844 0.89165 0.87399 0.0
Mg115 Mg 0.38747 0.90854 0.83813 0.0
C116 C 0.3888 0.87511 0.8929 0.0
C117 C 0.29373 0.82727 0.90627 0.0
O118 O 0.29128 0.84529 0.90087 0.0
O119 O 0.34032 0.84411 0.83029 0.0
O120 O 0.37176 0.87477 0.81145 0.0
O121 O 0.33649 0.88712 0.90568 0.0
O122 O 0.35456 0.89632 0.86182 0.0
C123 C 0.35601 0.8535 0.81008 0.0
C124 C 0.35053 0.90294 0.88727 0.0
O125 O 0.31125 0.82703 0.89535 0.0
Mg126 Mg 0.45946 0.32648 0.39971 0.0
O127 O 0.48581 0.36232 0.41862 0.0
O128 O 0.48157 0.38873 0.39278 0.0
Mg129 Mg 0.45473 0.37044 0.35613 0.0
C130 C 0.49124 0.38328 0.4135 0.0
C131 C 0.47688 0.30963 0.45399 0.0
O132 O 0.46798 0.32038 0.46895 0.0
O133 O 0.48287 0.33234 0.3594 0.0
O134 O 0.47889 0.35927 0.3346 0.0
O135 O 0.43214 0.32501 0.43066 0.0
O136 O 0.43864 0.33943 0.3846 0.0
C137 C 0.4877 0.34619 0.3373 0.0
C138 C 0.42761 0.33565 0.40971 0.0
O139 O 0.47664 0.30979 0.42536 0.0
Mg140 Mg 0.11356 0.44634 0.93405 0.0
O141 O 0.11035 0.47749 0.95051 0.0
O142 O 0.08138 0.47707 0.92428 0.0
Mg143 Mg 0.06574 0.44607 0.89259 0.0
C144 C 0.09753 0.48611 0.94392 0.0
C145 C 0.16259 0.45468 0.9448 0.0
O146 O 0.15621 0.44201 0.92015 0.0
O147 O 0.13067 0.46591 0.89027 0.0
O148 O 0.09997 0.46409 0.86728 0.0
O149 O 0.08762 0.42342 0.96895 0.0
O150 O 0.0787 0.42943 0.92315 0.0
C151 C 0.12148 0.47048 0.86801 0.0
C152 C 0.07193 0.42058 0.94952 0.0
O153 O 0.14871 0.46029 0.95662 0.0
Mg154 Mg 0.64803 0.09843 0.44841 0.0
O155 O 0.61741 0.10004 0.4698 0.0
O156 O 0.58506 0.07065 0.45023 0.0
Mg157 Mg 0.59445 0.04901 0.41972 0.0
C158 C 0.59538 0.08852 0.46709 0.0
C159 C 0.69191 0.13822 0.47583 0.0
O160 O 0.69489 0.1203 0.47915 0.0
O161 O 0.64169 0.11123 0.40358 0.0
O162 O 0.61039 0.07937 0.38675 0.0
O163 O 0.64803 0.07546 0.4856 0.0
O164 O 0.62736 0.06301 0.44382 0.0
C165 C 0.62641 0.10036 0.38331 0.0
C166 C 0.63273 0.05839 0.46967 0.0
O167 O 0.67339 0.1352 0.46355 0.0
Mg168 Mg 0.66158 0.5279 0.8799 0.0
O169 O 0.63336 0.49539 0.9035 0.0
O170 O 0.5999 0.48421 0.87933 0.0
Mg171 Mg 0.6063 0.51043 0.84251 0.0
C172 C 0.61171 0.48148 0.89987 0.0
C173 C 0.692 0.52432 0.93069 0.0
O174 O 0.67832 0.52867 0.9474 0.0
O175 O 0.66165 0.50701 0.83924 0.0
O176 O 0.62809 0.49803 0.81703 0.0
O177 O 0.65503 0.55019 0.91129 0.0
O178 O 0.63668 0.53659 0.86799 0.0
C179 C 0.64692 0.49743 0.81808 0.0
C180 C 0.63903 0.54783 0.89267 0.0
O181 O 0.68938 0.52294 0.90225 0.0
Mg182 Mg 0.1272 0.66632 0.39995 0.0
O183 O 0.13263 0.63821 0.42224 0.0
O184 O 0.10762 0.60447 0.40081 0.0
Mg185 Mg 0.08642 0.61065 0.36578 0.0
C186 C 0.12377 0.61631 0.41961 0.0
C187 C 0.17088 0.71386 0.40565 0.0
O188 O 0.16038 0.71671 0.38236 0.0
O189 O 0.14527 0.66526 0.35679 0.0
O190 O 0.11904 0.63128 0.33706 0.0
O191 O 0.10006 0.66016 0.43444 0.0
O192 O 0.09298 0.64201 0.39066 0.0
C193 C 0.13856 0.64997 0.33605 0.0
C194 C 0.08535 0.64446 0.41629 0.0
O195 O 0.16139 0.6944 0.41892 0.0
Mg196 Mg 0.45607 0.11729 0.9232 0.0
O197 O 0.48674 0.11711 0.94743 0.0
O198 O 0.49588 0.09519 0.91866 0.0
Mg199 Mg 0.47325 0.08283 0.87692 0.0
C200 C 0.49886 0.10745 0.94217 0.0
C201 C 0.45035 0.15782 0.93894 0.0
O202 O 0.43962 0.15001 0.91304 0.0
O203 O 0.4801 0.14265 0.88792 0.0
O204 O 0.4892 0.12022 0.86042 0.0
O205 O 0.4308 0.08495 0.94753 0.0
O206 O 0.44704 0.08561 0.90377 0.0
C207 C 0.49073 0.13972 0.86596 0.0
C208 C 0.43402 0.07377 0.9259 0.0
O209 O 0.45976 0.14739 0.95127 0.0
Mg210 Mg 0.30911 0.43264 0.42977 0.0
O211 O 0.34382 0.46227 0.44675 0.0
O212 O 0.37179 0.46561 0.41575 0.0
Mg213 Mg 0.35486 0.43822 0.37881 0.0
C214 C 0.36508 0.47203 0.43896 0.0
C215 C 0.27704 0.43018 0.48147 0.0
O216 O 0.27567 0.4099 0.4837 0.0
O217 O 0.30841 0.4555 0.39173 0.0
O218 O 0.33644 0.45727 0.36192 0.0
O219 O 0.31531 0.40758 0.45632 0.0
O220 O 0.32557 0.41704 0.40873 0.0
C221 C 0.32087 0.46249 0.36797 0.0
C222 C 0.32543 0.40583 0.43233 0.0
O223 O 0.29002 0.4442 0.46135 0.0
Mg224 Mg 0.85882 0.32259 0.93209 0.0
O225 O 0.86727 0.35911 0.94658 0.0
O226 O 0.89822 0.38468 0.92049 0.0
Mg227 Mg 0.90802 0.36478 0.88749 0.0
C228 C 0.88254 0.37992 0.94026 0.0
C229 C 0.8233 0.30598 0.98527 0.0
O230 O 0.84249 0.31452 0.0011 0.0
O231 O 0.84185 0.32565 0.88901 0.0
O232 O 0.87311 0.3518 0.86389 0.0
O233 O 0.88484 0.32395 0.96563 0.0
O234 O 0.8927 0.33508 0.91817 0.0
C235 C 0.85124 0.33842 0.86601 0.0
C236 C 0.9 0.33329 0.94429 0.0
O237 O 0.8245 0.30726 0.9567 0.0
Mg238 Mg 0.5419 0.85997 0.4065 0.0
O239 O 0.51454 0.87086 0.41116 0.0
O240 O 0.52999 0.90724 0.39478 0.0
Mg241 Mg 0.5669 0.91899 0.37824 0.0
C242 C 0.51317 0.88897 0.40614 0.0
C243 C 0.50418 0.81613 0.43971 0.0
O244 O 0.50766 0.8318 0.46022 0.0
O245 O 0.53533 0.85506 0.356 0.0
O246 O 0.5531 0.89181 0.34021 0.0
O247 O 0.55502 0.8751 0.45226 0.0
O248 O 0.56825 0.89422 0.40943 0.0
C249 C 0.54206 0.87006 0.335 0.0
C250 C 0.56808 0.8944 0.43844 0.0
O251 O 0.51487 0.82256 0.41475 0.0
Mg252 Mg 0.45612 0.33125 0.08289 0.0
O253 O 0.48675 0.35708 0.05397 0.0
O254 O 0.50209 0.39175 0.07647 0.0
Mg255 Mg 0.48041 0.38853 0.11776 0.0
C256 C 0.50189 0.37853 0.05551 0.0
C257 C 0.45761 0.29977 0.03079 0.0
O258 O 0.45915 0.31655 0.0137 0.0
O259 O 0.48083 0.33151 0.11856 0.0
O260 O 0.4942 0.36655 0.13918 0.0
O261 O 0.43212 0.33908 0.05676 0.0
O262 O 0.45076 0.35761 0.09802 0.0
C263 C 0.4936 0.34714 0.13749 0.0
C264 C 0.43715 0.35548 0.07616 0.0
O265 O 0.45613 0.30108 0.05921 0.0
Mg266 Mg 0.11582 0.45978 0.59808 0.0
O267 O 0.1235 0.49339 0.57396 0.0
O268 O 0.10223 0.50646 0.59652 0.0
Mg269 Mg 0.08048 0.48118 0.63337 0.0
C270 C 0.11698 0.50836 0.57669 0.0
C271 C 0.1589 0.45416 0.59157 0.0
O272 O 0.15217 0.44629 0.61905 0.0
O273 O 0.13677 0.47969 0.63924 0.0
O274 O 0.11353 0.49094 0.66041 0.0
O275 O 0.08675 0.43882 0.5663 0.0
O276 O 0.08281 0.45345 0.60919 0.0
C277 C 0.13213 0.48985 0.66021 0.0
C278 C 0.07355 0.44206 0.58475 0.0
O279 O 0.14751 0.4614 0.57669 0.0
Mg280 Mg 0.66925 0.12612 0.10209 0.0
O281 O 0.63396 0.1201 0.08575 0.0
O282 O 0.60693 0.08453 0.09957 0.0
Mg283 Mg 0.62439 0.06936 0.12831 0.0
C284 C 0.61296 0.10364 0.0862 0.0
C285 C 0.68457 0.16968 0.06262 0.0
O286 O 0.67224 0.15338 0.04291 0.0
O287 O 0.66172 0.13352 0.1496 0.0
O288 O 0.63351 0.09825 0.16308 0.0
O289 O 0.67142 0.10848 0.06027 0.0
O290 O 0.6568 0.09073 0.10366 0.0
C291 C 0.64665 0.1198 0.16841 0.0
C292 C 0.66089 0.08947 0.07556 0.0
O293 O 0.68591 0.16401 0.08954 0.0
Mg294 Mg 0.52024 0.66307 0.56479 0.0
O295 O 0.49289 0.62623 0.55182 0.0
O296 O 0.49722 0.60134 0.58084 0.0
Mg297 Mg 0.52775 0.62275 0.61253 0.0
C298 C 0.48686 0.60562 0.55977 0.0
C299 C 0.50002 0.6774 0.51037 0.0
O300 O 0.51096 0.66904 0.49473 0.0
O301 O 0.50075 0.6616 0.60779 0.0
O302 O 0.50708 0.63745 0.63592 0.0
O303 O 0.54492 0.66098 0.53205 0.0
O304 O 0.54214 0.65173 0.58034 0.0
C305 C 0.4984 0.65055 0.63218 0.0
C306 C 0.5514 0.65309 0.55442 0.0
O307 O 0.50043 0.67688 0.53897 0.0
Mg308 Mg 0.8728 0.55118 0.07106 0.0
O309 O 0.87658 0.52054 0.05371 0.0
O310 O 0.90696 0.52232 0.07776 0.0
Mg311 Mg 0.92148 0.55233 0.111 0.0
C312 C 0.89047 0.51289 0.05864 0.0
C313 C 0.83527 0.53581 0.02112 0.0
O314 O 0.85386 0.54307 0.0043 0.0
O315 O 0.85667 0.53186 0.11468 0.0
O316 O 0.88743 0.53363 0.13759 0.0
O317 O 0.89758 0.57433 0.03586 0.0
O318 O 0.90793 0.56898 0.08116 0.0
C319 C 0.86593 0.5273 0.13677 0.0
C320 C 0.91387 0.57779 0.05459 0.0
O321 O 0.83729 0.53626 0.04963 0.0
Mg322 Mg 0.33806 0.88308 0.54957 0.0
O323 O 0.36998 0.88721 0.5235 0.0
O324 O 0.40108 0.91227 0.54991 0.0
Mg325 Mg 0.38971 0.92288 0.59244 0.0
C326 C 0.39193 0.89911 0.5271 0.0
C327 C 0.31217 0.85061 0.49339 0.0
O328 O 0.32596 0.86893 0.47734 0.0
O329 O 0.34143 0.86003 0.58463 0.0
O330 O 0.3729 0.88555 0.61011 0.0
O331 O 0.34034 0.91397 0.52601 0.0
O332 O 0.35768 0.91544 0.56899 0.0
C333 C 0.35626 0.86499 0.60561 0.0
C334 C 0.35387 0.92625 0.5478 0.0
O335 O 0.31381 0.85155 0.52195 0.0
H336 H 0.3021 0.4836 0.1853 0.0
H337 H 0.37387 0.51733 0.21251 0.0
H338 H 0.29084 0.4851 0.23732 0.0
H339 H 0.3628 0.51803 0.26409 0.0
H340 H 0.34585 0.50834 0.35584 0.0
H341 H 0.34752 0.52567 0.30675 0.0
H342 H 0.28913 0.46099 0.27701 0.0
H343 H 0.28684 0.44455 0.32653 0.0
C344 C 0.31554 0.492 0.20216 0.0
C345 C 0.33882 0.49969 0.19499 0.0
C346 C 0.30907 0.49269 0.23207 0.0
C347 C 0.32576 0.501 0.25526 0.0
C348 C 0.34929 0.51143 0.24716 0.0
C349 C 0.35572 0.51082 0.2174 0.0
C350 C 0.33263 0.49841 0.33922 0.0
C351 C 0.31624 0.4752 0.34469 0.0
C352 C 0.33373 0.50817 0.31096 0.0
C353 C 0.31901 0.49453 0.28741 0.0
C354 C 0.3008 0.47216 0.29435 0.0
C355 C 0.29943 0.46261 0.32282 0.0
H356 H 0.82548 0.36357 0.68783 0.0
H357 H 0.82208 0.29746 0.69398 0.0
H358 H 0.81438 0.36089 0.74073 0.0
H359 H 0.81248 0.29531 0.74724 0.0
H360 H 0.8118 0.30047 0.84503 0.0
H361 H 0.79509 0.29615 0.79455 0.0
H362 H 0.84302 0.36854 0.77735 0.0
H363 H 0.85911 0.37268 0.82722 0.0
C364 C 0.82142 0.34803 0.70028 0.0
C365 C 0.82503 0.33093 0.68722 0.0
C366 C 0.81524 0.34654 0.73062 0.0
C367 C 0.81354 0.32839 0.74858 0.0
C368 C 0.81378 0.30964 0.73425 0.0
C369 C 0.81936 0.31086 0.70364 0.0
C370 C 0.81807 0.31556 0.83071 0.0
C371 C 0.83705 0.3368 0.83965 0.0
C372 C 0.8086 0.31308 0.80178 0.0
C373 C 0.81787 0.33187 0.78162 0.0
C374 C 0.83518 0.35364 0.7921 0.0
C375 C 0.84468 0.35603 0.8207 0.0
H376 H 0.57206 0.88684 0.28848 0.0
H377 H 0.50146 0.83635 0.31056 0.0
H378 H 0.56382 0.8774 0.23503 0.0
H379 H 0.4929 0.82754 0.25649 0.0
H380 H 0.49905 0.87125 0.16029 0.0
H381 H 0.49814 0.86191 0.21374 0.0
H382 H 0.54679 0.83837 0.19709 0.0
H383 H 0.54722 0.84702 0.14339 0.0
C384 C 0.55486 0.8735 0.28182 0.0
C385 C 0.53735 0.86235 0.30341 0.0
C386 C 0.5502 0.86797 0.25136 0.0
C387 C 0.52781 0.85162 0.24186 0.0
C388 C 0.51035 0.84001 0.26346 0.0
C389 C 0.51522 0.84506 0.29419 0.0
C390 C 0.50872 0.86309 0.16782 0.0
C391 C 0.52338 0.86006 0.14784 0.0
C392 C 0.50812 0.85768 0.19834 0.0
C393 C 0.52251 0.8496 0.20934 0.0
C394 C 0.53549 0.8445 0.18895 0.0
C395 C 0.53567 0.84941 0.15827 0.0
H396 H 0.68695 0.51999 0.78679 0.0
H397 H 0.62083 0.45707 0.78768 0.0
H398 H 0.69065 0.51524 0.73325 0.0
H399 H 0.62528 0.45095 0.73441 0.0
H400 H 0.61412 0.48567 0.65045 0.0
H401 H 0.61768 0.47064 0.69809 0.0
H402 H 0.69171 0.50223 0.68473 0.0
H403 H 0.68793 0.5182 0.63678 0.0
C404 C 0.67385 0.50438 0.77581 0.0
C405 C 0.65333 0.48922 0.79095 0.0
C406 C 0.67597 0.50153 0.74495 0.0
C407 C 0.65772 0.48321 0.72899 0.0
C408 C 0.63917 0.46586 0.74563 0.0
C409 C 0.63668 0.46916 0.77622 0.0
C410 C 0.6311 0.48891 0.65727 0.0
C411 C 0.65082 0.50371 0.64046 0.0
C412 C 0.63319 0.47999 0.68464 0.0
C413 C 0.65515 0.48566 0.69597 0.0
C414 C 0.6746 0.49803 0.67716 0.0
C415 C 0.67246 0.50704 0.64957 0.0
H416 H 0.15825 0.69062 0.30553 0.0
H417 H 0.14676 0.62106 0.30167 0.0
H418 H 0.16525 0.69461 0.25141 0.0
H419 H 0.15528 0.62544 0.2478 0.0
H420 H 0.11361 0.62329 0.16299 0.0
H421 H 0.12764 0.62329 0.21306 0.0
H422 H 0.18107 0.69481 0.2024 0.0
H423 H 0.16635 0.6948 0.15162 0.0
C424 C 0.1585 0.67665 0.29333 0.0
C425 C 0.15145 0.65535 0.30746 0.0
C426 C 0.16258 0.67893 0.26223 0.0
C427 C 0.16003 0.66002 0.24502 0.0
C428 C 0.15658 0.64004 0.26022 0.0
C429 C 0.15187 0.63756 0.2911 0.0
C430 C 0.12865 0.63892 0.17103 0.0
C431 C 0.13858 0.65917 0.15369 0.0
C432 C 0.13698 0.63886 0.19974 0.0
C433 C 0.1555 0.65912 0.21202 0.0
C434 C 0.16664 0.67899 0.19373 0.0
C435 C 0.15831 0.67897 0.16466 0.0
H436 H 0.47219 0.16381 0.84114 0.0
H437 H 0.53156 0.15435 0.83653 0.0
H438 H 0.47854 0.17703 0.78929 0.0
H439 H 0.5392 0.16937 0.78519 0.0
H440 H 0.50053 0.12977 0.69803 0.0
H441 H 0.51604 0.14383 0.74752 0.0
H442 H 0.49389 0.19466 0.74191 0.0
H443 H 0.47772 0.17983 0.69172 0.0
C444 C 0.4875 0.166 0.8296 0.0
C445 C 0.50097 0.15741 0.8423 0.0
C446 C 0.49124 0.17368 0.79974 0.0
C447 C 0.50876 0.1732 0.7825 0.0
C448 C 0.52492 0.16897 0.79743 0.0
C449 C 0.52072 0.16056 0.82692 0.0
C450 C 0.49947 0.14433 0.70702 0.0
C451 C 0.48738 0.15328 0.6915 0.0
C452 C 0.50872 0.15274 0.7354 0.0
C453 C 0.50597 0.17026 0.74917 0.0
C454 C 0.49598 0.1809 0.73221 0.0
C455 C 0.48679 0.17249 0.70346 0.0
H456 H 0.52013 0.68669 0.66976 0.0
H457 H 0.45507 0.62423 0.65514 0.0
H458 H 0.51004 0.68744 0.72209 0.0
H459 H 0.44379 0.62561 0.70725 0.0
H460 H 0.50115 0.68088 0.81706 0.0
H461 H 0.49195 0.68804 0.76635 0.0
H462 H 0.4562 0.6144 0.74856 0.0
H463 H 0.46422 0.60743 0.7991 0.0
C464 C 0.50306 0.67382 0.67751 0.0
C465 C 0.48843 0.65531 0.65881 0.0
C466 C 0.49711 0.67424 0.70761 0.0
C467 C 0.4763 0.65614 0.71945 0.0
C468 C 0.46031 0.63938 0.6993 0.0
C469 C 0.46657 0.63868 0.66934 0.0
C470 C 0.49051 0.66623 0.80264 0.0
C471 C 0.48415 0.64365 0.81165 0.0
C472 C 0.48541 0.67032 0.77341 0.0
C473 C 0.47413 0.65193 0.75269 0.0
C474 C 0.46504 0.62917 0.76342 0.0
C475 C 0.4699 0.62511 0.79256 0.0
H476 H 0.87322 0.48539 0.30365 0.0
H477 H 0.83047 0.5155 0.32398 0.0
H478 H 0.86272 0.48242 0.25126 0.0
H479 H 0.81884 0.51148 0.27105 0.0
H480 H 0.85237 0.4842 0.1574 0.0
H481 H 0.83985 0.4704 0.20875 0.0
H482 H 0.83941 0.53365 0.22926 0.0
H483 H 0.85017 0.54629 0.1774 0.0
C484 C 0.86092 0.49071 0.29704 0.0
C485 C 0.85327 0.50136 0.31782 0.0
C486 C 0.8546 0.48873 0.26681 0.0
C487 C 0.84024 0.49718 0.25653 0.0
C488 C 0.83042 0.50537 0.278 0.0
C489 C 0.83693 0.5075 0.30841 0.0
C490 C 0.84854 0.49454 0.1727 0.0
C491 C 0.85225 0.51626 0.16382 0.0
C492 C 0.84162 0.48682 0.20218 0.0
C493 C 0.83931 0.50119 0.2236 0.0
C494 C 0.84086 0.52197 0.21361 0.0
C495 C 0.84716 0.52935 0.18387 0.0
H496 H 0.31712 0.8408 0.63796 0.0
H497 H 0.38607 0.85164 0.62701 0.0
H498 H 0.31501 0.82548 0.68802 0.0
H499 H 0.38336 0.83403 0.67609 0.0
H500 H 0.39171 0.86184 0.77333 0.0
H501 H 0.38912 0.85211 0.72082 0.0
H502 H 0.31525 0.8059 0.73021 0.0
H503 H 0.31797 0.81707 0.78324 0.0
C504 C 0.33133 0.83862 0.64572 0.0
C505 C 0.35194 0.84782 0.62912 0.0
C506 C 0.33015 0.82969 0.67456 0.0
C507 C 0.34946 0.82937 0.687 0.0
C508 C 0.36858 0.83507 0.66804 0.0
C509 C 0.37009 0.84487 0.6397 0.0
C510 C 0.37497 0.84913 0.76441 0.0
C511 C 0.35493 0.84091 0.7821 0.0
C512 C 0.37343 0.84324 0.73404 0.0
C513 C 0.35177 0.82874 0.72053 0.0
C514 C 0.33213 0.81784 0.73942 0.0
C515 C 0.33368 0.82399 0.76998 0.0
H516 H 0.49207 0.3097 0.31694 0.0
H517 H 0.51523 0.38176 0.30068 0.0
H518 H 0.50588 0.30665 0.2669 0.0
H519 H 0.52845 0.37885 0.25115 0.0
H520 H 0.53647 0.37502 0.16089 0.0
H521 H 0.54809 0.37222 0.21212 0.0
H522 H 0.48665 0.30502 0.22111 0.0
H523 H 0.47612 0.30732 0.16945 0.0
C524 C 0.50086 0.32507 0.30311 0.0
C525 C 0.50198 0.3458 0.31216 0.0
C526 C 0.50868 0.32332 0.2744 0.0
C527 C 0.51773 0.34229 0.25453 0.0
C528 C 0.52162 0.36376 0.26553 0.0
C529 C 0.51375 0.36545 0.29396 0.0
C530 C 0.52619 0.35917 0.17341 0.0
C531 C 0.50508 0.34167 0.16176 0.0
C532 C 0.53274 0.35758 0.2028 0.0
C533 C 0.51771 0.33895 0.2213 0.0
C534 C 0.49858 0.3198 0.20781 0.0
C535 C 0.49241 0.32112 0.17809 0.0
H536 H 0.14846 0.46561 0.69023 0.0
H537 H 0.14625 0.52908 0.69321 0.0
H538 H 0.15726 0.46909 0.74378 0.0
H539 H 0.15699 0.53378 0.7464 0.0
H540 H 0.15836 0.46894 0.84237 0.0
H541 H 0.17412 0.48271 0.79174 0.0
H542 H 0.13028 0.5132 0.78354 0.0
H543 H 0.11552 0.50021 0.83354 0.0
C544 C 0.15115 0.481 0.70206 0.0
C545 C 0.14612 0.49679 0.68795 0.0
C546 C 0.15632 0.4831 0.73287 0.0
C547 C 0.15696 0.50129 0.74984 0.0
C548 C 0.15567 0.51903 0.73434 0.0
C549 C 0.14974 0.51652 0.70381 0.0
C550 C 0.15284 0.4793 0.82995 0.0
C551 C 0.13537 0.48309 0.84147 0.0
C552 C 0.1617 0.48706 0.8009 0.0
C553 C 0.15327 0.49879 0.78313 0.0
C554 C 0.13752 0.50448 0.79627 0.0
C555 C 0.12872 0.49673 0.82498 0.0
H556 H 0.66188 0.1415 0.3614 0.0
H557 H 0.5948 0.08387 0.33792 0.0
H558 H 0.66702 0.15525 0.30934 0.0
H559 H 0.60025 0.09676 0.2864 0.0
H560 H 0.60889 0.11743 0.19459 0.0
H561 H 0.60372 0.1218 0.24821 0.0
H562 H 0.67564 0.14268 0.26383 0.0
H563 H 0.68093 0.13996 0.20986 0.0
C564 C 0.64808 0.13199 0.34532 0.0
C565 C 0.62813 0.11133 0.3537 0.0
C566 C 0.65109 0.13978 0.31543 0.0
C567 C 0.63422 0.12702 0.29341 0.0
C568 C 0.61357 0.10734 0.30254 0.0
C569 C 0.61053 0.0997 0.33224 0.0
C570 C 0.62372 0.12383 0.20949 0.0
C571 C 0.64522 0.12821 0.19845 0.0
C572 C 0.62077 0.12612 0.24022 0.0
C573 C 0.63906 0.13186 0.26061 0.0
C574 C 0.66115 0.1383 0.24897 0.0
C575 C 0.66423 0.13666 0.21803 0.0
H576 H 0.18053 0.47931 -0.00296 0.0
H577 H 0.19507 0.44396 0.92592 0.0
H578 H 0.21621 0.48731 0.02264 0.0
H579 H 0.23032 0.45147 0.95175 0.0
H580 H 0.30136 0.48287 0.9925 0.0
H581 H 0.26863 0.48147 0.96611 0.0
H582 H 0.23058 0.46551 0.04992 0.0
H583 H 0.2635 0.46744 0.07644 0.0
C584 C 0.19137 0.47334 0.9868 0.0
C585 C 0.1849 0.4609 0.95951 0.0
C586 C 0.21175 0.47781 0.00155 0.0
C587 C 0.2261 0.46998 0.9893 0.0
C588 C 0.21986 0.45805 0.96163 0.0
C589 C 0.19953 0.45359 0.94691 0.0
C590 C 0.2861 0.47928 0.00536 0.0
C591 C 0.28497 0.47508 0.03654 0.0
C592 C 0.26729 0.47837 0.9902 0.0
C593 C 0.2469 0.47318 0.00584 0.0
C594 C 0.24609 0.46977 0.03722 0.0
C595 C 0.26493 0.47074 0.0524 0.0
H596 H 0.69413 0.17996 0.46662 0.0
H597 H 0.73055 0.14888 0.50848 0.0
H598 H 0.72416 0.21808 0.48432 0.0
H599 H 0.76036 0.18677 0.52592 0.0
H600 H 0.79406 0.25244 0.58157 0.0
H601 H 0.76262 0.21585 0.56318 0.0
H602 H 0.76712 0.24643 0.47591 0.0
H603 H 0.79877 0.2834 0.49436 0.0
C604 C 0.7085 0.18125 0.47958 0.0
C605 C 0.70992 0.16139 0.48626 0.0
C606 C 0.72572 0.20307 0.48954 0.0
C607 C 0.74451 0.20535 0.50662 0.0
C608 C 0.74592 0.1855 0.51314 0.0
C609 C 0.72888 0.16379 0.50301 0.0
C610 C 0.78834 0.2515 0.55849 0.0
C611 C 0.79908 0.27084 0.53936 0.0
C612 C 0.77037 0.23047 0.54793 0.0
C613 C 0.76258 0.22823 0.51804 0.0
C614 C 0.77274 0.2477 0.4991 0.0
C615 C 0.79091 0.26881 0.50963 0.0
H616 H 0.57609 0.81019 0.05821 0.0
H617 H 0.52496 0.81141 -0.00045 0.0
H618 H 0.56868 0.77386 0.0354 0.0
H619 H 0.51713 0.77478 0.97727 0.0
H620 H 0.53086 0.72524 0.92025 0.0
H621 H 0.53582 0.7602 0.94449 0.0
H622 H 0.53992 0.7333 0.03143 0.0
H623 H 0.53552 0.69851 0.00709 0.0
C624 C 0.56313 0.80261 0.04062 0.0
C625 C 0.5512 0.81376 0.03061 0.0
C626 C 0.55877 0.78169 0.02767 0.0
C627 C 0.54231 0.77139 0.00448 0.0
C628 C 0.53016 0.7824 -0.00522 0.0
C629 C 0.53457 0.80336 0.00766 0.0
C630 C 0.53269 0.7267 0.94456 0.0
C631 C 0.53291 0.70912 0.96172 0.0
C632 C 0.5354 0.74672 0.95849 0.0
C633 C 0.53834 0.7496 0.98991 0.0
C634 C 0.53806 0.73179 0.00713 0.0
C635 C 0.53539 0.71178 0.99319 0.0
H636 H 0.72784 0.57679 0.46074 0.0
H637 H 0.70579 0.51545 0.51477 0.0
H638 H 0.75671 0.57016 0.4363 0.0
H639 H 0.73442 0.50852 0.48976 0.0
H640 H 0.80929 0.52472 0.46928 0.0
H641 H 0.77628 0.52635 0.49 0.0
H642 H 0.76254 0.54507 0.40234 0.0
H643 H 0.79591 0.54397 0.38173 0.0
C644 C 0.72893 0.56171 0.46713 0.0
C645 C 0.71464 0.54676 0.48989 0.0
C646 C 0.7454 0.55781 0.45295 0.0
C647 C 0.74794 0.53885 0.46115 0.0
C648 C 0.73313 0.52347 0.48324 0.0
C649 C 0.71664 0.52738 0.49745 0.0
C650 C 0.79912 0.52899 0.45435 0.0
C651 C 0.80537 0.53444 0.42391 0.0
C652 C 0.78009 0.52978 0.4662 0.0
C653 C 0.76683 0.53596 0.44786 0.0
C654 C 0.77262 0.54062 0.41718 0.0
C655 C 0.79168 0.53988 0.40534 0.0
H656 H 0.26028 0.82797 0.94035 0.0
H657 H 0.29067 0.78551 0.91945 0.0
H658 H 0.2346 0.79938 0.97649 0.0
H659 H 0.26449 0.75653 0.95592 0.0
H660 H 0.18871 0.70273 -0.00495 0.0
H661 H 0.21973 0.72935 0.9615 0.0
H662 H 0.23979 0.78415 0.02688 0.0
H663 H 0.20893 0.75774 0.0604 0.0
C664 C 0.26145 0.81248 0.94338 0.0
C665 C 0.27755 0.80903 0.92704 0.0
C666 C 0.24685 0.79619 0.96432 0.0
C667 C 0.24781 0.77592 0.96927 0.0
C668 C 0.26351 0.77209 0.95254 0.0
C669 C 0.27844 0.78864 0.93173 0.0
C670 C 0.20003 0.72034 0.00253 0.0
C671 C 0.19611 0.72823 0.03018 0.0
C672 C 0.21783 0.73552 0.98336 0.0
C673 C 0.23186 0.75884 0.99146 0.0
C674 C 0.22894 0.76631 0.01994 0.0
C675 C 0.21131 0.75114 0.03916 0.0
H676 H 0.49054 0.21586 0.57791 0.0
H677 H 0.47123 0.18308 0.49032 0.0
H678 H 0.49869 0.25249 0.5555 0.0
H679 H 0.47858 0.21939 0.46811 0.0
H680 H 0.49936 0.2883 0.43064 0.0
H681 H 0.50489 0.25854 0.45454 0.0
H682 H 0.47435 0.26636 0.53664 0.0
H683 H 0.46958 0.29656 0.5131 0.0
C684 C 0.48828 0.21654 0.55381 0.0
C685 C 0.47991 0.19651 0.53594 0.0
C686 C 0.49285 0.2375 0.541 0.0
C687 C 0.48898 0.23884 0.51009 0.0
C688 C 0.48198 0.2191 0.49194 0.0
C689 C 0.4776 0.19819 0.50472 0.0
C690 C 0.49424 0.28395 0.45399 0.0
C691 C 0.48371 0.29452 0.46986 0.0
C692 C 0.49731 0.26682 0.46763 0.0
C693 C 0.48974 0.25979 0.49735 0.0
C694 C 0.48058 0.27145 0.5138 0.0
C695 C 0.4777 0.28871 0.50024 0.0
H696 H 0.79301 0.51694 0.04868 0.0
H697 H 0.82667 0.54109 0.96236 0.0
H698 H 0.75668 0.5105 0.02694 0.0
H699 H 0.79065 0.53542 0.9409 0.0
H700 H 0.71925 0.50953 0.90396 0.0
H701 H 0.75212 0.5083 0.92584 0.0
H702 H 0.74113 0.53399 0.01026 0.0
H703 H 0.7078 0.53444 0.98867 0.0
C704 C 0.79262 0.52076 0.02503 0.0
C705 C 0.81275 0.52969 0.00729 0.0
C706 C 0.77184 0.51721 0.01261 0.0
C707 C 0.77077 0.52266 0.98224 0.0
C708 C 0.79074 0.53078 0.96427 0.0
C709 C 0.81147 0.53416 0.97662 0.0
C710 C 0.72375 0.51473 0.92727 0.0
C711 C 0.71104 0.52225 0.94453 0.0
C712 C 0.74266 0.51412 0.93978 0.0
C713 C 0.7494 0.5212 0.96975 0.0
C714 C 0.73626 0.52812 0.98723 0.0
C715 C 0.71723 0.52854 0.97479 0.0
H716 H 0.19962 0.71243 0.44846 0.0
H717 H 0.19261 0.75888 0.38723 0.0
H718 H 0.23574 0.74452 0.46743 0.0
H719 H 0.22831 0.79109 0.40687 0.0
H720 H 0.3023 0.84225 0.43303 0.0
H721 H 0.26978 0.80826 0.40997 0.0
H722 H 0.24706 0.77784 0.49825 0.0
H723 H 0.27971 0.81124 0.52105 0.0
C724 C 0.20577 0.7295 0.43909 0.0
C725 C 0.19317 0.73315 0.41651 0.0
C726 C 0.22643 0.74792 0.45003 0.0
C727 C 0.23488 0.77043 0.4388 0.0
C728 C 0.2225 0.77395 0.41574 0.0
C729 C 0.20192 0.7555 0.40466 0.0
C730 C 0.29048 0.82817 0.44743 0.0
C731 C 0.29354 0.82951 0.47887 0.0
C732 C 0.27177 0.80877 0.43425 0.0
C733 C 0.25575 0.79034 0.45226 0.0
C734 C 0.25921 0.79151 0.48362 0.0
C735 C 0.2779 0.8108 0.49674 0.0
H736 H 0.4309 0.18269 0.91839 0.0
H737 H 0.47311 0.1802 0.99063 0.0
H738 H 0.43327 0.21717 0.9406 0.0
H739 H 0.4759 0.21511 0.01255 0.0
H740 H 0.45296 0.26167 0.05993 0.0
H741 H 0.45164 0.22762 0.03783 0.0
H742 H 0.46093 0.25775 0.94914 0.0
H743 H 0.46174 0.29168 0.97118 0.0
C744 C 0.44077 0.18955 0.93897 0.0
C745 C 0.45179 0.17868 0.95278 0.0
C746 C 0.44226 0.20943 0.95158 0.0
C747 C 0.45485 0.21894 0.97827 0.0
C748 C 0.46586 0.20806 0.99213 0.0
C749 C 0.46434 0.18812 0.97952 0.0
C750 C 0.45475 0.26108 0.0357 0.0
C751 C 0.45736 0.27936 0.01729 0.0
C752 C 0.45415 0.2416 0.02307 0.0
C753 C 0.45617 0.23996 0.99173 0.0
C754 C 0.45901 0.25835 0.97333 0.0
C755 C 0.45958 0.27784 0.98597 0.0
H756 H 0.17607 0.46752 0.53462 0.0
H757 H 0.18629 0.43894 0.61675 0.0
H758 H 0.20667 0.46356 0.51028 0.0
H759 H 0.21726 0.43542 0.59251 0.0
H760 H 0.24619 0.40325 0.52469 0.0
H761 H 0.21963 0.41115 0.5531 0.0
H762 H 0.24826 0.47799 0.51025 0.0
H763 H 0.27459 0.46991 0.48132 0.0
C764 C 0.18502 0.46064 0.54759 0.0
C765 C 0.17862 0.45337 0.57754 0.0
C766 C 0.20268 0.45852 0.5337 0.0
C767 C 0.21434 0.44911 0.54944 0.0
C768 C 0.20837 0.44244 0.57966 0.0
C769 C 0.1907 0.44456 0.59357 0.0
C770 C 0.24697 0.41972 0.52149 0.0
C771 C 0.26236 0.43587 0.50056 0.0
C772 C 0.23183 0.42431 0.53793 0.0
C773 C 0.23178 0.44516 0.53383 0.0
C774 C 0.24767 0.46162 0.51358 0.0
C775 C 0.26282 0.45704 0.49713 0.0
H776 H 0.78054 0.29182 0.96134 0.0
H777 H 0.8147 0.28798 0.04208 0.0
H778 H 0.74326 0.26315 0.98209 0.0
H779 H 0.77772 0.25869 0.06229 0.0
H780 H 0.70938 0.20813 0.09765 0.0
H781 H 0.74004 0.24597 0.08111 0.0
H782 H 0.72596 0.22277 0.98837 0.0
H783 H 0.69485 0.18548 0.00483 0.0
C784 C 0.78004 0.28504 0.98369 0.0
C785 C 0.80057 0.29184 -0.00011 0.0
C786 C 0.75869 0.26853 -0.00448 0.0
C787 C 0.75747 0.25826 0.02363 0.0
C788 C 0.77788 0.26632 0.04069 0.0
C789 C 0.79919 0.28304 0.02902 0.0
C790 C 0.71253 0.21134 0.0737 0.0
C791 C 0.69999 0.1937 0.05256 0.0
C792 C 0.73018 0.23298 0.06422 0.0
C793 C 0.7358 0.23734 0.03345 0.0
C794 C 0.72206 0.22019 0.01224 0.0
C795 C 0.70426 0.19867 0.02169 0.0
H796 H 0.49317 0.79728 0.49596 0.0
H797 H 0.4892 0.7791 0.4017 0.0
H798 H 0.48386 0.75851 0.5099 0.0
H799 H 0.47879 0.73975 0.4156 0.0
H800 H 0.51005 0.69613 0.454 0.0
H801 H 0.50224 0.72547 0.43443 0.0
H802 H 0.46069 0.71812 0.51314 0.0
H803 H 0.46951 0.68944 0.53334 0.0
C804 C 0.48948 0.78474 0.47819 0.0
C805 C 0.49249 0.79138 0.44777 0.0
C806 C 0.48397 0.76235 0.48617 0.0
C807 C 0.48105 0.74603 0.46386 0.0
C808 C 0.48159 0.75205 0.43336 0.0
C809 C 0.48742 0.77456 0.42539 0.0
C810 C 0.49881 0.70038 0.46679 0.0
C811 C 0.49084 0.69092 0.4955 0.0
C812 C 0.49415 0.71715 0.45547 0.0
C813 C 0.48114 0.72454 0.47246 0.0
C814 C 0.47128 0.71331 0.49984 0.0
C815 C 0.47624 0.6968 0.51136 0.0
H816 H 0.34075 0.40548 0.05532 0.0
H817 H 0.39754 0.46015 0.10463 0.0
H818 H 0.36303 0.38577 0.04892 0.0
H819 H 0.42023 0.44118 0.09729 0.0
H820 H 0.43881 0.3857 0.11857 0.0
H821 H 0.42008 0.40879 0.11762 0.0
H822 H 0.39482 0.38408 0.02754 0.0
H823 H 0.413 0.36007 0.0291 0.0
C824 C 0.35819 0.41349 0.06427 0.0
C825 C 0.36723 0.43404 0.08109 0.0
C826 C 0.37104 0.40228 0.06049 0.0
C827 C 0.39335 0.41165 0.07303 0.0
C828 C 0.40285 0.43304 0.08815 0.0
C829 C 0.38986 0.44398 0.09237 0.0
C830 C 0.42951 0.38537 0.09838 0.0
C831 C 0.42739 0.37104 0.07392 0.0
C832 C 0.41884 0.39877 0.09774 0.0
C833 C 0.40595 0.39845 0.07244 0.0
C834 C 0.40434 0.38455 0.04756 0.0
C835 C 0.41487 0.3709 0.04835 0.0
H836 H 0.04403 0.45526 0.60839 0.0
H837 H 0.0463 0.40532 0.54848 0.0
H838 H 0.00207 0.43481 0.605 0.0
H839 H 0.00411 0.38411 0.5461 0.0
H840 H 0.92635 0.35513 0.53764 0.0
H841 H 0.9681 0.38111 0.53168 0.0
H842 H 0.973 0.39997 0.6259 0.0
H843 H 0.9317 0.37486 0.63145 0.0
C844 C 0.03558 0.43997 0.59437 0.0
C845 C 0.04846 0.43173 0.57907 0.0
C846 C 0.01146 0.42812 0.59253 0.0
C847 C -0.0004 0.40747 0.57583 0.0
C848 C 0.0126 0.39999 0.55906 0.0
C849 C 0.03681 0.4121 0.56052 0.0
C850 C 0.93641 0.36505 0.55692 0.0
C851 C 0.92571 0.36306 0.58495 0.0
C852 C 0.96032 0.37986 0.55356 0.0
C853 C 0.97397 0.39282 0.57824 0.0
C854 C 0.96307 0.3908 0.60615 0.0
C855 C 0.9393 0.37622 0.60941 0.0
H856 H 0.61915 0.94966 0.01373 0.0
H857 H 0.55973 0.95311 0.04555 0.0
H858 H 0.64231 0.9921 0.01492 0.0
H859 H 0.58266 0.99541 0.04584 0.0
H860 H 0.66291 0.05282 0.09717 0.0
H861 H 0.64337 0.01332 0.07722 0.0
H862 H 0.61681 0.03484 0.00295 0.0
H863 H 0.63732 0.07486 0.02229 0.0
C864 C 0.61085 0.95953 0.01975 0.0
C865 C 0.58781 0.94828 0.02983 0.0
C866 C 0.62405 0.9837 0.02044 0.0
C867 C 0.61411 -0.00321 0.03031 0.0
C868 C 0.59054 0.98558 0.03783 0.0
C869 C 0.57752 0.96145 0.03789 0.0
C870 C 0.6534 0.04921 0.07616 0.0
C871 C 0.65163 0.06672 0.06111 0.0
C872 C 0.64236 0.02674 0.06473 0.0
C873 C 0.62887 0.0213 0.03852 0.0
C874 C 0.62745 0.03886 0.02299 0.0
C875 C 0.63912 0.0616 0.03399 0.0
H876 H 0.6262 0.58463 0.5972 0.0
H877 H 0.64475 0.60052 0.50334 0.0
H878 H 0.60354 0.60356 0.59492 0.0
H879 H 0.623 0.62124 0.50152 0.0
H880 H 0.58183 0.65554 0.59611 0.0
H881 H 0.60805 0.64031 0.59315 0.0
H882 H 0.58451 0.6162 0.50235 0.0
H883 H 0.5591 0.63298 0.50489 0.0
C884 C 0.62547 0.5922 0.57597 0.0
C885 C 0.63703 0.59072 0.55033 0.0
C886 C 0.61273 0.6035 0.5748 0.0
C887 C 0.6116 0.61425 0.54813 0.0
C888 C 0.62334 0.613 0.52238 0.0
C889 C 0.63594 0.6013 0.52347 0.0
C890 C 0.58242 0.64716 0.57541 0.0
C891 C 0.56827 0.64513 0.55088 0.0
C892 C 0.59734 0.63827 0.57374 0.0
C893 C 0.59801 0.62645 0.54778 0.0
C894 C 0.5845 0.62523 0.52266 0.0
C895 C 0.56987 0.6347 0.52412 0.0
H896 H 0.93559 0.61609 0.01909 0.0
H897 H 0.94717 0.56721 0.06871 0.0
H898 H 0.97716 0.63866 0.00759 0.0
H899 H 0.98832 0.5895 0.05738 0.0
H900 H 0.05894 0.62491 0.01771 0.0
H901 H 0.01663 0.60242 0.01346 0.0
H902 H 0.01233 0.66193 0.04293 0.0
H903 H 0.05462 0.68423 0.04732 0.0
C904 C 0.94698 0.61007 0.02722 0.0
C905 C 0.93834 0.59022 0.04533 0.0
C906 C 0.97068 0.62295 0.02071 0.0
C907 C 0.9859 0.6158 0.0316 0.0
C908 C 0.97696 0.59533 0.04849 0.0
C909 C 0.95345 0.58275 0.05541 0.0
C910 C 0.04888 0.63328 0.02229 0.0
C911 C 0.05974 0.6562 0.03253 0.0
C912 C 0.02478 0.62045 0.02005 0.0
C913 C 0.01126 0.63045 0.02798 0.0
C914 C 0.02235 0.6539 0.03635 0.0
C915 C 0.04645 0.66664 0.03889 0.0
H916 H 0.41407 0.07679 0.52811 0.0
H917 H 0.3954 0.05961 0.62168 0.0
H918 H 0.3977 0.03558 0.51629 0.0
H919 H 0.37871 0.01879 0.60989 0.0
H920 H 0.34788 0.95471 0.50846 0.0
H921 H 0.3618 0.99618 0.51484 0.0
H922 H 0.39694 -0.00372 0.59671 0.0
H923 H 0.38265 0.95534 0.59101 0.0
C924 C 0.40605 0.06419 0.54598 0.0
C925 C 0.4063 0.07136 0.57589 0.0
C926 C 0.39669 0.04064 0.53921 0.0
C927 C 0.38739 0.02401 0.56228 0.0
C928 C 0.38634 0.03123 0.59176 0.0
C929 C 0.39579 0.05461 0.5985 0.0
C930 C 0.35875 0.96371 0.52765 0.0
C931 C 0.3641 0.95167 0.54925 0.0
C932 C 0.36673 0.98742 0.53125 0.0
C933 C 0.38011 -0.00062 0.55656 0.0
C934 C 0.38619 0.98746 0.57735 0.0
C935 C 0.3782 0.96394 0.57384 0.0
H936 H 0.55405 0.60695 0.85852 0.0
H937 H 0.5761 0.63047 0.94976 0.0
H938 H 0.57326 0.5844 0.8602 0.0
H939 H 0.59487 0.60694 0.95197 0.0
H940 H 0.64988 0.58593 0.92674 0.0
H941 H 0.6275 0.6056 0.93228 0.0
H942 H 0.57191 0.55139 0.88037 0.0
H943 H 0.59474 0.53251 0.87382 0.0
C944 C 0.56264 0.60694 0.87924 0.0
C945 C 0.56346 0.62044 0.90407 0.0
C946 C 0.57359 0.59383 0.88028 0.0
C947 C 0.58548 0.59359 0.90633 0.0
C948 C 0.58605 0.60686 0.93143 0.0
C949 C 0.57521 0.62025 0.93026 0.0
C950 C 0.63277 0.57816 0.9168 0.0
C951 C 0.62424 0.55796 0.89928 0.0
C952 C 0.61987 0.58935 0.9201 0.0
C953 C 0.59802 0.58033 0.90632 0.0
C954 C 0.58896 0.55926 0.89049 0.0
C955 C 0.60202 0.54836 0.88675 0.0
H956 H 0.94228 0.59713 0.45775 0.0
H957 H 0.94202 0.53628 0.42412 0.0
H958 H 0.98467 0.61743 0.46048 0.0
H959 H 0.98411 0.55624 0.42719 0.0
H960 H 0.05136 0.61088 0.38198 0.0
H961 H 0.01065 0.58745 0.39352 0.0
H962 H 0.02187 0.62096 0.48031 0.0
H963 H 0.0633 0.64469 0.46872 0.0
C964 C 0.95127 0.58789 0.45188 0.0
C965 C 0.93906 0.56541 0.43993 0.0
C966 C 0.9755 0.59948 0.45346 0.0
C967 C 0.98771 0.58859 0.44333 0.0
C968 C 0.97519 0.56528 0.43435 0.0
C969 C 0.95112 0.55386 0.43251 0.0
C970 C 0.04541 0.61305 0.4038 0.0
C971 C 0.0607 0.62952 0.42454 0.0
C972 C 0.02197 0.5995 0.41048 0.0
C973 C 0.01307 0.60212 0.438 0.0
C974 C 0.02828 0.61854 0.45894 0.0
C975 C 0.05195 0.63206 0.45232 0.0
H976 H 0.45127 0.04775 0.90239 0.0
H977 H 0.39257 0.04238 0.95077 0.0
H978 H 0.43132 0.00608 0.89606 0.0
H979 H 0.37228 0.00025 0.94429 0.0
H980 H 0.35096 0.92221 0.9422 0.0
H981 H 0.37203 0.96332 0.95576 0.0
H982 H 0.39809 0.98031 0.86463 0.0
H983 H 0.37734 0.93963 0.85121 0.0
C984 C 0.43406 0.03768 0.91158 0.0
C985 C 0.42323 0.04837 0.92629 0.0
C986 C 0.42263 0.01376 0.90805 0.0
C987 C 0.40003 -5e-05 0.91906 0.0
C988 C 0.3897 0.01047 0.93553 0.0
C989 C 0.40127 0.03454 0.9392 0.0
C990 C 0.36123 0.93478 0.92514 0.0
C991 C 0.36275 0.92766 0.89574 0.0
C992 C 0.37321 0.95827 0.93288 0.0
C993 C 0.38695 0.97499 0.91138 0.0
C994 C 0.38811 0.96781 0.88192 0.0
C995 C 0.37616 0.94445 0.8742 0.0
H996 H 0.34893 0.39907 0.47833 0.0
H997 H 0.32929 0.38277 0.38491 0.0
H998 H 0.37287 0.38077 0.4744 0.0
H999 H 0.3517 0.36329 0.38131 0.0
H1000 H 0.41564 0.35884 0.36981 0.0
H1001 H 0.39052 0.37464 0.37771 0.0
H1002 H 0.37576 0.34672 0.46815 0.0
H1003 H 0.40264 0.33217 0.46078 0.0
C1004 C 0.34939 0.39113 0.45719 0.0
C1005 C 0.33763 0.39257 0.43179 0.0
C1006 C 0.36299 0.38056 0.45492 0.0
C1007 C 0.36464 0.37092 0.42733 0.0
C1008 C 0.35158 0.37122 0.4026 0.0
C1009 C 0.33855 0.38221 0.40469 0.0
C1010 C 0.40741 0.35631 0.39158 0.0
C1011 C 0.41147 0.34451 0.41478 0.0
C1012 C 0.39256 0.36506 0.39598 0.0
C1013 C 0.38077 0.36175 0.42347 0.0
C1014 C 0.38469 0.34979 0.44677 0.0
C1015 C 0.39996 0.34132 0.44248 0.0
H1016 H 0.0469 0.38075 0.98203 0.0
H1017 H 0.04116 0.43429 0.93521 0.0
H1018 H 0.00434 0.35801 0.98613 0.0
H1019 H -0.00081 0.41163 0.93862 0.0
H1020 H 0.93382 0.34826 0.90213 0.0
H1021 H 0.9754 0.36946 0.90988 0.0
H1022 H 0.96535 0.36286 0.00627 0.0
H1023 H 0.92307 0.34174 -0.00137 0.0
C1024 C 0.03659 0.38782 0.97318 0.0
C1025 C 0.04716 0.40886 0.95735 0.0
C1026 C 0.01236 0.37488 0.97554 0.0
C1027 C -0.00133 0.383 0.96219 0.0
C1028 C 0.00944 0.40487 0.94861 0.0
C1029 C 0.03344 0.4177 0.94632 0.0
C1030 C 0.94031 0.35129 0.92504 0.0
C1031 C 0.92513 0.34379 0.94979 0.0
C1032 C 0.96414 0.36334 0.92943 0.0
C1033 C 0.97343 0.36798 0.95863 0.0
C1034 C 0.95846 0.35947 0.98354 0.0
C1035 C 0.93438 0.34747 0.97914 0.0
H1036 H 0.55158 0.90792 0.486 0.0
H1037 H 0.61005 0.93107 0.42604 0.0
H1038 H 0.56758 0.9476 0.50523 0.0
H1039 H 0.62635 0.97032 0.44589 0.0
H1040 H 0.65527 0.0378 0.49392 0.0
H1041 H 0.64054 0.996 0.49682 0.0
H1042 H 0.57287 0.98296 0.46969 0.0
H1043 H 0.58769 0.02456 0.46617 0.0
C1044 C 0.56824 0.92132 0.47781 0.0
C1045 C 0.57965 0.91662 0.45458 0.0
C1046 C 0.57732 0.94393 0.48873 0.0
C1047 C 0.59823 0.96188 0.47714 0.0
C1048 C 0.61039 0.95672 0.4555 0.0
C1049 C 0.60102 0.93434 0.44404 0.0
C1050 C 0.63707 0.02595 0.48964 0.0
C1051 C 0.62262 0.03422 0.47944 0.0
C1052 C 0.6287 0.00213 0.49122 0.0
C1053 C 0.60563 0.98637 0.48338 0.0
C1054 C 0.59067 0.99476 0.47607 0.0
C1055 C 0.59918 0.01852 0.47379 0.0
H1056 H 0.48494 0.62619 0.97629 0.0
H1057 H 0.44934 0.56536 0.91992 0.0
H1058 H 0.45711 0.60602 0.01681 0.0
H1059 H 0.42176 0.54538 0.96025 0.0
H1060 H 0.36657 0.51843 0.03049 0.0
H1061 H 0.39028 0.54544 0.99112 0.0
H1062 H 0.45007 0.57229 0.04945 0.0
H1063 H 0.42647 0.54546 0.08886 0.0
C1064 C 0.47104 0.60866 0.97239 0.0
C1065 C 0.46948 0.59729 0.94499 0.0
C1066 C 0.45517 0.59712 -0.00439 0.0
C1067 C 0.43727 0.57415 0.99167 0.0
C1068 C 0.43519 0.56317 0.96383 0.0
C1069 C 0.45115 0.57457 0.94082 0.0
C1070 C 0.38465 0.53042 0.03519 0.0
C1071 C 0.3947 0.52955 0.06268 0.0
C1072 C 0.39823 0.54581 0.01257 0.0
C1073 C 0.42205 0.56078 0.01712 0.0
C1074 C 0.43173 0.56104 0.04534 0.0
C1075 C 0.41822 0.54554 0.06785 0.0
H1076 H 0.86334 0.41417 0.58914 0.0
H1077 H 0.84388 0.36011 0.5226 0.0
H1078 H 0.86028 0.43881 0.55134 0.0
H1079 H 0.84063 0.3849 0.4846 0.0
H1080 H 0.88293 0.4522 0.42583 0.0
H1081 H 0.87222 0.42056 0.46097 0.0
H1082 H 0.83561 0.44556 0.5157 0.0
H1083 H 0.84652 0.47754 0.48055 0.0
C1084 C 0.85793 0.40736 0.56655 0.0
C1085 C 0.85421 0.38534 0.55871 0.0
C1086 C 0.85596 0.42143 0.54494 0.0
C1087 C 0.8504 0.41386 0.51495 0.0
C1088 C 0.84517 0.39125 0.50752 0.0
C1089 C 0.84692 0.37703 0.52928 0.0
C1090 C 0.87232 0.45082 0.44511 0.0
C1091 C 0.86591 0.46763 0.45064 0.0
C1092 C 0.86596 0.4325 0.46509 0.0
C1093 C 0.85315 0.43063 0.49115 0.0
C1094 C 0.84565 0.4467 0.49589 0.0
C1095 C 0.85187 0.46498 0.47573 0.0
H1096 H 0.43354 0.88635 0.8834 0.0
H1097 H 0.37818 0.85492 0.94872 0.0
H1098 H 0.45994 0.88385 0.91914 0.0
H1099 H 0.40485 0.85262 0.98471 0.0
H1100 H 0.47198 0.89349 0.04631 0.0
H1101 H 0.44043 0.88535 0.01161 0.0
H1102 H 0.46706 0.85498 0.9485 0.0
H1103 H 0.49866 0.86298 0.98326 0.0
C1104 C 0.42694 0.87864 0.90528 0.0
C1105 C 0.40385 0.871 0.91337 0.0
C1106 C 0.44202 0.87705 0.92564 0.0
C1107 C 0.43442 0.86808 0.95466 0.0
C1108 C 0.41112 0.85968 0.96247 0.0
C1109 C 0.39589 0.86092 0.94187 0.0
C1110 C 0.47094 0.88476 0.02524 0.0
C1111 C 0.48797 0.87911 0.01739 0.0
C1112 C 0.45276 0.87994 0.0055 0.0
C1113 C 0.4514 0.86963 0.97736 0.0
C1114 C 0.46783 0.86306 0.97002 0.0
C1115 C 0.48585 0.86759 0.98995 0.0
H1116 H 0.52309 0.38144 0.45087 0.0
H1117 H 0.50006 0.42767 0.41827 0.0
H1118 H 0.55269 0.4129 0.48154 0.0
H1119 H 0.52943 0.45879 0.44887 0.0
H1120 H 0.56399 0.49736 0.53678 0.0
H1121 H 0.53581 0.46578 0.50552 0.0
H1122 H 0.5895 0.45316 0.47261 0.0
H1123 H 0.61798 0.48498 0.50391 0.0
C1124 C 0.52432 0.39825 0.45025 0.0
C1125 C 0.5092 0.40205 0.43218 0.0
C1126 C 0.54133 0.41625 0.46762 0.0
C1127 C 0.54325 0.4382 0.46754 0.0
C1128 C 0.52818 0.44197 0.44949 0.0
C1129 C 0.51143 0.42414 0.43189 0.0
C1130 C 0.56986 0.4879 0.5229 0.0
C1131 C 0.59324 0.4937 0.52278 0.0
C1132 C 0.55372 0.46989 0.50493 0.0
C1133 C 0.56053 0.4571 0.4867 0.0
C1134 C 0.58383 0.46271 0.48666 0.0
C1135 C 0.60011 0.48099 0.50437 0.0
H1136 H 0.08831 0.51866 0.92207 0.0
H1137 H 0.11505 0.50138 0.0005 0.0
H1138 H 0.0921 0.55261 0.94819 0.0
H1139 H 0.11842 0.53532 0.02689 0.0
H1140 H 0.08348 0.57651 0.06882 0.0
H1141 H 0.08578 0.54512 0.04359 0.0
H1142 H 0.12562 0.59153 0.97167 0.0
H1143 H 0.12372 0.62317 -0.00289 0.0
C1144 C 0.09509 0.52218 0.94486 0.0
C1145 C 0.10128 0.50734 0.95935 0.0
C1146 C 0.09739 0.54168 0.95969 0.0
C1147 C 0.10554 0.54649 0.98947 0.0
C1148 C 0.11205 0.53188 0.0039 0.0
C1149 C 0.1102 0.51258 0.98881 0.0
C1150 C 0.09284 0.58006 0.04771 0.0
C1151 C 0.10331 0.60226 0.03483 0.0
C1152 C 0.09431 0.56216 0.03346 0.0
C1153 C 0.10591 0.566 0.0058 0.0
C1154 C 0.11657 0.5882 0.99301 0.0
C1155 C 0.1155 0.60625 0.00756 0.0
H1156 H 0.50958 0.0947 0.60537 0.0
H1157 H 0.49836 0.13095 0.53255 0.0
H1158 H 0.53951 0.09283 0.57572 0.0
H1159 H 0.52809 0.12862 0.50266 0.0
H1160 H 0.55273 0.08128 0.452 0.0
H1161 H 0.52778 0.09102 0.48144 0.0
H1162 H 0.58035 0.1215 0.55035 0.0
H1163 H 0.60568 0.11218 0.52058 0.0
C1164 C 0.51363 0.1024 0.58312 0.0
C1165 C 0.50156 0.11285 0.57117 0.0
C1166 C 0.53086 0.10148 0.56629 0.0
C1167 C 0.53603 0.11059 0.537 0.0
C1168 C 0.52434 0.12147 0.52523 0.0
C1169 C 0.50742 0.12284 0.54232 0.0
C1170 C 0.55907 0.09026 0.4733 0.0
C1171 C 0.58108 0.09585 0.48412 0.0
C1172 C 0.54486 0.09598 0.48998 0.0
C1173 C 0.55222 0.107 0.51806 0.0
C1174 C 0.57436 0.11298 0.52872 0.0
C1175 C 0.58881 0.1077 0.5117 0.0
H1176 H 0.49475 0.37812 -0.00462 0.0
H1177 H 0.54838 0.40232 0.06282 0.0
H1178 H 0.52339 0.40042 0.95708 0.0
H1179 H 0.57763 0.42298 0.02433 0.0
H1180 H 0.61759 0.48392 0.96046 0.0
H1181 H 0.59236 0.45603 -0.00248 0.0
H1182 H 0.55317 0.40836 0.92558 0.0
H1183 H 0.57741 0.43746 0.88868 0.0
C1184 C 0.51287 0.38771 0.00167 0.0
C1185 C 0.5195 0.38881 0.03184 0.0
C1186 C 0.52943 0.4004 0.97972 0.0
C1187 C 0.55307 0.41391 0.9874 0.0
C1188 C 0.55965 0.41353 0.01751 0.0
C1189 C 0.54298 0.40149 0.03959 0.0
C1190 C 0.60377 0.4673 0.95272 0.0
C1191 C 0.59924 0.46284 0.92185 0.0
C1192 C 0.58928 0.45112 0.97398 0.0
C1193 C 0.57032 0.42979 0.96481 0.0
C1194 C 0.567 0.42479 0.9337 0.0
C1195 C 0.58105 0.44132 0.91247 0.0
H1196 H 0.14693 0.63166 0.47336 0.0
H1197 H 0.11592 0.57226 0.41401 0.0
H1198 H 0.15199 0.6084 0.51189 0.0
H1199 H 0.1208 0.54912 0.45245 0.0
H1200 H 0.11378 0.54745 0.58145 0.0
H1201 H 0.12216 0.5764 0.54285 0.0
H1202 H 0.14759 0.54234 0.48396 0.0
H1203 H 0.139 0.51308 0.52264 0.0
C1204 C 0.14166 0.61382 0.46826 0.0
C1205 C 0.13071 0.60372 0.44079 0.0
C1206 C 0.14446 0.60048 0.49038 0.0
C1207 C 0.1366 0.57689 0.4853 0.0
C1208 C 0.12719 0.56728 0.45701 0.0
C1209 C 0.12422 0.58052 0.43505 0.0
C1210 C 0.1215 0.54629 0.56047 0.0
C1211 C 0.1254 0.52774 0.55497 0.0
C1212 C 0.12651 0.56304 0.53843 0.0
C1213 C 0.13542 0.56158 0.5103 0.0
C1214 C 0.14053 0.54377 0.50536 0.0
C1215 C 0.13568 0.52707 0.52755 0.0
H1216 H 0.56847 0.07018 0.07433 0.0
H1217 H 0.61733 0.14261 0.05902 0.0
H1218 H 0.54064 0.0729 0.04162 0.0
H1219 H 0.5891 0.14518 0.02629 0.0
H1220 H 0.51831 0.13818 0.98947 0.0
H1221 H 0.54566 0.13894 0.02732 0.0
H1222 H 0.54466 0.08058 0.98361 0.0
H1223 H 0.51791 0.07986 0.946 0.0
C1224 C 0.5732 0.08678 0.06437 0.0
C1225 C 0.59526 0.10612 0.06906 0.0
C1226 C 0.55724 0.08828 0.04561 0.0
C1227 C 0.56285 0.1092 0.03135 0.0
C1228 C 0.58438 0.12889 0.03717 0.0
C1229 C 0.60054 0.12735 0.05574 0.0
C1230 C 0.52404 0.1256 0.98795 0.0
C1231 C 0.51594 0.10897 0.96472 0.0
C1232 C 0.53967 0.12609 0.00951 0.0
C1233 C 0.547 0.10967 0.00843 0.0
C1234 C 0.53903 0.09324 0.98513 0.0
C1235 C 0.52382 0.09297 0.96347 0.0
H1236 H 0.46955 0.60676 0.50442 0.0
H1237 H 0.46142 0.56032 0.57728 0.0
H1238 H 0.43966 0.57434 0.47572 0.0
H1239 H 0.43128 0.52793 0.54851 0.0
H1240 H 0.36107 0.48305 0.49732 0.0
H1241 H 0.39001 0.51541 0.52736 0.0
H1242 H 0.43723 0.53759 0.45194 0.0
H1243 H 0.40854 0.50518 0.42196 0.0
C1244 C 0.46127 0.58968 0.51443 0.0
C1245 C 0.4679 0.5861 0.54312 0.0
C1246 C 0.44426 0.57113 0.4979 0.0
C1247 C 0.43327 0.54868 0.50989 0.0
C1248 C 0.43945 0.54512 0.53884 0.0
C1249 C 0.45675 0.56363 0.55521 0.0
C1250 C 0.37762 0.49483 0.48715 0.0
C1251 C 0.38252 0.49155 0.45726 0.0
C1252 C 0.39418 0.51325 0.50439 0.0
C1253 C 0.41577 0.52897 0.4919 0.0
C1254 C 0.42063 0.52579 0.462 0.0
C1255 C 0.40425 0.50717 0.44494 0.0
H1256 H 0.9164 0.42531 0.94081 0.0
H1257 H 0.84846 0.37835 0.97676 0.0
H1258 H 0.91703 0.45703 0.96881 0.0
H1259 H 0.84921 0.41038 0.00482 0.0
H1260 H 0.85368 0.48214 0.02385 0.0
H1261 H 0.85061 0.44949 -0.00544 0.0
H1262 H 0.91872 0.46593 0.02472 0.0
H1263 H 0.92187 0.49827 0.05387 0.0
C1264 C 0.90154 0.42174 0.95455 0.0
C1265 C 0.88242 0.39923 0.95665 0.0
C1266 C 0.90197 0.43992 0.97067 0.0
C1267 C 0.88322 0.4361 0.98905 0.0
C1268 C 0.86383 0.41377 0.99067 0.0
C1269 C 0.86349 0.39545 0.97476 0.0
C1270 C 0.86796 0.47874 0.02424 0.0
C1271 C 0.88803 0.49283 0.04118 0.0
C1272 C 0.86614 0.46001 0.00761 0.0
C1273 C 0.88448 0.45532 0.0073 0.0
C1274 C 0.90443 0.46933 0.02431 0.0
C1275 C 0.90615 0.48778 0.04115 0.0
H1276 H 0.50581 0.92587 0.40665 0.0
H1277 H 0.47329 0.85337 0.42984 0.0
H1278 H 0.47418 0.92815 0.43091 0.0
H1279 H 0.44182 0.85583 0.45431 0.0
H1280 H 0.38147 0.86614 0.48311 0.0
H1281 H 0.4085 0.86331 0.44813 0.0
H1282 H 0.46464 0.92629 0.48528 0.0
H1283 H 0.43796 0.92919 0.51984 0.0
C1284 C 0.49177 0.91032 0.41646 0.0
C1285 C 0.49229 0.88951 0.41662 0.0
C1286 C 0.47369 0.91167 0.43046 0.0
C1287 C 0.45567 0.89223 0.4448 0.0
C1288 C 0.4554 0.87107 0.44331 0.0
C1289 C 0.47354 0.86972 0.42943 0.0
C1290 C 0.39955 0.87947 0.48354 0.0
C1291 C 0.40758 0.89778 0.50442 0.0
C1292 C 0.415 0.87781 0.46361 0.0
C1293 C 0.43867 0.89462 0.46391 0.0
C1294 C 0.44648 0.91323 0.48418 0.0
C1295 C 0.43117 0.91476 0.50422 0.0
loop_
_geom_bond_atom_site_label_1
_geom_bond_atom_site_label_2
_geom_bond_distance
_geom_bond_site_symmetry_2
_ccdc_geom_bond_type
Mg0 O1 2.028 . S
Mg0 O7 1.986 . S
Mg0 O9 2.114 . S
Mg0 O10 2.251 . S
Mg0 O13 2.010 . S
O1 Mg0 2.028 . S
O1 C4 1.250 . S
O2 Mg3 2.028 . S
O2 C4 1.248 . S
Mg3 O2 2.028 . S
Mg3 O8 2.032 . S
Mg3 O10 2.079 . S
C4 O1 1.250 . S
C4 O2 1.248 . S
C5 O6 1.264 . S
C5 O13 1.249 . S
O6 C5 1.264 . S
O7 Mg0 1.986 . S
O7 C11 1.246 . S
O8 Mg3 2.032 . S
O8 C11 1.259 . S
O9 Mg0 2.114 . S
O9 C12 1.252 . S
O10 Mg0 2.251 . S
O10 Mg3 2.079 . S
O10 C12 1.273 . S
C11 O7 1.246 . S
C11 O8 1.259 . S
C12 O9 1.252 . S
C12 O10 1.273 . S
O13 Mg0 2.010 . S
O13 C5 1.249 . S
Mg14 O15 2.028 . S
Mg14 O21 1.986 . S
Mg14 O23 2.114 . S
Mg14 O24 2.251 . S
Mg14 O27 2.010 . S
O15 Mg14 2.028 . S
O15 C18 1.250 . S
O16 Mg17 2.028 . S
O16 C18 1.248 . S
Mg17 O16 2.028 . S
Mg17 O22 2.032 . S
Mg17 O24 2.079 . S
C18 O15 1.250 . S
C18 O16 1.248 . S
C19 O20 1.264 . S
C19 O27 1.249 . S
O20 C19 1.264 . S
O21 Mg14 1.986 . S
O21 C25 1.246 . S
O22 Mg17 2.032 . S
O22 C25 1.259 . S
O23 Mg14 2.114 . S
O23 C26 1.252 . S
O24 Mg14 2.251 . S
O24 Mg17 2.079 . S
O24 C26 1.273 . S
C25 O21 1.246 . S
C25 O22 1.259 . S
C26 O23 1.252 . S
C26 O24 1.273 . S
O27 Mg14 2.010 . S
O27 C19 1.249 . S
Mg28 O29 2.028 . S
Mg28 O35 1.986 . S
Mg28 O37 2.114 . S
Mg28 O38 2.251 . S
Mg28 O41 2.010 . S
O29 Mg28 2.028 . S
O29 C32 1.250 . S
O30 Mg31 2.028 . S
O30 C32 1.248 . S
Mg31 O30 2.028 . S
Mg31 O36 2.032 . S
Mg31 O38 2.079 . S
C32 O29 1.250 . S
C32 O30 1.248 . S
C33 O34 1.264 . S
C33 O41 1.249 . S
O34 C33 1.264 . S
O35 Mg28 1.986 . S
O35 C39 1.246 . S
O36 Mg31 2.032 . S
O36 C39 1.259 . S
O37 Mg28 2.114 . S
O37 C40 1.252 . S
O38 Mg28 2.251 . S
O38 Mg31 2.079 . S
O38 C40 1.273 . S
C39 O35 1.246 . S
C39 O36 1.259 . S
C40 O37 1.252 . S
C40 O38 1.273 . S
O41 Mg28 2.010 . S
O41 C33 1.249 . S
Mg42 O43 2.028 . S
Mg42 O49 1.986 . S
Mg42 O51 2.114 . S
Mg42 O52 2.251 . S
Mg42 O55 2.010 . S
O43 Mg42 2.028 . S
O43 C46 1.250 . S
O44 Mg45 2.028 . S
O44 C46 1.248 . S
Mg45 O44 2.028 . S
Mg45 O50 2.032 . S
Mg45 O52 2.079 . S
C46 O43 1.250 . S
C46 O44 1.248 . S
C47 O48 1.264 . S
C47 O55 1.249 . S
O48 C47 1.264 . S
O49 Mg42 1.986 . S
O49 C53 1.246 . S
O50 Mg45 2.032 . S
O50 C53 1.259 . S
O51 Mg42 2.114 . S
O51 C54 1.252 . S
O52 Mg42 2.251 . S
O52 Mg45 2.079 . S
O52 C54 1.273 . S
C53 O49 1.246 . S
C53 O50 1.259 . S
C54 O51 1.252 . S
C54 O52 1.273 . S
O55 Mg42 2.010 . S
O55 C47 1.249 . S
Mg56 O57 2.028 . S
Mg56 O63 1.986 . S
Mg56 O65 2.114 . S
Mg56 O66 2.251 . S
Mg56 O69 2.010 . S
O57 Mg56 2.028 . S
O57 C60 1.250 . S
O58 Mg59 2.028 . S
O58 C60 1.248 . S
Mg59 O58 2.028 . S
Mg59 O64 2.032 . S
Mg59 O66 2.079 . S
C60 O57 1.250 . S
C60 O58 1.248 . S
C61 O62 1.264 . S
C61 O69 1.249 . S
O62 C61 1.264 . S
O63 Mg56 1.986 . S
O63 C67 1.246 . S
O64 Mg59 2.032 . S
O64 C67 1.259 . S
O65 Mg56 2.114 . S
O65 C68 1.252 . S
O66 Mg56 2.251 . S
O66 Mg59 2.079 . S
O66 C68 1.273 . S
C67 O63 1.246 . S
C67 O64 1.259 . S
C68 O65 1.252 . S
C68 O66 1.273 . S
O69 Mg56 2.010 . S
O69 C61 1.249 . S
Mg70 O71 2.028 . S
Mg70 O77 1.986 . S
Mg70 O79 2.114 . S
Mg70 O80 2.251 . S
Mg70 O83 2.010 . S
O71 Mg70 2.028 . S
O71 C74 1.250 . S
O72 Mg73 2.028 . S
O72 C74 1.248 . S
Mg73 O72 2.028 . S
Mg73 O78 2.032 . S
Mg73 O80 2.079 . S
C74 O71 1.250 . S
C74 O72 1.248 . S
C75 O76 1.264 . S
C75 O83 1.249 . S
O76 C75 1.264 . S
O77 Mg70 1.986 . S
O77 C81 1.246 . S
O78 Mg73 2.032 . S
O78 C81 1.259 . S
O79 Mg70 2.114 . S
O79 C82 1.252 . S
O80 Mg70 2.251 . S
O80 Mg73 2.079 . S
O80 C82 1.273 . S
C81 O77 1.246 . S
C81 O78 1.259 . S
C82 O79 1.252 . S
C82 O80 1.273 . S
O83 Mg70 2.010 . S
O83 C75 1.249 . S
Mg84 O85 2.028 . S
Mg84 O91 1.986 . S
Mg84 O93 2.114 . S
Mg84 O94 2.251 . S
Mg84 O97 2.010 . S
O85 Mg84 2.028 . S
O85 C88 1.250 . S
O86 Mg87 2.028 . S
O86 C88 1.248 . S
Mg87 O86 2.028 . S
Mg87 O92 2.032 . S
Mg87 O94 2.079 . S
C88 O85 1.250 . S
C88 O86 1.248 . S
C89 O90 1.264 . S
C89 O97 1.249 . S
O90 C89 1.264 . S
O91 Mg84 1.986 . S
O91 C95 1.246 . S
O92 Mg87 2.032 . S
O92 C95 1.259 . S
O93 Mg84 2.114 . S
O93 C96 1.252 . S
O94 Mg84 2.251 . S
O94 Mg87 2.079 . S
O94 C96 1.273 . S
C95 O91 1.246 . S
C95 O92 1.259 . S
C96 O93 1.252 . S
C96 O94 1.273 . S
O97 Mg84 2.010 . S
O97 C89 1.249 . S
Mg98 O99 2.028 . S
Mg98 O105 1.986 . S
Mg98 O107 2.114 . S
Mg98 O108 2.251 . S
Mg98 O111 2.010 . S
O99 Mg98 2.028 . S
O99 C102 1.250 . S
O100 Mg101 2.028 . S
O100 C102 1.248 . S
Mg101 O100 2.028 . S
Mg101 O106 2.032 . S
Mg101 O108 2.079 . S
C102 O99 1.250 . S
C102 O100 1.248 . S
C103 O104 1.264 . S
C103 O111 1.249 . S
O104 C103 1.264 . S
O105 Mg98 1.986 . S
O105 C109 1.246 . S
O106 Mg101 2.032 . S
O106 C109 1.259 . S
O107 Mg98 2.114 . S
O107 C110 1.252 . S
O108 Mg98 2.251 . S
O108 Mg101 2.079 . S
O108 C110 1.273 . S
C109 O105 1.246 . S
C109 O106 1.259 . S
C110 O107 1.252 . S
C110 O108 1.273 . S
O111 Mg98 2.010 . S
O111 C103 1.249 . S
Mg112 O113 2.028 . S
Mg112 O119 1.986 . S
Mg112 O121 2.114 . S
Mg112 O122 2.251 . S
Mg112 O125 2.010 . S
O113 Mg112 2.028 . S
O113 C116 1.250 . S
O114 Mg115 2.028 . S
O114 C116 1.248 . S
Mg115 O114 2.028 . S
Mg115 O120 2.032 . S
Mg115 O122 2.079 . S
C116 O113 1.250 . S
C116 O114 1.248 . S
C117 O118 1.264 . S
C117 O125 1.249 . S
O118 C117 1.264 . S
O119 Mg112 1.986 . S
O119 C123 1.246 . S
O120 Mg115 2.032 . S
O120 C123 1.259 . S
O121 Mg112 2.114 . S
O121 C124 1.252 . S
O122 Mg112 2.251 . S
O122 Mg115 2.079 . S
O122 C124 1.273 . S
C123 O119 1.246 . S
C123 O120 1.259 . S
C124 O121 1.252 . S
C124 O122 1.273 . S
O125 Mg112 2.010 . S
O125 C117 1.249 . S
Mg126 O127 2.028 . S
Mg126 O133 1.986 . S
Mg126 O135 2.114 . S
Mg126 O136 2.251 . S
Mg126 O139 2.010 . S
O127 Mg126 2.028 . S
O127 C130 1.250 . S
O128 Mg129 2.028 . S
O128 C130 1.248 . S
Mg129 O128 2.028 . S
Mg129 O134 2.032 . S
Mg129 O136 2.079 . S
C130 O127 1.250 . S
C130 O128 1.248 . S
C131 O132 1.264 . S
C131 O139 1.249 . S
O132 C131 1.264 . S
O133 Mg126 1.986 . S
O133 C137 1.246 . S
O134 Mg129 2.032 . S
O134 C137 1.259 . S
O135 Mg126 2.114 . S
O135 C138 1.252 . S
O136 Mg126 2.251 . S
O136 Mg129 2.079 . S
O136 C138 1.273 . S
C137 O133 1.246 . S
C137 O134 1.259 . S
C138 O135 1.252 . S
C138 O136 1.273 . S
O139 Mg126 2.010 . S
O139 C131 1.249 . S
Mg140 O141 2.028 . S
Mg140 O147 1.986 . S
Mg140 O149 2.114 . S
Mg140 O150 2.251 . S
Mg140 O153 2.010 . S
O141 Mg140 2.028 . S
O141 C144 1.250 . S
O142 Mg143 2.028 . S
O142 C144 1.248 . S
Mg143 O142 2.028 . S
Mg143 O148 2.032 . S
Mg143 O150 2.079 . S
C144 O141 1.250 . S
C144 O142 1.248 . S
C145 O146 1.264 . S
C145 O153 1.249 . S
O146 C145 1.264 . S
O147 Mg140 1.986 . S
O147 C151 1.246 . S
O148 Mg143 2.032 . S
O148 C151 1.259 . S
O149 Mg140 2.114 . S
O149 C152 1.252 . S
O150 Mg140 2.251 . S
O150 Mg143 2.079 . S
O150 C152 1.273 . S
C151 O147 1.246 . S
C151 O148 1.259 . S
C152 O149 1.252 . S
C152 O150 1.273 . S
O153 Mg140 2.010 . S
O153 C145 1.249 . S
Mg154 O155 2.028 . S
Mg154 O161 1.986 . S
Mg154 O163 2.114 . S
Mg154 O164 2.251 . S
Mg154 O167 2.010 . S
O155 Mg154 2.028 . S
O155 C158 1.250 . S
O156 Mg157 2.028 . S
O156 C158 1.248 . S
Mg157 O156 2.028 . S
Mg157 O162 2.032 . S
Mg157 O164 2.079 . S
C158 O155 1.250 . S
C158 O156 1.248 . S
C159 O160 1.264 . S
C159 O167 1.249 . S
O160 C159 1.264 . S
O161 Mg154 1.986 . S
O161 C165 1.246 . S
O162 Mg157 2.032 . S
O162 C165 1.259 . S
O163 Mg154 2.114 . S
O163 C166 1.252 . S
O164 Mg154 2.251 . S
O164 Mg157 2.079 . S
O164 C166 1.273 . S
C165 O161 1.246 . S
C165 O162 1.259 . S
C166 O163 1.252 . S
C166 O164 1.273 . S
O167 Mg154 2.010 . S
O167 C159 1.249 . S
Mg168 O169 2.028 . S
Mg168 O175 1.986 . S
Mg168 O177 2.114 . S
Mg168 O178 2.251 . S
Mg168 O181 2.010 . S
O169 Mg168 2.028 . S
O169 C172 1.250 . S
O170 Mg171 2.028 . S
O170 C172 1.248 . S
Mg171 O170 2.028 . S
Mg171 O176 2.032 . S
Mg171 O178 2.079 . S
C172 O169 1.250 . S
C172 O170 1.248 . S
C173 O174 1.264 . S
C173 O181 1.249 . S
O174 C173 1.264 . S
O175 Mg168 1.986 . S
O175 C179 1.246 . S
O176 Mg171 2.032 . S
O176 C179 1.259 . S
O177 Mg168 2.114 . S
O177 C180 1.252 . S
O178 Mg168 2.251 . S
O178 Mg171 2.079 . S
O178 C180 1.273 . S
C179 O175 1.246 . S
C179 O176 1.259 . S
C180 O177 1.252 . S
C180 O178 1.273 . S
O181 Mg168 2.010 . S
O181 C173 1.249 . S
Mg182 O183 2.028 . S
Mg182 O189 1.986 . S
Mg182 O191 2.114 . S
Mg182 O192 2.251 . S
Mg182 O195 2.010 . S
O183 Mg182 2.028 . S
O183 C186 1.250 . S
O184 Mg185 2.028 . S
O184 C186 1.248 . S
Mg185 O184 2.028 . S
Mg185 O190 2.032 . S
Mg185 O192 2.079 . S
C186 O183 1.250 . S
C186 O184 1.248 . S
C187 O188 1.264 . S
C187 O195 1.249 . S
O188 C187 1.264 . S
O189 Mg182 1.986 . S
O189 C193 1.246 . S
O190 Mg185 2.032 . S
O190 C193 1.259 . S
O191 Mg182 2.114 . S
O191 C194 1.252 . S
O192 Mg182 2.251 . S
O192 Mg185 2.079 . S
O192 C194 1.273 . S
C193 O189 1.246 . S
C193 O190 1.259 . S
C194 O191 1.252 . S
C194 O192 1.273 . S
O195 Mg182 2.010 . S
O195 C187 1.249 . S
Mg196 O197 2.028 . S
Mg196 O203 1.986 . S
Mg196 O205 2.114 . S
Mg196 O206 2.251 . S
Mg196 O209 2.010 . S
O197 Mg196 2.028 . S
O197 C200 1.250 . S
O198 Mg199 2.028 . S
O198 C200 1.248 . S
Mg199 O198 2.028 . S
Mg199 O204 2.032 . S
Mg199 O206 2.079 . S
C200 O197 1.250 . S
C200 O198 1.248 . S
C201 O202 1.264 . S
C201 O209 1.249 . S
O202 C201 1.264 . S
O203 Mg196 1.986 . S
O203 C207 1.246 . S
O204 Mg199 2.032 . S
O204 C207 1.259 . S
O205 Mg196 2.114 . S
O205 C208 1.252 . S
O206 Mg196 2.251 . S
O206 Mg199 2.079 . S
O206 C208 1.273 . S
C207 O203 1.246 . S
C207 O204 1.259 . S
C208 O205 1.252 . S
C208 O206 1.273 . S
O209 Mg196 2.010 . S
O209 C201 1.249 . S
Mg210 O211 2.028 . S
Mg210 O217 1.986 . S
Mg210 O219 2.114 . S
Mg210 O220 2.251 . S
Mg210 O223 2.010 . S
O211 Mg210 2.028 . S
O211 C214 1.250 . S
O212 Mg213 2.028 . S
O212 C214 1.248 . S
Mg213 O212 2.028 . S
Mg213 O218 2.032 . S
Mg213 O220 2.079 . S
C214 O211 1.250 . S
C214 O212 1.248 . S
C215 O216 1.264 . S
C215 O223 1.249 . S
O216 C215 1.264 . S
O217 Mg210 1.986 . S
O217 C221 1.246 . S
O218 Mg213 2.032 . S
O218 C221 1.259 . S
O219 Mg210 2.114 . S
O219 C222 1.252 . S
O220 Mg210 2.251 . S
O220 Mg213 2.079 . S
O220 C222 1.273 . S
C221 O217 1.246 . S
C221 O218 1.259 . S
C222 O219 1.252 . S
C222 O220 1.273 . S
O223 Mg210 2.010 . S
O223 C215 1.249 . S
Mg224 O225 2.028 . S
Mg224 O231 1.986 . S
Mg224 O233 2.114 . S
Mg224 O234 2.251 . S
Mg224 O237 2.010 . S
O225 Mg224 2.028 . S
O225 C228 1.250 . S
O226 Mg227 2.028 . S
O226 C228 1.248 . S
Mg227 O226 2.028 . S
Mg227 O232 2.032 . S
Mg227 O234 2.079 . S
C228 O225 1.250 . S
C228 O226 1.248 . S
C229 O230 1.264 . S
C229 O237 1.249 . S
O230 C229 1.264 . S
O231 Mg224 1.986 . S
O231 C235 1.246 . S
O232 Mg227 2.032 . S
O232 C235 1.259 . S
O233 Mg224 2.114 . S
O233 C236 1.252 . S
O234 Mg224 2.251 . S
O234 Mg227 2.079 . S
O234 C236 1.273 . S
C235 O231 1.246 . S
C235 O232 1.259 . S
C236 O233 1.252 . S
C236 O234 1.273 . S
O237 Mg224 2.010 . S
O237 C229 1.249 . S
Mg238 O239 2.028 . S
Mg238 O245 1.986 . S
Mg238 O247 2.114 . S
Mg238 O248 2.251 . S
Mg238 O251 2.010 . S
O239 Mg238 2.028 . S
O239 C242 1.250 . S
O240 Mg241 2.028 . S
O240 C242 1.248 . S
Mg241 O240 2.028 . S
Mg241 O246 2.032 . S
Mg241 O248 2.079 . S
C242 O239 1.250 . S
C242 O240 1.248 . S
C243 O244 1.264 . S
C243 O251 1.249 . S
O244 C243 1.264 . S
O245 Mg238 1.986 . S
O245 C249 1.246 . S
O246 Mg241 2.032 . S
O246 C249 1.259 . S
O247 Mg238 2.114 . S
O247 C250 1.252 . S
O248 Mg238 2.251 . S
O248 Mg241 2.079 . S
O248 C250 1.273 . S
C249 O245 1.246 . S
C249 O246 1.259 . S
C250 O247 1.252 . S
C250 O248 1.273 . S
O251 Mg238 2.010 . S
O251 C243 1.249 . S
Mg252 O253 2.028 . S
Mg252 O259 1.986 . S
Mg252 O261 2.114 . S
Mg252 O262 2.251 . S
Mg252 O265 2.010 . S
O253 Mg252 2.028 . S
O253 C256 1.250 . S
O254 Mg255 2.028 . S
O254 C256 1.248 . S
Mg255 O254 2.028 . S
Mg255 O260 2.032 . S
Mg255 O262 2.079 . S
C256 O253 1.250 . S
C256 O254 1.248 . S
C257 O258 1.264 . S
C257 O265 1.249 . S
O258 C257 1.264 . S
O259 Mg252 1.986 . S
O259 C263 1.246 . S
O260 Mg255 2.032 . S
O260 C263 1.259 . S
O261 Mg252 2.114 . S
O261 C264 1.252 . S
O262 Mg252 2.251 . S
O262 Mg255 2.079 . S
O262 C264 1.273 . S
C263 O259 1.246 . S
C263 O260 1.259 . S
C264 O261 1.252 . S
C264 O262 1.273 . S
O265 Mg252 2.010 . S
O265 C257 1.249 . S
Mg266 O267 2.028 . S
Mg266 O273 1.986 . S
Mg266 O275 2.114 . S
Mg266 O276 2.251 . S
Mg266 O279 2.010 . S
O267 Mg266 2.028 . S
O267 C270 1.250 . S
O268 Mg269 2.028 . S
O268 C270 1.248 . S
Mg269 O268 2.028 . S
Mg269 O274 2.032 . S
Mg269 O276 2.079 . S
C270 O267 1.250 . S
C270 O268 1.248 . S
C271 O272 1.264 . S
C271 O279 1.249 . S
O272 C271 1.264 . S
O273 Mg266 1.986 . S
O273 C277 1.246 . S
O274 Mg269 2.032 . S
O274 C277 1.259 . S
O275 Mg266 2.114 . S
O275 C278 1.252 . S
O276 Mg266 2.251 . S
O276 Mg269 2.079 . S
O276 C278 1.273 . S
C277 O273 1.246 . S
C277 O274 1.259 . S
C278 O275 1.252 . S
C278 O276 1.273 . S
O279 Mg266 2.010 . S
O279 C271 1.249 . S
Mg280 O281 2.028 . S
Mg280 O287 1.986 . S
Mg280 O289 2.114 . S
Mg280 O290 2.251 . S
Mg280 O293 2.010 . S
O281 Mg280 2.028 . S
O281 C284 1.250 . S
O282 Mg283 2.028 . S
O282 C284 1.248 . S
Mg283 O282 2.028 . S
Mg283 O288 2.032 . S
Mg283 O290 2.079 . S
C284 O281 1.250 . S
C284 O282 1.248 . S
C285 O286 1.264 . S
C285 O293 1.249 . S
O286 C285 1.264 . S
O287 Mg280 1.986 . S
O287 C291 1.246 . S
O288 Mg283 2.032 . S
O288 C291 1.259 . S
O289 Mg280 2.114 . S
O289 C292 1.252 . S
O290 Mg280 2.251 . S
O290 Mg283 2.079 . S
O290 C292 1.273 . S
C291 O287 1.246 . S
C291 O288 1.259 . S
C292 O289 1.252 . S
C292 O290 1.273 . S
O293 Mg280 2.010 . S
O293 C285 1.249 . S
Mg294 O295 2.028 . S
Mg294 O301 1.986 . S
Mg294 O303 2.114 . S
Mg294 O304 2.251 . S
Mg294 O307 2.010 . S
O295 Mg294 2.028 . S
O295 C298 1.250 . S
O296 Mg297 2.028 . S
O296 C298 1.248 . S
Mg297 O296 2.028 . S
Mg297 O302 2.032 . S
Mg297 O304 2.079 . S
C298 O295 1.250 . S
C298 O296 1.248 . S
C299 O300 1.264 . S
C299 O307 1.249 . S
O300 C299 1.264 . S
O301 Mg294 1.986 . S
O301 C305 1.246 . S
O302 Mg297 2.032 . S
O302 C305 1.259 . S
O303 Mg294 2.114 . S
O303 C306 1.252 . S
O304 Mg294 2.251 . S
O304 Mg297 2.079 . S
O304 C306 1.273 . S
C305 O301 1.246 . S
C305 O302 1.259 . S
C306 O303 1.252 . S
C306 O304 1.273 . S
O307 Mg294 2.010 . S
O307 C299 1.249 . S
Mg308 O309 2.028 . S
Mg308 O315 1.986 . S
Mg308 O317 2.114 . S
Mg308 O318 2.251 . S
Mg308 O321 2.010 . S
O309 Mg308 2.028 . S
O309 C312 1.250 . S
O310 Mg311 2.028 . S
O310 C312 1.248 . S
Mg311 O310 2.028 . S
Mg311 O316 2.032 . S
Mg311 O318 2.079 . S
C312 O309 1.250 . S
C312 O310 1.248 . S
C313 O314 1.264 . S
C313 O321 1.249 . S
O314 C313 1.264 . S
O315 Mg308 1.986 . S
O315 C319 1.246 . S
O316 Mg311 2.032 . S
O316 C319 1.259 . S
O317 Mg308 2.114 . S
O317 C320 1.252 . S
O318 Mg308 2.251 . S
O318 Mg311 2.079 . S
O318 C320 1.273 . S
C319 O315 1.246 . S
C319 O316 1.259 . S
C320 O317 1.252 . S
C320 O318 1.273 . S
O321 Mg308 2.010 . S
O321 C313 1.249 . S
Mg322 O323 2.028 . S
Mg322 O329 1.986 . S
Mg322 O331 2.114 . S
Mg322 O332 2.251 . S
Mg322 O335 2.010 . S
O323 Mg322 2.028 . S
O323 C326 1.250 . S
O324 Mg325 2.028 . S
O324 C326 1.248 . S
Mg325 O324 2.028 . S
Mg325 O330 2.032 . S
Mg325 O332 2.079 . S
C326 O323 1.250 . S
C326 O324 1.248 . S
C327 O328 1.264 . S
C327 O335 1.249 . S
O328 C327 1.264 . S
O329 Mg322 1.986 . S
O329 C333 1.246 . S
O330 Mg325 2.032 . S
O330 C333 1.259 . S
O331 Mg322 2.114 . S
O331 C334 1.252 . S
O332 Mg322 2.251 . S
O332 Mg325 2.079 . S
O332 C334 1.273 . S
C333 O329 1.246 . S
C333 O330 1.259 . S
C334 O331 1.252 . S
C334 O332 1.273 . S
O335 Mg322 2.010 . S
O335 C327 1.249 . S
H336 C344 0.950 . S
H337 C349 0.950 . S
H338 C346 0.950 . S
H339 C348 0.950 . S
H340 C350 0.950 . S
H341 C352 0.950 . S
H342 C354 0.950 . S
H343 C355 0.950 . S
C344 H336 0.950 . S
C344 C345 1.386 . S
C344 C346 1.391 . S
C345 C344 1.386 . S
C345 C349 1.393 . S
C346 H338 0.950 . S
C346 C344 1.391 . S
C346 C347 1.400 . S
C347 C346 1.400 . S
C347 C348 1.398 . S
C347 C353 1.491 . S
C348 H339 0.950 . S
C348 C347 1.398 . S
C348 C349 1.391 . S
C349 H337 0.950 . S
C349 C345 1.393 . S
C349 C348 1.391 . S
C350 H340 0.950 . S
C350 C351 1.386 . S
C350 C352 1.391 . S
C351 C350 1.386 . S
C351 C355 1.393 . S
C352 H341 0.950 . S
C352 C350 1.391 . S
C352 C353 1.400 . S
C353 C347 1.491 . S
C353 C352 1.400 . S
C353 C354 1.398 . S
C354 H342 0.950 . S
C354 C353 1.398 . S
C354 C355 1.391 . S
C355 H343 0.950 . S
C355 C351 1.393 . S
C355 C354 1.391 . S
H356 C364 0.950 . S
H357 C369 0.950 . S
H358 C366 0.950 . S
H359 C368 0.950 . S
H360 C370 0.950 . S
H361 C372 0.950 . S
H362 C374 0.950 . S
H363 C375 0.950 . S
C364 H356 0.950 . S
C364 C365 1.386 . S
C364 C366 1.391 . S
C365 C364 1.386 . S
C365 C369 1.393 . S
C366 H358 0.950 . S
C366 C364 1.391 . S
C366 C367 1.400 . S
C367 C366 1.400 . S
C367 C368 1.398 . S
C367 C373 1.491 . S
C368 H359 0.950 . S
C368 C367 1.398 . S
C368 C369 1.391 . S
C369 H357 0.950 . S
C369 C365 1.393 . S
C369 C368 1.391 . S
C370 H360 0.950 . S
C370 C371 1.386 . S
C370 C372 1.391 . S
C371 C370 1.386 . S
C371 C375 1.393 . S
C372 H361 0.950 . S
C372 C370 1.391 . S
C372 C373 1.400 . S
C373 C367 1.491 . S
C373 C372 1.400 . S
C373 C374 1.398 . S
C374 H362 0.950 . S
C374 C373 1.398 . S
C374 C375 1.391 . S
C375 H363 0.950 . S
C375 C371 1.393 . S
C375 C374 1.391 . S
H376 C384 0.950 . S
H377 C389 0.950 . S
H378 C386 0.950 . S
H379 C388 0.950 . S
H380 C390 0.950 . S
H381 C392 0.950 . S
H382 C394 0.950 . S
H383 C395 0.950 . S
C384 H376 0.950 . S
C384 C385 1.386 . S
C384 C386 1.391 . S
C385 C384 1.386 . S
C385 C389 1.393 . S
C386 H378 0.950 . S
C386 C384 1.391 . S
C386 C387 1.400 . S
C387 C386 1.400 . S
C387 C388 1.398 . S
C387 C393 1.491 . S
C388 H379 0.950 . S
C388 C387 1.398 . S
C388 C389 1.391 . S
C389 H377 0.950 . S
C389 C385 1.393 . S
C389 C388 1.391 . S
C390 H380 0.950 . S
C390 C391 1.386 . S
C390 C392 1.391 . S
C391 C390 1.386 . S
C391 C395 1.393 . S
C392 H381 0.950 . S
C392 C390 1.391 . S
C392 C393 1.400 . S
C393 C387 1.491 . S
C393 C392 1.400 . S
C393 C394 1.398 . S
C394 H382 0.950 . S
C394 C393 1.398 . S
C394 C395 1.391 . S
C395 H383 0.950 . S
C395 C391 1.393 . S
C395 C394 1.391 . S
H396 C404 0.950 . S
H397 C409 0.950 . S
H398 C406 0.950 . S
H399 C408 0.950 . S
H400 C410 0.950 . S
H401 C412 0.950 . S
H402 C414 0.950 . S
H403 C415 0.950 . S
C404 H396 0.950 . S
C404 C405 1.386 . S
C404 C406 1.391 . S
C405 C404 1.386 . S
C405 C409 1.393 . S
C406 H398 0.950 . S
C406 C404 1.391 . S
C406 C407 1.400 . S
C407 C406 1.400 . S
C407 C408 1.398 . S
C407 C413 1.491 . S
C408 H399 0.950 . S
C408 C407 1.398 . S
C408 C409 1.391 . S
C409 H397 0.950 . S
C409 C405 1.393 . S
C409 C408 1.391 . S
C410 H400 0.950 . S
C410 C411 1.386 . S
C410 C412 1.391 . S
C411 C410 1.386 . S
C411 C415 1.393 . S
C412 H401 0.950 . S
C412 C410 1.391 . S
C412 C413 1.400 . S
C413 C407 1.491 . S
C413 C412 1.400 . S
C413 C414 1.398 . S
C414 H402 0.950 . S
C414 C413 1.398 . S
C414 C415 1.391 . S
C415 H403 0.950 . S
C415 C411 1.393 . S
C415 C414 1.391 . S
H416 C424 0.950 . S
H417 C429 0.950 . S
H418 C426 0.950 . S
H419 C428 0.950 . S
H420 C430 0.950 . S
H421 C432 0.950 . S
H422 C434 0.950 . S
H423 C435 0.950 . S
C424 H416 0.950 . S
C424 C425 1.386 . S
C424 C426 1.391 . S
C425 C424 1.386 . S
C425 C429 1.393 . S
C426 H418 0.950 . S
C426 C424 1.391 . S
C426 C427 1.400 . S
C427 C426 1.400 . S
C427 C428 1.398 . S
C427 C433 1.491 . S
C428 H419 0.950 . S
C428 C427 1.398 . S
C428 C429 1.391 . S
C429 H417 0.950 . S
C429 C425 1.393 . S
C429 C428 1.391 . S
C430 H420 0.950 . S
C430 C431 1.386 . S
C430 C432 1.391 . S
C431 C430 1.386 . S
C431 C435 1.393 . S
C432 H421 0.950 . S
C432 C430 1.391 . S
C432 C433 1.400 . S
C433 C427 1.491 . S
C433 C432 1.400 . S
C433 C434 1.398 . S
C434 H422 0.950 . S
C434 C433 1.398 . S
C434 C435 1.391 . S
C435 H423 0.950 . S
C435 C431 1.393 . S
C435 C434 1.391 . S
H436 C444 0.950 . S
H437 C449 0.950 . S
H438 C446 0.950 . S
H439 C448 0.950 . S
H440 C450 0.950 . S
H441 C452 0.950 . S
H442 C454 0.950 . S
H443 C455 0.950 . S
C444 H436 0.950 . S
C444 C445 1.386 . S
C444 C446 1.391 . S
C445 C444 1.386 . S
C445 C449 1.393 . S
C446 H438 0.950 . S
C446 C444 1.391 . S
C446 C447 1.400 . S
C447 C446 1.400 . S
C447 C448 1.398 . S
C447 C453 1.491 . S
C448 H439 0.950 . S
C448 C447 1.398 . S
C448 C449 1.391 . S
C449 H437 0.950 . S
C449 C445 1.393 . S
C449 C448 1.391 . S
C450 H440 0.950 . S
C450 C451 1.386 . S
C450 C452 1.391 . S
C451 C450 1.386 . S
C451 C455 1.393 . S
C452 H441 0.950 . S
C452 C450 1.391 . S
C452 C453 1.400 . S
C453 C447 1.491 . S
C453 C452 1.400 . S
C453 C454 1.398 . S
C454 H442 0.950 . S
C454 C453 1.398 . S
C454 C455 1.391 . S
C455 H443 0.950 . S
C455 C451 1.393 . S
C455 C454 1.391 . S
H456 C464 0.950 . S
H457 C469 0.950 . S
H458 C466 0.950 . S
H459 C468 0.950 . S
H460 C470 0.950 . S
H461 C472 0.950 . S
H462 C474 0.950 . S
H463 C475 0.950 . S
C464 H456 0.950 . S
C464 C465 1.386 . S
C464 C466 1.391 . S
C465 C464 1.386 . S
C465 C469 1.393 . S
C466 H458 0.950 . S
C466 C464 1.391 . S
C466 C467 1.400 . S
C467 C466 1.400 . S
C467 C468 1.398 . S
C467 C473 1.491 . S
C468 H459 0.950 . S
C468 C467 1.398 . S
C468 C469 1.391 . S
C469 H457 0.950 . S
C469 C465 1.393 . S
C469 C468 1.391 . S
C470 H460 0.950 . S
C470 C471 1.386 . S
C470 C472 1.391 . S
C471 C470 1.386 . S
C471 C475 1.393 . S
C472 H461 0.950 . S
C472 C470 1.391 . S
C472 C473 1.400 . S
C473 C467 1.491 . S
C473 C472 1.400 . S
C473 C474 1.398 . S
C474 H462 0.950 . S
C474 C473 1.398 . S
C474 C475 1.391 . S
C475 H463 0.950 . S
C475 C471 1.393 . S
C475 C474 1.391 . S
H476 C484 0.950 . S
H477 C489 0.950 . S
H478 C486 0.950 . S
H479 C488 0.950 . S
H480 C490 0.950 . S
H481 C492 0.950 . S
H482 C494 0.950 . S
H483 C495 0.950 . S
C484 H476 0.950 . S
C484 C485 1.386 . S
C484 C486 1.391 . S
C485 C484 1.386 . S
C485 C489 1.393 . S
C486 H478 0.950 . S
C486 C484 1.391 . S
C486 C487 1.400 . S
C487 C486 1.400 . S
C487 C488 1.398 . S
C487 C493 1.491 . S
C488 H479 0.950 . S
C488 C487 1.398 . S
C488 C489 1.391 . S
C489 H477 0.950 . S
C489 C485 1.393 . S
C489 C488 1.391 . S
C490 H480 0.950 . S
C490 C491 1.386 . S
C490 C492 1.391 . S
C491 C490 1.386 . S
C491 C495 1.393 . S
C492 H481 0.950 . S
C492 C490 1.391 . S
C492 C493 1.400 . S
C493 C487 1.491 . S
C493 C492 1.400 . S
C493 C494 1.398 . S
C494 H482 0.950 . S
C494 C493 1.398 . S
C494 C495 1.391 . S
C495 H483 0.950 . S
C495 C491 1.393 . S
C495 C494 1.391 . S
H496 C504 0.950 . S
H497 C509 0.950 . S
H498 C506 0.950 . S
H499 C508 0.950 . S
H500 C510 0.950 . S
H501 C512 0.950 . S
H502 C514 0.950 . S
H503 C515 0.950 . S
C504 H496 0.950 . S
C504 C505 1.386 . S
C504 C506 1.391 . S
C505 C504 1.386 . S
C505 C509 1.393 . S
C506 H498 0.950 . S
C506 C504 1.391 . S
C506 C507 1.400 . S
C507 C506 1.400 . S
C507 C508 1.398 . S
C507 C513 1.491 . S
C508 H499 0.950 . S
C508 C507 1.398 . S
C508 C509 1.391 . S
C509 H497 0.950 . S
C509 C505 1.393 . S
C509 C508 1.391 . S
C510 H500 0.950 . S
C510 C511 1.386 . S
C510 C512 1.391 . S
C511 C510 1.386 . S
C511 C515 1.393 . S
C512 H501 0.950 . S
C512 C510 1.391 . S
C512 C513 1.400 . S
C513 C507 1.491 . S
C513 C512 1.400 . S
C513 C514 1.398 . S
C514 H502 0.950 . S
C514 C513 1.398 . S
C514 C515 1.391 . S
C515 H503 0.950 . S
C515 C511 1.393 . S
C515 C514 1.391 . S
H516 C524 0.950 . S
H517 C529 0.950 . S
H518 C526 0.950 . S
H519 C528 0.950 . S
H520 C530 0.950 . S
H521 C532 0.950 . S
H522 C534 0.950 . S
H523 C535 0.950 . S
C524 H516 0.950 . S
C524 C525 1.386 . S
C524 C526 1.391 . S
C525 C524 1.386 . S
C525 C529 1.393 . S
C526 H518 0.950 . S
C526 C524 1.391 . S
C526 C527 1.400 . S
C527 C526 1.400 . S
C527 C528 1.398 . S
C527 C533 1.491 . S
C528 H519 0.950 . S
C528 C527 1.398 . S
C528 C529 1.391 . S
C529 H517 0.950 . S
C529 C525 1.393 . S
C529 C528 1.391 . S
C530 H520 0.950 . S
C530 C531 1.386 . S
C530 C532 1.391 . S
C531 C530 1.386 . S
C531 C535 1.393 . S
C532 H521 0.950 . S
C532 C530 1.391 . S
C532 C533 1.400 . S
C533 C527 1.491 . S
C533 C532 1.400 . S
C533 C534 1.398 . S
C534 H522 0.950 . S
C534 C533 1.398 . S
C534 C535 1.391 . S
C535 H523 0.950 . S
C535 C531 1.393 . S
C535 C534 1.391 . S
H536 C544 0.950 . S
H537 C549 0.950 . S
H538 C546 0.950 . S
H539 C548 0.950 . S
H540 C550 0.950 . S
H541 C552 0.950 . S
H542 C554 0.950 . S
H543 C555 0.950 . S
C544 H536 0.950 . S
C544 C545 1.386 . S
C544 C546 1.391 . S
C545 C544 1.386 . S
C545 C549 1.393 . S
C546 H538 0.950 . S
C546 C544 1.391 . S
C546 C547 1.400 . S
C547 C546 1.400 . S
C547 C548 1.398 . S
C547 C553 1.491 . S
C548 H539 0.950 . S
C548 C547 1.398 . S
C548 C549 1.391 . S
C549 H537 0.950 . S
C549 C545 1.393 . S
C549 C548 1.391 . S
C550 H540 0.950 . S
C550 C551 1.386 . S
C550 C552 1.391 . S
C551 C550 1.386 . S
C551 C555 1.393 . S
C552 H541 0.950 . S
C552 C550 1.391 . S
C552 C553 1.400 . S
C553 C547 1.491 . S
C553 C552 1.400 . S
C553 C554 1.398 . S
C554 H542 0.950 . S
C554 C553 1.398 . S
C554 C555 1.391 . S
C555 H543 0.950 . S
C555 C551 1.393 . S
C555 C554 1.391 . S
H556 C564 0.950 . S
H557 C569 0.950 . S
H558 C566 0.950 . S
H559 C568 0.950 . S
H560 C570 0.950 . S
H561 C572 0.950 . S
H562 C574 0.950 . S
H563 C575 0.950 . S
C564 H556 0.950 . S
C564 C565 1.386 . S
C564 C566 1.391 . S
C565 C564 1.386 . S
C565 C569 1.393 . S
C566 H558 0.950 . S
C566 C564 1.391 . S
C566 C567 1.400 . S
C567 C566 1.400 . S
C567 C568 1.398 . S
C567 C573 1.491 . S
C568 H559 0.950 . S
C568 C567 1.398 . S
C568 C569 1.391 . S
C569 H557 0.950 . S
C569 C565 1.393 . S
C569 C568 1.391 . S
C570 H560 0.950 . S
C570 C571 1.386 . S
C570 C572 1.391 . S
C571 C570 1.386 . S
C571 C575 1.393 . S
C572 H561 0.950 . S
C572 C570 1.391 . S
C572 C573 1.400 . S
C573 C567 1.491 . S
C573 C572 1.400 . S
C573 C574 1.398 . S
C574 H562 0.950 . S
C574 C573 1.398 . S
C574 C575 1.391 . S
C575 H563 0.950 . S
C575 C571 1.393 . S
C575 C574 1.391 . S
H576 C584 0.950 . S
H577 C589 0.950 . S
H578 C586 0.950 1_554 S
H579 C588 0.950 . S
H580 C590 0.950 . S
H581 C592 0.950 1_556 S
H582 C594 0.950 . S
H583 C595 0.950 . S
C584 H576 0.950 . S
C584 C585 1.386 . S
C584 C586 1.391 . S
C585 C584 1.386 . S
C585 C589 1.393 . S
C586 H578 0.950 1_556 S
C586 C584 1.391 . S
C586 C587 1.400 . S
C587 C586 1.400 . S
C587 C588 1.398 . S
C587 C593 1.491 1_556 S
C588 H579 0.950 . S
C588 C587 1.398 . S
C588 C589 1.391 . S
C589 H577 0.950 . S
C589 C585 1.393 . S
C589 C588 1.391 . S
C590 H580 0.950 . S
C590 C591 1.386 . S
C590 C592 1.391 . S
C591 C590 1.386 . S
C591 C595 1.393 . S
C592 H581 0.950 1_554 S
C592 C590 1.391 . S
C592 C593 1.400 . S
C593 C587 1.491 1_554 S
C593 C592 1.400 . S
C593 C594 1.398 . S
C594 H582 0.950 . S
C594 C593 1.398 . S
C594 C595 1.391 . S
C595 H583 0.950 . S
C595 C591 1.393 . S
C595 C594 1.391 . S
H596 C604 0.950 . S
H597 C609 0.950 . S
H598 C606 0.950 . S
H599 C608 0.950 . S
H600 C610 0.950 . S
H601 C612 0.950 . S
H602 C614 0.950 . S
H603 C615 0.950 . S
C604 H596 0.950 . S
C604 C605 1.386 . S
C604 C606 1.391 . S
C605 C604 1.386 . S
C605 C609 1.393 . S
C606 H598 0.950 . S
C606 C604 1.391 . S
C606 C607 1.400 . S
C607 C606 1.400 . S
C607 C608 1.398 . S
C607 C613 1.491 . S
C608 H599 0.950 . S
C608 C607 1.398 . S
C608 C609 1.391 . S
C609 H597 0.950 . S
C609 C605 1.393 . S
C609 C608 1.391 . S
C610 H600 0.950 . S
C610 C611 1.386 . S
C610 C612 1.391 . S
C611 C610 1.386 . S
C611 C615 1.393 . S
C612 H601 0.950 . S
C612 C610 1.391 . S
C612 C613 1.400 . S
C613 C607 1.491 . S
C613 C612 1.400 . S
C613 C614 1.398 . S
C614 H602 0.950 . S
C614 C613 1.398 . S
C614 C615 1.391 . S
C615 H603 0.950 . S
C615 C611 1.393 . S
C615 C614 1.391 . S
H616 C624 0.950 . S
H617 C629 0.950 . S
H618 C626 0.950 . S
H619 C628 0.950 1_556 S
H620 C630 0.950 . S
H621 C632 0.950 . S
H622 C634 0.950 1_554 S
H623 C635 0.950 . S
C624 H616 0.950 . S
C624 C625 1.386 . S
C624 C626 1.391 . S
C625 C624 1.386 . S
C625 C629 1.393 . S
C626 H618 0.950 . S
C626 C624 1.391 . S
C626 C627 1.400 . S
C627 C626 1.400 . S
C627 C628 1.398 . S
C627 C633 1.491 1_554 S
C628 H619 0.950 1_554 S
C628 C627 1.398 . S
C628 C629 1.391 . S
C629 H617 0.950 . S
C629 C625 1.393 . S
C629 C628 1.391 . S
C630 H620 0.950 . S
C630 C631 1.386 . S
C630 C632 1.391 . S
C631 C630 1.386 . S
C631 C635 1.393 . S
C632 H621 0.950 . S
C632 C630 1.391 . S
C632 C633 1.400 . S
C633 C627 1.491 1_556 S
C633 C632 1.400 . S
C633 C634 1.398 . S
C634 H622 0.950 1_556 S
C634 C633 1.398 . S
C634 C635 1.391 . S
C635 H623 0.950 . S
C635 C631 1.393 . S
C635 C634 1.391 . S
H636 C644 0.950 . S
H637 C649 0.950 . S
H638 C646 0.950 . S
H639 C648 0.950 . S
H640 C650 0.950 . S
H641 C652 0.950 . S
H642 C654 0.950 . S
H643 C655 0.950 . S
C644 H636 0.950 . S
C644 C645 1.386 . S
C644 C646 1.391 . S
C645 C644 1.386 . S
C645 C649 1.393 . S
C646 H638 0.950 . S
C646 C644 1.391 . S
C646 C647 1.400 . S
C647 C646 1.400 . S
C647 C648 1.398 . S
C647 C653 1.491 . S
C648 H639 0.950 . S
C648 C647 1.398 . S
C648 C649 1.391 . S
C649 H637 0.950 . S
C649 C645 1.393 . S
C649 C648 1.391 . S
C650 H640 0.950 . S
C650 C651 1.386 . S
C650 C652 1.391 . S
C651 C650 1.386 . S
C651 C655 1.393 . S
C652 H641 0.950 . S
C652 C650 1.391 . S
C652 C653 1.400 . S
C653 C647 1.491 . S
C653 C652 1.400 . S
C653 C654 1.398 . S
C654 H642 0.950 . S
C654 C653 1.398 . S
C654 C655 1.391 . S
C655 H643 0.950 . S
C655 C651 1.393 . S
C655 C654 1.391 . S
H656 C664 0.950 . S
H657 C669 0.950 . S
H658 C666 0.950 . S
H659 C668 0.950 . S
H660 C670 0.950 . S
H661 C672 0.950 . S
H662 C674 0.950 . S
H663 C675 0.950 . S
C664 H656 0.950 . S
C664 C665 1.386 . S
C664 C666 1.391 . S
C665 C664 1.386 . S
C665 C669 1.393 . S
C666 H658 0.950 . S
C666 C664 1.391 . S
C666 C667 1.400 . S
C667 C666 1.400 . S
C667 C668 1.398 1_556 S
C667 C673 1.491 1_556 S
C668 H659 0.950 . S
C668 C667 1.398 1_554 S
C668 C669 1.391 1_554 S
C669 H657 0.950 . S
C669 C665 1.393 . S
C669 C668 1.391 1_556 S
C670 H660 0.950 . S
C670 C671 1.386 . S
C670 C672 1.391 . S
C671 C670 1.386 . S
C671 C675 1.393 . S
C672 H661 0.950 . S
C672 C670 1.391 . S
C672 C673 1.400 . S
C673 C667 1.491 1_554 S
C673 C672 1.400 . S
C673 C674 1.398 1_554 S
C674 H662 0.950 . S
C674 C673 1.398 1_556 S
C674 C675 1.391 1_556 S
C675 H663 0.950 . S
C675 C671 1.393 . S
C675 C674 1.391 1_554 S
H676 C684 0.950 . S
H677 C689 0.950 . S
H678 C686 0.950 . S
H679 C688 0.950 . S
H680 C690 0.950 . S
H681 C692 0.950 . S
H682 C694 0.950 . S
H683 C695 0.950 . S
C684 H676 0.950 . S
C684 C685 1.386 . S
C684 C686 1.391 . S
C685 C684 1.386 . S
C685 C689 1.393 . S
C686 H678 0.950 . S
C686 C684 1.391 . S
C686 C687 1.400 . S
C687 C686 1.400 . S
C687 C688 1.398 . S
C687 C693 1.491 . S
C688 H679 0.950 . S
C688 C687 1.398 . S
C688 C689 1.391 . S
C689 H677 0.950 . S
C689 C685 1.393 . S
C689 C688 1.391 . S
C690 H680 0.950 . S
C690 C691 1.386 . S
C690 C692 1.391 . S
C691 C690 1.386 . S
C691 C695 1.393 . S
C692 H681 0.950 . S
C692 C690 1.391 . S
C692 C693 1.400 . S
C693 C687 1.491 . S
C693 C692 1.400 . S
C693 C694 1.398 . S
C694 H682 0.950 . S
C694 C693 1.398 . S
C694 C695 1.391 . S
C695 H683 0.950 . S
C695 C691 1.393 . S
C695 C694 1.391 . S
H696 C704 0.950 . S
H697 C709 0.950 . S
H698 C706 0.950 . S
H699 C708 0.950 . S
H700 C710 0.950 . S
H701 C712 0.950 . S
H702 C714 0.950 . S
H703 C715 0.950 . S
C704 H696 0.950 . S
C704 C705 1.386 . S
C704 C706 1.391 . S
C705 C704 1.386 . S
C705 C709 1.393 1_554 S
C706 H698 0.950 . S
C706 C704 1.391 . S
C706 C707 1.400 . S
C707 C706 1.400 . S
C707 C708 1.398 1_554 S
C707 C713 1.491 1_554 S
C708 H699 0.950 . S
C708 C707 1.398 1_556 S
C708 C709 1.391 . S
C709 H697 0.950 . S
C709 C705 1.393 1_556 S
C709 C708 1.391 . S
C710 H700 0.950 . S
C710 C711 1.386 . S
C710 C712 1.391 . S
C711 C710 1.386 . S
C711 C715 1.393 1_556 S
C712 H701 0.950 . S
C712 C710 1.391 . S
C712 C713 1.400 . S
C713 C707 1.491 1_556 S
C713 C712 1.400 . S
C713 C714 1.398 1_556 S
C714 H702 0.950 . S
C714 C713 1.398 1_554 S
C714 C715 1.391 . S
C715 H703 0.950 . S
C715 C711 1.393 1_554 S
C715 C714 1.391 . S
H716 C724 0.950 . S
H717 C729 0.950 . S
H718 C726 0.950 . S
H719 C728 0.950 . S
H720 C730 0.950 . S
H721 C732 0.950 . S
H722 C734 0.950 . S
H723 C735 0.950 . S
C724 H716 0.950 . S
C724 C725 1.386 . S
C724 C726 1.391 . S
C725 C724 1.386 . S
C725 C729 1.393 . S
C726 H718 0.950 . S
C726 C724 1.391 . S
C726 C727 1.400 . S
C727 C726 1.400 . S
C727 C728 1.398 . S
C727 C733 1.491 . S
C728 H719 0.950 . S
C728 C727 1.398 . S
C728 C729 1.391 . S
C729 H717 0.950 . S
C729 C725 1.393 . S
C729 C728 1.391 . S
C730 H720 0.950 . S
C730 C731 1.386 . S
C730 C732 1.391 . S
C731 C730 1.386 . S
C731 C735 1.393 . S
C732 H721 0.950 . S
C732 C730 1.391 . S
C732 C733 1.400 . S
C733 C727 1.491 . S
C733 C732 1.400 . S
C733 C734 1.398 . S
C734 H722 0.950 . S
C734 C733 1.398 . S
C734 C735 1.391 . S
C735 H723 0.950 . S
C735 C731 1.393 . S
C735 C734 1.391 . S
H736 C744 0.950 . S
H737 C749 0.952 . S
H738 C746 0.950 . S
H739 C748 0.950 . S
H740 C750 0.950 . S
H741 C752 0.950 . S
H742 C754 0.950 . S
H743 C755 0.951 . S
C744 H736 0.950 . S
C744 C745 1.386 . S
C744 C746 1.391 . S
C745 C744 1.386 . S
C745 C749 1.393 . S
C746 H738 0.950 . S
C746 C744 1.391 . S
C746 C747 1.400 . S
C747 C746 1.400 . S
C747 C748 1.398 1_556 S
C747 C753 1.491 1_556 S
C748 H739 0.950 . S
C748 C747 1.398 1_554 S
C748 C749 1.391 1_554 S
C749 H737 0.952 . S
C749 C745 1.393 . S
C749 C748 1.391 1_556 S
C750 H740 0.950 . S
C750 C751 1.386 . S
C750 C752 1.391 . S
C751 C750 1.386 . S
C751 C755 1.393 . S
C752 H741 0.950 . S
C752 C750 1.391 . S
C752 C753 1.400 . S
C753 C747 1.491 1_554 S
C753 C752 1.400 . S
C753 C754 1.398 1_554 S
C754 H742 0.950 . S
C754 C753 1.398 1_556 S
C754 C755 1.391 1_556 S
C755 H743 0.951 . S
C755 C751 1.393 . S
C755 C754 1.391 1_554 S
H756 C764 0.950 . S
H757 C769 0.950 . S
H758 C766 0.950 . S
H759 C768 0.950 . S
H760 C770 0.950 . S
H761 C772 0.950 . S
H762 C774 0.950 . S
H763 C775 0.950 . S
C764 H756 0.950 . S
C764 C765 1.386 . S
C764 C766 1.391 . S
C765 C764 1.386 . S
C765 C769 1.393 . S
C766 H758 0.950 . S
C766 C764 1.391 . S
C766 C767 1.400 . S
C767 C766 1.400 . S
C767 C768 1.398 . S
C767 C773 1.491 . S
C768 H759 0.950 . S
C768 C767 1.398 . S
C768 C769 1.391 . S
C769 H757 0.950 . S
C769 C765 1.393 . S
C769 C768 1.391 . S
C770 H760 0.950 . S
C770 C771 1.386 . S
C770 C772 1.391 . S
C771 C770 1.386 . S
C771 C775 1.393 . S
C772 H761 0.950 . S
C772 C770 1.391 . S
C772 C773 1.400 . S
C773 C767 1.491 . S
C773 C772 1.400 . S
C773 C774 1.398 . S
C774 H762 0.950 . S
C774 C773 1.398 . S
C774 C775 1.391 . S
C775 H763 0.950 . S
C775 C771 1.393 . S
C775 C774 1.391 . S
H776 C784 0.950 . S
H777 C789 0.958 . S
H778 C786 0.950 . S
H779 C788 0.950 . S
H780 C790 0.950 . S
H781 C792 0.950 . S
H782 C794 0.950 . S
H783 C795 0.958 . S
C784 H776 0.950 . S
C784 C785 1.386 . S
C784 C786 1.391 . S
C785 C784 1.386 . S
C785 C789 1.379 1_556 S
C786 H778 0.950 . S
C786 C784 1.391 . S
C786 C787 1.400 . S
C787 C786 1.400 . S
C787 C788 1.398 1_556 S
C787 C793 1.491 1_556 S
C788 H779 0.950 . S
C788 C787 1.398 1_554 S
C788 C789 1.396 . S
C789 H777 0.958 . S
C789 C785 1.379 1_554 S
C789 C788 1.396 . S
C790 H780 0.950 . S
C790 C791 1.386 . S
C790 C792 1.391 . S
C791 C790 1.386 . S
C791 C795 1.379 1_554 S
C792 H781 0.950 . S
C792 C790 1.391 . S
C792 C793 1.400 . S
C793 C787 1.491 1_554 S
C793 C792 1.400 . S
C793 C794 1.398 1_554 S
C794 H782 0.950 . S
C794 C793 1.398 1_556 S
C794 C795 1.396 . S
C795 H783 0.958 . S
C795 C791 1.379 1_556 S
C795 C794 1.396 . S
H796 C804 0.950 . S
H797 C809 0.950 . S
H798 C806 0.950 . S
H799 C808 0.950 . S
H800 C810 0.950 . S
H801 C812 0.950 . S
H802 C814 0.950 . S
H803 C815 0.950 . S
C804 H796 0.950 . S
C804 C805 1.386 . S
C804 C806 1.391 . S
C805 C804 1.386 . S
C805 C809 1.393 . S
C806 H798 0.950 . S
C806 C804 1.391 . S
C806 C807 1.400 . S
C807 C806 1.400 . S
C807 C808 1.398 . S
C807 C813 1.491 . S
C808 H799 0.950 . S
C808 C807 1.398 . S
C808 C809 1.391 . S
C809 H797 0.950 . S
C809 C805 1.393 . S
C809 C808 1.391 . S
C810 H800 0.950 . S
C810 C811 1.386 . S
C810 C812 1.391 . S
C811 C810 1.386 . S
C811 C815 1.393 . S
C812 H801 0.950 . S
C812 C810 1.391 . S
C812 C813 1.400 . S
C813 C807 1.491 . S
C813 C812 1.400 . S
C813 C814 1.398 . S
C814 H802 0.950 . S
C814 C813 1.398 . S
C814 C815 1.391 . S
C815 H803 0.950 . S
C815 C811 1.393 . S
C815 C814 1.391 . S
H816 C824 0.950 . S
H817 C829 0.950 . S
H818 C826 0.950 . S
H819 C828 0.950 . S
H820 C830 0.950 . S
H821 C832 0.950 . S
H822 C834 0.950 . S
H823 C835 0.950 . S
C824 H816 0.950 . S
C824 C825 1.386 . S
C824 C826 1.391 . S
C825 C824 1.386 . S
C825 C829 1.393 . S
C826 H818 0.950 . S
C826 C824 1.391 . S
C826 C827 1.400 . S
C827 C826 1.400 . S
C827 C828 1.398 . S
C827 C833 1.491 . S
C828 H819 0.950 . S
C828 C827 1.398 . S
C828 C829 1.391 . S
C829 H817 0.950 . S
C829 C825 1.393 . S
C829 C828 1.391 . S
C830 H820 0.950 . S
C830 C831 1.386 . S
C830 C832 1.391 . S
C831 C830 1.386 . S
C831 C835 1.393 . S
C832 H821 0.950 . S
C832 C830 1.391 . S
C832 C833 1.400 . S
C833 C827 1.491 . S
C833 C832 1.400 . S
C833 C834 1.398 . S
C834 H822 0.950 . S
C834 C833 1.398 . S
C834 C835 1.391 . S
C835 H823 0.950 . S
C835 C831 1.393 . S
C835 C834 1.391 . S
H836 C844 0.950 . S
H837 C849 0.950 . S
H838 C846 0.950 . S
H839 C848 0.950 . S
H840 C850 0.950 . S
H841 C852 0.950 . S
H842 C854 0.950 . S
H843 C855 0.950 . S
C844 H836 0.950 . S
C844 C845 1.386 . S
C844 C846 1.391 . S
C845 C844 1.386 . S
C845 C849 1.393 . S
C846 H838 0.950 . S
C846 C844 1.391 . S
C846 C847 1.400 . S
C847 C846 1.400 . S
C847 C848 1.398 . S
C847 C853 1.491 1_455 S
C848 H839 0.950 . S
C848 C847 1.398 . S
C848 C849 1.391 . S
C849 H837 0.950 . S
C849 C845 1.393 . S
C849 C848 1.391 . S
C850 H840 0.950 . S
C850 C851 1.386 . S
C850 C852 1.391 . S
C851 C850 1.386 . S
C851 C855 1.393 . S
C852 H841 0.950 . S
C852 C850 1.391 . S
C852 C853 1.400 . S
C853 C847 1.491 1_655 S
C853 C852 1.400 . S
C853 C854 1.398 . S
C854 H842 0.950 . S
C854 C853 1.398 . S
C854 C855 1.391 . S
C855 H843 0.950 . S
C855 C851 1.393 . S
C855 C854 1.391 . S
H856 C864 0.950 . S
H857 C869 0.950 . S
H858 C866 0.950 . S
H859 C868 0.950 . S
H860 C870 0.950 . S
H861 C872 0.950 . S
H862 C874 0.950 . S
H863 C875 0.950 . S
C864 H856 0.950 . S
C864 C865 1.386 . S
C864 C866 1.391 . S
C865 C864 1.386 . S
C865 C869 1.393 . S
C866 H858 0.950 . S
C866 C864 1.391 . S
C866 C867 1.400 . S
C867 C866 1.400 . S
C867 C868 1.398 . S
C867 C873 1.491 1_565 S
C868 H859 0.950 . S
C868 C867 1.398 . S
C868 C869 1.391 . S
C869 H857 0.950 . S
C869 C865 1.393 . S
C869 C868 1.391 . S
C870 H860 0.950 . S
C870 C871 1.386 . S
C870 C872 1.391 . S
C871 C870 1.386 . S
C871 C875 1.393 . S
C872 H861 0.950 . S
C872 C870 1.391 . S
C872 C873 1.400 . S
C873 C867 1.491 1_545 S
C873 C872 1.400 . S
C873 C874 1.398 . S
C874 H862 0.950 . S
C874 C873 1.398 . S
C874 C875 1.391 . S
C875 H863 0.950 . S
C875 C871 1.393 . S
C875 C874 1.391 . S
H876 C884 0.950 . S
H877 C889 0.950 . S
H878 C886 0.950 . S
H879 C888 0.950 . S
H880 C890 0.950 . S
H881 C892 0.950 . S
H882 C894 0.950 . S
H883 C895 0.950 . S
C884 H876 0.950 . S
C884 C885 1.386 . S
C884 C886 1.391 . S
C885 C884 1.386 . S
C885 C889 1.393 . S
C886 H878 0.950 . S
C886 C884 1.391 . S
C886 C887 1.400 . S
C887 C886 1.400 . S
C887 C888 1.398 . S
C887 C893 1.491 . S
C888 H879 0.950 . S
C888 C887 1.398 . S
C888 C889 1.391 . S
C889 H877 0.950 . S
C889 C885 1.393 . S
C889 C888 1.391 . S
C890 H880 0.950 . S
C890 C891 1.386 . S
C890 C892 1.391 . S
C891 C890 1.386 . S
C891 C895 1.393 . S
C892 H881 0.950 . S
C892 C890 1.391 . S
C892 C893 1.400 . S
C893 C887 1.491 . S
C893 C892 1.400 . S
C893 C894 1.398 . S
C894 H882 0.950 . S
C894 C893 1.398 . S
C894 C895 1.391 . S
C895 H883 0.950 . S
C895 C891 1.393 . S
C895 C894 1.391 . S
H896 C904 0.950 . S
H897 C909 0.950 . S
H898 C906 0.950 . S
H899 C908 0.950 . S
H900 C910 0.950 . S
H901 C912 0.950 . S
H902 C914 0.950 . S
H903 C915 0.950 . S
C904 H896 0.950 . S
C904 C905 1.386 . S
C904 C906 1.391 . S
C905 C904 1.386 . S
C905 C909 1.393 . S
C906 H898 0.950 . S
C906 C904 1.391 . S
C906 C907 1.400 . S
C907 C906 1.400 . S
C907 C908 1.398 . S
C907 C913 1.491 1_655 S
C908 H899 0.950 . S
C908 C907 1.398 . S
C908 C909 1.391 . S
C909 H897 0.950 . S
C909 C905 1.393 . S
C909 C908 1.391 . S
C910 H900 0.950 . S
C910 C911 1.386 . S
C910 C912 1.391 . S
C911 C910 1.386 . S
C911 C915 1.393 . S
C912 H901 0.950 . S
C912 C910 1.391 . S
C912 C913 1.400 . S
C913 C907 1.491 1_455 S
C913 C912 1.400 . S
C913 C914 1.398 . S
C914 H902 0.950 . S
C914 C913 1.398 . S
C914 C915 1.391 . S
C915 H903 0.950 . S
C915 C911 1.393 . S
C915 C914 1.391 . S
H916 C924 0.950 . S
H917 C929 0.950 . S
H918 C926 0.950 . S
H919 C928 0.950 . S
H920 C930 0.950 . S
H921 C932 0.950 . S
H922 C934 0.950 . S
H923 C935 0.950 . S
C924 H916 0.950 . S
C924 C925 1.386 . S
C924 C926 1.391 . S
C925 C924 1.386 . S
C925 C929 1.393 . S
C926 H918 0.950 . S
C926 C924 1.391 . S
C926 C927 1.400 . S
C927 C926 1.400 . S
C927 C928 1.398 . S
C927 C933 1.491 1_545 S
C928 H919 0.950 . S
C928 C927 1.398 . S
C928 C929 1.391 . S
C929 H917 0.950 . S
C929 C925 1.393 . S
C929 C928 1.391 . S
C930 H920 0.950 . S
C930 C931 1.386 . S
C930 C932 1.391 . S
C931 C930 1.386 . S
C931 C935 1.393 . S
C932 H921 0.950 . S
C932 C930 1.391 . S
C932 C933 1.400 . S
C933 C927 1.491 1_565 S
C933 C932 1.400 . S
C933 C934 1.398 . S
C934 H922 0.950 . S
C934 C933 1.398 . S
C934 C935 1.391 . S
C935 H923 0.950 . S
C935 C931 1.393 . S
C935 C934 1.391 . S
H936 C944 0.950 . S
H937 C949 0.950 . S
H938 C946 0.950 . S
H939 C948 0.950 . S
H940 C950 0.950 . S
H941 C952 0.950 . S
H942 C954 0.950 . S
H943 C955 0.950 . S
C944 H936 0.950 . S
C944 C945 1.386 . S
C944 C946 1.391 . S
C945 C944 1.386 . S
C945 C949 1.393 . S
C946 H938 0.950 . S
C946 C944 1.391 . S
C946 C947 1.400 . S
C947 C946 1.400 . S
C947 C948 1.398 . S
C947 C953 1.491 . S
C948 H939 0.950 . S
C948 C947 1.398 . S
C948 C949 1.391 . S
C949 H937 0.950 . S
C949 C945 1.393 . S
C949 C948 1.391 . S
C950 H940 0.950 . S
C950 C951 1.386 . S
C950 C952 1.391 . S
C951 C950 1.386 . S
C951 C955 1.393 . S
C952 H941 0.950 . S
C952 C950 1.391 . S
C952 C953 1.400 . S
C953 C947 1.491 . S
C953 C952 1.400 . S
C953 C954 1.398 . S
C954 H942 0.950 . S
C954 C953 1.398 . S
C954 C955 1.391 . S
C955 H943 0.950 . S
C955 C951 1.393 . S
C955 C954 1.391 . S
H956 C964 0.950 . S
H957 C969 0.950 . S
H958 C966 0.950 . S
H959 C968 0.950 . S
H960 C970 0.950 . S
H961 C972 0.950 . S
H962 C974 0.950 . S
H963 C975 0.950 . S
C964 H956 0.950 . S
C964 C965 1.386 . S
C964 C966 1.391 . S
C965 C964 1.386 . S
C965 C969 1.393 . S
C966 H958 0.950 . S
C966 C964 1.391 . S
C966 C967 1.400 . S
C967 C966 1.400 . S
C967 C968 1.398 . S
C967 C973 1.491 1_655 S
C968 H959 0.950 . S
C968 C967 1.398 . S
C968 C969 1.391 . S
C969 H957 0.950 . S
C969 C965 1.393 . S
C969 C968 1.391 . S
C970 H960 0.950 . S
C970 C971 1.386 . S
C970 C972 1.391 . S
C971 C970 1.386 . S
C971 C975 1.393 . S
C972 H961 0.950 . S
C972 C970 1.391 . S
C972 C973 1.400 . S
C973 C967 1.491 1_455 S
C973 C972 1.400 . S
C973 C974 1.398 . S
C974 H962 0.950 . S
C974 C973 1.398 . S
C974 C975 1.391 . S
C975 H963 0.950 . S
C975 C971 1.393 . S
C975 C974 1.391 . S
H976 C984 0.950 . S
H977 C989 0.950 . S
H978 C986 0.950 . S
H979 C988 0.950 . S
H980 C990 0.950 . S
H981 C992 0.950 . S
H982 C994 0.950 . S
H983 C995 0.950 . S
C984 H976 0.950 . S
C984 C985 1.386 . S
C984 C986 1.391 . S
C985 C984 1.386 . S
C985 C989 1.393 . S
C986 H978 0.950 . S
C986 C984 1.391 . S
C986 C987 1.400 . S
C987 C986 1.400 . S
C987 C988 1.398 . S
C987 C993 1.491 1_545 S
C988 H979 0.950 . S
C988 C987 1.398 . S
C988 C989 1.391 . S
C989 H977 0.950 . S
C989 C985 1.393 . S
C989 C988 1.391 . S
C990 H980 0.950 . S
C990 C991 1.386 . S
C990 C992 1.391 . S
C991 C990 1.386 . S
C991 C995 1.393 . S
C992 H981 0.950 . S
C992 C990 1.391 . S
C992 C993 1.400 . S
C993 C987 1.491 1_565 S
C993 C992 1.400 . S
C993 C994 1.398 . S
C994 H982 0.950 . S
C994 C993 1.398 . S
C994 C995 1.391 . S
C995 H983 0.950 . S
C995 C991 1.393 . S
C995 C994 1.391 . S
H996 C1004 0.950 . S
H997 C1009 0.950 . S
H998 C1006 0.950 . S
H999 C1008 0.950 . S
H1000 C1010 0.950 . S
H1001 C1012 0.950 . S
H1002 C1014 0.950 . S
H1003 C1015 0.950 . S
C1004 H996 0.950 . S
C1004 C1005 1.386 . S
C1004 C1006 1.391 . S
C1005 C1004 1.386 . S
C1005 C1009 1.393 . S
C1006 H998 0.950 . S
C1006 C1004 1.391 . S
C1006 C1007 1.400 . S
C1007 C1006 1.400 . S
C1007 C1008 1.398 . S
C1007 C1013 1.491 . S
C1008 H999 0.950 . S
C1008 C1007 1.398 . S
C1008 C1009 1.391 . S
C1009 H997 0.950 . S
C1009 C1005 1.393 . S
C1009 C1008 1.391 . S
C1010 H1000 0.950 . S
C1010 C1011 1.386 . S
C1010 C1012 1.391 . S
C1011 C1010 1.386 . S
C1011 C1015 1.393 . S
C1012 H1001 0.950 . S
C1012 C1010 1.391 . S
C1012 C1013 1.400 . S
C1013 C1007 1.491 . S
C1013 C1012 1.400 . S
C1013 C1014 1.398 . S
C1014 H1002 0.950 . S
C1014 C1013 1.398 . S
C1014 C1015 1.391 . S
C1015 H1003 0.950 . S
C1015 C1011 1.393 . S
C1015 C1014 1.391 . S
H1016 C1024 0.950 . S
H1017 C1029 0.950 . S
H1018 C1026 0.950 . S
H1019 C1028 0.950 . S
H1020 C1030 0.950 . S
H1021 C1032 0.950 . S
H1022 C1034 0.950 . S
H1023 C1035 0.950 . S
C1024 H1016 0.950 . S
C1024 C1025 1.386 . S
C1024 C1026 1.391 . S
C1025 C1024 1.386 . S
C1025 C1029 1.393 . S
C1026 H1018 0.950 . S
C1026 C1024 1.391 . S
C1026 C1027 1.400 . S
C1027 C1026 1.400 . S
C1027 C1028 1.398 . S
C1027 C1033 1.491 1_455 S
C1028 H1019 0.950 . S
C1028 C1027 1.398 . S
C1028 C1029 1.391 . S
C1029 H1017 0.950 . S
C1029 C1025 1.393 . S
C1029 C1028 1.391 . S
C1030 H1020 0.950 . S
C1030 C1031 1.386 . S
C1030 C1032 1.391 . S
C1031 C1030 1.386 . S
C1031 C1035 1.393 . S
C1032 H1021 0.950 . S
C1032 C1030 1.391 . S
C1032 C1033 1.400 . S
C1033 C1027 1.491 1_655 S
C1033 C1032 1.400 . S
C1033 C1034 1.398 . S
C1034 H1022 0.950 . S
C1034 C1033 1.398 . S
C1034 C1035 1.391 . S
C1035 H1023 0.950 . S
C1035 C1031 1.393 . S
C1035 C1034 1.391 . S
H1036 C1044 0.950 . S
H1037 C1049 0.950 . S
H1038 C1046 0.950 . S
H1039 C1048 0.950 . S
H1040 C1050 0.950 . S
H1041 C1052 0.950 . S
H1042 C1054 0.950 . S
H1043 C1055 0.950 . S
C1044 H1036 0.950 . S
C1044 C1045 1.386 . S
C1044 C1046 1.391 . S
C1045 C1044 1.386 . S
C1045 C1049 1.393 . S
C1046 H1038 0.950 . S
C1046 C1044 1.391 . S
C1046 C1047 1.400 . S
C1047 C1046 1.400 . S
C1047 C1048 1.398 . S
C1047 C1053 1.491 1_565 S
C1048 H1039 0.950 . S
C1048 C1047 1.398 . S
C1048 C1049 1.391 . S
C1049 H1037 0.950 . S
C1049 C1045 1.393 . S
C1049 C1048 1.391 . S
C1050 H1040 0.950 . S
C1050 C1051 1.386 . S
C1050 C1052 1.391 . S
C1051 C1050 1.386 . S
C1051 C1055 1.393 . S
C1052 H1041 0.950 . S
C1052 C1050 1.391 . S
C1052 C1053 1.400 . S
C1053 C1047 1.491 1_545 S
C1053 C1052 1.400 . S
C1053 C1054 1.398 . S
C1054 H1042 0.950 . S
C1054 C1053 1.398 . S
C1054 C1055 1.391 . S
C1055 H1043 0.950 . S
C1055 C1051 1.393 . S
C1055 C1054 1.391 . S
H1056 C1064 0.950 . S
H1057 C1069 0.950 . S
H1058 C1066 0.950 . S
H1059 C1068 0.950 . S
H1060 C1070 0.950 . S
H1061 C1072 0.950 . S
H1062 C1074 0.950 . S
H1063 C1075 0.950 . S
C1064 H1056 0.950 . S
C1064 C1065 1.386 . S
C1064 C1066 1.391 . S
C1065 C1064 1.386 . S
C1065 C1069 1.393 . S
C1066 H1058 0.950 . S
C1066 C1064 1.391 . S
C1066 C1067 1.400 . S
C1067 C1066 1.400 . S
C1067 C1068 1.398 . S
C1067 C1073 1.491 1_556 S
C1068 H1059 0.950 . S
C1068 C1067 1.398 . S
C1068 C1069 1.391 . S
C1069 H1057 0.950 . S
C1069 C1065 1.393 . S
C1069 C1068 1.391 . S
C1070 H1060 0.950 . S
C1070 C1071 1.386 . S
C1070 C1072 1.391 . S
C1071 C1070 1.386 . S
C1071 C1075 1.393 . S
C1072 H1061 0.950 . S
C1072 C1070 1.391 . S
C1072 C1073 1.400 . S
C1073 C1067 1.491 1_554 S
C1073 C1072 1.400 . S
C1073 C1074 1.398 . S
C1074 H1062 0.950 . S
C1074 C1073 1.398 . S
C1074 C1075 1.391 . S
C1075 H1063 0.950 . S
C1075 C1071 1.393 . S
C1075 C1074 1.391 . S
H1076 C1084 0.950 . S
H1077 C1089 0.950 . S
H1078 C1086 0.950 . S
H1079 C1088 0.950 . S
H1080 C1090 0.950 . S
H1081 C1092 0.950 . S
H1082 C1094 0.950 . S
H1083 C1095 0.950 . S
C1084 H1076 0.950 . S
C1084 C1085 1.386 . S
C1084 C1086 1.391 . S
C1085 C1084 1.386 . S
C1085 C1089 1.393 . S
C1086 H1078 0.950 . S
C1086 C1084 1.391 . S
C1086 C1087 1.400 . S
C1087 C1086 1.400 . S
C1087 C1088 1.398 . S
C1087 C1093 1.491 . S
C1088 H1079 0.950 . S
C1088 C1087 1.398 . S
C1088 C1089 1.391 . S
C1089 H1077 0.950 . S
C1089 C1085 1.393 . S
C1089 C1088 1.391 . S
C1090 H1080 0.950 . S
C1090 C1091 1.386 . S
C1090 C1092 1.391 . S
C1091 C1090 1.386 . S
C1091 C1095 1.393 . S
C1092 H1081 0.950 . S
C1092 C1090 1.391 . S
C1092 C1093 1.400 . S
C1093 C1087 1.491 . S
C1093 C1092 1.400 . S
C1093 C1094 1.398 . S
C1094 H1082 0.950 . S
C1094 C1093 1.398 . S
C1094 C1095 1.391 . S
C1095 H1083 0.950 . S
C1095 C1091 1.393 . S
C1095 C1094 1.391 . S
H1096 C1104 0.950 . S
H1097 C1109 0.950 . S
H1098 C1106 0.950 . S
H1099 C1108 0.950 1_554 S
H1100 C1110 0.950 . S
H1101 C1112 0.950 . S
H1102 C1114 0.950 1_556 S
H1103 C1115 0.950 . S
C1104 H1096 0.950 . S
C1104 C1105 1.386 . S
C1104 C1106 1.391 . S
C1105 C1104 1.386 . S
C1105 C1109 1.393 . S
C1106 H1098 0.950 . S
C1106 C1104 1.391 . S
C1106 C1107 1.400 . S
C1107 C1106 1.400 . S
C1107 C1108 1.398 . S
C1107 C1113 1.491 1_556 S
C1108 H1099 0.950 1_556 S
C1108 C1107 1.398 . S
C1108 C1109 1.391 . S
C1109 H1097 0.950 . S
C1109 C1105 1.393 . S
C1109 C1108 1.391 . S
C1110 H1100 0.950 . S
C1110 C1111 1.386 . S
C1110 C1112 1.391 . S
C1111 C1110 1.386 . S
C1111 C1115 1.393 . S
C1112 H1101 0.950 . S
C1112 C1110 1.391 . S
C1112 C1113 1.400 . S
C1113 C1107 1.491 1_554 S
C1113 C1112 1.400 . S
C1113 C1114 1.398 . S
C1114 H1102 0.950 1_554 S
C1114 C1113 1.398 . S
C1114 C1115 1.391 . S
C1115 H1103 0.950 . S
C1115 C1111 1.393 . S
C1115 C1114 1.391 . S
H1116 C1124 0.950 . S
H1117 C1129 0.950 . S
H1118 C1126 0.950 . S
H1119 C1128 0.950 . S
H1120 C1130 0.950 . S
H1121 C1132 0.950 . S
H1122 C1134 0.950 . S
H1123 C1135 0.950 . S
C1124 H1116 0.950 . S
C1124 C1125 1.386 . S
C1124 C1126 1.391 . S
C1125 C1124 1.386 . S
C1125 C1129 1.393 . S
C1126 H1118 0.950 . S
C1126 C1124 1.391 . S
C1126 C1127 1.400 . S
C1127 C1126 1.400 . S
C1127 C1128 1.398 . S
C1127 C1133 1.491 . S
C1128 H1119 0.950 . S
C1128 C1127 1.398 . S
C1128 C1129 1.391 . S
C1129 H1117 0.950 . S
C1129 C1125 1.393 . S
C1129 C1128 1.391 . S
C1130 H1120 0.950 . S
C1130 C1131 1.386 . S
C1130 C1132 1.391 . S
C1131 C1130 1.386 . S
C1131 C1135 1.393 . S
C1132 H1121 0.950 . S
C1132 C1130 1.391 . S
C1132 C1133 1.400 . S
C1133 C1127 1.491 . S
C1133 C1132 1.400 . S
C1133 C1134 1.398 . S
C1134 H1122 0.950 . S
C1134 C1133 1.398 . S
C1134 C1135 1.391 . S
C1135 H1123 0.950 . S
C1135 C1131 1.393 . S
C1135 C1134 1.391 . S
H1136 C1144 0.950 . S
H1137 C1149 0.950 . S
H1138 C1146 0.950 . S
H1139 C1148 0.950 . S
H1140 C1150 0.950 . S
H1141 C1152 0.950 . S
H1142 C1154 0.950 . S
H1143 C1155 0.950 . S
C1144 H1136 0.950 . S
C1144 C1145 1.386 . S
C1144 C1146 1.391 . S
C1145 C1144 1.386 . S
C1145 C1149 1.393 . S
C1146 H1138 0.950 . S
C1146 C1144 1.391 . S
C1146 C1147 1.400 . S
C1147 C1146 1.400 . S
C1147 C1148 1.398 . S
C1147 C1153 1.491 1_556 S
C1148 H1139 0.950 . S
C1148 C1147 1.398 . S
C1148 C1149 1.391 . S
C1149 H1137 0.950 . S
C1149 C1145 1.393 . S
C1149 C1148 1.391 . S
C1150 H1140 0.950 . S
C1150 C1151 1.386 . S
C1150 C1152 1.391 . S
C1151 C1150 1.386 . S
C1151 C1155 1.393 . S
C1152 H1141 0.950 . S
C1152 C1150 1.391 . S
C1152 C1153 1.400 . S
C1153 C1147 1.491 1_554 S
C1153 C1152 1.400 . S
C1153 C1154 1.398 . S
C1154 H1142 0.950 . S
C1154 C1153 1.398 . S
C1154 C1155 1.391 . S
C1155 H1143 0.950 . S
C1155 C1151 1.393 . S
C1155 C1154 1.391 . S
H1156 C1164 0.950 . S
H1157 C1169 0.950 . S
H1158 C1166 0.950 . S
H1159 C1168 0.950 . S
H1160 C1170 0.950 . S
H1161 C1172 0.950 . S
H1162 C1174 0.950 . S
H1163 C1175 0.950 . S
C1164 H1156 0.950 . S
C1164 C1165 1.386 . S
C1164 C1166 1.391 . S
C1165 C1164 1.386 . S
C1165 C1169 1.393 . S
C1166 H1158 0.950 . S
C1166 C1164 1.391 . S
C1166 C1167 1.400 . S
C1167 C1166 1.400 . S
C1167 C1168 1.398 . S
C1167 C1173 1.491 . S
C1168 H1159 0.950 . S
C1168 C1167 1.398 . S
C1168 C1169 1.391 . S
C1169 H1157 0.950 . S
C1169 C1165 1.393 . S
C1169 C1168 1.391 . S
C1170 H1160 0.950 . S
C1170 C1171 1.386 . S
C1170 C1172 1.391 . S
C1171 C1170 1.386 . S
C1171 C1175 1.393 . S
C1172 H1161 0.950 . S
C1172 C1170 1.391 . S
C1172 C1173 1.400 . S
C1173 C1167 1.491 . S
C1173 C1172 1.400 . S
C1173 C1174 1.398 . S
C1174 H1162 0.950 . S
C1174 C1173 1.398 . S
C1174 C1175 1.391 . S
C1175 H1163 0.950 . S
C1175 C1171 1.393 . S
C1175 C1174 1.391 . S
H1176 C1184 0.950 1_556 S
H1177 C1189 0.950 . S
H1178 C1186 0.950 . S
H1179 C1188 0.950 . S
H1180 C1190 0.950 1_554 S
H1181 C1192 0.950 . S
H1182 C1194 0.950 . S
H1183 C1195 0.950 . S
C1184 H1176 0.950 1_554 S
C1184 C1185 1.386 . S
C1184 C1186 1.391 1_554 S
C1185 C1184 1.386 . S
C1185 C1189 1.393 . S
C1186 H1178 0.950 . S
C1186 C1184 1.391 1_556 S
C1186 C1187 1.400 1_556 S
C1187 C1186 1.400 1_554 S
C1187 C1188 1.398 . S
C1187 C1193 1.491 1_554 S
C1188 H1179 0.950 . S
C1188 C1187 1.398 . S
C1188 C1189 1.391 . S
C1189 H1177 0.950 . S
C1189 C1185 1.393 . S
C1189 C1188 1.391 . S
C1190 H1180 0.950 1_556 S
C1190 C1191 1.386 . S
C1190 C1192 1.391 1_556 S
C1191 C1190 1.386 . S
C1191 C1195 1.393 . S
C1192 H1181 0.950 . S
C1192 C1190 1.391 1_554 S
C1192 C1193 1.400 1_554 S
C1193 C1187 1.491 1_556 S
C1193 C1192 1.400 1_556 S
C1193 C1194 1.398 . S
C1194 H1182 0.950 . S
C1194 C1193 1.398 . S
C1194 C1195 1.391 . S
C1195 H1183 0.950 . S
C1195 C1191 1.393 . S
C1195 C1194 1.391 . S
H1196 C1204 0.950 . S
H1197 C1209 0.950 . S
H1198 C1206 0.950 . S
H1199 C1208 0.950 . S
H1200 C1210 0.950 . S
H1201 C1212 0.950 . S
H1202 C1214 0.950 . S
H1203 C1215 0.950 . S
C1204 H1196 0.950 . S
C1204 C1205 1.386 . S
C1204 C1206 1.391 . S
C1205 C1204 1.386 . S
C1205 C1209 1.393 . S
C1206 H1198 0.950 . S
C1206 C1204 1.391 . S
C1206 C1207 1.400 . S
C1207 C1206 1.400 . S
C1207 C1208 1.398 . S
C1207 C1213 1.491 . S
C1208 H1199 0.950 . S
C1208 C1207 1.398 . S
C1208 C1209 1.391 . S
C1209 H1197 0.950 . S
C1209 C1205 1.393 . S
C1209 C1208 1.391 . S
C1210 H1200 0.950 . S
C1210 C1211 1.386 . S
C1210 C1212 1.391 . S
C1211 C1210 1.386 . S
C1211 C1215 1.393 . S
C1212 H1201 0.950 . S
C1212 C1210 1.391 . S
C1212 C1213 1.400 . S
C1213 C1207 1.491 . S
C1213 C1212 1.400 . S
C1213 C1214 1.398 . S
C1214 H1202 0.950 . S
C1214 C1213 1.398 . S
C1214 C1215 1.391 . S
C1215 H1203 0.950 . S
C1215 C1211 1.393 . S
C1215 C1214 1.391 . S
H1216 C1224 0.950 1_556 S
H1217 C1229 0.950 . S
H1218 C1226 0.950 . S
H1219 C1228 0.950 . S
H1220 C1230 0.950 1_554 S
H1221 C1232 0.950 . S
H1222 C1234 0.950 . S
H1223 C1235 0.950 . S
C1224 H1216 0.950 1_554 S
C1224 C1225 1.386 . S
C1224 C1226 1.391 1_554 S
C1225 C1224 1.386 . S
C1225 C1229 1.393 . S
C1226 H1218 0.950 . S
C1226 C1224 1.391 1_556 S
C1226 C1227 1.400 1_556 S
C1227 C1226 1.400 1_554 S
C1227 C1228 1.398 . S
C1227 C1233 1.491 1_554 S
C1228 H1219 0.950 . S
C1228 C1227 1.398 . S
C1228 C1229 1.391 . S
C1229 H1217 0.950 . S
C1229 C1225 1.393 . S
C1229 C1228 1.391 . S
C1230 H1220 0.950 1_556 S
C1230 C1231 1.386 . S
C1230 C1232 1.391 1_556 S
C1231 C1230 1.386 . S
C1231 C1235 1.393 . S
C1232 H1221 0.950 . S
C1232 C1230 1.391 1_554 S
C1232 C1233 1.400 1_554 S
C1233 C1227 1.491 1_556 S
C1233 C1232 1.400 1_556 S
C1233 C1234 1.398 . S
C1234 H1222 0.950 . S
C1234 C1233 1.398 . S
C1234 C1235 1.391 . S
C1235 H1223 0.950 . S
C1235 C1231 1.393 . S
C1235 C1234 1.391 . S
H1236 C1244 0.950 . S
H1237 C1249 0.950 . S
H1238 C1246 0.950 . S
H1239 C1248 0.950 . S
H1240 C1250 0.950 . S
H1241 C1252 0.950 . S
H1242 C1254 0.950 . S
H1243 C1255 0.950 . S
C1244 H1236 0.950 . S
C1244 C1245 1.386 . S
C1244 C1246 1.391 . S
C1245 C1244 1.386 . S
C1245 C1249 1.393 . S
C1246 H1238 0.950 . S
C1246 C1244 1.391 . S
C1246 C1247 1.400 . S
C1247 C1246 1.400 . S
C1247 C1248 1.398 . S
C1247 C1253 1.491 . S
C1248 H1239 0.950 . S
C1248 C1247 1.398 . S
C1248 C1249 1.391 . S
C1249 H1237 0.950 . S
C1249 C1245 1.393 . S
C1249 C1248 1.391 . S
C1250 H1240 0.950 . S
C1250 C1251 1.386 . S
C1250 C1252 1.391 . S
C1251 C1250 1.386 . S
C1251 C1255 1.393 . S
C1252 H1241 0.950 . S
C1252 C1250 1.391 . S
C1252 C1253 1.400 . S
C1253 C1247 1.491 . S
C1253 C1252 1.400 . S
C1253 C1254 1.398 . S
C1254 H1242 0.950 . S
C1254 C1253 1.398 . S
C1254 C1255 1.391 . S
C1255 H1243 0.950 . S
C1255 C1251 1.393 . S
C1255 C1254 1.391 . S
H1256 C1264 0.950 1_554 S
H1257 C1269 0.950 . S
H1258 C1266 0.950 . S
H1259 C1268 0.950 . S
H1260 C1270 0.950 1_556 S
H1261 C1272 0.950 . S
H1262 C1274 0.950 . S
H1263 C1275 0.950 . S
C1264 H1256 0.950 1_556 S
C1264 C1265 1.386 . S
C1264 C1266 1.391 1_556 S
C1265 C1264 1.386 . S
C1265 C1269 1.393 . S
C1266 H1258 0.950 . S
C1266 C1264 1.391 1_554 S
C1266 C1267 1.400 1_554 S
C1267 C1266 1.400 1_556 S
C1267 C1268 1.398 . S
C1267 C1273 1.491 1_556 S
C1268 H1259 0.950 . S
C1268 C1267 1.398 . S
C1268 C1269 1.391 . S
C1269 H1257 0.950 . S
C1269 C1265 1.393 . S
C1269 C1268 1.391 . S
C1270 H1260 0.950 1_554 S
C1270 C1271 1.386 . S
C1270 C1272 1.391 1_554 S
C1271 C1270 1.386 . S
C1271 C1275 1.393 . S
C1272 H1261 0.950 . S
C1272 C1270 1.391 1_556 S
C1272 C1273 1.400 1_556 S
C1273 C1267 1.491 1_554 S
C1273 C1272 1.400 1_554 S
C1273 C1274 1.398 . S
C1274 H1262 0.950 . S
C1274 C1273 1.398 . S
C1274 C1275 1.391 . S
C1275 H1263 0.950 . S
C1275 C1271 1.393 . S
C1275 C1274 1.391 . S
H1276 C1284 0.950 . S
H1277 C1289 0.950 . S
H1278 C1286 0.950 . S
H1279 C1288 0.950 . S
H1280 C1290 0.950 . S
H1281 C1292 0.950 . S
H1282 C1294 0.950 . S
H1283 C1295 0.950 . S
C1284 H1276 0.950 . S
C1284 C1285 1.386 . S
C1284 C1286 1.391 . S
C1285 C1284 1.386 . S
C1285 C1289 1.393 . S
C1286 H1278 0.950 . S
C1286 C1284 1.391 . S
C1286 C1287 1.400 . S
C1287 C1286 1.400 . S
C1287 C1288 1.398 . S
C1287 C1293 1.491 . S
C1288 H1279 0.950 . S
C1288 C1287 1.398 . S
C1288 C1289 1.391 . S
C1289 H1277 0.950 . S
C1289 C1285 1.393 . S
C1289 C1288 1.391 . S
C1290 H1280 0.950 . S
C1290 C1291 1.386 . S
C1290 C1292 1.391 . S
C1291 C1290 1.386 . S
C1291 C1295 1.393 . S
C1292 H1281 0.950 . S
C1292 C1290 1.391 . S
C1292 C1293 1.400 . S
C1293 C1287 1.491 . S
C1293 C1292 1.400 . S
C1293 C1294 1.398 . S
C1294 H1282 0.950 . S
C1294 C1293 1.398 . S
C1294 C1295 1.391 . S
C1295 H1283 0.950 . S
C1295 C1291 1.393 . S
C1295 C1294 1.391 . S
C345 C11 1.440 . S
C351 C221 1.462 . S
C365 C25 1.462 . S
C371 C235 1.441 . S
C385 C249 1.458 . S
C391 C39 1.445 . S
C405 C179 1.459 . S
C411 C53 1.443 . S
C425 C193 1.456 . S
C431 C67 1.448 . S
C445 C207 1.450 . S
C451 C81 1.453 . S
C465 C305 1.458 . S
C471 C95 1.444 . S
C485 C109 1.449 . S
C491 C319 1.454 . S
C505 C333 1.462 . S
C511 C123 1.441 . S
C525 C137 1.441 . S
C531 C263 1.462 . S
C545 C277 1.458 . S
C551 C151 1.445 . S
C565 C165 1.446 . S
C571 C291 1.457 . S
C585 C145 0.970 . S
C591 C5 0.988 . S
C605 C159 0.994 . S
C611 C19 0.945 . S
C625 C33 0.954 . S
C631 C89 0.931 . S
C645 C47 0.927 . S
C651 C103 0.961 . S
C665 C117 0.965 . S
C671 C61 0.927 . S
C685 C75 0.992 . S
C691 C131 0.939 . S
C705 C313 0.951 . S
C711 C173 0.994 . S
C725 C187 0.952 . S
C731 C327 0.932 . S
C745 C201 0.967 . S
C751 C257 0.990 . S
C765 C271 0.953 . S
C771 C215 0.931 . S
C785 C229 0.954 . S
C791 C285 0.994 . S
C805 C243 0.971 . S
C811 C299 0.926 . S
C825 C12 1.163 . S
C831 C264 1.164 . S
C845 C278 1.168 . S
C851 C26 1.158 . S
C865 C40 1.155 . S
C871 C292 1.172 . S
C885 C54 1.155 . S
C891 C306 1.172 . S
C905 C320 1.157 . S
C911 C68 1.169 . S
C925 C82 1.155 . S
C931 C334 1.172 . S
C945 C96 1.165 . S
C951 C180 1.162 . S
C965 C110 1.167 . S
C971 C194 1.159 . S
C985 C208 1.171 . S
C991 C124 1.156 . S
C1005 C222 1.159 . S
C1011 C138 1.168 . S
C1025 C152 1.167 . S
C1031 C236 1.160 . S
C1045 C250 1.171 . S
C1051 C166 1.156 . S
C1065 C88 1.504 . S
C1071 C4 1.504 . S
C1085 C18 1.499 . S
C1091 C102 1.511 . S
C1105 C116 1.510 . S
C1111 C32 1.519 . S
C1125 C130 1.497 . S
C1131 C46 1.517 . S
C1145 C144 1.502 . S
C1151 C60 1.507 . S
C1165 C74 1.501 . S
C1171 C158 1.508 . S
C1185 C256 1.499 . S
C1191 C172 1.520 . S
C1205 C186 1.521 . S
C1211 C270 1.501 . S
C1225 C284 1.498 . S
C1231 C200 1.517 . S
C1245 C298 1.507 . S
C1251 C214 1.520 . S
C1265 C228 1.498 . S
C1271 C312 1.515 . S
C1285 C242 1.517 . S
C1291 C326 1.497 . S
