# Generated by pormake.
# Topology rob, (6)-cn, num edge types: 1
# Building blocks:
#     Node 0, Type 0, BuildingBlock: KUMJIN_clean_sbu_1, # of connection points: 6
#     Node 1, Type 0, BuildingBlock: KUMJIN_clean_sbu_1, # of connection points: 6
#     Node 2, Type 0, BuildingBlock: KUMJIN_clean_sbu_1, # of connection points: 6
#     Node 3, Type 0, BuildingBlock: KUMJIN_clean_sbu_1, # of connection points: 6
#     Edge 4, Type (0, 0), BuildingBlock: AJUNOK_clean_linker_0, # of connection points: 2
#     Edge 5, Type (0, 0), BuildingBlock: AJUNOK_clean_linker_0, # of connection points: 2
#     Edge 6, Type (0, 0), BuildingBlock: AJUNOK_clean_linker_0, # of connection points: 2
#     Edge 7, Type (0, 0), BuildingBlock: AJUNOK_clean_linker_0, # of connection points: 2
#     Edge 8, Type (0, 0), BuildingBlock: AJUNOK_clean_linker_0, # of connection points: 2
#     Edge 9, Type (0, 0), BuildingBlock: AJUNOK_clean_linker_0, # of connection points: 2
#     Edge 10, Type (0, 0), BuildingBlock: AJUNOK_clean_linker_0, # of connection points: 2
#     Edge 11, Type (0, 0), BuildingBlock: AJUNOK_clean_linker_0, # of connection points: 2
#     Edge 12, Type (0, 0), BuildingBlock: AJUNOK_clean_linker_0, # of connection points: 2
#     Edge 13, Type (0, 0), BuildingBlock: AJUNOK_clean_linker_0, # of connection points: 2
#     Edge 14, Type (0, 0), BuildingBlock: AJUNOK_clean_linker_0, # of connection points: 2
#     Edge 15, Type (0, 0), BuildingBlock: AJUNOK_clean_linker_0, # of connection points: 2
# Relax obj value: 0.026
# Max RMSD: 0.135
# Mean RMSD: 0.135
data_MOF--net-rob--node1-KUMJIN_clean_sbu_1--edge1-AJUNOK_clean_linker_0
_symmetry_space_group_name_H-M    P1
_symmetry_Int_Tables_number       1
_symmetry_cell_setting            triclinic
loop_
_symmetry_equiv_pos_as_xyz
'x, y, z'
_cell_length_a     15.101103
_cell_length_b     17.128304
_cell_length_c     26.727319
_cell_angle_alpha  108.87823
_cell_angle_beta   89.452312
_cell_angle_gamma 90.429212
loop_
_atom_site_label
_atom_site_type_symbol
_atom_site_fract_x
_atom_site_fract_y
_atom_site_fract_z
_atom_type_partial_charge
Eu0 Eu 0.33272 0.13376 0.97396 0.0
C1 C 0.03474 0.44402 0.07627 0.0
N2 N 0.12115 0.42624 0.07888 0.0
C3 C 0.15088 0.56474 0.13317 0.0
C4 C 0.00151 0.52167 0.10479 0.0
C5 C 0.17954 0.48438 0.10741 0.0
C6 C 0.06131 0.58324 0.13156 0.0
C7 C 0.88867 0.39821 0.04263 0.0
C8 C 0.97987 0.38368 0.04504 0.0
C9 C 0.85374 0.47345 0.07467 0.0
C10 C 0.91006 0.53447 0.106 0.0
Eu11 Eu 0.15819 0.28691 0.04626 0.0
N12 N 0.01654 0.31121 1.01631 0.0
C13 C 0.83594 0.33668 1.00851 0.0
C14 C 0.96697 0.25348 0.97967 0.0
C15 C 0.87576 0.26449 0.97607 0.0
H16 H 0.24765 0.46836 0.11117 0.0
H17 H 0.83654 0.2177 0.94792 0.0
H18 H 0.20888 0.96827 0.91198 0.0
H19 H 0.67565 0.16162 0.03497 0.0
H20 H 0.99666 0.19858 0.95317 0.0
H21 H 0.76541 0.3454 1.00562 0.0
H22 H 0.525 0.21228 0.03319 0.0
H23 H 0.19704 0.61167 0.15516 0.0
H24 H 0.78396 0.48575 0.07537 0.0
H25 H 0.88202 0.59058 0.13139 0.0
H26 H 0.22075 0.81654 0.88681 0.0
H27 H 0.03886 0.64477 0.15145 0.0
H28 H 0.70422 0.01202 1.00275 0.0
N29 N 0.33609 -0.00962 0.94784 0.0
C30 C 0.41384 0.95796 0.95546 0.0
C31 C 0.27538 0.85559 0.90614 0.0
C32 C 0.42538 0.87261 0.93823 0.0
C33 C 0.26851 0.94129 0.92116 0.0
C34 C 0.35414 0.82101 0.91552 0.0
N35 N 0.46867 0.09264 0.9974 0.0
C36 C 0.53592 0.14693 1.01853 0.0
C37 C 0.56833 -0.02088 0.98008 0.0
C38 C 0.48324 0.01055 0.97869 0.0
C39 C 0.63832 0.03405 1.00009 0.0
C40 C 0.62211 0.11854 1.01919 0.0
H41 H 0.36038 0.75469 0.90408 0.0
H42 H 0.51279 0.77595 0.93394 0.0
H43 H 0.64591 0.87 0.96299 0.0
O44 O 0.37208 0.20481 0.92132 0.0
O45 O 0.34531 0.17611 0.06511 0.0
O46 O 0.28122 0.30462 0.09538 0.0
O47 O 0.39742 0.07415 0.89773 0.0
O48 O 0.39306 0.26129 1.01077 0.0
O49 O 0.27938 0.3552 0.0245 0.0
O50 O 0.14272 0.2044 0.09425 0.0
O51 O 0.18154 0.2669 0.9587 0.0
O52 O 0.20943 0.13023 0.92796 0.0
O53 O 0.10083 0.33212 0.12519 0.0
O54 O 0.09754 0.15899 1.00563 0.0
O55 O 0.21316 0.07278 1.00447 0.0
C56 C 0.32614 0.2453 0.10384 0.0
C57 C 0.50492 0.15547 0.87137 0.0
C58 C 0.61386 0.2022 0.81777 0.0
C59 C 0.68224 0.178 0.84487 0.0
C60 C 0.57556 0.12427 0.8927 0.0
C61 C 0.66303 0.13837 0.88147 0.0
C62 C 0.52445 0.19346 0.83268 0.0
C63 C 0.36463 0.33587 1.01631 0.0
C64 C 0.41207 0.14237 0.88713 0.0
C65 C 0.5077 0.84126 0.94359 0.0
C66 C 0.58055 0.89409 0.96182 0.0
C67 C 0.18463 0.19696 0.91953 0.0
C68 C 0.01073 0.23612 0.14683 0.0
C69 C 0.9152 0.23283 0.22016 0.0
C70 C 0.8426 0.2514 0.19357 0.0
C71 C 0.93572 0.24582 0.11895 0.0
C72 C 0.99917 0.22203 0.19537 0.0
C73 C 0.85211 0.25384 0.14226 0.0
C74 C 0.12659 0.086 1.00408 0.0
C75 C 0.09853 0.25946 0.1313 0.0
H76 H 0.75111 0.18509 0.83537 0.0
H77 H 0.56356 0.08605 0.91665 0.0
H78 H 0.71617 0.11522 0.89955 0.0
H79 H 0.47048 0.2112 0.8123 0.0
H80 H 0.778 0.26233 0.21204 0.0
H81 H 0.94218 0.25173 0.0804 0.0
H82 H 0.05618 0.20838 0.21517 0.0
H83 H 0.79513 0.26505 0.1213 0.0
Eu84 Eu 0.84084 0.64937 0.98915 0.0
C85 C 0.57936 0.96841 0.09924 0.0
N86 N 0.65846 0.93238 0.09999 0.0
C87 C 0.7285 0.06408 0.13423 0.0
C88 C 0.57178 0.05427 0.11673 0.0
C89 C 0.7311 -0.02115 0.12122 0.0
C90 C 0.64885 0.10193 0.13026 0.0
C91 C 0.42183 0.95405 0.08175 0.0
C92 C 0.50629 0.91931 0.07937 0.0
C93 C 0.41322 0.03954 0.1018 0.0
C94 C 0.48876 0.08947 0.11738 0.0
Eu95 Eu 0.65978 0.78807 0.06707 0.0
N96 N 0.51785 0.83701 0.05865 0.0
C97 C 0.34901 0.90194 0.06323 0.0
C98 C 0.44746 0.78527 0.04065 0.0
C99 C 0.36195 0.81688 0.04262 0.0
H100 H 0.79279 0.95047 0.12552 0.0
H101 H 0.30631 0.77576 0.02831 0.0
H102 H 0.72918 0.47938 0.91646 0.0
H103 H 0.17908 0.68811 0.0595 0.0
H104 H 0.45687 0.71963 0.02619 0.0
H105 H 0.28297 0.9267 0.06433 0.0
H106 H 0.02469 0.7294 0.056 0.0
H107 H 0.78826 0.09946 0.14645 0.0
H108 H 0.34869 0.06647 0.10332 0.0
H109 H 0.48438 0.15507 0.12865 0.0
H110 H 0.76448 0.33789 0.863 0.0
H111 H 0.64769 0.16745 0.13636 0.0
H112 H 0.22433 0.54569 1.01152 0.0
N113 N 0.85964 0.5075 0.94784 0.0
C114 C 0.94273 0.47956 0.9489 0.0
C115 C 0.81505 0.3767 0.88724 0.0
C116 C 0.96516 0.39897 0.91885 0.0
C117 C 0.7955 0.45752 0.91787 0.0
C118 C 0.90056 0.3472 0.88751 0.0
N119 N 0.98249 0.61073 1.00636 0.0
C120 C 0.04319 0.66674 0.0348 0.0
C121 C 0.0945 0.50724 0.97878 0.0
C122 C 0.00627 0.53274 0.97893 0.0
C123 C 0.15688 0.5636 1.0086 0.0
C124 C 0.13127 0.64398 0.03643 0.0
H125 H 0.91591 0.28452 0.86363 0.0
H126 H 0.0666 0.31081 0.89895 0.0
H127 H 0.18456 0.40575 0.94764 0.0
O128 O 0.83113 0.72647 0.93773 0.0
O129 O 0.85962 0.6824 0.07885 0.0
O130 O 0.78346 0.80371 0.11649 0.0
O131 O 0.93583 0.63642 0.92482 0.0
O132 O 0.88887 0.77851 0.03383 0.0
O133 O 0.7678 0.85494 0.0309 0.0
O134 O 0.66435 0.72309 0.12571 0.0
O135 O 0.63657 0.7415 0.97699 0.0
O136 O 0.71763 0.624 0.9408 0.0
O137 O 0.55941 0.80963 0.12872 0.0
O138 O 0.60667 0.66065 0.02575 0.0
O139 O 0.72694 0.57522 1.01539 0.0
C140 C 0.83939 0.74766 0.11985 0.0
C141 C 0.88236 0.66307 0.84983 0.0
C142 C 0.92781 0.65596 0.7605 0.0
C143 C 0.85781 0.60177 0.74062 0.0
C144 C 0.81482 0.60569 0.82809 0.0
C145 C 0.80069 0.57746 0.77395 0.0
C146 C 0.93924 0.6888 0.81571 0.0
C147 C 0.85543 0.84688 0.03088 0.0
C148 C 0.89727 0.69025 0.90734 0.0
C149 C 0.05169 0.37291 0.92014 0.0
C150 C 0.11713 0.42671 0.94884 0.0
C151 C 0.66148 0.6781 0.93587 0.0
C152 C 0.60803 0.80731 0.20993 0.0
C153 C 0.55154 0.83891 0.30037 0.0
C154 C 0.60238 0.91152 0.31507 0.0
C155 C 0.66123 0.87843 0.22644 0.0
C156 C 0.55467 0.78645 0.24735 0.0
C157 C 0.65864 0.92985 0.27874 0.0
C158 C 0.63984 0.58852 0.02186 0.0
C159 C 0.59716 0.76422 0.1529 0.0
H160 H 0.85181 0.5746 0.69864 0.0
H161 H 0.77504 0.57973 0.85236 0.0
H162 H 0.74861 0.533 0.75756 0.0
H163 H 0.99346 0.73104 0.83171 0.0
H164 H 0.59913 0.95368 0.355 0.0
H165 H 0.702 0.89628 0.1985 0.0
H166 H 0.51307 0.73181 0.23489 0.0
H167 H 0.69929 -0.01518 0.29084 0.0
Eu168 Eu 0.30303 0.80781 0.59639 0.0
C169 C 0.1477 0.48463 0.37974 0.0
N170 N 0.21485 0.5206 0.41228 0.0
C171 C 0.30769 0.4037 0.3708 0.0
C172 C 0.15856 0.40747 0.34048 0.0
C173 C 0.29535 0.48256 0.40705 0.0
C174 C 0.23881 0.36589 0.3372 0.0
C175 C 0.00157 0.49685 0.34694 0.0
C176 C 0.07041 0.52824 0.38326 0.0
C177 C 0.01391 0.42213 0.30598 0.0
C178 C 0.09171 0.37708 0.30343 0.0
Eu179 Eu 0.19862 0.66121 0.46351 0.0
N180 N 0.06519 0.60402 0.42007 0.0
C181 C 0.92518 0.5441 0.35077 0.0
C182 C 0.99211 0.65163 0.42267 0.0
C183 C 0.9202 0.62173 0.3892 0.0
H184 H 0.35185 0.51425 0.42891 0.0
H185 H 0.8623 0.65977 0.39188 0.0
H186 H 0.12808 0.92968 0.65187 0.0
H187 H 0.65461 0.86843 0.62851 0.0
H188 H 0.98947 0.71348 0.44989 0.0
H189 H 0.87086 0.52216 0.32352 0.0
H190 H 0.5202 0.78123 0.60246 0.0
H191 H 0.37144 0.37381 0.3672 0.0
H192 H 0.96545 0.40058 0.27498 0.0
H193 H 0.10247 0.32106 0.27136 0.0
H194 H 0.09968 0.07819 0.69103 0.0
H195 H 0.24923 0.30624 0.30763 0.0
H196 H 0.63979 0.01988 0.66513 0.0
N197 N 0.26794 0.94433 0.64768 0.0
C198 C 0.33749 -0.00306 0.66088 0.0
C199 C 0.16699 0.05628 0.68335 0.0
C200 C 0.32429 0.08242 0.68386 0.0
C201 C 0.18348 0.97191 0.661 0.0
C202 C 0.23772 0.11201 0.6938 0.0
N203 N 0.43247 0.88309 0.62601 0.0
C204 C 0.51377 0.84726 0.6201 0.0
C205 C 0.49623 0.01712 0.6645 0.0
C206 C 0.42231 0.96495 0.65111 0.0
C207 C 0.58091 -0.01801 0.65564 0.0
C208 C 0.58964 0.89636 0.63467 0.0
H209 H 0.22511 0.17751 0.70928 0.0
H210 H 0.3895 0.20169 0.71049 0.0
H211 H 0.53787 0.14283 0.68986 0.0
O212 O 0.28182 0.70649 0.62857 0.0
O213 O 0.35815 0.82127 0.51946 0.0
O214 O 0.34147 0.69089 0.46503 0.0
O215 O 0.33658 0.8256 0.67915 0.0
O216 O 0.3891 0.69437 0.55453 0.0
O217 O 0.28457 0.59685 0.51147 0.0
O218 O 0.17488 0.75232 0.42306 0.0
O219 O 0.14158 0.65515 0.54277 0.0
O220 O 0.15743 0.78686 0.59854 0.0
O221 O 0.26866 0.65323 0.39076 0.0
O222 O 0.11666 0.78041 0.50143 0.0
O223 O 0.21002 0.87855 0.55669 0.0
C224 C 0.36792 0.76571 0.47268 0.0
C225 C 0.31727 0.71705 0.71884 0.0
C226 C 0.4007 0.66868 0.78122 0.0
C227 C 0.31923 0.65248 0.80242 0.0
C228 C 0.23813 0.7044 0.7426 0.0
C229 C 0.23895 0.67066 0.78344 0.0
C230 C 0.3987 0.69926 0.73803 0.0
C231 C 0.36323 0.6161 0.53485 0.0
C232 C 0.31388 0.7498 0.6745 0.0
C233 C 0.39772 0.13538 0.69461 0.0
C234 C 0.48291 0.10232 0.68422 0.0
C235 C 0.1219 0.71408 0.58731 0.0
C236 C 0.16975 0.67985 0.33078 0.0
C237 C 0.04424 0.69327 0.27749 0.0
C238 C 0.04708 0.60764 0.25153 0.0
C239 C 0.17857 0.59689 0.29844 0.0
C240 C 0.10509 0.72949 0.31809 0.0
C241 C 0.11647 0.56086 0.25984 0.0
C242 C 0.13874 0.85884 0.52604 0.0
C243 C 0.21917 0.70887 0.38106 0.0
H244 H 0.31707 0.62911 0.83551 0.0
H245 H 0.17582 0.72181 0.72996 0.0
H246 H 0.17719 0.66037 0.80131 0.0
H247 H 0.45961 0.70896 0.71912 0.0
H248 H 0.9975 0.57723 0.22273 0.0
H249 H 0.22994 0.5577 0.30512 0.0
H250 H 0.10014 0.7945 0.34061 0.0
H251 H 0.12092 0.49598 0.23712 0.0
Eu252 Eu 0.83604 0.3202 0.56161 0.0
C253 C 0.65657 0.96817 0.45901 0.0
N254 N 0.7035 0.01832 0.43857 0.0
C255 C 0.78709 0.90284 0.3842 0.0
C256 C 0.67608 0.88359 0.4449 0.0
C257 C 0.76685 -0.01296 0.4006 0.0
C258 C 0.74248 0.85101 0.40711 0.0
C259 C 0.53336 0.95179 0.51296 0.0
C260 C 0.58655 0.00161 0.49281 0.0
C261 C 0.55801 0.8691 0.50331 0.0
C262 C 0.62854 0.83477 0.46898 0.0
Eu263 Eu 0.67747 0.15973 0.48189 0.0
N264 N 0.5684 0.08271 0.50434 0.0
C265 C 0.45648 -0.01297 0.5408 0.0
C266 C 0.49474 0.11772 0.53179 0.0
C267 C 0.43651 0.06976 0.54993 0.0
H268 H 0.80239 0.02634 0.38298 0.0
H269 H 0.37722 0.09653 0.57154 0.0
H270 H 0.69431 0.45129 0.65236 0.0
H271 H 0.12898 0.38947 0.46776 0.0
H272 H 0.4821 0.18264 0.5403 0.0
H273 H 0.40974 0.95176 0.55438 0.0
H274 H 0.0293 0.30196 0.50172 0.0
H275 H 0.8376 0.8782 0.35434 0.0
H276 H 0.52146 0.82953 0.52009 0.0
H277 H 0.64393 0.77 0.46019 0.0
H278 H 0.64871 0.59589 0.67408 0.0
H279 H 0.75881 0.78603 0.39485 0.0
H280 H 0.09061 0.53314 0.48358 0.0
N281 N 0.80058 0.46132 0.60128 0.0
C282 C 0.8469 0.51208 0.58075 0.0
C283 C 0.70446 0.5731 0.64775 0.0
C284 C 0.8229 0.59546 0.59237 0.0
C285 C 0.73117 0.49083 0.63547 0.0
C286 C 0.75051 0.62567 0.62605 0.0
N287 N 0.93987 0.39978 0.53679 0.0
C288 C 0.0143 0.36642 0.5093 0.0
C289 C 0.96994 0.53082 0.52696 0.0
C290 C 0.9188 0.48024 0.54777 0.0
C291 C 0.04648 0.4969 0.49817 0.0
C292 C 0.06951 0.41502 0.48972 0.0
H293 H 0.72985 0.68931 0.63564 0.0
H294 H 0.85323 0.70949 0.57711 0.0
H295 H 0.98068 0.65343 0.52048 0.0
O296 O 0.87191 0.25514 0.6172 0.0
O297 O 0.8456 0.30157 0.47401 0.0
O298 O 0.80223 0.16757 0.43681 0.0
O299 O 0.9478 0.36216 0.61349 0.0
O300 O 0.90609 0.19621 0.5198 0.0
O301 O 0.79717 0.09838 0.50708 0.0
O302 O 0.64318 0.23981 0.43664 0.0
O303 O 0.67186 0.17588 0.57053 0.0
O304 O 0.71791 0.30922 0.60993 0.0
O305 O 0.57862 0.12005 0.41862 0.0
O306 O 0.60529 0.27937 0.53 0.0
O307 O 0.71257 0.37644 0.53592 0.0
C308 C 0.84043 0.23418 0.43346 0.0
C309 C 0.95995 0.32786 0.69166 0.0
C310 C 0.04833 0.30797 0.76233 0.0
C311 C 0.03019 0.38984 0.79319 0.0
C312 C 0.9366 0.40632 0.72488 0.0
C313 C 0.97292 0.43779 0.77514 0.0
C314 C 0.01365 0.27718 0.71094 0.0
C315 C 0.8811 0.12025 0.51587 0.0
C316 C 0.93964 0.30403 0.63521 0.0
C317 C 0.87096 0.64543 0.5693 0.0
C318 C 0.94381 0.61304 0.53654 0.0
C319 C 0.68313 0.24112 0.61271 0.0
C320 C 0.58876 0.18292 0.35088 0.0
C321 C 0.53403 0.22651 0.27772 0.0
C322 C 0.61792 0.20769 0.2542 0.0
C323 C 0.66753 0.15644 0.3229 0.0
C324 C 0.51989 0.21492 0.32735 0.0
C325 C 0.68181 0.16864 0.27467 0.0
C326 C 0.6279 0.35578 0.53376 0.0
C327 C 0.58519 0.18866 0.40699 0.0
H328 H 0.05924 0.41667 0.83177 0.0
H329 H 0.89418 0.44412 0.71022 0.0
H330 H 0.95877 0.50002 0.79983 0.0
H331 H 0.03089 0.21567 0.68561 0.0
H332 H 0.63356 0.22264 0.21928 0.0
H333 H 0.71978 0.13011 0.33969 0.0
H334 H 0.45779 0.23349 0.34831 0.0
H335 H 0.74359 0.14973 0.2537 0.0
C336 C 0.58379 0.46013 0.04277 0.0
C337 C 0.57282 0.51985 1.01735 0.0
C338 C 0.51621 0.40211 0.04294 0.0
C339 C 0.43399 0.40056 1.01761 0.0
H340 H 0.64318 0.45978 0.06461 0.0
H341 H 0.5281 0.35898 0.06405 0.0
S342 S 0.37408 0.5361 0.93984 0.0
N343 N 0.47189 0.57052 0.96461 0.0
N344 N 0.35077 0.45794 0.96115 0.0
C345 C 0.42341 0.45759 0.99055 0.0
C346 C 0.4909 0.51786 0.99147 0.0
C347 C 0.52053 0.56326 0.5376 0.0
C348 C 0.42825 0.548 0.53466 0.0
C349 C 0.58303 0.50119 0.53651 0.0
C350 C 0.55767 0.42035 0.53423 0.0
H351 H 0.54538 0.6237 0.53968 0.0
H352 H 0.65251 0.51706 0.53704 0.0
S353 S 0.3239 0.34636 0.52513 0.0
N354 N 0.31501 0.44374 0.52793 0.0
N355 N 0.43098 0.3291 0.52774 0.0
C356 C 0.46533 0.40408 0.53111 0.0
C357 C 0.40151 0.46702 0.53105 0.0
C358 C 0.06868 -0.02078 0.04506 0.0
C359 C 0.05838 0.02266 1.00874 0.0
C360 C 0.00186 0.92523 0.05286 0.0
C361 C 0.92075 0.91157 0.02494 0.0
H362 H 0.12821 -0.01173 0.06856 0.0
H363 H 0.01401 0.89372 0.08131 0.0
S364 S 0.86576 -9e-05 0.91936 0.0
N365 N 0.96237 0.04234 0.9415 0.0
N366 N 0.84036 0.93935 0.95459 0.0
C367 C 0.911 0.95251 0.98733 0.0
C368 C 0.97851 0.0082 0.97976 0.0
C369 C 0.92424 0.97152 0.50755 0.0
C370 C 0.94934 0.05514 0.51802 0.0
C371 C 0.98493 0.90975 0.51005 0.0
C372 C 0.07496 0.92722 0.52387 0.0
H373 H 0.85629 0.95308 0.49756 0.0
H374 H 0.95992 0.84766 0.50199 0.0
S375 S 0.17671 0.13632 0.55724 0.0
N376 N 0.07276 0.15141 0.54415 0.0
N377 N 0.18513 0.03686 0.54911 0.0
C378 C 0.10101 0.01079 0.53519 0.0
C379 C 0.0392 0.07379 0.53218 0.0
C380 C 0.48552 0.30781 0.21902 0.0
C381 C 0.46371 0.25238 0.24676 0.0
C382 C 0.43578 0.31109 0.17536 0.0
C383 C 0.36193 0.25935 0.1579 0.0
H384 H 0.54591 0.34398 0.22829 0.0
H385 H 0.45973 0.34897 0.15251 0.0
S386 S 0.2616 0.12139 0.22517 0.0
N387 N 0.35283 0.15636 0.2589 0.0
N388 N 0.25719 0.16611 0.17897 0.0
C389 C 0.33189 0.21304 0.18976 0.0
C390 C 0.38333 0.20858 0.23368 0.0
C391 C 0.5102 0.74327 0.35069 0.0
C392 C 0.49736 0.81847 0.34126 0.0
C393 C 0.46753 0.72671 0.39312 0.0
C394 C 0.41106 0.78503 0.42792 0.0
H395 H 0.55589 0.69812 0.32623 0.0
H396 H 0.48082 0.6687 0.39965 0.0
S397 S 0.34367 -0.01496 0.41484 0.0
N398 N 0.41694 0.94809 0.36682 0.0
N399 N 0.33495 0.9156 0.4455 0.0
C400 C 0.39376 0.85833 0.4171 0.0
C401 C 0.43762 0.87552 0.37417 0.0
C402 C 0.55843 0.59456 0.8661 0.0
C403 C 0.61651 0.66163 0.88426 0.0
C404 C 0.49234 0.59408 0.82949 0.0
C405 C 0.48521 0.65844 0.80752 0.0
H406 H 0.56047 0.54485 0.88266 0.0
H407 H 0.44332 0.54523 0.82069 0.0
S408 S 0.64968 0.82795 0.82537 0.0
N409 N 0.68361 0.77814 0.86519 0.0
N410 N 0.55954 0.77911 0.79664 0.0
C411 C 0.55441 0.71737 0.81812 0.0
C412 C 0.62117 0.71773 0.85589 0.0
C413 C 0.71308 0.17862 0.6825 0.0
C414 C 0.66643 0.23625 0.66604 0.0
C415 C 0.69953 0.17235 0.733 0.0
C416 C 0.63755 0.2227 0.76897 0.0
H417 H 0.75926 0.13693 0.65575 0.0
H418 H 0.734 0.12369 0.74239 0.0
S419 S 0.50753 0.39085 0.74634 0.0
N420 N 0.56394 0.35103 0.69076 0.0
N421 N 0.53637 0.33843 0.78575 0.0
C422 C 0.59495 0.28461 0.75406 0.0
C423 C 0.61003 0.29165 0.7026 0.0
C424 C 0.96534 0.79544 0.18316 0.0
C425 C 0.88115 0.7587 0.17167 0.0
C426 C 0.01489 0.78747 0.22568 0.0
C427 C 0.98147 0.74172 0.25712 0.0
H428 H 0.99621 0.82359 0.15644 0.0
H429 H 0.08358 0.80706 0.22916 0.0
S430 S 0.7563 0.65356 0.25202 0.0
N431 N 0.76077 0.68945 0.20171 0.0
N432 N 0.85281 0.67683 0.2817 0.0
C433 C 0.89245 0.71713 0.25119 0.0
C434 C 0.84252 0.7245 0.20802 0.0
C435 C 0.84312 0.30114 0.36426 0.0
C436 C 0.87009 0.23574 0.38119 0.0
C437 C 0.85781 0.29915 0.31217 0.0
C438 C 0.90374 0.23353 0.27559 0.0
H439 H 0.80628 0.35229 0.39066 0.0
H440 H 0.8322 0.3494 0.30038 0.0
S441 S 0.98988 0.04803 0.30124 0.0
N442 N 0.94485 0.10355 0.3581 0.0
N443 N 0.97617 0.1015 0.26034 0.0
C444 C 0.93352 0.16882 0.29261 0.0
C445 C 0.91595 0.16961 0.34541 0.0
C446 C 0.18209 0.28624 0.80998 0.0
C447 C 0.10049 0.25624 0.78616 0.0
C448 C 0.21772 0.25681 0.84862 0.0
C449 C 0.17235 0.19699 0.86486 0.0
H450 H 0.21398 0.33829 0.80248 0.0
H451 H 0.27501 0.2882 0.87027 0.0
S452 S 0.96695 0.08679 0.80693 0.0
N453 N 0.9834 0.1541 0.77525 0.0
N454 N 0.05123 0.09817 0.84771 0.0
C455 C 0.09811 0.15803 0.83594 0.0
C456 C 0.0614 0.18838 0.79673 0.0
C457 C 0.02226 0.76004 0.66656 0.0
C458 C 0.07296 0.69688 0.63104 0.0
C459 C 0.97983 0.74855 0.71067 0.0
C460 C 0.98766 0.6739 0.7213 0.0
H461 H 0.01421 0.81856 0.65974 0.0
H462 H 0.93833 0.79729 0.73562 0.0
S463 S 0.12055 0.49272 0.64456 0.0
N464 N 0.13422 0.55953 0.6123 0.0
N465 N 0.05355 0.53756 0.69468 0.0
C466 C 0.03962 0.61095 0.68686 0.0
C467 C 0.08261 0.62251 0.6419 0.0
loop_
_geom_bond_atom_site_label_1
_geom_bond_atom_site_label_2
_geom_bond_distance
_geom_bond_site_symmetry_2
_ccdc_geom_bond_type
Eu0 N29 2.600 1_545 S
Eu0 N35 2.562 . S
Eu0 O44 2.462 . S
Eu0 O45 2.373 1_556 S
Eu0 O47 2.432 . S
Eu0 O48 2.291 . S
Eu0 O52 2.335 . S
Eu0 O55 2.372 . S
Eu0 C64 2.787 . S
C1 N2 1.365 . S
C1 C4 1.403 1_455 S
C1 C8 1.448 1_455 S
N2 C1 1.365 . S
N2 C5 1.319 . S
N2 Eu11 2.600 . S
C3 C5 1.397 . S
C3 C6 1.367 . S
C3 H23 0.931 . S
C4 C1 1.403 1_655 S
C4 C6 1.400 1_655 S
C4 C10 1.444 . S
C5 N2 1.319 . S
C5 C3 1.397 . S
C5 H16 0.930 . S
C6 C3 1.367 . S
C6 C4 1.400 1_455 S
C6 H27 0.929 . S
C7 C8 1.430 . S
C7 C9 1.387 . S
C7 C13 1.404 . S
C8 C1 1.448 1_655 S
C8 C7 1.430 . S
C8 N12 1.349 1_655 S
C9 C7 1.387 . S
C9 C10 1.374 . S
C9 H24 0.925 1_554 S
C10 C4 1.444 . S
C10 C9 1.374 . S
C10 H25 0.931 . S
Eu11 N2 2.600 . S
Eu11 N12 2.568 . S
Eu11 O46 2.335 . S
Eu11 O49 2.372 . S
Eu11 O50 2.462 . S
Eu11 O51 2.373 1_554 S
Eu11 O53 2.432 . S
Eu11 O54 2.291 . S
Eu11 C75 2.787 . S
N12 C8 1.349 1_455 S
N12 Eu11 2.568 . S
N12 C14 1.321 1_455 S
C13 C7 1.404 . S
C13 C15 1.369 . S
C13 H21 0.928 1_554 S
C14 N12 1.321 1_655 S
C14 C15 1.416 . S
C14 H20 0.929 . S
C15 C13 1.369 . S
C15 C14 1.416 . S
C15 H17 0.930 1_554 S
H16 C5 0.930 . S
H17 C15 0.930 1_556 S
H18 C33 0.930 . S
H19 C40 0.930 1_554 S
H20 C14 0.929 . S
H21 C13 0.928 1_556 S
H22 C36 0.929 . S
H23 C3 0.931 . S
H24 C9 0.925 1_556 S
H25 C10 0.931 . S
H26 C31 0.931 . S
H27 C6 0.929 . S
H28 C39 0.930 . S
N29 Eu0 2.600 1_565 S
N29 C30 1.365 . S
N29 C33 1.319 . S
C30 N29 1.365 . S
C30 C32 1.405 . S
C30 C38 1.448 1_565 S
C31 H26 0.931 . S
C31 C33 1.397 . S
C31 C34 1.367 . S
C32 C30 1.405 . S
C32 C34 1.403 . S
C32 C65 1.439 . S
C33 H18 0.930 . S
C33 N29 1.319 . S
C33 C31 1.397 . S
C34 C31 1.367 . S
C34 C32 1.403 . S
C34 H41 0.929 . S
N35 Eu0 2.562 . S
N35 C36 1.325 . S
N35 C38 1.351 . S
C36 H22 0.929 . S
C36 N35 1.325 . S
C36 C40 1.419 . S
C37 C38 1.430 . S
C37 C39 1.404 1_556 S
C37 C66 1.387 1_545 S
C38 C30 1.448 1_545 S
C38 N35 1.351 . S
C38 C37 1.430 . S
C39 H28 0.930 . S
C39 C37 1.404 1_554 S
C39 C40 1.362 1_554 S
C40 H19 0.930 1_556 S
C40 C36 1.419 . S
C40 C39 1.362 1_556 S
H41 C34 0.929 . S
H42 C65 0.931 . S
H43 C66 0.931 1_554 S
O44 Eu0 2.462 . S
O44 C64 1.252 . S
O45 Eu0 2.373 1_554 S
O45 C56 1.249 . S
O46 Eu11 2.335 . S
O46 C56 1.264 . S
O47 Eu0 2.432 . S
O47 C64 1.268 . S
O48 Eu0 2.291 . S
O48 C63 1.255 1_556 S
O49 Eu11 2.372 . S
O49 C63 1.257 . S
O50 Eu11 2.462 . S
O50 C75 1.252 . S
O51 Eu11 2.373 1_556 S
O51 C67 1.249 . S
O52 Eu0 2.335 . S
O52 C67 1.264 . S
O53 Eu11 2.432 . S
O53 C75 1.268 . S
O54 Eu11 2.291 . S
O54 C74 1.255 1_554 S
O55 Eu0 2.372 . S
O55 C74 1.257 . S
C56 O45 1.249 . S
C56 O46 1.264 . S
C57 C60 1.382 . S
C57 C62 1.390 . S
C57 C64 1.506 . S
C58 C59 1.398 . S
C58 C62 1.392 . S
C59 C58 1.398 . S
C59 C61 1.372 1_545 S
C59 H76 0.931 . S
C60 C57 1.382 . S
C60 C61 1.390 1_545 S
C60 H77 0.931 1_545 S
C61 C59 1.372 1_565 S
C61 C60 1.390 1_565 S
C61 H78 0.929 . S
C62 C57 1.390 . S
C62 C58 1.392 . S
C62 H79 0.930 . S
C63 O48 1.255 1_554 S
C63 O49 1.257 . S
C64 Eu0 2.787 . S
C64 O44 1.252 . S
C64 O47 1.268 . S
C64 C57 1.506 . S
C65 C32 1.439 . S
C65 H42 0.931 . S
C65 C66 1.374 . S
C66 C37 1.387 1_565 S
C66 H43 0.931 1_556 S
C66 C65 1.374 . S
C67 O51 1.249 . S
C67 O52 1.264 . S
C68 C71 1.382 . S
C68 C72 1.390 . S
C68 C75 1.506 . S
C69 C70 1.398 . S
C69 C72 1.392 1_655 S
C70 C69 1.398 . S
C70 C73 1.372 1_655 S
C70 H80 0.931 . S
C71 C68 1.382 . S
C71 C73 1.390 . S
C71 H81 0.931 . S
C72 C68 1.390 . S
C72 C69 1.392 1_455 S
C72 H82 0.930 . S
C73 C70 1.372 1_455 S
C73 C71 1.390 . S
C73 H83 0.929 . S
C74 O54 1.255 1_556 S
C74 O55 1.257 . S
C75 Eu11 2.787 . S
C75 O50 1.252 . S
C75 O53 1.268 . S
C75 C68 1.506 . S
H76 C59 0.931 . S
H77 C60 0.931 1_565 S
H78 C61 0.929 . S
H79 C62 0.930 . S
H80 C70 0.931 . S
H81 C71 0.931 . S
H82 C72 0.930 . S
H83 C73 0.929 . S
Eu84 N113 2.600 . S
Eu84 N119 2.568 . S
Eu84 O128 2.462 . S
Eu84 O129 2.373 1_556 S
Eu84 O131 2.432 . S
Eu84 O132 2.291 . S
Eu84 O136 2.335 . S
Eu84 O139 2.372 . S
Eu84 C148 2.787 . S
C85 N86 1.365 . S
C85 C88 1.405 . S
C85 C92 1.448 1_545 S
N86 C85 1.365 . S
N86 C89 1.319 . S
N86 Eu95 2.600 1_545 S
C87 C89 1.397 . S
C87 C90 1.367 . S
C87 H107 0.931 . S
C88 C85 1.405 . S
C88 C90 1.403 . S
C88 C94 1.439 . S
C89 N86 1.319 . S
C89 C87 1.397 . S
C89 H100 0.930 . S
C90 C87 1.367 . S
C90 C88 1.403 . S
C90 H111 0.929 . S
C91 C92 1.430 . S
C91 C93 1.387 1_565 S
C91 C97 1.404 . S
C92 C85 1.448 1_565 S
C92 C91 1.430 . S
C92 N96 1.351 . S
C93 C91 1.387 1_545 S
C93 C94 1.374 . S
C93 H108 0.925 1_554 S
C94 C88 1.439 . S
C94 C93 1.374 . S
C94 H109 0.931 . S
Eu95 N86 2.600 1_565 S
Eu95 N96 2.562 . S
Eu95 O130 2.335 . S
Eu95 O133 2.372 . S
Eu95 O134 2.462 . S
Eu95 O135 2.373 1_554 S
Eu95 O137 2.432 . S
Eu95 O138 2.291 . S
Eu95 C159 2.787 . S
N96 C92 1.351 . S
N96 Eu95 2.562 . S
N96 C98 1.325 . S
C97 C91 1.404 . S
C97 C99 1.369 . S
C97 H105 0.928 1_554 S
C98 N96 1.325 . S
C98 C99 1.416 . S
C98 H104 0.929 . S
C99 C97 1.369 . S
C99 C98 1.416 . S
C99 H101 0.930 1_554 S
H100 C89 0.930 . S
H101 C99 0.930 1_556 S
H102 C117 0.930 . S
H103 C124 0.930 1_554 S
H104 C98 0.929 . S
H105 C97 0.928 1_556 S
H106 C120 0.929 . S
H107 C87 0.931 . S
H108 C93 0.925 1_556 S
H109 C94 0.931 . S
H110 C115 0.931 . S
H111 C90 0.929 . S
H112 C123 0.930 . S
N113 Eu84 2.600 . S
N113 C114 1.365 . S
N113 C117 1.319 . S
C114 N113 1.365 . S
C114 C116 1.403 1_655 S
C114 C122 1.448 1_655 S
C115 H110 0.931 . S
C115 C117 1.397 . S
C115 C118 1.367 . S
C116 C114 1.403 1_455 S
C116 C118 1.400 1_455 S
C116 C149 1.444 . S
C117 H102 0.930 . S
C117 N113 1.319 . S
C117 C115 1.397 . S
C118 C115 1.367 . S
C118 C116 1.400 1_655 S
C118 H125 0.929 . S
N119 Eu84 2.568 . S
N119 C120 1.321 1_655 S
N119 C122 1.349 1_655 S
C120 H106 0.929 . S
C120 N119 1.321 1_455 S
C120 C124 1.419 . S
C121 C122 1.430 . S
C121 C123 1.404 1_556 S
C121 C150 1.387 . S
C122 C114 1.448 1_455 S
C122 N119 1.349 1_455 S
C122 C121 1.430 . S
C123 H112 0.930 . S
C123 C121 1.404 1_554 S
C123 C124 1.362 1_554 S
C124 H103 0.930 1_556 S
C124 C120 1.419 . S
C124 C123 1.362 1_556 S
H125 C118 0.929 . S
H126 C149 0.931 . S
H127 C150 0.931 1_554 S
O128 Eu84 2.462 . S
O128 C148 1.252 . S
O129 Eu84 2.373 1_554 S
O129 C140 1.249 . S
O130 Eu95 2.335 . S
O130 C140 1.264 . S
O131 Eu84 2.432 . S
O131 C148 1.268 . S
O132 Eu84 2.291 . S
O132 C147 1.255 1_556 S
O133 Eu95 2.372 . S
O133 C147 1.257 . S
O134 Eu95 2.462 . S
O134 C159 1.252 . S
O135 Eu95 2.373 1_556 S
O135 C151 1.249 . S
O136 Eu84 2.335 . S
O136 C151 1.264 . S
O137 Eu95 2.432 . S
O137 C159 1.268 . S
O138 Eu95 2.291 . S
O138 C158 1.255 1_554 S
O139 Eu84 2.372 . S
O139 C158 1.257 . S
C140 O129 1.249 . S
C140 O130 1.264 . S
C141 C144 1.382 . S
C141 C146 1.390 . S
C141 C148 1.506 . S
C142 C143 1.398 . S
C142 C146 1.392 1_455 S
C143 C142 1.398 . S
C143 C145 1.372 1_455 S
C143 H160 0.931 . S
C144 C141 1.382 . S
C144 C145 1.390 . S
C144 H161 0.931 . S
C145 C143 1.372 1_655 S
C145 C144 1.390 . S
C145 H162 0.929 . S
C146 C141 1.390 . S
C146 C142 1.392 1_655 S
C146 H163 0.930 . S
C147 O132 1.255 1_554 S
C147 O133 1.257 . S
C148 Eu84 2.787 . S
C148 O128 1.252 . S
C148 O131 1.268 . S
C148 C141 1.506 . S
C149 C116 1.444 . S
C149 H126 0.931 . S
C149 C150 1.374 . S
C150 C121 1.387 . S
C150 H127 0.931 1_556 S
C150 C149 1.374 . S
C151 O135 1.249 . S
C151 O136 1.264 . S
C152 C155 1.382 . S
C152 C156 1.390 . S
C152 C159 1.506 . S
C153 C154 1.398 . S
C153 C156 1.392 . S
C154 C153 1.398 . S
C154 C157 1.372 1_565 S
C154 H164 0.931 . S
C155 C152 1.382 . S
C155 C157 1.390 1_565 S
C155 H165 0.931 1_565 S
C156 C152 1.390 . S
C156 C153 1.392 . S
C156 H166 0.930 . S
C157 C154 1.372 1_545 S
C157 C155 1.390 1_545 S
C157 H167 0.929 . S
C158 O138 1.255 1_556 S
C158 O139 1.257 . S
C159 Eu95 2.787 . S
C159 O134 1.252 . S
C159 O137 1.268 . S
C159 C152 1.506 . S
H160 C143 0.931 . S
H161 C144 0.931 . S
H162 C145 0.929 . S
H163 C146 0.930 . S
H164 C154 0.931 . S
H165 C155 0.931 1_545 S
H166 C156 0.930 . S
H167 C157 0.929 . S
Eu168 N197 2.600 1_565 S
Eu168 N203 2.562 . S
Eu168 O212 2.462 . S
Eu168 O213 2.373 . S
Eu168 O215 2.432 . S
Eu168 O216 2.291 . S
Eu168 O220 2.335 . S
Eu168 O223 2.372 . S
Eu168 C232 2.787 . S
C169 N170 1.365 . S
C169 C172 1.403 1_455 S
C169 C176 1.448 1_455 S
N170 C169 1.365 . S
N170 C173 1.319 . S
N170 Eu179 2.600 . S
C171 C173 1.397 . S
C171 C174 1.367 . S
C171 H191 0.931 . S
C172 C169 1.403 1_655 S
C172 C174 1.400 1_655 S
C172 C178 1.444 . S
C173 N170 1.319 . S
C173 C171 1.397 . S
C173 H184 0.930 . S
C174 C171 1.367 . S
C174 C172 1.400 1_455 S
C174 H195 0.929 . S
C175 C176 1.430 . S
C175 C177 1.387 . S
C175 C181 1.404 . S
C176 C169 1.448 1_655 S
C176 C175 1.430 . S
C176 N180 1.349 1_655 S
C177 C175 1.387 . S
C177 C178 1.374 . S
C177 H192 0.931 . S
C178 C172 1.444 . S
C178 C177 1.374 . S
C178 H193 0.931 . S
Eu179 N170 2.600 . S
Eu179 N180 2.568 . S
Eu179 O214 2.335 . S
Eu179 O217 2.372 . S
Eu179 O218 2.462 . S
Eu179 O219 2.373 . S
Eu179 O221 2.432 . S
Eu179 O222 2.291 . S
Eu179 C243 2.787 . S
N180 C176 1.349 1_455 S
N180 Eu179 2.568 . S
N180 C182 1.321 1_455 S
C181 C175 1.404 . S
C181 C183 1.366 . S
C181 H189 0.930 . S
C182 N180 1.321 1_655 S
C182 C183 1.416 . S
C182 H188 0.929 . S
C183 C181 1.366 . S
C183 C182 1.416 . S
C183 H185 0.930 . S
H184 C173 0.930 . S
H185 C183 0.930 . S
H186 C201 0.930 . S
H187 C208 0.930 . S
H188 C182 0.929 . S
H189 C181 0.930 . S
H190 C204 0.929 . S
H191 C171 0.931 . S
H192 C177 0.931 . S
H193 C178 0.931 . S
H194 C199 0.931 . S
H195 C174 0.929 . S
H196 C207 0.930 . S
N197 Eu168 2.600 1_545 S
N197 C198 1.365 . S
N197 C201 1.319 . S
C198 N197 1.365 . S
C198 C200 1.405 . S
C198 C206 1.448 1_545 S
C199 H194 0.931 . S
C199 C201 1.397 . S
C199 C202 1.367 . S
C200 C198 1.405 . S
C200 C202 1.403 . S
C200 C233 1.439 . S
C201 H186 0.930 . S
C201 N197 1.319 . S
C201 C199 1.397 . S
C202 C199 1.367 . S
C202 C200 1.403 . S
C202 H209 0.929 . S
N203 Eu168 2.562 . S
N203 C204 1.325 . S
N203 C206 1.351 . S
C204 H190 0.929 . S
C204 N203 1.325 . S
C204 C208 1.416 . S
C205 C206 1.430 . S
C205 C207 1.404 . S
C205 C234 1.387 1_565 S
C206 C198 1.448 1_565 S
C206 N203 1.351 . S
C206 C205 1.430 . S
C207 H196 0.930 . S
C207 C205 1.404 . S
C207 C208 1.366 . S
C208 H187 0.930 . S
C208 C204 1.416 . S
C208 C207 1.366 . S
H209 C202 0.929 . S
H210 C233 0.931 . S
H211 C234 0.931 . S
O212 Eu168 2.462 . S
O212 C232 1.252 . S
O213 Eu168 2.373 . S
O213 C224 1.249 . S
O214 Eu179 2.335 . S
O214 C224 1.264 . S
O215 Eu168 2.432 . S
O215 C232 1.268 . S
O216 Eu168 2.291 . S
O216 C231 1.255 . S
O217 Eu179 2.372 . S
O217 C231 1.257 . S
O218 Eu179 2.462 . S
O218 C243 1.252 . S
O219 Eu179 2.373 . S
O219 C235 1.249 . S
O220 Eu168 2.335 . S
O220 C235 1.264 . S
O221 Eu179 2.432 . S
O221 C243 1.268 . S
O222 Eu179 2.291 . S
O222 C242 1.255 . S
O223 Eu168 2.372 . S
O223 C242 1.257 . S
C224 O213 1.249 . S
C224 O214 1.264 . S
C225 C228 1.382 . S
C225 C230 1.390 . S
C225 C232 1.506 . S
C226 C227 1.398 . S
C226 C230 1.392 . S
C227 C226 1.398 . S
C227 C229 1.372 1_565 S
C227 H244 0.931 . S
C228 C225 1.382 . S
C228 C229 1.390 1_565 S
C228 H245 0.931 1_565 S
C229 C227 1.372 1_545 S
C229 C228 1.390 1_545 S
C229 H246 0.929 . S
C230 C225 1.390 . S
C230 C226 1.392 . S
C230 H247 0.930 . S
C231 O216 1.255 . S
C231 O217 1.257 . S
C232 Eu168 2.787 . S
C232 O212 1.252 . S
C232 O215 1.268 . S
C232 C225 1.506 . S
C233 C200 1.439 . S
C233 H210 0.931 . S
C233 C234 1.374 . S
C234 C205 1.387 1_545 S
C234 H211 0.931 . S
C234 C233 1.374 . S
C235 O219 1.249 . S
C235 O220 1.264 . S
C236 C239 1.382 . S
C236 C240 1.390 . S
C236 C243 1.506 . S
C237 C238 1.398 . S
C237 C240 1.392 1_655 S
C238 C237 1.398 . S
C238 C241 1.372 1_655 S
C238 H248 0.931 . S
C239 C236 1.382 . S
C239 C241 1.390 . S
C239 H249 0.931 . S
C240 C236 1.390 . S
C240 C237 1.392 1_455 S
C240 H250 0.930 . S
C241 C238 1.372 1_455 S
C241 C239 1.390 . S
C241 H251 0.929 . S
C242 O222 1.255 . S
C242 O223 1.257 . S
C243 Eu179 2.787 . S
C243 O218 1.252 . S
C243 O221 1.268 . S
C243 C236 1.506 . S
H244 C227 0.931 . S
H245 C228 0.931 1_545 S
H246 C229 0.929 . S
H247 C230 0.930 . S
H248 C238 0.931 . S
H249 C239 0.931 . S
H250 C240 0.930 . S
H251 C241 0.929 . S
Eu252 N281 2.600 . S
Eu252 N287 2.568 . S
Eu252 O296 2.462 . S
Eu252 O297 2.373 . S
Eu252 O299 2.432 . S
Eu252 O300 2.291 . S
Eu252 O304 2.335 . S
Eu252 O307 2.372 . S
Eu252 C316 2.787 . S
C253 N254 1.365 . S
C253 C256 1.405 . S
C253 C260 1.448 1_565 S
N254 C253 1.365 . S
N254 C257 1.319 . S
N254 Eu263 2.600 1_565 S
C255 C257 1.397 . S
C255 C258 1.367 . S
C255 H275 0.931 . S
C256 C253 1.405 . S
C256 C258 1.403 . S
C256 C262 1.439 . S
C257 N254 1.319 . S
C257 C255 1.397 . S
C257 H268 0.930 . S
C258 C255 1.367 . S
C258 C256 1.403 . S
C258 H279 0.929 . S
C259 C260 1.430 . S
C259 C261 1.387 1_545 S
C259 C265 1.404 . S
C260 C253 1.448 1_545 S
C260 C259 1.430 . S
C260 N264 1.351 . S
C261 C259 1.387 1_565 S
C261 C262 1.374 . S
C261 H276 0.931 . S
C262 C256 1.439 . S
C262 C261 1.374 . S
C262 H277 0.931 . S
Eu263 N254 2.600 1_545 S
Eu263 N264 2.562 . S
Eu263 O298 2.335 . S
Eu263 O301 2.372 . S
Eu263 O302 2.462 . S
Eu263 O303 2.373 . S
Eu263 O305 2.432 . S
Eu263 O306 2.291 . S
Eu263 C327 2.787 . S
N264 C260 1.351 . S
N264 Eu263 2.562 . S
N264 C266 1.325 . S
C265 C259 1.404 . S
C265 C267 1.366 . S
C265 H273 0.930 . S
C266 N264 1.325 . S
C266 C267 1.416 . S
C266 H272 0.929 . S
C267 C265 1.366 . S
C267 C266 1.416 . S
C267 H269 0.930 . S
H268 C257 0.930 . S
H269 C267 0.930 . S
H270 C285 0.930 . S
H271 C292 0.930 . S
H272 C266 0.929 . S
H273 C265 0.930 . S
H274 C288 0.929 . S
H275 C255 0.931 . S
H276 C261 0.931 . S
H277 C262 0.931 . S
H278 C283 0.931 . S
H279 C258 0.929 . S
H280 C291 0.930 . S
N281 Eu252 2.600 . S
N281 C282 1.365 . S
N281 C285 1.319 . S
C282 N281 1.365 . S
C282 C284 1.403 1_655 S
C282 C290 1.448 1_655 S
C283 H278 0.931 . S
C283 C285 1.397 . S
C283 C286 1.367 . S
C284 C282 1.403 1_455 S
C284 C286 1.400 1_455 S
C284 C317 1.444 . S
C285 H270 0.930 . S
C285 N281 1.319 . S
C285 C283 1.397 . S
C286 C283 1.367 . S
C286 C284 1.400 1_655 S
C286 H293 0.929 . S
N287 Eu252 2.568 . S
N287 C288 1.321 1_655 S
N287 C290 1.349 1_655 S
C288 H274 0.929 . S
C288 N287 1.321 1_455 S
C288 C292 1.416 . S
C289 C290 1.430 . S
C289 C291 1.404 . S
C289 C318 1.387 . S
C290 C282 1.448 1_455 S
C290 N287 1.349 1_455 S
C290 C289 1.430 . S
C291 H280 0.930 . S
C291 C289 1.404 . S
C291 C292 1.366 . S
C292 H271 0.930 . S
C292 C288 1.416 . S
C292 C291 1.366 . S
H293 C286 0.929 . S
H294 C317 0.931 . S
H295 C318 0.931 . S
O296 Eu252 2.462 . S
O296 C316 1.252 . S
O297 Eu252 2.373 . S
O297 C308 1.249 . S
O298 Eu263 2.335 . S
O298 C308 1.264 . S
O299 Eu252 2.432 . S
O299 C316 1.268 . S
O300 Eu252 2.291 . S
O300 C315 1.255 . S
O301 Eu263 2.372 . S
O301 C315 1.257 . S
O302 Eu263 2.462 . S
O302 C327 1.252 . S
O303 Eu263 2.373 . S
O303 C319 1.249 . S
O304 Eu252 2.335 . S
O304 C319 1.264 . S
O305 Eu263 2.432 . S
O305 C327 1.268 . S
O306 Eu263 2.291 . S
O306 C326 1.255 . S
O307 Eu252 2.372 . S
O307 C326 1.257 . S
C308 O297 1.249 . S
C308 O298 1.264 . S
C309 C312 1.382 . S
C309 C314 1.390 . S
C309 C316 1.506 . S
C310 C311 1.398 . S
C310 C314 1.392 1_455 S
C311 C310 1.398 . S
C311 C313 1.372 1_455 S
C311 H328 0.931 . S
C312 C309 1.382 . S
C312 C313 1.390 . S
C312 H329 0.931 . S
C313 C311 1.372 1_655 S
C313 C312 1.390 . S
C313 H330 0.929 . S
C314 C309 1.390 . S
C314 C310 1.392 1_655 S
C314 H331 0.930 . S
C315 O300 1.255 . S
C315 O301 1.257 . S
C316 Eu252 2.787 . S
C316 O296 1.252 . S
C316 O299 1.268 . S
C316 C309 1.506 . S
C317 C284 1.444 . S
C317 H294 0.931 . S
C317 C318 1.374 . S
C318 C289 1.387 . S
C318 H295 0.931 . S
C318 C317 1.374 . S
C319 O303 1.249 . S
C319 O304 1.264 . S
C320 C323 1.382 . S
C320 C324 1.390 . S
C320 C327 1.506 . S
C321 C322 1.398 . S
C321 C324 1.392 . S
C322 C321 1.398 . S
C322 C325 1.372 1_545 S
C322 H332 0.931 . S
C323 C320 1.382 . S
C323 C325 1.390 1_545 S
C323 H333 0.931 1_545 S
C324 C320 1.390 . S
C324 C321 1.392 . S
C324 H334 0.930 . S
C325 C322 1.372 1_565 S
C325 C323 1.390 1_565 S
C325 H335 0.929 . S
C326 O306 1.255 . S
C326 O307 1.257 . S
C327 Eu263 2.787 . S
C327 O302 1.252 . S
C327 O305 1.268 . S
C327 C320 1.506 . S
H328 C311 0.931 . S
H329 C312 0.931 . S
H330 C313 0.929 . S
H331 C314 0.930 . S
H332 C322 0.931 . S
H333 C323 0.931 1_565 S
H334 C324 0.930 . S
H335 C325 0.929 . S
C336 C337 1.370 . S
C336 C338 1.419 . S
C336 H340 0.930 . S
C337 C336 1.370 . S
C337 C346 1.428 1_554 S
C338 C336 1.419 . S
C338 C339 1.363 . S
C338 H341 0.929 . S
C339 C338 1.363 . S
C339 C345 1.428 1_554 S
H340 C336 0.930 . S
H341 C338 0.929 . S
S342 N343 1.613 . S
S342 N344 1.610 . S
N343 S342 1.613 . S
N343 C346 1.350 . S
N344 S342 1.610 . S
N344 C345 1.351 . S
C345 C339 1.428 1_556 S
C345 N344 1.351 . S
C345 C346 1.434 . S
C346 C337 1.428 1_556 S
C346 N343 1.350 . S
C346 C345 1.434 . S
C347 C348 1.369 . S
C347 C349 1.419 . S
C347 H351 0.930 . S
C348 C347 1.369 . S
C348 C357 1.429 . S
C349 C347 1.419 . S
C349 C350 1.363 . S
C349 H352 0.929 . S
C350 C349 1.363 . S
C350 C356 1.428 . S
H351 C347 0.930 . S
H352 C349 0.929 . S
S353 N354 1.613 . S
S353 N355 1.610 . S
N354 S353 1.613 . S
N354 C357 1.350 . S
N355 S353 1.610 . S
N355 C356 1.351 . S
C356 C350 1.428 . S
C356 N355 1.351 . S
C356 C357 1.434 . S
C357 C348 1.429 . S
C357 N354 1.350 . S
C357 C356 1.434 . S
C358 C359 1.366 1_554 S
C358 C360 1.419 1_455 S
C358 H362 0.930 . S
C359 C358 1.366 1_556 S
C359 C368 1.431 1_545 S
C360 C358 1.419 1_655 S
C360 C361 1.363 1_545 S
C360 H363 0.929 . S
C361 C360 1.363 1_565 S
C361 C367 1.428 1_554 S
H362 C358 0.930 . S
H363 C360 0.929 . S
S364 N365 1.613 . S
S364 N366 1.610 1_455 S
N365 S364 1.613 . S
N365 C368 1.350 . S
N366 S364 1.610 1_655 S
N366 C367 1.351 . S
C367 C361 1.428 1_556 S
C367 N366 1.351 . S
C367 C368 1.434 1_655 S
C368 C359 1.431 1_565 S
C368 N365 1.350 . S
C368 C367 1.434 1_455 S
C369 C370 1.369 1_565 S
C369 C371 1.420 . S
C369 H373 0.930 . S
C370 C369 1.369 1_545 S
C370 C379 1.429 1_655 S
C371 C369 1.420 . S
C371 C372 1.361 1_655 S
C371 H374 0.929 . S
C372 C371 1.361 1_455 S
C372 C378 1.428 1_565 S
H373 C369 0.930 . S
H374 C371 0.929 . S
S375 N376 1.613 . S
S375 N377 1.610 . S
N376 S375 1.613 . S
N376 C379 1.350 . S
N377 S375 1.610 . S
N377 C378 1.351 . S
C378 C372 1.428 1_545 S
C378 N377 1.351 . S
C378 C379 1.434 . S
C379 C370 1.429 1_455 S
C379 N376 1.350 . S
C379 C378 1.434 . S
C380 C381 1.369 . S
C380 C382 1.419 . S
C380 H384 0.930 . S
C381 C380 1.369 . S
C381 C390 1.429 . S
C382 C380 1.419 . S
C382 C383 1.363 . S
C382 H385 0.929 . S
C383 C382 1.363 . S
C383 C389 1.428 . S
H384 C380 0.930 . S
H385 C382 0.929 . S
S386 N387 1.613 . S
S386 N388 1.610 . S
N387 S386 1.613 . S
N387 C390 1.350 . S
N388 S386 1.610 . S
N388 C389 1.351 . S
C389 C383 1.428 . S
C389 N388 1.351 . S
C389 C390 1.434 . S
C390 C381 1.429 . S
C390 N387 1.350 . S
C390 C389 1.434 . S
C391 C392 1.369 . S
C391 C393 1.419 . S
C391 H395 0.930 . S
C392 C391 1.369 . S
C392 C401 1.429 . S
C393 C391 1.419 . S
C393 C394 1.363 . S
C393 H396 0.929 . S
C394 C393 1.363 . S
C394 C400 1.428 . S
H395 C391 0.930 . S
H396 C393 0.929 . S
S397 N398 1.613 1_545 S
S397 N399 1.610 1_545 S
N398 S397 1.613 1_565 S
N398 C401 1.350 . S
N399 S397 1.610 1_565 S
N399 C400 1.351 . S
C400 C394 1.428 . S
C400 N399 1.351 . S
C400 C401 1.434 . S
C401 C392 1.429 . S
C401 N398 1.350 . S
C401 C400 1.434 . S
C402 C403 1.369 . S
C402 C404 1.419 . S
C402 H406 0.930 . S
C403 C402 1.369 . S
C403 C412 1.429 . S
C404 C402 1.419 . S
C404 C405 1.363 . S
C404 H407 0.929 . S
C405 C404 1.363 . S
C405 C411 1.428 . S
H406 C402 0.930 . S
H407 C404 0.929 . S
S408 N409 1.613 1_545 S
S408 N410 1.610 1_545 S
N409 S408 1.613 1_565 S
N409 C412 1.350 . S
N410 S408 1.610 1_565 S
N410 C411 1.351 . S
C411 C405 1.428 . S
C411 N410 1.351 . S
C411 C412 1.434 . S
C412 C403 1.429 . S
C412 N409 1.350 . S
C412 C411 1.434 . S
C413 C414 1.369 . S
C413 C415 1.419 . S
C413 H417 0.930 . S
C414 C413 1.369 . S
C414 C423 1.429 . S
C415 C413 1.419 . S
C415 C416 1.363 . S
C415 H418 0.929 . S
C416 C415 1.363 . S
C416 C422 1.428 . S
H417 C413 0.930 . S
H418 C415 0.929 . S
S419 N420 1.613 . S
S419 N421 1.610 . S
N420 S419 1.613 . S
N420 C423 1.350 . S
N421 S419 1.610 . S
N421 C422 1.351 . S
C422 C416 1.428 . S
C422 N421 1.351 . S
C422 C423 1.434 . S
C423 C414 1.429 . S
C423 N420 1.350 . S
C423 C422 1.434 . S
C424 C425 1.369 . S
C424 C426 1.419 . S
C424 H428 0.930 . S
C425 C424 1.369 . S
C425 C434 1.429 . S
C426 C424 1.419 . S
C426 C427 1.363 . S
C426 H429 0.929 1_655 S
C427 C426 1.363 . S
C427 C433 1.428 . S
H428 C424 0.930 . S
H429 C426 0.929 1_455 S
S430 N431 1.613 . S
S430 N432 1.610 . S
N431 S430 1.613 . S
N431 C434 1.350 . S
N432 S430 1.610 . S
N432 C433 1.351 . S
C433 C427 1.428 . S
C433 N432 1.351 . S
C433 C434 1.434 . S
C434 C425 1.429 . S
C434 N431 1.350 . S
C434 C433 1.434 . S
C435 C436 1.369 . S
C435 C437 1.419 . S
C435 H439 0.930 . S
C436 C435 1.369 . S
C436 C445 1.429 . S
C437 C435 1.419 . S
C437 C438 1.363 . S
C437 H440 0.929 1_655 S
C438 C437 1.363 . S
C438 C444 1.428 . S
H439 C435 0.930 . S
H440 C437 0.929 1_455 S
S441 N442 1.613 . S
S441 N443 1.610 . S
N442 S441 1.613 . S
N442 C445 1.350 . S
N443 S441 1.610 . S
N443 C444 1.351 . S
C444 C438 1.428 . S
C444 N443 1.351 . S
C444 C445 1.434 . S
C445 C436 1.429 . S
C445 N442 1.350 . S
C445 C444 1.434 . S
C446 C447 1.369 . S
C446 C448 1.419 . S
C446 H450 0.930 . S
C447 C446 1.369 . S
C447 C456 1.429 . S
C448 C446 1.419 . S
C448 C449 1.363 . S
C448 H451 0.929 . S
C449 C448 1.363 . S
C449 C455 1.428 . S
H450 C446 0.930 . S
H451 C448 0.929 . S
S452 N453 1.613 . S
S452 N454 1.610 . S
N453 S452 1.613 . S
N453 C456 1.350 . S
N454 S452 1.610 . S
N454 C455 1.351 . S
C455 C449 1.428 . S
C455 N454 1.351 . S
C455 C456 1.434 . S
C456 C447 1.429 . S
C456 N453 1.350 . S
C456 C455 1.434 . S
C457 C458 1.369 . S
C457 C459 1.419 . S
C457 H461 0.930 . S
C458 C457 1.369 . S
C458 C467 1.429 . S
C459 C457 1.419 . S
C459 C460 1.363 . S
C459 H462 0.929 . S
C460 C459 1.363 . S
C460 C466 1.428 . S
H461 C457 0.930 . S
H462 C459 0.929 . S
S463 N464 1.613 . S
S463 N465 1.610 . S
N464 S463 1.613 . S
N464 C467 1.350 . S
N465 S463 1.610 . S
N465 C466 1.351 . S
C466 C460 1.428 . S
C466 N465 1.351 . S
C466 C467 1.434 . S
C467 C458 1.429 . S
C467 N464 1.350 . S
C467 C466 1.434 . S
C337 C158 1.533 1_554 S
C339 C63 1.539 . S
C348 C231 1.539 . S
C350 C326 1.534 . S
C359 C74 1.537 . S
C361 C147 1.538 . S
C370 C315 1.533 . S
C372 C242 1.539 . S
C381 C321 1.334 . S
C383 C56 1.386 . S
C392 C153 1.330 . S
C394 C224 1.386 . S
C403 C151 1.387 . S
C405 C226 1.331 . S
C414 C319 1.392 . S
C416 C58 1.334 . S
C425 C140 1.388 . S
C427 C237 1.339 . S
C436 C308 1.389 . S
C438 C69 1.339 . S
C447 C310 1.341 . S
C449 C67 1.389 . S
C458 C235 1.387 . S
C460 C142 1.331 . S
