# Generated by pormake.
# Topology qtz-e, (6)-cn, num edge types: 1
# Building blocks:
#     Node 0, Type 0, BuildingBlock: BETGAK_clean_sbu_0, # of connection points: 6
#     Node 1, Type 0, BuildingBlock: BETGAK_clean_sbu_0, # of connection points: 6
#     Node 2, Type 0, BuildingBlock: BETGAK_clean_sbu_0, # of connection points: 6
#     Node 3, Type 0, BuildingBlock: BETGAK_clean_sbu_0, # of connection points: 6
#     Node 4, Type 0, BuildingBlock: BETGAK_clean_sbu_0, # of connection points: 6
#     Node 5, Type 0, BuildingBlock: BETGAK_clean_sbu_0, # of connection points: 6
#     Edge 6, Type (0, 0), BuildingBlock: EYOCIG_clean_linker_4, # of connection points: 2
#     Edge 7, Type (0, 0), BuildingBlock: EYOCIG_clean_linker_4, # of connection points: 2
#     Edge 8, Type (0, 0), BuildingBlock: EYOCIG_clean_linker_4, # of connection points: 2
#     Edge 9, Type (0, 0), BuildingBlock: EYOCIG_clean_linker_4, # of connection points: 2
#     Edge 10, Type (0, 0), BuildingBlock: EYOCIG_clean_linker_4, # of connection points: 2
#     Edge 11, Type (0, 0), BuildingBlock: EYOCIG_clean_linker_4, # of connection points: 2
#     Edge 12, Type (0, 0), BuildingBlock: EYOCIG_clean_linker_4, # of connection points: 2
#     Edge 13, Type (0, 0), BuildingBlock: EYOCIG_clean_linker_4, # of connection points: 2
#     Edge 14, Type (0, 0), BuildingBlock: EYOCIG_clean_linker_4, # of connection points: 2
#     Edge 15, Type (0, 0), BuildingBlock: EYOCIG_clean_linker_4, # of connection points: 2
#     Edge 16, Type (0, 0), BuildingBlock: EYOCIG_clean_linker_4, # of connection points: 2
#     Edge 17, Type (0, 0), BuildingBlock: EYOCIG_clean_linker_4, # of connection points: 2
#     Edge 18, Type (0, 0), BuildingBlock: EYOCIG_clean_linker_4, # of connection points: 2
#     Edge 19, Type (0, 0), BuildingBlock: EYOCIG_clean_linker_4, # of connection points: 2
#     Edge 20, Type (0, 0), BuildingBlock: EYOCIG_clean_linker_4, # of connection points: 2
#     Edge 21, Type (0, 0), BuildingBlock: EYOCIG_clean_linker_4, # of connection points: 2
#     Edge 22, Type (0, 0), BuildingBlock: EYOCIG_clean_linker_4, # of connection points: 2
#     Edge 23, Type (0, 0), BuildingBlock: EYOCIG_clean_linker_4, # of connection points: 2
# Relax obj value: 0.216
# Max RMSD: 0.223
# Mean RMSD: 0.223
data_MOF--net-qtz-e--node1-BETGAK_clean_sbu_0--edge1-EYOCIG_clean_linker_4
_symmetry_space_group_name_H-M    P1
_symmetry_Int_Tables_number       1
_symmetry_cell_setting            triclinic
loop_
_symmetry_equiv_pos_as_xyz
'x, y, z'
_cell_length_a     20.23779
_cell_length_b     20.238306
_cell_length_c     43.542189
_cell_angle_alpha  90.002604
_cell_angle_beta   89.998443
_cell_angle_gamma 119.99334
loop_
_atom_site_label
_atom_site_type_symbol
_atom_site_fract_x
_atom_site_fract_y
_atom_site_fract_z
_atom_type_partial_charge
La0 La 0.1861 0.5342 0.22627 0.0
La1 La 0.12484 0.3829 0.19294 0.0
C2 C 0.20206 0.64325 0.25905 0.0
C3 C 0.22781 0.66461 0.29096 0.0
C4 C 0.30311 0.68639 0.29953 0.0
C5 C 0.32655 0.70515 0.32988 0.0
C6 C 0.2752 0.70215 0.35199 0.0
C7 C 0.19999 0.67992 0.34385 0.0
C8 C 0.17637 0.66128 0.31339 0.0
C9 C 0.28991 0.49515 0.21537 0.0
C10 C 0.09926 0.38296 0.26529 0.0
C11 C 0.1067 0.26355 0.16716 0.0
C12 C 0.11552 0.24464 0.13482 0.0
C13 C 0.05125 0.1979 0.11662 0.0
C14 C 0.05997 0.17857 0.08647 0.0
C15 C 0.13303 0.20543 0.07405 0.0
C16 C 0.19714 0.25276 0.09188 0.0
C17 C 0.18861 0.27217 0.1219 0.0
C18 C 0.04905 0.45578 0.18233 0.0
C19 C 0.21656 0.53619 0.15738 0.0
O20 O 0.25338 0.64814 0.23957 0.0
O21 O 0.13653 0.58069 0.25524 0.0
O22 O 0.30431 0.56441 0.21855 0.0
O23 O 0.22051 0.45009 0.22176 0.0
O24 O 0.14842 0.45713 0.26556 0.0
O25 O 0.07811 0.34204 0.23949 0.0
O26 O 0.04997 0.27551 0.17321 0.0
O27 O 0.1695 0.31267 0.1813 0.0
O28 O 0.0567 0.41248 0.16251 0.0
O29 O 0.07875 0.45307 0.20735 0.0
O30 O 0.20437 0.46611 0.16051 0.0
O31 O 0.19804 0.57038 0.1787 0.0
H32 H 0.34414 0.68906 0.28289 0.0
H33 H 0.38494 0.72262 0.33604 0.0
H34 H 0.1599 0.67768 0.3609 0.0
H35 H 0.11805 0.64424 0.30735 0.0
H36 H 0.99427 0.17582 0.12578 0.0
H37 H 1.00968 0.1421 0.07299 0.0
H38 H 0.25404 0.27428 0.08269 0.0
H39 H 0.23961 0.30841 0.13502 0.0
La40 La 0.87154 0.37728 0.44647 0.0
La41 La 0.93276 0.28726 0.47982 0.0
C42 C 0.8556 0.47034 0.41367 0.0
C43 C 0.82977 0.46584 0.38175 0.0
C44 C 0.75437 0.41248 0.37326 0.0
C45 C 0.73086 0.40762 0.3429 0.0
C46 C 0.78224 0.45561 0.32074 0.0
C47 C 0.85755 0.50846 0.32881 0.0
C48 C 0.88123 0.51362 0.35927 0.0
C49 C 0.76769 0.23448 0.4574 0.0
C50 C 0.9583 0.31273 0.40747 0.0
C51 C 0.95087 0.18608 0.50564 0.0
C52 C 0.94211 0.15844 0.538 0.0
C53 C 1.0064 0.1761 0.5562 0.0
C54 C 0.99774 0.14813 0.58636 0.0
C55 C 0.92469 0.10186 0.59878 0.0
C56 C 0.86055 0.08496 0.58094 0.0
C57 C 0.86904 0.11282 0.55091 0.0
C58 C 1.00861 0.43593 0.4904 0.0
C59 C 0.84111 0.34898 0.51536 0.0
O60 O 0.80432 0.42403 0.43317 0.0
O61 O 0.92112 0.47325 0.41745 0.0
O62 O 0.75332 0.28937 0.45421 0.0
O63 O 0.83708 0.25877 0.451 0.0
O64 O 0.90917 0.33779 0.40719 0.0
O65 O 0.97944 0.29299 0.43328 0.0
O66 O 1.00762 0.25472 0.49955 0.0
O67 O 0.88805 0.1724 0.49152 0.0
O68 O 1.00093 0.385 0.51023 0.0
O69 O 0.97889 0.40349 0.46539 0.0
O70 O 0.85325 0.29105 0.51224 0.0
O71 O 0.85965 0.40165 0.49402 0.0
H72 H 0.71331 0.37438 0.38995 0.0
H73 H 0.67241 0.36682 0.33679 0.0
H74 H 0.89765 0.54604 0.31171 0.0
H75 H 0.93963 0.55477 0.36526 0.0
H76 H 0.06337 0.21105 0.54704 0.0
H77 H 0.04805 0.16205 0.59984 0.0
H78 H 0.80366 0.04952 0.59014 0.0
H79 H 0.81801 0.09796 0.53779 0.0
La80 La 0.51971 0.67292 0.89294 0.0
La81 La 0.67102 0.76298 0.85963 0.0
C82 C 0.41069 0.57983 0.92572 0.0
C83 C 0.38941 0.58419 0.95766 0.0
C84 C 0.36757 0.63766 0.96625 0.0
C85 C 0.34888 0.64233 0.99661 0.0
C86 C 0.35201 0.59403 1.0187 0.0
C87 C 0.3743 0.5411 1.01054 0.0
C88 C 0.39287 0.53614 0.98007 0.0
C89 C 0.55871 0.81575 0.88203 0.0
C90 C 0.67095 0.73734 0.93197 0.0
C91 C 0.79034 0.86424 0.83386 0.0
C92 C 0.8092 0.892 0.80152 0.0
C93 C 0.85631 0.87488 0.78336 0.0
C94 C 0.87561 0.90297 0.75322 0.0
C95 C 0.84836 0.94882 0.74077 0.0
C96 C 0.80066 0.96518 0.75856 0.0
C97 C 0.78128 0.93719 0.78857 0.0
C98 C 0.5982 0.61432 0.84901 0.0
C99 C 0.51773 0.70137 0.82405 0.0
O100 O 0.40579 0.62629 0.90628 0.0
O101 O 0.47323 0.57681 0.92188 0.0
O102 O 0.48944 0.76086 0.8852 0.0
O103 O 0.60378 0.79143 0.88844 0.0
O104 O 0.59678 0.71233 0.93223 0.0
O105 O 0.71188 0.75711 0.90617 0.0
O106 O 0.77841 0.79555 0.83988 0.0
O107 O 0.74122 0.87789 0.84803 0.0
O108 O 0.6415 0.66527 0.8292 0.0
O109 O 0.60089 0.64674 0.87403 0.0
O110 O 0.5878 0.75927 0.82719 0.0
O111 O 0.48354 0.64867 0.84537 0.0
H112 H 0.36479 0.67598 0.94962 0.0
H113 H 0.33136 0.6832 1.00279 0.0
H114 H 0.37664 0.50329 1.02758 0.0
H115 H 0.40996 0.4949 0.97401 0.0
H116 H 0.87869 0.84026 0.79254 0.0
H117 H 0.91236 0.88946 0.73977 0.0
H118 H 0.77884 1.00029 0.74934 0.0
H119 H 0.74474 0.95162 0.80166 0.0
La120 La 0.67661 0.51536 0.11315 0.0
La121 La 0.76661 0.66659 0.14651 0.0
C122 C 0.58359 0.40638 0.08033 0.0
C123 C 0.58809 0.38508 0.04841 0.0
C124 C 0.64126 0.36277 0.03992 0.0
C125 C 0.64613 0.34415 1.00957 0.0
C126 C 0.59831 0.34781 0.98739 0.0
C127 C 0.54565 0.37053 0.99545 0.0
C128 C 0.54049 0.38904 1.02591 0.0
C129 C 0.81941 0.5543 0.12411 0.0
C130 C 0.74117 0.66666 0.07415 0.0
C131 C 0.86778 0.78587 0.17233 0.0
C132 C 0.89541 0.80476 0.20469 0.0
C133 C 0.87779 0.85144 0.22288 0.0
C134 C 0.90577 0.87076 0.25304 0.0
C135 C 0.95201 0.84396 0.26547 0.0
C136 C 0.96889 0.79669 0.24764 0.0
C137 C 0.94101 0.77728 0.21762 0.0
C138 C 0.61793 0.59379 0.15707 0.0
C139 C 0.70485 0.51323 0.18204 0.0
O140 O 0.62994 0.40143 0.09982 0.0
O141 O 0.58063 0.46896 0.08414 0.0
O142 O 0.76452 0.48505 0.12092 0.0
O143 O 0.79513 0.5994 0.1177 0.0
O144 O 0.71613 0.59249 0.07388 0.0
O145 O 0.76089 0.70754 0.09997 0.0
O146 O 0.79913 0.77398 0.16625 0.0
O147 O 0.88146 0.73673 0.15821 0.0
O148 O 0.66884 0.63702 0.17691 0.0
O149 O 0.65039 0.59651 0.13206 0.0
O150 O 0.76278 0.58328 0.17894 0.0
O151 O 0.6522 0.47911 0.16069 0.0
H152 H 0.67922 0.35959 0.05663 0.0
H153 H 0.68678 0.32628 1.00347 0.0
H154 H 0.5082 0.37326 0.97833 0.0
H155 H 0.49948 0.40648 1.03189 0.0
H156 H 0.84285 0.87348 0.21372 0.0
H157 H 0.89187 0.90719 0.26651 0.0
H158 H 1.00431 0.77522 0.25685 0.0
H159 H 0.95586 0.7411 0.2045 0.0
La160 La 0.38103 0.86776 0.55959 0.0
La161 La 0.29097 0.92904 0.52629 0.0
C162 C 0.47407 0.85175 0.59238 0.0
C163 C 0.46971 0.82612 0.62431 0.0
C164 C 0.41635 0.75078 0.63289 0.0
C165 C 0.41168 0.72744 0.66326 0.0
C166 C 0.45988 0.7789 0.68536 0.0
C167 C 0.51271 0.85415 0.67721 0.0
C168 C 0.51767 0.87768 0.64674 0.0
C169 C 0.23821 0.76396 0.54865 0.0
C170 C 0.31661 0.95458 0.59863 0.0
C171 C 0.18971 0.94713 0.50053 0.0
C172 C 0.16193 0.93826 0.4682 0.0
C173 C 0.17918 1.0025 0.45003 0.0
C174 C 0.15108 0.99374 0.41989 0.0
C175 C 0.1051 0.92065 0.40745 0.0
C176 C 0.08861 0.85658 0.42525 0.0
C177 C 0.1166 0.86516 0.45526 0.0
C178 C 0.43964 1.00489 0.51569 0.0
C179 C 0.35267 0.83745 0.49069 0.0
O180 O 0.42757 0.8004 0.57294 0.0
O181 O 0.47715 0.91733 0.58853 0.0
O182 O 0.29311 0.74958 0.5518 0.0
O183 O 0.26251 0.83333 0.55509 0.0
O184 O 0.34161 0.90541 0.59889 0.0
O185 O 0.29685 0.97576 0.57284 0.0
O186 O 0.2584 1.00388 0.50656 0.0
O187 O 0.17607 0.88436 0.51468 0.0
O188 O 0.38869 0.99725 0.49588 0.0
O189 O 0.40722 0.97514 0.5407 0.0
O190 O 0.29475 0.8496 0.49383 0.0
O191 O 0.40534 0.85592 0.51202 0.0
H192 H 0.37811 0.70966 0.61625 0.0
H193 H 0.37089 0.66902 0.66943 0.0
H194 H 0.55045 0.89432 0.69426 0.0
H195 H 0.55883 0.93602 0.64069 0.0
H196 H 0.21391 0.05949 0.4592 0.0
H197 H 0.16469 0.044 0.40643 0.0
H198 H 0.0534 0.79967 0.41604 0.0
H199 H 0.10207 0.81418 0.46836 0.0
La200 La 0.53857 0.1823 0.77981 0.0
La201 La 0.38733 0.12108 0.81316 0.0
C202 C 0.64756 0.19826 0.747 0.0
C203 C 0.66883 0.22402 0.71507 0.0
C204 C 0.69115 0.29949 0.70658 0.0
C205 C 0.70974 0.32294 0.67622 0.0
C206 C 0.70603 0.27144 0.65404 0.0
C207 C 0.6833 0.19607 0.66211 0.0
C208 C 0.66483 0.17244 0.69257 0.0
C209 C 0.49963 0.28617 0.79078 0.0
C210 C 0.38729 0.09556 0.74081 0.0
C211 C 0.26799 0.10292 0.83896 0.0
C212 C 0.24905 0.11167 0.87131 0.0
C213 C 0.2022 0.04736 0.88946 0.0
C214 C 0.18282 0.056 0.91961 0.0
C215 C 0.20973 0.12904 0.93207 0.0
C216 C 0.25716 0.19318 0.91428 0.0
C217 C 0.27663 0.18472 0.88426 0.0
C218 C 0.46015 0.04521 0.82373 0.0
C219 C 0.54068 0.21268 0.84871 0.0
O220 O 0.65249 0.24957 0.76648 0.0
O221 O 0.58501 0.13273 0.75082 0.0
O222 O 0.56888 0.30051 0.78759 0.0
O223 O 0.45452 0.21679 0.78436 0.0
O224 O 0.46146 0.14471 0.74054 0.0
O225 O 0.34641 0.07439 0.76662 0.0
O226 O 0.27994 0.04619 0.83288 0.0
O227 O 0.31713 0.16575 0.82484 0.0
O228 O 0.41691 0.0529 0.84357 0.0
O229 O 0.45743 0.07494 0.79872 0.0
O230 O 0.47061 0.20054 0.8456 0.0
O231 O 0.57481 0.19416 0.82736 0.0
H232 H 0.69437 0.34065 0.72328 0.0
H233 H 0.72761 0.38145 0.67012 0.0
H234 H 0.68054 0.15587 0.64499 0.0
H235 H 0.64738 0.11399 0.69856 0.0
H236 H 0.18008 0.9904 0.88028 0.0
H237 H 0.14627 1.00569 0.93306 0.0
H238 H 0.27872 0.25006 0.9235 0.0
H239 H 0.31295 0.23575 0.87117 0.0
C240 C 0.34617 0.77399 0.43807 0.0
C241 C 0.35655 0.80283 0.46291 0.0
C242 C 0.32349 0.74488 0.4084 0.0
C243 C 0.30125 0.72534 0.38269 0.0
C244 C 0.74848 0.31976 0.59761 0.0
C245 C 0.72906 0.29748 0.62333 0.0
C246 C 0.77755 0.34248 0.56795 0.0
C247 C 0.80643 0.35288 0.54311 0.0
C248 C 0.28018 0.59316 0.10479 0.0
C249 C 0.25127 0.57471 0.12962 0.0
C250 C 0.30933 0.59958 0.07513 0.0
C251 C 0.32885 0.59686 0.04941 0.0
C252 C 0.7339 0.44975 0.26431 0.0
C253 C 0.75615 0.45258 0.29003 0.0
C254 C 0.71125 0.45615 0.23464 0.0
C255 C 0.7009 0.47465 0.2098 0.0
C256 C 0.46077 0.70799 0.77145 0.0
C257 C 0.47922 0.69754 0.79628 0.0
C258 C 0.45435 0.7307 0.74179 0.0
C259 C 0.45707 0.75294 0.71607 0.0
C260 C 0.60415 0.3053 0.93096 0.0
C261 C 0.60131 0.32474 0.95668 0.0
C262 C 0.59776 0.27621 0.9013 0.0
C263 C 0.57926 0.24734 0.87646 0.0
C264 C 0.39911 0.48643 0.1867 0.0
C265 C 0.34253 0.47811 0.19972 0.0
C266 C 0.47205 0.51447 0.17292 0.0
C267 C 0.53722 0.54833 0.16361 0.0
C268 C 0.12023 0.65475 0.52003 0.0
C269 C 0.16852 0.71132 0.53303 0.0
C270 C 0.07528 0.58181 0.50625 0.0
C271 C 0.04392 0.51664 0.49694 0.0
C272 C 0.53942 0.9786 0.83959 0.0
C273 C 0.50558 0.00993 0.83027 0.0
C274 C 0.56743 0.93367 0.85338 0.0
C275 C 0.57573 0.8854 0.86639 0.0
C276 C 0.519 0.46844 0.83315 0.0
C277 C 0.55282 0.53362 0.84246 0.0
C278 C 0.49098 0.39548 0.81939 0.0
C279 C 0.48264 0.33886 0.8064 0.0
C280 C 0.98234 0.53497 0.16648 0.0
C281 C 0.01371 0.50116 0.17578 0.0
C282 C 0.93738 0.56297 0.15272 0.0
C283 C 0.88909 0.57128 0.13973 0.0
C284 C 0.58551 0.07159 0.49983 0.0
C285 C 0.52034 0.04022 0.50914 0.0
C286 C 0.65845 0.11655 0.48605 0.0
C287 C 0.71503 0.16483 0.47304 0.0
C288 C 0.17198 0.1509 0.98821 0.0
C289 C 0.18805 0.13895 0.96277 0.0
C290 C 0.15501 0.1678 1.01791 0.0
C291 C 0.14301 0.18383 0.04335 0.0
C292 C 0.01551 0.31572 0.35196 0.0
C293 C 0.99264 0.31207 0.37815 0.0
C294 C 0.04199 0.3289 0.3208 0.0
C295 C 0.06487 0.34802 0.29461 0.0
C296 C 0.88593 0.00849 0.68463 0.0
C297 C 0.86994 0.98046 0.71008 0.0
C298 C 0.90282 0.04235 0.65494 0.0
C299 C 0.91477 0.07033 0.62949 0.0
C300 C 0.72501 0.73417 0.98749 0.0
C301 C 0.70589 0.7379 0.9613 0.0
C302 C 0.73819 0.72088 1.01865 0.0
C303 C 0.74184 0.70167 0.04484 0.0
C304 C 0.04542 0.8986 0.35132 0.0
C305 C 0.07347 0.91063 0.37676 0.0
C306 C 1.01155 0.88164 0.32162 0.0
C307 C 0.98356 0.8656 0.29617 0.0
C308 C 0.3331 0.03833 0.6853 0.0
C309 C 0.3523 0.06121 0.71149 0.0
C310 C 0.31981 0.01184 0.65415 0.0
C311 C 0.31606 0.98896 0.62796 0.0
loop_
_geom_bond_atom_site_label_1
_geom_bond_atom_site_label_2
_geom_bond_distance
_geom_bond_site_symmetry_2
_ccdc_geom_bond_type
La0 C2 2.928 . S
La0 O20 2.521 . S
La0 O21 2.628 . S
La0 O22 2.554 . S
La0 O23 2.757 . S
La0 O24 2.470 . S
La0 O29 2.482 . S
La0 O31 2.503 . S
La1 C11 2.928 . S
La1 O23 2.482 . S
La1 O25 2.503 . S
La1 O26 2.521 . S
La1 O27 2.628 . S
La1 O28 2.554 1_455 S
La1 O29 2.757 . S
La1 O30 2.470 . S
C2 La0 2.928 . S
C2 C3 1.503 . S
C2 O20 1.261 . S
C2 O21 1.243 . S
C3 C2 1.503 . S
C3 C4 1.394 . S
C3 C8 1.373 . S
C4 C3 1.394 . S
C4 C5 1.380 . S
C4 H32 0.930 . S
C5 C4 1.380 . S
C5 C6 1.376 . S
C5 H33 0.930 . S
C6 C5 1.376 . S
C6 C7 1.370 . S
C7 C6 1.370 . S
C7 C8 1.396 . S
C7 H34 0.929 . S
C8 C3 1.373 . S
C8 C7 1.396 . S
C8 H35 0.929 . S
C9 O22 1.240 . S
C9 O23 1.289 . S
C10 O24 1.258 . S
C10 O25 1.256 . S
C11 La1 2.928 . S
C11 C12 1.503 . S
C11 O26 1.261 . S
C11 O27 1.243 . S
C12 C11 1.503 . S
C12 C13 1.394 1_455 S
C12 C17 1.373 . S
C13 C12 1.394 1_655 S
C13 C14 1.380 . S
C13 H36 0.930 . S
C14 C13 1.380 . S
C14 C15 1.376 1_655 S
C14 H37 0.930 . S
C15 C14 1.376 1_455 S
C15 C16 1.370 . S
C16 C15 1.370 . S
C16 C17 1.396 . S
C16 H38 0.929 . S
C17 C12 1.373 . S
C17 C16 1.396 . S
C17 H39 0.929 . S
C18 O28 1.240 . S
C18 O29 1.289 1_655 S
C19 O30 1.258 . S
C19 O31 1.256 . S
O20 La0 2.521 . S
O20 C2 1.261 . S
O21 La0 2.628 . S
O21 C2 1.243 . S
O22 La0 2.554 . S
O22 C9 1.240 . S
O23 La0 2.757 . S
O23 La1 2.482 . S
O23 C9 1.289 . S
O24 La0 2.470 . S
O24 C10 1.258 . S
O25 La1 2.503 . S
O25 C10 1.256 . S
O26 La1 2.521 . S
O26 C11 1.261 . S
O27 La1 2.628 . S
O27 C11 1.243 . S
O28 La1 2.554 1_655 S
O28 C18 1.240 . S
O29 La0 2.482 . S
O29 La1 2.757 . S
O29 C18 1.289 1_455 S
O30 La1 2.470 . S
O30 C19 1.258 . S
O31 La0 2.503 . S
O31 C19 1.256 . S
H32 C4 0.930 . S
H33 C5 0.930 . S
H34 C7 0.929 . S
H35 C8 0.929 . S
H36 C13 0.930 . S
H37 C14 0.930 . S
H38 C16 0.929 . S
H39 C17 0.929 . S
La40 C42 2.928 . S
La40 O60 2.521 . S
La40 O61 2.628 . S
La40 O62 2.554 . S
La40 O63 2.757 . S
La40 O64 2.470 . S
La40 O69 2.482 . S
La40 O71 2.503 . S
La41 C51 2.928 . S
La41 O63 2.482 . S
La41 O65 2.503 . S
La41 O66 2.521 1_655 S
La41 O67 2.628 . S
La41 O68 2.554 1_655 S
La41 O69 2.757 . S
La41 O70 2.470 . S
C42 La40 2.928 . S
C42 C43 1.503 . S
C42 O60 1.261 . S
C42 O61 1.243 . S
C43 C42 1.503 . S
C43 C44 1.394 . S
C43 C48 1.373 . S
C44 C43 1.394 . S
C44 C45 1.380 . S
C44 H72 0.930 . S
C45 C44 1.380 . S
C45 C46 1.376 . S
C45 H73 0.930 . S
C46 C45 1.376 . S
C46 C47 1.370 . S
C47 C46 1.370 . S
C47 C48 1.396 . S
C47 H74 0.929 . S
C48 C43 1.373 . S
C48 C47 1.396 . S
C48 H75 0.929 . S
C49 O62 1.240 . S
C49 O63 1.289 . S
C50 O64 1.258 . S
C50 O65 1.256 . S
C51 La41 2.928 . S
C51 C52 1.503 . S
C51 O66 1.261 1_655 S
C51 O67 1.243 . S
C52 C51 1.503 . S
C52 C53 1.394 1_655 S
C52 C57 1.373 . S
C53 C52 1.394 1_455 S
C53 C54 1.380 . S
C53 H76 0.930 . S
C54 C53 1.380 . S
C54 C55 1.376 1_455 S
C54 H77 0.930 . S
C55 C54 1.376 1_655 S
C55 C56 1.370 . S
C56 C55 1.370 . S
C56 C57 1.396 . S
C56 H78 0.929 . S
C57 C52 1.373 . S
C57 C56 1.396 . S
C57 H79 0.929 . S
C58 O68 1.240 . S
C58 O69 1.289 1_455 S
C59 O70 1.258 . S
C59 O71 1.256 . S
O60 La40 2.521 . S
O60 C42 1.261 . S
O61 La40 2.628 . S
O61 C42 1.243 . S
O62 La40 2.554 . S
O62 C49 1.240 . S
O63 La40 2.757 . S
O63 La41 2.482 . S
O63 C49 1.289 . S
O64 La40 2.470 . S
O64 C50 1.258 . S
O65 La41 2.503 . S
O65 C50 1.256 . S
O66 La41 2.521 1_455 S
O66 C51 1.261 1_455 S
O67 La41 2.628 . S
O67 C51 1.243 . S
O68 La41 2.554 1_455 S
O68 C58 1.240 . S
O69 La40 2.482 . S
O69 La41 2.757 . S
O69 C58 1.289 1_655 S
O70 La41 2.470 . S
O70 C59 1.258 . S
O71 La40 2.503 . S
O71 C59 1.256 . S
H72 C44 0.930 . S
H73 C45 0.930 . S
H74 C47 0.929 . S
H75 C48 0.929 . S
H76 C53 0.930 . S
H77 C54 0.930 . S
H78 C56 0.929 . S
H79 C57 0.929 . S
La80 C82 2.928 . S
La80 O100 2.521 . S
La80 O101 2.628 . S
La80 O102 2.554 . S
La80 O103 2.757 . S
La80 O104 2.470 . S
La80 O109 2.482 . S
La80 O111 2.503 . S
La81 C91 2.928 . S
La81 O103 2.482 . S
La81 O105 2.503 . S
La81 O106 2.521 . S
La81 O107 2.628 . S
La81 O108 2.554 . S
La81 O109 2.757 . S
La81 O110 2.470 . S
C82 La80 2.928 . S
C82 C83 1.503 . S
C82 O100 1.261 . S
C82 O101 1.243 . S
C83 C82 1.503 . S
C83 C84 1.394 . S
C83 C88 1.373 . S
C84 C83 1.394 . S
C84 C85 1.380 . S
C84 H112 0.930 . S
C85 C84 1.380 . S
C85 C86 1.376 . S
C85 H113 0.930 . S
C86 C85 1.376 . S
C86 C87 1.370 . S
C87 C86 1.370 . S
C87 C88 1.396 . S
C87 H114 0.929 . S
C88 C83 1.373 . S
C88 C87 1.396 . S
C88 H115 0.929 . S
C89 O102 1.240 . S
C89 O103 1.289 . S
C90 O104 1.258 . S
C90 O105 1.256 . S
C91 La81 2.928 . S
C91 C92 1.503 . S
C91 O106 1.261 . S
C91 O107 1.243 . S
C92 C91 1.503 . S
C92 C93 1.394 . S
C92 C97 1.373 . S
C93 C92 1.394 . S
C93 C94 1.380 . S
C93 H116 0.930 . S
C94 C93 1.380 . S
C94 C95 1.376 . S
C94 H117 0.930 . S
C95 C94 1.376 . S
C95 C96 1.370 . S
C96 C95 1.370 . S
C96 C97 1.396 . S
C96 H118 0.929 . S
C97 C92 1.373 . S
C97 C96 1.396 . S
C97 H119 0.929 . S
C98 O108 1.240 . S
C98 O109 1.289 . S
C99 O110 1.258 . S
C99 O111 1.256 . S
O100 La80 2.521 . S
O100 C82 1.261 . S
O101 La80 2.628 . S
O101 C82 1.243 . S
O102 La80 2.554 . S
O102 C89 1.240 . S
O103 La80 2.757 . S
O103 La81 2.482 . S
O103 C89 1.289 . S
O104 La80 2.470 . S
O104 C90 1.258 . S
O105 La81 2.503 . S
O105 C90 1.256 . S
O106 La81 2.521 . S
O106 C91 1.261 . S
O107 La81 2.628 . S
O107 C91 1.243 . S
O108 La81 2.554 . S
O108 C98 1.240 . S
O109 La80 2.482 . S
O109 La81 2.757 . S
O109 C98 1.289 . S
O110 La81 2.470 . S
O110 C99 1.258 . S
O111 La80 2.503 . S
O111 C99 1.256 . S
H112 C84 0.930 . S
H113 C85 0.930 . S
H114 C87 0.929 . S
H115 C88 0.929 . S
H116 C93 0.930 . S
H117 C94 0.930 . S
H118 C96 0.929 . S
H119 C97 0.929 . S
La120 C122 2.928 . S
La120 O140 2.521 . S
La120 O141 2.628 . S
La120 O142 2.554 . S
La120 O143 2.757 . S
La120 O144 2.470 . S
La120 O149 2.482 . S
La120 O151 2.503 . S
La121 C131 2.928 . S
La121 O143 2.482 . S
La121 O145 2.503 . S
La121 O146 2.521 . S
La121 O147 2.628 . S
La121 O148 2.554 . S
La121 O149 2.757 . S
La121 O150 2.470 . S
C122 La120 2.928 . S
C122 C123 1.503 1_554 S
C122 O140 1.261 . S
C122 O141 1.243 . S
C123 C122 1.503 1_556 S
C123 C124 1.394 . S
C123 C128 1.373 . S
C124 C123 1.394 . S
C124 C125 1.380 . S
C124 H152 0.930 . S
C125 C124 1.380 . S
C125 C126 1.376 . S
C125 H153 0.930 . S
C126 C125 1.376 . S
C126 C127 1.370 . S
C127 C126 1.370 . S
C127 C128 1.396 . S
C127 H154 0.929 . S
C128 C123 1.373 . S
C128 C127 1.396 . S
C128 H155 0.929 . S
C129 O142 1.240 . S
C129 O143 1.289 . S
C130 O144 1.258 . S
C130 O145 1.256 . S
C131 La121 2.928 . S
C131 C132 1.503 . S
C131 O146 1.261 . S
C131 O147 1.243 . S
C132 C131 1.503 . S
C132 C133 1.394 . S
C132 C137 1.373 . S
C133 C132 1.394 . S
C133 C134 1.380 . S
C133 H156 0.930 . S
C134 C133 1.380 . S
C134 C135 1.376 . S
C134 H157 0.930 . S
C135 C134 1.376 . S
C135 C136 1.370 . S
C136 C135 1.370 . S
C136 C137 1.396 . S
C136 H158 0.929 . S
C137 C132 1.373 . S
C137 C136 1.396 . S
C137 H159 0.929 . S
C138 O148 1.240 . S
C138 O149 1.289 . S
C139 O150 1.258 . S
C139 O151 1.256 . S
O140 La120 2.521 . S
O140 C122 1.261 . S
O141 La120 2.628 . S
O141 C122 1.243 . S
O142 La120 2.554 . S
O142 C129 1.240 . S
O143 La120 2.757 . S
O143 La121 2.482 . S
O143 C129 1.289 . S
O144 La120 2.470 . S
O144 C130 1.258 . S
O145 La121 2.503 . S
O145 C130 1.256 . S
O146 La121 2.521 . S
O146 C131 1.261 . S
O147 La121 2.628 . S
O147 C131 1.243 . S
O148 La121 2.554 . S
O148 C138 1.240 . S
O149 La120 2.482 . S
O149 La121 2.757 . S
O149 C138 1.289 . S
O150 La121 2.470 . S
O150 C139 1.258 . S
O151 La120 2.503 . S
O151 C139 1.256 . S
H152 C124 0.930 . S
H153 C125 0.930 . S
H154 C127 0.929 . S
H155 C128 0.929 . S
H156 C133 0.930 . S
H157 C134 0.930 . S
H158 C136 0.929 . S
H159 C137 0.929 . S
La160 C162 2.928 . S
La160 O180 2.521 . S
La160 O181 2.628 . S
La160 O182 2.554 . S
La160 O183 2.757 . S
La160 O184 2.470 . S
La160 O189 2.482 . S
La160 O191 2.503 . S
La161 C171 2.928 . S
La161 O183 2.482 . S
La161 O185 2.503 . S
La161 O186 2.521 1_565 S
La161 O187 2.628 . S
La161 O188 2.554 1_565 S
La161 O189 2.757 . S
La161 O190 2.470 . S
C162 La160 2.928 . S
C162 C163 1.503 . S
C162 O180 1.261 . S
C162 O181 1.243 . S
C163 C162 1.503 . S
C163 C164 1.394 . S
C163 C168 1.373 . S
C164 C163 1.394 . S
C164 C165 1.380 . S
C164 H192 0.930 . S
C165 C164 1.380 . S
C165 C166 1.376 . S
C165 H193 0.930 . S
C166 C165 1.376 . S
C166 C167 1.370 . S
C167 C166 1.370 . S
C167 C168 1.396 . S
C167 H194 0.929 . S
C168 C163 1.373 . S
C168 C167 1.396 . S
C168 H195 0.929 . S
C169 O182 1.240 . S
C169 O183 1.289 . S
C170 O184 1.258 . S
C170 O185 1.256 . S
C171 La161 2.928 . S
C171 C172 1.503 . S
C171 O186 1.261 1_565 S
C171 O187 1.243 . S
C172 C171 1.503 . S
C172 C173 1.394 1_565 S
C172 C177 1.373 . S
C173 C172 1.394 1_545 S
C173 C174 1.380 . S
C173 H196 0.930 . S
C174 C173 1.380 . S
C174 C175 1.376 1_545 S
C174 H197 0.930 . S
C175 C174 1.376 1_565 S
C175 C176 1.370 . S
C176 C175 1.370 . S
C176 C177 1.396 . S
C176 H198 0.929 . S
C177 C172 1.373 . S
C177 C176 1.396 . S
C177 H199 0.929 . S
C178 O188 1.240 . S
C178 O189 1.289 1_545 S
C179 O190 1.258 . S
C179 O191 1.256 . S
O180 La160 2.521 . S
O180 C162 1.261 . S
O181 La160 2.628 . S
O181 C162 1.243 . S
O182 La160 2.554 . S
O182 C169 1.240 . S
O183 La160 2.757 . S
O183 La161 2.482 . S
O183 C169 1.289 . S
O184 La160 2.470 . S
O184 C170 1.258 . S
O185 La161 2.503 . S
O185 C170 1.256 . S
O186 La161 2.521 1_545 S
O186 C171 1.261 1_545 S
O187 La161 2.628 . S
O187 C171 1.243 . S
O188 La161 2.554 1_545 S
O188 C178 1.240 . S
O189 La160 2.482 . S
O189 La161 2.757 . S
O189 C178 1.289 1_565 S
O190 La161 2.470 . S
O190 C179 1.258 . S
O191 La160 2.503 . S
O191 C179 1.256 . S
H192 C164 0.930 . S
H193 C165 0.930 . S
H194 C167 0.929 . S
H195 C168 0.929 . S
H196 C173 0.930 . S
H197 C174 0.930 . S
H198 C176 0.929 . S
H199 C177 0.929 . S
La200 C202 2.928 . S
La200 O220 2.521 . S
La200 O221 2.628 . S
La200 O222 2.554 . S
La200 O223 2.757 . S
La200 O224 2.470 . S
La200 O229 2.482 . S
La200 O231 2.503 . S
La201 C211 2.928 . S
La201 O223 2.482 . S
La201 O225 2.503 . S
La201 O226 2.521 . S
La201 O227 2.628 . S
La201 O228 2.554 1_545 S
La201 O229 2.757 . S
La201 O230 2.470 . S
C202 La200 2.928 . S
C202 C203 1.503 . S
C202 O220 1.261 . S
C202 O221 1.243 . S
C203 C202 1.503 . S
C203 C204 1.394 . S
C203 C208 1.373 . S
C204 C203 1.394 . S
C204 C205 1.380 . S
C204 H232 0.930 . S
C205 C204 1.380 . S
C205 C206 1.376 . S
C205 H233 0.930 . S
C206 C205 1.376 . S
C206 C207 1.370 . S
C207 C206 1.370 . S
C207 C208 1.396 . S
C207 H234 0.929 . S
C208 C203 1.373 . S
C208 C207 1.396 . S
C208 H235 0.929 . S
C209 O222 1.240 . S
C209 O223 1.289 . S
C210 O224 1.258 . S
C210 O225 1.256 . S
C211 La201 2.928 . S
C211 C212 1.503 . S
C211 O226 1.261 . S
C211 O227 1.243 . S
C212 C211 1.503 . S
C212 C213 1.394 1_545 S
C212 C217 1.373 . S
C213 C212 1.394 1_565 S
C213 C214 1.380 . S
C213 H236 0.930 . S
C214 C213 1.380 . S
C214 C215 1.376 1_565 S
C214 H237 0.930 . S
C215 C214 1.376 1_545 S
C215 C216 1.370 . S
C216 C215 1.370 . S
C216 C217 1.396 . S
C216 H238 0.929 . S
C217 C212 1.373 . S
C217 C216 1.396 . S
C217 H239 0.929 . S
C218 O228 1.240 . S
C218 O229 1.289 1_565 S
C219 O230 1.258 . S
C219 O231 1.256 . S
O220 La200 2.521 . S
O220 C202 1.261 . S
O221 La200 2.628 . S
O221 C202 1.243 . S
O222 La200 2.554 . S
O222 C209 1.240 . S
O223 La200 2.757 . S
O223 La201 2.482 . S
O223 C209 1.289 . S
O224 La200 2.470 . S
O224 C210 1.258 . S
O225 La201 2.503 . S
O225 C210 1.256 . S
O226 La201 2.521 . S
O226 C211 1.261 . S
O227 La201 2.628 . S
O227 C211 1.243 . S
O228 La201 2.554 1_565 S
O228 C218 1.240 . S
O229 La200 2.482 . S
O229 La201 2.757 . S
O229 C218 1.289 1_545 S
O230 La201 2.470 . S
O230 C219 1.258 . S
O231 La200 2.503 . S
O231 C219 1.256 . S
H232 C204 0.930 . S
H233 C205 0.930 . S
H234 C207 0.929 . S
H235 C208 0.929 . S
H236 C213 0.930 . S
H237 C214 0.930 . S
H238 C216 0.929 . S
H239 C217 0.929 . S
C240 C241 1.170 . S
C240 C242 1.380 . S
C241 C240 1.170 . S
C242 C240 1.380 . S
C242 C243 1.170 . S
C243 C242 1.170 . S
C244 C245 1.170 . S
C244 C246 1.380 . S
C245 C244 1.170 . S
C246 C244 1.380 . S
C246 C247 1.170 . S
C247 C246 1.170 . S
C248 C249 1.170 . S
C248 C250 1.380 . S
C249 C248 1.170 . S
C250 C248 1.380 . S
C250 C251 1.170 . S
C251 C250 1.170 . S
C252 C253 1.170 . S
C252 C254 1.380 . S
C253 C252 1.170 . S
C254 C252 1.380 . S
C254 C255 1.170 . S
C255 C254 1.170 . S
C256 C257 1.170 . S
C256 C258 1.380 . S
C257 C256 1.170 . S
C258 C256 1.380 . S
C258 C259 1.170 . S
C259 C258 1.170 . S
C260 C261 1.170 . S
C260 C262 1.380 . S
C261 C260 1.170 . S
C262 C260 1.380 . S
C262 C263 1.170 . S
C263 C262 1.170 . S
C264 C265 1.170 . S
C264 C266 1.380 . S
C265 C264 1.170 . S
C266 C264 1.380 . S
C266 C267 1.170 . S
C267 C266 1.170 . S
C268 C269 1.170 . S
C268 C270 1.380 . S
C269 C268 1.170 . S
C270 C268 1.380 . S
C270 C271 1.170 . S
C271 C270 1.170 . S
C272 C273 1.170 . S
C272 C274 1.380 . S
C273 C272 1.170 . S
C274 C272 1.380 . S
C274 C275 1.170 . S
C275 C274 1.170 . S
C276 C277 1.170 . S
C276 C278 1.380 . S
C277 C276 1.170 . S
C278 C276 1.380 . S
C278 C279 1.170 . S
C279 C278 1.170 . S
C280 C281 1.170 . S
C280 C282 1.380 . S
C281 C280 1.170 . S
C282 C280 1.380 . S
C282 C283 1.170 . S
C283 C282 1.170 . S
C284 C285 1.170 . S
C284 C286 1.380 . S
C285 C284 1.170 . S
C286 C284 1.380 . S
C286 C287 1.170 . S
C287 C286 1.170 . S
C288 C289 1.170 . S
C288 C290 1.380 . S
C289 C288 1.170 . S
C290 C288 1.380 . S
C290 C291 1.170 . S
C291 C290 1.170 . S
C292 C293 1.170 . S
C292 C294 1.380 . S
C293 C292 1.170 . S
C294 C292 1.380 . S
C294 C295 1.170 . S
C295 C294 1.170 . S
C296 C297 1.170 . S
C296 C298 1.380 1_565 S
C297 C296 1.170 . S
C298 C296 1.380 1_545 S
C298 C299 1.170 . S
C299 C298 1.170 . S
C300 C301 1.170 . S
C300 C302 1.380 . S
C301 C300 1.170 . S
C302 C300 1.380 . S
C302 C303 1.170 1_556 S
C303 C302 1.170 1_554 S
C304 C305 1.170 . S
C304 C306 1.380 1_455 S
C305 C304 1.170 . S
C306 C304 1.380 1_655 S
C306 C307 1.170 . S
C307 C306 1.170 . S
C308 C309 1.170 . S
C308 C310 1.380 . S
C309 C308 1.170 . S
C310 C308 1.380 . S
C310 C311 1.170 . S
C311 C310 1.170 . S
C241 C179 1.705 . S
C243 C6 1.670 . S
C245 C206 1.639 . S
C247 C59 1.715 . S
C249 C19 1.695 . S
C251 C86 1.675 1_554 S
C253 C46 1.643 . S
C255 C139 1.720 . S
C257 C99 1.695 . S
C259 C166 1.670 . S
C261 C126 1.638 . S
C263 C219 1.715 . S
C265 C9 1.605 . S
C267 C138 1.785 . S
C269 C169 1.577 . S
C271 C58 1.814 . S
C273 C218 1.794 . S
C275 C89 1.605 . S
C277 C98 1.825 . S
C279 C209 1.548 . S
C281 C18 1.798 . S
C283 C129 1.575 . S
C285 C178 1.798 . S
C287 C49 1.578 . S
C289 C215 0.966 . S
C291 C15 0.970 1_556 S
C293 C50 1.809 1_455 S
C295 C10 1.826 . S
C297 C95 0.946 . S
C299 C55 0.958 . S
C301 C90 1.813 . S
C303 C130 1.808 . S
C305 C175 0.957 . S
C307 C135 0.967 . S
C309 C210 1.805 . S
C311 C170 1.827 1_545 S
