# Generated by pormake.
# Topology ung, (4)-cn, num edge types: 1
# Building blocks:
#     Node 0, Type 0, BuildingBlock: ESEHIV_clean_sbu_0, # of connection points: 4
#     Node 1, Type 0, BuildingBlock: ESEHIV_clean_sbu_0, # of connection points: 4
#     Node 2, Type 0, BuildingBlock: ESEHIV_clean_sbu_0, # of connection points: 4
#     Node 3, Type 0, BuildingBlock: ESEHIV_clean_sbu_0, # of connection points: 4
#     Node 4, Type 0, BuildingBlock: ESEHIV_clean_sbu_0, # of connection points: 4
#     Node 5, Type 0, BuildingBlock: ESEHIV_clean_sbu_0, # of connection points: 4
#     Node 6, Type 0, BuildingBlock: ESEHIV_clean_sbu_0, # of connection points: 4
#     Node 7, Type 0, BuildingBlock: ESEHIV_clean_sbu_0, # of connection points: 4
#     Node 8, Type 0, BuildingBlock: ESEHIV_clean_sbu_0, # of connection points: 4
#     Node 9, Type 0, BuildingBlock: ESEHIV_clean_sbu_0, # of connection points: 4
#     Node 10, Type 0, BuildingBlock: ESEHIV_clean_sbu_0, # of connection points: 4
#     Node 11, Type 0, BuildingBlock: ESEHIV_clean_sbu_0, # of connection points: 4
#     Node 12, Type 0, BuildingBlock: ESEHIV_clean_sbu_0, # of connection points: 4
#     Node 13, Type 0, BuildingBlock: ESEHIV_clean_sbu_0, # of connection points: 4
#     Node 14, Type 0, BuildingBlock: ESEHIV_clean_sbu_0, # of connection points: 4
#     Node 15, Type 0, BuildingBlock: ESEHIV_clean_sbu_0, # of connection points: 4
#     Node 16, Type 0, BuildingBlock: ESEHIV_clean_sbu_0, # of connection points: 4
#     Node 17, Type 0, BuildingBlock: ESEHIV_clean_sbu_0, # of connection points: 4
#     Edge 18, Type (0, 0), BuildingBlock: XIVTED_clean_linker_0, # of connection points: 2
#     Edge 19, Type (0, 0), BuildingBlock: XIVTED_clean_linker_0, # of connection points: 2
#     Edge 20, Type (0, 0), BuildingBlock: XIVTED_clean_linker_0, # of connection points: 2
#     Edge 21, Type (0, 0), BuildingBlock: XIVTED_clean_linker_0, # of connection points: 2
#     Edge 22, Type (0, 0), BuildingBlock: XIVTED_clean_linker_0, # of connection points: 2
#     Edge 23, Type (0, 0), BuildingBlock: XIVTED_clean_linker_0, # of connection points: 2
#     Edge 24, Type (0, 0), BuildingBlock: XIVTED_clean_linker_0, # of connection points: 2
#     Edge 25, Type (0, 0), BuildingBlock: XIVTED_clean_linker_0, # of connection points: 2
#     Edge 26, Type (0, 0), BuildingBlock: XIVTED_clean_linker_0, # of connection points: 2
#     Edge 27, Type (0, 0), BuildingBlock: XIVTED_clean_linker_0, # of connection points: 2
#     Edge 28, Type (0, 0), BuildingBlock: XIVTED_clean_linker_0, # of connection points: 2
#     Edge 29, Type (0, 0), BuildingBlock: XIVTED_clean_linker_0, # of connection points: 2
#     Edge 30, Type (0, 0), BuildingBlock: XIVTED_clean_linker_0, # of connection points: 2
#     Edge 31, Type (0, 0), BuildingBlock: XIVTED_clean_linker_0, # of connection points: 2
#     Edge 32, Type (0, 0), BuildingBlock: XIVTED_clean_linker_0, # of connection points: 2
#     Edge 33, Type (0, 0), BuildingBlock: XIVTED_clean_linker_0, # of connection points: 2
#     Edge 34, Type (0, 0), BuildingBlock: XIVTED_clean_linker_0, # of connection points: 2
#     Edge 35, Type (0, 0), BuildingBlock: XIVTED_clean_linker_0, # of connection points: 2
#     Edge 36, Type (0, 0), BuildingBlock: XIVTED_clean_linker_0, # of connection points: 2
#     Edge 37, Type (0, 0), BuildingBlock: XIVTED_clean_linker_0, # of connection points: 2
#     Edge 38, Type (0, 0), BuildingBlock: XIVTED_clean_linker_0, # of connection points: 2
#     Edge 39, Type (0, 0), BuildingBlock: XIVTED_clean_linker_0, # of connection points: 2
#     Edge 40, Type (0, 0), BuildingBlock: XIVTED_clean_linker_0, # of connection points: 2
#     Edge 41, Type (0, 0), BuildingBlock: XIVTED_clean_linker_0, # of connection points: 2
#     Edge 42, Type (0, 0), BuildingBlock: XIVTED_clean_linker_0, # of connection points: 2
#     Edge 43, Type (0, 0), BuildingBlock: XIVTED_clean_linker_0, # of connection points: 2
#     Edge 44, Type (0, 0), BuildingBlock: XIVTED_clean_linker_0, # of connection points: 2
#     Edge 45, Type (0, 0), BuildingBlock: XIVTED_clean_linker_0, # of connection points: 2
#     Edge 46, Type (0, 0), BuildingBlock: XIVTED_clean_linker_0, # of connection points: 2
#     Edge 47, Type (0, 0), BuildingBlock: XIVTED_clean_linker_0, # of connection points: 2
#     Edge 48, Type (0, 0), BuildingBlock: XIVTED_clean_linker_0, # of connection points: 2
#     Edge 49, Type (0, 0), BuildingBlock: XIVTED_clean_linker_0, # of connection points: 2
#     Edge 50, Type (0, 0), BuildingBlock: XIVTED_clean_linker_0, # of connection points: 2
#     Edge 51, Type (0, 0), BuildingBlock: XIVTED_clean_linker_0, # of connection points: 2
#     Edge 52, Type (0, 0), BuildingBlock: XIVTED_clean_linker_0, # of connection points: 2
#     Edge 53, Type (0, 0), BuildingBlock: XIVTED_clean_linker_0, # of connection points: 2
# Relax obj value: 0.012
# Max RMSD: 0.189
# Mean RMSD: 0.159
data_MOF--net-ung--node1-ESEHIV_clean_sbu_0--edge1-XIVTED_clean_linker_0
_symmetry_space_group_name_H-M    P1
_symmetry_Int_Tables_number       1
_symmetry_cell_setting            triclinic
loop_
_symmetry_equiv_pos_as_xyz
'x, y, z'
_cell_length_a     90.050871
_cell_length_b     88.165091
_cell_length_c     21.334587
_cell_angle_alpha  96.917892
_cell_angle_beta   86.735974
_cell_angle_gamma 122.48212
loop_
_atom_site_label
_atom_site_type_symbol
_atom_site_fract_x
_atom_site_fract_y
_atom_site_fract_z
_atom_type_partial_charge
Cu0 Cu 0.04742 0.59913 0.21997 0.0
N1 N 0.04117 0.58625 0.29055 0.0
N2 N 0.04123 0.56987 0.36274 0.0
C3 C 0.04848 0.5776 0.30906 0.0
C4 C 0.02888 0.57387 0.3785 0.0
C5 C 0.02887 0.58395 0.33389 0.0
O6 O 0.05445 0.58681 0.15358 0.0
C7 C 0.06097 0.63288 0.28694 0.0
O8 O 0.04436 0.62467 0.30368 0.0
H9 H 0.05909 0.57723 0.28398 0.0
H10 H 1.02048 0.58924 0.33314 0.0
N11 N 0.02788 0.59862 0.19078 0.0
N12 N 1.01114 0.60654 0.14802 0.0
C13 C 0.02771 0.61144 0.16261 0.0
C14 C 1.01092 0.58517 0.19404 0.0
C15 C 1.00061 0.58995 0.16773 0.0
C16 C 0.04344 0.56992 0.13937 0.0
O17 O 0.02843 0.56211 0.16959 0.0
H18 H 0.03951 0.62417 0.15392 0.0
H19 H 1.00635 0.57271 0.21421 0.0
O20 O 0.06577 0.62421 0.24773 0.0
H21 H 1.0203 0.56963 0.41887 0.0
H22 H 0.98644 0.58163 0.16295 0.0
Cu23 Cu 0.49387 0.47438 0.19337 0.0
N24 N 0.50189 0.48416 0.11633 0.0
N25 N 0.51922 0.49987 0.03883 0.0
C26 C 0.51801 0.49774 0.10114 0.0
C27 C 0.50313 0.48718 1.01444 0.0
C28 C 0.49253 0.47758 0.06219 0.0
O29 O 0.51191 0.48838 0.25923 0.0
C30 C 0.49138 0.44174 0.13907 0.0
O31 O 0.5065 0.45252 0.11273 0.0
H32 H 0.52864 0.50575 0.13501 0.0
H33 H 0.47907 0.46618 0.05753 0.0
N34 N 0.47472 0.47624 0.21956 0.0
N35 N 0.45047 0.47154 0.27094 0.0
C36 C 0.46154 0.46566 0.25752 0.0
C37 C 0.47189 0.48917 0.20826 0.0
C38 C 0.45696 0.48632 0.23993 0.0
C39 C 0.52788 0.4927 0.25716 0.0
O40 O 0.53319 0.48608 0.20897 0.0
H41 H 0.46044 0.45427 0.27662 0.0
H42 H 0.48029 0.50008 0.17992 0.0
O43 O 0.48483 0.44854 0.17876 0.0
H44 H 0.49937 0.48449 0.96517 0.0
H45 H 0.45136 0.49455 0.24026 0.0
Cu46 Cu 0.61433 0.03431 0.34296 0.0
N47 N 0.59943 0.02546 0.27288 0.0
N48 N 0.58212 0.02432 0.19898 0.0
C49 C 0.591 0.03293 0.25379 0.0
C50 C 0.5851 1.01088 0.1831 0.0
C51 C 0.59577 1.01161 0.22889 0.0
O52 O 0.60393 0.04388 0.4059 0.0
C53 C 0.65249 0.05916 0.33904 0.0
O54 O 0.65345 0.05534 0.39573 0.0
H55 H 0.5919 0.04485 0.27866 0.0
H56 H 0.60078 1.00289 0.22954 0.0
N57 N 0.6141 1.01513 0.37379 0.0
N58 N 0.62247 0.99858 0.4142 0.0
C59 C 0.62743 1.01263 0.38071 0.0
C60 C 0.60022 1.00192 0.40238 0.0
C61 C 0.60537 0.9918 0.42781 0.0
C62 C 0.60361 0.04243 0.46471 0.0
O63 O 0.61318 0.03704 0.48663 0.0
H64 H 0.64068 0.02135 0.36424 0.0
H65 H 0.58745 1.00035 0.40709 0.0
O66 O 0.63751 0.05229 0.31302 0.0
H67 H 0.57998 1.00123 0.14138 0.0
H68 H 0.5973 0.9806 0.45544 0.0
Cu69 Cu 0.06362 0.46539 0.72576 0.0
N70 N 0.07025 0.47885 0.65666 0.0
N71 N 0.07077 0.49584 0.58548 0.0
C72 C 0.0646 0.4894 0.64195 0.0
C73 C 0.08065 0.48901 0.56412 0.0
C74 C 0.08019 0.47847 0.60778 0.0
O75 O 0.05641 0.4773 0.79287 0.0
C76 C 0.03751 0.42639 0.71838 0.0
O77 O 0.04053 0.42703 0.77842 0.0
H78 H 0.05561 0.49169 0.67107 0.0
H79 H 0.08634 0.47071 0.60353 0.0
N80 N 0.08317 0.46573 0.75447 0.0
N81 N 0.10067 0.46128 0.81 0.0
C82 C 0.08393 0.45635 0.79853 0.0
C83 C 0.09999 0.47696 0.73793 0.0
C84 C 0.11075 0.47422 0.77175 0.0
C85 C 0.06799 0.49378 0.81097 0.0
O86 O 0.08356 0.50117 0.7845 0.0
H87 H 0.07257 0.44664 0.82341 0.0
H88 H 0.10425 0.48686 0.70479 0.0
O89 O 0.04531 0.44093 0.69177 0.0
H90 H 0.08761 0.49127 0.51981 0.0
H91 H 0.12495 0.48133 0.76859 0.0
Cu92 Cu 0.64937 0.60977 0.64135 0.0
N93 N 0.64187 0.59685 0.7123 0.0
N94 N 0.62476 0.57951 0.78707 0.0
C95 C 0.62525 0.58542 0.7308 0.0
C96 C 0.64183 0.58748 0.804 0.0
C97 C 0.65227 0.59817 0.75811 0.0
O98 O 0.63211 0.59557 0.57288 0.0
C99 C 0.64433 0.63662 0.70818 0.0
O100 O 0.62973 0.62257 0.72644 0.0
H101 H 0.61378 0.58205 0.70449 0.0
H102 H 0.66649 0.60657 0.75856 0.0
N103 N 0.67053 0.61202 0.61358 0.0
N104 N 0.69679 0.62168 0.56787 0.0
C105 C 0.68377 0.62492 0.58138 0.0
C106 C 0.67528 0.60024 0.62055 0.0
C107 C 0.6914 0.60615 0.59287 0.0
C108 C 0.61631 0.59173 0.57151 0.0
O109 O 0.61083 0.59899 0.6168 0.0
H110 H 0.68364 0.63624 0.5674 0.0
H111 H 0.66749 0.58811 0.64401 0.0
O112 O 0.65404 0.63403 0.66817 0.0
H113 H 0.64655 0.58587 0.84664 0.0
H114 H 0.6986 0.59949 0.59198 0.0
Cu115 Cu 0.48895 0.05457 0.79765 0.0
N116 N 0.50097 0.06011 0.87409 0.0
N117 N 0.51649 0.05966 0.95152 0.0
C118 C 0.51077 0.05386 0.89097 0.0
C119 C 0.51014 0.07012 0.97319 0.0
C120 C 0.50058 0.07034 0.92546 0.0
O121 O 0.50165 0.04928 0.73005 0.0
C122 C 0.4599 0.02278 0.84236 0.0
O123 O 0.47222 0.02097 0.86357 0.0
H124 H 0.51314 0.04475 0.86018 0.0
H125 H 0.49356 0.07723 0.92826 0.0
N126 N 0.48972 0.07516 0.77913 0.0
N127 N 0.48345 0.09347 0.73893 0.0
C128 C 0.47789 0.07616 0.74669 0.0
C129 C 0.5032 0.09231 0.79227 0.0
C130 C 0.4994 0.1036 0.76775 0.0
C131 C 0.50409 0.03624 0.72503 0.0
O132 O 0.4959 0.0236 0.76339 0.0
H133 H 0.46559 0.06438 0.72873 0.0
H134 H 0.51516 0.09628 0.81676 0.0
O135 O 0.4643 0.03563 0.80912 0.0
H136 H 0.51211 0.07708 0.02024 0.0
H137 H 0.50808 0.11812 0.76949 0.0
Cu138 Cu 0.72361 0.94356 0.65431 0.0
N139 N 0.71558 0.92903 0.72033 0.0
N140 N 0.71475 0.91168 0.79026 0.0
C141 C 0.72048 0.91772 0.73319 0.0
C142 C 0.70584 0.9194 0.81401 0.0
C143 C 0.70635 0.93008 0.77067 0.0
O144 O 0.73398 0.93349 0.59347 0.0
C145 C 0.74591 0.98305 0.6718 0.0
O146 O 0.74295 0.9831 0.61226 0.0
H147 H 0.729 0.91489 0.70315 0.0
H148 H 0.70113 0.93871 0.77667 0.0
N149 N 0.70437 0.94135 0.61496 0.0
N150 N 0.68666 0.9474 0.56924 0.0
C151 C 0.70037 0.95387 0.60939 0.0
C152 C 0.6926 0.9265 0.57813 0.0
C153 C 0.68176 0.93022 0.54956 0.0
C154 C 0.7337 0.93384 0.534 0.0
O155 O 0.72926 0.94422 0.51237 0.0
H156 H 0.70777 0.96761 0.63185 0.0
H157 H 0.69244 0.91406 0.57054 0.0
O158 O 0.73961 0.96805 0.69439 0.0
H159 H 0.69982 0.91783 0.86012 0.0
H160 H 0.67126 0.92112 0.51608 0.0
Cu161 Cu 0.15354 0.80315 0.60711 0.0
N162 N 0.16496 0.81086 0.68569 0.0
N163 N 0.18134 0.82906 0.76944 0.0
C164 C 0.17784 0.82778 0.70755 0.0
C165 C 0.17031 0.8123 0.7869 0.0
C166 C 0.16025 0.80113 0.73519 0.0
O167 O 0.16664 0.82292 0.5543 0.0
C168 C 0.12453 0.80516 0.65867 0.0
O169 O 0.13662 0.82157 0.68217 0.0
H170 H 0.18388 0.83909 0.67952 0.0
H171 H 0.14978 0.78705 0.73422 0.0
N172 N 0.1532 0.78264 0.56929 0.0
N173 N 0.14356 0.75556 0.51459 0.0
C174 C 0.13946 0.76778 0.53867 0.0
C175 C 0.16648 0.77978 0.56467 0.0
C176 C 0.1606 0.76312 0.531 0.0
C177 C 0.16807 0.8206 0.49467 0.0
O178 O 0.15884 0.80421 0.46516 0.0
H179 H 0.12682 0.7662 0.53311 0.0
H180 H 0.17955 0.78922 0.58413 0.0
O181 O 0.12914 0.79586 0.62232 0.0
H182 H 0.16938 0.80846 0.83395 0.0
H183 H 0.16827 0.75703 0.52009 0.0
Cu184 Cu 0.29904 0.38522 0.61936 0.0
N185 N 0.29111 0.39114 0.6963 0.0
N186 N 0.27405 0.39204 0.77539 0.0
C187 C 0.27447 0.38412 0.71756 0.0
C188 C 0.29101 0.40449 0.79109 0.0
C189 C 0.30146 0.40382 0.74251 0.0
O190 O 0.28221 0.37879 0.55223 0.0
C191 C 0.29548 0.35453 0.6658 0.0
O192 O 0.28113 0.35279 0.69171 0.0
H193 H 0.26289 0.37361 0.69116 0.0
H194 H 0.31568 0.41202 0.74093 0.0
N195 N 0.31977 0.406 0.5972 0.0
N196 N 0.34539 0.42448 0.55121 0.0
C197 C 0.33338 0.40723 0.56295 0.0
C198 C 0.32319 0.42292 0.60723 0.0
C199 C 0.33892 0.43431 0.57927 0.0
C200 C 0.26622 0.36569 0.54823 0.0
O201 O 0.26002 0.35377 0.58941 0.0
H202 H 0.33423 0.39564 0.54623 0.0
H203 H 0.31453 0.42662 0.63156 0.0
O204 O 0.30446 0.36699 0.62999 0.0
H205 H 0.29554 0.41326 0.83499 0.0
H206 H 0.34472 0.44865 0.57786 0.0
Cu207 Cu 0.71989 0.80049 0.07899 0.0
N208 N 0.7151 0.80903 0.15798 0.0
N209 N 0.71613 0.82767 0.24165 0.0
C210 C 0.72025 0.8262 0.18012 0.0
C211 C 0.70791 0.81072 0.25855 0.0
C212 C 0.70731 0.79933 0.20712 0.0
O213 O 0.72422 0.817 0.01761 0.0
C214 C 0.73631 0.78418 0.11833 0.0
O215 O 0.72004 0.77293 0.13521 0.0
H216 H 0.72738 0.83751 0.15245 0.0
H217 H 0.70189 0.78499 0.20608 0.0
N218 N 0.70034 0.77791 0.04902 0.0
N219 N 0.68356 0.75114 0.99145 0.0
C220 C 0.69988 0.76621 1.00087 0.0
C221 C 0.6838 0.77006 0.07076 0.0
C222 C 0.67347 0.75361 0.0357 0.0
C223 C 0.73673 0.83351 0.02054 0.0
O224 O 0.74884 0.84012 0.06488 0.0
H225 H 0.71131 0.76885 0.97315 0.0
H226 H 0.67953 0.77589 0.10954 0.0
O227 O 0.73962 0.79769 0.09063 0.0
H228 H 0.70276 0.80679 0.30491 0.0
H229 H 0.65961 0.74414 0.04315 0.0
Cu230 Cu 0.29854 0.94984 0.13904 0.0
N231 N 0.28953 0.93679 0.20962 0.0
N232 N 0.27139 0.91839 0.28016 0.0
C233 C 0.27324 0.92257 0.22001 0.0
C234 C 0.28719 0.93028 0.30811 0.0
C235 C 0.29827 0.94156 0.2647 0.0
O236 O 0.2817 0.93746 0.06902 0.0
C237 C 0.30833 0.98688 0.13437 0.0
O238 O 0.30713 0.98339 0.0726 0.0
H239 H 0.26278 0.91586 0.18507 0.0
H240 H 0.31168 0.95281 0.27306 0.0
N241 N 0.3193 0.95083 0.11377 0.0
N242 N 0.34474 0.95816 0.06533 0.0
C243 C 0.33136 0.96105 0.07182 0.0
C244 C 0.3252 0.94118 0.13451 0.0
C245 C 0.34083 0.94566 0.10502 0.0
C246 C 0.26573 0.93308 0.07224 0.0
O247 O 0.26036 0.93865 0.12322 0.0
H248 H 0.33021 0.97025 0.0463 0.0
H249 H 0.31862 0.93159 0.16897 0.0
O250 O 0.30457 0.97435 0.16816 0.0
H251 H 0.2905 0.93093 0.35673 0.0
H252 H 0.3488 0.94029 0.11327 0.0
Cu253 Cu 0.15919 0.38226 0.15833 0.0
N254 N 0.17229 0.38731 0.23145 0.0
N255 N 0.18796 0.38529 0.30401 0.0
C256 C 0.18375 0.38245 0.24205 0.0
C257 C 0.1789 0.39226 0.33321 0.0
C258 C 0.16925 0.39345 0.28847 0.0
O259 O 0.17167 0.37938 0.08497 0.0
C260 C 0.12245 0.35241 0.13936 0.0
O261 O 0.12379 0.35442 0.07889 0.0
H262 H 0.18802 0.37592 0.20592 0.0
H263 H 0.15993 0.3976 0.29725 0.0
N264 N 0.15708 0.40179 0.14774 0.0
N265 N 0.14965 0.41907 0.10666 0.0
C266 C 0.14736 0.40252 0.10372 0.0
C267 C 0.16579 0.4184 0.17961 0.0
C268 C 0.16123 0.42905 0.15454 0.0
C269 C 0.17424 0.36663 0.06817 0.0
O270 O 0.16668 0.35231 0.0993 0.0
H271 H 0.13926 0.39132 0.06889 0.0
H272 H 0.1751 0.42259 0.21762 0.0
O273 O 0.1359 0.36194 0.17528 0.0
H274 H 0.17886 0.39575 0.38362 0.0
H275 H 0.16615 0.4431 0.17028 0.0
Cu276 Cu 0.38344 0.28309 0.8927 0.0
N277 N 0.37904 0.27173 0.96608 0.0
N278 N 0.37896 0.25522 0.03813 0.0
C279 C 0.3846 0.2611 0.98063 0.0
C280 C 0.36958 0.26256 0.06043 0.0
C281 C 0.3697 0.27274 0.01602 0.0
O282 O 0.38952 0.27025 0.82523 0.0
C283 C 0.41689 0.31397 0.9342 0.0
O284 O 0.42153 0.30222 0.93593 0.0
H285 H 0.39243 0.2576 0.94925 0.0
H286 H 0.36347 0.28042 0.01985 0.0
N287 N 0.36294 0.2817 0.86944 0.0
N288 N 0.34447 0.28835 0.83281 0.0
C289 C 0.3615 0.2937 0.84075 0.0
C290 C 0.34633 0.26835 0.8799 0.0
C291 C 0.33495 0.27236 0.85736 0.0
C292 C 0.37845 0.25332 0.81254 0.0
O293 O 0.36382 0.24564 0.845 0.0
H294 H 0.37273 0.30625 0.82727 0.0
H295 H 0.34273 0.25655 0.90282 0.0
O296 O 0.40162 0.30852 0.91359 0.0
H297 H 0.3633 0.26095 0.10601 0.0
H298 H 0.32073 0.26402 0.85873 0.0
Cu299 Cu 0.8054 0.13652 0.98552 0.0
N300 N 0.81352 0.15159 0.92071 0.0
N301 N 0.83171 0.16934 0.84905 0.0
C302 C 0.83026 0.16112 0.90064 0.0
C303 C 0.81519 0.16473 0.83626 0.0
C304 C 0.804 0.15368 0.88018 0.0
O305 O 0.8243 0.14786 0.04892 0.0
C306 C 0.79445 0.0983 0.96527 0.0
O307 O 0.79293 0.09767 0.02664 0.0
H308 H 0.84109 0.16173 0.92298 0.0
H309 H 0.78983 0.14712 0.88114 0.0
N310 N 0.78515 0.13499 0.02182 0.0
N311 N 0.76017 0.12614 0.07577 0.0
C312 C 0.77274 0.12255 0.05779 0.0
C313 C 0.78032 0.14688 0.0178 0.0
C314 C 0.76496 0.14144 0.05056 0.0
C315 C 0.8296 0.16415 0.07052 0.0
O316 O 0.8217 0.17163 0.05078 0.0
H317 H 0.77285 0.11106 0.07012 0.0
H318 H 0.78762 0.15888 0.99339 0.0
O319 O 0.79977 0.11312 0.94276 0.0
H320 H 0.81132 0.16843 0.79645 0.0
H321 H 0.75803 0.14845 0.05645 0.0
Cu322 Cu 0.9694 0.71144 0.86153 0.0
N323 N 0.95867 0.70814 0.78441 0.0
N324 N 0.944 0.71052 0.70885 0.0
C325 C 0.94991 0.7157 0.7693 0.0
C326 C 0.94933 0.69929 0.68532 0.0
C327 C 0.95838 0.69789 0.73193 0.0
O328 O 0.95842 0.71954 0.92756 0.0
C329 C 1.00146 0.74322 0.83052 0.0
O330 O 0.99137 0.74927 0.82051 0.0
H331 H 0.94815 0.725 0.80188 0.0
H332 H 0.96432 0.68993 0.72798 0.0
N333 N 0.96555 0.68932 0.87939 0.0
N334 N 0.96824 0.66869 0.92027 0.0
C335 C 0.97536 0.6865 0.91623 0.0
C336 C 0.95189 0.67277 0.85912 0.0
C337 C 0.95348 0.66004 0.88433 0.0
C338 C 0.94179 0.70919 0.93354 0.0
O339 O 0.93336 0.69412 0.8956 0.0
H340 H 0.98724 0.6973 0.94062 0.0
H341 H 0.94143 0.67014 0.82846 0.0
O342 O 0.99465 0.72798 0.85195 0.0
H343 H 0.94671 0.69234 0.63805 0.0
H344 H 0.94452 0.64553 0.87644 0.0
Cu345 Cu 0.3962 0.14696 0.39979 0.0
N346 N 0.40178 0.15889 0.327 0.0
N347 N 0.40264 0.17587 0.25517 0.0
C348 C 0.39665 0.16985 0.31226 0.0
C349 C 0.41188 0.16834 0.23336 0.0
C350 C 0.41128 0.15786 0.27764 0.0
O351 O 0.38959 0.15974 0.46558 0.0
C352 C 0.36755 0.11585 0.33167 0.0
O353 O 0.36758 0.12781 0.30035 0.0
H354 H 0.38871 0.17334 0.34303 0.0
H355 H 0.4172 0.14987 0.27392 0.0
N356 N 0.41629 0.14836 0.42767 0.0
N357 N 0.43405 0.14344 0.47908 0.0
C358 C 0.41719 0.13776 0.46602 0.0
C359 C 0.43309 0.16102 0.41576 0.0
C360 C 0.44405 0.15806 0.44745 0.0
C361 C 0.4009 0.17653 0.47994 0.0
O362 O 0.41599 0.18402 0.45014 0.0
H363 H 0.40575 0.12646 0.48533 0.0
H364 H 0.43708 0.17184 0.38678 0.0
O365 O 0.37804 0.12136 0.3786 0.0
H366 H 0.41831 0.16993 0.18804 0.0
H367 H 0.4583 0.16606 0.44718 0.0
Cu368 Cu 0.96172 0.26737 0.43859 0.0
N369 N 0.95455 0.25303 0.50523 0.0
N370 N 0.93749 0.23643 0.58133 0.0
C371 C 0.93867 0.24558 0.53287 0.0
C372 C 0.95335 0.23826 0.58404 0.0
C373 C 0.96384 0.24854 0.53718 0.0
O374 O 0.94174 0.25592 0.37915 0.0
C375 C 0.97416 0.30587 0.45306 0.0
O376 O 0.97422 0.30521 0.39121 0.0
H377 H 0.92819 0.24682 0.51717 0.0
H378 H 0.97735 0.25265 0.52757 0.0
N379 N 0.98094 0.26781 0.39725 0.0
N380 N 1.00569 0.27664 0.34205 0.0
C381 C 0.99528 0.28179 0.37286 0.0
C382 C 0.98256 0.25349 0.38199 0.0
C383 C 0.99771 0.25886 0.34774 0.0
C384 C 0.93463 0.23895 0.36351 0.0
O385 O 0.94107 0.23065 0.38783 0.0
H386 H 0.99785 0.29534 0.37625 0.0
H387 H 0.97333 0.24001 0.39461 0.0
O388 O 0.96885 0.29149 0.47871 0.0
H389 H 0.95727 0.2329 0.6182 0.0
H390 H 1.00259 0.25038 0.32895 0.0
Cu391 Cu 0.84187 0.7326 0.32614 0.0
N392 N 0.85507 0.74008 0.4005 0.0
N393 N 0.87233 0.7414 0.47505 0.0
C394 C 0.86473 0.73373 0.41762 0.0
C395 C 0.86718 0.75301 0.49476 0.0
C396 C 0.85654 0.75218 0.44862 0.0
O397 O 0.85358 0.72543 0.2603 0.0
C398 C 0.81384 0.69907 0.36705 0.0
O399 O 0.82619 0.69585 0.37572 0.0
H400 H 0.86582 0.72339 0.38889 0.0
H401 H 0.85024 0.75975 0.45014 0.0
N402 N 0.84035 0.75137 0.30149 0.0
N403 N 0.82854 0.76538 0.2647 0.0
C404 C 0.82601 0.74938 0.27589 0.0
C405 C 0.85246 0.76923 0.30673 0.0
C406 C 0.84523 0.77792 0.28393 0.0
C407 C 0.86985 0.73675 0.25077 0.0
O408 O 0.87769 0.75259 0.28463 0.0
H409 H 0.81396 0.73637 0.26577 0.0
H410 H 0.86551 0.77553 0.32669 0.0
O411 O 0.8179 0.71341 0.34357 0.0
H412 H 0.87091 0.7616 0.53909 0.0
H413 H 0.85163 0.79237 0.28326 0.0
H414 H 0.0902 0.52934 0.85423 0.0
H415 H 1.02165 0.5341 0.09879 0.0
H416 H 0.03755 0.48389 0.87877 0.0
H417 H 0.07345 0.58019 0.06825 0.0
H418 H 0.02739 0.51557 0.01961 0.0
H419 H 0.08443 0.54793 0.93308 0.0
C420 C 0.07739 0.52321 0.87621 0.0
C421 C 0.06433 0.50493 0.85963 0.0
C422 C 0.03752 0.52972 0.03005 0.0
C423 C 0.05764 0.52636 0.95061 0.0
C424 C 0.03427 0.54038 0.07544 0.0
C425 C 0.0471 0.55882 0.09045 0.0
C426 C 0.05376 0.53745 0.99909 0.0
C427 C 0.06316 0.56608 0.05831 0.0
C428 C 0.07412 0.5339 0.92134 0.0
C429 C 0.04801 0.49787 0.88995 0.0
N430 N 0.06604 0.55538 1.01426 0.0
N431 N 0.04515 0.50859 0.93394 0.0
H432 H 0.59067 0.55765 0.74529 0.0
H433 H 0.5537 0.51789 0.07608 0.0
H434 H 0.62323 0.57466 0.912 0.0
H435 H 0.52032 0.51002 0.92195 0.0
H436 H 0.57943 0.53756 1.01523 0.0
H437 H 0.56493 0.53881 0.80745 0.0
C438 C 0.59251 0.55756 0.79485 0.0
C439 C 0.60935 0.56794 0.823 0.0
C440 C 0.56645 0.53154 0.99484 0.0
C441 C 0.5797 0.54602 0.8946 0.0
C442 C 0.55167 0.52034 0.0298 0.0
C443 C 0.53464 0.51211 1.00439 0.0
C444 C 0.56428 0.53452 0.93374 0.0
C445 C 0.53308 0.51573 0.94345 0.0
C446 C 0.57773 0.54669 0.83036 0.0
C447 C 0.6107 0.56685 0.88754 0.0
N448 N 0.54767 0.52658 0.91026 0.0
N449 N 0.59612 0.5561 0.92096 0.0
H450 H 0.5653 0.04116 0.24542 0.0
H451 H 0.53658 0.04635 0.90429 0.0
H452 H 0.57641 0.01852 0.07204 0.0
H453 H 0.51907 0.06163 0.07941 0.0
H454 H 0.55228 0.03729 0.9644 0.0
H455 H 0.54947 0.05005 0.18494 0.0
C456 C 0.56447 0.0381 0.19459 0.0
C457 C 0.57226 0.02911 0.16382 0.0
C458 C 0.54499 0.04263 0.98962 0.0
C459 C 0.55404 0.03921 0.09408 0.0
C460 C 0.53593 0.04776 0.95526 0.0
C461 C 0.52635 0.05477 0.98652 0.0
C462 C 0.54459 0.04456 0.05588 0.0
C463 C 0.52637 0.05654 0.05293 0.0
C464 C 0.55534 0.04311 0.16007 0.0
C465 C 0.57048 0.02526 0.09785 0.0
N466 N 0.53533 0.05147 0.08525 0.0
N467 N 0.56164 0.0304 0.06519 0.0
H468 H 0.59351 0.03169 0.58308 0.0
H469 H 0.5203 0.05692 0.62675 0.0
H470 H 0.58265 0.05499 0.4391 0.0
H471 H 0.52011 0.0173 0.72801 0.0
H472 H 0.54507 0.05945 0.56384 0.0
H473 H 0.56911 0.0301 0.64475 0.0
C474 C 0.58616 0.0367 0.56469 0.0
C475 C 0.59019 0.04348 0.50562 0.0
C476 C 0.53952 0.05014 0.5996 0.0
C477 C 0.56205 0.04158 0.57623 0.0
C478 C 0.52537 0.04866 0.63548 0.0
C479 C 0.51804 0.03682 0.68266 0.0
C480 C 0.54662 0.03996 0.61171 0.0
C481 C 0.52522 0.02651 0.69194 0.0
C482 C 0.57211 0.03564 0.59979 0.0
C483 C 0.58004 0.04965 0.48431 0.0
N484 N 0.53917 0.02843 0.65723 0.0
N485 N 0.56646 0.04857 0.51959 0.0
H486 H 0.03714 0.56535 0.48782 0.0
H487 H 0.07307 0.49918 0.45939 0.0
H488 H 0.05546 0.55053 0.31409 0.0
H489 H 0.05931 0.51762 0.63676 0.0
H490 H 0.06627 0.51757 0.40556 0.0
H491 H 0.04444 0.5474 0.54294 0.0
C492 C 0.04262 0.55828 0.46114 0.0
C493 C 0.04567 0.55948 0.39608 0.0
C494 C 0.06476 0.51763 0.4563 0.0
C495 C 0.05419 0.53895 0.45915 0.0
C496 C 0.06876 0.50717 0.4873 0.0
C497 C 0.06683 0.50679 0.55306 0.0
C498 C 0.05872 0.52783 0.49099 0.0
C499 C 0.06082 0.51726 0.58607 0.0
C500 C 0.04689 0.5481 0.49277 0.0
C501 C 0.05307 0.5502 0.3643 0.0
N502 N 0.05698 0.52732 0.55472 0.0
N503 N 0.05702 0.54031 0.39608 0.0
H504 H 0.6228 0.57326 0.47165 0.0
H505 H 0.52164 0.51042 0.35986 0.0
H506 H 0.58093 0.57795 0.56019 0.0
H507 H 0.56355 0.5071 0.26465 0.0
H508 H 0.54314 0.53466 0.43491 0.0
H509 H 0.60143 0.54895 0.39601 0.0
C510 C 0.60914 0.56928 0.47505 0.0
C511 C 0.60371 0.57774 0.52255 0.0
C512 C 0.54765 0.52862 0.39774 0.0
C513 C 0.57907 0.54969 0.43608 0.0
C514 C 0.53535 0.51469 0.35486 0.0
C515 C 0.54073 0.50662 0.30564 0.0
C516 C 0.56557 0.53463 0.3917 0.0
C517 C 0.55874 0.51285 0.30177 0.0
C518 C 0.59692 0.55533 0.43185 0.0
C519 C 0.58579 0.5719 0.52447 0.0
N520 N 0.57049 0.52647 0.34407 0.0
N521 N 0.57415 0.55825 0.48211 0.0
H522 H 0.72142 0.85896 0.20671 0.0
H523 H 0.73735 0.90645 0.56293 0.0
H524 H 0.72087 0.83388 0.36917 0.0
H525 H 0.73188 0.92927 0.40437 0.0
H526 H 0.7347 0.88137 0.49071 0.0
H527 H 0.72823 0.88615 0.27643 0.0
C528 C 0.72282 0.85917 0.25691 0.0
C529 C 0.72042 0.84397 0.28195 0.0
C530 C 0.73423 0.89194 0.47159 0.0
C531 C 0.72822 0.87515 0.36228 0.0
C532 C 0.73586 0.90636 0.51285 0.0
C533 C 0.73477 0.92002 0.4899 0.0
C534 C 0.7315 0.8911 0.4067 0.0
C535 C 0.73275 0.91906 0.42437 0.0
C536 C 0.72665 0.8747 0.29677 0.0
C537 C 0.72228 0.84507 0.34764 0.0
N538 N 0.73108 0.90481 0.38522 0.0
N539 N 0.72604 0.86032 0.38534 0.0
H540 H 0.17497 0.82048 0.36758 0.0
H541 H 0.2629 0.91916 0.40426 0.0
H542 H 0.19247 0.85534 0.54298 0.0
H543 H 0.2437 0.88687 0.22471 0.0
H544 H 0.23683 0.89605 0.45486 0.0
H545 H 0.19933 0.84477 0.31349 0.0
C546 C 0.18382 0.83329 0.3947 0.0
C547 C 0.18166 0.8358 0.46012 0.0
C548 C 0.23825 0.89399 0.40436 0.0
C549 C 0.20974 0.86366 0.39835 0.0
C550 C 0.25326 0.90716 0.37539 0.0
C551 C 0.25566 0.90493 0.31004 0.0
C552 C 0.22547 0.87831 0.36802 0.0
C553 C 0.24241 0.88922 0.27509 0.0
C554 C 0.19776 0.84715 0.36371 0.0
C555 C 0.19358 0.85273 0.49259 0.0
N556 N 0.22795 0.87647 0.30455 0.0
N557 N 0.20714 0.86592 0.46149 0.0
H558 H 0.27483 0.38374 0.44287 0.0
H559 H 0.18147 0.37126 0.41553 0.0
H560 H 0.23024 0.34796 0.55225 0.0
H561 H 0.2181 0.38773 0.26145 0.0
H562 H 0.1999 0.36409 0.46917 0.0
H563 H 0.25507 0.38655 0.37752 0.0
C564 C 0.26086 0.3763 0.4527 0.0
C565 C 0.25419 0.36564 0.50332 0.0
C566 C 0.20388 0.36915 0.42344 0.0
C567 C 0.23159 0.36908 0.4294 0.0
C568 C 0.19343 0.37338 0.39306 0.0
C569 C 0.19837 0.38024 0.33423 0.0
C570 C 0.21959 0.37211 0.39546 0.0
C571 C 0.21385 0.38245 0.30672 0.0
C572 C 0.2496 0.37791 0.41532 0.0
C573 C 0.23597 0.3563 0.51373 0.0
N574 N 0.22406 0.37862 0.33794 0.0
N575 N 0.22536 0.35845 0.47772 0.0
H576 H 0.1816 0.34174 1.00963 0.0
H577 H 0.26949 0.41591 0.85223 0.0
H578 H 0.19727 0.39752 1.01406 0.0
H579 H 0.24395 0.35931 0.78506 0.0
H580 H 0.24416 0.40912 0.91939 0.0
H581 H 0.20518 0.34741 0.93364 0.0
C582 C 0.18988 0.35511 0.99439 0.0
C583 C 0.18743 0.36917 0.0185 0.0
C584 C 0.24403 0.39816 0.88976 0.0
C585 C 0.21454 0.37578 0.93247 0.0
C586 C 0.25853 0.40203 0.85173 0.0
C587 C 0.25882 0.38815 0.81313 0.0
C588 C 0.22977 0.38021 0.89026 0.0
C589 C 0.24416 0.37041 0.8138 0.0
C590 C 0.20331 0.35832 0.95099 0.0
C591 C 0.19859 0.38624 0.99693 0.0
N592 N 0.23028 0.3669 0.85227 0.0
N593 N 0.21172 0.38909 0.9558 0.0
H594 H 0.72035 0.82462 0.9058 0.0
H595 H 0.72242 0.91567 0.91425 0.0
H596 H 0.75062 0.86987 0.04553 0.0
H597 H 0.7168 0.88326 0.73845 0.0
H598 H 0.72965 0.89725 0.96748 0.0
H599 H 0.71617 0.84427 0.84659 0.0
C600 C 0.72627 0.83874 0.92364 0.0
C601 C 0.73588 0.84565 0.9806 0.0
C602 C 0.72689 0.89422 0.91721 0.0
C603 C 0.73078 0.86801 0.914 0.0
C604 C 0.72262 0.9046 0.88701 0.0
C605 C 0.71894 0.90089 0.82198 0.0
C606 C 0.72712 0.87978 0.88242 0.0
C607 C 0.71962 0.88655 0.78861 0.0
C608 C 0.72389 0.84992 0.88984 0.0
C609 C 0.74323 0.86402 1.00163 0.0
N610 N 0.72345 0.87637 0.81932 0.0
N611 N 0.74032 0.87451 0.96881 0.0
H612 H 0.22977 0.91293 0.08017 0.0
H613 H 0.21307 0.85748 0.73816 0.0
H614 H 0.27223 0.92209 0.95333 0.0
H615 H 0.17704 0.83738 0.89286 0.0
H616 H 0.23361 0.8843 0.80896 0.0
H617 H 0.20891 0.88842 1.00394 0.0
C618 C 0.23471 0.90997 0.03594 0.0
C619 C 0.25282 0.91957 0.02333 0.0
C620 C 0.22119 0.87401 0.82725 0.0
C621 C 0.22893 0.89145 0.93574 0.0
C622 C 0.20945 0.85878 0.78687 0.0
C623 C 0.19339 0.84512 0.80979 0.0
C624 C 0.21667 0.87576 0.8907 0.0
C625 C 0.18938 0.84743 0.87345 0.0
C626 C 0.22278 0.89588 0.99262 0.0
C627 C 0.2584 0.915 0.96521 0.0
N628 N 0.20088 0.86246 0.91153 0.0
N629 N 0.24651 0.90128 0.92359 0.0
H630 H 0.35675 0.21721 0.77575 0.0
H631 H 0.42261 0.21262 0.51703 0.0
H632 H 0.40747 0.26359 0.73609 0.0
H633 H 0.3715 0.16642 0.55417 0.0
H634 H 0.41728 0.23135 0.59684 0.0
H635 H 0.36195 0.19852 0.69523 0.0
C636 C 0.36902 0.22351 0.7501 0.0
C637 C 0.38171 0.24208 0.76293 0.0
C638 C 0.40721 0.21713 0.58764 0.0
C639 C 0.38773 0.22055 0.67008 0.0
C640 C 0.41022 0.20636 0.54195 0.0
C641 C 0.39747 0.18783 0.52868 0.0
C642 C 0.3913 0.2094 0.62077 0.0
C643 C 0.38171 0.1806 0.56271 0.0
C644 C 0.37195 0.21277 0.70398 0.0
C645 C 0.39731 0.24938 0.72791 0.0
N646 N 0.37908 0.19139 0.60716 0.0
N647 N 0.39988 0.2386 0.68318 0.0
H648 H 0.83832 0.19523 0.77483 0.0
H649 H 0.93049 0.2098 0.65328 0.0
H650 H 0.86084 0.16721 0.83919 0.0
H651 H 0.9101 0.24128 0.60288 0.0
H652 H 0.90506 0.19392 0.72098 0.0
H653 H 0.86435 0.21191 0.71033 0.0
C654 C 0.84871 0.19255 0.77536 0.0
C655 C 0.84732 0.17974 0.81253 0.0
C656 C 0.90617 0.20432 0.69513 0.0
C657 C 0.87729 0.1989 0.73881 0.0
C658 C 0.92077 0.21348 0.65655 0.0
C659 C 0.92254 0.22695 0.62189 0.0
C660 C 0.89316 0.20858 0.69916 0.0
C661 C 0.90927 0.23086 0.62769 0.0
C662 C 0.86363 0.20215 0.73871 0.0
C663 C 0.86137 0.17706 0.81194 0.0
N664 N 0.89518 0.22172 0.6654 0.0
N665 N 0.87571 0.18649 0.7755 0.0
H666 H 0.92381 0.72321 0.76062 0.0
H667 H 0.89259 0.7288 0.42458 0.0
H668 H 0.94135 0.70987 0.58196 0.0
H669 H 0.87727 0.74535 0.60216 0.0
H670 H 0.9104 0.72168 0.48185 0.0
H671 H 0.90684 0.73156 0.70401 0.0
C672 C 0.92422 0.72213 0.70958 0.0
C673 C 0.93406 0.71575 0.6762 0.0
C674 C 0.90317 0.7269 0.50838 0.0
C675 C 0.91442 0.72513 0.61091 0.0
C676 C 0.89289 0.73088 0.47563 0.0
C677 C 0.8833 0.73762 0.50849 0.0
C678 C 0.90389 0.72961 0.57466 0.0
C679 C 0.88453 0.74034 0.57475 0.0
C680 C 0.91443 0.72683 0.67723 0.0
C681 C 0.93381 0.71443 0.60989 0.0
N682 N 0.89456 0.73626 0.60562 0.0
N683 N 0.92415 0.71904 0.57956 0.0
H684 H 0.85844 0.70563 0.1699 0.0
H685 H 0.95383 0.7398 0.01832 0.0
H686 H 0.90488 0.75788 0.22429 0.0
H687 H 0.90665 0.68881 0.958 0.0
H688 H 0.93636 0.74651 0.09577 0.0
H689 H 0.87608 0.69899 0.09336 0.0
C690 C 0.87232 0.71571 0.16577 0.0
C691 C 0.88014 0.73234 0.20362 0.0
C692 C 0.92985 0.73386 0.06554 0.0
C693 C 0.90049 0.72484 0.1161 0.0
C694 C 0.93984 0.73002 0.02135 0.0
C695 C 0.93174 0.71373 0.98146 0.0
C696 C 0.91163 0.72129 0.06999 0.0
C697 C 0.91352 0.70157 0.98758 0.0
C698 C 0.88241 0.71192 0.12203 0.0
C699 C 0.89824 0.74487 0.19613 0.0
N700 N 0.90412 0.70559 0.03085 0.0
N701 N 0.90776 0.74087 0.1534 0.0
H702 H 0.42245 0.19713 0.1635 0.0
H703 H 0.3593 0.23388 0.12967 0.0
H704 H 0.37561 0.18134 0.2739 0.0
H705 H 0.406 0.24976 0.01831 0.0
H706 H 0.36519 0.21469 0.18311 0.0
H707 H 0.41666 0.21636 0.10954 0.0
C708 C 0.4109 0.19761 0.1763 0.0
C709 C 0.39951 0.18751 0.22348 0.0
C710 C 0.37416 0.22237 0.14698 0.0
C711 C 0.39287 0.20973 0.162 0.0
C712 C 0.37086 0.23344 0.11658 0.0
C713 C 0.38219 0.24357 0.06937 0.0
C714 C 0.38894 0.22135 0.13028 0.0
C715 C 0.39678 0.24211 0.05384 0.0
C716 C 0.40765 0.20869 0.14561 0.0
C717 C 0.3849 0.18898 0.23855 0.0
N718 N 0.39975 0.23125 0.08426 0.0
N719 N 0.382 0.19984 0.2079 0.0
H720 H 0.9189 0.20335 0.31885 0.0
H721 H 0.84402 0.19937 0.11962 0.0
H722 H 0.91518 0.24977 0.30787 0.0
H723 H 0.85018 0.15416 0.12211 0.0
H724 H 0.86947 0.21777 0.18993 0.0
H725 H 0.89352 0.18521 0.24864 0.0
C726 C 0.91277 0.2098 0.30168 0.0
C727 C 0.91927 0.22821 0.31958 0.0
C728 C 0.86528 0.20384 0.17522 0.0
C729 C 0.88991 0.20725 0.2385 0.0
C730 C 0.85068 0.19325 0.13503 0.0
C731 C 0.84487 0.1751 0.11473 0.0
C732 C 0.87423 0.1963 0.19571 0.0
C733 C 0.85413 0.16804 0.13645 0.0
C734 C 0.89822 0.19935 0.26138 0.0
C735 C 0.91068 0.23567 0.29541 0.0
N736 N 0.86833 0.17864 0.17571 0.0
N737 N 0.89643 0.22516 0.25621 0.0
H738 H 0.05319 0.65485 0.36227 0.0
H739 H 0.15313 0.73584 0.43349 0.0
H740 H 0.09738 0.6536 0.27887 0.0
H741 H 0.10772 0.73518 0.51383 0.0
H742 H 0.13346 0.70628 0.37501 0.0
H743 H 0.07338 0.68475 0.41515 0.0
C744 C 0.06718 0.66088 0.35482 0.0
C745 C 0.07355 0.65158 0.31604 0.0
C746 C 0.12783 0.71265 0.40536 0.0
C747 C 0.09697 0.68615 0.37734 0.0
C748 C 0.13906 0.72952 0.43916 0.0
C749 C 0.13215 0.73816 0.47901 0.0
C750 C 0.10951 0.70426 0.41137 0.0
C751 C 0.11375 0.72929 0.48337 0.0
C752 C 0.07875 0.67804 0.38524 0.0
C753 C 0.09186 0.66025 0.30827 0.0
N754 N 0.10315 0.7129 0.45021 0.0
N755 N 0.10294 0.67702 0.33887 0.0
H756 H 0.42865 0.43647 0.2944 0.0
H757 H 0.37299 0.45934 0.54978 0.0
H758 H 0.43802 0.48987 0.34244 0.0
H759 H 0.35445 0.40491 0.46632 0.0
H760 H 0.39863 0.47051 0.4822 0.0
H761 H 0.4032 0.42448 0.36505 0.0
C762 C 0.42541 0.44568 0.31997 0.0
C763 C 0.43546 0.46421 0.31228 0.0
C764 C 0.38894 0.45611 0.47862 0.0
C765 C 0.40642 0.4506 0.39325 0.0
C766 C 0.37417 0.44967 0.51719 0.0
C767 C 0.36122 0.43108 0.51365 0.0
C768 C 0.39104 0.44395 0.43623 0.0
C769 C 0.36398 0.41931 0.47124 0.0
C770 C 0.41083 0.43881 0.36 0.0
C771 C 0.43054 0.47548 0.34618 0.0
N772 N 0.37856 0.42594 0.43418 0.0
N773 N 0.41645 0.46852 0.38525 0.0
H774 H 0.67876 0.96974 0.64003 0.0
H775 H 0.64723 0.99496 0.34867 0.0
H776 H 0.67801 0.94673 0.44945 0.0
H777 H 0.62267 0.98967 0.53077 0.0
H778 H 0.66479 0.98401 0.387 0.0
H779 H 0.66425 0.98408 0.60256 0.0
C780 C 0.67572 0.96792 0.59028 0.0
C781 C 0.6794 0.95698 0.54773 0.0
C782 C 0.6556 0.98535 0.41852 0.0
C783 C 0.66319 0.97341 0.5046 0.0
C784 C 0.64569 0.99163 0.3968 0.0
C785 C 0.63343 0.99301 0.43652 0.0
C786 C 0.65354 0.9809 0.48085 0.0
C787 C 0.63183 0.98853 0.49854 0.0
C788 C 0.6674 0.97598 0.56902 0.0
C789 C 0.67516 0.95492 0.4837 0.0
N790 N 0.64183 0.98275 0.51897 0.0
N791 N 0.66734 0.96311 0.46396 0.0
H792 H 0.65561 0.07424 0.23039 0.0
H793 H 0.75649 0.10619 0.17038 0.0
H794 H 0.68632 0.06865 0.3633 0.0
H795 H 0.72873 0.12311 0.06866 0.0
H796 H 0.73047 0.09022 0.23686 0.0
H797 H 0.68189 0.09038 0.16665 0.0
C798 C 0.66791 0.07648 0.24641 0.0
C799 C 0.66872 0.07009 0.30249 0.0
C800 C 0.73011 0.09746 0.20001 0.0
C801 C 0.69896 0.08845 0.22893 0.0
C802 C 0.74491 0.10645 0.16177 0.0
C803 C 0.74483 0.11607 0.114 0.0
C804 C 0.71505 0.09789 0.18984 0.0
C805 C 0.72949 0.11609 0.10538 0.0
C806 C 0.68294 0.08572 0.2099 0.0
C807 C 0.68508 0.07342 0.32066 0.0
N808 N 0.71525 0.10712 0.14267 0.0
N809 N 0.69952 0.08227 0.2838 0.0
H810 H 0.94876 0.63752 0.97454 0.0
H811 H 0.03137 0.63576 0.08157 0.0
H812 H 1.00228 0.68093 0.94827 0.0
H813 H 0.97822 0.60075 0.14498 0.0
H814 H 1.02136 0.65188 0.02875 0.0
H815 H 0.9596 0.62303 0.03212 0.0
C816 C 0.96282 0.64398 0.98071 0.0
C817 C 0.97463 0.66043 0.95623 0.0
C818 C 1.01194 0.64068 0.05443 0.0
C819 C 0.98721 0.64388 0.02254 0.0
C820 C 1.01765 0.63146 0.08489 0.0
C821 C 1.00565 0.61665 0.11775 0.0
C822 C 0.99408 0.63503 0.05634 0.0
C823 C 0.98798 0.61175 0.11949 0.0
C824 C 0.96901 0.63575 1.014 0.0
C825 C 0.99272 0.66832 0.96669 0.0
N826 N 0.98276 0.62083 0.08906 0.0
N827 N 0.99848 0.65992 0.99867 0.0
H828 H 0.45234 0.33242 0.96 0.0
H829 H 0.45593 0.4179 0.15198 0.0
H830 H 0.40791 0.33872 0.97426 0.0
H831 H 0.50235 0.42123 0.06956 0.0
H832 H 0.43805 0.38684 0.10182 0.0
H833 H 0.47083 0.36322 1.01265 0.0
C834 C 0.44649 0.34029 0.97394 0.0
C835 C 0.42855 0.33297 0.96239 0.0
C836 C 0.45216 0.39434 0.09501 0.0
C837 C 0.44955 0.36806 0.02385 0.0
C838 C 0.46241 0.41204 0.12409 0.0
C839 C 0.48071 0.42224 0.115 0.0
C840 C 0.46023 0.38662 0.05726 0.0
C841 C 0.48831 0.4139 0.07779 0.0
C842 C 0.45705 0.35785 1.00397 0.0
C843 C 0.42169 0.34381 0.98169 0.0
N844 N 0.47805 0.39658 0.05042 0.0
N845 N 0.43214 0.36072 1.01188 0.0
H846 H 0.97681 0.31207 0.58236 0.0
H847 H 0.02965 0.4201 0.59169 0.0
H848 H 0.98866 0.33994 0.416 0.0
H849 H 1.01987 0.3922 0.75671 0.0
H850 H 1.01297 0.39092 0.52777 0.0
H851 H 0.99073 0.34116 0.64749 0.0
C852 C 0.98224 0.32429 0.55941 0.0
C853 C 0.98157 0.32347 0.49331 0.0
C854 C 1.01439 0.39115 0.578 0.0
C855 C 0.99768 0.35702 0.56816 0.0
C856 C 0.0239 0.40785 0.6147 0.0
C857 C 0.02627 0.40869 0.67991 0.0
C858 C 1.00711 0.37506 0.60643 0.0
C859 C 1.01846 0.39228 0.70674 0.0
C860 C 0.99023 0.34093 0.59678 0.0
C861 C 0.98886 0.33984 0.46662 0.0
N862 N 1.00932 0.37619 0.66993 0.0
N863 N 0.99665 0.3559 0.50404 0.0
H864 H 0.71863 0.61111 0.51527 0.0
H865 H 0.78718 0.70558 0.38241 0.0
H866 H 0.71241 0.65675 0.54169 0.0
H867 H 0.79914 0.66526 0.40532 0.0
H868 H 0.7581 0.68649 0.42785 0.0
H869 H 0.74645 0.62946 0.46293 0.0
C870 C 0.72305 0.62499 0.5106 0.0
C871 C 0.71303 0.63233 0.5341 0.0
C872 C 0.76707 0.6818 0.42267 0.0
C873 C 0.74507 0.65347 0.47239 0.0
C874 C 0.78366 0.69264 0.39642 0.0
C875 C 0.79569 0.68704 0.39011 0.0
C876 C 0.76235 0.66512 0.44218 0.0
C877 C 0.79036 0.67017 0.40944 0.0
C878 C 0.73899 0.63546 0.48021 0.0
C879 C 0.71949 0.65037 0.52447 0.0
N880 N 0.77411 0.65983 0.4345 0.0
N881 N 0.73508 0.6603 0.4945 0.0
H882 H 0.46353 0.16187 0.55168 0.0
H883 H 0.45605 0.07395 0.65415 0.0
H884 H 0.41888 0.10822 0.49981 0.0
H885 H 0.49088 0.12795 0.74469 0.0
H886 H 0.44287 0.08573 0.59356 0.0
H887 H 0.47467 0.14928 0.61768 0.0
C888 C 0.45609 0.14741 0.55406 0.0
C889 C 0.4403 0.13607 0.5199 0.0
C890 C 0.45337 0.09494 0.62695 0.0
C891 C 0.45299 0.12149 0.59569 0.0
C892 C 0.46091 0.08822 0.66187 0.0
C893 C 0.47483 0.09993 0.7046 0.0
C894 C 0.45986 0.11353 0.63426 0.0
C895 C 0.48051 0.11836 0.71166 0.0
C896 C 0.4624 0.14023 0.59212 0.0
C897 C 0.43106 0.11744 0.52564 0.0
N898 N 0.47311 0.12455 0.67667 0.0
N899 N 0.43761 0.11069 0.56241 0.0
H900 H 0.35857 0.98975 1.01172 0.0
H901 H 0.44511 0.99111 0.89557 0.0
H902 H 0.36643 0.94614 0.02721 0.0
H903 H 0.43299 0.02894 0.84177 0.0
H904 H 0.41616 0.97452 0.94371 0.0
H905 H 0.38545 1.00438 0.9493 0.0
C906 C 0.36579 0.98313 1.0018 0.0
C907 C 0.36016 0.96668 0.02574 0.0
C908 C 0.41972 0.98635 0.9209 0.0
C909 C 0.39118 0.98357 0.95457 0.0
C910 C 0.43628 0.99584 0.8933 0.0
C911 C 0.44154 1.01148 0.86463 0.0
C912 C 0.4083 0.99263 0.9208 0.0
C913 C 0.42948 0.01692 0.86315 0.0
C914 C 0.38121 0.99156 0.96618 0.0
C915 C 0.3703 0.95894 1.01132 0.0
N916 N 0.41351 1.00763 0.89146 0.0
N917 N 0.38529 0.96748 0.97721 0.0
H918 H 0.0833 0.42798 0.85233 0.0
H919 H 0.16355 0.45331 0.07756 0.0
H920 H 0.13214 0.47992 0.87143 0.0
H921 H 0.11867 0.39886 0.04072 0.0
H922 H 0.15096 0.4635 1.00769 0.0
H923 H 0.0947 0.41728 0.92665 0.0
C924 C 0.09636 0.43715 0.87237 0.0
C925 C 0.10681 0.45484 0.85519 0.0
C926 C 0.14381 0.44931 1.01481 0.0
C927 C 0.11995 0.44271 0.94004 0.0
C928 C 0.15097 0.44349 0.05519 0.0
C929 C 0.14217 0.42518 0.06534 0.0
C930 C 0.12764 0.4368 0.98421 0.0
C931 C 0.12601 0.41306 0.03388 0.0
C932 C 0.10289 0.43102 0.91448 0.0
C933 C 0.1237 0.4661 0.88232 0.0
N934 N 0.11924 0.41909 0.99485 0.0
N935 N 0.1297 0.45986 0.92326 0.0
H936 H 0.67761 0.66749 0.71221 0.0
H937 H 0.65001 0.72536 0.95219 0.0
H938 H 0.62477 0.64739 0.7794 0.0
H939 H 0.7041 0.74105 0.92258 0.0
H940 H 0.64064 0.69859 0.8779 0.0
H941 H 0.6875 0.69639 0.7768 0.0
C942 C 0.66804 0.66922 0.73976 0.0
C943 C 0.65033 0.65494 0.74047 0.0
C944 C 0.65458 0.7079 0.88755 0.0
C945 C 0.66158 0.68794 0.81464 0.0
C946 C 0.65999 0.72324 0.9305 0.0
C947 C 0.67795 0.73558 0.94487 0.0
C948 C 0.66714 0.70475 0.85794 0.0
C949 C 0.69014 0.73208 0.91326 0.0
C950 C 0.67373 0.68568 0.77695 0.0
C951 C 0.63856 0.65795 0.77751 0.0
N952 N 0.68451 0.71699 0.87154 0.0
N953 N 0.64439 0.67404 0.81305 0.0
H954 H 0.75205 0.98751 0.79931 0.0
H955 H 0.79452 0.09474 0.83572 0.0
H956 H 0.76034 0.01788 0.64263 0.0
H957 H 0.78181 0.06374 0.99415 0.0
H958 H 0.78417 0.06713 0.76406 0.0
H959 H 0.76503 0.01554 0.87037 0.0
C960 C 0.75672 1.00008 0.77963 0.0
C961 C 0.75502 1.00025 0.71462 0.0
C962 C 0.78369 0.06635 0.81447 0.0
C963 C 0.7699 0.03255 0.79635 0.0
C964 C 0.78964 0.08215 0.8556 0.0
C965 C 0.78901 0.08164 0.92138 0.0
C966 C 0.77705 0.04978 0.83894 0.0
C967 C 0.78253 0.06484 0.94395 0.0
C968 C 0.76409 0.01611 0.82043 0.0
C969 C 0.76132 0.01702 0.69225 0.0
N970 N 0.77678 0.04962 0.90288 0.0
N971 N 0.76841 0.03245 0.73299 0.0
H972 H 0.1082 0.82178 0.7176 0.0
H973 H 1.023 0.73005 0.80963 0.0
H974 H 0.0989 0.7691 0.65203 0.0
H975 H 1.02227 0.77834 0.80211 0.0
H976 H 0.05275 0.74534 0.76638 0.0
H977 H 0.07836 0.80716 0.76119 0.0
C978 C 0.09987 0.80716 0.71201 0.0
C979 C 0.10607 0.79667 0.68088 0.0
C980 C 0.04609 0.7526 0.77437 0.0
C981 C 0.07209 0.77988 0.73186 0.0
C982 C 0.02915 0.74393 0.79955 0.0
C983 C 1.02008 0.75291 0.80952 0.0
C984 C 0.05421 0.7705 0.7599 0.0
C985 C 0.02873 0.77088 0.79506 0.0
C986 C 0.08285 0.79884 0.73691 0.0
C987 C 0.09467 0.77776 0.67523 0.0
N988 N 0.04533 0.77911 0.77121 0.0
N989 N 0.07833 0.76999 0.70097 0.0
H990 H 0.27904 0.32641 0.73859 0.0
H991 H 0.36074 0.31393 0.75001 0.0
H992 H 0.32706 0.35743 0.636 0.0
H993 H 0.31254 0.28442 0.85336 0.0
H994 H 0.34868 0.32945 0.70493 0.0
H995 H 0.29088 0.30997 0.77652 0.0
C996 C 0.29204 0.3297 0.7236 0.0
C997 C 0.30206 0.3434 0.68412 0.0
C998 C 0.34075 0.31953 0.73735 0.0
C999 C 0.31586 0.32461 0.7281 0.0
C1000 C 0.34767 0.31072 0.76346 0.0
C1001 C 0.33767 0.29775 0.80562 0.0
C1002 C 0.3237 0.31538 0.75356 0.0
C1003 C 0.3207 0.29406 0.8205 0.0
C1004 C 0.29884 0.3203 0.74548 0.0
C1005 C 0.31884 0.34698 0.66633 0.0
N1006 N 0.31432 0.30281 0.79465 0.0
N1007 N 0.32525 0.33771 0.6887 0.0
H1008 H 1.01697 0.26679 0.23362 0.0
H1009 H 0.11348 0.35431 0.26299 0.0
H1010 H 0.03142 0.31146 0.37662 0.0
H1011 H 0.09169 0.32419 0.08185 0.0
H1012 H 0.08464 0.33615 0.31037 0.0
H1013 H 0.04529 0.28521 0.18163 0.0
C1014 C 0.02613 0.28048 0.254 0.0
C1015 C 1.0219 0.28763 0.30955 0.0
C1016 C 0.08616 0.33351 0.26027 0.0
C1017 C 0.05431 0.30863 0.25091 0.0
C1018 C 0.10266 0.34377 0.23314 0.0
C1019 C 0.10505 0.34075 0.16821 0.0
C1020 C 0.07192 0.31984 0.22266 0.0
C1021 C 0.09044 0.32699 0.13202 0.0
C1022 C 0.04221 0.29099 0.22418 0.0
C1023 C 0.03414 0.3055 0.3337 0.0
N1024 N 0.07451 0.31693 0.15983 0.0
N1025 N 0.04988 0.31532 0.30467 0.0
H1026 H 0.83484 0.7943 0.207 0.0
H1027 H 0.73205 0.75491 0.16645 0.0
H1028 H 0.79286 0.74343 0.26652 0.0
H1029 H 0.77245 0.80662 0.1077 0.0
H1030 H 0.75466 0.75038 0.19903 0.0
H1031 H 0.81279 0.7991 0.16753 0.0
C1032 C 0.82104 0.78415 0.21196 0.0
C1033 C 0.81578 0.76839 0.24019 0.0
C1034 C 0.75867 0.76273 0.1789 0.0
C1035 C 0.79046 0.77376 0.19453 0.0
C1036 C 0.74572 0.76534 0.16017 0.0
C1037 C 0.75032 0.78123 0.13447 0.0
C1038 C 0.77651 0.7761 0.17229 0.0
C1039 C 0.76829 0.79417 0.1273 0.0
C1040 C 0.80845 0.78687 0.18907 0.0
C1041 C 0.79766 0.75564 0.24443 0.0
N1042 N 0.78076 0.79136 0.14639 0.0
N1043 N 0.78573 0.75863 0.22204 0.0
H1044 H 0.31471 0.01658 0.08012 0.0
H1045 H 0.36301 0.08665 0.38496 0.0
H1046 H 0.31812 0.99999 0.25825 0.0
H1047 H 0.3481 0.10049 0.22238 0.0
H1048 H 0.34732 0.05499 0.33897 0.0
H1049 H 0.3277 0.04758 0.13052 0.0
C1050 C 0.3181 0.01941 0.12986 0.0
C1051 C 0.3153 1.0056 0.16486 0.0
C1052 C 0.34738 0.06495 0.31363 0.0
C1053 C 0.33037 0.04119 0.2229 0.0
C1054 C 0.35633 0.08304 0.3399 0.0
C1055 C 0.35692 0.09633 0.30757 0.0
C1056 C 0.33911 0.06009 0.25421 0.0
C1057 C 0.34803 0.09078 0.24919 0.0
C1058 C 0.32551 0.03713 0.15868 0.0
C1059 C 0.31998 1.01015 0.2293 0.0
N1060 N 0.33964 0.07317 0.22426 0.0
N1061 N 0.32738 0.02754 0.25604 0.0
loop_
_geom_bond_atom_site_label_1
_geom_bond_atom_site_label_2
_geom_bond_distance
_geom_bond_site_symmetry_2
_ccdc_geom_bond_type
Cu0 N1 1.999 . S
Cu0 O6 1.974 . S
Cu0 N11 1.985 . S
Cu0 O20 1.959 . S
N1 Cu0 1.999 . S
N1 C3 1.263 . S
N1 C5 1.389 . S
N2 C3 1.358 . S
N2 C4 1.400 . S
C3 N1 1.263 . S
C3 N2 1.358 . S
C3 H9 0.930 . S
C4 N2 1.400 . S
C4 C5 1.351 . S
C4 H21 0.930 . S
C5 N1 1.389 . S
C5 C4 1.351 . S
C5 H10 0.930 . S
O6 Cu0 1.974 . S
O6 C16 1.282 . S
C7 O8 1.261 . S
C7 O20 1.251 . S
O8 C7 1.261 . S
H9 C3 0.930 . S
H10 C5 0.930 . S
N11 Cu0 1.985 . S
N11 C13 1.335 . S
N11 C14 1.390 . S
N12 C13 1.345 . S
N12 C15 1.336 . S
C13 N11 1.335 . S
C13 N12 1.345 . S
C13 H18 0.930 . S
C14 N11 1.390 . S
C14 C15 1.346 . S
C14 H19 0.930 . S
C15 N12 1.336 . S
C15 C14 1.346 . S
C15 H22 0.929 . S
C16 O6 1.282 . S
C16 O17 1.216 . S
O17 C16 1.216 . S
H18 C13 0.930 . S
H19 C14 0.930 . S
O20 Cu0 1.959 . S
O20 C7 1.251 . S
H21 C4 0.930 . S
H22 C15 0.929 . S
Cu23 N24 1.999 . S
Cu23 O29 1.974 . S
Cu23 N34 1.985 . S
Cu23 O43 1.959 . S
N24 Cu23 1.999 . S
N24 C26 1.263 . S
N24 C28 1.389 . S
N25 C26 1.358 . S
N25 C27 1.400 . S
C26 N24 1.263 . S
C26 N25 1.358 . S
C26 H32 0.930 . S
C27 N25 1.400 . S
C27 C28 1.351 . S
C27 H44 0.930 1_554 S
C28 N24 1.389 . S
C28 C27 1.351 . S
C28 H33 0.930 . S
O29 Cu23 1.974 . S
O29 C39 1.282 . S
C30 O31 1.261 . S
C30 O43 1.251 . S
O31 C30 1.261 . S
H32 C26 0.930 . S
H33 C28 0.930 . S
N34 Cu23 1.985 . S
N34 C36 1.335 . S
N34 C37 1.390 . S
N35 C36 1.345 . S
N35 C38 1.336 . S
C36 N34 1.335 . S
C36 N35 1.345 . S
C36 H41 0.930 . S
C37 N34 1.390 . S
C37 C38 1.346 . S
C37 H42 0.930 . S
C38 N35 1.336 . S
C38 C37 1.346 . S
C38 H45 0.929 . S
C39 O29 1.282 . S
C39 O40 1.216 . S
O40 C39 1.216 . S
H41 C36 0.930 . S
H42 C37 0.930 . S
O43 Cu23 1.959 . S
O43 C30 1.251 . S
H44 C27 0.930 1_556 S
H45 C38 0.929 . S
Cu46 N47 1.999 . S
Cu46 O52 1.974 . S
Cu46 N57 1.985 . S
Cu46 O66 1.959 . S
N47 Cu46 1.999 . S
N47 C49 1.263 . S
N47 C51 1.389 . S
N48 C49 1.358 . S
N48 C50 1.400 . S
C49 N47 1.263 . S
C49 N48 1.358 . S
C49 H55 0.930 . S
C50 N48 1.400 . S
C50 C51 1.351 . S
C50 H67 0.930 . S
C51 N47 1.389 . S
C51 C50 1.351 . S
C51 H56 0.930 . S
O52 Cu46 1.974 . S
O52 C62 1.282 . S
C53 O54 1.261 . S
C53 O66 1.251 . S
O54 C53 1.261 . S
H55 C49 0.930 . S
H56 C51 0.930 . S
N57 Cu46 1.985 . S
N57 C59 1.335 . S
N57 C60 1.390 . S
N58 C59 1.345 . S
N58 C61 1.336 . S
C59 N57 1.335 . S
C59 N58 1.345 . S
C59 H64 0.930 . S
C60 N57 1.390 . S
C60 C61 1.346 . S
C60 H65 0.930 . S
C61 N58 1.336 . S
C61 C60 1.346 . S
C61 H68 0.929 . S
C62 O52 1.282 . S
C62 O63 1.216 . S
O63 C62 1.216 . S
H64 C59 0.930 . S
H65 C60 0.930 . S
O66 Cu46 1.959 . S
O66 C53 1.251 . S
H67 C50 0.930 . S
H68 C61 0.929 . S
Cu69 N70 1.999 . S
Cu69 O75 1.974 . S
Cu69 N80 1.985 . S
Cu69 O89 1.959 . S
N70 Cu69 1.999 . S
N70 C72 1.263 . S
N70 C74 1.389 . S
N71 C72 1.358 . S
N71 C73 1.400 . S
C72 N70 1.263 . S
C72 N71 1.358 . S
C72 H78 0.930 . S
C73 N71 1.400 . S
C73 C74 1.351 . S
C73 H90 0.930 . S
C74 N70 1.389 . S
C74 C73 1.351 . S
C74 H79 0.930 . S
O75 Cu69 1.974 . S
O75 C85 1.282 . S
C76 O77 1.261 . S
C76 O89 1.251 . S
O77 C76 1.261 . S
H78 C72 0.930 . S
H79 C74 0.930 . S
N80 Cu69 1.985 . S
N80 C82 1.335 . S
N80 C83 1.390 . S
N81 C82 1.345 . S
N81 C84 1.336 . S
C82 N80 1.335 . S
C82 N81 1.345 . S
C82 H87 0.930 . S
C83 N80 1.390 . S
C83 C84 1.346 . S
C83 H88 0.930 . S
C84 N81 1.336 . S
C84 C83 1.346 . S
C84 H91 0.929 . S
C85 O75 1.282 . S
C85 O86 1.216 . S
O86 C85 1.216 . S
H87 C82 0.930 . S
H88 C83 0.930 . S
O89 Cu69 1.959 . S
O89 C76 1.251 . S
H90 C73 0.930 . S
H91 C84 0.929 . S
Cu92 N93 1.999 . S
Cu92 O98 1.974 . S
Cu92 N103 1.985 . S
Cu92 O112 1.959 . S
N93 Cu92 1.999 . S
N93 C95 1.263 . S
N93 C97 1.389 . S
N94 C95 1.358 . S
N94 C96 1.400 . S
C95 N93 1.263 . S
C95 N94 1.358 . S
C95 H101 0.930 . S
C96 N94 1.400 . S
C96 C97 1.351 . S
C96 H113 0.930 . S
C97 N93 1.389 . S
C97 C96 1.351 . S
C97 H102 0.930 . S
O98 Cu92 1.974 . S
O98 C108 1.282 . S
C99 O100 1.261 . S
C99 O112 1.251 . S
O100 C99 1.261 . S
H101 C95 0.930 . S
H102 C97 0.930 . S
N103 Cu92 1.985 . S
N103 C105 1.335 . S
N103 C106 1.390 . S
N104 C105 1.345 . S
N104 C107 1.336 . S
C105 N103 1.335 . S
C105 N104 1.345 . S
C105 H110 0.930 . S
C106 N103 1.390 . S
C106 C107 1.346 . S
C106 H111 0.930 . S
C107 N104 1.336 . S
C107 C106 1.346 . S
C107 H114 0.929 . S
C108 O98 1.282 . S
C108 O109 1.216 . S
O109 C108 1.216 . S
H110 C105 0.930 . S
H111 C106 0.930 . S
O112 Cu92 1.959 . S
O112 C99 1.251 . S
H113 C96 0.930 . S
H114 C107 0.929 . S
Cu115 N116 1.999 . S
Cu115 O121 1.974 . S
Cu115 N126 1.985 . S
Cu115 O135 1.959 . S
N116 Cu115 1.999 . S
N116 C118 1.263 . S
N116 C120 1.389 . S
N117 C118 1.358 . S
N117 C119 1.400 . S
C118 N116 1.263 . S
C118 N117 1.358 . S
C118 H124 0.930 . S
C119 N117 1.400 . S
C119 C120 1.351 . S
C119 H136 0.930 . S
C120 N116 1.389 . S
C120 C119 1.351 . S
C120 H125 0.930 . S
O121 Cu115 1.974 . S
O121 C131 1.282 . S
C122 O123 1.261 . S
C122 O135 1.251 . S
O123 C122 1.261 . S
H124 C118 0.930 . S
H125 C120 0.930 . S
N126 Cu115 1.985 . S
N126 C128 1.335 . S
N126 C129 1.390 . S
N127 C128 1.345 . S
N127 C130 1.336 . S
C128 N126 1.335 . S
C128 N127 1.345 . S
C128 H133 0.930 . S
C129 N126 1.390 . S
C129 C130 1.346 . S
C129 H134 0.930 . S
C130 N127 1.336 . S
C130 C129 1.346 . S
C130 H137 0.929 . S
C131 O121 1.282 . S
C131 O132 1.216 . S
O132 C131 1.216 . S
H133 C128 0.930 . S
H134 C129 0.930 . S
O135 Cu115 1.959 . S
O135 C122 1.251 . S
H136 C119 0.930 . S
H137 C130 0.929 . S
Cu138 N139 1.999 . S
Cu138 O144 1.974 . S
Cu138 N149 1.985 . S
Cu138 O158 1.959 . S
N139 Cu138 1.999 . S
N139 C141 1.263 . S
N139 C143 1.389 . S
N140 C141 1.358 . S
N140 C142 1.400 . S
C141 N139 1.263 . S
C141 N140 1.358 . S
C141 H147 0.930 . S
C142 N140 1.400 . S
C142 C143 1.351 . S
C142 H159 0.930 . S
C143 N139 1.389 . S
C143 C142 1.351 . S
C143 H148 0.930 . S
O144 Cu138 1.974 . S
O144 C154 1.282 . S
C145 O146 1.261 . S
C145 O158 1.251 . S
O146 C145 1.261 . S
H147 C141 0.930 . S
H148 C143 0.930 . S
N149 Cu138 1.985 . S
N149 C151 1.335 . S
N149 C152 1.390 . S
N150 C151 1.345 . S
N150 C153 1.336 . S
C151 N149 1.335 . S
C151 N150 1.345 . S
C151 H156 0.930 . S
C152 N149 1.390 . S
C152 C153 1.346 . S
C152 H157 0.930 . S
C153 N150 1.336 . S
C153 C152 1.346 . S
C153 H160 0.929 . S
C154 O144 1.282 . S
C154 O155 1.216 . S
O155 C154 1.216 . S
H156 C151 0.930 . S
H157 C152 0.930 . S
O158 Cu138 1.959 . S
O158 C145 1.251 . S
H159 C142 0.930 . S
H160 C153 0.929 . S
Cu161 N162 1.999 . S
Cu161 O167 1.974 . S
Cu161 N172 1.985 . S
Cu161 O181 1.959 . S
N162 Cu161 1.999 . S
N162 C164 1.263 . S
N162 C166 1.389 . S
N163 C164 1.358 . S
N163 C165 1.400 . S
C164 N162 1.263 . S
C164 N163 1.358 . S
C164 H170 0.930 . S
C165 N163 1.400 . S
C165 C166 1.351 . S
C165 H182 0.930 . S
C166 N162 1.389 . S
C166 C165 1.351 . S
C166 H171 0.930 . S
O167 Cu161 1.974 . S
O167 C177 1.282 . S
C168 O169 1.261 . S
C168 O181 1.251 . S
O169 C168 1.261 . S
H170 C164 0.930 . S
H171 C166 0.930 . S
N172 Cu161 1.985 . S
N172 C174 1.335 . S
N172 C175 1.390 . S
N173 C174 1.345 . S
N173 C176 1.336 . S
C174 N172 1.335 . S
C174 N173 1.345 . S
C174 H179 0.930 . S
C175 N172 1.390 . S
C175 C176 1.346 . S
C175 H180 0.930 . S
C176 N173 1.336 . S
C176 C175 1.346 . S
C176 H183 0.929 . S
C177 O167 1.282 . S
C177 O178 1.216 . S
O178 C177 1.216 . S
H179 C174 0.930 . S
H180 C175 0.930 . S
O181 Cu161 1.959 . S
O181 C168 1.251 . S
H182 C165 0.930 . S
H183 C176 0.929 . S
Cu184 N185 1.999 . S
Cu184 O190 1.974 . S
Cu184 N195 1.985 . S
Cu184 O204 1.959 . S
N185 Cu184 1.999 . S
N185 C187 1.263 . S
N185 C189 1.389 . S
N186 C187 1.358 . S
N186 C188 1.400 . S
C187 N185 1.263 . S
C187 N186 1.358 . S
C187 H193 0.930 . S
C188 N186 1.400 . S
C188 C189 1.351 . S
C188 H205 0.930 . S
C189 N185 1.389 . S
C189 C188 1.351 . S
C189 H194 0.930 . S
O190 Cu184 1.974 . S
O190 C200 1.282 . S
C191 O192 1.261 . S
C191 O204 1.251 . S
O192 C191 1.261 . S
H193 C187 0.930 . S
H194 C189 0.930 . S
N195 Cu184 1.985 . S
N195 C197 1.335 . S
N195 C198 1.390 . S
N196 C197 1.345 . S
N196 C199 1.336 . S
C197 N195 1.335 . S
C197 N196 1.345 . S
C197 H202 0.930 . S
C198 N195 1.390 . S
C198 C199 1.346 . S
C198 H203 0.930 . S
C199 N196 1.336 . S
C199 C198 1.346 . S
C199 H206 0.929 . S
C200 O190 1.282 . S
C200 O201 1.216 . S
O201 C200 1.216 . S
H202 C197 0.930 . S
H203 C198 0.930 . S
O204 Cu184 1.959 . S
O204 C191 1.251 . S
H205 C188 0.930 . S
H206 C199 0.929 . S
Cu207 N208 1.999 . S
Cu207 O213 1.974 . S
Cu207 N218 1.985 1_554 S
Cu207 O227 1.959 . S
N208 Cu207 1.999 . S
N208 C210 1.263 . S
N208 C212 1.389 . S
N209 C210 1.358 . S
N209 C211 1.400 . S
C210 N208 1.263 . S
C210 N209 1.358 . S
C210 H216 0.930 . S
C211 N209 1.400 . S
C211 C212 1.351 . S
C211 H228 0.930 . S
C212 N208 1.389 . S
C212 C211 1.351 . S
C212 H217 0.930 . S
O213 Cu207 1.974 . S
O213 C223 1.282 1_554 S
C214 O215 1.261 . S
C214 O227 1.251 . S
O215 C214 1.261 . S
H216 C210 0.930 . S
H217 C212 0.930 . S
N218 Cu207 1.985 1_556 S
N218 C220 1.335 . S
N218 C221 1.390 . S
N219 C220 1.345 . S
N219 C222 1.336 . S
C220 N218 1.335 . S
C220 N219 1.345 . S
C220 H225 0.930 1_556 S
C221 N218 1.390 . S
C221 C222 1.346 . S
C221 H226 0.930 . S
C222 N219 1.336 . S
C222 C221 1.346 . S
C222 H229 0.929 . S
C223 O213 1.282 1_556 S
C223 O224 1.216 . S
O224 C223 1.216 . S
H225 C220 0.930 1_554 S
H226 C221 0.930 . S
O227 Cu207 1.959 . S
O227 C214 1.251 . S
H228 C211 0.930 . S
H229 C222 0.929 . S
Cu230 N231 1.999 . S
Cu230 O236 1.974 . S
Cu230 N241 1.985 . S
Cu230 O250 1.959 . S
N231 Cu230 1.999 . S
N231 C233 1.263 . S
N231 C235 1.389 . S
N232 C233 1.358 . S
N232 C234 1.400 . S
C233 N231 1.263 . S
C233 N232 1.358 . S
C233 H239 0.930 . S
C234 N232 1.400 . S
C234 C235 1.351 . S
C234 H251 0.930 . S
C235 N231 1.389 . S
C235 C234 1.351 . S
C235 H240 0.930 . S
O236 Cu230 1.974 . S
O236 C246 1.282 . S
C237 O238 1.261 . S
C237 O250 1.251 . S
O238 C237 1.261 . S
H239 C233 0.930 . S
H240 C235 0.930 . S
N241 Cu230 1.985 . S
N241 C243 1.335 . S
N241 C244 1.390 1_554 S
N242 C243 1.345 1_556 S
N242 C245 1.336 . S
C243 N241 1.335 . S
C243 N242 1.345 1_554 S
C243 H248 0.930 . S
C244 N241 1.390 1_556 S
C244 C245 1.346 . S
C244 H249 0.930 . S
C245 N242 1.336 . S
C245 C244 1.346 . S
C245 H252 0.929 . S
C246 O236 1.282 . S
C246 O247 1.216 . S
O247 C246 1.216 . S
H248 C243 0.930 . S
H249 C244 0.930 . S
O250 Cu230 1.959 . S
O250 C237 1.251 . S
H251 C234 0.930 . S
H252 C245 0.929 . S
Cu253 N254 1.999 . S
Cu253 O259 1.974 . S
Cu253 N264 1.985 . S
Cu253 O273 1.959 . S
N254 Cu253 1.999 . S
N254 C256 1.263 . S
N254 C258 1.389 . S
N255 C256 1.358 . S
N255 C257 1.400 . S
C256 N254 1.263 . S
C256 N255 1.358 . S
C256 H262 0.930 . S
C257 N255 1.400 . S
C257 C258 1.351 . S
C257 H274 0.930 . S
C258 N254 1.389 . S
C258 C257 1.351 . S
C258 H263 0.930 . S
O259 Cu253 1.974 . S
O259 C269 1.282 . S
C260 O261 1.261 . S
C260 O273 1.251 . S
O261 C260 1.261 . S
H262 C256 0.930 . S
H263 C258 0.930 . S
N264 Cu253 1.985 . S
N264 C266 1.335 . S
N264 C267 1.390 1_554 S
N265 C266 1.342 1_556 S
N265 C268 1.338 . S
C266 N264 1.335 . S
C266 N265 1.342 1_554 S
C266 H271 0.930 . S
C267 N264 1.390 1_556 S
C267 C268 1.346 . S
C267 H272 0.930 . S
C268 N265 1.338 . S
C268 C267 1.346 . S
C268 H275 0.929 . S
C269 O259 1.282 . S
C269 O270 1.216 . S
O270 C269 1.216 . S
H271 C266 0.930 . S
H272 C267 0.930 . S
O273 Cu253 1.959 . S
O273 C260 1.251 . S
H274 C257 0.930 . S
H275 C268 0.929 . S
Cu276 N277 1.999 . S
Cu276 O282 1.974 . S
Cu276 N287 1.985 . S
Cu276 O296 1.959 . S
N277 Cu276 1.999 . S
N277 C279 1.263 . S
N277 C281 1.389 1_556 S
N278 C279 1.358 1_554 S
N278 C280 1.400 . S
C279 N277 1.263 . S
C279 N278 1.358 1_556 S
C279 H285 0.930 . S
C280 N278 1.400 . S
C280 C281 1.351 . S
C280 H297 0.930 . S
C281 N277 1.389 1_554 S
C281 C280 1.351 . S
C281 H286 0.930 . S
O282 Cu276 1.974 . S
O282 C292 1.282 . S
C283 O284 1.261 . S
C283 O296 1.251 . S
O284 C283 1.261 . S
H285 C279 0.930 . S
H286 C281 0.930 . S
N287 Cu276 1.985 . S
N287 C289 1.335 . S
N287 C290 1.390 . S
N288 C289 1.345 . S
N288 C291 1.336 . S
C289 N287 1.335 . S
C289 N288 1.345 . S
C289 H294 0.930 . S
C290 N287 1.390 . S
C290 C291 1.346 . S
C290 H295 0.930 . S
C291 N288 1.336 . S
C291 C290 1.346 . S
C291 H298 0.929 . S
C292 O282 1.282 . S
C292 O293 1.216 . S
O293 C292 1.216 . S
H294 C289 0.930 . S
H295 C290 0.930 . S
O296 Cu276 1.959 . S
O296 C283 1.251 . S
H297 C280 0.930 . S
H298 C291 0.929 . S
Cu299 N300 1.999 . S
Cu299 O305 1.974 1_556 S
Cu299 N310 1.985 1_556 S
Cu299 O319 1.959 . S
N300 Cu299 1.999 . S
N300 C302 1.263 . S
N300 C304 1.389 . S
N301 C302 1.358 . S
N301 C303 1.400 . S
C302 N300 1.263 . S
C302 N301 1.358 . S
C302 H308 0.930 . S
C303 N301 1.400 . S
C303 C304 1.351 . S
C303 H320 0.930 . S
C304 N300 1.389 . S
C304 C303 1.351 . S
C304 H309 0.930 . S
O305 Cu299 1.974 1_554 S
O305 C315 1.282 . S
C306 O307 1.261 . S
C306 O319 1.251 . S
O307 C306 1.261 . S
H308 C302 0.930 . S
H309 C304 0.930 . S
N310 Cu299 1.985 1_554 S
N310 C312 1.335 . S
N310 C313 1.390 . S
N311 C312 1.345 . S
N311 C314 1.336 . S
C312 N310 1.335 . S
C312 N311 1.345 . S
C312 H317 0.930 . S
C313 N310 1.390 . S
C313 C314 1.346 . S
C313 H318 0.930 . S
C314 N311 1.336 . S
C314 C313 1.346 . S
C314 H321 0.929 . S
C315 O305 1.282 . S
C315 O316 1.216 . S
O316 C315 1.216 . S
H317 C312 0.930 . S
H318 C313 0.930 . S
O319 Cu299 1.959 . S
O319 C306 1.251 . S
H320 C303 0.930 . S
H321 C314 0.929 . S
Cu322 N323 1.999 . S
Cu322 O328 1.974 . S
Cu322 N333 1.985 . S
Cu322 O342 1.959 . S
N323 Cu322 1.999 . S
N323 C325 1.263 . S
N323 C327 1.389 . S
N324 C325 1.358 . S
N324 C326 1.400 . S
C325 N323 1.263 . S
C325 N324 1.358 . S
C325 H331 0.930 . S
C326 N324 1.400 . S
C326 C327 1.351 . S
C326 H343 0.930 . S
C327 N323 1.389 . S
C327 C326 1.351 . S
C327 H332 0.930 . S
O328 Cu322 1.974 . S
O328 C338 1.282 . S
C329 O330 1.261 . S
C329 O342 1.251 . S
O330 C329 1.261 . S
H331 C325 0.930 . S
H332 C327 0.930 . S
N333 Cu322 1.985 . S
N333 C335 1.335 . S
N333 C336 1.390 . S
N334 C335 1.345 . S
N334 C337 1.336 1_556 S
C335 N333 1.335 . S
C335 N334 1.345 . S
C335 H340 0.930 . S
C336 N333 1.390 . S
C336 C337 1.346 1_556 S
C336 H341 0.930 1_556 S
C337 N334 1.336 1_554 S
C337 C336 1.346 1_554 S
C337 H344 0.929 . S
C338 O328 1.282 . S
C338 O339 1.216 . S
O339 C338 1.216 . S
H340 C335 0.930 . S
H341 C336 0.930 1_554 S
O342 Cu322 1.959 . S
O342 C329 1.251 . S
H343 C326 0.930 . S
H344 C337 0.929 . S
Cu345 N346 1.999 . S
Cu345 O351 1.974 . S
Cu345 N356 1.985 . S
Cu345 O365 1.959 . S
N346 Cu345 1.999 . S
N346 C348 1.263 . S
N346 C350 1.389 . S
N347 C348 1.358 . S
N347 C349 1.400 . S
C348 N346 1.263 . S
C348 N347 1.358 . S
C348 H354 0.930 . S
C349 N347 1.400 . S
C349 C350 1.351 . S
C349 H366 0.930 . S
C350 N346 1.389 . S
C350 C349 1.351 . S
C350 H355 0.930 . S
O351 Cu345 1.974 . S
O351 C361 1.282 . S
C352 O353 1.261 . S
C352 O365 1.251 . S
O353 C352 1.261 . S
H354 C348 0.930 . S
H355 C350 0.930 . S
N356 Cu345 1.985 . S
N356 C358 1.335 . S
N356 C359 1.390 . S
N357 C358 1.345 . S
N357 C360 1.336 . S
C358 N356 1.335 . S
C358 N357 1.345 . S
C358 H363 0.930 . S
C359 N356 1.390 . S
C359 C360 1.346 . S
C359 H364 0.930 . S
C360 N357 1.336 . S
C360 C359 1.346 . S
C360 H367 0.929 . S
C361 O351 1.282 . S
C361 O362 1.216 . S
O362 C361 1.216 . S
H363 C358 0.930 . S
H364 C359 0.930 . S
O365 Cu345 1.959 . S
O365 C352 1.251 . S
H366 C349 0.930 . S
H367 C360 0.929 . S
Cu368 N369 1.999 . S
Cu368 O374 1.974 . S
Cu368 N379 1.985 . S
Cu368 O388 1.959 . S
N369 Cu368 1.999 . S
N369 C371 1.263 . S
N369 C373 1.389 . S
N370 C371 1.358 . S
N370 C372 1.400 . S
C371 N369 1.263 . S
C371 N370 1.358 . S
C371 H377 0.930 . S
C372 N370 1.400 . S
C372 C373 1.351 . S
C372 H389 0.930 . S
C373 N369 1.389 . S
C373 C372 1.351 . S
C373 H378 0.930 . S
O374 Cu368 1.974 . S
O374 C384 1.282 . S
C375 O376 1.261 . S
C375 O388 1.251 . S
O376 C375 1.261 . S
H377 C371 0.930 . S
H378 C373 0.930 . S
N379 Cu368 1.985 . S
N379 C381 1.335 . S
N379 C382 1.390 . S
N380 C381 1.345 . S
N380 C383 1.336 . S
C381 N379 1.335 . S
C381 N380 1.345 . S
C381 H386 0.930 . S
C382 N379 1.390 . S
C382 C383 1.346 . S
C382 H387 0.930 . S
C383 N380 1.336 . S
C383 C382 1.346 . S
C383 H390 0.929 . S
C384 O374 1.282 . S
C384 O385 1.216 . S
O385 C384 1.216 . S
H386 C381 0.930 . S
H387 C382 0.930 . S
O388 Cu368 1.959 . S
O388 C375 1.251 . S
H389 C372 0.930 . S
H390 C383 0.929 . S
Cu391 N392 1.999 . S
Cu391 O397 1.974 . S
Cu391 N402 1.985 . S
Cu391 O411 1.959 . S
N392 Cu391 1.999 . S
N392 C394 1.263 . S
N392 C396 1.389 . S
N393 C394 1.358 . S
N393 C395 1.400 . S
C394 N392 1.263 . S
C394 N393 1.358 . S
C394 H400 0.930 . S
C395 N393 1.400 . S
C395 C396 1.351 . S
C395 H412 0.930 . S
C396 N392 1.389 . S
C396 C395 1.351 . S
C396 H401 0.930 . S
O397 Cu391 1.974 . S
O397 C407 1.282 . S
C398 O399 1.261 . S
C398 O411 1.251 . S
O399 C398 1.261 . S
H400 C394 0.930 . S
H401 C396 0.930 . S
N402 Cu391 1.985 . S
N402 C404 1.335 . S
N402 C405 1.390 . S
N403 C404 1.345 . S
N403 C406 1.336 . S
C404 N402 1.335 . S
C404 N403 1.345 . S
C404 H409 0.930 . S
C405 N402 1.390 . S
C405 C406 1.346 . S
C405 H410 0.930 . S
C406 N403 1.336 . S
C406 C405 1.346 . S
C406 H413 0.929 . S
C407 O397 1.282 . S
C407 O408 1.216 . S
O408 C407 1.216 . S
H409 C404 0.930 . S
H410 C405 0.930 . S
O411 Cu391 1.959 . S
O411 C398 1.251 . S
H412 C395 0.930 . S
H413 C406 0.929 . S
H414 C420 0.930 . S
H415 C424 0.930 . S
H416 C429 0.929 . S
H417 C427 0.929 . S
H418 C422 0.929 . S
H419 C428 0.929 1_554 S
C420 H414 0.930 . S
C420 C421 1.367 . S
C420 C428 1.378 . S
C421 C420 1.367 . S
C421 C429 1.433 . S
C422 H418 0.929 . S
C422 C424 1.378 1_556 S
C422 C426 1.350 1_556 S
C423 C426 1.463 1_556 S
C423 C428 1.350 . S
C423 N431 1.427 . S
C424 H415 0.930 . S
C424 C422 1.378 1_554 S
C424 C425 1.367 . S
C425 C424 1.367 . S
C425 C427 1.433 . S
C426 C422 1.350 1_554 S
C426 C423 1.463 1_554 S
C426 N430 1.427 . S
C427 H417 0.929 . S
C427 C425 1.433 . S
C427 N430 1.384 . S
C428 H419 0.929 1_556 S
C428 C420 1.378 . S
C428 C423 1.350 . S
C429 H416 0.929 . S
C429 C421 1.433 . S
C429 N431 1.384 . S
N430 C426 1.427 . S
N430 C427 1.384 . S
N431 C423 1.427 . S
N431 C429 1.384 . S
H432 C438 0.930 . S
H433 C442 0.930 . S
H434 C447 0.929 . S
H435 C445 0.929 . S
H436 C440 0.929 . S
H437 C446 0.929 . S
C438 H432 0.930 . S
C438 C439 1.367 . S
C438 C446 1.378 . S
C439 C438 1.367 . S
C439 C447 1.433 . S
C440 H436 0.929 . S
C440 C442 1.378 . S
C440 C444 1.350 1_554 S
C441 C444 1.463 . S
C441 C446 1.350 . S
C441 N449 1.427 . S
C442 H433 0.930 . S
C442 C440 1.378 . S
C442 C443 1.367 . S
C443 C442 1.367 . S
C443 C445 1.433 1_554 S
C444 C440 1.350 1_556 S
C444 C441 1.463 . S
C444 N448 1.427 . S
C445 H435 0.929 . S
C445 C443 1.433 1_556 S
C445 N448 1.384 . S
C446 H437 0.929 . S
C446 C438 1.378 . S
C446 C441 1.350 . S
C447 H434 0.929 . S
C447 C439 1.433 . S
C447 N449 1.384 . S
N448 C444 1.427 . S
N448 C445 1.384 . S
N449 C441 1.427 . S
N449 C447 1.384 . S
H450 C456 0.930 . S
H451 C460 0.930 . S
H452 C465 0.929 . S
H453 C463 0.929 1_554 S
H454 C458 0.929 . S
H455 C464 0.929 . S
C456 H450 0.930 . S
C456 C457 1.367 . S
C456 C464 1.378 . S
C457 C456 1.367 . S
C457 C465 1.433 . S
C458 H454 0.929 . S
C458 C460 1.378 . S
C458 C462 1.350 1_556 S
C459 C462 1.463 . S
C459 C464 1.350 . S
C459 N467 1.427 . S
C460 H451 0.930 . S
C460 C458 1.378 . S
C460 C461 1.367 . S
C461 C460 1.367 . S
C461 C463 1.433 . S
C462 C458 1.350 1_554 S
C462 C459 1.463 . S
C462 N466 1.427 . S
C463 H453 0.929 1_556 S
C463 C461 1.433 . S
C463 N466 1.384 1_556 S
C464 H455 0.929 . S
C464 C456 1.378 . S
C464 C459 1.350 . S
C465 H452 0.929 . S
C465 C457 1.433 . S
C465 N467 1.384 . S
N466 C462 1.427 . S
N466 C463 1.384 1_554 S
N467 C459 1.427 . S
N467 C465 1.384 . S
H468 C474 0.930 . S
H469 C478 0.930 . S
H470 C483 0.929 . S
H471 C481 0.929 . S
H472 C476 0.929 . S
H473 C482 0.929 . S
C474 H468 0.930 . S
C474 C475 1.367 . S
C474 C482 1.378 . S
C475 C474 1.367 . S
C475 C483 1.433 . S
C476 H472 0.929 . S
C476 C478 1.378 . S
C476 C480 1.350 . S
C477 C480 1.463 . S
C477 C482 1.350 . S
C477 N485 1.427 . S
C478 H469 0.930 . S
C478 C476 1.378 . S
C478 C479 1.367 . S
C479 C478 1.367 . S
C479 C481 1.433 . S
C480 C476 1.350 . S
C480 C477 1.463 . S
C480 N484 1.427 . S
C481 H471 0.929 . S
C481 C479 1.433 . S
C481 N484 1.384 . S
C482 H473 0.929 . S
C482 C474 1.378 . S
C482 C477 1.350 . S
C483 H470 0.929 . S
C483 C475 1.433 . S
C483 N485 1.384 . S
N484 C480 1.427 . S
N484 C481 1.384 . S
N485 C477 1.427 . S
N485 C483 1.384 . S
H486 C492 0.930 . S
H487 C496 0.930 . S
H488 C501 0.929 . S
H489 C499 0.929 . S
H490 C494 0.929 . S
H491 C500 0.929 . S
C492 H486 0.930 . S
C492 C493 1.367 . S
C492 C500 1.378 . S
C493 C492 1.367 . S
C493 C501 1.433 . S
C494 H490 0.929 . S
C494 C496 1.378 . S
C494 C498 1.350 . S
C495 C498 1.463 . S
C495 C500 1.350 . S
C495 N503 1.427 . S
C496 H487 0.930 . S
C496 C494 1.378 . S
C496 C497 1.367 . S
C497 C496 1.367 . S
C497 C499 1.433 . S
C498 C494 1.350 . S
C498 C495 1.463 . S
C498 N502 1.427 . S
C499 H489 0.929 . S
C499 C497 1.433 . S
C499 N502 1.384 . S
C500 H491 0.929 . S
C500 C492 1.378 . S
C500 C495 1.350 . S
C501 H488 0.929 . S
C501 C493 1.433 . S
C501 N503 1.384 . S
N502 C498 1.427 . S
N502 C499 1.384 . S
N503 C495 1.427 . S
N503 C501 1.384 . S
H504 C510 0.930 . S
H505 C514 0.930 . S
H506 C519 0.929 . S
H507 C517 0.929 . S
H508 C512 0.929 . S
H509 C518 0.929 . S
C510 H504 0.930 . S
C510 C511 1.367 . S
C510 C518 1.378 . S
C511 C510 1.367 . S
C511 C519 1.433 . S
C512 H508 0.929 . S
C512 C514 1.378 . S
C512 C516 1.350 . S
C513 C516 1.463 . S
C513 C518 1.350 . S
C513 N521 1.427 . S
C514 H505 0.930 . S
C514 C512 1.378 . S
C514 C515 1.367 . S
C515 C514 1.367 . S
C515 C517 1.433 . S
C516 C512 1.350 . S
C516 C513 1.463 . S
C516 N520 1.427 . S
C517 H507 0.929 . S
C517 C515 1.433 . S
C517 N520 1.384 . S
C518 H509 0.929 . S
C518 C510 1.378 . S
C518 C513 1.350 . S
C519 H506 0.929 . S
C519 C511 1.433 . S
C519 N521 1.384 . S
N520 C516 1.427 . S
N520 C517 1.384 . S
N521 C513 1.427 . S
N521 C519 1.384 . S
H522 C528 0.930 . S
H523 C532 0.930 . S
H524 C537 0.929 . S
H525 C535 0.929 . S
H526 C530 0.929 . S
H527 C536 0.929 . S
C528 H522 0.930 . S
C528 C529 1.367 . S
C528 C536 1.378 . S
C529 C528 1.367 . S
C529 C537 1.433 . S
C530 H526 0.929 . S
C530 C532 1.378 . S
C530 C534 1.350 . S
C531 C534 1.463 . S
C531 C536 1.350 . S
C531 N539 1.427 . S
C532 H523 0.930 . S
C532 C530 1.378 . S
C532 C533 1.367 . S
C533 C532 1.367 . S
C533 C535 1.433 . S
C534 C530 1.350 . S
C534 C531 1.463 . S
C534 N538 1.427 . S
C535 H525 0.929 . S
C535 C533 1.433 . S
C535 N538 1.384 . S
C536 H527 0.929 . S
C536 C528 1.378 . S
C536 C531 1.350 . S
C537 H524 0.929 . S
C537 C529 1.433 . S
C537 N539 1.384 . S
N538 C534 1.427 . S
N538 C535 1.384 . S
N539 C531 1.427 . S
N539 C537 1.384 . S
H540 C546 0.930 . S
H541 C550 0.930 . S
H542 C555 0.929 . S
H543 C553 0.929 . S
H544 C548 0.929 . S
H545 C554 0.929 . S
C546 H540 0.930 . S
C546 C547 1.367 . S
C546 C554 1.378 . S
C547 C546 1.367 . S
C547 C555 1.433 . S
C548 H544 0.929 . S
C548 C550 1.378 . S
C548 C552 1.350 . S
C549 C552 1.463 . S
C549 C554 1.350 . S
C549 N557 1.427 . S
C550 H541 0.930 . S
C550 C548 1.378 . S
C550 C551 1.367 . S
C551 C550 1.367 . S
C551 C553 1.433 . S
C552 C548 1.350 . S
C552 C549 1.463 . S
C552 N556 1.427 . S
C553 H543 0.929 . S
C553 C551 1.433 . S
C553 N556 1.384 . S
C554 H545 0.929 . S
C554 C546 1.378 . S
C554 C549 1.350 . S
C555 H542 0.929 . S
C555 C547 1.433 . S
C555 N557 1.384 . S
N556 C552 1.427 . S
N556 C553 1.384 . S
N557 C549 1.427 . S
N557 C555 1.384 . S
H558 C564 0.930 . S
H559 C568 0.930 . S
H560 C573 0.929 . S
H561 C571 0.929 . S
H562 C566 0.929 . S
H563 C572 0.929 . S
C564 H558 0.930 . S
C564 C565 1.367 . S
C564 C572 1.378 . S
C565 C564 1.367 . S
C565 C573 1.433 . S
C566 H562 0.929 . S
C566 C568 1.378 . S
C566 C570 1.350 . S
C567 C570 1.463 . S
C567 C572 1.350 . S
C567 N575 1.427 . S
C568 H559 0.930 . S
C568 C566 1.378 . S
C568 C569 1.367 . S
C569 C568 1.367 . S
C569 C571 1.433 . S
C570 C566 1.350 . S
C570 C567 1.463 . S
C570 N574 1.427 . S
C571 H561 0.929 . S
C571 C569 1.433 . S
C571 N574 1.384 . S
C572 H563 0.929 . S
C572 C564 1.378 . S
C572 C567 1.350 . S
C573 H560 0.929 . S
C573 C565 1.433 . S
C573 N575 1.384 . S
N574 C570 1.427 . S
N574 C571 1.384 . S
N575 C567 1.427 . S
N575 C573 1.384 . S
H576 C582 0.930 . S
H577 C586 0.930 . S
H578 C591 0.929 . S
H579 C589 0.929 . S
H580 C584 0.929 . S
H581 C590 0.929 . S
C582 H576 0.930 . S
C582 C583 1.367 . S
C582 C590 1.378 . S
C583 C582 1.367 . S
C583 C591 1.433 . S
C584 H580 0.929 . S
C584 C586 1.378 . S
C584 C588 1.350 . S
C585 C588 1.463 . S
C585 C590 1.350 . S
C585 N593 1.427 . S
C586 H577 0.930 . S
C586 C584 1.378 . S
C586 C587 1.367 . S
C587 C586 1.367 . S
C587 C589 1.433 . S
C588 C584 1.350 . S
C588 C585 1.463 . S
C588 N592 1.427 . S
C589 H579 0.929 . S
C589 C587 1.433 . S
C589 N592 1.384 . S
C590 H581 0.929 . S
C590 C582 1.378 . S
C590 C585 1.350 . S
C591 H578 0.929 . S
C591 C583 1.433 . S
C591 N593 1.384 . S
N592 C588 1.427 . S
N592 C589 1.384 . S
N593 C585 1.427 . S
N593 C591 1.384 . S
H594 C600 0.930 . S
H595 C604 0.930 . S
H596 C609 0.929 1_554 S
H597 C607 0.929 . S
H598 C602 0.929 . S
H599 C608 0.929 . S
C600 H594 0.930 . S
C600 C601 1.367 . S
C600 C608 1.378 . S
C601 C600 1.367 . S
C601 C609 1.433 . S
C602 H598 0.929 . S
C602 C604 1.378 . S
C602 C606 1.350 . S
C603 C606 1.463 . S
C603 C608 1.350 . S
C603 N611 1.427 . S
C604 H595 0.930 . S
C604 C602 1.378 . S
C604 C605 1.367 . S
C605 C604 1.367 . S
C605 C607 1.433 . S
C606 C602 1.350 . S
C606 C603 1.463 . S
C606 N610 1.427 . S
C607 H597 0.929 . S
C607 C605 1.433 . S
C607 N610 1.384 . S
C608 H599 0.929 . S
C608 C600 1.378 . S
C608 C603 1.350 . S
C609 H596 0.929 1_556 S
C609 C601 1.433 . S
C609 N611 1.384 . S
N610 C606 1.427 . S
N610 C607 1.384 . S
N611 C603 1.427 . S
N611 C609 1.384 . S
H612 C618 0.930 1_554 S
H613 C622 0.930 . S
H614 C627 0.929 . S
H615 C625 0.929 . S
H616 C620 0.929 . S
H617 C626 0.929 . S
C618 H612 0.930 1_556 S
C618 C619 1.367 . S
C618 C626 1.378 . S
C619 C618 1.367 . S
C619 C627 1.433 . S
C620 H616 0.929 . S
C620 C622 1.378 . S
C620 C624 1.350 . S
C621 C624 1.463 . S
C621 C626 1.350 . S
C621 N629 1.427 . S
C622 H613 0.930 . S
C622 C620 1.378 . S
C622 C623 1.367 . S
C623 C622 1.367 . S
C623 C625 1.433 . S
C624 C620 1.350 . S
C624 C621 1.463 . S
C624 N628 1.427 . S
C625 H615 0.929 . S
C625 C623 1.433 . S
C625 N628 1.384 . S
C626 H617 0.929 . S
C626 C618 1.378 . S
C626 C621 1.350 . S
C627 H614 0.929 . S
C627 C619 1.433 . S
C627 N629 1.384 . S
N628 C624 1.427 . S
N628 C625 1.384 . S
N629 C621 1.427 . S
N629 C627 1.384 . S
H630 C636 0.930 . S
H631 C640 0.930 . S
H632 C645 0.929 . S
H633 C643 0.929 . S
H634 C638 0.929 . S
H635 C644 0.929 . S
C636 H630 0.930 . S
C636 C637 1.367 . S
C636 C644 1.378 . S
C637 C636 1.367 . S
C637 C645 1.433 . S
C638 H634 0.929 . S
C638 C640 1.378 . S
C638 C642 1.350 . S
C639 C642 1.463 . S
C639 C644 1.350 . S
C639 N647 1.427 . S
C640 H631 0.930 . S
C640 C638 1.378 . S
C640 C641 1.367 . S
C641 C640 1.367 . S
C641 C643 1.433 . S
C642 C638 1.350 . S
C642 C639 1.463 . S
C642 N646 1.427 . S
C643 H633 0.929 . S
C643 C641 1.433 . S
C643 N646 1.384 . S
C644 H635 0.929 . S
C644 C636 1.378 . S
C644 C639 1.350 . S
C645 H632 0.929 . S
C645 C637 1.433 . S
C645 N647 1.384 . S
N646 C642 1.427 . S
N646 C643 1.384 . S
N647 C639 1.427 . S
N647 C645 1.384 . S
H648 C654 0.930 . S
H649 C658 0.930 . S
H650 C663 0.929 . S
H651 C661 0.929 . S
H652 C656 0.929 . S
H653 C662 0.929 . S
C654 H648 0.930 . S
C654 C655 1.367 . S
C654 C662 1.378 . S
C655 C654 1.367 . S
C655 C663 1.433 . S
C656 H652 0.929 . S
C656 C658 1.378 . S
C656 C660 1.350 . S
C657 C660 1.463 . S
C657 C662 1.350 . S
C657 N665 1.427 . S
C658 H649 0.930 . S
C658 C656 1.378 . S
C658 C659 1.367 . S
C659 C658 1.367 . S
C659 C661 1.433 . S
C660 C656 1.350 . S
C660 C657 1.463 . S
C660 N664 1.427 . S
C661 H651 0.929 . S
C661 C659 1.433 . S
C661 N664 1.384 . S
C662 H653 0.929 . S
C662 C654 1.378 . S
C662 C657 1.350 . S
C663 H650 0.929 . S
C663 C655 1.433 . S
C663 N665 1.384 . S
N664 C660 1.427 . S
N664 C661 1.384 . S
N665 C657 1.427 . S
N665 C663 1.384 . S
H666 C672 0.930 . S
H667 C676 0.930 . S
H668 C681 0.929 . S
H669 C679 0.929 . S
H670 C674 0.929 . S
H671 C680 0.929 . S
C672 H666 0.930 . S
C672 C673 1.367 . S
C672 C680 1.378 . S
C673 C672 1.367 . S
C673 C681 1.433 . S
C674 H670 0.929 . S
C674 C676 1.378 . S
C674 C678 1.350 . S
C675 C678 1.463 . S
C675 C680 1.350 . S
C675 N683 1.427 . S
C676 H667 0.930 . S
C676 C674 1.378 . S
C676 C677 1.367 . S
C677 C676 1.367 . S
C677 C679 1.433 . S
C678 C674 1.350 . S
C678 C675 1.463 . S
C678 N682 1.427 . S
C679 H669 0.929 . S
C679 C677 1.433 . S
C679 N682 1.384 . S
C680 H671 0.929 . S
C680 C672 1.378 . S
C680 C675 1.350 . S
C681 H668 0.929 . S
C681 C673 1.433 . S
C681 N683 1.384 . S
N682 C678 1.427 . S
N682 C679 1.384 . S
N683 C675 1.427 . S
N683 C681 1.384 . S
H684 C690 0.930 . S
H685 C694 0.930 . S
H686 C699 0.929 . S
H687 C697 0.929 . S
H688 C692 0.929 . S
H689 C698 0.929 . S
C690 H684 0.930 . S
C690 C691 1.367 . S
C690 C698 1.378 . S
C691 C690 1.367 . S
C691 C699 1.433 . S
C692 H688 0.929 . S
C692 C694 1.378 1_554 S
C692 C696 1.350 . S
C693 C696 1.463 . S
C693 C698 1.350 . S
C693 N701 1.427 . S
C694 H685 0.930 . S
C694 C692 1.378 1_556 S
C694 C695 1.367 . S
C695 C694 1.367 . S
C695 C697 1.433 1_556 S
C696 C692 1.350 . S
C696 C693 1.463 . S
C696 N700 1.427 . S
C697 H687 0.929 . S
C697 C695 1.433 1_554 S
C697 N700 1.384 . S
C698 H689 0.929 . S
C698 C690 1.378 . S
C698 C693 1.350 . S
C699 H686 0.929 . S
C699 C691 1.433 . S
C699 N701 1.384 . S
N700 C696 1.427 . S
N700 C697 1.384 . S
N701 C693 1.427 . S
N701 C699 1.384 . S
H702 C708 0.930 . S
H703 C712 0.930 . S
H704 C717 0.929 . S
H705 C715 0.929 . S
H706 C710 0.929 . S
H707 C716 0.929 . S
C708 H702 0.930 . S
C708 C709 1.367 . S
C708 C716 1.378 . S
C709 C708 1.367 . S
C709 C717 1.433 . S
C710 H706 0.929 . S
C710 C712 1.378 . S
C710 C714 1.350 . S
C711 C714 1.463 . S
C711 C716 1.350 . S
C711 N719 1.427 . S
C712 H703 0.930 . S
C712 C710 1.378 . S
C712 C713 1.367 . S
C713 C712 1.367 . S
C713 C715 1.433 . S
C714 C710 1.350 . S
C714 C711 1.463 . S
C714 N718 1.427 . S
C715 H705 0.929 . S
C715 C713 1.433 . S
C715 N718 1.384 . S
C716 H707 0.929 . S
C716 C708 1.378 . S
C716 C711 1.350 . S
C717 H704 0.929 . S
C717 C709 1.433 . S
C717 N719 1.384 . S
N718 C714 1.427 . S
N718 C715 1.384 . S
N719 C711 1.427 . S
N719 C717 1.384 . S
H720 C726 0.930 . S
H721 C730 0.930 . S
H722 C735 0.929 . S
H723 C733 0.929 . S
H724 C728 0.929 . S
H725 C734 0.929 . S
C726 H720 0.930 . S
C726 C727 1.367 . S
C726 C734 1.378 . S
C727 C726 1.367 . S
C727 C735 1.433 . S
C728 H724 0.929 . S
C728 C730 1.378 . S
C728 C732 1.350 . S
C729 C732 1.463 . S
C729 C734 1.350 . S
C729 N737 1.427 . S
C730 H721 0.930 . S
C730 C728 1.378 . S
C730 C731 1.367 . S
C731 C730 1.367 . S
C731 C733 1.433 . S
C732 C728 1.350 . S
C732 C729 1.463 . S
C732 N736 1.427 . S
C733 H723 0.929 . S
C733 C731 1.433 . S
C733 N736 1.384 . S
C734 H725 0.929 . S
C734 C726 1.378 . S
C734 C729 1.350 . S
C735 H722 0.929 . S
C735 C727 1.433 . S
C735 N737 1.384 . S
N736 C732 1.427 . S
N736 C733 1.384 . S
N737 C729 1.427 . S
N737 C735 1.384 . S
H738 C744 0.930 . S
H739 C748 0.930 . S
H740 C753 0.929 . S
H741 C751 0.929 . S
H742 C746 0.929 . S
H743 C752 0.929 . S
C744 H738 0.930 . S
C744 C745 1.367 . S
C744 C752 1.378 . S
C745 C744 1.367 . S
C745 C753 1.433 . S
C746 H742 0.929 . S
C746 C748 1.378 . S
C746 C750 1.350 . S
C747 C750 1.463 . S
C747 C752 1.350 . S
C747 N755 1.427 . S
C748 H739 0.930 . S
C748 C746 1.378 . S
C748 C749 1.367 . S
C749 C748 1.367 . S
C749 C751 1.433 . S
C750 C746 1.350 . S
C750 C747 1.463 . S
C750 N754 1.427 . S
C751 H741 0.929 . S
C751 C749 1.433 . S
C751 N754 1.384 . S
C752 H743 0.929 . S
C752 C744 1.378 . S
C752 C747 1.350 . S
C753 H740 0.929 . S
C753 C745 1.433 . S
C753 N755 1.384 . S
N754 C750 1.427 . S
N754 C751 1.384 . S
N755 C747 1.427 . S
N755 C753 1.384 . S
H756 C762 0.930 . S
H757 C766 0.930 . S
H758 C771 0.929 . S
H759 C769 0.929 . S
H760 C764 0.929 . S
H761 C770 0.929 . S
C762 H756 0.930 . S
C762 C763 1.367 . S
C762 C770 1.378 . S
C763 C762 1.367 . S
C763 C771 1.433 . S
C764 H760 0.929 . S
C764 C766 1.378 . S
C764 C768 1.350 . S
C765 C768 1.463 . S
C765 C770 1.350 . S
C765 N773 1.427 . S
C766 H757 0.930 . S
C766 C764 1.378 . S
C766 C767 1.367 . S
C767 C766 1.367 . S
C767 C769 1.433 . S
C768 C764 1.350 . S
C768 C765 1.463 . S
C768 N772 1.427 . S
C769 H759 0.929 . S
C769 C767 1.433 . S
C769 N772 1.384 . S
C770 H761 0.929 . S
C770 C762 1.378 . S
C770 C765 1.350 . S
C771 H758 0.929 . S
C771 C763 1.433 . S
C771 N773 1.384 . S
N772 C768 1.427 . S
N772 C769 1.384 . S
N773 C765 1.427 . S
N773 C771 1.384 . S
H774 C780 0.930 . S
H775 C784 0.930 . S
H776 C789 0.929 . S
H777 C787 0.929 . S
H778 C782 0.929 . S
H779 C788 0.929 . S
C780 H774 0.930 . S
C780 C781 1.367 . S
C780 C788 1.378 . S
C781 C780 1.367 . S
C781 C789 1.433 . S
C782 H778 0.929 . S
C782 C784 1.378 . S
C782 C786 1.350 1_545 S
C783 C786 1.463 . S
C783 C788 1.350 . S
C783 N791 1.427 . S
C784 H775 0.930 . S
C784 C782 1.378 . S
C784 C785 1.367 . S
C785 C784 1.367 . S
C785 C787 1.433 1_545 S
C786 C782 1.350 1_565 S
C786 C783 1.463 . S
C786 N790 1.427 . S
C787 H777 0.929 . S
C787 C785 1.433 1_565 S
C787 N790 1.384 . S
C788 H779 0.929 . S
C788 C780 1.378 . S
C788 C783 1.350 . S
C789 H776 0.929 . S
C789 C781 1.433 . S
C789 N791 1.384 . S
N790 C786 1.427 . S
N790 C787 1.384 . S
N791 C783 1.427 . S
N791 C789 1.384 . S
H792 C798 0.930 . S
H793 C802 0.930 . S
H794 C807 0.929 . S
H795 C805 0.929 . S
H796 C800 0.929 . S
H797 C806 0.929 . S
C798 H792 0.930 . S
C798 C799 1.367 . S
C798 C806 1.378 . S
C799 C798 1.367 . S
C799 C807 1.433 . S
C800 H796 0.929 . S
C800 C802 1.378 . S
C800 C804 1.350 . S
C801 C804 1.463 . S
C801 C806 1.350 . S
C801 N809 1.427 . S
C802 H793 0.930 . S
C802 C800 1.378 . S
C802 C803 1.367 . S
C803 C802 1.367 . S
C803 C805 1.433 . S
C804 C800 1.350 . S
C804 C801 1.463 . S
C804 N808 1.427 . S
C805 H795 0.929 . S
C805 C803 1.433 . S
C805 N808 1.384 . S
C806 H797 0.929 . S
C806 C798 1.378 . S
C806 C801 1.350 . S
C807 H794 0.929 . S
C807 C799 1.433 . S
C807 N809 1.384 . S
N808 C804 1.427 . S
N808 C805 1.384 . S
N809 C801 1.427 . S
N809 C807 1.384 . S
H810 C816 0.930 . S
H811 C820 0.930 . S
H812 C825 0.929 1_455 S
H813 C823 0.929 . S
H814 C818 0.929 . S
H815 C824 0.929 . S
C816 H810 0.930 . S
C816 C817 1.367 1_554 S
C816 C824 1.378 . S
C817 C816 1.367 1_556 S
C817 C825 1.433 . S
C818 H814 0.929 . S
C818 C820 1.378 . S
C818 C822 1.350 1_455 S
C819 C822 1.463 . S
C819 C824 1.350 . S
C819 N827 1.427 1_654 S
C820 H811 0.930 . S
C820 C818 1.378 . S
C820 C821 1.367 . S
C821 C820 1.367 . S
C821 C823 1.433 1_455 S
C822 C818 1.350 1_655 S
C822 C819 1.463 . S
C822 N826 1.427 . S
C823 H813 0.929 . S
C823 C821 1.433 1_655 S
C823 N826 1.384 . S
C824 H815 0.929 . S
C824 C816 1.378 . S
C824 C819 1.350 . S
C825 H812 0.929 1_655 S
C825 C817 1.433 . S
C825 N827 1.384 1_655 S
N826 C822 1.427 . S
N826 C823 1.384 . S
N827 C819 1.427 1_456 S
N827 C825 1.384 1_455 S
H828 C834 0.930 . S
H829 C838 0.930 . S
H830 C843 0.929 . S
H831 C841 0.929 . S
H832 C836 0.929 . S
H833 C842 0.929 . S
C834 H828 0.930 . S
C834 C835 1.367 . S
C834 C842 1.378 1_556 S
C835 C834 1.367 . S
C835 C843 1.433 . S
C836 H832 0.929 . S
C836 C838 1.378 . S
C836 C840 1.350 . S
C837 C840 1.463 . S
C837 C842 1.350 . S
C837 N845 1.427 . S
C838 H829 0.930 . S
C838 C836 1.378 . S
C838 C839 1.367 . S
C839 C838 1.367 . S
C839 C841 1.433 . S
C840 C836 1.350 . S
C840 C837 1.463 . S
C840 N844 1.427 . S
C841 H831 0.929 . S
C841 C839 1.433 . S
C841 N844 1.384 . S
C842 H833 0.929 . S
C842 C834 1.378 1_554 S
C842 C837 1.350 . S
C843 H830 0.929 . S
C843 C835 1.433 . S
C843 N845 1.384 1_556 S
N844 C840 1.427 . S
N844 C841 1.384 . S
N845 C837 1.427 . S
N845 C843 1.384 1_554 S
H846 C852 0.930 . S
H847 C856 0.930 . S
H848 C861 0.929 . S
H849 C859 0.929 . S
H850 C854 0.929 . S
H851 C860 0.929 . S
C852 H846 0.930 . S
C852 C853 1.367 . S
C852 C860 1.378 . S
C853 C852 1.367 . S
C853 C861 1.433 . S
C854 H850 0.929 . S
C854 C856 1.378 1_655 S
C854 C858 1.350 . S
C855 C858 1.463 . S
C855 C860 1.350 . S
C855 N863 1.427 . S
C856 H847 0.930 . S
C856 C854 1.378 1_455 S
C856 C857 1.367 . S
C857 C856 1.367 . S
C857 C859 1.433 . S
C858 C854 1.350 . S
C858 C855 1.463 . S
C858 N862 1.427 . S
C859 H849 0.929 . S
C859 C857 1.433 . S
C859 N862 1.384 1_455 S
C860 H851 0.929 . S
C860 C852 1.378 . S
C860 C855 1.350 . S
C861 H848 0.929 . S
C861 C853 1.433 . S
C861 N863 1.384 . S
N862 C858 1.427 . S
N862 C859 1.384 1_655 S
N863 C855 1.427 . S
N863 C861 1.384 . S
H864 C870 0.930 . S
H865 C874 0.930 . S
H866 C879 0.929 . S
H867 C877 0.929 . S
H868 C872 0.929 . S
H869 C878 0.929 . S
C870 H864 0.930 . S
C870 C871 1.367 . S
C870 C878 1.378 . S
C871 C870 1.367 . S
C871 C879 1.433 . S
C872 H868 0.929 . S
C872 C874 1.378 . S
C872 C876 1.350 . S
C873 C876 1.463 . S
C873 C878 1.350 . S
C873 N881 1.427 . S
C874 H865 0.930 . S
C874 C872 1.378 . S
C874 C875 1.367 . S
C875 C874 1.367 . S
C875 C877 1.433 . S
C876 C872 1.350 . S
C876 C873 1.463 . S
C876 N880 1.427 . S
C877 H867 0.929 . S
C877 C875 1.433 . S
C877 N880 1.384 . S
C878 H869 0.929 . S
C878 C870 1.378 . S
C878 C873 1.350 . S
C879 H866 0.929 . S
C879 C871 1.433 . S
C879 N881 1.384 . S
N880 C876 1.427 . S
N880 C877 1.384 . S
N881 C873 1.427 . S
N881 C879 1.384 . S
H882 C888 0.930 . S
H883 C892 0.930 . S
H884 C897 0.929 . S
H885 C895 0.929 . S
H886 C890 0.929 . S
H887 C896 0.929 . S
C888 H882 0.930 . S
C888 C889 1.367 . S
C888 C896 1.378 . S
C889 C888 1.367 . S
C889 C897 1.433 . S
C890 H886 0.929 . S
C890 C892 1.378 . S
C890 C894 1.350 . S
C891 C894 1.463 . S
C891 C896 1.350 . S
C891 N899 1.427 . S
C892 H883 0.930 . S
C892 C890 1.378 . S
C892 C893 1.367 . S
C893 C892 1.367 . S
C893 C895 1.433 . S
C894 C890 1.350 . S
C894 C891 1.463 . S
C894 N898 1.427 . S
C895 H885 0.929 . S
C895 C893 1.433 . S
C895 N898 1.384 . S
C896 H887 0.929 . S
C896 C888 1.378 . S
C896 C891 1.350 . S
C897 H884 0.929 . S
C897 C889 1.433 . S
C897 N899 1.384 . S
N898 C894 1.427 . S
N898 C895 1.384 . S
N899 C891 1.427 . S
N899 C897 1.384 . S
H900 C906 0.930 . S
H901 C910 0.952 . S
H902 C915 0.929 . S
H903 C913 0.929 . S
H904 C908 0.929 . S
H905 C914 0.929 1_544 S
C906 H900 0.930 . S
C906 C907 1.367 1_554 S
C906 C914 1.378 1_554 S
C907 C906 1.367 1_556 S
C907 C915 1.433 . S
C908 H904 0.929 . S
C908 C910 1.374 . S
C908 C912 1.350 . S
C909 C912 1.463 . S
C909 C914 1.350 . S
C909 N917 1.427 . S
C910 H901 0.952 . S
C910 C908 1.374 . S
C910 C911 1.353 1_565 S
C911 C910 1.353 1_545 S
C911 C913 1.433 . S
C912 C908 1.350 . S
C912 C909 1.463 . S
C912 N916 1.427 1_565 S
C913 H903 0.929 . S
C913 C911 1.433 . S
C913 N916 1.384 . S
C914 H905 0.929 1_566 S
C914 C906 1.378 1_556 S
C914 C909 1.350 . S
C915 H902 0.929 . S
C915 C907 1.433 . S
C915 N917 1.384 . S
N916 C912 1.427 1_545 S
N916 C913 1.384 . S
N917 C909 1.427 . S
N917 C915 1.384 . S
H918 C924 0.930 . S
H919 C928 0.930 . S
H920 C933 0.929 . S
H921 C931 0.929 1_554 S
H922 C926 0.929 . S
H923 C932 0.929 . S
C924 H918 0.930 . S
C924 C925 1.367 . S
C924 C932 1.378 . S
C925 C924 1.367 . S
C925 C933 1.433 . S
C926 H922 0.929 . S
C926 C928 1.378 . S
C926 C930 1.350 . S
C927 C930 1.463 . S
C927 C932 1.350 . S
C927 N935 1.427 . S
C928 H919 0.930 . S
C928 C926 1.378 . S
C928 C929 1.367 . S
C929 C928 1.367 . S
C929 C931 1.433 . S
C930 C926 1.350 . S
C930 C927 1.463 . S
C930 N934 1.427 . S
C931 H921 0.929 1_556 S
C931 C929 1.433 . S
C931 N934 1.384 . S
C932 H923 0.929 . S
C932 C924 1.378 . S
C932 C927 1.350 . S
C933 H920 0.929 . S
C933 C925 1.433 . S
C933 N935 1.384 . S
N934 C930 1.427 . S
N934 C931 1.384 . S
N935 C927 1.427 . S
N935 C933 1.384 . S
H936 C942 0.930 . S
H937 C946 0.930 . S
H938 C951 0.929 . S
H939 C949 0.929 . S
H940 C944 0.929 . S
H941 C950 0.929 . S
C942 H936 0.930 . S
C942 C943 1.367 . S
C942 C950 1.378 . S
C943 C942 1.367 . S
C943 C951 1.433 . S
C944 H940 0.929 . S
C944 C946 1.378 . S
C944 C948 1.350 . S
C945 C948 1.463 . S
C945 C950 1.350 . S
C945 N953 1.427 . S
C946 H937 0.930 . S
C946 C944 1.378 . S
C946 C947 1.367 . S
C947 C946 1.367 . S
C947 C949 1.433 . S
C948 C944 1.350 . S
C948 C945 1.463 . S
C948 N952 1.427 . S
C949 H939 0.929 . S
C949 C947 1.433 . S
C949 N952 1.384 . S
C950 H941 0.929 . S
C950 C942 1.378 . S
C950 C945 1.350 . S
C951 H938 0.929 . S
C951 C943 1.433 . S
C951 N953 1.384 . S
N952 C948 1.427 . S
N952 C949 1.384 . S
N953 C945 1.427 . S
N953 C951 1.384 . S
H954 C960 0.930 . S
H955 C964 0.930 . S
H956 C969 0.929 . S
H957 C967 0.929 . S
H958 C962 0.929 . S
H959 C968 0.929 . S
C960 H954 0.930 . S
C960 C961 1.367 . S
C960 C968 1.378 1_565 S
C961 C960 1.367 . S
C961 C969 1.433 . S
C962 H958 0.929 . S
C962 C964 1.378 . S
C962 C966 1.350 . S
C963 C966 1.463 . S
C963 C968 1.350 . S
C963 N971 1.427 . S
C964 H955 0.930 . S
C964 C962 1.378 . S
C964 C965 1.367 . S
C965 C964 1.367 . S
C965 C967 1.433 . S
C966 C962 1.350 . S
C966 C963 1.463 . S
C966 N970 1.427 . S
C967 H957 0.929 . S
C967 C965 1.433 . S
C967 N970 1.384 . S
C968 H959 0.929 . S
C968 C960 1.378 1_545 S
C968 C963 1.350 . S
C969 H956 0.929 . S
C969 C961 1.433 . S
C969 N971 1.384 1_565 S
N970 C966 1.427 . S
N970 C967 1.384 . S
N971 C963 1.427 . S
N971 C969 1.384 1_545 S
H972 C978 0.930 . S
H973 C982 0.930 1_655 S
H974 C987 0.929 . S
H975 C985 0.929 1_655 S
H976 C980 0.929 . S
H977 C986 0.929 . S
C978 H972 0.930 . S
C978 C979 1.367 . S
C978 C986 1.378 . S
C979 C978 1.367 . S
C979 C987 1.433 . S
C980 H976 0.929 . S
C980 C982 1.378 . S
C980 C984 1.350 . S
C981 C984 1.463 . S
C981 C986 1.350 . S
C981 N989 1.427 . S
C982 H973 0.930 1_455 S
C982 C980 1.378 . S
C982 C983 1.367 1_455 S
C983 C982 1.367 1_655 S
C983 C985 1.433 1_655 S
C984 C980 1.350 . S
C984 C981 1.463 . S
C984 N988 1.427 . S
C985 H975 0.929 1_455 S
C985 C983 1.433 1_455 S
C985 N988 1.384 . S
C986 H977 0.929 . S
C986 C978 1.378 . S
C986 C981 1.350 . S
C987 H974 0.929 . S
C987 C979 1.433 . S
C987 N989 1.384 . S
N988 C984 1.427 . S
N988 C985 1.384 . S
N989 C981 1.427 . S
N989 C987 1.384 . S
H990 C996 0.930 . S
H991 C1000 0.930 . S
H992 C1005 0.929 . S
H993 C1003 0.929 . S
H994 C998 0.929 . S
H995 C1004 0.929 . S
C996 H990 0.930 . S
C996 C997 1.367 . S
C996 C1004 1.378 . S
C997 C996 1.367 . S
C997 C1005 1.433 . S
C998 H994 0.929 . S
C998 C1000 1.378 . S
C998 C1002 1.350 . S
C999 C1002 1.463 . S
C999 C1004 1.350 . S
C999 N1007 1.427 . S
C1000 H991 0.930 . S
C1000 C998 1.378 . S
C1000 C1001 1.367 . S
C1001 C1000 1.367 . S
C1001 C1003 1.433 . S
C1002 C998 1.350 . S
C1002 C999 1.463 . S
C1002 N1006 1.427 . S
C1003 H993 0.929 . S
C1003 C1001 1.433 . S
C1003 N1006 1.384 . S
C1004 H995 0.929 . S
C1004 C996 1.378 . S
C1004 C999 1.350 . S
C1005 H992 0.929 . S
C1005 C997 1.433 . S
C1005 N1007 1.384 . S
N1006 C1002 1.427 . S
N1006 C1003 1.384 . S
N1007 C999 1.427 . S
N1007 C1005 1.384 . S
H1008 C1014 0.930 1_655 S
H1009 C1018 0.930 . S
H1010 C1023 0.929 . S
H1011 C1021 0.929 . S
H1012 C1016 0.929 . S
H1013 C1022 0.929 . S
C1014 H1008 0.930 1_455 S
C1014 C1015 1.350 1_455 S
C1014 C1022 1.378 . S
C1015 C1014 1.350 1_655 S
C1015 C1023 1.413 1_655 S
C1016 H1012 0.929 . S
C1016 C1018 1.378 . S
C1016 C1020 1.350 . S
C1017 C1020 1.463 . S
C1017 C1022 1.350 . S
C1017 N1025 1.427 . S
C1018 H1009 0.930 . S
C1018 C1016 1.378 . S
C1018 C1019 1.367 . S
C1019 C1018 1.367 . S
C1019 C1021 1.433 . S
C1020 C1016 1.350 . S
C1020 C1017 1.463 . S
C1020 N1024 1.427 . S
C1021 H1011 0.929 . S
C1021 C1019 1.433 . S
C1021 N1024 1.384 . S
C1022 H1013 0.929 . S
C1022 C1014 1.378 . S
C1022 C1017 1.350 . S
C1023 H1010 0.929 . S
C1023 C1015 1.413 1_455 S
C1023 N1025 1.384 . S
N1024 C1020 1.427 . S
N1024 C1021 1.384 . S
N1025 C1017 1.427 . S
N1025 C1023 1.384 . S
H1026 C1032 0.930 . S
H1027 C1036 0.930 . S
H1028 C1041 0.929 . S
H1029 C1039 0.929 . S
H1030 C1034 0.929 . S
H1031 C1040 0.929 . S
C1032 H1026 0.930 . S
C1032 C1033 1.367 . S
C1032 C1040 1.378 . S
C1033 C1032 1.367 . S
C1033 C1041 1.433 . S
C1034 H1030 0.929 . S
C1034 C1036 1.378 . S
C1034 C1038 1.350 . S
C1035 C1038 1.463 . S
C1035 C1040 1.350 . S
C1035 N1043 1.427 . S
C1036 H1027 0.930 . S
C1036 C1034 1.378 . S
C1036 C1037 1.367 . S
C1037 C1036 1.367 . S
C1037 C1039 1.433 . S
C1038 C1034 1.350 . S
C1038 C1035 1.463 . S
C1038 N1042 1.427 . S
C1039 H1029 0.929 . S
C1039 C1037 1.433 . S
C1039 N1042 1.384 . S
C1040 H1031 0.929 . S
C1040 C1032 1.378 . S
C1040 C1035 1.350 . S
C1041 H1028 0.929 . S
C1041 C1033 1.433 . S
C1041 N1043 1.384 . S
N1042 C1038 1.427 . S
N1042 C1039 1.384 . S
N1043 C1035 1.427 . S
N1043 C1041 1.384 . S
H1044 C1050 0.930 . S
H1045 C1054 0.930 . S
H1046 C1059 0.929 . S
H1047 C1057 0.929 . S
H1048 C1052 0.929 . S
H1049 C1058 0.929 . S
C1050 H1044 0.930 . S
C1050 C1051 1.367 . S
C1050 C1058 1.378 1_565 S
C1051 C1050 1.367 . S
C1051 C1059 1.433 . S
C1052 H1048 0.929 . S
C1052 C1054 1.378 . S
C1052 C1056 1.350 . S
C1053 C1056 1.463 . S
C1053 C1058 1.350 . S
C1053 N1061 1.427 . S
C1054 H1045 0.930 . S
C1054 C1052 1.378 . S
C1054 C1055 1.367 . S
C1055 C1054 1.367 . S
C1055 C1057 1.433 . S
C1056 C1052 1.350 . S
C1056 C1053 1.463 . S
C1056 N1060 1.427 . S
C1057 H1047 0.929 . S
C1057 C1055 1.433 . S
C1057 N1060 1.384 . S
C1058 H1049 0.929 . S
C1058 C1050 1.378 1_545 S
C1058 C1053 1.350 . S
C1059 H1046 0.929 . S
C1059 C1051 1.433 . S
C1059 N1061 1.384 1_565 S
N1060 C1056 1.427 . S
N1060 C1057 1.384 . S
N1061 C1053 1.427 . S
N1061 C1059 1.384 1_545 S
C421 C85 1.611 . S
C425 C16 1.613 . S
C439 N94 1.619 . S
C443 N25 1.617 . S
C457 N48 1.597 . S
C461 N117 1.602 . S
C475 C62 1.739 . S
C479 C131 1.737 . S
C493 N2 1.696 . S
C497 N71 1.689 . S
C511 C108 1.749 . S
C515 C39 1.751 . S
C529 N209 1.811 . S
C533 C154 1.874 . S
C547 C177 1.845 . S
C551 N232 1.782 . S
C565 C200 1.795 . S
C569 N255 1.738 . S
C583 C269 1.596 1_556 S
C587 N186 1.541 . S
C601 C223 1.581 . S
C605 N140 1.529 . S
C619 C246 1.652 1_556 S
C623 N163 1.595 . S
C637 C292 1.639 . S
C641 C361 1.646 . S
C655 N301 1.638 . S
C659 N370 1.641 . S
C673 N324 1.627 . S
C677 N393 1.625 . S
C691 C407 1.779 . S
C695 C338 1.782 . S
C709 N347 1.734 . S
C713 N278 1.731 . S
C727 C384 1.771 . S
C731 C315 1.775 . S
C745 C7 1.564 . S
C749 N173 1.544 . S
C763 N35 1.547 . S
C767 N196 1.540 . S
C781 N150 1.532 . S
C785 N58 1.542 . S
C799 C53 1.656 . S
C803 N311 1.629 . S
C817 N334 1.611 . S
C821 N12 1.634 . S
C835 C283 1.597 . S
C839 C30 1.615 . S
C853 C375 1.603 . S
C857 C76 1.609 . S
C871 N104 1.621 . S
C875 C398 1.632 . S
C889 N357 1.612 . S
C893 N127 1.625 . S
C907 N242 1.630 . S
C911 C122 1.649 . S
C925 N81 1.615 . S
C929 N265 1.609 . S
C943 C99 1.667 . S
C947 N219 1.636 . S
C961 C145 1.706 . S
C965 C306 1.710 . S
C979 C168 1.689 . S
C983 C329 1.700 . S
C997 C191 1.707 . S
C1001 N288 1.689 . S
C1015 N380 1.640 . S
C1019 C260 1.625 . S
C1033 N403 1.607 . S
C1037 C214 1.618 . S
C1051 C237 1.589 . S
C1055 C352 1.600 . S
