# Generated by pormake.
# Topology smk, (6)-cn, num edge types: 1
# Building blocks:
#     Node 0, Type 0, BuildingBlock: VOLQOD_clean_sbu_1, # of connection points: 6
#     Node 1, Type 0, BuildingBlock: VOLQOD_clean_sbu_1, # of connection points: 6
#     Node 2, Type 0, BuildingBlock: VOLQOD_clean_sbu_1, # of connection points: 6
#     Node 3, Type 0, BuildingBlock: VOLQOD_clean_sbu_1, # of connection points: 6
#     Node 4, Type 0, BuildingBlock: VOLQOD_clean_sbu_1, # of connection points: 6
#     Node 5, Type 0, BuildingBlock: VOLQOD_clean_sbu_1, # of connection points: 6
#     Edge 6, Type (0, 0), BuildingBlock: OJICUG_clean_linker_0, # of connection points: 2
#     Edge 7, Type (0, 0), BuildingBlock: OJICUG_clean_linker_0, # of connection points: 2
#     Edge 8, Type (0, 0), BuildingBlock: OJICUG_clean_linker_0, # of connection points: 2
#     Edge 9, Type (0, 0), BuildingBlock: OJICUG_clean_linker_0, # of connection points: 2
#     Edge 10, Type (0, 0), BuildingBlock: OJICUG_clean_linker_0, # of connection points: 2
#     Edge 11, Type (0, 0), BuildingBlock: OJICUG_clean_linker_0, # of connection points: 2
#     Edge 12, Type (0, 0), BuildingBlock: OJICUG_clean_linker_0, # of connection points: 2
#     Edge 13, Type (0, 0), BuildingBlock: OJICUG_clean_linker_0, # of connection points: 2
#     Edge 14, Type (0, 0), BuildingBlock: OJICUG_clean_linker_0, # of connection points: 2
#     Edge 15, Type (0, 0), BuildingBlock: OJICUG_clean_linker_0, # of connection points: 2
#     Edge 16, Type (0, 0), BuildingBlock: OJICUG_clean_linker_0, # of connection points: 2
#     Edge 17, Type (0, 0), BuildingBlock: OJICUG_clean_linker_0, # of connection points: 2
#     Edge 18, Type (0, 0), BuildingBlock: OJICUG_clean_linker_0, # of connection points: 2
#     Edge 19, Type (0, 0), BuildingBlock: OJICUG_clean_linker_0, # of connection points: 2
#     Edge 20, Type (0, 0), BuildingBlock: OJICUG_clean_linker_0, # of connection points: 2
#     Edge 21, Type (0, 0), BuildingBlock: OJICUG_clean_linker_0, # of connection points: 2
#     Edge 22, Type (0, 0), BuildingBlock: OJICUG_clean_linker_0, # of connection points: 2
#     Edge 23, Type (0, 0), BuildingBlock: OJICUG_clean_linker_0, # of connection points: 2
# Relax obj value: 0.161
# Max RMSD: 0.171
# Mean RMSD: 0.171
data_MOF--net-smk--node1-VOLQOD_clean_sbu_1--edge1-OJICUG_clean_linker_0
_symmetry_space_group_name_H-M    P1
_symmetry_Int_Tables_number       1
_symmetry_cell_setting            triclinic
loop_
_symmetry_equiv_pos_as_xyz
'x, y, z'
_cell_length_a     33.862723
_cell_length_b     33.811479
_cell_length_c     12.944363
_cell_angle_alpha  90.000624
_cell_angle_beta   89.985607
_cell_angle_gamma 120.0692
loop_
_atom_site_label
_atom_site_type_symbol
_atom_site_fract_x
_atom_site_fract_y
_atom_site_fract_z
_atom_type_partial_charge
O0 O 0.44979 0.25043 0.79195 0.0
Zn1 Zn 0.43956 0.26056 0.6407 0.0
O2 O 0.42248 0.20595 0.56224 0.0
Zn3 Zn 0.47156 0.21553 0.47429 0.0
Zn4 Zn 0.41278 0.16061 0.66085 0.0
Zn5 Zn 0.36737 0.18498 0.48291 0.0
O6 O 0.44938 0.19495 0.32945 0.0
O7 O 0.38594 0.1998 0.33398 0.0
O8 O 0.49236 0.31739 0.57114 0.0
O9 O 0.51076 0.28196 0.45278 0.0
O10 O 0.51093 0.19318 0.54256 0.0
O11 O 0.47107 0.16023 0.68454 0.0
O12 O 0.36419 0.0994 0.61267 0.0
O13 O 0.38456 0.26762 0.64287 0.0
O14 O 0.32881 0.11554 0.48945 0.0
O15 O 0.33263 0.21594 0.5362 0.0
C16 C 0.42236 0.2143 0.84196 0.0
C17 C 0.41765 0.19823 0.28394 0.0
C18 C 0.50692 0.17404 0.63016 0.0
C19 C 0.5159 0.31852 0.49279 0.0
C20 C 0.33312 0.08656 0.54424 0.0
C21 C 0.3451 0.24845 0.60151 0.0
O22 O 0.39688 0.1767 0.79587 0.0
O23 O 0.19455 0.45094 0.96121 0.0
Zn24 Zn 0.17406 0.44066 0.81002 0.0
O25 O 0.2112 0.42327 0.73151 0.0
Zn26 Zn 0.25088 0.47223 0.64323 0.0
Zn27 Zn 0.24686 0.41358 0.82981 0.0
Zn28 Zn 0.17653 0.36816 0.65219 0.0
O29 O 0.24922 0.4498 0.49867 0.0
O30 O 0.18039 0.3868 0.50323 0.0
O31 O 0.17016 0.49331 0.73964 0.0
O32 O 0.2238 0.51138 0.62102 0.0
O33 O 0.31266 0.51174 0.71117 0.0
O34 O 0.30583 0.47198 0.85324 0.0
O35 O 0.25897 0.36475 0.78095 0.0
O36 O 0.11179 0.38586 0.81259 0.0
O37 O 0.20705 0.32941 0.65829 0.0
O38 O 0.11073 0.33364 0.70558 0.0
C39 C 0.20304 0.42339 0.01116 0.0
C40 C 0.21395 0.41829 0.45316 0.0
C41 C 0.32791 0.50783 0.79865 0.0
C42 C 0.19246 0.51659 0.66083 0.0
C43 C 0.24043 0.33366 0.71251 0.0
C44 C 0.09105 0.34637 0.77115 0.0
O45 O 0.21498 0.39781 0.96502 0.0
O46 O 0.73789 0.19949 0.12878 0.0
Zn47 Zn 0.72745 0.17911 0.97756 0.0
O48 O 0.78214 0.21616 0.89906 0.0
Zn49 Zn 0.77328 0.25607 0.81073 0.0
Zn50 Zn 0.82781 0.25185 -0.00292 0.0
Zn51 Zn 0.80206 0.18113 0.81962 0.0
O52 O 0.79384 0.25424 0.66614 0.0
O53 O 0.78758 0.18523 0.67062 0.0
O54 O 0.67117 0.17591 0.90784 0.0
O55 O 0.70709 0.22941 0.78888 0.0
O56 O 0.79619 0.31807 0.8783 0.0
O57 O 0.82912 0.31124 0.02023 0.0
O58 O 0.88853 0.26327 0.94835 0.0
O59 O 0.71909 0.1164 0.97946 0.0
O60 O 0.87125 0.21098 0.82609 0.0
O61 O 0.77007 0.11518 0.87247 0.0
C62 C 0.77395 0.20808 0.17865 0.0
C63 C 0.78989 0.2189 0.6206 0.0
C64 C 0.81554 0.33342 0.96557 0.0
C65 C 0.6704 0.19833 0.82907 0.0
C66 C 0.90068 0.24429 0.88022 0.0
C67 C 0.73751 0.09547 0.93772 0.0
O68 O 0.81147 0.22011 0.1325 0.0
O69 O 0.53373 0.74064 0.29403 0.0
Zn70 Zn 0.54387 0.73044 0.14279 0.0
O71 O 0.5607 0.785 0.06427 0.0
Zn72 Zn 0.51146 0.77522 0.97647 0.0
Zn73 Zn 0.5703 0.83049 0.16252 0.0
Zn74 Zn 0.6158 0.80597 -0.01528 0.0
O75 O 0.53357 0.79575 0.83153 0.0
O76 O 0.59718 0.79121 0.83587 0.0
O77 O 0.49108 0.67352 0.07354 0.0
O78 O 0.47242 0.70874 0.95522 0.0
O79 O 0.472 0.79758 0.04451 0.0
O80 O 0.51195 0.83085 0.18612 0.0
O81 O 0.61886 0.89171 0.11381 0.0
O82 O 0.5989 0.72336 0.14449 0.0
O83 O 0.65432 0.87541 -0.00897 0.0
O84 O 0.65065 0.77498 0.0374 0.0
C85 C 0.56093 0.77689 0.34393 0.0
C86 C 0.5654 0.79266 0.78593 0.0
C87 C 0.47605 0.81692 0.13188 0.0
C88 C 0.46745 0.67226 -0.00471 0.0
C89 C 0.64994 0.90447 0.04538 0.0
C90 C 0.63828 0.74247 0.10269 0.0
O91 O 0.58618 0.81455 0.29776 0.0
O92 O 0.78986 0.54031 0.45931 0.0
Zn93 Zn 0.81025 0.55042 0.30816 0.0
O94 O 0.77285 0.56745 0.22942 0.0
Zn95 Zn 0.7334 0.5182 0.14146 0.0
Zn96 Zn 0.73698 0.57702 0.32761 0.0
Zn97 Zn 0.80724 0.6227 0.15002 0.0
O98 O 0.73509 0.54041 -0.0033 0.0
O99 O 0.80337 0.60411 0.00109 0.0
O100 O 0.81419 0.4975 0.2392 0.0
O101 O 0.76062 0.47903 0.12026 0.0
O102 O 0.67152 0.47871 0.20919 0.0
O103 O 0.67809 0.51857 0.35095 0.0
O104 O 0.7246 0.62568 0.27893 0.0
O105 O 0.87242 0.60546 0.31009 0.0
O106 O 0.77648 0.6613 0.15631 0.0
O107 O 0.87313 0.65746 0.20288 0.0
C108 C 0.781 0.56762 0.50915 0.0
C109 C 0.77007 0.5723 0.95114 0.0
C110 C 0.65612 0.48267 0.29645 0.0
C111 C 0.79191 0.47392 0.16072 0.0
C112 C 0.74302 0.65685 0.21062 0.0
C113 C 0.89297 0.64491 0.26838 0.0
O114 O 0.76873 0.59292 0.46294 0.0
O115 O 0.24547 0.7938 0.63408 0.0
Zn116 Zn 0.25593 0.81211 0.48176 0.0
O117 O 0.20102 0.77404 0.40507 0.0
Zn118 Zn 0.20962 0.73482 0.31378 0.0
Zn119 Zn 0.15393 0.7359 0.49828 0.0
Zn120 Zn 0.18253 0.80941 0.32236 0.0
O121 O 0.1843 0.73431 0.1732 0.0
O122 O 0.20094 0.80696 0.17533 0.0
O123 O 0.31178 0.81435 0.41114 0.0
O124 O 0.27579 0.76326 0.28723 0.0
O125 O 0.18924 0.673 0.37916 0.0
O126 O 0.15072 0.67548 0.5149 0.0
O127 O 0.09434 0.72741 0.44909 0.0
O128 O 0.26472 0.8749 0.48101 0.0
O129 O 0.11307 0.77892 0.32396 0.0
O130 O 0.21303 0.8752 0.37523 0.0
C131 C 0.20797 0.77831 0.68408 0.0
C132 C 0.19367 0.7712 0.12618 0.0
C133 C 0.16715 0.65534 0.46241 0.0
C134 C 0.3125 0.79346 0.32932 0.0
C135 C 0.08304 0.74634 0.37899 0.0
C136 C 0.24586 0.89541 0.43946 0.0
O137 O 0.16957 0.76176 0.63872 0.0
C138 C 0.46098 0.22831 0.11932 0.0
C139 C 0.41902 0.20311 0.17091 0.0
H140 H 0.49482 0.25316 0.97356 0.0
C141 C 0.37832 0.18429 0.11417 0.0
H142 H 0.4928 0.24375 0.16191 0.0
C143 C 0.37956 0.1891 0.00702 0.0
C144 C 0.42144 0.21407 0.95533 0.0
H145 H 0.34559 0.165 0.15241 0.0
H146 H 0.34776 0.17303 0.9643 0.0
C147 C 0.46215 0.23428 0.01223 0.0
C148 C 0.22779 0.46184 0.28866 0.0
C149 C 0.21052 0.41975 0.34013 0.0
H150 H 0.23732 0.49589 0.143 0.0
C151 C 0.18826 0.37903 0.28326 0.0
H152 H 0.24448 0.49367 0.33136 0.0
C153 C 0.18484 0.38038 0.17609 0.0
C154 C 0.20227 0.4224 0.12453 0.0
H155 H 0.17444 0.3462 0.32142 0.0
H156 H 0.16882 0.34856 0.13325 0.0
C157 C 0.22313 0.46313 0.18156 0.0
C158 C 0.79861 0.1898 0.34352 0.0
C159 C 0.77416 0.2073 0.292 0.0
H160 H 0.82226 0.17932 0.48883 0.0
C161 C 0.75442 0.22822 0.34905 0.0
H162 H 0.81431 0.17374 0.30064 0.0
C163 C 0.76036 0.23285 0.45615 0.0
C164 C 0.78504 0.21551 0.50758 0.0
H165 H 0.73595 0.24245 0.31051 0.0
H166 H 0.7453 0.24957 0.49888 0.0
C167 C 0.80337 0.1932 0.45069 0.0
C168 C 0.60365 0.80239 0.50898 0.0
C169 C 0.56183 0.77715 0.45729 0.0
H170 H 0.63752 0.8266 0.65441 0.0
C171 C 0.5211 0.75658 0.51419 0.0
H172 H 0.63546 0.81872 0.46626 0.0
C173 C 0.52219 0.76245 0.6213 0.0
C174 C 0.56409 0.7879 0.67289 0.0
H175 H 0.48847 0.73747 0.47552 0.0
H176 H 0.49036 0.74673 0.6639 0.0
C177 C 0.60483 0.8071 0.61615 0.0
C178 C 0.76153 0.52784 0.67948 0.0
C179 C 0.78172 0.5686 0.62249 0.0
H180 H 0.74072 0.49712 0.82927 0.0
C181 C 0.79847 0.61051 0.67411 0.0
H182 H 0.74789 0.49514 0.64087 0.0
C183 C 0.79506 0.61175 0.78129 0.0
C184 C 0.77348 0.57097 0.83812 0.0
H185 H 0.81397 0.64234 0.6313 0.0
H186 H 0.80836 0.6445 0.81951 0.0
C187 C 0.75688 0.52899 0.7866 0.0
C188 C 0.23042 0.81376 0.96378 0.0
C189 C 0.19832 0.77311 0.01309 0.0
H190 H 0.25985 0.8469 0.81934 0.0
C191 C 0.17154 0.73394 0.95372 0.0
H192 H 0.25187 0.84427 0.00835 0.0
C193 C 0.1756 0.73576 0.8465 0.0
C194 C 0.20744 0.77636 0.79717 0.0
H195 H 0.14675 0.70221 -0.00999 0.0
H196 H 0.15368 0.70542 0.80182 0.0
C197 C 0.2354 0.8152 0.85633 0.0
C198 C 0.30809 0.00571 0.58849 0.0
C199 C 0.30481 0.03698 0.52276 0.0
H200 H 0.29196 0.93699 0.61383 0.0
C201 C 0.27803 0.02052 0.43272 0.0
H202 H 0.32788 0.01693 0.65909 0.0
C203 C 0.25707 0.97402 0.40653 0.0
C204 C 0.2629 0.9435 0.46968 0.0
H205 H 0.2748 0.04376 0.38047 0.0
H206 H 0.23801 0.96239 0.33506 0.0
C207 C 0.28757 0.95973 0.56221 0.0
C208 C 0.32174 0.28839 0.72729 0.0
C209 C 0.31369 0.26469 0.63342 0.0
H210 H 0.30434 0.32751 0.82672 0.0
C211 C 0.27738 0.25909 0.5706 0.0
H212 H 0.3488 0.29251 0.7787 0.0
C213 C 0.25159 0.27949 0.59842 0.0
C214 C 0.26162 0.30547 0.68974 0.0
H215 H 0.27023 0.24074 0.49813 0.0
H216 H 0.22523 0.27659 0.54634 0.0
C217 C 0.29602 0.30836 0.75518 0.0
C218 C 0.98188 0.29878 0.92379 0.0
C219 C 0.95003 0.26473 0.85796 0.0
H220 H 0.05093 0.35063 0.94816 0.0
C221 C 0.96574 0.25429 0.76687 0.0
H222 H 0.97122 0.30737 -0.00481 0.0
C223 C 0.01208 0.27939 0.73961 0.0
C224 C 0.04319 0.31539 0.80279 0.0
H225 H 0.94204 0.22818 0.71453 0.0
H226 H 0.02311 0.272 0.66724 0.0
C227 C 0.02772 0.32378 0.8965 0.0
C228 C 0.70519 0.97026 0.93342 0.0
C229 C 0.67818 0.95401 0.02321 0.0
H230 H 0.74548 0.02813 0.83527 0.0
C231 C 0.67465 0.98543 0.08791 0.0
H232 H 0.70862 0.94691 0.88193 0.0
C233 C 0.69523 0.03136 0.06092 0.0
C234 C 0.7202 0.04738 0.96867 0.0
H235 H 0.65464 0.97438 0.15826 0.0
H236 H 0.69067 0.05421 0.11182 0.0
C237 C 0.72619 0.01669 0.9065 0.0
C238 C 0.73172 0.71125 0.09756 0.0
C239 C 0.72172 0.685 0.18845 0.0
H240 H 0.7131 0.75037 -0.00158 0.0
C241 C 0.6873 0.68192 0.25424 0.0
H242 H 0.75807 0.71432 0.04523 0.0
C243 C 0.66161 0.70201 0.22717 0.0
C244 C 0.66967 0.72605 0.13376 0.0
H245 H 0.67899 0.66255 0.32548 0.0
H246 H 0.63457 0.69774 0.27885 0.0
C247 C 0.70594 0.73178 0.07056 0.0
C248 C 0.97231 0.71099 0.2351 0.0
C249 C 0.94075 0.67611 0.30004 0.0
H250 H 0.04271 0.76103 0.20905 0.0
C251 C 0.95571 0.66886 0.39567 0.0
H252 H 0.96164 0.71746 0.1612 0.0
C253 C 0.0015 0.69375 0.42329 0.0
C254 C 0.03383 0.7265 0.35583 0.0
H255 H 0.9321 0.64293 0.44859 0.0
H256 H 0.01174 0.68599 0.4963 0.0
C257 C 0.01863 0.73594 0.26268 0.0
C258 C 0.56721 0.4044 0.49202 0.0
C259 C 0.54845 0.3621 0.44133 0.0
H260 H 0.61596 0.47608 0.48568 0.0
C261 C 0.5618 0.36097 0.33876 0.0
H262 H 0.55735 0.40644 0.57056 0.0
C263 C 0.59473 0.40059 0.28977 0.0
C264 C 0.61556 0.44256 0.34206 0.0
H265 H 0.54735 0.32911 0.29628 0.0
H266 H 0.60505 0.39785 0.21212 0.0
C267 C 0.60065 0.44426 0.443 0.0
C268 C 0.19692 0.56302 0.50687 0.0
C269 C 0.18125 0.54879 0.60848 0.0
H270 H 0.20378 0.60655 0.38042 0.0
C271 C 0.15602 0.56609 0.65718 0.0
H272 H 0.21564 0.54968 0.46577 0.0
C273 C 0.14904 0.59896 0.60734 0.0
C274 C 0.16686 0.61483 0.50759 0.0
H275 H 0.14311 0.55549 0.73484 0.0
H276 H 0.13124 0.6132 0.6487 0.0
C277 C 0.18974 0.59543 0.45711 0.0
C278 C 0.6285 0.20224 0.67463 0.0
C279 C 0.62707 0.18749 0.7771 0.0
H280 H 0.592 0.20863 0.5474 0.0
C281 C 0.58466 0.16361 0.82702 0.0
H282 H 0.66046 0.21993 0.63271 0.0
C283 C 0.54497 0.15702 0.7773 0.0
C284 C 0.54694 0.17381 0.67641 0.0
H285 H 0.58237 0.15146 0.90544 0.0
H286 H 0.51303 0.14018 0.81937 0.0
C287 C 0.58905 0.19538 0.62494 0.0
C288 C 0.42191 0.62966 0.84107 0.0
C289 C 0.43509 0.62862 0.94383 0.0
H290 H 0.37898 0.59264 0.71419 0.0
C291 C 0.41635 0.58634 -0.00534 0.0
H292 H 0.43636 0.6615 0.7985 0.0
C293 C 0.38309 0.54641 0.94556 0.0
C294 C 0.36836 0.54801 0.8444 0.0
H295 H 0.42609 0.58437 0.07335 0.0
H296 H 0.36778 0.51461 -0.01167 0.0
C297 C 0.38918 0.58997 0.792 0.0
C298 C 0.78899 0.42826 0.00674 0.0
C299 C 0.80299 0.44137 0.10964 0.0
H300 H 0.78293 0.38514 0.88011 0.0
C301 C 0.82604 0.42233 0.16103 0.0
H302 H 0.77197 0.44293 0.96376 0.0
C303 C 0.8324 0.38882 0.11232 0.0
C304 C 0.81624 0.37413 0.011 0.0
H305 H 0.83757 0.43201 0.23986 0.0
H306 H 0.84848 0.37326 0.15551 0.0
C307 C 0.79564 0.39528 0.95807 0.0
C308 C 0.43784 0.83355 0.27939 0.0
C309 C 0.43611 0.81746 0.17788 0.0
H310 H 0.40023 0.83873 0.40758 0.0
C311 C 0.39429 0.79699 0.12529 0.0
H312 H 0.46954 0.84955 0.32235 0.0
C313 C 0.35482 0.79047 0.17442 0.0
C314 C 0.35595 0.80442 0.27751 0.0
H315 H 0.39155 0.78433 0.04721 0.0
H316 H 0.32306 0.77357 0.13164 0.0
C317 C 0.39814 0.82725 0.32861 0.0
loop_
_geom_bond_atom_site_label_1
_geom_bond_atom_site_label_2
_geom_bond_distance
_geom_bond_site_symmetry_2
_ccdc_geom_bond_type
O0 Zn1 1.953 . S
O0 C16 1.225 . S
Zn1 O0 1.953 . S
Zn1 O2 1.949 . S
Zn1 O8 1.919 . S
Zn1 O13 1.924 . S
O2 Zn1 1.949 . S
O2 Zn3 1.923 . S
O2 Zn4 1.950 . S
O2 Zn5 1.945 . S
Zn3 O2 1.923 . S
Zn3 O6 1.933 . S
Zn3 O9 1.941 . S
Zn3 O10 1.965 . S
Zn4 O2 1.950 . S
Zn4 O11 1.938 . S
Zn4 O12 1.906 . S
Zn4 O22 1.953 . S
Zn5 O2 1.945 . S
Zn5 O7 1.932 . S
Zn5 O14 1.977 . S
Zn5 O15 1.910 . S
O6 Zn3 1.933 . S
O6 C17 1.226 . S
O7 Zn5 1.932 . S
O7 C17 1.307 . S
O8 Zn1 1.919 . S
O8 C19 1.253 . S
O9 Zn3 1.941 . S
O9 C19 1.283 . S
O10 Zn3 1.965 . S
O10 C18 1.303 . S
O11 Zn4 1.938 . S
O11 C18 1.247 . S
O12 Zn4 1.906 . S
O12 C20 1.304 . S
O13 Zn1 1.924 . S
O13 C21 1.311 . S
O14 Zn5 1.977 . S
O14 C20 1.272 . S
O15 Zn5 1.910 . S
O15 C21 1.231 . S
C16 O0 1.225 . S
C16 O22 1.298 . S
C17 O6 1.226 . S
C17 O7 1.307 . S
C18 O10 1.303 . S
C18 O11 1.247 . S
C19 O8 1.253 . S
C19 O9 1.283 . S
C20 O12 1.304 . S
C20 O14 1.272 . S
C21 O13 1.311 . S
C21 O15 1.231 . S
O22 Zn4 1.953 . S
O22 C16 1.298 . S
O23 Zn24 1.953 . S
O23 C39 1.225 1_556 S
Zn24 O23 1.953 . S
Zn24 O25 1.949 . S
Zn24 O31 1.919 . S
Zn24 O36 1.924 . S
O25 Zn24 1.949 . S
O25 Zn26 1.923 . S
O25 Zn27 1.950 . S
O25 Zn28 1.945 . S
Zn26 O25 1.923 . S
Zn26 O29 1.933 . S
Zn26 O32 1.941 . S
Zn26 O33 1.965 . S
Zn27 O25 1.950 . S
Zn27 O34 1.938 . S
Zn27 O35 1.906 . S
Zn27 O45 1.953 . S
Zn28 O25 1.945 . S
Zn28 O30 1.932 . S
Zn28 O37 1.977 . S
Zn28 O38 1.910 . S
O29 Zn26 1.933 . S
O29 C40 1.226 . S
O30 Zn28 1.932 . S
O30 C40 1.307 . S
O31 Zn24 1.919 . S
O31 C42 1.253 . S
O32 Zn26 1.941 . S
O32 C42 1.283 . S
O33 Zn26 1.965 . S
O33 C41 1.303 . S
O34 Zn27 1.938 . S
O34 C41 1.247 . S
O35 Zn27 1.906 . S
O35 C43 1.304 . S
O36 Zn24 1.924 . S
O36 C44 1.311 . S
O37 Zn28 1.977 . S
O37 C43 1.272 . S
O38 Zn28 1.910 . S
O38 C44 1.231 . S
C39 O23 1.225 1_554 S
C39 O45 1.298 1_554 S
C40 O29 1.226 . S
C40 O30 1.307 . S
C41 O33 1.303 . S
C41 O34 1.247 . S
C42 O31 1.253 . S
C42 O32 1.283 . S
C43 O35 1.304 . S
C43 O37 1.272 . S
C44 O36 1.311 . S
C44 O38 1.231 . S
O45 Zn27 1.953 . S
O45 C39 1.298 1_556 S
O46 Zn47 1.953 1_554 S
O46 C62 1.225 . S
Zn47 O46 1.953 1_556 S
Zn47 O48 1.949 . S
Zn47 O54 1.919 . S
Zn47 O59 1.924 . S
O48 Zn47 1.949 . S
O48 Zn49 1.923 . S
O48 Zn50 1.950 1_556 S
O48 Zn51 1.945 . S
Zn49 O48 1.923 . S
Zn49 O52 1.933 . S
Zn49 O55 1.941 . S
Zn49 O56 1.965 . S
Zn50 O48 1.950 1_554 S
Zn50 O57 1.938 . S
Zn50 O58 1.906 1_554 S
Zn50 O68 1.953 . S
Zn51 O48 1.945 . S
Zn51 O53 1.932 . S
Zn51 O60 1.977 . S
Zn51 O61 1.910 . S
O52 Zn49 1.933 . S
O52 C63 1.226 . S
O53 Zn51 1.932 . S
O53 C63 1.307 . S
O54 Zn47 1.919 . S
O54 C65 1.253 . S
O55 Zn49 1.941 . S
O55 C65 1.283 . S
O56 Zn49 1.965 . S
O56 C64 1.303 . S
O57 Zn50 1.938 . S
O57 C64 1.247 1_554 S
O58 Zn50 1.906 1_556 S
O58 C66 1.304 . S
O59 Zn47 1.924 . S
O59 C67 1.311 . S
O60 Zn51 1.977 . S
O60 C66 1.272 . S
O61 Zn51 1.910 . S
O61 C67 1.231 . S
C62 O46 1.225 . S
C62 O68 1.298 . S
C63 O52 1.226 . S
C63 O53 1.307 . S
C64 O56 1.303 . S
C64 O57 1.247 1_556 S
C65 O54 1.253 . S
C65 O55 1.283 . S
C66 O58 1.304 . S
C66 O60 1.272 . S
C67 O59 1.311 . S
C67 O61 1.231 . S
O68 Zn50 1.953 . S
O68 C62 1.298 . S
O69 Zn70 1.953 . S
O69 C85 1.225 . S
Zn70 O69 1.953 . S
Zn70 O71 1.949 . S
Zn70 O77 1.919 . S
Zn70 O82 1.924 . S
O71 Zn70 1.949 . S
O71 Zn72 1.923 1_554 S
O71 Zn73 1.950 . S
O71 Zn74 1.945 1_554 S
Zn72 O71 1.923 1_556 S
Zn72 O75 1.933 . S
Zn72 O78 1.941 1_556 S
Zn72 O79 1.965 1_556 S
Zn73 O71 1.950 . S
Zn73 O80 1.938 . S
Zn73 O81 1.906 . S
Zn73 O91 1.953 . S
Zn74 O71 1.945 1_556 S
Zn74 O76 1.932 . S
Zn74 O83 1.977 1_556 S
Zn74 O84 1.910 1_556 S
O75 Zn72 1.933 . S
O75 C86 1.226 . S
O76 Zn74 1.932 . S
O76 C86 1.307 . S
O77 Zn70 1.919 . S
O77 C88 1.253 . S
O78 Zn72 1.941 1_554 S
O78 C88 1.283 . S
O79 Zn72 1.965 1_554 S
O79 C87 1.303 . S
O80 Zn73 1.938 . S
O80 C87 1.247 . S
O81 Zn73 1.906 . S
O81 C89 1.304 . S
O82 Zn70 1.924 . S
O82 C90 1.311 . S
O83 Zn74 1.977 1_554 S
O83 C89 1.272 . S
O84 Zn74 1.910 1_554 S
O84 C90 1.231 . S
C85 O69 1.225 . S
C85 O91 1.298 . S
C86 O75 1.226 . S
C86 O76 1.307 . S
C87 O79 1.303 . S
C87 O80 1.247 . S
C88 O77 1.253 . S
C88 O78 1.283 . S
C89 O81 1.304 . S
C89 O83 1.272 . S
C90 O82 1.311 . S
C90 O84 1.231 . S
O91 Zn73 1.953 . S
O91 C85 1.298 . S
O92 Zn93 1.953 . S
O92 C108 1.225 . S
Zn93 O92 1.953 . S
Zn93 O94 1.949 . S
Zn93 O100 1.919 . S
Zn93 O105 1.924 . S
O94 Zn93 1.949 . S
O94 Zn95 1.923 . S
O94 Zn96 1.950 . S
O94 Zn97 1.945 . S
Zn95 O94 1.923 . S
Zn95 O98 1.933 . S
Zn95 O101 1.941 . S
Zn95 O102 1.965 . S
Zn96 O94 1.950 . S
Zn96 O103 1.938 . S
Zn96 O104 1.906 . S
Zn96 O114 1.953 . S
Zn97 O94 1.945 . S
Zn97 O99 1.932 . S
Zn97 O106 1.977 . S
Zn97 O107 1.910 . S
O98 Zn95 1.933 . S
O98 C109 1.226 1_554 S
O99 Zn97 1.932 . S
O99 C109 1.307 1_554 S
O100 Zn93 1.919 . S
O100 C111 1.253 . S
O101 Zn95 1.941 . S
O101 C111 1.283 . S
O102 Zn95 1.965 . S
O102 C110 1.303 . S
O103 Zn96 1.938 . S
O103 C110 1.247 . S
O104 Zn96 1.906 . S
O104 C112 1.304 . S
O105 Zn93 1.924 . S
O105 C113 1.311 . S
O106 Zn97 1.977 . S
O106 C112 1.272 . S
O107 Zn97 1.910 . S
O107 C113 1.231 . S
C108 O92 1.225 . S
C108 O114 1.298 . S
C109 O98 1.226 1_556 S
C109 O99 1.307 1_556 S
C110 O102 1.303 . S
C110 O103 1.247 . S
C111 O100 1.253 . S
C111 O101 1.283 . S
C112 O104 1.304 . S
C112 O106 1.272 . S
C113 O105 1.311 . S
C113 O107 1.231 . S
O114 Zn96 1.953 . S
O114 C108 1.298 . S
O115 Zn116 1.953 . S
O115 C131 1.225 . S
Zn116 O115 1.953 . S
Zn116 O117 1.949 . S
Zn116 O123 1.919 . S
Zn116 O128 1.924 . S
O117 Zn116 1.949 . S
O117 Zn118 1.923 . S
O117 Zn119 1.950 . S
O117 Zn120 1.945 . S
Zn118 O117 1.923 . S
Zn118 O121 1.933 . S
Zn118 O124 1.941 . S
Zn118 O125 1.965 . S
Zn119 O117 1.950 . S
Zn119 O126 1.938 . S
Zn119 O127 1.906 . S
Zn119 O137 1.953 . S
Zn120 O117 1.945 . S
Zn120 O122 1.932 . S
Zn120 O129 1.977 . S
Zn120 O130 1.910 . S
O121 Zn118 1.933 . S
O121 C132 1.226 . S
O122 Zn120 1.932 . S
O122 C132 1.307 . S
O123 Zn116 1.919 . S
O123 C134 1.253 . S
O124 Zn118 1.941 . S
O124 C134 1.283 . S
O125 Zn118 1.965 . S
O125 C133 1.303 . S
O126 Zn119 1.938 . S
O126 C133 1.247 . S
O127 Zn119 1.906 . S
O127 C135 1.304 . S
O128 Zn116 1.924 . S
O128 C136 1.311 . S
O129 Zn120 1.977 . S
O129 C135 1.272 . S
O130 Zn120 1.910 . S
O130 C136 1.231 . S
C131 O115 1.225 . S
C131 O137 1.298 . S
C132 O121 1.226 . S
C132 O122 1.307 . S
C133 O125 1.303 . S
C133 O126 1.247 . S
C134 O123 1.253 . S
C134 O124 1.283 . S
C135 O127 1.304 . S
C135 O129 1.272 . S
C136 O128 1.311 . S
C136 O130 1.231 . S
O137 Zn119 1.953 . S
O137 C131 1.298 . S
C138 C139 1.387 . S
C138 H142 0.950 . S
C138 C147 1.390 . S
C139 C138 1.387 . S
C139 C141 1.387 . S
H140 C147 0.950 1_556 S
C141 C139 1.387 . S
C141 C143 1.390 . S
C141 H145 0.950 . S
H142 C138 0.950 . S
C143 C141 1.390 . S
C143 C144 1.387 1_554 S
C143 H146 0.950 . S
C144 C143 1.387 1_556 S
C144 C147 1.387 1_556 S
H145 C141 0.950 . S
H146 C143 0.950 . S
C147 C138 1.390 . S
C147 H140 0.950 1_554 S
C147 C144 1.387 1_554 S
C148 C149 1.387 . S
C148 H152 0.950 . S
C148 C157 1.390 . S
C149 C148 1.387 . S
C149 C151 1.387 . S
H150 C157 0.950 . S
C151 C149 1.387 . S
C151 C153 1.390 . S
C151 H155 0.950 . S
H152 C148 0.950 . S
C153 C151 1.390 . S
C153 C154 1.387 . S
C153 H156 0.950 . S
C154 C153 1.387 . S
C154 C157 1.387 . S
H155 C151 0.950 . S
H156 C153 0.950 . S
C157 C148 1.390 . S
C157 H150 0.950 . S
C157 C154 1.387 . S
C158 C159 1.387 . S
C158 H162 0.950 . S
C158 C167 1.390 . S
C159 C158 1.387 . S
C159 C161 1.387 . S
H160 C167 0.950 . S
C161 C159 1.387 . S
C161 C163 1.390 . S
C161 H165 0.950 . S
H162 C158 0.950 . S
C163 C161 1.390 . S
C163 C164 1.387 . S
C163 H166 0.950 . S
C164 C163 1.387 . S
C164 C167 1.387 . S
H165 C161 0.950 . S
H166 C163 0.950 . S
C167 C158 1.390 . S
C167 H160 0.950 . S
C167 C164 1.387 . S
C168 C169 1.387 . S
C168 H172 0.950 . S
C168 C177 1.390 . S
C169 C168 1.387 . S
C169 C171 1.387 . S
H170 C177 0.950 . S
C171 C169 1.387 . S
C171 C173 1.390 . S
C171 H175 0.950 . S
H172 C168 0.950 . S
C173 C171 1.390 . S
C173 C174 1.387 . S
C173 H176 0.950 . S
C174 C173 1.387 . S
C174 C177 1.387 . S
H175 C171 0.950 . S
H176 C173 0.950 . S
C177 C168 1.390 . S
C177 H170 0.950 . S
C177 C174 1.387 . S
C178 C179 1.387 . S
C178 H182 0.950 . S
C178 C187 1.390 . S
C179 C178 1.387 . S
C179 C181 1.387 . S
H180 C187 0.950 . S
C181 C179 1.387 . S
C181 C183 1.390 . S
C181 H185 0.950 . S
H182 C178 0.950 . S
C183 C181 1.390 . S
C183 C184 1.387 . S
C183 H186 0.950 . S
C184 C183 1.387 . S
C184 C187 1.387 . S
H185 C181 0.950 . S
H186 C183 0.950 . S
C187 C178 1.390 . S
C187 H180 0.950 . S
C187 C184 1.387 . S
C188 C189 1.387 1_556 S
C188 H192 0.950 1_556 S
C188 C197 1.390 . S
C189 C188 1.387 1_554 S
C189 C191 1.387 1_554 S
H190 C197 0.950 . S
C191 C189 1.387 1_556 S
C191 C193 1.390 . S
C191 H195 0.950 . S
H192 C188 0.950 1_554 S
C193 C191 1.390 . S
C193 C194 1.387 . S
C193 H196 0.950 . S
C194 C193 1.387 . S
C194 C197 1.387 . S
H195 C191 0.950 . S
H196 C193 0.950 . S
C197 C188 1.390 . S
C197 H190 0.950 . S
C197 C194 1.387 . S
C198 C199 1.387 . S
C198 H202 0.950 . S
C198 C207 1.390 1_545 S
C199 C198 1.387 . S
C199 C201 1.387 . S
H200 C207 0.950 . S
C201 C199 1.387 . S
C201 C203 1.390 1_545 S
C201 H205 0.950 . S
H202 C198 0.950 . S
C203 C201 1.390 1_565 S
C203 C204 1.387 . S
C203 H206 0.950 . S
C204 C203 1.387 . S
C204 C207 1.387 . S
H205 C201 0.950 . S
H206 C203 0.950 . S
C207 C198 1.390 1_565 S
C207 H200 0.950 . S
C207 C204 1.387 . S
C208 C209 1.387 . S
C208 H212 0.950 . S
C208 C217 1.390 . S
C209 C208 1.387 . S
C209 C211 1.387 . S
H210 C217 0.950 . S
C211 C209 1.387 . S
C211 C213 1.390 . S
C211 H215 0.950 . S
H212 C208 0.950 . S
C213 C211 1.390 . S
C213 C214 1.387 . S
C213 H216 0.950 . S
C214 C213 1.387 . S
C214 C217 1.387 . S
H215 C211 0.950 . S
H216 C213 0.950 . S
C217 C208 1.390 . S
C217 H210 0.950 . S
C217 C214 1.387 . S
C218 C219 1.387 . S
C218 H222 0.950 . S
C218 C227 1.390 1_655 S
C219 C218 1.387 . S
C219 C221 1.387 . S
H220 C227 0.950 . S
C221 C219 1.387 . S
C221 C223 1.390 1_655 S
C221 H225 0.950 . S
H222 C218 0.950 . S
C223 C221 1.390 1_455 S
C223 C224 1.387 . S
C223 H226 0.950 . S
C224 C223 1.387 . S
C224 C227 1.387 . S
H225 C221 0.950 . S
H226 C223 0.950 . S
C227 C218 1.390 1_455 S
C227 H220 0.950 . S
C227 C224 1.387 . S
C228 C229 1.387 . S
C228 H232 0.950 . S
C228 C237 1.390 1_564 S
C229 C228 1.387 . S
C229 C231 1.387 . S
H230 C237 0.950 . S
C231 C229 1.387 . S
C231 C233 1.390 1_564 S
C231 H235 0.950 . S
H232 C228 0.950 . S
C233 C231 1.390 1_546 S
C233 C234 1.387 . S
C233 H236 0.950 . S
C234 C233 1.387 . S
C234 C237 1.387 . S
H235 C231 0.950 . S
H236 C233 0.950 . S
C237 C228 1.390 1_546 S
C237 H230 0.950 . S
C237 C234 1.387 . S
C238 C239 1.387 . S
C238 H242 0.950 . S
C238 C247 1.390 . S
C239 C238 1.387 . S
C239 C241 1.387 . S
H240 C247 0.950 1_556 S
C241 C239 1.387 . S
C241 C243 1.390 . S
C241 H245 0.950 . S
H242 C238 0.950 . S
C243 C241 1.390 . S
C243 C244 1.387 . S
C243 H246 0.950 . S
C244 C243 1.387 . S
C244 C247 1.387 . S
H245 C241 0.950 . S
H246 C243 0.950 . S
C247 C238 1.390 . S
C247 H240 0.950 1_554 S
C247 C244 1.387 . S
C248 C249 1.387 . S
C248 H252 0.950 . S
C248 C257 1.390 1_655 S
C249 C248 1.387 . S
C249 C251 1.387 . S
H250 C257 0.950 . S
C251 C249 1.387 . S
C251 C253 1.390 1_655 S
C251 H255 0.950 . S
H252 C248 0.950 . S
C253 C251 1.390 1_455 S
C253 C254 1.387 . S
C253 H256 0.950 . S
C254 C253 1.387 . S
C254 C257 1.387 . S
H255 C251 0.950 . S
H256 C253 0.950 . S
C257 C248 1.390 1_455 S
C257 H250 0.950 . S
C257 C254 1.387 . S
C258 C259 1.387 . S
C258 H262 0.950 . S
C258 C267 1.390 . S
C259 C258 1.387 . S
C259 C261 1.387 . S
H260 C267 0.950 . S
C261 C259 1.387 . S
C261 C263 1.390 . S
C261 H265 0.950 . S
H262 C258 0.950 . S
C263 C261 1.390 . S
C263 C264 1.387 . S
C263 H266 0.950 . S
C264 C263 1.387 . S
C264 C267 1.387 . S
H265 C261 0.950 . S
H266 C263 0.950 . S
C267 C258 1.390 . S
C267 H260 0.950 . S
C267 C264 1.387 . S
C268 C269 1.387 . S
C268 H272 0.950 . S
C268 C277 1.390 . S
C269 C268 1.387 . S
C269 C271 1.387 . S
H270 C277 0.950 . S
C271 C269 1.387 . S
C271 C273 1.390 . S
C271 H275 0.950 . S
H272 C268 0.950 . S
C273 C271 1.390 . S
C273 C274 1.387 . S
C273 H276 0.950 . S
C274 C273 1.387 . S
C274 C277 1.387 . S
H275 C271 0.950 . S
H276 C273 0.950 . S
C277 C268 1.390 . S
C277 H270 0.950 . S
C277 C274 1.387 . S
C278 C279 1.387 . S
C278 H282 0.950 . S
C278 C287 1.390 . S
C279 C278 1.387 . S
C279 C281 1.387 . S
H280 C287 0.950 . S
C281 C279 1.387 . S
C281 C283 1.390 . S
C281 H285 0.950 . S
H282 C278 0.950 . S
C283 C281 1.390 . S
C283 C284 1.387 . S
C283 H286 0.950 . S
C284 C283 1.387 . S
C284 C287 1.387 . S
H285 C281 0.950 . S
H286 C283 0.950 . S
C287 C278 1.390 . S
C287 H280 0.950 . S
C287 C284 1.387 . S
C288 C289 1.387 . S
C288 H292 0.950 . S
C288 C297 1.390 . S
C289 C288 1.387 . S
C289 C291 1.387 1_556 S
H290 C297 0.950 . S
C291 C289 1.387 1_554 S
C291 C293 1.390 1_554 S
C291 H295 0.950 . S
H292 C288 0.950 . S
C293 C291 1.390 1_556 S
C293 C294 1.387 . S
C293 H296 0.950 1_556 S
C294 C293 1.387 . S
C294 C297 1.387 . S
H295 C291 0.950 . S
H296 C293 0.950 1_554 S
C297 C288 1.390 . S
C297 H290 0.950 . S
C297 C294 1.387 . S
C298 C299 1.387 . S
C298 H302 0.950 . S
C298 C307 1.390 . S
C299 C298 1.387 . S
C299 C301 1.387 . S
H300 C307 0.950 1_556 S
C301 C299 1.387 . S
C301 C303 1.390 . S
C301 H305 0.950 . S
H302 C298 0.950 . S
C303 C301 1.390 . S
C303 C304 1.387 . S
C303 H306 0.950 . S
C304 C303 1.387 . S
C304 C307 1.387 . S
H305 C301 0.950 . S
H306 C303 0.950 . S
C307 C298 1.390 . S
C307 H300 0.950 1_554 S
C307 C304 1.387 . S
C308 C309 1.387 . S
C308 H312 0.950 . S
C308 C317 1.390 . S
C309 C308 1.387 . S
C309 C311 1.387 . S
H310 C317 0.950 . S
C311 C309 1.387 . S
C311 C313 1.390 . S
C311 H315 0.950 . S
H312 C308 0.950 . S
C313 C311 1.390 . S
C313 C314 1.387 . S
C313 H316 0.950 . S
C314 C313 1.387 . S
C314 C317 1.387 . S
H315 C311 0.950 . S
H316 C313 0.950 . S
C317 C308 1.390 . S
C317 H310 0.950 . S
C317 C314 1.387 . S
C139 C17 1.351 . S
C144 C16 1.349 . S
C149 C40 1.351 . S
C154 C39 1.348 . S
C159 C62 1.350 . S
C164 C63 1.352 . S
C169 C85 1.350 . S
C174 C86 1.352 . S
C179 C108 1.348 . S
C184 C109 1.351 . S
C189 C132 1.352 . S
C194 C131 1.350 . S
C199 C20 1.539 . S
C204 C136 1.513 . S
C209 C21 1.514 . S
C214 C43 1.539 . S
C219 C66 1.539 . S
C224 C44 1.514 . S
C229 C89 1.539 . S
C234 C67 1.512 . S
C239 C112 1.539 . S
C244 C90 1.512 . S
C249 C113 1.512 . S
C254 C135 1.539 . S
C259 C19 1.649 . S
C264 C110 1.668 . S
C269 C42 1.648 . S
C274 C133 1.668 . S
C279 C65 1.648 . S
C284 C18 1.668 . S
C289 C88 1.647 1_556 S
C294 C41 1.667 . S
C299 C111 1.647 . S
C304 C64 1.668 1_554 S
C309 C87 1.667 . S
C314 C134 1.648 . S
