# Generated by pormake.
# Topology sva, (7)-cn, num edge types: 1
# Building blocks:
#     Node 0, Type 0, BuildingBlock: HICVOG_clean_sbu_0, # of connection points: 7
#     Node 1, Type 0, BuildingBlock: HICVOG_clean_sbu_0, # of connection points: 7
#     Node 2, Type 0, BuildingBlock: HICVOG_clean_sbu_0, # of connection points: 7
#     Node 3, Type 0, BuildingBlock: HICVOG_clean_sbu_0, # of connection points: 7
#     Node 4, Type 0, BuildingBlock: HICVOG_clean_sbu_0, # of connection points: 7
#     Node 5, Type 0, BuildingBlock: HICVOG_clean_sbu_0, # of connection points: 7
#     Node 6, Type 0, BuildingBlock: HICVOG_clean_sbu_0, # of connection points: 7
#     Node 7, Type 0, BuildingBlock: HICVOG_clean_sbu_0, # of connection points: 7
#     Edge 8, Type (0, 0), BuildingBlock: AJUNOK_clean_linker_0, # of connection points: 2
#     Edge 9, Type (0, 0), BuildingBlock: AJUNOK_clean_linker_0, # of connection points: 2
#     Edge 10, Type (0, 0), BuildingBlock: AJUNOK_clean_linker_0, # of connection points: 2
#     Edge 11, Type (0, 0), BuildingBlock: AJUNOK_clean_linker_0, # of connection points: 2
#     Edge 12, Type (0, 0), BuildingBlock: AJUNOK_clean_linker_0, # of connection points: 2
#     Edge 13, Type (0, 0), BuildingBlock: AJUNOK_clean_linker_0, # of connection points: 2
#     Edge 14, Type (0, 0), BuildingBlock: AJUNOK_clean_linker_0, # of connection points: 2
#     Edge 15, Type (0, 0), BuildingBlock: AJUNOK_clean_linker_0, # of connection points: 2
#     Edge 16, Type (0, 0), BuildingBlock: AJUNOK_clean_linker_0, # of connection points: 2
#     Edge 17, Type (0, 0), BuildingBlock: AJUNOK_clean_linker_0, # of connection points: 2
#     Edge 18, Type (0, 0), BuildingBlock: AJUNOK_clean_linker_0, # of connection points: 2
#     Edge 19, Type (0, 0), BuildingBlock: AJUNOK_clean_linker_0, # of connection points: 2
#     Edge 20, Type (0, 0), BuildingBlock: AJUNOK_clean_linker_0, # of connection points: 2
#     Edge 21, Type (0, 0), BuildingBlock: AJUNOK_clean_linker_0, # of connection points: 2
#     Edge 22, Type (0, 0), BuildingBlock: AJUNOK_clean_linker_0, # of connection points: 2
#     Edge 23, Type (0, 0), BuildingBlock: AJUNOK_clean_linker_0, # of connection points: 2
#     Edge 24, Type (0, 0), BuildingBlock: AJUNOK_clean_linker_0, # of connection points: 2
#     Edge 25, Type (0, 0), BuildingBlock: AJUNOK_clean_linker_0, # of connection points: 2
#     Edge 26, Type (0, 0), BuildingBlock: AJUNOK_clean_linker_0, # of connection points: 2
#     Edge 27, Type (0, 0), BuildingBlock: AJUNOK_clean_linker_0, # of connection points: 2
#     Edge 28, Type (0, 0), BuildingBlock: AJUNOK_clean_linker_0, # of connection points: 2
#     Edge 29, Type (0, 0), BuildingBlock: AJUNOK_clean_linker_0, # of connection points: 2
#     Edge 30, Type (0, 0), BuildingBlock: AJUNOK_clean_linker_0, # of connection points: 2
#     Edge 31, Type (0, 0), BuildingBlock: AJUNOK_clean_linker_0, # of connection points: 2
#     Edge 32, Type (0, 0), BuildingBlock: AJUNOK_clean_linker_0, # of connection points: 2
#     Edge 33, Type (0, 0), BuildingBlock: AJUNOK_clean_linker_0, # of connection points: 2
#     Edge 34, Type (0, 0), BuildingBlock: AJUNOK_clean_linker_0, # of connection points: 2
#     Edge 35, Type (0, 0), BuildingBlock: AJUNOK_clean_linker_0, # of connection points: 2
# Relax obj value: 0.249
# Max RMSD: 0.277
# Mean RMSD: 0.277
data_MOF--net-sva--node1-HICVOG_clean_sbu_0--edge1-AJUNOK_clean_linker_0
_symmetry_space_group_name_H-M    P1
_symmetry_Int_Tables_number       1
_symmetry_cell_setting            triclinic
loop_
_symmetry_equiv_pos_as_xyz
'x, y, z'
_cell_length_a     29.911766
_cell_length_b     29.874199
_cell_length_c     16.440082
_cell_angle_alpha  90.048594
_cell_angle_beta   90.061966
_cell_angle_gamma 90.014269
loop_
_atom_site_label
_atom_site_type_symbol
_atom_site_fract_x
_atom_site_fract_y
_atom_site_fract_z
_atom_type_partial_charge
Zn0 Zn 0.08068 0.20229 0.88832 0.0
C1 C 0.14269 0.2747 0.05952 0.0
N2 N 0.1788 0.25192 0.03342 0.0
C3 C 0.16192 0.22166 0.98201 0.0
N4 N 0.11704 0.22595 0.97555 0.0
N5 N 0.10407 0.25775 0.02738 0.0
C6 C 0.98038 0.31426 0.15636 0.0
O7 O 0.9626 0.2752 0.17353 0.0
O8 O 0.09655 0.14001 0.85273 0.0
Zn9 Zn 0.044 0.25446 0.08447 0.0
N10 N 0.07735 0.24436 0.79966 0.0
C11 C 0.08011 0.31917 0.75084 0.0
C12 C 0.08226 0.28879 0.81499 0.0
C13 C 0.06959 0.22898 0.72317 0.0
N14 N 0.07316 0.3038 0.67411 0.0
C15 C 0.06749 0.25939 0.65825 0.0
O16 O 0.9912 0.22049 0.0288 0.0
C17 C 0.9868 0.19592 0.9659 0.0
O18 O 1.0192 0.19042 0.91828 0.0
H19 H 0.08801 0.30043 0.87639 0.0
H20 H 0.0669 0.19328 0.71325 0.0
C21 C 0.04916 0.23121 0.25862 0.0
C22 C 0.05789 0.20108 0.32221 0.0
C23 C 0.07365 0.14438 0.22579 0.0
C24 C 0.06645 0.17486 0.16294 0.0
N25 N 0.05432 0.21758 0.1802 0.0
N26 N 0.06956 0.15823 0.30406 0.0
H27 H 0.03833 0.26494 0.27173 0.0
C28 C 0.09651 0.11302 0.91221 0.0
O29 O 0.10884 0.12806 0.98375 0.0
O30 O 1.01743 0.3151 0.11774 0.0
H31 H 0.07013 0.16478 0.10049 0.0
H32 H 0.08427 0.35464 0.76176 0.0
H33 H 0.083 0.11018 0.21248 0.0
Zn34 Zn 0.86727 0.56792 0.1167 0.0
C35 C 0.79925 0.63563 0.28592 0.0
N36 N 0.82223 0.67096 0.25763 0.0
C37 C 0.85074 0.65241 0.20473 0.0
N38 N 0.84482 0.60753 0.1998 0.0
N39 N 0.81341 0.59631 0.25329 0.0
C40 C 0.74964 0.47241 0.37336 0.0
O41 O 0.78792 0.45585 0.39846 0.0
O42 O 0.92801 0.58414 0.07393 0.0
Zn43 Zn 0.81194 0.53722 0.31159 0.0
N44 N 0.82179 0.5599 0.0351 0.0
C45 C 0.74556 0.54581 0.00289 0.0
C46 C 0.779 0.55358 0.06023 0.0
C47 C 0.8327 0.55847 0.95511 0.0
N48 N 0.7564 0.54428 0.92278 0.0
C49 C 0.79919 0.55027 0.89676 0.0
O50 O 0.85062 0.48518 0.26768 0.0
C51 C 0.87727 0.47835 0.20867 0.0
O52 O 0.88316 0.5079 0.15501 0.0
H53 H 0.77104 0.55417 0.12435 0.0
H54 H 0.8671 0.56418 0.9379 0.0
C55 C 0.82404 0.54461 0.48746 0.0
C56 C 0.84978 0.55573 0.55619 0.0
C57 C 0.90941 0.57787 0.46986 0.0
C58 C 0.8838 0.56697 0.40215 0.0
N59 N 0.84178 0.55067 0.41215 0.0
N60 N 0.8919 0.57192 0.54504 0.0
H61 H 0.79079 0.53089 0.49339 0.0
C62 C 0.95521 0.58687 0.13311 0.0
O63 O 0.93881 0.59347 0.20618 0.0
O64 O 0.74995 0.50954 0.33448 0.0
H65 H 0.89722 0.57124 0.34171 0.0
H66 H 0.71131 0.54076 0.02184 0.0
H67 H 0.94296 0.59083 0.46289 0.0
Zn68 Zn 0.48673 0.37379 0.38839 0.0
C69 C 0.43444 0.30614 0.57661 0.0
N70 N 0.39695 0.32811 0.55569 0.0
C71 C 0.41069 0.35735 0.49911 0.0
N72 N 0.45501 0.35223 0.48384 0.0
N73 N 0.47054 0.32121 0.53486 0.0
C74 C 0.59349 0.25737 0.65209 0.0
O75 O 0.61143 0.29633 0.66973 0.0
O76 O 0.47909 0.43971 0.36905 0.0
Zn77 Zn 0.53336 0.31904 0.57874 0.0
N78 N 0.47253 0.33714 0.29414 0.0
C79 C 0.44243 0.26962 0.24013 0.0
C80 C 0.45198 0.29715 0.3064 0.0
C81 C 0.48396 0.35083 0.21806 0.0
N82 N 0.4536 0.2833 0.16409 0.0
C83 C 0.47383 0.32345 0.15069 0.0
O84 O 0.58365 0.34767 0.50876 0.0
C85 C 0.58677 0.369 0.44185 0.0
O86 O 0.55239 0.37647 0.39939 0.0
H87 H 0.4434 0.28659 0.36724 0.0
H88 H 0.50144 0.38228 0.21074 0.0
C89 C 0.52075 0.34175 0.75185 0.0
C90 C 0.52157 0.37209 0.81786 0.0
C91 C 0.54871 0.42861 0.72909 0.0
C92 C 0.54724 0.3987 0.66442 0.0
N93 N 0.53311 0.3561 0.67644 0.0
N94 N 0.53582 0.41468 0.80385 0.0
H95 H 0.51035 0.30743 0.7597 0.0
C96 C 0.49531 0.46014 0.4301 0.0
O97 O 0.49703 0.43886 0.49985 0.0
O98 O 0.55697 0.25687 0.61153 0.0
H99 H 0.55753 0.40906 0.60482 0.0
H100 H 0.42632 0.23757 0.24903 0.0
H101 H 0.55995 0.46267 0.72005 0.0
Zn102 Zn 0.75767 0.03583 0.82749 0.0
C103 C 0.72533 0.91795 0.72189 0.0
N104 N 0.75575 0.9016 0.77367 0.0
C105 C 0.7757 0.93845 0.8028 0.0
N106 N 0.75821 0.97656 0.77123 0.0
N107 N 0.72747 0.96323 0.71791 0.0
C108 C 0.61606 0.98328 0.64733 0.0
O109 O 0.63117 0.9742 0.72051 0.0
O110 O 0.81934 0.0618 0.85539 0.0
Zn111 Zn 0.70492 1.00098 0.63202 0.0
N112 N 0.72583 1.02318 0.92607 0.0
C113 C 0.65713 0.99802 0.98208 0.0
C114 C 0.68313 1.009 0.91501 0.0
C115 C 0.74385 1.02705 0.00168 0.0
N116 N 0.67502 1.00163 0.05758 0.0
C117 C 0.71785 1.01569 0.06977 0.0
O118 O 0.69011 0.06251 0.66522 0.0
C119 C 0.69546 0.09342 0.71668 0.0
O120 O 0.72087 0.08772 0.778 0.0
H121 H 0.66956 1.00634 0.85427 0.0
H122 H 0.77765 0.03917 0.00818 0.0
C123 C 0.73826 1.00638 0.46969 0.0
C124 C 0.77118 1.01406 0.41014 0.0
C125 C 0.82614 1.01777 0.51442 0.0
C126 C 0.7932 1.01115 0.57299 0.0
N127 N 0.75 1.00564 0.54935 0.0
N128 N 0.81437 1.01935 0.43473 0.0
H129 H 0.70357 1.00114 0.45386 0.0
C130 C 0.82089 0.098 0.89687 0.0
O131 O 0.78321 0.11605 0.92152 0.0
O132 O 0.64409 0.9854 0.58964 0.0
H133 H 0.80184 1.01101 0.63684 0.0
H134 H 0.62303 0.98669 0.97435 0.0
H135 H 0.86069 1.02225 0.53213 0.0
Zn136 Zn 0.58041 0.70626 0.36896 0.0
C137 C 0.64194 0.78148 0.53495 0.0
N138 N 0.67908 0.76217 0.50561 0.0
C139 C 0.66304 0.73033 0.45618 0.0
N140 N 0.61775 0.73099 0.4539 0.0
N141 N 0.60407 0.76192 0.50652 0.0
C142 C 0.48301 0.82138 0.63636 0.0
O143 O 0.46567 0.78299 0.65918 0.0
O144 O 0.59689 0.64489 0.33178 0.0
Zn145 Zn 0.54514 0.76013 0.56355 0.0
N146 N 0.57644 0.74877 0.28185 0.0
C147 C 0.56571 0.82396 0.239 0.0
C148 C 0.57294 0.79291 0.30076 0.0
C149 C 0.5731 0.73425 0.20389 0.0
N150 N 0.56128 0.80942 0.16116 0.0
C151 C 0.56417 0.7652 0.14152 0.0
O152 O 0.49299 0.72595 0.51069 0.0
C153 C 0.48704 0.69992 0.45039 0.0
O154 O 0.51826 0.69271 0.40044 0.0
H155 H 0.57505 0.80375 0.36339 0.0
H156 H 0.5774 0.69899 0.19159 0.0
C157 C 0.55217 0.7403 0.73662 0.0
C158 C 0.55836 0.71074 0.80221 0.0
C159 C 0.57183 0.65158 0.70882 0.0
C160 C 0.56529 0.6809 0.64424 0.0
N161 N 0.55571 0.72456 0.65928 0.0
N162 N 0.56817 0.66711 0.78605 0.0
H163 H 0.54413 0.77515 0.7466 0.0
C164 C 0.60303 0.61854 0.39108 0.0
O165 O 0.6134 0.63579 0.46207 0.0
O166 O 0.51933 0.82114 0.59546 0.0
H167 H 0.56722 0.66902 0.58229 0.0
H168 H 0.56294 0.85925 0.25286 0.0
H169 H 0.57948 0.61671 0.69778 0.0
Zn170 Zn 0.36901 0.07854 0.63027 0.0
C171 C 0.30442 0.1347 0.81764 0.0
N172 N 0.32615 0.17196 0.79438 0.0
C173 C 0.35312 0.15745 0.73496 0.0
N174 N 0.34737 0.11309 0.72115 0.0
N175 N 0.31772 0.09819 0.77494 0.0
C176 C 0.25586 0.97195 0.88341 0.0
O177 O 0.29463 0.95465 0.90396 0.0
O178 O 0.43069 0.09556 0.59362 0.0
Zn179 Zn 0.31753 0.03655 0.82292 0.0
N180 N 0.32418 0.07602 0.54589 0.0
C181 C 0.24739 0.07394 0.50887 0.0
C182 C 0.28049 0.07812 0.56799 0.0
C183 C 0.33629 0.06969 0.46714 0.0
N184 N 0.25938 0.06757 0.43013 0.0
C185 C 0.30304 0.06525 0.40696 0.0
O186 O 0.35412 0.98633 0.76672 0.0
C187 C 0.37872 0.98339 0.70379 0.0
O188 O 0.38306 1.01642 0.65693 0.0
H189 H 0.27145 0.08255 0.63111 0.0
H190 H 0.37148 0.06881 0.45229 0.0
C191 C 0.33058 0.04377 -0.00119 0.0
C192 C 0.35763 0.0509 0.06786 0.0
C193 C 0.42114 0.05765 0.98191 0.0
C194 C 0.39421 0.05106 0.91403 0.0
N195 N 0.34965 0.04427 0.92367 0.0
N196 N 0.40231 0.05741 0.05685 0.0
H197 H 0.29518 0.03725 0.00417 0.0
C198 C 0.45687 0.09312 0.65434 0.0
O199 O 0.44007 0.09982 0.72708 0.0
O200 O 0.25558 1.00961 0.84655 0.0
H201 H 0.40859 0.05122 0.85374 0.0
H202 H 0.21243 0.07553 0.52538 0.0
H203 H 0.45672 0.06297 0.97523 0.0
Zn204 Zn 0.99319 0.86951 0.8706 0.0
C205 C 0.93719 0.79541 0.04571 0.0
N206 N 0.89968 0.81689 0.02364 0.0
C207 C 0.91439 0.84886 0.97316 0.0
N208 N 0.95924 0.84603 0.9624 0.0
N209 N 0.97406 0.8135 0.01066 0.0
C210 C 0.09652 0.75517 0.13606 0.0
O211 O 0.11244 0.79356 0.16228 0.0
O212 O 0.98009 0.93338 0.84305 0.0
Zn213 Zn 0.0337 0.81592 0.06377 0.0
N214 N 0.9854 0.82954 0.77887 0.0
C215 C 0.97343 0.75525 0.73114 0.0
C216 C 0.97766 0.7856 0.79507 0.0
C217 C 0.98891 0.84449 0.70101 0.0
N218 N 0.97722 0.77002 0.65341 0.0
C219 C 0.98454 0.81397 0.63623 0.0
O220 O 0.08411 0.84822 0.00309 0.0
C221 C 0.09024 0.87101 0.93871 0.0
O222 O 0.0584 0.87805 0.88961 0.0
H223 H 0.97532 0.77412 0.85722 0.0
H224 H 0.9961 0.87947 0.69008 0.0
C225 C 1.01759 0.83752 0.23519 0.0
C226 C 1.00999 0.86809 0.29917 0.0
C227 C 1.01914 0.92828 0.20627 0.0
C228 C 1.02641 0.89795 0.14345 0.0
N229 N 1.0253 0.85329 0.15883 0.0
N230 N 1.01111 0.9127 0.28228 0.0
H231 H 1.01672 0.80177 0.24528 0.0
C232 C 0.98038 0.95883 0.90476 0.0
O233 O 0.97392 0.94087 0.97663 0.0
O234 O 0.06025 0.75523 0.09496 0.0
H235 H 0.03276 0.90985 0.08251 0.0
H236 H 0.96751 0.72014 0.74317 0.0
H237 H 1.01977 0.96393 0.19476 0.0
Zn238 Zn 0.25892 0.54 0.31916 0.0
C239 C 0.22274 0.42096 0.22731 0.0
N240 N 0.247 0.40422 0.28883 0.0
C241 C 0.26917 0.44046 0.31659 0.0
N242 N 0.25857 0.4781 0.27422 0.0
N243 N 0.23065 0.46484 0.21624 0.0
C244 C 0.12323 0.49202 0.15432 0.0
O245 O 0.14251 0.49362 0.22606 0.0
O246 O 0.32064 0.56489 0.34916 0.0
Zn247 Zn 0.21068 0.49706 0.12179 0.0
N248 N 0.22293 0.53685 0.41636 0.0
C249 C 0.15021 0.54196 0.47385 0.0
C250 C 0.17833 0.54363 0.40661 0.0
C251 C 0.24076 0.52856 0.49091 0.0
N252 N 0.16789 0.53372 0.54832 0.0
C253 C 0.21255 0.52718 0.55937 0.0
O254 O 0.20139 0.56189 0.13808 0.0
C255 C 0.20549 0.59424 0.18706 0.0
O256 O 0.22635 0.58939 0.2541 0.0
H257 H 0.16474 0.55028 0.34692 0.0
H258 H 0.27622 0.52211 0.49578 0.0
C259 C 0.23826 0.49531 0.95519 0.0
C260 C 0.26911 0.49053 0.89134 0.0
C261 C 0.3249 0.46994 0.98687 0.0
C262 C 0.29429 0.47509 0.05006 0.0
N263 N 0.25165 0.48769 0.03294 0.0
N264 N 0.31175 0.47799 0.90918 0.0
H265 H 0.20426 0.50602 0.94374 0.0
C266 C 0.32115 0.60023 0.39298 0.0
O267 O 0.28284 0.6173 0.41664 0.0
O268 O 0.1472 0.48195 0.09319 0.0
H269 H 0.30448 0.46938 0.11232 0.0
H270 H 0.11461 0.54713 0.46701 0.0
H271 H 0.35889 0.45987 -0.00053 0.0
C272 C 0.03488 1.01019 0.83702 0.0
C273 C 1.00403 1.00208 0.90017 0.0
C274 C 0.06492 0.0462 0.84111 0.0
C275 C 0.06535 0.07486 0.90876 0.0
H276 H 0.03728 0.98753 0.78576 0.0
H277 H 0.08866 0.05096 0.79215 0.0
S278 S 0.98589 0.07281 0.08237 0.0
N279 N 0.97185 0.0291 0.02649 0.0
N280 N 0.02839 0.0963 0.03482 0.0
C281 C 0.03294 0.06859 0.96981 0.0
C282 C 1.00216 0.03239 0.96518 0.0
C283 C 0.02979 0.57412 0.19355 0.0
C284 C 1.00082 0.56804 0.1272 0.0
C285 C 0.0687 0.54885 0.20159 0.0
C286 C 0.08082 0.51667 0.14306 0.0
H287 H 1.02151 0.59748 0.2417 0.0
H288 H 0.08943 0.55485 0.25457 0.0
S289 S 1.01883 0.49044 0.95364 0.0
N290 N 0.98831 0.52929 -0.00133 0.0
N291 N 0.06247 0.48214 0.01343 0.0
C292 C 0.05355 0.51175 0.07401 0.0
C293 C 1.01343 0.53748 0.06595 0.0
C294 C 0.54415 0.56629 0.33986 0.0
C295 C 0.58155 0.57424 0.39008 0.0
C296 C 0.5162 0.52928 0.35301 0.0
C297 C 0.52464 0.4993 0.41701 0.0
H298 H 0.53503 0.58994 0.29279 0.0
H299 H 0.48718 0.52482 0.31434 0.0
S300 S 0.62322 0.50124 0.55532 0.0
N301 N 0.62898 0.54624 0.49827 0.0
N302 N 0.57667 0.47717 0.52388 0.0
C303 C 0.5636 0.50559 0.46409 0.0
C304 C 0.59212 0.54283 0.4501 0.0
C305 C 0.54418 1.00702 0.70835 0.0
C306 C 0.57253 1.00654 0.64029 0.0
C307 C 0.50761 0.03585 0.71237 0.0
C308 C 0.49728 0.06506 0.64796 0.0
H309 H 0.55105 0.98599 0.76055 0.0
H310 H 0.48709 0.03483 0.76661 0.0
S311 S 0.55799 0.07425 0.45251 0.0
N312 N 0.58605 0.03608 0.50423 0.0
N313 N 0.5162 0.0898 0.51172 0.0
C314 C 0.52382 0.06355 0.57772 0.0
C315 C 0.56159 0.0343 0.57375 0.0
C316 C 0.26143 0.14576 0.94478 0.0
C317 C 0.26138 0.13971 0.86023 0.0
C318 C 0.22691 0.16951 0.98362 0.0
C319 C 0.19151 0.18905 0.93939 0.0
H320 H 0.29027 0.13562 0.98008 0.0
H321 H 0.22967 0.17546 0.04838 0.0
S322 S 0.17902 0.18626 0.71507 0.0
N323 N 0.22349 0.15516 0.73307 0.0
N324 N 0.16118 0.20302 0.80509 0.0
C325 C 0.19089 0.18254 0.85485 0.0
C326 C 0.22513 0.15693 0.81568 0.0
C327 C 0.90787 0.71301 0.20737 0.0
C328 C 0.88476 0.68013 0.16216 0.0
C329 C 0.93129 0.74794 0.16905 0.0
C330 C 0.93337 0.75081 0.084 0.0
H331 H 0.90493 0.71373 0.27305 0.0
H332 H 0.94386 0.77512 0.20609 0.0
S333 S 0.88015 0.67275 0.93753 0.0
N334 N 0.86607 0.65278 0.0276 0.0
N335 N 0.91237 0.71655 0.95564 0.0
C336 C 0.91345 0.71617 0.0383 0.0
C337 C 0.88852 0.68131 0.07725 0.0
C338 C 0.38402 0.40198 0.37629 0.0
C339 C 0.37827 0.38818 0.45742 0.0
C340 C 0.35011 0.42502 0.3339 0.0
C341 C 0.30849 0.43422 0.37019 0.0
H342 H 0.41324 0.39214 0.34289 0.0
H343 H 0.355 0.43193 0.2698 0.0
S344 S 0.27607 0.40704 0.58171 0.0
N345 N 0.3281 0.38909 0.57417 0.0
N346 N 0.26344 0.42812 0.49181 0.0
C347 C 0.30262 0.4219 0.45166 0.0
C348 C 0.33761 0.39995 0.49578 0.0
C349 C 0.68232 0.89427 0.59668 0.0
C350 C 0.69367 0.88768 0.67864 0.0
C351 C 0.65809 0.86171 0.55304 0.0
C352 C 0.64592 0.82061 0.58885 0.0
H353 H 0.69545 0.92278 0.56409 0.0
H354 H 0.65309 0.86671 0.48837 0.0
S355 S 0.672 0.78468 0.79878 0.0
N356 N 0.69094 0.83647 0.79369 0.0
N357 N 0.64966 0.77414 0.70897 0.0
C358 C 0.65668 0.81382 0.67072 0.0
C359 C 0.67981 0.84744 0.716 0.0
C360 C 0.86664 0.15211 0.97998 0.0
C361 C 0.86396 0.12102 0.91539 0.0
C362 C 0.90619 0.17611 -0.00358 0.0
C363 C 0.94459 0.17063 0.94806 0.0
H364 H 0.83787 0.15797 0.0185 0.0
H365 H 0.9065 0.19934 0.04704 0.0
S366 S 0.95454 0.09387 0.76975 0.0
N367 N 0.90311 0.0861 0.80291 0.0
N368 N 0.97671 0.13147 0.83123 0.0
C369 C 0.94215 0.13953 0.88291 0.0
C370 C 0.90215 0.11466 0.86733 0.0
C371 C 0.94192 0.43566 0.15025 0.0
C372 C 0.90406 0.43632 0.20159 0.0
C373 C 0.96722 0.39668 0.13827 0.0
C374 C 0.95561 0.35623 0.17634 0.0
H375 H 0.95212 0.46558 0.11819 0.0
H376 H 0.99542 0.39811 0.09704 0.0
S377 S 0.86149 0.34022 0.32131 0.0
N378 N 0.85782 0.39332 0.29435 0.0
N379 N 0.90493 0.31983 0.27165 0.0
C380 C 0.91863 0.35658 0.22985 0.0
C381 C 0.89304 0.39658 0.24258 0.0
C382 C 0.70668 0.4138 0.45073 0.0
C383 C 0.70763 0.44674 0.38918 0.0
C384 C 0.6682 0.38795 0.46602 0.0
C385 C 0.62905 0.3932 0.41941 0.0
H386 H 0.73585 0.40822 0.48848 0.0
H387 H 0.66908 0.36401 0.51544 0.0
S388 S 0.61467 0.47392 0.24831 0.0
N389 N 0.66614 0.48277 0.28066 0.0
N390 N 0.59456 0.43374 0.30654 0.0
C391 C 0.62997 0.42557 0.35629 0.0
C392 C 0.6689 0.45246 0.34208 0.0
C393 C 0.63342 0.13616 0.64853 0.0
C394 C 0.66918 0.13557 0.7049 0.0
C395 C 0.60817 0.17499 0.63389 0.0
C396 C 0.61781 0.21537 0.67414 0.0
H397 H 0.62479 0.10628 0.61473 0.0
H398 H 0.58163 0.17351 0.58906 0.0
S399 S 0.70612 0.23173 0.83105 0.0
N400 N 0.71135 0.17878 0.80389 0.0
N401 N 0.66448 0.25185 0.77615 0.0
C402 C 0.65279 0.21514 0.73209 0.0
C403 C 0.67826 0.17535 0.74754 0.0
C404 C 0.71971 0.65647 0.29695 0.0
C405 C 0.75941 0.64337 0.33667 0.0
C406 C 0.68764 0.68351 0.33601 0.0
C407 C 0.69329 0.69701 0.41719 0.0
H408 H 0.71558 0.64966 0.23262 0.0
H409 H 0.66006 0.69653 0.30064 0.0
S410 S 0.79205 0.67279 0.54721 0.0
N411 N 0.80334 0.64781 0.46005 0.0
N412 N 0.74174 0.69468 0.53623 0.0
C413 C 0.73198 0.68232 0.45858 0.0
C414 C 0.76515 0.6562 0.41792 0.0
C415 C 0.42642 0.25926 0.70065 0.0
C416 C 0.43007 0.26182 0.61572 0.0
C417 C 0.40472 0.22303 0.73827 0.0
C418 C 0.38411 0.18875 0.69246 0.0
H419 H 0.43679 0.28721 0.73801 0.0
H420 H 0.40135 0.22351 0.80389 0.0
S421 S 0.38095 0.18232 0.46737 0.0
N422 N 0.41156 0.22706 0.48672 0.0
N423 N 0.367 0.16168 0.55695 0.0
C424 C 0.38816 0.19063 0.60751 0.0
C425 C 0.41201 0.22651 0.5694 0.0
C426 C 0.85599 0.92315 0.81658 0.0
C427 C 0.81528 0.93358 0.85519 0.0
C428 C 0.88865 0.89674 0.85522 0.0
C429 C 0.88296 0.88163 0.93537 0.0
H430 H 0.8604 0.93096 0.7527 0.0
H431 H 0.91644 0.8849 0.81947 0.0
S432 S 0.78112 0.8978 0.06139 0.0
N433 N 0.76995 0.92432 0.97573 0.0
N434 N 0.83275 0.87901 0.05183 0.0
C435 C 0.84312 0.89373 0.97591 0.0
C436 C 0.80922 0.91902 0.93535 0.0
C437 C 0.20537 0.3817 0.09711 0.0
C438 C 0.193 0.39288 0.17662 0.0
C439 C 0.18415 0.34643 0.0559 0.0
C440 C 0.15016 0.32054 0.09287 0.0
H441 H 0.2338 0.39781 0.06893 0.0
H442 H 0.19713 0.33695 -0.00319 0.0
S443 S 0.09872 0.34478 0.29272 0.0
N444 N 0.13954 0.38172 0.28528 0.0
N445 N 0.10043 0.31453 0.20851 0.0
C446 C 0.13457 0.33469 0.16903 0.0
C447 C 0.15601 0.37095 0.21088 0.0
C448 C 0.40153 0.61791 0.36307 0.0
C449 C 0.36359 0.62423 0.41203 0.0
C450 C 0.4407 0.64286 0.37577 0.0
C451 C 0.44411 0.67494 0.43877 0.0
H452 H 0.40072 0.59423 0.31314 0.0
H453 H 0.46855 0.63685 0.33523 0.0
S454 S 0.35513 0.70178 0.58834 0.0
N455 N 0.33242 0.6635 0.5287 0.0
N456 N 0.40617 0.70985 0.55314 0.0
C457 C 0.40672 0.68074 0.4896 0.0
C458 C 0.36656 0.65557 0.47613 0.0
C459 C 0.40164 0.90368 0.73457 0.0
C460 C 0.4056 0.94223 0.68593 0.0
C461 C 0.42727 0.86512 0.71879 0.0
C462 C 0.45852 0.86363 0.65458 0.0
H463 H 0.37838 0.90309 0.785 0.0
H464 H 0.42254 0.83617 0.75746 0.0
S465 S 0.48159 0.95479 0.50764 0.0
N466 N 0.44323 0.97566 0.56888 0.0
N467 N 0.49162 0.90383 0.54154 0.0
C468 C 0.46326 0.90193 0.60602 0.0
C469 C 0.43675 0.94094 0.62101 0.0
C470 C 0.13554 0.9302 0.86733 0.0
C471 C 0.13352 0.89498 0.92462 0.0
C472 C 0.17464 0.95554 0.85572 0.0
C473 C 0.21386 0.94643 0.89991 0.0
H474 H 0.10642 0.93883 0.83147 0.0
H475 H 0.17423 0.98206 0.81083 0.0
S476 S 0.22667 0.85852 0.05838 0.0
N477 N 0.17451 0.85308 0.02703 0.0
N478 N 0.248 0.9 0.00464 0.0
C479 C 0.21243 0.91137 0.95746 0.0
C480 C 0.1724 0.88588 0.96992 0.0
C481 C 0.15691 0.71216 0.20871 0.0
C482 C 0.12303 0.71343 0.14893 0.0
C483 C 0.18395 0.67407 0.21986 0.0
C484 C 0.17892 0.63581 0.17064 0.0
H485 H 0.1625 0.74081 0.24785 0.0
H486 H 0.20891 0.67466 0.26763 0.0
S487 S 0.09563 0.62245 0.00342 0.0
N488 N 0.08614 0.67306 0.0396 0.0
N489 N 0.13718 0.60224 0.05827 0.0
C490 C 0.14535 0.63695 0.10978 0.0
C491 C 0.11735 0.67542 0.09963 0.0
C492 C 0.08702 0.25046 0.4316 0.0
C493 C 0.05798 0.21602 0.40757 0.0
C494 C 0.08912 0.26459 0.51263 0.0
C495 C 0.06277 0.2442 0.57292 0.0
H496 H 0.1093 0.26561 0.38781 0.0
H497 H 0.11249 0.29092 0.52851 0.0
S498 S 0.98018 0.15308 0.54004 0.0
N499 N 1.00183 0.16209 0.44908 0.0
N500 N 1.00529 0.18867 0.60205 0.0
C501 C 0.03334 0.20966 0.54949 0.0
C502 C 0.03122 0.19541 0.46665 0.0
C503 C 0.85207 0.5342 0.78206 0.0
C504 C 0.80962 0.54843 0.80847 0.0
C505 C 0.86382 0.53541 0.69997 0.0
C506 C 0.83342 0.54987 0.64036 0.0
H507 H 0.8768 0.52216 0.82487 0.0
H508 H 0.89733 0.52525 0.68309 0.0
S509 S 0.7166 0.58705 0.67584 0.0
N510 N 0.7361 0.57533 0.76738 0.0
N511 N 0.75792 0.57615 0.61239 0.0
C512 C 0.79 0.56187 0.66489 0.0
C513 C 0.77816 0.56137 0.74905 0.0
C514 C 0.51348 0.31569 0.93145 0.0
C515 C 0.50749 0.35953 0.90183 0.0
C516 C 0.50227 0.30446 0.01181 0.0
C517 C 0.48521 0.33663 0.06613 0.0
H518 H 0.52792 0.28996 0.89327 0.0
H519 H 0.50788 0.27041 0.03207 0.0
S520 S 0.4596 0.45515 0.01759 0.0
N521 N 0.48068 0.43465 0.93266 0.0
N522 N 0.45995 0.41337 0.08316 0.0
C523 C 0.47821 0.3803 0.03709 0.0
C524 C 0.48934 0.39174 0.95525 0.0
C525 C 0.71689 0.03109 0.29767 0.0
C526 C 0.75972 1.01689 0.32222 0.0
C527 C 0.70456 0.03161 0.21577 0.0
C528 C 0.7347 1.01904 0.15438 0.0
H529 H 0.69232 0.04203 0.34165 0.0
H530 H 0.67084 0.04186 0.20046 0.0
S531 S 0.85248 0.98309 0.18501 0.0
N532 N 0.83332 0.99213 0.27767 0.0
N533 N 0.81056 0.99477 0.12326 0.0
C534 C 0.77849 1.00707 0.17729 0.0
C535 C 0.79088 1.00572 0.26123 0.0
C536 C 0.5738 0.78039 0.99347 0.0
C537 C 0.55909 0.75136 0.05526 0.0
C538 C 0.57159 0.76802 0.91146 0.0
C539 C 0.55538 0.72575 0.88798 0.0
H540 H 0.58817 0.81264 0.00856 0.0
H541 H 0.58397 0.79139 0.86667 0.0
S542 S 0.50397 0.64113 0.02392 0.0
N543 N 0.52044 0.68148 0.08567 0.0
N544 N 0.51876 0.65728 0.93182 0.0
C545 C 0.53827 0.69736 0.94859 0.0
C546 C 0.53956 0.71034 0.0321 0.0
C547 C 0.35454 0.03774 0.29672 0.0
C548 C 0.31448 0.05904 0.31954 0.0
C549 C 0.3671 0.03422 0.21505 0.0
C550 C 0.33995 0.05114 0.15227 0.0
H551 H 0.37668 1.02357 0.34199 0.0
H552 H 0.39871 1.01829 0.20104 0.0
S553 S 0.23005 0.10718 0.17878 0.0
N554 N 0.24651 0.09541 0.2721 0.0
N555 N 0.26998 0.08842 0.11855 0.0
C556 C 0.29885 0.07083 0.17372 0.0
C557 C 0.28615 0.07473 0.25724 0.0
C558 C 1.02196 0.81488 0.41592 0.0
C559 C 1.00119 0.85339 0.3841 0.0
C560 C 1.01592 0.80229 0.49733 0.0
C561 C 0.98945 0.82801 0.55037 0.0
H562 H 0.04402 0.79483 0.37855 0.0
H563 H 0.03298 0.77271 0.51945 0.0
S564 S 0.92405 0.92907 0.49587 0.0
N565 N 0.95031 0.91527 0.41119 0.0
N566 N 0.93952 0.89168 0.56421 0.0
C567 C 0.96766 0.86593 0.5192 0.0
C568 C 0.97348 0.87861 0.43618 0.0
C569 C 0.20209 0.49225 0.69548 0.0
C570 C 0.22926 0.51731 0.64247 0.0
C571 C 0.21527 0.48351 0.7756 0.0
C572 C 0.25621 0.49944 0.80595 0.0
H573 H 0.1703 0.47906 0.67485 0.0
H574 H 0.19331 0.46383 0.81387 0.0
S575 S 0.33866 0.56888 0.69446 0.0
N576 N 0.29829 0.55986 0.62789 0.0
N577 N 0.32355 0.54222 0.77799 0.0
C578 C 0.28393 0.5243 0.75379 0.0
C579 C 0.27033 0.53362 0.67223 0.0
loop_
_geom_bond_atom_site_label_1
_geom_bond_atom_site_label_2
_geom_bond_distance
_geom_bond_site_symmetry_2
_ccdc_geom_bond_type
Zn0 N4 2.020 . S
Zn0 O8 2.019 . S
Zn0 N10 2.119 . S
Zn0 O18 1.975 1_455 S
C1 N2 1.334 . S
C1 N5 1.336 . S
N2 C1 1.334 . S
N2 C3 1.334 1_554 S
C3 N2 1.334 1_556 S
C3 N4 1.336 . S
N4 Zn0 2.020 . S
N4 C3 1.336 . S
N4 N5 1.354 1_556 S
N5 C1 1.336 . S
N5 N4 1.354 1_554 S
N5 Zn9 2.020 1_455 S
C6 O7 1.244 . S
C6 O30 1.257 . S
O7 C6 1.244 . S
O8 Zn0 2.019 . S
O8 C28 1.257 . S
Zn9 N5 2.020 1_655 S
Zn9 O16 1.975 . S
Zn9 N25 2.119 . S
Zn9 O30 2.019 . S
N10 Zn0 2.119 . S
N10 C12 1.334 1_455 S
N10 C13 1.328 . S
C11 C12 1.391 . S
C11 N14 1.329 . S
C11 H32 0.930 . S
C12 N10 1.334 1_655 S
C12 C11 1.391 . S
C12 H19 0.930 . S
C13 N10 1.328 . S
C13 C15 1.392 . S
C13 H20 0.930 . S
N14 C11 1.329 . S
N14 C15 1.331 1_655 S
C15 C13 1.392 . S
C15 N14 1.331 1_455 S
O16 Zn9 1.975 . S
O16 C17 1.252 1_554 S
C17 O16 1.252 1_556 S
C17 O18 1.252 . S
O18 Zn0 1.975 1_655 S
O18 C17 1.252 . S
H19 C12 0.930 . S
H20 C13 0.930 . S
C21 C22 1.392 . S
C21 N25 1.328 . S
C21 H27 0.930 . S
C22 C21 1.392 . S
C22 N26 1.331 . S
C23 C24 1.393 . S
C23 N26 1.329 . S
C23 H33 0.929 1_655 S
C24 C23 1.393 . S
C24 N25 1.339 . S
C24 H31 0.922 1_655 S
N25 Zn9 2.119 . S
N25 C21 1.328 . S
N25 C24 1.339 . S
N26 C22 1.331 . S
N26 C23 1.329 . S
H27 C21 0.930 . S
C28 O8 1.257 . S
C28 O29 1.244 . S
O29 C28 1.244 . S
O30 C6 1.257 . S
O30 Zn9 2.019 . S
H31 C24 0.922 1_455 S
H32 C11 0.930 . S
H33 C23 0.929 1_455 S
Zn34 N38 2.020 . S
Zn34 O42 2.019 . S
Zn34 N44 2.119 . S
Zn34 O52 1.975 . S
C35 N36 1.334 . S
C35 N39 1.336 . S
N36 C35 1.334 . S
N36 C37 1.334 . S
C37 N36 1.334 . S
C37 N38 1.336 . S
N38 Zn34 2.020 . S
N38 C37 1.336 . S
N38 N39 1.354 . S
N39 C35 1.336 . S
N39 N38 1.354 . S
N39 Zn43 2.020 . S
C40 O41 1.244 . S
C40 O64 1.257 . S
O41 C40 1.244 . S
O42 Zn34 2.019 . S
O42 C62 1.257 . S
Zn43 N39 2.020 . S
Zn43 O50 1.975 . S
Zn43 N59 2.119 . S
Zn43 O64 2.019 . S
N44 Zn34 2.119 . S
N44 C46 1.334 . S
N44 C47 1.328 1_554 S
C45 C46 1.391 1_556 S
C45 N48 1.329 . S
C45 H66 0.930 . S
C46 N44 1.334 . S
C46 C45 1.391 1_554 S
C46 H53 0.930 . S
C47 N44 1.328 1_556 S
C47 C49 1.392 . S
C47 H54 0.930 . S
N48 C45 1.329 . S
N48 C49 1.331 . S
C49 C47 1.392 . S
C49 N48 1.331 . S
O50 Zn43 1.975 . S
O50 C51 1.252 . S
C51 O50 1.252 . S
C51 O52 1.252 . S
O52 Zn34 1.975 . S
O52 C51 1.252 . S
H53 C46 0.930 . S
H54 C47 0.930 . S
C55 C56 1.392 . S
C55 N59 1.328 . S
C55 H61 0.930 . S
C56 C55 1.392 . S
C56 N60 1.331 . S
C57 C58 1.391 . S
C57 N60 1.329 . S
C57 H67 0.930 . S
C58 C57 1.391 . S
C58 N59 1.334 . S
C58 H65 0.930 . S
N59 Zn43 2.119 . S
N59 C55 1.328 . S
N59 C58 1.334 . S
N60 C56 1.331 . S
N60 C57 1.329 . S
H61 C55 0.930 . S
C62 O42 1.257 . S
C62 O63 1.244 . S
O63 C62 1.244 . S
O64 C40 1.257 . S
O64 Zn43 2.019 . S
H65 C58 0.930 . S
H66 C45 0.930 . S
H67 C57 0.930 . S
Zn68 N72 2.020 . S
Zn68 O76 2.019 . S
Zn68 N78 2.119 . S
Zn68 O86 1.975 . S
C69 N70 1.334 . S
C69 N73 1.336 . S
N70 C69 1.334 . S
N70 C71 1.334 . S
C71 N70 1.334 . S
C71 N72 1.336 . S
N72 Zn68 2.020 . S
N72 C71 1.336 . S
N72 N73 1.354 . S
N73 C69 1.336 . S
N73 N72 1.354 . S
N73 Zn77 2.020 . S
C74 O75 1.244 . S
C74 O98 1.257 . S
O75 C74 1.244 . S
O76 Zn68 2.019 . S
O76 C96 1.257 . S
Zn77 N73 2.020 . S
Zn77 O84 1.975 . S
Zn77 N93 2.119 . S
Zn77 O98 2.019 . S
N78 Zn68 2.119 . S
N78 C80 1.334 . S
N78 C81 1.328 . S
C79 C80 1.391 . S
C79 N82 1.329 . S
C79 H100 0.930 . S
C80 N78 1.334 . S
C80 C79 1.391 . S
C80 H87 0.930 . S
C81 N78 1.328 . S
C81 C83 1.392 . S
C81 H88 0.930 . S
N82 C79 1.329 . S
N82 C83 1.331 . S
C83 C81 1.392 . S
C83 N82 1.331 . S
O84 Zn77 1.975 . S
O84 C85 1.252 . S
C85 O84 1.252 . S
C85 O86 1.252 . S
O86 Zn68 1.975 . S
O86 C85 1.252 . S
H87 C80 0.930 . S
H88 C81 0.930 . S
C89 C90 1.392 . S
C89 N93 1.328 . S
C89 H95 0.930 . S
C90 C89 1.392 . S
C90 N94 1.331 . S
C91 C92 1.391 . S
C91 N94 1.329 . S
C91 H101 0.930 . S
C92 C91 1.391 . S
C92 N93 1.334 . S
C92 H99 0.930 . S
N93 Zn77 2.119 . S
N93 C89 1.328 . S
N93 C92 1.334 . S
N94 C90 1.331 . S
N94 C91 1.329 . S
H95 C89 0.930 . S
C96 O76 1.257 . S
C96 O97 1.244 . S
O97 C96 1.244 . S
O98 C74 1.257 . S
O98 Zn77 2.019 . S
H99 C92 0.930 . S
H100 C79 0.930 . S
H101 C91 0.930 . S
Zn102 N106 2.020 1_545 S
Zn102 O110 2.019 . S
Zn102 N112 2.119 . S
Zn102 O120 1.975 . S
C103 N104 1.334 . S
C103 N107 1.336 . S
N104 C103 1.334 . S
N104 C105 1.334 . S
C105 N104 1.334 . S
C105 N106 1.336 . S
N106 Zn102 2.020 1_565 S
N106 C105 1.336 . S
N106 N107 1.354 . S
N107 C103 1.336 . S
N107 N106 1.354 . S
N107 Zn111 2.020 . S
C108 O109 1.244 . S
C108 O132 1.257 . S
O109 C108 1.244 . S
O110 Zn102 2.019 . S
O110 C130 1.257 . S
Zn111 N107 2.020 . S
Zn111 O118 1.975 1_565 S
Zn111 N127 2.119 1_565 S
Zn111 O132 2.019 . S
N112 Zn102 2.119 . S
N112 C114 1.334 . S
N112 C115 1.328 1_556 S
C113 C114 1.391 1_554 S
C113 N116 1.329 . S
C113 H134 0.930 . S
C114 N112 1.334 . S
C114 C113 1.391 1_556 S
C114 H121 0.930 . S
C115 N112 1.328 1_554 S
C115 C117 1.392 . S
C115 H122 0.930 . S
N116 C113 1.329 . S
N116 C117 1.331 . S
C117 C115 1.392 . S
C117 N116 1.331 . S
O118 Zn111 1.975 1_545 S
O118 C119 1.252 . S
C119 O118 1.252 . S
C119 O120 1.252 . S
O120 Zn102 1.975 . S
O120 C119 1.252 . S
H121 C114 0.930 . S
H122 C115 0.930 . S
C123 C124 1.392 . S
C123 N127 1.328 . S
C123 H129 0.930 1_545 S
C124 C123 1.392 . S
C124 N128 1.331 . S
C125 C126 1.391 . S
C125 N128 1.329 . S
C125 H135 0.930 . S
C126 C125 1.391 . S
C126 N127 1.334 . S
C126 H133 0.930 . S
N127 Zn111 2.119 1_545 S
N127 C123 1.328 . S
N127 C126 1.334 . S
N128 C124 1.331 . S
N128 C125 1.329 . S
H129 C123 0.930 1_565 S
C130 O110 1.257 . S
C130 O131 1.244 . S
O131 C130 1.244 . S
O132 C108 1.257 . S
O132 Zn111 2.019 . S
H133 C126 0.930 . S
H134 C113 0.930 . S
H135 C125 0.930 . S
Zn136 N140 2.020 . S
Zn136 O144 2.019 . S
Zn136 N146 2.119 . S
Zn136 O154 1.975 . S
C137 N138 1.334 . S
C137 N141 1.336 . S
N138 C137 1.334 . S
N138 C139 1.334 . S
C139 N138 1.334 . S
C139 N140 1.336 . S
N140 Zn136 2.020 . S
N140 C139 1.336 . S
N140 N141 1.354 . S
N141 C137 1.336 . S
N141 N140 1.354 . S
N141 Zn145 2.020 . S
C142 O143 1.244 . S
C142 O166 1.257 . S
O143 C142 1.244 . S
O144 Zn136 2.019 . S
O144 C164 1.257 . S
Zn145 N141 2.020 . S
Zn145 O152 1.975 . S
Zn145 N161 2.119 . S
Zn145 O166 2.019 . S
N146 Zn136 2.119 . S
N146 C148 1.334 . S
N146 C149 1.328 . S
C147 C148 1.391 . S
C147 N150 1.329 . S
C147 H168 0.930 . S
C148 N146 1.334 . S
C148 C147 1.391 . S
C148 H155 0.930 . S
C149 N146 1.328 . S
C149 C151 1.392 . S
C149 H156 0.930 . S
N150 C147 1.329 . S
N150 C151 1.331 . S
C151 C149 1.392 . S
C151 N150 1.331 . S
O152 Zn145 1.975 . S
O152 C153 1.252 . S
C153 O152 1.252 . S
C153 O154 1.252 . S
O154 Zn136 1.975 . S
O154 C153 1.252 . S
H155 C148 0.930 . S
H156 C149 0.930 . S
C157 C158 1.392 . S
C157 N161 1.328 . S
C157 H163 0.930 . S
C158 C157 1.392 . S
C158 N162 1.331 . S
C159 C160 1.391 . S
C159 N162 1.329 . S
C159 H169 0.930 . S
C160 C159 1.391 . S
C160 N161 1.334 . S
C160 H167 0.930 . S
N161 Zn145 2.119 . S
N161 C157 1.328 . S
N161 C160 1.334 . S
N162 C158 1.331 . S
N162 C159 1.329 . S
H163 C157 0.930 . S
C164 O144 1.257 . S
C164 O165 1.244 . S
O165 C164 1.244 . S
O166 C142 1.257 . S
O166 Zn145 2.019 . S
H167 C160 0.930 . S
H168 C147 0.930 . S
H169 C159 0.930 . S
Zn170 N174 2.020 . S
Zn170 O178 2.019 . S
Zn170 N180 2.119 . S
Zn170 O188 1.975 1_545 S
C171 N172 1.334 . S
C171 N175 1.336 . S
N172 C171 1.334 . S
N172 C173 1.334 . S
C173 N172 1.334 . S
C173 N174 1.336 . S
N174 Zn170 2.020 . S
N174 C173 1.336 . S
N174 N175 1.354 . S
N175 C171 1.336 . S
N175 N174 1.354 . S
N175 Zn179 2.020 1_545 S
C176 O177 1.244 . S
C176 O200 1.257 . S
O177 C176 1.244 . S
O178 Zn170 2.019 . S
O178 C198 1.257 . S
Zn179 N175 2.020 1_565 S
Zn179 O186 1.975 . S
Zn179 N195 2.119 . S
Zn179 O200 2.019 . S
N180 Zn170 2.119 . S
N180 C182 1.334 1_545 S
N180 C183 1.328 . S
C181 C182 1.391 . S
C181 N184 1.329 . S
C181 H202 0.930 . S
C182 N180 1.334 1_565 S
C182 C181 1.391 . S
C182 H189 0.930 . S
C183 N180 1.328 . S
C183 C185 1.392 . S
C183 H190 0.930 . S
N184 C181 1.329 . S
N184 C185 1.331 1_565 S
C185 C183 1.392 . S
C185 N184 1.331 1_545 S
O186 Zn179 1.975 . S
O186 C187 1.252 . S
C187 O186 1.252 . S
C187 O188 1.252 . S
O188 Zn170 1.975 1_565 S
O188 C187 1.252 . S
H189 C182 0.930 . S
H190 C183 0.930 . S
C191 C192 1.392 . S
C191 N195 1.328 1_554 S
C191 H197 0.930 . S
C192 C191 1.392 . S
C192 N196 1.331 . S
C193 C194 1.393 1_554 S
C193 N196 1.329 . S
C193 H203 0.929 1_565 S
C194 C193 1.393 1_556 S
C194 N195 1.340 . S
C194 H201 0.922 1_565 S
N195 Zn179 2.119 . S
N195 C191 1.328 1_556 S
N195 C194 1.340 . S
N196 C192 1.331 . S
N196 C193 1.329 . S
H197 C191 0.930 . S
C198 O178 1.257 . S
C198 O199 1.244 . S
O199 C198 1.244 . S
O200 C176 1.257 . S
O200 Zn179 2.019 . S
H201 C194 0.922 1_545 S
H202 C181 0.930 . S
H203 C193 0.929 1_545 S
Zn204 N208 2.020 . S
Zn204 O212 2.019 . S
Zn204 N214 2.119 1_655 S
Zn204 O222 1.975 1_655 S
C205 N206 1.334 . S
C205 N209 1.336 . S
N206 C205 1.334 . S
N206 C207 1.334 1_554 S
C207 N206 1.334 1_556 S
C207 N208 1.336 . S
N208 Zn204 2.020 . S
N208 C207 1.336 . S
N208 N209 1.354 1_556 S
N209 C205 1.336 . S
N209 N208 1.354 1_554 S
N209 Zn213 2.020 1_655 S
C210 O211 1.244 . S
C210 O234 1.257 . S
O211 C210 1.244 . S
O212 Zn204 2.019 . S
O212 C232 1.257 . S
Zn213 N209 2.020 1_455 S
Zn213 O220 1.975 . S
Zn213 N229 2.119 . S
Zn213 O234 2.019 . S
N214 Zn204 2.119 1_455 S
N214 C216 1.334 . S
N214 C217 1.328 . S
C215 C216 1.391 . S
C215 N218 1.329 . S
C215 H236 0.930 . S
C216 N214 1.334 . S
C216 C215 1.391 . S
C216 H223 0.930 . S
C217 N214 1.328 . S
C217 C219 1.392 . S
C217 H224 0.930 1_455 S
N218 C215 1.329 . S
N218 C219 1.331 . S
C219 C217 1.392 . S
C219 N218 1.331 . S
O220 Zn213 1.975 . S
O220 C221 1.252 1_554 S
C221 O220 1.252 1_556 S
C221 O222 1.252 . S
O222 Zn204 1.975 1_455 S
O222 C221 1.252 . S
H223 C216 0.930 . S
H224 C217 0.930 1_655 S
C225 C226 1.392 . S
C225 N229 1.328 . S
C225 H231 0.930 . S
C226 C225 1.392 . S
C226 N230 1.331 . S
C227 C228 1.391 . S
C227 N230 1.329 . S
C227 H237 0.930 . S
C228 C227 1.391 . S
C228 N229 1.334 . S
C228 H235 0.930 . S
N229 Zn213 2.119 . S
N229 C225 1.328 . S
N229 C228 1.334 . S
N230 C226 1.331 . S
N230 C227 1.329 . S
H231 C225 0.930 . S
C232 O212 1.257 . S
C232 O233 1.244 . S
O233 C232 1.244 . S
O234 C210 1.257 . S
O234 Zn213 2.019 . S
H235 C228 0.930 . S
H236 C215 0.930 . S
H237 C227 0.930 . S
Zn238 N242 2.020 . S
Zn238 O246 2.019 . S
Zn238 N248 2.119 . S
Zn238 O256 1.975 . S
C239 N240 1.334 . S
C239 N243 1.336 . S
N240 C239 1.334 . S
N240 C241 1.334 . S
C241 N240 1.334 . S
C241 N242 1.336 . S
N242 Zn238 2.020 . S
N242 C241 1.336 . S
N242 N243 1.354 . S
N243 C239 1.336 . S
N243 N242 1.354 . S
N243 Zn247 2.020 . S
C244 O245 1.244 . S
C244 O268 1.257 . S
O245 C244 1.244 . S
O246 Zn238 2.019 . S
O246 C266 1.257 . S
Zn247 N243 2.020 . S
Zn247 O254 1.975 . S
Zn247 N263 2.119 . S
Zn247 O268 2.019 . S
N248 Zn238 2.119 . S
N248 C250 1.334 . S
N248 C251 1.328 . S
C249 C250 1.391 . S
C249 N252 1.329 . S
C249 H270 0.930 . S
C250 N248 1.334 . S
C250 C249 1.391 . S
C250 H257 0.930 . S
C251 N248 1.328 . S
C251 C253 1.392 . S
C251 H258 0.930 . S
N252 C249 1.329 . S
N252 C253 1.331 . S
C253 C251 1.392 . S
C253 N252 1.331 . S
O254 Zn247 1.975 . S
O254 C255 1.252 . S
C255 O254 1.252 . S
C255 O256 1.252 . S
O256 Zn238 1.975 . S
O256 C255 1.252 . S
H257 C250 0.930 . S
H258 C251 0.930 . S
C259 C260 1.392 . S
C259 N263 1.328 1_556 S
C259 H265 0.930 . S
C260 C259 1.392 . S
C260 N264 1.331 . S
C261 C262 1.391 1_556 S
C261 N264 1.329 . S
C261 H271 0.930 . S
C262 C261 1.391 1_554 S
C262 N263 1.334 . S
C262 H269 0.930 . S
N263 Zn247 2.119 . S
N263 C259 1.328 1_554 S
N263 C262 1.334 . S
N264 C260 1.331 . S
N264 C261 1.329 . S
H265 C259 0.930 . S
C266 O246 1.257 . S
C266 O267 1.244 . S
O267 C266 1.244 . S
O268 C244 1.257 . S
O268 Zn247 2.019 . S
H269 C262 0.930 . S
H270 C249 0.930 . S
H271 C261 0.930 . S
C272 C273 1.369 1_455 S
C272 C274 1.419 1_565 S
C272 H276 0.930 . S
C273 C272 1.369 1_655 S
C273 C282 1.429 1_565 S
C274 C272 1.419 1_545 S
C274 C275 1.363 . S
C274 H277 0.929 1_545 S
C275 C274 1.363 . S
C275 C281 1.428 1_455 S
H276 C272 0.930 . S
H277 C274 0.929 1_565 S
S278 N279 1.613 . S
S278 N280 1.610 . S
N279 S278 1.613 . S
N279 C282 1.350 . S
N280 S278 1.610 . S
N280 C281 1.351 . S
C281 C275 1.428 1_655 S
C281 N280 1.351 . S
C281 C282 1.434 . S
C282 C273 1.429 1_545 S
C282 N279 1.350 . S
C282 C281 1.434 . S
C283 C284 1.369 1_455 S
C283 C285 1.419 . S
C283 H287 0.930 . S
C284 C283 1.369 1_655 S
C284 C293 1.429 . S
C285 C283 1.419 . S
C285 C286 1.363 . S
C285 H288 0.929 . S
C286 C285 1.363 . S
C286 C292 1.428 . S
H287 C283 0.930 . S
H288 C285 0.929 . S
S289 N290 1.613 . S
S289 N291 1.610 1_655 S
N290 S289 1.613 . S
N290 C293 1.350 . S
N291 S289 1.610 1_455 S
N291 C292 1.351 . S
C292 C286 1.428 . S
C292 N291 1.351 . S
C292 C293 1.434 1_455 S
C293 C284 1.429 . S
C293 N290 1.350 . S
C293 C292 1.434 1_655 S
C294 C295 1.369 . S
C294 C296 1.419 . S
C294 H298 0.930 . S
C295 C294 1.369 . S
C295 C304 1.429 . S
C296 C294 1.419 . S
C296 C297 1.363 . S
C296 H299 0.929 . S
C297 C296 1.363 . S
C297 C303 1.428 . S
H298 C294 0.930 . S
H299 C296 0.929 . S
S300 N301 1.613 . S
S300 N302 1.610 . S
N301 S300 1.613 . S
N301 C304 1.350 . S
N302 S300 1.610 . S
N302 C303 1.351 . S
C303 C297 1.428 . S
C303 N302 1.351 . S
C303 C304 1.434 . S
C304 C295 1.429 . S
C304 N301 1.350 . S
C304 C303 1.434 . S
C305 C306 1.369 . S
C305 C307 1.419 1_565 S
C305 H309 0.930 . S
C306 C305 1.369 . S
C306 C315 1.429 1_565 S
C307 C305 1.419 1_545 S
C307 C308 1.363 . S
C307 H310 0.929 . S
C308 C307 1.363 . S
C308 C314 1.428 . S
H309 C305 0.930 . S
H310 C307 0.929 . S
S311 N312 1.615 . S
S311 N313 1.610 . S
N312 S311 1.615 . S
N312 C315 1.350 . S
N313 S311 1.610 . S
N313 C314 1.351 . S
C314 C308 1.428 . S
C314 N313 1.351 . S
C314 C315 1.434 . S
C315 C306 1.429 1_545 S
C315 N312 1.350 . S
C315 C314 1.434 . S
C316 C317 1.369 . S
C316 C318 1.419 . S
C316 H320 0.930 . S
C317 C316 1.369 . S
C317 C326 1.429 . S
C318 C316 1.419 . S
C318 C319 1.363 . S
C318 H321 0.929 1_556 S
C319 C318 1.363 . S
C319 C325 1.428 . S
H320 C316 0.930 . S
H321 C318 0.929 1_554 S
S322 N323 1.613 . S
S322 N324 1.610 . S
N323 S322 1.613 . S
N323 C326 1.350 . S
N324 S322 1.610 . S
N324 C325 1.351 . S
C325 C319 1.428 . S
C325 N324 1.351 . S
C325 C326 1.434 . S
C326 C317 1.429 . S
C326 N323 1.350 . S
C326 C325 1.434 . S
C327 C328 1.369 . S
C327 C329 1.419 . S
C327 H331 0.930 . S
C328 C327 1.369 . S
C328 C337 1.429 . S
C329 C327 1.419 . S
C329 C330 1.363 . S
C329 H332 0.929 . S
C330 C329 1.363 . S
C330 C336 1.428 . S
H331 C327 0.930 . S
H332 C329 0.929 . S
S333 N334 1.613 . S
S333 N335 1.610 . S
N334 S333 1.613 . S
N334 C337 1.350 . S
N335 S333 1.610 . S
N335 C336 1.351 . S
C336 C330 1.428 . S
C336 N335 1.351 . S
C336 C337 1.434 . S
C337 C328 1.429 . S
C337 N334 1.350 . S
C337 C336 1.434 . S
C338 C339 1.369 . S
C338 C340 1.419 . S
C338 H342 0.930 . S
C339 C338 1.369 . S
C339 C348 1.429 . S
C340 C338 1.419 . S
C340 C341 1.363 . S
C340 H343 0.929 . S
C341 C340 1.363 . S
C341 C347 1.428 . S
H342 C338 0.930 . S
H343 C340 0.929 . S
S344 N345 1.613 . S
S344 N346 1.610 . S
N345 S344 1.613 . S
N345 C348 1.350 . S
N346 S344 1.610 . S
N346 C347 1.351 . S
C347 C341 1.428 . S
C347 N346 1.351 . S
C347 C348 1.434 . S
C348 C339 1.429 . S
C348 N345 1.350 . S
C348 C347 1.434 . S
C349 C350 1.369 . S
C349 C351 1.419 . S
C349 H353 0.930 . S
C350 C349 1.369 . S
C350 C359 1.429 . S
C351 C349 1.419 . S
C351 C352 1.363 . S
C351 H354 0.929 . S
C352 C351 1.363 . S
C352 C358 1.428 . S
H353 C349 0.930 . S
H354 C351 0.929 . S
S355 N356 1.613 . S
S355 N357 1.610 . S
N356 S355 1.613 . S
N356 C359 1.350 . S
N357 S355 1.610 . S
N357 C358 1.351 . S
C358 C352 1.428 . S
C358 N357 1.351 . S
C358 C359 1.434 . S
C359 C350 1.429 . S
C359 N356 1.350 . S
C359 C358 1.434 . S
C360 C361 1.369 . S
C360 C362 1.419 . S
C360 H364 0.930 . S
C361 C360 1.369 . S
C361 C370 1.429 . S
C362 C360 1.419 . S
C362 C363 1.363 . S
C362 H365 0.929 . S
C363 C362 1.363 . S
C363 C369 1.428 . S
H364 C360 0.930 . S
H365 C362 0.929 . S
S366 N367 1.613 . S
S366 N368 1.610 . S
N367 S366 1.613 . S
N367 C370 1.350 . S
N368 S366 1.610 . S
N368 C369 1.351 . S
C369 C363 1.428 . S
C369 N368 1.351 . S
C369 C370 1.434 . S
C370 C361 1.429 . S
C370 N367 1.350 . S
C370 C369 1.434 . S
C371 C372 1.369 . S
C371 C373 1.419 . S
C371 H375 0.930 . S
C372 C371 1.369 . S
C372 C381 1.429 . S
C373 C371 1.419 . S
C373 C374 1.363 . S
C373 H376 0.929 . S
C374 C373 1.363 . S
C374 C380 1.428 . S
H375 C371 0.930 . S
H376 C373 0.929 . S
S377 N378 1.613 . S
S377 N379 1.610 . S
N378 S377 1.613 . S
N378 C381 1.350 . S
N379 S377 1.610 . S
N379 C380 1.351 . S
C380 C374 1.428 . S
C380 N379 1.351 . S
C380 C381 1.434 . S
C381 C372 1.429 . S
C381 N378 1.350 . S
C381 C380 1.434 . S
C382 C383 1.369 . S
C382 C384 1.419 . S
C382 H386 0.930 . S
C383 C382 1.369 . S
C383 C392 1.429 . S
C384 C382 1.419 . S
C384 C385 1.363 . S
C384 H387 0.929 . S
C385 C384 1.363 . S
C385 C391 1.428 . S
H386 C382 0.930 . S
H387 C384 0.929 . S
S388 N389 1.613 . S
S388 N390 1.610 . S
N389 S388 1.613 . S
N389 C392 1.350 . S
N390 S388 1.610 . S
N390 C391 1.351 . S
C391 C385 1.428 . S
C391 N390 1.351 . S
C391 C392 1.434 . S
C392 C383 1.429 . S
C392 N389 1.350 . S
C392 C391 1.434 . S
C393 C394 1.369 . S
C393 C395 1.419 . S
C393 H397 0.930 . S
C394 C393 1.369 . S
C394 C403 1.429 . S
C395 C393 1.419 . S
C395 C396 1.363 . S
C395 H398 0.929 . S
C396 C395 1.363 . S
C396 C402 1.428 . S
H397 C393 0.930 . S
H398 C395 0.929 . S
S399 N400 1.613 . S
S399 N401 1.610 . S
N400 S399 1.613 . S
N400 C403 1.350 . S
N401 S399 1.610 . S
N401 C402 1.351 . S
C402 C396 1.428 . S
C402 N401 1.351 . S
C402 C403 1.434 . S
C403 C394 1.429 . S
C403 N400 1.350 . S
C403 C402 1.434 . S
C404 C405 1.369 . S
C404 C406 1.419 . S
C404 H408 0.930 . S
C405 C404 1.369 . S
C405 C414 1.429 . S
C406 C404 1.419 . S
C406 C407 1.363 . S
C406 H409 0.929 . S
C407 C406 1.363 . S
C407 C413 1.428 . S
H408 C404 0.930 . S
H409 C406 0.929 . S
S410 N411 1.613 . S
S410 N412 1.610 . S
N411 S410 1.613 . S
N411 C414 1.350 . S
N412 S410 1.610 . S
N412 C413 1.351 . S
C413 C407 1.428 . S
C413 N412 1.351 . S
C413 C414 1.434 . S
C414 C405 1.429 . S
C414 N411 1.350 . S
C414 C413 1.434 . S
C415 C416 1.369 . S
C415 C417 1.419 . S
C415 H419 0.930 . S
C416 C415 1.369 . S
C416 C425 1.429 . S
C417 C415 1.419 . S
C417 C418 1.363 . S
C417 H420 0.929 . S
C418 C417 1.363 . S
C418 C424 1.428 . S
H419 C415 0.930 . S
H420 C417 0.929 . S
S421 N422 1.613 . S
S421 N423 1.610 . S
N422 S421 1.613 . S
N422 C425 1.350 . S
N423 S421 1.610 . S
N423 C424 1.351 . S
C424 C418 1.428 . S
C424 N423 1.351 . S
C424 C425 1.434 . S
C425 C416 1.429 . S
C425 N422 1.350 . S
C425 C424 1.434 . S
C426 C427 1.369 . S
C426 C428 1.419 . S
C426 H430 0.930 . S
C427 C426 1.369 . S
C427 C436 1.429 . S
C428 C426 1.419 . S
C428 C429 1.363 . S
C428 H431 0.929 . S
C429 C428 1.363 . S
C429 C435 1.428 . S
H430 C426 0.930 . S
H431 C428 0.929 . S
S432 N433 1.613 1_554 S
S432 N434 1.610 . S
N433 S432 1.613 1_556 S
N433 C436 1.350 . S
N434 S432 1.610 . S
N434 C435 1.351 1_554 S
C435 C429 1.428 . S
C435 N434 1.351 1_556 S
C435 C436 1.434 . S
C436 C427 1.429 . S
C436 N433 1.350 . S
C436 C435 1.434 . S
C437 C438 1.369 . S
C437 C439 1.419 . S
C437 H441 0.930 . S
C438 C437 1.369 . S
C438 C447 1.429 . S
C439 C437 1.419 . S
C439 C440 1.363 . S
C439 H442 0.929 . S
C440 C439 1.363 . S
C440 C446 1.428 . S
H441 C437 0.930 . S
H442 C439 0.929 . S
S443 N444 1.613 . S
S443 N445 1.610 . S
N444 S443 1.613 . S
N444 C447 1.350 . S
N445 S443 1.610 . S
N445 C446 1.351 . S
C446 C440 1.428 . S
C446 N445 1.351 . S
C446 C447 1.434 . S
C447 C438 1.429 . S
C447 N444 1.350 . S
C447 C446 1.434 . S
C448 C449 1.369 . S
C448 C450 1.419 . S
C448 H452 0.930 . S
C449 C448 1.369 . S
C449 C458 1.429 . S
C450 C448 1.419 . S
C450 C451 1.363 . S
C450 H453 0.929 . S
C451 C450 1.363 . S
C451 C457 1.428 . S
H452 C448 0.930 . S
H453 C450 0.929 . S
S454 N455 1.613 . S
S454 N456 1.610 . S
N455 S454 1.613 . S
N455 C458 1.350 . S
N456 S454 1.610 . S
N456 C457 1.351 . S
C457 C451 1.428 . S
C457 N456 1.351 . S
C457 C458 1.434 . S
C458 C449 1.429 . S
C458 N455 1.350 . S
C458 C457 1.434 . S
C459 C460 1.369 . S
C459 C461 1.419 . S
C459 H463 0.930 . S
C460 C459 1.369 . S
C460 C469 1.429 . S
C461 C459 1.419 . S
C461 C462 1.363 . S
C461 H464 0.929 . S
C462 C461 1.363 . S
C462 C468 1.428 . S
H463 C459 0.930 . S
H464 C461 0.929 . S
S465 N466 1.613 . S
S465 N467 1.610 . S
N466 S465 1.613 . S
N466 C469 1.350 . S
N467 S465 1.610 . S
N467 C468 1.351 . S
C468 C462 1.428 . S
C468 N467 1.351 . S
C468 C469 1.434 . S
C469 C460 1.429 . S
C469 N466 1.350 . S
C469 C468 1.434 . S
C470 C471 1.369 . S
C470 C472 1.419 . S
C470 H474 0.930 . S
C471 C470 1.369 . S
C471 C480 1.429 . S
C472 C470 1.419 . S
C472 C473 1.363 . S
C472 H475 0.929 . S
C473 C472 1.363 . S
C473 C479 1.428 . S
H474 C470 0.930 . S
H475 C472 0.929 . S
S476 N477 1.613 . S
S476 N478 1.610 . S
N477 S476 1.613 . S
N477 C480 1.350 . S
N478 S476 1.610 . S
N478 C479 1.351 . S
C479 C473 1.428 . S
C479 N478 1.351 . S
C479 C480 1.434 . S
C480 C471 1.429 . S
C480 N477 1.350 . S
C480 C479 1.434 . S
C481 C482 1.369 . S
C481 C483 1.419 . S
C481 H485 0.930 . S
C482 C481 1.369 . S
C482 C491 1.429 . S
C483 C481 1.419 . S
C483 C484 1.363 . S
C483 H486 0.929 . S
C484 C483 1.363 . S
C484 C490 1.428 . S
H485 C481 0.930 . S
H486 C483 0.929 . S
S487 N488 1.613 . S
S487 N489 1.610 1_556 S
N488 S487 1.613 . S
N488 C491 1.350 1_556 S
N489 S487 1.610 1_554 S
N489 C490 1.351 . S
C490 C484 1.428 . S
C490 N489 1.351 . S
C490 C491 1.434 . S
C491 C482 1.429 . S
C491 N488 1.350 1_554 S
C491 C490 1.434 . S
C492 C493 1.369 1_455 S
C492 C494 1.419 . S
C492 H496 0.930 . S
C493 C492 1.369 1_655 S
C493 C502 1.429 . S
C494 C492 1.419 . S
C494 C495 1.363 . S
C494 H497 0.929 . S
C495 C494 1.363 . S
C495 C501 1.428 1_455 S
H496 C492 0.930 . S
H497 C494 0.929 . S
S498 N499 1.613 . S
S498 N500 1.610 . S
N499 S498 1.613 . S
N499 C502 1.350 . S
N500 S498 1.610 . S
N500 C501 1.351 . S
C501 C495 1.428 1_655 S
C501 N500 1.351 . S
C501 C502 1.434 . S
C502 C493 1.429 . S
C502 N499 1.350 . S
C502 C501 1.434 . S
C503 C504 1.369 . S
C503 C505 1.419 . S
C503 H507 0.930 . S
C504 C503 1.369 . S
C504 C513 1.429 . S
C505 C503 1.419 . S
C505 C506 1.363 . S
C505 H508 0.929 . S
C506 C505 1.363 . S
C506 C512 1.428 . S
H507 C503 0.930 . S
H508 C505 0.929 . S
S509 N510 1.613 . S
S509 N511 1.610 . S
N510 S509 1.613 . S
N510 C513 1.350 . S
N511 S509 1.610 . S
N511 C512 1.351 . S
C512 C506 1.428 . S
C512 N511 1.351 . S
C512 C513 1.434 . S
C513 C504 1.429 . S
C513 N510 1.350 . S
C513 C512 1.434 . S
C514 C515 1.369 . S
C514 C516 1.419 1_556 S
C514 H518 0.930 . S
C515 C514 1.369 . S
C515 C524 1.429 . S
C516 C514 1.419 1_554 S
C516 C517 1.363 . S
C516 H519 0.929 . S
C517 C516 1.363 . S
C517 C523 1.428 . S
H518 C514 0.930 . S
H519 C516 0.929 . S
S520 N521 1.613 . S
S520 N522 1.610 1_556 S
N521 S520 1.613 . S
N521 C524 1.350 . S
N522 S520 1.610 1_554 S
N522 C523 1.351 . S
C523 C517 1.428 . S
C523 N522 1.351 . S
C523 C524 1.434 1_554 S
C524 C515 1.429 . S
C524 N521 1.350 . S
C524 C523 1.434 1_556 S
C525 C526 1.369 . S
C525 C527 1.419 . S
C525 H529 0.930 . S
C526 C525 1.369 . S
C526 C535 1.429 1_545 S
C527 C525 1.419 . S
C527 C528 1.363 . S
C527 H530 0.929 . S
C528 C527 1.363 . S
C528 C534 1.428 . S
H529 C525 0.930 . S
H530 C527 0.929 . S
S531 N532 1.613 . S
S531 N533 1.610 . S
N532 S531 1.613 . S
N532 C535 1.350 . S
N533 S531 1.610 . S
N533 C534 1.351 1_565 S
C534 C528 1.428 . S
C534 N533 1.351 1_545 S
C534 C535 1.434 1_545 S
C535 C526 1.429 1_565 S
C535 N532 1.350 . S
C535 C534 1.434 1_565 S
C536 C537 1.369 . S
C536 C538 1.419 1_554 S
C536 H540 0.930 . S
C537 C536 1.369 . S
C537 C546 1.429 . S
C538 C536 1.419 1_556 S
C538 C539 1.363 . S
C538 H541 0.929 . S
C539 C538 1.363 . S
C539 C545 1.428 . S
H540 C536 0.930 . S
H541 C538 0.929 . S
S542 N543 1.613 1_556 S
S542 N544 1.610 . S
N543 S542 1.613 1_554 S
N543 C546 1.350 . S
N544 S542 1.610 . S
N544 C545 1.351 . S
C545 C539 1.428 . S
C545 N544 1.351 . S
C545 C546 1.434 1_556 S
C546 C537 1.429 . S
C546 N543 1.350 . S
C546 C545 1.434 1_554 S
C547 C548 1.369 1_565 S
C547 C549 1.419 . S
C547 H551 0.930 1_565 S
C548 C547 1.369 1_545 S
C548 C557 1.429 1_545 S
C549 C547 1.419 . S
C549 C550 1.363 . S
C549 H552 0.929 . S
C550 C549 1.363 . S
C550 C556 1.428 . S
H551 C547 0.930 1_545 S
H552 C549 0.929 . S
S553 N554 1.611 1_565 S
S553 N555 1.610 . S
N554 S553 1.611 1_545 S
N554 C557 1.349 1_545 S
N555 S553 1.610 . S
N555 C556 1.351 . S
C556 C550 1.428 . S
C556 N555 1.351 . S
C556 C557 1.434 . S
C557 C548 1.429 1_565 S
C557 N554 1.349 1_565 S
C557 C556 1.434 . S
C558 C559 1.369 . S
C558 C560 1.419 . S
C558 H562 0.930 . S
C559 C558 1.369 . S
C559 C568 1.429 1_455 S
C560 C558 1.419 . S
C560 C561 1.363 . S
C560 H563 0.929 . S
C561 C560 1.363 . S
C561 C567 1.428 1_455 S
H562 C558 0.930 . S
H563 C560 0.929 . S
S564 N565 1.613 . S
S564 N566 1.610 . S
N565 S564 1.613 . S
N565 C568 1.350 . S
N566 S564 1.610 . S
N566 C567 1.351 . S
C567 C561 1.428 1_655 S
C567 N566 1.351 . S
C567 C568 1.434 . S
C568 C559 1.429 1_655 S
C568 N565 1.350 . S
C568 C567 1.434 . S
C569 C570 1.369 . S
C569 C571 1.419 . S
C569 H573 0.930 . S
C570 C569 1.369 . S
C570 C579 1.429 . S
C571 C569 1.419 . S
C571 C572 1.363 . S
C571 H574 0.929 . S
C572 C571 1.363 . S
C572 C578 1.428 . S
H573 C569 0.930 . S
H574 C571 0.929 . S
S575 N576 1.613 . S
S575 N577 1.610 . S
N576 S575 1.613 . S
N576 C579 1.350 . S
N577 S575 1.610 . S
N577 C578 1.351 . S
C578 C572 1.428 . S
C578 N577 1.351 . S
C578 C579 1.434 . S
C579 C570 1.429 . S
C579 N576 1.350 . S
C579 C578 1.434 . S
C273 C232 0.899 . S
C275 C28 0.879 . S
C284 C62 0.878 . S
C286 C244 0.895 . S
C295 C164 0.899 . S
C297 C96 0.879 . S
C306 C108 0.882 . S
C308 C198 0.893 . S
C317 C171 2.030 . S
C319 C3 2.094 . S
C328 C37 2.093 . S
C330 C205 2.030 . S
C339 C71 2.091 . S
C341 C241 2.031 . S
C350 C103 2.092 . S
C352 C137 2.030 . S
C361 C130 1.649 . S
C363 C17 1.599 . S
C372 C51 1.608 . S
C374 C6 1.642 . S
C383 C40 1.648 . S
C385 C85 1.600 . S
C394 C119 1.606 . S
C396 C74 1.644 . S
C405 C35 2.034 . S
C407 C139 2.091 . S
C416 C69 2.032 . S
C418 C173 2.094 . S
C427 C105 2.035 . S
C429 C207 2.091 . S
C438 C239 2.093 . S
C440 C1 2.036 . S
C449 C266 1.644 . S
C451 C153 1.605 . S
C460 C187 1.597 . S
C462 C142 1.649 . S
C471 C221 1.608 . S
C473 C176 1.643 . S
C482 C210 1.650 . S
C484 C255 1.599 . S
C493 C22 1.435 . S
C495 C15 1.435 . S
C504 C49 1.431 . S
C506 C56 1.436 . S
C515 C90 1.424 . S
C517 C83 1.443 . S
C526 C124 1.431 . S
C528 C117 1.436 . S
C537 C151 1.443 . S
C539 C158 1.428 . S
C548 C185 1.430 . S
C550 C192 1.438 . S
C559 C226 1.424 . S
C561 C219 1.443 . S
C570 C253 1.440 . S
C572 C260 1.432 . S
