# Generated by pormake.
# Topology wiu, (6)-cn, num edge types: 1
# Building blocks:
#     Node 0, Type 0, BuildingBlock: HISSIN_clean_sbu_0, # of connection points: 6
#     Node 1, Type 0, BuildingBlock: HISSIN_clean_sbu_0, # of connection points: 6
#     Node 2, Type 0, BuildingBlock: HISSIN_clean_sbu_0, # of connection points: 6
#     Node 3, Type 0, BuildingBlock: HISSIN_clean_sbu_0, # of connection points: 6
#     Node 4, Type 0, BuildingBlock: HISSIN_clean_sbu_0, # of connection points: 6
#     Node 5, Type 0, BuildingBlock: HISSIN_clean_sbu_0, # of connection points: 6
#     Node 6, Type 0, BuildingBlock: HISSIN_clean_sbu_0, # of connection points: 6
#     Node 7, Type 0, BuildingBlock: HISSIN_clean_sbu_0, # of connection points: 6
#     Node 8, Type 0, BuildingBlock: HISSIN_clean_sbu_0, # of connection points: 6
#     Node 9, Type 0, BuildingBlock: HISSIN_clean_sbu_0, # of connection points: 6
#     Node 10, Type 0, BuildingBlock: HISSIN_clean_sbu_0, # of connection points: 6
#     Node 11, Type 0, BuildingBlock: HISSIN_clean_sbu_0, # of connection points: 6
#     Node 12, Type 0, BuildingBlock: HISSIN_clean_sbu_0, # of connection points: 6
#     Node 13, Type 0, BuildingBlock: HISSIN_clean_sbu_0, # of connection points: 6
#     Node 14, Type 0, BuildingBlock: HISSIN_clean_sbu_0, # of connection points: 6
#     Node 15, Type 0, BuildingBlock: HISSIN_clean_sbu_0, # of connection points: 6
#     Edge 16, Type (0, 0), BuildingBlock: TEMPAE_clean_linker_10, # of connection points: 2
#     Edge 17, Type (0, 0), BuildingBlock: TEMPAE_clean_linker_10, # of connection points: 2
#     Edge 18, Type (0, 0), BuildingBlock: TEMPAE_clean_linker_10, # of connection points: 2
#     Edge 19, Type (0, 0), BuildingBlock: TEMPAE_clean_linker_10, # of connection points: 2
#     Edge 20, Type (0, 0), BuildingBlock: TEMPAE_clean_linker_10, # of connection points: 2
#     Edge 21, Type (0, 0), BuildingBlock: TEMPAE_clean_linker_10, # of connection points: 2
#     Edge 22, Type (0, 0), BuildingBlock: TEMPAE_clean_linker_10, # of connection points: 2
#     Edge 23, Type (0, 0), BuildingBlock: TEMPAE_clean_linker_10, # of connection points: 2
#     Edge 24, Type (0, 0), BuildingBlock: TEMPAE_clean_linker_10, # of connection points: 2
#     Edge 25, Type (0, 0), BuildingBlock: TEMPAE_clean_linker_10, # of connection points: 2
#     Edge 26, Type (0, 0), BuildingBlock: TEMPAE_clean_linker_10, # of connection points: 2
#     Edge 27, Type (0, 0), BuildingBlock: TEMPAE_clean_linker_10, # of connection points: 2
#     Edge 28, Type (0, 0), BuildingBlock: TEMPAE_clean_linker_10, # of connection points: 2
#     Edge 29, Type (0, 0), BuildingBlock: TEMPAE_clean_linker_10, # of connection points: 2
#     Edge 30, Type (0, 0), BuildingBlock: TEMPAE_clean_linker_10, # of connection points: 2
#     Edge 31, Type (0, 0), BuildingBlock: TEMPAE_clean_linker_10, # of connection points: 2
#     Edge 32, Type (0, 0), BuildingBlock: TEMPAE_clean_linker_10, # of connection points: 2
#     Edge 33, Type (0, 0), BuildingBlock: TEMPAE_clean_linker_10, # of connection points: 2
#     Edge 34, Type (0, 0), BuildingBlock: TEMPAE_clean_linker_10, # of connection points: 2
#     Edge 35, Type (0, 0), BuildingBlock: TEMPAE_clean_linker_10, # of connection points: 2
#     Edge 36, Type (0, 0), BuildingBlock: TEMPAE_clean_linker_10, # of connection points: 2
#     Edge 37, Type (0, 0), BuildingBlock: TEMPAE_clean_linker_10, # of connection points: 2
#     Edge 38, Type (0, 0), BuildingBlock: TEMPAE_clean_linker_10, # of connection points: 2
#     Edge 39, Type (0, 0), BuildingBlock: TEMPAE_clean_linker_10, # of connection points: 2
#     Edge 40, Type (0, 0), BuildingBlock: TEMPAE_clean_linker_10, # of connection points: 2
#     Edge 41, Type (0, 0), BuildingBlock: TEMPAE_clean_linker_10, # of connection points: 2
#     Edge 42, Type (0, 0), BuildingBlock: TEMPAE_clean_linker_10, # of connection points: 2
#     Edge 43, Type (0, 0), BuildingBlock: TEMPAE_clean_linker_10, # of connection points: 2
#     Edge 44, Type (0, 0), BuildingBlock: TEMPAE_clean_linker_10, # of connection points: 2
#     Edge 45, Type (0, 0), BuildingBlock: TEMPAE_clean_linker_10, # of connection points: 2
#     Edge 46, Type (0, 0), BuildingBlock: TEMPAE_clean_linker_10, # of connection points: 2
#     Edge 47, Type (0, 0), BuildingBlock: TEMPAE_clean_linker_10, # of connection points: 2
#     Edge 48, Type (0, 0), BuildingBlock: TEMPAE_clean_linker_10, # of connection points: 2
#     Edge 49, Type (0, 0), BuildingBlock: TEMPAE_clean_linker_10, # of connection points: 2
#     Edge 50, Type (0, 0), BuildingBlock: TEMPAE_clean_linker_10, # of connection points: 2
#     Edge 51, Type (0, 0), BuildingBlock: TEMPAE_clean_linker_10, # of connection points: 2
#     Edge 52, Type (0, 0), BuildingBlock: TEMPAE_clean_linker_10, # of connection points: 2
#     Edge 53, Type (0, 0), BuildingBlock: TEMPAE_clean_linker_10, # of connection points: 2
#     Edge 54, Type (0, 0), BuildingBlock: TEMPAE_clean_linker_10, # of connection points: 2
#     Edge 55, Type (0, 0), BuildingBlock: TEMPAE_clean_linker_10, # of connection points: 2
#     Edge 56, Type (0, 0), BuildingBlock: TEMPAE_clean_linker_10, # of connection points: 2
#     Edge 57, Type (0, 0), BuildingBlock: TEMPAE_clean_linker_10, # of connection points: 2
#     Edge 58, Type (0, 0), BuildingBlock: TEMPAE_clean_linker_10, # of connection points: 2
#     Edge 59, Type (0, 0), BuildingBlock: TEMPAE_clean_linker_10, # of connection points: 2
#     Edge 60, Type (0, 0), BuildingBlock: TEMPAE_clean_linker_10, # of connection points: 2
#     Edge 61, Type (0, 0), BuildingBlock: TEMPAE_clean_linker_10, # of connection points: 2
#     Edge 62, Type (0, 0), BuildingBlock: TEMPAE_clean_linker_10, # of connection points: 2
#     Edge 63, Type (0, 0), BuildingBlock: TEMPAE_clean_linker_10, # of connection points: 2
# Relax obj value: 0.518
# Max RMSD: 0.313
# Mean RMSD: 0.313
data_MOF--net-wiu--node1-HISSIN_clean_sbu_0--edge1-TEMPAE_clean_linker_10
_symmetry_space_group_name_H-M    P1
_symmetry_Int_Tables_number       1
_symmetry_cell_setting            triclinic
loop_
_symmetry_equiv_pos_as_xyz
'x, y, z'
_cell_length_a     38.644989
_cell_length_b     38.592375
_cell_length_c     59.302226
_cell_angle_alpha  90.122689
_cell_angle_beta   89.840353
_cell_angle_gamma 89.969116
loop_
_atom_site_label
_atom_site_type_symbol
_atom_site_fract_x
_atom_site_fract_y
_atom_site_fract_z
_atom_type_partial_charge
Eu0 Eu 0.32989 0.15719 0.26812 0.0
Eu1 Eu 0.38007 0.09868 0.24964 0.0
C2 C 0.29798 0.08431 0.25601 0.0
C3 C 0.2856 0.24597 0.27363 0.0
C4 C 0.25197 0.25877 0.27059 0.0
C5 C 0.30836 0.30228 0.26227 0.0
C6 C 0.24649 0.29286 0.26337 0.0
C7 C 0.31382 0.26804 0.26939 0.0
C8 C 0.27459 0.31519 0.25909 0.0
C9 C 0.29045 0.20934 0.28046 0.0
O10 O 0.35044 0.1113 0.2163 0.0
O11 O 0.31353 0.15307 0.22956 0.0
C12 C 0.32383 0.13246 0.21262 0.0
O13 O 0.38101 0.18783 0.26394 0.0
O14 O 0.39416 0.0439 0.24769 0.0
O15 O 0.42711 0.08273 0.23242 0.0
O16 O 0.41721 0.14596 0.25057 0.0
C17 C 0.41213 0.1784 0.257 0.0
O18 O 0.3404 0.12495 0.3015 0.0
O19 O 0.3794 0.08539 0.28792 0.0
O20 O 0.32584 0.07845 0.24388 0.0
O21 O 0.31927 0.2011 0.29053 0.0
O22 O 0.28132 0.18606 0.26572 0.0
O23 O 0.29763 0.109 0.27121 0.0
C24 C 0.4209 0.0311 0.21299 0.0
C25 C 0.39299 0.03457 0.19807 0.0
C26 C 0.45617 1.00812 0.18277 0.0
C27 C 0.39733 0.02668 0.17529 0.0
C28 C 0.45189 1.01628 0.20552 0.0
C29 C 0.42956 1.01512 0.16731 0.0
C30 C 0.42039 0.04978 0.23438 0.0
C31 C 0.361 0.09758 0.30513 0.0
H32 H 0.2298 0.2422 0.27356 0.0
H33 H 0.33066 0.31868 0.25941 0.0
H34 H 0.22015 0.30146 0.26073 0.0
H35 H 0.3401 0.25883 0.27145 0.0
H36 H 0.36883 0.04601 0.20365 0.0
H37 H 0.48139 0.9995 0.17702 0.0
H38 H 0.3764 0.032 0.16368 0.0
H39 H 0.47371 1.01375 0.21684 0.0
Eu40 Eu 0.62448 0.57906 0.52133 0.0
Eu41 Eu 0.68297 0.62792 0.50263 0.0
C42 C 0.69722 0.54552 0.51066 0.0
C43 C 0.53496 0.53674 0.52669 0.0
C44 C 0.51141 0.52022 0.54111 0.0
C45 C 0.48944 0.54228 0.4986 0.0
C46 C 0.47719 0.51449 0.5343 0.0
C47 C 0.52363 0.54808 0.50547 0.0
C48 C 0.46579 0.5251 0.51284 0.0
C49 C 0.57143 0.54082 0.5336 0.0
O50 O 0.66847 0.60133 0.46874 0.0
O51 O 0.62934 0.56239 0.48274 0.0
C52 C 0.64862 0.5737 0.46543 0.0
O53 O 0.59575 0.63161 0.51853 0.0
O54 O 0.73404 0.63641 0.48791 0.0
O55 O 0.70427 0.68007 0.49993 0.0
O56 O 0.63441 0.6628 0.49802 0.0
C57 C 0.60359 0.66038 0.50765 0.0
O58 O 0.65663 0.58887 0.55469 0.0
O59 O 0.69744 0.62594 0.5407 0.0
O60 O 0.70438 0.57353 0.49903 0.0
O61 O 0.59462 0.53127 0.51889 0.0
O62 O 0.57979 0.56985 0.54342 0.0
O63 O 0.67131 0.54512 0.52494 0.0
C64 C 0.73378 0.68565 0.46557 0.0
C65 C 0.70376 0.69393 0.45348 0.0
C66 C 0.76853 0.698 0.43251 0.0
C67 C 0.70606 0.70403 0.43108 0.0
C68 C 0.76621 0.68804 0.45509 0.0
C69 C 0.73835 0.70553 0.42026 0.0
C70 C 0.73059 0.66989 0.48782 0.0
C71 C 0.68466 0.60852 0.55809 0.0
H72 H 0.5196 0.51138 0.55758 0.0
H73 H 0.48183 0.55047 0.48188 0.0
H74 H 0.45966 0.50173 0.54588 0.0
H75 H 0.5414 0.5609 0.49405 0.0
H76 H 0.67837 0.69166 0.46113 0.0
H77 H 0.79372 0.69886 0.42448 0.0
H78 H 0.68246 0.7104 0.42218 0.0
H79 H 0.78953 0.68108 0.46412 0.0
Eu80 Eu 0.19932 0.8771 0.76705 0.0
Eu81 Eu 0.14949 0.93534 0.74816 0.0
C82 C 0.23105 0.95222 0.75786 0.0
C83 C 0.24272 0.78764 0.77214 0.0
C84 C 0.27626 0.77398 0.77054 0.0
C85 C 0.21986 0.73207 0.75934 0.0
C86 C 0.28166 0.73982 0.76335 0.0
C87 C 0.21449 0.7664 0.76645 0.0
C88 C 0.25357 0.71827 0.75765 0.0
C89 C 0.23813 0.82433 0.77898 0.0
O90 O 0.17971 0.92339 0.71507 0.0
O91 O 0.21637 0.88185 0.72866 0.0
C92 C 0.20661 0.90254 0.71173 0.0
O93 O 0.14762 0.84728 0.76393 0.0
O94 O 0.13199 0.97411 0.724 0.0
O95 O 0.10291 0.96582 0.75464 0.0
O96 O 0.1148 0.8864 0.745 0.0
C97 C 0.11819 0.85527 0.75399 0.0
O98 O 0.18866 0.90918 0.80048 0.0
O99 O 0.1548 0.95229 0.78592 0.0
O100 O 0.20241 0.96071 0.74724 0.0
O101 O 0.24738 0.84742 0.76421 0.0
O102 O 0.20941 0.83286 0.78916 0.0
O103 O 0.23284 0.92431 0.77039 0.0
C104 C 0.07175 0.97852 0.72156 0.0
C105 C 0.05228 0.94781 0.7208 0.0
C106 C 0.03535 1.00303 0.69251 0.0
C107 C 0.02483 0.94453 0.70566 0.0
C108 C 0.06264 1.00632 0.70771 0.0
C109 C 0.01661 0.97182 0.69094 0.0
C110 C 0.10353 0.98069 0.73495 0.0
C111 C 0.17076 0.93853 0.80361 0.0
H112 H 0.29845 0.78994 0.77462 0.0
H113 H 0.19754 0.71629 0.75533 0.0
H114 H 0.30801 0.73054 0.76185 0.0
H115 H 0.1883 0.77635 0.76738 0.0
H116 H 0.05899 0.92598 0.73136 0.0
H117 H 0.03024 0.02434 0.68115 0.0
H118 H 1.01076 0.92028 0.70499 0.0
H119 H 0.07759 0.03007 0.70795 0.0
Eu120 Eu 0.90712 0.45053 1.01901 0.0
Eu121 Eu 0.8483 0.40139 1.00221 0.0
C122 C 0.83425 0.48415 1.00756 0.0
C123 C 0.99739 0.49059 1.0249 0.0
C124 C 0.02218 0.50427 1.03966 0.0
C125 C 0.04116 0.48861 0.99525 0.0
C126 C 0.05615 0.51031 1.03228 0.0
C127 C 1.00722 0.4825 1.00269 0.0
C128 C 0.0661 0.50286 1.00989 0.0
C129 C 0.96131 0.48572 1.03267 0.0
O130 O 0.8628 0.42956 0.96838 0.0
O131 O 0.90084 0.47015 0.98156 0.0
C132 C 0.88164 0.45793 0.96462 0.0
O133 O 0.9363 0.40226 1.00546 0.0
O134 O 0.79475 0.38376 0.99974 0.0
O135 O 0.83604 0.35437 0.98381 0.0
O136 O 0.89338 0.36445 1.01217 0.0
C137 C 0.9266 0.3699 1.00847 0.0
O138 O 0.87637 0.43741 1.05306 0.0
O139 O 0.83094 0.4059 1.03937 0.0
O140 O 0.82662 0.45533 0.99681 0.0
O141 O 0.93725 0.4983 1.01969 0.0
O142 O 0.95316 0.45512 1.04034 0.0
O143 O 0.86079 0.48561 1.02127 0.0
C144 C 0.7841 0.35751 0.96461 0.0
C145 C 0.78695 0.38539 0.94957 0.0
C146 C 0.76127 0.32164 0.93474 0.0
C147 C 0.77878 0.38078 0.92689 0.0
C148 C 0.76972 0.32619 0.95738 0.0
C149 C 0.76753 0.34831 0.91913 0.0
C150 C 0.80268 0.35858 0.98595 0.0
C151 C 0.84625 0.42091 1.05675 0.0
H152 H 1.0152 0.51056 1.0569 0.0
H153 H 0.0476 0.48291 0.97785 0.0
H154 H 0.07465 0.52073 1.04417 0.0
H155 H 0.9885 0.47188 0.99099 0.0
H156 H 0.79803 0.40979 0.95499 0.0
H157 H 0.7529 0.29626 0.92914 0.0
H158 H 0.78354 0.40174 0.91517 0.0
H159 H 0.76767 0.3044 0.96881 0.0
Eu160 Eu 0.65231 0.93483 0.95738 0.0
Eu161 Eu 0.70186 0.87638 0.94073 0.0
C162 C 0.62204 0.85591 0.95181 0.0
C163 C 0.59494 1.00246 0.9888 0.0
C164 C 0.60633 0.99739 1.01096 0.0
C165 C 0.54987 0.04083 1.00232 0.0
C166 C 0.5883 1.01258 1.02884 0.0
C167 C 0.56792 0.02567 0.98448 0.0
C168 C 0.5587 0.03279 1.02464 0.0
C169 C 0.60562 0.97901 0.97076 0.0
O170 O 0.68835 0.90623 0.90655 0.0
O171 O 0.65735 0.95201 0.9203 0.0
C172 C 0.67201 0.93641 0.90288 0.0
O173 O 0.70563 0.95794 0.96286 0.0
O174 O 0.75006 0.84694 0.93982 0.0
O175 O 0.70687 0.83005 0.91953 0.0
O176 O 0.7364 0.92322 0.93876 0.0
C177 C 0.73462 0.95011 0.95232 0.0
O178 O 0.68123 0.92206 0.99124 0.0
O179 O 0.72151 0.8834 0.97802 0.0
O180 O 0.65444 0.84673 0.95507 0.0
O181 O 0.63187 0.98779 0.95815 0.0
O182 O 0.60514 0.94603 0.97565 0.0
O183 O 0.61647 0.88886 0.94731 0.0
C184 C 0.74336 0.78663 0.93474 0.0
C185 C 0.7595 0.76251 0.92046 0.0
C186 C 0.74037 0.74263 0.96407 0.0
C187 C 0.76626 0.72875 0.92794 0.0
C188 C 0.73357 0.77636 0.95654 0.0
C189 C 0.75706 0.71838 0.94993 0.0
C190 C 0.73773 0.82253 0.92694 0.0
C191 C 0.7096 0.90308 0.99488 0.0
H192 H 0.62721 0.97947 1.01451 0.0
H193 H 0.5274 0.05665 0.9987 0.0
H194 H 0.59557 1.00582 1.0459 0.0
H195 H 0.55893 0.02982 0.9674 0.0
H196 H 0.76715 0.76987 0.90355 0.0
H197 H 0.73326 0.73582 0.98117 0.0
H198 H 0.77861 0.71074 0.91644 0.0
H199 H 0.72107 0.7946 0.96785 0.0
Eu200 Eu 0.34492 0.40042 0.71247 0.0
Eu201 Eu 0.405 0.44878 0.69475 0.0
C202 C 0.42471 0.36767 0.70697 0.0
C203 C 0.30449 0.32308 0.74015 0.0
C204 C 0.33508 0.31765 0.7523 0.0
C205 C 0.28116 0.26964 0.75524 0.0
C206 C 0.3382 0.28911 0.76651 0.0
C207 C 0.27793 0.2985 0.74118 0.0
C208 C 0.31089 0.26524 0.76865 0.0
C209 C 0.30007 0.355 0.72715 0.0
O210 O 0.37396 0.43528 0.661 0.0
O211 O 0.3261 0.40872 0.67575 0.0
C212 C 0.34247 0.42129 0.65787 0.0
O213 O 0.31957 0.45352 0.71246 0.0
O214 O 0.43468 0.497 0.69508 0.0
O215 O 0.45074 0.45511 0.67324 0.0
O216 O 0.3595 0.48462 0.69215 0.0
C217 C 0.32998 0.4826 0.70305 0.0
O218 O 0.36008 0.42823 0.74613 0.0
O219 O 0.39863 0.46793 0.73243 0.0
O220 O 0.43562 0.39991 0.70533 0.0
O221 O 0.30782 0.38342 0.73783 0.0
O222 O 0.31277 0.35459 0.70682 0.0
O223 O 0.39103 0.36209 0.70803 0.0
C224 C 0.49502 0.49079 0.68936 0.0
C225 C 0.5071 0.52475 0.69244 0.0
C226 C 0.5513 0.46926 0.70168 0.0
C227 C 0.54076 0.53098 0.70014 0.0
C228 C 0.51746 0.46303 0.69409 0.0
C229 C 0.56347 0.50337 0.70486 0.0
C230 C 0.45882 0.48524 0.68177 0.0
C231 C 0.37924 0.45641 0.74953 0.0
H232 H 0.35604 0.33626 0.75149 0.0
H233 H 0.25992 0.25141 0.75618 0.0
H234 H 0.36126 0.28693 0.77675 0.0
H235 H 0.25435 0.30212 0.73162 0.0
H236 H 0.49028 0.5466 0.68908 0.0
H237 H 0.568 0.44728 0.70486 0.0
H238 H 0.54872 0.55758 0.70277 0.0
H239 H 0.50888 0.4365 0.692 0.0
Eu240 Eu 0.88068 0.09542 0.45901 0.0
Eu241 Eu 0.83174 0.1545 0.44162 0.0
C242 C 0.9122 0.17425 0.45287 0.0
C243 C 0.92307 0.02669 0.49523 0.0
C244 C 0.89723 0.0298 0.51178 0.0
C245 C 0.95445 0.98703 0.51923 0.0
C246 C 0.90069 1.01262 0.53236 0.0
C247 C 0.95105 1.00437 0.49873 0.0
C248 C 0.93003 0.9921 0.53658 0.0
C249 C 0.92291 0.04928 0.47545 0.0
O250 O 0.84583 0.12412 0.40769 0.0
O251 O 0.8769 0.07847 0.42158 0.0
C252 C 0.86232 0.09396 0.40409 0.0
O253 O 0.82671 0.07372 0.46409 0.0
O254 O 0.82714 0.20102 0.42068 0.0
O255 O 0.7833 0.18339 0.44019 0.0
O256 O 0.79727 0.10771 0.43915 0.0
C257 C 0.79824 0.08136 0.45307 0.0
O258 O 0.85036 0.10905 0.49226 0.0
O259 O 0.81156 0.14883 0.47898 0.0
O260 O 0.87971 0.18413 0.45501 0.0
O261 O 0.90007 0.04228 0.45994 0.0
O262 O 0.92488 0.08238 0.47989 0.0
O263 O 0.91798 0.14082 0.44993 0.0
C264 C 0.78982 0.24378 0.43606 0.0
C265 C 0.7743 0.26836 0.42196 0.0
C266 C 0.79103 0.28659 0.46628 0.0
C267 C 0.76699 0.30178 0.42996 0.0
C268 C 0.79841 0.25322 0.45823 0.0
C269 C 0.77498 0.31131 0.45231 0.0
C270 C 0.79595 0.20817 0.42778 0.0
C271 C 0.82255 0.12882 0.49583 0.0
H272 H 0.87536 0.04688 0.50923 0.0
H273 H 0.97705 0.97096 0.52192 0.0
H274 H 0.8816 1.01724 0.54544 0.0
H275 H 0.97107 1.00159 0.48602 0.0
H276 H 0.76757 0.26162 0.40478 0.0
H277 H 0.7972 0.29274 0.48363 0.0
H278 H 0.75516 0.32019 0.41858 0.0
H279 H 0.81039 0.2346 0.46942 0.0
Eu280 Eu 0.18509 0.63265 0.21342 0.0
Eu281 Eu 0.12747 0.58291 0.19415 0.0
C282 C 0.10554 0.66436 0.20659 0.0
C283 C 0.224 0.71019 0.24155 0.0
C284 C 0.19433 0.71285 0.25511 0.0
C285 C 0.24467 0.76476 0.25664 0.0
C286 C 0.19031 0.74075 0.26983 0.0
C287 C 0.24878 0.73661 0.24199 0.0
C288 C 0.21578 0.7667 0.27114 0.0
C289 C 0.22884 0.67975 0.22709 0.0
O290 O 0.16001 0.59325 0.16092 0.0
O291 O 0.20255 0.62759 0.17572 0.0
C292 C 0.18917 0.6114 0.15794 0.0
O293 O 0.21082 0.57978 0.21419 0.0
O294 O 0.08306 0.57307 0.17205 0.0
O295 O 0.09847 0.53453 0.19626 0.0
O296 O 0.1748 0.54968 0.1906 0.0
C297 C 0.20249 0.55124 0.2033 0.0
O298 O 0.17292 0.60259 0.24649 0.0
O299 O 0.13129 0.56621 0.23269 0.0
O300 O 0.09808 0.63515 0.19609 0.0
O301 O 0.22472 0.64994 0.23697 0.0
O302 O 0.21316 0.68098 0.20772 0.0
O303 O 0.1359 0.66709 0.21663 0.0
C304 C 0.03877 0.53895 0.18861 0.0
C305 C 1.01599 0.52067 0.17461 0.0
C306 C 0.99267 0.54489 0.21646 0.0
C307 C 0.98187 0.51429 0.18151 0.0
C308 C 0.02677 0.55133 0.2095 0.0
C309 C 0.96979 0.52599 0.20264 0.0
C310 C 0.07519 0.54379 0.18165 0.0
C311 C 0.15191 0.57582 0.24973 0.0
H312 H 0.17473 0.69279 0.25478 0.0
H313 H 0.2645 0.78457 0.25702 0.0
H314 H 0.16802 0.74104 0.28094 0.0
H315 H 0.27156 0.73514 0.23134 0.0
H316 H 0.0247 0.51098 0.1584 0.0
H317 H 0.98453 0.55399 0.23292 0.0
H318 H 0.96493 0.50018 0.17024 0.0
H319 H 0.04396 0.56549 0.2206 0.0
Eu320 Eu 0.8308 0.65374 0.76985 0.0
Eu321 Eu 0.88028 0.59483 0.75071 0.0
C322 C 0.79859 0.57859 0.76096 0.0
C323 C 0.78762 0.74315 0.77481 0.0
C324 C 0.77086 0.76696 0.78902 0.0
C325 C 0.79194 0.78796 0.74602 0.0
C326 C 0.76444 0.80092 0.78177 0.0
C327 C 0.79843 0.75403 0.75333 0.0
C328 C 0.77455 0.81186 0.76006 0.0
C329 C 0.79239 0.70684 0.7822 0.0
O330 O 0.84918 0.60606 0.71806 0.0
O331 O 0.81346 0.64868 0.73161 0.0
C332 C 0.82265 0.62733 0.7148 0.0
O333 O 0.88247 0.68343 0.76573 0.0
O334 O 0.89871 0.55755 0.72569 0.0
O335 O 0.92514 0.56215 0.75757 0.0
O336 O 0.91537 0.64342 0.74739 0.0
C337 C 0.91195 0.67494 0.75587 0.0
O338 O 0.84197 0.62198 0.80325 0.0
O339 O 0.8755 0.57855 0.78851 0.0
O340 O 0.82717 0.56968 0.75026 0.0
O341 O 0.78259 0.68304 0.76803 0.0
O342 O 0.82181 0.69902 0.79159 0.0
O343 O 0.79705 0.60673 0.77339 0.0
C344 C 0.95887 0.55108 0.72519 0.0
C345 C 0.97858 0.58165 0.72549 0.0
C346 C 0.99763 0.52694 0.69714 0.0
C347 C 1.00728 0.58512 0.71129 0.0
C348 C 0.96906 0.5235 0.71137 0.0
C349 C 0.01655 0.55812 0.69649 0.0
C350 C 0.92584 0.54896 0.73734 0.0
C351 C 0.85984 0.59262 0.80629 0.0
H352 H 0.76238 0.75916 0.80568 0.0
H353 H 0.79979 0.79516 0.72913 0.0
H354 H 0.75153 0.81863 0.79322 0.0
H355 H 0.81139 0.73608 0.74204 0.0
H356 H 0.97108 0.60329 0.73608 0.0
H357 H 1.00356 0.50586 0.68568 0.0
H358 H 0.02144 0.60933 0.71131 0.0
H359 H 0.95397 0.49985 0.71083 0.0
Eu360 Eu 0.12756 0.08337 1.01685 0.0
Eu361 Eu 0.18704 0.13199 0.99901 0.0
C362 C 0.20029 0.04925 1.00535 0.0
C363 C 0.03758 0.04247 1.0236 0.0
C364 C 1.01395 0.02588 1.03795 0.0
C365 C 0.9929 0.04551 0.99474 0.0
C366 C 0.98013 0.01892 1.03074 0.0
C367 C 0.02672 0.0525 1.002 0.0
C368 C 0.96915 0.02835 1.00895 0.0
C369 C 0.07367 0.04804 1.03105 0.0
O370 O 0.17219 0.10231 0.96579 0.0
O371 O 0.13282 0.06329 0.97931 0.0
C372 C 0.15245 0.07452 0.96225 0.0
O373 O 0.09849 0.13212 1.00422 0.0
O374 O 0.24072 0.14966 0.99704 0.0
O375 O 0.20062 0.17626 0.97822 0.0
O376 O 0.14241 0.16993 1.0086 0.0
C377 C 0.10886 0.16449 1.0063 0.0
O378 O 0.15869 0.0971 1.05054 0.0
O379 O 0.20387 0.12881 1.03646 0.0
O380 O 0.20792 0.07758 0.99413 0.0
O381 O 0.08156 0.07893 1.03839 0.0
O382 O 0.09771 0.03543 1.01796 0.0
O383 O 0.17397 0.04848 1.01934 0.0
C384 C 0.25472 0.16954 0.96064 0.0
C385 C 0.24183 0.15154 0.9419 0.0
C386 C 0.30556 0.18534 0.93891 0.0
C387 C 0.26004 0.15136 0.92162 0.0
C388 C 0.2871 0.18567 0.95925 0.0
C389 C 0.29171 0.16902 0.91967 0.0
C390 C 0.23385 0.1722 0.9813 0.0
C391 C 0.18866 0.11397 1.05403 0.0
H392 H 0.02176 0.01799 1.0547 0.0
H393 H 0.98565 0.05282 0.97779 0.0
H394 H 0.96253 1.0062 1.0423 0.0
H395 H 0.04457 0.06529 0.99062 0.0
H396 H 0.21695 0.13879 0.94264 0.0
H397 H 0.33011 0.1988 0.93806 0.0
H398 H 0.2482 0.13903 0.90714 0.0
H399 H 0.29764 0.1993 0.97367 0.0
Eu400 Eu 0.69983 0.37998 0.26928 0.0
Eu401 Eu 0.65017 0.43913 0.25032 0.0
C402 C 0.73234 0.45288 0.25728 0.0
C403 C 0.74402 0.29147 0.27476 0.0
C404 C 0.76143 0.26808 0.28879 0.0
C405 C 0.73964 0.24629 0.24613 0.0
C406 C 0.76812 0.23411 0.28153 0.0
C407 C 0.7329 0.28023 0.25343 0.0
C408 C 0.75759 0.22277 0.26 0.0
C409 C 0.73862 0.32771 0.28218 0.0
O410 O 0.68164 0.42633 0.21764 0.0
O411 O 0.71703 0.3834 0.2309 0.0
C412 C 0.70778 0.40451 0.21409 0.0
O413 O 0.6487 0.34972 0.26423 0.0
O414 O 0.63444 0.49353 0.24914 0.0
O415 O 0.6057 0.45485 0.23046 0.0
O416 O 0.61261 0.39218 0.25169 0.0
C417 C 0.61759 0.35954 0.25764 0.0
O418 O 0.68815 0.41222 0.30256 0.0
O419 O 0.65006 0.45245 0.28879 0.0
O420 O 0.70466 0.45916 0.24515 0.0
O421 O 0.74866 0.35161 0.26816 0.0
O422 O 0.70872 0.33514 0.29121 0.0
O423 O 0.73234 0.42809 0.27235 0.0
C424 C 0.6113 0.50926 0.21385 0.0
C425 C 0.63827 0.50551 0.19813 0.0
C426 C 0.58042 0.54568 0.18751 0.0
C427 C 0.63568 0.52069 0.17683 0.0
C428 C 0.58295 0.53033 0.20873 0.0
C429 C 0.60606 0.53983 0.17103 0.0
C430 C 0.61043 0.48781 0.23418 0.0
C431 C 0.66776 0.4398 0.30614 0.0
H432 H 0.77015 0.27617 0.30533 0.0
H433 H 0.73147 0.23878 0.22936 0.0
H434 H 0.78148 0.21669 0.29285 0.0
H435 H 0.71944 0.29787 0.2423 0.0
H436 H 0.66039 0.48931 0.20189 0.0
H437 H 0.55756 0.56076 0.18361 0.0
H438 H 0.65573 0.51553 0.16447 0.0
H439 H 0.56198 0.53351 0.22072 0.0
Eu440 Eu 0.40406 0.9506 0.51705 0.0
Eu441 Eu 0.3448 0.9012 0.49808 0.0
C442 C 0.33139 0.98365 0.5054 0.0
C443 C 0.49283 0.99395 0.52314 0.0
C444 C 0.51608 1.01108 0.53743 0.0
C445 C 0.5384 0.98929 0.4948 0.0
C446 C 0.55018 1.0175 0.53045 0.0
C447 C 0.50434 0.9828 0.50184 0.0
C448 C 0.56178 1.00699 0.50894 0.0
C449 C 0.45647 0.98891 0.53027 0.0
O450 O 0.35808 0.93228 0.4654 0.0
O451 O 0.40026 0.96838 0.47886 0.0
C452 C 0.37949 0.95875 0.46195 0.0
O453 O 0.43415 0.89936 0.5113 0.0
O454 O 0.29045 0.88546 0.49782 0.0
O455 O 0.32806 0.85777 0.47744 0.0
O456 O 0.39101 0.86276 0.50049 0.0
C457 C 0.42392 0.86785 0.50566 0.0
O458 O 0.37173 0.93917 0.55031 0.0
O459 O 0.33099 0.90176 0.53639 0.0
O460 O 0.325 0.95594 0.49321 0.0
O461 O 0.44863 0.9591 0.53923 0.0
O462 O 0.43296 0.99912 0.51607 0.0
O463 O 0.35633 0.98359 0.52033 0.0
C464 C 0.27283 0.86576 0.46207 0.0
C465 C 0.28344 0.88559 0.44353 0.0
C466 C 0.22223 0.8473 0.44119 0.0
C467 C 0.26441 0.88515 0.42362 0.0
C468 C 0.24159 0.8475 0.46109 0.0
C469 C 0.23415 0.86507 0.42194 0.0
C470 C 0.2953 0.86268 0.48186 0.0
C471 C 0.34379 0.91929 0.55378 0.0
H472 H 0.50778 0.01981 0.55396 0.0
H473 H 0.54612 0.98114 0.47805 0.0
H474 H 0.56748 0.03068 0.54196 0.0
H475 H 0.4868 0.96955 0.49051 0.0
H476 H 0.30736 0.90009 0.44406 0.0
H477 H 0.19871 0.83209 0.4406 0.0
H478 H 0.27472 0.8988 0.40915 0.0
H479 H 0.2328 0.83244 0.4754 0.0
Eu480 Eu 0.14769 0.43705 0.46312 0.0
Eu481 Eu 0.19708 0.37838 0.44524 0.0
C482 C 0.11627 0.3583 0.45559 0.0
C483 C 0.10599 0.50512 0.50023 0.0
C484 C 0.13275 0.50214 0.51605 0.0
C485 C 0.07536 0.54387 0.52545 0.0
C486 C 0.13016 0.51889 0.53688 0.0
C487 C 0.07788 0.52692 0.5047 0.0
C488 C 0.10077 0.53888 0.5421 0.0
C489 C 0.10551 0.48288 0.48021 0.0
O490 O 0.18348 0.40951 0.41159 0.0
O491 O 0.15153 0.45453 0.42577 0.0
C492 C 0.16662 0.4395 0.40817 0.0
O493 O 0.20148 0.45892 0.4682 0.0
O494 O 0.20257 0.33284 0.42336 0.0
O495 O 0.24544 0.34926 0.44407 0.0
O496 O 0.23113 0.42544 0.4429 0.0
C497 C 0.22995 0.45164 0.45699 0.0
O498 O 0.17803 0.42328 0.49628 0.0
O499 O 0.21682 0.38349 0.48278 0.0
O500 O 0.14871 0.34828 0.45762 0.0
O501 O 0.12805 0.49008 0.46448 0.0
O502 O 0.10356 0.44972 0.48437 0.0
O503 O 0.11052 0.39187 0.45339 0.0
C504 C 0.2394 0.28914 0.43793 0.0
C505 C 0.2565 0.26598 0.42346 0.0
C506 C 0.23648 0.24388 0.46644 0.0
C507 C 0.26377 0.23208 0.43043 0.0
C508 C 0.22917 0.27777 0.45941 0.0
C509 C 0.25414 0.2206 0.45211 0.0
C510 C 0.23344 0.32528 0.43073 0.0
C511 C 0.20577 0.40342 0.49979 0.0
H512 H 0.15475 0.4855 0.51273 0.0
H513 H 0.05271 0.55958 0.52889 0.0
H514 H 0.15003 0.51434 0.54939 0.0
H515 H 0.05714 0.52961 0.49257 0.0
H516 H 0.26453 0.27422 0.40679 0.0
H517 H 0.229 0.23621 0.48331 0.0
H518 H 0.27687 0.21482 0.41879 0.0
H519 H 0.21598 0.29528 0.47087 0.0
Eu520 Eu 0.84687 0.90442 0.20694 0.0
Eu521 Eu 0.90527 0.95456 0.18968 0.0
C522 C 0.92689 0.8726 0.20165 0.0
C523 C 0.77333 0.85003 0.23398 0.0
C524 C 0.77362 0.86555 0.25534 0.0
C525 C 0.73767 0.8035 0.24816 0.0
C526 C 0.75718 0.84913 0.27334 0.0
C527 C 0.75385 0.82004 0.23018 0.0
C528 C 0.74081 0.81702 0.27001 0.0
C529 C 0.79815 0.86026 0.21681 0.0
O530 O 0.87386 0.94572 0.15584 0.0
O531 O 0.83572 0.90511 0.16847 0.0
C532 C 0.84734 0.92442 0.15167 0.0
O533 O 0.82543 0.95818 0.2136 0.0
O534 O 0.93355 1.00325 0.19243 0.0
O535 O 0.94985 0.96529 0.16783 0.0
O536 O 0.85728 0.98747 0.18744 0.0
C537 C 0.83209 0.98667 0.20229 0.0
O538 O 0.85691 0.93406 0.24073 0.0
O539 O 0.90102 0.96918 0.22856 0.0
O540 O 0.93598 0.90315 0.19355 0.0
O541 O 0.79246 0.8889 0.20586 0.0
O542 O 0.83058 0.85618 0.22219 0.0
O543 O 0.89466 0.86812 0.20849 0.0
C544 C 0.99343 0.99927 0.18511 0.0
C545 C 0.01689 1.0166 0.17104 0.0
C546 C 0.03855 0.99381 0.21346 0.0
C547 C 0.05089 0.02272 0.17815 0.0
C548 C 1.0046 0.9876 0.20629 0.0
C549 C 0.06213 1.01172 0.19956 0.0
C550 C 0.95724 0.99444 0.17785 0.0
C551 C 0.87918 0.95962 0.24501 0.0
H552 H 0.78882 0.88866 0.25843 0.0
H553 H 0.72509 0.77878 0.24532 0.0
H554 H 0.76013 0.85978 0.29014 0.0
H555 H 0.75358 0.80784 0.2137 0.0
H556 H 1.00882 0.02568 0.1546 0.0
H557 H 0.04605 0.9853 0.23013 0.0
H558 H 0.0684 0.03605 0.16683 0.0
H559 H 0.98688 0.97415 0.21743 0.0
Eu560 Eu 0.3839 0.59451 0.96331 0.0
Eu561 Eu 0.33525 0.65415 0.94526 0.0
C562 C 0.41623 0.67419 0.95738 0.0
C563 C 0.46235 0.55006 0.98893 0.0
C564 C 0.4819 0.5807 0.98862 0.0
C565 C 0.50276 0.52507 1.01544 0.0
C566 C 0.5113 0.58382 1.00217 0.0
C567 C 0.47353 0.52196 1.00185 0.0
C568 C 0.52135 0.55643 1.01635 0.0
C569 C 0.42804 0.54866 0.97852 0.0
O570 O 0.34913 0.62274 0.91174 0.0
O571 O 0.37573 0.57505 0.9266 0.0
C572 C 0.3632 0.59125 0.90869 0.0
O573 O 0.33068 0.56971 0.96426 0.0
O574 O 0.28731 0.68397 0.94486 0.0
O575 O 0.32943 0.69919 0.92307 0.0
O576 O 0.29968 0.60833 0.94298 0.0
C577 C 0.30165 0.57954 0.95463 0.0
O578 O 0.35449 0.60935 0.99654 0.0
O579 O 0.31541 0.64843 0.9828 0.0
O580 O 0.38387 0.68492 0.95627 0.0
O581 O 0.40334 0.56223 0.99055 0.0
O582 O 0.42591 0.55749 0.9574 0.0
O583 O 0.42206 0.64048 0.95806 0.0
C584 C 0.29371 0.74382 0.93795 0.0
C585 C 0.27765 0.76707 0.92316 0.0
C586 C 0.29636 0.7895 0.96631 0.0
C587 C 0.27072 0.80121 0.92991 0.0
C588 C 0.30335 0.75538 0.9595 0.0
C589 C 0.27964 0.81284 0.95168 0.0
C590 C 0.29901 0.70738 0.93103 0.0
C591 C 0.32645 0.62878 0.99985 0.0
H592 H 0.47352 0.60273 0.97877 0.0
H593 H 0.50928 0.50363 1.02639 0.0
H594 H 0.52522 0.60817 1.00232 0.0
H595 H 0.45853 0.49826 1.00242 0.0
H596 H 0.27009 0.7587 0.90643 0.0
H597 H 0.30328 0.79728 0.98326 0.0
H598 H 0.25837 0.8185 0.91804 0.0
H599 H 0.31576 0.73783 0.97121 0.0
Eu600 Eu 0.68364 0.12953 0.70764 0.0
Eu601 Eu 0.62477 0.08047 0.69141 0.0
C602 C 0.60515 0.16055 0.70225 0.0
C603 C 0.75141 0.18641 0.73888 0.0
C604 C 0.74663 0.17427 0.76091 0.0
C605 C 0.7895 0.23136 0.75269 0.0
C606 C 0.76185 0.19185 0.77891 0.0
C607 C 0.77432 0.21376 0.73473 0.0
C608 C 0.78179 0.22173 0.77496 0.0
C609 C 0.72797 0.17605 0.72086 0.0
O610 O 0.6548 0.0935 0.65708 0.0
O611 O 0.70082 0.12415 0.67058 0.0
C612 C 0.6851 0.10955 0.65325 0.0
O613 O 0.70638 0.07596 0.71305 0.0
O614 O 0.59461 0.0327 0.69073 0.0
O615 O 0.57832 0.07617 0.67046 0.0
O616 O 0.67101 0.04509 0.68953 0.0
C617 C 0.69812 0.04685 0.70278 0.0
O618 O 0.67105 0.10062 0.74157 0.0
O619 O 0.63147 0.06106 0.72878 0.0
O620 O 0.59577 0.12828 0.70586 0.0
O621 O 0.7366 0.14975 0.70818 0.0
O622 O 0.69504 0.17671 0.72587 0.0
O623 O 0.63805 0.16571 0.69746 0.0
C624 C 0.53439 0.04065 0.68615 0.0
C625 C 0.50925 0.02704 0.67162 0.0
C626 C 0.49125 0.04288 0.71618 0.0
C627 C 0.47542 0.02117 0.67931 0.0
C628 C 0.52506 0.04884 0.70844 0.0
C629 C 0.46597 0.0287 0.70177 0.0
C630 C 0.57029 0.04549 0.67804 0.0
C631 C 0.65158 0.07264 0.74544 0.0
H632 H 0.72892 0.15314 0.76432 0.0
H633 H 0.8051 0.25407 0.74926 0.0
H634 H 0.75535 0.18399 0.79593 0.0
H635 H 0.77823 0.22332 0.71774 0.0
H636 H 0.51585 0.02071 0.65433 0.0
H637 H 0.48518 0.04866 0.73362 0.0
H638 H 0.45663 1.01079 0.66759 0.0
H639 H 0.54405 0.05942 0.71996 0.0
C640 C 0.44158 0.23553 0.27009 0.0
C641 C 0.44226 0.20511 0.2567 0.0
C642 C 0.46949 0.26009 0.27048 0.0
C643 C 0.49947 0.25576 0.25658 0.0
C644 C 0.49999 0.22541 0.2427 0.0
C645 C 0.47222 0.20066 0.2432 0.0
C646 C 0.46701 0.29071 0.28623 0.0
C647 C 0.53 0.21914 0.22692 0.0
C648 C 0.55751 0.33765 0.2437 0.0
C649 C 0.58732 0.33299 0.25719 0.0
C650 C 0.52967 0.31297 0.24302 0.0
C651 C 0.52997 0.2825 0.25671 0.0
C652 C 0.55977 0.27799 0.27061 0.0
C653 C 0.58775 0.30247 0.2704 0.0
C654 C 0.49985 0.31944 0.22725 0.0
C655 C 0.562 0.24724 0.28618 0.0
H656 H 0.41925 0.23995 0.2808 0.0
H657 H 0.4738 0.17785 0.23257 0.0
H658 H 0.48998 0.29142 0.29742 0.0
H659 H 0.46694 0.31512 0.27641 0.0
H660 H 0.44329 0.28993 0.29684 0.0
H661 H 0.52601 0.19598 0.21609 0.0
H662 H 0.53393 0.24209 0.21596 0.0
H663 H 0.55408 0.21547 0.23675 0.0
H664 H 0.5561 0.36055 0.23321 0.0
H665 H 0.60995 0.29791 0.2811 0.0
H666 H 0.47565 0.32301 0.23707 0.0
H667 H 0.49604 0.29662 0.2161 0.0
H668 H 0.50398 0.34273 0.2166 0.0
H669 H 0.53885 0.24643 0.29729 0.0
H670 H 0.58554 0.24793 0.29687 0.0
H671 H 0.56223 0.22292 0.2762 0.0
C672 C 0.5487 0.69291 0.52181 0.0
C673 C 0.57711 0.6908 0.50672 0.0
C674 C 0.52443 0.72112 0.52172 0.0
C675 C 0.527 0.74866 0.50574 0.0
C676 C 0.55532 0.74641 0.49021 0.0
C677 C 0.57982 0.71835 0.49107 0.0
C678 C 0.49602 0.72161 0.53919 0.0
C679 C 0.5597 0.77376 0.47233 0.0
C680 C 0.44402 0.80575 0.49391 0.0
C681 C 0.45033 0.83732 0.50541 0.0
C682 C 0.46844 0.7776 0.49353 0.0
C683 C 0.50053 0.7795 0.50543 0.0
C684 C 0.50682 0.81117 0.51728 0.0
C685 C 0.4824 0.83926 0.51686 0.0
C686 C 0.45986 0.74562 0.48003 0.0
C687 C 0.53948 0.81533 0.53084 0.0
H688 H 0.54565 0.67255 0.53421 0.0
H689 H 0.60107 0.71784 0.47912 0.0
H690 H 0.49714 0.74613 0.54898 0.0
H691 H 0.47042 0.72073 0.5308 0.0
H692 H 0.49784 0.69947 0.55107 0.0
H693 H 0.58147 0.76787 0.46066 0.0
H694 H 0.53554 0.77614 0.46237 0.0
H695 H 0.56452 0.79928 0.48036 0.0
H696 H 0.4199 0.80309 0.48481 0.0
H697 H 0.48834 0.86283 0.52602 0.0
H698 H 0.45772 0.72295 0.49141 0.0
H699 H 0.48102 0.74003 0.46786 0.0
H700 H 0.43521 0.74836 0.47061 0.0
H701 H 0.54145 0.79415 0.5434 0.0
H702 H 0.54049 0.84058 0.53985 0.0
H703 H 0.56239 0.81333 0.51961 0.0
C704 C 0.05849 0.83282 0.73957 0.0
C705 C 0.08803 0.82857 0.75337 0.0
C706 C 0.03048 0.8083 0.73914 0.0
C707 C 0.03051 0.77823 0.75321 0.0
C708 C 0.06015 0.77399 0.76728 0.0
C709 C 0.08812 0.79848 0.76701 0.0
C710 C 1.00068 0.81462 0.72333 0.0
C711 C 0.06222 0.74353 0.78309 0.0
C712 C 0.94223 0.73213 0.768 0.0
C713 C 0.94216 0.70155 0.75475 0.0
C714 C 0.97023 0.75658 0.76774 0.0
C715 C 0.99974 0.75179 0.75351 0.0
C716 C 0.99962 0.72119 0.73984 0.0
C717 C 0.97159 0.69674 0.7408 0.0
C718 C 0.96834 0.78762 0.78317 0.0
C719 C 0.02927 0.71424 0.7239 0.0
H720 H 0.05727 0.85541 0.72879 0.0
H721 H 0.11009 0.79418 0.77796 0.0
H722 H 0.99716 0.79184 0.71212 0.0
H723 H 0.97639 0.81787 0.73312 0.0
H724 H 1.00463 0.83802 0.71275 0.0
H725 H 0.08621 0.74379 0.79336 0.0
H726 H 0.03954 0.74364 0.79462 0.0
H727 H 0.06132 0.71898 0.77336 0.0
H728 H 0.92036 0.73686 0.77905 0.0
H729 H 0.97269 0.67375 0.7303 0.0
H730 H 0.96907 0.8118 0.77311 0.0
H731 H 0.99118 0.78797 0.79448 0.0
H732 H 0.94449 0.78772 0.79367 0.0
H733 H 0.03265 0.73655 0.71232 0.0
H734 H 0.02525 0.6904 0.71371 0.0
H735 H 0.05366 0.71143 0.73354 0.0
C736 C 0.04988 0.19234 0.99549 0.0
C737 C 0.08239 0.19489 1.00628 0.0
C738 C 0.02525 0.22024 0.99511 0.0
C739 C 0.03144 0.25214 1.00683 0.0
C740 C 0.06402 0.25445 1.01824 0.0
C741 C 0.08887 0.22674 1.01733 0.0
C742 C 0.99253 0.21489 0.98176 0.0
C743 C 0.07323 0.28615 1.03184 0.0
C744 C 0.98484 0.34192 0.9959 0.0
C745 C 0.95325 0.33967 1.00792 0.0
C746 C 1.00947 0.31404 0.99491 0.0
C747 C 1.0043 0.28252 1.0072 0.0
C748 C 0.9727 0.28055 1.01985 0.0
C749 C 0.94776 0.30819 1.01957 0.0
C750 C 0.04106 0.31899 0.98029 0.0
C751 C 0.96466 0.2493 1.03414 0.0
H752 H 0.04375 0.16845 0.98673 0.0
H753 H 0.11334 0.22984 1.02598 0.0
H754 H 0.97345 0.20091 0.99237 0.0
H755 H 0.98086 0.23968 0.97615 0.0
H756 H 0.9976 0.19855 0.96666 0.0
H757 H 0.08968 0.27913 1.04648 0.0
H758 H 0.08846 0.30408 1.02112 0.0
H759 H 0.05001 0.30005 1.03818 0.0
H760 H 0.99018 0.36551 0.98664 0.0
H761 H 0.92401 0.30532 1.02915 0.0
H762 H 0.05234 0.29404 0.97454 0.0
H763 H 0.06091 0.33338 0.99 0.0
H764 H 0.03474 0.3348 0.96522 0.0
H765 H 0.94854 0.23105 1.02423 0.0
H766 H 0.94949 0.25682 1.04932 0.0
H767 H 0.98838 0.23558 1.0397 0.0
C768 C 0.56134 0.833 0.94009 0.0
C769 C 0.59194 0.82918 0.95289 0.0
C770 C 0.53373 0.80804 0.94039 0.0
C771 C 0.53464 0.77833 0.95486 0.0
C772 C 0.56525 0.77495 0.9683 0.0
C773 C 0.59325 0.79936 0.96669 0.0
C774 C 0.5037 0.81403 0.92469 0.0
C775 C 0.56907 0.74564 0.98488 0.0
C776 C 0.44316 0.73483 0.96554 0.0
C777 C 0.4467 0.70058 0.95729 0.0
C778 C 0.4711 0.75942 0.96553 0.0
C779 C 0.50418 0.75127 0.95584 0.0
C780 C 0.50753 0.7168 0.94701 0.0
C781 C 0.47967 0.69221 0.94839 0.0
C782 C 0.46444 0.79424 0.97626 0.0
C783 C 0.54049 0.70516 0.93563 0.0
H784 H 0.5592 0.85535 0.92915 0.0
H785 H 0.61612 0.79538 0.97691 0.0
H786 H 0.48984 0.78973 0.92044 0.0
H787 H 0.48522 0.83223 0.93279 0.0
H788 H 0.51262 0.82627 0.90877 0.0
H789 H 0.58307 0.75449 1.00018 0.0
H790 H 0.54381 0.73465 0.99017 0.0
H791 H 0.58484 0.7248 0.97705 0.0
H792 H 0.41839 0.74246 0.97259 0.0
H793 H 0.4836 0.66634 0.94171 0.0
H794 H 0.45077 0.81104 0.96402 0.0
H795 H 0.48859 0.80737 0.98163 0.0
H796 H 0.44726 0.7915 0.9912 0.0
H797 H 0.55579 0.72714 0.92886 0.0
H798 H 0.53478 0.68701 0.92157 0.0
H799 H 0.55655 0.69088 0.948 0.0
C800 C 0.54905 0.19011 0.71729 0.0
C801 C 0.57867 0.19092 0.70323 0.0
C802 C 0.52482 0.21832 0.71878 0.0
C803 C 0.52818 0.2486 0.70496 0.0
C804 C 0.5577 0.24898 0.69025 0.0
C805 C 0.58249 0.22119 0.69006 0.0
C806 C 0.49574 0.21509 0.73564 0.0
C807 C 0.56362 0.27861 0.67417 0.0
C808 C 0.44234 0.30385 0.69855 0.0
C809 C 0.45091 0.33703 0.70703 0.0
C810 C 0.46679 0.27582 0.69728 0.0
C811 C 0.50131 0.27924 0.70581 0.0
C812 C 0.50968 0.31257 0.71505 0.0
C813 C 0.48522 0.34065 0.71495 0.0
C814 C 0.45495 0.24259 0.68634 0.0
C815 C 0.54461 0.31936 0.72542 0.0
H816 H 0.54508 0.1675 0.72779 0.0
H817 H 0.60469 0.22292 0.67892 0.0
H818 H 0.48489 0.24057 0.7407 0.0
H819 H 0.47479 0.19917 0.72818 0.0
H820 H 0.50471 0.20146 0.75104 0.0
H821 H 0.57572 0.26924 0.65827 0.0
H822 H 0.53934 0.29245 0.66991 0.0
H823 H 0.58188 0.29728 0.68195 0.0
H824 H 0.41642 0.29989 0.6921 0.0
H825 H 0.49302 0.36559 0.72165 0.0
H826 H 0.44084 0.22684 0.699 0.0
H827 H 0.47677 0.22706 0.67952 0.0
H828 H 0.43662 0.24804 0.67239 0.0
H829 H 0.54207 0.33685 0.74024 0.0
H830 H 0.56122 0.3328 0.71291 0.0
H831 H 0.55778 0.29527 0.73087 0.0
C832 C 0.05448 0.33764 0.44427 0.0
C833 C 0.08614 0.33149 0.4555 0.0
C834 C 0.02701 0.31254 0.4433 0.0
C835 C 0.02931 0.27999 0.45482 0.0
C836 C 0.06102 0.27413 0.46672 0.0
C837 C 0.08872 0.299 0.4664 0.0
C838 C 0.99559 0.32149 0.42947 0.0
C839 C 0.06638 0.24153 0.48023 0.0
C840 C 0.93948 0.23301 0.46519 0.0
C841 C 0.9423 0.20107 0.45355 0.0
C842 C 0.96715 0.25785 0.46626 0.0
C843 C 0.99913 0.25258 0.45441 0.0
C844 C 1.00169 0.2206 0.44214 0.0
C845 C 0.97421 0.19547 0.44236 0.0
C846 C 0.96148 0.28977 0.48049 0.0
C847 C 0.03341 0.21234 0.42828 0.0
H848 H 0.05133 0.36207 0.43553 0.0
H849 H 0.11245 0.29309 0.4753 0.0
H850 H 0.98166 0.29815 0.42341 0.0
H851 H 0.97764 0.33726 0.4399 0.0
H852 H 1.00295 0.33742 0.41462 0.0
H853 H 0.0821 0.24695 0.49549 0.0
H854 H 0.04163 0.22952 0.48561 0.0
H855 H 0.08102 0.22257 0.46985 0.0
H856 H 0.91555 0.23848 0.47409 0.0
H857 H 0.97756 0.17148 0.43308 0.0
H858 H 0.94705 0.30923 0.47048 0.0
H859 H 0.9861 0.30152 0.48629 0.0
H860 H 0.94543 0.28361 0.49553 0.0
H861 H 0.04747 0.23596 0.42286 0.0
H862 H 0.02639 0.19715 0.41303 0.0
H863 H 0.05114 0.19607 0.43844 0.0
C864 C 0.05051 0.69572 0.19182 0.0
C865 C 0.07925 0.69499 0.20659 0.0
C866 C 0.02651 0.72413 0.19097 0.0
C867 C 0.02982 0.75345 0.20556 0.0
C868 C 0.05854 0.75268 0.22073 0.0
C869 C 0.08265 0.72425 0.22088 0.0
C870 C 0.99754 0.72286 0.17402 0.0
C871 C 0.06379 0.78207 0.23715 0.0
C872 C 0.98513 0.84269 0.19077 0.0
C873 C 0.95353 0.84233 0.20293 0.0
C874 C 1.0095 0.81453 0.19134 0.0
C875 C 1.00358 0.78447 0.20487 0.0
C876 C 0.97198 0.78423 0.21747 0.0
C877 C 0.94766 0.81236 0.21615 0.0
C878 C 0.0417 0.81685 0.17703 0.0
C879 C 0.96378 0.75405 0.23265 0.0
H880 H 0.04692 0.67403 0.18043 0.0
H881 H 0.10422 0.72489 0.2325 0.0
H882 H 0.97221 0.72344 0.18285 0.0
H883 H 0.99868 0.74603 0.16299 0.0
H884 H 0.99866 0.69926 0.16328 0.0
H885 H 0.08613 0.77754 0.24852 0.0
H886 H 0.06818 0.80656 0.22782 0.0
H887 H 0.04014 0.78566 0.24755 0.0
H888 H 0.99073 0.86499 0.18031 0.0
H889 H 0.9239 0.81093 0.22584 0.0
H890 H 0.04299 0.79433 0.16538 0.0
H891 H 0.06499 0.81577 0.18789 0.0
H892 H 0.04262 0.84105 0.16694 0.0
H893 H 0.96128 0.73005 0.22248 0.0
H894 H 0.93944 0.75802 0.24233 0.0
H895 H 0.98531 0.74993 0.24471 0.0
C896 C 0.43132 0.04772 0.1313 0.0
C897 C 0.43795 1.01694 0.14307 0.0
C898 C 0.44629 0.0537 0.11015 0.0
C899 C 0.46815 0.02817 1.10065 0.0
C900 C 0.47262 0.99593 0.11164 0.0
C901 C 0.45755 0.99076 0.13285 0.0
C902 C 0.4409 0.08834 1.0989 0.0
C903 C 0.49521 0.96778 1.10172 0.0
C904 C 0.49917 0.02912 1.0403 0.0
C905 C 0.53378 0.03924 1.04308 0.0
C906 C 0.47664 0.02737 1.05877 0.0
C907 C 0.48911 0.03608 1.08041 0.0
C908 C 0.52321 0.04893 1.08303 0.0
C909 C 0.54527 0.05018 1.06428 0.0
C910 C 0.44046 1.0136 1.05536 0.0
C911 C 0.53712 0.05912 0.10587 0.0
H912 H 0.41648 0.0682 0.13931 0.0
H913 H 0.46244 0.96691 0.14195 0.0
H914 H 0.46472 0.10415 1.10067 0.0
H915 H 0.43597 0.08505 1.0806 0.0
H916 H 0.41899 0.10292 0.10652 0.0
H917 H 0.49313 0.9431 0.11124 0.0
H918 H 0.48811 0.96285 1.08389 0.0
H919 H 0.52264 0.97628 1.10194 0.0
H920 H 0.49032 0.02018 1.02396 0.0
H921 H 0.57196 0.05822 1.06636 0.0
H922 H 0.42129 0.02947 1.06476 0.0
H923 H 0.43889 0.98679 1.06201 0.0
H924 H 0.4331 1.0131 1.03726 0.0
H925 H 0.51879 0.07679 0.1146 0.0
H926 H 0.56271 0.0721 0.10464 0.0
H927 H 0.53997 0.03566 0.11649 0.0
C928 C 0.76453 0.73955 0.38892 0.0
C929 C 0.74006 0.71534 0.39628 0.0
C930 C 0.76362 0.75221 0.36686 0.0
C931 C 0.7374 0.74055 0.35205 0.0
C932 C 0.71381 0.71474 0.359 0.0
C933 C 0.71558 0.70224 0.38107 0.0
C934 C 0.78973 0.77922 0.35974 0.0
C935 C 0.68571 0.70161 0.34354 0.0
C936 C 0.71505 0.80699 0.30793 0.0
C937 C 0.73408 0.79468 0.28953 0.0
C938 C 0.71414 0.7883 0.32812 0.0
C939 C 0.73343 0.7572 0.32986 0.0
C940 C 0.75133 0.74387 0.31095 0.0
C941 C 0.75123 0.76275 0.29088 0.0
C942 C 0.69417 0.80278 0.34793 0.0
C943 C 0.77265 0.71112 0.31234 0.0
H944 H 0.78342 0.74973 0.40067 0.0
H945 H 0.69718 0.68283 0.38663 0.0
H946 H 0.80209 0.77167 0.34355 0.0
H947 H 0.77643 0.80434 0.35699 0.0
H948 H 0.81028 0.78306 0.37256 0.0
H949 H 0.67159 0.67918 0.35084 0.0
H950 H 0.66686 0.72271 0.34032 0.0
H951 H 0.69675 0.69379 0.32702 0.0
H952 H 0.70193 0.83176 0.30674 0.0
H953 H 0.76648 0.75363 0.27667 0.0
H954 H 0.71249 0.81139 0.36118 0.0
H955 H 0.67745 0.78245 0.35543 0.0
H956 H 0.67772 0.82517 0.34309 0.0
H957 H 0.79593 0.71603 0.32277 0.0
H958 H 0.78125 0.70199 0.29545 0.0
H959 H 0.75779 0.69009 0.32061 0.0
C960 C 0.97083 0.99433 0.66503 0.0
C961 C 0.99177 0.96679 0.67216 0.0
C962 C 0.95427 0.99329 0.64406 0.0
C963 C 0.95842 0.96378 0.63009 0.0
C964 C 0.97585 0.93425 0.63842 0.0
C965 C 0.99261 0.93618 0.65933 0.0
C966 C 0.93557 0.02523 0.6359 0.0
C967 C 0.97992 0.90192 0.6243 0.0
C968 C 0.9118 0.96647 0.57373 0.0
C969 C 0.93769 0.9804 0.55981 0.0
C970 C 0.91842 0.95925 0.59655 0.0
C971 C 0.95143 0.96684 0.60558 0.0
C972 C 0.9779 0.97982 0.59138 0.0
C973 C 0.97071 0.98633 0.5687 0.0
C974 C 0.88977 0.94479 0.61107 0.0
C975 C 1.01349 0.98843 0.60032 0.0
H976 H 0.96922 1.01765 0.6752 0.0
H977 H 1.0086 0.91465 0.66468 0.0
H978 H 0.95179 0.03858 0.62311 0.0
H979 H 0.9108 0.01817 0.62771 0.0
H980 H 0.93014 0.04373 0.64984 0.0
H981 H 0.98712 0.87919 0.63475 0.0
H982 H 0.95568 0.89596 0.61509 0.0
H983 H 1.00063 0.90605 0.61159 0.0
H984 H 0.88627 0.96171 0.56687 0.0
H985 H 0.99063 0.9977 0.55815 0.0
H986 H 0.87889 0.96577 0.62176 0.0
H987 H 0.89975 0.92437 0.62249 0.0
H988 H 0.86847 0.93377 0.60076 0.0
H989 H 1.01146 1.0091 0.6133 0.0
H990 H 0.03138 0.99742 0.58686 0.0
H991 H 0.02506 0.96537 0.6085 0.0
C992 C 0.79909 0.34671 0.88265 0.0
C993 C 0.76874 0.33988 0.89489 0.0
C994 C 0.80445 0.33194 0.86135 0.0
C995 C 0.77872 0.31014 0.85217 0.0
C996 C 0.74692 0.30539 0.86369 0.0
C997 C 0.74239 0.32022 0.88506 0.0
C998 C 0.83865 0.33757 0.84954 0.0
C999 C 0.71857 0.28285 0.85413 0.0
C1000 C 0.77791 0.28076 0.79147 0.0
C1001 C 0.78833 0.2461 0.79367 0.0
C1002 C 0.77652 0.30275 0.81024 0.0
C1003 C 0.78594 0.28967 0.83158 0.0
C1004 C 0.79898 0.2555 0.8336 0.0
C1005 C 0.79983 0.23398 0.81456 0.0
C1006 C 0.76246 0.339 0.80748 0.0
C1007 C 0.80991 0.24096 0.8561 0.0
H1008 H 0.81971 0.36159 0.89038 0.0
H1009 H 0.71889 0.31516 0.89453 0.0
H1010 H 0.85441 0.31359 0.85069 0.0
H1011 H 0.83471 0.34311 0.83139 0.0
H1012 H 0.85356 0.3592 0.85718 0.0
H1013 H 0.69427 0.28465 0.86412 0.0
H1014 H 0.71296 0.29031 0.83646 0.0
H1015 H 0.72718 0.25542 0.85395 0.0
H1016 H 0.76852 0.29008 0.77538 0.0
H1017 H 0.80807 0.20724 0.81618 0.0
H1018 H 0.77863 0.35802 0.81672 0.0
H1019 H 0.73599 0.34032 0.81474 0.0
H1020 H 0.76113 0.34681 0.78948 0.0
H1021 H 0.82776 0.25911 0.86474 0.0
H1022 H 0.82289 0.21539 0.85437 0.0
H1023 H 0.78682 0.23776 0.86707 0.0
C1024 C 0.34289 0.22289 0.79315 0.0
C1025 C 0.31174 0.23901 0.78695 0.0
C1026 C 0.34547 0.2043 0.8134 0.0
C1027 C 0.31616 0.20173 0.82763 0.0
C1028 C 0.28392 0.21507 0.8204 0.0
C1029 C 0.28215 0.23368 0.80023 0.0
C1030 C 0.38014 0.18988 0.82032 0.0
C1031 C 0.25184 0.21242 0.83493 0.0
C1032 C 0.30533 0.14834 0.88043 0.0
C1033 C 0.30717 0.17438 0.89698 0.0
C1034 C 0.31141 0.15596 0.85763 0.0
C1035 C 0.31969 0.19032 0.85139 0.0
C1036 C 0.32536 0.21567 0.86827 0.0
C1037 C 0.31889 0.20743 0.89086 0.0
C1038 C 0.30582 0.12803 0.84018 0.0
C1039 C 0.33481 0.25253 0.86234 0.0
H1040 H 0.36572 0.22617 0.78271 0.0
H1041 H 0.258 0.24616 0.79576 0.0
H1042 H 0.3925 0.20794 0.83244 0.0
H1043 H 0.37722 0.16448 0.82885 0.0
H1044 H 0.39776 0.18674 0.80562 0.0
H1045 H 0.22814 0.22053 0.82577 0.0
H1046 H 0.24821 0.18546 0.84094 0.0
H1047 H 0.25476 0.22925 0.85001 0.0
H1048 H 0.29716 0.12246 0.88512 0.0
H1049 H 0.32031 0.2278 0.90342 0.0
H1050 H 0.32488 0.13018 0.82623 0.0
H1051 H 0.27962 0.13098 0.83282 0.0
H1052 H 0.30768 0.10173 0.84767 0.0
H1053 H 0.35614 0.25302 0.8498 0.0
H1054 H 0.34285 0.2677 0.87738 0.0
H1055 H 0.31211 0.26556 0.85465 0.0
C1056 C 0.21817 0.88464 0.38291 0.0
C1057 C 0.21862 0.8586 0.39942 0.0
C1058 C 0.21197 0.87654 0.36019 0.0
C1059 C 0.20593 0.84166 0.35399 0.0
C1060 C 0.20266 0.81601 0.37088 0.0
C1061 C 0.20919 0.82476 0.39337 0.0
C1062 C 0.21495 0.90475 0.34272 0.0
C1063 C 0.19569 0.77853 0.36502 0.0
C1064 C 0.18219 0.80693 0.29642 0.0
C1065 C 0.21406 0.79294 0.28947 0.0
C1066 C 0.17936 0.82565 0.31666 0.0
C1067 C 0.20912 0.83046 0.33013 0.0
C1068 C 0.24184 0.8193 0.32211 0.0
C1069 C 0.24388 0.80056 0.30193 0.0
C1070 C 0.14415 0.83776 0.32442 0.0
C1071 C 0.27435 0.82435 0.33582 0.0
H1072 H 0.22457 0.91106 0.38753 0.0
H1073 H 0.20962 0.80433 0.40588 0.0
H1074 H 0.24106 0.90371 0.33491 0.0
H1075 H 0.19567 0.90117 0.32909 0.0
H1076 H 0.2114 0.93087 0.35031 0.0
H1077 H 0.18949 0.7628 0.38017 0.0
H1078 H 0.17387 0.77646 0.35298 0.0
H1079 H 0.2189 0.76722 0.35674 0.0
H1080 H 0.15913 0.80185 0.28658 0.0
H1081 H 0.26858 0.78975 0.29683 0.0
H1082 H 0.14575 0.8635 0.33271 0.0
H1083 H 0.13376 0.81917 0.33698 0.0
H1084 H 0.12559 0.8393 0.31019 0.0
H1085 H 0.27635 0.85154 0.34177 0.0
H1086 H 0.29808 0.81788 0.32606 0.0
H1087 H 0.27339 0.80746 0.35094 0.0
C1088 C 0.12075 0.56405 0.57904 0.0
C1089 C 0.09425 0.55017 0.56563 0.0
C1090 C 0.11517 0.57113 0.60203 0.0
C1091 C 0.08258 0.56348 0.61177 0.0
C1092 C 0.05554 0.55041 0.59812 0.0
C1093 C 0.06171 0.54402 0.57527 0.0
C1094 C 0.14447 0.58554 0.61595 0.0
C1095 C 0.02035 0.54176 0.60781 0.0
C1096 C 0.06374 0.53623 0.67121 0.0
C1097 C 0.04245 0.56361 0.67831 0.0
C1098 C 0.08067 0.53741 0.65031 0.0
C1099 C 0.07645 0.56685 0.63639 0.0
C1100 C 0.05903 0.5964 0.64486 0.0
C1101 C 0.04195 0.59436 0.6657 0.0
C1102 C 0.09957 0.50555 0.64206 0.0
C1103 C 0.05503 0.62873 0.63084 0.0
H1104 H 0.14594 0.56895 0.57161 0.0
H1105 H 0.04134 0.53265 0.56513 0.0
H1106 H 0.13495 0.60508 0.62824 0.0
H1107 H 0.15664 0.56425 0.62564 0.0
H1108 H 0.16471 0.5976 0.60519 0.0
H1109 H 1.00198 0.5325 0.59474 0.0
H1110 H 0.02295 0.52129 0.62081 0.0
H1111 H 1.00898 0.5649 0.61612 0.0
H1112 H 0.06511 0.51282 0.68124 0.0
H1113 H 0.02578 0.61582 0.67107 0.0
H1114 H 0.12411 0.51275 0.63356 0.0
H1115 H 0.08325 0.4918 0.62953 0.0
H1116 H 0.10545 0.48736 0.65604 0.0
H1117 H 0.07924 0.63458 0.6215 0.0
H1118 H 0.04798 0.65149 0.6414 0.0
H1119 H 0.03422 0.62466 0.61825 0.0
C1120 C 0.5673 0.54206 0.13769 0.0
C1121 C 0.59963 0.54939 0.1472 0.0
C1122 C 0.56106 0.54754 0.11478 0.0
C1123 C 0.5878 0.56086 1.10091 0.0
C1124 C 0.62027 0.5693 0.11046 0.0
C1125 C 0.62593 0.56315 0.13353 0.0
C1126 C 0.52603 0.538 0.1053 0.0
C1127 C 0.64924 0.58393 1.09627 0.0
C1128 C 0.56883 0.53441 1.04122 0.0
C1129 C 0.54733 0.56177 1.03447 0.0
C1130 C 0.58572 0.53531 1.06211 0.0
C1131 C 0.58128 0.56444 1.07636 0.0
C1132 C 0.56353 0.59396 1.0683 0.0
C1133 C 0.5465 0.5922 1.04748 0.0
C1134 C 0.60487 0.50345 1.06993 0.0
C1135 C 0.55908 0.62593 1.08272 0.0
H1136 H 0.54712 0.53073 0.14804 0.0
H1137 H 0.65096 0.56888 0.14085 0.0
H1138 H 0.51406 0.56087 1.09714 0.0
H1139 H 0.52903 0.51762 1.09221 0.0
H1140 H 0.508 0.52828 0.11846 0.0
H1141 H 0.6703 0.59489 0.10681 0.0
H1142 H 0.66035 0.56308 1.08558 0.0
H1143 H 0.63946 0.60443 1.08485 0.0
H1144 H 0.57043 0.51122 1.03092 0.0
H1145 H 0.53011 0.61361 1.04244 0.0
H1146 H 0.58847 0.48911 1.08215 0.0
H1147 H 0.62916 0.51064 1.07867 0.0
H1148 H 0.61121 0.48577 1.05569 0.0
H1149 H 0.53842 0.62126 1.09539 0.0
H1150 H 0.5516 0.6488 1.07248 0.0
H1151 H 0.58324 0.63199 1.09198 0.0
C1152 C 0.29011 0.36649 0.23462 0.0
C1153 C 0.26848 0.35146 0.251 0.0
C1154 C 0.28362 0.39995 0.22616 0.0
C1155 C 0.25456 0.41887 0.23403 0.0
C1156 C 0.23301 0.40418 0.25085 0.0
C1157 C 0.24034 0.37089 0.2592 0.0
C1158 C 0.30747 0.41478 0.20844 0.0
C1159 C 0.20175 0.42339 0.25976 0.0
C1160 C 0.24481 0.51655 0.22625 0.0
C1161 C 0.22114 0.51832 0.20835 0.0
C1162 C 0.25717 0.48447 0.23417 0.0
C1163 C 0.24556 0.4533 0.22402 0.0
C1164 C 0.22319 0.45503 0.20518 0.0
C1165 C 0.21138 0.4874 0.19755 0.0
C1166 C 0.28122 0.4839 0.25418 0.0
C1167 C 0.21003 0.42253 0.19386 0.0
H1168 H 0.31171 0.35176 0.22793 0.0
H1169 H 0.22385 0.36003 0.27219 0.0
H1170 H 0.29317 0.41815 0.1924 0.0
H1171 H 0.31674 0.44075 0.21373 0.0
H1172 H 0.33025 0.39789 0.20522 0.0
H1173 H 0.18727 0.40818 0.27256 0.0
H1174 H 0.20986 0.4483 0.26748 0.0
H1175 H 0.18393 0.42966 0.2457 0.0
H1176 H 0.25244 0.54013 0.23486 0.0
H1177 H 0.19316 0.48829 0.1837 0.0
H1178 H 0.30327 0.4661 0.25101 0.0
H1179 H 0.2671 0.47412 0.26918 0.0
H1180 H 0.29152 0.51006 0.25819 0.0
H1181 H 0.23194 0.40534 0.18921 0.0
H1182 H 0.19482 0.42825 0.17843 0.0
H1183 H 0.19331 0.40799 0.20578 0.0
C1184 C 0.41409 0.48552 0.5102 0.0
C1185 C 0.42975 0.51742 0.5051 0.0
C1186 C 0.38073 0.47737 0.5024 0.0
C1187 C 0.36247 0.50156 0.48898 0.0
C1188 C 0.37781 0.53401 0.48407 0.0
C1189 C 0.41117 0.54155 0.49218 0.0
C1190 C 0.36534 0.44248 0.5081 0.0
C1191 C 0.35912 0.56063 0.47001 0.0
C1192 C 0.2931 0.46349 0.45073 0.0
C1193 C 0.26286 0.46901 0.4634 0.0
C1194 C 0.32548 0.47501 0.4585 0.0
C1195 C 0.32783 0.4923 0.47955 0.0
C1196 C 0.29725 0.49901 0.49205 0.0
C1197 C 0.26516 0.48747 0.48379 0.0
C1198 C 0.35738 0.46739 0.44459 0.0
C1199 C 0.29859 0.51708 0.51464 0.0
H1200 H 0.42825 0.46644 0.51987 0.0
H1201 H 0.42269 0.56649 0.48845 0.0
H1202 H 0.33914 0.44567 0.51552 0.0
H1203 H 0.36245 0.42691 0.49247 0.0
H1204 H 0.38161 0.42771 0.52015 0.0
H1205 H 0.37414 0.58501 0.46821 0.0
H1206 H 0.35404 0.54997 0.45295 0.0
H1207 H 0.33367 0.56681 0.47773 0.0
H1208 H 0.29166 0.44922 0.435 0.0
H1209 H 0.24208 0.49154 0.49388 0.0
H1210 H 0.37439 0.4492 0.45388 0.0
H1211 H 0.37236 0.4915 0.44174 0.0
H1212 H 0.35099 0.45572 0.42798 0.0
H1213 H 0.31412 0.50149 0.52662 0.0
H1214 H 0.27244 0.52116 0.52201 0.0
H1215 H 0.31156 0.54257 0.51291 0.0
C1216 C 0.28633 0.66177 0.75906 0.0
C1217 C 0.25973 0.68189 0.74965 0.0
C1218 C 0.29409 0.62848 0.75077 0.0
C1219 C 0.2745 0.61445 0.73277 0.0
C1220 C 0.24681 0.63401 0.7237 0.0
C1221 C 0.23988 0.66748 0.73214 0.0
C1222 C 0.3238 0.60858 0.76102 0.0
C1223 C 0.22504 0.61993 0.70468 0.0
C1224 C 0.32201 0.5466 0.69776 0.0
C1225 C 0.31081 0.51546 0.70761 0.0
C1226 C 0.30927 0.57883 0.70512 0.0
C1227 C 0.28446 0.58021 0.72273 0.0
C1228 C 0.27143 0.54884 0.7318 0.0
C1229 C 0.28478 0.51688 0.72418 0.0
C1230 C 0.32398 0.61152 0.69495 0.0
C1231 C 0.24474 0.54904 0.75042 0.0
H1232 H 0.30134 0.67213 0.77292 0.0
H1233 H 0.21947 0.68273 0.72455 0.0
H1234 H 0.31424 0.58389 0.76826 0.0
H1235 H 0.34309 0.6019 0.74781 0.0
H1236 H 0.33707 0.62349 0.7745 0.0
H1237 H 0.20276 0.63704 0.70073 0.0
H1238 H 0.24117 0.61707 0.68929 0.0
H1239 H 0.21509 0.59381 0.70905 0.0
H1240 H 0.34201 0.54597 0.68491 0.0
H1241 H 0.27596 0.49313 0.73203 0.0
H1242 H 0.33919 0.62565 0.70788 0.0
H1243 H 0.30282 0.62896 0.68944 0.0
H1244 H 0.34109 0.6061 0.68028 0.0
H1245 H 0.25682 0.55828 0.76628 0.0
H1246 H 0.23375 0.52286 0.75345 0.0
H1247 H 0.22332 0.56712 0.74634 0.0
C1248 C 0.1191 0.48823 0.98666 0.0
C1249 C 0.10201 0.51066 1.00173 0.0
C1250 C 0.15238 0.49591 0.97832 0.0
C1251 C 0.16921 0.52677 0.98518 0.0
C1252 C 0.15244 0.5492 1.0007 0.0
C1253 C 0.11913 0.54096 1.0087 0.0
C1254 C 0.16944 0.47113 0.96199 0.0
C1255 C 0.16942 0.58235 1.00853 0.0
C1256 C 0.26681 0.53902 0.97882 0.0
C1257 C 0.26884 0.56096 0.95999 0.0
C1258 C 0.23471 0.52672 0.98678 0.0
C1259 C 0.20382 0.53637 0.9756 0.0
C1260 C 0.20588 0.55704 0.95592 0.0
C1261 C 0.23826 0.56911 0.94841 0.0
C1262 C 0.23378 0.50493 1.00788 0.0
C1263 C 0.17369 0.56784 0.94339 0.0
H1264 H 0.1065 0.46447 0.98143 0.0
H1265 H 0.10616 0.55878 1.02006 0.0
H1266 H 0.17429 0.48436 0.9457 0.0
H1267 H 0.19492 0.46279 0.96865 0.0
H1268 H 0.1534 0.44776 0.95879 0.0
H1269 H 0.15374 0.59615 1.02147 0.0
H1270 H 0.1953 0.57676 1.01571 0.0
H1271 H 0.17334 0.59991 0.99396 0.0
H1272 H 0.29012 0.53286 0.98811 0.0
H1273 H 0.23943 0.58604 0.93387 0.0
H1274 H 0.21738 0.48168 1.00531 0.0
H1275 H 0.22212 0.52015 1.02187 0.0
H1276 H 0.26002 0.49644 1.01312 0.0
H1277 H 0.15772 0.54482 0.93926 0.0
H1278 H 0.17978 0.58183 0.92752 0.0
H1279 H 0.15776 0.58504 0.95427 0.0
C1280 C 0.79734 0.51875 0.98109 0.0
C1281 C 0.81672 0.517 1.00107 0.0
C1282 C 0.78534 0.55065 0.97271 0.0
C1283 C 0.79257 0.58163 0.98466 0.0
C1284 C 0.81087 0.57986 1.0053 0.0
C1285 C 0.82279 0.54766 1.0132 0.0
C1286 C 0.76621 0.55136 0.95055 0.0
C1287 C 0.81909 0.61219 1.01862 0.0
C1288 C 0.79724 0.66705 0.95261 0.0
C1289 C 0.76554 0.68275 0.95823 0.0
C1290 C 0.80602 0.63398 0.96075 0.0
C1291 C 0.7827 0.61606 0.97504 0.0
C1292 C 0.75048 0.63147 0.98054 0.0
C1293 C 0.74229 0.66453 0.97209 0.0
C1294 C 0.84068 0.61857 0.95444 0.0
C1295 C 0.72474 0.61312 0.99553 0.0
H1296 H 0.7928 0.49535 0.97139 0.0
H1297 H 0.83777 0.54666 1.02861 0.0
H1298 H 0.741 0.56476 0.95264 0.0
H1299 H 0.78139 0.56621 0.93794 0.0
H1300 H 0.76148 0.52494 0.94374 0.0
H1301 H 0.83164 0.60628 1.035 0.0
H1302 H 0.83668 0.62902 1.00868 0.0
H1303 H 0.79512 0.62721 1.02192 0.0
H1304 H 0.81566 0.68095 0.94222 0.0
H1305 H 0.71751 0.67606 0.97625 0.0
H1306 H 0.83742 0.59187 0.94781 0.0
H1307 H 0.85719 0.61682 0.96967 0.0
H1308 H 0.85448 0.63426 0.94156 0.0
H1309 H 0.71819 0.58744 0.98826 0.0
H1310 H 0.70047 0.62819 0.99781 0.0
H1311 H 0.73633 0.60846 1.01235 0.0
C1312 C 0.61465 0.48908 0.72974 0.0
C1313 C 0.59942 0.51034 0.71328 0.0
C1314 C 0.64784 0.49624 0.73837 0.0
C1315 C 0.66632 0.5256 0.73059 0.0
C1316 C 0.65138 0.54688 0.71378 0.0
C1317 C 0.61837 0.53888 0.70525 0.0
C1318 C 0.66292 0.4727 0.7561 0.0
C1319 C 0.67006 0.5785 0.70501 0.0
C1320 C 0.73479 0.56968 0.76682 0.0
C1321 C 0.76567 0.55991 0.75596 0.0
C1322 C 0.70246 0.55757 0.75932 0.0
C1323 C 0.70073 0.53498 0.74049 0.0
C1324 C 0.73186 0.52349 0.73022 0.0
C1325 C 0.76389 0.53606 0.73806 0.0
C1326 C 0.67001 0.57057 0.77079 0.0
C1327 C 0.73131 0.49933 0.71018 0.0
H1328 H 0.6003 0.4672 0.73633 0.0
H1329 H 0.60741 0.55512 0.69222 0.0
H1330 H 0.68886 0.46345 0.75073 0.0
H1331 H 0.66637 0.48727 0.77208 0.0
H1332 H 0.64622 0.44985 0.75947 0.0
H1333 H 0.65481 0.59259 0.69209 0.0
H1334 H 0.67563 0.59656 0.71912 0.0
H1335 H 0.69527 0.57085 0.69751 0.0
H1336 H 0.73569 0.58806 0.78065 0.0
H1337 H 0.78742 0.52844 0.72938 0.0
H1338 H 0.65304 0.54854 0.77545 0.0
H1339 H 0.65528 0.58721 0.75897 0.0
H1340 H 0.67575 0.58586 0.78623 0.0
H1341 H 0.71394 0.47701 0.71346 0.0
H1342 H 0.75752 0.48937 0.70593 0.0
H1343 H 0.72103 0.51327 0.69528 0.0
C1344 C 0.73466 0.36254 0.45517 0.0
C1345 C 0.76602 0.34658 0.46113 0.0
C1346 C 0.72555 0.39538 0.46366 0.0
C1347 C 0.74817 0.41278 0.47866 0.0
C1348 C 0.77998 0.39703 0.48459 0.0
C1349 C 0.78852 0.36423 0.47576 0.0
C1350 C 0.69143 0.41127 0.45679 0.0
C1351 C 0.80499 0.41485 0.5003 0.0
C1352 C 0.73497 0.51022 0.4849 0.0
C1353 C 0.71453 0.51232 0.5045 0.0
C1354 C 0.7468 0.47815 0.47661 0.0
C1355 C 0.73828 0.44729 0.48825 0.0
C1356 C 0.71892 0.44934 0.50854 0.0
C1357 C 0.70722 0.48175 0.51638 0.0
C1358 C 0.76711 0.47721 0.45482 0.0
C1359 C 0.70936 0.4171 0.52152 0.0
H1360 H 0.71681 0.34906 0.44417 0.0
H1361 H 0.81305 0.35252 0.48019 0.0
H1362 H 0.6747 0.41471 0.47187 0.0
H1363 H 0.6957 0.43732 0.44942 0.0
H1364 H 0.67739 0.3951 0.44429 0.0
H1365 H 0.82877 0.3993 0.50316 0.0
H1366 H 0.81255 0.44038 0.49327 0.0
H1367 H 0.79233 0.41978 0.51682 0.0
H1368 H 0.74054 0.53353 0.4754 0.0
H1369 H 0.6914 0.48298 0.53149 0.0
H1370 H 0.79114 0.46182 0.45693 0.0
H1371 H 0.77416 0.50355 0.44886 0.0
H1372 H 0.75151 0.46435 0.44154 0.0
H1373 H 0.69201 0.40067 0.51114 0.0
H1374 H 0.69604 0.42318 0.53768 0.0
H1375 H 0.73285 0.40161 0.5252 0.0
C1376 C 0.79531 0.46507 0.26425 0.0
C1377 C 0.76571 0.46951 0.25091 0.0
C1378 C 0.82803 0.47629 0.25676 0.0
C1379 C 0.83139 0.4921 0.23531 0.0
C1380 C 0.80146 0.49753 0.22204 0.0
C1381 C 0.76903 0.48641 0.23004 0.0
C1382 C 0.85921 0.47007 0.27148 0.0
C1383 C 0.80386 0.51394 0.19899 0.0
C1384 C 0.91426 0.54229 0.22257 0.0
C1385 C 0.93383 0.51779 0.21046 0.0
C1386 C 0.88082 0.53446 0.23055 0.0
C1387 C 0.86641 0.50134 0.22634 0.0
C1388 C 0.88575 0.47669 0.21382 0.0
C1389 C 0.91916 0.48514 0.20613 0.0
C1390 C 0.86096 0.5616 0.24363 0.0
C1391 C 0.87137 0.4411 0.20884 0.0
H1392 H 0.79309 0.45198 0.28034 0.0
H1393 H 0.74646 0.48966 0.21943 0.0
H1394 H 0.87702 0.45158 0.26301 0.0
H1395 H 0.87366 0.49459 0.27404 0.0
H1396 H 0.85205 0.45938 0.28824 0.0
H1397 H 0.77819 0.51633 0.19075 0.0
H1398 H 0.81559 0.54008 0.20036 0.0
H1399 H 0.82098 0.49822 0.18794 0.0
H1400 H 0.925 0.56777 0.22572 0.0
H1401 H 0.9341 0.4658 0.19709 0.0
H1402 H 0.85494 0.55184 0.26078 0.0
H1403 H 0.83594 0.56698 0.2352 0.0
H1404 H 0.87555 0.58627 0.24523 0.0
H1405 H 0.86759 0.42675 0.22485 0.0
H1406 H 0.88871 0.42568 0.19771 0.0
H1407 H 0.84569 0.44324 0.20064 0.0
C1408 C 0.73432 0.86323 0.7572 0.0
C1409 C 0.76624 0.84767 0.7519 0.0
C1410 C 0.72566 0.8964 0.74914 0.0
C1411 C 0.74932 0.91462 0.73524 0.0
C1412 C 0.78175 0.89936 0.73006 0.0
C1413 C 0.78981 0.86619 0.73845 0.0
C1414 C 0.69076 0.91158 0.75509 0.0
C1415 C 0.80782 0.91794 0.71545 0.0
C1416 C 0.70995 0.98343 0.69699 0.0
C1417 C 0.71571 1.014 0.70929 0.0
C1418 C 0.72177 0.95115 0.70486 0.0
C1419 C 0.73959 0.94917 0.72567 0.0
C1420 C 0.74643 0.98007 0.73783 0.0
C1421 C 0.73463 1.01207 0.72944 0.0
C1422 C 0.71397 0.91895 0.69129 0.0
C1423 C 0.76502 0.97916 0.76018 0.0
H1424 H 0.71562 0.84912 0.76726 0.0
H1425 H 0.81475 0.85482 0.73451 0.0
H1426 H 0.69364 0.93842 0.76156 0.0
H1427 H 0.67453 0.91292 0.73972 0.0
H1428 H 0.67688 0.89594 0.76796 0.0
H1429 H 0.83217 0.90295 0.71337 0.0
H1430 H 0.79664 0.92277 0.69854 0.0
H1431 H 0.81411 0.94354 0.72292 0.0
H1432 H 0.69531 0.98455 0.68144 0.0
H1433 H 0.73886 0.03539 0.73927 0.0
H1434 H 0.69611 0.90201 0.70094 0.0
H1435 H 0.73805 0.90399 0.68823 0.0
H1436 H 0.7019 0.92504 0.67479 0.0
H1437 H 0.75049 0.96272 0.77225 0.0
H1438 H 0.76811 1.00538 0.76768 0.0
H1439 H 0.79099 0.96735 0.758 0.0
C1440 C 0.79791 0.96204 0.94649 0.0
C1441 C 0.76738 0.96783 0.95882 0.0
C1442 C 0.83012 0.97398 0.95433 0.0
C1443 C 0.83206 0.99202 0.97513 0.0
C1444 C 0.80121 0.9989 0.98733 0.0
C1445 C 0.76928 0.98691 0.97899 0.0
C1446 C 0.86229 0.96608 0.94075 0.0
C1447 C 0.80209 1.0177 1.00966 0.0
C1448 C 0.91811 0.98772 1.00643 0.0
C1449 C 0.93342 0.01964 1.00091 0.0
C1450 C 0.88497 0.97875 0.99854 0.0
C1451 C 0.86655 1.0021 0.98459 0.0
C1452 C 0.88156 0.03454 0.97921 0.0
C1453 C 0.91471 0.04291 0.98741 0.0
C1454 C 0.87006 0.94383 1.00469 0.0
C1455 C 0.86272 0.06032 0.96459 0.0
H1456 H 0.79682 0.94726 0.93094 0.0
H1457 H 0.746 0.99116 0.98885 0.0
H1458 H 0.87706 0.99022 0.93754 0.0
H1459 H 0.87935 0.94848 0.95046 0.0
H1460 H 0.85625 0.95365 0.92431 0.0
H1461 H 0.77583 0.02154 1.01692 0.0
H1462 H 0.81786 1.00281 1.02188 0.0
H1463 H 0.8146 0.04337 1.0076 0.0
H1464 H 0.93238 0.96926 1.01654 0.0
H1465 H 0.92591 0.06786 0.98332 0.0
H1466 H 0.8689 0.92723 0.98941 0.0
H1467 H 0.84322 0.94663 1.01113 0.0
H1468 H 0.88576 0.93032 1.01765 0.0
H1469 H 0.85789 0.04887 0.94771 0.0
H1470 H 0.87749 0.08478 0.96239 0.0
H1471 H 0.83714 0.06655 0.97211 0.0
C1472 C 0.79735 0.0222 0.22977 0.0
C1473 C 0.81526 0.01983 0.20917 0.0
C1474 C 0.786 0.05437 0.23827 0.0
C1475 C 0.79233 0.08502 0.2258 0.0
C1476 C 0.80925 0.08263 0.20461 0.0
C1477 C 0.82057 0.05017 0.19661 0.0
C1478 C 0.76834 0.0557 0.26099 0.0
C1479 C 0.81655 0.11457 0.19074 0.0
C1480 C 0.74208 0.16797 0.23891 0.0
C1481 C 0.76593 0.18689 0.25187 0.0
C1482 C 0.75008 0.1347 0.23059 0.0
C1483 C 0.78275 0.11974 0.23531 0.0
C1484 C 0.80672 0.13838 0.24871 0.0
C1485 C 0.7981 0.17165 0.25673 0.0
C1486 C 0.72365 0.11563 0.21657 0.0
C1487 C 0.84184 0.12347 0.2542 0.0
H1488 H 0.79343 0.99907 0.23979 0.0
H1489 H 0.83445 0.04872 0.18072 0.0
H1490 H 0.78363 0.07194 0.27277 0.0
H1491 H 0.74249 0.06793 0.25937 0.0
H1492 H 0.76513 0.02957 0.26855 0.0
H1493 H 0.82824 0.10821 0.17411 0.0
H1494 H 0.79231 0.12934 0.18793 0.0
H1495 H 0.83455 0.13182 0.20003 0.0
H1496 H 0.71695 0.17912 0.23533 0.0
H1497 H 0.81699 0.18606 0.26642 0.0
H1498 H 0.71775 0.09017 0.22433 0.0
H1499 H 0.7343 0.11046 0.1995 0.0
H1500 H 0.69915 0.13044 0.2148 0.0
H1501 H 0.83916 0.0971 0.2614 0.0
H1502 H 0.85636 0.13986 0.26635 0.0
H1503 H 0.85736 0.12104 0.23851 0.0
C1504 C 0.76254 0.04594 0.47991 0.0
C1505 C 0.76513 0.06424 0.45951 0.0
C1506 C 0.73032 0.03454 0.48816 0.0
C1507 C 0.69986 0.04115 0.47562 0.0
C1508 C 0.7025 0.05838 0.4546 0.0
C1509 C 0.73499 0.06981 0.44686 0.0
C1510 C 0.7287 1.0166 0.51073 0.0
C1511 C 0.67076 0.06593 0.44065 0.0
C1512 C 0.61669 0.99121 0.48807 0.0
C1513 C 0.59776 1.01514 0.50108 0.0
C1514 C 0.65006 0.99908 0.47995 0.0
C1515 C 0.66508 0.03167 0.48494 0.0
C1516 C 0.64645 0.05569 0.49841 0.0
C1517 C 0.61308 0.04722 0.50621 0.0
C1518 C 0.66911 0.97261 0.46584 0.0
C1519 C 0.66142 0.09076 0.50417 0.0
H1520 H 0.78552 0.04185 0.49 0.0
H1521 H 0.73664 0.08399 0.43114 0.0
H1522 H 0.71209 0.03164 0.52249 0.0
H1523 H 0.71677 0.99063 0.5088 0.0
H1524 H 0.75467 1.01352 0.51847 0.0
H1525 H 0.67734 0.07765 0.42409 0.0
H1526 H 0.65591 0.04177 0.43767 0.0
H1527 H 0.65355 0.08404 0.44996 0.0
H1528 H 0.60548 0.96614 0.4843 0.0
H1529 H 0.59866 0.06617 0.51593 0.0
H1530 H 0.69444 0.9665 0.47365 0.0
H1531 H 0.67448 0.98338 0.44885 0.0
H1532 H 0.65424 0.94817 0.46386 0.0
H1533 H 0.68795 0.08799 0.51103 0.0
H1534 H 0.64533 0.10501 0.51667 0.0
H1535 H 0.66339 0.10662 0.48864 0.0
C1536 C 0.29531 0.17001 0.45441 0.0
C1537 C 0.26312 0.18481 0.45988 0.0
C1538 C 0.30445 0.13671 0.46195 0.0
C1539 C 0.28097 0.11761 0.47547 0.0
C1540 C 0.24831 0.13216 0.48086 0.0
C1541 C 0.23979 0.1655 0.47302 0.0
C1542 C 0.33954 0.1222 0.45576 0.0
C1543 C 0.2224 0.11255 0.49501 0.0
C1544 C 0.29608 0.0201 0.47905 0.0
C1545 C 0.31452 1.01706 0.49935 0.0
C1546 C 0.28438 0.05248 0.47131 0.0
C1547 C 0.29095 0.08267 0.48424 0.0
C1548 C 0.30844 0.07962 0.50512 0.0
C1549 C 0.32007 0.04694 0.51238 0.0
C1550 C 0.26614 0.05452 0.44887 0.0
C1551 C 0.31597 0.1111 0.51944 0.0
H1552 H 0.31378 0.18477 0.44457 0.0
H1553 H 0.21465 0.17634 0.47706 0.0
H1554 H 0.35527 0.11889 0.47123 0.0
H1555 H 0.33677 0.09625 0.44788 0.0
H1556 H 0.35388 0.13927 0.44391 0.0
H1557 H 0.19793 0.12722 0.49746 0.0
H1558 H 0.21629 0.08736 0.4869 0.0
H1559 H 0.23361 0.10679 0.51179 0.0
H1560 H 0.29194 0.99733 0.46867 0.0
H1561 H 0.33436 0.04497 0.52803 0.0
H1562 H 0.28176 0.07019 0.43693 0.0
H1563 H 0.2408 0.06771 0.45088 0.0
H1564 H 0.26179 0.02855 0.44128 0.0
H1565 H 0.33364 0.12876 0.51019 0.0
H1566 H 0.32812 0.10421 0.53578 0.0
H1567 H 0.29174 0.12565 0.52286 0.0
C1568 C 0.11669 0.9953 0.22025 0.0
C1569 C 0.09795 0.01961 0.20758 0.0
C1570 C 0.14993 1.00293 0.22852 0.0
C1571 C 0.16498 0.03565 0.22401 0.0
C1572 C 0.14652 0.06008 0.21089 0.0
C1573 C 0.11328 0.05183 0.20294 0.0
C1574 C 0.16886 0.97605 0.24223 0.0
C1575 C 0.16163 0.09524 0.2056 0.0
C1576 C 0.23478 0.07261 0.26239 0.0
C1577 C 0.26484 0.0675 0.24948 0.0
C1578 C 0.2023 0.06138 0.25463 0.0
C1579 C 0.19968 0.04478 0.23336 0.0
C1580 C 0.23008 0.03852 0.22058 0.0
C1581 C 0.26225 0.04978 0.22883 0.0
C1582 C 0.17057 0.06851 0.2688 0.0
C1583 C 0.22845 0.02118 0.19775 0.0
H1584 H 0.10543 0.97013 0.22363 0.0
H1585 H 0.09897 0.07104 0.19346 0.0
H1586 H 0.19421 0.97008 0.23429 0.0
H1587 H 0.1742 0.98634 0.25936 0.0
H1588 H 0.15392 0.9516 0.2439 0.0
H1589 H 0.14498 0.11045 0.19402 0.0
H1590 H 0.165 0.11019 0.22145 0.0
H1591 H 0.1876 0.0924 0.19778 0.0
H1592 H 0.23645 0.08632 0.27832 0.0
H1593 H 0.2852 0.04596 0.21856 0.0
H1594 H 0.15572 0.04427 0.27147 0.0
H1595 H 0.15336 0.08688 0.25983 0.0
H1596 H 0.17715 0.07975 0.28551 0.0
H1597 H 0.21537 0.99569 0.19918 0.0
H1598 H 0.25452 1.01721 0.19023 0.0
H1599 H 0.21291 0.03723 0.18604 0.0
C1600 C 0.21167 0.98595 1.01183 0.0
C1601 C 0.21776 1.01611 0.99925 0.0
C1602 C 0.22379 0.95347 1.00442 0.0
C1603 C 0.24233 0.9509 0.98383 0.0
C1604 C 0.2495 0.98138 0.9714 0.0
C1605 C 0.23728 1.01357 0.97928 0.0
C1606 C 0.21561 0.92168 1.01824 0.0
C1607 C 0.26885 0.97985 0.94926 0.0
C1608 C 0.2936 0.86794 0.97284 0.0
C1609 C 0.27073 0.84881 0.95928 0.0
C1610 C 0.28496 0.90132 0.98068 0.0
C1611 C 0.25267 0.91613 0.97483 0.0
C1612 C 0.22974 0.89728 0.96081 0.0
C1613 C 0.23896 0.86392 0.9533 0.0
C1614 C 0.31031 0.92066 0.99538 0.0
C1615 C 0.19507 0.91208 0.95409 0.0
H1616 H 0.19658 0.98755 1.02724 0.0
H1617 H 0.24181 0.03657 0.96924 0.0
H1618 H 0.1984 0.90422 1.0085 0.0
H1619 H 0.23968 0.90707 1.0219 0.0
H1620 H 0.20269 0.92822 1.03446 0.0
H1621 H 0.27439 1.00604 0.9424 0.0
H1622 H 0.29365 0.96575 0.95137 0.0
H1623 H 0.25333 0.96533 0.93668 0.0
H1624 H 0.31843 0.85687 0.97728 0.0
H1625 H 0.22083 0.84933 0.94311 0.0
H1626 H 0.29843 0.92604 1.01208 0.0
H1627 H 0.3167 0.94602 0.98765 0.0
H1628 H 0.33468 0.90595 0.99798 0.0
H1629 H 0.17861 0.91544 0.9693 0.0
H1630 H 0.18119 0.89518 0.94192 0.0
H1631 H 0.19842 0.93805 0.9464 0.0
C1632 C 0.41345 0.04362 0.72538 0.0
C1633 C 0.4302 0.02106 0.71024 0.0
C1634 C 0.38027 0.03611 0.73396 0.0
C1635 C 0.36323 1.00526 0.72728 0.0
C1636 C 0.3797 0.98267 0.71172 0.0
C1637 C 0.41289 0.99076 0.70348 0.0
C1638 C 0.36351 0.06107 0.75031 0.0
C1639 C 0.36249 0.94955 0.70406 0.0
C1640 C 0.29434 0.96313 0.76424 0.0
C1641 C 0.26376 0.97105 0.7526 0.0
C1642 C 0.32668 0.9753 0.75672 0.0
C1643 C 0.32868 0.99588 0.737 0.0
C1644 C 0.29776 1.00546 0.72583 0.0
C1645 C 0.26573 0.99302 0.73377 0.0
C1646 C 0.35891 0.96458 0.76924 0.0
C1647 C 0.29862 0.02726 0.70473 0.0
H1648 H 0.4262 0.06738 0.73046 0.0
H1649 H 0.42562 0.97285 0.69206 0.0
H1650 H 0.33802 0.06952 0.74374 0.0
H1651 H 0.35874 0.04795 0.76665 0.0
H1652 H 0.37971 0.08436 0.75339 0.0
H1653 H 0.37808 0.93543 0.69123 0.0
H1654 H 0.35835 0.93223 0.71873 0.0
H1655 H 0.33668 0.95526 0.6968 0.0
H1656 H 0.29323 0.94622 0.7788 0.0
H1657 H 0.24241 0.9991 0.72446 0.0
H1658 H 0.37498 0.98759 0.7732 0.0
H1659 H 0.37471 0.94718 0.75841 0.0
H1660 H 0.35286 0.95081 0.7852 0.0
H1661 H 0.31518 0.05042 0.70723 0.0
H1662 H 0.27238 0.0359 0.6996 0.0
H1663 H 0.31004 1.01197 0.69069 0.0
C1664 C 0.31204 0.10623 0.1722 0.0
C1665 C 0.30363 0.1307 0.18936 0.0
C1666 C 0.29322 0.10299 0.15119 0.0
C1667 C 0.26417 0.12463 0.14588 0.0
C1668 C 0.25548 0.14935 0.16314 0.0
C1669 C 0.27462 0.15189 0.18412 0.0
C1670 C 0.30454 0.07569 0.13454 0.0
C1671 C 0.22545 0.17355 0.15948 0.0
C1672 C 0.23652 0.13786 1.08151 0.0
C1673 C 0.2068 0.11672 1.07801 0.0
C1674 C 0.25449 0.14079 1.10282 0.0
C1675 C 0.24389 0.12197 0.12246 0.0
C1676 C 0.21392 0.10048 0.11915 0.0
C1677 C 0.19612 0.09829 1.0976 0.0
C1678 C 0.28535 0.16453 1.10425 0.0
C1679 C 0.20061 0.07917 0.13856 0.0
H1680 H 0.33361 0.08894 0.17522 0.0
H1681 H 0.26658 0.17082 0.19658 0.0
H1682 H 0.28283 0.05758 0.13124 0.0
H1683 H 0.31146 0.08797 0.11824 0.0
H1684 H 0.32713 0.06059 0.14061 0.0
H1685 H 0.22236 0.19244 0.1735 0.0
H1686 H 0.22904 0.18799 0.14348 0.0
H1687 H 0.20121 0.15837 0.15791 0.0
H1688 H 0.24611 0.15263 1.0673 0.0
H1689 H 0.17375 0.08155 1.09612 0.0
H1690 H 0.30876 0.14936 0.10866 0.0
H1691 H 0.28128 0.1839 0.11786 0.0
H1692 H 0.29028 0.17843 1.08818 0.0
H1693 H 0.22127 0.06148 0.14455 0.0
H1694 H 0.17759 0.06352 0.13391 0.0
H1695 H 0.19363 0.09637 0.15288 0.0
C1696 C 0.64107 0.48584 0.33416 0.0
C1697 C 0.66456 0.45808 0.33009 0.0
C1698 C 0.63788 0.50369 0.35556 0.0
C1699 C 0.65876 0.49493 0.37467 0.0
C1700 C 0.68258 0.46694 0.37075 0.0
C1701 C 0.68504 0.44924 0.34915 0.0
C1702 C 0.61164 0.53241 0.3577 0.0
C1703 C 0.70601 0.45555 0.3896 0.0
C1704 C 0.67233 0.56428 0.42412 0.0
C1705 C 0.65001 0.55387 0.44199 0.0
C1706 C 0.67546 0.54582 0.40292 0.0
C1707 C 0.65591 0.5151 0.39815 0.0
C1708 C 0.63331 0.50442 0.4161 0.0
C1709 C 0.63081 0.52329 0.43724 0.0
C1710 C 0.7004 0.55935 0.38547 0.0
C1711 C 0.61147 0.47245 0.41306 0.0
H1712 H 0.62468 0.49393 0.32035 0.0
H1713 H 0.70358 0.42839 0.3472 0.0
H1714 H 0.59359 0.52677 0.37181 0.0
H1715 H 0.62491 0.55712 0.36175 0.0
H1716 H 0.59638 0.53597 0.34203 0.0
H1717 H 0.72124 0.47793 0.39588 0.0
H1718 H 0.69025 0.4459 0.40393 0.0
H1719 H 0.72415 0.43474 0.38424 0.0
H1720 H 0.68802 0.58719 0.42673 0.0
H1721 H 0.6136 0.51371 0.45026 0.0
H1722 H 0.68633 0.56546 0.36969 0.0
H1723 H 0.71982 0.53909 0.38133 0.0
H1724 H 0.71417 0.58301 0.39124 0.0
H1725 H 0.59607 0.47452 0.39735 0.0
H1726 H 0.59359 0.46816 0.42748 0.0
H1727 H 0.62848 0.44944 0.41128 0.0
C1728 C 0.25664 0.88309 0.68371 0.0
C1729 C 0.22713 0.90386 0.68857 0.0
C1730 C 0.27605 0.88527 0.66278 0.0
C1731 C 0.26701 0.9091 0.64518 0.0
C1732 C 0.23742 0.93026 0.65009 0.0
C1733 C 0.2184 0.92745 0.67107 0.0
C1734 C 0.30678 0.86175 0.65956 0.0
C1735 C 0.22569 0.95654 0.63298 0.0
C1736 C 0.33475 0.93614 0.59694 0.0
C1737 C 0.32519 0.91651 0.5776 0.0
C1738 C 0.31674 0.93401 0.61843 0.0
C1739 C 0.2876 0.91148 0.62188 0.0
C1740 C 0.27808 0.8915 0.60248 0.0
C1741 C 0.29634 0.89427 0.58122 0.0
C1742 C 0.32909 0.95629 0.63768 0.0
C1743 C 0.24804 0.86675 0.6041 0.0
H1744 H 0.26491 0.86483 0.69645 0.0
H1745 H 0.19638 0.94434 0.67379 0.0
H1746 H 0.30382 0.84653 0.64379 0.0
H1747 H 0.33062 0.87753 0.65779 0.0
H1748 H 0.31018 0.84357 0.67388 0.0
H1749 H 0.20289 0.97161 0.63887 0.0
H1750 H 0.24711 0.9748 0.62923 0.0
H1751 H 0.21894 0.94331 0.61696 0.0
H1752 H 0.35647 0.95369 0.59533 0.0
H1753 H 0.28765 0.8786 0.56716 0.0
H1754 H 0.33788 0.93958 0.65174 0.0
H1755 H 0.30745 0.9724 0.64421 0.0
H1756 H 0.35073 0.97358 0.63266 0.0
H1757 H 0.24381 0.85219 0.58817 0.0
H1758 H 0.22407 0.88123 0.60832 0.0
H1759 H 0.2526 0.84794 0.61791 0.0
C1760 C 0.88537 0.54536 0.83357 0.0
C1761 C 0.86277 0.57398 0.83004 0.0
C1762 C 0.88869 0.52737 0.85484 0.0
C1763 C 0.86874 0.53675 0.87433 0.0
C1764 C 0.84569 0.56551 0.87093 0.0
C1765 C 0.84323 0.58345 0.84948 0.0
C1766 C 0.91416 0.49791 0.85644 0.0
C1767 C 0.82316 0.5775 0.89019 0.0
C1768 C 0.85589 0.46764 0.9239 0.0
C1769 C 0.87912 0.47773 0.94129 0.0
C1770 C 0.85213 0.4862 0.90284 0.0
C1771 C 0.87199 0.51661 0.89772 0.0
C1772 C 0.89545 0.52696 0.91521 0.0
C1773 C 0.89849 0.50808 0.93623 0.0
C1774 C 0.82615 0.47319 0.88593 0.0
C1775 C 0.91772 0.55853 0.91177 0.0
H1776 H 0.90107 0.53681 0.81946 0.0
H1777 H 0.82542 0.60499 0.84794 0.0
H1778 H 0.93289 0.50308 0.8702 0.0
H1779 H 0.90036 0.4736 0.86072 0.0
H1780 H 0.92873 0.49386 0.84047 0.0
H1781 H 0.80473 0.59809 0.88502 0.0
H1782 H 0.80832 0.55533 0.89714 0.0
H1783 H 0.83963 0.58773 0.90396 0.0
H1784 H 0.84 0.44497 0.9268 0.0
H1785 H 0.9164 0.51739 0.94888 0.0
H1786 H 0.83924 0.4673 0.8697 0.0
H1787 H 0.80667 0.49368 0.88258 0.0
H1788 H 0.81253 0.44953 0.89181 0.0
H1789 H 0.93227 0.55629 0.89567 0.0
H1790 H 0.93641 0.56239 0.92575 0.0
H1791 H 0.90107 0.58187 0.91056 0.0
C1792 C 0.80179 0.8974 0.12397 0.0
C1793 C 0.82881 0.92169 0.12792 0.0
C1794 C 0.78334 0.89442 1.10289 0.0
C1795 C 0.79077 0.91628 1.08401 0.0
C1796 C 0.81803 0.94093 1.08779 0.0
C1797 C 0.83632 0.94323 0.1091 0.0
C1798 C 0.75541 0.86737 1.10087 0.0
C1799 C 0.82801 0.96535 1.06909 0.0
C1800 C 0.76138 0.88777 1.02208 0.0
C1801 C 0.73 0.90589 1.01791 0.0
C1802 C 0.78096 0.89103 1.04276 0.0
C1803 C 0.77012 0.91327 1.06086 0.0
C1804 C 0.73865 0.93189 1.05667 0.0
C1805 C 0.71953 0.9281 1.03584 0.0
C1806 C 0.81383 0.8704 1.04516 0.0
C1807 C 0.72497 0.95638 1.07438 0.0
H1808 H 0.7947 0.88022 0.13764 0.0
H1809 H 0.85655 0.96242 0.11102 0.0
H1810 H 0.73028 0.88002 1.09714 0.0
H1811 H 0.76134 0.84967 1.0866 0.0
H1812 H 0.75254 0.85176 0.11648 0.0
H1813 H 0.8483 0.98404 1.07436 0.0
H1814 H 0.83775 0.95033 1.05443 0.0
H1815 H 0.80495 0.98 1.06336 0.0
H1816 H 0.77103 0.87076 1.00893 0.0
H1817 H 0.69604 0.94302 1.0336 0.0
H1818 H 0.81256 0.8542 1.06058 0.0
H1819 H 0.83611 0.88827 1.04712 0.0
H1820 H 0.81873 0.85332 1.03039 0.0
H1821 H 0.71969 0.942 1.0902 0.0
H1822 H 0.70084 0.96959 1.06899 0.0
H1823 H 0.74477 0.97631 1.07829 0.0
C1824 C 0.3852 0.54197 0.8814 0.0
C1825 C 0.36548 0.57274 0.88478 0.0
C1826 C 0.3879 0.52399 0.86002 0.0
C1827 C 0.37014 0.5356 0.84024 0.0
C1828 C 0.34999 0.56656 0.84349 0.0
C1829 C 0.34817 0.58443 0.86506 0.0
C1830 C 0.41033 0.49212 0.85864 0.0
C1831 C 0.32992 0.58103 0.82393 0.0
C1832 C 0.39973 0.50458 0.77853 0.0
C1833 C 0.37769 0.47634 0.77295 0.0
C1834 C 0.39772 0.52344 0.79969 0.0
C1835 C 0.3725 0.51542 0.81673 0.0
C1836 C 0.34993 0.48722 0.81106 0.0
C1837 C 0.35287 0.46846 0.78994 0.0
C1838 C 0.42308 0.55236 0.80382 0.0
C1839 C 0.32193 0.47685 0.82742 0.0
H1840 H 0.39912 0.53167 0.89573 0.0
H1841 H 0.3326 0.60768 0.86647 0.0
H1842 H 0.39434 0.46935 0.854 0.0
H1843 H 0.43011 0.4954 0.8452 0.0
H1844 H 0.42367 0.48655 0.8748 0.0
H1845 H 0.31398 0.60381 0.82881 0.0
H1846 H 0.3481 0.5889 0.81039 0.0
H1847 H 0.31273 0.56078 0.81678 0.0
H1848 H 0.41908 0.51213 0.76624 0.0
H1849 H 0.33496 0.44748 0.78664 0.0
H1850 H 0.43693 0.54797 0.81994 0.0
H1851 H 0.40898 0.57728 0.80543 0.0
H1852 H 0.44242 0.55472 0.79002 0.0
H1853 H 0.33369 0.46835 0.84353 0.0
H1854 H 0.30551 0.45555 0.82079 0.0
H1855 H 0.30521 0.49951 0.83126 0.0
C1856 C 0.69264 0.09348 0.60973 0.0
C1857 C 0.70322 0.11198 0.6293 0.0
C1858 C 0.71075 0.09551 0.58826 0.0
C1859 C 0.74084 0.1169 0.58508 0.0
C1860 C 0.75128 0.13578 0.60471 0.0
C1861 C 0.73305 0.13299 0.62592 0.0
C1862 C 0.69765 0.07419 0.56878 0.0
C1863 C 0.78225 0.15941 0.60337 0.0
C1864 C 0.80994 0.10164 0.53577 0.0
C1865 C 0.80185 0.12636 0.51884 0.0
C1866 C 0.79056 0.098 0.55655 0.0
C1867 C 0.76138 0.11957 0.56181 0.0
C1868 C 0.75299 0.14448 0.54474 0.0
C1869 C 0.77262 0.14735 0.52398 0.0
C1870 C 0.80145 0.07043 0.57302 0.0
C1871 C 0.7228 0.16857 0.54841 0.0
H1872 H 0.6702 0.07684 0.61118 0.0
H1873 H 0.74251 0.14781 0.64015 0.0
H1874 H 0.69061 0.09144 0.55458 0.0
H1875 H 0.71844 0.05667 0.56266 0.0
H1876 H 0.67471 0.05839 0.57341 0.0
H1877 H 0.78711 0.17325 0.61949 0.0
H1878 H 0.80564 0.14418 0.59888 0.0
H1879 H 0.77835 0.17885 0.58984 0.0
H1880 H 0.83166 0.08449 0.53274 0.0
H1881 H 0.76485 0.16645 0.51163 0.0
H1882 H 0.77942 0.05274 0.57643 0.0
H1883 H 0.80874 0.08257 0.58931 0.0
H1884 H 0.82369 0.0549 0.56673 0.0
H1885 H 0.69858 0.1533 0.54983 0.0
H1886 H 0.71988 0.18751 0.53446 0.0
H1887 H 0.72608 0.18296 0.56448 0.0
C1888 C 0.18253 0.44687 0.36461 0.0
C1889 C 0.16423 0.45785 0.38424 0.0
C1890 C 0.18072 0.46477 0.34309 0.0
C1891 C 0.15973 0.49513 0.3398 0.0
C1892 C 0.14104 0.50603 0.35948 0.0
C1893 C 0.1436 0.48796 0.38079 0.0
C1894 C 0.2016 0.45088 0.32359 0.0
C1895 C 0.11786 0.53735 0.3581 0.0
C1896 C 0.17733 0.56314 0.29016 0.0
C1897 C 0.15294 0.55535 0.27294 0.0
C1898 C 0.17995 0.54414 0.31114 0.0
C1899 C 0.15763 0.51558 0.31641 0.0
C1900 C 0.13293 0.50752 0.29911 0.0
C1901 C 0.13106 0.52679 0.27813 0.0
C1902 C 0.2073 0.55474 0.32783 0.0
C1903 C 0.10806 0.47802 0.30272 0.0
H1904 H 0.19882 0.42415 0.36605 0.0
H1905 H 0.12895 0.49777 0.39503 0.0
H1906 H 0.18385 0.44173 0.31019 0.0
H1907 H 0.21779 0.47175 0.31622 0.0
H1908 H 0.21862 0.42903 0.32862 0.0
H1909 H 0.10401 0.54252 0.37419 0.0
H1910 H 0.13341 0.56053 0.35366 0.0
H1911 H 0.09849 0.53365 0.34452 0.0
H1912 H 0.1951 0.58435 0.2872 0.0
H1913 H 0.1121 0.51923 0.26564 0.0
H1914 H 0.22446 0.53238 0.33148 0.0
H1915 H 0.19496 0.56254 0.34398 0.0
H1916 H 0.22338 0.57659 0.32161 0.0
H1917 H 0.12266 0.45338 0.30423 0.0
H1918 H 0.08921 0.47547 0.28871 0.0
H1919 H 0.09364 0.48184 0.31875 0.0
C1920 C 0.69405 0.59176 0.60109 0.0
C1921 C 0.70339 0.61137 0.58174 0.0
C1922 C 0.71218 0.5941 0.62243 0.0
C1923 C 0.74107 0.61696 0.62572 0.0
C1924 C 0.75036 0.63694 0.60631 0.0
C1925 C 0.73205 0.63388 0.58518 0.0
C1926 C 0.69995 0.57195 0.64174 0.0
C1927 C 0.78016 0.66199 0.60779 0.0
C1928 C 0.77222 0.64618 0.68723 0.0
C1929 C 0.80193 0.62568 0.69185 0.0
C1930 C 0.75262 0.6436 0.66649 0.0
C1931 C 0.76175 0.6197 0.64886 0.0
C1932 C 0.79153 0.5988 0.65353 0.0
C1933 C 0.81069 0.60196 0.67435 0.0
C1934 C 0.72156 0.66669 0.66351 0.0
C1935 C 0.80327 0.57243 0.63637 0.0
H1936 H 0.67241 0.57409 0.59959 0.0
H1937 H 0.74051 0.64958 0.57109 0.0
H1938 H 0.72209 0.55826 0.64962 0.0
H1939 H 0.68817 0.58879 0.65483 0.0
H1940 H 0.68043 0.55252 0.63637 0.0
H1941 H 0.78425 0.67645 0.59183 0.0
H1942 H 0.77543 0.68088 0.6216 0.0
H1943 H 0.80428 0.64778 0.61194 0.0
H1944 H 0.76393 0.66447 0.70003 0.0
H1945 H 0.83286 0.58527 0.67693 0.0
H1946 H 0.69789 0.65058 0.66213 0.0
H1947 H 0.724 0.68164 0.64762 0.0
H1948 H 0.71822 0.68511 0.67777 0.0
H1949 H 0.78194 0.55398 0.63282 0.0
H1950 H 0.82624 0.55759 0.64211 0.0
H1951 H 0.80976 0.58556 0.62028 0.0
C1952 C 0.18685 0.947 0.84693 0.0
C1953 C 0.16827 0.95744 0.82739 0.0
C1954 C 0.18469 0.96496 0.86845 0.0
C1955 C 0.1631 0.99488 0.8718 0.0
C1956 C 0.14419 1.00532 0.85219 0.0
C1957 C 0.14705 0.98715 0.83088 0.0
C1958 C 0.20596 0.95169 0.88786 0.0
C1959 C 0.1204 0.03619 0.85368 0.0
C1960 C 0.13328 0.02535 0.93357 0.0
C1961 C 0.15439 0.05439 0.93893 0.0
C1962 C 0.13576 1.00633 0.91249 0.0
C1963 C 0.16038 1.01516 0.89525 0.0
C1964 C 0.18201 0.04419 0.90069 0.0
C1965 C 0.17876 0.06294 0.92178 0.0
C1966 C 0.11163 0.97627 0.9087 0.0
C1967 C 0.20926 0.05559 0.88408 0.0
H1968 H 0.20357 0.92457 0.84544 0.0
H1969 H 0.13216 0.9965 0.8167 0.0
H1970 H 0.22236 0.97281 0.89471 0.0
H1971 H 0.18858 0.9431 0.90168 0.0
H1972 H 0.22284 0.92964 0.88289 0.0
H1973 H 0.10096 0.03205 0.86722 0.0
H1974 H 0.13545 0.05964 0.85825 0.0
H1975 H 0.10664 0.04114 0.83759 0.0
H1976 H 0.1144 1.01722 0.94601 0.0
H1977 H 0.19601 0.08449 0.9249 0.0
H1978 H 0.12682 0.95201 0.90695 0.0
H1979 H 0.09715 0.97995 0.89275 0.0
H1980 H 0.09281 0.97308 0.92274 0.0
H1981 H 0.22688 0.03365 0.8802 0.0
H1982 H 0.22488 0.07766 0.89049 0.0
H1983 H 0.19686 0.06341 0.86802 0.0
C1984 C 0.83894 0.43652 1.10037 0.0
C1985 C 0.82789 0.41863 1.08066 0.0
C1986 C 0.82082 0.43459 0.12185 0.0
C1987 C 0.7901 0.41407 0.12487 0.0
C1988 C 0.77912 0.39587 0.1051 0.0
C1989 C 0.79748 0.39841 1.08391 0.0
C1990 C 0.83455 0.45517 0.14148 0.0
C1991 C 0.74736 0.37329 0.10625 0.0
C1992 C 0.75694 0.38391 0.18581 0.0
C1993 C 0.72867 0.4061 0.19111 0.0
C1994 C 0.77671 0.38628 0.16505 0.0
C1995 C 0.76939 0.41179 0.14812 0.0
C1996 C 0.74115 0.43448 0.15352 0.0
C1997 C 0.72168 0.43139 0.1743 0.0
C1998 C 0.80589 0.36104 0.16123 0.0
C1999 C 0.73135 0.46266 0.13719 0.0
H2000 H 0.86184 0.45256 1.09904 0.0
H2001 H 0.7876 0.38412 1.06957 0.0
H2002 H 0.81495 0.47454 0.14686 0.0
H2003 H 0.83926 0.43783 0.15605 0.0
H2004 H 0.85898 0.46892 0.13729 0.0
H2005 H 0.74205 0.35993 1.09001 0.0
H2006 H 0.75056 0.35347 0.11962 0.0
H2007 H 0.7245 0.38923 0.11084 0.0
H2008 H 0.76387 0.36432 0.19805 0.0
H2009 H 0.70074 0.44944 0.17743 0.0
H2010 H 0.83064 0.37536 0.15947 0.0
H2011 H 0.80168 0.3466 0.14527 0.0
H2012 H 0.80841 0.34217 0.17524 0.0
H2013 H 0.75394 0.47976 0.1341 0.0
H2014 H 0.70946 0.47872 0.14345 0.0
H2015 H 0.72401 0.45106 0.12076 0.0
C2016 C 0.39823 1.00931 0.43427 0.0
C2017 C 0.37782 0.97953 0.43896 0.0
C2018 C 0.39561 0.02902 0.41355 0.0
C2019 C 0.37172 0.01999 0.39598 0.0
C2020 C 0.35088 0.99015 0.40073 0.0
C2021 C 0.35409 0.97088 0.42153 0.0
C2022 C 0.41869 0.0601 0.41052 0.0
C2023 C 0.32457 0.97835 0.38366 0.0
C2024 C 0.34392 0.08796 0.34822 0.0
C2025 C 0.36377 0.07884 0.32885 0.0
C2026 C 0.34622 0.06975 0.36958 0.0
C2027 C 0.36906 0.0408 0.37284 0.0
C2028 C 0.3892 0.03168 0.3534 0.0
C2029 C 0.38634 0.05018 0.3323 0.0
C2030 C 0.32372 0.08163 0.38889 0.0
C2031 C 0.41419 1.00178 0.3548 0.0
H2032 H 0.41652 1.01757 0.447 0.0
H2033 H 0.33743 0.9487 0.42414 0.0
H2034 H 0.43395 0.05742 0.39473 0.0
H2035 H 0.40263 0.08379 0.40888 0.0
H2036 H 0.43679 0.06364 0.42486 0.0
H2037 H 0.30981 0.95531 0.38944 0.0
H2038 H 0.30607 0.99966 0.38016 0.0
H2039 H 0.33769 0.9719 0.36752 0.0
H2040 H 0.3261 0.1095 0.34672 0.0
H2041 H 0.40217 0.04179 0.31821 0.0
H2042 H 0.34016 0.08932 0.40337 0.0
H2043 H 0.30704 0.05998 0.39465 0.0
H2044 H 0.30701 0.1039 0.38423 0.0
H2045 H 0.433 1.00643 0.36859 0.0
H2046 H 0.42869 0.99773 0.33881 0.0
H2047 H 0.39997 0.97764 0.35894 0.0
C2048 C 0.33571 0.43591 0.61407 0.0
C2049 C 0.32395 0.41902 0.63399 0.0
C2050 C 0.31766 0.43402 0.5926 0.0
C2051 C 0.28643 0.41426 0.58967 0.0
C2052 C 0.27476 0.39697 0.60965 0.0
C2053 C 0.29292 0.3997 0.63089 0.0
C2054 C 0.33224 0.45362 0.57282 0.0
C2055 C 0.24257 0.37501 0.60863 0.0
C2056 C 0.21895 0.43112 0.53966 0.0
C2057 C 0.22619 0.40557 0.52295 0.0
C2058 C 0.23807 0.43448 0.56055 0.0
C2059 C 0.26604 0.41168 0.56628 0.0
C2060 C 0.27351 0.38585 0.54948 0.0
C2061 C 0.25427 0.38337 0.52855 0.0
C2062 C 0.22829 0.46319 0.5766 0.0
C2063 C 0.30226 0.36031 0.55362 0.0
H2064 H 0.35914 0.45118 0.61523 0.0
H2065 H 0.28251 0.38611 0.64536 0.0
H2066 H 0.34039 0.43509 0.55951 0.0
H2067 H 0.31202 0.47056 0.56544 0.0
H2068 H 0.35486 0.46981 0.57755 0.0
H2069 H 0.23686 0.3621 0.62494 0.0
H2070 H 0.22007 0.39129 0.60393 0.0
H2071 H 0.24551 0.35485 0.59538 0.0
H2072 H 0.19818 0.44922 0.53633 0.0
H2073 H 0.26139 0.36353 0.51645 0.0
H2074 H 0.25115 0.47983 0.5799 0.0
H2075 H 0.22005 0.45208 0.59299 0.0
H2076 H 0.20702 0.47962 0.56997 0.0
H2077 H 0.32729 0.37426 0.55474 0.0
H2078 H 0.3042 0.34052 0.54005 0.0
H2079 H 0.29809 0.34697 0.56997 0.0
C2080 C 0.8477 0.08785 0.36034 0.0
C2081 C 0.86485 0.07591 0.38006 0.0
C2082 C 0.84973 0.07024 0.33869 0.0
C2083 C 0.86962 0.03912 0.33545 0.0
C2084 C 0.8871 0.02719 0.35524 0.0
C2085 C 0.88446 0.04509 0.37663 0.0
C2086 C 0.83007 0.08508 0.31906 0.0
C2087 C 0.90898 0.99492 0.35388 0.0
C2088 C 0.85175 0.97273 0.28491 0.0
C2089 C 0.87751 0.97966 0.26834 0.0
C2090 C 0.84876 0.99153 0.30598 0.0
C2091 C 0.87199 0.01901 0.31194 0.0
C2092 C 0.89799 0.02626 0.29526 0.0
C2093 C 0.90027 1.00717 0.27421 0.0
C2094 C 0.82007 0.98189 0.32203 0.0
C2095 C 0.92382 0.05468 0.29963 0.0
H2096 H 0.83219 0.11113 0.36179 0.0
H2097 H 0.89818 0.03453 0.39096 0.0
H2098 H 0.84828 0.09142 0.30517 0.0
H2099 H 0.81165 0.06551 0.31246 0.0
H2100 H 0.81547 0.10885 0.3237 0.0
H2101 H 0.92174 0.98882 0.37016 0.0
H2102 H 0.8927 0.97254 0.34887 0.0
H2103 H 0.9292 0.99807 0.34072 0.0
H2104 H 0.83325 0.95237 0.28134 0.0
H2105 H 0.92027 1.01404 0.2622 0.0
H2106 H 0.80341 1.0048 0.3253 0.0
H2107 H 0.83114 0.9738 0.33844 0.0
H2108 H 0.8037 0.96053 0.31541 0.0
H2109 H 0.91011 0.07979 0.30153 0.0
H2110 H 0.94315 0.05706 0.28583 0.0
H2111 H 0.93764 0.04967 0.31568 0.0
C2112 C 0.2376 0.63555 0.13081 0.0
C2113 C 0.20826 0.61388 0.13425 0.0
C2114 C 0.2559 0.63839 0.10956 0.0
C2115 C 0.246 0.61898 1.08998 0.0
C2116 C 0.21645 0.59694 1.09328 0.0
C2117 C 0.19832 0.59485 0.11473 0.0
C2118 C 0.28628 0.66274 0.10809 0.0
C2119 C 0.20369 0.5752 1.07388 0.0
C2120 C 0.27671 0.64792 1.02817 0.0
C2121 C 0.30613 0.62711 1.02311 0.0
C2122 C 0.2575 0.64565 1.04917 0.0
C2123 C 0.26652 0.62155 1.06662 0.0
C2124 C 0.29595 0.60027 1.06149 0.0
C2125 C 0.3149 0.6033 1.04047 0.0
C2126 C 0.22702 0.66941 1.05265 0.0
C2127 C 0.30753 0.57356 1.07835 0.0
H2128 H 0.24653 0.65082 0.14499 0.0
H2129 H 0.17618 0.5778 0.11618 0.0
H2130 H 0.28195 0.68185 1.09443 0.0
H2131 H 0.29075 0.67693 0.12413 0.0
H2132 H 0.31004 0.648 1.10373 0.0
H2133 H 0.18245 0.55745 1.07896 0.0
H2134 H 0.19411 0.59234 1.06027 0.0
H2135 H 0.22526 0.55963 1.06673 0.0
H2136 H 0.26842 0.66638 1.01556 0.0
H2137 H 0.33682 0.58635 1.03757 0.0
H2138 H 0.23001 0.68405 1.06865 0.0
H2139 H 0.20299 0.65385 1.0541 0.0
H2140 H 0.22394 0.68812 1.03859 0.0
H2141 H 0.31465 0.58644 1.09442 0.0
H2142 H 0.33005 0.55828 1.07223 0.0
H2143 H 0.2859 0.55554 1.0821 0.0
C2144 C 0.64818 0.9842 0.87565 0.0
C2145 C 0.66941 0.95449 0.87898 0.0
C2146 C 0.64526 1.00233 0.85446 0.0
C2147 C 0.6642 0.99191 0.83481 0.0
C2148 C 0.68581 0.96197 0.83795 0.0
C2149 C 0.68796 0.94394 0.85939 0.0
C2150 C 0.62138 0.03314 0.85315 0.0
C2151 C 0.70713 0.94881 0.81844 0.0
C2152 C 0.63356 0.02296 0.77372 0.0
C2153 C 0.65428 0.05232 0.76852 0.0
C2154 C 0.63656 1.00353 0.79449 0.0
C2155 C 0.66134 1.0123 0.81154 0.0
C2156 C 0.68264 0.04162 0.80625 0.0
C2157 C 0.67889 0.0608 0.78544 0.0
C2158 C 0.61279 0.97314 0.79817 0.0
C2159 C 0.71006 0.05285 0.82272 0.0
H2160 H 0.63331 0.99363 0.8899 0.0
H2161 H 0.70472 0.92156 0.86079 0.0
H2162 H 0.63636 0.05665 0.84864 0.0
H2163 H 0.60196 0.02898 0.83965 0.0
H2164 H 0.60755 0.03803 0.86929 0.0
H2165 H 0.72436 0.92706 0.82333 0.0
H2166 H 0.68975 0.93981 0.80479 0.0
H2167 H 0.72316 0.97011 0.81146 0.0
H2168 H 0.61456 1.01489 0.76138 0.0
H2169 H 0.69585 0.08262 0.78235 0.0
H2170 H 0.59859 0.97626 0.81434 0.0
H2171 H 0.62825 0.94899 0.79939 0.0
H2172 H 0.59372 0.97011 0.78432 0.0
H2173 H 0.72532 0.07525 0.81645 0.0
H2174 H 0.72797 0.03097 0.82607 0.0
H2175 H 0.69788 0.06008 0.83902 0.0
loop_
_geom_bond_atom_site_label_1
_geom_bond_atom_site_label_2
_geom_bond_distance
_geom_bond_site_symmetry_2
_ccdc_geom_bond_type
Eu0 C9 2.828 . S
Eu0 O11 2.392 . S
Eu0 O13 2.418 . S
Eu0 O18 2.373 . S
Eu0 O21 2.488 . S
Eu0 O22 2.471 . S
Eu0 O23 2.349 . S
Eu1 O10 2.373 . S
Eu1 O14 2.488 . S
Eu1 O15 2.471 . S
Eu1 O16 2.349 . S
Eu1 O19 2.392 . S
Eu1 O20 2.418 . S
Eu1 C30 2.828 . S
C2 O20 1.244 . S
C2 O23 1.265 . S
C3 C4 1.379 . S
C3 C7 1.373 . S
C3 C9 1.505 . S
C4 C3 1.379 . S
C4 C6 1.369 . S
C4 H32 0.930 . S
C5 C7 1.383 . S
C5 C8 1.382 . S
C5 H33 0.930 . S
C6 C4 1.369 . S
C6 C8 1.392 . S
C6 H34 0.930 . S
C7 C3 1.373 . S
C7 C5 1.383 . S
C7 H35 0.931 . S
C8 C5 1.382 . S
C8 C6 1.392 . S
C9 Eu0 2.828 . S
C9 C3 1.505 . S
C9 O21 1.249 . S
C9 O22 1.244 . S
O10 Eu1 2.373 . S
O10 C12 1.258 . S
O11 Eu0 2.392 . S
O11 C12 1.242 . S
C12 O10 1.258 . S
C12 O11 1.242 . S
O13 Eu0 2.418 . S
O13 C17 1.244 . S
O14 Eu1 2.488 . S
O14 C30 1.249 . S
O15 Eu1 2.471 . S
O15 C30 1.244 . S
O16 Eu1 2.349 . S
O16 C17 1.265 . S
C17 O13 1.244 . S
C17 O16 1.265 . S
O18 Eu0 2.373 . S
O18 C31 1.258 . S
O19 Eu1 2.392 . S
O19 C31 1.242 . S
O20 Eu1 2.418 . S
O20 C2 1.244 . S
O21 Eu0 2.488 . S
O21 C9 1.249 . S
O22 Eu0 2.471 . S
O22 C9 1.244 . S
O23 Eu0 2.349 . S
O23 C2 1.265 . S
C24 C25 1.379 . S
C24 C28 1.373 . S
C24 C30 1.505 . S
C25 C24 1.379 . S
C25 C27 1.369 . S
C25 H36 0.930 . S
C26 C28 1.383 1_565 S
C26 C29 1.382 1_565 S
C26 H37 0.930 . S
C27 C25 1.369 . S
C27 C29 1.392 . S
C27 H38 0.930 . S
C28 C24 1.373 . S
C28 C26 1.383 1_545 S
C28 H39 0.931 1_545 S
C29 C26 1.382 1_545 S
C29 C27 1.392 . S
C30 Eu1 2.828 . S
C30 O14 1.249 . S
C30 O15 1.244 . S
C30 C24 1.505 . S
C31 O18 1.258 . S
C31 O19 1.242 . S
H32 C4 0.930 . S
H33 C5 0.930 . S
H34 C6 0.930 . S
H35 C7 0.931 . S
H36 C25 0.930 . S
H37 C26 0.930 . S
H38 C27 0.930 . S
H39 C28 0.931 1_565 S
Eu40 C49 2.828 . S
Eu40 O51 2.392 . S
Eu40 O53 2.418 . S
Eu40 O58 2.373 . S
Eu40 O61 2.488 . S
Eu40 O62 2.471 . S
Eu40 O63 2.349 . S
Eu41 O50 2.373 . S
Eu41 O54 2.488 . S
Eu41 O55 2.471 . S
Eu41 O56 2.349 . S
Eu41 O59 2.392 . S
Eu41 O60 2.418 . S
Eu41 C70 2.828 . S
C42 O60 1.244 . S
C42 O63 1.265 . S
C43 C44 1.379 . S
C43 C47 1.373 . S
C43 C49 1.505 . S
C44 C43 1.379 . S
C44 C46 1.369 . S
C44 H72 0.930 . S
C45 C47 1.383 . S
C45 C48 1.382 . S
C45 H73 0.930 . S
C46 C44 1.369 . S
C46 C48 1.392 . S
C46 H74 0.930 . S
C47 C43 1.373 . S
C47 C45 1.383 . S
C47 H75 0.931 . S
C48 C45 1.382 . S
C48 C46 1.392 . S
C49 Eu40 2.828 . S
C49 C43 1.505 . S
C49 O61 1.249 . S
C49 O62 1.244 . S
O50 Eu41 2.373 . S
O50 C52 1.258 . S
O51 Eu40 2.392 . S
O51 C52 1.242 . S
C52 O50 1.258 . S
C52 O51 1.242 . S
O53 Eu40 2.418 . S
O53 C57 1.244 . S
O54 Eu41 2.488 . S
O54 C70 1.249 . S
O55 Eu41 2.471 . S
O55 C70 1.244 . S
O56 Eu41 2.349 . S
O56 C57 1.265 . S
C57 O53 1.244 . S
C57 O56 1.265 . S
O58 Eu40 2.373 . S
O58 C71 1.258 . S
O59 Eu41 2.392 . S
O59 C71 1.242 . S
O60 Eu41 2.418 . S
O60 C42 1.244 . S
O61 Eu40 2.488 . S
O61 C49 1.249 . S
O62 Eu40 2.471 . S
O62 C49 1.244 . S
O63 Eu40 2.349 . S
O63 C42 1.265 . S
C64 C65 1.379 . S
C64 C68 1.373 . S
C64 C70 1.505 . S
C65 C64 1.379 . S
C65 C67 1.369 . S
C65 H76 0.930 . S
C66 C68 1.383 . S
C66 C69 1.382 . S
C66 H77 0.930 . S
C67 C65 1.369 . S
C67 C69 1.392 . S
C67 H78 0.930 . S
C68 C64 1.373 . S
C68 C66 1.383 . S
C68 H79 0.931 . S
C69 C66 1.382 . S
C69 C67 1.392 . S
C70 Eu41 2.828 . S
C70 O54 1.249 . S
C70 O55 1.244 . S
C70 C64 1.505 . S
C71 O58 1.258 . S
C71 O59 1.242 . S
H72 C44 0.930 . S
H73 C45 0.930 . S
H74 C46 0.930 . S
H75 C47 0.931 . S
H76 C65 0.930 . S
H77 C66 0.930 . S
H78 C67 0.930 . S
H79 C68 0.931 . S
Eu80 C89 2.828 . S
Eu80 O91 2.392 . S
Eu80 O93 2.418 . S
Eu80 O98 2.373 . S
Eu80 O101 2.488 . S
Eu80 O102 2.471 . S
Eu80 O103 2.349 . S
Eu81 O90 2.373 . S
Eu81 O94 2.488 . S
Eu81 O95 2.471 . S
Eu81 O96 2.349 . S
Eu81 O99 2.392 . S
Eu81 O100 2.418 . S
Eu81 C110 2.828 . S
C82 O100 1.244 . S
C82 O103 1.265 . S
C83 C84 1.379 . S
C83 C87 1.373 . S
C83 C89 1.505 . S
C84 C83 1.379 . S
C84 C86 1.369 . S
C84 H112 0.930 . S
C85 C87 1.383 . S
C85 C88 1.382 . S
C85 H113 0.930 . S
C86 C84 1.369 . S
C86 C88 1.392 . S
C86 H114 0.930 . S
C87 C83 1.373 . S
C87 C85 1.383 . S
C87 H115 0.931 . S
C88 C85 1.382 . S
C88 C86 1.392 . S
C89 Eu80 2.828 . S
C89 C83 1.505 . S
C89 O101 1.249 . S
C89 O102 1.244 . S
O90 Eu81 2.373 . S
O90 C92 1.258 . S
O91 Eu80 2.392 . S
O91 C92 1.242 . S
C92 O90 1.258 . S
C92 O91 1.242 . S
O93 Eu80 2.418 . S
O93 C97 1.244 . S
O94 Eu81 2.488 . S
O94 C110 1.249 . S
O95 Eu81 2.471 . S
O95 C110 1.244 . S
O96 Eu81 2.349 . S
O96 C97 1.265 . S
C97 O93 1.244 . S
C97 O96 1.265 . S
O98 Eu80 2.373 . S
O98 C111 1.258 . S
O99 Eu81 2.392 . S
O99 C111 1.242 . S
O100 Eu81 2.418 . S
O100 C82 1.244 . S
O101 Eu80 2.488 . S
O101 C89 1.249 . S
O102 Eu80 2.471 . S
O102 C89 1.244 . S
O103 Eu80 2.349 . S
O103 C82 1.265 . S
C104 C105 1.379 . S
C104 C108 1.373 . S
C104 C110 1.505 . S
C105 C104 1.379 . S
C105 C107 1.369 . S
C105 H116 0.930 . S
C106 C108 1.383 1_545 S
C106 C109 1.382 1_545 S
C106 H117 0.930 . S
C107 C105 1.369 . S
C107 C109 1.392 . S
C107 H118 0.930 . S
C108 C104 1.373 . S
C108 C106 1.383 1_565 S
C108 H119 0.931 1_565 S
C109 C106 1.382 1_565 S
C109 C107 1.392 . S
C110 Eu81 2.828 . S
C110 O94 1.249 . S
C110 O95 1.244 . S
C110 C104 1.505 . S
C111 O98 1.258 . S
C111 O99 1.242 . S
H112 C84 0.930 . S
H113 C85 0.930 . S
H114 C86 0.930 . S
H115 C87 0.931 . S
H116 C105 0.930 . S
H117 C106 0.930 . S
H118 C107 0.930 . S
H119 C108 0.931 1_545 S
Eu120 C129 2.828 . S
Eu120 O131 2.392 . S
Eu120 O133 2.418 . S
Eu120 O138 2.373 . S
Eu120 O141 2.488 . S
Eu120 O142 2.471 . S
Eu120 O143 2.349 . S
Eu121 O130 2.373 . S
Eu121 O134 2.488 . S
Eu121 O135 2.471 . S
Eu121 O136 2.349 . S
Eu121 O139 2.392 . S
Eu121 O140 2.418 . S
Eu121 C150 2.828 . S
C122 O140 1.244 . S
C122 O143 1.265 . S
C123 C124 1.379 1_455 S
C123 C127 1.373 . S
C123 C129 1.505 1_455 S
C124 C123 1.379 1_655 S
C124 C126 1.369 1_655 S
C124 H152 0.930 . S
C125 C127 1.383 . S
C125 C128 1.382 . S
C125 H153 0.930 . S
C126 C124 1.369 1_455 S
C126 C128 1.392 . S
C126 H154 0.930 1_455 S
C127 C123 1.373 . S
C127 C125 1.383 . S
C127 H155 0.931 . S
C128 C125 1.382 . S
C128 C126 1.392 . S
C129 Eu120 2.828 . S
C129 C123 1.505 1_655 S
C129 O141 1.249 . S
C129 O142 1.244 . S
O130 Eu121 2.373 . S
O130 C132 1.258 . S
O131 Eu120 2.392 . S
O131 C132 1.242 . S
C132 O130 1.258 . S
C132 O131 1.242 . S
O133 Eu120 2.418 . S
O133 C137 1.244 . S
O134 Eu121 2.488 . S
O134 C150 1.249 . S
O135 Eu121 2.471 . S
O135 C150 1.244 . S
O136 Eu121 2.349 . S
O136 C137 1.265 . S
C137 O133 1.244 . S
C137 O136 1.265 . S
O138 Eu120 2.373 . S
O138 C151 1.258 . S
O139 Eu121 2.392 . S
O139 C151 1.242 . S
O140 Eu121 2.418 . S
O140 C122 1.244 . S
O141 Eu120 2.488 . S
O141 C129 1.249 . S
O142 Eu120 2.471 . S
O142 C129 1.244 . S
O143 Eu120 2.349 . S
O143 C122 1.265 . S
C144 C145 1.379 . S
C144 C148 1.373 . S
C144 C150 1.505 . S
C145 C144 1.379 . S
C145 C147 1.369 . S
C145 H156 0.930 . S
C146 C148 1.383 . S
C146 C149 1.382 . S
C146 H157 0.930 . S
C147 C145 1.369 . S
C147 C149 1.392 . S
C147 H158 0.930 . S
C148 C144 1.373 . S
C148 C146 1.383 . S
C148 H159 0.931 . S
C149 C146 1.382 . S
C149 C147 1.392 . S
C150 Eu121 2.828 . S
C150 O134 1.249 . S
C150 O135 1.244 . S
C150 C144 1.505 . S
C151 O138 1.258 . S
C151 O139 1.242 . S
H152 C124 0.930 . S
H153 C125 0.930 . S
H154 C126 0.930 1_655 S
H155 C127 0.931 . S
H156 C145 0.930 . S
H157 C146 0.930 . S
H158 C147 0.930 . S
H159 C148 0.931 . S
Eu160 C169 2.828 . S
Eu160 O171 2.392 . S
Eu160 O173 2.418 . S
Eu160 O178 2.373 . S
Eu160 O181 2.488 . S
Eu160 O182 2.471 . S
Eu160 O183 2.349 . S
Eu161 O170 2.373 . S
Eu161 O174 2.488 . S
Eu161 O175 2.471 . S
Eu161 O176 2.349 . S
Eu161 O179 2.392 . S
Eu161 O180 2.418 . S
Eu161 C190 2.828 . S
C162 O180 1.244 . S
C162 O183 1.265 . S
C163 C164 1.379 . S
C163 C167 1.373 . S
C163 C169 1.505 . S
C164 C163 1.379 . S
C164 C166 1.369 . S
C164 H192 0.930 . S
C165 C167 1.383 1_545 S
C165 C168 1.382 1_545 S
C165 H193 0.930 . S
C166 C164 1.369 . S
C166 C168 1.392 . S
C166 H194 0.930 . S
C167 C163 1.373 . S
C167 C165 1.383 1_565 S
C167 H195 0.931 1_565 S
C168 C165 1.382 1_565 S
C168 C166 1.392 . S
C169 Eu160 2.828 . S
C169 C163 1.505 . S
C169 O181 1.249 . S
C169 O182 1.244 . S
O170 Eu161 2.373 . S
O170 C172 1.258 . S
O171 Eu160 2.392 . S
O171 C172 1.242 . S
C172 O170 1.258 . S
C172 O171 1.242 . S
O173 Eu160 2.418 . S
O173 C177 1.244 . S
O174 Eu161 2.488 . S
O174 C190 1.249 . S
O175 Eu161 2.471 . S
O175 C190 1.244 . S
O176 Eu161 2.349 . S
O176 C177 1.265 . S
C177 O173 1.244 . S
C177 O176 1.265 . S
O178 Eu160 2.373 . S
O178 C191 1.258 . S
O179 Eu161 2.392 . S
O179 C191 1.242 . S
O180 Eu161 2.418 . S
O180 C162 1.244 . S
O181 Eu160 2.488 . S
O181 C169 1.249 . S
O182 Eu160 2.471 . S
O182 C169 1.244 . S
O183 Eu160 2.349 . S
O183 C162 1.265 . S
C184 C185 1.379 . S
C184 C188 1.373 . S
C184 C190 1.505 . S
C185 C184 1.379 . S
C185 C187 1.369 . S
C185 H196 0.930 . S
C186 C188 1.383 . S
C186 C189 1.382 . S
C186 H197 0.930 . S
C187 C185 1.369 . S
C187 C189 1.392 . S
C187 H198 0.930 . S
C188 C184 1.373 . S
C188 C186 1.383 . S
C188 H199 0.931 . S
C189 C186 1.382 . S
C189 C187 1.392 . S
C190 Eu161 2.828 . S
C190 O174 1.249 . S
C190 O175 1.244 . S
C190 C184 1.505 . S
C191 O178 1.258 . S
C191 O179 1.242 . S
H192 C164 0.930 . S
H193 C165 0.930 . S
H194 C166 0.930 . S
H195 C167 0.931 1_545 S
H196 C185 0.930 . S
H197 C186 0.930 . S
H198 C187 0.930 . S
H199 C188 0.931 . S
Eu200 C209 2.828 . S
Eu200 O211 2.392 . S
Eu200 O213 2.418 . S
Eu200 O218 2.373 . S
Eu200 O221 2.488 . S
Eu200 O222 2.471 . S
Eu200 O223 2.349 . S
Eu201 O210 2.373 . S
Eu201 O214 2.488 . S
Eu201 O215 2.471 . S
Eu201 O216 2.349 . S
Eu201 O219 2.392 . S
Eu201 O220 2.418 . S
Eu201 C230 2.828 . S
C202 O220 1.244 . S
C202 O223 1.265 . S
C203 C204 1.379 . S
C203 C207 1.373 . S
C203 C209 1.505 . S
C204 C203 1.379 . S
C204 C206 1.369 . S
C204 H232 0.930 . S
C205 C207 1.383 . S
C205 C208 1.382 . S
C205 H233 0.930 . S
C206 C204 1.369 . S
C206 C208 1.392 . S
C206 H234 0.930 . S
C207 C203 1.373 . S
C207 C205 1.383 . S
C207 H235 0.931 . S
C208 C205 1.382 . S
C208 C206 1.392 . S
C209 Eu200 2.828 . S
C209 C203 1.505 . S
C209 O221 1.249 . S
C209 O222 1.244 . S
O210 Eu201 2.373 . S
O210 C212 1.258 . S
O211 Eu200 2.392 . S
O211 C212 1.242 . S
C212 O210 1.258 . S
C212 O211 1.242 . S
O213 Eu200 2.418 . S
O213 C217 1.244 . S
O214 Eu201 2.488 . S
O214 C230 1.249 . S
O215 Eu201 2.471 . S
O215 C230 1.244 . S
O216 Eu201 2.349 . S
O216 C217 1.265 . S
C217 O213 1.244 . S
C217 O216 1.265 . S
O218 Eu200 2.373 . S
O218 C231 1.258 . S
O219 Eu201 2.392 . S
O219 C231 1.242 . S
O220 Eu201 2.418 . S
O220 C202 1.244 . S
O221 Eu200 2.488 . S
O221 C209 1.249 . S
O222 Eu200 2.471 . S
O222 C209 1.244 . S
O223 Eu200 2.349 . S
O223 C202 1.265 . S
C224 C225 1.379 . S
C224 C228 1.373 . S
C224 C230 1.505 . S
C225 C224 1.379 . S
C225 C227 1.369 . S
C225 H236 0.930 . S
C226 C228 1.383 . S
C226 C229 1.382 . S
C226 H237 0.930 . S
C227 C225 1.369 . S
C227 C229 1.392 . S
C227 H238 0.930 . S
C228 C224 1.373 . S
C228 C226 1.383 . S
C228 H239 0.931 . S
C229 C226 1.382 . S
C229 C227 1.392 . S
C230 Eu201 2.828 . S
C230 O214 1.249 . S
C230 O215 1.244 . S
C230 C224 1.505 . S
C231 O218 1.258 . S
C231 O219 1.242 . S
H232 C204 0.930 . S
H233 C205 0.930 . S
H234 C206 0.930 . S
H235 C207 0.931 . S
H236 C225 0.930 . S
H237 C226 0.930 . S
H238 C227 0.930 . S
H239 C228 0.931 . S
Eu240 C249 2.828 . S
Eu240 O251 2.392 . S
Eu240 O253 2.418 . S
Eu240 O258 2.373 . S
Eu240 O261 2.488 . S
Eu240 O262 2.471 . S
Eu240 O263 2.349 . S
Eu241 O250 2.373 . S
Eu241 O254 2.488 . S
Eu241 O255 2.471 . S
Eu241 O256 2.349 . S
Eu241 O259 2.392 . S
Eu241 O260 2.418 . S
Eu241 C270 2.828 . S
C242 O260 1.244 . S
C242 O263 1.265 . S
C243 C244 1.379 . S
C243 C247 1.373 . S
C243 C249 1.505 . S
C244 C243 1.379 . S
C244 C246 1.369 . S
C244 H272 0.930 . S
C245 C247 1.383 1_565 S
C245 C248 1.382 1_565 S
C245 H273 0.930 . S
C246 C244 1.369 . S
C246 C248 1.392 . S
C246 H274 0.930 . S
C247 C243 1.373 . S
C247 C245 1.383 1_545 S
C247 H275 0.931 1_545 S
C248 C245 1.382 1_545 S
C248 C246 1.392 . S
C249 Eu240 2.828 . S
C249 C243 1.505 . S
C249 O261 1.249 . S
C249 O262 1.244 . S
O250 Eu241 2.373 . S
O250 C252 1.258 . S
O251 Eu240 2.392 . S
O251 C252 1.242 . S
C252 O250 1.258 . S
C252 O251 1.242 . S
O253 Eu240 2.418 . S
O253 C257 1.244 . S
O254 Eu241 2.488 . S
O254 C270 1.249 . S
O255 Eu241 2.471 . S
O255 C270 1.244 . S
O256 Eu241 2.349 . S
O256 C257 1.265 . S
C257 O253 1.244 . S
C257 O256 1.265 . S
O258 Eu240 2.373 . S
O258 C271 1.258 . S
O259 Eu241 2.392 . S
O259 C271 1.242 . S
O260 Eu241 2.418 . S
O260 C242 1.244 . S
O261 Eu240 2.488 . S
O261 C249 1.249 . S
O262 Eu240 2.471 . S
O262 C249 1.244 . S
O263 Eu240 2.349 . S
O263 C242 1.265 . S
C264 C265 1.379 . S
C264 C268 1.373 . S
C264 C270 1.505 . S
C265 C264 1.379 . S
C265 C267 1.369 . S
C265 H276 0.930 . S
C266 C268 1.383 . S
C266 C269 1.382 . S
C266 H277 0.930 . S
C267 C265 1.369 . S
C267 C269 1.392 . S
C267 H278 0.930 . S
C268 C264 1.373 . S
C268 C266 1.383 . S
C268 H279 0.931 . S
C269 C266 1.382 . S
C269 C267 1.392 . S
C270 Eu241 2.828 . S
C270 O254 1.249 . S
C270 O255 1.244 . S
C270 C264 1.505 . S
C271 O258 1.258 . S
C271 O259 1.242 . S
H272 C244 0.930 . S
H273 C245 0.930 . S
H274 C246 0.930 . S
H275 C247 0.931 1_565 S
H276 C265 0.930 . S
H277 C266 0.930 . S
H278 C267 0.930 . S
H279 C268 0.931 . S
Eu280 C289 2.828 . S
Eu280 O291 2.392 . S
Eu280 O293 2.418 . S
Eu280 O298 2.373 . S
Eu280 O301 2.488 . S
Eu280 O302 2.471 . S
Eu280 O303 2.349 . S
Eu281 O290 2.373 . S
Eu281 O294 2.488 . S
Eu281 O295 2.471 . S
Eu281 O296 2.349 . S
Eu281 O299 2.392 . S
Eu281 O300 2.418 . S
Eu281 C310 2.828 . S
C282 O300 1.244 . S
C282 O303 1.265 . S
C283 C284 1.379 . S
C283 C287 1.373 . S
C283 C289 1.505 . S
C284 C283 1.379 . S
C284 C286 1.369 . S
C284 H312 0.930 . S
C285 C287 1.383 . S
C285 C288 1.382 . S
C285 H313 0.930 . S
C286 C284 1.369 . S
C286 C288 1.392 . S
C286 H314 0.930 . S
C287 C283 1.373 . S
C287 C285 1.383 . S
C287 H315 0.931 . S
C288 C285 1.382 . S
C288 C286 1.392 . S
C289 Eu280 2.828 . S
C289 C283 1.505 . S
C289 O301 1.249 . S
C289 O302 1.244 . S
O290 Eu281 2.373 . S
O290 C292 1.258 . S
O291 Eu280 2.392 . S
O291 C292 1.242 . S
C292 O290 1.258 . S
C292 O291 1.242 . S
O293 Eu280 2.418 . S
O293 C297 1.244 . S
O294 Eu281 2.488 . S
O294 C310 1.249 . S
O295 Eu281 2.471 . S
O295 C310 1.244 . S
O296 Eu281 2.349 . S
O296 C297 1.265 . S
C297 O293 1.244 . S
C297 O296 1.265 . S
O298 Eu280 2.373 . S
O298 C311 1.258 . S
O299 Eu281 2.392 . S
O299 C311 1.242 . S
O300 Eu281 2.418 . S
O300 C282 1.244 . S
O301 Eu280 2.488 . S
O301 C289 1.249 . S
O302 Eu280 2.471 . S
O302 C289 1.244 . S
O303 Eu280 2.349 . S
O303 C282 1.265 . S
C304 C305 1.379 1_655 S
C304 C308 1.373 . S
C304 C310 1.505 1_655 S
C305 C304 1.379 1_455 S
C305 C307 1.369 1_455 S
C305 H316 0.930 . S
C306 C308 1.383 . S
C306 C309 1.382 . S
C306 H317 0.930 . S
C307 C305 1.369 1_655 S
C307 C309 1.392 . S
C307 H318 0.930 1_655 S
C308 C304 1.373 . S
C308 C306 1.383 . S
C308 H319 0.931 . S
C309 C306 1.382 . S
C309 C307 1.392 . S
C310 Eu281 2.828 . S
C310 O294 1.249 . S
C310 O295 1.244 . S
C310 C304 1.505 1_455 S
C311 O298 1.258 . S
C311 O299 1.242 . S
H312 C284 0.930 . S
H313 C285 0.930 . S
H314 C286 0.930 . S
H315 C287 0.931 . S
H316 C305 0.930 . S
H317 C306 0.930 . S
H318 C307 0.930 1_455 S
H319 C308 0.931 . S
Eu320 C329 2.828 . S
Eu320 O331 2.392 . S
Eu320 O333 2.418 . S
Eu320 O338 2.373 . S
Eu320 O341 2.488 . S
Eu320 O342 2.471 . S
Eu320 O343 2.349 . S
Eu321 O330 2.373 . S
Eu321 O334 2.488 . S
Eu321 O335 2.471 . S
Eu321 O336 2.349 . S
Eu321 O339 2.392 . S
Eu321 O340 2.418 . S
Eu321 C350 2.828 . S
C322 O340 1.244 . S
C322 O343 1.265 . S
C323 C324 1.379 . S
C323 C327 1.373 . S
C323 C329 1.505 . S
C324 C323 1.379 . S
C324 C326 1.369 . S
C324 H352 0.930 . S
C325 C327 1.383 . S
C325 C328 1.382 . S
C325 H353 0.930 . S
C326 C324 1.369 . S
C326 C328 1.392 . S
C326 H354 0.930 . S
C327 C323 1.373 . S
C327 C325 1.383 . S
C327 H355 0.931 . S
C328 C325 1.382 . S
C328 C326 1.392 . S
C329 Eu320 2.828 . S
C329 C323 1.505 . S
C329 O341 1.249 . S
C329 O342 1.244 . S
O330 Eu321 2.373 . S
O330 C332 1.258 . S
O331 Eu320 2.392 . S
O331 C332 1.242 . S
C332 O330 1.258 . S
C332 O331 1.242 . S
O333 Eu320 2.418 . S
O333 C337 1.244 . S
O334 Eu321 2.488 . S
O334 C350 1.249 . S
O335 Eu321 2.471 . S
O335 C350 1.244 . S
O336 Eu321 2.349 . S
O336 C337 1.265 . S
C337 O333 1.244 . S
C337 O336 1.265 . S
O338 Eu320 2.373 . S
O338 C351 1.258 . S
O339 Eu321 2.392 . S
O339 C351 1.242 . S
O340 Eu321 2.418 . S
O340 C322 1.244 . S
O341 Eu320 2.488 . S
O341 C329 1.249 . S
O342 Eu320 2.471 . S
O342 C329 1.244 . S
O343 Eu320 2.349 . S
O343 C322 1.265 . S
C344 C345 1.379 . S
C344 C348 1.373 . S
C344 C350 1.505 . S
C345 C344 1.379 . S
C345 C347 1.369 . S
C345 H356 0.930 . S
C346 C348 1.383 . S
C346 C349 1.382 . S
C346 H357 0.930 . S
C347 C345 1.369 . S
C347 C349 1.392 . S
C347 H358 0.930 . S
C348 C344 1.373 . S
C348 C346 1.383 . S
C348 H359 0.931 . S
C349 C346 1.382 . S
C349 C347 1.392 . S
C350 Eu321 2.828 . S
C350 O334 1.249 . S
C350 O335 1.244 . S
C350 C344 1.505 . S
C351 O338 1.258 . S
C351 O339 1.242 . S
H352 C324 0.930 . S
H353 C325 0.930 . S
H354 C326 0.930 . S
H355 C327 0.931 . S
H356 C345 0.930 . S
H357 C346 0.930 . S
H358 C347 0.930 . S
H359 C348 0.931 . S
Eu360 C369 2.828 . S
Eu360 O371 2.392 . S
Eu360 O373 2.418 . S
Eu360 O378 2.373 . S
Eu360 O381 2.488 . S
Eu360 O382 2.471 1_545 S
Eu360 O383 2.349 . S
Eu361 O370 2.373 . S
Eu361 O374 2.488 . S
Eu361 O375 2.471 . S
Eu361 O376 2.349 . S
Eu361 O379 2.392 . S
Eu361 O380 2.418 . S
Eu361 C390 2.828 . S
C362 O380 1.244 . S
C362 O383 1.265 . S
C363 C364 1.379 1_655 S
C363 C367 1.373 . S
C363 C369 1.505 1_665 S
C364 C363 1.379 1_455 S
C364 C366 1.369 1_455 S
C364 H392 0.930 . S
C365 C367 1.383 . S
C365 C368 1.382 . S
C365 H393 0.930 . S
C366 C364 1.369 1_655 S
C366 C368 1.392 . S
C366 H394 0.930 1_655 S
C367 C363 1.373 . S
C367 C365 1.383 . S
C367 H395 0.931 1_565 S
C368 C365 1.382 . S
C368 C366 1.392 . S
C369 Eu360 2.828 . S
C369 C363 1.505 1_445 S
C369 O381 1.249 . S
C369 O382 1.244 1_545 S
O370 Eu361 2.373 . S
O370 C372 1.258 . S
O371 Eu360 2.392 . S
O371 C372 1.242 . S
C372 O370 1.258 . S
C372 O371 1.242 . S
O373 Eu360 2.418 . S
O373 C377 1.244 . S
O374 Eu361 2.488 . S
O374 C390 1.249 . S
O375 Eu361 2.471 . S
O375 C390 1.244 . S
O376 Eu361 2.349 . S
O376 C377 1.265 . S
C377 O373 1.244 . S
C377 O376 1.265 . S
O378 Eu360 2.373 . S
O378 C391 1.258 . S
O379 Eu361 2.392 . S
O379 C391 1.242 . S
O380 Eu361 2.418 . S
O380 C362 1.244 . S
O381 Eu360 2.488 . S
O381 C369 1.249 . S
O382 Eu360 2.471 1_565 S
O382 C369 1.244 1_565 S
O383 Eu360 2.349 . S
O383 C362 1.265 . S
C384 C385 1.379 . S
C384 C388 1.373 . S
C384 C390 1.505 . S
C385 C384 1.379 . S
C385 C387 1.369 . S
C385 H396 0.930 . S
C386 C388 1.383 . S
C386 C389 1.382 . S
C386 H397 0.930 . S
C387 C385 1.369 . S
C387 C389 1.392 . S
C387 H398 0.930 . S
C388 C384 1.373 . S
C388 C386 1.383 . S
C388 H399 0.931 . S
C389 C386 1.382 . S
C389 C387 1.392 . S
C390 Eu361 2.828 . S
C390 O374 1.249 . S
C390 O375 1.244 . S
C390 C384 1.505 . S
C391 O378 1.258 . S
C391 O379 1.242 . S
H392 C364 0.930 . S
H393 C365 0.930 . S
H394 C366 0.930 1_455 S
H395 C367 0.931 1_545 S
H396 C385 0.930 . S
H397 C386 0.930 . S
H398 C387 0.930 . S
H399 C388 0.931 . S
Eu400 C409 2.828 . S
Eu400 O411 2.392 . S
Eu400 O413 2.418 . S
Eu400 O418 2.373 . S
Eu400 O421 2.488 . S
Eu400 O422 2.471 . S
Eu400 O423 2.349 . S
Eu401 O410 2.373 . S
Eu401 O414 2.488 . S
Eu401 O415 2.471 . S
Eu401 O416 2.349 . S
Eu401 O419 2.392 . S
Eu401 O420 2.418 . S
Eu401 C430 2.828 . S
C402 O420 1.244 . S
C402 O423 1.265 . S
C403 C404 1.379 . S
C403 C407 1.373 . S
C403 C409 1.505 . S
C404 C403 1.379 . S
C404 C406 1.369 . S
C404 H432 0.930 . S
C405 C407 1.383 . S
C405 C408 1.382 . S
C405 H433 0.930 . S
C406 C404 1.369 . S
C406 C408 1.392 . S
C406 H434 0.930 . S
C407 C403 1.373 . S
C407 C405 1.383 . S
C407 H435 0.931 . S
C408 C405 1.382 . S
C408 C406 1.392 . S
C409 Eu400 2.828 . S
C409 C403 1.505 . S
C409 O421 1.249 . S
C409 O422 1.244 . S
O410 Eu401 2.373 . S
O410 C412 1.258 . S
O411 Eu400 2.392 . S
O411 C412 1.242 . S
C412 O410 1.258 . S
C412 O411 1.242 . S
O413 Eu400 2.418 . S
O413 C417 1.244 . S
O414 Eu401 2.488 . S
O414 C430 1.249 . S
O415 Eu401 2.471 . S
O415 C430 1.244 . S
O416 Eu401 2.349 . S
O416 C417 1.265 . S
C417 O413 1.244 . S
C417 O416 1.265 . S
O418 Eu400 2.373 . S
O418 C431 1.258 . S
O419 Eu401 2.392 . S
O419 C431 1.242 . S
O420 Eu401 2.418 . S
O420 C402 1.244 . S
O421 Eu400 2.488 . S
O421 C409 1.249 . S
O422 Eu400 2.471 . S
O422 C409 1.244 . S
O423 Eu400 2.349 . S
O423 C402 1.265 . S
C424 C425 1.379 . S
C424 C428 1.373 . S
C424 C430 1.505 . S
C425 C424 1.379 . S
C425 C427 1.369 . S
C425 H436 0.930 . S
C426 C428 1.383 . S
C426 C429 1.382 . S
C426 H437 0.930 . S
C427 C425 1.369 . S
C427 C429 1.392 . S
C427 H438 0.930 . S
C428 C424 1.373 . S
C428 C426 1.383 . S
C428 H439 0.931 . S
C429 C426 1.382 . S
C429 C427 1.392 . S
C430 Eu401 2.828 . S
C430 O414 1.249 . S
C430 O415 1.244 . S
C430 C424 1.505 . S
C431 O418 1.258 . S
C431 O419 1.242 . S
H432 C404 0.930 . S
H433 C405 0.930 . S
H434 C406 0.930 . S
H435 C407 0.931 . S
H436 C425 0.930 . S
H437 C426 0.930 . S
H438 C427 0.930 . S
H439 C428 0.931 . S
Eu440 C449 2.828 . S
Eu440 O451 2.392 . S
Eu440 O453 2.418 . S
Eu440 O458 2.373 . S
Eu440 O461 2.488 . S
Eu440 O462 2.471 1_565 S
Eu440 O463 2.349 . S
Eu441 O450 2.373 . S
Eu441 O454 2.488 . S
Eu441 O455 2.471 . S
Eu441 O456 2.349 . S
Eu441 O459 2.392 . S
Eu441 O460 2.418 . S
Eu441 C470 2.828 . S
C442 O460 1.244 . S
C442 O463 1.265 . S
C443 C444 1.379 . S
C443 C447 1.373 . S
C443 C449 1.505 1_545 S
C444 C443 1.379 . S
C444 C446 1.369 . S
C444 H472 0.930 . S
C445 C447 1.383 . S
C445 C448 1.382 . S
C445 H473 0.930 . S
C446 C444 1.369 . S
C446 C448 1.392 . S
C446 H474 0.930 . S
C447 C443 1.373 . S
C447 C445 1.383 . S
C447 H475 0.931 1_545 S
C448 C445 1.382 . S
C448 C446 1.392 . S
C449 Eu440 2.828 . S
C449 C443 1.505 1_565 S
C449 O461 1.249 . S
C449 O462 1.244 1_565 S
O450 Eu441 2.373 . S
O450 C452 1.258 . S
O451 Eu440 2.392 . S
O451 C452 1.242 . S
C452 O450 1.258 . S
C452 O451 1.242 . S
O453 Eu440 2.418 . S
O453 C457 1.244 . S
O454 Eu441 2.488 . S
O454 C470 1.249 . S
O455 Eu441 2.471 . S
O455 C470 1.244 . S
O456 Eu441 2.349 . S
O456 C457 1.265 . S
C457 O453 1.244 . S
C457 O456 1.265 . S
O458 Eu440 2.373 . S
O458 C471 1.258 . S
O459 Eu441 2.392 . S
O459 C471 1.242 . S
O460 Eu441 2.418 . S
O460 C442 1.244 . S
O461 Eu440 2.488 . S
O461 C449 1.249 . S
O462 Eu440 2.471 1_545 S
O462 C449 1.244 1_545 S
O463 Eu440 2.349 . S
O463 C442 1.265 . S
C464 C465 1.379 . S
C464 C468 1.373 . S
C464 C470 1.505 . S
C465 C464 1.379 . S
C465 C467 1.369 . S
C465 H476 0.930 . S
C466 C468 1.383 . S
C466 C469 1.382 . S
C466 H477 0.930 . S
C467 C465 1.369 . S
C467 C469 1.392 . S
C467 H478 0.930 . S
C468 C464 1.373 . S
C468 C466 1.383 . S
C468 H479 0.931 . S
C469 C466 1.382 . S
C469 C467 1.392 . S
C470 Eu441 2.828 . S
C470 O454 1.249 . S
C470 O455 1.244 . S
C470 C464 1.505 . S
C471 O458 1.258 . S
C471 O459 1.242 . S
H472 C444 0.930 . S
H473 C445 0.930 . S
H474 C446 0.930 . S
H475 C447 0.931 1_565 S
H476 C465 0.930 . S
H477 C466 0.930 . S
H478 C467 0.930 . S
H479 C468 0.931 . S
Eu480 C489 2.828 . S
Eu480 O491 2.392 . S
Eu480 O493 2.418 . S
Eu480 O498 2.373 . S
Eu480 O501 2.488 . S
Eu480 O502 2.471 . S
Eu480 O503 2.349 . S
Eu481 O490 2.373 . S
Eu481 O494 2.488 . S
Eu481 O495 2.471 . S
Eu481 O496 2.349 . S
Eu481 O499 2.392 . S
Eu481 O500 2.418 . S
Eu481 C510 2.828 . S
C482 O500 1.244 . S
C482 O503 1.265 . S
C483 C484 1.379 . S
C483 C487 1.373 . S
C483 C489 1.505 . S
C484 C483 1.379 . S
C484 C486 1.369 . S
C484 H512 0.930 . S
C485 C487 1.383 . S
C485 C488 1.382 . S
C485 H513 0.930 . S
C486 C484 1.369 . S
C486 C488 1.392 . S
C486 H514 0.930 . S
C487 C483 1.373 . S
C487 C485 1.383 . S
C487 H515 0.931 . S
C488 C485 1.382 . S
C488 C486 1.392 . S
C489 Eu480 2.828 . S
C489 C483 1.505 . S
C489 O501 1.249 . S
C489 O502 1.244 . S
O490 Eu481 2.373 . S
O490 C492 1.258 . S
O491 Eu480 2.392 . S
O491 C492 1.242 . S
C492 O490 1.258 . S
C492 O491 1.242 . S
O493 Eu480 2.418 . S
O493 C497 1.244 . S
O494 Eu481 2.488 . S
O494 C510 1.249 . S
O495 Eu481 2.471 . S
O495 C510 1.244 . S
O496 Eu481 2.349 . S
O496 C497 1.265 . S
C497 O493 1.244 . S
C497 O496 1.265 . S
O498 Eu480 2.373 . S
O498 C511 1.258 . S
O499 Eu481 2.392 . S
O499 C511 1.242 . S
O500 Eu481 2.418 . S
O500 C482 1.244 . S
O501 Eu480 2.488 . S
O501 C489 1.249 . S
O502 Eu480 2.471 . S
O502 C489 1.244 . S
O503 Eu480 2.349 . S
O503 C482 1.265 . S
C504 C505 1.379 . S
C504 C508 1.373 . S
C504 C510 1.505 . S
C505 C504 1.379 . S
C505 C507 1.369 . S
C505 H516 0.930 . S
C506 C508 1.383 . S
C506 C509 1.382 . S
C506 H517 0.930 . S
C507 C505 1.369 . S
C507 C509 1.392 . S
C507 H518 0.930 . S
C508 C504 1.373 . S
C508 C506 1.383 . S
C508 H519 0.931 . S
C509 C506 1.382 . S
C509 C507 1.392 . S
C510 Eu481 2.828 . S
C510 O494 1.249 . S
C510 O495 1.244 . S
C510 C504 1.505 . S
C511 O498 1.258 . S
C511 O499 1.242 . S
H512 C484 0.930 . S
H513 C485 0.930 . S
H514 C486 0.930 . S
H515 C487 0.931 . S
H516 C505 0.930 . S
H517 C506 0.930 . S
H518 C507 0.930 . S
H519 C508 0.931 . S
Eu520 C529 2.828 . S
Eu520 O531 2.392 . S
Eu520 O533 2.418 . S
Eu520 O538 2.373 . S
Eu520 O541 2.488 . S
Eu520 O542 2.471 . S
Eu520 O543 2.349 . S
Eu521 O530 2.373 . S
Eu521 O534 2.488 . S
Eu521 O535 2.471 1_565 S
Eu521 O536 2.349 . S
Eu521 O539 2.392 . S
Eu521 O540 2.418 . S
Eu521 C550 2.828 . S
C522 O540 1.244 . S
C522 O543 1.265 . S
C523 C524 1.379 . S
C523 C527 1.373 . S
C523 C529 1.505 . S
C524 C523 1.379 . S
C524 C526 1.369 . S
C524 H552 0.930 . S
C525 C527 1.383 . S
C525 C528 1.382 . S
C525 H553 0.930 . S
C526 C524 1.369 . S
C526 C528 1.392 . S
C526 H554 0.930 . S
C527 C523 1.373 . S
C527 C525 1.383 . S
C527 H555 0.931 . S
C528 C525 1.382 . S
C528 C526 1.392 . S
C529 Eu520 2.828 . S
C529 C523 1.505 . S
C529 O541 1.249 . S
C529 O542 1.244 . S
O530 Eu521 2.373 . S
O530 C532 1.258 . S
O531 Eu520 2.392 . S
O531 C532 1.242 . S
C532 O530 1.258 . S
C532 O531 1.242 . S
O533 Eu520 2.418 . S
O533 C537 1.244 . S
O534 Eu521 2.488 . S
O534 C550 1.249 . S
O535 Eu521 2.471 1_545 S
O535 C550 1.244 1_545 S
O536 Eu521 2.349 . S
O536 C537 1.265 . S
C537 O533 1.244 . S
C537 O536 1.265 . S
O538 Eu520 2.373 . S
O538 C551 1.258 . S
O539 Eu521 2.392 . S
O539 C551 1.242 . S
O540 Eu521 2.418 . S
O540 C522 1.244 . S
O541 Eu520 2.488 . S
O541 C529 1.249 . S
O542 Eu520 2.471 . S
O542 C529 1.244 . S
O543 Eu520 2.349 . S
O543 C522 1.265 . S
C544 C545 1.379 1_455 S
C544 C548 1.373 . S
C544 C550 1.505 1_445 S
C545 C544 1.379 1_655 S
C545 C547 1.369 1_655 S
C545 H556 0.930 . S
C546 C548 1.383 . S
C546 C549 1.382 . S
C546 H557 0.930 . S
C547 C545 1.369 1_455 S
C547 C549 1.392 . S
C547 H558 0.930 1_455 S
C548 C544 1.373 . S
C548 C546 1.383 . S
C548 H559 0.931 1_545 S
C549 C546 1.382 . S
C549 C547 1.392 . S
C550 Eu521 2.828 . S
C550 O534 1.249 . S
C550 O535 1.244 1_565 S
C550 C544 1.505 1_665 S
C551 O538 1.258 . S
C551 O539 1.242 . S
H552 C524 0.930 . S
H553 C525 0.930 . S
H554 C526 0.930 . S
H555 C527 0.931 . S
H556 C545 0.930 . S
H557 C546 0.930 . S
H558 C547 0.930 1_655 S
H559 C548 0.931 1_565 S
Eu560 C569 2.828 . S
Eu560 O571 2.392 . S
Eu560 O573 2.418 . S
Eu560 O578 2.373 . S
Eu560 O581 2.488 . S
Eu560 O582 2.471 . S
Eu560 O583 2.349 . S
Eu561 O570 2.373 . S
Eu561 O574 2.488 . S
Eu561 O575 2.471 . S
Eu561 O576 2.349 . S
Eu561 O579 2.392 . S
Eu561 O580 2.418 . S
Eu561 C590 2.828 . S
C562 O580 1.244 . S
C562 O583 1.265 . S
C563 C564 1.379 . S
C563 C567 1.373 . S
C563 C569 1.505 . S
C564 C563 1.379 . S
C564 C566 1.369 . S
C564 H592 0.930 . S
C565 C567 1.383 . S
C565 C568 1.382 . S
C565 H593 0.930 . S
C566 C564 1.369 . S
C566 C568 1.392 . S
C566 H594 0.930 . S
C567 C563 1.373 . S
C567 C565 1.383 . S
C567 H595 0.931 . S
C568 C565 1.382 . S
C568 C566 1.392 . S
C569 Eu560 2.828 . S
C569 C563 1.505 . S
C569 O581 1.249 . S
C569 O582 1.244 . S
O570 Eu561 2.373 . S
O570 C572 1.258 . S
O571 Eu560 2.392 . S
O571 C572 1.242 . S
C572 O570 1.258 . S
C572 O571 1.242 . S
O573 Eu560 2.418 . S
O573 C577 1.244 . S
O574 Eu561 2.488 . S
O574 C590 1.249 . S
O575 Eu561 2.471 . S
O575 C590 1.244 . S
O576 Eu561 2.349 . S
O576 C577 1.265 . S
C577 O573 1.244 . S
C577 O576 1.265 . S
O578 Eu560 2.373 . S
O578 C591 1.258 . S
O579 Eu561 2.392 . S
O579 C591 1.242 . S
O580 Eu561 2.418 . S
O580 C562 1.244 . S
O581 Eu560 2.488 . S
O581 C569 1.249 . S
O582 Eu560 2.471 . S
O582 C569 1.244 . S
O583 Eu560 2.349 . S
O583 C562 1.265 . S
C584 C585 1.379 . S
C584 C588 1.373 . S
C584 C590 1.505 . S
C585 C584 1.379 . S
C585 C587 1.369 . S
C585 H596 0.930 . S
C586 C588 1.383 . S
C586 C589 1.382 . S
C586 H597 0.930 . S
C587 C585 1.369 . S
C587 C589 1.392 . S
C587 H598 0.930 . S
C588 C584 1.373 . S
C588 C586 1.383 . S
C588 H599 0.931 . S
C589 C586 1.382 . S
C589 C587 1.392 . S
C590 Eu561 2.828 . S
C590 O574 1.249 . S
C590 O575 1.244 . S
C590 C584 1.505 . S
C591 O578 1.258 . S
C591 O579 1.242 . S
H592 C564 0.930 . S
H593 C565 0.930 . S
H594 C566 0.930 . S
H595 C567 0.931 . S
H596 C585 0.930 . S
H597 C586 0.930 . S
H598 C587 0.930 . S
H599 C588 0.931 . S
Eu600 C609 2.828 . S
Eu600 O611 2.392 . S
Eu600 O613 2.418 . S
Eu600 O618 2.373 . S
Eu600 O621 2.488 . S
Eu600 O622 2.471 . S
Eu600 O623 2.349 . S
Eu601 O610 2.373 . S
Eu601 O614 2.488 . S
Eu601 O615 2.471 1_545 S
Eu601 O616 2.349 . S
Eu601 O619 2.392 . S
Eu601 O620 2.418 . S
Eu601 C630 2.828 . S
C602 O620 1.244 . S
C602 O623 1.265 . S
C603 C604 1.379 . S
C603 C607 1.373 . S
C603 C609 1.505 . S
C604 C603 1.379 . S
C604 C606 1.369 . S
C604 H632 0.930 . S
C605 C607 1.383 . S
C605 C608 1.382 . S
C605 H633 0.930 . S
C606 C604 1.369 . S
C606 C608 1.392 . S
C606 H634 0.930 . S
C607 C603 1.373 . S
C607 C605 1.383 . S
C607 H635 0.931 . S
C608 C605 1.382 . S
C608 C606 1.392 . S
C609 Eu600 2.828 . S
C609 C603 1.505 . S
C609 O621 1.249 . S
C609 O622 1.244 . S
O610 Eu601 2.373 . S
O610 C612 1.258 . S
O611 Eu600 2.392 . S
O611 C612 1.242 . S
C612 O610 1.258 . S
C612 O611 1.242 . S
O613 Eu600 2.418 . S
O613 C617 1.244 . S
O614 Eu601 2.488 . S
O614 C630 1.249 . S
O615 Eu601 2.471 1_565 S
O615 C630 1.244 1_565 S
O616 Eu601 2.349 . S
O616 C617 1.265 . S
C617 O613 1.244 . S
C617 O616 1.265 . S
O618 Eu600 2.373 . S
O618 C631 1.258 . S
O619 Eu601 2.392 . S
O619 C631 1.242 . S
O620 Eu601 2.418 . S
O620 C602 1.244 . S
O621 Eu600 2.488 . S
O621 C609 1.249 . S
O622 Eu600 2.471 . S
O622 C609 1.244 . S
O623 Eu600 2.349 . S
O623 C602 1.265 . S
C624 C625 1.379 . S
C624 C628 1.373 . S
C624 C630 1.505 1_565 S
C625 C624 1.379 . S
C625 C627 1.369 . S
C625 H636 0.930 . S
C626 C628 1.383 . S
C626 C629 1.382 . S
C626 H637 0.930 . S
C627 C625 1.369 . S
C627 C629 1.392 . S
C627 H638 0.930 . S
C628 C624 1.373 . S
C628 C626 1.383 . S
C628 H639 0.931 1_565 S
C629 C626 1.382 . S
C629 C627 1.392 . S
C630 Eu601 2.828 . S
C630 O614 1.249 . S
C630 O615 1.244 1_545 S
C630 C624 1.505 1_545 S
C631 O618 1.258 . S
C631 O619 1.242 . S
H632 C604 0.930 . S
H633 C605 0.930 . S
H634 C606 0.930 . S
H635 C607 0.931 . S
H636 C625 0.930 . S
H637 C626 0.930 . S
H638 C627 0.930 . S
H639 C628 0.931 1_545 S
C640 C641 1.391 . S
C640 C642 1.394 . S
C640 H656 0.931 . S
C641 C640 1.391 . S
C641 C645 1.376 . S
C642 C640 1.394 . S
C642 C643 1.369 . S
C642 C646 1.531 . S
C643 C642 1.369 . S
C643 C644 1.410 . S
C643 C651 1.503 . S
C644 C643 1.410 . S
C644 C645 1.392 . S
C644 C647 1.511 . S
C645 C641 1.376 . S
C645 C644 1.392 . S
C645 H657 0.929 . S
C646 C642 1.531 . S
C646 H658 0.960 . S
C646 H659 0.962 . S
C646 H660 0.960 . S
C647 C644 1.511 . S
C647 H661 0.961 . S
C647 H662 0.961 . S
C647 H663 0.961 . S
C648 C649 1.370 . S
C648 C650 1.363 . S
C648 H664 0.931 . S
C649 C648 1.370 . S
C649 C653 1.408 . S
C650 C648 1.363 . S
C650 C651 1.370 . S
C650 C654 1.524 . S
C651 C643 1.503 . S
C651 C650 1.370 . S
C651 C652 1.403 . S
C652 C651 1.403 . S
C652 C653 1.404 . S
C652 C655 1.539 . S
C653 C649 1.408 . S
C653 C652 1.404 . S
C653 H665 0.930 . S
C654 C650 1.524 . S
C654 H666 0.956 . S
C654 H667 0.961 . S
C654 H668 0.961 . S
C655 C652 1.539 . S
C655 H669 0.958 . S
C655 H670 0.961 . S
C655 H671 0.960 . S
H656 C640 0.931 . S
H657 C645 0.929 . S
H658 C646 0.960 . S
H659 C646 0.962 . S
H660 C646 0.960 . S
H661 C647 0.961 . S
H662 C647 0.961 . S
H663 C647 0.961 . S
H664 C648 0.931 . S
H665 C653 0.930 . S
H666 C654 0.956 . S
H667 C654 0.961 . S
H668 C654 0.961 . S
H669 C655 0.958 . S
H670 C655 0.961 . S
H671 C655 0.960 . S
C672 C673 1.391 . S
C672 C674 1.394 . S
C672 H688 0.931 . S
C673 C672 1.391 . S
C673 C677 1.376 . S
C674 C672 1.394 . S
C674 C675 1.369 . S
C674 C678 1.531 . S
C675 C674 1.369 . S
C675 C676 1.410 . S
C675 C683 1.503 . S
C676 C675 1.410 . S
C676 C677 1.392 . S
C676 C679 1.511 . S
C677 C673 1.376 . S
C677 C676 1.392 . S
C677 H689 0.929 . S
C678 C674 1.531 . S
C678 H690 0.960 . S
C678 H691 0.962 . S
C678 H692 0.960 . S
C679 C676 1.511 . S
C679 H693 0.961 . S
C679 H694 0.961 . S
C679 H695 0.961 . S
C680 C681 1.370 . S
C680 C682 1.363 . S
C680 H696 0.931 . S
C681 C680 1.370 . S
C681 C685 1.408 . S
C682 C680 1.363 . S
C682 C683 1.370 . S
C682 C686 1.524 . S
C683 C675 1.503 . S
C683 C682 1.370 . S
C683 C684 1.403 . S
C684 C683 1.403 . S
C684 C685 1.404 . S
C684 C687 1.539 . S
C685 C681 1.408 . S
C685 C684 1.404 . S
C685 H697 0.930 . S
C686 C682 1.524 . S
C686 H698 0.956 . S
C686 H699 0.961 . S
C686 H700 0.961 . S
C687 C684 1.539 . S
C687 H701 0.958 . S
C687 H702 0.961 . S
C687 H703 0.960 . S
H688 C672 0.931 . S
H689 C677 0.929 . S
H690 C678 0.960 . S
H691 C678 0.962 . S
H692 C678 0.960 . S
H693 C679 0.961 . S
H694 C679 0.961 . S
H695 C679 0.961 . S
H696 C680 0.931 . S
H697 C685 0.930 . S
H698 C686 0.956 . S
H699 C686 0.961 . S
H700 C686 0.961 . S
H701 C687 0.958 . S
H702 C687 0.961 . S
H703 C687 0.960 . S
C704 C705 1.391 . S
C704 C706 1.394 . S
C704 H720 0.931 . S
C705 C704 1.391 . S
C705 C709 1.376 . S
C706 C704 1.394 . S
C706 C707 1.369 . S
C706 C710 1.531 . S
C707 C706 1.369 . S
C707 C708 1.410 . S
C707 C715 1.503 1_455 S
C708 C707 1.410 . S
C708 C709 1.392 . S
C708 C711 1.511 . S
C709 C705 1.376 . S
C709 C708 1.392 . S
C709 H721 0.929 . S
C710 C706 1.531 . S
C710 H722 0.960 1_455 S
C710 H723 0.962 1_455 S
C710 H724 0.960 . S
C711 C708 1.511 . S
C711 H725 0.961 . S
C711 H726 0.961 . S
C711 H727 0.961 . S
C712 C713 1.370 . S
C712 C714 1.363 . S
C712 H728 0.931 . S
C713 C712 1.370 . S
C713 C717 1.408 . S
C714 C712 1.363 . S
C714 C715 1.370 . S
C714 C718 1.524 . S
C715 C707 1.503 1_655 S
C715 C714 1.370 . S
C715 C716 1.403 . S
C716 C715 1.403 . S
C716 C717 1.404 . S
C716 C719 1.539 1_655 S
C717 C713 1.408 . S
C717 C716 1.404 . S
C717 H729 0.930 . S
C718 C714 1.524 . S
C718 H730 0.956 . S
C718 H731 0.961 . S
C718 H732 0.961 . S
C719 C716 1.539 1_455 S
C719 H733 0.958 . S
C719 H734 0.961 . S
C719 H735 0.960 . S
H720 C704 0.931 . S
H721 C709 0.929 . S
H722 C710 0.960 1_655 S
H723 C710 0.962 1_655 S
H724 C710 0.960 . S
H725 C711 0.961 . S
H726 C711 0.961 . S
H727 C711 0.961 . S
H728 C712 0.931 . S
H729 C717 0.930 . S
H730 C718 0.956 . S
H731 C718 0.961 . S
H732 C718 0.961 . S
H733 C719 0.958 . S
H734 C719 0.961 . S
H735 C719 0.960 . S
C736 C737 1.391 . S
C736 C738 1.394 1_455 S
C736 H752 0.931 . S
C737 C736 1.391 . S
C737 C741 1.376 . S
C738 C736 1.394 1_655 S
C738 C739 1.369 1_655 S
C738 C742 1.531 . S
C739 C738 1.369 1_455 S
C739 C740 1.410 . S
C739 C747 1.503 1_455 S
C740 C739 1.410 . S
C740 C741 1.392 . S
C740 C743 1.511 . S
C741 C737 1.376 . S
C741 C740 1.392 . S
C741 H753 0.929 . S
C742 C738 1.531 . S
C742 H754 0.960 . S
C742 H755 0.962 . S
C742 H756 0.960 . S
C743 C740 1.511 . S
C743 H757 0.961 . S
C743 H758 0.961 . S
C743 H759 0.961 . S
C744 C745 1.370 . S
C744 C746 1.364 1_655 S
C744 H760 0.931 . S
C745 C744 1.370 . S
C745 C749 1.408 . S
C746 C744 1.364 1_455 S
C746 C747 1.371 1_455 S
C746 C750 1.522 . S
C747 C739 1.503 1_655 S
C747 C746 1.371 1_655 S
C747 C748 1.403 . S
C748 C747 1.403 . S
C748 C749 1.404 . S
C748 C751 1.539 . S
C749 C745 1.408 . S
C749 C748 1.404 . S
C749 H761 0.930 . S
C750 C746 1.522 . S
C750 H762 0.956 . S
C750 H763 0.961 . S
C750 H764 0.961 . S
C751 C748 1.539 . S
C751 H765 0.958 . S
C751 H766 0.961 . S
C751 H767 0.960 . S
H752 C736 0.931 . S
H753 C741 0.929 . S
H754 C742 0.960 . S
H755 C742 0.962 . S
H756 C742 0.960 . S
H757 C743 0.961 . S
H758 C743 0.961 . S
H759 C743 0.961 . S
H760 C744 0.931 . S
H761 C749 0.930 . S
H762 C750 0.956 . S
H763 C750 0.961 . S
H764 C750 0.961 . S
H765 C751 0.958 . S
H766 C751 0.961 . S
H767 C751 0.960 . S
C768 C769 1.391 . S
C768 C770 1.394 . S
C768 H784 0.931 . S
C769 C768 1.391 . S
C769 C773 1.376 . S
C770 C768 1.394 . S
C770 C771 1.369 . S
C770 C774 1.531 . S
C771 C770 1.369 . S
C771 C772 1.410 . S
C771 C779 1.503 . S
C772 C771 1.410 . S
C772 C773 1.392 . S
C772 C775 1.511 . S
C773 C769 1.376 . S
C773 C772 1.392 . S
C773 H785 0.929 . S
C774 C770 1.531 . S
C774 H786 0.960 . S
C774 H787 0.962 . S
C774 H788 0.960 . S
C775 C772 1.511 . S
C775 H789 0.961 . S
C775 H790 0.961 . S
C775 H791 0.961 . S
C776 C777 1.370 . S
C776 C778 1.363 . S
C776 H792 0.931 . S
C777 C776 1.370 . S
C777 C781 1.408 . S
C778 C776 1.363 . S
C778 C779 1.370 . S
C778 C782 1.524 . S
C779 C771 1.503 . S
C779 C778 1.370 . S
C779 C780 1.403 . S
C780 C779 1.403 . S
C780 C781 1.404 . S
C780 C783 1.539 . S
C781 C777 1.408 . S
C781 C780 1.404 . S
C781 H793 0.930 . S
C782 C778 1.524 . S
C782 H794 0.956 . S
C782 H795 0.961 . S
C782 H796 0.961 . S
C783 C780 1.539 . S
C783 H797 0.958 . S
C783 H798 0.961 . S
C783 H799 0.960 . S
H784 C768 0.931 . S
H785 C773 0.929 . S
H786 C774 0.960 . S
H787 C774 0.962 . S
H788 C774 0.960 . S
H789 C775 0.961 . S
H790 C775 0.961 . S
H791 C775 0.961 . S
H792 C776 0.931 . S
H793 C781 0.930 . S
H794 C782 0.956 . S
H795 C782 0.961 . S
H796 C782 0.961 . S
H797 C783 0.958 . S
H798 C783 0.961 . S
H799 C783 0.960 . S
C800 C801 1.391 . S
C800 C802 1.394 . S
C800 H816 0.931 . S
C801 C800 1.391 . S
C801 C805 1.376 . S
C802 C800 1.394 . S
C802 C803 1.369 . S
C802 C806 1.531 . S
C803 C802 1.369 . S
C803 C804 1.410 . S
C803 C811 1.503 . S
C804 C803 1.410 . S
C804 C805 1.392 . S
C804 C807 1.511 . S
C805 C801 1.376 . S
C805 C804 1.392 . S
C805 H817 0.929 . S
C806 C802 1.531 . S
C806 H818 0.960 . S
C806 H819 0.962 . S
C806 H820 0.960 . S
C807 C804 1.511 . S
C807 H821 0.961 . S
C807 H822 0.961 . S
C807 H823 0.961 . S
C808 C809 1.370 . S
C808 C810 1.363 . S
C808 H824 0.931 . S
C809 C808 1.370 . S
C809 C813 1.408 . S
C810 C808 1.363 . S
C810 C811 1.370 . S
C810 C814 1.524 . S
C811 C803 1.503 . S
C811 C810 1.370 . S
C811 C812 1.403 . S
C812 C811 1.403 . S
C812 C813 1.404 . S
C812 C815 1.539 . S
C813 C809 1.408 . S
C813 C812 1.404 . S
C813 H825 0.930 . S
C814 C810 1.524 . S
C814 H826 0.956 . S
C814 H827 0.961 . S
C814 H828 0.961 . S
C815 C812 1.539 . S
C815 H829 0.958 . S
C815 H830 0.961 . S
C815 H831 0.960 . S
H816 C800 0.931 . S
H817 C805 0.929 . S
H818 C806 0.960 . S
H819 C806 0.962 . S
H820 C806 0.960 . S
H821 C807 0.961 . S
H822 C807 0.961 . S
H823 C807 0.961 . S
H824 C808 0.931 . S
H825 C813 0.930 . S
H826 C814 0.956 . S
H827 C814 0.961 . S
H828 C814 0.961 . S
H829 C815 0.958 . S
H830 C815 0.961 . S
H831 C815 0.960 . S
C832 C833 1.391 . S
C832 C834 1.394 . S
C832 H848 0.931 . S
C833 C832 1.391 . S
C833 C837 1.376 . S
C834 C832 1.394 . S
C834 C835 1.369 . S
C834 C838 1.552 . S
C835 C834 1.369 . S
C835 C836 1.410 . S
C835 C843 1.503 1_455 S
C836 C835 1.410 . S
C836 C837 1.392 . S
C836 C839 1.511 . S
C837 C833 1.376 . S
C837 C836 1.392 . S
C837 H849 0.929 . S
C838 C834 1.552 . S
C838 H850 0.943 1_455 S
C838 H851 0.943 1_455 S
C838 H852 0.976 . S
C839 C836 1.511 . S
C839 H853 0.961 . S
C839 H854 0.961 . S
C839 H855 0.961 . S
C840 C841 1.370 . S
C840 C842 1.363 . S
C840 H856 0.931 . S
C841 C840 1.370 . S
C841 C845 1.408 . S
C842 C840 1.363 . S
C842 C843 1.370 . S
C842 C846 1.524 . S
C843 C835 1.503 1_655 S
C843 C842 1.370 . S
C843 C844 1.403 . S
C844 C843 1.403 . S
C844 C845 1.404 . S
C844 C847 1.539 1_655 S
C845 C841 1.408 . S
C845 C844 1.404 . S
C845 H857 0.930 . S
C846 C842 1.524 . S
C846 H858 0.956 . S
C846 H859 0.961 . S
C846 H860 0.961 . S
C847 C844 1.539 1_455 S
C847 H861 0.958 . S
C847 H862 0.961 . S
C847 H863 0.960 . S
H848 C832 0.931 . S
H849 C837 0.929 . S
H850 C838 0.943 1_655 S
H851 C838 0.943 1_655 S
H852 C838 0.976 . S
H853 C839 0.961 . S
H854 C839 0.961 . S
H855 C839 0.961 . S
H856 C840 0.931 . S
H857 C845 0.930 . S
H858 C846 0.956 . S
H859 C846 0.961 . S
H860 C846 0.961 . S
H861 C847 0.958 . S
H862 C847 0.961 . S
H863 C847 0.960 . S
C864 C865 1.391 . S
C864 C866 1.394 1_455 S
C864 H880 0.931 1_455 S
C865 C864 1.391 . S
C865 C869 1.376 . S
C866 C864 1.394 1_655 S
C866 C867 1.369 1_655 S
C866 C870 1.531 . S
C867 C866 1.369 1_455 S
C867 C868 1.410 . S
C867 C875 1.503 1_455 S
C868 C867 1.410 . S
C868 C869 1.392 . S
C868 C871 1.511 . S
C869 C865 1.376 . S
C869 C868 1.392 . S
C869 H881 0.929 . S
C870 C866 1.531 . S
C870 H882 0.960 . S
C870 H883 0.962 . S
C870 H884 0.960 . S
C871 C868 1.511 . S
C871 H885 0.961 . S
C871 H886 0.961 . S
C871 H887 0.961 . S
C872 C873 1.370 . S
C872 C874 1.363 . S
C872 H888 0.931 . S
C873 C872 1.370 . S
C873 C877 1.408 . S
C874 C872 1.363 . S
C874 C875 1.370 . S
C874 C878 1.524 . S
C875 C867 1.503 1_655 S
C875 C874 1.370 . S
C875 C876 1.403 . S
C876 C875 1.403 . S
C876 C877 1.404 . S
C876 C879 1.539 . S
C877 C873 1.408 . S
C877 C876 1.404 . S
C877 H889 0.930 . S
C878 C874 1.524 . S
C878 H890 0.956 . S
C878 H891 0.961 1_655 S
C878 H892 0.961 . S
C879 C876 1.539 . S
C879 H893 0.958 . S
C879 H894 0.961 . S
C879 H895 0.960 1_655 S
H880 C864 0.931 1_655 S
H881 C869 0.929 . S
H882 C870 0.960 . S
H883 C870 0.962 . S
H884 C870 0.960 . S
H885 C871 0.961 . S
H886 C871 0.961 . S
H887 C871 0.961 . S
H888 C872 0.931 . S
H889 C877 0.930 . S
H890 C878 0.956 . S
H891 C878 0.961 1_455 S
H892 C878 0.961 . S
H893 C879 0.958 . S
H894 C879 0.961 . S
H895 C879 0.960 1_455 S
C896 C897 1.391 1_545 S
C896 C898 1.394 . S
C896 H912 0.931 . S
C897 C896 1.391 1_565 S
C897 C901 1.376 . S
C898 C896 1.394 . S
C898 C899 1.340 1_545 S
C898 C902 1.531 . S
C899 C898 1.340 1_565 S
C899 C900 1.441 . S
C899 C907 1.510 1_565 S
C900 C899 1.441 . S
C900 C901 1.392 . S
C900 C903 1.511 . S
C901 C897 1.376 . S
C901 C900 1.392 . S
C901 H913 0.929 . S
C902 C898 1.531 . S
C902 H914 0.960 . S
C902 H915 0.962 1_554 S
C902 H916 0.960 . S
C903 C900 1.511 . S
C903 H917 0.961 . S
C903 H918 0.961 1_554 S
C903 H919 0.961 . S
C904 C905 1.370 . S
C904 C906 1.363 . S
C904 H920 0.931 . S
C905 C904 1.370 . S
C905 C909 1.408 1_556 S
C906 C904 1.363 . S
C906 C907 1.345 1_556 S
C906 C910 1.524 . S
C907 C899 1.510 1_545 S
C907 C906 1.345 1_554 S
C907 C908 1.421 . S
C908 C907 1.421 . S
C908 C909 1.404 . S
C908 C911 1.539 1_545 S
C909 C905 1.408 1_554 S
C909 C908 1.404 . S
C909 H921 0.930 . S
C910 C906 1.524 . S
C910 H922 0.956 . S
C910 H923 0.961 1_545 S
C910 H924 0.961 . S
C911 C908 1.539 1_565 S
C911 H925 0.958 1_565 S
C911 H926 0.961 . S
C911 H927 0.960 . S
H912 C896 0.931 . S
H913 C901 0.929 . S
H914 C902 0.960 . S
H915 C902 0.962 1_556 S
H916 C902 0.960 . S
H917 C903 0.961 . S
H918 C903 0.961 1_556 S
H919 C903 0.961 . S
H920 C904 0.931 . S
H921 C909 0.930 . S
H922 C910 0.956 . S
H923 C910 0.961 1_565 S
H924 C910 0.961 . S
H925 C911 0.958 1_545 S
H926 C911 0.961 . S
H927 C911 0.960 . S
C928 C929 1.391 . S
C928 C930 1.394 . S
C928 H944 0.931 . S
C929 C928 1.391 . S
C929 C933 1.376 . S
C930 C928 1.394 . S
C930 C931 1.369 . S
C930 C934 1.531 . S
C931 C930 1.369 . S
C931 C932 1.410 . S
C931 C939 1.503 . S
C932 C931 1.410 . S
C932 C933 1.392 . S
C932 C935 1.511 . S
C933 C929 1.376 . S
C933 C932 1.392 . S
C933 H945 0.929 . S
C934 C930 1.531 . S
C934 H946 0.960 . S
C934 H947 0.962 . S
C934 H948 0.960 . S
C935 C932 1.511 . S
C935 H949 0.961 . S
C935 H950 0.961 . S
C935 H951 0.961 . S
C936 C937 1.370 . S
C936 C938 1.363 . S
C936 H952 0.931 . S
C937 C936 1.370 . S
C937 C941 1.408 . S
C938 C936 1.363 . S
C938 C939 1.370 . S
C938 C942 1.524 . S
C939 C931 1.503 . S
C939 C938 1.370 . S
C939 C940 1.403 . S
C940 C939 1.403 . S
C940 C941 1.404 . S
C940 C943 1.539 . S
C941 C937 1.408 . S
C941 C940 1.404 . S
C941 H953 0.930 . S
C942 C938 1.524 . S
C942 H954 0.956 . S
C942 H955 0.961 . S
C942 H956 0.961 . S
C943 C940 1.539 . S
C943 H957 0.958 . S
C943 H958 0.961 . S
C943 H959 0.960 . S
H944 C928 0.931 . S
H945 C933 0.929 . S
H946 C934 0.960 . S
H947 C934 0.962 . S
H948 C934 0.960 . S
H949 C935 0.961 . S
H950 C935 0.961 . S
H951 C935 0.961 . S
H952 C936 0.931 . S
H953 C941 0.930 . S
H954 C942 0.956 . S
H955 C942 0.961 . S
H956 C942 0.961 . S
H957 C943 0.958 . S
H958 C943 0.961 . S
H959 C943 0.960 . S
C960 C961 1.391 . S
C960 C962 1.394 . S
C960 H976 0.931 . S
C961 C960 1.391 . S
C961 C965 1.376 1_545 S
C962 C960 1.394 . S
C962 C963 1.369 . S
C962 C966 1.531 . S
C963 C962 1.369 . S
C963 C964 1.410 1_545 S
C963 C971 1.503 1_445 S
C964 C963 1.410 1_565 S
C964 C965 1.392 . S
C964 C967 1.511 . S
C965 C961 1.376 1_565 S
C965 C964 1.392 . S
C965 H977 0.929 . S
C966 C962 1.531 . S
C966 H978 0.960 1_455 S
C966 H979 0.962 . S
C966 H980 0.960 . S
C967 C964 1.511 . S
C967 H981 0.961 . S
C967 H982 0.961 . S
C967 H983 0.961 . S
C968 C969 1.370 . S
C968 C970 1.363 . S
C968 H984 0.931 . S
C969 C968 1.370 . S
C969 C973 1.406 1_565 S
C970 C968 1.363 . S
C970 C971 1.371 . S
C970 C974 1.524 . S
C971 C963 1.503 1_665 S
C971 C970 1.371 . S
C971 C972 1.402 1_565 S
C972 C971 1.402 1_545 S
C972 C973 1.405 . S
C972 C975 1.539 . S
C973 C969 1.406 1_545 S
C973 C972 1.405 . S
C973 H985 0.931 . S
C974 C970 1.524 . S
C974 H986 0.956 1_565 S
C974 H987 0.961 . S
C974 H988 0.961 . S
C975 C972 1.539 . S
C975 H989 0.958 . S
C975 H990 0.961 1_545 S
C975 H991 0.960 1_645 S
H976 C960 0.931 . S
H977 C965 0.929 . S
H978 C966 0.960 1_655 S
H979 C966 0.962 . S
H980 C966 0.960 . S
H981 C967 0.961 . S
H982 C967 0.961 . S
H983 C967 0.961 . S
H984 C968 0.931 . S
H985 C973 0.931 . S
H986 C974 0.956 1_545 S
H987 C974 0.961 . S
H988 C974 0.961 . S
H989 C975 0.958 . S
H990 C975 0.961 1_565 S
H991 C975 0.960 1_465 S
C992 C993 1.391 . S
C992 C994 1.394 . S
C992 H1008 0.931 . S
C993 C992 1.391 . S
C993 C997 1.376 . S
C994 C992 1.394 . S
C994 C995 1.369 . S
C994 C998 1.531 . S
C995 C994 1.369 . S
C995 C996 1.410 . S
C995 C1003 1.503 . S
C996 C995 1.410 . S
C996 C997 1.392 . S
C996 C999 1.511 . S
C997 C993 1.376 . S
C997 C996 1.392 . S
C997 H1009 0.929 . S
C998 C994 1.531 . S
C998 H1010 0.960 . S
C998 H1011 0.962 . S
C998 H1012 0.960 . S
C999 C996 1.511 . S
C999 H1013 0.961 . S
C999 H1014 0.961 . S
C999 H1015 0.961 . S
C1000 C1001 1.370 . S
C1000 C1002 1.363 . S
C1000 H1016 0.931 . S
C1001 C1000 1.370 . S
C1001 C1005 1.408 . S
C1002 C1000 1.363 . S
C1002 C1003 1.370 . S
C1002 C1006 1.524 . S
C1003 C995 1.503 . S
C1003 C1002 1.370 . S
C1003 C1004 1.403 . S
C1004 C1003 1.403 . S
C1004 C1005 1.404 . S
C1004 C1007 1.539 . S
C1005 C1001 1.408 . S
C1005 C1004 1.404 . S
C1005 H1017 0.930 . S
C1006 C1002 1.524 . S
C1006 H1018 0.956 . S
C1006 H1019 0.961 . S
C1006 H1020 0.961 . S
C1007 C1004 1.539 . S
C1007 H1021 0.958 . S
C1007 H1022 0.961 . S
C1007 H1023 0.960 . S
H1008 C992 0.931 . S
H1009 C997 0.929 . S
H1010 C998 0.960 . S
H1011 C998 0.962 . S
H1012 C998 0.960 . S
H1013 C999 0.961 . S
H1014 C999 0.961 . S
H1015 C999 0.961 . S
H1016 C1000 0.931 . S
H1017 C1005 0.930 . S
H1018 C1006 0.956 . S
H1019 C1006 0.961 . S
H1020 C1006 0.961 . S
H1021 C1007 0.958 . S
H1022 C1007 0.961 . S
H1023 C1007 0.960 . S
C1024 C1025 1.391 . S
C1024 C1026 1.394 . S
C1024 H1040 0.931 . S
C1025 C1024 1.391 . S
C1025 C1029 1.376 . S
C1026 C1024 1.394 . S
C1026 C1027 1.369 . S
C1026 C1030 1.531 . S
C1027 C1026 1.369 . S
C1027 C1028 1.410 . S
C1027 C1035 1.503 . S
C1028 C1027 1.410 . S
C1028 C1029 1.392 . S
C1028 C1031 1.511 . S
C1029 C1025 1.376 . S
C1029 C1028 1.392 . S
C1029 H1041 0.929 . S
C1030 C1026 1.531 . S
C1030 H1042 0.960 . S
C1030 H1043 0.962 . S
C1030 H1044 0.960 . S
C1031 C1028 1.511 . S
C1031 H1045 0.961 . S
C1031 H1046 0.961 . S
C1031 H1047 0.961 . S
C1032 C1033 1.370 . S
C1032 C1034 1.363 . S
C1032 H1048 0.931 . S
C1033 C1032 1.370 . S
C1033 C1037 1.408 . S
C1034 C1032 1.363 . S
C1034 C1035 1.370 . S
C1034 C1038 1.524 . S
C1035 C1027 1.503 . S
C1035 C1034 1.370 . S
C1035 C1036 1.403 . S
C1036 C1035 1.403 . S
C1036 C1037 1.404 . S
C1036 C1039 1.539 . S
C1037 C1033 1.408 . S
C1037 C1036 1.404 . S
C1037 H1049 0.930 . S
C1038 C1034 1.524 . S
C1038 H1050 0.956 . S
C1038 H1051 0.961 . S
C1038 H1052 0.961 . S
C1039 C1036 1.539 . S
C1039 H1053 0.958 . S
C1039 H1054 0.961 . S
C1039 H1055 0.960 . S
H1040 C1024 0.931 . S
H1041 C1029 0.929 . S
H1042 C1030 0.960 . S
H1043 C1030 0.962 . S
H1044 C1030 0.960 . S
H1045 C1031 0.961 . S
H1046 C1031 0.961 . S
H1047 C1031 0.961 . S
H1048 C1032 0.931 . S
H1049 C1037 0.930 . S
H1050 C1038 0.956 . S
H1051 C1038 0.961 . S
H1052 C1038 0.961 . S
H1053 C1039 0.958 . S
H1054 C1039 0.961 . S
H1055 C1039 0.960 . S
C1056 C1057 1.391 . S
C1056 C1058 1.394 . S
C1056 H1072 0.931 . S
C1057 C1056 1.391 . S
C1057 C1061 1.376 . S
C1058 C1056 1.394 . S
C1058 C1059 1.369 . S
C1058 C1062 1.531 . S
C1059 C1058 1.369 . S
C1059 C1060 1.410 . S
C1059 C1067 1.503 . S
C1060 C1059 1.410 . S
C1060 C1061 1.392 . S
C1060 C1063 1.511 . S
C1061 C1057 1.376 . S
C1061 C1060 1.392 . S
C1061 H1073 0.929 . S
C1062 C1058 1.531 . S
C1062 H1074 0.960 . S
C1062 H1075 0.962 . S
C1062 H1076 0.960 . S
C1063 C1060 1.511 . S
C1063 H1077 0.961 . S
C1063 H1078 0.961 . S
C1063 H1079 0.961 . S
C1064 C1065 1.370 . S
C1064 C1066 1.363 . S
C1064 H1080 0.931 . S
C1065 C1064 1.370 . S
C1065 C1069 1.408 . S
C1066 C1064 1.363 . S
C1066 C1067 1.370 . S
C1066 C1070 1.524 . S
C1067 C1059 1.503 . S
C1067 C1066 1.370 . S
C1067 C1068 1.403 . S
C1068 C1067 1.403 . S
C1068 C1069 1.404 . S
C1068 C1071 1.539 . S
C1069 C1065 1.408 . S
C1069 C1068 1.404 . S
C1069 H1081 0.930 . S
C1070 C1066 1.524 . S
C1070 H1082 0.956 . S
C1070 H1083 0.961 . S
C1070 H1084 0.961 . S
C1071 C1068 1.539 . S
C1071 H1085 0.958 . S
C1071 H1086 0.961 . S
C1071 H1087 0.960 . S
H1072 C1056 0.931 . S
H1073 C1061 0.929 . S
H1074 C1062 0.960 . S
H1075 C1062 0.962 . S
H1076 C1062 0.960 . S
H1077 C1063 0.961 . S
H1078 C1063 0.961 . S
H1079 C1063 0.961 . S
H1080 C1064 0.931 . S
H1081 C1069 0.930 . S
H1082 C1070 0.956 . S
H1083 C1070 0.961 . S
H1084 C1070 0.961 . S
H1085 C1071 0.958 . S
H1086 C1071 0.961 . S
H1087 C1071 0.960 . S
C1088 C1089 1.391 . S
C1088 C1090 1.394 . S
C1088 H1104 0.931 . S
C1089 C1088 1.391 . S
C1089 C1093 1.376 . S
C1090 C1088 1.394 . S
C1090 C1091 1.369 . S
C1090 C1094 1.531 . S
C1091 C1090 1.369 . S
C1091 C1092 1.410 . S
C1091 C1099 1.503 1_455 S
C1092 C1091 1.410 . S
C1092 C1093 1.392 . S
C1092 C1095 1.511 . S
C1093 C1089 1.376 . S
C1093 C1092 1.392 . S
C1093 H1105 0.929 . S
C1094 C1090 1.531 . S
C1094 H1106 0.960 . S
C1094 H1107 0.962 . S
C1094 H1108 0.960 . S
C1095 C1092 1.511 . S
C1095 H1109 0.961 . S
C1095 H1110 0.961 1_455 S
C1095 H1111 0.961 1_455 S
C1096 C1097 1.370 . S
C1096 C1098 1.363 . S
C1096 H1112 0.931 . S
C1097 C1096 1.370 . S
C1097 C1101 1.408 . S
C1098 C1096 1.363 . S
C1098 C1099 1.370 . S
C1098 C1102 1.524 . S
C1099 C1091 1.503 1_655 S
C1099 C1098 1.370 . S
C1099 C1100 1.403 . S
C1100 C1099 1.403 . S
C1100 C1101 1.404 . S
C1100 C1103 1.539 . S
C1101 C1097 1.408 . S
C1101 C1100 1.404 . S
C1101 H1113 0.930 . S
C1102 C1098 1.524 . S
C1102 H1114 0.956 1_655 S
C1102 H1115 0.961 1_655 S
C1102 H1116 0.961 . S
C1103 C1100 1.539 . S
C1103 H1117 0.958 . S
C1103 H1118 0.961 . S
C1103 H1119 0.960 . S
H1104 C1088 0.931 . S
H1105 C1093 0.929 . S
H1106 C1094 0.960 . S
H1107 C1094 0.962 . S
H1108 C1094 0.960 . S
H1109 C1095 0.961 . S
H1110 C1095 0.961 1_655 S
H1111 C1095 0.961 1_655 S
H1112 C1096 0.931 . S
H1113 C1101 0.930 . S
H1114 C1102 0.956 1_455 S
H1115 C1102 0.961 1_455 S
H1116 C1102 0.961 . S
H1117 C1103 0.958 . S
H1118 C1103 0.961 . S
H1119 C1103 0.960 . S
C1120 C1121 1.391 . S
C1120 C1122 1.394 . S
C1120 H1136 0.931 . S
C1121 C1120 1.391 . S
C1121 C1125 1.376 1_554 S
C1122 C1120 1.394 . S
C1122 C1123 1.369 . S
C1122 C1126 1.531 . S
C1123 C1122 1.369 . S
C1123 C1124 1.410 1_554 S
C1123 C1131 1.503 1_554 S
C1124 C1123 1.410 1_556 S
C1124 C1125 1.392 . S
C1124 C1127 1.511 . S
C1125 C1121 1.376 1_556 S
C1125 C1124 1.392 . S
C1125 H1137 0.929 . S
C1126 C1122 1.531 . S
C1126 H1138 0.960 . S
C1126 H1139 0.962 . S
C1126 H1140 0.960 . S
C1127 C1124 1.511 . S
C1127 H1141 0.961 . S
C1127 H1142 0.961 . S
C1127 H1143 0.961 . S
C1128 C1129 1.370 . S
C1128 C1130 1.363 . S
C1128 H1144 0.931 . S
C1129 C1128 1.370 . S
C1129 C1133 1.408 . S
C1130 C1128 1.363 . S
C1130 C1131 1.370 . S
C1130 C1134 1.524 1_556 S
C1131 C1123 1.503 1_556 S
C1131 C1130 1.370 . S
C1131 C1132 1.403 . S
C1132 C1131 1.403 . S
C1132 C1133 1.404 . S
C1132 C1135 1.539 . S
C1133 C1129 1.408 . S
C1133 C1132 1.404 . S
C1133 H1145 0.930 . S
C1134 C1130 1.524 1_554 S
C1134 H1146 0.956 . S
C1134 H1147 0.961 1_554 S
C1134 H1148 0.969 . S
C1135 C1132 1.539 . S
C1135 H1149 0.958 1_556 S
C1135 H1150 0.961 . S
C1135 H1151 0.960 . S
H1136 C1120 0.931 . S
H1137 C1125 0.929 . S
H1138 C1126 0.960 . S
H1139 C1126 0.962 . S
H1140 C1126 0.960 . S
H1141 C1127 0.961 . S
H1142 C1127 0.961 . S
H1143 C1127 0.961 . S
H1144 C1128 0.931 . S
H1145 C1133 0.930 . S
H1146 C1134 0.956 . S
H1147 C1134 0.961 1_556 S
H1148 C1134 0.969 . S
H1149 C1135 0.958 1_554 S
H1150 C1135 0.961 . S
H1151 C1135 0.960 . S
C1152 C1153 1.391 . S
C1152 C1154 1.394 . S
C1152 H1168 0.931 . S
C1153 C1152 1.391 . S
C1153 C1157 1.376 . S
C1154 C1152 1.394 . S
C1154 C1155 1.369 . S
C1154 C1158 1.531 . S
C1155 C1154 1.369 . S
C1155 C1156 1.410 . S
C1155 C1163 1.503 . S
C1156 C1155 1.410 . S
C1156 C1157 1.392 . S
C1156 C1159 1.511 . S
C1157 C1153 1.376 . S
C1157 C1156 1.392 . S
C1157 H1169 0.929 . S
C1158 C1154 1.531 . S
C1158 H1170 0.960 . S
C1158 H1171 0.962 . S
C1158 H1172 0.960 . S
C1159 C1156 1.511 . S
C1159 H1173 0.961 . S
C1159 H1174 0.961 . S
C1159 H1175 0.961 . S
C1160 C1161 1.370 . S
C1160 C1162 1.363 . S
C1160 H1176 0.931 . S
C1161 C1160 1.370 . S
C1161 C1165 1.408 . S
C1162 C1160 1.363 . S
C1162 C1163 1.370 . S
C1162 C1166 1.524 . S
C1163 C1155 1.503 . S
C1163 C1162 1.370 . S
C1163 C1164 1.403 . S
C1164 C1163 1.403 . S
C1164 C1165 1.404 . S
C1164 C1167 1.539 . S
C1165 C1161 1.408 . S
C1165 C1164 1.404 . S
C1165 H1177 0.930 . S
C1166 C1162 1.524 . S
C1166 H1178 0.956 . S
C1166 H1179 0.961 . S
C1166 H1180 0.961 . S
C1167 C1164 1.539 . S
C1167 H1181 0.958 . S
C1167 H1182 0.961 . S
C1167 H1183 0.960 . S
H1168 C1152 0.931 . S
H1169 C1157 0.929 . S
H1170 C1158 0.960 . S
H1171 C1158 0.962 . S
H1172 C1158 0.960 . S
H1173 C1159 0.961 . S
H1174 C1159 0.961 . S
H1175 C1159 0.961 . S
H1176 C1160 0.931 . S
H1177 C1165 0.930 . S
H1178 C1166 0.956 . S
H1179 C1166 0.961 . S
H1180 C1166 0.961 . S
H1181 C1167 0.958 . S
H1182 C1167 0.961 . S
H1183 C1167 0.960 . S
C1184 C1185 1.391 . S
C1184 C1186 1.394 . S
C1184 H1200 0.931 . S
C1185 C1184 1.391 . S
C1185 C1189 1.376 . S
C1186 C1184 1.394 . S
C1186 C1187 1.369 . S
C1186 C1190 1.531 . S
C1187 C1186 1.369 . S
C1187 C1188 1.410 . S
C1187 C1195 1.503 . S
C1188 C1187 1.410 . S
C1188 C1189 1.392 . S
C1188 C1191 1.511 . S
C1189 C1185 1.376 . S
C1189 C1188 1.392 . S
C1189 H1201 0.929 . S
C1190 C1186 1.531 . S
C1190 H1202 0.960 . S
C1190 H1203 0.962 . S
C1190 H1204 0.960 . S
C1191 C1188 1.511 . S
C1191 H1205 0.961 . S
C1191 H1206 0.961 . S
C1191 H1207 0.961 . S
C1192 C1193 1.370 . S
C1192 C1194 1.363 . S
C1192 H1208 0.931 . S
C1193 C1192 1.370 . S
C1193 C1197 1.408 . S
C1194 C1192 1.363 . S
C1194 C1195 1.370 . S
C1194 C1198 1.524 . S
C1195 C1187 1.503 . S
C1195 C1194 1.370 . S
C1195 C1196 1.403 . S
C1196 C1195 1.403 . S
C1196 C1197 1.404 . S
C1196 C1199 1.539 . S
C1197 C1193 1.408 . S
C1197 C1196 1.404 . S
C1197 H1209 0.930 . S
C1198 C1194 1.524 . S
C1198 H1210 0.956 . S
C1198 H1211 0.961 . S
C1198 H1212 0.961 . S
C1199 C1196 1.539 . S
C1199 H1213 0.958 . S
C1199 H1214 0.961 . S
C1199 H1215 0.960 . S
H1200 C1184 0.931 . S
H1201 C1189 0.929 . S
H1202 C1190 0.960 . S
H1203 C1190 0.962 . S
H1204 C1190 0.960 . S
H1205 C1191 0.961 . S
H1206 C1191 0.961 . S
H1207 C1191 0.961 . S
H1208 C1192 0.931 . S
H1209 C1197 0.930 . S
H1210 C1198 0.956 . S
H1211 C1198 0.961 . S
H1212 C1198 0.961 . S
H1213 C1199 0.958 . S
H1214 C1199 0.961 . S
H1215 C1199 0.960 . S
C1216 C1217 1.391 . S
C1216 C1218 1.394 . S
C1216 H1232 0.931 . S
C1217 C1216 1.391 . S
C1217 C1221 1.376 . S
C1218 C1216 1.394 . S
C1218 C1219 1.369 . S
C1218 C1222 1.531 . S
C1219 C1218 1.369 . S
C1219 C1220 1.410 . S
C1219 C1227 1.503 . S
C1220 C1219 1.410 . S
C1220 C1221 1.392 . S
C1220 C1223 1.511 . S
C1221 C1217 1.376 . S
C1221 C1220 1.392 . S
C1221 H1233 0.929 . S
C1222 C1218 1.531 . S
C1222 H1234 0.960 . S
C1222 H1235 0.962 . S
C1222 H1236 0.960 . S
C1223 C1220 1.511 . S
C1223 H1237 0.961 . S
C1223 H1238 0.961 . S
C1223 H1239 0.961 . S
C1224 C1225 1.370 . S
C1224 C1226 1.363 . S
C1224 H1240 0.931 . S
C1225 C1224 1.370 . S
C1225 C1229 1.408 . S
C1226 C1224 1.363 . S
C1226 C1227 1.370 . S
C1226 C1230 1.524 . S
C1227 C1219 1.503 . S
C1227 C1226 1.370 . S
C1227 C1228 1.403 . S
C1228 C1227 1.403 . S
C1228 C1229 1.404 . S
C1228 C1231 1.539 . S
C1229 C1225 1.408 . S
C1229 C1228 1.404 . S
C1229 H1241 0.930 . S
C1230 C1226 1.524 . S
C1230 H1242 0.956 . S
C1230 H1243 0.961 . S
C1230 H1244 0.961 . S
C1231 C1228 1.539 . S
C1231 H1245 0.958 . S
C1231 H1246 0.961 . S
C1231 H1247 0.960 . S
H1232 C1216 0.931 . S
H1233 C1221 0.929 . S
H1234 C1222 0.960 . S
H1235 C1222 0.962 . S
H1236 C1222 0.960 . S
H1237 C1223 0.961 . S
H1238 C1223 0.961 . S
H1239 C1223 0.961 . S
H1240 C1224 0.931 . S
H1241 C1229 0.930 . S
H1242 C1230 0.956 . S
H1243 C1230 0.961 . S
H1244 C1230 0.961 . S
H1245 C1231 0.958 . S
H1246 C1231 0.961 . S
H1247 C1231 0.960 . S
C1248 C1249 1.391 . S
C1248 C1250 1.394 . S
C1248 H1264 0.931 . S
C1249 C1248 1.391 . S
C1249 C1253 1.376 . S
C1250 C1248 1.394 . S
C1250 C1251 1.369 . S
C1250 C1254 1.531 . S
C1251 C1250 1.369 . S
C1251 C1252 1.410 . S
C1251 C1259 1.503 . S
C1252 C1251 1.410 . S
C1252 C1253 1.392 . S
C1252 C1255 1.511 . S
C1253 C1249 1.376 . S
C1253 C1252 1.392 . S
C1253 H1265 0.929 . S
C1254 C1250 1.531 . S
C1254 H1266 0.960 . S
C1254 H1267 0.962 . S
C1254 H1268 0.960 . S
C1255 C1252 1.511 . S
C1255 H1269 0.961 . S
C1255 H1270 0.961 . S
C1255 H1271 0.961 . S
C1256 C1257 1.370 . S
C1256 C1258 1.363 . S
C1256 H1272 0.931 . S
C1257 C1256 1.370 . S
C1257 C1261 1.408 . S
C1258 C1256 1.363 . S
C1258 C1259 1.370 . S
C1258 C1262 1.524 . S
C1259 C1251 1.503 . S
C1259 C1258 1.370 . S
C1259 C1260 1.403 . S
C1260 C1259 1.403 . S
C1260 C1261 1.404 . S
C1260 C1263 1.539 . S
C1261 C1257 1.408 . S
C1261 C1260 1.404 . S
C1261 H1273 0.930 . S
C1262 C1258 1.524 . S
C1262 H1274 0.956 . S
C1262 H1275 0.961 . S
C1262 H1276 0.961 . S
C1263 C1260 1.539 . S
C1263 H1277 0.958 . S
C1263 H1278 0.961 . S
C1263 H1279 0.960 . S
H1264 C1248 0.931 . S
H1265 C1253 0.929 . S
H1266 C1254 0.960 . S
H1267 C1254 0.962 . S
H1268 C1254 0.960 . S
H1269 C1255 0.961 . S
H1270 C1255 0.961 . S
H1271 C1255 0.961 . S
H1272 C1256 0.931 . S
H1273 C1261 0.930 . S
H1274 C1262 0.956 . S
H1275 C1262 0.961 . S
H1276 C1262 0.961 . S
H1277 C1263 0.958 . S
H1278 C1263 0.961 . S
H1279 C1263 0.960 . S
C1280 C1281 1.391 . S
C1280 C1282 1.394 . S
C1280 H1296 0.931 . S
C1281 C1280 1.391 . S
C1281 C1285 1.376 . S
C1282 C1280 1.394 . S
C1282 C1283 1.369 . S
C1282 C1286 1.531 . S
C1283 C1282 1.369 . S
C1283 C1284 1.410 . S
C1283 C1291 1.503 . S
C1284 C1283 1.410 . S
C1284 C1285 1.392 . S
C1284 C1287 1.511 . S
C1285 C1281 1.376 . S
C1285 C1284 1.392 . S
C1285 H1297 0.929 . S
C1286 C1282 1.531 . S
C1286 H1298 0.960 . S
C1286 H1299 0.962 . S
C1286 H1300 0.960 . S
C1287 C1284 1.511 . S
C1287 H1301 0.961 . S
C1287 H1302 0.961 . S
C1287 H1303 0.961 . S
C1288 C1289 1.370 . S
C1288 C1290 1.363 . S
C1288 H1304 0.931 . S
C1289 C1288 1.370 . S
C1289 C1293 1.408 . S
C1290 C1288 1.363 . S
C1290 C1291 1.370 . S
C1290 C1294 1.524 . S
C1291 C1283 1.503 . S
C1291 C1290 1.370 . S
C1291 C1292 1.403 . S
C1292 C1291 1.403 . S
C1292 C1293 1.404 . S
C1292 C1295 1.539 . S
C1293 C1289 1.408 . S
C1293 C1292 1.404 . S
C1293 H1305 0.930 . S
C1294 C1290 1.524 . S
C1294 H1306 0.956 . S
C1294 H1307 0.961 . S
C1294 H1308 0.961 . S
C1295 C1292 1.539 . S
C1295 H1309 0.958 . S
C1295 H1310 0.961 . S
C1295 H1311 0.960 . S
H1296 C1280 0.931 . S
H1297 C1285 0.929 . S
H1298 C1286 0.960 . S
H1299 C1286 0.962 . S
H1300 C1286 0.960 . S
H1301 C1287 0.961 . S
H1302 C1287 0.961 . S
H1303 C1287 0.961 . S
H1304 C1288 0.931 . S
H1305 C1293 0.930 . S
H1306 C1294 0.956 . S
H1307 C1294 0.961 . S
H1308 C1294 0.961 . S
H1309 C1295 0.958 . S
H1310 C1295 0.961 . S
H1311 C1295 0.960 . S
C1312 C1313 1.391 . S
C1312 C1314 1.394 . S
C1312 H1328 0.931 . S
C1313 C1312 1.391 . S
C1313 C1317 1.376 . S
C1314 C1312 1.394 . S
C1314 C1315 1.369 . S
C1314 C1318 1.531 . S
C1315 C1314 1.369 . S
C1315 C1316 1.410 . S
C1315 C1323 1.503 . S
C1316 C1315 1.410 . S
C1316 C1317 1.392 . S
C1316 C1319 1.511 . S
C1317 C1313 1.376 . S
C1317 C1316 1.392 . S
C1317 H1329 0.929 . S
C1318 C1314 1.531 . S
C1318 H1330 0.960 . S
C1318 H1331 0.962 . S
C1318 H1332 0.960 . S
C1319 C1316 1.511 . S
C1319 H1333 0.961 . S
C1319 H1334 0.961 . S
C1319 H1335 0.961 . S
C1320 C1321 1.370 . S
C1320 C1322 1.363 . S
C1320 H1336 0.931 . S
C1321 C1320 1.370 . S
C1321 C1325 1.408 . S
C1322 C1320 1.363 . S
C1322 C1323 1.370 . S
C1322 C1326 1.524 . S
C1323 C1315 1.503 . S
C1323 C1322 1.370 . S
C1323 C1324 1.403 . S
C1324 C1323 1.403 . S
C1324 C1325 1.404 . S
C1324 C1327 1.539 . S
C1325 C1321 1.408 . S
C1325 C1324 1.404 . S
C1325 H1337 0.930 . S
C1326 C1322 1.524 . S
C1326 H1338 0.956 . S
C1326 H1339 0.961 . S
C1326 H1340 0.961 . S
C1327 C1324 1.539 . S
C1327 H1341 0.958 . S
C1327 H1342 0.961 . S
C1327 H1343 0.960 . S
H1328 C1312 0.931 . S
H1329 C1317 0.929 . S
H1330 C1318 0.960 . S
H1331 C1318 0.962 . S
H1332 C1318 0.960 . S
H1333 C1319 0.961 . S
H1334 C1319 0.961 . S
H1335 C1319 0.961 . S
H1336 C1320 0.931 . S
H1337 C1325 0.930 . S
H1338 C1326 0.956 . S
H1339 C1326 0.961 . S
H1340 C1326 0.961 . S
H1341 C1327 0.958 . S
H1342 C1327 0.961 . S
H1343 C1327 0.960 . S
C1344 C1345 1.391 . S
C1344 C1346 1.394 . S
C1344 H1360 0.931 . S
C1345 C1344 1.391 . S
C1345 C1349 1.376 . S
C1346 C1344 1.394 . S
C1346 C1347 1.369 . S
C1346 C1350 1.531 . S
C1347 C1346 1.369 . S
C1347 C1348 1.410 . S
C1347 C1355 1.503 . S
C1348 C1347 1.410 . S
C1348 C1349 1.392 . S
C1348 C1351 1.511 . S
C1349 C1345 1.376 . S
C1349 C1348 1.392 . S
C1349 H1361 0.929 . S
C1350 C1346 1.531 . S
C1350 H1362 0.960 . S
C1350 H1363 0.962 . S
C1350 H1364 0.960 . S
C1351 C1348 1.511 . S
C1351 H1365 0.961 . S
C1351 H1366 0.961 . S
C1351 H1367 0.961 . S
C1352 C1353 1.370 . S
C1352 C1354 1.363 . S
C1352 H1368 0.931 . S
C1353 C1352 1.370 . S
C1353 C1357 1.408 . S
C1354 C1352 1.363 . S
C1354 C1355 1.370 . S
C1354 C1358 1.524 . S
C1355 C1347 1.503 . S
C1355 C1354 1.370 . S
C1355 C1356 1.403 . S
C1356 C1355 1.403 . S
C1356 C1357 1.404 . S
C1356 C1359 1.539 . S
C1357 C1353 1.408 . S
C1357 C1356 1.404 . S
C1357 H1369 0.930 . S
C1358 C1354 1.524 . S
C1358 H1370 0.956 . S
C1358 H1371 0.961 . S
C1358 H1372 0.961 . S
C1359 C1356 1.539 . S
C1359 H1373 0.958 . S
C1359 H1374 0.961 . S
C1359 H1375 0.960 . S
H1360 C1344 0.931 . S
H1361 C1349 0.929 . S
H1362 C1350 0.960 . S
H1363 C1350 0.962 . S
H1364 C1350 0.960 . S
H1365 C1351 0.961 . S
H1366 C1351 0.961 . S
H1367 C1351 0.961 . S
H1368 C1352 0.931 . S
H1369 C1357 0.930 . S
H1370 C1358 0.956 . S
H1371 C1358 0.961 . S
H1372 C1358 0.961 . S
H1373 C1359 0.958 . S
H1374 C1359 0.961 . S
H1375 C1359 0.960 . S
C1376 C1377 1.391 . S
C1376 C1378 1.394 . S
C1376 H1392 0.931 . S
C1377 C1376 1.391 . S
C1377 C1381 1.376 . S
C1378 C1376 1.394 . S
C1378 C1379 1.369 . S
C1378 C1382 1.531 . S
C1379 C1378 1.369 . S
C1379 C1380 1.410 . S
C1379 C1387 1.503 . S
C1380 C1379 1.410 . S
C1380 C1381 1.392 . S
C1380 C1383 1.511 . S
C1381 C1377 1.376 . S
C1381 C1380 1.392 . S
C1381 H1393 0.929 . S
C1382 C1378 1.531 . S
C1382 H1394 0.960 . S
C1382 H1395 0.962 . S
C1382 H1396 0.960 . S
C1383 C1380 1.511 . S
C1383 H1397 0.961 . S
C1383 H1398 0.961 . S
C1383 H1399 0.961 . S
C1384 C1385 1.370 . S
C1384 C1386 1.363 . S
C1384 H1400 0.931 . S
C1385 C1384 1.370 . S
C1385 C1389 1.408 . S
C1386 C1384 1.363 . S
C1386 C1387 1.370 . S
C1386 C1390 1.524 . S
C1387 C1379 1.503 . S
C1387 C1386 1.370 . S
C1387 C1388 1.403 . S
C1388 C1387 1.403 . S
C1388 C1389 1.404 . S
C1388 C1391 1.539 . S
C1389 C1385 1.408 . S
C1389 C1388 1.404 . S
C1389 H1401 0.930 . S
C1390 C1386 1.524 . S
C1390 H1402 0.956 . S
C1390 H1403 0.961 . S
C1390 H1404 0.961 . S
C1391 C1388 1.539 . S
C1391 H1405 0.958 . S
C1391 H1406 0.961 . S
C1391 H1407 0.960 . S
H1392 C1376 0.931 . S
H1393 C1381 0.929 . S
H1394 C1382 0.960 . S
H1395 C1382 0.962 . S
H1396 C1382 0.960 . S
H1397 C1383 0.961 . S
H1398 C1383 0.961 . S
H1399 C1383 0.961 . S
H1400 C1384 0.931 . S
H1401 C1389 0.930 . S
H1402 C1390 0.956 . S
H1403 C1390 0.961 . S
H1404 C1390 0.961 . S
H1405 C1391 0.958 . S
H1406 C1391 0.961 . S
H1407 C1391 0.960 . S
C1408 C1409 1.391 . S
C1408 C1410 1.394 . S
C1408 H1424 0.931 . S
C1409 C1408 1.391 . S
C1409 C1413 1.376 . S
C1410 C1408 1.394 . S
C1410 C1411 1.369 . S
C1410 C1414 1.531 . S
C1411 C1410 1.369 . S
C1411 C1412 1.410 . S
C1411 C1419 1.503 . S
C1412 C1411 1.410 . S
C1412 C1413 1.392 . S
C1412 C1415 1.511 . S
C1413 C1409 1.376 . S
C1413 C1412 1.392 . S
C1413 H1425 0.929 . S
C1414 C1410 1.531 . S
C1414 H1426 0.960 . S
C1414 H1427 0.962 . S
C1414 H1428 0.960 . S
C1415 C1412 1.511 . S
C1415 H1429 0.961 . S
C1415 H1430 0.961 . S
C1415 H1431 0.961 . S
C1416 C1417 1.370 . S
C1416 C1418 1.363 . S
C1416 H1432 0.931 . S
C1417 C1416 1.370 . S
C1417 C1421 1.408 . S
C1418 C1416 1.363 . S
C1418 C1419 1.370 . S
C1418 C1422 1.524 . S
C1419 C1411 1.503 . S
C1419 C1418 1.370 . S
C1419 C1420 1.403 . S
C1420 C1419 1.403 . S
C1420 C1421 1.404 . S
C1420 C1423 1.539 . S
C1421 C1417 1.408 . S
C1421 C1420 1.404 . S
C1421 H1433 0.930 . S
C1422 C1418 1.524 . S
C1422 H1434 0.956 . S
C1422 H1435 0.961 . S
C1422 H1436 0.961 . S
C1423 C1420 1.539 . S
C1423 H1437 0.958 . S
C1423 H1438 0.961 . S
C1423 H1439 0.960 . S
H1424 C1408 0.931 . S
H1425 C1413 0.929 . S
H1426 C1414 0.960 . S
H1427 C1414 0.962 . S
H1428 C1414 0.960 . S
H1429 C1415 0.961 . S
H1430 C1415 0.961 . S
H1431 C1415 0.961 . S
H1432 C1416 0.931 . S
H1433 C1421 0.930 . S
H1434 C1422 0.956 . S
H1435 C1422 0.961 . S
H1436 C1422 0.961 . S
H1437 C1423 0.958 . S
H1438 C1423 0.961 . S
H1439 C1423 0.960 . S
C1440 C1441 1.391 . S
C1440 C1442 1.394 . S
C1440 H1456 0.931 . S
C1441 C1440 1.391 . S
C1441 C1445 1.376 . S
C1442 C1440 1.394 . S
C1442 C1443 1.369 . S
C1442 C1446 1.531 . S
C1443 C1442 1.369 . S
C1443 C1444 1.410 . S
C1443 C1451 1.503 . S
C1444 C1443 1.410 . S
C1444 C1445 1.392 . S
C1444 C1447 1.511 . S
C1445 C1441 1.376 . S
C1445 C1444 1.392 . S
C1445 H1457 0.929 . S
C1446 C1442 1.531 . S
C1446 H1458 0.960 . S
C1446 H1459 0.962 . S
C1446 H1460 0.960 . S
C1447 C1444 1.511 . S
C1447 H1461 0.961 . S
C1447 H1462 0.961 . S
C1447 H1463 0.961 . S
C1448 C1449 1.370 . S
C1448 C1450 1.363 . S
C1448 H1464 0.931 . S
C1449 C1448 1.370 . S
C1449 C1453 1.408 . S
C1450 C1448 1.363 . S
C1450 C1451 1.370 . S
C1450 C1454 1.524 . S
C1451 C1443 1.503 . S
C1451 C1450 1.370 . S
C1451 C1452 1.403 . S
C1452 C1451 1.403 . S
C1452 C1453 1.404 . S
C1452 C1455 1.539 . S
C1453 C1449 1.408 . S
C1453 C1452 1.404 . S
C1453 H1465 0.930 . S
C1454 C1450 1.524 . S
C1454 H1466 0.956 . S
C1454 H1467 0.961 . S
C1454 H1468 0.961 . S
C1455 C1452 1.539 . S
C1455 H1469 0.958 . S
C1455 H1470 0.961 . S
C1455 H1471 0.960 . S
H1456 C1440 0.931 . S
H1457 C1445 0.929 . S
H1458 C1446 0.960 . S
H1459 C1446 0.962 . S
H1460 C1446 0.960 . S
H1461 C1447 0.961 . S
H1462 C1447 0.961 . S
H1463 C1447 0.961 . S
H1464 C1448 0.931 . S
H1465 C1453 0.930 . S
H1466 C1454 0.956 . S
H1467 C1454 0.961 . S
H1468 C1454 0.961 . S
H1469 C1455 0.958 . S
H1470 C1455 0.961 . S
H1471 C1455 0.960 . S
C1472 C1473 1.391 . S
C1472 C1474 1.394 . S
C1472 H1488 0.931 . S
C1473 C1472 1.391 . S
C1473 C1477 1.376 . S
C1474 C1472 1.394 . S
C1474 C1475 1.369 . S
C1474 C1478 1.531 . S
C1475 C1474 1.369 . S
C1475 C1476 1.410 . S
C1475 C1483 1.503 . S
C1476 C1475 1.410 . S
C1476 C1477 1.392 . S
C1476 C1479 1.511 . S
C1477 C1473 1.376 . S
C1477 C1476 1.392 . S
C1477 H1489 0.929 . S
C1478 C1474 1.531 . S
C1478 H1490 0.960 . S
C1478 H1491 0.962 . S
C1478 H1492 0.960 . S
C1479 C1476 1.511 . S
C1479 H1493 0.961 . S
C1479 H1494 0.961 . S
C1479 H1495 0.961 . S
C1480 C1481 1.370 . S
C1480 C1482 1.363 . S
C1480 H1496 0.931 . S
C1481 C1480 1.370 . S
C1481 C1485 1.408 . S
C1482 C1480 1.363 . S
C1482 C1483 1.370 . S
C1482 C1486 1.524 . S
C1483 C1475 1.503 . S
C1483 C1482 1.370 . S
C1483 C1484 1.403 . S
C1484 C1483 1.403 . S
C1484 C1485 1.404 . S
C1484 C1487 1.539 . S
C1485 C1481 1.408 . S
C1485 C1484 1.404 . S
C1485 H1497 0.930 . S
C1486 C1482 1.524 . S
C1486 H1498 0.956 . S
C1486 H1499 0.961 . S
C1486 H1500 0.961 . S
C1487 C1484 1.539 . S
C1487 H1501 0.958 . S
C1487 H1502 0.961 . S
C1487 H1503 0.960 . S
H1488 C1472 0.931 . S
H1489 C1477 0.929 . S
H1490 C1478 0.960 . S
H1491 C1478 0.962 . S
H1492 C1478 0.960 . S
H1493 C1479 0.961 . S
H1494 C1479 0.961 . S
H1495 C1479 0.961 . S
H1496 C1480 0.931 . S
H1497 C1485 0.930 . S
H1498 C1486 0.956 . S
H1499 C1486 0.961 . S
H1500 C1486 0.961 . S
H1501 C1487 0.958 . S
H1502 C1487 0.961 . S
H1503 C1487 0.960 . S
C1504 C1505 1.391 . S
C1504 C1506 1.394 . S
C1504 H1520 0.931 . S
C1505 C1504 1.391 . S
C1505 C1509 1.376 . S
C1506 C1504 1.394 . S
C1506 C1507 1.369 . S
C1506 C1510 1.531 . S
C1507 C1506 1.369 . S
C1507 C1508 1.410 . S
C1507 C1515 1.503 . S
C1508 C1507 1.410 . S
C1508 C1509 1.392 . S
C1508 C1511 1.511 . S
C1509 C1505 1.376 . S
C1509 C1508 1.392 . S
C1509 H1521 0.929 . S
C1510 C1506 1.531 . S
C1510 H1522 0.960 . S
C1510 H1523 0.962 . S
C1510 H1524 0.960 . S
C1511 C1508 1.511 . S
C1511 H1525 0.961 . S
C1511 H1526 0.961 . S
C1511 H1527 0.961 . S
C1512 C1513 1.370 . S
C1512 C1514 1.363 . S
C1512 H1528 0.931 . S
C1513 C1512 1.370 . S
C1513 C1517 1.408 . S
C1514 C1512 1.363 . S
C1514 C1515 1.370 . S
C1514 C1518 1.524 . S
C1515 C1507 1.503 . S
C1515 C1514 1.370 . S
C1515 C1516 1.403 . S
C1516 C1515 1.403 . S
C1516 C1517 1.404 . S
C1516 C1519 1.539 . S
C1517 C1513 1.408 . S
C1517 C1516 1.404 . S
C1517 H1529 0.930 . S
C1518 C1514 1.524 . S
C1518 H1530 0.956 . S
C1518 H1531 0.961 . S
C1518 H1532 0.961 . S
C1519 C1516 1.539 . S
C1519 H1533 0.958 . S
C1519 H1534 0.961 . S
C1519 H1535 0.960 . S
H1520 C1504 0.931 . S
H1521 C1509 0.929 . S
H1522 C1510 0.960 . S
H1523 C1510 0.962 . S
H1524 C1510 0.960 . S
H1525 C1511 0.961 . S
H1526 C1511 0.961 . S
H1527 C1511 0.961 . S
H1528 C1512 0.931 . S
H1529 C1517 0.930 . S
H1530 C1518 0.956 . S
H1531 C1518 0.961 . S
H1532 C1518 0.961 . S
H1533 C1519 0.958 . S
H1534 C1519 0.961 . S
H1535 C1519 0.960 . S
C1536 C1537 1.391 . S
C1536 C1538 1.394 . S
C1536 H1552 0.931 . S
C1537 C1536 1.391 . S
C1537 C1541 1.376 . S
C1538 C1536 1.394 . S
C1538 C1539 1.369 . S
C1538 C1542 1.531 . S
C1539 C1538 1.369 . S
C1539 C1540 1.410 . S
C1539 C1547 1.503 . S
C1540 C1539 1.410 . S
C1540 C1541 1.392 . S
C1540 C1543 1.511 . S
C1541 C1537 1.376 . S
C1541 C1540 1.392 . S
C1541 H1553 0.929 . S
C1542 C1538 1.531 . S
C1542 H1554 0.960 . S
C1542 H1555 0.962 . S
C1542 H1556 0.960 . S
C1543 C1540 1.511 . S
C1543 H1557 0.961 . S
C1543 H1558 0.961 . S
C1543 H1559 0.961 . S
C1544 C1545 1.370 . S
C1544 C1546 1.363 . S
C1544 H1560 0.931 . S
C1545 C1544 1.370 . S
C1545 C1549 1.408 . S
C1546 C1544 1.363 . S
C1546 C1547 1.370 . S
C1546 C1550 1.524 . S
C1547 C1539 1.503 . S
C1547 C1546 1.370 . S
C1547 C1548 1.403 . S
C1548 C1547 1.403 . S
C1548 C1549 1.404 . S
C1548 C1551 1.539 . S
C1549 C1545 1.408 . S
C1549 C1548 1.404 . S
C1549 H1561 0.930 . S
C1550 C1546 1.524 . S
C1550 H1562 0.956 . S
C1550 H1563 0.961 . S
C1550 H1564 0.961 . S
C1551 C1548 1.539 . S
C1551 H1565 0.958 . S
C1551 H1566 0.961 . S
C1551 H1567 0.960 . S
H1552 C1536 0.931 . S
H1553 C1541 0.929 . S
H1554 C1542 0.960 . S
H1555 C1542 0.962 . S
H1556 C1542 0.960 . S
H1557 C1543 0.961 . S
H1558 C1543 0.961 . S
H1559 C1543 0.961 . S
H1560 C1544 0.931 . S
H1561 C1549 0.930 . S
H1562 C1550 0.956 . S
H1563 C1550 0.961 . S
H1564 C1550 0.961 . S
H1565 C1551 0.958 . S
H1566 C1551 0.961 . S
H1567 C1551 0.960 . S
C1568 C1569 1.391 . S
C1568 C1570 1.394 . S
C1568 H1584 0.931 . S
C1569 C1568 1.391 . S
C1569 C1573 1.376 . S
C1570 C1568 1.394 . S
C1570 C1571 1.369 . S
C1570 C1574 1.531 . S
C1571 C1570 1.369 . S
C1571 C1572 1.410 . S
C1571 C1579 1.503 . S
C1572 C1571 1.410 . S
C1572 C1573 1.392 . S
C1572 C1575 1.511 . S
C1573 C1569 1.376 . S
C1573 C1572 1.392 . S
C1573 H1585 0.929 . S
C1574 C1570 1.531 . S
C1574 H1586 0.960 . S
C1574 H1587 0.962 . S
C1574 H1588 0.960 . S
C1575 C1572 1.511 . S
C1575 H1589 0.961 . S
C1575 H1590 0.961 . S
C1575 H1591 0.961 . S
C1576 C1577 1.370 . S
C1576 C1578 1.363 . S
C1576 H1592 0.931 . S
C1577 C1576 1.370 . S
C1577 C1581 1.408 . S
C1578 C1576 1.363 . S
C1578 C1579 1.370 . S
C1578 C1582 1.524 . S
C1579 C1571 1.503 . S
C1579 C1578 1.370 . S
C1579 C1580 1.403 . S
C1580 C1579 1.403 . S
C1580 C1581 1.404 . S
C1580 C1583 1.539 . S
C1581 C1577 1.408 . S
C1581 C1580 1.404 . S
C1581 H1593 0.930 . S
C1582 C1578 1.524 . S
C1582 H1594 0.956 . S
C1582 H1595 0.961 . S
C1582 H1596 0.961 . S
C1583 C1580 1.539 . S
C1583 H1597 0.958 . S
C1583 H1598 0.961 . S
C1583 H1599 0.960 . S
H1584 C1568 0.931 . S
H1585 C1573 0.929 . S
H1586 C1574 0.960 . S
H1587 C1574 0.962 . S
H1588 C1574 0.960 . S
H1589 C1575 0.961 . S
H1590 C1575 0.961 . S
H1591 C1575 0.961 . S
H1592 C1576 0.931 . S
H1593 C1581 0.930 . S
H1594 C1582 0.956 . S
H1595 C1582 0.961 . S
H1596 C1582 0.961 . S
H1597 C1583 0.958 . S
H1598 C1583 0.961 . S
H1599 C1583 0.960 . S
C1600 C1601 1.391 . S
C1600 C1602 1.394 . S
C1600 H1616 0.931 . S
C1601 C1600 1.391 . S
C1601 C1605 1.376 . S
C1602 C1600 1.394 . S
C1602 C1603 1.369 . S
C1602 C1606 1.531 . S
C1603 C1602 1.369 . S
C1603 C1604 1.410 . S
C1603 C1611 1.503 . S
C1604 C1603 1.410 . S
C1604 C1605 1.392 . S
C1604 C1607 1.511 . S
C1605 C1601 1.376 . S
C1605 C1604 1.392 . S
C1605 H1617 0.929 . S
C1606 C1602 1.531 . S
C1606 H1618 0.960 . S
C1606 H1619 0.962 . S
C1606 H1620 0.960 . S
C1607 C1604 1.511 . S
C1607 H1621 0.961 . S
C1607 H1622 0.961 . S
C1607 H1623 0.961 . S
C1608 C1609 1.370 . S
C1608 C1610 1.363 . S
C1608 H1624 0.931 . S
C1609 C1608 1.370 . S
C1609 C1613 1.408 . S
C1610 C1608 1.363 . S
C1610 C1611 1.370 . S
C1610 C1614 1.524 . S
C1611 C1603 1.503 . S
C1611 C1610 1.370 . S
C1611 C1612 1.403 . S
C1612 C1611 1.403 . S
C1612 C1613 1.404 . S
C1612 C1615 1.539 . S
C1613 C1609 1.408 . S
C1613 C1612 1.404 . S
C1613 H1625 0.930 . S
C1614 C1610 1.524 . S
C1614 H1626 0.956 . S
C1614 H1627 0.961 . S
C1614 H1628 0.961 . S
C1615 C1612 1.539 . S
C1615 H1629 0.958 . S
C1615 H1630 0.961 . S
C1615 H1631 0.960 . S
H1616 C1600 0.931 . S
H1617 C1605 0.929 . S
H1618 C1606 0.960 . S
H1619 C1606 0.962 . S
H1620 C1606 0.960 . S
H1621 C1607 0.961 . S
H1622 C1607 0.961 . S
H1623 C1607 0.961 . S
H1624 C1608 0.931 . S
H1625 C1613 0.930 . S
H1626 C1614 0.956 . S
H1627 C1614 0.961 . S
H1628 C1614 0.961 . S
H1629 C1615 0.958 . S
H1630 C1615 0.961 . S
H1631 C1615 0.960 . S
C1632 C1633 1.391 . S
C1632 C1634 1.394 . S
C1632 H1648 0.931 . S
C1633 C1632 1.391 . S
C1633 C1637 1.376 . S
C1634 C1632 1.394 . S
C1634 C1635 1.369 . S
C1634 C1638 1.531 . S
C1635 C1634 1.369 . S
C1635 C1636 1.410 . S
C1635 C1643 1.503 . S
C1636 C1635 1.410 . S
C1636 C1637 1.392 . S
C1636 C1639 1.511 . S
C1637 C1633 1.376 . S
C1637 C1636 1.392 . S
C1637 H1649 0.929 . S
C1638 C1634 1.531 . S
C1638 H1650 0.960 . S
C1638 H1651 0.962 . S
C1638 H1652 0.960 1_565 S
C1639 C1636 1.511 . S
C1639 H1653 0.961 . S
C1639 H1654 0.961 . S
C1639 H1655 0.961 . S
C1640 C1641 1.370 . S
C1640 C1642 1.363 . S
C1640 H1656 0.931 . S
C1641 C1640 1.370 . S
C1641 C1645 1.408 . S
C1642 C1640 1.363 . S
C1642 C1643 1.370 . S
C1642 C1646 1.524 . S
C1643 C1635 1.503 . S
C1643 C1642 1.370 . S
C1643 C1644 1.403 . S
C1644 C1643 1.403 . S
C1644 C1645 1.404 . S
C1644 C1647 1.539 . S
C1645 C1641 1.408 . S
C1645 C1644 1.404 . S
C1645 H1657 0.930 . S
C1646 C1642 1.524 . S
C1646 H1658 0.956 . S
C1646 H1659 0.961 . S
C1646 H1660 0.961 . S
C1647 C1644 1.539 . S
C1647 H1661 0.958 . S
C1647 H1662 0.961 . S
C1647 H1663 0.960 . S
H1648 C1632 0.931 . S
H1649 C1637 0.929 . S
H1650 C1638 0.960 . S
H1651 C1638 0.962 . S
H1652 C1638 0.960 1_545 S
H1653 C1639 0.961 . S
H1654 C1639 0.961 . S
H1655 C1639 0.961 . S
H1656 C1640 0.931 . S
H1657 C1645 0.930 . S
H1658 C1646 0.956 . S
H1659 C1646 0.961 . S
H1660 C1646 0.961 . S
H1661 C1647 0.958 . S
H1662 C1647 0.961 . S
H1663 C1647 0.960 . S
C1664 C1665 1.363 1_556 S
C1664 C1666 1.437 . S
C1664 H1680 0.918 1_556 S
C1665 C1664 1.363 1_554 S
C1665 C1669 1.376 . S
C1666 C1664 1.437 . S
C1666 C1667 1.369 . S
C1666 C1670 1.531 . S
C1667 C1666 1.369 . S
C1667 C1668 1.410 . S
C1667 C1675 1.503 . S
C1668 C1667 1.410 . S
C1668 C1669 1.392 1_556 S
C1668 C1671 1.511 . S
C1669 C1665 1.376 . S
C1669 C1668 1.392 1_554 S
C1669 H1681 0.929 . S
C1670 C1666 1.531 . S
C1670 H1682 0.960 . S
C1670 H1683 0.962 . S
C1670 H1684 0.960 . S
C1671 C1668 1.511 . S
C1671 H1685 0.961 . S
C1671 H1686 0.961 . S
C1671 H1687 0.961 . S
C1672 C1673 1.370 . S
C1672 C1674 1.363 . S
C1672 H1688 0.931 . S
C1673 C1672 1.370 . S
C1673 C1677 1.408 . S
C1674 C1672 1.363 . S
C1674 C1675 1.370 . S
C1674 C1678 1.524 . S
C1675 C1667 1.503 . S
C1675 C1674 1.370 . S
C1675 C1676 1.403 . S
C1676 C1675 1.403 . S
C1676 C1677 1.404 . S
C1676 C1679 1.539 . S
C1677 C1673 1.408 . S
C1677 C1676 1.404 . S
C1677 H1689 0.930 . S
C1678 C1674 1.524 . S
C1678 H1690 0.956 . S
C1678 H1691 0.961 . S
C1678 H1692 0.961 . S
C1679 C1676 1.539 . S
C1679 H1693 0.958 . S
C1679 H1694 0.961 . S
C1679 H1695 0.960 . S
H1680 C1664 0.918 1_554 S
H1681 C1669 0.929 . S
H1682 C1670 0.960 . S
H1683 C1670 0.962 . S
H1684 C1670 0.960 . S
H1685 C1671 0.961 . S
H1686 C1671 0.961 . S
H1687 C1671 0.961 . S
H1688 C1672 0.931 . S
H1689 C1677 0.930 . S
H1690 C1678 0.956 . S
H1691 C1678 0.961 . S
H1692 C1678 0.961 . S
H1693 C1679 0.958 . S
H1694 C1679 0.961 . S
H1695 C1679 0.960 . S
C1696 C1697 1.391 . S
C1696 C1698 1.394 . S
C1696 H1712 0.931 . S
C1697 C1696 1.391 . S
C1697 C1701 1.376 . S
C1698 C1696 1.394 . S
C1698 C1699 1.369 . S
C1698 C1702 1.531 . S
C1699 C1698 1.369 . S
C1699 C1700 1.410 . S
C1699 C1707 1.503 . S
C1700 C1699 1.410 . S
C1700 C1701 1.392 . S
C1700 C1703 1.511 . S
C1701 C1697 1.376 . S
C1701 C1700 1.392 . S
C1701 H1713 0.929 . S
C1702 C1698 1.531 . S
C1702 H1714 0.960 . S
C1702 H1715 0.962 . S
C1702 H1716 0.960 . S
C1703 C1700 1.511 . S
C1703 H1717 0.961 . S
C1703 H1718 0.961 . S
C1703 H1719 0.961 . S
C1704 C1705 1.370 . S
C1704 C1706 1.363 . S
C1704 H1720 0.931 . S
C1705 C1704 1.370 . S
C1705 C1709 1.408 . S
C1706 C1704 1.363 . S
C1706 C1707 1.370 . S
C1706 C1710 1.524 . S
C1707 C1699 1.503 . S
C1707 C1706 1.370 . S
C1707 C1708 1.403 . S
C1708 C1707 1.403 . S
C1708 C1709 1.404 . S
C1708 C1711 1.539 . S
C1709 C1705 1.408 . S
C1709 C1708 1.404 . S
C1709 H1721 0.930 . S
C1710 C1706 1.524 . S
C1710 H1722 0.956 . S
C1710 H1723 0.961 . S
C1710 H1724 0.961 . S
C1711 C1708 1.539 . S
C1711 H1725 0.958 . S
C1711 H1726 0.961 . S
C1711 H1727 0.960 . S
H1712 C1696 0.931 . S
H1713 C1701 0.929 . S
H1714 C1702 0.960 . S
H1715 C1702 0.962 . S
H1716 C1702 0.960 . S
H1717 C1703 0.961 . S
H1718 C1703 0.961 . S
H1719 C1703 0.961 . S
H1720 C1704 0.931 . S
H1721 C1709 0.930 . S
H1722 C1710 0.956 . S
H1723 C1710 0.961 . S
H1724 C1710 0.961 . S
H1725 C1711 0.958 . S
H1726 C1711 0.961 . S
H1727 C1711 0.960 . S
C1728 C1729 1.391 . S
C1728 C1730 1.394 . S
C1728 H1744 0.931 . S
C1729 C1728 1.391 . S
C1729 C1733 1.376 . S
C1730 C1728 1.394 . S
C1730 C1731 1.369 . S
C1730 C1734 1.531 . S
C1731 C1730 1.369 . S
C1731 C1732 1.410 . S
C1731 C1739 1.503 . S
C1732 C1731 1.410 . S
C1732 C1733 1.392 . S
C1732 C1735 1.511 . S
C1733 C1729 1.376 . S
C1733 C1732 1.392 . S
C1733 H1745 0.929 . S
C1734 C1730 1.531 . S
C1734 H1746 0.960 . S
C1734 H1747 0.962 . S
C1734 H1748 0.960 . S
C1735 C1732 1.511 . S
C1735 H1749 0.961 . S
C1735 H1750 0.961 . S
C1735 H1751 0.961 . S
C1736 C1737 1.370 . S
C1736 C1738 1.363 . S
C1736 H1752 0.931 . S
C1737 C1736 1.370 . S
C1737 C1741 1.408 . S
C1738 C1736 1.363 . S
C1738 C1739 1.370 . S
C1738 C1742 1.524 . S
C1739 C1731 1.503 . S
C1739 C1738 1.370 . S
C1739 C1740 1.403 . S
C1740 C1739 1.403 . S
C1740 C1741 1.404 . S
C1740 C1743 1.539 . S
C1741 C1737 1.408 . S
C1741 C1740 1.404 . S
C1741 H1753 0.930 . S
C1742 C1738 1.524 . S
C1742 H1754 0.956 . S
C1742 H1755 0.961 . S
C1742 H1756 0.961 . S
C1743 C1740 1.539 . S
C1743 H1757 0.958 . S
C1743 H1758 0.961 . S
C1743 H1759 0.960 . S
H1744 C1728 0.931 . S
H1745 C1733 0.929 . S
H1746 C1734 0.960 . S
H1747 C1734 0.962 . S
H1748 C1734 0.960 . S
H1749 C1735 0.961 . S
H1750 C1735 0.961 . S
H1751 C1735 0.961 . S
H1752 C1736 0.931 . S
H1753 C1741 0.930 . S
H1754 C1742 0.956 . S
H1755 C1742 0.961 . S
H1756 C1742 0.961 . S
H1757 C1743 0.958 . S
H1758 C1743 0.961 . S
H1759 C1743 0.960 . S
C1760 C1761 1.391 . S
C1760 C1762 1.394 . S
C1760 H1776 0.931 . S
C1761 C1760 1.391 . S
C1761 C1765 1.376 . S
C1762 C1760 1.394 . S
C1762 C1763 1.369 . S
C1762 C1766 1.531 . S
C1763 C1762 1.369 . S
C1763 C1764 1.410 . S
C1763 C1771 1.503 . S
C1764 C1763 1.410 . S
C1764 C1765 1.392 . S
C1764 C1767 1.511 . S
C1765 C1761 1.376 . S
C1765 C1764 1.392 . S
C1765 H1777 0.929 . S
C1766 C1762 1.531 . S
C1766 H1778 0.960 . S
C1766 H1779 0.962 . S
C1766 H1780 0.960 . S
C1767 C1764 1.511 . S
C1767 H1781 0.961 . S
C1767 H1782 0.961 . S
C1767 H1783 0.961 . S
C1768 C1769 1.370 . S
C1768 C1770 1.363 . S
C1768 H1784 0.931 . S
C1769 C1768 1.370 . S
C1769 C1773 1.408 . S
C1770 C1768 1.363 . S
C1770 C1771 1.370 . S
C1770 C1774 1.524 . S
C1771 C1763 1.503 . S
C1771 C1770 1.370 . S
C1771 C1772 1.403 . S
C1772 C1771 1.403 . S
C1772 C1773 1.404 . S
C1772 C1775 1.539 . S
C1773 C1769 1.408 . S
C1773 C1772 1.404 . S
C1773 H1785 0.930 . S
C1774 C1770 1.524 . S
C1774 H1786 0.956 . S
C1774 H1787 0.961 . S
C1774 H1788 0.961 . S
C1775 C1772 1.539 . S
C1775 H1789 0.958 . S
C1775 H1790 0.961 . S
C1775 H1791 0.960 . S
H1776 C1760 0.931 . S
H1777 C1765 0.929 . S
H1778 C1766 0.960 . S
H1779 C1766 0.962 . S
H1780 C1766 0.960 . S
H1781 C1767 0.961 . S
H1782 C1767 0.961 . S
H1783 C1767 0.961 . S
H1784 C1768 0.931 . S
H1785 C1773 0.930 . S
H1786 C1774 0.956 . S
H1787 C1774 0.961 . S
H1788 C1774 0.961 . S
H1789 C1775 0.958 . S
H1790 C1775 0.961 . S
H1791 C1775 0.960 . S
C1792 C1793 1.391 . S
C1792 C1794 1.394 . S
C1792 H1808 0.931 . S
C1793 C1792 1.391 . S
C1793 C1797 1.376 . S
C1794 C1792 1.394 . S
C1794 C1795 1.369 . S
C1794 C1798 1.531 . S
C1795 C1794 1.369 . S
C1795 C1796 1.410 . S
C1795 C1803 1.503 . S
C1796 C1795 1.410 . S
C1796 C1797 1.392 . S
C1796 C1799 1.511 . S
C1797 C1793 1.376 . S
C1797 C1796 1.392 . S
C1797 H1809 0.929 . S
C1798 C1794 1.531 . S
C1798 H1810 0.960 . S
C1798 H1811 0.962 . S
C1798 H1812 0.960 . S
C1799 C1796 1.511 . S
C1799 H1813 0.961 . S
C1799 H1814 0.961 . S
C1799 H1815 0.961 . S
C1800 C1801 1.370 . S
C1800 C1802 1.363 1_556 S
C1800 H1816 0.931 . S
C1801 C1800 1.370 . S
C1801 C1805 1.408 1_556 S
C1802 C1800 1.363 1_554 S
C1802 C1803 1.370 . S
C1802 C1806 1.524 . S
C1803 C1795 1.503 . S
C1803 C1802 1.370 . S
C1803 C1804 1.403 . S
C1804 C1803 1.403 . S
C1804 C1805 1.404 . S
C1804 C1807 1.539 . S
C1805 C1801 1.408 1_554 S
C1805 C1804 1.404 . S
C1805 H1817 0.930 . S
C1806 C1802 1.524 . S
C1806 H1818 0.956 . S
C1806 H1819 0.961 . S
C1806 H1820 0.961 1_554 S
C1807 C1804 1.539 . S
C1807 H1821 0.958 . S
C1807 H1822 0.961 . S
C1807 H1823 0.960 . S
H1808 C1792 0.931 . S
H1809 C1797 0.929 . S
H1810 C1798 0.960 . S
H1811 C1798 0.962 . S
H1812 C1798 0.960 . S
H1813 C1799 0.961 . S
H1814 C1799 0.961 . S
H1815 C1799 0.961 . S
H1816 C1800 0.931 . S
H1817 C1805 0.930 . S
H1818 C1806 0.956 . S
H1819 C1806 0.961 . S
H1820 C1806 0.961 1_556 S
H1821 C1807 0.958 . S
H1822 C1807 0.961 . S
H1823 C1807 0.960 . S
C1824 C1825 1.391 . S
C1824 C1826 1.394 . S
C1824 H1840 0.931 . S
C1825 C1824 1.391 . S
C1825 C1829 1.376 . S
C1826 C1824 1.394 . S
C1826 C1827 1.369 . S
C1826 C1830 1.531 . S
C1827 C1826 1.369 . S
C1827 C1828 1.410 . S
C1827 C1835 1.503 . S
C1828 C1827 1.410 . S
C1828 C1829 1.392 . S
C1828 C1831 1.511 . S
C1829 C1825 1.376 . S
C1829 C1828 1.392 . S
C1829 H1841 0.929 . S
C1830 C1826 1.531 . S
C1830 H1842 0.960 . S
C1830 H1843 0.962 . S
C1830 H1844 0.960 . S
C1831 C1828 1.511 . S
C1831 H1845 0.961 . S
C1831 H1846 0.961 . S
C1831 H1847 0.961 . S
C1832 C1833 1.370 . S
C1832 C1834 1.363 . S
C1832 H1848 0.931 . S
C1833 C1832 1.370 . S
C1833 C1837 1.408 . S
C1834 C1832 1.363 . S
C1834 C1835 1.370 . S
C1834 C1838 1.524 . S
C1835 C1827 1.503 . S
C1835 C1834 1.370 . S
C1835 C1836 1.403 . S
C1836 C1835 1.403 . S
C1836 C1837 1.404 . S
C1836 C1839 1.539 . S
C1837 C1833 1.408 . S
C1837 C1836 1.404 . S
C1837 H1849 0.930 . S
C1838 C1834 1.524 . S
C1838 H1850 0.956 . S
C1838 H1851 0.961 . S
C1838 H1852 0.961 . S
C1839 C1836 1.539 . S
C1839 H1853 0.958 . S
C1839 H1854 0.961 . S
C1839 H1855 0.960 . S
H1840 C1824 0.931 . S
H1841 C1829 0.929 . S
H1842 C1830 0.960 . S
H1843 C1830 0.962 . S
H1844 C1830 0.960 . S
H1845 C1831 0.961 . S
H1846 C1831 0.961 . S
H1847 C1831 0.961 . S
H1848 C1832 0.931 . S
H1849 C1837 0.930 . S
H1850 C1838 0.956 . S
H1851 C1838 0.961 . S
H1852 C1838 0.961 . S
H1853 C1839 0.958 . S
H1854 C1839 0.961 . S
H1855 C1839 0.960 . S
C1856 C1857 1.391 . S
C1856 C1858 1.394 . S
C1856 H1872 0.931 . S
C1857 C1856 1.391 . S
C1857 C1861 1.376 . S
C1858 C1856 1.394 . S
C1858 C1859 1.369 . S
C1858 C1862 1.531 . S
C1859 C1858 1.369 . S
C1859 C1860 1.410 . S
C1859 C1867 1.503 . S
C1860 C1859 1.410 . S
C1860 C1861 1.392 . S
C1860 C1863 1.511 . S
C1861 C1857 1.376 . S
C1861 C1860 1.392 . S
C1861 H1873 0.929 . S
C1862 C1858 1.531 . S
C1862 H1874 0.960 . S
C1862 H1875 0.962 . S
C1862 H1876 0.960 . S
C1863 C1860 1.511 . S
C1863 H1877 0.961 . S
C1863 H1878 0.961 . S
C1863 H1879 0.961 . S
C1864 C1865 1.370 . S
C1864 C1866 1.363 . S
C1864 H1880 0.931 . S
C1865 C1864 1.370 . S
C1865 C1869 1.408 . S
C1866 C1864 1.363 . S
C1866 C1867 1.370 . S
C1866 C1870 1.524 . S
C1867 C1859 1.503 . S
C1867 C1866 1.370 . S
C1867 C1868 1.403 . S
C1868 C1867 1.403 . S
C1868 C1869 1.404 . S
C1868 C1871 1.539 . S
C1869 C1865 1.408 . S
C1869 C1868 1.404 . S
C1869 H1881 0.930 . S
C1870 C1866 1.524 . S
C1870 H1882 0.956 . S
C1870 H1883 0.961 . S
C1870 H1884 0.961 . S
C1871 C1868 1.539 . S
C1871 H1885 0.958 . S
C1871 H1886 0.961 . S
C1871 H1887 0.960 . S
H1872 C1856 0.931 . S
H1873 C1861 0.929 . S
H1874 C1862 0.960 . S
H1875 C1862 0.962 . S
H1876 C1862 0.960 . S
H1877 C1863 0.961 . S
H1878 C1863 0.961 . S
H1879 C1863 0.961 . S
H1880 C1864 0.931 . S
H1881 C1869 0.930 . S
H1882 C1870 0.956 . S
H1883 C1870 0.961 . S
H1884 C1870 0.961 . S
H1885 C1871 0.958 . S
H1886 C1871 0.961 . S
H1887 C1871 0.960 . S
C1888 C1889 1.391 . S
C1888 C1890 1.394 . S
C1888 H1904 0.931 . S
C1889 C1888 1.391 . S
C1889 C1893 1.376 . S
C1890 C1888 1.394 . S
C1890 C1891 1.369 . S
C1890 C1894 1.531 . S
C1891 C1890 1.369 . S
C1891 C1892 1.410 . S
C1891 C1899 1.503 . S
C1892 C1891 1.410 . S
C1892 C1893 1.392 . S
C1892 C1895 1.511 . S
C1893 C1889 1.376 . S
C1893 C1892 1.392 . S
C1893 H1905 0.929 . S
C1894 C1890 1.531 . S
C1894 H1906 0.960 . S
C1894 H1907 0.962 . S
C1894 H1908 0.960 . S
C1895 C1892 1.511 . S
C1895 H1909 0.961 . S
C1895 H1910 0.961 . S
C1895 H1911 0.961 . S
C1896 C1897 1.370 . S
C1896 C1898 1.363 . S
C1896 H1912 0.931 . S
C1897 C1896 1.370 . S
C1897 C1901 1.408 . S
C1898 C1896 1.363 . S
C1898 C1899 1.370 . S
C1898 C1902 1.524 . S
C1899 C1891 1.503 . S
C1899 C1898 1.370 . S
C1899 C1900 1.403 . S
C1900 C1899 1.403 . S
C1900 C1901 1.404 . S
C1900 C1903 1.539 . S
C1901 C1897 1.408 . S
C1901 C1900 1.404 . S
C1901 H1913 0.930 . S
C1902 C1898 1.524 . S
C1902 H1914 0.956 . S
C1902 H1915 0.961 . S
C1902 H1916 0.961 . S
C1903 C1900 1.539 . S
C1903 H1917 0.958 . S
C1903 H1918 0.961 . S
C1903 H1919 0.960 . S
H1904 C1888 0.931 . S
H1905 C1893 0.929 . S
H1906 C1894 0.960 . S
H1907 C1894 0.962 . S
H1908 C1894 0.960 . S
H1909 C1895 0.961 . S
H1910 C1895 0.961 . S
H1911 C1895 0.961 . S
H1912 C1896 0.931 . S
H1913 C1901 0.930 . S
H1914 C1902 0.956 . S
H1915 C1902 0.961 . S
H1916 C1902 0.961 . S
H1917 C1903 0.958 . S
H1918 C1903 0.961 . S
H1919 C1903 0.960 . S
C1920 C1921 1.391 . S
C1920 C1922 1.394 . S
C1920 H1936 0.931 . S
C1921 C1920 1.391 . S
C1921 C1925 1.376 . S
C1922 C1920 1.394 . S
C1922 C1923 1.369 . S
C1922 C1926 1.531 . S
C1923 C1922 1.369 . S
C1923 C1924 1.410 . S
C1923 C1931 1.503 . S
C1924 C1923 1.410 . S
C1924 C1925 1.392 . S
C1924 C1927 1.511 . S
C1925 C1921 1.376 . S
C1925 C1924 1.392 . S
C1925 H1937 0.929 . S
C1926 C1922 1.531 . S
C1926 H1938 0.960 . S
C1926 H1939 0.962 . S
C1926 H1940 0.960 . S
C1927 C1924 1.511 . S
C1927 H1941 0.961 . S
C1927 H1942 0.961 . S
C1927 H1943 0.961 . S
C1928 C1929 1.370 . S
C1928 C1930 1.363 . S
C1928 H1944 0.931 . S
C1929 C1928 1.370 . S
C1929 C1933 1.408 . S
C1930 C1928 1.363 . S
C1930 C1931 1.370 . S
C1930 C1934 1.524 . S
C1931 C1923 1.503 . S
C1931 C1930 1.370 . S
C1931 C1932 1.403 . S
C1932 C1931 1.403 . S
C1932 C1933 1.404 . S
C1932 C1935 1.539 . S
C1933 C1929 1.408 . S
C1933 C1932 1.404 . S
C1933 H1945 0.930 . S
C1934 C1930 1.524 . S
C1934 H1946 0.956 . S
C1934 H1947 0.961 . S
C1934 H1948 0.961 . S
C1935 C1932 1.539 . S
C1935 H1949 0.958 . S
C1935 H1950 0.961 . S
C1935 H1951 0.960 . S
H1936 C1920 0.931 . S
H1937 C1925 0.929 . S
H1938 C1926 0.960 . S
H1939 C1926 0.962 . S
H1940 C1926 0.960 . S
H1941 C1927 0.961 . S
H1942 C1927 0.961 . S
H1943 C1927 0.961 . S
H1944 C1928 0.931 . S
H1945 C1933 0.930 . S
H1946 C1934 0.956 . S
H1947 C1934 0.961 . S
H1948 C1934 0.961 . S
H1949 C1935 0.958 . S
H1950 C1935 0.961 . S
H1951 C1935 0.960 . S
C1952 C1953 1.391 . S
C1952 C1954 1.394 . S
C1952 H1968 0.931 . S
C1953 C1952 1.391 . S
C1953 C1957 1.376 . S
C1954 C1952 1.394 . S
C1954 C1955 1.369 . S
C1954 C1958 1.531 . S
C1955 C1954 1.369 . S
C1955 C1956 1.410 . S
C1955 C1963 1.503 . S
C1956 C1955 1.410 . S
C1956 C1957 1.392 . S
C1956 C1959 1.511 . S
C1957 C1953 1.376 . S
C1957 C1956 1.392 . S
C1957 H1969 0.929 . S
C1958 C1954 1.531 . S
C1958 H1970 0.960 . S
C1958 H1971 0.962 . S
C1958 H1972 0.960 . S
C1959 C1956 1.511 . S
C1959 H1973 0.961 . S
C1959 H1974 0.961 . S
C1959 H1975 0.961 . S
C1960 C1961 1.370 . S
C1960 C1962 1.363 . S
C1960 H1976 0.931 . S
C1961 C1960 1.370 . S
C1961 C1965 1.408 1_565 S
C1962 C1960 1.363 . S
C1962 C1963 1.370 . S
C1962 C1966 1.524 . S
C1963 C1955 1.503 . S
C1963 C1962 1.370 . S
C1963 C1964 1.403 . S
C1964 C1963 1.403 . S
C1964 C1965 1.404 1_565 S
C1964 C1967 1.539 1_565 S
C1965 C1961 1.408 1_545 S
C1965 C1964 1.404 1_545 S
C1965 H1977 0.930 . S
C1966 C1962 1.524 . S
C1966 H1978 0.956 . S
C1966 H1979 0.961 . S
C1966 H1980 0.961 . S
C1967 C1964 1.539 1_545 S
C1967 H1981 0.958 . S
C1967 H1982 0.961 . S
C1967 H1983 0.960 1_545 S
H1968 C1952 0.931 . S
H1969 C1957 0.929 . S
H1970 C1958 0.960 . S
H1971 C1958 0.962 . S
H1972 C1958 0.960 . S
H1973 C1959 0.961 . S
H1974 C1959 0.961 . S
H1975 C1959 0.961 . S
H1976 C1960 0.931 . S
H1977 C1965 0.930 . S
H1978 C1966 0.956 . S
H1979 C1966 0.961 . S
H1980 C1966 0.961 . S
H1981 C1967 0.958 . S
H1982 C1967 0.961 . S
H1983 C1967 0.960 1_565 S
C1984 C1985 1.391 . S
C1984 C1986 1.394 . S
C1984 H2000 0.931 . S
C1985 C1984 1.391 . S
C1985 C1989 1.376 . S
C1986 C1984 1.394 . S
C1986 C1987 1.369 . S
C1986 C1990 1.531 . S
C1987 C1986 1.369 . S
C1987 C1988 1.410 . S
C1987 C1995 1.503 . S
C1988 C1987 1.410 . S
C1988 C1989 1.392 . S
C1988 C1991 1.511 . S
C1989 C1985 1.376 . S
C1989 C1988 1.392 . S
C1989 H2001 0.929 . S
C1990 C1986 1.531 . S
C1990 H2002 0.960 . S
C1990 H2003 0.962 . S
C1990 H2004 0.960 . S
C1991 C1988 1.511 . S
C1991 H2005 0.961 . S
C1991 H2006 0.961 . S
C1991 H2007 0.961 . S
C1992 C1993 1.370 . S
C1992 C1994 1.363 1_554 S
C1992 H2008 0.931 . S
C1993 C1992 1.370 . S
C1993 C1997 1.408 1_554 S
C1994 C1992 1.363 1_556 S
C1994 C1995 1.370 . S
C1994 C1998 1.524 . S
C1995 C1987 1.503 . S
C1995 C1994 1.370 . S
C1995 C1996 1.403 . S
C1996 C1995 1.403 . S
C1996 C1997 1.404 . S
C1996 C1999 1.539 . S
C1997 C1993 1.408 1_556 S
C1997 C1996 1.404 . S
C1997 H2009 0.930 . S
C1998 C1994 1.524 . S
C1998 H2010 0.956 . S
C1998 H2011 0.961 . S
C1998 H2012 0.961 . S
C1999 C1996 1.539 . S
C1999 H2013 0.958 . S
C1999 H2014 0.961 . S
C1999 H2015 0.960 . S
H2000 C1984 0.931 . S
H2001 C1989 0.929 . S
H2002 C1990 0.960 . S
H2003 C1990 0.962 . S
H2004 C1990 0.960 . S
H2005 C1991 0.961 . S
H2006 C1991 0.961 . S
H2007 C1991 0.961 . S
H2008 C1992 0.931 . S
H2009 C1997 0.930 . S
H2010 C1998 0.956 . S
H2011 C1998 0.961 . S
H2012 C1998 0.961 . S
H2013 C1999 0.958 . S
H2014 C1999 0.961 . S
H2015 C1999 0.960 . S
C2016 C2017 1.391 . S
C2016 C2018 1.394 . S
C2016 H2032 0.931 . S
C2017 C2016 1.391 . S
C2017 C2021 1.376 1_545 S
C2018 C2016 1.394 . S
C2018 C2019 1.369 . S
C2018 C2022 1.531 . S
C2019 C2018 1.369 . S
C2019 C2020 1.410 . S
C2019 C2027 1.503 . S
C2020 C2019 1.410 . S
C2020 C2021 1.392 1_545 S
C2020 C2023 1.511 1_545 S
C2021 C2017 1.376 1_565 S
C2021 C2020 1.392 1_565 S
C2021 H2033 0.929 . S
C2022 C2018 1.531 . S
C2022 H2034 0.960 . S
C2022 H2035 0.962 . S
C2022 H2036 0.960 . S
C2023 C2020 1.511 1_565 S
C2023 H2037 0.961 . S
C2023 H2038 0.961 1_565 S
C2023 H2039 0.961 1_565 S
C2024 C2025 1.370 . S
C2024 C2026 1.363 . S
C2024 H2040 0.931 . S
C2025 C2024 1.370 . S
C2025 C2029 1.408 . S
C2026 C2024 1.363 . S
C2026 C2027 1.370 . S
C2026 C2030 1.524 . S
C2027 C2019 1.503 . S
C2027 C2026 1.370 . S
C2027 C2028 1.403 . S
C2028 C2027 1.403 . S
C2028 C2029 1.404 . S
C2028 C2031 1.539 . S
C2029 C2025 1.408 . S
C2029 C2028 1.404 . S
C2029 H2041 0.930 . S
C2030 C2026 1.524 . S
C2030 H2042 0.956 . S
C2030 H2043 0.961 . S
C2030 H2044 0.961 . S
C2031 C2028 1.539 . S
C2031 H2045 0.958 . S
C2031 H2046 0.961 . S
C2031 H2047 0.960 . S
H2032 C2016 0.931 . S
H2033 C2021 0.929 . S
H2034 C2022 0.960 . S
H2035 C2022 0.962 . S
H2036 C2022 0.960 . S
H2037 C2023 0.961 . S
H2038 C2023 0.961 1_545 S
H2039 C2023 0.961 1_545 S
H2040 C2024 0.931 . S
H2041 C2029 0.930 . S
H2042 C2030 0.956 . S
H2043 C2030 0.961 . S
H2044 C2030 0.961 . S
H2045 C2031 0.958 . S
H2046 C2031 0.961 . S
H2047 C2031 0.960 . S
C2048 C2049 1.391 . S
C2048 C2050 1.394 . S
C2048 H2064 0.931 . S
C2049 C2048 1.391 . S
C2049 C2053 1.376 . S
C2050 C2048 1.394 . S
C2050 C2051 1.369 . S
C2050 C2054 1.531 . S
C2051 C2050 1.369 . S
C2051 C2052 1.410 . S
C2051 C2059 1.503 . S
C2052 C2051 1.410 . S
C2052 C2053 1.392 . S
C2052 C2055 1.511 . S
C2053 C2049 1.376 . S
C2053 C2052 1.392 . S
C2053 H2065 0.929 . S
C2054 C2050 1.531 . S
C2054 H2066 0.960 . S
C2054 H2067 0.962 . S
C2054 H2068 0.960 . S
C2055 C2052 1.511 . S
C2055 H2069 0.961 . S
C2055 H2070 0.961 . S
C2055 H2071 0.961 . S
C2056 C2057 1.370 . S
C2056 C2058 1.363 . S
C2056 H2072 0.931 . S
C2057 C2056 1.370 . S
C2057 C2061 1.408 . S
C2058 C2056 1.363 . S
C2058 C2059 1.370 . S
C2058 C2062 1.524 . S
C2059 C2051 1.503 . S
C2059 C2058 1.370 . S
C2059 C2060 1.403 . S
C2060 C2059 1.403 . S
C2060 C2061 1.404 . S
C2060 C2063 1.539 . S
C2061 C2057 1.408 . S
C2061 C2060 1.404 . S
C2061 H2073 0.930 . S
C2062 C2058 1.524 . S
C2062 H2074 0.956 . S
C2062 H2075 0.961 . S
C2062 H2076 0.961 . S
C2063 C2060 1.539 . S
C2063 H2077 0.958 . S
C2063 H2078 0.961 . S
C2063 H2079 0.960 . S
H2064 C2048 0.931 . S
H2065 C2053 0.929 . S
H2066 C2054 0.960 . S
H2067 C2054 0.962 . S
H2068 C2054 0.960 . S
H2069 C2055 0.961 . S
H2070 C2055 0.961 . S
H2071 C2055 0.961 . S
H2072 C2056 0.931 . S
H2073 C2061 0.930 . S
H2074 C2062 0.956 . S
H2075 C2062 0.961 . S
H2076 C2062 0.961 . S
H2077 C2063 0.958 . S
H2078 C2063 0.961 . S
H2079 C2063 0.960 . S
C2080 C2081 1.391 . S
C2080 C2082 1.394 . S
C2080 H2096 0.931 . S
C2081 C2080 1.391 . S
C2081 C2085 1.376 . S
C2082 C2080 1.394 . S
C2082 C2083 1.369 . S
C2082 C2086 1.531 . S
C2083 C2082 1.369 . S
C2083 C2084 1.410 . S
C2083 C2091 1.503 . S
C2084 C2083 1.410 . S
C2084 C2085 1.392 . S
C2084 C2087 1.511 . S
C2085 C2081 1.376 . S
C2085 C2084 1.392 . S
C2085 H2097 0.929 . S
C2086 C2082 1.531 . S
C2086 H2098 0.960 . S
C2086 H2099 0.962 . S
C2086 H2100 0.960 . S
C2087 C2084 1.511 . S
C2087 H2101 0.961 . S
C2087 H2102 0.961 . S
C2087 H2103 0.961 . S
C2088 C2089 1.370 1_565 S
C2088 C2090 1.363 1_565 S
C2088 H2104 0.931 . S
C2089 C2088 1.370 1_545 S
C2089 C2093 1.408 . S
C2090 C2088 1.363 1_545 S
C2090 C2091 1.370 . S
C2090 C2094 1.524 . S
C2091 C2083 1.503 . S
C2091 C2090 1.370 . S
C2091 C2092 1.403 . S
C2092 C2091 1.403 . S
C2092 C2093 1.404 . S
C2092 C2095 1.539 . S
C2093 C2089 1.408 . S
C2093 C2092 1.404 . S
C2093 H2105 0.930 . S
C2094 C2090 1.524 . S
C2094 H2106 0.956 . S
C2094 H2107 0.961 . S
C2094 H2108 0.961 1_545 S
C2095 C2092 1.539 . S
C2095 H2109 0.958 . S
C2095 H2110 0.961 . S
C2095 H2111 0.960 . S
H2096 C2080 0.931 . S
H2097 C2085 0.929 . S
H2098 C2086 0.960 . S
H2099 C2086 0.962 . S
H2100 C2086 0.960 . S
H2101 C2087 0.961 . S
H2102 C2087 0.961 . S
H2103 C2087 0.961 . S
H2104 C2088 0.931 . S
H2105 C2093 0.930 . S
H2106 C2094 0.956 . S
H2107 C2094 0.961 . S
H2108 C2094 0.961 1_565 S
H2109 C2095 0.958 . S
H2110 C2095 0.961 . S
H2111 C2095 0.960 . S
C2112 C2113 1.391 . S
C2112 C2114 1.394 . S
C2112 H2128 0.931 . S
C2113 C2112 1.391 . S
C2113 C2117 1.376 . S
C2114 C2112 1.394 . S
C2114 C2115 1.369 . S
C2114 C2118 1.531 . S
C2115 C2114 1.369 . S
C2115 C2116 1.410 . S
C2115 C2123 1.503 . S
C2116 C2115 1.410 . S
C2116 C2117 1.392 . S
C2116 C2119 1.511 . S
C2117 C2113 1.376 . S
C2117 C2116 1.392 . S
C2117 H2129 0.929 . S
C2118 C2114 1.531 . S
C2118 H2130 0.960 . S
C2118 H2131 0.962 . S
C2118 H2132 0.960 . S
C2119 C2116 1.511 . S
C2119 H2133 0.961 . S
C2119 H2134 0.961 . S
C2119 H2135 0.961 . S
C2120 C2121 1.370 1_554 S
C2120 C2122 1.363 . S
C2120 H2136 0.931 . S
C2121 C2120 1.370 1_556 S
C2121 C2125 1.408 . S
C2122 C2120 1.363 . S
C2122 C2123 1.370 . S
C2122 C2126 1.524 . S
C2123 C2115 1.503 . S
C2123 C2122 1.370 . S
C2123 C2124 1.403 . S
C2124 C2123 1.403 . S
C2124 C2125 1.404 1_554 S
C2124 C2127 1.539 . S
C2125 C2121 1.408 . S
C2125 C2124 1.404 1_556 S
C2125 H2137 0.930 . S
C2126 C2122 1.524 . S
C2126 H2138 0.956 . S
C2126 H2139 0.961 . S
C2126 H2140 0.961 . S
C2127 C2124 1.539 . S
C2127 H2141 0.958 . S
C2127 H2142 0.961 1_554 S
C2127 H2143 0.960 . S
H2128 C2112 0.931 . S
H2129 C2117 0.929 . S
H2130 C2118 0.960 . S
H2131 C2118 0.962 . S
H2132 C2118 0.960 . S
H2133 C2119 0.961 . S
H2134 C2119 0.961 . S
H2135 C2119 0.961 . S
H2136 C2120 0.931 . S
H2137 C2125 0.930 . S
H2138 C2126 0.956 . S
H2139 C2126 0.961 . S
H2140 C2126 0.961 . S
H2141 C2127 0.958 . S
H2142 C2127 0.961 1_556 S
H2143 C2127 0.960 . S
C2144 C2145 1.391 . S
C2144 C2146 1.394 . S
C2144 H2160 0.931 . S
C2145 C2144 1.391 . S
C2145 C2149 1.376 . S
C2146 C2144 1.394 . S
C2146 C2147 1.369 . S
C2146 C2150 1.531 . S
C2147 C2146 1.369 . S
C2147 C2148 1.410 . S
C2147 C2155 1.503 . S
C2148 C2147 1.410 . S
C2148 C2149 1.392 . S
C2148 C2151 1.511 . S
C2149 C2145 1.376 . S
C2149 C2148 1.392 . S
C2149 H2161 0.929 . S
C2150 C2146 1.531 . S
C2150 H2162 0.960 . S
C2150 H2163 0.962 . S
C2150 H2164 0.960 . S
C2151 C2148 1.511 . S
C2151 H2165 0.961 . S
C2151 H2166 0.961 . S
C2151 H2167 0.961 . S
C2152 C2153 1.367 1_545 S
C2152 C2154 1.352 1_545 S
C2152 H2168 0.945 . S
C2153 C2152 1.367 1_565 S
C2153 C2157 1.408 . S
C2154 C2152 1.352 1_565 S
C2154 C2155 1.370 . S
C2154 C2158 1.524 . S
C2155 C2147 1.503 . S
C2155 C2154 1.370 . S
C2155 C2156 1.403 . S
C2156 C2155 1.403 . S
C2156 C2157 1.404 . S
C2156 C2159 1.539 . S
C2157 C2153 1.408 . S
C2157 C2156 1.404 . S
C2157 H2169 0.930 . S
C2158 C2154 1.524 . S
C2158 H2170 0.956 . S
C2158 H2171 0.961 . S
C2158 H2172 0.961 1_565 S
C2159 C2156 1.539 . S
C2159 H2173 0.958 . S
C2159 H2174 0.961 . S
C2159 H2175 0.960 . S
H2160 C2144 0.931 . S
H2161 C2149 0.929 . S
H2162 C2150 0.960 . S
H2163 C2150 0.962 . S
H2164 C2150 0.960 . S
H2165 C2151 0.961 . S
H2166 C2151 0.961 . S
H2167 C2151 0.961 . S
H2168 C2152 0.945 . S
H2169 C2157 0.930 . S
H2170 C2158 0.956 . S
H2171 C2158 0.961 . S
H2172 C2158 0.961 1_545 S
H2173 C2159 0.958 . S
H2174 C2159 0.961 . S
H2175 C2159 0.960 . S
C641 C17 2.699 . S
C649 C417 2.704 . S
C673 C57 2.715 . S
C681 C457 2.705 . S
C705 C97 2.694 . S
C713 C337 2.713 . S
C737 C377 2.690 . S
C745 C137 2.709 . S
C769 C162 2.692 . S
C777 C562 2.709 . S
C801 C602 2.712 . S
C809 C202 2.707 . S
C833 C482 2.689 . S
C841 C242 2.711 . S
C865 C282 2.707 . S
C873 C522 2.709 . S
C897 C29 0.864 1_565 S
C905 C168 0.943 1_545 S
C929 C69 0.988 . S
C937 C528 0.899 . S
C961 C109 0.989 1_545 S
C969 C248 0.898 1_565 S
C993 C149 0.926 . S
C1001 C608 0.917 . S
C1025 C208 0.912 . S
C1033 C389 0.923 . S
C1057 C469 0.840 . S
C1065 C288 0.955 . S
C1089 C488 0.965 . S
C1097 C349 0.911 . S
C1121 C429 0.984 . S
C1129 C568 0.894 . S
C1153 C8 0.997 . S
C1161 C297 1.190 . S
C1185 C48 1.099 . S
C1193 C497 1.173 . S
C1217 C88 1.038 . S
C1225 C217 1.170 . S
C1249 C128 0.960 . S
C1257 C577 1.191 . S
C1281 C122 1.180 . S
C1289 C189 1.008 . S
C1313 C229 1.063 . S
C1321 C322 1.165 . S
C1345 C269 0.959 . S
C1353 C42 1.183 . S
C1377 C402 1.207 . S
C1385 C309 1.014 . S
C1409 C328 1.090 . S
C1417 C617 1.164 1_565 S
C1441 C177 1.143 . S
C1449 C368 1.059 . S
C1473 C537 1.194 1_545 S
C1481 C408 1.038 . S
C1505 C257 1.202 . S
C1513 C448 1.026 . S
C1537 C509 0.959 . S
C1545 C442 1.183 1_545 S
C1569 C549 1.100 . S
C1577 C2 1.177 . S
C1601 C362 1.178 1_565 S
C1609 C589 1.062 . S
C1633 C629 1.098 . S
C1641 C82 1.165 . S
C1665 C12 4.035 . S
C1673 C391 3.997 . S
C1697 C431 3.973 . S
C1705 C52 4.056 . S
C1729 C92 4.054 . S
C1737 C471 3.986 . S
C1761 C351 3.999 . S
C1769 C132 4.048 . S
C1793 C532 3.972 . S
C1801 C191 4.056 . S
C1825 C572 3.983 . S
C1833 C231 4.051 . S
C1857 C612 3.992 . S
C1865 C271 4.051 . S
C1889 C492 3.994 . S
C1897 C311 4.050 . S
C1921 C71 3.983 . S
C1929 C332 4.053 . S
C1953 C111 3.971 . S
C1961 C372 4.056 1_565 S
C1985 C151 3.976 . S
C1993 C412 4.055 . S
C2017 C452 4.046 1_545 S
C2025 C31 3.991 . S
C2049 C212 3.977 . S
C2057 C511 4.056 . S
C2081 C252 3.997 . S
C2089 C551 4.049 1_545 S
C2113 C292 3.994 . S
C2121 C591 4.048 . S
C2145 C172 3.997 . S
C2153 C631 4.048 1_565 S
