# Generated by pormake.
# Topology tfs, (6)-cn, num edge types: 1
# Building blocks:
#     Node 0, Type 0, BuildingBlock: BETDIP_clean_sbu_0, # of connection points: 6
#     Node 1, Type 0, BuildingBlock: BETDIP_clean_sbu_0, # of connection points: 6
#     Node 2, Type 0, BuildingBlock: BETDIP_clean_sbu_0, # of connection points: 6
#     Node 3, Type 0, BuildingBlock: BETDIP_clean_sbu_0, # of connection points: 6
#     Node 4, Type 0, BuildingBlock: BETDIP_clean_sbu_0, # of connection points: 6
#     Node 5, Type 0, BuildingBlock: BETDIP_clean_sbu_0, # of connection points: 6
#     Edge 6, Type (0, 0), BuildingBlock: CIFDUS_clean_linker_0, # of connection points: 2
#     Edge 7, Type (0, 0), BuildingBlock: CIFDUS_clean_linker_0, # of connection points: 2
#     Edge 8, Type (0, 0), BuildingBlock: CIFDUS_clean_linker_0, # of connection points: 2
#     Edge 9, Type (0, 0), BuildingBlock: CIFDUS_clean_linker_0, # of connection points: 2
#     Edge 10, Type (0, 0), BuildingBlock: CIFDUS_clean_linker_0, # of connection points: 2
#     Edge 11, Type (0, 0), BuildingBlock: CIFDUS_clean_linker_0, # of connection points: 2
#     Edge 12, Type (0, 0), BuildingBlock: CIFDUS_clean_linker_0, # of connection points: 2
#     Edge 13, Type (0, 0), BuildingBlock: CIFDUS_clean_linker_0, # of connection points: 2
#     Edge 14, Type (0, 0), BuildingBlock: CIFDUS_clean_linker_0, # of connection points: 2
#     Edge 15, Type (0, 0), BuildingBlock: CIFDUS_clean_linker_0, # of connection points: 2
#     Edge 16, Type (0, 0), BuildingBlock: CIFDUS_clean_linker_0, # of connection points: 2
#     Edge 17, Type (0, 0), BuildingBlock: CIFDUS_clean_linker_0, # of connection points: 2
#     Edge 18, Type (0, 0), BuildingBlock: CIFDUS_clean_linker_0, # of connection points: 2
#     Edge 19, Type (0, 0), BuildingBlock: CIFDUS_clean_linker_0, # of connection points: 2
#     Edge 20, Type (0, 0), BuildingBlock: CIFDUS_clean_linker_0, # of connection points: 2
#     Edge 21, Type (0, 0), BuildingBlock: CIFDUS_clean_linker_0, # of connection points: 2
#     Edge 22, Type (0, 0), BuildingBlock: CIFDUS_clean_linker_0, # of connection points: 2
#     Edge 23, Type (0, 0), BuildingBlock: CIFDUS_clean_linker_0, # of connection points: 2
# Relax obj value: 0.594
# Max RMSD: 0.302
# Mean RMSD: 0.302
data_MOF--net-tfs--node1-BETDIP_clean_sbu_0--edge1-CIFDUS_clean_linker_0
_symmetry_space_group_name_H-M    P1
_symmetry_Int_Tables_number       1
_symmetry_cell_setting            triclinic
loop_
_symmetry_equiv_pos_as_xyz
'x, y, z'
_cell_length_a     50.10342
_cell_length_b     50.107116
_cell_length_c     12.499981
_cell_angle_alpha  89.929357
_cell_angle_beta   90.029932
_cell_angle_gamma 120.02208
loop_
_atom_site_label
_atom_site_type_symbol
_atom_site_fract_x
_atom_site_fract_y
_atom_site_fract_z
_atom_type_partial_charge
Tb0 Tb 0.17578 0.45507 0.04868 0.0
Tb1 Tb 0.18938 0.40546 1.01034 0.0
C2 C 0.15664 0.49103 0.10346 0.0
C3 C 0.16551 0.52349 0.0859 0.0
C4 C 0.1457 0.53388 0.12045 0.0
C5 C 0.15302 0.56432 0.1019 0.0
C6 C 0.18036 0.58506 0.04814 0.0
C7 C 0.20038 0.57459 1.01455 0.0
C8 C 0.19298 0.54402 0.03305 0.0
C9 C 0.18847 0.44978 0.84553 0.0
C10 C 0.24484 0.47482 0.04999 0.0
C11 C 0.20621 0.36918 0.93654 0.0
C12 C 0.22717 0.35661 0.95325 0.0
C13 C 0.21438 0.32447 0.95583 0.0
C14 C 0.2332 0.3113 0.96321 0.0
C15 C 0.26548 0.32992 0.96785 0.0
C16 C 0.27832 0.36222 0.96714 0.0
C17 C 0.25938 0.37545 0.95964 0.0
C18 C 0.17871 0.41084 0.21605 0.0
C19 C 0.12137 0.38803 0.02504 0.0
O20 O 0.17539 0.48592 0.16138 0.0
O21 O 0.14676 0.47323 0.0193 0.0
O22 O 0.17239 0.42792 0.90898 0.0
O23 O 0.1969 0.4755 0.8945 0.0
O24 O 0.22432 0.48268 0.07714 0.0
O25 O 0.23645 0.44652 0.01621 0.0
O26 O 0.18401 0.36115 1.00595 0.0
O27 O 0.21783 0.39785 0.9055 0.0
O28 O 0.19307 0.43253 0.15026 0.0
O29 O 0.17246 0.38543 0.16902 0.0
O30 O 0.14047 0.38293 0.96742 0.0
O31 O 0.13238 0.41325 0.08309 0.0
H32 H 0.12443 0.51836 0.16151 0.0
H33 H 0.13732 0.57168 0.13047 0.0
H34 H 0.22148 0.58984 0.97219 0.0
H35 H 0.20851 0.53633 1.0054 0.0
H36 H 0.18964 0.30941 0.95056 0.0
H37 H 0.22238 0.28642 0.96542 0.0
H38 H 0.30307 0.37732 0.96969 0.0
H39 H 0.26996 0.40031 0.95722 0.0
Tb40 Tb 0.72379 0.1693 0.01982 0.0
Tb41 Tb 0.79152 0.19129 0.98943 0.0
C42 C 0.67222 0.15884 0.08896 0.0
C43 C 0.65189 0.17244 0.08393 0.0
C44 C 0.65756 0.19801 0.14684 0.0
C45 C 0.63688 0.20913 0.14626 0.0
C46 C 0.61004 0.19493 0.08299 0.0
C47 C 0.60469 0.16963 0.0191 0.0
C48 C 0.62526 0.15845 0.02006 0.0
C49 C 0.74223 0.17659 0.81862 0.0
C50 C 0.77343 0.24188 0.02695 0.0
C51 C 0.84377 0.20194 0.92586 0.0
C52 C 0.87702 0.22513 0.93184 0.0
C53 C 0.89474 0.23315 0.83798 0.0
C54 C 0.92674 0.25265 0.84177 0.0
C55 C 0.94188 0.26454 0.93985 0.0
C56 C 0.92393 0.257 0.0337 0.0
C57 C 0.89187 0.23752 0.02978 0.0
C58 C 0.77277 0.18531 0.18928 0.0
C59 C 0.74119 0.11952 0.98261 0.0
O60 O 0.69791 0.17365 0.14357 0.0
O61 O 0.67587 0.14728 0.99999 0.0
O62 O 0.75698 0.19325 0.89657 0.0
O63 O 0.71482 0.15648 0.85032 0.0
O64 O 0.74492 0.21913 0.04488 0.0
O65 O 0.79571 0.23675 0.9949 0.0
O66 O 0.83042 0.18671 1.01333 0.0
O67 O 0.82605 0.20921 0.87092 0.0
O68 O 0.7584 0.16766 0.11267 0.0
O69 O 0.79987 0.20628 0.15685 0.0
O70 O 0.76724 0.14205 0.94153 0.0
O71 O 0.72271 0.1259 0.03821 0.0
H72 H 0.67769 0.20917 0.19789 0.0
H73 H 0.64158 0.22842 0.19748 0.0
H74 H 0.58458 0.15842 0.96802 0.0
H75 H 0.6201 0.13856 0.97139 0.0
H76 H 0.88384 0.22383 0.76154 0.0
H77 H 0.93962 0.25834 0.76764 0.0
H78 H 0.93473 0.26544 0.11082 0.0
H79 H 0.87883 0.23166 0.10363 0.0
Tb80 Tb 0.55825 0.72237 0.03685 0.0
Tb81 Tb 0.6016 0.78755 0.9981 0.0
C82 C 0.51816 0.66989 0.10395 0.0
C83 C 0.48666 0.64492 0.07953 0.0
C84 C 0.48008 0.61426 0.08645 0.0
C85 C 0.45019 0.58987 0.06861 0.0
C86 C 0.42619 0.59568 0.04404 0.0
C87 C 0.43301 0.6265 0.03471 0.0
C88 C 0.46299 0.65091 0.05203 0.0
C89 C 0.57394 0.73542 0.83149 0.0
C90 C 0.5322 0.76863 1.00801 0.0
C91 C 0.64366 0.83995 0.93679 0.0
C92 C 0.65195 0.87266 0.945 0.0
C93 C 0.6296 0.88173 0.94094 0.0
C94 C 0.63832 0.91297 0.94859 0.0
C95 C 0.66955 0.93582 0.96115 0.0
C96 C 0.69177 0.92649 0.96511 0.0
C97 C 0.68305 0.8953 0.95699 0.0
C98 C 0.58429 0.7743 0.20159 0.0
C99 C 0.62577 0.74105 0.03266 0.0
O100 O 0.5215 0.69581 0.14122 0.0
O101 O 0.53934 0.67438 0.03395 0.0
O102 O 0.56893 0.75158 0.89675 0.0
O103 O 0.56804 0.7102 0.87919 0.0
O104 O 0.52685 0.7409 0.03613 0.0
O105 O 0.56008 0.79079 0.98052 0.0
O106 O 0.6449 0.82676 0.0254 0.0
O107 O 0.61952 0.82172 0.87899 0.0
O108 O 0.59045 0.75849 0.13828 0.0
O109 O 0.58939 0.79917 0.15248 0.0
O110 O 0.62869 0.76413 0.97259 0.0
O111 O 0.60062 0.72528 0.08986 0.0
H112 H 0.49805 0.60916 0.10747 0.0
H113 H 0.44568 0.56647 0.0774 0.0
H114 H 0.4151 0.63174 1.01451 0.0
H115 H 0.46755 0.67437 0.04513 0.0
H116 H 0.60543 0.86471 0.93181 0.0
H117 H 0.62056 0.91922 0.94385 0.0
H118 H 0.71592 0.94323 0.97649 0.0
H119 H 0.70067 0.88882 0.96068 0.0
Tb120 Tb 0.83746 0.55761 0.99673 0.0
Tb121 Tb 0.81939 0.60658 0.96782 0.0
C122 C 0.84656 0.51554 0.06553 0.0
C123 C 0.83604 0.48246 0.04914 0.0
C124 C 0.82665 0.46257 0.13775 0.0
C125 C 0.82011 0.43207 0.1268 0.0
C126 C 0.82308 0.42088 0.02696 0.0
C127 C 0.83167 0.44058 0.93766 0.0
C128 C 0.83799 0.47101 0.94849 0.0
C129 C 0.83135 0.56987 0.79575 0.0
C130 C 0.7658 0.53885 1.00268 0.0
C131 C 0.81095 0.64986 0.90741 0.0
C132 C 0.78863 0.66097 0.91819 0.0
C133 C 0.77597 0.66614 0.82565 0.0
C134 C 0.75684 0.67902 0.83242 0.0
C135 C 0.75 0.68724 0.93209 0.0
C136 C 0.76238 0.68162 0.02499 0.0
C137 C 0.78145 0.66863 0.01817 0.0
C138 C 0.8237 0.59204 0.16707 0.0
C139 C 0.8897 0.62443 0.96183 0.0
O140 O 0.82732 0.52267 0.11046 0.0
O141 O 0.86226 0.53438 0.98769 0.0
O142 O 0.81538 0.56933 0.87388 0.0
O143 O 0.84938 0.55986 0.82683 0.0
O144 O 0.78707 0.53082 0.01897 0.0
O145 O 0.77304 0.56714 0.9736 0.0
O146 O 0.82694 0.65119 0.99221 0.0
O147 O 0.80218 0.62463 0.85206 0.0
O148 O 0.84109 0.59448 0.09075 0.0
O149 O 0.80425 0.60026 0.13504 0.0
O150 O 0.86825 0.62926 0.91913 0.0
O151 O 0.8818 0.59922 0.01802 0.0
H152 H 0.82524 0.4709 0.21632 0.0
H153 H 0.81378 0.41758 0.19732 0.0
H154 H 0.83372 0.43253 0.85939 0.0
H155 H 0.84512 0.48572 0.87844 0.0
H156 H 0.78124 0.6606 0.74754 0.0
H157 H 0.74735 0.68246 0.75929 0.0
H158 H 0.75797 0.68793 0.10305 0.0
H159 H 0.79097 0.66514 0.09113 0.0
Tb160 Tb 0.28779 0.83911 0.02418 0.0
Tb161 Tb 0.22227 0.81582 0.98358 0.0
C162 C 0.33968 0.85098 0.09651 0.0
C163 C 0.36362 0.84259 0.07806 0.0
C164 C 0.39352 0.86238 0.11562 0.0
C165 C 0.41709 0.8557 0.09762 0.0
C166 C 0.41127 0.829 0.04149 0.0
C167 C 0.38111 0.80901 1.00438 0.0
C168 C 0.35748 0.81582 0.02216 0.0
C169 C 0.27505 0.8407 0.81811 0.0
C170 C 0.24215 0.76631 0.99784 0.0
C171 C 0.16954 0.80376 0.91987 0.0
C172 C 0.13711 0.77875 0.92927 0.0
C173 C 0.11644 0.77407 0.84607 0.0
C174 C 0.08526 0.75155 0.85487 0.0
C175 C 0.07399 0.73319 0.94749 0.0
C176 C 0.09497 0.73775 0.03035 0.0
C177 C 0.1262 0.76022 0.02123 0.0
C178 C 0.23557 0.81314 0.18798 0.0
C179 C 0.26792 0.88736 1.00859 0.0
O180 O 0.31336 0.82973 0.13615 0.0
O181 O 0.33597 0.86667 0.02034 0.0
O182 O 0.25884 0.81963 0.88412 0.0
O183 O 0.30023 0.86028 0.86544 0.0
O184 O 0.26982 0.78913 0.02453 0.0
O185 O 0.21973 0.77147 0.96953 0.0
O186 O 0.18265 0.81918 1.00708 0.0
O187 O 0.18804 0.7978 0.86413 0.0
O188 O 0.25119 0.83497 0.1236 0.0
O189 O 0.21091 0.79282 0.13937 0.0
O190 O 0.24441 0.86583 0.95373 0.0
O191 O 0.28535 0.87987 0.06553 0.0
H192 H 0.39869 0.88315 0.15894 0.0
H193 H 0.43985 0.87134 0.12885 0.0
H194 H 0.37588 0.78839 0.96015 0.0
H195 H 0.33456 0.80035 0.99182 0.0
H196 H 0.12439 0.78806 0.77428 0.0
H197 H 0.07003 0.74841 0.78861 0.0
H198 H 0.08719 0.72436 0.10336 0.0
H199 H 0.14172 0.76339 0.08662 0.0
Tb200 Tb 0.45458 0.2834 0.07871 0.0
Tb201 Tb 0.40203 0.21752 0.05337 0.0
C202 C 0.49901 0.33328 0.14615 0.0
C203 C 0.53243 0.35353 0.1317 0.0
C204 C 0.54654 0.383 0.17715 0.0
C205 C 0.57783 0.40367 0.16036 0.0
C206 C 0.59577 0.39532 0.09745 0.0
C207 C 0.58165 0.36542 0.05351 0.0
C208 C 0.55015 0.34469 0.07019 0.0
C209 C 0.43947 0.26489 0.87931 0.0
C210 C 0.46892 0.22767 0.07721 0.0
C211 C 0.35748 0.16594 0.99804 0.0
C212 C 0.34954 0.13328 1.0049 0.0
C213 C 0.31848 0.10998 1.00655 0.0
C214 C 0.31036 0.0789 1.01438 0.0
C215 C 0.33318 0.07037 0.02069 0.0
C216 C 0.36438 0.09393 0.01871 0.0
C217 C 0.37246 0.12502 1.01118 0.0
C218 C 0.41941 0.23641 0.2509 0.0
C219 C 0.38867 0.27335 0.0565 0.0
O220 O 0.48963 0.30656 0.19254 0.0
O221 O 0.48177 0.33134 0.06455 0.0
O222 O 0.43963 0.24905 0.95675 0.0
O223 O 0.45124 0.29323 0.90992 0.0
O224 O 0.47892 0.25733 0.09482 0.0
O225 O 0.4399 0.20796 0.05131 0.0
O226 O 0.35858 0.17943 0.08882 0.0
O227 O 0.38029 0.18386 0.93445 0.0
O228 O 0.41739 0.2518 0.17537 0.0
O229 O 0.4094 0.20836 0.21915 0.0
O230 O 0.38066 0.24597 1.0145 0.0
O231 O 0.41522 0.28932 0.10712 0.0
H232 H 0.53321 0.3902 0.22492 0.0
H233 H 0.58802 0.42625 0.19698 0.0
H234 H 0.59475 0.35831 1.0042 0.0
H235 H 0.53957 0.32203 0.03402 0.0
H236 H 0.30041 0.11584 1.00243 0.0
H237 H 0.28615 0.0616 0.01737 0.0
H238 H 0.38265 0.08837 0.02196 0.0
H239 H 0.39661 0.14259 1.01023 0.0
H240 H 0.33539 0.2534 0.93903 0.0
H241 H 0.395 0.32335 0.16399 0.0
H242 H 0.36277 0.34679 0.15615 0.0
H243 H 0.31769 0.348 0.08631 0.0
H244 H 0.2582 0.27916 0.85864 0.0
H245 H 0.28997 0.25488 0.86768 0.0
C246 C 0.34124 0.27368 0.98659 0.0
C247 C 0.36774 0.28646 0.05183 0.0
C248 C 0.32255 0.28742 0.98149 0.0
C249 C 0.37492 0.3129 0.11255 0.0
C250 C 0.35644 0.32645 0.10831 0.0
C251 C 0.31178 0.32787 0.03779 0.0
C252 C 0.28543 0.31552 0.97216 0.0
C253 C 0.33028 0.31404 0.0428 0.0
C254 C 0.27804 0.28904 0.91121 0.0
C255 C 0.29633 0.27517 0.91584 0.0
H256 H 0.08808 0.336 0.90274 0.0
H257 H 0.07805 0.39218 0.14322 0.0
H258 H 0.02236 0.3593 0.13836 0.0
H259 H 0.97609 0.31541 0.06366 0.0
H260 H 0.98521 0.25816 0.82573 0.0
H261 H 0.04125 0.29075 0.8309 0.0
C262 C 0.07372 0.34094 0.95438 0.0
C263 C 0.08745 0.36666 0.023 0.0
C264 C 0.04135 0.32186 0.9512 0.0
C265 C 0.06833 0.37267 0.08923 0.0
C266 C 0.03633 0.35385 0.08662 0.0
C267 C 0.99027 0.30978 1.01372 0.0
C268 C 0.97621 0.28433 0.94418 0.0
C269 C 0.02255 0.32847 0.01764 0.0
C270 C 0.9952 0.27785 0.87888 0.0
C271 C 0.02735 0.29639 0.88228 0.0
H272 H 0.69022 0.06881 0.05928 0.0
H273 H 0.77233 0.09606 0.87228 0.0
H274 H 0.75736 0.04186 0.84815 0.0
H275 H 0.72069 0.9866 0.87947 0.0
H276 H 0.63937 0.96017 0.07045 0.0
H277 H 0.65414 0.01414 0.09182 0.0
C278 C 0.70495 0.06303 1.01316 0.0
C279 C 0.73244 0.08665 0.96777 0.0
C280 C 0.69622 0.03185 0.99964 0.0
C281 C 0.75108 0.07848 0.9083 0.0
C282 C 0.74251 0.04743 0.89439 0.0
C283 C 0.70629 0.9926 0.92657 0.0
C284 C 0.6788 0.96907 0.97283 0.0
C285 C 0.71512 0.0239 0.93978 0.0
C286 C 0.66032 0.97752 0.0322 0.0
C287 C 0.66888 0.00849 0.04528 0.0
H288 H 0.70619 0.67707 0.08186 0.0
H289 H 0.74919 0.73025 0.79746 0.0
H290 H 0.71581 0.75275 0.80533 0.0
H291 H 0.67309 0.75632 0.89062 0.0
H292 H 0.63088 0.70305 0.17575 0.0
H293 H 0.66565 0.68238 0.17109 0.0
C294 C 0.70864 0.6939 0.0223 0.0
C295 C 0.73019 0.70171 0.93891 0.0
C296 C 0.68948 0.70694 0.02756 0.0
C297 C 0.7325 0.72328 0.86163 0.0
C298 C 0.71354 0.73638 0.86646 0.0
C299 C 0.67178 0.74048 0.95236 0.0
C300 C 0.64928 0.73125 0.03318 0.0
C301 C 0.69175 0.72824 0.94869 0.0
C302 C 0.6478 0.7105 0.11215 0.0
C303 C 0.66769 0.69857 0.10961 0.0
H304 H 0.02393 0.73719 0.88116 0.0
H305 H 0.04853 0.67554 0.03684 0.0
H306 H 0.99414 0.63701 0.05616 0.0
H307 H 0.93949 0.62048 0.02818 0.0
H308 H 0.91475 0.6814 0.86792 0.0
H309 H 0.96921 0.72019 0.84964 0.0
C310 C 0.01749 0.71521 0.91825 0.0
C311 C 0.04056 0.70949 0.9577 0.0
C312 C 0.98604 0.6929 0.92814 0.0
C313 C 0.03148 0.68095 1.00718 0.0
C314 C 1.00029 0.65874 0.01766 0.0
C315 C 0.94594 0.64223 0.9892 0.0
C316 C 0.92289 0.64792 0.94969 0.0
C317 C 0.97737 0.66446 0.97859 0.0
C318 C 0.93186 0.67627 0.89911 0.0
C319 C 0.96307 0.69853 0.88867 0.0
H320 H 0.31454 0.93728 0.10997 0.0
H321 H 0.23841 0.91138 0.89305 0.0
H322 H 0.2517 0.96524 0.87778 0.0
H323 H 0.28562 0.01999 0.92259 0.0
H324 H 0.36112 0.04567 0.14237 0.0
H325 H 0.34764 0.99184 0.15824 0.0
C326 C 0.30075 0.94334 0.05957 0.0
C327 C 0.27546 0.92012 1.00277 0.0
C328 C 0.30857 0.97448 0.05082 0.0
C329 C 0.25795 0.9286 0.93789 0.0
C330 C 0.26558 0.95949 0.9289 0.0
C331 C 0.29898 0.01386 0.97493 0.0
C332 C 0.32452 0.03717 0.0307 0.0
C333 C 0.29092 0.98267 0.98466 0.0
C334 C 0.34171 0.02853 0.0968 0.0
C335 C 0.33387 0.99762 0.10665 0.0
H336 H 0.18774 0.71314 0.96244 0.0
H337 H 0.28297 0.74684 0.04605 0.0
H338 H 0.27261 0.69405 0.0653 0.0
H339 H 0.23603 0.63816 0.06624 0.0
H340 H 0.14091 0.60461 0.98239 0.0
H341 H 0.15172 0.65736 0.95637 0.0
C342 C 0.20632 0.70901 0.98413 0.0
C343 C 0.23609 0.73409 1.00288 0.0
C344 C 0.20018 0.67851 0.99597 0.0
C345 C 0.2598 0.72811 0.03117 0.0
C346 C 0.2539 0.69785 0.0424 0.0
C347 C 0.21775 0.64236 0.04098 0.0
C348 C 0.18763 0.61735 0.02718 0.0
C349 C 0.22412 0.67286 0.02603 0.0
C350 C 0.16418 0.62335 0.99551 0.0
C351 C 0.17037 0.65355 0.97999 0.0
H352 H 0.5316 0.2623 0.0893 0.0
H353 H 0.4569 0.1681 0.07199 0.0
H354 H 0.49382 0.14983 0.07366 0.0
H355 H 0.5472 0.16046 0.07978 0.0
H356 H 0.622 0.25465 0.09017 0.0
H357 H 0.58507 0.27293 0.09323 0.0
C358 C 0.52332 0.23775 0.08631 0.0
C359 C 0.49144 0.21664 0.08057 0.0
C360 C 0.54471 0.22735 0.08636 0.0
C361 C 0.48126 0.18492 0.07613 0.0
C362 C 0.50238 0.17442 0.07716 0.0
C363 C 0.55551 0.18502 0.08147 0.0
C364 C 0.58745 0.20609 0.08461 0.0
C365 C 0.53415 0.19542 0.08179 0.0
C366 C 0.59762 0.23783 0.08908 0.0
C367 C 0.5765 0.24834 0.09017 0.0
H368 H 0.37492 0.5922 0.12896 0.0
H369 H 0.40511 0.54062 0.93826 0.0
H370 H 0.35191 0.4978 0.92603 0.0
H371 H 0.29619 0.47539 0.96761 0.0
H372 H 0.26767 0.52863 0.15838 0.0
H373 H 0.32056 0.57015 0.17174 0.0
C374 C 0.36986 0.57176 0.08359 0.0
C375 C 0.39392 0.56977 0.03388 0.0
C376 C 0.33938 0.54734 0.07707 0.0
C377 C 0.387 0.54273 0.97764 0.0
C378 C 0.35657 0.51825 0.97042 0.0
C379 C 0.30164 0.49599 1.01256 0.0
C380 C 0.2778 0.49878 0.06122 0.0
C381 C 0.33247 0.52028 0.01982 0.0
C382 C 0.28533 0.52576 0.11909 0.0
C383 C 0.31569 0.54967 0.12705 0.0
H384 H 0.77689 0.36784 0.11327 0.0
H385 H 0.85852 0.4026 0.91788 0.0
H386 H 0.85115 0.35068 0.90281 0.0
H387 H 0.82127 0.29509 0.94481 0.0
H388 H 0.73902 0.26067 0.13745 0.0
H389 H 0.74713 0.31261 0.15487 0.0
C390 C 0.79317 0.36408 0.06796 0.0
C391 C 0.81819 0.3891 0.01676 0.0
C392 C 0.78876 0.33415 0.05936 0.0
C393 C 0.83884 0.38372 0.95707 0.0
C394 C 0.83475 0.35404 0.94895 0.0
C395 C 0.80526 0.299 0.99116 0.0
C396 C 0.77961 0.27393 0.03978 0.0
C397 C 0.80978 0.32904 0.99975 0.0
C398 C 0.75892 0.27944 0.09872 0.0
C399 C 0.76351 0.30919 0.10887 0.0
H400 H 0.40906 0.77356 0.05851 0.0
H401 H 0.47087 0.86926 0.98288 0.0
H402 H 0.51345 0.85909 0.96283 0.0
H403 H 0.53367 0.82332 0.97235 0.0
H404 H 0.47157 0.7276 0.04853 0.0
H405 H 0.42878 0.73746 0.06114 0.0
C406 C 0.43174 0.79212 0.03622 0.0
C407 C 0.43669 0.82217 0.02293 0.0
C408 C 0.45622 0.78614 0.02501 0.0
C409 C 0.46642 0.84599 0.99531 0.0
C410 C 0.49081 0.84018 0.98331 0.0
C411 C 0.51075 0.80455 0.99099 0.0
C412 C 0.50604 0.77476 1.00962 0.0
C413 C 0.48608 0.81039 0.99903 0.0
C414 C 0.47608 0.7508 0.03394 0.0
C415 C 0.45148 0.75639 0.04131 0.0
H416 H 0.74064 0.477 0.0407 0.0
H417 H 0.71618 0.54748 0.99237 0.0
H418 H 0.66187 0.50936 0.01487 0.0
H419 H 0.62116 0.45625 0.04994 0.0
H420 H 0.64495 0.38546 0.0993 0.0
H421 H 0.69951 0.42335 0.07296 0.0
C422 C 0.72346 0.48406 0.03503 0.0
C423 C 0.73268 0.51522 0.01509 0.0
C424 C 0.69205 0.46192 0.0478 0.0
C425 C 0.70994 0.52377 1.00756 0.0
C426 C 0.67877 0.50195 0.0205 0.0
C427 C 0.63828 0.44911 0.05572 0.0
C428 C 0.62891 0.41805 0.07737 0.0
C429 C 0.66958 0.47102 0.04108 0.0
C430 C 0.65142 0.40914 0.08208 0.0
C431 C 0.68267 0.43085 0.06766 0.0
H432 H 0.16207 0.39762 0.7209 0.0
H433 H 0.21859 0.49652 0.70293 0.0
H434 H 0.22027 0.49384 0.50802 0.0
H435 H 0.20542 0.46336 0.34019 0.0
H436 H 0.14913 0.36444 0.359 0.0
H437 H 0.14749 0.36719 0.55369 0.0
C438 C 0.17483 0.41856 0.67428 0.0
C439 C 0.19014 0.44723 0.72696 0.0
C440 C 0.17563 0.41688 0.56139 0.0
C441 C 0.20654 0.47412 0.66489 0.0
C442 C 0.20749 0.47263 0.55304 0.0
C443 C 0.19272 0.44246 0.38699 0.0
C444 C 0.17741 0.41373 0.33457 0.0
C445 C 0.19202 0.44416 0.50001 0.0
C446 C 0.16117 0.38687 0.39686 0.0
C447 C 0.16023 0.3884 0.50858 0.0
H448 H 0.712 0.14218 0.6456 0.0
H449 H 0.79478 0.22514 0.73867 0.0
H450 H 0.81161 0.23523 0.55208 0.0
H451 H 0.80273 0.2204 0.36186 0.0
H452 H 0.71944 0.13793 0.26864 0.0
H453 H 0.70267 0.12789 0.45525 0.0
C454 C 0.73372 0.16245 0.62485 0.0
C455 C 0.75233 0.18268 0.70578 0.0
C456 C 0.74305 0.16827 0.51723 0.0
C457 C 0.78033 0.20894 0.67796 0.0
C458 C 0.78986 0.21482 0.57119 0.0
C459 C 0.7809 0.20028 0.38258 0.0
C460 C 0.76236 0.17991 0.30181 0.0
C461 C 0.77143 0.19463 0.49013 0.0
C462 C 0.73409 0.15396 0.32948 0.0
C463 C 0.72452 0.14817 0.43618 0.0
H464 H 0.57179 0.77969 0.70656 0.0
H465 H 0.58314 0.70001 0.68934 0.0
H466 H 0.58668 0.70417 0.49463 0.0
H467 H 0.58636 0.73028 0.32699 0.0
H468 H 0.57498 0.80994 0.3434 0.0
H469 H 0.57145 0.80585 0.53835 0.0
C470 C 0.57515 0.76334 0.66011 0.0
C471 C 0.57716 0.73954 0.71297 0.0
C472 C 0.577 0.76575 0.5471 0.0
C473 C 0.58144 0.71852 0.65114 0.0
C474 C 0.58343 0.72085 0.53941 0.0
C475 C 0.58301 0.74666 0.37326 0.0
C476 C 0.58097 0.7704 0.32017 0.0
C477 C 0.58114 0.74428 0.48617 0.0
C478 C 0.57667 0.79144 0.3818 0.0
C479 C 0.57469 0.78916 0.49366 0.0
H480 H 0.86363 0.57002 0.62225 0.0
H481 H 0.7856 0.57871 0.71698 0.0
H482 H 0.77622 0.58626 0.53041 0.0
H483 H 0.79036 0.5905 0.33996 0.0
H484 H 0.86768 0.58055 0.245 0.0
H485 H 0.87696 0.57293 0.4316 0.0
C486 C 0.84459 0.57357 0.60185 0.0
C487 C 0.82561 0.57429 0.68314 0.0
C488 C 0.83911 0.57746 0.49433 0.0
C489 C 0.8009 0.57871 0.65589 0.0
C490 C 0.79539 0.58279 0.54918 0.0
C491 C 0.80918 0.58659 0.36031 0.0
C492 C 0.82839 0.5862 0.27924 0.0
C493 C 0.81439 0.58227 0.46774 0.0
C494 C 0.85263 0.58101 0.30626 0.0
C495 C 0.85797 0.5767 0.41288 0.0
H496 H 0.27977 0.85921 0.31359 0.0
H497 H 0.2001 0.7681 0.32978 0.0
H498 H 0.20433 0.76827 0.52449 0.0
H499 H 0.23063 0.79439 0.69284 0.0
H500 H 0.31037 0.88546 0.67606 0.0
H501 H 0.30606 0.88525 0.48154 0.0
C502 C 0.26341 0.83939 0.35978 0.0
C503 C 0.23962 0.81371 0.30658 0.0
C504 C 0.26589 0.83964 0.47271 0.0
C505 C 0.21863 0.78823 0.36817 0.0
C506 C 0.22099 0.7883 0.47995 0.0
C507 C 0.24696 0.81419 0.64654 0.0
C508 C 0.27081 0.83989 0.69956 0.0
C509 C 0.24447 0.8139 0.53353 0.0
C510 C 0.29181 0.86531 0.63782 0.0
C511 C 0.2894 0.86524 0.52614 0.0
H512 H 0.44211 0.2982 0.7054 0.0
H513 H 0.42764 0.20924 0.80168 0.0
H514 H 0.42049 0.19258 0.61507 0.0
H515 H 0.41824 0.20335 0.42419 0.0
H516 H 0.43394 0.29278 0.32788 0.0
H517 H 0.44123 0.30943 0.51447 0.0
C518 C 0.43735 0.27517 0.68531 0.0
C519 C 0.43491 0.2548 0.76691 0.0
C520 C 0.43375 0.26595 0.57785 0.0
C521 C 0.42898 0.2251 0.7402 0.0
C522 C 0.42514 0.21565 0.63351 0.0
C523 C 0.42338 0.22651 0.44427 0.0
C524 C 0.42546 0.24679 0.3629 0.0
C525 C 0.42743 0.23587 0.55169 0.0
C526 C 0.43219 0.27676 0.38946 0.0
C527 C 0.43629 0.28626 0.49605 0.0
loop_
_geom_bond_atom_site_label_1
_geom_bond_atom_site_label_2
_geom_bond_distance
_geom_bond_site_symmetry_2
_ccdc_geom_bond_type
Tb0 C2 2.809 1_556 S
Tb0 O20 2.484 1_556 S
Tb0 O21 2.440 . S
Tb0 O22 2.658 . S
Tb0 O23 2.409 . S
Tb0 O24 2.378 . S
Tb0 O28 2.325 1_556 S
Tb0 O31 2.341 . S
Tb1 C11 2.809 1_554 S
Tb1 O22 2.325 1_554 S
Tb1 O25 2.341 . S
Tb1 O26 2.484 1_554 S
Tb1 O27 2.440 . S
Tb1 O28 2.658 . S
Tb1 O29 2.409 . S
Tb1 O30 2.378 . S
C2 Tb0 2.809 1_554 S
C2 C3 1.514 . S
C2 O20 1.248 . S
C2 O21 1.266 1_554 S
C3 C2 1.514 . S
C3 C4 1.359 . S
C3 C8 1.348 1_554 S
C4 C3 1.359 . S
C4 C5 1.380 . S
C4 H32 0.929 . S
C5 C4 1.380 . S
C5 C6 1.347 . S
C5 H33 0.931 . S
C6 C5 1.347 . S
C6 C7 1.369 1_554 S
C7 C6 1.369 1_556 S
C7 C8 1.408 . S
C7 H34 0.930 . S
C8 C3 1.348 1_556 S
C8 C7 1.408 . S
C8 H35 0.930 . S
C9 O22 1.281 . S
C9 O23 1.254 . S
C10 O24 1.236 . S
C10 O25 1.266 1_556 S
C11 Tb1 2.809 1_556 S
C11 C12 1.514 . S
C11 O26 1.248 . S
C11 O27 1.266 1_556 S
C12 C11 1.514 . S
C12 C13 1.359 . S
C12 C17 1.348 1_556 S
C13 C12 1.359 . S
C13 C14 1.380 . S
C13 H36 0.929 . S
C14 C13 1.380 . S
C14 C15 1.347 . S
C14 H37 0.931 . S
C15 C14 1.347 . S
C15 C16 1.369 1_556 S
C16 C15 1.369 1_554 S
C16 C17 1.408 . S
C16 H38 0.930 . S
C17 C12 1.348 1_554 S
C17 C16 1.408 . S
C17 H39 0.930 . S
C18 O28 1.281 . S
C18 O29 1.254 . S
C19 O30 1.236 . S
C19 O31 1.266 1_554 S
O20 Tb0 2.484 1_554 S
O20 C2 1.248 . S
O21 Tb0 2.440 . S
O21 C2 1.266 1_556 S
O22 Tb0 2.658 . S
O22 Tb1 2.325 1_556 S
O22 C9 1.281 . S
O23 Tb0 2.409 . S
O23 C9 1.254 . S
O24 Tb0 2.378 . S
O24 C10 1.236 . S
O25 Tb1 2.341 . S
O25 C10 1.266 1_554 S
O26 Tb1 2.484 1_556 S
O26 C11 1.248 . S
O27 Tb1 2.440 . S
O27 C11 1.266 1_554 S
O28 Tb0 2.325 1_554 S
O28 Tb1 2.658 . S
O28 C18 1.281 . S
O29 Tb1 2.409 . S
O29 C18 1.254 . S
O30 Tb1 2.378 . S
O30 C19 1.236 . S
O31 Tb0 2.341 . S
O31 C19 1.266 1_556 S
H32 C4 0.929 . S
H33 C5 0.931 . S
H34 C7 0.930 . S
H35 C8 0.930 . S
H36 C13 0.929 . S
H37 C14 0.931 . S
H38 C16 0.930 . S
H39 C17 0.930 . S
Tb40 C42 2.809 1_556 S
Tb40 O60 2.484 1_556 S
Tb40 O61 2.440 . S
Tb40 O62 2.658 . S
Tb40 O63 2.409 . S
Tb40 O64 2.378 . S
Tb40 O68 2.325 1_556 S
Tb40 O71 2.341 . S
Tb41 C51 2.809 1_554 S
Tb41 O62 2.325 1_554 S
Tb41 O65 2.341 . S
Tb41 O66 2.484 1_554 S
Tb41 O67 2.440 . S
Tb41 O68 2.658 . S
Tb41 O69 2.409 . S
Tb41 O70 2.378 . S
C42 Tb40 2.809 1_554 S
C42 C43 1.514 . S
C42 O60 1.248 . S
C42 O61 1.266 1_554 S
C43 C42 1.514 . S
C43 C44 1.359 . S
C43 C48 1.348 1_554 S
C44 C43 1.359 . S
C44 C45 1.380 . S
C44 H72 0.929 . S
C45 C44 1.380 . S
C45 C46 1.347 . S
C45 H73 0.931 . S
C46 C45 1.347 . S
C46 C47 1.369 1_554 S
C47 C46 1.369 1_556 S
C47 C48 1.408 . S
C47 H74 0.930 . S
C48 C43 1.348 1_556 S
C48 C47 1.408 . S
C48 H75 0.930 . S
C49 O62 1.281 . S
C49 O63 1.254 . S
C50 O64 1.236 . S
C50 O65 1.266 1_556 S
C51 Tb41 2.809 1_556 S
C51 C52 1.514 . S
C51 O66 1.248 . S
C51 O67 1.266 1_556 S
C52 C51 1.514 . S
C52 C53 1.359 . S
C52 C57 1.348 1_556 S
C53 C52 1.359 . S
C53 C54 1.380 . S
C53 H76 0.929 . S
C54 C53 1.380 . S
C54 C55 1.347 . S
C54 H77 0.931 . S
C55 C54 1.347 . S
C55 C56 1.369 1_556 S
C56 C55 1.369 1_554 S
C56 C57 1.408 . S
C56 H78 0.930 . S
C57 C52 1.348 1_554 S
C57 C56 1.408 . S
C57 H79 0.930 . S
C58 O68 1.281 . S
C58 O69 1.254 . S
C59 O70 1.236 . S
C59 O71 1.266 1_554 S
O60 Tb40 2.484 1_554 S
O60 C42 1.248 . S
O61 Tb40 2.440 . S
O61 C42 1.266 1_556 S
O62 Tb40 2.658 . S
O62 Tb41 2.325 1_556 S
O62 C49 1.281 . S
O63 Tb40 2.409 . S
O63 C49 1.254 . S
O64 Tb40 2.378 . S
O64 C50 1.236 . S
O65 Tb41 2.341 . S
O65 C50 1.266 1_554 S
O66 Tb41 2.484 1_556 S
O66 C51 1.248 . S
O67 Tb41 2.440 . S
O67 C51 1.266 1_554 S
O68 Tb40 2.325 1_554 S
O68 Tb41 2.658 . S
O68 C58 1.281 . S
O69 Tb41 2.409 . S
O69 C58 1.254 . S
O70 Tb41 2.378 . S
O70 C59 1.236 . S
O71 Tb40 2.341 . S
O71 C59 1.266 1_556 S
H72 C44 0.929 . S
H73 C45 0.931 . S
H74 C47 0.930 . S
H75 C48 0.930 . S
H76 C53 0.929 . S
H77 C54 0.931 . S
H78 C56 0.930 . S
H79 C57 0.930 . S
Tb80 C82 2.809 1_556 S
Tb80 O100 2.484 1_556 S
Tb80 O101 2.440 . S
Tb80 O102 2.658 . S
Tb80 O103 2.409 . S
Tb80 O104 2.378 . S
Tb80 O108 2.325 1_556 S
Tb80 O111 2.341 . S
Tb81 C91 2.809 1_554 S
Tb81 O102 2.325 1_554 S
Tb81 O105 2.341 . S
Tb81 O106 2.484 1_554 S
Tb81 O107 2.440 . S
Tb81 O108 2.658 . S
Tb81 O109 2.409 . S
Tb81 O110 2.378 . S
C82 Tb80 2.809 1_554 S
C82 C83 1.514 . S
C82 O100 1.248 . S
C82 O101 1.266 1_554 S
C83 C82 1.514 . S
C83 C84 1.359 . S
C83 C88 1.348 1_554 S
C84 C83 1.359 . S
C84 C85 1.380 . S
C84 H112 0.929 . S
C85 C84 1.380 . S
C85 C86 1.347 . S
C85 H113 0.931 . S
C86 C85 1.347 . S
C86 C87 1.369 1_554 S
C87 C86 1.369 1_556 S
C87 C88 1.408 . S
C87 H114 0.930 . S
C88 C83 1.348 1_556 S
C88 C87 1.408 . S
C88 H115 0.930 . S
C89 O102 1.281 . S
C89 O103 1.254 . S
C90 O104 1.236 . S
C90 O105 1.266 1_556 S
C91 Tb81 2.809 1_556 S
C91 C92 1.514 . S
C91 O106 1.248 . S
C91 O107 1.266 1_556 S
C92 C91 1.514 . S
C92 C93 1.359 . S
C92 C97 1.348 1_556 S
C93 C92 1.359 . S
C93 C94 1.380 . S
C93 H116 0.929 . S
C94 C93 1.380 . S
C94 C95 1.347 . S
C94 H117 0.931 . S
C95 C94 1.347 . S
C95 C96 1.369 1_556 S
C96 C95 1.369 1_554 S
C96 C97 1.408 . S
C96 H118 0.930 . S
C97 C92 1.348 1_554 S
C97 C96 1.408 . S
C97 H119 0.930 . S
C98 O108 1.281 . S
C98 O109 1.254 . S
C99 O110 1.236 . S
C99 O111 1.266 1_554 S
O100 Tb80 2.484 1_554 S
O100 C82 1.248 . S
O101 Tb80 2.440 . S
O101 C82 1.266 1_556 S
O102 Tb80 2.658 . S
O102 Tb81 2.325 1_556 S
O102 C89 1.281 . S
O103 Tb80 2.409 . S
O103 C89 1.254 . S
O104 Tb80 2.378 . S
O104 C90 1.236 . S
O105 Tb81 2.341 . S
O105 C90 1.266 1_554 S
O106 Tb81 2.484 1_556 S
O106 C91 1.248 . S
O107 Tb81 2.440 . S
O107 C91 1.266 1_554 S
O108 Tb80 2.325 1_554 S
O108 Tb81 2.658 . S
O108 C98 1.281 . S
O109 Tb81 2.409 . S
O109 C98 1.254 . S
O110 Tb81 2.378 . S
O110 C99 1.236 . S
O111 Tb80 2.341 . S
O111 C99 1.266 1_556 S
H112 C84 0.929 . S
H113 C85 0.931 . S
H114 C87 0.930 . S
H115 C88 0.930 . S
H116 C93 0.929 . S
H117 C94 0.931 . S
H118 C96 0.930 . S
H119 C97 0.930 . S
Tb120 C122 2.809 1_556 S
Tb120 O140 2.484 1_556 S
Tb120 O141 2.440 . S
Tb120 O142 2.658 . S
Tb120 O143 2.409 . S
Tb120 O144 2.378 . S
Tb120 O148 2.325 1_556 S
Tb120 O151 2.341 . S
Tb121 C131 2.809 1_554 S
Tb121 O142 2.325 1_554 S
Tb121 O145 2.341 . S
Tb121 O146 2.484 1_554 S
Tb121 O147 2.440 . S
Tb121 O148 2.658 . S
Tb121 O149 2.409 . S
Tb121 O150 2.378 . S
C122 Tb120 2.809 1_554 S
C122 C123 1.514 . S
C122 O140 1.248 . S
C122 O141 1.266 1_554 S
C123 C122 1.514 . S
C123 C124 1.359 . S
C123 C128 1.348 1_554 S
C124 C123 1.359 . S
C124 C125 1.380 . S
C124 H152 0.929 . S
C125 C124 1.380 . S
C125 C126 1.347 . S
C125 H153 0.931 . S
C126 C125 1.347 . S
C126 C127 1.369 1_554 S
C127 C126 1.369 1_556 S
C127 C128 1.408 . S
C127 H154 0.930 . S
C128 C123 1.348 1_556 S
C128 C127 1.408 . S
C128 H155 0.930 . S
C129 O142 1.281 . S
C129 O143 1.254 . S
C130 O144 1.236 . S
C130 O145 1.266 1_556 S
C131 Tb121 2.809 1_556 S
C131 C132 1.514 . S
C131 O146 1.248 . S
C131 O147 1.266 1_556 S
C132 C131 1.514 . S
C132 C133 1.359 . S
C132 C137 1.348 1_556 S
C133 C132 1.359 . S
C133 C134 1.380 . S
C133 H156 0.929 . S
C134 C133 1.380 . S
C134 C135 1.347 . S
C134 H157 0.931 . S
C135 C134 1.347 . S
C135 C136 1.369 1_556 S
C136 C135 1.369 1_554 S
C136 C137 1.408 . S
C136 H158 0.930 . S
C137 C132 1.348 1_554 S
C137 C136 1.408 . S
C137 H159 0.930 . S
C138 O148 1.281 . S
C138 O149 1.254 . S
C139 O150 1.236 . S
C139 O151 1.266 1_554 S
O140 Tb120 2.484 1_554 S
O140 C122 1.248 . S
O141 Tb120 2.440 . S
O141 C122 1.266 1_556 S
O142 Tb120 2.658 . S
O142 Tb121 2.325 1_556 S
O142 C129 1.281 . S
O143 Tb120 2.409 . S
O143 C129 1.254 . S
O144 Tb120 2.378 . S
O144 C130 1.236 . S
O145 Tb121 2.341 . S
O145 C130 1.266 1_554 S
O146 Tb121 2.484 1_556 S
O146 C131 1.248 . S
O147 Tb121 2.440 . S
O147 C131 1.266 1_554 S
O148 Tb120 2.325 1_554 S
O148 Tb121 2.658 . S
O148 C138 1.281 . S
O149 Tb121 2.409 . S
O149 C138 1.254 . S
O150 Tb121 2.378 . S
O150 C139 1.236 . S
O151 Tb120 2.341 . S
O151 C139 1.266 1_556 S
H152 C124 0.929 . S
H153 C125 0.931 . S
H154 C127 0.930 . S
H155 C128 0.930 . S
H156 C133 0.929 . S
H157 C134 0.931 . S
H158 C136 0.930 . S
H159 C137 0.930 . S
Tb160 C162 2.809 1_556 S
Tb160 O180 2.484 1_556 S
Tb160 O181 2.440 . S
Tb160 O182 2.658 . S
Tb160 O183 2.409 . S
Tb160 O184 2.378 . S
Tb160 O188 2.325 1_556 S
Tb160 O191 2.341 . S
Tb161 C171 2.809 1_554 S
Tb161 O182 2.325 1_554 S
Tb161 O185 2.341 . S
Tb161 O186 2.484 1_554 S
Tb161 O187 2.440 . S
Tb161 O188 2.658 . S
Tb161 O189 2.409 . S
Tb161 O190 2.378 . S
C162 Tb160 2.809 1_554 S
C162 C163 1.514 . S
C162 O180 1.248 . S
C162 O181 1.266 1_554 S
C163 C162 1.514 . S
C163 C164 1.359 . S
C163 C168 1.348 1_554 S
C164 C163 1.359 . S
C164 C165 1.380 . S
C164 H192 0.929 . S
C165 C164 1.380 . S
C165 C166 1.347 . S
C165 H193 0.931 . S
C166 C165 1.347 . S
C166 C167 1.369 1_554 S
C167 C166 1.369 1_556 S
C167 C168 1.408 . S
C167 H194 0.930 . S
C168 C163 1.348 1_556 S
C168 C167 1.408 . S
C168 H195 0.930 . S
C169 O182 1.281 . S
C169 O183 1.254 . S
C170 O184 1.236 . S
C170 O185 1.266 1_556 S
C171 Tb161 2.809 1_556 S
C171 C172 1.514 . S
C171 O186 1.248 . S
C171 O187 1.266 1_556 S
C172 C171 1.514 . S
C172 C173 1.359 . S
C172 C177 1.348 1_556 S
C173 C172 1.359 . S
C173 C174 1.380 . S
C173 H196 0.929 . S
C174 C173 1.380 . S
C174 C175 1.347 . S
C174 H197 0.931 . S
C175 C174 1.347 . S
C175 C176 1.369 1_556 S
C176 C175 1.369 1_554 S
C176 C177 1.408 . S
C176 H198 0.930 . S
C177 C172 1.348 1_554 S
C177 C176 1.408 . S
C177 H199 0.930 . S
C178 O188 1.281 . S
C178 O189 1.254 . S
C179 O190 1.236 . S
C179 O191 1.266 1_554 S
O180 Tb160 2.484 1_554 S
O180 C162 1.248 . S
O181 Tb160 2.440 . S
O181 C162 1.266 1_556 S
O182 Tb160 2.658 . S
O182 Tb161 2.325 1_556 S
O182 C169 1.281 . S
O183 Tb160 2.409 . S
O183 C169 1.254 . S
O184 Tb160 2.378 . S
O184 C170 1.236 . S
O185 Tb161 2.341 . S
O185 C170 1.266 1_554 S
O186 Tb161 2.484 1_556 S
O186 C171 1.248 . S
O187 Tb161 2.440 . S
O187 C171 1.266 1_554 S
O188 Tb160 2.325 1_554 S
O188 Tb161 2.658 . S
O188 C178 1.281 . S
O189 Tb161 2.409 . S
O189 C178 1.254 . S
O190 Tb161 2.378 . S
O190 C179 1.236 . S
O191 Tb160 2.341 . S
O191 C179 1.266 1_556 S
H192 C164 0.929 . S
H193 C165 0.931 . S
H194 C167 0.930 . S
H195 C168 0.930 . S
H196 C173 0.929 . S
H197 C174 0.931 . S
H198 C176 0.930 . S
H199 C177 0.930 . S
Tb200 C202 2.809 1_556 S
Tb200 O220 2.484 1_556 S
Tb200 O221 2.440 . S
Tb200 O222 2.658 . S
Tb200 O223 2.409 . S
Tb200 O224 2.378 . S
Tb200 O228 2.325 1_556 S
Tb200 O231 2.341 . S
Tb201 C211 2.809 1_554 S
Tb201 O222 2.325 1_554 S
Tb201 O225 2.341 . S
Tb201 O226 2.484 1_554 S
Tb201 O227 2.440 . S
Tb201 O228 2.658 . S
Tb201 O229 2.409 . S
Tb201 O230 2.378 . S
C202 Tb200 2.809 1_554 S
C202 C203 1.514 . S
C202 O220 1.248 . S
C202 O221 1.266 1_554 S
C203 C202 1.514 . S
C203 C204 1.359 . S
C203 C208 1.348 1_554 S
C204 C203 1.359 . S
C204 C205 1.380 . S
C204 H232 0.929 . S
C205 C204 1.380 . S
C205 C206 1.347 . S
C205 H233 0.931 . S
C206 C205 1.347 . S
C206 C207 1.369 1_554 S
C207 C206 1.369 1_556 S
C207 C208 1.408 . S
C207 H234 0.930 . S
C208 C203 1.348 1_556 S
C208 C207 1.408 . S
C208 H235 0.930 . S
C209 O222 1.281 . S
C209 O223 1.254 . S
C210 O224 1.236 . S
C210 O225 1.266 1_556 S
C211 Tb201 2.809 1_556 S
C211 C212 1.514 . S
C211 O226 1.248 . S
C211 O227 1.266 1_556 S
C212 C211 1.514 . S
C212 C213 1.359 . S
C212 C217 1.348 1_556 S
C213 C212 1.359 . S
C213 C214 1.380 . S
C213 H236 0.929 . S
C214 C213 1.380 . S
C214 C215 1.347 . S
C214 H237 0.931 . S
C215 C214 1.347 . S
C215 C216 1.369 1_556 S
C216 C215 1.369 1_554 S
C216 C217 1.408 . S
C216 H238 0.930 . S
C217 C212 1.348 1_554 S
C217 C216 1.408 . S
C217 H239 0.930 . S
C218 O228 1.281 . S
C218 O229 1.254 . S
C219 O230 1.236 . S
C219 O231 1.266 1_554 S
O220 Tb200 2.484 1_554 S
O220 C202 1.248 . S
O221 Tb200 2.440 . S
O221 C202 1.266 1_556 S
O222 Tb200 2.658 . S
O222 Tb201 2.325 1_556 S
O222 C209 1.281 . S
O223 Tb200 2.409 . S
O223 C209 1.254 . S
O224 Tb200 2.378 . S
O224 C210 1.236 . S
O225 Tb201 2.341 . S
O225 C210 1.266 1_554 S
O226 Tb201 2.484 1_556 S
O226 C211 1.248 . S
O227 Tb201 2.440 . S
O227 C211 1.266 1_554 S
O228 Tb200 2.325 1_554 S
O228 Tb201 2.658 . S
O228 C218 1.281 . S
O229 Tb201 2.409 . S
O229 C218 1.254 . S
O230 Tb201 2.378 . S
O230 C219 1.236 . S
O231 Tb200 2.341 . S
O231 C219 1.266 1_556 S
H232 C204 0.929 . S
H233 C205 0.931 . S
H234 C207 0.930 . S
H235 C208 0.930 . S
H236 C213 0.929 . S
H237 C214 0.931 . S
H238 C216 0.930 . S
H239 C217 0.930 . S
H240 C246 0.930 . S
H241 C249 0.930 . S
H242 C250 0.930 . S
H243 C251 0.930 . S
H244 C254 0.930 . S
H245 C255 0.930 . S
C246 H240 0.930 . S
C246 C247 1.355 1_556 S
C246 C248 1.415 . S
C247 C246 1.355 1_554 S
C247 C249 1.419 . S
C248 C246 1.415 . S
C248 C253 1.425 1_556 S
C248 C255 1.409 . S
C249 H241 0.930 . S
C249 C247 1.419 . S
C249 C250 1.362 . S
C250 H242 0.930 . S
C250 C249 1.362 . S
C250 C253 1.409 . S
C251 H243 0.930 . S
C251 C252 1.355 1_554 S
C251 C253 1.415 . S
C252 C251 1.355 1_556 S
C252 C254 1.419 . S
C253 C248 1.425 1_554 S
C253 C250 1.409 . S
C253 C251 1.415 . S
C254 H244 0.930 . S
C254 C252 1.419 . S
C254 C255 1.362 . S
C255 H245 0.930 . S
C255 C248 1.409 . S
C255 C254 1.362 . S
H256 C262 0.930 . S
H257 C265 0.930 . S
H258 C266 0.930 . S
H259 C267 0.930 1_654 S
H260 C270 0.930 . S
H261 C271 0.930 . S
C262 H256 0.930 . S
C262 C263 1.355 . S
C262 C264 1.415 . S
C263 C262 1.355 . S
C263 C265 1.419 1_556 S
C264 C262 1.415 . S
C264 C269 1.425 . S
C264 C271 1.409 . S
C265 H257 0.930 . S
C265 C263 1.419 1_554 S
C265 C266 1.362 . S
C266 H258 0.930 . S
C266 C265 1.362 . S
C266 C269 1.409 1_554 S
C267 H259 0.930 1_456 S
C267 C268 1.355 . S
C267 C269 1.415 . S
C268 C267 1.355 . S
C268 C270 1.419 . S
C269 C264 1.425 . S
C269 C266 1.409 1_556 S
C269 C267 1.415 . S
C270 H260 0.930 . S
C270 C268 1.419 . S
C270 C271 1.362 . S
C271 H261 0.930 . S
C271 C264 1.409 . S
C271 C270 1.362 . S
H272 C278 0.930 . S
H273 C281 0.930 . S
H274 C282 0.930 . S
H275 C283 0.930 . S
H276 C286 0.930 1_565 S
H277 C287 0.930 . S
C278 H272 0.930 . S
C278 C279 1.355 1_556 S
C278 C280 1.415 . S
C279 C278 1.355 1_554 S
C279 C281 1.419 . S
C280 C278 1.415 . S
C280 C285 1.425 1_556 S
C280 C287 1.409 . S
C281 H273 0.930 . S
C281 C279 1.419 . S
C281 C282 1.362 . S
C282 H274 0.930 . S
C282 C281 1.362 . S
C282 C285 1.409 . S
C283 H275 0.930 . S
C283 C284 1.355 1_554 S
C283 C285 1.415 . S
C284 C283 1.355 1_556 S
C284 C286 1.419 . S
C285 C280 1.425 1_554 S
C285 C282 1.409 . S
C285 C283 1.415 . S
C286 H276 0.930 1_545 S
C286 C284 1.419 . S
C286 C287 1.362 . S
C287 H277 0.930 . S
C287 C280 1.409 . S
C287 C286 1.362 . S
H288 C294 0.930 . S
H289 C297 0.930 . S
H290 C298 0.930 . S
H291 C299 0.930 . S
H292 C302 0.930 . S
H293 C303 0.930 . S
C294 H288 0.930 . S
C294 C295 1.355 1_554 S
C294 C296 1.415 . S
C295 C294 1.355 1_556 S
C295 C297 1.419 . S
C296 C294 1.415 . S
C296 C301 1.425 1_554 S
C296 C303 1.409 . S
C297 H289 0.930 . S
C297 C295 1.419 . S
C297 C298 1.362 . S
C298 H290 0.930 . S
C298 C297 1.362 . S
C298 C301 1.409 . S
C299 H291 0.930 . S
C299 C300 1.355 1_556 S
C299 C301 1.415 . S
C300 C299 1.355 1_554 S
C300 C302 1.419 . S
C301 C296 1.425 1_556 S
C301 C298 1.409 . S
C301 C299 1.415 . S
C302 H292 0.930 . S
C302 C300 1.419 . S
C302 C303 1.362 . S
C303 H293 0.930 . S
C303 C296 1.409 . S
C303 C302 1.362 . S
H304 C310 0.930 . S
H305 C313 0.903 1_455 S
H306 C314 0.930 . S
H307 C315 0.930 . S
H308 C318 0.930 . S
H309 C319 0.930 . S
C310 H304 0.930 . S
C310 C311 1.355 . S
C310 C312 1.415 . S
C311 C310 1.355 . S
C311 C313 1.434 1_556 S
C312 C310 1.415 . S
C312 C317 1.425 1_556 S
C312 C319 1.409 . S
C313 H305 0.903 1_655 S
C313 C311 1.434 1_554 S
C313 C314 1.375 . S
C314 H306 0.930 . S
C314 C313 1.375 . S
C314 C317 1.409 . S
C315 H307 0.930 . S
C315 C316 1.355 1_554 S
C315 C317 1.415 . S
C316 C315 1.355 1_556 S
C316 C318 1.419 . S
C317 C312 1.425 1_554 S
C317 C314 1.409 . S
C317 C315 1.415 . S
C318 H308 0.930 . S
C318 C316 1.419 . S
C318 C319 1.362 . S
C319 H309 0.930 . S
C319 C312 1.409 . S
C319 C318 1.362 . S
H320 C326 0.930 . S
H321 C329 0.930 . S
H322 C330 0.930 . S
H323 C331 0.930 . S
H324 C334 0.930 . S
H325 C335 0.930 . S
C326 H320 0.930 . S
C326 C327 1.355 1_554 S
C326 C328 1.415 . S
C327 C326 1.355 1_556 S
C327 C329 1.419 . S
C328 C326 1.415 . S
C328 C333 1.425 1_554 S
C328 C335 1.409 . S
C329 H321 0.930 . S
C329 C327 1.419 . S
C329 C330 1.362 . S
C330 H322 0.930 . S
C330 C329 1.362 . S
C330 C333 1.409 . S
C331 H323 0.930 . S
C331 C332 1.355 . S
C331 C333 1.415 . S
C332 C331 1.355 . S
C332 C334 1.419 1_556 S
C333 C328 1.425 1_556 S
C333 C330 1.409 . S
C333 C331 1.415 . S
C334 H324 0.930 . S
C334 C332 1.419 1_554 S
C334 C335 1.362 . S
C335 H325 0.930 . S
C335 C328 1.409 . S
C335 C334 1.362 . S
H336 C342 0.930 . S
H337 C345 0.930 . S
H338 C346 0.930 . S
H339 C347 0.930 . S
H340 C350 0.930 . S
H341 C351 0.930 . S
C342 H336 0.930 . S
C342 C343 1.360 . S
C342 C344 1.415 . S
C343 C342 1.360 . S
C343 C345 1.414 1_554 S
C344 C342 1.415 . S
C344 C349 1.425 1_554 S
C344 C351 1.409 . S
C345 H337 0.930 . S
C345 C343 1.414 1_556 S
C345 C346 1.362 . S
C346 H338 0.930 . S
C346 C345 1.362 . S
C346 C349 1.409 . S
C347 H339 0.930 . S
C347 C348 1.355 1_556 S
C347 C349 1.415 . S
C348 C347 1.355 1_554 S
C348 C350 1.419 . S
C349 C344 1.425 1_556 S
C349 C346 1.409 . S
C349 C347 1.415 . S
C350 H340 0.930 . S
C350 C348 1.419 . S
C350 C351 1.362 . S
C351 H341 0.930 . S
C351 C344 1.409 . S
C351 C350 1.362 . S
H352 C358 0.930 . S
H353 C361 0.930 . S
H354 C362 0.930 . S
H355 C363 0.930 . S
H356 C366 0.930 . S
H357 C367 0.930 . S
C358 H352 0.930 . S
C358 C359 1.355 1_554 S
C358 C360 1.415 . S
C359 C358 1.355 1_556 S
C359 C361 1.419 . S
C360 C358 1.415 . S
C360 C365 1.425 1_554 S
C360 C367 1.409 . S
C361 H353 0.930 . S
C361 C359 1.419 . S
C361 C362 1.362 . S
C362 H354 0.930 . S
C362 C361 1.362 . S
C362 C365 1.409 . S
C363 H355 0.930 . S
C363 C364 1.355 1_556 S
C363 C365 1.415 . S
C364 C363 1.355 1_554 S
C364 C366 1.419 . S
C365 C360 1.425 1_556 S
C365 C362 1.409 . S
C365 C363 1.415 . S
C366 H356 0.930 . S
C366 C364 1.419 . S
C366 C367 1.362 . S
C367 H357 0.930 . S
C367 C360 1.409 . S
C367 C366 1.362 . S
H368 C374 0.930 . S
H369 C377 0.930 . S
H370 C378 0.930 . S
H371 C379 0.930 . S
H372 C382 0.930 . S
H373 C383 0.930 . S
C374 H368 0.930 . S
C374 C375 1.355 . S
C374 C376 1.415 . S
C375 C374 1.355 . S
C375 C377 1.419 . S
C376 C374 1.415 . S
C376 C381 1.425 . S
C376 C383 1.409 1_554 S
C377 H369 0.930 . S
C377 C375 1.419 . S
C377 C378 1.362 . S
C378 H370 0.930 . S
C378 C377 1.362 . S
C378 C381 1.409 . S
C379 H371 0.930 . S
C379 C380 1.353 1_554 S
C379 C381 1.415 . S
C380 C379 1.353 1_556 S
C380 C382 1.420 . S
C381 C376 1.425 . S
C381 C378 1.409 . S
C381 C379 1.415 . S
C382 H372 0.930 . S
C382 C380 1.420 . S
C382 C383 1.362 . S
C383 H373 0.930 . S
C383 C376 1.409 1_556 S
C383 C382 1.362 . S
H384 C390 0.930 . S
H385 C393 0.930 . S
H386 C394 0.930 . S
H387 C395 0.930 . S
H388 C398 0.930 . S
H389 C399 0.930 . S
C390 H384 0.930 . S
C390 C391 1.355 . S
C390 C392 1.415 . S
C391 C390 1.355 . S
C391 C393 1.419 1_554 S
C392 C390 1.415 . S
C392 C397 1.425 1_554 S
C392 C399 1.409 . S
C393 H385 0.930 . S
C393 C391 1.419 1_556 S
C393 C394 1.362 . S
C394 H386 0.930 . S
C394 C393 1.362 . S
C394 C397 1.409 . S
C395 H387 0.930 . S
C395 C396 1.355 1_556 S
C395 C397 1.415 . S
C396 C395 1.355 1_554 S
C396 C398 1.419 . S
C397 C392 1.425 1_556 S
C397 C394 1.409 . S
C397 C395 1.415 . S
C398 H388 0.930 . S
C398 C396 1.419 . S
C398 C399 1.362 . S
C399 H389 0.930 . S
C399 C392 1.409 . S
C399 C398 1.362 . S
H400 C406 0.930 . S
H401 C409 0.930 . S
H402 C410 0.930 . S
H403 C411 0.930 . S
H404 C414 0.930 . S
H405 C415 0.930 . S
C406 H400 0.930 . S
C406 C407 1.355 1_556 S
C406 C408 1.415 . S
C407 C406 1.355 1_554 S
C407 C409 1.419 . S
C408 C406 1.415 . S
C408 C413 1.425 1_556 S
C408 C415 1.409 . S
C409 H401 0.930 . S
C409 C407 1.419 . S
C409 C410 1.362 . S
C410 H402 0.930 . S
C410 C409 1.362 . S
C410 C413 1.409 . S
C411 H403 0.930 . S
C411 C412 1.355 1_554 S
C411 C413 1.415 . S
C412 C411 1.355 1_556 S
C412 C414 1.419 . S
C413 C408 1.425 1_554 S
C413 C410 1.409 . S
C413 C411 1.415 . S
C414 H404 0.930 . S
C414 C412 1.419 . S
C414 C415 1.362 . S
C415 H405 0.930 . S
C415 C408 1.409 . S
C415 C414 1.362 . S
H416 C422 0.930 . S
H417 C425 0.930 . S
H418 C426 0.930 . S
H419 C427 0.930 . S
H420 C430 0.930 . S
H421 C431 0.930 . S
C422 H416 0.930 . S
C422 C423 1.355 1_556 S
C422 C424 1.415 . S
C423 C422 1.355 1_554 S
C423 C425 1.419 . S
C424 C422 1.415 . S
C424 C429 1.425 1_556 S
C424 C431 1.409 . S
C425 H417 0.930 . S
C425 C423 1.419 . S
C425 C426 1.362 . S
C426 H418 0.930 . S
C426 C425 1.362 . S
C426 C429 1.409 . S
C427 H419 0.930 . S
C427 C428 1.355 . S
C427 C429 1.415 . S
C428 C427 1.355 . S
C428 C430 1.419 1_554 S
C429 C424 1.425 1_554 S
C429 C426 1.409 . S
C429 C427 1.415 . S
C430 H420 0.930 . S
C430 C428 1.419 1_556 S
C430 C431 1.362 . S
C431 H421 0.930 . S
C431 C424 1.409 . S
C431 C430 1.362 . S
H432 C438 0.930 . S
H433 C441 0.930 . S
H434 C442 0.930 . S
H435 C443 0.930 . S
H436 C446 0.930 . S
H437 C447 0.930 . S
C438 H432 0.930 . S
C438 C439 1.355 . S
C438 C440 1.415 . S
C439 C438 1.355 . S
C439 C441 1.419 . S
C440 C438 1.415 . S
C440 C445 1.425 . S
C440 C447 1.409 . S
C441 H433 0.930 . S
C441 C439 1.419 . S
C441 C442 1.362 . S
C442 H434 0.930 . S
C442 C441 1.362 . S
C442 C445 1.409 . S
C443 H435 0.930 . S
C443 C444 1.355 . S
C443 C445 1.415 . S
C444 C443 1.355 . S
C444 C446 1.419 . S
C445 C440 1.425 . S
C445 C442 1.409 . S
C445 C443 1.415 . S
C446 H436 0.930 . S
C446 C444 1.419 . S
C446 C447 1.362 . S
C447 H437 0.930 . S
C447 C440 1.409 . S
C447 C446 1.362 . S
H448 C454 0.930 . S
H449 C457 0.930 . S
H450 C458 0.930 . S
H451 C459 0.930 . S
H452 C462 0.930 . S
H453 C463 0.930 . S
C454 H448 0.930 . S
C454 C455 1.355 . S
C454 C456 1.415 . S
C455 C454 1.355 . S
C455 C457 1.419 . S
C456 C454 1.415 . S
C456 C461 1.425 . S
C456 C463 1.409 . S
C457 H449 0.930 . S
C457 C455 1.419 . S
C457 C458 1.362 . S
C458 H450 0.930 . S
C458 C457 1.362 . S
C458 C461 1.409 . S
C459 H451 0.930 . S
C459 C460 1.355 . S
C459 C461 1.415 . S
C460 C459 1.355 . S
C460 C462 1.419 . S
C461 C456 1.425 . S
C461 C458 1.409 . S
C461 C459 1.415 . S
C462 H452 0.930 . S
C462 C460 1.419 . S
C462 C463 1.362 . S
C463 H453 0.930 . S
C463 C456 1.409 . S
C463 C462 1.362 . S
H464 C470 0.930 . S
H465 C473 0.930 . S
H466 C474 0.930 . S
H467 C475 0.930 . S
H468 C478 0.930 . S
H469 C479 0.930 . S
C470 H464 0.930 . S
C470 C471 1.355 . S
C470 C472 1.415 . S
C471 C470 1.355 . S
C471 C473 1.419 . S
C472 C470 1.415 . S
C472 C477 1.425 . S
C472 C479 1.409 . S
C473 H465 0.930 . S
C473 C471 1.419 . S
C473 C474 1.362 . S
C474 H466 0.930 . S
C474 C473 1.362 . S
C474 C477 1.409 . S
C475 H467 0.930 . S
C475 C476 1.355 . S
C475 C477 1.415 . S
C476 C475 1.355 . S
C476 C478 1.419 . S
C477 C472 1.425 . S
C477 C474 1.409 . S
C477 C475 1.415 . S
C478 H468 0.930 . S
C478 C476 1.419 . S
C478 C479 1.362 . S
C479 H469 0.930 . S
C479 C472 1.409 . S
C479 C478 1.362 . S
H480 C486 0.930 . S
H481 C489 0.930 . S
H482 C490 0.930 . S
H483 C491 0.930 . S
H484 C494 0.930 . S
H485 C495 0.930 . S
C486 H480 0.930 . S
C486 C487 1.355 . S
C486 C488 1.415 . S
C487 C486 1.355 . S
C487 C489 1.419 . S
C488 C486 1.415 . S
C488 C493 1.425 . S
C488 C495 1.409 . S
C489 H481 0.930 . S
C489 C487 1.419 . S
C489 C490 1.362 . S
C490 H482 0.930 . S
C490 C489 1.362 . S
C490 C493 1.409 . S
C491 H483 0.930 . S
C491 C492 1.355 . S
C491 C493 1.415 . S
C492 C491 1.355 . S
C492 C494 1.419 . S
C493 C488 1.425 . S
C493 C490 1.409 . S
C493 C491 1.415 . S
C494 H484 0.930 . S
C494 C492 1.419 . S
C494 C495 1.362 . S
C495 H485 0.930 . S
C495 C488 1.409 . S
C495 C494 1.362 . S
H496 C502 0.930 . S
H497 C505 0.930 . S
H498 C506 0.930 . S
H499 C507 0.930 . S
H500 C510 0.930 . S
H501 C511 0.930 . S
C502 H496 0.930 . S
C502 C503 1.355 . S
C502 C504 1.415 . S
C503 C502 1.355 . S
C503 C505 1.419 . S
C504 C502 1.415 . S
C504 C509 1.425 . S
C504 C511 1.409 . S
C505 H497 0.930 . S
C505 C503 1.419 . S
C505 C506 1.362 . S
C506 H498 0.930 . S
C506 C505 1.362 . S
C506 C509 1.409 . S
C507 H499 0.930 . S
C507 C508 1.355 . S
C507 C509 1.415 . S
C508 C507 1.355 . S
C508 C510 1.419 . S
C509 C504 1.425 . S
C509 C506 1.409 . S
C509 C507 1.415 . S
C510 H500 0.930 . S
C510 C508 1.419 . S
C510 C511 1.362 . S
C511 H501 0.930 . S
C511 C504 1.409 . S
C511 C510 1.362 . S
H512 C518 0.930 . S
H513 C521 0.930 . S
H514 C522 0.930 . S
H515 C523 0.930 . S
H516 C526 0.930 . S
H517 C527 0.930 . S
C518 H512 0.930 . S
C518 C519 1.355 . S
C518 C520 1.415 . S
C519 C518 1.355 . S
C519 C521 1.419 . S
C520 C518 1.415 . S
C520 C525 1.425 . S
C520 C527 1.409 . S
C521 H513 0.930 . S
C521 C519 1.419 . S
C521 C522 1.362 . S
C522 H514 0.930 . S
C522 C521 1.362 . S
C522 C525 1.409 . S
C523 H515 0.930 . S
C523 C524 1.355 . S
C523 C525 1.415 . S
C524 C523 1.355 . S
C524 C526 1.419 . S
C525 C520 1.425 . S
C525 C522 1.409 . S
C525 C523 1.415 . S
C526 H516 0.930 . S
C526 C524 1.419 . S
C526 C527 1.362 . S
C527 H517 0.930 . S
C527 C520 1.409 . S
C527 C526 1.362 . S
C247 C219 2.059 . S
C252 C15 1.811 . S
C263 C19 2.056 1_556 S
C268 C55 1.854 1_455 S
C279 C59 2.062 . S
C284 C95 1.799 1_545 S
C295 C135 1.805 . S
C300 C99 2.060 . S
C311 C175 1.770 1_655 S
C316 C139 2.077 1_556 S
C327 C179 2.068 1_556 S
C332 C215 1.818 1_565 S
C343 C170 1.904 1_554 S
C348 C6 1.892 . S
C359 C210 1.895 . S
C364 C46 1.909 . S
C375 C86 1.894 . S
C380 C10 1.905 . S
C391 C126 1.886 . S
C396 C50 1.911 1_554 S
C407 C166 1.900 . S
C412 C90 1.900 . S
C423 C130 1.901 1_554 S
C428 C206 1.904 . S
C439 C9 1.392 . S
C444 C18 1.392 . S
C455 C49 1.463 . S
C460 C58 1.463 . S
C471 C89 1.397 . S
C476 C98 1.397 . S
C487 C129 1.435 . S
C492 C138 1.435 . S
C503 C178 1.392 . S
C508 C169 1.392 . S
C519 C209 1.461 . S
C524 C218 1.461 . S
