# Generated by pormake.
# Topology uni, (4)-cn, num edge types: 1
# Building blocks:
#     Node 0, Type 0, BuildingBlock: ICAMEG_clean_sbu_1, # of connection points: 4
#     Node 1, Type 0, BuildingBlock: ICAMEG_clean_sbu_1, # of connection points: 4
#     Node 2, Type 0, BuildingBlock: ICAMEG_clean_sbu_1, # of connection points: 4
#     Node 3, Type 0, BuildingBlock: ICAMEG_clean_sbu_1, # of connection points: 4
#     Node 4, Type 0, BuildingBlock: ICAMEG_clean_sbu_1, # of connection points: 4
#     Node 5, Type 0, BuildingBlock: ICAMEG_clean_sbu_1, # of connection points: 4
#     Edge 6, Type (0, 0), BuildingBlock: MIFKUJ_clean_linker_0, # of connection points: 2
#     Edge 7, Type (0, 0), BuildingBlock: MIFKUJ_clean_linker_0, # of connection points: 2
#     Edge 8, Type (0, 0), BuildingBlock: MIFKUJ_clean_linker_0, # of connection points: 2
#     Edge 9, Type (0, 0), BuildingBlock: MIFKUJ_clean_linker_0, # of connection points: 2
#     Edge 10, Type (0, 0), BuildingBlock: MIFKUJ_clean_linker_0, # of connection points: 2
#     Edge 11, Type (0, 0), BuildingBlock: MIFKUJ_clean_linker_0, # of connection points: 2
#     Edge 12, Type (0, 0), BuildingBlock: MIFKUJ_clean_linker_0, # of connection points: 2
#     Edge 13, Type (0, 0), BuildingBlock: MIFKUJ_clean_linker_0, # of connection points: 2
#     Edge 14, Type (0, 0), BuildingBlock: MIFKUJ_clean_linker_0, # of connection points: 2
#     Edge 15, Type (0, 0), BuildingBlock: MIFKUJ_clean_linker_0, # of connection points: 2
#     Edge 16, Type (0, 0), BuildingBlock: MIFKUJ_clean_linker_0, # of connection points: 2
#     Edge 17, Type (0, 0), BuildingBlock: MIFKUJ_clean_linker_0, # of connection points: 2
# Relax obj value: 0.140
# Max RMSD: 0.183
# Mean RMSD: 0.183
data_MOF--net-uni--node1-ICAMEG_clean_sbu_1--edge1-MIFKUJ_clean_linker_0
_symmetry_space_group_name_H-M    P1
_symmetry_Int_Tables_number       1
_symmetry_cell_setting            triclinic
loop_
_symmetry_equiv_pos_as_xyz
'x, y, z'
_cell_length_a     52.036093
_cell_length_b     52.034958
_cell_length_c     31.883689
_cell_angle_alpha  90.065615
_cell_angle_beta   90.020312
_cell_angle_gamma 120.09734
loop_
_atom_site_label
_atom_site_type_symbol
_atom_site_fract_x
_atom_site_fract_y
_atom_site_fract_z
_atom_type_partial_charge
Co0 Co 0.64081 0.0254 0.03728 0.0
Co1 Co 0.69804 0.07248 0.10167 0.0
O2 O 0.67717 0.06373 0.0473 0.0
C3 C 0.6314 0.07055 0.98833 0.0
O4 O 0.65697 0.09294 1.00043 0.0
C5 C 0.74787 0.09783 0.03786 0.0
O6 O 0.73175 0.07681 0.0108 0.0
O7 O 0.70259 0.03691 0.09514 0.0
O8 O 0.65696 1.00413 0.0718 0.0
H9 H 0.72004 0.04604 0.24355 0.0
H10 H 0.67728 0.0633 0.96557 0.0
O11 O 0.62274 0.0443 1.00146 0.0
H12 H 0.66744 0.96529 0.94135 0.0
H13 H 0.55474 0.94826 0.95245 0.0
H14 H 0.60255 0.97412 0.09166 0.0
H15 H 0.64443 0.97396 1.00309 0.0
H16 H 0.6011 0.99577 0.96354 0.0
O17 O 0.7375 0.09819 0.07388 0.0
H18 H 0.69392 0.03621 0.17579 0.0
H19 H 0.74719 0.12698 0.14184 0.0
H20 H 0.55639 0.92616 0.08173 0.0
H21 H 0.7 0.05544 0.90302 0.0
H22 H 0.53216 0.91298 0.01172 0.0
H23 H 0.6953 0.00614 0.8905 0.0
O24 O 0.62206 0.03196 0.08784 0.0
H25 H 0.70309 0.16633 0.05157 0.0
H26 H 0.67682 0.09681 0.17017 0.0
H27 H 0.67075 0.14068 0.17699 0.0
H28 H 0.68379 0.17571 0.1176 0.0
H29 H 0.7089 0.12229 0.04589 0.0
H30 H 0.77403 0.13774 0.20913 0.0
H31 H 0.76042 0.09713 0.26062 0.0
O32 O 0.65989 0.04797 0.13304 0.0
C33 C 0.68207 0.01032 0.0875 0.0
C34 C 0.72613 0.06394 0.22142 0.0
C35 C 0.75645 0.1154 0.20208 0.0
N36 N 0.7189 0.08101 0.15491 0.0
C37 C 0.71138 0.05852 0.18301 0.0
C38 C 0.74122 0.10914 0.16396 0.0
C39 C 0.7488 0.0926 0.23096 0.0
C40 C 0.67452 0.04164 0.9602 0.0
N41 N 0.65903 0.01904 0.98794 0.0
C42 C 0.68773 0.03738 0.92476 0.0
C43 C 0.68516 0.00976 0.91781 0.0
C44 C 0.66957 0.98685 0.94634 0.0
C45 C 0.65667 0.99195 0.98141 0.0
C46 C 0.56512 0.95373 0.98308 0.0
C47 C 0.59225 0.96846 0.06103 0.0
C48 C 0.59133 0.98067 0.98963 0.0
N49 N 0.60464 0.98767 0.02822 0.0
C50 C 0.56607 0.94131 0.05563 0.0
C51 C 0.55247 0.93394 0.01635 0.0
C52 C 0.63246 0.03771 0.12504 0.0
C53 C 0.69727 0.15119 0.07776 0.0
C54 C 0.68244 0.11187 0.14399 0.0
C55 C 0.67899 0.13669 0.14813 0.0
C56 C 0.68641 0.15642 0.11476 0.0
N57 N 0.69321 0.10695 0.10761 0.0
C58 C 0.70056 0.12623 0.07476 0.0
Co59 Co 0.66626 0.64119 0.20263 0.0
Co60 Co 0.67663 0.70098 0.26074 0.0
O61 O 0.66374 0.67754 0.20845 0.0
C62 C 0.61168 0.62958 0.15216 0.0
O63 O 0.61389 0.65462 0.16472 0.0
C64 C 0.69174 0.74588 0.19054 0.0
O65 O 0.68532 0.72539 0.16198 0.0
O66 O 0.71687 0.7058 0.25383 0.0
O67 O 0.70308 0.65862 0.23862 0.0
H68 H 0.72758 0.72916 0.40098 0.0
H69 H 0.66432 0.6725 0.12509 0.0
O70 O 0.6298 0.62168 0.16552 0.0
H71 H 0.75602 0.66739 0.11354 0.0
H72 H 0.66006 0.5532 0.12678 0.0
H73 H 0.67822 0.60495 0.26261 0.0
H74 H 0.72318 0.64599 0.17467 0.0
H75 H 0.65814 0.59946 0.13261 0.0
O76 O 0.69008 0.73952 0.22945 0.0
H77 H 0.70994 0.70003 0.33562 0.0
H78 H 0.67244 0.75205 0.29583 0.0
H79 H 0.68064 0.55891 0.25807 0.0
H80 H 0.69622 0.69374 0.06322 0.0
H81 H 0.67151 0.53269 0.18978 0.0
H82 H 0.74257 0.69139 0.05709 0.0
O83 O 0.64055 0.62444 0.25304 0.0
H84 H 0.58374 0.69949 0.21207 0.0
H85 H 0.63386 0.68337 0.33187 0.0
H86 H 0.58325 0.67504 0.34072 0.0
H87 H 0.55784 0.68322 0.2806 0.0
H88 H 0.63408 0.70699 0.20438 0.0
H89 H 0.68988 0.78188 0.36062 0.0
H90 H 0.71756 0.77042 0.41383 0.0
O91 O 0.66355 0.664 0.29523 0.0
C92 C 0.72264 0.68478 0.25017 0.0
C93 C 0.71547 0.73432 0.37809 0.0
C94 C 0.69435 0.76393 0.35541 0.0
N95 N 0.69001 0.72419 0.31203 0.0
C96 C 0.70538 0.71786 0.34104 0.0
C97 C 0.6846 0.747 0.31872 0.0
C98 C 0.70987 0.75748 0.38526 0.0
C99 C 0.68415 0.671 0.12266 0.0
N100 N 0.69161 0.65778 0.15359 0.0
C101 C 0.70228 0.68325 0.08752 0.0
C102 C 0.7283 0.68197 0.08413 0.0
C103 C 0.73587 0.66854 0.1158 0.0
C104 C 0.71719 0.65655 0.15047 0.0
C105 C 0.66411 0.56444 0.15671 0.0
C106 C 0.67437 0.59377 0.23273 0.0
C107 C 0.66297 0.5906 0.16024 0.0
N108 N 0.66823 0.60501 0.19789 0.0
C109 C 0.6757 0.56766 0.23038 0.0
C110 C 0.67055 0.55295 0.19206 0.0
C111 C 0.64567 0.6363 0.28937 0.0
C112 C 0.59461 0.69594 0.23856 0.0
C113 C 0.62297 0.68684 0.30542 0.0
C114 C 0.5943 0.68217 0.3107 0.0
C115 C 0.58007 0.68678 0.27698 0.0
N116 N 0.63714 0.6958 0.26759 0.0
C117 C 0.62326 0.70033 0.23442 0.0
Co118 Co 0.0713 0.667 0.37819 0.0
Co119 Co 0.02102 0.67597 0.43613 0.0
O120 O 0.03247 0.66478 0.38319 0.0
C121 C 0.02883 0.61413 0.32403 0.0
O122 O 1.00598 0.6165 0.33592 0.0
C123 C 0.99659 0.69871 0.36806 0.0
O124 O 0.01612 0.70017 0.34076 0.0
O125 O 0.05682 0.71625 0.43231 0.0
O126 O 0.09038 0.7029 0.41617 0.0
H127 H 0.04103 0.72214 0.57964 0.0
H128 H 0.03929 0.66787 0.30065 0.0
O129 O 0.05464 0.63149 0.33905 0.0
H130 H 0.13729 0.75887 0.2943 0.0
H131 H 0.15393 0.66194 0.30324 0.0
H132 H 0.11838 0.67705 0.43931 0.0
H133 H 0.12444 0.72425 0.35351 0.0
H134 H 0.10587 0.66033 0.30831 0.0
O135 O 0.99672 0.69035 0.40556 0.0
H136 H 0.05383 0.7068 0.51335 0.0
H137 H 0.96497 0.67048 0.47042 0.0
H138 H 0.16671 0.67911 0.43556 0.0
H139 H 0.05145 0.70149 0.24051 0.0
H140 H 0.18478 0.67152 0.36715 0.0
H141 H 0.10074 0.74752 0.23704 0.0
O142 O 0.06129 0.63983 0.42734 0.0
H143 H 0.92938 0.5871 0.37933 0.0
H144 H 0.99347 0.63014 0.50357 0.0
H145 H 0.94929 0.58021 0.50803 0.0
H146 H 0.91693 0.55827 0.44563 0.0
H147 H 0.97372 0.63704 0.37625 0.0
H148 H 0.95131 0.68566 0.5361 0.0
H149 H 0.98944 0.71157 0.59137 0.0
O150 O 0.04387 0.6616 0.47012 0.0
C151 C 0.08366 0.72208 0.42908 0.0
C152 C 0.0242 0.7108 0.55584 0.0
C153 C 0.97385 0.69036 0.53139 0.0
N154 N 0.01016 0.68761 0.48809 0.0
C155 C 0.0313 0.70201 0.51825 0.0
C156 C 0.98176 0.6819 0.49419 0.0
C157 C 0.99526 0.70489 0.56239 0.0
C158 C 0.06095 0.68743 0.29921 0.0
N159 N 0.08118 0.6937 0.33053 0.0
C160 C 0.06765 0.7066 0.26512 0.0
C161 C 0.09527 0.73245 0.26323 0.0
C162 C 0.11577 0.73883 0.29535 0.0
C163 C 0.10829 0.71914 0.32892 0.0
C164 C 0.14631 0.66532 0.33322 0.0
C165 C 0.12615 0.67387 0.40939 0.0
C166 C 0.11907 0.66434 0.33632 0.0
N167 N 0.10937 0.66875 0.37406 0.0
C168 C 0.15351 0.675 0.40747 0.0
C169 C 0.16362 0.67071 0.36909 0.0
C170 C 0.05385 0.64398 0.46376 0.0
C171 C 0.94334 0.59637 0.40674 0.0
C172 C 0.97964 0.62073 0.47614 0.0
C173 C 0.9546 0.59244 0.47892 0.0
C174 C 0.93639 0.5802 0.44392 0.0
N175 N 0.98626 0.63653 0.43959 0.0
C176 C 0.96848 0.62468 0.40519 0.0
Co177 Co 0.45534 0.07994 0.541 0.0
Co178 Co 0.39698 0.02377 0.59264 0.0
O179 O 0.42021 0.04036 0.54163 0.0
C180 C 0.47829 0.0445 0.49619 0.0
O181 O 0.47178 0.02683 0.5287 0.0
C182 C 0.33504 0.99976 0.56147 0.0
O183 O 0.33177 0.01632 0.58968 0.0
O184 O 0.39103 0.05889 0.59676 0.0
O185 O 0.43751 0.09511 0.58323 0.0
H186 H 0.36524 0.02837 0.73991 0.0
H187 H 0.42401 0.05148 0.46182 0.0
O188 O 0.47362 0.06629 0.49724 0.0
H189 H 0.42451 0.14641 0.46898 0.0
H190 H 0.54113 0.16873 0.47255 0.0
H191 H 0.49141 0.12395 0.60639 0.0
H192 H 0.44798 0.13244 0.52476 0.0
H193 H 0.4957 0.11947 0.47372 0.0
O194 O 0.36032 1.00169 0.55677 0.0
H195 H 0.39491 0.04838 0.67547 0.0
H196 H 0.34804 0.96339 0.6178 0.0
H197 H 0.53667 0.17332 0.60662 0.0
H198 H 0.40056 0.06473 0.40506 0.0
H199 H 0.56185 0.19605 0.53933 0.0
H200 H 0.40067 0.11248 0.40847 0.0
O201 O 0.47325 0.06832 0.58741 0.0
H202 H 0.40194 0.94222 0.51516 0.0
H203 H 0.41519 0.99132 0.65219 0.0
H204 H 0.42459 0.94954 0.64581 0.0
H205 H 0.41784 0.92458 0.57692 0.0
H206 H 0.39315 0.98434 0.52284 0.0
H207 H 0.3179 0.94249 0.68163 0.0
H208 H 0.32641 0.97505 0.74325 0.0
O209 O 0.43343 0.04461 0.6292 0.0
C210 C 0.4112 0.08631 0.59636 0.0
C211 C 0.36133 0.01395 0.71326 0.0
C212 C 0.33474 0.96575 0.68054 0.0
N213 N 0.37326 0.0071 0.64293 0.0
C214 C 0.37806 0.02515 0.67669 0.0
C215 C 0.35189 0.97772 0.64449 0.0
C216 C 0.33954 0.98403 0.71511 0.0
C217 C 0.42429 0.07237 0.46341 0.0
N218 N 0.43744 0.09119 0.49652 0.0
C219 C 0.41092 0.07972 0.43123 0.0
C220 C 0.41097 0.10651 0.43317 0.0
C221 C 0.42432 0.12554 0.46712 0.0
C222 C 0.4375 0.11746 0.4987 0.0
C223 C 0.53033 0.15908 0.50206 0.0
C224 C 0.50214 0.13374 0.57696 0.0
C225 C 0.50464 0.13116 0.50293 0.0
N226 N 0.49079 0.11892 0.54007 0.0
C227 C 0.52781 0.16168 0.5773 0.0
C228 C 0.54194 0.1744 0.53954 0.0
C229 C 0.46148 0.05747 0.62296 0.0
C230 C 0.40489 0.95286 0.54537 0.0
C231 C 0.41243 0.98076 0.62205 0.0
C232 C 0.41766 0.95701 0.61866 0.0
C233 C 0.41384 0.943 0.58001 0.0
N234 N 0.40353 0.99025 0.58797 0.0
C235 C 0.39985 0.97667 0.54995 0.0
Co236 Co 0.42352 0.45704 0.70337 0.0
Co237 Co 0.4199 0.39819 0.75624 0.0
O238 O 0.42813 0.42186 0.70493 0.0
C239 C 0.48076 0.47611 0.65659 0.0
O240 O 0.48703 0.45983 0.68123 0.0
C241 C 0.38251 0.33622 0.72485 0.0
O242 O 0.36195 0.33324 0.75151 0.0
O243 O 0.37868 0.39205 0.75779 0.0
O244 O 0.38922 0.43839 0.74326 0.0
H245 H 0.37977 0.36618 0.9019 0.0
H246 H 0.42382 0.42726 0.62429 0.0
O247 O 0.45714 0.47728 0.66221 0.0
H248 H 0.32792 0.42495 0.62518 0.0
H249 H 0.42047 0.54246 0.63408 0.0
H250 H 0.41345 0.49206 0.76802 0.0
H251 H 0.36364 0.44857 0.68308 0.0
H252 H 0.42507 0.49757 0.63582 0.0
O253 O 0.40611 0.36144 0.72065 0.0
H254 H 0.39097 0.39585 0.83721 0.0
H255 H 0.43079 0.34943 0.78377 0.0
H256 H 0.40849 0.53676 0.76765 0.0
H257 H 0.38891 0.40376 0.56539 0.0
H258 H 0.412 0.56228 0.70032 0.0
H259 H 0.34052 0.40243 0.56567 0.0
O260 O 0.45161 0.47463 0.75147 0.0
H261 H 0.50796 0.40129 0.68616 0.0
H262 H 0.46935 0.4177 0.8185 0.0
H263 H 0.52073 0.42731 0.81577 0.0
H264 H 0.54032 0.41892 0.74927 0.0
H265 H 0.45694 0.39274 0.69001 0.0
H266 H 0.41996 0.31923 0.84784 0.0
H267 H 0.39429 0.32755 0.90751 0.0
O268 O 0.43443 0.43448 0.79279 0.0
C269 C 0.3715 0.41218 0.75646 0.0
C270 C 0.39096 0.36235 0.87612 0.0
C271 C 0.41352 0.336 0.84579 0.0
N272 N 0.41151 0.3744 0.80673 0.0
C273 C 0.39736 0.37908 0.83941 0.0
C274 C 0.41958 0.35317 0.80958 0.0
C275 C 0.39912 0.34068 0.87925 0.0
C276 C 0.40292 0.42699 0.62445 0.0
N277 N 0.39587 0.43941 0.657 0.0
C278 C 0.3832 0.41357 0.59109 0.0
C279 C 0.35604 0.4128 0.59128 0.0
C280 C 0.34895 0.42543 0.62466 0.0
C281 C 0.36924 0.43869 0.65744 0.0
C282 C 0.41887 0.53152 0.66361 0.0
C283 C 0.41489 0.50296 0.73857 0.0
C284 C 0.42155 0.50613 0.66482 0.0
N285 N 0.4194 0.49211 0.70198 0.0
C286 C 0.41211 0.5283 0.73857 0.0
C287 C 0.41411 0.54262 0.70079 0.0
C288 C 0.44967 0.46257 0.78712 0.0
C289 C 0.49966 0.40497 0.71534 0.0
C290 C 0.47779 0.41439 0.7893 0.0
C291 C 0.50687 0.41967 0.78802 0.0
C292 C 0.51783 0.41492 0.75074 0.0
N293 N 0.46011 0.40476 0.75442 0.0
C294 C 0.47072 0.4 0.71778 0.0
Co295 Co 0.02693 0.42828 0.87751 0.0
Co296 Co 0.07477 0.41873 0.9413 0.0
O297 O 0.06514 0.43023 0.88747 0.0
C298 C 0.04496 0.48746 0.8409 0.0
O299 O 0.03029 0.49112 0.87164 0.0
C300 C 0.09524 0.3904 0.87656 0.0
O301 O 0.07406 0.38675 0.85068 0.0
O302 O 0.03771 0.37915 0.93811 0.0
O303 O 1.00522 0.39174 0.91313 0.0
H304 H 0.05154 0.3754 0.08638 0.0
H305 H 0.06375 0.43222 0.80407 0.0
O306 O 0.04777 0.46445 0.84034 0.0
H307 H 0.96927 0.33825 0.7855 0.0
H308 H 0.9487 0.43253 0.78912 0.0
H309 H 0.97657 0.41855 0.93156 0.0
H310 H 0.97691 0.37034 0.84661 0.0
H311 H 0.99637 0.43441 0.80169 0.0
O312 O 0.09759 0.40206 0.9125 0.0
H313 H 0.04064 0.39082 0.01869 0.0
H314 H 0.12896 0.42121 0.97768 0.0
H315 H 0.92866 0.41643 0.92036 0.0
H316 H 0.05677 0.40108 0.74201 0.0
H317 H 0.91445 0.42347 0.84872 0.0
H318 H 0.00931 0.35363 0.73251 0.0
O319 O 0.03335 0.4538 0.92795 0.0
H320 H 0.16845 0.50372 0.88252 0.0
H321 H 0.10461 0.46532 0.00755 0.0
H322 H 0.15021 0.51433 0.01069 0.0
H323 H 0.18263 0.53375 0.94791 0.0
H324 H 0.12242 0.45498 0.88064 0.0
H325 H 0.14071 0.40588 0.04476 0.0
H326 H 0.10188 0.3829 0.09976 0.0
O327 O 0.0533 0.43564 0.97304 0.0
C328 C 0.0112 0.37313 0.93019 0.0
C329 C 0.06867 0.38546 0.06271 0.0
C330 C 0.1187 0.40252 0.03933 0.0
N331 N 0.08417 0.40708 0.99436 0.0
C332 C 0.06265 0.3943 0.02436 0.0
C333 C 0.11188 0.41109 1.00135 0.0
C334 C 0.09691 0.38965 0.07018 0.0
C335 C 0.04288 0.4118 0.79993 0.0
N336 N 0.02077 0.40318 0.82899 0.0
C337 C 0.03913 0.39417 0.76482 0.0
C338 C 0.01252 0.36752 0.75955 0.0
C339 C 0.99007 0.35886 0.78931 0.0
C340 C 0.99461 0.37705 0.82402 0.0
C341 C 0.95463 0.42942 0.82048 0.0
C342 C 0.97055 0.42162 0.90028 0.0
C343 C 0.9816 0.43047 0.8278 0.0
N344 N 0.98927 0.4266 0.86735 0.0
C345 C 0.94339 0.42039 0.89413 0.0
C346 C 0.93543 0.42434 0.85393 0.0
C347 C 0.04128 0.45127 0.96493 0.0
C348 C 0.15454 0.49547 0.91011 0.0
C349 C 0.11837 0.47375 0.97998 0.0
C350 C 0.14428 0.50146 0.982 0.0
C351 C 0.16247 0.51233 0.94678 0.0
N352 N 0.1108 0.45727 0.94396 0.0
C353 C 0.12847 0.46786 0.90926 0.0
H354 H 0.58211 0.04223 0.1273 0.0
H355 H 0.553 0.03969 0.1896 0.0
H356 H 0.60865 0.01946 0.26653 0.0
H357 H 0.6383 0.02286 0.20494 0.0
H358 H 0.53932 0.98258 0.27812 0.0
H359 H 0.62703 0.08186 0.28303 0.0
H360 H 0.66311 0.13119 0.25509 0.0
H361 H 0.59196 0.14692 0.22322 0.0
H362 H 0.55547 0.0977 0.25141 0.0
H363 H 0.50487 0.01055 0.48536 0.0
H364 H 0.52784 0.00513 0.42128 0.0
H365 H 0.50194 0.06075 0.35467 0.0
H366 H 0.48018 0.06713 0.41857 0.0
H367 H 0.55544 0.07807 0.3361 0.0
H368 H 0.46783 0.982 0.34067 0.0
H369 H 0.43161 0.93382 0.37164 0.0
H370 H 0.49963 0.91057 0.3839 0.0
H371 H 0.53637 0.95881 0.35353 0.0
C372 C 0.58784 0.03682 0.15739 0.0
C373 C 0.61249 0.03275 0.16118 0.0
C374 C 0.57128 0.03547 0.19294 0.0
C375 C 0.57867 0.02934 0.23265 0.0
C376 C 0.60251 0.0241 0.23619 0.0
C377 C 0.61945 0.02613 0.20095 0.0
C378 C 0.56269 0.03007 0.27088 0.0
C379 C 0.54289 1.00341 0.29109 0.0
C380 C 0.56696 0.05714 0.28731 0.0
C381 C 0.58859 0.08606 0.26876 0.0
C382 C 0.61909 0.09573 0.26963 0.0
C383 C 0.63961 0.12373 0.25403 0.0
C384 C 0.62983 0.14215 0.23724 0.0
C385 C 0.5995 0.13262 0.23615 0.0
C386 C 0.5789 0.10473 0.25207 0.0
C387 C 0.50396 0.02146 0.45696 0.0
C388 C 0.49085 0.03941 0.45724 0.0
C389 C 0.51694 0.0182 0.42019 0.0
C390 C 0.5165 0.03232 0.38273 0.0
C391 C 0.50281 0.04972 0.38298 0.0
C392 C 0.4903 0.05333 0.41969 0.0
C393 C 0.5315 0.03046 0.34375 0.0
C394 C 0.55137 0.05703 0.32326 0.0
C395 C 0.52696 1.00319 0.32702 0.0
C396 C 0.50492 0.97415 0.34521 0.0
C397 C 0.47512 0.96671 0.35027 0.0
C398 C 0.45448 0.93937 0.36767 0.0
C399 C 0.46333 0.91918 0.37983 0.0
C400 C 0.49282 0.92626 0.37452 0.0
C401 C 0.51355 0.95358 0.35718 0.0
H402 H 0.44732 0.89803 0.39329 0.0
H403 H 0.64575 0.16382 0.22514 0.0
H404 H 0.60149 0.57751 0.292 0.0
H405 H 0.57534 0.54825 0.35403 0.0
H406 H 0.62975 0.62347 0.43338 0.0
H407 H 0.65606 0.65266 0.37201 0.0
H408 H 0.62204 0.57357 0.469 0.0
H409 H 0.56097 0.60762 0.4065 0.0
H410 H 0.53316 0.61458 0.3493 0.0
H411 H 0.4766 0.52006 0.33863 0.0
H412 H 0.50446 0.51253 0.39534 0.0
H413 H 0.4822 0.52173 0.61268 0.0
H414 H 0.51193 0.54713 0.55124 0.0
H415 H 0.55176 0.4917 0.55506 0.0
H416 H 0.52271 0.46688 0.61787 0.0
H417 H 0.51286 0.53059 0.47672 0.0
H418 H 0.62034 0.52708 0.51008 0.0
H419 H 0.64976 0.52655 0.57044 0.0
H420 H 0.6154 0.57074 0.64623 0.0
H421 H 0.58608 0.57187 0.5862 0.0
C422 C 0.60806 0.58776 0.32267 0.0
C423 C 0.63077 0.61758 0.3268 0.0
C424 C 0.59303 0.57101 0.35813 0.0
C425 C 0.60038 0.58371 0.39845 0.0
C426 C 0.62367 0.61312 0.40271 0.0
C427 C 0.63861 0.62986 0.36739 0.0
C428 C 0.58306 0.56701 0.4361 0.0
C429 C 0.59813 0.56398 0.4706 0.0
C430 C 0.55195 0.55506 0.43871 0.0
C431 C 0.53501 0.55949 0.40483 0.0
C432 C 0.54276 0.5883 0.39173 0.0
C433 C 0.52697 0.59236 0.35942 0.0
C434 C 0.50318 0.56777 0.34026 0.0
C435 C 0.49508 0.53908 0.35345 0.0
C436 C 0.51086 0.5349 0.38567 0.0
C437 C 0.49745 0.51505 0.6007 0.0
C438 C 0.50013 0.49231 0.62036 0.0
C439 C 0.51439 0.52954 0.56532 0.0
C440 C 0.53432 0.52156 0.5483 0.0
C441 C 0.53702 0.49876 0.56784 0.0
C442 C 0.52034 0.48451 0.60377 0.0
C443 C 0.55178 0.53699 0.5099 0.0
C444 C 0.53672 0.53982 0.47512 0.0
C445 C 0.58303 0.54953 0.50757 0.0
C446 C 0.60076 0.54923 0.54378 0.0
C447 C 0.61914 0.53675 0.5396 0.0
C448 C 0.63579 0.53634 0.57376 0.0
C449 C 0.63437 0.5485 0.61219 0.0
C450 C 0.61639 0.56122 0.6165 0.0
C451 C 0.59972 0.56172 0.58243 0.0
H452 H 0.64725 0.54814 0.6386 0.0
H453 H 0.49096 0.57095 0.31527 0.0
H454 H 0.0666 0.48072 0.76554 0.0
H455 H 0.07213 0.50766 0.70028 0.0
H456 H 0.04573 0.56385 0.76414 0.0
H457 H 0.03979 0.53682 0.82934 0.0
H458 H 0.01466 0.54216 0.69379 0.0
H459 H 0.11834 0.58941 0.73112 0.0
H460 H 0.1649 0.59074 0.75034 0.0
H461 H 0.16274 0.54745 0.63458 0.0
H462 H 0.11593 0.5455 0.6149 0.0
H463 H 0.04541 0.65229 0.54604 0.0
H464 H 0.04776 0.62572 0.60708 0.0
H465 H 0.07164 0.57351 0.52845 0.0
H466 H 0.0697 0.60054 0.46639 0.0
H467 H 0.10371 0.58986 0.60236 0.0
H468 H 1.00129 0.54213 0.56439 0.0
H469 H 0.95415 0.53909 0.54398 0.0
H470 H 0.95345 0.58136 0.65939 0.0
H471 H 1.00066 0.58466 0.68048 0.0
C472 C 0.06249 0.49916 0.76596 0.0
C473 C 0.0527 0.50653 0.80286 0.0
C474 C 0.0657 0.5146 0.7285 0.0
C475 C 0.05941 0.5379 0.72713 0.0
C476 C 0.05063 0.54592 0.76426 0.0
C477 C 0.04737 0.53049 0.80166 0.0
C478 C 0.0601 0.55272 0.6867 0.0
C479 C 0.03432 0.55292 0.67418 0.0
C480 C 0.08528 0.56577 0.66002 0.0
C481 C 0.11347 0.56704 0.67174 0.0
C482 C 0.12766 0.57996 0.70991 0.0
C483 C 0.15412 0.58087 0.72086 0.0
C484 C 0.16672 0.56911 0.69375 0.0
C485 C 0.15293 0.55651 0.65557 0.0
C486 C 0.12645 0.55552 0.64449 0.0
C487 C 0.05126 0.63524 0.54137 0.0
C488 C 0.05705 0.62842 0.50093 0.0
C489 C 0.05252 0.61996 0.57653 0.0
C490 C 0.05935 0.5972 0.57244 0.0
C491 C 0.06617 0.59088 0.5324 0.0
C492 C 0.06497 0.60631 0.49693 0.0
C493 C 0.05851 0.5798 0.61015 0.0
C494 C 0.0841 0.579 0.62202 0.0
C495 C 0.03308 0.56591 0.63621 0.0
C496 C 1.0046 0.56383 0.62386 0.0
C497 C 0.99116 0.55092 0.58531 0.0
C498 C 0.96441 0.5491 0.57366 0.0
C499 C 0.95087 0.56015 0.60029 0.0
C500 C 0.96398 0.57285 0.63877 0.0
C501 C 0.99068 0.5746 0.65066 0.0
H502 H 0.9302 0.5588 0.59114 0.0
H503 H 0.18721 0.56983 0.70229 0.0
H504 H 0.57216 0.03668 0.97227 0.0
H505 H 0.54522 0.03799 0.91038 0.0
H506 H 0.62561 0.11242 0.86226 0.0
H507 H 0.65234 0.1121 0.92546 0.0
H508 H 0.58134 0.11919 0.84052 0.0
H509 H 0.59982 0.03864 0.83029 0.0
H510 H 0.60011 0.99376 0.85432 0.0
H511 H 0.5048 0.94599 0.85886 0.0
H512 H 0.50393 0.99076 0.83564 0.0
H513 H 0.5226 0.09054 0.62884 0.0
H514 H 0.55364 0.09558 0.68984 0.0
H515 H 0.47537 0.03615 0.76017 0.0
H516 H 0.44426 0.03149 0.70026 0.0
H517 H 0.52219 0.02302 0.76635 0.0
H518 H 0.50621 0.10696 0.7783 0.0
H519 H 0.50828 0.15249 0.7519 0.0
H520 H 0.60298 0.19422 0.73904 0.0
H521 H 0.6014 0.14873 0.76479 0.0
C522 C 0.58399 0.05367 0.94885 0.0
C523 C 0.61442 0.0742 0.9537 0.0
C524 C 0.56862 0.05425 0.91321 0.0
C525 C 0.5835 0.07472 0.88078 0.0
C526 C 0.61359 0.09624 0.88654 0.0
C527 C 0.62887 0.09608 0.92276 0.0
C528 C 0.56793 0.07269 0.84037 0.0
C529 C 0.5688 0.09822 0.82407 0.0
C530 C 0.55145 0.04537 0.81852 0.0
C531 C 0.55182 0.01815 0.8315 0.0
C532 C 0.57892 0.0186 0.83659 0.0
C533 C 0.57919 0.99319 0.85009 0.0
C534 C 0.55249 0.96705 0.85813 0.0
C535 C 0.52546 0.96626 0.85262 0.0
C536 C 0.52506 0.99165 0.83927 0.0
C537 C 0.51198 0.07847 0.65723 0.0
C538 C 0.48084 0.06043 0.65932 0.0
C539 C 0.52977 0.08144 0.69211 0.0
C540 C 0.51682 0.06621 0.7296 0.0
C541 C 0.48587 0.04799 0.73156 0.0
C542 C 0.4681 0.04536 0.69709 0.0
C543 C 0.53523 0.06933 0.76717 0.0
C544 C 0.53494 0.04398 0.78279 0.0
C545 C 0.55265 0.09687 0.78784 0.0
C546 C 0.55365 0.12435 0.77304 0.0
C547 C 0.52745 0.12577 0.76955 0.0
C548 C 0.52853 0.15158 0.75475 0.0
C549 C 0.55574 0.1762 0.74368 0.0
C550 C 0.58192 0.17511 0.74756 0.0
C551 C 0.58095 0.14933 0.76228 0.0
H552 H 0.55653 0.19616 0.7322 0.0
H553 H 0.55274 0.94739 0.86857 0.0
H554 H 0.5877 0.64943 0.09276 0.0
H555 H 0.5594 0.62301 0.03041 0.0
H556 H 0.56102 0.54456 0.07021 0.0
H557 H 0.59069 0.57147 0.13136 0.0
H558 H 0.57213 0.55025 0.9933 0.0
H559 H 0.49622 0.55352 0.07345 0.0
H560 H 0.47253 0.57625 0.11438 0.0
H561 H 0.47738 0.62902 0.00799 0.0
H562 H 0.50146 0.60688 0.96655 0.0
H563 H 0.455 0.44454 0.86565 0.0
H564 H 0.48156 0.47513 0.92595 0.0
H565 H 0.50499 0.55428 0.85494 0.0
H566 H 0.47896 0.52373 0.79339 0.0
H567 H 0.48164 0.55016 0.94402 0.0
H568 H 0.55631 0.54191 0.86416 0.0
H569 H 0.57466 0.51318 0.82567 0.0
H570 H 0.56669 0.46336 0.937 0.0
H571 H 0.54777 0.49145 0.97598 0.0
C572 C 0.58165 0.62642 0.08852 0.0
C573 C 0.59134 0.61252 0.11717 0.0
C574 C 0.56534 0.61123 0.0528 0.0
C575 C 0.55761 0.58151 0.04547 0.0
C576 C 0.56669 0.56745 0.07477 0.0
C577 C 0.58352 0.58281 0.10996 0.0
C578 C 0.54123 0.56542 0.0066 0.0
C579 C 0.55218 0.55009 0.98301 0.0
C580 C 0.51537 0.56538 0.99222 0.0
C581 C 0.50095 0.57878 0.01705 0.0
C582 C 0.49245 0.57015 0.05888 0.0
C583 C 0.47892 0.5829 0.08216 0.0
C584 C 0.47354 0.60413 0.06384 0.0
C585 C 0.48161 0.61261 0.02216 0.0
C586 C 0.49519 0.59995 0.99876 0.0
C587 C 0.46588 0.46844 0.86244 0.0
C588 C 0.46516 0.4816 0.82418 0.0
C589 C 0.48096 0.48589 0.89719 0.0
C590 C 0.49534 0.51695 0.89489 0.0
C591 C 0.49401 0.53031 0.85732 0.0
C592 C 0.47926 0.51281 0.82213 0.0
C593 C 0.51257 0.53515 0.93153 0.0
C594 C 0.50175 0.55071 0.95451 0.0
C595 C 0.53813 0.53488 0.94594 0.0
C596 C 0.5504 0.51863 0.9229 0.0
C597 C 0.5583 0.52471 0.88037 0.0
C598 C 0.56881 0.50855 0.85846 0.0
C599 C 0.57177 0.48641 0.87884 0.0
C600 C 0.56436 0.4805 0.92124 0.0
C601 C 0.55377 0.49655 0.94327 0.0
H602 H 0.57985 0.47388 0.86181 0.0
H603 H 0.46305 0.61397 0.0819 0.0
H604 H 0.00941 0.48073 0.96685 0.0
H605 H 1.00231 0.50612 0.02673 0.0
H606 H 0.05665 0.48377 0.10342 0.0
H607 H 0.06207 0.45695 0.04517 0.0
H608 H 0.01494 0.47708 0.14866 0.0
H609 H 0.08059 0.55655 0.0574 0.0
H610 H 0.09654 0.58497 0.99139 0.0
H611 H 0.02125 0.5978 0.99597 0.0
H612 H 1.00464 0.56911 0.06178 0.0
H613 H 0.06578 0.59284 0.30357 0.0
H614 H 0.06297 0.56317 0.24214 0.0
H615 H 0.98356 0.56219 0.2012 0.0
H616 H 0.98572 0.59122 0.26322 0.0
H617 H 0.03289 0.57986 0.13762 0.0
H618 H 0.97152 0.50232 0.23558 0.0
H619 H 0.9607 0.47653 0.30367 0.0
H620 H 0.03537 0.46354 0.28794 0.0
H621 H 0.04689 0.48966 0.22001 0.0
C622 C 0.01982 0.48123 0.99649 0.0
C623 C 0.03668 0.46704 1.00074 0.0
C624 C 0.0159 0.49596 0.03077 0.0
C625 C 0.02937 0.49748 0.06979 0.0
C626 C 0.04595 0.48308 0.07395 0.0
C627 C 0.0493 0.46789 0.04018 0.0
C628 C 0.02631 0.51373 0.10661 0.0
C629 C 0.01916 0.49966 0.14603 0.0
C630 C 0.03123 0.54309 0.10369 0.0
C631 C 0.04119 0.56039 0.06422 0.0
C632 C 0.06732 0.56525 0.04416 0.0
C633 C 0.0765 0.58143 0.00681 0.0
C634 C 0.05986 0.5931 0.98942 0.0
C635 C 0.03407 0.58869 0.00943 0.0
C636 C 0.02478 0.57249 0.04676 0.0
C637 C 0.04751 0.58604 0.28177 0.0
C638 C 0.02586 0.59425 0.2885 0.0
C639 C 0.04598 0.56914 0.24662 0.0
C640 C 0.0231 0.56053 0.21703 0.0
C641 C 1.00142 0.56863 0.22361 0.0
C642 C 1.00258 0.58503 0.25925 0.0
C643 C 0.02212 0.54329 0.17915 0.0
C644 C 0.02849 0.5572 0.13979 0.0
C645 C 0.01724 0.51408 0.18221 0.0
C646 C 0.01021 0.49819 0.22289 0.0
C647 C 0.98578 0.4942 0.24681 0.0
C648 C 0.97949 0.47947 0.28534 0.0
C649 C 0.99738 0.46847 0.30017 0.0
C650 C 0.02155 0.4721 0.27644 0.0
C651 C 0.02795 0.48684 0.2379 0.0
H652 H 0.99248 0.45707 0.33001 0.0
H653 H 0.067 0.60562 0.96051 0.0
H654 H 0.67188 0.76005 0.11988 0.0
H655 H 0.67487 0.80716 0.10298 0.0
H656 H 0.72585 0.8461 0.21569 0.0
H657 H 0.7211 0.79822 0.23404 0.0
H658 H 0.69022 0.86446 0.21056 0.0
H659 H 0.75595 0.86249 0.10898 0.0
H660 H 0.77309 0.8423 0.0525 0.0
H661 H 0.70397 0.83558 0.97164 0.0
H662 H 0.68615 0.85537 0.02783 0.0
H663 H 0.72688 0.01126 0.13492 0.0
H664 H 0.73356 0.96906 0.15289 0.0
H665 H 0.65528 0.91047 0.08173 0.0
H666 H 0.64766 0.95184 0.06512 0.0
H667 H 0.71084 0.90652 0.06686 0.0
H668 H 0.64483 0.90646 0.17585 0.0
H669 H 0.6325 0.93046 0.23293 0.0
H670 H 0.71031 0.94586 0.30071 0.0
H671 H 0.72334 0.92236 0.24364 0.0
C672 C 0.68407 0.77876 0.14079 0.0
C673 C 0.69647 0.77545 0.17813 0.0
C674 C 0.68594 0.80587 0.13098 0.0
C675 C 0.70116 0.83071 0.1575 0.0
C676 C 0.71399 0.82748 0.19454 0.0
C677 C 0.71144 0.80011 0.20492 0.0
C678 C 0.7024 0.85948 0.14758 0.0
C679 C 0.69533 0.87381 0.17924 0.0
C680 C 0.7089 0.87205 0.10673 0.0
C681 C 0.71958 0.86021 0.07276 0.0
C682 C 0.74428 0.85653 0.07925 0.0
C683 C 0.75414 0.84518 0.04727 0.0
C684 C 0.73959 0.8376 0.00854 0.0
C685 C 0.7152 0.84144 1.00167 0.0
C686 C 0.70524 0.85276 0.03355 0.0
C687 C 0.71112 0.98942 0.12298 0.0
C688 C 0.68689 0.98515 0.09811 0.0
C689 C 0.71499 0.96534 0.1333 0.0
C690 C 0.69501 0.93669 0.11837 0.0
C691 C 0.67109 0.93244 0.09324 0.0
C692 C 0.66683 0.95625 0.08373 0.0
C693 C 0.69836 0.91079 0.1296 0.0
C694 C 0.7062 0.89713 0.09818 0.0
C695 C 0.69333 0.89928 0.17078 0.0
C696 C 0.68524 0.91299 0.20528 0.0
C697 C 0.65945 0.91521 0.20275 0.0
C698 C 0.6523 0.92868 0.23512 0.0
C699 C 0.67066 0.93977 0.27036 0.0
C700 C 0.69614 0.93732 0.27336 0.0
C701 C 0.70341 0.92392 0.24102 0.0
H702 H 0.6651 0.95019 0.29539 0.0
H703 H 0.74725 0.82881 0.98382 0.0
H704 H 0.97747 0.70059 0.28817 0.0
H705 H 0.93334 0.70322 0.26827 0.0
H706 H 0.91607 0.71091 0.39868 0.0
H707 H 0.9595 0.70758 0.41869 0.0
H708 H 0.86746 0.67159 0.36435 0.0
H709 H 0.9418 0.77047 0.3276 0.0
H710 H 0.98707 0.80913 0.29281 0.0
H711 H 0.94848 0.77412 0.17224 0.0
H712 H 0.90311 0.73499 0.20634 0.0
H713 H 0.77161 0.73659 0.2776 0.0
H714 H 0.82038 0.74386 0.29771 0.0
H715 H 0.79048 0.65226 0.26803 0.0
H716 H 0.74198 0.64467 0.24852 0.0
H717 H 0.86344 0.73775 0.25584 0.0
H718 H 0.81736 0.62424 0.33958 0.0
H719 H 0.77242 0.58849 0.37818 0.0
H720 H 0.75608 0.65873 0.41323 0.0
H721 H 0.80115 0.69495 0.37542 0.0
C722 C 0.9645 0.70326 0.31254 0.0
C723 C 0.972 0.70374 0.35504 0.0
C724 C 0.93926 0.70483 0.30112 0.0
C725 C 0.92126 0.70736 0.33193 0.0
C726 C 0.92936 0.70877 0.37426 0.0
C727 C 0.95433 0.70694 0.38566 0.0
C728 C 0.89314 0.70687 0.3206 0.0
C729 C 0.86672 0.68615 0.34065 0.0
C730 C 0.89196 0.72609 0.29015 0.0
C731 C 0.91916 0.74965 0.26955 0.0
C732 C 0.94305 0.77089 0.29367 0.0
C733 C 0.96872 0.79291 0.27408 0.0
C734 C 0.97068 0.79404 0.23034 0.0
C735 C 0.94694 0.7732 0.20611 0.0
C736 C 0.92124 0.75111 0.22556 0.0
C737 C 0.77544 0.71802 0.27526 0.0
C738 C 0.75268 0.69001 0.26156 0.0
C739 C 0.80339 0.72225 0.2866 0.0
C740 C 0.80904 0.69854 0.28477 0.0
C741 C 0.78659 0.67081 0.27025 0.0
C742 C 0.75878 0.66656 0.25898 0.0
C743 C 0.83797 0.70219 0.29914 0.0
C744 C 0.86438 0.72335 0.27962 0.0
C745 C 0.83932 0.68379 0.33071 0.0
C746 C 0.8125 0.66225 0.35433 0.0
C747 C 0.80427 0.63208 0.35572 0.0
C748 C 0.77875 0.61173 0.37743 0.0
C749 C 0.76136 0.62132 0.39804 0.0
C750 C 0.76951 0.65131 0.39714 0.0
C751 C 0.79503 0.67175 0.37554 0.0
H752 H 0.74159 0.60552 0.41476 0.0
H753 H 0.99057 0.8111 0.21523 0.0
H754 H 0.08024 0.76977 0.4602 0.0
H755 H 0.12136 0.81849 0.48113 0.0
H756 H 0.18405 0.79065 0.44792 0.0
H757 H 0.14336 0.742 0.42785 0.0
H758 H 0.19941 0.81884 0.51997 0.0
H759 H 0.17151 0.83754 0.38494 0.0
H760 H 0.1373 0.83786 0.33171 0.0
H761 H 0.11971 0.8943 0.41042 0.0
H762 H 0.15352 0.89396 0.46444 0.0
H763 H 0.33269 0.95549 0.51217 0.0
H764 H 0.28856 0.91059 0.48772 0.0
H765 H 0.23276 0.94154 0.54081 0.0
H766 H 0.27695 0.98673 0.56563 0.0
H767 H 0.21253 0.91294 0.46114 0.0
H768 H 0.242 0.89444 0.59556 0.0
H769 H 0.27789 0.89494 0.6465 0.0
H770 H 0.29387 0.83829 0.56584 0.0
H771 H 0.25828 0.83773 0.51413 0.0
C772 C 0.10278 0.77401 0.45731 0.0
C773 C 0.10834 0.75185 0.44205 0.0
C774 C 0.12632 0.80197 0.46914 0.0
C775 C 0.15595 0.80847 0.46572 0.0
C776 C 0.16147 0.78629 0.45089 0.0
C777 C 0.13805 0.75841 0.43921 0.0
C778 C 0.18132 0.83815 0.47791 0.0
C779 C 0.20234 0.83933 0.5067 0.0
C780 C 0.18503 0.86511 0.4614 0.0
C781 C 0.16479 0.86545 0.42893 0.0
C782 C 0.16016 0.84983 0.39105 0.0
C783 C 0.14088 0.85004 0.36071 0.0
C784 C 0.12627 0.86602 0.36773 0.0
C785 C 0.131 0.88189 0.40506 0.0
C786 C 0.15023 0.8817 0.43555 0.0
C787 C 0.31111 0.95311 0.51813 0.0
C788 C 0.30845 0.97475 0.5412 0.0
C789 C 0.28585 0.9273 0.5042 0.0
C790 C 0.25731 0.92249 0.51289 0.0
C791 C 0.25454 0.94474 0.53382 0.0
C792 C 0.27986 0.97056 0.54805 0.0
C793 C 0.23059 0.89339 0.50265 0.0
C794 C 0.20938 0.89237 0.47442 0.0
C795 C 0.22675 0.86651 0.5194 0.0
C796 C 0.24766 0.86625 0.55083 0.0
C797 C 0.25329 0.88223 0.58857 0.0
C798 C 0.27358 0.88252 0.61759 0.0
C799 C 0.28825 0.86676 0.60934 0.0
C800 C 0.28253 0.85053 0.57215 0.0
C801 C 0.26226 0.85018 0.543 0.0
H802 H 0.30398 0.86705 0.63183 0.0
H803 H 0.11135 0.86617 0.34419 0.0
H804 H 0.4269 0.33212 0.68496 0.0
H805 H 0.42647 0.28741 0.66124 0.0
H806 H 0.33461 0.23436 0.69787 0.0
H807 H 0.33519 0.27915 0.7231 0.0
H808 H 0.36307 0.20788 0.72283 0.0
H809 H 0.35734 0.2488 0.59178 0.0
H810 H 0.37136 0.28747 0.53779 0.0
H811 H 0.45771 0.29628 0.52772 0.0
H812 H 0.44435 0.25795 0.58208 0.0
H813 H 0.35747 0.07992 0.62209 0.0
H814 H 0.34718 0.1196 0.64166 0.0
H815 H 0.43947 0.18483 0.62312 0.0
H816 H 0.44991 0.14587 0.60375 0.0
H817 H 0.40382 0.20152 0.58512 0.0
H818 H 0.41011 0.16343 0.72098 0.0
H819 H 0.39546 0.12427 0.77438 0.0
H820 H 0.30644 0.10926 0.77362 0.0
H821 H 0.32048 0.14808 0.71974 0.0
C822 C 0.40641 0.31105 0.68744 0.0
C823 C 0.38101 0.30936 0.70575 0.0
C824 C 0.40617 0.28538 0.67371 0.0
C825 C 0.38037 0.25734 0.67712 0.0
C826 C 0.3548 0.25563 0.69478 0.0
C827 C 0.35512 0.28133 0.70898 0.0
C828 C 0.38062 0.22989 0.66375 0.0
C829 C 0.37144 0.20631 0.69236 0.0
C830 C 0.39184 0.22771 0.6242 0.0
C831 C 0.39989 0.25062 0.59123 0.0
C832 C 0.37938 0.25911 0.57824 0.0
C833 C 0.3872 0.28095 0.54755 0.0
C834 C 0.41542 0.29436 0.52939 0.0
C835 C 0.43586 0.28588 0.54182 0.0
C836 C 0.42816 0.26407 0.57253 0.0
C837 C 0.37559 0.10269 0.62247 0.0
C838 C 0.40449 0.10954 0.61108 0.0
C839 C 0.36968 0.12537 0.63368 0.0
C840 C 0.39256 0.15529 0.63378 0.0
C841 C 0.42138 0.16202 0.62299 0.0
C842 C 0.42731 0.13953 0.612 0.0
C843 C 0.38692 0.17997 0.64451 0.0
C844 C 0.39507 0.203 0.61535 0.0
C845 C 0.37461 0.18152 0.68337 0.0
C846 C 0.36625 0.1584 0.71599 0.0
C847 C 0.38735 0.15161 0.73196 0.0
C848 C 0.37917 0.12951 0.76235 0.0
C849 C 0.35001 0.11422 0.77729 0.0
C850 C 0.329 0.12108 0.76196 0.0
C851 C 0.33706 0.14314 0.73152 0.0
H852 H 0.34372 0.09712 0.80081 0.0
H853 H 0.42144 0.31128 0.50565 0.0
H854 H 0.13089 0.37936 0.92673 0.0
H855 H 0.17438 0.37613 0.90647 0.0
H856 H 0.15764 0.38518 0.77635 0.0
H857 H 0.11327 0.38748 0.79649 0.0
H858 H 0.18046 0.34885 0.7836 0.0
H859 H 0.20585 0.44566 0.83333 0.0
H860 H 0.20486 0.48125 0.88351 0.0
H861 H 0.24572 0.45424 0.97727 0.0
H862 H 0.24657 0.41815 0.92778 0.0
H863 H 0.35108 0.45119 0.76152 0.0
H864 H 0.30224 0.44171 0.78173 0.0
H865 H 0.27462 0.34985 0.8054 0.0
H866 H 0.32395 0.35907 0.78409 0.0
H867 H 0.27317 0.42595 0.85156 0.0
H868 H 0.19863 0.30789 0.78437 0.0
H869 H 0.19958 0.27604 0.72766 0.0
H870 H 0.25897 0.35341 0.65657 0.0
H871 H 0.25801 0.38567 0.71253 0.0
C872 C 0.13614 0.38018 0.89371 0.0
C873 C 0.11882 0.38405 0.86323 0.0
C874 C 0.16108 0.37836 0.88216 0.0
C875 C 0.16975 0.38108 0.83994 0.0
C876 C 0.15149 0.38313 0.80915 0.0
C877 C 0.12616 0.38449 0.82068 0.0
C878 C 0.19915 0.38453 0.82864 0.0
C879 C 0.20072 0.36558 0.7986 0.0
C880 C 0.22576 0.4068 0.84748 0.0
C881 C 0.22602 0.42902 0.87698 0.0
C882 C 0.2145 0.44722 0.86471 0.0
C883 C 0.21395 0.46747 0.89303 0.0
C884 C 0.22512 0.46994 0.9336 0.0
C885 C 0.23702 0.45226 0.94585 0.0
C886 C 0.23757 0.43192 0.91767 0.0
C887 C 0.33479 0.42885 0.77093 0.0
C888 C 0.34162 0.40583 0.77087 0.0
C889 C 0.30674 0.42352 0.78273 0.0
C890 C 0.28455 0.39505 0.79493 0.0
C891 C 0.29124 0.37197 0.79562 0.0
C892 C 0.31951 0.37729 0.78362 0.0
C893 C 0.25462 0.3901 0.8067 0.0
C894 C 0.25294 0.4089 0.83687 0.0
C895 C 0.22813 0.36834 0.787 0.0
C896 C 0.22852 0.34915 0.75289 0.0
C897 C 0.21181 0.31808 0.75657 0.0
C898 C 0.21235 0.29996 0.72456 0.0
C899 C 0.22941 0.31269 0.68861 0.0
C900 C 0.24585 0.34357 0.6845 0.0
C901 C 0.24534 0.36177 0.71637 0.0
H902 H 0.22983 0.29863 0.6639 0.0
H903 H 0.22462 0.48559 0.95549 0.0
H904 H 0.95191 0.3529 0.91913 0.0
H905 H 0.91003 0.30455 0.93708 0.0
H906 H 0.96999 0.27703 0.98481 0.0
H907 H 0.01249 0.32559 0.96629 0.0
H908 H 0.92471 0.23252 0.93938 0.0
H909 H 0.93383 0.29739 0.05195 0.0
H910 H 0.93869 0.34281 0.08387 0.0
H911 H 0.85461 0.32278 0.03146 0.0
H912 H 0.84945 0.27744 0.99869 0.0
H913 H 0.79023 0.13813 0.09047 0.0
H914 H 0.83702 0.18218 0.07234 0.0
H915 H 0.81968 0.15981 0.9411 0.0
H916 H 0.77274 0.11504 0.95924 0.0
H917 H 0.84615 0.22882 0.03158 0.0
H918 H 0.886 0.19045 0.88749 0.0
H919 H 0.88345 0.14487 0.86007 0.0
H920 H 0.87327 0.11073 0.98524 0.0
H921 H 0.87615 0.15625 0.01345 0.0
C922 C 0.95642 0.33667 0.93333 0.0
C923 C 0.98577 0.34336 0.94135 0.0
C924 C 0.9323 0.30894 0.94368 0.0
C925 C 0.93676 0.28717 0.96269 0.0
C926 C 0.96598 0.29346 0.97015 0.0
C927 C 0.99026 0.32132 0.95973 0.0
C928 C 0.91076 0.25828 0.97567 0.0
C929 C 0.90753 0.23167 0.95958 0.0
C930 C 0.88852 0.25705 1.00256 0.0
C931 C 0.89138 0.28414 0.02259 0.0
C932 C 0.91647 0.30277 0.04701 0.0
C933 C 0.91927 0.32849 0.06527 0.0
C934 C 0.897 0.33571 0.05962 0.0
C935 C 0.87185 0.31717 0.03578 0.0
C936 C 0.86897 0.29144 0.01738 0.0
C937 C 0.7964 0.14233 0.0577 0.0
C938 C 0.77758 0.12302 0.02629 0.0
C939 C 0.82323 0.16766 0.04737 0.0
C940 C 0.83206 0.1745 0.00534 0.0
C941 C 0.81365 0.15491 0.97382 0.0
C942 C 0.78676 0.12931 0.98421 0.0
C943 C 0.85973 0.20286 0.99489 0.0
C944 C 0.86326 0.22951 0.0114 0.0
C945 C 0.88244 0.20398 0.96907 0.0
C946 C 0.88098 0.17664 0.9525 0.0
C947 C 0.88332 0.17326 0.90916 0.0
C948 C 0.8818 0.14742 0.89349 0.0
C949 C 0.8781 0.12488 0.92088 0.0
C950 C 0.87601 0.12816 0.96404 0.0
C951 C 0.87754 0.15396 0.97988 0.0
H952 H 0.87691 0.10489 0.90868 0.0
H953 H 0.89922 0.35564 0.07378 0.0
loop_
_geom_bond_atom_site_label_1
_geom_bond_atom_site_label_2
_geom_bond_distance
_geom_bond_site_symmetry_2
_ccdc_geom_bond_type
Co0 O2 2.143 . S
Co0 O8 2.074 . S
Co0 O11 2.093 1_554 S
Co0 O24 2.097 . S
Co0 N41 2.151 1_554 S
Co0 N49 2.214 1_545 S
Co1 O2 2.160 . S
Co1 O7 2.058 . S
Co1 O17 2.057 . S
Co1 O32 2.037 . S
Co1 N36 2.145 . S
Co1 N57 2.257 . S
O2 Co0 2.143 . S
O2 Co1 2.160 . S
C3 O4 1.278 . S
C3 O11 1.224 . S
O4 C3 1.278 . S
C5 O6 1.258 . S
C5 O17 1.232 . S
O6 C5 1.258 . S
O7 Co1 2.058 . S
O7 C33 1.269 . S
O8 Co0 2.074 . S
O8 C33 1.257 . S
H9 C34 0.930 . S
H10 C40 0.930 . S
O11 Co0 2.093 1_556 S
O11 C3 1.224 . S
H12 C44 0.929 . S
H13 C46 0.930 1_556 S
H14 C47 0.930 . S
H15 C45 0.929 1_554 S
H16 C48 0.928 1_556 S
O17 Co1 2.057 . S
O17 C5 1.232 . S
H18 C37 0.929 . S
H19 C38 0.929 . S
H20 C50 0.931 . S
H21 C42 0.929 . S
H22 C51 0.930 . S
H23 C43 0.931 . S
O24 Co0 2.097 . S
O24 C52 1.214 . S
H25 C53 0.929 . S
H26 C54 0.929 . S
H27 C55 0.930 . S
H28 C56 0.929 . S
H29 C58 0.930 . S
H30 C35 0.930 . S
H31 C39 0.930 . S
O32 Co1 2.037 . S
O32 C52 1.234 . S
C33 O7 1.269 . S
C33 O8 1.257 . S
C34 H9 0.930 . S
C34 C37 1.388 . S
C34 C39 1.418 . S
C35 H30 0.930 . S
C35 C38 1.404 . S
C35 C39 1.353 . S
N36 Co1 2.145 . S
N36 C37 1.397 . S
N36 C38 1.334 . S
C37 H18 0.929 . S
C37 C34 1.388 . S
C37 N36 1.397 . S
C38 H19 0.929 . S
C38 C35 1.404 . S
C38 N36 1.334 . S
C39 H31 0.930 . S
C39 C34 1.418 . S
C39 C35 1.353 . S
C40 H10 0.930 . S
C40 N41 1.330 . S
C40 C42 1.446 . S
N41 Co0 2.151 1_556 S
N41 C40 1.330 . S
N41 C45 1.418 1_545 S
C42 H21 0.929 . S
C42 C40 1.446 . S
C42 C43 1.332 1_545 S
C43 H23 0.931 . S
C43 C42 1.332 1_565 S
C43 C44 1.267 . S
C44 H12 0.929 . S
C44 C43 1.267 . S
C44 C45 1.251 . S
C45 H15 0.929 1_556 S
C45 N41 1.418 1_565 S
C45 C44 1.251 . S
C46 H13 0.930 1_554 S
C46 C48 1.406 . S
C46 C51 1.261 . S
C47 H14 0.930 . S
C47 N49 1.325 . S
C47 C50 1.357 . S
C48 H16 0.928 1_554 S
C48 C46 1.406 . S
C48 N49 1.261 . S
N49 Co0 2.214 1_565 S
N49 C47 1.325 . S
N49 C48 1.261 . S
C50 H20 0.931 . S
C50 C47 1.357 . S
C50 C51 1.312 . S
C51 H22 0.930 . S
C51 C46 1.261 . S
C51 C50 1.312 . S
C52 O24 1.214 . S
C52 O32 1.234 . S
C53 H25 0.929 . S
C53 C56 1.391 . S
C53 C58 1.391 . S
C54 H26 0.929 . S
C54 C55 1.390 . S
C54 N57 1.391 . S
C55 H27 0.930 . S
C55 C54 1.390 . S
C55 C56 1.392 . S
C56 H28 0.929 . S
C56 C53 1.391 . S
C56 C55 1.392 . S
N57 Co1 2.257 . S
N57 C54 1.391 . S
N57 C58 1.388 . S
C58 H29 0.930 . S
C58 C53 1.391 . S
C58 N57 1.388 . S
Co59 O61 2.143 . S
Co59 O67 2.074 . S
Co59 O70 2.093 . S
Co59 O83 2.097 . S
Co59 N100 2.151 . S
Co59 N108 2.214 . S
Co60 O61 2.160 . S
Co60 O66 2.058 . S
Co60 O76 2.057 . S
Co60 O91 2.037 . S
Co60 N95 2.145 . S
Co60 N116 2.257 . S
O61 Co59 2.143 . S
O61 Co60 2.160 . S
C62 O63 1.278 . S
C62 O70 1.224 . S
O63 C62 1.278 . S
C64 O65 1.245 . S
C64 O76 1.232 . S
O65 C64 1.245 . S
O66 Co60 2.058 . S
O66 C92 1.269 . S
O67 Co59 2.074 . S
O67 C92 1.257 . S
H68 C93 0.930 . S
H69 C99 0.930 . S
O70 Co59 2.093 . S
O70 C62 1.224 . S
H71 C103 0.929 . S
H72 C105 0.930 . S
H73 C106 0.930 . S
H74 C104 0.929 . S
H75 C107 0.928 . S
O76 Co60 2.057 . S
O76 C64 1.232 . S
H77 C96 0.929 . S
H78 C97 0.929 . S
H79 C109 0.931 . S
H80 C101 0.929 . S
H81 C110 0.930 . S
H82 C102 0.931 . S
O83 Co59 2.097 . S
O83 C111 1.214 . S
H84 C112 0.929 . S
H85 C113 0.929 . S
H86 C114 0.930 . S
H87 C115 0.929 . S
H88 C117 0.930 . S
H89 C94 0.930 . S
H90 C98 0.930 . S
O91 Co60 2.037 . S
O91 C111 1.234 . S
C92 O66 1.269 . S
C92 O67 1.257 . S
C93 H68 0.930 . S
C93 C96 1.388 . S
C93 C98 1.418 . S
C94 H89 0.930 . S
C94 C97 1.404 . S
C94 C98 1.353 . S
N95 Co60 2.145 . S
N95 C96 1.397 . S
N95 C97 1.334 . S
C96 H77 0.929 . S
C96 C93 1.388 . S
C96 N95 1.397 . S
C97 H78 0.929 . S
C97 C94 1.404 . S
C97 N95 1.334 . S
C98 H90 0.930 . S
C98 C93 1.418 . S
C98 C94 1.353 . S
C99 H69 0.930 . S
C99 N100 1.330 . S
C99 C101 1.446 . S
N100 Co59 2.151 . S
N100 C99 1.330 . S
N100 C104 1.418 . S
C101 H80 0.929 . S
C101 C99 1.446 . S
C101 C102 1.332 . S
C102 H82 0.931 . S
C102 C101 1.332 . S
C102 C103 1.267 . S
C103 H71 0.929 . S
C103 C102 1.267 . S
C103 C104 1.251 . S
C104 H74 0.929 . S
C104 N100 1.418 . S
C104 C103 1.251 . S
C105 H72 0.930 . S
C105 C107 1.406 . S
C105 C110 1.261 . S
C106 H73 0.930 . S
C106 N108 1.325 . S
C106 C109 1.357 . S
C107 H75 0.928 . S
C107 C105 1.406 . S
C107 N108 1.261 . S
N108 Co59 2.214 . S
N108 C106 1.325 . S
N108 C107 1.261 . S
C109 H79 0.931 . S
C109 C106 1.357 . S
C109 C110 1.312 . S
C110 H81 0.930 . S
C110 C105 1.261 . S
C110 C109 1.312 . S
C111 O83 1.214 . S
C111 O91 1.234 . S
C112 H84 0.929 . S
C112 C115 1.391 . S
C112 C117 1.391 . S
C113 H85 0.929 . S
C113 C114 1.390 . S
C113 N116 1.391 . S
C114 H86 0.930 . S
C114 C113 1.390 . S
C114 C115 1.392 . S
C115 H87 0.929 . S
C115 C112 1.391 . S
C115 C114 1.392 . S
N116 Co60 2.257 . S
N116 C113 1.391 . S
N116 C117 1.388 . S
C117 H88 0.930 . S
C117 C112 1.391 . S
C117 N116 1.388 . S
Co118 O120 2.143 . S
Co118 O126 2.074 . S
Co118 O129 2.093 . S
Co118 O142 2.097 . S
Co118 N159 2.151 . S
Co118 N167 2.214 . S
Co119 O120 2.160 . S
Co119 O125 2.058 . S
Co119 O135 2.057 1_455 S
Co119 O150 2.037 . S
Co119 N154 2.145 1_455 S
Co119 N175 2.257 1_455 S
O120 Co118 2.143 . S
O120 Co119 2.160 . S
C121 O122 1.278 1_455 S
C121 O129 1.224 . S
O122 C121 1.278 1_655 S
C123 O124 1.245 . S
C123 O135 1.232 . S
O124 C123 1.245 . S
O125 Co119 2.058 . S
O125 C151 1.269 . S
O126 Co118 2.074 . S
O126 C151 1.257 . S
H127 C152 0.930 . S
H128 C158 0.930 . S
O129 Co118 2.093 . S
O129 C121 1.224 . S
H130 C162 0.929 . S
H131 C164 0.930 . S
H132 C165 0.930 . S
H133 C163 0.929 . S
H134 C166 0.928 . S
O135 Co119 2.057 1_655 S
O135 C123 1.232 . S
H136 C155 0.929 1_455 S
H137 C156 0.929 . S
H138 C168 0.931 . S
H139 C160 0.929 . S
H140 C169 0.930 . S
H141 C161 0.931 . S
O142 Co118 2.097 . S
O142 C170 1.214 . S
H143 C171 0.929 . S
H144 C172 0.929 . S
H145 C173 0.930 . S
H146 C174 0.929 . S
H147 C176 0.930 . S
H148 C153 0.930 . S
H149 C157 0.930 . S
O150 Co119 2.037 . S
O150 C170 1.234 . S
C151 O125 1.269 . S
C151 O126 1.257 . S
C152 H127 0.930 . S
C152 C155 1.388 . S
C152 C157 1.418 . S
C153 H148 0.930 . S
C153 C156 1.404 . S
C153 C157 1.353 . S
N154 Co119 2.145 1_655 S
N154 C155 1.397 . S
N154 C156 1.334 . S
C155 H136 0.929 1_655 S
C155 C152 1.388 . S
C155 N154 1.397 . S
C156 H137 0.929 . S
C156 C153 1.404 . S
C156 N154 1.334 . S
C157 H149 0.930 . S
C157 C152 1.418 . S
C157 C153 1.353 . S
C158 H128 0.930 . S
C158 N159 1.330 . S
C158 C160 1.446 . S
N159 Co118 2.151 . S
N159 C158 1.330 . S
N159 C163 1.418 . S
C160 H139 0.929 . S
C160 C158 1.446 . S
C160 C161 1.332 . S
C161 H141 0.931 . S
C161 C160 1.332 . S
C161 C162 1.267 . S
C162 H130 0.929 . S
C162 C161 1.267 . S
C162 C163 1.251 . S
C163 H133 0.929 . S
C163 N159 1.418 . S
C163 C162 1.251 . S
C164 H131 0.930 . S
C164 C166 1.406 . S
C164 C169 1.261 . S
C165 H132 0.930 . S
C165 N167 1.325 . S
C165 C168 1.357 . S
C166 H134 0.928 . S
C166 C164 1.406 . S
C166 N167 1.261 . S
N167 Co118 2.214 . S
N167 C165 1.325 . S
N167 C166 1.261 . S
C168 H138 0.931 . S
C168 C165 1.357 . S
C168 C169 1.312 . S
C169 H140 0.930 . S
C169 C164 1.261 . S
C169 C168 1.312 . S
C170 O142 1.214 . S
C170 O150 1.234 . S
C171 H143 0.929 . S
C171 C174 1.391 . S
C171 C176 1.391 . S
C172 H144 0.929 . S
C172 C173 1.390 . S
C172 N175 1.391 . S
C173 H145 0.930 . S
C173 C172 1.390 . S
C173 C174 1.392 . S
C174 H146 0.929 . S
C174 C171 1.391 . S
C174 C173 1.392 . S
N175 Co119 2.257 1_655 S
N175 C172 1.391 . S
N175 C176 1.388 . S
C176 H147 0.930 . S
C176 C171 1.391 . S
C176 N175 1.388 . S
Co177 O179 2.143 . S
Co177 O185 2.074 . S
Co177 O188 2.093 . S
Co177 O201 2.097 . S
Co177 N218 2.151 . S
Co177 N226 2.214 . S
Co178 O179 2.160 . S
Co178 O184 2.058 . S
Co178 O194 2.057 1_545 S
Co178 O209 2.037 . S
Co178 N213 2.145 1_545 S
Co178 N234 2.257 1_545 S
O179 Co177 2.143 . S
O179 Co178 2.160 . S
C180 O181 1.278 . S
C180 O188 1.224 . S
O181 C180 1.278 . S
C182 O183 1.245 . S
C182 O194 1.232 . S
O183 C182 1.245 . S
O184 Co178 2.058 . S
O184 C210 1.269 . S
O185 Co177 2.074 . S
O185 C210 1.257 . S
H186 C211 0.930 1_545 S
H187 C217 0.930 . S
O188 Co177 2.093 . S
O188 C180 1.224 . S
H189 C221 0.929 . S
H190 C223 0.930 . S
H191 C224 0.930 . S
H192 C222 0.929 . S
H193 C225 0.928 . S
O194 Co178 2.057 1_565 S
O194 C182 1.232 . S
H195 C214 0.929 . S
H196 C215 0.929 . S
H197 C227 0.931 . S
H198 C219 0.929 . S
H199 C228 0.930 . S
H200 C220 0.931 . S
O201 Co177 2.097 . S
O201 C229 1.214 . S
H202 C230 0.929 . S
H203 C231 0.929 . S
H204 C232 0.930 . S
H205 C233 0.929 . S
H206 C235 0.930 . S
H207 C212 0.930 . S
H208 C216 0.930 . S
O209 Co178 2.037 . S
O209 C229 1.234 . S
C210 O184 1.269 . S
C210 O185 1.257 . S
C211 H186 0.930 1_565 S
C211 C214 1.388 1_565 S
C211 C216 1.418 . S
C212 H207 0.930 . S
C212 C215 1.404 . S
C212 C216 1.353 . S
N213 Co178 2.145 1_565 S
N213 C214 1.397 1_565 S
N213 C215 1.334 . S
C214 H195 0.929 . S
C214 C211 1.388 1_545 S
C214 N213 1.397 1_545 S
C215 H196 0.929 . S
C215 C212 1.404 . S
C215 N213 1.334 . S
C216 H208 0.930 . S
C216 C211 1.418 . S
C216 C212 1.353 . S
C217 H187 0.930 . S
C217 N218 1.330 . S
C217 C219 1.446 . S
N218 Co177 2.151 . S
N218 C217 1.330 . S
N218 C222 1.418 . S
C219 H198 0.929 . S
C219 C217 1.446 . S
C219 C220 1.332 . S
C220 H200 0.931 . S
C220 C219 1.332 . S
C220 C221 1.267 . S
C221 H189 0.929 . S
C221 C220 1.267 . S
C221 C222 1.251 . S
C222 H192 0.929 . S
C222 N218 1.418 . S
C222 C221 1.251 . S
C223 H190 0.930 . S
C223 C225 1.406 . S
C223 C228 1.261 . S
C224 H191 0.930 . S
C224 N226 1.325 . S
C224 C227 1.357 . S
C225 H193 0.928 . S
C225 C223 1.406 . S
C225 N226 1.261 . S
N226 Co177 2.214 . S
N226 C224 1.325 . S
N226 C225 1.261 . S
C227 H197 0.931 . S
C227 C224 1.357 . S
C227 C228 1.312 . S
C228 H199 0.930 . S
C228 C223 1.261 . S
C228 C227 1.312 . S
C229 O201 1.214 . S
C229 O209 1.234 . S
C230 H202 0.929 . S
C230 C233 1.391 . S
C230 C235 1.391 . S
C231 H203 0.929 . S
C231 C232 1.390 . S
C231 N234 1.391 . S
C232 H204 0.930 . S
C232 C231 1.390 . S
C232 C233 1.392 . S
C233 H205 0.929 . S
C233 C230 1.391 . S
C233 C232 1.392 . S
N234 Co178 2.257 1_565 S
N234 C231 1.391 . S
N234 C235 1.388 . S
C235 H206 0.930 . S
C235 C230 1.391 . S
C235 N234 1.388 . S
Co236 O238 2.143 . S
Co236 O244 2.074 . S
Co236 O247 2.093 . S
Co236 O260 2.097 . S
Co236 N277 2.151 . S
Co236 N285 2.214 . S
Co237 O238 2.160 . S
Co237 O243 2.058 . S
Co237 O253 2.057 . S
Co237 O268 2.037 . S
Co237 N272 2.145 . S
Co237 N293 2.257 . S
O238 Co236 2.143 . S
O238 Co237 2.160 . S
C239 O240 1.278 . S
C239 O247 1.224 . S
O240 C239 1.278 . S
C241 O242 1.245 . S
C241 O253 1.232 . S
O242 C241 1.245 . S
O243 Co237 2.058 . S
O243 C269 1.269 . S
O244 Co236 2.074 . S
O244 C269 1.257 . S
H245 C270 0.930 . S
H246 C276 0.930 . S
O247 Co236 2.093 . S
O247 C239 1.224 . S
H248 C280 0.929 . S
H249 C282 0.930 . S
H250 C283 0.930 . S
H251 C281 0.929 . S
H252 C284 0.928 . S
O253 Co237 2.057 . S
O253 C241 1.232 . S
H254 C273 0.929 . S
H255 C274 0.929 . S
H256 C286 0.931 . S
H257 C278 0.929 . S
H258 C287 0.930 . S
H259 C279 0.931 . S
O260 Co236 2.097 . S
O260 C288 1.214 . S
H261 C289 0.929 . S
H262 C290 0.929 . S
H263 C291 0.930 . S
H264 C292 0.929 . S
H265 C294 0.930 . S
H266 C271 0.930 . S
H267 C275 0.930 . S
O268 Co237 2.037 . S
O268 C288 1.234 . S
C269 O243 1.269 . S
C269 O244 1.257 . S
C270 H245 0.930 . S
C270 C273 1.388 . S
C270 C275 1.418 . S
C271 H266 0.930 . S
C271 C274 1.404 . S
C271 C275 1.353 . S
N272 Co237 2.145 . S
N272 C273 1.397 . S
N272 C274 1.334 . S
C273 H254 0.929 . S
C273 C270 1.388 . S
C273 N272 1.397 . S
C274 H255 0.929 . S
C274 C271 1.404 . S
C274 N272 1.334 . S
C275 H267 0.930 . S
C275 C270 1.418 . S
C275 C271 1.353 . S
C276 H246 0.930 . S
C276 N277 1.330 . S
C276 C278 1.446 . S
N277 Co236 2.151 . S
N277 C276 1.330 . S
N277 C281 1.418 . S
C278 H257 0.929 . S
C278 C276 1.446 . S
C278 C279 1.332 . S
C279 H259 0.931 . S
C279 C278 1.332 . S
C279 C280 1.267 . S
C280 H248 0.929 . S
C280 C279 1.267 . S
C280 C281 1.251 . S
C281 H251 0.929 . S
C281 N277 1.418 . S
C281 C280 1.251 . S
C282 H249 0.930 . S
C282 C284 1.406 . S
C282 C287 1.261 . S
C283 H250 0.930 . S
C283 N285 1.325 . S
C283 C286 1.357 . S
C284 H252 0.928 . S
C284 C282 1.406 . S
C284 N285 1.261 . S
N285 Co236 2.214 . S
N285 C283 1.325 . S
N285 C284 1.261 . S
C286 H256 0.931 . S
C286 C283 1.357 . S
C286 C287 1.312 . S
C287 H258 0.930 . S
C287 C282 1.261 . S
C287 C286 1.312 . S
C288 O260 1.214 . S
C288 O268 1.234 . S
C289 H261 0.929 . S
C289 C292 1.391 . S
C289 C294 1.391 . S
C290 H262 0.929 . S
C290 C291 1.390 . S
C290 N293 1.391 . S
C291 H263 0.930 . S
C291 C290 1.390 . S
C291 C292 1.392 . S
C292 H264 0.929 . S
C292 C289 1.391 . S
C292 C291 1.392 . S
N293 Co237 2.257 . S
N293 C290 1.391 . S
N293 C294 1.388 . S
C294 H265 0.930 . S
C294 C289 1.391 . S
C294 N293 1.388 . S
Co295 O297 2.143 . S
Co295 O303 2.074 . S
Co295 O306 2.093 . S
Co295 O319 2.097 . S
Co295 N336 2.151 . S
Co295 N344 2.214 1_455 S
Co296 O297 2.160 . S
Co296 O302 2.058 . S
Co296 O312 2.057 . S
Co296 O327 2.037 . S
Co296 N331 2.145 . S
Co296 N352 2.257 . S
O297 Co295 2.143 . S
O297 Co296 2.160 . S
C298 O299 1.278 . S
C298 O306 1.224 . S
O299 C298 1.278 . S
C300 O301 1.245 . S
C300 O312 1.232 . S
O301 C300 1.245 . S
O302 Co296 2.058 . S
O302 C328 1.269 . S
O303 Co295 2.074 . S
O303 C328 1.257 . S
H304 C329 0.930 . S
H305 C335 0.930 . S
O306 Co295 2.093 . S
O306 C298 1.224 . S
H307 C339 0.929 . S
H308 C341 0.930 . S
H309 C342 0.930 . S
H310 C340 0.929 . S
H311 C343 0.928 . S
O312 Co296 2.057 . S
O312 C300 1.232 . S
H313 C332 0.929 . S
H314 C333 0.929 . S
H315 C345 0.931 . S
H316 C337 0.929 . S
H317 C346 0.930 . S
H318 C338 0.931 . S
O319 Co295 2.097 . S
O319 C347 1.214 . S
H320 C348 0.929 . S
H321 C349 0.929 . S
H322 C350 0.930 . S
H323 C351 0.929 . S
H324 C353 0.930 . S
H325 C330 0.930 . S
H326 C334 0.930 . S
O327 Co296 2.037 . S
O327 C347 1.234 . S
C328 O302 1.269 . S
C328 O303 1.257 . S
C329 H304 0.930 . S
C329 C332 1.388 . S
C329 C334 1.418 . S
C330 H325 0.930 . S
C330 C333 1.404 1_554 S
C330 C334 1.353 . S
N331 Co296 2.145 . S
N331 C332 1.397 1_556 S
N331 C333 1.334 . S
C332 H313 0.929 . S
C332 C329 1.388 . S
C332 N331 1.397 1_554 S
C333 H314 0.929 . S
C333 C330 1.404 1_556 S
C333 N331 1.334 . S
C334 H326 0.930 . S
C334 C329 1.418 . S
C334 C330 1.353 . S
C335 H305 0.930 . S
C335 N336 1.330 . S
C335 C337 1.446 . S
N336 Co295 2.151 . S
N336 C335 1.330 . S
N336 C340 1.418 1_455 S
C337 H316 0.929 . S
C337 C335 1.446 . S
C337 C338 1.332 1_455 S
C338 H318 0.931 . S
C338 C337 1.332 1_655 S
C338 C339 1.267 . S
C339 H307 0.929 . S
C339 C338 1.267 . S
C339 C340 1.251 . S
C340 H310 0.929 . S
C340 N336 1.418 1_655 S
C340 C339 1.251 . S
C341 H308 0.930 . S
C341 C343 1.406 . S
C341 C346 1.261 . S
C342 H309 0.930 . S
C342 N344 1.325 . S
C342 C345 1.357 . S
C343 H311 0.928 . S
C343 C341 1.406 . S
C343 N344 1.261 . S
N344 Co295 2.214 1_655 S
N344 C342 1.325 . S
N344 C343 1.261 . S
C345 H315 0.931 . S
C345 C342 1.357 . S
C345 C346 1.312 . S
C346 H317 0.930 . S
C346 C341 1.261 . S
C346 C345 1.312 . S
C347 O319 1.214 . S
C347 O327 1.234 . S
C348 H320 0.929 . S
C348 C351 1.391 . S
C348 C353 1.391 . S
C349 H321 0.929 . S
C349 C350 1.390 . S
C349 N352 1.391 . S
C350 H322 0.930 . S
C350 C349 1.390 . S
C350 C351 1.392 . S
C351 H323 0.929 . S
C351 C348 1.391 . S
C351 C350 1.392 . S
N352 Co296 2.257 . S
N352 C349 1.391 . S
N352 C353 1.388 . S
C353 H324 0.930 . S
C353 C348 1.391 . S
C353 N352 1.388 . S
H354 C372 0.951 . S
H355 C374 0.951 . S
H356 C376 0.950 . S
H357 C377 0.950 . S
H358 C379 0.950 1_565 S
H359 C382 0.950 . S
H360 C383 0.950 . S
H361 C385 0.950 . S
H362 C386 0.950 . S
H363 C387 0.927 1_565 S
H364 C389 0.951 . S
H365 C391 0.950 . S
H366 C392 0.950 . S
H367 C394 0.950 . S
H368 C397 0.950 . S
H369 C398 0.950 . S
H370 C400 0.950 . S
H371 C401 0.950 . S
C372 H354 0.951 . S
C372 C373 1.366 . S
C372 C374 1.388 . S
C373 C372 1.366 . S
C373 C377 1.385 . S
C374 H355 0.951 . S
C374 C372 1.388 . S
C374 C375 1.366 . S
C375 C374 1.366 . S
C375 C376 1.414 . S
C375 C378 1.499 . S
C376 H356 0.950 . S
C376 C375 1.414 . S
C376 C377 1.374 . S
C377 H357 0.950 . S
C377 C373 1.385 . S
C377 C376 1.374 . S
C378 C375 1.499 . S
C378 C379 1.373 . S
C378 C380 1.389 . S
C379 H358 0.950 1_545 S
C379 C378 1.373 . S
C379 C395 1.377 . S
C380 C378 1.389 . S
C380 C381 1.524 . S
C380 C394 1.377 . S
C381 C380 1.524 . S
C381 C382 1.397 . S
C381 C386 1.363 . S
C382 H359 0.950 . S
C382 C381 1.397 . S
C382 C383 1.334 . S
C383 H360 0.950 . S
C383 C382 1.334 . S
C383 C384 1.287 . S
C384 C383 1.287 . S
C384 C385 1.524 . S
C384 H403 0.913 . S
C385 H361 0.950 . S
C385 C384 1.524 . S
C385 C386 1.415 . S
C386 H362 0.950 . S
C386 C381 1.363 . S
C386 C385 1.415 . S
C387 H363 0.927 1_545 S
C387 C388 1.366 . S
C387 C389 1.388 . S
C388 C387 1.366 . S
C388 C392 1.385 . S
C389 H364 0.951 . S
C389 C387 1.388 . S
C389 C390 1.366 . S
C390 C389 1.366 . S
C390 C391 1.414 . S
C390 C393 1.499 . S
C391 H365 0.950 . S
C391 C390 1.414 . S
C391 C392 1.374 . S
C392 H366 0.950 . S
C392 C388 1.385 . S
C392 C391 1.374 . S
C393 C390 1.499 . S
C393 C394 1.373 . S
C393 C395 1.389 . S
C394 H367 0.950 . S
C394 C380 1.377 . S
C394 C393 1.373 . S
C395 C379 1.377 . S
C395 C393 1.389 . S
C395 C396 1.524 1_545 S
C396 C395 1.524 1_565 S
C396 C397 1.397 . S
C396 C401 1.363 . S
C397 H368 0.950 . S
C397 C396 1.397 . S
C397 C398 1.334 . S
C398 H369 0.950 . S
C398 C397 1.334 . S
C398 C399 1.287 . S
C399 C398 1.287 . S
C399 C400 1.524 . S
C399 H402 0.999 . S
C400 H370 0.950 . S
C400 C399 1.524 . S
C400 C401 1.415 . S
C401 H371 0.950 . S
C401 C396 1.363 . S
C401 C400 1.415 . S
H402 C399 0.999 . S
H403 C384 0.913 . S
H404 C422 0.951 . S
H405 C424 0.951 . S
H406 C426 0.950 . S
H407 C427 0.950 . S
H408 C429 0.950 . S
H409 C432 0.950 . S
H410 C433 0.950 . S
H411 C435 0.950 . S
H412 C436 0.950 . S
H413 C437 0.951 . S
H414 C439 0.951 . S
H415 C441 0.950 . S
H416 C442 0.950 . S
H417 C444 0.950 . S
H418 C447 0.950 . S
H419 C448 0.950 . S
H420 C450 0.950 . S
H421 C451 0.950 . S
C422 H404 0.951 . S
C422 C423 1.366 . S
C422 C424 1.388 . S
C423 C422 1.366 . S
C423 C427 1.385 . S
C424 H405 0.951 . S
C424 C422 1.388 . S
C424 C425 1.366 . S
C425 C424 1.366 . S
C425 C426 1.414 . S
C425 C428 1.499 . S
C426 H406 0.950 . S
C426 C425 1.414 . S
C426 C427 1.374 . S
C427 H407 0.950 . S
C427 C423 1.385 . S
C427 C426 1.374 . S
C428 C425 1.499 . S
C428 C429 1.373 . S
C428 C430 1.389 . S
C429 H408 0.950 . S
C429 C428 1.373 . S
C429 C445 1.377 . S
C430 C428 1.389 . S
C430 C431 1.524 . S
C430 C444 1.377 . S
C431 C430 1.524 . S
C431 C432 1.397 . S
C431 C436 1.363 . S
C432 H409 0.950 . S
C432 C431 1.397 . S
C432 C433 1.334 . S
C433 H410 0.950 . S
C433 C432 1.334 . S
C433 C434 1.287 . S
C434 C433 1.287 . S
C434 C435 1.524 . S
C434 H453 0.913 . S
C435 H411 0.950 . S
C435 C434 1.524 . S
C435 C436 1.415 . S
C436 H412 0.950 . S
C436 C431 1.363 . S
C436 C435 1.415 . S
C437 H413 0.951 . S
C437 C438 1.366 . S
C437 C439 1.388 . S
C438 C437 1.366 . S
C438 C442 1.385 . S
C439 H414 0.951 . S
C439 C437 1.388 . S
C439 C440 1.366 . S
C440 C439 1.366 . S
C440 C441 1.414 . S
C440 C443 1.499 . S
C441 H415 0.950 . S
C441 C440 1.414 . S
C441 C442 1.374 . S
C442 H416 0.950 . S
C442 C438 1.385 . S
C442 C441 1.374 . S
C443 C440 1.499 . S
C443 C444 1.373 . S
C443 C445 1.389 . S
C444 H417 0.950 . S
C444 C430 1.377 . S
C444 C443 1.373 . S
C445 C429 1.377 . S
C445 C443 1.389 . S
C445 C446 1.524 . S
C446 C445 1.524 . S
C446 C447 1.397 . S
C446 C451 1.363 . S
C447 H418 0.950 . S
C447 C446 1.397 . S
C447 C448 1.334 . S
C448 H419 0.950 . S
C448 C447 1.334 . S
C448 C449 1.287 . S
C449 C448 1.287 . S
C449 C450 1.524 . S
C449 H452 0.999 . S
C450 H420 0.950 . S
C450 C449 1.524 . S
C450 C451 1.415 . S
C451 H421 0.950 . S
C451 C446 1.363 . S
C451 C450 1.415 . S
H452 C449 0.999 . S
H453 C434 0.913 . S
H454 C472 0.951 . S
H455 C474 0.951 . S
H456 C476 0.950 . S
H457 C477 0.950 . S
H458 C479 0.950 . S
H459 C482 0.950 . S
H460 C483 0.950 . S
H461 C485 0.950 . S
H462 C486 0.950 . S
H463 C487 0.951 . S
H464 C489 0.951 . S
H465 C491 0.950 . S
H466 C492 0.950 . S
H467 C494 0.950 . S
H468 C497 0.950 . S
H469 C498 0.950 . S
H470 C500 0.950 . S
H471 C501 0.950 . S
C472 H454 0.951 . S
C472 C473 1.366 . S
C472 C474 1.388 . S
C473 C472 1.366 . S
C473 C477 1.385 . S
C474 H455 0.951 . S
C474 C472 1.388 . S
C474 C475 1.366 . S
C475 C474 1.366 . S
C475 C476 1.414 . S
C475 C478 1.499 . S
C476 H456 0.950 . S
C476 C475 1.414 . S
C476 C477 1.374 . S
C477 H457 0.950 . S
C477 C473 1.385 . S
C477 C476 1.374 . S
C478 C475 1.499 . S
C478 C479 1.373 . S
C478 C480 1.389 . S
C479 H458 0.950 . S
C479 C478 1.373 . S
C479 C495 1.377 . S
C480 C478 1.389 . S
C480 C481 1.524 . S
C480 C494 1.377 . S
C481 C480 1.524 . S
C481 C482 1.397 . S
C481 C486 1.363 . S
C482 H459 0.950 . S
C482 C481 1.397 . S
C482 C483 1.334 . S
C483 H460 0.950 . S
C483 C482 1.334 . S
C483 C484 1.287 . S
C484 C483 1.287 . S
C484 C485 1.524 . S
C484 H503 0.913 . S
C485 H461 0.950 . S
C485 C484 1.524 . S
C485 C486 1.415 . S
C486 H462 0.950 . S
C486 C481 1.363 . S
C486 C485 1.415 . S
C487 H463 0.951 . S
C487 C488 1.366 . S
C487 C489 1.388 . S
C488 C487 1.366 . S
C488 C492 1.385 . S
C489 H464 0.951 . S
C489 C487 1.388 . S
C489 C490 1.366 . S
C490 C489 1.366 . S
C490 C491 1.414 . S
C490 C493 1.499 . S
C491 H465 0.950 . S
C491 C490 1.414 . S
C491 C492 1.374 . S
C492 H466 0.950 . S
C492 C488 1.385 . S
C492 C491 1.374 . S
C493 C490 1.499 . S
C493 C494 1.373 . S
C493 C495 1.389 . S
C494 H467 0.950 . S
C494 C480 1.377 . S
C494 C493 1.373 . S
C495 C479 1.377 . S
C495 C493 1.389 . S
C495 C496 1.524 . S
C496 C495 1.524 . S
C496 C497 1.397 1_455 S
C496 C501 1.363 . S
C497 H468 0.950 . S
C497 C496 1.397 1_655 S
C497 C498 1.334 . S
C498 H469 0.950 . S
C498 C497 1.334 . S
C498 C499 1.287 . S
C499 C498 1.287 . S
C499 C500 1.524 . S
C499 H502 0.999 . S
C500 H470 0.950 . S
C500 C499 1.524 . S
C500 C501 1.415 1_655 S
C501 H471 0.950 . S
C501 C496 1.363 . S
C501 C500 1.415 1_455 S
H502 C499 0.999 . S
H503 C484 0.913 . S
H504 C522 0.951 . S
H505 C524 0.951 . S
H506 C526 0.950 . S
H507 C527 0.950 . S
H508 C529 0.950 . S
H509 C532 0.950 . S
H510 C533 0.950 . S
H511 C535 0.950 . S
H512 C536 0.950 1_545 S
H513 C537 0.951 . S
H514 C539 0.951 . S
H515 C541 0.950 . S
H516 C542 0.950 . S
H517 C544 0.950 . S
H518 C547 0.950 . S
H519 C548 0.950 . S
H520 C550 0.950 . S
H521 C551 0.950 . S
C522 H504 0.951 . S
C522 C523 1.366 . S
C522 C524 1.388 . S
C523 C522 1.366 . S
C523 C527 1.385 . S
C524 H505 0.951 . S
C524 C522 1.388 . S
C524 C525 1.366 . S
C525 C524 1.366 . S
C525 C526 1.414 . S
C525 C528 1.499 . S
C526 H506 0.950 . S
C526 C525 1.414 . S
C526 C527 1.374 . S
C527 H507 0.950 . S
C527 C523 1.385 . S
C527 C526 1.374 . S
C528 C525 1.499 . S
C528 C529 1.373 . S
C528 C530 1.389 . S
C529 H508 0.950 . S
C529 C528 1.373 . S
C529 C545 1.377 . S
C530 C528 1.389 . S
C530 C531 1.524 . S
C530 C544 1.377 . S
C531 C530 1.524 . S
C531 C532 1.397 1_545 S
C531 C536 1.363 1_545 S
C532 H509 0.950 . S
C532 C531 1.397 1_565 S
C532 C533 1.334 . S
C533 H510 0.950 . S
C533 C532 1.334 . S
C533 C534 1.287 . S
C534 C533 1.287 . S
C534 C535 1.524 . S
C534 H553 0.913 . S
C535 H511 0.950 . S
C535 C534 1.524 . S
C535 C536 1.415 . S
C536 H512 0.950 1_565 S
C536 C531 1.363 1_565 S
C536 C535 1.415 . S
C537 H513 0.951 . S
C537 C538 1.366 . S
C537 C539 1.388 . S
C538 C537 1.366 . S
C538 C542 1.385 . S
C539 H514 0.951 . S
C539 C537 1.388 . S
C539 C540 1.366 . S
C540 C539 1.366 . S
C540 C541 1.414 . S
C540 C543 1.499 . S
C541 H515 0.950 . S
C541 C540 1.414 . S
C541 C542 1.374 . S
C542 H516 0.950 . S
C542 C538 1.385 . S
C542 C541 1.374 . S
C543 C540 1.499 . S
C543 C544 1.373 . S
C543 C545 1.389 . S
C544 H517 0.950 . S
C544 C530 1.377 . S
C544 C543 1.373 . S
C545 C529 1.377 . S
C545 C543 1.389 . S
C545 C546 1.524 . S
C546 C545 1.524 . S
C546 C547 1.397 . S
C546 C551 1.363 . S
C547 H518 0.950 . S
C547 C546 1.397 . S
C547 C548 1.334 . S
C548 H519 0.950 . S
C548 C547 1.334 . S
C548 C549 1.287 . S
C549 C548 1.287 . S
C549 C550 1.524 . S
C549 H552 0.999 . S
C550 H520 0.950 . S
C550 C549 1.524 . S
C550 C551 1.415 . S
C551 H521 0.950 . S
C551 C546 1.363 . S
C551 C550 1.415 . S
H552 C549 0.999 . S
H553 C534 0.913 . S
H554 C572 0.951 . S
H555 C574 0.951 . S
H556 C576 0.950 . S
H557 C577 0.950 . S
H558 C579 0.950 . S
H559 C582 0.950 . S
H560 C583 0.950 . S
H561 C585 0.950 . S
H562 C586 0.950 1_556 S
H563 C587 0.951 . S
H564 C589 0.951 . S
H565 C591 0.950 . S
H566 C592 0.950 . S
H567 C594 0.950 . S
H568 C597 0.950 . S
H569 C598 0.950 . S
H570 C600 0.950 . S
H571 C601 0.950 . S
C572 H554 0.951 . S
C572 C573 1.366 . S
C572 C574 1.388 . S
C573 C572 1.366 . S
C573 C577 1.385 . S
C574 H555 0.951 . S
C574 C572 1.388 . S
C574 C575 1.366 . S
C575 C574 1.366 . S
C575 C576 1.414 . S
C575 C578 1.499 . S
C576 H556 0.950 . S
C576 C575 1.414 . S
C576 C577 1.374 . S
C577 H557 0.950 . S
C577 C573 1.385 . S
C577 C576 1.374 . S
C578 C575 1.499 . S
C578 C579 1.373 1_554 S
C578 C580 1.389 1_554 S
C579 H558 0.950 . S
C579 C578 1.373 1_556 S
C579 C595 1.377 . S
C580 C578 1.389 1_556 S
C580 C581 1.524 1_556 S
C580 C594 1.377 . S
C581 C580 1.524 1_554 S
C581 C582 1.397 . S
C581 C586 1.363 . S
C582 H559 0.950 . S
C582 C581 1.397 . S
C582 C583 1.334 . S
C583 H560 0.950 . S
C583 C582 1.334 . S
C583 C584 1.287 . S
C584 C583 1.287 . S
C584 C585 1.524 . S
C584 H603 0.913 . S
C585 H561 0.950 . S
C585 C584 1.524 . S
C585 C586 1.415 . S
C586 H562 0.950 1_554 S
C586 C581 1.363 . S
C586 C585 1.415 . S
C587 H563 0.951 . S
C587 C588 1.366 . S
C587 C589 1.388 . S
C588 C587 1.366 . S
C588 C592 1.385 . S
C589 H564 0.951 . S
C589 C587 1.388 . S
C589 C590 1.366 . S
C590 C589 1.366 . S
C590 C591 1.414 . S
C590 C593 1.499 . S
C591 H565 0.950 . S
C591 C590 1.414 . S
C591 C592 1.374 . S
C592 H566 0.950 . S
C592 C588 1.385 . S
C592 C591 1.374 . S
C593 C590 1.499 . S
C593 C594 1.373 . S
C593 C595 1.389 . S
C594 H567 0.950 . S
C594 C580 1.377 . S
C594 C593 1.373 . S
C595 C579 1.377 . S
C595 C593 1.389 . S
C595 C596 1.524 . S
C596 C595 1.524 . S
C596 C597 1.397 . S
C596 C601 1.363 . S
C597 H568 0.950 . S
C597 C596 1.397 . S
C597 C598 1.334 . S
C598 H569 0.950 . S
C598 C597 1.334 . S
C598 C599 1.287 . S
C599 C598 1.287 . S
C599 C600 1.524 . S
C599 H602 0.999 . S
C600 H570 0.950 . S
C600 C599 1.524 . S
C600 C601 1.415 . S
C601 H571 0.950 . S
C601 C596 1.363 . S
C601 C600 1.415 . S
H602 C599 0.999 . S
H603 C584 0.913 . S
H604 C622 0.951 1_656 S
H605 C624 0.951 1_655 S
H606 C626 0.950 . S
H607 C627 0.950 . S
H608 C629 0.950 . S
H609 C632 0.950 . S
H610 C633 0.950 . S
H611 C635 0.950 1_556 S
H612 C636 0.950 . S
H613 C637 0.951 . S
H614 C639 0.951 . S
H615 C641 0.955 . S
H616 C642 0.950 . S
H617 C644 0.950 . S
H618 C647 0.950 1_655 S
H619 C648 0.950 . S
H620 C650 0.950 . S
H621 C651 0.950 . S
C622 H604 0.951 1_454 S
C622 C623 1.367 . S
C622 C624 1.388 . S
C623 C622 1.367 . S
C623 C627 1.391 . S
C624 H605 0.951 1_455 S
C624 C622 1.388 . S
C624 C625 1.366 . S
C625 C624 1.366 . S
C625 C626 1.414 . S
C625 C628 1.499 . S
C626 H606 0.950 . S
C626 C625 1.414 . S
C626 C627 1.374 . S
C627 H607 0.950 . S
C627 C623 1.391 . S
C627 C626 1.374 . S
C628 C625 1.499 . S
C628 C629 1.373 . S
C628 C630 1.389 . S
C629 H608 0.950 . S
C629 C628 1.373 . S
C629 C645 1.377 . S
C630 C628 1.389 . S
C630 C631 1.524 . S
C630 C644 1.377 . S
C631 C630 1.524 . S
C631 C632 1.397 . S
C631 C636 1.363 1_455 S
C632 H609 0.950 . S
C632 C631 1.397 . S
C632 C633 1.334 1_554 S
C633 H610 0.950 . S
C633 C632 1.334 1_556 S
C633 C634 1.287 . S
C634 C633 1.287 . S
C634 C635 1.524 1_456 S
C634 H653 0.913 . S
C635 H611 0.950 1_554 S
C635 C634 1.524 1_654 S
C635 C636 1.415 . S
C636 H612 0.950 . S
C636 C631 1.363 1_655 S
C636 C635 1.415 . S
C637 H613 0.951 . S
C637 C638 1.366 . S
C637 C639 1.388 . S
C638 C637 1.366 . S
C638 C642 1.385 1_455 S
C639 H614 0.951 . S
C639 C637 1.388 . S
C639 C640 1.366 . S
C640 C639 1.366 . S
C640 C641 1.407 1_455 S
C640 C643 1.499 . S
C641 H615 0.955 . S
C641 C640 1.407 1_655 S
C641 C642 1.376 . S
C642 H616 0.950 . S
C642 C638 1.385 1_655 S
C642 C641 1.376 . S
C643 C640 1.499 . S
C643 C644 1.373 . S
C643 C645 1.389 . S
C644 H617 0.950 . S
C644 C630 1.377 . S
C644 C643 1.373 . S
C645 C629 1.377 . S
C645 C643 1.389 . S
C645 C646 1.524 . S
C646 C645 1.524 . S
C646 C647 1.397 . S
C646 C651 1.363 . S
C647 H618 0.950 1_455 S
C647 C646 1.397 . S
C647 C648 1.334 . S
C648 H619 0.950 . S
C648 C647 1.334 . S
C648 C649 1.287 . S
C649 C648 1.287 . S
C649 C650 1.524 . S
C649 H652 0.999 . S
C650 H620 0.950 . S
C650 C649 1.524 . S
C650 C651 1.415 . S
C651 H621 0.950 . S
C651 C646 1.363 . S
C651 C650 1.415 . S
H652 C649 0.999 . S
H653 C634 0.913 . S
H654 C672 0.951 . S
H655 C674 0.951 . S
H656 C676 0.950 . S
H657 C677 0.950 . S
H658 C679 0.950 . S
H659 C682 0.950 . S
H660 C683 0.950 . S
H661 C685 0.950 1_556 S
H662 C686 0.950 . S
H663 C687 0.951 1_545 S
H664 C689 0.951 . S
H665 C691 0.950 . S
H666 C692 0.950 . S
H667 C694 0.950 . S
H668 C697 0.950 . S
H669 C698 0.950 . S
H670 C700 0.950 . S
H671 C701 0.950 . S
C672 H654 0.951 . S
C672 C673 1.366 . S
C672 C674 1.388 . S
C673 C672 1.366 . S
C673 C677 1.385 . S
C674 H655 0.951 . S
C674 C672 1.388 . S
C674 C675 1.366 . S
C675 C674 1.366 . S
C675 C676 1.414 . S
C675 C678 1.499 . S
C676 H656 0.950 . S
C676 C675 1.414 . S
C676 C677 1.374 . S
C677 H657 0.950 . S
C677 C673 1.385 . S
C677 C676 1.374 . S
C678 C675 1.499 . S
C678 C679 1.373 . S
C678 C680 1.389 . S
C679 H658 0.950 . S
C679 C678 1.373 . S
C679 C695 1.377 . S
C680 C678 1.389 . S
C680 C681 1.524 . S
C680 C694 1.377 . S
C681 C680 1.524 . S
C681 C682 1.397 . S
C681 C686 1.363 . S
C682 H659 0.950 . S
C682 C681 1.397 . S
C682 C683 1.334 . S
C683 H660 0.950 . S
C683 C682 1.334 . S
C683 C684 1.287 . S
C684 C683 1.287 . S
C684 C685 1.524 . S
C684 H703 0.913 1_554 S
C685 H661 0.950 1_554 S
C685 C684 1.524 . S
C685 C686 1.415 . S
C686 H662 0.950 . S
C686 C681 1.363 . S
C686 C685 1.415 . S
C687 H663 0.951 1_565 S
C687 C688 1.366 . S
C687 C689 1.388 . S
C688 C687 1.366 . S
C688 C692 1.385 . S
C689 H664 0.951 . S
C689 C687 1.388 . S
C689 C690 1.366 . S
C690 C689 1.366 . S
C690 C691 1.414 . S
C690 C693 1.499 . S
C691 H665 0.950 . S
C691 C690 1.414 . S
C691 C692 1.374 . S
C692 H666 0.950 . S
C692 C688 1.385 . S
C692 C691 1.374 . S
C693 C690 1.499 . S
C693 C694 1.373 . S
C693 C695 1.389 . S
C694 H667 0.950 . S
C694 C680 1.377 . S
C694 C693 1.373 . S
C695 C679 1.377 . S
C695 C693 1.389 . S
C695 C696 1.524 . S
C696 C695 1.524 . S
C696 C697 1.397 . S
C696 C701 1.363 . S
C697 H668 0.950 . S
C697 C696 1.397 . S
C697 C698 1.334 . S
C698 H669 0.950 . S
C698 C697 1.334 . S
C698 C699 1.287 . S
C699 C698 1.287 . S
C699 C700 1.524 . S
C699 H702 0.999 . S
C700 H670 0.950 . S
C700 C699 1.524 . S
C700 C701 1.415 . S
C701 H671 0.950 . S
C701 C696 1.363 . S
C701 C700 1.415 . S
H702 C699 0.999 . S
H703 C684 0.913 1_556 S
H704 C722 0.951 . S
H705 C724 0.951 . S
H706 C726 0.950 . S
H707 C727 0.950 . S
H708 C729 0.950 . S
H709 C732 0.950 . S
H710 C733 0.950 . S
H711 C735 0.950 . S
H712 C736 0.950 . S
H713 C737 0.951 . S
H714 C739 0.951 . S
H715 C741 0.950 . S
H716 C742 0.950 . S
H717 C744 0.950 . S
H718 C747 0.950 . S
H719 C748 0.950 . S
H720 C750 0.950 . S
H721 C751 0.950 . S
C722 H704 0.951 . S
C722 C723 1.366 . S
C722 C724 1.388 . S
C723 C722 1.366 . S
C723 C727 1.385 . S
C724 H705 0.951 . S
C724 C722 1.388 . S
C724 C725 1.366 . S
C725 C724 1.366 . S
C725 C726 1.414 . S
C725 C728 1.499 . S
C726 H706 0.950 . S
C726 C725 1.414 . S
C726 C727 1.374 . S
C727 H707 0.950 . S
C727 C723 1.385 . S
C727 C726 1.374 . S
C728 C725 1.499 . S
C728 C729 1.373 . S
C728 C730 1.389 . S
C729 H708 0.950 . S
C729 C728 1.373 . S
C729 C745 1.377 . S
C730 C728 1.389 . S
C730 C731 1.524 . S
C730 C744 1.377 . S
C731 C730 1.524 . S
C731 C732 1.397 . S
C731 C736 1.363 . S
C732 H709 0.950 . S
C732 C731 1.397 . S
C732 C733 1.334 . S
C733 H710 0.950 . S
C733 C732 1.334 . S
C733 C734 1.287 . S
C734 C733 1.287 . S
C734 C735 1.524 . S
C734 H753 0.913 . S
C735 H711 0.950 . S
C735 C734 1.524 . S
C735 C736 1.415 . S
C736 H712 0.950 . S
C736 C731 1.363 . S
C736 C735 1.415 . S
C737 H713 0.951 . S
C737 C738 1.366 . S
C737 C739 1.388 . S
C738 C737 1.366 . S
C738 C742 1.385 . S
C739 H714 0.951 . S
C739 C737 1.388 . S
C739 C740 1.366 . S
C740 C739 1.366 . S
C740 C741 1.414 . S
C740 C743 1.499 . S
C741 H715 0.950 . S
C741 C740 1.414 . S
C741 C742 1.374 . S
C742 H716 0.950 . S
C742 C738 1.385 . S
C742 C741 1.374 . S
C743 C740 1.499 . S
C743 C744 1.373 . S
C743 C745 1.389 . S
C744 H717 0.950 . S
C744 C730 1.377 . S
C744 C743 1.373 . S
C745 C729 1.377 . S
C745 C743 1.389 . S
C745 C746 1.524 . S
C746 C745 1.524 . S
C746 C747 1.397 . S
C746 C751 1.363 . S
C747 H718 0.950 . S
C747 C746 1.397 . S
C747 C748 1.334 . S
C748 H719 0.950 . S
C748 C747 1.334 . S
C748 C749 1.287 . S
C749 C748 1.287 . S
C749 C750 1.524 . S
C749 H752 0.999 . S
C750 H720 0.950 . S
C750 C749 1.524 . S
C750 C751 1.415 . S
C751 H721 0.950 . S
C751 C746 1.363 . S
C751 C750 1.415 . S
H752 C749 0.999 . S
H753 C734 0.913 . S
H754 C772 0.951 . S
H755 C774 0.951 . S
H756 C776 0.950 . S
H757 C777 0.950 . S
H758 C779 0.950 . S
H759 C782 0.950 . S
H760 C783 0.950 . S
H761 C785 0.950 . S
H762 C786 0.950 . S
H763 C787 0.951 . S
H764 C789 0.951 . S
H765 C791 0.950 . S
H766 C792 0.950 . S
H767 C794 0.950 . S
H768 C797 0.950 . S
H769 C798 0.950 . S
H770 C800 0.950 . S
H771 C801 0.950 . S
C772 H754 0.951 . S
C772 C773 1.366 . S
C772 C774 1.388 . S
C773 C772 1.366 . S
C773 C777 1.385 . S
C774 H755 0.951 . S
C774 C772 1.388 . S
C774 C775 1.366 . S
C775 C774 1.366 . S
C775 C776 1.414 . S
C775 C778 1.499 . S
C776 H756 0.950 . S
C776 C775 1.414 . S
C776 C777 1.374 . S
C777 H757 0.950 . S
C777 C773 1.385 . S
C777 C776 1.374 . S
C778 C775 1.499 . S
C778 C779 1.373 . S
C778 C780 1.389 . S
C779 H758 0.950 . S
C779 C778 1.373 . S
C779 C795 1.377 . S
C780 C778 1.389 . S
C780 C781 1.524 . S
C780 C794 1.377 . S
C781 C780 1.524 . S
C781 C782 1.397 . S
C781 C786 1.363 . S
C782 H759 0.950 . S
C782 C781 1.397 . S
C782 C783 1.334 . S
C783 H760 0.950 . S
C783 C782 1.334 . S
C783 C784 1.287 . S
C784 C783 1.287 . S
C784 C785 1.524 . S
C784 H803 0.913 . S
C785 H761 0.950 . S
C785 C784 1.524 . S
C785 C786 1.415 . S
C786 H762 0.950 . S
C786 C781 1.363 . S
C786 C785 1.415 . S
C787 H763 0.951 . S
C787 C788 1.366 . S
C787 C789 1.388 . S
C788 C787 1.366 . S
C788 C792 1.385 . S
C789 H764 0.951 . S
C789 C787 1.388 . S
C789 C790 1.366 . S
C790 C789 1.366 . S
C790 C791 1.414 . S
C790 C793 1.499 . S
C791 H765 0.950 . S
C791 C790 1.414 . S
C791 C792 1.374 . S
C792 H766 0.950 . S
C792 C788 1.385 . S
C792 C791 1.374 . S
C793 C790 1.499 . S
C793 C794 1.373 . S
C793 C795 1.389 . S
C794 H767 0.950 . S
C794 C780 1.377 . S
C794 C793 1.373 . S
C795 C779 1.377 . S
C795 C793 1.389 . S
C795 C796 1.524 . S
C796 C795 1.524 . S
C796 C797 1.397 . S
C796 C801 1.363 . S
C797 H768 0.950 . S
C797 C796 1.397 . S
C797 C798 1.334 . S
C798 H769 0.950 . S
C798 C797 1.334 . S
C798 C799 1.287 . S
C799 C798 1.287 . S
C799 C800 1.524 . S
C799 H802 0.999 . S
C800 H770 0.950 . S
C800 C799 1.524 . S
C800 C801 1.415 . S
C801 H771 0.950 . S
C801 C796 1.363 . S
C801 C800 1.415 . S
H802 C799 0.999 . S
H803 C784 0.913 . S
H804 C822 0.951 . S
H805 C824 0.951 . S
H806 C826 0.950 . S
H807 C827 0.950 . S
H808 C829 0.950 . S
H809 C832 0.950 . S
H810 C833 0.950 . S
H811 C835 0.950 . S
H812 C836 0.950 . S
H813 C837 0.951 . S
H814 C839 0.951 . S
H815 C841 0.950 . S
H816 C842 0.950 . S
H817 C844 0.950 . S
H818 C847 0.950 . S
H819 C848 0.950 . S
H820 C850 0.950 . S
H821 C851 0.950 . S
C822 H804 0.951 . S
C822 C823 1.366 . S
C822 C824 1.388 . S
C823 C822 1.366 . S
C823 C827 1.385 . S
C824 H805 0.951 . S
C824 C822 1.388 . S
C824 C825 1.366 . S
C825 C824 1.366 . S
C825 C826 1.414 . S
C825 C828 1.499 . S
C826 H806 0.950 . S
C826 C825 1.414 . S
C826 C827 1.374 . S
C827 H807 0.950 . S
C827 C823 1.385 . S
C827 C826 1.374 . S
C828 C825 1.499 . S
C828 C829 1.373 . S
C828 C830 1.389 . S
C829 H808 0.950 . S
C829 C828 1.373 . S
C829 C845 1.377 . S
C830 C828 1.389 . S
C830 C831 1.524 . S
C830 C844 1.377 . S
C831 C830 1.524 . S
C831 C832 1.397 . S
C831 C836 1.363 . S
C832 H809 0.950 . S
C832 C831 1.397 . S
C832 C833 1.334 . S
C833 H810 0.950 . S
C833 C832 1.334 . S
C833 C834 1.287 . S
C834 C833 1.287 . S
C834 C835 1.524 . S
C834 H853 0.913 . S
C835 H811 0.950 . S
C835 C834 1.524 . S
C835 C836 1.415 . S
C836 H812 0.950 . S
C836 C831 1.363 . S
C836 C835 1.415 . S
C837 H813 0.951 . S
C837 C838 1.366 . S
C837 C839 1.388 . S
C838 C837 1.366 . S
C838 C842 1.385 . S
C839 H814 0.951 . S
C839 C837 1.388 . S
C839 C840 1.366 . S
C840 C839 1.366 . S
C840 C841 1.414 . S
C840 C843 1.499 . S
C841 H815 0.950 . S
C841 C840 1.414 . S
C841 C842 1.374 . S
C842 H816 0.950 . S
C842 C838 1.385 . S
C842 C841 1.374 . S
C843 C840 1.499 . S
C843 C844 1.373 . S
C843 C845 1.389 . S
C844 H817 0.950 . S
C844 C830 1.377 . S
C844 C843 1.373 . S
C845 C829 1.377 . S
C845 C843 1.389 . S
C845 C846 1.524 . S
C846 C845 1.524 . S
C846 C847 1.397 . S
C846 C851 1.363 . S
C847 H818 0.950 . S
C847 C846 1.397 . S
C847 C848 1.334 . S
C848 H819 0.950 . S
C848 C847 1.334 . S
C848 C849 1.287 . S
C849 C848 1.287 . S
C849 C850 1.524 . S
C849 H852 0.999 . S
C850 H820 0.950 . S
C850 C849 1.524 . S
C850 C851 1.415 . S
C851 H821 0.950 . S
C851 C846 1.363 . S
C851 C850 1.415 . S
H852 C849 0.999 . S
H853 C834 0.913 . S
H854 C872 0.951 . S
H855 C874 0.951 . S
H856 C876 0.950 . S
H857 C877 0.950 . S
H858 C879 0.950 . S
H859 C882 0.950 . S
H860 C883 0.950 . S
H861 C885 0.950 . S
H862 C886 0.950 . S
H863 C887 0.951 . S
H864 C889 0.951 . S
H865 C891 0.950 . S
H866 C892 0.950 . S
H867 C894 0.950 . S
H868 C897 0.950 . S
H869 C898 0.950 . S
H870 C900 0.950 . S
H871 C901 0.950 . S
C872 H854 0.951 . S
C872 C873 1.366 . S
C872 C874 1.388 . S
C873 C872 1.366 . S
C873 C877 1.385 . S
C874 H855 0.951 . S
C874 C872 1.388 . S
C874 C875 1.366 . S
C875 C874 1.366 . S
C875 C876 1.414 . S
C875 C878 1.499 . S
C876 H856 0.950 . S
C876 C875 1.414 . S
C876 C877 1.374 . S
C877 H857 0.950 . S
C877 C873 1.385 . S
C877 C876 1.374 . S
C878 C875 1.499 . S
C878 C879 1.373 . S
C878 C880 1.389 . S
C879 H858 0.950 . S
C879 C878 1.373 . S
C879 C895 1.377 . S
C880 C878 1.389 . S
C880 C881 1.524 . S
C880 C894 1.377 . S
C881 C880 1.524 . S
C881 C882 1.397 . S
C881 C886 1.363 . S
C882 H859 0.950 . S
C882 C881 1.397 . S
C882 C883 1.334 . S
C883 H860 0.950 . S
C883 C882 1.334 . S
C883 C884 1.287 . S
C884 C883 1.287 . S
C884 C885 1.524 . S
C884 H903 0.913 . S
C885 H861 0.950 . S
C885 C884 1.524 . S
C885 C886 1.415 . S
C886 H862 0.950 . S
C886 C881 1.363 . S
C886 C885 1.415 . S
C887 H863 0.951 . S
C887 C888 1.366 . S
C887 C889 1.388 . S
C888 C887 1.366 . S
C888 C892 1.385 . S
C889 H864 0.951 . S
C889 C887 1.388 . S
C889 C890 1.366 . S
C890 C889 1.366 . S
C890 C891 1.414 . S
C890 C893 1.499 . S
C891 H865 0.950 . S
C891 C890 1.414 . S
C891 C892 1.374 . S
C892 H866 0.950 . S
C892 C888 1.385 . S
C892 C891 1.374 . S
C893 C890 1.499 . S
C893 C894 1.373 . S
C893 C895 1.389 . S
C894 H867 0.950 . S
C894 C880 1.377 . S
C894 C893 1.373 . S
C895 C879 1.377 . S
C895 C893 1.389 . S
C895 C896 1.524 . S
C896 C895 1.524 . S
C896 C897 1.397 . S
C896 C901 1.363 . S
C897 H868 0.950 . S
C897 C896 1.397 . S
C897 C898 1.334 . S
C898 H869 0.950 . S
C898 C897 1.334 . S
C898 C899 1.287 . S
C899 C898 1.287 . S
C899 C900 1.524 . S
C899 H902 0.999 . S
C900 H870 0.950 . S
C900 C899 1.524 . S
C900 C901 1.415 . S
C901 H871 0.950 . S
C901 C896 1.363 . S
C901 C900 1.415 . S
H902 C899 0.999 . S
H903 C884 0.913 . S
H904 C922 0.951 . S
H905 C924 0.951 . S
H906 C926 0.950 . S
H907 C927 0.950 1_455 S
H908 C929 0.950 . S
H909 C932 0.950 . S
H910 C933 0.950 . S
H911 C935 0.950 . S
H912 C936 0.947 1_556 S
H913 C937 0.951 . S
H914 C939 0.951 . S
H915 C941 0.950 . S
H916 C942 0.950 . S
H917 C944 0.950 1_554 S
H918 C947 0.950 . S
H919 C948 0.950 . S
H920 C950 0.950 . S
H921 C951 0.950 . S
C922 H904 0.951 . S
C922 C923 1.366 . S
C922 C924 1.388 . S
C923 C922 1.366 . S
C923 C927 1.385 . S
C924 H905 0.951 . S
C924 C922 1.388 . S
C924 C925 1.366 . S
C925 C924 1.366 . S
C925 C926 1.414 . S
C925 C928 1.499 . S
C926 H906 0.950 . S
C926 C925 1.414 . S
C926 C927 1.374 . S
C927 H907 0.950 1_655 S
C927 C923 1.385 . S
C927 C926 1.374 . S
C928 C925 1.499 . S
C928 C929 1.373 . S
C928 C930 1.389 . S
C929 H908 0.950 . S
C929 C928 1.373 . S
C929 C945 1.377 . S
C930 C928 1.389 . S
C930 C931 1.524 1_556 S
C930 C944 1.377 . S
C931 C930 1.524 1_554 S
C931 C932 1.397 . S
C931 C936 1.364 . S
C932 H909 0.950 . S
C932 C931 1.397 . S
C932 C933 1.334 . S
C933 H910 0.950 . S
C933 C932 1.334 . S
C933 C934 1.287 . S
C934 C933 1.287 . S
C934 C935 1.524 . S
C934 H953 0.913 . S
C935 H911 0.950 . S
C935 C934 1.524 . S
C935 C936 1.417 . S
C936 H912 0.947 1_554 S
C936 C931 1.364 . S
C936 C935 1.417 . S
C937 H913 0.951 . S
C937 C938 1.366 . S
C937 C939 1.388 . S
C938 C937 1.366 . S
C938 C942 1.385 1_554 S
C939 H914 0.951 . S
C939 C937 1.388 . S
C939 C940 1.366 1_554 S
C940 C939 1.366 1_556 S
C940 C941 1.414 . S
C940 C943 1.499 . S
C941 H915 0.950 . S
C941 C940 1.414 . S
C941 C942 1.374 . S
C942 H916 0.950 . S
C942 C938 1.385 1_556 S
C942 C941 1.374 . S
C943 C940 1.499 . S
C943 C944 1.373 . S
C943 C945 1.389 . S
C944 H917 0.950 1_556 S
C944 C930 1.377 . S
C944 C943 1.373 . S
C945 C929 1.377 . S
C945 C943 1.389 . S
C945 C946 1.524 . S
C946 C945 1.524 . S
C946 C947 1.397 . S
C946 C951 1.363 . S
C947 H918 0.950 . S
C947 C946 1.397 . S
C947 C948 1.334 . S
C948 H919 0.950 . S
C948 C947 1.334 . S
C948 C949 1.287 . S
C949 C948 1.287 . S
C949 C950 1.524 . S
C949 H952 0.999 . S
C950 H920 0.950 . S
C950 C949 1.524 . S
C950 C951 1.415 . S
C951 H921 0.950 . S
C951 C946 1.363 . S
C951 C950 1.415 . S
H952 C949 0.999 . S
H953 C934 0.913 . S
C373 C52 1.919 . S
C388 C180 1.909 . S
C423 C111 1.919 . S
C438 C239 1.909 . S
C473 C298 1.909 . S
C488 C170 1.919 . S
C523 C3 1.909 . S
C538 C229 1.919 . S
C573 C62 1.909 . S
C588 C288 1.919 . S
C623 C347 1.912 1_554 S
C638 C121 1.909 . S
C673 C64 1.360 . S
C688 C33 1.353 1_565 S
C723 C123 1.360 . S
C738 C92 1.353 . S
C773 C151 1.353 . S
C788 C182 1.360 . S
C823 C241 1.360 . S
C838 C210 1.353 . S
C873 C300 1.360 . S
C888 C269 1.353 . S
C923 C328 1.353 1_655 S
C938 C5 1.360 . S
