# Generated by pormake.
# Topology uoy, (4)-cn, num edge types: 1
# Building blocks:
#     Node 0, Type 0, BuildingBlock: UXUYUI_clean_sbu_0, # of connection points: 4
#     Node 1, Type 0, BuildingBlock: UXUYUI_clean_sbu_0, # of connection points: 4
#     Node 2, Type 0, BuildingBlock: UXUYUI_clean_sbu_0, # of connection points: 4
#     Node 3, Type 0, BuildingBlock: UXUYUI_clean_sbu_0, # of connection points: 4
#     Node 4, Type 0, BuildingBlock: UXUYUI_clean_sbu_0, # of connection points: 4
#     Node 5, Type 0, BuildingBlock: UXUYUI_clean_sbu_0, # of connection points: 4
#     Node 6, Type 0, BuildingBlock: UXUYUI_clean_sbu_0, # of connection points: 4
#     Node 7, Type 0, BuildingBlock: UXUYUI_clean_sbu_0, # of connection points: 4
#     Node 8, Type 0, BuildingBlock: UXUYUI_clean_sbu_0, # of connection points: 4
#     Node 9, Type 0, BuildingBlock: UXUYUI_clean_sbu_0, # of connection points: 4
#     Node 10, Type 0, BuildingBlock: UXUYUI_clean_sbu_0, # of connection points: 4
#     Node 11, Type 0, BuildingBlock: UXUYUI_clean_sbu_0, # of connection points: 4
#     Node 12, Type 0, BuildingBlock: UXUYUI_clean_sbu_0, # of connection points: 4
#     Node 13, Type 0, BuildingBlock: UXUYUI_clean_sbu_0, # of connection points: 4
#     Node 14, Type 0, BuildingBlock: UXUYUI_clean_sbu_0, # of connection points: 4
#     Node 15, Type 0, BuildingBlock: UXUYUI_clean_sbu_0, # of connection points: 4
#     Edge 16, Type (0, 0), BuildingBlock: XUDNAN_clean_linker_2, # of connection points: 2
#     Edge 17, Type (0, 0), BuildingBlock: XUDNAN_clean_linker_2, # of connection points: 2
#     Edge 18, Type (0, 0), BuildingBlock: XUDNAN_clean_linker_2, # of connection points: 2
#     Edge 19, Type (0, 0), BuildingBlock: XUDNAN_clean_linker_2, # of connection points: 2
#     Edge 20, Type (0, 0), BuildingBlock: XUDNAN_clean_linker_2, # of connection points: 2
#     Edge 21, Type (0, 0), BuildingBlock: XUDNAN_clean_linker_2, # of connection points: 2
#     Edge 22, Type (0, 0), BuildingBlock: XUDNAN_clean_linker_2, # of connection points: 2
#     Edge 23, Type (0, 0), BuildingBlock: XUDNAN_clean_linker_2, # of connection points: 2
#     Edge 24, Type (0, 0), BuildingBlock: XUDNAN_clean_linker_2, # of connection points: 2
#     Edge 25, Type (0, 0), BuildingBlock: XUDNAN_clean_linker_2, # of connection points: 2
#     Edge 26, Type (0, 0), BuildingBlock: XUDNAN_clean_linker_2, # of connection points: 2
#     Edge 27, Type (0, 0), BuildingBlock: XUDNAN_clean_linker_2, # of connection points: 2
#     Edge 28, Type (0, 0), BuildingBlock: XUDNAN_clean_linker_2, # of connection points: 2
#     Edge 29, Type (0, 0), BuildingBlock: XUDNAN_clean_linker_2, # of connection points: 2
#     Edge 30, Type (0, 0), BuildingBlock: XUDNAN_clean_linker_2, # of connection points: 2
#     Edge 31, Type (0, 0), BuildingBlock: XUDNAN_clean_linker_2, # of connection points: 2
#     Edge 32, Type (0, 0), BuildingBlock: XUDNAN_clean_linker_2, # of connection points: 2
#     Edge 33, Type (0, 0), BuildingBlock: XUDNAN_clean_linker_2, # of connection points: 2
#     Edge 34, Type (0, 0), BuildingBlock: XUDNAN_clean_linker_2, # of connection points: 2
#     Edge 35, Type (0, 0), BuildingBlock: XUDNAN_clean_linker_2, # of connection points: 2
#     Edge 36, Type (0, 0), BuildingBlock: XUDNAN_clean_linker_2, # of connection points: 2
#     Edge 37, Type (0, 0), BuildingBlock: XUDNAN_clean_linker_2, # of connection points: 2
#     Edge 38, Type (0, 0), BuildingBlock: XUDNAN_clean_linker_2, # of connection points: 2
#     Edge 39, Type (0, 0), BuildingBlock: XUDNAN_clean_linker_2, # of connection points: 2
#     Edge 40, Type (0, 0), BuildingBlock: XUDNAN_clean_linker_2, # of connection points: 2
#     Edge 41, Type (0, 0), BuildingBlock: XUDNAN_clean_linker_2, # of connection points: 2
#     Edge 42, Type (0, 0), BuildingBlock: XUDNAN_clean_linker_2, # of connection points: 2
#     Edge 43, Type (0, 0), BuildingBlock: XUDNAN_clean_linker_2, # of connection points: 2
#     Edge 44, Type (0, 0), BuildingBlock: XUDNAN_clean_linker_2, # of connection points: 2
#     Edge 45, Type (0, 0), BuildingBlock: XUDNAN_clean_linker_2, # of connection points: 2
#     Edge 46, Type (0, 0), BuildingBlock: XUDNAN_clean_linker_2, # of connection points: 2
#     Edge 47, Type (0, 0), BuildingBlock: XUDNAN_clean_linker_2, # of connection points: 2
# Relax obj value: 0.195
# Max RMSD: 0.201
# Mean RMSD: 0.200
data_MOF--net-uoy--node1-UXUYUI_clean_sbu_0--edge1-XUDNAN_clean_linker_2
_symmetry_space_group_name_H-M    P1
_symmetry_Int_Tables_number       1
_symmetry_cell_setting            triclinic
loop_
_symmetry_equiv_pos_as_xyz
'x, y, z'
_cell_length_a     39.862794
_cell_length_b     39.850413
_cell_length_c     155.46966
_cell_angle_alpha  90.002125
_cell_angle_beta   89.992948
_cell_angle_gamma 90.01644
loop_
_atom_site_label
_atom_site_type_symbol
_atom_site_fract_x
_atom_site_fract_y
_atom_site_fract_z
_atom_type_partial_charge
Li0 Li 0.27738 0.09002 0.18632 0.0
Li1 Li 0.24399 0.13411 0.19282 0.0
Li2 Li 0.21855 0.09243 0.18312 0.0
Li3 Li 0.25462 0.13559 0.17723 0.0
C4 C 0.24593 0.05838 0.19974 0.0
N5 N 0.26083 0.00432 0.21021 0.0
C6 C 0.25132 0.06315 0.20855 0.0
C7 C 0.24782 0.02606 0.19629 0.0
C8 C 0.25889 0.03551 0.21373 0.0
C9 C 0.25547 0.99908 0.20168 0.0
C10 C 0.31478 0.14399 0.19218 0.0
C11 C 0.37181 0.1622 0.19451 0.0
N12 N 0.36953 0.1526 0.20288 0.0
C13 C 0.31311 0.13421 0.2008 0.0
C14 C 0.34444 0.15802 0.189 0.0
C15 C 0.34098 0.13881 0.20611 0.0
C16 C 0.33385 0.05406 0.18059 0.0
N17 N 0.31673 0.06293 0.18781 0.0
C18 C 0.35933 0.03878 0.19669 0.0
C19 C 0.32884 0.05556 0.19577 0.0
C20 C 0.37776 0.02956 0.18936 0.0
C21 C 0.3645 0.03719 0.18122 0.0
H22 H 0.324 0.06071 0.17434 0.0
H23 H 0.31547 0.06354 0.20143 0.0
C24 C 0.21385 0.14921 0.20862 0.0
N25 N 0.23602 0.16092 0.2027 0.0
C26 C 0.20996 0.16573 0.21646 0.0
C27 C 0.25016 0.20728 0.21172 0.0
C28 C 0.25344 0.18982 0.20399 0.0
C29 C 0.22886 0.19473 0.21816 0.0
H30 H 0.20012 0.12632 0.20735 0.0
H31 H 0.27089 0.19857 0.19916 0.0
C32 C 0.24399 0.06283 0.16942 0.0
N33 N 0.21777 0.01418 0.15869 0.0
C34 C 0.2235 0.07194 0.16252 0.0
C35 C 0.25169 0.02902 0.17077 0.0
C36 C 0.21031 0.04696 0.15719 0.0
C37 C 0.23806 0.00479 0.16529 0.0
C38 C 0.20117 0.17435 0.1833 0.0
C39 C 0.16695 0.18186 0.1831 0.0
C40 C 0.22466 0.20039 0.18353 0.0
C41 C 0.15676 0.21541 0.18314 0.0
C42 C 0.21347 0.2336 0.18356 0.0
N43 N 0.18004 0.24036 0.18337 0.0
C44 C 0.16669 0.0424 0.18492 0.0
C45 C 0.15748 0.08605 0.17484 0.0
C46 C 0.13472 0.02935 0.18333 0.0
N47 N 0.17732 0.0703 0.18069 0.0
C48 C 0.12547 0.07385 0.17304 0.0
C49 C 0.11356 0.0453 0.17736 0.0
H50 H 0.1826 0.03071 0.18967 0.0
H51 H 0.16634 0.1086 0.1717 0.0
C52 C 0.29132 0.17821 0.16609 0.0
N53 N 0.26099 0.16381 0.16759 0.0
C54 C 0.29561 0.19982 0.15911 0.0
C55 C 0.23749 0.19081 0.15528 0.0
C56 C 0.23424 0.16971 0.16239 0.0
C57 C 0.26846 0.20625 0.1536 0.0
H58 H 0.31209 0.173 0.17034 0.0
H59 H 0.21029 0.15825 0.16382 0.0
O60 O 0.23878 0.08519 0.19455 0.0
O61 O 0.28782 0.13942 0.18683 0.0
O62 O 0.25668 0.08689 0.17479 0.0
O63 O 0.21143 0.1416 0.18325 0.0
H64 H 0.24995 0.08792 0.21136 0.0
H65 H 0.24349 0.02188 0.18952 0.0
H66 H 0.26328 0.03888 0.22054 0.0
H67 H 0.25714 0.97396 0.19907 0.0
H68 H 0.3949 0.17302 0.19212 0.0
H69 H 0.29066 0.12281 0.20335 0.0
H70 H 0.34643 0.16553 0.18234 0.0
H71 H 0.33996 0.13128 0.21279 0.0
H72 H 0.36884 0.03406 0.20311 0.0
H73 H 0.37771 0.03034 0.17539 0.0
H74 H 0.19308 0.15545 0.22124 0.0
H75 H 0.26547 0.22933 0.21282 0.0
H76 H 0.21754 0.09798 0.16133 0.0
H77 H 0.26816 0.02156 0.17595 0.0
H78 H 0.19413 0.05365 0.15188 0.0
H79 H 0.24368 0.97852 0.16629 0.0
H80 H 0.14847 0.16196 0.18291 0.0
H81 H 0.25125 0.19507 0.18367 0.0
H82 H 0.13035 0.2216 0.18299 0.0
H83 H 0.23137 0.25399 0.18374 0.0
H84 H 0.12657 0.00718 0.18678 0.0
H85 H 0.10984 0.0873 0.1685 0.0
H86 H 0.31994 0.21112 0.15798 0.0
H87 H 0.21588 0.1955 0.15123 0.0
Li88 Li 0.90449 0.78283 0.43591 0.0
Li89 Li 0.86189 0.74562 0.44313 0.0
Li90 Li 0.90866 0.72182 0.43386 0.0
Li91 Li 0.86343 0.75206 0.42759 0.0
C92 C 0.93372 0.75757 0.45103 0.0
N93 N 0.97787 0.77859 0.46363 0.0
C94 C 0.92159 0.76988 0.45885 0.0
C95 C 0.9683 0.75548 0.44966 0.0
C96 C 0.94431 0.78052 0.46513 0.0
C97 C 0.99022 0.76637 0.4561 0.0
C98 C 0.83031 0.80474 0.43247 0.0
C99 C 0.77217 0.81177 0.4286 0.0
N100 N 0.78063 0.83865 0.42366 0.0
C101 C 0.83843 0.8325 0.42739 0.0
C102 C 0.79693 0.79429 0.43311 0.0
C103 C 0.81295 0.84929 0.42297 0.0
C104 C 0.9366 0.84131 0.42976 0.0
N105 N 0.92572 0.82541 0.43698 0.0
C106 C 0.93538 0.87465 0.44539 0.0
C107 C 0.92497 0.84133 0.4447 0.0
C108 C 0.94574 0.89219 0.438 0.0
C109 C 0.94682 0.87483 0.43013 0.0
H110 H 0.93572 0.82851 0.42363 0.0
H111 H 0.91487 0.82873 0.45026 0.0
C112 C 0.84375 0.7154 0.45891 0.0
N113 N 0.83759 0.74145 0.4535 0.0
C114 C 0.83006 0.71531 0.46719 0.0
C115 C 0.80284 0.76806 0.46396 0.0
C116 C 0.81723 0.76725 0.4558 0.0
C117 C 0.80998 0.74237 0.46987 0.0
H118 H 0.86059 0.69555 0.45694 0.0
H119 H 0.81332 0.78795 0.45143 0.0
C120 C 0.94075 0.75318 0.42078 0.0
N121 N 8e-05 0.74263 0.412 0.0
C122 C 0.94033 0.73862 0.4126 0.0
C123 C 0.97127 0.76274 0.42445 0.0
C124 C 0.97061 0.73337 0.40828 0.0
C125 C 0.00101 0.75711 0.41992 0.0
C126 C 0.83318 0.69187 0.43141 0.0
C127 C 0.83607 0.67189 0.42406 0.0
C128 C 0.80269 0.69307 0.43585 0.0
C129 C 0.80824 0.65372 0.4212 0.0
C130 C 0.77546 0.67448 0.4328 0.0
N131 N 0.77877 0.65538 0.42559 0.0
C132 C 0.95613 0.6714 0.43877 0.0
C133 C 0.93428 0.66788 0.42463 0.0
C134 C 0.97396 0.6415 0.43759 0.0
N135 N 0.93675 0.68382 0.43232 0.0
C136 C 0.95155 0.63805 0.42317 0.0
C137 C 0.97153 0.62426 0.42972 0.0
H138 H 0.95712 0.68421 0.4449 0.0
H139 H 0.91812 0.67792 0.41969 0.0
C140 C 0.8536 0.77551 0.41109 0.0
N141 N 0.83782 0.75706 0.41724 0.0
C142 C 0.83804 0.78182 0.40324 0.0
C143 C 0.78997 0.75016 0.40813 0.0
C144 C 0.8063 0.74489 0.41596 0.0
C145 C 0.80594 0.76885 0.40167 0.0
H146 H 0.87826 0.78569 0.41233 0.0
H147 H 0.79351 0.7316 0.42103 0.0
O148 O 0.91183 0.74683 0.44483 0.0
O149 O 0.85504 0.78733 0.43662 0.0
O150 O 0.91135 0.75817 0.42513 0.0
O151 O 0.86023 0.70948 0.43439 0.0
H152 H 0.89491 0.7716 0.46004 0.0
H153 H 0.97816 0.74532 0.44373 0.0
H154 H 0.93526 0.79034 0.47118 0.0
H155 H 0.01705 0.76498 0.45511 0.0
H156 H 0.74626 0.80384 0.42898 0.0
H157 H 0.86417 0.84077 0.42679 0.0
H158 H 0.79028 0.77257 0.43692 0.0
H159 H 0.81888 0.8707 0.41898 0.0
H160 H 0.93447 0.88673 0.45162 0.0
H161 H 0.95395 0.88737 0.42423 0.0
H162 H 0.83655 0.69521 0.47157 0.0
H163 H 0.78714 0.78916 0.46571 0.0
H164 H 0.91688 0.73117 0.40966 0.0
H165 H 0.97197 0.77453 0.4307 0.0
H166 H 0.97069 0.72192 0.40197 0.0
H167 H 0.02483 0.76432 0.4227 0.0
H168 H 0.85942 0.67064 0.42054 0.0
H169 H 0.80001 0.70828 0.44157 0.0
H170 H 0.81006 0.63831 0.41549 0.0
H171 H 0.75169 0.67527 0.43615 0.0
H172 H 0.98919 0.63186 0.4428 0.0
H173 H 0.94827 0.62536 0.41707 0.0
H174 H 0.85114 0.79636 0.3984 0.0
H175 H 0.76491 0.7403 0.40719 0.0
Li176 Li 0.218 0.40144 0.68774 0.0
Li177 Li 0.24637 0.35897 0.69562 0.0
Li178 Li 0.27928 0.40591 0.68868 0.0
Li179 Li 0.25149 0.36039 0.6802 0.0
C180 C 0.23439 0.43651 0.70222 0.0
N181 N 0.21134 0.49362 0.71039 0.0
C182 C 0.2065 0.43482 0.70766 0.0
C183 C 0.25064 0.46722 0.70097 0.0
C184 C 0.1952 0.46399 0.71172 0.0
C185 C 0.23858 0.49581 0.70515 0.0
C186 C 0.19094 0.32872 0.69059 0.0
C187 C 0.1788 0.27067 0.69369 0.0
N188 N 0.15147 0.28029 0.69831 0.0
C189 C 0.1626 0.33803 0.69532 0.0
C190 C 0.19901 0.29477 0.68972 0.0
C191 C 0.14301 0.31318 0.69919 0.0
C192 C 0.15395 0.40727 0.68138 0.0
N193 N 0.17638 0.42508 0.68613 0.0
C194 C 0.13773 0.4709 0.68717 0.0
C195 C 0.16914 0.4567 0.68889 0.0
C196 C 0.11406 0.4527 0.68237 0.0
C197 C 0.12259 0.42058 0.67942 0.0
H198 H 0.16054 0.38262 0.67903 0.0
H199 H 0.18771 0.4712 0.69229 0.0
C200 C 0.27098 0.31036 0.70745 0.0
N201 N 0.24524 0.33161 0.70565 0.0
C202 C 0.2715 0.29272 0.71523 0.0
C203 C 0.21866 0.31858 0.71899 0.0
C204 C 0.21935 0.3359 0.71122 0.0
C205 C 0.2452 0.29701 0.72114 0.0
H206 H 0.29158 0.30783 0.70298 0.0
H207 H 0.19962 0.35347 0.70973 0.0
C208 C 0.23488 0.43238 0.67348 0.0
N209 N 0.19903 0.4787 0.66401 0.0
C210 C 0.2146 0.42176 0.66667 0.0
C211 C 0.23715 0.46652 0.67544 0.0
C212 C 0.19661 0.44559 0.66197 0.0
C213 C 0.21878 0.48956 0.67058 0.0
C214 C 0.31007 0.33493 0.68484 0.0
C215 C 0.33981 0.34709 0.68123 0.0
C216 C 0.30246 0.30078 0.68424 0.0
C217 C 0.36126 0.32488 0.67697 0.0
C218 C 0.32454 0.27939 0.67992 0.0
N219 N 0.35322 0.29178 0.67641 0.0
C220 C 0.34063 0.42898 0.69564 0.0
C221 C 0.32904 0.44561 0.6813 0.0
C222 C 0.37366 0.44047 0.69492 0.0
N223 N 0.31947 0.43108 0.68881 0.0
C224 C 0.36178 0.45726 0.68028 0.0
C225 C 0.38486 0.45371 0.68705 0.0
H226 H 0.33247 0.4165 0.70146 0.0
H227 H 0.31189 0.44621 0.67591 0.0
C228 C 0.23133 0.3167 0.66668 0.0
N229 N 0.25556 0.33789 0.66956 0.0
C230 C 0.23211 0.30508 0.6582 0.0
C231 C 0.28323 0.3366 0.65596 0.0
C232 C 0.28128 0.3478 0.66443 0.0
C233 C 0.25797 0.31564 0.65267 0.0
H234 H 0.21057 0.31013 0.67083 0.0
H235 H 0.29957 0.36553 0.66682 0.0
O236 O 0.24624 0.40815 0.69831 0.0
O237 O 0.21059 0.3527 0.68681 0.0
O238 O 0.25179 0.40936 0.67834 0.0
O239 O 0.28847 0.35635 0.68892 0.0
H240 H 0.1935 0.41137 0.70867 0.0
H241 H 0.27229 0.46902 0.69681 0.0
H242 H 0.17356 0.46308 0.71591 0.0
H243 H 0.25086 0.51975 0.70422 0.0
H244 H 0.18484 0.24431 0.69309 0.0
H245 H 0.15611 0.3642 0.69613 0.0
H246 H 0.22064 0.2871 0.68601 0.0
H247 H 0.12116 0.32004 0.70292 0.0
H248 H 0.13224 0.49603 0.68942 0.0
H249 H 0.10503 0.4057 0.67572 0.0
H250 H 0.29245 0.27635 0.71666 0.0
H251 H 0.19826 0.3232 0.72344 0.0
H252 H 0.21247 0.39538 0.66511 0.0
H253 H 0.25264 0.47507 0.68072 0.0
H254 H 0.18063 0.43775 0.65672 0.0
H255 H 0.22011 0.51605 0.67205 0.0
H256 H 0.3462 0.37339 0.68164 0.0
H257 H 0.27971 0.29093 0.68705 0.0
H258 H 0.38426 0.33398 0.67411 0.0
H259 H 0.31887 0.25292 0.67938 0.0
H260 H 0.39079 0.43701 0.70025 0.0
H261 H 0.36936 0.46762 0.67414 0.0
H262 H 0.21185 0.28937 0.6559 0.0
H263 H 0.30386 0.34502 0.65198 0.0
Li264 Li 0.62998 0.75277 0.94429 0.0
Li265 Li 0.59341 0.71314 0.93708 0.0
Li266 Li 0.62951 0.75388 0.9288 0.0
Li267 Li 0.57971 0.77392 0.93648 0.0
C268 C 0.6692 0.70119 0.94046 0.0
N269 N 0.7217 0.67195 0.9493 0.0
C270 C 0.66347 0.67326 0.94569 0.0
C271 C 0.70169 0.71395 0.93962 0.0
C272 C 0.69033 0.65891 0.95014 0.0
C273 C 0.72788 0.6989 0.94417 0.0
C274 C 0.552 0.73625 0.9508 0.0
C275 C 0.4917 0.73115 0.95056 0.0
N276 N 0.49217 0.72129 0.95893 0.0
C277 C 0.55184 0.72648 0.95944 0.0
C278 C 0.52166 0.73895 0.94635 0.0
C279 C 0.52135 0.71886 0.96342 0.0
C280 C 0.67694 0.78309 0.95603 0.0
N281 N 0.65567 0.75709 0.95448 0.0
C282 C 0.66693 0.73362 0.96829 0.0
C283 C 0.65038 0.73269 0.96042 0.0
C284 C 0.68907 0.7601 0.97012 0.0
C285 C 0.69402 0.78512 0.96388 0.0
H286 H 0.68036 0.8024 0.95123 0.0
H287 H 0.63299 0.71258 0.95904 0.0
C288 C 0.5861 0.65029 0.92976 0.0
N289 N 0.57832 0.66786 0.93698 0.0
C290 C 0.57974 0.61591 0.92932 0.0
C291 C 0.55667 0.6184 0.94368 0.0
C292 C 0.56371 0.65275 0.94387 0.0
C293 C 0.56523 0.59945 0.93639 0.0
H294 H 0.59806 0.66295 0.92442 0.0
H295 H 0.55852 0.66698 0.94962 0.0
C296 C 0.64453 0.81763 0.93321 0.0
N297 N 0.68214 0.86779 0.92562 0.0
C298 C 0.62883 0.8464 0.93001 0.0
C299 C 0.67937 0.81454 0.93264 0.0
C300 C 0.64828 0.87144 0.92618 0.0
C301 C 0.69794 0.84012 0.92875 0.0
C302 C 0.55624 0.7356 0.92131 0.0
C303 C 0.55742 0.7492 0.91302 0.0
C304 C 0.52911 0.71531 0.92365 0.0
C305 C 0.53111 0.74298 0.90731 0.0
C306 C 0.5033 0.70964 0.91775 0.0
N307 N 0.5048 0.72351 0.90977 0.0
C308 C 0.67499 0.73625 0.91549 0.0
C309 C 0.64356 0.78596 0.91322 0.0
C310 C 0.68787 0.73796 0.90714 0.0
N311 N 0.65283 0.75977 0.91828 0.0
C312 C 0.6558 0.78868 0.90486 0.0
C313 C 0.67753 0.76398 0.90164 0.0
H314 H 0.68146 0.71537 0.91962 0.0
H315 H 0.62529 0.80385 0.91553 0.0
C316 C 0.53758 0.82416 0.94337 0.0
N317 N 0.54674 0.80819 0.93601 0.0
C318 C 0.51728 0.85271 0.94301 0.0
C319 C 0.51566 0.84723 0.92752 0.0
C320 C 0.53606 0.81895 0.92819 0.0
C321 C 0.5065 0.86487 0.93498 0.0
H322 H 0.54703 0.81539 0.9495 0.0
H323 H 0.54473 0.80663 0.92243 0.0
O324 O 0.64312 0.71598 0.93618 0.0
O325 O 0.58169 0.74386 0.94682 0.0
O326 O 0.62586 0.79273 0.93692 0.0
O327 O 0.58214 0.74104 0.92694 0.0
H328 H 0.6385 0.66302 0.9464 0.0
H329 H 0.70662 0.73524 0.9355 0.0
H330 H 0.68622 0.63746 0.95427 0.0
H331 H 0.75312 0.70863 0.94362 0.0
H332 H 0.46807 0.73307 0.94718 0.0
H333 H 0.575 0.72466 0.96302 0.0
H334 H 0.52115 0.74737 0.93976 0.0
H335 H 0.52089 0.71106 0.97008 0.0
H336 H 0.66179 0.71417 0.97298 0.0
H337 H 0.71091 0.80593 0.96504 0.0
H338 H 0.5864 0.60229 0.92354 0.0
H339 H 0.54584 0.60658 0.94931 0.0
H340 H 0.60192 0.84934 0.93046 0.0
H341 H 0.69191 0.79257 0.93513 0.0
H342 H 0.63645 0.89377 0.92364 0.0
H343 H 0.72491 0.83797 0.92822 0.0
H344 H 0.57828 0.76464 0.91103 0.0
H345 H 0.52802 0.70373 0.92993 0.0
H346 H 0.53164 0.7536 0.9009 0.0
H347 H 0.48214 0.69407 0.91951 0.0
H348 H 0.70434 0.71823 0.90487 0.0
H349 H 0.64751 0.80937 0.90088 0.0
H350 H 0.51068 0.86553 0.94891 0.0
H351 H 0.50856 0.85614 0.9212 0.0
Li352 Li 0.25394 0.37135 0.07091 0.0
Li353 Li 0.22502 0.40761 0.06126 0.0
Li354 Li 0.25286 0.36045 0.05518 0.0
Li355 Li 0.28452 0.40718 0.06095 0.0
C356 C 0.18143 0.36035 0.06463 0.0
N357 N 0.11275 0.36526 0.06671 0.0
C358 C 0.168 0.37118 0.07246 0.0
C359 C 0.15992 0.35174 0.05789 0.0
C360 C 0.13321 0.37354 0.07338 0.0
C361 C 0.12527 0.35449 0.05905 0.0
C362 C 0.25717 0.455 0.0717 0.0
C363 C 0.25459 0.51088 0.06578 0.0
N364 N 0.2609 0.52379 0.07371 0.0
C365 C 0.26362 0.46881 0.07979 0.0
C366 C 0.2526 0.47618 0.06463 0.0
C367 C 0.26541 0.50366 0.08068 0.0
C368 C 0.28465 0.36123 0.08661 0.0
N369 N 0.25698 0.35258 0.08203 0.0
C370 C 0.2368 0.31887 0.09362 0.0
C371 C 0.23339 0.3315 0.08529 0.0
C372 C 0.26505 0.3276 0.09858 0.0
C373 C 0.28932 0.34885 0.09491 0.0
H374 H 0.30316 0.37773 0.08377 0.0
H375 H 0.21192 0.32456 0.08144 0.0
C376 C 0.17253 0.43633 0.05187 0.0
N377 N 0.18575 0.43421 0.05991 0.0
C378 C 0.14255 0.45355 0.05051 0.0
C379 C 0.14033 0.46604 0.06572 0.0
C380 C 0.17062 0.44894 0.06678 0.0
C381 C 0.12594 0.46837 0.0575 0.0
H382 H 0.18499 0.42402 0.04656 0.0
H383 H 0.18169 0.4467 0.0731 0.0
C384 C 0.30241 0.32693 0.06495 0.0
N385 N 0.32318 0.26223 0.06849 0.0
C386 C 0.33654 0.31896 0.06489 0.0
C387 C 0.27882 0.30197 0.06681 0.0
C388 C 0.34654 0.2861 0.06669 0.0
C389 C 0.28983 0.26943 0.06859 0.0
C390 C 0.27202 0.40851 0.04351 0.0
C391 C 0.30202 0.39053 0.04278 0.0
C392 C 0.26052 0.4274 0.03654 0.0
C393 C 0.31998 0.39175 0.03507 0.0
C394 C 0.27921 0.42798 0.02894 0.0
N395 N 0.3083 0.41028 0.02837 0.0
C396 C 0.22793 0.3358 0.03974 0.0
C397 C 0.27578 0.30583 0.0445 0.0
C398 C 0.22811 0.31844 0.03194 0.0
N399 N 0.25169 0.32947 0.0458 0.0
C400 C 0.27678 0.28776 0.03682 0.0
C401 C 0.25314 0.29445 0.03035 0.0
H402 H 0.20983 0.35558 0.04079 0.0
H403 H 0.29535 0.30207 0.04917 0.0
C404 C 0.35256 0.41954 0.06375 0.0
N405 N 0.32506 0.43182 0.05967 0.0
C406 C 0.3839 0.43438 0.0625 0.0
C407 C 0.35774 0.47515 0.05315 0.0
C408 C 0.32696 0.45928 0.05451 0.0
C409 C 0.38692 0.4624 0.05706 0.0
H410 H 0.35025 0.39768 0.06783 0.0
H411 H 0.30472 0.46847 0.05131 0.0
O412 O 0.21546 0.35862 0.06355 0.0
O413 O 0.25539 0.42089 0.07079 0.0
O414 O 0.29238 0.35914 0.06329 0.0
O415 O 0.25353 0.40743 0.05093 0.0
H416 H 0.18428 0.37845 0.07771 0.0
H417 H 0.16983 0.34312 0.05181 0.0
H418 H 0.12249 0.38219 0.07937 0.0
H419 H 0.10834 0.34807 0.05387 0.0
H420 H 0.25111 0.52755 0.06036 0.0
H421 H 0.26721 0.45273 0.08533 0.0
H422 H 0.24756 0.46604 0.05831 0.0
H423 H 0.27039 0.51469 0.08691 0.0
H424 H 0.21726 0.30285 0.09618 0.0
H425 H 0.31187 0.35568 0.09837 0.0
H426 H 0.13204 0.45454 0.04409 0.0
H427 H 0.12831 0.47736 0.07126 0.0
H428 H 0.35514 0.33792 0.06344 0.0
H429 H 0.25229 0.30751 0.06686 0.0
H430 H 0.37288 0.27957 0.06666 0.0
H431 H 0.27186 0.24989 0.07004 0.0
H432 H 0.31138 0.3757 0.04808 0.0
H433 H 0.23733 0.44141 0.03699 0.0
H434 H 0.34319 0.37793 0.03442 0.0
H435 H 0.27057 0.44247 0.02349 0.0
H436 H 0.20945 0.32441 0.02712 0.0
H437 H 0.29702 0.27009 0.03578 0.0
H438 H 0.40562 0.4233 0.06557 0.0
H439 H 0.35866 0.49701 0.04902 0.0
Li440 Li 0.63566 0.74968 0.31969 0.0
Li441 Li 0.59126 0.72147 0.31207 0.0
Li442 Li 0.63722 0.75117 0.30415 0.0
Li443 Li 0.59398 0.78393 0.31261 0.0
C444 C 0.66139 0.68735 0.31428 0.0
N445 N 0.7055 0.6383 0.31969 0.0
C446 C 0.65093 0.66301 0.32016 0.0
C447 C 0.6941 0.68652 0.31105 0.0
C448 C 0.67367 0.63848 0.32285 0.0
C449 C 0.71607 0.66157 0.31389 0.0
C450 C 0.57227 0.74238 0.32949 0.0
C451 C 0.52701 0.7472 0.33972 0.0
N452 N 0.54225 0.72401 0.34481 0.0
C453 C 0.58755 0.71869 0.33485 0.0
C454 C 0.54184 0.75688 0.33196 0.0
C455 C 0.57195 0.7097 0.34255 0.0
C456 C 0.64998 0.776 0.33549 0.0
N457 N 0.66113 0.75152 0.33012 0.0
C458 C 0.70535 0.73777 0.33989 0.0
C459 C 0.68829 0.73241 0.33215 0.0
C460 C 0.69462 0.76339 0.34544 0.0
C461 C 0.66651 0.78253 0.34319 0.0
H462 H 0.62844 0.7909 0.3337 0.0
H463 H 0.6972 0.7135 0.32776 0.0
C464 C 0.55756 0.6715 0.303 0.0
N465 N 0.56354 0.68259 0.31113 0.0
C466 C 0.53984 0.64178 0.30163 0.0
C467 C 0.53499 0.63507 0.31703 0.0
C468 C 0.5525 0.66516 0.3181 0.0
C469 C 0.52864 0.62297 0.30871 0.0
H470 H 0.56727 0.6854 0.29757 0.0
H471 H 0.55787 0.67404 0.32449 0.0
C472 C 0.67045 0.80391 0.31593 0.0
N473 N 0.72465 0.83158 0.32444 0.0
C474 C 0.66663 0.83359 0.32062 0.0
C475 C 0.70189 0.7885 0.31549 0.0
C476 C 0.69433 0.84713 0.3249 0.0
C477 C 0.72897 0.80283 0.31985 0.0
C478 C 0.55478 0.75688 0.2994 0.0
C479 C 0.54824 0.75973 0.2906 0.0
C480 C 0.52815 0.7565 0.30525 0.0
C481 C 0.51504 0.76223 0.2878 0.0
C482 C 0.49532 0.75906 0.30219 0.0
N483 N 0.48949 0.76185 0.2936 0.0
C484 C 0.65511 0.72609 0.28806 0.0
C485 C 0.68583 0.77433 0.29227 0.0
C486 C 0.671 0.72584 0.28006 0.0
N487 N 0.66251 0.75031 0.29391 0.0
C488 C 0.70249 0.77492 0.28437 0.0
C489 C 0.69472 0.75078 0.27808 0.0
H490 H 0.63615 0.70753 0.28954 0.0
H491 H 0.69095 0.79349 0.29701 0.0
C492 C 0.56977 0.83805 0.32172 0.0
N493 N 0.5704 0.82496 0.31366 0.0
C494 C 0.55542 0.86938 0.32322 0.0
C495 C 0.54191 0.87304 0.30808 0.0
C496 C 0.55688 0.84163 0.30687 0.0
C497 C 0.54123 0.88744 0.31635 0.0
H498 H 0.5812 0.8244 0.32697 0.0
H499 H 0.55809 0.83077 0.3005 0.0
O500 O 0.63951 0.71137 0.31151 0.0
O501 O 0.58736 0.75218 0.322 0.0
O502 O 0.64341 0.78962 0.31195 0.0
O503 O 0.58716 0.7544 0.30223 0.0
H504 H 0.62556 0.66305 0.32263 0.0
H505 H 0.7024 0.70499 0.3064 0.0
H506 H 0.666 0.61957 0.32744 0.0
H507 H 0.74151 0.66068 0.31148 0.0
H508 H 0.50343 0.75817 0.34169 0.0
H509 H 0.61109 0.7072 0.33305 0.0
H510 H 0.5298 0.77545 0.32792 0.0
H511 H 0.58345 0.69133 0.34674 0.0
H512 H 0.72716 0.7227 0.34141 0.0
H513 H 0.65735 0.80232 0.34735 0.0
H514 H 0.53587 0.63306 0.29511 0.0
H515 H 0.52661 0.62136 0.32265 0.0
H516 H 0.64248 0.84585 0.32102 0.0
H517 H 0.7052 0.76542 0.31192 0.0
H518 H 0.6917 0.86996 0.3286 0.0
H519 H 0.75338 0.791 0.31963 0.0
H520 H 0.56862 0.76 0.286 0.0
H521 H 0.53274 0.75421 0.31208 0.0
H522 H 0.50958 0.76446 0.281 0.0
H523 H 0.47446 0.75881 0.30664 0.0
H524 H 0.66377 0.70709 0.27537 0.0
H525 H 0.72086 0.79438 0.28317 0.0
H526 H 0.5562 0.87963 0.32966 0.0
H527 H 0.531 0.88583 0.30262 0.0
Li528 Li 0.24897 0.14214 0.57154 0.0
Li529 Li 0.2814 0.097 0.56488 0.0
Li530 Li 0.24547 0.13405 0.55574 0.0
Li531 Li 0.2211 0.0911 0.56503 0.0
C532 C 0.30071 0.17606 0.5614 0.0
N533 N 0.33211 0.23678 0.55836 0.0
C534 C 0.33554 0.17883 0.56218 0.0
C535 C 0.28194 0.20411 0.55896 0.0
C536 C 0.35093 0.20976 0.56065 0.0
C537 C 0.29824 0.23459 0.55747 0.0
C538 C 0.27006 0.07614 0.58081 0.0
C539 C 0.29245 0.02331 0.58573 0.0
N540 N 0.30949 0.03968 0.59204 0.0
C541 C 0.28753 0.09243 0.5874 0.0
C542 C 0.27227 0.0413 0.58001 0.0
C543 C 0.30742 0.07355 0.59299 0.0
C544 C 0.22141 0.17322 0.58613 0.0
N545 N 0.2486 0.17277 0.58086 0.0
C546 C 0.2764 0.2137 0.58951 0.0
C547 C 0.27591 0.19225 0.58243 0.0
C548 C 0.24878 0.21461 0.5951 0.0
C549 C 0.221 0.19403 0.59336 0.0
H550 H 0.20024 0.15709 0.58476 0.0
H551 H 0.29765 0.19067 0.57833 0.0
C552 C 0.33411 0.04927 0.56133 0.0
N553 N 0.32423 0.07652 0.56594 0.0
C554 C 0.36657 0.0364 0.56234 0.0
C555 C 0.37763 0.07983 0.57283 0.0
C556 C 0.34523 0.09188 0.57158 0.0
C557 C 0.38873 0.05174 0.56819 0.0
H558 H 0.31693 0.0377 0.55683 0.0
H559 H 0.33679 0.11379 0.57506 0.0
C560 C 0.18402 0.16307 0.56322 0.0
N561 N 0.13427 0.21102 0.56154 0.0
C562 C 0.15227 0.15412 0.56015 0.0
C563 C 0.19016 0.19635 0.56559 0.0
C564 C 0.12755 0.17873 0.55929 0.0
C565 C 0.16478 0.22023 0.56465 0.0
C566 C 0.23858 0.05841 0.55063 0.0
C567 C 0.22191 0.0641 0.54286 0.0
C568 C 0.24106 0.02579 0.55386 0.0
C569 C 0.20748 0.03702 0.53851 0.0
C570 C 0.22625 0.99939 0.54933 0.0
N571 N 0.20989 0.00551 0.54181 0.0
C572 C 0.27039 0.1628 0.54048 0.0
C573 C 0.21111 0.16308 0.54163 0.0
C574 C 0.26868 0.17796 0.53239 0.0
N575 N 0.24183 0.15587 0.54492 0.0
C576 C 0.20821 0.1782 0.53358 0.0
C577 C 0.23724 0.18569 0.52882 0.0
H578 H 0.29449 0.15619 0.54318 0.0
H579 H 0.18879 0.15654 0.54517 0.0
C580 C 0.17723 0.0461 0.57366 0.0
N581 N 0.18323 0.06212 0.56609 0.0
C582 C 0.14779 0.02751 0.57478 0.0
C583 C 0.13162 0.04179 0.56025 0.0
C584 C 0.16127 0.0601 0.55943 0.0
C585 C 0.12427 0.02556 0.56805 0.0
H586 H 0.19486 0.04855 0.57891 0.0
H587 H 0.16632 0.07352 0.55353 0.0
O588 O 0.28529 0.14589 0.56288 0.0
O589 O 0.251 0.09426 0.57517 0.0
O590 O 0.20839 0.13911 0.5642 0.0
O591 O 0.25262 0.08463 0.55501 0.0
H592 H 0.35059 0.15734 0.56395 0.0
H593 H 0.25519 0.20223 0.55805 0.0
H594 H 0.37784 0.21227 0.56127 0.0
H595 H 0.28398 0.25645 0.55557 0.0
H596 H 0.29456 0.99635 0.58514 0.0
H597 H 0.28604 0.11938 0.58813 0.0
H598 H 0.25866 0.02831 0.575 0.0
H599 H 0.32128 0.08583 0.59808 0.0
H600 H 0.29854 0.22872 0.59073 0.0
H601 H 0.19924 0.1941 0.59753 0.0
H602 H 0.37413 0.0146 0.55867 0.0
H603 H 0.39403 0.0928 0.57728 0.0
H604 H 0.14679 0.12851 0.55837 0.0
H605 H 0.2141 0.20374 0.56823 0.0
H606 H 0.10299 0.17214 0.55686 0.0
H607 H 0.16929 0.24607 0.56645 0.0
H608 H 0.21995 0.08917 0.54024 0.0
H609 H 0.25412 0.02094 0.55983 0.0
H610 H 0.19433 0.04107 0.53251 0.0
H611 H 0.22779 0.97404 0.55178 0.0
H612 H 0.29166 0.18276 0.52888 0.0
H613 H 0.18347 0.18388 0.53109 0.0
H614 H 0.143 0.01577 0.58094 0.0
H615 H 0.11448 0.04065 0.55485 0.0
Li616 Li 0.90069 0.78628 0.81443 0.0
Li617 Li 0.85309 0.7535 0.82068 0.0
Li618 Li 0.90116 0.72637 0.81361 0.0
Li619 Li 0.86275 0.75584 0.8048 0.0
C620 C 0.92113 0.76756 0.8301 0.0
N621 N 0.96271 0.79771 0.84202 0.0
C622 C 0.90743 0.78538 0.837 0.0
C623 C 0.95591 0.76468 0.82932 0.0
C624 C 0.92889 0.80055 0.84294 0.0
C625 C 0.97653 0.78021 0.83539 0.0
C626 C 0.83298 0.81352 0.8079 0.0
C627 C 0.78024 0.82671 0.8011 0.0
N628 N 0.79526 0.85247 0.79684 0.0
C629 C 0.8479 0.84011 0.80346 0.0
C630 C 0.79887 0.80675 0.80673 0.0
C631 C 0.82839 0.85953 0.7979 0.0
C632 C 0.95142 0.83639 0.81162 0.0
N633 N 0.92404 0.82716 0.81627 0.0
C634 C 0.92468 0.8791 0.82392 0.0
C635 C 0.91042 0.84783 0.82227 0.0
C636 C 0.95296 0.88946 0.81924 0.0
C637 C 0.96635 0.86773 0.813 0.0
H638 H 0.96135 0.81969 0.80677 0.0
H639 H 0.88811 0.84013 0.82571 0.0
C640 C 0.8262 0.72894 0.83614 0.0
N641 N 0.82254 0.75265 0.82994 0.0
C642 C 0.80554 0.7293 0.8434 0.0
C643 C 0.77789 0.77856 0.83771 0.0
C644 C 0.7991 0.77724 0.83058 0.0
C645 C 0.78105 0.75446 0.84426 0.0
H646 H 0.84563 0.71015 0.83553 0.0
H647 H 0.79741 0.79631 0.82566 0.0
C648 C 0.93745 0.74554 0.79957 0.0
N649 N 0.98919 0.71843 0.79001 0.0
C650 C 0.93093 0.7311 0.79154 0.0
C651 C 0.9703 0.74649 0.80269 0.0
C652 C 0.95744 0.71748 0.78681 0.0
C653 C 0.9961 0.73253 0.79778 0.0
C654 C 0.85253 0.68324 0.81047 0.0
C655 C 0.85949 0.67129 0.80221 0.0
C656 C 0.84741 0.66053 0.81719 0.0
C657 C 0.86145 0.63671 0.80082 0.0
C658 C 0.84968 0.62614 0.81555 0.0
N659 N 0.85661 0.61504 0.80746 0.0
C660 C 0.92896 0.67463 0.82317 0.0
C661 C 0.93925 0.66748 0.80829 0.0
C662 C 0.94317 0.64343 0.82496 0.0
N663 N 0.92707 0.686 0.81494 0.0
C664 C 0.95422 0.63633 0.8098 0.0
C665 C 0.956 0.62364 0.81823 0.0
H666 H 0.91816 0.68928 0.82833 0.0
H667 H 0.93634 0.67609 0.80177 0.0
C668 C 0.85247 0.77799 0.78777 0.0
N669 N 0.84017 0.75795 0.7941 0.0
C670 C 0.83679 0.779 0.77975 0.0
C671 C 0.79565 0.73936 0.78501 0.0
C672 C 0.81207 0.73921 0.79293 0.0
C673 C 0.80823 0.75914 0.77825 0.0
H674 H 0.87472 0.79286 0.78894 0.0
H675 H 0.80277 0.72372 0.79812 0.0
O676 O 0.90057 0.75303 0.82414 0.0
O677 O 0.85187 0.7936 0.81317 0.0
O678 O 0.91192 0.75945 0.80423 0.0
O679 O 0.8515 0.71702 0.812 0.0
H680 H 0.88051 0.78776 0.8377 0.0
H681 H 0.96683 0.75063 0.82407 0.0
H682 H 0.91867 0.81464 0.84828 0.0
H683 H 0.00352 0.77834 0.83485 0.0
H684 H 0.75388 0.82163 0.80009 0.0
H685 H 0.87434 0.8455 0.80423 0.0
H686 H 0.78707 0.78593 0.81003 0.0
H687 H 0.83961 0.88013 0.7944 0.0
H688 H 0.91318 0.89533 0.82867 0.0
H689 H 0.98815 0.87484 0.80926 0.0
H690 H 0.80872 0.71016 0.84827 0.0
H691 H 0.75984 0.79878 0.83819 0.0
H692 H 0.90567 0.73012 0.78902 0.0
H693 H 0.9758 0.75785 0.80885 0.0
H694 H 0.95275 0.70607 0.78061 0.0
H695 H 0.02163 0.73295 0.80013 0.0
H696 H 0.86388 0.68853 0.79695 0.0
H697 H 0.8421 0.66938 0.82362 0.0
H698 H 0.86705 0.62711 0.79447 0.0
H699 H 0.84603 0.60827 0.8207 0.0
H700 H 0.94307 0.63456 0.83154 0.0
H701 H 0.96394 0.62227 0.80439 0.0
H702 H 0.84706 0.79493 0.77476 0.0
H703 H 0.77399 0.72334 0.78412 0.0
Li704 Li 0.75146 0.63543 0.69373 0.0
Li705 Li 0.78116 0.59339 0.6861 0.0
Li706 Li 0.74403 0.63437 0.67876 0.0
Li707 Li 0.7183 0.59027 0.68738 0.0
C708 C 0.80838 0.66436 0.6885 0.0
N709 N 0.85255 0.70901 0.69603 0.0
C710 C 0.8372 0.65259 0.69264 0.0
C711 C 0.80233 0.69885 0.68806 0.0
C712 C 0.85915 0.67556 0.69644 0.0
C713 C 0.82487 0.72102 0.69195 0.0
C714 C 0.74838 0.58619 0.70518 0.0
C715 C 0.71349 0.59938 0.71741 0.0
N716 N 0.7387 0.58977 0.72276 0.0
C717 C 0.7739 0.57634 0.71081 0.0
C718 C 0.71787 0.59769 0.7085 0.0
C719 C 0.76852 0.57836 0.71967 0.0
C720 C 0.72967 0.68564 0.7055 0.0
N721 N 0.75483 0.66381 0.70362 0.0
C722 C 0.78275 0.67704 0.71678 0.0
C723 C 0.78131 0.65965 0.70902 0.0
C724 C 0.75676 0.69922 0.71901 0.0
C725 C 0.73021 0.70382 0.71318 0.0
H726 H 0.70866 0.68822 0.70117 0.0
H727 H 0.80065 0.64166 0.70748 0.0
C728 C 0.83878 0.57756 0.67725 0.0
N729 N 0.82153 0.56933 0.68448 0.0
C730 C 0.86997 0.56317 0.6756 0.0
C731 C 0.865 0.53178 0.68885 0.0
C732 C 0.83369 0.54668 0.69022 0.0
C733 C 0.88361 0.54015 0.68147 0.0
H734 H 0.82844 0.59585 0.67284 0.0
H735 H 0.81926 0.54045 0.69589 0.0
C736 C 0.6868 0.66162 0.6842 0.0
N737 N 0.64361 0.70782 0.67692 0.0
C738 C 0.65412 0.65224 0.682 0.0
C739 C 0.6973 0.69466 0.68284 0.0
C740 C 0.63272 0.67592 0.67829 0.0
C741 C 0.67517 0.7176 0.67911 0.0
C742 C 0.74798 0.55315 0.67406 0.0
C743 C 0.74642 0.5465 0.66525 0.0
C744 C 0.75092 0.5266 0.67989 0.0
C745 C 0.74785 0.51328 0.6624 0.0
C746 C 0.75228 0.49374 0.67678 0.0
N747 N 0.75073 0.48781 0.66817 0.0
C748 C 0.76353 0.67499 0.66468 0.0
C749 C 0.7094 0.65064 0.66374 0.0
C750 C 0.76065 0.68767 0.65633 0.0
N751 N 0.73817 0.65668 0.66815 0.0
C752 C 0.70515 0.66339 0.65547 0.0
C753 C 0.73128 0.68156 0.65155 0.0
H754 H 0.78646 0.67867 0.66828 0.0
H755 H 0.69005 0.63518 0.66657 0.0
C756 C 0.66768 0.54561 0.69428 0.0
N757 N 0.67991 0.56208 0.68728 0.0
C758 C 0.63759 0.52765 0.69368 0.0
C759 C 0.6342 0.54296 0.67866 0.0
C760 C 0.66409 0.56069 0.67956 0.0
C761 C 0.62034 0.52643 0.6858 0.0
H762 H 0.68093 0.54672 0.70033 0.0
H763 H 0.67433 0.57423 0.67413 0.0
O764 O 0.78653 0.64224 0.68477 0.0
O765 O 0.7534 0.58523 0.69648 0.0
O766 O 0.70824 0.63869 0.68776 0.0
O767 O 0.74662 0.58556 0.67692 0.0
H768 H 0.84235 0.626 0.69303 0.0
H769 H 0.78052 0.70843 0.68475 0.0
H770 H 0.88139 0.66679 0.69973 0.0
H771 H 0.82039 0.74777 0.6917 0.0
H772 H 0.69012 0.60849 0.72006 0.0
H773 H 0.79778 0.56771 0.70837 0.0
H774 H 0.698 0.6058 0.70424 0.0
H775 H 0.78811 0.57101 0.7241 0.0
H776 H 0.80334 0.672 0.72113 0.0
H777 H 0.70978 0.72085 0.7146 0.0
H778 H 0.88364 0.57062 0.66989 0.0
H779 H 0.8745 0.51386 0.69349 0.0
H780 H 0.64533 0.62698 0.68315 0.0
H781 H 0.72234 0.70241 0.6846 0.0
H782 H 0.60742 0.66895 0.67651 0.0
H783 H 0.68308 0.74318 0.67796 0.0
H784 H 0.74411 0.56682 0.66066 0.0
H785 H 0.75212 0.53125 0.68673 0.0
H786 H 0.74667 0.50774 0.65559 0.0
H787 H 0.75456 0.47294 0.68122 0.0
H788 H 0.78172 0.70098 0.65357 0.0
H789 H 0.68179 0.65852 0.65215 0.0
H790 H 0.6279 0.51492 0.69932 0.0
H791 H 0.62154 0.5431 0.6725 0.0
Li792 Li 0.36886 0.24825 0.94428 0.0
Li793 Li 0.41724 0.27202 0.93698 0.0
Li794 Li 0.36782 0.25509 0.92863 0.0
Li795 Li 0.40438 0.21319 0.93489 0.0
C796 C 0.34138 0.30772 0.93813 0.0
N797 N 0.28154 0.34249 0.93903 0.0
C798 C 0.34138 0.34278 0.93822 0.0
C799 C 0.31096 0.29032 0.93851 0.0
C800 C 0.31086 0.35991 0.93867 0.0
C801 C 0.28097 0.30836 0.93896 0.0
C802 C 0.44349 0.24084 0.95097 0.0
C803 C 0.50117 0.23011 0.95476 0.0
N804 N 0.49824 0.25158 0.96152 0.0
C805 C 0.4409 0.26237 0.95803 0.0
C806 C 0.47372 0.2242 0.94938 0.0
C807 C 0.46892 0.26766 0.96326 0.0
C808 C 0.32839 0.22059 0.9573 0.0
N809 N 0.34434 0.24893 0.95469 0.0
C810 C 0.32987 0.27689 0.96775 0.0
C811 C 0.34496 0.27698 0.95965 0.0
C812 C 0.31378 0.24769 0.97074 0.0
C813 C 0.31265 0.21948 0.96531 0.0
H814 H 0.32863 0.1986 0.95323 0.0
H815 H 0.35813 0.29906 0.95742 0.0
C816 C 0.47138 0.31313 0.93133 0.0
N817 N 0.44947 0.30716 0.93785 0.0
C818 C 0.49141 0.34188 0.9314 0.0
C819 C 0.46614 0.35777 0.94493 0.0
C820 C 0.44651 0.32878 0.94458 0.0
C821 C 0.4886 0.36496 0.9382 0.0
H822 H 0.47225 0.29652 0.92586 0.0
H823 H 0.42793 0.32418 0.9495 0.0
C824 C 0.34066 0.19017 0.9304 0.0
N825 N 0.314 0.13957 0.92034 0.0
C826 C 0.3504 0.18681 0.92181 0.0
C827 C 0.31725 0.16782 0.93387 0.0
C828 C 0.33668 0.16109 0.91683 0.0
C829 C 0.30408 0.1424 0.92868 0.0
C830 C 0.44018 0.23461 0.92077 0.0
C831 C 0.43356 0.22824 0.91209 0.0
C832 C 0.47202 0.22784 0.9241 0.0
C833 C 0.45886 0.21482 0.90691 0.0
C834 C 0.49666 0.21444 0.91871 0.0
N835 N 0.48961 0.20823 0.9103 0.0
C836 C 0.35885 0.28494 0.91277 0.0
C837 C 0.30985 0.2572 0.91769 0.0
C838 C 0.34348 0.29242 0.90496 0.0
N839 N 0.34217 0.26711 0.91885 0.0
C840 C 0.29341 0.26423 0.90996 0.0
C841 C 0.31045 0.28166 0.90342 0.0
H842 H 0.38454 0.29249 0.9139 0.0
H843 H 0.29712 0.24317 0.92267 0.0
C844 C 0.42498 0.15067 0.94113 0.0
N845 N 0.42056 0.16832 0.93374 0.0
C846 C 0.43224 0.11639 0.94084 0.0
C847 C 0.43076 0.11919 0.92532 0.0
C848 C 0.42373 0.15338 0.92591 0.0
C849 C 0.43451 0.10012 0.93285 0.0
H850 H 0.42169 0.163 0.94727 0.0
H851 H 0.41952 0.16757 0.92011 0.0
O852 O 0.37113 0.29073 0.93768 0.0
O853 O 0.41633 0.23538 0.94578 0.0
O854 O 0.35391 0.21509 0.93543 0.0
O855 O 0.4156 0.24743 0.92597 0.0
H856 H 0.36476 0.35658 0.93793 0.0
H857 H 0.31042 0.2632 0.93847 0.0
H858 H 0.31047 0.38705 0.93874 0.0
H859 H 0.25724 0.29523 0.93925 0.0
H860 H 0.52476 0.21751 0.95358 0.0
H861 H 0.41756 0.27506 0.95943 0.0
H862 H 0.47592 0.20667 0.9441 0.0
H863 H 0.46733 0.2845 0.9687 0.0
H864 H 0.33196 0.29906 0.97173 0.0
H865 H 0.30017 0.1966 0.96727 0.0
H866 H 0.50772 0.34673 0.92597 0.0
H867 H 0.46319 0.37474 0.95032 0.0
H868 H 0.36845 0.20381 0.91902 0.0
H869 H 0.30929 0.17006 0.94049 0.0
H870 H 0.34409 0.15821 0.91018 0.0
H871 H 0.28597 0.12491 0.93128 0.0
H872 H 0.40909 0.23335 0.90939 0.0
H873 H 0.47771 0.23317 0.93075 0.0
H874 H 0.45404 0.20962 0.90019 0.0
H875 H 0.5214 0.20905 0.92121 0.0
H876 H 0.35776 0.30551 0.90007 0.0
H877 H 0.26778 0.25587 0.90909 0.0
H878 H 0.43463 0.10252 0.9468 0.0
H879 H 0.43265 0.10768 0.91903 0.0
Li880 Li 0.75177 0.86333 0.19185 0.0
Li881 Li 0.71763 0.90356 0.18397 0.0
Li882 Li 0.74879 0.85869 0.17676 0.0
Li883 Li 0.78064 0.9045 0.18251 0.0
C884 C 0.69512 0.83108 0.18961 0.0
N885 N 0.66418 0.78339 0.1998 0.0
C886 C 0.66812 0.84003 0.19487 0.0
C887 C 0.70601 0.79776 0.18943 0.0
C888 C 0.6529 0.81559 0.2 0.0
C889 C 0.69016 0.77405 0.19466 0.0
C890 C 0.75372 0.94603 0.19512 0.0
C891 C 0.74957 0.00449 0.19126 0.0
N892 N 0.75742 0.01313 0.19948 0.0
C893 C 0.76171 0.95546 0.20353 0.0
C894 C 0.74756 0.9707 0.18893 0.0
C895 C 0.76346 0.98952 0.20561 0.0
C896 C 0.77419 0.81601 0.20452 0.0
N897 N 0.75308 0.84182 0.20271 0.0
C898 C 0.72937 0.83926 0.21678 0.0
C899 C 0.73122 0.85383 0.20865 0.0
C900 C 0.75065 0.81235 0.21888 0.0
C901 C 0.77338 0.80077 0.21262 0.0
H902 H 0.79168 0.8073 0.19971 0.0
H903 H 0.71488 0.87454 0.20702 0.0
C904 C 0.65688 0.93517 0.17825 0.0
N905 N 0.67689 0.92819 0.1851 0.0
C906 C 0.62435 0.94736 0.17954 0.0
C907 C 0.63448 0.94671 0.19486 0.0
C908 C 0.6667 0.93456 0.19328 0.0
C909 C 0.61243 0.95225 0.18796 0.0
H910 H 0.66552 0.92991 0.17181 0.0
H911 H 0.68301 0.92849 0.19861 0.0
C912 C 0.81057 0.83364 0.18004 0.0
N913 N 0.85261 0.7882 0.17201 0.0
C914 C 0.83747 0.84497 0.17504 0.0
C915 C 0.80528 0.79917 0.181 0.0
C916 C 0.85839 0.82161 0.17103 0.0
C917 C 0.82671 0.77661 0.17687 0.0
C918 C 0.74649 0.90445 0.16462 0.0
C919 C 0.77633 0.90897 0.16004 0.0
C920 C 0.71725 0.89541 0.16022 0.0
C921 C 0.77637 0.90457 0.15112 0.0
C922 C 0.71835 0.89113 0.15131 0.0
N923 N 0.74763 0.89579 0.14698 0.0
C924 C 0.71629 0.81071 0.16629 0.0
C925 C 0.7708 0.82492 0.16146 0.0
C926 C 0.71159 0.78968 0.1592 0.0
N927 N 0.74555 0.8278 0.16729 0.0
C928 C 0.76732 0.80401 0.15433 0.0
C929 C 0.73729 0.78622 0.15308 0.0
H930 H 0.69618 0.81409 0.17086 0.0
H931 H 0.79335 0.83954 0.16217 0.0
C932 C 0.84671 0.92186 0.18631 0.0
N933 N 0.81957 0.93175 0.18167 0.0
C934 C 0.87754 0.93787 0.18521 0.0
C935 C 0.85135 0.97541 0.17501 0.0
C936 C 0.821 0.95858 0.17629 0.0
C937 C 0.88036 0.96455 0.17935 0.0
H938 H 0.84471 0.90049 0.19057 0.0
H939 H 0.79884 0.96621 0.17278 0.0
O940 O 0.71095 0.85481 0.18471 0.0
O941 O 0.75206 0.91276 0.19301 0.0
O942 O 0.78998 0.85614 0.18409 0.0
O943 O 0.74607 0.90815 0.17337 0.0
H944 H 0.65916 0.86559 0.19505 0.0
H945 H 0.72652 0.79031 0.18531 0.0
H946 H 0.63216 0.82224 0.20415 0.0
H947 H 0.69849 0.74822 0.19462 0.0
H948 H 0.7449 0.02385 0.18653 0.0
H949 H 0.76652 0.93662 0.20839 0.0
H950 H 0.74128 0.9639 0.18239 0.0
H951 H 0.76964 0.9972 0.21209 0.0
H952 H 0.71103 0.84868 0.22131 0.0
H953 H 0.79055 0.78042 0.21399 0.0
H954 H 0.60817 0.95115 0.17403 0.0
H955 H 0.62654 0.95066 0.20145 0.0
H956 H 0.8418 0.87148 0.17411 0.0
H957 H 0.78481 0.78987 0.18488 0.0
H958 H 0.87913 0.83005 0.16709 0.0
H959 H 0.82278 0.74987 0.17754 0.0
H960 H 0.79939 0.91517 0.16333 0.0
H961 H 0.69417 0.89085 0.16367 0.0
H962 H 0.79932 0.90786 0.1475 0.0
H963 H 0.69598 0.88386 0.14784 0.0
H964 H 0.68775 0.77701 0.15842 0.0
H965 H 0.78794 0.80198 0.14982 0.0
H966 H 0.89921 0.92843 0.18864 0.0
H967 H 0.85224 0.99627 0.17055 0.0
Li968 Li 0.09633 0.22089 0.43309 0.0
Li969 Li 0.13719 0.25065 0.44173 0.0
Li970 Li 0.09926 0.28527 0.43318 0.0
Li971 Li 0.14223 0.25133 0.42655 0.0
C972 C 0.08285 0.24828 0.45122 0.0
N973 N 0.07746 0.23813 0.46874 0.0
C974 C 0.07999 0.21575 0.4545 0.0
C975 C 0.08268 0.27566 0.45683 0.0
C976 C 0.07733 0.21115 0.46338 0.0
C977 C 0.08002 0.27 0.46567 0.0
C978 C 0.17738 0.20091 0.43509 0.0
C979 C 0.23667 0.21294 0.43573 0.0
N980 N 0.24302 0.17984 0.4371 0.0
C981 C 0.18452 0.16702 0.43653 0.0
C982 C 0.2037 0.22406 0.43472 0.0
C983 C 0.21784 0.15687 0.43752 0.0
C984 C 0.08413 0.15232 0.43168 0.0
N985 N 0.06858 0.18236 0.4327 0.0
C986 C 0.01562 0.15522 0.43452 0.0
C987 C 0.03495 0.18444 0.434 0.0
C988 C 0.0312 0.12361 0.43382 0.0
C989 C 0.06594 0.12254 0.43227 0.0
H990 H 0.11087 0.15151 0.43061 0.0
H991 H 0.0233 0.20876 0.4348 0.0
C992 C 0.16871 0.27716 0.45663 0.0
N993 N 0.15946 0.24858 0.45249 0.0
C994 C 0.18241 0.27551 0.46489 0.0
C995 C 0.17726 0.21506 0.46435 0.0
C996 C 0.16367 0.21789 0.45613 0.0
C997 C 0.18639 0.24413 0.46889 0.0
H998 H 0.16448 0.30125 0.45361 0.0
H999 H 0.15556 0.19564 0.45274 0.0
C1000 C 0.09482 0.24889 0.41465 0.0
N1001 N 0.09958 0.23933 0.3971 0.0
C1002 C 0.10241 0.27588 0.40925 0.0
C1003 C 0.08921 0.21713 0.41112 0.0
C1004 C 0.10486 0.2705 0.40039 0.0
C1005 C 0.09181 0.21279 0.40223 0.0
C1006 C 0.16595 0.31717 0.43219 0.0
C1007 C 0.15316 0.3395 0.42608 0.0
C1008 C 0.19699 0.32374 0.43602 0.0
C1009 C 0.17177 0.36791 0.42385 0.0
C1010 C 0.21487 0.3524 0.43361 0.0
N1011 N 0.20199 0.37371 0.42763 0.0
C1012 C 0.0825 0.35025 0.43858 0.0
C1013 C 0.05586 0.33295 0.42568 0.0
C1014 C 0.07007 0.38277 0.43759 0.0
N1015 N 0.07561 0.32637 0.4326 0.0
C1016 C 0.0432 0.36522 0.42439 0.0
C1017 C 0.05085 0.39074 0.43031 0.0
H1018 H 0.09905 0.34447 0.44389 0.0
H1019 H 0.05118 0.31351 0.42098 0.0
C1020 C 0.17239 0.21634 0.41321 0.0
N1021 N 0.17172 0.24735 0.41685 0.0
C1022 C 0.19056 0.21065 0.4057 0.0
C1023 C 0.20832 0.2686 0.40596 0.0
C1024 C 0.18959 0.27321 0.41345 0.0
C1025 C 0.2086 0.23708 0.40191 0.0
H1026 H 0.15795 0.19618 0.41604 0.0
H1027 H 0.18911 0.29755 0.41643 0.0
O1028 O 0.08667 0.2532 0.44257 0.0
O1029 O 0.14475 0.21121 0.43419 0.0
O1030 O 0.09326 0.25339 0.42337 0.0
O1031 O 0.14787 0.28957 0.43465 0.0
H1032 H 0.08036 0.19426 0.45025 0.0
H1033 H 0.085 0.30097 0.4544 0.0
H1034 H 0.07536 0.18611 0.46602 0.0
H1035 H 0.08012 0.29094 0.4701 0.0
H1036 H 0.25723 0.23063 0.43543 0.0
H1037 H 0.16456 0.14871 0.43695 0.0
H1038 H 0.19885 0.25033 0.43363 0.0
H1039 H 0.22368 0.13072 0.43865 0.0
H1040 H 0.98886 0.15742 0.43557 0.0
H1041 H 0.0793 0.09896 0.43181 0.0
H1042 H 0.18874 0.29854 0.46821 0.0
H1043 H 0.18025 0.19036 0.46715 0.0
H1044 H 0.10674 0.30063 0.41187 0.0
H1045 H 0.08332 0.19597 0.41521 0.0
H1046 H 0.11102 0.29109 0.39614 0.0
H1047 H 0.08779 0.1883 0.39941 0.0
H1048 H 0.12939 0.3348 0.42299 0.0
H1049 H 0.20718 0.30688 0.44081 0.0
H1050 H 0.16221 0.38531 0.41911 0.0
H1051 H 0.23895 0.35773 0.43651 0.0
H1052 H 0.07688 0.40186 0.44224 0.0
H1053 H 0.02827 0.37037 0.41872 0.0
H1054 H 0.18963 0.18604 0.40275 0.0
H1055 H 0.22233 0.28955 0.40336 0.0
Li1056 Li 0.72018 0.90951 0.56358 0.0
Li1057 Li 0.74309 0.86144 0.57099 0.0
Li1058 Li 0.78219 0.90357 0.56495 0.0
Li1059 Li 0.75088 0.86546 0.55572 0.0
C1060 C 0.73364 0.91412 0.58208 0.0
N1061 N 0.705 0.92188 0.59814 0.0
C1062 C 0.69936 0.90832 0.58325 0.0
C1063 C 0.75336 0.92386 0.58908 0.0
C1064 C 0.68535 0.91239 0.59142 0.0
C1065 C 0.73841 0.92765 0.59715 0.0
C1066 C 0.68597 0.83648 0.56382 0.0
C1067 C 0.67438 0.77751 0.56572 0.0
N1068 N 0.64223 0.78505 0.56791 0.0
C1069 C 0.65277 0.84363 0.56608 0.0
C1070 C 0.69685 0.80315 0.56363 0.0
C1071 C 0.63106 0.81729 0.56813 0.0
C1072 C 0.65651 0.93053 0.55824 0.0
N1073 N 0.68299 0.93935 0.56326 0.0
C1074 C 0.6512 0.98339 0.56973 0.0
C1075 C 0.68133 0.96598 0.5687 0.0
C1076 C 0.62258 0.9732 0.56512 0.0
C1077 C 0.62585 0.94713 0.55909 0.0
H1078 H 0.65863 0.90921 0.55397 0.0
H1079 H 0.70284 0.97255 0.57259 0.0
C1080 C 0.76645 0.82 0.58425 0.0
N1081 N 0.7379 0.83253 0.5807 0.0
C1082 C 0.7648 0.79939 0.5915 0.0
C1083 C 0.7044 0.80477 0.59127 0.0
C1084 C 0.70727 0.82584 0.58416 0.0
C1085 C 0.73341 0.79138 0.59501 0.0
H1086 H 0.79053 0.82625 0.58147 0.0
H1087 H 0.685 0.83708 0.5815 0.0
C1088 C 0.75865 0.9486 0.55254 0.0
N1089 N 0.76447 0.01603 0.54869 0.0
C1090 C 0.75835 0.9593 0.54399 0.0
C1091 C 0.76194 0.97218 0.55915 0.0
C1092 C 0.76132 0.99351 0.54217 0.0
C1093 C 0.76484 0.00616 0.55707 0.0
C1094 C 0.80563 0.83119 0.56094 0.0
C1095 C 0.83352 0.84168 0.5562 0.0
C1096 C 0.79933 0.79693 0.56196 0.0
C1097 C 0.85425 0.81766 0.55238 0.0
C1098 C 0.82066 0.77368 0.55804 0.0
N1099 N 0.84742 0.78444 0.55337 0.0
C1100 C 0.83968 0.91858 0.57442 0.0
C1101 C 0.84193 0.93843 0.56006 0.0
C1102 C 0.87292 0.92821 0.5758 0.0
N1103 N 0.82503 0.92358 0.56664 0.0
C1104 C 0.87527 0.94845 0.56116 0.0
C1105 C 0.8914 0.94281 0.56907 0.0
H1106 H 0.82588 0.90597 0.57946 0.0
H1107 H 0.83005 0.94118 0.55385 0.0
C1108 C 0.73142 0.81879 0.54264 0.0
N1109 N 0.75436 0.84218 0.54508 0.0
C1110 C 0.73483 0.80213 0.53478 0.0
C1111 C 0.78499 0.83447 0.53203 0.0
C1112 C 0.78053 0.85055 0.53991 0.0
C1113 C 0.76194 0.80988 0.52936 0.0
H1114 H 0.71019 0.81335 0.5467 0.0
H1115 H 0.79797 0.86979 0.54193 0.0
O1116 O 0.74795 0.90987 0.57416 0.0
O1117 O 0.70771 0.86198 0.56187 0.0
O1118 O 0.75569 0.91516 0.55438 0.0
O1119 O 0.78488 0.85434 0.56466 0.0
H1120 H 0.6838 0.90036 0.57793 0.0
H1121 H 0.77993 0.92848 0.58829 0.0
H1122 H 0.65887 0.90787 0.59242 0.0
H1123 H 0.75337 0.93517 0.60263 0.0
H1124 H 0.68253 0.75163 0.56562 0.0
H1125 H 0.64392 0.86924 0.56637 0.0
H1126 H 0.72239 0.79717 0.5619 0.0
H1127 H 0.60535 0.82248 0.56992 0.0
H1128 H 0.65001 0.00379 0.57432 0.0
H1129 H 0.60449 0.93823 0.55544 0.0
H1130 H 0.78768 0.78951 0.59428 0.0
H1131 H 0.67984 0.79949 0.59393 0.0
H1132 H 0.75584 0.94132 0.5388 0.0
H1133 H 0.7624 0.96443 0.56581 0.0
H1134 H 0.76113 0.00215 0.53557 0.0
H1135 H 0.76741 0.02468 0.56211 0.0
H1136 H 0.83889 0.86808 0.55539 0.0
H1137 H 0.77834 0.78835 0.56577 0.0
H1138 H 0.87574 0.82543 0.54863 0.0
H1139 H 0.81599 0.74708 0.55875 0.0
H1140 H 0.8842 0.92368 0.58203 0.0
H1141 H 0.88867 0.95909 0.55575 0.0
H1142 H 0.71607 0.78389 0.5329 0.0
H1143 H 0.80639 0.84112 0.52809 0.0
Li1144 Li 0.13622 0.25505 0.82211 0.0
Li1145 Li 0.09171 0.22432 0.81521 0.0
Li1146 Li 0.13386 0.25564 0.80659 0.0
Li1147 Li 0.09336 0.28762 0.81513 0.0
C1148 C 0.15951 0.18972 0.81631 0.0
N1149 N 0.19815 0.13446 0.82046 0.0
C1150 C 0.14754 0.16584 0.82215 0.0
C1151 C 0.1909 0.18516 0.81248 0.0
C1152 C 0.16751 0.13816 0.82418 0.0
C1153 C 0.21014 0.15717 0.8147 0.0
C1154 C 0.08749 0.25675 0.83367 0.0
C1155 C 0.08419 0.28719 0.84705 0.0
N1156 N 0.09035 0.25827 0.85143 0.0
C1157 C 0.09336 0.22727 0.8383 0.0
C1158 C 0.08252 0.28691 0.83808 0.0
C1159 C 0.09488 0.22858 0.84727 0.0
C1160 C 0.16491 0.29012 0.83531 0.0
N1161 N 0.16454 0.2586 0.83198 0.0
C1162 C 0.20101 0.23928 0.84313 0.0
C1163 C 0.18219 0.23326 0.83569 0.0
C1164 C 0.20156 0.27165 0.84674 0.0
C1165 C 0.18312 0.2972 0.84271 0.0
H1166 H 0.15045 0.30974 0.83225 0.0
H1167 H 0.18162 0.20841 0.83296 0.0
C1168 C 0.07485 0.15873 0.81039 0.0
N1169 N 0.06607 0.18437 0.8157 0.0
C1170 C 0.06062 0.12698 0.81147 0.0
C1171 C 0.02745 0.14913 0.82319 0.0
C1172 C 0.04243 0.18042 0.82191 0.0
C1173 C 0.0371 0.12166 0.81807 0.0
H1174 H 0.09413 0.16259 0.80559 0.0
H1175 H 0.03613 0.20124 0.82606 0.0
C1176 C 0.17468 0.30507 0.81401 0.0
N1177 N 0.24021 0.32747 0.81317 0.0
C1178 C 0.18147 0.33927 0.81302 0.0
C1179 C 0.20123 0.2823 0.81458 0.0
C1180 C 0.21477 0.35009 0.8126 0.0
C1181 C 0.23418 0.29409 0.81415 0.0
C1182 C 0.07531 0.27422 0.79807 0.0
C1183 C 0.09051 0.30523 0.79648 0.0
C1184 C 0.05184 0.26153 0.79225 0.0
C1185 C 0.08188 0.32308 0.78908 0.0
C1186 C 0.04387 0.28016 0.78491 0.0
N1187 N 0.05893 0.31029 0.78349 0.0
C1188 C 0.15697 0.22504 0.79146 0.0
C1189 C 0.17491 0.28142 0.79312 0.0
C1190 C 0.17349 0.22274 0.78355 0.0
N1191 N 0.15802 0.25407 0.79605 0.0
C1192 C 0.19238 0.27997 0.78537 0.0
C1193 C 0.19163 0.25042 0.78049 0.0
H1194 H 0.143 0.20382 0.79391 0.0
H1195 H 0.17446 0.30459 0.7967 0.0
C1196 C 0.0888 0.3528 0.82028 0.0
N1197 N 0.07025 0.32912 0.81619 0.0
C1198 C 0.07581 0.38466 0.82174 0.0
C1199 C 0.02448 0.36754 0.81472 0.0
C1200 C 0.03865 0.33575 0.81336 0.0
C1201 C 0.0431 0.3924 0.81904 0.0
H1202 H 0.11374 0.34675 0.82251 0.0
H1203 H 0.02444 0.31639 0.81011 0.0
O1204 O 0.14014 0.2167 0.81409 0.0
O1205 O 0.08686 0.25614 0.82487 0.0
O1206 O 0.14217 0.29413 0.81444 0.0
O1207 O 0.08356 0.25605 0.80523 0.0
H1208 H 0.12315 0.1686 0.82508 0.0
H1209 H 0.20027 0.20298 0.8078 0.0
H1210 H 0.15861 0.11959 0.82872 0.0
H1211 H 0.23454 0.15343 0.81181 0.0
H1212 H 0.08067 0.3104 0.85054 0.0
H1213 H 0.09698 0.20369 0.83501 0.0
H1214 H 0.07771 0.30991 0.83461 0.0
H1215 H 0.0997 0.206 0.85093 0.0
H1216 H 0.21512 0.21891 0.84598 0.0
H1217 H 0.18219 0.32235 0.84534 0.0
H1218 H 0.06915 0.10653 0.80744 0.0
H1219 H 0.00904 0.14633 0.82826 0.0
H1220 H 0.16123 0.35725 0.81252 0.0
H1221 H 0.19646 0.25586 0.81542 0.0
H1222 H 0.22038 0.37647 0.81182 0.0
H1223 H 0.25495 0.27672 0.8146 0.0
H1224 H 0.10883 0.31543 0.80089 0.0
H1225 H 0.03994 0.23751 0.79338 0.0
H1226 H 0.09346 0.3471 0.78776 0.0
H1227 H 0.02574 0.27065 0.78034 0.0
H1228 H 0.17223 0.19967 0.77988 0.0
H1229 H 0.20558 0.30201 0.78308 0.0
H1230 H 0.09142 0.4031 0.82492 0.0
H1231 H 0.99912 0.3724 0.81255 0.0
Li1232 Li 0.75149 0.63482 0.06866 0.0
Li1233 Li 0.78657 0.59867 0.05983 0.0
Li1234 Li 0.75463 0.6435 0.05334 0.0
Li1235 Li 0.72463 0.5951 0.05874 0.0
C1236 C 0.79948 0.68064 0.06301 0.0
N1237 N 0.81539 0.74746 0.06543 0.0
C1238 C 0.83299 0.6909 0.06309 0.0
C1239 C 0.77403 0.70437 0.06416 0.0
C1240 C 0.84053 0.7248 0.06433 0.0
C1241 C 0.7826 0.73803 0.06537 0.0
C1242 C 0.75896 0.56584 0.0757 0.0
C1243 C 0.74811 0.51559 0.08388 0.0
N1244 N 0.76963 0.5265 0.09007 0.0
C1245 C 0.78085 0.57663 0.08215 0.0
C1246 C 0.74232 0.53517 0.07658 0.0
C1247 C 0.78595 0.55635 0.08937 0.0
C1248 C 0.71541 0.65073 0.08343 0.0
N1249 N 0.74621 0.65361 0.07977 0.0
C1250 C 0.76799 0.67979 0.09241 0.0
C1251 C 0.77236 0.6678 0.08405 0.0
C1252 C 0.73652 0.67682 0.09641 0.0
C1253 C 0.70997 0.66219 0.0918 0.0
H1254 H 0.69519 0.63911 0.07987 0.0
H1255 H 0.79678 0.66915 0.08104 0.0
C1256 C 0.84177 0.5735 0.05089 0.0
N1257 N 0.82899 0.57669 0.05895 0.0
C1258 C 0.87436 0.56184 0.04965 0.0
C1259 C 0.88053 0.55728 0.06506 0.0
C1260 C 0.84753 0.56863 0.06599 0.0
C1261 C 0.89459 0.55431 0.0568 0.0
H1262 H 0.82712 0.58118 0.04539 0.0
H1263 H 0.83735 0.57239 0.07235 0.0
C1264 C 0.68574 0.65136 0.05598 0.0
N1265 N 0.62866 0.66663 0.0467 0.0
C1266 C 0.68229 0.64013 0.0475 0.0
C1267 C 0.66016 0.6703 0.05974 0.0
C1268 C 0.65324 0.64813 0.04292 0.0
C1269 C 0.63149 0.67779 0.05494 0.0
C1270 C 0.76042 0.56561 0.04541 0.0
C1271 C 0.76034 0.56291 0.03645 0.0
C1272 C 0.7629 0.53664 0.05045 0.0
C1273 C 0.76265 0.53121 0.03266 0.0
C1274 C 0.76517 0.5054 0.04642 0.0
N1275 N 0.76499 0.50335 0.03768 0.0
C1276 C 0.77776 0.66562 0.03767 0.0
C1277 C 0.7366 0.702 0.04351 0.0
C1278 C 0.77818 0.68375 0.03001 0.0
N1279 N 0.75658 0.67445 0.04411 0.0
C1280 C 0.73602 0.72079 0.03592 0.0
C1281 C 0.75632 0.7111 0.02895 0.0
H1282 H 0.79348 0.64366 0.03837 0.0
H1283 H 0.72007 0.70855 0.04877 0.0
C1284 C 0.6628 0.57062 0.0641 0.0
N1285 N 0.68483 0.56905 0.05745 0.0
C1286 C 0.63038 0.55776 0.06321 0.0
C1287 C 0.64446 0.54055 0.04875 0.0
C1288 C 0.67642 0.55411 0.04989 0.0
C1289 C 0.62058 0.54306 0.05538 0.0
H1290 H 0.66992 0.58341 0.06997 0.0
H1291 H 0.69381 0.55401 0.04458 0.0
O1292 O 0.79188 0.6475 0.06179 0.0
O1293 O 0.75321 0.58536 0.06862 0.0
O1294 O 0.71367 0.64346 0.06068 0.0
O1295 O 0.75813 0.59657 0.04917 0.0
H1296 H 0.85297 0.67281 0.0622 0.0
H1297 H 0.74795 0.69697 0.06414 0.0
H1298 H 0.86638 0.73309 0.0644 0.0
H1299 H 0.76317 0.75665 0.06627 0.0
H1300 H 0.73548 0.49173 0.08463 0.0
H1301 H 0.79399 0.60025 0.08156 0.0
H1302 H 0.72514 0.52657 0.07165 0.0
H1303 H 0.80292 0.56433 0.0944 0.0
H1304 H 0.78923 0.69046 0.09579 0.0
H1305 H 0.68526 0.6597 0.09463 0.0
H1306 H 0.88382 0.55951 0.04315 0.0
H1307 H 0.89527 0.55235 0.07077 0.0
H1308 H 0.70176 0.62538 0.04448 0.0
H1309 H 0.66242 0.67904 0.06631 0.0
H1310 H 0.65024 0.6396 0.03636 0.0
H1311 H 0.61148 0.69242 0.05776 0.0
H1312 H 0.75845 0.58513 0.03247 0.0
H1313 H 0.76312 0.53816 0.05738 0.0
H1314 H 0.76257 0.52875 0.02574 0.0
H1315 H 0.76709 0.48278 0.05023 0.0
H1316 H 0.79468 0.67577 0.02487 0.0
H1317 H 0.71859 0.74151 0.03537 0.0
H1318 H 0.61279 0.56081 0.06846 0.0
H1319 H 0.63829 0.52904 0.04265 0.0
Li1320 Li 0.3578 0.25153 0.31724 0.0
Li1321 Li 0.40273 0.28257 0.30921 0.0
Li1322 Li 0.35849 0.2481 0.30184 0.0
Li1323 Li 0.40126 0.22128 0.31005 0.0
C1324 C 0.3301 0.30874 0.31318 0.0
N1325 N 0.28479 0.34745 0.32226 0.0
C1326 C 0.3402 0.3392 0.3168 0.0
C1327 C 0.29687 0.29812 0.31411 0.0
C1328 C 0.31693 0.35839 0.32139 0.0
C1329 C 0.27437 0.31798 0.31875 0.0
C1330 C 0.43111 0.24006 0.32428 0.0
C1331 C 0.48968 0.23017 0.32716 0.0
N1332 N 0.48104 0.20766 0.33335 0.0
C1333 C 0.42276 0.21707 0.33072 0.0
C1334 C 0.46478 0.24687 0.3225 0.0
C1335 C 0.4484 0.20086 0.33522 0.0
C1336 C 0.31516 0.22193 0.32925 0.0
N1337 N 0.33267 0.25045 0.32757 0.0
C1338 C 0.32193 0.27113 0.34173 0.0
C1339 C 0.33614 0.27502 0.33357 0.0
C1340 C 0.30476 0.24135 0.34373 0.0
C1341 C 0.30086 0.21687 0.33732 0.0
H1342 H 0.3136 0.20241 0.32444 0.0
H1343 H 0.35113 0.29695 0.33215 0.0
C1344 C 0.4278 0.3376 0.30041 0.0
N1345 N 0.426 0.32381 0.30838 0.0
C1346 C 0.43911 0.37044 0.29936 0.0
C1347 C 0.44724 0.37409 0.31474 0.0
C1348 C 0.4361 0.34091 0.31549 0.0
C1349 C 0.44801 0.38958 0.30661 0.0
H1350 H 0.41925 0.32341 0.2949 0.0
H1351 H 0.43372 0.32944 0.32176 0.0
C1352 C 0.33222 0.19072 0.30559 0.0
N1353 N 0.29028 0.15013 0.29598 0.0
C1354 C 0.3456 0.16525 0.30044 0.0
C1355 C 0.29749 0.19541 0.30588 0.0
C1356 C 0.32398 0.14501 0.29563 0.0
C1357 C 0.27672 0.17468 0.30097 0.0
C1358 C 0.43711 0.23763 0.29611 0.0
C1359 C 0.43686 0.20824 0.29119 0.0
C1360 C 0.46727 0.25488 0.29734 0.0
C1361 C 0.46679 0.19665 0.28758 0.0
C1362 C 0.49667 0.24249 0.29362 0.0
N1363 N 0.49583 0.21388 0.28886 0.0
C1364 C 0.3058 0.26896 0.29072 0.0
C1365 C 0.3397 0.2247 0.28545 0.0
C1366 C 0.28672 0.26881 0.28318 0.0
N1367 N 0.33167 0.24705 0.29171 0.0
C1368 C 0.32122 0.22346 0.27786 0.0
C1369 C 0.29439 0.24578 0.27664 0.0
H1370 H 0.30019 0.28683 0.29574 0.0
H1371 H 0.36061 0.20791 0.28632 0.0
C1372 C 0.40746 0.15669 0.31594 0.0
N1373 N 0.42623 0.18042 0.31189 0.0
C1374 C 0.42097 0.12549 0.31792 0.0
C1375 C 0.4737 0.14353 0.31183 0.0
C1376 C 0.45909 0.1747 0.30999 0.0
C1377 C 0.45447 0.11845 0.31585 0.0
H1378 H 0.38181 0.16204 0.31769 0.0
H1379 H 0.47416 0.1943 0.30716 0.0
O1380 O 0.35262 0.28934 0.30877 0.0
O1381 O 0.40642 0.25533 0.31962 0.0
O1382 O 0.353 0.21122 0.31023 0.0
O1383 O 0.40795 0.24977 0.29956 0.0
H1384 H 0.36571 0.34794 0.31611 0.0
H1385 H 0.28863 0.27463 0.31135 0.0
H1386 H 0.32444 0.38196 0.32425 0.0
H1387 H 0.24865 0.30995 0.31956 0.0
H1388 H 0.51587 0.235 0.32582 0.0
H1389 H 0.39676 0.21151 0.33215 0.0
H1390 H 0.47158 0.26461 0.31753 0.0
H1391 H 0.44235 0.18278 0.34018 0.0
H1392 H 0.32581 0.29038 0.34655 0.0
H1393 H 0.28766 0.19365 0.33861 0.0
H1394 H 0.43997 0.38101 0.29295 0.0
H1395 H 0.4535 0.38791 0.32052 0.0
H1396 H 0.37242 0.16147 0.30004 0.0
H1397 H 0.28668 0.21494 0.30983 0.0
H1398 H 0.33401 0.12535 0.29158 0.0
H1399 H 0.24981 0.17814 0.30111 0.0
H1400 H 0.41397 0.19421 0.29026 0.0
H1401 H 0.4681 0.27752 0.30116 0.0
H1402 H 0.46697 0.17387 0.28379 0.0
H1403 H 0.52017 0.25559 0.29454 0.0
H1404 H 0.26623 0.28643 0.28248 0.0
H1405 H 0.32842 0.20576 0.2729 0.0
H1406 H 0.40512 0.1069 0.32097 0.0
H1407 H 0.49984 0.13929 0.31027 0.0
H1408 H 0.24727 0.26559 0.10497 0.0
H1409 H 0.29182 0.36071 0.1125 0.0
H1410 H 0.29937 0.33928 0.12723 0.0
H1411 H 0.20032 0.25397 0.12449 0.0
H1412 H 0.20599 0.2091 0.12461 0.0
H1413 H 0.20556 0.23138 0.11453 0.0
H1414 H 0.26376 0.20646 0.11072 0.0
H1415 H 0.26442 0.18418 0.1208 0.0
H1416 H 0.29832 0.21214 0.11806 0.0
H1417 H 0.30219 0.3075 0.14117 0.0
H1418 H 0.29724 0.2685 0.15349 0.0
H1419 H 0.24813 0.19563 0.13703 0.0
C1420 C 0.25833 0.28213 0.10971 0.0
C1421 C 0.26918 0.31481 0.10751 0.0
C1422 C 0.28395 0.33532 0.11394 0.0
C1423 C 0.28816 0.32347 0.12235 0.0
C1424 C 0.27721 0.29117 0.12428 0.0
C1425 C 0.26237 0.27088 0.11816 0.0
C1426 C 0.2519 0.2375 0.12195 0.0
C1427 C 0.21367 0.23272 0.12136 0.0
C1428 C 0.27074 0.20836 0.11763 0.0
C1429 C 0.26311 0.24224 0.13117 0.0
C1430 C 0.27792 0.27325 0.13237 0.0
C1431 C 0.29058 0.28318 0.14032 0.0
C1432 C 0.28782 0.26086 0.14726 0.0
C1433 C 0.27224 0.2292 0.14619 0.0
C1434 C 0.25984 0.21985 0.13803 0.0
H1435 H 0.77598 0.72266 0.39117 0.0
H1436 H 0.79915 0.82868 0.39334 0.0
H1437 H 0.77338 0.83876 0.3791 0.0
H1438 H 0.79407 0.71565 0.36868 0.0
H1439 H 0.76062 0.68638 0.36653 0.0
H1440 H 0.77982 0.6876 0.37701 0.0
H1441 H 0.72165 0.69736 0.38403 0.0
H1442 H 0.70224 0.69594 0.37358 0.0
H1443 H 0.69601 0.73187 0.38044 0.0
H1444 H 0.74491 0.83734 0.36478 0.0
H1445 H 0.71635 0.82435 0.35106 0.0
H1446 H 0.71332 0.71897 0.35799 0.0
C1447 C 0.77527 0.74801 0.38867 0.0
C1448 C 0.78937 0.77496 0.39332 0.0
C1449 C 0.78856 0.80774 0.38982 0.0
C1450 C 0.77394 0.81369 0.38177 0.0
C1451 C 0.76052 0.78653 0.3773 0.0
C1452 C 0.76112 0.75433 0.3806 0.0
C1453 C 0.74568 0.72947 0.37439 0.0
C1454 C 0.7716 0.70323 0.37148 0.0
C1455 C 0.71454 0.71268 0.37835 0.0
C1456 C 0.73622 0.75275 0.36709 0.0
C1457 C 0.74486 0.78558 0.36893 0.0
C1458 C 0.73808 0.81174 0.36325 0.0
C1459 C 0.72183 0.80416 0.35551 0.0
C1460 C 0.7128 0.7707 0.3535 0.0
C1461 C 0.72034 0.74469 0.35935 0.0
H1462 H 0.23295 0.19716 0.61164 0.0
H1463 H 0.26727 0.28047 0.59597 0.0
H1464 H 0.27193 0.3158 0.60899 0.0
H1465 H 0.18421 0.24642 0.62698 0.0
H1466 H 0.1961 0.2207 0.63602 0.0
H1467 H 0.19367 0.20261 0.62541 0.0
H1468 H 0.25515 0.18215 0.62677 0.0
H1469 H 0.25783 0.20029 0.63736 0.0
H1470 H 0.28776 0.21204 0.6292 0.0
H1471 H 0.27404 0.34144 0.62363 0.0
H1472 H 0.27412 0.35598 0.63902 0.0
H1473 H 0.24041 0.25522 0.64528 0.0
C1474 C 0.24089 0.22302 0.61095 0.0
C1475 C 0.2496 0.23624 0.60282 0.0
C1476 C 0.26061 0.26992 0.60216 0.0
C1477 C 0.26321 0.29016 0.6095 0.0
C1478 C 0.25483 0.27624 0.61744 0.0
C1479 C 0.2439 0.24347 0.61822 0.0
C1480 C 0.23783 0.23427 0.62754 0.0
C1481 C 0.20074 0.22549 0.62908 0.0
C1482 C 0.26103 0.20549 0.63038 0.0
C1483 C 0.24722 0.26696 0.63188 0.0
C1484 C 0.25677 0.29085 0.62593 0.0
C1485 C 0.26674 0.32292 0.62837 0.0
C1486 C 0.26699 0.33082 0.63714 0.0
C1487 C 0.25761 0.30665 0.64339 0.0
C1488 C 0.24749 0.27434 0.64068 0.0
H1489 H 0.79944 0.74433 0.8611 0.0
H1490 H 0.7139 0.76867 0.84498 0.0
H1491 H 0.67838 0.77381 0.85791 0.0
H1492 H 0.75353 0.69428 0.87665 0.0
H1493 H 0.77792 0.70897 0.88566 0.0
H1494 H 0.79656 0.70684 0.87512 0.0
H1495 H 0.81232 0.76982 0.87611 0.0
H1496 H 0.79361 0.77218 0.88663 0.0
H1497 H 0.78001 0.80034 0.87826 0.0
H1498 H 0.65244 0.77707 0.8725 0.0
H1499 H 0.63719 0.77723 0.88786 0.0
H1500 H 0.73949 0.75051 0.89457 0.0
C1501 C 0.77313 0.75029 0.86028 0.0
C1502 C 0.75944 0.75615 0.85202 0.0
C1503 C 0.72502 0.76448 0.85124 0.0
C1504 C 0.70462 0.76729 0.85854 0.0
C1505 C 0.71899 0.76162 0.86657 0.0
C1506 C 0.75239 0.75317 0.86749 0.0
C1507 C 0.76163 0.74872 0.87688 0.0
C1508 C 0.77308 0.71255 0.87868 0.0
C1509 C 0.78848 0.7743 0.87963 0.0
C1510 C 0.72817 0.75608 0.88109 0.0
C1511 C 0.70396 0.76348 0.87502 0.0
C1512 C 0.67117 0.77138 0.87732 0.0
C1513 C 0.66285 0.77166 0.88607 0.0
C1514 C 0.68722 0.76414 0.89242 0.0
C1515 C 0.72029 0.75617 0.88986 0.0
H1516 H 0.76096 0.80121 0.61087 0.0
H1517 H 0.69906 0.73267 0.59615 0.0
H1518 H 0.69288 0.69624 0.60896 0.0
H1519 H 0.80356 0.73927 0.624 0.0
H1520 H 0.80267 0.7648 0.63357 0.0
H1521 H 0.80373 0.78439 0.62313 0.0
H1522 H 0.74983 0.81773 0.62686 0.0
H1523 H 0.74859 0.79824 0.6373 0.0
H1524 H 0.71279 0.79539 0.63026 0.0
H1525 H 0.69414 0.6673 0.62323 0.0
H1526 H 0.69976 0.64886 0.63824 0.0
H1527 H 0.75687 0.73903 0.64406 0.0
C1528 C 0.74646 0.7783 0.61036 0.0
C1529 C 0.73072 0.76932 0.60257 0.0
C1530 C 0.71133 0.73967 0.6021 0.0
C1531 C 0.70777 0.7189 0.60932 0.0
C1532 C 0.72343 0.7285 0.61694 0.0
C1533 C 0.74216 0.75762 0.61754 0.0
C1534 C 0.75495 0.76298 0.62661 0.0
C1535 C 0.79351 0.76284 0.62684 0.0
C1536 C 0.74067 0.79551 0.63048 0.0
C1537 C 0.74058 0.73227 0.63101 0.0
C1538 C 0.72277 0.7126 0.62529 0.0
C1539 C 0.70769 0.68268 0.62779 0.0
C1540 C 0.71077 0.67261 0.63638 0.0
C1541 C 0.72837 0.69265 0.64244 0.0
C1542 C 0.74346 0.72289 0.63964 0.0
H1543 H 0.27087 0.23819 0.89418 0.0
H1544 H 0.31462 0.33797 0.89333 0.0
H1545 H 0.29224 0.34577 0.87867 0.0
H1546 H 0.28628 0.21622 0.87248 0.0
H1547 H 0.24715 0.19429 0.87099 0.0
H1548 H 0.26585 0.19661 0.88152 0.0
H1549 H 0.21132 0.22273 0.88765 0.0
H1550 H 0.19229 0.22011 0.87716 0.0
H1551 H 0.19412 0.25983 0.88269 0.0
H1552 H 0.26729 0.34186 0.86395 0.0
H1553 H 0.23827 0.32801 0.85041 0.0
H1554 H 0.2083 0.23188 0.86111 0.0
C1555 C 0.27526 0.26193 0.89099 0.0
C1556 C 0.29465 0.28743 0.8949 0.0
C1557 C 0.30027 0.31788 0.89041 0.0
C1558 C 0.28755 0.32261 0.8821 0.0
C1559 C 0.26907 0.29675 0.87839 0.0
C1560 C 0.26261 0.26715 0.88271 0.0
C1561 C 0.24211 0.24331 0.87723 0.0
C1562 C 0.26152 0.21068 0.87545 0.0
C1563 C 0.20793 0.23608 0.88143 0.0
C1564 C 0.23826 0.26407 0.86914 0.0
C1565 C 0.25409 0.29476 0.86994 0.0
C1566 C 0.25447 0.31807 0.86328 0.0
C1567 C 0.23778 0.31 0.85563 0.0
C1568 C 0.22073 0.27897 0.85471 0.0
C1569 C 0.2213 0.25567 0.86157 0.0
H1570 H 0.75893 0.73519 0.10375 0.0
H1571 H 0.70335 0.64415 0.10936 0.0
H1572 H 0.69644 0.66257 0.12444 0.0
H1573 H 0.80362 0.73932 0.12363 0.0
H1574 H 0.80154 0.7844 0.12439 0.0
H1575 H 0.80127 0.76444 0.114 0.0
H1576 H 0.74561 0.79466 0.11022 0.0
H1577 H 0.74576 0.81479 0.12059 0.0
H1578 H 0.70999 0.79033 0.11728 0.0
H1579 H 0.69751 0.69008 0.13904 0.0
H1580 H 0.70523 0.72526 0.15197 0.0
H1581 H 0.75872 0.79892 0.1366 0.0
C1582 C 0.74539 0.71909 0.10816 0.0
C1583 C 0.73166 0.68825 0.1054 0.0
C1584 C 0.71374 0.66806 0.11133 0.0
C1585 C 0.70984 0.67822 0.11991 0.0
C1586 C 0.72385 0.7087 0.12243 0.0
C1587 C 0.74111 0.72892 0.11672 0.0
C1588 C 0.75381 0.76046 0.12105 0.0
C1589 C 0.79235 0.76224 0.12075 0.0
C1590 C 0.73783 0.79191 0.11705 0.0
C1591 C 0.74129 0.75467 0.13011 0.0
C1592 C 0.72408 0.7247 0.13079 0.0
C1593 C 0.71071 0.71374 0.13858 0.0
C1594 C 0.71507 0.734 0.14588 0.0
C1595 C 0.73257 0.7649 0.14532 0.0
C1596 C 0.74564 0.77526 0.1373 0.0
H1597 H 0.21331 0.28064 0.38826 0.0
H1598 H 0.24486 0.1819 0.39689 0.0
H1599 H 0.27266 0.17237 0.38293 0.0
H1600 H 0.19649 0.25895 0.36656 0.0
H1601 H 0.21253 0.29758 0.36214 0.0
H1602 H 0.19537 0.29691 0.37286 0.0
H1603 H 0.25084 0.32141 0.37888 0.0
H1604 H 0.26813 0.32232 0.36817 0.0
H1605 H 0.2899 0.30036 0.37663 0.0
H1606 H 0.2955 0.17286 0.36794 0.0
H1607 H 0.3141 0.18429 0.35308 0.0
H1608 H 0.26944 0.28345 0.35438 0.0
C1609 C 0.2265 0.25721 0.38729 0.0
C1610 C 0.22679 0.23197 0.39368 0.0
C1611 C 0.24384 0.20141 0.39205 0.0
C1612 C 0.25988 0.19583 0.38416 0.0
C1613 C 0.25883 0.22113 0.37799 0.0
C1614 C 0.24282 0.2513 0.37948 0.0
C1615 C 0.24531 0.27431 0.37175 0.0
C1616 C 0.21035 0.2824 0.36811 0.0
C1617 C 0.26471 0.3065 0.37399 0.0
C1618 C 0.2651 0.25225 0.36566 0.0
C1619 C 0.27252 0.22164 0.36938 0.0
C1620 C 0.28994 0.19676 0.36497 0.0
C1621 C 0.30019 0.2034 0.35652 0.0
C1622 C 0.29308 0.23469 0.3526 0.0
C1623 C 0.2754 0.25942 0.35726 0.0
H1624 H 0.23383 0.16161 0.2334 0.0
H1625 H 0.2267 0.26153 0.22252 0.0
H1626 H 0.23517 0.28599 0.23699 0.0
H1627 H 0.19409 0.18098 0.25466 0.0
H1628 H 0.22271 0.15349 0.26022 0.0
H1629 H 0.21027 0.14421 0.24933 0.0
H1630 H 0.27279 0.14231 0.24477 0.0
H1631 H 0.28541 0.15183 0.25559 0.0
H1632 H 0.29923 0.17813 0.24685 0.0
H1633 H 0.25137 0.29919 0.25228 0.0
H1634 H 0.2757 0.3 0.26691 0.0
H1635 H 0.2721 0.19125 0.26765 0.0
C1636 C 0.23278 0.18863 0.23411 0.0
C1637 C 0.22918 0.20971 0.22688 0.0
C1638 C 0.22931 0.24497 0.228 0.0
C1639 C 0.23389 0.25905 0.23619 0.0
C1640 C 0.23821 0.23748 0.24317 0.0
C1641 C 0.23753 0.203 0.2422 0.0
C1642 C 0.24649 0.18527 0.25049 0.0
C1643 C 0.2166 0.16478 0.25388 0.0
C1644 C 0.27784 0.1631 0.24935 0.0
C1645 C 0.2536 0.21513 0.2562 0.0
C1646 C 0.24807 0.24506 0.25193 0.0
C1647 C 0.25519 0.27593 0.25573 0.0
C1648 C 0.26891 0.27616 0.26405 0.0
C1649 C 0.27571 0.24568 0.2684 0.0
C1650 C 0.26719 0.21493 0.26447 0.0
H1651 H 0.8095 0.79898 0.47977 0.0
H1652 H 0.78634 0.6926 0.4806 0.0
H1653 H 0.77054 0.69811 0.49594 0.0
H1654 H 0.84533 0.80508 0.50044 0.0
H1655 H 0.82815 0.846 0.50268 0.0
H1656 H 0.83655 0.83369 0.49175 0.0
H1657 H 0.77477 0.84608 0.48761 0.0
H1658 H 0.76622 0.85867 0.49852 0.0
H1659 H 0.74133 0.82626 0.49355 0.0
H1660 H 0.75859 0.71558 0.51136 0.0
H1661 H 0.7516 0.74334 0.52548 0.0
H1662 H 0.78106 0.83834 0.5141 0.0
C1663 C 0.80048 0.77689 0.4831 0.0
C1664 C 0.79889 0.74539 0.47896 0.0
C1665 C 0.7879 0.71696 0.48366 0.0
C1666 C 0.77874 0.71988 0.49235 0.0
C1667 C 0.78071 0.75139 0.49623 0.0
C1668 C 0.79123 0.77937 0.49173 0.0
C1669 C 0.79185 0.81027 0.49737 0.0
C1670 C 0.82759 0.82458 0.4981 0.0
C1671 C 0.76706 0.83688 0.49406 0.0
C1672 C 0.78027 0.79532 0.50579 0.0
C1673 C 0.77387 0.76136 0.50502 0.0
C1674 C 0.76333 0.7422 0.51202 0.0
C1675 C 0.75928 0.75822 0.52 0.0
C1676 C 0.76581 0.79302 0.5209 0.0
C1677 C 0.77629 0.81165 0.51366 0.0
H1678 H 0.19395 0.26663 0.72993 0.0
H1679 H 0.29889 0.2942 0.73205 0.0
H1680 H 0.29861 0.27717 0.74732 0.0
H1681 H 0.16888 0.2994 0.74913 0.0
H1682 H 0.13903 0.26707 0.75181 0.0
H1683 H 0.14895 0.27535 0.74074 0.0
H1684 H 0.16572 0.2131 0.73856 0.0
H1685 H 0.15561 0.20452 0.74965 0.0
H1686 H 0.19665 0.1944 0.74553 0.0
H1687 H 0.28428 0.26741 0.76276 0.0
H1688 H 0.25765 0.26194 0.77708 0.0
H1689 H 0.16262 0.23895 0.76493 0.0
C1690 C 0.21708 0.26826 0.73356 0.0
C1691 C 0.24648 0.28157 0.72981 0.0
C1692 C 0.27623 0.28354 0.73476 0.0
C1693 C 0.27628 0.27402 0.74344 0.0
C1694 C 0.24652 0.26212 0.74703 0.0
C1695 C 0.21758 0.25868 0.74221 0.0
C1696 C 0.1882 0.24809 0.74776 0.0
C1697 C 0.1596 0.27403 0.74733 0.0
C1698 C 0.17582 0.21293 0.74522 0.0
C1699 C 0.20472 0.24773 0.75652 0.0
C1700 C 0.23846 0.25556 0.75595 0.0
C1701 C 0.25815 0.26032 0.76327 0.0
C1702 C 0.24287 0.25732 0.77135 0.0
C1703 C 0.20838 0.24944 0.77203 0.0
C1704 C 0.18928 0.24399 0.76454 0.0
H1705 H 0.75463 0.67976 0.01337 0.0
H1706 H 0.7475 0.77818 0.02517 0.0
H1707 H 0.73537 0.80303 0.01091 0.0
H1708 H 0.79303 0.70744 0.99285 0.0
H1709 H 0.76947 0.67698 0.98677 0.0
H1710 H 0.78146 0.66802 0.99771 0.0
H1711 H 0.71921 0.65672 0.00158 0.0
H1712 H 0.707 0.6658 0.9907 0.0
H1713 H 0.68827 0.68867 -0.00053 0.0
H1714 H 0.71862 0.81587 0.9955 0.0
H1715 H 0.69736 0.81518 0.98054 0.0
H1716 H 0.71746 0.70837 0.97905 0.0
C1717 C 0.75164 0.70671 0.01295 0.0
C1718 C 0.75238 0.72707 0.02038 0.0
C1719 C 0.747 0.76208 0.01956 0.0
C1720 C 0.74034 0.77643 0.01148 0.0
C1721 C 0.73936 0.75545 0.0043 0.0
C1722 C 0.74504 0.72134 0.00498 0.0
C1723 C 0.73996 0.7037 0.99647 0.0
C1724 C 0.77295 0.68813 0.99326 0.0
C1725 C 0.71195 0.67718 0.9971 0.0
C1726 C 0.72952 0.73301 0.99093 0.0
C1727 C 0.72971 0.76277 0.9955 0.0
C1728 C 0.7189 0.7928 0.99182 0.0
C1729 C 0.70701 0.79221 0.98332 0.0
C1730 C 0.70576 0.76172 0.97864 0.0
C1731 C 0.71796 0.73203 0.98247 0.0
H1732 H 0.24759 0.32511 0.01468 0.0
H1733 H 0.26812 0.22884 0.0266 0.0
H1734 H 0.28077 0.20475 0.01232 0.0
H1735 H 0.20976 0.29147 0.99454 0.0
H1736 H 0.22862 0.32403 0.98811 0.0
H1737 H 0.21721 0.33236 -0.00088 0.0
H1738 H 0.27816 0.35133 0.00229 0.0
H1739 H 0.28984 0.34278 0.99134 0.0
H1740 H 0.31238 0.3231 3e-05 0.0
H1741 H 0.29722 0.19312 0.99705 0.0
H1742 H 0.31566 0.1944 0.98193 0.0
H1743 H 0.28206 0.29778 0.97986 0.0
C1744 C 0.25366 0.29868 0.01427 0.0
C1745 C 0.25665 0.27877 0.02175 0.0
C1746 C 0.26579 0.24456 0.02095 0.0
C1747 C 0.27282 0.23063 0.01287 0.0
C1748 C 0.27037 0.25119 0.00564 0.0
C1749 C 0.26074 0.28441 0.00626 0.0
C1750 C 0.26247 0.3018 0.99761 0.0
C1751 C 0.22743 0.31307 0.99467 0.0
C1752 C 0.28719 0.33149 0.99784 0.0
C1753 C 0.27558 0.27344 0.99208 0.0
C1754 C 0.27964 0.24438 0.99681 0.0
C1755 C 0.29349 0.21551 0.99323 0.0
C1756 C 0.30373 0.21647 0.9846 0.0
C1757 C 0.30012 0.24612 0.97964 0.0
C1758 C 0.28533 0.27474 0.98345 0.0
H1759 H 0.70656 0.80756 0.26863 0.0
H1760 H 0.71522 0.69905 0.26757 0.0
H1761 H 0.73453 0.70303 0.2525 0.0
H1762 H 0.67475 0.81919 0.24814 0.0
H1763 H 0.69737 0.85743 0.24596 0.0
H1764 H 0.68725 0.84624 0.25686 0.0
H1765 H 0.75008 0.84994 0.26106 0.0
H1766 H 0.76041 0.86146 0.25017 0.0
H1767 H 0.78059 0.8259 0.25512 0.0
H1768 H 0.74812 0.71887 0.23714 0.0
H1769 H 0.75543 0.74527 0.22288 0.0
H1770 H 0.74065 0.8434 0.23441 0.0
C1771 C 0.7134 0.78462 0.26534 0.0
C1772 C 0.70945 0.75298 0.26931 0.0
C1773 C 0.71775 0.72357 0.26465 0.0
C1774 C 0.72897 0.72558 0.2561 0.0
C1775 C 0.73204 0.7572 0.25235 0.0
C1776 C 0.72477 0.78619 0.25686 0.0
C1777 C 0.72841 0.81699 0.25125 0.0
C1778 C 0.69496 0.83606 0.25051 0.0
C1779 C 0.75655 0.83992 0.2546 0.0
C1780 C 0.73801 0.80076 0.24281 0.0
C1781 C 0.74024 0.76629 0.24357 0.0
C1782 C 0.74698 0.74589 0.2365 0.0
C1783 C 0.75125 0.76114 0.22843 0.0
C1784 C 0.74867 0.79644 0.22751 0.0
C1785 C 0.74249 0.81635 0.23486 0.0
H1786 H 0.16233 0.20347 0.48162 0.0
H1787 H 0.2381 0.27904 0.47644 0.0
H1788 H 0.25883 0.27358 0.49139 0.0
H1789 H 0.14462 0.22769 0.5034 0.0
H1790 H 0.1392 0.18512 0.50706 0.0
H1791 H 0.12994 0.19588 0.49607 0.0
H1792 H 0.17111 0.14995 0.49077 0.0
H1793 H 0.18044 0.13898 0.50175 0.0
H1794 H 0.21392 0.15032 0.49452 0.0
H1795 H 0.2721 0.25828 0.50686 0.0
H1796 H 0.27622 0.23515 0.5216 0.0
H1797 H 0.19248 0.16876 0.51622 0.0
C1798 C 0.18346 0.21873 0.48359 0.0
C1799 C 0.19874 0.24156 0.47786 0.0
C1800 C 0.22587 0.26157 0.48076 0.0
C1801 C 0.23789 0.25853 0.48921 0.0
C1802 C 0.22239 0.23548 0.49467 0.0
C1803 C 0.19572 0.216 0.49197 0.0
C1804 C 0.18362 0.19283 0.49901 0.0
C1805 C 0.14719 0.20088 0.50153 0.0
C1806 C 0.18752 0.15583 0.49635 0.0
C1807 C 0.20778 0.2021 0.5061 0.0
C1808 C 0.22995 0.22677 0.50351 0.0
C1809 C 0.25485 0.23899 0.50897 0.0
C1810 C 0.25711 0.22558 0.5173 0.0
C1811 C 0.23459 0.20025 0.52007 0.0
C1812 C 0.20969 0.1885 0.51436 0.0
H1813 H 0.81047 0.72413 0.72806 0.0
H1814 H 0.70263 0.70994 0.7296 0.0
H1815 H 0.70322 0.73093 0.74451 0.0
H1816 H 0.82774 0.69235 0.74827 0.0
H1817 H 0.86166 0.72083 0.75062 0.0
H1818 H 0.85203 0.71041 0.73965 0.0
H1819 H 0.84503 0.77356 0.73605 0.0
H1820 H 0.8547 0.7842 0.74705 0.0
H1821 H 0.81619 0.79869 0.74224 0.0
H1822 H 0.71639 0.74693 0.75977 0.0
H1823 H 0.74121 0.75627 0.77413 0.0
H1824 H 0.84062 0.75684 0.76274 0.0
C1825 C 0.78687 0.72583 0.73148 0.0
C1826 C 0.75649 0.71554 0.72761 0.0
C1827 C 0.72617 0.71832 0.73233 0.0
C1828 C 0.72625 0.73008 0.74083 0.0
C1829 C 0.75681 0.73907 0.74452 0.0
C1830 C 0.78655 0.73721 0.73998 0.0
C1831 C 0.81636 0.74526 0.74563 0.0
C1832 C 0.84087 0.71543 0.74607 0.0
C1833 C 0.83411 0.77734 0.74256 0.0
C1834 C 0.79887 0.75082 0.75415 0.0
C1835 C 0.76448 0.74768 0.75335 0.0
C1836 C 0.74325 0.74982 0.76045 0.0
C1837 C 0.75759 0.75486 0.76859 0.0
C1838 C 0.79286 0.75737 0.76956 0.0
C1839 C 0.81356 0.75582 0.7622 0.0
H1840 H 0.06802 0.02336 0.18938 0.0
H1841 H 0.08035 0.04026 0.16197 0.0
H1842 H 0.02157 0.02309 0.15956 0.0
H1843 H 0.01571 0.94957 0.18752 0.0
H1844 H 0.9901 0.96043 0.19666 0.0
H1845 H 0.03315 0.97402 0.19619 0.0
H1846 H 0.01402 0.03565 0.19825 0.0
H1847 H 0.97088 0.02228 0.19866 0.0
H1848 H 0.98378 0.05344 0.19094 0.0
H1849 H 0.96147 0.00427 0.16014 0.0
H1850 H 0.90492 0.98304 0.16358 0.0
H1851 H 0.93168 0.97883 0.19064 0.0
C1852 C 0.05852 0.02303 0.18285 0.0
C1853 C 0.0788 0.03319 0.17586 0.0
C1854 C 0.06518 0.03294 0.16744 0.0
C1855 C 0.03186 0.02313 0.166 0.0
C1856 C 0.01248 0.01364 0.17305 0.0
C1857 C 0.02533 0.01335 0.1813 0.0
C1858 C 0.99919 0.00207 0.18776 0.0
C1859 C 0.0102 0.96959 0.19229 0.0
C1860 C 0.99152 0.03004 0.19429 0.0
C1861 C 0.96967 0.99594 0.18183 0.0
C1862 C 0.97783 0.00287 0.17338 0.0
C1863 C 0.95474 0.99888 0.16674 0.0
C1864 C 0.92256 0.98708 0.16877 0.0
C1865 C 0.91372 0.97939 0.17739 0.0
C1866 C 0.93767 0.98421 0.18398 0.0
H1867 H 0.02271 0.43585 0.44155 0.0
H1868 H 0.05711 0.42508 0.41522 0.0
H1869 H 0.04279 0.48436 0.41239 0.0
H1870 H 0.95238 0.48911 0.43673 0.0
H1871 H 0.9569 0.51411 0.44632 0.0
H1872 H 0.97051 0.47103 0.44629 0.0
H1873 H 0.02981 0.48981 0.45115 0.0
H1874 H 0.01645 0.533 0.45113 0.0
H1875 H 0.05236 0.52041 0.44486 0.0
H1876 H 0.02556 0.54476 0.41247 0.0
H1877 H 0.00271 0.60132 0.41513 0.0
H1878 H 0.97772 0.57236 0.44129 0.0
C1879 C 0.0273 0.44606 0.4352 0.0
C1880 C 0.04094 0.42593 0.42859 0.0
C1881 C 0.04629 0.44 0.42034 0.0
C1882 C 0.0385 0.47368 0.41869 0.0
C1883 C 0.02525 0.49289 0.42536 0.0
C1884 C 0.01939 0.47957 0.43343 0.0
C1885 C 0.00394 0.5054 0.43938 0.0
C1886 C 0.96885 0.49424 0.44235 0.0
C1887 C 0.02703 0.51257 0.44708 0.0
C1888 C 0.00201 0.5353 0.43339 0.0
C1889 C 0.01469 0.52761 0.42536 0.0
C1890 C 0.0154 0.55105 0.41872 0.0
C1891 C 0.00222 0.58307 0.42028 0.0
C1892 C 0.98823 0.59131 0.4284 0.0
C1893 C 0.9886 0.56709 0.43505 0.0
H1894 H 0.42902 0.48735 0.69763 0.0
H1895 H 0.42233 0.43508 0.6732 0.0
H1896 H 0.48249 0.44538 0.67064 0.0
H1897 H 0.48543 0.5514 0.69051 0.0
H1898 H 0.50868 0.55307 0.70044 0.0
H1899 H 0.46529 0.54054 0.70051 0.0
H1900 H 0.48147 0.48513 0.70818 0.0
H1901 H 0.52498 0.49742 0.70808 0.0
H1902 H 0.51246 0.45799 0.7034 0.0
H1903 H 0.54274 0.46184 0.67057 0.0
H1904 H 0.59913 0.48603 0.67266 0.0
H1905 H 0.56714 0.52836 0.69705 0.0
C1906 C 0.44033 0.47793 0.69178 0.0
C1907 C 0.42097 0.46062 0.68559 0.0
C1908 C 0.43656 0.44889 0.67796 0.0
C1909 C 0.47077 0.45434 0.67649 0.0
C1910 C 0.48911 0.47154 0.6827 0.0
C1911 C 0.4745 0.48333 0.69017 0.0
C1912 C 0.49977 0.50216 0.69563 0.0
C1913 C 0.48915 0.53897 0.69684 0.0
C1914 C 0.50497 0.48461 0.70434 0.0
C1915 C 0.53073 0.49931 0.69002 0.0
C1916 C 0.52403 0.48131 0.68262 0.0
C1917 C 0.54833 0.47597 0.67634 0.0
C1918 C 0.58022 0.48992 0.67757 0.0
C1919 C 0.58751 0.50912 0.68501 0.0
C1920 C 0.56248 0.51339 0.69136 0.0
H1921 H 0.47816 0.06097 0.94214 0.0
H1922 H 0.40115 0.05605 0.92245 0.0
H1923 H 0.40885 0.9947 0.92147 0.0
H1924 H 0.5323 8e-05 0.93289 0.0
H1925 H 0.54511 0.98236 0.94304 0.0
H1926 H 0.53239 0.02563 0.94246 0.0
H1927 H 0.48776 0.01492 0.95427 0.0
H1928 H 0.50025 0.97152 0.95485 0.0
H1929 H 0.45708 0.9822 0.95276 0.0
H1930 H 0.426 0.93431 0.9223 0.0
H1931 H 0.45297 0.87919 0.92455 0.0
H1932 H 0.51894 0.92352 0.94363 0.0
C1933 C 0.46267 0.04691 0.93769 0.0
C1934 C 0.43912 0.06325 0.93235 0.0
C1935 C 0.41965 0.04407 0.92652 0.0
C1936 C 0.42363 0.0092 0.92597 0.0
C1937 C 0.44714 0.99388 0.9313 0.0
C1938 C 0.4664 0.01208 0.93704 0.0
C1939 C 0.49084 0.98966 0.94178 0.0
C1940 C 0.52731 5e-05 0.93993 0.0
C1941 C 0.48353 0.98958 0.95149 0.0
C1942 C 0.48255 0.95608 0.93775 0.0
C1943 C 0.4571 0.95903 0.93177 0.0
C1944 C 0.44585 0.93164 0.927 0.0
C1945 C 0.46139 0.9005 0.92829 0.0
C1946 C 0.48796 0.89703 0.93428 0.0
C1947 C 0.49827 0.92519 0.93913 0.0
H1948 H 0.0681 0.46076 0.06682 0.0
H1949 H 0.11072 0.51477 0.0452 0.0
H1950 H 0.05628 0.54291 0.04277 0.0
H1951 H 0.9875 0.44655 0.05729 0.0
H1952 H 0.96461 0.45181 0.06719 0.0
H1953 H 0.00719 0.43674 0.06742 0.0
H1954 H 0.02363 0.48502 0.07776 0.0
H1955 H 0.98108 0.50022 0.07758 0.0
H1956 H 0.01512 0.52782 0.07471 0.0
H1957 H 0.99783 0.56543 0.04278 0.0
H1958 H 0.93845 0.57995 0.0449 0.0
H1959 H 0.93268 0.50917 0.06612 0.0
C1960 C 0.06599 0.47879 0.06164 0.0
C1961 C 0.09355 0.48579 0.05621 0.0
C1962 C 0.0898 0.50902 0.04939 0.0
C1963 C 0.05907 0.52518 0.04799 0.0
C1964 C 0.03233 0.51761 0.05343 0.0
C1965 C 0.03539 0.49489 0.06009 0.0
C1966 C 0.00245 0.4906 0.06483 0.0
C1967 C 0.98969 0.45427 0.06414 0.0
C1968 C 0.00578 0.50158 0.07428 0.0
C1969 C 0.98042 0.51454 0.0598 0.0
C1970 C 0.99824 0.52993 0.05328 0.0
C1971 C 0.98351 0.55332 0.04782 0.0
C1972 C 0.9496 0.56116 0.04903 0.0
C1973 C 0.93056 0.54542 0.05561 0.0
C1974 C 0.94642 0.52183 0.06106 0.0
H1975 H 0.54041 0.56341 0.31701 0.0
H1976 H 0.47823 0.60906 0.29732 0.0
H1977 H 0.45072 0.55439 0.29473 0.0
H1978 H 0.55326 0.4855 0.30612 0.0
H1979 H 0.55179 0.4604 0.31576 0.0
H1980 H 0.56583 0.50331 0.31629 0.0
H1981 H 0.52069 0.51618 0.32782 0.0
H1982 H 0.50657 0.47327 0.32735 0.0
H1983 H 0.47728 0.50701 0.32556 0.0
H1984 H 0.4301 0.49513 0.29428 0.0
H1985 H 0.41795 0.43489 0.29583 0.0
H1986 H 0.49504 0.42703 0.31548 0.0
C1987 C 0.5207 0.56196 0.31223 0.0
C1988 C 0.51131 0.59046 0.30738 0.0
C1989 C 0.48589 0.58746 0.30107 0.0
C1990 C 0.47007 0.55659 0.29958 0.0
C1991 C 0.48009 0.52894 0.30442 0.0
C1992 C 0.50483 0.53128 0.31062 0.0
C1993 C 0.51147 0.49753 0.31477 0.0
C1994 C 0.54774 0.48601 0.31313 0.0
C1995 C 0.50352 0.49857 0.32445 0.0
C1996 C 0.48655 0.47585 0.30995 0.0
C1997 C 0.46866 0.49452 0.30404 0.0
C1998 C 0.4441 0.48018 0.29885 0.0
C1999 C 0.43762 0.44581 0.29973 0.0
C2000 C 0.45579 0.42595 0.30571 0.0
C2001 C 0.48055 0.4414 0.31088 0.0
H2002 H 0.57095 0.9884 0.55393 0.0
H2003 H 0.59773 0.98897 0.58101 0.0
H2004 H 0.541 0.00879 0.58467 0.0
H2005 H 0.51797 0.06227 0.55442 0.0
H2006 H 0.4879 0.04531 0.54693 0.0
H2007 H 0.53115 0.0324 0.54639 0.0
H2008 H 0.51277 0.97025 0.54777 0.0
H2009 H 0.46948 0.98299 0.54839 0.0
H2010 H 0.48738 0.95755 0.5568 0.0
H2011 H 0.4811 0.02662 0.5855 0.0
H2012 H 0.42226 0.04388 0.58338 0.0
H2013 H 0.43371 0.03136 0.5558 0.0
C2014 C 0.56492 0.99275 0.56063 0.0
C2015 C 0.589 0.98737 0.56717 0.0
C2016 C 0.58006 0.99357 0.57586 0.0
C2017 C 0.54775 0.00453 0.57802 0.0
C2018 C 0.52458 0.00916 0.57143 0.0
C2019 C 0.53273 0.00367 0.56291 0.0
C2020 C 0.50294 0.01034 0.55709 0.0
C2021 C 0.51044 0.03931 0.55084 0.0
C2022 C 0.49254 0.97838 0.55223 0.0
C2023 C 0.47678 0.02029 0.56368 0.0
C2024 C 0.48984 0.0194 0.57191 0.0
C2025 C 0.47062 0.0276 0.57909 0.0
C2026 C 0.43727 0.03747 0.57782 0.0
C2027 C 0.42343 0.03911 0.56943 0.0
C2028 C 0.44346 0.03003 0.56229 0.0
H2029 H 0.01933 0.07214 0.80653 0.0
H2030 H 0.0267 0.09314 0.83388 0.0
H2031 H 0.00708 0.03586 0.8371 0.0
H2032 H 0.94518 0.02121 0.80755 0.0
H2033 H 0.95908 0.99225 0.79939 0.0
H2034 H 0.97342 0.0351 0.79922 0.0
H2035 H 0.03508 0.01449 0.79931 0.0
H2036 H 0.02092 0.97156 0.79952 0.0
H2037 H 0.04905 0.98671 0.80773 0.0
H2038 H 0.98671 0.9765 0.83741 0.0
H2039 H 0.96578 0.91909 0.83474 0.0
H2040 H 0.97273 0.93603 0.80723 0.0
C2041 C 0.01699 0.06467 0.8132 0.0
C2042 C 0.02435 0.08733 0.81995 0.0
C2043 C 0.0206 0.07656 0.82859 0.0
C2044 C 0.00976 0.04394 0.83049 0.0
C2045 C 0.00288 0.02227 0.82369 0.0
C2046 C 0.00629 0.03214 0.81522 0.0
C2047 C 0.99707 0.00392 0.80912 0.0
C2048 C 0.96689 0.01371 0.80349 0.0
C2049 C 0.02734 0.99356 0.8036 0.0
C2050 C 0.98786 0.9767 0.8155 0.0
C2051 C 0.99143 0.98782 0.82387 0.0
C2052 C 0.98383 0.96747 0.83089 0.0
C2053 C 0.97187 0.93498 0.82931 0.0
C2054 C 0.96766 0.92313 0.82079 0.0
C2055 C 0.97613 0.94424 0.81381 0.0
H2056 H 0.57202 0.99707 0.17925 0.0
H2057 H 0.57151 0.92516 0.20023 0.0
H2058 H 0.51162 0.93681 0.20277 0.0
H2059 H 0.51589 0.05689 0.18907 0.0
H2060 H 0.49511 0.06732 0.17912 0.0
H2061 H 0.53817 0.05365 0.17901 0.0
H2062 H 0.52268 0.0062 0.16832 0.0
H2063 H 0.47953 0.01962 0.16844 0.0
H2064 H 0.48999 0.97687 0.1711 0.0
H2065 H 0.45167 0.95522 0.2029 0.0
H2066 H 0.39583 0.98072 0.20089 0.0
H2067 H 0.43508 0.04111 0.17992 0.0
C2068 C 0.55929 0.98374 0.18436 0.0
C2069 C 0.57659 0.96038 0.18958 0.0
C2070 C 0.55902 0.94363 0.19625 0.0
C2071 C 0.5249 0.94986 0.1977 0.0
C2072 C 0.50862 0.97291 0.19244 0.0
C2073 C 0.52519 0.98971 0.18592 0.0
C2074 C 0.50173 0.01338 0.18122 0.0
C2075 C 0.51343 0.04998 0.18217 0.0
C2076 C 0.49828 0.00341 0.17171 0.0
C2077 C 0.46942 0.00715 0.18611 0.0
C2078 C 0.47395 0.98366 0.19253 0.0
C2079 C 0.44782 0.97377 0.19791 0.0
C2080 C 0.41623 0.98852 0.19675 0.0
C2081 C 0.41101 0.013 0.19027 0.0
C2082 C 0.43806 0.02218 0.18486 0.0
H2083 H 0.9938 0.92753 0.42896 0.0
H2084 H 0.91458 0.94005 0.4479 0.0
H2085 H 0.92698 0.00048 0.44865 0.0
H2086 H 0.05116 0.98677 0.43776 0.0
H2087 H 0.06499 0.00233 0.42746 0.0
H2088 H 0.0501 0.95984 0.42844 0.0
H2089 H 0.00616 0.97086 0.41648 0.0
H2090 H 0.02094 0.01341 0.41547 0.0
H2091 H 0.97724 0.00535 0.41762 0.0
H2092 H 0.94895 0.05934 0.44767 0.0
H2093 H 0.97873 0.11244 0.44495 0.0
H2094 H 0.04037 0.0625 0.42577 0.0
C2095 C 0.9788 0.94294 0.43321 0.0
C2096 C 0.95342 0.92874 0.43844 0.0
C2097 C 0.93471 0.94998 0.44398 0.0
C2098 C 0.94132 0.98448 0.44439 0.0
C2099 C 0.96647 0.99755 0.43917 0.0
C2100 C 0.9848 0.9775 0.43365 0.0
C2101 C 0.01042 0.9979 0.42871 0.0
C2102 C 0.04629 0.986 0.43072 0.0
C2103 C 0.00325 0.99682 0.41899 0.0
C2104 C 0.00385 0.03247 0.43238 0.0
C2105 C 0.97841 0.03172 0.43841 0.0
C2106 C 0.96865 0.06035 0.44289 0.0
C2107 C 0.98557 0.09052 0.44123 0.0
C2108 C 0.01188 0.09196 0.4351 0.0
C2109 C 0.02068 0.06243 0.43056 0.0
H2110 H 0.07023 0.48321 0.6935 0.0
H2111 H 0.08211 0.45317 0.66685 0.0
H2112 H 0.02454 0.47259 0.66372 0.0
H2113 H 0.98539 0.45723 0.69564 0.0
H2114 H 0.97302 0.49182 0.7024 0.0
H2115 H 0.01581 0.47735 0.7025 0.0
H2116 H 0.03663 0.53719 0.69874 0.0
H2117 H 0.99391 0.55194 0.69872 0.0
H2118 H 0.02005 0.55819 0.68939 0.0
H2119 H 0.96544 0.49362 0.66356 0.0
H2120 H 0.90861 0.51576 0.66633 0.0
H2121 H 0.93482 0.53189 0.69311 0.0
C2122 C 0.06084 0.48126 0.68698 0.0
C2123 C 0.08053 0.46675 0.68041 0.0
C2124 C 0.06727 0.46403 0.67199 0.0
C2125 C 0.03469 0.47505 0.67014 0.0
C2126 C 0.01569 0.48867 0.6768 0.0
C2127 C 0.02825 0.49193 0.68504 0.0
C2128 C 0.00219 0.50653 0.69107 0.0
C2129 C 0.9936 0.48174 0.69833 0.0
C2130 C 0.0139 0.54048 0.69469 0.0
C2131 C 0.973 0.51081 0.68493 0.0
C2132 C 0.98138 0.50047 0.67672 0.0
C2133 C 0.9586 0.50195 0.66995 0.0
C2134 C 0.92644 0.51463 0.67158 0.0
C2135 C 0.91731 0.52556 0.67993 0.0
C2136 C 0.94094 0.52338 0.68668 0.0
H2137 H 0.46589 0.42742 0.94292 0.0
H2138 H 0.55333 0.37586 0.93279 0.0
H2139 H 0.58269 0.43017 0.9314 0.0
H2140 H 0.47039 0.49872 0.92957 0.0
H2141 H 0.45754 0.52804 0.93776 0.0
H2142 H 0.44382 0.48505 0.93828 0.0
H2143 H 0.46873 0.47954 0.95361 0.0
H2144 H 0.48235 0.52262 0.95317 0.0
H2145 H 0.51222 0.48982 0.9554 0.0
H2146 H 0.60152 0.49028 0.93051 0.0
H2147 H 0.60937 0.55176 0.93074 0.0
H2148 H 0.51009 0.5638 0.94177 0.0
C2149 C 0.49146 0.42736 0.94058 0.0
C2150 C 0.50729 0.39726 0.93797 0.0
C2151 C 0.54052 0.39857 0.93474 0.0
C2152 C 0.55747 0.42928 0.93397 0.0
C2153 C 0.54094 0.45845 0.9365 0.0
C2154 C 0.50879 0.45773 0.93981 0.0
C2155 C 0.49641 0.49272 0.94191 0.0
C2156 C 0.4652 0.50165 0.93656 0.0
C2157 C 0.48953 0.49638 0.9516 0.0
C2158 C 0.52651 0.51329 0.93919 0.0
C2159 C 0.55192 0.49305 0.93608 0.0
C2160 C 0.58186 0.50637 0.93297 0.0
C2161 C 0.58599 0.54131 0.93307 0.0
C2162 C 0.56033 0.56254 0.93626 0.0
C2163 C 0.53028 0.54819 0.93938 0.0
H2164 H 0.57708 0.5135 0.06695 0.0
H2165 H 0.58348 0.54919 0.04059 0.0
H2166 H 0.5248 0.53243 0.03818 0.0
H2167 H 0.52408 0.44258 0.06297 0.0
H2168 H 0.49993 0.44782 0.07268 0.0
H2169 H 0.54288 0.46178 0.0723 0.0
H2170 H 0.52428 0.5215 0.07687 0.0
H2171 H 0.48127 0.50772 0.07727 0.0
H2172 H 0.49275 0.54309 0.07067 0.0
H2173 H 0.46557 0.51146 0.03856 0.0
H2174 H 0.40972 0.48812 0.04174 0.0
H2175 H 0.44047 0.46994 0.06815 0.0
C2176 C 0.56616 0.518 0.06068 0.0
C2177 C 0.58522 0.53236 0.05394 0.0
C2178 C 0.56985 0.53749 0.04581 0.0
C2179 C 0.53636 0.52834 0.04439 0.0
C2180 C 0.51838 0.51436 0.05118 0.0
C2181 C 0.53265 0.50932 0.05917 0.0
C2182 C 0.50761 0.49424 0.0654 0.0
C2183 C 0.51933 0.45955 0.06852 0.0
C2184 C 0.5011 0.51807 0.073 0.0
C2185 C 0.47711 0.49144 0.05964 0.0
C2186 C 0.48388 0.50313 0.05146 0.0
C2187 C 0.45985 0.50251 0.04496 0.0
C2188 C 0.42805 0.48944 0.04687 0.0
C2189 C 0.42041 0.47734 0.05522 0.0
C2190 C 0.44542 0.47863 0.06168 0.0
H2191 H 0.49436 0.07849 0.30563 0.0
H2192 H 0.4461 0.0825 0.33065 0.0
H2193 H 0.46367 0.02426 0.3335 0.0
H2194 H 0.47243 0.99527 0.3006 0.0
H2195 H 0.51162 0.98465 0.2955 0.0
H2196 H 0.49731 0.0275 0.29554 0.0
H2197 H 0.55285 0.04653 0.30269 0.0
H2198 H 0.56755 0.00377 0.30257 0.0
H2199 H 0.56634 0.0268 0.31254 0.0
H2200 H 0.48226 0.96467 0.33322 0.0
H2201 H 0.5047 0.90827 0.33032 0.0
H2202 H 0.54367 0.94317 0.30579 0.0
C2203 C 0.48813 0.06734 0.31178 0.0
C2204 C 0.46864 0.08495 0.31789 0.0
C2205 C 0.46058 0.06931 0.32582 0.0
C2206 C 0.47055 0.03629 0.32752 0.0
C2207 C 0.48885 0.0193 0.32126 0.0
C2208 C 0.498 0.03434 0.3136 0.0
C2209 C 0.51712 0.01006 0.30791 0.0
C2210 C 0.4985 0.00402 0.29939 0.0
C2211 C 0.55311 0.02254 0.30634 0.0
C2212 C 0.51677 0.97895 0.31353 0.0
C2213 C 0.50031 0.9849 0.32119 0.0
C2214 C 0.49571 0.95982 0.32731 0.0
C2215 C 0.50871 0.92786 0.3256 0.0
C2216 C 0.52636 0.9212 0.31787 0.0
C2217 C 0.53018 0.94722 0.31174 0.0
H2218 H 0.92661 0.9976 0.56311 0.0
H2219 H 0.93863 0.9046 0.57733 0.0
H2220 H 0.99917 0.91595 0.57882 0.0
H2221 H 0.00342 0.99173 0.55125 0.0
H2222 H 0.01196 0.03612 0.55165 0.0
H2223 H 0.9693 0.02129 0.55194 0.0
H2224 H 0.95935 0.05358 0.56619 0.0
H2225 H 0.00196 0.06859 0.56592 0.0
H2226 H 0.98677 0.04621 0.57522 0.0
H2227 H 0.05882 0.93671 0.57846 0.0
H2228 H 0.11298 0.96578 0.57638 0.0
H2229 H 0.06192 0.04515 0.56243 0.0
C2230 C 0.94196 0.97957 0.56652 0.0
C2231 C 0.92774 0.9503 0.57015 0.0
C2232 C 0.94875 0.92751 0.57462 0.0
C2233 C 0.98325 0.9336 0.57546 0.0
C2234 C 0.99643 0.96261 0.57178 0.0
C2235 C 0.97645 0.98526 0.56742 0.0
C2236 C 0.99693 0.01437 0.564 0.0
C2237 C 0.9953 0.01595 0.55412 0.0
C2238 C 0.98557 0.04765 0.56808 0.0
C2239 C 0.03157 0.00442 0.56708 0.0
C2240 C 0.03077 0.97451 0.57156 0.0
C2241 C 0.05975 0.96023 0.57499 0.0
C2242 C 0.09037 0.97701 0.57381 0.0
C2243 C 0.0918 0.00774 0.56923 0.0
C2244 C 0.06185 0.02148 0.56585 0.0
H2245 H 0.95306 0.56665 0.80807 0.0
H2246 H 0.99222 0.60371 0.83239 0.0
H2247 H 0.01451 0.54757 0.8356 0.0
H2248 H 0.93111 0.48333 0.81509 0.0
H2249 H 0.9449 0.46337 0.8053 0.0
H2250 H 0.92988 0.50601 0.80506 0.0
H2251 H 0.9855 0.52541 0.79801 0.0
H2252 H 0.00055 0.48281 0.79815 0.0
H2253 H 0.0248 0.51561 0.80316 0.0
H2254 H 0.03281 0.48791 0.83623 0.0
H2255 H 0.05055 0.42961 0.8337 0.0
H2256 H 0.00385 0.43198 0.80846 0.0
C2257 C 0.96656 0.56319 0.81405 0.0
C2258 C 0.97043 0.58981 0.82001 0.0
C2259 C 0.98804 0.58375 0.82779 0.0
C2260 C 0.001 0.55191 0.82966 0.0
C2261 C 0.99652 0.52635 0.82367 0.0
C2262 C 0.98011 0.53166 0.81598 0.0
C2263 C 0.98029 0.50023 0.81047 0.0
C2264 C 0.94441 0.48749 0.80889 0.0
C2265 C 0.9989 0.50639 0.80194 0.0
C2266 C 0.99963 0.47653 0.81626 0.0
C2267 C 0.00834 0.49207 0.82389 0.0
C2268 C 0.02638 0.47554 0.83026 0.0
C2269 C 0.03652 0.44246 0.82873 0.0
C2270 C 0.02904 0.42627 0.82083 0.0
C2271 C 0.00979 0.44348 0.81459 0.0
loop_
_geom_bond_atom_site_label_1
_geom_bond_atom_site_label_2
_geom_bond_distance
_geom_bond_site_symmetry_2
_ccdc_geom_bond_type
Li0 N17 1.990 . S
Li0 O60 1.956 . S
Li0 O61 1.970 . S
Li0 O62 1.961 . S
Li1 N25 1.990 . S
Li1 O60 1.970 . S
Li1 O61 1.956 . S
Li1 O63 1.961 . S
Li2 N47 1.990 . S
Li2 O60 1.961 . S
Li2 O62 1.956 . S
Li2 O63 1.970 . S
Li3 N53 1.990 . S
Li3 O61 1.961 . S
Li3 O62 1.970 . S
Li3 O63 1.956 . S
C4 C6 1.348 . S
C4 C7 1.356 . S
C4 O60 1.325 . S
N5 C8 1.314 . S
N5 C9 1.279 . S
C6 C4 1.348 . S
C6 C8 1.353 . S
C6 H64 0.929 . S
C7 C4 1.356 . S
C7 C9 1.358 . S
C7 H65 0.930 . S
C8 N5 1.314 . S
C8 C6 1.353 . S
C8 H66 0.930 . S
C9 N5 1.279 . S
C9 C7 1.358 . S
C9 H67 0.930 . S
C10 C13 1.348 . S
C10 C14 1.356 . S
C10 O61 1.325 . S
C11 N12 1.279 . S
C11 C14 1.358 . S
C11 H68 0.930 . S
N12 C11 1.279 . S
N12 C15 1.314 . S
C13 C10 1.348 . S
C13 C15 1.353 . S
C13 H69 0.929 . S
C14 C10 1.356 . S
C14 C11 1.358 . S
C14 H70 0.930 . S
C15 N12 1.314 . S
C15 C13 1.353 . S
C15 H71 0.930 . S
C16 N17 1.314 . S
C16 C21 1.353 . S
C16 H22 0.930 . S
N17 Li0 1.990 . S
N17 C16 1.314 . S
N17 C19 1.279 . S
C18 C19 1.358 . S
C18 C20 1.356 . S
C18 H72 0.930 . S
C19 N17 1.279 . S
C19 C18 1.358 . S
C19 H23 0.930 . S
C20 C18 1.356 . S
C20 C21 1.348 . S
C21 C16 1.353 . S
C21 C20 1.348 . S
C21 H73 0.929 . S
H22 C16 0.930 . S
H23 C19 0.930 . S
C24 N25 1.314 . S
C24 C26 1.353 . S
C24 H30 0.930 . S
N25 Li1 1.990 . S
N25 C24 1.314 . S
N25 C28 1.279 . S
C26 C24 1.353 . S
C26 C29 1.348 . S
C26 H74 0.929 . S
C27 C28 1.358 . S
C27 C29 1.356 . S
C27 H75 0.930 . S
C28 N25 1.279 . S
C28 C27 1.358 . S
C28 H31 0.930 . S
C29 C26 1.348 . S
C29 C27 1.356 . S
H30 C24 0.930 . S
H31 C28 0.930 . S
C32 C34 1.348 . S
C32 C35 1.356 . S
C32 O62 1.325 . S
N33 C36 1.314 . S
N33 C37 1.279 . S
C34 C32 1.348 . S
C34 C36 1.353 . S
C34 H76 0.929 . S
C35 C32 1.356 . S
C35 C37 1.358 . S
C35 H77 0.930 . S
C36 N33 1.314 . S
C36 C34 1.353 . S
C36 H78 0.930 . S
C37 N33 1.279 . S
C37 C35 1.358 . S
C37 H79 0.930 . S
C38 C39 1.348 . S
C38 C40 1.356 . S
C38 O63 1.325 . S
C39 C38 1.348 . S
C39 C41 1.353 . S
C39 H80 0.929 . S
C40 C38 1.356 . S
C40 C42 1.358 . S
C40 H81 0.930 . S
C41 C39 1.353 . S
C41 N43 1.314 . S
C41 H82 0.930 . S
C42 C40 1.358 . S
C42 N43 1.279 . S
C42 H83 0.930 . S
N43 C41 1.314 . S
N43 C42 1.279 . S
C44 C46 1.353 . S
C44 N47 1.314 . S
C44 H50 0.930 . S
C45 N47 1.279 . S
C45 C48 1.358 . S
C45 H51 0.930 . S
C46 C44 1.353 . S
C46 C49 1.348 . S
C46 H84 0.929 . S
N47 Li2 1.990 . S
N47 C44 1.314 . S
N47 C45 1.279 . S
C48 C45 1.358 . S
C48 C49 1.356 . S
C48 H85 0.930 . S
C49 C46 1.348 . S
C49 C48 1.356 . S
H50 C44 0.930 . S
H51 C45 0.930 . S
C52 N53 1.314 . S
C52 C54 1.353 . S
C52 H58 0.930 . S
N53 Li3 1.990 . S
N53 C52 1.314 . S
N53 C56 1.279 . S
C54 C52 1.353 . S
C54 C57 1.348 . S
C54 H86 0.929 . S
C55 C56 1.358 . S
C55 C57 1.356 . S
C55 H87 0.930 . S
C56 N53 1.279 . S
C56 C55 1.358 . S
C56 H59 0.930 . S
C57 C54 1.348 . S
C57 C55 1.356 . S
H58 C52 0.930 . S
H59 C56 0.930 . S
O60 Li0 1.956 . S
O60 Li1 1.970 . S
O60 Li2 1.961 . S
O60 C4 1.325 . S
O61 Li0 1.970 . S
O61 Li1 1.956 . S
O61 Li3 1.961 . S
O61 C10 1.325 . S
O62 Li0 1.961 . S
O62 Li2 1.956 . S
O62 Li3 1.970 . S
O62 C32 1.325 . S
O63 Li1 1.961 . S
O63 Li2 1.970 . S
O63 Li3 1.956 . S
O63 C38 1.325 . S
H64 C6 0.929 . S
H65 C7 0.930 . S
H66 C8 0.930 . S
H67 C9 0.930 . S
H68 C11 0.930 . S
H69 C13 0.929 . S
H70 C14 0.930 . S
H71 C15 0.930 . S
H72 C18 0.930 . S
H73 C21 0.929 . S
H74 C26 0.929 . S
H75 C27 0.930 . S
H76 C34 0.929 . S
H77 C35 0.930 . S
H78 C36 0.930 . S
H79 C37 0.930 . S
H80 C39 0.929 . S
H81 C40 0.930 . S
H82 C41 0.930 . S
H83 C42 0.930 . S
H84 C46 0.929 . S
H85 C48 0.930 . S
H86 C54 0.929 . S
H87 C55 0.930 . S
Li88 N105 1.990 . S
Li88 O148 1.956 . S
Li88 O149 1.970 . S
Li88 O150 1.961 . S
Li89 N113 1.990 . S
Li89 O148 1.970 . S
Li89 O149 1.956 . S
Li89 O151 1.961 . S
Li90 N135 1.990 . S
Li90 O148 1.961 . S
Li90 O150 1.956 . S
Li90 O151 1.970 . S
Li91 N141 1.990 . S
Li91 O149 1.961 . S
Li91 O150 1.970 . S
Li91 O151 1.956 . S
C92 C94 1.348 . S
C92 C95 1.356 . S
C92 O148 1.325 . S
N93 C96 1.314 . S
N93 C97 1.279 . S
C94 C92 1.348 . S
C94 C96 1.353 . S
C94 H152 0.929 . S
C95 C92 1.356 . S
C95 C97 1.358 . S
C95 H153 0.930 . S
C96 N93 1.314 . S
C96 C94 1.353 . S
C96 H154 0.930 . S
C97 N93 1.279 . S
C97 C95 1.358 . S
C97 H155 0.930 . S
C98 C101 1.348 . S
C98 C102 1.356 . S
C98 O149 1.325 . S
C99 N100 1.279 . S
C99 C102 1.358 . S
C99 H156 0.930 . S
N100 C99 1.279 . S
N100 C103 1.314 . S
C101 C98 1.348 . S
C101 C103 1.353 . S
C101 H157 0.929 . S
C102 C98 1.356 . S
C102 C99 1.358 . S
C102 H158 0.930 . S
C103 N100 1.314 . S
C103 C101 1.353 . S
C103 H159 0.930 . S
C104 N105 1.314 . S
C104 C109 1.353 . S
C104 H110 0.930 . S
N105 Li88 1.990 . S
N105 C104 1.314 . S
N105 C107 1.279 . S
C106 C107 1.358 . S
C106 C108 1.356 . S
C106 H160 0.930 . S
C107 N105 1.279 . S
C107 C106 1.358 . S
C107 H111 0.930 . S
C108 C106 1.356 . S
C108 C109 1.348 . S
C109 C104 1.353 . S
C109 C108 1.348 . S
C109 H161 0.929 . S
H110 C104 0.930 . S
H111 C107 0.930 . S
C112 N113 1.314 . S
C112 C114 1.353 . S
C112 H118 0.930 . S
N113 Li89 1.990 . S
N113 C112 1.314 . S
N113 C116 1.279 . S
C114 C112 1.353 . S
C114 C117 1.348 . S
C114 H162 0.929 . S
C115 C116 1.358 . S
C115 C117 1.356 . S
C115 H163 0.930 . S
C116 N113 1.279 . S
C116 C115 1.358 . S
C116 H119 0.930 . S
C117 C114 1.348 . S
C117 C115 1.356 . S
H118 C112 0.930 . S
H119 C116 0.930 . S
C120 C122 1.348 . S
C120 C123 1.356 . S
C120 O150 1.325 . S
N121 C124 1.314 . S
N121 C125 1.279 . S
C122 C120 1.348 . S
C122 C124 1.353 . S
C122 H164 0.929 . S
C123 C120 1.356 . S
C123 C125 1.358 . S
C123 H165 0.930 . S
C124 N121 1.314 . S
C124 C122 1.353 . S
C124 H166 0.930 . S
C125 N121 1.279 . S
C125 C123 1.358 . S
C125 H167 0.930 . S
C126 C127 1.348 . S
C126 C128 1.356 . S
C126 O151 1.325 . S
C127 C126 1.348 . S
C127 C129 1.353 . S
C127 H168 0.929 . S
C128 C126 1.356 . S
C128 C130 1.358 . S
C128 H169 0.930 . S
C129 C127 1.353 . S
C129 N131 1.314 . S
C129 H170 0.930 . S
C130 C128 1.358 . S
C130 N131 1.279 . S
C130 H171 0.930 . S
N131 C129 1.314 . S
N131 C130 1.279 . S
C132 C134 1.353 . S
C132 N135 1.314 . S
C132 H138 0.930 . S
C133 N135 1.279 . S
C133 C136 1.358 . S
C133 H139 0.930 . S
C134 C132 1.353 . S
C134 C137 1.348 . S
C134 H172 0.929 . S
N135 Li90 1.990 . S
N135 C132 1.314 . S
N135 C133 1.279 . S
C136 C133 1.358 . S
C136 C137 1.356 . S
C136 H173 0.930 . S
C137 C134 1.348 . S
C137 C136 1.356 . S
H138 C132 0.930 . S
H139 C133 0.930 . S
C140 N141 1.314 . S
C140 C142 1.353 . S
C140 H146 0.930 . S
N141 Li91 1.990 . S
N141 C140 1.314 . S
N141 C144 1.279 . S
C142 C140 1.353 . S
C142 C145 1.348 . S
C142 H174 0.929 . S
C143 C144 1.358 . S
C143 C145 1.356 . S
C143 H175 0.930 . S
C144 N141 1.279 . S
C144 C143 1.358 . S
C144 H147 0.930 . S
C145 C142 1.348 . S
C145 C143 1.356 . S
H146 C140 0.930 . S
H147 C144 0.930 . S
O148 Li88 1.956 . S
O148 Li89 1.970 . S
O148 Li90 1.961 . S
O148 C92 1.325 . S
O149 Li88 1.970 . S
O149 Li89 1.956 . S
O149 Li91 1.961 . S
O149 C98 1.325 . S
O150 Li88 1.961 . S
O150 Li90 1.956 . S
O150 Li91 1.970 . S
O150 C120 1.325 . S
O151 Li89 1.961 . S
O151 Li90 1.970 . S
O151 Li91 1.956 . S
O151 C126 1.325 . S
H152 C94 0.929 . S
H153 C95 0.930 . S
H154 C96 0.930 . S
H155 C97 0.930 . S
H156 C99 0.930 . S
H157 C101 0.929 . S
H158 C102 0.930 . S
H159 C103 0.930 . S
H160 C106 0.930 . S
H161 C109 0.929 . S
H162 C114 0.929 . S
H163 C115 0.930 . S
H164 C122 0.929 . S
H165 C123 0.930 . S
H166 C124 0.930 . S
H167 C125 0.930 . S
H168 C127 0.929 . S
H169 C128 0.930 . S
H170 C129 0.930 . S
H171 C130 0.930 . S
H172 C134 0.929 . S
H173 C136 0.930 . S
H174 C142 0.929 . S
H175 C143 0.930 . S
Li176 N193 1.990 . S
Li176 O236 1.956 . S
Li176 O237 1.970 . S
Li176 O238 1.961 . S
Li177 N201 1.990 . S
Li177 O236 1.970 . S
Li177 O237 1.956 . S
Li177 O239 1.961 . S
Li178 N223 1.990 . S
Li178 O236 1.961 . S
Li178 O238 1.956 . S
Li178 O239 1.970 . S
Li179 N229 1.990 . S
Li179 O237 1.961 . S
Li179 O238 1.970 . S
Li179 O239 1.956 . S
C180 C182 1.348 . S
C180 C183 1.356 . S
C180 O236 1.325 . S
N181 C184 1.314 . S
N181 C185 1.279 . S
C182 C180 1.348 . S
C182 C184 1.353 . S
C182 H240 0.929 . S
C183 C180 1.356 . S
C183 C185 1.358 . S
C183 H241 0.930 . S
C184 N181 1.314 . S
C184 C182 1.353 . S
C184 H242 0.930 . S
C185 N181 1.279 . S
C185 C183 1.358 . S
C185 H243 0.930 . S
C186 C189 1.348 . S
C186 C190 1.356 . S
C186 O237 1.325 . S
C187 N188 1.279 . S
C187 C190 1.358 . S
C187 H244 0.930 . S
N188 C187 1.279 . S
N188 C191 1.314 . S
C189 C186 1.348 . S
C189 C191 1.353 . S
C189 H245 0.929 . S
C190 C186 1.356 . S
C190 C187 1.358 . S
C190 H246 0.930 . S
C191 N188 1.314 . S
C191 C189 1.353 . S
C191 H247 0.930 . S
C192 N193 1.314 . S
C192 C197 1.353 . S
C192 H198 0.930 . S
N193 Li176 1.990 . S
N193 C192 1.314 . S
N193 C195 1.279 . S
C194 C195 1.358 . S
C194 C196 1.356 . S
C194 H248 0.930 . S
C195 N193 1.279 . S
C195 C194 1.358 . S
C195 H199 0.930 . S
C196 C194 1.356 . S
C196 C197 1.348 . S
C197 C192 1.353 . S
C197 C196 1.348 . S
C197 H249 0.929 . S
H198 C192 0.930 . S
H199 C195 0.930 . S
C200 N201 1.314 . S
C200 C202 1.353 . S
C200 H206 0.930 . S
N201 Li177 1.990 . S
N201 C200 1.314 . S
N201 C204 1.279 . S
C202 C200 1.353 . S
C202 C205 1.348 . S
C202 H250 0.929 . S
C203 C204 1.358 . S
C203 C205 1.356 . S
C203 H251 0.930 . S
C204 N201 1.279 . S
C204 C203 1.358 . S
C204 H207 0.930 . S
C205 C202 1.348 . S
C205 C203 1.356 . S
H206 C200 0.930 . S
H207 C204 0.930 . S
C208 C210 1.348 . S
C208 C211 1.356 . S
C208 O238 1.325 . S
N209 C212 1.314 . S
N209 C213 1.279 . S
C210 C208 1.348 . S
C210 C212 1.353 . S
C210 H252 0.929 . S
C211 C208 1.356 . S
C211 C213 1.358 . S
C211 H253 0.930 . S
C212 N209 1.314 . S
C212 C210 1.353 . S
C212 H254 0.930 . S
C213 N209 1.279 . S
C213 C211 1.358 . S
C213 H255 0.930 . S
C214 C215 1.348 . S
C214 C216 1.356 . S
C214 O239 1.325 . S
C215 C214 1.348 . S
C215 C217 1.353 . S
C215 H256 0.929 . S
C216 C214 1.356 . S
C216 C218 1.358 . S
C216 H257 0.930 . S
C217 C215 1.353 . S
C217 N219 1.314 . S
C217 H258 0.930 . S
C218 C216 1.358 . S
C218 N219 1.279 . S
C218 H259 0.930 . S
N219 C217 1.314 . S
N219 C218 1.279 . S
C220 C222 1.353 . S
C220 N223 1.314 . S
C220 H226 0.930 . S
C221 N223 1.279 . S
C221 C224 1.358 . S
C221 H227 0.930 . S
C222 C220 1.353 . S
C222 C225 1.348 . S
C222 H260 0.929 . S
N223 Li178 1.990 . S
N223 C220 1.314 . S
N223 C221 1.279 . S
C224 C221 1.358 . S
C224 C225 1.356 . S
C224 H261 0.930 . S
C225 C222 1.348 . S
C225 C224 1.356 . S
H226 C220 0.930 . S
H227 C221 0.930 . S
C228 N229 1.314 . S
C228 C230 1.353 . S
C228 H234 0.930 . S
N229 Li179 1.990 . S
N229 C228 1.314 . S
N229 C232 1.279 . S
C230 C228 1.353 . S
C230 C233 1.348 . S
C230 H262 0.929 . S
C231 C232 1.358 . S
C231 C233 1.356 . S
C231 H263 0.930 . S
C232 N229 1.279 . S
C232 C231 1.358 . S
C232 H235 0.930 . S
C233 C230 1.348 . S
C233 C231 1.356 . S
H234 C228 0.930 . S
H235 C232 0.930 . S
O236 Li176 1.956 . S
O236 Li177 1.970 . S
O236 Li178 1.961 . S
O236 C180 1.325 . S
O237 Li176 1.970 . S
O237 Li177 1.956 . S
O237 Li179 1.961 . S
O237 C186 1.325 . S
O238 Li176 1.961 . S
O238 Li178 1.956 . S
O238 Li179 1.970 . S
O238 C208 1.325 . S
O239 Li177 1.961 . S
O239 Li178 1.970 . S
O239 Li179 1.956 . S
O239 C214 1.325 . S
H240 C182 0.929 . S
H241 C183 0.930 . S
H242 C184 0.930 . S
H243 C185 0.930 . S
H244 C187 0.930 . S
H245 C189 0.929 . S
H246 C190 0.930 . S
H247 C191 0.930 . S
H248 C194 0.930 . S
H249 C197 0.929 . S
H250 C202 0.929 . S
H251 C203 0.930 . S
H252 C210 0.929 . S
H253 C211 0.930 . S
H254 C212 0.930 . S
H255 C213 0.930 . S
H256 C215 0.929 . S
H257 C216 0.930 . S
H258 C217 0.930 . S
H259 C218 0.930 . S
H260 C222 0.929 . S
H261 C224 0.930 . S
H262 C230 0.929 . S
H263 C231 0.930 . S
Li264 N281 1.990 . S
Li264 O324 1.956 . S
Li264 O325 1.970 . S
Li264 O326 1.961 . S
Li265 N289 1.990 . S
Li265 O324 1.970 . S
Li265 O325 1.956 . S
Li265 O327 1.961 . S
Li266 N311 1.990 . S
Li266 O324 1.961 . S
Li266 O326 1.956 . S
Li266 O327 1.970 . S
Li267 N317 1.990 . S
Li267 O325 1.961 . S
Li267 O326 1.970 . S
Li267 O327 1.956 . S
C268 C270 1.348 . S
C268 C271 1.356 . S
C268 O324 1.325 . S
N269 C272 1.314 . S
N269 C273 1.279 . S
C270 C268 1.348 . S
C270 C272 1.353 . S
C270 H328 0.929 . S
C271 C268 1.356 . S
C271 C273 1.358 . S
C271 H329 0.930 . S
C272 N269 1.314 . S
C272 C270 1.353 . S
C272 H330 0.930 . S
C273 N269 1.279 . S
C273 C271 1.358 . S
C273 H331 0.930 . S
C274 C277 1.348 . S
C274 C278 1.356 . S
C274 O325 1.325 . S
C275 N276 1.279 . S
C275 C278 1.358 . S
C275 H332 0.930 . S
N276 C275 1.279 . S
N276 C279 1.314 . S
C277 C274 1.348 . S
C277 C279 1.353 . S
C277 H333 0.929 . S
C278 C274 1.356 . S
C278 C275 1.358 . S
C278 H334 0.930 . S
C279 N276 1.314 . S
C279 C277 1.353 . S
C279 H335 0.930 . S
C280 N281 1.314 . S
C280 C285 1.353 . S
C280 H286 0.930 . S
N281 Li264 1.990 . S
N281 C280 1.314 . S
N281 C283 1.279 . S
C282 C283 1.358 . S
C282 C284 1.356 . S
C282 H336 0.930 . S
C283 N281 1.279 . S
C283 C282 1.358 . S
C283 H287 0.930 . S
C284 C282 1.356 . S
C284 C285 1.348 . S
C285 C280 1.353 . S
C285 C284 1.348 . S
C285 H337 0.929 . S
H286 C280 0.930 . S
H287 C283 0.930 . S
C288 N289 1.314 . S
C288 C290 1.353 . S
C288 H294 0.930 . S
N289 Li265 1.990 . S
N289 C288 1.314 . S
N289 C292 1.279 . S
C290 C288 1.353 . S
C290 C293 1.348 . S
C290 H338 0.929 . S
C291 C292 1.358 . S
C291 C293 1.356 . S
C291 H339 0.930 . S
C292 N289 1.279 . S
C292 C291 1.358 . S
C292 H295 0.930 . S
C293 C290 1.348 . S
C293 C291 1.356 . S
H294 C288 0.930 . S
H295 C292 0.930 . S
C296 C298 1.348 . S
C296 C299 1.356 . S
C296 O326 1.325 . S
N297 C300 1.314 . S
N297 C301 1.279 . S
C298 C296 1.348 . S
C298 C300 1.353 . S
C298 H340 0.929 . S
C299 C296 1.356 . S
C299 C301 1.358 . S
C299 H341 0.930 . S
C300 N297 1.314 . S
C300 C298 1.353 . S
C300 H342 0.930 . S
C301 N297 1.279 . S
C301 C299 1.358 . S
C301 H343 0.930 . S
C302 C303 1.348 . S
C302 C304 1.356 . S
C302 O327 1.325 . S
C303 C302 1.348 . S
C303 C305 1.353 . S
C303 H344 0.929 . S
C304 C302 1.356 . S
C304 C306 1.358 . S
C304 H345 0.930 . S
C305 C303 1.353 . S
C305 N307 1.314 . S
C305 H346 0.930 . S
C306 C304 1.358 . S
C306 N307 1.279 . S
C306 H347 0.930 . S
N307 C305 1.314 . S
N307 C306 1.279 . S
C308 C310 1.353 . S
C308 N311 1.314 . S
C308 H314 0.930 . S
C309 N311 1.279 . S
C309 C312 1.358 . S
C309 H315 0.930 . S
C310 C308 1.353 . S
C310 C313 1.348 . S
C310 H348 0.929 . S
N311 Li266 1.990 . S
N311 C308 1.314 . S
N311 C309 1.279 . S
C312 C309 1.358 . S
C312 C313 1.356 . S
C312 H349 0.930 . S
C313 C310 1.348 . S
C313 C312 1.356 . S
H314 C308 0.930 . S
H315 C309 0.930 . S
C316 N317 1.314 . S
C316 C318 1.353 . S
C316 H322 0.930 . S
N317 Li267 1.990 . S
N317 C316 1.314 . S
N317 C320 1.279 . S
C318 C316 1.353 . S
C318 C321 1.348 . S
C318 H350 0.929 . S
C319 C320 1.358 . S
C319 C321 1.356 . S
C319 H351 0.930 . S
C320 N317 1.279 . S
C320 C319 1.358 . S
C320 H323 0.930 . S
C321 C318 1.348 . S
C321 C319 1.356 . S
H322 C316 0.930 . S
H323 C320 0.930 . S
O324 Li264 1.956 . S
O324 Li265 1.970 . S
O324 Li266 1.961 . S
O324 C268 1.325 . S
O325 Li264 1.970 . S
O325 Li265 1.956 . S
O325 Li267 1.961 . S
O325 C274 1.325 . S
O326 Li264 1.961 . S
O326 Li266 1.956 . S
O326 Li267 1.970 . S
O326 C296 1.325 . S
O327 Li265 1.961 . S
O327 Li266 1.970 . S
O327 Li267 1.956 . S
O327 C302 1.325 . S
H328 C270 0.929 . S
H329 C271 0.930 . S
H330 C272 0.930 . S
H331 C273 0.930 . S
H332 C275 0.930 . S
H333 C277 0.929 . S
H334 C278 0.930 . S
H335 C279 0.930 . S
H336 C282 0.930 . S
H337 C285 0.929 . S
H338 C290 0.929 . S
H339 C291 0.930 . S
H340 C298 0.929 . S
H341 C299 0.930 . S
H342 C300 0.930 . S
H343 C301 0.930 . S
H344 C303 0.929 . S
H345 C304 0.930 . S
H346 C305 0.930 . S
H347 C306 0.930 . S
H348 C310 0.929 . S
H349 C312 0.930 . S
H350 C318 0.929 . S
H351 C319 0.930 . S
Li352 N369 1.990 . S
Li352 O412 1.956 . S
Li352 O413 1.970 . S
Li352 O414 1.961 . S
Li353 N377 1.990 . S
Li353 O412 1.970 . S
Li353 O413 1.956 . S
Li353 O415 1.961 . S
Li354 N399 1.990 . S
Li354 O412 1.961 . S
Li354 O414 1.956 . S
Li354 O415 1.970 . S
Li355 N405 1.990 . S
Li355 O413 1.961 . S
Li355 O414 1.970 . S
Li355 O415 1.956 . S
C356 C358 1.348 . S
C356 C359 1.356 . S
C356 O412 1.325 . S
N357 C360 1.314 . S
N357 C361 1.279 . S
C358 C356 1.348 . S
C358 C360 1.353 . S
C358 H416 0.929 . S
C359 C356 1.356 . S
C359 C361 1.358 . S
C359 H417 0.930 . S
C360 N357 1.314 . S
C360 C358 1.353 . S
C360 H418 0.930 . S
C361 N357 1.279 . S
C361 C359 1.358 . S
C361 H419 0.930 . S
C362 C365 1.348 . S
C362 C366 1.356 . S
C362 O413 1.325 . S
C363 N364 1.279 . S
C363 C366 1.358 . S
C363 H420 0.930 . S
N364 C363 1.279 . S
N364 C367 1.314 . S
C365 C362 1.348 . S
C365 C367 1.353 . S
C365 H421 0.929 . S
C366 C362 1.356 . S
C366 C363 1.358 . S
C366 H422 0.930 . S
C367 N364 1.314 . S
C367 C365 1.353 . S
C367 H423 0.930 . S
C368 N369 1.314 . S
C368 C373 1.353 . S
C368 H374 0.930 . S
N369 Li352 1.990 . S
N369 C368 1.314 . S
N369 C371 1.279 . S
C370 C371 1.358 . S
C370 C372 1.356 . S
C370 H424 0.930 . S
C371 N369 1.279 . S
C371 C370 1.358 . S
C371 H375 0.930 . S
C372 C370 1.356 . S
C372 C373 1.348 . S
C373 C368 1.353 . S
C373 C372 1.348 . S
C373 H425 0.929 . S
H374 C368 0.930 . S
H375 C371 0.930 . S
C376 N377 1.314 . S
C376 C378 1.353 . S
C376 H382 0.930 . S
N377 Li353 1.990 . S
N377 C376 1.314 . S
N377 C380 1.279 . S
C378 C376 1.353 . S
C378 C381 1.348 . S
C378 H426 0.929 . S
C379 C380 1.358 . S
C379 C381 1.356 . S
C379 H427 0.930 . S
C380 N377 1.279 . S
C380 C379 1.358 . S
C380 H383 0.930 . S
C381 C378 1.348 . S
C381 C379 1.356 . S
H382 C376 0.930 . S
H383 C380 0.930 . S
C384 C386 1.348 . S
C384 C387 1.356 . S
C384 O414 1.325 . S
N385 C388 1.314 . S
N385 C389 1.279 . S
C386 C384 1.348 . S
C386 C388 1.353 . S
C386 H428 0.929 . S
C387 C384 1.356 . S
C387 C389 1.358 . S
C387 H429 0.930 . S
C388 N385 1.314 . S
C388 C386 1.353 . S
C388 H430 0.930 . S
C389 N385 1.279 . S
C389 C387 1.358 . S
C389 H431 0.930 . S
C390 C391 1.348 . S
C390 C392 1.356 . S
C390 O415 1.325 . S
C391 C390 1.348 . S
C391 C393 1.353 . S
C391 H432 0.929 . S
C392 C390 1.356 . S
C392 C394 1.358 . S
C392 H433 0.930 . S
C393 C391 1.353 . S
C393 N395 1.314 . S
C393 H434 0.930 . S
C394 C392 1.358 . S
C394 N395 1.279 . S
C394 H435 0.930 . S
N395 C393 1.314 . S
N395 C394 1.279 . S
C396 C398 1.353 . S
C396 N399 1.314 . S
C396 H402 0.930 . S
C397 N399 1.279 . S
C397 C400 1.358 . S
C397 H403 0.930 . S
C398 C396 1.353 . S
C398 C401 1.348 . S
C398 H436 0.929 . S
N399 Li354 1.990 . S
N399 C396 1.314 . S
N399 C397 1.279 . S
C400 C397 1.358 . S
C400 C401 1.356 . S
C400 H437 0.930 . S
C401 C398 1.348 . S
C401 C400 1.356 . S
H402 C396 0.930 . S
H403 C397 0.930 . S
C404 N405 1.314 . S
C404 C406 1.353 . S
C404 H410 0.930 . S
N405 Li355 1.990 . S
N405 C404 1.314 . S
N405 C408 1.279 . S
C406 C404 1.353 . S
C406 C409 1.348 . S
C406 H438 0.929 . S
C407 C408 1.358 . S
C407 C409 1.356 . S
C407 H439 0.930 . S
C408 N405 1.279 . S
C408 C407 1.358 . S
C408 H411 0.930 . S
C409 C406 1.348 . S
C409 C407 1.356 . S
H410 C404 0.930 . S
H411 C408 0.930 . S
O412 Li352 1.956 . S
O412 Li353 1.970 . S
O412 Li354 1.961 . S
O412 C356 1.325 . S
O413 Li352 1.970 . S
O413 Li353 1.956 . S
O413 Li355 1.961 . S
O413 C362 1.325 . S
O414 Li352 1.961 . S
O414 Li354 1.956 . S
O414 Li355 1.970 . S
O414 C384 1.325 . S
O415 Li353 1.961 . S
O415 Li354 1.970 . S
O415 Li355 1.956 . S
O415 C390 1.325 . S
H416 C358 0.929 . S
H417 C359 0.930 . S
H418 C360 0.930 . S
H419 C361 0.930 . S
H420 C363 0.930 . S
H421 C365 0.929 . S
H422 C366 0.930 . S
H423 C367 0.930 . S
H424 C370 0.930 . S
H425 C373 0.929 . S
H426 C378 0.929 . S
H427 C379 0.930 . S
H428 C386 0.929 . S
H429 C387 0.930 . S
H430 C388 0.930 . S
H431 C389 0.930 . S
H432 C391 0.929 . S
H433 C392 0.930 . S
H434 C393 0.930 . S
H435 C394 0.930 . S
H436 C398 0.929 . S
H437 C400 0.930 . S
H438 C406 0.929 . S
H439 C407 0.930 . S
Li440 N457 1.990 . S
Li440 O500 1.956 . S
Li440 O501 1.970 . S
Li440 O502 1.961 . S
Li441 N465 1.990 . S
Li441 O500 1.970 . S
Li441 O501 1.956 . S
Li441 O503 1.961 . S
Li442 N487 1.990 . S
Li442 O500 1.961 . S
Li442 O502 1.956 . S
Li442 O503 1.970 . S
Li443 N493 1.990 . S
Li443 O501 1.961 . S
Li443 O502 1.970 . S
Li443 O503 1.956 . S
C444 C446 1.348 . S
C444 C447 1.356 . S
C444 O500 1.325 . S
N445 C448 1.314 . S
N445 C449 1.279 . S
C446 C444 1.348 . S
C446 C448 1.353 . S
C446 H504 0.929 . S
C447 C444 1.356 . S
C447 C449 1.358 . S
C447 H505 0.930 . S
C448 N445 1.314 . S
C448 C446 1.353 . S
C448 H506 0.930 . S
C449 N445 1.279 . S
C449 C447 1.358 . S
C449 H507 0.930 . S
C450 C453 1.348 . S
C450 C454 1.356 . S
C450 O501 1.325 . S
C451 N452 1.279 . S
C451 C454 1.358 . S
C451 H508 0.930 . S
N452 C451 1.279 . S
N452 C455 1.314 . S
C453 C450 1.348 . S
C453 C455 1.353 . S
C453 H509 0.929 . S
C454 C450 1.356 . S
C454 C451 1.358 . S
C454 H510 0.930 . S
C455 N452 1.314 . S
C455 C453 1.353 . S
C455 H511 0.930 . S
C456 N457 1.314 . S
C456 C461 1.353 . S
C456 H462 0.930 . S
N457 Li440 1.990 . S
N457 C456 1.314 . S
N457 C459 1.279 . S
C458 C459 1.358 . S
C458 C460 1.356 . S
C458 H512 0.930 . S
C459 N457 1.279 . S
C459 C458 1.358 . S
C459 H463 0.930 . S
C460 C458 1.356 . S
C460 C461 1.348 . S
C461 C456 1.353 . S
C461 C460 1.348 . S
C461 H513 0.929 . S
H462 C456 0.930 . S
H463 C459 0.930 . S
C464 N465 1.314 . S
C464 C466 1.353 . S
C464 H470 0.930 . S
N465 Li441 1.990 . S
N465 C464 1.314 . S
N465 C468 1.279 . S
C466 C464 1.353 . S
C466 C469 1.348 . S
C466 H514 0.929 . S
C467 C468 1.358 . S
C467 C469 1.356 . S
C467 H515 0.930 . S
C468 N465 1.279 . S
C468 C467 1.358 . S
C468 H471 0.930 . S
C469 C466 1.348 . S
C469 C467 1.356 . S
H470 C464 0.930 . S
H471 C468 0.930 . S
C472 C474 1.348 . S
C472 C475 1.356 . S
C472 O502 1.325 . S
N473 C476 1.314 . S
N473 C477 1.279 . S
C474 C472 1.348 . S
C474 C476 1.353 . S
C474 H516 0.929 . S
C475 C472 1.356 . S
C475 C477 1.358 . S
C475 H517 0.930 . S
C476 N473 1.314 . S
C476 C474 1.353 . S
C476 H518 0.930 . S
C477 N473 1.279 . S
C477 C475 1.358 . S
C477 H519 0.930 . S
C478 C479 1.348 . S
C478 C480 1.356 . S
C478 O503 1.325 . S
C479 C478 1.348 . S
C479 C481 1.353 . S
C479 H520 0.929 . S
C480 C478 1.356 . S
C480 C482 1.358 . S
C480 H521 0.930 . S
C481 C479 1.353 . S
C481 N483 1.314 . S
C481 H522 0.930 . S
C482 C480 1.358 . S
C482 N483 1.279 . S
C482 H523 0.930 . S
N483 C481 1.314 . S
N483 C482 1.279 . S
C484 C486 1.353 . S
C484 N487 1.314 . S
C484 H490 0.930 . S
C485 N487 1.279 . S
C485 C488 1.358 . S
C485 H491 0.930 . S
C486 C484 1.353 . S
C486 C489 1.348 . S
C486 H524 0.929 . S
N487 Li442 1.990 . S
N487 C484 1.314 . S
N487 C485 1.279 . S
C488 C485 1.358 . S
C488 C489 1.356 . S
C488 H525 0.930 . S
C489 C486 1.348 . S
C489 C488 1.356 . S
H490 C484 0.930 . S
H491 C485 0.930 . S
C492 N493 1.314 . S
C492 C494 1.353 . S
C492 H498 0.930 . S
N493 Li443 1.990 . S
N493 C492 1.314 . S
N493 C496 1.279 . S
C494 C492 1.353 . S
C494 C497 1.348 . S
C494 H526 0.929 . S
C495 C496 1.358 . S
C495 C497 1.356 . S
C495 H527 0.930 . S
C496 N493 1.279 . S
C496 C495 1.358 . S
C496 H499 0.930 . S
C497 C494 1.348 . S
C497 C495 1.356 . S
H498 C492 0.930 . S
H499 C496 0.930 . S
O500 Li440 1.956 . S
O500 Li441 1.970 . S
O500 Li442 1.961 . S
O500 C444 1.325 . S
O501 Li440 1.970 . S
O501 Li441 1.956 . S
O501 Li443 1.961 . S
O501 C450 1.325 . S
O502 Li440 1.961 . S
O502 Li442 1.956 . S
O502 Li443 1.970 . S
O502 C472 1.325 . S
O503 Li441 1.961 . S
O503 Li442 1.970 . S
O503 Li443 1.956 . S
O503 C478 1.325 . S
H504 C446 0.929 . S
H505 C447 0.930 . S
H506 C448 0.930 . S
H507 C449 0.930 . S
H508 C451 0.930 . S
H509 C453 0.929 . S
H510 C454 0.930 . S
H511 C455 0.930 . S
H512 C458 0.930 . S
H513 C461 0.929 . S
H514 C466 0.929 . S
H515 C467 0.930 . S
H516 C474 0.929 . S
H517 C475 0.930 . S
H518 C476 0.930 . S
H519 C477 0.930 . S
H520 C479 0.929 . S
H521 C480 0.930 . S
H522 C481 0.930 . S
H523 C482 0.930 . S
H524 C486 0.929 . S
H525 C488 0.930 . S
H526 C494 0.929 . S
H527 C495 0.930 . S
Li528 N545 1.990 . S
Li528 O588 1.956 . S
Li528 O589 1.970 . S
Li528 O590 1.961 . S
Li529 N553 1.990 . S
Li529 O588 1.970 . S
Li529 O589 1.956 . S
Li529 O591 1.961 . S
Li530 N575 1.990 . S
Li530 O588 1.961 . S
Li530 O590 1.956 . S
Li530 O591 1.970 . S
Li531 N581 1.990 . S
Li531 O589 1.961 . S
Li531 O590 1.970 . S
Li531 O591 1.956 . S
C532 C534 1.348 . S
C532 C535 1.356 . S
C532 O588 1.325 . S
N533 C536 1.314 . S
N533 C537 1.279 . S
C534 C532 1.348 . S
C534 C536 1.353 . S
C534 H592 0.929 . S
C535 C532 1.356 . S
C535 C537 1.358 . S
C535 H593 0.930 . S
C536 N533 1.314 . S
C536 C534 1.353 . S
C536 H594 0.930 . S
C537 N533 1.279 . S
C537 C535 1.358 . S
C537 H595 0.930 . S
C538 C541 1.348 . S
C538 C542 1.356 . S
C538 O589 1.325 . S
C539 N540 1.279 . S
C539 C542 1.358 . S
C539 H596 0.930 . S
N540 C539 1.279 . S
N540 C543 1.314 . S
C541 C538 1.348 . S
C541 C543 1.353 . S
C541 H597 0.929 . S
C542 C538 1.356 . S
C542 C539 1.358 . S
C542 H598 0.930 . S
C543 N540 1.314 . S
C543 C541 1.353 . S
C543 H599 0.930 . S
C544 N545 1.314 . S
C544 C549 1.353 . S
C544 H550 0.930 . S
N545 Li528 1.990 . S
N545 C544 1.314 . S
N545 C547 1.279 . S
C546 C547 1.358 . S
C546 C548 1.356 . S
C546 H600 0.930 . S
C547 N545 1.279 . S
C547 C546 1.358 . S
C547 H551 0.930 . S
C548 C546 1.356 . S
C548 C549 1.348 . S
C549 C544 1.353 . S
C549 C548 1.348 . S
C549 H601 0.929 . S
H550 C544 0.930 . S
H551 C547 0.930 . S
C552 N553 1.314 . S
C552 C554 1.353 . S
C552 H558 0.930 . S
N553 Li529 1.990 . S
N553 C552 1.314 . S
N553 C556 1.279 . S
C554 C552 1.353 . S
C554 C557 1.348 . S
C554 H602 0.929 . S
C555 C556 1.358 . S
C555 C557 1.356 . S
C555 H603 0.930 . S
C556 N553 1.279 . S
C556 C555 1.358 . S
C556 H559 0.930 . S
C557 C554 1.348 . S
C557 C555 1.356 . S
H558 C552 0.930 . S
H559 C556 0.930 . S
C560 C562 1.348 . S
C560 C563 1.356 . S
C560 O590 1.325 . S
N561 C564 1.314 . S
N561 C565 1.279 . S
C562 C560 1.348 . S
C562 C564 1.353 . S
C562 H604 0.929 . S
C563 C560 1.356 . S
C563 C565 1.358 . S
C563 H605 0.930 . S
C564 N561 1.314 . S
C564 C562 1.353 . S
C564 H606 0.930 . S
C565 N561 1.279 . S
C565 C563 1.358 . S
C565 H607 0.930 . S
C566 C567 1.348 . S
C566 C568 1.356 . S
C566 O591 1.325 . S
C567 C566 1.348 . S
C567 C569 1.353 . S
C567 H608 0.929 . S
C568 C566 1.356 . S
C568 C570 1.358 . S
C568 H609 0.930 . S
C569 C567 1.353 . S
C569 N571 1.314 . S
C569 H610 0.930 . S
C570 C568 1.358 . S
C570 N571 1.279 . S
C570 H611 0.930 . S
N571 C569 1.314 . S
N571 C570 1.279 . S
C572 C574 1.353 . S
C572 N575 1.314 . S
C572 H578 0.930 . S
C573 N575 1.279 . S
C573 C576 1.358 . S
C573 H579 0.930 . S
C574 C572 1.353 . S
C574 C577 1.348 . S
C574 H612 0.929 . S
N575 Li530 1.990 . S
N575 C572 1.314 . S
N575 C573 1.279 . S
C576 C573 1.358 . S
C576 C577 1.356 . S
C576 H613 0.930 . S
C577 C574 1.348 . S
C577 C576 1.356 . S
H578 C572 0.930 . S
H579 C573 0.930 . S
C580 N581 1.314 . S
C580 C582 1.353 . S
C580 H586 0.930 . S
N581 Li531 1.990 . S
N581 C580 1.314 . S
N581 C584 1.279 . S
C582 C580 1.353 . S
C582 C585 1.348 . S
C582 H614 0.929 . S
C583 C584 1.358 . S
C583 C585 1.356 . S
C583 H615 0.930 . S
C584 N581 1.279 . S
C584 C583 1.358 . S
C584 H587 0.930 . S
C585 C582 1.348 . S
C585 C583 1.356 . S
H586 C580 0.930 . S
H587 C584 0.930 . S
O588 Li528 1.956 . S
O588 Li529 1.970 . S
O588 Li530 1.961 . S
O588 C532 1.325 . S
O589 Li528 1.970 . S
O589 Li529 1.956 . S
O589 Li531 1.961 . S
O589 C538 1.325 . S
O590 Li528 1.961 . S
O590 Li530 1.956 . S
O590 Li531 1.970 . S
O590 C560 1.325 . S
O591 Li529 1.961 . S
O591 Li530 1.970 . S
O591 Li531 1.956 . S
O591 C566 1.325 . S
H592 C534 0.929 . S
H593 C535 0.930 . S
H594 C536 0.930 . S
H595 C537 0.930 . S
H596 C539 0.930 . S
H597 C541 0.929 . S
H598 C542 0.930 . S
H599 C543 0.930 . S
H600 C546 0.930 . S
H601 C549 0.929 . S
H602 C554 0.929 . S
H603 C555 0.930 . S
H604 C562 0.929 . S
H605 C563 0.930 . S
H606 C564 0.930 . S
H607 C565 0.930 . S
H608 C567 0.929 . S
H609 C568 0.930 . S
H610 C569 0.930 . S
H611 C570 0.930 . S
H612 C574 0.929 . S
H613 C576 0.930 . S
H614 C582 0.929 . S
H615 C583 0.930 . S
Li616 N633 1.990 . S
Li616 O676 1.956 . S
Li616 O677 1.970 . S
Li616 O678 1.961 . S
Li617 N641 1.990 . S
Li617 O676 1.970 . S
Li617 O677 1.956 . S
Li617 O679 1.961 . S
Li618 N663 1.990 . S
Li618 O676 1.961 . S
Li618 O678 1.956 . S
Li618 O679 1.970 . S
Li619 N669 1.990 . S
Li619 O677 1.961 . S
Li619 O678 1.970 . S
Li619 O679 1.956 . S
C620 C622 1.348 . S
C620 C623 1.356 . S
C620 O676 1.325 . S
N621 C624 1.314 . S
N621 C625 1.279 . S
C622 C620 1.348 . S
C622 C624 1.353 . S
C622 H680 0.929 . S
C623 C620 1.356 . S
C623 C625 1.358 . S
C623 H681 0.930 . S
C624 N621 1.314 . S
C624 C622 1.353 . S
C624 H682 0.930 . S
C625 N621 1.279 . S
C625 C623 1.358 . S
C625 H683 0.930 . S
C626 C629 1.348 . S
C626 C630 1.356 . S
C626 O677 1.325 . S
C627 N628 1.279 . S
C627 C630 1.358 . S
C627 H684 0.930 . S
N628 C627 1.279 . S
N628 C631 1.314 . S
C629 C626 1.348 . S
C629 C631 1.353 . S
C629 H685 0.929 . S
C630 C626 1.356 . S
C630 C627 1.358 . S
C630 H686 0.930 . S
C631 N628 1.314 . S
C631 C629 1.353 . S
C631 H687 0.930 . S
C632 N633 1.314 . S
C632 C637 1.353 . S
C632 H638 0.930 . S
N633 Li616 1.990 . S
N633 C632 1.314 . S
N633 C635 1.279 . S
C634 C635 1.358 . S
C634 C636 1.356 . S
C634 H688 0.930 . S
C635 N633 1.279 . S
C635 C634 1.358 . S
C635 H639 0.930 . S
C636 C634 1.356 . S
C636 C637 1.348 . S
C637 C632 1.353 . S
C637 C636 1.348 . S
C637 H689 0.929 . S
H638 C632 0.930 . S
H639 C635 0.930 . S
C640 N641 1.314 . S
C640 C642 1.353 . S
C640 H646 0.930 . S
N641 Li617 1.990 . S
N641 C640 1.314 . S
N641 C644 1.279 . S
C642 C640 1.353 . S
C642 C645 1.348 . S
C642 H690 0.929 . S
C643 C644 1.358 . S
C643 C645 1.356 . S
C643 H691 0.930 . S
C644 N641 1.279 . S
C644 C643 1.358 . S
C644 H647 0.930 . S
C645 C642 1.348 . S
C645 C643 1.356 . S
H646 C640 0.930 . S
H647 C644 0.930 . S
C648 C650 1.348 . S
C648 C651 1.356 . S
C648 O678 1.325 . S
N649 C652 1.314 . S
N649 C653 1.279 . S
C650 C648 1.348 . S
C650 C652 1.353 . S
C650 H692 0.929 . S
C651 C648 1.356 . S
C651 C653 1.358 . S
C651 H693 0.930 . S
C652 N649 1.314 . S
C652 C650 1.353 . S
C652 H694 0.930 . S
C653 N649 1.279 . S
C653 C651 1.358 . S
C653 H695 0.930 . S
C654 C655 1.348 . S
C654 C656 1.356 . S
C654 O679 1.325 . S
C655 C654 1.348 . S
C655 C657 1.353 . S
C655 H696 0.929 . S
C656 C654 1.356 . S
C656 C658 1.358 . S
C656 H697 0.930 . S
C657 C655 1.353 . S
C657 N659 1.314 . S
C657 H698 0.930 . S
C658 C656 1.358 . S
C658 N659 1.279 . S
C658 H699 0.930 . S
N659 C657 1.314 . S
N659 C658 1.279 . S
C660 C662 1.353 . S
C660 N663 1.314 . S
C660 H666 0.930 . S
C661 N663 1.279 . S
C661 C664 1.358 . S
C661 H667 0.930 . S
C662 C660 1.353 . S
C662 C665 1.348 . S
C662 H700 0.929 . S
N663 Li618 1.990 . S
N663 C660 1.314 . S
N663 C661 1.279 . S
C664 C661 1.358 . S
C664 C665 1.356 . S
C664 H701 0.930 . S
C665 C662 1.348 . S
C665 C664 1.356 . S
H666 C660 0.930 . S
H667 C661 0.930 . S
C668 N669 1.314 . S
C668 C670 1.353 . S
C668 H674 0.930 . S
N669 Li619 1.990 . S
N669 C668 1.314 . S
N669 C672 1.279 . S
C670 C668 1.353 . S
C670 C673 1.348 . S
C670 H702 0.929 . S
C671 C672 1.358 . S
C671 C673 1.356 . S
C671 H703 0.930 . S
C672 N669 1.279 . S
C672 C671 1.358 . S
C672 H675 0.930 . S
C673 C670 1.348 . S
C673 C671 1.356 . S
H674 C668 0.930 . S
H675 C672 0.930 . S
O676 Li616 1.956 . S
O676 Li617 1.970 . S
O676 Li618 1.961 . S
O676 C620 1.325 . S
O677 Li616 1.970 . S
O677 Li617 1.956 . S
O677 Li619 1.961 . S
O677 C626 1.325 . S
O678 Li616 1.961 . S
O678 Li618 1.956 . S
O678 Li619 1.970 . S
O678 C648 1.325 . S
O679 Li617 1.961 . S
O679 Li618 1.970 . S
O679 Li619 1.956 . S
O679 C654 1.325 . S
H680 C622 0.929 . S
H681 C623 0.930 . S
H682 C624 0.930 . S
H683 C625 0.930 . S
H684 C627 0.930 . S
H685 C629 0.929 . S
H686 C630 0.930 . S
H687 C631 0.930 . S
H688 C634 0.930 . S
H689 C637 0.929 . S
H690 C642 0.929 . S
H691 C643 0.930 . S
H692 C650 0.929 . S
H693 C651 0.930 . S
H694 C652 0.930 . S
H695 C653 0.930 . S
H696 C655 0.929 . S
H697 C656 0.930 . S
H698 C657 0.930 . S
H699 C658 0.930 . S
H700 C662 0.929 . S
H701 C664 0.930 . S
H702 C670 0.929 . S
H703 C671 0.930 . S
Li704 N721 1.990 . S
Li704 O764 1.956 . S
Li704 O765 1.970 . S
Li704 O766 1.961 . S
Li705 N729 1.990 . S
Li705 O764 1.970 . S
Li705 O765 1.956 . S
Li705 O767 1.961 . S
Li706 N751 1.990 . S
Li706 O764 1.961 . S
Li706 O766 1.956 . S
Li706 O767 1.970 . S
Li707 N757 1.990 . S
Li707 O765 1.961 . S
Li707 O766 1.970 . S
Li707 O767 1.956 . S
C708 C710 1.348 . S
C708 C711 1.356 . S
C708 O764 1.325 . S
N709 C712 1.314 . S
N709 C713 1.279 . S
C710 C708 1.348 . S
C710 C712 1.353 . S
C710 H768 0.929 . S
C711 C708 1.356 . S
C711 C713 1.358 . S
C711 H769 0.930 . S
C712 N709 1.314 . S
C712 C710 1.353 . S
C712 H770 0.930 . S
C713 N709 1.279 . S
C713 C711 1.358 . S
C713 H771 0.930 . S
C714 C717 1.348 . S
C714 C718 1.356 . S
C714 O765 1.325 . S
C715 N716 1.279 . S
C715 C718 1.358 . S
C715 H772 0.930 . S
N716 C715 1.279 . S
N716 C719 1.314 . S
C717 C714 1.348 . S
C717 C719 1.353 . S
C717 H773 0.929 . S
C718 C714 1.356 . S
C718 C715 1.358 . S
C718 H774 0.930 . S
C719 N716 1.314 . S
C719 C717 1.353 . S
C719 H775 0.930 . S
C720 N721 1.314 . S
C720 C725 1.353 . S
C720 H726 0.930 . S
N721 Li704 1.990 . S
N721 C720 1.314 . S
N721 C723 1.279 . S
C722 C723 1.358 . S
C722 C724 1.356 . S
C722 H776 0.930 . S
C723 N721 1.279 . S
C723 C722 1.358 . S
C723 H727 0.930 . S
C724 C722 1.356 . S
C724 C725 1.348 . S
C725 C720 1.353 . S
C725 C724 1.348 . S
C725 H777 0.929 . S
H726 C720 0.930 . S
H727 C723 0.930 . S
C728 N729 1.314 . S
C728 C730 1.353 . S
C728 H734 0.930 . S
N729 Li705 1.990 . S
N729 C728 1.314 . S
N729 C732 1.279 . S
C730 C728 1.353 . S
C730 C733 1.348 . S
C730 H778 0.929 . S
C731 C732 1.358 . S
C731 C733 1.356 . S
C731 H779 0.930 . S
C732 N729 1.279 . S
C732 C731 1.358 . S
C732 H735 0.930 . S
C733 C730 1.348 . S
C733 C731 1.356 . S
H734 C728 0.930 . S
H735 C732 0.930 . S
C736 C738 1.348 . S
C736 C739 1.356 . S
C736 O766 1.325 . S
N737 C740 1.314 . S
N737 C741 1.279 . S
C738 C736 1.348 . S
C738 C740 1.353 . S
C738 H780 0.929 . S
C739 C736 1.356 . S
C739 C741 1.358 . S
C739 H781 0.930 . S
C740 N737 1.314 . S
C740 C738 1.353 . S
C740 H782 0.930 . S
C741 N737 1.279 . S
C741 C739 1.358 . S
C741 H783 0.930 . S
C742 C743 1.348 . S
C742 C744 1.356 . S
C742 O767 1.325 . S
C743 C742 1.348 . S
C743 C745 1.353 . S
C743 H784 0.929 . S
C744 C742 1.356 . S
C744 C746 1.358 . S
C744 H785 0.930 . S
C745 C743 1.353 . S
C745 N747 1.314 . S
C745 H786 0.930 . S
C746 C744 1.358 . S
C746 N747 1.279 . S
C746 H787 0.930 . S
N747 C745 1.314 . S
N747 C746 1.279 . S
C748 C750 1.353 . S
C748 N751 1.314 . S
C748 H754 0.930 . S
C749 N751 1.279 . S
C749 C752 1.358 . S
C749 H755 0.930 . S
C750 C748 1.353 . S
C750 C753 1.348 . S
C750 H788 0.929 . S
N751 Li706 1.990 . S
N751 C748 1.314 . S
N751 C749 1.279 . S
C752 C749 1.358 . S
C752 C753 1.356 . S
C752 H789 0.930 . S
C753 C750 1.348 . S
C753 C752 1.356 . S
H754 C748 0.930 . S
H755 C749 0.930 . S
C756 N757 1.314 . S
C756 C758 1.353 . S
C756 H762 0.930 . S
N757 Li707 1.990 . S
N757 C756 1.314 . S
N757 C760 1.279 . S
C758 C756 1.353 . S
C758 C761 1.348 . S
C758 H790 0.929 . S
C759 C760 1.358 . S
C759 C761 1.356 . S
C759 H791 0.930 . S
C760 N757 1.279 . S
C760 C759 1.358 . S
C760 H763 0.930 . S
C761 C758 1.348 . S
C761 C759 1.356 . S
H762 C756 0.930 . S
H763 C760 0.930 . S
O764 Li704 1.956 . S
O764 Li705 1.970 . S
O764 Li706 1.961 . S
O764 C708 1.325 . S
O765 Li704 1.970 . S
O765 Li705 1.956 . S
O765 Li707 1.961 . S
O765 C714 1.325 . S
O766 Li704 1.961 . S
O766 Li706 1.956 . S
O766 Li707 1.970 . S
O766 C736 1.325 . S
O767 Li705 1.961 . S
O767 Li706 1.970 . S
O767 Li707 1.956 . S
O767 C742 1.325 . S
H768 C710 0.929 . S
H769 C711 0.930 . S
H770 C712 0.930 . S
H771 C713 0.930 . S
H772 C715 0.930 . S
H773 C717 0.929 . S
H774 C718 0.930 . S
H775 C719 0.930 . S
H776 C722 0.930 . S
H777 C725 0.929 . S
H778 C730 0.929 . S
H779 C731 0.930 . S
H780 C738 0.929 . S
H781 C739 0.930 . S
H782 C740 0.930 . S
H783 C741 0.930 . S
H784 C743 0.929 . S
H785 C744 0.930 . S
H786 C745 0.930 . S
H787 C746 0.930 . S
H788 C750 0.929 . S
H789 C752 0.930 . S
H790 C758 0.929 . S
H791 C759 0.930 . S
Li792 N809 1.990 . S
Li792 O852 1.956 . S
Li792 O853 1.970 . S
Li792 O854 1.961 . S
Li793 N817 1.990 . S
Li793 O852 1.970 . S
Li793 O853 1.956 . S
Li793 O855 1.961 . S
Li794 N839 1.990 . S
Li794 O852 1.961 . S
Li794 O854 1.956 . S
Li794 O855 1.970 . S
Li795 N845 1.990 . S
Li795 O853 1.961 . S
Li795 O854 1.970 . S
Li795 O855 1.956 . S
C796 C798 1.348 . S
C796 C799 1.356 . S
C796 O852 1.325 . S
N797 C800 1.314 . S
N797 C801 1.279 . S
C798 C796 1.348 . S
C798 C800 1.353 . S
C798 H856 0.929 . S
C799 C796 1.356 . S
C799 C801 1.358 . S
C799 H857 0.930 . S
C800 N797 1.314 . S
C800 C798 1.353 . S
C800 H858 0.930 . S
C801 N797 1.279 . S
C801 C799 1.358 . S
C801 H859 0.930 . S
C802 C805 1.348 . S
C802 C806 1.356 . S
C802 O853 1.325 . S
C803 N804 1.279 . S
C803 C806 1.358 . S
C803 H860 0.930 . S
N804 C803 1.279 . S
N804 C807 1.314 . S
C805 C802 1.348 . S
C805 C807 1.353 . S
C805 H861 0.929 . S
C806 C802 1.356 . S
C806 C803 1.358 . S
C806 H862 0.930 . S
C807 N804 1.314 . S
C807 C805 1.353 . S
C807 H863 0.930 . S
C808 N809 1.314 . S
C808 C813 1.353 . S
C808 H814 0.930 . S
N809 Li792 1.990 . S
N809 C808 1.314 . S
N809 C811 1.279 . S
C810 C811 1.358 . S
C810 C812 1.356 . S
C810 H864 0.930 . S
C811 N809 1.279 . S
C811 C810 1.358 . S
C811 H815 0.930 . S
C812 C810 1.356 . S
C812 C813 1.348 . S
C813 C808 1.353 . S
C813 C812 1.348 . S
C813 H865 0.929 . S
H814 C808 0.930 . S
H815 C811 0.930 . S
C816 N817 1.314 . S
C816 C818 1.353 . S
C816 H822 0.930 . S
N817 Li793 1.990 . S
N817 C816 1.314 . S
N817 C820 1.279 . S
C818 C816 1.353 . S
C818 C821 1.348 . S
C818 H866 0.929 . S
C819 C820 1.358 . S
C819 C821 1.356 . S
C819 H867 0.930 . S
C820 N817 1.279 . S
C820 C819 1.358 . S
C820 H823 0.930 . S
C821 C818 1.348 . S
C821 C819 1.356 . S
H822 C816 0.930 . S
H823 C820 0.930 . S
C824 C826 1.348 . S
C824 C827 1.356 . S
C824 O854 1.325 . S
N825 C828 1.314 . S
N825 C829 1.279 . S
C826 C824 1.348 . S
C826 C828 1.353 . S
C826 H868 0.929 . S
C827 C824 1.356 . S
C827 C829 1.358 . S
C827 H869 0.930 . S
C828 N825 1.314 . S
C828 C826 1.353 . S
C828 H870 0.930 . S
C829 N825 1.279 . S
C829 C827 1.358 . S
C829 H871 0.930 . S
C830 C831 1.348 . S
C830 C832 1.356 . S
C830 O855 1.325 . S
C831 C830 1.348 . S
C831 C833 1.353 . S
C831 H872 0.929 . S
C832 C830 1.356 . S
C832 C834 1.358 . S
C832 H873 0.930 . S
C833 C831 1.353 . S
C833 N835 1.314 . S
C833 H874 0.930 . S
C834 C832 1.358 . S
C834 N835 1.279 . S
C834 H875 0.930 . S
N835 C833 1.314 . S
N835 C834 1.279 . S
C836 C838 1.353 . S
C836 N839 1.314 . S
C836 H842 0.930 . S
C837 N839 1.279 . S
C837 C840 1.358 . S
C837 H843 0.930 . S
C838 C836 1.353 . S
C838 C841 1.348 . S
C838 H876 0.929 . S
N839 Li794 1.990 . S
N839 C836 1.314 . S
N839 C837 1.279 . S
C840 C837 1.358 . S
C840 C841 1.356 . S
C840 H877 0.930 . S
C841 C838 1.348 . S
C841 C840 1.356 . S
H842 C836 0.930 . S
H843 C837 0.930 . S
C844 N845 1.314 . S
C844 C846 1.353 . S
C844 H850 0.930 . S
N845 Li795 1.990 . S
N845 C844 1.314 . S
N845 C848 1.279 . S
C846 C844 1.353 . S
C846 C849 1.348 . S
C846 H878 0.929 . S
C847 C848 1.358 . S
C847 C849 1.356 . S
C847 H879 0.930 . S
C848 N845 1.279 . S
C848 C847 1.358 . S
C848 H851 0.930 . S
C849 C846 1.348 . S
C849 C847 1.356 . S
H850 C844 0.930 . S
H851 C848 0.930 . S
O852 Li792 1.956 . S
O852 Li793 1.970 . S
O852 Li794 1.961 . S
O852 C796 1.325 . S
O853 Li792 1.970 . S
O853 Li793 1.956 . S
O853 Li795 1.961 . S
O853 C802 1.325 . S
O854 Li792 1.961 . S
O854 Li794 1.956 . S
O854 Li795 1.970 . S
O854 C824 1.325 . S
O855 Li793 1.961 . S
O855 Li794 1.970 . S
O855 Li795 1.956 . S
O855 C830 1.325 . S
H856 C798 0.929 . S
H857 C799 0.930 . S
H858 C800 0.930 . S
H859 C801 0.930 . S
H860 C803 0.930 . S
H861 C805 0.929 . S
H862 C806 0.930 . S
H863 C807 0.930 . S
H864 C810 0.930 . S
H865 C813 0.929 . S
H866 C818 0.929 . S
H867 C819 0.930 . S
H868 C826 0.929 . S
H869 C827 0.930 . S
H870 C828 0.930 . S
H871 C829 0.930 . S
H872 C831 0.929 . S
H873 C832 0.930 . S
H874 C833 0.930 . S
H875 C834 0.930 . S
H876 C838 0.929 . S
H877 C840 0.930 . S
H878 C846 0.929 . S
H879 C847 0.930 . S
Li880 N897 1.990 . S
Li880 O940 1.956 . S
Li880 O941 1.970 . S
Li880 O942 1.961 . S
Li881 N905 1.990 . S
Li881 O940 1.970 . S
Li881 O941 1.956 . S
Li881 O943 1.961 . S
Li882 N927 1.990 . S
Li882 O940 1.961 . S
Li882 O942 1.956 . S
Li882 O943 1.970 . S
Li883 N933 1.990 . S
Li883 O941 1.961 . S
Li883 O942 1.970 . S
Li883 O943 1.956 . S
C884 C886 1.348 . S
C884 C887 1.356 . S
C884 O940 1.325 . S
N885 C888 1.314 . S
N885 C889 1.279 . S
C886 C884 1.348 . S
C886 C888 1.353 . S
C886 H944 0.929 . S
C887 C884 1.356 . S
C887 C889 1.358 . S
C887 H945 0.930 . S
C888 N885 1.314 . S
C888 C886 1.353 . S
C888 H946 0.930 . S
C889 N885 1.279 . S
C889 C887 1.358 . S
C889 H947 0.930 . S
C890 C893 1.348 . S
C890 C894 1.356 . S
C890 O941 1.325 . S
C891 N892 1.279 . S
C891 C894 1.358 . S
C891 H948 0.930 . S
N892 C891 1.279 . S
N892 C895 1.314 . S
C893 C890 1.348 . S
C893 C895 1.353 . S
C893 H949 0.929 . S
C894 C890 1.356 . S
C894 C891 1.358 . S
C894 H950 0.930 . S
C895 N892 1.314 . S
C895 C893 1.353 . S
C895 H951 0.930 . S
C896 N897 1.314 . S
C896 C901 1.353 . S
C896 H902 0.930 . S
N897 Li880 1.990 . S
N897 C896 1.314 . S
N897 C899 1.279 . S
C898 C899 1.358 . S
C898 C900 1.356 . S
C898 H952 0.930 . S
C899 N897 1.279 . S
C899 C898 1.358 . S
C899 H903 0.930 . S
C900 C898 1.356 . S
C900 C901 1.348 . S
C901 C896 1.353 . S
C901 C900 1.348 . S
C901 H953 0.929 . S
H902 C896 0.930 . S
H903 C899 0.930 . S
C904 N905 1.314 . S
C904 C906 1.353 . S
C904 H910 0.930 . S
N905 Li881 1.990 . S
N905 C904 1.314 . S
N905 C908 1.279 . S
C906 C904 1.353 . S
C906 C909 1.348 . S
C906 H954 0.929 . S
C907 C908 1.358 . S
C907 C909 1.356 . S
C907 H955 0.930 . S
C908 N905 1.279 . S
C908 C907 1.358 . S
C908 H911 0.930 . S
C909 C906 1.348 . S
C909 C907 1.356 . S
H910 C904 0.930 . S
H911 C908 0.930 . S
C912 C914 1.348 . S
C912 C915 1.356 . S
C912 O942 1.325 . S
N913 C916 1.314 . S
N913 C917 1.279 . S
C914 C912 1.348 . S
C914 C916 1.353 . S
C914 H956 0.929 . S
C915 C912 1.356 . S
C915 C917 1.358 . S
C915 H957 0.930 . S
C916 N913 1.314 . S
C916 C914 1.353 . S
C916 H958 0.930 . S
C917 N913 1.279 . S
C917 C915 1.358 . S
C917 H959 0.930 . S
C918 C919 1.348 . S
C918 C920 1.356 . S
C918 O943 1.325 . S
C919 C918 1.348 . S
C919 C921 1.353 . S
C919 H960 0.929 . S
C920 C918 1.356 . S
C920 C922 1.358 . S
C920 H961 0.930 . S
C921 C919 1.353 . S
C921 N923 1.314 . S
C921 H962 0.930 . S
C922 C920 1.358 . S
C922 N923 1.279 . S
C922 H963 0.930 . S
N923 C921 1.314 . S
N923 C922 1.279 . S
C924 C926 1.353 . S
C924 N927 1.314 . S
C924 H930 0.930 . S
C925 N927 1.279 . S
C925 C928 1.358 . S
C925 H931 0.930 . S
C926 C924 1.353 . S
C926 C929 1.348 . S
C926 H964 0.929 . S
N927 Li882 1.990 . S
N927 C924 1.314 . S
N927 C925 1.279 . S
C928 C925 1.358 . S
C928 C929 1.356 . S
C928 H965 0.930 . S
C929 C926 1.348 . S
C929 C928 1.356 . S
H930 C924 0.930 . S
H931 C925 0.930 . S
C932 N933 1.314 . S
C932 C934 1.353 . S
C932 H938 0.930 . S
N933 Li883 1.990 . S
N933 C932 1.314 . S
N933 C936 1.279 . S
C934 C932 1.353 . S
C934 C937 1.348 . S
C934 H966 0.929 . S
C935 C936 1.358 . S
C935 C937 1.356 . S
C935 H967 0.930 . S
C936 N933 1.279 . S
C936 C935 1.358 . S
C936 H939 0.930 . S
C937 C934 1.348 . S
C937 C935 1.356 . S
H938 C932 0.930 . S
H939 C936 0.930 . S
O940 Li880 1.956 . S
O940 Li881 1.970 . S
O940 Li882 1.961 . S
O940 C884 1.325 . S
O941 Li880 1.970 . S
O941 Li881 1.956 . S
O941 Li883 1.961 . S
O941 C890 1.325 . S
O942 Li880 1.961 . S
O942 Li882 1.956 . S
O942 Li883 1.970 . S
O942 C912 1.325 . S
O943 Li881 1.961 . S
O943 Li882 1.970 . S
O943 Li883 1.956 . S
O943 C918 1.325 . S
H944 C886 0.929 . S
H945 C887 0.930 . S
H946 C888 0.930 . S
H947 C889 0.930 . S
H948 C891 0.930 . S
H949 C893 0.929 . S
H950 C894 0.930 . S
H951 C895 0.930 . S
H952 C898 0.930 . S
H953 C901 0.929 . S
H954 C906 0.929 . S
H955 C907 0.930 . S
H956 C914 0.929 . S
H957 C915 0.930 . S
H958 C916 0.930 . S
H959 C917 0.930 . S
H960 C919 0.929 . S
H961 C920 0.930 . S
H962 C921 0.930 . S
H963 C922 0.930 . S
H964 C926 0.929 . S
H965 C928 0.930 . S
H966 C934 0.929 . S
H967 C935 0.930 . S
Li968 N985 1.990 . S
Li968 O1028 1.956 . S
Li968 O1029 1.970 . S
Li968 O1030 1.961 . S
Li969 N993 1.990 . S
Li969 O1028 1.970 . S
Li969 O1029 1.956 . S
Li969 O1031 1.961 . S
Li970 N1015 1.990 . S
Li970 O1028 1.961 . S
Li970 O1030 1.956 . S
Li970 O1031 1.970 . S
Li971 N1021 1.990 . S
Li971 O1029 1.961 . S
Li971 O1030 1.970 . S
Li971 O1031 1.956 . S
C972 C974 1.348 . S
C972 C975 1.356 . S
C972 O1028 1.325 . S
N973 C976 1.314 . S
N973 C977 1.279 . S
C974 C972 1.348 . S
C974 C976 1.353 . S
C974 H1032 0.929 . S
C975 C972 1.356 . S
C975 C977 1.358 . S
C975 H1033 0.930 . S
C976 N973 1.314 . S
C976 C974 1.353 . S
C976 H1034 0.930 . S
C977 N973 1.279 . S
C977 C975 1.358 . S
C977 H1035 0.930 . S
C978 C981 1.348 . S
C978 C982 1.356 . S
C978 O1029 1.325 . S
C979 N980 1.279 . S
C979 C982 1.358 . S
C979 H1036 0.930 . S
N980 C979 1.279 . S
N980 C983 1.314 . S
C981 C978 1.348 . S
C981 C983 1.353 . S
C981 H1037 0.929 . S
C982 C978 1.356 . S
C982 C979 1.358 . S
C982 H1038 0.930 . S
C983 N980 1.314 . S
C983 C981 1.353 . S
C983 H1039 0.930 . S
C984 N985 1.314 . S
C984 C989 1.353 . S
C984 H990 0.930 . S
N985 Li968 1.990 . S
N985 C984 1.314 . S
N985 C987 1.279 . S
C986 C987 1.358 . S
C986 C988 1.356 . S
C986 H1040 0.930 . S
C987 N985 1.279 . S
C987 C986 1.358 . S
C987 H991 0.930 . S
C988 C986 1.356 . S
C988 C989 1.348 . S
C989 C984 1.353 . S
C989 C988 1.348 . S
C989 H1041 0.929 . S
H990 C984 0.930 . S
H991 C987 0.930 . S
C992 N993 1.314 . S
C992 C994 1.353 . S
C992 H998 0.930 . S
N993 Li969 1.990 . S
N993 C992 1.314 . S
N993 C996 1.279 . S
C994 C992 1.353 . S
C994 C997 1.348 . S
C994 H1042 0.929 . S
C995 C996 1.358 . S
C995 C997 1.356 . S
C995 H1043 0.930 . S
C996 N993 1.279 . S
C996 C995 1.358 . S
C996 H999 0.930 . S
C997 C994 1.348 . S
C997 C995 1.356 . S
H998 C992 0.930 . S
H999 C996 0.930 . S
C1000 C1002 1.348 . S
C1000 C1003 1.356 . S
C1000 O1030 1.325 . S
N1001 C1004 1.314 . S
N1001 C1005 1.279 . S
C1002 C1000 1.348 . S
C1002 C1004 1.353 . S
C1002 H1044 0.929 . S
C1003 C1000 1.356 . S
C1003 C1005 1.358 . S
C1003 H1045 0.930 . S
C1004 N1001 1.314 . S
C1004 C1002 1.353 . S
C1004 H1046 0.930 . S
C1005 N1001 1.279 . S
C1005 C1003 1.358 . S
C1005 H1047 0.930 . S
C1006 C1007 1.348 . S
C1006 C1008 1.356 . S
C1006 O1031 1.325 . S
C1007 C1006 1.348 . S
C1007 C1009 1.353 . S
C1007 H1048 0.929 . S
C1008 C1006 1.356 . S
C1008 C1010 1.358 . S
C1008 H1049 0.930 . S
C1009 C1007 1.353 . S
C1009 N1011 1.314 . S
C1009 H1050 0.930 . S
C1010 C1008 1.358 . S
C1010 N1011 1.279 . S
C1010 H1051 0.930 . S
N1011 C1009 1.314 . S
N1011 C1010 1.279 . S
C1012 C1014 1.353 . S
C1012 N1015 1.314 . S
C1012 H1018 0.930 . S
C1013 N1015 1.279 . S
C1013 C1016 1.358 . S
C1013 H1019 0.930 . S
C1014 C1012 1.353 . S
C1014 C1017 1.348 . S
C1014 H1052 0.929 . S
N1015 Li970 1.990 . S
N1015 C1012 1.314 . S
N1015 C1013 1.279 . S
C1016 C1013 1.358 . S
C1016 C1017 1.356 . S
C1016 H1053 0.930 . S
C1017 C1014 1.348 . S
C1017 C1016 1.356 . S
H1018 C1012 0.930 . S
H1019 C1013 0.930 . S
C1020 N1021 1.314 . S
C1020 C1022 1.353 . S
C1020 H1026 0.930 . S
N1021 Li971 1.990 . S
N1021 C1020 1.314 . S
N1021 C1024 1.279 . S
C1022 C1020 1.353 . S
C1022 C1025 1.348 . S
C1022 H1054 0.929 . S
C1023 C1024 1.358 . S
C1023 C1025 1.356 . S
C1023 H1055 0.930 . S
C1024 N1021 1.279 . S
C1024 C1023 1.358 . S
C1024 H1027 0.930 . S
C1025 C1022 1.348 . S
C1025 C1023 1.356 . S
H1026 C1020 0.930 . S
H1027 C1024 0.930 . S
O1028 Li968 1.956 . S
O1028 Li969 1.970 . S
O1028 Li970 1.961 . S
O1028 C972 1.325 . S
O1029 Li968 1.970 . S
O1029 Li969 1.956 . S
O1029 Li971 1.961 . S
O1029 C978 1.325 . S
O1030 Li968 1.961 . S
O1030 Li970 1.956 . S
O1030 Li971 1.970 . S
O1030 C1000 1.325 . S
O1031 Li969 1.961 . S
O1031 Li970 1.970 . S
O1031 Li971 1.956 . S
O1031 C1006 1.325 . S
H1032 C974 0.929 . S
H1033 C975 0.930 . S
H1034 C976 0.930 . S
H1035 C977 0.930 . S
H1036 C979 0.930 . S
H1037 C981 0.929 . S
H1038 C982 0.930 . S
H1039 C983 0.930 . S
H1040 C986 0.930 . S
H1041 C989 0.929 . S
H1042 C994 0.929 . S
H1043 C995 0.930 . S
H1044 C1002 0.929 . S
H1045 C1003 0.930 . S
H1046 C1004 0.930 . S
H1047 C1005 0.930 . S
H1048 C1007 0.929 . S
H1049 C1008 0.930 . S
H1050 C1009 0.930 . S
H1051 C1010 0.930 . S
H1052 C1014 0.929 . S
H1053 C1016 0.930 . S
H1054 C1022 0.929 . S
H1055 C1023 0.930 . S
Li1056 N1073 1.990 . S
Li1056 O1116 1.956 . S
Li1056 O1117 1.970 . S
Li1056 O1118 1.961 . S
Li1057 N1081 1.990 . S
Li1057 O1116 1.970 . S
Li1057 O1117 1.956 . S
Li1057 O1119 1.961 . S
Li1058 N1103 1.990 . S
Li1058 O1116 1.961 . S
Li1058 O1118 1.956 . S
Li1058 O1119 1.970 . S
Li1059 N1109 1.990 . S
Li1059 O1117 1.961 . S
Li1059 O1118 1.970 . S
Li1059 O1119 1.956 . S
C1060 C1062 1.348 . S
C1060 C1063 1.356 . S
C1060 O1116 1.325 . S
N1061 C1064 1.314 . S
N1061 C1065 1.279 . S
C1062 C1060 1.348 . S
C1062 C1064 1.353 . S
C1062 H1120 0.929 . S
C1063 C1060 1.356 . S
C1063 C1065 1.358 . S
C1063 H1121 0.930 . S
C1064 N1061 1.314 . S
C1064 C1062 1.353 . S
C1064 H1122 0.930 . S
C1065 N1061 1.279 . S
C1065 C1063 1.358 . S
C1065 H1123 0.930 . S
C1066 C1069 1.348 . S
C1066 C1070 1.356 . S
C1066 O1117 1.325 . S
C1067 N1068 1.279 . S
C1067 C1070 1.358 . S
C1067 H1124 0.930 . S
N1068 C1067 1.279 . S
N1068 C1071 1.314 . S
C1069 C1066 1.348 . S
C1069 C1071 1.353 . S
C1069 H1125 0.929 . S
C1070 C1066 1.356 . S
C1070 C1067 1.358 . S
C1070 H1126 0.930 . S
C1071 N1068 1.314 . S
C1071 C1069 1.353 . S
C1071 H1127 0.930 . S
C1072 N1073 1.314 . S
C1072 C1077 1.353 . S
C1072 H1078 0.930 . S
N1073 Li1056 1.990 . S
N1073 C1072 1.314 . S
N1073 C1075 1.279 . S
C1074 C1075 1.358 . S
C1074 C1076 1.356 . S
C1074 H1128 0.930 . S
C1075 N1073 1.279 . S
C1075 C1074 1.358 . S
C1075 H1079 0.930 . S
C1076 C1074 1.356 . S
C1076 C1077 1.348 . S
C1077 C1072 1.353 . S
C1077 C1076 1.348 . S
C1077 H1129 0.929 . S
H1078 C1072 0.930 . S
H1079 C1075 0.930 . S
C1080 N1081 1.314 . S
C1080 C1082 1.353 . S
C1080 H1086 0.930 . S
N1081 Li1057 1.990 . S
N1081 C1080 1.314 . S
N1081 C1084 1.279 . S
C1082 C1080 1.353 . S
C1082 C1085 1.348 . S
C1082 H1130 0.929 . S
C1083 C1084 1.358 . S
C1083 C1085 1.356 . S
C1083 H1131 0.930 . S
C1084 N1081 1.279 . S
C1084 C1083 1.358 . S
C1084 H1087 0.930 . S
C1085 C1082 1.348 . S
C1085 C1083 1.356 . S
H1086 C1080 0.930 . S
H1087 C1084 0.930 . S
C1088 C1090 1.348 . S
C1088 C1091 1.356 . S
C1088 O1118 1.325 . S
N1089 C1092 1.314 . S
N1089 C1093 1.279 . S
C1090 C1088 1.348 . S
C1090 C1092 1.353 . S
C1090 H1132 0.929 . S
C1091 C1088 1.356 . S
C1091 C1093 1.358 . S
C1091 H1133 0.930 . S
C1092 N1089 1.314 . S
C1092 C1090 1.353 . S
C1092 H1134 0.930 . S
C1093 N1089 1.279 . S
C1093 C1091 1.358 . S
C1093 H1135 0.930 . S
C1094 C1095 1.348 . S
C1094 C1096 1.356 . S
C1094 O1119 1.325 . S
C1095 C1094 1.348 . S
C1095 C1097 1.353 . S
C1095 H1136 0.929 . S
C1096 C1094 1.356 . S
C1096 C1098 1.358 . S
C1096 H1137 0.930 . S
C1097 C1095 1.353 . S
C1097 N1099 1.314 . S
C1097 H1138 0.930 . S
C1098 C1096 1.358 . S
C1098 N1099 1.279 . S
C1098 H1139 0.930 . S
N1099 C1097 1.314 . S
N1099 C1098 1.279 . S
C1100 C1102 1.353 . S
C1100 N1103 1.314 . S
C1100 H1106 0.930 . S
C1101 N1103 1.279 . S
C1101 C1104 1.358 . S
C1101 H1107 0.930 . S
C1102 C1100 1.353 . S
C1102 C1105 1.348 . S
C1102 H1140 0.929 . S
N1103 Li1058 1.990 . S
N1103 C1100 1.314 . S
N1103 C1101 1.279 . S
C1104 C1101 1.358 . S
C1104 C1105 1.356 . S
C1104 H1141 0.930 . S
C1105 C1102 1.348 . S
C1105 C1104 1.356 . S
H1106 C1100 0.930 . S
H1107 C1101 0.930 . S
C1108 N1109 1.314 . S
C1108 C1110 1.353 . S
C1108 H1114 0.930 . S
N1109 Li1059 1.990 . S
N1109 C1108 1.314 . S
N1109 C1112 1.279 . S
C1110 C1108 1.353 . S
C1110 C1113 1.348 . S
C1110 H1142 0.929 . S
C1111 C1112 1.358 . S
C1111 C1113 1.356 . S
C1111 H1143 0.930 . S
C1112 N1109 1.279 . S
C1112 C1111 1.358 . S
C1112 H1115 0.930 . S
C1113 C1110 1.348 . S
C1113 C1111 1.356 . S
H1114 C1108 0.930 . S
H1115 C1112 0.930 . S
O1116 Li1056 1.956 . S
O1116 Li1057 1.970 . S
O1116 Li1058 1.961 . S
O1116 C1060 1.325 . S
O1117 Li1056 1.970 . S
O1117 Li1057 1.956 . S
O1117 Li1059 1.961 . S
O1117 C1066 1.325 . S
O1118 Li1056 1.961 . S
O1118 Li1058 1.956 . S
O1118 Li1059 1.970 . S
O1118 C1088 1.325 . S
O1119 Li1057 1.961 . S
O1119 Li1058 1.970 . S
O1119 Li1059 1.956 . S
O1119 C1094 1.325 . S
H1120 C1062 0.929 . S
H1121 C1063 0.930 . S
H1122 C1064 0.930 . S
H1123 C1065 0.930 . S
H1124 C1067 0.930 . S
H1125 C1069 0.929 . S
H1126 C1070 0.930 . S
H1127 C1071 0.930 . S
H1128 C1074 0.930 . S
H1129 C1077 0.929 . S
H1130 C1082 0.929 . S
H1131 C1083 0.930 . S
H1132 C1090 0.929 . S
H1133 C1091 0.930 . S
H1134 C1092 0.930 . S
H1135 C1093 0.930 . S
H1136 C1095 0.929 . S
H1137 C1096 0.930 . S
H1138 C1097 0.930 . S
H1139 C1098 0.930 . S
H1140 C1102 0.929 . S
H1141 C1104 0.930 . S
H1142 C1110 0.929 . S
H1143 C1111 0.930 . S
Li1144 N1161 1.990 . S
Li1144 O1204 1.956 . S
Li1144 O1205 1.970 . S
Li1144 O1206 1.961 . S
Li1145 N1169 1.990 . S
Li1145 O1204 1.970 . S
Li1145 O1205 1.956 . S
Li1145 O1207 1.961 . S
Li1146 N1191 1.990 . S
Li1146 O1204 1.961 . S
Li1146 O1206 1.956 . S
Li1146 O1207 1.970 . S
Li1147 N1197 1.990 . S
Li1147 O1205 1.961 . S
Li1147 O1206 1.970 . S
Li1147 O1207 1.956 . S
C1148 C1150 1.348 . S
C1148 C1151 1.356 . S
C1148 O1204 1.325 . S
N1149 C1152 1.314 . S
N1149 C1153 1.279 . S
C1150 C1148 1.348 . S
C1150 C1152 1.353 . S
C1150 H1208 0.929 . S
C1151 C1148 1.356 . S
C1151 C1153 1.358 . S
C1151 H1209 0.930 . S
C1152 N1149 1.314 . S
C1152 C1150 1.353 . S
C1152 H1210 0.930 . S
C1153 N1149 1.279 . S
C1153 C1151 1.358 . S
C1153 H1211 0.930 . S
C1154 C1157 1.348 . S
C1154 C1158 1.356 . S
C1154 O1205 1.325 . S
C1155 N1156 1.279 . S
C1155 C1158 1.358 . S
C1155 H1212 0.930 . S
N1156 C1155 1.279 . S
N1156 C1159 1.314 . S
C1157 C1154 1.348 . S
C1157 C1159 1.353 . S
C1157 H1213 0.929 . S
C1158 C1154 1.356 . S
C1158 C1155 1.358 . S
C1158 H1214 0.930 . S
C1159 N1156 1.314 . S
C1159 C1157 1.353 . S
C1159 H1215 0.930 . S
C1160 N1161 1.314 . S
C1160 C1165 1.353 . S
C1160 H1166 0.930 . S
N1161 Li1144 1.990 . S
N1161 C1160 1.314 . S
N1161 C1163 1.279 . S
C1162 C1163 1.358 . S
C1162 C1164 1.356 . S
C1162 H1216 0.930 . S
C1163 N1161 1.279 . S
C1163 C1162 1.358 . S
C1163 H1167 0.930 . S
C1164 C1162 1.356 . S
C1164 C1165 1.348 . S
C1165 C1160 1.353 . S
C1165 C1164 1.348 . S
C1165 H1217 0.929 . S
H1166 C1160 0.930 . S
H1167 C1163 0.930 . S
C1168 N1169 1.314 . S
C1168 C1170 1.353 . S
C1168 H1174 0.930 . S
N1169 Li1145 1.990 . S
N1169 C1168 1.314 . S
N1169 C1172 1.279 . S
C1170 C1168 1.353 . S
C1170 C1173 1.348 . S
C1170 H1218 0.929 . S
C1171 C1172 1.358 . S
C1171 C1173 1.356 . S
C1171 H1219 0.930 . S
C1172 N1169 1.279 . S
C1172 C1171 1.358 . S
C1172 H1175 0.930 . S
C1173 C1170 1.348 . S
C1173 C1171 1.356 . S
H1174 C1168 0.930 . S
H1175 C1172 0.930 . S
C1176 C1178 1.348 . S
C1176 C1179 1.356 . S
C1176 O1206 1.325 . S
N1177 C1180 1.314 . S
N1177 C1181 1.279 . S
C1178 C1176 1.348 . S
C1178 C1180 1.353 . S
C1178 H1220 0.929 . S
C1179 C1176 1.356 . S
C1179 C1181 1.358 . S
C1179 H1221 0.930 . S
C1180 N1177 1.314 . S
C1180 C1178 1.353 . S
C1180 H1222 0.930 . S
C1181 N1177 1.279 . S
C1181 C1179 1.358 . S
C1181 H1223 0.930 . S
C1182 C1183 1.348 . S
C1182 C1184 1.356 . S
C1182 O1207 1.325 . S
C1183 C1182 1.348 . S
C1183 C1185 1.353 . S
C1183 H1224 0.929 . S
C1184 C1182 1.356 . S
C1184 C1186 1.358 . S
C1184 H1225 0.930 . S
C1185 C1183 1.353 . S
C1185 N1187 1.314 . S
C1185 H1226 0.930 . S
C1186 C1184 1.358 . S
C1186 N1187 1.279 . S
C1186 H1227 0.930 . S
N1187 C1185 1.314 . S
N1187 C1186 1.279 . S
C1188 C1190 1.353 . S
C1188 N1191 1.314 . S
C1188 H1194 0.930 . S
C1189 N1191 1.279 . S
C1189 C1192 1.358 . S
C1189 H1195 0.930 . S
C1190 C1188 1.353 . S
C1190 C1193 1.348 . S
C1190 H1228 0.929 . S
N1191 Li1146 1.990 . S
N1191 C1188 1.314 . S
N1191 C1189 1.279 . S
C1192 C1189 1.358 . S
C1192 C1193 1.356 . S
C1192 H1229 0.930 . S
C1193 C1190 1.348 . S
C1193 C1192 1.356 . S
H1194 C1188 0.930 . S
H1195 C1189 0.930 . S
C1196 N1197 1.314 . S
C1196 C1198 1.353 . S
C1196 H1202 0.930 . S
N1197 Li1147 1.990 . S
N1197 C1196 1.314 . S
N1197 C1200 1.279 . S
C1198 C1196 1.353 . S
C1198 C1201 1.348 . S
C1198 H1230 0.929 . S
C1199 C1200 1.358 . S
C1199 C1201 1.356 . S
C1199 H1231 0.930 . S
C1200 N1197 1.279 . S
C1200 C1199 1.358 . S
C1200 H1203 0.930 . S
C1201 C1198 1.348 . S
C1201 C1199 1.356 . S
H1202 C1196 0.930 . S
H1203 C1200 0.930 . S
O1204 Li1144 1.956 . S
O1204 Li1145 1.970 . S
O1204 Li1146 1.961 . S
O1204 C1148 1.325 . S
O1205 Li1144 1.970 . S
O1205 Li1145 1.956 . S
O1205 Li1147 1.961 . S
O1205 C1154 1.325 . S
O1206 Li1144 1.961 . S
O1206 Li1146 1.956 . S
O1206 Li1147 1.970 . S
O1206 C1176 1.325 . S
O1207 Li1145 1.961 . S
O1207 Li1146 1.970 . S
O1207 Li1147 1.956 . S
O1207 C1182 1.325 . S
H1208 C1150 0.929 . S
H1209 C1151 0.930 . S
H1210 C1152 0.930 . S
H1211 C1153 0.930 . S
H1212 C1155 0.930 . S
H1213 C1157 0.929 . S
H1214 C1158 0.930 . S
H1215 C1159 0.930 . S
H1216 C1162 0.930 . S
H1217 C1165 0.929 . S
H1218 C1170 0.929 . S
H1219 C1171 0.930 . S
H1220 C1178 0.929 . S
H1221 C1179 0.930 . S
H1222 C1180 0.930 . S
H1223 C1181 0.930 . S
H1224 C1183 0.929 . S
H1225 C1184 0.930 . S
H1226 C1185 0.930 . S
H1227 C1186 0.930 . S
H1228 C1190 0.929 . S
H1229 C1192 0.930 . S
H1230 C1198 0.929 . S
H1231 C1199 0.930 . S
Li1232 N1249 1.990 . S
Li1232 O1292 1.956 . S
Li1232 O1293 1.970 . S
Li1232 O1294 1.961 . S
Li1233 N1257 1.990 . S
Li1233 O1292 1.970 . S
Li1233 O1293 1.956 . S
Li1233 O1295 1.961 . S
Li1234 N1279 1.990 . S
Li1234 O1292 1.961 . S
Li1234 O1294 1.956 . S
Li1234 O1295 1.970 . S
Li1235 N1285 1.990 . S
Li1235 O1293 1.961 . S
Li1235 O1294 1.970 . S
Li1235 O1295 1.956 . S
C1236 C1238 1.348 . S
C1236 C1239 1.356 . S
C1236 O1292 1.325 . S
N1237 C1240 1.314 . S
N1237 C1241 1.279 . S
C1238 C1236 1.348 . S
C1238 C1240 1.353 . S
C1238 H1296 0.929 . S
C1239 C1236 1.356 . S
C1239 C1241 1.358 . S
C1239 H1297 0.930 . S
C1240 N1237 1.314 . S
C1240 C1238 1.353 . S
C1240 H1298 0.930 . S
C1241 N1237 1.279 . S
C1241 C1239 1.358 . S
C1241 H1299 0.930 . S
C1242 C1245 1.348 . S
C1242 C1246 1.356 . S
C1242 O1293 1.325 . S
C1243 N1244 1.279 . S
C1243 C1246 1.358 . S
C1243 H1300 0.930 . S
N1244 C1243 1.279 . S
N1244 C1247 1.314 . S
C1245 C1242 1.348 . S
C1245 C1247 1.353 . S
C1245 H1301 0.929 . S
C1246 C1242 1.356 . S
C1246 C1243 1.358 . S
C1246 H1302 0.930 . S
C1247 N1244 1.314 . S
C1247 C1245 1.353 . S
C1247 H1303 0.930 . S
C1248 N1249 1.314 . S
C1248 C1253 1.353 . S
C1248 H1254 0.930 . S
N1249 Li1232 1.990 . S
N1249 C1248 1.314 . S
N1249 C1251 1.279 . S
C1250 C1251 1.358 . S
C1250 C1252 1.356 . S
C1250 H1304 0.930 . S
C1251 N1249 1.279 . S
C1251 C1250 1.358 . S
C1251 H1255 0.930 . S
C1252 C1250 1.356 . S
C1252 C1253 1.348 . S
C1253 C1248 1.353 . S
C1253 C1252 1.348 . S
C1253 H1305 0.929 . S
H1254 C1248 0.930 . S
H1255 C1251 0.930 . S
C1256 N1257 1.314 . S
C1256 C1258 1.353 . S
C1256 H1262 0.930 . S
N1257 Li1233 1.990 . S
N1257 C1256 1.314 . S
N1257 C1260 1.279 . S
C1258 C1256 1.353 . S
C1258 C1261 1.348 . S
C1258 H1306 0.929 . S
C1259 C1260 1.358 . S
C1259 C1261 1.356 . S
C1259 H1307 0.930 . S
C1260 N1257 1.279 . S
C1260 C1259 1.358 . S
C1260 H1263 0.930 . S
C1261 C1258 1.348 . S
C1261 C1259 1.356 . S
H1262 C1256 0.930 . S
H1263 C1260 0.930 . S
C1264 C1266 1.348 . S
C1264 C1267 1.356 . S
C1264 O1294 1.325 . S
N1265 C1268 1.314 . S
N1265 C1269 1.279 . S
C1266 C1264 1.348 . S
C1266 C1268 1.353 . S
C1266 H1308 0.929 . S
C1267 C1264 1.356 . S
C1267 C1269 1.358 . S
C1267 H1309 0.930 . S
C1268 N1265 1.314 . S
C1268 C1266 1.353 . S
C1268 H1310 0.930 . S
C1269 N1265 1.279 . S
C1269 C1267 1.358 . S
C1269 H1311 0.930 . S
C1270 C1271 1.348 . S
C1270 C1272 1.356 . S
C1270 O1295 1.325 . S
C1271 C1270 1.348 . S
C1271 C1273 1.353 . S
C1271 H1312 0.929 . S
C1272 C1270 1.356 . S
C1272 C1274 1.358 . S
C1272 H1313 0.930 . S
C1273 C1271 1.353 . S
C1273 N1275 1.314 . S
C1273 H1314 0.930 . S
C1274 C1272 1.358 . S
C1274 N1275 1.279 . S
C1274 H1315 0.930 . S
N1275 C1273 1.314 . S
N1275 C1274 1.279 . S
C1276 C1278 1.353 . S
C1276 N1279 1.314 . S
C1276 H1282 0.930 . S
C1277 N1279 1.279 . S
C1277 C1280 1.358 . S
C1277 H1283 0.930 . S
C1278 C1276 1.353 . S
C1278 C1281 1.348 . S
C1278 H1316 0.929 . S
N1279 Li1234 1.990 . S
N1279 C1276 1.314 . S
N1279 C1277 1.279 . S
C1280 C1277 1.358 . S
C1280 C1281 1.356 . S
C1280 H1317 0.930 . S
C1281 C1278 1.348 . S
C1281 C1280 1.356 . S
H1282 C1276 0.930 . S
H1283 C1277 0.930 . S
C1284 N1285 1.314 . S
C1284 C1286 1.353 . S
C1284 H1290 0.930 . S
N1285 Li1235 1.990 . S
N1285 C1284 1.314 . S
N1285 C1288 1.279 . S
C1286 C1284 1.353 . S
C1286 C1289 1.348 . S
C1286 H1318 0.929 . S
C1287 C1288 1.358 . S
C1287 C1289 1.356 . S
C1287 H1319 0.930 . S
C1288 N1285 1.279 . S
C1288 C1287 1.358 . S
C1288 H1291 0.930 . S
C1289 C1286 1.348 . S
C1289 C1287 1.356 . S
H1290 C1284 0.930 . S
H1291 C1288 0.930 . S
O1292 Li1232 1.956 . S
O1292 Li1233 1.970 . S
O1292 Li1234 1.961 . S
O1292 C1236 1.325 . S
O1293 Li1232 1.970 . S
O1293 Li1233 1.956 . S
O1293 Li1235 1.961 . S
O1293 C1242 1.325 . S
O1294 Li1232 1.961 . S
O1294 Li1234 1.956 . S
O1294 Li1235 1.970 . S
O1294 C1264 1.325 . S
O1295 Li1233 1.961 . S
O1295 Li1234 1.970 . S
O1295 Li1235 1.956 . S
O1295 C1270 1.325 . S
H1296 C1238 0.929 . S
H1297 C1239 0.930 . S
H1298 C1240 0.930 . S
H1299 C1241 0.930 . S
H1300 C1243 0.930 . S
H1301 C1245 0.929 . S
H1302 C1246 0.930 . S
H1303 C1247 0.930 . S
H1304 C1250 0.930 . S
H1305 C1253 0.929 . S
H1306 C1258 0.929 . S
H1307 C1259 0.930 . S
H1308 C1266 0.929 . S
H1309 C1267 0.930 . S
H1310 C1268 0.930 . S
H1311 C1269 0.930 . S
H1312 C1271 0.929 . S
H1313 C1272 0.930 . S
H1314 C1273 0.930 . S
H1315 C1274 0.930 . S
H1316 C1278 0.929 . S
H1317 C1280 0.930 . S
H1318 C1286 0.929 . S
H1319 C1287 0.930 . S
Li1320 N1337 1.990 . S
Li1320 O1380 1.956 . S
Li1320 O1381 1.970 . S
Li1320 O1382 1.961 . S
Li1321 N1345 1.990 . S
Li1321 O1380 1.970 . S
Li1321 O1381 1.956 . S
Li1321 O1383 1.961 . S
Li1322 N1367 1.990 . S
Li1322 O1380 1.961 . S
Li1322 O1382 1.956 . S
Li1322 O1383 1.970 . S
Li1323 N1373 1.990 . S
Li1323 O1381 1.961 . S
Li1323 O1382 1.970 . S
Li1323 O1383 1.956 . S
C1324 C1326 1.348 . S
C1324 C1327 1.356 . S
C1324 O1380 1.325 . S
N1325 C1328 1.314 . S
N1325 C1329 1.279 . S
C1326 C1324 1.348 . S
C1326 C1328 1.353 . S
C1326 H1384 0.929 . S
C1327 C1324 1.356 . S
C1327 C1329 1.358 . S
C1327 H1385 0.930 . S
C1328 N1325 1.314 . S
C1328 C1326 1.353 . S
C1328 H1386 0.930 . S
C1329 N1325 1.279 . S
C1329 C1327 1.358 . S
C1329 H1387 0.930 . S
C1330 C1333 1.348 . S
C1330 C1334 1.356 . S
C1330 O1381 1.325 . S
C1331 N1332 1.279 . S
C1331 C1334 1.358 . S
C1331 H1388 0.930 . S
N1332 C1331 1.279 . S
N1332 C1335 1.314 . S
C1333 C1330 1.348 . S
C1333 C1335 1.353 . S
C1333 H1389 0.929 . S
C1334 C1330 1.356 . S
C1334 C1331 1.358 . S
C1334 H1390 0.930 . S
C1335 N1332 1.314 . S
C1335 C1333 1.353 . S
C1335 H1391 0.930 . S
C1336 N1337 1.314 . S
C1336 C1341 1.353 . S
C1336 H1342 0.930 . S
N1337 Li1320 1.990 . S
N1337 C1336 1.314 . S
N1337 C1339 1.279 . S
C1338 C1339 1.358 . S
C1338 C1340 1.356 . S
C1338 H1392 0.930 . S
C1339 N1337 1.279 . S
C1339 C1338 1.358 . S
C1339 H1343 0.930 . S
C1340 C1338 1.356 . S
C1340 C1341 1.348 . S
C1341 C1336 1.353 . S
C1341 C1340 1.348 . S
C1341 H1393 0.929 . S
H1342 C1336 0.930 . S
H1343 C1339 0.930 . S
C1344 N1345 1.314 . S
C1344 C1346 1.353 . S
C1344 H1350 0.930 . S
N1345 Li1321 1.990 . S
N1345 C1344 1.314 . S
N1345 C1348 1.279 . S
C1346 C1344 1.353 . S
C1346 C1349 1.348 . S
C1346 H1394 0.929 . S
C1347 C1348 1.358 . S
C1347 C1349 1.356 . S
C1347 H1395 0.930 . S
C1348 N1345 1.279 . S
C1348 C1347 1.358 . S
C1348 H1351 0.930 . S
C1349 C1346 1.348 . S
C1349 C1347 1.356 . S
H1350 C1344 0.930 . S
H1351 C1348 0.930 . S
C1352 C1354 1.348 . S
C1352 C1355 1.356 . S
C1352 O1382 1.325 . S
N1353 C1356 1.314 . S
N1353 C1357 1.279 . S
C1354 C1352 1.348 . S
C1354 C1356 1.353 . S
C1354 H1396 0.929 . S
C1355 C1352 1.356 . S
C1355 C1357 1.358 . S
C1355 H1397 0.930 . S
C1356 N1353 1.314 . S
C1356 C1354 1.353 . S
C1356 H1398 0.930 . S
C1357 N1353 1.279 . S
C1357 C1355 1.358 . S
C1357 H1399 0.930 . S
C1358 C1359 1.348 . S
C1358 C1360 1.356 . S
C1358 O1383 1.325 . S
C1359 C1358 1.348 . S
C1359 C1361 1.353 . S
C1359 H1400 0.929 . S
C1360 C1358 1.356 . S
C1360 C1362 1.358 . S
C1360 H1401 0.930 . S
C1361 C1359 1.353 . S
C1361 N1363 1.314 . S
C1361 H1402 0.930 . S
C1362 C1360 1.358 . S
C1362 N1363 1.279 . S
C1362 H1403 0.930 . S
N1363 C1361 1.314 . S
N1363 C1362 1.279 . S
C1364 C1366 1.353 . S
C1364 N1367 1.314 . S
C1364 H1370 0.930 . S
C1365 N1367 1.279 . S
C1365 C1368 1.358 . S
C1365 H1371 0.930 . S
C1366 C1364 1.353 . S
C1366 C1369 1.348 . S
C1366 H1404 0.929 . S
N1367 Li1322 1.990 . S
N1367 C1364 1.314 . S
N1367 C1365 1.279 . S
C1368 C1365 1.358 . S
C1368 C1369 1.356 . S
C1368 H1405 0.930 . S
C1369 C1366 1.348 . S
C1369 C1368 1.356 . S
H1370 C1364 0.930 . S
H1371 C1365 0.930 . S
C1372 N1373 1.314 . S
C1372 C1374 1.353 . S
C1372 H1378 0.930 . S
N1373 Li1323 1.990 . S
N1373 C1372 1.314 . S
N1373 C1376 1.279 . S
C1374 C1372 1.353 . S
C1374 C1377 1.348 . S
C1374 H1406 0.929 . S
C1375 C1376 1.358 . S
C1375 C1377 1.356 . S
C1375 H1407 0.930 . S
C1376 N1373 1.279 . S
C1376 C1375 1.358 . S
C1376 H1379 0.930 . S
C1377 C1374 1.348 . S
C1377 C1375 1.356 . S
H1378 C1372 0.930 . S
H1379 C1376 0.930 . S
O1380 Li1320 1.956 . S
O1380 Li1321 1.970 . S
O1380 Li1322 1.961 . S
O1380 C1324 1.325 . S
O1381 Li1320 1.970 . S
O1381 Li1321 1.956 . S
O1381 Li1323 1.961 . S
O1381 C1330 1.325 . S
O1382 Li1320 1.961 . S
O1382 Li1322 1.956 . S
O1382 Li1323 1.970 . S
O1382 C1352 1.325 . S
O1383 Li1321 1.961 . S
O1383 Li1322 1.970 . S
O1383 Li1323 1.956 . S
O1383 C1358 1.325 . S
H1384 C1326 0.929 . S
H1385 C1327 0.930 . S
H1386 C1328 0.930 . S
H1387 C1329 0.930 . S
H1388 C1331 0.930 . S
H1389 C1333 0.929 . S
H1390 C1334 0.930 . S
H1391 C1335 0.930 . S
H1392 C1338 0.930 . S
H1393 C1341 0.929 . S
H1394 C1346 0.929 . S
H1395 C1347 0.930 . S
H1396 C1354 0.929 . S
H1397 C1355 0.930 . S
H1398 C1356 0.930 . S
H1399 C1357 0.930 . S
H1400 C1359 0.929 . S
H1401 C1360 0.930 . S
H1402 C1361 0.930 . S
H1403 C1362 0.930 . S
H1404 C1366 0.929 . S
H1405 C1368 0.930 . S
H1406 C1374 0.929 . S
H1407 C1375 0.930 . S
H1408 C1420 0.930 . S
H1409 C1422 0.930 . S
H1410 C1423 0.930 . S
H1411 C1427 0.959 . S
H1412 C1427 0.959 . S
H1413 C1427 0.961 . S
H1414 C1428 0.960 . S
H1415 C1428 0.961 . S
H1416 C1428 0.959 . S
H1417 C1431 0.929 . S
H1418 C1432 0.931 . S
H1419 C1434 0.930 . S
C1420 H1408 0.930 . S
C1420 C1421 1.399 . S
C1420 C1425 1.399 . S
C1421 C1420 1.399 . S
C1421 C1422 1.376 . S
C1422 H1409 0.930 . S
C1422 C1421 1.376 . S
C1422 C1423 1.388 . S
C1423 H1410 0.930 . S
C1423 C1422 1.388 . S
C1423 C1424 1.390 . S
C1424 C1423 1.390 . S
C1424 C1425 1.394 . S
C1424 C1430 1.465 . S
C1425 C1420 1.399 . S
C1425 C1424 1.394 . S
C1425 C1426 1.516 . S
C1426 C1425 1.516 . S
C1426 C1427 1.502 . S
C1426 C1428 1.561 . S
C1426 C1429 1.526 . S
C1427 H1411 0.959 . S
C1427 H1412 0.959 . S
C1427 H1413 0.961 . S
C1427 C1426 1.502 . S
C1428 H1414 0.960 . S
C1428 H1415 0.961 . S
C1428 H1416 0.959 . S
C1428 C1426 1.561 . S
C1429 C1426 1.526 . S
C1429 C1430 1.396 . S
C1429 C1434 1.390 . S
C1430 C1424 1.465 . S
C1430 C1429 1.396 . S
C1430 C1431 1.399 . S
C1431 H1417 0.929 . S
C1431 C1430 1.399 . S
C1431 C1432 1.385 . S
C1432 H1418 0.931 . S
C1432 C1431 1.385 . S
C1432 C1433 1.389 . S
C1433 C1432 1.389 . S
C1433 C1434 1.387 . S
C1434 H1419 0.930 . S
C1434 C1429 1.390 . S
C1434 C1433 1.387 . S
H1435 C1447 0.930 . S
H1436 C1449 0.930 . S
H1437 C1450 0.930 . S
H1438 C1454 0.959 . S
H1439 C1454 0.959 . S
H1440 C1454 0.961 . S
H1441 C1455 0.960 . S
H1442 C1455 0.961 . S
H1443 C1455 0.959 . S
H1444 C1458 0.929 . S
H1445 C1459 0.931 . S
H1446 C1461 0.930 . S
C1447 H1435 0.930 . S
C1447 C1448 1.399 . S
C1447 C1452 1.399 . S
C1448 C1447 1.399 . S
C1448 C1449 1.376 . S
C1449 H1436 0.930 . S
C1449 C1448 1.376 . S
C1449 C1450 1.388 . S
C1450 H1437 0.930 . S
C1450 C1449 1.388 . S
C1450 C1451 1.390 . S
C1451 C1450 1.390 . S
C1451 C1452 1.394 . S
C1451 C1457 1.465 . S
C1452 C1447 1.399 . S
C1452 C1451 1.394 . S
C1452 C1453 1.516 . S
C1453 C1452 1.516 . S
C1453 C1454 1.502 . S
C1453 C1455 1.561 . S
C1453 C1456 1.526 . S
C1454 H1438 0.959 . S
C1454 H1439 0.959 . S
C1454 H1440 0.961 . S
C1454 C1453 1.502 . S
C1455 H1441 0.960 . S
C1455 H1442 0.961 . S
C1455 H1443 0.959 . S
C1455 C1453 1.561 . S
C1456 C1453 1.526 . S
C1456 C1457 1.396 . S
C1456 C1461 1.390 . S
C1457 C1451 1.465 . S
C1457 C1456 1.396 . S
C1457 C1458 1.399 . S
C1458 H1444 0.929 . S
C1458 C1457 1.399 . S
C1458 C1459 1.385 . S
C1459 H1445 0.931 . S
C1459 C1458 1.385 . S
C1459 C1460 1.389 . S
C1460 C1459 1.389 . S
C1460 C1461 1.387 . S
C1461 H1446 0.930 . S
C1461 C1456 1.390 . S
C1461 C1460 1.387 . S
H1462 C1474 0.930 . S
H1463 C1476 0.930 . S
H1464 C1477 0.930 . S
H1465 C1481 0.959 . S
H1466 C1481 0.959 . S
H1467 C1481 0.961 . S
H1468 C1482 0.960 . S
H1469 C1482 0.961 . S
H1470 C1482 0.959 . S
H1471 C1485 0.929 . S
H1472 C1486 0.931 . S
H1473 C1488 0.930 . S
C1474 H1462 0.930 . S
C1474 C1475 1.399 . S
C1474 C1479 1.399 . S
C1475 C1474 1.399 . S
C1475 C1476 1.376 . S
C1476 H1463 0.930 . S
C1476 C1475 1.376 . S
C1476 C1477 1.388 . S
C1477 H1464 0.930 . S
C1477 C1476 1.388 . S
C1477 C1478 1.390 . S
C1478 C1477 1.390 . S
C1478 C1479 1.394 . S
C1478 C1484 1.465 . S
C1479 C1474 1.399 . S
C1479 C1478 1.394 . S
C1479 C1480 1.516 . S
C1480 C1479 1.516 . S
C1480 C1481 1.502 . S
C1480 C1482 1.561 . S
C1480 C1483 1.526 . S
C1481 H1465 0.959 . S
C1481 H1466 0.959 . S
C1481 H1467 0.961 . S
C1481 C1480 1.502 . S
C1482 H1468 0.960 . S
C1482 H1469 0.961 . S
C1482 H1470 0.959 . S
C1482 C1480 1.561 . S
C1483 C1480 1.526 . S
C1483 C1484 1.396 . S
C1483 C1488 1.390 . S
C1484 C1478 1.465 . S
C1484 C1483 1.396 . S
C1484 C1485 1.399 . S
C1485 H1471 0.929 . S
C1485 C1484 1.399 . S
C1485 C1486 1.385 . S
C1486 H1472 0.931 . S
C1486 C1485 1.385 . S
C1486 C1487 1.389 . S
C1487 C1486 1.389 . S
C1487 C1488 1.387 . S
C1488 H1473 0.930 . S
C1488 C1483 1.390 . S
C1488 C1487 1.387 . S
H1489 C1501 0.930 . S
H1490 C1503 0.930 . S
H1491 C1504 0.930 . S
H1492 C1508 0.959 . S
H1493 C1508 0.959 . S
H1494 C1508 0.961 . S
H1495 C1509 0.960 . S
H1496 C1509 0.961 . S
H1497 C1509 0.959 . S
H1498 C1512 0.929 . S
H1499 C1513 0.931 . S
H1500 C1515 0.930 . S
C1501 H1489 0.930 . S
C1501 C1502 1.399 . S
C1501 C1506 1.399 . S
C1502 C1501 1.399 . S
C1502 C1503 1.376 . S
C1503 H1490 0.930 . S
C1503 C1502 1.376 . S
C1503 C1504 1.388 . S
C1504 H1491 0.930 . S
C1504 C1503 1.388 . S
C1504 C1505 1.390 . S
C1505 C1504 1.390 . S
C1505 C1506 1.394 . S
C1505 C1511 1.465 . S
C1506 C1501 1.399 . S
C1506 C1505 1.394 . S
C1506 C1507 1.516 . S
C1507 C1506 1.516 . S
C1507 C1508 1.502 . S
C1507 C1509 1.561 . S
C1507 C1510 1.526 . S
C1508 H1492 0.959 . S
C1508 H1493 0.959 . S
C1508 H1494 0.961 . S
C1508 C1507 1.502 . S
C1509 H1495 0.960 . S
C1509 H1496 0.961 . S
C1509 H1497 0.959 . S
C1509 C1507 1.561 . S
C1510 C1507 1.526 . S
C1510 C1511 1.396 . S
C1510 C1515 1.390 . S
C1511 C1505 1.465 . S
C1511 C1510 1.396 . S
C1511 C1512 1.399 . S
C1512 H1498 0.929 . S
C1512 C1511 1.399 . S
C1512 C1513 1.385 . S
C1513 H1499 0.931 . S
C1513 C1512 1.385 . S
C1513 C1514 1.389 . S
C1514 C1513 1.389 . S
C1514 C1515 1.387 . S
C1515 H1500 0.930 . S
C1515 C1510 1.390 . S
C1515 C1514 1.387 . S
H1516 C1528 0.930 . S
H1517 C1530 0.930 . S
H1518 C1531 0.930 . S
H1519 C1535 0.959 . S
H1520 C1535 0.959 . S
H1521 C1535 0.961 . S
H1522 C1536 0.960 . S
H1523 C1536 0.961 . S
H1524 C1536 0.959 . S
H1525 C1539 0.929 . S
H1526 C1540 0.931 . S
H1527 C1542 0.930 . S
C1528 H1516 0.930 . S
C1528 C1529 1.399 . S
C1528 C1533 1.399 . S
C1529 C1528 1.399 . S
C1529 C1530 1.376 . S
C1530 H1517 0.930 . S
C1530 C1529 1.376 . S
C1530 C1531 1.388 . S
C1531 H1518 0.930 . S
C1531 C1530 1.388 . S
C1531 C1532 1.390 . S
C1532 C1531 1.390 . S
C1532 C1533 1.394 . S
C1532 C1538 1.465 . S
C1533 C1528 1.399 . S
C1533 C1532 1.394 . S
C1533 C1534 1.516 . S
C1534 C1533 1.516 . S
C1534 C1535 1.502 . S
C1534 C1536 1.561 . S
C1534 C1537 1.526 . S
C1535 H1519 0.959 . S
C1535 H1520 0.959 . S
C1535 H1521 0.961 . S
C1535 C1534 1.502 . S
C1536 H1522 0.960 . S
C1536 H1523 0.961 . S
C1536 H1524 0.959 . S
C1536 C1534 1.561 . S
C1537 C1534 1.526 . S
C1537 C1538 1.396 . S
C1537 C1542 1.390 . S
C1538 C1532 1.465 . S
C1538 C1537 1.396 . S
C1538 C1539 1.399 . S
C1539 H1525 0.929 . S
C1539 C1538 1.399 . S
C1539 C1540 1.385 . S
C1540 H1526 0.931 . S
C1540 C1539 1.385 . S
C1540 C1541 1.389 . S
C1541 C1540 1.389 . S
C1541 C1542 1.387 . S
C1542 H1527 0.930 . S
C1542 C1537 1.390 . S
C1542 C1541 1.387 . S
H1543 C1555 0.930 . S
H1544 C1557 0.930 . S
H1545 C1558 0.930 . S
H1546 C1562 0.959 . S
H1547 C1562 0.959 . S
H1548 C1562 0.961 . S
H1549 C1563 0.960 . S
H1550 C1563 0.961 . S
H1551 C1563 0.959 . S
H1552 C1566 0.929 . S
H1553 C1567 0.931 . S
H1554 C1569 0.930 . S
C1555 H1543 0.930 . S
C1555 C1556 1.399 . S
C1555 C1560 1.399 . S
C1556 C1555 1.399 . S
C1556 C1557 1.376 . S
C1557 H1544 0.930 . S
C1557 C1556 1.376 . S
C1557 C1558 1.388 . S
C1558 H1545 0.930 . S
C1558 C1557 1.388 . S
C1558 C1559 1.390 . S
C1559 C1558 1.390 . S
C1559 C1560 1.394 . S
C1559 C1565 1.465 . S
C1560 C1555 1.399 . S
C1560 C1559 1.394 . S
C1560 C1561 1.516 . S
C1561 C1560 1.516 . S
C1561 C1562 1.502 . S
C1561 C1563 1.561 . S
C1561 C1564 1.526 . S
C1562 H1546 0.959 . S
C1562 H1547 0.959 . S
C1562 H1548 0.961 . S
C1562 C1561 1.502 . S
C1563 H1549 0.960 . S
C1563 H1550 0.961 . S
C1563 H1551 0.959 . S
C1563 C1561 1.561 . S
C1564 C1561 1.526 . S
C1564 C1565 1.396 . S
C1564 C1569 1.390 . S
C1565 C1559 1.465 . S
C1565 C1564 1.396 . S
C1565 C1566 1.399 . S
C1566 H1552 0.929 . S
C1566 C1565 1.399 . S
C1566 C1567 1.385 . S
C1567 H1553 0.931 . S
C1567 C1566 1.385 . S
C1567 C1568 1.389 . S
C1568 C1567 1.389 . S
C1568 C1569 1.387 . S
C1569 H1554 0.930 . S
C1569 C1564 1.390 . S
C1569 C1568 1.387 . S
H1570 C1582 0.930 . S
H1571 C1584 0.930 . S
H1572 C1585 0.930 . S
H1573 C1589 0.959 . S
H1574 C1589 0.959 . S
H1575 C1589 0.961 . S
H1576 C1590 0.960 . S
H1577 C1590 0.961 . S
H1578 C1590 0.959 . S
H1579 C1593 0.929 . S
H1580 C1594 0.931 . S
H1581 C1596 0.930 . S
C1582 H1570 0.930 . S
C1582 C1583 1.399 . S
C1582 C1587 1.399 . S
C1583 C1582 1.399 . S
C1583 C1584 1.376 . S
C1584 H1571 0.930 . S
C1584 C1583 1.376 . S
C1584 C1585 1.388 . S
C1585 H1572 0.930 . S
C1585 C1584 1.388 . S
C1585 C1586 1.390 . S
C1586 C1585 1.390 . S
C1586 C1587 1.394 . S
C1586 C1592 1.465 . S
C1587 C1582 1.399 . S
C1587 C1586 1.394 . S
C1587 C1588 1.516 . S
C1588 C1587 1.516 . S
C1588 C1589 1.502 . S
C1588 C1590 1.561 . S
C1588 C1591 1.526 . S
C1589 H1573 0.959 . S
C1589 H1574 0.959 . S
C1589 H1575 0.961 . S
C1589 C1588 1.502 . S
C1590 H1576 0.960 . S
C1590 H1577 0.961 . S
C1590 H1578 0.959 . S
C1590 C1588 1.561 . S
C1591 C1588 1.526 . S
C1591 C1592 1.396 . S
C1591 C1596 1.390 . S
C1592 C1586 1.465 . S
C1592 C1591 1.396 . S
C1592 C1593 1.399 . S
C1593 H1579 0.929 . S
C1593 C1592 1.399 . S
C1593 C1594 1.385 . S
C1594 H1580 0.931 . S
C1594 C1593 1.385 . S
C1594 C1595 1.389 . S
C1595 C1594 1.389 . S
C1595 C1596 1.387 . S
C1596 H1581 0.930 . S
C1596 C1591 1.390 . S
C1596 C1595 1.387 . S
H1597 C1609 0.930 . S
H1598 C1611 0.930 . S
H1599 C1612 0.930 . S
H1600 C1616 0.959 . S
H1601 C1616 0.959 . S
H1602 C1616 0.961 . S
H1603 C1617 0.960 . S
H1604 C1617 0.961 . S
H1605 C1617 0.959 . S
H1606 C1620 0.929 . S
H1607 C1621 0.931 . S
H1608 C1623 0.930 . S
C1609 H1597 0.930 . S
C1609 C1610 1.399 . S
C1609 C1614 1.399 . S
C1610 C1609 1.399 . S
C1610 C1611 1.376 . S
C1611 H1598 0.930 . S
C1611 C1610 1.376 . S
C1611 C1612 1.388 . S
C1612 H1599 0.930 . S
C1612 C1611 1.388 . S
C1612 C1613 1.390 . S
C1613 C1612 1.390 . S
C1613 C1614 1.394 . S
C1613 C1619 1.465 . S
C1614 C1609 1.399 . S
C1614 C1613 1.394 . S
C1614 C1615 1.516 . S
C1615 C1614 1.516 . S
C1615 C1616 1.502 . S
C1615 C1617 1.561 . S
C1615 C1618 1.526 . S
C1616 H1600 0.959 . S
C1616 H1601 0.959 . S
C1616 H1602 0.961 . S
C1616 C1615 1.502 . S
C1617 H1603 0.960 . S
C1617 H1604 0.961 . S
C1617 H1605 0.959 . S
C1617 C1615 1.561 . S
C1618 C1615 1.526 . S
C1618 C1619 1.396 . S
C1618 C1623 1.390 . S
C1619 C1613 1.465 . S
C1619 C1618 1.396 . S
C1619 C1620 1.399 . S
C1620 H1606 0.929 . S
C1620 C1619 1.399 . S
C1620 C1621 1.385 . S
C1621 H1607 0.931 . S
C1621 C1620 1.385 . S
C1621 C1622 1.389 . S
C1622 C1621 1.389 . S
C1622 C1623 1.387 . S
C1623 H1608 0.930 . S
C1623 C1618 1.390 . S
C1623 C1622 1.387 . S
H1624 C1636 0.930 . S
H1625 C1638 0.930 . S
H1626 C1639 0.930 . S
H1627 C1643 0.959 . S
H1628 C1643 0.959 . S
H1629 C1643 0.961 . S
H1630 C1644 0.960 . S
H1631 C1644 0.961 . S
H1632 C1644 0.959 . S
H1633 C1647 0.929 . S
H1634 C1648 0.931 . S
H1635 C1650 0.930 . S
C1636 H1624 0.930 . S
C1636 C1637 1.399 . S
C1636 C1641 1.399 . S
C1637 C1636 1.399 . S
C1637 C1638 1.376 . S
C1638 H1625 0.930 . S
C1638 C1637 1.376 . S
C1638 C1639 1.388 . S
C1639 H1626 0.930 . S
C1639 C1638 1.388 . S
C1639 C1640 1.390 . S
C1640 C1639 1.390 . S
C1640 C1641 1.394 . S
C1640 C1646 1.465 . S
C1641 C1636 1.399 . S
C1641 C1640 1.394 . S
C1641 C1642 1.516 . S
C1642 C1641 1.516 . S
C1642 C1643 1.502 . S
C1642 C1644 1.561 . S
C1642 C1645 1.526 . S
C1643 H1627 0.959 . S
C1643 H1628 0.959 . S
C1643 H1629 0.961 . S
C1643 C1642 1.502 . S
C1644 H1630 0.960 . S
C1644 H1631 0.961 . S
C1644 H1632 0.959 . S
C1644 C1642 1.561 . S
C1645 C1642 1.526 . S
C1645 C1646 1.396 . S
C1645 C1650 1.390 . S
C1646 C1640 1.465 . S
C1646 C1645 1.396 . S
C1646 C1647 1.399 . S
C1647 H1633 0.929 . S
C1647 C1646 1.399 . S
C1647 C1648 1.385 . S
C1648 H1634 0.931 . S
C1648 C1647 1.385 . S
C1648 C1649 1.389 . S
C1649 C1648 1.389 . S
C1649 C1650 1.387 . S
C1650 H1635 0.930 . S
C1650 C1645 1.390 . S
C1650 C1649 1.387 . S
H1651 C1663 0.930 . S
H1652 C1665 0.930 . S
H1653 C1666 0.930 . S
H1654 C1670 0.959 . S
H1655 C1670 0.959 . S
H1656 C1670 0.961 . S
H1657 C1671 0.960 . S
H1658 C1671 0.961 . S
H1659 C1671 0.959 . S
H1660 C1674 0.929 . S
H1661 C1675 0.931 . S
H1662 C1677 0.930 . S
C1663 H1651 0.930 . S
C1663 C1664 1.399 . S
C1663 C1668 1.399 . S
C1664 C1663 1.399 . S
C1664 C1665 1.376 . S
C1665 H1652 0.930 . S
C1665 C1664 1.376 . S
C1665 C1666 1.388 . S
C1666 H1653 0.930 . S
C1666 C1665 1.388 . S
C1666 C1667 1.390 . S
C1667 C1666 1.390 . S
C1667 C1668 1.394 . S
C1667 C1673 1.465 . S
C1668 C1663 1.399 . S
C1668 C1667 1.394 . S
C1668 C1669 1.516 . S
C1669 C1668 1.516 . S
C1669 C1670 1.502 . S
C1669 C1671 1.561 . S
C1669 C1672 1.526 . S
C1670 H1654 0.959 . S
C1670 H1655 0.959 . S
C1670 H1656 0.961 . S
C1670 C1669 1.502 . S
C1671 H1657 0.960 . S
C1671 H1658 0.961 . S
C1671 H1659 0.959 . S
C1671 C1669 1.561 . S
C1672 C1669 1.526 . S
C1672 C1673 1.396 . S
C1672 C1677 1.390 . S
C1673 C1667 1.465 . S
C1673 C1672 1.396 . S
C1673 C1674 1.399 . S
C1674 H1660 0.929 . S
C1674 C1673 1.399 . S
C1674 C1675 1.385 . S
C1675 H1661 0.931 . S
C1675 C1674 1.385 . S
C1675 C1676 1.389 . S
C1676 C1675 1.389 . S
C1676 C1677 1.387 . S
C1677 H1662 0.930 . S
C1677 C1672 1.390 . S
C1677 C1676 1.387 . S
H1678 C1690 0.930 . S
H1679 C1692 0.930 . S
H1680 C1693 0.930 . S
H1681 C1697 0.959 . S
H1682 C1697 0.959 . S
H1683 C1697 0.961 . S
H1684 C1698 0.960 . S
H1685 C1698 0.961 . S
H1686 C1698 0.959 . S
H1687 C1701 0.929 . S
H1688 C1702 0.931 . S
H1689 C1704 0.930 . S
C1690 H1678 0.930 . S
C1690 C1691 1.399 . S
C1690 C1695 1.399 . S
C1691 C1690 1.399 . S
C1691 C1692 1.376 . S
C1692 H1679 0.930 . S
C1692 C1691 1.376 . S
C1692 C1693 1.388 . S
C1693 H1680 0.930 . S
C1693 C1692 1.388 . S
C1693 C1694 1.390 . S
C1694 C1693 1.390 . S
C1694 C1695 1.394 . S
C1694 C1700 1.465 . S
C1695 C1690 1.399 . S
C1695 C1694 1.394 . S
C1695 C1696 1.516 . S
C1696 C1695 1.516 . S
C1696 C1697 1.502 . S
C1696 C1698 1.561 . S
C1696 C1699 1.526 . S
C1697 H1681 0.959 . S
C1697 H1682 0.959 . S
C1697 H1683 0.961 . S
C1697 C1696 1.502 . S
C1698 H1684 0.960 . S
C1698 H1685 0.961 . S
C1698 H1686 0.959 . S
C1698 C1696 1.561 . S
C1699 C1696 1.526 . S
C1699 C1700 1.396 . S
C1699 C1704 1.390 . S
C1700 C1694 1.465 . S
C1700 C1699 1.396 . S
C1700 C1701 1.399 . S
C1701 H1687 0.929 . S
C1701 C1700 1.399 . S
C1701 C1702 1.385 . S
C1702 H1688 0.931 . S
C1702 C1701 1.385 . S
C1702 C1703 1.389 . S
C1703 C1702 1.389 . S
C1703 C1704 1.387 . S
C1704 H1689 0.930 . S
C1704 C1699 1.390 . S
C1704 C1703 1.387 . S
H1705 C1717 0.930 . S
H1706 C1719 0.930 . S
H1707 C1720 0.930 . S
H1708 C1724 0.959 . S
H1709 C1724 0.959 . S
H1710 C1724 0.961 1_554 S
H1711 C1725 0.866 1_554 S
H1712 C1725 1.060 . S
H1713 C1725 0.959 . S
H1714 C1728 0.929 . S
H1715 C1729 0.931 . S
H1716 C1731 0.930 . S
C1717 H1705 0.930 . S
C1717 C1718 1.399 . S
C1717 C1722 1.399 . S
C1718 C1717 1.399 . S
C1718 C1719 1.376 . S
C1719 H1706 0.930 . S
C1719 C1718 1.376 . S
C1719 C1720 1.388 . S
C1720 H1707 0.930 . S
C1720 C1719 1.388 . S
C1720 C1721 1.390 . S
C1721 C1720 1.390 . S
C1721 C1722 1.394 . S
C1721 C1727 1.465 1_554 S
C1722 C1717 1.399 . S
C1722 C1721 1.394 . S
C1722 C1723 1.437 1_554 S
C1723 C1722 1.437 1_556 S
C1723 C1724 1.513 . S
C1723 C1725 1.561 . S
C1723 C1726 1.599 . S
C1724 H1708 0.959 . S
C1724 H1709 0.959 . S
C1724 H1710 0.961 1_556 S
C1724 C1723 1.513 . S
C1725 H1711 0.866 1_556 S
C1725 H1712 1.060 . S
C1725 H1713 0.959 . S
C1725 C1723 1.561 . S
C1726 C1723 1.599 . S
C1726 C1727 1.396 . S
C1726 C1731 1.390 . S
C1727 C1721 1.465 1_556 S
C1727 C1726 1.396 . S
C1727 C1728 1.399 . S
C1728 H1714 0.929 . S
C1728 C1727 1.399 . S
C1728 C1729 1.385 . S
C1729 H1715 0.931 . S
C1729 C1728 1.385 . S
C1729 C1730 1.389 . S
C1730 C1729 1.389 . S
C1730 C1731 1.387 . S
C1731 H1716 0.930 . S
C1731 C1726 1.390 . S
C1731 C1730 1.387 . S
H1732 C1744 0.930 . S
H1733 C1746 0.930 . S
H1734 C1747 0.930 . S
H1735 C1751 0.959 . S
H1736 C1751 0.959 . S
H1737 C1751 0.961 1_554 S
H1738 C1752 0.864 1_554 S
H1739 C1752 1.062 . S
H1740 C1752 0.959 . S
H1741 C1755 0.929 . S
H1742 C1756 0.931 . S
H1743 C1758 0.930 . S
C1744 H1732 0.930 . S
C1744 C1745 1.399 . S
C1744 C1749 1.399 . S
C1745 C1744 1.399 . S
C1745 C1746 1.376 . S
C1746 H1733 0.930 . S
C1746 C1745 1.376 . S
C1746 C1747 1.388 . S
C1747 H1734 0.930 . S
C1747 C1746 1.388 . S
C1747 C1748 1.390 . S
C1748 C1747 1.390 . S
C1748 C1749 1.394 . S
C1748 C1754 1.465 1_554 S
C1749 C1744 1.399 . S
C1749 C1748 1.394 . S
C1749 C1750 1.436 1_554 S
C1750 C1749 1.436 1_556 S
C1750 C1751 1.513 . S
C1750 C1752 1.561 . S
C1750 C1753 1.599 . S
C1751 H1735 0.959 . S
C1751 H1736 0.959 . S
C1751 H1737 0.961 1_556 S
C1751 C1750 1.513 . S
C1752 H1738 0.864 1_556 S
C1752 H1739 1.062 . S
C1752 H1740 0.959 . S
C1752 C1750 1.561 . S
C1753 C1750 1.599 . S
C1753 C1754 1.396 . S
C1753 C1758 1.390 . S
C1754 C1748 1.465 1_556 S
C1754 C1753 1.396 . S
C1754 C1755 1.399 . S
C1755 H1741 0.929 . S
C1755 C1754 1.399 . S
C1755 C1756 1.385 . S
C1756 H1742 0.931 . S
C1756 C1755 1.385 . S
C1756 C1757 1.389 . S
C1757 C1756 1.389 . S
C1757 C1758 1.387 . S
C1758 H1743 0.930 . S
C1758 C1753 1.390 . S
C1758 C1757 1.387 . S
H1759 C1771 0.930 . S
H1760 C1773 0.930 . S
H1761 C1774 0.930 . S
H1762 C1778 0.959 . S
H1763 C1778 0.959 . S
H1764 C1778 0.961 . S
H1765 C1779 0.960 . S
H1766 C1779 0.961 . S
H1767 C1779 0.959 . S
H1768 C1782 0.929 . S
H1769 C1783 0.931 . S
H1770 C1785 0.930 . S
C1771 H1759 0.930 . S
C1771 C1772 1.399 . S
C1771 C1776 1.399 . S
C1772 C1771 1.399 . S
C1772 C1773 1.376 . S
C1773 H1760 0.930 . S
C1773 C1772 1.376 . S
C1773 C1774 1.388 . S
C1774 H1761 0.930 . S
C1774 C1773 1.388 . S
C1774 C1775 1.390 . S
C1775 C1774 1.390 . S
C1775 C1776 1.394 . S
C1775 C1781 1.465 . S
C1776 C1771 1.399 . S
C1776 C1775 1.394 . S
C1776 C1777 1.516 . S
C1777 C1776 1.516 . S
C1777 C1778 1.502 . S
C1777 C1779 1.561 . S
C1777 C1780 1.526 . S
C1778 H1762 0.959 . S
C1778 H1763 0.959 . S
C1778 H1764 0.961 . S
C1778 C1777 1.502 . S
C1779 H1765 0.960 . S
C1779 H1766 0.961 . S
C1779 H1767 0.959 . S
C1779 C1777 1.561 . S
C1780 C1777 1.526 . S
C1780 C1781 1.396 . S
C1780 C1785 1.390 . S
C1781 C1775 1.465 . S
C1781 C1780 1.396 . S
C1781 C1782 1.399 . S
C1782 H1768 0.929 . S
C1782 C1781 1.399 . S
C1782 C1783 1.385 . S
C1783 H1769 0.931 . S
C1783 C1782 1.385 . S
C1783 C1784 1.389 . S
C1784 C1783 1.389 . S
C1784 C1785 1.387 . S
C1785 H1770 0.930 . S
C1785 C1780 1.390 . S
C1785 C1784 1.387 . S
H1786 C1798 0.930 . S
H1787 C1800 0.930 . S
H1788 C1801 0.930 . S
H1789 C1805 0.959 . S
H1790 C1805 0.959 . S
H1791 C1805 0.961 . S
H1792 C1806 0.960 . S
H1793 C1806 0.961 . S
H1794 C1806 0.959 . S
H1795 C1809 0.929 . S
H1796 C1810 0.931 . S
H1797 C1812 0.930 . S
C1798 H1786 0.930 . S
C1798 C1799 1.399 . S
C1798 C1803 1.399 . S
C1799 C1798 1.399 . S
C1799 C1800 1.376 . S
C1800 H1787 0.930 . S
C1800 C1799 1.376 . S
C1800 C1801 1.388 . S
C1801 H1788 0.930 . S
C1801 C1800 1.388 . S
C1801 C1802 1.390 . S
C1802 C1801 1.390 . S
C1802 C1803 1.394 . S
C1802 C1808 1.465 . S
C1803 C1798 1.399 . S
C1803 C1802 1.394 . S
C1803 C1804 1.516 . S
C1804 C1803 1.516 . S
C1804 C1805 1.502 . S
C1804 C1806 1.561 . S
C1804 C1807 1.526 . S
C1805 H1789 0.959 . S
C1805 H1790 0.959 . S
C1805 H1791 0.961 . S
C1805 C1804 1.502 . S
C1806 H1792 0.960 . S
C1806 H1793 0.961 . S
C1806 H1794 0.959 . S
C1806 C1804 1.561 . S
C1807 C1804 1.526 . S
C1807 C1808 1.396 . S
C1807 C1812 1.390 . S
C1808 C1802 1.465 . S
C1808 C1807 1.396 . S
C1808 C1809 1.399 . S
C1809 H1795 0.929 . S
C1809 C1808 1.399 . S
C1809 C1810 1.385 . S
C1810 H1796 0.931 . S
C1810 C1809 1.385 . S
C1810 C1811 1.389 . S
C1811 C1810 1.389 . S
C1811 C1812 1.387 . S
C1812 H1797 0.930 . S
C1812 C1807 1.390 . S
C1812 C1811 1.387 . S
H1813 C1825 0.930 . S
H1814 C1827 0.930 . S
H1815 C1828 0.930 . S
H1816 C1832 0.959 . S
H1817 C1832 0.959 . S
H1818 C1832 0.961 . S
H1819 C1833 0.960 . S
H1820 C1833 0.961 . S
H1821 C1833 0.959 . S
H1822 C1836 0.929 . S
H1823 C1837 0.931 . S
H1824 C1839 0.930 . S
C1825 H1813 0.930 . S
C1825 C1826 1.399 . S
C1825 C1830 1.399 . S
C1826 C1825 1.399 . S
C1826 C1827 1.376 . S
C1827 H1814 0.930 . S
C1827 C1826 1.376 . S
C1827 C1828 1.388 . S
C1828 H1815 0.930 . S
C1828 C1827 1.388 . S
C1828 C1829 1.390 . S
C1829 C1828 1.390 . S
C1829 C1830 1.394 . S
C1829 C1835 1.465 . S
C1830 C1825 1.399 . S
C1830 C1829 1.394 . S
C1830 C1831 1.516 . S
C1831 C1830 1.516 . S
C1831 C1832 1.502 . S
C1831 C1833 1.561 . S
C1831 C1834 1.526 . S
C1832 H1816 0.959 . S
C1832 H1817 0.959 . S
C1832 H1818 0.961 . S
C1832 C1831 1.502 . S
C1833 H1819 0.960 . S
C1833 H1820 0.961 . S
C1833 H1821 0.959 . S
C1833 C1831 1.561 . S
C1834 C1831 1.526 . S
C1834 C1835 1.396 . S
C1834 C1839 1.390 . S
C1835 C1829 1.465 . S
C1835 C1834 1.396 . S
C1835 C1836 1.399 . S
C1836 H1822 0.929 . S
C1836 C1835 1.399 . S
C1836 C1837 1.385 . S
C1837 H1823 0.931 . S
C1837 C1836 1.385 . S
C1837 C1838 1.389 . S
C1838 C1837 1.389 . S
C1838 C1839 1.387 . S
C1839 H1824 0.930 . S
C1839 C1834 1.390 . S
C1839 C1838 1.387 . S
H1840 C1852 0.930 . S
H1841 C1854 0.930 . S
H1842 C1855 0.930 . S
H1843 C1859 0.959 . S
H1844 C1859 0.959 1_655 S
H1845 C1859 0.961 1_545 S
H1846 C1860 0.960 . S
H1847 C1860 0.961 . S
H1848 C1860 0.959 . S
H1849 C1863 0.929 . S
H1850 C1864 0.931 . S
H1851 C1866 0.930 . S
C1852 H1840 0.930 . S
C1852 C1853 1.399 . S
C1852 C1857 1.399 . S
C1853 C1852 1.399 . S
C1853 C1854 1.376 . S
C1854 H1841 0.930 . S
C1854 C1853 1.376 . S
C1854 C1855 1.388 . S
C1855 H1842 0.930 . S
C1855 C1854 1.388 . S
C1855 C1856 1.390 . S
C1856 C1855 1.390 . S
C1856 C1857 1.394 . S
C1856 C1862 1.465 1_445 S
C1857 C1852 1.399 . S
C1857 C1856 1.394 . S
C1857 C1858 1.516 1_455 S
C1858 C1857 1.516 1_655 S
C1858 C1859 1.502 1_645 S
C1858 C1860 1.561 . S
C1858 C1861 1.526 1_545 S
C1859 H1843 0.959 . S
C1859 H1844 0.959 1_455 S
C1859 H1845 0.961 1_565 S
C1859 C1858 1.502 1_465 S
C1860 H1846 0.960 . S
C1860 H1847 0.961 . S
C1860 H1848 0.959 . S
C1860 C1858 1.561 . S
C1861 C1858 1.526 1_565 S
C1861 C1862 1.396 . S
C1861 C1866 1.390 . S
C1862 C1856 1.465 1_665 S
C1862 C1861 1.396 . S
C1862 C1863 1.399 . S
C1863 H1849 0.929 . S
C1863 C1862 1.399 . S
C1863 C1864 1.385 . S
C1864 H1850 0.931 . S
C1864 C1863 1.385 . S
C1864 C1865 1.389 . S
C1865 C1864 1.389 . S
C1865 C1866 1.387 . S
C1866 H1851 0.930 . S
C1866 C1861 1.390 . S
C1866 C1865 1.387 . S
H1867 C1879 0.930 . S
H1868 C1881 0.930 . S
H1869 C1882 0.930 . S
H1870 C1886 0.959 . S
H1871 C1886 0.959 . S
H1872 C1886 0.961 . S
H1873 C1887 0.960 . S
H1874 C1887 0.961 . S
H1875 C1887 0.959 . S
H1876 C1890 0.929 1_455 S
H1877 C1891 0.931 . S
H1878 C1893 0.930 . S
C1879 H1867 0.930 . S
C1879 C1880 1.399 . S
C1879 C1884 1.399 . S
C1880 C1879 1.399 . S
C1880 C1881 1.376 . S
C1881 H1868 0.930 . S
C1881 C1880 1.376 . S
C1881 C1882 1.388 . S
C1882 H1869 0.930 . S
C1882 C1881 1.388 . S
C1882 C1883 1.390 . S
C1883 C1882 1.390 . S
C1883 C1884 1.394 . S
C1883 C1889 1.456 1_455 S
C1884 C1879 1.399 . S
C1884 C1883 1.394 . S
C1884 C1885 1.516 1_455 S
C1885 C1884 1.516 1_655 S
C1885 C1886 1.502 . S
C1885 C1887 1.561 1_655 S
C1885 C1888 1.526 . S
C1886 H1870 0.959 . S
C1886 H1871 0.959 . S
C1886 H1872 0.961 . S
C1886 C1885 1.502 . S
C1887 H1873 0.960 . S
C1887 H1874 0.961 . S
C1887 H1875 0.959 . S
C1887 C1885 1.561 1_455 S
C1888 C1885 1.526 . S
C1888 C1889 1.403 . S
C1888 C1893 1.390 . S
C1889 C1883 1.456 1_655 S
C1889 C1888 1.403 . S
C1889 C1890 1.402 . S
C1890 H1876 0.929 1_655 S
C1890 C1889 1.402 . S
C1890 C1891 1.385 . S
C1891 H1877 0.931 . S
C1891 C1890 1.385 . S
C1891 C1892 1.389 . S
C1892 C1891 1.389 . S
C1892 C1893 1.387 . S
C1893 H1878 0.930 . S
C1893 C1888 1.390 . S
C1893 C1892 1.387 . S
H1894 C1906 0.930 . S
H1895 C1908 0.930 . S
H1896 C1909 0.930 . S
H1897 C1913 0.959 . S
H1898 C1913 0.959 . S
H1899 C1913 0.961 . S
H1900 C1914 0.960 . S
H1901 C1914 0.961 . S
H1902 C1914 0.959 . S
H1903 C1917 0.929 . S
H1904 C1918 0.931 . S
H1905 C1920 0.930 . S
C1906 H1894 0.930 . S
C1906 C1907 1.399 . S
C1906 C1911 1.399 . S
C1907 C1906 1.399 . S
C1907 C1908 1.376 . S
C1908 H1895 0.930 . S
C1908 C1907 1.376 . S
C1908 C1909 1.388 . S
C1909 H1896 0.930 . S
C1909 C1908 1.388 . S
C1909 C1910 1.390 . S
C1910 C1909 1.390 . S
C1910 C1911 1.394 . S
C1910 C1916 1.465 . S
C1911 C1906 1.399 . S
C1911 C1910 1.394 . S
C1911 C1912 1.516 . S
C1912 C1911 1.516 . S
C1912 C1913 1.502 . S
C1912 C1914 1.561 . S
C1912 C1915 1.526 . S
C1913 H1897 0.959 . S
C1913 H1898 0.959 . S
C1913 H1899 0.961 . S
C1913 C1912 1.502 . S
C1914 H1900 0.960 . S
C1914 H1901 0.961 . S
C1914 H1902 0.959 . S
C1914 C1912 1.561 . S
C1915 C1912 1.526 . S
C1915 C1916 1.396 . S
C1915 C1920 1.390 . S
C1916 C1910 1.465 . S
C1916 C1915 1.396 . S
C1916 C1917 1.399 . S
C1917 H1903 0.929 . S
C1917 C1916 1.399 . S
C1917 C1918 1.385 . S
C1918 H1904 0.931 . S
C1918 C1917 1.385 . S
C1918 C1919 1.389 . S
C1919 C1918 1.389 . S
C1919 C1920 1.387 . S
C1920 H1905 0.930 . S
C1920 C1915 1.390 . S
C1920 C1919 1.387 . S
H1921 C1933 0.930 . S
H1922 C1935 0.930 . S
H1923 C1936 0.930 . S
H1924 C1940 0.959 . S
H1925 C1940 0.959 . S
H1926 C1940 0.961 . S
H1927 C1941 0.982 . S
H1928 C1941 0.946 1_565 S
H1929 C1941 0.948 1_565 S
H1930 C1944 0.929 . S
H1931 C1945 0.931 . S
H1932 C1947 0.930 . S
C1933 H1921 0.930 . S
C1933 C1934 1.399 . S
C1933 C1938 1.399 . S
C1934 C1933 1.399 . S
C1934 C1935 1.376 . S
C1935 H1922 0.930 . S
C1935 C1934 1.376 . S
C1935 C1936 1.388 . S
C1936 H1923 0.930 . S
C1936 C1935 1.388 . S
C1936 C1937 1.390 . S
C1937 C1936 1.390 . S
C1937 C1938 1.394 . S
C1937 C1943 1.465 1_545 S
C1938 C1933 1.399 . S
C1938 C1937 1.394 . S
C1938 C1939 1.516 . S
C1939 C1938 1.516 . S
C1939 C1940 1.502 . S
C1939 C1941 1.566 . S
C1939 C1942 1.526 1_545 S
C1940 H1924 0.959 . S
C1940 H1925 0.959 . S
C1940 H1926 0.961 . S
C1940 C1939 1.502 . S
C1941 H1927 0.982 . S
C1941 H1928 0.946 1_545 S
C1941 H1929 0.948 1_545 S
C1941 C1939 1.566 . S
C1942 C1939 1.526 1_565 S
C1942 C1943 1.396 . S
C1942 C1947 1.390 . S
C1943 C1937 1.465 1_565 S
C1943 C1942 1.396 . S
C1943 C1944 1.399 . S
C1944 H1930 0.929 . S
C1944 C1943 1.399 . S
C1944 C1945 1.385 . S
C1945 H1931 0.931 . S
C1945 C1944 1.385 . S
C1945 C1946 1.389 . S
C1946 C1945 1.389 . S
C1946 C1947 1.387 . S
C1947 H1932 0.930 . S
C1947 C1942 1.390 . S
C1947 C1946 1.387 . S
H1948 C1960 0.930 . S
H1949 C1962 0.930 . S
H1950 C1963 0.930 . S
H1951 C1967 0.959 . S
H1952 C1967 0.959 . S
H1953 C1967 0.961 1_455 S
H1954 C1968 0.960 . S
H1955 C1968 0.961 1_655 S
H1956 C1968 0.959 . S
H1957 C1971 0.929 . S
H1958 C1972 0.931 . S
H1959 C1974 0.930 . S
C1960 H1948 0.930 . S
C1960 C1961 1.399 . S
C1960 C1965 1.399 . S
C1961 C1960 1.399 . S
C1961 C1962 1.376 . S
C1962 H1949 0.930 . S
C1962 C1961 1.376 . S
C1962 C1963 1.388 . S
C1963 H1950 0.930 . S
C1963 C1962 1.388 . S
C1963 C1964 1.390 . S
C1964 C1963 1.390 . S
C1964 C1965 1.394 . S
C1964 C1970 1.465 1_455 S
C1965 C1960 1.399 . S
C1965 C1964 1.394 . S
C1965 C1966 1.516 1_455 S
C1966 C1965 1.516 1_655 S
C1966 C1967 1.502 . S
C1966 C1968 1.561 1_655 S
C1966 C1969 1.526 . S
C1967 H1951 0.959 . S
C1967 H1952 0.959 . S
C1967 H1953 0.961 1_655 S
C1967 C1966 1.502 . S
C1968 H1954 0.960 . S
C1968 H1955 0.961 1_455 S
C1968 H1956 0.959 . S
C1968 C1966 1.561 1_455 S
C1969 C1966 1.526 . S
C1969 C1970 1.396 . S
C1969 C1974 1.390 . S
C1970 C1964 1.465 1_655 S
C1970 C1969 1.396 . S
C1970 C1971 1.399 . S
C1971 H1957 0.929 . S
C1971 C1970 1.399 . S
C1971 C1972 1.385 . S
C1972 H1958 0.931 . S
C1972 C1971 1.385 . S
C1972 C1973 1.389 . S
C1973 C1972 1.389 . S
C1973 C1974 1.387 . S
C1974 H1959 0.930 . S
C1974 C1969 1.390 . S
C1974 C1973 1.387 . S
H1975 C1987 0.930 . S
H1976 C1989 0.930 . S
H1977 C1990 0.930 . S
H1978 C1994 0.959 . S
H1979 C1994 0.959 . S
H1980 C1994 0.961 . S
H1981 C1995 0.960 . S
H1982 C1995 0.961 . S
H1983 C1995 0.959 . S
H1984 C1998 0.929 . S
H1985 C1999 0.931 . S
H1986 C2001 0.930 . S
C1987 H1975 0.930 . S
C1987 C1988 1.399 . S
C1987 C1992 1.399 . S
C1988 C1987 1.399 . S
C1988 C1989 1.376 . S
C1989 H1976 0.930 . S
C1989 C1988 1.376 . S
C1989 C1990 1.388 . S
C1990 H1977 0.930 . S
C1990 C1989 1.388 . S
C1990 C1991 1.390 . S
C1991 C1990 1.390 . S
C1991 C1992 1.394 . S
C1991 C1997 1.465 . S
C1992 C1987 1.399 . S
C1992 C1991 1.394 . S
C1992 C1993 1.516 . S
C1993 C1992 1.516 . S
C1993 C1994 1.502 . S
C1993 C1995 1.561 . S
C1993 C1996 1.526 . S
C1994 H1978 0.959 . S
C1994 H1979 0.959 . S
C1994 H1980 0.961 . S
C1994 C1993 1.502 . S
C1995 H1981 0.960 . S
C1995 H1982 0.961 . S
C1995 H1983 0.959 . S
C1995 C1993 1.561 . S
C1996 C1993 1.526 . S
C1996 C1997 1.396 . S
C1996 C2001 1.390 . S
C1997 C1991 1.465 . S
C1997 C1996 1.396 . S
C1997 C1998 1.399 . S
C1998 H1984 0.929 . S
C1998 C1997 1.399 . S
C1998 C1999 1.385 . S
C1999 H1985 0.931 . S
C1999 C1998 1.385 . S
C1999 C2000 1.389 . S
C2000 C1999 1.389 . S
C2000 C2001 1.387 . S
C2001 H1986 0.930 . S
C2001 C1996 1.390 . S
C2001 C2000 1.387 . S
H2002 C2014 0.930 . S
H2003 C2016 0.930 . S
H2004 C2017 0.930 . S
H2005 C2021 0.959 . S
H2006 C2021 0.959 . S
H2007 C2021 0.961 . S
H2008 C2022 0.960 . S
H2009 C2022 0.961 1_545 S
H2010 C2022 0.959 . S
H2011 C2025 0.929 . S
H2012 C2026 0.931 . S
H2013 C2028 0.930 . S
C2014 H2002 0.930 . S
C2014 C2015 1.399 . S
C2014 C2019 1.399 . S
C2015 C2014 1.399 . S
C2015 C2016 1.376 . S
C2016 H2003 0.930 . S
C2016 C2015 1.376 . S
C2016 C2017 1.388 . S
C2017 H2004 0.930 . S
C2017 C2016 1.388 . S
C2017 C2018 1.390 . S
C2018 C2017 1.390 . S
C2018 C2019 1.394 . S
C2018 C2024 1.465 . S
C2019 C2014 1.399 . S
C2019 C2018 1.394 . S
C2019 C2020 1.516 1_565 S
C2020 C2019 1.516 1_545 S
C2020 C2021 1.502 . S
C2020 C2022 1.561 1_545 S
C2020 C2023 1.526 . S
C2021 H2005 0.959 . S
C2021 H2006 0.959 . S
C2021 H2007 0.961 . S
C2021 C2020 1.502 . S
C2022 H2008 0.960 . S
C2022 H2009 0.961 1_565 S
C2022 H2010 0.959 . S
C2022 C2020 1.561 1_565 S
C2023 C2020 1.526 . S
C2023 C2024 1.396 1_545 S
C2023 C2028 1.390 . S
C2024 C2018 1.465 . S
C2024 C2023 1.396 1_565 S
C2024 C2025 1.399 . S
C2025 H2011 0.929 . S
C2025 C2024 1.399 . S
C2025 C2026 1.385 1_565 S
C2026 H2012 0.931 . S
C2026 C2025 1.385 1_545 S
C2026 C2027 1.389 . S
C2027 C2026 1.389 . S
C2027 C2028 1.387 . S
C2028 H2013 0.930 . S
C2028 C2023 1.390 . S
C2028 C2027 1.387 . S
H2029 C2041 0.930 . S
H2030 C2043 0.930 . S
H2031 C2044 0.930 . S
H2032 C2048 0.959 . S
H2033 C2048 0.959 1_565 S
H2034 C2048 0.961 . S
H2035 C2049 0.960 1_545 S
H2036 C2049 0.961 . S
H2037 C2049 0.959 . S
H2038 C2052 0.930 . S
H2039 C2053 0.931 . S
H2040 C2055 0.930 . S
C2041 H2029 0.930 . S
C2041 C2042 1.399 . S
C2041 C2046 1.399 . S
C2042 C2041 1.399 . S
C2042 C2043 1.376 . S
C2043 H2030 0.930 . S
C2043 C2042 1.376 . S
C2043 C2044 1.388 . S
C2044 H2031 0.930 . S
C2044 C2043 1.388 . S
C2044 C2045 1.390 . S
C2045 C2044 1.390 . S
C2045 C2046 1.394 . S
C2045 C2051 1.465 1_545 S
C2046 C2041 1.399 . S
C2046 C2045 1.394 . S
C2046 C2047 1.516 1_455 S
C2047 C2046 1.516 1_655 S
C2047 C2048 1.502 . S
C2047 C2049 1.561 1_645 S
C2047 C2050 1.526 1_545 S
C2048 H2032 0.959 . S
C2048 H2033 0.959 1_545 S
C2048 H2034 0.961 . S
C2048 C2047 1.502 . S
C2049 H2035 0.960 1_565 S
C2049 H2036 0.961 . S
C2049 H2037 0.959 . S
C2049 C2047 1.561 1_465 S
C2050 C2047 1.526 1_565 S
C2050 C2051 1.396 1_655 S
C2050 C2055 1.390 . S
C2051 C2045 1.465 1_565 S
C2051 C2050 1.396 1_455 S
C2051 C2052 1.399 . S
C2052 H2038 0.930 . S
C2052 C2051 1.399 . S
C2052 C2053 1.384 1_455 S
C2053 H2039 0.931 . S
C2053 C2052 1.384 1_655 S
C2053 C2054 1.389 . S
C2054 C2053 1.389 . S
C2054 C2055 1.387 . S
C2055 H2040 0.930 . S
C2055 C2050 1.390 . S
C2055 C2054 1.387 . S
H2056 C2068 0.930 1_545 S
H2057 C2070 0.930 . S
H2058 C2071 0.930 . S
H2059 C2075 0.959 . S
H2060 C2075 0.959 . S
H2061 C2075 0.961 . S
H2062 C2076 0.960 . S
H2063 C2076 0.961 . S
H2064 C2076 0.959 1_565 S
H2065 C2079 0.929 . S
H2066 C2080 0.931 . S
H2067 C2082 0.930 . S
C2068 H2056 0.930 1_565 S
C2068 C2069 1.399 . S
C2068 C2073 1.400 . S
C2069 C2068 1.399 . S
C2069 C2070 1.376 . S
C2070 H2057 0.930 . S
C2070 C2069 1.376 . S
C2070 C2071 1.388 . S
C2071 H2058 0.930 . S
C2071 C2070 1.388 . S
C2071 C2072 1.390 . S
C2072 C2071 1.390 . S
C2072 C2073 1.400 . S
C2072 C2078 1.465 . S
C2073 C2068 1.400 . S
C2073 C2072 1.400 . S
C2073 C2074 1.509 1_565 S
C2074 C2073 1.509 1_545 S
C2074 C2075 1.502 . S
C2074 C2076 1.561 . S
C2074 C2077 1.526 . S
C2075 H2059 0.959 . S
C2075 H2060 0.959 . S
C2075 H2061 0.961 . S
C2075 C2074 1.502 . S
C2076 H2062 0.960 . S
C2076 H2063 0.961 . S
C2076 H2064 0.959 1_545 S
C2076 C2074 1.561 . S
C2077 C2074 1.526 . S
C2077 C2078 1.396 1_545 S
C2077 C2082 1.390 . S
C2078 C2072 1.465 . S
C2078 C2077 1.396 1_565 S
C2078 C2079 1.399 . S
C2079 H2065 0.929 . S
C2079 C2078 1.399 . S
C2079 C2080 1.385 . S
C2080 H2066 0.931 . S
C2080 C2079 1.385 . S
C2080 C2081 1.389 1_565 S
C2081 C2080 1.389 1_545 S
C2081 C2082 1.387 . S
C2082 H2067 0.930 . S
C2082 C2077 1.390 . S
C2082 C2081 1.387 . S
H2083 C2095 0.930 . S
H2084 C2097 0.930 . S
H2085 C2098 0.930 . S
H2086 C2102 0.959 . S
H2087 C2102 0.959 1_545 S
H2088 C2102 0.961 . S
H2089 C2103 0.960 1_565 S
H2090 C2103 0.961 . S
H2091 C2103 0.959 . S
H2092 C2106 0.935 . S
H2093 C2107 0.931 . S
H2094 C2109 0.930 . S
C2095 H2083 0.930 . S
C2095 C2096 1.399 . S
C2095 C2100 1.399 . S
C2096 C2095 1.399 . S
C2096 C2097 1.376 . S
C2097 H2084 0.930 . S
C2097 C2096 1.376 . S
C2097 C2098 1.388 . S
C2098 H2085 0.930 . S
C2098 C2097 1.388 . S
C2098 C2099 1.390 . S
C2099 C2098 1.390 . S
C2099 C2100 1.394 . S
C2099 C2105 1.465 1_565 S
C2100 C2095 1.399 . S
C2100 C2099 1.394 . S
C2100 C2101 1.534 1_655 S
C2101 C2100 1.534 1_455 S
C2101 C2102 1.507 . S
C2101 C2103 1.557 1_465 S
C2101 C2104 1.507 1_565 S
C2102 H2086 0.959 . S
C2102 H2087 0.959 1_565 S
C2102 H2088 0.961 . S
C2102 C2101 1.507 . S
C2103 H2089 0.960 1_545 S
C2103 H2090 0.961 . S
C2103 H2091 0.959 . S
C2103 C2101 1.557 1_645 S
C2104 C2101 1.507 1_545 S
C2104 C2105 1.396 1_455 S
C2104 C2109 1.390 . S
C2105 C2099 1.465 1_545 S
C2105 C2104 1.396 1_655 S
C2105 C2106 1.399 . S
C2106 H2092 0.935 . S
C2106 C2105 1.399 . S
C2106 C2107 1.379 1_655 S
C2107 H2093 0.931 . S
C2107 C2106 1.379 1_455 S
C2107 C2108 1.389 . S
C2108 C2107 1.389 . S
C2108 C2109 1.387 . S
C2109 H2094 0.930 . S
C2109 C2104 1.390 . S
C2109 C2108 1.387 . S
H2110 C2122 0.930 . S
H2111 C2124 0.930 . S
H2112 C2125 0.930 . S
H2113 C2129 0.959 . S
H2114 C2129 0.959 . S
H2115 C2129 0.961 1_455 S
H2116 C2130 0.960 . S
H2117 C2130 0.961 1_655 S
H2118 C2130 0.959 . S
H2119 C2133 0.929 . S
H2120 C2134 0.931 . S
H2121 C2136 0.930 . S
C2122 H2110 0.930 . S
C2122 C2123 1.399 . S
C2122 C2127 1.399 . S
C2123 C2122 1.399 . S
C2123 C2124 1.376 . S
C2124 H2111 0.930 . S
C2124 C2123 1.376 . S
C2124 C2125 1.388 . S
C2125 H2112 0.930 . S
C2125 C2124 1.388 . S
C2125 C2126 1.390 . S
C2126 C2125 1.390 . S
C2126 C2127 1.394 . S
C2126 C2132 1.465 1_455 S
C2127 C2122 1.399 . S
C2127 C2126 1.394 . S
C2127 C2128 1.493 1_455 S
C2128 C2127 1.493 1_655 S
C2128 C2129 1.509 . S
C2128 C2130 1.556 1_655 S
C2128 C2131 1.548 . S
C2129 H2113 0.959 . S
C2129 H2114 0.959 . S
C2129 H2115 0.961 1_655 S
C2129 C2128 1.509 . S
C2130 H2116 0.960 . S
C2130 H2117 0.961 1_455 S
C2130 H2118 0.959 . S
C2130 C2128 1.556 1_455 S
C2131 C2128 1.548 . S
C2131 C2132 1.396 . S
C2131 C2136 1.390 . S
C2132 C2126 1.465 1_655 S
C2132 C2131 1.396 . S
C2132 C2133 1.399 . S
C2133 H2119 0.929 . S
C2133 C2132 1.399 . S
C2133 C2134 1.385 . S
C2134 H2120 0.931 . S
C2134 C2133 1.385 . S
C2134 C2135 1.389 . S
C2135 C2134 1.389 . S
C2135 C2136 1.387 . S
C2136 H2121 0.930 . S
C2136 C2131 1.390 . S
C2136 C2135 1.387 . S
H2137 C2149 0.930 . S
H2138 C2151 0.930 . S
H2139 C2152 0.930 . S
H2140 C2156 0.959 . S
H2141 C2156 0.959 . S
H2142 C2156 0.961 . S
H2143 C2157 0.960 . S
H2144 C2157 0.961 . S
H2145 C2157 0.959 . S
H2146 C2160 0.929 . S
H2147 C2161 0.931 . S
H2148 C2163 0.930 . S
C2149 H2137 0.930 . S
C2149 C2150 1.399 . S
C2149 C2154 1.399 . S
C2150 C2149 1.399 . S
C2150 C2151 1.376 . S
C2151 H2138 0.930 . S
C2151 C2150 1.376 . S
C2151 C2152 1.388 . S
C2152 H2139 0.930 . S
C2152 C2151 1.388 . S
C2152 C2153 1.390 . S
C2153 C2152 1.390 . S
C2153 C2154 1.394 . S
C2153 C2159 1.465 . S
C2154 C2149 1.399 . S
C2154 C2153 1.394 . S
C2154 C2155 1.516 . S
C2155 C2154 1.516 . S
C2155 C2156 1.502 . S
C2155 C2157 1.561 . S
C2155 C2158 1.526 . S
C2156 H2140 0.959 . S
C2156 H2141 0.959 . S
C2156 H2142 0.961 . S
C2156 C2155 1.502 . S
C2157 H2143 0.960 . S
C2157 H2144 0.961 . S
C2157 H2145 0.959 . S
C2157 C2155 1.561 . S
C2158 C2155 1.526 . S
C2158 C2159 1.396 . S
C2158 C2163 1.390 . S
C2159 C2153 1.465 . S
C2159 C2158 1.396 . S
C2159 C2160 1.399 . S
C2160 H2146 0.929 . S
C2160 C2159 1.399 . S
C2160 C2161 1.385 . S
C2161 H2147 0.931 . S
C2161 C2160 1.385 . S
C2161 C2162 1.389 . S
C2162 C2161 1.389 . S
C2162 C2163 1.387 . S
C2163 H2148 0.930 . S
C2163 C2158 1.390 . S
C2163 C2162 1.387 . S
H2164 C2176 0.930 . S
H2165 C2178 0.930 . S
H2166 C2179 0.930 . S
H2167 C2183 0.959 . S
H2168 C2183 0.959 . S
H2169 C2183 0.961 . S
H2170 C2184 0.960 . S
H2171 C2184 0.961 . S
H2172 C2184 0.959 . S
H2173 C2187 0.929 . S
H2174 C2188 0.931 . S
H2175 C2190 0.930 . S
C2176 H2164 0.930 . S
C2176 C2177 1.399 . S
C2176 C2181 1.399 . S
C2177 C2176 1.399 . S
C2177 C2178 1.376 . S
C2178 H2165 0.930 . S
C2178 C2177 1.376 . S
C2178 C2179 1.388 . S
C2179 H2166 0.930 . S
C2179 C2178 1.388 . S
C2179 C2180 1.390 . S
C2180 C2179 1.390 . S
C2180 C2181 1.394 . S
C2180 C2186 1.465 . S
C2181 C2176 1.399 . S
C2181 C2180 1.394 . S
C2181 C2182 1.516 . S
C2182 C2181 1.516 . S
C2182 C2183 1.502 . S
C2182 C2184 1.561 . S
C2182 C2185 1.526 . S
C2183 H2167 0.959 . S
C2183 H2168 0.959 . S
C2183 H2169 0.961 . S
C2183 C2182 1.502 . S
C2184 H2170 0.960 . S
C2184 H2171 0.961 . S
C2184 H2172 0.959 . S
C2184 C2182 1.561 . S
C2185 C2182 1.526 . S
C2185 C2186 1.396 . S
C2185 C2190 1.390 . S
C2186 C2180 1.465 . S
C2186 C2185 1.396 . S
C2186 C2187 1.399 . S
C2187 H2173 0.929 . S
C2187 C2186 1.399 . S
C2187 C2188 1.385 . S
C2188 H2174 0.931 . S
C2188 C2187 1.385 . S
C2188 C2189 1.389 . S
C2189 C2188 1.389 . S
C2189 C2190 1.387 . S
C2190 H2175 0.930 . S
C2190 C2185 1.390 . S
C2190 C2189 1.387 . S
H2191 C2203 0.930 . S
H2192 C2205 0.930 . S
H2193 C2206 0.930 . S
H2194 C2210 0.959 . S
H2195 C2210 0.959 . S
H2196 C2210 0.961 1_545 S
H2197 C2211 0.960 . S
H2198 C2211 0.961 1_565 S
H2199 C2211 0.959 . S
H2200 C2214 0.929 . S
H2201 C2215 0.931 . S
H2202 C2217 0.930 . S
C2203 H2191 0.930 . S
C2203 C2204 1.399 . S
C2203 C2208 1.399 . S
C2204 C2203 1.399 . S
C2204 C2205 1.376 . S
C2205 H2192 0.930 . S
C2205 C2204 1.376 . S
C2205 C2206 1.388 . S
C2206 H2193 0.930 . S
C2206 C2205 1.388 . S
C2206 C2207 1.390 . S
C2207 C2206 1.390 . S
C2207 C2208 1.394 . S
C2207 C2213 1.465 1_545 S
C2208 C2203 1.399 . S
C2208 C2207 1.394 . S
C2208 C2209 1.501 1_545 S
C2209 C2208 1.501 1_565 S
C2209 C2210 1.506 . S
C2209 C2211 1.557 1_565 S
C2209 C2212 1.540 . S
C2210 H2194 0.959 . S
C2210 H2195 0.959 . S
C2210 H2196 0.961 1_565 S
C2210 C2209 1.506 . S
C2211 H2197 0.960 . S
C2211 H2198 0.961 1_545 S
C2211 H2199 0.959 . S
C2211 C2209 1.557 1_545 S
C2212 C2209 1.540 . S
C2212 C2213 1.396 . S
C2212 C2217 1.390 . S
C2213 C2207 1.465 1_565 S
C2213 C2212 1.396 . S
C2213 C2214 1.399 . S
C2214 H2200 0.929 . S
C2214 C2213 1.399 . S
C2214 C2215 1.385 . S
C2215 H2201 0.931 . S
C2215 C2214 1.385 . S
C2215 C2216 1.389 . S
C2216 C2215 1.389 . S
C2216 C2217 1.387 . S
C2217 H2202 0.930 . S
C2217 C2212 1.390 . S
C2217 C2216 1.387 . S
H2218 C2230 0.930 . S
H2219 C2232 0.930 . S
H2220 C2233 0.930 . S
H2221 C2237 0.959 . S
H2222 C2237 0.959 1_455 S
H2223 C2237 0.961 . S
H2224 C2238 0.960 . S
H2225 C2238 0.961 . S
H2226 C2238 0.959 . S
H2227 C2241 0.929 . S
H2228 C2242 0.931 . S
H2229 C2244 0.930 . S
C2230 H2218 0.930 . S
C2230 C2231 1.399 1_545 S
C2230 C2235 1.399 . S
C2231 C2230 1.399 1_565 S
C2231 C2232 1.376 . S
C2232 H2219 0.930 . S
C2232 C2231 1.376 . S
C2232 C2233 1.388 . S
C2233 H2220 0.930 . S
C2233 C2232 1.388 . S
C2233 C2234 1.390 . S
C2234 C2233 1.390 . S
C2234 C2235 1.394 1_565 S
C2234 C2240 1.465 1_655 S
C2235 C2230 1.399 . S
C2235 C2234 1.394 1_545 S
C2235 C2236 1.516 . S
C2236 C2235 1.516 . S
C2236 C2237 1.502 . S
C2236 C2238 1.561 . S
C2236 C2239 1.526 1_655 S
C2237 H2221 0.959 . S
C2237 H2222 0.959 1_655 S
C2237 H2223 0.961 . S
C2237 C2236 1.502 . S
C2238 H2224 0.960 . S
C2238 H2225 0.961 . S
C2238 H2226 0.959 . S
C2238 C2236 1.561 . S
C2239 C2236 1.526 1_455 S
C2239 C2240 1.396 1_545 S
C2239 C2244 1.390 . S
C2240 C2234 1.465 1_455 S
C2240 C2239 1.396 1_565 S
C2240 C2241 1.399 . S
C2241 H2227 0.929 . S
C2241 C2240 1.399 . S
C2241 C2242 1.385 . S
C2242 H2228 0.931 . S
C2242 C2241 1.385 . S
C2242 C2243 1.389 1_565 S
C2243 C2242 1.389 1_545 S
C2243 C2244 1.387 . S
C2244 H2229 0.930 . S
C2244 C2239 1.390 . S
C2244 C2243 1.387 . S
H2245 C2257 0.930 . S
H2246 C2259 0.930 . S
H2247 C2260 0.930 . S
H2248 C2264 0.959 . S
H2249 C2264 0.959 . S
H2250 C2264 0.961 . S
H2251 C2265 0.960 . S
H2252 C2265 0.961 . S
H2253 C2265 0.959 . S
H2254 C2268 0.929 . S
H2255 C2269 0.931 . S
H2256 C2271 0.930 . S
C2257 H2245 0.930 . S
C2257 C2258 1.399 . S
C2257 C2262 1.399 . S
C2258 C2257 1.399 . S
C2258 C2259 1.376 . S
C2259 H2246 0.930 . S
C2259 C2258 1.376 . S
C2259 C2260 1.388 1_655 S
C2260 H2247 0.930 . S
C2260 C2259 1.388 1_455 S
C2260 C2261 1.390 . S
C2261 C2260 1.390 . S
C2261 C2262 1.394 1_455 S
C2261 C2267 1.465 . S
C2262 C2257 1.399 . S
C2262 C2261 1.394 1_655 S
C2262 C2263 1.516 . S
C2263 C2262 1.516 . S
C2263 C2264 1.502 . S
C2263 C2265 1.561 1_655 S
C2263 C2266 1.526 1_655 S
C2264 H2248 0.959 . S
C2264 H2249 0.959 . S
C2264 H2250 0.961 . S
C2264 C2263 1.502 . S
C2265 H2251 0.960 . S
C2265 H2252 0.961 . S
C2265 H2253 0.959 . S
C2265 C2263 1.561 1_455 S
C2266 C2263 1.526 1_455 S
C2266 C2267 1.396 . S
C2266 C2271 1.390 . S
C2267 C2261 1.465 . S
C2267 C2266 1.396 . S
C2267 C2268 1.399 . S
C2268 H2254 0.929 . S
C2268 C2267 1.399 . S
C2268 C2269 1.385 . S
C2269 H2255 0.931 . S
C2269 C2268 1.385 . S
C2269 C2270 1.389 . S
C2270 C2269 1.389 . S
C2270 C2271 1.387 . S
C2271 H2256 0.930 . S
C2271 C2266 1.390 . S
C2271 C2270 1.387 . S
C1421 C372 1.070 . S
C1433 C57 1.167 . S
C1448 C145 1.158 . S
C1460 C460 1.084 . S
C1475 C548 1.157 . S
C1487 C233 1.061 . S
C1502 C645 1.162 . S
C1514 C313 1.057 . S
C1529 C1085 1.162 . S
C1541 C753 1.057 . S
C1556 C841 1.151 . S
C1568 C1164 1.094 . S
C1583 C1252 1.071 . S
C1595 C929 1.166 . S
C1610 C1025 1.161 . S
C1622 C1340 1.080 . S
C1637 C29 1.142 . S
C1649 C1369 1.093 . S
C1664 C117 1.147 . S
C1676 C1113 1.157 . S
C1691 C205 1.093 . S
C1703 C1193 1.143 . S
C1718 C1281 1.148 . S
C1730 C284 1.098 . S
C1745 C401 1.147 . S
C1757 C812 1.097 . S
C1772 C489 1.150 . S
C1784 C900 1.155 . S
C1799 C997 1.145 . S
C1811 C577 1.158 . S
C1826 C724 1.092 . S
C1838 C673 1.141 . S
C1853 C49 1.537 . S
C1865 C937 1.538 . S
C1880 C1017 1.533 . S
C1892 C137 1.543 . S
C1907 C225 1.530 . S
C1919 C761 1.546 . S
C1934 C849 1.530 . S
C1946 C321 1.548 . S
C1961 C381 1.548 . S
C1973 C1261 1.538 . S
C1988 C469 1.550 . S
C2000 C1349 1.536 . S
C2015 C1076 1.530 . S
C2027 C557 1.546 . S
C2042 C1173 1.532 . S
C2054 C636 1.544 . S
C2069 C909 1.636 . S
C2081 C20 1.671 . S
C2096 C108 1.641 . S
C2108 C988 1.661 . S
C2123 C196 1.680 . S
C2135 C733 1.661 . S
C2150 C821 1.683 . S
C2162 C293 1.654 . S
C2177 C1289 1.639 . S
C2189 C409 1.663 . S
C2204 C1377 1.680 . S
C2216 C497 1.661 . S
C2231 C1105 1.649 . S
C2243 C585 1.684 . S
C2258 C665 1.682 . S
C2270 C1201 1.658 . S
