# Generated by pormake.
# Topology ukb, (4)-cn, num edge types: 1
# Building blocks:
#     Node 0, Type 0, BuildingBlock: GALJAG_clean_sbu_0, # of connection points: 4
#     Node 1, Type 0, BuildingBlock: GALJAG_clean_sbu_0, # of connection points: 4
#     Node 2, Type 0, BuildingBlock: GALJAG_clean_sbu_0, # of connection points: 4
#     Node 3, Type 0, BuildingBlock: GALJAG_clean_sbu_0, # of connection points: 4
#     Node 4, Type 0, BuildingBlock: GALJAG_clean_sbu_0, # of connection points: 4
#     Node 5, Type 0, BuildingBlock: GALJAG_clean_sbu_0, # of connection points: 4
#     Node 6, Type 0, BuildingBlock: GALJAG_clean_sbu_0, # of connection points: 4
#     Node 7, Type 0, BuildingBlock: GALJAG_clean_sbu_0, # of connection points: 4
#     Node 8, Type 0, BuildingBlock: GALJAG_clean_sbu_0, # of connection points: 4
#     Node 9, Type 0, BuildingBlock: GALJAG_clean_sbu_0, # of connection points: 4
#     Node 10, Type 0, BuildingBlock: GALJAG_clean_sbu_0, # of connection points: 4
#     Node 11, Type 0, BuildingBlock: GALJAG_clean_sbu_0, # of connection points: 4
#     Node 12, Type 0, BuildingBlock: GALJAG_clean_sbu_0, # of connection points: 4
#     Node 13, Type 0, BuildingBlock: GALJAG_clean_sbu_0, # of connection points: 4
#     Node 14, Type 0, BuildingBlock: GALJAG_clean_sbu_0, # of connection points: 4
#     Node 15, Type 0, BuildingBlock: GALJAG_clean_sbu_0, # of connection points: 4
#     Edge 16, Type (0, 0), BuildingBlock: ZUJKAS_clean_linker_0, # of connection points: 2
#     Edge 17, Type (0, 0), BuildingBlock: ZUJKAS_clean_linker_0, # of connection points: 2
#     Edge 18, Type (0, 0), BuildingBlock: ZUJKAS_clean_linker_0, # of connection points: 2
#     Edge 19, Type (0, 0), BuildingBlock: ZUJKAS_clean_linker_0, # of connection points: 2
#     Edge 20, Type (0, 0), BuildingBlock: ZUJKAS_clean_linker_0, # of connection points: 2
#     Edge 21, Type (0, 0), BuildingBlock: ZUJKAS_clean_linker_0, # of connection points: 2
#     Edge 22, Type (0, 0), BuildingBlock: ZUJKAS_clean_linker_0, # of connection points: 2
#     Edge 23, Type (0, 0), BuildingBlock: ZUJKAS_clean_linker_0, # of connection points: 2
#     Edge 24, Type (0, 0), BuildingBlock: ZUJKAS_clean_linker_0, # of connection points: 2
#     Edge 25, Type (0, 0), BuildingBlock: ZUJKAS_clean_linker_0, # of connection points: 2
#     Edge 26, Type (0, 0), BuildingBlock: ZUJKAS_clean_linker_0, # of connection points: 2
#     Edge 27, Type (0, 0), BuildingBlock: ZUJKAS_clean_linker_0, # of connection points: 2
#     Edge 28, Type (0, 0), BuildingBlock: ZUJKAS_clean_linker_0, # of connection points: 2
#     Edge 29, Type (0, 0), BuildingBlock: ZUJKAS_clean_linker_0, # of connection points: 2
#     Edge 30, Type (0, 0), BuildingBlock: ZUJKAS_clean_linker_0, # of connection points: 2
#     Edge 31, Type (0, 0), BuildingBlock: ZUJKAS_clean_linker_0, # of connection points: 2
#     Edge 32, Type (0, 0), BuildingBlock: ZUJKAS_clean_linker_0, # of connection points: 2
#     Edge 33, Type (0, 0), BuildingBlock: ZUJKAS_clean_linker_0, # of connection points: 2
#     Edge 34, Type (0, 0), BuildingBlock: ZUJKAS_clean_linker_0, # of connection points: 2
#     Edge 35, Type (0, 0), BuildingBlock: ZUJKAS_clean_linker_0, # of connection points: 2
#     Edge 36, Type (0, 0), BuildingBlock: ZUJKAS_clean_linker_0, # of connection points: 2
#     Edge 37, Type (0, 0), BuildingBlock: ZUJKAS_clean_linker_0, # of connection points: 2
#     Edge 38, Type (0, 0), BuildingBlock: ZUJKAS_clean_linker_0, # of connection points: 2
#     Edge 39, Type (0, 0), BuildingBlock: ZUJKAS_clean_linker_0, # of connection points: 2
#     Edge 40, Type (0, 0), BuildingBlock: ZUJKAS_clean_linker_0, # of connection points: 2
#     Edge 41, Type (0, 0), BuildingBlock: ZUJKAS_clean_linker_0, # of connection points: 2
#     Edge 42, Type (0, 0), BuildingBlock: ZUJKAS_clean_linker_0, # of connection points: 2
#     Edge 43, Type (0, 0), BuildingBlock: ZUJKAS_clean_linker_0, # of connection points: 2
#     Edge 44, Type (0, 0), BuildingBlock: ZUJKAS_clean_linker_0, # of connection points: 2
#     Edge 45, Type (0, 0), BuildingBlock: ZUJKAS_clean_linker_0, # of connection points: 2
#     Edge 46, Type (0, 0), BuildingBlock: ZUJKAS_clean_linker_0, # of connection points: 2
#     Edge 47, Type (0, 0), BuildingBlock: ZUJKAS_clean_linker_0, # of connection points: 2
# Relax obj value: 0.140
# Max RMSD: 0.093
# Mean RMSD: 0.093
data_MOF--net-ukb--node1-GALJAG_clean_sbu_0--edge1-ZUJKAS_clean_linker_0
_symmetry_space_group_name_H-M    P1
_symmetry_Int_Tables_number       1
_symmetry_cell_setting            triclinic
loop_
_symmetry_equiv_pos_as_xyz
'x, y, z'
_cell_length_a     57.597812
_cell_length_b     57.588902
_cell_length_c     49.113608
_cell_angle_alpha  89.966046
_cell_angle_beta   90.033557
_cell_angle_gamma 90.001669
loop_
_atom_site_label
_atom_site_type_symbol
_atom_site_fract_x
_atom_site_fract_y
_atom_site_fract_z
_atom_type_partial_charge
In0 In 0.52259 0.19681 0.19193 0.0
O1 O 0.55265 0.17307 0.18044 0.0
O2 O 0.53793 0.16907 0.21984 0.0
C3 C 0.51789 0.21007 0.13964 0.0
C4 C 0.48121 0.1789 0.20701 0.0
C5 C 0.54112 0.23516 0.21501 0.0
O6 O 0.52606 0.19055 0.14634 0.0
O7 O 0.51195 0.22282 0.15932 0.0
O8 O 0.51949 0.23252 0.21227 0.0
O9 O 0.55318 0.21841 0.20659 0.0
C10 C 0.55305 0.16247 0.20293 0.0
O11 O 0.49436 0.18928 0.22355 0.0
O12 O 0.4888 0.17787 0.18301 0.0
In13 In 0.29944 0.52689 0.68831 0.0
O14 O 0.30772 0.49834 0.7193 0.0
O15 O 0.32231 0.49559 0.67974 0.0
C16 C 0.26061 0.54558 0.70987 0.0
C17 C 0.33312 0.55793 0.69993 0.0
C18 C 0.28385 0.51954 0.63741 0.0
O19 O 0.26593 0.52452 0.71341 0.0
O20 O 0.27485 0.55696 0.69569 0.0
O21 O 0.2994 0.53425 0.64291 0.0
O22 O 0.27617 0.5084 0.65765 0.0
C23 C 0.32039 0.48693 0.70319 0.0
O24 O 0.32755 0.55272 0.67585 0.0
O25 O 0.32197 0.54721 0.71811 0.0
In26 In 0.97263 0.29855 0.18902 0.0
O27 O 0.00806 0.29966 0.21019 0.0
O28 O 0.9967 0.32977 0.18905 0.0
C29 C 0.95638 0.25825 0.20995 0.0
C30 C 0.93782 0.3279 0.2023 0.0
C31 C 0.98239 0.28847 0.13676 0.0
O32 O 0.96967 0.27146 0.22323 0.0
O33 O 0.95151 0.26533 0.18638 0.0
O34 O 0.96658 0.30245 0.14363 0.0
O35 O 0.99357 0.27966 0.15634 0.0
C36 C 0.01238 0.32027 0.20306 0.0
O37 O 0.94141 0.32105 0.17831 0.0
O38 O 0.95183 0.31998 0.21974 0.0
In39 In 0.20012 0.97378 0.69157 0.0
O40 O 0.19236 0.0035 0.72121 0.0
O41 O 0.17655 0.00434 0.68215 0.0
C42 C 0.23937 0.95802 0.71564 0.0
C43 C 0.16542 0.94406 0.70338 0.0
C44 C 0.21481 0.97577 0.63957 0.0
O45 O 0.23671 0.9791 0.70942 0.0
O46 O 0.22229 0.94526 0.7101 0.0
O47 O 0.2039 0.95858 0.64903 0.0
O48 O 0.21839 0.99194 0.65637 0.0
C49 C 0.17904 0.01403 0.70494 0.0
O50 O 0.17119 0.94884 0.67921 0.0
O51 O 0.17685 0.95463 0.72148 0.0
In52 In 0.52474 0.30023 0.81013 0.0
O53 O 0.55057 0.32888 0.82063 0.0
O54 O 0.54545 0.32092 0.77884 0.0
C55 C 0.51862 0.28796 0.86251 0.0
C56 C 0.48464 0.31971 0.79291 0.0
C57 C 0.54297 0.26012 0.79141 0.0
O58 O 0.53159 0.30453 0.85537 0.0
O59 O 0.50849 0.27765 0.84318 0.0
O60 O 0.52171 0.26498 0.7888 0.0
O61 O 0.55484 0.27545 0.80329 0.0
C62 C 0.55601 0.33308 0.79625 0.0
O63 O 0.49676 0.30673 0.77792 0.0
O64 O 0.49261 0.32262 0.81654 0.0
In65 In 0.19662 0.52486 0.30872 0.0
O66 O 0.19641 0.48909 0.28815 0.0
O67 O 0.16481 0.50198 0.30447 0.0
C68 C 0.23828 0.53947 0.29022 0.0
C69 C 0.16742 0.55896 0.29278 0.0
C70 C 0.20535 0.51724 0.36187 0.0
O71 O 0.22571 0.52557 0.27686 0.0
O72 O 0.22986 0.54576 0.31272 0.0
O73 O 0.19649 0.53583 0.35311 0.0
O74 O 0.20974 0.50232 0.34379 0.0
C75 C 0.17505 0.48569 0.29228 0.0
O76 O 0.16679 0.55007 0.31623 0.0
O77 O 0.18276 0.55062 0.27729 0.0
In78 In 0.97356 0.20164 0.80741 0.0
O79 O 0.95097 0.17002 0.81706 0.0
O80 O 0.94947 0.18391 0.77705 0.0
C81 C 0.98066 0.21454 0.85941 0.0
C82 C 0.01279 0.18094 0.78981 0.0
C83 C 0.95668 0.24237 0.78874 0.0
O84 O 0.96346 0.20249 0.85209 0.0
O85 O 0.99438 0.22009 0.84047 0.0
O86 O 0.97711 0.23574 0.78354 0.0
O87 O 0.94506 0.22853 0.80322 0.0
C88 C 0.94223 0.16879 0.79355 0.0
O89 O 0.00168 0.19525 0.77535 0.0
O90 O 0.00421 0.17731 0.81302 0.0
In91 In 0.29992 0.96811 0.30801 0.0
O92 O 0.32852 0.94216 0.31805 0.0
O93 O 0.32095 0.94809 0.27631 0.0
C94 C 0.28736 0.97345 0.36045 0.0
C95 C 0.3201 0.00828 0.29242 0.0
C96 C 0.2597 0.95121 0.28775 0.0
O97 O 0.3018 0.95838 0.35274 0.0
O98 O 0.27924 0.98603 0.34167 0.0
O99 O 0.26533 0.97229 0.28549 0.0
O100 O 0.27432 0.9388 0.30009 0.0
C101 C 0.33298 0.93723 0.2936 0.0
O102 O 0.3059 0.99749 0.27754 0.0
O103 O 0.32403 0.99887 0.31513 0.0
In104 In 0.47425 0.79919 0.8071 0.0
O105 O 0.50464 0.80622 0.77824 0.0
O106 O 0.50306 0.82516 0.81531 0.0
C107 C 0.45663 0.75998 0.78504 0.0
C108 C 0.44216 0.83155 0.79416 0.0
C109 C 0.48284 0.78483 0.85833 0.0
O110 O 0.47716 0.76656 0.78045 0.0
O111 O 0.44521 0.77316 0.80048 0.0
O112 O 0.46851 0.8007 0.8528 0.0
O113 O 0.49301 0.77618 0.83796 0.0
C114 C 0.51378 0.82138 0.79339 0.0
O115 O 0.44462 0.82368 0.81795 0.0
O116 O 0.456 0.82321 0.77684 0.0
In117 In 0.69753 0.47162 0.31012 0.0
O118 O 0.67495 0.44021 0.31947 0.0
O119 O 0.67572 0.45227 0.27857 0.0
C120 C 0.70755 0.48273 0.3621 0.0
C121 C 0.67534 0.51068 0.29479 0.0
C122 C 0.73759 0.45389 0.29042 0.0
O123 O 0.69289 0.46739 0.35578 0.0
O124 O 0.71714 0.49266 0.34215 0.0
O125 O 0.72744 0.47081 0.2792 0.0
O126 O 0.72762 0.44623 0.31139 0.0
C127 C 0.66787 0.43764 0.29536 0.0
O128 O 0.69576 0.50615 0.28708 0.0
O129 O 0.66631 0.49556 0.31005 0.0
In130 In 0.02547 0.70177 0.8079 0.0
O131 O 0.05328 0.67507 0.81827 0.0
O132 O 0.04919 0.68422 0.77672 0.0
C133 C 0.01632 0.71317 0.85987 0.0
C134 C 0.98677 0.67832 0.79382 0.0
C135 C 0.04047 0.7429 0.7881 0.0
O136 O 0.03438 0.70238 0.85274 0.0
O137 O 0.00263 0.71828 0.84067 0.0
O138 O 0.02635 0.73028 0.77513 0.0
O139 O 0.04676 0.73478 0.81074 0.0
C140 C 0.05992 0.67217 0.79409 0.0
O141 O 0.99125 0.6982 0.78432 0.0
O142 O 0.00168 0.67054 0.81022 0.0
In143 In 0.79656 0.02626 0.30534 0.0
O144 O 0.80084 0.99576 0.27592 0.0
O145 O 0.82357 0.99788 0.30994 0.0
C146 C 0.7564 0.03884 0.28082 0.0
C147 C 0.83011 0.05785 0.29529 0.0
C148 C 0.78354 0.0235 0.35795 0.0
O149 O 0.75867 0.01959 0.29278 0.0
O150 O 0.77436 0.05127 0.28084 0.0
O151 O 0.78575 0.04261 0.34565 0.0
O152 O 0.78788 0.00582 0.34373 0.0
C153 C 0.81761 0.98693 0.28886 0.0
O154 O 0.82315 0.05336 0.31908 0.0
O155 O 0.82044 0.04615 0.27678 0.0
In156 In 0.47123 0.69497 0.18527 0.0
O157 O 0.44521 0.66604 0.17705 0.0
O158 O 0.44878 0.67773 0.21786 0.0
C159 C 0.47994 0.706 0.13284 0.0
C160 C 0.5103 0.67308 0.20132 0.0
C161 C 0.45465 0.7356 0.2046 0.0
O162 O 0.4619 0.69535 0.14024 0.0
O163 O 0.49369 0.7111 0.15189 0.0
O164 O 0.47312 0.72658 0.21353 0.0
O165 O 0.44474 0.72417 0.18607 0.0
C166 C 0.43873 0.66416 0.20148 0.0
O167 O 0.5052 0.69326 0.20939 0.0
O168 O 0.49572 0.6641 0.18532 0.0
In169 In 0.79765 0.47382 0.68858 0.0
O170 O 0.80474 0.50339 0.71856 0.0
O171 O 0.82311 0.50317 0.68105 0.0
C172 C 0.75786 0.45638 0.70923 0.0
C173 C 0.83069 0.44255 0.7019 0.0
C174 C 0.78345 0.48177 0.6372 0.0
O175 O 0.76417 0.47704 0.71361 0.0
O176 O 0.7716 0.44476 0.69467 0.0
O177 O 0.79653 0.46504 0.64352 0.0
O178 O 0.77746 0.49455 0.65685 0.0
C179 C 0.81955 0.51317 0.70348 0.0
O180 O 0.82615 0.44795 0.67758 0.0
O181 O 0.81872 0.45307 0.7195 0.0
In182 In 0.02355 0.80002 0.18835 0.0
O183 O 0.04914 0.82891 0.17775 0.0
O184 O 0.04494 0.82027 0.21945 0.0
C185 C 0.01569 0.78662 0.13679 0.0
C186 C 0.98347 0.82072 0.20307 0.0
C187 C 0.04118 0.75969 0.20728 0.0
O188 O 0.03132 0.80102 0.14314 0.0
O189 O 0.00393 0.77893 0.15654 0.0
O190 O 0.02135 0.7669 0.21425 0.0
O191 O 0.0519 0.77281 0.19106 0.0
C192 C 0.05511 0.83272 0.20203 0.0
O193 O 0.99454 0.80756 0.21901 0.0
O194 O 0.9926 0.82333 0.17998 0.0
In195 In 0.70082 0.02809 0.69012 0.0
O196 O 0.6963 0.99595 0.71707 0.0
O197 O 0.67342 0.00034 0.68353 0.0
C198 C 0.74182 0.04353 0.70965 0.0
C199 C 0.66888 0.05945 0.70663 0.0
C200 C 0.71342 0.02316 0.63767 0.0
O201 O 0.73311 0.02446 0.71722 0.0
O202 O 0.72981 0.05463 0.6926 0.0
O203 O 0.7018 0.0402 0.64625 0.0
O204 O 0.71862 0.0083 0.65558 0.0
C205 C 0.67925 0.98816 0.70373 0.0
O206 O 0.67053 0.05265 0.68234 0.0
O207 O 0.68327 0.05035 0.72277 0.0
H208 H 0.44822 0.16011 0.17406 0.0
H209 H 0.41507 0.13627 0.18763 0.0
H210 H 0.43306 0.14617 0.27213 0.0
H211 H 0.46586 0.17057 0.25868 0.0
H212 H 0.41969 0.09592 0.21389 0.0
H213 H 0.36349 0.15393 0.27492 0.0
H214 H 0.38623 0.16484 0.25309 0.0
H215 H 0.39302 0.15393 0.28652 0.0
C216 C 0.4448 0.15761 0.19555 0.0
C217 C 0.45963 0.1671 0.21534 0.0
C218 C 0.42586 0.14401 0.20327 0.0
C219 C 0.42144 0.13962 0.23089 0.0
C220 C 0.43577 0.14977 0.25073 0.0
H221 H 0.35008 0.03496 0.32183 0.0
H222 H 0.37237 0.06849 0.30586 0.0
C223 C 0.45462 0.16358 0.24302 0.0
C224 C 0.40368 0.12226 0.23872 0.0
H225 H 0.35696 0.11291 0.28012 0.0
C226 C 0.40576 0.09975 0.22804 0.0
C227 C 0.38559 0.12726 0.2573 0.0
C228 C 0.38178 0.15137 0.26841 0.0
C229 C 0.39072 0.08191 0.23607 0.0
C230 C 0.37301 0.08677 0.2551 0.0
C231 C 0.37061 0.10933 0.2655 0.0
C232 C 0.35764 0.06822 0.26535 0.0
C233 C 0.39439 0.05777 0.22487 0.0
C234 C 0.34165 0.05738 0.24796 0.0
C235 C 0.32891 0.03822 0.25699 0.0
C236 C 0.33202 0.02965 0.28354 0.0
C237 C 0.34742 0.04111 0.30121 0.0
C238 C 0.36009 0.0603 0.29219 0.0
H239 H 0.41124 0.05609 0.21405 0.0
H240 H 0.39378 0.04471 0.2415 0.0
H241 H 0.38027 0.05365 0.21027 0.0
H242 H 0.33944 0.06341 0.22722 0.0
H243 H 0.31708 0.02979 0.24298 0.0
H244 H 0.32666 0.46985 0.75458 0.0
H245 H 0.35132 0.43714 0.76813 0.0
H246 H 0.3668 0.42335 0.68374 0.0
H247 H 0.34278 0.45638 0.67013 0.0
H248 H 0.35168 0.39012 0.75621 0.0
H249 H 0.43077 0.43344 0.71612 0.0
H250 H 0.40344 0.4484 0.71972 0.0
H251 H 0.40837 0.42952 0.69113 0.0
C252 C 0.33519 0.45972 0.73893 0.0
C253 C 0.3331 0.46582 0.71135 0.0
C254 C 0.34923 0.44104 0.74669 0.0
C255 C 0.36126 0.42816 0.72696 0.0
C256 C 0.35813 0.43345 0.69932 0.0
H257 H 0.46799 0.3217 0.7409 0.0
H258 H 0.43568 0.34543 0.72411 0.0
C259 C 0.34433 0.45225 0.69158 0.0
C260 C 0.37794 0.40996 0.73536 0.0
H261 H 0.43527 0.39516 0.73252 0.0
C262 C 0.36995 0.39118 0.75102 0.0
C263 C 0.4018 0.41147 0.72864 0.0
C264 C 0.41169 0.43189 0.71321 0.0
C265 C 0.38523 0.37378 0.76003 0.0
C266 C 0.40901 0.37536 0.75328 0.0
C267 C 0.41694 0.39395 0.73738 0.0
C268 C 0.42639 0.35876 0.76381 0.0
C269 C 0.37588 0.35382 0.77661 0.0
C270 C 0.43167 0.35835 0.79167 0.0
C271 C 0.45018 0.345 0.80127 0.0
C272 C 0.46368 0.33184 0.78313 0.0
C273 C 0.45784 0.33163 0.75535 0.0
C274 C 0.43942 0.34514 0.74574 0.0
H275 H 0.35673 0.35221 0.77464 0.0
H276 H 0.38404 0.3372 0.7703 0.0
H277 H 0.38006 0.35673 0.7984 0.0
H278 H 0.42205 0.36907 0.80585 0.0
H279 H 0.4543 0.34548 0.82279 0.0
H280 H 0.02463 0.36436 0.18962 0.0
H281 H 0.05904 0.38572 0.20404 0.0
H282 H 0.08324 0.32564 0.24823 0.0
H283 H 0.04846 0.30414 0.23413 0.0
H284 H 0.08446 0.36481 0.27888 0.0
H285 H 0.12611 0.38224 0.17978 0.0
H286 H 0.09614 0.39065 0.17923 0.0
H287 H 0.10372 0.36056 0.18395 0.0
C288 C 0.03738 0.35559 0.20217 0.0
C289 C 0.03387 0.33259 0.21077 0.0
C290 C 0.05716 0.36775 0.21018 0.0
C291 C 0.07394 0.35712 0.22673 0.0
C292 C 0.0706 0.33407 0.2352 0.0
H293 H 0.19294 0.44752 0.26634 0.0
H294 H 0.17178 0.41254 0.25203 0.0
C295 C 0.05075 0.32184 0.22718 0.0
C296 C 0.09376 0.37096 0.23699 0.0
H297 H 0.13525 0.40934 0.21617 0.0
C298 C 0.09591 0.37416 0.2652 0.0
C299 C 0.10904 0.38279 0.2192 0.0
C300 C 0.10881 0.37867 0.18887 0.0
C301 C 0.11171 0.39025 0.27594 0.0
C302 C 0.12533 0.40377 0.25796 0.0
C303 C 0.12451 0.39924 0.22991 0.0
C304 C 0.13861 0.42419 0.26757 0.0
C305 C 0.1132 0.39308 0.30643 0.0
C306 C 0.1269 0.4424 0.28062 0.0
C307 C 0.13885 0.46225 0.28874 0.0
C308 C 0.16276 0.46442 0.28374 0.0
C309 C 0.17452 0.44626 0.2705 0.0
C310 C 0.16249 0.4263 0.26237 0.0
H311 H 0.10834 0.37675 0.31708 0.0
H312 H 0.13094 0.39821 0.31292 0.0
H313 H 0.10085 0.40677 0.31298 0.0
H314 H 0.10836 0.44142 0.28415 0.0
H315 H 0.12927 0.47601 0.29874 0.0
H316 H 0.15478 0.04239 0.671 0.0
H317 H 0.13088 0.0758 0.68337 0.0
H318 H 0.14973 0.06659 0.76773 0.0
H319 H 0.17426 0.03354 0.75534 0.0
H320 H 0.09359 0.074 0.71519 0.0
H321 H 0.15651 0.13589 0.75992 0.0
H322 H 0.16549 0.11105 0.74015 0.0
H323 H 0.15794 0.10775 0.77551 0.0
C324 C 0.15414 0.04773 0.69213 0.0
C325 C 0.16633 0.03537 0.71224 0.0
C326 C 0.1405 0.06683 0.69916 0.0
C327 C 0.13873 0.07389 0.72642 0.0
C328 C 0.15129 0.06185 0.74648 0.0
H329 H 0.04125 0.15272 0.8192 0.0
H330 H 0.07336 0.12899 0.80227 0.0
C331 C 0.16516 0.04286 0.73942 0.0
C332 C 0.12198 0.0923 0.73408 0.0
H333 H 0.11621 0.14307 0.76939 0.0
C334 C 0.09862 0.08927 0.72668 0.0
C335 C 0.12856 0.1122 0.74913 0.0
C336 C 0.15353 0.11706 0.75641 0.0
C337 C 0.08155 0.1052 0.73464 0.0
C338 C 0.08803 0.12471 0.75028 0.0
C339 C 0.11139 0.12803 0.75736 0.0
C340 C 0.07042 0.14104 0.76071 0.0
C341 C 0.05655 0.10069 0.72708 0.0
C342 C 0.05855 0.15601 0.74296 0.0
C343 C 0.04023 0.16965 0.75257 0.0
C344 C 0.03348 0.16837 0.78003 0.0
C345 C 0.04598 0.15397 0.79791 0.0
C346 C 0.06437 0.14048 0.78832 0.0
H347 H 0.05403 0.08316 0.7181 0.0
H348 H 0.04522 0.10235 0.74527 0.0
H349 H 0.05081 0.11382 0.71196 0.0
H350 H 0.06311 0.15668 0.72158 0.0
H351 H 0.03092 0.18063 0.73837 0.0
H352 H 0.53776 0.81952 0.74537 0.0
H353 H 0.5701 0.84444 0.73131 0.0
H354 H 0.56921 0.87799 0.8098 0.0
H355 H 0.53677 0.85343 0.82385 0.0
H356 H 0.56649 0.90848 0.76659 0.0
H357 H 0.63923 0.84645 0.75216 0.0
H358 H 0.61287 0.8386 0.73487 0.0
H359 H 0.6135 0.83929 0.77144 0.0
C360 C 0.54471 0.83197 0.75975 0.0
C361 C 0.53469 0.83464 0.78565 0.0
C362 C 0.56327 0.84607 0.75177 0.0
C363 C 0.57219 0.86287 0.76964 0.0
C364 C 0.56264 0.86504 0.79577 0.0
H365 H 0.68653 0.96035 0.74815 0.0
H366 H 0.66179 0.92837 0.76401 0.0
C367 C 0.54409 0.85103 0.80374 0.0
C368 C 0.58982 0.87976 0.76028 0.0
H369 H 0.64489 0.88489 0.73517 0.0
C370 C 0.58368 0.90333 0.75989 0.0
C371 C 0.61225 0.87297 0.75171 0.0
C372 C 0.62001 0.84797 0.75275 0.0
C373 C 0.59921 0.92029 0.75067 0.0
C374 C 0.62136 0.91345 0.74128 0.0
C375 C 0.62777 0.88996 0.74218 0.0
C376 C 0.63781 0.93068 0.73021 0.0
C377 C 0.59184 0.94544 0.75105 0.0
C378 C 0.63275 0.94202 0.70566 0.0
C379 C 0.64675 0.96021 0.69661 0.0
C380 C 0.66607 0.96734 0.71197 0.0
C381 C 0.67171 0.95526 0.73596 0.0
C382 C 0.65766 0.93699 0.745 0.0
H383 H 0.57631 0.94826 0.76405 0.0
H384 H 0.60616 0.95666 0.75858 0.0
H385 H 0.58751 0.95104 0.73003 0.0
H386 H 0.61757 0.93721 0.69391 0.0
H387 H 0.64205 0.9691 0.67796 0.0
H388 H 0.54608 0.6896 0.23252 0.0
H389 H 0.58072 0.6683 0.24747 0.0
H390 H 0.55626 0.60724 0.20545 0.0
H391 H 0.52212 0.62846 0.18996 0.0
H392 H 0.58326 0.63084 0.27928 0.0
H393 H 0.62248 0.60942 0.18003 0.0
H394 H 0.59984 0.6309 0.18352 0.0
H395 H 0.59268 0.60052 0.18077 0.0
C396 C 0.54827 0.6717 0.22626 0.0
C397 C 0.53147 0.6607 0.21 0.0
C398 C 0.56805 0.65959 0.23477 0.0
C399 C 0.57133 0.63633 0.22708 0.0
C400 C 0.55449 0.62536 0.21093 0.0
H401 H 0.6304 0.52144 0.30571 0.0
H402 H 0.60861 0.55529 0.29049 0.0
C403 C 0.53485 0.63746 0.2023 0.0
C404 C 0.59134 0.62279 0.23748 0.0
H405 H 0.63236 0.58364 0.2175 0.0
C406 C 0.59432 0.62087 0.26575 0.0
C407 C 0.60619 0.61023 0.21989 0.0
C408 C 0.6053 0.61309 0.18937 0.0
C409 C 0.61056 0.60541 0.27689 0.0
C410 C 0.62369 0.59108 0.25928 0.0
C411 C 0.62198 0.5943 0.23103 0.0
C412 C 0.6376 0.5713 0.2696 0.0
C413 C 0.61314 0.60428 0.30744 0.0
C414 C 0.66101 0.56864 0.26225 0.0
C415 C 0.67347 0.54903 0.27061 0.0
C416 C 0.66266 0.53176 0.28638 0.0
C417 C 0.63927 0.53453 0.29376 0.0
C418 C 0.62684 0.55401 0.28529 0.0
H419 H 0.60895 0.62127 0.31695 0.0
H420 H 0.6008 0.59126 0.31569 0.0
H421 H 0.63102 0.59921 0.31347 0.0
H422 H 0.66958 0.58167 0.2499 0.0
H423 H 0.69148 0.54731 0.2646 0.0
H424 H 0.9546 0.68839 0.7544 0.0
H425 H 0.92246 0.6636 0.73913 0.0
H426 H 0.94051 0.61285 0.80021 0.0
H427 H 0.9727 0.63721 0.81521 0.0
H428 H 0.93717 0.59469 0.74843 0.0
H429 H 0.85936 0.64748 0.77382 0.0
H430 H 0.88126 0.66219 0.75426 0.0
H431 H 0.8876 0.65308 0.78844 0.0
C432 C 0.95148 0.67208 0.76476 0.0
C433 C 0.96619 0.66465 0.78588 0.0
C434 C 0.93306 0.65803 0.75615 0.0
C435 C 0.92902 0.6365 0.76873 0.0
C436 C 0.94332 0.62942 0.79029 0.0
H437 H 0.81969 0.53449 0.75323 0.0
H438 H 0.84508 0.56626 0.76808 0.0
C439 C 0.96172 0.64336 0.7988 0.0
C440 C 0.91125 0.62032 0.75812 0.0
H441 H 0.85299 0.61296 0.74845 0.0
C442 C 0.91877 0.59869 0.74842 0.0
C443 C 0.88727 0.62557 0.75835 0.0
C444 C 0.87827 0.64825 0.76947 0.0
C445 C 0.90296 0.58209 0.73897 0.0
C446 C 0.87901 0.58745 0.7387 0.0
C447 C 0.87141 0.60905 0.74847 0.0
C448 C 0.86172 0.57043 0.7289 0.0
C449 C 0.91202 0.55872 0.72991 0.0
C450 C 0.86225 0.56284 0.70179 0.0
C451 C 0.84797 0.54466 0.69335 0.0
C452 C 0.83276 0.53392 0.71183 0.0
C453 C 0.83133 0.5424 0.7386 0.0
C454 C 0.84575 0.56055 0.74708 0.0
H455 H 0.92994 0.55548 0.7374 0.0
H456 H 0.9006 0.54449 0.73724 0.0
H457 H 0.91236 0.55811 0.70734 0.0
H458 H 0.87423 0.57054 0.68737 0.0
H459 H 0.84926 0.53865 0.67251 0.0
H460 H 0.85057 0.96268 0.31652 0.0
H461 H 0.87368 0.92998 0.29995 0.0
H462 H 0.83631 0.93132 0.2239 0.0
H463 H 0.81288 0.96405 0.24039 0.0
H464 H 0.85633 0.88313 0.27293 0.0
H465 H 0.90997 0.9434 0.21009 0.0
H466 H 0.89407 0.95337 0.23953 0.0
H467 H 0.8788 0.94599 0.20893 0.0
C468 C 0.84707 0.95586 0.29638 0.0
C469 C 0.83006 0.96599 0.27963 0.0
C470 C 0.86021 0.93714 0.28703 0.0
C471 C 0.85665 0.9284 0.26076 0.0
C472 C 0.8392 0.93793 0.24426 0.0
H473 H 0.95277 0.84231 0.16954 0.0
H474 H 0.91911 0.86561 0.18252 0.0
C475 C 0.8259 0.95658 0.25369 0.0
C476 C 0.87253 0.91055 0.25001 0.0
H477 H 0.92092 0.90426 0.21089 0.0
C478 C 0.87036 0.88759 0.25916 0.0
C479 C 0.89067 0.91658 0.23206 0.0
C480 C 0.89375 0.94116 0.22204 0.0
C481 C 0.88611 0.87038 0.25085 0.0
C482 C 0.9048 0.87657 0.2336 0.0
C483 C 0.90659 0.89951 0.22408 0.0
C484 C 0.92331 0.85997 0.22583 0.0
C485 C 0.88244 0.84576 0.26045 0.0
C486 C 0.9367 0.84878 0.24584 0.0
C487 C 0.95579 0.8352 0.23844 0.0
C488 C 0.96206 0.83301 0.21093 0.0
C489 C 0.94838 0.8438 0.19092 0.0
C490 C 0.92913 0.85708 0.19829 0.0
H491 H 0.86392 0.84248 0.26546 0.0
H492 H 0.88807 0.83301 0.24484 0.0
H493 H 0.89275 0.84281 0.27923 0.0
H494 H 0.93294 0.85126 0.26724 0.0
H495 H 0.96617 0.8272 0.25427 0.0
H496 H 0.52007 0.277 0.22422 0.0
H497 H 0.53886 0.31353 0.23745 0.0
H498 H 0.6047 0.27813 0.24323 0.0
H499 H 0.58621 0.24187 0.2293 0.0
H500 H 0.5631 0.32697 0.28213 0.0
H501 H 0.61989 0.33038 0.19139 0.0
H502 H 0.59597 0.3103 0.19421 0.0
H503 H 0.62344 0.30384 0.21003 0.0
C504 C 0.53853 0.27704 0.22845 0.0
C505 C 0.55175 0.25669 0.22548 0.0
C506 C 0.54923 0.29789 0.23596 0.0
C507 C 0.57327 0.29865 0.24066 0.0
C508 C 0.58625 0.27809 0.23891 0.0
H509 H 0.65489 0.40034 0.32583 0.0
H510 H 0.63002 0.36805 0.31212 0.0
C511 C 0.57564 0.25735 0.23115 0.0
C512 C 0.58492 0.32089 0.24725 0.0
H513 H 0.62993 0.35575 0.22809 0.0
C514 C 0.57758 0.33341 0.27019 0.0
C515 C 0.60345 0.32956 0.23129 0.0
C516 C 0.61099 0.31795 0.2052 0.0
C517 C 0.58888 0.3539 0.27821 0.0
C518 C 0.60841 0.36169 0.26328 0.0
C519 C 0.61516 0.34963 0.23976 0.0
C520 C 0.62259 0.38186 0.27203 0.0
C521 C 0.57965 0.36704 0.30247 0.0
C522 C 0.62726 0.40006 0.25379 0.0
C523 C 0.64188 0.41832 0.2614 0.0
C524 C 0.65199 0.41871 0.28742 0.0
C525 C 0.64716 0.40059 0.30572 0.0
C526 C 0.63278 0.38222 0.298 0.0
H527 H 0.56086 0.36355 0.30564 0.0
H528 H 0.58899 0.36129 0.32105 0.0
H529 H 0.58216 0.38605 0.30008 0.0
H530 H 0.61972 0.40006 0.23357 0.0
H531 H 0.6453 0.43208 0.24689 0.0
H532 H 0.24778 0.59088 0.70658 0.0
H533 H 0.21254 0.60888 0.7243 0.0
H534 H 0.19004 0.54276 0.75599 0.0
H535 H 0.22542 0.52446 0.73812 0.0
H536 H 0.15549 0.56814 0.72588 0.0
H537 H 0.19772 0.62205 0.80524 0.0
H538 H 0.21068 0.62492 0.77215 0.0
H539 H 0.21192 0.59748 0.78958 0.0
C540 C 0.23541 0.58015 0.71742 0.0
C541 C 0.23939 0.55628 0.72108 0.0
C542 C 0.21534 0.5905 0.72763 0.0
C543 C 0.1989 0.5772 0.74176 0.0
C544 C 0.20265 0.55331 0.74527 0.0
H545 H 0.08495 0.64452 0.82828 0.0
H546 H 0.11737 0.61895 0.81655 0.0
C547 C 0.22284 0.54292 0.73512 0.0
C548 C 0.17756 0.58838 0.75213 0.0
H549 H 0.1588 0.63217 0.79334 0.0
C550 C 0.15611 0.58195 0.74087 0.0
C551 C 0.17846 0.60617 0.77191 0.0
C552 C 0.2009 0.61295 0.78565 0.0
C553 C 0.1356 0.59359 0.74807 0.0
C554 C 0.13672 0.61226 0.76672 0.0
C555 C 0.15803 0.618 0.77882 0.0
C556 C 0.11616 0.62658 0.77344 0.0
C557 C 0.11295 0.58585 0.73559 0.0
C558 C 0.10483 0.63941 0.75307 0.0
C559 C 0.08632 0.65403 0.7597 0.0
C560 C 0.07895 0.65617 0.78685 0.0
C561 C 0.09024 0.6432 0.80718 0.0
C562 C 0.10874 0.62859 0.80053 0.0
H563 H 0.11393 0.56764 0.72821 0.0
H564 H 0.09848 0.58725 0.75044 0.0
H565 H 0.10886 0.59712 0.7179 0.0
H566 H 0.11064 0.6385 0.73212 0.0
H567 H 0.07801 0.66389 0.74364 0.0
H568 H 0.85275 0.0861 0.33141 0.0
H569 H 0.87752 0.11959 0.32063 0.0
H570 H 0.86972 0.10541 0.23495 0.0
H571 H 0.84512 0.07198 0.24543 0.0
H572 H 0.92114 0.12159 0.28066 0.0
H573 H 0.84342 0.17434 0.25385 0.0
H574 H 0.84196 0.14965 0.2765 0.0
H575 H 0.84465 0.14526 0.24049 0.0
C576 C 0.85658 0.08996 0.3103 0.0
C577 C 0.8469 0.07653 0.28924 0.0
C578 C 0.87073 0.10902 0.30421 0.0
C579 C 0.87525 0.11493 0.27703 0.0
C580 C 0.86631 0.10108 0.25605 0.0
H581 H 0.93013 0.22644 0.18315 0.0
H582 H 0.91214 0.19146 0.20161 0.0
C583 C 0.85228 0.08202 0.26208 0.0
C584 C 0.88801 0.13639 0.27028 0.0
H585 H 0.88007 0.1904 0.24343 0.0
C586 C 0.91225 0.13678 0.27277 0.0
C587 C 0.87622 0.15604 0.26006 0.0
C588 C 0.8501 0.15653 0.25766 0.0
C589 C 0.92518 0.15617 0.26422 0.0
C590 C 0.91339 0.17566 0.25338 0.0
C591 C 0.88906 0.17541 0.25167 0.0
C592 C 0.92581 0.1961 0.24229 0.0
C593 C 0.95132 0.15531 0.26583 0.0
C594 C 0.93958 0.21026 0.25905 0.0
C595 C 0.95001 0.2303 0.24848 0.0
C596 C 0.94661 0.23652 0.22108 0.0
C597 C 0.93304 0.22213 0.20435 0.0
C598 C 0.92274 0.20214 0.21486 0.0
H599 H 0.9578 0.13735 0.26912 0.0
H600 H 0.95923 0.16232 0.24692 0.0
H601 H 0.95726 0.16617 0.28313 0.0
H602 H 0.94181 0.20614 0.28041 0.0
H603 H 0.9603 0.24115 0.26186 0.0
H604 H 0.24556 0.91552 0.73834 0.0
H605 H 0.28188 0.89794 0.7535 0.0
H606 H 0.31874 0.96071 0.7327 0.0
H607 H 0.28216 0.9787 0.71815 0.0
H608 H 0.31872 0.88933 0.72161 0.0
H609 H 0.34507 0.94626 0.80745 0.0
H610 H 0.31621 0.9468 0.79311 0.0
H611 H 0.33969 0.96133 0.77605 0.0
C612 C 0.26134 0.92572 0.73737 0.0
C613 C 0.26107 0.94847 0.72706 0.0
C614 C 0.28209 0.91564 0.74602 0.0
C615 C 0.30301 0.92804 0.74441 0.0
C616 C 0.30275 0.95098 0.73464 0.0
H617 H 0.43517 0.85306 0.74526 0.0
H618 H 0.40297 0.87867 0.73261 0.0
C619 C 0.28187 0.96119 0.72622 0.0
C620 C 0.32511 0.91616 0.7512 0.0
H621 H 0.3722 0.91766 0.79346 0.0
C622 C 0.33043 0.89555 0.7373 0.0
C623 C 0.34028 0.92425 0.77178 0.0
C624 C 0.33499 0.94576 0.78816 0.0
C625 C 0.3503 0.88258 0.74364 0.0
C626 C 0.36567 0.89081 0.76394 0.0
C627 C 0.3605 0.91154 0.77771 0.0
C628 C 0.38646 0.87736 0.77216 0.0
C629 C 0.35418 0.85977 0.72919 0.0
C630 C 0.38837 0.86897 0.7989 0.0
C631 C 0.40686 0.85457 0.80624 0.0
C632 C 0.42373 0.84829 0.78695 0.0
C633 C 0.42228 0.85743 0.76047 0.0
C634 C 0.40386 0.87197 0.75319 0.0
H635 H 0.33805 0.85329 0.71937 0.0
H636 H 0.36743 0.86218 0.71305 0.0
H637 H 0.36057 0.84629 0.74353 0.0
H638 H 0.37516 0.87299 0.81387 0.0
H639 H 0.40758 0.84787 0.82684 0.0
H640 H 0.58854 0.24786 0.79247 0.0
H641 H 0.606 0.21183 0.77613 0.0
H642 H 0.53854 0.18683 0.75179 0.0
H643 H 0.52081 0.22299 0.76821 0.0
H644 H 0.56716 0.15414 0.78236 0.0
H645 H 0.61322 0.19359 0.69454 0.0
H646 H 0.61789 0.20828 0.72634 0.0
H647 H 0.58933 0.20776 0.71159 0.0
C648 C 0.57739 0.23474 0.7836 0.0
C649 C 0.55332 0.23827 0.78148 0.0
C650 C 0.58741 0.21421 0.7742 0.0
C651 C 0.57357 0.19686 0.76248 0.0
C652 C 0.54949 0.20013 0.76066 0.0
H653 H 0.63653 0.08118 0.67512 0.0
H654 H 0.61051 0.11278 0.68837 0.0
C655 C 0.53942 0.22077 0.76998 0.0
C656 C 0.58445 0.17528 0.75242 0.0
H657 H 0.62477 0.15538 0.7073 0.0
C658 C 0.57958 0.15429 0.76577 0.0
C659 C 0.60039 0.17556 0.73056 0.0
C660 C 0.60541 0.19745 0.71472 0.0
C661 C 0.59099 0.13367 0.75847 0.0
C662 C 0.60783 0.13422 0.73753 0.0
C663 C 0.61199 0.15505 0.72351 0.0
C664 C 0.62197 0.11367 0.73032 0.0
C665 C 0.58498 0.11151 0.77326 0.0
C666 C 0.63698 0.10366 0.74956 0.0
C667 C 0.65186 0.0856 0.74206 0.0
C668 C 0.65208 0.07739 0.71513 0.0
C669 C 0.63674 0.08716 0.69603 0.0
C670 C 0.62187 0.10519 0.70355 0.0
H671 H 0.56753 0.11252 0.78284 0.0
H672 H 0.58537 0.09639 0.75925 0.0
H673 H 0.5979 0.10847 0.78965 0.0
H674 H 0.63769 0.11028 0.77018 0.0
H675 H 0.66356 0.07846 0.75717 0.0
H676 H 0.42025 0.65879 0.25226 0.0
H677 H 0.38828 0.6333 0.2657 0.0
H678 H 0.38369 0.60724 0.18354 0.0
H679 H 0.41543 0.63298 0.16984 0.0
H680 H 0.34151 0.62056 0.20417 0.0
H681 H 0.38688 0.56341 0.27775 0.0
H682 H 0.39061 0.59372 0.28502 0.0
H683 H 0.40223 0.58181 0.25404 0.0
C684 C 0.41259 0.64746 0.23713 0.0
C685 C 0.42034 0.64785 0.21001 0.0
C686 C 0.39443 0.63278 0.24487 0.0
C687 C 0.38386 0.6181 0.22571 0.0
C688 C 0.39172 0.61832 0.19868 0.0
H689 H 0.25879 0.5315 0.24079 0.0
H690 H 0.29503 0.54849 0.22362 0.0
C691 C 0.40984 0.63303 0.1909 0.0
C692 C 0.36362 0.60369 0.2335 0.0
H693 H 0.34531 0.56269 0.27891 0.0
C694 C 0.34239 0.60766 0.22025 0.0
C695 C 0.36485 0.58688 0.25447 0.0
C696 C 0.38742 0.58101 0.26847 0.0
C697 C 0.32211 0.59597 0.22816 0.0
C698 C 0.32322 0.57965 0.24964 0.0
C699 C 0.34455 0.57524 0.26245 0.0
C700 C 0.30212 0.56813 0.26025 0.0
C701 C 0.29949 0.60184 0.21425 0.0
C702 C 0.29454 0.57308 0.28673 0.0
C703 C 0.27396 0.56342 0.29656 0.0
C704 C 0.26067 0.54851 0.28012 0.0
C705 C 0.26864 0.54302 0.25386 0.0
C706 C 0.28925 0.55276 0.244 0.0
H707 H 0.30083 0.61785 0.20171 0.0
H708 H 0.29442 0.58731 0.20066 0.0
H709 H 0.28544 0.60424 0.22947 0.0
H710 H 0.30428 0.58485 0.29959 0.0
H711 H 0.26832 0.5679 0.31692 0.0
H712 H 0.85758 0.41685 0.66743 0.0
H713 H 0.88348 0.38467 0.67939 0.0
H714 H 0.86795 0.39493 0.76442 0.0
H715 H 0.84225 0.42726 0.75269 0.0
H716 H 0.91592 0.38621 0.75298 0.0
H717 H 0.85677 0.3217 0.70493 0.0
H718 H 0.86622 0.34509 0.68337 0.0
H719 H 0.8479 0.35112 0.71209 0.0
C720 C 0.85986 0.41238 0.68869 0.0
C721 C 0.84774 0.42441 0.70913 0.0
C722 C 0.87459 0.39397 0.69546 0.0
C723 C 0.87735 0.38726 0.72274 0.0
C724 C 0.86599 0.39983 0.74324 0.0
H725 H 0.91323 0.259 0.79766 0.0
H726 H 0.89615 0.29487 0.78038 0.0
C727 C 0.85128 0.41824 0.7365 0.0
C728 C 0.89104 0.3664 0.72996 0.0
H729 H 0.891 0.30731 0.7249 0.0
C730 C 0.91065 0.36895 0.74669 0.0
C731 C 0.8839 0.34394 0.72187 0.0
C732 C 0.86246 0.34014 0.70475 0.0
C733 C 0.92316 0.34952 0.75588 0.0
C734 C 0.91591 0.32708 0.7479 0.0
C735 C 0.89656 0.32459 0.7308 0.0
C736 C 0.92697 0.30579 0.75871 0.0
C737 C 0.94346 0.35305 0.77484 0.0
C738 C 0.94999 0.30004 0.7522 0.0
C739 C 0.95986 0.27947 0.76209 0.0
C740 C 0.94677 0.26437 0.77855 0.0
C741 C 0.92376 0.27027 0.78504 0.0
C742 C 0.91396 0.29075 0.77517 0.0
H743 H 0.94429 0.37109 0.78278 0.0
H744 H 0.94244 0.34086 0.79233 0.0
H745 H 0.95983 0.34941 0.76374 0.0
H746 H 0.9602 0.3113 0.7392 0.0
H747 H 0.9776 0.27531 0.7567 0.0
H748 H 0.07174 0.84255 0.25272 0.0
H749 H 0.10462 0.86748 0.26438 0.0
H750 H 0.11315 0.88534 0.17967 0.0
H751 H 0.08041 0.86017 0.16779 0.0
H752 H 0.15354 0.87058 0.20362 0.0
H753 H 0.11171 0.93789 0.26741 0.0
H754 H 0.10493 0.90891 0.27825 0.0
H755 H 0.09538 0.91883 0.24536 0.0
C756 C 0.0804 0.85205 0.23663 0.0
C757 C 0.07354 0.84941 0.20935 0.0
C758 C 0.09909 0.86641 0.24334 0.0
C759 C 0.11111 0.8785 0.22293 0.0
C760 C 0.10398 0.87627 0.19573 0.0
H761 H 0.22515 0.9744 0.26078 0.0
H762 H 0.18888 0.95809 0.24278 0.0
C763 C 0.08529 0.8619 0.18899 0.0
C764 C 0.13232 0.89182 0.22976 0.0
H765 H 0.15317 0.93464 0.27112 0.0
C766 C 0.15342 0.88478 0.21812 0.0
C767 C 0.13208 0.91052 0.24841 0.0
C768 C 0.10978 0.91966 0.26038 0.0
C769 C 0.17445 0.89531 0.2255 0.0
C770 C 0.17437 0.91307 0.24537 0.0
C771 C 0.15318 0.92082 0.25613 0.0
C772 C 0.1962 0.92303 0.2561 0.0
C773 C 0.19658 0.8872 0.21212 0.0
C774 C 0.21209 0.90875 0.26983 0.0
C775 C 0.23272 0.91796 0.28007 0.0
C776 C 0.23778 0.94167 0.2769 0.0
C777 C 0.22173 0.95604 0.26342 0.0
C778 C 0.20103 0.94678 0.25318 0.0
H779 H 0.1931 0.87861 0.19228 0.0
H780 H 0.20871 0.90191 0.20873 0.0
H781 H 0.20529 0.87437 0.22557 0.0
H782 H 0.20845 0.89046 0.27278 0.0
H783 H 0.24468 0.90649 0.29052 0.0
H784 H 0.34628 0.57319 0.75015 0.0
H785 H 0.37141 0.60622 0.76074 0.0
H786 H 0.38363 0.61715 0.67506 0.0
H787 H 0.35824 0.58428 0.66425 0.0
H788 H 0.41828 0.61646 0.74762 0.0
H789 H 0.35623 0.67927 0.70152 0.0
H790 H 0.34842 0.64957 0.7088 0.0
H791 H 0.36587 0.65628 0.67954 0.0
C792 C 0.35448 0.5825 0.73356 0.0
C793 C 0.35013 0.57632 0.70636 0.0
C794 C 0.36886 0.60131 0.73965 0.0
C795 C 0.37908 0.6143 0.71866 0.0
C796 C 0.37559 0.60756 0.69152 0.0
H797 H 0.47753 0.72807 0.75166 0.0
H798 H 0.4604 0.69223 0.73346 0.0
C799 C 0.36117 0.58874 0.6854 0.0
C800 C 0.39237 0.63555 0.72533 0.0
H801 H 0.39054 0.69463 0.72026 0.0
C802 C 0.41239 0.63357 0.74147 0.0
C803 C 0.38441 0.6578 0.71747 0.0
C804 C 0.36247 0.66101 0.70106 0.0
C805 C 0.42451 0.65333 0.75033 0.0
C806 C 0.41648 0.67558 0.74254 0.0
C807 C 0.39671 0.67752 0.726 0.0
C808 C 0.42715 0.69715 0.75312 0.0
C809 C 0.44522 0.65033 0.76882 0.0
C810 C 0.41397 0.71193 0.76971 0.0
C811 C 0.42361 0.73234 0.77995 0.0
C812 C 0.44662 0.73844 0.77371 0.0
C813 C 0.45978 0.72375 0.75687 0.0
C814 C 0.45008 0.70325 0.74659 0.0
H815 H 0.44648 0.63239 0.77701 0.0
H816 H 0.46132 0.65407 0.75723 0.0
H817 H 0.44435 0.66267 0.78616 0.0
H818 H 0.39622 0.70755 0.77492 0.0
H819 H 0.41301 0.74332 0.79284 0.0
H820 H 0.90403 0.34441 0.16857 0.0
H821 H 0.87108 0.36921 0.1806 0.0
H822 H 0.89474 0.37139 0.26389 0.0
H823 H 0.9278 0.34663 0.25202 0.0
H824 H 0.83683 0.35812 0.21979 0.0
H825 H 0.88235 0.44041 0.24464 0.0
H826 H 0.89568 0.41751 0.22497 0.0
H827 H 0.89386 0.41515 0.26138 0.0
C828 C 0.90233 0.35034 0.1894 0.0
C829 C 0.91847 0.34359 0.20938 0.0
C830 C 0.88352 0.3645 0.19621 0.0
C831 C 0.88067 0.37235 0.22303 0.0
C832 C 0.89689 0.36585 0.24297 0.0
H833 H 0.76016 0.41606 0.31027 0.0
H834 H 0.7949 0.39741 0.29202 0.0
C835 C 0.91566 0.35159 0.2362 0.0
C836 C 0.85992 0.38606 0.23053 0.0
H837 H 0.84253 0.43777 0.25775 0.0
C838 C 0.83804 0.37561 0.22786 0.0
C839 C 0.86159 0.40895 0.24077 0.0
C840 C 0.8846 0.42131 0.24292 0.0
C841 C 0.8178 0.38715 0.23607 0.0
C842 C 0.81956 0.40963 0.24741 0.0
C843 C 0.84132 0.42045 0.2492 0.0
C844 C 0.79903 0.42162 0.2587 0.0
C845 C 0.79467 0.37516 0.23279 0.0
C846 C 0.79019 0.4417 0.24626 0.0
C847 C 0.77025 0.45243 0.25663 0.0
C848 C 0.75906 0.44329 0.2797 0.0
C849 C 0.76833 0.42347 0.2924 0.0
C850 C 0.78813 0.41274 0.28198 0.0
H851 H 0.79566 0.36051 0.21813 0.0
H852 H 0.7891 0.36811 0.25278 0.0
H853 H 0.7812 0.38758 0.22574 0.0
H854 H 0.79849 0.44883 0.22832 0.0
H855 H 0.76351 0.46772 0.24649 0.0
H856 H 0.0356 0.76122 0.73684 0.0
H857 H 0.05401 0.79659 0.71895 0.0
H858 H 0.08415 0.80984 0.79783 0.0
H859 H 0.06632 0.77454 0.81559 0.0
H860 H 0.05176 0.84374 0.73519 0.0
H861 H 0.14052 0.8081 0.74739 0.0
H862 H 0.11488 0.79014 0.74922 0.0
H863 H 0.12393 0.80692 0.77826 0.0
C864 C 0.04607 0.77178 0.75034 0.0
C865 C 0.04978 0.765 0.7775 0.0
C866 C 0.05653 0.79194 0.74012 0.0
C867 C 0.07081 0.80552 0.75695 0.0
C868 C 0.07365 0.79929 0.78435 0.0
H869 H 0.15313 0.92857 0.75373 0.0
H870 H 0.12792 0.89569 0.76467 0.0
C871 C 0.06337 0.77916 0.79449 0.0
C872 C 0.08334 0.82594 0.746 0.0
H873 H 0.13767 0.84899 0.73994 0.0
C874 C 0.07055 0.84484 0.73589 0.0
C875 C 0.10787 0.82718 0.74673 0.0
C876 C 0.12262 0.80691 0.75572 0.0
C877 C 0.08169 0.8654 0.72764 0.0
C878 C 0.10611 0.86691 0.72956 0.0
C879 C 0.1189 0.84778 0.73883 0.0
C880 C 0.11892 0.88837 0.7228 0.0
C881 C 0.06737 0.88564 0.71779 0.0
C882 C 0.12192 0.89521 0.69563 0.0
C883 C 0.13642 0.91394 0.68928 0.0
C884 C 0.1481 0.92603 0.71005 0.0
C885 C 0.14435 0.9196 0.7373 0.0
C886 C 0.12997 0.90085 0.74359 0.0
H887 H 0.04846 0.88263 0.72048 0.0
H888 H 0.07236 0.90168 0.7289 0.0
H889 H 0.07086 0.88862 0.69584 0.0
H890 H 0.11372 0.88557 0.67931 0.0
H891 H 0.13902 0.91849 0.66809 0.0
H892 H 0.55792 0.13812 0.25032 0.0
H893 H 0.58972 0.11196 0.26284 0.0
H894 H 0.62026 0.12131 0.18344 0.0
H895 H 0.58841 0.14725 0.17063 0.0
H896 H 0.62184 0.0744 0.20373 0.0
H897 H 0.65478 0.13961 0.27788 0.0
H898 H 0.62509 0.13086 0.28241 0.0
H899 H 0.63334 0.14663 0.25238 0.0
C900 C 0.57126 0.13438 0.23543 0.0
C901 C 0.57084 0.14491 0.2096 0.0
C902 C 0.58942 0.11949 0.24263 0.0
C903 C 0.60745 0.11501 0.22418 0.0
C904 C 0.60649 0.12462 0.19796 0.0
H905 H 0.74897 0.07877 0.25273 0.0
H906 H 0.71187 0.09489 0.23794 0.0
C907 C 0.58834 0.13948 0.19072 0.0
C908 C 0.62818 0.1017 0.23273 0.0
H909 H 0.67534 0.10444 0.27465 0.0
C910 C 0.6335 0.08083 0.21935 0.0
C911 C 0.64343 0.11035 0.25289 0.0
C912 C 0.63907 0.13318 0.26712 0.0
C913 C 0.65383 0.06841 0.22556 0.0
C914 C 0.66903 0.07709 0.24572 0.0
C915 C 0.66355 0.09782 0.25926 0.0
C916 C 0.69143 0.06582 0.25222 0.0
C917 C 0.65931 0.04653 0.20998 0.0
C918 C 0.69223 0.04394 0.2648 0.0
C919 C 0.7135 0.03462 0.27328 0.0
C920 C 0.73419 0.04716 0.2694 0.0
C921 C 0.73333 0.06872 0.25605 0.0
C922 C 0.71215 0.07796 0.2476 0.0
H923 H 0.64802 0.04447 0.19179 0.0
H924 H 0.67774 0.04649 0.20333 0.0
H925 H 0.65665 0.03128 0.22344 0.0
H926 H 0.67637 0.03445 0.2689 0.0
H927 H 0.71366 0.018 0.28362 0.0
H928 H 0.47404 0.76525 0.24181 0.0
H929 H 0.45712 0.80129 0.2598 0.0
H930 H 0.39668 0.79132 0.20932 0.0
H931 H 0.41339 0.75552 0.19121 0.0
H932 H 0.4394 0.84242 0.2271 0.0
H933 H 0.37318 0.79801 0.29088 0.0
H934 H 0.39929 0.78372 0.27928 0.0
H935 H 0.3754 0.78794 0.25631 0.0
C936 C 0.45717 0.77079 0.23454 0.0
C937 C 0.44498 0.75755 0.2152 0.0
C938 C 0.44759 0.79135 0.24477 0.0
C939 C 0.42562 0.79875 0.23601 0.0
C940 C 0.41358 0.78572 0.21648 0.0
H941 H 0.3457 0.9238 0.24243 0.0
H942 H 0.37112 0.89144 0.22999 0.0
C943 C 0.42317 0.76531 0.20613 0.0
C944 C 0.41496 0.81998 0.24729 0.0
H945 H 0.36869 0.83864 0.28462 0.0
C946 C 0.42409 0.84167 0.23991 0.0
C947 C 0.39515 0.81883 0.26418 0.0
C948 C 0.38521 0.7959 0.27338 0.0
C949 C 0.4133 0.86236 0.24822 0.0
C950 C 0.39286 0.86118 0.26409 0.0
C951 C 0.3843 0.83947 0.27231 0.0
C952 C 0.37945 0.88214 0.27157 0.0
C953 C 0.42376 0.88529 0.23986 0.0
C954 C 0.37566 0.88754 0.29905 0.0
C955 C 0.36111 0.90596 0.30621 0.0
C956 C 0.34992 0.91913 0.28597 0.0
C957 C 0.35414 0.91399 0.25845 0.0
C958 C 0.36876 0.89562 0.25131 0.0
H959 H 0.44233 0.88343 0.23414 0.0
H960 H 0.41422 0.89212 0.22192 0.0
H961 H 0.42232 0.89824 0.25652 0.0
H962 H 0.38364 0.87723 0.31497 0.0
H963 H 0.35817 0.9095 0.32759 0.0
H964 H 0.74233 0.41216 0.703 0.0
H965 H 0.7064 0.39527 0.72034 0.0
H966 H 0.68835 0.4607 0.75738 0.0
H967 H 0.72439 0.4779 0.73983 0.0
H968 H 0.69215 0.39205 0.77538 0.0
H969 H 0.6302 0.4428 0.71187 0.0
H970 H 0.66074 0.4408 0.70393 0.0
H971 H 0.65109 0.45925 0.7311 0.0
C972 C 0.73071 0.42301 0.71477 0.0
C973 C 0.73613 0.44638 0.72001 0.0
C974 C 0.71021 0.41332 0.72468 0.0
C975 C 0.69465 0.4268 0.73989 0.0
C976 C 0.70001 0.45012 0.74533 0.0
H977 H 0.5812 0.36086 0.83026 0.0
H978 H 0.61387 0.38606 0.81815 0.0
C979 C 0.72061 0.45987 0.73543 0.0
C980 C 0.67309 0.41604 0.7503 0.0
H981 H 0.61416 0.4158 0.74271 0.0
C982 C 0.67506 0.39734 0.76846 0.0
C983 C 0.65091 0.42292 0.74095 0.0
C984 C 0.64795 0.44243 0.72073 0.0
C985 C 0.65545 0.38502 0.77722 0.0
C986 C 0.63324 0.39185 0.76786 0.0
C987 C 0.63121 0.41077 0.74999 0.0
C988 C 0.61213 0.37855 0.77504 0.0
C989 C 0.65874 0.36423 0.79557 0.0
C990 C 0.59984 0.3667 0.75467 0.0
C991 C 0.58112 0.35242 0.76148 0.0
C992 C 0.57437 0.34981 0.7888 0.0
C993 C 0.58613 0.36242 0.80905 0.0
C994 C 0.60483 0.37674 0.8022 0.0
H995 H 0.67713 0.35843 0.79621 0.0
H996 H 0.65343 0.36887 0.81659 0.0
H997 H 0.64779 0.34947 0.78873 0.0
H998 H 0.60519 0.36794 0.73357 0.0
H999 H 0.57234 0.34297 0.74543 0.0
H1000 H 0.13032 0.57631 0.32065 0.0
H1001 H 0.10458 0.60805 0.30685 0.0
H1002 H 0.14372 0.6164 0.23262 0.0
H1003 H 0.16909 0.58432 0.24594 0.0
H1004 H 0.11522 0.65281 0.29759 0.0
H1005 H 0.07834 0.61476 0.20361 0.0
H1006 H 0.09429 0.59768 0.22812 0.0
H1007 H 0.10947 0.61485 0.20316 0.0
C1008 C 0.13328 0.58479 0.30127 0.0
C1009 C 0.15162 0.57779 0.28429 0.0
C1010 C 0.11858 0.6029 0.29342 0.0
C1011 C 0.12195 0.61431 0.26848 0.0
C1012 C 0.14037 0.60742 0.25159 0.0
H1013 H 0.08126 0.73943 0.19043 0.0
H1014 H 0.09855 0.70325 0.20671 0.0
C1015 C 0.15497 0.5892 0.25932 0.0
C1016 C 0.10705 0.63423 0.26074 0.0
H1017 H 0.07407 0.65605 0.20889 0.0
C1018 C 0.10591 0.65338 0.2784 0.0
C1019 C 0.09481 0.63488 0.23575 0.0
C1020 C 0.09407 0.61433 0.21672 0.0
C1021 C 0.09373 0.67356 0.27115 0.0
C1022 C 0.0824 0.67453 0.24568 0.0
C1023 C 0.08291 0.65519 0.22838 0.0
C1024 C 0.07135 0.69608 0.23584 0.0
C1025 C 0.09377 0.69409 0.29022 0.0
C1026 C 0.05023 0.70383 0.24677 0.0
C1027 C 0.0402 0.72449 0.23741 0.0
C1028 C 0.05128 0.73767 0.21711 0.0
C1029 C 0.07236 0.7297 0.20615 0.0
C1030 C 0.08224 0.70903 0.21536 0.0
H1031 H 0.10525 0.69131 0.30811 0.0
H1032 H 0.09954 0.70994 0.27926 0.0
H1033 H 0.07585 0.69726 0.29764 0.0
H1034 H 0.04155 0.69391 0.26251 0.0
H1035 H 0.02393 0.73022 0.24617 0.0
H1036 H 0.91726 0.16684 0.74656 0.0
H1037 H 0.88558 0.14031 0.7354 0.0
H1038 H 0.89498 0.10528 0.8123 0.0
H1039 H 0.92636 0.13228 0.82395 0.0
H1040 H 0.88409 0.09321 0.73003 0.0
H1041 H 0.82665 0.12171 0.81471 0.0
H1042 H 0.85259 0.13735 0.8054 0.0
H1043 H 0.85461 0.11106 0.82501 0.0
C1044 C 0.91263 0.15346 0.76108 0.0
C1045 C 0.92413 0.15174 0.78622 0.0
C1046 C 0.89455 0.13829 0.75466 0.0
C1047 C 0.88766 0.12106 0.77321 0.0
C1048 C 0.89965 0.11879 0.79797 0.0
H1049 H 0.76833 0.02666 0.75163 0.0
H1050 H 0.80534 0.04246 0.76844 0.0
C1051 C 0.91765 0.13412 0.80451 0.0
C1052 C 0.86767 0.10589 0.76651 0.0
H1053 H 0.81219 0.09262 0.78563 0.0
C1054 C 0.86846 0.09293 0.74233 0.0
C1055 C 0.84727 0.10551 0.78262 0.0
C1056 C 0.84504 0.11978 0.80827 0.0
C1057 C 0.84919 0.08012 0.73343 0.0
C1058 C 0.82864 0.08035 0.74908 0.0
C1059 C 0.8281 0.09247 0.77381 0.0
C1060 C 0.80683 0.07014 0.73871 0.0
C1061 C 0.85071 0.06682 0.70704 0.0
C1062 C 0.79548 0.08068 0.7167 0.0
C1063 C 0.77439 0.07191 0.7073 0.0
C1064 C 0.7643 0.05237 0.71968 0.0
C1065 C 0.77577 0.04171 0.74167 0.0
C1066 C 0.79684 0.05068 0.75127 0.0
H1067 H 0.86901 0.06392 0.70075 0.0
H1068 H 0.84186 0.04975 0.70885 0.0
H1069 H 0.84188 0.07685 0.69075 0.0
H1070 H 0.80282 0.09591 0.707 0.0
H1071 H 0.76597 0.08049 0.69032 0.0
H1072 H 0.52896 0.18538 0.09408 0.0
H1073 H 0.52714 0.19858 0.04674 0.0
H1074 H 0.50098 0.26498 0.07331 0.0
H1075 H 0.50244 0.25181 0.12069 0.0
H1076 H 0.47726 0.24644 0.02807 0.0
H1077 H 0.5729 0.24552 0.0136 0.0
H1078 H 0.56089 0.21854 0.02538 0.0
H1079 H 0.55954 0.24381 0.04678 0.0
C1080 C 0.52276 0.20277 0.08982 0.0
C1081 C 0.51598 0.21764 0.11104 0.0
C1082 C 0.52182 0.2103 0.06281 0.0
C1083 C 0.51427 0.23285 0.05664 0.0
C1084 C 0.50695 0.24753 0.07773 0.0
H1085 H 0.53821 0.30815 0.90705 0.0
H1086 H 0.53565 0.29526 0.9544 0.0
C1087 C 0.50784 0.24001 0.10474 0.0
C1088 C 0.51428 0.24129 0.02822 0.0
H1089 H 0.54997 0.25266 0.97444 0.0
C1090 C 0.49313 0.24784 0.0163 0.0
C1091 C 0.53509 0.24336 0.01314 0.0
C1092 C 0.55844 0.23765 0.02539 0.0
C1093 C 0.49218 0.25618 0.98946 0.0
C1094 C 0.51292 0.25766 0.97416 0.0
C1095 C 0.53409 0.25134 0.98621 0.0
C1096 C 0.51321 0.26605 0.94571 0.0
C1097 C 0.46911 0.26373 0.97789 0.0
C1098 C 0.50141 0.25387 0.92519 0.0
C1099 C 0.50279 0.26123 0.89813 0.0
C1100 C 0.51614 0.28078 0.89118 0.0
C1101 C 0.52778 0.29304 0.91181 0.0
C1102 C 0.52635 0.2857 0.93884 0.0
H1103 H 0.45614 0.26701 0.99417 0.0
H1104 H 0.47104 0.27973 0.96547 0.0
H1105 H 0.46224 0.2498 0.96453 0.0
H1106 H 0.49155 0.2384 0.93003 0.0
H1107 H 0.49375 0.25139 0.88261 0.0
H1108 H 0.20136 0.54872 0.40285 0.0
H1109 H 0.21333 0.54412 0.45025 0.0
H1110 H 0.23379 0.4734 0.43403 0.0
H1111 H 0.22233 0.47806 0.38626 0.0
H1112 H 0.19932 0.51389 0.49036 0.0
H1113 H 0.29275 0.50167 0.46565 0.0
H1114 H 0.2719 0.51155 0.4408 0.0
H1115 H 0.27333 0.48134 0.44983 0.0
C1116 C 0.20833 0.53215 0.40938 0.0
C1117 C 0.21113 0.51381 0.39084 0.0
C1118 C 0.21512 0.52954 0.43647 0.0
C1119 C 0.22477 0.50855 0.44552 0.0
C1120 C 0.22682 0.4899 0.42729 0.0
H1121 H 0.25226 0.48738 0.61998 0.0
H1122 H 0.23751 0.48208 0.57358 0.0
C1123 C 0.22017 0.49255 0.40008 0.0
C1124 C 0.23319 0.50665 0.4739 0.0
H1125 H 0.28235 0.50026 0.51197 0.0
C1126 C 0.21744 0.51074 0.49516 0.0
C1127 C 0.25688 0.50275 0.47997 0.0
C1128 C 0.27478 0.49927 0.45791 0.0
C1129 C 0.22483 0.51154 0.52236 0.0
C1130 C 0.24853 0.50768 0.52841 0.0
C1131 C 0.26417 0.50307 0.50721 0.0
C1132 C 0.25781 0.5101 0.55636 0.0
C1133 C 0.20742 0.5175 0.54422 0.0
C1134 C 0.27455 0.52716 0.56183 0.0
C1135 C 0.28315 0.53006 0.58816 0.0
C1136 C 0.27514 0.51595 0.6095 0.0
C1137 C 0.25861 0.49862 0.60394 0.0
C1138 C 0.25009 0.49564 0.57751 0.0
H1139 H 0.19122 0.52495 0.53557 0.0
H1140 H 0.20275 0.5015 0.55557 0.0
H1141 H 0.21485 0.53012 0.55893 0.0
H1142 H 0.28076 0.53845 0.54575 0.0
H1143 H 0.2959 0.54353 0.59183 0.0
H1144 H 0.95756 0.30216 0.09248 0.0
H1145 H 0.96237 0.28943 0.04543 0.0
H1146 H 0.02157 0.2481 0.06893 0.0
H1147 H 0.01648 0.26035 0.11636 0.0
H1148 H 0.99832 0.29349 0.00947 0.0
H1149 H 0.97981 0.20069 0.03201 0.0
H1150 H 0.97476 0.22349 0.05646 0.0
H1151 H 0.00369 0.2129 0.05066 0.0
C1152 C 0.97167 0.29043 0.08764 0.0
C1153 C 0.98653 0.28206 0.10811 0.0
C1154 C 0.97442 0.28321 0.06074 0.0
C1155 C 0.99209 0.26754 0.05379 0.0
C1156 C 0.00751 0.25981 0.074 0.0
H1157 H 0.01853 0.23621 0.88128 0.0
H1158 H 0.02391 0.24862 0.92859 0.0
C1159 C 0.00467 0.26691 0.10101 0.0
C1160 C 0.99375 0.25898 0.02544 0.0
H1161 H 0.98843 0.21021 0.98649 0.0
C1162 C 0.99633 0.27527 0.00439 0.0
C1163 C 0.99088 0.23521 0.01897 0.0
C1164 C 0.98693 0.21704 0.04065 0.0
C1165 C 0.99561 0.26852 0.97696 0.0
C1166 C 0.99278 0.24475 0.9705 0.0
C1167 C 0.99073 0.2284 0.99156 0.0
C1168 C 0.9902 0.23663 0.94206 0.0
C1169 C 0.99686 0.28702 0.95522 0.0
C1170 C 0.96979 0.22514 0.93419 0.0
C1171 C 0.96682 0.21777 0.90736 0.0
C1172 C 0.98419 0.22183 0.88789 0.0
C1173 C 0.00477 0.23305 0.89585 0.0
C1174 C 0.00782 0.24025 0.92279 0.0
H1175 H 0.99344 0.30461 0.96359 0.0
H1176 H 0.01451 0.28709 0.94619 0.0
H1177 H 0.98417 0.28353 0.9387 0.0
H1178 H 0.95599 0.22213 0.94877 0.0
H1179 H 0.95078 0.20914 0.90182 0.0
H1180 H 0.30158 0.94714 0.40336 0.0
H1181 H 0.28898 0.94999 0.45073 0.0
H1182 H 0.24503 0.00804 0.43002 0.0
H1183 H 0.25728 0.00505 0.38237 0.0
H1184 H 0.29256 0.98665 0.48714 0.0
H1185 H 0.20043 0.96302 0.46788 0.0
H1186 H 0.22295 0.95888 0.44281 0.0
H1187 H 0.21093 0.98727 0.44843 0.0
C1188 C 0.28922 0.96052 0.40887 0.0
C1189 C 0.28028 0.97578 0.38917 0.0
C1190 C 0.28208 0.96214 0.43594 0.0
C1191 C 0.26585 0.97901 0.44376 0.0
C1192 C 0.25725 0.99462 0.42426 0.0
H1193 H 0.2352 0.01238 0.6136 0.0
H1194 H 0.2476 0.01436 0.56598 0.0
C1195 C 0.26434 0.99296 0.39711 0.0
C1196 C 0.25798 0.98006 0.47239 0.0
H1197 H 0.21034 0.97349 0.51293 0.0
C1198 C 0.27458 0.98385 0.49283 0.0
C1199 C 0.23455 0.97612 0.47966 0.0
C1200 C 0.21618 0.97088 0.45861 0.0
C1201 C 0.2684 0.98371 0.52045 0.0
C1202 C 0.24492 0.98009 0.5277 0.0
C1203 C 0.2283 0.97641 0.50724 0.0
C1204 C 0.23733 0.97914 0.55644 0.0
C1205 C 0.28718 0.98673 0.54161 0.0
C1206 C 0.22694 0.95888 0.56662 0.0
C1207 C 0.21963 0.95779 0.59368 0.0
C1208 C 0.2226 0.97695 0.61101 0.0
C1209 C 0.23287 0.99729 0.60074 0.0
C1210 C 0.24006 0.99841 0.57361 0.0
H1211 H 0.30473 0.98352 0.53304 0.0
H1212 H 0.28674 0.00481 0.54938 0.0
H1213 H 0.28443 0.97479 0.55907 0.0
H1214 H 0.22461 0.94385 0.55364 0.0
H1215 H 0.21173 0.94191 0.60104 0.0
H1216 H 0.46053 0.79883 0.90426 0.0
H1217 H 0.46614 0.78455 0.95058 0.0
H1218 H 0.52017 0.73856 0.92243 0.0
H1219 H 0.51425 0.75246 0.87574 0.0
H1220 H 0.48962 0.71652 0.95511 0.0
H1221 H 0.51748 0.79821 0.00425 0.0
H1222 H 0.4906 0.80185 0.98631 0.0
H1223 H 0.51661 0.79476 0.96773 0.0
C1224 C 0.47374 0.78582 0.90795 0.0
C1225 C 0.487 0.77679 0.88643 0.0
C1226 C 0.47706 0.7778 0.93447 0.0
C1227 C 0.4939 0.76084 0.94004 0.0
C1228 C 0.50722 0.75181 0.91858 0.0
H1229 H 0.51907 0.72549 0.11127 0.0
H1230 H 0.52567 0.73684 0.06379 0.0
C1231 C 0.50382 0.75975 0.89197 0.0
C1232 C 0.49647 0.75162 0.96802 0.0
H1233 H 0.50273 0.76847 0.03418 0.0
C1234 C 0.49284 0.72781 0.97238 0.0
C1235 C 0.50114 0.76626 0.99047 0.0
C1236 C 0.50693 0.79164 0.98694 0.0
C1237 C 0.49251 0.71847 -0.00125 0.0
C1238 C 0.49531 0.73347 0.02132 0.0
C1239 C 0.50022 0.75704 0.01688 0.0
C1240 C 0.49196 0.72538 0.04967 0.0
C1241 C 0.48899 0.69266 0.00213 0.0
C1242 C 0.47078 0.71534 0.05748 0.0
C1243 C 0.46704 0.70872 0.08445 0.0
C1244 C 0.4843 0.71234 0.10421 0.0
C1245 C 0.50548 0.72247 0.09643 0.0
C1246 C 0.50927 0.72895 0.06936 0.0
H1247 H 0.49506 0.683 0.9839 0.0
H1248 H 0.49833 0.68596 0.02029 0.0
H1249 H 0.47019 0.68903 0.00465 0.0
H1250 H 0.45692 0.71305 0.04282 0.0
H1251 H 0.45047 0.70113 0.08991 0.0
H1252 H 0.79031 0.45399 0.59317 0.0
H1253 H 0.77725 0.46057 0.54652 0.0
H1254 H 0.74664 0.52578 0.5706 0.0
H1255 H 0.75917 0.51898 0.61764 0.0
H1256 H 0.71758 0.5009 0.53931 0.0
H1257 H 0.80379 0.50396 0.49019 0.0
H1258 H 0.80024 0.47785 0.50963 0.0
H1259 H 0.80019 0.50555 0.52665 0.0
C1260 C 0.78091 0.46979 0.58851 0.0
C1261 C 0.77582 0.48602 0.60898 0.0
C1262 C 0.77362 0.47362 0.5618 0.0
C1263 C 0.76144 0.49392 0.55497 0.0
C1264 C 0.75621 0.51011 0.57541 0.0
H1265 H 0.73584 0.5172 0.3811 0.0
H1266 H 0.74745 0.52418 0.42841 0.0
C1267 C 0.76335 0.5062 0.60223 0.0
C1268 C 0.75325 0.49753 0.52671 0.0
H1269 H 0.77132 0.49595 0.46064 0.0
C1270 C 0.72935 0.50019 0.5221 0.0
C1271 C 0.76866 0.49714 0.5043 0.0
C1272 C 0.79466 0.49624 0.50795 0.0
C1273 C 0.72032 0.50114 0.49559 0.0
C1274 C 0.73557 0.49874 0.47319 0.0
C1275 C 0.75958 0.49744 0.47782 0.0
C1276 C 0.72698 0.49598 0.44495 0.0
C1277 C 0.69453 0.50451 0.49192 0.0
C1278 C 0.71167 0.47782 0.43858 0.0
C1279 C 0.70489 0.47394 0.4117 0.0
C1280 C 0.71363 0.4879 0.39061 0.0
C1281 C 0.72884 0.50618 0.39698 0.0
C1282 C 0.73546 0.51019 0.42396 0.0
H1283 H 0.68691 0.51413 0.50936 0.0
H1284 H 0.69057 0.51411 0.47286 0.0
H1285 H 0.68594 0.48728 0.49097 0.0
H1286 H 0.70544 0.46619 0.45431 0.0
H1287 H 0.69329 0.4596 0.40737 0.0
H1288 H 0.98099 0.75884 0.11727 0.0
H1289 H 0.97517 0.74613 0.07013 0.0
H1290 H 0.03587 0.78469 0.04552 0.0
H1291 H 0.04145 0.79787 0.09231 0.0
H1292 H -0.00084 0.79051 0.01043 0.0
H1293 H 0.01431 0.69694 0.03226 0.0
H1294 H 0.99138 0.71023 0.05152 0.0
H1295 H 0.02087 0.71946 0.0566 0.0
C1296 C 0.99305 0.76461 0.10176 0.0
C1297 C 0.01176 0.77921 0.10844 0.0
C1298 C 0.98976 0.75727 0.07491 0.0
C1299 C 0.00529 0.76421 0.05445 0.0
C1300 C 0.02371 0.77912 0.06104 0.0
H1301 H 0.04532 0.707 0.90287 0.0
H1302 H 0.0394 0.71926 0.94987 0.0
C1303 C 0.02691 0.78658 0.08778 0.0
C1304 C 0.00277 0.7558 0.02615 0.0
H1305 H 0.00589 0.70704 0.98689 0.0
C1306 C 0.00042 0.77225 0.00523 0.0
C1307 C 0.0046 0.73197 0.01954 0.0
C1308 C 0.00812 0.71359 0.04108 0.0
C1309 C 0.00054 0.76559 0.97777 0.0
C1310 C 0.00255 0.74178 0.97116 0.0
C1311 C 0.00419 0.72527 0.9921 0.0
C1312 C 0.00528 0.7338 0.94272 0.0
C1313 C -0.00035 0.78418 0.95611 0.0
C1314 C 0.98791 0.73767 0.92317 0.0
C1315 C 0.99134 0.73083 0.89614 0.0
C1316 C 0.01209 0.71982 0.88842 0.0
C1317 C 0.02917 0.71548 0.9082 0.0
C1318 C 0.02579 0.72243 0.93508 0.0
H1319 H 0.00305 0.80174 0.9646 0.0
H1320 H 0.01255 0.78066 0.93983 0.0
H1321 H 0.98214 0.78434 0.9467 0.0
H1322 H 0.97177 0.74604 0.92879 0.0
H1323 H 0.97783 0.73423 0.88132 0.0
H1324 H 0.73553 0.98678 0.61294 0.0
H1325 H 0.74846 0.98454 0.56535 0.0
H1326 H 0.72105 0.05305 0.5505 0.0
H1327 H 0.70796 0.05541 0.59775 0.0
H1328 H 0.71734 0.99345 0.51475 0.0
H1329 H 0.79301 0.05254 0.5276 0.0
H1330 H 0.78048 0.03654 0.55565 0.0
H1331 H 0.76598 0.06174 0.54249 0.0
C1332 C 0.73223 0.00132 0.59949 0.0
C1333 C 0.7208 0.02129 0.60902 0.0
C1334 C 0.73959 0.0 0.57239 0.0
C1335 C 0.73583 0.01872 0.55467 0.0
C1336 C 0.72424 0.03854 0.56405 0.0
H1337 H 0.76928 0.05874 0.39097 0.0
H1338 H 0.75758 0.05612 0.43874 0.0
C1339 C 0.71674 0.03981 0.59099 0.0
C1340 C 0.74395 0.01775 0.52624 0.0
H1341 H 0.78306 0.04195 0.48257 0.0
C1342 C 0.73183 0.00384 0.50764 0.0
C1343 C 0.76275 0.03148 0.51725 0.0
C1344 C 0.77649 0.04635 0.53674 0.0
C1345 C 0.73761 0.00386 0.47988 0.0
C1346 C 0.75634 0.01777 0.47079 0.0
C1347 C 0.7687 0.03134 0.48959 0.0
C1348 C 0.76308 0.01902 0.44175 0.0
C1349 C 0.72307 0.9897 0.46044 0.0
C1350 C 0.77023 0.99906 0.42771 0.0
C1351 C 0.77674 0.00048 0.40036 0.0
C1352 C 0.7765 0.02195 0.38675 0.0
C1353 C 0.76961 0.04196 0.40094 0.0
C1354 C 0.76294 0.04049 0.42821 0.0
H1355 H 0.70597 0.98507 0.46939 0.0
H1356 H 0.72008 -0.00075 0.44111 0.0
H1357 H 0.73233 0.97332 0.45561 0.0
H1358 H 0.77099 0.98242 0.43795 0.0
H1359 H 0.78216 0.98481 0.38997 0.0
loop_
_geom_bond_atom_site_label_1
_geom_bond_atom_site_label_2
_geom_bond_distance
_geom_bond_site_symmetry_2
_ccdc_geom_bond_type
In0 O1 2.294 . S
In0 O2 2.326 . S
In0 O6 2.266 . S
In0 O7 2.326 . S
In0 O8 2.266 . S
In0 O9 2.326 . S
In0 O11 2.294 . S
In0 O12 2.326 . S
O1 In0 2.294 . S
O1 C10 1.240 . S
O2 In0 2.326 . S
O2 C10 1.252 . S
C3 O6 1.252 . S
C3 O7 1.260 . S
C4 O11 1.240 . S
C4 O12 1.252 . S
C5 O8 1.252 . S
C5 O9 1.260 . S
O6 In0 2.266 . S
O6 C3 1.252 . S
O7 In0 2.326 . S
O7 C3 1.260 . S
O8 In0 2.266 . S
O8 C5 1.252 . S
O9 In0 2.326 . S
O9 C5 1.260 . S
C10 O1 1.240 . S
C10 O2 1.252 . S
O11 In0 2.294 . S
O11 C4 1.240 . S
O12 In0 2.326 . S
O12 C4 1.252 . S
In13 O14 2.294 . S
In13 O15 2.326 . S
In13 O19 2.266 . S
In13 O20 2.326 . S
In13 O21 2.266 . S
In13 O22 2.326 . S
In13 O24 2.294 . S
In13 O25 2.326 . S
O14 In13 2.294 . S
O14 C23 1.240 . S
O15 In13 2.326 . S
O15 C23 1.252 . S
C16 O19 1.252 . S
C16 O20 1.260 . S
C17 O24 1.240 . S
C17 O25 1.252 . S
C18 O21 1.252 . S
C18 O22 1.260 . S
O19 In13 2.266 . S
O19 C16 1.252 . S
O20 In13 2.326 . S
O20 C16 1.260 . S
O21 In13 2.266 . S
O21 C18 1.252 . S
O22 In13 2.326 . S
O22 C18 1.260 . S
C23 O14 1.240 . S
C23 O15 1.252 . S
O24 In13 2.294 . S
O24 C17 1.240 . S
O25 In13 2.326 . S
O25 C17 1.252 . S
In26 O27 2.294 1_655 S
In26 O28 2.326 . S
In26 O32 2.266 . S
In26 O33 2.326 . S
In26 O34 2.266 . S
In26 O35 2.330 . S
In26 O37 2.294 . S
In26 O38 2.326 . S
O27 In26 2.294 1_455 S
O27 C36 1.240 . S
O28 In26 2.326 . S
O28 C36 1.252 1_655 S
C29 O32 1.252 . S
C29 O33 1.260 . S
C30 O37 1.240 . S
C30 O38 1.252 . S
C31 O34 1.252 . S
C31 O35 1.265 . S
O32 In26 2.266 . S
O32 C29 1.252 . S
O33 In26 2.326 . S
O33 C29 1.260 . S
O34 In26 2.266 . S
O34 C31 1.252 . S
O35 In26 2.330 . S
O35 C31 1.265 . S
C36 O27 1.240 . S
C36 O28 1.252 1_455 S
O37 In26 2.294 . S
O37 C30 1.240 . S
O38 In26 2.326 . S
O38 C30 1.252 . S
In39 O40 2.294 1_565 S
In39 O41 2.326 . S
In39 O45 2.266 . S
In39 O46 2.326 . S
In39 O47 2.266 . S
In39 O48 2.330 . S
In39 O50 2.294 . S
In39 O51 2.326 . S
O40 In39 2.294 1_545 S
O40 C49 1.240 . S
O41 In39 2.326 . S
O41 C49 1.252 1_565 S
C42 O45 1.252 . S
C42 O46 1.260 . S
C43 O50 1.240 . S
C43 O51 1.252 . S
C44 O47 1.252 . S
C44 O48 1.265 . S
O45 In39 2.266 . S
O45 C42 1.252 . S
O46 In39 2.326 . S
O46 C42 1.260 . S
O47 In39 2.266 . S
O47 C44 1.252 . S
O48 In39 2.330 . S
O48 C44 1.265 . S
C49 O40 1.240 . S
C49 O41 1.252 1_545 S
O50 In39 2.294 . S
O50 C43 1.240 . S
O51 In39 2.326 . S
O51 C43 1.252 . S
In52 O53 2.294 . S
In52 O54 2.326 . S
In52 O58 2.266 . S
In52 O59 2.326 . S
In52 O60 2.266 . S
In52 O61 2.326 . S
In52 O63 2.294 . S
In52 O64 2.326 . S
O53 In52 2.294 . S
O53 C62 1.240 . S
O54 In52 2.326 . S
O54 C62 1.252 . S
C55 O58 1.252 . S
C55 O59 1.260 . S
C56 O63 1.240 . S
C56 O64 1.252 . S
C57 O60 1.252 . S
C57 O61 1.260 . S
O58 In52 2.266 . S
O58 C55 1.252 . S
O59 In52 2.326 . S
O59 C55 1.260 . S
O60 In52 2.266 . S
O60 C57 1.252 . S
O61 In52 2.326 . S
O61 C57 1.260 . S
C62 O53 1.240 . S
C62 O54 1.252 . S
O63 In52 2.294 . S
O63 C56 1.240 . S
O64 In52 2.326 . S
O64 C56 1.252 . S
In65 O66 2.294 . S
In65 O67 2.326 . S
In65 O71 2.266 . S
In65 O72 2.326 . S
In65 O73 2.266 . S
In65 O74 2.326 . S
In65 O76 2.294 . S
In65 O77 2.326 . S
O66 In65 2.294 . S
O66 C75 1.240 . S
O67 In65 2.326 . S
O67 C75 1.252 . S
C68 O71 1.252 . S
C68 O72 1.260 . S
C69 O76 1.240 . S
C69 O77 1.252 . S
C70 O73 1.252 . S
C70 O74 1.260 . S
O71 In65 2.266 . S
O71 C68 1.252 . S
O72 In65 2.326 . S
O72 C68 1.260 . S
O73 In65 2.266 . S
O73 C70 1.252 . S
O74 In65 2.326 . S
O74 C70 1.260 . S
C75 O66 1.240 . S
C75 O67 1.252 . S
O76 In65 2.294 . S
O76 C69 1.240 . S
O77 In65 2.326 . S
O77 C69 1.252 . S
In78 O79 2.294 . S
In78 O80 2.326 . S
In78 O84 2.266 . S
In78 O85 2.330 . S
In78 O86 2.266 . S
In78 O87 2.326 . S
In78 O89 2.294 1_655 S
In78 O90 2.326 . S
O79 In78 2.294 . S
O79 C88 1.240 . S
O80 In78 2.326 . S
O80 C88 1.252 . S
C81 O84 1.252 . S
C81 O85 1.265 . S
C82 O89 1.240 . S
C82 O90 1.252 1_455 S
C83 O86 1.252 . S
C83 O87 1.260 . S
O84 In78 2.266 . S
O84 C81 1.252 . S
O85 In78 2.330 . S
O85 C81 1.265 . S
O86 In78 2.266 . S
O86 C83 1.252 . S
O87 In78 2.326 . S
O87 C83 1.260 . S
C88 O79 1.240 . S
C88 O80 1.252 . S
O89 In78 2.294 1_455 S
O89 C82 1.240 . S
O90 In78 2.326 . S
O90 C82 1.252 1_655 S
In91 O92 2.294 . S
In91 O93 2.326 . S
In91 O97 2.266 . S
In91 O98 2.330 . S
In91 O99 2.266 . S
In91 O100 2.326 . S
In91 O102 2.294 1_565 S
In91 O103 2.326 . S
O92 In91 2.294 . S
O92 C101 1.240 . S
O93 In91 2.326 . S
O93 C101 1.252 . S
C94 O97 1.252 . S
C94 O98 1.265 . S
C95 O102 1.240 . S
C95 O103 1.252 1_545 S
C96 O99 1.252 . S
C96 O100 1.260 . S
O97 In91 2.266 . S
O97 C94 1.252 . S
O98 In91 2.330 . S
O98 C94 1.265 . S
O99 In91 2.266 . S
O99 C96 1.252 . S
O100 In91 2.326 . S
O100 C96 1.260 . S
C101 O92 1.240 . S
C101 O93 1.252 . S
O102 In91 2.294 1_545 S
O102 C95 1.240 . S
O103 In91 2.326 . S
O103 C95 1.252 1_565 S
In104 O105 2.294 . S
In104 O106 2.326 . S
In104 O110 2.266 . S
In104 O111 2.326 . S
In104 O112 2.266 . S
In104 O113 2.326 . S
In104 O115 2.294 . S
In104 O116 2.326 . S
O105 In104 2.294 . S
O105 C114 1.240 . S
O106 In104 2.326 . S
O106 C114 1.252 . S
C107 O110 1.252 . S
C107 O111 1.260 . S
C108 O115 1.240 . S
C108 O116 1.252 . S
C109 O112 1.252 . S
C109 O113 1.260 . S
O110 In104 2.266 . S
O110 C107 1.252 . S
O111 In104 2.326 . S
O111 C107 1.260 . S
O112 In104 2.266 . S
O112 C109 1.252 . S
O113 In104 2.326 . S
O113 C109 1.260 . S
C114 O105 1.240 . S
C114 O106 1.252 . S
O115 In104 2.294 . S
O115 C108 1.240 . S
O116 In104 2.326 . S
O116 C108 1.252 . S
In117 O118 2.294 . S
In117 O119 2.326 . S
In117 O123 2.266 . S
In117 O124 2.326 . S
In117 O125 2.266 . S
In117 O126 2.326 . S
In117 O128 2.294 . S
In117 O129 2.326 . S
O118 In117 2.294 . S
O118 C127 1.240 . S
O119 In117 2.326 . S
O119 C127 1.252 . S
C120 O123 1.252 . S
C120 O124 1.260 . S
C121 O128 1.240 . S
C121 O129 1.252 . S
C122 O125 1.252 . S
C122 O126 1.260 . S
O123 In117 2.266 . S
O123 C120 1.252 . S
O124 In117 2.326 . S
O124 C120 1.260 . S
O125 In117 2.266 . S
O125 C122 1.252 . S
O126 In117 2.326 . S
O126 C122 1.260 . S
C127 O118 1.240 . S
C127 O119 1.252 . S
O128 In117 2.294 . S
O128 C121 1.240 . S
O129 In117 2.326 . S
O129 C121 1.252 . S
In130 O131 2.294 . S
In130 O132 2.326 . S
In130 O136 2.266 . S
In130 O137 2.330 . S
In130 O138 2.266 . S
In130 O139 2.326 . S
In130 O141 2.294 1_455 S
In130 O142 2.326 . S
O131 In130 2.294 . S
O131 C140 1.240 . S
O132 In130 2.326 . S
O132 C140 1.252 . S
C133 O136 1.252 . S
C133 O137 1.265 . S
C134 O141 1.240 . S
C134 O142 1.252 1_655 S
C135 O138 1.252 . S
C135 O139 1.260 . S
O136 In130 2.266 . S
O136 C133 1.252 . S
O137 In130 2.330 . S
O137 C133 1.265 . S
O138 In130 2.266 . S
O138 C135 1.252 . S
O139 In130 2.326 . S
O139 C135 1.260 . S
C140 O131 1.240 . S
C140 O132 1.252 . S
O141 In130 2.294 1_655 S
O141 C134 1.240 . S
O142 In130 2.326 . S
O142 C134 1.252 1_455 S
In143 O144 2.294 1_545 S
In143 O145 2.326 . S
In143 O149 2.266 . S
In143 O150 2.326 . S
In143 O151 2.266 . S
In143 O152 2.330 . S
In143 O154 2.294 . S
In143 O155 2.326 . S
O144 In143 2.294 1_565 S
O144 C153 1.240 . S
O145 In143 2.326 . S
O145 C153 1.252 1_545 S
C146 O149 1.252 . S
C146 O150 1.260 . S
C147 O154 1.240 . S
C147 O155 1.252 . S
C148 O151 1.252 . S
C148 O152 1.265 . S
O149 In143 2.266 . S
O149 C146 1.252 . S
O150 In143 2.326 . S
O150 C146 1.260 . S
O151 In143 2.266 . S
O151 C148 1.252 . S
O152 In143 2.330 . S
O152 C148 1.265 . S
C153 O144 1.240 . S
C153 O145 1.252 1_565 S
O154 In143 2.294 . S
O154 C147 1.240 . S
O155 In143 2.326 . S
O155 C147 1.252 . S
In156 O157 2.294 . S
In156 O158 2.326 . S
In156 O162 2.266 . S
In156 O163 2.326 . S
In156 O164 2.266 . S
In156 O165 2.326 . S
In156 O167 2.294 . S
In156 O168 2.326 . S
O157 In156 2.294 . S
O157 C166 1.240 . S
O158 In156 2.326 . S
O158 C166 1.252 . S
C159 O162 1.252 . S
C159 O163 1.260 . S
C160 O167 1.240 . S
C160 O168 1.252 . S
C161 O164 1.252 . S
C161 O165 1.260 . S
O162 In156 2.266 . S
O162 C159 1.252 . S
O163 In156 2.326 . S
O163 C159 1.260 . S
O164 In156 2.266 . S
O164 C161 1.252 . S
O165 In156 2.326 . S
O165 C161 1.260 . S
C166 O157 1.240 . S
C166 O158 1.252 . S
O167 In156 2.294 . S
O167 C160 1.240 . S
O168 In156 2.326 . S
O168 C160 1.252 . S
In169 O170 2.294 . S
In169 O171 2.326 . S
In169 O175 2.266 . S
In169 O176 2.326 . S
In169 O177 2.266 . S
In169 O178 2.326 . S
In169 O180 2.294 . S
In169 O181 2.326 . S
O170 In169 2.294 . S
O170 C179 1.240 . S
O171 In169 2.326 . S
O171 C179 1.252 . S
C172 O175 1.252 . S
C172 O176 1.260 . S
C173 O180 1.240 . S
C173 O181 1.252 . S
C174 O177 1.252 . S
C174 O178 1.260 . S
O175 In169 2.266 . S
O175 C172 1.252 . S
O176 In169 2.326 . S
O176 C172 1.260 . S
O177 In169 2.266 . S
O177 C174 1.252 . S
O178 In169 2.326 . S
O178 C174 1.260 . S
C179 O170 1.240 . S
C179 O171 1.252 . S
O180 In169 2.294 . S
O180 C173 1.240 . S
O181 In169 2.326 . S
O181 C173 1.252 . S
In182 O183 2.294 . S
In182 O184 2.326 . S
In182 O188 2.266 . S
In182 O189 2.330 . S
In182 O190 2.266 . S
In182 O191 2.326 . S
In182 O193 2.294 1_455 S
In182 O194 2.326 . S
O183 In182 2.294 . S
O183 C192 1.240 . S
O184 In182 2.326 . S
O184 C192 1.252 . S
C185 O188 1.252 . S
C185 O189 1.265 . S
C186 O193 1.240 . S
C186 O194 1.252 1_655 S
C187 O190 1.252 . S
C187 O191 1.260 . S
O188 In182 2.266 . S
O188 C185 1.252 . S
O189 In182 2.330 . S
O189 C185 1.265 . S
O190 In182 2.266 . S
O190 C187 1.252 . S
O191 In182 2.326 . S
O191 C187 1.260 . S
C192 O183 1.240 . S
C192 O184 1.252 . S
O193 In182 2.294 1_655 S
O193 C186 1.240 . S
O194 In182 2.326 . S
O194 C186 1.252 1_455 S
In195 O196 2.294 1_545 S
In195 O197 2.326 . S
In195 O201 2.266 . S
In195 O202 2.326 . S
In195 O203 2.266 . S
In195 O204 2.330 . S
In195 O206 2.294 . S
In195 O207 2.326 . S
O196 In195 2.294 1_565 S
O196 C205 1.240 . S
O197 In195 2.326 . S
O197 C205 1.252 1_545 S
C198 O201 1.252 . S
C198 O202 1.260 . S
C199 O206 1.240 . S
C199 O207 1.252 . S
C200 O203 1.252 . S
C200 O204 1.265 . S
O201 In195 2.266 . S
O201 C198 1.252 . S
O202 In195 2.326 . S
O202 C198 1.260 . S
O203 In195 2.266 . S
O203 C200 1.252 . S
O204 In195 2.330 . S
O204 C200 1.265 . S
C205 O196 1.240 . S
C205 O197 1.252 1_565 S
O206 In195 2.294 . S
O206 C199 1.240 . S
O207 In195 2.326 . S
O207 C199 1.252 . S
H208 C216 0.929 . S
H209 C218 0.930 . S
H210 C220 0.930 . S
H211 C223 0.929 . S
H212 C226 0.930 . S
H213 C228 0.960 . S
H214 C228 0.960 . S
H215 C228 0.960 . S
C216 H208 0.929 . S
C216 C217 1.377 . S
C216 C218 1.384 . S
C217 C216 1.377 . S
C217 C223 1.390 . S
C218 H209 0.930 . S
C218 C216 1.384 . S
C218 C219 1.372 . S
C219 C218 1.372 . S
C219 C220 1.400 . S
C219 C224 1.490 . S
C220 H210 0.930 . S
C220 C219 1.400 . S
C220 C223 1.386 . S
H221 C237 0.930 . S
H222 C238 0.931 . S
C223 H211 0.929 . S
C223 C217 1.390 . S
C223 C220 1.386 . S
C224 C219 1.490 . S
C224 C226 1.395 . S
C224 C227 1.403 . S
H225 C231 0.930 . S
C226 H212 0.930 . S
C226 C224 1.395 . S
C226 C229 1.403 . S
C227 C224 1.403 . S
C227 C228 1.524 . S
C227 C231 1.400 . S
C228 H213 0.960 . S
C228 H214 0.960 . S
C228 H215 0.960 . S
C228 C227 1.524 . S
C229 C226 1.403 . S
C229 C230 1.392 . S
C229 C233 1.495 . S
C230 C229 1.392 . S
C230 C231 1.385 . S
C230 C232 1.478 . S
C231 H225 0.930 . S
C231 C227 1.400 . S
C231 C230 1.385 . S
C232 C230 1.478 . S
C232 C234 1.381 . S
C232 C238 1.383 . S
C233 C229 1.495 . S
C233 H239 0.959 . S
C233 H240 0.961 . S
C233 H241 0.960 . S
C234 C232 1.381 . S
C234 C235 1.394 . S
C234 H242 0.930 . S
C235 C234 1.394 . S
C235 C236 1.383 . S
C235 H243 0.929 . S
C236 C235 1.383 . S
C236 C237 1.377 . S
C237 H221 0.930 . S
C237 C236 1.377 . S
C237 C238 1.379 . S
C238 H222 0.931 . S
C238 C232 1.383 . S
C238 C237 1.379 . S
H239 C233 0.959 . S
H240 C233 0.961 . S
H241 C233 0.960 . S
H242 C234 0.930 . S
H243 C235 0.929 . S
H244 C252 0.929 . S
H245 C254 0.930 . S
H246 C256 0.930 . S
H247 C259 0.929 . S
H248 C262 0.930 . S
H249 C264 0.960 . S
H250 C264 0.960 . S
H251 C264 0.960 . S
C252 H244 0.929 . S
C252 C253 1.377 . S
C252 C254 1.384 . S
C253 C252 1.377 . S
C253 C259 1.390 . S
C254 H245 0.930 . S
C254 C252 1.384 . S
C254 C255 1.372 . S
C255 C254 1.372 . S
C255 C256 1.400 . S
C255 C260 1.490 . S
C256 H246 0.930 . S
C256 C255 1.400 . S
C256 C259 1.386 . S
H257 C273 0.930 . S
H258 C274 0.931 . S
C259 H247 0.929 . S
C259 C253 1.390 . S
C259 C256 1.386 . S
C260 C255 1.490 . S
C260 C262 1.395 . S
C260 C263 1.403 . S
H261 C267 0.930 . S
C262 H248 0.930 . S
C262 C260 1.395 . S
C262 C265 1.403 . S
C263 C260 1.403 . S
C263 C264 1.524 . S
C263 C267 1.400 . S
C264 H249 0.960 . S
C264 H250 0.960 . S
C264 H251 0.960 . S
C264 C263 1.524 . S
C265 C262 1.403 . S
C265 C266 1.392 . S
C265 C269 1.495 . S
C266 C265 1.392 . S
C266 C267 1.385 . S
C266 C268 1.478 . S
C267 H261 0.930 . S
C267 C263 1.400 . S
C267 C266 1.385 . S
C268 C266 1.478 . S
C268 C270 1.381 . S
C268 C274 1.383 . S
C269 C265 1.495 . S
C269 H275 0.959 . S
C269 H276 0.961 . S
C269 H277 0.960 . S
C270 C268 1.381 . S
C270 C271 1.394 . S
C270 H278 0.930 . S
C271 C270 1.394 . S
C271 C272 1.383 . S
C271 H279 0.929 . S
C272 C271 1.383 . S
C272 C273 1.377 . S
C273 H257 0.930 . S
C273 C272 1.377 . S
C273 C274 1.379 . S
C274 H258 0.931 . S
C274 C268 1.383 . S
C274 C273 1.379 . S
H275 C269 0.959 . S
H276 C269 0.961 . S
H277 C269 0.960 . S
H278 C270 0.930 . S
H279 C271 0.929 . S
H280 C288 0.929 . S
H281 C290 0.930 . S
H282 C292 0.930 . S
H283 C295 0.929 . S
H284 C298 0.930 . S
H285 C300 0.960 . S
H286 C300 0.960 . S
H287 C300 0.960 . S
C288 H280 0.929 . S
C288 C289 1.377 . S
C288 C290 1.384 . S
C289 C288 1.377 . S
C289 C295 1.390 . S
C290 H281 0.930 . S
C290 C288 1.384 . S
C290 C291 1.372 . S
C291 C290 1.372 . S
C291 C292 1.400 . S
C291 C296 1.490 . S
C292 H282 0.930 . S
C292 C291 1.400 . S
C292 C295 1.386 . S
H293 C309 0.930 . S
H294 C310 0.931 . S
C295 H283 0.929 . S
C295 C289 1.390 . S
C295 C292 1.386 . S
C296 C291 1.490 . S
C296 C298 1.395 . S
C296 C299 1.403 . S
H297 C303 0.930 . S
C298 H284 0.930 . S
C298 C296 1.395 . S
C298 C301 1.403 . S
C299 C296 1.403 . S
C299 C300 1.524 . S
C299 C303 1.400 . S
C300 H285 0.960 . S
C300 H286 0.960 . S
C300 H287 0.960 . S
C300 C299 1.524 . S
C301 C298 1.403 . S
C301 C302 1.392 . S
C301 C305 1.495 . S
C302 C301 1.392 . S
C302 C303 1.385 . S
C302 C304 1.478 . S
C303 H297 0.930 . S
C303 C299 1.400 . S
C303 C302 1.385 . S
C304 C302 1.478 . S
C304 C306 1.381 . S
C304 C310 1.383 . S
C305 C301 1.495 . S
C305 H311 0.959 . S
C305 H312 0.961 . S
C305 H313 0.960 . S
C306 C304 1.381 . S
C306 C307 1.394 . S
C306 H314 0.930 . S
C307 C306 1.394 . S
C307 C308 1.383 . S
C307 H315 0.929 . S
C308 C307 1.383 . S
C308 C309 1.377 . S
C309 H293 0.930 . S
C309 C308 1.377 . S
C309 C310 1.379 . S
C310 H294 0.931 . S
C310 C304 1.383 . S
C310 C309 1.379 . S
H311 C305 0.959 . S
H312 C305 0.961 . S
H313 C305 0.960 . S
H314 C306 0.930 . S
H315 C307 0.929 . S
H316 C324 0.929 . S
H317 C326 0.930 . S
H318 C328 0.930 . S
H319 C331 0.929 . S
H320 C334 0.930 . S
H321 C336 0.960 . S
H322 C336 0.960 . S
H323 C336 0.960 . S
C324 H316 0.929 . S
C324 C325 1.377 . S
C324 C326 1.384 . S
C325 C324 1.377 . S
C325 C331 1.390 . S
C326 H317 0.930 . S
C326 C324 1.384 . S
C326 C327 1.372 . S
C327 C326 1.372 . S
C327 C328 1.400 . S
C327 C332 1.490 . S
C328 H318 0.930 . S
C328 C327 1.400 . S
C328 C331 1.386 . S
H329 C345 0.930 . S
H330 C346 0.931 . S
C331 H319 0.929 . S
C331 C325 1.390 . S
C331 C328 1.386 . S
C332 C327 1.490 . S
C332 C334 1.395 . S
C332 C335 1.403 . S
H333 C339 0.930 . S
C334 H320 0.930 . S
C334 C332 1.395 . S
C334 C337 1.403 . S
C335 C332 1.403 . S
C335 C336 1.524 . S
C335 C339 1.400 . S
C336 H321 0.960 . S
C336 H322 0.960 . S
C336 H323 0.960 . S
C336 C335 1.524 . S
C337 C334 1.403 . S
C337 C338 1.392 . S
C337 C341 1.495 . S
C338 C337 1.392 . S
C338 C339 1.385 . S
C338 C340 1.478 . S
C339 H333 0.930 . S
C339 C335 1.400 . S
C339 C338 1.385 . S
C340 C338 1.478 . S
C340 C342 1.381 . S
C340 C346 1.383 . S
C341 C337 1.495 . S
C341 H347 0.959 . S
C341 H348 0.961 . S
C341 H349 0.960 . S
C342 C340 1.381 . S
C342 C343 1.394 . S
C342 H350 0.930 . S
C343 C342 1.394 . S
C343 C344 1.383 . S
C343 H351 0.929 . S
C344 C343 1.383 . S
C344 C345 1.377 . S
C345 H329 0.930 . S
C345 C344 1.377 . S
C345 C346 1.379 . S
C346 H330 0.931 . S
C346 C340 1.383 . S
C346 C345 1.379 . S
H347 C341 0.959 . S
H348 C341 0.961 . S
H349 C341 0.960 . S
H350 C342 0.930 . S
H351 C343 0.929 . S
H352 C360 0.929 . S
H353 C362 0.930 . S
H354 C364 0.930 . S
H355 C367 0.929 . S
H356 C370 0.930 . S
H357 C372 0.960 . S
H358 C372 0.960 . S
H359 C372 0.960 . S
C360 H352 0.929 . S
C360 C361 1.377 . S
C360 C362 1.384 . S
C361 C360 1.377 . S
C361 C367 1.390 . S
C362 H353 0.930 . S
C362 C360 1.384 . S
C362 C363 1.372 . S
C363 C362 1.372 . S
C363 C364 1.400 . S
C363 C368 1.490 . S
C364 H354 0.930 . S
C364 C363 1.400 . S
C364 C367 1.386 . S
H365 C381 0.930 . S
H366 C382 0.931 . S
C367 H355 0.929 . S
C367 C361 1.390 . S
C367 C364 1.386 . S
C368 C363 1.490 . S
C368 C370 1.395 . S
C368 C371 1.403 . S
H369 C375 0.930 . S
C370 H356 0.930 . S
C370 C368 1.395 . S
C370 C373 1.403 . S
C371 C368 1.403 . S
C371 C372 1.524 . S
C371 C375 1.400 . S
C372 H357 0.960 . S
C372 H358 0.960 . S
C372 H359 0.960 . S
C372 C371 1.524 . S
C373 C370 1.403 . S
C373 C374 1.392 . S
C373 C377 1.495 . S
C374 C373 1.392 . S
C374 C375 1.385 . S
C374 C376 1.478 . S
C375 H369 0.930 . S
C375 C371 1.400 . S
C375 C374 1.385 . S
C376 C374 1.478 . S
C376 C378 1.381 . S
C376 C382 1.383 . S
C377 C373 1.495 . S
C377 H383 0.959 . S
C377 H384 0.961 . S
C377 H385 0.960 . S
C378 C376 1.381 . S
C378 C379 1.394 . S
C378 H386 0.930 . S
C379 C378 1.394 . S
C379 C380 1.383 . S
C379 H387 0.929 . S
C380 C379 1.383 . S
C380 C381 1.377 . S
C381 H365 0.930 . S
C381 C380 1.377 . S
C381 C382 1.379 . S
C382 H366 0.931 . S
C382 C376 1.383 . S
C382 C381 1.379 . S
H383 C377 0.959 . S
H384 C377 0.961 . S
H385 C377 0.960 . S
H386 C378 0.930 . S
H387 C379 0.929 . S
H388 C396 0.929 . S
H389 C398 0.930 . S
H390 C400 0.930 . S
H391 C403 0.929 . S
H392 C406 0.930 . S
H393 C408 0.960 . S
H394 C408 0.960 . S
H395 C408 0.960 . S
C396 H388 0.929 . S
C396 C397 1.377 . S
C396 C398 1.384 . S
C397 C396 1.377 . S
C397 C403 1.390 . S
C398 H389 0.930 . S
C398 C396 1.384 . S
C398 C399 1.372 . S
C399 C398 1.372 . S
C399 C400 1.400 . S
C399 C404 1.490 . S
C400 H390 0.930 . S
C400 C399 1.400 . S
C400 C403 1.386 . S
H401 C417 0.930 . S
H402 C418 0.931 . S
C403 H391 0.929 . S
C403 C397 1.390 . S
C403 C400 1.386 . S
C404 C399 1.490 . S
C404 C406 1.395 . S
C404 C407 1.403 . S
H405 C411 0.930 . S
C406 H392 0.930 . S
C406 C404 1.395 . S
C406 C409 1.403 . S
C407 C404 1.403 . S
C407 C408 1.524 . S
C407 C411 1.400 . S
C408 H393 0.960 . S
C408 H394 0.960 . S
C408 H395 0.960 . S
C408 C407 1.524 . S
C409 C406 1.403 . S
C409 C410 1.392 . S
C409 C413 1.495 . S
C410 C409 1.392 . S
C410 C411 1.385 . S
C410 C412 1.478 . S
C411 H405 0.930 . S
C411 C407 1.400 . S
C411 C410 1.385 . S
C412 C410 1.478 . S
C412 C414 1.381 . S
C412 C418 1.383 . S
C413 C409 1.495 . S
C413 H419 0.959 . S
C413 H420 0.961 . S
C413 H421 0.960 . S
C414 C412 1.381 . S
C414 C415 1.394 . S
C414 H422 0.930 . S
C415 C414 1.394 . S
C415 C416 1.383 . S
C415 H423 0.929 . S
C416 C415 1.383 . S
C416 C417 1.377 . S
C417 H401 0.930 . S
C417 C416 1.377 . S
C417 C418 1.379 . S
C418 H402 0.931 . S
C418 C412 1.383 . S
C418 C417 1.379 . S
H419 C413 0.959 . S
H420 C413 0.961 . S
H421 C413 0.960 . S
H422 C414 0.930 . S
H423 C415 0.929 . S
H424 C432 0.929 . S
H425 C434 0.930 . S
H426 C436 0.930 . S
H427 C439 0.929 . S
H428 C442 0.930 . S
H429 C444 0.960 . S
H430 C444 0.960 . S
H431 C444 0.960 . S
C432 H424 0.929 . S
C432 C433 1.377 . S
C432 C434 1.384 . S
C433 C432 1.377 . S
C433 C439 1.390 . S
C434 H425 0.930 . S
C434 C432 1.384 . S
C434 C435 1.372 . S
C435 C434 1.372 . S
C435 C436 1.400 . S
C435 C440 1.490 . S
C436 H426 0.930 . S
C436 C435 1.400 . S
C436 C439 1.386 . S
H437 C453 0.930 . S
H438 C454 0.931 . S
C439 H427 0.929 . S
C439 C433 1.390 . S
C439 C436 1.386 . S
C440 C435 1.490 . S
C440 C442 1.395 . S
C440 C443 1.403 . S
H441 C447 0.930 . S
C442 H428 0.930 . S
C442 C440 1.395 . S
C442 C445 1.403 . S
C443 C440 1.403 . S
C443 C444 1.524 . S
C443 C447 1.400 . S
C444 H429 0.960 . S
C444 H430 0.960 . S
C444 H431 0.960 . S
C444 C443 1.524 . S
C445 C442 1.403 . S
C445 C446 1.392 . S
C445 C449 1.495 . S
C446 C445 1.392 . S
C446 C447 1.385 . S
C446 C448 1.478 . S
C447 H441 0.930 . S
C447 C443 1.400 . S
C447 C446 1.385 . S
C448 C446 1.478 . S
C448 C450 1.381 . S
C448 C454 1.383 . S
C449 C445 1.495 . S
C449 H455 0.959 . S
C449 H456 0.961 . S
C449 H457 0.960 . S
C450 C448 1.381 . S
C450 C451 1.394 . S
C450 H458 0.930 . S
C451 C450 1.394 . S
C451 C452 1.383 . S
C451 H459 0.929 . S
C452 C451 1.383 . S
C452 C453 1.377 . S
C453 H437 0.930 . S
C453 C452 1.377 . S
C453 C454 1.379 . S
C454 H438 0.931 . S
C454 C448 1.383 . S
C454 C453 1.379 . S
H455 C449 0.959 . S
H456 C449 0.961 . S
H457 C449 0.960 . S
H458 C450 0.930 . S
H459 C451 0.929 . S
H460 C468 0.929 . S
H461 C470 0.930 . S
H462 C472 0.930 . S
H463 C475 0.929 . S
H464 C478 0.930 . S
H465 C480 0.960 . S
H466 C480 0.960 . S
H467 C480 0.960 . S
C468 H460 0.929 . S
C468 C469 1.377 . S
C468 C470 1.384 . S
C469 C468 1.377 . S
C469 C475 1.390 . S
C470 H461 0.930 . S
C470 C468 1.384 . S
C470 C471 1.372 . S
C471 C470 1.372 . S
C471 C472 1.400 . S
C471 C476 1.490 . S
C472 H462 0.930 . S
C472 C471 1.400 . S
C472 C475 1.386 . S
H473 C489 0.930 . S
H474 C490 0.931 . S
C475 H463 0.929 . S
C475 C469 1.390 . S
C475 C472 1.386 . S
C476 C471 1.490 . S
C476 C478 1.395 . S
C476 C479 1.403 . S
H477 C483 0.930 . S
C478 H464 0.930 . S
C478 C476 1.395 . S
C478 C481 1.403 . S
C479 C476 1.403 . S
C479 C480 1.524 . S
C479 C483 1.400 . S
C480 H465 0.960 . S
C480 H466 0.960 . S
C480 H467 0.960 . S
C480 C479 1.524 . S
C481 C478 1.403 . S
C481 C482 1.392 . S
C481 C485 1.495 . S
C482 C481 1.392 . S
C482 C483 1.385 . S
C482 C484 1.478 . S
C483 H477 0.930 . S
C483 C479 1.400 . S
C483 C482 1.385 . S
C484 C482 1.478 . S
C484 C486 1.381 . S
C484 C490 1.383 . S
C485 C481 1.495 . S
C485 H491 0.959 . S
C485 H492 0.961 . S
C485 H493 0.960 . S
C486 C484 1.381 . S
C486 C487 1.394 . S
C486 H494 0.930 . S
C487 C486 1.394 . S
C487 C488 1.383 . S
C487 H495 0.929 . S
C488 C487 1.383 . S
C488 C489 1.377 . S
C489 H473 0.930 . S
C489 C488 1.377 . S
C489 C490 1.379 . S
C490 H474 0.931 . S
C490 C484 1.383 . S
C490 C489 1.379 . S
H491 C485 0.959 . S
H492 C485 0.961 . S
H493 C485 0.960 . S
H494 C486 0.930 . S
H495 C487 0.929 . S
H496 C504 0.929 . S
H497 C506 0.930 . S
H498 C508 0.930 . S
H499 C511 0.929 . S
H500 C514 0.930 . S
H501 C516 0.960 . S
H502 C516 0.960 . S
H503 C516 0.960 . S
C504 H496 0.929 . S
C504 C505 1.377 . S
C504 C506 1.384 . S
C505 C504 1.377 . S
C505 C511 1.390 . S
C506 H497 0.930 . S
C506 C504 1.384 . S
C506 C507 1.372 . S
C507 C506 1.372 . S
C507 C508 1.400 . S
C507 C512 1.490 . S
C508 H498 0.930 . S
C508 C507 1.400 . S
C508 C511 1.386 . S
H509 C525 0.930 . S
H510 C526 0.931 . S
C511 H499 0.929 . S
C511 C505 1.390 . S
C511 C508 1.386 . S
C512 C507 1.490 . S
C512 C514 1.395 . S
C512 C515 1.403 . S
H513 C519 0.930 . S
C514 H500 0.930 . S
C514 C512 1.395 . S
C514 C517 1.403 . S
C515 C512 1.403 . S
C515 C516 1.524 . S
C515 C519 1.400 . S
C516 H501 0.960 . S
C516 H502 0.960 . S
C516 H503 0.960 . S
C516 C515 1.524 . S
C517 C514 1.403 . S
C517 C518 1.392 . S
C517 C521 1.495 . S
C518 C517 1.392 . S
C518 C519 1.385 . S
C518 C520 1.478 . S
C519 H513 0.930 . S
C519 C515 1.400 . S
C519 C518 1.385 . S
C520 C518 1.478 . S
C520 C522 1.381 . S
C520 C526 1.383 . S
C521 C517 1.495 . S
C521 H527 0.959 . S
C521 H528 0.961 . S
C521 H529 0.960 . S
C522 C520 1.381 . S
C522 C523 1.394 . S
C522 H530 0.930 . S
C523 C522 1.394 . S
C523 C524 1.383 . S
C523 H531 0.929 . S
C524 C523 1.383 . S
C524 C525 1.377 . S
C525 H509 0.930 . S
C525 C524 1.377 . S
C525 C526 1.379 . S
C526 H510 0.931 . S
C526 C520 1.383 . S
C526 C525 1.379 . S
H527 C521 0.959 . S
H528 C521 0.961 . S
H529 C521 0.960 . S
H530 C522 0.930 . S
H531 C523 0.929 . S
H532 C540 0.929 . S
H533 C542 0.930 . S
H534 C544 0.930 . S
H535 C547 0.929 . S
H536 C550 0.930 . S
H537 C552 0.960 . S
H538 C552 0.960 . S
H539 C552 0.960 . S
C540 H532 0.929 . S
C540 C541 1.377 . S
C540 C542 1.384 . S
C541 C540 1.377 . S
C541 C547 1.390 . S
C542 H533 0.930 . S
C542 C540 1.384 . S
C542 C543 1.372 . S
C543 C542 1.372 . S
C543 C544 1.400 . S
C543 C548 1.490 . S
C544 H534 0.930 . S
C544 C543 1.400 . S
C544 C547 1.386 . S
H545 C561 0.930 . S
H546 C562 0.931 . S
C547 H535 0.929 . S
C547 C541 1.390 . S
C547 C544 1.386 . S
C548 C543 1.490 . S
C548 C550 1.395 . S
C548 C551 1.403 . S
H549 C555 0.930 . S
C550 H536 0.930 . S
C550 C548 1.395 . S
C550 C553 1.403 . S
C551 C548 1.403 . S
C551 C552 1.524 . S
C551 C555 1.400 . S
C552 H537 0.960 . S
C552 H538 0.960 . S
C552 H539 0.960 . S
C552 C551 1.524 . S
C553 C550 1.403 . S
C553 C554 1.392 . S
C553 C557 1.495 . S
C554 C553 1.392 . S
C554 C555 1.385 . S
C554 C556 1.478 . S
C555 H549 0.930 . S
C555 C551 1.400 . S
C555 C554 1.385 . S
C556 C554 1.478 . S
C556 C558 1.381 . S
C556 C562 1.383 . S
C557 C553 1.495 . S
C557 H563 0.959 . S
C557 H564 0.961 . S
C557 H565 0.960 . S
C558 C556 1.381 . S
C558 C559 1.394 . S
C558 H566 0.930 . S
C559 C558 1.394 . S
C559 C560 1.383 . S
C559 H567 0.929 . S
C560 C559 1.383 . S
C560 C561 1.377 . S
C561 H545 0.930 . S
C561 C560 1.377 . S
C561 C562 1.379 . S
C562 H546 0.931 . S
C562 C556 1.383 . S
C562 C561 1.379 . S
H563 C557 0.959 . S
H564 C557 0.961 . S
H565 C557 0.960 . S
H566 C558 0.930 . S
H567 C559 0.929 . S
H568 C576 0.929 . S
H569 C578 0.930 . S
H570 C580 0.930 . S
H571 C583 0.929 . S
H572 C586 0.930 . S
H573 C588 0.960 . S
H574 C588 0.960 . S
H575 C588 0.960 . S
C576 H568 0.929 . S
C576 C577 1.377 . S
C576 C578 1.384 . S
C577 C576 1.377 . S
C577 C583 1.390 . S
C578 H569 0.930 . S
C578 C576 1.384 . S
C578 C579 1.372 . S
C579 C578 1.372 . S
C579 C580 1.400 . S
C579 C584 1.490 . S
C580 H570 0.930 . S
C580 C579 1.400 . S
C580 C583 1.386 . S
H581 C597 0.930 . S
H582 C598 0.931 . S
C583 H571 0.929 . S
C583 C577 1.390 . S
C583 C580 1.386 . S
C584 C579 1.490 . S
C584 C586 1.395 . S
C584 C587 1.403 . S
H585 C591 0.930 . S
C586 H572 0.930 . S
C586 C584 1.395 . S
C586 C589 1.403 . S
C587 C584 1.403 . S
C587 C588 1.524 . S
C587 C591 1.400 . S
C588 H573 0.960 . S
C588 H574 0.960 . S
C588 H575 0.960 . S
C588 C587 1.524 . S
C589 C586 1.403 . S
C589 C590 1.392 . S
C589 C593 1.495 . S
C590 C589 1.392 . S
C590 C591 1.385 . S
C590 C592 1.478 . S
C591 H585 0.930 . S
C591 C587 1.400 . S
C591 C590 1.385 . S
C592 C590 1.478 . S
C592 C594 1.381 . S
C592 C598 1.383 . S
C593 C589 1.495 . S
C593 H599 0.959 . S
C593 H600 0.961 . S
C593 H601 0.960 . S
C594 C592 1.381 . S
C594 C595 1.394 . S
C594 H602 0.930 . S
C595 C594 1.394 . S
C595 C596 1.383 . S
C595 H603 0.929 . S
C596 C595 1.383 . S
C596 C597 1.377 . S
C597 H581 0.930 . S
C597 C596 1.377 . S
C597 C598 1.379 . S
C598 H582 0.931 . S
C598 C592 1.383 . S
C598 C597 1.379 . S
H599 C593 0.959 . S
H600 C593 0.961 . S
H601 C593 0.960 . S
H602 C594 0.930 . S
H603 C595 0.929 . S
H604 C612 0.929 . S
H605 C614 0.930 . S
H606 C616 0.930 . S
H607 C619 0.929 . S
H608 C622 0.930 . S
H609 C624 0.960 . S
H610 C624 0.960 . S
H611 C624 0.960 . S
C612 H604 0.929 . S
C612 C613 1.377 . S
C612 C614 1.384 . S
C613 C612 1.377 . S
C613 C619 1.390 . S
C614 H605 0.930 . S
C614 C612 1.384 . S
C614 C615 1.372 . S
C615 C614 1.372 . S
C615 C616 1.400 . S
C615 C620 1.490 . S
C616 H606 0.930 . S
C616 C615 1.400 . S
C616 C619 1.386 . S
H617 C633 0.930 . S
H618 C634 0.931 . S
C619 H607 0.929 . S
C619 C613 1.390 . S
C619 C616 1.386 . S
C620 C615 1.490 . S
C620 C622 1.395 . S
C620 C623 1.403 . S
H621 C627 0.930 . S
C622 H608 0.930 . S
C622 C620 1.395 . S
C622 C625 1.403 . S
C623 C620 1.403 . S
C623 C624 1.524 . S
C623 C627 1.400 . S
C624 H609 0.960 . S
C624 H610 0.960 . S
C624 H611 0.960 . S
C624 C623 1.524 . S
C625 C622 1.403 . S
C625 C626 1.392 . S
C625 C629 1.495 . S
C626 C625 1.392 . S
C626 C627 1.385 . S
C626 C628 1.478 . S
C627 H621 0.930 . S
C627 C623 1.400 . S
C627 C626 1.385 . S
C628 C626 1.478 . S
C628 C630 1.381 . S
C628 C634 1.383 . S
C629 C625 1.495 . S
C629 H635 0.959 . S
C629 H636 0.961 . S
C629 H637 0.960 . S
C630 C628 1.381 . S
C630 C631 1.394 . S
C630 H638 0.930 . S
C631 C630 1.394 . S
C631 C632 1.383 . S
C631 H639 0.929 . S
C632 C631 1.383 . S
C632 C633 1.377 . S
C633 H617 0.930 . S
C633 C632 1.377 . S
C633 C634 1.379 . S
C634 H618 0.931 . S
C634 C628 1.383 . S
C634 C633 1.379 . S
H635 C629 0.959 . S
H636 C629 0.961 . S
H637 C629 0.960 . S
H638 C630 0.930 . S
H639 C631 0.929 . S
H640 C648 0.929 . S
H641 C650 0.930 . S
H642 C652 0.930 . S
H643 C655 0.929 . S
H644 C658 0.930 . S
H645 C660 0.960 . S
H646 C660 0.960 . S
H647 C660 0.960 . S
C648 H640 0.929 . S
C648 C649 1.377 . S
C648 C650 1.384 . S
C649 C648 1.377 . S
C649 C655 1.390 . S
C650 H641 0.930 . S
C650 C648 1.384 . S
C650 C651 1.372 . S
C651 C650 1.372 . S
C651 C652 1.400 . S
C651 C656 1.490 . S
C652 H642 0.930 . S
C652 C651 1.400 . S
C652 C655 1.386 . S
H653 C669 0.930 . S
H654 C670 0.931 . S
C655 H643 0.929 . S
C655 C649 1.390 . S
C655 C652 1.386 . S
C656 C651 1.490 . S
C656 C658 1.395 . S
C656 C659 1.403 . S
H657 C663 0.930 . S
C658 H644 0.930 . S
C658 C656 1.395 . S
C658 C661 1.403 . S
C659 C656 1.403 . S
C659 C660 1.524 . S
C659 C663 1.400 . S
C660 H645 0.960 . S
C660 H646 0.960 . S
C660 H647 0.960 . S
C660 C659 1.524 . S
C661 C658 1.403 . S
C661 C662 1.392 . S
C661 C665 1.495 . S
C662 C661 1.392 . S
C662 C663 1.385 . S
C662 C664 1.478 . S
C663 H657 0.930 . S
C663 C659 1.400 . S
C663 C662 1.385 . S
C664 C662 1.478 . S
C664 C666 1.381 . S
C664 C670 1.383 . S
C665 C661 1.495 . S
C665 H671 0.959 . S
C665 H672 0.961 . S
C665 H673 0.960 . S
C666 C664 1.381 . S
C666 C667 1.394 . S
C666 H674 0.930 . S
C667 C666 1.394 . S
C667 C668 1.383 . S
C667 H675 0.929 . S
C668 C667 1.383 . S
C668 C669 1.377 . S
C669 H653 0.930 . S
C669 C668 1.377 . S
C669 C670 1.379 . S
C670 H654 0.931 . S
C670 C664 1.383 . S
C670 C669 1.379 . S
H671 C665 0.959 . S
H672 C665 0.961 . S
H673 C665 0.960 . S
H674 C666 0.930 . S
H675 C667 0.929 . S
H676 C684 0.929 . S
H677 C686 0.930 . S
H678 C688 0.930 . S
H679 C691 0.929 . S
H680 C694 0.930 . S
H681 C696 0.960 . S
H682 C696 0.960 . S
H683 C696 0.960 . S
C684 H676 0.929 . S
C684 C685 1.377 . S
C684 C686 1.384 . S
C685 C684 1.377 . S
C685 C691 1.390 . S
C686 H677 0.930 . S
C686 C684 1.384 . S
C686 C687 1.372 . S
C687 C686 1.372 . S
C687 C688 1.400 . S
C687 C692 1.490 . S
C688 H678 0.930 . S
C688 C687 1.400 . S
C688 C691 1.386 . S
H689 C705 0.930 . S
H690 C706 0.931 . S
C691 H679 0.929 . S
C691 C685 1.390 . S
C691 C688 1.386 . S
C692 C687 1.490 . S
C692 C694 1.395 . S
C692 C695 1.403 . S
H693 C699 0.930 . S
C694 H680 0.930 . S
C694 C692 1.395 . S
C694 C697 1.403 . S
C695 C692 1.403 . S
C695 C696 1.524 . S
C695 C699 1.400 . S
C696 H681 0.960 . S
C696 H682 0.960 . S
C696 H683 0.960 . S
C696 C695 1.524 . S
C697 C694 1.403 . S
C697 C698 1.392 . S
C697 C701 1.495 . S
C698 C697 1.392 . S
C698 C699 1.385 . S
C698 C700 1.478 . S
C699 H693 0.930 . S
C699 C695 1.400 . S
C699 C698 1.385 . S
C700 C698 1.478 . S
C700 C702 1.381 . S
C700 C706 1.383 . S
C701 C697 1.495 . S
C701 H707 0.959 . S
C701 H708 0.961 . S
C701 H709 0.960 . S
C702 C700 1.381 . S
C702 C703 1.394 . S
C702 H710 0.930 . S
C703 C702 1.394 . S
C703 C704 1.383 . S
C703 H711 0.929 . S
C704 C703 1.383 . S
C704 C705 1.377 . S
C705 H689 0.930 . S
C705 C704 1.377 . S
C705 C706 1.379 . S
C706 H690 0.931 . S
C706 C700 1.383 . S
C706 C705 1.379 . S
H707 C701 0.959 . S
H708 C701 0.961 . S
H709 C701 0.960 . S
H710 C702 0.930 . S
H711 C703 0.929 . S
H712 C720 0.929 . S
H713 C722 0.930 . S
H714 C724 0.930 . S
H715 C727 0.929 . S
H716 C730 0.930 . S
H717 C732 0.960 . S
H718 C732 0.960 . S
H719 C732 0.960 . S
C720 H712 0.929 . S
C720 C721 1.377 . S
C720 C722 1.384 . S
C721 C720 1.377 . S
C721 C727 1.390 . S
C722 H713 0.930 . S
C722 C720 1.384 . S
C722 C723 1.372 . S
C723 C722 1.372 . S
C723 C724 1.400 . S
C723 C728 1.490 . S
C724 H714 0.930 . S
C724 C723 1.400 . S
C724 C727 1.386 . S
H725 C741 0.930 . S
H726 C742 0.931 . S
C727 H715 0.929 . S
C727 C721 1.390 . S
C727 C724 1.386 . S
C728 C723 1.490 . S
C728 C730 1.395 . S
C728 C731 1.403 . S
H729 C735 0.930 . S
C730 H716 0.930 . S
C730 C728 1.395 . S
C730 C733 1.403 . S
C731 C728 1.403 . S
C731 C732 1.524 . S
C731 C735 1.400 . S
C732 H717 0.960 . S
C732 H718 0.960 . S
C732 H719 0.960 . S
C732 C731 1.524 . S
C733 C730 1.403 . S
C733 C734 1.392 . S
C733 C737 1.495 . S
C734 C733 1.392 . S
C734 C735 1.385 . S
C734 C736 1.478 . S
C735 H729 0.930 . S
C735 C731 1.400 . S
C735 C734 1.385 . S
C736 C734 1.478 . S
C736 C738 1.381 . S
C736 C742 1.383 . S
C737 C733 1.495 . S
C737 H743 0.959 . S
C737 H744 0.961 . S
C737 H745 0.960 . S
C738 C736 1.381 . S
C738 C739 1.394 . S
C738 H746 0.930 . S
C739 C738 1.394 . S
C739 C740 1.383 . S
C739 H747 0.929 . S
C740 C739 1.383 . S
C740 C741 1.377 . S
C741 H725 0.930 . S
C741 C740 1.377 . S
C741 C742 1.379 . S
C742 H726 0.931 . S
C742 C736 1.383 . S
C742 C741 1.379 . S
H743 C737 0.959 . S
H744 C737 0.961 . S
H745 C737 0.960 . S
H746 C738 0.930 . S
H747 C739 0.929 . S
H748 C756 0.929 . S
H749 C758 0.930 . S
H750 C760 0.930 . S
H751 C763 0.929 . S
H752 C766 0.930 . S
H753 C768 0.960 . S
H754 C768 0.960 . S
H755 C768 0.960 . S
C756 H748 0.929 . S
C756 C757 1.377 . S
C756 C758 1.384 . S
C757 C756 1.377 . S
C757 C763 1.390 . S
C758 H749 0.930 . S
C758 C756 1.384 . S
C758 C759 1.372 . S
C759 C758 1.372 . S
C759 C760 1.400 . S
C759 C764 1.490 . S
C760 H750 0.930 . S
C760 C759 1.400 . S
C760 C763 1.386 . S
H761 C777 0.930 . S
H762 C778 0.931 . S
C763 H751 0.929 . S
C763 C757 1.390 . S
C763 C760 1.386 . S
C764 C759 1.490 . S
C764 C766 1.395 . S
C764 C767 1.403 . S
H765 C771 0.930 . S
C766 H752 0.930 . S
C766 C764 1.395 . S
C766 C769 1.403 . S
C767 C764 1.403 . S
C767 C768 1.524 . S
C767 C771 1.400 . S
C768 H753 0.960 . S
C768 H754 0.960 . S
C768 H755 0.960 . S
C768 C767 1.524 . S
C769 C766 1.403 . S
C769 C770 1.392 . S
C769 C773 1.495 . S
C770 C769 1.392 . S
C770 C771 1.385 . S
C770 C772 1.478 . S
C771 H765 0.930 . S
C771 C767 1.400 . S
C771 C770 1.385 . S
C772 C770 1.478 . S
C772 C774 1.381 . S
C772 C778 1.383 . S
C773 C769 1.495 . S
C773 H779 0.959 . S
C773 H780 0.961 . S
C773 H781 0.960 . S
C774 C772 1.381 . S
C774 C775 1.394 . S
C774 H782 0.930 . S
C775 C774 1.394 . S
C775 C776 1.383 . S
C775 H783 0.929 . S
C776 C775 1.383 . S
C776 C777 1.377 . S
C777 H761 0.930 . S
C777 C776 1.377 . S
C777 C778 1.379 . S
C778 H762 0.931 . S
C778 C772 1.383 . S
C778 C777 1.379 . S
H779 C773 0.959 . S
H780 C773 0.961 . S
H781 C773 0.960 . S
H782 C774 0.930 . S
H783 C775 0.929 . S
H784 C792 0.929 . S
H785 C794 0.930 . S
H786 C796 0.930 . S
H787 C799 0.929 . S
H788 C802 0.930 . S
H789 C804 0.960 . S
H790 C804 0.960 . S
H791 C804 0.960 . S
C792 H784 0.929 . S
C792 C793 1.377 . S
C792 C794 1.384 . S
C793 C792 1.377 . S
C793 C799 1.390 . S
C794 H785 0.930 . S
C794 C792 1.384 . S
C794 C795 1.372 . S
C795 C794 1.372 . S
C795 C796 1.400 . S
C795 C800 1.490 . S
C796 H786 0.930 . S
C796 C795 1.400 . S
C796 C799 1.386 . S
H797 C813 0.930 . S
H798 C814 0.931 . S
C799 H787 0.929 . S
C799 C793 1.390 . S
C799 C796 1.386 . S
C800 C795 1.490 . S
C800 C802 1.395 . S
C800 C803 1.403 . S
H801 C807 0.930 . S
C802 H788 0.930 . S
C802 C800 1.395 . S
C802 C805 1.403 . S
C803 C800 1.403 . S
C803 C804 1.524 . S
C803 C807 1.400 . S
C804 H789 0.960 . S
C804 H790 0.960 . S
C804 H791 0.960 . S
C804 C803 1.524 . S
C805 C802 1.403 . S
C805 C806 1.392 . S
C805 C809 1.495 . S
C806 C805 1.392 . S
C806 C807 1.385 . S
C806 C808 1.478 . S
C807 H801 0.930 . S
C807 C803 1.400 . S
C807 C806 1.385 . S
C808 C806 1.478 . S
C808 C810 1.381 . S
C808 C814 1.383 . S
C809 C805 1.495 . S
C809 H815 0.959 . S
C809 H816 0.961 . S
C809 H817 0.960 . S
C810 C808 1.381 . S
C810 C811 1.394 . S
C810 H818 0.930 . S
C811 C810 1.394 . S
C811 C812 1.383 . S
C811 H819 0.929 . S
C812 C811 1.383 . S
C812 C813 1.377 . S
C813 H797 0.930 . S
C813 C812 1.377 . S
C813 C814 1.379 . S
C814 H798 0.931 . S
C814 C808 1.383 . S
C814 C813 1.379 . S
H815 C809 0.959 . S
H816 C809 0.961 . S
H817 C809 0.960 . S
H818 C810 0.930 . S
H819 C811 0.929 . S
H820 C828 0.929 . S
H821 C830 0.930 . S
H822 C832 0.930 . S
H823 C835 0.929 . S
H824 C838 0.930 . S
H825 C840 0.960 . S
H826 C840 0.960 . S
H827 C840 0.960 . S
C828 H820 0.929 . S
C828 C829 1.377 . S
C828 C830 1.384 . S
C829 C828 1.377 . S
C829 C835 1.390 . S
C830 H821 0.930 . S
C830 C828 1.384 . S
C830 C831 1.372 . S
C831 C830 1.372 . S
C831 C832 1.400 . S
C831 C836 1.490 . S
C832 H822 0.930 . S
C832 C831 1.400 . S
C832 C835 1.386 . S
H833 C849 0.930 . S
H834 C850 0.931 . S
C835 H823 0.929 . S
C835 C829 1.390 . S
C835 C832 1.386 . S
C836 C831 1.490 . S
C836 C838 1.395 . S
C836 C839 1.403 . S
H837 C843 0.930 . S
C838 H824 0.930 . S
C838 C836 1.395 . S
C838 C841 1.403 . S
C839 C836 1.403 . S
C839 C840 1.524 . S
C839 C843 1.400 . S
C840 H825 0.960 . S
C840 H826 0.960 . S
C840 H827 0.960 . S
C840 C839 1.524 . S
C841 C838 1.403 . S
C841 C842 1.392 . S
C841 C845 1.495 . S
C842 C841 1.392 . S
C842 C843 1.385 . S
C842 C844 1.478 . S
C843 H837 0.930 . S
C843 C839 1.400 . S
C843 C842 1.385 . S
C844 C842 1.478 . S
C844 C846 1.381 . S
C844 C850 1.383 . S
C845 C841 1.495 . S
C845 H851 0.959 . S
C845 H852 0.961 . S
C845 H853 0.960 . S
C846 C844 1.381 . S
C846 C847 1.394 . S
C846 H854 0.930 . S
C847 C846 1.394 . S
C847 C848 1.383 . S
C847 H855 0.929 . S
C848 C847 1.383 . S
C848 C849 1.377 . S
C849 H833 0.930 . S
C849 C848 1.377 . S
C849 C850 1.379 . S
C850 H834 0.931 . S
C850 C844 1.383 . S
C850 C849 1.379 . S
H851 C845 0.959 . S
H852 C845 0.961 . S
H853 C845 0.960 . S
H854 C846 0.930 . S
H855 C847 0.929 . S
H856 C864 0.929 . S
H857 C866 0.930 . S
H858 C868 0.930 . S
H859 C871 0.929 . S
H860 C874 0.930 . S
H861 C876 0.960 . S
H862 C876 0.960 . S
H863 C876 0.960 . S
C864 H856 0.929 . S
C864 C865 1.377 . S
C864 C866 1.384 . S
C865 C864 1.377 . S
C865 C871 1.390 . S
C866 H857 0.930 . S
C866 C864 1.384 . S
C866 C867 1.372 . S
C867 C866 1.372 . S
C867 C868 1.400 . S
C867 C872 1.490 . S
C868 H858 0.930 . S
C868 C867 1.400 . S
C868 C871 1.386 . S
H869 C885 0.930 . S
H870 C886 0.931 . S
C871 H859 0.929 . S
C871 C865 1.390 . S
C871 C868 1.386 . S
C872 C867 1.490 . S
C872 C874 1.395 . S
C872 C875 1.403 . S
H873 C879 0.930 . S
C874 H860 0.930 . S
C874 C872 1.395 . S
C874 C877 1.403 . S
C875 C872 1.403 . S
C875 C876 1.524 . S
C875 C879 1.400 . S
C876 H861 0.960 . S
C876 H862 0.960 . S
C876 H863 0.960 . S
C876 C875 1.524 . S
C877 C874 1.403 . S
C877 C878 1.392 . S
C877 C881 1.495 . S
C878 C877 1.392 . S
C878 C879 1.385 . S
C878 C880 1.478 . S
C879 H873 0.930 . S
C879 C875 1.400 . S
C879 C878 1.385 . S
C880 C878 1.478 . S
C880 C882 1.381 . S
C880 C886 1.383 . S
C881 C877 1.495 . S
C881 H887 0.959 . S
C881 H888 0.961 . S
C881 H889 0.960 . S
C882 C880 1.381 . S
C882 C883 1.394 . S
C882 H890 0.930 . S
C883 C882 1.394 . S
C883 C884 1.383 . S
C883 H891 0.929 . S
C884 C883 1.383 . S
C884 C885 1.377 . S
C885 H869 0.930 . S
C885 C884 1.377 . S
C885 C886 1.379 . S
C886 H870 0.931 . S
C886 C880 1.383 . S
C886 C885 1.379 . S
H887 C881 0.959 . S
H888 C881 0.961 . S
H889 C881 0.960 . S
H890 C882 0.930 . S
H891 C883 0.929 . S
H892 C900 0.929 . S
H893 C902 0.930 . S
H894 C904 0.930 . S
H895 C907 0.929 . S
H896 C910 0.930 . S
H897 C912 0.960 . S
H898 C912 0.960 . S
H899 C912 0.960 . S
C900 H892 0.929 . S
C900 C901 1.377 . S
C900 C902 1.384 . S
C901 C900 1.377 . S
C901 C907 1.390 . S
C902 H893 0.930 . S
C902 C900 1.384 . S
C902 C903 1.372 . S
C903 C902 1.372 . S
C903 C904 1.400 . S
C903 C908 1.490 . S
C904 H894 0.930 . S
C904 C903 1.400 . S
C904 C907 1.386 . S
H905 C921 0.930 . S
H906 C922 0.931 . S
C907 H895 0.929 . S
C907 C901 1.390 . S
C907 C904 1.386 . S
C908 C903 1.490 . S
C908 C910 1.395 . S
C908 C911 1.403 . S
H909 C915 0.930 . S
C910 H896 0.930 . S
C910 C908 1.395 . S
C910 C913 1.403 . S
C911 C908 1.403 . S
C911 C912 1.524 . S
C911 C915 1.400 . S
C912 H897 0.960 . S
C912 H898 0.960 . S
C912 H899 0.960 . S
C912 C911 1.524 . S
C913 C910 1.403 . S
C913 C914 1.392 . S
C913 C917 1.495 . S
C914 C913 1.392 . S
C914 C915 1.385 . S
C914 C916 1.478 . S
C915 H909 0.930 . S
C915 C911 1.400 . S
C915 C914 1.385 . S
C916 C914 1.478 . S
C916 C918 1.381 . S
C916 C922 1.383 . S
C917 C913 1.495 . S
C917 H923 0.959 . S
C917 H924 0.961 . S
C917 H925 0.960 . S
C918 C916 1.381 . S
C918 C919 1.394 . S
C918 H926 0.930 . S
C919 C918 1.394 . S
C919 C920 1.383 . S
C919 H927 0.929 . S
C920 C919 1.383 . S
C920 C921 1.377 . S
C921 H905 0.930 . S
C921 C920 1.377 . S
C921 C922 1.379 . S
C922 H906 0.931 . S
C922 C916 1.383 . S
C922 C921 1.379 . S
H923 C917 0.959 . S
H924 C917 0.961 . S
H925 C917 0.960 . S
H926 C918 0.930 . S
H927 C919 0.929 . S
H928 C936 0.929 . S
H929 C938 0.930 . S
H930 C940 0.930 . S
H931 C943 0.929 . S
H932 C946 0.930 . S
H933 C948 0.960 . S
H934 C948 0.960 . S
H935 C948 0.960 . S
C936 H928 0.929 . S
C936 C937 1.377 . S
C936 C938 1.384 . S
C937 C936 1.377 . S
C937 C943 1.390 . S
C938 H929 0.930 . S
C938 C936 1.384 . S
C938 C939 1.372 . S
C939 C938 1.372 . S
C939 C940 1.400 . S
C939 C944 1.490 . S
C940 H930 0.930 . S
C940 C939 1.400 . S
C940 C943 1.386 . S
H941 C957 0.930 . S
H942 C958 0.931 . S
C943 H931 0.929 . S
C943 C937 1.390 . S
C943 C940 1.386 . S
C944 C939 1.490 . S
C944 C946 1.395 . S
C944 C947 1.403 . S
H945 C951 0.930 . S
C946 H932 0.930 . S
C946 C944 1.395 . S
C946 C949 1.403 . S
C947 C944 1.403 . S
C947 C948 1.524 . S
C947 C951 1.400 . S
C948 H933 0.960 . S
C948 H934 0.960 . S
C948 H935 0.960 . S
C948 C947 1.524 . S
C949 C946 1.403 . S
C949 C950 1.392 . S
C949 C953 1.495 . S
C950 C949 1.392 . S
C950 C951 1.385 . S
C950 C952 1.478 . S
C951 H945 0.930 . S
C951 C947 1.400 . S
C951 C950 1.385 . S
C952 C950 1.478 . S
C952 C954 1.381 . S
C952 C958 1.383 . S
C953 C949 1.495 . S
C953 H959 0.959 . S
C953 H960 0.961 . S
C953 H961 0.960 . S
C954 C952 1.381 . S
C954 C955 1.394 . S
C954 H962 0.930 . S
C955 C954 1.394 . S
C955 C956 1.383 . S
C955 H963 0.929 . S
C956 C955 1.383 . S
C956 C957 1.377 . S
C957 H941 0.930 . S
C957 C956 1.377 . S
C957 C958 1.379 . S
C958 H942 0.931 . S
C958 C952 1.383 . S
C958 C957 1.379 . S
H959 C953 0.959 . S
H960 C953 0.961 . S
H961 C953 0.960 . S
H962 C954 0.930 . S
H963 C955 0.929 . S
H964 C972 0.929 . S
H965 C974 0.930 . S
H966 C976 0.930 . S
H967 C979 0.929 . S
H968 C982 0.930 . S
H969 C984 0.960 . S
H970 C984 0.960 . S
H971 C984 0.960 . S
C972 H964 0.929 . S
C972 C973 1.377 . S
C972 C974 1.384 . S
C973 C972 1.377 . S
C973 C979 1.390 . S
C974 H965 0.930 . S
C974 C972 1.384 . S
C974 C975 1.372 . S
C975 C974 1.372 . S
C975 C976 1.400 . S
C975 C980 1.490 . S
C976 H966 0.930 . S
C976 C975 1.400 . S
C976 C979 1.386 . S
H977 C993 0.930 . S
H978 C994 0.931 . S
C979 H967 0.929 . S
C979 C973 1.390 . S
C979 C976 1.386 . S
C980 C975 1.490 . S
C980 C982 1.395 . S
C980 C983 1.403 . S
H981 C987 0.930 . S
C982 H968 0.930 . S
C982 C980 1.395 . S
C982 C985 1.403 . S
C983 C980 1.403 . S
C983 C984 1.524 . S
C983 C987 1.400 . S
C984 H969 0.960 . S
C984 H970 0.960 . S
C984 H971 0.960 . S
C984 C983 1.524 . S
C985 C982 1.403 . S
C985 C986 1.392 . S
C985 C989 1.495 . S
C986 C985 1.392 . S
C986 C987 1.385 . S
C986 C988 1.478 . S
C987 H981 0.930 . S
C987 C983 1.400 . S
C987 C986 1.385 . S
C988 C986 1.478 . S
C988 C990 1.381 . S
C988 C994 1.383 . S
C989 C985 1.495 . S
C989 H995 0.959 . S
C989 H996 0.961 . S
C989 H997 0.960 . S
C990 C988 1.381 . S
C990 C991 1.394 . S
C990 H998 0.930 . S
C991 C990 1.394 . S
C991 C992 1.383 . S
C991 H999 0.929 . S
C992 C991 1.383 . S
C992 C993 1.377 . S
C993 H977 0.930 . S
C993 C992 1.377 . S
C993 C994 1.379 . S
C994 H978 0.931 . S
C994 C988 1.383 . S
C994 C993 1.379 . S
H995 C989 0.959 . S
H996 C989 0.961 . S
H997 C989 0.960 . S
H998 C990 0.930 . S
H999 C991 0.929 . S
H1000 C1008 0.929 . S
H1001 C1010 0.930 . S
H1002 C1012 0.930 . S
H1003 C1015 0.929 . S
H1004 C1018 0.930 . S
H1005 C1020 0.960 . S
H1006 C1020 0.960 . S
H1007 C1020 0.960 . S
C1008 H1000 0.929 . S
C1008 C1009 1.377 . S
C1008 C1010 1.384 . S
C1009 C1008 1.377 . S
C1009 C1015 1.390 . S
C1010 H1001 0.930 . S
C1010 C1008 1.384 . S
C1010 C1011 1.372 . S
C1011 C1010 1.372 . S
C1011 C1012 1.400 . S
C1011 C1016 1.490 . S
C1012 H1002 0.930 . S
C1012 C1011 1.400 . S
C1012 C1015 1.386 . S
H1013 C1029 0.930 . S
H1014 C1030 0.931 . S
C1015 H1003 0.929 . S
C1015 C1009 1.390 . S
C1015 C1012 1.386 . S
C1016 C1011 1.490 . S
C1016 C1018 1.395 . S
C1016 C1019 1.403 . S
H1017 C1023 0.930 . S
C1018 H1004 0.930 . S
C1018 C1016 1.395 . S
C1018 C1021 1.403 . S
C1019 C1016 1.403 . S
C1019 C1020 1.524 . S
C1019 C1023 1.400 . S
C1020 H1005 0.960 . S
C1020 H1006 0.960 . S
C1020 H1007 0.960 . S
C1020 C1019 1.524 . S
C1021 C1018 1.403 . S
C1021 C1022 1.392 . S
C1021 C1025 1.495 . S
C1022 C1021 1.392 . S
C1022 C1023 1.385 . S
C1022 C1024 1.478 . S
C1023 H1017 0.930 . S
C1023 C1019 1.400 . S
C1023 C1022 1.385 . S
C1024 C1022 1.478 . S
C1024 C1026 1.381 . S
C1024 C1030 1.383 . S
C1025 C1021 1.495 . S
C1025 H1031 0.959 . S
C1025 H1032 0.961 . S
C1025 H1033 0.960 . S
C1026 C1024 1.381 . S
C1026 C1027 1.394 . S
C1026 H1034 0.930 . S
C1027 C1026 1.394 . S
C1027 C1028 1.383 . S
C1027 H1035 0.929 . S
C1028 C1027 1.383 . S
C1028 C1029 1.377 . S
C1029 H1013 0.930 . S
C1029 C1028 1.377 . S
C1029 C1030 1.379 . S
C1030 H1014 0.931 . S
C1030 C1024 1.383 . S
C1030 C1029 1.379 . S
H1031 C1025 0.959 . S
H1032 C1025 0.961 . S
H1033 C1025 0.960 . S
H1034 C1026 0.930 . S
H1035 C1027 0.929 . S
H1036 C1044 0.929 . S
H1037 C1046 0.930 . S
H1038 C1048 0.930 . S
H1039 C1051 0.929 . S
H1040 C1054 0.930 . S
H1041 C1056 0.960 . S
H1042 C1056 0.960 . S
H1043 C1056 0.960 . S
C1044 H1036 0.929 . S
C1044 C1045 1.377 . S
C1044 C1046 1.384 . S
C1045 C1044 1.377 . S
C1045 C1051 1.390 . S
C1046 H1037 0.930 . S
C1046 C1044 1.384 . S
C1046 C1047 1.372 . S
C1047 C1046 1.372 . S
C1047 C1048 1.400 . S
C1047 C1052 1.490 . S
C1048 H1038 0.930 . S
C1048 C1047 1.400 . S
C1048 C1051 1.386 . S
H1049 C1065 0.930 . S
H1050 C1066 0.931 . S
C1051 H1039 0.929 . S
C1051 C1045 1.390 . S
C1051 C1048 1.386 . S
C1052 C1047 1.490 . S
C1052 C1054 1.395 . S
C1052 C1055 1.403 . S
H1053 C1059 0.930 . S
C1054 H1040 0.930 . S
C1054 C1052 1.395 . S
C1054 C1057 1.403 . S
C1055 C1052 1.403 . S
C1055 C1056 1.524 . S
C1055 C1059 1.400 . S
C1056 H1041 0.960 . S
C1056 H1042 0.960 . S
C1056 H1043 0.960 . S
C1056 C1055 1.524 . S
C1057 C1054 1.403 . S
C1057 C1058 1.392 . S
C1057 C1061 1.495 . S
C1058 C1057 1.392 . S
C1058 C1059 1.385 . S
C1058 C1060 1.478 . S
C1059 H1053 0.930 . S
C1059 C1055 1.400 . S
C1059 C1058 1.385 . S
C1060 C1058 1.478 . S
C1060 C1062 1.381 . S
C1060 C1066 1.383 . S
C1061 C1057 1.495 . S
C1061 H1067 0.959 . S
C1061 H1068 0.961 . S
C1061 H1069 0.960 . S
C1062 C1060 1.381 . S
C1062 C1063 1.394 . S
C1062 H1070 0.930 . S
C1063 C1062 1.394 . S
C1063 C1064 1.383 . S
C1063 H1071 0.929 . S
C1064 C1063 1.383 . S
C1064 C1065 1.377 . S
C1065 H1049 0.930 . S
C1065 C1064 1.377 . S
C1065 C1066 1.379 . S
C1066 H1050 0.931 . S
C1066 C1060 1.383 . S
C1066 C1065 1.379 . S
H1067 C1061 0.959 . S
H1068 C1061 0.961 . S
H1069 C1061 0.960 . S
H1070 C1062 0.930 . S
H1071 C1063 0.929 . S
H1072 C1080 0.929 . S
H1073 C1082 0.930 . S
H1074 C1084 0.930 . S
H1075 C1087 0.929 . S
H1076 C1090 0.930 . S
H1077 C1092 0.960 . S
H1078 C1092 0.960 . S
H1079 C1092 0.960 . S
C1080 H1072 0.929 . S
C1080 C1081 1.377 . S
C1080 C1082 1.384 . S
C1081 C1080 1.377 . S
C1081 C1087 1.390 . S
C1082 H1073 0.930 . S
C1082 C1080 1.384 . S
C1082 C1083 1.372 . S
C1083 C1082 1.372 . S
C1083 C1084 1.400 . S
C1083 C1088 1.490 . S
C1084 H1074 0.930 . S
C1084 C1083 1.400 . S
C1084 C1087 1.386 . S
H1085 C1101 0.930 . S
H1086 C1102 0.931 . S
C1087 H1075 0.929 . S
C1087 C1081 1.390 . S
C1087 C1084 1.386 . S
C1088 C1083 1.490 . S
C1088 C1090 1.395 . S
C1088 C1091 1.403 . S
H1089 C1095 0.930 . S
C1090 H1076 0.930 . S
C1090 C1088 1.395 . S
C1090 C1093 1.403 1_554 S
C1091 C1088 1.403 . S
C1091 C1092 1.524 . S
C1091 C1095 1.400 1_554 S
C1092 H1077 0.960 . S
C1092 H1078 0.960 . S
C1092 H1079 0.960 . S
C1092 C1091 1.524 . S
C1093 C1090 1.403 1_556 S
C1093 C1094 1.392 . S
C1093 C1097 1.495 . S
C1094 C1093 1.392 . S
C1094 C1095 1.385 . S
C1094 C1096 1.478 . S
C1095 H1089 0.930 . S
C1095 C1091 1.400 1_556 S
C1095 C1094 1.385 . S
C1096 C1094 1.478 . S
C1096 C1098 1.381 . S
C1096 C1102 1.383 . S
C1097 C1093 1.495 . S
C1097 H1103 0.959 . S
C1097 H1104 0.961 . S
C1097 H1105 0.960 . S
C1098 C1096 1.381 . S
C1098 C1099 1.394 . S
C1098 H1106 0.930 . S
C1099 C1098 1.394 . S
C1099 C1100 1.383 . S
C1099 H1107 0.929 . S
C1100 C1099 1.383 . S
C1100 C1101 1.377 . S
C1101 H1085 0.930 . S
C1101 C1100 1.377 . S
C1101 C1102 1.379 . S
C1102 H1086 0.931 . S
C1102 C1096 1.383 . S
C1102 C1101 1.379 . S
H1103 C1097 0.959 . S
H1104 C1097 0.961 . S
H1105 C1097 0.960 . S
H1106 C1098 0.930 . S
H1107 C1099 0.929 . S
H1108 C1116 0.929 . S
H1109 C1118 0.930 . S
H1110 C1120 0.930 . S
H1111 C1123 0.929 . S
H1112 C1126 0.930 . S
H1113 C1128 0.960 . S
H1114 C1128 0.960 . S
H1115 C1128 0.960 . S
C1116 H1108 0.929 . S
C1116 C1117 1.377 . S
C1116 C1118 1.384 . S
C1117 C1116 1.377 . S
C1117 C1123 1.390 . S
C1118 H1109 0.930 . S
C1118 C1116 1.384 . S
C1118 C1119 1.372 . S
C1119 C1118 1.372 . S
C1119 C1120 1.400 . S
C1119 C1124 1.490 . S
C1120 H1110 0.930 . S
C1120 C1119 1.400 . S
C1120 C1123 1.386 . S
H1121 C1137 0.930 . S
H1122 C1138 0.931 . S
C1123 H1111 0.929 . S
C1123 C1117 1.390 . S
C1123 C1120 1.386 . S
C1124 C1119 1.490 . S
C1124 C1126 1.395 . S
C1124 C1127 1.403 . S
H1125 C1131 0.930 . S
C1126 H1112 0.930 . S
C1126 C1124 1.395 . S
C1126 C1129 1.403 . S
C1127 C1124 1.403 . S
C1127 C1128 1.524 . S
C1127 C1131 1.400 . S
C1128 H1113 0.960 . S
C1128 H1114 0.960 . S
C1128 H1115 0.960 . S
C1128 C1127 1.524 . S
C1129 C1126 1.403 . S
C1129 C1130 1.392 . S
C1129 C1133 1.495 . S
C1130 C1129 1.392 . S
C1130 C1131 1.385 . S
C1130 C1132 1.478 . S
C1131 H1125 0.930 . S
C1131 C1127 1.400 . S
C1131 C1130 1.385 . S
C1132 C1130 1.478 . S
C1132 C1134 1.381 . S
C1132 C1138 1.383 . S
C1133 C1129 1.495 . S
C1133 H1139 0.959 . S
C1133 H1140 0.961 . S
C1133 H1141 0.960 . S
C1134 C1132 1.381 . S
C1134 C1135 1.394 . S
C1134 H1142 0.930 . S
C1135 C1134 1.394 . S
C1135 C1136 1.383 . S
C1135 H1143 0.929 . S
C1136 C1135 1.383 . S
C1136 C1137 1.377 . S
C1137 H1121 0.930 . S
C1137 C1136 1.377 . S
C1137 C1138 1.379 . S
C1138 H1122 0.931 . S
C1138 C1132 1.383 . S
C1138 C1137 1.379 . S
H1139 C1133 0.959 . S
H1140 C1133 0.961 . S
H1141 C1133 0.960 . S
H1142 C1134 0.930 . S
H1143 C1135 0.929 . S
H1144 C1152 0.929 . S
H1145 C1154 0.930 . S
H1146 C1156 0.930 . S
H1147 C1159 0.929 . S
H1148 C1162 0.930 1_455 S
H1149 C1164 0.960 . S
H1150 C1164 0.960 . S
H1151 C1164 0.960 . S
C1152 H1144 0.929 . S
C1152 C1153 1.377 . S
C1152 C1154 1.384 . S
C1153 C1152 1.377 . S
C1153 C1159 1.390 1_655 S
C1154 H1145 0.930 . S
C1154 C1152 1.384 . S
C1154 C1155 1.372 . S
C1155 C1154 1.372 . S
C1155 C1156 1.400 1_655 S
C1155 C1160 1.490 . S
C1156 H1146 0.930 . S
C1156 C1155 1.400 1_455 S
C1156 C1159 1.386 . S
H1157 C1173 0.930 . S
H1158 C1174 0.931 . S
C1159 H1147 0.929 . S
C1159 C1153 1.390 1_455 S
C1159 C1156 1.386 . S
C1160 C1155 1.490 . S
C1160 C1162 1.395 . S
C1160 C1163 1.403 . S
H1161 C1167 0.930 . S
C1162 H1148 0.930 1_655 S
C1162 C1160 1.395 . S
C1162 C1165 1.403 1_554 S
C1163 C1160 1.403 . S
C1163 C1164 1.524 . S
C1163 C1167 1.400 1_554 S
C1164 H1149 0.960 . S
C1164 H1150 0.960 . S
C1164 H1151 0.960 . S
C1164 C1163 1.524 . S
C1165 C1162 1.403 1_556 S
C1165 C1166 1.392 . S
C1165 C1169 1.495 1_655 S
C1166 C1165 1.392 . S
C1166 C1167 1.385 . S
C1166 C1168 1.478 . S
C1167 H1161 0.930 . S
C1167 C1163 1.400 1_556 S
C1167 C1166 1.385 . S
C1168 C1166 1.478 . S
C1168 C1170 1.381 . S
C1168 C1174 1.383 1_655 S
C1169 C1165 1.495 1_455 S
C1169 H1175 0.959 . S
C1169 H1176 0.961 . S
C1169 H1177 0.960 1_455 S
C1170 C1168 1.381 . S
C1170 C1171 1.394 . S
C1170 H1178 0.930 . S
C1171 C1170 1.394 . S
C1171 C1172 1.383 . S
C1171 H1179 0.929 . S
C1172 C1171 1.383 . S
C1172 C1173 1.377 1_655 S
C1173 H1157 0.930 . S
C1173 C1172 1.377 1_455 S
C1173 C1174 1.379 . S
C1174 H1158 0.931 . S
C1174 C1168 1.383 1_455 S
C1174 C1173 1.379 . S
H1175 C1169 0.959 . S
H1176 C1169 0.961 . S
H1177 C1169 0.960 1_655 S
H1178 C1170 0.930 . S
H1179 C1171 0.929 . S
H1180 C1188 0.929 . S
H1181 C1190 0.930 . S
H1182 C1192 0.930 . S
H1183 C1195 0.929 . S
H1184 C1198 0.930 . S
H1185 C1200 0.960 . S
H1186 C1200 0.960 . S
H1187 C1200 0.960 . S
C1188 H1180 0.929 . S
C1188 C1189 1.377 . S
C1188 C1190 1.384 . S
C1189 C1188 1.377 . S
C1189 C1195 1.390 1_565 S
C1190 H1181 0.930 . S
C1190 C1188 1.384 . S
C1190 C1191 1.372 . S
C1191 C1190 1.372 . S
C1191 C1192 1.400 1_565 S
C1191 C1196 1.490 . S
C1192 H1182 0.930 . S
C1192 C1191 1.400 1_545 S
C1192 C1195 1.386 . S
H1193 C1209 0.930 . S
H1194 C1210 0.931 . S
C1195 H1183 0.929 . S
C1195 C1189 1.390 1_545 S
C1195 C1192 1.386 . S
C1196 C1191 1.490 . S
C1196 C1198 1.395 . S
C1196 C1199 1.403 . S
H1197 C1203 0.930 . S
C1198 H1184 0.930 . S
C1198 C1196 1.395 . S
C1198 C1201 1.403 . S
C1199 C1196 1.403 . S
C1199 C1200 1.524 . S
C1199 C1203 1.400 . S
C1200 H1185 0.960 . S
C1200 H1186 0.960 . S
C1200 H1187 0.960 . S
C1200 C1199 1.524 . S
C1201 C1198 1.403 . S
C1201 C1202 1.392 . S
C1201 C1205 1.501 . S
C1202 C1201 1.392 . S
C1202 C1203 1.385 . S
C1202 C1204 1.478 . S
C1203 H1197 0.930 . S
C1203 C1199 1.400 . S
C1203 C1202 1.385 . S
C1204 C1202 1.478 . S
C1204 C1206 1.381 . S
C1204 C1210 1.383 1_565 S
C1205 C1201 1.501 . S
C1205 H1211 0.956 1_565 S
C1205 H1212 0.940 1_565 S
C1205 H1213 0.979 . S
C1206 C1204 1.381 . S
C1206 C1207 1.394 . S
C1206 H1214 0.930 . S
C1207 C1206 1.394 . S
C1207 C1208 1.383 . S
C1207 H1215 0.929 . S
C1208 C1207 1.383 . S
C1208 C1209 1.377 1_565 S
C1209 H1193 0.930 . S
C1209 C1208 1.377 1_545 S
C1209 C1210 1.379 . S
C1210 H1194 0.931 . S
C1210 C1204 1.383 1_545 S
C1210 C1209 1.379 . S
H1211 C1205 0.956 1_545 S
H1212 C1205 0.940 1_545 S
H1213 C1205 0.979 . S
H1214 C1206 0.930 . S
H1215 C1207 0.929 . S
H1216 C1224 0.929 . S
H1217 C1226 0.930 . S
H1218 C1228 0.930 . S
H1219 C1231 0.929 . S
H1220 C1234 0.930 . S
H1221 C1236 0.960 . S
H1222 C1236 0.960 . S
H1223 C1236 0.960 . S
C1224 H1216 0.929 . S
C1224 C1225 1.377 . S
C1224 C1226 1.384 . S
C1225 C1224 1.377 . S
C1225 C1231 1.390 . S
C1226 H1217 0.930 . S
C1226 C1224 1.384 . S
C1226 C1227 1.372 . S
C1227 C1226 1.372 . S
C1227 C1228 1.400 . S
C1227 C1232 1.490 . S
C1228 H1218 0.930 . S
C1228 C1227 1.400 . S
C1228 C1231 1.386 . S
H1229 C1245 0.930 . S
H1230 C1246 0.931 . S
C1231 H1219 0.929 . S
C1231 C1225 1.390 . S
C1231 C1228 1.386 . S
C1232 C1227 1.490 . S
C1232 C1234 1.395 . S
C1232 C1235 1.403 . S
H1233 C1239 0.930 . S
C1234 H1220 0.930 . S
C1234 C1232 1.395 . S
C1234 C1237 1.403 1_556 S
C1235 C1232 1.403 . S
C1235 C1236 1.524 . S
C1235 C1239 1.400 1_556 S
C1236 H1221 0.960 . S
C1236 H1222 0.960 . S
C1236 H1223 0.960 . S
C1236 C1235 1.524 . S
C1237 C1234 1.403 1_554 S
C1237 C1238 1.392 . S
C1237 C1241 1.495 . S
C1238 C1237 1.392 . S
C1238 C1239 1.385 . S
C1238 C1240 1.478 . S
C1239 H1233 0.930 . S
C1239 C1235 1.400 1_554 S
C1239 C1238 1.385 . S
C1240 C1238 1.478 . S
C1240 C1242 1.381 . S
C1240 C1246 1.383 . S
C1241 C1237 1.495 . S
C1241 H1247 0.959 . S
C1241 H1248 0.961 . S
C1241 H1249 0.960 . S
C1242 C1240 1.381 . S
C1242 C1243 1.394 . S
C1242 H1250 0.930 . S
C1243 C1242 1.394 . S
C1243 C1244 1.383 . S
C1243 H1251 0.929 . S
C1244 C1243 1.383 . S
C1244 C1245 1.377 . S
C1245 H1229 0.930 . S
C1245 C1244 1.377 . S
C1245 C1246 1.379 . S
C1246 H1230 0.931 . S
C1246 C1240 1.383 . S
C1246 C1245 1.379 . S
H1247 C1241 0.959 . S
H1248 C1241 0.961 . S
H1249 C1241 0.960 . S
H1250 C1242 0.930 . S
H1251 C1243 0.929 . S
H1252 C1260 0.929 . S
H1253 C1262 0.930 . S
H1254 C1264 0.930 . S
H1255 C1267 0.929 . S
H1256 C1270 0.930 . S
H1257 C1272 0.960 . S
H1258 C1272 0.960 . S
H1259 C1272 0.960 . S
C1260 H1252 0.929 . S
C1260 C1261 1.377 . S
C1260 C1262 1.384 . S
C1261 C1260 1.377 . S
C1261 C1267 1.390 . S
C1262 H1253 0.930 . S
C1262 C1260 1.384 . S
C1262 C1263 1.372 . S
C1263 C1262 1.372 . S
C1263 C1264 1.400 . S
C1263 C1268 1.490 . S
C1264 H1254 0.930 . S
C1264 C1263 1.400 . S
C1264 C1267 1.386 . S
H1265 C1281 0.930 . S
H1266 C1282 0.931 . S
C1267 H1255 0.929 . S
C1267 C1261 1.390 . S
C1267 C1264 1.386 . S
C1268 C1263 1.490 . S
C1268 C1270 1.395 . S
C1268 C1271 1.403 . S
H1269 C1275 0.930 . S
C1270 H1256 0.930 . S
C1270 C1268 1.395 . S
C1270 C1273 1.403 . S
C1271 C1268 1.403 . S
C1271 C1272 1.524 . S
C1271 C1275 1.400 . S
C1272 H1257 0.960 . S
C1272 H1258 0.960 . S
C1272 H1259 0.960 . S
C1272 C1271 1.524 . S
C1273 C1270 1.403 . S
C1273 C1274 1.392 . S
C1273 C1277 1.495 . S
C1274 C1273 1.392 . S
C1274 C1275 1.385 . S
C1274 C1276 1.478 . S
C1275 H1269 0.930 . S
C1275 C1271 1.400 . S
C1275 C1274 1.385 . S
C1276 C1274 1.478 . S
C1276 C1278 1.381 . S
C1276 C1282 1.383 . S
C1277 C1273 1.495 . S
C1277 H1283 0.959 . S
C1277 H1284 0.961 . S
C1277 H1285 0.960 . S
C1278 C1276 1.381 . S
C1278 C1279 1.394 . S
C1278 H1286 0.930 . S
C1279 C1278 1.394 . S
C1279 C1280 1.383 . S
C1279 H1287 0.929 . S
C1280 C1279 1.383 . S
C1280 C1281 1.377 . S
C1281 H1265 0.930 . S
C1281 C1280 1.377 . S
C1281 C1282 1.379 . S
C1282 H1266 0.931 . S
C1282 C1276 1.383 . S
C1282 C1281 1.379 . S
H1283 C1277 0.959 . S
H1284 C1277 0.961 . S
H1285 C1277 0.960 . S
H1286 C1278 0.930 . S
H1287 C1279 0.929 . S
H1288 C1296 0.929 . S
H1289 C1298 0.930 . S
H1290 C1300 0.930 . S
H1291 C1303 0.929 . S
H1292 C1306 0.930 . S
H1293 C1308 0.960 1_655 S
H1294 C1308 0.963 1_655 S
H1295 C1308 0.958 . S
C1296 H1288 0.929 . S
C1296 C1297 1.377 1_655 S
C1296 C1298 1.384 . S
C1297 C1296 1.377 1_455 S
C1297 C1303 1.390 . S
C1298 H1289 0.930 . S
C1298 C1296 1.384 . S
C1298 C1299 1.372 1_655 S
C1299 C1298 1.372 1_455 S
C1299 C1300 1.400 . S
C1299 C1304 1.490 . S
C1300 H1290 0.930 . S
C1300 C1299 1.400 . S
C1300 C1303 1.386 . S
H1301 C1317 0.930 . S
H1302 C1318 0.931 . S
C1303 H1291 0.929 . S
C1303 C1297 1.390 . S
C1303 C1300 1.386 . S
C1304 C1299 1.490 . S
C1304 C1306 1.395 . S
C1304 C1307 1.403 . S
H1305 C1311 0.930 . S
C1306 H1292 0.930 . S
C1306 C1304 1.395 . S
C1306 C1309 1.403 1_554 S
C1307 C1304 1.403 . S
C1307 C1308 1.523 . S
C1307 C1311 1.400 1_554 S
C1308 H1293 0.960 1_455 S
C1308 H1294 0.963 1_455 S
C1308 H1295 0.958 . S
C1308 C1307 1.523 . S
C1309 C1306 1.403 1_556 S
C1309 C1310 1.392 . S
C1309 C1313 1.495 . S
C1310 C1309 1.392 . S
C1310 C1311 1.385 . S
C1310 C1312 1.478 . S
C1311 H1305 0.930 . S
C1311 C1307 1.400 1_556 S
C1311 C1310 1.385 . S
C1312 C1310 1.478 . S
C1312 C1314 1.381 1_455 S
C1312 C1318 1.383 . S
C1313 C1309 1.495 . S
C1313 H1319 0.959 . S
C1313 H1320 0.961 . S
C1313 H1321 0.960 . S
C1314 C1312 1.381 1_655 S
C1314 C1315 1.394 . S
C1314 H1322 0.930 . S
C1315 C1314 1.394 . S
C1315 C1316 1.383 1_655 S
C1315 H1323 0.929 . S
C1316 C1315 1.383 1_455 S
C1316 C1317 1.377 . S
C1317 H1301 0.930 . S
C1317 C1316 1.377 . S
C1317 C1318 1.379 . S
C1318 H1302 0.931 . S
C1318 C1312 1.383 . S
C1318 C1317 1.379 . S
H1319 C1313 0.959 . S
H1320 C1313 0.961 . S
H1321 C1313 0.960 . S
H1322 C1314 0.930 . S
H1323 C1315 0.929 . S
H1324 C1332 0.929 . S
H1325 C1334 0.930 . S
H1326 C1336 0.930 . S
H1327 C1339 0.929 . S
H1328 C1342 0.930 . S
H1329 C1344 0.960 . S
H1330 C1344 0.960 . S
H1331 C1344 0.960 . S
C1332 H1324 0.929 . S
C1332 C1333 1.377 1_565 S
C1332 C1334 1.384 . S
C1333 C1332 1.377 1_545 S
C1333 C1339 1.390 . S
C1334 H1325 0.930 . S
C1334 C1332 1.384 . S
C1334 C1335 1.372 1_565 S
C1335 C1334 1.372 1_545 S
C1335 C1336 1.400 . S
C1335 C1340 1.490 . S
C1336 H1326 0.930 . S
C1336 C1335 1.400 . S
C1336 C1339 1.386 . S
H1337 C1353 0.930 . S
H1338 C1354 0.931 . S
C1339 H1327 0.929 . S
C1339 C1333 1.390 . S
C1339 C1336 1.386 . S
C1340 C1335 1.490 . S
C1340 C1342 1.395 1_545 S
C1340 C1343 1.403 . S
H1341 C1347 0.930 . S
C1342 H1328 0.930 . S
C1342 C1340 1.395 1_565 S
C1342 C1345 1.403 . S
C1343 C1340 1.403 . S
C1343 C1344 1.524 . S
C1343 C1347 1.400 . S
C1344 H1329 0.960 . S
C1344 H1330 0.960 . S
C1344 H1331 0.960 . S
C1344 C1343 1.524 . S
C1345 C1342 1.403 . S
C1345 C1346 1.392 1_565 S
C1345 C1349 1.495 . S
C1346 C1345 1.392 1_545 S
C1346 C1347 1.385 . S
C1346 C1348 1.478 . S
C1347 H1341 0.930 . S
C1347 C1343 1.400 . S
C1347 C1346 1.385 . S
C1348 C1346 1.478 . S
C1348 C1350 1.381 1_545 S
C1348 C1354 1.383 . S
C1349 C1345 1.495 . S
C1349 H1355 0.959 . S
C1349 H1356 0.961 . S
C1349 H1357 0.960 . S
C1350 C1348 1.381 1_565 S
C1350 C1351 1.394 . S
C1350 H1358 0.930 . S
C1351 C1350 1.394 . S
C1351 C1352 1.383 1_565 S
C1351 H1359 0.929 . S
C1352 C1351 1.383 1_545 S
C1352 C1353 1.377 . S
C1353 H1337 0.930 . S
C1353 C1352 1.377 . S
C1353 C1354 1.379 . S
C1354 H1338 0.931 . S
C1354 C1348 1.383 . S
C1354 C1353 1.379 . S
H1355 C1349 0.959 . S
H1356 C1349 0.961 . S
H1357 C1349 0.960 . S
H1358 C1350 0.930 . S
H1359 C1351 0.929 . S
C217 C4 1.184 . S
C236 C95 1.171 . S
C253 C23 1.180 . S
C272 C56 1.189 . S
C289 C36 1.182 . S
C308 C75 1.176 . S
C325 C49 1.184 . S
C344 C82 1.170 . S
C361 C114 1.182 . S
C380 C205 1.170 . S
C397 C160 1.184 . S
C416 C121 1.184 . S
C433 C134 1.184 . S
C452 C179 1.173 . S
C469 C153 1.181 . S
C488 C186 1.183 . S
C505 C5 1.603 . S
C524 C127 1.607 . S
C541 C16 1.600 . S
C560 C140 1.616 . S
C577 C147 1.609 . S
C596 C29 1.612 . S
C613 C42 1.603 . S
C632 C108 1.604 . S
C649 C57 1.600 . S
C668 C199 1.616 . S
C685 C166 1.612 . S
C704 C68 1.591 . S
C721 C173 1.610 . S
C740 C83 1.608 . S
C757 C192 1.612 . S
C776 C96 1.587 . S
C793 C17 1.611 . S
C812 C107 1.611 . S
C829 C30 1.610 . S
C848 C122 1.586 . S
C865 C135 1.600 . S
C884 C43 1.609 . S
C901 C10 1.612 . S
C920 C146 1.609 . S
C937 C161 1.603 . S
C956 C101 1.616 . S
C973 C172 1.601 . S
C992 C62 1.599 . S
C1009 C69 1.613 . S
C1028 C187 1.606 . S
C1045 C88 1.609 . S
C1064 C198 1.594 . S
C1081 C3 1.638 . S
C1100 C55 1.644 . S
C1117 C70 1.640 . S
C1136 C18 1.632 . S
C1153 C31 1.638 . S
C1172 C81 1.644 . S
C1189 C94 1.638 . S
C1208 C44 1.643 . S
C1225 C109 1.639 . S
C1244 C159 1.627 . S
C1261 C174 1.638 . S
C1280 C120 1.633 . S
C1297 C185 1.642 . S
C1316 C133 1.638 . S
C1333 C200 1.641 . S
C1352 C148 1.646 . S
