# Generated by pormake.
# Topology whw, (6)-cn, num edge types: 1
# Building blocks:
#     Node 0, Type 0, BuildingBlock: CIFDUS_clean_sbu_1, # of connection points: 6
#     Node 1, Type 0, BuildingBlock: CIFDUS_clean_sbu_1, # of connection points: 6
#     Node 2, Type 0, BuildingBlock: CIFDUS_clean_sbu_1, # of connection points: 6
#     Node 3, Type 0, BuildingBlock: CIFDUS_clean_sbu_1, # of connection points: 6
#     Node 4, Type 0, BuildingBlock: CIFDUS_clean_sbu_1, # of connection points: 6
#     Node 5, Type 0, BuildingBlock: CIFDUS_clean_sbu_1, # of connection points: 6
#     Node 6, Type 0, BuildingBlock: CIFDUS_clean_sbu_1, # of connection points: 6
#     Node 7, Type 0, BuildingBlock: CIFDUS_clean_sbu_1, # of connection points: 6
#     Node 8, Type 0, BuildingBlock: CIFDUS_clean_sbu_1, # of connection points: 6
#     Node 9, Type 0, BuildingBlock: CIFDUS_clean_sbu_1, # of connection points: 6
#     Node 10, Type 0, BuildingBlock: CIFDUS_clean_sbu_1, # of connection points: 6
#     Node 11, Type 0, BuildingBlock: CIFDUS_clean_sbu_1, # of connection points: 6
#     Node 12, Type 0, BuildingBlock: CIFDUS_clean_sbu_1, # of connection points: 6
#     Node 13, Type 0, BuildingBlock: CIFDUS_clean_sbu_1, # of connection points: 6
#     Node 14, Type 0, BuildingBlock: CIFDUS_clean_sbu_1, # of connection points: 6
#     Node 15, Type 0, BuildingBlock: CIFDUS_clean_sbu_1, # of connection points: 6
#     Edge 16, Type (0, 0), BuildingBlock: XUDNAN_clean_linker_2, # of connection points: 2
#     Edge 17, Type (0, 0), BuildingBlock: XUDNAN_clean_linker_2, # of connection points: 2
#     Edge 18, Type (0, 0), BuildingBlock: XUDNAN_clean_linker_2, # of connection points: 2
#     Edge 19, Type (0, 0), BuildingBlock: XUDNAN_clean_linker_2, # of connection points: 2
#     Edge 20, Type (0, 0), BuildingBlock: XUDNAN_clean_linker_2, # of connection points: 2
#     Edge 21, Type (0, 0), BuildingBlock: XUDNAN_clean_linker_2, # of connection points: 2
#     Edge 22, Type (0, 0), BuildingBlock: XUDNAN_clean_linker_2, # of connection points: 2
#     Edge 23, Type (0, 0), BuildingBlock: XUDNAN_clean_linker_2, # of connection points: 2
#     Edge 24, Type (0, 0), BuildingBlock: XUDNAN_clean_linker_2, # of connection points: 2
#     Edge 25, Type (0, 0), BuildingBlock: XUDNAN_clean_linker_2, # of connection points: 2
#     Edge 26, Type (0, 0), BuildingBlock: XUDNAN_clean_linker_2, # of connection points: 2
#     Edge 27, Type (0, 0), BuildingBlock: XUDNAN_clean_linker_2, # of connection points: 2
#     Edge 28, Type (0, 0), BuildingBlock: XUDNAN_clean_linker_2, # of connection points: 2
#     Edge 29, Type (0, 0), BuildingBlock: XUDNAN_clean_linker_2, # of connection points: 2
#     Edge 30, Type (0, 0), BuildingBlock: XUDNAN_clean_linker_2, # of connection points: 2
#     Edge 31, Type (0, 0), BuildingBlock: XUDNAN_clean_linker_2, # of connection points: 2
#     Edge 32, Type (0, 0), BuildingBlock: XUDNAN_clean_linker_2, # of connection points: 2
#     Edge 33, Type (0, 0), BuildingBlock: XUDNAN_clean_linker_2, # of connection points: 2
#     Edge 34, Type (0, 0), BuildingBlock: XUDNAN_clean_linker_2, # of connection points: 2
#     Edge 35, Type (0, 0), BuildingBlock: XUDNAN_clean_linker_2, # of connection points: 2
#     Edge 36, Type (0, 0), BuildingBlock: XUDNAN_clean_linker_2, # of connection points: 2
#     Edge 37, Type (0, 0), BuildingBlock: XUDNAN_clean_linker_2, # of connection points: 2
#     Edge 38, Type (0, 0), BuildingBlock: XUDNAN_clean_linker_2, # of connection points: 2
#     Edge 39, Type (0, 0), BuildingBlock: XUDNAN_clean_linker_2, # of connection points: 2
#     Edge 40, Type (0, 0), BuildingBlock: XUDNAN_clean_linker_2, # of connection points: 2
#     Edge 41, Type (0, 0), BuildingBlock: XUDNAN_clean_linker_2, # of connection points: 2
#     Edge 42, Type (0, 0), BuildingBlock: XUDNAN_clean_linker_2, # of connection points: 2
#     Edge 43, Type (0, 0), BuildingBlock: XUDNAN_clean_linker_2, # of connection points: 2
#     Edge 44, Type (0, 0), BuildingBlock: XUDNAN_clean_linker_2, # of connection points: 2
#     Edge 45, Type (0, 0), BuildingBlock: XUDNAN_clean_linker_2, # of connection points: 2
#     Edge 46, Type (0, 0), BuildingBlock: XUDNAN_clean_linker_2, # of connection points: 2
#     Edge 47, Type (0, 0), BuildingBlock: XUDNAN_clean_linker_2, # of connection points: 2
#     Edge 48, Type (0, 0), BuildingBlock: XUDNAN_clean_linker_2, # of connection points: 2
#     Edge 49, Type (0, 0), BuildingBlock: XUDNAN_clean_linker_2, # of connection points: 2
#     Edge 50, Type (0, 0), BuildingBlock: XUDNAN_clean_linker_2, # of connection points: 2
#     Edge 51, Type (0, 0), BuildingBlock: XUDNAN_clean_linker_2, # of connection points: 2
#     Edge 52, Type (0, 0), BuildingBlock: XUDNAN_clean_linker_2, # of connection points: 2
#     Edge 53, Type (0, 0), BuildingBlock: XUDNAN_clean_linker_2, # of connection points: 2
#     Edge 54, Type (0, 0), BuildingBlock: XUDNAN_clean_linker_2, # of connection points: 2
#     Edge 55, Type (0, 0), BuildingBlock: XUDNAN_clean_linker_2, # of connection points: 2
#     Edge 56, Type (0, 0), BuildingBlock: XUDNAN_clean_linker_2, # of connection points: 2
#     Edge 57, Type (0, 0), BuildingBlock: XUDNAN_clean_linker_2, # of connection points: 2
#     Edge 58, Type (0, 0), BuildingBlock: XUDNAN_clean_linker_2, # of connection points: 2
#     Edge 59, Type (0, 0), BuildingBlock: XUDNAN_clean_linker_2, # of connection points: 2
#     Edge 60, Type (0, 0), BuildingBlock: XUDNAN_clean_linker_2, # of connection points: 2
#     Edge 61, Type (0, 0), BuildingBlock: XUDNAN_clean_linker_2, # of connection points: 2
#     Edge 62, Type (0, 0), BuildingBlock: XUDNAN_clean_linker_2, # of connection points: 2
#     Edge 63, Type (0, 0), BuildingBlock: XUDNAN_clean_linker_2, # of connection points: 2
# Relax obj value: 0.549
# Max RMSD: 0.240
# Mean RMSD: 0.240
data_MOF--net-whw--node1-CIFDUS_clean_sbu_1--edge1-XUDNAN_clean_linker_2
_symmetry_space_group_name_H-M    P1
_symmetry_Int_Tables_number       1
_symmetry_cell_setting            triclinic
loop_
_symmetry_equiv_pos_as_xyz
'x, y, z'
_cell_length_a     50.835186
_cell_length_b     50.690541
_cell_length_c     24.372682
_cell_angle_alpha  90.046441
_cell_angle_beta   89.943389
_cell_angle_gamma 90.010109
loop_
_atom_site_label
_atom_site_type_symbol
_atom_site_fract_x
_atom_site_fract_y
_atom_site_fract_z
_atom_type_partial_charge
O0 O 0.03203 0.12088 0.07912 0.0
Mn1 Mn 0.00101 0.12767 0.13609 0.0
O2 O 0.021 0.14766 0.00991 0.0
Mn3 Mn 0.00279 0.17257 0.05088 0.0
O4 O 0.97018 0.13569 0.19399 0.0
O5 O -0.00098 0.08888 0.15373 0.0
Mn6 Mn -0.00487 0.0841 0.22508 0.0
O7 O 0.02929 0.13172 0.19753 0.0
O8 O 0.96273 0.09827 0.24126 0.0
O9 O 0.97106 0.12574 0.07302 0.0
O10 O 0.96725 0.16818 0.0465 0.0
O11 O -0.0026 0.05088 0.19542 0.0
O12 O 0.02354 0.09978 0.2603 0.0
C13 C 0.02358 0.18273 0.12438 0.0
C14 C 0.03562 0.12988 0.03012 0.0
C15 C 0.95639 0.12168 0.2281 0.0
C16 C -0.0005 0.06351 0.14944 0.0
C17 C 0.03542 0.12024 0.24271 0.0
C18 C 0.95823 0.14472 0.04864 0.0
O19 O 0.00493 0.16576 0.12176 0.0
O20 O 0.02535 0.19733 0.08116 0.0
O21 O 0.11341 0.77913 0.43609 0.0
Mn22 Mn 0.11795 0.7489 0.37886 0.0
O23 O 0.14904 0.78216 0.48944 0.0
Mn24 Mn 0.16182 0.75024 0.46489 0.0
O25 O 0.11955 0.71872 0.31948 0.0
O26 O 0.07922 0.74912 0.37242 0.0
Mn27 Mn 0.06687 0.75416 0.30772 0.0
O28 O 0.1232 0.77514 0.31102 0.0
O29 O 0.08118 0.72459 0.27259 0.0
O30 O 0.11191 0.7214 0.44097 0.0
O31 O 0.14648 0.72105 0.49773 0.0
O32 O 0.03817 0.75309 0.35518 0.0
O33 O 0.08188 0.78725 0.29807 0.0
C34 C 0.18262 0.74741 0.39075 0.0
C35 C 0.12619 0.7897 0.47584 0.0
C36 C 0.10298 0.71248 0.28116 0.0
C37 C 0.05616 0.75162 0.39239 0.0
C38 C 0.10591 0.78868 0.2845 0.0
C39 C 0.12411 0.71233 0.48295 0.0
O40 O 0.15717 0.74811 0.39258 0.0
O41 O 0.19487 0.74851 0.43736 0.0
O42 O 0.46407 0.87507 0.56286 0.0
Mn43 Mn 0.49542 0.86855 0.62033 0.0
O44 O 0.45962 0.83721 0.51412 0.0
Mn45 Mn 0.49255 0.82446 0.52868 0.0
O46 O 0.52439 0.85946 0.6794 0.0
O47 O 0.49561 0.90711 0.64332 0.0
Mn48 Mn 0.49793 0.90861 0.71571 0.0
O49 O 0.46724 0.85995 0.68007 0.0
O50 O 0.52918 0.8934 0.73758 0.0
O51 O 0.52526 0.87526 0.56101 0.0
O52 O 0.52051 0.84254 0.4981 0.0
O53 O 0.49679 0.94294 0.69392 0.0
O54 O 0.46819 0.89221 0.74356 0.0
C55 C 0.50154 0.80732 0.60672 0.0
C56 C 0.45149 0.85991 0.52872 0.0
C57 C 0.53541 0.87045 0.72127 0.0
C58 C 0.49478 0.93271 0.64534 0.0
C59 C 0.45898 0.87062 0.72483 0.0
C60 C 0.53247 0.8627 0.51719 0.0
O61 O 0.49545 0.83127 0.59836 0.0
O62 O 0.4997 0.79259 0.56363 0.0
O63 O 0.37311 0.21328 0.81511 0.0
Mn64 Mn 0.37943 0.24217 0.87849 0.0
O65 O 0.41375 0.20457 0.78082 0.0
Mn66 Mn 0.4302 0.23461 0.80568 0.0
O67 O 0.38652 0.27152 0.93982 0.0
O68 O 0.3409 0.24757 0.89188 0.0
Mn69 Mn 0.3361 0.24976 0.96449 0.0
O70 O 0.38116 0.2123 0.93615 0.0
O71 O 0.34815 0.28304 0.97931 0.0
O72 O 0.37987 0.27153 0.81726 0.0
O73 O 0.41893 0.26583 0.77328 0.0
O74 O 0.30555 0.23664 0.93654 0.0
O75 O 0.35443 0.22459 1.00405 0.0
C76 C 0.44018 0.23811 0.89186 0.0
C77 C 0.38909 0.19999 0.78368 0.0
C78 C 0.37268 0.28667 0.97182 0.0
C79 C 0.31888 0.23506 0.89133 0.0
C80 C 0.37199 0.20954 0.98453 0.0
C81 C 0.39727 0.27817 0.78101 0.0
O82 O 0.41731 0.23723 0.87113 0.0
O83 O 0.45831 0.23499 0.85525 0.0
O84 O 0.02424 0.88001 0.94711 0.0
Mn85 Mn -0.00291 0.87226 0.88208 0.0
O86 O 0.03777 0.83962 0.96552 0.0
Mn87 Mn 0.00407 0.82548 0.96397 0.0
O88 O 0.96923 0.86385 0.82124 0.0
O89 O -0.00328 0.91199 0.86257 0.0
Mn90 Mn 0.00251 0.90983 0.79006 0.0
O91 O 0.02745 0.86375 0.82654 0.0
O92 O 0.97527 0.89329 0.75438 0.0
O93 O 0.96681 0.87634 0.94112 0.0
O94 O 0.97619 0.8423 0.99927 0.0
O95 O -0.00036 0.94424 0.79944 0.0
O96 O 0.03541 0.89773 0.77216 0.0
C97 C -0.00318 0.80962 0.88434 0.0
C98 C 0.0398 0.86425 0.97301 0.0
C99 C 0.96347 0.87338 0.77399 0.0
C100 C -0.00353 0.93725 0.85027 0.0
C101 C 0.0408 0.87476 0.78821 0.0
C102 C 0.96241 0.86234 0.98487 0.0
O103 O -0.00357 0.83395 0.89747 0.0
O104 O -0.00013 0.79409 0.92582 0.0
O105 O 0.37396 0.77904 0.20324 0.0
Mn106 Mn 0.38008 0.74896 0.14331 0.0
O107 O 0.41397 0.78644 0.24094 0.0
Mn108 Mn 0.4273 0.75311 0.22723 0.0
O109 O 0.38647 0.71972 0.08409 0.0
O110 O 0.34162 0.749 0.12101 0.0
Mn111 Mn 0.34184 0.75807 0.05058 0.0
O112 O 0.39041 0.77715 0.08419 0.0
O113 O 0.36051 0.73214 0.01365 0.0
O114 O 0.37442 0.7197 0.20461 0.0
O115 O 0.40956 0.72564 0.26165 0.0
O116 O 0.30739 0.75307 0.06539 0.0
O117 O 0.3549 0.79169 0.04237 0.0
C118 C 0.44004 0.74269 0.14489 0.0
C119 C 0.38983 0.79258 0.23399 0.0
C120 C 0.37819 0.71734 0.03439 0.0
C121 C 0.31636 0.74755 0.11383 0.0
C122 C 0.37932 0.79322 0.051 0.0
C123 C 0.38852 0.71355 0.24727 0.0
O124 O 0.41712 0.74853 0.16038 0.0
O125 O 0.45705 0.74506 0.18383 0.0
O126 O 0.46647 0.12136 0.43665 0.0
Mn127 Mn 0.49839 0.12566 0.38073 0.0
O128 O 0.47418 0.15315 0.49991 0.0
Mn129 Mn 0.49912 0.17299 0.4627 0.0
O130 O 0.52999 0.13308 0.32481 0.0
O131 O 0.49858 0.08624 0.36718 0.0
Mn132 Mn 0.51132 0.08204 0.30078 0.0
O133 O 0.47209 0.12944 0.31435 0.0
O134 O 0.5452 0.0941 0.29908 0.0
O135 O 0.52649 0.12187 0.44603 0.0
O136 O 0.53343 0.16346 0.47568 0.0
O137 O 0.5044 0.04873 0.3229 0.0
O138 O 0.48768 0.09893 0.25519 0.0
C139 C 0.48465 0.18515 0.38381 0.0
C140 C 0.46087 0.13368 0.48183 0.0
C141 C 0.54759 0.11886 0.30076 0.0
C142 C 0.49597 0.06079 0.36644 0.0
C143 C 0.47189 0.11768 0.26725 0.0
C144 C 0.54017 0.13926 0.47295 0.0
O145 O 0.49702 0.16383 0.3937 0.0
O146 O 0.48511 0.20151 0.42451 0.0
O147 O 0.11789 0.21691 0.57466 0.0
Mn148 Mn 0.11839 0.24463 0.63972 0.0
O149 O 0.15078 0.23106 0.51913 0.0
Mn150 Mn 0.16414 0.2586 0.56023 0.0
O151 O 0.11855 0.27382 0.70224 0.0
O152 O 0.08061 0.24031 0.64895 0.0
Mn153 Mn 0.06802 0.24013 0.71506 0.0
O154 O 0.12448 0.21492 0.70121 0.0
O155 O 0.0781 0.27274 0.74144 0.0
O156 O 0.1103 0.27331 0.57994 0.0
O157 O 0.14752 0.2903 0.54673 0.0
O158 O 0.03986 0.23473 0.66712 0.0
O159 O 0.08526 0.21186 0.74603 0.0
C160 C 0.18149 0.24813 0.636 0.0
C161 C 0.13118 0.21598 0.52923 0.0
C162 C 0.10086 0.28298 0.7354 0.0
C163 C 0.0579 0.23594 0.62982 0.0
C164 C 0.10894 0.20443 0.73781 0.0
C165 C 0.1226 0.28977 0.54888 0.0
O166 O 0.15669 0.24935 0.62774 0.0
O167 O 0.19606 0.25524 0.595 0.0
O168 O 0.87621 0.2779 0.69068 0.0
Mn169 Mn 0.87781 0.24628 0.63099 0.0
O170 O 0.91684 0.27736 0.73009 0.0
Mn171 Mn 0.93099 0.24773 0.69818 0.0
O172 O 0.88239 0.2155 0.57151 0.0
O173 O 0.83892 0.24492 0.62364 0.0
Mn174 Mn 0.82937 0.2357 0.55731 0.0
O175 O 0.8789 0.27289 0.5652 0.0
O176 O 0.8425 0.20242 0.5444 0.0
O177 O 0.87731 0.21833 0.69597 0.0
O178 O 0.91922 0.21603 0.72721 0.0
O179 O 0.79856 0.24229 0.59394 0.0
O180 O 0.84398 0.2612 0.513 0.0
C181 C 0.93695 0.25021 0.6099 0.0
C182 C 0.89396 0.28743 0.72415 0.0
C183 C 0.86732 0.19976 0.54401 0.0
C184 C 0.81441 0.24829 0.63361 0.0
C185 C 0.86495 0.27451 0.5211 0.0
C186 C 0.89545 0.20785 0.72621 0.0
O187 O 0.91546 0.24842 0.6352 0.0
O188 O 0.95678 0.25019 0.643 0.0
O189 O 0.61052 0.71994 0.07203 0.0
Mn190 Mn 0.61456 0.74703 0.1374 0.0
O191 O 0.64621 0.72689 0.01809 0.0
Mn192 Mn 0.66037 0.75562 0.05341 0.0
O193 O 0.61818 0.77588 0.20086 0.0
O194 O 0.57672 0.74509 0.15142 0.0
Mn195 Mn 0.56808 0.74859 0.22059 0.0
O196 O 0.62012 0.71634 0.19515 0.0
O197 O 0.5767 0.78372 0.22893 0.0
O198 O 0.60695 0.77641 0.07917 0.0
O199 O 0.64407 0.7871 0.03453 0.0
O200 O 0.54092 0.73028 0.18559 0.0
O201 O 0.58996 0.72636 0.26016 0.0
C202 C 0.67738 0.74897 0.1318 0.0
C203 C 0.62417 0.71579 0.02806 0.0
C204 C 0.60098 0.79007 0.22684 0.0
C205 C 0.55723 0.72969 0.14495 0.0
C206 C 0.60904 0.71245 0.24231 0.0
C207 C 0.61951 0.78998 0.04295 0.0
O208 O 0.65271 0.74963 0.12215 0.0
O209 O 0.69221 0.75316 0.08952 0.0
O210 O 0.60976 0.27028 0.93363 0.0
Mn211 Mn 0.61629 0.24062 0.87544 0.0
O212 O 0.64118 0.2661 0.99833 0.0
Mn213 Mn 0.65891 0.23824 0.9659 0.0
O214 O 0.6215 0.21005 0.81607 0.0
O215 O 0.579 0.24017 0.85982 0.0
Mn216 Mn 0.56853 0.23887 0.79225 0.0
O217 O 0.62176 0.26982 0.81299 0.0
O218 O 0.58183 0.2062 0.77346 0.0
O219 O 0.60896 0.21182 0.93737 0.0
O220 O 0.64639 0.20555 0.98427 0.0
O221 O 0.53925 0.24649 0.83664 0.0
O222 O 0.58523 0.26737 0.75973 0.0
C223 C 0.67955 0.24342 0.89163 0.0
C224 C 0.62044 0.27696 0.97948 0.0
C225 C 0.60527 0.19824 0.78292 0.0
C226 C 0.55639 0.24699 0.87569 0.0
C227 C 0.60721 0.27789 0.77249 0.0
C228 C 0.62283 0.1993 0.9733 0.0
O229 O 0.65442 0.24148 0.89457 0.0
O230 O 0.69208 0.24186 0.93777 0.0
O231 O 0.87114 0.71498 0.31029 0.0
Mn232 Mn 0.87813 0.74226 0.37574 0.0
O233 O 0.91168 0.70409 0.27867 0.0
Mn234 Mn 0.9285 0.73449 0.30173 0.0
O235 O 0.88622 0.76921 0.44064 0.0
O236 O 0.83945 0.7485 0.38854 0.0
Mn237 Mn 0.83547 0.74888 0.46145 0.0
O238 O 0.87959 0.71095 0.43087 0.0
O239 O 0.84754 0.78219 0.47519 0.0
O240 O 0.87922 0.77303 0.31746 0.0
O241 O 0.91669 0.76549 0.26879 0.0
O242 O 0.8052 0.7354 0.43349 0.0
O243 O 0.85434 0.72403 0.50025 0.0
C244 C 0.93848 0.73924 0.38788 0.0
C245 C 0.88677 0.7007 0.2802 0.0
C246 C 0.87243 0.78439 0.47218 0.0
C247 C 0.8168 0.73712 0.3864 0.0
C248 C 0.87143 0.7087 0.48021 0.0
C249 C 0.89593 0.77893 0.27924 0.0
O250 O 0.91573 0.73725 0.36728 0.0
O251 O 0.95674 0.73625 0.35157 0.0
O252 O 0.52743 0.62012 0.57184 0.0
Mn253 Mn 0.49963 0.62453 0.63587 0.0
O254 O 0.5149 0.65105 0.51087 0.0
Mn255 Mn 0.49523 0.67251 0.55695 0.0
O256 O 0.47207 0.63045 0.7015 0.0
O257 O 0.5002 0.5854 0.64924 0.0
Mn258 Mn 0.49961 0.57873 0.72001 0.0
O259 O 0.53028 0.62839 0.69242 0.0
O260 O 0.46803 0.59147 0.74424 0.0
O261 O 0.46774 0.62234 0.57745 0.0
O262 O 0.45995 0.66489 0.55586 0.0
O263 O 0.50207 0.54642 0.68739 0.0
O264 O 0.52871 0.59443 0.75166 0.0
C265 C 0.51796 0.68129 0.62819 0.0
C266 C 0.5294 0.63174 0.52489 0.0
C267 C 0.4614 0.61547 0.7384 0.0
C268 C 0.50218 0.56022 0.64264 0.0
C269 C 0.53872 0.61598 0.73495 0.0
C270 C 0.45324 0.64064 0.55505 0.0
O271 O 0.5009 0.66288 0.62503 0.0
O272 O 0.51627 0.69826 0.58885 0.0
O273 O 0.96372 0.37761 0.06924 0.0
Mn274 Mn 0.99117 0.36848 0.13438 0.0
O275 O 0.94946 0.33769 0.04031 0.0
Mn276 Mn 0.98064 0.32087 0.05431 0.0
O277 O 0.01779 0.35848 0.19835 0.0
O278 O -0.00151 0.40665 0.15343 0.0
Mn279 Mn -0.00257 0.40946 0.22646 0.0
O280 O 0.96016 0.36607 0.18929 0.0
O281 O 0.02881 0.39459 0.24703 0.0
O282 O 0.02171 0.36813 0.07618 0.0
O283 O 0.01042 0.33428 0.01938 0.0
O284 O 0.98999 0.44208 0.20027 0.0
O285 O 0.96904 0.39312 0.259 0.0
C286 C 0.98924 0.3068 0.13534 0.0
C287 C 0.94765 0.36271 0.04118 0.0
C288 C 0.03157 0.37021 0.23596 0.0
C289 C 0.99093 0.43095 0.15243 0.0
C290 C 0.95523 0.37525 0.23703 0.0
C291 C 0.02564 0.35321 0.03385 0.0
O292 O 0.98567 0.33069 0.1213 0.0
O293 O 0.98439 0.29032 0.09622 0.0
O294 O 0.53573 0.37289 0.44137 0.0
Mn295 Mn 0.50621 0.36506 0.37946 0.0
O296 O 0.54349 0.33268 0.48061 0.0
Mn297 Mn 0.51625 0.31383 0.45072 0.0
O298 O 0.47895 0.35171 0.32004 0.0
O299 O 0.49719 0.40561 0.37317 0.0
Mn300 Mn 0.48446 0.39985 0.30545 0.0
O301 O 0.53428 0.36743 0.31675 0.0
O302 O 0.45235 0.38344 0.30122 0.0
O303 O 0.47723 0.36138 0.44083 0.0
O304 O 0.48327 0.32138 0.47998 0.0
O305 O 0.48129 0.43385 0.30786 0.0
O306 O 0.50967 0.38879 0.25587 0.0
C307 C 0.51693 0.30526 0.36313 0.0
C308 C 0.54839 0.35725 0.47502 0.0
C309 C 0.45735 0.35937 0.29866 0.0
C310 C 0.49029 0.42966 0.35691 0.0
C311 C 0.53028 0.37588 0.26783 0.0
C312 C 0.4703 0.34275 0.4738 0.0
O313 O 0.51534 0.32777 0.38572 0.0
O314 O 0.52018 0.28676 0.39887 0.0
O315 O 0.96134 0.62415 0.93958 0.0
Mn316 Mn 0.99224 0.62875 0.87995 0.0
O317 O 0.95556 0.66543 0.97502 0.0
Mn318 Mn 0.98626 0.68087 0.95044 0.0
O319 O 0.02118 0.63655 0.82049 0.0
O320 O -0.00294 0.58983 0.87124 0.0
Mn321 Mn 0.00448 0.58223 0.80264 0.0
O322 O 0.96438 0.62838 0.81581 0.0
O323 O 0.03571 0.59878 0.78514 0.0
O324 O 0.02129 0.62984 0.94221 0.0
O325 O 0.01687 0.66943 0.98443 0.0
O326 O 0.00368 0.55034 0.83741 0.0
O327 O 0.97581 0.59361 0.76304 0.0
C328 C 0.99062 0.68837 0.86295 0.0
C329 C 0.94864 0.64129 0.96961 0.0
C330 C 0.03697 0.62368 0.78933 0.0
C331 C -0.00173 0.56483 0.87975 0.0
C332 C 0.96141 0.61367 0.77291 0.0
C333 C 0.02872 0.64749 0.97727 0.0
O334 O 0.98771 0.66635 0.88602 0.0
O335 O 0.98891 0.70772 0.89724 0.0
H336 H 0.04303 0.10831 0.92871 0.0
H337 H 0.08313 0.14863 0.06041 0.0
H338 H 0.11663 0.16461 0.99509 0.0
H339 H 0.10882 0.09489 0.84309 0.0
H340 H 0.09039 0.0987 0.78049 0.0
H341 H 0.07527 0.08354 0.83963 0.0
H342 H 0.03734 0.11744 0.83458 0.0
H343 H 0.05228 0.13286 0.77637 0.0
H344 H 0.04486 0.15223 0.83656 0.0
H345 H 0.13671 0.18725 0.91251 0.0
H346 H 0.14182 0.21109 0.82473 0.0
H347 H 0.09095 0.15451 0.74554 0.0
C348 C 0.06005 0.11873 0.94429 0.0
C349 C 0.06084 0.12647 1.00007 0.0
C350 C 0.08264 0.14146 0.01852 0.0
C351 C 0.10166 0.15096 0.9813 0.0
C352 C 0.09929 0.14455 0.92572 0.0
C353 C 0.07954 0.12783 0.90764 0.0
C354 C 0.07931 0.12646 0.84534 0.0
C355 C 0.08901 0.09929 0.82599 0.0
C356 C 0.05184 0.13267 0.82192 0.0
C357 C 0.09935 0.14766 0.83109 0.0
C358 C 0.11155 0.15712 0.87786 0.0
C359 C 0.12814 0.17917 0.8755 0.0
C360 C 0.13131 0.19249 0.82506 0.0
C361 C 0.11769 0.18407 0.77755 0.0
C362 C 0.10266 0.16057 0.78044 0.0
H363 H 0.13299 0.82969 0.22392 0.0
H364 H 0.08478 0.75966 0.20464 0.0
H365 H 0.05685 0.78297 0.13935 0.0
H366 H 0.0972 0.88173 0.18471 0.0
H367 H 0.11568 0.89587 0.12883 0.0
H368 H 0.13222 0.87644 0.18024 0.0
H369 H 0.15069 0.84493 0.10634 0.0
H370 H 0.13531 0.86496 0.05436 0.0
H371 H 0.12857 0.83008 0.05748 0.0
H372 H 0.02535 0.82647 0.1258 0.0
H373 H 0.00898 0.85986 0.06144 0.0
H374 H 0.08903 0.88137 0.02067 0.0
C375 C 0.1177 0.81855 0.20353 0.0
C376 C 0.10884 0.79386 0.2247 0.0
C377 C 0.09048 0.77934 0.1928 0.0
C378 C 0.07398 0.79257 0.15657 0.0
C379 C 0.08007 0.81849 0.1442 0.0
C380 C 0.10397 0.82932 0.15805 0.0
C381 C 0.10911 0.8534 0.12152 0.0
C382 C 0.11384 0.87834 0.15593 0.0
C383 C 0.13229 0.84802 0.08258 0.0
C384 C 0.08302 0.85515 0.09018 0.0
C385 C 0.06596 0.83637 0.1098 0.0
C386 C 0.03896 0.83902 0.10371 0.0
C387 C 0.02989 0.85853 0.06803 0.0
C388 C 0.04764 0.87015 0.03029 0.0
C389 C 0.07476 0.87091 0.04541 0.0
H390 H 0.4083 0.84233 0.24518 0.0
H391 H 0.35268 0.78694 0.31335 0.0
H392 H 0.3526 0.81177 0.40048 0.0
H393 H 0.44841 0.84653 0.34083 0.0
H394 H 0.45571 0.88137 0.34206 0.0
H395 H 0.44324 0.86671 0.28078 0.0
H396 H 0.40468 0.90011 0.2799 0.0
H397 H 0.41727 0.91497 0.34188 0.0
H398 H 0.38382 0.9033 0.33934 0.0
H399 H 0.36979 0.83253 0.48577 0.0
H400 H 0.40232 0.84476 0.55598 0.0
H401 H 0.44693 0.8878 0.43493 0.0
C402 C 0.39463 0.83675 0.27721 0.0
C403 C 0.38001 0.81314 0.27212 0.0
C404 C 0.36327 0.80547 0.3156 0.0
C405 C 0.3633 0.81946 0.36556 0.0
C406 C 0.37959 0.84159 0.37093 0.0
C407 C 0.39432 0.85075 0.32705 0.0
C408 C 0.41351 0.87199 0.34549 0.0
C409 C 0.44186 0.86623 0.32623 0.0
C410 C 0.40428 0.8992 0.32545 0.0
C411 C 0.4106 0.87009 0.40733 0.0
C412 C 0.38972 0.85377 0.42111 0.0
C413 C 0.38549 0.84607 0.47541 0.0
C414 C 0.40397 0.85346 0.51551 0.0
C415 C 0.42685 0.86783 0.50117 0.0
C416 C 0.42906 0.87782 0.44731 0.0
H417 H 0.40675 0.15042 0.76974 0.0
H418 H 0.35508 0.20863 0.69862 0.0
H419 H 0.35957 0.18692 0.60819 0.0
H420 H 0.45165 0.15305 0.67824 0.0
H421 H 0.46109 0.11878 0.67512 0.0
H422 H 0.44582 0.13145 0.7358 0.0
H423 H 0.4092 0.09602 0.72894 0.0
H424 H 0.42472 0.08296 0.66807 0.0
H425 H 0.39064 0.09272 0.66634 0.0
H426 H 0.37965 0.16678 0.52246 0.0
H427 H 0.41312 0.15299 0.45481 0.0
H428 H 0.45429 0.10979 0.58081 0.0
C429 C 0.39479 0.15729 0.73591 0.0
C430 C 0.37993 0.18075 0.74176 0.0
C431 C 0.36569 0.19014 0.69589 0.0
C432 C 0.36848 0.17802 0.64398 0.0
C433 C 0.38529 0.15623 0.63861 0.0
C434 C 0.3978 0.14563 0.68393 0.0
C435 C 0.41861 0.12568 0.66674 0.0
C436 C 0.44587 0.13271 0.69032 0.0
C437 C 0.41029 0.09768 0.68353 0.0
C438 C 0.41787 0.12862 0.60485 0.0
C439 C 0.39766 0.1453 0.58912 0.0
C440 C 0.39491 0.15307 0.53441 0.0
C441 C 0.4139 0.1448 0.49583 0.0
C442 C 0.43586 0.12945 0.51199 0.0
C443 C 0.43709 0.1204 0.56676 0.0
H444 H 0.92662 0.82211 0.27076 0.0
H445 H 0.85812 0.78459 0.20074 0.0
H446 H 0.86136 0.8138 0.11952 0.0
H447 H 0.91503 0.89139 0.20656 0.0
H448 H 0.94997 0.89536 0.19708 0.0
H449 H 0.93761 0.87735 0.25549 0.0
H450 H 0.96608 0.83695 0.22776 0.0
H451 H 0.97851 0.85489 0.17007 0.0
H452 H 0.96278 0.82342 0.15963 0.0
H453 H 0.8796 0.83795 0.03687 0.0
H454 H 0.91039 0.85321 0.96496 0.0
H455 H 0.96538 0.87773 0.08984 0.0
C456 C 0.91135 0.82132 0.23983 0.0
C457 C 0.8916 0.80179 0.24272 0.0
C458 C 0.87275 0.80014 0.20025 0.0
C459 C 0.87461 0.81658 0.15377 0.0
C460 C 0.89516 0.83492 0.15085 0.0
C461 C 0.91288 0.83774 0.19361 0.0
C462 C 0.93539 0.85584 0.17776 0.0
C463 C 0.93443 0.88151 0.21123 0.0
C464 C 0.96223 0.84193 0.18414 0.0
C465 C 0.92888 0.86107 0.1181 0.0
C466 C 0.90527 0.84944 0.10343 0.0
C467 C 0.89754 0.84801 0.04841 0.0
C468 C 0.915 0.85714 0.00758 0.0
C469 C 0.93994 0.86745 0.02191 0.0
C470 C 0.94599 0.87099 0.07795 0.0
H471 H 0.88247 0.2189 0.82993 0.0
H472 H 0.89884 0.15393 0.72058 0.0
H473 H 0.906 0.12459 0.80055 0.0
H474 H 0.93416 0.20638 0.90915 0.0
H475 H 0.91995 0.21752 0.97283 0.0
H476 H 0.908 0.23038 0.90911 0.0
H477 H 0.8607 0.21551 0.93375 0.0
H478 H 0.87244 0.20265 0.99817 0.0
H479 H 0.85446 0.18158 0.95177 0.0
H480 H 0.92399 0.10658 0.89101 0.0
H481 H 0.94924 0.10285 0.97771 0.0
H482 H 0.91868 0.17854 0.02937 0.0
C483 C 0.88568 0.19803 0.82305 0.0
C484 C 0.88894 0.18837 0.76924 0.0
C485 C 0.89515 0.16142 0.7615 0.0
C486 C 0.8995 0.14469 0.80688 0.0
C487 C 0.89776 0.15527 0.8598 0.0
C488 C 0.89059 0.18138 0.86783 0.0
C489 C 0.89507 0.18977 0.92667 0.0
C490 C 0.91548 0.21231 0.92956 0.0
C491 C 0.86911 0.19783 0.95423 0.0
C492 C 0.90598 0.16449 0.95083 0.0
C493 C 0.90761 0.14471 0.91188 0.0
C494 C 0.92191 0.12157 0.92234 0.0
C495 C 0.93601 0.11937 0.97216 0.0
C496 C 0.93563 0.14019 0.0109 0.0
C497 C 0.9188 0.16196 1.00129 0.0
H498 H 0.62851 0.20213 0.68457 0.0
H499 H 0.59519 0.14619 0.79831 0.0
H500 H 0.58562 0.11575 0.72189 0.0
H501 H 0.58181 0.2007 0.59894 0.0
H502 H 0.59976 0.20367 0.53538 0.0
H503 H 0.61415 0.21534 0.59769 0.0
H504 H 0.65476 0.1855 0.58265 0.0
H505 H 0.64067 0.1738 0.51921 0.0
H506 H 0.65044 0.15062 0.57141 0.0
H507 H 0.56622 0.0992 0.63408 0.0
H508 H 0.54062 0.09886 0.54783 0.0
H509 H 0.58584 0.16525 0.48887 0.0
C510 C 0.62129 0.18249 0.69354 0.0
C511 C 0.6135 0.1761 0.74749 0.0
C512 C 0.60233 0.15101 0.75763 0.0
C513 C 0.59653 0.1337 0.71411 0.0
C514 C 0.60215 0.14165 0.66047 0.0
C515 C 0.61495 0.16531 0.65019 0.0
C516 C 0.61398 0.17207 0.58959 0.0
C517 C 0.60167 0.19952 0.57993 0.0
C518 C 0.64161 0.17038 0.5642 0.0
C519 C 0.59646 0.15008 0.56828 0.0
C520 C 0.5906 0.1321 0.60919 0.0
C521 C 0.57147 0.11256 0.60124 0.0
C522 C 0.55708 0.11229 0.55178 0.0
C523 C 0.56159 0.13172 0.51126 0.0
C524 C 0.58257 0.14973 0.51861 0.0
H525 H 0.53977 0.88753 0.42052 0.0
H526 H 0.58015 0.84497 0.54828 0.0
H527 H 0.61379 0.83059 0.48188 0.0
H528 H 0.53929 0.8453 0.32967 0.0
H529 H 0.54631 0.86423 0.26871 0.0
H530 H 0.53298 0.88034 0.32765 0.0
H531 H 0.57219 0.91285 0.32974 0.0
H532 H 0.58568 0.89705 0.26957 0.0
H533 H 0.60536 0.90036 0.33065 0.0
H534 H 0.6329 0.80878 0.39882 0.0
H535 H 0.63497 0.78373 0.31193 0.0
H536 H 0.5823 0.83983 0.23654 0.0
C537 C 0.557 0.87714 0.43509 0.0
C538 C 0.55779 0.86808 0.48972 0.0
C539 C 0.57972 0.85307 0.50714 0.0
C540 C 0.59884 0.84452 0.4693 0.0
C541 C 0.5962 0.85177 0.41428 0.0
C542 C 0.57626 0.86862 0.39759 0.0
C543 C 0.5748 0.86984 0.33549 0.0
C544 C 0.54671 0.86455 0.31424 0.0
C545 C 0.58512 0.89661 0.31514 0.0
C546 C 0.59379 0.84796 0.3201 0.0
C547 C 0.60721 0.83885 0.36572 0.0
C548 C 0.62325 0.81645 0.36263 0.0
C549 C 0.6245 0.80235 0.31286 0.0
C550 C 0.6092 0.81024 0.2673 0.0
C551 C 0.59479 0.834 0.27037 0.0
H552 H 0.62374 0.71097 0.34861 0.0
H553 H 0.60046 0.66149 0.21281 0.0
H554 H 0.58575 0.62714 0.27786 0.0
H555 H 0.64107 0.65425 0.45043 0.0
H556 H 0.62772 0.67352 0.50608 0.0
H557 H 0.64403 0.68968 0.44957 0.0
H558 H 0.6027 0.7185 0.43408 0.0
H559 H 0.5861 0.70234 0.48948 0.0
H560 H 0.57142 0.70271 0.42218 0.0
H561 H 0.56092 0.60553 0.35594 0.0
H562 H 0.53273 0.59797 0.43743 0.0
H563 H 0.57388 0.65978 0.52401 0.0
C564 C 0.61747 0.69202 0.33273 0.0
C565 C 0.61407 0.68858 0.27562 0.0
C566 C 0.6043 0.66415 0.25618 0.0
C567 C 0.59549 0.64465 0.29311 0.0
C568 C 0.59712 0.64957 0.34949 0.0
C569 C 0.60866 0.67244 0.36916 0.0
C570 C 0.60455 0.67516 0.43057 0.0
C571 C 0.63091 0.67301 0.46097 0.0
C572 C 0.59034 0.70118 0.44483 0.0
C573 C 0.58729 0.65133 0.44197 0.0
C574 C 0.58351 0.63648 0.39495 0.0
C575 C 0.56474 0.61624 0.39352 0.0
C576 C 0.54893 0.61181 0.44024 0.0
C577 C 0.55207 0.62735 0.48797 0.0
C578 C 0.57222 0.64655 0.48923 0.0
H579 H 0.58189 0.32446 0.76473 0.0
H580 H 0.64596 0.27991 0.69429 0.0
H581 H 0.64498 0.30864 0.61215 0.0
H582 H 0.54433 0.3279 0.65917 0.0
H583 H 0.53221 0.36118 0.66612 0.0
H584 H 0.54405 0.34402 0.72523 0.0
H585 H 0.57718 0.38181 0.74418 0.0
H586 H 0.56526 0.39913 0.68449 0.0
H587 H 0.59979 0.39183 0.69115 0.0
H588 H 0.62976 0.33497 0.5296 0.0
H589 H 0.6003 0.35078 0.45659 0.0
H590 H 0.54447 0.37704 0.57847 0.0
C591 C 0.59689 0.32202 0.73357 0.0
C592 C 0.61469 0.30057 0.73695 0.0
C593 C 0.633 0.29687 0.69388 0.0
C594 C 0.63236 0.31307 0.64673 0.0
C595 C 0.61351 0.33321 0.64333 0.0
C596 C 0.59638 0.33801 0.68635 0.0
C597 C 0.57525 0.35773 0.66965 0.0
C598 C 0.54735 0.34702 0.68062 0.0
C599 C 0.57963 0.38419 0.69914 0.0
C600 C 0.58094 0.36061 0.60871 0.0
C601 C 0.60404 0.34767 0.59503 0.0
C602 C 0.61207 0.34566 0.54037 0.0
C603 C 0.59533 0.35525 0.49883 0.0
C604 C 0.57019 0.3658 0.51146 0.0
C605 C 0.56392 0.37012 0.56741 0.0
H606 H 0.96388 0.37338 0.93948 0.0
H607 H 0.89406 0.3678 0.03953 0.0
H608 H 0.86788 0.35622 0.95748 0.0
H609 H 0.93367 0.39265 0.80251 0.0
H610 H 0.95561 0.37023 0.76768 0.0
H611 H 0.96614 0.38666 0.82948 0.0
H612 H 0.97724 0.34139 0.87239 0.0
H613 H 0.96623 0.32469 0.81175 0.0
H614 H 0.95193 0.3166 0.87728 0.0
H615 H 0.85261 0.33172 0.86965 0.0
H616 H 0.85061 0.30175 0.78873 0.0
H617 H 0.93001 0.32468 0.74572 0.0
C618 C 0.94268 0.37201 0.94325 0.0
C619 C 0.93094 0.37264 0.99583 0.0
C620 C 0.90338 0.36859 0.99957 0.0
C621 C 0.88842 0.36143 0.95303 0.0
C622 C 0.90121 0.3583 0.90261 0.0
C623 C 0.92778 0.36401 0.89752 0.0
C624 C 0.93838 0.35435 0.84296 0.0
C625 C 0.94906 0.37736 0.8086 0.0
C626 C 0.95967 0.33302 0.85165 0.0
C627 C 0.91375 0.34256 0.81773 0.0
C628 C 0.89241 0.3446 0.85257 0.0
C629 C 0.86897 0.33088 0.84128 0.0
C630 C 0.86779 0.31404 0.79474 0.0
C631 C 0.88989 0.31117 0.75985 0.0
C632 C 0.91244 0.32689 0.77053 0.0
H633 H 0.90309 0.65079 0.26052 0.0
H634 H 0.8513 0.71154 0.19941 0.0
H635 H 0.85172 0.69049 0.10802 0.0
H636 H 0.94502 0.64852 0.16818 0.0
H637 H 0.95049 0.61356 0.15989 0.0
H638 H 0.93745 0.62582 0.22305 0.0
H639 H 0.89716 0.59494 0.21389 0.0
H640 H 0.91037 0.58231 0.1503 0.0
H641 H 0.87758 0.59572 0.15238 0.0
H642 H 0.86828 0.67147 0.02011 0.0
H643 H 0.90025 0.65981 0.94836 0.0
H644 H 0.94373 0.61258 0.06444 0.0
C645 C 0.89033 0.65843 0.22875 0.0
C646 C 0.87669 0.68244 0.23739 0.0
C647 C 0.86111 0.69271 0.19442 0.0
C648 C 0.86144 0.68088 0.14205 0.0
C649 C 0.87688 0.65833 0.13359 0.0
C650 C 0.89045 0.64671 0.17642 0.0
C651 C 0.90901 0.62543 0.15521 0.0
C652 C 0.93714 0.62861 0.17787 0.0
C653 C 0.89788 0.59798 0.16876 0.0
C654 C 0.90755 0.63033 0.09382 0.0
C655 C 0.88735 0.64781 0.08203 0.0
C656 C 0.88359 0.65725 0.02891 0.0
C657 C 0.9018 0.65026 0.988 0.0
C658 C 0.92426 0.63479 1.00039 0.0
C659 C 0.92625 0.62351 0.05326 0.0
H660 H 0.46928 0.36365 0.57542 0.0
H661 H 0.42079 0.32492 0.45437 0.0
H662 H 0.38735 0.31545 0.52538 0.0
H663 H 0.46575 0.32026 0.66892 0.0
H664 H 0.46373 0.34075 0.72935 0.0
H665 H 0.47804 0.35365 0.66795 0.0
H666 H 0.44508 0.39251 0.66851 0.0
H667 H 0.43065 0.37984 0.73083 0.0
H668 H 0.41027 0.386 0.67176 0.0
H669 H 0.36594 0.29964 0.61095 0.0
H670 H 0.36105 0.27683 0.69983 0.0
H671 H 0.42434 0.32362 0.76705 0.0
C672 C 0.45075 0.35478 0.56358 0.0
C673 C 0.44705 0.34584 0.50937 0.0
C674 C 0.42343 0.33279 0.49534 0.0
C675 C 0.40437 0.3273 0.53558 0.0
C676 C 0.40919 0.33504 0.58971 0.0
C677 C 0.43172 0.34895 0.60358 0.0
C678 C 0.4349 0.35056 0.66538 0.0
C679 C 0.46219 0.34067 0.68391 0.0
C680 C 0.42993 0.37891 0.6853 0.0
C681 C 0.41284 0.33244 0.68383 0.0
C682 C 0.39721 0.32502 0.63994 0.0
C683 C 0.37747 0.30601 0.64583 0.0
C684 C 0.37461 0.29326 0.6967 0.0
C685 C 0.39183 0.29906 0.74054 0.0
C686 C 0.4103 0.31969 0.73466 0.0
H687 H 0.40736 0.66668 0.54037 0.0
H688 H 0.45517 0.60437 0.47162 0.0
H689 H 0.43252 0.60971 0.38258 0.0
H690 H 0.34564 0.65635 0.44714 0.0
H691 H 0.3411 0.69157 0.44395 0.0
H692 H 0.35378 0.67656 0.50561 0.0
H693 H 0.39434 0.70754 0.50125 0.0
H694 H 0.38193 0.72233 0.43986 0.0
H695 H 0.41434 0.7079 0.44006 0.0
H696 H 0.4137 0.6302 0.29609 0.0
H697 H 0.40212 0.663 0.22511 0.0
H698 H 0.36748 0.71298 0.3491 0.0
C699 C 0.41172 0.65292 0.50758 0.0
C700 C 0.43259 0.63463 0.51355 0.0
C701 C 0.43866 0.61781 0.46891 0.0
C702 C 0.42601 0.62099 0.41777 0.0
C703 C 0.40694 0.64076 0.41204 0.0
C704 C 0.39943 0.65609 0.45639 0.0
C705 C 0.38217 0.67897 0.43825 0.0
C706 C 0.354 0.67566 0.46005 0.0
C707 C 0.39393 0.70573 0.45586 0.0
C708 C 0.38283 0.67552 0.3765 0.0
C709 C 0.39638 0.65285 0.36205 0.0
C710 C 0.40224 0.6474 0.30714 0.0
C711 C 0.39523 0.66601 0.26674 0.0
C712 C 0.38283 0.69005 0.28125 0.0
C713 C 0.37564 0.69418 0.33655 0.0
H714 H 0.07889 0.66536 0.2678 0.0
H715 H 0.13772 0.71664 0.19744 0.0
H716 H 0.1326 0.69429 0.10805 0.0
H717 H 0.09472 0.60466 0.16695 0.0
H718 H 0.0603 0.59619 0.16722 0.0
H719 H 0.07561 0.60884 0.22864 0.0
H720 H 0.04033 0.64562 0.23354 0.0
H721 H 0.02523 0.63336 0.17239 0.0
H722 H 0.0359 0.66727 0.1755 0.0
H723 H 0.11119 0.67708 0.02335 0.0
H724 H 0.07728 0.66619 0.95454 0.0
H725 H 0.03235 0.62493 0.07803 0.0
C726 C 0.09208 0.67037 0.2345 0.0
C727 C 0.10929 0.69211 0.23985 0.0
C728 C 0.12523 0.69936 0.19478 0.0
C729 C 0.12223 0.68684 0.14361 0.0
C730 C 0.10367 0.6666 0.13849 0.0
C731 C 0.08947 0.65776 0.18338 0.0
C732 C 0.068 0.63867 0.16571 0.0
C733 C 0.07507 0.61042 0.18318 0.0
C734 C 0.04079 0.64677 0.18806 0.0
C735 C 0.06965 0.64133 0.10382 0.0
C736 C 0.09125 0.65637 0.08879 0.0
C737 C 0.09491 0.66441 0.03451 0.0
C738 C 0.07559 0.65799 0.99545 0.0
C739 C 0.05271 0.64388 0.01067 0.0
C740 C 0.05028 0.63462 0.06501 0.0
H741 H 0.11508 0.27712 0.84006 0.0
H742 H 0.09481 0.33582 0.71918 0.0
H743 H 0.084 0.3674 0.79318 0.0
H744 H 0.0635 0.28442 0.91373 0.0
H745 H 0.07731 0.27947 0.98106 0.0
H746 H 0.09345 0.26581 0.92232 0.0
H747 H 0.13646 0.29034 0.94697 0.0
H748 H 0.1206 0.30383 0.007 0.0
H749 H 0.13595 0.32551 0.95787 0.0
H750 H 0.06288 0.3869 0.87646 0.0
H751 H 0.03423 0.3917 0.95802 0.0
H752 H 0.0665 0.31991 0.02549 0.0
C753 C 0.11033 0.29733 0.82957 0.0
C754 C 0.10679 0.30446 0.77417 0.0
C755 C 0.09875 0.33041 0.76137 0.0
C756 C 0.09232 0.34838 0.80335 0.0
C757 C 0.09404 0.34007 0.85793 0.0
C758 C 0.10335 0.31517 0.8711 0.0
C759 C 0.09832 0.30877 0.93096 0.0
C760 C 0.08217 0.28314 0.9373 0.0
C761 C 0.12439 0.30702 0.96258 0.0
C762 C 0.08272 0.33286 0.94832 0.0
C763 C 0.08125 0.35119 0.90635 0.0
C764 C 0.06476 0.37322 0.91029 0.0
C765 C 0.04866 0.37598 0.95698 0.0
C766 C 0.04897 0.35669 0.99872 0.0
C767 C 0.06692 0.33551 0.99515 0.0
H768 H 0.9729 0.28118 0.22382 0.0
H769 H 0.04156 0.31249 0.14433 0.0
H770 H 0.06956 0.28131 0.19363 0.0
H771 H 0.01751 0.24469 0.34896 0.0
H772 H -0.0042 0.21692 0.34595 0.0
H773 H 0.9825 0.24991 0.34463 0.0
H774 H 0.95796 0.24274 0.25503 0.0
H775 H 0.968 0.2092 0.25519 0.0
H776 H 0.9749 0.2293 0.19621 0.0
H777 H 0.08306 0.23743 0.19605 0.0
H778 H 0.07406 0.19924 0.13825 0.0
H779 H 0.00149 0.18533 0.22356 0.0
C780 C 0.99411 0.28214 0.22072 0.0
C781 C 0.00533 0.29877 0.1815 0.0
C782 C 0.03281 0.29993 0.17534 0.0
C783 C 0.04883 0.28215 0.20351 0.0
C784 C 0.03694 0.26272 0.23602 0.0
C785 C 0.01005 0.26348 0.24705 0.0
C786 C 0.00058 0.23703 0.26741 0.0
C787 C -0.00103 0.23719 0.33042 0.0
C788 C 0.97384 0.22913 0.2418 0.0
C789 C 0.02329 0.21984 0.24863 0.0
C790 C 0.04549 0.23527 0.23778 0.0
C791 C 0.06588 0.22554 0.20478 0.0
C792 C 0.0608 0.20358 0.1719 0.0
C793 C 0.03633 0.19079 0.17559 0.0
C794 C 0.01992 0.19589 0.22052 0.0
H795 H 0.95288 0.71338 0.47827 0.0
H796 H 0.93859 0.79066 0.41305 0.0
H797 H 0.97117 0.80929 0.47434 0.0
H798 H 0.99481 0.74941 0.61918 0.0
H799 H 0.01535 0.72047 0.61769 0.0
H800 H 0.98001 0.71719 0.61488 0.0
H801 H 0.98332 0.68945 0.52957 0.0
H802 H 0.01827 0.6923 0.53177 0.0
H803 H 0.00087 0.7015 0.47014 0.0
H804 H 0.01633 0.81427 0.48857 0.0
H805 H 0.05198 0.80158 0.42713 0.0
H806 H 0.04481 0.72088 0.47826 0.0
C807 C 0.95528 0.73453 0.4817 0.0
C808 C 0.9439 0.75065 0.44167 0.0
C809 C 0.94715 0.7781 0.44428 0.0
C810 C 0.96559 0.78894 0.48007 0.0
C811 C 0.98085 0.77202 0.51243 0.0
C812 C 0.97443 0.74528 0.51675 0.0
C813 C -0.00215 0.73013 0.53821 0.0
C814 C -0.00303 0.72933 0.60122 0.0
C815 C 0.0002 0.7017 0.51572 0.0
C816 C 0.01944 0.74871 0.51992 0.0
C817 C 0.00951 0.77439 0.51683 0.0
C818 C 0.02375 0.79428 0.49033 0.0
C819 C 0.04411 0.78694 0.4551 0.0
C820 C 0.05037 0.76012 0.44825 0.0
C821 C 0.04023 0.74144 0.48491 0.0
H822 H 0.49962 0.68435 0.7296 0.0
H823 H 0.5705 0.69255 0.63611 0.0
H824 H 0.58303 0.73104 0.69005 0.0
H825 H 0.47907 0.72926 0.6684 0.0
H826 H 0.45794 0.7452 0.71799 0.0
H827 H 0.46642 0.71152 0.72637 0.0
H828 H 0.4875 0.72443 0.82595 0.0
H829 H 0.47452 0.75684 0.81059 0.0
H830 H 0.5087 0.75294 0.82767 0.0
H831 H 0.57533 0.77639 0.68861 0.0
H832 H 0.55325 0.8088 0.62974 0.0
H833 H 0.4778 0.7824 0.68756 0.0
C834 C 0.51821 0.69426 0.72304 0.0
C835 C 0.53317 0.68711 0.67745 0.0
C836 C 0.55815 0.69848 0.67021 0.0
C837 C 0.56504 0.7208 0.70053 0.0
C838 C 0.54513 0.7334 0.73055 0.0
C839 C 0.5216 0.72006 0.74205 0.0
C840 C 0.49882 0.73925 0.74635 0.0
C841 C 0.47423 0.73081 0.71278 0.0
C842 C 0.49183 0.74364 0.80633 0.0
C843 C 0.51161 0.76367 0.72379 0.0
C844 C 0.53879 0.76103 0.72163 0.0
C845 C 0.55423 0.77878 0.69161 0.0
C846 C 0.54163 0.79716 0.65809 0.0
C847 C 0.514 0.79787 0.65605 0.0
C848 C 0.49898 0.78249 0.69157 0.0
H849 H 0.54351 0.29647 0.89317 0.0
H850 H 0.55587 0.22273 0.97429 0.0
H851 H 0.526 0.23576 0.04806 0.0
H852 H 0.49637 0.32831 0.02768 0.0
H853 H 0.4784 0.34364 0.97207 0.0
H854 H 0.51368 0.34378 0.97198 0.0
H855 H 0.51046 0.3251 0.87461 0.0
H856 H 0.47563 0.32243 0.87866 0.0
H857 H 0.49499 0.29348 0.86318 0.0
H858 H 0.48055 0.23342 0.05618 0.0
H859 H 0.44694 0.21631 0.99383 0.0
H860 H 0.44917 0.28819 0.90156 0.0
C861 C 0.54039 0.28415 0.92884 0.0
C862 C 0.55097 0.25877 0.92885 0.0
C863 C 0.548 0.24253 0.97475 0.0
C864 C 0.53058 0.2499 0.01634 0.0
C865 C 0.51429 0.27185 0.00755 0.0
C866 C 0.52032 0.29002 0.96611 0.0
C867 C 0.49627 0.30574 0.95038 0.0
C868 C 0.49608 0.33182 0.98267 0.0
C869 C 0.49425 0.31189 0.88802 0.0
C870 C 0.47537 0.28676 0.97108 0.0
C871 C 0.48562 0.27004 0.01131 0.0
C872 C 0.47264 0.24641 0.02509 0.0
C873 C 0.45341 0.23658 0.98951 0.0
C874 C 0.44621 0.25136 0.94339 0.0
C875 C 0.45486 0.27741 0.93799 0.0
H876 H 0.04274 0.79213 0.85374 0.0
H877 H 0.96382 0.8042 0.79706 0.0
H878 H 0.97079 0.77271 0.72243 0.0
H879 H 0.06752 0.74811 0.71041 0.0
H880 H 0.08741 0.7326 0.76291 0.0
H881 H 0.08317 0.76764 0.76294 0.0
H882 H 0.07098 0.75857 0.86552 0.0
H883 H 0.07071 0.72385 0.85668 0.0
H884 H 0.04133 0.74029 0.88074 0.0
H885 H 0.97112 0.72807 0.70901 0.0
H886 H 0.96169 0.6918 0.77064 0.0
H887 H 0.04033 0.69395 0.83237 0.0
C888 C 0.02772 0.78859 0.82315 0.0
C889 C 0.00297 0.80019 0.82977 0.0
C890 C 0.98313 0.79591 0.79102 0.0
C891 C 0.98717 0.77774 0.74873 0.0
C892 C 0.01025 0.76246 0.7491 0.0
C893 C 0.03089 0.76859 0.78444 0.0
C894 C 0.04908 0.74537 0.792 0.0
C895 C 0.07312 0.74857 0.7545 0.0
C896 C 0.05839 0.74182 0.85232 0.0
C897 C 0.03102 0.72353 0.77178 0.0
C898 C 0.01051 0.73403 0.7402 0.0
C899 C 0.98716 0.71978 0.73237 0.0
C900 C 0.9817 0.69885 0.76748 0.0
C901 C 0.0002 0.69177 0.80708 0.0
C902 C 0.02623 0.70048 0.80204 0.0
H903 H 0.54978 0.75357 0.05109 0.0
H904 H 0.54779 0.67764 0.1279 0.0
H905 H 0.51289 0.66342 0.06603 0.0
H906 H 0.50621 0.77551 0.06176 0.0
H907 H 0.48963 0.78715 1.00089 0.0
H908 H 0.52443 0.78243 0.99978 0.0
H909 H 0.52031 0.75194 0.91792 0.0
H910 H 0.48509 0.75726 0.91831 0.0
H911 H 0.49833 0.7242 0.91883 0.0
H912 H 0.46721 0.66873 0.05963 0.0
H913 H 0.43655 0.69084 0.12166 0.0
H914 H 0.45805 0.76618 0.05495 0.0
C915 C 0.54335 0.73326 0.05008 0.0
C916 C 0.5507 0.7168 0.09331 0.0
C917 C 0.54196 0.69056 0.09467 0.0
C918 C 0.52197 0.68246 0.05929 0.0
C919 C 0.51002 0.70134 0.02553 0.0
C920 C 0.5218 0.72601 0.01762 0.0
C921 C 0.50167 0.74545 0.99673 0.0
C922 C 0.50573 0.77429 0.01623 0.0
C923 C 0.50128 0.74465 0.93416 0.0
C924 C 0.47715 0.73231 0.01832 0.0
C925 C 0.48148 0.70522 0.02436 0.0
C926 C 0.46411 0.68974 0.05523 0.0
C927 C 0.44673 0.7024 0.09085 0.0
C928 C 0.44603 0.73006 0.09273 0.0
C929 C 0.45883 0.74488 0.05249 0.0
H930 H 0.44018 0.21135 0.3673 0.0
H931 H 0.50543 0.17651 0.283 0.0
H932 H 0.50512 0.21224 0.21551 0.0
H933 H 0.4222 0.26172 0.22783 0.0
H934 H 0.4111 0.28471 0.27927 0.0
H935 H 0.40204 0.25036 0.28398 0.0
H936 H 0.42036 0.25064 0.38241 0.0
H937 H 0.42959 0.28425 0.37543 0.0
H938 H 0.45418 0.26012 0.39417 0.0
H939 H 0.51908 0.25605 0.20961 0.0
H940 H 0.53996 0.2893 0.26788 0.0
H941 H 0.4664 0.30479 0.34741 0.0
C942 C 0.45288 0.21073 0.33167 0.0
C943 C 0.47366 0.19262 0.33073 0.0
C944 C 0.48984 0.19089 0.28432 0.0
C945 C 0.48962 0.21127 0.24578 0.0
C946 C 0.47299 0.23287 0.25481 0.0
C947 C 0.45339 0.23186 0.29484 0.0
C948 C 0.44275 0.25903 0.30671 0.0
C949 C 0.41805 0.26421 0.27231 0.0
C950 C 0.43652 0.26375 0.36834 0.0
C951 C 0.46551 0.27514 0.2847 0.0
C952 C 0.48093 0.26032 0.24851 0.0
C953 C 0.50687 0.26786 0.23647 0.0
C954 C 0.51886 0.28692 0.26952 0.0
C955 C 0.50434 0.29925 0.31106 0.0
C956 C 0.47708 0.2957 0.31394 0.0
H957 H 0.04351 0.19109 0.58503 0.0
H958 H 0.05589 0.27316 0.55172 0.0
H959 H 0.02436 0.27156 0.47682 0.0
H960 H 0.99417 0.16994 0.46821 0.0
H961 H 0.96974 0.15986 0.5178 0.0
H962 H 0.00389 0.15329 0.53029 0.0
H963 H 0.00562 0.17693 0.62042 0.0
H964 H 0.97119 0.18111 0.61614 0.0
H965 H 0.99188 0.20958 0.62681 0.0
H966 H 0.97996 0.27461 0.46204 0.0
H967 H 0.94251 0.2837 0.52219 0.0
H968 H 0.93989 0.20241 0.57076 0.0
C969 C 0.04009 0.20801 0.5589 0.0
C970 C 0.05209 0.23192 0.57227 0.0
C971 C 0.04764 0.25428 0.53999 0.0
C972 C 0.02906 0.25343 0.49804 0.0
C973 C 0.0123 0.23151 0.49534 0.0
C974 C 0.01764 0.20879 0.52603 0.0
C975 C 0.99252 0.19446 0.54169 0.0
C976 C 0.98996 0.16784 0.51257 0.0
C977 C 0.99017 0.19044 0.60483 0.0
C978 C 0.97248 0.21386 0.52051 0.0
C979 C 0.98401 0.23425 0.49073 0.0
C980 C 0.97091 0.25842 0.48393 0.0
C981 C 0.94908 0.26352 0.51716 0.0
C982 C 0.93985 0.24367 0.55236 0.0
C983 C 0.94796 0.21765 0.54456 0.0
H984 H 0.0098 0.01135 0.13633 0.0
H985 H 0.99389 0.08349 0.04632 0.0
H986 H 0.9903 0.05791 0.96076 0.0
H987 H 0.04928 0.98001 0.02618 0.0
H988 H 0.03698 0.94753 0.04186 0.0
H989 H 0.04011 0.97177 0.09556 0.0
H990 H 0.99082 0.96517 0.11967 0.0
H991 H 0.98748 0.94143 0.06513 0.0
H992 H 0.96629 0.96991 0.0672 0.0
H993 H 0.98316 0.02507 0.88962 0.0
H994 H 0.9813 0.98693 0.82837 0.0
H995 H 0.00445 0.93528 0.96228 0.0
C996 C 0.00597 0.02179 0.09841 0.0
C997 C 0.00166 0.04933 0.09758 0.0
C998 C -0.00303 0.06244 0.04755 0.0
C999 C -0.00515 0.04806 0.99896 0.0
C1000 C -0.00199 0.0208 1.00159 0.0
C1001 C 0.00419 0.00778 0.04952 0.0
C1002 C 0.00668 0.97827 0.04056 0.0
C1003 C 0.03494 0.96885 0.05168 0.0
C1004 C 0.98662 0.96281 0.07522 0.0
C1005 C 9e-05 0.97678 0.98026 0.0
C1006 C -0.005 0.00159 0.95913 0.0
C1007 C 0.9876 0.00559 0.90518 0.0
C1008 C 0.98651 0.98373 0.87093 0.0
C1009 C 0.99312 0.95826 0.89066 0.0
C1010 C -0.00068 0.95454 0.94636 0.0
H1011 H 0.22813 0.77197 0.37109 0.0
H1012 H 0.17149 0.71798 0.29974 0.0
H1013 H 0.20265 0.70846 0.22392 0.0
H1014 H 0.25269 0.79786 0.24125 0.0
H1015 H 0.28569 0.80118 0.2674 0.0
H1016 H 0.25805 0.80417 0.31317 0.0
H1017 H 0.27837 0.76743 0.37405 0.0
H1018 H 0.30545 0.76365 0.32702 0.0
H1019 H 0.28535 0.73558 0.34441 0.0
H1020 H 0.24039 0.70394 0.15955 0.0
H1021 H 0.27936 0.71028 0.10044 0.0
H1022 H 0.31162 0.76611 0.21706 0.0
C1023 C 0.22219 0.75846 0.33892 0.0
C1024 C 0.1977 0.7456 0.34046 0.0
C1025 C 0.19018 0.72818 0.29817 0.0
C1026 C 0.20785 0.72242 0.25573 0.0
C1027 C 0.23251 0.7345 0.25691 0.0
C1028 C 0.23942 0.75265 0.29662 0.0
C1029 C 0.26672 0.76356 0.28786 0.0
C1030 C 0.26572 0.79345 0.27672 0.0
C1031 C 0.28503 0.75715 0.33624 0.0
C1032 C 0.27439 0.74834 0.23732 0.0
C1033 C 0.25443 0.7316 0.2203 0.0
C1034 C 0.25622 0.71678 0.17254 0.0
C1035 C 0.27839 0.72033 0.13967 0.0
C1036 C 0.29827 0.73832 0.15537 0.0
C1037 C 0.29689 0.75167 0.20558 0.0
H1038 H 0.49938 0.06497 0.47757 0.0
H1039 H 0.46216 0.02158 0.3456 0.0
H1040 H 0.45206 0.98523 0.40849 0.0
H1041 H 0.53249 0.01734 0.52936 0.0
H1042 H 0.52873 0.0236 0.60177 0.0
H1043 H 0.52539 0.05018 0.55375 0.0
H1044 H 0.47873 0.06109 0.58949 0.0
H1045 H 0.48214 0.03528 0.63989 0.0
H1046 H 0.45437 0.03535 0.59393 0.0
H1047 H 0.46099 0.94928 0.47143 0.0
H1048 H 0.47558 0.91907 0.54396 0.0
H1049 H 0.50329 0.98538 0.63994 0.0
C1050 C 0.48761 0.04854 0.46326 0.0
C1051 C 0.48163 0.0457 0.40739 0.0
C1052 C 0.46691 0.02379 0.3887 0.0
C1053 C 0.46108 0.00307 0.42402 0.0
C1054 C 0.46961 0.00503 0.4779 0.0
C1055 C 0.48151 0.02761 0.49839 0.0
C1056 C 0.49159 0.02316 0.55594 0.0
C1057 C 0.5213 0.0289 0.56038 0.0
C1058 C 0.47576 0.03969 0.59728 0.0
C1059 C 0.48581 0.99403 0.56202 0.0
C1060 C 0.47302 0.98402 0.51666 0.0
C1061 C 0.46955 0.95701 0.50877 0.0
C1062 C 0.47811 0.93988 0.54988 0.0
C1063 C 0.48947 0.94986 0.59833 0.0
C1064 C 0.49377 0.97725 0.60395 0.0
H1065 H 0.29032 0.27235 0.84598 0.0
H1066 H 0.31175 0.18999 0.83228 0.0
H1067 H 0.27348 0.18232 0.77082 0.0
H1068 H 0.22312 0.26025 0.86126 0.0
H1069 H 0.21258 0.28929 0.8248 0.0
H1070 H 0.2436 0.2893 0.86043 0.0
H1071 H 0.26865 0.30179 0.77111 0.0
H1072 H 0.23753 0.30346 0.73639 0.0
H1073 H 0.26331 0.28262 0.70978 0.0
H1074 H 0.23203 0.1844 0.71373 0.0
H1075 H 0.19452 0.19743 0.65489 0.0
H1076 H 0.19807 0.27676 0.71967 0.0
C1077 C 0.28756 0.25301 0.82778 0.0
C1078 C 0.30401 0.23186 0.84154 0.0
C1079 C 0.29951 0.20644 0.81998 0.0
C1080 C 0.27766 0.2019 0.78623 0.0
C1081 C 0.26058 0.22293 0.77661 0.0
C1082 C 0.26551 0.24803 0.7963 0.0
C1083 C 0.24367 0.26702 0.78324 0.0
C1084 C 0.22996 0.27704 0.83558 0.0
C1085 C 0.25389 0.29006 0.74799 0.0
C1086 C 0.2259 0.24894 0.75146 0.0
C1087 C 0.23574 0.2235 0.74846 0.0
C1088 C 0.22382 0.20405 0.71671 0.0
C1089 C 0.20235 0.21142 0.6843 0.0
C1090 C 0.19334 0.23777 0.68494 0.0
C1091 C 0.20418 0.25628 0.72084 0.0
H1092 H 0.71404 0.21024 0.84894 0.0
H1093 H 0.67896 0.28739 0.82819 0.0
H1094 H 0.71594 0.30051 0.76737 0.0
H1095 H 0.7781 0.23 0.86181 0.0
H1096 H 0.79246 0.20322 0.82338 0.0
H1097 H 0.76171 0.19846 0.85868 0.0
H1098 H 0.73838 0.18428 0.76849 0.0
H1099 H 0.76954 0.1871 0.73401 0.0
H1100 H 0.74137 0.20483 0.7085 0.0
H1101 H 0.75793 0.30505 0.71338 0.0
H1102 H 0.79655 0.2974 0.65365 0.0
H1103 H 0.80552 0.21903 0.72076 0.0
C1104 C 0.71369 0.22948 0.82953 0.0
C1105 C 0.69392 0.24778 0.84161 0.0
C1106 C 0.69392 0.27306 0.81745 0.0
C1107 C 0.715 0.28076 0.78407 0.0
C1108 C 0.73545 0.26279 0.7763 0.0
C1109 C 0.73451 0.23743 0.79702 0.0
C1110 C 0.75874 0.22178 0.7832 0.0
C1111 C 0.77361 0.21286 0.83489 0.0
C1112 C 0.75159 0.19812 0.74633 0.0
C1113 C 0.77393 0.24246 0.75244 0.0
C1114 C 0.76024 0.26602 0.74876 0.0
C1115 C 0.76908 0.28694 0.71674 0.0
C1116 C 0.79127 0.28269 0.68398 0.0
C1117 C 0.80402 0.25794 0.68462 0.0
C1118 C 0.79658 0.23844 0.72198 0.0
H1119 H 0.79788 0.70468 0.30595 0.0
H1120 H 0.79443 0.78384 0.3731 0.0
H1121 H 0.75173 0.79117 0.32804 0.0
H1122 H 0.77111 0.72542 0.17212 0.0
H1123 H 0.75459 0.69432 0.162 0.0
H1124 H 0.78436 0.69569 0.20173 0.0
H1125 H 0.75945 0.67311 0.28196 0.0
H1126 H 0.72924 0.67308 0.24333 0.0
H1127 H 0.7304 0.68852 0.30993 0.0
H1128 H 0.70817 0.78838 0.28572 0.0
H1129 H 0.67403 0.78363 0.21449 0.0
H1130 H 0.70791 0.70891 0.16495 0.0
C1131 C 0.7885 0.72381 0.30919 0.0
C1132 C 0.79905 0.74377 0.34241 0.0
C1133 C 0.78647 0.76857 0.3467 0.0
C1134 C 0.76202 0.77265 0.32262 0.0
C1135 C 0.75107 0.75195 0.29324 0.0
C1136 C 0.76446 0.72864 0.28358 0.0
C1137 C 0.7496 0.7111 0.24437 0.0
C1138 C 0.76586 0.70638 0.19192 0.0
C1139 C 0.74171 0.68491 0.27157 0.0
C1140 C 0.7258 0.72831 0.23387 0.0
C1141 C 0.72655 0.75121 0.26462 0.0
C1142 C 0.70725 0.77062 0.26112 0.0
C1143 C 0.68777 0.76763 0.22137 0.0
C1144 C 0.6886 0.74583 0.18558 0.0
C1145 C 0.70685 0.72535 0.19331 0.0
H1146 H 0.5211 0.51135 0.62584 0.0
H1147 H 0.48928 0.57965 0.54167 0.0
H1148 H 0.48621 0.55366 0.45625 0.0
H1149 H 0.55819 0.4834 0.50551 0.0
H1150 H 0.55047 0.45014 0.52615 0.0
H1151 H 0.55461 0.47552 0.57726 0.0
H1152 H 0.50843 0.46426 0.61597 0.0
H1153 H 0.5038 0.4395 0.56402 0.0
H1154 H 0.48022 0.46583 0.57128 0.0
H1155 H 0.47915 0.51911 0.38804 0.0
H1156 H 0.4741 0.47929 0.33281 0.0
H1157 H 0.51147 0.43272 0.46082 0.0
C1158 C 0.51418 0.52103 0.58897 0.0
C1159 C 0.50516 0.54732 0.58978 0.0
C1160 C 0.49625 0.55952 0.54131 0.0
C1161 C 0.49446 0.5449 0.49288 0.0
C1162 C 0.5022 0.51852 0.49422 0.0
C1163 C 0.51246 0.50681 0.54056 0.0
C1164 C 0.51739 0.47763 0.53236 0.0
C1165 C 0.54692 0.47131 0.53549 0.0
C1166 C 0.5015 0.46084 0.57334 0.0
C1167 C 0.50715 0.47452 0.47476 0.0
C1168 C 0.49864 0.4984 0.45372 0.0
C1169 C 0.48649 0.50044 0.40316 0.0
C1170 C 0.48363 0.47755 0.37235 0.0
C1171 C 0.4929 0.45289 0.39224 0.0
C1172 C 0.50462 0.45133 0.44434 0.0
H1173 H 0.96443 0.52612 0.90359 0.0
H1174 H 0.0266 0.57493 0.97065 0.0
H1175 H 0.03296 0.54282 0.04579 0.0
H1176 H 0.9379 0.50289 0.0394 0.0
H1177 H 0.93056 0.47075 0.0116 0.0
H1178 H 0.92891 0.49944 0.96821 0.0
H1179 H 0.96119 0.47657 0.90082 0.0
H1180 H 0.96399 0.44842 0.94541 0.0
H1181 H 0.99307 0.46625 0.92507 0.0
H1182 H 0.03878 0.5021 0.09858 0.0
H1183 H 0.03352 0.4613 0.152 0.0
H1184 H 0.96459 0.44042 0.05658 0.0
C1185 C 0.9784 0.53056 0.93588 0.0
C1186 C -0.00509 0.55275 0.93269 0.0
C1187 C 0.01352 0.55812 0.97396 0.0
C1188 C 0.01752 0.53984 0.0159 0.0
C1189 C 0.00226 0.517 0.01562 0.0
C1190 C 0.98224 0.51281 0.97838 0.0
C1191 C 0.96896 0.48643 0.98699 0.0
C1192 C 0.93986 0.4901 1.00253 0.0
C1193 C 0.972 0.46838 0.93655 0.0
C1194 C 0.98497 0.47627 0.03448 0.0
C1195 C 0.00458 0.49393 0.04888 0.0
C1196 C 0.02311 0.48842 0.08888 0.0
C1197 C 0.02021 0.4651 0.11817 0.0
C1198 C -0.00144 0.44822 0.10806 0.0
C1199 C 0.98131 0.45313 0.06443 0.0
H1200 H 0.03922 0.11817 0.35474 0.0
H1201 H 0.07695 0.15065 0.21006 0.0
H1202 H 0.1078 0.17529 0.26921 0.0
H1203 H 0.04097 0.17552 0.43194 0.0
H1204 H 0.04753 0.15958 0.49675 0.0
H1205 H 0.0307 0.14183 0.44317 0.0
H1206 H 0.06537 0.10496 0.44863 0.0
H1207 H 0.08221 0.12266 0.50234 0.0
H1208 H 0.0997 0.11313 0.44106 0.0
H1209 H 0.13244 0.19785 0.34234 0.0
H1210 H 0.14842 0.22007 0.42415 0.0
H1211 H 0.09351 0.17535 0.52492 0.0
C1212 C 0.05448 0.12986 0.33551 0.0
C1213 C 0.05581 0.13243 0.27776 0.0
C1214 C 0.07554 0.14852 0.25417 0.0
C1215 C 0.09326 0.16239 0.28743 0.0
C1216 C 0.0911 0.1598 0.34421 0.0
C1217 C 0.07231 0.14393 0.36816 0.0
C1218 C 0.07285 0.14656 0.43021 0.0
C1219 C 0.0464 0.15652 0.45174 0.0
C1220 C 0.0805 0.12026 0.45715 0.0
C1221 C 0.09423 0.16713 0.43752 0.0
C1222 C 0.10483 0.17384 0.38713 0.0
C1223 C 0.12446 0.19261 0.38204 0.0
C1224 C 0.1334 0.20513 0.4294 0.0
C1225 C 0.12247 0.19945 0.48193 0.0
C1226 C 0.10256 0.18 0.48587 0.0
H1227 H 0.13235 0.83756 0.53078 0.0
H1228 H 0.08779 0.76476 0.52621 0.0
H1229 H 0.06226 0.77863 0.60637 0.0
H1230 H 0.13775 0.83879 0.67767 0.0
H1231 H 0.13469 0.87406 0.68484 0.0
H1232 H 0.14831 0.86021 0.62288 0.0
H1233 H 0.11344 0.88466 0.56455 0.0
H1234 H 0.10004 0.89902 0.62619 0.0
H1235 H 0.07904 0.88059 0.58058 0.0
H1236 H 0.03996 0.8006 0.67989 0.0
H1237 H 0.02289 0.82909 0.75235 0.0
H1238 H 0.08544 0.88511 0.72545 0.0
C1239 C 0.11668 0.82511 0.54609 0.0
C1240 C 0.11037 0.80103 0.52002 0.0
C1241 C 0.09106 0.78427 0.54285 0.0
C1242 C 0.07696 0.79169 0.58915 0.0
C1243 C 0.08314 0.81563 0.61345 0.0
C1244 C 0.10252 0.83215 0.59344 0.0
C1245 C 0.10555 0.85622 0.63018 0.0
C1246 C 0.13323 0.85737 0.6554 0.0
C1247 C 0.09913 0.88162 0.59847 0.0
C1248 C 0.08479 0.85043 0.67348 0.0
C1249 C 0.07219 0.8269 0.66216 0.0
C1250 C 0.05057 0.81823 0.69158 0.0
C1251 C 0.0415 0.834 0.73415 0.0
C1252 C 0.05449 0.85755 0.74891 0.0
C1253 C 0.07626 0.86622 0.71749 0.0
H1254 H 0.38089 0.84304 1.00396 0.0
H1255 H 0.4122 0.76361 0.99136 0.0
H1256 H 0.43138 0.77419 0.90147 0.0
H1257 H 0.36554 0.85359 0.86373 0.0
H1258 H 0.37732 0.88709 0.86037 0.0
H1259 H 0.3655 0.87392 0.92447 0.0
H1260 H 0.40972 0.88538 0.97164 0.0
H1261 H 0.42132 0.89927 0.90808 0.0
H1262 H 0.44007 0.87382 0.94174 0.0
H1263 H 0.44168 0.79091 0.80877 0.0
H1264 H 0.45734 0.81739 0.73076 0.0
H1265 H 0.42529 0.88794 0.80611 0.0
C1266 C 0.39231 0.82819 0.98263 0.0
C1267 C 0.39529 0.8026 1.00464 0.0
C1268 C 0.41014 0.78348 0.97562 0.0
C1269 C 0.42068 0.78912 0.92406 0.0
C1270 C 0.41662 0.81414 0.90247 0.0
C1271 C 0.40389 0.83379 0.9316 0.0
C1272 C 0.4045 0.85965 0.90021 0.0
C1273 C 0.37654 0.8691 0.88639 0.0
C1274 C 0.41982 0.88077 0.93232 0.0
C1275 C 0.41921 0.85119 0.84886 0.0
C1276 C 0.42514 0.82464 0.85051 0.0
C1277 C 0.43779 0.81186 0.80741 0.0
C1278 C 0.44627 0.827 0.76288 0.0
C1279 C 0.44275 0.85467 0.76252 0.0
C1280 C 0.42825 0.86679 0.8053 0.0
H1281 H 0.43751 0.16084 0.26216 0.0
H1282 H 0.4646 0.0924 0.17018 0.0
H1283 H 0.43899 0.10645 0.09099 0.0
H1284 H 0.36981 0.16168 0.20117 0.0
H1285 H 0.36875 0.19722 0.19882 0.0
H1286 H 0.38733 0.18084 0.25172 0.0
H1287 H 0.42724 0.20698 0.22264 0.0
H1288 H 0.4105 0.22315 0.16752 0.0
H1289 H 0.44043 0.20505 0.15409 0.0
H1290 H 0.4164 0.13057 0.01679 0.0
H1291 H 0.39374 0.16212 0.95545 0.0
H1292 H 0.37776 0.21288 0.09488 0.0
C1293 C 0.43767 0.14859 0.22579 0.0
C1294 C 0.45348 0.12564 0.22281 0.0
C1295 C 0.45304 0.11024 0.17399 0.0
C1296 C 0.4384 0.11793 0.12842 0.0
C1297 C 0.4237 0.14087 0.13202 0.0
C1298 C 0.42272 0.1558 0.17954 0.0
C1299 C 0.40596 0.18019 0.1707 0.0
C1300 C 0.3815 0.17994 0.20781 0.0
C1301 C 0.42208 0.20541 0.17896 0.0
C1302 C 0.39858 0.17685 0.11107 0.0
C1303 C 0.4091 0.15406 0.08937 0.0
C1304 C 0.40743 0.14817 0.03356 0.0
C1305 C 0.39468 0.1662 0.99903 0.0
C1306 C 0.3836 0.18955 0.02078 0.0
C1307 C 0.38533 0.19471 0.07755 0.0
H1308 H 0.90707 0.82667 0.48389 0.0
H1309 H 0.86559 0.76529 0.57282 0.0
H1310 H 0.88248 0.78255 0.66025 0.0
H1311 H 0.96498 0.8285 0.5703 0.0
H1312 H 0.96862 0.86382 0.56989 0.0
H1313 H 0.95383 0.84766 0.51209 0.0
H1314 H 0.91221 0.87599 0.52013 0.0
H1315 H 0.92678 0.89327 0.57714 0.0
H1316 H 0.89505 0.87784 0.5848 0.0
H1317 H 0.90199 0.80706 0.73844 0.0
H1318 H 0.9276 0.835 0.80224 0.0
H1319 H 0.95693 0.88019 0.66377 0.0
C1320 C 0.90183 0.81689 0.52185 0.0
C1321 C 0.88493 0.79482 0.52201 0.0
C1322 C 0.87837 0.7824 0.57223 0.0
C1323 C 0.88781 0.79204 0.62206 0.0
C1324 C 0.90377 0.81424 0.62112 0.0
C1325 C 0.91104 0.82644 0.57251 0.0
C1326 C 0.92827 0.85023 0.58399 0.0
C1327 C 0.95555 0.8473 0.55749 0.0
C1328 C 0.91476 0.87585 0.5654 0.0
C1329 C 0.92996 0.84887 0.64596 0.0
C1330 C 0.91535 0.82825 0.66663 0.0
C1331 C 0.91377 0.82316 0.72277 0.0
C1332 C 0.92837 0.83909 0.75866 0.0
C1333 C 0.94469 0.85939 0.738 0.0
C1334 C 0.94477 0.86474 0.68102 0.0
H1335 H 0.90826 0.21076 0.47445 0.0
H1336 H 0.84878 0.15192 0.50853 0.0
H1337 H 0.86087 0.12835 0.423 0.0
H1338 H 0.90063 0.21458 0.33362 0.0
H1339 H 0.93503 0.21734 0.31799 0.0
H1340 H 0.92307 0.22845 0.3832 0.0
H1341 H 0.95684 0.19955 0.42694 0.0
H1342 H 0.96859 0.18341 0.3668 0.0
H1343 H 0.9551 0.16397 0.42136 0.0
H1344 H 0.88113 0.11051 0.3338 0.0
H1345 H 0.90998 0.09815 0.25616 0.0
H1346 H 0.95531 0.16914 0.27972 0.0
C1347 C 0.89873 0.1922 0.46563 0.0
C1348 C 0.87832 0.18266 0.49974 0.0
C1349 C 0.86493 0.15929 0.48392 0.0
C1350 C 0.87149 0.14592 0.43503 0.0
C1351 C 0.89136 0.15625 0.40178 0.0
C1352 C 0.90504 0.17859 0.41707 0.0
C1353 C 0.9257 0.18548 0.37459 0.0
C1354 C 0.92079 0.2131 0.35094 0.0
C1355 C 0.95323 0.18297 0.39903 0.0
C1356 C 0.92152 0.16396 0.33253 0.0
C1357 C 0.90167 0.14708 0.34908 0.0
C1358 C 0.89647 0.12385 0.32039 0.0
C1359 C 0.91292 0.11703 0.27608 0.0
C1360 C 0.93448 0.13326 0.26074 0.0
C1361 C 0.93812 0.15738 0.28829 0.0
H1362 H 0.58189 0.2087 0.04273 0.0
H1363 H 0.63962 0.14988 0.99727 0.0
H1364 H 0.62899 0.12457 0.0812 0.0
H1365 H 0.59208 0.21035 0.18057 0.0
H1366 H 0.5582 0.21241 0.20208 0.0
H1367 H 0.56778 0.22465 0.1357 0.0
H1368 H 0.53373 0.19436 0.0883 0.0
H1369 H 0.52331 0.18198 0.15403 0.0
H1370 H 0.53406 0.15947 0.10168 0.0
H1371 H 0.61488 0.10803 0.17396 0.0
H1372 H 0.59246 0.09657 0.26047 0.0
H1373 H 0.54334 0.16604 0.24475 0.0
C1374 C 0.59096 0.18964 0.04839 0.0
C1375 C 0.61068 0.18059 0.01209 0.0
C1376 C 0.62384 0.15663 0.02368 0.0
C1377 C 0.61818 0.14236 0.07159 0.0
C1378 C 0.59929 0.15235 0.10754 0.0
C1379 C 0.58532 0.17503 0.09579 0.0
C1380 C 0.566 0.18148 0.14137 0.0
C1381 C 0.57135 0.20884 0.16638 0.0
C1382 C 0.5376 0.17923 0.12012 0.0
C1383 C 0.57212 0.15955 0.18168 0.0
C1384 C 0.59132 0.14294 0.16123 0.0
C1385 C 0.5997 0.12082 0.19017 0.0
C1386 C 0.58701 0.11464 0.23966 0.0
C1387 C 0.56602 0.1304 0.25983 0.0
C1388 C 0.55937 0.15375 0.23131 0.0
H1389 H 0.57775 0.88295 0.78868 0.0
H1390 H 0.52026 0.82249 0.75313 0.0
H1391 H 0.53737 0.79523 0.82785 0.0
H1392 H 0.6319 0.83983 0.83898 0.0
H1393 H 0.64026 0.86172 0.89462 0.0
H1394 H 0.62664 0.87485 0.8321 0.0
H1395 H 0.58967 0.89734 0.88827 0.0
H1396 H 0.6029 0.88391 0.95084 0.0
H1397 H 0.56914 0.8776 0.93248 0.0
H1398 H 0.55906 0.77508 0.90581 0.0
H1399 H 0.5825 0.76324 0.98991 0.0
H1400 H 0.62421 0.83781 0.98626 0.0
C1401 C 0.56966 0.86345 0.79538 0.0
C1402 C 0.54924 0.85357 0.76145 0.0
C1403 C 0.53771 0.82899 0.77428 0.0
C1404 C 0.54685 0.81373 0.81786 0.0
C1405 C 0.56711 0.82372 0.84988 0.0
C1406 C 0.57837 0.84804 0.83989 0.0
C1407 C 0.598 0.85495 0.88492 0.0
C1408 C 0.62586 0.85801 0.86123 0.0
C1409 C 0.58941 0.87993 0.91596 0.0
C1410 C 0.5959 0.83063 0.92131 0.0
C1411 C 0.57791 0.81304 0.89972 0.0
C1412 C 0.57248 0.78899 0.92434 0.0
C1413 C 0.58556 0.78266 0.97274 0.0
C1414 C 0.6039 0.80024 0.99658 0.0
C1415 C 0.60953 0.82446 0.97002 0.0
H1416 H 0.54529 0.60984 0.84596 0.0
H1417 H 0.57634 0.65131 0.70457 0.0
H1418 H 0.60015 0.68182 0.7662 0.0
H1419 H 0.53561 0.662 0.93588 0.0
H1420 H 0.54778 0.64486 0.99562 0.0
H1421 H 0.53407 0.62649 0.93948 0.0
H1422 H 0.57769 0.59952 0.935 0.0
H1423 H 0.59107 0.61888 0.99045 0.0
H1424 H 0.60843 0.61672 0.92611 0.0
H1425 H 0.61404 0.71098 0.84041 0.0
H1426 H 0.62821 0.73262 0.9248 0.0
H1427 H 0.59269 0.67015 0.02203 0.0
C1428 C 0.55765 0.62492 0.82794 0.0
C1429 C 0.55814 0.62916 0.77049 0.0
C1430 C 0.57475 0.64879 0.74849 0.0
C1431 C 0.58844 0.66596 0.78312 0.0
C1432 C 0.58604 0.66244 0.83955 0.0
C1433 C 0.57203 0.64183 0.862 0.0
C1434 C 0.57358 0.64221 0.92428 0.0
C1435 C 0.54609 0.64405 0.95027 0.0
C1436 C 0.58858 0.61789 0.94521 0.0
C1437 C 0.58935 0.66728 0.93335 0.0
C1438 C 0.59619 0.6784 0.88344 0.0
C1439 C 0.60967 0.70204 0.87969 0.0
C1440 C 0.61764 0.71412 0.92808 0.0
C1441 C 0.61245 0.70252 0.98 0.0
C1442 C 0.59736 0.67914 0.98293 0.0
H1443 H 0.56979 0.33759 0.26308 0.0
H1444 H 0.52884 0.39638 0.1653 0.0
H1445 H 0.54834 0.37823 0.08176 0.0
H1446 H 0.63104 0.33956 0.17366 0.0
H1447 H 0.63715 0.30483 0.1828 0.0
H1448 H 0.62171 0.3236 0.23681 0.0
H1449 H 0.58383 0.29013 0.23686 0.0
H1450 H 0.59764 0.27193 0.18061 0.0
H1451 H 0.56475 0.28488 0.17519 0.0
H1452 H 0.56608 0.35009 0.00746 0.0
H1453 H 0.5887 0.31791 0.94733 0.0
H1454 H 0.62185 0.27993 0.09103 0.0
C1455 C 0.56564 0.34715 0.22434 0.0
C1456 C 0.54747 0.36828 0.22109 0.0
C1457 C 0.54242 0.38003 0.16925 0.0
C1458 C 0.55338 0.36986 0.12121 0.0
C1459 C 0.57012 0.34838 0.12535 0.0
C1460 C 0.57705 0.33762 0.1755 0.0
C1461 C 0.59587 0.31466 0.16738 0.0
C1462 C 0.62305 0.32105 0.19161 0.0
C1463 C 0.58479 0.28889 0.19142 0.0
C1464 C 0.59703 0.31355 0.10523 0.0
C1465 C 0.58201 0.33316 0.08182 0.0
C1466 C 0.57855 0.33504 0.02515 0.0
C1467 C 0.5913 0.31664 0.99134 0.0
C1468 C 0.60738 0.29681 0.01445 0.0
C1469 C 0.61021 0.29533 0.07213 0.0
H1470 H 0.94985 0.37818 0.34848 0.0
H1471 H 0.91663 0.34145 0.20295 0.0
H1472 H 0.88847 0.31376 0.26174 0.0
H1473 H 0.9548 0.32079 0.42528 0.0
H1474 H 0.94642 0.33549 0.49035 0.0
H1475 H 0.96144 0.35523 0.43757 0.0
H1476 H 0.92265 0.38834 0.44173 0.0
H1477 H 0.90764 0.36895 0.49524 0.0
H1478 H 0.88945 0.37646 0.43376 0.0
H1479 H 0.86778 0.28764 0.33337 0.0
H1480 H 0.85272 0.26477 0.41548 0.0
H1481 H 0.89971 0.31708 0.51758 0.0
C1482 C 0.93607 0.3649 0.32883 0.0
C1483 C 0.93519 0.36214 0.27103 0.0
C1484 C 0.91744 0.34403 0.24704 0.0
C1485 C 0.90143 0.32821 0.28007 0.0
C1486 C 0.90349 0.33081 0.3368 0.0
C1487 C 0.92015 0.34877 0.36119 0.0
C1488 C 0.91982 0.34615 0.42324 0.0
C1489 C 0.94725 0.33898 0.44538 0.0
C1490 C 0.90925 0.37148 0.45008 0.0
C1491 C 0.90065 0.32348 0.42977 0.0
C1492 C 0.89147 0.31524 0.37913 0.0
C1493 C 0.87433 0.29421 0.37334 0.0
C1494 C 0.86583 0.28144 0.42056 0.0
C1495 C 0.87449 0.28957 0.47332 0.0
C1496 C 0.89244 0.31073 0.47797 0.0
H1497 H 0.92873 0.65779 0.76511 0.0
H1498 H 0.95282 0.58687 0.67781 0.0
H1499 H 0.93078 0.60253 0.59521 0.0
H1500 H 0.86307 0.66249 0.69378 0.0
H1501 H 0.86411 0.69803 0.69236 0.0
H1502 H 0.87961 0.68032 0.74769 0.0
H1503 H 0.92254 0.70503 0.72648 0.0
H1504 H 0.90839 0.7217 0.6687 0.0
H1505 H 0.93749 0.7019 0.65947 0.0
H1506 H 0.91302 0.62844 0.51749 0.0
H1507 H 0.89315 0.66072 0.45339 0.0
H1508 H 0.87708 0.71298 0.5905 0.0
C1509 C 0.92889 0.64534 0.72902 0.0
C1510 C 0.94304 0.6213 0.72822 0.0
C1511 C 0.94247 0.60552 0.67996 0.0
C1512 C 0.92999 0.6142 0.63238 0.0
C1513 C 0.91742 0.63845 0.6336 0.0
C1514 C 0.91601 0.65354 0.6809 0.0
C1515 C 0.90129 0.67904 0.67006 0.0
C1516 C 0.87548 0.68001 0.70293 0.0
C1517 C 0.9185 0.70333 0.68189 0.0
C1518 C 0.89595 0.67623 0.60917 0.0
C1519 C 0.90547 0.65271 0.58888 0.0
C1520 C 0.9048 0.64668 0.53298 0.0
C1521 C 0.89367 0.66511 0.49688 0.0
C1522 C 0.88313 0.68898 0.51719 0.0
C1523 C 0.88435 0.69451 0.57403 0.0
H1524 H 0.40642 0.3442 0.27048 0.0
H1525 H 0.48735 0.3444 0.21362 0.0
H1526 H 0.47276 0.33137 0.12146 0.0
H1527 H 0.38608 0.28402 0.18673 0.0
H1528 H 0.35387 0.29769 0.1776 0.0
H1529 H 0.37224 0.30559 0.2385 0.0
H1530 H 0.36414 0.35519 0.21225 0.0
H1531 H 0.34846 0.34571 0.14892 0.0
H1532 H 0.37662 0.36729 0.1477 0.0
H1533 H 0.44872 0.32704 0.03327 0.0
H1534 H 0.41948 0.31214 0.95776 0.0
H1535 H 0.35586 0.30353 0.07409 0.0
C1536 C 0.42099 0.34081 0.23885 0.0
C1537 C 0.44802 0.34551 0.24901 0.0
C1538 C 0.4666 0.34097 0.20672 0.0
C1539 C 0.45849 0.33381 0.15404 0.0
C1540 C 0.43173 0.33041 0.1446 0.0
C1541 C 0.4133 0.3323 0.18618 0.0
C1542 C 0.38593 0.32583 0.16443 0.0
C1543 C 0.37389 0.30186 0.19371 0.0
C1544 C 0.36772 0.34995 0.16859 0.0
C1545 C 0.39225 0.31952 0.10491 0.0
C1546 C 0.4185 0.32368 0.09413 0.0
C1547 C 0.42862 0.32188 0.04134 0.0
C1548 C 0.41214 0.31299 0.99922 0.0
C1549 C 0.38646 0.3043 0.01096 0.0
C1550 C 0.37582 0.30914 0.06394 0.0
H1551 H 0.39095 0.72442 0.92777 0.0
H1552 H 0.39257 0.66631 0.05807 0.0
H1553 H 0.40983 0.63307 0.99229 0.0
H1554 H 0.37378 0.68123 0.81406 0.0
H1555 H 0.39561 0.69776 0.76695 0.0
H1556 H 0.38098 0.71579 0.82296 0.0
H1557 H 0.4269 0.73 0.85736 0.0
H1558 H 0.44142 0.71252 0.80119 0.0
H1559 H 0.45143 0.70513 0.87061 0.0
H1560 H 0.42389 0.60625 0.91127 0.0
H1561 H 0.44429 0.58887 0.82851 0.0
H1562 H 0.43998 0.66637 0.75209 0.0
C1563 C 0.39466 0.70457 0.94227 0.0
C1564 C 0.39006 0.69763 0.99755 0.0
C1565 C 0.39587 0.67183 0.0157 0.0
C1566 C 0.40538 0.65287 0.97854 0.0
C1567 C 0.40923 0.66029 0.92388 0.0
C1568 C 0.40455 0.68563 0.90615 0.0
C1569 C 0.41305 0.68939 0.84711 0.0
C1570 C 0.38944 0.69646 0.81061 0.0
C1571 C 0.43454 0.71051 0.84392 0.0
C1572 C 0.42358 0.66208 0.83386 0.0
C1573 C 0.42019 0.64551 0.87848 0.0
C1574 C 0.42707 0.61911 0.87646 0.0
C1575 C 0.43866 0.60947 0.82859 0.0
C1576 C 0.44431 0.62625 0.78315 0.0
C1577 C 0.43614 0.65296 0.78571 0.0
H1578 H 0.13809 0.69593 0.58666 0.0
H1579 H 0.07847 0.68581 0.46077 0.0
H1580 H 0.05099 0.66121 0.52636 0.0
H1581 H 0.12588 0.62962 0.65415 0.0
H1582 H 0.13274 0.64332 0.72095 0.0
H1583 H 0.14914 0.65625 0.66114 0.0
H1584 H 0.13342 0.7018 0.68948 0.0
H1585 H 0.11307 0.6906 0.74541 0.0
H1586 H 0.09887 0.70906 0.68912 0.0
H1587 H 0.02611 0.64726 0.60853 0.0
H1588 H 0.01009 0.63077 0.69753 0.0
H1589 H 0.08607 0.6469 0.77113 0.0
C1590 C 0.1195 0.68806 0.57244 0.0
C1591 C 0.11021 0.69332 0.5188 0.0
C1592 C 0.08579 0.68261 0.50195 0.0
C1593 C 0.06991 0.66881 0.53901 0.0
C1594 C 0.07875 0.66579 0.59262 0.0
C1595 C 0.10344 0.67395 0.60878 0.0
C1596 C 0.10796 0.66829 0.66919 0.0
C1597 C 0.13025 0.64816 0.6768 0.0
C1598 C 0.11368 0.69395 0.70038 0.0
C1599 C 0.08146 0.65668 0.68499 0.0
C1600 C 0.06496 0.65568 0.63988 0.0
C1601 C 0.03904 0.64717 0.64378 0.0
C1602 C 0.03008 0.63809 0.69449 0.0
C1603 C 0.04698 0.63737 0.74053 0.0
C1604 C 0.0729 0.64717 0.73625 0.0
H1605 H 0.07497 0.38338 0.29996 0.0
H1606 H 0.01598 0.32339 0.2743 0.0
H1607 H 0.03708 0.2949 0.3423 0.0
H1608 H 0.13139 0.34134 0.34174 0.0
H1609 H 0.14074 0.36256 0.3978 0.0
H1610 H 0.12517 0.3763 0.33784 0.0
H1611 H 0.08906 0.39699 0.3992 0.0
H1612 H 0.10443 0.38324 0.45927 0.0
H1613 H 0.07038 0.37615 0.44477 0.0
H1614 H 0.06638 0.27174 0.40538 0.0
H1615 H 0.09264 0.25945 0.48568 0.0
H1616 H 0.12501 0.3384 0.4942 0.0
C1617 C 0.06726 0.36379 0.30735 0.0
C1618 C 0.0457 0.35392 0.27663 0.0
C1619 C 0.03453 0.32947 0.29139 0.0
C1620 C 0.04601 0.31353 0.33119 0.0
C1621 C 0.06792 0.32308 0.35864 0.0
C1622 C 0.07787 0.34802 0.34939 0.0
C1623 C 0.09843 0.35493 0.39254 0.0
C1624 C 0.12554 0.35902 0.36587 0.0
C1625 C 0.09006 0.37927 0.42593 0.0
C1626 C 0.09803 0.33002 0.42739 0.0
C1627 C 0.08099 0.31171 0.40505 0.0
C1628 C 0.07865 0.2863 0.42537 0.0
C1629 C 0.09315 0.27971 0.4717 0.0
C1630 C 0.10844 0.29877 0.49956 0.0
C1631 C 0.11197 0.32402 0.47577 0.0
loop_
_geom_bond_atom_site_label_1
_geom_bond_atom_site_label_2
_geom_bond_distance
_geom_bond_site_symmetry_2
_ccdc_geom_bond_type
O0 Mn1 2.163 . S
O0 C14 1.244 . S
Mn1 O0 2.163 . S
Mn1 O4 2.160 1_455 S
Mn1 O5 2.221 1_455 S
Mn1 O7 2.163 . S
Mn1 O9 2.160 1_455 S
Mn1 O19 2.221 1_455 S
O2 Mn3 2.087 . S
O2 C14 1.256 . S
Mn3 O2 2.087 . S
Mn3 O10 2.083 1_454 S
Mn3 O19 2.289 1_455 S
Mn3 O20 2.251 . S
O4 Mn1 2.160 1_655 S
O4 C15 1.239 . S
O5 Mn1 2.221 1_655 S
O5 Mn6 2.288 1_655 S
O5 C16 1.268 1_655 S
Mn6 O5 2.288 1_455 S
Mn6 O8 2.089 1_455 S
Mn6 O11 2.251 . S
Mn6 O12 2.087 . S
O7 Mn1 2.163 . S
O7 C17 1.244 . S
O8 Mn6 2.089 1_655 S
O8 C15 1.256 . S
O9 Mn1 2.160 1_655 S
O9 C18 1.239 . S
O10 Mn3 2.083 1_656 S
O10 C18 1.249 1_556 S
O11 Mn6 2.251 . S
O11 C16 1.241 . S
O12 Mn6 2.087 . S
O12 C17 1.256 . S
C13 O19 1.274 1_455 S
C13 O20 1.241 . S
C14 O0 1.244 . S
C14 O2 1.256 . S
C15 O4 1.239 . S
C15 O8 1.256 . S
C16 O5 1.268 1_455 S
C16 O11 1.241 . S
C17 O7 1.244 . S
C17 O12 1.256 . S
C18 O9 1.239 . S
C18 O10 1.249 1_554 S
O19 Mn1 2.221 1_655 S
O19 Mn3 2.289 1_655 S
O19 C13 1.274 1_655 S
O20 Mn3 2.251 . S
O20 C13 1.241 . S
O21 Mn22 2.163 . S
O21 C35 1.244 . S
Mn22 O21 2.163 . S
Mn22 O25 2.160 . S
Mn22 O26 2.221 . S
Mn22 O28 2.163 . S
Mn22 O30 2.160 . S
Mn22 O40 2.221 . S
O23 Mn24 2.087 . S
O23 C35 1.256 . S
Mn24 O23 2.087 . S
Mn24 O31 2.089 . S
Mn24 O40 2.290 . S
Mn24 O41 2.251 . S
O25 Mn22 2.160 . S
O25 C36 1.239 . S
O26 Mn22 2.221 . S
O26 Mn27 2.290 . S
O26 C37 1.278 . S
Mn27 O26 2.290 . S
Mn27 O29 2.089 . S
Mn27 O32 2.251 . S
Mn27 O33 2.087 . S
O28 Mn22 2.163 . S
O28 C38 1.244 . S
O29 Mn27 2.089 . S
O29 C36 1.256 . S
O30 Mn22 2.160 . S
O30 C39 1.239 . S
O31 Mn24 2.089 . S
O31 C39 1.256 . S
O32 Mn27 2.251 . S
O32 C37 1.241 . S
O33 Mn27 2.087 . S
O33 C38 1.256 . S
C34 O40 1.278 . S
C34 O41 1.241 . S
C35 O21 1.244 . S
C35 O23 1.256 . S
C36 O25 1.239 . S
C36 O29 1.256 . S
C37 O26 1.278 . S
C37 O32 1.241 . S
C38 O28 1.244 . S
C38 O33 1.256 . S
C39 O30 1.239 . S
C39 O31 1.256 . S
O40 Mn22 2.221 . S
O40 Mn24 2.290 . S
O40 C34 1.278 . S
O41 Mn24 2.251 . S
O41 C34 1.241 . S
O42 Mn43 2.163 . S
O42 C56 1.244 . S
Mn43 O42 2.163 . S
Mn43 O46 2.160 . S
Mn43 O47 2.221 . S
Mn43 O49 2.163 . S
Mn43 O51 2.160 . S
Mn43 O61 2.221 . S
O44 Mn45 2.087 . S
O44 C56 1.256 . S
Mn45 O44 2.087 . S
Mn45 O52 2.089 . S
Mn45 O61 2.290 . S
Mn45 O62 2.251 . S
O46 Mn43 2.160 . S
O46 C57 1.239 . S
O47 Mn43 2.221 . S
O47 Mn48 2.290 . S
O47 C58 1.278 . S
Mn48 O47 2.290 . S
Mn48 O50 2.089 . S
Mn48 O53 2.251 . S
Mn48 O54 2.087 . S
O49 Mn43 2.163 . S
O49 C59 1.244 . S
O50 Mn48 2.089 . S
O50 C57 1.256 . S
O51 Mn43 2.160 . S
O51 C60 1.239 . S
O52 Mn45 2.089 . S
O52 C60 1.256 . S
O53 Mn48 2.251 . S
O53 C58 1.241 . S
O54 Mn48 2.087 . S
O54 C59 1.256 . S
C55 O61 1.278 . S
C55 O62 1.241 . S
C56 O42 1.244 . S
C56 O44 1.256 . S
C57 O46 1.239 . S
C57 O50 1.256 . S
C58 O47 1.278 . S
C58 O53 1.241 . S
C59 O49 1.244 . S
C59 O54 1.256 . S
C60 O51 1.239 . S
C60 O52 1.256 . S
O61 Mn43 2.221 . S
O61 Mn45 2.290 . S
O61 C55 1.278 . S
O62 Mn45 2.251 . S
O62 C55 1.241 . S
O63 Mn64 2.163 . S
O63 C77 1.244 . S
Mn64 O63 2.163 . S
Mn64 O67 2.160 . S
Mn64 O68 2.221 . S
Mn64 O70 2.163 . S
Mn64 O72 2.160 . S
Mn64 O82 2.221 . S
O65 Mn66 2.087 . S
O65 C77 1.256 . S
Mn66 O65 2.087 . S
Mn66 O73 2.089 . S
Mn66 O82 2.290 . S
Mn66 O83 2.251 . S
O67 Mn64 2.160 . S
O67 C78 1.239 . S
O68 Mn64 2.221 . S
O68 Mn69 2.290 . S
O68 C79 1.278 . S
Mn69 O68 2.290 . S
Mn69 O71 2.089 1_556 S
Mn69 O74 2.251 . S
Mn69 O75 2.087 . S
O70 Mn64 2.163 . S
O70 C80 1.244 . S
O71 Mn69 2.089 1_554 S
O71 C78 1.256 1_554 S
O72 Mn64 2.160 . S
O72 C81 1.239 . S
O73 Mn66 2.089 . S
O73 C81 1.256 . S
O74 Mn69 2.251 . S
O74 C79 1.241 . S
O75 Mn69 2.087 . S
O75 C80 1.256 . S
C76 O82 1.278 . S
C76 O83 1.241 . S
C77 O63 1.244 . S
C77 O65 1.256 . S
C78 O67 1.239 . S
C78 O71 1.256 1_556 S
C79 O68 1.278 . S
C79 O74 1.241 . S
C80 O70 1.244 . S
C80 O75 1.256 . S
C81 O72 1.239 . S
C81 O73 1.256 . S
O82 Mn64 2.221 . S
O82 Mn66 2.290 . S
O82 C76 1.278 . S
O83 Mn66 2.251 . S
O83 C76 1.241 . S
O84 Mn85 2.163 . S
O84 C98 1.244 . S
Mn85 O84 2.163 . S
Mn85 O88 2.160 1_455 S
Mn85 O89 2.221 1_455 S
Mn85 O91 2.163 . S
Mn85 O93 2.160 1_455 S
Mn85 O103 2.221 1_455 S
O86 Mn87 2.087 . S
O86 C98 1.256 . S
Mn87 O86 2.087 . S
Mn87 O94 2.083 1_456 S
Mn87 O103 2.289 1_455 S
Mn87 O104 2.251 . S
O88 Mn85 2.160 1_655 S
O88 C99 1.239 . S
O89 Mn85 2.221 1_655 S
O89 Mn90 2.288 1_655 S
O89 C100 1.268 1_655 S
Mn90 O89 2.288 1_455 S
Mn90 O92 2.089 1_455 S
Mn90 O95 2.251 . S
Mn90 O96 2.087 . S
O91 Mn85 2.163 . S
O91 C101 1.244 . S
O92 Mn90 2.089 1_655 S
O92 C99 1.256 . S
O93 Mn85 2.160 1_655 S
O93 C102 1.239 . S
O94 Mn87 2.083 1_654 S
O94 C102 1.249 1_554 S
O95 Mn90 2.251 . S
O95 C100 1.241 . S
O96 Mn90 2.087 . S
O96 C101 1.256 . S
C97 O103 1.274 1_455 S
C97 O104 1.241 . S
C98 O84 1.244 . S
C98 O86 1.256 . S
C99 O88 1.239 . S
C99 O92 1.256 . S
C100 O89 1.268 1_455 S
C100 O95 1.241 . S
C101 O91 1.244 . S
C101 O96 1.256 . S
C102 O93 1.239 . S
C102 O94 1.249 1_556 S
O103 Mn85 2.221 1_655 S
O103 Mn87 2.289 1_655 S
O103 C97 1.274 1_655 S
O104 Mn87 2.251 . S
O104 C97 1.241 . S
O105 Mn106 2.163 . S
O105 C119 1.244 . S
Mn106 O105 2.163 . S
Mn106 O109 2.160 . S
Mn106 O110 2.221 . S
Mn106 O112 2.163 . S
Mn106 O114 2.160 . S
Mn106 O124 2.221 . S
O107 Mn108 2.087 . S
O107 C119 1.256 . S
Mn108 O107 2.087 . S
Mn108 O115 2.089 . S
Mn108 O124 2.290 . S
Mn108 O125 2.251 . S
O109 Mn106 2.160 . S
O109 C120 1.239 . S
O110 Mn106 2.221 . S
O110 Mn111 2.290 . S
O110 C121 1.278 . S
Mn111 O110 2.290 . S
Mn111 O113 2.089 1_554 S
Mn111 O116 2.251 . S
Mn111 O117 2.087 . S
O112 Mn106 2.163 . S
O112 C122 1.244 . S
O113 Mn111 2.089 1_556 S
O113 C120 1.256 1_556 S
O114 Mn106 2.160 . S
O114 C123 1.239 . S
O115 Mn108 2.089 . S
O115 C123 1.256 . S
O116 Mn111 2.251 . S
O116 C121 1.241 . S
O117 Mn111 2.087 . S
O117 C122 1.256 . S
C118 O124 1.278 . S
C118 O125 1.241 . S
C119 O105 1.244 . S
C119 O107 1.256 . S
C120 O109 1.239 . S
C120 O113 1.256 1_554 S
C121 O110 1.278 . S
C121 O116 1.241 . S
C122 O112 1.244 . S
C122 O117 1.256 . S
C123 O114 1.239 . S
C123 O115 1.256 . S
O124 Mn106 2.221 . S
O124 Mn108 2.290 . S
O124 C118 1.278 . S
O125 Mn108 2.251 . S
O125 C118 1.241 . S
O126 Mn127 2.163 . S
O126 C140 1.244 . S
Mn127 O126 2.163 . S
Mn127 O130 2.160 . S
Mn127 O131 2.221 . S
Mn127 O133 2.163 . S
Mn127 O135 2.160 . S
Mn127 O145 2.221 . S
O128 Mn129 2.087 . S
O128 C140 1.256 . S
Mn129 O128 2.087 . S
Mn129 O136 2.089 . S
Mn129 O145 2.290 . S
Mn129 O146 2.251 . S
O130 Mn127 2.160 . S
O130 C141 1.239 . S
O131 Mn127 2.221 . S
O131 Mn132 2.290 . S
O131 C142 1.278 . S
Mn132 O131 2.290 . S
Mn132 O134 2.089 . S
Mn132 O137 2.251 . S
Mn132 O138 2.087 . S
O133 Mn127 2.163 . S
O133 C143 1.244 . S
O134 Mn132 2.089 . S
O134 C141 1.256 . S
O135 Mn127 2.160 . S
O135 C144 1.239 . S
O136 Mn129 2.089 . S
O136 C144 1.256 . S
O137 Mn132 2.251 . S
O137 C142 1.241 . S
O138 Mn132 2.087 . S
O138 C143 1.256 . S
C139 O145 1.278 . S
C139 O146 1.241 . S
C140 O126 1.244 . S
C140 O128 1.256 . S
C141 O130 1.239 . S
C141 O134 1.256 . S
C142 O131 1.278 . S
C142 O137 1.241 . S
C143 O133 1.244 . S
C143 O138 1.256 . S
C144 O135 1.239 . S
C144 O136 1.256 . S
O145 Mn127 2.221 . S
O145 Mn129 2.290 . S
O145 C139 1.278 . S
O146 Mn129 2.251 . S
O146 C139 1.241 . S
O147 Mn148 2.163 . S
O147 C161 1.244 . S
Mn148 O147 2.163 . S
Mn148 O151 2.160 . S
Mn148 O152 2.221 . S
Mn148 O154 2.163 . S
Mn148 O156 2.160 . S
Mn148 O166 2.221 . S
O149 Mn150 2.087 . S
O149 C161 1.256 . S
Mn150 O149 2.087 . S
Mn150 O157 2.089 . S
Mn150 O166 2.290 . S
Mn150 O167 2.251 . S
O151 Mn148 2.160 . S
O151 C162 1.239 . S
O152 Mn148 2.221 . S
O152 Mn153 2.290 . S
O152 C163 1.278 . S
Mn153 O152 2.290 . S
Mn153 O155 2.089 . S
Mn153 O158 2.251 . S
Mn153 O159 2.087 . S
O154 Mn148 2.163 . S
O154 C164 1.244 . S
O155 Mn153 2.089 . S
O155 C162 1.256 . S
O156 Mn148 2.160 . S
O156 C165 1.239 . S
O157 Mn150 2.089 . S
O157 C165 1.256 . S
O158 Mn153 2.251 . S
O158 C163 1.241 . S
O159 Mn153 2.087 . S
O159 C164 1.256 . S
C160 O166 1.278 . S
C160 O167 1.241 . S
C161 O147 1.244 . S
C161 O149 1.256 . S
C162 O151 1.239 . S
C162 O155 1.256 . S
C163 O152 1.278 . S
C163 O158 1.241 . S
C164 O154 1.244 . S
C164 O159 1.256 . S
C165 O156 1.239 . S
C165 O157 1.256 . S
O166 Mn148 2.221 . S
O166 Mn150 2.290 . S
O166 C160 1.278 . S
O167 Mn150 2.251 . S
O167 C160 1.241 . S
O168 Mn169 2.163 . S
O168 C182 1.244 . S
Mn169 O168 2.163 . S
Mn169 O172 2.160 . S
Mn169 O173 2.221 . S
Mn169 O175 2.163 . S
Mn169 O177 2.160 . S
Mn169 O187 2.221 . S
O170 Mn171 2.087 . S
O170 C182 1.256 . S
Mn171 O170 2.087 . S
Mn171 O178 2.089 . S
Mn171 O187 2.290 . S
Mn171 O188 2.251 . S
O172 Mn169 2.160 . S
O172 C183 1.239 . S
O173 Mn169 2.221 . S
O173 Mn174 2.290 . S
O173 C184 1.278 . S
Mn174 O173 2.290 . S
Mn174 O176 2.089 . S
Mn174 O179 2.251 . S
Mn174 O180 2.087 . S
O175 Mn169 2.163 . S
O175 C185 1.244 . S
O176 Mn174 2.089 . S
O176 C183 1.256 . S
O177 Mn169 2.160 . S
O177 C186 1.239 . S
O178 Mn171 2.089 . S
O178 C186 1.256 . S
O179 Mn174 2.251 . S
O179 C184 1.241 . S
O180 Mn174 2.087 . S
O180 C185 1.256 . S
C181 O187 1.278 . S
C181 O188 1.241 . S
C182 O168 1.244 . S
C182 O170 1.256 . S
C183 O172 1.239 . S
C183 O176 1.256 . S
C184 O173 1.278 . S
C184 O179 1.241 . S
C185 O175 1.244 . S
C185 O180 1.256 . S
C186 O177 1.239 . S
C186 O178 1.256 . S
O187 Mn169 2.221 . S
O187 Mn171 2.290 . S
O187 C181 1.278 . S
O188 Mn171 2.251 . S
O188 C181 1.241 . S
O189 Mn190 2.163 . S
O189 C203 1.244 . S
Mn190 O189 2.163 . S
Mn190 O193 2.160 . S
Mn190 O194 2.221 . S
Mn190 O196 2.163 . S
Mn190 O198 2.160 . S
Mn190 O208 2.221 . S
O191 Mn192 2.087 . S
O191 C203 1.256 . S
Mn192 O191 2.087 . S
Mn192 O199 2.089 1_554 S
Mn192 O208 2.290 . S
Mn192 O209 2.251 . S
O193 Mn190 2.160 . S
O193 C204 1.239 . S
O194 Mn190 2.221 . S
O194 Mn195 2.290 . S
O194 C205 1.278 . S
Mn195 O194 2.290 . S
Mn195 O197 2.089 . S
Mn195 O200 2.251 . S
Mn195 O201 2.087 . S
O196 Mn190 2.163 . S
O196 C206 1.244 . S
O197 Mn195 2.089 . S
O197 C204 1.256 . S
O198 Mn190 2.160 . S
O198 C207 1.239 . S
O199 Mn192 2.089 1_556 S
O199 C207 1.256 1_556 S
O200 Mn195 2.251 . S
O200 C205 1.241 . S
O201 Mn195 2.087 . S
O201 C206 1.256 . S
C202 O208 1.278 . S
C202 O209 1.241 . S
C203 O189 1.244 . S
C203 O191 1.256 . S
C204 O193 1.239 . S
C204 O197 1.256 . S
C205 O194 1.278 . S
C205 O200 1.241 . S
C206 O196 1.244 . S
C206 O201 1.256 . S
C207 O198 1.239 . S
C207 O199 1.256 1_554 S
O208 Mn190 2.221 . S
O208 Mn192 2.290 . S
O208 C202 1.278 . S
O209 Mn192 2.251 . S
O209 C202 1.241 . S
O210 Mn211 2.163 . S
O210 C224 1.244 . S
Mn211 O210 2.163 . S
Mn211 O214 2.160 . S
Mn211 O215 2.221 . S
Mn211 O217 2.163 . S
Mn211 O219 2.160 . S
Mn211 O229 2.221 . S
O212 Mn213 2.087 . S
O212 C224 1.256 . S
Mn213 O212 2.087 . S
Mn213 O220 2.089 1_556 S
Mn213 O229 2.290 . S
Mn213 O230 2.251 . S
O214 Mn211 2.160 . S
O214 C225 1.239 . S
O215 Mn211 2.221 . S
O215 Mn216 2.290 . S
O215 C226 1.278 . S
Mn216 O215 2.290 . S
Mn216 O218 2.089 . S
Mn216 O221 2.251 . S
Mn216 O222 2.087 . S
O217 Mn211 2.163 . S
O217 C227 1.244 . S
O218 Mn216 2.089 . S
O218 C225 1.256 . S
O219 Mn211 2.160 . S
O219 C228 1.239 . S
O220 Mn213 2.089 1_554 S
O220 C228 1.256 1_554 S
O221 Mn216 2.251 . S
O221 C226 1.241 . S
O222 Mn216 2.087 . S
O222 C227 1.256 . S
C223 O229 1.278 . S
C223 O230 1.241 . S
C224 O210 1.244 . S
C224 O212 1.256 . S
C225 O214 1.239 . S
C225 O218 1.256 . S
C226 O215 1.278 . S
C226 O221 1.241 . S
C227 O217 1.244 . S
C227 O222 1.256 . S
C228 O219 1.239 . S
C228 O220 1.256 1_556 S
O229 Mn211 2.221 . S
O229 Mn213 2.290 . S
O229 C223 1.278 . S
O230 Mn213 2.251 . S
O230 C223 1.241 . S
O231 Mn232 2.163 . S
O231 C245 1.244 . S
Mn232 O231 2.163 . S
Mn232 O235 2.160 . S
Mn232 O236 2.221 . S
Mn232 O238 2.163 . S
Mn232 O240 2.160 . S
Mn232 O250 2.221 . S
O233 Mn234 2.087 . S
O233 C245 1.256 . S
Mn234 O233 2.087 . S
Mn234 O241 2.089 . S
Mn234 O250 2.290 . S
Mn234 O251 2.251 . S
O235 Mn232 2.160 . S
O235 C246 1.239 . S
O236 Mn232 2.221 . S
O236 Mn237 2.290 . S
O236 C247 1.278 . S
Mn237 O236 2.290 . S
Mn237 O239 2.089 . S
Mn237 O242 2.251 . S
Mn237 O243 2.087 . S
O238 Mn232 2.163 . S
O238 C248 1.244 . S
O239 Mn237 2.089 . S
O239 C246 1.256 . S
O240 Mn232 2.160 . S
O240 C249 1.239 . S
O241 Mn234 2.089 . S
O241 C249 1.256 . S
O242 Mn237 2.251 . S
O242 C247 1.241 . S
O243 Mn237 2.087 . S
O243 C248 1.256 . S
C244 O250 1.278 . S
C244 O251 1.241 . S
C245 O231 1.244 . S
C245 O233 1.256 . S
C246 O235 1.239 . S
C246 O239 1.256 . S
C247 O236 1.278 . S
C247 O242 1.241 . S
C248 O238 1.244 . S
C248 O243 1.256 . S
C249 O240 1.239 . S
C249 O241 1.256 . S
O250 Mn232 2.221 . S
O250 Mn234 2.290 . S
O250 C244 1.278 . S
O251 Mn234 2.251 . S
O251 C244 1.241 . S
O252 Mn253 2.163 . S
O252 C266 1.244 . S
Mn253 O252 2.163 . S
Mn253 O256 2.160 . S
Mn253 O257 2.221 . S
Mn253 O259 2.163 . S
Mn253 O261 2.160 . S
Mn253 O271 2.221 . S
O254 Mn255 2.087 . S
O254 C266 1.256 . S
Mn255 O254 2.087 . S
Mn255 O262 2.089 . S
Mn255 O271 2.290 . S
Mn255 O272 2.251 . S
O256 Mn253 2.160 . S
O256 C267 1.239 . S
O257 Mn253 2.221 . S
O257 Mn258 2.290 . S
O257 C268 1.278 . S
Mn258 O257 2.290 . S
Mn258 O260 2.089 . S
Mn258 O263 2.251 . S
Mn258 O264 2.087 . S
O259 Mn253 2.163 . S
O259 C269 1.244 . S
O260 Mn258 2.089 . S
O260 C267 1.256 . S
O261 Mn253 2.160 . S
O261 C270 1.239 . S
O262 Mn255 2.089 . S
O262 C270 1.256 . S
O263 Mn258 2.251 . S
O263 C268 1.241 . S
O264 Mn258 2.087 . S
O264 C269 1.256 . S
C265 O271 1.278 . S
C265 O272 1.241 . S
C266 O252 1.244 . S
C266 O254 1.256 . S
C267 O256 1.239 . S
C267 O260 1.256 . S
C268 O257 1.278 . S
C268 O263 1.241 . S
C269 O259 1.244 . S
C269 O264 1.256 . S
C270 O261 1.239 . S
C270 O262 1.256 . S
O271 Mn253 2.221 . S
O271 Mn255 2.290 . S
O271 C265 1.278 . S
O272 Mn255 2.251 . S
O272 C265 1.241 . S
O273 Mn274 2.163 1_655 S
O273 C287 1.244 . S
Mn274 O273 2.163 1_455 S
Mn274 O277 2.160 . S
Mn274 O278 2.221 . S
Mn274 O280 2.163 1_455 S
Mn274 O282 2.160 . S
Mn274 O292 2.221 . S
O275 Mn276 2.087 1_655 S
O275 C287 1.256 . S
Mn276 O275 2.087 1_455 S
Mn276 O283 2.083 1_554 S
Mn276 O292 2.290 . S
Mn276 O293 2.251 1_455 S
O277 Mn274 2.160 . S
O277 C288 1.239 . S
O278 Mn274 2.221 . S
O278 Mn279 2.290 . S
O278 C289 1.278 1_455 S
Mn279 O278 2.290 . S
Mn279 O281 2.089 . S
Mn279 O284 2.251 1_455 S
Mn279 O285 2.087 1_455 S
O280 Mn274 2.163 1_655 S
O280 C290 1.244 . S
O281 Mn279 2.089 . S
O281 C288 1.256 . S
O282 Mn274 2.160 . S
O282 C291 1.239 . S
O283 Mn276 2.083 1_556 S
O283 C291 1.249 1_556 S
O284 Mn279 2.251 1_655 S
O284 C289 1.241 . S
O285 Mn279 2.087 1_655 S
O285 C290 1.256 . S
C286 O292 1.278 1_655 S
C286 O293 1.241 . S
C287 O273 1.244 . S
C287 O275 1.256 . S
C288 O277 1.239 . S
C288 O281 1.256 . S
C289 O278 1.278 1_655 S
C289 O284 1.241 . S
C290 O280 1.244 . S
C290 O285 1.256 . S
C291 O282 1.239 . S
C291 O283 1.249 1_554 S
O292 Mn274 2.221 . S
O292 Mn276 2.290 . S
O292 C286 1.278 1_455 S
O293 Mn276 2.251 1_655 S
O293 C286 1.241 . S
O294 Mn295 2.163 . S
O294 C308 1.244 . S
Mn295 O294 2.163 . S
Mn295 O298 2.160 . S
Mn295 O299 2.221 . S
Mn295 O301 2.163 . S
Mn295 O303 2.160 . S
Mn295 O313 2.221 . S
O296 Mn297 2.087 . S
O296 C308 1.256 . S
Mn297 O296 2.087 . S
Mn297 O304 2.089 . S
Mn297 O313 2.290 . S
Mn297 O314 2.251 . S
O298 Mn295 2.160 . S
O298 C309 1.239 . S
O299 Mn295 2.221 . S
O299 Mn300 2.290 . S
O299 C310 1.278 . S
Mn300 O299 2.290 . S
Mn300 O302 2.089 . S
Mn300 O305 2.251 . S
Mn300 O306 2.087 . S
O301 Mn295 2.163 . S
O301 C311 1.244 . S
O302 Mn300 2.089 . S
O302 C309 1.256 . S
O303 Mn295 2.160 . S
O303 C312 1.239 . S
O304 Mn297 2.089 . S
O304 C312 1.256 . S
O305 Mn300 2.251 . S
O305 C310 1.241 . S
O306 Mn300 2.087 . S
O306 C311 1.256 . S
C307 O313 1.278 . S
C307 O314 1.241 . S
C308 O294 1.244 . S
C308 O296 1.256 . S
C309 O298 1.239 . S
C309 O302 1.256 . S
C310 O299 1.278 . S
C310 O305 1.241 . S
C311 O301 1.244 . S
C311 O306 1.256 . S
C312 O303 1.239 . S
C312 O304 1.256 . S
O313 Mn295 2.221 . S
O313 Mn297 2.290 . S
O313 C307 1.278 . S
O314 Mn297 2.251 . S
O314 C307 1.241 . S
O315 Mn316 2.163 1_655 S
O315 C329 1.244 . S
Mn316 O315 2.163 1_455 S
Mn316 O319 2.160 . S
Mn316 O320 2.221 . S
Mn316 O322 2.163 1_455 S
Mn316 O324 2.160 . S
Mn316 O334 2.221 . S
O317 Mn318 2.087 1_655 S
O317 C329 1.256 . S
Mn318 O317 2.087 1_455 S
Mn318 O325 2.083 1_556 S
Mn318 O334 2.290 . S
Mn318 O335 2.251 1_455 S
O319 Mn316 2.160 . S
O319 C330 1.239 . S
O320 Mn316 2.221 . S
O320 Mn321 2.290 . S
O320 C331 1.278 1_455 S
Mn321 O320 2.290 . S
Mn321 O323 2.089 . S
Mn321 O326 2.251 1_455 S
Mn321 O327 2.087 1_455 S
O322 Mn316 2.163 1_655 S
O322 C332 1.244 . S
O323 Mn321 2.089 . S
O323 C330 1.256 . S
O324 Mn316 2.160 . S
O324 C333 1.239 . S
O325 Mn318 2.083 1_554 S
O325 C333 1.249 1_554 S
O326 Mn321 2.251 1_655 S
O326 C331 1.241 . S
O327 Mn321 2.087 1_655 S
O327 C332 1.256 . S
C328 O334 1.278 1_655 S
C328 O335 1.241 . S
C329 O315 1.244 . S
C329 O317 1.256 . S
C330 O319 1.239 . S
C330 O323 1.256 . S
C331 O320 1.278 1_655 S
C331 O326 1.241 . S
C332 O322 1.244 . S
C332 O327 1.256 . S
C333 O324 1.239 . S
C333 O325 1.249 1_556 S
O334 Mn316 2.221 . S
O334 Mn318 2.290 . S
O334 C328 1.278 1_455 S
O335 Mn318 2.251 1_655 S
O335 C328 1.241 . S
H336 C348 0.930 . S
H337 C350 0.930 1_554 S
H338 C351 0.930 . S
H339 C355 0.959 . S
H340 C355 0.959 . S
H341 C355 0.961 . S
H342 C356 0.960 . S
H343 C356 0.961 . S
H344 C356 0.959 . S
H345 C359 0.929 . S
H346 C360 0.931 . S
H347 C362 0.930 . S
C348 H336 0.930 . S
C348 C349 1.399 . S
C348 C353 1.399 . S
C349 C348 1.399 . S
C349 C350 1.376 . S
C350 H337 0.930 1_556 S
C350 C349 1.376 . S
C350 C351 1.388 . S
C351 H338 0.930 . S
C351 C350 1.388 . S
C351 C352 1.390 . S
C352 C351 1.390 . S
C352 C353 1.394 . S
C352 C358 1.465 . S
C353 C348 1.399 . S
C353 C352 1.394 . S
C353 C354 1.516 . S
C354 C353 1.516 . S
C354 C355 1.502 . S
C354 C356 1.561 . S
C354 C357 1.526 . S
C355 H339 0.959 . S
C355 H340 0.959 . S
C355 H341 0.961 . S
C355 C354 1.502 . S
C356 H342 0.960 . S
C356 H343 0.961 . S
C356 H344 0.959 . S
C356 C354 1.561 . S
C357 C354 1.526 . S
C357 C358 1.396 . S
C357 C362 1.390 . S
C358 C352 1.465 . S
C358 C357 1.396 . S
C358 C359 1.399 . S
C359 H345 0.929 . S
C359 C358 1.399 . S
C359 C360 1.385 . S
C360 H346 0.931 . S
C360 C359 1.385 . S
C360 C361 1.389 . S
C361 C360 1.389 . S
C361 C362 1.387 . S
C362 H347 0.930 . S
C362 C357 1.390 . S
C362 C361 1.387 . S
H363 C375 0.930 . S
H364 C377 0.930 . S
H365 C378 0.930 . S
H366 C382 0.959 . S
H367 C382 0.959 . S
H368 C382 0.961 . S
H369 C383 0.960 . S
H370 C383 0.961 . S
H371 C383 0.959 . S
H372 C386 0.929 . S
H373 C387 0.931 . S
H374 C389 0.930 . S
C375 H363 0.930 . S
C375 C376 1.399 . S
C375 C380 1.399 . S
C376 C375 1.399 . S
C376 C377 1.376 . S
C377 H364 0.930 . S
C377 C376 1.376 . S
C377 C378 1.388 . S
C378 H365 0.930 . S
C378 C377 1.388 . S
C378 C379 1.390 . S
C379 C378 1.390 . S
C379 C380 1.394 . S
C379 C385 1.465 . S
C380 C375 1.399 . S
C380 C379 1.394 . S
C380 C381 1.516 . S
C381 C380 1.516 . S
C381 C382 1.502 . S
C381 C383 1.561 . S
C381 C384 1.526 . S
C382 H366 0.959 . S
C382 H367 0.959 . S
C382 H368 0.961 . S
C382 C381 1.502 . S
C383 H369 0.960 . S
C383 H370 0.961 . S
C383 H371 0.959 . S
C383 C381 1.561 . S
C384 C381 1.526 . S
C384 C385 1.396 . S
C384 C389 1.390 . S
C385 C379 1.465 . S
C385 C384 1.396 . S
C385 C386 1.399 . S
C386 H372 0.929 . S
C386 C385 1.399 . S
C386 C387 1.385 . S
C387 H373 0.931 . S
C387 C386 1.385 . S
C387 C388 1.389 . S
C388 C387 1.389 . S
C388 C389 1.387 . S
C389 H374 0.930 . S
C389 C384 1.390 . S
C389 C388 1.387 . S
H390 C402 0.930 . S
H391 C404 0.930 . S
H392 C405 0.930 . S
H393 C409 0.959 . S
H394 C409 0.959 . S
H395 C409 0.961 . S
H396 C410 0.960 . S
H397 C410 0.961 . S
H398 C410 0.959 . S
H399 C413 0.929 . S
H400 C414 0.931 . S
H401 C416 0.930 . S
C402 H390 0.930 . S
C402 C403 1.399 . S
C402 C407 1.399 . S
C403 C402 1.399 . S
C403 C404 1.376 . S
C404 H391 0.930 . S
C404 C403 1.376 . S
C404 C405 1.388 . S
C405 H392 0.930 . S
C405 C404 1.388 . S
C405 C406 1.390 . S
C406 C405 1.390 . S
C406 C407 1.394 . S
C406 C412 1.465 . S
C407 C402 1.399 . S
C407 C406 1.394 . S
C407 C408 1.516 . S
C408 C407 1.516 . S
C408 C409 1.502 . S
C408 C410 1.561 . S
C408 C411 1.526 . S
C409 H393 0.959 . S
C409 H394 0.959 . S
C409 H395 0.961 . S
C409 C408 1.502 . S
C410 H396 0.960 . S
C410 H397 0.961 . S
C410 H398 0.959 . S
C410 C408 1.561 . S
C411 C408 1.526 . S
C411 C412 1.396 . S
C411 C416 1.390 . S
C412 C406 1.465 . S
C412 C411 1.396 . S
C412 C413 1.399 . S
C413 H399 0.929 . S
C413 C412 1.399 . S
C413 C414 1.385 . S
C414 H400 0.931 . S
C414 C413 1.385 . S
C414 C415 1.389 . S
C415 C414 1.389 . S
C415 C416 1.387 . S
C416 H401 0.930 . S
C416 C411 1.390 . S
C416 C415 1.387 . S
H417 C429 0.930 . S
H418 C431 0.930 . S
H419 C432 0.930 . S
H420 C436 0.959 . S
H421 C436 0.959 . S
H422 C436 0.961 . S
H423 C437 0.960 . S
H424 C437 0.961 . S
H425 C437 0.959 . S
H426 C440 0.929 . S
H427 C441 0.931 . S
H428 C443 0.930 . S
C429 H417 0.930 . S
C429 C430 1.399 . S
C429 C434 1.399 . S
C430 C429 1.399 . S
C430 C431 1.376 . S
C431 H418 0.930 . S
C431 C430 1.376 . S
C431 C432 1.388 . S
C432 H419 0.930 . S
C432 C431 1.388 . S
C432 C433 1.390 . S
C433 C432 1.390 . S
C433 C434 1.394 . S
C433 C439 1.465 . S
C434 C429 1.399 . S
C434 C433 1.394 . S
C434 C435 1.516 . S
C435 C434 1.516 . S
C435 C436 1.502 . S
C435 C437 1.561 . S
C435 C438 1.526 . S
C436 H420 0.959 . S
C436 H421 0.959 . S
C436 H422 0.961 . S
C436 C435 1.502 . S
C437 H423 0.960 . S
C437 H424 0.961 . S
C437 H425 0.959 . S
C437 C435 1.561 . S
C438 C435 1.526 . S
C438 C439 1.396 . S
C438 C443 1.390 . S
C439 C433 1.465 . S
C439 C438 1.396 . S
C439 C440 1.399 . S
C440 H426 0.929 . S
C440 C439 1.399 . S
C440 C441 1.385 . S
C441 H427 0.931 . S
C441 C440 1.385 . S
C441 C442 1.389 . S
C442 C441 1.389 . S
C442 C443 1.387 . S
C443 H428 0.930 . S
C443 C438 1.390 . S
C443 C442 1.387 . S
H444 C456 0.930 . S
H445 C458 0.930 . S
H446 C459 0.930 . S
H447 C463 0.959 . S
H448 C463 0.959 . S
H449 C463 0.961 . S
H450 C464 0.960 . S
H451 C464 0.961 . S
H452 C464 0.959 . S
H453 C467 0.929 . S
H454 C468 0.931 . S
H455 C470 0.930 . S
C456 H444 0.930 . S
C456 C457 1.399 . S
C456 C461 1.399 . S
C457 C456 1.399 . S
C457 C458 1.376 . S
C458 H445 0.930 . S
C458 C457 1.376 . S
C458 C459 1.388 . S
C459 H446 0.930 . S
C459 C458 1.388 . S
C459 C460 1.390 . S
C460 C459 1.390 . S
C460 C461 1.394 . S
C460 C466 1.465 . S
C461 C456 1.399 . S
C461 C460 1.394 . S
C461 C462 1.516 . S
C462 C461 1.516 . S
C462 C463 1.502 . S
C462 C464 1.561 . S
C462 C465 1.526 . S
C463 H447 0.959 . S
C463 H448 0.959 . S
C463 H449 0.961 . S
C463 C462 1.502 . S
C464 H450 0.960 . S
C464 H451 0.961 . S
C464 H452 0.959 . S
C464 C462 1.561 . S
C465 C462 1.526 . S
C465 C466 1.396 . S
C465 C470 1.390 . S
C466 C460 1.465 . S
C466 C465 1.396 . S
C466 C467 1.399 . S
C467 H453 0.929 . S
C467 C466 1.399 . S
C467 C468 1.385 1_554 S
C468 H454 0.931 . S
C468 C467 1.385 1_556 S
C468 C469 1.389 1_556 S
C469 C468 1.389 1_554 S
C469 C470 1.387 . S
C470 H455 0.930 . S
C470 C465 1.390 . S
C470 C469 1.387 . S
H471 C483 0.930 . S
H472 C485 0.930 . S
H473 C486 0.930 . S
H474 C490 0.959 . S
H475 C490 0.959 . S
H476 C490 0.961 . S
H477 C491 0.960 . S
H478 C491 0.961 . S
H479 C491 0.959 . S
H480 C494 0.929 . S
H481 C495 0.931 . S
H482 C497 0.930 . S
C483 H471 0.930 . S
C483 C484 1.399 . S
C483 C488 1.399 . S
C484 C483 1.399 . S
C484 C485 1.376 . S
C485 H472 0.930 . S
C485 C484 1.376 . S
C485 C486 1.388 . S
C486 H473 0.930 . S
C486 C485 1.388 . S
C486 C487 1.390 . S
C487 C486 1.390 . S
C487 C488 1.394 . S
C487 C493 1.465 . S
C488 C483 1.399 . S
C488 C487 1.394 . S
C488 C489 1.516 . S
C489 C488 1.516 . S
C489 C490 1.502 . S
C489 C491 1.561 . S
C489 C492 1.526 . S
C490 H474 0.959 . S
C490 H475 0.959 . S
C490 H476 0.961 . S
C490 C489 1.502 . S
C491 H477 0.960 . S
C491 H478 0.961 . S
C491 H479 0.959 . S
C491 C489 1.561 . S
C492 C489 1.526 . S
C492 C493 1.396 . S
C492 C497 1.390 . S
C493 C487 1.465 . S
C493 C492 1.396 . S
C493 C494 1.399 . S
C494 H480 0.929 . S
C494 C493 1.399 . S
C494 C495 1.385 . S
C495 H481 0.931 . S
C495 C494 1.385 . S
C495 C496 1.389 . S
C496 C495 1.389 . S
C496 C497 1.387 . S
C497 H482 0.930 . S
C497 C492 1.390 . S
C497 C496 1.387 . S
H498 C510 0.930 . S
H499 C512 0.930 . S
H500 C513 0.930 . S
H501 C517 0.959 . S
H502 C517 0.959 . S
H503 C517 0.961 . S
H504 C518 0.960 . S
H505 C518 0.961 . S
H506 C518 0.959 . S
H507 C521 0.929 . S
H508 C522 0.931 . S
H509 C524 0.930 . S
C510 H498 0.930 . S
C510 C511 1.399 . S
C510 C515 1.399 . S
C511 C510 1.399 . S
C511 C512 1.376 . S
C512 H499 0.930 . S
C512 C511 1.376 . S
C512 C513 1.388 . S
C513 H500 0.930 . S
C513 C512 1.388 . S
C513 C514 1.390 . S
C514 C513 1.390 . S
C514 C515 1.394 . S
C514 C520 1.465 . S
C515 C510 1.399 . S
C515 C514 1.394 . S
C515 C516 1.516 . S
C516 C515 1.516 . S
C516 C517 1.502 . S
C516 C518 1.561 . S
C516 C519 1.526 . S
C517 H501 0.959 . S
C517 H502 0.959 . S
C517 H503 0.961 . S
C517 C516 1.502 . S
C518 H504 0.960 . S
C518 H505 0.961 . S
C518 H506 0.959 . S
C518 C516 1.561 . S
C519 C516 1.526 . S
C519 C520 1.396 . S
C519 C524 1.390 . S
C520 C514 1.465 . S
C520 C519 1.396 . S
C520 C521 1.399 . S
C521 H507 0.929 . S
C521 C520 1.399 . S
C521 C522 1.385 . S
C522 H508 0.931 . S
C522 C521 1.385 . S
C522 C523 1.389 . S
C523 C522 1.389 . S
C523 C524 1.387 . S
C524 H509 0.930 . S
C524 C519 1.390 . S
C524 C523 1.387 . S
H525 C537 0.930 . S
H526 C539 0.930 . S
H527 C540 0.930 . S
H528 C544 0.959 . S
H529 C544 0.959 . S
H530 C544 0.961 . S
H531 C545 0.960 . S
H532 C545 0.961 . S
H533 C545 0.959 . S
H534 C548 0.929 . S
H535 C549 0.931 . S
H536 C551 0.930 . S
C537 H525 0.930 . S
C537 C538 1.399 . S
C537 C542 1.399 . S
C538 C537 1.399 . S
C538 C539 1.376 . S
C539 H526 0.930 . S
C539 C538 1.376 . S
C539 C540 1.388 . S
C540 H527 0.930 . S
C540 C539 1.388 . S
C540 C541 1.390 . S
C541 C540 1.390 . S
C541 C542 1.394 . S
C541 C547 1.465 . S
C542 C537 1.399 . S
C542 C541 1.394 . S
C542 C543 1.516 . S
C543 C542 1.516 . S
C543 C544 1.502 . S
C543 C545 1.561 . S
C543 C546 1.526 . S
C544 H528 0.959 . S
C544 H529 0.959 . S
C544 H530 0.961 . S
C544 C543 1.502 . S
C545 H531 0.960 . S
C545 H532 0.961 . S
C545 H533 0.959 . S
C545 C543 1.561 . S
C546 C543 1.526 . S
C546 C547 1.396 . S
C546 C551 1.390 . S
C547 C541 1.465 . S
C547 C546 1.396 . S
C547 C548 1.399 . S
C548 H534 0.929 . S
C548 C547 1.399 . S
C548 C549 1.385 . S
C549 H535 0.931 . S
C549 C548 1.385 . S
C549 C550 1.389 . S
C550 C549 1.389 . S
C550 C551 1.387 . S
C551 H536 0.930 . S
C551 C546 1.390 . S
C551 C550 1.387 . S
H552 C564 0.930 . S
H553 C566 0.930 . S
H554 C567 0.930 . S
H555 C571 0.959 . S
H556 C571 0.959 . S
H557 C571 0.961 . S
H558 C572 0.960 . S
H559 C572 0.961 . S
H560 C572 0.959 . S
H561 C575 0.929 . S
H562 C576 0.931 . S
H563 C578 0.930 . S
C564 H552 0.930 . S
C564 C565 1.399 . S
C564 C569 1.399 . S
C565 C564 1.399 . S
C565 C566 1.376 . S
C566 H553 0.930 . S
C566 C565 1.376 . S
C566 C567 1.388 . S
C567 H554 0.930 . S
C567 C566 1.388 . S
C567 C568 1.390 . S
C568 C567 1.390 . S
C568 C569 1.394 . S
C568 C574 1.465 . S
C569 C564 1.399 . S
C569 C568 1.394 . S
C569 C570 1.516 . S
C570 C569 1.516 . S
C570 C571 1.502 . S
C570 C572 1.561 . S
C570 C573 1.526 . S
C571 H555 0.959 . S
C571 H556 0.959 . S
C571 H557 0.961 . S
C571 C570 1.502 . S
C572 H558 0.960 . S
C572 H559 0.961 . S
C572 H560 0.959 . S
C572 C570 1.561 . S
C573 C570 1.526 . S
C573 C574 1.396 . S
C573 C578 1.390 . S
C574 C568 1.465 . S
C574 C573 1.396 . S
C574 C575 1.399 . S
C575 H561 0.929 . S
C575 C574 1.399 . S
C575 C576 1.385 . S
C576 H562 0.931 . S
C576 C575 1.385 . S
C576 C577 1.389 . S
C577 C576 1.389 . S
C577 C578 1.387 . S
C578 H563 0.930 . S
C578 C573 1.390 . S
C578 C577 1.387 . S
H579 C591 0.930 . S
H580 C593 0.930 . S
H581 C594 0.930 . S
H582 C598 0.959 . S
H583 C598 0.959 . S
H584 C598 0.961 . S
H585 C599 0.960 . S
H586 C599 0.961 . S
H587 C599 0.959 . S
H588 C602 0.929 . S
H589 C603 0.931 . S
H590 C605 0.930 . S
C591 H579 0.930 . S
C591 C592 1.399 . S
C591 C596 1.399 . S
C592 C591 1.399 . S
C592 C593 1.376 . S
C593 H580 0.930 . S
C593 C592 1.376 . S
C593 C594 1.388 . S
C594 H581 0.930 . S
C594 C593 1.388 . S
C594 C595 1.390 . S
C595 C594 1.390 . S
C595 C596 1.394 . S
C595 C601 1.465 . S
C596 C591 1.399 . S
C596 C595 1.394 . S
C596 C597 1.516 . S
C597 C596 1.516 . S
C597 C598 1.502 . S
C597 C599 1.561 . S
C597 C600 1.526 . S
C598 H582 0.959 . S
C598 H583 0.959 . S
C598 H584 0.961 . S
C598 C597 1.502 . S
C599 H585 0.960 . S
C599 H586 0.961 . S
C599 H587 0.959 . S
C599 C597 1.561 . S
C600 C597 1.526 . S
C600 C601 1.396 . S
C600 C605 1.390 . S
C601 C595 1.465 . S
C601 C600 1.396 . S
C601 C602 1.399 . S
C602 H588 0.929 . S
C602 C601 1.399 . S
C602 C603 1.385 . S
C603 H589 0.931 . S
C603 C602 1.385 . S
C603 C604 1.389 . S
C604 C603 1.389 . S
C604 C605 1.387 . S
C605 H590 0.930 . S
C605 C600 1.390 . S
C605 C604 1.387 . S
H606 C618 0.930 . S
H607 C620 0.930 1_554 S
H608 C621 0.930 . S
H609 C625 0.959 . S
H610 C625 0.959 . S
H611 C625 0.961 . S
H612 C626 0.960 . S
H613 C626 0.961 . S
H614 C626 0.959 . S
H615 C629 0.929 . S
H616 C630 0.931 . S
H617 C632 0.930 . S
C618 H606 0.930 . S
C618 C619 1.399 . S
C618 C623 1.399 . S
C619 C618 1.399 . S
C619 C620 1.376 . S
C620 H607 0.930 1_556 S
C620 C619 1.376 . S
C620 C621 1.388 . S
C621 H608 0.930 . S
C621 C620 1.388 . S
C621 C622 1.390 . S
C622 C621 1.390 . S
C622 C623 1.394 . S
C622 C628 1.465 . S
C623 C618 1.399 . S
C623 C622 1.394 . S
C623 C624 1.516 . S
C624 C623 1.516 . S
C624 C625 1.502 . S
C624 C626 1.561 . S
C624 C627 1.526 . S
C625 H609 0.959 . S
C625 H610 0.959 . S
C625 H611 0.961 . S
C625 C624 1.502 . S
C626 H612 0.960 . S
C626 H613 0.961 . S
C626 H614 0.959 . S
C626 C624 1.561 . S
C627 C624 1.526 . S
C627 C628 1.396 . S
C627 C632 1.390 . S
C628 C622 1.465 . S
C628 C627 1.396 . S
C628 C629 1.399 . S
C629 H615 0.929 . S
C629 C628 1.399 . S
C629 C630 1.385 . S
C630 H616 0.931 . S
C630 C629 1.385 . S
C630 C631 1.389 . S
C631 C630 1.389 . S
C631 C632 1.387 . S
C632 H617 0.930 . S
C632 C627 1.390 . S
C632 C631 1.387 . S
H633 C645 0.930 . S
H634 C647 0.930 . S
H635 C648 0.930 . S
H636 C652 0.959 . S
H637 C652 0.959 . S
H638 C652 0.961 . S
H639 C653 0.960 . S
H640 C653 0.961 . S
H641 C653 0.959 . S
H642 C656 0.929 . S
H643 C657 0.931 1_556 S
H644 C659 0.930 . S
C645 H633 0.930 . S
C645 C646 1.399 . S
C645 C650 1.399 . S
C646 C645 1.399 . S
C646 C647 1.376 . S
C647 H634 0.930 . S
C647 C646 1.376 . S
C647 C648 1.388 . S
C648 H635 0.930 . S
C648 C647 1.388 . S
C648 C649 1.390 . S
C649 C648 1.390 . S
C649 C650 1.394 . S
C649 C655 1.465 . S
C650 C645 1.399 . S
C650 C649 1.394 . S
C650 C651 1.516 . S
C651 C650 1.516 . S
C651 C652 1.502 . S
C651 C653 1.561 . S
C651 C654 1.526 . S
C652 H636 0.959 . S
C652 H637 0.959 . S
C652 H638 0.961 . S
C652 C651 1.502 . S
C653 H639 0.960 . S
C653 H640 0.961 . S
C653 H641 0.959 . S
C653 C651 1.561 . S
C654 C651 1.526 . S
C654 C655 1.396 . S
C654 C659 1.390 . S
C655 C649 1.465 . S
C655 C654 1.396 . S
C655 C656 1.399 . S
C656 H642 0.929 . S
C656 C655 1.399 . S
C656 C657 1.385 . S
C657 H643 0.931 1_554 S
C657 C656 1.385 . S
C657 C658 1.389 . S
C658 C657 1.389 . S
C658 C659 1.387 . S
C659 H644 0.930 . S
C659 C654 1.390 . S
C659 C658 1.387 . S
H660 C672 0.930 . S
H661 C674 0.930 . S
H662 C675 0.930 . S
H663 C679 0.959 . S
H664 C679 0.959 . S
H665 C679 0.961 . S
H666 C680 0.960 . S
H667 C680 0.961 . S
H668 C680 0.959 . S
H669 C683 0.929 . S
H670 C684 0.931 . S
H671 C686 0.930 . S
C672 H660 0.930 . S
C672 C673 1.399 . S
C672 C677 1.399 . S
C673 C672 1.399 . S
C673 C674 1.376 . S
C674 H661 0.930 . S
C674 C673 1.376 . S
C674 C675 1.388 . S
C675 H662 0.930 . S
C675 C674 1.388 . S
C675 C676 1.390 . S
C676 C675 1.390 . S
C676 C677 1.394 . S
C676 C682 1.465 . S
C677 C672 1.399 . S
C677 C676 1.394 . S
C677 C678 1.516 . S
C678 C677 1.516 . S
C678 C679 1.502 . S
C678 C680 1.561 . S
C678 C681 1.526 . S
C679 H663 0.959 . S
C679 H664 0.959 . S
C679 H665 0.961 . S
C679 C678 1.502 . S
C680 H666 0.960 . S
C680 H667 0.961 . S
C680 H668 0.959 . S
C680 C678 1.561 . S
C681 C678 1.526 . S
C681 C682 1.396 . S
C681 C686 1.390 . S
C682 C676 1.465 . S
C682 C681 1.396 . S
C682 C683 1.399 . S
C683 H669 0.929 . S
C683 C682 1.399 . S
C683 C684 1.385 . S
C684 H670 0.931 . S
C684 C683 1.385 . S
C684 C685 1.389 . S
C685 C684 1.389 . S
C685 C686 1.387 . S
C686 H671 0.930 . S
C686 C681 1.390 . S
C686 C685 1.387 . S
H687 C699 0.930 . S
H688 C701 0.930 . S
H689 C702 0.930 . S
H690 C706 0.959 . S
H691 C706 0.959 . S
H692 C706 0.961 . S
H693 C707 0.960 . S
H694 C707 0.961 . S
H695 C707 0.959 . S
H696 C710 0.929 . S
H697 C711 0.931 . S
H698 C713 0.930 . S
C699 H687 0.930 . S
C699 C700 1.399 . S
C699 C704 1.399 . S
C700 C699 1.399 . S
C700 C701 1.376 . S
C701 H688 0.930 . S
C701 C700 1.376 . S
C701 C702 1.388 . S
C702 H689 0.930 . S
C702 C701 1.388 . S
C702 C703 1.390 . S
C703 C702 1.390 . S
C703 C704 1.394 . S
C703 C709 1.465 . S
C704 C699 1.399 . S
C704 C703 1.394 . S
C704 C705 1.516 . S
C705 C704 1.516 . S
C705 C706 1.502 . S
C705 C707 1.561 . S
C705 C708 1.526 . S
C706 H690 0.959 . S
C706 H691 0.959 . S
C706 H692 0.961 . S
C706 C705 1.502 . S
C707 H693 0.960 . S
C707 H694 0.961 . S
C707 H695 0.959 . S
C707 C705 1.561 . S
C708 C705 1.526 . S
C708 C709 1.396 . S
C708 C713 1.390 . S
C709 C703 1.465 . S
C709 C708 1.396 . S
C709 C710 1.399 . S
C710 H696 0.929 . S
C710 C709 1.399 . S
C710 C711 1.385 . S
C711 H697 0.931 . S
C711 C710 1.385 . S
C711 C712 1.389 . S
C712 C711 1.389 . S
C712 C713 1.387 . S
C713 H698 0.930 . S
C713 C708 1.390 . S
C713 C712 1.387 . S
H714 C726 0.930 . S
H715 C728 0.930 . S
H716 C729 0.930 . S
H717 C733 0.959 . S
H718 C733 0.959 . S
H719 C733 0.961 . S
H720 C734 0.960 . S
H721 C734 0.961 . S
H722 C734 0.959 . S
H723 C737 0.929 . S
H724 C738 0.931 1_556 S
H725 C740 0.930 . S
C726 H714 0.930 . S
C726 C727 1.399 . S
C726 C731 1.399 . S
C727 C726 1.399 . S
C727 C728 1.376 . S
C728 H715 0.930 . S
C728 C727 1.376 . S
C728 C729 1.388 . S
C729 H716 0.930 . S
C729 C728 1.388 . S
C729 C730 1.390 . S
C730 C729 1.390 . S
C730 C731 1.394 . S
C730 C736 1.465 . S
C731 C726 1.399 . S
C731 C730 1.394 . S
C731 C732 1.516 . S
C732 C731 1.516 . S
C732 C733 1.502 . S
C732 C734 1.561 . S
C732 C735 1.526 . S
C733 H717 0.959 . S
C733 H718 0.959 . S
C733 H719 0.961 . S
C733 C732 1.502 . S
C734 H720 0.960 . S
C734 H721 0.961 . S
C734 H722 0.959 . S
C734 C732 1.561 . S
C735 C732 1.526 . S
C735 C736 1.396 . S
C735 C740 1.390 . S
C736 C730 1.465 . S
C736 C735 1.396 . S
C736 C737 1.399 . S
C737 H723 0.929 . S
C737 C736 1.399 . S
C737 C738 1.385 . S
C738 H724 0.931 1_554 S
C738 C737 1.385 . S
C738 C739 1.389 . S
C739 C738 1.389 . S
C739 C740 1.387 . S
C740 H725 0.930 . S
C740 C735 1.390 . S
C740 C739 1.387 . S
H741 C753 0.930 . S
H742 C755 0.930 . S
H743 C756 0.930 . S
H744 C760 0.959 . S
H745 C760 0.959 . S
H746 C760 0.961 . S
H747 C761 0.960 . S
H748 C761 0.961 . S
H749 C761 0.959 . S
H750 C764 0.929 . S
H751 C765 0.931 . S
H752 C767 0.930 1_554 S
C753 H741 0.930 . S
C753 C754 1.399 . S
C753 C758 1.399 . S
C754 C753 1.399 . S
C754 C755 1.376 . S
C755 H742 0.930 . S
C755 C754 1.376 . S
C755 C756 1.388 . S
C756 H743 0.930 . S
C756 C755 1.388 . S
C756 C757 1.390 . S
C757 C756 1.390 . S
C757 C758 1.394 . S
C757 C763 1.465 . S
C758 C753 1.399 . S
C758 C757 1.394 . S
C758 C759 1.516 . S
C759 C758 1.516 . S
C759 C760 1.502 . S
C759 C761 1.561 . S
C759 C762 1.526 . S
C760 H744 0.959 . S
C760 H745 0.959 . S
C760 H746 0.961 . S
C760 C759 1.502 . S
C761 H747 0.960 . S
C761 H748 0.961 . S
C761 H749 0.959 . S
C761 C759 1.561 . S
C762 C759 1.526 . S
C762 C763 1.396 . S
C762 C767 1.390 . S
C763 C757 1.465 . S
C763 C762 1.396 . S
C763 C764 1.399 . S
C764 H750 0.929 . S
C764 C763 1.399 . S
C764 C765 1.385 . S
C765 H751 0.931 . S
C765 C764 1.385 . S
C765 C766 1.389 . S
C766 C765 1.389 . S
C766 C767 1.387 . S
C767 H752 0.930 1_556 S
C767 C762 1.390 . S
C767 C766 1.387 . S
H768 C780 0.930 . S
H769 C782 0.930 . S
H770 C783 0.930 . S
H771 C787 0.959 . S
H772 C787 0.959 . S
H773 C787 0.961 . S
H774 C788 0.960 . S
H775 C788 0.961 . S
H776 C788 0.959 . S
H777 C791 0.929 . S
H778 C792 0.931 . S
H779 C794 0.930 . S
C780 H768 0.930 . S
C780 C781 1.399 . S
C780 C785 1.399 . S
C781 C780 1.399 . S
C781 C782 1.376 . S
C782 H769 0.930 . S
C782 C781 1.376 . S
C782 C783 1.388 1_655 S
C783 H770 0.930 . S
C783 C782 1.388 1_455 S
C783 C784 1.391 . S
C784 C783 1.391 . S
C784 C785 1.386 1_455 S
C784 C790 1.473 . S
C785 C780 1.399 . S
C785 C784 1.386 1_655 S
C785 C786 1.516 . S
C786 C785 1.516 . S
C786 C787 1.502 1_655 S
C786 C788 1.561 . S
C786 C789 1.526 1_655 S
C787 H771 0.959 . S
C787 H772 0.959 . S
C787 H773 0.961 . S
C787 C786 1.502 1_455 S
C788 H774 0.960 . S
C788 H775 0.961 . S
C788 H776 0.959 . S
C788 C786 1.561 . S
C789 C786 1.526 1_455 S
C789 C790 1.396 . S
C789 C794 1.390 . S
C790 C784 1.473 . S
C790 C789 1.396 . S
C790 C791 1.399 . S
C791 H777 0.929 . S
C791 C790 1.399 . S
C791 C792 1.385 . S
C792 H778 0.931 . S
C792 C791 1.385 . S
C792 C793 1.389 . S
C793 C792 1.389 . S
C793 C794 1.387 . S
C794 H779 0.930 . S
C794 C789 1.390 . S
C794 C793 1.387 . S
H795 C807 0.930 . S
H796 C809 0.930 . S
H797 C810 0.930 . S
H798 C814 0.959 . S
H799 C814 0.959 . S
H800 C814 0.961 1_655 S
H801 C815 0.960 1_655 S
H802 C815 0.961 . S
H803 C815 0.959 . S
H804 C818 0.929 . S
H805 C819 0.931 . S
H806 C821 0.930 . S
C807 H795 0.930 . S
C807 C808 1.399 . S
C807 C812 1.399 . S
C808 C807 1.399 . S
C808 C809 1.376 . S
C809 H796 0.930 . S
C809 C808 1.376 . S
C809 C810 1.388 . S
C810 H797 0.930 . S
C810 C809 1.388 . S
C810 C811 1.390 . S
C811 C810 1.390 . S
C811 C812 1.394 . S
C811 C817 1.465 1_655 S
C812 C807 1.399 . S
C812 C811 1.394 . S
C812 C813 1.516 1_655 S
C813 C812 1.516 1_455 S
C813 C814 1.502 . S
C813 C815 1.561 . S
C813 C816 1.526 . S
C814 H798 0.959 . S
C814 H799 0.959 . S
C814 H800 0.961 1_455 S
C814 C813 1.502 . S
C815 H801 0.960 1_455 S
C815 H802 0.961 . S
C815 H803 0.959 . S
C815 C813 1.561 . S
C816 C813 1.526 . S
C816 C817 1.396 . S
C816 C821 1.390 . S
C817 C811 1.465 1_455 S
C817 C816 1.396 . S
C817 C818 1.399 . S
C818 H804 0.929 . S
C818 C817 1.399 . S
C818 C819 1.385 . S
C819 H805 0.931 . S
C819 C818 1.385 . S
C819 C820 1.389 . S
C820 C819 1.389 . S
C820 C821 1.387 . S
C821 H806 0.930 . S
C821 C816 1.390 . S
C821 C820 1.387 . S
H822 C834 0.930 . S
H823 C836 0.930 . S
H824 C837 0.930 . S
H825 C841 0.959 . S
H826 C841 0.959 . S
H827 C841 0.961 . S
H828 C842 0.960 . S
H829 C842 0.961 . S
H830 C842 0.959 . S
H831 C845 0.929 . S
H832 C846 0.931 . S
H833 C848 0.930 . S
C834 H822 0.930 . S
C834 C835 1.399 . S
C834 C839 1.399 . S
C835 C834 1.399 . S
C835 C836 1.376 . S
C836 H823 0.930 . S
C836 C835 1.376 . S
C836 C837 1.388 . S
C837 H824 0.930 . S
C837 C836 1.388 . S
C837 C838 1.390 . S
C838 C837 1.390 . S
C838 C839 1.394 . S
C838 C844 1.465 . S
C839 C834 1.399 . S
C839 C838 1.394 . S
C839 C840 1.516 . S
C840 C839 1.516 . S
C840 C841 1.502 . S
C840 C842 1.561 . S
C840 C843 1.526 . S
C841 H825 0.959 . S
C841 H826 0.959 . S
C841 H827 0.961 . S
C841 C840 1.502 . S
C842 H828 0.960 . S
C842 H829 0.961 . S
C842 H830 0.959 . S
C842 C840 1.561 . S
C843 C840 1.526 . S
C843 C844 1.396 . S
C843 C848 1.390 . S
C844 C838 1.465 . S
C844 C843 1.396 . S
C844 C845 1.399 . S
C845 H831 0.929 . S
C845 C844 1.399 . S
C845 C846 1.385 . S
C846 H832 0.931 . S
C846 C845 1.385 . S
C846 C847 1.389 . S
C847 C846 1.389 . S
C847 C848 1.387 . S
C848 H833 0.930 . S
C848 C843 1.390 . S
C848 C847 1.387 . S
H849 C861 0.930 . S
H850 C863 0.930 . S
H851 C864 0.930 . S
H852 C868 0.959 . S
H853 C868 0.959 . S
H854 C868 0.961 . S
H855 C869 0.960 . S
H856 C869 0.961 . S
H857 C869 0.959 . S
H858 C872 0.926 1_554 S
H859 C873 0.931 . S
H860 C875 0.930 . S
C861 H849 0.930 . S
C861 C862 1.399 . S
C861 C866 1.399 . S
C862 C861 1.399 . S
C862 C863 1.376 . S
C863 H850 0.930 . S
C863 C862 1.376 . S
C863 C864 1.388 . S
C864 H851 0.930 . S
C864 C863 1.388 . S
C864 C865 1.390 . S
C865 C864 1.390 . S
C865 C866 1.394 . S
C865 C871 1.465 . S
C866 C861 1.399 . S
C866 C865 1.394 . S
C866 C867 1.516 . S
C867 C866 1.516 . S
C867 C868 1.502 . S
C867 C869 1.561 . S
C867 C870 1.526 . S
C868 H852 0.959 . S
C868 H853 0.959 . S
C868 H854 0.961 . S
C868 C867 1.502 . S
C869 H855 0.960 . S
C869 H856 0.961 . S
C869 H857 0.959 . S
C869 C867 1.561 . S
C870 C867 1.526 . S
C870 C871 1.396 . S
C870 C875 1.390 . S
C871 C865 1.465 . S
C871 C870 1.396 . S
C871 C872 1.399 . S
C872 H858 0.926 1_556 S
C872 C871 1.399 . S
C872 C873 1.385 . S
C873 H859 0.931 . S
C873 C872 1.385 . S
C873 C874 1.389 . S
C874 C873 1.389 . S
C874 C875 1.387 . S
C875 H860 0.930 . S
C875 C870 1.390 . S
C875 C874 1.387 . S
H876 C888 0.930 . S
H877 C890 0.923 1_655 S
H878 C891 0.930 . S
H879 C895 0.959 . S
H880 C895 0.959 . S
H881 C895 0.961 . S
H882 C896 0.960 . S
H883 C896 0.961 . S
H884 C896 0.959 . S
H885 C899 0.929 . S
H886 C900 0.931 . S
H887 C902 0.935 . S
C888 H876 0.930 . S
C888 C889 1.399 . S
C888 C893 1.399 . S
C889 C888 1.399 . S
C889 C890 1.396 . S
C890 H877 0.923 1_455 S
C890 C889 1.396 . S
C890 C891 1.378 1_455 S
C891 H878 0.930 . S
C891 C890 1.378 1_655 S
C891 C892 1.390 . S
C892 C891 1.390 . S
C892 C893 1.394 1_655 S
C892 C898 1.465 . S
C893 C888 1.399 . S
C893 C892 1.394 1_455 S
C893 C894 1.516 . S
C894 C893 1.516 . S
C894 C895 1.502 . S
C894 C896 1.561 1_455 S
C894 C897 1.526 . S
C895 H879 0.959 . S
C895 H880 0.959 . S
C895 H881 0.961 . S
C895 C894 1.502 . S
C896 H882 0.960 . S
C896 H883 0.961 . S
C896 H884 0.959 . S
C896 C894 1.561 1_655 S
C897 C894 1.526 . S
C897 C898 1.396 1_455 S
C897 C902 1.391 . S
C898 C892 1.465 . S
C898 C897 1.396 1_655 S
C898 C899 1.399 . S
C899 H885 0.929 . S
C899 C898 1.399 . S
C899 C900 1.385 . S
C900 H886 0.931 . S
C900 C899 1.385 . S
C900 C901 1.389 . S
C901 C900 1.389 . S
C901 C902 1.381 1_655 S
C902 H887 0.935 . S
C902 C897 1.391 . S
C902 C901 1.381 1_455 S
H903 C915 0.930 . S
H904 C917 0.930 . S
H905 C918 0.930 . S
H906 C922 0.959 . S
H907 C922 0.959 1_556 S
H908 C922 0.961 1_556 S
H909 C923 0.960 . S
H910 C923 0.961 . S
H911 C923 0.959 . S
H912 C926 0.929 . S
H913 C927 0.931 . S
H914 C929 0.930 . S
C915 H903 0.930 . S
C915 C916 1.399 . S
C915 C920 1.399 . S
C916 C915 1.399 . S
C916 C917 1.376 . S
C917 H904 0.930 . S
C917 C916 1.376 . S
C917 C918 1.388 . S
C918 H905 0.930 . S
C918 C917 1.388 . S
C918 C919 1.390 . S
C919 C918 1.390 . S
C919 C920 1.394 . S
C919 C925 1.465 . S
C920 C915 1.399 . S
C920 C919 1.394 . S
C920 C921 1.516 . S
C921 C920 1.516 . S
C921 C922 1.502 . S
C921 C923 1.561 1_554 S
C921 C924 1.526 . S
C922 H906 0.959 . S
C922 H907 0.959 1_554 S
C922 H908 0.961 1_554 S
C922 C921 1.502 . S
C923 H909 0.960 . S
C923 H910 0.961 . S
C923 H911 0.959 . S
C923 C921 1.561 1_556 S
C924 C921 1.526 . S
C924 C925 1.396 . S
C924 C929 1.390 . S
C925 C919 1.465 . S
C925 C924 1.396 . S
C925 C926 1.399 . S
C926 H912 0.929 . S
C926 C925 1.399 . S
C926 C927 1.385 . S
C927 H913 0.931 . S
C927 C926 1.385 . S
C927 C928 1.389 . S
C928 C927 1.389 . S
C928 C929 1.387 . S
C929 H914 0.930 . S
C929 C924 1.390 . S
C929 C928 1.387 . S
H930 C942 0.930 . S
H931 C944 0.930 . S
H932 C945 0.930 . S
H933 C949 0.959 . S
H934 C949 0.959 . S
H935 C949 0.961 . S
H936 C950 0.960 . S
H937 C950 0.961 . S
H938 C950 0.959 . S
H939 C953 0.929 . S
H940 C954 0.931 . S
H941 C956 0.930 . S
C942 H930 0.930 . S
C942 C943 1.399 . S
C942 C947 1.399 . S
C943 C942 1.399 . S
C943 C944 1.376 . S
C944 H931 0.930 . S
C944 C943 1.376 . S
C944 C945 1.388 . S
C945 H932 0.930 . S
C945 C944 1.388 . S
C945 C946 1.390 . S
C946 C945 1.390 . S
C946 C947 1.394 . S
C946 C952 1.465 . S
C947 C942 1.399 . S
C947 C946 1.394 . S
C947 C948 1.516 . S
C948 C947 1.516 . S
C948 C949 1.502 . S
C948 C950 1.561 . S
C948 C951 1.526 . S
C949 H933 0.959 . S
C949 H934 0.959 . S
C949 H935 0.961 . S
C949 C948 1.502 . S
C950 H936 0.960 . S
C950 H937 0.961 . S
C950 H938 0.959 . S
C950 C948 1.561 . S
C951 C948 1.526 . S
C951 C952 1.396 . S
C951 C956 1.390 . S
C952 C946 1.465 . S
C952 C951 1.396 . S
C952 C953 1.399 . S
C953 H939 0.929 . S
C953 C952 1.399 . S
C953 C954 1.385 . S
C954 H940 0.931 . S
C954 C953 1.385 . S
C954 C955 1.389 . S
C955 C954 1.389 . S
C955 C956 1.387 . S
C956 H941 0.930 . S
C956 C951 1.390 . S
C956 C955 1.387 . S
H957 C969 0.930 . S
H958 C971 0.930 . S
H959 C972 0.930 . S
H960 C976 0.959 . S
H961 C976 0.959 . S
H962 C976 0.961 1_455 S
H963 C977 0.960 . S
H964 C977 0.961 1_655 S
H965 C977 0.959 . S
H966 C980 0.929 . S
H967 C981 0.931 . S
H968 C983 0.930 . S
C969 H957 0.930 . S
C969 C970 1.399 . S
C969 C974 1.399 . S
C970 C969 1.399 . S
C970 C971 1.376 . S
C971 H958 0.930 . S
C971 C970 1.376 . S
C971 C972 1.388 . S
C972 H959 0.930 . S
C972 C971 1.388 . S
C972 C973 1.390 . S
C973 C972 1.390 . S
C973 C974 1.394 . S
C973 C979 1.465 1_455 S
C974 C969 1.399 . S
C974 C973 1.394 . S
C974 C975 1.516 . S
C975 C974 1.516 . S
C975 C976 1.502 1_455 S
C975 C977 1.561 . S
C975 C978 1.526 1_455 S
C976 H960 0.959 . S
C976 H961 0.959 . S
C976 H962 0.961 1_655 S
C976 C975 1.502 1_655 S
C977 H963 0.960 . S
C977 H964 0.961 1_455 S
C977 H965 0.959 . S
C977 C975 1.561 . S
C978 C975 1.526 1_655 S
C978 C979 1.396 . S
C978 C983 1.390 . S
C979 C973 1.465 1_655 S
C979 C978 1.396 . S
C979 C980 1.399 . S
C980 H966 0.929 . S
C980 C979 1.399 . S
C980 C981 1.385 . S
C981 H967 0.931 . S
C981 C980 1.385 . S
C981 C982 1.389 . S
C982 C981 1.389 . S
C982 C983 1.387 . S
C983 H968 0.930 . S
C983 C978 1.390 . S
C983 C982 1.387 . S
H984 C996 0.930 . S
H985 C998 0.930 1_655 S
H986 C999 0.937 . S
H987 C1003 0.959 . S
H988 C1003 0.959 . S
H989 C1003 0.961 . S
H990 C1004 0.960 . S
H991 C1004 0.961 . S
H992 C1004 0.959 . S
H993 C1007 0.927 1_645 S
H994 C1008 0.928 1_655 S
H995 C1010 0.930 . S
C996 H984 0.930 . S
C996 C997 1.399 . S
C996 C1001 1.399 . S
C997 C996 1.399 . S
C997 C998 1.376 . S
C998 H985 0.930 1_455 S
C998 C997 1.376 . S
C998 C999 1.387 1_454 S
C999 H986 0.937 . S
C999 C998 1.387 1_656 S
C999 C1000 1.389 1_655 S
C1000 C999 1.389 1_455 S
C1000 C1001 1.374 1_556 S
C1000 C1006 1.479 1_545 S
C1001 C996 1.399 . S
C1001 C1000 1.374 1_554 S
C1001 C1002 1.516 1_545 S
C1002 C1001 1.516 1_565 S
C1002 C1003 1.502 . S
C1002 C1004 1.561 1_455 S
C1002 C1005 1.526 1_554 S
C1003 H987 0.959 . S
C1003 H988 0.959 . S
C1003 H989 0.961 . S
C1003 C1002 1.502 . S
C1004 H990 0.960 . S
C1004 H991 0.961 . S
C1004 H992 0.959 . S
C1004 C1002 1.561 1_655 S
C1005 C1002 1.526 1_556 S
C1005 C1006 1.396 . S
C1005 C1010 1.390 . S
C1006 C1000 1.479 1_565 S
C1006 C1005 1.396 . S
C1006 C1007 1.400 . S
C1007 H993 0.927 1_465 S
C1007 C1006 1.400 . S
C1007 C1008 1.386 . S
C1008 H994 0.928 1_455 S
C1008 C1007 1.386 . S
C1008 C1009 1.389 . S
C1009 C1008 1.389 . S
C1009 C1010 1.387 . S
C1010 H995 0.930 . S
C1010 C1005 1.390 . S
C1010 C1009 1.387 . S
H1011 C1023 0.930 . S
H1012 C1025 0.930 . S
H1013 C1026 0.930 . S
H1014 C1030 0.959 . S
H1015 C1030 0.959 . S
H1016 C1030 0.961 . S
H1017 C1031 0.960 . S
H1018 C1031 0.961 . S
H1019 C1031 0.959 . S
H1020 C1034 0.929 . S
H1021 C1035 0.931 . S
H1022 C1037 0.930 . S
C1023 H1011 0.930 . S
C1023 C1024 1.399 . S
C1023 C1028 1.399 . S
C1024 C1023 1.399 . S
C1024 C1025 1.376 . S
C1025 H1012 0.930 . S
C1025 C1024 1.376 . S
C1025 C1026 1.388 . S
C1026 H1013 0.930 . S
C1026 C1025 1.388 . S
C1026 C1027 1.390 . S
C1027 C1026 1.390 . S
C1027 C1028 1.394 . S
C1027 C1033 1.465 . S
C1028 C1023 1.399 . S
C1028 C1027 1.394 . S
C1028 C1029 1.516 . S
C1029 C1028 1.516 . S
C1029 C1030 1.502 . S
C1029 C1031 1.561 . S
C1029 C1032 1.526 . S
C1030 H1014 0.959 . S
C1030 H1015 0.959 . S
C1030 H1016 0.961 . S
C1030 C1029 1.502 . S
C1031 H1017 0.960 . S
C1031 H1018 0.961 . S
C1031 H1019 0.959 . S
C1031 C1029 1.561 . S
C1032 C1029 1.526 . S
C1032 C1033 1.396 . S
C1032 C1037 1.390 . S
C1033 C1027 1.465 . S
C1033 C1032 1.396 . S
C1033 C1034 1.399 . S
C1034 H1020 0.929 . S
C1034 C1033 1.399 . S
C1034 C1035 1.385 . S
C1035 H1021 0.931 . S
C1035 C1034 1.385 . S
C1035 C1036 1.389 . S
C1036 C1035 1.389 . S
C1036 C1037 1.387 . S
C1037 H1022 0.930 . S
C1037 C1032 1.390 . S
C1037 C1036 1.387 . S
H1038 C1050 0.930 . S
H1039 C1052 0.930 . S
H1040 C1053 0.930 1_565 S
H1041 C1057 0.959 . S
H1042 C1057 0.959 . S
H1043 C1057 0.961 . S
H1044 C1058 0.960 . S
H1045 C1058 0.961 . S
H1046 C1058 0.959 . S
H1047 C1061 0.929 . S
H1048 C1062 0.931 . S
H1049 C1064 0.930 . S
C1050 H1038 0.930 . S
C1050 C1051 1.399 . S
C1050 C1055 1.399 . S
C1051 C1050 1.399 . S
C1051 C1052 1.376 . S
C1052 H1039 0.930 . S
C1052 C1051 1.376 . S
C1052 C1053 1.388 . S
C1053 H1040 0.930 1_545 S
C1053 C1052 1.388 . S
C1053 C1054 1.390 . S
C1054 C1053 1.390 . S
C1054 C1055 1.394 . S
C1054 C1060 1.465 1_545 S
C1055 C1050 1.399 . S
C1055 C1054 1.394 . S
C1055 C1056 1.516 . S
C1056 C1055 1.516 . S
C1056 C1057 1.502 . S
C1056 C1058 1.561 . S
C1056 C1059 1.526 1_545 S
C1057 H1041 0.959 . S
C1057 H1042 0.959 . S
C1057 H1043 0.961 . S
C1057 C1056 1.502 . S
C1058 H1044 0.960 . S
C1058 H1045 0.961 . S
C1058 H1046 0.959 . S
C1058 C1056 1.561 . S
C1059 C1056 1.526 1_565 S
C1059 C1060 1.396 . S
C1059 C1064 1.390 . S
C1060 C1054 1.465 1_565 S
C1060 C1059 1.396 . S
C1060 C1061 1.399 . S
C1061 H1047 0.929 . S
C1061 C1060 1.399 . S
C1061 C1062 1.385 . S
C1062 H1048 0.931 . S
C1062 C1061 1.385 . S
C1062 C1063 1.389 . S
C1063 C1062 1.389 . S
C1063 C1064 1.387 . S
C1064 H1049 0.930 . S
C1064 C1059 1.390 . S
C1064 C1063 1.387 . S
H1065 C1077 0.930 . S
H1066 C1079 0.930 . S
H1067 C1080 0.930 . S
H1068 C1084 0.959 . S
H1069 C1084 0.959 . S
H1070 C1084 0.961 . S
H1071 C1085 0.960 . S
H1072 C1085 0.961 . S
H1073 C1085 0.959 . S
H1074 C1088 0.929 . S
H1075 C1089 0.931 . S
H1076 C1091 0.930 . S
C1077 H1065 0.930 . S
C1077 C1078 1.399 . S
C1077 C1082 1.399 . S
C1078 C1077 1.399 . S
C1078 C1079 1.376 . S
C1079 H1066 0.930 . S
C1079 C1078 1.376 . S
C1079 C1080 1.388 . S
C1080 H1067 0.930 . S
C1080 C1079 1.388 . S
C1080 C1081 1.390 . S
C1081 C1080 1.390 . S
C1081 C1082 1.394 . S
C1081 C1087 1.465 . S
C1082 C1077 1.399 . S
C1082 C1081 1.394 . S
C1082 C1083 1.516 . S
C1083 C1082 1.516 . S
C1083 C1084 1.502 . S
C1083 C1085 1.561 . S
C1083 C1086 1.526 . S
C1084 H1068 0.959 . S
C1084 H1069 0.959 . S
C1084 H1070 0.961 . S
C1084 C1083 1.502 . S
C1085 H1071 0.960 . S
C1085 H1072 0.961 . S
C1085 H1073 0.959 . S
C1085 C1083 1.561 . S
C1086 C1083 1.526 . S
C1086 C1087 1.396 . S
C1086 C1091 1.390 . S
C1087 C1081 1.465 . S
C1087 C1086 1.396 . S
C1087 C1088 1.399 . S
C1088 H1074 0.929 . S
C1088 C1087 1.399 . S
C1088 C1089 1.385 . S
C1089 H1075 0.931 . S
C1089 C1088 1.385 . S
C1089 C1090 1.389 . S
C1090 C1089 1.389 . S
C1090 C1091 1.387 . S
C1091 H1076 0.930 . S
C1091 C1086 1.390 . S
C1091 C1090 1.387 . S
H1092 C1104 0.930 . S
H1093 C1106 0.930 . S
H1094 C1107 0.930 . S
H1095 C1111 0.959 . S
H1096 C1111 0.959 . S
H1097 C1111 0.961 . S
H1098 C1112 0.960 . S
H1099 C1112 0.961 . S
H1100 C1112 0.959 . S
H1101 C1115 0.929 . S
H1102 C1116 0.931 . S
H1103 C1118 0.930 . S
C1104 H1092 0.930 . S
C1104 C1105 1.399 . S
C1104 C1109 1.399 . S
C1105 C1104 1.399 . S
C1105 C1106 1.376 . S
C1106 H1093 0.930 . S
C1106 C1105 1.376 . S
C1106 C1107 1.388 . S
C1107 H1094 0.930 . S
C1107 C1106 1.388 . S
C1107 C1108 1.390 . S
C1108 C1107 1.390 . S
C1108 C1109 1.394 . S
C1108 C1114 1.465 . S
C1109 C1104 1.399 . S
C1109 C1108 1.394 . S
C1109 C1110 1.516 . S
C1110 C1109 1.516 . S
C1110 C1111 1.502 . S
C1110 C1112 1.561 . S
C1110 C1113 1.526 . S
C1111 H1095 0.959 . S
C1111 H1096 0.959 . S
C1111 H1097 0.961 . S
C1111 C1110 1.502 . S
C1112 H1098 0.960 . S
C1112 H1099 0.961 . S
C1112 H1100 0.959 . S
C1112 C1110 1.561 . S
C1113 C1110 1.526 . S
C1113 C1114 1.396 . S
C1113 C1118 1.390 . S
C1114 C1108 1.465 . S
C1114 C1113 1.396 . S
C1114 C1115 1.399 . S
C1115 H1101 0.929 . S
C1115 C1114 1.399 . S
C1115 C1116 1.385 . S
C1116 H1102 0.931 . S
C1116 C1115 1.385 . S
C1116 C1117 1.389 . S
C1117 C1116 1.389 . S
C1117 C1118 1.387 . S
C1118 H1103 0.930 . S
C1118 C1113 1.390 . S
C1118 C1117 1.387 . S
H1119 C1131 0.930 . S
H1120 C1133 0.930 . S
H1121 C1134 0.930 . S
H1122 C1138 0.959 . S
H1123 C1138 0.959 . S
H1124 C1138 0.961 . S
H1125 C1139 0.960 . S
H1126 C1139 0.961 . S
H1127 C1139 0.959 . S
H1128 C1142 0.929 . S
H1129 C1143 0.931 . S
H1130 C1145 0.930 . S
C1131 H1119 0.930 . S
C1131 C1132 1.399 . S
C1131 C1136 1.399 . S
C1132 C1131 1.399 . S
C1132 C1133 1.376 . S
C1133 H1120 0.930 . S
C1133 C1132 1.376 . S
C1133 C1134 1.388 . S
C1134 H1121 0.930 . S
C1134 C1133 1.388 . S
C1134 C1135 1.390 . S
C1135 C1134 1.390 . S
C1135 C1136 1.394 . S
C1135 C1141 1.465 . S
C1136 C1131 1.399 . S
C1136 C1135 1.394 . S
C1136 C1137 1.516 . S
C1137 C1136 1.516 . S
C1137 C1138 1.502 . S
C1137 C1139 1.561 . S
C1137 C1140 1.526 . S
C1138 H1122 0.959 . S
C1138 H1123 0.959 . S
C1138 H1124 0.961 . S
C1138 C1137 1.502 . S
C1139 H1125 0.960 . S
C1139 H1126 0.961 . S
C1139 H1127 0.959 . S
C1139 C1137 1.561 . S
C1140 C1137 1.526 . S
C1140 C1141 1.396 . S
C1140 C1145 1.390 . S
C1141 C1135 1.465 . S
C1141 C1140 1.396 . S
C1141 C1142 1.399 . S
C1142 H1128 0.929 . S
C1142 C1141 1.399 . S
C1142 C1143 1.385 . S
C1143 H1129 0.931 . S
C1143 C1142 1.385 . S
C1143 C1144 1.389 . S
C1144 C1143 1.389 . S
C1144 C1145 1.387 . S
C1145 H1130 0.930 . S
C1145 C1140 1.390 . S
C1145 C1144 1.387 . S
H1146 C1158 0.930 . S
H1147 C1160 0.930 . S
H1148 C1161 0.930 . S
H1149 C1165 0.959 . S
H1150 C1165 0.959 . S
H1151 C1165 0.961 . S
H1152 C1166 0.960 . S
H1153 C1166 0.961 . S
H1154 C1166 0.959 . S
H1155 C1169 0.929 . S
H1156 C1170 0.931 . S
H1157 C1172 0.930 . S
C1158 H1146 0.930 . S
C1158 C1159 1.399 . S
C1158 C1163 1.399 . S
C1159 C1158 1.399 . S
C1159 C1160 1.376 . S
C1160 H1147 0.930 . S
C1160 C1159 1.376 . S
C1160 C1161 1.388 . S
C1161 H1148 0.930 . S
C1161 C1160 1.388 . S
C1161 C1162 1.390 . S
C1162 C1161 1.390 . S
C1162 C1163 1.394 . S
C1162 C1168 1.465 . S
C1163 C1158 1.399 . S
C1163 C1162 1.394 . S
C1163 C1164 1.516 . S
C1164 C1163 1.516 . S
C1164 C1165 1.502 . S
C1164 C1166 1.561 . S
C1164 C1167 1.526 . S
C1165 H1149 0.959 . S
C1165 H1150 0.959 . S
C1165 H1151 0.961 . S
C1165 C1164 1.502 . S
C1166 H1152 0.960 . S
C1166 H1153 0.961 . S
C1166 H1154 0.959 . S
C1166 C1164 1.561 . S
C1167 C1164 1.526 . S
C1167 C1168 1.396 . S
C1167 C1172 1.390 . S
C1168 C1162 1.465 . S
C1168 C1167 1.396 . S
C1168 C1169 1.399 . S
C1169 H1155 0.929 . S
C1169 C1168 1.399 . S
C1169 C1170 1.385 . S
C1170 H1156 0.931 . S
C1170 C1169 1.385 . S
C1170 C1171 1.389 . S
C1171 C1170 1.389 . S
C1171 C1172 1.387 . S
C1172 H1157 0.930 . S
C1172 C1167 1.390 . S
C1172 C1171 1.387 . S
H1173 C1185 0.930 . S
H1174 C1187 0.930 . S
H1175 C1188 0.930 1_554 S
H1176 C1192 0.959 1_554 S
H1177 C1192 0.959 . S
H1178 C1192 0.961 . S
H1179 C1193 0.960 . S
H1180 C1193 0.961 . S
H1181 C1193 0.959 . S
H1182 C1196 0.929 . S
H1183 C1197 0.931 . S
H1184 C1199 0.930 . S
C1185 H1173 0.930 . S
C1185 C1186 1.399 . S
C1185 C1190 1.399 . S
C1186 C1185 1.399 . S
C1186 C1187 1.376 1_655 S
C1187 H1174 0.930 . S
C1187 C1186 1.376 1_455 S
C1187 C1188 1.388 . S
C1188 H1175 0.930 1_556 S
C1188 C1187 1.388 . S
C1188 C1189 1.390 . S
C1189 C1188 1.390 . S
C1189 C1190 1.394 1_455 S
C1189 C1195 1.465 1_556 S
C1190 C1185 1.399 . S
C1190 C1189 1.394 1_655 S
C1190 C1191 1.516 . S
C1191 C1190 1.516 . S
C1191 C1192 1.502 . S
C1191 C1193 1.561 . S
C1191 C1194 1.526 1_556 S
C1192 H1176 0.959 1_556 S
C1192 H1177 0.959 . S
C1192 H1178 0.961 . S
C1192 C1191 1.502 . S
C1193 H1179 0.960 . S
C1193 H1180 0.961 . S
C1193 H1181 0.959 . S
C1193 C1191 1.561 . S
C1194 C1191 1.526 1_554 S
C1194 C1195 1.396 1_655 S
C1194 C1199 1.390 . S
C1195 C1189 1.465 1_554 S
C1195 C1194 1.396 1_455 S
C1195 C1196 1.399 . S
C1196 H1182 0.929 . S
C1196 C1195 1.399 . S
C1196 C1197 1.385 . S
C1197 H1183 0.931 . S
C1197 C1196 1.385 . S
C1197 C1198 1.389 1_455 S
C1198 C1197 1.389 1_655 S
C1198 C1199 1.387 . S
C1199 H1184 0.930 . S
C1199 C1194 1.390 . S
C1199 C1198 1.387 . S
H1200 C1212 0.930 . S
H1201 C1214 0.930 . S
H1202 C1215 0.930 . S
H1203 C1219 0.959 . S
H1204 C1219 0.959 . S
H1205 C1219 0.961 . S
H1206 C1220 0.960 . S
H1207 C1220 0.961 . S
H1208 C1220 0.959 . S
H1209 C1223 0.929 . S
H1210 C1224 0.931 . S
H1211 C1226 0.930 . S
C1212 H1200 0.930 . S
C1212 C1213 1.399 . S
C1212 C1217 1.399 . S
C1213 C1212 1.399 . S
C1213 C1214 1.376 . S
C1214 H1201 0.930 . S
C1214 C1213 1.376 . S
C1214 C1215 1.388 . S
C1215 H1202 0.930 . S
C1215 C1214 1.388 . S
C1215 C1216 1.390 . S
C1216 C1215 1.390 . S
C1216 C1217 1.394 . S
C1216 C1222 1.465 . S
C1217 C1212 1.399 . S
C1217 C1216 1.394 . S
C1217 C1218 1.516 . S
C1218 C1217 1.516 . S
C1218 C1219 1.502 . S
C1218 C1220 1.561 . S
C1218 C1221 1.526 . S
C1219 H1203 0.959 . S
C1219 H1204 0.959 . S
C1219 H1205 0.961 . S
C1219 C1218 1.502 . S
C1220 H1206 0.960 . S
C1220 H1207 0.961 . S
C1220 H1208 0.959 . S
C1220 C1218 1.561 . S
C1221 C1218 1.526 . S
C1221 C1222 1.396 . S
C1221 C1226 1.390 . S
C1222 C1216 1.465 . S
C1222 C1221 1.396 . S
C1222 C1223 1.399 . S
C1223 H1209 0.929 . S
C1223 C1222 1.399 . S
C1223 C1224 1.385 . S
C1224 H1210 0.931 . S
C1224 C1223 1.385 . S
C1224 C1225 1.389 . S
C1225 C1224 1.389 . S
C1225 C1226 1.387 . S
C1226 H1211 0.930 . S
C1226 C1221 1.390 . S
C1226 C1225 1.387 . S
H1227 C1239 0.930 . S
H1228 C1241 0.930 . S
H1229 C1242 0.930 . S
H1230 C1246 0.959 . S
H1231 C1246 0.959 . S
H1232 C1246 0.961 . S
H1233 C1247 0.960 . S
H1234 C1247 0.961 . S
H1235 C1247 0.959 . S
H1236 C1250 0.929 . S
H1237 C1251 0.931 . S
H1238 C1253 0.930 . S
C1239 H1227 0.930 . S
C1239 C1240 1.399 . S
C1239 C1244 1.399 . S
C1240 C1239 1.399 . S
C1240 C1241 1.376 . S
C1241 H1228 0.930 . S
C1241 C1240 1.376 . S
C1241 C1242 1.388 . S
C1242 H1229 0.930 . S
C1242 C1241 1.388 . S
C1242 C1243 1.390 . S
C1243 C1242 1.390 . S
C1243 C1244 1.394 . S
C1243 C1249 1.465 . S
C1244 C1239 1.399 . S
C1244 C1243 1.394 . S
C1244 C1245 1.516 . S
C1245 C1244 1.516 . S
C1245 C1246 1.502 . S
C1245 C1247 1.561 . S
C1245 C1248 1.526 . S
C1246 H1230 0.959 . S
C1246 H1231 0.959 . S
C1246 H1232 0.961 . S
C1246 C1245 1.502 . S
C1247 H1233 0.960 . S
C1247 H1234 0.961 . S
C1247 H1235 0.959 . S
C1247 C1245 1.561 . S
C1248 C1245 1.526 . S
C1248 C1249 1.396 . S
C1248 C1253 1.390 . S
C1249 C1243 1.465 . S
C1249 C1248 1.396 . S
C1249 C1250 1.399 . S
C1250 H1236 0.929 . S
C1250 C1249 1.399 . S
C1250 C1251 1.385 . S
C1251 H1237 0.931 . S
C1251 C1250 1.385 . S
C1251 C1252 1.389 . S
C1252 C1251 1.389 . S
C1252 C1253 1.387 . S
C1253 H1238 0.930 . S
C1253 C1248 1.390 . S
C1253 C1252 1.387 . S
H1254 C1266 0.930 . S
H1255 C1268 0.930 . S
H1256 C1269 0.930 . S
H1257 C1273 0.959 . S
H1258 C1273 0.959 . S
H1259 C1273 0.961 . S
H1260 C1274 0.960 . S
H1261 C1274 0.961 . S
H1262 C1274 0.959 . S
H1263 C1277 0.929 . S
H1264 C1278 0.931 . S
H1265 C1280 0.930 . S
C1266 H1254 0.930 . S
C1266 C1267 1.399 . S
C1266 C1271 1.399 . S
C1267 C1266 1.399 . S
C1267 C1268 1.376 . S
C1268 H1255 0.930 . S
C1268 C1267 1.376 . S
C1268 C1269 1.388 . S
C1269 H1256 0.930 . S
C1269 C1268 1.388 . S
C1269 C1270 1.390 . S
C1270 C1269 1.390 . S
C1270 C1271 1.394 . S
C1270 C1276 1.465 . S
C1271 C1266 1.399 . S
C1271 C1270 1.394 . S
C1271 C1272 1.516 . S
C1272 C1271 1.516 . S
C1272 C1273 1.502 . S
C1272 C1274 1.561 . S
C1272 C1275 1.526 . S
C1273 H1257 0.959 . S
C1273 H1258 0.959 . S
C1273 H1259 0.961 . S
C1273 C1272 1.502 . S
C1274 H1260 0.960 . S
C1274 H1261 0.961 . S
C1274 H1262 0.959 . S
C1274 C1272 1.561 . S
C1275 C1272 1.526 . S
C1275 C1276 1.396 . S
C1275 C1280 1.390 . S
C1276 C1270 1.465 . S
C1276 C1275 1.396 . S
C1276 C1277 1.399 . S
C1277 H1263 0.929 . S
C1277 C1276 1.399 . S
C1277 C1278 1.385 . S
C1278 H1264 0.931 . S
C1278 C1277 1.385 . S
C1278 C1279 1.389 . S
C1279 C1278 1.389 . S
C1279 C1280 1.387 . S
C1280 H1265 0.930 . S
C1280 C1275 1.390 . S
C1280 C1279 1.387 . S
H1281 C1293 0.930 . S
H1282 C1295 0.930 . S
H1283 C1296 0.930 . S
H1284 C1300 0.959 . S
H1285 C1300 0.959 . S
H1286 C1300 0.961 . S
H1287 C1301 0.960 . S
H1288 C1301 0.961 . S
H1289 C1301 0.959 . S
H1290 C1304 0.929 . S
H1291 C1305 0.931 . S
H1292 C1307 0.930 . S
C1293 H1281 0.930 . S
C1293 C1294 1.399 . S
C1293 C1298 1.399 . S
C1294 C1293 1.399 . S
C1294 C1295 1.376 . S
C1295 H1282 0.930 . S
C1295 C1294 1.376 . S
C1295 C1296 1.388 . S
C1296 H1283 0.930 . S
C1296 C1295 1.388 . S
C1296 C1297 1.390 . S
C1297 C1296 1.390 . S
C1297 C1298 1.394 . S
C1297 C1303 1.465 . S
C1298 C1293 1.399 . S
C1298 C1297 1.394 . S
C1298 C1299 1.516 . S
C1299 C1298 1.516 . S
C1299 C1300 1.502 . S
C1299 C1301 1.561 . S
C1299 C1302 1.526 . S
C1300 H1284 0.959 . S
C1300 H1285 0.959 . S
C1300 H1286 0.961 . S
C1300 C1299 1.502 . S
C1301 H1287 0.960 . S
C1301 H1288 0.961 . S
C1301 H1289 0.959 . S
C1301 C1299 1.561 . S
C1302 C1299 1.526 . S
C1302 C1303 1.396 . S
C1302 C1307 1.390 . S
C1303 C1297 1.465 . S
C1303 C1302 1.396 . S
C1303 C1304 1.399 . S
C1304 H1290 0.929 . S
C1304 C1303 1.399 . S
C1304 C1305 1.385 1_554 S
C1305 H1291 0.931 . S
C1305 C1304 1.385 1_556 S
C1305 C1306 1.389 1_556 S
C1306 C1305 1.389 1_554 S
C1306 C1307 1.387 . S
C1307 H1292 0.930 . S
C1307 C1302 1.390 . S
C1307 C1306 1.387 . S
H1308 C1320 0.930 . S
H1309 C1322 0.930 . S
H1310 C1323 0.930 . S
H1311 C1327 0.959 . S
H1312 C1327 0.959 . S
H1313 C1327 0.961 . S
H1314 C1328 0.960 . S
H1315 C1328 0.961 . S
H1316 C1328 0.959 . S
H1317 C1331 0.929 . S
H1318 C1332 0.931 . S
H1319 C1334 0.930 . S
C1320 H1308 0.930 . S
C1320 C1321 1.399 . S
C1320 C1325 1.399 . S
C1321 C1320 1.399 . S
C1321 C1322 1.376 . S
C1322 H1309 0.930 . S
C1322 C1321 1.376 . S
C1322 C1323 1.388 . S
C1323 H1310 0.930 . S
C1323 C1322 1.388 . S
C1323 C1324 1.390 . S
C1324 C1323 1.390 . S
C1324 C1325 1.394 . S
C1324 C1330 1.465 . S
C1325 C1320 1.399 . S
C1325 C1324 1.394 . S
C1325 C1326 1.516 . S
C1326 C1325 1.516 . S
C1326 C1327 1.502 . S
C1326 C1328 1.561 . S
C1326 C1329 1.526 . S
C1327 H1311 0.959 . S
C1327 H1312 0.959 . S
C1327 H1313 0.961 . S
C1327 C1326 1.502 . S
C1328 H1314 0.960 . S
C1328 H1315 0.961 . S
C1328 H1316 0.959 . S
C1328 C1326 1.561 . S
C1329 C1326 1.526 . S
C1329 C1330 1.396 . S
C1329 C1334 1.390 . S
C1330 C1324 1.465 . S
C1330 C1329 1.396 . S
C1330 C1331 1.399 . S
C1331 H1317 0.929 . S
C1331 C1330 1.399 . S
C1331 C1332 1.385 . S
C1332 H1318 0.931 . S
C1332 C1331 1.385 . S
C1332 C1333 1.389 . S
C1333 C1332 1.389 . S
C1333 C1334 1.387 . S
C1334 H1319 0.930 . S
C1334 C1329 1.390 . S
C1334 C1333 1.387 . S
H1335 C1347 0.930 . S
H1336 C1349 0.930 . S
H1337 C1350 0.930 . S
H1338 C1354 0.959 . S
H1339 C1354 0.959 . S
H1340 C1354 0.961 . S
H1341 C1355 0.960 . S
H1342 C1355 0.961 . S
H1343 C1355 0.959 . S
H1344 C1358 0.929 . S
H1345 C1359 0.931 . S
H1346 C1361 0.930 . S
C1347 H1335 0.930 . S
C1347 C1348 1.399 . S
C1347 C1352 1.399 . S
C1348 C1347 1.399 . S
C1348 C1349 1.376 . S
C1349 H1336 0.930 . S
C1349 C1348 1.376 . S
C1349 C1350 1.388 . S
C1350 H1337 0.930 . S
C1350 C1349 1.388 . S
C1350 C1351 1.390 . S
C1351 C1350 1.390 . S
C1351 C1352 1.394 . S
C1351 C1357 1.465 . S
C1352 C1347 1.399 . S
C1352 C1351 1.394 . S
C1352 C1353 1.516 . S
C1353 C1352 1.516 . S
C1353 C1354 1.502 . S
C1353 C1355 1.561 . S
C1353 C1356 1.526 . S
C1354 H1338 0.959 . S
C1354 H1339 0.959 . S
C1354 H1340 0.961 . S
C1354 C1353 1.502 . S
C1355 H1341 0.960 . S
C1355 H1342 0.961 . S
C1355 H1343 0.959 . S
C1355 C1353 1.561 . S
C1356 C1353 1.526 . S
C1356 C1357 1.396 . S
C1356 C1361 1.390 . S
C1357 C1351 1.465 . S
C1357 C1356 1.396 . S
C1357 C1358 1.399 . S
C1358 H1344 0.929 . S
C1358 C1357 1.399 . S
C1358 C1359 1.385 . S
C1359 H1345 0.931 . S
C1359 C1358 1.385 . S
C1359 C1360 1.389 . S
C1360 C1359 1.389 . S
C1360 C1361 1.387 . S
C1361 H1346 0.930 . S
C1361 C1356 1.390 . S
C1361 C1360 1.387 . S
H1362 C1374 0.930 . S
H1363 C1376 0.930 1_556 S
H1364 C1377 0.930 . S
H1365 C1381 0.959 . S
H1366 C1381 0.959 . S
H1367 C1381 0.961 . S
H1368 C1382 0.960 . S
H1369 C1382 0.961 . S
H1370 C1382 0.959 . S
H1371 C1385 0.929 . S
H1372 C1386 0.931 . S
H1373 C1388 0.930 . S
C1374 H1362 0.930 . S
C1374 C1375 1.399 . S
C1374 C1379 1.399 . S
C1375 C1374 1.399 . S
C1375 C1376 1.376 . S
C1376 H1363 0.930 1_554 S
C1376 C1375 1.376 . S
C1376 C1377 1.388 . S
C1377 H1364 0.930 . S
C1377 C1376 1.388 . S
C1377 C1378 1.390 . S
C1378 C1377 1.390 . S
C1378 C1379 1.394 . S
C1378 C1384 1.465 . S
C1379 C1374 1.399 . S
C1379 C1378 1.394 . S
C1379 C1380 1.516 . S
C1380 C1379 1.516 . S
C1380 C1381 1.502 . S
C1380 C1382 1.561 . S
C1380 C1383 1.526 . S
C1381 H1365 0.959 . S
C1381 H1366 0.959 . S
C1381 H1367 0.961 . S
C1381 C1380 1.502 . S
C1382 H1368 0.960 . S
C1382 H1369 0.961 . S
C1382 H1370 0.959 . S
C1382 C1380 1.561 . S
C1383 C1380 1.526 . S
C1383 C1384 1.396 . S
C1383 C1388 1.390 . S
C1384 C1378 1.465 . S
C1384 C1383 1.396 . S
C1384 C1385 1.399 . S
C1385 H1371 0.929 . S
C1385 C1384 1.399 . S
C1385 C1386 1.385 . S
C1386 H1372 0.931 . S
C1386 C1385 1.385 . S
C1386 C1387 1.389 . S
C1387 C1386 1.389 . S
C1387 C1388 1.387 . S
C1388 H1373 0.930 . S
C1388 C1383 1.390 . S
C1388 C1387 1.387 . S
H1389 C1401 0.930 . S
H1390 C1403 0.930 . S
H1391 C1404 0.930 . S
H1392 C1408 0.959 . S
H1393 C1408 0.959 . S
H1394 C1408 0.961 . S
H1395 C1409 0.960 . S
H1396 C1409 0.961 . S
H1397 C1409 0.959 . S
H1398 C1412 0.929 . S
H1399 C1413 0.931 . S
H1400 C1415 0.930 . S
C1401 H1389 0.930 . S
C1401 C1402 1.399 . S
C1401 C1406 1.399 . S
C1402 C1401 1.399 . S
C1402 C1403 1.376 . S
C1403 H1390 0.930 . S
C1403 C1402 1.376 . S
C1403 C1404 1.388 . S
C1404 H1391 0.930 . S
C1404 C1403 1.388 . S
C1404 C1405 1.390 . S
C1405 C1404 1.390 . S
C1405 C1406 1.394 . S
C1405 C1411 1.465 . S
C1406 C1401 1.399 . S
C1406 C1405 1.394 . S
C1406 C1407 1.516 . S
C1407 C1406 1.516 . S
C1407 C1408 1.502 . S
C1407 C1409 1.561 . S
C1407 C1410 1.526 . S
C1408 H1392 0.959 . S
C1408 H1393 0.959 . S
C1408 H1394 0.961 . S
C1408 C1407 1.502 . S
C1409 H1395 0.960 . S
C1409 H1396 0.961 . S
C1409 H1397 0.959 . S
C1409 C1407 1.561 . S
C1410 C1407 1.526 . S
C1410 C1411 1.396 . S
C1410 C1415 1.390 . S
C1411 C1405 1.465 . S
C1411 C1410 1.396 . S
C1411 C1412 1.399 . S
C1412 H1398 0.929 . S
C1412 C1411 1.399 . S
C1412 C1413 1.385 . S
C1413 H1399 0.931 . S
C1413 C1412 1.385 . S
C1413 C1414 1.389 . S
C1414 C1413 1.389 . S
C1414 C1415 1.387 . S
C1415 H1400 0.930 . S
C1415 C1410 1.390 . S
C1415 C1414 1.387 . S
H1416 C1428 0.930 . S
H1417 C1430 0.930 . S
H1418 C1431 0.930 . S
H1419 C1435 0.959 . S
H1420 C1435 0.959 . S
H1421 C1435 0.961 . S
H1422 C1436 0.960 . S
H1423 C1436 0.961 . S
H1424 C1436 0.959 . S
H1425 C1439 0.929 . S
H1426 C1440 0.931 . S
H1427 C1442 0.930 1_554 S
C1428 H1416 0.930 . S
C1428 C1429 1.399 . S
C1428 C1433 1.399 . S
C1429 C1428 1.399 . S
C1429 C1430 1.376 . S
C1430 H1417 0.930 . S
C1430 C1429 1.376 . S
C1430 C1431 1.388 . S
C1431 H1418 0.930 . S
C1431 C1430 1.388 . S
C1431 C1432 1.390 . S
C1432 C1431 1.390 . S
C1432 C1433 1.394 . S
C1432 C1438 1.465 . S
C1433 C1428 1.399 . S
C1433 C1432 1.394 . S
C1433 C1434 1.516 . S
C1434 C1433 1.516 . S
C1434 C1435 1.502 . S
C1434 C1436 1.561 . S
C1434 C1437 1.526 . S
C1435 H1419 0.959 . S
C1435 H1420 0.959 . S
C1435 H1421 0.961 . S
C1435 C1434 1.502 . S
C1436 H1422 0.960 . S
C1436 H1423 0.961 . S
C1436 H1424 0.959 . S
C1436 C1434 1.561 . S
C1437 C1434 1.526 . S
C1437 C1438 1.396 . S
C1437 C1442 1.390 . S
C1438 C1432 1.465 . S
C1438 C1437 1.396 . S
C1438 C1439 1.399 . S
C1439 H1425 0.929 . S
C1439 C1438 1.399 . S
C1439 C1440 1.385 . S
C1440 H1426 0.931 . S
C1440 C1439 1.385 . S
C1440 C1441 1.389 . S
C1441 C1440 1.389 . S
C1441 C1442 1.387 . S
C1442 H1427 0.930 1_556 S
C1442 C1437 1.390 . S
C1442 C1441 1.387 . S
H1443 C1455 0.930 . S
H1444 C1457 0.930 . S
H1445 C1458 0.930 . S
H1446 C1462 0.959 . S
H1447 C1462 0.959 . S
H1448 C1462 0.961 . S
H1449 C1463 0.960 . S
H1450 C1463 0.961 . S
H1451 C1463 0.959 . S
H1452 C1466 0.929 . S
H1453 C1467 0.931 . S
H1454 C1469 0.930 . S
C1455 H1443 0.930 . S
C1455 C1456 1.399 . S
C1455 C1460 1.399 . S
C1456 C1455 1.399 . S
C1456 C1457 1.376 . S
C1457 H1444 0.930 . S
C1457 C1456 1.376 . S
C1457 C1458 1.388 . S
C1458 H1445 0.930 . S
C1458 C1457 1.388 . S
C1458 C1459 1.390 . S
C1459 C1458 1.390 . S
C1459 C1460 1.394 . S
C1459 C1465 1.465 . S
C1460 C1455 1.399 . S
C1460 C1459 1.394 . S
C1460 C1461 1.516 . S
C1461 C1460 1.516 . S
C1461 C1462 1.502 . S
C1461 C1463 1.561 . S
C1461 C1464 1.526 . S
C1462 H1446 0.959 . S
C1462 H1447 0.959 . S
C1462 H1448 0.961 . S
C1462 C1461 1.502 . S
C1463 H1449 0.960 . S
C1463 H1450 0.961 . S
C1463 H1451 0.959 . S
C1463 C1461 1.561 . S
C1464 C1461 1.526 . S
C1464 C1465 1.396 . S
C1464 C1469 1.390 . S
C1465 C1459 1.465 . S
C1465 C1464 1.396 . S
C1465 C1466 1.399 . S
C1466 H1452 0.929 . S
C1466 C1465 1.399 . S
C1466 C1467 1.385 1_554 S
C1467 H1453 0.931 . S
C1467 C1466 1.385 1_556 S
C1467 C1468 1.389 1_556 S
C1468 C1467 1.389 1_554 S
C1468 C1469 1.387 . S
C1469 H1454 0.930 . S
C1469 C1464 1.390 . S
C1469 C1468 1.387 . S
H1470 C1482 0.930 . S
H1471 C1484 0.930 . S
H1472 C1485 0.930 . S
H1473 C1489 0.959 . S
H1474 C1489 0.959 . S
H1475 C1489 0.961 . S
H1476 C1490 0.960 . S
H1477 C1490 0.961 . S
H1478 C1490 0.959 . S
H1479 C1493 0.929 . S
H1480 C1494 0.931 . S
H1481 C1496 0.930 . S
C1482 H1470 0.930 . S
C1482 C1483 1.399 . S
C1482 C1487 1.399 . S
C1483 C1482 1.399 . S
C1483 C1484 1.376 . S
C1484 H1471 0.930 . S
C1484 C1483 1.376 . S
C1484 C1485 1.388 . S
C1485 H1472 0.930 . S
C1485 C1484 1.388 . S
C1485 C1486 1.390 . S
C1486 C1485 1.390 . S
C1486 C1487 1.394 . S
C1486 C1492 1.465 . S
C1487 C1482 1.399 . S
C1487 C1486 1.394 . S
C1487 C1488 1.516 . S
C1488 C1487 1.516 . S
C1488 C1489 1.502 . S
C1488 C1490 1.561 . S
C1488 C1491 1.526 . S
C1489 H1473 0.959 . S
C1489 H1474 0.959 . S
C1489 H1475 0.961 . S
C1489 C1488 1.502 . S
C1490 H1476 0.960 . S
C1490 H1477 0.961 . S
C1490 H1478 0.959 . S
C1490 C1488 1.561 . S
C1491 C1488 1.526 . S
C1491 C1492 1.396 . S
C1491 C1496 1.390 . S
C1492 C1486 1.465 . S
C1492 C1491 1.396 . S
C1492 C1493 1.399 . S
C1493 H1479 0.929 . S
C1493 C1492 1.399 . S
C1493 C1494 1.385 . S
C1494 H1480 0.931 . S
C1494 C1493 1.385 . S
C1494 C1495 1.389 . S
C1495 C1494 1.389 . S
C1495 C1496 1.387 . S
C1496 H1481 0.930 . S
C1496 C1491 1.390 . S
C1496 C1495 1.387 . S
H1497 C1509 0.930 . S
H1498 C1511 0.930 . S
H1499 C1512 0.930 . S
H1500 C1516 0.959 . S
H1501 C1516 0.959 . S
H1502 C1516 0.961 . S
H1503 C1517 0.960 . S
H1504 C1517 0.961 . S
H1505 C1517 0.959 . S
H1506 C1520 0.929 . S
H1507 C1521 0.931 . S
H1508 C1523 0.930 . S
C1509 H1497 0.930 . S
C1509 C1510 1.399 . S
C1509 C1514 1.399 . S
C1510 C1509 1.399 . S
C1510 C1511 1.376 . S
C1511 H1498 0.930 . S
C1511 C1510 1.376 . S
C1511 C1512 1.388 . S
C1512 H1499 0.930 . S
C1512 C1511 1.388 . S
C1512 C1513 1.390 . S
C1513 C1512 1.390 . S
C1513 C1514 1.394 . S
C1513 C1519 1.465 . S
C1514 C1509 1.399 . S
C1514 C1513 1.394 . S
C1514 C1515 1.516 . S
C1515 C1514 1.516 . S
C1515 C1516 1.502 . S
C1515 C1517 1.561 . S
C1515 C1518 1.526 . S
C1516 H1500 0.959 . S
C1516 H1501 0.959 . S
C1516 H1502 0.961 . S
C1516 C1515 1.502 . S
C1517 H1503 0.960 . S
C1517 H1504 0.961 . S
C1517 H1505 0.959 . S
C1517 C1515 1.561 . S
C1518 C1515 1.526 . S
C1518 C1519 1.396 . S
C1518 C1523 1.390 . S
C1519 C1513 1.465 . S
C1519 C1518 1.396 . S
C1519 C1520 1.399 . S
C1520 H1506 0.929 . S
C1520 C1519 1.399 . S
C1520 C1521 1.385 . S
C1521 H1507 0.931 . S
C1521 C1520 1.385 . S
C1521 C1522 1.389 . S
C1522 C1521 1.389 . S
C1522 C1523 1.387 . S
C1523 H1508 0.930 . S
C1523 C1518 1.390 . S
C1523 C1522 1.387 . S
H1524 C1536 0.930 . S
H1525 C1538 0.930 . S
H1526 C1539 0.930 . S
H1527 C1543 0.959 . S
H1528 C1543 0.959 . S
H1529 C1543 0.961 . S
H1530 C1544 0.960 . S
H1531 C1544 0.961 . S
H1532 C1544 0.959 . S
H1533 C1547 0.929 . S
H1534 C1548 0.914 1_556 S
H1535 C1550 0.930 . S
C1536 H1524 0.930 . S
C1536 C1537 1.399 . S
C1536 C1541 1.399 . S
C1537 C1536 1.399 . S
C1537 C1538 1.376 . S
C1538 H1525 0.930 . S
C1538 C1537 1.376 . S
C1538 C1539 1.388 . S
C1539 H1526 0.930 . S
C1539 C1538 1.388 . S
C1539 C1540 1.390 . S
C1540 C1539 1.390 . S
C1540 C1541 1.394 . S
C1540 C1546 1.465 . S
C1541 C1536 1.399 . S
C1541 C1540 1.394 . S
C1541 C1542 1.516 . S
C1542 C1541 1.516 . S
C1542 C1543 1.502 . S
C1542 C1544 1.561 . S
C1542 C1545 1.526 . S
C1543 H1527 0.959 . S
C1543 H1528 0.959 . S
C1543 H1529 0.961 . S
C1543 C1542 1.502 . S
C1544 H1530 0.960 . S
C1544 H1531 0.961 . S
C1544 H1532 0.959 . S
C1544 C1542 1.561 . S
C1545 C1542 1.526 . S
C1545 C1546 1.396 . S
C1545 C1550 1.390 . S
C1546 C1540 1.465 . S
C1546 C1545 1.396 . S
C1546 C1547 1.399 . S
C1547 H1533 0.929 . S
C1547 C1546 1.399 . S
C1547 C1548 1.397 . S
C1548 H1534 0.914 1_554 S
C1548 C1547 1.397 . S
C1548 C1549 1.394 . S
C1549 C1548 1.394 . S
C1549 C1550 1.387 . S
C1550 H1535 0.930 . S
C1550 C1545 1.390 . S
C1550 C1549 1.387 . S
H1551 C1563 0.930 . S
H1552 C1565 0.930 . S
H1553 C1566 0.930 . S
H1554 C1570 0.959 . S
H1555 C1570 0.959 . S
H1556 C1570 0.961 . S
H1557 C1571 0.960 . S
H1558 C1571 0.961 . S
H1559 C1571 0.959 . S
H1560 C1574 0.929 . S
H1561 C1575 0.931 . S
H1562 C1577 0.930 . S
C1563 H1551 0.930 . S
C1563 C1564 1.399 . S
C1563 C1568 1.399 . S
C1564 C1563 1.399 . S
C1564 C1565 1.376 1_556 S
C1565 H1552 0.930 . S
C1565 C1564 1.376 1_554 S
C1565 C1566 1.388 1_554 S
C1566 H1553 0.930 . S
C1566 C1565 1.388 1_556 S
C1566 C1567 1.390 . S
C1567 C1566 1.390 . S
C1567 C1568 1.394 . S
C1567 C1573 1.465 . S
C1568 C1563 1.399 . S
C1568 C1567 1.394 . S
C1568 C1569 1.516 . S
C1569 C1568 1.516 . S
C1569 C1570 1.502 . S
C1569 C1571 1.561 . S
C1569 C1572 1.526 . S
C1570 H1554 0.959 . S
C1570 H1555 0.959 . S
C1570 H1556 0.961 . S
C1570 C1569 1.502 . S
C1571 H1557 0.960 . S
C1571 H1558 0.961 . S
C1571 H1559 0.959 . S
C1571 C1569 1.561 . S
C1572 C1569 1.526 . S
C1572 C1573 1.396 . S
C1572 C1577 1.390 . S
C1573 C1567 1.465 . S
C1573 C1572 1.396 . S
C1573 C1574 1.399 . S
C1574 H1560 0.929 . S
C1574 C1573 1.399 . S
C1574 C1575 1.385 . S
C1575 H1561 0.931 . S
C1575 C1574 1.385 . S
C1575 C1576 1.389 . S
C1576 C1575 1.389 . S
C1576 C1577 1.387 . S
C1577 H1562 0.930 . S
C1577 C1572 1.390 . S
C1577 C1576 1.387 . S
H1578 C1590 0.930 . S
H1579 C1592 0.930 . S
H1580 C1593 0.930 . S
H1581 C1597 0.959 . S
H1582 C1597 0.959 . S
H1583 C1597 0.961 . S
H1584 C1598 0.960 . S
H1585 C1598 0.961 . S
H1586 C1598 0.959 . S
H1587 C1601 0.929 . S
H1588 C1602 0.931 . S
H1589 C1604 0.930 . S
C1590 H1578 0.930 . S
C1590 C1591 1.399 . S
C1590 C1595 1.399 . S
C1591 C1590 1.399 . S
C1591 C1592 1.376 . S
C1592 H1579 0.930 . S
C1592 C1591 1.376 . S
C1592 C1593 1.388 . S
C1593 H1580 0.930 . S
C1593 C1592 1.388 . S
C1593 C1594 1.390 . S
C1594 C1593 1.390 . S
C1594 C1595 1.394 . S
C1594 C1600 1.465 . S
C1595 C1590 1.399 . S
C1595 C1594 1.394 . S
C1595 C1596 1.516 . S
C1596 C1595 1.516 . S
C1596 C1597 1.502 . S
C1596 C1598 1.561 . S
C1596 C1599 1.526 . S
C1597 H1581 0.959 . S
C1597 H1582 0.959 . S
C1597 H1583 0.961 . S
C1597 C1596 1.502 . S
C1598 H1584 0.960 . S
C1598 H1585 0.961 . S
C1598 H1586 0.959 . S
C1598 C1596 1.561 . S
C1599 C1596 1.526 . S
C1599 C1600 1.396 . S
C1599 C1604 1.390 . S
C1600 C1594 1.465 . S
C1600 C1599 1.396 . S
C1600 C1601 1.399 . S
C1601 H1587 0.929 . S
C1601 C1600 1.399 . S
C1601 C1602 1.385 . S
C1602 H1588 0.931 . S
C1602 C1601 1.385 . S
C1602 C1603 1.389 . S
C1603 C1602 1.389 . S
C1603 C1604 1.387 . S
C1604 H1589 0.930 . S
C1604 C1599 1.390 . S
C1604 C1603 1.387 . S
H1605 C1617 0.930 . S
H1606 C1619 0.930 . S
H1607 C1620 0.930 . S
H1608 C1624 0.959 . S
H1609 C1624 0.959 . S
H1610 C1624 0.961 . S
H1611 C1625 0.960 . S
H1612 C1625 0.961 . S
H1613 C1625 0.959 . S
H1614 C1628 0.929 . S
H1615 C1629 0.931 . S
H1616 C1631 0.930 . S
C1617 H1605 0.930 . S
C1617 C1618 1.399 . S
C1617 C1622 1.399 . S
C1618 C1617 1.399 . S
C1618 C1619 1.376 . S
C1619 H1606 0.930 . S
C1619 C1618 1.376 . S
C1619 C1620 1.388 . S
C1620 H1607 0.930 . S
C1620 C1619 1.388 . S
C1620 C1621 1.390 . S
C1621 C1620 1.390 . S
C1621 C1622 1.394 . S
C1621 C1627 1.465 . S
C1622 C1617 1.399 . S
C1622 C1621 1.394 . S
C1622 C1623 1.516 . S
C1623 C1622 1.516 . S
C1623 C1624 1.502 . S
C1623 C1625 1.561 . S
C1623 C1626 1.526 . S
C1624 H1608 0.959 . S
C1624 H1609 0.959 . S
C1624 H1610 0.961 . S
C1624 C1623 1.502 . S
C1625 H1611 0.960 . S
C1625 H1612 0.961 . S
C1625 H1613 0.959 . S
C1625 C1623 1.561 . S
C1626 C1623 1.526 . S
C1626 C1627 1.396 . S
C1626 C1631 1.390 . S
C1627 C1621 1.465 . S
C1627 C1626 1.396 . S
C1627 C1628 1.399 . S
C1628 H1614 0.929 . S
C1628 C1627 1.399 . S
C1628 C1629 1.385 . S
C1629 H1615 0.931 . S
C1629 C1628 1.385 . S
C1629 C1630 1.389 . S
C1630 C1629 1.389 . S
C1630 C1631 1.387 . S
C1631 H1616 0.930 . S
C1631 C1626 1.390 . S
C1631 C1630 1.387 . S
C349 C14 1.297 1_556 S
C361 C164 1.325 . S
C376 C38 1.310 . S
C388 C98 1.304 1_554 S
C403 C119 1.382 . S
C415 C56 1.318 . S
C430 C77 1.390 . S
C442 C140 1.325 . S
C457 C249 1.207 . S
C469 C102 1.210 1_554 S
C484 C186 1.309 . S
C496 C18 1.308 1_556 S
C511 C225 1.278 . S
C523 C144 1.275 . S
C538 C60 1.229 . S
C550 C204 1.227 . S
C565 C206 1.313 . S
C577 C266 1.377 . S
C592 C227 1.388 . S
C604 C308 1.323 . S
C619 C287 1.375 1_556 S
C631 C182 1.425 . S
C646 C245 1.351 . S
C658 C329 1.302 1_554 S
C673 C312 1.239 . S
C685 C81 1.237 . S
C700 C270 1.215 . S
C712 C123 1.218 . S
C727 C36 1.173 . S
C739 C333 1.176 1_554 S
C754 C162 1.276 . S
C766 C291 1.273 1_556 S
C781 C286 0.852 . S
C793 C13 0.849 . S
C808 C244 0.850 . S
C820 C37 0.850 . S
C835 C265 0.911 . S
C847 C55 0.871 . S
C862 C226 1.017 . S
C874 C76 1.047 . S
C889 C97 1.026 . S
C901 C328 1.052 . S
C916 C205 0.893 . S
C928 C118 0.860 . S
C943 C139 1.030 . S
C955 C307 1.054 . S
C970 C163 0.994 . S
C982 C181 1.032 . S
C997 C16 1.129 . S
C1009 C100 1.038 . S
C1024 C34 1.109 . S
C1036 C121 1.053 . S
C1051 C142 1.051 . S
C1063 C58 1.136 . S
C1078 C79 1.130 . S
C1090 C160 1.062 . S
C1105 C223 1.128 . S
C1117 C184 1.065 . S
C1132 C247 1.042 . S
C1144 C202 1.121 . S
C1159 C268 1.126 . S
C1171 C310 1.041 . S
C1186 C331 1.100 . S
C1198 C289 1.061 . S
C1213 C17 1.430 . S
C1225 C161 1.398 . S
C1240 C35 1.408 . S
C1252 C101 1.402 . S
C1267 C122 1.402 1_556 S
C1279 C59 1.408 . S
C1294 C143 1.393 . S
C1306 C80 1.429 1_554 S
C1321 C246 1.300 . S
C1333 C99 1.341 . S
C1348 C183 1.343 . S
C1360 C15 1.334 . S
C1375 C228 1.346 1_554 S
C1387 C141 1.326 . S
C1402 C57 1.294 . S
C1414 C207 1.288 1_556 S
C1429 C269 1.427 . S
C1441 C203 1.393 1_556 S
C1456 C311 1.392 . S
C1468 C224 1.424 1_554 S
C1483 C290 1.430 . S
C1495 C185 1.395 . S
C1510 C332 1.393 . S
C1522 C248 1.429 . S
C1537 C309 1.286 . S
C1549 C78 1.326 1_554 S
C1564 C120 1.341 1_556 S
C1576 C267 1.300 . S
C1591 C39 1.314 . S
C1603 C330 1.284 . S
C1618 C288 1.287 . S
C1630 C165 1.296 . S
