# Generated by pormake.
# Topology une, (4)-cn, num edge types: 1
# Building blocks:
#     Node 0, Type 0, BuildingBlock: QUQFOY_clean_sbu_3, # of connection points: 4
#     Node 1, Type 0, BuildingBlock: QUQFOY_clean_sbu_3, # of connection points: 4
#     Node 2, Type 0, BuildingBlock: QUQFOY_clean_sbu_3, # of connection points: 4
#     Node 3, Type 0, BuildingBlock: QUQFOY_clean_sbu_3, # of connection points: 4
#     Node 4, Type 0, BuildingBlock: QUQFOY_clean_sbu_3, # of connection points: 4
#     Node 5, Type 0, BuildingBlock: QUQFOY_clean_sbu_3, # of connection points: 4
#     Node 6, Type 0, BuildingBlock: QUQFOY_clean_sbu_3, # of connection points: 4
#     Node 7, Type 0, BuildingBlock: QUQFOY_clean_sbu_3, # of connection points: 4
#     Node 8, Type 0, BuildingBlock: QUQFOY_clean_sbu_3, # of connection points: 4
#     Node 9, Type 0, BuildingBlock: QUQFOY_clean_sbu_3, # of connection points: 4
#     Node 10, Type 0, BuildingBlock: QUQFOY_clean_sbu_3, # of connection points: 4
#     Node 11, Type 0, BuildingBlock: QUQFOY_clean_sbu_3, # of connection points: 4
#     Node 12, Type 0, BuildingBlock: QUQFOY_clean_sbu_3, # of connection points: 4
#     Node 13, Type 0, BuildingBlock: QUQFOY_clean_sbu_3, # of connection points: 4
#     Node 14, Type 0, BuildingBlock: QUQFOY_clean_sbu_3, # of connection points: 4
#     Node 15, Type 0, BuildingBlock: QUQFOY_clean_sbu_3, # of connection points: 4
#     Node 16, Type 0, BuildingBlock: QUQFOY_clean_sbu_3, # of connection points: 4
#     Node 17, Type 0, BuildingBlock: QUQFOY_clean_sbu_3, # of connection points: 4
#     Edge 18, Type (0, 0), BuildingBlock: TEMPAE_clean_linker_10, # of connection points: 2
#     Edge 19, Type (0, 0), BuildingBlock: TEMPAE_clean_linker_10, # of connection points: 2
#     Edge 20, Type (0, 0), BuildingBlock: TEMPAE_clean_linker_10, # of connection points: 2
#     Edge 21, Type (0, 0), BuildingBlock: TEMPAE_clean_linker_10, # of connection points: 2
#     Edge 22, Type (0, 0), BuildingBlock: TEMPAE_clean_linker_10, # of connection points: 2
#     Edge 23, Type (0, 0), BuildingBlock: TEMPAE_clean_linker_10, # of connection points: 2
#     Edge 24, Type (0, 0), BuildingBlock: TEMPAE_clean_linker_10, # of connection points: 2
#     Edge 25, Type (0, 0), BuildingBlock: TEMPAE_clean_linker_10, # of connection points: 2
#     Edge 26, Type (0, 0), BuildingBlock: TEMPAE_clean_linker_10, # of connection points: 2
#     Edge 27, Type (0, 0), BuildingBlock: TEMPAE_clean_linker_10, # of connection points: 2
#     Edge 28, Type (0, 0), BuildingBlock: TEMPAE_clean_linker_10, # of connection points: 2
#     Edge 29, Type (0, 0), BuildingBlock: TEMPAE_clean_linker_10, # of connection points: 2
#     Edge 30, Type (0, 0), BuildingBlock: TEMPAE_clean_linker_10, # of connection points: 2
#     Edge 31, Type (0, 0), BuildingBlock: TEMPAE_clean_linker_10, # of connection points: 2
#     Edge 32, Type (0, 0), BuildingBlock: TEMPAE_clean_linker_10, # of connection points: 2
#     Edge 33, Type (0, 0), BuildingBlock: TEMPAE_clean_linker_10, # of connection points: 2
#     Edge 34, Type (0, 0), BuildingBlock: TEMPAE_clean_linker_10, # of connection points: 2
#     Edge 35, Type (0, 0), BuildingBlock: TEMPAE_clean_linker_10, # of connection points: 2
#     Edge 36, Type (0, 0), BuildingBlock: TEMPAE_clean_linker_10, # of connection points: 2
#     Edge 37, Type (0, 0), BuildingBlock: TEMPAE_clean_linker_10, # of connection points: 2
#     Edge 38, Type (0, 0), BuildingBlock: TEMPAE_clean_linker_10, # of connection points: 2
#     Edge 39, Type (0, 0), BuildingBlock: TEMPAE_clean_linker_10, # of connection points: 2
#     Edge 40, Type (0, 0), BuildingBlock: TEMPAE_clean_linker_10, # of connection points: 2
#     Edge 41, Type (0, 0), BuildingBlock: TEMPAE_clean_linker_10, # of connection points: 2
#     Edge 42, Type (0, 0), BuildingBlock: TEMPAE_clean_linker_10, # of connection points: 2
#     Edge 43, Type (0, 0), BuildingBlock: TEMPAE_clean_linker_10, # of connection points: 2
#     Edge 44, Type (0, 0), BuildingBlock: TEMPAE_clean_linker_10, # of connection points: 2
#     Edge 45, Type (0, 0), BuildingBlock: TEMPAE_clean_linker_10, # of connection points: 2
#     Edge 46, Type (0, 0), BuildingBlock: TEMPAE_clean_linker_10, # of connection points: 2
#     Edge 47, Type (0, 0), BuildingBlock: TEMPAE_clean_linker_10, # of connection points: 2
#     Edge 48, Type (0, 0), BuildingBlock: TEMPAE_clean_linker_10, # of connection points: 2
#     Edge 49, Type (0, 0), BuildingBlock: TEMPAE_clean_linker_10, # of connection points: 2
#     Edge 50, Type (0, 0), BuildingBlock: TEMPAE_clean_linker_10, # of connection points: 2
#     Edge 51, Type (0, 0), BuildingBlock: TEMPAE_clean_linker_10, # of connection points: 2
#     Edge 52, Type (0, 0), BuildingBlock: TEMPAE_clean_linker_10, # of connection points: 2
#     Edge 53, Type (0, 0), BuildingBlock: TEMPAE_clean_linker_10, # of connection points: 2
# Relax obj value: 0.247
# Max RMSD: 0.167
# Mean RMSD: 0.158
data_MOF--net-une--node1-QUQFOY_clean_sbu_3--edge1-TEMPAE_clean_linker_10
_symmetry_space_group_name_H-M    P1
_symmetry_Int_Tables_number       1
_symmetry_cell_setting            triclinic
loop_
_symmetry_equiv_pos_as_xyz
'x, y, z'
_cell_length_a     39.847663
_cell_length_b     40.34709
_cell_length_c     56.973501
_cell_angle_alpha  90.055077
_cell_angle_beta   89.458897
_cell_angle_gamma 120.37758
loop_
_atom_site_label
_atom_site_type_symbol
_atom_site_fract_x
_atom_site_fract_y
_atom_site_fract_z
_atom_type_partial_charge
C0 C 0.43365 0.05276 0.98754 0.0
O1 O 0.43515 0.07327 0.97028 0.0
Cd2 Cd 0.38247 0.08464 0.96493 0.0
O3 O 0.40955 0.0459 0.00437 0.0
Cd4 Cd 0.36141 0.06704 0.01495 0.0
C5 C 0.30524 -0.00452 0.97965 0.0
O6 O 0.37806 0.12597 -0.00675 0.0
O7 O 0.31686 0.08591 -0.00062 0.0
O8 O 0.38989 0.10683 0.04962 0.0
C9 C 0.34352 0.11989 -0.00563 0.0
O10 O 0.3248 0.0203 0.96382 0.0
C11 C 0.36076 0.08768 0.06311 0.0
O12 O 0.31272 0.0037 0.00127 0.0
O13 O 0.33347 0.05608 0.05519 0.0
C14 C 0.81589 0.23791 0.07306 0.0
O15 O 0.84421 0.23167 0.07422 0.0
Cd16 Cd 0.90543 0.24791 0.05519 0.0
O17 O 0.81463 0.2602 0.05746 0.0
Cd18 Cd 0.86319 0.29832 0.02543 0.0
C19 C 0.86525 0.21701 0.002 0.0
O20 O 0.91954 0.30761 0.04332 0.0
O21 O 0.92848 0.36063 0.0304 0.0
O22 O 0.84606 0.34549 0.01204 0.0
C23 C 0.94292 0.34265 0.04012 0.0
O24 O 0.88478 0.21389 0.01855 0.0
C25 C 0.85192 0.34151 0.99041 0.0
O26 O 0.85531 0.24256 0.0024 0.0
O27 O 0.85812 0.31435 0.98531 0.0
C28 C 0.64261 0.5735 0.07187 0.0
O29 O 0.65527 0.55788 0.05773 0.0
Cd30 Cd 0.72088 0.58576 0.04443 0.0
O31 O 0.66594 0.6029 0.08391 0.0
Cd32 Cd 0.73842 0.6421 0.0903 0.0
C33 C 0.73302 0.67661 0.03726 0.0
O34 O 0.76035 0.59852 0.07753 0.0
O35 O 0.80274 0.65882 0.07635 0.0
O36 O 0.74084 0.6384 0.13334 0.0
C37 C 0.79514 0.62462 0.07332 0.0
O38 O 0.7297 0.64597 0.02854 0.0
C39 C 0.7632 0.67444 0.13595 0.0
O40 O 0.73571 0.68224 0.05938 0.0
O41 O 0.77049 0.69525 0.11774 0.0
C42 C 0.56686 0.89998 0.95576 0.0
O43 O 0.57833 0.88938 0.97341 0.0
Cd44 Cd 0.62734 0.87276 0.975 0.0
O45 O 0.57866 0.89827 0.93502 0.0
Cd46 Cd 0.62618 0.87839 0.91903 0.0
C47 C 0.69537 0.9561 0.9466 0.0
O48 O 0.61895 0.82801 0.94582 0.0
O49 O 0.67542 0.86244 0.92966 0.0
O50 O 0.59114 0.83159 0.88803 0.0
C51 C 0.65257 0.83306 0.94175 0.0
O52 O 0.68301 0.93485 0.96486 0.0
C53 C 0.61607 0.84985 0.87193 0.0
O54 O 0.67903 0.94387 0.92681 0.0
O55 O 0.64311 0.88359 0.87692 0.0
C56 C 0.013 0.58184 0.9055 0.0
O57 O 0.04703 0.59505 0.91347 0.0
Cd58 Cd 0.06912 0.65322 0.93494 0.0
O59 O 0.00083 0.6049 0.90107 0.0
Cd60 Cd 0.02859 0.67604 0.90101 0.0
C61 C -0.02055 0.64142 0.95011 0.0
O62 O 0.09705 0.71259 0.91402 0.0
O63 O 0.05715 0.73058 0.92643 0.0
O64 O 0.0427 0.69017 0.85928 0.0
C65 C 0.09191 0.73773 0.92436 0.0
O66 O 0.0098 0.64033 0.95565 0.0
C67 C 0.02447 0.70834 0.85723 0.0
O68 O -0.02331 0.65351 0.92996 0.0
O69 O 0.00491 0.70824 0.87504 0.0
C70 C 0.36187 0.46438 0.03436 0.0
O71 O 0.33947 0.44456 0.05111 0.0
Cd72 Cd 0.274 0.39455 0.04944 0.0
O73 O 0.3493 0.45915 0.01328 0.0
Cd74 Cd 0.28275 0.4129 -0.00351 0.0
C75 C 0.2866 0.33436 0.01356 0.0
O76 O 0.24234 0.41977 0.02636 0.0
O77 O 0.21335 0.36944 0.00469 0.0
O78 O 0.27117 0.44982 0.96635 0.0
C79 C 0.21072 0.39231 0.01883 0.0
O80 O 0.27705 0.33949 0.03403 0.0
C81 C 0.26723 0.42721 0.94968 0.0
O82 O 0.29228 0.35795 -0.00289 0.0
O83 O 0.27538 0.40131 0.95421 0.0
C84 C 0.09463 0.3847 0.31837 0.0
O85 O 0.08991 0.40333 0.3021 0.0
Cd86 Cd 0.03705 0.41426 0.30035 0.0
O87 O 0.07359 0.37572 0.33701 0.0
Cd88 Cd 0.0187 0.38721 0.34973 0.0
C89 C 0.9663 0.32078 0.31012 0.0
O90 O 0.03251 0.44891 0.33303 0.0
O91 O 0.97213 0.40451 0.33539 0.0
O92 O 0.03937 0.41319 0.38984 0.0
C93 C -0.00294 0.43998 0.33351 0.0
O94 O -0.01791 0.34905 0.29587 0.0
C95 C 0.00563 0.39284 0.39889 0.0
O96 O 0.97565 0.3254 0.33168 0.0
O97 O -0.01993 0.3668 0.38599 0.0
C98 C 0.47034 0.59337 0.42017 0.0
O99 O 0.50232 0.59474 0.42418 0.0
Cd100 Cd 0.55681 0.61297 0.39907 0.0
O101 O 0.46518 0.60657 0.40098 0.0
Cd102 Cd 0.50948 0.64007 0.36606 0.0
C103 C 0.50372 0.55524 0.35347 0.0
O104 O 0.57391 0.67358 0.38363 0.0
O105 O 0.57227 0.66248 0.34667 0.0
O106 O 0.50206 0.69593 0.35885 0.0
C107 C 0.59257 0.67845 0.36462 0.0
O108 O 0.52983 0.56343 0.36881 0.0
C109 C 0.49319 0.6879 0.33736 0.0
O110 O 0.48981 0.57713 0.35004 0.0
O111 O 0.48657 0.65518 0.3305 0.0
C112 C 0.28627 0.87857 0.41355 0.0
O113 O 0.30119 0.86643 0.3985 0.0
Cd114 Cd 0.36609 0.90227 0.38373 0.0
O115 O 0.30773 0.90836 0.42587 0.0
Cd116 Cd 0.37981 0.95403 0.43064 0.0
C117 C 0.3649 -0.01253 0.37997 0.0
O118 O 0.41066 0.91957 0.4146 0.0
O119 O 0.44303 0.98145 0.41267 0.0
O120 O 0.39046 0.95003 0.47288 0.0
C121 C 0.44228 0.95003 0.40944 0.0
O122 O 0.36571 0.9595 0.37009 0.0
C123 C 0.40878 -0.01372 0.47581 0.0
O124 O 0.36798 -0.00814 0.40218 0.0
O125 O 0.4091 0.00655 0.45865 0.0
C126 C 0.22626 0.23353 0.28017 0.0
O127 O 0.21968 0.21027 0.2969 0.0
Cd128 Cd 0.2694 0.19717 0.3076 0.0
O129 O 0.25339 0.24126 0.26518 0.0
Cd130 Cd 0.29931 0.21629 0.25608 0.0
C131 C 0.34973 0.28635 0.29369 0.0
O132 O 0.27703 0.15789 0.27975 0.0
O133 O 0.33896 0.19466 0.27495 0.0
O134 O 0.27667 0.18662 0.21695 0.0
C135 C 0.31091 0.16277 0.28202 0.0
O136 O 0.32711 0.26182 0.3089 0.0
C137 C 0.31079 0.20212 0.20811 0.0
O138 O 0.34601 0.27818 0.27193 0.0
O139 O 0.3383 0.22668 0.22069 0.0
C140 C 0.65184 0.91514 0.24058 0.0
O141 O 0.6864 0.92612 0.24682 0.0
Cd142 Cd 0.7188 -0.01191 0.26502 0.0
O143 O 0.64241 0.94014 0.2357 0.0
Cd144 Cd 0.67527 0.01124 0.23224 0.0
C145 C 0.63536 0.98557 0.28488 0.0
O146 O 0.74547 0.04449 0.24121 0.0
O147 O 0.71109 0.06855 0.25438 0.0
O148 O 0.68244 0.01982 0.18984 0.0
C149 C 0.74437 0.07234 0.25104 0.0
O150 O 0.6655 0.98326 0.28897 0.0
C151 C 0.66587 0.03967 0.18844 0.0
O152 O 0.62969 -0.00493 0.2646 0.0
O153 O 0.65012 0.04295 0.20716 0.0
C154 C 0.0053 0.76928 0.37143 0.0
O155 O -0.02033 0.75076 0.38708 0.0
Cd156 Cd 0.91285 0.70687 0.38178 0.0
O157 O -0.0043 0.76643 0.34981 0.0
Cd158 Cd 0.93006 0.72599 0.3301 0.0
C159 C 0.92398 0.64359 0.34851 0.0
O160 O 0.88878 0.73747 0.3565 0.0
O161 O 0.85938 0.68507 0.33672 0.0
O162 O 0.92677 0.76556 0.29807 0.0
C163 C 0.85716 0.71042 0.34868 0.0
O164 O 0.91172 0.64871 0.3681 0.0
C165 C 0.92226 0.74182 0.28199 0.0
O166 O 0.93442 0.66849 0.33225 0.0
O167 O 0.92617 0.71368 0.28793 0.0
C168 C 0.7712 0.70023 0.66984 0.0
O169 O 0.78397 0.72757 0.65512 0.0
Cd170 Cd 0.73937 0.74713 0.64344 0.0
O171 O 0.74106 0.69186 0.68227 0.0
Cd172 Cd 0.69857 0.72156 0.68789 0.0
C173 C 0.65385 0.66033 0.64508 0.0
O174 O 0.7305 0.78684 0.67114 0.0
O175 O 0.66851 0.7513 0.66625 0.0
O176 O 0.7108 0.74265 0.72937 0.0
C177 C 0.69828 0.78472 0.66667 0.0
O178 O 0.68039 0.68689 0.63246 0.0
C179 C 0.67499 0.72863 0.73455 0.0
O180 O 0.65333 0.66433 0.6672 0.0
O181 O 0.65071 0.7078 0.71908 0.0
C182 C 0.16842 0.90937 0.74055 0.0
O183 O 0.19844 0.90619 0.74206 0.0
Cd184 Cd 0.25014 0.92462 0.71472 0.0
O185 O 0.16407 0.92703 0.72323 0.0
Cd186 Cd 0.20773 0.96299 0.68825 0.0
C187 C 0.19333 0.87858 0.66718 0.0
O188 O 0.27173 -0.01064 0.70581 0.0
O189 O 0.27035 0.98431 0.6683 0.0
O190 O 0.20477 0.02237 0.68637 0.0
C191 C 0.29054 -0.00334 0.6867 0.0
O192 O 0.21949 0.88186 0.68126 0.0
C193 C 0.19511 0.01827 0.66487 0.0
O194 O 0.18187 0.90284 0.6673 0.0
O195 O 0.18679 -0.0135 0.65549 0.0
C196 C -0.00698 0.25312 0.73391 0.0
O197 O 0.01017 0.2415 0.72017 0.0
Cd198 Cd 0.07857 0.26746 0.71481 0.0
O199 O 0.01174 0.27902 0.74929 0.0
Cd200 Cd 0.08171 0.3176 0.76227 0.0
C201 C 0.09304 0.3586 0.70828 0.0
O202 O 0.10763 0.27637 0.75186 0.0
O203 O 0.14904 0.33646 0.75555 0.0
O204 O 0.07807 0.31331 0.80542 0.0
C205 C 0.14295 0.30306 0.75138 0.0
O206 O 0.09372 0.32994 0.69935 0.0
C207 C 0.0978 0.34959 0.80825 0.0
O208 O 0.08771 0.36022 0.73026 0.0
O209 O 0.10534 0.37022 0.78993 0.0
C210 C 0.88952 0.53838 0.62912 0.0
O211 O 0.90215 0.52732 0.64597 0.0
Cd212 Cd 0.95854 0.52188 0.64574 0.0
O213 O 0.90349 0.54148 0.60834 0.0
Cd214 Cd 0.95536 0.52942 0.58998 0.0
C215 C 0.01797 0.6096 0.61795 0.0
O216 O 0.95745 0.48205 0.61535 0.0
O217 O 0.01173 0.52366 0.59906 0.0
O218 O 0.92308 0.48062 0.55968 0.0
C219 C -0.0072 0.49291 0.61087 0.0
O220 O 0.00749 0.58775 0.63596 0.0
C221 C 0.9452 0.50077 0.54288 0.0
O222 O 0.00277 0.59671 0.59796 0.0
O223 O 0.96893 0.53596 0.54725 0.0
C224 C 0.33831 0.26154 0.57716 0.0
O225 O 0.37345 0.27432 0.58291 0.0
Cd226 Cd 0.40771 0.33763 0.59912 0.0
O227 O 0.32664 0.28495 0.57257 0.0
Cd228 Cd 0.35601 0.35601 0.56908 0.0
C229 C 0.32756 0.33484 0.62465 0.0
O230 O 0.42758 0.39016 0.57262 0.0
O231 O 0.39625 0.41632 0.58754 0.0
O232 O 0.3549 0.36424 0.52682 0.0
C233 C 0.42854 0.41948 0.58172 0.0
O234 O 0.3586 0.33341 0.62679 0.0
C235 C 0.33652 0.38241 0.52785 0.0
O236 O 0.31809 0.34236 0.6049 0.0
O237 O 0.32326 0.38431 0.54789 0.0
C238 C 0.71932 0.13973 0.68097 0.0
O239 O 0.6993 0.12625 0.69961 0.0
Cd240 Cd 0.63631 0.07162 0.70141 0.0
O241 O 0.70441 0.1263 0.6609 0.0
Cd242 Cd 0.63587 0.07539 0.64894 0.0
C243 C 0.6521 0.00783 0.67075 0.0
O244 O 0.59539 0.08445 0.67745 0.0
O245 O 0.57077 0.02728 0.66347 0.0
O246 O 0.61702 0.10552 0.61819 0.0
C247 C 0.56536 0.05229 0.67351 0.0
O248 O 0.64428 0.01702 0.69059 0.0
C249 C 0.60942 0.0797 0.60296 0.0
O250 O 0.65291 0.02591 0.65231 0.0
O251 O 0.6191 0.05502 0.60794 0.0
C252 C 0.49055 0.04762 0.97353 0.0
C253 C 0.45495 0.03155 0.9857 0.0
C254 C 0.50832 0.02582 0.96861 0.0
C255 C 0.48935 -0.01343 0.97529 0.0
C256 C 0.45347 0.97027 0.98772 0.0
C257 C 0.43702 -0.00689 -0.00691 0.0
C258 C 0.54728 0.04476 0.95614 0.0
C259 C 0.43189 0.9284 -0.00525 0.0
C260 C 0.52121 0.92318 0.94353 0.0
C261 C 0.54482 0.92008 0.96044 0.0
C262 C 0.5021 0.94392 0.94829 0.0
C263 C 0.50784 0.96302 0.97012 0.0
C264 C 0.53193 0.96018 0.98709 0.0
C265 C 0.54956 0.93842 0.98218 0.0
C266 C 0.47582 0.94548 0.92998 0.0
C267 C 0.53991 0.98095 0.01028 0.0
H268 H 0.50436 0.07724 0.96766 0.0
H269 H 0.40906 0.9803 0.00204 0.0
H270 H 0.56865 0.04137 0.96668 0.0
H271 H 0.54467 0.0306 0.93902 0.0
H272 H 0.55889 0.07587 0.95298 0.0
H273 H 0.40374 0.91981 0.0037 0.0
H274 H 0.42614 0.91021 0.97897 0.0
H275 H 0.44995 0.92231 0.00669 0.0
H276 H 0.51747 0.9092 0.92672 0.0
H277 H 0.56829 0.93684 -0.00473 0.0
H278 H 0.48761 0.97553 0.92397 0.0
H279 H 0.44657 0.93565 0.9377 0.0
H280 H 0.47264 0.9274 0.9145 0.0
H281 H 0.55302 0.01226 0.00715 0.0
H282 H 0.55989 0.9763 0.02144 0.0
H283 H 0.51231 0.97111 0.02013 0.0
C284 C 0.87113 0.40905 0.98024 0.0
C285 C 0.86021 0.37182 0.97278 0.0
C286 C 0.8907 0.44065 0.96497 0.0
C287 C 0.89888 0.43475 0.94155 0.0
C288 C 0.884 0.39683 0.93325 0.0
C289 C 0.86514 0.36581 0.94902 0.0
C290 C 0.90582 0.4806 0.97457 0.0
C291 C 0.89075 0.38914 0.90823 0.0
C292 C 0.94458 0.52594 0.90457 0.0
C293 C -0.01562 0.54014 0.90833 0.0
C294 C 0.91613 0.49012 0.91375 0.0
C295 C 0.92775 0.46826 0.92724 0.0
C296 C 0.96786 0.48081 0.92921 0.0
C297 C -0.00438 0.51633 0.91952 0.0
C298 C 0.87373 0.47721 0.9105 0.0
C299 C -0.01834 0.45835 0.94332 0.0
H300 H 0.86743 0.414 -0.00146 0.0
H301 H 0.85645 0.33708 0.94304 0.0
H302 H 0.938 0.4955 0.97577 0.0
H303 H 0.89859 0.49774 0.96264 0.0
H304 H 0.89373 0.48019 -0.00771 0.0
H305 H 0.87069 0.35876 0.90325 0.0
H306 H 0.88693 0.40819 0.89587 0.0
H307 H 0.92104 0.39516 0.90618 0.0
H308 H 0.93545 0.54385 0.89579 0.0
H309 H 0.02621 0.52672 0.92237 0.0
H310 H 0.86228 0.48366 0.92662 0.0
H311 H 0.85631 0.44576 0.90755 0.0
H312 H 0.86943 0.49224 0.89552 0.0
H313 H 0.97407 0.45836 0.96212 0.0
H314 H 0.01361 0.47059 0.94179 0.0
H315 H 0.96692 0.42801 0.93749 0.0
C316 C 0.41493 0.49777 0.06345 0.0
C317 C 0.4036 0.49038 0.03984 0.0
C318 C 0.45411 0.51544 0.06979 0.0
C319 C 0.48297 0.52661 0.0521 0.0
C320 C 0.47211 0.52212 0.02815 0.0
C321 C 0.43244 0.50387 0.02227 0.0
C322 C 0.46429 0.51952 0.09552 0.0
C323 C 0.50219 0.53451 0.00876 0.0
C324 C 0.58913 0.58844 0.06976 0.0
C325 C 0.60085 0.56103 0.07076 0.0
C326 C 0.5509 0.57783 0.06355 0.0
C327 C 0.52366 0.5388 0.0588 0.0
C328 C 0.53502 0.51085 0.06085 0.0
C329 C 0.57359 0.52239 0.06649 0.0
C330 C 0.54014 0.60856 0.06108 0.0
C331 C 0.50664 0.46879 0.05655 0.0
H332 H 0.39296 0.488 0.07721 0.0
H333 H 0.42404 0.49847 0.004 0.0
H334 H 0.47471 0.49954 0.10011 0.0
H335 H 0.48818 0.54905 0.09935 0.0
H336 H 0.43899 0.51299 0.10702 0.0
H337 H 0.48982 0.53418 -0.00869 0.0
H338 H 0.52687 0.56385 0.01212 0.0
H339 H 0.514 0.51483 0.00822 0.0
H340 H 0.61043 0.61849 0.07246 0.0
H341 H 0.58273 0.50125 0.06705 0.0
H342 H 0.51394 0.60123 0.07184 0.0
H343 H 0.53285 0.61022 0.04253 0.0
H344 H 0.56411 0.63729 0.06643 0.0
H345 H 0.48068 0.45871 0.06811 0.0
H346 H 0.51969 0.45056 0.0598 0.0
H347 H 0.4965 0.46458 0.03814 0.0
C348 C 0.12972 0.36565 0.28985 0.0
C349 C 0.1198 0.36801 0.31331 0.0
C350 C 0.14829 0.3452 0.28364 0.0
C351 C 0.15848 0.32747 0.30134 0.0
C352 C 0.15047 0.33135 0.3252 0.0
C353 C 0.13063 0.35104 0.33089 0.0
C354 C 0.15525 0.34101 0.25796 0.0
C355 C 0.16208 0.31396 0.34467 0.0
C356 C 0.16805 0.24076 0.28551 0.0
C357 C 0.20819 0.25764 0.28177 0.0
C358 C 0.15143 0.26328 0.29134 0.0
C359 C 0.17578 0.30341 0.29462 0.0
C360 C 0.21643 0.32055 0.29086 0.0
C361 C 0.23205 0.29753 0.28407 0.0
C362 C 0.10783 0.24402 0.29431 0.0
C363 C 0.2436 0.36292 0.29492 0.0
H364 H 0.12126 0.37827 0.276 0.0
H365 H 0.12316 0.3527 0.34903 0.0
H366 H 0.18646 0.35128 0.25464 0.0
H367 H 0.13868 0.31022 0.25302 0.0
H368 H 0.14628 0.35721 0.24635 0.0
H369 H 0.15767 0.32301 0.36231 0.0
H370 H 0.14459 0.28217 0.34373 0.0
H371 H 0.19311 0.32231 0.34264 0.0
H372 H 0.14974 0.20983 0.28415 0.0
H373 H 0.26328 0.31041 0.28192 0.0
H374 H 0.09636 0.25838 0.28303 0.0
H375 H 0.10041 0.24675 0.31274 0.0
H376 H 0.09285 0.21303 0.28975 0.0
H377 H 0.23586 0.38008 0.28336 0.0
H378 H 0.27453 0.3717 0.2916 0.0
H379 H 0.24051 0.37018 0.31331 0.0
C380 C 0.51786 0.75672 0.32706 0.0
C381 C 0.50001 0.7182 0.32001 0.0
C382 C 0.53604 0.78673 0.31059 0.0
C383 C 0.53616 0.77797 0.28649 0.0
C384 C 0.51437 0.73932 0.27905 0.0
C385 C 0.49656 0.70986 0.29591 0.0
C386 C 0.55817 0.82766 0.31926 0.0
C387 C 0.51269 0.72879 0.25349 0.0
C388 C 0.58144 0.86548 0.24631 0.0
C389 C 0.62066 0.87512 0.24607 0.0
C390 C 0.55282 0.83246 0.25811 0.0
C391 C 0.56367 0.80855 0.26995 0.0
C392 C 0.60243 0.81617 0.26789 0.0
C393 C 0.63036 0.8492 0.25587 0.0
C394 C 0.51173 0.82501 0.2594 0.0
C395 C 0.61522 0.79115 0.27999 0.0
H396 H 0.52041 0.76352 0.34561 0.0
H397 H 0.48245 0.6802 0.29023 0.0
H398 H 0.58988 0.83881 0.31749 0.0
H399 H 0.55134 0.84638 0.30853 0.0
H400 H 0.55144 0.82999 0.33795 0.0
H401 H 0.48882 0.69898 0.2501 0.0
H402 H 0.50858 0.74886 0.24224 0.0
H403 H 0.54061 0.73098 0.2482 0.0
H404 H 0.57342 0.88511 0.23872 0.0
H405 H 0.66042 0.85609 0.25565 0.0
H406 H 0.50711 0.83543 0.27647 0.0
H407 H 0.49022 0.79384 0.25829 0.0
H408 H 0.50597 0.84024 0.24517 0.0
H409 H 0.61357 0.79385 0.2993 0.0
H410 H 0.64548 0.79917 0.27516 0.0
H411 H 0.59556 0.76053 0.27549 0.0
C412 C 0.07726 0.81022 0.36261 0.0
C413 C 0.0467 0.7908 0.37884 0.0
C414 C 0.11631 0.82673 0.36963 0.0
C415 C 0.12487 0.82323 0.39331 0.0
C416 C 0.09421 0.80475 0.40984 0.0
C417 C 0.05569 0.78914 0.40248 0.0
C418 C 0.14835 0.84684 0.35156 0.0
C419 C 0.10192 0.79989 0.43517 0.0
C420 C 0.2196 0.82489 0.40445 0.0
C421 C 0.24362 0.86233 0.41278 0.0
C422 C 0.18074 0.81162 0.39853 0.0
C423 C 0.16561 0.8366 0.4006 0.0
C424 C 0.18926 0.87397 0.4098 0.0
C425 C 0.22791 0.88628 0.41599 0.0
C426 C 0.15623 0.77122 0.38935 0.0
C427 C 0.1743 0.90154 0.4121 0.0
H428 H 0.07071 0.81177 0.34436 0.0
H429 H 0.03248 0.77432 0.41529 0.0
H430 H 0.17046 0.87568 0.35795 0.0
H431 H 0.16325 0.83019 0.34871 0.0
H432 H 0.13719 0.85016 0.33446 0.0
H433 H 0.07499 0.78662 0.44611 0.0
H434 H 0.11512 0.78142 0.43612 0.0
H435 H 0.123 0.82808 0.44284 0.0
H436 H 0.23164 0.80632 0.40183 0.0
H437 H 0.2465 0.9155 0.42198 0.0
H438 H 0.14787 0.77213 0.37095 0.0
H439 H 0.12897 0.75545 0.39984 0.0
H440 H 0.17176 0.75484 0.38989 0.0
H441 H 0.1673 0.9079 0.39447 0.0
H442 H 0.19578 0.92903 0.42042 0.0
H443 H 0.14703 0.88837 0.42267 0.0
C444 C 0.85115 0.57031 0.61807 0.0
C445 C 0.86379 0.55416 0.63517 0.0
C446 C 0.83276 0.59109 0.62453 0.0
C447 C 0.82772 0.59665 0.64864 0.0
C448 C 0.83887 0.57903 0.66588 0.0
C449 C 0.85615 0.55766 0.65896 0.0
C450 C 0.82013 0.60842 0.60557 0.0
C451 C 0.83481 0.5847 0.69175 0.0
C452 C 0.82609 0.68783 0.66384 0.0
C453 C 0.78651 0.67361 0.66845 0.0
C454 C 0.83997 0.66296 0.65805 0.0
C455 C 0.81339 0.623 0.65594 0.0
C456 C 0.77343 0.60842 0.66098 0.0
C457 C 0.76058 0.63385 0.66753 0.0
C458 C 0.883 0.67962 0.6537 0.0
C459 C 0.74399 0.56623 0.65838 0.0
H460 H 0.85674 0.5678 0.5997 0.0
H461 H 0.86562 0.54538 0.67246 0.0
H462 H 0.78988 0.6018 0.60896 0.0
H463 H 0.83908 0.64013 0.60566 0.0
H464 H 0.82171 0.59775 0.58785 0.0
H465 H 0.8427 0.5672 0.70296 0.0
H466 H 0.854 0.61543 0.69625 0.0
H467 H 0.80457 0.57712 0.69611 0.0
H468 H 0.84613 0.71858 0.66431 0.0
H469 H 0.72979 0.62283 0.67049 0.0
H470 H 0.88823 0.67521 0.63511 0.0
H471 H 0.89403 0.6646 0.66474 0.0
H472 H 0.90005 0.71085 0.65755 0.0
H473 H 0.74353 0.55756 0.63984 0.0
H474 H 0.71418 0.55929 0.66358 0.0
H475 H 0.75226 0.54871 0.66922 0.0
C476 C 0.32213 0.19512 0.5884 0.0
C477 C 0.30939 0.22055 0.58215 0.0
C478 C 0.29699 0.16001 0.59958 0.0
C479 C 0.25803 0.14989 0.60458 0.0
C480 C 0.24405 0.1738 0.59648 0.0
C481 C 0.26987 0.20883 0.58531 0.0
C482 C 0.31301 0.13509 0.60759 0.0
C483 C 0.20266 0.16392 0.60114 0.0
C484 C 0.19601 0.0469 0.62577 0.0
C485 C 0.20152 0.05136 0.65015 0.0
C486 C 0.21178 0.07893 0.61068 0.0
C487 C 0.23359 0.11628 0.62018 0.0
C488 C 0.23606 0.12103 0.64488 0.0
C489 C 0.21994 0.08851 0.65957 0.0
C490 C 0.20772 0.0726 0.5845 0.0
C491 C 0.25847 0.16041 0.65578 0.0
H492 H 0.35247 0.20371 0.5859 0.0
H493 H 0.2596 0.22817 0.5806 0.0
H494 H 0.31398 0.13506 0.62705 0.0
H495 H 0.2938 0.10497 0.60193 0.0
H496 H 0.34282 0.14531 0.60062 0.0
H497 H 0.1943 0.18107 0.58995 0.0
H498 H 0.18204 0.13295 0.59808 0.0
H499 H 0.19952 0.16994 0.61979 0.0
H500 H 0.18156 0.01832 0.61829 0.0
H501 H 0.22418 0.09229 0.67836 0.0
H502 H 0.23566 0.07749 0.57697 0.0
H503 H 0.20103 0.09326 0.57596 0.0
H504 H 0.18459 0.04292 0.58008 0.0
H505 H 0.29 0.17282 0.65209 0.0
H506 H 0.25404 0.15951 0.6751 0.0
H507 H 0.24967 0.18002 0.64799 0.0
C508 C 0.78869 0.16138 0.67126 0.0
C509 C 0.76144 0.16687 0.68374 0.0
C510 C 0.82766 0.17915 0.67855 0.0
C511 C 0.83958 0.20334 0.69854 0.0
C512 C 0.81283 0.21148 0.70988 0.0
C513 C 0.77404 0.19288 0.70247 0.0
C514 C 0.8553 0.16981 0.66591 0.0
C515 C 0.82442 0.23768 0.7309 0.0
C516 C 0.92135 0.20747 0.73498 0.0
C517 C 0.95305 0.24262 0.72785 0.0
C518 C 0.88407 0.19473 0.72588 0.0
C519 C 0.87877 0.21735 0.70887 0.0
C520 C 0.91087 0.25312 0.70183 0.0
C521 C 0.94761 0.26536 0.71149 0.0
C522 C 0.85053 0.15662 0.73405 0.0
C523 C 0.90667 0.2779 0.68361 0.0
H524 H 0.77894 0.14087 0.65699 0.0
H525 H 0.75297 0.19713 0.71217 0.0
H526 H 0.88323 0.19645 0.66196 0.0
H527 H 0.86187 0.15165 0.67739 0.0
H528 H 0.84297 0.15417 0.64925 0.0
H529 H 0.80163 0.24455 0.73598 0.0
H530 H 0.82959 0.22362 0.74605 0.0
H531 H 0.85193 0.26492 0.72727 0.0
H532 H 0.92592 0.18961 0.74722 0.0
H533 H 0.97254 0.29216 0.70558 0.0
H534 H 0.83856 0.1367 0.71896 0.0
H535 H 0.8268 0.16056 0.74121 0.0
H536 H 0.85926 0.14299 0.74778 0.0
H537 H 0.8972 0.26216 0.66676 0.0
H538 H 0.93429 0.30536 0.68051 0.0
H539 H 0.88392 0.28448 0.68918 0.0
C540 C 0.33458 0.08161 0.10422 0.0
C541 C 0.35603 0.10467 0.0851 0.0
C542 C 0.32758 0.09784 0.12426 0.0
C543 C 0.34086 0.13778 0.12473 0.0
C544 C 0.36206 0.161 0.10526 0.0
C545 C 0.37001 0.14431 0.08594 0.0
C546 C 0.30603 0.07227 0.14495 0.0
C547 C 0.37551 0.20335 0.10457 0.0
C548 C 0.291 0.17174 0.16822 0.0
C549 C 0.31904 0.18839 0.18581 0.0
C550 C 0.29804 0.156 0.14795 0.0
C551 C 0.33328 0.15549 0.14571 0.0
C552 C 0.36155 0.17216 0.16352 0.0
C553 C 0.35437 0.18897 0.18309 0.0
C554 C 0.26777 0.13987 0.12897 0.0
C555 C 0.399 0.17133 0.16223 0.0
H556 H 0.32349 0.05094 0.10355 0.0
H557 H 0.38585 0.16214 0.07096 0.0
H558 H 0.32362 0.08372 0.16107 0.0
H559 H 0.27835 0.07197 0.148 0.0
H560 H 0.29932 0.04225 0.1423 0.0
H561 H 0.3903 0.21709 0.08773 0.0
H562 H 0.35025 0.20755 0.10704 0.0
H563 H 0.39588 0.21838 0.11913 0.0
H564 H 0.26363 0.17116 0.17027 0.0
H565 H 0.37593 0.20122 0.19681 0.0
H566 H 0.25631 0.10859 0.12713 0.0
H567 H 0.2811 0.15348 0.11185 0.0
H568 H 0.24301 0.14447 0.13272 0.0
H569 H 0.39242 0.1412 0.16073 0.0
H570 H 0.41747 0.1845 0.17787 0.0
H571 H 0.41593 0.18692 0.14636 0.0
C572 C 0.79245 0.21242 0.11298 0.0
C573 C 0.78347 0.21625 0.08981 0.0
C574 C 0.76481 0.18382 0.12783 0.0
C575 C 0.72718 0.15803 0.11922 0.0
C576 C 0.71684 0.16392 0.0965 0.0
C577 C 0.74524 0.19314 0.08197 0.0
C578 C 0.77714 0.17916 0.15203 0.0
C579 C 0.67691 0.13754 0.08678 0.0
C580 C 0.69164 0.06135 0.14778 0.0
C581 C 0.67136 0.06362 0.16738 0.0
C582 C 0.70681 0.09032 0.13057 0.0
C583 C 0.70151 0.12236 0.13296 0.0
C584 C 0.67741 0.12264 0.15129 0.0
C585 C 0.66264 0.09326 0.16834 0.0
C586 C 0.73182 0.08846 0.11112 0.0
C587 C 0.6702 0.1557 0.15419 0.0
H588 H 0.82204 0.23038 0.11903 0.0
H589 H 0.73835 0.1958 0.06396 0.0
H590 H 0.75546 0.17637 0.16542 0.0
H591 H 0.77876 0.15251 0.15268 0.0
H592 H 0.80601 0.20376 0.15685 0.0
H593 H 0.67049 0.15099 0.07179 0.0
H594 H 0.67534 0.11078 0.08046 0.0
H595 H 0.65409 0.12941 0.1005 0.0
H596 H 0.69811 0.03832 0.1467 0.0
H597 H 0.64667 0.09513 0.1833 0.0
H598 H 0.7628 0.10988 0.11446 0.0
H599 H 0.72411 0.09569 0.09398 0.0
H600 H 0.72883 0.05961 0.10984 0.0
H601 H 0.69596 0.18022 0.16237 0.0
H602 H 0.64445 0.14778 0.16561 0.0
H603 H 0.66577 0.16556 0.13693 0.0
C604 C 0.88224 0.75864 0.25648 0.0
C605 C 0.90585 0.74225 0.2588 0.0
C606 C 0.85903 0.75161 0.23654 0.0
C607 C 0.86011 0.72833 0.21825 0.0
C608 C 0.88593 0.71394 0.21983 0.0
C609 C 0.9081 0.72068 0.24019 0.0
C610 C 0.83156 0.76704 0.23574 0.0
C611 C 0.8888 0.68986 0.20048 0.0
C612 C 0.77325 0.66893 0.17887 0.0
C613 C 0.78446 0.69079 0.15814 0.0
C614 C 0.79671 0.6818 0.19894 0.0
C615 C 0.8327 0.71695 0.19812 0.0
C616 C 0.84344 0.73979 0.17752 0.0
C617 C 0.81902 0.72663 0.15789 0.0
C618 C 0.78368 0.65699 0.22075 0.0
C619 C 0.88175 0.77708 0.17573 0.0
H620 H 0.87989 0.77487 0.27094 0.0
H621 H 0.92622 0.70789 0.24189 0.0
H622 H 0.83448 0.78176 0.21877 0.0
H623 H 0.80113 0.74282 0.23712 0.0
H624 H 0.83672 0.78747 0.25024 0.0
H625 H 0.91292 0.68409 0.20333 0.0
H626 H 0.86115 0.66196 0.19952 0.0
H627 H 0.89335 0.70446 0.18327 0.0
H628 H 0.7466 0.64126 0.17922 0.0
H629 H 0.82813 0.7436 0.14189 0.0
H630 H 0.78552 0.67435 0.23632 0.0
H631 H 0.80323 0.64536 0.22382 0.0
H632 H 0.75339 0.63251 0.21935 0.0
H633 H 0.88535 0.79584 0.19088 0.0
H634 H 0.8844 0.793 0.15927 0.0
H635 H 0.90599 0.77104 0.17624 0.0
C636 C 0.6013 0.79028 0.85013 0.0
C637 C 0.61769 0.83034 0.85017 0.0
C638 C 0.60857 0.7716 0.83161 0.0
C639 C 0.63191 0.79331 0.81227 0.0
C640 C 0.64674 0.83352 0.81159 0.0
C641 C 0.63999 0.85163 0.83071 0.0
C642 C 0.59285 0.72888 0.83333 0.0
C643 C 0.67065 0.8576 0.79095 0.0
C644 C 0.68686 0.75693 0.77509 0.0
C645 C 0.66226 0.74095 0.75579 0.0
C646 C 0.67675 0.77296 0.79393 0.0
C647 C 0.6418 0.77417 0.7931 0.0
C648 C 0.61669 0.75767 0.77377 0.0
C649 C 0.62694 0.74081 0.75556 0.0
C650 C 0.70383 0.78923 0.81452 0.0
C651 C 0.57972 0.7592 0.77182 0.0
H652 H 0.58451 0.77364 0.86524 0.0
H653 H 0.65283 0.88258 0.83065 0.0
H654 H 0.57572 0.71417 0.81753 0.0
H655 H 0.61739 0.72331 0.83407 0.0
H656 H 0.5741 0.7159 0.84912 0.0
H657 H 0.67712 0.88775 0.79214 0.0
H658 H 0.69857 0.85781 0.79006 0.0
H659 H 0.6551 0.84502 0.77432 0.0
H660 H 0.71424 0.75729 0.77535 0.0
H661 H 0.60803 0.7291 0.74053 0.0
H662 H 0.6876 0.77663 0.83116 0.0
H663 H 0.71594 0.82072 0.81543 0.0
H664 H 0.72836 0.78362 0.81331 0.0
H665 H 0.56093 0.74585 0.78751 0.0
H666 H 0.5629 0.74432 0.75592 0.0
H667 H 0.58691 0.78959 0.77117 0.0
C668 C 0.05371 0.73346 0.81759 0.0
C669 C 0.03128 0.73364 0.83664 0.0
C670 C 0.06845 0.76289 0.80066 0.0
C671 C 0.06068 0.79339 0.80282 0.0
C672 C 0.03523 0.79193 0.82083 0.0
C673 C 0.0208 0.76204 0.83755 0.0
C674 C 0.09503 0.76293 0.78157 0.0
C675 C 0.02572 0.82349 0.82361 0.0
C676 C 0.14739 0.8859 0.7812 0.0
C677 C 0.13707 0.88774 0.758 0.0
C678 C 0.12136 0.85711 0.79663 0.0
C679 C 0.08411 0.82908 0.78859 0.0
C680 C 0.07223 0.83288 0.76584 0.0
C681 C 0.09893 0.86235 0.75077 0.0
C682 C 0.13518 0.85473 0.82084 0.0
C683 C 0.03267 0.80397 0.75667 0.0
H684 H 0.06169 0.71148 0.8166 0.0
H685 H 0.00337 0.7624 0.85216 0.0
H686 H 0.08664 0.76883 0.76424 0.0
H687 H 0.12533 0.7861 0.78497 0.0
H688 H 0.09451 0.73517 0.78063 0.0
H689 H -0.00015 0.81448 0.83513 0.0
H690 H 0.05084 0.84895 0.83158 0.0
H691 H 0.02033 0.83246 0.80632 0.0
H692 H 0.17689 0.90555 0.78682 0.0
H693 H 0.09099 0.86341 0.73275 0.0
H694 H 0.13968 0.82977 0.82173 0.0
H695 H 0.11299 0.85028 0.83431 0.0
H696 H 0.16298 0.88104 0.82533 0.0
H697 H 0.03276 0.77754 0.75137 0.0
H698 H 0.02481 0.81518 0.74114 0.0
H699 H 0.00992 0.79577 0.77044 0.0
C700 C 0.21939 0.43777 0.9277 0.0
C701 C 0.24696 0.42586 0.92768 0.0
C702 C 0.19354 0.42884 0.90891 0.0
C703 C 0.19591 0.40829 0.88941 0.0
C704 C 0.22532 0.39834 0.8887 0.0
C705 C 0.25012 0.4068 0.90795 0.0
C706 C 0.16226 0.4394 0.91059 0.0
C707 C 0.22958 0.37733 0.86798 0.0
C708 C 0.10941 0.34414 0.85095 0.0
C709 C 0.11751 0.36686 0.83074 0.0
C710 C 0.13341 0.35816 0.87076 0.0
C711 C 0.16675 0.39552 0.87018 0.0
C712 C 0.17379 0.41931 0.85034 0.0
C713 C 0.1489 0.40485 0.83098 0.0
C714 C 0.12423 0.33221 0.89183 0.0
C715 C 0.20914 0.45911 0.84883 0.0
H716 H 0.21632 0.45193 0.94306 0.0
H717 H 0.27125 0.3974 0.90789 0.0
H718 H 0.16173 0.45429 0.89437 0.0
H719 H 0.13341 0.41285 0.91234 0.0
H720 H 0.16635 0.45816 0.92587 0.0
H721 H 0.2559 0.37462 0.86923 0.0
H722 H 0.20366 0.34809 0.86694 0.0
H723 H 0.23125 0.39253 0.85141 0.0
H724 H 0.08522 0.31482 0.85095 0.0
H725 H 0.15558 0.42265 0.81543 0.0
H726 H 0.12553 0.34776 0.90818 0.0
H727 H 0.14628 0.32326 0.89322 0.0
H728 H 0.09501 0.30599 0.89069 0.0
H729 H 0.21165 0.47571 0.8649 0.0
H730 H 0.20835 0.47539 0.83333 0.0
H731 H 0.23572 0.45686 0.84756 0.0
C732 C 0.02263 0.42511 0.43836 0.0
C733 C -0.00537 0.40349 0.42147 0.0
C734 C 0.01295 0.43938 0.45831 0.0
C735 C 0.97473 0.43315 0.461 0.0
C736 C 0.94633 0.41112 0.44405 0.0
C737 C 0.95645 0.39606 0.42476 0.0
C738 C 0.04379 0.46163 0.47634 0.0
C739 C 0.90562 0.40471 0.44577 0.0
C740 C 0.9395 0.44425 0.52137 0.0
C741 C 0.94811 0.48257 0.52086 0.0
C742 C 0.94808 0.4279 0.50209 0.0
C743 C 0.96449 0.44991 0.48141 0.0
C744 C 0.97153 0.48806 0.48038 0.0
C745 C 0.96399 0.50418 0.50027 0.0
C746 C 0.94106 0.38757 0.50425 0.0
C747 C -0.01237 0.51208 0.45839 0.0
H748 H 0.05221 0.43115 0.43586 0.0
H749 H 0.93478 0.38003 0.41157 0.0
H750 H 0.05043 0.49184 0.47675 0.0
H751 H 0.033 0.44925 0.49409 0.0
H752 H 0.07116 0.46156 0.47261 0.0
H753 H 0.88687 0.38677 0.43121 0.0
H754 H 0.89178 0.39054 0.46266 0.0
H755 H 0.90683 0.4328 0.44542 0.0
H756 H 0.92789 0.42755 0.53735 0.0
H757 H 0.97086 0.53383 0.4998 0.0
H758 H 0.96901 0.38803 0.50208 0.0
H759 H 0.92151 0.36918 0.49014 0.0
H760 H 0.92794 0.37417 0.52148 0.0
H761 H 0.01753 0.51782 0.45486 0.0
H762 H -0.01141 0.54001 0.45978 0.0
H763 H 0.96964 0.49624 0.44307 0.0
C764 C 0.44623 0.56621 0.45987 0.0
C765 C 0.43768 0.56985 0.43653 0.0
C766 C 0.41996 0.53511 0.47383 0.0
C767 C 0.38396 0.50701 0.4643 0.0
C768 C 0.37319 0.51308 0.44176 0.0
C769 C 0.40034 0.54448 0.42803 0.0
C770 C 0.43266 0.5303 0.49788 0.0
C771 C 0.33456 0.48467 0.43126 0.0
C772 C 0.35975 0.40989 0.48779 0.0
C773 C 0.33802 0.40696 0.50799 0.0
C774 C 0.3719 0.4407 0.47205 0.0
C775 C 0.36161 0.46905 0.47643 0.0
C776 C 0.3357 0.46363 0.49517 0.0
C777 C 0.3244 0.43276 0.51086 0.0
C778 C 0.39915 0.44497 0.45215 0.0
C779 C 0.3227 0.49223 0.49993 0.0
H780 H 0.47492 0.58604 0.4666 0.0
H781 H 0.3935 0.5471 0.40999 0.0
H782 H 0.40954 0.52374 0.51113 0.0
H783 H 0.43794 0.50579 0.49767 0.0
H784 H 0.45977 0.55639 0.50355 0.0
H785 H 0.3262 0.49819 0.41726 0.0
H786 H 0.33663 0.46064 0.42333 0.0
H787 H 0.31121 0.4724 0.44486 0.0
H788 H 0.37003 0.38986 0.48522 0.0
H789 H 0.30715 0.4305 0.52625 0.0
H790 H 0.42877 0.46923 0.45592 0.0
H791 H 0.3896 0.45167 0.43551 0.0
H792 H 0.40096 0.41861 0.44961 0.0
H793 H 0.34566 0.51694 0.50975 0.0
H794 H 0.29553 0.47928 0.51066 0.0
H795 H 0.31783 0.50345 0.48331 0.0
C796 C 0.5552 0.08441 0.58475 0.0
C797 C 0.58371 0.07384 0.58279 0.0
C798 C 0.52538 0.07235 0.56814 0.0
C799 C 0.52465 0.05012 0.54869 0.0
C800 C 0.55456 0.04109 0.54599 0.0
C801 C 0.58332 0.0525 0.56326 0.0
C802 C 0.49355 0.08171 0.57209 0.0
C803 C 0.55555 0.01838 0.52519 0.0
C804 C 0.43109 0.98269 0.51638 0.0
C805 C 0.43434 0.00438 0.49636 0.0
C806 C 0.45931 -0.00208 0.5341 0.0
C807 C 0.49214 0.03534 0.53146 0.0
C808 C 0.49483 0.0578 0.51169 0.0
C809 C 0.4657 0.04225 0.49457 0.0
C810 C 0.45468 0.97341 0.55526 0.0
C811 C 0.52957 0.09749 0.50792 0.0
H812 H 0.55482 0.10021 0.60006 0.0
H813 H 0.60509 0.04402 0.56175 0.0
H814 H 0.49015 0.09577 0.55631 0.0
H815 H 0.46545 0.05474 0.5751 0.0
H816 H 0.49932 0.10081 0.58743 0.0
H817 H 0.58236 0.01641 0.52466 0.0
H818 H 0.52999 -0.01115 0.5259 0.0
H819 H 0.55378 0.03181 0.5086 0.0
H820 H 0.407 0.95343 0.5179 0.0
H821 H 0.46874 0.05914 0.47906 0.0
H822 H 0.45854 -0.01018 0.57164 0.0
H823 H 0.47747 0.96533 0.55487 0.0
H824 H 0.42576 0.9467 0.55589 0.0
H825 H 0.53423 0.11563 0.52357 0.0
H826 H 0.52628 0.1121 0.49233 0.0
H827 H 0.55611 0.09542 0.50545 0.0
C828 C 0.25799 0.92623 0.98892 0.0
C829 C 0.27462 0.95649 0.97258 0.0
C830 C 0.22966 0.88902 0.98209 0.0
C831 C 0.21744 0.88208 0.95845 0.0
C832 C 0.23424 0.91244 0.94187 0.0
C833 C 0.2627 0.9492 0.94911 0.0
C834 C 0.2125 0.85723 0.0002 0.0
C835 C 0.22163 0.90629 0.91654 0.0
C836 C 0.16273 0.78118 0.93321 0.0
C837 C 0.12431 0.77361 0.93404 0.0
C838 C 0.1934 0.81597 0.94178 0.0
C839 C 0.18533 0.84376 0.95119 0.0
C840 C 0.14652 0.83589 0.95247 0.0
C841 C 0.11653 0.80092 0.94395 0.0
C842 C 0.23446 0.82334 0.94035 0.0
C843 C 0.13673 0.86485 0.96224 0.0
H844 H 0.2673 0.93153 0.00704 0.0
H845 H 0.27537 0.97238 0.93635 0.0
H846 H 0.18096 0.84652 0.00243 0.0
H847 H 0.21548 0.83266 -0.0058 0.0
H848 H 0.22667 0.86685 0.01755 0.0
H849 H 0.23848 0.93264 0.9057 0.0
H850 H 0.22517 0.88298 0.9088 0.0
H851 H 0.19033 0.89715 0.91554 0.0
H852 H 0.16888 0.7601 0.92568 0.0
H853 H 0.08691 0.7953 0.94472 0.0
H854 H 0.24832 0.83161 0.95782 0.0
H855 H 0.25202 0.8477 0.9282 0.0
H856 H 0.23558 0.79785 0.93404 0.0
H857 H 0.14833 0.87329 0.98023 0.0
H858 H 0.10488 0.85363 0.96285 0.0
H859 H 0.15066 0.89124 0.95123 0.0
C860 C 0.01183 0.39093 0.03065 0.0
C861 C -0.01516 0.35928 0.04396 0.0
C862 C 0.05097 0.40073 0.02952 0.0
C863 C 0.06312 0.37861 0.04232 0.0
C864 C 0.03673 0.34922 0.05766 0.0
C865 C -0.00227 0.33969 0.05816 0.0
C866 C 0.07828 0.43226 0.01294 0.0
C867 C 0.04878 0.32554 0.07196 0.0
C868 C 0.13923 0.36179 0.01371 0.0
C869 C 0.17286 0.38766 0.02578 0.0
C870 C 0.10342 0.35881 0.01893 0.0
C871 C 0.10115 0.38196 0.03687 0.0
C872 C 0.13484 0.40768 0.04942 0.0
C873 C 0.17046 0.41041 0.04362 0.0
C874 C 0.06808 0.33117 0.00504 0.0
C875 C 0.13328 0.43239 0.06882 0.0
H876 H 0.00186 0.40611 0.01966 0.0
H877 H -0.02312 0.31545 0.06869 0.0
H878 H 0.10684 0.4509 0.02127 0.0
H879 H 0.0835 0.41926 -0.00284 0.0
H880 H 0.06621 0.4504 0.00716 0.0
H881 H 0.02696 0.30854 0.08582 0.0
H882 H 0.05202 0.30534 0.06024 0.0
H883 H 0.0773 0.34416 0.08035 0.0
H884 H 0.14102 0.34437 -0.0002 0.0
H885 H 0.19645 0.43047 0.05299 0.0
H886 H 0.05549 0.34692 -0.00371 0.0
H887 H 0.0454 0.30963 0.01699 0.0
H888 H 0.07498 0.31571 -0.00857 0.0
H889 H 0.12349 0.45167 0.06174 0.0
H890 H 0.16197 0.45024 0.07728 0.0
H891 H 0.11176 0.41406 0.08244 0.0
C892 C 0.73121 0.73705 0.03076 0.0
C893 C 0.729 0.70369 0.02165 0.0
C894 C 0.72186 0.75991 0.01692 0.0
C895 C 0.70984 0.74902 -0.00652 0.0
C896 C 0.70941 0.71652 0.98382 0.0
C897 C 0.71915 0.69432 -0.002 0.0
C898 C 0.72311 0.79472 0.0277 0.0
C899 C 0.69676 0.70404 0.95888 0.0
C900 C 0.64158 0.77916 0.96826 0.0
C901 C 0.66692 0.81064 0.9542 0.0
C902 C 0.65518 0.75865 0.98096 0.0
C903 C 0.6951 0.77003 0.97962 0.0
C904 C 0.72074 0.80148 0.96525 0.0
C905 C 0.70631 0.82135 0.95263 0.0
C906 C 0.62689 0.72498 -0.00403 0.0
C907 C 0.76348 0.81441 0.96345 0.0
H908 H 0.73902 0.74466 0.04896 0.0
H909 H 0.71745 0.66868 0.99074 0.0
H910 H 0.73992 0.82027 0.01626 0.0
H911 H 0.69314 0.78977 0.02928 0.0
H912 H 0.73635 0.80122 0.04541 0.0
H913 H 0.70118 0.68006 0.95343 0.0
H914 H 0.66544 0.6945 0.9572 0.0
H915 H 0.71304 0.72846 0.94657 0.0
H916 H 0.6111 0.77068 0.96946 0.0
H917 H 0.72605 0.84566 0.94177 0.0
H918 H 0.63588 0.73045 0.01461 0.0
H919 H 0.62712 0.69867 0.99057 0.0
H920 H 0.59666 0.71941 -0.00526 0.0
H921 H 0.77695 0.82294 0.98101 0.0
H922 H 0.77944 0.83908 0.9512 0.0
H923 H 0.76725 0.79037 0.95734 0.0
C924 C 0.73602 0.01211 0.97202 0.0
C925 C 0.7266 -0.00342 0.94938 0.0
C926 C 0.76268 0.05101 0.97549 0.0
C927 C 0.78123 0.07511 0.95585 0.0
C928 C 0.77319 0.05949 0.93294 0.0
C929 C 0.74546 0.02036 0.92993 0.0
C930 C 0.77008 0.06646 0.00028 0.0
C931 C 0.79305 0.08413 0.91164 0.0
C932 C 0.81308 0.17621 0.97387 0.0
C933 C 0.84908 0.18678 0.98393 0.0
C934 C 0.79198 0.14117 0.96205 0.0
C935 C 0.80776 0.11675 0.95993 0.0
C936 C 0.84632 0.12986 0.96719 0.0
C937 C 0.86639 0.16458 0.97944 0.0
C938 C 0.75096 0.12831 0.95455 0.0
C939 C 0.86475 0.10534 0.96437 0.0
H940 H 0.72154 -0.00592 0.98717 0.0
H941 H 0.7384 0.00851 0.91239 0.0
H942 H 0.80133 0.07927 0.0045 0.0
H943 H 0.76271 0.08947 0.00192 0.0
H944 H 0.75277 0.04386 0.01355 0.0
H945 H 0.78991 0.06648 0.89593 0.0
H946 H 0.77994 0.10203 0.90769 0.0
H947 H 0.82447 0.10386 0.91489 0.0
H948 H 0.7997 0.19346 0.9771 0.0
H949 H 0.89466 0.17314 0.98674 0.0
H950 H 0.73017 0.10704 0.96745 0.0
H951 H 0.74482 0.11408 0.9372 0.0
H952 H 0.74552 0.1527 0.95361 0.0
H953 H 0.85355 0.08301 0.97833 0.0
H954 H 0.89692 0.12266 0.96583 0.0
H955 H 0.85725 0.09047 0.94718 0.0
C956 C 0.86077 0.64629 0.05679 0.0
C957 C 0.82167 0.61745 0.0589 0.0
C958 C 0.885 0.64402 0.03975 0.0
C959 C 0.8696 0.61216 0.02442 0.0
C960 C 0.83095 0.58152 0.0276 0.0
C961 C 0.80733 0.58448 0.04494 0.0
C962 C 0.92632 0.67699 0.03717 0.0
C963 C 0.81375 0.54691 0.01173 0.0
C964 C 0.91953 0.63976 0.9651 0.0
C965 C 0.94785 0.62927 0.96765 0.0
C966 C 0.89215 0.63213 0.98298 0.0
C967 C 0.89304 0.61332 0.00376 0.0
C968 C 0.91974 0.60019 0.00569 0.0
C969 C 0.94702 0.60853 0.98764 0.0
C970 C 0.86383 0.64631 0.98024 0.0
C971 C 0.92106 0.57938 0.02735 0.0
H972 H 0.872 0.67158 0.06778 0.0
H973 H 0.77708 0.56206 0.04657 0.0
H974 H 0.94692 0.66612 0.03665 0.0
H975 H 0.9296 0.69228 0.02036 0.0
H976 H 0.9347 0.69798 0.05173 0.0
H977 H 0.786 0.523 0.01893 0.0
H978 H 0.80789 0.55508 -0.00569 0.0
H979 H 0.83444 0.53647 0.00895 0.0
H980 H 0.91981 0.65545 0.9496 0.0
H981 H 0.96836 0.5996 0.9895 0.0
H982 H 0.87122 0.67008 -0.00725 0.0
H983 H 0.8338 0.62302 0.98445 0.0
H984 H 0.86435 0.65698 0.96219 0.0
H985 H 0.93447 0.60023 0.04189 0.0
H986 H 0.93839 0.56514 0.02437 0.0
H987 H 0.8913 0.55741 0.03314 0.0
C988 C 0.29527 0.28049 0.02775 0.0
C989 C 0.29278 0.30166 0.00902 0.0
C990 C 0.30326 0.25084 0.02377 0.0
C991 C 0.30846 0.24184 0.00048 0.0
C992 C 0.30522 0.26255 0.98146 0.0
C993 C 0.29762 0.29235 0.98596 0.0
C994 C 0.30674 0.22951 0.04453 0.0
C995 C 0.31013 0.25344 0.95639 0.0
C996 C 0.365 0.18979 -0.00628 0.0
C997 C 0.33489 0.15138 -0.00728 0.0
C998 C 0.35683 0.2197 -0.00445 0.0
C999 C 0.31764 0.21094 -0.00385 0.0
C1000 C 0.28719 0.17238 -0.00602 0.0
C1001 C 0.29618 0.14303 -0.00761 0.0
C1002 C 0.39008 0.2605 -0.00208 0.0
C1003 C 0.24506 0.16195 -0.00574 0.0
H1004 H 0.29174 0.28758 0.04561 0.0
H1005 H 0.29557 0.30844 0.97137 0.0
H1006 H 0.2854 0.19835 0.04304 0.0
H1007 H 0.33615 0.23288 0.04469 0.0
H1008 H 0.30172 0.23991 0.06152 0.0
H1009 H 0.30558 0.27147 0.94355 0.0
H1010 H 0.33979 0.25801 0.95368 0.0
H1011 H 0.28922 0.22277 0.95264 0.0
H1012 H 0.39496 0.19641 -0.00593 0.0
H1013 H 0.27277 0.11339 -0.00848 0.0
H1014 H 0.38889 0.27164 0.01554 0.0
H1015 H 0.38751 0.27932 0.98476 0.0
H1016 H 0.41888 0.26275 -0.00436 0.0
H1017 H 0.23734 0.16838 0.01177 0.0
H1018 H 0.22504 0.13107 0.99042 0.0
H1019 H 0.24027 0.17947 0.98118 0.0
C1020 C 0.92803 0.27706 0.27735 0.0
C1021 C 0.93722 0.28231 0.3013 0.0
C1022 C 0.89953 0.2413 0.26876 0.0
C1023 C 0.87965 0.21001 0.28447 0.0
C1024 C 0.88979 0.21465 0.30849 0.0
C1025 C 0.91846 0.25079 0.31664 0.0
C1026 C 0.88949 0.2375 0.24302 0.0
C1027 C 0.86922 0.18187 0.32576 0.0
C1028 C 0.77592 0.13736 0.26881 0.0
C1029 C 0.77953 0.10708 0.25951 0.0
C1030 C 0.80826 0.17071 0.27715 0.0
C1031 C 0.84529 0.17398 0.27627 0.0
C1032 C 0.84929 0.14351 0.26704 0.0
C1033 C 0.81626 0.11033 0.25868 0.0
C1034 C 0.80278 0.20263 0.28674 0.0
C1035 C 0.88839 0.14609 0.26593 0.0
H1036 H 0.94262 0.30111 0.2653 0.0
H1037 H 0.9256 0.25447 0.33512 0.0
H1038 H 0.88952 0.21219 0.23542 0.0
H1039 H 0.85975 0.23286 0.24096 0.0
H1040 H 0.9101 0.26344 0.23276 0.0
H1041 H 0.88328 0.18895 0.34323 0.0
H1042 H 0.83859 0.17473 0.32802 0.0
H1043 H 0.86864 0.15578 0.319 0.0
H1044 H 0.74767 0.13515 0.26949 0.0
H1045 H 0.81917 0.08697 0.25157 0.0
H1046 H 0.8203 0.22921 0.27625 0.0
H1047 H 0.81322 0.20914 0.30508 0.0
H1048 H 0.77188 0.19526 0.28648 0.0
H1049 H 0.9087 0.17076 0.25471 0.0
H1050 H 0.88644 0.11955 0.25879 0.0
H1051 H 0.90117 0.15135 0.28371 0.0
C1052 C 0.78468 0.67389 0.34995 0.0
C1053 C 0.81972 0.70821 0.3536 0.0
C1054 C 0.7489 0.67204 0.35334 0.0
C1055 C 0.74829 0.70554 0.36006 0.0
C1056 C 0.78359 0.7402 0.36398 0.0
C1057 C 0.81896 0.74103 0.3609 0.0
C1058 C 0.71175 0.63438 0.34935 0.0
C1059 C 0.784 0.7766 0.37074 0.0
C1060 C 0.65539 0.70281 0.34324 0.0
C1061 C 0.63436 0.69141 0.36441 0.0
C1062 C 0.69352 0.70973 0.3419 0.0
C1063 C 0.71057 0.70431 0.36213 0.0
C1064 C 0.69013 0.69459 0.38382 0.0
C1065 C 0.65229 0.68861 0.38476 0.0
C1066 C 0.71481 0.72099 0.31858 0.0
C1067 C 0.70724 0.68816 0.40569 0.0
H1068 H 0.78522 0.64846 0.34438 0.0
H1069 H 0.84607 0.76771 0.36355 0.0
H1070 H 0.69253 0.62654 0.36507 0.0
H1071 H 0.69576 0.63732 0.33442 0.0
H1072 H 0.71726 0.61054 0.34549 0.0
H1073 H 0.81389 0.80082 0.37398 0.0
H1074 H 0.77096 0.78507 0.35652 0.0
H1075 H 0.76607 0.77173 0.38678 0.0
H1076 H 0.6416 0.70529 0.32755 0.0
H1077 H 0.63599 0.67964 0.40114 0.0
H1078 H 0.71785 0.69687 0.31175 0.0
H1079 H 0.74455 0.74601 0.32071 0.0
H1080 H 0.69931 0.72831 0.30531 0.0
H1081 H 0.70974 0.66216 0.40344 0.0
H1082 H 0.68913 0.68418 0.42156 0.0
H1083 H 0.73697 0.71272 0.40865 0.0
C1084 C 0.35647 0.1445 0.29933 0.0
C1085 C 0.31815 0.13594 0.29565 0.0
C1086 C 0.36433 0.12044 0.313 0.0
C1087 C 0.33308 0.08691 0.32314 0.0
C1088 C 0.29427 0.07777 0.31927 0.0
C1089 C 0.28725 0.10246 0.30554 0.0
C1090 C 0.40609 0.13107 0.31673 0.0
C1091 C 0.26025 0.04207 0.32974 0.0
C1092 C 0.35269 0.00794 0.34111 0.0
C1093 C 0.35798 0.01378 0.36542 0.0
C1094 C 0.34427 0.03136 0.32718 0.0
C1095 C 0.34117 0.06142 0.33778 0.0
C1096 C 0.3467 0.06768 0.36224 0.0
C1097 C 0.35503 0.04377 0.37579 0.0
C1098 C 0.33862 0.02389 0.30112 0.0
C1099 C 0.34375 0.09963 0.37409 0.0
H1100 H 0.38052 0.1703 0.2917 0.0
H1101 H 0.25758 0.09571 0.30272 0.0
H1102 H 0.4127 0.13456 0.33575 0.0
H1103 H 0.41071 0.1077 0.31032 0.0
H1104 H 0.42703 0.15814 0.30754 0.0
H1105 H 0.23185 0.03891 0.32487 0.0
H1106 H 0.26091 0.01622 0.32377 0.0
H1107 H 0.26237 0.04291 0.34916 0.0
H1108 H 0.35481 0.98481 0.33292 0.0
H1109 H 0.35897 0.04845 0.39454 0.0
H1110 H 0.36031 0.04967 0.2912 0.0
H1111 H 0.30937 0.01825 0.29606 0.0
H1112 H 0.34156 -0.00097 0.29566 0.0
H1113 H 0.36555 0.12774 0.36638 0.0
H1114 H 0.34854 0.1005 0.39331 0.0
H1115 H 0.31462 0.096 0.37105 0.0
C1116 C 0.45191 0.50409 0.32883 0.0
C1117 C 0.48697 0.51818 0.34097 0.0
C1118 C 0.43295 0.46693 0.31949 0.0
C1119 C 0.44973 0.44351 0.32211 0.0
C1120 C 0.48618 0.4583 0.33314 0.0
C1121 C 0.5043 0.49543 0.34257 0.0
C1122 C 0.39393 0.45203 0.30797 0.0
C1123 C 0.50517 0.43429 0.33593 0.0
C1124 C 0.37747 0.33681 0.32461 0.0
C1125 C 0.37839 0.32567 0.30139 0.0
C1126 C 0.40142 0.37491 0.33171 0.0
C1127 C 0.42725 0.40249 0.31526 0.0
C1128 C 0.42966 0.39119 0.29208 0.0
C1129 C 0.40501 0.35288 0.28537 0.0
C1130 C 0.39789 0.38593 0.35659 0.0
C1131 C 0.45729 0.4198 0.2742 0.0
H1132 H 0.43832 0.52146 0.32749 0.0
H1133 H 0.53158 0.50626 0.35173 0.0
H1134 H 0.39383 0.43994 0.29046 0.0
H1135 H 0.37095 0.42846 0.31878 0.0
H1136 H 0.38625 0.47476 0.30582 0.0
H1137 H 0.5355 0.45148 0.34232 0.0
H1138 H 0.48815 0.41073 0.34868 0.0
H1139 H 0.50544 0.42083 0.319 0.0
H1140 H 0.35704 0.31603 0.33714 0.0
H1141 H 0.40608 0.34446 0.26743 0.0
H1142 H 0.38713 0.40649 0.35642 0.0
H1143 H 0.4268 0.40055 0.36505 0.0
H1144 H 0.37767 0.36069 0.36749 0.0
H1145 H 0.44807 0.44085 0.27001 0.0
H1146 H 0.45832 0.40574 0.25765 0.0
H1147 H 0.48709 0.43615 0.28143 0.0
C1148 C 0.57425 0.98071 0.30065 0.0
C1149 C 0.60631 0.97586 0.30387 0.0
C1150 C 0.54707 0.97227 0.31879 0.0
C1151 C 0.55212 0.95862 0.34059 0.0
C1152 C 0.58367 0.95244 0.34371 0.0
C1153 C 0.61046 0.96121 0.32532 0.0
C1154 C 0.51359 0.97908 0.31485 0.0
C1155 C 0.58978 0.93768 0.36669 0.0
C1156 C 0.50842 0.98351 0.3918 0.0
C1157 C 0.47258 0.94955 0.39471 0.0
C1158 C 0.53542 -0.01382 0.37496 0.0
C1159 C 0.52622 0.95407 0.36065 0.0
C1160 C 0.49111 0.91891 0.36447 0.0
C1161 C 0.4646 0.91701 0.38158 0.0
C1162 C 0.57283 0.02403 0.37162 0.0
C1163 C 0.48058 0.88405 0.3496 0.0
H1164 H 0.57067 -0.00831 0.28408 0.0
H1165 H 0.63488 0.95686 0.32787 0.0
H1166 H 0.4856 0.95281 0.31928 0.0
H1167 H 0.51642 0.00229 0.3266 0.0
H1168 H 0.5124 -0.0126 0.29642 0.0
H1169 H 0.61389 0.93143 0.36561 0.0
H1170 H 0.59658 0.95935 0.38062 0.0
H1171 H 0.5628 0.91112 0.37217 0.0
H1172 H 0.5148 0.00858 0.40214 0.0
H1173 H 0.43687 0.8907 0.3838 0.0
H1174 H 0.57276 0.03647 0.35427 0.0
H1175 H 0.59814 0.01962 0.37179 0.0
H1176 H 0.5769 0.04518 0.38542 0.0
H1177 H 0.47409 0.88916 0.3315 0.0
H1178 H 0.45474 0.85779 0.35666 0.0
H1179 H 0.50532 0.87882 0.34836 0.0
C1180 C 0.9292 0.58857 0.36434 0.0
C1181 C 0.9291 0.61006 0.34505 0.0
C1182 C 0.93858 0.55963 0.36153 0.0
C1183 C 0.94761 0.55178 0.33885 0.0
C1184 C 0.94586 0.57218 0.31918 0.0
C1185 C 0.93682 0.60123 0.32253 0.0
C1186 C 0.94025 0.53845 0.38293 0.0
C1187 C 0.95469 0.56415 0.29469 0.0
C1188 C 0.01236 0.50807 0.33547 0.0
C1189 C -0.01504 0.46902 0.33271 0.0
C1190 C 0.00059 0.53541 0.33718 0.0
C1191 C 0.96054 0.52336 0.33586 0.0
C1192 C 0.93288 0.48414 0.33231 0.0
C1193 C 0.94542 0.4574 0.33088 0.0
C1194 C 0.0309 0.57704 0.34105 0.0
C1195 C 0.88999 0.47032 0.33055 0.0
H1196 H 0.92336 0.59528 0.38179 0.0
H1197 H 0.93649 0.61751 0.3075 0.0
H1198 H 0.92158 0.50699 0.3805 0.0
H1199 H 0.97045 0.54458 0.38538 0.0
H1200 H 0.93071 0.54676 0.39917 0.0
H1201 H 0.94932 0.58062 0.28111 0.0
H1202 H -0.0144 0.57182 0.29343 0.0
H1203 H 0.93666 0.53306 0.29074 0.0
H1204 H 0.04291 0.51715 0.33701 0.0
H1205 H 0.92409 0.42722 0.32869 0.0
H1206 H 0.02533 0.58682 0.35809 0.0
H1207 H 0.02908 0.59525 0.32714 0.0
H1208 H 0.06091 0.58182 0.34111 0.0
H1209 H 0.87923 0.47555 0.34737 0.0
H1210 H 0.87251 0.4392 0.32645 0.0
H1211 H 0.88499 0.48666 0.31673 0.0
C1212 C 0.4643 0.48886 0.59134 0.0
C1213 C 0.46516 0.45506 0.58719 0.0
C1214 C 0.49743 0.52235 0.59881 0.0
C1215 C 0.53228 0.52195 0.60245 0.0
C1216 C 0.53387 0.48837 0.5974 0.0
C1217 C 0.5002 0.45522 0.58966 0.0
C1218 C 0.49464 0.55771 0.6037 0.0
C1219 C 0.57057 0.48696 0.60116 0.0
C1220 C 0.62237 0.62018 0.60954 0.0
C1221 C 0.62393 0.62426 0.63404 0.0
C1222 C 0.59359 0.58635 0.59895 0.0
C1223 C 0.56584 0.55593 0.61321 0.0
C1224 C 0.568 0.55942 0.63795 0.0
C1225 C 0.59694 0.59356 0.64805 0.0
C1226 C 0.59208 0.58366 0.5725 0.0
C1227 C 0.53896 0.52754 0.65376 0.0
H1228 H 0.43736 0.48898 0.58914 0.0
H1229 H 0.50091 0.42909 0.58647 0.0
H1230 H 0.4983 0.56414 0.62276 0.0
H1231 H 0.51826 0.58297 0.59434 0.0
H1232 H 0.46627 0.55411 0.5983 0.0
H1233 H 0.56815 0.46005 0.59432 0.0
H1234 H 0.59571 0.51184 0.59247 0.0
H1235 H 0.57686 0.48892 0.6202 0.0
H1236 H 0.64327 0.64365 0.59856 0.0
H1237 H 0.59814 0.59625 0.667 0.0
H1238 H 0.56541 0.58287 0.56624 0.0
H1239 H 0.59055 0.55668 0.5667 0.0
H1240 H 0.61774 0.60836 0.56399 0.0
H1241 H 0.50958 0.52357 0.65116 0.0
H1242 H 0.54643 0.53359 0.67262 0.0
H1243 H 0.53733 0.50003 0.6492 0.0
C1244 C 0.49366 0.00812 0.67703 0.0
C1245 C 0.52598 0.04521 0.67884 0.0
C1246 C 0.45581 0.00167 0.67973 0.0
C1247 C 0.45029 0.03317 0.68401 0.0
C1248 C 0.48284 0.07055 0.68642 0.0
C1249 C 0.52038 0.07609 0.68397 0.0
C1250 C 0.42172 0.9613 0.67738 0.0
C1251 C 0.47801 0.10485 0.69072 0.0
C1252 C 0.35304 0.0189 0.66497 0.0
C1253 C 0.33244 0.00963 0.68629 0.0
C1254 C 0.39191 0.02786 0.66407 0.0
C1255 C 0.41035 0.02706 0.68502 0.0
C1256 C 0.39007 0.01882 0.7067 0.0
C1257 C 0.35136 0.01043 0.70712 0.0
C1258 C 0.41292 0.03713 0.64066 0.0
C1259 C 0.40877 0.01747 0.72935 0.0
H1260 H 0.4979 0.98418 0.67312 0.0
H1261 H 0.54531 0.10487 0.68523 0.0
H1262 H 0.40224 0.95367 0.69296 0.0
H1263 H 0.40443 0.95953 0.66179 0.0
H1264 H 0.43104 0.93971 0.6755 0.0
H1265 H 0.5063 0.1317 0.69332 0.0
H1266 H 0.46322 0.10899 0.67555 0.0
H1267 H 0.45934 0.09987 0.70642 0.0
H1268 H 0.33852 0.01856 0.64881 0.0
H1269 H 0.33558 0.00324 0.72362 0.0
H1270 H 0.42002 0.01461 0.63612 0.0
H1271 H 0.44081 0.06481 0.64163 0.0
H1272 H 0.3953 0.03904 0.62628 0.0
H1273 H 0.41563 -0.00596 0.72852 0.0
H1274 H 0.3897 0.01252 0.74487 0.0
H1275 H 0.43663 0.04473 0.73186 0.0
C1276 C 0.08666 0.41636 0.70165 0.0
C1277 C 0.09173 0.38693 0.69241 0.0
C1278 C 0.07614 0.43761 0.68716 0.0
C1279 C 0.07057 0.42913 0.66292 0.0
C1280 C 0.07908 0.40194 0.65316 0.0
C1281 C 0.08973 0.38123 0.66803 0.0
C1282 C 0.06795 0.46692 0.69813 0.0
C1283 C 0.07377 0.39234 0.62734 0.0
C1284 C -0.00874 0.44079 0.63508 0.0
C1285 C 0.01286 0.47563 0.62298 0.0
C1286 C 0.00985 0.42505 0.64777 0.0
C1287 C 0.05102 0.44486 0.64851 0.0
C1288 C 0.07303 0.47974 0.636 0.0
C1289 C 0.05365 0.49464 0.62325 0.0
C1290 C -0.01462 0.38747 0.66068 0.0
C1291 C 0.11694 0.50167 0.63652 0.0
H1292 H 0.08863 0.42135 0.72042 0.0
H1293 H 0.09402 0.35885 0.66066 0.0
H1294 H 0.08136 0.49373 0.68754 0.0
H1295 H 0.03608 0.45539 0.69858 0.0
H1296 H 0.07897 0.47406 0.71636 0.0
H1297 H 0.08715 0.37509 0.62197 0.0
H1298 H 0.04223 0.37556 0.62344 0.0
H1299 H 0.08662 0.41887 0.6165 0.0
H1300 H 0.95975 0.42591 0.63479 0.0
H1301 H 0.07049 0.52166 0.61393 0.0
H1302 H -0.00917 0.39183 0.67981 0.0
H1303 H -0.00641 0.36621 0.65495 0.0
H1304 H 0.95376 0.37515 0.65772 0.0
H1305 H 0.12691 0.51095 0.65473 0.0
H1306 H 0.12977 0.52749 0.62499 0.0
H1307 H 0.12839 0.48289 0.63092 0.0
C1308 C 0.13636 0.83302 0.64323 0.0
C1309 C 0.17301 0.84386 0.65245 0.0
C1310 C 0.11326 0.79665 0.63328 0.0
C1311 C 0.12746 0.77085 0.63226 0.0
C1312 C 0.1659 0.78307 0.63942 0.0
C1313 C 0.18815 0.81938 0.64962 0.0
C1314 C 0.07231 0.78463 0.62602 0.0
C1315 C 0.18235 0.75663 0.63816 0.0
C1316 C 0.05386 0.66641 0.64369 0.0
C1317 C 0.04666 0.65082 0.62104 0.0
C1318 C 0.08001 0.70539 0.64741 0.0
C1319 C 0.10002 0.72947 0.62802 0.0
C1320 C 0.09333 0.71401 0.60509 0.0
C1321 C 0.06636 0.67477 0.60182 0.0
C1322 C 0.08589 0.72084 0.67216 0.0
C1323 C 0.11464 0.73886 0.58411 0.0
H1324 H 0.12453 0.85187 0.64519 0.0
H1325 H 0.21674 0.82786 0.65634 0.0
H1326 H 0.06513 0.76905 0.60909 0.0
H1327 H 0.0515 0.76475 0.63943 0.0
H1328 H 0.06793 0.80961 0.62431 0.0
H1329 H 0.21446 0.77251 0.64021 0.0
H1330 H 0.16931 0.73486 0.6524 0.0
H1331 H 0.17505 0.74104 0.62122 0.0
H1332 H 0.03851 0.6482 0.65863 0.0
H1333 H 0.06097 0.66281 0.58429 0.0
H1334 H 0.07882 0.74411 0.67317 0.0
H1335 H 0.1168 0.73338 0.67716 0.0
H1336 H 0.06752 0.6983 0.68522 0.0
H1337 H 0.10803 0.76236 0.58242 0.0
H1338 H 0.10671 0.72227 0.5675 0.0
H1339 H 0.1465 0.75251 0.58657 0.0
C1340 C 0.16263 0.26785 0.72359 0.0
C1341 C 0.17302 0.29899 0.73865 0.0
C1342 C 0.18925 0.269 0.70684 0.0
C1343 C 0.22685 0.302 0.70532 0.0
C1344 C 0.23862 0.33156 0.72212 0.0
C1345 C 0.21152 0.32963 0.73866 0.0
C1346 C 0.17597 0.23657 0.68947 0.0
C1347 C 0.2786 0.36704 0.72125 0.0
C1348 C 0.30533 0.30713 0.66482 0.0
C1349 C 0.30154 0.326 0.6452 0.0
C1350 C 0.28048 0.29802 0.68434 0.0
C1351 C 0.25162 0.30853 0.68431 0.0
C1352 C 0.24744 0.32728 0.66449 0.0
C1353 C 0.27234 0.33558 0.6451 0.0
C1354 C 0.28531 0.2775 0.70504 0.0
C1355 C 0.21709 0.3392 0.6639 0.0
H1356 H 0.13297 0.24391 0.72366 0.0
H1357 H 0.2198 0.35345 0.75058 0.0
H1358 H 0.16981 0.24564 0.67244 0.0
H1359 H 0.19902 0.22933 0.68628 0.0
H1360 H 0.14911 0.21035 0.69558 0.0
H1361 H 0.28494 0.38462 0.73739 0.0
H1362 H 0.30137 0.35918 0.71892 0.0
H1363 H 0.2806 0.38501 0.70597 0.0
H1364 H 0.32755 0.29916 0.66486 0.0
H1365 H 0.26926 0.35009 0.62998 0.0
H1366 H 0.25732 0.25105 0.70922 0.0
H1367 H 0.29362 0.29613 0.72077 0.0
H1368 H 0.30783 0.2695 0.70176 0.0
H1369 H 0.18771 0.31383 0.66683 0.0
H1370 H 0.21719 0.35285 0.64696 0.0
H1371 H 0.22235 0.35984 0.67825 0.0
C1372 C 0.65779 0.8146 0.65956 0.0
C1373 C 0.69445 0.81909 0.66393 0.0
C1374 C 0.65223 0.84621 0.65959 0.0
C1375 C 0.68415 0.88328 0.66404 0.0
C1376 C 0.72156 0.88827 0.66762 0.0
C1377 C 0.72628 0.85604 0.66754 0.0
C1378 C 0.61189 0.83971 0.65567 0.0
C1379 C 0.75628 0.92746 0.67228 0.0
C1380 C 0.67169 0.9675 0.64751 0.0
C1381 C 0.66099 0.97639 0.66913 0.0
C1382 C 0.68018 0.93781 0.64568 0.0
C1383 C 0.67778 0.91643 0.66592 0.0
C1384 C 0.66741 0.92548 0.68784 0.0
C1385 C 0.65918 0.95538 0.68918 0.0
C1386 C 0.69117 0.92898 0.62202 0.0
C1387 C 0.6644 0.90316 0.70981 0.0
H1388 H 0.63304 0.78614 0.65671 0.0
H1389 H 0.75466 0.85967 0.67097 0.0
H1390 H 0.6016 0.84768 0.67169 0.0
H1391 H 0.61242 0.85832 0.64117 0.0
H1392 H 0.59057 0.80934 0.65135 0.0
H1393 H 0.7838 0.92684 0.67318 0.0
H1394 H 0.75928 0.94798 0.65833 0.0
H1395 H 0.75198 0.93864 0.68916 0.0
H1396 H 0.67336 0.98367 0.63192 0.0
H1397 H 0.65106 0.96208 0.70597 0.0
H1398 H 0.66911 0.89947 0.61663 0.0
H1399 H 0.71945 0.92997 0.62311 0.0
H1400 H 0.69343 0.94942 0.60819 0.0
H1401 H 0.6415 0.8726 0.70768 0.0
H1402 H 0.6573 0.91466 0.72563 0.0
H1403 H 0.69222 0.90385 0.71282 0.0
loop_
_geom_bond_atom_site_label_1
_geom_bond_atom_site_label_2
_geom_bond_distance
_geom_bond_site_symmetry_2
_ccdc_geom_bond_type
C0 O1 1.306 . S
C0 O3 1.160 . S
O1 C0 1.306 . S
O1 Cd2 2.228 1_554 S
Cd2 O1 2.228 1_556 S
Cd2 O6 2.273 1_556 S
Cd2 O10 2.277 1_556 S
O3 C0 1.160 . S
O3 Cd4 2.203 . S
Cd4 O3 2.203 . S
Cd4 O6 2.411 . S
Cd4 O7 2.333 . S
Cd4 O8 2.352 . S
Cd4 O12 2.277 1_545 S
Cd4 O13 2.356 . S
C5 O10 1.209 1_565 S
C5 O12 1.226 . S
O6 Cd2 2.273 1_554 S
O6 Cd4 2.411 . S
O6 C9 1.320 . S
O7 Cd4 2.333 . S
O7 C9 1.214 . S
O8 Cd4 2.352 . S
O8 C11 1.258 . S
C9 O6 1.320 . S
C9 O7 1.214 . S
O10 Cd2 2.277 1_554 S
O10 C5 1.209 1_545 S
C11 O8 1.258 . S
C11 O13 1.282 . S
O12 Cd4 2.277 1_565 S
O12 C5 1.226 . S
O13 Cd4 2.356 . S
O13 C11 1.282 . S
C14 O15 1.306 . S
C14 O17 1.160 . S
O15 C14 1.306 . S
O15 Cd16 2.228 . S
Cd16 O15 2.228 . S
Cd16 O20 2.273 1_655 S
Cd16 O24 2.277 . S
O17 C14 1.160 . S
O17 Cd18 2.203 . S
Cd18 O17 2.203 . S
Cd18 O20 2.411 1_655 S
Cd18 O21 2.333 1_655 S
Cd18 O22 2.352 . S
Cd18 O26 2.277 . S
Cd18 O27 2.356 . S
C19 O24 1.209 . S
C19 O26 1.226 . S
O20 Cd16 2.273 1_455 S
O20 Cd18 2.411 1_455 S
O20 C23 1.320 . S
O21 Cd18 2.333 1_455 S
O21 C23 1.214 . S
O22 Cd18 2.352 . S
O22 C25 1.258 . S
C23 O20 1.320 . S
C23 O21 1.214 . S
O24 Cd16 2.277 . S
O24 C19 1.209 . S
C25 O22 1.258 . S
C25 O27 1.282 . S
O26 Cd18 2.277 . S
O26 C19 1.226 . S
O27 Cd18 2.356 . S
O27 C25 1.282 . S
C28 O29 1.306 . S
C28 O31 1.160 . S
O29 C28 1.306 . S
O29 Cd30 2.228 1_554 S
Cd30 O29 2.228 1_556 S
Cd30 O34 2.273 1_556 S
Cd30 O38 2.277 1_556 S
O31 C28 1.160 . S
O31 Cd32 2.203 . S
Cd32 O31 2.203 . S
Cd32 O34 2.411 . S
Cd32 O35 2.333 . S
Cd32 O36 2.352 . S
Cd32 O40 2.277 . S
Cd32 O41 2.356 . S
C33 O38 1.209 . S
C33 O40 1.226 . S
O34 Cd30 2.273 1_554 S
O34 Cd32 2.411 . S
O34 C37 1.320 . S
O35 Cd32 2.333 . S
O35 C37 1.214 . S
O36 Cd32 2.352 . S
O36 C39 1.258 . S
C37 O34 1.320 . S
C37 O35 1.214 . S
O38 Cd30 2.277 1_554 S
O38 C33 1.209 . S
C39 O36 1.258 . S
C39 O41 1.282 . S
O40 Cd32 2.277 . S
O40 C33 1.226 . S
O41 Cd32 2.356 . S
O41 C39 1.282 . S
C42 O43 1.306 . S
C42 O45 1.160 . S
O43 C42 1.306 . S
O43 Cd44 2.228 1_556 S
Cd44 O43 2.228 1_554 S
Cd44 O48 2.273 1_554 S
Cd44 O52 2.277 1_554 S
O45 C42 1.160 . S
O45 Cd46 2.203 . S
Cd46 O45 2.203 . S
Cd46 O48 2.411 . S
Cd46 O49 2.333 . S
Cd46 O50 2.352 . S
Cd46 O54 2.277 1_565 S
Cd46 O55 2.356 . S
C47 O52 1.209 1_545 S
C47 O54 1.226 . S
O48 Cd44 2.273 1_556 S
O48 Cd46 2.411 . S
O48 C51 1.320 . S
O49 Cd46 2.333 . S
O49 C51 1.214 . S
O50 Cd46 2.352 . S
O50 C53 1.258 . S
C51 O48 1.320 . S
C51 O49 1.214 . S
O52 Cd44 2.277 1_556 S
O52 C47 1.209 1_565 S
C53 O50 1.258 . S
C53 O55 1.282 . S
O54 Cd46 2.277 1_545 S
O54 C47 1.226 . S
O55 Cd46 2.356 . S
O55 C53 1.282 . S
C56 O57 1.306 . S
C56 O59 1.160 . S
O57 C56 1.306 . S
O57 Cd58 2.232 . S
Cd58 O57 2.232 . S
Cd58 O62 2.278 . S
Cd58 O66 2.280 . S
O59 C56 1.160 . S
O59 Cd60 2.203 . S
Cd60 O59 2.203 . S
Cd60 O62 2.411 . S
Cd60 O63 2.333 . S
Cd60 O64 2.352 . S
Cd60 O68 2.277 1_455 S
Cd60 O69 2.356 . S
C61 O66 1.209 1_655 S
C61 O68 1.226 . S
O62 Cd58 2.278 . S
O62 Cd60 2.411 . S
O62 C65 1.320 . S
O63 Cd60 2.333 . S
O63 C65 1.214 . S
O64 Cd60 2.352 . S
O64 C67 1.258 . S
C65 O62 1.320 . S
C65 O63 1.214 . S
O66 Cd58 2.280 . S
O66 C61 1.209 1_455 S
C67 O64 1.258 . S
C67 O69 1.282 . S
O68 Cd60 2.277 1_655 S
O68 C61 1.226 . S
O69 Cd60 2.356 . S
O69 C67 1.282 . S
C70 O71 1.306 . S
C70 O73 1.160 . S
O71 C70 1.306 . S
O71 Cd72 2.228 1_556 S
Cd72 O71 2.228 1_554 S
Cd72 O76 2.273 1_554 S
Cd72 O80 2.277 1_554 S
O73 C70 1.160 . S
O73 Cd74 2.203 . S
Cd74 O73 2.203 . S
Cd74 O76 2.411 . S
Cd74 O77 2.333 . S
Cd74 O78 2.352 . S
Cd74 O82 2.277 . S
Cd74 O83 2.356 . S
C75 O80 1.209 . S
C75 O82 1.226 . S
O76 Cd72 2.273 1_556 S
O76 Cd74 2.411 . S
O76 C79 1.320 . S
O77 Cd74 2.333 . S
O77 C79 1.214 . S
O78 Cd74 2.352 . S
O78 C81 1.258 . S
C79 O76 1.320 . S
C79 O77 1.214 . S
O80 Cd72 2.277 1_556 S
O80 C75 1.209 . S
C81 O78 1.258 . S
C81 O83 1.282 . S
O82 Cd74 2.277 . S
O82 C75 1.226 . S
O83 Cd74 2.356 . S
O83 C81 1.282 . S
C84 O85 1.306 . S
C84 O87 1.160 . S
O85 C84 1.306 . S
O85 Cd86 2.228 . S
Cd86 O85 2.228 . S
Cd86 O90 2.273 . S
Cd86 O94 2.277 1_455 S
O87 C84 1.160 . S
O87 Cd88 2.203 1_455 S
Cd88 O87 2.203 1_655 S
Cd88 O90 2.411 1_655 S
Cd88 O91 2.333 . S
Cd88 O92 2.352 1_655 S
Cd88 O96 2.277 . S
Cd88 O97 2.356 . S
C89 O94 1.209 . S
C89 O96 1.226 . S
O90 Cd86 2.273 . S
O90 Cd88 2.411 1_455 S
O90 C93 1.320 1_455 S
O91 Cd88 2.333 . S
O91 C93 1.214 . S
O92 Cd88 2.352 1_455 S
O92 C95 1.258 . S
C93 O90 1.320 1_655 S
C93 O91 1.214 . S
O94 Cd86 2.277 1_655 S
O94 C89 1.209 . S
C95 O92 1.258 . S
C95 O97 1.282 1_455 S
O96 Cd88 2.277 . S
O96 C89 1.226 . S
O97 Cd88 2.356 . S
O97 C95 1.282 1_655 S
C98 O99 1.306 . S
C98 O101 1.160 . S
O99 C98 1.306 . S
O99 Cd100 2.228 . S
Cd100 O99 2.228 . S
Cd100 O104 2.273 . S
Cd100 O108 2.277 . S
O101 C98 1.160 . S
O101 Cd102 2.203 . S
Cd102 O101 2.203 . S
Cd102 O104 2.411 . S
Cd102 O105 2.333 . S
Cd102 O106 2.352 . S
Cd102 O110 2.277 . S
Cd102 O111 2.356 . S
C103 O108 1.209 . S
C103 O110 1.226 . S
O104 Cd100 2.273 . S
O104 Cd102 2.411 . S
O104 C107 1.320 . S
O105 Cd102 2.333 . S
O105 C107 1.214 . S
O106 Cd102 2.352 . S
O106 C109 1.258 . S
C107 O104 1.320 . S
C107 O105 1.214 . S
O108 Cd100 2.277 . S
O108 C103 1.209 . S
C109 O106 1.258 . S
C109 O111 1.282 . S
O110 Cd102 2.277 . S
O110 C103 1.226 . S
O111 Cd102 2.356 . S
O111 C109 1.282 . S
C112 O113 1.306 . S
C112 O115 1.160 . S
O113 C112 1.306 . S
O113 Cd114 2.228 . S
Cd114 O113 2.228 . S
Cd114 O118 2.273 . S
Cd114 O122 2.277 1_565 S
O115 C112 1.160 . S
O115 Cd116 2.203 1_565 S
Cd116 O115 2.203 1_545 S
Cd116 O118 2.411 1_545 S
Cd116 O119 2.333 . S
Cd116 O120 2.352 1_545 S
Cd116 O124 2.277 . S
Cd116 O125 2.356 . S
C117 O122 1.209 . S
C117 O124 1.226 . S
O118 Cd114 2.273 . S
O118 Cd116 2.411 1_565 S
O118 C121 1.320 1_565 S
O119 Cd116 2.333 . S
O119 C121 1.214 . S
O120 Cd116 2.352 1_565 S
O120 C123 1.258 . S
C121 O118 1.320 1_545 S
C121 O119 1.214 . S
O122 Cd114 2.277 1_545 S
O122 C117 1.209 . S
C123 O120 1.258 . S
C123 O125 1.282 1_565 S
O124 Cd116 2.277 . S
O124 C117 1.226 . S
O125 Cd116 2.356 . S
O125 C123 1.282 1_545 S
C126 O127 1.306 . S
C126 O129 1.160 . S
O127 C126 1.306 . S
O127 Cd128 2.228 . S
Cd128 O127 2.228 . S
Cd128 O132 2.273 . S
Cd128 O136 2.277 . S
O129 C126 1.160 . S
O129 Cd130 2.203 . S
Cd130 O129 2.203 . S
Cd130 O132 2.411 . S
Cd130 O133 2.333 . S
Cd130 O134 2.352 . S
Cd130 O138 2.277 . S
Cd130 O139 2.356 . S
C131 O136 1.209 . S
C131 O138 1.226 . S
O132 Cd128 2.273 . S
O132 Cd130 2.411 . S
O132 C135 1.320 . S
O133 Cd130 2.333 . S
O133 C135 1.214 . S
O134 Cd130 2.352 . S
O134 C137 1.258 . S
C135 O132 1.320 . S
C135 O133 1.214 . S
O136 Cd128 2.277 . S
O136 C131 1.209 . S
C137 O134 1.258 . S
C137 O139 1.282 . S
O138 Cd130 2.277 . S
O138 C131 1.226 . S
O139 Cd130 2.356 . S
O139 C137 1.282 . S
C140 O141 1.306 1_565 S
C140 O143 1.152 1_565 S
O141 C140 1.306 1_545 S
O141 Cd142 2.228 . S
Cd142 O141 2.228 . S
Cd142 O146 2.273 . S
Cd142 O150 2.277 . S
O143 C140 1.152 1_545 S
O143 Cd144 2.215 . S
Cd144 O143 2.215 . S
Cd144 O146 2.411 . S
Cd144 O147 2.333 . S
Cd144 O148 2.352 . S
Cd144 O152 2.277 . S
Cd144 O153 2.356 . S
C145 O150 1.209 . S
C145 O152 1.226 . S
O146 Cd142 2.273 . S
O146 Cd144 2.411 . S
O146 C149 1.320 . S
O147 Cd144 2.333 . S
O147 C149 1.214 . S
O148 Cd144 2.352 . S
O148 C151 1.258 . S
C149 O146 1.320 . S
C149 O147 1.214 . S
O150 Cd142 2.277 . S
O150 C145 1.209 . S
C151 O148 1.258 . S
C151 O153 1.282 . S
O152 Cd144 2.277 . S
O152 C145 1.226 . S
O153 Cd144 2.356 . S
O153 C151 1.282 . S
C154 O155 1.306 . S
C154 O157 1.160 . S
O155 C154 1.306 . S
O155 Cd156 2.228 1_455 S
Cd156 O155 2.228 1_655 S
Cd156 O160 2.273 . S
Cd156 O164 2.277 . S
O157 C154 1.160 . S
O157 Cd158 2.203 1_455 S
Cd158 O157 2.203 1_655 S
Cd158 O160 2.411 . S
Cd158 O161 2.333 . S
Cd158 O162 2.352 . S
Cd158 O166 2.277 . S
Cd158 O167 2.356 . S
C159 O164 1.209 . S
C159 O166 1.226 . S
O160 Cd156 2.273 . S
O160 Cd158 2.411 . S
O160 C163 1.320 . S
O161 Cd158 2.333 . S
O161 C163 1.214 . S
O162 Cd158 2.352 . S
O162 C165 1.258 . S
C163 O160 1.320 . S
C163 O161 1.214 . S
O164 Cd156 2.277 . S
O164 C159 1.209 . S
C165 O162 1.258 . S
C165 O167 1.282 . S
O166 Cd158 2.277 . S
O166 C159 1.226 . S
O167 Cd158 2.356 . S
O167 C165 1.282 . S
C168 O169 1.306 . S
C168 O171 1.160 . S
O169 C168 1.306 . S
O169 Cd170 2.228 . S
Cd170 O169 2.228 . S
Cd170 O174 2.273 . S
Cd170 O178 2.277 . S
O171 C168 1.160 . S
O171 Cd172 2.203 . S
Cd172 O171 2.203 . S
Cd172 O174 2.411 . S
Cd172 O175 2.333 . S
Cd172 O176 2.352 . S
Cd172 O180 2.277 . S
Cd172 O181 2.356 . S
C173 O178 1.209 . S
C173 O180 1.226 . S
O174 Cd170 2.273 . S
O174 Cd172 2.411 . S
O174 C177 1.320 . S
O175 Cd172 2.333 . S
O175 C177 1.214 . S
O176 Cd172 2.352 . S
O176 C179 1.258 . S
C177 O174 1.320 . S
C177 O175 1.214 . S
O178 Cd170 2.277 . S
O178 C173 1.209 . S
C179 O176 1.258 . S
C179 O181 1.282 . S
O180 Cd172 2.277 . S
O180 C173 1.226 . S
O181 Cd172 2.356 . S
O181 C179 1.282 . S
C182 O183 1.306 . S
C182 O185 1.160 . S
O183 C182 1.306 . S
O183 Cd184 2.228 . S
Cd184 O183 2.228 . S
Cd184 O188 2.273 . S
Cd184 O192 2.277 . S
O185 C182 1.160 . S
O185 Cd186 2.203 . S
Cd186 O185 2.203 . S
Cd186 O188 2.411 . S
Cd186 O189 2.333 . S
Cd186 O190 2.352 1_565 S
Cd186 O194 2.277 . S
Cd186 O195 2.356 1_565 S
C187 O192 1.209 . S
C187 O194 1.226 . S
O188 Cd184 2.273 . S
O188 Cd186 2.411 . S
O188 C191 1.320 . S
O189 Cd186 2.333 . S
O189 C191 1.214 . S
O190 Cd186 2.352 1_545 S
O190 C193 1.258 . S
C191 O188 1.320 . S
C191 O189 1.214 . S
O192 Cd184 2.277 . S
O192 C187 1.209 . S
C193 O190 1.258 . S
C193 O195 1.282 . S
O194 Cd186 2.277 . S
O194 C187 1.226 . S
O195 Cd186 2.356 1_545 S
O195 C193 1.282 . S
C196 O197 1.306 . S
C196 O199 1.160 . S
O197 C196 1.306 . S
O197 Cd198 2.228 1_655 S
Cd198 O197 2.228 1_455 S
Cd198 O202 2.273 . S
Cd198 O206 2.277 . S
O199 C196 1.160 . S
O199 Cd200 2.203 1_655 S
Cd200 O199 2.203 1_455 S
Cd200 O202 2.411 . S
Cd200 O203 2.333 . S
Cd200 O204 2.352 . S
Cd200 O208 2.277 . S
Cd200 O209 2.356 . S
C201 O206 1.209 . S
C201 O208 1.226 . S
O202 Cd198 2.273 . S
O202 Cd200 2.411 . S
O202 C205 1.320 . S
O203 Cd200 2.333 . S
O203 C205 1.214 . S
O204 Cd200 2.352 . S
O204 C207 1.258 . S
C205 O202 1.320 . S
C205 O203 1.214 . S
O206 Cd198 2.277 . S
O206 C201 1.209 . S
C207 O204 1.258 . S
C207 O209 1.282 . S
O208 Cd200 2.277 . S
O208 C201 1.226 . S
O209 Cd200 2.356 . S
O209 C207 1.282 . S
C210 O211 1.306 . S
C210 O213 1.160 . S
O211 C210 1.306 . S
O211 Cd212 2.228 . S
Cd212 O211 2.228 . S
Cd212 O216 2.273 . S
Cd212 O220 2.277 1_655 S
O213 C210 1.160 . S
O213 Cd214 2.203 1_655 S
Cd214 O213 2.203 1_455 S
Cd214 O216 2.411 1_455 S
Cd214 O217 2.333 . S
Cd214 O218 2.352 1_455 S
Cd214 O222 2.277 . S
Cd214 O223 2.356 . S
C215 O220 1.209 . S
C215 O222 1.226 . S
O216 Cd212 2.273 . S
O216 Cd214 2.411 1_655 S
O216 C219 1.320 1_655 S
O217 Cd214 2.333 . S
O217 C219 1.214 . S
O218 Cd214 2.352 1_655 S
O218 C221 1.258 . S
C219 O216 1.320 1_455 S
C219 O217 1.214 . S
O220 Cd212 2.277 1_455 S
O220 C215 1.209 . S
C221 O218 1.258 . S
C221 O223 1.282 1_655 S
O222 Cd214 2.277 . S
O222 C215 1.226 . S
O223 Cd214 2.356 . S
O223 C221 1.282 1_455 S
C224 O225 1.306 . S
C224 O227 1.160 . S
O225 C224 1.306 . S
O225 Cd226 2.228 . S
Cd226 O225 2.228 . S
Cd226 O230 2.273 . S
Cd226 O234 2.277 . S
O227 C224 1.160 . S
O227 Cd228 2.203 . S
Cd228 O227 2.203 . S
Cd228 O230 2.411 . S
Cd228 O231 2.333 . S
Cd228 O232 2.352 . S
Cd228 O236 2.277 . S
Cd228 O237 2.356 . S
C229 O234 1.209 . S
C229 O236 1.226 . S
O230 Cd226 2.273 . S
O230 Cd228 2.411 . S
O230 C233 1.320 . S
O231 Cd228 2.333 . S
O231 C233 1.214 . S
O232 Cd228 2.352 . S
O232 C235 1.258 . S
C233 O230 1.320 . S
C233 O231 1.214 . S
O234 Cd226 2.277 . S
O234 C229 1.209 . S
C235 O232 1.258 . S
C235 O237 1.282 . S
O236 Cd228 2.277 . S
O236 C229 1.226 . S
O237 Cd228 2.356 . S
O237 C235 1.282 . S
C238 O239 1.306 . S
C238 O241 1.160 . S
O239 C238 1.306 . S
O239 Cd240 2.228 . S
Cd240 O239 2.228 . S
Cd240 O244 2.273 . S
Cd240 O248 2.277 1_545 S
O241 C238 1.160 . S
O241 Cd242 2.203 1_545 S
Cd242 O241 2.203 1_565 S
Cd242 O244 2.411 1_565 S
Cd242 O245 2.333 . S
Cd242 O246 2.352 1_565 S
Cd242 O250 2.277 . S
Cd242 O251 2.356 . S
C243 O248 1.209 . S
C243 O250 1.226 . S
O244 Cd240 2.273 . S
O244 Cd242 2.411 1_545 S
O244 C247 1.320 1_545 S
O245 Cd242 2.333 . S
O245 C247 1.214 . S
O246 Cd242 2.352 1_545 S
O246 C249 1.258 . S
C247 O244 1.320 1_565 S
C247 O245 1.214 . S
O248 Cd240 2.277 1_565 S
O248 C243 1.209 . S
C249 O246 1.258 . S
C249 O251 1.282 1_545 S
O250 Cd242 2.277 . S
O250 C243 1.226 . S
O251 Cd242 2.356 . S
O251 C249 1.282 1_565 S
C252 C253 1.391 . S
C252 C254 1.394 . S
C252 H268 0.931 . S
C253 C252 1.391 . S
C253 C257 1.376 1_545 S
C254 C252 1.394 . S
C254 C255 1.369 . S
C254 C258 1.513 1_554 S
C255 C254 1.369 . S
C255 C256 1.410 1_545 S
C255 C263 1.522 1_545 S
C256 C255 1.410 1_565 S
C256 C257 1.392 . S
C256 C259 1.511 . S
C257 C253 1.376 1_565 S
C257 C256 1.392 . S
C257 H269 0.929 . S
C258 C254 1.513 1_556 S
C258 H270 0.958 1_556 S
C258 H271 0.996 . S
C258 H272 0.947 1_556 S
C259 C256 1.511 . S
C259 H273 0.961 . S
C259 H274 0.961 . S
C259 H275 0.961 . S
C260 C261 1.370 . S
C260 C262 1.363 . S
C260 H276 0.931 . S
C261 C260 1.370 . S
C261 C265 1.408 . S
C262 C260 1.363 . S
C262 C263 1.336 1_556 S
C262 C266 1.524 . S
C263 C255 1.522 1_565 S
C263 C262 1.336 1_554 S
C263 C264 1.419 . S
C264 C263 1.419 . S
C264 C265 1.404 1_554 S
C264 C267 1.539 1_565 S
C265 C261 1.408 . S
C265 C264 1.404 1_556 S
C265 H277 0.930 1_556 S
C266 C262 1.524 . S
C266 H278 0.956 1_565 S
C266 H279 0.961 . S
C266 H280 0.961 . S
C267 C264 1.539 1_545 S
C267 H281 0.958 . S
C267 H282 0.961 1_545 S
C267 H283 0.960 . S
H268 C252 0.931 . S
H269 C257 0.929 . S
H270 C258 0.958 1_554 S
H271 C258 0.996 . S
H272 C258 0.947 1_554 S
H273 C259 0.961 . S
H274 C259 0.961 . S
H275 C259 0.961 . S
H276 C260 0.931 . S
H277 C265 0.930 1_554 S
H278 C266 0.956 1_545 S
H279 C266 0.961 . S
H280 C266 0.961 . S
H281 C267 0.958 . S
H282 C267 0.961 1_565 S
H283 C267 0.960 . S
C284 C285 1.391 . S
C284 C286 1.394 . S
C284 H300 0.931 . S
C285 C284 1.391 . S
C285 C289 1.376 1_655 S
C286 C284 1.394 . S
C286 C287 1.369 1_655 S
C286 C290 1.531 . S
C287 C286 1.369 1_455 S
C287 C288 1.410 . S
C287 C295 1.503 1_554 S
C288 C287 1.410 . S
C288 C289 1.392 . S
C288 C291 1.511 1_554 S
C289 C285 1.376 1_455 S
C289 C288 1.392 . S
C289 H301 0.929 . S
C290 C286 1.531 . S
C290 H302 0.960 . S
C290 H303 0.962 . S
C290 H304 0.960 . S
C291 C288 1.511 1_556 S
C291 H305 0.961 . S
C291 H306 0.961 . S
C291 H307 0.961 1_556 S
C292 C293 1.370 . S
C292 C294 1.363 . S
C292 H308 0.934 . S
C293 C292 1.370 . S
C293 C297 1.408 . S
C294 C292 1.363 . S
C294 C295 1.370 . S
C294 C298 1.524 1_455 S
C295 C287 1.503 1_556 S
C295 C294 1.370 . S
C295 C296 1.403 1_556 S
C296 C295 1.403 1_554 S
C296 C297 1.404 1_554 S
C296 C299 1.539 . S
C297 C293 1.408 . S
C297 C296 1.404 1_556 S
C297 H309 0.930 . S
C298 C294 1.524 1_655 S
C298 H310 0.956 . S
C298 H311 0.961 . S
C298 H312 0.961 . S
C299 C296 1.539 . S
C299 H313 0.958 . S
C299 H314 0.961 . S
C299 H315 0.960 . S
H300 C284 0.931 . S
H301 C289 0.929 . S
H302 C290 0.960 . S
H303 C290 0.962 . S
H304 C290 0.960 . S
H305 C291 0.961 . S
H306 C291 0.961 . S
H307 C291 0.961 1_554 S
H308 C292 0.934 . S
H309 C297 0.930 . S
H310 C298 0.956 . S
H311 C298 0.961 . S
H312 C298 0.961 . S
H313 C299 0.958 . S
H314 C299 0.961 . S
H315 C299 0.960 . S
C316 C317 1.391 . S
C316 C318 1.394 1_556 S
C316 H332 0.931 1_556 S
C317 C316 1.391 . S
C317 C321 1.376 . S
C318 C316 1.394 1_554 S
C318 C319 1.369 1_554 S
C318 C322 1.531 . S
C319 C318 1.369 1_556 S
C319 C320 1.410 . S
C319 C327 1.503 1_556 S
C320 C319 1.410 . S
C320 C321 1.392 . S
C320 C323 1.511 . S
C321 C317 1.376 . S
C321 C320 1.392 . S
C321 H333 0.929 . S
C322 C318 1.531 . S
C322 H334 0.960 . S
C322 H335 0.962 . S
C322 H336 0.960 . S
C323 C320 1.511 . S
C323 H337 0.961 . S
C323 H338 0.961 . S
C323 H339 0.961 . S
C324 C325 1.370 . S
C324 C326 1.363 . S
C324 H340 0.931 . S
C325 C324 1.370 . S
C325 C329 1.408 . S
C326 C324 1.363 . S
C326 C327 1.370 . S
C326 C330 1.514 1_554 S
C327 C319 1.503 1_554 S
C327 C326 1.370 . S
C327 C328 1.403 . S
C328 C327 1.403 . S
C328 C329 1.404 . S
C328 C331 1.539 . S
C329 C325 1.408 . S
C329 C328 1.404 . S
C329 H341 0.930 . S
C330 C326 1.514 1_556 S
C330 H342 0.945 1_556 S
C330 H343 0.984 . S
C330 H344 0.958 1_556 S
C331 C328 1.539 . S
C331 H345 0.958 . S
C331 H346 0.961 . S
C331 H347 0.960 . S
H332 C316 0.931 1_554 S
H333 C321 0.929 . S
H334 C322 0.960 . S
H335 C322 0.962 . S
H336 C322 0.960 . S
H337 C323 0.961 . S
H338 C323 0.961 . S
H339 C323 0.961 . S
H340 C324 0.931 . S
H341 C329 0.930 . S
H342 C330 0.945 1_554 S
H343 C330 0.984 . S
H344 C330 0.958 1_554 S
H345 C331 0.958 . S
H346 C331 0.961 . S
H347 C331 0.960 . S
C348 C349 1.391 . S
C348 C350 1.394 . S
C348 H364 0.931 . S
C349 C348 1.391 . S
C349 C353 1.376 . S
C350 C348 1.394 . S
C350 C351 1.369 . S
C350 C354 1.531 . S
C351 C350 1.369 . S
C351 C352 1.410 . S
C351 C359 1.503 . S
C352 C351 1.410 . S
C352 C353 1.392 . S
C352 C355 1.511 . S
C353 C349 1.376 . S
C353 C352 1.392 . S
C353 H365 0.929 . S
C354 C350 1.531 . S
C354 H366 0.960 . S
C354 H367 0.962 . S
C354 H368 0.960 . S
C355 C352 1.511 . S
C355 H369 0.961 . S
C355 H370 0.961 . S
C355 H371 0.961 . S
C356 C357 1.370 . S
C356 C358 1.363 . S
C356 H372 0.931 . S
C357 C356 1.370 . S
C357 C361 1.408 . S
C358 C356 1.363 . S
C358 C359 1.370 . S
C358 C362 1.524 . S
C359 C351 1.503 . S
C359 C358 1.370 . S
C359 C360 1.403 . S
C360 C359 1.403 . S
C360 C361 1.404 . S
C360 C363 1.539 . S
C361 C357 1.408 . S
C361 C360 1.404 . S
C361 H373 0.930 . S
C362 C358 1.524 . S
C362 H374 0.956 . S
C362 H375 0.961 . S
C362 H376 0.961 . S
C363 C360 1.539 . S
C363 H377 0.958 . S
C363 H378 0.961 . S
C363 H379 0.960 . S
H364 C348 0.931 . S
H365 C353 0.929 . S
H366 C354 0.960 . S
H367 C354 0.962 . S
H368 C354 0.960 . S
H369 C355 0.961 . S
H370 C355 0.961 . S
H371 C355 0.961 . S
H372 C356 0.931 . S
H373 C361 0.930 . S
H374 C362 0.956 . S
H375 C362 0.961 . S
H376 C362 0.961 . S
H377 C363 0.958 . S
H378 C363 0.961 . S
H379 C363 0.960 . S
C380 C381 1.391 . S
C380 C382 1.394 . S
C380 H396 0.931 . S
C381 C380 1.391 . S
C381 C385 1.376 . S
C382 C380 1.394 . S
C382 C383 1.369 . S
C382 C386 1.531 . S
C383 C382 1.369 . S
C383 C384 1.410 . S
C383 C391 1.503 . S
C384 C383 1.410 . S
C384 C385 1.392 . S
C384 C387 1.511 . S
C385 C381 1.376 . S
C385 C384 1.392 . S
C385 H397 0.929 . S
C386 C382 1.531 . S
C386 H398 0.960 . S
C386 H399 0.962 . S
C386 H400 0.960 . S
C387 C384 1.511 . S
C387 H401 0.961 . S
C387 H402 0.961 . S
C387 H403 0.961 . S
C388 C389 1.370 . S
C388 C390 1.363 . S
C388 H404 0.931 . S
C389 C388 1.370 . S
C389 C393 1.408 . S
C390 C388 1.363 . S
C390 C391 1.370 . S
C390 C394 1.524 . S
C391 C383 1.503 . S
C391 C390 1.370 . S
C391 C392 1.403 . S
C392 C391 1.403 . S
C392 C393 1.404 . S
C392 C395 1.539 . S
C393 C389 1.408 . S
C393 C392 1.404 . S
C393 H405 0.930 . S
C394 C390 1.524 . S
C394 H406 0.956 . S
C394 H407 0.961 . S
C394 H408 0.961 . S
C395 C392 1.539 . S
C395 H409 0.958 . S
C395 H410 0.961 . S
C395 H411 0.960 . S
H396 C380 0.931 . S
H397 C385 0.929 . S
H398 C386 0.960 . S
H399 C386 0.962 . S
H400 C386 0.960 . S
H401 C387 0.961 . S
H402 C387 0.961 . S
H403 C387 0.961 . S
H404 C388 0.931 . S
H405 C393 0.930 . S
H406 C394 0.956 . S
H407 C394 0.961 . S
H408 C394 0.961 . S
H409 C395 0.958 . S
H410 C395 0.961 . S
H411 C395 0.960 . S
C412 C413 1.391 . S
C412 C414 1.394 . S
C412 H428 0.931 . S
C413 C412 1.391 . S
C413 C417 1.376 . S
C414 C412 1.394 . S
C414 C415 1.369 . S
C414 C418 1.531 . S
C415 C414 1.369 . S
C415 C416 1.410 . S
C415 C423 1.503 . S
C416 C415 1.410 . S
C416 C417 1.392 . S
C416 C419 1.511 . S
C417 C413 1.376 . S
C417 C416 1.392 . S
C417 H429 0.929 . S
C418 C414 1.531 . S
C418 H430 0.960 . S
C418 H431 0.962 . S
C418 H432 0.960 . S
C419 C416 1.511 . S
C419 H433 0.961 . S
C419 H434 0.961 . S
C419 H435 0.961 . S
C420 C421 1.370 . S
C420 C422 1.363 . S
C420 H436 0.931 . S
C421 C420 1.370 . S
C421 C425 1.408 . S
C422 C420 1.363 . S
C422 C423 1.370 . S
C422 C426 1.524 . S
C423 C415 1.503 . S
C423 C422 1.370 . S
C423 C424 1.403 . S
C424 C423 1.403 . S
C424 C425 1.404 . S
C424 C427 1.539 . S
C425 C421 1.408 . S
C425 C424 1.404 . S
C425 H437 0.930 . S
C426 C422 1.524 . S
C426 H438 0.956 . S
C426 H439 0.961 . S
C426 H440 0.961 . S
C427 C424 1.539 . S
C427 H441 0.958 . S
C427 H442 0.961 . S
C427 H443 0.960 . S
H428 C412 0.931 . S
H429 C417 0.929 . S
H430 C418 0.960 . S
H431 C418 0.962 . S
H432 C418 0.960 . S
H433 C419 0.961 . S
H434 C419 0.961 . S
H435 C419 0.961 . S
H436 C420 0.931 . S
H437 C425 0.930 . S
H438 C426 0.956 . S
H439 C426 0.961 . S
H440 C426 0.961 . S
H441 C427 0.958 . S
H442 C427 0.961 . S
H443 C427 0.960 . S
C444 C445 1.391 . S
C444 C446 1.394 . S
C444 H460 0.931 . S
C445 C444 1.391 . S
C445 C449 1.376 . S
C446 C444 1.394 . S
C446 C447 1.369 . S
C446 C450 1.531 . S
C447 C446 1.369 . S
C447 C448 1.410 . S
C447 C455 1.503 . S
C448 C447 1.410 . S
C448 C449 1.392 . S
C448 C451 1.511 . S
C449 C445 1.376 . S
C449 C448 1.392 . S
C449 H461 0.929 . S
C450 C446 1.531 . S
C450 H462 0.960 . S
C450 H463 0.962 . S
C450 H464 0.960 . S
C451 C448 1.511 . S
C451 H465 0.961 . S
C451 H466 0.961 . S
C451 H467 0.961 . S
C452 C453 1.370 . S
C452 C454 1.363 . S
C452 H468 0.931 . S
C453 C452 1.370 . S
C453 C457 1.408 . S
C454 C452 1.363 . S
C454 C455 1.370 . S
C454 C458 1.524 . S
C455 C447 1.503 . S
C455 C454 1.370 . S
C455 C456 1.403 . S
C456 C455 1.403 . S
C456 C457 1.404 . S
C456 C459 1.539 . S
C457 C453 1.408 . S
C457 C456 1.404 . S
C457 H469 0.930 . S
C458 C454 1.524 . S
C458 H470 0.956 . S
C458 H471 0.961 . S
C458 H472 0.961 . S
C459 C456 1.539 . S
C459 H473 0.958 . S
C459 H474 0.961 . S
C459 H475 0.960 . S
H460 C444 0.931 . S
H461 C449 0.929 . S
H462 C450 0.960 . S
H463 C450 0.962 . S
H464 C450 0.960 . S
H465 C451 0.961 . S
H466 C451 0.961 . S
H467 C451 0.961 . S
H468 C452 0.931 . S
H469 C457 0.930 . S
H470 C458 0.956 . S
H471 C458 0.961 . S
H472 C458 0.961 . S
H473 C459 0.958 . S
H474 C459 0.961 . S
H475 C459 0.960 . S
C476 C477 1.391 . S
C476 C478 1.394 . S
C476 H492 0.931 . S
C477 C476 1.391 . S
C477 C481 1.376 . S
C478 C476 1.394 . S
C478 C479 1.369 . S
C478 C482 1.531 . S
C479 C478 1.369 . S
C479 C480 1.410 . S
C479 C487 1.503 . S
C480 C479 1.410 . S
C480 C481 1.392 . S
C480 C483 1.511 . S
C481 C477 1.376 . S
C481 C480 1.392 . S
C481 H493 0.929 . S
C482 C478 1.531 . S
C482 H494 0.960 . S
C482 H495 0.962 . S
C482 H496 0.960 . S
C483 C480 1.511 . S
C483 H497 0.961 . S
C483 H498 0.961 . S
C483 H499 0.961 . S
C484 C485 1.370 . S
C484 C486 1.363 . S
C484 H500 0.931 . S
C485 C484 1.370 . S
C485 C489 1.408 . S
C486 C484 1.363 . S
C486 C487 1.370 . S
C486 C490 1.524 . S
C487 C479 1.503 . S
C487 C486 1.370 . S
C487 C488 1.403 . S
C488 C487 1.403 . S
C488 C489 1.404 . S
C488 C491 1.539 . S
C489 C485 1.408 . S
C489 C488 1.404 . S
C489 H501 0.930 . S
C490 C486 1.524 . S
C490 H502 0.956 . S
C490 H503 0.961 . S
C490 H504 0.961 . S
C491 C488 1.539 . S
C491 H505 0.958 . S
C491 H506 0.961 . S
C491 H507 0.960 . S
H492 C476 0.931 . S
H493 C481 0.929 . S
H494 C482 0.960 . S
H495 C482 0.962 . S
H496 C482 0.960 . S
H497 C483 0.961 . S
H498 C483 0.961 . S
H499 C483 0.961 . S
H500 C484 0.931 . S
H501 C489 0.930 . S
H502 C490 0.956 . S
H503 C490 0.961 . S
H504 C490 0.961 . S
H505 C491 0.958 . S
H506 C491 0.961 . S
H507 C491 0.960 . S
C508 C509 1.391 . S
C508 C510 1.394 . S
C508 H524 0.931 . S
C509 C508 1.391 . S
C509 C513 1.376 . S
C510 C508 1.394 . S
C510 C511 1.369 . S
C510 C514 1.531 . S
C511 C510 1.369 . S
C511 C512 1.410 . S
C511 C519 1.503 . S
C512 C511 1.410 . S
C512 C513 1.392 . S
C512 C515 1.511 . S
C513 C509 1.376 . S
C513 C512 1.392 . S
C513 H525 0.929 . S
C514 C510 1.531 . S
C514 H526 0.960 . S
C514 H527 0.962 . S
C514 H528 0.960 . S
C515 C512 1.511 . S
C515 H529 0.961 . S
C515 H530 0.961 . S
C515 H531 0.961 . S
C516 C517 1.370 . S
C516 C518 1.363 . S
C516 H532 0.931 . S
C517 C516 1.370 . S
C517 C521 1.408 . S
C518 C516 1.363 . S
C518 C519 1.370 . S
C518 C522 1.524 . S
C519 C511 1.503 . S
C519 C518 1.370 . S
C519 C520 1.403 . S
C520 C519 1.403 . S
C520 C521 1.404 . S
C520 C523 1.539 . S
C521 C517 1.408 . S
C521 C520 1.404 . S
C521 H533 0.930 . S
C522 C518 1.524 . S
C522 H534 0.956 . S
C522 H535 0.961 . S
C522 H536 0.961 . S
C523 C520 1.539 . S
C523 H537 0.958 . S
C523 H538 0.961 . S
C523 H539 0.960 . S
H524 C508 0.931 . S
H525 C513 0.929 . S
H526 C514 0.960 . S
H527 C514 0.962 . S
H528 C514 0.960 . S
H529 C515 0.961 . S
H530 C515 0.961 . S
H531 C515 0.961 . S
H532 C516 0.931 . S
H533 C521 0.930 . S
H534 C522 0.956 . S
H535 C522 0.961 . S
H536 C522 0.961 . S
H537 C523 0.958 . S
H538 C523 0.961 . S
H539 C523 0.960 . S
C540 C541 1.391 . S
C540 C542 1.394 . S
C540 H556 0.931 . S
C541 C540 1.391 . S
C541 C545 1.376 . S
C542 C540 1.394 . S
C542 C543 1.369 . S
C542 C546 1.531 . S
C543 C542 1.369 . S
C543 C544 1.410 . S
C543 C551 1.503 . S
C544 C543 1.410 . S
C544 C545 1.392 . S
C544 C547 1.511 . S
C545 C541 1.376 . S
C545 C544 1.392 . S
C545 H557 0.929 . S
C546 C542 1.531 . S
C546 H558 0.960 . S
C546 H559 0.962 . S
C546 H560 0.960 . S
C547 C544 1.511 . S
C547 H561 0.961 . S
C547 H562 0.961 . S
C547 H563 0.961 . S
C548 C549 1.370 . S
C548 C550 1.363 . S
C548 H564 0.931 . S
C549 C548 1.370 . S
C549 C553 1.408 . S
C550 C548 1.363 . S
C550 C551 1.370 . S
C550 C554 1.524 . S
C551 C543 1.503 . S
C551 C550 1.370 . S
C551 C552 1.403 . S
C552 C551 1.403 . S
C552 C553 1.404 . S
C552 C555 1.539 . S
C553 C549 1.408 . S
C553 C552 1.404 . S
C553 H565 0.930 . S
C554 C550 1.524 . S
C554 H566 0.956 . S
C554 H567 0.961 . S
C554 H568 0.961 . S
C555 C552 1.539 . S
C555 H569 0.958 . S
C555 H570 0.961 . S
C555 H571 0.960 . S
H556 C540 0.931 . S
H557 C545 0.929 . S
H558 C546 0.960 . S
H559 C546 0.962 . S
H560 C546 0.960 . S
H561 C547 0.961 . S
H562 C547 0.961 . S
H563 C547 0.961 . S
H564 C548 0.931 . S
H565 C553 0.930 . S
H566 C554 0.956 . S
H567 C554 0.961 . S
H568 C554 0.961 . S
H569 C555 0.958 . S
H570 C555 0.961 . S
H571 C555 0.960 . S
C572 C573 1.391 . S
C572 C574 1.394 . S
C572 H588 0.931 . S
C573 C572 1.391 . S
C573 C577 1.376 . S
C574 C572 1.394 . S
C574 C575 1.369 . S
C574 C578 1.531 . S
C575 C574 1.369 . S
C575 C576 1.410 . S
C575 C583 1.503 . S
C576 C575 1.410 . S
C576 C577 1.392 . S
C576 C579 1.511 . S
C577 C573 1.376 . S
C577 C576 1.392 . S
C577 H589 0.929 . S
C578 C574 1.531 . S
C578 H590 0.960 . S
C578 H591 0.962 . S
C578 H592 0.960 . S
C579 C576 1.511 . S
C579 H593 0.961 . S
C579 H594 0.961 . S
C579 H595 0.961 . S
C580 C581 1.370 . S
C580 C582 1.363 . S
C580 H596 0.931 . S
C581 C580 1.370 . S
C581 C585 1.408 . S
C582 C580 1.363 . S
C582 C583 1.370 . S
C582 C586 1.524 . S
C583 C575 1.503 . S
C583 C582 1.370 . S
C583 C584 1.403 . S
C584 C583 1.403 . S
C584 C585 1.404 . S
C584 C587 1.539 . S
C585 C581 1.408 . S
C585 C584 1.404 . S
C585 H597 0.930 . S
C586 C582 1.524 . S
C586 H598 0.956 . S
C586 H599 0.961 . S
C586 H600 0.961 . S
C587 C584 1.539 . S
C587 H601 0.958 . S
C587 H602 0.961 . S
C587 H603 0.960 . S
H588 C572 0.931 . S
H589 C577 0.929 . S
H590 C578 0.960 . S
H591 C578 0.962 . S
H592 C578 0.960 . S
H593 C579 0.961 . S
H594 C579 0.961 . S
H595 C579 0.961 . S
H596 C580 0.931 . S
H597 C585 0.930 . S
H598 C586 0.956 . S
H599 C586 0.961 . S
H600 C586 0.961 . S
H601 C587 0.958 . S
H602 C587 0.961 . S
H603 C587 0.960 . S
C604 C605 1.391 . S
C604 C606 1.394 . S
C604 H620 0.931 . S
C605 C604 1.391 . S
C605 C609 1.376 . S
C606 C604 1.394 . S
C606 C607 1.369 . S
C606 C610 1.531 . S
C607 C606 1.369 . S
C607 C608 1.410 . S
C607 C615 1.503 . S
C608 C607 1.410 . S
C608 C609 1.392 . S
C608 C611 1.511 . S
C609 C605 1.376 . S
C609 C608 1.392 . S
C609 H621 0.929 . S
C610 C606 1.531 . S
C610 H622 0.960 . S
C610 H623 0.962 . S
C610 H624 0.960 . S
C611 C608 1.511 . S
C611 H625 0.961 . S
C611 H626 0.961 . S
C611 H627 0.961 . S
C612 C613 1.370 . S
C612 C614 1.363 . S
C612 H628 0.931 . S
C613 C612 1.370 . S
C613 C617 1.408 . S
C614 C612 1.363 . S
C614 C615 1.370 . S
C614 C618 1.524 . S
C615 C607 1.503 . S
C615 C614 1.370 . S
C615 C616 1.403 . S
C616 C615 1.403 . S
C616 C617 1.404 . S
C616 C619 1.539 . S
C617 C613 1.408 . S
C617 C616 1.404 . S
C617 H629 0.930 . S
C618 C614 1.524 . S
C618 H630 0.956 . S
C618 H631 0.961 . S
C618 H632 0.961 . S
C619 C616 1.539 . S
C619 H633 0.958 . S
C619 H634 0.961 . S
C619 H635 0.960 . S
H620 C604 0.931 . S
H621 C609 0.929 . S
H622 C610 0.960 . S
H623 C610 0.962 . S
H624 C610 0.960 . S
H625 C611 0.961 . S
H626 C611 0.961 . S
H627 C611 0.961 . S
H628 C612 0.931 . S
H629 C617 0.930 . S
H630 C618 0.956 . S
H631 C618 0.961 . S
H632 C618 0.961 . S
H633 C619 0.958 . S
H634 C619 0.961 . S
H635 C619 0.960 . S
C636 C637 1.391 . S
C636 C638 1.394 . S
C636 H652 0.931 . S
C637 C636 1.391 . S
C637 C641 1.376 . S
C638 C636 1.394 . S
C638 C639 1.369 . S
C638 C642 1.531 . S
C639 C638 1.369 . S
C639 C640 1.410 . S
C639 C647 1.503 . S
C640 C639 1.410 . S
C640 C641 1.392 . S
C640 C643 1.511 . S
C641 C637 1.376 . S
C641 C640 1.392 . S
C641 H653 0.929 . S
C642 C638 1.531 . S
C642 H654 0.960 . S
C642 H655 0.962 . S
C642 H656 0.960 . S
C643 C640 1.511 . S
C643 H657 0.961 . S
C643 H658 0.961 . S
C643 H659 0.961 . S
C644 C645 1.370 . S
C644 C646 1.363 . S
C644 H660 0.931 . S
C645 C644 1.370 . S
C645 C649 1.408 . S
C646 C644 1.363 . S
C646 C647 1.370 . S
C646 C650 1.524 . S
C647 C639 1.503 . S
C647 C646 1.370 . S
C647 C648 1.403 . S
C648 C647 1.403 . S
C648 C649 1.404 . S
C648 C651 1.539 . S
C649 C645 1.408 . S
C649 C648 1.404 . S
C649 H661 0.930 . S
C650 C646 1.524 . S
C650 H662 0.956 . S
C650 H663 0.961 . S
C650 H664 0.961 . S
C651 C648 1.539 . S
C651 H665 0.958 . S
C651 H666 0.961 . S
C651 H667 0.960 . S
H652 C636 0.931 . S
H653 C641 0.929 . S
H654 C642 0.960 . S
H655 C642 0.962 . S
H656 C642 0.960 . S
H657 C643 0.961 . S
H658 C643 0.961 . S
H659 C643 0.961 . S
H660 C644 0.931 . S
H661 C649 0.930 . S
H662 C650 0.956 . S
H663 C650 0.961 . S
H664 C650 0.961 . S
H665 C651 0.958 . S
H666 C651 0.961 . S
H667 C651 0.960 . S
C668 C669 1.391 . S
C668 C670 1.394 . S
C668 H684 0.931 . S
C669 C668 1.391 . S
C669 C673 1.376 . S
C670 C668 1.394 . S
C670 C671 1.369 . S
C670 C674 1.531 . S
C671 C670 1.369 . S
C671 C672 1.410 . S
C671 C679 1.503 . S
C672 C671 1.410 . S
C672 C673 1.392 . S
C672 C675 1.511 . S
C673 C669 1.376 . S
C673 C672 1.392 . S
C673 H685 0.929 . S
C674 C670 1.531 . S
C674 H686 0.960 . S
C674 H687 0.962 . S
C674 H688 0.960 . S
C675 C672 1.511 . S
C675 H689 0.961 . S
C675 H690 0.961 . S
C675 H691 0.961 . S
C676 C677 1.370 . S
C676 C678 1.363 . S
C676 H692 0.931 . S
C677 C676 1.370 . S
C677 C681 1.408 . S
C678 C676 1.363 . S
C678 C679 1.370 . S
C678 C682 1.524 . S
C679 C671 1.503 . S
C679 C678 1.370 . S
C679 C680 1.403 . S
C680 C679 1.403 . S
C680 C681 1.404 . S
C680 C683 1.539 . S
C681 C677 1.408 . S
C681 C680 1.404 . S
C681 H693 0.930 . S
C682 C678 1.524 . S
C682 H694 0.956 . S
C682 H695 0.961 . S
C682 H696 0.961 . S
C683 C680 1.539 . S
C683 H697 0.958 . S
C683 H698 0.961 . S
C683 H699 0.960 . S
H684 C668 0.931 . S
H685 C673 0.929 . S
H686 C674 0.960 . S
H687 C674 0.962 . S
H688 C674 0.960 . S
H689 C675 0.961 . S
H690 C675 0.961 . S
H691 C675 0.961 . S
H692 C676 0.931 . S
H693 C681 0.930 . S
H694 C682 0.956 . S
H695 C682 0.961 . S
H696 C682 0.961 . S
H697 C683 0.958 . S
H698 C683 0.961 . S
H699 C683 0.960 . S
C700 C701 1.391 . S
C700 C702 1.394 . S
C700 H716 0.931 . S
C701 C700 1.391 . S
C701 C705 1.376 . S
C702 C700 1.394 . S
C702 C703 1.369 . S
C702 C706 1.531 . S
C703 C702 1.369 . S
C703 C704 1.410 . S
C703 C711 1.503 . S
C704 C703 1.410 . S
C704 C705 1.392 . S
C704 C707 1.511 . S
C705 C701 1.376 . S
C705 C704 1.392 . S
C705 H717 0.929 . S
C706 C702 1.531 . S
C706 H718 0.960 . S
C706 H719 0.962 . S
C706 H720 0.960 . S
C707 C704 1.511 . S
C707 H721 0.961 . S
C707 H722 0.961 . S
C707 H723 0.961 . S
C708 C709 1.370 . S
C708 C710 1.363 . S
C708 H724 0.931 . S
C709 C708 1.370 . S
C709 C713 1.408 . S
C710 C708 1.363 . S
C710 C711 1.370 . S
C710 C714 1.524 . S
C711 C703 1.503 . S
C711 C710 1.370 . S
C711 C712 1.403 . S
C712 C711 1.403 . S
C712 C713 1.404 . S
C712 C715 1.539 . S
C713 C709 1.408 . S
C713 C712 1.404 . S
C713 H725 0.930 . S
C714 C710 1.524 . S
C714 H726 0.956 . S
C714 H727 0.961 . S
C714 H728 0.961 . S
C715 C712 1.539 . S
C715 H729 0.958 . S
C715 H730 0.961 . S
C715 H731 0.960 . S
H716 C700 0.931 . S
H717 C705 0.929 . S
H718 C706 0.960 . S
H719 C706 0.962 . S
H720 C706 0.960 . S
H721 C707 0.961 . S
H722 C707 0.961 . S
H723 C707 0.961 . S
H724 C708 0.931 . S
H725 C713 0.930 . S
H726 C714 0.956 . S
H727 C714 0.961 . S
H728 C714 0.961 . S
H729 C715 0.958 . S
H730 C715 0.961 . S
H731 C715 0.960 . S
C732 C733 1.391 . S
C732 C734 1.394 . S
C732 H748 0.931 . S
C733 C732 1.391 . S
C733 C737 1.376 1_455 S
C734 C732 1.394 . S
C734 C735 1.369 . S
C734 C738 1.531 . S
C735 C734 1.369 . S
C735 C736 1.410 1_455 S
C735 C743 1.503 1_455 S
C736 C735 1.410 1_655 S
C736 C737 1.392 . S
C736 C739 1.511 . S
C737 C733 1.376 1_655 S
C737 C736 1.392 . S
C737 H749 0.929 . S
C738 C734 1.531 . S
C738 H750 0.960 . S
C738 H751 0.962 . S
C738 H752 0.960 . S
C739 C736 1.511 . S
C739 H753 0.961 . S
C739 H754 0.961 . S
C739 H755 0.961 . S
C740 C741 1.370 . S
C740 C742 1.363 . S
C740 H756 0.931 . S
C741 C740 1.370 . S
C741 C745 1.408 . S
C742 C740 1.363 . S
C742 C743 1.370 . S
C742 C746 1.524 . S
C743 C735 1.503 1_655 S
C743 C742 1.370 . S
C743 C744 1.388 . S
C744 C743 1.388 . S
C744 C745 1.419 . S
C744 C747 1.542 1_655 S
C745 C741 1.408 . S
C745 C744 1.419 . S
C745 H757 0.930 . S
C746 C742 1.524 . S
C746 H758 0.956 1_655 S
C746 H759 0.961 . S
C746 H760 0.961 . S
C747 C744 1.542 1_455 S
C747 H761 0.958 . S
C747 H762 0.961 1_455 S
C747 H763 0.960 1_455 S
H748 C732 0.931 . S
H749 C737 0.929 . S
H750 C738 0.960 . S
H751 C738 0.962 . S
H752 C738 0.960 . S
H753 C739 0.961 . S
H754 C739 0.961 . S
H755 C739 0.961 . S
H756 C740 0.931 . S
H757 C745 0.930 . S
H758 C746 0.956 1_455 S
H759 C746 0.961 . S
H760 C746 0.961 . S
H761 C747 0.958 . S
H762 C747 0.961 1_655 S
H763 C747 0.960 1_655 S
C764 C765 1.391 . S
C764 C766 1.394 . S
C764 H780 0.931 . S
C765 C764 1.391 . S
C765 C769 1.376 . S
C766 C764 1.394 . S
C766 C767 1.369 . S
C766 C770 1.531 . S
C767 C766 1.369 . S
C767 C768 1.410 . S
C767 C775 1.503 . S
C768 C767 1.410 . S
C768 C769 1.392 . S
C768 C771 1.511 . S
C769 C765 1.376 . S
C769 C768 1.392 . S
C769 H781 0.929 . S
C770 C766 1.531 . S
C770 H782 0.960 . S
C770 H783 0.962 . S
C770 H784 0.960 . S
C771 C768 1.511 . S
C771 H785 0.961 . S
C771 H786 0.961 . S
C771 H787 0.961 . S
C772 C773 1.370 . S
C772 C774 1.363 . S
C772 H788 0.931 . S
C773 C772 1.370 . S
C773 C777 1.408 . S
C774 C772 1.363 . S
C774 C775 1.370 . S
C774 C778 1.524 . S
C775 C767 1.503 . S
C775 C774 1.370 . S
C775 C776 1.403 . S
C776 C775 1.403 . S
C776 C777 1.404 . S
C776 C779 1.539 . S
C777 C773 1.408 . S
C777 C776 1.404 . S
C777 H789 0.930 . S
C778 C774 1.524 . S
C778 H790 0.956 . S
C778 H791 0.961 . S
C778 H792 0.961 . S
C779 C776 1.539 . S
C779 H793 0.958 . S
C779 H794 0.961 . S
C779 H795 0.960 . S
H780 C764 0.931 . S
H781 C769 0.929 . S
H782 C770 0.960 . S
H783 C770 0.962 . S
H784 C770 0.960 . S
H785 C771 0.961 . S
H786 C771 0.961 . S
H787 C771 0.961 . S
H788 C772 0.931 . S
H789 C777 0.930 . S
H790 C778 0.956 . S
H791 C778 0.961 . S
H792 C778 0.961 . S
H793 C779 0.958 . S
H794 C779 0.961 . S
H795 C779 0.960 . S
C796 C797 1.391 . S
C796 C798 1.394 . S
C796 H812 0.931 . S
C797 C796 1.391 . S
C797 C801 1.376 . S
C798 C796 1.394 . S
C798 C799 1.369 . S
C798 C802 1.531 . S
C799 C798 1.369 . S
C799 C800 1.410 1_545 S
C799 C807 1.503 . S
C800 C799 1.410 1_565 S
C800 C801 1.392 1_565 S
C800 C803 1.511 . S
C801 C797 1.376 . S
C801 C800 1.392 1_545 S
C801 H813 0.929 1_545 S
C802 C798 1.531 . S
C802 H814 0.960 . S
C802 H815 0.962 . S
C802 H816 0.960 . S
C803 C800 1.511 . S
C803 H817 0.961 . S
C803 H818 0.961 . S
C803 H819 0.961 1_565 S
C804 C805 1.370 . S
C804 C806 1.363 . S
C804 H820 0.931 . S
C805 C804 1.370 . S
C805 C809 1.408 1_565 S
C806 C804 1.363 . S
C806 C807 1.370 1_565 S
C806 C810 1.524 . S
C807 C799 1.503 . S
C807 C806 1.370 1_545 S
C807 C808 1.403 . S
C808 C807 1.403 . S
C808 C809 1.404 . S
C808 C811 1.539 . S
C809 C805 1.408 1_545 S
C809 C808 1.404 . S
C809 H821 0.930 . S
C810 C806 1.524 . S
C810 H822 0.956 . S
C810 H823 0.961 . S
C810 H824 0.961 . S
C811 C808 1.539 . S
C811 H825 0.958 . S
C811 H826 0.961 . S
C811 H827 0.960 . S
H812 C796 0.931 . S
H813 C801 0.929 1_565 S
H814 C802 0.960 . S
H815 C802 0.962 . S
H816 C802 0.960 . S
H817 C803 0.961 . S
H818 C803 0.961 . S
H819 C803 0.961 1_545 S
H820 C804 0.931 . S
H821 C809 0.930 . S
H822 C810 0.956 . S
H823 C810 0.961 . S
H824 C810 0.961 . S
H825 C811 0.958 . S
H826 C811 0.961 . S
H827 C811 0.960 . S
C828 C829 1.391 . S
C828 C830 1.394 . S
C828 H844 0.931 . S
C829 C828 1.391 . S
C829 C833 1.376 . S
C830 C828 1.394 . S
C830 C831 1.369 . S
C830 C834 1.531 . S
C831 C830 1.369 . S
C831 C832 1.410 . S
C831 C839 1.503 1_554 S
C832 C831 1.410 . S
C832 C833 1.392 . S
C832 C835 1.511 . S
C833 C829 1.376 . S
C833 C832 1.392 . S
C833 H845 0.929 . S
C834 C830 1.531 . S
C834 H846 0.960 . S
C834 H847 0.962 . S
C834 H848 0.960 . S
C835 C832 1.511 . S
C835 H849 0.950 1_554 S
C835 H850 0.961 1_554 S
C835 H851 0.961 . S
C836 C837 1.370 . S
C836 C838 1.363 . S
C836 H852 0.931 . S
C837 C836 1.370 . S
C837 C841 1.408 . S
C838 C836 1.363 . S
C838 C839 1.370 . S
C838 C842 1.524 . S
C839 C831 1.503 1_556 S
C839 C838 1.370 . S
C839 C840 1.403 1_556 S
C840 C839 1.403 1_554 S
C840 C841 1.404 1_554 S
C840 C843 1.539 . S
C841 C837 1.408 . S
C841 C840 1.404 1_556 S
C841 H853 0.930 1_556 S
C842 C838 1.524 . S
C842 H854 0.956 . S
C842 H855 0.961 . S
C842 H856 0.961 . S
C843 C840 1.539 . S
C843 H857 0.958 . S
C843 H858 0.961 . S
C843 H859 0.960 . S
H844 C828 0.931 . S
H845 C833 0.929 . S
H846 C834 0.960 . S
H847 C834 0.962 . S
H848 C834 0.960 . S
H849 C835 0.950 1_556 S
H850 C835 0.961 1_556 S
H851 C835 0.961 . S
H852 C836 0.931 . S
H853 C841 0.930 1_554 S
H854 C842 0.956 . S
H855 C842 0.961 . S
H856 C842 0.961 . S
H857 C843 0.958 . S
H858 C843 0.961 . S
H859 C843 0.960 . S
C860 C861 1.391 . S
C860 C862 1.394 . S
C860 H876 0.931 . S
C861 C860 1.391 . S
C861 C865 1.376 . S
C862 C860 1.394 . S
C862 C863 1.369 . S
C862 C866 1.531 . S
C863 C862 1.369 . S
C863 C864 1.410 . S
C863 C871 1.503 . S
C864 C863 1.410 . S
C864 C865 1.392 . S
C864 C867 1.511 . S
C865 C861 1.376 . S
C865 C864 1.392 . S
C865 H877 0.929 . S
C866 C862 1.531 . S
C866 H878 0.960 . S
C866 H879 0.962 1_554 S
C866 H880 0.960 . S
C867 C864 1.511 . S
C867 H881 0.961 . S
C867 H882 0.961 . S
C867 H883 0.961 . S
C868 C869 1.370 . S
C868 C870 1.363 . S
C868 H884 0.931 . S
C869 C868 1.370 . S
C869 C873 1.408 1_556 S
C870 C868 1.363 . S
C870 C871 1.370 1_556 S
C870 C874 1.524 . S
C871 C863 1.503 . S
C871 C870 1.370 1_554 S
C871 C872 1.403 . S
C872 C871 1.403 . S
C872 C873 1.404 . S
C872 C875 1.539 . S
C873 C869 1.408 1_554 S
C873 C872 1.404 . S
C873 H885 0.930 . S
C874 C870 1.524 . S
C874 H886 0.956 . S
C874 H887 0.961 . S
C874 H888 0.961 . S
C875 C872 1.539 . S
C875 H889 0.958 . S
C875 H890 0.961 . S
C875 H891 0.960 . S
H876 C860 0.931 . S
H877 C865 0.929 . S
H878 C866 0.960 . S
H879 C866 0.962 1_556 S
H880 C866 0.960 . S
H881 C867 0.961 . S
H882 C867 0.961 . S
H883 C867 0.961 . S
H884 C868 0.931 . S
H885 C873 0.930 . S
H886 C874 0.956 . S
H887 C874 0.961 . S
H888 C874 0.961 . S
H889 C875 0.958 . S
H890 C875 0.961 . S
H891 C875 0.960 . S
C892 C893 1.391 . S
C892 C894 1.394 . S
C892 H908 0.931 . S
C893 C892 1.391 . S
C893 C897 1.376 . S
C894 C892 1.394 . S
C894 C895 1.369 . S
C894 C898 1.531 . S
C895 C894 1.369 . S
C895 C896 1.410 1_554 S
C895 C903 1.510 . S
C896 C895 1.410 1_556 S
C896 C897 1.392 1_556 S
C896 C899 1.511 . S
C897 C893 1.376 . S
C897 C896 1.392 1_554 S
C897 H909 0.917 1_554 S
C898 C894 1.531 . S
C898 H910 0.960 . S
C898 H911 0.962 . S
C898 H912 0.960 . S
C899 C896 1.511 . S
C899 H913 0.961 . S
C899 H914 0.961 . S
C899 H915 0.961 . S
C900 C901 1.370 . S
C900 C902 1.363 1_556 S
C900 H916 0.931 . S
C901 C900 1.370 . S
C901 C905 1.408 . S
C902 C900 1.363 1_554 S
C902 C903 1.371 . S
C902 C906 1.524 . S
C903 C895 1.510 . S
C903 C902 1.371 . S
C903 C904 1.396 1_554 S
C904 C903 1.396 1_556 S
C904 C905 1.404 . S
C904 C907 1.539 . S
C905 C901 1.408 . S
C905 C904 1.404 . S
C905 H917 0.930 . S
C906 C902 1.524 . S
C906 H918 0.956 . S
C906 H919 0.961 . S
C906 H920 0.961 . S
C907 C904 1.539 . S
C907 H921 0.958 . S
C907 H922 0.961 . S
C907 H923 0.960 . S
H908 C892 0.931 . S
H909 C897 0.917 1_556 S
H910 C898 0.960 . S
H911 C898 0.962 . S
H912 C898 0.960 . S
H913 C899 0.961 . S
H914 C899 0.961 . S
H915 C899 0.961 . S
H916 C900 0.931 . S
H917 C905 0.930 . S
H918 C906 0.956 . S
H919 C906 0.961 . S
H920 C906 0.961 . S
H921 C907 0.958 . S
H922 C907 0.961 . S
H923 C907 0.960 . S
C924 C925 1.390 1_554 S
C924 C926 1.394 . S
C924 H940 0.931 . S
C925 C924 1.390 1_556 S
C925 C929 1.376 . S
C926 C924 1.394 . S
C926 C927 1.369 1_554 S
C926 C930 1.531 . S
C927 C926 1.369 1_556 S
C927 C928 1.410 . S
C927 C935 1.503 1_556 S
C928 C927 1.410 . S
C928 C929 1.392 . S
C928 C931 1.511 . S
C929 C925 1.376 . S
C929 C928 1.392 . S
C929 H941 0.929 . S
C930 C926 1.531 . S
C930 H942 0.960 . S
C930 H943 0.962 . S
C930 H944 0.960 . S
C931 C928 1.511 . S
C931 H945 0.961 . S
C931 H946 0.961 . S
C931 H947 0.961 . S
C932 C933 1.370 . S
C932 C934 1.363 . S
C932 H948 0.931 . S
C933 C932 1.370 . S
C933 C937 1.408 . S
C934 C932 1.363 . S
C934 C935 1.370 . S
C934 C938 1.524 1_554 S
C935 C927 1.503 1_554 S
C935 C934 1.370 . S
C935 C936 1.403 . S
C936 C935 1.403 . S
C936 C937 1.404 . S
C936 C939 1.539 . S
C937 C933 1.408 . S
C937 C936 1.404 . S
C937 H949 0.930 . S
C938 C934 1.524 1_556 S
C938 H950 0.956 1_556 S
C938 H951 0.961 . S
C938 H952 0.961 . S
C939 C936 1.539 . S
C939 H953 0.958 . S
C939 H954 0.961 . S
C939 H955 0.960 . S
H940 C924 0.931 . S
H941 C929 0.929 . S
H942 C930 0.960 . S
H943 C930 0.962 . S
H944 C930 0.960 . S
H945 C931 0.961 . S
H946 C931 0.961 . S
H947 C931 0.961 . S
H948 C932 0.931 . S
H949 C937 0.930 . S
H950 C938 0.956 1_554 S
H951 C938 0.961 . S
H952 C938 0.961 . S
H953 C939 0.958 . S
H954 C939 0.961 . S
H955 C939 0.960 . S
C956 C957 1.391 . S
C956 C958 1.394 . S
C956 H972 0.931 . S
C957 C956 1.391 . S
C957 C961 1.376 . S
C958 C956 1.394 . S
C958 C959 1.369 . S
C958 C962 1.531 . S
C959 C958 1.369 . S
C959 C960 1.410 . S
C959 C967 1.503 1_554 S
C960 C959 1.410 . S
C960 C961 1.392 . S
C960 C963 1.511 1_554 S
C961 C957 1.376 . S
C961 C960 1.392 . S
C961 H973 0.929 . S
C962 C958 1.531 . S
C962 H974 0.960 . S
C962 H975 0.962 . S
C962 H976 0.960 . S
C963 C960 1.511 1_556 S
C963 H977 0.961 . S
C963 H978 0.961 . S
C963 H979 0.961 1_556 S
C964 C965 1.370 . S
C964 C966 1.363 . S
C964 H980 0.931 . S
C965 C964 1.370 . S
C965 C969 1.408 . S
C966 C964 1.363 . S
C966 C967 1.370 . S
C966 C970 1.524 . S
C967 C959 1.503 1_556 S
C967 C966 1.370 . S
C967 C968 1.403 1_556 S
C968 C967 1.403 1_554 S
C968 C969 1.404 1_554 S
C968 C971 1.539 . S
C969 C965 1.408 . S
C969 C968 1.404 1_556 S
C969 H981 0.948 . S
C970 C966 1.524 . S
C970 H982 0.956 . S
C970 H983 0.961 . S
C970 H984 0.961 . S
C971 C968 1.539 . S
C971 H985 0.958 . S
C971 H986 0.961 . S
C971 H987 0.960 . S
H972 C956 0.931 . S
H973 C961 0.929 . S
H974 C962 0.960 . S
H975 C962 0.962 . S
H976 C962 0.960 . S
H977 C963 0.961 . S
H978 C963 0.961 . S
H979 C963 0.961 1_554 S
H980 C964 0.931 . S
H981 C969 0.948 . S
H982 C970 0.956 . S
H983 C970 0.961 . S
H984 C970 0.961 . S
H985 C971 0.958 . S
H986 C971 0.961 . S
H987 C971 0.960 . S
C988 C989 1.391 . S
C988 C990 1.384 1_556 S
C988 H1004 0.931 . S
C989 C988 1.391 . S
C989 C993 1.376 . S
C990 C988 1.384 1_554 S
C990 C991 1.367 1_554 S
C990 C994 1.542 . S
C991 C990 1.367 1_556 S
C991 C992 1.410 . S
C991 C999 1.503 1_556 S
C992 C991 1.410 . S
C992 C993 1.392 . S
C992 C995 1.511 . S
C993 C989 1.376 . S
C993 C992 1.392 . S
C993 H1005 0.929 . S
C994 C990 1.542 . S
C994 H1006 0.960 . S
C994 H1007 0.962 . S
C994 H1008 0.960 . S
C995 C992 1.511 . S
C995 H1009 0.961 . S
C995 H1010 0.961 . S
C995 H1011 0.961 . S
C996 C997 1.370 . S
C996 C998 1.363 1_554 S
C996 H1012 0.931 1_554 S
C997 C996 1.370 . S
C997 C1001 1.408 . S
C998 C996 1.363 1_556 S
C998 C999 1.370 1_556 S
C998 C1002 1.524 . S
C999 C991 1.503 1_554 S
C999 C998 1.370 1_554 S
C999 C1000 1.403 . S
C1000 C999 1.403 . S
C1000 C1001 1.404 . S
C1000 C1003 1.539 . S
C1001 C997 1.408 . S
C1001 C1000 1.404 . S
C1001 H1013 0.930 . S
C1002 C998 1.524 . S
C1002 H1014 0.956 . S
C1002 H1015 0.961 . S
C1002 H1016 0.961 . S
C1003 C1000 1.539 . S
C1003 H1017 0.958 . S
C1003 H1018 0.961 . S
C1003 H1019 0.960 . S
H1004 C988 0.931 . S
H1005 C993 0.929 . S
H1006 C994 0.960 . S
H1007 C994 0.962 . S
H1008 C994 0.960 . S
H1009 C995 0.961 . S
H1010 C995 0.961 . S
H1011 C995 0.961 . S
H1012 C996 0.931 1_556 S
H1013 C1001 0.930 . S
H1014 C1002 0.956 . S
H1015 C1002 0.961 . S
H1016 C1002 0.961 . S
H1017 C1003 0.958 . S
H1018 C1003 0.961 . S
H1019 C1003 0.960 . S
C1020 C1021 1.391 . S
C1020 C1022 1.394 . S
C1020 H1036 0.931 . S
C1021 C1020 1.391 . S
C1021 C1025 1.376 . S
C1022 C1020 1.394 . S
C1022 C1023 1.369 . S
C1022 C1026 1.531 . S
C1023 C1022 1.369 . S
C1023 C1024 1.410 . S
C1023 C1031 1.503 . S
C1024 C1023 1.410 . S
C1024 C1025 1.392 . S
C1024 C1027 1.511 . S
C1025 C1021 1.376 . S
C1025 C1024 1.392 . S
C1025 H1037 0.929 . S
C1026 C1022 1.531 . S
C1026 H1038 0.960 . S
C1026 H1039 0.962 . S
C1026 H1040 0.960 . S
C1027 C1024 1.511 . S
C1027 H1041 0.961 . S
C1027 H1042 0.961 . S
C1027 H1043 0.961 . S
C1028 C1029 1.370 . S
C1028 C1030 1.363 . S
C1028 H1044 0.931 . S
C1029 C1028 1.370 . S
C1029 C1033 1.408 . S
C1030 C1028 1.363 . S
C1030 C1031 1.370 . S
C1030 C1034 1.524 . S
C1031 C1023 1.503 . S
C1031 C1030 1.370 . S
C1031 C1032 1.403 . S
C1032 C1031 1.403 . S
C1032 C1033 1.404 . S
C1032 C1035 1.539 . S
C1033 C1029 1.408 . S
C1033 C1032 1.404 . S
C1033 H1045 0.930 . S
C1034 C1030 1.524 . S
C1034 H1046 0.956 . S
C1034 H1047 0.961 . S
C1034 H1048 0.961 . S
C1035 C1032 1.539 . S
C1035 H1049 0.958 . S
C1035 H1050 0.961 . S
C1035 H1051 0.960 . S
H1036 C1020 0.931 . S
H1037 C1025 0.929 . S
H1038 C1026 0.960 . S
H1039 C1026 0.962 . S
H1040 C1026 0.960 . S
H1041 C1027 0.961 . S
H1042 C1027 0.961 . S
H1043 C1027 0.961 . S
H1044 C1028 0.931 . S
H1045 C1033 0.930 . S
H1046 C1034 0.956 . S
H1047 C1034 0.961 . S
H1048 C1034 0.961 . S
H1049 C1035 0.958 . S
H1050 C1035 0.961 . S
H1051 C1035 0.960 . S
C1052 C1053 1.391 . S
C1052 C1054 1.394 . S
C1052 H1068 0.931 . S
C1053 C1052 1.391 . S
C1053 C1057 1.376 . S
C1054 C1052 1.394 . S
C1054 C1055 1.369 . S
C1054 C1058 1.531 . S
C1055 C1054 1.369 . S
C1055 C1056 1.410 . S
C1055 C1063 1.503 . S
C1056 C1055 1.410 . S
C1056 C1057 1.392 . S
C1056 C1059 1.511 . S
C1057 C1053 1.376 . S
C1057 C1056 1.392 . S
C1057 H1069 0.929 . S
C1058 C1054 1.531 . S
C1058 H1070 0.960 . S
C1058 H1071 0.962 . S
C1058 H1072 0.960 . S
C1059 C1056 1.511 . S
C1059 H1073 0.961 . S
C1059 H1074 0.961 . S
C1059 H1075 0.961 . S
C1060 C1061 1.370 . S
C1060 C1062 1.363 . S
C1060 H1076 0.931 . S
C1061 C1060 1.370 . S
C1061 C1065 1.408 . S
C1062 C1060 1.363 . S
C1062 C1063 1.370 . S
C1062 C1066 1.524 . S
C1063 C1055 1.503 . S
C1063 C1062 1.370 . S
C1063 C1064 1.403 . S
C1064 C1063 1.403 . S
C1064 C1065 1.404 . S
C1064 C1067 1.539 . S
C1065 C1061 1.408 . S
C1065 C1064 1.404 . S
C1065 H1077 0.930 . S
C1066 C1062 1.524 . S
C1066 H1078 0.956 . S
C1066 H1079 0.961 . S
C1066 H1080 0.961 . S
C1067 C1064 1.539 . S
C1067 H1081 0.958 . S
C1067 H1082 0.961 . S
C1067 H1083 0.960 . S
H1068 C1052 0.931 . S
H1069 C1057 0.929 . S
H1070 C1058 0.960 . S
H1071 C1058 0.962 . S
H1072 C1058 0.960 . S
H1073 C1059 0.961 . S
H1074 C1059 0.961 . S
H1075 C1059 0.961 . S
H1076 C1060 0.931 . S
H1077 C1065 0.930 . S
H1078 C1066 0.956 . S
H1079 C1066 0.961 . S
H1080 C1066 0.961 . S
H1081 C1067 0.958 . S
H1082 C1067 0.961 . S
H1083 C1067 0.960 . S
C1084 C1085 1.391 . S
C1084 C1086 1.394 . S
C1084 H1100 0.931 . S
C1085 C1084 1.391 . S
C1085 C1089 1.376 . S
C1086 C1084 1.394 . S
C1086 C1087 1.369 . S
C1086 C1090 1.531 . S
C1087 C1086 1.369 . S
C1087 C1088 1.410 . S
C1087 C1095 1.503 . S
C1088 C1087 1.410 . S
C1088 C1089 1.392 . S
C1088 C1091 1.511 . S
C1089 C1085 1.376 . S
C1089 C1088 1.392 . S
C1089 H1101 0.929 . S
C1090 C1086 1.531 . S
C1090 H1102 0.960 . S
C1090 H1103 0.962 . S
C1090 H1104 0.960 . S
C1091 C1088 1.511 . S
C1091 H1105 0.961 . S
C1091 H1106 0.961 . S
C1091 H1107 0.961 . S
C1092 C1093 1.370 . S
C1092 C1094 1.363 . S
C1092 H1108 0.931 . S
C1093 C1092 1.370 . S
C1093 C1097 1.408 . S
C1094 C1092 1.363 . S
C1094 C1095 1.370 . S
C1094 C1098 1.524 . S
C1095 C1087 1.503 . S
C1095 C1094 1.370 . S
C1095 C1096 1.403 . S
C1096 C1095 1.403 . S
C1096 C1097 1.404 . S
C1096 C1099 1.539 . S
C1097 C1093 1.408 . S
C1097 C1096 1.404 . S
C1097 H1109 0.930 . S
C1098 C1094 1.524 . S
C1098 H1110 0.956 . S
C1098 H1111 0.961 . S
C1098 H1112 0.961 . S
C1099 C1096 1.539 . S
C1099 H1113 0.958 . S
C1099 H1114 0.961 . S
C1099 H1115 0.960 . S
H1100 C1084 0.931 . S
H1101 C1089 0.929 . S
H1102 C1090 0.960 . S
H1103 C1090 0.962 . S
H1104 C1090 0.960 . S
H1105 C1091 0.961 . S
H1106 C1091 0.961 . S
H1107 C1091 0.961 . S
H1108 C1092 0.931 . S
H1109 C1097 0.930 . S
H1110 C1098 0.956 . S
H1111 C1098 0.961 . S
H1112 C1098 0.961 . S
H1113 C1099 0.958 . S
H1114 C1099 0.961 . S
H1115 C1099 0.960 . S
C1116 C1117 1.391 . S
C1116 C1118 1.394 . S
C1116 H1132 0.931 . S
C1117 C1116 1.391 . S
C1117 C1121 1.376 . S
C1118 C1116 1.394 . S
C1118 C1119 1.369 . S
C1118 C1122 1.531 . S
C1119 C1118 1.369 . S
C1119 C1120 1.410 . S
C1119 C1127 1.503 . S
C1120 C1119 1.410 . S
C1120 C1121 1.392 . S
C1120 C1123 1.511 . S
C1121 C1117 1.376 . S
C1121 C1120 1.392 . S
C1121 H1133 0.929 . S
C1122 C1118 1.531 . S
C1122 H1134 0.960 . S
C1122 H1135 0.962 . S
C1122 H1136 0.960 . S
C1123 C1120 1.511 . S
C1123 H1137 0.961 . S
C1123 H1138 0.961 . S
C1123 H1139 0.961 . S
C1124 C1125 1.370 . S
C1124 C1126 1.363 . S
C1124 H1140 0.931 . S
C1125 C1124 1.370 . S
C1125 C1129 1.408 . S
C1126 C1124 1.363 . S
C1126 C1127 1.370 . S
C1126 C1130 1.524 . S
C1127 C1119 1.503 . S
C1127 C1126 1.370 . S
C1127 C1128 1.403 . S
C1128 C1127 1.403 . S
C1128 C1129 1.404 . S
C1128 C1131 1.539 . S
C1129 C1125 1.408 . S
C1129 C1128 1.404 . S
C1129 H1141 0.930 . S
C1130 C1126 1.524 . S
C1130 H1142 0.956 . S
C1130 H1143 0.961 . S
C1130 H1144 0.961 . S
C1131 C1128 1.539 . S
C1131 H1145 0.958 . S
C1131 H1146 0.961 . S
C1131 H1147 0.960 . S
H1132 C1116 0.931 . S
H1133 C1121 0.929 . S
H1134 C1122 0.960 . S
H1135 C1122 0.962 . S
H1136 C1122 0.960 . S
H1137 C1123 0.961 . S
H1138 C1123 0.961 . S
H1139 C1123 0.961 . S
H1140 C1124 0.931 . S
H1141 C1129 0.930 . S
H1142 C1130 0.956 . S
H1143 C1130 0.961 . S
H1144 C1130 0.961 . S
H1145 C1131 0.958 . S
H1146 C1131 0.961 . S
H1147 C1131 0.960 . S
C1148 C1149 1.391 . S
C1148 C1150 1.394 . S
C1148 H1164 0.931 . S
C1149 C1148 1.391 . S
C1149 C1153 1.376 . S
C1150 C1148 1.394 . S
C1150 C1151 1.369 . S
C1150 C1154 1.531 . S
C1151 C1150 1.369 . S
C1151 C1152 1.410 . S
C1151 C1159 1.503 . S
C1152 C1151 1.410 . S
C1152 C1153 1.392 . S
C1152 C1155 1.511 1_545 S
C1153 C1149 1.376 . S
C1153 C1152 1.392 . S
C1153 H1165 0.929 1_545 S
C1154 C1150 1.531 . S
C1154 H1166 0.960 . S
C1154 H1167 0.962 . S
C1154 H1168 0.960 . S
C1155 C1152 1.511 1_565 S
C1155 H1169 0.961 . S
C1155 H1170 0.961 . S
C1155 H1171 0.961 . S
C1156 C1157 1.370 . S
C1156 C1158 1.363 . S
C1156 H1172 0.931 . S
C1157 C1156 1.370 . S
C1157 C1161 1.407 . S
C1158 C1156 1.363 . S
C1158 C1159 1.370 . S
C1158 C1162 1.524 . S
C1159 C1151 1.503 . S
C1159 C1158 1.370 . S
C1159 C1160 1.403 . S
C1160 C1159 1.403 . S
C1160 C1161 1.405 . S
C1160 C1163 1.539 1_545 S
C1161 C1157 1.407 . S
C1161 C1160 1.405 . S
C1161 H1173 0.930 1_545 S
C1162 C1158 1.524 . S
C1162 H1174 0.956 . S
C1162 H1175 0.961 . S
C1162 H1176 0.961 . S
C1163 C1160 1.539 1_565 S
C1163 H1177 0.958 . S
C1163 H1178 0.961 . S
C1163 H1179 0.960 . S
H1164 C1148 0.931 . S
H1165 C1153 0.929 1_565 S
H1166 C1154 0.960 . S
H1167 C1154 0.962 . S
H1168 C1154 0.960 . S
H1169 C1155 0.961 . S
H1170 C1155 0.961 . S
H1171 C1155 0.961 . S
H1172 C1156 0.931 . S
H1173 C1161 0.930 1_565 S
H1174 C1162 0.956 . S
H1175 C1162 0.961 . S
H1176 C1162 0.961 . S
H1177 C1163 0.958 . S
H1178 C1163 0.961 . S
H1179 C1163 0.960 . S
C1180 C1181 1.391 . S
C1180 C1182 1.394 . S
C1180 H1196 0.931 . S
C1181 C1180 1.391 . S
C1181 C1185 1.376 1_655 S
C1182 C1180 1.394 . S
C1182 C1183 1.369 . S
C1182 C1186 1.531 . S
C1183 C1182 1.369 . S
C1183 C1184 1.410 1_655 S
C1183 C1191 1.503 . S
C1184 C1183 1.410 1_455 S
C1184 C1185 1.392 . S
C1184 C1187 1.511 . S
C1185 C1181 1.376 1_455 S
C1185 C1184 1.392 . S
C1185 H1197 0.929 . S
C1186 C1182 1.531 . S
C1186 H1198 0.960 . S
C1186 H1199 0.962 . S
C1186 H1200 0.960 . S
C1187 C1184 1.511 . S
C1187 H1201 0.961 . S
C1187 H1202 0.961 . S
C1187 H1203 0.961 . S
C1188 C1189 1.370 . S
C1188 C1190 1.363 . S
C1188 H1204 0.931 . S
C1189 C1188 1.370 . S
C1189 C1193 1.408 . S
C1190 C1188 1.363 . S
C1190 C1191 1.370 . S
C1190 C1194 1.524 . S
C1191 C1183 1.503 . S
C1191 C1190 1.370 . S
C1191 C1192 1.403 . S
C1192 C1191 1.403 . S
C1192 C1193 1.404 . S
C1192 C1195 1.539 . S
C1193 C1189 1.408 . S
C1193 C1192 1.404 . S
C1193 H1205 0.930 . S
C1194 C1190 1.524 . S
C1194 H1206 0.956 . S
C1194 H1207 0.961 1_655 S
C1194 H1208 0.961 . S
C1195 C1192 1.539 . S
C1195 H1209 0.958 . S
C1195 H1210 0.961 . S
C1195 H1211 0.960 . S
H1196 C1180 0.931 . S
H1197 C1185 0.929 . S
H1198 C1186 0.960 . S
H1199 C1186 0.962 . S
H1200 C1186 0.960 . S
H1201 C1187 0.961 . S
H1202 C1187 0.961 . S
H1203 C1187 0.961 . S
H1204 C1188 0.931 . S
H1205 C1193 0.930 . S
H1206 C1194 0.956 . S
H1207 C1194 0.961 1_455 S
H1208 C1194 0.961 . S
H1209 C1195 0.958 . S
H1210 C1195 0.961 . S
H1211 C1195 0.960 . S
C1212 C1213 1.391 . S
C1212 C1214 1.394 . S
C1212 H1228 0.931 . S
C1213 C1212 1.391 . S
C1213 C1217 1.376 . S
C1214 C1212 1.394 . S
C1214 C1215 1.369 . S
C1214 C1218 1.531 . S
C1215 C1214 1.369 . S
C1215 C1216 1.410 . S
C1215 C1223 1.503 . S
C1216 C1215 1.410 . S
C1216 C1217 1.392 . S
C1216 C1219 1.511 . S
C1217 C1213 1.376 . S
C1217 C1216 1.392 . S
C1217 H1229 0.929 . S
C1218 C1214 1.531 . S
C1218 H1230 0.960 . S
C1218 H1231 0.962 . S
C1218 H1232 0.960 . S
C1219 C1216 1.511 . S
C1219 H1233 0.961 . S
C1219 H1234 0.961 . S
C1219 H1235 0.961 . S
C1220 C1221 1.370 . S
C1220 C1222 1.363 . S
C1220 H1236 0.931 . S
C1221 C1220 1.370 . S
C1221 C1225 1.408 . S
C1222 C1220 1.363 . S
C1222 C1223 1.370 . S
C1222 C1226 1.524 . S
C1223 C1215 1.503 . S
C1223 C1222 1.370 . S
C1223 C1224 1.403 . S
C1224 C1223 1.403 . S
C1224 C1225 1.404 . S
C1224 C1227 1.539 . S
C1225 C1221 1.408 . S
C1225 C1224 1.404 . S
C1225 H1237 0.930 . S
C1226 C1222 1.524 . S
C1226 H1238 0.956 . S
C1226 H1239 0.961 . S
C1226 H1240 0.961 . S
C1227 C1224 1.539 . S
C1227 H1241 0.958 . S
C1227 H1242 0.961 . S
C1227 H1243 0.960 . S
H1228 C1212 0.931 . S
H1229 C1217 0.929 . S
H1230 C1218 0.960 . S
H1231 C1218 0.962 . S
H1232 C1218 0.960 . S
H1233 C1219 0.961 . S
H1234 C1219 0.961 . S
H1235 C1219 0.961 . S
H1236 C1220 0.931 . S
H1237 C1225 0.930 . S
H1238 C1226 0.956 . S
H1239 C1226 0.961 . S
H1240 C1226 0.961 . S
H1241 C1227 0.958 . S
H1242 C1227 0.961 . S
H1243 C1227 0.960 . S
C1244 C1245 1.391 . S
C1244 C1246 1.394 . S
C1244 H1260 0.931 . S
C1245 C1244 1.391 . S
C1245 C1249 1.376 . S
C1246 C1244 1.394 . S
C1246 C1247 1.369 . S
C1246 C1250 1.529 1_565 S
C1247 C1246 1.369 . S
C1247 C1248 1.410 . S
C1247 C1255 1.503 . S
C1248 C1247 1.410 . S
C1248 C1249 1.392 . S
C1248 C1251 1.511 . S
C1249 C1245 1.376 . S
C1249 C1248 1.392 . S
C1249 H1261 0.929 . S
C1250 C1246 1.529 1_545 S
C1250 H1262 0.967 . S
C1250 H1263 0.955 1_545 S
C1250 H1264 0.962 . S
C1251 C1248 1.511 . S
C1251 H1265 0.961 . S
C1251 H1266 0.961 . S
C1251 H1267 0.961 . S
C1252 C1253 1.370 . S
C1252 C1254 1.363 . S
C1252 H1268 0.931 . S
C1253 C1252 1.370 . S
C1253 C1257 1.408 1_565 S
C1254 C1252 1.363 . S
C1254 C1255 1.370 . S
C1254 C1258 1.524 . S
C1255 C1247 1.503 . S
C1255 C1254 1.370 . S
C1255 C1256 1.403 1_565 S
C1256 C1255 1.403 1_545 S
C1256 C1257 1.404 . S
C1256 C1259 1.539 . S
C1257 C1253 1.408 1_545 S
C1257 C1256 1.404 . S
C1257 H1269 0.930 . S
C1258 C1254 1.524 . S
C1258 H1270 0.956 . S
C1258 H1271 0.961 . S
C1258 H1272 0.961 . S
C1259 C1256 1.539 . S
C1259 H1273 0.958 . S
C1259 H1274 0.961 . S
C1259 H1275 0.960 . S
H1260 C1244 0.931 . S
H1261 C1249 0.929 . S
H1262 C1250 0.967 . S
H1263 C1250 0.955 1_565 S
H1264 C1250 0.962 . S
H1265 C1251 0.961 . S
H1266 C1251 0.961 . S
H1267 C1251 0.961 . S
H1268 C1252 0.931 . S
H1269 C1257 0.930 . S
H1270 C1258 0.956 . S
H1271 C1258 0.961 . S
H1272 C1258 0.961 . S
H1273 C1259 0.958 . S
H1274 C1259 0.961 . S
H1275 C1259 0.960 . S
C1276 C1277 1.391 . S
C1276 C1278 1.394 1_455 S
C1276 H1292 0.931 1_455 S
C1277 C1276 1.391 . S
C1277 C1281 1.376 . S
C1278 C1276 1.394 1_655 S
C1278 C1279 1.369 1_655 S
C1278 C1282 1.531 . S
C1279 C1278 1.369 1_455 S
C1279 C1280 1.410 . S
C1279 C1287 1.503 . S
C1280 C1279 1.410 . S
C1280 C1281 1.392 . S
C1280 C1283 1.511 . S
C1281 C1277 1.376 . S
C1281 C1280 1.392 . S
C1281 H1293 0.929 . S
C1282 C1278 1.531 . S
C1282 H1294 0.960 . S
C1282 H1295 0.962 . S
C1282 H1296 0.960 . S
C1283 C1280 1.511 . S
C1283 H1297 0.961 . S
C1283 H1298 0.961 . S
C1283 H1299 0.961 . S
C1284 C1285 1.370 . S
C1284 C1286 1.363 . S
C1284 H1300 0.931 . S
C1285 C1284 1.370 . S
C1285 C1289 1.408 . S
C1286 C1284 1.363 . S
C1286 C1287 1.370 . S
C1286 C1290 1.524 . S
C1287 C1279 1.503 . S
C1287 C1286 1.370 . S
C1287 C1288 1.403 . S
C1288 C1287 1.403 . S
C1288 C1289 1.404 . S
C1288 C1291 1.539 . S
C1289 C1285 1.408 . S
C1289 C1288 1.404 . S
C1289 H1301 0.930 . S
C1290 C1286 1.524 . S
C1290 H1302 0.956 1_455 S
C1290 H1303 0.961 . S
C1290 H1304 0.961 . S
C1291 C1288 1.539 . S
C1291 H1305 0.958 . S
C1291 H1306 0.961 . S
C1291 H1307 0.960 . S
H1292 C1276 0.931 1_655 S
H1293 C1281 0.929 . S
H1294 C1282 0.960 . S
H1295 C1282 0.962 . S
H1296 C1282 0.960 . S
H1297 C1283 0.961 . S
H1298 C1283 0.961 . S
H1299 C1283 0.961 . S
H1300 C1284 0.931 . S
H1301 C1289 0.930 . S
H1302 C1290 0.956 1_655 S
H1303 C1290 0.961 . S
H1304 C1290 0.961 . S
H1305 C1291 0.958 . S
H1306 C1291 0.961 . S
H1307 C1291 0.960 . S
C1308 C1309 1.391 . S
C1308 C1310 1.394 . S
C1308 H1324 0.931 . S
C1309 C1308 1.391 . S
C1309 C1313 1.376 . S
C1310 C1308 1.394 . S
C1310 C1311 1.369 . S
C1310 C1314 1.531 . S
C1311 C1310 1.369 . S
C1311 C1312 1.410 . S
C1311 C1319 1.503 . S
C1312 C1311 1.410 . S
C1312 C1313 1.392 . S
C1312 C1315 1.511 . S
C1313 C1309 1.376 . S
C1313 C1312 1.392 . S
C1313 H1325 0.929 . S
C1314 C1310 1.531 . S
C1314 H1326 0.960 . S
C1314 H1327 0.962 . S
C1314 H1328 0.960 . S
C1315 C1312 1.511 . S
C1315 H1329 0.961 . S
C1315 H1330 0.961 . S
C1315 H1331 0.961 . S
C1316 C1317 1.370 . S
C1316 C1318 1.363 . S
C1316 H1332 0.931 . S
C1317 C1316 1.370 . S
C1317 C1321 1.408 . S
C1318 C1316 1.363 . S
C1318 C1319 1.370 . S
C1318 C1322 1.524 . S
C1319 C1311 1.503 . S
C1319 C1318 1.370 . S
C1319 C1320 1.403 . S
C1320 C1319 1.403 . S
C1320 C1321 1.404 . S
C1320 C1323 1.539 . S
C1321 C1317 1.408 . S
C1321 C1320 1.404 . S
C1321 H1333 0.930 . S
C1322 C1318 1.524 . S
C1322 H1334 0.956 . S
C1322 H1335 0.961 . S
C1322 H1336 0.961 . S
C1323 C1320 1.539 . S
C1323 H1337 0.958 . S
C1323 H1338 0.961 . S
C1323 H1339 0.960 . S
H1324 C1308 0.931 . S
H1325 C1313 0.929 . S
H1326 C1314 0.960 . S
H1327 C1314 0.962 . S
H1328 C1314 0.960 . S
H1329 C1315 0.961 . S
H1330 C1315 0.961 . S
H1331 C1315 0.961 . S
H1332 C1316 0.931 . S
H1333 C1321 0.930 . S
H1334 C1322 0.956 . S
H1335 C1322 0.961 . S
H1336 C1322 0.961 . S
H1337 C1323 0.958 . S
H1338 C1323 0.961 . S
H1339 C1323 0.960 . S
C1340 C1341 1.391 . S
C1340 C1342 1.394 . S
C1340 H1356 0.931 . S
C1341 C1340 1.391 . S
C1341 C1345 1.376 . S
C1342 C1340 1.394 . S
C1342 C1343 1.369 . S
C1342 C1346 1.531 . S
C1343 C1342 1.369 . S
C1343 C1344 1.410 . S
C1343 C1351 1.503 . S
C1344 C1343 1.410 . S
C1344 C1345 1.392 . S
C1344 C1347 1.511 . S
C1345 C1341 1.376 . S
C1345 C1344 1.392 . S
C1345 H1357 0.929 . S
C1346 C1342 1.531 . S
C1346 H1358 0.960 . S
C1346 H1359 0.962 . S
C1346 H1360 0.960 . S
C1347 C1344 1.511 . S
C1347 H1361 0.961 . S
C1347 H1362 0.961 . S
C1347 H1363 0.961 . S
C1348 C1349 1.370 . S
C1348 C1350 1.363 . S
C1348 H1364 0.931 . S
C1349 C1348 1.370 . S
C1349 C1353 1.408 . S
C1350 C1348 1.363 . S
C1350 C1351 1.370 . S
C1350 C1354 1.524 . S
C1351 C1343 1.503 . S
C1351 C1350 1.370 . S
C1351 C1352 1.403 . S
C1352 C1351 1.403 . S
C1352 C1353 1.404 . S
C1352 C1355 1.539 . S
C1353 C1349 1.408 . S
C1353 C1352 1.404 . S
C1353 H1365 0.930 . S
C1354 C1350 1.524 . S
C1354 H1366 0.956 . S
C1354 H1367 0.961 . S
C1354 H1368 0.961 . S
C1355 C1352 1.539 . S
C1355 H1369 0.958 . S
C1355 H1370 0.961 . S
C1355 H1371 0.960 . S
H1356 C1340 0.931 . S
H1357 C1345 0.929 . S
H1358 C1346 0.960 . S
H1359 C1346 0.962 . S
H1360 C1346 0.960 . S
H1361 C1347 0.961 . S
H1362 C1347 0.961 . S
H1363 C1347 0.961 . S
H1364 C1348 0.931 . S
H1365 C1353 0.930 . S
H1366 C1354 0.956 . S
H1367 C1354 0.961 . S
H1368 C1354 0.961 . S
H1369 C1355 0.958 . S
H1370 C1355 0.961 . S
H1371 C1355 0.960 . S
C1372 C1373 1.391 . S
C1372 C1374 1.394 . S
C1372 H1388 0.931 . S
C1373 C1372 1.391 . S
C1373 C1377 1.376 . S
C1374 C1372 1.394 . S
C1374 C1375 1.369 . S
C1374 C1378 1.531 . S
C1375 C1374 1.369 . S
C1375 C1376 1.410 . S
C1375 C1383 1.503 . S
C1376 C1375 1.410 . S
C1376 C1377 1.392 . S
C1376 C1379 1.511 . S
C1377 C1373 1.376 . S
C1377 C1376 1.392 . S
C1377 H1389 0.929 . S
C1378 C1374 1.531 . S
C1378 H1390 0.960 . S
C1378 H1391 0.962 . S
C1378 H1392 0.960 . S
C1379 C1376 1.511 . S
C1379 H1393 0.961 . S
C1379 H1394 0.961 . S
C1379 H1395 0.961 . S
C1380 C1381 1.370 . S
C1380 C1382 1.363 . S
C1380 H1396 0.931 . S
C1381 C1380 1.370 . S
C1381 C1385 1.408 . S
C1382 C1380 1.363 . S
C1382 C1383 1.370 . S
C1382 C1386 1.524 . S
C1383 C1375 1.503 . S
C1383 C1382 1.370 . S
C1383 C1384 1.403 . S
C1384 C1383 1.403 . S
C1384 C1385 1.404 . S
C1384 C1387 1.539 . S
C1385 C1381 1.408 . S
C1385 C1384 1.404 . S
C1385 H1397 0.930 . S
C1386 C1382 1.524 . S
C1386 H1398 0.956 . S
C1386 H1399 0.961 . S
C1386 H1400 0.961 . S
C1387 C1384 1.539 . S
C1387 H1401 0.958 . S
C1387 H1402 0.961 . S
C1387 H1403 0.960 . S
H1388 C1372 0.931 . S
H1389 C1377 0.929 . S
H1390 C1378 0.960 . S
H1391 C1378 0.962 . S
H1392 C1378 0.960 . S
H1393 C1379 0.961 . S
H1394 C1379 0.961 . S
H1395 C1379 0.961 . S
H1396 C1380 0.931 . S
H1397 C1385 0.930 . S
H1398 C1386 0.956 . S
H1399 C1386 0.961 . S
H1400 C1386 0.961 . S
H1401 C1387 0.958 . S
H1402 C1387 0.961 . S
H1403 C1387 0.960 . S
C253 C0 2.009 . S
C261 C42 1.984 . S
C285 C25 2.066 . S
C293 C56 2.025 . S
C317 C70 2.037 . S
C325 C28 2.051 . S
C349 C84 1.994 . S
C357 C126 1.982 . S
C381 C109 2.059 . S
C389 C140 2.024 . S
C413 C154 2.014 . S
C421 C112 2.046 . S
C445 C210 1.987 . S
C453 C168 1.987 . S
C477 C224 2.011 . S
C485 C193 2.051 . S
C509 C238 2.055 . S
C517 C196 2.029 . S
C541 C11 1.656 . S
C549 C137 1.617 . S
C573 C14 1.639 . S
C581 C151 1.665 . S
C605 C165 1.669 . S
C613 C39 1.661 . S
C637 C53 1.628 . S
C645 C179 1.628 . S
C669 C67 1.648 . S
C677 C182 1.647 . S
C701 C81 1.676 . S
C709 C207 1.658 . S
C733 C95 1.615 . S
C741 C221 1.652 . S
C765 C98 1.637 . S
C773 C235 1.661 . S
C797 C249 1.686 . S
C805 C123 1.652 . S
C829 C5 0.500 . S
C837 C65 0.490 . S
C861 C23 0.522 . S
C869 C79 0.510 . S
C893 C33 0.475 . S
C901 C51 0.486 . S
C925 C47 0.551 . S
C933 C19 0.558 . S
C957 C37 0.469 . S
C965 C61 0.488 . S
C989 C75 0.486 . S
C997 C9 0.493 . S
C1021 C89 0.468 . S
C1029 C149 0.475 . S
C1053 C163 0.498 . S
C1061 C107 0.484 . S
C1085 C135 0.549 . S
C1093 C117 0.508 . S
C1117 C103 0.573 . S
C1125 C131 0.560 . S
C1149 C145 0.519 . S
C1157 C121 0.509 . S
C1181 C159 0.509 . S
C1189 C93 0.513 . S
C1213 C233 0.504 . S
C1221 C173 0.485 . S
C1245 C247 0.481 . S
C1253 C191 0.477 . S
C1277 C201 0.495 . S
C1285 C219 0.502 . S
C1309 C187 0.580 . S
C1317 C215 0.567 . S
C1341 C205 0.535 . S
C1349 C229 0.505 . S
C1373 C177 0.499 . S
C1381 C243 0.517 . S
