# Generated by pormake.
# Topology yfc, (5)-cn, num edge types: 1
# Building blocks:
#     Node 0, Type 0, BuildingBlock: BEQFEK_clean_sbu_0, # of connection points: 5
#     Node 1, Type 0, BuildingBlock: BEQFEK_clean_sbu_0, # of connection points: 5
#     Node 2, Type 0, BuildingBlock: BEQFEK_clean_sbu_0, # of connection points: 5
#     Node 3, Type 0, BuildingBlock: BEQFEK_clean_sbu_0, # of connection points: 5
#     Node 4, Type 0, BuildingBlock: BEQFEK_clean_sbu_0, # of connection points: 5
#     Node 5, Type 0, BuildingBlock: BEQFEK_clean_sbu_0, # of connection points: 5
#     Node 6, Type 0, BuildingBlock: BEQFEK_clean_sbu_0, # of connection points: 5
#     Node 7, Type 0, BuildingBlock: BEQFEK_clean_sbu_0, # of connection points: 5
#     Node 8, Type 0, BuildingBlock: BEQFEK_clean_sbu_0, # of connection points: 5
#     Node 9, Type 0, BuildingBlock: BEQFEK_clean_sbu_0, # of connection points: 5
#     Node 10, Type 0, BuildingBlock: BEQFEK_clean_sbu_0, # of connection points: 5
#     Node 11, Type 0, BuildingBlock: BEQFEK_clean_sbu_0, # of connection points: 5
#     Node 12, Type 0, BuildingBlock: BEQFEK_clean_sbu_0, # of connection points: 5
#     Node 13, Type 0, BuildingBlock: BEQFEK_clean_sbu_0, # of connection points: 5
#     Node 14, Type 0, BuildingBlock: BEQFEK_clean_sbu_0, # of connection points: 5
#     Node 15, Type 0, BuildingBlock: BEQFEK_clean_sbu_0, # of connection points: 5
#     Edge 16, Type (0, 0), None
#     Edge 17, Type (0, 0), None
#     Edge 18, Type (0, 0), None
#     Edge 19, Type (0, 0), None
#     Edge 20, Type (0, 0), None
#     Edge 21, Type (0, 0), None
#     Edge 22, Type (0, 0), None
#     Edge 23, Type (0, 0), None
#     Edge 24, Type (0, 0), None
#     Edge 25, Type (0, 0), None
#     Edge 26, Type (0, 0), None
#     Edge 27, Type (0, 0), None
#     Edge 28, Type (0, 0), None
#     Edge 29, Type (0, 0), None
#     Edge 30, Type (0, 0), None
#     Edge 31, Type (0, 0), None
#     Edge 32, Type (0, 0), None
#     Edge 33, Type (0, 0), None
#     Edge 34, Type (0, 0), None
#     Edge 35, Type (0, 0), None
#     Edge 36, Type (0, 0), None
#     Edge 37, Type (0, 0), None
#     Edge 38, Type (0, 0), None
#     Edge 39, Type (0, 0), None
#     Edge 40, Type (0, 0), None
#     Edge 41, Type (0, 0), None
#     Edge 42, Type (0, 0), None
#     Edge 43, Type (0, 0), None
#     Edge 44, Type (0, 0), None
#     Edge 45, Type (0, 0), None
#     Edge 46, Type (0, 0), None
#     Edge 47, Type (0, 0), None
#     Edge 48, Type (0, 0), None
#     Edge 49, Type (0, 0), None
#     Edge 50, Type (0, 0), None
#     Edge 51, Type (0, 0), None
#     Edge 52, Type (0, 0), None
#     Edge 53, Type (0, 0), None
#     Edge 54, Type (0, 0), None
#     Edge 55, Type (0, 0), None
# Relax obj value: 0.527
# Max RMSD: 0.217
# Mean RMSD: 0.217
data_MOF--net-yfc--node1-BEQFEK_clean_sbu_0--edge1-none
_symmetry_space_group_name_H-M    P1
_symmetry_Int_Tables_number       1
_symmetry_cell_setting            triclinic
loop_
_symmetry_equiv_pos_as_xyz
'x, y, z'
_cell_length_a     24.22444
_cell_length_b     24.224642
_cell_length_c     23.092123
_cell_angle_alpha  90.002008
_cell_angle_beta   89.997704
_cell_angle_gamma 90.000066
loop_
_atom_site_label
_atom_site_type_symbol
_atom_site_fract_x
_atom_site_fract_y
_atom_site_fract_z
_atom_type_partial_charge
Co0 Co 0.81385 0.18913 0.14362 0.0
Co1 Co 0.76168 0.09521 0.20605 0.0
C2 C 0.69741 0.1961 0.20548 0.0
O3 O 0.74091 0.21632 0.18223 0.0
O4 O 0.69519 0.14414 0.21333 0.0
C5 C 0.79503 0.26805 0.06661 0.0
O6 O 0.74551 0.24664 0.07168 0.0
C7 C 0.69269 1.00142 0.24809 0.0
C8 C 0.7462 0.93133 0.22412 0.0
C9 C 0.6935 0.94388 0.24334 0.0
N10 N 0.74194 1.02142 0.23036 0.0
N11 N 0.7737 0.97905 0.21669 0.0
C12 C 0.64808 1.03691 0.27285 0.0
H13 H 0.66657 0.07288 0.29543 0.0
H14 H 0.62174 0.05289 0.23733 0.0
H15 H 0.62249 1.01329 0.304 0.0
C16 C 0.83571 0.10882 0.05389 0.0
N17 N 0.81712 0.12148 0.10694 0.0
N18 N 0.78204 0.08466 0.12465 0.0
C19 C 0.77155 0.05075 0.07894 0.0
C20 C 0.80535 0.06522 0.03137 0.0
C21 C 0.87514 0.14422 0.02115 0.0
H22 H 0.90437 0.16476 0.05124 0.0
H23 H 0.85104 0.17588 0.99841 0.0
H24 H 0.89824 0.11961 0.98865 0.0
O25 O 0.86856 0.1913 0.20072 0.0
O26 O 0.82503 0.13385 0.26013 0.0
H27 H 0.7431 0.96797 0.08752 0.0
H28 H 0.70601 1.00791 0.03484 0.0
C29 C 0.72576 1.00942 0.07819 0.0
H30 H 0.6946 1.01943 0.11185 0.0
H31 H 0.81334 0.98283 0.19944 0.0
O32 O 0.83548 0.243 0.08846 0.0
C33 C 0.86391 0.16944 0.24995 0.0
Co34 Co 0.4059 0.81403 0.64361 0.0
Co35 Co 0.49974 0.76177 0.70606 0.0
C36 C 0.39884 0.69758 0.70548 0.0
O37 O 0.37867 0.74112 0.68226 0.0
O38 O 0.45081 0.6953 0.7133 0.0
C39 C 0.32698 0.79522 0.56661 0.0
O40 O 0.3484 0.7457 0.57169 0.0
C41 C 0.59352 0.69278 0.74813 0.0
C42 C 0.66362 0.74631 0.72422 0.0
C43 C 0.65106 0.69361 0.74342 0.0
N44 N 0.57353 0.74203 0.73041 0.0
N45 N 0.61589 0.77381 0.71677 0.0
C46 C 0.55802 0.64816 0.77285 0.0
H47 H 0.52204 0.66664 0.79542 0.0
H48 H 0.54206 0.62183 0.73731 0.0
H49 H 0.58163 0.62256 0.80401 0.0
C50 C 0.48623 0.83576 0.55386 0.0
N51 N 0.47355 0.81722 0.60692 0.0
N52 N 0.51034 0.78212 0.62466 0.0
C53 C 0.54424 0.77158 0.57896 0.0
C54 C 0.5298 0.80537 0.53137 0.0
C55 C 0.45086 0.87521 0.5211 0.0
H56 H 0.43031 0.90445 0.55117 0.0
H57 H 0.41921 0.85112 0.49833 0.0
H58 H 0.4755 0.89829 0.48862 0.0
O59 O 0.40378 0.86878 0.70067 0.0
O60 O 0.46106 0.82511 0.76013 0.0
H61 H 0.62699 0.74307 0.58764 0.0
H62 H 0.58709 0.70602 0.53489 0.0
C63 C 0.58555 0.72576 0.57825 0.0
H64 H 0.57547 0.6946 0.61188 0.0
H65 H 0.61211 0.81345 0.69953 0.0
O66 O 0.35204 0.83567 0.58844 0.0
C67 C 0.42555 0.86405 0.74994 0.0
Co68 Co 0.78098 0.40578 0.14357 0.0
Co69 Co 0.83319 0.49961 0.20611 0.0
C70 C 0.89741 0.39872 0.20546 0.0
O71 O 0.8539 0.37855 0.18218 0.0
O72 O 0.89967 0.45068 0.21335 0.0
C73 C 0.79981 0.32693 0.06649 0.0
O74 O 0.84936 0.34828 0.07157 0.0
C75 C 0.90218 0.59339 0.2482 0.0
C76 C 0.84862 0.66349 0.22436 0.0
C77 C 0.90133 0.65094 0.24352 0.0
N78 N 0.85292 0.57339 0.2305 0.0
N79 N 0.82112 0.61576 0.2169 0.0
C80 C 0.94682 0.5579 0.27287 0.0
H81 H 0.92837 0.52191 0.29544 0.0
H82 H 0.97314 0.54196 0.2373 0.0
H83 H 0.97244 0.5815 0.30402 0.0
C84 C 0.75918 0.48619 0.05392 0.0
N85 N 0.77774 0.47347 0.10697 0.0
N86 N 0.81284 0.51025 0.12473 0.0
C87 C 0.82337 0.54419 0.07905 0.0
C88 C 0.78958 0.52978 0.03146 0.0
C89 C 0.71972 0.45085 0.02114 0.0
H90 H 0.69049 0.43028 0.05121 0.0
H91 H 0.7438 0.41922 0.99833 0.0
H92 H 0.69663 0.47552 0.98869 0.0
O93 O 0.72627 0.40356 0.20067 0.0
O94 O 0.76984 0.46092 0.26014 0.0
H95 H 0.85188 0.62694 0.08779 0.0
H96 H 0.88892 0.58707 0.035 0.0
C97 C 0.86919 0.5855 0.07836 0.0
H98 H 0.90035 0.5754 0.11198 0.0
H99 H 0.78147 0.61198 0.19969 0.0
O100 O 0.75935 0.35198 0.08831 0.0
C101 C 0.73095 0.42535 0.24994 0.0
Co102 Co 0.18925 0.78115 0.64359 0.0
Co103 Co 0.09534 0.83329 0.70611 0.0
C104 C 0.19623 0.89757 0.70546 0.0
O105 O 0.21643 0.8541 0.68215 0.0
O106 O 0.14427 0.89977 0.71337 0.0
C107 C 0.26811 0.8 0.5665 0.0
O108 O 0.24675 0.84956 0.57157 0.0
C109 C 1.00154 0.90227 0.74816 0.0
C110 C 0.93145 0.84873 0.72425 0.0
C111 C 0.944 0.90144 0.74344 0.0
N112 N 1.02154 0.85302 0.73046 0.0
N113 N 0.97918 0.82123 0.71682 0.0
C114 C 1.03703 0.9469 0.77287 0.0
H115 H 0.07301 0.92843 0.79546 0.0
H116 H 0.053 0.97323 0.73733 0.0
H117 H 1.01341 0.97251 0.80402 0.0
C118 C 0.10885 0.75924 0.55395 0.0
N119 N 0.12155 0.77784 0.60699 0.0
N120 N 0.08474 0.81292 0.62472 0.0
C121 C 0.0508 0.8234 0.57903 0.0
C122 C 0.06524 0.78959 0.53146 0.0
C123 C 0.14423 0.71979 0.52119 0.0
H124 H 0.16479 0.69057 0.55128 0.0
H125 H 0.17587 0.74388 0.49841 0.0
H126 H 0.11959 0.69668 0.48873 0.0
O127 O 0.19151 0.72648 0.70072 0.0
O128 O 0.134 0.76992 0.76014 0.0
H129 H 0.96802 0.85185 0.58767 0.0
H130 H 1.00793 0.88893 0.53496 0.0
C131 C 1.00947 0.86919 0.57831 0.0
H132 H 1.0195 0.90035 0.61195 0.0
H133 H 0.98296 0.78158 0.6996 0.0
O134 O 0.24306 0.75955 0.58833 0.0
C135 C 0.16964 0.73109 0.74996 0.0
Co136 Co 0.81399 0.40589 0.85626 0.0
Co137 Co 0.76177 0.49975 0.79377 0.0
C138 C 0.69756 0.39884 0.79437 0.0
O139 O 0.74107 0.37866 0.81763 0.0
O140 O 0.69531 0.45081 0.7865 0.0
C141 C 0.79524 0.32698 0.93329 0.0
O142 O 0.74573 0.34843 0.92828 0.0
C143 C 0.69279 0.59352 0.75167 0.0
C144 C 0.7463 0.66363 0.7756 0.0
C145 C 0.69361 0.65107 0.75637 0.0
N146 N 0.74203 0.57354 0.76942 0.0
N147 N 0.7738 0.61591 0.78307 0.0
C148 C 0.64818 0.55802 0.72695 0.0
H149 H 0.66666 0.52204 0.70438 0.0
H150 H 0.62184 0.54205 0.76248 0.0
H151 H 0.62258 0.58163 0.69578 0.0
C152 C 0.83558 0.48616 0.9461 0.0
N153 N 0.81715 0.47353 0.89297 0.0
N154 N 0.78207 0.51034 0.87518 0.0
C155 C 0.77143 0.54423 0.92088 0.0
C156 C 0.80507 0.52967 0.96851 0.0
C157 C 0.87492 0.45076 0.97895 0.0
H158 H 0.90424 0.43022 0.94896 0.0
H159 H 0.85073 0.41911 0.00161 0.0
H160 H 0.89792 0.47535 0.01153 0.0
O161 O 0.86874 0.40379 0.79919 0.0
O162 O 0.82512 0.4611 0.73972 0.0
H163 H 0.74289 0.62696 0.91211 0.0
H164 H 0.70581 0.58707 0.96485 0.0
C165 C 0.72559 0.58551 0.92152 0.0
H166 H 0.69447 0.57541 0.88786 0.0
H167 H 0.81343 0.61213 0.80033 0.0
O168 O 0.83568 0.35201 0.9114 0.0
C169 C 0.86405 0.42557 0.74993 0.0
Co170 Co 0.18914 0.8138 0.35625 0.0
Co171 Co 0.0952 0.76167 0.29378 0.0
C172 C 0.1961 0.69738 0.29438 0.0
O173 O 0.21633 0.74085 0.31767 0.0
O174 O 0.14414 0.6952 0.28647 0.0
C175 C 0.26806 0.79504 0.43329 0.0
O176 O 0.24661 0.74552 0.42828 0.0
C177 C 1.00142 0.69268 0.25171 0.0
C178 C 0.93132 0.74617 0.2757 0.0
C179 C 0.94387 0.69349 0.25645 0.0
N180 N 1.02141 0.74192 0.26946 0.0
N181 N 0.97904 0.77368 0.28315 0.0
C182 C 1.03692 0.64809 0.22694 0.0
H183 H 0.07288 0.66659 0.20436 0.0
H184 H 0.05291 0.62174 0.26245 0.0
H185 H 1.0133 0.62249 0.19578 0.0
C186 C 0.10888 0.83551 0.44607 0.0
N187 N 0.1215 0.81704 0.39296 0.0
N188 N 0.08466 0.78199 0.37519 0.0
C189 C 0.05077 0.77139 0.42089 0.0
C190 C 0.06536 0.80504 0.46851 0.0
C191 C 0.14432 0.87484 0.4789 0.0
H192 H 0.16486 0.90415 0.44889 0.0
H193 H 0.17598 0.85064 0.50153 0.0
H194 H 0.11976 0.89785 0.5115 0.0
O195 O 0.19129 0.8685 0.29914 0.0
O196 O 0.13383 0.82503 0.23972 0.0
H197 H 0.968 0.74291 0.41223 0.0
H198 H 1.00793 0.70579 0.4649 0.0
C199 C 1.00945 0.72558 0.42157 0.0
H200 H 1.01949 0.69446 0.38788 0.0
H201 H 0.98281 0.81331 0.30042 0.0
O202 O 0.24304 0.83547 0.41138 0.0
C203 C 0.16943 0.86389 0.24991 0.0
Co204 Co 0.78119 0.18925 0.85629 0.0
Co205 Co 0.83329 0.09532 0.79372 0.0
C206 C 0.8976 0.19622 0.79439 0.0
O207 O 0.85415 0.21643 0.81775 0.0
O208 O 0.89976 0.14427 0.78643 0.0
C209 C 0.79999 0.2681 0.9334 0.0
O210 O 0.84953 0.24671 0.9284 0.0
C211 C 0.90227 1.00153 0.75164 0.0
C212 C 0.84875 0.93144 0.77556 0.0
C213 C 0.90145 0.94399 0.75635 0.0
N214 N 0.85302 1.02153 0.76936 0.0
N215 N 0.82125 0.97916 0.78301 0.0
C216 C 0.94689 1.03703 0.72692 0.0
H217 H 0.92842 0.073 0.70434 0.0
H218 H 0.97322 0.053 0.76246 0.0
H219 H 0.97251 1.01341 0.69577 0.0
C220 C 0.75943 0.10891 0.94601 0.0
N221 N 0.77791 0.12156 0.89291 0.0
N222 N 0.81297 0.08473 0.87512 0.0
C223 C 0.82356 0.05081 0.9208 0.0
C224 C 0.7899 0.06537 0.96842 0.0
C225 C 0.72009 0.14432 0.97886 0.0
H226 H 0.69079 0.16488 0.94885 0.0
H227 H 0.74428 0.17596 0.00153 0.0
H228 H 0.69707 0.11973 0.01142 0.0
O229 O 0.72653 0.19149 0.79914 0.0
O230 O 0.76992 0.13397 0.7397 0.0
H231 H 0.85204 0.96805 0.91207 0.0
H232 H 0.88915 1.00794 0.96478 0.0
C233 C 0.86937 1.0095 0.92145 0.0
H234 H 0.90049 1.01956 0.88778 0.0
H235 H 0.7816 0.98295 0.80025 0.0
O236 O 0.75954 0.24308 0.91151 0.0
C237 C 0.73111 0.16962 0.7499 0.0
Co238 Co 0.40579 0.781 0.3563 0.0
Co239 Co 0.49964 0.83319 0.29372 0.0
C240 C 0.39873 0.89742 0.29439 0.0
O241 O 0.37856 0.85394 0.31772 0.0
O242 O 0.45069 0.89965 0.28646 0.0
C243 C 0.32694 0.79978 0.43341 0.0
O244 O 0.34833 0.84932 0.4284 0.0
C245 C 0.59341 0.90217 0.2516 0.0
C246 C 0.66351 0.84863 0.27547 0.0
C247 C 0.65096 0.90133 0.25628 0.0
N248 N 0.57342 0.85292 0.26933 0.0
N249 N 0.61579 0.82113 0.28294 0.0
C250 C 0.55791 0.9468 0.22693 0.0
H251 H 0.52192 0.92834 0.20436 0.0
H252 H 0.54196 0.97312 0.26249 0.0
H253 H 0.58151 0.97242 0.19577 0.0
C254 C 0.48614 0.75936 0.44604 0.0
N255 N 0.47347 0.7778 0.39293 0.0
N256 N 0.51027 0.81288 0.37512 0.0
C257 C 0.54419 0.82352 0.42079 0.0
C258 C 0.52966 0.78987 0.46843 0.0
C259 C 0.45076 0.72001 0.47892 0.0
H260 H 0.4302 0.6907 0.44893 0.0
H261 H 0.41913 0.74419 0.50161 0.0
H262 H 0.47538 0.697 0.51146 0.0
O263 O 0.40359 0.7263 0.29919 0.0
O264 O 0.46096 0.76983 0.23971 0.0
H265 H 0.62692 0.85206 0.41196 0.0
H266 H 0.58706 0.88913 0.46474 0.0
C267 C 0.58547 0.86935 0.42141 0.0
H268 H 0.57535 0.90048 0.38776 0.0
H269 H 0.61201 0.78149 0.30017 0.0
O270 O 0.35196 0.75934 0.41153 0.0
C271 C 0.42538 0.73095 0.24992 0.0
Co272 Co 0.28117 0.90582 0.85627 0.0
Co273 Co 0.3333 0.99976 0.79381 0.0
C274 C 0.39759 0.89889 0.79443 0.0
O275 O 0.35412 0.87862 0.81769 0.0
O276 O 0.39979 0.95085 0.78651 0.0
C277 C 0.29996 0.8269 0.93329 0.0
O278 O 0.34949 0.84829 0.92822 0.0
C279 C 0.40227 0.09356 0.75176 0.0
C280 C 0.34875 0.16365 0.77575 0.0
C281 C 0.40145 0.1511 0.75652 0.0
N282 N 0.35302 0.07356 0.76949 0.0
N283 N 0.32125 0.11592 0.78318 0.0
C284 C 0.44687 0.05808 0.727 0.0
H285 H 0.42838 1.02211 0.7044 0.0
H286 H 0.47322 1.04209 0.76251 0.0
H287 H 0.47246 0.08171 0.69584 0.0
C288 C 0.25928 0.98616 0.94597 0.0
N289 N 0.27787 0.97348 0.89293 0.0
N290 N 0.31295 1.01031 0.87521 0.0
C291 C 0.32343 1.04423 0.92093 0.0
C292 C 0.28962 1.02976 0.96849 0.0
C293 C 0.21983 0.95076 0.97871 0.0
H294 H 0.19062 0.93019 0.94862 0.0
H295 H 0.24393 0.91913 0.0015 0.0
H296 H 0.19671 0.97538 0.01118 0.0
O297 O 0.22648 0.90363 0.79917 0.0
O298 O 0.26995 0.96112 0.73975 0.0
H299 H 0.35186 0.12701 0.91235 0.0
H300 H 0.38896 0.08707 0.96502 0.0
C301 C 0.36921 0.08557 0.92167 0.0
H302 H 0.40036 0.07557 0.88801 0.0
H303 H 0.28161 0.11213 0.80044 0.0
O304 O 0.25952 0.85197 0.91144 0.0
C305 C 0.23109 0.9255 0.74994 0.0
Co306 Co 0.68908 0.28098 0.35628 0.0
Co307 Co 0.59521 0.3332 0.2938 0.0
C308 C 0.6961 0.3974 0.29442 0.0
O309 O 0.71632 0.3539 0.31766 0.0
O310 O 0.64414 0.39968 0.28654 0.0
C311 C 0.76799 0.29975 0.43329 0.0
O312 O 0.7466 0.34928 0.42822 0.0
C313 C 0.50143 0.40216 0.25172 0.0
C314 C 0.43134 0.34863 0.27565 0.0
C315 C 0.44389 0.40133 0.25644 0.0
N316 N 0.52143 0.35292 0.26945 0.0
N317 N 0.47906 0.32114 0.2831 0.0
C318 C 0.53692 0.44678 0.227 0.0
H319 H 0.5729 0.4283 0.20442 0.0
H320 H 0.55289 0.47312 0.26253 0.0
H321 H 0.51331 0.47238 0.19584 0.0
C322 C 0.60872 0.25921 0.446 0.0
N323 N 0.62142 0.27776 0.39295 0.0
N324 N 0.58462 0.31286 0.3752 0.0
C325 C 0.55071 0.32339 0.42091 0.0
C326 C 0.56514 0.2896 0.46849 0.0
C327 C 0.64408 0.21975 0.47876 0.0
H328 H 0.66466 0.19053 0.44868 0.0
H329 H 0.67571 0.24384 0.50158 0.0
H330 H 0.61943 0.19664 0.51121 0.0
O331 O 0.69122 0.22624 0.29922 0.0
O332 O 0.6339 0.26985 0.23974 0.0
H333 H 0.46795 0.35188 0.41223 0.0
H334 H 0.50785 0.38894 0.46497 0.0
C335 C 0.50939 0.3692 0.42162 0.0
H336 H 0.51946 0.40035 0.38797 0.0
H337 H 0.48285 0.2815 0.30034 0.0
O338 O 0.74291 0.25931 0.41146 0.0
C339 C 0.66944 0.23094 0.24995 0.0
Co340 Co 0.31394 0.68918 0.85632 0.0
Co341 Co 0.26177 0.59533 0.79375 0.0
C342 C 0.19753 0.69621 0.79445 0.0
O343 O 0.24101 0.71642 0.81774 0.0
O344 O 0.19529 0.64426 0.78649 0.0
C345 C 0.29514 0.76803 0.93341 0.0
O346 O 0.24558 0.7467 0.92834 0.0
C347 C 0.19281 0.50154 0.75166 0.0
C348 C 0.24637 0.43145 0.77551 0.0
C349 C 0.19366 0.444 0.75635 0.0
N350 N 0.24206 0.52155 0.76936 0.0
N351 N 0.27386 0.47919 0.78297 0.0
C352 C 0.14816 0.53703 0.72698 0.0
H353 H 0.16662 0.57302 0.7044 0.0
H354 H 0.12185 0.55298 0.76254 0.0
H355 H 0.12255 0.51342 0.69583 0.0
C356 C 0.33578 0.60875 0.94594 0.0
N357 N 0.31721 0.62148 0.8929 0.0
N358 N 0.28211 0.58469 0.87514 0.0
C359 C 0.27159 0.55075 0.92082 0.0
C360 C 0.30539 0.56516 0.96841 0.0
C361 C 0.37524 0.64409 0.97872 0.0
H362 H 0.40445 0.66469 0.94865 0.0
H363 H 0.35117 0.67569 0.00158 0.0
H364 H 0.39837 0.61941 0.01114 0.0
O365 O 0.36864 0.69143 0.79922 0.0
O366 O 0.32512 0.63403 0.73974 0.0
H367 H 0.2431 0.468 0.91209 0.0
H368 H 0.20605 0.50786 0.96486 0.0
C369 C 0.22579 0.50943 0.92151 0.0
H370 H 0.19462 0.51951 0.88788 0.0
H371 H 0.31351 0.48297 0.80019 0.0
O372 O 0.33559 0.74296 0.91159 0.0
C373 C 0.36399 0.66962 0.74995 0.0
Co374 Co 0.90572 0.31375 0.35631 0.0
Co375 Co 0.99965 0.26166 0.29375 0.0
C376 C 0.89878 0.19735 0.29445 0.0
O377 O 0.87852 0.24079 0.31777 0.0
O378 O 0.95073 0.19518 0.28646 0.0
C379 C 0.82686 0.29493 0.4334 0.0
O380 O 0.84819 0.24537 0.42834 0.0
C381 C 0.09345 0.1927 0.25169 0.0
C382 C 0.16353 0.24625 0.27562 0.0
C383 C 0.15099 0.19354 0.25643 0.0
N384 N 0.07344 0.24195 0.2694 0.0
N385 N 0.1158 0.27374 0.28305 0.0
C386 C 0.05797 0.14808 0.22697 0.0
H387 H 1.022 0.16654 0.20438 0.0
H388 H 1.04199 0.12175 0.26251 0.0
H389 H 0.08159 0.12247 0.19583 0.0
C390 C 0.98613 0.33571 0.44591 0.0
N391 N 0.97342 0.3171 0.39288 0.0
N392 N 1.01024 0.28202 0.37515 0.0
C393 C 1.04419 0.27155 0.42084 0.0
C394 C 1.02975 0.30537 0.4684 0.0
C395 C 0.95076 0.37516 0.47867 0.0
H396 H 0.93016 0.40436 0.44858 0.0
H397 H 0.91914 0.35108 0.5015 0.0
H398 H 0.97541 0.3983 0.5111 0.0
O399 O 0.90342 0.36841 0.29916 0.0
O400 O 0.96098 0.32503 0.23973 0.0
H401 H 0.12697 0.24313 0.41221 0.0
H402 H 0.08706 0.20603 0.46491 0.0
C403 C 0.08553 0.22578 0.42156 0.0
H404 H 0.07552 0.19462 0.3879 0.0
H405 H 0.11201 0.31339 0.30028 0.0
O406 O 0.85193 0.33538 0.41157 0.0
C407 C 0.92532 0.36383 0.24993 0.0
Co408 Co 0.28102 0.68908 0.14358 0.0
Co409 Co 0.33321 0.59519 0.2061 0.0
C410 C 0.39743 0.69608 0.20545 0.0
O411 O 0.35396 0.71631 0.18218 0.0
O412 O 0.39967 0.64413 0.21339 0.0
C413 C 0.29974 0.76798 0.06654 0.0
O414 O 0.34927 0.74656 0.07155 0.0
C415 C 0.40217 0.50141 0.2482 0.0
C416 C 0.34865 0.43132 0.22426 0.0
C417 C 0.40134 0.44387 0.24349 0.0
N418 N 0.35293 0.52141 0.23045 0.0
N419 N 0.32116 0.47904 0.21679 0.0
C420 C 0.44678 0.53691 0.27294 0.0
H421 H 0.42829 0.57288 0.29551 0.0
H422 H 0.47312 0.55288 0.23741 0.0
H423 H 0.47238 0.5133 0.3041 0.0
C424 C 0.2594 0.60878 0.05377 0.0
N425 N 0.27784 0.62142 0.10689 0.0
N426 N 0.31292 0.58461 0.12468 0.0
C427 C 0.32355 0.55072 0.07899 0.0
C428 C 0.28991 0.56527 0.03135 0.0
C429 C 0.22006 0.64418 0.02092 0.0
H430 H 0.19076 0.66475 0.05092 0.0
H431 H 0.24424 0.6758 0.99822 0.0
H432 H 0.19703 0.61957 0.98837 0.0
O433 O 0.2263 0.6912 0.20065 0.0
O434 O 0.26985 0.63386 0.26014 0.0
H435 H 0.35207 0.46797 0.08774 0.0
H436 H 0.38916 0.50786 0.03502 0.0
C437 C 0.36938 0.50942 0.07835 0.0
H438 H 0.4005 0.51951 0.11202 0.0
H439 H 0.28152 0.48282 0.19953 0.0
O440 O 0.25932 0.74294 0.08843 0.0
C441 C 0.23096 0.66941 0.24992 0.0
Co442 Co 0.90582 0.28121 0.64359 0.0
Co443 Co 0.99978 0.3333 0.70609 0.0
C444 C 0.8989 0.39761 0.70545 0.0
O445 O 0.87862 0.35417 0.68214 0.0
O446 O 0.95085 0.39978 0.71342 0.0
C447 C 0.82691 0.29994 0.56654 0.0
O448 O 0.84833 0.34947 0.57154 0.0
C449 C 0.09357 0.40226 0.74816 0.0
C450 C 0.16367 0.34877 0.72416 0.0
C451 C 0.15112 0.40145 0.74342 0.0
N452 N 0.07358 0.35302 0.73041 0.0
N453 N 0.11594 0.32126 0.71671 0.0
C454 C 0.05808 0.44686 0.77294 0.0
H455 H 1.02213 0.42835 0.79553 0.0
H456 H 1.04208 0.47321 0.73744 0.0
H457 H 0.08171 0.47245 0.8041 0.0
C458 C 0.9861 0.25946 0.5538 0.0
N459 N 0.97348 0.27794 0.6069 0.0
N460 N 1.01032 0.31299 0.62468 0.0
C461 C 1.04422 0.32358 0.57897 0.0
C462 C 1.02963 0.28992 0.53136 0.0
C463 C 0.95066 0.22013 0.52097 0.0
H464 H 0.9301 0.19084 0.55099 0.0
H465 H 0.91904 0.24433 0.49829 0.0
H466 H 0.97524 0.19709 0.48841 0.0
O467 O 0.90364 0.22652 0.7007 0.0
O468 O 0.96115 0.26994 0.76014 0.0
H469 H 0.12699 0.35203 0.58762 0.0
H470 H 0.08707 0.38917 0.53497 0.0
C471 C 0.08555 0.36937 0.57829 0.0
H472 H 0.07552 0.40049 0.61199 0.0
H473 H 0.11216 0.28163 0.69944 0.0
O474 O 0.85195 0.25952 0.58845 0.0
C475 C 0.92553 0.23111 0.74993 0.0
Co476 Co 0.31373 0.90571 0.14355 0.0
Co477 Co 0.26167 0.99966 0.20615 0.0
C478 C 0.19734 0.89877 0.20543 0.0
O479 O 0.24075 0.87851 0.18206 0.0
O480 O 0.1952 0.95072 0.21346 0.0
C481 C 0.29497 0.82686 0.06643 0.0
O482 O 0.24541 0.84822 0.07143 0.0
C483 C 0.19271 0.09345 0.24823 0.0
C484 C 0.24624 0.16354 0.22429 0.0
C485 C 0.19354 0.15099 0.24351 0.0
N486 N 0.24196 0.07345 0.23051 0.0
N487 N 0.27374 0.11581 0.21685 0.0
C488 C 0.14809 0.05796 0.27296 0.0
H489 H 0.16657 1.02199 0.29555 0.0
H490 H 0.12176 1.04198 0.23743 0.0
H491 H 0.12248 0.08159 0.30411 0.0
C492 C 0.33553 0.98607 0.05386 0.0
N493 N 0.31704 0.97341 0.10695 0.0
N494 N 0.28198 1.01024 0.12474 0.0
C495 C 0.2714 1.04417 0.07906 0.0
C496 C 0.30507 1.02961 0.03144 0.0
C497 C 0.37487 0.95066 0.02101 0.0
H498 H 0.40415 0.93007 0.05102 0.0
H499 H 0.35069 0.91905 0.99829 0.0
H500 H 0.39792 0.97527 0.98848 0.0
O501 O 0.36838 0.90343 0.20071 0.0
O502 O 0.32504 0.96101 0.26015 0.0
H503 H 0.24295 0.12693 0.08778 0.0
H504 H 0.20582 0.08704 0.03508 0.0
C505 C 0.22561 0.0855 0.07841 0.0
H506 H 0.19448 0.07544 0.11209 0.0
H507 H 0.31338 0.11202 0.1996 0.0
O508 O 0.3354 0.8519 0.08832 0.0
C509 C 0.36383 0.92533 0.24994 0.0
Co510 Co 0.68919 0.31391 0.64353 0.0
Co511 Co 0.59531 0.26176 0.70615 0.0
C512 C 0.69621 0.19751 0.70543 0.0
O513 O 0.71643 0.24097 0.68209 0.0
O514 O 0.64426 0.1953 0.71343 0.0
C515 C 0.76803 0.29517 0.56642 0.0
O516 O 0.74667 0.24561 0.57143 0.0
C517 C 0.50154 0.19281 0.74827 0.0
C518 C 0.43144 0.24635 0.72439 0.0
C519 C 0.44399 0.19365 0.74359 0.0
N520 N 0.52153 0.24205 0.73054 0.0
N521 N 0.47917 0.27384 0.71693 0.0
C522 C 0.53703 0.14817 0.77296 0.0
H523 H 0.57302 0.16664 0.79553 0.0
H524 H 0.55299 0.12185 0.7374 0.0
H525 H 0.51342 0.12256 0.80411 0.0
C526 C 0.60881 0.33559 0.55383 0.0
N527 N 0.62149 0.31714 0.60693 0.0
N528 N 0.58469 0.28206 0.62474 0.0
C529 C 0.55076 0.27143 0.57908 0.0
C530 C 0.56529 0.30508 0.53144 0.0
C531 C 0.64419 0.37494 0.52095 0.0
H532 H 0.66478 0.40423 0.55094 0.0
H533 H 0.67579 0.35077 0.49821 0.0
H534 H 0.61955 0.39798 0.48844 0.0
O535 O 0.69141 0.3686 0.70065 0.0
O536 O 0.634 0.32512 0.76015 0.0
H537 H 0.46803 0.24292 0.58789 0.0
H538 H 0.50788 0.20583 0.53513 0.0
C539 C 0.50947 0.22561 0.57846 0.0
H540 H 0.51958 0.19448 0.61211 0.0
H541 H 0.48295 0.31348 0.69968 0.0
O542 O 0.74298 0.3356 0.5883 0.0
C543 C 0.6696 0.36397 0.74992 0.0
loop_
_geom_bond_atom_site_label_1
_geom_bond_atom_site_label_2
_geom_bond_distance
_geom_bond_site_symmetry_2
_ccdc_geom_bond_type
Co0 O3 1.970 . S
Co0 N17 1.989 . S
Co0 O25 1.967 . S
Co0 O32 1.920 . S
Co1 O4 1.966 . S
Co1 N10 2.022 1_545 S
Co1 N18 1.993 . S
Co1 O26 1.941 . S
C2 O3 1.258 . S
C2 O4 1.263 . S
O3 Co0 1.970 . S
O3 C2 1.258 . S
O4 Co1 1.966 . S
O4 C2 1.263 . S
C5 O6 1.235 . S
C5 O32 1.289 . S
O6 C5 1.235 . S
C7 C9 1.400 . S
C7 N10 1.351 . S
C7 C12 1.501 . S
C8 C9 1.387 . S
C8 N11 1.341 . S
C9 C7 1.400 . S
C9 C8 1.387 . S
N10 Co1 2.022 1_565 S
N10 C7 1.351 . S
N10 N11 1.365 . S
N11 C8 1.341 . S
N11 N10 1.365 . S
N11 H31 0.862 . S
C12 C7 1.501 . S
C12 H13 0.961 1_565 S
C12 H14 0.961 . S
C12 H15 0.960 . S
H13 C12 0.961 1_545 S
H14 C12 0.961 . S
H15 C12 0.960 . S
C16 N17 1.342 . S
C16 C20 1.401 . S
C16 C21 1.499 . S
N17 Co0 1.989 . S
N17 C16 1.342 . S
N17 N18 1.388 . S
N18 Co1 1.993 . S
N18 N17 1.388 . S
N18 C19 1.346 . S
C19 N18 1.346 . S
C19 C20 1.396 . S
C19 C29 1.510 1_545 S
C20 C16 1.401 . S
C20 C19 1.396 . S
C21 C16 1.499 . S
C21 H22 0.959 . S
C21 H23 0.960 1_554 S
C21 H24 0.961 . S
H22 C21 0.959 . S
H23 C21 0.960 1_556 S
H24 C21 0.961 . S
O25 Co0 1.967 . S
O25 C33 1.258 . S
O26 Co1 1.941 . S
O26 C33 1.266 . S
H27 C29 0.959 . S
H28 C29 0.961 . S
C29 C19 1.510 1_565 S
C29 H27 0.959 . S
C29 H28 0.961 . S
C29 H30 0.960 . S
H30 C29 0.960 . S
H31 N11 0.862 . S
O32 Co0 1.920 . S
O32 C5 1.289 . S
C33 O25 1.258 . S
C33 O26 1.266 . S
Co34 O37 1.970 . S
Co34 N51 1.989 . S
Co34 O59 1.967 . S
Co34 O66 1.920 . S
Co35 O38 1.966 . S
Co35 N44 2.022 . S
Co35 N52 1.993 . S
Co35 O60 1.941 . S
C36 O37 1.258 . S
C36 O38 1.263 . S
O37 Co34 1.970 . S
O37 C36 1.258 . S
O38 Co35 1.966 . S
O38 C36 1.263 . S
C39 O40 1.235 . S
C39 O66 1.289 . S
O40 C39 1.235 . S
C41 C43 1.400 . S
C41 N44 1.351 . S
C41 C46 1.501 . S
C42 C43 1.387 . S
C42 N45 1.341 . S
C43 C41 1.400 . S
C43 C42 1.387 . S
N44 Co35 2.022 . S
N44 C41 1.351 . S
N44 N45 1.365 . S
N45 C42 1.341 . S
N45 N44 1.365 . S
N45 H65 0.862 . S
C46 C41 1.501 . S
C46 H47 0.961 . S
C46 H48 0.961 . S
C46 H49 0.960 . S
H47 C46 0.961 . S
H48 C46 0.961 . S
H49 C46 0.960 . S
C50 N51 1.342 . S
C50 C54 1.401 . S
C50 C55 1.499 . S
N51 Co34 1.989 . S
N51 C50 1.342 . S
N51 N52 1.388 . S
N52 Co35 1.993 . S
N52 N51 1.388 . S
N52 C53 1.346 . S
C53 N52 1.346 . S
C53 C54 1.396 . S
C53 C63 1.510 . S
C54 C50 1.401 . S
C54 C53 1.396 . S
C55 C50 1.499 . S
C55 H56 0.959 . S
C55 H57 0.960 . S
C55 H58 0.961 . S
H56 C55 0.959 . S
H57 C55 0.960 . S
H58 C55 0.961 . S
O59 Co34 1.967 . S
O59 C67 1.258 . S
O60 Co35 1.941 . S
O60 C67 1.266 . S
H61 C63 0.959 . S
H62 C63 0.961 . S
C63 C53 1.510 . S
C63 H61 0.959 . S
C63 H62 0.961 . S
C63 H64 0.960 . S
H64 C63 0.960 . S
H65 N45 0.862 . S
O66 Co34 1.920 . S
O66 C39 1.289 . S
C67 O59 1.258 . S
C67 O60 1.266 . S
Co68 O71 1.970 . S
Co68 N85 1.989 . S
Co68 O93 1.967 . S
Co68 O100 1.920 . S
Co69 O72 1.966 . S
Co69 N78 2.022 . S
Co69 N86 1.993 . S
Co69 O94 1.941 . S
C70 O71 1.258 . S
C70 O72 1.263 . S
O71 Co68 1.970 . S
O71 C70 1.258 . S
O72 Co69 1.966 . S
O72 C70 1.263 . S
C73 O74 1.235 . S
C73 O100 1.289 . S
O74 C73 1.235 . S
C75 C77 1.400 . S
C75 N78 1.351 . S
C75 C80 1.501 . S
C76 C77 1.387 . S
C76 N79 1.341 . S
C77 C75 1.400 . S
C77 C76 1.387 . S
N78 Co69 2.022 . S
N78 C75 1.351 . S
N78 N79 1.365 . S
N79 C76 1.341 . S
N79 N78 1.365 . S
N79 H99 0.862 . S
C80 C75 1.501 . S
C80 H81 0.961 . S
C80 H82 0.961 . S
C80 H83 0.960 . S
H81 C80 0.961 . S
H82 C80 0.961 . S
H83 C80 0.960 . S
C84 N85 1.342 . S
C84 C88 1.401 . S
C84 C89 1.499 . S
N85 Co68 1.989 . S
N85 C84 1.342 . S
N85 N86 1.388 . S
N86 Co69 1.993 . S
N86 N85 1.388 . S
N86 C87 1.346 . S
C87 N86 1.346 . S
C87 C88 1.396 . S
C87 C97 1.510 . S
C88 C84 1.401 . S
C88 C87 1.396 . S
C89 C84 1.499 . S
C89 H90 0.959 . S
C89 H91 0.960 1_554 S
C89 H92 0.961 . S
H90 C89 0.959 . S
H91 C89 0.960 1_556 S
H92 C89 0.961 . S
O93 Co68 1.967 . S
O93 C101 1.258 . S
O94 Co69 1.941 . S
O94 C101 1.266 . S
H95 C97 0.959 . S
H96 C97 0.961 . S
C97 C87 1.510 . S
C97 H95 0.959 . S
C97 H96 0.961 . S
C97 H98 0.960 . S
H98 C97 0.960 . S
H99 N79 0.862 . S
O100 Co68 1.920 . S
O100 C73 1.289 . S
C101 O93 1.258 . S
C101 O94 1.266 . S
Co102 O105 1.970 . S
Co102 N119 1.989 . S
Co102 O127 1.967 . S
Co102 O134 1.920 . S
Co103 O106 1.966 . S
Co103 N112 2.022 1_455 S
Co103 N120 1.993 . S
Co103 O128 1.941 . S
C104 O105 1.258 . S
C104 O106 1.263 . S
O105 Co102 1.970 . S
O105 C104 1.258 . S
O106 Co103 1.966 . S
O106 C104 1.263 . S
C107 O108 1.235 . S
C107 O134 1.289 . S
O108 C107 1.235 . S
C109 C111 1.400 . S
C109 N112 1.351 . S
C109 C114 1.501 . S
C110 C111 1.387 . S
C110 N113 1.341 . S
C111 C109 1.400 . S
C111 C110 1.387 . S
N112 Co103 2.022 1_655 S
N112 C109 1.351 . S
N112 N113 1.365 . S
N113 C110 1.341 . S
N113 N112 1.365 . S
N113 H133 0.862 . S
C114 C109 1.501 . S
C114 H115 0.961 1_655 S
C114 H116 0.961 . S
C114 H117 0.960 . S
H115 C114 0.961 1_455 S
H116 C114 0.961 . S
H117 C114 0.960 . S
C118 N119 1.342 . S
C118 C122 1.401 . S
C118 C123 1.499 . S
N119 Co102 1.989 . S
N119 C118 1.342 . S
N119 N120 1.388 . S
N120 Co103 1.993 . S
N120 N119 1.388 . S
N120 C121 1.346 . S
C121 N120 1.346 . S
C121 C122 1.396 . S
C121 C131 1.510 1_455 S
C122 C118 1.401 . S
C122 C121 1.396 . S
C123 C118 1.499 . S
C123 H124 0.959 . S
C123 H125 0.960 . S
C123 H126 0.961 . S
H124 C123 0.959 . S
H125 C123 0.960 . S
H126 C123 0.961 . S
O127 Co102 1.967 . S
O127 C135 1.258 . S
O128 Co103 1.941 . S
O128 C135 1.266 . S
H129 C131 0.959 . S
H130 C131 0.961 . S
C131 C121 1.510 1_655 S
C131 H129 0.959 . S
C131 H130 0.961 . S
C131 H132 0.960 . S
H132 C131 0.960 . S
H133 N113 0.862 . S
O134 Co102 1.920 . S
O134 C107 1.289 . S
C135 O127 1.258 . S
C135 O128 1.266 . S
Co136 O139 1.970 . S
Co136 N153 1.989 . S
Co136 O161 1.967 . S
Co136 O168 1.920 . S
Co137 O140 1.966 . S
Co137 N146 2.022 . S
Co137 N154 1.993 . S
Co137 O162 1.941 . S
C138 O139 1.258 . S
C138 O140 1.263 . S
O139 Co136 1.970 . S
O139 C138 1.258 . S
O140 Co137 1.966 . S
O140 C138 1.263 . S
C141 O142 1.235 . S
C141 O168 1.289 . S
O142 C141 1.235 . S
C143 C145 1.400 . S
C143 N146 1.351 . S
C143 C148 1.501 . S
C144 C145 1.387 . S
C144 N147 1.341 . S
C145 C143 1.400 . S
C145 C144 1.387 . S
N146 Co137 2.022 . S
N146 C143 1.351 . S
N146 N147 1.365 . S
N147 C144 1.341 . S
N147 N146 1.365 . S
N147 H167 0.862 . S
C148 C143 1.501 . S
C148 H149 0.961 . S
C148 H150 0.961 . S
C148 H151 0.960 . S
H149 C148 0.961 . S
H150 C148 0.961 . S
H151 C148 0.960 . S
C152 N153 1.342 . S
C152 C156 1.401 . S
C152 C157 1.499 . S
N153 Co136 1.989 . S
N153 C152 1.342 . S
N153 N154 1.388 . S
N154 Co137 1.993 . S
N154 N153 1.388 . S
N154 C155 1.346 . S
C155 N154 1.346 . S
C155 C156 1.396 . S
C155 C165 1.510 . S
C156 C152 1.401 . S
C156 C155 1.396 . S
C157 C152 1.499 . S
C157 H158 0.959 . S
C157 H159 0.960 1_556 S
C157 H160 0.961 . S
H158 C157 0.959 . S
H159 C157 0.960 1_554 S
H160 C157 0.961 . S
O161 Co136 1.967 . S
O161 C169 1.258 . S
O162 Co137 1.941 . S
O162 C169 1.266 . S
H163 C165 0.959 . S
H164 C165 0.961 . S
C165 C155 1.510 . S
C165 H163 0.959 . S
C165 H164 0.961 . S
C165 H166 0.960 . S
H166 C165 0.960 . S
H167 N147 0.862 . S
O168 Co136 1.920 . S
O168 C141 1.289 . S
C169 O161 1.258 . S
C169 O162 1.266 . S
Co170 O173 1.970 . S
Co170 N187 1.989 . S
Co170 O195 1.967 . S
Co170 O202 1.920 . S
Co171 O174 1.966 . S
Co171 N180 2.022 1_455 S
Co171 N188 1.993 . S
Co171 O196 1.941 . S
C172 O173 1.258 . S
C172 O174 1.263 . S
O173 Co170 1.970 . S
O173 C172 1.258 . S
O174 Co171 1.966 . S
O174 C172 1.263 . S
C175 O176 1.235 . S
C175 O202 1.289 . S
O176 C175 1.235 . S
C177 C179 1.400 . S
C177 N180 1.351 . S
C177 C182 1.501 . S
C178 C179 1.387 . S
C178 N181 1.341 . S
C179 C177 1.400 . S
C179 C178 1.387 . S
N180 Co171 2.022 1_655 S
N180 C177 1.351 . S
N180 N181 1.365 . S
N181 C178 1.341 . S
N181 N180 1.365 . S
N181 H201 0.862 . S
C182 C177 1.501 . S
C182 H183 0.961 1_655 S
C182 H184 0.961 . S
C182 H185 0.960 . S
H183 C182 0.961 1_455 S
H184 C182 0.961 . S
H185 C182 0.960 . S
C186 N187 1.342 . S
C186 C190 1.401 . S
C186 C191 1.499 . S
N187 Co170 1.989 . S
N187 C186 1.342 . S
N187 N188 1.388 . S
N188 Co171 1.993 . S
N188 N187 1.388 . S
N188 C189 1.346 . S
C189 N188 1.346 . S
C189 C190 1.396 . S
C189 C199 1.510 1_455 S
C190 C186 1.401 . S
C190 C189 1.396 . S
C191 C186 1.499 . S
C191 H192 0.959 . S
C191 H193 0.960 . S
C191 H194 0.961 . S
H192 C191 0.959 . S
H193 C191 0.960 . S
H194 C191 0.961 . S
O195 Co170 1.967 . S
O195 C203 1.258 . S
O196 Co171 1.941 . S
O196 C203 1.266 . S
H197 C199 0.959 . S
H198 C199 0.961 . S
C199 C189 1.510 1_655 S
C199 H197 0.959 . S
C199 H198 0.961 . S
C199 H200 0.960 . S
H200 C199 0.960 . S
H201 N181 0.862 . S
O202 Co170 1.920 . S
O202 C175 1.289 . S
C203 O195 1.258 . S
C203 O196 1.266 . S
Co204 O207 1.970 . S
Co204 N221 1.989 . S
Co204 O229 1.967 . S
Co204 O236 1.920 . S
Co205 O208 1.966 . S
Co205 N214 2.022 1_545 S
Co205 N222 1.993 . S
Co205 O230 1.941 . S
C206 O207 1.258 . S
C206 O208 1.263 . S
O207 Co204 1.970 . S
O207 C206 1.258 . S
O208 Co205 1.966 . S
O208 C206 1.263 . S
C209 O210 1.235 . S
C209 O236 1.289 . S
O210 C209 1.235 . S
C211 C213 1.400 . S
C211 N214 1.351 . S
C211 C216 1.501 . S
C212 C213 1.387 . S
C212 N215 1.341 . S
C213 C211 1.400 . S
C213 C212 1.387 . S
N214 Co205 2.022 1_565 S
N214 C211 1.351 . S
N214 N215 1.365 . S
N215 C212 1.341 . S
N215 N214 1.365 . S
N215 H235 0.862 . S
C216 C211 1.501 . S
C216 H217 0.961 1_565 S
C216 H218 0.961 . S
C216 H219 0.960 . S
H217 C216 0.961 1_545 S
H218 C216 0.961 . S
H219 C216 0.960 . S
C220 N221 1.342 . S
C220 C224 1.401 . S
C220 C225 1.499 . S
N221 Co204 1.989 . S
N221 C220 1.342 . S
N221 N222 1.388 . S
N222 Co205 1.993 . S
N222 N221 1.388 . S
N222 C223 1.346 . S
C223 N222 1.346 . S
C223 C224 1.396 . S
C223 C233 1.510 1_545 S
C224 C220 1.401 . S
C224 C223 1.396 . S
C225 C220 1.499 . S
C225 H226 0.959 . S
C225 H227 0.960 1_556 S
C225 H228 0.961 . S
H226 C225 0.959 . S
H227 C225 0.960 1_554 S
H228 C225 0.961 . S
O229 Co204 1.967 . S
O229 C237 1.258 . S
O230 Co205 1.941 . S
O230 C237 1.266 . S
H231 C233 0.959 . S
H232 C233 0.961 . S
C233 C223 1.510 1_565 S
C233 H231 0.959 . S
C233 H232 0.961 . S
C233 H234 0.960 . S
H234 C233 0.960 . S
H235 N215 0.862 . S
O236 Co204 1.920 . S
O236 C209 1.289 . S
C237 O229 1.258 . S
C237 O230 1.266 . S
Co238 O241 1.970 . S
Co238 N255 1.989 . S
Co238 O263 1.967 . S
Co238 O270 1.920 . S
Co239 O242 1.966 . S
Co239 N248 2.022 . S
Co239 N256 1.993 . S
Co239 O264 1.941 . S
C240 O241 1.258 . S
C240 O242 1.263 . S
O241 Co238 1.970 . S
O241 C240 1.258 . S
O242 Co239 1.966 . S
O242 C240 1.263 . S
C243 O244 1.235 . S
C243 O270 1.289 . S
O244 C243 1.235 . S
C245 C247 1.400 . S
C245 N248 1.351 . S
C245 C250 1.501 . S
C246 C247 1.387 . S
C246 N249 1.341 . S
C247 C245 1.400 . S
C247 C246 1.387 . S
N248 Co239 2.022 . S
N248 C245 1.351 . S
N248 N249 1.365 . S
N249 C246 1.341 . S
N249 N248 1.365 . S
N249 H269 0.862 . S
C250 C245 1.501 . S
C250 H251 0.961 . S
C250 H252 0.961 . S
C250 H253 0.960 . S
H251 C250 0.961 . S
H252 C250 0.961 . S
H253 C250 0.960 . S
C254 N255 1.342 . S
C254 C258 1.401 . S
C254 C259 1.499 . S
N255 Co238 1.989 . S
N255 C254 1.342 . S
N255 N256 1.388 . S
N256 Co239 1.993 . S
N256 N255 1.388 . S
N256 C257 1.346 . S
C257 N256 1.346 . S
C257 C258 1.396 . S
C257 C267 1.510 . S
C258 C254 1.401 . S
C258 C257 1.396 . S
C259 C254 1.499 . S
C259 H260 0.959 . S
C259 H261 0.960 . S
C259 H262 0.961 . S
H260 C259 0.959 . S
H261 C259 0.960 . S
H262 C259 0.961 . S
O263 Co238 1.967 . S
O263 C271 1.258 . S
O264 Co239 1.941 . S
O264 C271 1.266 . S
H265 C267 0.959 . S
H266 C267 0.961 . S
C267 C257 1.510 . S
C267 H265 0.959 . S
C267 H266 0.961 . S
C267 H268 0.960 . S
H268 C267 0.960 . S
H269 N249 0.862 . S
O270 Co238 1.920 . S
O270 C243 1.289 . S
C271 O263 1.258 . S
C271 O264 1.266 . S
Co272 O275 1.970 . S
Co272 N289 1.989 . S
Co272 O297 1.967 . S
Co272 O304 1.920 . S
Co273 O276 1.966 . S
Co273 N282 2.022 1_565 S
Co273 N290 1.993 . S
Co273 O298 1.941 . S
C274 O275 1.258 . S
C274 O276 1.263 . S
O275 Co272 1.970 . S
O275 C274 1.258 . S
O276 Co273 1.966 . S
O276 C274 1.263 . S
C277 O278 1.235 . S
C277 O304 1.289 . S
O278 C277 1.235 . S
C279 C281 1.400 . S
C279 N282 1.351 . S
C279 C284 1.501 . S
C280 C281 1.387 . S
C280 N283 1.341 . S
C281 C279 1.400 . S
C281 C280 1.387 . S
N282 Co273 2.022 1_545 S
N282 C279 1.351 . S
N282 N283 1.365 . S
N283 C280 1.341 . S
N283 N282 1.365 . S
N283 H303 0.862 . S
C284 C279 1.501 . S
C284 H285 0.961 1_545 S
C284 H286 0.961 . S
C284 H287 0.960 . S
H285 C284 0.961 1_565 S
H286 C284 0.961 . S
H287 C284 0.960 . S
C288 N289 1.342 . S
C288 C292 1.401 . S
C288 C293 1.499 . S
N289 Co272 1.989 . S
N289 C288 1.342 . S
N289 N290 1.388 . S
N290 Co273 1.993 . S
N290 N289 1.388 . S
N290 C291 1.346 . S
C291 N290 1.346 . S
C291 C292 1.396 . S
C291 C301 1.510 1_565 S
C292 C288 1.401 . S
C292 C291 1.396 . S
C293 C288 1.499 . S
C293 H294 0.959 . S
C293 H295 0.960 1_556 S
C293 H296 0.961 . S
H294 C293 0.959 . S
H295 C293 0.960 1_554 S
H296 C293 0.961 . S
O297 Co272 1.967 . S
O297 C305 1.258 . S
O298 Co273 1.941 . S
O298 C305 1.266 . S
H299 C301 0.959 . S
H300 C301 0.961 . S
C301 C291 1.510 1_545 S
C301 H299 0.959 . S
C301 H300 0.961 . S
C301 H302 0.960 . S
H302 C301 0.960 . S
H303 N283 0.862 . S
O304 Co272 1.920 . S
O304 C277 1.289 . S
C305 O297 1.258 . S
C305 O298 1.266 . S
Co306 O309 1.970 . S
Co306 N323 1.989 . S
Co306 O331 1.967 . S
Co306 O338 1.920 . S
Co307 O310 1.966 . S
Co307 N316 2.022 . S
Co307 N324 1.993 . S
Co307 O332 1.941 . S
C308 O309 1.258 . S
C308 O310 1.263 . S
O309 Co306 1.970 . S
O309 C308 1.258 . S
O310 Co307 1.966 . S
O310 C308 1.263 . S
C311 O312 1.235 . S
C311 O338 1.289 . S
O312 C311 1.235 . S
C313 C315 1.400 . S
C313 N316 1.351 . S
C313 C318 1.501 . S
C314 C315 1.387 . S
C314 N317 1.341 . S
C315 C313 1.400 . S
C315 C314 1.387 . S
N316 Co307 2.022 . S
N316 C313 1.351 . S
N316 N317 1.365 . S
N317 C314 1.341 . S
N317 N316 1.365 . S
N317 H337 0.862 . S
C318 C313 1.501 . S
C318 H319 0.961 . S
C318 H320 0.961 . S
C318 H321 0.960 . S
H319 C318 0.961 . S
H320 C318 0.961 . S
H321 C318 0.960 . S
C322 N323 1.342 . S
C322 C326 1.401 . S
C322 C327 1.499 . S
N323 Co306 1.989 . S
N323 C322 1.342 . S
N323 N324 1.388 . S
N324 Co307 1.993 . S
N324 N323 1.388 . S
N324 C325 1.346 . S
C325 N324 1.346 . S
C325 C326 1.396 . S
C325 C335 1.510 . S
C326 C322 1.401 . S
C326 C325 1.396 . S
C327 C322 1.499 . S
C327 H328 0.959 . S
C327 H329 0.960 . S
C327 H330 0.961 . S
H328 C327 0.959 . S
H329 C327 0.960 . S
H330 C327 0.961 . S
O331 Co306 1.967 . S
O331 C339 1.258 . S
O332 Co307 1.941 . S
O332 C339 1.266 . S
H333 C335 0.959 . S
H334 C335 0.961 . S
C335 C325 1.510 . S
C335 H333 0.959 . S
C335 H334 0.961 . S
C335 H336 0.960 . S
H336 C335 0.960 . S
H337 N317 0.862 . S
O338 Co306 1.920 . S
O338 C311 1.289 . S
C339 O331 1.258 . S
C339 O332 1.266 . S
Co340 O343 1.970 . S
Co340 N357 1.989 . S
Co340 O365 1.967 . S
Co340 O372 1.920 . S
Co341 O344 1.966 . S
Co341 N350 2.022 . S
Co341 N358 1.993 . S
Co341 O366 1.941 . S
C342 O343 1.258 . S
C342 O344 1.263 . S
O343 Co340 1.970 . S
O343 C342 1.258 . S
O344 Co341 1.966 . S
O344 C342 1.263 . S
C345 O346 1.235 . S
C345 O372 1.289 . S
O346 C345 1.235 . S
C347 C349 1.400 . S
C347 N350 1.351 . S
C347 C352 1.501 . S
C348 C349 1.387 . S
C348 N351 1.341 . S
C349 C347 1.400 . S
C349 C348 1.387 . S
N350 Co341 2.022 . S
N350 C347 1.351 . S
N350 N351 1.365 . S
N351 C348 1.341 . S
N351 N350 1.365 . S
N351 H371 0.862 . S
C352 C347 1.501 . S
C352 H353 0.961 . S
C352 H354 0.961 . S
C352 H355 0.960 . S
H353 C352 0.961 . S
H354 C352 0.961 . S
H355 C352 0.960 . S
C356 N357 1.342 . S
C356 C360 1.401 . S
C356 C361 1.499 . S
N357 Co340 1.989 . S
N357 C356 1.342 . S
N357 N358 1.388 . S
N358 Co341 1.993 . S
N358 N357 1.388 . S
N358 C359 1.346 . S
C359 N358 1.346 . S
C359 C360 1.396 . S
C359 C369 1.510 . S
C360 C356 1.401 . S
C360 C359 1.396 . S
C361 C356 1.499 . S
C361 H362 0.959 . S
C361 H363 0.960 1_556 S
C361 H364 0.961 . S
H362 C361 0.959 . S
H363 C361 0.960 1_554 S
H364 C361 0.961 . S
O365 Co340 1.967 . S
O365 C373 1.258 . S
O366 Co341 1.941 . S
O366 C373 1.266 . S
H367 C369 0.959 . S
H368 C369 0.961 . S
C369 C359 1.510 . S
C369 H367 0.959 . S
C369 H368 0.961 . S
C369 H370 0.960 . S
H370 C369 0.960 . S
H371 N351 0.862 . S
O372 Co340 1.920 . S
O372 C345 1.289 . S
C373 O365 1.258 . S
C373 O366 1.266 . S
Co374 O377 1.970 . S
Co374 N391 1.989 . S
Co374 O399 1.967 . S
Co374 O406 1.920 . S
Co375 O378 1.966 . S
Co375 N384 2.022 1_655 S
Co375 N392 1.993 . S
Co375 O400 1.941 . S
C376 O377 1.258 . S
C376 O378 1.263 . S
O377 Co374 1.970 . S
O377 C376 1.258 . S
O378 Co375 1.966 . S
O378 C376 1.263 . S
C379 O380 1.235 . S
C379 O406 1.289 . S
O380 C379 1.235 . S
C381 C383 1.400 . S
C381 N384 1.351 . S
C381 C386 1.501 . S
C382 C383 1.387 . S
C382 N385 1.341 . S
C383 C381 1.400 . S
C383 C382 1.387 . S
N384 Co375 2.022 1_455 S
N384 C381 1.351 . S
N384 N385 1.365 . S
N385 C382 1.341 . S
N385 N384 1.365 . S
N385 H405 0.862 . S
C386 C381 1.501 . S
C386 H387 0.961 1_455 S
C386 H388 0.961 . S
C386 H389 0.960 . S
H387 C386 0.961 1_655 S
H388 C386 0.961 . S
H389 C386 0.960 . S
C390 N391 1.342 . S
C390 C394 1.401 . S
C390 C395 1.499 . S
N391 Co374 1.989 . S
N391 C390 1.342 . S
N391 N392 1.388 . S
N392 Co375 1.993 . S
N392 N391 1.388 . S
N392 C393 1.346 . S
C393 N392 1.346 . S
C393 C394 1.396 . S
C393 C403 1.510 1_655 S
C394 C390 1.401 . S
C394 C393 1.396 . S
C395 C390 1.499 . S
C395 H396 0.959 . S
C395 H397 0.960 . S
C395 H398 0.961 . S
H396 C395 0.959 . S
H397 C395 0.960 . S
H398 C395 0.961 . S
O399 Co374 1.967 . S
O399 C407 1.258 . S
O400 Co375 1.941 . S
O400 C407 1.266 . S
H401 C403 0.959 . S
H402 C403 0.961 . S
C403 C393 1.510 1_455 S
C403 H401 0.959 . S
C403 H402 0.961 . S
C403 H404 0.960 . S
H404 C403 0.960 . S
H405 N385 0.862 . S
O406 Co374 1.920 . S
O406 C379 1.289 . S
C407 O399 1.258 . S
C407 O400 1.266 . S
Co408 O411 1.970 . S
Co408 N425 1.989 . S
Co408 O433 1.967 . S
Co408 O440 1.920 . S
Co409 O412 1.966 . S
Co409 N418 2.022 . S
Co409 N426 1.993 . S
Co409 O434 1.941 . S
C410 O411 1.258 . S
C410 O412 1.263 . S
O411 Co408 1.970 . S
O411 C410 1.258 . S
O412 Co409 1.966 . S
O412 C410 1.263 . S
C413 O414 1.235 . S
C413 O440 1.289 . S
O414 C413 1.235 . S
C415 C417 1.400 . S
C415 N418 1.351 . S
C415 C420 1.501 . S
C416 C417 1.387 . S
C416 N419 1.341 . S
C417 C415 1.400 . S
C417 C416 1.387 . S
N418 Co409 2.022 . S
N418 C415 1.351 . S
N418 N419 1.365 . S
N419 C416 1.341 . S
N419 N418 1.365 . S
N419 H439 0.862 . S
C420 C415 1.501 . S
C420 H421 0.961 . S
C420 H422 0.961 . S
C420 H423 0.960 . S
H421 C420 0.961 . S
H422 C420 0.961 . S
H423 C420 0.960 . S
C424 N425 1.342 . S
C424 C428 1.401 . S
C424 C429 1.499 . S
N425 Co408 1.989 . S
N425 C424 1.342 . S
N425 N426 1.388 . S
N426 Co409 1.993 . S
N426 N425 1.388 . S
N426 C427 1.346 . S
C427 N426 1.346 . S
C427 C428 1.396 . S
C427 C437 1.510 . S
C428 C424 1.401 . S
C428 C427 1.396 . S
C429 C424 1.499 . S
C429 H430 0.959 . S
C429 H431 0.960 1_554 S
C429 H432 0.961 . S
H430 C429 0.959 . S
H431 C429 0.960 1_556 S
H432 C429 0.961 . S
O433 Co408 1.967 . S
O433 C441 1.258 . S
O434 Co409 1.941 . S
O434 C441 1.266 . S
H435 C437 0.959 . S
H436 C437 0.961 . S
C437 C427 1.510 . S
C437 H435 0.959 . S
C437 H436 0.961 . S
C437 H438 0.960 . S
H438 C437 0.960 . S
H439 N419 0.862 . S
O440 Co408 1.920 . S
O440 C413 1.289 . S
C441 O433 1.258 . S
C441 O434 1.266 . S
Co442 O445 1.970 . S
Co442 N459 1.989 . S
Co442 O467 1.967 . S
Co442 O474 1.920 . S
Co443 O446 1.966 . S
Co443 N452 2.022 1_655 S
Co443 N460 1.993 . S
Co443 O468 1.941 . S
C444 O445 1.258 . S
C444 O446 1.263 . S
O445 Co442 1.970 . S
O445 C444 1.258 . S
O446 Co443 1.966 . S
O446 C444 1.263 . S
C447 O448 1.235 . S
C447 O474 1.289 . S
O448 C447 1.235 . S
C449 C451 1.400 . S
C449 N452 1.351 . S
C449 C454 1.501 . S
C450 C451 1.387 . S
C450 N453 1.341 . S
C451 C449 1.400 . S
C451 C450 1.387 . S
N452 Co443 2.022 1_455 S
N452 C449 1.351 . S
N452 N453 1.365 . S
N453 C450 1.341 . S
N453 N452 1.365 . S
N453 H473 0.862 . S
C454 C449 1.501 . S
C454 H455 0.961 1_455 S
C454 H456 0.961 . S
C454 H457 0.960 . S
H455 C454 0.961 1_655 S
H456 C454 0.961 . S
H457 C454 0.960 . S
C458 N459 1.342 . S
C458 C462 1.401 . S
C458 C463 1.499 . S
N459 Co442 1.989 . S
N459 C458 1.342 . S
N459 N460 1.388 . S
N460 Co443 1.993 . S
N460 N459 1.388 . S
N460 C461 1.346 . S
C461 N460 1.346 . S
C461 C462 1.396 . S
C461 C471 1.510 1_655 S
C462 C458 1.401 . S
C462 C461 1.396 . S
C463 C458 1.499 . S
C463 H464 0.959 . S
C463 H465 0.960 . S
C463 H466 0.961 . S
H464 C463 0.959 . S
H465 C463 0.960 . S
H466 C463 0.961 . S
O467 Co442 1.967 . S
O467 C475 1.258 . S
O468 Co443 1.941 . S
O468 C475 1.266 . S
H469 C471 0.959 . S
H470 C471 0.961 . S
C471 C461 1.510 1_455 S
C471 H469 0.959 . S
C471 H470 0.961 . S
C471 H472 0.960 . S
H472 C471 0.960 . S
H473 N453 0.862 . S
O474 Co442 1.920 . S
O474 C447 1.289 . S
C475 O467 1.258 . S
C475 O468 1.266 . S
Co476 O479 1.970 . S
Co476 N493 1.989 . S
Co476 O501 1.967 . S
Co476 O508 1.920 . S
Co477 O480 1.966 . S
Co477 N486 2.022 1_565 S
Co477 N494 1.993 . S
Co477 O502 1.941 . S
C478 O479 1.258 . S
C478 O480 1.263 . S
O479 Co476 1.970 . S
O479 C478 1.258 . S
O480 Co477 1.966 . S
O480 C478 1.263 . S
C481 O482 1.235 . S
C481 O508 1.289 . S
O482 C481 1.235 . S
C483 C485 1.400 . S
C483 N486 1.351 . S
C483 C488 1.501 . S
C484 C485 1.387 . S
C484 N487 1.341 . S
C485 C483 1.400 . S
C485 C484 1.387 . S
N486 Co477 2.022 1_545 S
N486 C483 1.351 . S
N486 N487 1.365 . S
N487 C484 1.341 . S
N487 N486 1.365 . S
N487 H507 0.862 . S
C488 C483 1.501 . S
C488 H489 0.961 1_545 S
C488 H490 0.961 . S
C488 H491 0.960 . S
H489 C488 0.961 1_565 S
H490 C488 0.961 . S
H491 C488 0.960 . S
C492 N493 1.342 . S
C492 C496 1.401 . S
C492 C497 1.499 . S
N493 Co476 1.989 . S
N493 C492 1.342 . S
N493 N494 1.388 . S
N494 Co477 1.993 . S
N494 N493 1.388 . S
N494 C495 1.346 . S
C495 N494 1.346 . S
C495 C496 1.396 . S
C495 C505 1.510 1_565 S
C496 C492 1.401 . S
C496 C495 1.396 . S
C497 C492 1.499 . S
C497 H498 0.959 . S
C497 H499 0.960 1_554 S
C497 H500 0.961 . S
H498 C497 0.959 . S
H499 C497 0.960 1_556 S
H500 C497 0.961 . S
O501 Co476 1.967 . S
O501 C509 1.258 . S
O502 Co477 1.941 . S
O502 C509 1.266 . S
H503 C505 0.959 . S
H504 C505 0.961 . S
C505 C495 1.510 1_545 S
C505 H503 0.959 . S
C505 H504 0.961 . S
C505 H506 0.960 . S
H506 C505 0.960 . S
H507 N487 0.862 . S
O508 Co476 1.920 . S
O508 C481 1.289 . S
C509 O501 1.258 . S
C509 O502 1.266 . S
Co510 O513 1.970 . S
Co510 N527 1.989 . S
Co510 O535 1.967 . S
Co510 O542 1.920 . S
Co511 O514 1.966 . S
Co511 N520 2.022 . S
Co511 N528 1.993 . S
Co511 O536 1.941 . S
C512 O513 1.258 . S
C512 O514 1.263 . S
O513 Co510 1.970 . S
O513 C512 1.258 . S
O514 Co511 1.966 . S
O514 C512 1.263 . S
C515 O516 1.235 . S
C515 O542 1.289 . S
O516 C515 1.235 . S
C517 C519 1.400 . S
C517 N520 1.351 . S
C517 C522 1.501 . S
C518 C519 1.387 . S
C518 N521 1.341 . S
C519 C517 1.400 . S
C519 C518 1.387 . S
N520 Co511 2.022 . S
N520 C517 1.351 . S
N520 N521 1.365 . S
N521 C518 1.341 . S
N521 N520 1.365 . S
N521 H541 0.862 . S
C522 C517 1.501 . S
C522 H523 0.961 . S
C522 H524 0.961 . S
C522 H525 0.960 . S
H523 C522 0.961 . S
H524 C522 0.961 . S
H525 C522 0.960 . S
C526 N527 1.342 . S
C526 C530 1.401 . S
C526 C531 1.499 . S
N527 Co510 1.989 . S
N527 C526 1.342 . S
N527 N528 1.388 . S
N528 Co511 1.993 . S
N528 N527 1.388 . S
N528 C529 1.346 . S
C529 N528 1.346 . S
C529 C530 1.396 . S
C529 C539 1.510 . S
C530 C526 1.401 . S
C530 C529 1.396 . S
C531 C526 1.499 . S
C531 H532 0.959 . S
C531 H533 0.960 . S
C531 H534 0.961 . S
H532 C531 0.959 . S
H533 C531 0.960 . S
H534 C531 0.961 . S
O535 Co510 1.967 . S
O535 C543 1.258 . S
O536 Co511 1.941 . S
O536 C543 1.266 . S
H537 C539 0.959 . S
H538 C539 0.961 . S
C539 C529 1.510 . S
C539 H537 0.959 . S
C539 H538 0.961 . S
C539 H540 0.960 . S
H540 C539 0.960 . S
H541 N521 0.862 . S
O542 Co510 1.920 . S
O542 C515 1.289 . S
C543 O535 1.258 . S
C543 O536 1.266 . S
C9 C247 2.036 . S
C145 C43 2.035 . S
C179 C77 2.036 . S
C111 C213 2.035 . S
C281 C519 2.036 . S
C315 C417 2.035 . S
C451 C349 2.036 . S
C383 C485 2.035 . S
C2 C339 2.592 . S
C373 C36 2.592 . S
C407 C70 2.592 . S
C305 C104 2.592 . S
C543 C138 2.592 . S
C441 C172 2.592 . S
C475 C206 2.592 . S
C509 C240 2.592 . S
C67 C274 2.592 . S
C101 C308 2.592 . S
C135 C342 2.592 . S
C376 C33 2.592 . S
C271 C410 2.592 . S
C169 C444 2.592 . S
C203 C478 2.592 . S
C237 C512 2.592 . S
C73 C5 0.613 . S
C39 C107 0.613 . S
C209 C141 0.613 . S
C243 C175 0.613 . S
C345 C277 0.613 . S
C379 C311 0.613 . S
C413 C481 0.613 . S
C515 C447 0.613 . S
C224 C20 1.610 1_556 S
C258 C54 1.610 . S
C88 C156 1.610 1_554 S
C190 C122 1.610 . S
C496 C292 1.610 1_554 S
C530 C326 1.610 . S
C428 C360 1.610 1_554 S
C394 C462 1.610 . S
