# Generated by pormake.
# Topology qtz-e, (6)-cn, num edge types: 1
# Building blocks:
#     Node 0, Type 0, BuildingBlock: CUKXOW_clean_sbu_0, # of connection points: 6
#     Node 1, Type 0, BuildingBlock: CUKXOW_clean_sbu_0, # of connection points: 6
#     Node 2, Type 0, BuildingBlock: CUKXOW_clean_sbu_0, # of connection points: 6
#     Node 3, Type 0, BuildingBlock: CUKXOW_clean_sbu_0, # of connection points: 6
#     Node 4, Type 0, BuildingBlock: CUKXOW_clean_sbu_0, # of connection points: 6
#     Node 5, Type 0, BuildingBlock: CUKXOW_clean_sbu_0, # of connection points: 6
#     Edge 6, Type (0, 0), BuildingBlock: ZUJKAS_clean_linker_0, # of connection points: 2
#     Edge 7, Type (0, 0), BuildingBlock: ZUJKAS_clean_linker_0, # of connection points: 2
#     Edge 8, Type (0, 0), BuildingBlock: ZUJKAS_clean_linker_0, # of connection points: 2
#     Edge 9, Type (0, 0), BuildingBlock: ZUJKAS_clean_linker_0, # of connection points: 2
#     Edge 10, Type (0, 0), BuildingBlock: ZUJKAS_clean_linker_0, # of connection points: 2
#     Edge 11, Type (0, 0), BuildingBlock: ZUJKAS_clean_linker_0, # of connection points: 2
#     Edge 12, Type (0, 0), BuildingBlock: ZUJKAS_clean_linker_0, # of connection points: 2
#     Edge 13, Type (0, 0), BuildingBlock: ZUJKAS_clean_linker_0, # of connection points: 2
#     Edge 14, Type (0, 0), BuildingBlock: ZUJKAS_clean_linker_0, # of connection points: 2
#     Edge 15, Type (0, 0), BuildingBlock: ZUJKAS_clean_linker_0, # of connection points: 2
#     Edge 16, Type (0, 0), BuildingBlock: ZUJKAS_clean_linker_0, # of connection points: 2
#     Edge 17, Type (0, 0), BuildingBlock: ZUJKAS_clean_linker_0, # of connection points: 2
#     Edge 18, Type (0, 0), BuildingBlock: ZUJKAS_clean_linker_0, # of connection points: 2
#     Edge 19, Type (0, 0), BuildingBlock: ZUJKAS_clean_linker_0, # of connection points: 2
#     Edge 20, Type (0, 0), BuildingBlock: ZUJKAS_clean_linker_0, # of connection points: 2
#     Edge 21, Type (0, 0), BuildingBlock: ZUJKAS_clean_linker_0, # of connection points: 2
#     Edge 22, Type (0, 0), BuildingBlock: ZUJKAS_clean_linker_0, # of connection points: 2
#     Edge 23, Type (0, 0), BuildingBlock: ZUJKAS_clean_linker_0, # of connection points: 2
# Relax obj value: 0.121
# Max RMSD: 0.165
# Mean RMSD: 0.165
data_MOF--net-qtz-e--node1-CUKXOW_clean_sbu_0--edge1-ZUJKAS_clean_linker_0
_symmetry_space_group_name_H-M    P1
_symmetry_Int_Tables_number       1
_symmetry_cell_setting            triclinic
loop_
_symmetry_equiv_pos_as_xyz
'x, y, z'
_cell_length_a     33.937121
_cell_length_b     33.886482
_cell_length_c     48.237609
_cell_angle_alpha  89.929456
_cell_angle_beta   90.109688
_cell_angle_gamma 120.22341
loop_
_atom_site_label
_atom_site_type_symbol
_atom_site_fract_x
_atom_site_fract_y
_atom_site_fract_z
_atom_type_partial_charge
Tb0 Tb 0.16828 0.36706 0.04148 0.0
C1 C 0.27293 0.40712 0.04728 0.0
Tb2 Tb 0.23194 0.4378 0.99844 0.0
O3 O 0.17805 0.31335 0.02253 0.0
O4 O 0.18352 0.36753 0.99923 0.0
O5 O 0.2342 0.3919 0.0611 0.0
C6 C 0.29069 0.48449 0.9578 0.0
O7 O 0.27747 0.42064 0.02101 0.0
C8 C 0.20722 0.46943 0.0405 0.0
C9 C 0.12711 0.39915 0.99225 0.0
O10 O 0.28667 0.50164 0.98092 0.0
O11 O 0.26191 0.44088 0.95766 0.0
O12 O 0.21649 0.48821 1.0161 0.0
O13 O 0.21595 0.43756 0.04082 0.0
O14 O 0.16719 0.41989 0.97951 0.0
O15 O 0.12056 0.37864 1.01679 0.0
C16 C 0.11109 0.33099 0.08414 0.0
O17 O 0.13271 0.31291 0.07239 0.0
O18 O 0.12103 0.36864 0.07151 0.0
C19 C 0.18955 0.334 0.99867 0.0
Tb20 Tb 0.78947 0.17899 0.37529 0.0
C21 C 0.85619 0.28408 0.37984 0.0
Tb22 Tb 0.78424 0.24202 0.33085 0.0
O23 O 0.85312 0.18805 0.35743 0.0
O24 O 0.80532 0.1932 0.33294 0.0
O25 O 0.8327 0.24549 0.39397 0.0
C26 C 0.79789 0.29836 0.28829 0.0
O27 O 0.84673 0.28828 0.35358 0.0
C28 C 0.72777 0.2193 0.37283 0.0
C29 C 0.71685 0.13678 0.3257 0.0
O30 O 0.77592 0.29566 0.31088 0.0
O31 O 0.8127 0.26984 0.2899 0.0
O32 O 0.71842 0.22783 0.34817 0.0
O33 O 0.76818 0.22749 0.37329 0.0
O34 O 0.73698 0.17664 0.31261 0.0
O35 O 0.72998 0.13066 0.35064 0.0
C36 C 0.76831 0.12325 0.41887 0.0
O37 O 0.74185 0.13596 0.40748 0.0
O38 O 0.80663 0.14131 0.4054 0.0
C39 C 0.84486 0.199 0.33314 0.0
Tb40 Tb 0.60789 0.79165 0.70713 0.0
C41 C 0.57652 0.86376 0.71379 0.0
Tb42 Tb 0.53556 0.79108 0.66715 0.0
O43 O 0.66155 0.85738 0.68996 0.0
O44 O 0.60554 0.81242 0.66631 0.0
O45 O 0.58933 0.83769 0.72691 0.0
C46 C 0.48527 0.7908 0.62451 0.0
O47 O 0.56219 0.85655 0.68771 0.0
C48 C 0.50588 0.75242 0.71585 0.0
C49 C 0.56857 0.71933 0.65839 0.0
O50 O 0.52397 0.82558 0.63221 0.0
O51 O 0.47503 0.75653 0.64088 0.0
O52 O 0.48724 0.77153 0.70189 0.0
O53 O 0.53661 0.75261 0.70135 0.0
O54 O 0.54786 0.74037 0.64773 0.0
O55 O 0.5915 0.73152 0.68227 0.0
C56 C 0.6438 0.77215 0.75043 0.0
O57 O 0.66041 0.77973 0.72538 0.0
O58 O 0.60754 0.77574 0.75085 0.0
C59 C 0.63991 0.85171 0.66666 0.0
Tb60 Tb 0.80621 0.60947 0.03984 0.0
C61 C 0.7061 0.59046 0.04259 0.0
Tb62 Tb 0.73643 0.54314 0.99676 0.0
O63 O 0.80598 0.66752 0.01952 0.0
O64 O 0.79361 0.60963 0.99711 0.0
O65 O 0.74463 0.60428 0.05647 0.0
C66 C 0.67899 0.50423 0.95409 0.0
O67 O 0.69785 0.57031 0.01785 0.0
C68 C 0.74993 0.50589 0.04072 0.0
C69 C 0.83601 0.56135 0.99417 0.0
O70 O 0.67934 0.4836 0.97671 0.0
O71 O 0.71043 0.54687 0.95576 0.0
O72 O 0.73866 0.48591 1.01669 0.0
O73 O 0.74937 0.54265 0.03951 0.0
O74 O 0.79821 0.54927 0.97986 0.0
O75 O 0.84428 0.58155 0.01889 0.0
C76 C 0.86088 0.64067 0.08407 0.0
O77 O 0.86502 0.66448 0.06197 0.0
O78 O 0.82666 0.59975 0.08095 0.0
C79 C 0.79418 0.64691 0.99562 0.0
Tb80 Tb 0.19702 0.81854 0.37034 0.0
C81 C 0.12015 0.71642 0.3776 0.0
Tb82 Tb 0.19105 0.74368 0.33002 0.0
O83 O 0.13272 0.81009 0.35308 0.0
O84 O 0.17571 0.79654 0.32951 0.0
O85 O 0.14811 0.75515 0.39046 0.0
C86 C 0.18242 0.69161 0.28639 0.0
O87 O 0.12606 0.70836 0.35147 0.0
C88 C 0.22895 0.74951 0.37854 0.0
C89 C 0.26945 0.84699 0.32184 0.0
O90 O 0.15178 0.70118 0.29476 0.0
O91 O 0.21771 0.7112 0.30268 0.0
O92 O 0.20789 0.71183 0.3644 0.0
O93 O 0.23099 0.78141 0.36422 0.0
O94 O 0.24642 0.80503 0.31134 0.0
O95 O 0.2579 0.8594 0.3453 0.0
C96 C 0.22048 0.87512 0.41339 0.0
O97 O 0.21103 0.88374 0.38868 0.0
O98 O 0.21669 0.83509 0.41358 0.0
C99 C 0.1377 0.79412 0.32964 0.0
Tb100 Tb 0.37103 0.19378 0.70605 0.0
C101 C 0.40033 0.12017 0.71078 0.0
Tb102 Tb 0.43961 0.1956 0.6631 0.0
O103 O 0.31552 0.13214 0.68621 0.0
O104 O 0.37139 0.18044 0.66355 0.0
O105 O 0.3849 0.14362 0.72443 0.0
C106 C 0.47871 0.17763 0.62059 0.0
O107 O 0.41799 0.13139 0.6854 0.0
C108 C 0.47462 0.24919 0.70624 0.0
C109 C 0.41167 0.27034 0.65858 0.0
O110 O 0.49973 0.2006 0.64265 0.0
O111 O 0.43575 0.16441 0.6227 0.0
O112 O 0.49428 0.25835 0.6821 0.0
O113 O 0.43976 0.21004 0.70564 0.0
O114 O 0.42839 0.24773 0.64528 0.0
O115 O 0.39091 0.25719 0.68309 0.0
C116 C 0.33734 0.21619 0.74931 0.0
O117 O 0.31296 0.18613 0.73056 0.0
O118 O 0.38011 0.23375 0.74334 0.0
C119 C 0.33599 0.14193 0.66228 0.0
H120 H 0.2452 0.67097 0.26735 0.0
H121 H 0.2414 0.62934 0.22506 0.0
H122 H 0.10832 0.60998 0.20691 0.0
H123 H 0.11185 0.65161 0.24941 0.0
H124 H 0.11792 0.5295 0.19925 0.0
H125 H 0.25274 0.68435 0.14633 0.0
H126 H 0.2682 0.67452 0.18021 0.0
H127 H 0.223 0.68719 0.17658 0.0
C128 C 0.21504 0.65768 0.25441 0.0
C129 C 0.1789 0.66465 0.26154 0.0
C130 C 0.21298 0.63403 0.23025 0.0
C131 C 0.17482 0.61707 0.21273 0.0
C132 C 0.1381 0.62292 0.22015 0.0
H133 H 0.18537 0.53649 0.04246 0.0
H134 H 0.17101 0.56932 0.08382 0.0
C135 C 0.14019 0.64671 0.24436 0.0
C136 C 0.17411 0.59434 0.18634 0.0
H137 H 0.23067 0.61311 0.12497 0.0
C138 C 0.14227 0.54774 0.18287 0.0
C139 C 0.20552 0.61842 0.16489 0.0
C140 C 0.23908 0.66899 0.16697 0.0
C141 C 0.14204 0.5242 0.1588 0.0
C142 C 0.17484 0.54794 0.13786 0.0
C143 C 0.20567 0.59486 0.14105 0.0
C144 C 0.17894 0.5249 0.11276 0.0
C145 C 0.10659 0.47427 0.156 0.0
C146 C 0.18803 0.48894 0.11525 0.0
C147 C 0.19611 0.47014 0.09167 0.0
C148 C 0.19568 0.48725 0.06519 0.0
C149 C 0.18593 0.52272 0.06264 0.0
C150 C 0.17768 0.54142 0.08623 0.0
H151 H 0.07622 0.46512 0.16905 0.0
H152 H 0.09537 0.4652 0.13414 0.0
H153 H 0.12137 0.45326 0.16303 0.0
H154 H 0.19034 0.47636 0.13548 0.0
H155 H 0.20391 0.44303 0.09425 0.0
H156 H 0.43879 0.14035 0.57104 0.0
H157 H 0.47664 0.13817 0.52826 0.0
H158 H 0.60579 0.20058 0.57108 0.0
H159 H 0.56822 0.20318 0.61388 0.0
H160 H 0.5532 0.22244 0.50385 0.0
H161 H 0.59734 0.08856 0.52726 0.0
H162 H 0.55171 0.09137 0.54471 0.0
H163 H 0.60995 0.1305 0.55386 0.0
C164 C 0.47516 0.15301 0.57141 0.0
C165 C 0.50068 0.17201 0.59572 0.0
C166 C 0.49668 0.15176 0.54699 0.0
C167 C 0.5439 0.16889 0.5466 0.0
C168 C 0.56921 0.18663 0.57108 0.0
H169 H 0.75243 0.22209 0.42678 0.0
H170 H 0.70504 0.20709 0.46794 0.0
C171 C 0.54777 0.18824 0.59545 0.0
C172 C 0.56737 0.17177 0.52017 0.0
H173 H 0.62982 0.13286 0.48678 0.0
C174 C 0.56961 0.20258 0.49993 0.0
C175 C 0.58899 0.14608 0.51534 0.0
C176 C 0.58678 0.11196 0.5363 0.0
C177 C 0.59419 0.20951 0.47526 0.0
C178 C 0.61594 0.18381 0.47034 0.0
C179 C 0.61303 0.15242 0.49048 0.0
C180 C 0.64368 0.19061 0.44506 0.0
C181 C 0.59819 0.24574 0.45533 0.0
C182 C 0.62482 0.18545 0.41842 0.0
C183 C 0.65205 0.19452 0.39482 0.0
C184 C 0.69836 0.20807 0.3975 0.0
C185 C 0.7168 0.21172 0.42411 0.0
C186 C 0.68974 0.20308 0.44765 0.0
H187 H 0.59047 0.27045 0.46555 0.0
H188 H 0.63295 0.26494 0.44631 0.0
H189 H 0.5734 0.22924 0.43817 0.0
H190 H 0.5891 0.17468 0.41585 0.0
H191 H 0.63693 0.19099 0.37452 0.0
H192 H 0.29803 0.45273 0.90727 0.0
H193 H 0.34112 0.49805 0.86698 0.0
H194 H 0.39047 0.62157 0.91487 0.0
H195 H 0.34801 0.57642 0.95523 0.0
H196 H 0.32804 0.56251 0.84092 0.0
H197 H 0.50666 0.6408 0.87771 0.0
H198 H 0.45991 0.59252 0.89479 0.0
H199 H 0.47043 0.64935 0.901 0.0
C200 C 0.31868 0.4895 0.90928 0.0
C201 C 0.31978 0.51114 0.93432 0.0
C202 C 0.34321 0.51534 0.88628 0.0
C203 C 0.36944 0.56318 0.88799 0.0
C204 C 0.37128 0.58469 0.91321 0.0
H205 H 0.44381 0.75394 0.75089 0.0
H206 H 0.41207 0.70879 0.79324 0.0
C207 C 0.34679 0.55888 0.9362 0.0
C208 C 0.39185 0.59077 0.86289 0.0
H209 H 0.49423 0.67307 0.83687 0.0
C210 C 0.36442 0.58646 0.83997 0.0
C211 C 0.43939 0.62172 0.86158 0.0
C212 C 0.47093 0.62615 0.88497 0.0
C213 C 0.38302 0.61289 0.81599 0.0
C214 C 0.43025 0.64519 0.81511 0.0
C215 C 0.45792 0.64877 0.83776 0.0
C216 C 0.45154 0.67483 0.79057 0.0
C217 C 0.35197 0.6055 0.79168 0.0
C218 C 0.48545 0.67198 0.77561 0.0
C219 C 0.50372 0.69787 0.75155 0.0
C220 C 0.48862 0.7273 0.74216 0.0
C221 C 0.45572 0.7312 0.75758 0.0
C222 C 0.43748 0.70533 0.78168 0.0
H223 H 0.32001 0.57185 0.79284 0.0
H224 H 0.34252 0.63244 0.79169 0.0
H225 H 0.36922 0.60752 0.77176 0.0
H226 H 0.49694 0.64883 0.78216 0.0
H227 H 0.52891 0.69405 0.73995 0.0
H228 H 0.76771 0.35888 0.28253 0.0
H229 H 0.76615 0.3979 0.23998 0.0
H230 H 0.83213 0.33688 0.1955 0.0
H231 H 0.83397 0.29791 0.23796 0.0
H232 H 0.84309 0.45865 0.20137 0.0
H233 H 0.70739 0.29693 0.15422 0.0
H234 H 0.7185 0.30299 0.19105 0.0
H235 H 0.75639 0.29646 0.16812 0.0
C236 C 0.78233 0.35422 0.26374 0.0
C237 C 0.80078 0.32526 0.26347 0.0
C238 C 0.78144 0.37652 0.23949 0.0
C239 C 0.79859 0.36986 0.21458 0.0
C240 C 0.81835 0.34209 0.21448 0.0
H241 H 0.77643 0.44233 0.04389 0.0
H242 H 0.7922 0.41166 0.0859 0.0
C243 C 0.8195 0.32001 0.23874 0.0
C244 C 0.79405 0.39042 0.18848 0.0
H245 H 0.73602 0.36347 0.1271 0.0
C246 C 0.81978 0.43795 0.18506 0.0
C247 C 0.76374 0.36323 0.16727 0.0
C248 C 0.7346 0.31207 0.17024 0.0
C249 C 0.81625 0.45906 0.16081 0.0
C250 C 0.78519 0.43192 0.13976 0.0
C251 C 0.75982 0.3843 0.14317 0.0
C252 C 0.77753 0.45204 0.1143 0.0
C253 C 0.84639 0.5101 0.15786 0.0
C254 C 0.76344 0.48446 0.11624 0.0
C255 C 0.75458 0.50203 0.09229 0.0
C256 C 0.75933 0.48729 0.06595 0.0
C257 C 0.77268 0.45435 0.06397 0.0
C258 C 0.78179 0.43694 0.08793 0.0
H259 H 0.87765 0.52325 0.17078 0.0
H260 H 0.85669 0.52007 0.13597 0.0
H261 H 0.82743 0.52695 0.16503 0.0
H262 H 0.7585 0.49564 0.13629 0.0
H263 H 0.74338 0.5267 0.09439 0.0
H264 H 0.5021 0.86013 0.58871 0.0
H265 H 0.45622 0.85671 0.54837 0.0
H266 H 0.36135 0.71471 0.56558 0.0
H267 H 0.4064 0.71825 0.60608 0.0
H268 H 0.43584 0.80337 0.5023 0.0
H269 H 0.27598 0.7644 0.55582 0.0
H270 H 0.32913 0.78413 0.5741 0.0
H271 H 0.29469 0.72496 0.56454 0.0
C272 C 0.47119 0.82838 0.58398 0.0
C273 C 0.45758 0.78953 0.60055 0.0
C274 C 0.44506 0.82643 0.56096 0.0
C275 C 0.40487 0.78568 0.55424 0.0
C276 C 0.39151 0.74684 0.57075 0.0
H277 H 0.21895 0.68337 0.41487 0.0
H278 H 0.26151 0.69375 0.45813 0.0
C279 C 0.41747 0.74881 0.59378 0.0
C280 C 0.37814 0.78293 0.52918 0.0
H281 H 0.27105 0.75299 0.5067 0.0
C282 C 0.39994 0.79284 0.5033 0.0
C283 C 0.33125 0.76914 0.5305 0.0
C284 C 0.30648 0.76049 0.55776 0.0
C285 C 0.37584 0.78807 0.47866 0.0
C286 C 0.32882 0.77335 0.47998 0.0
C287 C 0.30707 0.76398 0.50582 0.0
C288 C 0.30172 0.76733 0.45461 0.0
C289 C 0.40053 0.79769 0.45131 0.0
C290 C 0.30981 0.80533 0.43868 0.0
C291 C 0.28563 0.79948 0.41411 0.0
C292 C 0.25286 0.75553 0.40512 0.0
C293 C 0.24417 0.71756 0.42133 0.0
C294 C 0.2683 0.72346 0.44601 0.0
H295 H 0.43441 0.80043 0.45348 0.0
H296 H 0.37993 0.77042 0.43605 0.0
H297 H 0.40577 0.83046 0.44284 0.0
H298 H 0.33514 0.83948 0.44515 0.0
H299 H 0.29317 0.82932 0.40189 0.0
H300 H 0.61453 0.41447 0.9477 0.0
H301 H 0.57606 0.37553 0.90466 0.0
H302 H 0.64453 0.50381 0.86083 0.0
H303 H 0.68311 0.54298 0.90381 0.0
H304 H 0.51971 0.39367 0.86528 0.0
H305 H 0.6811 0.41735 0.8202 0.0
H306 H 0.6745 0.42316 0.85685 0.0
H307 H 0.68244 0.46767 0.83335 0.0
C308 C 0.62091 0.43442 0.92896 0.0
C309 C 0.65195 0.48165 0.92901 0.0
C310 C 0.59894 0.41217 0.90442 0.0
C311 C 0.60792 0.43671 0.87953 0.0
C312 C 0.63758 0.48418 0.87977 0.0
H313 H 0.53776 0.33995 0.70871 0.0
H314 H 0.5678 0.3877 0.75032 0.0
C315 C 0.65942 0.50651 0.90433 0.0
C316 C 0.58786 0.41221 0.85316 0.0
H317 H 0.61529 0.38019 0.79244 0.0
C318 C 0.54053 0.3908 0.84927 0.0
C319 C 0.61519 0.40868 0.83233 0.0
C320 C 0.66611 0.4301 0.8358 0.0
C321 C 0.51974 0.36602 0.82498 0.0
C322 C 0.54696 0.36156 0.80437 0.0
C323 C 0.59441 0.38359 0.80818 0.0
C324 C 0.52702 0.3331 0.77911 0.0
C325 C 0.46893 0.34543 0.82155 0.0
C326 C 0.49453 0.28643 0.78141 0.0
C327 C 0.47734 0.25925 0.75769 0.0
C328 C 0.49253 0.27812 0.73122 0.0
C329 C 0.52539 0.32463 0.72889 0.0
C330 C 0.54246 0.35189 0.75262 0.0
H331 H 0.45587 0.3638 0.83417 0.0
H332 H 0.45962 0.34595 0.79953 0.0
H333 H 0.45154 0.30944 0.82874 0.0
H334 H 0.48306 0.27076 0.80158 0.0
H335 H 0.45263 0.22328 0.76011 0.0
H336 H 0.34803 0.40765 0.02771 0.0
H337 H 0.42232 0.44086 0.05052 0.0
H338 H 0.36643 0.46687 0.12385 0.0
H339 H 0.29145 0.43242 0.10137 0.0
H340 H 0.44176 0.54624 0.09341 0.0
H341 H 0.48137 0.41078 0.11925 0.0
H342 H 0.45147 0.40112 0.08691 0.0
H343 H 0.42382 0.40112 0.11869 0.0
C344 C 0.35126 0.41903 0.049 0.0
C345 C 0.31432 0.41771 0.06278 0.0
C346 C 0.3935 0.4377 0.06207 0.0
C347 C 0.39948 0.45588 0.08889 0.0
C348 C 0.36209 0.45237 0.1033 0.0
H349 H 0.69326 0.58869 0.09836 0.0
H350 H 0.62176 0.56849 0.1219 0.0
C351 C 0.31945 0.43272 0.09043 0.0
C352 C 0.44626 0.48548 0.09901 0.0
H353 H 0.54511 0.48346 0.10374 0.0
C354 C 0.46443 0.53283 0.09688 0.0
C355 C 0.47541 0.46786 0.10391 0.0
C356 C 0.45699 0.41739 0.10761 0.0
C357 C 0.51164 0.56247 0.09558 0.0
C358 C 0.54067 0.54396 0.09654 0.0
C359 C 0.52261 0.4975 0.10272 0.0
C360 C 0.58668 0.56842 0.08445 0.0
C361 C 0.52994 0.61263 0.09055 0.0
C362 C 0.59072 0.57623 0.05573 0.0
C363 C 0.63105 0.58685 0.04215 0.0
C364 C 0.66801 0.59023 0.05718 0.0
C365 C 0.66529 0.58649 0.08627 0.0
C366 C 0.62458 0.57502 0.09979 0.0
H367 H 0.50692 0.62374 0.09946 0.0
H368 H 0.56454 0.63357 0.09963 0.0
H369 H 0.53221 0.61907 0.06789 0.0
H370 H 0.56147 0.57043 0.04348 0.0
H371 H 0.63238 0.58975 0.01975 0.0
H372 H 0.11811 0.70427 0.43369 0.0
H373 H 0.0698 0.63289 0.45878 0.0
H374 H -0.00412 0.57133 0.38332 0.0
H375 H 0.04366 0.64212 0.35822 0.0
H376 H 0.94194 0.54395 0.43562 0.0
H377 H 0.09906 0.53009 0.43692 0.0
H378 H 0.09934 0.57881 0.45206 0.0
H379 H 0.09635 0.57193 0.41511 0.0
C380 C 0.09053 0.67596 0.42269 0.0
C381 C 0.08497 0.67832 0.39391 0.0
C382 C 0.06314 0.63529 0.43706 0.0
C383 C 0.0298 0.59695 0.42278 0.0
C384 C 0.02151 0.60072 0.39467 0.0
H385 H 0.92372 0.36302 0.35775 0.0
H386 H 0.96873 0.43587 0.38153 0.0
C387 C 0.04898 0.64104 0.3803 0.0
C388 C 0.00848 0.55084 0.43489 0.0
H389 H 0.02865 0.46202 0.43465 0.0
C390 C 0.96082 0.52599 0.43686 0.0
C391 C 0.0335 0.52783 0.43659 0.0
C392 C 0.08492 0.55327 0.4351 0.0
C393 C 0.93722 0.47815 0.43667 0.0
C394 C 0.96222 0.45528 0.43439 0.0
C395 C 0.00985 0.48001 0.43629 0.0
C396 C 0.94078 0.40935 0.42213 0.0
C397 C 0.88582 0.45254 0.43533 0.0
C398 C 0.91146 0.3703 0.43739 0.0
C399 C 0.88581 0.32844 0.42383 0.0
C400 C 0.88894 0.32558 0.39486 0.0
C401 C 0.92036 0.36433 0.38002 0.0
C402 C 0.9462 0.40584 0.39359 0.0
H403 H 0.87149 0.47519 0.43903 0.0
H404 H 0.87445 0.4365 0.41459 0.0
H405 H 0.87168 0.42482 0.45102 0.0
H406 H 0.90698 0.37262 0.45944 0.0
H407 H 0.86172 0.29906 0.43578 0.0
H408 H 0.40211 0.04697 0.68938 0.0
H409 H 0.4272 -0.00025 0.71317 0.0
H410 H 0.43873 0.07003 0.7899 0.0
H411 H 0.4126 0.11687 0.76633 0.0
H412 H 0.52202 0.07548 0.76758 0.0
H413 H 0.37829 0.89791 0.77481 0.0
H414 H 0.37901 0.92471 0.74251 0.0
H415 H 0.37042 0.94694 0.77436 0.0
C416 C 0.40854 0.05131 0.71149 0.0
C417 C 0.40562 0.08554 0.726 0.0
C418 C 0.42255 0.02418 0.7251 0.0
C419 C 0.43437 0.0313 0.7533 0.0
C420 C 0.42912 0.06375 0.76823 0.0
H421 H 0.5555 0.86026 0.76847 0.0
H422 H 0.52916 0.90705 0.79177 0.0
C423 C 0.41418 0.09035 0.75472 0.0
C424 C 0.45967 0.01048 0.76509 0.0
H425 H 0.45338 0.90719 0.76625 0.0
C426 C 0.50694 0.03866 0.76848 0.0
C427 C 0.43982 0.96266 0.76672 0.0
C428 C 0.38897 0.93127 0.76469 0.0
C429 C 0.53547 0.01994 0.76952 0.0
C430 C 0.51594 0.97221 0.76711 0.0
C431 C 0.46833 0.94393 0.76779 0.0
C432 C 0.54266 0.95199 0.75676 0.0
C433 C 0.58639 0.05143 0.77055 0.0
C434 C 0.55988 0.96263 0.72965 0.0
C435 C 0.57402 0.9356 0.71617 0.0
C436 C 0.57162 0.89788 0.72974 0.0
C437 C 0.558 0.88949 0.75766 0.0
C438 C 0.543 0.9161 0.77101 0.0
H439 H 0.5953 0.08337 0.78191 0.0
H440 H 0.6036 0.03464 0.78064 0.0
H441 H 0.59964 0.06096 0.7491 0.0
H442 H 0.55898 0.98963 0.71812 0.0
H443 H 0.58447 0.94271 0.69467 0.0
H444 H 0.5929 0.65818 0.67656 0.0
H445 H 0.56793 0.5828 0.65746 0.0
H446 H 0.50425 0.61114 0.5888 0.0
H447 H 0.5286 0.68662 0.60793 0.0
H448 H 0.44474 0.53649 0.61688 0.0
H449 H 0.59686 0.52366 0.59429 0.0
H450 H 0.6024 0.54846 0.62789 0.0
H451 H 0.59938 0.57803 0.59756 0.0
C452 C 0.57476 0.64901 0.65698 0.0
C453 C 0.56213 0.67811 0.64402 0.0
C454 C 0.56083 0.60598 0.64593 0.0
C455 C 0.53458 0.59158 0.62158 0.0
C456 C 0.52469 0.62177 0.60753 0.0
H457 H 0.44172 0.30175 0.60623 0.0
H458 H 0.46347 0.37704 0.58768 0.0
C459 C 0.53852 0.66481 0.6186 0.0
C460 C 0.51116 0.54282 0.61396 0.0
H461 H 0.52989 0.45331 0.61115 0.0
C462 C 0.46329 0.51832 0.61472 0.0
C463 C 0.5352 0.5192 0.6105 0.0
C464 C 0.58631 0.5439 0.6072 0.0
C465 C 0.43914 0.47053 0.61522 0.0
C466 C 0.46368 0.44707 0.61544 0.0
C467 C 0.51112 0.47143 0.61152 0.0
C468 C 0.44233 0.39884 0.62403 0.0
C469 C 0.38781 0.44578 0.61697 0.0
C470 C 0.42239 0.38594 0.6504 0.0
C471 C 0.40994 0.34301 0.66112 0.0
C472 C 0.41783 0.31254 0.64573 0.0
C473 C 0.43559 0.32465 0.61873 0.0
C474 C 0.44787 0.36755 0.608 0.0
H475 H 0.37401 0.46514 0.60605 0.0
H476 H 0.37222 0.41098 0.60791 0.0
H477 H 0.37748 0.44271 0.63904 0.0
H478 H 0.41888 0.41003 0.66341 0.0
H479 H 0.39648 0.33478 0.68199 0.0
H480 H 0.12229 0.42558 0.93935 0.0
H481 H 0.06799 0.44716 0.92203 0.0
H482 H -0.00653 0.40252 0.99892 0.0
H483 H 0.04678 0.38005 1.01619 0.0
H484 H 0.93784 0.38749 0.95207 0.0
H485 H 0.08606 0.56531 0.9573 0.0
H486 H 0.09047 0.52576 0.93454 0.0
H487 H 0.08886 0.5175 0.97139 0.0
C488 C 0.09368 0.41933 0.95231 0.0
C489 C 0.08932 0.40212 0.9794 0.0
C490 C 0.06277 0.43169 0.94235 0.0
C491 C 0.02757 0.4274 0.95949 0.0
C492 C 0.02066 0.40623 0.98545 0.0
H493 H 0.91038 0.56689 0.01975 0.0
H494 H 0.95823 0.53755 1.0026 0.0
C495 C 0.05125 0.39351 0.99533 0.0
C496 C 0.00194 0.45061 0.95271 0.0
H497 H 0.01357 0.55657 0.95452 0.0
C498 C 0.95423 0.42445 0.9518 0.0
C499 C 0.02383 0.49889 0.95253 0.0
C500 C 0.07508 0.52872 0.95413 0.0
C501 C 0.92759 0.44528 0.95299 0.0
C502 C 0.94955 0.49343 0.95465 0.0
C503 C -0.00284 0.51966 0.95322 0.0
C504 C 0.92437 0.51645 0.96278 0.0
C505 C 0.87639 0.41558 0.95484 0.0
C506 C 0.89063 0.51556 0.94563 0.0
C507 C 0.86303 0.53208 0.95544 0.0
C508 C 0.86906 0.54992 0.98246 0.0
C509 C 0.90477 0.55326 0.9989 0.0
C510 C 0.93217 0.53657 0.98912 0.0
H511 H 0.86527 0.37872 0.95654 0.0
H512 H 0.86329 0.42541 0.97307 0.0
H513 H 0.86055 0.42048 0.93599 0.0
H514 H 0.88474 0.5008 0.92507 0.0
H515 H 0.83612 0.52956 0.94212 0.0
H516 H 0.33283 0.93261 0.33922 0.0
H517 H 0.40922 0.98031 0.32071 0.0
H518 H 0.37954 0.88405 0.25433 0.0
H519 H 0.30298 0.83565 0.27284 0.0
H520 H 0.45327 0.89923 0.284 0.0
H521 H 0.47047 0.06472 0.25574 0.0
H522 H 0.44481 0.04745 0.2893 0.0
H523 H 0.41555 0.01336 0.25935 0.0
C524 C 0.34199 0.92209 0.32027 0.0
C525 C 0.31203 0.88002 0.30777 0.0
C526 C 0.38561 0.94964 0.30955 0.0
C527 C 0.39982 0.93586 0.286 0.0
C528 C 0.36905 0.89533 0.27244 0.0
H529 H 0.68921 0.13145 0.27198 0.0
H530 H 0.6154 0.07566 0.25256 0.0
C531 C 0.32538 0.8677 0.28315 0.0
C532 C 0.44863 0.96003 0.27869 0.0
H533 H 0.53957 0.06772 0.27398 0.0
C534 C 0.47217 0.93593 0.28091 0.0
C535 C 0.47315 0.00759 0.27399 0.0
C536 C 0.44951 0.0346 0.26914 0.0
C537 C 0.51988 0.95899 0.28168 0.0
C538 C 0.54423 0.00717 0.28066 0.0
C539 C 0.52082 0.03073 0.27527 0.0
C540 C 0.59226 0.03416 0.28961 0.0
C541 C 0.54357 0.93172 0.28504 0.0
C542 C 0.60417 0.02843 0.31661 0.0
C543 C 0.6463 0.0602 0.3278 0.0
C544 C 0.67685 0.09854 0.31228 0.0
C545 C 0.66612 0.1025 0.28459 0.0
C546 C 0.62407 0.07058 0.27338 0.0
H547 H 0.52396 0.89798 0.27467 0.0
H548 H 0.57862 0.95009 0.27637 0.0
H549 H 0.54571 0.92535 0.30741 0.0
H550 H 0.5797 0.00118 0.32976 0.0
H551 H 0.65352 0.05627 0.34919 0.0
H552 H 0.2491 0.19035 0.76237 0.0
H553 H 0.22199 0.20913 0.80481 0.0
H554 H 0.36003 0.28289 0.83581 0.0
H555 H 0.38714 0.26546 0.79326 0.0
H556 H 0.22639 0.189 0.85849 0.0
H557 H 0.32226 0.37686 0.84497 0.0
H558 H 0.31685 0.33821 0.81761 0.0
H559 H 0.3587 0.35276 0.84459 0.0
C560 C 0.27354 0.21088 0.7782 0.0
C561 C 0.32022 0.22705 0.77449 0.0
C562 C 0.25809 0.22148 0.80242 0.0
C563 C 0.28911 0.24822 0.82326 0.0
C564 C 0.33563 0.2634 0.81972 0.0
H565 H 0.22127 0.27423 0.99477 0.0
H566 H 0.24461 0.25132 0.95236 0.0
C567 C 0.35107 0.25328 0.79546 0.0
C568 C 0.27293 0.2597 0.8489 0.0
H569 H 0.28889 0.34923 0.88929 0.0
C570 C 0.23982 0.22404 0.86517 0.0
C571 C 0.29015 0.30546 0.85744 0.0
C572 C 0.3236 0.34551 0.8401 0.0
C573 C 0.22385 0.23285 0.88992 0.0
C574 C 0.24234 0.27853 0.89896 0.0
C575 C 0.2751 0.31417 0.88252 0.0
C576 C 0.22703 0.29061 0.92475 0.0
C577 C 0.18666 0.19323 0.90579 0.0
C578 C 0.21025 0.32088 0.92339 0.0
C579 C 0.19767 0.33439 0.94748 0.0
C580 C 0.20156 0.31792 0.97346 0.0
C581 C 0.21774 0.28715 0.97493 0.0
C582 C 0.23079 0.27389 0.95073 0.0
H583 H 0.16776 0.16254 0.89245 0.0
H584 H 0.20212 0.18412 0.92313 0.0
H585 H 0.16198 0.2022 0.91461 0.0
H586 H 0.20702 0.33423 0.90362 0.0
H587 H 0.18481 0.35777 0.94574 0.0
H588 H 0.81993 0.1974 0.27949 0.0
H589 H 0.86809 0.21783 0.23835 0.0
H590 H 0.98302 0.24326 0.28945 0.0
H591 H 0.93499 0.22434 0.33102 0.0
H592 H 0.0041 0.31142 0.25091 0.0
H593 H 0.91394 0.14175 0.20037 0.0
H594 H 0.87643 0.16271 0.20916 0.0
H595 H 0.905 0.15014 0.23625 0.0
C596 C 0.85556 0.20776 0.282 0.0
C597 C 0.87396 0.20987 0.30842 0.0
C598 C 0.88288 0.21879 0.25843 0.0
C599 C 0.92895 0.23136 0.26079 0.0
C600 C 0.94745 0.23339 0.28719 0.0
H601 H 0.0945 0.25736 0.11574 0.0
H602 H 0.05263 0.23331 0.15969 0.0
C603 C 0.92007 0.22249 0.31086 0.0
C604 C 0.9579 0.24376 0.23568 0.0
H605 H 0.96478 0.20463 0.17173 0.0
C606 C -0.00418 0.28796 0.23369 0.0
C607 C 0.94739 0.21288 0.2134 0.0
C608 C 0.90875 0.16408 0.21496 0.0
C609 C 0.02266 0.30267 0.20962 0.0
C610 C 0.01062 0.27257 0.18676 0.0
C611 C 0.97363 0.22786 0.18913 0.0
C612 C 0.03561 0.28691 0.16007 0.0
C613 C 0.06378 0.35019 0.20904 0.0
C614 C 0.03907 0.32436 0.14544 0.0
C615 C 0.06307 0.33819 0.12049 0.0
C616 C 0.08345 0.31439 0.10953 0.0
C617 C 0.079 0.2762 0.12376 0.0
C618 C 0.0552 0.26253 0.14884 0.0
H619 H 0.0762 0.3631 0.2303 0.0
H620 H 0.09214 0.35117 0.19703 0.0
H621 H 0.05428 0.3738 0.1991 0.0
H622 H 0.02322 0.34295 0.15331 0.0
H623 H 0.06596 0.36775 0.10989 0.0
H624 H 0.71354 0.93849 0.66342 0.0
H625 H 0.74025 0.98806 0.62225 0.0
H626 H 0.62876 0.88368 0.57465 0.0
H627 H 0.60296 0.83393 0.61521 0.0
H628 H 0.71115 0.91913 0.54788 0.0
H629 H 0.68317 0.05752 0.58663 0.0
H630 H 0.71821 0.04447 0.60835 0.0
H631 H 0.6591 0.00259 0.60346 0.0
C632 C 0.69476 0.92638 0.64416 0.0
C633 C 0.65595 0.88265 0.64253 0.0
C634 C 0.70984 0.95473 0.62074 0.0
C635 C 0.68612 0.93975 0.59548 0.0
C636 C 0.64745 0.89601 0.59394 0.0
H637 H 0.69021 0.0872 0.44899 0.0
H638 H 0.67274 0.04316 0.49202 0.0
C639 C 0.63256 0.86775 0.6172 0.0
C640 C 0.7018 0.96873 0.57027 0.0
H641 H 0.71709 0.0682 0.54247 0.0
C642 C 0.71268 0.95184 0.54671 0.0
C643 C 0.70321 0.0111 0.56874 0.0
C644 C 0.68996 0.02997 0.59303 0.0
C645 C 0.72454 0.97595 0.52155 0.0
C646 C 0.72645 0.01858 0.52009 0.0
C647 C 0.71591 0.03565 0.54372 0.0
C648 C 0.73742 0.04508 0.49393 0.0
C649 C 0.73339 0.95481 0.49655 0.0
C650 C 0.77967 0.06097 0.48079 0.0
C651 C 0.78958 0.08586 0.45608 0.0
C652 C 0.75751 0.09552 0.44429 0.0
C653 C 0.7154 0.0799 0.45755 0.0
C654 C 0.70548 0.05495 0.48217 0.0
H655 H 0.71959 0.91757 0.49933 0.0
H656 H 0.71798 0.96013 0.47761 0.0
H657 H 0.77071 0.97119 0.49323 0.0
H658 H 0.80516 0.05451 0.48978 0.0
H659 H 0.82246 0.09794 0.44639 0.0
H660 H 0.72007 0.76409 0.75384 0.0
H661 H 0.74899 0.74409 0.79516 0.0
H662 H 0.6378 0.73515 0.84331 0.0
H663 H 0.60866 0.75451 0.80229 0.0
H664 H 0.77497 0.78952 0.84768 0.0
H665 H 0.6303 0.61172 0.85718 0.0
H666 H 0.64094 0.64511 0.82598 0.0
H667 H 0.61359 0.6542 0.85516 0.0
C668 C 0.70188 0.75775 0.77326 0.0
C669 C 0.66212 0.76066 0.77491 0.0
C670 C 0.7184 0.74644 0.7968 0.0
C671 C 0.69515 0.73759 0.82217 0.0
C672 C 0.65578 0.74107 0.82383 0.0
H673 H 0.7752 0.71609 0.99052 0.0
H674 H 0.75405 0.7409 0.94783 0.0
C675 C 0.63933 0.75235 0.80041 0.0
C676 C 0.71205 0.72505 0.84707 0.0
H677 H 0.68216 0.64049 0.89504 0.0
C678 C 0.75482 0.75691 0.858 0.0
C679 C 0.68571 0.68234 0.86036 0.0
C680 C 0.64025 0.64616 0.84898 0.0
C681 C 0.77155 0.74745 0.88226 0.0
C682 C 0.74471 0.70523 0.89585 0.0
C683 C 0.70236 0.67306 0.88466 0.0
C684 C 0.76047 0.69298 0.9213 0.0
C685 C 0.81796 0.78229 0.89309 0.0
C686 C 0.77129 0.6582 0.92034 0.0
C687 C 0.78362 0.64437 0.94448 0.0
C688 C 0.78445 0.66444 0.9701 0.0
C689 C 0.77466 0.70004 0.97101 0.0
C690 C 0.76265 0.71419 0.94671 0.0
H691 H 0.83726 0.81027 0.87797 0.0
H692 H 0.81392 0.79746 0.9125 0.0
H693 H 0.83822 0.76573 0.8981 0.0
H694 H 0.76987 0.64152 0.90091 0.0
H695 H 0.79201 0.61754 0.94313 0.0
H696 H 0.15781 0.7819 0.2774 0.0
H697 H 0.10796 0.75643 0.23697 0.0
H698 H -0.00195 0.74757 0.28652 0.0
H699 H 0.04853 0.77384 0.32736 0.0
H700 H 0.0294 0.67628 0.22926 0.0
H701 H -0.00138 0.82202 0.21984 0.0
H702 H 0.04274 0.824 0.24176 0.0
H703 H 0.98433 0.79398 0.25297 0.0
C704 C 0.123 0.77454 0.27974 0.0
C705 C 0.10686 0.77961 0.3055 0.0
C706 C 0.09459 0.76007 0.25658 0.0
C707 C 0.04942 0.75051 0.25862 0.0
C708 C 0.03307 0.75559 0.28437 0.0
H709 H 0.84633 0.59468 0.13231 0.0
H710 H 0.89096 0.62102 0.17503 0.0
C711 C 0.06175 0.77035 0.30767 0.0
C712 C 0.0197 0.73405 0.23374 0.0
H713 H 0.95844 0.76034 0.18876 0.0
C714 C 0.01377 0.69459 0.22044 0.0
C715 C -6e-05 0.75839 0.22206 0.0
C716 C 0.00695 0.80218 0.23469 0.0
C717 C -0.01124 0.67882 0.19574 0.0
C718 C 0.96819 0.7026 0.18434 0.0
C719 C 0.97407 0.74207 0.19762 0.0
C720 C 0.94062 0.6871 0.15857 0.0
C721 C 0.98571 0.63754 0.18172 0.0
C722 C 0.9529 0.716 0.13534 0.0
C723 C 0.92711 0.7011 0.11092 0.0
C724 C 0.88871 0.65712 0.10945 0.0
C725 C 0.87619 0.62853 0.13281 0.0
C726 C 0.90172 0.64348 0.15719 0.0
H727 H 0.01354 0.63152 0.18855 0.0
H728 H 0.95278 0.60682 0.18719 0.0
H729 H -0.01271 0.64136 0.15882 0.0
H730 H 0.98269 0.7499 0.13603 0.0
H731 H 0.93727 0.72383 0.09322 0.0
H732 H 0.36178 0.17209 0.60983 0.0
H733 H 0.33947 0.12733 0.56714 0.0
H734 H 0.25007 0.00601 0.61375 0.0
H735 H 0.27275 0.05097 0.65687 0.0
H736 H 0.35152 0.05273 0.55608 0.0
H737 H 0.16944 0.00562 0.549 0.0
H738 H 0.21003 0.05132 0.5709 0.0
H739 H 0.18661 -0.00706 0.58153 0.0
C740 C 0.33733 0.13585 0.61101 0.0
C741 C 0.31938 0.11477 0.63664 0.0
C742 C 0.32451 0.1104 0.58659 0.0
C743 C 0.29297 0.06345 0.58725 0.0
C744 C 0.27403 0.04237 0.61277 0.0
H745 H 0.24877 0.86187 0.46324 0.0
H746 H 0.26715 0.90919 0.50481 0.0
C747 C 0.28702 0.06795 0.63734 0.0
C748 C 0.28194 0.03659 0.56129 0.0
H749 H 0.19545 0.9717 0.51622 0.0
C750 C 0.31741 0.03503 0.54734 0.0
C751 C 0.23756 0.01409 0.54979 0.0
C752 C 0.19869 0.01623 0.56338 0.0
C753 C 0.30951 0.01091 0.5224 0.0
C754 C 0.26492 0.98749 0.51125 0.0
C755 C 0.22957 0.98962 0.52492 0.0
C756 C 0.25416 0.95943 0.48584 0.0
C757 C 0.34897 0.01091 0.50803 0.0
C758 C 0.24036 0.97185 0.46148 0.0
C759 C 0.22997 0.9449 0.43759 0.0
C760 C 0.23273 0.90493 0.43794 0.0
C761 C 0.24641 0.89257 0.46239 0.0
C762 C 0.25705 0.9196 0.48612 0.0
H763 H 0.38237 0.03868 0.51577 0.0
H764 H 0.3473 0.97781 0.51192 0.0
H765 H 0.34723 0.01485 0.48528 0.0
H766 H 0.23781 0.00246 0.46095 0.0
H767 H 0.21934 0.95501 0.41901 0.0
loop_
_geom_bond_atom_site_label_1
_geom_bond_atom_site_label_2
_geom_bond_distance
_geom_bond_site_symmetry_2
_ccdc_geom_bond_type
Tb0 O3 2.453 1_554 S
Tb0 O4 2.596 1_554 S
Tb0 O5 2.374 . S
Tb0 O13 2.343 . S
Tb0 O15 2.353 1_554 S
Tb0 O17 2.427 . S
Tb0 O18 2.513 . S
C1 O5 1.251 . S
C1 O7 1.263 . S
Tb2 O4 2.343 . S
Tb2 O7 2.353 1_556 S
Tb2 O10 2.427 . S
Tb2 O11 2.513 . S
Tb2 O12 2.453 1_556 S
Tb2 O13 2.596 1_556 S
Tb2 O14 2.374 . S
O3 Tb0 2.453 1_556 S
O3 C19 1.245 . S
O4 Tb0 2.596 1_556 S
O4 Tb2 2.343 . S
O4 C19 1.259 . S
O5 Tb0 2.374 . S
O5 C1 1.251 . S
C6 O10 1.275 . S
C6 O11 1.246 . S
O7 C1 1.263 . S
O7 Tb2 2.353 1_554 S
C8 O12 1.245 . S
C8 O13 1.259 . S
C9 O14 1.250 . S
C9 O15 1.263 . S
O10 Tb2 2.427 . S
O10 C6 1.275 . S
O11 Tb2 2.513 . S
O11 C6 1.246 . S
O12 Tb2 2.453 1_554 S
O12 C8 1.245 . S
O13 Tb0 2.343 . S
O13 Tb2 2.596 1_554 S
O13 C8 1.259 . S
O14 Tb2 2.374 . S
O14 C9 1.250 . S
O15 Tb0 2.353 1_556 S
O15 C9 1.263 . S
C16 O17 1.275 . S
C16 O18 1.246 . S
O17 Tb0 2.427 . S
O17 C16 1.275 . S
O18 Tb0 2.513 . S
O18 C16 1.246 . S
C19 O3 1.245 . S
C19 O4 1.259 . S
Tb20 O23 2.453 . S
Tb20 O24 2.596 . S
Tb20 O25 2.374 . S
Tb20 O33 2.343 . S
Tb20 O35 2.353 . S
Tb20 O37 2.427 . S
Tb20 O38 2.513 . S
C21 O25 1.251 . S
C21 O27 1.263 . S
Tb22 O24 2.343 . S
Tb22 O27 2.353 . S
Tb22 O30 2.427 . S
Tb22 O31 2.513 . S
Tb22 O32 2.453 . S
Tb22 O33 2.596 . S
Tb22 O34 2.374 . S
O23 Tb20 2.453 . S
O23 C39 1.245 . S
O24 Tb20 2.596 . S
O24 Tb22 2.343 . S
O24 C39 1.259 . S
O25 Tb20 2.374 . S
O25 C21 1.251 . S
C26 O30 1.275 . S
C26 O31 1.246 . S
O27 C21 1.263 . S
O27 Tb22 2.353 . S
C28 O32 1.245 . S
C28 O33 1.259 . S
C29 O34 1.250 . S
C29 O35 1.263 . S
O30 Tb22 2.427 . S
O30 C26 1.275 . S
O31 Tb22 2.513 . S
O31 C26 1.246 . S
O32 Tb22 2.453 . S
O32 C28 1.245 . S
O33 Tb20 2.343 . S
O33 Tb22 2.596 . S
O33 C28 1.259 . S
O34 Tb22 2.374 . S
O34 C29 1.250 . S
O35 Tb20 2.353 . S
O35 C29 1.263 . S
C36 O37 1.275 . S
C36 O38 1.246 . S
O37 Tb20 2.427 . S
O37 C36 1.275 . S
O38 Tb20 2.513 . S
O38 C36 1.246 . S
C39 O23 1.245 . S
C39 O24 1.259 . S
Tb40 O43 2.453 . S
Tb40 O44 2.596 . S
Tb40 O45 2.374 . S
Tb40 O53 2.343 . S
Tb40 O55 2.353 . S
Tb40 O57 2.427 . S
Tb40 O58 2.513 . S
C41 O45 1.251 . S
C41 O47 1.263 . S
Tb42 O44 2.343 . S
Tb42 O47 2.353 . S
Tb42 O50 2.427 . S
Tb42 O51 2.513 . S
Tb42 O52 2.453 . S
Tb42 O53 2.596 . S
Tb42 O54 2.374 . S
O43 Tb40 2.453 . S
O43 C59 1.245 . S
O44 Tb40 2.596 . S
O44 Tb42 2.343 . S
O44 C59 1.259 . S
O45 Tb40 2.374 . S
O45 C41 1.251 . S
C46 O50 1.275 . S
C46 O51 1.246 . S
O47 C41 1.263 . S
O47 Tb42 2.353 . S
C48 O52 1.245 . S
C48 O53 1.259 . S
C49 O54 1.250 . S
C49 O55 1.263 . S
O50 Tb42 2.427 . S
O50 C46 1.275 . S
O51 Tb42 2.513 . S
O51 C46 1.246 . S
O52 Tb42 2.453 . S
O52 C48 1.245 . S
O53 Tb40 2.343 . S
O53 Tb42 2.596 . S
O53 C48 1.259 . S
O54 Tb42 2.374 . S
O54 C49 1.250 . S
O55 Tb40 2.353 . S
O55 C49 1.263 . S
C56 O57 1.275 . S
C56 O58 1.246 . S
O57 Tb40 2.427 . S
O57 C56 1.275 . S
O58 Tb40 2.513 . S
O58 C56 1.246 . S
C59 O43 1.245 . S
C59 O44 1.259 . S
Tb60 O63 2.453 1_554 S
Tb60 O64 2.596 1_554 S
Tb60 O65 2.374 . S
Tb60 O73 2.343 . S
Tb60 O75 2.353 1_554 S
Tb60 O77 2.427 . S
Tb60 O78 2.513 . S
C61 O65 1.251 . S
C61 O67 1.263 . S
Tb62 O64 2.343 . S
Tb62 O67 2.353 1_556 S
Tb62 O70 2.427 . S
Tb62 O71 2.513 . S
Tb62 O72 2.453 1_556 S
Tb62 O73 2.596 1_556 S
Tb62 O74 2.374 . S
O63 Tb60 2.453 1_556 S
O63 C79 1.245 . S
O64 Tb60 2.596 1_556 S
O64 Tb62 2.343 . S
O64 C79 1.259 . S
O65 Tb60 2.374 . S
O65 C61 1.251 . S
C66 O70 1.275 . S
C66 O71 1.246 . S
O67 C61 1.263 . S
O67 Tb62 2.353 1_554 S
C68 O72 1.245 . S
C68 O73 1.259 . S
C69 O74 1.250 . S
C69 O75 1.263 . S
O70 Tb62 2.427 . S
O70 C66 1.275 . S
O71 Tb62 2.513 . S
O71 C66 1.246 . S
O72 Tb62 2.453 1_554 S
O72 C68 1.245 . S
O73 Tb60 2.343 . S
O73 Tb62 2.596 1_554 S
O73 C68 1.259 . S
O74 Tb62 2.374 . S
O74 C69 1.250 . S
O75 Tb60 2.353 1_556 S
O75 C69 1.263 . S
C76 O77 1.275 . S
C76 O78 1.246 . S
O77 Tb60 2.427 . S
O77 C76 1.275 . S
O78 Tb60 2.513 . S
O78 C76 1.246 . S
C79 O63 1.245 . S
C79 O64 1.259 . S
Tb80 O83 2.453 . S
Tb80 O84 2.596 . S
Tb80 O85 2.374 . S
Tb80 O93 2.343 . S
Tb80 O95 2.353 . S
Tb80 O97 2.427 . S
Tb80 O98 2.513 . S
C81 O85 1.251 . S
C81 O87 1.263 . S
Tb82 O84 2.343 . S
Tb82 O87 2.353 . S
Tb82 O90 2.427 . S
Tb82 O91 2.513 . S
Tb82 O92 2.453 . S
Tb82 O93 2.596 . S
Tb82 O94 2.374 . S
O83 Tb80 2.453 . S
O83 C99 1.245 . S
O84 Tb80 2.596 . S
O84 Tb82 2.343 . S
O84 C99 1.259 . S
O85 Tb80 2.374 . S
O85 C81 1.251 . S
C86 O90 1.275 . S
C86 O91 1.246 . S
O87 C81 1.263 . S
O87 Tb82 2.353 . S
C88 O92 1.245 . S
C88 O93 1.259 . S
C89 O94 1.250 . S
C89 O95 1.263 . S
O90 Tb82 2.427 . S
O90 C86 1.275 . S
O91 Tb82 2.513 . S
O91 C86 1.246 . S
O92 Tb82 2.453 . S
O92 C88 1.245 . S
O93 Tb80 2.343 . S
O93 Tb82 2.596 . S
O93 C88 1.259 . S
O94 Tb82 2.374 . S
O94 C89 1.250 . S
O95 Tb80 2.353 . S
O95 C89 1.263 . S
C96 O97 1.275 . S
C96 O98 1.246 . S
O97 Tb80 2.427 . S
O97 C96 1.275 . S
O98 Tb80 2.513 . S
O98 C96 1.246 . S
C99 O83 1.245 . S
C99 O84 1.259 . S
Tb100 O103 2.453 . S
Tb100 O104 2.596 . S
Tb100 O105 2.374 . S
Tb100 O113 2.343 . S
Tb100 O115 2.353 . S
Tb100 O117 2.427 . S
Tb100 O118 2.513 . S
C101 O105 1.251 . S
C101 O107 1.263 . S
Tb102 O104 2.343 . S
Tb102 O107 2.353 . S
Tb102 O110 2.427 . S
Tb102 O111 2.513 . S
Tb102 O112 2.453 . S
Tb102 O113 2.596 . S
Tb102 O114 2.374 . S
O103 Tb100 2.453 . S
O103 C119 1.245 . S
O104 Tb100 2.596 . S
O104 Tb102 2.343 . S
O104 C119 1.259 . S
O105 Tb100 2.374 . S
O105 C101 1.251 . S
C106 O110 1.275 . S
C106 O111 1.246 . S
O107 C101 1.263 . S
O107 Tb102 2.353 . S
C108 O112 1.245 . S
C108 O113 1.259 . S
C109 O114 1.250 . S
C109 O115 1.263 . S
O110 Tb102 2.427 . S
O110 C106 1.275 . S
O111 Tb102 2.513 . S
O111 C106 1.246 . S
O112 Tb102 2.453 . S
O112 C108 1.245 . S
O113 Tb100 2.343 . S
O113 Tb102 2.596 . S
O113 C108 1.259 . S
O114 Tb102 2.374 . S
O114 C109 1.250 . S
O115 Tb100 2.353 . S
O115 C109 1.263 . S
C116 O117 1.275 . S
C116 O118 1.246 . S
O117 Tb100 2.427 . S
O117 C116 1.275 . S
O118 Tb100 2.513 . S
O118 C116 1.246 . S
C119 O103 1.245 . S
C119 O104 1.259 . S
H120 C128 0.929 . S
H121 C130 0.930 . S
H122 C132 0.930 . S
H123 C135 0.929 . S
H124 C138 0.930 . S
H125 C140 0.960 . S
H126 C140 0.960 . S
H127 C140 0.960 . S
C128 H120 0.929 . S
C128 C129 1.377 . S
C128 C130 1.384 . S
C129 C128 1.377 . S
C129 C135 1.390 . S
C130 H121 0.930 . S
C130 C128 1.384 . S
C130 C131 1.372 . S
C131 C130 1.372 . S
C131 C132 1.400 . S
C131 C136 1.490 . S
C132 H122 0.930 . S
C132 C131 1.400 . S
C132 C135 1.386 . S
H133 C149 0.930 . S
H134 C150 0.931 . S
C135 H123 0.929 . S
C135 C129 1.390 . S
C135 C132 1.386 . S
C136 C131 1.490 . S
C136 C138 1.395 . S
C136 C139 1.403 . S
H137 C143 0.930 . S
C138 H124 0.930 . S
C138 C136 1.395 . S
C138 C141 1.403 . S
C139 C136 1.403 . S
C139 C140 1.524 . S
C139 C143 1.400 . S
C140 H125 0.960 . S
C140 H126 0.960 . S
C140 H127 0.960 . S
C140 C139 1.524 . S
C141 C138 1.403 . S
C141 C142 1.392 . S
C141 C145 1.495 . S
C142 C141 1.392 . S
C142 C143 1.385 . S
C142 C144 1.478 . S
C143 H137 0.930 . S
C143 C139 1.400 . S
C143 C142 1.385 . S
C144 C142 1.478 . S
C144 C146 1.381 . S
C144 C150 1.383 . S
C145 C141 1.495 . S
C145 H151 0.959 . S
C145 H152 0.961 . S
C145 H153 0.960 . S
C146 C144 1.381 . S
C146 C147 1.394 . S
C146 H154 0.930 . S
C147 C146 1.394 . S
C147 C148 1.383 . S
C147 H155 0.929 . S
C148 C147 1.383 . S
C148 C149 1.377 . S
C149 H133 0.930 . S
C149 C148 1.377 . S
C149 C150 1.379 . S
C150 H134 0.931 . S
C150 C144 1.383 . S
C150 C149 1.379 . S
H151 C145 0.959 . S
H152 C145 0.961 . S
H153 C145 0.960 . S
H154 C146 0.930 . S
H155 C147 0.929 . S
H156 C164 0.929 . S
H157 C166 0.930 . S
H158 C168 0.930 . S
H159 C171 0.929 . S
H160 C174 0.930 . S
H161 C176 0.960 . S
H162 C176 0.960 . S
H163 C176 0.960 . S
C164 H156 0.929 . S
C164 C165 1.377 . S
C164 C166 1.384 . S
C165 C164 1.377 . S
C165 C171 1.390 . S
C166 H157 0.930 . S
C166 C164 1.384 . S
C166 C167 1.372 . S
C167 C166 1.372 . S
C167 C168 1.400 . S
C167 C172 1.490 . S
C168 H158 0.930 . S
C168 C167 1.400 . S
C168 C171 1.386 . S
H169 C185 0.930 . S
H170 C186 0.931 . S
C171 H159 0.929 . S
C171 C165 1.390 . S
C171 C168 1.386 . S
C172 C167 1.490 . S
C172 C174 1.395 . S
C172 C175 1.403 . S
H173 C179 0.930 . S
C174 H160 0.930 . S
C174 C172 1.395 . S
C174 C177 1.403 . S
C175 C172 1.403 . S
C175 C176 1.524 . S
C175 C179 1.400 . S
C176 H161 0.960 . S
C176 H162 0.960 . S
C176 H163 0.960 . S
C176 C175 1.524 . S
C177 C174 1.403 . S
C177 C178 1.392 . S
C177 C181 1.495 . S
C178 C177 1.392 . S
C178 C179 1.385 . S
C178 C180 1.478 . S
C179 H173 0.930 . S
C179 C175 1.400 . S
C179 C178 1.385 . S
C180 C178 1.478 . S
C180 C182 1.381 . S
C180 C186 1.383 . S
C181 C177 1.495 . S
C181 H187 0.959 . S
C181 H188 0.961 . S
C181 H189 0.960 . S
C182 C180 1.381 . S
C182 C183 1.394 . S
C182 H190 0.930 . S
C183 C182 1.394 . S
C183 C184 1.383 . S
C183 H191 0.929 . S
C184 C183 1.383 . S
C184 C185 1.377 . S
C185 H169 0.930 . S
C185 C184 1.377 . S
C185 C186 1.379 . S
C186 H170 0.931 . S
C186 C180 1.383 . S
C186 C185 1.379 . S
H187 C181 0.959 . S
H188 C181 0.961 . S
H189 C181 0.960 . S
H190 C182 0.930 . S
H191 C183 0.929 . S
H192 C200 0.929 . S
H193 C202 0.930 . S
H194 C204 0.930 . S
H195 C207 0.929 . S
H196 C210 0.930 . S
H197 C212 0.960 . S
H198 C212 0.960 . S
H199 C212 0.960 . S
C200 H192 0.929 . S
C200 C201 1.377 . S
C200 C202 1.384 . S
C201 C200 1.377 . S
C201 C207 1.390 . S
C202 H193 0.930 . S
C202 C200 1.384 . S
C202 C203 1.372 . S
C203 C202 1.372 . S
C203 C204 1.400 . S
C203 C208 1.490 . S
C204 H194 0.930 . S
C204 C203 1.400 . S
C204 C207 1.386 . S
H205 C221 0.930 . S
H206 C222 0.931 . S
C207 H195 0.929 . S
C207 C201 1.390 . S
C207 C204 1.386 . S
C208 C203 1.490 . S
C208 C210 1.395 . S
C208 C211 1.403 . S
H209 C215 0.930 . S
C210 H196 0.930 . S
C210 C208 1.395 . S
C210 C213 1.403 . S
C211 C208 1.403 . S
C211 C212 1.524 . S
C211 C215 1.400 . S
C212 H197 0.960 . S
C212 H198 0.960 . S
C212 H199 0.960 . S
C212 C211 1.524 . S
C213 C210 1.403 . S
C213 C214 1.392 . S
C213 C217 1.495 . S
C214 C213 1.392 . S
C214 C215 1.385 . S
C214 C216 1.478 . S
C215 H209 0.930 . S
C215 C211 1.400 . S
C215 C214 1.385 . S
C216 C214 1.478 . S
C216 C218 1.381 . S
C216 C222 1.383 . S
C217 C213 1.495 . S
C217 H223 0.959 . S
C217 H224 0.961 . S
C217 H225 0.960 . S
C218 C216 1.381 . S
C218 C219 1.394 . S
C218 H226 0.930 . S
C219 C218 1.394 . S
C219 C220 1.383 . S
C219 H227 0.929 . S
C220 C219 1.383 . S
C220 C221 1.377 . S
C221 H205 0.930 . S
C221 C220 1.377 . S
C221 C222 1.379 . S
C222 H206 0.931 . S
C222 C216 1.383 . S
C222 C221 1.379 . S
H223 C217 0.959 . S
H224 C217 0.961 . S
H225 C217 0.960 . S
H226 C218 0.930 . S
H227 C219 0.929 . S
H228 C236 0.929 . S
H229 C238 0.930 . S
H230 C240 0.930 . S
H231 C243 0.929 . S
H232 C246 0.930 . S
H233 C248 0.960 . S
H234 C248 0.960 . S
H235 C248 0.960 . S
C236 H228 0.929 . S
C236 C237 1.377 . S
C236 C238 1.384 . S
C237 C236 1.377 . S
C237 C243 1.390 . S
C238 H229 0.930 . S
C238 C236 1.384 . S
C238 C239 1.372 . S
C239 C238 1.372 . S
C239 C240 1.400 . S
C239 C244 1.490 . S
C240 H230 0.930 . S
C240 C239 1.400 . S
C240 C243 1.386 . S
H241 C257 0.930 . S
H242 C258 0.931 . S
C243 H231 0.929 . S
C243 C237 1.390 . S
C243 C240 1.386 . S
C244 C239 1.490 . S
C244 C246 1.395 . S
C244 C247 1.403 . S
H245 C251 0.930 . S
C246 H232 0.930 . S
C246 C244 1.395 . S
C246 C249 1.403 . S
C247 C244 1.403 . S
C247 C248 1.524 . S
C247 C251 1.400 . S
C248 H233 0.960 . S
C248 H234 0.960 . S
C248 H235 0.960 . S
C248 C247 1.524 . S
C249 C246 1.403 . S
C249 C250 1.392 . S
C249 C253 1.495 . S
C250 C249 1.392 . S
C250 C251 1.385 . S
C250 C252 1.478 . S
C251 H245 0.930 . S
C251 C247 1.400 . S
C251 C250 1.385 . S
C252 C250 1.478 . S
C252 C254 1.381 . S
C252 C258 1.383 . S
C253 C249 1.495 . S
C253 H259 0.959 . S
C253 H260 0.961 . S
C253 H261 0.960 . S
C254 C252 1.381 . S
C254 C255 1.394 . S
C254 H262 0.930 . S
C255 C254 1.394 . S
C255 C256 1.383 . S
C255 H263 0.929 . S
C256 C255 1.383 . S
C256 C257 1.377 . S
C257 H241 0.930 . S
C257 C256 1.377 . S
C257 C258 1.379 . S
C258 H242 0.931 . S
C258 C252 1.383 . S
C258 C257 1.379 . S
H259 C253 0.959 . S
H260 C253 0.961 . S
H261 C253 0.960 . S
H262 C254 0.930 . S
H263 C255 0.929 . S
H264 C272 0.929 . S
H265 C274 0.930 . S
H266 C276 0.930 . S
H267 C279 0.929 . S
H268 C282 0.930 . S
H269 C284 0.960 . S
H270 C284 0.960 . S
H271 C284 0.960 . S
C272 H264 0.929 . S
C272 C273 1.377 . S
C272 C274 1.384 . S
C273 C272 1.377 . S
C273 C279 1.390 . S
C274 H265 0.930 . S
C274 C272 1.384 . S
C274 C275 1.372 . S
C275 C274 1.372 . S
C275 C276 1.400 . S
C275 C280 1.490 . S
C276 H266 0.930 . S
C276 C275 1.400 . S
C276 C279 1.386 . S
H277 C293 0.930 . S
H278 C294 0.931 . S
C279 H267 0.929 . S
C279 C273 1.390 . S
C279 C276 1.386 . S
C280 C275 1.490 . S
C280 C282 1.395 . S
C280 C283 1.403 . S
H281 C287 0.930 . S
C282 H268 0.930 . S
C282 C280 1.395 . S
C282 C285 1.403 . S
C283 C280 1.403 . S
C283 C284 1.524 . S
C283 C287 1.400 . S
C284 H269 0.960 . S
C284 H270 0.960 . S
C284 H271 0.960 . S
C284 C283 1.524 . S
C285 C282 1.403 . S
C285 C286 1.392 . S
C285 C289 1.495 . S
C286 C285 1.392 . S
C286 C287 1.385 . S
C286 C288 1.478 . S
C287 H281 0.930 . S
C287 C283 1.400 . S
C287 C286 1.385 . S
C288 C286 1.478 . S
C288 C290 1.381 . S
C288 C294 1.383 . S
C289 C285 1.495 . S
C289 H295 0.959 . S
C289 H296 0.961 . S
C289 H297 0.960 . S
C290 C288 1.381 . S
C290 C291 1.394 . S
C290 H298 0.930 . S
C291 C290 1.394 . S
C291 C292 1.383 . S
C291 H299 0.929 . S
C292 C291 1.383 . S
C292 C293 1.377 . S
C293 H277 0.930 . S
C293 C292 1.377 . S
C293 C294 1.379 . S
C294 H278 0.931 . S
C294 C288 1.383 . S
C294 C293 1.379 . S
H295 C289 0.959 . S
H296 C289 0.961 . S
H297 C289 0.960 . S
H298 C290 0.930 . S
H299 C291 0.929 . S
H300 C308 0.929 . S
H301 C310 0.930 . S
H302 C312 0.930 . S
H303 C315 0.929 . S
H304 C318 0.930 . S
H305 C320 0.960 . S
H306 C320 0.960 . S
H307 C320 0.960 . S
C308 H300 0.929 . S
C308 C309 1.377 . S
C308 C310 1.384 . S
C309 C308 1.377 . S
C309 C315 1.390 . S
C310 H301 0.930 . S
C310 C308 1.384 . S
C310 C311 1.372 . S
C311 C310 1.372 . S
C311 C312 1.400 . S
C311 C316 1.490 . S
C312 H302 0.930 . S
C312 C311 1.400 . S
C312 C315 1.386 . S
H313 C329 0.930 . S
H314 C330 0.931 . S
C315 H303 0.929 . S
C315 C309 1.390 . S
C315 C312 1.386 . S
C316 C311 1.490 . S
C316 C318 1.395 . S
C316 C319 1.403 . S
H317 C323 0.930 . S
C318 H304 0.930 . S
C318 C316 1.395 . S
C318 C321 1.403 . S
C319 C316 1.403 . S
C319 C320 1.524 . S
C319 C323 1.400 . S
C320 H305 0.960 . S
C320 H306 0.960 . S
C320 H307 0.960 . S
C320 C319 1.524 . S
C321 C318 1.403 . S
C321 C322 1.392 . S
C321 C325 1.495 . S
C322 C321 1.392 . S
C322 C323 1.385 . S
C322 C324 1.478 . S
C323 H317 0.930 . S
C323 C319 1.400 . S
C323 C322 1.385 . S
C324 C322 1.478 . S
C324 C326 1.381 . S
C324 C330 1.383 . S
C325 C321 1.495 . S
C325 H331 0.959 . S
C325 H332 0.961 . S
C325 H333 0.960 . S
C326 C324 1.381 . S
C326 C327 1.394 . S
C326 H334 0.930 . S
C327 C326 1.394 . S
C327 C328 1.383 . S
C327 H335 0.929 . S
C328 C327 1.383 . S
C328 C329 1.377 . S
C329 H313 0.930 . S
C329 C328 1.377 . S
C329 C330 1.379 . S
C330 H314 0.931 . S
C330 C324 1.383 . S
C330 C329 1.379 . S
H331 C325 0.959 . S
H332 C325 0.961 . S
H333 C325 0.960 . S
H334 C326 0.930 . S
H335 C327 0.929 . S
H336 C344 0.929 . S
H337 C346 0.930 . S
H338 C348 0.930 . S
H339 C351 0.929 . S
H340 C354 0.930 . S
H341 C356 0.960 . S
H342 C356 0.960 1_556 S
H343 C356 0.960 . S
C344 H336 0.929 . S
C344 C345 1.377 1_556 S
C344 C346 1.384 . S
C345 C344 1.377 1_554 S
C345 C351 1.390 . S
C346 H337 0.930 . S
C346 C344 1.384 . S
C346 C347 1.372 1_556 S
C347 C346 1.372 1_554 S
C347 C348 1.400 . S
C347 C352 1.490 . S
C348 H338 0.930 . S
C348 C347 1.400 . S
C348 C351 1.386 . S
H349 C365 0.930 . S
H350 C366 0.931 . S
C351 H339 0.929 . S
C351 C345 1.390 . S
C351 C348 1.386 . S
C352 C347 1.490 . S
C352 C354 1.395 . S
C352 C355 1.403 . S
H353 C359 0.930 . S
C354 H340 0.930 . S
C354 C352 1.395 . S
C354 C357 1.403 . S
C355 C352 1.403 . S
C355 C356 1.524 . S
C355 C359 1.400 . S
C356 H341 0.960 . S
C356 H342 0.960 1_554 S
C356 H343 0.960 . S
C356 C355 1.524 . S
C357 C354 1.403 . S
C357 C358 1.392 . S
C357 C361 1.495 . S
C358 C357 1.392 . S
C358 C359 1.385 . S
C358 C360 1.478 . S
C359 H353 0.930 . S
C359 C355 1.400 . S
C359 C358 1.385 . S
C360 C358 1.478 . S
C360 C362 1.381 1_554 S
C360 C366 1.383 . S
C361 C357 1.495 . S
C361 H367 0.959 . S
C361 H368 0.961 . S
C361 H369 0.931 1_554 S
C362 C360 1.381 1_556 S
C362 C363 1.394 . S
C362 H370 0.930 . S
C363 C362 1.394 . S
C363 C364 1.383 1_556 S
C363 H371 0.929 . S
C364 C363 1.383 1_554 S
C364 C365 1.377 . S
C365 H349 0.930 . S
C365 C364 1.377 . S
C365 C366 1.379 . S
C366 H350 0.931 . S
C366 C360 1.383 . S
C366 C365 1.379 . S
H367 C361 0.959 . S
H368 C361 0.961 . S
H369 C361 0.931 1_556 S
H370 C362 0.930 . S
H371 C363 0.929 . S
H372 C380 0.929 . S
H373 C382 0.930 . S
H374 C384 0.930 . S
H375 C387 0.929 . S
H376 C390 0.930 . S
H377 C392 0.960 . S
H378 C392 0.960 . S
H379 C392 0.960 . S
C380 H372 0.929 . S
C380 C381 1.377 . S
C380 C382 1.384 . S
C381 C380 1.377 . S
C381 C387 1.390 . S
C382 H373 0.930 . S
C382 C380 1.384 . S
C382 C383 1.372 . S
C383 C382 1.372 . S
C383 C384 1.400 . S
C383 C388 1.490 . S
C384 H374 0.930 . S
C384 C383 1.400 . S
C384 C387 1.386 . S
H385 C401 0.930 . S
H386 C402 0.931 . S
C387 H375 0.929 . S
C387 C381 1.390 . S
C387 C384 1.386 . S
C388 C383 1.490 . S
C388 C390 1.395 1_455 S
C388 C391 1.403 . S
H389 C395 0.930 . S
C390 H376 0.930 . S
C390 C388 1.395 1_655 S
C390 C393 1.403 . S
C391 C388 1.403 . S
C391 C392 1.524 . S
C391 C395 1.400 . S
C392 H377 0.960 . S
C392 H378 0.960 . S
C392 H379 0.960 . S
C392 C391 1.524 . S
C393 C390 1.403 . S
C393 C394 1.392 . S
C393 C397 1.495 . S
C394 C393 1.392 . S
C394 C395 1.385 1_655 S
C394 C396 1.478 . S
C395 H389 0.930 . S
C395 C391 1.400 . S
C395 C394 1.385 1_455 S
C396 C394 1.478 . S
C396 C398 1.381 . S
C396 C402 1.383 . S
C397 C393 1.495 . S
C397 H403 0.959 . S
C397 H404 0.961 . S
C397 H405 0.960 . S
C398 C396 1.381 . S
C398 C399 1.394 . S
C398 H406 0.930 . S
C399 C398 1.394 . S
C399 C400 1.383 . S
C399 H407 0.929 . S
C400 C399 1.383 . S
C400 C401 1.377 . S
C401 H385 0.930 . S
C401 C400 1.377 . S
C401 C402 1.379 . S
C402 H386 0.931 . S
C402 C396 1.383 . S
C402 C401 1.379 . S
H403 C397 0.959 . S
H404 C397 0.961 . S
H405 C397 0.960 . S
H406 C398 0.930 . S
H407 C399 0.929 . S
H408 C416 0.929 . S
H409 C418 0.930 . S
H410 C420 0.930 . S
H411 C423 0.929 . S
H412 C426 0.930 . S
H413 C428 0.960 . S
H414 C428 0.960 . S
H415 C428 0.960 . S
C416 H408 0.929 . S
C416 C417 1.377 . S
C416 C418 1.384 . S
C417 C416 1.377 . S
C417 C423 1.390 . S
C418 H409 0.930 . S
C418 C416 1.384 . S
C418 C419 1.372 . S
C419 C418 1.372 . S
C419 C420 1.400 . S
C419 C424 1.490 . S
C420 H410 0.930 . S
C420 C419 1.400 . S
C420 C423 1.386 . S
H421 C437 0.930 . S
H422 C438 0.931 . S
C423 H411 0.929 . S
C423 C417 1.390 . S
C423 C420 1.386 . S
C424 C419 1.490 . S
C424 C426 1.395 . S
C424 C427 1.403 1_545 S
H425 C431 0.930 . S
C426 H412 0.930 . S
C426 C424 1.395 . S
C426 C429 1.403 . S
C427 C424 1.403 1_565 S
C427 C428 1.524 . S
C427 C431 1.400 . S
C428 H413 0.960 . S
C428 H414 0.960 . S
C428 H415 0.960 . S
C428 C427 1.524 . S
C429 C426 1.403 . S
C429 C430 1.392 1_545 S
C429 C433 1.495 . S
C430 C429 1.392 1_565 S
C430 C431 1.385 . S
C430 C432 1.478 . S
C431 H425 0.930 . S
C431 C427 1.400 . S
C431 C430 1.385 . S
C432 C430 1.478 . S
C432 C434 1.381 . S
C432 C438 1.383 . S
C433 C429 1.495 . S
C433 H439 0.959 . S
C433 H440 0.961 . S
C433 H441 0.960 . S
C434 C432 1.381 . S
C434 C435 1.394 . S
C434 H442 0.930 . S
C435 C434 1.394 . S
C435 C436 1.383 . S
C435 H443 0.929 . S
C436 C435 1.383 . S
C436 C437 1.377 . S
C437 H421 0.930 . S
C437 C436 1.377 . S
C437 C438 1.379 . S
C438 H422 0.931 . S
C438 C432 1.383 . S
C438 C437 1.379 . S
H439 C433 0.959 . S
H440 C433 0.961 . S
H441 C433 0.960 . S
H442 C434 0.930 . S
H443 C435 0.929 . S
H444 C452 0.929 . S
H445 C454 0.930 . S
H446 C456 0.930 . S
H447 C459 0.929 . S
H448 C462 0.930 . S
H449 C464 0.960 . S
H450 C464 0.960 . S
H451 C464 0.960 . S
C452 H444 0.929 . S
C452 C453 1.377 . S
C452 C454 1.384 . S
C453 C452 1.377 . S
C453 C459 1.390 . S
C454 H445 0.930 . S
C454 C452 1.384 . S
C454 C455 1.372 . S
C455 C454 1.372 . S
C455 C456 1.400 . S
C455 C460 1.490 . S
C456 H446 0.930 . S
C456 C455 1.400 . S
C456 C459 1.386 . S
H457 C473 0.930 . S
H458 C474 0.931 . S
C459 H447 0.929 . S
C459 C453 1.390 . S
C459 C456 1.386 . S
C460 C455 1.490 . S
C460 C462 1.395 . S
C460 C463 1.403 . S
H461 C467 0.930 . S
C462 H448 0.930 . S
C462 C460 1.395 . S
C462 C465 1.403 . S
C463 C460 1.403 . S
C463 C464 1.524 . S
C463 C467 1.400 . S
C464 H449 0.960 . S
C464 H450 0.960 . S
C464 H451 0.960 . S
C464 C463 1.524 . S
C465 C462 1.403 . S
C465 C466 1.392 . S
C465 C469 1.495 . S
C466 C465 1.392 . S
C466 C467 1.385 . S
C466 C468 1.478 . S
C467 H461 0.930 . S
C467 C463 1.400 . S
C467 C466 1.385 . S
C468 C466 1.478 . S
C468 C470 1.381 . S
C468 C474 1.383 . S
C469 C465 1.495 . S
C469 H475 0.959 . S
C469 H476 0.961 . S
C469 H477 0.960 . S
C470 C468 1.381 . S
C470 C471 1.394 . S
C470 H478 0.930 . S
C471 C470 1.394 . S
C471 C472 1.383 . S
C471 H479 0.929 . S
C472 C471 1.383 . S
C472 C473 1.377 . S
C473 H457 0.930 . S
C473 C472 1.377 . S
C473 C474 1.379 . S
C474 H458 0.931 . S
C474 C468 1.383 . S
C474 C473 1.379 . S
H475 C469 0.959 . S
H476 C469 0.961 . S
H477 C469 0.960 . S
H478 C470 0.930 . S
H479 C471 0.929 . S
H480 C488 0.929 . S
H481 C490 0.930 . S
H482 C492 0.930 . S
H483 C495 0.929 . S
H484 C498 0.930 . S
H485 C500 0.960 . S
H486 C500 0.960 . S
H487 C500 0.960 . S
C488 H480 0.929 . S
C488 C489 1.377 . S
C488 C490 1.384 . S
C489 C488 1.377 . S
C489 C495 1.390 1_556 S
C490 H481 0.930 . S
C490 C488 1.384 . S
C490 C491 1.372 . S
C491 C490 1.372 . S
C491 C492 1.400 1_556 S
C491 C496 1.490 . S
C492 H482 0.930 . S
C492 C491 1.400 1_554 S
C492 C495 1.386 . S
H493 C509 0.930 . S
H494 C510 0.931 . S
C495 H483 0.929 . S
C495 C489 1.390 1_554 S
C495 C492 1.386 . S
C496 C491 1.490 . S
C496 C498 1.395 1_455 S
C496 C499 1.403 . S
H497 C503 0.930 . S
C498 H484 0.930 . S
C498 C496 1.395 1_655 S
C498 C501 1.403 . S
C499 C496 1.403 . S
C499 C500 1.524 . S
C499 C503 1.400 . S
C500 H485 0.960 . S
C500 H486 0.960 . S
C500 H487 0.960 . S
C500 C499 1.524 . S
C501 C498 1.403 . S
C501 C502 1.392 . S
C501 C505 1.495 1_556 S
C502 C501 1.392 . S
C502 C503 1.385 1_655 S
C502 C504 1.478 . S
C503 H497 0.930 . S
C503 C499 1.400 . S
C503 C502 1.385 1_455 S
C504 C502 1.478 . S
C504 C506 1.381 . S
C504 C510 1.383 1_556 S
C505 C501 1.495 1_554 S
C505 H511 0.959 . S
C505 H512 0.961 . S
C505 H513 0.960 1_554 S
C506 C504 1.381 . S
C506 C507 1.394 . S
C506 H514 0.930 . S
C507 C506 1.394 . S
C507 C508 1.383 . S
C507 H515 0.929 . S
C508 C507 1.383 . S
C508 C509 1.377 1_556 S
C509 H493 0.930 . S
C509 C508 1.377 1_554 S
C509 C510 1.379 . S
C510 H494 0.931 . S
C510 C504 1.383 1_554 S
C510 C509 1.379 . S
H511 C505 0.959 . S
H512 C505 0.961 . S
H513 C505 0.960 1_556 S
H514 C506 0.930 . S
H515 C507 0.929 . S
H516 C524 0.929 . S
H517 C526 0.930 . S
H518 C528 0.930 . S
H519 C531 0.929 . S
H520 C534 0.930 . S
H521 C536 0.960 . S
H522 C536 0.960 . S
H523 C536 0.960 . S
C524 H516 0.929 . S
C524 C525 1.377 . S
C524 C526 1.384 . S
C525 C524 1.377 . S
C525 C531 1.390 . S
C526 H517 0.930 . S
C526 C524 1.384 . S
C526 C527 1.372 . S
C527 C526 1.372 . S
C527 C528 1.400 . S
C527 C532 1.490 . S
C528 H518 0.930 . S
C528 C527 1.400 . S
C528 C531 1.386 . S
H529 C545 0.930 . S
H530 C546 0.931 . S
C531 H519 0.929 . S
C531 C525 1.390 . S
C531 C528 1.386 . S
C532 C527 1.490 . S
C532 C534 1.395 . S
C532 C535 1.403 1_565 S
H533 C539 0.930 . S
C534 H520 0.930 . S
C534 C532 1.395 . S
C534 C537 1.403 . S
C535 C532 1.403 1_545 S
C535 C536 1.524 . S
C535 C539 1.400 . S
C536 H521 0.960 . S
C536 H522 0.960 . S
C536 H523 0.960 . S
C536 C535 1.524 . S
C537 C534 1.403 . S
C537 C538 1.392 1_565 S
C537 C541 1.495 . S
C538 C537 1.392 1_545 S
C538 C539 1.385 . S
C538 C540 1.478 . S
C539 H533 0.930 . S
C539 C535 1.400 . S
C539 C538 1.385 . S
C540 C538 1.478 . S
C540 C542 1.381 . S
C540 C546 1.383 . S
C541 C537 1.495 . S
C541 H547 0.959 . S
C541 H548 0.961 . S
C541 H549 0.960 . S
C542 C540 1.381 . S
C542 C543 1.394 . S
C542 H550 0.930 . S
C543 C542 1.394 . S
C543 C544 1.383 . S
C543 H551 0.929 . S
C544 C543 1.383 . S
C544 C545 1.377 . S
C545 H529 0.930 . S
C545 C544 1.377 . S
C545 C546 1.379 . S
C546 H530 0.931 . S
C546 C540 1.383 . S
C546 C545 1.379 . S
H547 C541 0.959 . S
H548 C541 0.961 . S
H549 C541 0.960 . S
H550 C542 0.930 . S
H551 C543 0.929 . S
H552 C560 0.929 . S
H553 C562 0.930 . S
H554 C564 0.930 . S
H555 C567 0.929 . S
H556 C570 0.930 . S
H557 C572 0.960 . S
H558 C572 0.960 . S
H559 C572 0.960 . S
C560 H552 0.929 . S
C560 C561 1.377 . S
C560 C562 1.384 . S
C561 C560 1.377 . S
C561 C567 1.390 . S
C562 H553 0.930 . S
C562 C560 1.384 . S
C562 C563 1.372 . S
C563 C562 1.372 . S
C563 C564 1.400 . S
C563 C568 1.490 . S
C564 H554 0.930 . S
C564 C563 1.400 . S
C564 C567 1.386 . S
H565 C581 0.930 . S
H566 C582 0.931 . S
C567 H555 0.929 . S
C567 C561 1.390 . S
C567 C564 1.386 . S
C568 C563 1.490 . S
C568 C570 1.395 . S
C568 C571 1.403 . S
H569 C575 0.930 . S
C570 H556 0.930 . S
C570 C568 1.395 . S
C570 C573 1.403 . S
C571 C568 1.403 . S
C571 C572 1.524 . S
C571 C575 1.400 . S
C572 H557 0.960 . S
C572 H558 0.960 . S
C572 H559 0.960 . S
C572 C571 1.524 . S
C573 C570 1.403 . S
C573 C574 1.392 . S
C573 C577 1.495 . S
C574 C573 1.392 . S
C574 C575 1.385 . S
C574 C576 1.478 . S
C575 H569 0.930 . S
C575 C571 1.400 . S
C575 C574 1.385 . S
C576 C574 1.478 . S
C576 C578 1.381 . S
C576 C582 1.383 . S
C577 C573 1.495 . S
C577 H583 0.959 . S
C577 H584 0.961 . S
C577 H585 0.960 . S
C578 C576 1.381 . S
C578 C579 1.394 . S
C578 H586 0.930 . S
C579 C578 1.394 . S
C579 C580 1.383 . S
C579 H587 0.929 . S
C580 C579 1.383 . S
C580 C581 1.377 . S
C581 H565 0.930 . S
C581 C580 1.377 . S
C581 C582 1.379 . S
C582 H566 0.931 . S
C582 C576 1.383 . S
C582 C581 1.379 . S
H583 C577 0.959 . S
H584 C577 0.961 . S
H585 C577 0.960 . S
H586 C578 0.930 . S
H587 C579 0.929 . S
H588 C596 0.929 . S
H589 C598 0.930 . S
H590 C600 0.930 . S
H591 C603 0.929 . S
H592 C606 0.930 . S
H593 C608 0.960 . S
H594 C608 0.960 . S
H595 C608 0.960 . S
C596 H588 0.929 . S
C596 C597 1.377 . S
C596 C598 1.384 . S
C597 C596 1.377 . S
C597 C603 1.390 . S
C598 H589 0.930 . S
C598 C596 1.384 . S
C598 C599 1.372 . S
C599 C598 1.372 . S
C599 C600 1.400 . S
C599 C604 1.490 . S
C600 H590 0.930 . S
C600 C599 1.400 . S
C600 C603 1.386 . S
H601 C617 0.930 . S
H602 C618 0.931 . S
C603 H591 0.929 . S
C603 C597 1.390 . S
C603 C600 1.386 . S
C604 C599 1.490 . S
C604 C606 1.395 1_655 S
C604 C607 1.403 . S
H605 C611 0.930 . S
C606 H592 0.930 . S
C606 C604 1.395 1_455 S
C606 C609 1.403 . S
C607 C604 1.403 . S
C607 C608 1.524 . S
C607 C611 1.400 . S
C608 H593 0.960 . S
C608 H594 0.960 . S
C608 H595 0.960 . S
C608 C607 1.524 . S
C609 C606 1.403 . S
C609 C610 1.392 . S
C609 C613 1.495 . S
C610 C609 1.392 . S
C610 C611 1.385 1_455 S
C610 C612 1.478 . S
C611 H605 0.930 . S
C611 C607 1.400 . S
C611 C610 1.385 1_655 S
C612 C610 1.478 . S
C612 C614 1.381 . S
C612 C618 1.383 . S
C613 C609 1.495 . S
C613 H619 0.959 . S
C613 H620 0.961 . S
C613 H621 0.960 . S
C614 C612 1.381 . S
C614 C615 1.394 . S
C614 H622 0.930 . S
C615 C614 1.394 . S
C615 C616 1.383 . S
C615 H623 0.929 . S
C616 C615 1.383 . S
C616 C617 1.377 . S
C617 H601 0.930 . S
C617 C616 1.377 . S
C617 C618 1.379 . S
C618 H602 0.931 . S
C618 C612 1.383 . S
C618 C617 1.379 . S
H619 C613 0.959 . S
H620 C613 0.961 . S
H621 C613 0.960 . S
H622 C614 0.930 . S
H623 C615 0.929 . S
H624 C632 0.929 . S
H625 C634 0.930 . S
H626 C636 0.930 . S
H627 C639 0.929 . S
H628 C642 0.930 . S
H629 C644 0.960 . S
H630 C644 0.960 . S
H631 C644 0.960 . S
C632 H624 0.929 . S
C632 C633 1.377 . S
C632 C634 1.384 . S
C633 C632 1.377 . S
C633 C639 1.390 . S
C634 H625 0.930 . S
C634 C632 1.384 . S
C634 C635 1.372 . S
C635 C634 1.372 . S
C635 C636 1.400 . S
C635 C640 1.490 . S
C636 H626 0.930 . S
C636 C635 1.400 . S
C636 C639 1.386 . S
H637 C653 0.930 . S
H638 C654 0.931 . S
C639 H627 0.929 . S
C639 C633 1.390 . S
C639 C636 1.386 . S
C640 C635 1.490 . S
C640 C642 1.395 . S
C640 C643 1.403 1_565 S
H641 C647 0.930 . S
C642 H628 0.930 . S
C642 C640 1.395 . S
C642 C645 1.403 . S
C643 C640 1.403 1_545 S
C643 C644 1.524 . S
C643 C647 1.400 . S
C644 H629 0.960 . S
C644 H630 0.960 . S
C644 H631 0.960 . S
C644 C643 1.524 . S
C645 C642 1.403 . S
C645 C646 1.392 1_565 S
C645 C649 1.495 . S
C646 C645 1.392 1_545 S
C646 C647 1.385 . S
C646 C648 1.478 . S
C647 H641 0.930 . S
C647 C643 1.400 . S
C647 C646 1.385 . S
C648 C646 1.478 . S
C648 C650 1.381 . S
C648 C654 1.383 . S
C649 C645 1.495 . S
C649 H655 0.959 . S
C649 H656 0.961 . S
C649 H657 0.960 . S
C650 C648 1.381 . S
C650 C651 1.394 . S
C650 H658 0.930 . S
C651 C650 1.394 . S
C651 C652 1.383 . S
C651 H659 0.929 . S
C652 C651 1.383 . S
C652 C653 1.377 . S
C653 H637 0.930 . S
C653 C652 1.377 . S
C653 C654 1.379 . S
C654 H638 0.931 . S
C654 C648 1.383 . S
C654 C653 1.379 . S
H655 C649 0.959 . S
H656 C649 0.961 . S
H657 C649 0.960 . S
H658 C650 0.930 . S
H659 C651 0.929 . S
H660 C668 0.929 . S
H661 C670 0.930 . S
H662 C672 0.930 . S
H663 C675 0.929 . S
H664 C678 0.930 . S
H665 C680 0.960 . S
H666 C680 0.960 . S
H667 C680 0.960 . S
C668 H660 0.929 . S
C668 C669 1.377 . S
C668 C670 1.384 . S
C669 C668 1.377 . S
C669 C675 1.390 . S
C670 H661 0.930 . S
C670 C668 1.384 . S
C670 C671 1.372 . S
C671 C670 1.372 . S
C671 C672 1.400 . S
C671 C676 1.490 . S
C672 H662 0.930 . S
C672 C671 1.400 . S
C672 C675 1.386 . S
H673 C689 0.930 . S
H674 C690 0.931 . S
C675 H663 0.929 . S
C675 C669 1.390 . S
C675 C672 1.386 . S
C676 C671 1.490 . S
C676 C678 1.395 . S
C676 C679 1.403 . S
H677 C683 0.930 . S
C678 H664 0.930 . S
C678 C676 1.395 . S
C678 C681 1.403 . S
C679 C676 1.403 . S
C679 C680 1.524 . S
C679 C683 1.400 . S
C680 H665 0.960 . S
C680 H666 0.960 . S
C680 H667 0.960 . S
C680 C679 1.524 . S
C681 C678 1.403 . S
C681 C682 1.392 . S
C681 C685 1.495 . S
C682 C681 1.392 . S
C682 C683 1.385 . S
C682 C684 1.478 . S
C683 H677 0.930 . S
C683 C679 1.400 . S
C683 C682 1.385 . S
C684 C682 1.478 . S
C684 C686 1.381 . S
C684 C690 1.383 . S
C685 C681 1.495 . S
C685 H691 0.959 . S
C685 H692 0.961 . S
C685 H693 0.960 . S
C686 C684 1.381 . S
C686 C687 1.394 . S
C686 H694 0.930 . S
C687 C686 1.394 . S
C687 C688 1.383 . S
C687 H695 0.929 . S
C688 C687 1.383 . S
C688 C689 1.377 . S
C689 H673 0.930 . S
C689 C688 1.377 . S
C689 C690 1.379 . S
C690 H674 0.931 . S
C690 C684 1.383 . S
C690 C689 1.379 . S
H691 C685 0.959 . S
H692 C685 0.961 . S
H693 C685 0.960 . S
H694 C686 0.930 . S
H695 C687 0.929 . S
H696 C704 0.929 . S
H697 C706 0.930 . S
H698 C708 0.930 . S
H699 C711 0.929 . S
H700 C714 0.930 . S
H701 C716 0.960 1_655 S
H702 C716 0.960 . S
H703 C716 0.960 . S
C704 H696 0.929 . S
C704 C705 1.377 . S
C704 C706 1.384 . S
C705 C704 1.377 . S
C705 C711 1.390 . S
C706 H697 0.930 . S
C706 C704 1.384 . S
C706 C707 1.372 . S
C707 C706 1.372 . S
C707 C708 1.400 . S
C707 C712 1.490 . S
C708 H698 0.930 . S
C708 C707 1.400 . S
C708 C711 1.386 . S
H709 C725 0.930 . S
H710 C726 0.931 . S
C711 H699 0.929 . S
C711 C705 1.390 . S
C711 C708 1.386 . S
C712 C707 1.490 . S
C712 C714 1.395 . S
C712 C715 1.403 . S
H713 C719 0.930 . S
C714 H700 0.930 . S
C714 C712 1.395 . S
C714 C717 1.403 . S
C715 C712 1.403 . S
C715 C716 1.524 . S
C715 C719 1.400 1_455 S
C716 H701 0.960 1_455 S
C716 H702 0.960 . S
C716 H703 0.960 . S
C716 C715 1.524 . S
C717 C714 1.403 . S
C717 C718 1.392 1_455 S
C717 C721 1.495 . S
C718 C717 1.392 1_655 S
C718 C719 1.385 . S
C718 C720 1.478 . S
C719 H713 0.930 . S
C719 C715 1.400 1_655 S
C719 C718 1.385 . S
C720 C718 1.478 . S
C720 C722 1.381 . S
C720 C726 1.383 . S
C721 C717 1.495 . S
C721 H727 0.959 . S
C721 H728 0.961 1_455 S
C721 H729 0.960 . S
C722 C720 1.381 . S
C722 C723 1.394 . S
C722 H730 0.930 . S
C723 C722 1.394 . S
C723 C724 1.383 . S
C723 H731 0.929 . S
C724 C723 1.383 . S
C724 C725 1.377 . S
C725 H709 0.930 . S
C725 C724 1.377 . S
C725 C726 1.379 . S
C726 H710 0.931 . S
C726 C720 1.383 . S
C726 C725 1.379 . S
H727 C721 0.959 . S
H728 C721 0.961 1_655 S
H729 C721 0.960 . S
H730 C722 0.930 . S
H731 C723 0.929 . S
H732 C740 0.929 . S
H733 C742 0.930 . S
H734 C744 0.930 . S
H735 C747 0.929 . S
H736 C750 0.930 . S
H737 C752 0.960 . S
H738 C752 0.960 1_545 S
H739 C752 0.960 . S
C740 H732 0.929 . S
C740 C741 1.377 . S
C740 C742 1.384 . S
C741 C740 1.377 . S
C741 C747 1.390 . S
C742 H733 0.930 . S
C742 C740 1.384 . S
C742 C743 1.372 . S
C743 C742 1.372 . S
C743 C744 1.400 . S
C743 C748 1.490 . S
C744 H734 0.930 . S
C744 C743 1.400 . S
C744 C747 1.386 . S
H745 C761 0.930 . S
H746 C762 0.931 . S
C747 H735 0.929 . S
C747 C741 1.390 . S
C747 C744 1.386 . S
C748 C743 1.490 . S
C748 C750 1.395 . S
C748 C751 1.403 1_545 S
H749 C755 0.930 . S
C750 H736 0.930 . S
C750 C748 1.395 . S
C750 C753 1.403 . S
C751 C748 1.403 1_565 S
C751 C752 1.524 . S
C751 C755 1.400 . S
C752 H737 0.960 . S
C752 H738 0.960 1_565 S
C752 H739 0.960 . S
C752 C751 1.524 . S
C753 C750 1.403 . S
C753 C754 1.392 1_545 S
C753 C757 1.495 . S
C754 C753 1.392 1_565 S
C754 C755 1.385 . S
C754 C756 1.478 . S
C755 H749 0.930 . S
C755 C751 1.400 . S
C755 C754 1.385 . S
C756 C754 1.478 . S
C756 C758 1.381 . S
C756 C762 1.383 . S
C757 C753 1.495 . S
C757 H763 0.959 . S
C757 H764 0.961 . S
C757 H765 0.960 . S
C758 C756 1.381 . S
C758 C759 1.394 . S
C758 H766 0.930 . S
C759 C758 1.394 . S
C759 C760 1.383 . S
C759 H767 0.929 . S
C760 C759 1.383 . S
C760 C761 1.377 . S
C761 H745 0.930 . S
C761 C760 1.377 . S
C761 C762 1.379 . S
C762 H746 0.931 . S
C762 C756 1.383 . S
C762 C761 1.379 . S
H763 C757 0.959 . S
H764 C757 0.961 . S
H765 C757 0.960 . S
H766 C758 0.930 . S
H767 C759 0.929 . S
C129 C86 1.352 . S
C148 C8 1.336 . S
C165 C106 1.358 . S
C184 C28 1.271 . S
C201 C6 1.358 . S
C220 C48 1.271 . S
C237 C26 1.349 . S
C256 C68 1.339 . S
C273 C46 1.353 . S
C292 C88 1.298 . S
C309 C66 1.351 . S
C328 C108 1.342 . S
C345 C1 0.535 . S
C364 C61 0.604 . S
C381 C81 0.512 . S
C400 C21 0.445 . S
C417 C101 0.542 . S
C436 C41 0.594 . S
C453 C49 0.546 . S
C472 C109 0.572 . S
C489 C9 0.539 . S
C508 C69 0.515 . S
C525 C89 0.547 . S
C544 C29 0.572 . S
C561 C116 1.521 . S
C580 C19 1.486 . S
C597 C39 1.510 . S
C616 C16 1.535 . S
C633 C59 1.502 . S
C652 C36 1.506 . S
C669 C56 1.522 . S
C688 C79 1.493 . S
C705 C99 1.505 . S
C724 C76 1.515 . S
C741 C119 1.503 . S
C760 C96 1.509 . S
