# Generated by pormake.
# Topology mdf, (4)-cn, num edge types: 1
# Building blocks:
#     Node 0, Type 0, BuildingBlock: ICAMEG_clean_sbu_1, # of connection points: 4
#     Node 1, Type 0, BuildingBlock: ICAMEG_clean_sbu_1, # of connection points: 4
#     Node 2, Type 0, BuildingBlock: ICAMEG_clean_sbu_1, # of connection points: 4
#     Node 3, Type 0, BuildingBlock: ICAMEG_clean_sbu_1, # of connection points: 4
#     Node 4, Type 0, BuildingBlock: ICAMEG_clean_sbu_1, # of connection points: 4
#     Node 5, Type 0, BuildingBlock: ICAMEG_clean_sbu_1, # of connection points: 4
#     Node 6, Type 0, BuildingBlock: ICAMEG_clean_sbu_1, # of connection points: 4
#     Node 7, Type 0, BuildingBlock: ICAMEG_clean_sbu_1, # of connection points: 4
#     Edge 8, Type (0, 0), BuildingBlock: XIVTED_clean_linker_0, # of connection points: 2
#     Edge 9, Type (0, 0), BuildingBlock: XIVTED_clean_linker_0, # of connection points: 2
#     Edge 10, Type (0, 0), BuildingBlock: XIVTED_clean_linker_0, # of connection points: 2
#     Edge 11, Type (0, 0), BuildingBlock: XIVTED_clean_linker_0, # of connection points: 2
#     Edge 12, Type (0, 0), BuildingBlock: XIVTED_clean_linker_0, # of connection points: 2
#     Edge 13, Type (0, 0), BuildingBlock: XIVTED_clean_linker_0, # of connection points: 2
#     Edge 14, Type (0, 0), BuildingBlock: XIVTED_clean_linker_0, # of connection points: 2
#     Edge 15, Type (0, 0), BuildingBlock: XIVTED_clean_linker_0, # of connection points: 2
#     Edge 16, Type (0, 0), BuildingBlock: XIVTED_clean_linker_0, # of connection points: 2
#     Edge 17, Type (0, 0), BuildingBlock: XIVTED_clean_linker_0, # of connection points: 2
#     Edge 18, Type (0, 0), BuildingBlock: XIVTED_clean_linker_0, # of connection points: 2
#     Edge 19, Type (0, 0), BuildingBlock: XIVTED_clean_linker_0, # of connection points: 2
#     Edge 20, Type (0, 0), BuildingBlock: XIVTED_clean_linker_0, # of connection points: 2
#     Edge 21, Type (0, 0), BuildingBlock: XIVTED_clean_linker_0, # of connection points: 2
#     Edge 22, Type (0, 0), BuildingBlock: XIVTED_clean_linker_0, # of connection points: 2
#     Edge 23, Type (0, 0), BuildingBlock: XIVTED_clean_linker_0, # of connection points: 2
# Relax obj value: 0.008
# Max RMSD: 0.050
# Mean RMSD: 0.050
data_MOF--net-mdf--node1-ICAMEG_clean_sbu_1--edge1-XIVTED_clean_linker_0
_symmetry_space_group_name_H-M    P1
_symmetry_Int_Tables_number       1
_symmetry_cell_setting            triclinic
loop_
_symmetry_equiv_pos_as_xyz
'x, y, z'
_cell_length_a     41.599223
_cell_length_b     41.8042
_cell_length_c     11.358507
_cell_angle_alpha  90.028613
_cell_angle_beta   90.121924
_cell_angle_gamma 89.983243
loop_
_atom_site_label
_atom_site_type_symbol
_atom_site_fract_x
_atom_site_fract_y
_atom_site_fract_z
_atom_type_partial_charge
Co0 Co 0.24319 0.5041 0.51617 0.0
Co1 Co 0.26542 0.504 0.22391 0.0
O2 O 0.25398 0.52708 0.36964 0.0
C3 C 0.18587 0.54727 0.47097 0.0
O4 O 0.19559 0.55432 0.36423 0.0
C5 C 0.32112 0.54996 0.26386 0.0
O6 O 0.31112 0.55774 0.36962 0.0
O7 O 0.29049 0.47096 0.31172 0.0
O8 O 0.28429 0.48036 0.5039 0.0
H9 H 0.27746 0.40344 0.98766 0.0
H10 H 0.24291 0.57563 0.51162 0.0
O11 O 0.20163 0.52778 0.5348 0.0
H12 H 0.32117 0.54561 0.8181 0.0
H13 H 0.18315 0.48385 0.89241 0.0
H14 H 0.2547 0.43749 0.59423 0.0
H15 H 0.29175 0.50408 0.70457 0.0
H16 H 0.2081 0.51853 0.74226 0.0
O17 O 0.30615 0.52916 0.20301 0.0
H18 H 0.25698 0.43662 0.14904 0.0
H19 H 0.29889 0.51939 -0.00408 0.0
H20 H 0.23505 0.40374 0.75495 0.0
H21 H 0.27058 0.61782 0.62389 0.0
H22 H 0.1981 0.42661 0.90377 0.0
H23 H 0.3101 0.60288 0.77873 0.0
O24 O 0.21943 0.46985 0.43018 0.0
H25 H 0.23372 0.61631 0.11226 0.0
H26 H 0.21609 0.50163 0.03767 0.0
H27 H 0.18474 0.54185 0.92444 0.0
H28 H 0.19408 0.59953 0.96046 0.0
H29 H 0.26317 0.5755 0.22489 0.0
H30 H 0.32485 0.48562 0.84524 0.0
H31 H 0.31251 0.42774 0.83564 0.0
O32 O 0.22523 0.47862 0.23768 0.0
C33 C 0.29813 0.46632 0.41893 0.0
C34 C 0.28234 0.42887 0.98893 0.0
C35 C 0.30845 0.47514 0.90793 0.0
N36 N 0.2763 0.48022 0.08205 0.0
C37 C 0.27015 0.44806 0.07896 0.0
C38 C 0.29426 0.49399 -0.00477 0.0
C39 C 0.30199 0.4425 0.90372 0.0
C40 C 0.25944 0.56884 0.58043 0.0
N41 N 0.26521 0.53731 0.60428 0.0
C42 C 0.27529 0.5929 0.64313 0.0
C43 C 0.29749 0.58452 0.72981 0.0
C44 C 0.30362 0.55234 0.75224 0.0
C45 C 0.28706 0.52897 0.68827 0.0
C46 C 0.2003 0.47405 0.83085 0.0
C47 C 0.2407 0.44848 0.66314 0.0
C48 C 0.21399 0.49339 0.74396 0.0
N49 N 0.23302 0.48032 0.6587 0.0
C50 C 0.22898 0.42891 0.75277 0.0
C51 C 0.20828 0.44175 0.83625 0.0
C52 C 0.21188 0.46446 0.32349 0.0
C53 C 0.2298 0.59118 0.09428 0.0
C54 C 0.22006 0.52673 0.05261 0.0
C55 C 0.20241 0.54933 0.98876 0.0
C56 C 0.20754 0.58177 0.00934 0.0
N57 N 0.242 0.53609 0.13488 0.0
C58 C 0.24673 0.56789 0.15708 0.0
Co59 Co 0.50537 0.76154 0.46471 0.0
Co60 Co 0.50662 0.74686 0.75865 0.0
O61 O 0.48279 0.75378 0.61251 0.0
C62 C 0.46289 0.81992 0.45722 0.0
O63 O 0.47552 0.83047 0.55593 0.0
C64 C 0.46424 0.68866 0.7678 0.0
O65 O 0.47514 0.67926 0.66499 0.0
O66 O 0.53207 0.7115 0.68856 0.0
O67 O 0.54026 0.73067 0.50822 0.0
H68 H 0.6075 0.72467 0.98434 0.0
H69 H 0.43526 0.74933 0.43189 0.0
O70 O 0.47118 0.79286 0.41574 0.0
H71 H 0.48836 0.65122 0.2924 0.0
H72 H 0.51441 0.80906 0.06775 0.0
H73 H 0.57444 0.76406 0.39801 0.0
H74 H 0.52042 0.69636 0.36249 0.0
H75 H 0.48576 0.77984 0.21995 0.0
O76 O 0.47358 0.71503 0.81213 0.0
H77 H 0.57613 0.74434 0.81692 0.0
H78 H 0.48927 0.73083 0.00736 0.0
H79 H 0.60404 0.78651 0.23171 0.0
H80 H 0.40249 0.7051 0.35659 0.0
H81 H 0.57393 0.81059 0.06479 0.0
H82 H 0.42897 0.65533 0.28704 0.0
O83 O 0.53071 0.79729 0.53299 0.0
H84 H 0.40318 0.80216 0.8639 0.0
H85 H 0.52107 0.81208 0.86164 0.0
H86 H 0.48827 0.85765 0.92419 0.0
H87 H 0.42884 0.85284 0.92839 0.0
H88 H 0.43659 0.75789 0.7933 0.0
H89 H 0.5198 0.70574 0.1657 0.0
H90 H 0.57921 0.70378 0.16051 0.0
O91 O 0.54057 0.77825 0.71215 0.0
C92 C 0.54642 0.71083 0.59008 0.0
C93 C 0.58157 0.726 0.99017 0.0
C94 C 0.53238 0.71569 0.09302 0.0
N95 N 0.53061 0.7395 0.90226 0.0
C96 C 0.56351 0.73801 0.89648 0.0
C97 C 0.51513 0.72948 0.00101 0.0
C98 C 0.56574 0.71423 0.08857 0.0
C99 C 0.44735 0.72854 0.39725 0.0
N100 N 0.48022 0.72656 0.39712 0.0
C101 C 0.42844 0.7032 0.35654 0.0
C102 C 0.44323 0.67525 0.31804 0.0
C103 C 0.47655 0.6729 0.32142 0.0
C104 C 0.49467 0.69876 0.36234 0.0
C105 C 0.52785 0.79718 0.13458 0.0
C106 C 0.561 0.77145 0.3214 0.0
C107 C 0.51163 0.78133 0.22425 0.0
N108 N 0.52806 0.76987 0.31911 0.0
C109 C 0.57807 0.78512 0.22855 0.0
C110 C 0.56124 0.79862 0.13523 0.0
C111 C 0.5458 0.79817 0.63005 0.0
C112 C 0.4291 0.80442 0.86421 0.0
C113 C 0.49531 0.8096 0.85993 0.0
C114 C 0.47677 0.83563 0.8969 0.0
C115 C 0.44346 0.83289 0.89972 0.0
N116 N 0.48121 0.78148 0.82674 0.0
C117 C 0.44837 0.77906 0.82637 0.0
Co118 Co 0.24076 0.00511 0.71166 0.0
Co119 Co 0.2625 0.00549 0.00495 0.0
O120 O 0.25179 0.98228 0.8586 0.0
C121 C 0.18424 0.96086 0.75485 0.0
O122 O 0.19373 0.95436 0.8625 0.0
C123 C 0.31923 0.96046 0.96781 0.0
O124 O 0.30983 0.95261 0.86124 0.0
O125 O 0.28734 0.03881 0.91845 0.0
O126 O 0.28128 0.02985 0.72584 0.0
H127 H 0.27286 0.10638 0.24023 0.0
H128 H 0.24194 0.9336 0.71517 0.0
O129 O 0.19984 0.98043 0.69109 0.0
H130 H 0.32053 0.96551 0.41368 0.0
H131 H 0.18039 0.02439 0.33475 0.0
H132 H 0.25099 0.07196 0.63422 0.0
H133 H 0.28998 0.00632 0.5265 0.0
H134 H 0.2063 0.99005 0.48415 0.0
O135 O 0.30354 0.98087 0.02791 0.0
H136 H 0.2528 0.07274 0.07921 0.0
H137 H 0.29574 0.99069 0.23458 0.0
H138 H 0.23058 0.10543 0.4737 0.0
H139 H 0.27081 0.89209 0.60382 0.0
H140 H 0.19407 0.08193 0.32421 0.0
H141 H 0.31049 0.90799 0.45146 0.0
O142 O 0.21594 0.03874 0.79662 0.0
H143 H 0.2324 0.89277 0.11595 0.0
H144 H 0.21257 0.00719 0.18827 0.0
H145 H 0.18171 0.96656 0.30074 0.0
H146 H 0.19212 0.909 0.2657 0.0
H147 H 0.26145 0.934 0.00437 0.0
H148 H 0.3216 0.02506 0.38401 0.0
H149 H 0.30841 0.08275 0.39276 0.0
O150 O 0.22196 0.03036 0.98932 0.0
C151 C 0.29496 0.04381 0.8116 0.0
C152 C 0.27808 0.08101 0.2395 0.0
C153 C 0.30489 0.03521 0.3214 0.0
N154 N 0.27269 0.02946 0.14723 0.0
C155 C 0.2661 0.06155 0.14972 0.0
C156 C 0.29081 0.01604 0.2346 0.0
C157 C 0.298 0.06776 0.32498 0.0
C158 C 0.25856 0.94079 0.64747 0.0
N159 N 0.26376 0.97245 0.62446 0.0
C160 C 0.27509 0.91712 0.58529 0.0
C161 C 0.29737 0.92604 0.5 0.0
C162 C 0.30293 0.95836 0.47849 0.0
C163 C 0.28572 0.98132 0.54196 0.0
C164 C 0.19741 0.03447 0.39638 0.0
C165 C 0.23728 0.06072 0.5649 0.0
C166 C 0.2116 0.01532 0.483 0.0
N167 N 0.23032 0.02872 0.5688 0.0
C168 C 0.2251 0.08013 0.4754 0.0
C169 C 0.20465 0.06693 0.39155 0.0
C170 C 0.20826 0.04409 0.90308 0.0
C171 C 0.228 0.91784 0.13344 0.0
C172 C 0.21701 0.98216 0.1739 0.0
C173 C 0.19963 0.95931 0.23722 0.0
C174 C 0.20538 0.92695 0.21723 0.0
N175 N 0.23933 0.9731 0.09285 0.0
C176 C 0.24467 0.94137 0.07123 0.0
Co177 Co 1.00103 0.76023 0.26133 0.0
Co178 Co 1.00185 0.7454 0.96752 0.0
O179 O 0.0246 0.75307 0.11527 0.0
C180 C 0.0434 0.81817 0.26628 0.0
O181 O 0.03263 0.82671 0.16216 0.0
C182 C 0.0445 0.6875 0.96439 0.0
O183 O 0.03275 0.67812 0.06592 0.0
O184 O 0.97639 0.70985 0.03583 0.0
O185 O 0.96709 0.72882 0.21548 0.0
H186 H 0.90285 0.72109 0.73371 0.0
H187 H 0.07115 0.74941 0.29713 0.0
O188 O 0.03404 0.79219 0.31323 0.0
H189 H 0.01964 0.64969 0.42822 0.0
H190 H 0.9887 0.80324 0.66561 0.0
H191 H 0.93161 0.76241 0.32106 0.0
H192 H 0.9868 0.69502 0.36398 0.0
H193 H 0.0189 0.77718 0.50901 0.0
O194 O 0.03562 0.71387 0.91901 0.0
H195 H 0.93272 0.74289 0.90114 0.0
H196 H 0.02115 0.72743 0.72253 0.0
H197 H 0.9006 0.7826 0.48807 0.0
H198 H 0.10464 0.70527 0.36892 0.0
H199 H 0.92925 0.80459 0.66213 0.0
H200 H 0.07898 0.65464 0.43363 0.0
O201 O 0.97542 0.79547 0.19118 0.0
H202 H 0.10505 0.80121 0.86151 0.0
H203 H 0.98715 0.81053 0.86456 0.0
H204 H 0.01951 0.85562 0.79616 0.0
H205 H 0.07889 0.85119 0.79214 0.0
H206 H 0.072 0.75712 0.9355 0.0
H207 H 0.99221 0.69899 0.5684 0.0
H208 H 0.9327 0.69758 0.5655 0.0
O209 O 0.96728 0.77639 0.0106 0.0
C210 C 0.96161 0.70896 0.13329 0.0
C211 C 0.92882 0.72243 0.7306 0.0
C212 C 0.9789 0.71062 0.63595 0.0
N213 N 0.97897 0.73723 0.82188 0.0
C214 C 0.94604 0.73572 0.82415 0.0
C215 C 0.99527 0.72604 0.72653 0.0
C216 C 0.94551 0.70924 0.63656 0.0
C217 C 0.05941 0.72825 0.33016 0.0
N218 N 0.02657 0.72575 0.32987 0.0
C219 C 0.07872 0.70297 0.36874 0.0
C220 C 0.06439 0.67453 0.40443 0.0
C221 C 0.0311 0.67171 0.40091 0.0
C222 C 0.01254 0.69762 0.36298 0.0
C223 C 0.97596 0.79258 0.59443 0.0
C224 C 0.94441 0.76911 0.40001 0.0
C225 C 0.99302 0.77835 0.50309 0.0
N226 N 0.97733 0.76783 0.40517 0.0
C227 C 0.92655 0.78143 0.49342 0.0
C228 C 0.94257 0.7938 0.59069 0.0
C229 C 0.96112 0.79616 0.09243 0.0
C230 C 0.07911 0.80325 0.8609 0.0
C231 C 0.0129 0.80804 0.86517 0.0
C232 C 0.03118 0.83385 0.82518 0.0
C233 C 0.0645 0.83132 0.82253 0.0
N234 N 0.02718 0.78016 0.90008 0.0
C235 C 0.06004 0.77799 0.90085 0.0
Co236 Co 0.74307 0.00489 0.00767 0.0
Co237 Co 0.76633 0.00437 0.71751 0.0
O238 O 0.75492 0.02776 0.8624 0.0
C239 C 0.68665 0.04927 0.96096 0.0
O240 O 0.69737 0.05725 0.85639 0.0
C241 C 0.82386 0.04741 0.76471 0.0
O242 O 0.81269 0.0566 0.8673 0.0
O243 O 0.78904 0.96987 0.80671 0.0
O244 O 0.784 0.98084 -0.00188 0.0
H245 H 0.77457 0.90422 0.47625 0.0
H246 H 0.7439 0.07644 0.00294 0.0
O247 O 0.70158 0.02888 0.02368 0.0
H248 H 0.81971 0.04549 0.31612 0.0
H249 H 0.68333 0.98676 0.38629 0.0
H250 H 0.75256 0.93792 0.08551 0.0
H251 H 0.79038 0.00428 0.201 0.0
H252 H 0.70811 0.02025 0.23226 0.0
O253 O 0.80855 0.02726 0.70203 0.0
H254 H 0.75539 0.93759 0.63948 0.0
H255 H 0.80192 0.01885 0.49369 0.0
H256 H 0.73254 0.90495 0.24828 0.0
H257 H 0.77128 0.11827 0.11765 0.0
H258 H 0.69692 0.92914 0.39883 0.0
H259 H 0.80957 0.10287 0.27591 0.0
O260 O 0.71953 0.97086 0.91895 0.0
H261 H 0.74083 0.1183 0.6062 0.0
H262 H 0.71872 0.00471 0.52533 0.0
H263 H 0.69008 0.04651 0.41064 0.0
H264 H 0.70174 0.10365 0.44959 0.0
H265 H 0.76745 0.07596 0.7206 0.0
H266 H 0.82562 0.98492 0.33871 0.0
H267 H 0.81065 0.92763 0.32564 0.0
O268 O 0.72476 0.9811 0.72707 0.0
C269 C 0.79704 0.96575 0.91389 0.0
C270 C 0.78071 0.92936 0.47942 0.0
C271 C 0.80899 0.97478 0.40149 0.0
N272 N 0.77705 0.98045 0.57594 0.0
C273 C 0.76934 0.94866 0.57061 0.0
C274 C 0.7959 0.99375 0.49068 0.0
C275 C 0.80095 0.94251 0.395 0.0
C276 C 0.7598 0.06943 0.07331 0.0
N277 N 0.76495 0.03783 0.0978 0.0
C278 C 0.77554 0.0933 0.13739 0.0
C279 C 0.79704 0.08465 0.226 0.0
C280 C 0.80261 0.0524 0.24899 0.0
C281 C 0.78613 0.02922 0.18382 0.0
C282 C 0.69978 0.97628 0.3236 0.0
C283 C 0.73887 0.94929 0.15446 0.0
C284 C 0.71342 0.99499 0.23485 0.0
N285 N 0.73191 0.98127 0.14941 0.0
C286 C 0.72701 0.93024 0.24537 0.0
C287 C 0.70703 0.94381 0.32976 0.0
C288 C 0.71147 0.96647 0.81196 0.0
C289 C 0.73593 0.09341 0.58694 0.0
C290 C 0.72364 0.02956 0.54187 0.0
C291 C 0.70756 0.05307 0.47698 0.0
C292 C 0.71398 0.0852 0.49927 0.0
N293 N 0.74525 0.03775 0.62701 0.0
C294 C 0.75124 0.06924 0.65082 0.0
Co295 Co 1.00285 0.26705 0.96636 0.0
Co296 Co 1.0024 0.24473 0.25941 0.0
O297 O 0.97982 0.25684 0.11323 0.0
C298 C 0.95712 0.32288 0.00362 0.0
O299 O 0.94747 0.31195 0.10589 0.0
C300 C 0.97973 0.17724 0.29378 0.0
O301 O 0.00942 0.16708 0.28209 0.0
O302 O 0.03421 0.21804 0.17278 0.0
O303 O 0.02714 0.22615 0.9803 0.0
H304 H 0.10307 0.2261 0.49098 0.0
H305 H 0.93072 0.26564 0.97401 0.0
O306 O 0.97885 0.30844 0.94547 0.0
H307 H 0.96134 0.18811 0.66845 0.0
H308 H 0.02429 0.32674 0.59012 0.0
H309 H 0.06959 0.25462 0.88806 0.0
H310 H 1.00303 0.21857 0.77944 0.0
H311 H 0.9889 0.30258 0.73977 0.0
O312 O 0.97303 0.2067 0.27726 0.0
H313 H 0.07049 0.24872 0.33171 0.0
H314 H 0.98516 0.21426 0.4925 0.0
H315 H 0.1036 0.27307 0.72648 0.0
H316 H 0.88861 0.23733 0.86417 0.0
H317 H 0.08135 0.31041 0.57796 0.0
H318 H 0.90383 0.19811 0.70988 0.0
O319 O 0.03701 0.29111 0.05183 0.0
H320 H 0.89112 0.28009 0.37208 0.0
H321 H 0.00706 0.29588 0.43888 0.0
H322 H 0.96771 0.32901 0.54961 0.0
H323 H 0.90944 0.32068 0.51726 0.0
H324 H 0.93111 0.24857 0.26209 0.0
H325 H 0.0182 0.18487 0.63862 0.0
H326 H 0.07706 0.19272 0.64377 0.0
O327 O 0.0306 0.28293 0.2448 0.0
C328 C 0.03998 0.21128 0.06583 0.0
C329 C 0.07721 0.22323 0.4918 0.0
C330 C 0.0294 0.20075 0.57604 0.0
N331 N 0.02566 0.23295 0.40206 0.0
C332 C 0.05838 0.23669 0.40301 0.0
C333 C 0.01099 0.21671 0.49119 0.0
C334 C 0.06261 0.20458 0.57759 0.0
C335 C 0.93775 0.24952 0.9049 0.0
N336 N 0.96948 0.24459 0.87946 0.0
C337 C 0.91367 0.23319 0.84369 0.0
C338 C 0.92221 0.21116 0.75729 0.0
C339 C 0.95457 0.20569 0.73371 0.0
C340 C 0.97798 0.22282 0.79597 0.0
C341 C 0.03371 0.30929 0.65121 0.0
C342 C 0.05865 0.26856 0.81889 0.0
C343 C 0.01402 0.29608 0.73816 0.0
N344 N 0.02679 0.27681 0.82344 0.0
C345 C 0.07844 0.27965 0.72876 0.0
C346 C 0.06594 0.30055 0.64538 0.0
C347 C 0.04385 0.29715 0.15876 0.0
C348 C 0.91653 0.28368 0.3881 0.0
C349 C 0.98169 0.29241 0.42536 0.0
C350 C 0.95959 0.31105 0.4878 0.0
C351 C 0.92681 0.30646 0.46936 0.0
N352 N 0.97146 0.27003 0.3466 0.0
C353 C 0.93932 0.26573 0.32669 0.0
Co354 Co 0.7426 0.50249 0.22362 0.0
Co355 Co 0.76581 0.50192 0.51479 0.0
O356 O 0.75391 0.47917 0.36887 0.0
C357 C 0.68561 0.45888 0.26816 0.0
O358 O 0.69579 0.45138 0.37409 0.0
C359 C 0.82084 0.45548 0.47254 0.0
O360 O 0.80838 0.44508 0.37343 0.0
O361 O 0.78974 0.53574 0.42719 0.0
O362 O 0.78375 0.52621 0.23507 0.0
H363 H 0.77629 0.60168 0.75716 0.0
H364 H 0.74228 0.43097 0.22585 0.0
O365 O 0.70094 0.47888 0.20532 0.0
H366 H 0.82009 0.4613 0.91982 0.0
H367 H 0.68339 0.52226 0.84403 0.0
H368 H 0.75308 0.56947 0.14771 0.0
H369 H 0.79075 0.50281 0.03344 0.0
H370 H 0.70767 0.48806 -0.00244 0.0
O371 O 0.80727 0.47759 0.53125 0.0
H372 H 0.75624 0.56881 0.59394 0.0
H373 H 0.80151 0.48656 0.73873 0.0
H374 H 0.73374 0.60302 0.98519 0.0
H375 H 0.76961 0.38895 0.11232 0.0
H376 H 0.69785 0.57966 0.83322 0.0
H377 H 0.80894 0.40405 0.95777 0.0
O378 O 0.71919 0.53659 0.31234 0.0
H379 H 0.7346 0.38896 0.62191 0.0
H380 H 0.71882 0.5033 0.70765 0.0
H381 H 0.68822 0.46274 0.82105 0.0
H382 H 0.69674 0.4052 0.77985 0.0
H383 H 0.76299 0.43007 0.50852 0.0
H384 H 0.8263 0.52006 0.89307 0.0
H385 H 0.81234 0.57755 0.90689 0.0
O386 O 0.72503 0.52651 0.50428 0.0
C387 C 0.7974 0.54044 0.32021 0.0
C388 C 0.78196 0.57642 0.75377 0.0
C389 C 0.80965 0.53048 0.83075 0.0
N390 N 0.77714 0.52545 0.65694 0.0
C391 C 0.77005 0.55739 0.66261 0.0
C392 C 0.79596 0.51177 0.74183 0.0
C393 C 0.80218 0.56288 0.83768 0.0
C394 C 0.7586 0.43789 0.15688 0.0
N395 N 0.76434 0.46946 0.13369 0.0
C396 C 0.77431 0.41389 0.09352 0.0
C397 C 0.79639 0.42236 0.00701 0.0
C398 C 0.80253 0.45456 0.9853 0.0
C399 C 0.78605 0.47789 0.0496 0.0
C400 C 0.69998 0.53235 0.90731 0.0
C401 C 0.73934 0.55841 0.07804 0.0
C402 C 0.71333 0.51324 -0.00421 0.0
N403 N 0.73195 0.52652 0.08205 0.0
C404 C 0.72785 0.57781 0.98729 0.0
C405 C 0.70771 0.5647 0.90212 0.0
C406 C 0.71162 0.54121 0.41958 0.0
C407 C 0.73112 0.41401 0.64239 0.0
C408 C 0.72243 0.47827 0.6902 0.0
C409 C 0.70522 0.45547 0.75436 0.0
C410 C 0.70986 0.42312 0.73076 0.0
N411 N 0.74339 0.46923 0.60437 0.0
C412 C 0.74754 0.43752 0.57916 0.0
Co413 Co 0.5023 0.26063 0.76214 0.0
Co414 Co 0.50309 0.24601 0.46839 0.0
O415 O 0.52591 0.25342 0.61619 0.0
C416 C 0.54506 0.31835 0.76977 0.0
O417 O 0.53416 0.32749 0.66652 0.0
C418 C 0.5454 0.18778 0.46187 0.0
O419 O 0.53327 0.17775 0.56193 0.0
O420 O 0.47762 0.21042 0.53627 0.0
O421 O 0.46801 0.22965 0.71533 0.0
H422 H 0.40396 0.22202 0.23487 0.0
H423 H 0.57227 0.24892 0.79869 0.0
O424 O 0.53568 0.29214 0.81497 0.0
H425 H 0.51941 0.14968 0.92761 0.0
H426 H 0.49006 0.30383 0.16614 0.0
H427 H 0.43283 0.26329 0.82143 0.0
H428 H 0.48719 0.19547 0.86369 0.0
H429 H 0.52013 0.27743 0.01007 0.0
O430 O 0.5369 0.21457 0.41889 0.0
H431 H 0.43391 0.24366 0.40236 0.0
H432 H 0.52226 0.22834 0.22297 0.0
H433 H 0.40189 0.28375 0.98811 0.0
H434 H 0.60514 0.20431 0.87041 0.0
H435 H 0.43061 0.30561 0.16226 0.0
H436 H 0.5788 0.15392 0.93404 0.0
O437 O 0.47716 0.29622 0.69222 0.0
H438 H 0.6062 0.30228 0.36462 0.0
H439 H 0.48825 0.311 0.36502 0.0
H440 H 0.52049 0.35628 0.29756 0.0
H441 H 0.57989 0.35217 0.29505 0.0
H442 H 0.57322 0.25797 0.43761 0.0
H443 H 0.49325 0.20013 0.06861 0.0
H444 H 0.43373 0.19866 0.06614 0.0
O445 O 0.46853 0.27699 0.5122 0.0
C446 C 0.46256 0.20975 0.63319 0.0
C447 C 0.42993 0.22334 0.23163 0.0
C448 C 0.47996 0.21161 0.13652 0.0
N449 N 0.48013 0.23804 0.32277 0.0
C450 C 0.4472 0.23655 0.32521 0.0
C451 C 0.49638 0.22693 0.22719 0.0
C452 C 0.44657 0.21023 0.13732 0.0
C453 C 0.56023 0.22786 0.83122 0.0
N454 N 0.52737 0.22575 0.83041 0.0
C455 C 0.5792 0.20232 0.86976 0.0
C456 C 0.56448 0.17401 0.90483 0.0
C457 C 0.53117 0.17158 0.90073 0.0
C458 C 0.51296 0.19775 0.86287 0.0
C459 C 0.47727 0.29324 0.09492 0.0
C460 C 0.44565 0.26989 0.90044 0.0
C461 C 0.49427 0.27882 0.00383 0.0
N462 N 0.47856 0.26835 0.90585 0.0
C463 C 0.42783 0.28239 -0.00634 0.0
C464 C 0.44389 0.29468 0.09096 0.0
C465 C 0.46269 0.29692 0.59384 0.0
C466 C 0.58025 0.30419 0.36346 0.0
C467 C 0.51401 0.30865 0.36621 0.0
C468 C 0.53223 0.33457 0.32676 0.0
C469 C 0.56556 0.33221 0.32494 0.0
N470 N 0.52837 0.28085 0.40144 0.0
C471 C 0.56124 0.27882 0.40285 0.0
H472 H 0.44368 0.62742 0.71934 0.0
H473 H 0.34243 0.61054 0.31754 0.0
H474 H 0.43611 0.70231 0.9798 0.0
H475 H 0.35531 0.5338 0.06774 0.0
H476 H 0.37698 0.64451 0.19598 0.0
H477 H 0.41079 0.59293 0.84501 0.0
C478 C 0.43502 0.63668 0.8025 0.0
C479 C 0.44279 0.66783 0.83877 0.0
C480 C 0.37267 0.62007 0.16875 0.0
C481 C 0.4053 0.62837 0.98382 0.0
C482 C 0.35305 0.60061 0.23856 0.0
C483 C 0.3459 0.56928 0.20284 0.0
C484 C 0.38549 0.60802 0.06304 0.0
C485 C 0.35998 0.55788 0.09845 0.0
C486 C 0.41636 0.61692 0.8746 0.0
C487 C 0.43091 0.67846 0.94797 0.0
N488 N 0.37895 0.57723 0.03223 0.0
N489 N 0.41284 0.6588 0.01639 0.0
H490 H 0.43174 0.80442 0.25216 0.0
H491 H 0.35124 0.9767 0.16922 0.0
H492 H 0.44479 0.88239 0.49714 0.0
H493 H 0.34407 0.9013 0.91087 0.0
H494 H 0.38613 0.94283 0.28828 0.0
H495 H 0.39941 0.83928 0.12734 0.0
C496 C 0.42781 0.82888 0.2801 0.0
C497 C 0.4412 0.84046 0.38569 0.0
C498 C 0.37719 0.93371 0.20518 0.0
C499 C 0.40412 0.88072 0.24158 0.0
C500 C 0.35722 0.95308 0.13684 0.0
C501 C 0.34441 0.94177 0.03001 0.0
C502 C 0.38452 0.90264 0.167 0.0
C503 C 0.35341 0.91107 -0.00768 0.0
C504 C 0.40938 0.84883 0.20816 0.0
C505 C 0.43496 0.87235 0.41691 0.0
N506 N 0.3727 0.89248 0.0612 0.0
N507 N 0.41693 0.89135 0.34516 0.0
H508 H 0.06318 0.87933 0.21357 0.0
H509 H 0.16282 0.90087 0.81447 0.0
H510 H 0.07147 0.80601 0.47966 0.0
H511 H 0.15003 0.97583 0.55749 0.0
H512 H 0.12862 0.86595 0.69474 0.0
H513 H 0.09523 0.91504 0.33813 0.0
C514 C 0.07184 0.87067 0.29771 0.0
C515 C 0.06451 0.83963 0.33601 0.0
C516 C 0.13284 0.89022 0.66557 0.0
C517 C 0.10095 0.88045 0.4797 0.0
C518 C 0.15224 0.91021 0.73435 0.0
C519 C 0.15935 0.94127 0.69585 0.0
C520 C 0.12025 0.90148 0.5582 0.0
C521 C 0.14537 0.95196 0.59016 0.0
C522 C 0.09 0.89112 0.36917 0.0
C523 C 0.07634 0.82977 0.44636 0.0
N524 N 0.12664 0.93209 0.52492 0.0
N525 N 0.09389 0.85008 0.51414 0.0
H526 H 0.06297 0.62555 0.01141 0.0
H527 H 0.16404 0.60731 0.41365 0.0
H528 H 0.07429 0.70118 0.75595 0.0
H529 H 0.1513 0.53116 0.66565 0.0
H530 H 0.12955 0.64157 0.53444 0.0
H531 H 0.09492 0.59035 0.88498 0.0
C532 C 0.07228 0.63482 0.92927 0.0
C533 C 0.0658 0.66636 0.89441 0.0
C534 C 0.13388 0.61719 0.56233 0.0
C535 C 0.10206 0.62612 0.74845 0.0
C536 C 0.1534 0.59757 0.49287 0.0
C537 C 0.16063 0.56638 0.52974 0.0
C538 C 0.1213 0.60543 0.66879 0.0
C539 C 0.14656 0.55516 0.63428 0.0
C540 C 0.09037 0.61467 0.85669 0.0
C541 C 0.07845 0.67701 0.7865 0.0
N542 N 0.12773 0.57468 0.70029 0.0
N543 N 0.09587 0.65695 0.71749 0.0
H544 H 0.86455 0.02477 0.59644 0.0
H545 H 0.92492 0.19653 0.40621 0.0
H546 H 0.84331 0.10941 0.79934 0.0
H547 H 0.98075 0.11208 0.32803 0.0
H548 H 0.88942 0.16424 0.52858 0.0
H549 H 0.90322 0.05561 0.48032 0.0
C550 C 0.86842 0.04974 0.61775 0.0
C551 C 0.85083 0.06454 0.70812 0.0
C552 C 0.90942 0.1528 0.48452 0.0
C553 C 0.8943 0.10006 0.57338 0.0
C554 C 0.92951 0.1711 0.41316 0.0
C555 C 0.95589 0.15698 0.35595 0.0
C556 C 0.91532 0.11998 0.49774 0.0
C557 C 0.9607 0.12395 0.37017 0.0
C558 C 0.89041 0.06729 0.55128 0.0
C559 C 0.85661 0.09699 0.73139 0.0
N560 N 0.94052 0.10651 0.43924 0.0
N561 N 0.87753 0.11381 0.66326 0.0
H562 H 0.8918 0.32817 -0.00268 0.0
H563 H 0.87396 0.47732 0.58765 0.0
H564 H 0.9784 0.36973 0.85621 0.0
H565 H 0.82129 0.39117 0.5084 0.0
H566 H 0.90859 0.44652 0.72252 0.0
H567 H 0.86004 0.36068 0.85891 0.0
C568 C 0.90403 0.34481 0.93966 0.0
C569 C 0.93769 0.34665 0.93891 0.0
C570 C 0.88972 0.43441 0.67409 0.0
C571 C 0.90172 0.38346 0.78122 0.0
C572 C 0.87021 0.4518 0.59685 0.0
C573 C 0.84534 0.4365 0.53508 0.0
C574 C 0.88331 0.4019 0.6931 0.0
C575 C 0.84076 0.4036 0.5523 0.0
C576 C 0.88598 0.36289 0.85985 0.0
C577 C 0.95245 0.36794 0.8601 0.0
N578 N 0.85924 0.38743 0.6314 0.0
N579 N 0.93435 0.38575 0.78474 0.0
H580 H 0.66483 0.3983 0.32265 0.0
H581 H 0.56455 0.3799 0.7218 0.0
H582 H 0.65063 0.475 0.07375 0.0
H583 H 0.57346 0.30503 0.98169 0.0
H584 H 0.59649 0.41503 0.84899 0.0
H585 H 0.63081 0.36388 0.20035 0.0
C586 C 0.65394 0.40814 0.24389 0.0
C587 C 0.66061 0.43956 0.20841 0.0
C588 C 0.59141 0.39089 0.87809 0.0
C589 C 0.6217 0.40032 0.06777 0.0
C590 C 0.57333 0.37077 0.80511 0.0
C591 C 0.5662 0.33946 0.84091 0.0
C592 C 0.6025 0.37963 0.98763 0.0
C593 C 0.57817 0.329 0.9503 0.0
C594 C 0.63465 0.38842 0.17361 0.0
C595 C 0.64627 0.45086 0.10422 0.0
N596 N 0.59565 0.34901 0.01959 0.0
N597 N 0.62764 0.43125 0.03747 0.0
H598 H 0.6659 0.11007 0.90847 0.0
H599 H 0.56305 0.12531 0.50332 0.0
H600 H 0.65087 0.03222 0.15159 0.0
H601 H 0.57583 0.20258 0.2556 0.0
H602 H 0.59486 0.09065 0.37452 0.0
H603 H 0.63134 0.14391 0.03069 0.0
C604 C 0.65476 0.09988 0.98598 0.0
C605 C 0.66137 0.06831 0.01998 0.0
C606 C 0.59067 0.11521 0.34843 0.0
C607 C 0.62199 0.10691 0.16079 0.0
C608 C 0.57266 0.13506 0.42239 0.0
C609 C 0.56663 0.16691 0.39044 0.0
C610 C 0.60277 0.12728 0.2417 0.0
C611 C 0.57965 0.17816 0.28394 0.0
C612 C 0.63521 0.11927 0.0563 0.0
C613 C 0.64663 0.05652 0.12242 0.0
N614 N 0.59701 0.15839 0.21354 0.0
N615 N 0.62781 0.07583 0.18936 0.0
H616 H 0.32567 0.4535 0.63358 0.0
H617 H 0.42872 0.30662 0.39079 0.0
H618 H 0.3283 0.42478 0.26835 0.0
H619 H 0.44079 0.34447 0.74217 0.0
H620 H 0.38981 0.34831 0.34921 0.0
H621 H 0.36587 0.41265 0.67892 0.0
C622 C 0.33472 0.43868 0.5628 0.0
C623 C 0.32346 0.44258 0.44687 0.0
C624 C 0.40097 0.34763 0.4354 0.0
C625 C 0.36946 0.39571 0.49855 0.0
C626 C 0.42327 0.32371 0.45954 0.0
C627 C 0.43836 0.32204 0.57018 0.0
C628 C 0.39326 0.37008 0.52263 0.0
C629 C 0.42992 0.34487 0.65551 0.0
C630 C 0.35773 0.4154 0.58887 0.0
C631 C 0.33622 0.42273 0.3589 0.0
N632 N 0.40787 0.36795 0.62997 0.0
N633 N 0.3584 0.40011 0.38671 0.0
H634 H 0.68253 0.92452 0.96367 0.0
H635 H 0.567 0.84536 0.47875 0.0
H636 H 0.68287 0.95345 0.5987 0.0
H637 H 0.58063 0.80863 0.83083 0.0
H638 H 0.60696 0.88706 0.52097 0.0
H639 H 0.64222 0.88419 0.91712 0.0
C640 C 0.6741 0.92248 0.87366 0.0
C641 C 0.68628 0.94241 0.78492 0.0
C642 C 0.6011 0.86982 0.58872 0.0
C643 C 0.63992 0.89601 0.73078 0.0
C644 C 0.57828 0.84603 0.56475 0.0
C645 C 0.5702 0.82345 0.65142 0.0
C646 C 0.61578 0.87113 0.70027 0.0
C647 C 0.5858 0.82548 0.76113 0.0
C648 C 0.65109 0.89932 0.84701 0.0
C649 C 0.67433 0.93851 0.66984 0.0
N650 N 0.60765 0.84887 0.78231 0.0
N651 N 0.65181 0.91578 0.64606 0.0
H652 H 0.05765 0.18732 0.8503 0.0
H653 H 0.18497 0.06295 0.1179 0.0
H654 H 0.07622 0.1764 0.22231 0.0
H655 H 0.17273 0.07936 0.74514 0.0
H656 H 0.14337 0.10267 0.15743 0.0
H657 H 0.09782 0.14609 0.80971 0.0
C658 C 0.07009 0.17625 0.92349 0.0
C659 C 0.06348 0.18548 0.03991 0.0
C660 C 0.14975 0.09759 0.06695 0.0
C661 C 0.10955 0.13809 -0.006 0.0
C662 C 0.17356 0.07488 0.04426 0.0
C663 C 0.18256 0.0678 0.92798 0.0
C664 C 0.13461 0.11338 0.97278 0.0
C665 C 0.16671 0.08401 0.83624 0.0
C666 C 0.09305 0.15268 0.90022 0.0
C667 C 0.08035 0.1701 0.13114 0.0
N668 N 0.14356 0.10601 0.86064 0.0
N669 N 0.10256 0.14724 0.1062 0.0
H670 H 0.94046 0.66138 0.98329 0.0
H671 H 0.82676 0.58232 0.47172 0.0
H672 H 0.92721 0.69886 0.33448 0.0
H673 H 0.82547 0.55322 0.10681 0.0
H674 H 0.86688 0.62273 0.42403 0.0
H675 H 0.90097 0.61946 0.02723 0.0
C676 C 0.92935 0.66084 0.06942 0.0
C677 C 0.93739 0.68366 0.15538 0.0
C678 C 0.85782 0.60753 0.35423 0.0
C679 C 0.89241 0.63576 0.20621 0.0
C680 C 0.83495 0.58433 0.38155 0.0
C681 C 0.82256 0.56439 0.29307 0.0
C682 C 0.86859 0.61081 0.23766 0.0
C683 C 0.83417 0.56821 0.17771 0.0
C684 C 0.90681 0.63692 0.09439 0.0
C685 C 0.92205 0.6818 0.26534 0.0
N686 N 0.85654 0.59097 0.1533 0.0
N687 N 0.90048 0.65828 0.28751 0.0
H688 H 0.32535 0.08434 0.9654 0.0
H689 H 0.44063 0.163 0.48131 0.0
H690 H 0.3226 0.05758 0.59809 0.0
H691 H 0.42793 0.19966 0.83392 0.0
H692 H 0.40017 0.12183 0.52303 0.0
H693 H 0.36627 0.12413 0.91987 0.0
C694 C 0.33337 0.08674 0.87515 0.0
C695 C 0.32038 0.06758 0.78545 0.0
C696 C 0.40634 0.13895 0.591 0.0
C697 C 0.36738 0.11327 0.73258 0.0
C698 C 0.42945 0.16241 0.56732 0.0
C699 C 0.43792 0.18479 0.6543 0.0
C700 C 0.39181 0.13777 0.70257 0.0
C701 C 0.42245 0.18293 0.76403 0.0
C702 C 0.35672 0.10957 0.84911 0.0
C703 C 0.33181 0.07189 0.67005 0.0
N704 N 0.40033 0.15983 0.78495 0.0
N705 N 0.35467 0.09426 0.64693 0.0
H706 H 0.82496 0.95356 0.12825 0.0
H707 H 0.92721 0.80556 0.88912 0.0
H708 H 0.82574 0.92266 0.76536 0.0
H709 H 0.93888 0.84366 0.24029 0.0
H710 H 0.88808 0.84699 0.84694 0.0
H711 H 0.8648 0.91246 0.17479 0.0
C712 C 0.83348 0.93816 0.05829 0.0
C713 C 0.82184 0.94155 0.94266 0.0
C714 C 0.89918 0.84641 0.93325 0.0
C715 C 0.8675 0.89445 -0.0044 0.0
C716 C 0.92161 0.82264 0.95772 0.0
C717 C 0.93665 0.82112 0.06848 0.0
C718 C 0.89132 0.86889 0.02021 0.0
C719 C 0.92804 0.84395 0.15357 0.0
C720 C 0.8563 0.91475 0.08501 0.0
C721 C 0.83396 0.92101 0.85566 0.0
N722 N 0.90589 0.86691 0.12766 0.0
N723 N 0.85602 0.89832 0.88405 0.0
H724 H 0.06465 0.31834 0.37422 0.0
H725 H 0.18842 0.44591 0.10818 0.0
H726 H 0.07924 0.33258 0.00168 0.0
H727 H 0.17798 0.42755 0.48026 0.0
H728 H 0.14768 0.40535 0.06758 0.0
H729 H 0.10528 0.35902 0.41486 0.0
C730 C 0.07642 0.32995 0.30092 0.0
C731 C 0.06849 0.32187 0.18438 0.0
C732 C 0.15429 0.41018 0.15811 0.0
C733 C 0.11506 0.36875 0.23032 0.0
C734 C 0.17761 0.43336 0.18142 0.0
C735 C 0.1868 0.44018 0.29784 0.0
C736 C 0.13989 0.39365 0.25185 0.0
C737 C 0.17175 0.42317 0.38908 0.0
C738 C 0.09963 0.35324 0.32421 0.0
C739 C 0.0845 0.33794 0.09298 0.0
N740 N 0.14907 0.40073 0.3641 0.0
N741 N 0.10697 0.36058 0.11795 0.0
H742 H 0.58033 0.70093 0.38719 0.0
H743 H 0.68403 0.55438 0.63373 0.0
H744 H 0.56909 0.66386 0.73964 0.0
H745 H 0.68241 0.58361 0.26915 0.0
H746 H 0.64398 0.59549 0.67814 0.0
H747 H 0.6198 0.65957 0.34707 0.0
C748 C 0.58609 0.68409 0.45646 0.0
C749 C 0.57105 0.68589 0.56698 0.0
C750 C 0.65235 0.59284 0.58845 0.0
C751 C 0.6168 0.63822 0.52117 0.0
C752 C 0.67529 0.5694 0.56296 0.0
C753 C 0.68674 0.5655 0.44745 0.0
C754 C 0.64084 0.61267 0.49796 0.0
C755 C 0.67434 0.58562 0.35942 0.0
C756 C 0.60871 0.66037 0.43322 0.0
C757 C 0.57989 0.66336 0.65302 0.0
N758 N 0.65219 0.60833 0.38662 0.0
N759 N 0.60221 0.64048 0.62832 0.0
loop_
_geom_bond_atom_site_label_1
_geom_bond_atom_site_label_2
_geom_bond_distance
_geom_bond_site_symmetry_2
_ccdc_geom_bond_type
Co0 O2 2.143 . S
Co0 O8 2.074 . S
Co0 O11 2.093 . S
Co0 O24 2.097 . S
Co0 N41 2.151 . S
Co0 N49 2.214 . S
Co1 O2 2.160 . S
Co1 O7 2.058 . S
Co1 O17 2.057 . S
Co1 O32 2.037 . S
Co1 N36 2.145 . S
Co1 N57 2.257 . S
O2 Co0 2.143 . S
O2 Co1 2.160 . S
C3 O4 1.278 . S
C3 O11 1.224 . S
O4 C3 1.278 . S
C5 O6 1.245 . S
C5 O17 1.232 . S
O6 C5 1.245 . S
O7 Co1 2.058 . S
O7 C33 1.269 . S
O8 Co0 2.074 . S
O8 C33 1.257 . S
H9 C34 0.930 . S
H10 C40 0.930 . S
O11 Co0 2.093 . S
O11 C3 1.224 . S
H12 C44 0.929 . S
H13 C46 0.930 . S
H14 C47 0.930 . S
H15 C45 0.929 . S
H16 C48 0.928 . S
O17 Co1 2.057 . S
O17 C5 1.232 . S
H18 C37 0.929 . S
H19 C38 0.929 . S
H20 C50 0.931 . S
H21 C42 0.929 . S
H22 C51 0.930 . S
H23 C43 0.931 . S
O24 Co0 2.097 . S
O24 C52 1.214 . S
H25 C53 0.929 . S
H26 C54 0.929 . S
H27 C55 0.930 1_556 S
H28 C56 0.929 1_556 S
H29 C58 0.930 . S
H30 C35 0.930 . S
H31 C39 0.930 . S
O32 Co1 2.037 . S
O32 C52 1.234 . S
C33 O7 1.269 . S
C33 O8 1.257 . S
C34 H9 0.930 . S
C34 C37 1.388 1_556 S
C34 C39 1.418 . S
C35 H30 0.930 . S
C35 C38 1.404 . S
C35 C39 1.353 . S
N36 Co1 2.145 . S
N36 C37 1.397 . S
N36 C38 1.334 1_554 S
C37 H18 0.929 . S
C37 C34 1.388 1_554 S
C37 N36 1.397 . S
C38 H19 0.929 . S
C38 C35 1.404 . S
C38 N36 1.334 1_556 S
C39 H31 0.930 . S
C39 C34 1.418 . S
C39 C35 1.353 . S
C40 H10 0.930 . S
C40 N41 1.330 . S
C40 C42 1.446 . S
N41 Co0 2.151 . S
N41 C40 1.330 . S
N41 C45 1.418 . S
C42 H21 0.929 . S
C42 C40 1.446 . S
C42 C43 1.332 . S
C43 H23 0.931 . S
C43 C42 1.332 . S
C43 C44 1.267 . S
C44 H12 0.929 . S
C44 C43 1.267 . S
C44 C45 1.251 . S
C45 H15 0.929 . S
C45 N41 1.418 . S
C45 C44 1.251 . S
C46 H13 0.930 . S
C46 C48 1.406 . S
C46 C51 1.261 . S
C47 H14 0.930 . S
C47 N49 1.325 . S
C47 C50 1.357 . S
C48 H16 0.928 . S
C48 C46 1.406 . S
C48 N49 1.261 . S
N49 Co0 2.214 . S
N49 C47 1.325 . S
N49 C48 1.261 . S
C50 H20 0.931 . S
C50 C47 1.357 . S
C50 C51 1.312 . S
C51 H22 0.930 . S
C51 C46 1.261 . S
C51 C50 1.312 . S
C52 O24 1.214 . S
C52 O32 1.234 . S
C53 H25 0.929 . S
C53 C56 1.391 . S
C53 C58 1.391 . S
C54 H26 0.929 . S
C54 C55 1.390 . S
C54 N57 1.391 . S
C55 H27 0.930 1_554 S
C55 C54 1.390 . S
C55 C56 1.392 . S
C56 H28 0.929 1_554 S
C56 C53 1.391 . S
C56 C55 1.392 . S
N57 Co1 2.257 . S
N57 C54 1.391 . S
N57 C58 1.388 . S
C58 H29 0.930 . S
C58 C53 1.391 . S
C58 N57 1.388 . S
Co59 O61 2.143 . S
Co59 O67 2.074 . S
Co59 O70 2.093 . S
Co59 O83 2.097 . S
Co59 N100 2.151 . S
Co59 N108 2.214 . S
Co60 O61 2.160 . S
Co60 O66 2.058 . S
Co60 O76 2.057 . S
Co60 O91 2.037 . S
Co60 N95 2.145 . S
Co60 N116 2.257 . S
O61 Co59 2.143 . S
O61 Co60 2.160 . S
C62 O63 1.278 . S
C62 O70 1.224 . S
O63 C62 1.278 . S
C64 O65 1.245 . S
C64 O76 1.232 . S
O65 C64 1.245 . S
O66 Co60 2.058 . S
O66 C92 1.269 . S
O67 Co59 2.074 . S
O67 C92 1.257 . S
H68 C93 0.930 . S
H69 C99 0.930 . S
O70 Co59 2.093 . S
O70 C62 1.224 . S
H71 C103 0.929 . S
H72 C105 0.930 . S
H73 C106 0.930 . S
H74 C104 0.929 . S
H75 C107 0.928 . S
O76 Co60 2.057 . S
O76 C64 1.232 . S
H77 C96 0.929 . S
H78 C97 0.929 . S
H79 C109 0.931 . S
H80 C101 0.929 . S
H81 C110 0.930 . S
H82 C102 0.931 . S
O83 Co59 2.097 . S
O83 C111 1.214 . S
H84 C112 0.929 . S
H85 C113 0.929 . S
H86 C114 0.930 1_554 S
H87 C115 0.929 1_554 S
H88 C117 0.930 . S
H89 C94 0.930 . S
H90 C98 0.930 . S
O91 Co60 2.037 . S
O91 C111 1.234 . S
C92 O66 1.269 . S
C92 O67 1.257 . S
C93 H68 0.930 . S
C93 C96 1.388 1_554 S
C93 C98 1.418 . S
C94 H89 0.930 . S
C94 C97 1.404 . S
C94 C98 1.353 . S
N95 Co60 2.145 . S
N95 C96 1.397 . S
N95 C97 1.334 1_556 S
C96 H77 0.929 . S
C96 C93 1.388 1_556 S
C96 N95 1.397 . S
C97 H78 0.929 . S
C97 C94 1.404 . S
C97 N95 1.334 1_554 S
C98 H90 0.930 . S
C98 C93 1.418 . S
C98 C94 1.353 . S
C99 H69 0.930 . S
C99 N100 1.330 . S
C99 C101 1.446 . S
N100 Co59 2.151 . S
N100 C99 1.330 . S
N100 C104 1.418 . S
C101 H80 0.929 . S
C101 C99 1.446 . S
C101 C102 1.332 . S
C102 H82 0.931 . S
C102 C101 1.332 . S
C102 C103 1.267 . S
C103 H71 0.929 . S
C103 C102 1.267 . S
C103 C104 1.251 . S
C104 H74 0.929 . S
C104 N100 1.418 . S
C104 C103 1.251 . S
C105 H72 0.930 . S
C105 C107 1.406 . S
C105 C110 1.261 . S
C106 H73 0.930 . S
C106 N108 1.325 . S
C106 C109 1.357 . S
C107 H75 0.928 . S
C107 C105 1.406 . S
C107 N108 1.261 . S
N108 Co59 2.214 . S
N108 C106 1.325 . S
N108 C107 1.261 . S
C109 H79 0.931 . S
C109 C106 1.357 . S
C109 C110 1.312 . S
C110 H81 0.930 . S
C110 C105 1.261 . S
C110 C109 1.312 . S
C111 O83 1.214 . S
C111 O91 1.234 . S
C112 H84 0.929 . S
C112 C115 1.391 . S
C112 C117 1.391 . S
C113 H85 0.929 . S
C113 C114 1.390 . S
C113 N116 1.391 . S
C114 H86 0.930 1_556 S
C114 C113 1.390 . S
C114 C115 1.392 . S
C115 H87 0.929 1_556 S
C115 C112 1.391 . S
C115 C114 1.392 . S
N116 Co60 2.257 . S
N116 C113 1.391 . S
N116 C117 1.388 . S
C117 H88 0.930 . S
C117 C112 1.391 . S
C117 N116 1.388 . S
Co118 O120 2.143 1_545 S
Co118 O126 2.074 . S
Co118 O129 2.093 1_545 S
Co118 O142 2.097 . S
Co118 N159 2.151 1_545 S
Co118 N167 2.214 . S
Co119 O120 2.160 1_544 S
Co119 O125 2.058 1_554 S
Co119 O135 2.057 1_545 S
Co119 O150 2.037 1_554 S
Co119 N154 2.145 . S
Co119 N175 2.257 1_545 S
O120 Co118 2.143 1_565 S
O120 Co119 2.160 1_566 S
C121 O122 1.278 . S
C121 O129 1.224 . S
O122 C121 1.278 . S
C123 O124 1.245 1_554 S
C123 O135 1.232 . S
O124 C123 1.245 1_556 S
O125 Co119 2.058 1_556 S
O125 C151 1.269 . S
O126 Co118 2.074 . S
O126 C151 1.257 . S
H127 C152 0.930 . S
H128 C158 0.930 . S
O129 Co118 2.093 1_565 S
O129 C121 1.224 . S
H130 C162 0.929 1_545 S
H131 C164 0.930 . S
H132 C165 0.930 . S
H133 C163 0.929 . S
H134 C166 0.928 . S
O135 Co119 2.057 1_565 S
O135 C123 1.232 . S
H136 C155 0.929 . S
H137 C156 0.929 1_565 S
H138 C168 0.931 . S
H139 C160 0.929 . S
H140 C169 0.930 . S
H141 C161 0.931 . S
O142 Co118 2.097 . S
O142 C170 1.214 . S
H143 C171 0.929 . S
H144 C172 0.929 1_545 S
H145 C173 0.930 . S
H146 C174 0.929 . S
H147 C176 0.930 . S
H148 C153 0.930 . S
H149 C157 0.930 . S
O150 Co119 2.037 1_556 S
O150 C170 1.234 . S
C151 O125 1.269 . S
C151 O126 1.257 . S
C152 H127 0.930 . S
C152 C155 1.388 . S
C152 C157 1.418 . S
C153 H148 0.930 . S
C153 C156 1.404 . S
C153 C157 1.353 . S
N154 Co119 2.145 . S
N154 C155 1.397 . S
N154 C156 1.334 . S
C155 H136 0.929 . S
C155 C152 1.388 . S
C155 N154 1.397 . S
C156 H137 0.929 1_545 S
C156 C153 1.404 . S
C156 N154 1.334 . S
C157 H149 0.930 . S
C157 C152 1.418 . S
C157 C153 1.353 . S
C158 H128 0.930 . S
C158 N159 1.330 . S
C158 C160 1.446 . S
N159 Co118 2.151 1_565 S
N159 C158 1.330 . S
N159 C163 1.418 1_565 S
C160 H139 0.929 . S
C160 C158 1.446 . S
C160 C161 1.332 . S
C161 H141 0.931 . S
C161 C160 1.332 . S
C161 C162 1.267 . S
C162 H130 0.929 1_565 S
C162 C161 1.267 . S
C162 C163 1.251 1_565 S
C163 H133 0.929 . S
C163 N159 1.418 1_545 S
C163 C162 1.251 1_545 S
C164 H131 0.930 . S
C164 C166 1.406 . S
C164 C169 1.261 . S
C165 H132 0.930 . S
C165 N167 1.325 . S
C165 C168 1.357 . S
C166 H134 0.928 . S
C166 C164 1.406 . S
C166 N167 1.261 . S
N167 Co118 2.214 . S
N167 C165 1.325 . S
N167 C166 1.261 . S
C168 H138 0.931 . S
C168 C165 1.357 . S
C168 C169 1.312 . S
C169 H140 0.930 . S
C169 C164 1.261 . S
C169 C168 1.312 . S
C170 O142 1.214 . S
C170 O150 1.234 . S
C171 H143 0.929 . S
C171 C174 1.391 . S
C171 C176 1.391 . S
C172 H144 0.929 1_565 S
C172 C173 1.390 . S
C172 N175 1.391 . S
C173 H145 0.930 . S
C173 C172 1.390 . S
C173 C174 1.392 . S
C174 H146 0.929 . S
C174 C171 1.391 . S
C174 C173 1.392 . S
N175 Co119 2.257 1_565 S
N175 C172 1.391 . S
N175 C176 1.388 . S
C176 H147 0.930 . S
C176 C171 1.391 . S
C176 N175 1.388 . S
Co177 O179 2.143 1_655 S
Co177 O185 2.074 . S
Co177 O188 2.093 1_655 S
Co177 O201 2.097 . S
Co177 N218 2.151 1_655 S
Co177 N226 2.214 . S
Co178 O179 2.160 1_656 S
Co178 O184 2.058 1_556 S
Co178 O194 2.057 1_655 S
Co178 O209 2.037 1_556 S
Co178 N213 2.145 . S
Co178 N234 2.257 1_655 S
O179 Co177 2.143 1_455 S
O179 Co178 2.160 1_454 S
C180 O181 1.278 . S
C180 O188 1.224 . S
O181 C180 1.278 . S
C182 O183 1.245 1_556 S
C182 O194 1.232 . S
O183 C182 1.245 1_554 S
O184 Co178 2.058 1_554 S
O184 C210 1.269 . S
O185 Co177 2.074 . S
O185 C210 1.257 . S
H186 C211 0.930 . S
H187 C217 0.930 . S
O188 Co177 2.093 1_455 S
O188 C180 1.224 . S
H189 C221 0.929 1_655 S
H190 C223 0.930 . S
H191 C224 0.930 . S
H192 C222 0.929 . S
H193 C225 0.928 . S
O194 Co178 2.057 1_455 S
O194 C182 1.232 . S
H195 C214 0.929 . S
H196 C215 0.929 1_455 S
H197 C227 0.931 . S
H198 C219 0.929 . S
H199 C228 0.930 . S
H200 C220 0.931 . S
O201 Co177 2.097 . S
O201 C229 1.214 . S
H202 C230 0.929 . S
H203 C231 0.929 1_655 S
H204 C232 0.930 . S
H205 C233 0.929 . S
H206 C235 0.930 . S
H207 C212 0.930 . S
H208 C216 0.930 . S
O209 Co178 2.037 1_554 S
O209 C229 1.234 . S
C210 O184 1.269 . S
C210 O185 1.257 . S
C211 H186 0.930 . S
C211 C214 1.388 . S
C211 C216 1.418 . S
C212 H207 0.930 . S
C212 C215 1.404 . S
C212 C216 1.353 . S
N213 Co178 2.145 . S
N213 C214 1.397 . S
N213 C215 1.334 . S
C214 H195 0.929 . S
C214 C211 1.388 . S
C214 N213 1.397 . S
C215 H196 0.929 1_655 S
C215 C212 1.404 . S
C215 N213 1.334 . S
C216 H208 0.930 . S
C216 C211 1.418 . S
C216 C212 1.353 . S
C217 H187 0.930 . S
C217 N218 1.330 . S
C217 C219 1.446 . S
N218 Co177 2.151 1_455 S
N218 C217 1.330 . S
N218 C222 1.418 1_455 S
C219 H198 0.929 . S
C219 C217 1.446 . S
C219 C220 1.332 . S
C220 H200 0.931 . S
C220 C219 1.332 . S
C220 C221 1.267 . S
C221 H189 0.929 1_455 S
C221 C220 1.267 . S
C221 C222 1.251 1_455 S
C222 H192 0.929 . S
C222 N218 1.418 1_655 S
C222 C221 1.251 1_655 S
C223 H190 0.930 . S
C223 C225 1.406 . S
C223 C228 1.261 . S
C224 H191 0.930 . S
C224 N226 1.325 . S
C224 C227 1.357 . S
C225 H193 0.928 . S
C225 C223 1.406 . S
C225 N226 1.261 . S
N226 Co177 2.214 . S
N226 C224 1.325 . S
N226 C225 1.261 . S
C227 H197 0.931 . S
C227 C224 1.357 . S
C227 C228 1.312 . S
C228 H199 0.930 . S
C228 C223 1.261 . S
C228 C227 1.312 . S
C229 O201 1.214 . S
C229 O209 1.234 . S
C230 H202 0.929 . S
C230 C233 1.391 . S
C230 C235 1.391 . S
C231 H203 0.929 1_455 S
C231 C232 1.390 . S
C231 N234 1.391 . S
C232 H204 0.930 . S
C232 C231 1.390 . S
C232 C233 1.392 . S
C233 H205 0.929 . S
C233 C230 1.391 . S
C233 C232 1.392 . S
N234 Co178 2.257 1_455 S
N234 C231 1.391 . S
N234 C235 1.388 . S
C235 H206 0.930 . S
C235 C230 1.391 . S
C235 N234 1.388 . S
Co236 O238 2.143 1_564 S
Co236 O244 2.074 1_554 S
Co236 O247 2.093 1_565 S
Co236 O260 2.097 1_554 S
Co236 N277 2.151 1_565 S
Co236 N285 2.214 . S
Co237 O238 2.160 1_565 S
Co237 O243 2.058 . S
Co237 O253 2.057 1_565 S
Co237 O268 2.037 . S
Co237 N272 2.145 . S
Co237 N293 2.257 1_565 S
O238 Co236 2.143 1_546 S
O238 Co237 2.160 1_545 S
C239 O240 1.278 1_554 S
C239 O247 1.224 . S
O240 C239 1.278 1_556 S
C241 O242 1.245 . S
C241 O253 1.232 . S
O242 C241 1.245 . S
O243 Co237 2.058 . S
O243 C269 1.269 . S
O244 Co236 2.074 1_556 S
O244 C269 1.257 . S
H245 C270 0.930 . S
H246 C276 0.930 . S
O247 Co236 2.093 1_545 S
O247 C239 1.224 . S
H248 C280 0.929 1_565 S
H249 C282 0.930 . S
H250 C283 0.930 . S
H251 C281 0.929 . S
H252 C284 0.928 . S
O253 Co237 2.057 1_545 S
O253 C241 1.232 . S
H254 C273 0.929 . S
H255 C274 0.929 1_545 S
H256 C286 0.931 . S
H257 C278 0.929 . S
H258 C287 0.930 . S
H259 C279 0.931 . S
O260 Co236 2.097 1_556 S
O260 C288 1.214 . S
H261 C289 0.929 . S
H262 C290 0.929 1_565 S
H263 C291 0.930 . S
H264 C292 0.929 . S
H265 C294 0.930 . S
H266 C271 0.930 . S
H267 C275 0.930 . S
O268 Co237 2.037 . S
O268 C288 1.234 . S
C269 O243 1.269 . S
C269 O244 1.257 . S
C270 H245 0.930 . S
C270 C273 1.388 . S
C270 C275 1.418 . S
C271 H266 0.930 . S
C271 C274 1.404 . S
C271 C275 1.353 . S
N272 Co237 2.145 . S
N272 C273 1.397 . S
N272 C274 1.334 . S
C273 H254 0.929 . S
C273 C270 1.388 . S
C273 N272 1.397 . S
C274 H255 0.929 1_565 S
C274 C271 1.404 . S
C274 N272 1.334 . S
C275 H267 0.930 . S
C275 C270 1.418 . S
C275 C271 1.353 . S
C276 H246 0.930 . S
C276 N277 1.330 . S
C276 C278 1.446 . S
N277 Co236 2.151 1_545 S
N277 C276 1.330 . S
N277 C281 1.418 1_545 S
C278 H257 0.929 . S
C278 C276 1.446 . S
C278 C279 1.332 . S
C279 H259 0.931 . S
C279 C278 1.332 . S
C279 C280 1.267 . S
C280 H248 0.929 1_545 S
C280 C279 1.267 . S
C280 C281 1.251 1_545 S
C281 H251 0.929 . S
C281 N277 1.418 1_565 S
C281 C280 1.251 1_565 S
C282 H249 0.930 . S
C282 C284 1.406 . S
C282 C287 1.261 . S
C283 H250 0.930 . S
C283 N285 1.325 . S
C283 C286 1.357 . S
C284 H252 0.928 . S
C284 C282 1.406 . S
C284 N285 1.261 . S
N285 Co236 2.214 . S
N285 C283 1.325 . S
N285 C284 1.261 . S
C286 H256 0.931 . S
C286 C283 1.357 . S
C286 C287 1.312 . S
C287 H258 0.930 . S
C287 C282 1.261 . S
C287 C286 1.312 . S
C288 O260 1.214 . S
C288 O268 1.234 . S
C289 H261 0.929 . S
C289 C292 1.391 . S
C289 C294 1.391 . S
C290 H262 0.929 1_545 S
C290 C291 1.390 . S
C290 N293 1.391 . S
C291 H263 0.930 . S
C291 C290 1.390 . S
C291 C292 1.392 . S
C292 H264 0.929 . S
C292 C289 1.391 . S
C292 C291 1.392 . S
N293 Co237 2.257 1_545 S
N293 C290 1.391 . S
N293 C294 1.388 . S
C294 H265 0.930 . S
C294 C289 1.391 . S
C294 N293 1.388 . S
Co295 O297 2.143 1_456 S
Co295 O303 2.074 1_556 S
Co295 O306 2.093 1_455 S
Co295 O319 2.097 1_556 S
Co295 N336 2.151 1_455 S
Co295 N344 2.214 . S
Co296 O297 2.160 1_455 S
Co296 O302 2.058 . S
Co296 O312 2.057 1_455 S
Co296 O327 2.037 . S
Co296 N331 2.145 . S
Co296 N352 2.257 1_455 S
O297 Co295 2.143 1_654 S
O297 Co296 2.160 1_655 S
C298 O299 1.278 1_556 S
C298 O306 1.224 . S
O299 C298 1.278 1_554 S
C300 O301 1.245 . S
C300 O312 1.232 . S
O301 C300 1.245 . S
O302 Co296 2.058 . S
O302 C328 1.269 . S
O303 Co295 2.074 1_554 S
O303 C328 1.257 . S
H304 C329 0.930 . S
H305 C335 0.930 . S
O306 Co295 2.093 1_655 S
O306 C298 1.224 . S
H307 C339 0.929 1_455 S
H308 C341 0.930 . S
H309 C342 0.930 . S
H310 C340 0.929 . S
H311 C343 0.928 . S
O312 Co296 2.057 1_655 S
O312 C300 1.232 . S
H313 C332 0.929 . S
H314 C333 0.929 1_655 S
H315 C345 0.931 . S
H316 C337 0.929 . S
H317 C346 0.930 . S
H318 C338 0.931 . S
O319 Co295 2.097 1_554 S
O319 C347 1.214 . S
H320 C348 0.929 . S
H321 C349 0.929 1_455 S
H322 C350 0.930 . S
H323 C351 0.929 . S
H324 C353 0.930 . S
H325 C330 0.930 . S
H326 C334 0.930 . S
O327 Co296 2.037 . S
O327 C347 1.234 . S
C328 O302 1.269 . S
C328 O303 1.257 . S
C329 H304 0.930 . S
C329 C332 1.388 . S
C329 C334 1.418 . S
C330 H325 0.930 . S
C330 C333 1.404 . S
C330 C334 1.353 . S
N331 Co296 2.145 . S
N331 C332 1.397 . S
N331 C333 1.334 . S
C332 H313 0.929 . S
C332 C329 1.388 . S
C332 N331 1.397 . S
C333 H314 0.929 1_455 S
C333 C330 1.404 . S
C333 N331 1.334 . S
C334 H326 0.930 . S
C334 C329 1.418 . S
C334 C330 1.353 . S
C335 H305 0.930 . S
C335 N336 1.330 . S
C335 C337 1.446 . S
N336 Co295 2.151 1_655 S
N336 C335 1.330 . S
N336 C340 1.418 1_655 S
C337 H316 0.929 . S
C337 C335 1.446 . S
C337 C338 1.332 . S
C338 H318 0.931 . S
C338 C337 1.332 . S
C338 C339 1.267 . S
C339 H307 0.929 1_655 S
C339 C338 1.267 . S
C339 C340 1.251 1_655 S
C340 H310 0.929 . S
C340 N336 1.418 1_455 S
C340 C339 1.251 1_455 S
C341 H308 0.930 . S
C341 C343 1.406 . S
C341 C346 1.261 . S
C342 H309 0.930 . S
C342 N344 1.325 . S
C342 C345 1.357 . S
C343 H311 0.928 . S
C343 C341 1.406 . S
C343 N344 1.261 . S
N344 Co295 2.214 . S
N344 C342 1.325 . S
N344 C343 1.261 . S
C345 H315 0.931 . S
C345 C342 1.357 . S
C345 C346 1.312 . S
C346 H317 0.930 . S
C346 C341 1.261 . S
C346 C345 1.312 . S
C347 O319 1.214 . S
C347 O327 1.234 . S
C348 H320 0.929 . S
C348 C351 1.391 . S
C348 C353 1.391 . S
C349 H321 0.929 1_655 S
C349 C350 1.390 . S
C349 N352 1.391 . S
C350 H322 0.930 . S
C350 C349 1.390 . S
C350 C351 1.392 . S
C351 H323 0.929 . S
C351 C348 1.391 . S
C351 C350 1.392 . S
N352 Co296 2.257 1_655 S
N352 C349 1.391 . S
N352 C353 1.388 . S
C353 H324 0.930 . S
C353 C348 1.391 . S
C353 N352 1.388 . S
Co354 O356 2.143 . S
Co354 O362 2.074 . S
Co354 O365 2.093 . S
Co354 O378 2.097 . S
Co354 N395 2.151 . S
Co354 N403 2.214 . S
Co355 O356 2.160 . S
Co355 O361 2.058 . S
Co355 O371 2.057 . S
Co355 O386 2.037 . S
Co355 N390 2.145 . S
Co355 N411 2.257 . S
O356 Co354 2.143 . S
O356 Co355 2.160 . S
C357 O358 1.278 . S
C357 O365 1.224 . S
O358 C357 1.278 . S
C359 O360 1.245 . S
C359 O371 1.232 . S
O360 C359 1.245 . S
O361 Co355 2.058 . S
O361 C387 1.269 . S
O362 Co354 2.074 . S
O362 C387 1.257 . S
H363 C388 0.930 . S
H364 C394 0.930 . S
O365 Co354 2.093 . S
O365 C357 1.224 . S
H366 C398 0.929 . S
H367 C400 0.930 . S
H368 C401 0.930 . S
H369 C399 0.929 . S
H370 C402 0.928 . S
O371 Co355 2.057 . S
O371 C359 1.232 . S
H372 C391 0.929 . S
H373 C392 0.929 . S
H374 C404 0.931 . S
H375 C396 0.929 . S
H376 C405 0.930 . S
H377 C397 0.931 . S
O378 Co354 2.097 . S
O378 C406 1.214 . S
H379 C407 0.929 . S
H380 C408 0.929 . S
H381 C409 0.930 . S
H382 C410 0.929 . S
H383 C412 0.930 . S
H384 C389 0.930 . S
H385 C393 0.930 . S
O386 Co355 2.037 . S
O386 C406 1.234 . S
C387 O361 1.269 . S
C387 O362 1.257 . S
C388 H363 0.930 . S
C388 C391 1.388 . S
C388 C393 1.418 . S
C389 H384 0.930 . S
C389 C392 1.404 . S
C389 C393 1.353 . S
N390 Co355 2.145 . S
N390 C391 1.397 . S
N390 C392 1.334 . S
C391 H372 0.929 . S
C391 C388 1.388 . S
C391 N390 1.397 . S
C392 H373 0.929 . S
C392 C389 1.404 . S
C392 N390 1.334 . S
C393 H385 0.930 . S
C393 C388 1.418 . S
C393 C389 1.353 . S
C394 H364 0.930 . S
C394 N395 1.330 . S
C394 C396 1.446 1_554 S
N395 Co354 2.151 . S
N395 C394 1.330 . S
N395 C399 1.418 . S
C396 H375 0.929 . S
C396 C394 1.446 1_556 S
C396 C397 1.332 . S
C397 H377 0.931 . S
C397 C396 1.332 . S
C397 C398 1.267 . S
C398 H366 0.929 . S
C398 C397 1.267 . S
C398 C399 1.251 1_556 S
C399 H369 0.929 . S
C399 N395 1.418 . S
C399 C398 1.251 1_554 S
C400 H367 0.930 . S
C400 C402 1.406 . S
C400 C405 1.261 . S
C401 H368 0.930 . S
C401 N403 1.325 . S
C401 C404 1.357 . S
C402 H370 0.928 . S
C402 C400 1.406 . S
C402 N403 1.261 1_556 S
N403 Co354 2.214 . S
N403 C401 1.325 . S
N403 C402 1.261 1_554 S
C404 H374 0.931 . S
C404 C401 1.357 . S
C404 C405 1.312 1_554 S
C405 H376 0.930 . S
C405 C400 1.261 . S
C405 C404 1.312 1_556 S
C406 O378 1.214 . S
C406 O386 1.234 . S
C407 H379 0.929 . S
C407 C410 1.391 . S
C407 C412 1.391 . S
C408 H380 0.929 . S
C408 C409 1.390 . S
C408 N411 1.391 . S
C409 H381 0.930 . S
C409 C408 1.390 . S
C409 C410 1.392 . S
C410 H382 0.929 . S
C410 C407 1.391 . S
C410 C409 1.392 . S
N411 Co355 2.257 . S
N411 C408 1.391 . S
N411 C412 1.388 . S
C412 H383 0.930 . S
C412 C407 1.391 . S
C412 N411 1.388 . S
Co413 O415 2.143 . S
Co413 O421 2.074 . S
Co413 O424 2.093 . S
Co413 O437 2.097 . S
Co413 N454 2.151 . S
Co413 N462 2.214 . S
Co414 O415 2.160 . S
Co414 O420 2.058 . S
Co414 O430 2.057 . S
Co414 O445 2.037 . S
Co414 N449 2.145 . S
Co414 N470 2.257 . S
O415 Co413 2.143 . S
O415 Co414 2.160 . S
C416 O417 1.278 . S
C416 O424 1.224 . S
O417 C416 1.278 . S
C418 O419 1.245 . S
C418 O430 1.232 . S
O419 C418 1.245 . S
O420 Co414 2.058 . S
O420 C446 1.269 . S
O421 Co413 2.074 . S
O421 C446 1.257 . S
H422 C447 0.930 . S
H423 C453 0.930 . S
O424 Co413 2.093 . S
O424 C416 1.224 . S
H425 C457 0.929 . S
H426 C459 0.930 . S
H427 C460 0.930 . S
H428 C458 0.929 . S
H429 C461 0.928 . S
O430 Co414 2.057 . S
O430 C418 1.232 . S
H431 C450 0.929 . S
H432 C451 0.929 . S
H433 C463 0.931 . S
H434 C455 0.929 . S
H435 C464 0.930 . S
H436 C456 0.931 . S
O437 Co413 2.097 . S
O437 C465 1.214 . S
H438 C466 0.929 . S
H439 C467 0.929 . S
H440 C468 0.930 . S
H441 C469 0.929 . S
H442 C471 0.930 . S
H443 C448 0.930 . S
H444 C452 0.930 . S
O445 Co414 2.037 . S
O445 C465 1.234 . S
C446 O420 1.269 . S
C446 O421 1.257 . S
C447 H422 0.930 . S
C447 C450 1.388 . S
C447 C452 1.418 . S
C448 H443 0.930 . S
C448 C451 1.404 . S
C448 C452 1.353 . S
N449 Co414 2.145 . S
N449 C450 1.397 . S
N449 C451 1.334 . S
C450 H431 0.929 . S
C450 C447 1.388 . S
C450 N449 1.397 . S
C451 H432 0.929 . S
C451 C448 1.404 . S
C451 N449 1.334 . S
C452 H444 0.930 . S
C452 C447 1.418 . S
C452 C448 1.353 . S
C453 H423 0.930 . S
C453 N454 1.330 . S
C453 C455 1.446 1_556 S
N454 Co413 2.151 . S
N454 C453 1.330 . S
N454 C458 1.418 . S
C455 H434 0.929 . S
C455 C453 1.446 1_554 S
C455 C456 1.332 . S
C456 H436 0.931 . S
C456 C455 1.332 . S
C456 C457 1.267 . S
C457 H425 0.929 . S
C457 C456 1.267 . S
C457 C458 1.251 1_554 S
C458 H428 0.929 . S
C458 N454 1.418 . S
C458 C457 1.251 1_556 S
C459 H426 0.930 . S
C459 C461 1.406 . S
C459 C464 1.261 . S
C460 H427 0.930 . S
C460 N462 1.325 . S
C460 C463 1.357 . S
C461 H429 0.928 . S
C461 C459 1.406 . S
C461 N462 1.261 1_554 S
N462 Co413 2.214 . S
N462 C460 1.325 . S
N462 C461 1.261 1_556 S
C463 H433 0.931 . S
C463 C460 1.357 . S
C463 C464 1.312 1_556 S
C464 H435 0.930 . S
C464 C459 1.261 . S
C464 C463 1.312 1_554 S
C465 O437 1.214 . S
C465 O445 1.234 . S
C466 H438 0.929 . S
C466 C469 1.391 . S
C466 C471 1.391 . S
C467 H439 0.929 . S
C467 C468 1.390 . S
C467 N470 1.391 . S
C468 H440 0.930 . S
C468 C467 1.390 . S
C468 C469 1.392 . S
C469 H441 0.929 . S
C469 C466 1.391 . S
C469 C468 1.392 . S
N470 Co414 2.257 . S
N470 C467 1.391 . S
N470 C471 1.388 . S
C471 H442 0.930 . S
C471 C466 1.391 . S
C471 N470 1.388 . S
H472 C478 0.930 . S
H473 C482 0.930 . S
H474 C487 0.929 . S
H475 C485 0.929 . S
H476 C480 0.929 . S
H477 C486 0.929 . S
C478 H472 0.930 . S
C478 C479 1.367 . S
C478 C486 1.378 . S
C479 C478 1.367 . S
C479 C487 1.433 . S
C480 H476 0.929 . S
C480 C482 1.378 . S
C480 C484 1.350 . S
C481 C484 1.463 1_556 S
C481 C486 1.350 . S
C481 N489 1.427 . S
C482 H473 0.930 . S
C482 C480 1.378 . S
C482 C483 1.367 . S
C483 C482 1.367 . S
C483 C485 1.433 . S
C484 C480 1.350 . S
C484 C481 1.463 1_554 S
C484 N488 1.427 . S
C485 H475 0.929 . S
C485 C483 1.433 . S
C485 N488 1.384 . S
C486 H477 0.929 . S
C486 C478 1.378 . S
C486 C481 1.350 . S
C487 H474 0.929 . S
C487 C479 1.433 . S
C487 N489 1.384 . S
N488 C484 1.427 . S
N488 C485 1.384 . S
N489 C481 1.427 . S
N489 C487 1.384 . S
H490 C496 0.930 . S
H491 C500 0.930 . S
H492 C505 0.929 . S
H493 C503 0.929 1_556 S
H494 C498 0.929 . S
H495 C504 0.929 . S
C496 H490 0.930 . S
C496 C497 1.367 . S
C496 C504 1.378 . S
C497 C496 1.367 . S
C497 C505 1.433 . S
C498 H494 0.929 . S
C498 C500 1.378 . S
C498 C502 1.350 . S
C499 C502 1.463 . S
C499 C504 1.350 . S
C499 N507 1.427 . S
C500 H491 0.930 . S
C500 C498 1.378 . S
C500 C501 1.367 . S
C501 C500 1.367 . S
C501 C503 1.433 . S
C502 C498 1.350 . S
C502 C499 1.463 . S
C502 N506 1.427 . S
C503 H493 0.929 1_554 S
C503 C501 1.433 . S
C503 N506 1.384 . S
C504 H495 0.929 . S
C504 C496 1.378 . S
C504 C499 1.350 . S
C505 H492 0.929 . S
C505 C497 1.433 . S
C505 N507 1.384 . S
N506 C502 1.427 . S
N506 C503 1.384 . S
N507 C499 1.427 . S
N507 C505 1.384 . S
H508 C514 0.930 . S
H509 C518 0.930 . S
H510 C523 0.929 . S
H511 C521 0.929 . S
H512 C516 0.929 . S
H513 C522 0.929 . S
C514 H508 0.930 . S
C514 C515 1.367 . S
C514 C522 1.378 . S
C515 C514 1.367 . S
C515 C523 1.433 . S
C516 H512 0.929 . S
C516 C518 1.378 . S
C516 C520 1.350 . S
C517 C520 1.463 . S
C517 C522 1.350 . S
C517 N525 1.427 . S
C518 H509 0.930 . S
C518 C516 1.378 . S
C518 C519 1.367 . S
C519 C518 1.367 . S
C519 C521 1.433 . S
C520 C516 1.350 . S
C520 C517 1.463 . S
C520 N524 1.427 . S
C521 H511 0.929 . S
C521 C519 1.433 . S
C521 N524 1.384 . S
C522 H513 0.929 . S
C522 C514 1.378 . S
C522 C517 1.350 . S
C523 H510 0.929 . S
C523 C515 1.433 . S
C523 N525 1.384 . S
N524 C520 1.427 . S
N524 C521 1.384 . S
N525 C517 1.427 . S
N525 C523 1.384 . S
H526 C532 0.930 1_554 S
H527 C536 0.930 . S
H528 C541 0.929 . S
H529 C539 0.929 . S
H530 C534 0.929 . S
H531 C540 0.929 . S
C532 H526 0.930 1_556 S
C532 C533 1.367 . S
C532 C540 1.378 . S
C533 C532 1.367 . S
C533 C541 1.433 . S
C534 H530 0.929 . S
C534 C536 1.378 . S
C534 C538 1.350 . S
C535 C538 1.463 . S
C535 C540 1.350 . S
C535 N543 1.427 . S
C536 H527 0.930 . S
C536 C534 1.378 . S
C536 C537 1.367 . S
C537 C536 1.367 . S
C537 C539 1.433 . S
C538 C534 1.350 . S
C538 C535 1.463 . S
C538 N542 1.427 . S
C539 H529 0.929 . S
C539 C537 1.433 . S
C539 N542 1.384 . S
C540 H531 0.929 . S
C540 C532 1.378 . S
C540 C535 1.350 . S
C541 H528 0.929 . S
C541 C533 1.433 . S
C541 N543 1.384 . S
N542 C538 1.427 . S
N542 C539 1.384 . S
N543 C535 1.427 . S
N543 C541 1.384 . S
H544 C550 0.930 . S
H545 C554 0.930 . S
H546 C559 0.929 . S
H547 C557 0.929 . S
H548 C552 0.929 . S
H549 C558 0.929 . S
C550 H544 0.930 . S
C550 C551 1.367 . S
C550 C558 1.378 . S
C551 C550 1.367 . S
C551 C559 1.433 . S
C552 H548 0.929 . S
C552 C554 1.378 . S
C552 C556 1.350 . S
C553 C556 1.463 . S
C553 C558 1.350 . S
C553 N561 1.427 . S
C554 H545 0.930 . S
C554 C552 1.378 . S
C554 C555 1.367 . S
C555 C554 1.367 . S
C555 C557 1.433 . S
C556 C552 1.350 . S
C556 C553 1.463 . S
C556 N560 1.427 . S
C557 H547 0.929 . S
C557 C555 1.433 . S
C557 N560 1.384 . S
C558 H549 0.929 . S
C558 C550 1.378 . S
C558 C553 1.350 . S
C559 H546 0.929 . S
C559 C551 1.433 . S
C559 N561 1.384 . S
N560 C556 1.427 . S
N560 C557 1.384 . S
N561 C553 1.427 . S
N561 C559 1.384 . S
H562 C568 0.930 . S
H563 C572 0.930 . S
H564 C577 0.929 . S
H565 C575 0.929 . S
H566 C570 0.929 . S
H567 C576 0.929 . S
C568 H562 0.930 . S
C568 C569 1.367 . S
C568 C576 1.378 . S
C569 C568 1.367 . S
C569 C577 1.433 . S
C570 H566 0.929 . S
C570 C572 1.378 . S
C570 C574 1.350 . S
C571 C574 1.463 . S
C571 C576 1.350 . S
C571 N579 1.427 . S
C572 H563 0.930 . S
C572 C570 1.378 . S
C572 C573 1.367 . S
C573 C572 1.367 . S
C573 C575 1.433 . S
C574 C570 1.350 . S
C574 C571 1.463 . S
C574 N578 1.427 . S
C575 H565 0.929 . S
C575 C573 1.433 . S
C575 N578 1.384 . S
C576 H567 0.929 . S
C576 C568 1.378 . S
C576 C571 1.350 . S
C577 H564 0.929 . S
C577 C569 1.433 . S
C577 N579 1.384 . S
N578 C574 1.427 . S
N578 C575 1.384 . S
N579 C571 1.427 . S
N579 C577 1.384 . S
H580 C586 0.930 . S
H581 C590 0.930 . S
H582 C595 0.929 1_556 S
H583 C593 0.929 1_554 S
H584 C588 0.929 . S
H585 C594 0.929 . S
C586 H580 0.930 . S
C586 C587 1.367 . S
C586 C594 1.378 . S
C587 C586 1.367 . S
C587 C595 1.433 . S
C588 H584 0.929 . S
C588 C590 1.378 . S
C588 C592 1.350 . S
C589 C592 1.463 1_554 S
C589 C594 1.350 . S
C589 N597 1.427 1_554 S
C590 H581 0.930 . S
C590 C588 1.378 . S
C590 C591 1.367 . S
C591 C590 1.367 . S
C591 C593 1.433 . S
C592 C588 1.350 . S
C592 C589 1.463 1_556 S
C592 N596 1.427 1_556 S
C593 H583 0.929 1_556 S
C593 C591 1.433 . S
C593 N596 1.384 1_556 S
C594 H585 0.929 . S
C594 C586 1.378 . S
C594 C589 1.350 . S
C595 H582 0.929 1_554 S
C595 C587 1.433 . S
C595 N597 1.384 1_554 S
N596 C592 1.427 1_554 S
N596 C593 1.384 1_554 S
N597 C589 1.427 1_556 S
N597 C595 1.384 1_556 S
H598 C604 0.930 1_556 S
H599 C608 0.930 . S
H600 C613 0.929 . S
H601 C611 0.929 . S
H602 C606 0.929 . S
H603 C612 0.929 . S
C604 H598 0.930 1_554 S
C604 C605 1.367 . S
C604 C612 1.378 . S
C605 C604 1.367 . S
C605 C613 1.433 . S
C606 H602 0.929 . S
C606 C608 1.378 . S
C606 C610 1.350 . S
C607 C610 1.463 . S
C607 C612 1.350 . S
C607 N615 1.427 . S
C608 H599 0.930 . S
C608 C606 1.378 . S
C608 C609 1.367 . S
C609 C608 1.367 . S
C609 C611 1.433 . S
C610 C606 1.350 . S
C610 C607 1.463 . S
C610 N614 1.427 . S
C611 H601 0.929 . S
C611 C609 1.433 . S
C611 N614 1.384 . S
C612 H603 0.929 . S
C612 C604 1.378 . S
C612 C607 1.350 . S
C613 H600 0.929 . S
C613 C605 1.433 . S
C613 N615 1.384 . S
N614 C610 1.427 . S
N614 C611 1.384 . S
N615 C607 1.427 . S
N615 C613 1.384 . S
H616 C622 0.930 . S
H617 C626 0.930 . S
H618 C631 0.929 . S
H619 C629 0.929 . S
H620 C624 0.929 . S
H621 C630 0.929 . S
C622 H616 0.930 . S
C622 C623 1.367 . S
C622 C630 1.378 . S
C623 C622 1.367 . S
C623 C631 1.433 . S
C624 H620 0.929 . S
C624 C626 1.378 . S
C624 C628 1.350 . S
C625 C628 1.463 . S
C625 C630 1.350 . S
C625 N633 1.427 . S
C626 H617 0.930 . S
C626 C624 1.378 . S
C626 C627 1.367 . S
C627 C626 1.367 . S
C627 C629 1.433 . S
C628 C624 1.350 . S
C628 C625 1.463 . S
C628 N632 1.427 . S
C629 H619 0.929 . S
C629 C627 1.433 . S
C629 N632 1.384 . S
C630 H621 0.929 . S
C630 C622 1.378 . S
C630 C625 1.350 . S
C631 H618 0.929 . S
C631 C623 1.433 . S
C631 N633 1.384 . S
N632 C628 1.427 . S
N632 C629 1.384 . S
N633 C625 1.427 . S
N633 C631 1.384 . S
H634 C640 0.930 . S
H635 C644 0.930 . S
H636 C649 0.929 . S
H637 C647 0.929 . S
H638 C642 0.929 . S
H639 C648 0.929 . S
C640 H634 0.930 . S
C640 C641 1.367 . S
C640 C648 1.378 . S
C641 C640 1.367 . S
C641 C649 1.433 . S
C642 H638 0.929 . S
C642 C644 1.378 . S
C642 C646 1.350 . S
C643 C646 1.463 . S
C643 C648 1.350 . S
C643 N651 1.427 . S
C644 H635 0.930 . S
C644 C642 1.378 . S
C644 C645 1.367 . S
C645 C644 1.367 . S
C645 C647 1.433 . S
C646 C642 1.350 . S
C646 C643 1.463 . S
C646 N650 1.427 . S
C647 H637 0.929 . S
C647 C645 1.433 . S
C647 N650 1.384 . S
C648 H639 0.929 . S
C648 C640 1.378 . S
C648 C643 1.350 . S
C649 H636 0.929 . S
C649 C641 1.433 . S
C649 N651 1.384 . S
N650 C646 1.427 . S
N650 C647 1.384 . S
N651 C643 1.427 . S
N651 C649 1.384 . S
H652 C658 0.930 . S
H653 C662 0.930 . S
H654 C667 0.929 . S
H655 C665 0.929 . S
H656 C660 0.929 . S
H657 C666 0.929 . S
C658 H652 0.930 . S
C658 C659 1.367 1_556 S
C658 C666 1.378 . S
C659 C658 1.367 1_554 S
C659 C667 1.433 . S
C660 H656 0.929 . S
C660 C662 1.378 . S
C660 C664 1.350 1_554 S
C661 C664 1.463 1_554 S
C661 C666 1.350 1_554 S
C661 N669 1.427 . S
C662 H653 0.930 . S
C662 C660 1.378 . S
C662 C663 1.367 1_554 S
C663 C662 1.367 1_556 S
C663 C665 1.433 . S
C664 C660 1.350 1_556 S
C664 C661 1.463 1_556 S
C664 N668 1.427 . S
C665 H655 0.929 . S
C665 C663 1.433 . S
C665 N668 1.384 . S
C666 H657 0.929 . S
C666 C658 1.378 . S
C666 C661 1.350 1_556 S
C667 H654 0.929 . S
C667 C659 1.433 . S
C667 N669 1.384 . S
N668 C664 1.427 . S
N668 C665 1.384 . S
N669 C661 1.427 . S
N669 C667 1.384 . S
H670 C676 0.930 . S
H671 C680 0.930 . S
H672 C685 0.929 . S
H673 C683 0.929 . S
H674 C678 0.929 . S
H675 C684 0.929 . S
C676 H670 0.930 . S
C676 C677 1.367 . S
C676 C684 1.378 . S
C677 C676 1.367 . S
C677 C685 1.433 . S
C678 H674 0.929 . S
C678 C680 1.378 . S
C678 C682 1.350 . S
C679 C682 1.463 . S
C679 C684 1.350 . S
C679 N687 1.427 . S
C680 H671 0.930 . S
C680 C678 1.378 . S
C680 C681 1.367 . S
C681 C680 1.367 . S
C681 C683 1.433 . S
C682 C678 1.350 . S
C682 C679 1.463 . S
C682 N686 1.427 . S
C683 H673 0.929 . S
C683 C681 1.433 . S
C683 N686 1.384 . S
C684 H675 0.929 . S
C684 C676 1.378 . S
C684 C679 1.350 . S
C685 H672 0.929 . S
C685 C677 1.433 . S
C685 N687 1.384 . S
N686 C682 1.427 . S
N686 C683 1.384 . S
N687 C679 1.427 . S
N687 C685 1.384 . S
H688 C694 0.930 . S
H689 C698 0.930 . S
H690 C703 0.929 . S
H691 C701 0.929 . S
H692 C696 0.929 . S
H693 C702 0.929 . S
C694 H688 0.930 . S
C694 C695 1.367 . S
C694 C702 1.378 . S
C695 C694 1.367 . S
C695 C703 1.433 . S
C696 H692 0.929 . S
C696 C698 1.378 . S
C696 C700 1.350 . S
C697 C700 1.463 . S
C697 C702 1.350 . S
C697 N705 1.427 . S
C698 H689 0.930 . S
C698 C696 1.378 . S
C698 C699 1.367 . S
C699 C698 1.367 . S
C699 C701 1.433 . S
C700 C696 1.350 . S
C700 C697 1.463 . S
C700 N704 1.427 . S
C701 H691 0.929 . S
C701 C699 1.433 . S
C701 N704 1.384 . S
C702 H693 0.929 . S
C702 C694 1.378 . S
C702 C697 1.350 . S
C703 H690 0.929 . S
C703 C695 1.433 . S
C703 N705 1.384 . S
N704 C700 1.427 . S
N704 C701 1.384 . S
N705 C697 1.427 . S
N705 C703 1.384 . S
H706 C712 0.930 . S
H707 C716 0.930 . S
H708 C721 0.929 . S
H709 C719 0.929 . S
H710 C714 0.929 . S
H711 C720 0.929 . S
C712 H706 0.930 . S
C712 C713 1.367 1_554 S
C712 C720 1.378 . S
C713 C712 1.367 1_556 S
C713 C721 1.433 . S
C714 H710 0.929 . S
C714 C716 1.378 . S
C714 C718 1.350 1_556 S
C715 C718 1.463 1_556 S
C715 C720 1.350 1_556 S
C715 N723 1.427 . S
C716 H707 0.930 . S
C716 C714 1.378 . S
C716 C717 1.367 1_556 S
C717 C716 1.367 1_554 S
C717 C719 1.433 . S
C718 C714 1.350 1_554 S
C718 C715 1.463 1_554 S
C718 N722 1.427 . S
C719 H709 0.929 . S
C719 C717 1.433 . S
C719 N722 1.384 . S
C720 H711 0.929 . S
C720 C712 1.378 . S
C720 C715 1.350 1_554 S
C721 H708 0.929 . S
C721 C713 1.433 . S
C721 N723 1.384 . S
N722 C718 1.427 . S
N722 C719 1.384 . S
N723 C715 1.427 . S
N723 C721 1.384 . S
H724 C730 0.930 . S
H725 C734 0.930 . S
H726 C739 0.929 . S
H727 C737 0.929 . S
H728 C732 0.929 . S
H729 C738 0.929 . S
C730 H724 0.930 . S
C730 C731 1.367 . S
C730 C738 1.378 . S
C731 C730 1.367 . S
C731 C739 1.433 . S
C732 H728 0.929 . S
C732 C734 1.378 . S
C732 C736 1.350 . S
C733 C736 1.463 . S
C733 C738 1.350 . S
C733 N741 1.427 . S
C734 H725 0.930 . S
C734 C732 1.378 . S
C734 C735 1.367 . S
C735 C734 1.367 . S
C735 C737 1.433 . S
C736 C732 1.350 . S
C736 C733 1.463 . S
C736 N740 1.427 . S
C737 H727 0.929 . S
C737 C735 1.433 . S
C737 N740 1.384 . S
C738 H729 0.929 . S
C738 C730 1.378 . S
C738 C733 1.350 . S
C739 H726 0.929 . S
C739 C731 1.433 . S
C739 N741 1.384 . S
N740 C736 1.427 . S
N740 C737 1.384 . S
N741 C733 1.427 . S
N741 C739 1.384 . S
H742 C748 0.930 . S
H743 C752 0.930 . S
H744 C757 0.929 . S
H745 C755 0.929 . S
H746 C750 0.929 . S
H747 C756 0.929 . S
C748 H742 0.930 . S
C748 C749 1.367 . S
C748 C756 1.378 . S
C749 C748 1.367 . S
C749 C757 1.433 . S
C750 H746 0.929 . S
C750 C752 1.378 . S
C750 C754 1.350 . S
C751 C754 1.463 . S
C751 C756 1.350 . S
C751 N759 1.427 . S
C752 H743 0.930 . S
C752 C750 1.378 . S
C752 C753 1.367 . S
C753 C752 1.367 . S
C753 C755 1.433 . S
C754 C750 1.350 . S
C754 C751 1.463 . S
C754 N758 1.427 . S
C755 H745 0.929 . S
C755 C753 1.433 . S
C755 N758 1.384 . S
C756 H747 0.929 . S
C756 C748 1.378 . S
C756 C751 1.350 . S
C757 H744 0.929 . S
C757 C749 1.433 . S
C757 N759 1.384 . S
N758 C754 1.427 . S
N758 C755 1.384 . S
N759 C751 1.427 . S
N759 C757 1.384 . S
C479 C64 1.503 . S
C483 C5 1.505 . S
C497 C62 1.499 . S
C501 C123 1.507 . S
C515 C180 1.496 . S
C519 C121 1.503 . S
C533 C182 1.506 . S
C537 C3 1.499 . S
C551 C241 1.503 . S
C555 C300 1.506 . S
C569 C298 1.501 . S
C573 C359 1.506 . S
C587 C357 1.501 . S
C591 C416 1.499 . S
C605 C239 1.497 . S
C609 C418 1.507 . S
C623 C33 1.515 . S
C627 C465 1.514 . S
C641 C288 1.509 . S
C645 C111 1.508 . S
C659 C328 1.515 . S
C663 C170 1.512 . S
C677 C210 1.519 . S
C681 C387 1.519 . S
C695 C151 1.519 . S
C699 C446 1.519 . S
C713 C269 1.515 . S
C717 C229 1.513 . S
C731 C347 1.509 . S
C735 C52 1.508 . S
C749 C92 1.515 . S
C753 C406 1.513 . S
