# Generated by pormake.
# Topology skb, (5)-cn, num edge types: 1
# Building blocks:
#     Node 0, Type 0, BuildingBlock: XOMCOT_clean_sbu_0, # of connection points: 5
#     Node 1, Type 0, BuildingBlock: XOMCOT_clean_sbu_0, # of connection points: 5
#     Node 2, Type 0, BuildingBlock: XOMCOT_clean_sbu_0, # of connection points: 5
#     Node 3, Type 0, BuildingBlock: XOMCOT_clean_sbu_0, # of connection points: 5
#     Node 4, Type 0, BuildingBlock: XOMCOT_clean_sbu_0, # of connection points: 5
#     Node 5, Type 0, BuildingBlock: XOMCOT_clean_sbu_0, # of connection points: 5
#     Node 6, Type 0, BuildingBlock: XOMCOT_clean_sbu_0, # of connection points: 5
#     Node 7, Type 0, BuildingBlock: XOMCOT_clean_sbu_0, # of connection points: 5
#     Node 8, Type 0, BuildingBlock: XOMCOT_clean_sbu_0, # of connection points: 5
#     Node 9, Type 0, BuildingBlock: XOMCOT_clean_sbu_0, # of connection points: 5
#     Node 10, Type 0, BuildingBlock: XOMCOT_clean_sbu_0, # of connection points: 5
#     Node 11, Type 0, BuildingBlock: XOMCOT_clean_sbu_0, # of connection points: 5
#     Node 12, Type 0, BuildingBlock: XOMCOT_clean_sbu_0, # of connection points: 5
#     Node 13, Type 0, BuildingBlock: XOMCOT_clean_sbu_0, # of connection points: 5
#     Node 14, Type 0, BuildingBlock: XOMCOT_clean_sbu_0, # of connection points: 5
#     Node 15, Type 0, BuildingBlock: XOMCOT_clean_sbu_0, # of connection points: 5
#     Edge 16, Type (0, 0), BuildingBlock: OJICUG_clean_linker_0, # of connection points: 2
#     Edge 17, Type (0, 0), BuildingBlock: OJICUG_clean_linker_0, # of connection points: 2
#     Edge 18, Type (0, 0), BuildingBlock: OJICUG_clean_linker_0, # of connection points: 2
#     Edge 19, Type (0, 0), BuildingBlock: OJICUG_clean_linker_0, # of connection points: 2
#     Edge 20, Type (0, 0), BuildingBlock: OJICUG_clean_linker_0, # of connection points: 2
#     Edge 21, Type (0, 0), BuildingBlock: OJICUG_clean_linker_0, # of connection points: 2
#     Edge 22, Type (0, 0), BuildingBlock: OJICUG_clean_linker_0, # of connection points: 2
#     Edge 23, Type (0, 0), BuildingBlock: OJICUG_clean_linker_0, # of connection points: 2
#     Edge 24, Type (0, 0), BuildingBlock: OJICUG_clean_linker_0, # of connection points: 2
#     Edge 25, Type (0, 0), BuildingBlock: OJICUG_clean_linker_0, # of connection points: 2
#     Edge 26, Type (0, 0), BuildingBlock: OJICUG_clean_linker_0, # of connection points: 2
#     Edge 27, Type (0, 0), BuildingBlock: OJICUG_clean_linker_0, # of connection points: 2
#     Edge 28, Type (0, 0), BuildingBlock: OJICUG_clean_linker_0, # of connection points: 2
#     Edge 29, Type (0, 0), BuildingBlock: OJICUG_clean_linker_0, # of connection points: 2
#     Edge 30, Type (0, 0), BuildingBlock: OJICUG_clean_linker_0, # of connection points: 2
#     Edge 31, Type (0, 0), BuildingBlock: OJICUG_clean_linker_0, # of connection points: 2
#     Edge 32, Type (0, 0), BuildingBlock: OJICUG_clean_linker_0, # of connection points: 2
#     Edge 33, Type (0, 0), BuildingBlock: OJICUG_clean_linker_0, # of connection points: 2
#     Edge 34, Type (0, 0), BuildingBlock: OJICUG_clean_linker_0, # of connection points: 2
#     Edge 35, Type (0, 0), BuildingBlock: OJICUG_clean_linker_0, # of connection points: 2
#     Edge 36, Type (0, 0), BuildingBlock: OJICUG_clean_linker_0, # of connection points: 2
#     Edge 37, Type (0, 0), BuildingBlock: OJICUG_clean_linker_0, # of connection points: 2
#     Edge 38, Type (0, 0), BuildingBlock: OJICUG_clean_linker_0, # of connection points: 2
#     Edge 39, Type (0, 0), BuildingBlock: OJICUG_clean_linker_0, # of connection points: 2
#     Edge 40, Type (0, 0), BuildingBlock: OJICUG_clean_linker_0, # of connection points: 2
#     Edge 41, Type (0, 0), BuildingBlock: OJICUG_clean_linker_0, # of connection points: 2
#     Edge 42, Type (0, 0), BuildingBlock: OJICUG_clean_linker_0, # of connection points: 2
#     Edge 43, Type (0, 0), BuildingBlock: OJICUG_clean_linker_0, # of connection points: 2
#     Edge 44, Type (0, 0), BuildingBlock: OJICUG_clean_linker_0, # of connection points: 2
#     Edge 45, Type (0, 0), BuildingBlock: OJICUG_clean_linker_0, # of connection points: 2
#     Edge 46, Type (0, 0), BuildingBlock: OJICUG_clean_linker_0, # of connection points: 2
#     Edge 47, Type (0, 0), BuildingBlock: OJICUG_clean_linker_0, # of connection points: 2
#     Edge 48, Type (0, 0), BuildingBlock: OJICUG_clean_linker_0, # of connection points: 2
#     Edge 49, Type (0, 0), BuildingBlock: OJICUG_clean_linker_0, # of connection points: 2
#     Edge 50, Type (0, 0), BuildingBlock: OJICUG_clean_linker_0, # of connection points: 2
#     Edge 51, Type (0, 0), BuildingBlock: OJICUG_clean_linker_0, # of connection points: 2
#     Edge 52, Type (0, 0), BuildingBlock: OJICUG_clean_linker_0, # of connection points: 2
#     Edge 53, Type (0, 0), BuildingBlock: OJICUG_clean_linker_0, # of connection points: 2
#     Edge 54, Type (0, 0), BuildingBlock: OJICUG_clean_linker_0, # of connection points: 2
#     Edge 55, Type (0, 0), BuildingBlock: OJICUG_clean_linker_0, # of connection points: 2
# Relax obj value: 0.082
# Max RMSD: 0.131
# Mean RMSD: 0.131
data_MOF--net-skb--node1-XOMCOT_clean_sbu_0--edge1-OJICUG_clean_linker_0
_symmetry_space_group_name_H-M    P1
_symmetry_Int_Tables_number       1
_symmetry_cell_setting            triclinic
loop_
_symmetry_equiv_pos_as_xyz
'x, y, z'
_cell_length_a     38.215561
_cell_length_b     19.636509
_cell_length_c     52.744592
_cell_angle_alpha  89.997303
_cell_angle_beta   90.027505
_cell_angle_gamma 89.999846
loop_
_atom_site_label
_atom_site_type_symbol
_atom_site_fract_x
_atom_site_fract_y
_atom_site_fract_z
_atom_type_partial_charge
Co0 Co 0.20233 0.0441 0.15763 0.0
C1 C 0.20098 0.04911 0.0997 0.0
C2 C 0.23675 0.11862 0.11716 0.0
C3 C 0.2404 0.12413 0.09147 0.0
N4 N 0.21149 0.07288 0.12271 0.0
N5 N 0.21793 0.0807 0.08044 0.0
H6 H 0.18374 1.00634 0.09679 0.0
H7 H 0.2536 0.14307 0.13081 0.0
C8 C 0.21953 0.1731 0.18915 0.0
O9 O 0.2059 0.14906 0.21015 0.0
N10 N 0.19634 1.01577 0.19263 0.0
C11 C 0.16826 0.98937 0.20453 0.0
C12 C 0.17785 0.97241 0.22904 0.0
C13 C 0.2227 1.0119 0.20961 0.0
N14 N 0.21219 0.98677 0.23218 0.0
C15 C 0.13392 0.03245 0.13866 0.0
C16 C 0.09951 0.11546 0.17258 0.0
C17 C 0.07985 0.07405 0.15612 0.0
C18 C 0.09778 0.03334 0.1388 0.0
C19 C 0.13638 0.1134 0.17165 0.0
N20 N 0.15319 0.0708 0.15511 0.0
H21 H 0.14603 0.99596 0.12641 0.0
H22 H 0.15092 0.14289 0.1852 0.0
H23 H 0.1428 0.98197 0.19602 0.0
H24 H 0.24894 0.02956 0.20562 0.0
O25 O 0.19521 0.95166 0.14753 0.0
O26 O 0.24688 0.99504 0.15724 0.0
O27 O 0.21835 0.13875 0.16851 0.0
C28 C 0.22828 0.94197 0.15066 0.0
H29 H 0.25936 0.15536 0.0816 0.0
H30 H 0.16092 0.95038 0.24328 0.0
H31 H 0.08661 0.14788 0.1863 0.0
H32 H 0.08403 0.99896 0.12619 0.0
Co33 Co 0.80682 0.06757 0.15715 0.0
C34 C 0.80849 0.06092 0.09921 0.0
C35 C 0.77173 0.9938 0.11688 0.0
C36 C 0.76817 0.98752 0.0912 0.0
N37 N 0.79752 0.03853 0.12229 0.0
N38 N 0.79123 0.02951 0.08004 0.0
H39 H 0.82639 0.10255 0.09615 0.0
H40 H 0.75459 0.97054 0.13061 0.0
C41 C 0.78986 0.93865 0.18876 0.0
O42 O 0.80367 0.96274 0.2097 0.0
N43 N 0.81295 0.09611 0.1921 0.0
C44 C 0.84102 0.12306 0.20387 0.0
C45 C 0.83152 0.1403 0.22836 0.0
C46 C 0.78669 0.09988 0.20915 0.0
N47 N 0.79726 0.12551 0.23163 0.0
C48 C 0.87527 0.08001 0.13831 0.0
C49 C 0.90971 0.99656 0.17209 0.0
C50 C 0.92935 0.03849 0.15582 0.0
C51 C 0.91141 0.07942 0.13856 0.0
C52 C 0.87284 0.99834 0.17106 0.0
N53 N 0.85601 0.04115 0.15459 0.0
H54 H 0.86315 0.11669 0.12614 0.0
H55 H 0.85833 0.96842 0.18447 0.0
H56 H 0.86639 0.13071 0.19526 0.0
H57 H 0.76048 0.08186 0.20525 0.0
O58 O 0.81375 0.16 0.14696 0.0
O59 O 0.7622 0.11642 0.15681 0.0
O60 O 0.79091 0.97291 0.1681 0.0
C61 C 0.78069 0.16955 0.15017 0.0
H62 H 0.74893 0.95669 0.08143 0.0
H63 H 0.84848 0.16283 0.24249 0.0
H64 H 0.92262 0.96394 0.18575 0.0
H65 H 0.92514 0.11419 0.1261 0.0
Co66 Co 0.20318 0.06502 0.89679 0.0
C67 C 0.20184 0.06228 0.95462 0.0
C68 C 0.23479 0.98665 0.93781 0.0
C69 C 0.23804 0.98189 0.96356 0.0
N70 N 0.21144 0.0358 0.93182 0.0
N71 N 0.2173 0.0291 0.97416 0.0
H72 H 0.18642 0.10783 0.95712 0.0
H73 H 0.25079 0.95911 0.92449 0.0
C74 C 0.22055 0.93622 0.86516 0.0
O75 O 0.20756 0.96073 0.84401 0.0
N76 N 0.19785 0.09403 0.86182 0.0
C77 C 0.17017 0.12242 0.85005 0.0
C78 C 0.18005 0.14022 0.82571 0.0
C79 C 0.22434 0.09763 0.84494 0.0
N80 N 0.2142 0.12437 0.82252 0.0
C81 C 0.13472 0.07603 0.91548 0.0
C82 C 0.1003 0.99639 0.88043 0.0
C83 C 0.08064 0.03703 0.89715 0.0
C84 C 0.09859 0.07612 0.915 0.0
C85 C 0.13717 0.9977 0.88163 0.0
N86 N 0.15397 0.03866 0.89875 0.0
H87 H 0.14689 0.11116 0.92823 0.0
H88 H 0.15175 0.9691 0.86785 0.0
H89 H 0.14481 0.13082 0.8586 0.0
H90 H 0.25038 0.07885 0.84893 0.0
O91 O 0.196 0.15734 0.90699 0.0
O92 O 0.24779 0.11372 0.89772 0.0
O93 O 0.21911 0.97039 0.88584 0.0
C94 C 0.22914 0.16686 0.90415 0.0
H95 H 0.25565 0.94845 0.97375 0.0
H96 H 0.16343 0.16394 0.81165 0.0
H97 H 0.08743 0.96521 0.8663 0.0
H98 H 0.08495 0.11005 0.92782 0.0
Co99 Co 0.80764 0.04594 0.8963 0.0
C100 C 0.80873 0.04732 0.95412 0.0
C101 C 0.77672 0.12483 0.93752 0.0
C102 C 0.77343 0.12899 0.96328 0.0
N103 N 0.79954 0.07487 0.9314 0.0
N104 N 0.7936 0.08064 0.97375 0.0
H105 H 0.82361 1.001 0.95647 0.0
H106 H 0.76103 0.15337 0.9243 0.0
C107 C 0.79013 0.17492 0.8648 0.0
O108 O 0.80301 0.15053 0.84361 0.0
N109 N 0.81281 1.01719 0.86129 0.0
C110 C 0.84047 0.98918 0.84938 0.0
C111 C 0.83046 0.97168 0.82503 0.0
C112 C 0.78621 1.01363 0.84447 0.0
N113 N 0.79626 0.98731 0.82197 0.0
C114 C 0.87605 0.03546 0.91512 0.0
C115 C 0.9105 0.11467 0.87997 0.0
C116 C 0.93015 0.07444 0.89686 0.0
C117 C 0.91217 0.03556 0.91474 0.0
C118 C 0.87362 0.11319 0.88106 0.0
N119 N 0.85682 0.07244 0.89824 0.0
H120 H 0.86386 1.00055 0.92794 0.0
H121 H 0.85905 0.14147 0.86717 0.0
H122 H 0.8659 0.98087 0.85784 0.0
H123 H 0.76017 0.03219 0.84855 0.0
O124 O 0.81496 0.95358 0.9064 0.0
O125 O 0.76308 0.99709 0.89728 0.0
O126 O 0.79162 0.1406 0.88544 0.0
C127 C 0.78181 0.94398 0.90365 0.0
H128 H 0.7561 0.16277 0.97356 0.0
H129 H 0.84704 0.94833 0.81086 0.0
H130 H 0.92339 0.14568 0.8658 0.0
H131 H 0.92581 1.00195 0.9277 0.0
Co132 Co 0.2019 0.54625 0.658 0.0
C133 C 0.20105 0.54622 0.60025 0.0
C134 C 0.23122 0.627 0.61648 0.0
C135 C 0.2344 0.63061 0.5907 0.0
N136 N 0.2096 0.57526 0.62284 0.0
N137 N 0.21534 0.58023 0.58047 0.0
H138 H 0.18719 0.49861 0.59815 0.0
H139 H 0.24625 0.65737 0.62952 0.0
C140 C 0.21955 0.67505 0.68956 0.0
O141 O 0.20687 0.65045 0.71078 0.0
N142 N 0.19701 0.51728 0.69301 0.0
C143 C 0.1695 0.48864 0.7049 0.0
C144 C 0.17966 0.47084 0.72918 0.0
C145 C 0.22369 0.51373 0.70977 0.0
N146 N 0.21381 0.48688 0.73222 0.0
C147 C 0.1335 0.53655 0.63916 0.0
C148 C 0.09905 0.61408 0.67482 0.0
C149 C 0.0794 0.57459 0.6577 0.0
C150 C 0.09738 0.53656 0.63956 0.0
C151 C 0.13592 0.61269 0.67371 0.0
N152 N 0.15272 0.57275 0.65627 0.0
H153 H 0.14573 0.50232 0.6261 0.0
H154 H 0.15051 0.64032 0.68777 0.0
H155 H 0.14409 0.48005 0.69646 0.0
H156 H 0.24967 0.5326 0.70566 0.0
O157 O 0.19447 0.45393 0.64789 0.0
O158 O 0.24643 0.49746 0.65681 0.0
O159 O 0.21797 0.64086 0.66889 0.0
C160 C 0.22765 0.44434 0.65053 0.0
H161 H 0.25095 0.66546 0.58024 0.0
H162 H 0.16321 0.44695 0.74331 0.0
H163 H 0.08617 0.64442 0.68919 0.0
H164 H 0.08374 0.50353 0.6264 0.0
Co165 Co 0.80634 0.56683 0.65776 0.0
C166 C 0.80813 0.56273 0.59988 0.0
C167 C 0.77349 0.49039 0.61692 0.0
C168 C 0.77025 0.48513 0.59119 0.0
N169 N 0.79784 0.53776 0.62276 0.0
N170 N 0.79203 0.53032 0.58043 0.0
H171 H 0.82457 0.60683 0.59722 0.0
H172 H 0.75691 0.46455 0.63036 0.0
C173 C 0.78894 0.43792 0.68929 0.0
O174 O 0.80213 0.46219 0.71041 0.0
N175 N 0.81186 0.59559 0.69274 0.0
C176 C 0.83967 0.62335 0.70455 0.0
C177 C 0.82988 0.6409 0.72893 0.0
C178 C 0.78541 0.59926 0.70965 0.0
N179 N 0.79567 0.62551 0.73211 0.0
C180 C 0.8749 0.57849 0.63924 0.0
C181 C 0.90912 0.49674 0.6737 0.0
C182 C 0.92887 0.53804 0.65727 0.0
C183 C 0.91102 0.57822 0.63972 0.0
C184 C 0.87225 0.49842 0.67251 0.0
N185 N 0.85554 0.54037 0.65568 0.0
H186 H 0.86283 0.6144 0.62673 0.0
H187 H 0.85761 0.46917 0.68607 0.0
H188 H 0.86506 0.63141 0.69601 0.0
H189 H 0.75931 0.58083 0.70565 0.0
O190 O 0.8135 0.6592 0.6476 0.0
O191 O 0.76174 0.61565 0.65695 0.0
O192 O 0.79035 0.47219 0.66864 0.0
C193 C 0.78038 0.66876 0.65048 0.0
H194 H 0.75198 0.45283 0.5811 0.0
H195 H 0.84662 0.6641 0.74305 0.0
H196 H 0.92192 0.4647 0.68761 0.0
H197 H 0.92475 0.61267 0.62714 0.0
Co198 Co 0.20365 0.56778 0.39715 0.0
C199 C 0.20167 0.55998 0.45511 0.0
C200 C 0.23956 0.49554 0.43731 0.0
C201 C 0.24308 0.4888 0.46298 0.0
N202 N 0.21314 0.53892 0.43199 0.0
N203 N 0.21933 0.52915 0.47423 0.0
H204 H 0.18301 0.60023 0.45827 0.0
H205 H 0.25702 0.47348 0.4235 0.0
C206 C 0.22056 0.4387 0.36565 0.0
O207 O 0.20654 0.46256 0.34475 0.0
N208 N 0.19736 0.59608 0.36219 0.0
C209 C 0.1692 0.62262 0.35041 0.0
C210 C 0.17861 0.63964 0.32587 0.0
C211 C 0.22357 0.59984 0.34511 0.0
N212 N 0.2129 0.62512 0.3226 0.0
C213 C 0.13517 0.58078 0.41592 0.0
C214 C 0.10077 0.49607 0.38256 0.0
C215 C 0.08111 0.53853 0.39863 0.0
C216 C 0.09903 0.5801 0.41567 0.0
C217 C 0.13764 0.49795 0.38358 0.0
N218 N 0.15446 0.54136 0.39983 0.0
H219 H 0.14726 0.61791 0.42792 0.0
H220 H 0.15216 0.46754 0.37033 0.0
H221 H 0.14382 0.63009 0.35903 0.0
H222 H 0.24982 0.58204 0.349 0.0
O223 O 0.19676 0.66028 0.40728 0.0
O224 O 0.24827 0.6167 0.39737 0.0
O225 O 0.21959 0.4731 0.38629 0.0
C226 C 0.2298 0.66984 0.40403 0.0
H227 H 0.26269 0.45871 0.47268 0.0
H228 H 0.16157 0.66183 0.31172 0.0
H229 H 0.08787 0.46294 0.36907 0.0
H230 H 0.08529 0.61529 0.42797 0.0
Co231 Co 0.80812 0.54518 0.3969 0.0
C232 C 0.80916 0.54922 0.45481 0.0
C233 C 0.77475 0.62153 0.43749 0.0
C234 C 0.77112 0.62675 0.46319 0.0
N235 N 0.79921 0.57423 0.43185 0.0
N236 N 0.79275 0.58159 0.47412 0.0
H237 H 0.82555 0.50512 0.4576 0.0
H238 H 0.75832 0.6473 0.42393 0.0
C239 C 0.79096 0.67402 0.36525 0.0
O240 O 0.80437 0.64972 0.34421 0.0
N241 N 0.81391 0.51651 0.36192 0.0
C242 C 0.84185 0.48945 0.35005 0.0
C243 C 0.83213 0.47226 0.32559 0.0
C244 C 0.78749 0.51274 0.34498 0.0
N245 N 0.79786 0.48711 0.32245 0.0
C246 C 0.87648 0.53409 0.41597 0.0
C247 C 0.91103 0.61525 0.38151 0.0
C248 C 0.93062 0.57446 0.39822 0.0
C249 C 0.91262 0.53469 0.41581 0.0
C250 C 0.87415 0.61349 0.38245 0.0
N251 N 0.85728 0.57177 0.39927 0.0
H252 H 0.86429 0.49829 0.42845 0.0
H253 H 0.85965 0.64238 0.36871 0.0
H254 H 0.86729 0.48172 0.35856 0.0
H255 H 0.76132 0.53079 0.34897 0.0
O256 O 0.81526 0.45282 0.40708 0.0
O257 O 0.76356 0.49624 0.39745 0.0
O258 O 0.79217 0.63979 0.38592 0.0
C259 C 0.78218 0.44317 0.40401 0.0
H260 H 0.75267 0.65901 0.47312 0.0
H261 H 0.84895 0.44971 0.31139 0.0
H262 H 0.92397 0.64694 0.36757 0.0
H263 H 0.92631 0.50079 0.42864 0.0
Co264 Co 0.70192 0.04572 0.65736 0.0
C265 C 0.70085 0.04918 0.59947 0.0
C266 C 0.73479 0.1226 0.61662 0.0
C267 C 0.73837 0.12753 0.5909 0.0
N268 N 0.71063 0.07478 0.62238 0.0
N269 N 0.71701 0.08169 0.58008 0.0
H270 H 0.68479 1.00456 0.59678 0.0
H271 H 0.75109 0.14892 0.63011 0.0
C272 C 0.71912 0.17456 0.689 0.0
O273 O 0.70579 0.15019 0.71005 0.0
N274 N 0.6963 1.01697 0.69234 0.0
C275 C 0.66846 0.98949 0.7042 0.0
C276 C 0.67827 0.97213 0.72862 0.0
C277 C 0.72277 1.01328 0.70925 0.0
N278 N 0.71251 0.98731 0.73175 0.0
C279 C 0.63354 0.03473 0.63835 0.0
C280 C 0.59899 0.11519 0.67304 0.0
C281 C 0.5794 0.07457 0.65626 0.0
C282 C 0.59739 0.03515 0.63857 0.0
C283 C 0.63587 0.1136 0.67204 0.0
N284 N 0.65274 0.07222 0.6551 0.0
H285 H 0.64573 0.99918 0.62578 0.0
H286 H 0.65037 0.14232 0.68582 0.0
H287 H 0.64304 0.98152 0.69569 0.0
H288 H 0.74889 0.03157 0.70524 0.0
O289 O 0.69476 0.95337 0.64718 0.0
O290 O 0.7465 0.99686 0.65669 0.0
O291 O 0.71787 0.14036 0.66833 0.0
C292 C 0.72787 0.94377 0.65017 0.0
H293 H 0.75662 0.16001 0.58089 0.0
H294 H 0.66154 0.9492 0.74279 0.0
H295 H 0.58605 0.1466 0.68706 0.0
H296 H 0.58372 1.00136 0.6257 0.0
Co297 Co 0.30637 0.0673 0.65743 0.0
C298 C 0.30834 0.05955 0.59948 0.0
C299 C 0.27051 0.99494 0.61726 0.0
C300 C 0.26701 0.98821 0.5916 0.0
N301 N 0.29688 0.03843 0.62259 0.0
N302 N 0.29072 0.02866 0.58035 0.0
H303 H 0.32697 0.09986 0.59633 0.0
H304 H 0.25308 0.97275 0.63107 0.0
C305 C 0.28949 0.93824 0.68894 0.0
O306 O 0.30349 0.96214 0.70985 0.0
N307 N 0.31267 0.09561 0.69239 0.0
C308 C 0.34083 0.12214 0.70417 0.0
C309 C 0.33142 0.13919 0.7287 0.0
C310 C 0.28645 0.09941 0.70948 0.0
N311 N 0.29713 0.1247 0.73198 0.0
C312 C 0.37483 0.08037 0.63866 0.0
C313 C 0.40928 0.99569 0.67201 0.0
C314 C 0.42892 0.0382 0.65594 0.0
C315 C 0.41097 0.07977 0.63891 0.0
C316 C 0.37241 0.99752 0.671 0.0
N317 N 0.35556 0.04092 0.65475 0.0
H318 H 0.36273 0.1175 0.62666 0.0
H319 H 0.3579 0.96708 0.68424 0.0
H320 H 0.36621 0.1296 0.69555 0.0
H321 H 0.2602 0.08162 0.70559 0.0
O322 O 0.31324 0.1598 0.6473 0.0
O323 O 0.26174 0.11621 0.65722 0.0
O324 O 0.29046 0.97262 0.6683 0.0
C325 C 0.2802 0.16935 0.65056 0.0
H326 H 0.24745 0.95799 0.58188 0.0
H327 H 0.34846 0.16138 0.74285 0.0
H328 H 0.42219 0.96256 0.6855 0.0
H329 H 0.42469 0.11501 0.62662 0.0
Co330 Co 0.70373 0.0662 0.39652 0.0
C331 C 0.702 0.06213 0.45439 0.0
C332 C 0.73654 0.9896 0.43735 0.0
C333 C 0.73978 0.98435 0.46309 0.0
N334 N 0.71226 0.03709 0.43151 0.0
N335 N 0.71807 0.02966 0.47384 0.0
H336 H 0.68561 0.10629 0.45704 0.0
H337 H 0.75306 0.9636 0.42392 0.0
C338 C 0.72111 0.93734 0.36497 0.0
O339 O 0.70794 0.96166 0.34385 0.0
N340 N 0.69819 0.09499 0.36155 0.0
C341 C 0.67037 0.12279 0.34976 0.0
C342 C 0.68014 0.14044 0.32537 0.0
C343 C 0.72463 0.09874 0.34463 0.0
N344 N 0.71435 0.12508 0.32218 0.0
C345 C 0.6352 0.07786 0.41507 0.0
C346 C 0.60094 0.99619 0.3806 0.0
C347 C 0.5812 0.03749 0.39705 0.0
C348 C 0.59908 0.07764 0.4146 0.0
C349 C 0.63781 0.99784 0.38178 0.0
N350 N 0.65454 0.03975 0.39861 0.0
H351 H 0.64728 0.11374 0.42758 0.0
H352 H 0.65243 0.9686 0.36821 0.0
H353 H 0.64499 0.13083 0.3583 0.0
H354 H 0.75074 0.08032 0.34861 0.0
O355 O 0.69659 0.15856 0.40668 0.0
O356 O 0.74834 0.11501 0.39731 0.0
O357 O 0.7197 0.97157 0.38563 0.0
C358 C 0.72971 0.16812 0.40378 0.0
H359 H 0.758 0.95193 0.47319 0.0
H360 H 0.66339 0.16371 0.31128 0.0
H361 H 0.58812 0.96418 0.3667 0.0
H362 H 0.58537 0.1121 0.42719 0.0
Co363 Co 0.30817 0.04665 0.39659 0.0
C364 C 0.30904 0.04605 0.45431 0.0
C365 C 0.27941 0.12785 0.43825 0.0
C366 C 0.2763 0.1312 0.46404 0.0
N367 N 0.30066 0.07561 0.43178 0.0
N368 N 0.29504 0.08021 0.47416 0.0
H369 H 0.32259 0.99806 0.45631 0.0
H370 H 0.26457 0.15878 0.42529 0.0
C371 C 0.29052 0.17551 0.36505 0.0
O372 O 0.30316 0.1509 0.34383 0.0
N373 N 0.31291 1.01769 0.36156 0.0
C374 C 0.34032 0.98876 0.34967 0.0
C375 C 0.33009 0.97092 0.32541 0.0
C376 C 0.28619 1.01428 0.34483 0.0
N377 N 0.29597 0.98725 0.32238 0.0
C378 C 0.37658 0.03697 0.41538 0.0
C379 C 0.41105 0.1139 0.37954 0.0
C380 C 0.43069 0.07451 0.39671 0.0
C381 C 0.4127 0.03678 0.41493 0.0
C382 C 0.37418 0.1127 0.3807 0.0
N383 N 0.35737 0.07305 0.39822 0.0
H384 H 0.36433 1.00297 0.42851 0.0
H385 H 0.35959 0.14022 0.36661 0.0
H386 H 0.36572 0.97995 0.3581 0.0
H387 H 0.26025 0.03334 0.34896 0.0
O388 O 0.3156 0.95431 0.40666 0.0
O389 O 0.26362 0.99793 0.39786 0.0
O390 O 0.29209 0.14131 0.38572 0.0
C391 C 0.28241 0.94478 0.40409 0.0
H392 H 0.26001 0.16633 0.47459 0.0
H393 H 0.34646 0.9468 0.3113 0.0
H394 H 0.42394 0.14402 0.36511 0.0
H395 H 0.42632 1.00383 0.42813 0.0
Co396 Co 0.70233 0.54644 0.15795 0.0
C397 C 0.70116 0.54704 0.10017 0.0
C398 C 0.73247 0.626 0.11652 0.0
C399 C 0.73564 0.6298 0.09074 0.0
N400 N 0.71015 0.57533 0.12281 0.0
N401 N 0.71588 0.58057 0.08044 0.0
H402 H 0.68672 0.50013 0.09798 0.0
H403 H 0.74794 0.65534 0.12962 0.0
C404 C 0.71994 0.6754 0.18942 0.0
O405 O 0.70716 0.65095 0.21064 0.0
N406 N 0.69737 0.51765 0.19298 0.0
C407 C 0.66981 0.48926 0.20488 0.0
C408 C 0.67992 0.47161 0.2292 0.0
C409 C 0.72402 0.51414 0.20976 0.0
N410 N 0.71409 0.48752 0.23224 0.0
C411 C 0.63388 0.53617 0.13923 0.0
C412 C 0.59948 0.61471 0.17461 0.0
C413 C 0.57981 0.57472 0.15766 0.0
C414 C 0.59776 0.53618 0.13966 0.0
C415 C 0.63636 0.61331 0.17346 0.0
N416 N 0.65313 0.57289 0.15617 0.0
H417 H 0.64606 0.50153 0.12631 0.0
H418 H 0.65096 0.64137 0.1874 0.0
H419 H 0.64439 0.48075 0.19645 0.0
H420 H 0.75003 0.53289 0.20565 0.0
O421 O 0.69495 0.45408 0.14789 0.0
O422 O 0.74689 0.49765 0.15683 0.0
O423 O 0.71839 0.64112 0.16878 0.0
C424 C 0.72813 0.44452 0.15054 0.0
H425 H 0.75264 0.66394 0.08032 0.0
H426 H 0.66343 0.44793 0.24334 0.0
H427 H 0.58661 0.64545 0.18887 0.0
H428 H 0.5841 0.50275 0.12665 0.0
Co429 Co 0.30678 0.56512 0.15779 0.0
C430 C 0.30815 0.56217 0.09995 0.0
C431 C 0.27508 0.48681 0.11681 0.0
C432 C 0.27184 0.48193 0.09106 0.0
N433 N 0.29848 0.53586 0.12276 0.0
N434 N 0.29266 0.52898 0.08043 0.0
H435 H 0.32365 0.6076 0.09743 0.0
H436 H 0.25904 0.45938 0.13014 0.0
C437 C 0.28944 0.43634 0.18943 0.0
O438 O 0.30242 0.46087 0.21058 0.0
N439 N 0.31214 0.59415 0.19275 0.0
C440 C 0.33983 0.62251 0.20451 0.0
C441 C 0.32997 0.64034 0.22885 0.0
C442 C 0.28565 0.59779 0.20964 0.0
N443 N 0.29581 0.62454 0.23205 0.0
C444 C 0.37523 0.5763 0.13911 0.0
C445 C 0.40967 0.49645 0.17409 0.0
C446 C 0.42932 0.53722 0.1574 0.0
C447 C 0.41136 0.57643 0.1396 0.0
C448 C 0.37279 0.49775 0.1729 0.0
N449 N 0.35599 0.53881 0.15581 0.0
H450 H 0.36306 0.6115 0.12638 0.0
H451 H 0.35822 0.46905 0.18665 0.0
H452 H 0.36519 0.63086 0.19596 0.0
H453 H 0.25961 0.57904 0.20566 0.0
O454 O 0.31391 0.65744 0.14758 0.0
O455 O 0.26215 0.61379 0.15688 0.0
O456 O 0.29088 0.47049 0.16875 0.0
C457 C 0.28078 0.66694 0.15043 0.0
H458 H 0.2542 0.44852 0.08088 0.0
H459 H 0.34661 0.66405 0.24291 0.0
H460 H 0.42254 0.46517 0.18819 0.0
H461 H 0.42499 0.61047 0.12681 0.0
Co462 Co 0.7032 0.56696 0.8971 0.0
C463 C 0.70158 0.56033 0.95504 0.0
C464 C 0.73818 0.49287 0.93738 0.0
C465 C 0.74171 0.48656 0.96306 0.0
N466 N 0.7125 0.53785 0.93196 0.0
N467 N 0.71874 0.52877 0.97422 0.0
H468 H 0.68376 0.6021 0.95808 0.0
H469 H 0.75525 0.46938 0.92365 0.0
C470 C 0.7202 0.43815 0.86545 0.0
O471 O 0.70645 0.46232 0.8445 0.0
N472 N 0.69706 0.59559 0.86216 0.0
C473 C 0.66899 0.62257 0.85041 0.0
C474 C 0.67848 0.63994 0.82593 0.0
C475 C 0.72333 0.59949 0.84512 0.0
N476 N 0.71275 0.62523 0.82266 0.0
C477 C 0.63476 0.57927 0.91596 0.0
C478 C 0.60032 0.49592 0.88215 0.0
C479 C 0.58067 0.53776 0.89845 0.0
C480 C 0.59862 0.57864 0.91572 0.0
C481 C 0.63719 0.49775 0.88316 0.0
N482 N 0.65402 0.5405 0.89965 0.0
H483 H 0.64688 0.61591 0.92815 0.0
H484 H 0.65171 0.46792 0.86973 0.0
H485 H 0.64362 0.63015 0.85903 0.0
H486 H 0.74954 0.5815 0.84901 0.0
O487 O 0.69626 0.65937 0.90732 0.0
O488 O 0.74782 0.61584 0.89745 0.0
O489 O 0.71911 0.47234 0.88613 0.0
C490 C 0.72931 0.66895 0.9041 0.0
H491 H 0.76083 0.45547 0.97284 0.0
H492 H 0.66152 0.66254 0.81182 0.0
H493 H 0.58741 0.46334 0.86847 0.0
H494 H 0.58489 0.61336 0.92821 0.0
Co495 Co 0.30765 0.54394 0.89694 0.0
C496 C 0.30906 0.54881 0.95487 0.0
C497 C 0.27347 0.61877 0.93745 0.0
C498 C 0.26986 0.62423 0.96315 0.0
N499 N 0.29861 0.57278 0.93187 0.0
N500 N 0.29222 0.58053 0.97414 0.0
H501 H 0.32616 0.50582 0.95775 0.0
H502 H 0.25666 0.64338 0.92383 0.0
C503 C 0.29047 0.67295 0.86541 0.0
O504 O 0.30404 0.64887 0.84439 0.0
N505 N 0.31354 0.51552 0.86195 0.0
C506 C 0.34154 0.48877 0.85005 0.0
C507 C 0.33188 0.47172 0.82557 0.0
C508 C 0.28714 0.51175 0.84498 0.0
N509 N 0.29758 0.48638 0.82243 0.0
C510 C 0.37609 0.53225 0.91586 0.0
C511 C 0.41051 0.61479 0.88178 0.0
C512 C 0.43016 0.57345 0.89827 0.0
C513 C 0.41223 0.53296 0.91566 0.0
C514 C 0.37363 0.61289 0.88276 0.0
N515 N 0.35682 0.57052 0.89938 0.0
H516 H 0.36397 0.49593 0.92817 0.0
H517 H 0.3591 0.6423 0.86919 0.0
H518 H 0.36699 0.48117 0.85857 0.0
H519 H 0.26095 0.52964 0.84898 0.0
O520 O 0.31476 0.4515 0.90706 0.0
O521 O 0.26308 0.49495 0.89741 0.0
O522 O 0.29166 0.63861 0.88605 0.0
C523 C 0.28168 0.44187 0.90397 0.0
H524 H 0.25098 0.6556 0.97304 0.0
H525 H 0.34875 0.4494 0.81135 0.0
H526 H 0.42341 0.64704 0.86801 0.0
H527 H 0.42597 0.49862 0.9283 0.0
C528 C 0.26989 0.97763 0.25359 0.0
C529 C 0.23312 0.98094 0.25499 0.0
H530 H 0.31855 0.97747 0.27361 0.0
C531 C 0.21742 0.98182 0.27909 0.0
H532 H 0.28301 0.97554 0.23544 0.0
C533 C 0.23793 0.98196 0.30112 0.0
C534 C 0.27475 0.9813 0.2997 0.0
H535 H 0.18927 0.98451 0.281 0.0
H536 H 0.22478 0.98326 0.31927 0.0
C537 C 0.29039 0.97789 0.2756 0.0
C538 C 0.73966 0.13356 0.25324 0.0
C539 C 0.77647 0.13144 0.25449 0.0
H540 H 0.69118 0.13278 0.27348 0.0
C541 C 0.79239 0.13186 0.27853 0.0
H542 H 0.72634 0.13467 0.23515 0.0
C543 C 0.77209 0.13179 0.30064 0.0
C544 C 0.73526 0.13116 0.29937 0.0
H545 H 0.82057 0.13013 0.28035 0.0
H546 H 0.78542 0.13151 0.31873 0.0
C547 C 0.71936 0.13334 0.27534 0.0
C548 C 0.23959 0.13345 0.75361 0.0
C549 C 0.27638 0.13064 0.75486 0.0
H550 H 0.1911 0.13324 0.77384 0.0
C551 C 0.29231 0.13037 0.77889 0.0
H552 H 0.22628 0.1351 0.73552 0.0
C553 C 0.272 0.13031 0.80101 0.0
C554 C 0.23517 0.1304 0.79974 0.0
H555 H 0.32048 0.1281 0.7807 0.0
H556 H 0.28532 0.12949 0.8191 0.0
C557 C 0.21929 0.13324 0.77571 0.0
C558 C 0.77034 0.97957 0.75311 0.0
C559 C 0.73354 0.98139 0.75452 0.0
H560 H 0.81901 0.98042 0.77317 0.0
C561 C 0.71784 0.98062 0.77862 0.0
H562 H 0.78349 0.97878 0.73496 0.0
C563 C 0.73834 0.98059 0.80065 0.0
C564 C 0.77515 0.98143 0.79924 0.0
H565 H 0.68967 0.98212 0.78056 0.0
H566 H 0.72519 0.9806 0.8188 0.0
C567 C 0.79084 0.97966 0.77513 0.0
C568 C 0.27181 0.48098 0.7535 0.0
C569 C 0.23499 0.48089 0.75492 0.0
H570 H 0.32048 0.4831 0.77361 0.0
C571 C 0.21933 0.47804 0.77902 0.0
H572 H 0.28496 0.48184 0.73535 0.0
C573 C 0.23983 0.47779 0.80104 0.0
C574 C 0.27661 0.48054 0.79964 0.0
H575 H 0.19117 0.47805 0.781 0.0
H576 H 0.2267 0.47614 0.81919 0.0
C577 C 0.29232 0.48085 0.77553 0.0
C578 C 0.73792 0.63198 0.75365 0.0
C579 C 0.77475 0.63143 0.75492 0.0
H580 H 0.68944 0.6301 0.77394 0.0
C581 C 0.79065 0.63349 0.77896 0.0
H582 H 0.7246 0.63179 0.73556 0.0
C583 C 0.77035 0.63353 0.80106 0.0
C584 C 0.73354 0.63134 0.7998 0.0
H585 H 0.81883 0.63299 0.78082 0.0
H586 H 0.78366 0.63457 0.81915 0.0
C587 C 0.71762 0.63187 0.77576 0.0
C588 C 0.23802 0.63065 0.25357 0.0
C589 C 0.27486 0.63064 0.25483 0.0
H590 H 0.18955 0.62857 0.27388 0.0
C591 C 0.29074 0.63346 0.27887 0.0
H592 H 0.2247 0.62985 0.23548 0.0
C593 C 0.27045 0.63373 0.30096 0.0
C594 C 0.23365 0.631 0.29972 0.0
H595 H 0.31893 0.63339 0.28073 0.0
H596 H 0.28376 0.63535 0.31906 0.0
C597 C 0.21772 0.63077 0.27568 0.0
C598 C 0.77207 0.4814 0.25353 0.0
C599 C 0.73525 0.48157 0.25495 0.0
H600 H 0.82074 0.48333 0.27364 0.0
C601 C 0.71959 0.47902 0.27905 0.0
H602 H 0.78522 0.48203 0.23538 0.0
C603 C 0.74009 0.47879 0.30107 0.0
C604 C 0.77687 0.48127 0.29967 0.0
H605 H 0.69142 0.47924 0.28102 0.0
H606 H 0.72695 0.47738 0.31922 0.0
C607 C 0.79258 0.48129 0.27556 0.0
C608 C 0.2447 0.27422 0.2123 0.0
C609 C 0.23707 0.24084 0.18933 0.0
H610 H 0.2673 0.36163 0.2304 0.0
C611 C 0.24718 0.27219 0.16651 0.0
H612 H 0.23745 0.25159 0.23027 0.0
C613 C 0.26467 0.33475 0.16661 0.0
C614 C 0.27215 0.3684 0.1895 0.0
H615 H 0.24145 0.24875 0.14845 0.0
H616 H 0.27254 0.35632 0.14865 0.0
C617 C 0.26207 0.33718 0.21238 0.0
C618 C 0.74821 0.7739 0.2122 0.0
C619 C 0.7372 0.74337 0.18941 0.0
H620 H 0.77359 0.85891 0.22992 0.0
C621 C 0.74368 0.77777 0.16652 0.0
H622 H 0.74374 0.74886 0.23021 0.0
C623 C 0.76119 0.8403 0.16632 0.0
C624 C 0.77228 0.87093 0.18904 0.0
H625 H 0.73495 0.75685 0.14865 0.0
H626 H 0.76609 0.86435 0.14824 0.0
C627 C 0.76558 0.83686 0.21201 0.0
C628 C 0.24788 0.83703 0.8422 0.0
C629 C 0.23786 0.86829 0.86508 0.0
H630 H 0.27244 0.7514 0.82429 0.0
C631 C 0.24541 0.83467 0.88797 0.0
H632 H 0.2426 0.86145 0.82418 0.0
C633 C 0.26291 0.77213 0.88806 0.0
C634 C 0.27295 0.74072 0.86523 0.0
H635 H 0.23758 0.85626 0.90594 0.0
H636 H 0.26871 0.74874 0.90612 0.0
C637 C 0.26524 0.77406 0.84227 0.0
C638 C 0.74483 0.33672 0.84218 0.0
C639 C 0.73777 0.37043 0.86517 0.0
H640 H 0.76697 0.24904 0.82398 0.0
C641 C 0.74849 0.33943 0.88792 0.0
H642 H 0.73712 0.35908 0.82426 0.0
C643 C 0.76599 0.27688 0.88773 0.0
C644 C 0.77285 0.24287 0.86481 0.0
H645 H 0.74327 0.36319 0.90601 0.0
H646 H 0.77438 0.25563 0.90562 0.0
C647 C 0.76221 0.27377 0.842 0.0
C648 C 0.79145 0.81857 0.90534 0.0
C649 C 0.76795 0.87406 0.90524 0.0
H650 H 0.79779 0.70997 0.90481 0.0
C651 C 0.73198 0.86135 0.90563 0.0
H652 H 0.81947 0.82676 0.90489 0.0
C653 C 0.71974 0.79436 0.90595 0.0
C654 C 0.74322 0.73887 0.90547 0.0
H655 H 0.71338 0.90296 0.90551 0.0
H656 H 0.69171 0.78618 0.90599 0.0
C657 C 0.77919 0.75158 0.90524 0.0
C658 C 0.29127 0.31646 0.90586 0.0
C659 C 0.26779 0.37196 0.90548 0.0
H660 H 0.29761 0.20785 0.9055 0.0
C661 C 0.23181 0.35927 0.90557 0.0
H662 H 0.3193 0.32464 0.90566 0.0
C663 C 0.21955 0.29228 0.90586 0.0
C664 C 0.24304 0.23677 0.90564 0.0
H665 H 0.21321 0.40089 0.90524 0.0
H666 H 0.19152 0.28412 0.90564 0.0
C667 C 0.27901 0.24947 0.90572 0.0
C668 C 0.71851 0.3191 0.14887 0.0
C669 C 0.74199 0.37461 0.14893 0.0
H670 H 0.7122 0.21049 0.14946 0.0
C671 C 0.77796 0.36194 0.14852 0.0
H672 H 0.69048 0.32726 0.14933 0.0
C673 C 0.79023 0.29496 0.14822 0.0
C674 C 0.76676 0.23944 0.14876 0.0
H675 H 0.79656 0.40357 0.1486 0.0
H676 H 0.81826 0.28681 0.14818 0.0
C677 C 0.73078 0.25212 0.149 0.0
C678 C 0.21866 0.81657 0.14881 0.0
C679 C 0.24215 0.87206 0.14916 0.0
H680 H 0.21231 0.70796 0.14916 0.0
C681 C 0.27812 0.85934 0.14905 0.0
H682 H 0.19063 0.82476 0.14903 0.0
C683 C 0.29037 0.79236 0.14874 0.0
C684 C 0.26688 0.73686 0.14897 0.0
H685 H 0.29673 0.90096 0.14936 0.0
H686 H 0.31841 0.78418 0.14893 0.0
C687 C 0.23091 0.74957 0.14893 0.0
C688 C 0.24248 0.77822 0.66674 0.0
C689 C 0.23677 0.74303 0.68957 0.0
H690 H 0.26425 0.86549 0.6485 0.0
C691 C 0.24849 0.7728 0.71231 0.0
H692 H 0.23313 0.75795 0.64894 0.0
C693 C 0.26586 0.83575 0.71213 0.0
C694 C 0.27186 0.87058 0.68921 0.0
H695 H 0.2446 0.74714 0.73027 0.0
H696 H 0.27446 0.85717 0.73 0.0
C697 C 0.25999 0.84076 0.66654 0.0
C698 C 0.76265 0.33761 0.71225 0.0
C699 C 0.77155 0.37004 0.68934 0.0
H700 H 0.73903 0.25099 0.73016 0.0
C701 C 0.76283 0.33764 0.66643 0.0
H702 H 0.76883 0.36108 0.73029 0.0
C703 C 0.74534 0.27508 0.66636 0.0
C704 C 0.73651 0.24243 0.6892 0.0
H705 H 0.76967 0.36023 0.64842 0.0
H706 H 0.73856 0.2527 0.6483 0.0
C707 C 0.74531 0.27463 0.71218 0.0
C708 C 0.24401 0.33602 0.34249 0.0
C709 C 0.23821 0.37105 0.36539 0.0
H710 H 0.26511 0.24723 0.32437 0.0
C711 C 0.25028 0.34144 0.38805 0.0
H712 H 0.23525 0.35727 0.32463 0.0
C713 C 0.2678 0.27891 0.38784 0.0
C714 C 0.2733 0.2435 0.36503 0.0
H715 H 0.24618 0.36632 0.40608 0.0
H716 H 0.27733 0.25883 0.40562 0.0
C717 C 0.26139 0.27307 0.34231 0.0
C718 C 0.76447 0.77426 0.3879 0.0
C719 C 0.77353 0.74186 0.36505 0.0
H720 H 0.73998 0.85926 0.40583 0.0
C721 C 0.76495 0.77428 0.34207 0.0
H722 H 0.77106 0.75167 0.40596 0.0
C723 C 0.74759 0.83725 0.342 0.0
C724 C 0.73848 0.86946 0.36491 0.0
H725 H 0.7714 0.75082 0.32409 0.0
H726 H 0.74158 0.8609 0.32397 0.0
C727 C 0.74699 0.83683 0.38782 0.0
C728 C 0.79181 0.31776 0.40581 0.0
C729 C 0.7683 0.37324 0.40545 0.0
H730 H 0.79817 0.20915 0.40531 0.0
C731 C 0.73234 0.3605 0.40541 0.0
H732 H 0.81983 0.32596 0.4057 0.0
C733 C 0.72009 0.29351 0.40556 0.0
C734 C 0.74359 0.23803 0.40533 0.0
H735 H 0.71372 0.40211 0.40508 0.0
H736 H 0.69206 0.28532 0.40525 0.0
C737 C 0.77956 0.25076 0.40553 0.0
C738 C 0.22029 0.79523 0.4061 0.0
C739 C 0.24375 0.7397 0.40551 0.0
H740 H 0.21397 0.90383 0.40589 0.0
C741 C 0.27973 0.75236 0.40537 0.0
H742 H 0.19226 0.78709 0.40608 0.0
C743 C 0.29202 0.81933 0.40565 0.0
C744 C 0.26854 0.87486 0.40563 0.0
H745 H 0.29831 0.71072 0.40488 0.0
H746 H 0.32004 0.82748 0.40525 0.0
C747 C 0.23257 0.86219 0.40595 0.0
C748 C 0.78998 0.79415 0.64865 0.0
C749 C 0.76649 0.73866 0.6489 0.0
H750 H 0.79633 0.90275 0.64909 0.0
C751 C 0.73052 0.75136 0.64867 0.0
H752 H 0.81801 0.78598 0.64896 0.0
C753 C 0.71826 0.81835 0.64837 0.0
C754 C 0.74175 0.87385 0.64872 0.0
H755 H 0.71191 0.70975 0.6489 0.0
H756 H 0.69023 0.82654 0.64847 0.0
C757 C 0.77773 0.86114 0.64877 0.0
C758 C 0.21801 0.3189 0.64897 0.0
C759 C 0.2415 0.37441 0.649 0.0
H760 H 0.21169 0.21028 0.6497 0.0
C761 C 0.27747 0.36171 0.64871 0.0
H762 H 0.18999 0.32708 0.64935 0.0
C763 C 0.28973 0.29473 0.64855 0.0
C764 C 0.26626 0.23923 0.6491 0.0
H765 H 0.29607 0.40333 0.64879 0.0
H766 H 0.31777 0.28658 0.64858 0.0
C767 C 0.23028 0.25191 0.64923 0.0
C768 C 0.98644 0.04968 0.17978 0.0
C769 C 0.96817 0.04348 0.15672 0.0
H770 H 0.03634 0.06551 0.19781 0.0
C771 C 0.98682 0.04987 0.1339 0.0
H772 H 0.97268 0.04602 0.19767 0.0
C773 C 0.02247 0.06371 0.13398 0.0
C774 C 0.04103 0.06934 0.15688 0.0
H775 H 0.97372 0.04491 0.11577 0.0
H776 H 0.03567 0.06918 0.11592 0.0
C777 C 0.02265 0.06245 0.17986 0.0
C778 C 0.02312 0.04886 0.919 0.0
C779 C 0.04181 0.04252 0.89619 0.0
H780 H 0.97449 0.06923 0.937 0.0
C781 C 0.02355 0.04906 0.87312 0.0
H782 H 0.03611 0.0434 0.93714 0.0
C783 C 0.98735 0.06209 0.87304 0.0
C784 C 0.96898 0.06913 0.89603 0.0
H785 H 0.03729 0.04541 0.85522 0.0
H786 H 0.97369 0.0653 0.85509 0.0
C787 C 0.98757 0.06337 0.91892 0.0
C788 C 0.986 0.54855 0.68134 0.0
C789 C 0.96771 0.54308 0.65825 0.0
H790 H 0.0359 0.5638 0.69943 0.0
C791 C 0.98638 0.55018 0.63547 0.0
H792 H 0.97226 0.54428 0.69922 0.0
C793 C 0.02196 0.56447 0.63561 0.0
C794 C 0.04057 0.56924 0.65851 0.0
H795 H 0.97336 0.54556 0.6173 0.0
H796 H 0.03502 0.57101 0.61755 0.0
C797 C 0.02222 0.56136 0.68147 0.0
C798 C 0.9878 0.56174 0.37451 0.0
C799 C 0.96944 0.56943 0.39747 0.0
H800 H 0.03774 0.54464 0.35676 0.0
C801 C 0.98801 0.56448 0.42038 0.0
H802 H 0.9741 0.56427 0.35656 0.0
C803 C 0.02365 0.55055 0.42051 0.0
C804 C 0.04229 0.54341 0.39772 0.0
H805 H 0.97485 0.57063 0.43843 0.0
H806 H 0.03677 0.54617 0.43866 0.0
C807 C 0.024 0.54889 0.37464 0.0
C808 C 0.48635 0.05048 0.63404 0.0
C809 C 0.46774 0.04313 0.65684 0.0
H810 H 0.53509 0.07089 0.6161 0.0
C811 C 0.48607 0.0485 0.67991 0.0
H812 H 0.47321 0.04617 0.6159 0.0
C813 C 0.52226 0.06144 0.68002 0.0
C814 C 0.54058 0.06937 0.65706 0.0
H815 H 0.47235 0.04409 0.6978 0.0
H816 H 0.53598 0.06388 0.69797 0.0
C817 C 0.52197 0.06454 0.63415 0.0
C818 C 0.48816 0.06422 0.41876 0.0
C819 C 0.46951 0.06898 0.39586 0.0
H820 H 0.53676 0.04519 0.43704 0.0
C821 C 0.48783 0.06094 0.3729 0.0
H822 H 0.47513 0.0709 0.43682 0.0
C823 C 0.52404 0.04802 0.37301 0.0
C824 C 0.54236 0.04258 0.39609 0.0
H825 H 0.47413 0.06336 0.35495 0.0
H826 H 0.53775 0.04366 0.35512 0.0
C827 C 0.52372 0.0498 0.41888 0.0
C828 C 0.52264 0.56201 0.1815 0.0
C829 C 0.54098 0.56936 0.15851 0.0
H830 H 0.47272 0.54509 0.19932 0.0
C831 C 0.52236 0.56389 0.13563 0.0
H832 H 0.53632 0.565 0.19944 0.0
C833 C 0.48681 0.54933 0.13555 0.0
C834 C 0.46815 0.54271 0.15836 0.0
H835 H 0.53541 0.57001 0.11754 0.0
H836 H 0.47381 0.54407 0.1174 0.0
C837 C 0.48644 0.54897 0.18142 0.0
C838 C 0.48758 0.56293 0.92036 0.0
C839 C 0.46899 0.56859 0.89747 0.0
H840 H 0.53635 0.54408 0.93853 0.0
C841 C 0.48733 0.5617 0.87448 0.0
H842 H 0.47442 0.56844 0.93843 0.0
C843 C 0.52354 0.54891 0.87453 0.0
C844 C 0.54185 0.54269 0.89758 0.0
H845 H 0.47362 0.56479 0.85654 0.0
H846 H 0.53727 0.54526 0.85663 0.0
C847 C 0.52323 0.54906 0.92041 0.0
C848 C 0.18499 0.05204 1.01403 0.0
C849 C 0.2167 0.04536 1.00075 0.0
H850 H 0.16054 0.0666 0.05049 0.0
C851 C 0.24834 0.04917 1.01417 0.0
H852 H 0.16031 0.04841 1.00403 0.0
C853 C 0.24847 0.05971 0.04028 0.0
C854 C 0.21696 0.06567 0.05375 0.0
H855 H 0.27307 0.04404 1.00435 0.0
H856 H 0.27333 0.06275 0.05007 0.0
C857 C 0.18512 0.0614 0.04048 0.0
C858 C 0.76193 0.05876 1.0133 0.0
C859 C 0.7938 0.06354 1.00025 0.0
H860 H 0.7363 0.0449 0.04891 0.0
C861 C 0.82528 0.0578 1.01388 0.0
H862 H 0.73737 0.06337 1.00319 0.0
C863 C 0.8247 0.04854 0.04033 0.0
C864 C 0.79263 0.04348 0.05326 0.0
H865 H 0.85012 0.0623 1.00416 0.0
H866 H 0.84912 0.04428 0.05062 0.0
C867 C 0.76134 0.04836 0.03941 0.0
C868 C 0.1843 0.5564 0.5402 0.0
C869 C 0.21557 0.5623 0.55406 0.0
H870 H 0.161 0.54293 0.50328 0.0
C871 C 0.24763 0.55759 0.54128 0.0
H872 H 0.15932 0.56094 0.54973 0.0
C873 C 0.24861 0.54723 0.51517 0.0
C874 C 0.21753 0.54231 0.50106 0.0
H875 H 0.27201 0.56253 0.55159 0.0
H876 H 0.27382 0.54409 0.50588 0.0
C877 C 0.18527 0.54715 0.51376 0.0
C878 C 0.82505 0.56043 0.51417 0.0
C879 C 0.79336 0.56605 0.50078 0.0
H880 H 0.84944 0.54661 0.55072 0.0
C881 C 0.76169 0.56139 0.51412 0.0
H882 H 0.84975 0.56467 0.50425 0.0
C883 C 0.76152 0.55095 0.54023 0.0
C884 C 0.79301 0.5459 0.55379 0.0
H885 H 0.73695 0.56558 0.50423 0.0
H886 H 0.73665 0.54705 0.54996 0.0
C887 C 0.82488 0.55115 0.54062 0.0
C888 C 0.74821 0.0605 0.54022 0.0
C889 C 0.71649 0.06569 0.55347 0.0
H890 H 0.77337 0.04558 0.50447 0.0
C891 C 0.68485 0.0604 0.54001 0.0
H892 H 0.77291 0.06452 0.55019 0.0
C893 C 0.68511 0.05094 0.51357 0.0
C894 C 0.71703 0.04519 0.50049 0.0
H895 H 0.66012 0.06508 0.54987 0.0
H896 H 0.66058 0.04672 0.50341 0.0
C897 C 0.74847 0.04985 0.51412 0.0
C898 C 0.32595 0.05642 0.51447 0.0
C899 C 0.29473 0.06194 0.50053 0.0
H900 H 0.34913 0.04318 0.55144 0.0
C901 C 0.26263 0.05674 0.51322 0.0
H902 H 0.35096 0.06139 0.50501 0.0
C903 C 0.26155 0.04625 0.53933 0.0
C904 C 0.29258 0.04175 0.55351 0.0
H905 H 0.23829 0.06146 0.50284 0.0
H906 H 0.23632 0.04277 0.54855 0.0
C907 C 0.32489 0.04707 0.5409 0.0
C908 C 0.68439 0.55806 0.04024 0.0
C909 C 0.7158 0.56293 0.05399 0.0
H910 H 0.66075 0.54515 1.0034 0.0
C911 C 0.74773 0.55711 0.04111 0.0
H912 H 0.65951 0.56343 0.04984 0.0
C913 C 0.74846 0.54654 1.015 0.0
C914 C 0.71725 0.54259 1.00101 0.0
H915 H 0.77222 0.56117 0.05134 0.0
H916 H 0.77356 0.54235 1.00562 0.0
C917 C 0.68512 0.54866 1.0138 0.0
C918 C 0.32496 0.56107 1.01413 0.0
C919 C 0.29314 0.56538 1.00083 0.0
H920 H 0.3497 0.5481 0.0506 0.0
C921 C 0.2616 0.55944 1.01427 0.0
H922 H 0.34956 0.56626 1.00413 0.0
C923 C 0.26169 0.54892 0.04038 0.0
C924 C 0.29331 0.54511 0.05383 0.0
H925 H 0.23676 0.56253 1.00445 0.0
H926 H 0.23694 0.54384 0.05018 0.0
C927 C 0.32504 0.55173 0.04057 0.0
loop_
_geom_bond_atom_site_label_1
_geom_bond_atom_site_label_2
_geom_bond_distance
_geom_bond_site_symmetry_2
_ccdc_geom_bond_type
Co0 N4 2.148 . S
Co0 N10 2.128 . S
Co0 N20 2.194 . S
Co0 O25 2.351 1_545 S
Co0 O26 2.155 1_545 S
Co0 O27 2.096 . S
C1 N4 1.301 . S
C1 N5 1.328 . S
C1 H6 0.930 1_545 S
C2 C3 1.333 . S
C2 N4 1.317 . S
C2 H7 0.930 . S
C3 C2 1.333 . S
C3 N5 1.350 . S
C3 H29 0.931 . S
N4 Co0 2.148 . S
N4 C1 1.301 . S
N4 C2 1.317 . S
N5 C1 1.328 . S
N5 C3 1.350 . S
H6 C1 0.930 1_565 S
H7 C2 0.930 . S
C8 O9 1.224 . S
C8 O27 1.247 . S
O9 C8 1.224 . S
N10 Co0 2.128 . S
N10 C11 1.359 . S
N10 C13 1.311 . S
C11 N10 1.359 . S
C11 C12 1.365 . S
C11 H23 0.924 1_545 S
C12 C11 1.365 . S
C12 N14 1.375 . S
C12 H30 0.931 1_545 S
C13 N10 1.311 . S
C13 N14 1.347 . S
C13 H24 0.929 . S
N14 C12 1.375 . S
N14 C13 1.347 . S
C15 C18 1.365 . S
C15 N20 1.328 1_565 S
C15 H21 0.929 . S
C16 C17 1.362 . S
C16 C19 1.378 . S
C16 H31 0.929 . S
C17 C16 1.362 . S
C17 C18 1.366 1_545 S
C18 C15 1.365 . S
C18 C17 1.366 1_565 S
C18 H32 0.930 . S
C19 C16 1.378 . S
C19 N20 1.315 . S
C19 H22 0.930 . S
N20 Co0 2.194 . S
N20 C15 1.328 1_545 S
N20 C19 1.315 . S
H21 C15 0.929 . S
H22 C19 0.930 . S
H23 C11 0.924 1_565 S
H24 C13 0.929 . S
O25 Co0 2.351 1_565 S
O25 C28 1.244 . S
O26 Co0 2.155 1_565 S
O26 C28 1.240 . S
O27 Co0 2.096 . S
O27 C8 1.247 . S
C28 O25 1.244 . S
C28 O26 1.240 . S
H29 C3 0.931 . S
H30 C12 0.931 1_565 S
H31 C16 0.929 . S
H32 C18 0.930 . S
Co33 N37 2.148 . S
Co33 N43 2.128 . S
Co33 N53 2.194 . S
Co33 O58 2.351 . S
Co33 O59 2.155 . S
Co33 O60 2.096 1_545 S
C34 N37 1.301 . S
C34 N38 1.328 . S
C34 H39 0.930 . S
C35 C36 1.333 . S
C35 N37 1.317 1_565 S
C35 H40 0.930 . S
C36 C35 1.333 . S
C36 N38 1.350 1_565 S
C36 H62 0.931 . S
N37 Co33 2.148 . S
N37 C34 1.301 . S
N37 C35 1.317 1_545 S
N38 C34 1.328 . S
N38 C36 1.350 1_545 S
H39 C34 0.930 . S
H40 C35 0.930 . S
C41 O42 1.224 . S
C41 O60 1.247 . S
O42 C41 1.224 . S
N43 Co33 2.128 . S
N43 C44 1.355 . S
N43 C46 1.309 1_545 S
C44 N43 1.355 . S
C44 C45 1.363 . S
C44 H56 0.929 . S
C45 C44 1.363 . S
C45 N47 1.375 . S
C45 H63 0.931 . S
C46 N43 1.309 1_565 S
C46 N47 1.347 1_565 S
C46 H57 0.932 . S
N47 C45 1.375 . S
N47 C46 1.347 1_545 S
C48 C51 1.365 . S
C48 N53 1.328 . S
C48 H54 0.929 . S
C49 C50 1.362 1_565 S
C49 C52 1.378 . S
C49 H64 0.929 . S
C50 C49 1.362 1_545 S
C50 C51 1.366 . S
C51 C48 1.365 . S
C51 C50 1.366 . S
C51 H65 0.930 . S
C52 C49 1.378 . S
C52 N53 1.315 1_565 S
C52 H55 0.930 . S
N53 Co33 2.194 . S
N53 C48 1.328 . S
N53 C52 1.315 1_545 S
H54 C48 0.929 . S
H55 C52 0.930 . S
H56 C44 0.929 . S
H57 C46 0.932 . S
O58 Co33 2.351 . S
O58 C61 1.244 . S
O59 Co33 2.155 . S
O59 C61 1.240 . S
O60 Co33 2.096 1_565 S
O60 C41 1.247 . S
C61 O58 1.244 . S
C61 O59 1.240 . S
H62 C36 0.931 . S
H63 C45 0.931 . S
H64 C49 0.929 . S
H65 C51 0.930 . S
Co66 N70 2.148 . S
Co66 N76 2.128 . S
Co66 N86 2.194 . S
Co66 O91 2.351 . S
Co66 O92 2.155 . S
Co66 O93 2.096 1_545 S
C67 N70 1.301 . S
C67 N71 1.328 . S
C67 H72 0.930 . S
C68 C69 1.333 . S
C68 N70 1.317 1_565 S
C68 H73 0.930 . S
C69 C68 1.333 . S
C69 N71 1.350 1_565 S
C69 H95 0.931 . S
N70 Co66 2.148 . S
N70 C67 1.301 . S
N70 C68 1.317 1_545 S
N71 C67 1.328 . S
N71 C69 1.350 1_545 S
H72 C67 0.930 . S
H73 C68 0.930 . S
C74 O75 1.224 . S
C74 O93 1.247 . S
O75 C74 1.224 . S
N76 Co66 2.128 . S
N76 C77 1.355 . S
N76 C79 1.309 1_545 S
C77 N76 1.355 . S
C77 C78 1.363 . S
C77 H89 0.929 . S
C78 C77 1.363 . S
C78 N80 1.375 . S
C78 H96 0.931 . S
C79 N76 1.309 1_565 S
C79 N80 1.347 1_565 S
C79 H90 0.932 . S
N80 C78 1.375 . S
N80 C79 1.347 1_545 S
C81 C84 1.365 . S
C81 N86 1.328 . S
C81 H87 0.929 . S
C82 C83 1.362 1_565 S
C82 C85 1.378 . S
C82 H97 0.929 . S
C83 C82 1.362 1_545 S
C83 C84 1.366 . S
C84 C81 1.365 . S
C84 C83 1.366 . S
C84 H98 0.930 . S
C85 C82 1.378 . S
C85 N86 1.315 1_565 S
C85 H88 0.930 . S
N86 Co66 2.194 . S
N86 C81 1.328 . S
N86 C85 1.315 1_545 S
H87 C81 0.929 . S
H88 C85 0.930 . S
H89 C77 0.929 . S
H90 C79 0.932 . S
O91 Co66 2.351 . S
O91 C94 1.244 . S
O92 Co66 2.155 . S
O92 C94 1.240 . S
O93 Co66 2.096 1_565 S
O93 C74 1.247 . S
C94 O91 1.244 . S
C94 O92 1.240 . S
H95 C69 0.931 . S
H96 C78 0.931 . S
H97 C82 0.929 . S
H98 C84 0.930 . S
Co99 N103 2.148 . S
Co99 N109 2.128 . S
Co99 N119 2.194 . S
Co99 O124 2.351 1_545 S
Co99 O125 2.155 1_545 S
Co99 O126 2.096 . S
C100 N103 1.301 . S
C100 N104 1.328 . S
C100 H105 0.930 1_545 S
C101 C102 1.333 . S
C101 N103 1.317 . S
C101 H106 0.930 . S
C102 C101 1.333 . S
C102 N104 1.350 . S
C102 H128 0.931 . S
N103 Co99 2.148 . S
N103 C100 1.301 . S
N103 C101 1.317 . S
N104 C100 1.328 . S
N104 C102 1.350 . S
H105 C100 0.930 1_565 S
H106 C101 0.930 . S
C107 O108 1.224 . S
C107 O126 1.247 . S
O108 C107 1.224 . S
N109 Co99 2.128 . S
N109 C110 1.359 . S
N109 C112 1.311 . S
C110 N109 1.359 . S
C110 C111 1.365 . S
C110 H122 0.924 1_545 S
C111 C110 1.365 . S
C111 N113 1.375 . S
C111 H129 0.931 1_545 S
C112 N109 1.311 . S
C112 N113 1.347 . S
C112 H123 0.929 . S
N113 C111 1.375 . S
N113 C112 1.347 . S
C114 C117 1.365 . S
C114 N119 1.328 1_565 S
C114 H120 0.929 . S
C115 C116 1.362 . S
C115 C118 1.378 . S
C115 H130 0.929 . S
C116 C115 1.362 . S
C116 C117 1.366 1_545 S
C117 C114 1.365 . S
C117 C116 1.366 1_565 S
C117 H131 0.930 . S
C118 C115 1.378 . S
C118 N119 1.315 . S
C118 H121 0.930 . S
N119 Co99 2.194 . S
N119 C114 1.328 1_545 S
N119 C118 1.315 . S
H120 C114 0.929 . S
H121 C118 0.930 . S
H122 C110 0.924 1_565 S
H123 C112 0.929 . S
O124 Co99 2.351 1_565 S
O124 C127 1.244 . S
O125 Co99 2.155 1_565 S
O125 C127 1.240 . S
O126 Co99 2.096 . S
O126 C107 1.247 . S
C127 O124 1.244 . S
C127 O125 1.240 . S
H128 C102 0.931 . S
H129 C111 0.931 1_565 S
H130 C115 0.929 . S
H131 C117 0.930 . S
Co132 N136 2.148 . S
Co132 N142 2.128 . S
Co132 N152 2.194 . S
Co132 O157 2.351 . S
Co132 O158 2.155 . S
Co132 O159 2.096 . S
C133 N136 1.301 . S
C133 N137 1.328 . S
C133 H138 0.930 . S
C134 C135 1.333 . S
C134 N136 1.317 . S
C134 H139 0.930 . S
C135 C134 1.333 . S
C135 N137 1.350 . S
C135 H161 0.931 . S
N136 Co132 2.148 . S
N136 C133 1.301 . S
N136 C134 1.317 . S
N137 C133 1.328 . S
N137 C135 1.350 . S
H138 C133 0.930 . S
H139 C134 0.930 . S
C140 O141 1.224 . S
C140 O159 1.247 . S
O141 C140 1.224 . S
N142 Co132 2.128 . S
N142 C143 1.355 . S
N142 C145 1.311 . S
C143 N142 1.355 . S
C143 C144 1.363 . S
C143 H155 0.929 . S
C144 C143 1.363 . S
C144 N146 1.375 . S
C144 H162 0.931 . S
C145 N142 1.311 . S
C145 N146 1.347 . S
C145 H156 0.929 . S
N146 C144 1.375 . S
N146 C145 1.347 . S
C147 C150 1.365 . S
C147 N152 1.328 . S
C147 H153 0.929 . S
C148 C149 1.362 . S
C148 C151 1.378 . S
C148 H163 0.929 . S
C149 C148 1.362 . S
C149 C150 1.366 . S
C150 C147 1.365 . S
C150 C149 1.366 . S
C150 H164 0.930 . S
C151 C148 1.378 . S
C151 N152 1.315 . S
C151 H154 0.930 . S
N152 Co132 2.194 . S
N152 C147 1.328 . S
N152 C151 1.315 . S
H153 C147 0.929 . S
H154 C151 0.930 . S
H155 C143 0.929 . S
H156 C145 0.929 . S
O157 Co132 2.351 . S
O157 C160 1.244 . S
O158 Co132 2.155 . S
O158 C160 1.240 . S
O159 Co132 2.096 . S
O159 C140 1.247 . S
C160 O157 1.244 . S
C160 O158 1.240 . S
H161 C135 0.931 . S
H162 C144 0.931 . S
H163 C148 0.929 . S
H164 C150 0.930 . S
Co165 N169 2.148 . S
Co165 N175 2.128 . S
Co165 N185 2.194 . S
Co165 O190 2.351 . S
Co165 O191 2.155 . S
Co165 O192 2.096 . S
C166 N169 1.301 . S
C166 N170 1.328 . S
C166 H171 0.930 . S
C167 C168 1.333 . S
C167 N169 1.317 . S
C167 H172 0.930 . S
C168 C167 1.333 . S
C168 N170 1.350 . S
C168 H194 0.931 . S
N169 Co165 2.148 . S
N169 C166 1.301 . S
N169 C167 1.317 . S
N170 C166 1.328 . S
N170 C168 1.350 . S
H171 C166 0.930 . S
H172 C167 0.930 . S
C173 O174 1.224 . S
C173 O192 1.247 . S
O174 C173 1.224 . S
N175 Co165 2.128 . S
N175 C176 1.355 . S
N175 C178 1.311 . S
C176 N175 1.355 . S
C176 C177 1.363 . S
C176 H188 0.929 . S
C177 C176 1.363 . S
C177 N179 1.375 . S
C177 H195 0.931 . S
C178 N175 1.311 . S
C178 N179 1.347 . S
C178 H189 0.929 . S
N179 C177 1.375 . S
N179 C178 1.347 . S
C180 C183 1.365 . S
C180 N185 1.328 . S
C180 H186 0.929 . S
C181 C182 1.362 . S
C181 C184 1.378 . S
C181 H196 0.929 . S
C182 C181 1.362 . S
C182 C183 1.366 . S
C183 C180 1.365 . S
C183 C182 1.366 . S
C183 H197 0.930 . S
C184 C181 1.378 . S
C184 N185 1.315 . S
C184 H187 0.930 . S
N185 Co165 2.194 . S
N185 C180 1.328 . S
N185 C184 1.315 . S
H186 C180 0.929 . S
H187 C184 0.930 . S
H188 C176 0.929 . S
H189 C178 0.929 . S
O190 Co165 2.351 . S
O190 C193 1.244 . S
O191 Co165 2.155 . S
O191 C193 1.240 . S
O192 Co165 2.096 . S
O192 C173 1.247 . S
C193 O190 1.244 . S
C193 O191 1.240 . S
H194 C168 0.931 . S
H195 C177 0.931 . S
H196 C181 0.929 . S
H197 C183 0.930 . S
Co198 N202 2.148 . S
Co198 N208 2.128 . S
Co198 N218 2.194 . S
Co198 O223 2.351 . S
Co198 O224 2.155 . S
Co198 O225 2.096 . S
C199 N202 1.301 . S
C199 N203 1.328 . S
C199 H204 0.930 . S
C200 C201 1.333 . S
C200 N202 1.317 . S
C200 H205 0.930 . S
C201 C200 1.333 . S
C201 N203 1.350 . S
C201 H227 0.931 . S
N202 Co198 2.148 . S
N202 C199 1.301 . S
N202 C200 1.317 . S
N203 C199 1.328 . S
N203 C201 1.350 . S
H204 C199 0.930 . S
H205 C200 0.930 . S
C206 O207 1.224 . S
C206 O225 1.247 . S
O207 C206 1.224 . S
N208 Co198 2.128 . S
N208 C209 1.355 . S
N208 C211 1.311 . S
C209 N208 1.355 . S
C209 C210 1.363 . S
C209 H221 0.929 . S
C210 C209 1.363 . S
C210 N212 1.375 . S
C210 H228 0.931 . S
C211 N208 1.311 . S
C211 N212 1.347 . S
C211 H222 0.929 . S
N212 C210 1.375 . S
N212 C211 1.347 . S
C213 C216 1.365 . S
C213 N218 1.328 . S
C213 H219 0.929 . S
C214 C215 1.362 . S
C214 C217 1.378 . S
C214 H229 0.929 . S
C215 C214 1.362 . S
C215 C216 1.366 . S
C216 C213 1.365 . S
C216 C215 1.366 . S
C216 H230 0.930 . S
C217 C214 1.378 . S
C217 N218 1.315 . S
C217 H220 0.930 . S
N218 Co198 2.194 . S
N218 C213 1.328 . S
N218 C217 1.315 . S
H219 C213 0.929 . S
H220 C217 0.930 . S
H221 C209 0.929 . S
H222 C211 0.929 . S
O223 Co198 2.351 . S
O223 C226 1.244 . S
O224 Co198 2.155 . S
O224 C226 1.240 . S
O225 Co198 2.096 . S
O225 C206 1.247 . S
C226 O223 1.244 . S
C226 O224 1.240 . S
H227 C201 0.931 . S
H228 C210 0.931 . S
H229 C214 0.929 . S
H230 C216 0.930 . S
Co231 N235 2.148 . S
Co231 N241 2.128 . S
Co231 N251 2.194 . S
Co231 O256 2.351 . S
Co231 O257 2.155 . S
Co231 O258 2.096 . S
C232 N235 1.301 . S
C232 N236 1.328 . S
C232 H237 0.930 . S
C233 C234 1.333 . S
C233 N235 1.317 . S
C233 H238 0.930 . S
C234 C233 1.333 . S
C234 N236 1.350 . S
C234 H260 0.931 . S
N235 Co231 2.148 . S
N235 C232 1.301 . S
N235 C233 1.317 . S
N236 C232 1.328 . S
N236 C234 1.350 . S
H237 C232 0.930 . S
H238 C233 0.930 . S
C239 O240 1.224 . S
C239 O258 1.247 . S
O240 C239 1.224 . S
N241 Co231 2.128 . S
N241 C242 1.355 . S
N241 C244 1.311 . S
C242 N241 1.355 . S
C242 C243 1.363 . S
C242 H254 0.929 . S
C243 C242 1.363 . S
C243 N245 1.375 . S
C243 H261 0.931 . S
C244 N241 1.311 . S
C244 N245 1.347 . S
C244 H255 0.929 . S
N245 C243 1.375 . S
N245 C244 1.347 . S
C246 C249 1.365 . S
C246 N251 1.328 . S
C246 H252 0.929 . S
C247 C248 1.362 . S
C247 C250 1.378 . S
C247 H262 0.929 . S
C248 C247 1.362 . S
C248 C249 1.366 . S
C249 C246 1.365 . S
C249 C248 1.366 . S
C249 H263 0.930 . S
C250 C247 1.378 . S
C250 N251 1.315 . S
C250 H253 0.930 . S
N251 Co231 2.194 . S
N251 C246 1.328 . S
N251 C250 1.315 . S
H252 C246 0.929 . S
H253 C250 0.930 . S
H254 C242 0.929 . S
H255 C244 0.929 . S
O256 Co231 2.351 . S
O256 C259 1.244 . S
O257 Co231 2.155 . S
O257 C259 1.240 . S
O258 Co231 2.096 . S
O258 C239 1.247 . S
C259 O256 1.244 . S
C259 O257 1.240 . S
H260 C234 0.931 . S
H261 C243 0.931 . S
H262 C247 0.929 . S
H263 C249 0.930 . S
Co264 N268 2.148 . S
Co264 N274 2.128 . S
Co264 N284 2.194 . S
Co264 O289 2.351 1_545 S
Co264 O290 2.155 1_545 S
Co264 O291 2.096 . S
C265 N268 1.301 . S
C265 N269 1.328 . S
C265 H270 0.930 1_545 S
C266 C267 1.333 . S
C266 N268 1.317 . S
C266 H271 0.930 . S
C267 C266 1.333 . S
C267 N269 1.350 . S
C267 H293 0.931 . S
N268 Co264 2.148 . S
N268 C265 1.301 . S
N268 C266 1.317 . S
N269 C265 1.328 . S
N269 C267 1.350 . S
H270 C265 0.930 1_565 S
H271 C266 0.930 . S
C272 O273 1.224 . S
C272 O291 1.247 . S
O273 C272 1.224 . S
N274 Co264 2.128 . S
N274 C275 1.359 . S
N274 C277 1.311 . S
C275 N274 1.359 . S
C275 C276 1.365 . S
C275 H287 0.924 1_545 S
C276 C275 1.365 . S
C276 N278 1.375 . S
C276 H294 0.931 1_545 S
C277 N274 1.311 . S
C277 N278 1.347 . S
C277 H288 0.929 . S
N278 C276 1.375 . S
N278 C277 1.347 . S
C279 C282 1.365 . S
C279 N284 1.328 1_565 S
C279 H285 0.929 . S
C280 C281 1.362 . S
C280 C283 1.378 . S
C280 H295 0.929 . S
C281 C280 1.362 . S
C281 C282 1.366 1_545 S
C282 C279 1.365 . S
C282 C281 1.366 1_565 S
C282 H296 0.930 . S
C283 C280 1.378 . S
C283 N284 1.315 . S
C283 H286 0.930 . S
N284 Co264 2.194 . S
N284 C279 1.328 1_545 S
N284 C283 1.315 . S
H285 C279 0.929 . S
H286 C283 0.930 . S
H287 C275 0.924 1_565 S
H288 C277 0.929 . S
O289 Co264 2.351 1_565 S
O289 C292 1.244 . S
O290 Co264 2.155 1_565 S
O290 C292 1.240 . S
O291 Co264 2.096 . S
O291 C272 1.247 . S
C292 O289 1.244 . S
C292 O290 1.240 . S
H293 C267 0.931 . S
H294 C276 0.931 1_565 S
H295 C280 0.929 . S
H296 C282 0.930 . S
Co297 N301 2.148 . S
Co297 N307 2.128 . S
Co297 N317 2.194 . S
Co297 O322 2.351 . S
Co297 O323 2.155 . S
Co297 O324 2.096 1_545 S
C298 N301 1.301 . S
C298 N302 1.328 . S
C298 H303 0.930 . S
C299 C300 1.333 . S
C299 N301 1.317 1_565 S
C299 H304 0.930 . S
C300 C299 1.333 . S
C300 N302 1.350 1_565 S
C300 H326 0.931 . S
N301 Co297 2.148 . S
N301 C298 1.301 . S
N301 C299 1.317 1_545 S
N302 C298 1.328 . S
N302 C300 1.350 1_545 S
H303 C298 0.930 . S
H304 C299 0.930 . S
C305 O306 1.224 . S
C305 O324 1.247 . S
O306 C305 1.224 . S
N307 Co297 2.128 . S
N307 C308 1.355 . S
N307 C310 1.309 1_545 S
C308 N307 1.355 . S
C308 C309 1.363 . S
C308 H320 0.929 . S
C309 C308 1.363 . S
C309 N311 1.375 . S
C309 H327 0.931 . S
C310 N307 1.309 1_565 S
C310 N311 1.347 1_565 S
C310 H321 0.932 . S
N311 C309 1.375 . S
N311 C310 1.347 1_545 S
C312 C315 1.365 . S
C312 N317 1.328 . S
C312 H318 0.929 . S
C313 C314 1.362 1_565 S
C313 C316 1.378 . S
C313 H328 0.929 . S
C314 C313 1.362 1_545 S
C314 C315 1.366 . S
C315 C312 1.365 . S
C315 C314 1.366 . S
C315 H329 0.930 . S
C316 C313 1.378 . S
C316 N317 1.315 1_565 S
C316 H319 0.930 . S
N317 Co297 2.194 . S
N317 C312 1.328 . S
N317 C316 1.315 1_545 S
H318 C312 0.929 . S
H319 C316 0.930 . S
H320 C308 0.929 . S
H321 C310 0.932 . S
O322 Co297 2.351 . S
O322 C325 1.244 . S
O323 Co297 2.155 . S
O323 C325 1.240 . S
O324 Co297 2.096 1_565 S
O324 C305 1.247 . S
C325 O322 1.244 . S
C325 O323 1.240 . S
H326 C300 0.931 . S
H327 C309 0.931 . S
H328 C313 0.929 . S
H329 C315 0.930 . S
Co330 N334 2.148 . S
Co330 N340 2.128 . S
Co330 N350 2.194 . S
Co330 O355 2.351 . S
Co330 O356 2.155 . S
Co330 O357 2.096 1_545 S
C331 N334 1.301 . S
C331 N335 1.328 . S
C331 H336 0.930 . S
C332 C333 1.333 . S
C332 N334 1.317 1_565 S
C332 H337 0.930 . S
C333 C332 1.333 . S
C333 N335 1.350 1_565 S
C333 H359 0.931 . S
N334 Co330 2.148 . S
N334 C331 1.301 . S
N334 C332 1.317 1_545 S
N335 C331 1.328 . S
N335 C333 1.350 1_545 S
H336 C331 0.930 . S
H337 C332 0.930 . S
C338 O339 1.224 . S
C338 O357 1.247 . S
O339 C338 1.224 . S
N340 Co330 2.128 . S
N340 C341 1.355 . S
N340 C343 1.309 1_545 S
C341 N340 1.355 . S
C341 C342 1.363 . S
C341 H353 0.929 . S
C342 C341 1.363 . S
C342 N344 1.375 . S
C342 H360 0.931 . S
C343 N340 1.309 1_565 S
C343 N344 1.347 1_565 S
C343 H354 0.932 . S
N344 C342 1.375 . S
N344 C343 1.347 1_545 S
C345 C348 1.365 . S
C345 N350 1.328 . S
C345 H351 0.929 . S
C346 C347 1.362 1_565 S
C346 C349 1.378 . S
C346 H361 0.929 . S
C347 C346 1.362 1_545 S
C347 C348 1.366 . S
C348 C345 1.365 . S
C348 C347 1.366 . S
C348 H362 0.930 . S
C349 C346 1.378 . S
C349 N350 1.315 1_565 S
C349 H352 0.930 . S
N350 Co330 2.194 . S
N350 C345 1.328 . S
N350 C349 1.315 1_545 S
H351 C345 0.929 . S
H352 C349 0.930 . S
H353 C341 0.929 . S
H354 C343 0.932 . S
O355 Co330 2.351 . S
O355 C358 1.244 . S
O356 Co330 2.155 . S
O356 C358 1.240 . S
O357 Co330 2.096 1_565 S
O357 C338 1.247 . S
C358 O355 1.244 . S
C358 O356 1.240 . S
H359 C333 0.931 . S
H360 C342 0.931 . S
H361 C346 0.929 . S
H362 C348 0.930 . S
Co363 N367 2.148 . S
Co363 N373 2.128 . S
Co363 N383 2.194 . S
Co363 O388 2.351 1_545 S
Co363 O389 2.155 1_545 S
Co363 O390 2.096 . S
C364 N367 1.301 . S
C364 N368 1.328 . S
C364 H369 0.930 1_545 S
C365 C366 1.333 . S
C365 N367 1.317 . S
C365 H370 0.930 . S
C366 C365 1.333 . S
C366 N368 1.350 . S
C366 H392 0.931 . S
N367 Co363 2.148 . S
N367 C364 1.301 . S
N367 C365 1.317 . S
N368 C364 1.328 . S
N368 C366 1.350 . S
H369 C364 0.930 1_565 S
H370 C365 0.930 . S
C371 O372 1.224 . S
C371 O390 1.247 . S
O372 C371 1.224 . S
N373 Co363 2.128 . S
N373 C374 1.359 . S
N373 C376 1.311 . S
C374 N373 1.359 . S
C374 C375 1.365 . S
C374 H386 0.924 1_545 S
C375 C374 1.365 . S
C375 N377 1.375 . S
C375 H393 0.931 1_545 S
C376 N373 1.311 . S
C376 N377 1.347 . S
C376 H387 0.929 . S
N377 C375 1.375 . S
N377 C376 1.347 . S
C378 C381 1.365 . S
C378 N383 1.328 1_565 S
C378 H384 0.929 . S
C379 C380 1.362 . S
C379 C382 1.378 . S
C379 H394 0.929 . S
C380 C379 1.362 . S
C380 C381 1.366 1_545 S
C381 C378 1.365 . S
C381 C380 1.366 1_565 S
C381 H395 0.930 . S
C382 C379 1.378 . S
C382 N383 1.315 . S
C382 H385 0.930 . S
N383 Co363 2.194 . S
N383 C378 1.328 1_545 S
N383 C382 1.315 . S
H384 C378 0.929 . S
H385 C382 0.930 . S
H386 C374 0.924 1_565 S
H387 C376 0.929 . S
O388 Co363 2.351 1_565 S
O388 C391 1.244 . S
O389 Co363 2.155 1_565 S
O389 C391 1.240 . S
O390 Co363 2.096 . S
O390 C371 1.247 . S
C391 O388 1.244 . S
C391 O389 1.240 . S
H392 C366 0.931 . S
H393 C375 0.931 1_565 S
H394 C379 0.929 . S
H395 C381 0.930 . S
Co396 N400 2.148 . S
Co396 N406 2.128 . S
Co396 N416 2.194 . S
Co396 O421 2.351 . S
Co396 O422 2.155 . S
Co396 O423 2.096 . S
C397 N400 1.301 . S
C397 N401 1.328 . S
C397 H402 0.930 . S
C398 C399 1.333 . S
C398 N400 1.317 . S
C398 H403 0.930 . S
C399 C398 1.333 . S
C399 N401 1.350 . S
C399 H425 0.931 . S
N400 Co396 2.148 . S
N400 C397 1.301 . S
N400 C398 1.317 . S
N401 C397 1.328 . S
N401 C399 1.350 . S
H402 C397 0.930 . S
H403 C398 0.930 . S
C404 O405 1.224 . S
C404 O423 1.247 . S
O405 C404 1.224 . S
N406 Co396 2.128 . S
N406 C407 1.355 . S
N406 C409 1.311 . S
C407 N406 1.355 . S
C407 C408 1.363 . S
C407 H419 0.929 . S
C408 C407 1.363 . S
C408 N410 1.375 . S
C408 H426 0.931 . S
C409 N406 1.311 . S
C409 N410 1.347 . S
C409 H420 0.929 . S
N410 C408 1.375 . S
N410 C409 1.347 . S
C411 C414 1.365 . S
C411 N416 1.328 . S
C411 H417 0.929 . S
C412 C413 1.362 . S
C412 C415 1.378 . S
C412 H427 0.929 . S
C413 C412 1.362 . S
C413 C414 1.366 . S
C414 C411 1.365 . S
C414 C413 1.366 . S
C414 H428 0.930 . S
C415 C412 1.378 . S
C415 N416 1.315 . S
C415 H418 0.930 . S
N416 Co396 2.194 . S
N416 C411 1.328 . S
N416 C415 1.315 . S
H417 C411 0.929 . S
H418 C415 0.930 . S
H419 C407 0.929 . S
H420 C409 0.929 . S
O421 Co396 2.351 . S
O421 C424 1.244 . S
O422 Co396 2.155 . S
O422 C424 1.240 . S
O423 Co396 2.096 . S
O423 C404 1.247 . S
C424 O421 1.244 . S
C424 O422 1.240 . S
H425 C399 0.931 . S
H426 C408 0.931 . S
H427 C412 0.929 . S
H428 C414 0.930 . S
Co429 N433 2.148 . S
Co429 N439 2.128 . S
Co429 N449 2.194 . S
Co429 O454 2.351 . S
Co429 O455 2.155 . S
Co429 O456 2.096 . S
C430 N433 1.301 . S
C430 N434 1.328 . S
C430 H435 0.930 . S
C431 C432 1.333 . S
C431 N433 1.317 . S
C431 H436 0.930 . S
C432 C431 1.333 . S
C432 N434 1.350 . S
C432 H458 0.931 . S
N433 Co429 2.148 . S
N433 C430 1.301 . S
N433 C431 1.317 . S
N434 C430 1.328 . S
N434 C432 1.350 . S
H435 C430 0.930 . S
H436 C431 0.930 . S
C437 O438 1.224 . S
C437 O456 1.247 . S
O438 C437 1.224 . S
N439 Co429 2.128 . S
N439 C440 1.355 . S
N439 C442 1.311 . S
C440 N439 1.355 . S
C440 C441 1.363 . S
C440 H452 0.929 . S
C441 C440 1.363 . S
C441 N443 1.375 . S
C441 H459 0.931 . S
C442 N439 1.311 . S
C442 N443 1.347 . S
C442 H453 0.929 . S
N443 C441 1.375 . S
N443 C442 1.347 . S
C444 C447 1.365 . S
C444 N449 1.328 . S
C444 H450 0.929 . S
C445 C446 1.362 . S
C445 C448 1.378 . S
C445 H460 0.929 . S
C446 C445 1.362 . S
C446 C447 1.366 . S
C447 C444 1.365 . S
C447 C446 1.366 . S
C447 H461 0.930 . S
C448 C445 1.378 . S
C448 N449 1.315 . S
C448 H451 0.930 . S
N449 Co429 2.194 . S
N449 C444 1.328 . S
N449 C448 1.315 . S
H450 C444 0.929 . S
H451 C448 0.930 . S
H452 C440 0.929 . S
H453 C442 0.929 . S
O454 Co429 2.351 . S
O454 C457 1.244 . S
O455 Co429 2.155 . S
O455 C457 1.240 . S
O456 Co429 2.096 . S
O456 C437 1.247 . S
C457 O454 1.244 . S
C457 O455 1.240 . S
H458 C432 0.931 . S
H459 C441 0.931 . S
H460 C445 0.929 . S
H461 C447 0.930 . S
Co462 N466 2.148 . S
Co462 N472 2.128 . S
Co462 N482 2.194 . S
Co462 O487 2.351 . S
Co462 O488 2.155 . S
Co462 O489 2.096 . S
C463 N466 1.301 . S
C463 N467 1.328 . S
C463 H468 0.930 . S
C464 C465 1.333 . S
C464 N466 1.317 . S
C464 H469 0.930 . S
C465 C464 1.333 . S
C465 N467 1.350 . S
C465 H491 0.931 . S
N466 Co462 2.148 . S
N466 C463 1.301 . S
N466 C464 1.317 . S
N467 C463 1.328 . S
N467 C465 1.350 . S
H468 C463 0.930 . S
H469 C464 0.930 . S
C470 O471 1.224 . S
C470 O489 1.247 . S
O471 C470 1.224 . S
N472 Co462 2.128 . S
N472 C473 1.355 . S
N472 C475 1.311 . S
C473 N472 1.355 . S
C473 C474 1.363 . S
C473 H485 0.929 . S
C474 C473 1.363 . S
C474 N476 1.375 . S
C474 H492 0.931 . S
C475 N472 1.311 . S
C475 N476 1.347 . S
C475 H486 0.929 . S
N476 C474 1.375 . S
N476 C475 1.347 . S
C477 C480 1.365 . S
C477 N482 1.328 . S
C477 H483 0.929 . S
C478 C479 1.362 . S
C478 C481 1.378 . S
C478 H493 0.929 . S
C479 C478 1.362 . S
C479 C480 1.366 . S
C480 C477 1.365 . S
C480 C479 1.366 . S
C480 H494 0.930 . S
C481 C478 1.378 . S
C481 N482 1.315 . S
C481 H484 0.930 . S
N482 Co462 2.194 . S
N482 C477 1.328 . S
N482 C481 1.315 . S
H483 C477 0.929 . S
H484 C481 0.930 . S
H485 C473 0.929 . S
H486 C475 0.929 . S
O487 Co462 2.351 . S
O487 C490 1.244 . S
O488 Co462 2.155 . S
O488 C490 1.240 . S
O489 Co462 2.096 . S
O489 C470 1.247 . S
C490 O487 1.244 . S
C490 O488 1.240 . S
H491 C465 0.931 . S
H492 C474 0.931 . S
H493 C478 0.929 . S
H494 C480 0.930 . S
Co495 N499 2.148 . S
Co495 N505 2.128 . S
Co495 N515 2.194 . S
Co495 O520 2.351 . S
Co495 O521 2.155 . S
Co495 O522 2.096 . S
C496 N499 1.301 . S
C496 N500 1.328 . S
C496 H501 0.930 . S
C497 C498 1.333 . S
C497 N499 1.317 . S
C497 H502 0.930 . S
C498 C497 1.333 . S
C498 N500 1.350 . S
C498 H524 0.931 . S
N499 Co495 2.148 . S
N499 C496 1.301 . S
N499 C497 1.317 . S
N500 C496 1.328 . S
N500 C498 1.350 . S
H501 C496 0.930 . S
H502 C497 0.930 . S
C503 O504 1.224 . S
C503 O522 1.247 . S
O504 C503 1.224 . S
N505 Co495 2.128 . S
N505 C506 1.355 . S
N505 C508 1.311 . S
C506 N505 1.355 . S
C506 C507 1.363 . S
C506 H518 0.929 . S
C507 C506 1.363 . S
C507 N509 1.375 . S
C507 H525 0.931 . S
C508 N505 1.311 . S
C508 N509 1.347 . S
C508 H519 0.929 . S
N509 C507 1.375 . S
N509 C508 1.347 . S
C510 C513 1.365 . S
C510 N515 1.328 . S
C510 H516 0.929 . S
C511 C512 1.362 . S
C511 C514 1.378 . S
C511 H526 0.929 . S
C512 C511 1.362 . S
C512 C513 1.366 . S
C513 C510 1.365 . S
C513 C512 1.366 . S
C513 H527 0.930 . S
C514 C511 1.378 . S
C514 N515 1.315 . S
C514 H517 0.930 . S
N515 Co495 2.194 . S
N515 C510 1.328 . S
N515 C514 1.315 . S
H516 C510 0.929 . S
H517 C514 0.930 . S
H518 C506 0.929 . S
H519 C508 0.929 . S
O520 Co495 2.351 . S
O520 C523 1.244 . S
O521 Co495 2.155 . S
O521 C523 1.240 . S
O522 Co495 2.096 . S
O522 C503 1.247 . S
C523 O520 1.244 . S
C523 O521 1.240 . S
H524 C498 0.931 . S
H525 C507 0.931 . S
H526 C511 0.929 . S
H527 C513 0.930 . S
C528 C529 1.387 . S
C528 H532 0.950 1_545 S
C528 C537 1.390 . S
C529 C528 1.387 . S
C529 C531 1.387 . S
H530 C537 0.950 1_565 S
C531 C529 1.387 . S
C531 C533 1.390 . S
C531 H535 0.950 . S
H532 C528 0.950 1_565 S
C533 C531 1.390 . S
C533 C534 1.387 . S
C533 H536 0.950 . S
C534 C533 1.387 . S
C534 C537 1.387 . S
H535 C531 0.950 . S
H536 C533 0.950 . S
C537 C528 1.390 . S
C537 H530 0.950 1_545 S
C537 C534 1.387 . S
C538 C539 1.387 1_545 S
C538 H542 0.950 . S
C538 C547 1.390 . S
C539 C538 1.387 1_565 S
C539 C541 1.387 . S
H540 C547 0.950 . S
C541 C539 1.387 . S
C541 C543 1.390 . S
C541 H545 0.950 . S
H542 C538 0.950 . S
C543 C541 1.390 . S
C543 C544 1.387 . S
C543 H546 0.950 . S
C544 C543 1.387 . S
C544 C547 1.387 1_565 S
H545 C541 0.950 . S
H546 C543 0.950 . S
C547 C538 1.390 . S
C547 H540 0.950 . S
C547 C544 1.387 1_545 S
C548 C549 1.387 1_545 S
C548 H552 0.950 . S
C548 C557 1.390 . S
C549 C548 1.387 1_565 S
C549 C551 1.387 . S
H550 C557 0.950 . S
C551 C549 1.387 . S
C551 C553 1.390 . S
C551 H555 0.950 . S
H552 C548 0.950 . S
C553 C551 1.390 . S
C553 C554 1.387 . S
C553 H556 0.950 . S
C554 C553 1.387 . S
C554 C557 1.387 1_565 S
H555 C551 0.950 . S
H556 C553 0.950 . S
C557 C548 1.390 . S
C557 H550 0.950 . S
C557 C554 1.387 1_545 S
C558 C559 1.387 . S
C558 H562 0.950 . S
C558 C567 1.390 . S
C559 C558 1.387 . S
C559 C561 1.387 . S
H560 C567 0.950 . S
C561 C559 1.387 . S
C561 C563 1.390 . S
C561 H565 0.950 1_545 S
H562 C558 0.950 . S
C563 C561 1.390 . S
C563 C564 1.387 . S
C563 H566 0.950 1_545 S
C564 C563 1.387 . S
C564 C567 1.387 . S
H565 C561 0.950 1_565 S
H566 C563 0.950 1_565 S
C567 C558 1.390 . S
C567 H560 0.950 . S
C567 C564 1.387 . S
C568 C569 1.387 . S
C568 H572 0.950 . S
C568 C577 1.390 . S
C569 C568 1.387 . S
C569 C571 1.387 . S
H570 C577 0.950 . S
C571 C569 1.387 . S
C571 C573 1.390 . S
C571 H575 0.950 . S
H572 C568 0.950 . S
C573 C571 1.390 . S
C573 C574 1.387 . S
C573 H576 0.950 . S
C574 C573 1.387 . S
C574 C577 1.387 . S
H575 C571 0.950 . S
H576 C573 0.950 . S
C577 C568 1.390 . S
C577 H570 0.950 . S
C577 C574 1.387 . S
C578 C579 1.387 . S
C578 H582 0.950 . S
C578 C587 1.390 . S
C579 C578 1.387 . S
C579 C581 1.387 . S
H580 C587 0.950 . S
C581 C579 1.387 . S
C581 C583 1.390 . S
C581 H585 0.950 . S
H582 C578 0.950 . S
C583 C581 1.390 . S
C583 C584 1.387 . S
C583 H586 0.950 . S
C584 C583 1.387 . S
C584 C587 1.387 . S
H585 C581 0.950 . S
H586 C583 0.950 . S
C587 C578 1.390 . S
C587 H580 0.950 . S
C587 C584 1.387 . S
C588 C589 1.387 . S
C588 H592 0.950 . S
C588 C597 1.390 . S
C589 C588 1.387 . S
C589 C591 1.387 . S
H590 C597 0.950 . S
C591 C589 1.387 . S
C591 C593 1.390 . S
C591 H595 0.950 . S
H592 C588 0.950 . S
C593 C591 1.390 . S
C593 C594 1.387 . S
C593 H596 0.950 . S
C594 C593 1.387 . S
C594 C597 1.387 . S
H595 C591 0.950 . S
H596 C593 0.950 . S
C597 C588 1.390 . S
C597 H590 0.950 . S
C597 C594 1.387 . S
C598 C599 1.387 . S
C598 H602 0.950 . S
C598 C607 1.390 . S
C599 C598 1.387 . S
C599 C601 1.387 . S
H600 C607 0.950 . S
C601 C599 1.387 . S
C601 C603 1.390 . S
C601 H605 0.950 . S
H602 C598 0.950 . S
C603 C601 1.390 . S
C603 C604 1.387 . S
C603 H606 0.950 . S
C604 C603 1.387 . S
C604 C607 1.387 . S
H605 C601 0.950 . S
H606 C603 0.950 . S
C607 C598 1.390 . S
C607 H600 0.950 . S
C607 C604 1.387 . S
C608 C609 1.387 . S
C608 H612 0.950 . S
C608 C617 1.390 . S
C609 C608 1.387 . S
C609 C611 1.387 . S
H610 C617 0.950 . S
C611 C609 1.387 . S
C611 C613 1.390 . S
C611 H615 0.950 . S
H612 C608 0.950 . S
C613 C611 1.390 . S
C613 C614 1.387 . S
C613 H616 0.950 . S
C614 C613 1.387 . S
C614 C617 1.387 . S
H615 C611 0.950 . S
H616 C613 0.950 . S
C617 C608 1.390 . S
C617 H610 0.950 . S
C617 C614 1.387 . S
C618 C619 1.387 . S
C618 H622 0.950 . S
C618 C627 1.390 . S
C619 C618 1.387 . S
C619 C621 1.387 . S
H620 C627 0.950 . S
C621 C619 1.387 . S
C621 C623 1.390 . S
C621 H625 0.950 . S
H622 C618 0.950 . S
C623 C621 1.390 . S
C623 C624 1.387 . S
C623 H626 0.950 . S
C624 C623 1.387 . S
C624 C627 1.387 . S
H625 C621 0.950 . S
H626 C623 0.950 . S
C627 C618 1.390 . S
C627 H620 0.950 . S
C627 C624 1.387 . S
C628 C629 1.387 . S
C628 H632 0.950 . S
C628 C637 1.390 . S
C629 C628 1.387 . S
C629 C631 1.387 . S
H630 C637 0.950 . S
C631 C629 1.387 . S
C631 C633 1.390 . S
C631 H635 0.950 . S
H632 C628 0.950 . S
C633 C631 1.390 . S
C633 C634 1.387 . S
C633 H636 0.950 . S
C634 C633 1.387 . S
C634 C637 1.387 . S
H635 C631 0.950 . S
H636 C633 0.950 . S
C637 C628 1.390 . S
C637 H630 0.950 . S
C637 C634 1.387 . S
C638 C639 1.387 . S
C638 H642 0.950 . S
C638 C647 1.390 . S
C639 C638 1.387 . S
C639 C641 1.387 . S
H640 C647 0.950 . S
C641 C639 1.387 . S
C641 C643 1.390 . S
C641 H645 0.950 . S
H642 C638 0.950 . S
C643 C641 1.390 . S
C643 C644 1.387 . S
C643 H646 0.950 . S
C644 C643 1.387 . S
C644 C647 1.387 . S
H645 C641 0.950 . S
H646 C643 0.950 . S
C647 C638 1.390 . S
C647 H640 0.950 . S
C647 C644 1.387 . S
C648 C649 1.387 . S
C648 H652 0.950 . S
C648 C657 1.390 . S
C649 C648 1.387 . S
C649 C651 1.387 . S
H650 C657 0.950 . S
C651 C649 1.387 . S
C651 C653 1.390 . S
C651 H655 0.950 . S
H652 C648 0.950 . S
C653 C651 1.390 . S
C653 C654 1.387 . S
C653 H656 0.950 . S
C654 C653 1.387 . S
C654 C657 1.387 . S
H655 C651 0.950 . S
H656 C653 0.950 . S
C657 C648 1.390 . S
C657 H650 0.950 . S
C657 C654 1.387 . S
C658 C659 1.387 . S
C658 H662 0.950 . S
C658 C667 1.390 . S
C659 C658 1.387 . S
C659 C661 1.387 . S
H660 C667 0.950 . S
C661 C659 1.387 . S
C661 C663 1.390 . S
C661 H665 0.950 . S
H662 C658 0.950 . S
C663 C661 1.390 . S
C663 C664 1.387 . S
C663 H666 0.950 . S
C664 C663 1.387 . S
C664 C667 1.387 . S
H665 C661 0.950 . S
H666 C663 0.950 . S
C667 C658 1.390 . S
C667 H660 0.950 . S
C667 C664 1.387 . S
C668 C669 1.387 . S
C668 H672 0.950 . S
C668 C677 1.390 . S
C669 C668 1.387 . S
C669 C671 1.387 . S
H670 C677 0.950 . S
C671 C669 1.387 . S
C671 C673 1.390 . S
C671 H675 0.950 . S
H672 C668 0.950 . S
C673 C671 1.390 . S
C673 C674 1.387 . S
C673 H676 0.950 . S
C674 C673 1.387 . S
C674 C677 1.387 . S
H675 C671 0.950 . S
H676 C673 0.950 . S
C677 C668 1.390 . S
C677 H670 0.950 . S
C677 C674 1.387 . S
C678 C679 1.387 . S
C678 H682 0.950 . S
C678 C687 1.390 . S
C679 C678 1.387 . S
C679 C681 1.387 . S
H680 C687 0.950 . S
C681 C679 1.387 . S
C681 C683 1.390 . S
C681 H685 0.950 . S
H682 C678 0.950 . S
C683 C681 1.390 . S
C683 C684 1.387 . S
C683 H686 0.950 . S
C684 C683 1.387 . S
C684 C687 1.387 . S
H685 C681 0.950 . S
H686 C683 0.950 . S
C687 C678 1.390 . S
C687 H680 0.950 . S
C687 C684 1.387 . S
C688 C689 1.387 . S
C688 H692 0.950 . S
C688 C697 1.390 . S
C689 C688 1.387 . S
C689 C691 1.387 . S
H690 C697 0.950 . S
C691 C689 1.387 . S
C691 C693 1.390 . S
C691 H695 0.950 . S
H692 C688 0.950 . S
C693 C691 1.390 . S
C693 C694 1.387 . S
C693 H696 0.950 . S
C694 C693 1.387 . S
C694 C697 1.387 . S
H695 C691 0.950 . S
H696 C693 0.950 . S
C697 C688 1.390 . S
C697 H690 0.950 . S
C697 C694 1.387 . S
C698 C699 1.387 . S
C698 H702 0.950 . S
C698 C707 1.390 . S
C699 C698 1.387 . S
C699 C701 1.387 . S
H700 C707 0.950 . S
C701 C699 1.387 . S
C701 C703 1.390 . S
C701 H705 0.950 . S
H702 C698 0.950 . S
C703 C701 1.390 . S
C703 C704 1.387 . S
C703 H706 0.950 . S
C704 C703 1.387 . S
C704 C707 1.387 . S
H705 C701 0.950 . S
H706 C703 0.950 . S
C707 C698 1.390 . S
C707 H700 0.950 . S
C707 C704 1.387 . S
C708 C709 1.387 . S
C708 H712 0.950 . S
C708 C717 1.390 . S
C709 C708 1.387 . S
C709 C711 1.387 . S
H710 C717 0.950 . S
C711 C709 1.387 . S
C711 C713 1.390 . S
C711 H715 0.950 . S
H712 C708 0.950 . S
C713 C711 1.390 . S
C713 C714 1.387 . S
C713 H716 0.950 . S
C714 C713 1.387 . S
C714 C717 1.387 . S
H715 C711 0.950 . S
H716 C713 0.950 . S
C717 C708 1.390 . S
C717 H710 0.950 . S
C717 C714 1.387 . S
C718 C719 1.387 . S
C718 H722 0.950 . S
C718 C727 1.390 . S
C719 C718 1.387 . S
C719 C721 1.387 . S
H720 C727 0.950 . S
C721 C719 1.387 . S
C721 C723 1.390 . S
C721 H725 0.950 . S
H722 C718 0.950 . S
C723 C721 1.390 . S
C723 C724 1.387 . S
C723 H726 0.950 . S
C724 C723 1.387 . S
C724 C727 1.387 . S
H725 C721 0.950 . S
H726 C723 0.950 . S
C727 C718 1.390 . S
C727 H720 0.950 . S
C727 C724 1.387 . S
C728 C729 1.387 . S
C728 H732 0.950 . S
C728 C737 1.390 . S
C729 C728 1.387 . S
C729 C731 1.387 . S
H730 C737 0.950 . S
C731 C729 1.387 . S
C731 C733 1.390 . S
C731 H735 0.950 . S
H732 C728 0.950 . S
C733 C731 1.390 . S
C733 C734 1.387 . S
C733 H736 0.950 . S
C734 C733 1.387 . S
C734 C737 1.387 . S
H735 C731 0.950 . S
H736 C733 0.950 . S
C737 C728 1.390 . S
C737 H730 0.950 . S
C737 C734 1.387 . S
C738 C739 1.387 . S
C738 H742 0.950 . S
C738 C747 1.390 . S
C739 C738 1.387 . S
C739 C741 1.387 . S
H740 C747 0.950 . S
C741 C739 1.387 . S
C741 C743 1.390 . S
C741 H745 0.950 . S
H742 C738 0.950 . S
C743 C741 1.390 . S
C743 C744 1.387 . S
C743 H746 0.950 . S
C744 C743 1.387 . S
C744 C747 1.387 . S
H745 C741 0.950 . S
H746 C743 0.950 . S
C747 C738 1.390 . S
C747 H740 0.950 . S
C747 C744 1.387 . S
C748 C749 1.387 . S
C748 H752 0.950 . S
C748 C757 1.390 . S
C749 C748 1.387 . S
C749 C751 1.387 . S
H750 C757 0.950 . S
C751 C749 1.387 . S
C751 C753 1.390 . S
C751 H755 0.950 . S
H752 C748 0.950 . S
C753 C751 1.390 . S
C753 C754 1.387 . S
C753 H756 0.950 . S
C754 C753 1.387 . S
C754 C757 1.387 . S
H755 C751 0.950 . S
H756 C753 0.950 . S
C757 C748 1.390 . S
C757 H750 0.950 . S
C757 C754 1.387 . S
C758 C759 1.387 . S
C758 H762 0.950 . S
C758 C767 1.390 . S
C759 C758 1.387 . S
C759 C761 1.387 . S
H760 C767 0.950 . S
C761 C759 1.387 . S
C761 C763 1.390 . S
C761 H765 0.950 . S
H762 C758 0.950 . S
C763 C761 1.390 . S
C763 C764 1.387 . S
C763 H766 0.950 . S
C764 C763 1.387 . S
C764 C767 1.387 . S
H765 C761 0.950 . S
H766 C763 0.950 . S
C767 C758 1.390 . S
C767 H760 0.950 . S
C767 C764 1.387 . S
C768 C769 1.387 . S
C768 H772 0.950 . S
C768 C777 1.390 1_655 S
C769 C768 1.387 . S
C769 C771 1.387 . S
H770 C777 0.950 . S
C771 C769 1.387 . S
C771 C773 1.390 1_655 S
C771 H775 0.950 . S
H772 C768 0.950 . S
C773 C771 1.390 1_455 S
C773 C774 1.387 . S
C773 H776 0.950 . S
C774 C773 1.387 . S
C774 C777 1.387 . S
H775 C771 0.950 . S
H776 C773 0.950 . S
C777 C768 1.390 1_455 S
C777 H770 0.950 . S
C777 C774 1.387 . S
C778 C779 1.387 . S
C778 H782 0.950 . S
C778 C787 1.390 1_455 S
C779 C778 1.387 . S
C779 C781 1.387 . S
H780 C787 0.950 . S
C781 C779 1.387 . S
C781 C783 1.390 1_455 S
C781 H785 0.950 . S
H782 C778 0.950 . S
C783 C781 1.390 1_655 S
C783 C784 1.387 . S
C783 H786 0.950 . S
C784 C783 1.387 . S
C784 C787 1.387 . S
H785 C781 0.950 . S
H786 C783 0.950 . S
C787 C778 1.390 1_655 S
C787 H780 0.950 . S
C787 C784 1.387 . S
C788 C789 1.387 . S
C788 H792 0.950 . S
C788 C797 1.390 1_655 S
C789 C788 1.387 . S
C789 C791 1.387 . S
H790 C797 0.950 . S
C791 C789 1.387 . S
C791 C793 1.390 1_655 S
C791 H795 0.950 . S
H792 C788 0.950 . S
C793 C791 1.390 1_455 S
C793 C794 1.387 . S
C793 H796 0.950 . S
C794 C793 1.387 . S
C794 C797 1.387 . S
H795 C791 0.950 . S
H796 C793 0.950 . S
C797 C788 1.390 1_455 S
C797 H790 0.950 . S
C797 C794 1.387 . S
C798 C799 1.387 . S
C798 H802 0.950 . S
C798 C807 1.390 1_655 S
C799 C798 1.387 . S
C799 C801 1.387 . S
H800 C807 0.950 . S
C801 C799 1.387 . S
C801 C803 1.390 1_655 S
C801 H805 0.950 . S
H802 C798 0.950 . S
C803 C801 1.390 1_455 S
C803 C804 1.387 . S
C803 H806 0.950 . S
C804 C803 1.387 . S
C804 C807 1.387 . S
H805 C801 0.950 . S
H806 C803 0.950 . S
C807 C798 1.390 1_455 S
C807 H800 0.950 . S
C807 C804 1.387 . S
C808 C809 1.387 . S
C808 H812 0.950 . S
C808 C817 1.390 . S
C809 C808 1.387 . S
C809 C811 1.387 . S
H810 C817 0.950 . S
C811 C809 1.387 . S
C811 C813 1.390 . S
C811 H815 0.950 . S
H812 C808 0.950 . S
C813 C811 1.390 . S
C813 C814 1.387 . S
C813 H816 0.950 . S
C814 C813 1.387 . S
C814 C817 1.387 . S
H815 C811 0.950 . S
H816 C813 0.950 . S
C817 C808 1.390 . S
C817 H810 0.950 . S
C817 C814 1.387 . S
C818 C819 1.387 . S
C818 H822 0.950 . S
C818 C827 1.390 . S
C819 C818 1.387 . S
C819 C821 1.387 . S
H820 C827 0.950 . S
C821 C819 1.387 . S
C821 C823 1.390 . S
C821 H825 0.950 . S
H822 C818 0.950 . S
C823 C821 1.390 . S
C823 C824 1.387 . S
C823 H826 0.950 . S
C824 C823 1.387 . S
C824 C827 1.387 . S
H825 C821 0.950 . S
H826 C823 0.950 . S
C827 C818 1.390 . S
C827 H820 0.950 . S
C827 C824 1.387 . S
C828 C829 1.387 . S
C828 H832 0.950 . S
C828 C837 1.390 . S
C829 C828 1.387 . S
C829 C831 1.387 . S
H830 C837 0.950 . S
C831 C829 1.387 . S
C831 C833 1.390 . S
C831 H835 0.950 . S
H832 C828 0.950 . S
C833 C831 1.390 . S
C833 C834 1.387 . S
C833 H836 0.950 . S
C834 C833 1.387 . S
C834 C837 1.387 . S
H835 C831 0.950 . S
H836 C833 0.950 . S
C837 C828 1.390 . S
C837 H830 0.950 . S
C837 C834 1.387 . S
C838 C839 1.387 . S
C838 H842 0.950 . S
C838 C847 1.390 . S
C839 C838 1.387 . S
C839 C841 1.387 . S
H840 C847 0.950 . S
C841 C839 1.387 . S
C841 C843 1.390 . S
C841 H845 0.950 . S
H842 C838 0.950 . S
C843 C841 1.390 . S
C843 C844 1.387 . S
C843 H846 0.950 . S
C844 C843 1.387 . S
C844 C847 1.387 . S
H845 C841 0.950 . S
H846 C843 0.950 . S
C847 C838 1.390 . S
C847 H840 0.950 . S
C847 C844 1.387 . S
C848 C849 1.387 . S
C848 H852 0.950 . S
C848 C857 1.390 1_556 S
C849 C848 1.387 . S
C849 C851 1.387 . S
H850 C857 0.950 . S
C851 C849 1.387 . S
C851 C853 1.390 1_556 S
C851 H855 0.950 . S
H852 C848 0.950 . S
C853 C851 1.390 1_554 S
C853 C854 1.387 . S
C853 H856 0.950 . S
C854 C853 1.387 . S
C854 C857 1.387 . S
H855 C851 0.950 . S
H856 C853 0.950 . S
C857 C848 1.390 1_554 S
C857 H850 0.950 . S
C857 C854 1.387 . S
C858 C859 1.387 . S
C858 H862 0.950 . S
C858 C867 1.390 1_556 S
C859 C858 1.387 . S
C859 C861 1.387 . S
H860 C867 0.950 . S
C861 C859 1.387 . S
C861 C863 1.390 1_556 S
C861 H865 0.950 . S
H862 C858 0.950 . S
C863 C861 1.390 1_554 S
C863 C864 1.387 . S
C863 H866 0.950 . S
C864 C863 1.387 . S
C864 C867 1.387 . S
H865 C861 0.950 . S
H866 C863 0.950 . S
C867 C858 1.390 1_554 S
C867 H860 0.950 . S
C867 C864 1.387 . S
C868 C869 1.387 . S
C868 H872 0.950 . S
C868 C877 1.390 . S
C869 C868 1.387 . S
C869 C871 1.387 . S
H870 C877 0.950 . S
C871 C869 1.387 . S
C871 C873 1.390 . S
C871 H875 0.950 . S
H872 C868 0.950 . S
C873 C871 1.390 . S
C873 C874 1.387 . S
C873 H876 0.950 . S
C874 C873 1.387 . S
C874 C877 1.387 . S
H875 C871 0.950 . S
H876 C873 0.950 . S
C877 C868 1.390 . S
C877 H870 0.950 . S
C877 C874 1.387 . S
C878 C879 1.387 . S
C878 H882 0.950 . S
C878 C887 1.390 . S
C879 C878 1.387 . S
C879 C881 1.387 . S
H880 C887 0.950 . S
C881 C879 1.387 . S
C881 C883 1.390 . S
C881 H885 0.950 . S
H882 C878 0.950 . S
C883 C881 1.390 . S
C883 C884 1.387 . S
C883 H886 0.950 . S
C884 C883 1.387 . S
C884 C887 1.387 . S
H885 C881 0.950 . S
H886 C883 0.950 . S
C887 C878 1.390 . S
C887 H880 0.950 . S
C887 C884 1.387 . S
C888 C889 1.387 . S
C888 H892 0.950 . S
C888 C897 1.390 . S
C889 C888 1.387 . S
C889 C891 1.387 . S
H890 C897 0.950 . S
C891 C889 1.387 . S
C891 C893 1.390 . S
C891 H895 0.950 . S
H892 C888 0.950 . S
C893 C891 1.390 . S
C893 C894 1.387 . S
C893 H896 0.950 . S
C894 C893 1.387 . S
C894 C897 1.387 . S
H895 C891 0.950 . S
H896 C893 0.950 . S
C897 C888 1.390 . S
C897 H890 0.950 . S
C897 C894 1.387 . S
C898 C899 1.387 . S
C898 H902 0.950 . S
C898 C907 1.390 . S
C899 C898 1.387 . S
C899 C901 1.387 . S
H900 C907 0.950 . S
C901 C899 1.387 . S
C901 C903 1.390 . S
C901 H905 0.950 . S
H902 C898 0.950 . S
C903 C901 1.390 . S
C903 C904 1.387 . S
C903 H906 0.950 . S
C904 C903 1.387 . S
C904 C907 1.387 . S
H905 C901 0.950 . S
H906 C903 0.950 . S
C907 C898 1.390 . S
C907 H900 0.950 . S
C907 C904 1.387 . S
C908 C909 1.387 . S
C908 H912 0.950 . S
C908 C917 1.390 1_554 S
C909 C908 1.387 . S
C909 C911 1.387 . S
H910 C917 0.950 . S
C911 C909 1.387 . S
C911 C913 1.390 1_554 S
C911 H915 0.950 . S
H912 C908 0.950 . S
C913 C911 1.390 1_556 S
C913 C914 1.387 . S
C913 H916 0.950 . S
C914 C913 1.387 . S
C914 C917 1.387 . S
H915 C911 0.950 . S
H916 C913 0.950 . S
C917 C908 1.390 1_556 S
C917 H910 0.950 . S
C917 C914 1.387 . S
C918 C919 1.387 . S
C918 H922 0.950 . S
C918 C927 1.390 1_556 S
C919 C918 1.387 . S
C919 C921 1.387 . S
H920 C927 0.950 . S
C921 C919 1.387 . S
C921 C923 1.390 1_556 S
C921 H925 0.950 . S
H922 C918 0.950 . S
C923 C921 1.390 1_554 S
C923 C924 1.387 . S
C923 H926 0.950 . S
C924 C923 1.387 . S
C924 C927 1.387 . S
H925 C921 0.950 . S
H926 C923 0.950 . S
C927 C918 1.390 1_554 S
C927 H920 0.950 . S
C927 C924 1.387 . S
C529 N14 1.648 . S
C534 N377 1.648 . S
C539 N47 1.648 1_565 S
C544 N344 1.648 1_565 S
C549 N311 1.648 1_565 S
C554 N80 1.648 1_565 S
C559 N278 1.647 . S
C564 N113 1.647 . S
C569 N146 1.646 . S
C574 N509 1.646 . S
C579 N179 1.647 . S
C584 N476 1.647 . S
C589 N443 1.647 . S
C594 N212 1.647 . S
C599 N410 1.646 . S
C604 N245 1.646 . S
C609 C8 1.144 . S
C614 C437 1.144 . S
C619 C404 1.144 . S
C624 C41 1.144 . S
C629 C74 1.144 . S
C634 C503 1.144 . S
C639 C470 1.144 . S
C644 C107 1.144 . S
C649 C127 1.592 . S
C654 C490 1.592 . S
C659 C523 1.593 . S
C664 C94 1.593 . S
C669 C424 1.593 . S
C674 C61 1.593 . S
C679 C28 1.593 . S
C684 C457 1.593 . S
C689 C140 1.146 . S
C694 C305 1.146 . S
C699 C173 1.144 . S
C704 C272 1.144 . S
C709 C206 1.144 . S
C714 C371 1.144 . S
C719 C239 1.146 . S
C724 C338 1.146 . S
C729 C259 1.592 . S
C734 C358 1.592 . S
C739 C226 1.592 . S
C744 C391 1.592 . S
C749 C193 1.593 . S
C754 C292 1.593 . S
C759 C160 1.593 . S
C764 C325 1.593 . S
C769 C50 1.505 . S
C774 C17 1.505 . S
C779 C83 1.506 . S
C784 C116 1.506 . S
C789 C182 1.505 . S
C794 C149 1.505 . S
C799 C248 1.505 . S
C804 C215 1.505 . S
C809 C314 1.506 . S
C814 C281 1.506 . S
C819 C380 1.506 . S
C824 C347 1.506 . S
C829 C413 1.505 . S
C834 C446 1.505 . S
C839 C512 1.506 . S
C844 C479 1.506 . S
C849 N71 1.506 . S
C854 N5 1.506 . S
C859 N104 1.502 . S
C864 N38 1.502 . S
C869 N137 1.506 . S
C874 N203 1.506 . S
C879 N236 1.506 . S
C884 N170 1.506 . S
C889 N269 1.502 . S
C894 N335 1.502 . S
C899 N368 1.506 . S
C904 N302 1.506 . S
C909 N401 1.506 . S
C914 N467 1.506 . S
C919 N500 1.506 . S
C924 N434 1.506 . S
