# Generated by pormake.
# Topology wfa, (4)-cn, num edge types: 1
# Building blocks:
#     Node 0, Type 0, BuildingBlock: CEKHIL_clean_sbu_0, # of connection points: 4
#     Node 1, Type 0, BuildingBlock: CEKHIL_clean_sbu_0, # of connection points: 4
#     Node 2, Type 0, BuildingBlock: CEKHIL_clean_sbu_0, # of connection points: 4
#     Node 3, Type 0, BuildingBlock: CEKHIL_clean_sbu_0, # of connection points: 4
#     Node 4, Type 0, BuildingBlock: CEKHIL_clean_sbu_0, # of connection points: 4
#     Node 5, Type 0, BuildingBlock: CEKHIL_clean_sbu_0, # of connection points: 4
#     Node 6, Type 0, BuildingBlock: CEKHIL_clean_sbu_0, # of connection points: 4
#     Node 7, Type 0, BuildingBlock: CEKHIL_clean_sbu_0, # of connection points: 4
#     Node 8, Type 0, BuildingBlock: CEKHIL_clean_sbu_0, # of connection points: 4
#     Node 9, Type 0, BuildingBlock: CEKHIL_clean_sbu_0, # of connection points: 4
#     Node 10, Type 0, BuildingBlock: CEKHIL_clean_sbu_0, # of connection points: 4
#     Node 11, Type 0, BuildingBlock: CEKHIL_clean_sbu_0, # of connection points: 4
#     Node 12, Type 0, BuildingBlock: CEKHIL_clean_sbu_0, # of connection points: 4
#     Node 13, Type 0, BuildingBlock: CEKHIL_clean_sbu_0, # of connection points: 4
#     Node 14, Type 0, BuildingBlock: CEKHIL_clean_sbu_0, # of connection points: 4
#     Node 15, Type 0, BuildingBlock: CEKHIL_clean_sbu_0, # of connection points: 4
#     Edge 16, Type (0, 0), BuildingBlock: EYOCIG_clean_linker_4, # of connection points: 2
#     Edge 17, Type (0, 0), BuildingBlock: EYOCIG_clean_linker_4, # of connection points: 2
#     Edge 18, Type (0, 0), BuildingBlock: EYOCIG_clean_linker_4, # of connection points: 2
#     Edge 19, Type (0, 0), BuildingBlock: EYOCIG_clean_linker_4, # of connection points: 2
#     Edge 20, Type (0, 0), BuildingBlock: EYOCIG_clean_linker_4, # of connection points: 2
#     Edge 21, Type (0, 0), BuildingBlock: EYOCIG_clean_linker_4, # of connection points: 2
#     Edge 22, Type (0, 0), BuildingBlock: EYOCIG_clean_linker_4, # of connection points: 2
#     Edge 23, Type (0, 0), BuildingBlock: EYOCIG_clean_linker_4, # of connection points: 2
#     Edge 24, Type (0, 0), BuildingBlock: EYOCIG_clean_linker_4, # of connection points: 2
#     Edge 25, Type (0, 0), BuildingBlock: EYOCIG_clean_linker_4, # of connection points: 2
#     Edge 26, Type (0, 0), BuildingBlock: EYOCIG_clean_linker_4, # of connection points: 2
#     Edge 27, Type (0, 0), BuildingBlock: EYOCIG_clean_linker_4, # of connection points: 2
#     Edge 28, Type (0, 0), BuildingBlock: EYOCIG_clean_linker_4, # of connection points: 2
#     Edge 29, Type (0, 0), BuildingBlock: EYOCIG_clean_linker_4, # of connection points: 2
#     Edge 30, Type (0, 0), BuildingBlock: EYOCIG_clean_linker_4, # of connection points: 2
#     Edge 31, Type (0, 0), BuildingBlock: EYOCIG_clean_linker_4, # of connection points: 2
#     Edge 32, Type (0, 0), BuildingBlock: EYOCIG_clean_linker_4, # of connection points: 2
#     Edge 33, Type (0, 0), BuildingBlock: EYOCIG_clean_linker_4, # of connection points: 2
#     Edge 34, Type (0, 0), BuildingBlock: EYOCIG_clean_linker_4, # of connection points: 2
#     Edge 35, Type (0, 0), BuildingBlock: EYOCIG_clean_linker_4, # of connection points: 2
#     Edge 36, Type (0, 0), BuildingBlock: EYOCIG_clean_linker_4, # of connection points: 2
#     Edge 37, Type (0, 0), BuildingBlock: EYOCIG_clean_linker_4, # of connection points: 2
#     Edge 38, Type (0, 0), BuildingBlock: EYOCIG_clean_linker_4, # of connection points: 2
#     Edge 39, Type (0, 0), BuildingBlock: EYOCIG_clean_linker_4, # of connection points: 2
#     Edge 40, Type (0, 0), BuildingBlock: EYOCIG_clean_linker_4, # of connection points: 2
#     Edge 41, Type (0, 0), BuildingBlock: EYOCIG_clean_linker_4, # of connection points: 2
#     Edge 42, Type (0, 0), BuildingBlock: EYOCIG_clean_linker_4, # of connection points: 2
#     Edge 43, Type (0, 0), BuildingBlock: EYOCIG_clean_linker_4, # of connection points: 2
#     Edge 44, Type (0, 0), BuildingBlock: EYOCIG_clean_linker_4, # of connection points: 2
#     Edge 45, Type (0, 0), BuildingBlock: EYOCIG_clean_linker_4, # of connection points: 2
#     Edge 46, Type (0, 0), BuildingBlock: EYOCIG_clean_linker_4, # of connection points: 2
#     Edge 47, Type (0, 0), BuildingBlock: EYOCIG_clean_linker_4, # of connection points: 2
# Relax obj value: 0.218
# Max RMSD: 0.277
# Mean RMSD: 0.271
data_MOF--net-wfa--node1-CEKHIL_clean_sbu_0--edge1-EYOCIG_clean_linker_4
_symmetry_space_group_name_H-M    P1
_symmetry_Int_Tables_number       1
_symmetry_cell_setting            triclinic
loop_
_symmetry_equiv_pos_as_xyz
'x, y, z'
_cell_length_a     36.023501
_cell_length_b     36.022221
_cell_length_c     18.739774
_cell_angle_alpha  89.640833
_cell_angle_beta   89.598731
_cell_angle_gamma 89.493125
loop_
_atom_site_label
_atom_site_type_symbol
_atom_site_fract_x
_atom_site_fract_y
_atom_site_fract_z
_atom_type_partial_charge
Co0 Co 0.65185 0.99378 0.04124 0.0
O1 O 0.67576 0.95946 0.97678 0.0
O2 O 0.69051 0.01884 0.98912 0.0
C3 C 0.59151 0.98203 0.01636 0.0
O4 O 0.63441 0.03754 0.09654 0.0
Co5 Co 0.60274 0.96459 0.16835 0.0
O6 O 0.59689 0.01849 0.18606 0.0
C7 C 0.68348 0.97228 0.18789 0.0
C8 C 0.69566 0.9876 0.9564 0.0
C9 C 0.61399 0.04351 0.15087 0.0
O10 O 0.68772 0.98211 0.12203 0.0
O11 O 0.65253 0.96239 0.21538 0.0
O12 O 0.61153 0.00216 0.97384 0.0
O13 O 0.60976 0.96456 0.06581 0.0
Co14 Co 0.51835 0.65129 0.04382 0.0
O15 O 0.55331 0.67267 0.97669 0.0
O16 O 0.49546 0.6924 0.99339 0.0
C17 C 0.52549 0.58987 0.01693 0.0
O18 O 0.47434 0.63704 0.10264 0.0
Co19 Co 0.54633 0.59984 0.16795 0.0
O20 O 0.49246 0.59695 0.18882 0.0
C21 C 0.54328 0.68084 0.19021 0.0
C22 C 0.52651 0.6951 0.95835 0.0
C23 C 0.46795 0.61626 0.15646 0.0
O24 O 0.53335 0.68597 0.12467 0.0
O25 O 0.55148 0.64903 0.2166 0.0
O26 O 0.50632 0.61194 0.97648 0.0
O27 O 0.54492 0.60641 0.06521 0.0
Co28 Co 0.84877 0.52301 0.03975 0.0
O29 O 0.82712 0.55772 0.97231 0.0
O30 O 0.8081 0.50004 0.99078 0.0
C31 C 0.91054 0.52887 0.01263 0.0
O32 O 0.86313 0.47957 0.09937 0.0
Co33 Co 0.89864 0.55264 0.16267 0.0
O34 O 0.90056 0.49912 0.18728 0.0
C35 C 0.81779 0.54754 0.18669 0.0
C36 C 0.80494 0.53092 0.95538 0.0
C37 C 0.88237 0.47418 0.15513 0.0
O38 O 0.81332 0.53823 0.12078 0.0
O39 O 0.8492 0.55623 0.21285 0.0
O40 O 0.88862 0.51013 0.97232 0.0
O41 O 0.89354 0.54917 0.05998 0.0
Co42 Co 0.99346 0.84791 0.03833 0.0
O43 O 0.95904 0.82552 0.97344 0.0
O44 O 0.01807 0.80861 0.98684 0.0
C45 C 0.98281 0.90889 0.01314 0.0
O46 O 0.03718 0.86332 0.09463 0.0
Co47 Co 0.96403 0.89723 0.16455 0.0
O48 O 0.01779 0.89964 0.18531 0.0
C49 C 0.9708 0.81611 0.18486 0.0
C50 C 0.98686 0.8046 0.95386 0.0
C51 C 0.04284 0.88213 0.15059 0.0
O52 O 0.98083 0.81192 0.11912 0.0
O53 O 0.96114 0.84723 0.21194 0.0
O54 O 0.00287 0.88848 0.97102 0.0
O55 O 0.9648 0.89084 0.06216 0.0
Co56 Co 0.15228 0.00711 0.46517 0.0
O57 O 0.17533 0.04181 0.52875 0.0
O58 O 0.19112 0.98236 0.51756 0.0
C59 C 0.09145 0.01894 0.48954 0.0
O60 O 0.13601 0.96299 0.41107 0.0
Co61 Co 0.10358 0.03534 0.33733 0.0
O62 O 0.09888 0.98128 0.32094 0.0
C63 C 0.18463 0.02797 0.31803 0.0
C64 C 0.19572 0.01381 0.54938 0.0
C65 C 0.11614 0.95654 0.3569 0.0
O66 O 0.18852 0.01825 0.38397 0.0
O67 O 0.15371 0.03781 0.29045 0.0
O68 O 0.11153 0.9992 0.53275 0.0
O69 O 0.10982 0.03612 0.43982 0.0
Co70 Co 0.47846 0.15151 0.46277 0.0
O71 O 0.44419 0.17377 0.53049 0.0
O72 O 0.50195 0.19218 0.51098 0.0
C73 C 0.47206 0.0899 0.49071 0.0
O74 O 0.52176 0.13675 0.40317 0.0
Co75 Co 0.44885 0.10111 0.34051 0.0
O76 O 0.50212 0.10053 0.3135 0.0
C77 C 0.45408 0.18187 0.31543 0.0
C78 C 0.47126 0.19575 0.54685 0.0
C79 C 0.52709 0.11836 0.34634 0.0
O80 O 0.46328 0.18668 0.38132 0.0
O81 O 0.44546 0.15034 0.28971 0.0
O82 O 0.49111 0.1118 0.53053 0.0
O83 O 0.4519 0.10685 0.44316 0.0
Co84 Co 0.34915 0.48185 0.46055 0.0
O85 O 0.32825 0.44653 0.52754 0.0
O86 O 0.30811 0.50431 0.51207 0.0
C87 C 0.41072 0.47488 0.48653 0.0
O88 O 0.36292 0.52604 0.40166 0.0
Co89 Co 0.40018 0.45393 0.33554 0.0
O90 O 0.40184 0.5077 0.31356 0.0
C91 C 0.31911 0.45766 0.31415 0.0
C92 C 0.30569 0.47308 0.5466 0.0
C93 C 0.38281 0.53224 0.34647 0.0
O94 O 0.31417 0.46699 0.38009 0.0
O95 O 0.35084 0.44967 0.28714 0.0
O96 O 0.38871 0.4939 0.52741 0.0
O97 O 0.39407 0.45549 0.43833 0.0
Co98 Co 0.00685 0.34853 0.4628 0.0
O99 O 0.04063 0.32461 0.52803 0.0
O100 O 0.98124 0.31009 0.51442 0.0
C101 C 0.01862 0.40883 0.48784 0.0
O102 O 0.96359 0.36621 0.40649 0.0
Co103 Co 0.03717 0.39719 0.33627 0.0
O104 O 0.98341 0.40482 0.31938 0.0
C105 C 0.02922 0.31647 0.3168 0.0
C106 C 0.01225 0.30493 0.54792 0.0
C107 C 0.95805 0.38757 0.35336 0.0
O108 O 0.01888 0.31245 0.38243 0.0
O109 O 0.03944 0.34733 0.28938 0.0
O110 O 0.99816 0.38891 0.52994 0.0
O111 O 0.03641 0.39046 0.43887 0.0
Co112 Co 0.34852 0.00662 0.96239 0.0
O113 O 0.32465 0.0401 0.0282 0.0
O114 O 0.3098 0.98089 0.013 0.0
C115 C 0.40875 0.0181 0.9889 0.0
O116 O 0.36598 0.96371 0.90483 0.0
Co117 Co 0.39778 0.0379 0.83764 0.0
O118 O 0.4029 0.98439 0.81574 0.0
C119 C 0.31715 0.02967 0.81623 0.0
C120 C 0.30479 0.01171 0.04725 0.0
C121 C 0.38587 0.9588 0.8494 0.0
O122 O 0.31275 0.01935 0.88182 0.0
O123 O 0.3482 0.03986 0.78951 0.0
O124 O 0.38862 0.99724 0.02984 0.0
O125 O 0.39067 0.03624 0.94008 0.0
Co126 Co 0.48248 0.34876 0.9603 0.0
O127 O 0.44773 0.32733 0.02782 0.0
O128 O 0.50546 0.3075 0.01031 0.0
C129 C 0.47565 0.41021 0.98744 0.0
O130 O 0.52608 0.36302 0.90035 0.0
Co131 Co 0.4531 0.40033 0.83721 0.0
O132 O 0.50668 0.40214 0.81345 0.0
C133 C 0.45773 0.31943 0.81374 0.0
C134 C 0.47449 0.30475 0.04562 0.0
C135 C 0.53161 0.38309 0.84517 0.0
O136 O 0.46727 0.31416 0.87946 0.0
O137 O 0.44929 0.35125 0.78762 0.0
O138 O 0.49491 0.38806 0.02758 0.0
O139 O 0.45585 0.3937 0.93972 0.0
Co140 Co 0.15157 0.47736 0.96281 0.0
O141 O 0.17355 0.44308 0.03077 0.0
O142 O 0.19197 0.50088 0.01175 0.0
C143 C 0.08983 0.47103 0.98951 0.0
O144 O 0.13684 0.52067 0.90327 0.0
Co145 Co 0.10189 0.44796 0.8394 0.0
O146 O 0.09806 0.5017 0.81716 0.0
C147 C 0.18279 0.45258 0.81615 0.0
C148 C 0.1954 0.47018 0.0476 0.0
C149 C 0.11651 0.52651 0.84915 0.0
O150 O 0.18716 0.46222 0.88192 0.0
O151 O 0.15143 0.44383 0.78988 0.0
O152 O 0.11154 0.48994 0.02996 0.0
O153 O 0.10704 0.45084 0.94223 0.0
Co154 Co 0.00715 0.15231 0.96592 0.0
O155 O 0.04166 0.17561 0.02922 0.0
O156 O 0.98208 0.19107 0.01783 0.0
C157 C 0.01929 0.09168 0.99107 0.0
O158 O 0.96322 0.13566 0.91194 0.0
Co159 Co 0.03597 0.10353 0.83875 0.0
O160 O 0.98199 0.09849 0.82217 0.0
C161 C 0.02803 0.18448 0.81858 0.0
C162 C 0.01348 0.19579 0.04973 0.0
C163 C 0.95706 0.11566 0.85784 0.0
O164 O 0.01817 0.18844 0.88445 0.0
O165 O 0.03813 0.15355 0.79131 0.0
O166 O 0.99934 0.11178 0.03392 0.0
O167 O 0.03645 0.10997 0.9412 0.0
Co168 Co 0.84797 0.99383 0.53801 0.0
O169 O 0.82457 0.95987 0.47379 0.0
O170 O 0.80883 0.01923 0.48777 0.0
C171 C 0.90859 0.98226 0.51116 0.0
O172 O 0.8646 0.03721 0.5936 0.0
Co173 Co 0.89747 0.96356 0.66288 0.0
O174 O 0.90139 0.01729 0.68303 0.0
C175 C 0.81663 0.97158 0.68542 0.0
C176 C 0.80415 0.98814 0.45472 0.0
C177 C 0.88411 0.04262 0.64865 0.0
O178 O 0.81227 0.98185 0.61985 0.0
O179 O 0.84775 0.96129 0.71164 0.0
O180 O 0.88818 0.00258 0.46956 0.0
O181 O 0.8906 0.96447 0.56059 0.0
Co182 Co 0.52297 0.84869 0.54097 0.0
O183 O 0.55811 0.82697 0.47419 0.0
O184 O 0.50025 0.80818 0.49109 0.0
C185 C 0.52912 0.91047 0.51479 0.0
O186 O 0.47894 0.86306 0.59887 0.0
Co187 Co 0.55072 0.8986 0.66562 0.0
O188 O 0.49677 0.9015 0.68651 0.0
C189 C 0.5463 0.81766 0.68847 0.0
C190 C 0.53133 0.80494 0.45636 0.0
C191 C 0.47242 0.88305 0.6532 0.0
O192 O 0.5375 0.81319 0.62229 0.0
O193 O 0.5545 0.84908 0.71515 0.0
O194 O 0.51079 0.88868 0.47352 0.0
O195 O 0.54894 0.89337 0.56272 0.0
Co196 Co 0.65159 0.51867 0.54288 0.0
O197 O 0.67253 0.55394 0.47576 0.0
O198 O 0.69277 0.49624 0.49175 0.0
C199 C 0.59006 0.52524 0.51684 0.0
O200 O 0.63774 0.47445 0.60145 0.0
Co201 Co 0.60016 0.54608 0.6678 0.0
O202 O 0.59665 0.49204 0.68641 0.0
C203 C 0.6812 0.5435 0.68923 0.0
C204 C 0.69513 0.52737 0.4569 0.0
C205 C 0.61634 0.46773 0.65423 0.0
O206 O 0.6863 0.53379 0.62354 0.0
O207 O 0.6494 0.55143 0.71599 0.0
O208 O 0.6122 0.50641 0.47587 0.0
O209 O 0.60655 0.54478 0.56502 0.0
Co210 Co 0.99271 0.65183 0.54033 0.0
O211 O 0.95855 0.67565 0.47569 0.0
O212 O 0.01782 0.6907 0.4889 0.0
C213 C 0.98129 0.59151 0.51425 0.0
O214 O 0.03619 0.63439 0.59639 0.0
Co215 Co 0.96255 0.60254 0.66607 0.0
O216 O 0.01631 0.59622 0.68422 0.0
C217 C 0.97052 0.68319 0.68715 0.0
C218 C 0.98668 0.69566 0.45574 0.0
C219 C 0.04164 0.61358 0.65039 0.0
O220 O 0.98056 0.68755 0.62139 0.0
O221 O 0.96049 0.65216 0.71411 0.0
O222 O 0.00163 0.61174 0.47252 0.0
O223 O 0.96348 0.60957 0.56359 0.0
C224 C 0.58744 0.12062 0.27258 0.0
C225 C 0.56185 0.12217 0.31272 0.0
C226 C 0.60706 0.10518 0.21662 0.0
C227 C 0.6135 0.07974 0.17846 0.0
C228 C 0.38635 0.5937 0.27686 0.0
C229 C 0.38129 0.5681 0.31597 0.0
C230 C 0.40556 0.61207 0.22338 0.0
C231 C 0.43186 0.61719 0.18602 0.0
C232 C 0.8811 0.4144 0.23024 0.0
C233 C 0.8789 0.43952 0.18921 0.0
C234 C 0.89673 0.39542 0.28678 0.0
C235 C 0.92202 0.38865 0.32503 0.0
C236 C 0.10128 0.88 0.2269 0.0
C237 C 0.07765 0.87781 0.18334 0.0
C238 C 0.11573 0.89552 0.2877 0.0
C239 C 0.11879 0.9207 0.32774 0.0
C240 C 0.39077 0.89892 0.77733 0.0
C241 C 0.38528 0.92344 0.81813 0.0
C242 C 0.4103 0.88347 0.72129 0.0
C243 C 0.43677 0.88059 0.68364 0.0
C244 C 0.61105 0.40506 0.71952 0.0
C245 C 0.61681 0.43144 0.68278 0.0
C246 C 0.59238 0.38619 0.77302 0.0
C247 C 0.56703 0.38147 0.81292 0.0
C248 C 0.10168 0.6072 0.72105 0.0
C249 C 0.07729 0.61355 0.68045 0.0
C250 C 0.11644 0.58764 0.77774 0.0
C251 C 0.11907 0.56166 0.81665 0.0
C252 C 0.89694 0.11557 0.78645 0.0
C253 C 0.9215 0.11853 0.82779 0.0
C254 C 0.8824 0.10117 0.7248 0.0
C255 C 0.88024 0.07741 0.68153 0.0
C256 C 0.74046 0.98266 0.84431 0.0
C257 C 0.72008 0.9852 0.89555 0.0
C258 C 0.76409 0.97904 0.78387 0.0
C259 C 0.78635 0.97636 0.73548 0.0
C260 C 0.53854 0.76466 0.78687 0.0
C261 C 0.54154 0.78716 0.73863 0.0
C262 C 0.53382 0.7406 0.8469 0.0
C263 C 0.53013 0.71997 0.89784 0.0
C264 C 0.75872 0.53672 0.84598 0.0
C265 C 0.77984 0.53418 0.89586 0.0
C266 C 0.7343 0.53944 0.78672 0.0
C267 C 0.71175 0.54073 0.73894 0.0
C268 C 0.98142 0.75956 0.84349 0.0
C269 C 0.98413 0.78006 0.89393 0.0
C270 C 0.97775 0.73575 0.78404 0.0
C271 C 0.97513 0.71341 0.73644 0.0
C272 C 0.24084 0.01921 0.65965 0.0
C273 C 0.22028 0.01661 0.60928 0.0
C274 C 0.26467 0.02272 0.71911 0.0
C275 C 0.28699 0.0252 0.76677 0.0
C276 C 0.466 0.24227 0.6561 0.0
C277 C 0.46848 0.22107 0.60624 0.0
C278 C 0.46295 0.26669 0.71541 0.0
C279 C 0.46113 0.28914 0.76342 0.0
C280 C 0.26016 0.46484 0.65789 0.0
C281 C 0.28082 0.4689 0.60704 0.0
C282 C 0.23593 0.45996 0.7177 0.0
C283 C 0.21328 0.45715 0.76577 0.0
C284 C 0.01644 0.26081 0.66084 0.0
C285 C 0.01412 0.28086 0.60918 0.0
C286 C 0.02009 0.2374 0.7214 0.0
C287 C 0.02297 0.21506 0.7695 0.0
C288 C 0.23751 0.0198 0.22095 0.0
C289 C 0.21524 0.02279 0.26911 0.0
C290 C 0.26077 0.01588 0.16025 0.0
C291 C 0.28072 0.0134 0.1085 0.0
C292 C 0.46199 0.23445 0.21603 0.0
C293 C 0.45892 0.21203 0.26443 0.0
C294 C 0.46691 0.25866 0.15621 0.0
C295 C 0.4708 0.27952 0.10564 0.0
C296 C 0.26582 0.46221 0.21696 0.0
C297 C 0.28843 0.4607 0.26467 0.0
C298 C 0.24143 0.46503 0.15759 0.0
C299 C 0.22044 0.46741 0.10741 0.0
C300 C 0.01852 0.24029 0.16073 0.0
C301 C 0.016 0.22002 0.10999 0.0
C302 C 0.02204 0.26381 0.22046 0.0
C303 C 0.02458 0.28612 0.26803 0.0
C304 C 0.7359 0.97999 0.28441 0.0
C305 C 0.71371 0.97717 0.23675 0.0
C306 C 0.75939 0.98365 0.34411 0.0
C307 C 0.77973 0.98607 0.39471 0.0
C308 C 0.5371 0.75867 0.34683 0.0
C309 C 0.53476 0.77987 0.3967 0.0
C310 C 0.53953 0.73405 0.28775 0.0
C311 C 0.54067 0.71138 0.24009 0.0
C312 C 0.7405 0.53514 0.34518 0.0
C313 C 0.7199 0.53133 0.39621 0.0
C314 C 0.76472 0.53989 0.28527 0.0
C315 C 0.78735 0.54283 0.23717 0.0
C316 C 0.97801 0.76329 0.28248 0.0
C317 C 0.97543 0.78558 0.23422 0.0
C318 C 0.98173 0.73991 0.34309 0.0
C319 C 0.98439 0.7198 0.39462 0.0
C320 C 0.48138 0.00612 0.99778 0.0
C321 C 0.44877 0.01367 0.98927 0.0
C322 C 0.51893 0.99478 0.0094 0.0
C323 C 0.55154 0.98698 0.01713 0.0
C324 C 0.49372 0.48172 0.99582 0.0
C325 C 0.48341 0.44987 0.98754 0.0
C326 C 0.50791 0.51827 0.00778 0.0
C327 C 0.51799 0.55016 0.01644 0.0
C328 C 0.98196 0.50792 0.00589 0.0
C329 C 0.95019 0.5196 0.01355 0.0
C330 C 0.0184 0.49197 0.99518 0.0
C331 C 0.05019 0.48027 0.98794 0.0
C332 C 0.00679 0.01909 0.99716 0.0
C333 C 0.0143 0.05176 0.99016 0.0
C334 C 0.99571 0.98142 0.00711 0.0
C335 C 0.98804 0.94878 0.01391 0.0
C336 C 0.01887 0.00605 0.49455 0.0
C337 C 0.05154 0.01369 0.48808 0.0
C338 C 0.98118 0.99493 0.50432 0.0
C339 C 0.94852 0.98736 0.51146 0.0
C340 C 0.50795 0.98182 0.50907 0.0
C341 C 0.51964 0.95004 0.5163 0.0
C342 C 0.49221 0.01831 0.49823 0.0
C343 C 0.48089 0.05017 0.49029 0.0
C344 C 0.51871 0.50671 0.50847 0.0
C345 C 0.55047 0.51722 0.51691 0.0
C346 C 0.48228 0.49238 0.49603 0.0
C347 C 0.45043 0.48228 0.48702 0.0
C348 C 0.99402 0.51892 0.50587 0.0
C349 C 0.98619 0.5515 0.51419 0.0
C350 C 0.00564 0.48141 0.49439 0.0
C351 C 0.01363 0.44882 0.48678 0.0
loop_
_geom_bond_atom_site_label_1
_geom_bond_atom_site_label_2
_geom_bond_distance
_geom_bond_site_symmetry_2
_ccdc_geom_bond_type
Co0 O1 2.216 1_544 S
Co0 O2 2.091 1_554 S
Co0 O4 2.004 . S
Co0 O10 2.021 1_545 S
Co0 O12 2.137 1_544 S
Co0 O13 2.244 1_545 S
O1 Co0 2.216 1_566 S
O1 C8 1.247 1_565 S
O2 Co0 2.091 1_556 S
O2 C8 1.261 . S
C3 O12 1.247 1_554 S
C3 O13 1.272 . S
O4 Co0 2.004 . S
O4 C9 1.259 . S
Co5 O6 2.061 1_565 S
Co5 O11 2.052 . S
Co5 O13 2.135 . S
O6 Co5 2.061 1_545 S
O6 C9 1.235 . S
C7 O10 1.238 . S
C7 O11 1.241 . S
C8 O1 1.247 1_545 S
C8 O2 1.261 . S
C9 O4 1.259 . S
C9 O6 1.235 . S
O10 Co0 2.021 1_565 S
O10 C7 1.238 . S
O11 Co5 2.052 . S
O11 C7 1.241 . S
O12 Co0 2.137 1_566 S
O12 C3 1.247 1_556 S
O13 Co0 2.244 1_565 S
O13 C3 1.272 . S
O13 Co5 2.135 . S
Co14 O15 2.216 1_554 S
Co14 O16 2.091 1_554 S
Co14 O18 2.004 . S
Co14 O24 2.021 . S
Co14 O26 2.137 1_554 S
Co14 O27 2.244 . S
O15 Co14 2.216 1_556 S
O15 C22 1.247 . S
O16 Co14 2.091 1_556 S
O16 C22 1.261 . S
C17 O26 1.247 1_554 S
C17 O27 1.272 . S
O18 Co14 2.004 . S
O18 C23 1.259 . S
Co19 O20 2.061 . S
Co19 O25 2.052 . S
Co19 O27 2.135 . S
O20 Co19 2.061 . S
O20 C23 1.235 . S
C21 O24 1.238 . S
C21 O25 1.241 . S
C22 O15 1.247 . S
C22 O16 1.261 . S
C23 O18 1.259 . S
C23 O20 1.235 . S
O24 Co14 2.021 . S
O24 C21 1.238 . S
O25 Co19 2.052 . S
O25 C21 1.241 . S
O26 Co14 2.137 1_556 S
O26 C17 1.247 1_556 S
O27 Co14 2.244 . S
O27 C17 1.272 . S
O27 Co19 2.135 . S
Co28 O29 2.216 1_554 S
Co28 O30 2.091 1_554 S
Co28 O32 2.004 . S
Co28 O38 2.021 . S
Co28 O40 2.137 1_554 S
Co28 O41 2.244 . S
O29 Co28 2.216 1_556 S
O29 C36 1.247 . S
O30 Co28 2.091 1_556 S
O30 C36 1.261 . S
C31 O40 1.247 1_554 S
C31 O41 1.272 . S
O32 Co28 2.004 . S
O32 C37 1.259 . S
Co33 O34 2.061 . S
Co33 O39 2.052 . S
Co33 O41 2.135 . S
O34 Co33 2.061 . S
O34 C37 1.235 . S
C35 O38 1.238 . S
C35 O39 1.241 . S
C36 O29 1.247 . S
C36 O30 1.261 . S
C37 O32 1.259 . S
C37 O34 1.235 . S
O38 Co28 2.021 . S
O38 C35 1.238 . S
O39 Co33 2.052 . S
O39 C35 1.241 . S
O40 Co28 2.137 1_556 S
O40 C31 1.247 1_556 S
O41 Co28 2.244 . S
O41 C31 1.272 . S
O41 Co33 2.135 . S
Co42 O43 2.216 1_454 S
Co42 O44 2.091 1_554 S
Co42 O46 2.004 . S
Co42 O52 2.021 1_455 S
Co42 O54 2.137 1_454 S
Co42 O55 2.244 1_455 S
O43 Co42 2.216 1_656 S
O43 C50 1.247 1_655 S
O44 Co42 2.091 1_556 S
O44 C50 1.261 . S
C45 O54 1.247 1_554 S
C45 O55 1.272 . S
O46 Co42 2.004 . S
O46 C51 1.259 . S
Co47 O48 2.061 1_655 S
Co47 O53 2.052 . S
Co47 O55 2.135 . S
O48 Co47 2.061 1_455 S
O48 C51 1.235 . S
C49 O52 1.238 . S
C49 O53 1.241 . S
C50 O43 1.247 1_455 S
C50 O44 1.261 . S
C51 O46 1.259 . S
C51 O48 1.235 . S
O52 Co42 2.021 1_655 S
O52 C49 1.238 . S
O53 Co47 2.052 . S
O53 C49 1.241 . S
O54 Co42 2.137 1_656 S
O54 C45 1.247 1_556 S
O55 Co42 2.244 1_655 S
O55 C45 1.272 . S
O55 Co47 2.135 . S
Co56 O57 2.216 1_565 S
Co56 O58 2.091 . S
Co56 O60 2.004 . S
Co56 O66 2.021 1_565 S
Co56 O68 2.137 1_565 S
Co56 O69 2.244 1_565 S
O57 Co56 2.216 1_545 S
O57 C64 1.247 1_545 S
O58 Co56 2.091 . S
O58 C64 1.261 . S
C59 O68 1.247 . S
C59 O69 1.272 . S
O60 Co56 2.004 . S
O60 C65 1.259 . S
Co61 O62 2.061 1_545 S
Co61 O67 2.052 . S
Co61 O69 2.135 . S
O62 Co61 2.061 1_565 S
O62 C65 1.235 . S
C63 O66 1.238 . S
C63 O67 1.241 . S
C64 O57 1.247 1_565 S
C64 O58 1.261 . S
C65 O60 1.259 . S
C65 O62 1.235 . S
O66 Co56 2.021 1_545 S
O66 C63 1.238 . S
O67 Co61 2.052 . S
O67 C63 1.241 . S
O68 Co56 2.137 1_545 S
O68 C59 1.247 . S
O69 Co56 2.244 1_545 S
O69 C59 1.272 . S
O69 Co61 2.135 . S
Co70 O71 2.216 . S
Co70 O72 2.091 . S
Co70 O74 2.004 . S
Co70 O80 2.021 . S
Co70 O82 2.137 . S
Co70 O83 2.244 . S
O71 Co70 2.216 . S
O71 C78 1.247 . S
O72 Co70 2.091 . S
O72 C78 1.261 . S
C73 O82 1.247 . S
C73 O83 1.272 . S
O74 Co70 2.004 . S
O74 C79 1.259 . S
Co75 O76 2.061 . S
Co75 O81 2.052 . S
Co75 O83 2.135 . S
O76 Co75 2.061 . S
O76 C79 1.235 . S
C77 O80 1.238 . S
C77 O81 1.241 . S
C78 O71 1.247 . S
C78 O72 1.261 . S
C79 O74 1.259 . S
C79 O76 1.235 . S
O80 Co70 2.021 . S
O80 C77 1.238 . S
O81 Co75 2.052 . S
O81 C77 1.241 . S
O82 Co70 2.137 . S
O82 C73 1.247 . S
O83 Co70 2.244 . S
O83 C73 1.272 . S
O83 Co75 2.135 . S
Co84 O85 2.216 . S
Co84 O86 2.091 . S
Co84 O88 2.004 . S
Co84 O94 2.021 . S
Co84 O96 2.137 . S
Co84 O97 2.244 . S
O85 Co84 2.216 . S
O85 C92 1.247 . S
O86 Co84 2.091 . S
O86 C92 1.261 . S
C87 O96 1.247 . S
C87 O97 1.272 . S
O88 Co84 2.004 . S
O88 C93 1.259 . S
Co89 O90 2.061 . S
Co89 O95 2.052 . S
Co89 O97 2.135 . S
O90 Co89 2.061 . S
O90 C93 1.235 . S
C91 O94 1.238 . S
C91 O95 1.241 . S
C92 O85 1.247 . S
C92 O86 1.261 . S
C93 O88 1.259 . S
C93 O90 1.235 . S
O94 Co84 2.021 . S
O94 C91 1.238 . S
O95 Co89 2.052 . S
O95 C91 1.241 . S
O96 Co84 2.137 . S
O96 C87 1.247 . S
O97 Co84 2.244 . S
O97 C87 1.272 . S
O97 Co89 2.135 . S
Co98 O99 2.216 1_655 S
Co98 O100 2.091 . S
Co98 O102 2.004 . S
Co98 O108 2.021 1_655 S
Co98 O110 2.137 1_655 S
Co98 O111 2.244 1_655 S
O99 Co98 2.216 1_455 S
O99 C106 1.247 1_455 S
O100 Co98 2.091 . S
O100 C106 1.261 . S
C101 O110 1.247 . S
C101 O111 1.272 . S
O102 Co98 2.004 . S
O102 C107 1.259 . S
Co103 O104 2.061 1_455 S
Co103 O109 2.052 . S
Co103 O111 2.135 . S
O104 Co103 2.061 1_655 S
O104 C107 1.235 . S
C105 O108 1.238 . S
C105 O109 1.241 . S
C106 O99 1.247 1_655 S
C106 O100 1.261 . S
C107 O102 1.259 . S
C107 O104 1.235 . S
O108 Co98 2.021 1_455 S
O108 C105 1.238 . S
O109 Co103 2.052 . S
O109 C105 1.241 . S
O110 Co98 2.137 1_455 S
O110 C101 1.247 . S
O111 Co98 2.244 1_455 S
O111 C101 1.272 . S
O111 Co103 2.135 . S
Co112 O113 2.216 1_566 S
Co112 O114 2.091 1_556 S
Co112 O116 2.004 . S
Co112 O122 2.021 1_565 S
Co112 O124 2.137 1_566 S
Co112 O125 2.244 1_565 S
O113 Co112 2.216 1_544 S
O113 C120 1.247 1_545 S
O114 Co112 2.091 1_554 S
O114 C120 1.261 . S
C115 O124 1.247 1_556 S
C115 O125 1.272 . S
O116 Co112 2.004 . S
O116 C121 1.259 . S
Co117 O118 2.061 1_545 S
Co117 O123 2.052 . S
Co117 O125 2.135 . S
O118 Co117 2.061 1_565 S
O118 C121 1.235 . S
C119 O122 1.238 . S
C119 O123 1.241 . S
C120 O113 1.247 1_565 S
C120 O114 1.261 . S
C121 O116 1.259 . S
C121 O118 1.235 . S
O122 Co112 2.021 1_545 S
O122 C119 1.238 . S
O123 Co117 2.052 . S
O123 C119 1.241 . S
O124 Co112 2.137 1_544 S
O124 C115 1.247 1_554 S
O125 Co112 2.244 1_545 S
O125 C115 1.272 . S
O125 Co117 2.135 . S
Co126 O127 2.216 1_556 S
Co126 O128 2.091 1_556 S
Co126 O130 2.004 . S
Co126 O136 2.021 . S
Co126 O138 2.137 1_556 S
Co126 O139 2.244 . S
O127 Co126 2.216 1_554 S
O127 C134 1.247 . S
O128 Co126 2.091 1_554 S
O128 C134 1.261 . S
C129 O138 1.247 1_556 S
C129 O139 1.272 . S
O130 Co126 2.004 . S
O130 C135 1.259 . S
Co131 O132 2.061 . S
Co131 O137 2.052 . S
Co131 O139 2.135 . S
O132 Co131 2.061 . S
O132 C135 1.235 . S
C133 O136 1.238 . S
C133 O137 1.241 . S
C134 O127 1.247 . S
C134 O128 1.261 . S
C135 O130 1.259 . S
C135 O132 1.235 . S
O136 Co126 2.021 . S
O136 C133 1.238 . S
O137 Co131 2.052 . S
O137 C133 1.241 . S
O138 Co126 2.137 1_554 S
O138 C129 1.247 1_554 S
O139 Co126 2.244 . S
O139 C129 1.272 . S
O139 Co131 2.135 . S
Co140 O141 2.216 1_556 S
Co140 O142 2.091 1_556 S
Co140 O144 2.004 . S
Co140 O150 2.021 . S
Co140 O152 2.137 1_556 S
Co140 O153 2.244 . S
O141 Co140 2.216 1_554 S
O141 C148 1.247 . S
O142 Co140 2.091 1_554 S
O142 C148 1.261 . S
C143 O152 1.247 1_556 S
C143 O153 1.272 . S
O144 Co140 2.004 . S
O144 C149 1.259 . S
Co145 O146 2.061 . S
Co145 O151 2.052 . S
Co145 O153 2.135 . S
O146 Co145 2.061 . S
O146 C149 1.235 . S
C147 O150 1.238 . S
C147 O151 1.241 . S
C148 O141 1.247 . S
C148 O142 1.261 . S
C149 O144 1.259 . S
C149 O146 1.235 . S
O150 Co140 2.021 . S
O150 C147 1.238 . S
O151 Co145 2.052 . S
O151 C147 1.241 . S
O152 Co140 2.137 1_554 S
O152 C143 1.247 1_554 S
O153 Co140 2.244 . S
O153 C143 1.272 . S
O153 Co145 2.135 . S
Co154 O155 2.216 1_656 S
Co154 O156 2.091 1_556 S
Co154 O158 2.004 . S
Co154 O164 2.021 1_655 S
Co154 O166 2.137 1_656 S
Co154 O167 2.244 1_655 S
O155 Co154 2.216 1_454 S
O155 C162 1.247 1_455 S
O156 Co154 2.091 1_554 S
O156 C162 1.261 . S
C157 O166 1.247 1_556 S
C157 O167 1.272 . S
O158 Co154 2.004 . S
O158 C163 1.259 . S
Co159 O160 2.061 1_455 S
Co159 O165 2.052 . S
Co159 O167 2.135 . S
O160 Co159 2.061 1_655 S
O160 C163 1.235 . S
C161 O164 1.238 . S
C161 O165 1.241 . S
C162 O155 1.247 1_655 S
C162 O156 1.261 . S
C163 O158 1.259 . S
C163 O160 1.235 . S
O164 Co154 2.021 1_455 S
O164 C161 1.238 . S
O165 Co159 2.052 . S
O165 C161 1.241 . S
O166 Co154 2.137 1_454 S
O166 C157 1.247 1_554 S
O167 Co154 2.244 1_455 S
O167 C157 1.272 . S
O167 Co159 2.135 . S
Co168 O169 2.216 1_545 S
Co168 O170 2.091 . S
Co168 O172 2.004 . S
Co168 O178 2.021 1_545 S
Co168 O180 2.137 1_545 S
Co168 O181 2.244 1_545 S
O169 Co168 2.216 1_565 S
O169 C176 1.247 1_565 S
O170 Co168 2.091 . S
O170 C176 1.261 . S
C171 O180 1.247 . S
C171 O181 1.272 . S
O172 Co168 2.004 . S
O172 C177 1.259 . S
Co173 O174 2.061 1_565 S
Co173 O179 2.052 . S
Co173 O181 2.135 . S
O174 Co173 2.061 1_545 S
O174 C177 1.235 . S
C175 O178 1.238 . S
C175 O179 1.241 . S
C176 O169 1.247 1_545 S
C176 O170 1.261 . S
C177 O172 1.259 . S
C177 O174 1.235 . S
O178 Co168 2.021 1_565 S
O178 C175 1.238 . S
O179 Co173 2.052 . S
O179 C175 1.241 . S
O180 Co168 2.137 1_565 S
O180 C171 1.247 . S
O181 Co168 2.244 1_565 S
O181 C171 1.272 . S
O181 Co173 2.135 . S
Co182 O183 2.216 . S
Co182 O184 2.091 . S
Co182 O186 2.004 . S
Co182 O192 2.021 . S
Co182 O194 2.137 . S
Co182 O195 2.244 . S
O183 Co182 2.216 . S
O183 C190 1.247 . S
O184 Co182 2.091 . S
O184 C190 1.261 . S
C185 O194 1.247 . S
C185 O195 1.272 . S
O186 Co182 2.004 . S
O186 C191 1.259 . S
Co187 O188 2.061 . S
Co187 O193 2.052 . S
Co187 O195 2.135 . S
O188 Co187 2.061 . S
O188 C191 1.235 . S
C189 O192 1.238 . S
C189 O193 1.241 . S
C190 O183 1.247 . S
C190 O184 1.261 . S
C191 O186 1.259 . S
C191 O188 1.235 . S
O192 Co182 2.021 . S
O192 C189 1.238 . S
O193 Co187 2.052 . S
O193 C189 1.241 . S
O194 Co182 2.137 . S
O194 C185 1.247 . S
O195 Co182 2.244 . S
O195 C185 1.272 . S
O195 Co187 2.135 . S
Co196 O197 2.216 . S
Co196 O198 2.091 . S
Co196 O200 2.004 . S
Co196 O206 2.021 . S
Co196 O208 2.137 . S
Co196 O209 2.244 . S
O197 Co196 2.216 . S
O197 C204 1.247 . S
O198 Co196 2.091 . S
O198 C204 1.261 . S
C199 O208 1.247 . S
C199 O209 1.272 . S
O200 Co196 2.004 . S
O200 C205 1.259 . S
Co201 O202 2.061 . S
Co201 O207 2.052 . S
Co201 O209 2.135 . S
O202 Co201 2.061 . S
O202 C205 1.235 . S
C203 O206 1.238 . S
C203 O207 1.241 . S
C204 O197 1.247 . S
C204 O198 1.261 . S
C205 O200 1.259 . S
C205 O202 1.235 . S
O206 Co196 2.021 . S
O206 C203 1.238 . S
O207 Co201 2.052 . S
O207 C203 1.241 . S
O208 Co196 2.137 . S
O208 C199 1.247 . S
O209 Co196 2.244 . S
O209 C199 1.272 . S
O209 Co201 2.135 . S
Co210 O211 2.216 1_455 S
Co210 O212 2.091 . S
Co210 O214 2.004 . S
Co210 O220 2.021 1_455 S
Co210 O222 2.137 1_455 S
Co210 O223 2.244 1_455 S
O211 Co210 2.216 1_655 S
O211 C218 1.247 1_655 S
O212 Co210 2.091 . S
O212 C218 1.261 . S
C213 O222 1.247 . S
C213 O223 1.272 . S
O214 Co210 2.004 . S
O214 C219 1.259 . S
Co215 O216 2.061 1_655 S
Co215 O221 2.052 . S
Co215 O223 2.135 . S
O216 Co215 2.061 1_455 S
O216 C219 1.235 . S
C217 O220 1.238 . S
C217 O221 1.241 . S
C218 O211 1.247 1_455 S
C218 O212 1.261 . S
C219 O214 1.259 . S
C219 O216 1.235 . S
O220 Co210 2.021 1_655 S
O220 C217 1.238 . S
O221 Co215 2.052 . S
O221 C217 1.241 . S
O222 Co210 2.137 1_655 S
O222 C213 1.247 . S
O223 Co210 2.244 1_655 S
O223 C213 1.272 . S
O223 Co215 2.135 . S
C224 C225 1.170 . S
C224 C226 1.380 . S
C225 C224 1.170 . S
C226 C224 1.380 . S
C226 C227 1.170 . S
C227 C226 1.170 . S
C228 C229 1.170 . S
C228 C230 1.380 . S
C229 C228 1.170 . S
C230 C228 1.380 . S
C230 C231 1.170 . S
C231 C230 1.170 . S
C232 C233 1.170 . S
C232 C234 1.380 . S
C233 C232 1.170 . S
C234 C232 1.380 . S
C234 C235 1.170 . S
C235 C234 1.170 . S
C236 C237 1.170 . S
C236 C238 1.380 . S
C237 C236 1.170 . S
C238 C236 1.380 . S
C238 C239 1.170 . S
C239 C238 1.170 . S
C240 C241 1.170 . S
C240 C242 1.380 . S
C241 C240 1.170 . S
C242 C240 1.380 . S
C242 C243 1.170 . S
C243 C242 1.170 . S
C244 C245 1.170 . S
C244 C246 1.380 . S
C245 C244 1.170 . S
C246 C244 1.380 . S
C246 C247 1.170 . S
C247 C246 1.170 . S
C248 C249 1.170 . S
C248 C250 1.380 . S
C249 C248 1.170 . S
C250 C248 1.380 . S
C250 C251 1.170 . S
C251 C250 1.170 . S
C252 C253 1.170 . S
C252 C254 1.380 . S
C253 C252 1.170 . S
C254 C252 1.380 . S
C254 C255 1.170 . S
C255 C254 1.170 . S
C256 C257 1.170 . S
C256 C258 1.380 . S
C257 C256 1.170 . S
C258 C256 1.380 . S
C258 C259 1.170 . S
C259 C258 1.170 . S
C260 C261 1.170 . S
C260 C262 1.380 . S
C261 C260 1.170 . S
C262 C260 1.380 . S
C262 C263 1.170 . S
C263 C262 1.170 . S
C264 C265 1.170 . S
C264 C266 1.380 . S
C265 C264 1.170 . S
C266 C264 1.380 . S
C266 C267 1.170 . S
C267 C266 1.170 . S
C268 C269 1.170 . S
C268 C270 1.380 . S
C269 C268 1.170 . S
C270 C268 1.380 . S
C270 C271 1.170 . S
C271 C270 1.170 . S
C272 C273 1.170 . S
C272 C274 1.380 . S
C273 C272 1.170 . S
C274 C272 1.380 . S
C274 C275 1.170 . S
C275 C274 1.170 . S
C276 C277 1.170 . S
C276 C278 1.380 . S
C277 C276 1.170 . S
C278 C276 1.380 . S
C278 C279 1.170 . S
C279 C278 1.170 . S
C280 C281 1.170 . S
C280 C282 1.380 . S
C281 C280 1.170 . S
C282 C280 1.380 . S
C282 C283 1.170 . S
C283 C282 1.170 . S
C284 C285 1.170 . S
C284 C286 1.380 . S
C285 C284 1.170 . S
C286 C284 1.380 . S
C286 C287 1.170 . S
C287 C286 1.170 . S
C288 C289 1.170 . S
C288 C290 1.380 . S
C289 C288 1.170 . S
C290 C288 1.380 . S
C290 C291 1.171 . S
C291 C290 1.171 . S
C292 C293 1.170 . S
C292 C294 1.380 . S
C293 C292 1.170 . S
C294 C292 1.380 . S
C294 C295 1.170 . S
C295 C294 1.170 . S
C296 C297 1.170 . S
C296 C298 1.380 . S
C297 C296 1.170 . S
C298 C296 1.380 . S
C298 C299 1.170 . S
C299 C298 1.170 . S
C300 C301 1.170 . S
C300 C302 1.380 . S
C301 C300 1.170 . S
C302 C300 1.380 . S
C302 C303 1.170 . S
C303 C302 1.170 . S
C304 C305 1.170 . S
C304 C306 1.380 . S
C305 C304 1.170 . S
C306 C304 1.380 . S
C306 C307 1.170 . S
C307 C306 1.170 . S
C308 C309 1.170 . S
C308 C310 1.380 . S
C309 C308 1.170 . S
C310 C308 1.380 . S
C310 C311 1.170 . S
C311 C310 1.170 . S
C312 C313 1.170 . S
C312 C314 1.380 . S
C313 C312 1.170 . S
C314 C312 1.380 . S
C314 C315 1.170 . S
C315 C314 1.170 . S
C316 C317 1.170 . S
C316 C318 1.380 . S
C317 C316 1.170 . S
C318 C316 1.380 . S
C318 C319 1.170 . S
C319 C318 1.170 . S
C320 C321 1.170 1_554 S
C320 C322 1.380 1_545 S
C321 C320 1.170 1_556 S
C322 C320 1.380 1_565 S
C322 C323 1.170 . S
C323 C322 1.170 . S
C324 C325 1.170 . S
C324 C326 1.380 1_556 S
C325 C324 1.170 . S
C326 C324 1.380 1_554 S
C326 C327 1.170 . S
C327 C326 1.170 . S
C328 C329 1.170 1_556 S
C328 C330 1.380 1_655 S
C329 C328 1.170 1_554 S
C330 C328 1.380 1_455 S
C330 C331 1.170 . S
C331 C330 1.170 . S
C332 C333 1.170 . S
C332 C334 1.380 1_446 S
C333 C332 1.170 . S
C334 C332 1.380 1_664 S
C334 C335 1.170 . S
C335 C334 1.170 . S
C336 C337 1.170 . S
C336 C338 1.380 1_445 S
C337 C336 1.170 . S
C338 C336 1.380 1_665 S
C338 C339 1.170 . S
C339 C338 1.170 . S
C340 C341 1.170 . S
C340 C342 1.380 1_565 S
C341 C340 1.170 . S
C342 C340 1.380 1_545 S
C342 C343 1.170 . S
C343 C342 1.170 . S
C344 C345 1.170 . S
C344 C346 1.380 . S
C345 C344 1.170 . S
C346 C344 1.380 . S
C346 C347 1.170 . S
C347 C346 1.170 . S
C348 C349 1.170 . S
C348 C350 1.380 1_655 S
C349 C348 1.170 . S
C350 C348 1.380 1_455 S
C350 C351 1.170 . S
C351 C350 1.170 . S
C225 C79 0.569 . S
C227 C9 0.609 . S
C229 C93 0.608 . S
C231 C23 0.618 . S
C233 C37 0.488 . S
C235 C107 0.519 . S
C237 C51 0.505 . S
C239 C65 0.552 . S
C241 C121 0.513 . S
C243 C191 0.579 . S
C245 C205 0.609 . S
C247 C135 0.535 . S
C249 C219 0.506 . S
C251 C149 0.530 . S
C253 C163 0.544 . S
C255 C177 0.474 . S
C257 C8 1.644 1_565 S
C259 C175 1.532 . S
C261 C189 1.586 . S
C263 C22 1.714 . S
C265 C36 1.688 . S
C267 C203 1.617 . S
C269 C50 1.647 1_655 S
C271 C217 1.585 . S
C273 C64 1.647 1_545 S
C275 C119 1.585 . S
C277 C78 1.699 . S
C279 C133 1.587 . S
C281 C92 1.698 . S
C283 C147 1.618 . S
C285 C106 1.652 1_455 S
C287 C161 1.548 . S
C289 C63 1.533 . S
C291 C120 1.649 1_545 S
C293 C77 1.576 . S
C295 C134 1.714 . S
C297 C91 1.603 . S
C299 C148 1.692 . S
C301 C162 1.647 1_455 S
C303 C105 1.586 . S
C305 C7 1.556 . S
C307 C176 1.657 1_565 S
C309 C190 1.690 . S
C311 C21 1.621 . S
C313 C204 1.701 . S
C315 C35 1.609 . S
C317 C49 1.573 . S
C319 C218 1.637 1_655 S
C321 C115 1.671 . S
C323 C3 1.649 . S
C325 C129 1.699 . S
C327 C17 1.754 . S
C329 C31 1.835 . S
C331 C143 1.844 . S
C333 C157 1.742 . S
C335 C45 1.696 . S
C337 C59 1.722 . S
C339 C171 1.709 . S
C341 C185 1.823 . S
C343 C73 1.854 . S
C345 C199 1.703 . S
C347 C87 1.756 . S
C349 C213 1.683 . S
C351 C101 1.641 . S
