# Generated by pormake.
# Topology umv, (4)-cn, num edge types: 1
# Building blocks:
#     Node 0, Type 0, BuildingBlock: NAHDIM_clean_sbu_0, # of connection points: 4
#     Node 1, Type 0, BuildingBlock: NAHDIM_clean_sbu_0, # of connection points: 4
#     Node 2, Type 0, BuildingBlock: NAHDIM_clean_sbu_0, # of connection points: 4
#     Node 3, Type 0, BuildingBlock: NAHDIM_clean_sbu_0, # of connection points: 4
#     Node 4, Type 0, BuildingBlock: NAHDIM_clean_sbu_0, # of connection points: 4
#     Node 5, Type 0, BuildingBlock: NAHDIM_clean_sbu_0, # of connection points: 4
#     Node 6, Type 0, BuildingBlock: NAHDIM_clean_sbu_0, # of connection points: 4
#     Node 7, Type 0, BuildingBlock: NAHDIM_clean_sbu_0, # of connection points: 4
#     Node 8, Type 0, BuildingBlock: NAHDIM_clean_sbu_0, # of connection points: 4
#     Node 9, Type 0, BuildingBlock: NAHDIM_clean_sbu_0, # of connection points: 4
#     Node 10, Type 0, BuildingBlock: NAHDIM_clean_sbu_0, # of connection points: 4
#     Node 11, Type 0, BuildingBlock: NAHDIM_clean_sbu_0, # of connection points: 4
#     Node 12, Type 0, BuildingBlock: NAHDIM_clean_sbu_0, # of connection points: 4
#     Node 13, Type 0, BuildingBlock: NAHDIM_clean_sbu_0, # of connection points: 4
#     Node 14, Type 0, BuildingBlock: NAHDIM_clean_sbu_0, # of connection points: 4
#     Node 15, Type 0, BuildingBlock: NAHDIM_clean_sbu_0, # of connection points: 4
#     Node 16, Type 0, BuildingBlock: NAHDIM_clean_sbu_0, # of connection points: 4
#     Node 17, Type 0, BuildingBlock: NAHDIM_clean_sbu_0, # of connection points: 4
#     Node 18, Type 0, BuildingBlock: NAHDIM_clean_sbu_0, # of connection points: 4
#     Node 19, Type 0, BuildingBlock: NAHDIM_clean_sbu_0, # of connection points: 4
#     Node 20, Type 0, BuildingBlock: NAHDIM_clean_sbu_0, # of connection points: 4
#     Node 21, Type 0, BuildingBlock: NAHDIM_clean_sbu_0, # of connection points: 4
#     Node 22, Type 0, BuildingBlock: NAHDIM_clean_sbu_0, # of connection points: 4
#     Node 23, Type 0, BuildingBlock: NAHDIM_clean_sbu_0, # of connection points: 4
#     Node 24, Type 0, BuildingBlock: NAHDIM_clean_sbu_0, # of connection points: 4
#     Node 25, Type 0, BuildingBlock: NAHDIM_clean_sbu_0, # of connection points: 4
#     Node 26, Type 0, BuildingBlock: NAHDIM_clean_sbu_0, # of connection points: 4
#     Node 27, Type 0, BuildingBlock: NAHDIM_clean_sbu_0, # of connection points: 4
#     Node 28, Type 0, BuildingBlock: NAHDIM_clean_sbu_0, # of connection points: 4
#     Node 29, Type 0, BuildingBlock: NAHDIM_clean_sbu_0, # of connection points: 4
#     Node 30, Type 0, BuildingBlock: NAHDIM_clean_sbu_0, # of connection points: 4
#     Node 31, Type 0, BuildingBlock: NAHDIM_clean_sbu_0, # of connection points: 4
#     Edge 32, Type (0, 0), BuildingBlock: EZIPEK_clean_linker_0, # of connection points: 2
#     Edge 33, Type (0, 0), BuildingBlock: EZIPEK_clean_linker_0, # of connection points: 2
#     Edge 34, Type (0, 0), BuildingBlock: EZIPEK_clean_linker_0, # of connection points: 2
#     Edge 35, Type (0, 0), BuildingBlock: EZIPEK_clean_linker_0, # of connection points: 2
#     Edge 36, Type (0, 0), BuildingBlock: EZIPEK_clean_linker_0, # of connection points: 2
#     Edge 37, Type (0, 0), BuildingBlock: EZIPEK_clean_linker_0, # of connection points: 2
#     Edge 38, Type (0, 0), BuildingBlock: EZIPEK_clean_linker_0, # of connection points: 2
#     Edge 39, Type (0, 0), BuildingBlock: EZIPEK_clean_linker_0, # of connection points: 2
#     Edge 40, Type (0, 0), BuildingBlock: EZIPEK_clean_linker_0, # of connection points: 2
#     Edge 41, Type (0, 0), BuildingBlock: EZIPEK_clean_linker_0, # of connection points: 2
#     Edge 42, Type (0, 0), BuildingBlock: EZIPEK_clean_linker_0, # of connection points: 2
#     Edge 43, Type (0, 0), BuildingBlock: EZIPEK_clean_linker_0, # of connection points: 2
#     Edge 44, Type (0, 0), BuildingBlock: EZIPEK_clean_linker_0, # of connection points: 2
#     Edge 45, Type (0, 0), BuildingBlock: EZIPEK_clean_linker_0, # of connection points: 2
#     Edge 46, Type (0, 0), BuildingBlock: EZIPEK_clean_linker_0, # of connection points: 2
#     Edge 47, Type (0, 0), BuildingBlock: EZIPEK_clean_linker_0, # of connection points: 2
#     Edge 48, Type (0, 0), BuildingBlock: EZIPEK_clean_linker_0, # of connection points: 2
#     Edge 49, Type (0, 0), BuildingBlock: EZIPEK_clean_linker_0, # of connection points: 2
#     Edge 50, Type (0, 0), BuildingBlock: EZIPEK_clean_linker_0, # of connection points: 2
#     Edge 51, Type (0, 0), BuildingBlock: EZIPEK_clean_linker_0, # of connection points: 2
#     Edge 52, Type (0, 0), BuildingBlock: EZIPEK_clean_linker_0, # of connection points: 2
#     Edge 53, Type (0, 0), BuildingBlock: EZIPEK_clean_linker_0, # of connection points: 2
#     Edge 54, Type (0, 0), BuildingBlock: EZIPEK_clean_linker_0, # of connection points: 2
#     Edge 55, Type (0, 0), BuildingBlock: EZIPEK_clean_linker_0, # of connection points: 2
#     Edge 56, Type (0, 0), BuildingBlock: EZIPEK_clean_linker_0, # of connection points: 2
#     Edge 57, Type (0, 0), BuildingBlock: EZIPEK_clean_linker_0, # of connection points: 2
#     Edge 58, Type (0, 0), BuildingBlock: EZIPEK_clean_linker_0, # of connection points: 2
#     Edge 59, Type (0, 0), BuildingBlock: EZIPEK_clean_linker_0, # of connection points: 2
#     Edge 60, Type (0, 0), BuildingBlock: EZIPEK_clean_linker_0, # of connection points: 2
#     Edge 61, Type (0, 0), BuildingBlock: EZIPEK_clean_linker_0, # of connection points: 2
#     Edge 62, Type (0, 0), BuildingBlock: EZIPEK_clean_linker_0, # of connection points: 2
#     Edge 63, Type (0, 0), BuildingBlock: EZIPEK_clean_linker_0, # of connection points: 2
#     Edge 64, Type (0, 0), BuildingBlock: EZIPEK_clean_linker_0, # of connection points: 2
#     Edge 65, Type (0, 0), BuildingBlock: EZIPEK_clean_linker_0, # of connection points: 2
#     Edge 66, Type (0, 0), BuildingBlock: EZIPEK_clean_linker_0, # of connection points: 2
#     Edge 67, Type (0, 0), BuildingBlock: EZIPEK_clean_linker_0, # of connection points: 2
#     Edge 68, Type (0, 0), BuildingBlock: EZIPEK_clean_linker_0, # of connection points: 2
#     Edge 69, Type (0, 0), BuildingBlock: EZIPEK_clean_linker_0, # of connection points: 2
#     Edge 70, Type (0, 0), BuildingBlock: EZIPEK_clean_linker_0, # of connection points: 2
#     Edge 71, Type (0, 0), BuildingBlock: EZIPEK_clean_linker_0, # of connection points: 2
#     Edge 72, Type (0, 0), BuildingBlock: EZIPEK_clean_linker_0, # of connection points: 2
#     Edge 73, Type (0, 0), BuildingBlock: EZIPEK_clean_linker_0, # of connection points: 2
#     Edge 74, Type (0, 0), BuildingBlock: EZIPEK_clean_linker_0, # of connection points: 2
#     Edge 75, Type (0, 0), BuildingBlock: EZIPEK_clean_linker_0, # of connection points: 2
#     Edge 76, Type (0, 0), BuildingBlock: EZIPEK_clean_linker_0, # of connection points: 2
#     Edge 77, Type (0, 0), BuildingBlock: EZIPEK_clean_linker_0, # of connection points: 2
#     Edge 78, Type (0, 0), BuildingBlock: EZIPEK_clean_linker_0, # of connection points: 2
#     Edge 79, Type (0, 0), BuildingBlock: EZIPEK_clean_linker_0, # of connection points: 2
#     Edge 80, Type (0, 0), BuildingBlock: EZIPEK_clean_linker_0, # of connection points: 2
#     Edge 81, Type (0, 0), BuildingBlock: EZIPEK_clean_linker_0, # of connection points: 2
#     Edge 82, Type (0, 0), BuildingBlock: EZIPEK_clean_linker_0, # of connection points: 2
#     Edge 83, Type (0, 0), BuildingBlock: EZIPEK_clean_linker_0, # of connection points: 2
#     Edge 84, Type (0, 0), BuildingBlock: EZIPEK_clean_linker_0, # of connection points: 2
#     Edge 85, Type (0, 0), BuildingBlock: EZIPEK_clean_linker_0, # of connection points: 2
#     Edge 86, Type (0, 0), BuildingBlock: EZIPEK_clean_linker_0, # of connection points: 2
#     Edge 87, Type (0, 0), BuildingBlock: EZIPEK_clean_linker_0, # of connection points: 2
#     Edge 88, Type (0, 0), BuildingBlock: EZIPEK_clean_linker_0, # of connection points: 2
#     Edge 89, Type (0, 0), BuildingBlock: EZIPEK_clean_linker_0, # of connection points: 2
#     Edge 90, Type (0, 0), BuildingBlock: EZIPEK_clean_linker_0, # of connection points: 2
#     Edge 91, Type (0, 0), BuildingBlock: EZIPEK_clean_linker_0, # of connection points: 2
#     Edge 92, Type (0, 0), BuildingBlock: EZIPEK_clean_linker_0, # of connection points: 2
#     Edge 93, Type (0, 0), BuildingBlock: EZIPEK_clean_linker_0, # of connection points: 2
#     Edge 94, Type (0, 0), BuildingBlock: EZIPEK_clean_linker_0, # of connection points: 2
#     Edge 95, Type (0, 0), BuildingBlock: EZIPEK_clean_linker_0, # of connection points: 2
# Relax obj value: 0.136
# Max RMSD: 0.096
# Mean RMSD: 0.096
data_MOF--net-umv--node1-NAHDIM_clean_sbu_0--edge1-EZIPEK_clean_linker_0
_symmetry_space_group_name_H-M    P1
_symmetry_Int_Tables_number       1
_symmetry_cell_setting            triclinic
loop_
_symmetry_equiv_pos_as_xyz
'x, y, z'
_cell_length_a     71.166208
_cell_length_b     17.248437
_cell_length_c     58.123644
_cell_angle_alpha  89.969815
_cell_angle_beta   90.162337
_cell_angle_gamma 89.946846
loop_
_atom_site_label
_atom_site_type_symbol
_atom_site_fract_x
_atom_site_fract_y
_atom_site_fract_z
_atom_type_partial_charge
C0 C 0.0126 0.16174 0.27429 0.0
O1 O 0.00273 0.15814 0.29333 0.0
O2 O 0.02853 0.01406 0.31809 0.0
Zn3 Zn 0.03998 0.11206 0.30533 0.0
O4 O 0.03485 0.20317 0.32576 0.0
C5 C 0.0764 0.08474 0.32341 0.0
O6 O 0.06642 0.07596 0.34217 0.0
O7 O 0.02965 0.14025 0.27446 0.0
C8 C 0.04616 0.2599 0.32436 0.0
O9 O 0.06001 0.25725 0.3095 0.0
C10 C 0.02559 0.00854 0.33959 0.0
O11 O 0.02738 0.07007 0.35268 0.0
O12 O 0.06818 0.09883 0.30441 0.0
C13 C 0.22539 0.02967 0.29188 0.0
O14 O 0.23645 0.0483 0.30913 0.0
O15 O 0.20694 0.14665 0.34045 0.0
Zn16 Zn 0.1959 0.05303 0.32468 0.0
O17 O 0.19897 0.95856 0.34403 0.0
C18 C 0.15689 0.07671 0.33594 0.0
O19 O 0.16341 0.07903 0.35708 0.0
O20 O 0.20772 0.03097 0.29443 0.0
C21 C 0.19415 0.89407 0.33534 0.0
O22 O 0.18769 0.89136 0.31418 0.0
C23 C 0.20682 0.1498 0.3623 0.0
O24 O 0.20162 0.08868 0.37415 0.0
O25 O 0.16819 0.06846 0.31924 0.0
C26 C 0.02716 0.05568 0.96873 0.0
O27 O 0.01954 0.05898 0.94814 0.0
O28 O 0.05099 0.19271 0.92632 0.0
Zn29 Zn 0.05874 0.09444 0.94262 0.0
O30 O 0.05305 0.00363 0.92221 0.0
C31 C 0.09754 0.08962 0.93242 0.0
O32 O 0.09036 0.08035 0.91177 0.0
O33 O 0.04426 0.07471 0.9714 0.0
C34 C 0.06193 0.9401 0.92389 0.0
O35 O 0.07552 0.93313 0.93907 0.0
C36 C 0.04033 0.19185 0.90871 0.0
O37 O 0.03317 0.12608 0.90147 0.0
O38 O 0.08657 0.09885 0.9494 0.0
C39 C 0.24782 0.19488 0.94654 0.0
O40 O 0.25332 0.21315 0.92568 0.0
O41 O 0.22122 0.03595 0.90631 0.0
Zn42 Zn 0.21558 0.13591 0.92274 0.0
O43 O 0.2169 0.22291 0.89995 0.0
C44 C 0.17842 0.07288 0.93236 0.0
O45 O 0.18578 0.00567 0.92679 0.0
O46 O 0.23248 0.15879 0.94946 0.0
C47 C 0.20553 0.27935 0.9017 0.0
O48 O 0.19419 0.28337 0.91944 0.0
C49 C 0.2284 0.03467 0.88631 0.0
O50 O 0.23435 0.09924 0.87686 0.0
O51 O 0.18869 0.13295 0.93317 0.0
C52 C 0.9794 0.76066 0.7102 0.0
O53 O 0.96573 0.714 0.70398 0.0
O54 O 0.96758 0.94321 0.65675 0.0
Zn55 Zn 0.96456 0.83925 0.67254 0.0
O56 O 0.96824 0.75326 0.64988 0.0
C57 C 0.92513 0.87473 0.67922 0.0
O58 O 0.92934 0.9386 0.66812 0.0
O59 O 0.98222 0.8228 0.69897 0.0
C60 C 0.95662 0.7499 0.63332 0.0
O61 O 0.944 0.80471 0.63082 0.0
C62 C 0.97711 0.95231 0.63846 0.0
O63 O 0.98678 0.89395 0.63011 0.0
O64 O 0.93801 0.82658 0.68418 0.0
C65 C 0.77522 0.86863 0.7269 0.0
O66 O 0.76682 0.83995 0.70865 0.0
O67 O 0.79942 0.75481 0.6816 0.0
Zn68 Zn 0.80753 0.84888 0.69947 0.0
O69 O 0.80343 0.94305 0.68032 0.0
C70 C 0.84533 0.83588 0.68799 0.0
O71 O 0.83723 0.82597 0.66787 0.0
O72 O 0.79301 0.86943 0.72795 0.0
C73 C 0.80756 0.0084 0.68897 0.0
O74 O 0.81472 0.01192 0.70979 0.0
C75 C 0.78909 0.7613 0.66382 0.0
O76 O 0.78208 0.82913 0.65814 0.0
O77 O 0.83521 0.84391 0.70578 0.0
C78 C 0.98392 0.91799 0.04181 0.0
O79 O 0.99033 0.9002 0.06236 0.0
O80 O 0.95428 0.8024 0.08257 0.0
Zn81 Zn 0.94816 0.8956 0.06298 0.0
O82 O 0.94883 0.99106 0.08215 0.0
C83 C 0.90901 0.87972 0.0653 0.0
O84 O 0.91357 0.87494 0.08713 0.0
O85 O 0.96645 0.91391 0.03762 0.0
C86 C 0.94533 0.05461 0.07198 0.0
O87 O 0.94131 0.05459 0.04991 0.0
C88 C 0.96421 0.80493 0.1008 0.0
O89 O 0.97166 0.87081 0.10751 0.0
O90 O 0.92185 0.88687 0.05034 0.0
C91 C 0.75764 0.80416 0.03739 0.0
O92 O 0.75255 0.78845 0.05858 0.0
O93 O 0.78457 0.96522 0.07602 0.0
Zn94 Zn 0.78976 0.86308 0.06052 0.0
O95 O 0.78563 0.77857 0.08351 0.0
C96 C 0.82911 0.89837 0.06068 0.0
O97 O 0.82369 0.94974 0.07594 0.0
O98 O 0.77283 0.84076 0.03369 0.0
C99 C 0.79684 0.76684 0.10014 0.0
O100 O 0.81168 0.81091 0.10286 0.0
C101 C 0.7721 0.97202 0.09151 0.0
O102 O 0.7612 0.91302 0.09647 0.0
O103 O 0.81692 0.85672 0.05057 0.0
C104 C 0.02508 0.67835 0.78865 0.0
O105 O 0.03606 0.7317 0.79755 0.0
O106 O 0.04113 0.48887 0.83828 0.0
Zn107 Zn 0.04238 0.59598 0.824 0.0
O108 O 0.03709 0.6778 0.84754 0.0
C109 C 0.08241 0.57364 0.81533 0.0
O110 O 0.07946 0.50243 0.82242 0.0
O111 O 0.02494 0.61064 0.79727 0.0
C112 C 0.0477 0.67787 0.86513 0.0
O113 O 0.05939 0.62011 0.86848 0.0
C114 C 0.03173 0.47567 0.85645 0.0
O115 O 0.02121 0.53081 0.86518 0.0
O116 O 0.06871 0.6204 0.8135 0.0
C117 C 0.23109 0.58581 0.77898 0.0
O118 O 0.23836 0.58201 0.79975 0.0
O119 O 0.20741 0.75012 0.81668 0.0
Zn120 Zn 0.2 0.64651 0.80352 0.0
O121 O 0.20446 0.56466 0.82771 0.0
C122 C 0.16089 0.64456 0.81144 0.0
O123 O 0.16724 0.64713 0.83266 0.0
O124 O 0.21502 0.6162 0.776 0.0
C125 C 0.19492 0.50259 0.82864 0.0
O126 O 0.18172 0.48998 0.8133 0.0
C127 C 0.21908 0.75403 0.83325 0.0
O128 O 0.22742 0.69078 0.84063 0.0
O129 O 0.17251 0.64783 0.79495 0.0
C130 C 0.00477 0.5504 0.44645 0.0
O131 O -0.00089 0.53856 0.42521 0.0
O132 O 0.0317 0.72103 0.40944 0.0
Zn133 Zn 0.03636 0.61739 0.42445 0.0
O134 O 0.03329 0.53326 0.40104 0.0
C135 C 0.07663 0.64374 0.429 0.0
O136 O 0.07407 0.69734 0.41325 0.0
O137 O 0.01929 0.59105 0.45027 0.0
C138 C 0.04523 0.52313 0.38519 0.0
O139 O 0.05961 0.57014 0.38326 0.0
C140 C 0.02052 0.72611 0.39239 0.0
O141 O 0.01102 0.66486 0.38572 0.0
O142 O 0.06261 0.60724 0.43695 0.0
C143 C 0.22416 0.6325 0.46346 0.0
O144 O 0.22874 0.64661 0.44199 0.0
O145 O 0.19734 0.44902 0.4303 0.0
Zn146 Zn 0.19306 0.55849 0.44197 0.0
O147 O 0.1957 0.63842 0.41666 0.0
C148 C 0.15402 0.56348 0.43726 0.0
O149 O 0.15909 0.54315 0.41648 0.0
O150 O 0.21001 0.59027 0.46786 0.0
C151 C 0.19445 0.6277 0.39509 0.0
O152 O 0.19178 0.55796 0.38678 0.0
C153 C 0.21013 0.43209 0.41591 0.0
O154 O 0.22266 0.48465 0.41035 0.0
O155 O 0.16639 0.57011 0.45289 0.0
C156 C 0.97762 0.31671 0.19744 0.0
O157 O 0.9827 0.30755 0.1759 0.0
O158 O 0.95168 0.49989 0.16612 0.0
Zn159 Zn 0.94589 0.39097 0.17686 0.0
O160 O 0.94753 0.31288 0.15113 0.0
C161 C 0.90672 0.39704 0.17268 0.0
O162 O 0.91189 0.41616 0.15182 0.0
O163 O 0.96285 0.3548 0.20216 0.0
C164 C 0.94547 0.32529 0.12972 0.0
O165 O 0.94244 0.39569 0.122 0.0
C166 C 0.96401 0.5157 0.15104 0.0
O167 O 0.97506 0.46035 0.14346 0.0
O168 O 0.91915 0.38611 0.18805 0.0
C169 C 0.75986 0.43168 0.20841 0.0
O170 O 0.75421 0.45817 0.18838 0.0
O171 O 0.78079 0.2555 0.1667 0.0
Zn172 Zn 0.78786 0.35841 0.18084 0.0
O173 O 0.78393 0.44415 0.15799 0.0
C174 C 0.82717 0.3507 0.17227 0.0
O175 O 0.821 0.33751 0.15135 0.0
O176 O 0.77335 0.38352 0.20946 0.0
C177 C 0.79133 0.50925 0.1625 0.0
O178 O 0.80013 0.51905 0.18217 0.0
C179 C 0.77644 0.25187 0.14548 0.0
O180 O 0.77527 0.31574 0.13329 0.0
O181 O 0.81552 0.3594 0.18857 0.0
C182 C 0.97708 0.37631 0.52384 0.0
O183 O 0.98716 0.37009 0.54272 0.0
O184 O 0.95797 0.23577 0.56898 0.0
Zn185 Zn 0.94843 0.33396 0.55439 0.0
O186 O 0.95488 0.42529 0.57447 0.0
C187 C 0.91016 0.34172 0.56787 0.0
O188 O 0.9183 0.35693 0.58766 0.0
O189 O 0.95989 0.35722 0.52404 0.0
C190 C 0.9453 0.48737 0.57366 0.0
O191 O 0.93099 0.49239 0.55943 0.0
C192 C 0.96913 0.2361 0.58611 0.0
O193 O 0.97603 0.30196 0.59365 0.0
O194 O 0.92034 0.32621 0.55057 0.0
C195 C 0.76262 0.26791 0.55897 0.0
O196 O 0.75691 0.24203 0.57901 0.0
O197 O 0.78396 0.44597 0.5987 0.0
Zn198 Zn 0.79165 0.34133 0.58573 0.0
O199 O 0.78864 0.25971 0.60992 0.0
C200 C 0.82956 0.3848 0.56865 0.0
O201 O 0.82244 0.45146 0.56198 0.0
O202 O 0.77676 0.31255 0.55778 0.0
C203 C 0.79603 0.27074 0.62954 0.0
O204 O 0.80416 0.33702 0.63422 0.0
C205 C 0.79594 0.48941 0.60858 0.0
O206 O 0.81366 0.46881 0.60931 0.0
O207 O 0.81901 0.33427 0.57778 0.0
C208 C 0.53025 0.22343 0.77642 0.0
O209 O 0.53994 0.27208 0.78914 0.0
O210 O 0.5416 0.01635 0.82081 0.0
Zn211 Zn 0.54709 0.12118 0.80748 0.0
O212 O 0.54358 0.1995 0.83241 0.0
C213 C 0.58497 0.11646 0.81645 0.0
O214 O 0.57757 0.1039 0.83679 0.0
O215 O 0.53098 0.15123 0.78075 0.0
C216 C 0.52878 0.20506 0.8444 0.0
O217 O 0.51463 0.1579 0.84072 0.0
C218 C 0.52561 0.98509 0.82348 0.0
O219 O 0.51046 0.0192 0.8154 0.0
O220 O 0.57427 0.12469 0.79912 0.0
C221 C 0.7369 0.05839 0.79373 0.0
O222 O 0.74397 0.07197 0.81424 0.0
O223 O 0.71255 0.21162 0.83078 0.0
Zn224 Zn 0.70447 0.11182 0.8157 0.0
O225 O 0.70624 0.02281 0.83755 0.0
C226 C 0.6653 0.12951 0.82209 0.0
O227 O 0.67104 0.13727 0.84343 0.0
O228 O 0.72018 0.07928 0.78922 0.0
C229 C 0.69767 0.96193 0.83123 0.0
O230 O 0.68886 0.96122 0.81134 0.0
C231 C 0.71203 0.21592 0.85261 0.0
O232 O 0.70839 0.15363 0.86476 0.0
O233 O 0.67726 0.11989 0.80616 0.0
C234 C 0.51415 0.10461 0.45982 0.0
O235 O 0.50875 0.09635 0.43835 0.0
O236 O 0.53889 0.27345 0.42355 0.0
Zn237 Zn 0.54549 0.17032 0.43788 0.0
O238 O 0.54307 0.08244 0.41547 0.0
C239 C 0.58468 0.17418 0.43244 0.0
O240 O 0.57924 0.18824 0.41129 0.0
O241 O 0.52915 0.14137 0.46439 0.0
C242 C 0.54533 0.08145 0.39384 0.0
O243 O 0.5494 0.14518 0.38256 0.0
C244 C 0.5266 0.28163 0.40779 0.0
O245 O 0.51644 0.22184 0.40142 0.0
O246 O 0.57248 0.16851 0.44824 0.0
C247 C 0.72977 0.18887 0.47164 0.0
O248 O 0.734 0.2383 0.4553 0.0
O249 O 0.70765 0.0347 0.41991 0.0
Zn250 Zn 0.70381 0.13361 0.43779 0.0
O251 O 0.71101 0.22493 0.41837 0.0
C252 C 0.66366 0.10591 0.43505 0.0
O253 O 0.66858 0.04716 0.42204 0.0
O254 O 0.71775 0.13588 0.46792 0.0
C255 C 0.70317 0.23101 0.39885 0.0
O256 O 0.69201 0.17566 0.39155 0.0
C257 C 0.72078 0.02449 0.40548 0.0
O258 O 0.73383 0.07754 0.4029 0.0
O259 O 0.6762 0.14831 0.44421 0.0
C260 C 0.4605 0.82826 0.22323 0.0
O261 O 0.44937 0.7805 0.21206 0.0
O262 O 0.45324 0.02587 0.17379 0.0
Zn263 Zn 0.44618 0.92605 0.18916 0.0
O264 O 0.44979 0.84206 0.16623 0.0
C265 C 0.40843 0.92725 0.17799 0.0
O266 O 0.41634 0.93307 0.15768 0.0
O267 O 0.46141 0.89887 0.21703 0.0
C268 C 0.46543 0.82482 0.15725 0.0
O269 O 0.48072 0.86298 0.16282 0.0
C270 C 0.46936 0.05715 0.17302 0.0
O271 O 0.48365 0.0258 0.18395 0.0
O272 O 0.41865 0.92532 0.19593 0.0
C273 C 0.2564 0.92047 0.20638 0.0
O274 O 0.2475 0.91653 0.18658 0.0
O275 O 0.28379 0.80908 0.15903 0.0
Zn276 Zn 0.28924 0.9022 0.17868 0.0
O277 O 0.28505 -0.00178 0.16028 0.0
C278 C 0.32843 0.88811 0.17149 0.0
O279 O 0.32251 0.86929 0.15082 0.0
O280 O 0.27402 0.91012 0.20717 0.0
C281 C 0.2896 0.06299 0.16898 0.0
O282 O 0.29579 0.06596 0.19027 0.0
C283 C 0.27506 0.81557 0.14002 0.0
O284 O 0.26759 0.88231 0.13411 0.0
O285 O 0.31658 0.90213 0.18724 0.0
C286 C 0.47938 0.92482 0.53148 0.0
O287 O 0.48702 0.92341 0.55207 0.0
O288 O 0.45259 0.76353 0.56853 0.0
Zn289 Zn 0.44818 0.87173 0.55656 0.0
O290 O 0.45517 0.94942 0.58045 0.0
C291 C 0.40798 0.84245 0.55335 0.0
O292 O 0.41234 0.77105 0.55912 0.0
O293 O 0.46285 0.89907 0.52856 0.0
C294 C 0.44834 0.94799 0.60056 0.0
O295 O 0.43725 0.89111 0.60681 0.0
C296 C 0.46458 0.75164 0.5844 0.0
O297 O 0.47553 0.80849 0.59118 0.0
O298 O 0.42086 0.89214 0.55034 0.0
C299 C 0.2591 0.81135 0.53562 0.0
O300 O 0.2529 0.81065 0.55688 0.0
O301 O 0.27894 0.99325 0.56804 0.0
Zn302 Zn 0.28947 0.89182 0.55639 0.0
O303 O 0.28929 0.81241 0.58198 0.0
C304 C 0.3292 0.90572 0.55987 0.0
O305 O 0.32488 0.90544 0.58181 0.0
O306 O 0.27419 0.84688 0.53082 0.0
C307 C 0.30039 0.75469 0.58154 0.0
O308 O 0.31209 0.74692 0.56429 0.0
C309 C 0.2821 0.00951 0.58903 0.0
O310 O 0.29091 0.95927 0.60209 0.0
O311 O 0.31607 0.90608 0.54505 0.0
C312 C 0.50782 0.70965 0.29607 0.0
O313 O 0.50412 0.73099 0.31726 0.0
O314 O 0.53588 0.56925 0.33785 0.0
Zn315 Zn 0.54122 0.66221 0.31779 0.0
O316 O 0.54021 0.76303 0.33497 0.0
C317 C 0.58007 0.65341 0.32178 0.0
O318 O 0.5747 0.65136 0.34332 0.0
O319 O 0.52291 0.67293 0.2918 0.0
C320 C 0.54249 0.77391 0.35636 0.0
O321 O 0.54552 0.71534 0.37027 0.0
C322 C 0.52384 0.56437 0.35392 0.0
O323 O 0.51277 0.62343 0.35833 0.0
O324 O 0.56774 0.65462 0.30594 0.0
C325 C 0.72758 0.56908 0.28967 0.0
O326 O 0.73526 0.55535 0.30983 0.0
O327 O 0.70915 0.74 0.33041 0.0
Zn328 Zn 0.69956 0.63907 0.31748 0.0
O329 O 0.70481 0.55649 0.34073 0.0
C330 C 0.66013 0.69033 0.31829 0.0
O331 O 0.66633 0.75341 0.32834 0.0
O332 O 0.71251 0.60836 0.28836 0.0
C333 C 0.69664 0.49163 0.33856 0.0
O334 O 0.68514 0.47982 0.32121 0.0
C335 C 0.70551 0.75281 0.35147 0.0
O336 O 0.69577 0.70148 0.36312 0.0
O337 O 0.67161 0.63841 0.31184 0.0
C338 C 0.4978 0.58155 0.94715 0.0
O339 O 0.4895 0.5738 0.92709 0.0
O340 O 0.52422 0.71199 0.90222 0.0
Zn341 Zn 0.53064 0.61635 0.92034 0.0
O342 O 0.52707 0.52302 0.90064 0.0
C343 C 0.57021 0.59747 0.91616 0.0
O344 O 0.56533 0.57664 0.89526 0.0
O345 O 0.51484 0.60278 0.94829 0.0
C346 C 0.52987 0.45649 0.90929 0.0
O347 O 0.53448 0.45016 0.93111 0.0
C348 C 0.52734 0.71175 0.88068 0.0
O349 O 0.53377 0.64866 0.87082 0.0
O350 O 0.55772 0.61954 0.93027 0.0
C351 C 0.71875 0.66632 0.96053 0.0
O352 O 0.72675 0.67034 0.94024 0.0
O353 O 0.6957 0.50787 0.92038 0.0
Zn354 Zn 0.68887 0.61336 0.93294 0.0
O355 O 0.69555 0.69612 0.91025 0.0
C356 C 0.64964 0.56692 0.93289 0.0
O357 O 0.65637 0.49738 0.92888 0.0
O358 O 0.7022 0.63953 0.96231 0.0
C359 C 0.69055 0.69287 0.88931 0.0
O360 O 0.68166 0.63175 0.8815 0.0
C361 C 0.70823 0.4997 0.90502 0.0
O362 O 0.71862 0.5592 0.89906 0.0
O363 O 0.66081 0.62294 0.93662 0.0
C364 C 0.48447 0.33224 0.70095 0.0
O365 O 0.49089 0.31916 0.68015 0.0
O366 O 0.45768 0.46963 0.65767 0.0
Zn367 Zn 0.45266 0.37057 0.67485 0.0
O368 O 0.45897 0.28047 0.65471 0.0
C369 C 0.4141 0.35292 0.66452 0.0
O370 O 0.42132 0.34595 0.64391 0.0
O371 O 0.46808 0.36014 0.70349 0.0
C372 C 0.45164 0.21544 0.65929 0.0
O373 O 0.4416 0.20779 0.67809 0.0
C374 C 0.46589 0.46975 0.63826 0.0
O375 O 0.47257 0.40483 0.6298 0.0
O376 O 0.42486 0.3649 0.68167 0.0
C377 C 0.26474 0.43104 0.70138 0.0
O378 O 0.2558 0.42651 0.68163 0.0
O379 O 0.28589 0.28198 0.65882 0.0
Zn380 Zn 0.29515 0.37939 0.67407 0.0
O381 O 0.29187 0.46548 0.65173 0.0
C382 C 0.33322 0.34218 0.66436 0.0
O383 O 0.32542 0.31423 0.64563 0.0
O384 O 0.28171 0.40901 0.70279 0.0
C385 C 0.2998 0.53007 0.65541 0.0
O386 O 0.30893 0.54111 0.67481 0.0
C387 C 0.27432 0.28548 0.64214 0.0
O388 O 0.26676 0.35221 0.6364 0.0
O389 O 0.32295 0.37143 0.67996 0.0
C390 C 0.47556 0.49132 0.03764 0.0
O391 O 0.48092 0.54064 0.05354 0.0
O392 O 0.46728 0.32271 0.09138 0.0
Zn393 Zn 0.45733 0.41835 0.07578 0.0
O394 O 0.46546 0.50833 0.09515 0.0
C395 C 0.41835 0.36062 0.07602 0.0
O396 O 0.42549 0.29063 0.07769 0.0
O397 O 0.46609 0.43187 0.04322 0.0
C398 C 0.45482 0.56708 0.09681 0.0
O399 O 0.43901 0.56956 0.08512 0.0
C400 C 0.46079 0.31194 0.11148 0.0
O401 O 0.4484 0.36107 0.11969 0.0
O402 O 0.42913 0.41901 0.07487 0.0
C403 C 0.28019 0.3069 0.03109 0.0
O404 O 0.27761 0.26179 0.04899 0.0
O405 O 0.28602 0.50258 0.07501 0.0
Zn406 Zn 0.29892 0.40399 0.06442 0.0
O407 O 0.29372 0.31917 0.08727 0.0
C408 C 0.33796 0.40649 0.07936 0.0
O409 O 0.33055 0.40268 0.09996 0.0
O410 O 0.28878 0.37103 0.03346 0.0
C411 C 0.29304 0.329 0.10889 0.0
O412 O 0.29488 0.39882 0.11757 0.0
C413 C 0.29522 0.55458 0.0856 0.0
O414 O 0.31348 0.54751 0.08775 0.0
O415 O 0.32733 0.41287 0.0618 0.0
C416 C 0.10616 0.14561 0.33747 0.0
C417 C 0.09711 0.08521 0.3251 0.0
C418 C 0.12714 0.01736 0.32074 0.0
C419 C 0.13638 0.08031 0.33174 0.0
N420 N 0.13531 0.21006 0.34712 0.0
N421 N 0.09895 0.9691 0.30211 0.0
C422 C 0.12605 0.14595 0.33921 0.0
C423 C 0.10763 0.02307 0.31569 0.0
N424 N 0.09574 0.20242 0.34778 0.0
N425 N 0.13674 0.95019 0.31643 0.0
H426 H 0.08451 0.96901 0.29897 0.0
H427 H 0.1062 0.92766 0.2926 0.0
H428 H 0.15091 0.94269 0.32044 0.0
H429 H 0.13034 0.89929 0.31085 0.0
H430 H 0.10124 0.2418 0.35958 0.0
H431 H 0.08127 0.20773 0.34566 0.0
H432 H 0.12882 0.26308 0.35028 0.0
H433 H 0.14986 0.21246 0.34871 0.0
C434 C 0.14822 0.1303 0.91821 0.0
C435 C 0.15779 0.08125 0.93398 0.0
C436 C 0.12769 0.0397 0.95023 0.0
C437 C 0.11824 0.09216 0.93525 0.0
N438 N 0.11992 0.20301 0.91005 0.0
N439 N 0.15718 0.00171 0.96805 0.0
C440 C 0.12866 0.14236 0.92082 0.0
C441 C 0.14769 0.03966 0.95094 0.0
N442 N 0.15754 0.16208 0.89995 0.0
N443 N 0.11773 0.9874 0.96295 0.0
H444 H 0.17182 0.0006 0.96908 0.0
H445 H 0.1506 0.97732 0.98231 0.0
H446 H 0.10313 0.98624 0.96347 0.0
H447 H 0.12395 0.94157 0.97183 0.0
H448 H 0.15076 0.19158 0.88666 0.0
H449 H 0.17174 0.15239 0.89674 0.0
H450 H 0.12716 0.24579 0.90104 0.0
H451 H 0.1057 0.21545 0.91232 0.0
C452 C 0.89636 0.78967 0.67676 0.0
C453 C 0.90526 0.85822 0.68493 0.0
C454 C 0.8748 0.91054 0.69675 0.0
C455 C 0.86603 0.84094 0.68937 0.0
N456 N 0.86883 0.7072 0.67799 0.0
N457 N 0.90373 0.97327 0.70838 0.0
C458 C 0.87696 0.77817 0.68121 0.0
C459 C 0.8947 0.91528 0.69676 0.0
N460 N 0.90602 0.73774 0.66354 0.0
N461 N 0.86421 0.97381 0.70239 0.0
H462 H 0.91835 0.97735 0.70918 0.0
H463 H 0.89683 0.0122 0.71915 0.0
H464 H 0.84959 0.97351 0.70226 0.0
H465 H 0.86992 0.02857 0.70526 0.0
H466 H 0.89961 0.69202 0.65485 0.0
H467 H 0.92018 0.74347 0.6596 0.0
H468 H 0.87647 0.65721 0.6743 0.0
H469 H 0.85465 0.6967 0.68131 0.0
C470 C 0.88007 0.95083 0.05259 0.0
C471 C 0.88895 0.88016 0.05876 0.0
C472 C 0.85839 0.81621 0.06228 0.0
C473 C 0.84946 0.88743 0.05649 0.0
N474 N 0.85151 0.01512 0.03997 0.0
N475 N 0.88738 0.74191 0.06371 0.0
C476 C 0.86026 0.95239 0.04962 0.0
C477 C 0.87833 0.81154 0.06167 0.0
N478 N 0.8904 0.0173 0.05083 0.0
N479 N 0.84799 0.75456 0.06974 0.0
H480 H 0.902 0.73702 0.06335 0.0
H481 H 0.88051 0.68866 0.06361 0.0
H482 H 0.83338 0.75411 0.06987 0.0
H483 H 0.85384 0.70506 0.07712 0.0
H484 H 0.88447 0.07227 0.04929 0.0
H485 H 0.90498 0.01817 0.05236 0.0
H486 H 0.8587 0.06146 0.03263 0.0
H487 H 0.83701 0.01723 0.03727 0.0
C488 C 0.10945 0.66338 0.8238 0.0
C489 C 0.10185 0.60055 0.811 0.0
C490 C 0.13287 0.57382 0.79457 0.0
C491 C 0.14039 0.63677 0.80746 0.0
N492 N 0.13477 0.7561 0.82776 0.0
N493 N 0.10495 0.51093 0.77948 0.0
C494 C 0.12827 0.68642 0.81988 0.0
C495 C 0.11315 0.56049 0.79486 0.0
N496 N 0.09922 0.69783 0.84082 0.0
N497 N 0.14447 0.52419 0.78303 0.0
H498 H 0.0905 0.50078 0.77906 0.0
H499 H 0.11213 0.48603 0.76575 0.0
H500 H 0.15883 0.53302 0.7812 0.0
H501 H 0.13997 0.47154 0.77622 0.0
H502 H 0.10485 0.73784 0.85235 0.0
H503 H 0.08559 0.68147 0.84488 0.0
H504 H 0.12611 0.79806 0.83508 0.0
H505 H 0.14844 0.77532 0.82464 0.0
C506 C 0.10198 0.54235 0.43233 0.0
C507 C 0.09594 0.62029 0.43558 0.0
C508 C 0.12821 0.65931 0.44472 0.0
C509 C 0.13408 0.58146 0.44147 0.0
N510 N 0.12626 0.44627 0.43908 0.0
N511 N 0.10216 0.74773 0.45077 0.0
C512 C 0.12079 0.52212 0.43767 0.0
C513 C 0.10872 0.67719 0.44369 0.0
N514 N 0.09029 0.48876 0.42257 0.0
N515 N 0.14124 0.71671 0.44752 0.0
H516 H 0.08791 0.76208 0.45055 0.0
H517 H 0.11054 0.78901 0.45889 0.0
H518 H 0.1556 0.70583 0.44904 0.0
H519 H 0.13795 0.77552 0.44693 0.0
H520 H 0.09474 0.43405 0.4173 0.0
H521 H 0.07653 0.50068 0.41776 0.0
H522 H 0.11687 0.40001 0.43868 0.0
H523 H 0.14004 0.43009 0.44306 0.0
C524 C 0.87453 0.45163 0.17259 0.0
C525 C 0.88651 0.3883 0.17755 0.0
C526 C 0.85909 0.30571 0.18461 0.0
C527 C 0.84736 0.36558 0.17601 0.0
N528 N 0.84389 0.49363 0.1597 0.0
N529 N 0.89058 0.25247 0.18646 0.0
C530 C 0.85505 0.43829 0.16956 0.0
C531 C 0.87894 0.31477 0.18347 0.0
N532 N 0.88182 0.52479 0.17107 0.0
N533 N 0.85125 0.24 0.19355 0.0
H534 H 0.90518 0.25641 0.18579 0.0
H535 H 0.88579 0.1957 0.18799 0.0
H536 H 0.83677 0.23072 0.19397 0.0
H537 H 0.85897 0.19765 0.20219 0.0
H538 H 0.87357 0.5745 0.16965 0.0
H539 H 0.89606 0.53648 0.1736 0.0
H540 H 0.84908 0.544 0.15215 0.0
H541 H 0.8295 0.48651 0.15745 0.0
C542 C 0.88028 0.38646 0.54793 0.0
C543 C 0.88939 0.34536 0.56607 0.0
C544 C 0.85962 0.33677 0.58663 0.0
C545 C 0.85011 0.3704 0.56752 0.0
N546 N 0.8511 0.40679 0.52738 0.0
N547 N 0.88618 0.25984 0.59873 0.0
C548 C 0.86033 0.38909 0.54734 0.0
C549 C 0.87856 0.31357 0.58415 0.0
N550 N 0.89043 0.42656 0.53195 0.0
N551 N 0.85113 0.33106 0.60762 0.0
H552 H 0.89977 0.23816 0.59671 0.0
H553 H 0.87826 0.23023 0.61097 0.0
H554 H 0.8378 0.35294 0.61101 0.0
H555 H 0.85824 0.31298 0.62238 0.0
H556 H 0.88421 0.46383 0.52003 0.0
H557 H 0.90502 0.42913 0.53186 0.0
H558 H 0.85798 0.41361 0.5117 0.0
H559 H 0.83649 0.40596 0.52589 0.0
C560 C 0.63532 0.05475 0.82436 0.0
C561 C 0.645 0.12263 0.81732 0.0
C562 C 0.61516 0.18513 0.80729 0.0
C563 C 0.60559 0.11659 0.814 0.0
N564 N 0.60648 0.98038 0.82307 0.0
N565 N 0.64492 0.24643 0.79807 0.0
C566 C 0.61567 0.04956 0.82074 0.0
C567 C 0.63516 0.18572 0.8073 0.0
N568 N 0.64482 0.99595 0.83506 0.0
N569 N 0.60519 0.25087 0.80231 0.0
H570 H 0.65955 0.24988 0.79854 0.0
H571 H 0.63867 0.29039 0.78844 0.0
H572 H 0.59055 0.25277 0.80207 0.0
H573 H 0.61135 0.30501 0.79994 0.0
H574 H 0.63823 0.94965 0.84322 0.0
H575 H 0.65934 0.99579 0.8371 0.0
H576 H 0.61331 0.92769 0.8257 0.0
H577 H 0.59209 0.97433 0.82008 0.0
C578 C 0.63707 0.1993 0.4287 0.0
C579 C 0.64357 0.12678 0.43716 0.0
C580 C 0.61114 0.08612 0.44424 0.0
C581 C 0.6048 0.16041 0.43704 0.0
N582 N 0.61179 0.29337 0.42777 0.0
N583 N 0.63732 0.00815 0.45769 0.0
C584 C 0.61783 0.2189 0.43106 0.0
C585 C 0.63075 0.07235 0.44645 0.0
N586 N 0.64893 0.24729 0.41698 0.0
N587 N 0.59856 0.02734 0.44763 0.0
H588 H 0.65162 0.99659 0.45973 0.0
H589 H 0.62867 0.97044 0.46682 0.0
H590 H 0.58407 0.0344 0.44602 0.0
H591 H 0.60257 0.96989 0.45022 0.0
H592 H 0.64446 0.29685 0.4083 0.0
H593 H 0.66294 0.23361 0.41392 0.0
H594 H 0.62091 0.33999 0.42557 0.0
H595 H 0.59775 0.3097 0.42957 0.0
C596 C 0.35642 0.9695 0.18198 0.0
C597 C 0.3488 0.8961 0.17593 0.0
C598 C 0.38048 0.84163 0.17279 0.0
C599 C 0.38801 0.91439 0.17947 0.0
N600 N 0.38356 0.04262 0.19492 0.0
N601 N 0.35302 0.75876 0.17032 0.0
C602 C 0.37608 0.9766 0.18567 0.0
C603 C 0.36069 0.83102 0.17271 0.0
N604 N 0.34509 0.03348 0.18272 0.0
N605 N 0.39227 0.78311 0.16617 0.0
H606 H 0.33856 0.74884 0.17054 0.0
H607 H 0.36089 0.70787 0.17019 0.0
H608 H 0.40687 0.78698 0.16739 0.0
H609 H 0.38768 0.73222 0.15835 0.0
H610 H 0.35013 0.08987 0.1843 0.0
H611 H 0.33067 0.03125 0.17981 0.0
H612 H 0.37546 0.08668 0.2021 0.0
H613 H 0.39797 0.05069 0.19717 0.0
C614 C 0.35599 0.83984 0.53879 0.0
C615 C 0.34927 0.90056 0.55322 0.0
C616 C 0.38124 0.92623 0.56663 0.0
C617 C 0.38804 0.86646 0.55206 0.0
N618 N 0.38282 0.78168 0.51976 0.0
N619 N 0.35612 0.01704 0.57444 0.0
C620 C 0.37569 0.82809 0.53669 0.0
C621 C 0.36216 0.94897 0.56496 0.0
N622 N 0.34378 0.79047 0.52807 0.0
N623 N 0.39259 0.95781 0.58315 0.0
H624 H 0.34224 0.03613 0.57292 0.0
H625 H 0.3652 0.05812 0.58145 0.0
H626 H 0.40643 0.94038 0.58578 0.0
H627 H 0.38773 0.99575 0.59574 0.0
H628 H 0.34802 0.73906 0.52025 0.0
H629 H 0.32929 0.79782 0.52792 0.0
H630 H 0.37467 0.75868 0.50651 0.0
H631 H 0.3972 0.7724 0.51763 0.0
C632 C 0.62815 0.72951 0.30442 0.0
C633 C 0.63969 0.67625 0.31655 0.0
C634 C 0.61209 0.59753 0.32567 0.0
C635 C 0.60037 0.65674 0.31671 0.0
N636 N 0.597 0.78374 0.29959 0.0
N637 N 0.64244 0.5651 0.34176 0.0
C638 C 0.60829 0.72371 0.30636 0.0
C639 C 0.63166 0.61114 0.32781 0.0
N640 N 0.63615 0.78464 0.29069 0.0
N641 N 0.60447 0.528 0.33199 0.0
H642 H 0.65671 0.57446 0.34461 0.0
H643 H 0.63687 0.52207 0.35231 0.0
H644 H 0.59015 0.51602 0.33037 0.0
H645 H 0.61252 0.4799 0.33656 0.0
H646 H 0.62845 0.82001 0.27961 0.0
H647 H 0.65066 0.79011 0.28875 0.0
H648 H 0.60216 0.83768 0.29464 0.0
H649 H 0.58238 0.78199 0.30053 0.0
C650 C 0.61642 0.54038 0.94468 0.0
C651 C 0.62921 0.58137 0.9305 0.0
C652 C 0.60288 0.64562 0.91095 0.0
C653 C 0.59024 0.59662 0.9228 0.0
N654 N 0.58468 0.49261 0.94972 0.0
N655 N 0.63469 0.66585 0.89795 0.0
C656 C 0.59689 0.54312 0.93952 0.0
C657 C 0.62249 0.63277 0.91319 0.0
N658 N 0.62293 0.50054 0.96342 0.0
N659 N 0.59612 0.70549 0.89789 0.0
H660 H 0.64914 0.65727 0.89861 0.0
H661 H 0.63038 0.69639 0.8834 0.0
H662 H 0.5818 0.7168 0.89597 0.0
H663 H 0.60466 0.74831 0.89082 0.0
H664 H 0.61418 0.47601 0.97576 0.0
H665 H 0.63715 0.49806 0.96781 0.0
H666 H 0.58899 0.44606 0.95987 0.0
H667 H 0.57023 0.49378 0.94679 0.0
C668 C 0.36425 0.27423 0.66646 0.0
C669 C 0.35393 0.3445 0.66637 0.0
C670 C 0.38318 0.41866 0.66977 0.0
C671 C 0.39352 0.34901 0.66723 0.0
N672 N 0.39417 0.2112 0.65996 0.0
N673 N 0.35359 0.48396 0.66308 0.0
C674 C 0.38414 0.27687 0.66468 0.0
C675 C 0.36336 0.41697 0.66697 0.0
N676 N 0.35507 0.20509 0.66885 0.0
N677 N 0.39228 0.48669 0.6744 0.0
H678 H 0.33926 0.48458 0.65951 0.0
H679 H 0.35994 0.53783 0.66091 0.0
H680 H 0.40687 0.49104 0.67551 0.0
H681 H 0.38532 0.53757 0.6789 0.0
H682 H 0.36195 0.15247 0.67143 0.0
H683 H 0.3405 0.20107 0.67032 0.0
H684 H 0.38798 0.15887 0.65524 0.0
H685 H 0.40878 0.21027 0.65911 0.0
C686 C 0.37057 0.446 0.09022 0.0
C687 C 0.35854 0.39817 0.07691 0.0
C688 C 0.38599 0.33187 0.06083 0.0
C689 C 0.39775 0.37267 0.07641 0.0
N690 N 0.40055 0.45695 0.1095 0.0
N691 N 0.35469 0.28401 0.05316 0.0
C692 C 0.38988 0.42676 0.09208 0.0
C693 C 0.36618 0.33797 0.06311 0.0
N694 N 0.36366 0.51105 0.10063 0.0
N695 N 0.39364 0.28953 0.04333 0.0
H696 H 0.34012 0.2843 0.05493 0.0
H697 H 0.35977 0.23441 0.04504 0.0
H698 H 0.40808 0.28528 0.04061 0.0
H699 H 0.38562 0.26524 0.03016 0.0
H700 H 0.37221 0.5521 0.10861 0.0
H701 H 0.34966 0.52822 0.0992 0.0
H702 H 0.39495 0.49056 0.12271 0.0
H703 H 0.41455 0.44177 0.11227 0.0
C704 C -0.00057 0.15779 0.23435 0.0
C705 C 0.00476 0.20147 0.25393 0.0
C706 C 0.9954 0.32167 0.23452 0.0
C707 C 0.988 0.27721 0.21612 0.0
N708 N 0.98022 0.1521 0.19996 0.0
N709 N 0.00644 0.32396 0.27396 0.0
C710 C 0.98943 0.19499 0.21626 0.0
C711 C 0.00233 0.28318 0.25441 0.0
N712 N 0.00382 0.08072 0.23311 0.0
N713 N 0.99644 0.40059 0.23259 0.0
H714 H 0.01238 0.29866 0.28856 0.0
H715 H 0.00287 0.38197 0.2763 0.0
H716 H 0.9918 0.43059 0.21805 0.0
H717 H 0.00347 0.43576 0.24435 0.0
H718 H 0.00221 0.04788 0.2182 0.0
H719 H 0.01041 0.05073 0.24647 0.0
H720 H 0.97901 0.09199 0.20069 0.0
H721 H 0.97228 0.1766 0.18674 0.0
C722 C 0.2302 0.04587 0.24956 0.0
C723 C 0.23324 0.00203 0.26989 0.0
C724 C 0.24787 0.89829 0.2474 0.0
C725 C 0.24665 0.94556 0.22751 0.0
N726 N 0.2389 0.06863 0.20992 0.0
N727 N 0.24636 0.88972 0.28894 0.0
C728 C 0.23823 0.02021 0.22855 0.0
C729 C 0.24255 0.92924 0.26906 0.0
N730 N 0.21975 0.11242 0.25034 0.0
N731 N 0.25342 0.82264 0.24536 0.0
H732 H 0.24187 0.90808 0.30509 0.0
H733 H 0.25503 0.84115 0.28969 0.0
H734 H 0.25699 0.79768 0.22962 0.0
H735 H 0.25278 0.78256 0.25873 0.0
H736 H 0.2149 0.14118 0.23572 0.0
H737 H 0.21491 0.13686 0.26562 0.0
H738 H 0.23511 0.1269 0.21051 0.0
H739 H 0.24465 0.05284 0.19415 0.0
C740 C 0.01039 0.94168 0.98561 0.0
C741 C 0.01681 0.01929 0.9879 0.0
C742 C 0.00478 0.02417 0.02732 0.0
C743 C 0.99657 0.94986 0.02407 0.0
N744 N 0.99031 0.83914 -8e-05 0.0
N745 N 0.01821 0.13843 0.00948 0.0
C746 C -0.00101 0.90905 0.00312 0.0
C747 C 0.01368 0.06143 0.00846 0.0
N748 N 0.01593 0.89789 0.96721 0.0
N749 N 0.00397 0.05958 0.04834 0.0
H750 H 0.02455 0.16804 0.99591 0.0
H751 H 0.01428 0.17482 0.02292 0.0
H752 H 0.99648 0.03748 0.06224 0.0
H753 H 0.01168 0.10891 0.05252 0.0
H754 H 0.01349 0.83858 0.96584 0.0
H755 H 0.02447 0.91906 0.95411 0.0
H756 H 0.9894 0.81149 0.98403 0.0
H757 H 0.98309 0.81026 0.01295 0.0
C758 C 0.2539 0.30329 0.97394 0.0
C759 C 0.25778 0.22637 0.96675 0.0
C760 C 0.27915 0.20889 -0.00062 0.0
C761 C 0.27333 0.2818 0.00823 0.0
N762 N 0.25323 0.39444 0.00558 0.0
N763 N 0.27271 0.10282 0.97314 0.0
C764 C 0.26034 0.32851 0.99584 0.0
C765 C 0.27003 0.17822 0.97961 0.0
N766 N 0.244 0.35212 0.95987 0.0
N767 N 0.29388 0.17045 0.00937 0.0
H768 H 0.26689 0.07945 0.95818 0.0
H769 H 0.27968 0.06217 0.98332 0.0
H770 H 0.30129 0.19231 0.02345 0.0
H771 H 0.29995 0.12081 0.00241 0.0
H772 H 0.24253 0.41126 0.963 0.0
H773 H 0.23854 0.33493 0.94402 0.0
H774 H 0.24216 0.42604 -0.0015 0.0
H775 H 0.25718 0.41427 0.02182 0.0
C776 C 0.01061 0.72498 0.7272 0.0
C777 C 0.99121 0.74069 0.73028 0.0
C778 C 0.99368 0.70698 0.77116 0.0
C779 C 0.01334 0.69726 0.76845 0.0
N780 N 0.04112 0.70432 0.74484 0.0
N781 N 0.96469 0.75903 0.75545 0.0
C782 C 0.022 0.70875 0.74674 0.0
C783 C 0.98281 0.73467 0.75232 0.0
N784 N 0.01794 0.72178 0.70548 0.0
N785 N 0.9854 0.68971 0.79175 0.0
H786 H 0.95637 0.78087 0.74213 0.0
H787 H 0.95837 0.76408 0.7715 0.0
H788 H 0.993 0.67303 0.80631 0.0
H789 H 0.97092 0.68675 0.79405 0.0
H790 H 0.03145 0.7021 0.70187 0.0
H791 H 0.01003 0.73279 0.6907 0.0
H792 H 0.04846 0.72158 0.73024 0.0
H793 H 0.04988 0.68758 0.75838 0.0
C794 C 0.74915 0.03699 0.75398 0.0
C795 C 0.74722 0.01026 0.77691 0.0
C796 C 0.76416 0.89078 0.76715 0.0
C797 C 0.76457 0.91461 0.74383 0.0
N798 N 0.75543 0.00596 0.71419 0.0
N799 N 0.74964 0.90528 0.80445 0.0
C800 C 0.75631 0.98606 0.73695 0.0
C801 C 0.75394 0.93558 0.78336 0.0
N802 N 0.74516 0.1126 0.74876 0.0
N803 N 0.7735 0.82515 0.77383 0.0
H804 H 0.74159 0.93426 0.81666 0.0
H805 H 0.75239 0.84807 0.80909 0.0
H806 H 0.78003 0.78772 0.76223 0.0
H807 H 0.77579 0.81029 0.79098 0.0
H808 H 0.74814 0.13795 0.73292 0.0
H809 H 0.74054 0.15258 0.76096 0.0
H810 H 0.74731 0.05176 0.70801 0.0
H811 H 0.76202 0.97483 0.70115 0.0
C812 C 0.72924 0.7836 0.98229 0.0
C813 C 0.72808 0.70155 0.98064 0.0
C814 C 0.74714 0.68727 0.01548 0.0
C815 C 0.7473 0.7692 0.01796 0.0
N816 N 0.73652 0.89542 0.00605 0.0
N817 N 0.73336 0.57485 0.99695 0.0
C818 C 0.73786 0.81752 0.00195 0.0
C819 C 0.73618 0.65324 -0.00229 0.0
N820 N 0.72218 0.82899 0.96499 0.0
N821 N 0.75827 0.64226 0.02935 0.0
H822 H 0.72609 0.54749 0.98363 0.0
H823 H 0.73702 0.53745 0.0103 0.0
H824 H 0.76679 0.66488 0.04233 0.0
H825 H 0.76037 0.58317 0.02677 0.0
H826 H 0.7246 0.88835 0.96373 0.0
H827 H 0.71468 0.80676 0.95104 0.0
H828 H 0.72813 0.93291 0.99644 0.0
H829 H 0.7427 0.92213 0.02028 0.0
C830 C 0.24584 0.59041 0.74005 0.0
C831 C 0.24041 0.54656 0.75954 0.0
C832 C 0.252 0.4274 0.74142 0.0
C833 C 0.25599 0.47028 0.7212 0.0
N834 N 0.25544 0.59105 0.70009 0.0
N835 N 0.23563 0.42242 0.77785 0.0
C836 C 0.25245 0.55134 0.72013 0.0
C837 C 0.24288 0.46482 0.76008 0.0
N838 N 0.24548 0.66967 0.74102 0.0
N839 N 0.25691 0.35084 0.74279 0.0
H840 H 0.22887 0.44735 0.79189 0.0
H841 H 0.23494 0.36215 0.77794 0.0
H842 H 0.26241 0.31983 0.72895 0.0
H843 H 0.25662 0.31902 0.75801 0.0
H844 H 0.25115 0.70548 0.72842 0.0
H845 H 0.24093 0.7002 0.75547 0.0
H846 H 0.25096 0.64775 0.69731 0.0
H847 H 0.2615 0.56617 0.68556 0.0
C848 C 0.99668 0.4231 0.46482 0.0
C849 C 0.99665 0.50554 0.46561 0.0
C850 C 0.9862 0.50182 0.50563 0.0
C851 C 0.98437 0.42003 0.50401 0.0
N852 N 0.98507 0.30329 0.48124 0.0
N853 N 0.98824 0.62379 0.48513 0.0
C854 C 0.98862 0.38086 0.48328 0.0
C855 C 0.99056 0.54507 0.48559 0.0
N856 N 0.00553 0.38491 0.4473 0.0
N857 N 0.98396 0.5383 0.52631 0.0
H858 H 0.99094 0.65724 0.47055 0.0
H859 H 0.98194 0.65496 0.49838 0.0
H860 H 0.97988 0.5097 0.54128 0.0
H861 H 0.98744 0.59623 0.52903 0.0
H862 H 0.00769 0.32518 0.44721 0.0
H863 H 0.01247 0.41304 0.43392 0.0
H864 H 0.98584 0.27365 0.46565 0.0
H865 H 0.98005 0.26956 0.4948 0.0
C866 C 0.2305 0.75949 0.48258 0.0
C867 C 0.23294 0.67776 0.48214 0.0
C868 C 0.25046 0.68311 0.51844 0.0
C869 C 0.24954 0.7654 0.51767 0.0
N870 N 0.24055 0.88312 0.49807 0.0
N871 N 0.24682 0.56169 0.49777 0.0
C872 C 0.24017 0.80395 0.49939 0.0
C873 C 0.24325 0.63938 0.49965 0.0
N874 N 0.21816 0.79419 0.46768 0.0
N875 N 0.25823 0.64679 0.5371 0.0
H876 H 0.24171 0.52794 0.48424 0.0
H877 H 0.25598 0.53159 0.50853 0.0
H878 H 0.26453 0.67655 0.55068 0.0
H879 H 0.25742 0.58731 0.53995 0.0
H880 H 0.21421 0.85219 0.4688 0.0
H881 H 0.21043 0.76364 0.45541 0.0
H882 H 0.23607 0.91408 0.48368 0.0
H883 H 0.24644 0.9181 0.51082 0.0
C884 C 0.73287 0.44791 0.23544 0.0
C885 C 0.75179 0.46432 0.22967 0.0
C886 C 0.75418 0.55493 0.26205 0.0
C887 C 0.73575 0.53415 0.26879 0.0
N888 N 0.70855 0.4517 0.26448 0.0
N889 N 0.78142 0.52581 0.23875 0.0
C890 C 0.7253 0.47838 0.25614 0.0
C891 C 0.76277 0.51524 0.24344 0.0
N892 N 0.72211 0.40334 0.22109 0.0
N893 N 0.7631 0.61531 0.27272 0.0
H894 H 0.78811 0.50141 0.2246 0.0
H895 H 0.79064 0.55447 0.24977 0.0
H896 H 0.75715 0.64641 0.28626 0.0
H897 H 0.77566 0.63928 0.26696 0.0
H898 H 0.70762 0.3974 0.22278 0.0
H899 H 0.72746 0.37569 0.20656 0.0
H900 H 0.70135 0.4047 0.25752 0.0
H901 H 0.70251 0.47223 0.2796 0.0
C902 C 0.73482 0.26451 0.53248 0.0
C903 C 0.75348 0.24117 0.53758 0.0
C904 C 0.75627 0.17951 0.49977 0.0
C905 C 0.73745 0.20092 0.49493 0.0
N906 N 0.70762 0.25203 0.50752 0.0
N907 N 0.78063 0.16318 0.52863 0.0
C908 C 0.72631 0.23933 0.51164 0.0
C909 C 0.76384 0.19477 0.52194 0.0
N910 N 0.72563 0.31417 0.54695 0.0
N911 N 0.76699 0.14585 0.48302 0.0
H912 H 0.78649 0.17234 0.54488 0.0
H913 H 0.78799 0.12252 0.51896 0.0
H914 H 0.7616 0.13019 0.46696 0.0
H915 H 0.78142 0.13738 0.48449 0.0
H916 H 0.71289 0.34071 0.54295 0.0
H917 H 0.73138 0.33368 0.56242 0.0
H918 H 0.69828 0.2718 0.51996 0.0
H919 H 0.70104 0.23751 0.49207 0.0
C920 C 0.48827 0.25412 0.73711 0.0
C921 C 0.49574 0.30807 0.7211 0.0
C922 C 0.52636 0.30073 0.7402 0.0
C923 C 0.51836 0.25301 0.7575 0.0
N924 N 0.49062 0.19968 0.77535 0.0
N925 N 0.52066 0.39531 0.7102 0.0
C926 C 0.49898 0.23414 0.75684 0.0
C927 C 0.51444 0.33517 0.72347 0.0
N928 N 0.47141 0.21871 0.73298 0.0
N929 N 0.5454 0.31031 0.73907 0.0
H930 H 0.51218 0.42318 0.69808 0.0
H931 H 0.53355 0.42253 0.71283 0.0
H932 H 0.55473 0.28406 0.75054 0.0
H933 H 0.55207 0.33794 0.7254 0.0
H934 H 0.4664 0.17288 0.7429 0.0
H935 H 0.46329 0.22938 0.71837 0.0
H936 H 0.47613 0.192 0.77661 0.0
H937 H 0.49784 0.18606 0.79046 0.0
C938 C 0.488 0.0529 0.51451 0.0
C939 C 0.48819 0.97061 0.51306 0.0
C940 C 0.50619 0.97665 0.47735 0.0
C941 C 0.50497 0.05887 0.478 0.0
N942 N 0.49283 0.17581 0.49501 0.0
N943 N 0.49482 0.85362 0.49194 0.0
C944 C 0.49543 0.09727 0.49605 0.0
C945 C 0.49643 0.93231 0.49406 0.0
N946 N 0.48071 0.08854 0.53353 0.0
N947 N 0.51743 0.94111 0.46145 0.0
H948 H 0.48848 0.81886 0.50439 0.0
H949 H 0.49856 0.82328 0.47716 0.0
H950 H 0.52508 0.97137 0.44909 0.0
H951 H 0.52053 0.88212 0.46167 0.0
H952 H 0.48222 0.1474 0.53697 0.0
H953 H 0.47392 0.05867 0.5467 0.0
H954 H 0.48427 0.20663 0.50625 0.0
H955 H 0.49815 0.21001 0.48174 0.0
C956 C 0.46445 0.7578 0.26068 0.0
C957 C 0.4726 0.7984 0.24196 0.0
C958 C 0.50365 0.78603 0.25976 0.0
C959 C 0.49581 0.738 0.27709 0.0
N960 N 0.46931 0.66702 0.29197 0.0
N961 N 0.50052 0.83581 0.2211 0.0
C962 C 0.47634 0.72067 0.27698 0.0
C963 C 0.49237 0.80827 0.24074 0.0
N964 N 0.44538 0.75742 0.26346 0.0
N965 N 0.52156 0.81373 0.26194 0.0
H966 H 0.49287 0.85099 0.20647 0.0
H967 H 0.515 0.83609 0.21852 0.0
H968 H 0.5302 0.80138 0.27598 0.0
H969 H 0.52717 0.85554 0.25098 0.0
H970 H 0.43879 0.73551 0.27806 0.0
H971 H 0.43619 0.78578 0.25225 0.0
H972 H 0.45559 0.64614 0.29108 0.0
H973 H 0.47766 0.63788 0.30396 0.0
C974 C 0.47274 0.58277 0.00449 0.0
C975 C 0.47878 0.50988 0.01317 0.0
C976 C 0.49134 0.47671 0.97536 0.0
C977 C 0.48859 0.5545 0.96829 0.0
N978 N 0.47725 0.68348 0.97594 0.0
N979 N 0.49536 0.38906 0.0075 0.0
C980 C 0.47935 0.60813 0.98276 0.0
C981 C 0.48829 0.45663 -0.00129 0.0
N982 N 0.46008 0.62614 0.01659 0.0
N983 N 0.49674 0.42211 0.95969 0.0
H984 H 0.49378 0.37271 0.02465 0.0
H985 H 0.50418 0.35232 -0.00173 0.0
H986 H 0.49853 0.435 0.94232 0.0
H987 H 0.49741 0.36308 0.96338 0.0
H988 H 0.45397 0.67671 0.01022 0.0
H989 H 0.45409 0.60694 0.03191 0.0
H990 H 0.47263 0.72732 0.98688 0.0
H991 H 0.48117 0.70293 0.95964 0.0
C992 C 0.04085 0.4668 0.34611 0.0
C993 C 0.04376 0.45528 0.36997 0.0
C994 C 0.04574 0.31482 0.36431 0.0
C995 C 0.04451 0.32677 0.34013 0.0
N996 N 0.04197 0.4136 0.30759 0.0
N997 N 0.05038 0.37086 0.40212 0.0
C998 C 0.04238 0.40268 0.3309 0.0
C999 C 0.04631 0.3799 0.37923 0.0
N1000 N 0.03588 0.53872 0.33817 0.0
N1001 N 0.04669 0.24131 0.37308 0.0
H1002 H 0.05034 0.41637 0.41389 0.0
H1003 H 0.05498 0.31912 0.40943 0.0
H1004 H 0.04869 0.19223 0.36301 0.0
H1005 H 0.0447 0.22813 0.39037 0.0
H1006 H 0.03157 0.54985 0.32137 0.0
H1007 H 0.03453 0.58685 0.34891 0.0
H1008 H 0.04292 0.46771 0.29975 0.0
H1009 H 0.04165 0.36823 0.29578 0.0
C1010 C 0.17975 0.75127 0.3816 0.0
C1011 C 0.19421 0.695 0.37945 0.0
C1012 C 0.20698 0.76395 0.34614 0.0
C1013 C 0.19377 0.82419 0.34989 0.0
N1014 N 0.16823 0.87907 0.37177 0.0
N1015 N 0.22302 0.65163 0.36187 0.0
C1016 C 0.1804 0.81912 0.36787 0.0
C1017 C 0.20817 0.70203 0.36221 0.0
N1018 N 0.16485 0.73789 0.39587 0.0
N1019 N 0.21828 0.76571 0.32717 0.0
H1020 H 0.22446 0.60594 0.37351 0.0
H1021 H 0.23471 0.65863 0.35135 0.0
H1022 H 0.21808 0.81111 0.31533 0.0
H1023 H 0.22677 0.71961 0.32213 0.0
H1024 H 0.15282 0.77223 0.39628 0.0
H1025 H 0.16366 0.68831 0.40594 0.0
H1026 H 0.15998 0.88369 0.38648 0.0
H1027 H 0.16701 0.92668 0.36084 0.0
C1028 C 0.05109 0.80303 0.91837 0.0
C1029 C 0.05712 0.87447 0.90865 0.0
C1030 C 0.05618 0.81756 0.87003 0.0
C1031 C 0.0493 0.7475 0.87967 0.0
N1032 N 0.03687 0.67701 0.91195 0.0
N1033 N 0.06288 0.95385 0.87503 0.0
C1034 C 0.04582 0.74121 0.90357 0.0
C1035 C 0.05869 0.8832 0.88441 0.0
N1036 N 0.05052 0.79391 0.94174 0.0
N1037 N 0.06158 0.82008 0.84745 0.0
H1038 H 0.0667 0.00213 0.88469 0.0
H1039 H 0.0615 0.96609 0.85756 0.0
H1040 H 0.06005 0.77381 0.8361 0.0
H1041 H 0.06907 0.86588 0.84028 0.0
H1042 H 0.04861 0.74062 0.9498 0.0
H1043 H 0.05295 0.83888 0.95332 0.0
H1044 H 0.03206 0.67205 0.92878 0.0
H1045 H 0.0327 0.63097 0.90149 0.0
C1046 C 0.19945 0.47083 0.87054 0.0
C1047 C 0.1983 0.44569 0.84728 0.0
C1048 C 0.20046 0.31065 0.86 0.0
C1049 C 0.20376 0.33637 0.88285 0.0
N1050 N 0.21034 0.44158 0.90902 0.0
N1051 N 0.20198 0.34209 0.81958 0.0
C1052 C 0.20444 0.4167 0.88788 0.0
C1053 C 0.20006 0.36571 0.8419 0.0
N1054 N 0.19476 0.54515 0.87637 0.0
N1055 N 0.19671 0.23431 0.85559 0.0
H1056 H 0.20206 0.38019 0.80568 0.0
H1057 H 0.20539 0.28535 0.81506 0.0
H1058 H 0.19616 0.19186 0.86832 0.0
H1059 H 0.1922 0.21444 0.83957 0.0
H1060 H 0.1935 0.5637 0.89335 0.0
H1061 H 0.19015 0.58627 0.86451 0.0
H1062 H 0.21301 0.49963 0.91275 0.0
H1063 H 0.21437 0.40375 0.92212 0.0
C1064 C 0.95819 0.68988 0.59439 0.0
C1065 C 0.95576 0.68097 0.6184 0.0
C1066 C 0.94948 0.5424 0.61336 0.0
C1067 C 0.94981 0.55306 0.58909 0.0
N1068 N 0.95297 0.63828 0.55622 0.0
N1069 N 0.94634 0.60245 0.65078 0.0
C1070 C 0.95372 0.62723 0.57951 0.0
C1071 C 0.9509 0.60807 0.62797 0.0
N1072 N 0.96537 0.75761 0.58589 0.0
N1073 N 0.94752 0.46995 0.62262 0.0
H1074 H 0.94706 0.64886 0.66221 0.0
H1075 H 0.94026 0.55342 0.65809 0.0
H1076 H 0.94471 0.42048 0.613 0.0
H1077 H 0.94987 0.45782 0.63995 0.0
H1078 H 0.96947 0.76505 0.56885 0.0
H1079 H 0.96887 0.80459 0.59635 0.0
H1080 H 0.95325 0.69272 0.54848 0.0
H1081 H 0.95103 0.59349 0.54445 0.0
C1082 C 0.81597 0.08441 0.65395 0.0
C1083 C 0.80572 0.07904 0.67482 0.0
C1084 C 0.78875 0.19887 0.66566 0.0
C1085 C 0.79915 0.2046 0.64502 0.0
N1086 N 0.82486 0.16262 0.62107 0.0
N1087 N 0.78516 0.13764 0.70291 0.0
C1088 C 0.81336 0.14995 0.63954 0.0
C1089 C 0.79301 0.13846 0.68147 0.0
N1090 N 0.82829 0.02691 0.64799 0.0
N1091 N 0.77433 0.24955 0.6697 0.0
H1092 H 0.78739 0.09331 0.71477 0.0
H1093 H 0.77751 0.18367 0.7097 0.0
H1094 H 0.77101 0.29509 0.65858 0.0
H1095 H 0.76477 0.24343 0.68309 0.0
H1096 H 0.83414 0.02131 0.63169 0.0
H1097 H 0.8323 0.98267 0.6592 0.0
H1098 H 0.8369 0.13037 0.61766 0.0
H1099 H 0.82321 0.20925 0.60983 0.0
C1100 C 0.95888 0.25 0.09687 0.0
C1101 C 0.94475 0.25893 0.1138 0.0
C1102 C 0.93054 0.13528 0.10263 0.0
C1103 C 0.94442 0.12717 0.08531 0.0
N1104 N 0.96964 0.18199 0.06288 0.0
N1105 N 0.9151 0.21945 0.13006 0.0
C1106 C 0.95786 0.18643 0.08138 0.0
C1107 C 0.93001 0.20407 0.11597 0.0
N1108 N 0.97378 0.30006 0.09636 0.0
N1109 N 0.91782 0.07715 0.10629 0.0
H1110 H 0.91413 0.26948 0.14 0.0
H1111 H 0.90291 0.18623 0.13058 0.0
H1112 H 0.91649 0.02933 0.09547 0.0
H1113 H 0.90908 0.07438 0.12059 0.0
H1114 H 0.98566 0.29162 0.08627 0.0
H1115 H 0.97499 0.34748 0.10739 0.0
H1116 H 0.97832 0.22719 0.05764 0.0
H1117 H 0.9698 0.13514 0.05158 0.0
C1118 C 0.79799 0.5617 0.12296 0.0
C1119 C 0.79081 0.57306 0.14553 0.0
C1120 C 0.78731 0.71212 0.13811 0.0
C1121 C 0.7939 0.70009 0.11541 0.0
N1122 N 0.80214 0.61309 0.08453 0.0
N1123 N 0.77454 0.65446 0.17273 0.0
C1124 C 0.79805 0.62465 0.10727 0.0
C1125 C 0.78431 0.64708 0.1526 0.0
N1126 N 0.80589 0.49239 0.11689 0.0
N1127 N 0.78403 0.78575 0.14584 0.0
H1128 H 0.77155 0.60756 0.18345 0.0
H1129 H 0.76783 0.7053 0.17778 0.0
H1130 H 0.78493 0.83443 0.13526 0.0
H1131 H 0.78146 0.79915 0.16301 0.0
H1132 H 0.81358 0.48419 0.10188 0.0
H1133 H 0.80615 0.44413 0.12757 0.0
H1134 H 0.80288 0.55841 0.077 0.0
H1135 H 0.80342 0.6581 0.07266 0.0
C1136 C 0.54263 0.26884 0.879 0.0
C1137 C 0.52785 0.26427 0.86264 0.0
C1138 C 0.51249 0.37538 0.88066 0.0
C1139 C 0.52872 0.38731 0.89444 0.0
N1140 N 0.56089 0.35305 0.90351 0.0
N1141 N 0.50013 0.32135 0.84539 0.0
C1142 C 0.54423 0.33587 0.89291 0.0
C1143 C 0.51305 0.31936 0.86284 0.0
N1144 N 0.55491 0.20851 0.88162 0.0
N1145 N 0.49641 0.4162 0.88491 0.0
H1146 H 0.50031 0.28309 0.83152 0.0
H1147 H 0.49031 0.36576 0.84352 0.0
H1148 H 0.49532 0.45634 0.89823 0.0
H1149 H 0.48366 0.40431 0.87681 0.0
H1150 H 0.56483 0.206 0.89483 0.0
H1151 H 0.55387 0.1573 0.87219 0.0
H1152 H 0.57315 0.32127 0.90083 0.0
H1153 H 0.56308 0.40339 0.91303 0.0
C1154 C 0.68422 0.83225 0.88123 0.0
C1155 C 0.69273 0.76153 0.87454 0.0
C1156 C 0.70358 0.82095 0.83874 0.0
C1157 C 0.69664 0.89368 0.84651 0.0
N1158 N 0.6827 0.97109 0.87681 0.0
N1159 N 0.71296 0.69023 0.84893 0.0
C1160 C 0.68783 0.90026 0.86834 0.0
C1161 C 0.70305 0.75615 0.8538 0.0
N1162 N 0.67168 0.8336 0.89905 0.0
N1163 N 0.7106 0.81347 0.81698 0.0
H1164 H 0.71292 0.64151 0.85955 0.0
H1165 H 0.72249 0.68593 0.83542 0.0
H1166 H 0.71238 0.86004 0.80578 0.0
H1167 H 0.71365 0.76021 0.80943 0.0
H1168 H 0.66334 0.88148 0.90293 0.0
H1169 H 0.66807 0.78459 0.90857 0.0
H1170 H 0.67859 0.97976 0.8938 0.0
H1171 H 0.6837 0.02239 0.86753 0.0
C1172 C 0.55976 0.89774 0.36268 0.0
C1173 C 0.54307 0.85368 0.36516 0.0
C1174 C 0.52701 0.96522 0.38201 0.0
C1175 C 0.54424 0.0064 0.38187 0.0
N1176 N 0.57767 0.0096 0.37496 0.0
N1177 N 0.51128 0.841 0.37886 0.0
C1178 C 0.56079 0.97245 0.37278 0.0
C1179 C 0.5268 0.88612 0.37533 0.0
N1180 N 0.57459 0.86828 0.35058 0.0
N1181 N 0.51076 0.00276 0.3878 0.0
H1182 H 0.51042 0.78346 0.37344 0.0
H1183 H 0.49975 0.85867 0.38852 0.0
H1184 H 0.51041 0.06141 0.39214 0.0
H1185 H 0.49746 0.97824 0.38624 0.0
H1186 H 0.58623 0.90102 0.34581 0.0
H1187 H 0.57473 0.81229 0.34384 0.0
H1188 H 0.59053 0.98368 0.37126 0.0
H1189 H 0.57907 0.06467 0.38212 0.0
C1190 C 0.69431 0.36995 0.3928 0.0
C1191 C 0.70454 0.30362 0.38559 0.0
C1192 C 0.71092 0.36351 0.34832 0.0
C1193 C 0.70031 0.42913 0.35522 0.0
N1194 N 0.6848 0.50254 0.385 0.0
N1195 N 0.72705 0.24596 0.36009 0.0
C1196 C 0.69303 0.435 0.37786 0.0
C1197 C 0.71418 0.30296 0.36436 0.0
N1198 N 0.68517 0.36933 0.41347 0.0
N1199 N 0.71772 0.35888 0.32638 0.0
H1200 H 0.73046 0.2039 0.37231 0.0
H1201 H 0.73575 0.24496 0.34574 0.0
H1202 H 0.71668 0.40423 0.31457 0.0
H1203 H 0.72357 0.30878 0.31944 0.0
H1204 H 0.6754 0.41093 0.41843 0.0
H1205 H 0.68669 0.32488 0.42548 0.0
H1206 H 0.68113 0.51389 0.40198 0.0
H1207 H 0.68262 0.54993 0.37418 0.0
C1208 C 0.46426 0.6202 0.1354 0.0
C1209 C 0.46013 0.63272 0.11174 0.0
C1210 C 0.46095 0.77286 0.11766 0.0
C1211 C 0.46608 0.7602 0.14091 0.0
N1212 N 0.47668 0.67392 0.17085 0.0
N1213 N 0.45967 0.71982 0.07921 0.0
C1214 C 0.46924 0.6844 0.14936 0.0
C1215 C 0.46006 0.70881 0.10249 0.0
N1216 N 0.46211 0.54832 0.14494 0.0
N1217 N 0.45622 0.84555 0.11027 0.0
H1218 H 0.45967 0.67399 0.06754 0.0
H1219 H 0.46138 0.77388 0.0715 0.0
H1220 H 0.45678 0.89405 0.12092 0.0
H1221 H 0.45035 0.85664 0.09416 0.0
H1222 H 0.46304 0.53775 0.16255 0.0
H1223 H 0.45755 0.50029 0.13565 0.0
H1224 H 0.48098 0.6201 0.17709 0.0
H1225 H 0.48015 0.72005 0.18166 0.0
C1226 C 0.27883 0.19649 0.15809 0.0
C1227 C 0.29077 0.13206 0.15408 0.0
C1228 C 0.30553 0.20032 0.12192 0.0
C1229 C 0.29215 0.26098 0.12431 0.0
N1230 N 0.26399 0.31084 0.14203 0.0
N1231 N 0.31446 0.06864 0.13096 0.0
C1232 C 0.27827 0.25772 0.14176 0.0
C1233 C 0.30372 0.1326 0.13554 0.0
N1234 N 0.2681 0.19946 0.17753 0.0
N1235 N 0.32065 0.209 0.10766 0.0
H1236 H 0.31507 0.0203 0.14166 0.0
H1237 H 0.32202 0.06162 0.11579 0.0
H1238 H 0.32287 0.25771 0.09749 0.0
H1239 H 0.33204 0.17107 0.10744 0.0
H1240 H 0.26067 0.24858 0.1826 0.0
H1241 H 0.26785 0.15508 0.18967 0.0
H1242 H 0.25238 0.3066 0.15282 0.0
H1243 H 0.26275 0.35528 0.12995 0.0
C1244 C 0.4466 0.15655 0.62027 0.0
C1245 C 0.45341 0.14948 0.6432 0.0
C1246 C 0.45944 0.0109 0.63692 0.0
C1247 C 0.45032 0.01676 0.6153 0.0
N1248 N 0.43215 0.09156 0.588 0.0
N1249 N 0.46675 0.07113 0.67357 0.0
C1250 C 0.44318 0.08861 0.60733 0.0
C1251 C 0.45995 0.07682 0.6516 0.0
N1252 N 0.44348 0.22763 0.61054 0.0
N1253 N 0.46816 0.94317 0.643 0.0
H1254 H 0.46929 0.11936 0.68395 0.0
H1255 H 0.46939 0.01867 0.68183 0.0
H1256 H 0.46797 0.89382 0.63264 0.0
H1257 H 0.47671 0.93711 0.65744 0.0
H1258 H 0.44073 0.23518 0.59306 0.0
H1259 H 0.44548 0.28 0.61893 0.0
H1260 H 0.42449 0.14047 0.58317 0.0
H1261 H 0.42905 0.04331 0.57791 0.0
C1262 C 0.30441 0.56439 0.61396 0.0
C1263 C 0.30051 0.58846 0.63681 0.0
C1264 C 0.30004 0.723 0.62383 0.0
C1265 C 0.30052 0.69756 0.60058 0.0
N1266 N 0.2989 0.59018 0.57377 0.0
N1267 N 0.29095 0.69109 0.66265 0.0
C1268 C 0.30146 0.6171 0.59566 0.0
C1269 C 0.29723 0.66792 0.64156 0.0
N1270 N 0.31188 0.49281 0.6097 0.0
N1271 N 0.30342 0.79872 0.62921 0.0
H1272 H 0.28821 0.65265 0.67605 0.0
H1273 H 0.28665 0.74776 0.66601 0.0
H1274 H 0.30741 0.83937 0.61694 0.0
H1275 H 0.30474 0.81845 0.64608 0.0
H1276 H 0.31635 0.47566 0.59341 0.0
H1277 H 0.31582 0.45454 0.62274 0.0
H1278 H 0.29775 0.53128 0.56999 0.0
H1279 H 0.29584 0.62608 0.55984 0.0
C1280 C 0.00539 0.84651 0.37658 0.0
C1281 C 0.02103 0.79561 0.37746 0.0
C1282 C 0.03802 0.87674 0.34973 0.0
C1283 C 0.02314 0.93177 0.35062 0.0
N1284 N 0.99279 0.97137 0.36471 0.0
N1285 N 0.05238 0.76107 0.36559 0.0
C1286 C 0.00681 0.91707 0.36394 0.0
C1287 C 0.03732 0.81021 0.3641 0.0
N1288 N 0.98917 0.82693 0.38775 0.0
N1289 N 0.05287 0.88771 0.33516 0.0
H1290 H 0.05189 0.70843 0.37427 0.0
H1291 H 0.06569 0.7736 0.35925 0.0
H1292 H 0.05493 0.93765 0.3255 0.0
H1293 H 0.06277 0.84525 0.33137 0.0
H1294 H 0.97656 0.85695 0.38601 0.0
H1295 H 0.98794 0.77729 0.39789 0.0
H1296 H 0.98156 0.9694 0.37611 0.0
H1297 H 0.99271 0.02079 0.35435 0.0
C1298 C 0.19411 0.34462 0.38737 0.0
C1299 C 0.2093 0.35818 0.40279 0.0
C1300 C 0.22352 0.23438 0.39106 0.0
C1301 C 0.20908 0.22483 0.37439 0.0
N1302 N 0.18312 0.28068 0.35306 0.0
N1303 N 0.23954 0.3201 0.41787 0.0
C1304 C 0.19524 0.28309 0.37135 0.0
C1305 C 0.2244 0.30438 0.40411 0.0
N1306 N 0.17815 0.3885 0.38839 0.0
N1307 N 0.23628 0.17621 0.39453 0.0
H1308 H 0.24009 0.3679 0.42883 0.0
H1309 H 0.25195 0.2881 0.41762 0.0
H1310 H 0.23681 0.12669 0.38425 0.0
H1311 H 0.24577 0.17512 0.40819 0.0
H1312 H 0.16583 0.37453 0.37961 0.0
H1313 H 0.17638 0.43411 0.39973 0.0
H1314 H 0.17463 0.32737 0.34837 0.0
H1315 H 0.18249 0.23543 0.34128 0.0
C1316 C 0.01771 0.35816 0.87544 0.0
C1317 C 0.03388 0.40103 0.86894 0.0
C1318 C 0.05402 0.30011 0.88557 0.0
C1319 C 0.03794 0.26296 0.89473 0.0
N1320 N 0.00448 0.26205 0.90117 0.0
N1321 N 0.06749 0.42012 0.87228 0.0
C1322 C 0.01974 0.29332 0.8904 0.0
C1323 C 0.05208 0.37397 0.87515 0.0
N1324 N 0.00049 0.37753 0.86666 0.0
N1325 N 0.07108 0.26366 0.88599 0.0
H1326 H 0.06681 0.47585 0.86552 0.0
H1327 H 0.08071 0.40617 0.87886 0.0
H1328 H 0.07302 0.20826 0.89277 0.0
H1329 H 0.08285 0.28481 0.8774 0.0
H1330 H 0.98852 0.34371 0.86897 0.0
H1331 H -0.00149 0.42324 0.85515 0.0
H1332 H 0.99115 0.28702 0.90061 0.0
H1333 H 0.00543 0.21489 0.91236 0.0
C1334 C 0.20792 0.93699 0.86692 0.0
C1335 C 0.22625 0.96442 0.87199 0.0
C1336 C 0.23977 0.86011 0.84865 0.0
C1337 C 0.22157 0.82752 0.84604 0.0
N1338 N 0.18877 0.8266 0.85683 0.0
N1339 N 0.25985 0.94848 0.86994 0.0
C1340 C 0.20573 0.86373 0.85625 0.0
C1341 C 0.24228 0.92515 0.86341 0.0
N1342 N 0.19257 0.98218 0.87151 0.0
N1343 N 0.25451 0.83055 0.83642 0.0
H1344 H 0.26217 0.99623 0.88059 0.0
H1345 H 0.272 0.91718 0.86631 0.0
H1346 H 0.25312 0.78361 0.82524 0.0
H1347 H 0.26769 0.85659 0.83577 0.0
H1348 H 0.17905 0.9683 0.866 0.0
H1349 H 0.19355 0.03742 0.8787 0.0
H1350 H 0.17733 0.84696 0.86622 0.0
H1351 H 0.18661 0.77153 0.84996 0.0
C1352 C 0.95542 0.12689 0.60866 0.0
C1353 C 0.97156 0.16465 0.5999 0.0
C1354 C 0.99166 0.06803 0.61885 0.0
C1355 C 0.97539 0.02538 0.62511 0.0
N1356 N 0.94197 0.00535 0.62047 0.0
N1357 N 0.00507 0.16603 0.59383 0.0
C1358 C 0.9573 0.05235 0.61852 0.0
C1359 C 0.98974 0.13395 0.60424 0.0
N1360 N 0.93834 0.16329 0.60842 0.0
N1361 N 0.00882 0.04734 0.62749 0.0
H1362 H 0.00416 0.21408 0.58298 0.0
H1363 H 0.01841 0.1412 0.5944 0.0
H1364 H 0.01073 0.00016 0.63848 0.0
H1365 H 0.02087 0.08086 0.62543 0.0
H1366 H 0.92655 0.14108 0.61673 0.0
H1367 H 0.93641 0.21945 0.60221 0.0
H1368 H 0.92881 0.01966 0.61377 0.0
H1369 H 0.94284 0.94855 0.62635 0.0
C1370 C 0.79762 0.63269 0.6119 0.0
C1371 C 0.79024 0.56184 0.62014 0.0
C1372 C 0.77777 0.62812 0.65414 0.0
C1373 C 0.78778 0.6956 0.64765 0.0
N1374 N 0.8085 0.76176 0.62125 0.0
N1375 N 0.77363 0.48958 0.64926 0.0
C1376 C 0.79783 0.69834 0.62659 0.0
C1377 C 0.78011 0.55896 0.64114 0.0
N1378 N 0.80427 0.63706 0.5899 0.0
N1379 N 0.76589 0.63071 0.67256 0.0
H1380 H 0.7745 0.43817 0.63991 0.0
H1381 H 0.76828 0.48193 0.66576 0.0
H1382 H 0.76397 0.68069 0.6824 0.0
H1383 H 0.75678 0.58589 0.67691 0.0
H1384 H 0.8082 0.6888 0.58203 0.0
H1385 H 0.80408 0.58978 0.5787 0.0
H1386 H 0.81791 0.76318 0.60757 0.0
H1387 H 0.8091 0.81138 0.63145 0.0
C1388 C 0.98168 0.63159 0.13575 0.0
C1389 C 0.9643 0.59348 0.13994 0.0
C1390 C 0.94761 0.70551 0.12409 0.0
C1391 C 0.96477 0.73636 0.1161 0.0
N1392 N -0.00157 0.72585 0.11258 0.0
N1393 N 0.93067 0.58902 0.13284 0.0
C1394 C 0.98196 0.69892 0.12155 0.0
C1395 C 0.9472 0.62915 0.13283 0.0
N1396 N -0.00221 0.60532 0.14597 0.0
N1397 N 0.93171 0.74993 0.12387 0.0
H1398 H 0.92974 0.53078 0.13715 0.0
H1399 H 0.91828 0.61097 0.12576 0.0
H1400 H 0.93187 0.80801 0.11892 0.0
H1401 H 0.91912 0.73218 0.13132 0.0
H1402 H 0.01051 0.63501 0.14518 0.0
H1403 H -0.00199 0.55829 0.15725 0.0
H1404 H 0.0111 0.69585 0.11392 0.0
H1405 H -0.00085 0.77529 0.10228 0.0
C1406 C 0.75766 0.1587 0.1217 0.0
C1407 C 0.77451 0.17613 0.13378 0.0
C1408 C 0.78817 0.05306 0.12119 0.0
C1409 C 0.77238 0.04068 0.10672 0.0
N1410 N 0.74258 0.08345 0.09157 0.0
N1411 N 0.80689 0.14481 0.1426 0.0
C1412 C 0.75716 0.09371 0.10663 0.0
C1413 C 0.79002 0.12439 0.13305 0.0
N1414 N 0.74199 0.20308 0.12519 0.0
N1415 N 0.80118 0.9956 0.12417 0.0
H1416 H 0.80901 0.19596 0.1517 0.0
H1417 H 0.81927 0.11388 0.13992 0.0
H1418 H 0.8003 0.94245 0.1158 0.0
H1419 H 0.81179 -0.00235 0.13653 0.0
H1420 H 0.72878 0.18913 0.11869 0.0
H1421 H 0.74182 0.25032 0.1364 0.0
H1422 H 0.7321 0.12457 0.08881 0.0
H1423 H 0.74168 0.03591 0.08053 0.0
C1424 C 0.51445 0.78313 0.84648 0.0
C1425 C 0.52535 0.78358 0.86699 0.0
C1426 C 0.53241 0.92068 0.86108 0.0
C1427 C 0.52409 0.91697 0.83888 0.0
N1428 N 0.50899 0.84164 0.80914 0.0
N1429 N 0.54785 0.84932 0.89142 0.0
C1430 C 0.51545 0.84752 0.83123 0.0
C1431 C 0.53513 0.85149 0.87375 0.0
N1432 N 0.50277 0.72218 0.84189 0.0
N1433 N 0.5372 0.99065 0.87042 0.0
H1434 H 0.55094 0.79926 0.90074 0.0
H1435 H 0.55678 0.89541 0.89527 0.0
H1436 H 0.53467 0.04315 0.8621 0.0
H1437 H 0.54166 0.99705 0.8874 0.0
H1438 H 0.49314 0.72214 0.82836 0.0
H1439 H 0.50138 0.67481 0.85292 0.0
H1440 H 0.50446 0.78966 0.8019 0.0
H1441 H 0.50962 0.88722 0.79738 0.0
C1442 C 0.72613 0.38184 0.89223 0.0
C1443 C 0.7094 0.42681 0.89163 0.0
C1444 C 0.69621 0.34105 0.86206 0.0
C1445 C 0.71213 0.29204 0.86426 0.0
N1446 N 0.74172 0.26106 0.88225 0.0
N1447 N 0.67734 0.44336 0.8784 0.0
C1448 C 0.72698 0.3112 0.87957 0.0
C1449 C 0.69411 0.40475 0.87726 0.0
N1450 N 0.74118 0.40666 0.90491 0.0
N1451 N 0.6831 0.32747 0.84527 0.0
H1452 H 0.67514 0.49227 0.88844 0.0
H1453 H 0.665 0.42333 0.87081 0.0
H1454 H 0.68355 0.28021 0.83418 0.0
H1455 H 0.67254 0.36668 0.84089 0.0
H1456 H 0.75449 0.38183 0.904 0.0
H1457 H 0.74066 0.45507 0.91564 0.0
H1458 H 0.7519 0.26647 0.89504 0.0
H1459 H 0.74333 0.21126 0.87226 0.0
C1460 C 0.54136 0.46678 0.37754 0.0
C1461 C 0.52395 0.49506 0.36911 0.0
C1462 C 0.50784 0.39006 0.38957 0.0
C1463 C 0.5255 0.35549 0.39469 0.0
N1464 N 0.55899 0.3526 0.38736 0.0
N1465 N 0.49056 0.47538 0.36403 0.0
C1466 C 0.54227 0.39148 0.38699 0.0
C1467 C 0.5071 0.45467 0.37433 0.0
N1468 N 0.55698 0.51268 0.37738 0.0
N1469 N 0.49186 0.36315 0.3998 0.0
H1470 H 0.48948 0.52075 0.35225 0.0
H1471 H 0.47831 0.44276 0.3655 0.0
H1472 H 0.4919 0.31782 0.41168 0.0
H1473 H 0.47892 0.39104 0.39832 0.0
H1474 H 0.56962 0.49641 0.38511 0.0
H1475 H 0.55657 0.57044 0.37225 0.0
H1476 H 0.57122 0.3747 0.38 0.0
H1477 H 0.56015 0.2948 0.39224 0.0
C1478 C 0.72455 0.88192 0.39876 0.0
C1479 C 0.72002 0.95636 0.39007 0.0
C1480 C 0.70753 0.89841 0.35468 0.0
C1481 C 0.71228 0.82375 0.36325 0.0
N1482 N 0.72991 0.74612 0.39027 0.0
N1483 N 0.71136 0.03737 0.35789 0.0
C1484 C 0.72219 0.81602 0.38438 0.0
C1485 C 0.71298 0.96515 0.36735 0.0
N1486 N 0.73079 0.87409 0.42091 0.0
N1487 N 0.69675 0.90584 0.33529 0.0
H1488 H 0.71458 0.08771 0.36688 0.0
H1489 H 0.7084 0.04712 0.34057 0.0
H1490 H 0.69249 0.85918 0.32523 0.0
H1491 H 0.69076 0.95804 0.33002 0.0
H1492 H 0.73211 0.8208 0.42919 0.0
H1493 H 0.73366 0.92146 0.43151 0.0
H1494 H 0.73876 0.73833 0.40438 0.0
H1495 H 0.72905 0.69735 0.37971 0.0
C1496 C 0.47251 0.26153 0.14923 0.0
C1497 C 0.46716 0.24643 0.12607 0.0
C1498 C 0.47101 0.10757 0.13308 0.0
C1499 C 0.47218 0.12238 0.15697 0.0
N1500 N 0.4741 0.21293 0.18836 0.0
N1501 N 0.4599 0.15302 0.09621 0.0
C1502 C 0.4732 0.19931 0.16524 0.0
C1503 C 0.46634 0.16893 0.11787 0.0
N1504 N 0.47739 0.33498 0.1557 0.0
N1505 N 0.47453 0.03474 0.12499 0.0
H1506 H 0.45591 0.19549 0.08445 0.0
H1507 H 0.45699 0.097 0.09053 0.0
H1508 H 0.47852 0.98946 0.13586 0.0
H1509 H 0.47557 0.02169 0.10753 0.0
H1510 H 0.48287 0.34845 0.17184 0.0
H1511 H 0.47788 0.38105 0.14408 0.0
H1512 H 0.47262 0.26785 0.19558 0.0
H1513 H 0.47531 0.1684 0.20044 0.0
C1514 C 0.26705 0.68251 0.12625 0.0
C1515 C 0.27685 0.75295 0.12288 0.0
C1516 C 0.29292 0.6976 0.08954 0.0
C1517 C 0.28587 0.62362 0.09554 0.0
N1518 N 0.26555 0.54434 0.1191 0.0
N1519 N 0.2997 0.82852 0.10192 0.0
C1520 C 0.27243 0.61578 0.11346 0.0
C1521 C 0.28972 0.76132 0.10444 0.0
N1522 N 0.25249 0.68 0.14153 0.0
N1523 N 0.3025 0.70677 0.06936 0.0
H1524 H 0.29765 0.87726 0.11221 0.0
H1525 H 0.31095 0.83437 0.09065 0.0
H1526 H 0.30468 0.66106 0.05791 0.0
H1527 H 0.30652 0.7605 0.06287 0.0
H1528 H 0.24351 0.63276 0.14327 0.0
H1529 H 0.24835 0.72818 0.15113 0.0
H1530 H 0.2579 0.53322 0.13397 0.0
H1531 H 0.26805 0.49491 0.10935 0.0
C1532 C 0.44818 0.57548 0.61824 0.0
C1533 C 0.46564 0.54051 0.62388 0.0
C1534 C 0.48199 0.63656 0.60018 0.0
C1535 C 0.4648 0.67714 0.5971 0.0
N1536 N 0.43204 0.69278 0.60738 0.0
N1537 N 0.49952 0.54351 0.623 0.0
C1538 C 0.448 0.64864 0.6072 0.0
C1539 C 0.48268 0.57244 0.61556 0.0
N1540 N 0.4317 0.53759 0.62258 0.0
N1541 N 0.49749 0.65756 0.58783 0.0
H1542 H 0.50058 0.49714 0.63446 0.0
H1543 H 0.51236 0.56974 0.61944 0.0
H1544 H 0.49739 0.70302 0.57598 0.0
H1545 H 0.50987 0.62533 0.58763 0.0
H1546 H 0.41871 0.5568 0.61652 0.0
H1547 H 0.43114 0.48284 0.63009 0.0
H1548 H 0.42016 0.67821 0.61688 0.0
H1549 H 0.43116 0.7476 0.60002 0.0
C1550 C 0.28631 0.15308 0.59218 0.0
C1551 C 0.27667 0.08496 0.59906 0.0
C1552 C 0.26181 0.15565 0.63085 0.0
C1553 C 0.27343 0.21996 0.62589 0.0
N1554 N 0.29686 0.28233 0.60237 0.0
N1555 N 0.25461 0.02004 0.62382 0.0
C1556 C 0.28546 0.21994 0.60643 0.0
C1557 C 0.26406 0.08616 0.61797 0.0
N1558 N 0.29655 0.15342 0.5723 0.0
N1559 N 0.24852 0.1618 0.64771 0.0
H1560 H 0.25487 0.97006 0.61372 0.0
H1561 H 0.24694 0.01347 0.63891 0.0
H1562 H 0.24668 0.21221 0.65738 0.0
H1563 H 0.23843 0.11975 0.65109 0.0
H1564 H 0.30216 0.20328 0.56496 0.0
H1565 H 0.29844 0.10462 0.56202 0.0
H1566 H 0.30771 0.28262 0.59042 0.0
H1567 H 0.29623 0.33339 0.61192 0.0
loop_
_geom_bond_atom_site_label_1
_geom_bond_atom_site_label_2
_geom_bond_distance
_geom_bond_site_symmetry_2
_ccdc_geom_bond_type
C0 O1 1.160 . S
C0 O7 1.185 . S
O1 C0 1.160 . S
O2 Zn3 1.899 . S
O2 C10 1.284 . S
Zn3 O2 1.899 . S
Zn3 O4 2.032 . S
Zn3 O7 2.086 . S
Zn3 O12 1.977 . S
O4 Zn3 2.032 . S
O4 C8 1.278 . S
C5 O6 1.203 . S
C5 O12 1.267 . S
O6 C5 1.203 . S
O7 C0 1.185 . S
O7 Zn3 2.086 . S
C8 O4 1.278 . S
C8 O9 1.211 . S
O9 C8 1.211 . S
C10 O2 1.284 . S
C10 O11 1.273 . S
O11 C10 1.273 . S
O12 Zn3 1.977 . S
O12 C5 1.267 . S
C13 O14 1.160 . S
C13 O20 1.185 . S
O14 C13 1.160 . S
O15 Zn16 1.899 . S
O15 C23 1.284 . S
Zn16 O15 1.899 . S
Zn16 O17 2.032 . S
Zn16 O20 2.086 . S
Zn16 O25 1.977 . S
O17 Zn16 2.032 . S
O17 C21 1.278 1_545 S
C18 O19 1.203 . S
C18 O25 1.267 . S
O19 C18 1.203 . S
O20 C13 1.185 . S
O20 Zn16 2.086 . S
C21 O17 1.278 1_565 S
C21 O22 1.211 1_565 S
O22 C21 1.211 1_545 S
C23 O15 1.284 . S
C23 O24 1.273 . S
O24 C23 1.273 . S
O25 Zn16 1.977 . S
O25 C18 1.267 . S
C26 O27 1.160 . S
C26 O33 1.185 . S
O27 C26 1.160 . S
O28 Zn29 1.899 . S
O28 C36 1.284 . S
Zn29 O28 1.899 . S
Zn29 O30 2.032 . S
Zn29 O33 2.086 . S
Zn29 O38 1.977 . S
O30 Zn29 2.032 . S
O30 C34 1.278 1_545 S
C31 O32 1.203 . S
C31 O38 1.267 . S
O32 C31 1.203 . S
O33 C26 1.185 . S
O33 Zn29 2.086 . S
C34 O30 1.278 1_565 S
C34 O35 1.211 1_565 S
O35 C34 1.211 1_545 S
C36 O28 1.284 . S
C36 O37 1.273 . S
O37 C36 1.273 . S
O38 Zn29 1.977 . S
O38 C31 1.267 . S
C39 O40 1.160 . S
C39 O46 1.185 . S
O40 C39 1.160 . S
O41 Zn42 1.899 . S
O41 C49 1.284 . S
Zn42 O41 1.899 . S
Zn42 O43 2.032 . S
Zn42 O46 2.086 . S
Zn42 O51 1.977 . S
O43 Zn42 2.032 . S
O43 C47 1.278 . S
C44 O45 1.203 . S
C44 O51 1.267 . S
O45 C44 1.203 . S
O46 C39 1.185 . S
O46 Zn42 2.086 . S
C47 O43 1.278 . S
C47 O48 1.211 . S
O48 C47 1.211 . S
C49 O41 1.284 . S
C49 O50 1.273 . S
O50 C49 1.273 . S
O51 Zn42 1.977 . S
O51 C44 1.267 . S
C52 O53 1.160 . S
C52 O59 1.185 . S
O53 C52 1.160 . S
O54 Zn55 1.899 . S
O54 C62 1.284 . S
Zn55 O54 1.899 . S
Zn55 O56 2.032 . S
Zn55 O59 2.086 . S
Zn55 O64 1.977 . S
O56 Zn55 2.032 . S
O56 C60 1.278 . S
C57 O58 1.203 . S
C57 O64 1.267 . S
O58 C57 1.203 . S
O59 C52 1.185 . S
O59 Zn55 2.086 . S
C60 O56 1.278 . S
C60 O61 1.211 . S
O61 C60 1.211 . S
C62 O54 1.284 . S
C62 O63 1.273 . S
O63 C62 1.273 . S
O64 Zn55 1.977 . S
O64 C57 1.267 . S
C65 O66 1.160 . S
C65 O72 1.185 . S
O66 C65 1.160 . S
O67 Zn68 1.899 . S
O67 C75 1.284 . S
Zn68 O67 1.899 . S
Zn68 O69 2.032 . S
Zn68 O72 2.086 . S
Zn68 O77 1.977 . S
O69 Zn68 2.032 . S
O69 C73 1.278 1_565 S
C70 O71 1.203 . S
C70 O77 1.267 . S
O71 C70 1.203 . S
O72 C65 1.185 . S
O72 Zn68 2.086 . S
C73 O69 1.278 1_545 S
C73 O74 1.211 1_545 S
O74 C73 1.211 1_565 S
C75 O67 1.284 . S
C75 O76 1.273 . S
O76 C75 1.273 . S
O77 Zn68 1.977 . S
O77 C70 1.267 . S
C78 O79 1.160 . S
C78 O85 1.185 . S
O79 C78 1.160 . S
O80 Zn81 1.899 . S
O80 C88 1.284 . S
Zn81 O80 1.899 . S
Zn81 O82 2.032 . S
Zn81 O85 2.086 . S
Zn81 O90 1.977 . S
O82 Zn81 2.032 . S
O82 C86 1.278 1_565 S
C83 O84 1.203 . S
C83 O90 1.267 . S
O84 C83 1.203 . S
O85 C78 1.185 . S
O85 Zn81 2.086 . S
C86 O82 1.278 1_545 S
C86 O87 1.211 1_545 S
O87 C86 1.211 1_565 S
C88 O80 1.284 . S
C88 O89 1.273 . S
O89 C88 1.273 . S
O90 Zn81 1.977 . S
O90 C83 1.267 . S
C91 O92 1.160 . S
C91 O98 1.185 . S
O92 C91 1.160 . S
O93 Zn94 1.899 . S
O93 C101 1.284 . S
Zn94 O93 1.899 . S
Zn94 O95 2.032 . S
Zn94 O98 2.086 . S
Zn94 O103 1.977 . S
O95 Zn94 2.032 . S
O95 C99 1.278 . S
C96 O97 1.203 . S
C96 O103 1.267 . S
O97 C96 1.203 . S
O98 C91 1.185 . S
O98 Zn94 2.086 . S
C99 O95 1.278 . S
C99 O100 1.211 . S
O100 C99 1.211 . S
C101 O93 1.284 . S
C101 O102 1.273 . S
O102 C101 1.273 . S
O103 Zn94 1.977 . S
O103 C96 1.267 . S
C104 O105 1.160 . S
C104 O111 1.185 . S
O105 C104 1.160 . S
O106 Zn107 1.899 . S
O106 C114 1.284 . S
Zn107 O106 1.899 . S
Zn107 O108 2.032 . S
Zn107 O111 2.086 . S
Zn107 O116 1.977 . S
O108 Zn107 2.032 . S
O108 C112 1.278 . S
C109 O110 1.203 . S
C109 O116 1.267 . S
O110 C109 1.203 . S
O111 C104 1.185 . S
O111 Zn107 2.086 . S
C112 O108 1.278 . S
C112 O113 1.211 . S
O113 C112 1.211 . S
C114 O106 1.284 . S
C114 O115 1.273 . S
O115 C114 1.273 . S
O116 Zn107 1.977 . S
O116 C109 1.267 . S
C117 O118 1.160 . S
C117 O124 1.185 . S
O118 C117 1.160 . S
O119 Zn120 1.899 . S
O119 C127 1.284 . S
Zn120 O119 1.899 . S
Zn120 O121 2.032 . S
Zn120 O124 2.086 . S
Zn120 O129 1.977 . S
O121 Zn120 2.032 . S
O121 C125 1.278 . S
C122 O123 1.203 . S
C122 O129 1.267 . S
O123 C122 1.203 . S
O124 C117 1.185 . S
O124 Zn120 2.086 . S
C125 O121 1.278 . S
C125 O126 1.211 . S
O126 C125 1.211 . S
C127 O119 1.284 . S
C127 O128 1.273 . S
O128 C127 1.273 . S
O129 Zn120 1.977 . S
O129 C122 1.267 . S
C130 O131 1.160 . S
C130 O137 1.185 . S
O131 C130 1.160 . S
O132 Zn133 1.899 . S
O132 C140 1.284 . S
Zn133 O132 1.899 . S
Zn133 O134 2.032 . S
Zn133 O137 2.086 . S
Zn133 O142 1.977 . S
O134 Zn133 2.032 . S
O134 C138 1.278 . S
C135 O136 1.203 . S
C135 O142 1.267 . S
O136 C135 1.203 . S
O137 C130 1.185 . S
O137 Zn133 2.086 . S
C138 O134 1.278 . S
C138 O139 1.211 . S
O139 C138 1.211 . S
C140 O132 1.284 . S
C140 O141 1.273 . S
O141 C140 1.273 . S
O142 Zn133 1.977 . S
O142 C135 1.267 . S
C143 O144 1.160 . S
C143 O150 1.185 . S
O144 C143 1.160 . S
O145 Zn146 1.899 . S
O145 C153 1.284 . S
Zn146 O145 1.899 . S
Zn146 O147 2.032 . S
Zn146 O150 2.086 . S
Zn146 O155 1.977 . S
O147 Zn146 2.032 . S
O147 C151 1.278 . S
C148 O149 1.203 . S
C148 O155 1.267 . S
O149 C148 1.203 . S
O150 C143 1.185 . S
O150 Zn146 2.086 . S
C151 O147 1.278 . S
C151 O152 1.211 . S
O152 C151 1.211 . S
C153 O145 1.284 . S
C153 O154 1.273 . S
O154 C153 1.273 . S
O155 Zn146 1.977 . S
O155 C148 1.267 . S
C156 O157 1.160 . S
C156 O163 1.185 . S
O157 C156 1.160 . S
O158 Zn159 1.899 . S
O158 C166 1.284 . S
Zn159 O158 1.899 . S
Zn159 O160 2.032 . S
Zn159 O163 2.086 . S
Zn159 O168 1.977 . S
O160 Zn159 2.032 . S
O160 C164 1.278 . S
C161 O162 1.203 . S
C161 O168 1.267 . S
O162 C161 1.203 . S
O163 C156 1.185 . S
O163 Zn159 2.086 . S
C164 O160 1.278 . S
C164 O165 1.211 . S
O165 C164 1.211 . S
C166 O158 1.284 . S
C166 O167 1.273 . S
O167 C166 1.273 . S
O168 Zn159 1.977 . S
O168 C161 1.267 . S
C169 O170 1.160 . S
C169 O176 1.185 . S
O170 C169 1.160 . S
O171 Zn172 1.899 . S
O171 C179 1.284 . S
Zn172 O171 1.899 . S
Zn172 O173 2.032 . S
Zn172 O176 2.086 . S
Zn172 O181 1.977 . S
O173 Zn172 2.032 . S
O173 C177 1.278 . S
C174 O175 1.203 . S
C174 O181 1.267 . S
O175 C174 1.203 . S
O176 C169 1.185 . S
O176 Zn172 2.086 . S
C177 O173 1.278 . S
C177 O178 1.211 . S
O178 C177 1.211 . S
C179 O171 1.284 . S
C179 O180 1.273 . S
O180 C179 1.273 . S
O181 Zn172 1.977 . S
O181 C174 1.267 . S
C182 O183 1.160 . S
C182 O189 1.185 . S
O183 C182 1.160 . S
O184 Zn185 1.899 . S
O184 C192 1.284 . S
Zn185 O184 1.899 . S
Zn185 O186 2.032 . S
Zn185 O189 2.086 . S
Zn185 O194 1.977 . S
O186 Zn185 2.032 . S
O186 C190 1.278 . S
C187 O188 1.203 . S
C187 O194 1.267 . S
O188 C187 1.203 . S
O189 C182 1.185 . S
O189 Zn185 2.086 . S
C190 O186 1.278 . S
C190 O191 1.211 . S
O191 C190 1.211 . S
C192 O184 1.284 . S
C192 O193 1.273 . S
O193 C192 1.273 . S
O194 Zn185 1.977 . S
O194 C187 1.267 . S
C195 O196 1.160 . S
C195 O202 1.185 . S
O196 C195 1.160 . S
O197 Zn198 1.899 . S
O197 C205 1.284 . S
Zn198 O197 1.899 . S
Zn198 O199 2.032 . S
Zn198 O202 2.086 . S
Zn198 O207 1.977 . S
O199 Zn198 2.032 . S
O199 C203 1.278 . S
C200 O201 1.203 . S
C200 O207 1.267 . S
O201 C200 1.203 . S
O202 C195 1.185 . S
O202 Zn198 2.086 . S
C203 O199 1.278 . S
C203 O204 1.211 . S
O204 C203 1.211 . S
C205 O197 1.284 . S
C205 O206 1.273 . S
O206 C205 1.273 . S
O207 Zn198 1.977 . S
O207 C200 1.267 . S
C208 O209 1.160 . S
C208 O215 1.185 . S
O209 C208 1.160 . S
O210 Zn211 1.899 . S
O210 C218 1.284 . S
Zn211 O210 1.899 . S
Zn211 O212 2.032 . S
Zn211 O215 2.086 . S
Zn211 O220 1.977 . S
O212 Zn211 2.032 . S
O212 C216 1.278 . S
C213 O214 1.203 . S
C213 O220 1.267 . S
O214 C213 1.203 . S
O215 C208 1.185 . S
O215 Zn211 2.086 . S
C216 O212 1.278 . S
C216 O217 1.211 . S
O217 C216 1.211 . S
C218 O210 1.284 . S
C218 O219 1.273 . S
O219 C218 1.273 . S
O220 Zn211 1.977 . S
O220 C213 1.267 . S
C221 O222 1.160 . S
C221 O228 1.185 . S
O222 C221 1.160 . S
O223 Zn224 1.899 . S
O223 C231 1.284 . S
Zn224 O223 1.899 . S
Zn224 O225 2.032 . S
Zn224 O228 2.086 . S
Zn224 O233 1.977 . S
O225 Zn224 2.032 . S
O225 C229 1.278 1_545 S
C226 O227 1.203 . S
C226 O233 1.267 . S
O227 C226 1.203 . S
O228 C221 1.185 . S
O228 Zn224 2.086 . S
C229 O225 1.278 1_565 S
C229 O230 1.211 1_565 S
O230 C229 1.211 1_545 S
C231 O223 1.284 . S
C231 O232 1.273 . S
O232 C231 1.273 . S
O233 Zn224 1.977 . S
O233 C226 1.267 . S
C234 O235 1.160 . S
C234 O241 1.185 . S
O235 C234 1.160 . S
O236 Zn237 1.899 . S
O236 C244 1.284 . S
Zn237 O236 1.899 . S
Zn237 O238 2.032 . S
Zn237 O241 2.086 . S
Zn237 O246 1.977 . S
O238 Zn237 2.032 . S
O238 C242 1.278 1_545 S
C239 O240 1.203 . S
C239 O246 1.267 . S
O240 C239 1.203 . S
O241 C234 1.185 . S
O241 Zn237 2.086 . S
C242 O238 1.278 1_565 S
C242 O243 1.211 1_565 S
O243 C242 1.211 1_545 S
C244 O236 1.284 . S
C244 O245 1.273 . S
O245 C244 1.273 . S
O246 Zn237 1.977 . S
O246 C239 1.267 . S
C247 O248 1.160 . S
C247 O254 1.185 . S
O248 C247 1.160 . S
O249 Zn250 1.899 . S
O249 C257 1.284 . S
Zn250 O249 1.899 . S
Zn250 O251 2.032 . S
Zn250 O254 2.086 . S
Zn250 O259 1.977 . S
O251 Zn250 2.032 . S
O251 C255 1.278 . S
C252 O253 1.203 . S
C252 O259 1.267 . S
O253 C252 1.203 . S
O254 C247 1.185 . S
O254 Zn250 2.086 . S
C255 O251 1.278 . S
C255 O256 1.211 . S
O256 C255 1.211 . S
C257 O249 1.284 . S
C257 O258 1.273 . S
O258 C257 1.273 . S
O259 Zn250 1.977 . S
O259 C252 1.267 . S
C260 O261 1.160 . S
C260 O267 1.185 . S
O261 C260 1.160 . S
O262 Zn263 1.899 . S
O262 C270 1.284 . S
Zn263 O262 1.899 . S
Zn263 O264 2.032 . S
Zn263 O267 2.086 . S
Zn263 O272 1.977 . S
O264 Zn263 2.032 . S
O264 C268 1.278 . S
C265 O266 1.203 . S
C265 O272 1.267 . S
O266 C265 1.203 . S
O267 C260 1.185 . S
O267 Zn263 2.086 . S
C268 O264 1.278 . S
C268 O269 1.211 . S
O269 C268 1.211 . S
C270 O262 1.284 . S
C270 O271 1.273 . S
O271 C270 1.273 . S
O272 Zn263 1.977 . S
O272 C265 1.267 . S
C273 O274 1.160 . S
C273 O280 1.185 . S
O274 C273 1.160 . S
O275 Zn276 1.899 . S
O275 C283 1.284 . S
Zn276 O275 1.899 . S
Zn276 O277 2.032 . S
Zn276 O280 2.086 . S
Zn276 O285 1.977 . S
O277 Zn276 2.032 . S
O277 C281 1.278 1_565 S
C278 O279 1.203 . S
C278 O285 1.267 . S
O279 C278 1.203 . S
O280 C273 1.185 . S
O280 Zn276 2.086 . S
C281 O277 1.278 1_545 S
C281 O282 1.211 1_545 S
O282 C281 1.211 1_565 S
C283 O275 1.284 . S
C283 O284 1.273 . S
O284 C283 1.273 . S
O285 Zn276 1.977 . S
O285 C278 1.267 . S
C286 O287 1.160 . S
C286 O293 1.185 . S
O287 C286 1.160 . S
O288 Zn289 1.899 . S
O288 C296 1.284 . S
Zn289 O288 1.899 . S
Zn289 O290 2.032 . S
Zn289 O293 2.086 . S
Zn289 O298 1.977 . S
O290 Zn289 2.032 . S
O290 C294 1.278 1_565 S
C291 O292 1.203 . S
C291 O298 1.267 . S
O292 C291 1.203 . S
O293 C286 1.185 . S
O293 Zn289 2.086 . S
C294 O290 1.278 1_545 S
C294 O295 1.211 1_545 S
O295 C294 1.211 1_565 S
C296 O288 1.284 . S
C296 O297 1.273 . S
O297 C296 1.273 . S
O298 Zn289 1.977 . S
O298 C291 1.267 . S
C299 O300 1.160 . S
C299 O306 1.185 . S
O300 C299 1.160 . S
O301 Zn302 1.899 . S
O301 C309 1.284 . S
Zn302 O301 1.899 . S
Zn302 O303 2.032 . S
Zn302 O306 2.086 . S
Zn302 O311 1.977 . S
O303 Zn302 2.032 . S
O303 C307 1.278 . S
C304 O305 1.203 . S
C304 O311 1.267 . S
O305 C304 1.203 . S
O306 C299 1.185 . S
O306 Zn302 2.086 . S
C307 O303 1.278 . S
C307 O308 1.211 . S
O308 C307 1.211 . S
C309 O301 1.284 . S
C309 O310 1.273 . S
O310 C309 1.273 . S
O311 Zn302 1.977 . S
O311 C304 1.267 . S
C312 O313 1.160 . S
C312 O319 1.185 . S
O313 C312 1.160 . S
O314 Zn315 1.899 . S
O314 C322 1.284 . S
Zn315 O314 1.899 . S
Zn315 O316 2.032 . S
Zn315 O319 2.086 . S
Zn315 O324 1.977 . S
O316 Zn315 2.032 . S
O316 C320 1.278 . S
C317 O318 1.203 . S
C317 O324 1.267 . S
O318 C317 1.203 . S
O319 C312 1.185 . S
O319 Zn315 2.086 . S
C320 O316 1.278 . S
C320 O321 1.211 . S
O321 C320 1.211 . S
C322 O314 1.284 . S
C322 O323 1.273 . S
O323 C322 1.273 . S
O324 Zn315 1.977 . S
O324 C317 1.267 . S
C325 O326 1.160 . S
C325 O332 1.185 . S
O326 C325 1.160 . S
O327 Zn328 1.899 . S
O327 C335 1.284 . S
Zn328 O327 1.899 . S
Zn328 O329 2.032 . S
Zn328 O332 2.086 . S
Zn328 O337 1.977 . S
O329 Zn328 2.032 . S
O329 C333 1.278 . S
C330 O331 1.203 . S
C330 O337 1.267 . S
O331 C330 1.203 . S
O332 C325 1.185 . S
O332 Zn328 2.086 . S
C333 O329 1.278 . S
C333 O334 1.211 . S
O334 C333 1.211 . S
C335 O327 1.284 . S
C335 O336 1.273 . S
O336 C335 1.273 . S
O337 Zn328 1.977 . S
O337 C330 1.267 . S
C338 O339 1.160 . S
C338 O345 1.185 . S
O339 C338 1.160 . S
O340 Zn341 1.899 . S
O340 C348 1.284 . S
Zn341 O340 1.899 . S
Zn341 O342 2.032 . S
Zn341 O345 2.086 . S
Zn341 O350 1.977 . S
O342 Zn341 2.032 . S
O342 C346 1.278 . S
C343 O344 1.203 . S
C343 O350 1.267 . S
O344 C343 1.203 . S
O345 C338 1.185 . S
O345 Zn341 2.086 . S
C346 O342 1.278 . S
C346 O347 1.211 . S
O347 C346 1.211 . S
C348 O340 1.284 . S
C348 O349 1.273 . S
O349 C348 1.273 . S
O350 Zn341 1.977 . S
O350 C343 1.267 . S
C351 O352 1.160 . S
C351 O358 1.185 . S
O352 C351 1.160 . S
O353 Zn354 1.899 . S
O353 C361 1.284 . S
Zn354 O353 1.899 . S
Zn354 O355 2.032 . S
Zn354 O358 2.086 . S
Zn354 O363 1.977 . S
O355 Zn354 2.032 . S
O355 C359 1.278 . S
C356 O357 1.203 . S
C356 O363 1.267 . S
O357 C356 1.203 . S
O358 C351 1.185 . S
O358 Zn354 2.086 . S
C359 O355 1.278 . S
C359 O360 1.211 . S
O360 C359 1.211 . S
C361 O353 1.284 . S
C361 O362 1.273 . S
O362 C361 1.273 . S
O363 Zn354 1.977 . S
O363 C356 1.267 . S
C364 O365 1.160 . S
C364 O371 1.185 . S
O365 C364 1.160 . S
O366 Zn367 1.899 . S
O366 C374 1.284 . S
Zn367 O366 1.899 . S
Zn367 O368 2.032 . S
Zn367 O371 2.086 . S
Zn367 O376 1.977 . S
O368 Zn367 2.032 . S
O368 C372 1.278 . S
C369 O370 1.203 . S
C369 O376 1.267 . S
O370 C369 1.203 . S
O371 C364 1.185 . S
O371 Zn367 2.086 . S
C372 O368 1.278 . S
C372 O373 1.211 . S
O373 C372 1.211 . S
C374 O366 1.284 . S
C374 O375 1.273 . S
O375 C374 1.273 . S
O376 Zn367 1.977 . S
O376 C369 1.267 . S
C377 O378 1.160 . S
C377 O384 1.185 . S
O378 C377 1.160 . S
O379 Zn380 1.899 . S
O379 C387 1.284 . S
Zn380 O379 1.899 . S
Zn380 O381 2.032 . S
Zn380 O384 2.086 . S
Zn380 O389 1.977 . S
O381 Zn380 2.032 . S
O381 C385 1.278 . S
C382 O383 1.203 . S
C382 O389 1.267 . S
O383 C382 1.203 . S
O384 C377 1.185 . S
O384 Zn380 2.086 . S
C385 O381 1.278 . S
C385 O386 1.211 . S
O386 C385 1.211 . S
C387 O379 1.284 . S
C387 O388 1.273 . S
O388 C387 1.273 . S
O389 Zn380 1.977 . S
O389 C382 1.267 . S
C390 O391 1.160 . S
C390 O397 1.185 . S
O391 C390 1.160 . S
O392 Zn393 1.899 . S
O392 C400 1.284 . S
Zn393 O392 1.899 . S
Zn393 O394 2.032 . S
Zn393 O397 2.086 . S
Zn393 O402 1.977 . S
O394 Zn393 2.032 . S
O394 C398 1.278 . S
C395 O396 1.203 . S
C395 O402 1.267 . S
O396 C395 1.203 . S
O397 C390 1.185 . S
O397 Zn393 2.086 . S
C398 O394 1.278 . S
C398 O399 1.211 . S
O399 C398 1.211 . S
C400 O392 1.284 . S
C400 O401 1.273 . S
O401 C400 1.273 . S
O402 Zn393 1.977 . S
O402 C395 1.267 . S
C403 O404 1.160 . S
C403 O410 1.185 . S
O404 C403 1.160 . S
O405 Zn406 1.899 . S
O405 C413 1.284 . S
Zn406 O405 1.899 . S
Zn406 O407 2.032 . S
Zn406 O410 2.086 . S
Zn406 O415 1.977 . S
O407 Zn406 2.032 . S
O407 C411 1.278 . S
C408 O409 1.203 . S
C408 O415 1.267 . S
O409 C408 1.203 . S
O410 C403 1.185 . S
O410 Zn406 2.086 . S
C411 O407 1.278 . S
C411 O412 1.211 . S
O412 C411 1.211 . S
C413 O405 1.284 . S
C413 O414 1.273 . S
O414 C413 1.273 . S
O415 Zn406 1.977 . S
O415 C408 1.267 . S
C416 C417 1.363 . S
C416 C422 1.379 . S
C416 N424 1.356 . S
C417 C416 1.363 . S
C417 C423 1.363 . S
C418 C419 1.363 . S
C418 C423 1.379 . S
C418 N425 1.356 . S
C419 C418 1.363 . S
C419 C422 1.363 . S
N420 C422 1.356 . S
N420 H432 0.984 . S
N420 H433 0.985 . S
N421 C423 1.356 . S
N421 H426 0.984 . S
N421 H427 0.985 . S
C422 C416 1.379 . S
C422 C419 1.363 . S
C422 N420 1.356 . S
C423 C417 1.363 . S
C423 C418 1.379 . S
C423 N421 1.356 . S
N424 C416 1.356 . S
N424 H430 0.984 . S
N424 H431 0.984 . S
N425 C418 1.356 . S
N425 H428 0.984 . S
N425 H429 0.985 . S
H426 N421 0.984 . S
H427 N421 0.985 . S
H428 N425 0.984 . S
H429 N425 0.985 . S
H430 N424 0.984 . S
H431 N424 0.984 . S
H432 N420 0.984 . S
H433 N420 0.985 . S
C434 C435 1.363 . S
C434 C440 1.379 . S
C434 N442 1.356 . S
C435 C434 1.363 . S
C435 C441 1.363 . S
C436 C437 1.363 . S
C436 C441 1.379 . S
C436 N443 1.356 . S
C437 C436 1.363 . S
C437 C440 1.363 . S
N438 C440 1.356 . S
N438 H450 0.984 . S
N438 H451 0.985 . S
N439 C441 1.356 . S
N439 H444 0.984 . S
N439 H445 0.985 . S
C440 C434 1.379 . S
C440 C437 1.363 . S
C440 N438 1.356 . S
C441 C435 1.363 . S
C441 C436 1.379 . S
C441 N439 1.356 . S
N442 C434 1.356 . S
N442 H448 0.984 . S
N442 H449 0.984 . S
N443 C436 1.356 . S
N443 H446 0.984 . S
N443 H447 0.985 . S
H444 N439 0.984 . S
H445 N439 0.985 . S
H446 N443 0.984 . S
H447 N443 0.985 . S
H448 N442 0.984 . S
H449 N442 0.984 . S
H450 N438 0.984 . S
H451 N438 0.985 . S
C452 C453 1.363 . S
C452 C458 1.379 . S
C452 N460 1.356 . S
C453 C452 1.363 . S
C453 C459 1.363 . S
C454 C455 1.363 . S
C454 C459 1.379 . S
C454 N461 1.356 . S
C455 C454 1.363 . S
C455 C458 1.363 . S
N456 C458 1.356 . S
N456 H468 0.984 . S
N456 H469 0.985 . S
N457 C459 1.356 . S
N457 H462 0.984 . S
N457 H463 0.985 . S
C458 C452 1.379 . S
C458 C455 1.363 . S
C458 N456 1.356 . S
C459 C453 1.363 . S
C459 C454 1.379 . S
C459 N457 1.356 . S
N460 C452 1.356 . S
N460 H466 0.984 . S
N460 H467 0.984 . S
N461 C454 1.356 . S
N461 H464 0.984 . S
N461 H465 0.985 . S
H462 N457 0.984 . S
H463 N457 0.985 . S
H464 N461 0.984 . S
H465 N461 0.985 . S
H466 N460 0.984 . S
H467 N460 0.984 . S
H468 N456 0.984 . S
H469 N456 0.985 . S
C470 C471 1.363 . S
C470 C476 1.379 . S
C470 N478 1.356 . S
C471 C470 1.363 . S
C471 C477 1.363 . S
C472 C473 1.363 . S
C472 C477 1.379 . S
C472 N479 1.356 . S
C473 C472 1.363 . S
C473 C476 1.363 . S
N474 C476 1.356 . S
N474 H486 0.984 . S
N474 H487 0.985 . S
N475 C477 1.356 . S
N475 H480 0.984 . S
N475 H481 0.985 . S
C476 C470 1.379 . S
C476 C473 1.363 . S
C476 N474 1.356 . S
C477 C471 1.363 . S
C477 C472 1.379 . S
C477 N475 1.356 . S
N478 C470 1.356 . S
N478 H484 0.984 . S
N478 H485 0.984 . S
N479 C472 1.356 . S
N479 H482 0.984 . S
N479 H483 0.985 . S
H480 N475 0.984 . S
H481 N475 0.985 . S
H482 N479 0.984 . S
H483 N479 0.985 . S
H484 N478 0.984 . S
H485 N478 0.984 . S
H486 N474 0.984 . S
H487 N474 0.985 . S
C488 C489 1.363 . S
C488 C494 1.379 . S
C488 N496 1.356 . S
C489 C488 1.363 . S
C489 C495 1.363 . S
C490 C491 1.363 . S
C490 C495 1.379 . S
C490 N497 1.356 . S
C491 C490 1.363 . S
C491 C494 1.363 . S
N492 C494 1.356 . S
N492 H504 0.984 . S
N492 H505 0.985 . S
N493 C495 1.356 . S
N493 H498 0.984 . S
N493 H499 0.985 . S
C494 C488 1.379 . S
C494 C491 1.363 . S
C494 N492 1.356 . S
C495 C489 1.363 . S
C495 C490 1.379 . S
C495 N493 1.356 . S
N496 C488 1.356 . S
N496 H502 0.984 . S
N496 H503 0.984 . S
N497 C490 1.356 . S
N497 H500 0.984 . S
N497 H501 0.985 . S
H498 N493 0.984 . S
H499 N493 0.985 . S
H500 N497 0.984 . S
H501 N497 0.985 . S
H502 N496 0.984 . S
H503 N496 0.984 . S
H504 N492 0.984 . S
H505 N492 0.985 . S
C506 C507 1.363 . S
C506 C512 1.379 . S
C506 N514 1.356 . S
C507 C506 1.363 . S
C507 C513 1.363 . S
C508 C509 1.363 . S
C508 C513 1.379 . S
C508 N515 1.356 . S
C509 C508 1.363 . S
C509 C512 1.363 . S
N510 C512 1.356 . S
N510 H522 0.984 . S
N510 H523 0.985 . S
N511 C513 1.356 . S
N511 H516 0.984 . S
N511 H517 0.985 . S
C512 C506 1.379 . S
C512 C509 1.363 . S
C512 N510 1.356 . S
C513 C507 1.363 . S
C513 C508 1.379 . S
C513 N511 1.356 . S
N514 C506 1.356 . S
N514 H520 0.984 . S
N514 H521 0.984 . S
N515 C508 1.356 . S
N515 H518 0.984 . S
N515 H519 0.985 . S
H516 N511 0.984 . S
H517 N511 0.985 . S
H518 N515 0.984 . S
H519 N515 0.985 . S
H520 N514 0.984 . S
H521 N514 0.984 . S
H522 N510 0.984 . S
H523 N510 0.985 . S
C524 C525 1.363 . S
C524 C530 1.379 . S
C524 N532 1.356 . S
C525 C524 1.363 . S
C525 C531 1.363 . S
C526 C527 1.363 . S
C526 C531 1.379 . S
C526 N533 1.356 . S
C527 C526 1.363 . S
C527 C530 1.363 . S
N528 C530 1.356 . S
N528 H540 0.984 . S
N528 H541 0.985 . S
N529 C531 1.356 . S
N529 H534 0.984 . S
N529 H535 0.985 . S
C530 C524 1.379 . S
C530 C527 1.363 . S
C530 N528 1.356 . S
C531 C525 1.363 . S
C531 C526 1.379 . S
C531 N529 1.356 . S
N532 C524 1.356 . S
N532 H538 0.984 . S
N532 H539 0.984 . S
N533 C526 1.356 . S
N533 H536 0.984 . S
N533 H537 0.985 . S
H534 N529 0.984 . S
H535 N529 0.985 . S
H536 N533 0.984 . S
H537 N533 0.985 . S
H538 N532 0.984 . S
H539 N532 0.984 . S
H540 N528 0.984 . S
H541 N528 0.985 . S
C542 C543 1.363 . S
C542 C548 1.379 . S
C542 N550 1.356 . S
C543 C542 1.363 . S
C543 C549 1.363 . S
C544 C545 1.363 . S
C544 C549 1.379 . S
C544 N551 1.356 . S
C545 C544 1.363 . S
C545 C548 1.363 . S
N546 C548 1.356 . S
N546 H558 0.984 . S
N546 H559 0.985 . S
N547 C549 1.356 . S
N547 H552 0.984 . S
N547 H553 0.985 . S
C548 C542 1.379 . S
C548 C545 1.363 . S
C548 N546 1.356 . S
C549 C543 1.363 . S
C549 C544 1.379 . S
C549 N547 1.356 . S
N550 C542 1.356 . S
N550 H556 0.984 . S
N550 H557 0.984 . S
N551 C544 1.356 . S
N551 H554 0.984 . S
N551 H555 0.985 . S
H552 N547 0.984 . S
H553 N547 0.985 . S
H554 N551 0.984 . S
H555 N551 0.985 . S
H556 N550 0.984 . S
H557 N550 0.984 . S
H558 N546 0.984 . S
H559 N546 0.985 . S
C560 C561 1.363 . S
C560 C566 1.379 . S
C560 N568 1.356 . S
C561 C560 1.363 . S
C561 C567 1.363 . S
C562 C563 1.363 . S
C562 C567 1.379 . S
C562 N569 1.356 . S
C563 C562 1.363 . S
C563 C566 1.363 . S
N564 C566 1.356 . S
N564 H576 0.984 . S
N564 H577 0.985 . S
N565 C567 1.356 . S
N565 H570 0.984 . S
N565 H571 0.985 . S
C566 C560 1.379 . S
C566 C563 1.363 . S
C566 N564 1.356 . S
C567 C561 1.363 . S
C567 C562 1.379 . S
C567 N565 1.356 . S
N568 C560 1.356 . S
N568 H574 0.984 . S
N568 H575 0.984 . S
N569 C562 1.356 . S
N569 H572 0.984 . S
N569 H573 0.985 . S
H570 N565 0.984 . S
H571 N565 0.985 . S
H572 N569 0.984 . S
H573 N569 0.985 . S
H574 N568 0.984 . S
H575 N568 0.984 . S
H576 N564 0.984 . S
H577 N564 0.985 . S
C578 C579 1.363 . S
C578 C584 1.379 . S
C578 N586 1.356 . S
C579 C578 1.363 . S
C579 C585 1.363 . S
C580 C581 1.363 . S
C580 C585 1.379 . S
C580 N587 1.356 . S
C581 C580 1.363 . S
C581 C584 1.363 . S
N582 C584 1.356 . S
N582 H594 0.984 . S
N582 H595 0.985 . S
N583 C585 1.356 . S
N583 H588 0.984 . S
N583 H589 0.985 . S
C584 C578 1.379 . S
C584 C581 1.363 . S
C584 N582 1.356 . S
C585 C579 1.363 . S
C585 C580 1.379 . S
C585 N583 1.356 . S
N586 C578 1.356 . S
N586 H592 0.984 . S
N586 H593 0.984 . S
N587 C580 1.356 . S
N587 H590 0.984 . S
N587 H591 0.985 . S
H588 N583 0.984 . S
H589 N583 0.985 . S
H590 N587 0.984 . S
H591 N587 0.985 . S
H592 N586 0.984 . S
H593 N586 0.984 . S
H594 N582 0.984 . S
H595 N582 0.985 . S
C596 C597 1.363 . S
C596 C602 1.379 . S
C596 N604 1.356 . S
C597 C596 1.363 . S
C597 C603 1.363 . S
C598 C599 1.363 . S
C598 C603 1.379 . S
C598 N605 1.356 . S
C599 C598 1.363 . S
C599 C602 1.363 . S
N600 C602 1.356 . S
N600 H612 0.984 . S
N600 H613 0.985 . S
N601 C603 1.356 . S
N601 H606 0.984 . S
N601 H607 0.985 . S
C602 C596 1.379 . S
C602 C599 1.363 . S
C602 N600 1.356 . S
C603 C597 1.363 . S
C603 C598 1.379 . S
C603 N601 1.356 . S
N604 C596 1.356 . S
N604 H610 0.984 . S
N604 H611 0.984 . S
N605 C598 1.356 . S
N605 H608 0.984 . S
N605 H609 0.985 . S
H606 N601 0.984 . S
H607 N601 0.985 . S
H608 N605 0.984 . S
H609 N605 0.985 . S
H610 N604 0.984 . S
H611 N604 0.984 . S
H612 N600 0.984 . S
H613 N600 0.985 . S
C614 C615 1.363 . S
C614 C620 1.379 . S
C614 N622 1.356 . S
C615 C614 1.363 . S
C615 C621 1.363 . S
C616 C617 1.363 . S
C616 C621 1.379 . S
C616 N623 1.356 . S
C617 C616 1.363 . S
C617 C620 1.363 . S
N618 C620 1.356 . S
N618 H630 0.984 . S
N618 H631 0.985 . S
N619 C621 1.356 . S
N619 H624 0.984 . S
N619 H625 0.985 . S
C620 C614 1.379 . S
C620 C617 1.363 . S
C620 N618 1.356 . S
C621 C615 1.363 . S
C621 C616 1.379 . S
C621 N619 1.356 . S
N622 C614 1.356 . S
N622 H628 0.984 . S
N622 H629 0.984 . S
N623 C616 1.356 . S
N623 H626 0.984 . S
N623 H627 0.985 . S
H624 N619 0.984 . S
H625 N619 0.985 . S
H626 N623 0.984 . S
H627 N623 0.985 . S
H628 N622 0.984 . S
H629 N622 0.984 . S
H630 N618 0.984 . S
H631 N618 0.985 . S
C632 C633 1.363 . S
C632 C638 1.379 . S
C632 N640 1.356 . S
C633 C632 1.363 . S
C633 C639 1.363 . S
C634 C635 1.363 . S
C634 C639 1.379 . S
C634 N641 1.356 . S
C635 C634 1.363 . S
C635 C638 1.363 . S
N636 C638 1.356 . S
N636 H648 0.984 . S
N636 H649 0.985 . S
N637 C639 1.356 . S
N637 H642 0.984 . S
N637 H643 0.985 . S
C638 C632 1.379 . S
C638 C635 1.363 . S
C638 N636 1.356 . S
C639 C633 1.363 . S
C639 C634 1.379 . S
C639 N637 1.356 . S
N640 C632 1.356 . S
N640 H646 0.984 . S
N640 H647 0.984 . S
N641 C634 1.356 . S
N641 H644 0.984 . S
N641 H645 0.985 . S
H642 N637 0.984 . S
H643 N637 0.985 . S
H644 N641 0.984 . S
H645 N641 0.985 . S
H646 N640 0.984 . S
H647 N640 0.984 . S
H648 N636 0.984 . S
H649 N636 0.985 . S
C650 C651 1.363 . S
C650 C656 1.379 . S
C650 N658 1.356 . S
C651 C650 1.363 . S
C651 C657 1.363 . S
C652 C653 1.363 . S
C652 C657 1.379 . S
C652 N659 1.356 . S
C653 C652 1.363 . S
C653 C656 1.363 . S
N654 C656 1.356 . S
N654 H666 0.984 . S
N654 H667 0.985 . S
N655 C657 1.356 . S
N655 H660 0.984 . S
N655 H661 0.985 . S
C656 C650 1.379 . S
C656 C653 1.363 . S
C656 N654 1.356 . S
C657 C651 1.363 . S
C657 C652 1.379 . S
C657 N655 1.356 . S
N658 C650 1.356 . S
N658 H664 0.984 . S
N658 H665 0.984 . S
N659 C652 1.356 . S
N659 H662 0.984 . S
N659 H663 0.985 . S
H660 N655 0.984 . S
H661 N655 0.985 . S
H662 N659 0.984 . S
H663 N659 0.985 . S
H664 N658 0.984 . S
H665 N658 0.984 . S
H666 N654 0.984 . S
H667 N654 0.985 . S
C668 C669 1.363 . S
C668 C674 1.379 . S
C668 N676 1.356 . S
C669 C668 1.363 . S
C669 C675 1.363 . S
C670 C671 1.363 . S
C670 C675 1.379 . S
C670 N677 1.356 . S
C671 C670 1.363 . S
C671 C674 1.363 . S
N672 C674 1.356 . S
N672 H684 0.984 . S
N672 H685 0.985 . S
N673 C675 1.356 . S
N673 H678 0.984 . S
N673 H679 0.985 . S
C674 C668 1.379 . S
C674 C671 1.363 . S
C674 N672 1.356 . S
C675 C669 1.363 . S
C675 C670 1.379 . S
C675 N673 1.356 . S
N676 C668 1.356 . S
N676 H682 0.984 . S
N676 H683 0.984 . S
N677 C670 1.356 . S
N677 H680 0.984 . S
N677 H681 0.985 . S
H678 N673 0.984 . S
H679 N673 0.985 . S
H680 N677 0.984 . S
H681 N677 0.985 . S
H682 N676 0.984 . S
H683 N676 0.984 . S
H684 N672 0.984 . S
H685 N672 0.985 . S
C686 C687 1.363 . S
C686 C692 1.379 . S
C686 N694 1.356 . S
C687 C686 1.363 . S
C687 C693 1.363 . S
C688 C689 1.363 . S
C688 C693 1.379 . S
C688 N695 1.356 . S
C689 C688 1.363 . S
C689 C692 1.363 . S
N690 C692 1.356 . S
N690 H702 0.984 . S
N690 H703 0.985 . S
N691 C693 1.356 . S
N691 H696 0.984 . S
N691 H697 0.985 . S
C692 C686 1.379 . S
C692 C689 1.363 . S
C692 N690 1.356 . S
C693 C687 1.363 . S
C693 C688 1.379 . S
C693 N691 1.356 . S
N694 C686 1.356 . S
N694 H700 0.984 . S
N694 H701 0.984 . S
N695 C688 1.356 . S
N695 H698 0.984 . S
N695 H699 0.985 . S
H696 N691 0.984 . S
H697 N691 0.985 . S
H698 N695 0.984 . S
H699 N695 0.985 . S
H700 N694 0.984 . S
H701 N694 0.984 . S
H702 N690 0.984 . S
H703 N690 0.985 . S
C704 C705 1.363 . S
C704 C710 1.379 . S
C704 N712 1.356 . S
C705 C704 1.363 . S
C705 C711 1.363 1_455 S
C706 C707 1.363 . S
C706 C711 1.379 . S
C706 N713 1.356 . S
C707 C706 1.363 . S
C707 C710 1.363 1_655 S
N708 C710 1.356 . S
N708 H720 0.984 . S
N708 H721 0.985 1_455 S
N709 C711 1.356 . S
N709 H714 0.984 1_655 S
N709 H715 0.985 . S
C710 C704 1.379 . S
C710 C707 1.363 1_455 S
C710 N708 1.356 . S
C711 C705 1.363 1_655 S
C711 C706 1.379 . S
C711 N709 1.356 . S
N712 C704 1.356 . S
N712 H718 0.984 . S
N712 H719 0.984 . S
N713 C706 1.356 . S
N713 H716 0.984 . S
N713 H717 0.985 . S
H714 N709 0.984 1_455 S
H715 N709 0.985 . S
H716 N713 0.984 . S
H717 N713 0.985 . S
H718 N712 0.984 . S
H719 N712 0.984 . S
H720 N708 0.984 . S
H721 N708 0.985 1_655 S
C722 C723 1.363 . S
C722 C728 1.379 . S
C722 N730 1.356 . S
C723 C722 1.363 . S
C723 C729 1.363 1_545 S
C724 C725 1.363 . S
C724 C729 1.379 . S
C724 N731 1.356 . S
C725 C724 1.363 . S
C725 C728 1.363 1_565 S
N726 C728 1.356 . S
N726 H738 0.984 . S
N726 H739 0.985 1_545 S
N727 C729 1.356 . S
N727 H732 0.984 1_565 S
N727 H733 0.985 . S
C728 C722 1.379 . S
C728 C725 1.363 1_545 S
C728 N726 1.356 . S
C729 C723 1.363 1_565 S
C729 C724 1.379 . S
C729 N727 1.356 . S
N730 C722 1.356 . S
N730 H736 0.984 . S
N730 H737 0.984 . S
N731 C724 1.356 . S
N731 H734 0.984 . S
N731 H735 0.985 . S
H732 N727 0.984 1_545 S
H733 N727 0.985 . S
H734 N731 0.984 . S
H735 N731 0.985 . S
H736 N730 0.984 . S
H737 N730 0.984 . S
H738 N726 0.984 . S
H739 N726 0.985 1_565 S
C740 C741 1.363 1_655 S
C740 C746 1.379 1_545 S
C740 N748 1.356 . S
C741 C740 1.363 1_455 S
C741 C747 1.363 1_556 S
C742 C743 1.363 1_455 S
C742 C747 1.379 1_565 S
C742 N749 1.356 . S
C743 C742 1.363 1_655 S
C743 C746 1.363 1_554 S
N744 C746 1.356 . S
N744 H756 0.984 . S
N744 H757 0.985 1_556 S
N745 C747 1.356 . S
N745 H750 0.984 1_554 S
N745 H751 0.985 . S
C746 C740 1.379 1_565 S
C746 C743 1.363 1_556 S
C746 N744 1.356 . S
C747 C741 1.363 1_554 S
C747 C742 1.379 1_545 S
C747 N745 1.356 . S
N748 C740 1.356 . S
N748 H754 0.984 . S
N748 H755 1.023 . S
N749 C742 1.356 . S
N749 H752 1.023 . S
N749 H753 0.985 . S
H750 N745 0.984 1_556 S
H751 N745 0.985 . S
H752 N749 1.023 . S
H753 N749 0.985 . S
H754 N748 0.984 . S
H755 N748 1.023 . S
H756 N744 0.984 . S
H757 N744 0.985 1_554 S
C758 C759 1.363 . S
C758 C764 1.379 . S
C758 N766 1.356 . S
C759 C758 1.363 . S
C759 C765 1.363 1_556 S
C760 C761 1.363 . S
C760 C765 1.379 . S
C760 N767 1.356 . S
C761 C760 1.363 . S
C761 C764 1.363 1_554 S
N762 C764 1.356 . S
N762 H774 0.984 . S
N762 H775 0.985 1_556 S
N763 C765 1.356 . S
N763 H768 0.984 1_554 S
N763 H769 0.985 . S
C764 C758 1.379 . S
C764 C761 1.363 1_556 S
C764 N762 1.356 . S
C765 C759 1.363 1_554 S
C765 C760 1.379 . S
C765 N763 1.356 . S
N766 C758 1.356 . S
N766 H772 0.984 . S
N766 H773 0.984 . S
N767 C760 1.356 . S
N767 H770 0.984 . S
N767 H771 0.985 . S
H768 N763 0.984 1_556 S
H769 N763 0.985 . S
H770 N767 0.984 . S
H771 N767 0.985 . S
H772 N766 0.984 . S
H773 N766 0.984 . S
H774 N762 0.984 . S
H775 N762 0.985 1_554 S
C776 C777 1.363 1_455 S
C776 C782 1.379 . S
C776 N784 1.356 . S
C777 C776 1.363 1_655 S
C777 C783 1.363 . S
C778 C779 1.363 1_655 S
C778 C783 1.379 . S
C778 N785 1.356 . S
C779 C778 1.363 1_455 S
C779 C782 1.363 . S
N780 C782 1.356 . S
N780 H792 0.984 . S
N780 H793 0.985 . S
N781 C783 1.356 . S
N781 H786 0.984 . S
N781 H787 0.985 . S
C782 C776 1.379 . S
C782 C779 1.363 . S
C782 N780 1.356 . S
C783 C777 1.363 . S
C783 C778 1.379 . S
C783 N781 1.356 . S
N784 C776 1.356 . S
N784 H790 0.984 . S
N784 H791 0.957 1_455 S
N785 C778 1.356 . S
N785 H788 0.957 1_655 S
N785 H789 0.985 . S
H786 N781 0.984 . S
H787 N781 0.985 . S
H788 N785 0.957 1_455 S
H789 N785 0.985 . S
H790 N784 0.984 . S
H791 N784 0.957 1_655 S
H792 N780 0.984 . S
H793 N780 0.985 . S
C794 C795 1.363 . S
C794 C800 1.379 . S
C794 N802 1.356 . S
C795 C794 1.363 . S
C795 C801 1.362 1_545 S
C796 C797 1.363 . S
C796 C801 1.380 . S
C796 N803 1.356 . S
C797 C796 1.363 . S
C797 C800 1.363 1_565 S
N798 C800 1.356 1_565 S
N798 H810 0.984 1_565 S
N798 H811 0.985 . S
N799 C801 1.356 1_545 S
N799 H804 0.984 . S
N799 H805 0.985 1_545 S
C800 C794 1.379 . S
C800 C797 1.363 1_545 S
C800 N798 1.356 1_545 S
C801 C795 1.362 1_565 S
C801 C796 1.380 . S
C801 N799 1.356 1_565 S
N802 C794 1.356 . S
N802 H808 0.984 . S
N802 H809 0.984 . S
N803 C796 1.356 . S
N803 H806 0.984 . S
N803 H807 0.985 . S
H804 N799 0.984 . S
H805 N799 0.985 1_565 S
H806 N803 0.984 . S
H807 N803 0.985 . S
H808 N802 0.984 . S
H809 N802 0.984 . S
H810 N798 0.984 1_545 S
H811 N798 0.985 . S
C812 C813 1.363 . S
C812 C818 1.379 . S
C812 N820 1.356 . S
C813 C812 1.363 . S
C813 C819 1.363 1_556 S
C814 C815 1.363 . S
C814 C819 1.379 . S
C814 N821 1.356 . S
C815 C814 1.363 . S
C815 C818 1.363 1_554 S
N816 C818 1.356 1_554 S
N816 H828 0.984 1_554 S
N816 H829 0.985 . S
N817 C819 1.356 1_556 S
N817 H822 0.984 . S
N817 H823 0.985 1_556 S
C818 C812 1.379 . S
C818 C815 1.363 1_556 S
C818 N816 1.356 1_556 S
C819 C813 1.363 1_554 S
C819 C814 1.379 . S
C819 N817 1.356 1_554 S
N820 C812 1.356 . S
N820 H826 0.984 . S
N820 H827 0.984 . S
N821 C814 1.356 . S
N821 H824 0.984 . S
N821 H825 0.985 . S
H822 N817 0.984 . S
H823 N817 0.985 1_554 S
H824 N821 0.984 . S
H825 N821 0.985 . S
H826 N820 0.984 . S
H827 N820 0.984 . S
H828 N816 0.984 1_556 S
H829 N816 0.985 . S
C830 C831 1.363 . S
C830 C836 1.379 . S
C830 N838 1.356 . S
C831 C830 1.363 . S
C831 C837 1.363 . S
C832 C833 1.363 . S
C832 C837 1.379 . S
C832 N839 1.356 . S
C833 C832 1.363 . S
C833 C836 1.363 . S
N834 C836 1.356 . S
N834 H846 0.984 . S
N834 H847 0.985 . S
N835 C837 1.356 . S
N835 H840 0.984 . S
N835 H841 0.985 . S
C836 C830 1.379 . S
C836 C833 1.363 . S
C836 N834 1.356 . S
C837 C831 1.363 . S
C837 C832 1.379 . S
C837 N835 1.356 . S
N838 C830 1.356 . S
N838 H844 0.984 . S
N838 H845 0.984 . S
N839 C832 1.356 . S
N839 H842 0.984 . S
N839 H843 0.985 . S
H840 N835 0.984 . S
H841 N835 0.985 . S
H842 N839 0.984 . S
H843 N839 0.985 . S
H844 N838 0.984 . S
H845 N838 0.984 . S
H846 N834 0.984 . S
H847 N834 0.985 . S
C848 C849 1.363 1_655 S
C848 C854 1.379 . S
C848 N856 1.356 . S
C849 C848 1.363 1_455 S
C849 C855 1.363 . S
C850 C851 1.363 1_455 S
C850 C855 1.379 . S
C850 N857 1.356 . S
C851 C850 1.363 1_655 S
C851 C854 1.363 . S
N852 C854 1.356 . S
N852 H864 0.984 . S
N852 H865 0.985 . S
N853 C855 1.356 . S
N853 H858 0.984 . S
N853 H859 0.985 . S
C854 C848 1.379 . S
C854 C851 1.363 . S
C854 N852 1.356 . S
C855 C849 1.363 . S
C855 C850 1.379 . S
C855 N853 1.356 . S
N856 C848 1.356 . S
N856 H862 0.984 . S
N856 H863 0.984 1_655 S
N857 C850 1.356 . S
N857 H860 0.984 1_455 S
N857 H861 0.985 . S
H858 N853 0.984 . S
H859 N853 0.985 . S
H860 N857 0.984 1_655 S
H861 N857 0.985 . S
H862 N856 0.984 . S
H863 N856 0.984 1_455 S
H864 N852 0.984 . S
H865 N852 0.985 . S
C866 C867 1.363 . S
C866 C872 1.379 . S
C866 N874 1.356 . S
C867 C866 1.363 . S
C867 C873 1.363 . S
C868 C869 1.363 . S
C868 C873 1.379 . S
C868 N875 1.356 . S
C869 C868 1.363 . S
C869 C872 1.363 . S
N870 C872 1.356 . S
N870 H882 0.984 . S
N870 H883 0.985 . S
N871 C873 1.356 . S
N871 H876 0.984 . S
N871 H877 0.985 . S
C872 C866 1.379 . S
C872 C869 1.363 . S
C872 N870 1.356 . S
C873 C867 1.363 . S
C873 C868 1.379 . S
C873 N871 1.356 . S
N874 C866 1.356 . S
N874 H880 0.984 . S
N874 H881 0.984 . S
N875 C868 1.356 . S
N875 H878 0.984 . S
N875 H879 0.985 . S
H876 N871 0.984 . S
H877 N871 0.985 . S
H878 N875 0.984 . S
H879 N875 0.985 . S
H880 N874 0.984 . S
H881 N874 0.984 . S
H882 N870 0.984 . S
H883 N870 0.985 . S
C884 C885 1.363 . S
C884 C890 1.379 . S
C884 N892 1.356 . S
C885 C884 1.363 . S
C885 C891 1.363 . S
C886 C887 1.363 . S
C886 C891 1.379 . S
C886 N893 1.356 . S
C887 C886 1.363 . S
C887 C890 1.363 . S
N888 C890 1.356 . S
N888 H900 0.984 . S
N888 H901 0.985 . S
N889 C891 1.356 . S
N889 H894 0.984 . S
N889 H895 0.985 . S
C890 C884 1.379 . S
C890 C887 1.363 . S
C890 N888 1.356 . S
C891 C885 1.363 . S
C891 C886 1.379 . S
C891 N889 1.356 . S
N892 C884 1.356 . S
N892 H898 0.984 . S
N892 H899 0.984 . S
N893 C886 1.356 . S
N893 H896 0.984 . S
N893 H897 0.985 . S
H894 N889 0.984 . S
H895 N889 0.985 . S
H896 N893 0.984 . S
H897 N893 0.985 . S
H898 N892 0.984 . S
H899 N892 0.984 . S
H900 N888 0.984 . S
H901 N888 0.985 . S
C902 C903 1.363 . S
C902 C908 1.379 . S
C902 N910 1.356 . S
C903 C902 1.363 . S
C903 C909 1.363 . S
C904 C905 1.363 . S
C904 C909 1.379 . S
C904 N911 1.356 . S
C905 C904 1.363 . S
C905 C908 1.363 . S
N906 C908 1.356 . S
N906 H918 0.984 . S
N906 H919 0.985 . S
N907 C909 1.356 . S
N907 H912 0.984 . S
N907 H913 0.985 . S
C908 C902 1.379 . S
C908 C905 1.363 . S
C908 N906 1.356 . S
C909 C903 1.363 . S
C909 C904 1.379 . S
C909 N907 1.356 . S
N910 C902 1.356 . S
N910 H916 0.984 . S
N910 H917 0.984 . S
N911 C904 1.356 . S
N911 H914 0.984 . S
N911 H915 0.985 . S
H912 N907 0.984 . S
H913 N907 0.985 . S
H914 N911 0.984 . S
H915 N911 0.985 . S
H916 N910 0.984 . S
H917 N910 0.984 . S
H918 N906 0.984 . S
H919 N906 0.985 . S
C920 C921 1.363 . S
C920 C926 1.379 . S
C920 N928 1.356 . S
C921 C920 1.363 . S
C921 C927 1.363 . S
C922 C923 1.363 . S
C922 C927 1.379 . S
C922 N929 1.356 . S
C923 C922 1.363 . S
C923 C926 1.363 . S
N924 C926 1.356 . S
N924 H936 0.984 . S
N924 H937 0.985 . S
N925 C927 1.356 . S
N925 H930 0.984 . S
N925 H931 0.985 . S
C926 C920 1.379 . S
C926 C923 1.363 . S
C926 N924 1.356 . S
C927 C921 1.363 . S
C927 C922 1.379 . S
C927 N925 1.356 . S
N928 C920 1.356 . S
N928 H934 0.984 . S
N928 H935 0.984 . S
N929 C922 1.356 . S
N929 H932 0.984 . S
N929 H933 0.985 . S
H930 N925 0.984 . S
H931 N925 0.985 . S
H932 N929 0.984 . S
H933 N929 0.985 . S
H934 N928 0.984 . S
H935 N928 0.984 . S
H936 N924 0.984 . S
H937 N924 0.985 . S
C938 C939 1.363 1_545 S
C938 C944 1.379 . S
C938 N946 1.356 . S
C939 C938 1.363 1_565 S
C939 C945 1.363 . S
C940 C941 1.363 1_565 S
C940 C945 1.379 . S
C940 N947 1.356 . S
C941 C940 1.363 1_545 S
C941 C944 1.363 . S
N942 C944 1.356 . S
N942 H954 0.984 . S
N942 H955 0.985 . S
N943 C945 1.356 . S
N943 H948 0.984 . S
N943 H949 0.985 . S
C944 C938 1.379 . S
C944 C941 1.363 . S
C944 N942 1.356 . S
C945 C939 1.363 . S
C945 C940 1.379 . S
C945 N943 1.356 . S
N946 C938 1.356 . S
N946 H952 0.984 . S
N946 H953 0.984 1_545 S
N947 C940 1.356 . S
N947 H950 0.984 1_565 S
N947 H951 0.985 . S
H948 N943 0.984 . S
H949 N943 0.985 . S
H950 N947 0.984 1_545 S
H951 N947 0.985 . S
H952 N946 0.984 . S
H953 N946 0.984 1_565 S
H954 N942 0.984 . S
H955 N942 0.985 . S
C956 C957 1.363 . S
C956 C962 1.379 . S
C956 N964 1.356 . S
C957 C956 1.363 . S
C957 C963 1.363 . S
C958 C959 1.363 . S
C958 C963 1.379 . S
C958 N965 1.356 . S
C959 C958 1.363 . S
C959 C962 1.363 . S
N960 C962 1.356 . S
N960 H972 0.984 . S
N960 H973 0.985 . S
N961 C963 1.356 . S
N961 H966 0.984 . S
N961 H967 0.985 . S
C962 C956 1.379 . S
C962 C959 1.363 . S
C962 N960 1.356 . S
C963 C957 1.363 . S
C963 C958 1.379 . S
C963 N961 1.356 . S
N964 C956 1.356 . S
N964 H970 0.984 . S
N964 H971 0.984 . S
N965 C958 1.356 . S
N965 H968 0.984 . S
N965 H969 0.985 . S
H966 N961 0.984 . S
H967 N961 0.985 . S
H968 N965 0.984 . S
H969 N965 0.985 . S
H970 N964 0.984 . S
H971 N964 0.984 . S
H972 N960 0.984 . S
H973 N960 0.985 . S
C974 C975 1.363 . S
C974 C980 1.395 . S
C974 N982 1.356 . S
C975 C974 1.363 . S
C975 C981 1.346 1_554 S
C976 C977 1.363 . S
C976 C981 1.395 . S
C976 N983 1.356 . S
C977 C976 1.363 . S
C977 C980 1.346 1_556 S
N978 C980 1.352 1_556 S
N978 H990 0.984 1_556 S
N978 H991 0.985 . S
N979 C981 1.352 1_554 S
N979 H984 0.984 . S
N979 H985 0.985 1_554 S
C980 C974 1.395 . S
C980 C977 1.346 1_554 S
C980 N978 1.352 1_554 S
C981 C975 1.346 1_556 S
C981 C976 1.395 . S
C981 N979 1.352 1_556 S
N982 C974 1.356 . S
N982 H988 0.984 . S
N982 H989 0.984 . S
N983 C976 1.356 . S
N983 H986 0.984 . S
N983 H987 0.985 . S
H984 N979 0.984 . S
H985 N979 0.985 1_556 S
H986 N983 0.984 . S
H987 N983 0.985 . S
H988 N982 0.984 . S
H989 N982 0.984 . S
H990 N978 0.984 1_554 S
H991 N978 0.985 . S
C992 C993 1.363 . S
C992 C998 1.379 . S
C992 N1000 1.356 . S
C993 C992 1.363 . S
C993 C999 1.363 . S
C994 C995 1.363 . S
C994 C999 1.379 . S
C994 N1001 1.356 . S
C995 C994 1.363 . S
C995 C998 1.363 . S
N996 C998 1.356 . S
N996 H1008 0.984 . S
N996 H1009 0.985 . S
N997 C999 1.356 . S
N997 H1002 0.984 . S
N997 H1003 0.985 . S
C998 C992 1.379 . S
C998 C995 1.363 . S
C998 N996 1.356 . S
C999 C993 1.363 . S
C999 C994 1.379 . S
C999 N997 1.356 . S
N1000 C992 1.356 . S
N1000 H1006 0.984 . S
N1000 H1007 0.984 . S
N1001 C994 1.356 . S
N1001 H1004 0.984 . S
N1001 H1005 0.985 . S
H1002 N997 0.984 . S
H1003 N997 0.985 . S
H1004 N1001 0.984 . S
H1005 N1001 0.985 . S
H1006 N1000 0.984 . S
H1007 N1000 0.984 . S
H1008 N996 0.984 . S
H1009 N996 0.985 . S
C1010 C1011 1.363 . S
C1010 C1016 1.379 . S
C1010 N1018 1.356 . S
C1011 C1010 1.363 . S
C1011 C1017 1.363 . S
C1012 C1013 1.363 . S
C1012 C1017 1.379 . S
C1012 N1019 1.356 . S
C1013 C1012 1.363 . S
C1013 C1016 1.363 . S
N1014 C1016 1.356 1_545 S
N1014 H1026 0.984 . S
N1014 H1027 0.985 . S
N1015 C1017 1.356 . S
N1015 H1020 0.984 . S
N1015 H1021 0.985 . S
C1016 C1010 1.379 . S
C1016 C1013 1.363 . S
C1016 N1014 1.356 1_565 S
C1017 C1011 1.363 . S
C1017 C1012 1.379 . S
C1017 N1015 1.356 . S
N1018 C1010 1.356 . S
N1018 H1024 0.984 . S
N1018 H1025 0.984 . S
N1019 C1012 1.356 . S
N1019 H1022 0.984 . S
N1019 H1023 0.985 . S
H1020 N1015 0.984 . S
H1021 N1015 0.985 . S
H1022 N1019 0.984 . S
H1023 N1019 0.985 . S
H1024 N1018 0.984 . S
H1025 N1018 0.984 . S
H1026 N1014 0.984 . S
H1027 N1014 0.985 . S
C1028 C1029 1.363 . S
C1028 C1034 1.379 . S
C1028 N1036 1.356 . S
C1029 C1028 1.363 . S
C1029 C1035 1.363 . S
C1030 C1031 1.363 . S
C1030 C1035 1.379 . S
C1030 N1037 1.356 . S
C1031 C1030 1.363 . S
C1031 C1034 1.363 . S
N1032 C1034 1.356 . S
N1032 H1044 0.984 . S
N1032 H1045 0.985 . S
N1033 C1035 1.356 . S
N1033 H1038 0.984 1_565 S
N1033 H1039 0.984 1_565 S
C1034 C1028 1.379 . S
C1034 C1031 1.363 . S
C1034 N1032 1.356 . S
C1035 C1029 1.363 . S
C1035 C1030 1.379 . S
C1035 N1033 1.356 . S
N1036 C1028 1.356 . S
N1036 H1042 0.984 . S
N1036 H1043 0.984 . S
N1037 C1030 1.356 . S
N1037 H1040 0.984 . S
N1037 H1041 0.985 . S
H1038 N1033 0.984 1_545 S
H1039 N1033 0.984 1_545 S
H1040 N1037 0.984 . S
H1041 N1037 0.985 . S
H1042 N1036 0.984 . S
H1043 N1036 0.984 . S
H1044 N1032 0.984 . S
H1045 N1032 0.985 . S
C1046 C1047 1.363 . S
C1046 C1052 1.379 . S
C1046 N1054 1.356 . S
C1047 C1046 1.363 . S
C1047 C1053 1.363 . S
C1048 C1049 1.363 . S
C1048 C1053 1.379 . S
C1048 N1055 1.356 . S
C1049 C1048 1.363 . S
C1049 C1052 1.363 . S
N1050 C1052 1.356 . S
N1050 H1062 0.984 . S
N1050 H1063 0.985 . S
N1051 C1053 1.356 . S
N1051 H1056 0.984 . S
N1051 H1057 0.985 . S
C1052 C1046 1.379 . S
C1052 C1049 1.363 . S
C1052 N1050 1.356 . S
C1053 C1047 1.363 . S
C1053 C1048 1.379 . S
C1053 N1051 1.356 . S
N1054 C1046 1.356 . S
N1054 H1060 0.984 . S
N1054 H1061 0.984 . S
N1055 C1048 1.356 . S
N1055 H1058 0.984 . S
N1055 H1059 0.985 . S
H1056 N1051 0.984 . S
H1057 N1051 0.985 . S
H1058 N1055 0.984 . S
H1059 N1055 0.985 . S
H1060 N1054 0.984 . S
H1061 N1054 0.984 . S
H1062 N1050 0.984 . S
H1063 N1050 0.985 . S
C1064 C1065 1.363 . S
C1064 C1070 1.379 . S
C1064 N1072 1.356 . S
C1065 C1064 1.363 . S
C1065 C1071 1.363 . S
C1066 C1067 1.363 . S
C1066 C1071 1.379 . S
C1066 N1073 1.356 . S
C1067 C1066 1.363 . S
C1067 C1070 1.363 . S
N1068 C1070 1.356 . S
N1068 H1080 0.984 . S
N1068 H1081 0.985 . S
N1069 C1071 1.356 . S
N1069 H1074 0.984 . S
N1069 H1075 0.985 . S
C1070 C1064 1.379 . S
C1070 C1067 1.363 . S
C1070 N1068 1.356 . S
C1071 C1065 1.363 . S
C1071 C1066 1.379 . S
C1071 N1069 1.356 . S
N1072 C1064 1.356 . S
N1072 H1078 0.984 . S
N1072 H1079 0.984 . S
N1073 C1066 1.356 . S
N1073 H1076 0.984 . S
N1073 H1077 0.985 . S
H1074 N1069 0.984 . S
H1075 N1069 0.985 . S
H1076 N1073 0.984 . S
H1077 N1073 0.985 . S
H1078 N1072 0.984 . S
H1079 N1072 0.984 . S
H1080 N1068 0.984 . S
H1081 N1068 0.985 . S
C1082 C1083 1.363 . S
C1082 C1088 1.379 . S
C1082 N1090 1.356 1_545 S
C1083 C1082 1.363 . S
C1083 C1089 1.363 . S
C1084 C1085 1.363 . S
C1084 C1089 1.379 . S
C1084 N1091 1.356 . S
C1085 C1084 1.363 . S
C1085 C1088 1.363 . S
N1086 C1088 1.356 . S
N1086 H1098 0.984 . S
N1086 H1099 0.985 . S
N1087 C1089 1.356 . S
N1087 H1092 0.984 . S
N1087 H1093 0.985 . S
C1088 C1082 1.379 . S
C1088 C1085 1.363 . S
C1088 N1086 1.356 . S
C1089 C1083 1.363 . S
C1089 C1084 1.379 . S
C1089 N1087 1.356 . S
N1090 C1082 1.356 1_565 S
N1090 H1096 0.984 . S
N1090 H1097 0.984 . S
N1091 C1084 1.356 . S
N1091 H1094 0.984 . S
N1091 H1095 0.985 . S
H1092 N1087 0.984 . S
H1093 N1087 0.985 . S
H1094 N1091 0.984 . S
H1095 N1091 0.985 . S
H1096 N1090 0.984 . S
H1097 N1090 0.984 . S
H1098 N1086 0.984 . S
H1099 N1086 0.985 . S
C1100 C1101 1.363 . S
C1100 C1106 1.379 . S
C1100 N1108 1.356 . S
C1101 C1100 1.363 . S
C1101 C1107 1.363 . S
C1102 C1103 1.363 . S
C1102 C1107 1.379 . S
C1102 N1109 1.356 . S
C1103 C1102 1.363 . S
C1103 C1106 1.363 . S
N1104 C1106 1.356 . S
N1104 H1116 0.984 . S
N1104 H1117 0.985 . S
N1105 C1107 1.356 . S
N1105 H1110 0.984 . S
N1105 H1111 0.985 . S
C1106 C1100 1.379 . S
C1106 C1103 1.363 . S
C1106 N1104 1.356 . S
C1107 C1101 1.363 . S
C1107 C1102 1.379 . S
C1107 N1105 1.356 . S
N1108 C1100 1.356 . S
N1108 H1114 0.984 . S
N1108 H1115 0.984 . S
N1109 C1102 1.356 . S
N1109 H1112 0.984 1_545 S
N1109 H1113 0.985 . S
H1110 N1105 0.984 . S
H1111 N1105 0.985 . S
H1112 N1109 0.984 1_565 S
H1113 N1109 0.985 . S
H1114 N1108 0.984 . S
H1115 N1108 0.984 . S
H1116 N1104 0.984 . S
H1117 N1104 0.985 . S
C1118 C1119 1.363 . S
C1118 C1124 1.379 . S
C1118 N1126 1.356 . S
C1119 C1118 1.363 . S
C1119 C1125 1.363 . S
C1120 C1121 1.363 . S
C1120 C1125 1.379 . S
C1120 N1127 1.356 . S
C1121 C1120 1.363 . S
C1121 C1124 1.363 . S
N1122 C1124 1.356 . S
N1122 H1134 0.984 . S
N1122 H1135 0.985 . S
N1123 C1125 1.356 . S
N1123 H1128 0.984 . S
N1123 H1129 0.985 . S
C1124 C1118 1.379 . S
C1124 C1121 1.363 . S
C1124 N1122 1.356 . S
C1125 C1119 1.363 . S
C1125 C1120 1.379 . S
C1125 N1123 1.356 . S
N1126 C1118 1.356 . S
N1126 H1132 0.984 . S
N1126 H1133 0.984 . S
N1127 C1120 1.356 . S
N1127 H1130 0.984 . S
N1127 H1131 0.985 . S
H1128 N1123 0.984 . S
H1129 N1123 0.985 . S
H1130 N1127 0.984 . S
H1131 N1127 0.985 . S
H1132 N1126 0.984 . S
H1133 N1126 0.984 . S
H1134 N1122 0.984 . S
H1135 N1122 0.985 . S
C1136 C1137 1.363 . S
C1136 C1142 1.379 . S
C1136 N1144 1.356 . S
C1137 C1136 1.363 . S
C1137 C1143 1.363 . S
C1138 C1139 1.363 . S
C1138 C1143 1.379 . S
C1138 N1145 1.356 . S
C1139 C1138 1.363 . S
C1139 C1142 1.363 . S
N1140 C1142 1.356 . S
N1140 H1152 0.984 . S
N1140 H1153 0.985 . S
N1141 C1143 1.356 . S
N1141 H1146 0.984 . S
N1141 H1147 0.985 . S
C1142 C1136 1.379 . S
C1142 C1139 1.363 . S
C1142 N1140 1.356 . S
C1143 C1137 1.363 . S
C1143 C1138 1.379 . S
C1143 N1141 1.356 . S
N1144 C1136 1.356 . S
N1144 H1150 0.984 . S
N1144 H1151 0.984 . S
N1145 C1138 1.356 . S
N1145 H1148 0.984 . S
N1145 H1149 0.985 . S
H1146 N1141 0.984 . S
H1147 N1141 0.985 . S
H1148 N1145 0.984 . S
H1149 N1145 0.985 . S
H1150 N1144 0.984 . S
H1151 N1144 0.984 . S
H1152 N1140 0.984 . S
H1153 N1140 0.985 . S
C1154 C1155 1.363 . S
C1154 C1160 1.379 . S
C1154 N1162 1.356 . S
C1155 C1154 1.363 . S
C1155 C1161 1.363 . S
C1156 C1157 1.363 . S
C1156 C1161 1.379 . S
C1156 N1163 1.356 . S
C1157 C1156 1.363 . S
C1157 C1160 1.363 . S
N1158 C1160 1.356 1_545 S
N1158 H1170 0.984 . S
N1158 H1171 0.985 . S
N1159 C1161 1.356 . S
N1159 H1164 0.984 . S
N1159 H1165 0.985 . S
C1160 C1154 1.379 . S
C1160 C1157 1.363 . S
C1160 N1158 1.356 1_565 S
C1161 C1155 1.363 . S
C1161 C1156 1.379 . S
C1161 N1159 1.356 . S
N1162 C1154 1.356 . S
N1162 H1168 0.984 . S
N1162 H1169 0.984 . S
N1163 C1156 1.356 . S
N1163 H1166 0.984 . S
N1163 H1167 0.985 . S
H1164 N1159 0.984 . S
H1165 N1159 0.985 . S
H1166 N1163 0.984 . S
H1167 N1163 0.985 . S
H1168 N1162 0.984 . S
H1169 N1162 0.984 . S
H1170 N1158 0.984 . S
H1171 N1158 0.985 . S
C1172 C1173 1.363 . S
C1172 C1178 1.379 . S
C1172 N1180 1.356 . S
C1173 C1172 1.363 . S
C1173 C1179 1.363 . S
C1174 C1175 1.363 . S
C1174 C1179 1.379 . S
C1174 N1181 1.356 . S
C1175 C1174 1.363 . S
C1175 C1178 1.363 . S
N1176 C1178 1.356 . S
N1176 H1188 0.984 . S
N1176 H1189 0.985 1_565 S
N1177 C1179 1.356 . S
N1177 H1182 0.984 . S
N1177 H1183 0.985 . S
C1178 C1172 1.379 . S
C1178 C1175 1.363 . S
C1178 N1176 1.356 . S
C1179 C1173 1.363 . S
C1179 C1174 1.379 . S
C1179 N1177 1.356 . S
N1180 C1172 1.356 . S
N1180 H1186 0.984 . S
N1180 H1187 0.984 . S
N1181 C1174 1.356 . S
N1181 H1184 0.984 . S
N1181 H1185 0.985 . S
H1182 N1177 0.984 . S
H1183 N1177 0.985 . S
H1184 N1181 0.984 . S
H1185 N1181 0.985 . S
H1186 N1180 0.984 . S
H1187 N1180 0.984 . S
H1188 N1176 0.984 . S
H1189 N1176 0.985 1_545 S
C1190 C1191 1.363 . S
C1190 C1196 1.379 . S
C1190 N1198 1.356 . S
C1191 C1190 1.363 . S
C1191 C1197 1.363 . S
C1192 C1193 1.363 . S
C1192 C1197 1.379 . S
C1192 N1199 1.356 . S
C1193 C1192 1.363 . S
C1193 C1196 1.363 . S
N1194 C1196 1.356 . S
N1194 H1206 0.984 . S
N1194 H1207 0.985 . S
N1195 C1197 1.356 . S
N1195 H1200 0.984 . S
N1195 H1201 0.985 . S
C1196 C1190 1.379 . S
C1196 C1193 1.363 . S
C1196 N1194 1.356 . S
C1197 C1191 1.363 . S
C1197 C1192 1.379 . S
C1197 N1195 1.356 . S
N1198 C1190 1.356 . S
N1198 H1204 0.984 . S
N1198 H1205 0.984 . S
N1199 C1192 1.356 . S
N1199 H1202 0.984 . S
N1199 H1203 0.985 . S
H1200 N1195 0.984 . S
H1201 N1195 0.985 . S
H1202 N1199 0.984 . S
H1203 N1199 0.985 . S
H1204 N1198 0.984 . S
H1205 N1198 0.984 . S
H1206 N1194 0.984 . S
H1207 N1194 0.985 . S
C1208 C1209 1.363 . S
C1208 C1214 1.379 . S
C1208 N1216 1.356 . S
C1209 C1208 1.363 . S
C1209 C1215 1.363 . S
C1210 C1211 1.363 . S
C1210 C1215 1.379 . S
C1210 N1217 1.356 . S
C1211 C1210 1.363 . S
C1211 C1214 1.363 . S
N1212 C1214 1.356 . S
N1212 H1224 0.984 . S
N1212 H1225 0.985 . S
N1213 C1215 1.356 . S
N1213 H1218 0.984 . S
N1213 H1219 0.985 . S
C1214 C1208 1.379 . S
C1214 C1211 1.363 . S
C1214 N1212 1.356 . S
C1215 C1209 1.363 . S
C1215 C1210 1.379 . S
C1215 N1213 1.356 . S
N1216 C1208 1.356 . S
N1216 H1222 0.984 . S
N1216 H1223 0.984 . S
N1217 C1210 1.356 . S
N1217 H1220 0.984 . S
N1217 H1221 0.985 . S
H1218 N1213 0.984 . S
H1219 N1213 0.985 . S
H1220 N1217 0.984 . S
H1221 N1217 0.985 . S
H1222 N1216 0.984 . S
H1223 N1216 0.984 . S
H1224 N1212 0.984 . S
H1225 N1212 0.985 . S
C1226 C1227 1.363 . S
C1226 C1232 1.379 . S
C1226 N1234 1.356 . S
C1227 C1226 1.363 . S
C1227 C1233 1.363 . S
C1228 C1229 1.363 . S
C1228 C1233 1.379 . S
C1228 N1235 1.356 . S
C1229 C1228 1.363 . S
C1229 C1232 1.363 . S
N1230 C1232 1.356 . S
N1230 H1242 0.984 . S
N1230 H1243 0.985 . S
N1231 C1233 1.356 . S
N1231 H1236 0.984 1_545 S
N1231 H1237 0.985 . S
C1232 C1226 1.379 . S
C1232 C1229 1.363 . S
C1232 N1230 1.356 . S
C1233 C1227 1.363 . S
C1233 C1228 1.379 . S
C1233 N1231 1.356 . S
N1234 C1226 1.356 . S
N1234 H1240 0.984 . S
N1234 H1241 0.984 . S
N1235 C1228 1.356 . S
N1235 H1238 0.984 . S
N1235 H1239 0.985 . S
H1236 N1231 0.984 1_565 S
H1237 N1231 0.985 . S
H1238 N1235 0.984 . S
H1239 N1235 0.985 . S
H1240 N1234 0.984 . S
H1241 N1234 0.984 . S
H1242 N1230 0.984 . S
H1243 N1230 0.985 . S
C1244 C1245 1.363 . S
C1244 C1250 1.379 . S
C1244 N1252 1.356 . S
C1245 C1244 1.363 . S
C1245 C1251 1.363 . S
C1246 C1247 1.363 . S
C1246 C1251 1.379 . S
C1246 N1253 1.356 1_545 S
C1247 C1246 1.363 . S
C1247 C1250 1.363 . S
N1248 C1250 1.356 . S
N1248 H1260 0.984 . S
N1248 H1261 0.985 . S
N1249 C1251 1.356 . S
N1249 H1254 0.984 . S
N1249 H1255 0.985 . S
C1250 C1244 1.379 . S
C1250 C1247 1.363 . S
C1250 N1248 1.356 . S
C1251 C1245 1.363 . S
C1251 C1246 1.379 . S
C1251 N1249 1.356 . S
N1252 C1244 1.356 . S
N1252 H1258 0.984 . S
N1252 H1259 0.984 . S
N1253 C1246 1.356 1_565 S
N1253 H1256 0.984 . S
N1253 H1257 0.985 . S
H1254 N1249 0.984 . S
H1255 N1249 0.985 . S
H1256 N1253 0.984 . S
H1257 N1253 0.985 . S
H1258 N1252 0.984 . S
H1259 N1252 0.984 . S
H1260 N1248 0.984 . S
H1261 N1248 0.985 . S
C1262 C1263 1.363 . S
C1262 C1268 1.379 . S
C1262 N1270 1.356 . S
C1263 C1262 1.363 . S
C1263 C1269 1.363 . S
C1264 C1265 1.363 . S
C1264 C1269 1.379 . S
C1264 N1271 1.356 . S
C1265 C1264 1.363 . S
C1265 C1268 1.363 . S
N1266 C1268 1.356 . S
N1266 H1278 0.984 . S
N1266 H1279 0.985 . S
N1267 C1269 1.356 . S
N1267 H1272 0.984 . S
N1267 H1273 0.985 . S
C1268 C1262 1.379 . S
C1268 C1265 1.363 . S
C1268 N1266 1.356 . S
C1269 C1263 1.363 . S
C1269 C1264 1.379 . S
C1269 N1267 1.356 . S
N1270 C1262 1.356 . S
N1270 H1276 0.984 . S
N1270 H1277 0.984 . S
N1271 C1264 1.356 . S
N1271 H1274 0.984 . S
N1271 H1275 0.985 . S
H1272 N1267 0.984 . S
H1273 N1267 0.985 . S
H1274 N1271 0.984 . S
H1275 N1271 0.985 . S
H1276 N1270 0.984 . S
H1277 N1270 0.984 . S
H1278 N1266 0.984 . S
H1279 N1266 0.985 . S
C1280 C1281 1.363 . S
C1280 C1286 1.379 . S
C1280 N1288 1.356 . S
C1281 C1280 1.363 . S
C1281 C1287 1.363 . S
C1282 C1283 1.363 . S
C1282 C1287 1.379 . S
C1282 N1289 1.356 . S
C1283 C1282 1.363 . S
C1283 C1286 1.363 . S
N1284 C1286 1.356 . S
N1284 H1296 0.940 1_465 S
N1284 H1297 0.985 1_565 S
N1285 C1287 1.356 . S
N1285 H1290 0.984 . S
N1285 H1291 0.985 . S
C1286 C1280 1.379 . S
C1286 C1283 1.363 . S
C1286 N1284 1.356 . S
C1287 C1281 1.363 . S
C1287 C1282 1.379 . S
C1287 N1285 1.356 . S
N1288 C1280 1.356 . S
N1288 H1294 0.940 1_455 S
N1288 H1295 0.984 . S
N1289 C1282 1.356 . S
N1289 H1292 0.984 . S
N1289 H1293 0.985 . S
H1290 N1285 0.984 . S
H1291 N1285 0.985 . S
H1292 N1289 0.984 . S
H1293 N1289 0.985 . S
H1294 N1288 0.940 1_655 S
H1295 N1288 0.984 . S
H1296 N1284 0.940 1_645 S
H1297 N1284 0.985 1_545 S
C1298 C1299 1.363 . S
C1298 C1304 1.379 . S
C1298 N1306 1.356 . S
C1299 C1298 1.363 . S
C1299 C1305 1.363 . S
C1300 C1301 1.363 . S
C1300 C1305 1.379 . S
C1300 N1307 1.356 . S
C1301 C1300 1.363 . S
C1301 C1304 1.363 . S
N1302 C1304 1.356 . S
N1302 H1314 0.984 . S
N1302 H1315 0.985 . S
N1303 C1305 1.356 . S
N1303 H1308 0.984 . S
N1303 H1309 0.985 . S
C1304 C1298 1.379 . S
C1304 C1301 1.363 . S
C1304 N1302 1.356 . S
C1305 C1299 1.363 . S
C1305 C1300 1.379 . S
C1305 N1303 1.356 . S
N1306 C1298 1.356 . S
N1306 H1312 0.984 . S
N1306 H1313 0.984 . S
N1307 C1300 1.356 . S
N1307 H1310 0.984 . S
N1307 H1311 0.985 . S
H1308 N1303 0.984 . S
H1309 N1303 0.985 . S
H1310 N1307 0.984 . S
H1311 N1307 0.985 . S
H1312 N1306 0.984 . S
H1313 N1306 0.984 . S
H1314 N1302 0.984 . S
H1315 N1302 0.985 . S
C1316 C1317 1.363 . S
C1316 C1322 1.379 . S
C1316 N1324 1.356 . S
C1317 C1316 1.363 . S
C1317 C1323 1.363 . S
C1318 C1319 1.363 . S
C1318 C1323 1.379 . S
C1318 N1325 1.356 . S
C1319 C1318 1.363 . S
C1319 C1322 1.363 . S
N1320 C1322 1.356 . S
N1320 H1332 0.984 1_455 S
N1320 H1333 0.985 . S
N1321 C1323 1.356 . S
N1321 H1326 0.984 . S
N1321 H1327 0.985 . S
C1322 C1316 1.379 . S
C1322 C1319 1.363 . S
C1322 N1320 1.356 . S
C1323 C1317 1.363 . S
C1323 C1318 1.379 . S
C1323 N1321 1.356 . S
N1324 C1316 1.356 . S
N1324 H1330 0.984 1_455 S
N1324 H1331 0.984 . S
N1325 C1318 1.356 . S
N1325 H1328 0.984 . S
N1325 H1329 0.985 . S
H1326 N1321 0.984 . S
H1327 N1321 0.985 . S
H1328 N1325 0.984 . S
H1329 N1325 0.985 . S
H1330 N1324 0.984 1_655 S
H1331 N1324 0.984 . S
H1332 N1320 0.984 1_655 S
H1333 N1320 0.985 . S
C1334 C1335 1.363 . S
C1334 C1340 1.379 . S
C1334 N1342 1.356 . S
C1335 C1334 1.363 . S
C1335 C1341 1.363 . S
C1336 C1337 1.363 . S
C1336 C1341 1.379 . S
C1336 N1343 1.356 . S
C1337 C1336 1.363 . S
C1337 C1340 1.363 . S
N1338 C1340 1.356 . S
N1338 H1350 0.984 . S
N1338 H1351 0.985 . S
N1339 C1341 1.356 . S
N1339 H1344 0.984 . S
N1339 H1345 0.985 . S
C1340 C1334 1.379 . S
C1340 C1337 1.363 . S
C1340 N1338 1.356 . S
C1341 C1335 1.363 . S
C1341 C1336 1.379 . S
C1341 N1339 1.356 . S
N1342 C1334 1.356 . S
N1342 H1348 0.984 1_565 S
N1342 H1349 0.984 1_565 S
N1343 C1336 1.356 . S
N1343 H1346 0.984 . S
N1343 H1347 0.985 . S
H1344 N1339 0.984 . S
H1345 N1339 0.985 . S
H1346 N1343 0.984 . S
H1347 N1343 0.985 . S
H1348 N1342 0.984 1_545 S
H1349 N1342 0.984 1_545 S
H1350 N1338 0.984 . S
H1351 N1338 0.985 . S
C1352 C1353 1.363 . S
C1352 C1358 1.379 . S
C1352 N1360 1.356 . S
C1353 C1352 1.363 . S
C1353 C1359 1.363 . S
C1354 C1355 1.363 . S
C1354 C1359 1.379 . S
C1354 N1361 1.356 . S
C1355 C1354 1.363 . S
C1355 C1358 1.363 . S
N1356 C1358 1.356 1_565 S
N1356 H1368 0.984 . S
N1356 H1369 0.985 . S
N1357 C1359 1.356 . S
N1357 H1362 0.984 . S
N1357 H1363 0.985 . S
C1358 C1352 1.379 . S
C1358 C1355 1.363 . S
C1358 N1356 1.356 1_545 S
C1359 C1353 1.363 . S
C1359 C1354 1.379 . S
C1359 N1357 1.356 . S
N1360 C1352 1.356 . S
N1360 H1366 0.984 . S
N1360 H1367 0.984 . S
N1361 C1354 1.356 . S
N1361 H1364 0.984 . S
N1361 H1365 0.985 . S
H1362 N1357 0.984 . S
H1363 N1357 0.985 . S
H1364 N1361 0.984 . S
H1365 N1361 0.985 . S
H1366 N1360 0.984 . S
H1367 N1360 0.984 . S
H1368 N1356 0.984 . S
H1369 N1356 0.985 . S
C1370 C1371 1.363 . S
C1370 C1376 1.379 . S
C1370 N1378 1.356 . S
C1371 C1370 1.363 . S
C1371 C1377 1.363 . S
C1372 C1373 1.363 . S
C1372 C1377 1.379 . S
C1372 N1379 1.356 . S
C1373 C1372 1.363 . S
C1373 C1376 1.363 . S
N1374 C1376 1.356 . S
N1374 H1386 0.984 . S
N1374 H1387 0.985 . S
N1375 C1377 1.356 . S
N1375 H1380 0.984 . S
N1375 H1381 0.985 . S
C1376 C1370 1.379 . S
C1376 C1373 1.363 . S
C1376 N1374 1.356 . S
C1377 C1371 1.363 . S
C1377 C1372 1.379 . S
C1377 N1375 1.356 . S
N1378 C1370 1.356 . S
N1378 H1384 0.984 . S
N1378 H1385 0.984 . S
N1379 C1372 1.356 . S
N1379 H1382 0.984 . S
N1379 H1383 0.985 . S
H1380 N1375 0.984 . S
H1381 N1375 0.985 . S
H1382 N1379 0.984 . S
H1383 N1379 0.985 . S
H1384 N1378 0.984 . S
H1385 N1378 0.984 . S
H1386 N1374 0.984 . S
H1387 N1374 0.985 . S
C1388 C1389 1.363 . S
C1388 C1394 1.379 . S
C1388 N1396 1.356 . S
C1389 C1388 1.363 . S
C1389 C1395 1.363 . S
C1390 C1391 1.363 . S
C1390 C1395 1.379 . S
C1390 N1397 1.356 . S
C1391 C1390 1.363 . S
C1391 C1394 1.363 . S
N1392 C1394 1.356 . S
N1392 H1404 0.980 . S
N1392 H1405 0.985 . S
N1393 C1395 1.356 . S
N1393 H1398 0.984 . S
N1393 H1399 0.985 . S
C1394 C1388 1.379 . S
C1394 C1391 1.363 . S
C1394 N1392 1.356 . S
C1395 C1389 1.363 . S
C1395 C1390 1.379 . S
C1395 N1393 1.356 . S
N1396 C1388 1.356 . S
N1396 H1402 0.980 . S
N1396 H1403 0.984 . S
N1397 C1390 1.356 . S
N1397 H1400 0.984 . S
N1397 H1401 0.985 . S
H1398 N1393 0.984 . S
H1399 N1393 0.985 . S
H1400 N1397 0.984 . S
H1401 N1397 0.985 . S
H1402 N1396 0.980 . S
H1403 N1396 0.984 . S
H1404 N1392 0.980 . S
H1405 N1392 0.985 . S
C1406 C1407 1.363 . S
C1406 C1412 1.379 . S
C1406 N1414 1.356 . S
C1407 C1406 1.363 . S
C1407 C1413 1.363 . S
C1408 C1409 1.363 . S
C1408 C1413 1.379 . S
C1408 N1415 1.356 . S
C1409 C1408 1.363 . S
C1409 C1412 1.363 . S
N1410 C1412 1.356 . S
N1410 H1422 0.984 . S
N1410 H1423 0.985 . S
N1411 C1413 1.356 . S
N1411 H1416 0.984 . S
N1411 H1417 0.985 . S
C1412 C1406 1.379 . S
C1412 C1409 1.363 . S
C1412 N1410 1.356 . S
C1413 C1407 1.363 . S
C1413 C1408 1.379 . S
C1413 N1411 1.356 . S
N1414 C1406 1.356 . S
N1414 H1420 0.984 . S
N1414 H1421 0.984 . S
N1415 C1408 1.356 . S
N1415 H1418 0.984 1_545 S
N1415 H1419 0.985 . S
H1416 N1411 0.984 . S
H1417 N1411 0.985 . S
H1418 N1415 0.984 1_565 S
H1419 N1415 0.985 . S
H1420 N1414 0.984 . S
H1421 N1414 0.984 . S
H1422 N1410 0.984 . S
H1423 N1410 0.985 . S
C1424 C1425 1.363 . S
C1424 C1430 1.379 . S
C1424 N1432 1.356 . S
C1425 C1424 1.363 . S
C1425 C1431 1.363 . S
C1426 C1427 1.363 . S
C1426 C1431 1.379 . S
C1426 N1433 1.356 . S
C1427 C1426 1.363 . S
C1427 C1430 1.363 . S
N1428 C1430 1.356 . S
N1428 H1440 0.984 . S
N1428 H1441 0.985 . S
N1429 C1431 1.356 . S
N1429 H1434 0.984 . S
N1429 H1435 0.985 . S
C1430 C1424 1.379 . S
C1430 C1427 1.363 . S
C1430 N1428 1.356 . S
C1431 C1425 1.363 . S
C1431 C1426 1.379 . S
C1431 N1429 1.356 . S
N1432 C1424 1.356 . S
N1432 H1438 0.984 . S
N1432 H1439 0.984 . S
N1433 C1426 1.356 . S
N1433 H1436 0.984 1_565 S
N1433 H1437 0.985 . S
H1434 N1429 0.984 . S
H1435 N1429 0.985 . S
H1436 N1433 0.984 1_545 S
H1437 N1433 0.985 . S
H1438 N1432 0.984 . S
H1439 N1432 0.984 . S
H1440 N1428 0.984 . S
H1441 N1428 0.985 . S
C1442 C1443 1.363 . S
C1442 C1448 1.379 . S
C1442 N1450 1.356 . S
C1443 C1442 1.363 . S
C1443 C1449 1.363 . S
C1444 C1445 1.363 . S
C1444 C1449 1.379 . S
C1444 N1451 1.356 . S
C1445 C1444 1.363 . S
C1445 C1448 1.363 . S
N1446 C1448 1.356 . S
N1446 H1458 0.984 . S
N1446 H1459 0.985 . S
N1447 C1449 1.356 . S
N1447 H1452 0.984 . S
N1447 H1453 0.985 . S
C1448 C1442 1.379 . S
C1448 C1445 1.363 . S
C1448 N1446 1.356 . S
C1449 C1443 1.363 . S
C1449 C1444 1.379 . S
C1449 N1447 1.356 . S
N1450 C1442 1.356 . S
N1450 H1456 0.984 . S
N1450 H1457 0.984 . S
N1451 C1444 1.356 . S
N1451 H1454 0.984 . S
N1451 H1455 0.985 . S
H1452 N1447 0.984 . S
H1453 N1447 0.985 . S
H1454 N1451 0.984 . S
H1455 N1451 0.985 . S
H1456 N1450 0.984 . S
H1457 N1450 0.984 . S
H1458 N1446 0.984 . S
H1459 N1446 0.985 . S
C1460 C1461 1.363 . S
C1460 C1466 1.379 . S
C1460 N1468 1.356 . S
C1461 C1460 1.363 . S
C1461 C1467 1.363 . S
C1462 C1463 1.363 . S
C1462 C1467 1.379 . S
C1462 N1469 1.356 . S
C1463 C1462 1.363 . S
C1463 C1466 1.363 . S
N1464 C1466 1.356 . S
N1464 H1476 0.984 . S
N1464 H1477 0.985 . S
N1465 C1467 1.356 . S
N1465 H1470 0.984 . S
N1465 H1471 0.985 . S
C1466 C1460 1.379 . S
C1466 C1463 1.363 . S
C1466 N1464 1.356 . S
C1467 C1461 1.363 . S
C1467 C1462 1.379 . S
C1467 N1465 1.356 . S
N1468 C1460 1.356 . S
N1468 H1474 0.984 . S
N1468 H1475 0.984 . S
N1469 C1462 1.356 . S
N1469 H1472 0.984 . S
N1469 H1473 0.985 . S
H1470 N1465 0.984 . S
H1471 N1465 0.985 . S
H1472 N1469 0.984 . S
H1473 N1469 0.985 . S
H1474 N1468 0.984 . S
H1475 N1468 0.984 . S
H1476 N1464 0.984 . S
H1477 N1464 0.985 . S
C1478 C1479 1.363 . S
C1478 C1484 1.379 . S
C1478 N1486 1.356 . S
C1479 C1478 1.363 . S
C1479 C1485 1.363 . S
C1480 C1481 1.363 . S
C1480 C1485 1.379 . S
C1480 N1487 1.356 . S
C1481 C1480 1.363 . S
C1481 C1484 1.363 . S
N1482 C1484 1.356 . S
N1482 H1494 0.984 . S
N1482 H1495 0.985 . S
N1483 C1485 1.356 1_545 S
N1483 H1488 0.984 . S
N1483 H1489 0.985 . S
C1484 C1478 1.379 . S
C1484 C1481 1.363 . S
C1484 N1482 1.356 . S
C1485 C1479 1.363 . S
C1485 C1480 1.379 . S
C1485 N1483 1.356 1_565 S
N1486 C1478 1.356 . S
N1486 H1492 0.984 . S
N1486 H1493 0.984 . S
N1487 C1480 1.356 . S
N1487 H1490 0.984 . S
N1487 H1491 0.985 . S
H1488 N1483 0.984 . S
H1489 N1483 0.985 . S
H1490 N1487 0.984 . S
H1491 N1487 0.985 . S
H1492 N1486 0.984 . S
H1493 N1486 0.984 . S
H1494 N1482 0.984 . S
H1495 N1482 0.985 . S
C1496 C1497 1.363 . S
C1496 C1502 1.379 . S
C1496 N1504 1.356 . S
C1497 C1496 1.363 . S
C1497 C1503 1.363 . S
C1498 C1499 1.363 . S
C1498 C1503 1.379 . S
C1498 N1505 1.356 1_545 S
C1499 C1498 1.363 . S
C1499 C1502 1.363 . S
N1500 C1502 1.356 . S
N1500 H1512 0.984 . S
N1500 H1513 0.985 . S
N1501 C1503 1.356 . S
N1501 H1506 0.984 . S
N1501 H1507 0.985 . S
C1502 C1496 1.379 . S
C1502 C1499 1.363 . S
C1502 N1500 1.356 . S
C1503 C1497 1.363 . S
C1503 C1498 1.379 . S
C1503 N1501 1.356 . S
N1504 C1496 1.356 . S
N1504 H1510 0.984 . S
N1504 H1511 0.984 . S
N1505 C1498 1.356 1_565 S
N1505 H1508 0.984 . S
N1505 H1509 0.985 . S
H1506 N1501 0.984 . S
H1507 N1501 0.985 . S
H1508 N1505 0.984 . S
H1509 N1505 0.985 . S
H1510 N1504 0.984 . S
H1511 N1504 0.984 . S
H1512 N1500 0.984 . S
H1513 N1500 0.985 . S
C1514 C1515 1.363 . S
C1514 C1520 1.379 . S
C1514 N1522 1.356 . S
C1515 C1514 1.363 . S
C1515 C1521 1.363 . S
C1516 C1517 1.363 . S
C1516 C1521 1.379 . S
C1516 N1523 1.356 . S
C1517 C1516 1.363 . S
C1517 C1520 1.363 . S
N1518 C1520 1.356 . S
N1518 H1530 0.984 . S
N1518 H1531 0.985 . S
N1519 C1521 1.356 . S
N1519 H1524 0.984 . S
N1519 H1525 0.985 . S
C1520 C1514 1.379 . S
C1520 C1517 1.363 . S
C1520 N1518 1.356 . S
C1521 C1515 1.363 . S
C1521 C1516 1.379 . S
C1521 N1519 1.356 . S
N1522 C1514 1.356 . S
N1522 H1528 0.984 . S
N1522 H1529 0.984 . S
N1523 C1516 1.356 . S
N1523 H1526 0.984 . S
N1523 H1527 0.985 . S
H1524 N1519 0.984 . S
H1525 N1519 0.985 . S
H1526 N1523 0.984 . S
H1527 N1523 0.985 . S
H1528 N1522 0.984 . S
H1529 N1522 0.984 . S
H1530 N1518 0.984 . S
H1531 N1518 0.985 . S
C1532 C1533 1.363 . S
C1532 C1538 1.379 . S
C1532 N1540 1.356 . S
C1533 C1532 1.363 . S
C1533 C1539 1.363 . S
C1534 C1535 1.363 . S
C1534 C1539 1.379 . S
C1534 N1541 1.356 . S
C1535 C1534 1.363 . S
C1535 C1538 1.363 . S
N1536 C1538 1.356 . S
N1536 H1548 0.984 . S
N1536 H1549 0.985 . S
N1537 C1539 1.356 . S
N1537 H1542 0.984 . S
N1537 H1543 0.985 . S
C1538 C1532 1.379 . S
C1538 C1535 1.363 . S
C1538 N1536 1.356 . S
C1539 C1533 1.363 . S
C1539 C1534 1.379 . S
C1539 N1537 1.356 . S
N1540 C1532 1.356 . S
N1540 H1546 0.984 . S
N1540 H1547 0.984 . S
N1541 C1534 1.356 . S
N1541 H1544 0.984 . S
N1541 H1545 0.985 . S
H1542 N1537 0.984 . S
H1543 N1537 0.985 . S
H1544 N1541 0.984 . S
H1545 N1541 0.985 . S
H1546 N1540 0.984 . S
H1547 N1540 0.984 . S
H1548 N1536 0.984 . S
H1549 N1536 0.985 . S
C1550 C1551 1.363 . S
C1550 C1556 1.379 . S
C1550 N1558 1.356 . S
C1551 C1550 1.363 . S
C1551 C1557 1.363 . S
C1552 C1553 1.363 . S
C1552 C1557 1.379 . S
C1552 N1559 1.356 . S
C1553 C1552 1.363 . S
C1553 C1556 1.363 . S
N1554 C1556 1.356 . S
N1554 H1566 0.984 . S
N1554 H1567 0.985 . S
N1555 C1557 1.356 . S
N1555 H1560 0.984 1_545 S
N1555 H1561 0.985 . S
C1556 C1550 1.379 . S
C1556 C1553 1.363 . S
C1556 N1554 1.356 . S
C1557 C1551 1.363 . S
C1557 C1552 1.379 . S
C1557 N1555 1.356 . S
N1558 C1550 1.356 . S
N1558 H1564 0.984 . S
N1558 H1565 0.984 . S
N1559 C1552 1.356 . S
N1559 H1562 0.984 . S
N1559 H1563 0.985 . S
H1560 N1555 0.984 1_565 S
H1561 N1555 0.985 . S
H1562 N1559 0.984 . S
H1563 N1559 0.985 . S
H1564 N1558 0.984 . S
H1565 N1558 0.984 . S
H1566 N1554 0.984 . S
H1567 N1554 0.985 . S
C417 C5 1.448 . S
C419 C18 1.448 . S
C435 C44 1.448 . S
C437 C31 1.448 . S
C453 C57 1.448 . S
C455 C70 1.448 . S
C471 C83 1.448 . S
C473 C96 1.448 . S
C489 C109 1.448 . S
C491 C122 1.448 . S
C507 C135 1.448 . S
C509 C148 1.448 . S
C525 C161 1.448 . S
C527 C174 1.448 . S
C543 C187 1.448 . S
C545 C200 1.448 . S
C561 C226 1.448 . S
C563 C213 1.448 . S
C579 C252 1.448 . S
C581 C239 1.448 . S
C597 C278 1.448 . S
C599 C265 1.448 . S
C615 C304 1.448 . S
C617 C291 1.448 . S
C633 C330 1.448 . S
C635 C317 1.448 . S
C651 C356 1.448 . S
C653 C343 1.448 . S
C669 C382 1.448 . S
C671 C369 1.448 . S
C687 C408 1.448 . S
C689 C395 1.448 . S
C705 C0 1.476 . S
C707 C156 1.476 . S
C723 C13 1.476 . S
C725 C273 1.476 . S
C741 C26 1.476 . S
C743 C78 1.476 . S
C759 C39 1.476 . S
C761 C403 1.476 . S
C777 C52 1.476 . S
C779 C104 1.476 . S
C795 C221 1.476 . S
C797 C65 1.476 . S
C813 C351 1.476 . S
C815 C91 1.476 . S
C831 C117 1.476 . S
C833 C377 1.476 . S
C849 C130 1.476 . S
C851 C182 1.476 . S
C867 C143 1.476 . S
C869 C299 1.476 . S
C885 C169 1.476 . S
C887 C325 1.476 . S
C903 C195 1.476 . S
C905 C247 1.476 . S
C921 C364 1.476 . S
C923 C208 1.476 . S
C939 C286 1.476 . S
C941 C234 1.476 . S
C957 C260 1.476 . S
C959 C312 1.476 . S
C975 C390 1.476 . S
C977 C338 1.476 . S
C993 C138 1.088 . S
C995 C8 1.088 . S
C1011 C151 1.088 . S
C1013 C21 1.088 . S
C1029 C34 1.088 . S
C1031 C112 1.088 . S
C1047 C125 1.088 . S
C1049 C47 1.088 . S
C1065 C60 1.088 . S
C1067 C190 1.088 . S
C1083 C73 1.088 . S
C1085 C203 1.088 . S
C1101 C164 1.088 . S
C1103 C86 1.088 . S
C1119 C177 1.088 . S
C1121 C99 1.088 . S
C1137 C216 1.088 . S
C1139 C346 1.088 . S
C1155 C359 1.088 . S
C1157 C229 1.088 . S
C1173 C320 1.088 . S
C1175 C242 1.088 . S
C1191 C255 1.088 . S
C1193 C333 1.088 . S
C1209 C398 1.088 . S
C1211 C268 1.088 . S
C1227 C281 1.088 . S
C1229 C411 1.088 . S
C1245 C372 1.088 . S
C1247 C294 1.088 . S
C1263 C385 1.088 . S
C1265 C307 1.088 . S
C1281 C140 1.482 . S
C1283 C10 1.482 1_565 S
C1299 C153 1.481 . S
C1301 C23 1.481 . S
C1317 C114 1.482 . S
C1319 C36 1.481 . S
C1335 C49 1.481 1_565 S
C1337 C127 1.481 . S
C1353 C192 1.481 . S
C1355 C62 1.482 1_545 S
C1371 C205 1.481 . S
C1373 C75 1.481 . S
C1389 C166 1.482 . S
C1391 C88 1.481 . S
C1407 C179 1.481 . S
C1409 C101 1.481 1_545 S
C1425 C348 1.481 . S
C1427 C218 1.481 1_565 S
C1443 C361 1.482 . S
C1445 C231 1.482 . S
C1461 C322 1.481 . S
C1463 C244 1.481 . S
C1479 C257 1.482 1_565 S
C1481 C335 1.482 . S
C1497 C400 1.481 . S
C1499 C270 1.481 1_545 S
C1515 C283 1.482 . S
C1517 C413 1.482 . S
C1533 C374 1.481 . S
C1535 C296 1.481 . S
C1551 C309 1.482 1_545 S
C1553 C387 1.482 . S
