# Generated by pormake.
# Topology utg, (3)-cn, num edge types: 1
# Building blocks:
#     Node 0, Type 0, BuildingBlock: OLANEW_clean_sbu_2, # of connection points: 3
#     Node 1, Type 0, BuildingBlock: OLANEW_clean_sbu_2, # of connection points: 3
#     Node 2, Type 0, BuildingBlock: OLANEW_clean_sbu_2, # of connection points: 3
#     Node 3, Type 0, BuildingBlock: OLANEW_clean_sbu_2, # of connection points: 3
#     Node 4, Type 0, BuildingBlock: OLANEW_clean_sbu_2, # of connection points: 3
#     Node 5, Type 0, BuildingBlock: OLANEW_clean_sbu_2, # of connection points: 3
#     Node 6, Type 0, BuildingBlock: OLANEW_clean_sbu_2, # of connection points: 3
#     Node 7, Type 0, BuildingBlock: OLANEW_clean_sbu_2, # of connection points: 3
#     Node 8, Type 0, BuildingBlock: OLANEW_clean_sbu_2, # of connection points: 3
#     Node 9, Type 0, BuildingBlock: OLANEW_clean_sbu_2, # of connection points: 3
#     Node 10, Type 0, BuildingBlock: OLANEW_clean_sbu_2, # of connection points: 3
#     Node 11, Type 0, BuildingBlock: OLANEW_clean_sbu_2, # of connection points: 3
#     Node 12, Type 0, BuildingBlock: OLANEW_clean_sbu_2, # of connection points: 3
#     Node 13, Type 0, BuildingBlock: OLANEW_clean_sbu_2, # of connection points: 3
#     Node 14, Type 0, BuildingBlock: OLANEW_clean_sbu_2, # of connection points: 3
#     Node 15, Type 0, BuildingBlock: OLANEW_clean_sbu_2, # of connection points: 3
#     Edge 16, Type (0, 0), BuildingBlock: OJICUG_clean_linker_0, # of connection points: 2
#     Edge 17, Type (0, 0), BuildingBlock: OJICUG_clean_linker_0, # of connection points: 2
#     Edge 18, Type (0, 0), BuildingBlock: OJICUG_clean_linker_0, # of connection points: 2
#     Edge 19, Type (0, 0), BuildingBlock: OJICUG_clean_linker_0, # of connection points: 2
#     Edge 20, Type (0, 0), BuildingBlock: OJICUG_clean_linker_0, # of connection points: 2
#     Edge 21, Type (0, 0), BuildingBlock: OJICUG_clean_linker_0, # of connection points: 2
#     Edge 22, Type (0, 0), BuildingBlock: OJICUG_clean_linker_0, # of connection points: 2
#     Edge 23, Type (0, 0), BuildingBlock: OJICUG_clean_linker_0, # of connection points: 2
#     Edge 24, Type (0, 0), BuildingBlock: OJICUG_clean_linker_0, # of connection points: 2
#     Edge 25, Type (0, 0), BuildingBlock: OJICUG_clean_linker_0, # of connection points: 2
#     Edge 26, Type (0, 0), BuildingBlock: OJICUG_clean_linker_0, # of connection points: 2
#     Edge 27, Type (0, 0), BuildingBlock: OJICUG_clean_linker_0, # of connection points: 2
#     Edge 28, Type (0, 0), BuildingBlock: OJICUG_clean_linker_0, # of connection points: 2
#     Edge 29, Type (0, 0), BuildingBlock: OJICUG_clean_linker_0, # of connection points: 2
#     Edge 30, Type (0, 0), BuildingBlock: OJICUG_clean_linker_0, # of connection points: 2
#     Edge 31, Type (0, 0), BuildingBlock: OJICUG_clean_linker_0, # of connection points: 2
#     Edge 32, Type (0, 0), BuildingBlock: OJICUG_clean_linker_0, # of connection points: 2
#     Edge 33, Type (0, 0), BuildingBlock: OJICUG_clean_linker_0, # of connection points: 2
#     Edge 34, Type (0, 0), BuildingBlock: OJICUG_clean_linker_0, # of connection points: 2
#     Edge 35, Type (0, 0), BuildingBlock: OJICUG_clean_linker_0, # of connection points: 2
#     Edge 36, Type (0, 0), BuildingBlock: OJICUG_clean_linker_0, # of connection points: 2
#     Edge 37, Type (0, 0), BuildingBlock: OJICUG_clean_linker_0, # of connection points: 2
#     Edge 38, Type (0, 0), BuildingBlock: OJICUG_clean_linker_0, # of connection points: 2
#     Edge 39, Type (0, 0), BuildingBlock: OJICUG_clean_linker_0, # of connection points: 2
# Relax obj value: 0.001
# Max RMSD: 0.029
# Mean RMSD: 0.029
data_MOF--net-utg--node1-OLANEW_clean_sbu_2--edge1-OJICUG_clean_linker_0
_symmetry_space_group_name_H-M    P1
_symmetry_Int_Tables_number       1
_symmetry_cell_setting            triclinic
loop_
_symmetry_equiv_pos_as_xyz
'x, y, z'
_cell_length_a     32.896047
_cell_length_b     33.018916
_cell_length_c     63.041129
_cell_angle_alpha  90.050902
_cell_angle_beta   89.956339
_cell_angle_gamma 89.705914
loop_
_atom_site_label
_atom_site_type_symbol
_atom_site_fract_x
_atom_site_fract_y
_atom_site_fract_z
_atom_type_partial_charge
O0 O 0.1222 0.15688 0.13433 0.0
Cd1 Cd 0.13303 0.09246 0.15279 0.0
O2 O 0.17896 0.18148 0.14746 0.0
Cd3 Cd 0.19618 0.13332 0.16931 0.0
O4 O 0.23487 0.13203 0.19739 0.0
C5 C 0.26726 0.15274 0.19604 0.0
O6 O 0.27624 0.16976 0.1778 0.0
C7 C 0.14798 0.18535 0.13557 0.0
C8 C 0.06419 0.04338 0.15426 0.0
O9 O 0.07401 0.06553 0.17014 0.0
O10 O 0.0866 0.04472 0.13764 0.0
O11 O 0.84088 0.62123 0.39293 0.0
Cd12 Cd 0.90623 0.62973 0.41099 0.0
O13 O 0.82463 0.68445 0.40033 0.0
Cd14 Cd 0.87284 0.69973 0.42254 0.0
O15 O 0.86956 0.73828 0.4506 0.0
C16 C 0.84753 0.76979 0.44849 0.0
O17 O 0.83222 0.77793 0.42971 0.0
C18 C 0.81653 0.6511 0.39121 0.0
C19 C 0.95225 0.55884 0.41504 0.0
O20 O 0.93093 0.57226 0.43058 0.0
O21 O 0.95134 0.57849 0.39752 0.0
O22 O 0.36043 0.33666 0.63632 0.0
Cd23 Cd 0.34894 0.40148 0.65435 0.0
O24 O 0.30308 0.3124 0.64893 0.0
Cd25 Cd 0.286 0.36029 0.67103 0.0
O26 O 0.24904 0.35837 0.69974 0.0
C27 C 0.21772 0.33605 0.69856 0.0
O28 O 0.20862 0.31954 0.68021 0.0
C29 C 0.33443 0.30836 0.63731 0.0
C30 C 0.41837 0.44925 0.65816 0.0
O31 O 0.40582 0.4278 0.67376 0.0
O32 O 0.39848 0.44775 0.64071 0.0
O33 O 0.65951 0.86593 0.90479 0.0
Cd34 Cd 0.60387 0.85994 0.93047 0.0
O35 O 0.64441 0.80563 0.89228 0.0
Cd36 Cd 0.61317 0.78622 0.92096 0.0
O37 O 0.634 0.75231 0.94864 0.0
C38 C 0.66643 0.76581 0.95693 0.0
O39 O 0.68209 0.79937 0.94936 0.0
C40 C 0.66434 0.83844 0.89084 0.0
C41 C 0.55066 0.92621 0.93003 0.0
O42 O 0.57764 0.92253 0.94456 0.0
O43 O 0.54895 0.89886 0.91564 0.0
O44 O 0.12078 0.32696 0.0644 0.0
Cd45 Cd 0.1281 0.38343 0.03948 0.0
O46 O 0.18011 0.34242 0.07821 0.0
Cd47 Cd 0.20138 0.37382 0.04997 0.0
O48 O 0.23723 0.35036 0.02344 0.0
C49 C 0.23212 0.31264 0.02044 0.0
O50 O 0.20583 0.29343 0.03244 0.0
C51 C 0.14737 0.32209 0.07883 0.0
C52 C 0.06191 0.43684 0.03974 0.0
O53 O 0.06617 0.41056 0.02492 0.0
O54 O 0.08863 0.43772 0.0545 0.0
O55 O 0.66649 0.6186 0.32517 0.0
Cd56 Cd 0.60735 0.62191 0.3016 0.0
O57 O 0.65591 0.68197 0.33459 0.0
Cd58 Cd 0.61726 0.69716 0.30768 0.0
O59 O 0.62565 0.72969 0.27789 0.0
C60 C 0.6492 0.76007 0.27886 0.0
O61 O 0.66375 0.77079 0.29744 0.0
C62 C 0.67501 0.64867 0.33696 0.0
C63 C 0.55664 0.55468 0.30524 0.0
O64 O 0.58236 0.55734 0.29003 0.0
O65 O 0.555 0.58361 0.31878 0.0
O66 O 0.36434 0.16625 0.56664 0.0
Cd67 Cd 0.35968 0.10931 0.54182 0.0
O68 O 0.30544 0.14929 0.58046 0.0
Cd69 Cd 0.28581 0.11669 0.55225 0.0
O70 O 0.25031 0.13892 0.52536 0.0
C71 C 0.25117 0.17729 0.52374 0.0
O72 O 0.27319 0.1979 0.53734 0.0
C73 C 0.33751 0.17063 0.58102 0.0
C74 C 0.42512 0.05561 0.54597 0.0
O75 O 0.42436 0.08202 0.53108 0.0
O76 O 0.39504 0.05453 0.55887 0.0
O77 O 0.82569 0.86408 0.83179 0.0
Cd78 Cd 0.88881 0.85512 0.81164 0.0
O79 O 0.80038 0.80754 0.81893 0.0
Cd80 Cd 0.84641 0.79156 0.79548 0.0
O81 O 0.84521 0.75377 0.76708 0.0
C82 C 0.82312 0.72237 0.76845 0.0
O83 O 0.80601 0.71396 0.78675 0.0
C84 C 0.79736 0.83805 0.83115 0.0
C85 C 0.93925 0.92288 0.81312 0.0
O86 O 0.91598 0.9166 0.79716 0.0
O87 O 0.93852 0.89734 0.8284 0.0
O88 O 0.62052 0.66476 0.6465 0.0
Cd89 Cd 0.62356 0.60644 0.67049 0.0
O90 O 0.6837 0.65297 0.6367 0.0
Cd91 Cd 0.69896 0.61496 0.66381 0.0
O92 O 0.7317 0.62329 0.69358 0.0
C93 C 0.76232 0.64659 0.69257 0.0
O94 O 0.77311 0.66097 0.67398 0.0
C95 C 0.65052 0.67246 0.63444 0.0
C96 C 0.55678 0.55512 0.66642 0.0
O97 O 0.55857 0.58109 0.68151 0.0
O98 O 0.58636 0.55351 0.6532 0.0
O99 O 0.32864 0.12173 0.90567 0.0
Cd100 Cd 0.38598 0.12812 0.93025 0.0
O101 O 0.34228 0.18231 0.89311 0.0
Cd102 Cd 0.3755 0.20184 0.92115 0.0
O103 O 0.35511 0.23589 0.94892 0.0
C104 C 0.32234 0.22276 0.95703 0.0
O105 O 0.30627 0.1896 0.94919 0.0
C106 C 0.32254 0.14935 0.89195 0.0
C107 C 0.4385 0.0613 0.92987 0.0
O108 O 0.41241 0.06606 0.94479 0.0
O109 O 0.43959 0.08781 0.91505 0.0
O110 O 0.86741 0.82323 0.13901 0.0
Cd111 Cd 0.85812 0.88575 0.15943 0.0
O112 O 0.81154 0.7969 0.15229 0.0
Cd113 Cd 0.79529 0.84244 0.17588 0.0
O114 O 0.75732 0.84157 0.20427 0.0
C115 C 0.72562 0.81982 0.20291 0.0
O116 O 0.71704 0.80278 0.18462 0.0
C117 C 0.84181 0.79454 0.1398 0.0
C118 C 0.92549 0.93681 0.15771 0.0
O119 O 0.91983 0.91337 0.17363 0.0
O120 O 0.89951 0.93597 0.14258 0.0
O121 O 0.16819 0.35722 0.40332 0.0
Cd122 Cd 0.1104 0.3532 0.42778 0.0
O123 O 0.15337 0.29697 0.39067 0.0
Cd124 Cd 0.11842 0.2791 0.41844 0.0
O125 O 0.13561 0.24678 0.44727 0.0
C126 C 0.16434 0.26291 0.45769 0.0
O127 O 0.17838 0.29811 0.4514 0.0
C128 C 0.17401 0.3294 0.38967 0.0
C129 C 0.05771 0.41941 0.42383 0.0
O130 O 0.08398 0.41785 0.43882 0.0
O131 O 0.05632 0.38979 0.41072 0.0
O132 O 0.62472 0.83739 0.57804 0.0
Cd133 Cd 0.63415 0.90224 0.55986 0.0
O134 O 0.68762 0.8198 0.57023 0.0
Cd135 Cd 0.70361 0.86759 0.548 0.0
O136 O 0.74254 0.86444 0.52003 0.0
C137 C 0.77413 0.84244 0.52217 0.0
O138 O 0.78212 0.82704 0.54093 0.0
C139 C 0.65419 0.81248 0.57956 0.0
C140 C 0.56353 0.94879 0.55545 0.0
O141 O 0.57703 0.92734 0.53999 0.0
O142 O 0.58297 0.94777 0.57305 0.0
O143 O 0.15743 0.1223 0.83589 0.0
Cd144 Cd 0.09279 0.1317 0.81721 0.0
O145 O 0.17936 0.18116 0.82429 0.0
Cd146 Cd 0.13122 0.19701 0.80205 0.0
O147 O 0.13127 0.23432 0.77352 0.0
C148 C 0.15215 0.26655 0.77476 0.0
O149 O 0.16845 0.27619 0.79309 0.0
C150 C 0.18457 0.14959 0.83551 0.0
C151 C 0.0445 0.0624 0.81604 0.0
O152 O 0.06676 0.07212 0.80016 0.0
O153 O 0.04538 0.08513 0.83252 0.0
O154 O 0.86889 0.6593 0.06504 0.0
Cd155 Cd 0.86223 0.6045 0.03904 0.0
O156 O 0.80887 0.64351 0.07793 0.0
Cd157 Cd 0.78842 0.61401 0.04896 0.0
O158 O 0.7527 0.63789 0.02254 0.0
C159 C 0.75721 0.67578 0.01991 0.0
O160 O 0.78295 0.69508 0.03219 0.0
C161 C 0.84176 0.66345 0.07928 0.0
C162 C 0.92793 0.55047 0.03947 0.0
O163 O 0.9248 0.57759 0.02502 0.0
O164 O 0.90027 0.54897 0.05376 0.0
O165 O 0.34012 0.35506 0.33407 0.0
Cd166 Cd 0.40525 0.34528 0.31585 0.0
O167 O 0.31876 0.29568 0.32288 0.0
Cd168 Cd 0.3667 0.28029 0.30039 0.0
O169 O 0.36342 0.24498 0.2712 0.0
C170 C 0.34085 0.21388 0.27221 0.0
O171 O 0.325 0.20401 0.29063 0.0
C172 C 0.31324 0.32751 0.33389 0.0
C173 C 0.45212 0.41528 0.31256 0.0
O174 O 0.43063 0.40298 0.2969 0.0
O175 O 0.45106 0.39488 0.32983 0.0
C176 C 0.34056 0.20627 0.23264 0.0
C177 C 0.32708 0.19327 0.25265 0.0
H178 H 0.33257 0.20322 0.19902 0.0
C179 C 0.29718 0.16303 0.25372 0.0
H180 H 0.36375 0.22929 0.23126 0.0
C181 C 0.27916 0.14816 0.23523 0.0
C182 C 0.29077 0.16313 0.21529 0.0
H183 H 0.28631 0.15209 0.26888 0.0
H184 H 0.25495 0.12622 0.23666 0.0
C185 C 0.32264 0.19129 0.21415 0.0
C186 C 0.82873 0.79981 0.50561 0.0
C187 C 0.79763 0.8289 0.5034 0.0
H188 H 0.86918 0.75843 0.49 0.0
C189 C 0.78675 0.84182 0.48295 0.0
H190 H 0.83809 0.78938 0.52116 0.0
C191 C 0.80471 0.82414 0.46508 0.0
C192 C 0.83383 0.79308 0.46729 0.0
H193 H 0.76313 0.86439 0.48069 0.0
H194 H 0.7944 0.83362 0.44953 0.0
C195 C 0.8466 0.78203 0.48774 0.0
C196 C 0.16554 0.29365 0.71688 0.0
C197 C 0.19598 0.32333 0.718 0.0
H198 H 0.12752 0.25253 0.73394 0.0
C199 C 0.20805 0.33764 0.73801 0.0
H200 H 0.15528 0.28216 0.70171 0.0
C201 C 0.19199 0.32072 0.7565 0.0
C202 C 0.16364 0.28904 0.75537 0.0
H203 H 0.23119 0.36071 0.73943 0.0
H204 H 0.20324 0.33126 0.77166 0.0
C205 C 0.14958 0.27662 0.73537 0.0
C206 C 0.72093 0.76079 0.98435 0.0
C207 C 0.68821 0.74289 0.97363 0.0
H208 H 0.7682 0.75371 0.00728 0.0
C209 C 0.67803 0.70255 0.97831 0.0
H210 H 0.72957 0.79179 0.98113 0.0
C211 C 0.70058 0.68044 -0.00679 0.0
C212 C 0.73343 0.69841 0.00386 0.0
H213 H 0.6531 0.68784 0.97022 0.0
H214 H 0.69221 0.64936 -0.00356 0.0
C215 C 0.74314 0.7389 -0.00065 0.0
C216 C 0.28907 0.30778 -0.00612 0.0
C217 C 0.25577 0.29007 0.00426 0.0
H218 H 0.33678 0.30018 0.97098 0.0
C219 C 0.24545 0.24989 -0.00061 0.0
H220 H 0.29791 0.33862 -0.00262 0.0
C221 C 0.26752 0.22802 0.98429 0.0
C222 C 0.3007 0.24565 0.97382 0.0
H223 H 0.22002 0.23528 0.00711 0.0
H224 H 0.2584 0.19726 0.98079 0.0
C225 C 0.31148 0.28568 0.97886 0.0
C226 C 0.69454 0.80965 0.26049 0.0
C227 C 0.66452 0.77954 0.25929 0.0
H228 H 0.73726 0.84625 0.24363 0.0
C229 C 0.65187 0.76603 0.23923 0.0
H230 H 0.70481 0.82095 0.2757 0.0
C231 C 0.67042 0.78066 0.22084 0.0
C232 C 0.7021 0.80902 0.22211 0.0
H233 H 0.62865 0.74306 0.23774 0.0
H234 H 0.66094 0.76852 0.20567 0.0
C235 C 0.71317 0.8242 0.2421 0.0
C236 C 0.23403 0.24053 0.50392 0.0
C237 C 0.22787 0.19889 0.50712 0.0
H238 H 0.21873 0.29327 0.48594 0.0
C239 C 0.19927 0.17864 0.49445 0.0
H240 H 0.25575 0.25711 0.51342 0.0
C241 C 0.17761 0.19961 0.47877 0.0
C242 C 0.18447 0.2411 0.47532 0.0
H243 H 0.19368 0.14661 0.49662 0.0
H244 H 0.15615 0.18313 0.46906 0.0
C245 C 0.21274 0.26133 0.48816 0.0
C246 C 0.82723 0.70995 0.72925 0.0
C247 C 0.81203 0.69901 0.74926 0.0
H248 H 0.82375 0.70165 0.69566 0.0
C249 C 0.78337 0.66764 0.75057 0.0
H250 H 0.84951 0.73381 0.7277 0.0
C251 C 0.76847 0.64925 0.73219 0.0
C252 C 0.78202 0.66177 0.71211 0.0
H253 H 0.7712 0.65826 0.76575 0.0
H254 H 0.74529 0.62625 0.73371 0.0
C255 C 0.81242 0.69148 0.71088 0.0
C256 C 0.11408 0.22585 0.10661 0.0
C257 C 0.14371 0.22253 0.12259 0.0
H258 H 0.09162 0.26033 0.08022 0.0
C259 C 0.17135 0.25442 0.12539 0.0
H260 H 0.09221 0.2019 0.10412 0.0
C261 C 0.17097 0.2877 0.11182 0.0
C262 C 0.14292 0.29006 0.09509 0.0
H263 H 0.19427 0.25322 0.13771 0.0
H264 H 0.19368 0.31096 0.11405 0.0
C265 C 0.11366 0.25938 0.09297 0.0
C266 C 0.73591 0.61332 0.35283 0.0
C267 C 0.70908 0.64665 0.35229 0.0
H268 H 0.79118 0.58842 0.36556 0.0
C269 C 0.71674 0.67993 0.36556 0.0
H270 H 0.73085 0.58721 0.34278 0.0
C271 C 0.75109 0.68067 0.37844 0.0
C272 C 0.77883 0.64814 0.37846 0.0
H273 H 0.69666 0.70603 0.36569 0.0
H274 H 0.7562 0.70727 0.38813 0.0
C275 C 0.77051 0.61405 0.36582 0.0
C276 C 0.31213 0.2058 0.6135 0.0
C277 C 0.34098 0.20312 0.59712 0.0
H278 H 0.28771 0.24072 0.63899 0.0
C279 C 0.3703 0.23379 0.59522 0.0
H280 H 0.28931 0.18259 0.61555 0.0
C281 C 0.36932 0.26752 0.60874 0.0
C282 C 0.33901 0.27109 0.62439 0.0
H283 H 0.39296 0.2326 0.58276 0.0
H284 H 0.39136 0.29138 0.60644 0.0
C285 C 0.31117 0.2393 0.62694 0.0
C286 C 0.69757 0.81335 0.85776 0.0
C287 C 0.69559 0.84231 0.87406 0.0
H288 H 0.7308 0.78954 0.83149 0.0
C289 C 0.72578 0.87228 0.87512 0.0
H290 H 0.67469 0.79002 0.85636 0.0
C291 C 0.7584 0.87192 0.86078 0.0
C292 C 0.76127 0.84165 0.84513 0.0
H293 H 0.72511 0.89502 0.88751 0.0
H294 H 0.78193 0.89454 0.86238 0.0
C295 C 0.72991 0.81304 0.84349 0.0
C296 C 0.61574 0.73349 0.61855 0.0
C297 C 0.64864 0.70607 0.61891 0.0
H298 H 0.59154 0.7889 0.60582 0.0
C299 C 0.68171 0.71272 0.60527 0.0
H300 H 0.58979 0.72921 0.62887 0.0
C301 C 0.68276 0.74672 0.59223 0.0
C302 C 0.65074 0.77508 0.59241 0.0
H303 H 0.70746 0.69215 0.605 0.0
H304 H 0.70922 0.75107 0.58227 0.0
C305 C 0.61678 0.76773 0.6054 0.0
C306 C 0.28604 0.17509 0.86001 0.0
C307 C 0.28999 0.14548 0.87586 0.0
H308 H 0.25011 0.19937 0.83491 0.0
C309 C 0.26053 0.11484 0.87723 0.0
H310 H 0.30831 0.19895 0.85837 0.0
C311 C 0.22672 0.11514 0.86369 0.0
C312 C 0.22188 0.14607 0.84856 0.0
H313 H 0.26272 0.09158 0.88929 0.0
H314 H 0.2038 0.09198 0.86555 0.0
C315 C 0.25249 0.17538 0.84655 0.0
C316 C 0.87535 0.75677 0.10967 0.0
C317 C 0.84554 0.75883 0.12565 0.0
H318 H 0.89792 0.72459 0.08247 0.0
C319 C 0.8174 0.7271 0.12741 0.0
H320 H 0.8976 0.78061 0.10796 0.0
C321 C 0.81761 0.69522 0.11292 0.0
C322 C 0.84601 0.69409 0.09629 0.0
H323 H 0.79429 0.72737 0.13966 0.0
H324 H 0.79459 0.67205 0.11442 0.0
C325 C 0.87562 0.72461 0.09512 0.0
C326 C 0.21155 0.30224 0.3583 0.0
C327 C 0.20711 0.33249 0.37381 0.0
H328 H 0.24812 0.27715 0.33361 0.0
C329 C 0.23645 0.36328 0.37504 0.0
H330 H 0.18942 0.27823 0.35678 0.0
C331 C 0.27053 0.36261 0.36166 0.0
C332 C 0.27579 0.33115 0.34684 0.0
H333 H 0.23389 0.38704 0.38683 0.0
H334 H 0.29328 0.38598 0.36338 0.0
C335 C 0.2454 0.30157 0.34501 0.0
C336 C 0.01337 0.00299 0.17477 0.0
C337 C 0.02838 0.01656 0.15516 0.0
H338 H 0.96949 0.96641 0.19091 0.0
C339 C 0.00925 0.00379 0.13641 0.0
H340 H 0.02764 0.01221 0.18947 0.0
C341 C 0.9755 0.97826 0.13726 0.0
C342 C 0.96087 0.96418 0.15684 0.0
H343 H 0.02012 0.01386 0.12108 0.0
H344 H 0.96121 0.96907 0.12256 0.0
C345 C 0.98024 0.97664 0.17559 0.0
C346 C 0.01399 0.46504 0.40174 0.0
C347 C 0.02995 0.45449 0.42166 0.0
H348 H 0.97738 0.50685 0.38398 0.0
C349 C 0.01942 0.47795 0.43946 0.0
H350 H 0.0217 0.44753 0.38775 0.0
C351 C 0.99327 0.51126 0.43738 0.0
C352 C 0.97808 0.52237 0.41738 0.0
H353 H 0.03114 0.47037 0.45502 0.0
H354 H 0.9857 0.52886 0.45136 0.0
C355 C 0.98874 0.49901 0.39958 0.0
C356 C 0.49849 0.51719 0.68222 0.0
C357 C 0.52164 0.5277 0.66433 0.0
H358 H 0.44816 0.48328 0.69433 0.0
C359 C 0.51095 0.51177 0.64445 0.0
H360 H 0.50619 0.52889 0.69775 0.0
C361 C 0.47723 0.48641 0.64241 0.0
C362 C 0.45428 0.47563 0.66033 0.0
H363 H 0.52823 0.51945 0.63039 0.0
H364 H 0.46934 0.47495 0.62685 0.0
C365 C 0.46545 0.49095 0.68028 0.0
C366 C 0.48054 0.00962 0.91069 0.0
C367 C 0.46692 0.02655 0.92988 0.0
H368 H 0.51711 0.96378 0.89573 0.0
C369 C 0.48107 0.01032 0.94911 0.0
H370 H 0.47 0.02155 0.89565 0.0
C371 C 0.50892 0.97816 0.94914 0.0
C372 C 0.52205 0.96081 0.92996 0.0
H373 H 0.47118 0.02299 0.96412 0.0
H374 H 0.51966 0.96641 0.96418 0.0
C375 C 0.50736 0.97658 0.91073 0.0
C376 C 0.97952 0.50816 0.02039 0.0
C377 C 0.96224 0.52148 0.03956 0.0
H378 H 0.02403 0.46991 0.00545 0.0
C379 C 0.97781 0.50664 0.0588 0.0
H380 H 0.96791 0.51902 0.00535 0.0
C381 C 0.0106 0.47948 0.05887 0.0
C382 C 0.02745 0.46566 0.03969 0.0
H383 H 0.96506 0.51654 0.07379 0.0
H384 H 0.02239 0.46881 0.07392 0.0
C385 C 0.01141 0.47996 0.02045 0.0
C386 C 0.51896 0.49677 0.28903 0.0
C387 C 0.52954 0.51931 0.30709 0.0
H388 H 0.48532 0.44668 0.27656 0.0
C389 C 0.51397 0.50776 0.32693 0.0
H390 H 0.53037 0.50513 0.27352 0.0
C391 C 0.48894 0.47382 0.32873 0.0
C392 C 0.4781 0.45147 0.31064 0.0
H393 H 0.52172 0.52456 0.34112 0.0
H394 H 0.47778 0.46526 0.34426 0.0
C395 C 0.49303 0.46349 0.29075 0.0
C396 C 0.46981 0.0113 0.56825 0.0
C397 C 0.45986 0.02742 0.54829 0.0
H398 H 0.51096 0.97427 0.58622 0.0
C399 C 0.48365 0.0167 0.53062 0.0
H400 H 0.45204 0.01915 0.58215 0.0
C401 C 0.5167 0.99023 0.53286 0.0
C402 C 0.52725 0.97491 0.55291 0.0
H403 H 0.47652 0.02855 0.51503 0.0
H404 H 0.53458 0.98253 0.51898 0.0
C405 C 0.50355 0.98573 0.57059 0.0
C406 C 0.98004 0.97364 0.83339 0.0
C407 C 0.96631 0.95846 0.81385 0.0
H408 H 0.01506 0.01889 0.84939 0.0
C409 C 0.97879 0.97747 0.79503 0.0
H410 H 0.97082 0.95963 0.84815 0.0
C411 C 0.00484 0.01081 0.79572 0.0
C412 C 0.01806 0.02637 0.81527 0.0
H413 H 0.96882 0.96629 0.77974 0.0
H414 H 0.01407 0.02481 0.78096 0.0
C415 C 0.00526 0.00758 0.8341 0.0
loop_
_geom_bond_atom_site_label_1
_geom_bond_atom_site_label_2
_geom_bond_distance
_geom_bond_site_symmetry_2
_ccdc_geom_bond_type
O0 Cd1 2.300 . S
O0 C7 1.275 . S
Cd1 O0 2.300 . S
Cd1 O9 2.381 . S
Cd1 O10 2.378 . S
O2 Cd3 2.385 . S
O2 C7 1.255 . S
Cd3 O2 2.385 . S
Cd3 O4 2.317 . S
O4 Cd3 2.317 . S
O4 C5 1.232 . S
C5 O4 1.232 . S
C5 O6 1.218 . S
O6 C5 1.218 . S
C7 O0 1.275 . S
C7 O2 1.255 . S
C8 O9 1.258 . S
C8 O10 1.256 . S
O9 Cd1 2.381 . S
O9 C8 1.258 . S
O10 Cd1 2.378 . S
O10 C8 1.256 . S
O11 Cd12 2.300 . S
O11 C18 1.275 . S
Cd12 O11 2.300 . S
Cd12 O20 2.381 . S
Cd12 O21 2.378 . S
O13 Cd14 2.385 . S
O13 C18 1.255 . S
Cd14 O13 2.385 . S
Cd14 O15 2.317 . S
O15 Cd14 2.317 . S
O15 C16 1.232 . S
C16 O15 1.232 . S
C16 O17 1.218 . S
O17 C16 1.218 . S
C18 O11 1.275 . S
C18 O13 1.255 . S
C19 O20 1.258 . S
C19 O21 1.256 . S
O20 Cd12 2.381 . S
O20 C19 1.258 . S
O21 Cd12 2.378 . S
O21 C19 1.256 . S
O22 Cd23 2.300 . S
O22 C29 1.275 . S
Cd23 O22 2.300 . S
Cd23 O31 2.381 . S
Cd23 O32 2.378 . S
O24 Cd25 2.385 . S
O24 C29 1.255 . S
Cd25 O24 2.385 . S
Cd25 O26 2.317 . S
O26 Cd25 2.317 . S
O26 C27 1.232 . S
C27 O26 1.232 . S
C27 O28 1.218 . S
O28 C27 1.218 . S
C29 O22 1.275 . S
C29 O24 1.255 . S
C30 O31 1.258 . S
C30 O32 1.256 . S
O31 Cd23 2.381 . S
O31 C30 1.258 . S
O32 Cd23 2.378 . S
O32 C30 1.256 . S
O33 Cd34 2.300 . S
O33 C40 1.275 . S
Cd34 O33 2.300 . S
Cd34 O42 2.381 . S
Cd34 O43 2.378 . S
O35 Cd36 2.385 . S
O35 C40 1.255 . S
Cd36 O35 2.385 . S
Cd36 O37 2.317 . S
O37 Cd36 2.317 . S
O37 C38 1.232 . S
C38 O37 1.232 . S
C38 O39 1.218 . S
O39 C38 1.218 . S
C40 O33 1.275 . S
C40 O35 1.255 . S
C41 O42 1.258 . S
C41 O43 1.256 . S
O42 Cd34 2.381 . S
O42 C41 1.258 . S
O43 Cd34 2.378 . S
O43 C41 1.256 . S
O44 Cd45 2.300 . S
O44 C51 1.275 . S
Cd45 O44 2.300 . S
Cd45 O53 2.381 . S
Cd45 O54 2.378 . S
O46 Cd47 2.385 . S
O46 C51 1.255 . S
Cd47 O46 2.385 . S
Cd47 O48 2.317 . S
O48 Cd47 2.317 . S
O48 C49 1.232 . S
C49 O48 1.232 . S
C49 O50 1.218 . S
O50 C49 1.218 . S
C51 O44 1.275 . S
C51 O46 1.255 . S
C52 O53 1.258 . S
C52 O54 1.256 . S
O53 Cd45 2.381 . S
O53 C52 1.258 . S
O54 Cd45 2.378 . S
O54 C52 1.256 . S
O55 Cd56 2.300 . S
O55 C62 1.275 . S
Cd56 O55 2.300 . S
Cd56 O64 2.381 . S
Cd56 O65 2.378 . S
O57 Cd58 2.385 . S
O57 C62 1.255 . S
Cd58 O57 2.385 . S
Cd58 O59 2.317 . S
O59 Cd58 2.317 . S
O59 C60 1.232 . S
C60 O59 1.232 . S
C60 O61 1.218 . S
O61 C60 1.218 . S
C62 O55 1.275 . S
C62 O57 1.255 . S
C63 O64 1.258 . S
C63 O65 1.256 . S
O64 Cd56 2.381 . S
O64 C63 1.258 . S
O65 Cd56 2.378 . S
O65 C63 1.256 . S
O66 Cd67 2.300 . S
O66 C73 1.275 . S
Cd67 O66 2.300 . S
Cd67 O75 2.381 . S
Cd67 O76 2.378 . S
O68 Cd69 2.385 . S
O68 C73 1.255 . S
Cd69 O68 2.385 . S
Cd69 O70 2.317 . S
O70 Cd69 2.317 . S
O70 C71 1.232 . S
C71 O70 1.232 . S
C71 O72 1.218 . S
O72 C71 1.218 . S
C73 O66 1.275 . S
C73 O68 1.255 . S
C74 O75 1.258 . S
C74 O76 1.256 . S
O75 Cd67 2.381 . S
O75 C74 1.258 . S
O76 Cd67 2.378 . S
O76 C74 1.256 . S
O77 Cd78 2.300 . S
O77 C84 1.275 . S
Cd78 O77 2.300 . S
Cd78 O86 2.381 . S
Cd78 O87 2.378 . S
O79 Cd80 2.385 . S
O79 C84 1.255 . S
Cd80 O79 2.385 . S
Cd80 O81 2.317 . S
O81 Cd80 2.317 . S
O81 C82 1.232 . S
C82 O81 1.232 . S
C82 O83 1.218 . S
O83 C82 1.218 . S
C84 O77 1.275 . S
C84 O79 1.255 . S
C85 O86 1.258 . S
C85 O87 1.256 . S
O86 Cd78 2.381 . S
O86 C85 1.258 . S
O87 Cd78 2.378 . S
O87 C85 1.256 . S
O88 Cd89 2.300 . S
O88 C95 1.275 . S
Cd89 O88 2.300 . S
Cd89 O97 2.381 . S
Cd89 O98 2.378 . S
O90 Cd91 2.385 . S
O90 C95 1.255 . S
Cd91 O90 2.385 . S
Cd91 O92 2.317 . S
O92 Cd91 2.317 . S
O92 C93 1.232 . S
C93 O92 1.232 . S
C93 O94 1.218 . S
O94 C93 1.218 . S
C95 O88 1.275 . S
C95 O90 1.255 . S
C96 O97 1.258 . S
C96 O98 1.256 . S
O97 Cd89 2.381 . S
O97 C96 1.258 . S
O98 Cd89 2.378 . S
O98 C96 1.256 . S
O99 Cd100 2.300 . S
O99 C106 1.275 . S
Cd100 O99 2.300 . S
Cd100 O108 2.381 . S
Cd100 O109 2.378 . S
O101 Cd102 2.385 . S
O101 C106 1.255 . S
Cd102 O101 2.385 . S
Cd102 O103 2.317 . S
O103 Cd102 2.317 . S
O103 C104 1.232 . S
C104 O103 1.232 . S
C104 O105 1.218 . S
O105 C104 1.218 . S
C106 O99 1.275 . S
C106 O101 1.255 . S
C107 O108 1.258 . S
C107 O109 1.256 . S
O108 Cd100 2.381 . S
O108 C107 1.258 . S
O109 Cd100 2.378 . S
O109 C107 1.256 . S
O110 Cd111 2.300 . S
O110 C117 1.275 . S
Cd111 O110 2.300 . S
Cd111 O119 2.381 . S
Cd111 O120 2.378 . S
O112 Cd113 2.385 . S
O112 C117 1.255 . S
Cd113 O112 2.385 . S
Cd113 O114 2.317 . S
O114 Cd113 2.317 . S
O114 C115 1.232 . S
C115 O114 1.232 . S
C115 O116 1.218 . S
O116 C115 1.218 . S
C117 O110 1.275 . S
C117 O112 1.255 . S
C118 O119 1.258 . S
C118 O120 1.256 . S
O119 Cd111 2.381 . S
O119 C118 1.258 . S
O120 Cd111 2.378 . S
O120 C118 1.256 . S
O121 Cd122 2.300 . S
O121 C128 1.275 . S
Cd122 O121 2.300 . S
Cd122 O130 2.381 . S
Cd122 O131 2.378 . S
O123 Cd124 2.385 . S
O123 C128 1.255 . S
Cd124 O123 2.385 . S
Cd124 O125 2.317 . S
O125 Cd124 2.317 . S
O125 C126 1.232 . S
C126 O125 1.232 . S
C126 O127 1.218 . S
O127 C126 1.218 . S
C128 O121 1.275 . S
C128 O123 1.255 . S
C129 O130 1.258 . S
C129 O131 1.256 . S
O130 Cd122 2.381 . S
O130 C129 1.258 . S
O131 Cd122 2.378 . S
O131 C129 1.256 . S
O132 Cd133 2.300 . S
O132 C139 1.275 . S
Cd133 O132 2.300 . S
Cd133 O141 2.381 . S
Cd133 O142 2.378 . S
O134 Cd135 2.385 . S
O134 C139 1.255 . S
Cd135 O134 2.385 . S
Cd135 O136 2.317 . S
O136 Cd135 2.317 . S
O136 C137 1.232 . S
C137 O136 1.232 . S
C137 O138 1.218 . S
O138 C137 1.218 . S
C139 O132 1.275 . S
C139 O134 1.255 . S
C140 O141 1.258 . S
C140 O142 1.256 . S
O141 Cd133 2.381 . S
O141 C140 1.258 . S
O142 Cd133 2.378 . S
O142 C140 1.256 . S
O143 Cd144 2.300 . S
O143 C150 1.275 . S
Cd144 O143 2.300 . S
Cd144 O152 2.381 . S
Cd144 O153 2.378 . S
O145 Cd146 2.385 . S
O145 C150 1.255 . S
Cd146 O145 2.385 . S
Cd146 O147 2.317 . S
O147 Cd146 2.317 . S
O147 C148 1.232 . S
C148 O147 1.232 . S
C148 O149 1.218 . S
O149 C148 1.218 . S
C150 O143 1.275 . S
C150 O145 1.255 . S
C151 O152 1.258 . S
C151 O153 1.256 . S
O152 Cd144 2.381 . S
O152 C151 1.258 . S
O153 Cd144 2.378 . S
O153 C151 1.256 . S
O154 Cd155 2.300 . S
O154 C161 1.275 . S
Cd155 O154 2.300 . S
Cd155 O163 2.381 . S
Cd155 O164 2.378 . S
O156 Cd157 2.385 . S
O156 C161 1.255 . S
Cd157 O156 2.385 . S
Cd157 O158 2.317 . S
O158 Cd157 2.317 . S
O158 C159 1.232 . S
C159 O158 1.232 . S
C159 O160 1.218 . S
O160 C159 1.218 . S
C161 O154 1.275 . S
C161 O156 1.255 . S
C162 O163 1.258 . S
C162 O164 1.256 . S
O163 Cd155 2.381 . S
O163 C162 1.258 . S
O164 Cd155 2.378 . S
O164 C162 1.256 . S
O165 Cd166 2.300 . S
O165 C172 1.275 . S
Cd166 O165 2.300 . S
Cd166 O174 2.381 . S
Cd166 O175 2.378 . S
O167 Cd168 2.385 . S
O167 C172 1.255 . S
Cd168 O167 2.385 . S
Cd168 O169 2.317 . S
O169 Cd168 2.317 . S
O169 C170 1.232 . S
C170 O169 1.232 . S
C170 O171 1.218 . S
O171 C170 1.218 . S
C172 O165 1.275 . S
C172 O167 1.255 . S
C173 O174 1.258 . S
C173 O175 1.256 . S
O174 Cd166 2.381 . S
O174 C173 1.258 . S
O175 Cd166 2.378 . S
O175 C173 1.256 . S
C176 C177 1.387 . S
C176 H180 0.950 . S
C176 C185 1.390 . S
C177 C176 1.387 . S
C177 C179 1.387 . S
H178 C185 0.950 . S
C179 C177 1.387 . S
C179 C181 1.390 . S
C179 H183 0.950 . S
H180 C176 0.950 . S
C181 C179 1.390 . S
C181 C182 1.387 . S
C181 H184 0.950 . S
C182 C181 1.387 . S
C182 C185 1.387 . S
H183 C179 0.950 . S
H184 C181 0.950 . S
C185 C176 1.390 . S
C185 H178 0.950 . S
C185 C182 1.387 . S
C186 C187 1.387 . S
C186 H190 0.950 . S
C186 C195 1.390 . S
C187 C186 1.387 . S
C187 C189 1.387 . S
H188 C195 0.950 . S
C189 C187 1.387 . S
C189 C191 1.390 . S
C189 H193 0.950 . S
H190 C186 0.950 . S
C191 C189 1.390 . S
C191 C192 1.387 . S
C191 H194 0.950 . S
C192 C191 1.387 . S
C192 C195 1.387 . S
H193 C189 0.950 . S
H194 C191 0.950 . S
C195 C186 1.390 . S
C195 H188 0.950 . S
C195 C192 1.387 . S
C196 C197 1.387 . S
C196 H200 0.950 . S
C196 C205 1.390 . S
C197 C196 1.387 . S
C197 C199 1.387 . S
H198 C205 0.950 . S
C199 C197 1.387 . S
C199 C201 1.390 . S
C199 H203 0.950 . S
H200 C196 0.950 . S
C201 C199 1.390 . S
C201 C202 1.387 . S
C201 H204 0.950 . S
C202 C201 1.387 . S
C202 C205 1.387 . S
H203 C199 0.950 . S
H204 C201 0.950 . S
C205 C196 1.390 . S
C205 H198 0.950 . S
C205 C202 1.387 . S
C206 C207 1.420 . S
C206 H210 0.953 . S
C206 C215 1.356 1_556 S
C207 C206 1.420 . S
C207 C209 1.387 . S
H208 C215 0.950 . S
C209 C207 1.387 . S
C209 C211 1.356 1_556 S
C209 H213 0.950 . S
H210 C206 0.953 . S
C211 C209 1.356 1_554 S
C211 C212 1.420 . S
C211 H214 0.953 . S
C212 C211 1.420 . S
C212 C215 1.387 . S
H213 C209 0.950 . S
H214 C211 0.953 . S
C215 C206 1.356 1_554 S
C215 H208 0.950 . S
C215 C212 1.387 . S
C216 C217 1.387 . S
C216 H220 0.950 . S
C216 C225 1.390 1_554 S
C217 C216 1.387 . S
C217 C219 1.387 . S
H218 C225 0.950 . S
C219 C217 1.387 . S
C219 C221 1.390 1_554 S
C219 H223 0.950 . S
H220 C216 0.950 . S
C221 C219 1.390 1_556 S
C221 C222 1.387 . S
C221 H224 0.950 . S
C222 C221 1.387 . S
C222 C225 1.387 . S
H223 C219 0.950 . S
H224 C221 0.950 . S
C225 C216 1.390 1_556 S
C225 H218 0.950 . S
C225 C222 1.387 . S
C226 C227 1.387 . S
C226 H230 0.950 . S
C226 C235 1.390 . S
C227 C226 1.387 . S
C227 C229 1.387 . S
H228 C235 0.950 . S
C229 C227 1.387 . S
C229 C231 1.390 . S
C229 H233 0.950 . S
H230 C226 0.950 . S
C231 C229 1.390 . S
C231 C232 1.387 . S
C231 H234 0.950 . S
C232 C231 1.387 . S
C232 C235 1.387 . S
H233 C229 0.950 . S
H234 C231 0.950 . S
C235 C226 1.390 . S
C235 H228 0.950 . S
C235 C232 1.387 . S
C236 C237 1.387 . S
C236 H240 0.950 . S
C236 C245 1.390 . S
C237 C236 1.387 . S
C237 C239 1.387 . S
H238 C245 0.950 . S
C239 C237 1.387 . S
C239 C241 1.390 . S
C239 H243 0.950 . S
H240 C236 0.950 . S
C241 C239 1.390 . S
C241 C242 1.387 . S
C241 H244 0.950 . S
C242 C241 1.387 . S
C242 C245 1.387 . S
H243 C239 0.950 . S
H244 C241 0.950 . S
C245 C236 1.390 . S
C245 H238 0.950 . S
C245 C242 1.387 . S
C246 C247 1.387 . S
C246 H250 0.950 . S
C246 C255 1.390 . S
C247 C246 1.387 . S
C247 C249 1.387 . S
H248 C255 0.950 . S
C249 C247 1.387 . S
C249 C251 1.390 . S
C249 H253 0.950 . S
H250 C246 0.950 . S
C251 C249 1.390 . S
C251 C252 1.387 . S
C251 H254 0.950 . S
C252 C251 1.387 . S
C252 C255 1.387 . S
H253 C249 0.950 . S
H254 C251 0.950 . S
C255 C246 1.390 . S
C255 H248 0.950 . S
C255 C252 1.387 . S
C256 C257 1.387 . S
C256 H260 0.950 . S
C256 C265 1.390 . S
C257 C256 1.387 . S
C257 C259 1.387 . S
H258 C265 0.950 . S
C259 C257 1.387 . S
C259 C261 1.390 . S
C259 H263 0.950 . S
H260 C256 0.950 . S
C261 C259 1.390 . S
C261 C262 1.387 . S
C261 H264 0.950 . S
C262 C261 1.387 . S
C262 C265 1.387 . S
H263 C259 0.950 . S
H264 C261 0.950 . S
C265 C256 1.390 . S
C265 H258 0.950 . S
C265 C262 1.387 . S
C266 C267 1.387 . S
C266 H270 0.950 . S
C266 C275 1.390 . S
C267 C266 1.387 . S
C267 C269 1.387 . S
H268 C275 0.950 . S
C269 C267 1.387 . S
C269 C271 1.390 . S
C269 H273 0.950 . S
H270 C266 0.950 . S
C271 C269 1.390 . S
C271 C272 1.387 . S
C271 H274 0.950 . S
C272 C271 1.387 . S
C272 C275 1.387 . S
H273 C269 0.950 . S
H274 C271 0.950 . S
C275 C266 1.390 . S
C275 H268 0.950 . S
C275 C272 1.387 . S
C276 C277 1.387 . S
C276 H280 0.950 . S
C276 C285 1.390 . S
C277 C276 1.387 . S
C277 C279 1.387 . S
H278 C285 0.950 . S
C279 C277 1.387 . S
C279 C281 1.390 . S
C279 H283 0.950 . S
H280 C276 0.950 . S
C281 C279 1.390 . S
C281 C282 1.387 . S
C281 H284 0.950 . S
C282 C281 1.387 . S
C282 C285 1.387 . S
H283 C279 0.950 . S
H284 C281 0.950 . S
C285 C276 1.390 . S
C285 H278 0.950 . S
C285 C282 1.387 . S
C286 C287 1.387 . S
C286 H290 0.950 . S
C286 C295 1.390 . S
C287 C286 1.387 . S
C287 C289 1.387 . S
H288 C295 0.950 . S
C289 C287 1.387 . S
C289 C291 1.390 . S
C289 H293 0.950 . S
H290 C286 0.950 . S
C291 C289 1.390 . S
C291 C292 1.387 . S
C291 H294 0.950 . S
C292 C291 1.387 . S
C292 C295 1.387 . S
H293 C289 0.950 . S
H294 C291 0.950 . S
C295 C286 1.390 . S
C295 H288 0.950 . S
C295 C292 1.387 . S
C296 C297 1.387 . S
C296 H300 0.950 . S
C296 C305 1.390 . S
C297 C296 1.387 . S
C297 C299 1.387 . S
H298 C305 0.950 . S
C299 C297 1.387 . S
C299 C301 1.390 . S
C299 H303 0.950 . S
H300 C296 0.950 . S
C301 C299 1.390 . S
C301 C302 1.387 . S
C301 H304 0.950 . S
C302 C301 1.387 . S
C302 C305 1.387 . S
H303 C299 0.950 . S
H304 C301 0.950 . S
C305 C296 1.390 . S
C305 H298 0.950 . S
C305 C302 1.387 . S
C306 C307 1.387 . S
C306 H310 0.950 . S
C306 C315 1.390 . S
C307 C306 1.387 . S
C307 C309 1.387 . S
H308 C315 0.950 . S
C309 C307 1.387 . S
C309 C311 1.390 . S
C309 H313 0.950 . S
H310 C306 0.950 . S
C311 C309 1.390 . S
C311 C312 1.387 . S
C311 H314 0.950 . S
C312 C311 1.387 . S
C312 C315 1.387 . S
H313 C309 0.950 . S
H314 C311 0.950 . S
C315 C306 1.390 . S
C315 H308 0.950 . S
C315 C312 1.387 . S
C316 C317 1.387 . S
C316 H320 0.950 . S
C316 C325 1.390 . S
C317 C316 1.387 . S
C317 C319 1.387 . S
H318 C325 0.950 . S
C319 C317 1.387 . S
C319 C321 1.390 . S
C319 H323 0.950 . S
H320 C316 0.950 . S
C321 C319 1.390 . S
C321 C322 1.387 . S
C321 H324 0.950 . S
C322 C321 1.387 . S
C322 C325 1.387 . S
H323 C319 0.950 . S
H324 C321 0.950 . S
C325 C316 1.390 . S
C325 H318 0.950 . S
C325 C322 1.387 . S
C326 C327 1.387 . S
C326 H330 0.950 . S
C326 C335 1.390 . S
C327 C326 1.387 . S
C327 C329 1.387 . S
H328 C335 0.950 . S
C329 C327 1.387 . S
C329 C331 1.390 . S
C329 H333 0.950 . S
H330 C326 0.950 . S
C331 C329 1.390 . S
C331 C332 1.387 . S
C331 H334 0.950 . S
C332 C331 1.387 . S
C332 C335 1.387 . S
H333 C329 0.950 . S
H334 C331 0.950 . S
C335 C326 1.390 . S
C335 H328 0.950 . S
C335 C332 1.387 . S
C336 C337 1.387 . S
C336 H340 0.950 . S
C336 C345 1.390 1_445 S
C337 C336 1.387 . S
C337 C339 1.387 . S
H338 C345 0.950 . S
C339 C337 1.387 . S
C339 C341 1.390 1_445 S
C339 H343 0.950 . S
H340 C336 0.950 . S
C341 C339 1.390 1_665 S
C341 C342 1.387 . S
C341 H344 0.950 . S
C342 C341 1.387 . S
C342 C345 1.387 . S
H343 C339 0.950 . S
H344 C341 0.950 . S
C345 C336 1.390 1_665 S
C345 H338 0.950 . S
C345 C342 1.387 . S
C346 C347 1.387 . S
C346 H350 0.950 . S
C346 C355 1.390 1_455 S
C347 C346 1.387 . S
C347 C349 1.387 . S
H348 C355 0.950 . S
C349 C347 1.387 . S
C349 C351 1.390 1_455 S
C349 H353 0.950 . S
H350 C346 0.950 . S
C351 C349 1.390 1_655 S
C351 C352 1.387 . S
C351 H354 0.950 . S
C352 C351 1.387 . S
C352 C355 1.387 . S
H353 C349 0.950 . S
H354 C351 0.950 . S
C355 C346 1.390 1_655 S
C355 H348 0.950 . S
C355 C352 1.387 . S
C356 C357 1.387 . S
C356 H360 0.950 . S
C356 C365 1.390 . S
C357 C356 1.387 . S
C357 C359 1.387 . S
H358 C365 0.950 . S
C359 C357 1.387 . S
C359 C361 1.390 . S
C359 H363 0.950 . S
H360 C356 0.950 . S
C361 C359 1.390 . S
C361 C362 1.387 . S
C361 H364 0.950 . S
C362 C361 1.387 . S
C362 C365 1.387 . S
H363 C359 0.950 . S
H364 C361 0.950 . S
C365 C356 1.390 . S
C365 H358 0.950 . S
C365 C362 1.387 . S
C366 C367 1.387 . S
C366 H370 0.950 . S
C366 C375 1.390 1_545 S
C367 C366 1.387 . S
C367 C369 1.387 . S
H368 C375 0.950 . S
C369 C367 1.387 . S
C369 C371 1.390 1_545 S
C369 H373 0.950 . S
H370 C366 0.950 . S
C371 C369 1.390 1_565 S
C371 C372 1.387 . S
C371 H374 0.950 . S
C372 C371 1.387 . S
C372 C375 1.387 . S
H373 C369 0.950 . S
H374 C371 0.950 . S
C375 C366 1.390 1_565 S
C375 H368 0.950 . S
C375 C372 1.387 . S
C376 C377 1.387 . S
C376 H380 0.950 . S
C376 C385 1.390 1_655 S
C377 C376 1.387 . S
C377 C379 1.387 . S
H378 C385 0.950 . S
C379 C377 1.387 . S
C379 C381 1.390 1_655 S
C379 H383 0.950 . S
H380 C376 0.950 . S
C381 C379 1.390 1_455 S
C381 C382 1.387 . S
C381 H384 0.950 . S
C382 C381 1.387 . S
C382 C385 1.387 . S
H383 C379 0.950 . S
H384 C381 0.950 . S
C385 C376 1.390 1_455 S
C385 H378 0.950 . S
C385 C382 1.387 . S
C386 C387 1.387 . S
C386 H390 0.950 . S
C386 C395 1.390 . S
C387 C386 1.387 . S
C387 C389 1.387 . S
H388 C395 0.950 . S
C389 C387 1.387 . S
C389 C391 1.390 . S
C389 H393 0.950 . S
H390 C386 0.950 . S
C391 C389 1.390 . S
C391 C392 1.387 . S
C391 H394 0.950 . S
C392 C391 1.387 . S
C392 C395 1.387 . S
H393 C389 0.950 . S
H394 C391 0.950 . S
C395 C386 1.390 . S
C395 H388 0.950 . S
C395 C392 1.387 . S
C396 C397 1.387 . S
C396 H400 0.950 . S
C396 C405 1.390 1_545 S
C397 C396 1.387 . S
C397 C399 1.387 . S
H398 C405 0.950 . S
C399 C397 1.387 . S
C399 C401 1.390 1_545 S
C399 H403 0.950 . S
H400 C396 0.950 . S
C401 C399 1.390 1_565 S
C401 C402 1.387 . S
C401 H404 0.950 . S
C402 C401 1.387 . S
C402 C405 1.387 . S
H403 C399 0.950 . S
H404 C401 0.950 . S
C405 C396 1.390 1_565 S
C405 H398 0.950 . S
C405 C402 1.387 . S
C406 C407 1.387 . S
C406 H410 0.950 . S
C406 C415 1.390 1_665 S
C407 C406 1.387 . S
C407 C409 1.387 . S
H408 C415 0.950 . S
C409 C407 1.387 . S
C409 C411 1.390 1_665 S
C409 H413 0.950 . S
H410 C406 0.950 . S
C411 C409 1.390 1_445 S
C411 C412 1.387 . S
C411 H414 0.950 . S
C412 C411 1.387 . S
C412 C415 1.387 . S
H413 C409 0.950 . S
H414 C411 0.950 . S
C415 C406 1.390 1_445 S
C415 H408 0.950 . S
C415 C412 1.387 . S
C177 C170 1.384 . S
C182 C5 1.381 . S
C187 C137 1.380 . S
C192 C16 1.384 . S
C197 C27 1.380 . S
C202 C148 1.384 . S
C207 C38 1.382 . S
C212 C159 1.380 . S
C217 C49 1.384 . S
C222 C104 1.383 . S
C227 C60 1.380 . S
C232 C115 1.384 . S
C237 C71 1.380 . S
C242 C126 1.382 . S
C247 C82 1.383 . S
C252 C93 1.380 . S
C257 C7 1.539 . S
C262 C51 1.539 . S
C267 C62 1.539 . S
C272 C18 1.539 . S
C277 C73 1.541 . S
C282 C29 1.541 . S
C287 C40 1.541 . S
C292 C84 1.541 . S
C297 C95 1.539 . S
C302 C139 1.539 . S
C307 C106 1.541 . S
C312 C150 1.541 . S
C317 C117 1.539 . S
C322 C161 1.539 . S
C327 C128 1.541 . S
C332 C172 1.541 . S
C337 C8 1.583 . S
C342 C118 1.583 . S
C347 C129 1.582 . S
C352 C19 1.582 . S
C357 C96 1.583 . S
C362 C30 1.583 . S
C367 C107 1.582 . S
C372 C41 1.582 . S
C377 C162 1.583 . S
C382 C52 1.583 . S
C387 C63 1.583 . S
C392 C173 1.583 . S
C397 C74 1.582 . S
C402 C140 1.582 . S
C407 C85 1.582 . S
C412 C151 1.582 . S
