# Generated by pormake.
# Topology snl, (6)-cn, num edge types: 1
# Building blocks:
#     Node 0, Type 0, BuildingBlock: CUKXOW_clean_sbu_0, # of connection points: 6
#     Node 1, Type 0, BuildingBlock: CUKXOW_clean_sbu_0, # of connection points: 6
#     Node 2, Type 0, BuildingBlock: CUKXOW_clean_sbu_0, # of connection points: 6
#     Node 3, Type 0, BuildingBlock: CUKXOW_clean_sbu_0, # of connection points: 6
#     Node 4, Type 0, BuildingBlock: CUKXOW_clean_sbu_0, # of connection points: 6
#     Node 5, Type 0, BuildingBlock: CUKXOW_clean_sbu_0, # of connection points: 6
#     Node 6, Type 0, BuildingBlock: CUKXOW_clean_sbu_0, # of connection points: 6
#     Node 7, Type 0, BuildingBlock: CUKXOW_clean_sbu_0, # of connection points: 6
#     Node 8, Type 0, BuildingBlock: CUKXOW_clean_sbu_0, # of connection points: 6
#     Node 9, Type 0, BuildingBlock: CUKXOW_clean_sbu_0, # of connection points: 6
#     Node 10, Type 0, BuildingBlock: CUKXOW_clean_sbu_0, # of connection points: 6
#     Node 11, Type 0, BuildingBlock: CUKXOW_clean_sbu_0, # of connection points: 6
#     Node 12, Type 0, BuildingBlock: CUKXOW_clean_sbu_0, # of connection points: 6
#     Node 13, Type 0, BuildingBlock: CUKXOW_clean_sbu_0, # of connection points: 6
#     Node 14, Type 0, BuildingBlock: CUKXOW_clean_sbu_0, # of connection points: 6
#     Node 15, Type 0, BuildingBlock: CUKXOW_clean_sbu_0, # of connection points: 6
#     Edge 16, Type (0, 0), BuildingBlock: KIFKEQ_clean_linker_1, # of connection points: 2
#     Edge 17, Type (0, 0), BuildingBlock: KIFKEQ_clean_linker_1, # of connection points: 2
#     Edge 18, Type (0, 0), BuildingBlock: KIFKEQ_clean_linker_1, # of connection points: 2
#     Edge 19, Type (0, 0), BuildingBlock: KIFKEQ_clean_linker_1, # of connection points: 2
#     Edge 20, Type (0, 0), BuildingBlock: KIFKEQ_clean_linker_1, # of connection points: 2
#     Edge 21, Type (0, 0), BuildingBlock: KIFKEQ_clean_linker_1, # of connection points: 2
#     Edge 22, Type (0, 0), BuildingBlock: KIFKEQ_clean_linker_1, # of connection points: 2
#     Edge 23, Type (0, 0), BuildingBlock: KIFKEQ_clean_linker_1, # of connection points: 2
#     Edge 24, Type (0, 0), BuildingBlock: KIFKEQ_clean_linker_1, # of connection points: 2
#     Edge 25, Type (0, 0), BuildingBlock: KIFKEQ_clean_linker_1, # of connection points: 2
#     Edge 26, Type (0, 0), BuildingBlock: KIFKEQ_clean_linker_1, # of connection points: 2
#     Edge 27, Type (0, 0), BuildingBlock: KIFKEQ_clean_linker_1, # of connection points: 2
#     Edge 28, Type (0, 0), BuildingBlock: KIFKEQ_clean_linker_1, # of connection points: 2
#     Edge 29, Type (0, 0), BuildingBlock: KIFKEQ_clean_linker_1, # of connection points: 2
#     Edge 30, Type (0, 0), BuildingBlock: KIFKEQ_clean_linker_1, # of connection points: 2
#     Edge 31, Type (0, 0), BuildingBlock: KIFKEQ_clean_linker_1, # of connection points: 2
#     Edge 32, Type (0, 0), BuildingBlock: KIFKEQ_clean_linker_1, # of connection points: 2
#     Edge 33, Type (0, 0), BuildingBlock: KIFKEQ_clean_linker_1, # of connection points: 2
#     Edge 34, Type (0, 0), BuildingBlock: KIFKEQ_clean_linker_1, # of connection points: 2
#     Edge 35, Type (0, 0), BuildingBlock: KIFKEQ_clean_linker_1, # of connection points: 2
#     Edge 36, Type (0, 0), BuildingBlock: KIFKEQ_clean_linker_1, # of connection points: 2
#     Edge 37, Type (0, 0), BuildingBlock: KIFKEQ_clean_linker_1, # of connection points: 2
#     Edge 38, Type (0, 0), BuildingBlock: KIFKEQ_clean_linker_1, # of connection points: 2
#     Edge 39, Type (0, 0), BuildingBlock: KIFKEQ_clean_linker_1, # of connection points: 2
#     Edge 40, Type (0, 0), BuildingBlock: KIFKEQ_clean_linker_1, # of connection points: 2
#     Edge 41, Type (0, 0), BuildingBlock: KIFKEQ_clean_linker_1, # of connection points: 2
#     Edge 42, Type (0, 0), BuildingBlock: KIFKEQ_clean_linker_1, # of connection points: 2
#     Edge 43, Type (0, 0), BuildingBlock: KIFKEQ_clean_linker_1, # of connection points: 2
#     Edge 44, Type (0, 0), BuildingBlock: KIFKEQ_clean_linker_1, # of connection points: 2
#     Edge 45, Type (0, 0), BuildingBlock: KIFKEQ_clean_linker_1, # of connection points: 2
#     Edge 46, Type (0, 0), BuildingBlock: KIFKEQ_clean_linker_1, # of connection points: 2
#     Edge 47, Type (0, 0), BuildingBlock: KIFKEQ_clean_linker_1, # of connection points: 2
#     Edge 48, Type (0, 0), BuildingBlock: KIFKEQ_clean_linker_1, # of connection points: 2
#     Edge 49, Type (0, 0), BuildingBlock: KIFKEQ_clean_linker_1, # of connection points: 2
#     Edge 50, Type (0, 0), BuildingBlock: KIFKEQ_clean_linker_1, # of connection points: 2
#     Edge 51, Type (0, 0), BuildingBlock: KIFKEQ_clean_linker_1, # of connection points: 2
#     Edge 52, Type (0, 0), BuildingBlock: KIFKEQ_clean_linker_1, # of connection points: 2
#     Edge 53, Type (0, 0), BuildingBlock: KIFKEQ_clean_linker_1, # of connection points: 2
#     Edge 54, Type (0, 0), BuildingBlock: KIFKEQ_clean_linker_1, # of connection points: 2
#     Edge 55, Type (0, 0), BuildingBlock: KIFKEQ_clean_linker_1, # of connection points: 2
#     Edge 56, Type (0, 0), BuildingBlock: KIFKEQ_clean_linker_1, # of connection points: 2
#     Edge 57, Type (0, 0), BuildingBlock: KIFKEQ_clean_linker_1, # of connection points: 2
#     Edge 58, Type (0, 0), BuildingBlock: KIFKEQ_clean_linker_1, # of connection points: 2
#     Edge 59, Type (0, 0), BuildingBlock: KIFKEQ_clean_linker_1, # of connection points: 2
#     Edge 60, Type (0, 0), BuildingBlock: KIFKEQ_clean_linker_1, # of connection points: 2
#     Edge 61, Type (0, 0), BuildingBlock: KIFKEQ_clean_linker_1, # of connection points: 2
#     Edge 62, Type (0, 0), BuildingBlock: KIFKEQ_clean_linker_1, # of connection points: 2
#     Edge 63, Type (0, 0), BuildingBlock: KIFKEQ_clean_linker_1, # of connection points: 2
# Relax obj value: 0.193
# Max RMSD: 0.285
# Mean RMSD: 0.225
data_MOF--net-snl--node1-CUKXOW_clean_sbu_0--edge1-KIFKEQ_clean_linker_1
_symmetry_space_group_name_H-M    P1
_symmetry_Int_Tables_number       1
_symmetry_cell_setting            triclinic
loop_
_symmetry_equiv_pos_as_xyz
'x, y, z'
_cell_length_a     68.155248
_cell_length_b     65.644984
_cell_length_c     14.677574
_cell_angle_alpha  94.433516
_cell_angle_beta   94.555484
_cell_angle_gamma 90.115868
loop_
_atom_site_label
_atom_site_type_symbol
_atom_site_fract_x
_atom_site_fract_y
_atom_site_fract_z
_atom_type_partial_charge
Tb0 Tb 0.11423 0.62019 0.16182 0.0
C1 C 0.13767 0.66057 0.22302 0.0
Tb2 Tb 0.15928 0.61804 0.213 0.0
O3 O 0.10858 0.62969 0.30323 0.0
O4 O 0.13306 0.61192 0.2776 0.0
O5 O 0.12208 0.65233 0.17376 0.0
C6 C 0.19475 0.61391 0.29909 0.0
O7 O 0.15304 0.64987 0.25292 0.0
C8 C 0.15186 0.62296 0.03431 0.0
C9 C 0.13576 0.57782 0.14846 0.0
O10 O 0.18268 0.62871 0.3171 0.0
O11 O 0.1868 0.60155 0.23333 0.0
O12 O 0.16939 0.622 0.07514 0.0
O13 O 0.14026 0.62185 0.09619 0.0
O14 O 0.15089 0.58594 0.20144 0.0
O15 O 0.1209 0.58887 0.11612 0.0
C16 C 0.07806 0.61876 0.07868 0.0
O17 O 0.08444 0.60742 0.14328 0.0
O18 O 0.09203 0.63102 0.06121 0.0
C19 C 0.12466 0.62218 0.33993 0.0
Tb20 Tb 0.59977 0.87796 0.42929 0.0
C21 C 0.62229 0.83574 0.42911 0.0
Tb22 Tb 0.64565 0.87804 0.42038 0.0
O23 O 0.59727 0.86343 0.29019 0.0
O24 O 0.62042 0.88364 0.33009 0.0
O25 O 0.60625 0.84593 0.45224 0.0
C26 C 0.6822 0.87853 0.36098 0.0
O27 O 0.63826 0.8451 0.40429 0.0
C28 C 0.63666 0.87616 0.5921 0.0
C29 C 0.62381 0.92037 0.456 0.0
O30 O 0.66756 0.86707 0.32438 0.0
O31 O 0.67606 0.88971 0.4297 0.0
O32 O 0.65447 0.87593 0.56648 0.0
O33 O 0.6252 0.877 0.52053 0.0
O34 O 0.63974 0.91092 0.42738 0.0
O35 O 0.60721 0.9104 0.46771 0.0
C36 C 0.56062 0.8827 0.44262 0.0
O37 O 0.57072 0.88854 0.37794 0.0
O38 O 0.57276 0.87449 0.5024 0.0
C39 C 0.61305 0.8716 0.26482 0.0
Tb40 Tb 0.40943 0.36695 0.67628 0.0
C41 C 0.38506 0.32715 0.69847 0.0
Tb42 Tb 0.36439 0.37046 0.69661 0.0
O43 O 0.41967 0.36776 0.82392 0.0
O44 O 0.39059 0.37039 0.78212 0.0
O45 O 0.40135 0.33463 0.66863 0.0
C46 C 0.32771 0.36967 0.7464 0.0
O47 O 0.36993 0.33867 0.72108 0.0
C48 C 0.37535 0.37335 0.52822 0.0
C49 C 0.38832 0.41003 0.68927 0.0
O50 O 0.33371 0.36025 0.67276 0.0
O51 O 0.34235 0.37951 0.79198 0.0
O52 O 0.35975 0.38171 0.5596 0.0
O53 O 0.38305 0.36237 0.58833 0.0
O54 O 0.37334 0.40194 0.72623 0.0
O55 O 0.40216 0.39869 0.65206 0.0
C56 C 0.44465 0.36798 0.6081 0.0
O57 O 0.43558 0.38348 0.64457 0.0
O58 O 0.43387 0.35168 0.60974 0.0
C59 C 0.40222 0.36994 0.85295 0.0
Tb60 Tb 0.88141 0.15344 0.91355 0.0
C61 C 0.92253 0.13021 0.92075 0.0
Tb62 Tb 0.88277 0.1043 0.9304 0.0
O63 O 0.88441 0.16179 0.06334 0.0
O64 O 0.88319 0.13202 1.01416 0.0
O65 O 0.91231 0.14629 0.89303 0.0
C66 C 0.88434 0.06629 0.99073 0.0
O67 O 0.91404 0.1139 0.95148 0.0
C68 C 0.88073 0.11406 0.75679 0.0
C69 C 0.84146 0.12633 0.89244 0.0
O70 O 0.89525 0.07337 0.93151 0.0
O71 O 0.87271 0.08087 1.01783 0.0
O72 O 0.88122 0.0955 0.78197 0.0
O73 O 0.88085 0.12567 0.82945 0.0
O74 O 0.85091 0.11 0.92246 0.0
O75 O 0.85072 0.14345 0.87506 0.0
C76 C 0.87797 0.19289 0.87253 0.0
O77 O 0.86443 0.18179 0.90256 0.0
O78 O 0.89334 0.1814 0.86169 0.0
C79 C 0.88451 0.14325 0.0877 0.0
Tb80 Tb 0.10674 0.38433 0.98998 0.0
C81 C 0.12638 0.34275 0.93437 0.0
Tb82 Tb 0.15181 0.38329 0.97094 0.0
O83 O 0.09671 0.3888 0.8454 0.0
O84 O 0.12592 0.38655 0.8864 0.0
O85 O 0.11182 0.35178 0.97608 0.0
C86 C 0.18835 0.37866 0.92125 0.0
O87 O 0.1428 0.35238 0.91911 0.0
C88 C 0.14103 0.38679 0.14106 0.0
C89 C 0.13124 0.42551 1.00221 0.0
O90 O 0.18114 0.37 0.98797 0.0
O91 O 0.17499 0.38995 0.88253 0.0
O92 O 0.15731 0.39397 0.11564 0.0
O93 O 0.13234 0.37648 0.07304 0.0
O94 O 0.14631 0.41581 0.96708 0.0
O95 O 0.11548 0.41594 1.02607 0.0
C96 C 0.07198 0.38354 0.06076 0.0
O97 O 0.08606 0.39655 0.08723 0.0
O98 O 0.07748 0.37118 0.99451 0.0
C99 C 0.11426 0.38838 0.81657 0.0
Tb100 Tb 0.90699 0.87427 0.14958 0.0
C101 C 0.8849 0.83106 0.1405 0.0
Tb102 Tb 0.8628 0.87317 0.15146 0.0
O103 O 0.91001 0.88693 0.29154 0.0
O104 O 0.8867 0.86769 0.24874 0.0
O105 O 0.90088 0.84117 0.12116 0.0
C106 C 0.82491 0.87604 0.19491 0.0
O107 O 0.86906 0.84086 0.16795 0.0
C108 C 0.87586 0.86652 0.98723 0.0
C109 C 0.88432 0.91576 0.13042 0.0
O110 O 0.83079 0.87249 0.11331 0.0
O111 O 0.84045 0.87823 0.25226 0.0
O112 O 0.8598 0.85866 1.01194 0.0
O113 O 0.88303 0.87884 0.05164 0.0
O114 O 0.86867 0.90664 0.15926 0.0
O115 O 0.89984 0.90487 0.1068 0.0
C116 C 0.94648 0.87323 0.1348 0.0
O117 O 0.93657 0.88813 0.17077 0.0
O118 O 0.93399 0.8588 0.1041 0.0
C119 C 0.89393 0.87931 0.31526 0.0
Tb120 Tb 0.38045 0.63892 0.44274 0.0
C121 C 0.4213 0.61823 0.47784 0.0
Tb122 Tb 0.38193 0.59215 0.46462 0.0
O123 O 0.39026 0.64597 0.58792 0.0
O124 O 0.375 0.619 0.54702 0.0
O125 O 0.41165 0.63332 0.43991 0.0
C126 C 0.38271 0.55593 0.53426 0.0
O127 O 0.41239 0.60171 0.50222 0.0
C128 C 0.38434 0.59991 0.28928 0.0
C129 C 0.34097 0.61352 0.43015 0.0
O130 O 0.39535 0.57062 0.55729 0.0
O131 O 0.36967 0.56166 0.47234 0.0
O132 O 0.38502 0.58173 0.31849 0.0
O133 O 0.38286 0.61188 0.35946 0.0
O134 O 0.35053 0.59823 0.46767 0.0
O135 O 0.35012 0.62965 0.40357 0.0
C136 C 0.37707 0.67519 0.37464 0.0
O137 O 0.36641 0.66878 0.43642 0.0
O138 O 0.38972 0.66133 0.35245 0.0
C139 C 0.38457 0.62861 0.6144 0.0
Tb140 Tb 0.60704 0.11805 0.61777 0.0
C141 C 0.63112 0.15957 0.64869 0.0
Tb142 Tb 0.65438 0.11763 0.66491 0.0
O143 O 0.59934 0.11928 0.76128 0.0
O144 O 0.62801 0.11817 0.73219 0.0
O145 O 0.61584 0.14962 0.60321 0.0
C146 C 0.69211 0.1204 0.73829 0.0
O147 O 0.64606 0.14991 0.69113 0.0
C148 C 0.64454 0.11731 0.48566 0.0
C149 C 0.63068 0.07567 0.60842 0.0
O150 O 0.68357 0.13218 0.68044 0.0
O151 O 0.67908 0.10708 0.75762 0.0
O152 O 0.66243 0.11683 0.52264 0.0
O153 O 0.63344 0.11755 0.55041 0.0
O154 O 0.64724 0.08465 0.64798 0.0
O155 O 0.61443 0.08593 0.58362 0.0
C156 C 0.56863 0.11919 0.55601 0.0
O157 O 0.57886 0.10278 0.56862 0.0
O158 O 0.58043 0.13485 0.57312 0.0
C159 C 0.61721 0.11901 0.79781 0.0
Tb160 Tb 0.84769 0.39067 0.91094 0.0
C161 C 0.86958 0.43345 0.96259 0.0
Tb162 Tb 0.89399 0.39205 0.96697 0.0
O163 O 0.83814 0.39157 0.05253 0.0
O164 O 0.86722 0.39127 0.02903 0.0
O165 O 0.85434 0.42361 0.91565 0.0
C166 C 0.92918 0.39348 0.06022 0.0
O167 O 0.88497 0.42367 1.0 0.0
C168 C 0.88566 0.39182 0.78553 0.0
C169 C 0.87276 0.34912 0.91389 0.0
O170 O 0.9217 0.40777 1.01218 0.0
O171 O 0.91677 0.37832 0.05603 0.0
O172 O 0.90339 0.39251 0.82549 0.0
O173 O 0.8744 0.39117 0.84897 0.0
O174 O 0.88816 0.3591 0.95826 0.0
O175 O 0.85676 0.35869 0.88048 0.0
C176 C 0.81266 0.38866 0.81568 0.0
O177 O 0.82082 0.37402 0.85929 0.0
O178 O 0.82428 0.40453 0.82531 0.0
C179 C 0.85587 0.39165 0.09258 0.0
Tb180 Tb 0.33712 0.13631 0.69385 0.0
C181 C 0.35539 0.09325 0.64023 0.0
Tb182 Tb 0.38438 0.13151 0.67171 0.0
O183 O 0.32872 0.13773 0.54541 0.0
O184 O 0.35739 0.13435 0.59199 0.0
O185 O 0.34099 0.10316 0.68077 0.0
C186 C 0.42104 0.12702 0.61592 0.0
O187 O 0.37191 0.10202 0.6194 0.0
C188 C 0.37509 0.1327 0.84665 0.0
C189 C 0.36599 0.17507 0.70947 0.0
O190 O 0.41196 0.11441 0.66268 0.0
O191 O 0.4092 0.14207 0.59854 0.0
O192 O 0.39285 0.13142 0.82076 0.0
O193 O 0.36405 0.13315 0.77392 0.0
O194 O 0.38036 0.16419 0.6738 0.0
O195 O 0.34929 0.16705 0.73381 0.0
C196 C 0.30022 0.13859 0.75049 0.0
O197 O 0.30822 0.15118 0.69982 0.0
O198 O 0.31334 0.12496 0.77187 0.0
C199 C 0.34647 0.13596 0.51965 0.0
Tb200 Tb 0.64937 0.63787 0.43253 0.0
C201 C 0.62829 0.59552 0.45221 0.0
Tb202 Tb 0.603 0.63683 0.45391 0.0
O203 O 0.65871 0.6369 0.58072 0.0
O204 O 0.62972 0.63821 0.53564 0.0
O205 O 0.64354 0.60481 0.42098 0.0
C206 C 0.56751 0.63246 0.51341 0.0
O207 O 0.61268 0.60568 0.4806 0.0
C208 C 0.61137 0.63622 0.27846 0.0
C209 C 0.62457 0.67951 0.44416 0.0
O210 O 0.57713 0.61841 0.46922 0.0
O211 O 0.57795 0.64923 0.52498 0.0
O212 O 0.59365 0.63574 0.30486 0.0
O213 O 0.62257 0.63699 0.3509 0.0
O214 O 0.60923 0.66984 0.47323 0.0
O215 O 0.64038 0.66969 0.41525 0.0
C216 C 0.68396 0.63861 0.36136 0.0
O217 O 0.67915 0.65009 0.43209 0.0
O218 O 0.66926 0.62672 0.33041 0.0
C219 C 0.64096 0.63745 0.60752 0.0
Tb220 Tb 0.13651 0.8978 0.23558 0.0
C221 C 0.17768 0.87548 0.27192 0.0
Tb222 Tb 0.13717 0.84986 0.2552 0.0
O223 O 0.1358 0.90745 0.38353 0.0
O224 O 0.13583 0.87728 0.33814 0.0
O225 O 0.16825 0.89194 0.24348 0.0
C226 C 0.13454 0.81251 0.31218 0.0
O227 O 0.16839 0.85832 0.28837 0.0
C228 C 0.13838 0.8586 0.08099 0.0
C229 C 0.09669 0.87246 0.21854 0.0
O230 O 0.15005 0.82424 0.32642 0.0
O231 O 0.12065 0.82202 0.26785 0.0
O232 O 0.13883 0.84021 0.10782 0.0
O233 O 0.13768 0.87031 0.15249 0.0
O234 O 0.10592 0.8577 0.26191 0.0
O235 O 0.10645 0.88786 0.18865 0.0
C236 C 0.13375 0.93426 0.16961 0.0
O237 O 0.12055 0.92585 0.21375 0.0
O238 O 0.1487 0.92213 0.16236 0.0
C239 C 0.13555 0.88901 0.40983 0.0
Tb240 Tb 0.85271 0.63312 0.04795 0.0
C241 C 0.87435 0.59005 1.024 0.0
Tb242 Tb 0.89895 0.63148 1.02709 0.0
O243 O 0.84336 0.63559 0.90082 0.0
O244 O 0.87238 0.63325 0.94494 0.0
O245 O 0.85928 0.60046 0.05666 0.0
C246 C 0.93445 0.63023 0.9626 0.0
O247 O 0.8903 0.59923 0.9986 0.0
C248 C 0.89052 0.6308 0.20173 0.0
C249 C 0.87722 0.67459 0.04954 0.0
O250 O 0.92191 0.61517 0.95536 0.0
O251 O 0.92685 0.64601 1.00506 0.0
O252 O 0.90827 0.63068 0.17529 0.0
O253 O 0.87929 0.63097 0.12964 0.0
O254 O 0.89243 0.66415 1.01826 0.0
O255 O 0.86103 0.66552 0.07289 0.0
C256 C 0.81805 0.63399 0.11932 0.0
O257 O 0.83191 0.64761 0.13829 0.0
O258 O 0.82373 0.61987 0.06048 0.0
C259 C 0.86108 0.63464 0.87374 0.0
Tb260 Tb 0.11317 0.10867 0.86106 0.0
C261 C 0.15258 0.13416 0.84018 0.0
Tb262 Tb 0.11065 0.15648 0.84121 0.0
O263 O 0.111 0.09886 0.71242 0.0
O264 O 0.10996 0.12902 0.75762 0.0
O265 O 0.14455 0.11673 0.86126 0.0
C266 C 0.10762 0.19372 0.78178 0.0
O267 O 0.14204 0.15084 0.82462 0.0
C268 C 0.11403 0.1479 1.01685 0.0
C269 C 0.0718 0.13092 0.85788 0.0
O270 O 0.12261 0.18175 0.77333 0.0
O271 O 0.09423 0.18443 0.8215 0.0
O272 O 0.11293 0.16625 0.98979 0.0
O273 O 0.11377 0.13618 0.94487 0.0
O274 O 0.07971 0.1463 0.81842 0.0
O275 O 0.08279 0.11608 0.89198 0.0
C276 C 0.11714 0.07278 0.93142 0.0
O277 O 0.10221 0.07807 0.87804 0.0
O278 O 0.12976 0.08774 0.94572 0.0
C279 C 0.10965 0.11727 0.68569 0.0
Tb280 Tb 0.62799 0.40206 0.54883 0.0
C281 C 0.6687 0.38113 0.60016 0.0
Tb282 Tb 0.63063 0.35303 0.56906 0.0
O283 O 0.62801 0.41094 0.6975 0.0
O284 O 0.62831 0.38093 0.65034 0.0
O285 O 0.65965 0.39612 0.5574 0.0
C286 C 0.63238 0.31442 0.62081 0.0
O287 O 0.65942 0.36469 0.62371 0.0
C288 C 0.63127 0.36285 0.39506 0.0
C289 C 0.58941 0.37409 0.53288 0.0
O290 O 0.64664 0.32445 0.59028 0.0
O291 O 0.61724 0.32645 0.62492 0.0
O292 O 0.63241 0.34442 0.42089 0.0
O293 O 0.62988 0.37422 0.46713 0.0
O294 O 0.59931 0.3588 0.56892 0.0
O295 O 0.59799 0.39083 0.50724 0.0
C296 C 0.62668 0.44052 0.49434 0.0
O297 O 0.61264 0.43113 0.52966 0.0
O298 O 0.64129 0.42789 0.48657 0.0
C299 C 0.62835 0.39244 0.72303 0.0
Tb300 Tb 0.36968 0.90498 0.39921 0.0
C301 C 0.32834 0.8812 0.35664 0.0
Tb302 Tb 0.36994 0.86074 0.35735 0.0
O303 O 0.38091 0.91078 0.26777 0.0
O304 O 0.36308 0.88557 0.27679 0.0
O305 O 0.33765 0.89841 0.38942 0.0
C306 C 0.37573 0.82212 0.29548 0.0
O307 O 0.33823 0.86458 0.33154 0.0
C308 C 0.36507 0.8717 0.53087 0.0
C309 C 0.41034 0.88405 0.3958 0.0
O310 O 0.38549 0.83183 0.36473 0.0
O311 O 0.36262 0.83414 0.26048 0.0
O312 O 0.3578 0.85522 0.48661 0.0
O313 O 0.37616 0.88021 0.48021 0.0
O314 O 0.40067 0.86954 0.34216 0.0
O315 O 0.4004 0.8982 0.44209 0.0
C316 C 0.36577 0.94328 0.47031 0.0
O317 O 0.37806 0.9372 0.41138 0.0
O318 O 0.35554 0.92777 0.48986 0.0
C319 C 0.37368 0.89419 0.2246 0.0
H320 H 0.1158 0.62007 0.93305 0.0
H321 H 0.17801 0.6259 0.90582 0.0
H322 H 0.10948 0.61935 0.76599 0.0
H323 H 0.17186 0.62537 0.73978 0.0
H324 H 0.15569 0.60405 0.43601 0.0
H325 H 0.1619 0.60385 0.60311 0.0
H326 H 0.11011 0.64047 0.63922 0.0
H327 H 0.10391 0.64042 0.47362 0.0
C328 C 0.12809 0.62143 0.89158 0.0
C329 C 0.14737 0.62323 0.93311 0.0
C330 C 0.12452 0.62101 0.79553 0.0
C331 C 0.14016 0.62226 0.73835 0.0
C332 C 0.15942 0.62404 0.78058 0.0
C333 C 0.16295 0.62453 0.87625 0.0
C334 C 0.14568 0.61204 0.47984 0.0
C335 C 0.12928 0.62218 0.44119 0.0
C336 C 0.14925 0.61202 0.57582 0.0
C337 C 0.13645 0.62206 0.63563 0.0
C338 C 0.12013 0.63225 0.59623 0.0
C339 C 0.11665 0.63234 0.5008 0.0
H340 H 0.64124 0.89361 0.18964 0.0
H341 H 0.59342 0.85073 0.11791 0.0
H342 H 0.64586 0.89555 1.0267 0.0
H343 H 0.59811 0.85243 0.95566 0.0
H344 H 0.60035 0.87541 0.66575 0.0
H345 H 0.59447 0.87478 0.82897 0.0
H346 H 0.65723 0.87487 0.89917 0.0
H347 H 0.66294 0.87575 0.73866 0.0
C348 C 0.63183 0.88449 0.13914 0.0
C349 C 0.61701 0.872 0.16679 0.0
C350 C 0.63444 0.88557 0.04563 0.0
C351 C 0.62227 0.87421 0.97747 0.0
C352 C 0.60754 0.86165 1.00567 0.0
C353 C 0.60499 0.86052 0.09896 0.0
C354 C 0.61279 0.87532 0.71639 0.0
C355 C 0.63208 0.87564 0.68922 0.0
C356 C 0.60948 0.87489 0.80984 0.0
C357 C 0.62541 0.8749 0.87779 0.0
C358 C 0.6446 0.87522 0.84965 0.0
C359 C 0.64786 0.87557 0.75706 0.0
H360 H 0.40476 0.35261 0.44206 0.0
H361 H 0.35591 0.39296 0.39177 0.0
H362 H 0.41075 0.35114 0.27916 0.0
H363 H 0.36197 0.39182 0.23 0.0
H364 H 0.36606 0.37003 0.92667 0.0
H365 H 0.3597 0.37042 0.08885 0.0
H366 H 0.42231 0.37086 0.16325 0.0
H367 H 0.42847 0.37023 1.00187 0.0
C368 C 0.39538 0.36125 0.39635 0.0
C369 C 0.37985 0.37287 0.43012 0.0
C370 C 0.39882 0.36049 0.30277 0.0
C371 C 0.3868 0.37129 0.24033 0.0
C372 C 0.37136 0.38299 0.27487 0.0
C373 C 0.36798 0.38379 0.36818 0.0
C374 C 0.3784 0.37032 0.97773 0.0
C375 C 0.39774 0.37025 0.95102 0.0
C376 C 0.37481 0.37058 0.07106 0.0
C377 C 0.39048 0.37068 0.14022 0.0
C378 C 0.40981 0.37048 0.11276 0.0
C379 C 0.41335 0.37027 1.01983 0.0
H380 H 0.887 0.08778 0.61226 0.0
H381 H 0.8761 0.15155 0.68229 0.0
H382 H 0.88866 0.09434 0.45303 0.0
H383 H 0.87682 0.15821 0.52016 0.0
H384 H 0.89744 0.1673 0.23803 0.0
H385 H 0.89666 0.16083 0.39862 0.0
H386 H 0.87095 0.10125 0.31775 0.0
H387 H 0.87255 0.10768 0.15658 0.0
C388 C 0.88476 0.10328 0.59327 0.0
C389 C 0.8814 0.11916 0.6601 0.0
C390 C 0.88553 0.10703 0.50118 0.0
C391 C 0.88273 0.12679 0.47213 0.0
C392 C 0.87933 0.14279 0.53937 0.0
C393 C 0.87878 0.13902 0.63243 0.0
C394 C 0.89184 0.15269 0.25465 0.0
C395 C 0.8853 0.13785 0.18444 0.0
C396 C 0.89115 0.14907 0.34715 0.0
C397 C 0.88362 0.13055 0.3726 0.0
C398 C 0.87719 0.1156 0.30179 0.0
C399 C 0.87812 0.11918 0.20893 0.0
H400 H 0.10934 0.36952 0.21475 0.0
H401 H 0.16249 0.40465 0.29003 0.0
H402 H 0.10315 0.36954 0.37734 0.0
H403 H 0.15634 0.40486 0.45127 0.0
H404 H 0.15005 0.38426 0.74042 0.0
H405 H 0.15621 0.38346 0.57789 0.0
H406 H 0.09412 0.39142 0.50758 0.0
H407 H 0.08811 0.39209 0.66936 0.0
C408 C 0.11965 0.37731 0.26586 0.0
C409 C 0.13642 0.38704 0.23908 0.0
C410 C 0.1161 0.3774 0.35928 0.0
C411 C 0.1293 0.38712 0.42846 0.0
C412 C 0.14599 0.39691 0.40092 0.0
C413 C 0.14945 0.39691 0.30794 0.0
C414 C 0.13779 0.386 0.69033 0.0
C415 C 0.11864 0.38841 0.71835 0.0
C416 C 0.14127 0.38555 0.5968 0.0
C417 C 0.12566 0.38735 0.52857 0.0
C418 C 0.10651 0.3897 0.5572 0.0
C419 C 0.10308 0.39025 0.65044 0.0
H420 H 0.86476 0.83906 0.84388 0.0
H421 H 0.89475 0.89682 0.91071 0.0
H422 H 0.86885 0.84184 0.68153 0.0
H423 H 0.89777 0.90043 0.74896 0.0
H424 H 0.91734 0.89392 0.46348 0.0
H425 H 0.91376 0.8898 0.62351 0.0
H426 H 0.85855 0.85772 0.55009 0.0
H427 H 0.86308 0.86065 0.38782 0.0
C428 C 0.87223 0.85237 0.82355 0.0
C429 C 0.87959 0.86763 0.88983 0.0
C430 C 0.87437 0.85412 0.73029 0.0
C431 C 0.88361 0.87141 0.70087 0.0
C432 C 0.89097 0.88665 0.76807 0.0
C433 C 0.88919 0.88466 0.86128 0.0
C434 C 0.90439 0.88599 0.48131 0.0
C435 C 0.89045 0.87766 0.41283 0.0
C436 C 0.90223 0.88376 0.57376 0.0
C437 C 0.88577 0.87353 0.60113 0.0
C438 C 0.87161 0.86542 0.53228 0.0
C439 C 0.87402 0.86731 0.4391 0.0
H440 H 0.36969 0.59477 0.6868 0.0
H441 H 0.39998 0.65193 0.76502 0.0
H442 H 0.36936 0.58815 0.84884 0.0
H443 H 0.39987 0.64535 0.92633 0.0
H444 H 0.37882 0.63691 0.21257 0.0
H445 H 0.37885 0.64364 0.05063 0.0
H446 H 0.39004 0.57982 0.98138 0.0
H447 H 0.38995 0.57327 0.14266 0.0
C448 C 0.37636 0.60587 0.73852 0.0
C449 C 0.38483 0.62389 0.71262 0.0
C450 C 0.37626 0.60208 0.83172 0.0
C451 C 0.38453 0.61625 0.90181 0.0
C452 C 0.39307 0.6342 0.87523 0.0
C453 C 0.39326 0.63791 0.78229 0.0
C454 C 0.38152 0.62442 0.16294 0.0
C455 C 0.38462 0.60463 0.19119 0.0
C456 C 0.38152 0.62822 0.06967 0.0
C457 C 0.38445 0.61229 1.00178 0.0
C458 C 0.38746 0.59248 0.03062 0.0
C459 C 0.38755 0.58874 0.12362 0.0
H460 H 0.59373 0.13147 0.92927 0.0
H461 H 0.65185 0.10804 0.89211 0.0
H462 H 0.59983 0.13124 0.09416 0.0
H463 H 0.65786 0.10683 0.05855 0.0
H464 H 0.66973 0.12551 0.36166 0.0
H465 H 0.66369 0.12638 0.19732 0.0
H466 H 0.6026 0.11061 0.21718 0.0
H467 H 0.6087 0.11075 0.3844 0.0
C468 C 0.60789 0.12621 0.95672 0.0
C469 C 0.62238 0.11986 0.89786 0.0
C470 C 0.6113 0.12584 0.0516 0.0
C471 C 0.62925 0.11882 0.09074 0.0
C472 C 0.64391 0.11261 0.03149 0.0
C473 C 0.64054 0.11326 0.93598 0.0
C474 C 0.65495 0.12229 0.33108 0.0
C475 C 0.63965 0.11808 0.38592 0.0
C476 C 0.65153 0.12258 0.23624 0.0
C477 C 0.63271 0.11838 0.19274 0.0
C478 C 0.61728 0.11419 0.24794 0.0
C479 C 0.6207 0.11417 0.34377 0.0
H480 H 0.89139 0.38432 0.188 0.0
H481 H 0.83118 0.40035 0.22605 0.0
H482 H 0.89816 0.38374 0.35388 0.0
H483 H 0.83793 0.40095 0.39137 0.0
H484 H 0.85014 0.38323 0.68518 0.0
H485 H 0.84327 0.38272 0.51868 0.0
H486 H 0.90321 0.40198 0.49355 0.0
H487 H 0.91008 0.40132 0.65816 0.0
C488 C 0.87968 0.388 0.23196 0.0
C489 C 0.86078 0.39237 0.19366 0.0
C490 C 0.88352 0.3878 0.32763 0.0
C491 C 0.86862 0.39228 0.38793 0.0
C492 C 0.84978 0.39695 0.34862 0.0
C493 C 0.84592 0.39683 0.25325 0.0
C494 C 0.86178 0.38734 0.64368 0.0
C495 C 0.88065 0.39228 0.68496 0.0
C496 C 0.85787 0.38718 0.54785 0.0
C497 C 0.87267 0.39227 0.49077 0.0
C498 C 0.89145 0.39748 0.53337 0.0
C499 C 0.89539 0.39732 0.62853 0.0
H500 H 0.38106 0.12424 0.44332 0.0
H501 H 0.32308 0.14761 0.37626 0.0
H502 H 0.38751 0.12295 0.28094 0.0
H503 H 0.32962 0.14736 0.21614 0.0
H504 H 0.33902 0.12798 0.91793 0.0
H505 H 0.33258 0.12809 0.07972 0.0
H506 H 0.39413 0.14107 0.15756 0.0
H507 H 0.40045 0.13993 0.99681 0.0
C508 C 0.36981 0.12936 0.39407 0.0
C509 C 0.35158 0.13602 0.42279 0.0
C510 C 0.37347 0.12872 0.30062 0.0
C511 C 0.35907 0.13498 0.23367 0.0
C512 C 0.34098 0.14192 0.26384 0.0
C513 C 0.33728 0.14228 0.35646 0.0
C514 C 0.35108 0.13092 0.9698 0.0
C515 C 0.3702 0.13396 0.94422 0.0
C516 C 0.34745 0.13107 0.0631 0.0
C517 C 0.36283 0.13455 0.13344 0.0
C518 C 0.38189 0.13787 0.10679 0.0
C519 C 0.3855 0.13745 1.01397 0.0
H520 H 0.58733 0.62525 0.12675 0.0
H521 H 0.6463 0.64676 0.20945 0.0
H522 H 0.59404 0.62495 0.96642 0.0
H523 H 0.65303 0.64729 0.04828 0.0
H524 H 0.66574 0.62929 0.7535 0.0
H525 H 0.65899 0.62848 0.91327 0.0
H526 H 0.59831 0.64389 0.84257 0.0
H527 H 0.60512 0.6437 0.6811 0.0
C528 C 0.60179 0.62998 0.11049 0.0
C529 C 0.61635 0.63581 0.18113 0.0
C530 C 0.60562 0.63002 1.01797 0.0
C531 C 0.6241 0.63616 0.9926 0.0
C532 C 0.6387 0.64206 0.0639 0.0
C533 C 0.6349 0.6418 0.15683 0.0
C534 C 0.6509 0.63239 0.77197 0.0
C535 C 0.63596 0.63651 0.70428 0.0
C536 C 0.64704 0.63214 0.86433 0.0
C537 C 0.62809 0.63627 0.89272 0.0
C538 C 0.61306 0.64032 0.82436 0.0
C539 C 0.61693 0.64033 0.73138 0.0
H540 H 0.12651 0.91414 0.55485 0.0
H541 H 0.14481 0.85253 0.48409 0.0
H542 H 0.12682 0.90715 0.71496 0.0
H543 H 0.14639 0.84561 0.64593 0.0
H544 H 0.13078 0.83258 0.93048 0.0
H545 H 0.1296 0.83949 0.77014 0.0
H546 H 0.14495 0.9027 0.85 0.0
H547 H 0.14487 0.89574 1.01129 0.0
C548 C 0.13077 0.89906 0.57392 0.0
C549 C 0.13557 0.88386 0.50673 0.0
C550 C 0.13117 0.89507 0.66643 0.0
C551 C 0.13677 0.87581 0.69533 0.0
C552 C 0.14163 0.86056 0.62738 0.0
C553 C 0.14086 0.86449 0.53421 0.0
C554 C 0.13383 0.848 0.91372 0.0
C555 C 0.13787 0.86363 0.98373 0.0
C556 C 0.13336 0.85196 0.82118 0.0
C557 C 0.13729 0.87167 0.79524 0.0
C558 C 0.14147 0.88736 0.86599 0.0
C559 C 0.14157 0.88341 0.95897 0.0
H560 H 0.89606 0.62477 0.79899 0.0
H561 H 0.83699 0.64473 0.72854 0.0
H562 H 0.90269 0.62323 0.63721 0.0
H563 H 0.84368 0.64433 0.56819 0.0
H564 H 0.85463 0.62453 0.27136 0.0
H565 H 0.84782 0.62505 0.43292 0.0
H566 H 0.90872 0.64091 0.51297 0.0
H567 H 0.91545 0.6393 0.35267 0.0
C568 C 0.88459 0.62911 0.74901 0.0
C569 C 0.86602 0.63487 0.77671 0.0
C570 C 0.88836 0.62835 0.65581 0.0
C571 C 0.87373 0.63362 0.58782 0.0
C572 C 0.85527 0.63969 0.61682 0.0
C573 C 0.85146 0.64015 0.70947 0.0
C574 C 0.86647 0.62814 0.3238 0.0
C575 C 0.88556 0.63186 0.29908 0.0
C576 C 0.86262 0.62856 0.41688 0.0
C577 C 0.87771 0.63298 0.48777 0.0
C578 C 0.89672 0.63696 0.46185 0.0
C579 C 0.90058 0.63624 0.36929 0.0
H580 H 0.10104 0.09189 0.53344 0.0
H581 H 0.11823 0.15408 0.61852 0.0
H582 H 0.1018 0.0989 0.37359 0.0
H583 H 0.12023 0.16106 0.45829 0.0
H584 H 0.10579 0.17365 0.16123 0.0
H585 H 0.10402 0.16667 0.32019 0.0
H586 H 0.12038 0.10396 0.25355 0.0
H587 H 0.12089 0.11095 0.09245 0.0
C588 C 0.10508 0.10713 0.51772 0.0
C589 C 0.10945 0.12247 0.5887 0.0
C590 C 0.10576 0.11113 0.42557 0.0
C591 C 0.11122 0.13057 0.40115 0.0
C592 C 0.11559 0.14597 0.47294 0.0
C593 C 0.11455 0.14201 0.56536 0.0
C594 C 0.10897 0.15833 0.18047 0.0
C595 C 0.11349 0.14284 0.11389 0.0
C596 C 0.10815 0.15433 0.27247 0.0
C597 C 0.11215 0.13473 0.30175 0.0
C598 C 0.11682 0.11921 0.23464 0.0
C599 C 0.1173 0.12318 0.14186 0.0
H600 H 0.64185 0.33812 0.25214 0.0
H601 H 0.62125 0.39909 0.31885 0.0
H602 H 0.64169 0.3448 0.0918 0.0
H603 H 0.62007 0.40569 0.15635 0.0
H604 H 0.63666 0.41843 0.87266 0.0
H605 H 0.63788 0.41181 0.03329 0.0
H606 H 0.62284 0.34845 0.95584 0.0
H607 H 0.62264 0.35514 0.7937 0.0
C608 C 0.63718 0.35302 0.23221 0.0
C609 C 0.63163 0.36811 0.29838 0.0
C610 C 0.63687 0.35679 0.13954 0.0
C611 C 0.63071 0.37575 0.10935 0.0
C612 C 0.62521 0.39096 0.17616 0.0
C613 C 0.62579 0.38723 0.26962 0.0
C614 C 0.63373 0.40302 0.88987 0.0
C615 C 0.6296 0.38728 0.82028 0.0
C616 C 0.63421 0.39924 0.98258 0.0
C617 C 0.6303 0.37961 1.00921 0.0
C618 C 0.62623 0.36376 0.93903 0.0
C619 C 0.62602 0.36753 0.84571 0.0
H620 H 0.39804 0.9091 0.10727 0.0
H621 H 0.34703 0.87047 0.11431 0.0
H622 H 0.39613 0.90362 0.94066 0.0
H623 H 0.3442 0.8659 0.94745 0.0
H624 H 0.35393 0.84563 0.6528 0.0
H625 H 0.35663 0.85047 0.81901 0.0
H626 H 0.37972 0.91147 0.80413 0.0
H627 H 0.37811 0.90591 0.63718 0.0
C628 C 0.38633 0.89951 0.07282 0.0
C629 C 0.37272 0.89019 0.12365 0.0
C630 C 0.38507 0.89652 0.97698 0.0
C631 C 0.36992 0.88439 0.92921 0.0
C632 C 0.35631 0.87504 0.9809 0.0
C633 C 0.35783 0.87773 0.07687 0.0
C634 C 0.35958 0.86008 0.68514 0.0
C635 C 0.36586 0.87538 0.63199 0.0
C636 C 0.361 0.86296 0.78089 0.0
C637 C 0.36838 0.88141 0.8264 0.0
C638 C 0.37434 0.89687 0.7725 0.0
C639 C 0.37326 0.89381 0.67654 0.0
H640 H 0.1686 0.6874 0.24596 0.0
H641 H 0.10591 0.68296 0.26523 0.0
H642 H 0.16741 0.72414 0.28549 0.0
H643 H 0.10477 0.71927 0.31116 0.0
H644 H 0.10502 0.78628 0.25214 0.0
H645 H 0.10587 0.74942 0.24283 0.0
H646 H 0.16332 0.75183 0.39228 0.0
H647 H 0.16282 0.78916 0.39611 0.0
C648 C 0.15462 0.69432 0.25993 0.0
C649 C 0.13728 0.68256 0.25058 0.0
C650 C 0.15393 0.71532 0.28372 0.0
C651 C 0.13594 0.72484 0.30084 0.0
C652 C 0.11879 0.71269 0.29585 0.0
C653 C 0.11942 0.69185 0.26968 0.0
C654 C 0.11771 0.77895 0.28433 0.0
C655 C 0.13393 0.7905 0.32412 0.0
C656 C 0.11817 0.75772 0.27962 0.0
C657 C 0.13474 0.74747 0.31627 0.0
C658 C 0.1505 0.75915 0.36145 0.0
C659 C 0.15016 0.78052 0.36471 0.0
H660 H 0.53655 0.8761 0.58105 0.0
H661 H 0.53485 0.89105 0.29956 0.0
H662 H 0.5003 0.87677 0.57288 0.0
H663 H 0.49893 0.89126 0.2908 0.0
H664 H 0.43551 0.86482 0.28081 0.0
H665 H 0.47151 0.86477 0.29571 0.0
H666 H 0.47148 0.90274 0.54893 0.0
H667 H 0.43535 0.90315 0.53318 0.0
C668 C 0.52847 0.87955 0.51761 0.0
C669 C 0.53865 0.88354 0.44105 0.0
C670 C 0.50771 0.87999 0.51292 0.0
C671 C 0.49662 0.88397 0.43093 0.0
C672 C 0.5069 0.88795 0.35472 0.0
C673 C 0.52755 0.88793 0.35997 0.0
C674 C 0.44312 0.87319 0.33972 0.0
C675 C 0.43241 0.88405 0.40554 0.0
C676 C 0.46382 0.87321 0.34813 0.0
C677 C 0.47448 0.88374 0.42358 0.0
C678 C 0.46379 0.89436 0.49026 0.0
C679 C 0.44305 0.89469 0.48086 0.0
H680 H 0.40638 0.29614 0.61926 0.0
H681 H 0.35953 0.30793 0.7976 0.0
H682 H 0.40175 0.25949 0.62772 0.0
H683 H 0.35537 0.27149 0.80872 0.0
H684 H 0.33797 0.20488 0.71981 0.0
H685 H 0.34307 0.2417 0.72057 0.0
H686 H 0.40595 0.23255 0.72613 0.0
H687 H 0.40078 0.19588 0.72213 0.0
C688 C 0.39528 0.29092 0.66112 0.0
C689 C 0.38325 0.30494 0.70713 0.0
C690 C 0.39266 0.26991 0.6664 0.0
C691 C 0.37811 0.26249 0.71871 0.0
C692 C 0.36642 0.2766 0.7663 0.0
C693 C 0.3689 0.29753 0.76026 0.0
C694 C 0.35287 0.21079 0.72214 0.0
C695 C 0.36893 0.19747 0.72016 0.0
C696 C 0.35583 0.2319 0.72276 0.0
C697 C 0.37494 0.24013 0.72251 0.0
C698 C 0.39101 0.22677 0.72403 0.0
C699 C 0.38804 0.20572 0.72241 0.0
H700 H 0.94665 0.16245 0.89165 0.0
H701 H 0.94859 0.09824 0.93537 0.0
H702 H 0.98202 0.16264 0.87846 0.0
H703 H 0.98386 0.09812 0.91828 0.0
H704 H 0.0506 0.10665 0.9604 0.0
H705 H 0.0154 0.10673 0.97847 0.0
H706 H 0.00769 0.154 0.78983 0.0
H707 H 0.04305 0.15445 0.77523 0.0
C708 C 0.95458 0.14828 0.89806 0.0
C709 C 0.94452 0.13034 0.91493 0.0
C710 C 0.97502 0.14833 0.8896 0.0
C711 C 0.98624 0.13037 0.8966 0.0
C712 C 0.97612 0.11242 0.9138 0.0
C713 C 0.95569 0.11244 0.92324 0.0
C714 C 0.04143 0.11706 0.92255 0.0
C715 C 0.04991 0.13055 0.86625 0.0
C716 C 0.02103 0.11704 0.93251 0.0
C717 C 0.00824 0.13037 0.88582 0.0
C718 C 0.01679 0.14372 0.82877 0.0
C719 C 0.03722 0.14389 0.81961 0.0
H720 H 0.15411 0.31312 0.91294 0.0
H721 H 0.09187 0.32469 0.86987 0.0
H722 H 0.14845 0.27751 0.85567 0.0
H723 H 0.08626 0.28968 0.80707 0.0
H724 H 0.08068 0.22112 0.83728 0.0
H725 H 0.08503 0.25776 0.8616 0.0
H726 H 0.13994 0.2533 0.73236 0.0
H727 H 0.13596 0.21616 0.71298 0.0
C728 C 0.13927 0.30805 0.89015 0.0
C729 C 0.12338 0.32142 0.89766 0.0
C730 C 0.13601 0.28773 0.8562 0.0
C731 C 0.11684 0.2806 0.82712 0.0
C732 C 0.10113 0.2944 0.83103 0.0
C733 C 0.10433 0.31449 0.86701 0.0
C734 C 0.09346 0.22801 0.81221 0.0
C735 C 0.10808 0.21587 0.77417 0.0
C736 C 0.09596 0.24911 0.8258 0.0
C737 C 0.113 0.25857 0.80007 0.0
C738 C 0.12689 0.24648 0.75516 0.0
C739 C 0.12451 0.22526 0.74287 0.0
H740 H 0.07242 0.9015 0.14635 0.0
H741 H 0.0707 0.84208 0.25286 0.0
H742 H 0.03671 0.90097 0.12006 0.0
H743 H 0.03475 0.84166 0.2272 0.0
H744 H 0.97055 0.84059 0.09186 0.0
H745 H 0.00672 0.83975 0.10889 0.0
H746 H 0.00802 0.90354 0.20633 0.0
H747 H 0.9722 0.90432 0.18876 0.0
C748 C 0.06447 0.88828 0.16436 0.0
C749 C 0.07465 0.87187 0.20228 0.0
C750 C 0.04386 0.88803 0.14958 0.0
C751 C 0.03264 0.87131 0.17172 0.0
C752 C 0.0428 0.85474 0.20842 0.0
C753 C 0.06348 0.85505 0.22383 0.0
C754 C 0.97862 0.85444 0.11606 0.0
C755 C 0.96845 0.87254 0.13845 0.0
C756 C 0.99937 0.85394 0.12663 0.0
C757 C 0.01047 0.87159 0.15899 0.0
C758 C 1.00016 0.8897 0.18006 0.0
C759 C 0.97952 0.89014 0.17025 0.0
H760 H 0.40281 0.69224 0.27021 0.0
H761 H 0.34843 0.70347 0.39728 0.0
H762 H 0.40248 0.72718 0.22267 0.0
H763 H 0.34797 0.73829 0.3486 0.0
H764 H 0.40652 0.79779 0.33755 0.0
H765 H 0.40627 0.76054 0.33141 0.0
H766 H 0.347 0.7594 0.20293 0.0
H767 H 0.3474 0.79683 0.20744 0.0
C768 C 0.39064 0.7021 0.28657 0.0
C769 C 0.37576 0.69539 0.3383 0.0
C770 C 0.39044 0.72199 0.25922 0.0
C771 C 0.37519 0.7353 0.28187 0.0
C772 C 0.35976 0.7282 0.32938 0.0
C773 C 0.36012 0.7084 0.35795 0.0
C774 C 0.39367 0.78953 0.30553 0.0
C775 C 0.37694 0.80002 0.27352 0.0
C776 C 0.39355 0.76826 0.30168 0.0
C777 C 0.37656 0.75721 0.26724 0.0
C778 C 0.36022 0.76766 0.23005 0.0
C779 C 0.3605 0.78899 0.23226 0.0
H780 H 0.54536 0.15318 0.56177 0.0
H781 H 0.5421 0.0874 0.53153 0.0
H782 H 0.50971 0.15479 0.56829 0.0
H783 H 0.50635 0.08887 0.53495 0.0
H784 H 0.44725 0.09747 0.66256 0.0
H785 H 0.48216 0.09549 0.63838 0.0
H786 H 0.47761 0.1506 0.49523 0.0
H787 H 0.44265 0.15279 0.52238 0.0
C788 C 0.53697 0.13904 0.5545 0.0
C789 C 0.54665 0.12016 0.54615 0.0
C790 C 0.51641 0.13994 0.55802 0.0
C791 C 0.50486 0.12196 0.55304 0.0
C792 C 0.51459 0.10309 0.54105 0.0
C793 C 0.53515 0.10221 0.53799 0.0
C794 C 0.45366 0.1091 0.62534 0.0
C795 C 0.44209 0.12529 0.5945 0.0
C796 C 0.47377 0.10791 0.6108 0.0
C797 C 0.48302 0.12285 0.56451 0.0
C798 C 0.47127 0.13891 0.53226 0.0
C799 C 0.45112 0.14011 0.54716 0.0
H800 H 0.90721 0.21948 0.83657 0.0
H801 H 0.84644 0.2178 0.89774 0.0
H802 H 0.90599 0.25685 0.8406 0.0
H803 H 0.84519 0.25504 0.90313 0.0
H804 H 0.844 0.32201 0.83566 0.0
H805 H 0.84522 0.28475 0.81771 0.0
H806 H 0.90445 0.28656 0.94643 0.0
H807 H 0.90334 0.32376 0.96315 0.0
C808 C 0.89353 0.22707 0.85007 0.0
C809 C 0.87691 0.21555 0.86651 0.0
C810 C 0.89285 0.24858 0.85328 0.0
C811 C 0.8755 0.25925 0.87268 0.0
C812 C 0.85877 0.24758 0.88693 0.0
C813 C 0.85949 0.22612 0.88413 0.0
C814 C 0.85734 0.31452 0.85993 0.0
C815 C 0.87355 0.32616 0.90107 0.0
C816 C 0.85801 0.29302 0.85006 0.0
C817 C 0.87495 0.28235 0.88056 0.0
C818 C 0.89122 0.29403 0.92078 0.0
C819 C 0.89052 0.31551 0.93101 0.0
H820 H 0.59114 0.80953 0.44288 0.0
H821 H 0.65389 0.80975 0.42125 0.0
H822 H 0.59142 0.77245 0.4449 0.0
H823 H 0.65442 0.77283 0.42742 0.0
H824 H 0.64847 0.70434 0.35743 0.0
H825 H 0.64756 0.74124 0.35217 0.0
H826 H 0.59896 0.74402 0.52462 0.0
H827 H 0.59939 0.70691 0.52617 0.0
C828 C 0.60507 0.80172 0.4393 0.0
C829 C 0.62248 0.81286 0.43156 0.0
C830 C 0.60528 0.78029 0.44114 0.0
C831 C 0.62295 0.76918 0.43634 0.0
C832 C 0.64038 0.78045 0.42936 0.0
C833 C 0.64012 0.80183 0.42645 0.0
C834 C 0.63756 0.71277 0.39434 0.0
C835 C 0.62402 0.7024 0.44229 0.0
C836 C 0.63711 0.73416 0.3919 0.0
C837 C 0.62324 0.7461 0.43829 0.0
C838 C 0.6097 0.73565 0.4865 0.0
C839 C 0.61002 0.71421 0.488 0.0
H840 H 0.91005 0.69926 0.05178 0.0
H841 H 0.84733 0.7022 0.07266 0.0
H842 H 0.91236 0.73633 0.0764 0.0
H843 H 0.84937 0.73929 0.09267 0.0
H844 H 0.90929 0.80511 0.04612 0.0
H845 H 0.90736 0.76798 1.02132 0.0
H846 H 0.85797 0.76768 0.18868 0.0
H847 H 0.85938 0.80478 0.20919 0.0
C848 C 0.89666 0.70781 0.06043 0.0
C849 C 0.87849 0.69753 0.06026 0.0
C850 C 0.89796 0.72926 0.07416 0.0
C851 C 0.88108 0.74127 0.08705 0.0
C852 C 0.86287 0.73089 0.08535 0.0
C853 C 0.86163 0.70944 0.07293 0.0
C854 C 0.89804 0.79711 0.07786 0.0
C855 C 0.88448 0.80812 0.1296 0.0
C856 C 0.89696 0.77564 0.064 0.0
C857 C 0.88243 0.76437 0.10245 0.0
C858 C 0.86911 0.77549 0.15566 0.0
C859 C 0.87003 0.79695 0.16835 0.0
H860 H 0.60226 0.18497 0.58254 0.0
H861 H 0.66068 0.18642 0.72035 0.0
H862 H 0.60284 0.22204 0.58253 0.0
H863 H 0.66114 0.22369 0.72145 0.0
H864 H 0.66319 0.28793 0.60908 0.0
H865 H 0.66303 0.25098 0.62068 0.0
H866 H 0.60188 0.25349 0.67812 0.0
H867 H 0.60207 0.29044 0.66518 0.0
C868 C 0.61524 0.19315 0.61338 0.0
C869 C 0.63144 0.18248 0.65133 0.0
C870 C 0.6155 0.21456 0.61395 0.0
C871 C 0.63202 0.22609 0.65214 0.0
C872 C 0.64822 0.21544 0.69049 0.0
C873 C 0.64791 0.19398 0.69034 0.0
C874 C 0.64976 0.28062 0.62507 0.0
C875 C 0.63264 0.29219 0.63617 0.0
C876 C 0.64968 0.25937 0.6321 0.0
C877 C 0.63242 0.24902 0.64996 0.0
C878 C 0.61539 0.26075 0.66292 0.0
C879 C 0.61552 0.28202 0.65627 0.0
H880 H 0.95616 0.42413 0.06859 0.0
H881 H 0.94871 0.36176 0.13452 0.0
H882 H 0.99166 0.42128 0.09885 0.0
H883 H 0.98435 0.35892 0.16607 0.0
H884 H 0.0435 0.35481 1.02043 0.0
H885 H 0.00908 0.35735 0.05211 0.0
H886 H 0.02098 0.41563 0.20457 0.0
H887 H 0.05566 0.41306 0.172 0.0
C888 C 0.96211 0.41 0.0921 0.0
C889 C 0.94981 0.39306 0.09781 0.0
C890 C 0.98244 0.4084 0.1101 0.0
C891 C 0.99081 0.38979 0.1338 0.0
C892 C 0.97831 0.37336 0.14672 0.0
C893 C 0.95794 0.375 0.12901 0.0
C894 C 0.03884 0.36797 0.06225 0.0
C895 C 0.05209 0.38386 0.09284 0.0
C896 C 0.01915 0.36935 0.08118 0.0
C897 C 0.0123 0.38673 0.13063 0.0
C898 C 0.02584 0.40213 0.16575 0.0
C899 C 0.04564 0.40065 0.14734 0.0
H900 H 0.44466 0.64938 0.43522 0.0
H901 H 0.44683 0.59211 0.56284 0.0
H902 H 0.48011 0.65295 0.4633 0.0
H903 H 0.48244 0.59596 0.5925 0.0
H904 H 0.54581 0.59767 0.49376 0.0
H905 H 0.5104 0.59438 0.4994 0.0
H906 H 0.507 0.65881 0.58272 0.0
H907 H 0.54263 0.66213 0.57511 0.0
C908 C 0.45266 0.63759 0.46986 0.0
C909 C 0.44289 0.62035 0.49602 0.0
C910 C 0.473 0.63978 0.4869 0.0
C911 C 0.48408 0.6248 0.53058 0.0
C912 C 0.47431 0.60769 0.55808 0.0
C913 C 0.45391 0.60549 0.541 0.0
C914 C 0.53754 0.61106 0.51487 0.0
C915 C 0.54684 0.6302 0.53307 0.0
C916 C 0.51726 0.60915 0.51863 0.0
C917 C 0.50586 0.62637 0.54062 0.0
C918 C 0.51538 0.64533 0.56413 0.0
C919 C 0.53574 0.64723 0.56048 0.0
H920 H 0.46882 0.40107 0.61866 0.0
H921 H 0.46582 0.33681 0.53034 0.0
H922 H 0.50315 0.40219 0.58479 0.0
H923 H 0.50016 0.33797 0.49323 0.0
H924 H 0.56682 0.34238 0.57639 0.0
H925 H 0.53139 0.34084 0.57896 0.0
H926 H 0.52664 0.40026 0.47158 0.0
H927 H 0.56243 0.40212 0.47157 0.0
C928 C 0.47545 0.38724 0.59043 0.0
C929 C 0.46476 0.3688 0.57796 0.0
C930 C 0.49512 0.38791 0.57025 0.0
C931 C 0.50453 0.37015 0.53663 0.0
C932 C 0.49349 0.35187 0.52049 0.0
C933 C 0.47381 0.35119 0.54123 0.0
C934 C 0.5583 0.35511 0.55251 0.0
C935 C 0.56759 0.3725 0.52471 0.0
C936 C 0.53786 0.35412 0.55322 0.0
C937 C 0.52608 0.37044 0.52579 0.0
C938 C 0.53528 0.38752 0.4945 0.0
C939 C 0.55581 0.38855 0.49401 0.0
H940 H 0.06178 0.64498 0.95932 0.0
H941 H 0.04859 0.59251 0.10446 0.0
H942 H 0.02708 0.64699 0.90317 0.0
H943 H 0.01402 0.59452 0.04913 0.0
H944 H 0.95413 0.59584 0.90903 0.0
H945 H 0.98985 0.59181 0.91304 0.0
H946 H 0.9975 0.65658 0.98472 0.0
H947 H 0.9619 0.66057 0.97994 0.0
C948 C 0.05149 0.63373 0.97808 0.0
C949 C 0.05773 0.61872 0.03684 0.0
C950 C 0.03167 0.63489 0.94613 0.0
C951 C 0.01784 0.62093 0.97184 0.0
C952 C 0.02435 0.60533 1.02708 0.0
C953 C 0.0441 0.60427 0.05946 0.0
C954 C 0.96347 0.60926 0.92318 0.0
C955 C 0.95536 0.62847 0.94525 0.0
C956 C 0.98389 0.60694 0.92599 0.0
C957 C 0.99646 0.62383 0.95033 0.0
C958 C 0.98822 0.6433 0.96519 0.0
C959 C 0.96783 0.64558 0.96288 0.0
H960 H 0.16414 0.54997 0.19225 0.0
H961 H 0.10661 0.5553 0.04908 0.0
H962 H 0.1633 0.5132 0.15232 0.0
H963 H 0.10599 0.51867 1.00841 0.0
H964 H 0.1021 0.45079 0.05806 0.0
H965 H 0.10366 0.4876 0.09097 0.0
H966 H 0.16362 0.4882 1.01542 0.0
H967 H 0.16225 0.45113 0.98339 0.0
C968 C 0.15134 0.54334 0.15218 0.0
C969 C 0.13539 0.55556 0.12433 0.0
C970 C 0.15095 0.52231 0.12874 0.0
C971 C 0.13458 0.51311 0.07737 0.0
C972 C 0.11871 0.52534 0.04898 0.0
C973 C 0.11911 0.54634 0.0721 0.0
C974 C 0.11564 0.45871 0.04809 0.0
C975 C 0.13207 0.44799 1.01816 0.0
C976 C 0.11646 0.47983 0.0665 0.0
C977 C 0.13374 0.49074 0.05564 0.0
C978 C 0.15016 0.48011 1.02515 0.0
C979 C 0.14932 0.45892 1.00628 0.0
H980 H 0.69805 0.85467 0.22291 0.0
H981 H 0.71314 0.9021 0.43696 0.0
H982 H 0.73228 0.85395 0.18279 0.0
H983 H 0.74714 0.9018 0.39616 0.0
H984 H 0.81082 0.88206 0.36476 0.0
H985 H 0.77656 0.88241 0.40315 0.0
H986 H 0.75726 0.87212 0.11569 0.0
H987 H 0.79157 0.87135 0.07809 0.0
C988 C 0.70865 0.86505 0.26098 0.0
C989 C 0.70282 0.87842 0.33324 0.0
C990 C 0.72832 0.86473 0.23776 0.0
C991 C 0.74273 0.87777 0.28626 0.0
C992 C 0.73672 0.89125 0.35802 0.0
C993 C 0.71711 0.89155 0.38109 0.0
C994 C 0.79925 0.87991 0.30982 0.0
C995 C 0.80398 0.87672 0.21836 0.0
C996 C 0.77952 0.88021 0.3317 0.0
C997 C 0.76389 0.87733 0.26271 0.0
C998 C 0.76874 0.87413 0.17109 0.0
C999 C 0.78847 0.87384 0.14931 0.0
H1000 H 0.35923 0.43723 0.72685 0.0
H1001 H 0.41777 0.43329 0.63278 0.0
H1002 H 0.35824 0.47337 0.69984 0.0
H1003 H 0.41664 0.46953 0.6058 0.0
H1004 H 0.41244 0.53983 0.64079 0.0
H1005 H 0.41447 0.50497 0.6898 0.0
H1006 H 0.35691 0.49138 0.55332 0.0
H1007 H 0.35495 0.52605 0.50422 0.0
C1008 C 0.37199 0.44409 0.70144 0.0
C1009 C 0.38854 0.43233 0.68134 0.0
C1010 C 0.37135 0.46477 0.68564 0.0
C1011 C 0.38731 0.47417 0.65029 0.0
C1012 C 0.40419 0.46266 0.63367 0.0
C1013 C 0.40477 0.4419 0.64866 0.0
C1014 C 0.4002 0.52938 0.62205 0.0
C1015 C 0.38356 0.5355 0.56873 0.0
C1016 C 0.4014 0.50948 0.64967 0.0
C1017 C 0.38584 0.49554 0.62539 0.0
C1018 C 0.36902 0.50189 0.57383 0.0
C1019 C 0.36793 0.52167 0.54538 0.0
H1020 H 0.81666 0.0928 0.8882 0.0
H1021 H 0.81587 0.15768 0.85837 0.0
H1022 H 0.78097 0.09126 0.8556 0.0
H1023 H 0.78028 0.15635 0.82946 0.0
H1024 H 0.71359 0.09703 0.85987 0.0
H1025 H 0.74918 0.09849 0.90219 0.0
H1026 H 0.75494 0.14664 0.72097 0.0
H1027 H 0.71965 0.14561 0.68243 0.0
C1028 C 0.80891 0.1068 0.87548 0.0
C1029 C 0.81939 0.12534 0.87538 0.0
C1030 C 0.78828 0.10595 0.85727 0.0
C1031 C 0.77737 0.12364 0.83894 0.0
C1032 C 0.78792 0.14222 0.84081 0.0
C1033 C 0.8085 0.14304 0.85813 0.0
C1034 C 0.7225 0.10802 0.82995 0.0
C1035 C 0.71366 0.12128 0.76816 0.0
C1036 C 0.74302 0.10879 0.85354 0.0
C1037 C 0.7553 0.12277 0.81563 0.0
C1038 C 0.74624 0.13595 0.75377 0.0
C1039 C 0.72585 0.13527 0.73092 0.0
H1040 H 0.84314 0.56486 0.05051 0.0
H1041 H 0.90331 0.56279 0.97802 0.0
H1042 H 0.84164 0.52753 0.03654 0.0
H1043 H 0.90174 0.52555 0.96341 0.0
H1044 H 0.89945 0.45915 0.03828 0.0
H1045 H 0.90026 0.49634 0.05361 0.0
H1046 H 0.84106 0.49763 0.92595 0.0
H1047 H 0.84016 0.46024 0.91115 0.0
C1048 C 0.85608 0.55652 0.03155 0.0
C1049 C 0.87337 0.56708 1.01568 0.0
C1050 C 0.85517 0.535 1.02292 0.0
C1051 C 0.87157 0.5233 0.9989 0.0
C1052 C 0.88885 0.53388 0.98318 0.0
C1053 C 0.88972 0.55537 0.99111 0.0
C1054 C 0.88652 0.46726 1.01353 0.0
C1055 C 0.86972 0.45643 0.97335 0.0
C1056 C 0.88706 0.48873 1.02181 0.0
C1057 C 0.87077 0.50023 0.99077 0.0
C1058 C 0.85386 0.48943 0.95151 0.0
C1059 C 0.85337 0.46789 0.94256 0.0
H1060 H 0.17587 0.16774 0.82178 0.0
H1061 H 0.17926 0.10254 0.84039 0.0
H1062 H 0.21115 0.1692 0.80723 0.0
H1063 H 0.21448 0.10382 0.82226 0.0
H1064 H 0.28126 0.11343 0.8579 0.0
H1065 H 0.24627 0.11268 0.88455 0.0
H1066 H 0.23599 0.1624 0.71057 0.0
H1067 H 0.27095 0.16352 0.68753 0.0
C1068 C 0.18409 0.15363 0.82228 0.0
C1069 C 0.17446 0.13501 0.83226 0.0
C1070 C 0.20448 0.15444 0.8132 0.0
C1071 C 0.21606 0.13662 0.81284 0.0
C1072 C 0.2064 0.118 0.82346 0.0
C1073 C 0.18601 0.11722 0.83332 0.0
C1074 C 0.27152 0.12431 0.82614 0.0
C1075 C 0.27901 0.13859 0.77088 0.0
C1076 C 0.25131 0.12379 0.84066 0.0
C1077 C 0.2379 0.13745 0.79979 0.0
C1078 C 0.2456 0.15181 0.74499 0.0
C1079 C 0.26578 0.15241 0.73115 0.0
H1080 H 0.65244 0.56721 0.36901 0.0
H1081 H 0.60468 0.57185 0.5454 0.0
H1082 H 0.65185 0.5301 0.37213 0.0
H1083 H 0.60462 0.53501 0.55228 0.0
H1084 H 0.59579 0.46702 0.49285 0.0
H1085 H 0.59621 0.50373 0.47819 0.0
H1086 H 0.65892 0.50152 0.45213 0.0
H1087 H 0.65811 0.46455 0.46226 0.0
C1088 C 0.64193 0.56037 0.40932 0.0
C1089 C 0.62857 0.57272 0.45664 0.0
C1090 C 0.64163 0.53894 0.41159 0.0
C1091 C 0.62811 0.52911 0.46213 0.0
C1092 C 0.61498 0.54162 0.51051 0.0
C1093 C 0.61511 0.56296 0.50727 0.0
C1094 C 0.60963 0.47436 0.48293 0.0
C1095 C 0.62689 0.46277 0.47852 0.0
C1096 C 0.60996 0.49559 0.47557 0.0
C1097 C 0.62766 0.50608 0.46502 0.0
C1098 C 0.6449 0.49428 0.45901 0.0
C1099 C 0.64449 0.47296 0.46518 0.0
H1100 H 0.3021 0.91198 0.39685 0.0
H1101 H 0.30417 0.84887 0.29105 0.0
H1102 H 0.26616 0.91063 0.3789 0.0
H1103 H 0.26836 0.84763 0.27149 0.0
H1104 H 0.2033 0.8456 0.32846 0.0
H1105 H 0.23914 0.84716 0.35091 0.0
H1106 H 0.23832 0.90887 0.2682 0.0
H1107 H 0.20251 0.90746 0.24746 0.0
C1108 C 0.29495 0.89781 0.36947 0.0
C1109 C 0.30624 0.88055 0.34554 0.0
C1110 C 0.27423 0.89706 0.3586 0.0
C1111 C 0.2641 0.879 0.32362 0.0
C1112 C 0.27544 0.86175 0.2999 0.0
C1113 C 0.29612 0.86251 0.31061 0.0
C1114 C 0.21071 0.85954 0.3151 0.0
C1115 C 0.19977 0.87638 0.28598 0.0
C1116 C 0.23139 0.86041 0.32751 0.0
C1117 C 0.24189 0.87815 0.31139 0.0
C1118 C 0.23092 0.89501 0.28267 0.0
C1119 C 0.21025 0.89414 0.27011 0.0
H1120 H 0.59385 0.94834 0.44511 0.0
H1121 H 0.65615 0.94395 0.51651 0.0
H1122 H 0.59571 0.9852 0.47843 0.0
H1123 H 0.65801 0.9805 0.55727 0.0
H1124 H 0.66086 0.04977 0.5646 0.0
H1125 H 0.65924 0.01309 0.5244 0.0
H1126 H 0.59753 0.01311 0.57513 0.0
H1127 H 0.59908 0.0499 0.60767 0.0
C1128 C 0.60795 0.95526 0.46913 0.0
C1129 C 0.62484 0.94308 0.47754 0.0
C1130 C 0.60907 0.97657 0.48945 0.0
C1131 C 0.62705 0.98648 0.52171 0.0
C1132 C 0.64389 0.97404 0.5309 0.0
C1133 C 0.64284 0.95283 0.50807 0.0
C1134 C 0.64696 0.04186 0.56707 0.0
C1135 C 0.63011 0.0529 0.58917 0.0
C1136 C 0.64598 0.0206 0.54448 0.0
C1137 C 0.62819 0.00946 0.54569 0.0
C1138 C 0.61146 0.02068 0.57017 0.0
C1139 C 0.61235 0.04198 0.59011 0.0
H1140 H 0.20305 0.3904 0.76644 0.0
H1141 H 0.2192 0.36176 1.01647 0.0
H1142 H 0.23696 0.38711 0.72356 0.0
H1143 H 0.25317 0.35871 0.97415 0.0
H1144 H 0.31476 0.38361 0.90999 0.0
H1145 H 0.28073 0.38479 0.95229 0.0
H1146 H 0.26081 0.35753 0.68362 0.0
H1147 H 0.29488 0.35611 0.64167 0.0
C1148 C 0.21387 0.38339 0.81203 0.0
C1149 C 0.20862 0.37635 0.89469 0.0
C1150 C 0.23319 0.38142 0.78737 0.0
C1151 C 0.24761 0.37268 0.84569 0.0
C1152 C 0.24232 0.36563 0.92837 0.0
C1153 C 0.22293 0.3673 0.95232 0.0
C1154 C 0.30309 0.37778 0.86029 0.0
C1155 C 0.30734 0.3698 0.77265 0.0
C1156 C 0.28369 0.37838 0.88456 0.0
C1157 C 0.26821 0.37129 0.82107 0.0
C1158 C 0.27249 0.36323 0.73349 0.0
C1159 C 0.29194 0.36234 0.70972 0.0
H1160 H 0.91495 0.9398 0.09117 0.0
H1161 H 0.85328 0.94292 0.13777 0.0
H1162 H 0.91501 0.9758 0.06388 0.0
H1163 H 0.8531 0.97905 0.10715 0.0
H1164 H 0.86277 0.04894 0.1167 0.0
H1165 H 0.86266 0.01323 0.15509 0.0
H1166 H 0.90527 0.99887 0.95733 0.0
H1167 H 0.90578 0.03446 0.92212 0.0
C1168 C 0.9013 0.94813 0.09518 0.0
C1169 C 0.88408 0.93821 0.11644 0.0
C1170 C 0.90129 0.96892 0.07871 0.0
C1171 C 0.88401 0.98066 0.08194 0.0
C1172 C 0.86681 0.9708 0.10466 0.0
C1173 C 0.86686 0.94993 0.12185 0.0
C1174 C 0.8722 0.03812 0.08204 0.0
C1175 C 0.88437 0.04466 1.01668 0.0
C1176 C 0.87204 0.01753 0.10347 0.0
C1177 C 0.88402 1.00282 0.0599 0.0
C1178 C 0.89612 0.00954 0.99429 0.0
C1179 C 0.89634 0.03007 0.97341 0.0
H1180 H 0.21965 0.58225 0.27358 0.0
H1181 H 0.21609 0.64282 0.40837 0.0
H1182 H 0.25491 0.58173 0.31713 0.0
H1183 H 0.2515 0.6423 0.45258 0.0
H1184 H 0.31631 0.64379 0.37583 0.0
H1185 H 0.28054 0.64322 0.35951 0.0
H1186 H 0.28037 0.58207 0.44888 0.0
H1187 H 0.31632 0.58248 0.4647 0.0
C1188 C 0.22639 0.59531 0.31398 0.0
C1189 C 0.21527 0.61264 0.33716 0.0
C1190 C 0.24655 0.59497 0.33927 0.0
C1191 C 0.25596 0.61204 0.38761 0.0
C1192 C 0.24463 0.62903 0.41437 0.0
C1193 C 0.2244 0.62929 0.38966 0.0
C1194 C 0.30871 0.63021 0.39227 0.0
C1195 C 0.31921 0.61312 0.42108 0.0
C1196 C 0.28819 0.62999 0.38378 0.0
C1197 C 0.27768 0.61265 0.40344 0.0
C1198 C 0.28812 0.59561 0.43291 0.0
C1199 C 0.3087 0.59586 0.44199 0.0
H1200 H 0.33493 0.96034 0.55697 0.0
H1201 H 0.39109 0.97435 0.45893 0.0
H1202 H 0.32991 0.99682 0.59788 0.0
H1203 H 0.38662 0.01033 0.50282 0.0
H1204 H 0.36629 0.07353 0.48497 0.0
H1205 H 0.36694 0.03693 0.44638 0.0
H1206 H 0.34103 0.0266 0.69859 0.0
H1207 H 0.33958 0.06368 0.73501 0.0
C1208 C 0.34628 0.97122 0.54553 0.0
C1209 C 0.36328 0.9647 0.504 0.0
C1210 C 0.34345 0.99204 0.56904 0.0
C1211 C 0.35768 0.00654 0.55189 0.0
C1212 C 0.37506 0.99969 0.51427 0.0
C1213 C 0.37773 0.97905 0.48984 0.0
C1214 C 0.36052 0.06343 0.53161 0.0
C1215 C 0.35312 0.0713 0.6134 0.0
C1216 C 0.36102 0.04246 0.50997 0.0
C1217 C 0.35456 0.0288 0.57068 0.0
C1218 C 0.34615 0.03671 0.65046 0.0
C1219 C 0.34532 0.05788 0.6714 0.0
H1220 H 0.79036 0.60388 0.10432 0.0
H1221 H 0.80205 0.66582 0.21652 0.0
H1222 H 0.75795 0.60512 0.16361 0.0
H1223 H 0.76928 0.66756 0.27226 0.0
H1224 H 0.7175 0.65682 0.44065 0.0
H1225 H 0.75011 0.65549 0.38363 0.0
H1226 H 0.72647 0.61956 0.1399 0.0
H1227 H 0.69406 0.62015 0.19968 0.0
C1228 C 0.78589 0.6178 0.14128 0.0
C1229 C 0.79862 0.63474 0.15614 0.0
C1230 C 0.76726 0.61861 0.17461 0.0
C1231 C 0.7609 0.63648 0.22241 0.0
C1232 C 0.77376 0.65344 0.23706 0.0
C1233 C 0.79249 0.65251 0.20475 0.0
C1234 C 0.71934 0.64867 0.37486 0.0
C1235 C 0.70338 0.63852 0.32455 0.0
C1236 C 0.73799 0.648 0.34181 0.0
C1237 C 0.74099 0.63739 0.2571 0.0
C1238 C 0.72482 0.62753 0.2062 0.0
C1239 C 0.70622 0.62798 0.23996 0.0
H1240 H 0.14893 0.0592 0.0325 0.0
H1241 H 0.09127 0.041 0.90926 0.0
H1242 H 0.15342 0.02532 0.08936 0.0
H1243 H 0.09579 0.00714 0.96537 0.0
H1244 H 0.10213 0.95895 0.17505 0.0
H1245 H 0.09841 0.99265 0.11742 0.0
H1246 H 0.15709 0.98885 1.0258 0.0
H1247 H 0.16086 0.95498 0.08442 0.0
C1248 C 0.13725 0.04793 1.01769 0.0
C1249 C 0.11974 0.05261 0.96693 0.0
C1250 C 0.13987 0.02855 0.04958 0.0
C1251 C 0.12495 0.01366 0.03164 0.0
C1252 C 0.10743 0.01842 0.9809 0.0
C1253 C 0.10487 0.03774 0.94865 0.0
C1254 C 0.11422 0.96531 0.14253 0.0
C1255 C 0.13177 0.95447 0.13393 0.0
C1256 C 0.11206 0.98453 0.10921 0.0
C1257 C 0.12744 0.99329 0.067 0.0
C1258 C 0.14507 0.98247 0.05877 0.0
C1259 C 0.1472 0.96312 0.09176 0.0
H1260 H 0.69564 0.40689 0.53751 0.0
H1261 H 0.69029 0.35927 0.7218 0.0
H1262 H 0.73111 0.40869 0.57901 0.0
H1263 H 0.72526 0.36153 0.76522 0.0
H1264 H 0.79008 0.35489 0.76987 0.0
H1265 H 0.75585 0.35325 0.70828 0.0
H1266 H 0.75536 0.419 0.70198 0.0
H1267 H 0.79004 0.42042 0.76003 0.0
C1268 C 0.70199 0.3969 0.58714 0.0
C1269 C 0.69014 0.38283 0.62574 0.0
C1270 C 0.72231 0.39798 0.61118 0.0
C1271 C 0.73114 0.3851 0.67476 0.0
C1272 C 0.71914 0.3713 0.71417 0.0
C1273 C 0.69898 0.3701 0.68964 0.0
C1274 C 0.7827 0.36895 0.75422 0.0
C1275 C 0.79259 0.38778 0.77027 0.0
C1276 C 0.76303 0.36806 0.71961 0.0
C1277 C 0.75268 0.38603 0.70169 0.0
C1278 C 0.76287 0.40485 0.71446 0.0
C1279 C 0.7827 0.40569 0.74807 0.0
loop_
_geom_bond_atom_site_label_1
_geom_bond_atom_site_label_2
_geom_bond_distance
_geom_bond_site_symmetry_2
_ccdc_geom_bond_type
Tb0 O3 2.453 . S
Tb0 O4 2.596 . S
Tb0 O5 2.374 . S
Tb0 O13 2.343 . S
Tb0 O15 2.353 . S
Tb0 O17 2.427 . S
Tb0 O18 2.513 . S
C1 O5 1.251 . S
C1 O7 1.263 . S
Tb2 O4 2.343 . S
Tb2 O7 2.353 . S
Tb2 O10 2.427 . S
Tb2 O11 2.513 . S
Tb2 O12 2.453 1_554 S
Tb2 O13 2.596 . S
Tb2 O14 2.374 . S
O3 Tb0 2.453 . S
O3 C19 1.245 . S
O4 Tb0 2.596 . S
O4 Tb2 2.343 . S
O4 C19 1.259 . S
O5 Tb0 2.374 . S
O5 C1 1.251 . S
C6 O10 1.275 . S
C6 O11 1.246 . S
O7 C1 1.263 . S
O7 Tb2 2.353 . S
C8 O12 1.245 . S
C8 O13 1.259 1_556 S
C9 O14 1.250 . S
C9 O15 1.263 . S
O10 Tb2 2.427 . S
O10 C6 1.275 . S
O11 Tb2 2.513 . S
O11 C6 1.246 . S
O12 Tb2 2.453 1_556 S
O12 C8 1.245 . S
O13 Tb0 2.343 . S
O13 Tb2 2.596 . S
O13 C8 1.259 1_554 S
O14 Tb2 2.374 . S
O14 C9 1.250 . S
O15 Tb0 2.353 . S
O15 C9 1.263 . S
C16 O17 1.275 . S
C16 O18 1.246 . S
O17 Tb0 2.427 . S
O17 C16 1.275 . S
O18 Tb0 2.513 . S
O18 C16 1.246 . S
C19 O3 1.245 . S
C19 O4 1.259 . S
Tb20 O23 2.453 . S
Tb20 O24 2.596 . S
Tb20 O25 2.374 . S
Tb20 O33 2.343 . S
Tb20 O35 2.353 . S
Tb20 O37 2.427 . S
Tb20 O38 2.513 . S
C21 O25 1.251 . S
C21 O27 1.263 . S
Tb22 O24 2.343 . S
Tb22 O27 2.353 . S
Tb22 O30 2.427 . S
Tb22 O31 2.513 . S
Tb22 O32 2.453 . S
Tb22 O33 2.596 . S
Tb22 O34 2.374 . S
O23 Tb20 2.453 . S
O23 C39 1.245 . S
O24 Tb20 2.596 . S
O24 Tb22 2.343 . S
O24 C39 1.259 . S
O25 Tb20 2.374 . S
O25 C21 1.251 . S
C26 O30 1.275 . S
C26 O31 1.246 . S
O27 C21 1.263 . S
O27 Tb22 2.353 . S
C28 O32 1.245 . S
C28 O33 1.259 . S
C29 O34 1.250 . S
C29 O35 1.263 . S
O30 Tb22 2.427 . S
O30 C26 1.275 . S
O31 Tb22 2.513 . S
O31 C26 1.246 . S
O32 Tb22 2.453 . S
O32 C28 1.245 . S
O33 Tb20 2.343 . S
O33 Tb22 2.596 . S
O33 C28 1.259 . S
O34 Tb22 2.374 . S
O34 C29 1.250 . S
O35 Tb20 2.353 . S
O35 C29 1.263 . S
C36 O37 1.275 . S
C36 O38 1.246 . S
O37 Tb20 2.427 . S
O37 C36 1.275 . S
O38 Tb20 2.513 . S
O38 C36 1.246 . S
C39 O23 1.245 . S
C39 O24 1.259 . S
Tb40 O43 2.453 . S
Tb40 O44 2.596 . S
Tb40 O45 2.374 . S
Tb40 O53 2.343 . S
Tb40 O55 2.353 . S
Tb40 O57 2.427 . S
Tb40 O58 2.513 . S
C41 O45 1.251 . S
C41 O47 1.263 . S
Tb42 O44 2.343 . S
Tb42 O47 2.353 . S
Tb42 O50 2.427 . S
Tb42 O51 2.513 . S
Tb42 O52 2.453 . S
Tb42 O53 2.596 . S
Tb42 O54 2.374 . S
O43 Tb40 2.453 . S
O43 C59 1.245 . S
O44 Tb40 2.596 . S
O44 Tb42 2.343 . S
O44 C59 1.259 . S
O45 Tb40 2.374 . S
O45 C41 1.251 . S
C46 O50 1.275 . S
C46 O51 1.246 . S
O47 C41 1.263 . S
O47 Tb42 2.353 . S
C48 O52 1.245 . S
C48 O53 1.259 . S
C49 O54 1.250 . S
C49 O55 1.263 . S
O50 Tb42 2.427 . S
O50 C46 1.275 . S
O51 Tb42 2.513 . S
O51 C46 1.246 . S
O52 Tb42 2.453 . S
O52 C48 1.245 . S
O53 Tb40 2.343 . S
O53 Tb42 2.596 . S
O53 C48 1.259 . S
O54 Tb42 2.374 . S
O54 C49 1.250 . S
O55 Tb40 2.353 . S
O55 C49 1.263 . S
C56 O57 1.275 . S
C56 O58 1.246 . S
O57 Tb40 2.427 . S
O57 C56 1.275 . S
O58 Tb40 2.513 . S
O58 C56 1.246 . S
C59 O43 1.245 . S
C59 O44 1.259 . S
Tb60 O63 2.453 1_556 S
Tb60 O64 2.600 . S
Tb60 O65 2.374 . S
Tb60 O73 2.343 . S
Tb60 O75 2.353 . S
Tb60 O77 2.427 . S
Tb60 O78 2.513 . S
C61 O65 1.251 . S
C61 O67 1.263 . S
Tb62 O64 2.354 . S
Tb62 O67 2.353 . S
Tb62 O70 2.427 . S
Tb62 O71 2.513 . S
Tb62 O72 2.453 . S
Tb62 O73 2.596 . S
Tb62 O74 2.374 . S
O63 Tb60 2.453 1_554 S
O63 C79 1.245 . S
O64 Tb60 2.600 . S
O64 Tb62 2.354 . S
O64 C79 1.247 1_556 S
O65 Tb60 2.374 . S
O65 C61 1.251 . S
C66 O70 1.275 . S
C66 O71 1.246 . S
O67 C61 1.263 . S
O67 Tb62 2.353 . S
C68 O72 1.245 . S
C68 O73 1.259 . S
C69 O74 1.250 . S
C69 O75 1.263 . S
O70 Tb62 2.427 . S
O70 C66 1.275 . S
O71 Tb62 2.513 . S
O71 C66 1.246 . S
O72 Tb62 2.453 . S
O72 C68 1.245 . S
O73 Tb60 2.343 . S
O73 Tb62 2.596 . S
O73 C68 1.259 . S
O74 Tb62 2.374 . S
O74 C69 1.250 . S
O75 Tb60 2.353 . S
O75 C69 1.263 . S
C76 O77 1.275 . S
C76 O78 1.246 . S
O77 Tb60 2.427 . S
O77 C76 1.275 . S
O78 Tb60 2.513 . S
O78 C76 1.246 . S
C79 O63 1.245 . S
C79 O64 1.247 1_554 S
Tb80 O83 2.453 . S
Tb80 O84 2.596 . S
Tb80 O85 2.374 . S
Tb80 O93 2.343 1_556 S
Tb80 O95 2.353 . S
Tb80 O97 2.427 . S
Tb80 O98 2.513 . S
C81 O85 1.251 . S
C81 O87 1.263 . S
Tb82 O84 2.343 . S
Tb82 O87 2.353 . S
Tb82 O90 2.427 . S
Tb82 O91 2.513 . S
Tb82 O92 2.453 1_556 S
Tb82 O93 2.596 1_556 S
Tb82 O94 2.374 . S
O83 Tb80 2.453 . S
O83 C99 1.245 . S
O84 Tb80 2.596 . S
O84 Tb82 2.343 . S
O84 C99 1.259 . S
O85 Tb80 2.374 . S
O85 C81 1.251 . S
C86 O90 1.275 . S
C86 O91 1.246 . S
O87 C81 1.263 . S
O87 Tb82 2.353 . S
C88 O92 1.245 . S
C88 O93 1.259 . S
C89 O94 1.250 . S
C89 O95 1.263 . S
O90 Tb82 2.427 . S
O90 C86 1.275 . S
O91 Tb82 2.513 . S
O91 C86 1.246 . S
O92 Tb82 2.453 1_554 S
O92 C88 1.245 . S
O93 Tb80 2.343 1_554 S
O93 Tb82 2.596 1_554 S
O93 C88 1.259 . S
O94 Tb82 2.374 . S
O94 C89 1.250 . S
O95 Tb80 2.353 . S
O95 C89 1.263 . S
C96 O97 1.275 1_554 S
C96 O98 1.246 1_554 S
O97 Tb80 2.427 . S
O97 C96 1.275 1_556 S
O98 Tb80 2.513 . S
O98 C96 1.246 1_556 S
C99 O83 1.245 . S
C99 O84 1.259 . S
Tb100 O103 2.453 . S
Tb100 O104 2.596 . S
Tb100 O105 2.374 . S
Tb100 O113 2.343 . S
Tb100 O115 2.353 . S
Tb100 O117 2.427 . S
Tb100 O118 2.513 . S
C101 O105 1.251 . S
C101 O107 1.263 . S
Tb102 O104 2.343 . S
Tb102 O107 2.353 . S
Tb102 O110 2.427 . S
Tb102 O111 2.513 . S
Tb102 O112 2.453 1_554 S
Tb102 O113 2.596 . S
Tb102 O114 2.374 . S
O103 Tb100 2.453 . S
O103 C119 1.245 . S
O104 Tb100 2.596 . S
O104 Tb102 2.343 . S
O104 C119 1.259 . S
O105 Tb100 2.374 . S
O105 C101 1.251 . S
C106 O110 1.275 . S
C106 O111 1.246 . S
O107 C101 1.263 . S
O107 Tb102 2.353 . S
C108 O112 1.245 . S
C108 O113 1.259 1_556 S
C109 O114 1.250 . S
C109 O115 1.263 . S
O110 Tb102 2.427 . S
O110 C106 1.275 . S
O111 Tb102 2.513 . S
O111 C106 1.246 . S
O112 Tb102 2.453 1_556 S
O112 C108 1.245 . S
O113 Tb100 2.343 . S
O113 Tb102 2.596 . S
O113 C108 1.259 1_554 S
O114 Tb102 2.374 . S
O114 C109 1.250 . S
O115 Tb100 2.353 . S
O115 C109 1.263 . S
C116 O117 1.275 . S
C116 O118 1.246 . S
O117 Tb100 2.427 . S
O117 C116 1.275 . S
O118 Tb100 2.513 . S
O118 C116 1.246 . S
C119 O103 1.245 . S
C119 O104 1.259 . S
Tb120 O123 2.453 . S
Tb120 O124 2.596 . S
Tb120 O125 2.374 . S
Tb120 O133 2.343 . S
Tb120 O135 2.353 . S
Tb120 O137 2.427 . S
Tb120 O138 2.513 . S
C121 O125 1.251 . S
C121 O127 1.263 . S
Tb122 O124 2.343 . S
Tb122 O127 2.353 . S
Tb122 O130 2.427 . S
Tb122 O131 2.513 . S
Tb122 O132 2.453 . S
Tb122 O133 2.596 . S
Tb122 O134 2.374 . S
O123 Tb120 2.453 . S
O123 C139 1.245 . S
O124 Tb120 2.596 . S
O124 Tb122 2.343 . S
O124 C139 1.259 . S
O125 Tb120 2.374 . S
O125 C121 1.251 . S
C126 O130 1.275 . S
C126 O131 1.246 . S
O127 C121 1.263 . S
O127 Tb122 2.353 . S
C128 O132 1.245 . S
C128 O133 1.259 . S
C129 O134 1.250 . S
C129 O135 1.263 . S
O130 Tb122 2.427 . S
O130 C126 1.275 . S
O131 Tb122 2.513 . S
O131 C126 1.246 . S
O132 Tb122 2.453 . S
O132 C128 1.245 . S
O133 Tb120 2.343 . S
O133 Tb122 2.596 . S
O133 C128 1.259 . S
O134 Tb122 2.374 . S
O134 C129 1.250 . S
O135 Tb120 2.353 . S
O135 C129 1.263 . S
C136 O137 1.275 . S
C136 O138 1.246 . S
O137 Tb120 2.427 . S
O137 C136 1.275 . S
O138 Tb120 2.513 . S
O138 C136 1.246 . S
C139 O123 1.245 . S
C139 O124 1.259 . S
Tb140 O143 2.453 . S
Tb140 O144 2.596 . S
Tb140 O145 2.374 . S
Tb140 O153 2.343 . S
Tb140 O155 2.353 . S
Tb140 O157 2.427 . S
Tb140 O158 2.513 . S
C141 O145 1.251 . S
C141 O147 1.263 . S
Tb142 O144 2.343 . S
Tb142 O147 2.353 . S
Tb142 O150 2.427 . S
Tb142 O151 2.513 . S
Tb142 O152 2.453 . S
Tb142 O153 2.596 . S
Tb142 O154 2.374 . S
O143 Tb140 2.453 . S
O143 C159 1.245 . S
O144 Tb140 2.596 . S
O144 Tb142 2.343 . S
O144 C159 1.259 . S
O145 Tb140 2.374 . S
O145 C141 1.251 . S
C146 O150 1.275 . S
C146 O151 1.246 . S
O147 C141 1.263 . S
O147 Tb142 2.353 . S
C148 O152 1.245 . S
C148 O153 1.259 . S
C149 O154 1.250 . S
C149 O155 1.263 . S
O150 Tb142 2.427 . S
O150 C146 1.275 . S
O151 Tb142 2.513 . S
O151 C146 1.246 . S
O152 Tb142 2.453 . S
O152 C148 1.245 . S
O153 Tb140 2.343 . S
O153 Tb142 2.596 . S
O153 C148 1.259 . S
O154 Tb142 2.374 . S
O154 C149 1.250 . S
O155 Tb140 2.353 . S
O155 C149 1.263 . S
C156 O157 1.275 . S
C156 O158 1.246 . S
O157 Tb140 2.427 . S
O157 C156 1.275 . S
O158 Tb140 2.513 . S
O158 C156 1.246 . S
C159 O143 1.245 . S
C159 O144 1.259 . S
Tb160 O163 2.453 1_556 S
Tb160 O164 2.596 . S
Tb160 O165 2.374 . S
Tb160 O173 2.343 . S
Tb160 O175 2.353 . S
Tb160 O177 2.427 . S
Tb160 O178 2.513 . S
C161 O165 1.251 . S
C161 O167 1.263 . S
Tb162 O164 2.343 . S
Tb162 O167 2.353 . S
Tb162 O170 2.427 . S
Tb162 O171 2.513 . S
Tb162 O172 2.453 . S
Tb162 O173 2.596 . S
Tb162 O174 2.374 . S
O163 Tb160 2.453 1_554 S
O163 C179 1.245 . S
O164 Tb160 2.596 . S
O164 Tb162 2.343 . S
O164 C179 1.259 1_556 S
O165 Tb160 2.374 . S
O165 C161 1.251 . S
C166 O170 1.275 . S
C166 O171 1.246 . S
O167 C161 1.263 . S
O167 Tb162 2.353 . S
C168 O172 1.245 . S
C168 O173 1.259 . S
C169 O174 1.250 . S
C169 O175 1.263 . S
O170 Tb162 2.427 . S
O170 C166 1.275 . S
O171 Tb162 2.513 . S
O171 C166 1.246 . S
O172 Tb162 2.453 . S
O172 C168 1.245 . S
O173 Tb160 2.343 . S
O173 Tb162 2.596 . S
O173 C168 1.259 . S
O174 Tb162 2.374 . S
O174 C169 1.250 . S
O175 Tb160 2.353 . S
O175 C169 1.263 . S
C176 O177 1.275 . S
C176 O178 1.246 . S
O177 Tb160 2.427 . S
O177 C176 1.275 . S
O178 Tb160 2.513 . S
O178 C176 1.246 . S
C179 O163 1.245 . S
C179 O164 1.259 1_554 S
Tb180 O183 2.453 . S
Tb180 O184 2.596 . S
Tb180 O185 2.374 . S
Tb180 O193 2.343 . S
Tb180 O195 2.353 . S
Tb180 O197 2.427 . S
Tb180 O198 2.513 . S
C181 O185 1.251 . S
C181 O187 1.263 . S
Tb182 O184 2.343 . S
Tb182 O187 2.353 . S
Tb182 O190 2.427 . S
Tb182 O191 2.513 . S
Tb182 O192 2.453 . S
Tb182 O193 2.596 . S
Tb182 O194 2.374 . S
O183 Tb180 2.453 . S
O183 C199 1.245 . S
O184 Tb180 2.596 . S
O184 Tb182 2.343 . S
O184 C199 1.259 . S
O185 Tb180 2.374 . S
O185 C181 1.251 . S
C186 O190 1.275 . S
C186 O191 1.246 . S
O187 C181 1.263 . S
O187 Tb182 2.353 . S
C188 O192 1.245 . S
C188 O193 1.259 . S
C189 O194 1.250 . S
C189 O195 1.263 . S
O190 Tb182 2.427 . S
O190 C186 1.275 . S
O191 Tb182 2.513 . S
O191 C186 1.246 . S
O192 Tb182 2.453 . S
O192 C188 1.245 . S
O193 Tb180 2.343 . S
O193 Tb182 2.596 . S
O193 C188 1.259 . S
O194 Tb182 2.374 . S
O194 C189 1.250 . S
O195 Tb180 2.353 . S
O195 C189 1.263 . S
C196 O197 1.275 . S
C196 O198 1.246 . S
O197 Tb180 2.427 . S
O197 C196 1.275 . S
O198 Tb180 2.513 . S
O198 C196 1.246 . S
C199 O183 1.245 . S
C199 O184 1.259 . S
Tb200 O203 2.453 . S
Tb200 O204 2.596 . S
Tb200 O205 2.374 . S
Tb200 O213 2.343 . S
Tb200 O215 2.353 . S
Tb200 O217 2.427 . S
Tb200 O218 2.513 . S
C201 O205 1.251 . S
C201 O207 1.263 . S
Tb202 O204 2.343 . S
Tb202 O207 2.353 . S
Tb202 O210 2.427 . S
Tb202 O211 2.513 . S
Tb202 O212 2.453 . S
Tb202 O213 2.596 . S
Tb202 O214 2.374 . S
O203 Tb200 2.453 . S
O203 C219 1.245 . S
O204 Tb200 2.596 . S
O204 Tb202 2.343 . S
O204 C219 1.259 . S
O205 Tb200 2.374 . S
O205 C201 1.251 . S
C206 O210 1.275 . S
C206 O211 1.246 . S
O207 C201 1.263 . S
O207 Tb202 2.353 . S
C208 O212 1.245 . S
C208 O213 1.259 . S
C209 O214 1.250 . S
C209 O215 1.263 . S
O210 Tb202 2.427 . S
O210 C206 1.275 . S
O211 Tb202 2.513 . S
O211 C206 1.246 . S
O212 Tb202 2.453 . S
O212 C208 1.245 . S
O213 Tb200 2.343 . S
O213 Tb202 2.596 . S
O213 C208 1.259 . S
O214 Tb202 2.374 . S
O214 C209 1.250 . S
O215 Tb200 2.353 . S
O215 C209 1.263 . S
C216 O217 1.275 . S
C216 O218 1.246 . S
O217 Tb200 2.427 . S
O217 C216 1.275 . S
O218 Tb200 2.513 . S
O218 C216 1.246 . S
C219 O203 1.245 . S
C219 O204 1.259 . S
Tb220 O223 2.453 . S
Tb220 O224 2.596 . S
Tb220 O225 2.374 . S
Tb220 O233 2.343 . S
Tb220 O235 2.353 . S
Tb220 O237 2.427 . S
Tb220 O238 2.513 . S
C221 O225 1.251 . S
C221 O227 1.263 . S
Tb222 O224 2.343 . S
Tb222 O227 2.353 . S
Tb222 O230 2.427 . S
Tb222 O231 2.513 . S
Tb222 O232 2.453 1_554 S
Tb222 O233 2.596 . S
Tb222 O234 2.374 . S
O223 Tb220 2.453 . S
O223 C239 1.245 . S
O224 Tb220 2.596 . S
O224 Tb222 2.343 . S
O224 C239 1.259 . S
O225 Tb220 2.374 . S
O225 C221 1.251 . S
C226 O230 1.275 . S
C226 O231 1.246 . S
O227 C221 1.263 . S
O227 Tb222 2.353 . S
C228 O232 1.245 . S
C228 O233 1.259 1_556 S
C229 O234 1.250 . S
C229 O235 1.263 . S
O230 Tb222 2.427 . S
O230 C226 1.275 . S
O231 Tb222 2.513 . S
O231 C226 1.246 . S
O232 Tb222 2.453 1_556 S
O232 C228 1.245 . S
O233 Tb220 2.343 . S
O233 Tb222 2.596 . S
O233 C228 1.259 1_554 S
O234 Tb222 2.374 . S
O234 C229 1.250 . S
O235 Tb220 2.353 . S
O235 C229 1.263 . S
C236 O237 1.275 . S
C236 O238 1.246 . S
O237 Tb220 2.427 . S
O237 C236 1.275 . S
O238 Tb220 2.513 . S
O238 C236 1.246 . S
C239 O223 1.245 . S
C239 O224 1.259 . S
Tb240 O243 2.453 . S
Tb240 O244 2.596 . S
Tb240 O245 2.374 . S
Tb240 O253 2.343 1_556 S
Tb240 O255 2.353 1_556 S
Tb240 O257 2.427 1_556 S
Tb240 O258 2.513 1_556 S
C241 O245 1.251 . S
C241 O247 1.263 1_556 S
Tb242 O244 2.343 1_554 S
Tb242 O247 2.353 . S
Tb242 O250 2.427 1_554 S
Tb242 O251 2.513 1_554 S
Tb242 O252 2.453 . S
Tb242 O253 2.596 . S
Tb242 O254 2.374 . S
O243 Tb240 2.453 . S
O243 C259 1.245 . S
O244 Tb240 2.596 . S
O244 Tb242 2.343 1_556 S
O244 C259 1.259 . S
O245 Tb240 2.374 . S
O245 C241 1.251 . S
C246 O250 1.275 . S
C246 O251 1.246 . S
O247 C241 1.263 1_554 S
O247 Tb242 2.353 . S
C248 O252 1.245 . S
C248 O253 1.259 . S
C249 O254 1.250 . S
C249 O255 1.263 . S
O250 Tb242 2.427 1_556 S
O250 C246 1.275 . S
O251 Tb242 2.513 1_556 S
O251 C246 1.246 . S
O252 Tb242 2.453 . S
O252 C248 1.245 . S
O253 Tb240 2.343 1_554 S
O253 Tb242 2.596 . S
O253 C248 1.259 . S
O254 Tb242 2.374 . S
O254 C249 1.250 . S
O255 Tb240 2.353 1_554 S
O255 C249 1.263 . S
C256 O257 1.275 . S
C256 O258 1.246 . S
O257 Tb240 2.427 1_554 S
O257 C256 1.275 . S
O258 Tb240 2.513 1_554 S
O258 C256 1.246 . S
C259 O243 1.245 . S
C259 O244 1.259 . S
Tb260 O263 2.453 . S
Tb260 O264 2.596 . S
Tb260 O265 2.374 . S
Tb260 O273 2.343 . S
Tb260 O275 2.353 . S
Tb260 O277 2.427 . S
Tb260 O278 2.513 . S
C261 O265 1.251 . S
C261 O267 1.263 . S
Tb262 O264 2.343 . S
Tb262 O267 2.353 . S
Tb262 O270 2.427 . S
Tb262 O271 2.513 . S
Tb262 O272 2.453 1_556 S
Tb262 O273 2.596 . S
Tb262 O274 2.374 . S
O263 Tb260 2.453 . S
O263 C279 1.245 . S
O264 Tb260 2.596 . S
O264 Tb262 2.343 . S
O264 C279 1.259 . S
O265 Tb260 2.374 . S
O265 C261 1.251 . S
C266 O270 1.275 . S
C266 O271 1.246 . S
O267 C261 1.263 . S
O267 Tb262 2.353 . S
C268 O272 1.245 . S
C268 O273 1.259 1_554 S
C269 O274 1.250 . S
C269 O275 1.263 . S
O270 Tb262 2.427 . S
O270 C266 1.275 . S
O271 Tb262 2.513 . S
O271 C266 1.246 . S
O272 Tb262 2.453 1_554 S
O272 C268 1.245 . S
O273 Tb260 2.343 . S
O273 Tb262 2.596 . S
O273 C268 1.259 1_556 S
O274 Tb262 2.374 . S
O274 C269 1.250 . S
O275 Tb260 2.353 . S
O275 C269 1.263 . S
C276 O277 1.275 . S
C276 O278 1.246 . S
O277 Tb260 2.427 . S
O277 C276 1.275 . S
O278 Tb260 2.513 . S
O278 C276 1.246 . S
C279 O263 1.245 . S
C279 O264 1.259 . S
Tb280 O283 2.453 . S
Tb280 O284 2.596 . S
Tb280 O285 2.374 . S
Tb280 O293 2.343 . S
Tb280 O295 2.353 . S
Tb280 O297 2.427 . S
Tb280 O298 2.513 . S
C281 O285 1.251 . S
C281 O287 1.263 . S
Tb282 O284 2.343 . S
Tb282 O287 2.353 . S
Tb282 O290 2.427 . S
Tb282 O291 2.513 . S
Tb282 O292 2.453 . S
Tb282 O293 2.596 . S
Tb282 O294 2.374 . S
O283 Tb280 2.453 . S
O283 C299 1.245 . S
O284 Tb280 2.596 . S
O284 Tb282 2.343 . S
O284 C299 1.259 . S
O285 Tb280 2.374 . S
O285 C281 1.251 . S
C286 O290 1.275 . S
C286 O291 1.246 . S
O287 C281 1.263 . S
O287 Tb282 2.353 . S
C288 O292 1.245 . S
C288 O293 1.259 . S
C289 O294 1.250 . S
C289 O295 1.263 . S
O290 Tb282 2.427 . S
O290 C286 1.275 . S
O291 Tb282 2.513 . S
O291 C286 1.246 . S
O292 Tb282 2.453 . S
O292 C288 1.245 . S
O293 Tb280 2.343 . S
O293 Tb282 2.596 . S
O293 C288 1.259 . S
O294 Tb282 2.374 . S
O294 C289 1.250 . S
O295 Tb280 2.353 . S
O295 C289 1.263 . S
C296 O297 1.275 . S
C296 O298 1.246 . S
O297 Tb280 2.427 . S
O297 C296 1.275 . S
O298 Tb280 2.513 . S
O298 C296 1.246 . S
C299 O283 1.245 . S
C299 O284 1.259 . S
Tb300 O303 2.453 . S
Tb300 O304 2.596 . S
Tb300 O305 2.374 . S
Tb300 O313 2.343 . S
Tb300 O315 2.353 . S
Tb300 O317 2.427 . S
Tb300 O318 2.513 . S
C301 O305 1.251 . S
C301 O307 1.263 . S
Tb302 O304 2.343 . S
Tb302 O307 2.353 . S
Tb302 O310 2.427 . S
Tb302 O311 2.513 . S
Tb302 O312 2.453 . S
Tb302 O313 2.596 . S
Tb302 O314 2.374 . S
O303 Tb300 2.453 . S
O303 C319 1.245 . S
O304 Tb300 2.596 . S
O304 Tb302 2.343 . S
O304 C319 1.259 . S
O305 Tb300 2.374 . S
O305 C301 1.251 . S
C306 O310 1.275 . S
C306 O311 1.246 . S
O307 C301 1.263 . S
O307 Tb302 2.353 . S
C308 O312 1.245 . S
C308 O313 1.259 . S
C309 O314 1.250 . S
C309 O315 1.263 . S
O310 Tb302 2.427 . S
O310 C306 1.275 . S
O311 Tb302 2.513 . S
O311 C306 1.246 . S
O312 Tb302 2.453 . S
O312 C308 1.245 . S
O313 Tb300 2.343 . S
O313 Tb302 2.596 . S
O313 C308 1.259 . S
O314 Tb302 2.374 . S
O314 C309 1.250 . S
O315 Tb300 2.353 . S
O315 C309 1.263 . S
C316 O317 1.275 . S
C316 O318 1.246 . S
O317 Tb300 2.427 . S
O317 C316 1.275 . S
O318 Tb300 2.513 . S
O318 C316 1.246 . S
C319 O303 1.245 . S
C319 O304 1.259 . S
H320 C328 0.950 . S
H321 C333 0.950 . S
H322 C330 0.950 . S
H323 C332 0.950 . S
H324 C334 0.950 . S
H325 C336 0.950 . S
H326 C338 0.950 . S
H327 C339 0.950 . S
C328 H320 0.950 . S
C328 C329 1.386 . S
C328 C330 1.391 . S
C329 C328 1.386 . S
C329 C333 1.393 . S
C330 H322 0.950 . S
C330 C328 1.391 . S
C330 C331 1.400 . S
C331 C330 1.400 . S
C331 C332 1.398 . S
C331 C337 1.491 . S
C332 H323 0.950 . S
C332 C331 1.398 . S
C332 C333 1.391 . S
C333 H321 0.950 . S
C333 C329 1.393 . S
C333 C332 1.391 . S
C334 H324 0.950 . S
C334 C335 1.386 . S
C334 C336 1.391 . S
C335 C334 1.386 . S
C335 C339 1.393 . S
C336 H325 0.950 . S
C336 C334 1.391 . S
C336 C337 1.400 . S
C337 C331 1.491 . S
C337 C336 1.400 . S
C337 C338 1.398 . S
C338 H326 0.950 . S
C338 C337 1.398 . S
C338 C339 1.391 . S
C339 H327 0.950 . S
C339 C335 1.393 . S
C339 C338 1.391 . S
H340 C348 0.950 . S
H341 C353 0.950 . S
H342 C350 0.950 1_556 S
H343 C352 0.950 . S
H344 C354 0.950 . S
H345 C356 0.950 . S
H346 C358 0.950 . S
H347 C359 0.950 . S
C348 H340 0.950 . S
C348 C349 1.386 . S
C348 C350 1.391 . S
C349 C348 1.386 . S
C349 C353 1.393 . S
C350 H342 0.950 1_554 S
C350 C348 1.391 . S
C350 C351 1.400 1_554 S
C351 C350 1.400 1_556 S
C351 C352 1.398 1_556 S
C351 C357 1.491 . S
C352 H343 0.950 . S
C352 C351 1.398 1_554 S
C352 C353 1.391 . S
C353 H341 0.950 . S
C353 C349 1.393 . S
C353 C352 1.391 . S
C354 H344 0.950 . S
C354 C355 1.386 . S
C354 C356 1.391 . S
C355 C354 1.386 . S
C355 C359 1.393 . S
C356 H345 0.950 . S
C356 C354 1.391 . S
C356 C357 1.400 . S
C357 C351 1.491 . S
C357 C356 1.400 . S
C357 C358 1.398 . S
C358 H346 0.950 . S
C358 C357 1.398 . S
C358 C359 1.391 . S
C359 H347 0.950 . S
C359 C355 1.393 . S
C359 C358 1.391 . S
H360 C368 0.950 . S
H361 C373 0.950 . S
H362 C370 0.950 . S
H363 C372 0.950 . S
H364 C374 0.950 . S
H365 C376 0.950 . S
H366 C378 0.950 . S
H367 C379 0.950 . S
C368 H360 0.950 . S
C368 C369 1.386 . S
C368 C370 1.391 . S
C369 C368 1.386 . S
C369 C373 1.393 . S
C370 H362 0.950 . S
C370 C368 1.391 . S
C370 C371 1.400 . S
C371 C370 1.400 . S
C371 C372 1.398 . S
C371 C377 1.491 . S
C372 H363 0.950 . S
C372 C371 1.398 . S
C372 C373 1.391 . S
C373 H361 0.950 . S
C373 C369 1.393 . S
C373 C372 1.391 . S
C374 H364 0.950 . S
C374 C375 1.386 . S
C374 C376 1.391 1_556 S
C375 C374 1.386 . S
C375 C379 1.393 . S
C376 H365 0.950 . S
C376 C374 1.391 1_554 S
C376 C377 1.400 . S
C377 C371 1.491 . S
C377 C376 1.400 . S
C377 C378 1.398 . S
C378 H366 0.950 . S
C378 C377 1.398 . S
C378 C379 1.391 1_554 S
C379 H367 0.950 . S
C379 C375 1.393 . S
C379 C378 1.391 1_556 S
H380 C388 0.950 . S
H381 C393 0.950 . S
H382 C390 0.950 . S
H383 C392 0.950 . S
H384 C394 0.950 . S
H385 C396 0.950 . S
H386 C398 0.950 . S
H387 C399 0.950 . S
C388 H380 0.950 . S
C388 C389 1.386 . S
C388 C390 1.391 . S
C389 C388 1.386 . S
C389 C393 1.393 . S
C390 H382 0.950 . S
C390 C388 1.391 . S
C390 C391 1.400 . S
C391 C390 1.400 . S
C391 C392 1.398 . S
C391 C397 1.491 . S
C392 H383 0.950 . S
C392 C391 1.398 . S
C392 C393 1.391 . S
C393 H381 0.950 . S
C393 C389 1.393 . S
C393 C392 1.391 . S
C394 H384 0.950 . S
C394 C395 1.386 . S
C394 C396 1.391 . S
C395 C394 1.386 . S
C395 C399 1.393 . S
C396 H385 0.950 . S
C396 C394 1.391 . S
C396 C397 1.400 . S
C397 C391 1.491 . S
C397 C396 1.400 . S
C397 C398 1.398 . S
C398 H386 0.950 . S
C398 C397 1.398 . S
C398 C399 1.391 . S
C399 H387 0.950 . S
C399 C395 1.393 . S
C399 C398 1.391 . S
H400 C408 0.950 . S
H401 C413 0.950 . S
H402 C410 0.950 . S
H403 C412 0.950 . S
H404 C414 0.950 . S
H405 C416 0.950 . S
H406 C418 0.950 . S
H407 C419 0.950 . S
C408 H400 0.950 . S
C408 C409 1.386 . S
C408 C410 1.391 . S
C409 C408 1.386 . S
C409 C413 1.393 . S
C410 H402 0.950 . S
C410 C408 1.391 . S
C410 C411 1.400 . S
C411 C410 1.400 . S
C411 C412 1.398 . S
C411 C417 1.491 . S
C412 H403 0.950 . S
C412 C411 1.398 . S
C412 C413 1.391 . S
C413 H401 0.950 . S
C413 C409 1.393 . S
C413 C412 1.391 . S
C414 H404 0.950 . S
C414 C415 1.386 . S
C414 C416 1.391 . S
C415 C414 1.386 . S
C415 C419 1.393 . S
C416 H405 0.950 . S
C416 C414 1.391 . S
C416 C417 1.400 . S
C417 C411 1.491 . S
C417 C416 1.400 . S
C417 C418 1.398 . S
C418 H406 0.950 . S
C418 C417 1.398 . S
C418 C419 1.391 . S
C419 H407 0.950 . S
C419 C415 1.393 . S
C419 C418 1.391 . S
H420 C428 0.950 . S
H421 C433 0.950 . S
H422 C430 0.950 . S
H423 C432 0.950 . S
H424 C434 0.950 . S
H425 C436 0.950 . S
H426 C438 0.950 . S
H427 C439 0.950 . S
C428 H420 0.950 . S
C428 C429 1.386 . S
C428 C430 1.391 . S
C429 C428 1.386 . S
C429 C433 1.393 . S
C430 H422 0.950 . S
C430 C428 1.391 . S
C430 C431 1.400 . S
C431 C430 1.400 . S
C431 C432 1.398 . S
C431 C437 1.491 . S
C432 H423 0.950 . S
C432 C431 1.398 . S
C432 C433 1.391 . S
C433 H421 0.950 . S
C433 C429 1.393 . S
C433 C432 1.391 . S
C434 H424 0.950 . S
C434 C435 1.386 . S
C434 C436 1.391 . S
C435 C434 1.386 . S
C435 C439 1.393 . S
C436 H425 0.950 . S
C436 C434 1.391 . S
C436 C437 1.400 . S
C437 C431 1.491 . S
C437 C436 1.400 . S
C437 C438 1.398 . S
C438 H426 0.950 . S
C438 C437 1.398 . S
C438 C439 1.391 . S
C439 H427 0.950 . S
C439 C435 1.393 . S
C439 C438 1.391 . S
H440 C448 0.950 . S
H441 C453 0.950 . S
H442 C450 0.950 . S
H443 C452 0.950 . S
H444 C454 0.950 . S
H445 C456 0.950 . S
H446 C458 0.950 . S
H447 C459 0.950 . S
C448 H440 0.950 . S
C448 C449 1.386 . S
C448 C450 1.391 . S
C449 C448 1.386 . S
C449 C453 1.393 . S
C450 H442 0.950 . S
C450 C448 1.391 . S
C450 C451 1.400 . S
C451 C450 1.400 . S
C451 C452 1.398 . S
C451 C457 1.491 . S
C452 H443 0.950 . S
C452 C451 1.398 . S
C452 C453 1.391 . S
C453 H441 0.950 . S
C453 C449 1.393 . S
C453 C452 1.391 . S
C454 H444 0.950 . S
C454 C455 1.386 . S
C454 C456 1.391 1_554 S
C455 C454 1.386 . S
C455 C459 1.393 . S
C456 H445 0.950 . S
C456 C454 1.391 1_556 S
C456 C457 1.400 . S
C457 C451 1.491 . S
C457 C456 1.400 . S
C457 C458 1.398 1_556 S
C458 H446 0.950 . S
C458 C457 1.398 1_554 S
C458 C459 1.391 . S
C459 H447 0.950 . S
C459 C455 1.393 . S
C459 C458 1.391 . S
H460 C468 0.950 . S
H461 C473 0.950 . S
H462 C470 0.950 . S
H463 C472 0.950 . S
H464 C474 0.950 . S
H465 C476 0.950 . S
H466 C478 0.950 . S
H467 C479 0.950 . S
C468 H460 0.950 . S
C468 C469 1.386 . S
C468 C470 1.391 1_556 S
C469 C468 1.386 . S
C469 C473 1.393 . S
C470 H462 0.950 . S
C470 C468 1.391 1_554 S
C470 C471 1.400 . S
C471 C470 1.400 . S
C471 C472 1.398 . S
C471 C477 1.491 . S
C472 H463 0.950 . S
C472 C471 1.398 . S
C472 C473 1.391 1_554 S
C473 H461 0.950 . S
C473 C469 1.393 . S
C473 C472 1.391 1_556 S
C474 H464 0.950 . S
C474 C475 1.386 . S
C474 C476 1.391 . S
C475 C474 1.386 . S
C475 C479 1.393 . S
C476 H465 0.950 . S
C476 C474 1.391 . S
C476 C477 1.400 . S
C477 C471 1.491 . S
C477 C476 1.400 . S
C477 C478 1.398 . S
C478 H466 0.950 . S
C478 C477 1.398 . S
C478 C479 1.391 . S
C479 H467 0.950 . S
C479 C475 1.393 . S
C479 C478 1.391 . S
H480 C488 0.950 . S
H481 C493 0.950 . S
H482 C490 0.950 . S
H483 C492 0.950 . S
H484 C494 0.950 . S
H485 C496 0.950 . S
H486 C498 0.950 . S
H487 C499 0.950 . S
C488 H480 0.950 . S
C488 C489 1.386 . S
C488 C490 1.391 . S
C489 C488 1.386 . S
C489 C493 1.393 . S
C490 H482 0.950 . S
C490 C488 1.391 . S
C490 C491 1.400 . S
C491 C490 1.400 . S
C491 C492 1.398 . S
C491 C497 1.491 . S
C492 H483 0.950 . S
C492 C491 1.398 . S
C492 C493 1.391 . S
C493 H481 0.950 . S
C493 C489 1.393 . S
C493 C492 1.391 . S
C494 H484 0.950 . S
C494 C495 1.386 . S
C494 C496 1.391 . S
C495 C494 1.386 . S
C495 C499 1.393 . S
C496 H485 0.950 . S
C496 C494 1.391 . S
C496 C497 1.400 . S
C497 C491 1.491 . S
C497 C496 1.400 . S
C497 C498 1.398 . S
C498 H486 0.950 . S
C498 C497 1.398 . S
C498 C499 1.391 . S
C499 H487 0.950 . S
C499 C495 1.393 . S
C499 C498 1.391 . S
H500 C508 0.950 . S
H501 C513 0.950 . S
H502 C510 0.950 . S
H503 C512 0.950 . S
H504 C514 0.950 . S
H505 C516 0.950 . S
H506 C518 0.950 . S
H507 C519 0.950 . S
C508 H500 0.950 . S
C508 C509 1.386 . S
C508 C510 1.391 . S
C509 C508 1.386 . S
C509 C513 1.393 . S
C510 H502 0.950 . S
C510 C508 1.391 . S
C510 C511 1.400 . S
C511 C510 1.400 . S
C511 C512 1.398 . S
C511 C517 1.491 . S
C512 H503 0.950 . S
C512 C511 1.398 . S
C512 C513 1.391 . S
C513 H501 0.950 . S
C513 C509 1.393 . S
C513 C512 1.391 . S
C514 H504 0.950 . S
C514 C515 1.386 . S
C514 C516 1.391 1_556 S
C515 C514 1.386 . S
C515 C519 1.393 . S
C516 H505 0.950 . S
C516 C514 1.391 1_554 S
C516 C517 1.400 . S
C517 C511 1.491 . S
C517 C516 1.400 . S
C517 C518 1.398 . S
C518 H506 0.950 . S
C518 C517 1.398 . S
C518 C519 1.391 1_554 S
C519 H507 0.950 . S
C519 C515 1.393 . S
C519 C518 1.391 1_556 S
H520 C528 0.950 . S
H521 C533 0.950 . S
H522 C530 0.950 . S
H523 C532 0.950 . S
H524 C534 0.950 . S
H525 C536 0.950 . S
H526 C538 0.950 . S
H527 C539 0.950 . S
C528 H520 0.950 . S
C528 C529 1.386 . S
C528 C530 1.391 1_554 S
C529 C528 1.386 . S
C529 C533 1.393 . S
C530 H522 0.950 . S
C530 C528 1.391 1_556 S
C530 C531 1.400 . S
C531 C530 1.400 . S
C531 C532 1.398 . S
C531 C537 1.491 . S
C532 H523 0.950 . S
C532 C531 1.398 . S
C532 C533 1.391 1_556 S
C533 H521 0.950 . S
C533 C529 1.393 . S
C533 C532 1.391 1_554 S
C534 H524 0.950 . S
C534 C535 1.386 . S
C534 C536 1.391 . S
C535 C534 1.386 . S
C535 C539 1.393 . S
C536 H525 0.950 . S
C536 C534 1.391 . S
C536 C537 1.400 . S
C537 C531 1.491 . S
C537 C536 1.400 . S
C537 C538 1.398 . S
C538 H526 0.950 . S
C538 C537 1.398 . S
C538 C539 1.391 . S
C539 H527 0.950 . S
C539 C535 1.393 . S
C539 C538 1.391 . S
H540 C548 0.950 . S
H541 C553 0.950 . S
H542 C550 0.950 . S
H543 C552 0.950 . S
H544 C554 0.950 . S
H545 C556 0.950 . S
H546 C558 0.950 . S
H547 C559 0.950 . S
C548 H540 0.950 . S
C548 C549 1.386 . S
C548 C550 1.391 . S
C549 C548 1.386 . S
C549 C553 1.393 . S
C550 H542 0.950 . S
C550 C548 1.391 . S
C550 C551 1.400 . S
C551 C550 1.400 . S
C551 C552 1.398 . S
C551 C557 1.491 . S
C552 H543 0.950 . S
C552 C551 1.398 . S
C552 C553 1.391 . S
C553 H541 0.950 . S
C553 C549 1.393 . S
C553 C552 1.391 . S
C554 H544 0.950 . S
C554 C555 1.386 . S
C554 C556 1.391 . S
C555 C554 1.386 . S
C555 C559 1.393 . S
C556 H545 0.950 . S
C556 C554 1.391 . S
C556 C557 1.400 . S
C557 C551 1.491 . S
C557 C556 1.400 . S
C557 C558 1.398 . S
C558 H546 0.950 . S
C558 C557 1.398 . S
C558 C559 1.391 . S
C559 H547 0.950 . S
C559 C555 1.393 . S
C559 C558 1.391 . S
H560 C568 0.950 . S
H561 C573 0.950 . S
H562 C570 0.950 . S
H563 C572 0.950 . S
H564 C574 0.950 . S
H565 C576 0.950 . S
H566 C578 0.950 . S
H567 C579 0.950 . S
C568 H560 0.950 . S
C568 C569 1.386 . S
C568 C570 1.391 . S
C569 C568 1.386 . S
C569 C573 1.393 . S
C570 H562 0.950 . S
C570 C568 1.391 . S
C570 C571 1.400 . S
C571 C570 1.400 . S
C571 C572 1.398 . S
C571 C577 1.491 . S
C572 H563 0.950 . S
C572 C571 1.398 . S
C572 C573 1.391 . S
C573 H561 0.950 . S
C573 C569 1.393 . S
C573 C572 1.391 . S
C574 H564 0.950 . S
C574 C575 1.386 . S
C574 C576 1.391 . S
C575 C574 1.386 . S
C575 C579 1.393 . S
C576 H565 0.950 . S
C576 C574 1.391 . S
C576 C577 1.400 . S
C577 C571 1.491 . S
C577 C576 1.400 . S
C577 C578 1.398 . S
C578 H566 0.950 . S
C578 C577 1.398 . S
C578 C579 1.391 . S
C579 H567 0.950 . S
C579 C575 1.393 . S
C579 C578 1.391 . S
H580 C588 0.950 . S
H581 C593 0.950 . S
H582 C590 0.950 . S
H583 C592 0.950 . S
H584 C594 0.950 . S
H585 C596 0.950 . S
H586 C598 0.950 . S
H587 C599 0.950 . S
C588 H580 0.950 . S
C588 C589 1.386 . S
C588 C590 1.391 . S
C589 C588 1.386 . S
C589 C593 1.393 . S
C590 H582 0.950 . S
C590 C588 1.391 . S
C590 C591 1.400 . S
C591 C590 1.400 . S
C591 C592 1.398 . S
C591 C597 1.491 . S
C592 H583 0.950 . S
C592 C591 1.398 . S
C592 C593 1.391 . S
C593 H581 0.950 . S
C593 C589 1.393 . S
C593 C592 1.391 . S
C594 H584 0.950 . S
C594 C595 1.386 . S
C594 C596 1.391 . S
C595 C594 1.386 . S
C595 C599 1.393 . S
C596 H585 0.950 . S
C596 C594 1.391 . S
C596 C597 1.400 . S
C597 C591 1.491 . S
C597 C596 1.400 . S
C597 C598 1.398 . S
C598 H586 0.950 . S
C598 C597 1.398 . S
C598 C599 1.391 . S
C599 H587 0.950 . S
C599 C595 1.393 . S
C599 C598 1.391 . S
H600 C608 0.950 . S
H601 C613 0.950 . S
H602 C610 0.950 . S
H603 C612 0.950 . S
H604 C614 0.950 . S
H605 C616 0.950 . S
H606 C618 0.950 . S
H607 C619 0.950 . S
C608 H600 0.950 . S
C608 C609 1.386 . S
C608 C610 1.391 . S
C609 C608 1.386 . S
C609 C613 1.393 . S
C610 H602 0.950 . S
C610 C608 1.391 . S
C610 C611 1.400 . S
C611 C610 1.400 . S
C611 C612 1.398 . S
C611 C617 1.491 1_554 S
C612 H603 0.950 . S
C612 C611 1.398 . S
C612 C613 1.391 . S
C613 H601 0.950 . S
C613 C609 1.393 . S
C613 C612 1.391 . S
C614 H604 0.950 . S
C614 C615 1.386 . S
C614 C616 1.391 . S
C615 C614 1.386 . S
C615 C619 1.393 . S
C616 H605 0.950 . S
C616 C614 1.391 . S
C616 C617 1.400 . S
C617 C611 1.491 1_556 S
C617 C616 1.400 . S
C617 C618 1.398 . S
C618 H606 0.950 . S
C618 C617 1.398 . S
C618 C619 1.391 . S
C619 H607 0.950 . S
C619 C615 1.393 . S
C619 C618 1.391 . S
H620 C628 0.950 . S
H621 C633 0.950 . S
H622 C630 0.950 1_556 S
H623 C632 0.950 . S
H624 C634 0.950 . S
H625 C636 0.950 . S
H626 C638 0.950 . S
H627 C639 0.950 . S
C628 H620 0.950 . S
C628 C629 1.386 . S
C628 C630 1.391 . S
C629 C628 1.386 . S
C629 C633 1.393 . S
C630 H622 0.950 1_554 S
C630 C628 1.391 . S
C630 C631 1.400 1_554 S
C631 C630 1.400 1_556 S
C631 C632 1.398 . S
C631 C637 1.491 . S
C632 H623 0.950 . S
C632 C631 1.398 . S
C632 C633 1.391 1_556 S
C633 H621 0.950 . S
C633 C629 1.393 . S
C633 C632 1.391 1_554 S
C634 H624 0.950 . S
C634 C635 1.386 . S
C634 C636 1.391 . S
C635 C634 1.386 . S
C635 C639 1.393 . S
C636 H625 0.950 . S
C636 C634 1.391 . S
C636 C637 1.400 . S
C637 C631 1.491 . S
C637 C636 1.400 . S
C637 C638 1.398 . S
C638 H626 0.950 . S
C638 C637 1.398 . S
C638 C639 1.391 . S
C639 H627 0.950 . S
C639 C635 1.393 . S
C639 C638 1.391 . S
H640 C648 0.950 . S
H641 C653 0.950 . S
H642 C650 0.950 . S
H643 C652 0.950 . S
H644 C654 0.950 . S
H645 C656 0.950 . S
H646 C658 0.950 . S
H647 C659 0.950 . S
C648 H640 0.950 . S
C648 C649 1.386 . S
C648 C650 1.391 . S
C649 C648 1.386 . S
C649 C653 1.393 . S
C650 H642 0.950 . S
C650 C648 1.391 . S
C650 C651 1.400 . S
C651 C650 1.400 . S
C651 C652 1.398 . S
C651 C657 1.491 . S
C652 H643 0.950 . S
C652 C651 1.398 . S
C652 C653 1.391 . S
C653 H641 0.950 . S
C653 C649 1.393 . S
C653 C652 1.391 . S
C654 H644 0.950 . S
C654 C655 1.386 . S
C654 C656 1.391 . S
C655 C654 1.386 . S
C655 C659 1.393 . S
C656 H645 0.950 . S
C656 C654 1.391 . S
C656 C657 1.400 . S
C657 C651 1.491 . S
C657 C656 1.400 . S
C657 C658 1.398 . S
C658 H646 0.950 . S
C658 C657 1.398 . S
C658 C659 1.391 . S
C659 H647 0.950 . S
C659 C655 1.393 . S
C659 C658 1.391 . S
H660 C668 0.950 . S
H661 C673 0.950 . S
H662 C670 0.950 . S
H663 C672 0.950 . S
H664 C674 0.950 . S
H665 C676 0.950 . S
H666 C678 0.950 . S
H667 C679 0.950 . S
C668 H660 0.950 . S
C668 C669 1.386 . S
C668 C670 1.391 . S
C669 C668 1.386 . S
C669 C673 1.393 . S
C670 H662 0.950 . S
C670 C668 1.391 . S
C670 C671 1.400 . S
C671 C670 1.400 . S
C671 C672 1.398 . S
C671 C677 1.491 . S
C672 H663 0.950 . S
C672 C671 1.398 . S
C672 C673 1.391 . S
C673 H661 0.950 . S
C673 C669 1.393 . S
C673 C672 1.391 . S
C674 H664 0.950 . S
C674 C675 1.386 . S
C674 C676 1.391 . S
C675 C674 1.386 . S
C675 C679 1.393 . S
C676 H665 0.950 . S
C676 C674 1.391 . S
C676 C677 1.400 . S
C677 C671 1.491 . S
C677 C676 1.400 . S
C677 C678 1.398 . S
C678 H666 0.950 . S
C678 C677 1.398 . S
C678 C679 1.391 . S
C679 H667 0.950 . S
C679 C675 1.393 . S
C679 C678 1.391 . S
H680 C688 0.950 . S
H681 C693 0.950 . S
H682 C690 0.950 . S
H683 C692 0.950 . S
H684 C694 0.950 . S
H685 C696 0.950 . S
H686 C698 0.950 . S
H687 C699 0.950 . S
C688 H680 0.950 . S
C688 C689 1.386 . S
C688 C690 1.391 . S
C689 C688 1.386 . S
C689 C693 1.393 . S
C690 H682 0.950 . S
C690 C688 1.391 . S
C690 C691 1.400 . S
C691 C690 1.400 . S
C691 C692 1.398 . S
C691 C697 1.491 . S
C692 H683 0.950 . S
C692 C691 1.398 . S
C692 C693 1.391 . S
C693 H681 0.950 . S
C693 C689 1.393 . S
C693 C692 1.391 . S
C694 H684 0.950 . S
C694 C695 1.386 . S
C694 C696 1.391 . S
C695 C694 1.386 . S
C695 C699 1.393 . S
C696 H685 0.950 . S
C696 C694 1.391 . S
C696 C697 1.400 . S
C697 C691 1.491 . S
C697 C696 1.400 . S
C697 C698 1.398 . S
C698 H686 0.950 . S
C698 C697 1.398 . S
C698 C699 1.391 . S
C699 H687 0.950 . S
C699 C695 1.393 . S
C699 C698 1.391 . S
H700 C708 0.950 . S
H701 C713 0.950 . S
H702 C710 0.950 . S
H703 C712 0.950 . S
H704 C714 0.950 . S
H705 C716 0.950 . S
H706 C718 0.950 . S
H707 C719 0.950 . S
C708 H700 0.950 . S
C708 C709 1.386 . S
C708 C710 1.391 . S
C709 C708 1.386 . S
C709 C713 1.393 1_556 S
C710 H702 0.950 . S
C710 C708 1.391 . S
C710 C711 1.400 . S
C711 C710 1.400 . S
C711 C712 1.398 1_556 S
C711 C717 1.491 1_655 S
C712 H703 0.950 . S
C712 C711 1.398 1_554 S
C712 C713 1.391 . S
C713 H701 0.950 . S
C713 C709 1.393 1_554 S
C713 C712 1.391 . S
C714 H704 0.950 . S
C714 C715 1.386 1_554 S
C714 C716 1.391 . S
C715 C714 1.386 1_556 S
C715 C719 1.393 . S
C716 H705 0.950 . S
C716 C714 1.391 . S
C716 C717 1.400 1_554 S
C717 C711 1.491 1_455 S
C717 C716 1.400 1_556 S
C717 C718 1.398 . S
C718 H706 0.950 . S
C718 C717 1.398 . S
C718 C719 1.391 . S
C719 H707 0.950 . S
C719 C715 1.393 . S
C719 C718 1.391 . S
H720 C728 0.950 . S
H721 C733 0.950 . S
H722 C730 0.950 . S
H723 C732 0.950 . S
H724 C734 0.950 . S
H725 C736 0.950 . S
H726 C738 0.950 . S
H727 C739 0.950 . S
C728 H720 0.950 . S
C728 C729 1.386 . S
C728 C730 1.391 . S
C729 C728 1.386 . S
C729 C733 1.393 . S
C730 H722 0.950 . S
C730 C728 1.391 . S
C730 C731 1.400 . S
C731 C730 1.400 . S
C731 C732 1.398 . S
C731 C737 1.491 . S
C732 H723 0.950 . S
C732 C731 1.398 . S
C732 C733 1.391 . S
C733 H721 0.950 . S
C733 C729 1.393 . S
C733 C732 1.391 . S
C734 H724 0.950 . S
C734 C735 1.386 . S
C734 C736 1.391 . S
C735 C734 1.386 . S
C735 C739 1.393 . S
C736 H725 0.950 . S
C736 C734 1.391 . S
C736 C737 1.400 . S
C737 C731 1.491 . S
C737 C736 1.400 . S
C737 C738 1.398 . S
C738 H726 0.950 . S
C738 C737 1.398 . S
C738 C739 1.391 . S
C739 H727 0.950 . S
C739 C735 1.393 . S
C739 C738 1.391 . S
H740 C748 0.950 . S
H741 C753 0.950 1_556 S
H742 C750 0.950 . S
H743 C752 0.950 1_556 S
H744 C754 0.950 . S
H745 C756 0.950 1_455 S
H746 C758 0.959 . S
H747 C759 0.950 . S
C748 H740 0.950 . S
C748 C749 1.386 . S
C748 C750 1.391 . S
C749 C748 1.386 . S
C749 C753 1.393 . S
C750 H742 0.950 . S
C750 C748 1.391 . S
C750 C751 1.400 . S
C751 C750 1.400 . S
C751 C752 1.398 . S
C751 C757 1.491 . S
C752 H743 0.950 1_554 S
C752 C751 1.398 . S
C752 C753 1.391 . S
C753 H741 0.950 1_554 S
C753 C749 1.393 . S
C753 C752 1.391 . S
C754 H744 0.950 . S
C754 C755 1.386 1_556 S
C754 C756 1.391 . S
C755 C754 1.386 1_554 S
C755 C759 1.393 . S
C756 H745 0.950 1_655 S
C756 C754 1.391 . S
C756 C757 1.400 1_656 S
C757 C751 1.491 . S
C757 C756 1.400 1_454 S
C757 C758 1.398 1_455 S
C758 H746 0.959 . S
C758 C757 1.398 1_655 S
C758 C759 1.391 . S
C759 H747 0.950 . S
C759 C755 1.393 . S
C759 C758 1.391 . S
H760 C768 0.950 . S
H761 C773 0.950 . S
H762 C770 0.950 . S
H763 C772 0.950 . S
H764 C774 0.950 . S
H765 C776 0.950 . S
H766 C778 0.950 . S
H767 C779 0.950 . S
C768 H760 0.950 . S
C768 C769 1.386 . S
C768 C770 1.391 . S
C769 C768 1.386 . S
C769 C773 1.393 . S
C770 H762 0.950 . S
C770 C768 1.391 . S
C770 C771 1.400 . S
C771 C770 1.400 . S
C771 C772 1.398 . S
C771 C777 1.491 . S
C772 H763 0.950 . S
C772 C771 1.398 . S
C772 C773 1.391 . S
C773 H761 0.950 . S
C773 C769 1.393 . S
C773 C772 1.391 . S
C774 H764 0.950 . S
C774 C775 1.386 . S
C774 C776 1.391 . S
C775 C774 1.386 . S
C775 C779 1.393 . S
C776 H765 0.950 . S
C776 C774 1.391 . S
C776 C777 1.400 . S
C777 C771 1.491 . S
C777 C776 1.400 . S
C777 C778 1.398 . S
C778 H766 0.950 . S
C778 C777 1.398 . S
C778 C779 1.391 . S
C779 H767 0.950 . S
C779 C775 1.393 . S
C779 C778 1.391 . S
H780 C788 0.950 . S
H781 C793 0.950 . S
H782 C790 0.950 . S
H783 C792 0.950 . S
H784 C794 0.950 . S
H785 C796 0.950 . S
H786 C798 0.950 . S
H787 C799 0.950 . S
C788 H780 0.950 . S
C788 C789 1.386 . S
C788 C790 1.391 . S
C789 C788 1.386 . S
C789 C793 1.393 . S
C790 H782 0.950 . S
C790 C788 1.391 . S
C790 C791 1.400 . S
C791 C790 1.400 . S
C791 C792 1.398 . S
C791 C797 1.491 . S
C792 H783 0.950 . S
C792 C791 1.398 . S
C792 C793 1.391 . S
C793 H781 0.950 . S
C793 C789 1.393 . S
C793 C792 1.391 . S
C794 H784 0.950 . S
C794 C795 1.386 . S
C794 C796 1.391 . S
C795 C794 1.386 . S
C795 C799 1.393 . S
C796 H785 0.950 . S
C796 C794 1.391 . S
C796 C797 1.400 . S
C797 C791 1.491 . S
C797 C796 1.400 . S
C797 C798 1.398 . S
C798 H786 0.950 . S
C798 C797 1.398 . S
C798 C799 1.391 . S
C799 H787 0.950 . S
C799 C795 1.393 . S
C799 C798 1.391 . S
H800 C808 0.950 . S
H801 C813 0.950 . S
H802 C810 0.950 . S
H803 C812 0.950 . S
H804 C814 0.950 . S
H805 C816 0.950 . S
H806 C818 0.950 . S
H807 C819 0.950 . S
C808 H800 0.950 . S
C808 C809 1.386 . S
C808 C810 1.391 . S
C809 C808 1.386 . S
C809 C813 1.393 . S
C810 H802 0.950 . S
C810 C808 1.391 . S
C810 C811 1.400 . S
C811 C810 1.400 . S
C811 C812 1.398 . S
C811 C817 1.491 . S
C812 H803 0.950 . S
C812 C811 1.398 . S
C812 C813 1.391 . S
C813 H801 0.950 . S
C813 C809 1.393 . S
C813 C812 1.391 . S
C814 H804 0.950 . S
C814 C815 1.386 . S
C814 C816 1.391 . S
C815 C814 1.386 . S
C815 C819 1.393 . S
C816 H805 0.950 . S
C816 C814 1.391 . S
C816 C817 1.400 . S
C817 C811 1.491 . S
C817 C816 1.400 . S
C817 C818 1.398 . S
C818 H806 0.950 . S
C818 C817 1.398 . S
C818 C819 1.391 . S
C819 H807 0.950 . S
C819 C815 1.393 . S
C819 C818 1.391 . S
H820 C828 0.950 . S
H821 C833 0.950 . S
H822 C830 0.950 . S
H823 C832 0.950 . S
H824 C834 0.950 . S
H825 C836 0.950 . S
H826 C838 0.950 . S
H827 C839 0.950 . S
C828 H820 0.950 . S
C828 C829 1.386 . S
C828 C830 1.391 . S
C829 C828 1.386 . S
C829 C833 1.393 . S
C830 H822 0.950 . S
C830 C828 1.391 . S
C830 C831 1.400 . S
C831 C830 1.400 . S
C831 C832 1.398 . S
C831 C837 1.491 . S
C832 H823 0.950 . S
C832 C831 1.398 . S
C832 C833 1.391 . S
C833 H821 0.950 . S
C833 C829 1.393 . S
C833 C832 1.391 . S
C834 H824 0.950 . S
C834 C835 1.386 . S
C834 C836 1.391 . S
C835 C834 1.386 . S
C835 C839 1.393 . S
C836 H825 0.950 . S
C836 C834 1.391 . S
C836 C837 1.400 . S
C837 C831 1.491 . S
C837 C836 1.400 . S
C837 C838 1.398 . S
C838 H826 0.950 . S
C838 C837 1.398 . S
C838 C839 1.391 . S
C839 H827 0.950 . S
C839 C835 1.393 . S
C839 C838 1.391 . S
H840 C848 0.950 . S
H841 C853 0.950 1_556 S
H842 C850 0.950 . S
H843 C852 0.950 1_556 S
H844 C854 0.950 . S
H845 C856 0.950 1_556 S
H846 C858 0.950 . S
H847 C859 0.950 . S
C848 H840 0.950 . S
C848 C849 1.386 . S
C848 C850 1.391 . S
C849 C848 1.386 . S
C849 C853 1.393 . S
C850 H842 0.950 . S
C850 C848 1.391 . S
C850 C851 1.400 . S
C851 C850 1.400 . S
C851 C852 1.398 . S
C851 C857 1.491 . S
C852 H843 0.950 1_554 S
C852 C851 1.398 . S
C852 C853 1.391 . S
C853 H841 0.950 1_554 S
C853 C849 1.393 . S
C853 C852 1.391 . S
C854 H844 0.950 . S
C854 C855 1.386 . S
C854 C856 1.391 . S
C855 C854 1.386 . S
C855 C859 1.393 . S
C856 H845 0.950 1_554 S
C856 C854 1.391 . S
C856 C857 1.400 . S
C857 C851 1.491 . S
C857 C856 1.400 . S
C857 C858 1.398 . S
C858 H846 0.950 . S
C858 C857 1.398 . S
C858 C859 1.391 . S
C859 H847 0.950 . S
C859 C855 1.393 . S
C859 C858 1.391 . S
H860 C868 0.950 . S
H861 C873 0.950 . S
H862 C870 0.950 . S
H863 C872 0.950 . S
H864 C874 0.950 . S
H865 C876 0.950 . S
H866 C878 0.950 . S
H867 C879 0.950 . S
C868 H860 0.950 . S
C868 C869 1.386 . S
C868 C870 1.391 . S
C869 C868 1.386 . S
C869 C873 1.393 . S
C870 H862 0.950 . S
C870 C868 1.391 . S
C870 C871 1.400 . S
C871 C870 1.400 . S
C871 C872 1.398 . S
C871 C877 1.491 . S
C872 H863 0.950 . S
C872 C871 1.398 . S
C872 C873 1.391 . S
C873 H861 0.950 . S
C873 C869 1.393 . S
C873 C872 1.391 . S
C874 H864 0.950 . S
C874 C875 1.386 . S
C874 C876 1.391 . S
C875 C874 1.386 . S
C875 C879 1.393 . S
C876 H865 0.950 . S
C876 C874 1.391 . S
C876 C877 1.400 . S
C877 C871 1.491 . S
C877 C876 1.400 . S
C877 C878 1.398 . S
C878 H866 0.950 . S
C878 C877 1.398 . S
C878 C879 1.391 . S
C879 H867 0.950 . S
C879 C875 1.393 . S
C879 C878 1.391 . S
H880 C888 0.950 . S
H881 C893 0.950 . S
H882 C890 0.950 . S
H883 C892 0.950 . S
H884 C894 0.950 1_556 S
H885 C896 0.950 . S
H886 C898 0.950 . S
H887 C899 0.950 . S
C888 H880 0.950 . S
C888 C889 1.386 . S
C888 C890 1.391 . S
C889 C888 1.386 . S
C889 C893 1.393 1_554 S
C890 H882 0.950 . S
C890 C888 1.391 . S
C890 C891 1.400 . S
C891 C890 1.400 . S
C891 C892 1.398 1_554 S
C891 C897 1.491 1_655 S
C892 H883 0.950 . S
C892 C891 1.398 1_556 S
C892 C893 1.391 . S
C893 H881 0.950 . S
C893 C889 1.393 1_556 S
C893 C892 1.391 . S
C894 H884 0.950 1_554 S
C894 C895 1.386 . S
C894 C896 1.391 1_554 S
C895 C894 1.386 . S
C895 C899 1.393 . S
C896 H885 0.950 . S
C896 C894 1.391 1_556 S
C896 C897 1.400 1_556 S
C897 C891 1.491 1_455 S
C897 C896 1.400 1_554 S
C897 C898 1.398 . S
C898 H886 0.950 . S
C898 C897 1.398 . S
C898 C899 1.391 . S
C899 H887 0.950 . S
C899 C895 1.393 . S
C899 C898 1.391 . S
H900 C908 0.950 . S
H901 C913 0.950 . S
H902 C910 0.950 . S
H903 C912 0.950 . S
H904 C914 0.950 . S
H905 C916 0.950 . S
H906 C918 0.950 . S
H907 C919 0.950 . S
C908 H900 0.950 . S
C908 C909 1.386 . S
C908 C910 1.391 . S
C909 C908 1.386 . S
C909 C913 1.393 . S
C910 H902 0.950 . S
C910 C908 1.391 . S
C910 C911 1.400 . S
C911 C910 1.400 . S
C911 C912 1.398 . S
C911 C917 1.491 . S
C912 H903 0.950 . S
C912 C911 1.398 . S
C912 C913 1.391 . S
C913 H901 0.950 . S
C913 C909 1.393 . S
C913 C912 1.391 . S
C914 H904 0.950 . S
C914 C915 1.386 . S
C914 C916 1.391 . S
C915 C914 1.386 . S
C915 C919 1.393 . S
C916 H905 0.950 . S
C916 C914 1.391 . S
C916 C917 1.400 . S
C917 C911 1.491 . S
C917 C916 1.400 . S
C917 C918 1.398 . S
C918 H906 0.950 . S
C918 C917 1.398 . S
C918 C919 1.391 . S
C919 H907 0.950 . S
C919 C915 1.393 . S
C919 C918 1.391 . S
H920 C928 0.950 . S
H921 C933 0.950 . S
H922 C930 0.950 . S
H923 C932 0.950 . S
H924 C934 0.950 . S
H925 C936 0.950 . S
H926 C938 0.950 . S
H927 C939 0.950 . S
C928 H920 0.950 . S
C928 C929 1.386 . S
C928 C930 1.391 . S
C929 C928 1.386 . S
C929 C933 1.393 . S
C930 H922 0.950 . S
C930 C928 1.391 . S
C930 C931 1.400 . S
C931 C930 1.400 . S
C931 C932 1.398 . S
C931 C937 1.491 . S
C932 H923 0.950 . S
C932 C931 1.398 . S
C932 C933 1.391 . S
C933 H921 0.950 . S
C933 C929 1.393 . S
C933 C932 1.391 . S
C934 H924 0.950 . S
C934 C935 1.386 . S
C934 C936 1.391 . S
C935 C934 1.386 . S
C935 C939 1.393 . S
C936 H925 0.950 . S
C936 C934 1.391 . S
C936 C937 1.400 . S
C937 C931 1.491 . S
C937 C936 1.400 . S
C937 C938 1.398 . S
C938 H926 0.950 . S
C938 C937 1.398 . S
C938 C939 1.391 . S
C939 H927 0.950 . S
C939 C935 1.393 . S
C939 C938 1.391 . S
H940 C948 0.950 . S
H941 C953 0.952 . S
H942 C950 0.950 . S
H943 C952 0.950 . S
H944 C954 0.950 . S
H945 C956 0.950 . S
H946 C958 0.950 . S
H947 C959 0.950 . S
C948 H940 0.950 . S
C948 C949 1.386 . S
C948 C950 1.391 . S
C949 C948 1.386 . S
C949 C953 1.393 . S
C950 H942 0.950 . S
C950 C948 1.391 . S
C950 C951 1.400 . S
C951 C950 1.400 . S
C951 C952 1.398 . S
C951 C957 1.491 1_455 S
C952 H943 0.950 . S
C952 C951 1.398 . S
C952 C953 1.391 . S
C953 H941 0.952 . S
C953 C949 1.393 . S
C953 C952 1.391 . S
C954 H944 0.950 . S
C954 C955 1.386 . S
C954 C956 1.391 . S
C955 C954 1.386 . S
C955 C959 1.393 . S
C956 H945 0.950 . S
C956 C954 1.391 . S
C956 C957 1.400 . S
C957 C951 1.491 1_655 S
C957 C956 1.400 . S
C957 C958 1.398 . S
C958 H946 0.950 . S
C958 C957 1.398 . S
C958 C959 1.391 . S
C959 H947 0.950 . S
C959 C955 1.393 . S
C959 C958 1.391 . S
H960 C968 0.949 1_556 S
H961 C973 0.950 . S
H962 C970 0.950 . S
H963 C972 0.950 . S
H964 C974 0.950 . S
H965 C976 0.950 . S
H966 C978 0.950 . S
H967 C979 0.950 . S
C968 H960 0.949 1_554 S
C968 C969 1.387 . S
C968 C970 1.391 1_554 S
C969 C968 1.387 . S
C969 C973 1.393 . S
C970 H962 0.950 . S
C970 C968 1.391 1_556 S
C970 C971 1.400 1_556 S
C971 C970 1.400 1_554 S
C971 C972 1.398 . S
C971 C977 1.491 . S
C972 H963 0.950 . S
C972 C971 1.398 . S
C972 C973 1.391 . S
C973 H961 0.950 . S
C973 C969 1.393 . S
C973 C972 1.391 . S
C974 H964 0.950 . S
C974 C975 1.386 1_554 S
C974 C976 1.391 . S
C975 C974 1.386 1_556 S
C975 C979 1.393 . S
C976 H965 0.950 . S
C976 C974 1.391 . S
C976 C977 1.400 . S
C977 C971 1.491 . S
C977 C976 1.400 . S
C977 C978 1.398 1_554 S
C978 H966 0.950 . S
C978 C977 1.398 1_556 S
C978 C979 1.391 . S
C979 H967 0.950 . S
C979 C975 1.393 . S
C979 C978 1.391 . S
H980 C988 0.950 . S
H981 C993 0.950 . S
H982 C990 0.950 . S
H983 C992 0.950 . S
H984 C994 0.950 . S
H985 C996 0.950 . S
H986 C998 0.950 . S
H987 C999 0.950 . S
C988 H980 0.950 . S
C988 C989 1.386 . S
C988 C990 1.391 . S
C989 C988 1.386 . S
C989 C993 1.393 . S
C990 H982 0.950 . S
C990 C988 1.391 . S
C990 C991 1.400 . S
C991 C990 1.400 . S
C991 C992 1.398 . S
C991 C997 1.491 . S
C992 H983 0.950 . S
C992 C991 1.398 . S
C992 C993 1.391 . S
C993 H981 0.950 . S
C993 C989 1.393 . S
C993 C992 1.391 . S
C994 H984 0.950 . S
C994 C995 1.386 . S
C994 C996 1.391 . S
C995 C994 1.386 . S
C995 C999 1.393 . S
C996 H985 0.950 . S
C996 C994 1.391 . S
C996 C997 1.400 . S
C997 C991 1.491 . S
C997 C996 1.400 . S
C997 C998 1.398 . S
C998 H986 0.950 . S
C998 C997 1.398 . S
C998 C999 1.391 . S
C999 H987 0.950 . S
C999 C995 1.393 . S
C999 C998 1.391 . S
H1000 C1008 0.950 . S
H1001 C1013 0.950 . S
H1002 C1010 0.950 . S
H1003 C1012 0.950 . S
H1004 C1014 0.950 . S
H1005 C1016 0.950 . S
H1006 C1018 0.950 . S
H1007 C1019 0.950 . S
C1008 H1000 0.950 . S
C1008 C1009 1.386 . S
C1008 C1010 1.391 . S
C1009 C1008 1.386 . S
C1009 C1013 1.393 . S
C1010 H1002 0.950 . S
C1010 C1008 1.391 . S
C1010 C1011 1.400 . S
C1011 C1010 1.400 . S
C1011 C1012 1.398 . S
C1011 C1017 1.491 . S
C1012 H1003 0.950 . S
C1012 C1011 1.398 . S
C1012 C1013 1.391 . S
C1013 H1001 0.950 . S
C1013 C1009 1.393 . S
C1013 C1012 1.391 . S
C1014 H1004 0.950 . S
C1014 C1015 1.386 . S
C1014 C1016 1.391 . S
C1015 C1014 1.386 . S
C1015 C1019 1.393 . S
C1016 H1005 0.950 . S
C1016 C1014 1.391 . S
C1016 C1017 1.400 . S
C1017 C1011 1.491 . S
C1017 C1016 1.400 . S
C1017 C1018 1.398 . S
C1018 H1006 0.950 . S
C1018 C1017 1.398 . S
C1018 C1019 1.391 . S
C1019 H1007 0.950 . S
C1019 C1015 1.393 . S
C1019 C1018 1.391 . S
H1020 C1028 0.950 . S
H1021 C1033 0.950 . S
H1022 C1030 0.950 . S
H1023 C1032 0.950 . S
H1024 C1034 0.950 . S
H1025 C1036 0.950 . S
H1026 C1038 0.950 . S
H1027 C1039 0.950 . S
C1028 H1020 0.950 . S
C1028 C1029 1.386 . S
C1028 C1030 1.391 . S
C1029 C1028 1.386 . S
C1029 C1033 1.393 . S
C1030 H1022 0.950 . S
C1030 C1028 1.391 . S
C1030 C1031 1.400 . S
C1031 C1030 1.400 . S
C1031 C1032 1.398 . S
C1031 C1037 1.491 . S
C1032 H1023 0.950 . S
C1032 C1031 1.398 . S
C1032 C1033 1.391 . S
C1033 H1021 0.950 . S
C1033 C1029 1.393 . S
C1033 C1032 1.391 . S
C1034 H1024 0.950 . S
C1034 C1035 1.386 . S
C1034 C1036 1.391 . S
C1035 C1034 1.386 . S
C1035 C1039 1.393 . S
C1036 H1025 0.950 . S
C1036 C1034 1.391 . S
C1036 C1037 1.400 . S
C1037 C1031 1.491 . S
C1037 C1036 1.400 . S
C1037 C1038 1.398 . S
C1038 H1026 0.950 . S
C1038 C1037 1.398 . S
C1038 C1039 1.391 . S
C1039 H1027 0.950 . S
C1039 C1035 1.393 . S
C1039 C1038 1.391 . S
H1040 C1048 0.950 . S
H1041 C1053 0.950 . S
H1042 C1050 0.950 . S
H1043 C1052 0.950 . S
H1044 C1054 0.950 1_554 S
H1045 C1056 0.950 1_554 S
H1046 C1058 0.950 . S
H1047 C1059 0.950 . S
C1048 H1040 0.950 . S
C1048 C1049 1.386 . S
C1048 C1050 1.391 . S
C1049 C1048 1.386 . S
C1049 C1053 1.393 1_556 S
C1050 H1042 0.950 . S
C1050 C1048 1.391 . S
C1050 C1051 1.400 . S
C1051 C1050 1.400 . S
C1051 C1052 1.398 1_556 S
C1051 C1057 1.491 . S
C1052 H1043 0.950 . S
C1052 C1051 1.398 1_554 S
C1052 C1053 1.391 . S
C1053 H1041 0.950 . S
C1053 C1049 1.393 1_554 S
C1053 C1052 1.391 . S
C1054 H1044 0.950 1_556 S
C1054 C1055 1.386 . S
C1054 C1056 1.391 . S
C1055 C1054 1.386 . S
C1055 C1059 1.393 . S
C1056 H1045 0.950 1_556 S
C1056 C1054 1.391 . S
C1056 C1057 1.400 . S
C1057 C1051 1.491 . S
C1057 C1056 1.400 . S
C1057 C1058 1.398 . S
C1058 H1046 0.950 . S
C1058 C1057 1.398 . S
C1058 C1059 1.391 . S
C1059 H1047 0.950 . S
C1059 C1055 1.393 . S
C1059 C1058 1.391 . S
H1060 C1068 0.950 . S
H1061 C1073 0.950 . S
H1062 C1070 0.950 . S
H1063 C1072 0.950 . S
H1064 C1074 0.950 . S
H1065 C1076 0.950 . S
H1066 C1078 0.950 . S
H1067 C1079 0.950 . S
C1068 H1060 0.950 . S
C1068 C1069 1.386 . S
C1068 C1070 1.391 . S
C1069 C1068 1.386 . S
C1069 C1073 1.393 . S
C1070 H1062 0.950 . S
C1070 C1068 1.391 . S
C1070 C1071 1.400 . S
C1071 C1070 1.400 . S
C1071 C1072 1.398 . S
C1071 C1077 1.491 . S
C1072 H1063 0.950 . S
C1072 C1071 1.398 . S
C1072 C1073 1.391 . S
C1073 H1061 0.950 . S
C1073 C1069 1.393 . S
C1073 C1072 1.391 . S
C1074 H1064 0.950 . S
C1074 C1075 1.386 . S
C1074 C1076 1.391 . S
C1075 C1074 1.386 . S
C1075 C1079 1.393 . S
C1076 H1065 0.950 . S
C1076 C1074 1.391 . S
C1076 C1077 1.400 . S
C1077 C1071 1.491 . S
C1077 C1076 1.400 . S
C1077 C1078 1.398 . S
C1078 H1066 0.950 . S
C1078 C1077 1.398 . S
C1078 C1079 1.391 . S
C1079 H1067 0.950 . S
C1079 C1075 1.393 . S
C1079 C1078 1.391 . S
H1080 C1088 0.950 . S
H1081 C1093 0.950 . S
H1082 C1090 0.950 . S
H1083 C1092 0.950 . S
H1084 C1094 0.950 . S
H1085 C1096 0.950 . S
H1086 C1098 0.950 . S
H1087 C1099 0.950 . S
C1088 H1080 0.950 . S
C1088 C1089 1.386 . S
C1088 C1090 1.391 . S
C1089 C1088 1.386 . S
C1089 C1093 1.393 . S
C1090 H1082 0.950 . S
C1090 C1088 1.391 . S
C1090 C1091 1.400 . S
C1091 C1090 1.400 . S
C1091 C1092 1.398 . S
C1091 C1097 1.491 . S
C1092 H1083 0.950 . S
C1092 C1091 1.398 . S
C1092 C1093 1.391 . S
C1093 H1081 0.950 . S
C1093 C1089 1.393 . S
C1093 C1092 1.391 . S
C1094 H1084 0.950 . S
C1094 C1095 1.386 . S
C1094 C1096 1.391 . S
C1095 C1094 1.386 . S
C1095 C1099 1.393 . S
C1096 H1085 0.950 . S
C1096 C1094 1.391 . S
C1096 C1097 1.400 . S
C1097 C1091 1.491 . S
C1097 C1096 1.400 . S
C1097 C1098 1.398 . S
C1098 H1086 0.950 . S
C1098 C1097 1.398 . S
C1098 C1099 1.391 . S
C1099 H1087 0.950 . S
C1099 C1095 1.393 . S
C1099 C1098 1.391 . S
H1100 C1108 0.950 . S
H1101 C1113 0.950 . S
H1102 C1110 0.950 . S
H1103 C1112 0.950 . S
H1104 C1114 0.950 . S
H1105 C1116 0.950 . S
H1106 C1118 0.950 . S
H1107 C1119 0.950 . S
C1108 H1100 0.950 . S
C1108 C1109 1.386 . S
C1108 C1110 1.391 . S
C1109 C1108 1.386 . S
C1109 C1113 1.393 . S
C1110 H1102 0.950 . S
C1110 C1108 1.391 . S
C1110 C1111 1.400 . S
C1111 C1110 1.400 . S
C1111 C1112 1.398 . S
C1111 C1117 1.491 . S
C1112 H1103 0.950 . S
C1112 C1111 1.398 . S
C1112 C1113 1.391 . S
C1113 H1101 0.950 . S
C1113 C1109 1.393 . S
C1113 C1112 1.391 . S
C1114 H1104 0.950 . S
C1114 C1115 1.386 . S
C1114 C1116 1.391 . S
C1115 C1114 1.386 . S
C1115 C1119 1.393 . S
C1116 H1105 0.950 . S
C1116 C1114 1.391 . S
C1116 C1117 1.400 . S
C1117 C1111 1.491 . S
C1117 C1116 1.400 . S
C1117 C1118 1.398 . S
C1118 H1106 0.950 . S
C1118 C1117 1.398 . S
C1118 C1119 1.391 . S
C1119 H1107 0.950 . S
C1119 C1115 1.393 . S
C1119 C1118 1.391 . S
H1120 C1128 0.950 . S
H1121 C1133 0.950 . S
H1122 C1130 0.950 . S
H1123 C1132 0.950 . S
H1124 C1134 0.950 . S
H1125 C1136 0.950 . S
H1126 C1138 0.950 . S
H1127 C1139 0.950 . S
C1128 H1120 0.950 . S
C1128 C1129 1.386 . S
C1128 C1130 1.391 . S
C1129 C1128 1.386 . S
C1129 C1133 1.393 . S
C1130 H1122 0.950 . S
C1130 C1128 1.391 . S
C1130 C1131 1.400 . S
C1131 C1130 1.400 . S
C1131 C1132 1.398 . S
C1131 C1137 1.491 1_565 S
C1132 H1123 0.950 . S
C1132 C1131 1.398 . S
C1132 C1133 1.391 . S
C1133 H1121 0.950 . S
C1133 C1129 1.393 . S
C1133 C1132 1.391 . S
C1134 H1124 0.950 . S
C1134 C1135 1.386 . S
C1134 C1136 1.391 . S
C1135 C1134 1.386 . S
C1135 C1139 1.393 . S
C1136 H1125 0.950 . S
C1136 C1134 1.391 . S
C1136 C1137 1.400 . S
C1137 C1131 1.491 1_545 S
C1137 C1136 1.400 . S
C1137 C1138 1.398 . S
C1138 H1126 0.950 . S
C1138 C1137 1.398 . S
C1138 C1139 1.391 . S
C1139 H1127 0.950 . S
C1139 C1135 1.393 . S
C1139 C1138 1.391 . S
H1140 C1148 0.950 . S
H1141 C1153 0.950 . S
H1142 C1150 0.950 . S
H1143 C1152 0.950 . S
H1144 C1154 0.950 . S
H1145 C1156 0.950 . S
H1146 C1158 0.950 . S
H1147 C1159 0.950 . S
C1148 H1140 0.950 . S
C1148 C1149 1.386 . S
C1148 C1150 1.391 . S
C1149 C1148 1.386 . S
C1149 C1153 1.393 . S
C1150 H1142 0.950 . S
C1150 C1148 1.391 . S
C1150 C1151 1.400 . S
C1151 C1150 1.400 . S
C1151 C1152 1.398 . S
C1151 C1157 1.491 . S
C1152 H1143 0.950 . S
C1152 C1151 1.398 . S
C1152 C1153 1.391 . S
C1153 H1141 0.950 . S
C1153 C1149 1.393 . S
C1153 C1152 1.391 . S
C1154 H1144 0.950 . S
C1154 C1155 1.386 . S
C1154 C1156 1.391 . S
C1155 C1154 1.386 . S
C1155 C1159 1.393 . S
C1156 H1145 0.950 . S
C1156 C1154 1.391 . S
C1156 C1157 1.400 . S
C1157 C1151 1.491 . S
C1157 C1156 1.400 . S
C1157 C1158 1.398 . S
C1158 H1146 0.950 . S
C1158 C1157 1.398 . S
C1158 C1159 1.391 . S
C1159 H1147 0.950 . S
C1159 C1155 1.393 . S
C1159 C1158 1.391 . S
H1160 C1168 0.950 1_556 S
H1161 C1173 0.950 . S
H1162 C1170 0.950 1_556 S
H1163 C1172 0.950 . S
H1164 C1174 0.950 . S
H1165 C1176 0.950 . S
H1166 C1178 0.950 1_565 S
H1167 C1179 0.950 . S
C1168 H1160 0.950 1_554 S
C1168 C1169 1.386 . S
C1168 C1170 1.391 . S
C1169 C1168 1.386 . S
C1169 C1173 1.393 . S
C1170 H1162 0.950 1_554 S
C1170 C1168 1.391 . S
C1170 C1171 1.400 . S
C1171 C1170 1.400 . S
C1171 C1172 1.398 . S
C1171 C1177 1.507 . S
C1172 H1163 0.950 . S
C1172 C1171 1.398 . S
C1172 C1173 1.391 . S
C1173 H1161 0.950 . S
C1173 C1169 1.393 . S
C1173 C1172 1.391 . S
C1174 H1164 0.950 . S
C1174 C1175 1.386 . S
C1174 C1176 1.391 . S
C1175 C1174 1.386 . S
C1175 C1179 1.393 1_554 S
C1176 H1165 0.950 . S
C1176 C1174 1.391 . S
C1176 C1177 1.390 1_545 S
C1177 C1171 1.507 . S
C1177 C1176 1.390 1_565 S
C1177 C1178 1.392 1_564 S
C1178 H1166 0.950 1_545 S
C1178 C1177 1.392 1_546 S
C1178 C1179 1.391 . S
C1179 H1167 0.950 . S
C1179 C1175 1.393 1_556 S
C1179 C1178 1.391 . S
H1180 C1188 0.950 . S
H1181 C1193 0.950 . S
H1182 C1190 0.950 . S
H1183 C1192 0.950 . S
H1184 C1194 0.950 . S
H1185 C1196 0.950 . S
H1186 C1198 0.950 . S
H1187 C1199 0.950 . S
C1188 H1180 0.950 . S
C1188 C1189 1.386 . S
C1188 C1190 1.391 . S
C1189 C1188 1.386 . S
C1189 C1193 1.393 . S
C1190 H1182 0.950 . S
C1190 C1188 1.391 . S
C1190 C1191 1.400 . S
C1191 C1190 1.400 . S
C1191 C1192 1.398 . S
C1191 C1197 1.491 . S
C1192 H1183 0.950 . S
C1192 C1191 1.398 . S
C1192 C1193 1.391 . S
C1193 H1181 0.950 . S
C1193 C1189 1.393 . S
C1193 C1192 1.391 . S
C1194 H1184 0.950 . S
C1194 C1195 1.386 . S
C1194 C1196 1.391 . S
C1195 C1194 1.386 . S
C1195 C1199 1.393 . S
C1196 H1185 0.950 . S
C1196 C1194 1.391 . S
C1196 C1197 1.400 . S
C1197 C1191 1.491 . S
C1197 C1196 1.400 . S
C1197 C1198 1.398 . S
C1198 H1186 0.950 . S
C1198 C1197 1.398 . S
C1198 C1199 1.391 . S
C1199 H1187 0.950 . S
C1199 C1195 1.393 . S
C1199 C1198 1.391 . S
H1200 C1208 0.950 . S
H1201 C1213 0.950 . S
H1202 C1210 0.943 1_545 S
H1203 C1212 0.950 1_545 S
H1204 C1214 0.950 . S
H1205 C1216 0.950 . S
H1206 C1218 0.950 . S
H1207 C1219 0.950 . S
C1208 H1200 0.950 . S
C1208 C1209 1.386 . S
C1208 C1210 1.391 . S
C1209 C1208 1.386 . S
C1209 C1213 1.393 . S
C1210 H1202 0.943 1_565 S
C1210 C1208 1.391 . S
C1210 C1211 1.400 1_565 S
C1211 C1210 1.400 1_545 S
C1211 C1212 1.398 1_545 S
C1211 C1217 1.491 . S
C1212 H1203 0.950 1_565 S
C1212 C1211 1.398 1_565 S
C1212 C1213 1.391 . S
C1213 H1201 0.950 . S
C1213 C1209 1.393 . S
C1213 C1212 1.391 . S
C1214 H1204 0.950 . S
C1214 C1215 1.386 . S
C1214 C1216 1.391 . S
C1215 C1214 1.386 . S
C1215 C1219 1.393 . S
C1216 H1205 0.950 . S
C1216 C1214 1.391 . S
C1216 C1217 1.400 . S
C1217 C1211 1.491 . S
C1217 C1216 1.400 . S
C1217 C1218 1.398 . S
C1218 H1206 0.950 . S
C1218 C1217 1.398 . S
C1218 C1219 1.391 . S
C1219 H1207 0.950 . S
C1219 C1215 1.393 . S
C1219 C1218 1.391 . S
H1220 C1228 0.950 . S
H1221 C1233 0.950 . S
H1222 C1230 0.950 . S
H1223 C1232 0.950 . S
H1224 C1234 0.950 . S
H1225 C1236 0.950 . S
H1226 C1238 0.950 . S
H1227 C1239 0.950 . S
C1228 H1220 0.950 . S
C1228 C1229 1.386 . S
C1228 C1230 1.391 . S
C1229 C1228 1.386 . S
C1229 C1233 1.393 . S
C1230 H1222 0.950 . S
C1230 C1228 1.391 . S
C1230 C1231 1.400 . S
C1231 C1230 1.400 . S
C1231 C1232 1.398 . S
C1231 C1237 1.491 . S
C1232 H1223 0.950 . S
C1232 C1231 1.398 . S
C1232 C1233 1.391 . S
C1233 H1221 0.950 . S
C1233 C1229 1.393 . S
C1233 C1232 1.391 . S
C1234 H1224 0.950 . S
C1234 C1235 1.386 . S
C1234 C1236 1.391 . S
C1235 C1234 1.386 . S
C1235 C1239 1.393 . S
C1236 H1225 0.950 . S
C1236 C1234 1.391 . S
C1236 C1237 1.400 . S
C1237 C1231 1.491 . S
C1237 C1236 1.400 . S
C1237 C1238 1.398 . S
C1238 H1226 0.950 . S
C1238 C1237 1.398 . S
C1238 C1239 1.391 . S
C1239 H1227 0.950 . S
C1239 C1235 1.393 . S
C1239 C1238 1.391 . S
H1240 C1248 0.950 . S
H1241 C1253 0.950 . S
H1242 C1250 0.950 . S
H1243 C1252 0.950 1_556 S
H1244 C1254 0.950 . S
H1245 C1256 0.950 . S
H1246 C1258 0.950 . S
H1247 C1259 0.950 . S
C1248 H1240 0.950 . S
C1248 C1249 1.386 . S
C1248 C1250 1.391 . S
C1249 C1248 1.386 . S
C1249 C1253 1.393 1_554 S
C1250 H1242 0.950 . S
C1250 C1248 1.391 . S
C1250 C1251 1.400 . S
C1251 C1250 1.400 . S
C1251 C1252 1.398 . S
C1251 C1257 1.491 1_545 S
C1252 H1243 0.950 1_554 S
C1252 C1251 1.398 . S
C1252 C1253 1.391 1_554 S
C1253 H1241 0.950 . S
C1253 C1249 1.393 1_556 S
C1253 C1252 1.391 1_556 S
C1254 H1244 0.950 . S
C1254 C1255 1.386 . S
C1254 C1256 1.391 . S
C1255 C1254 1.386 . S
C1255 C1259 1.393 . S
C1256 H1245 0.950 . S
C1256 C1254 1.391 . S
C1256 C1257 1.400 . S
C1257 C1251 1.491 1_565 S
C1257 C1256 1.400 . S
C1257 C1258 1.398 . S
C1258 H1246 0.950 . S
C1258 C1257 1.398 . S
C1258 C1259 1.391 . S
C1259 H1247 0.950 . S
C1259 C1255 1.393 . S
C1259 C1258 1.391 . S
H1260 C1268 0.950 . S
H1261 C1273 0.950 . S
H1262 C1270 0.950 . S
H1263 C1272 0.950 . S
H1264 C1274 0.950 . S
H1265 C1276 0.950 . S
H1266 C1278 0.950 . S
H1267 C1279 0.950 . S
C1268 H1260 0.950 . S
C1268 C1269 1.386 . S
C1268 C1270 1.391 . S
C1269 C1268 1.386 . S
C1269 C1273 1.393 . S
C1270 H1262 0.950 . S
C1270 C1268 1.391 . S
C1270 C1271 1.400 . S
C1271 C1270 1.400 . S
C1271 C1272 1.398 . S
C1271 C1277 1.491 . S
C1272 H1263 0.950 . S
C1272 C1271 1.398 . S
C1272 C1273 1.391 . S
C1273 H1261 0.950 . S
C1273 C1269 1.393 . S
C1273 C1272 1.391 . S
C1274 H1264 0.950 . S
C1274 C1275 1.386 . S
C1274 C1276 1.391 . S
C1275 C1274 1.386 . S
C1275 C1279 1.393 . S
C1276 H1265 0.950 . S
C1276 C1274 1.391 . S
C1276 C1277 1.400 . S
C1277 C1271 1.491 . S
C1277 C1276 1.400 . S
C1277 C1278 1.398 . S
C1278 H1266 0.950 . S
C1278 C1277 1.398 . S
C1278 C1279 1.391 . S
C1279 H1267 0.950 . S
C1279 C1275 1.393 . S
C1279 C1278 1.391 . S
C329 C8 1.728 . S
C335 C19 1.728 . S
C349 C39 1.708 . S
C355 C28 1.708 . S
C369 C48 1.695 . S
C375 C59 1.695 . S
C389 C68 1.737 . S
C395 C79 1.737 . S
C409 C88 1.710 . S
C415 C99 1.710 . S
C429 C108 1.726 . S
C435 C119 1.726 . S
C449 C139 1.711 . S
C455 C128 1.711 . S
C469 C159 1.766 . S
C475 C148 1.766 . S
C489 C179 1.765 . S
C495 C168 1.765 . S
C509 C199 1.716 . S
C515 C188 1.716 . S
C529 C208 1.704 . S
C535 C219 1.704 . S
C549 C239 1.705 . S
C555 C228 1.705 . S
C569 C259 1.727 . S
C575 C248 1.727 . S
C589 C279 1.698 . S
C595 C268 1.698 . S
C609 C288 1.737 . S
C615 C299 1.737 . S
C629 C319 1.755 . S
C635 C308 1.755 . S
C649 C1 1.560 . S
C655 C226 1.474 . S
C669 C36 1.789 . S
C675 C309 1.905 . S
C689 C41 1.631 . S
C695 C189 1.568 . S
C709 C61 1.956 . S
C715 C269 1.993 . S
C729 C81 1.554 . S
C735 C266 1.467 . S
C749 C229 1.911 . S
C755 C116 1.771 . S
C769 C136 1.424 . S
C775 C306 1.376 . S
C789 C156 1.678 . S
C795 C186 1.751 . S
C809 C76 1.723 . S
C815 C169 1.760 . S
C829 C21 1.898 . S
C835 C209 1.886 . S
C849 C249 1.786 . S
C855 C101 1.779 . S
C869 C141 1.629 . S
C875 C286 1.581 . S
C889 C166 1.507 1_554 S
C895 C96 1.476 . S
C909 C121 1.590 . S
C915 C206 1.509 . S
C929 C56 1.638 . S
C935 C289 1.697 . S
C949 C16 1.653 1_556 S
C955 C246 1.587 . S
C969 C9 1.306 . S
C975 C89 1.312 . S
C989 C26 1.675 . S
C995 C106 1.677 . S
C1009 C49 1.389 . S
C1015 C126 1.355 . S
C1029 C69 1.675 . S
C1035 C146 1.629 . S
C1049 C241 1.643 . S
C1055 C161 1.644 . S
C1069 C261 1.740 . S
C1075 C196 1.694 . S
C1089 C201 1.698 . S
C1095 C296 1.649 . S
C1109 C301 1.700 . S
C1115 C221 1.696 . S
C1129 C29 1.689 . S
C1135 C149 1.702 . S
C1149 C86 1.388 . S
C1155 C46 1.382 . S
C1169 C109 1.759 . S
C1175 C66 1.715 1_554 S
C1189 C6 1.326 . S
C1195 C129 1.379 . S
C1209 C316 1.336 . S
C1215 C181 1.378 . S
C1229 C256 1.468 . S
C1235 C216 1.465 . S
C1249 C276 1.402 1_554 S
C1255 C236 1.403 . S
C1269 C281 1.436 . S
C1275 C176 1.405 . S
