# Generated by pormake.
# Topology ukb, (4)-cn, num edge types: 1
# Building blocks:
#     Node 0, Type 0, BuildingBlock: UXUYUI_clean_sbu_0, # of connection points: 4
#     Node 1, Type 0, BuildingBlock: UXUYUI_clean_sbu_0, # of connection points: 4
#     Node 2, Type 0, BuildingBlock: UXUYUI_clean_sbu_0, # of connection points: 4
#     Node 3, Type 0, BuildingBlock: UXUYUI_clean_sbu_0, # of connection points: 4
#     Node 4, Type 0, BuildingBlock: UXUYUI_clean_sbu_0, # of connection points: 4
#     Node 5, Type 0, BuildingBlock: UXUYUI_clean_sbu_0, # of connection points: 4
#     Node 6, Type 0, BuildingBlock: UXUYUI_clean_sbu_0, # of connection points: 4
#     Node 7, Type 0, BuildingBlock: UXUYUI_clean_sbu_0, # of connection points: 4
#     Node 8, Type 0, BuildingBlock: UXUYUI_clean_sbu_0, # of connection points: 4
#     Node 9, Type 0, BuildingBlock: UXUYUI_clean_sbu_0, # of connection points: 4
#     Node 10, Type 0, BuildingBlock: UXUYUI_clean_sbu_0, # of connection points: 4
#     Node 11, Type 0, BuildingBlock: UXUYUI_clean_sbu_0, # of connection points: 4
#     Node 12, Type 0, BuildingBlock: UXUYUI_clean_sbu_0, # of connection points: 4
#     Node 13, Type 0, BuildingBlock: UXUYUI_clean_sbu_0, # of connection points: 4
#     Node 14, Type 0, BuildingBlock: UXUYUI_clean_sbu_0, # of connection points: 4
#     Node 15, Type 0, BuildingBlock: UXUYUI_clean_sbu_0, # of connection points: 4
#     Edge 16, Type (0, 0), BuildingBlock: ZUJKAS_clean_linker_0, # of connection points: 2
#     Edge 17, Type (0, 0), BuildingBlock: ZUJKAS_clean_linker_0, # of connection points: 2
#     Edge 18, Type (0, 0), BuildingBlock: ZUJKAS_clean_linker_0, # of connection points: 2
#     Edge 19, Type (0, 0), BuildingBlock: ZUJKAS_clean_linker_0, # of connection points: 2
#     Edge 20, Type (0, 0), BuildingBlock: ZUJKAS_clean_linker_0, # of connection points: 2
#     Edge 21, Type (0, 0), BuildingBlock: ZUJKAS_clean_linker_0, # of connection points: 2
#     Edge 22, Type (0, 0), BuildingBlock: ZUJKAS_clean_linker_0, # of connection points: 2
#     Edge 23, Type (0, 0), BuildingBlock: ZUJKAS_clean_linker_0, # of connection points: 2
#     Edge 24, Type (0, 0), BuildingBlock: ZUJKAS_clean_linker_0, # of connection points: 2
#     Edge 25, Type (0, 0), BuildingBlock: ZUJKAS_clean_linker_0, # of connection points: 2
#     Edge 26, Type (0, 0), BuildingBlock: ZUJKAS_clean_linker_0, # of connection points: 2
#     Edge 27, Type (0, 0), BuildingBlock: ZUJKAS_clean_linker_0, # of connection points: 2
#     Edge 28, Type (0, 0), BuildingBlock: ZUJKAS_clean_linker_0, # of connection points: 2
#     Edge 29, Type (0, 0), BuildingBlock: ZUJKAS_clean_linker_0, # of connection points: 2
#     Edge 30, Type (0, 0), BuildingBlock: ZUJKAS_clean_linker_0, # of connection points: 2
#     Edge 31, Type (0, 0), BuildingBlock: ZUJKAS_clean_linker_0, # of connection points: 2
#     Edge 32, Type (0, 0), BuildingBlock: ZUJKAS_clean_linker_0, # of connection points: 2
#     Edge 33, Type (0, 0), BuildingBlock: ZUJKAS_clean_linker_0, # of connection points: 2
#     Edge 34, Type (0, 0), BuildingBlock: ZUJKAS_clean_linker_0, # of connection points: 2
#     Edge 35, Type (0, 0), BuildingBlock: ZUJKAS_clean_linker_0, # of connection points: 2
#     Edge 36, Type (0, 0), BuildingBlock: ZUJKAS_clean_linker_0, # of connection points: 2
#     Edge 37, Type (0, 0), BuildingBlock: ZUJKAS_clean_linker_0, # of connection points: 2
#     Edge 38, Type (0, 0), BuildingBlock: ZUJKAS_clean_linker_0, # of connection points: 2
#     Edge 39, Type (0, 0), BuildingBlock: ZUJKAS_clean_linker_0, # of connection points: 2
#     Edge 40, Type (0, 0), BuildingBlock: ZUJKAS_clean_linker_0, # of connection points: 2
#     Edge 41, Type (0, 0), BuildingBlock: ZUJKAS_clean_linker_0, # of connection points: 2
#     Edge 42, Type (0, 0), BuildingBlock: ZUJKAS_clean_linker_0, # of connection points: 2
#     Edge 43, Type (0, 0), BuildingBlock: ZUJKAS_clean_linker_0, # of connection points: 2
#     Edge 44, Type (0, 0), BuildingBlock: ZUJKAS_clean_linker_0, # of connection points: 2
#     Edge 45, Type (0, 0), BuildingBlock: ZUJKAS_clean_linker_0, # of connection points: 2
#     Edge 46, Type (0, 0), BuildingBlock: ZUJKAS_clean_linker_0, # of connection points: 2
#     Edge 47, Type (0, 0), BuildingBlock: ZUJKAS_clean_linker_0, # of connection points: 2
# Relax obj value: 0.234
# Max RMSD: 0.198
# Mean RMSD: 0.198
data_MOF--net-ukb--node1-UXUYUI_clean_sbu_0--edge1-ZUJKAS_clean_linker_0
_symmetry_space_group_name_H-M    P1
_symmetry_Int_Tables_number       1
_symmetry_cell_setting            triclinic
loop_
_symmetry_equiv_pos_as_xyz
'x, y, z'
_cell_length_a     73.002295
_cell_length_b     73.001823
_cell_length_c     70.06396
_cell_angle_alpha  90.000747
_cell_angle_beta   89.990666
_cell_angle_gamma 90.000396
loop_
_atom_site_label
_atom_site_type_symbol
_atom_site_fract_x
_atom_site_fract_y
_atom_site_fract_z
_atom_type_partial_charge
Li0 Li 0.50785 0.22178 0.16812 0.0
Li1 Li 0.51468 0.2363 0.19867 0.0
Li2 Li 0.52237 0.20322 0.19217 0.0
Li3 Li 0.49046 0.2127 0.19738 0.0
C4 C 0.54228 0.23225 0.16505 0.0
N5 N 0.56165 0.24562 0.13416 0.0
C6 C 0.54539 0.25106 0.1632 0.0
C7 C 0.54921 0.22022 0.15131 0.0
C8 C 0.55518 0.25755 0.14746 0.0
C9 C 0.55891 0.22726 0.13576 0.0
C10 C 0.48028 0.25149 0.18893 0.0
C11 C 0.46063 0.26707 0.21136 0.0
N12 N 0.45812 0.2808 0.1985 0.0
C13 C 0.47732 0.26565 0.17585 0.0
C14 C 0.47171 0.25211 0.20675 0.0
C15 C 0.46615 0.28039 0.18099 0.0
C16 C 0.50293 0.21196 0.12943 0.0
N17 N 0.50601 0.22624 0.14144 0.0
C18 C 0.5071 0.24713 0.11521 0.0
C19 C 0.50796 0.24361 0.13477 0.0
C20 C 0.50412 0.23261 0.1024 0.0
C21 C 0.50199 0.21483 0.10976 0.0
H22 H 0.50127 0.19831 0.13509 0.0
H23 H 0.51032 0.25473 0.14465 0.0
C24 C 0.53525 0.25498 0.22587 0.0
N25 N 0.52341 0.25769 0.21118 0.0
C26 C 0.54326 0.26987 0.23512 0.0
C27 C 0.52682 0.29014 0.21389 0.0
C28 C 0.51907 0.27482 0.20508 0.0
C29 C 0.53921 0.28775 0.22904 0.0
H30 H 0.53875 0.24118 0.23015 0.0
H31 H 0.51002 0.27663 0.19305 0.0
C32 C 0.50229 0.17859 0.17332 0.0
N33 N 0.50649 0.14143 0.16715 0.0
C34 C 0.49048 0.16609 0.1821 0.0
C35 C 0.5161 0.17218 0.16122 0.0
C36 C 0.49285 0.14736 0.17884 0.0
C37 C 0.51806 0.15334 0.15834 0.0
C38 C 0.50787 0.21341 0.2344 0.0
C39 C 0.51182 0.19735 0.24446 0.0
C40 C 0.50078 0.22853 0.24416 0.0
C41 C 0.50815 0.19653 0.26401 0.0
C42 C 0.49733 0.22719 0.26372 0.0
N43 N 0.50102 0.21134 0.27315 0.0
C44 C 0.5578 0.1881 0.19331 0.0
C45 C 0.53468 0.16839 0.20525 0.0
C46 C 0.57126 0.17509 0.19735 0.0
N47 N 0.53993 0.18455 0.19729 0.0
C48 C 0.54767 0.15493 0.2094 0.0
C49 C 0.56626 0.15826 0.20557 0.0
H50 H 0.56163 0.20113 0.18717 0.0
H51 H 0.52042 0.16602 0.20857 0.0
C52 C 0.45187 0.21077 0.19789 0.0
N53 N 0.46731 0.20499 0.20691 0.0
C54 C 0.43472 0.20429 0.20362 0.0
C55 C 0.44972 0.1861 0.22784 0.0
C56 C 0.46654 0.19292 0.22164 0.0
C57 C 0.43352 0.19163 0.21868 0.0
H58 H 0.45291 0.22016 0.186 0.0
H59 H 0.47901 0.18799 0.22809 0.0
O60 O 0.53242 0.22566 0.18017 0.0
O61 O 0.49121 0.23698 0.18409 0.0
O62 O 0.50026 0.19698 0.17647 0.0
O63 O 0.51152 0.21445 0.21524 0.0
H64 H 0.54016 0.26056 0.17371 0.0
H65 H 0.54705 0.20563 0.15259 0.0
H66 H 0.55758 0.27209 0.14579 0.0
H67 H 0.56424 0.21811 0.12495 0.0
H68 H 0.45395 0.26772 0.22512 0.0
H69 H 0.48365 0.26532 0.1619 0.0
H70 H 0.47338 0.24107 0.21683 0.0
H71 H 0.46385 0.29149 0.17105 0.0
H72 H 0.50858 0.26108 0.1102 0.0
H73 H 0.49987 0.2032 0.10043 0.0
H74 H 0.553 0.26738 0.24648 0.0
H75 H 0.5233 0.30369 0.20877 0.0
H76 H 0.4796 0.17078 0.19135 0.0
H77 H 0.52533 0.18163 0.15426 0.0
H78 H 0.48385 0.13754 0.1856 0.0
H79 H 0.52878 0.1482 0.14913 0.0
H80 H 0.51752 0.18558 0.23724 0.0
H81 H 0.49822 0.24129 0.23681 0.0
H82 H 0.511 0.18413 0.27192 0.0
H83 H 0.49181 0.23879 0.27141 0.0
H84 H 0.58543 0.17815 0.19406 0.0
H85 H 0.54327 0.14224 0.21597 0.0
H86 H 0.42257 0.20895 0.1962 0.0
H87 H 0.4495 0.17601 0.23917 0.0
Li88 Li 0.29239 0.51964 0.69011 0.0
Li89 Li 0.28064 0.48839 0.6936 0.0
Li90 Li 0.27336 0.50664 0.66556 0.0
Li91 Li 0.26011 0.5137 0.69675 0.0
C92 C 0.31613 0.49915 0.67228 0.0
N93 N 0.35378 0.50255 0.67031 0.0
C94 C 0.32736 0.48777 0.68325 0.0
C95 C 0.32405 0.51223 0.66026 0.0
C96 C 0.34637 0.48969 0.68204 0.0
C97 C 0.34311 0.51375 0.65949 0.0
C98 C 0.27587 0.51406 0.7302 0.0
C99 C 0.25712 0.51077 0.75834 0.0
N100 N 0.26261 0.52762 0.76433 0.0
C101 C 0.28137 0.53132 0.73666 0.0
C102 C 0.2637 0.50365 0.74115 0.0
C103 C 0.2745 0.53793 0.75395 0.0
C104 C 0.31179 0.55309 0.68901 0.0
N105 N 0.31216 0.53569 0.69585 0.0
C106 C 0.33991 0.54175 0.71281 0.0
C107 C 0.32581 0.52984 0.70756 0.0
C108 C 0.33981 0.5599 0.70611 0.0
C109 C 0.32555 0.56547 0.69394 0.0
H110 H 0.30055 0.55751 0.68012 0.0
H111 H 0.32557 0.516 0.71305 0.0
C112 C 0.29094 0.4518 0.6881 0.0
N113 N 0.28717 0.46448 0.70173 0.0
C114 C 0.2981 0.43477 0.69318 0.0
C115 C 0.29696 0.44404 0.72629 0.0
C116 C 0.28975 0.46088 0.72056 0.0
C117 C 0.30164 0.43089 0.71247 0.0
H118 H 0.28905 0.45519 0.6732 0.0
H119 H 0.28701 0.47137 0.73106 0.0
C120 C 0.26425 0.54125 0.66345 0.0
N121 N 0.25038 0.56078 0.63292 0.0
C122 C 0.24552 0.54507 0.6624 0.0
C123 C 0.27594 0.54741 0.649 0.0
C124 C 0.23878 0.55498 0.64685 0.0
C125 C 0.26866 0.55723 0.63367 0.0
C126 C 0.25045 0.47396 0.68031 0.0
C127 C 0.25128 0.4643 0.66311 0.0
C128 C 0.24417 0.46519 0.6968 0.0
C129 C 0.24592 0.44593 0.66273 0.0
C130 C 0.23897 0.4468 0.69583 0.0
N131 N 0.23995 0.43763 0.67896 0.0
C132 C 0.28322 0.50287 0.62684 0.0
C133 C 0.25161 0.50826 0.63216 0.0
C134 C 0.28049 0.50279 0.60714 0.0
N135 N 0.26891 0.5058 0.63885 0.0
C136 C 0.24826 0.50837 0.61254 0.0
C137 C 0.26285 0.50572 0.59973 0.0
H138 H 0.29676 0.50058 0.63255 0.0
H139 H 0.24046 0.51033 0.64209 0.0
C140 C 0.2411 0.54171 0.71465 0.0
N141 N 0.23965 0.52377 0.70975 0.0
C142 C 0.22691 0.55041 0.72435 0.0
C143 C 0.20985 0.52202 0.72373 0.0
C144 C 0.22444 0.51384 0.71401 0.0
C145 C 0.211 0.54056 0.72905 0.0
H146 H 0.25333 0.54928 0.71091 0.0
H147 H 0.22365 0.4996 0.70987 0.0
O148 O 0.29747 0.49769 0.67348 0.0
O149 O 0.28206 0.50754 0.71307 0.0
O150 O 0.27108 0.53127 0.67837 0.0
O151 O 0.25588 0.49187 0.68105 0.0
H152 H 0.32151 0.47767 0.69275 0.0
H153 H 0.31558 0.52129 0.65183 0.0
H154 H 0.35522 0.48101 0.6905 0.0
H155 H 0.34942 0.52389 0.65035 0.0
H156 H 0.2476 0.50292 0.76689 0.0
H157 H 0.29067 0.53962 0.72832 0.0
H158 H 0.25918 0.49033 0.73628 0.0
H159 H 0.27857 0.55131 0.75908 0.0
H160 H 0.35068 0.53682 0.72211 0.0
H161 H 0.32468 0.57942 0.68877 0.0
H162 H 0.30139 0.42499 0.68207 0.0
H163 H 0.29976 0.44176 0.74128 0.0
H164 H 0.23623 0.54027 0.67333 0.0
H165 H 0.29044 0.54441 0.64948 0.0
H166 H 0.2243 0.55798 0.64582 0.0
H167 H 0.27753 0.56197 0.62232 0.0
H168 H 0.25616 0.47086 0.65023 0.0
H169 H 0.24358 0.47243 0.71025 0.0
H170 H 0.24656 0.43826 0.64954 0.0
H171 H 0.23421 0.4398 0.7085 0.0
H172 H 0.29207 0.5003 0.59783 0.0
H173 H 0.23446 0.5108 0.60748 0.0
H174 H 0.22826 0.5648 0.7278 0.0
H175 H 0.19787 0.5139 0.72716 0.0
Li176 Li 0.97453 0.29226 0.19126 0.0
Li177 Li 0.0065 0.28303 0.1961 0.0
Li178 Li 0.98968 0.27369 0.16626 0.0
Li179 Li 0.98347 0.2593 0.19713 0.0
C180 C 0.99451 0.31536 0.16662 0.0
N181 N 0.99094 0.34898 0.14885 0.0
C182 C 0.00508 0.33026 0.17261 0.0
C183 C 0.98238 0.3175 0.15136 0.0
C184 C 0.00301 0.34716 0.16352 0.0
C185 C 0.98071 0.33462 0.14262 0.0
C186 C 0.99229 0.28636 0.23156 0.0
C187 C 0.01073 0.28089 0.25955 0.0
N188 N 0.00625 0.2978 0.26623 0.0
C189 C 0.98769 0.3036 0.23881 0.0
C190 C 0.00373 0.27483 0.2421 0.0
C191 C 0.99495 0.30916 0.25633 0.0
C192 C 0.93896 0.30491 0.19888 0.0
N193 N 0.95656 0.31052 0.1965 0.0
C194 C 0.94813 0.34151 0.20316 0.0
C195 C 0.96136 0.32839 0.19865 0.0
C196 C 0.92979 0.33615 0.20563 0.0
C197 C 0.92527 0.31756 0.20335 0.0
H198 H 0.93556 0.29056 0.19742 0.0
H199 H 0.97553 0.33243 0.19739 0.0
C200 C 0.04478 0.28153 0.20391 0.0
N201 N 0.02917 0.29146 0.20614 0.0
C202 C 0.06142 0.28818 0.21097 0.0
C203 C 0.04549 0.31501 0.22254 0.0
C204 C 0.02926 0.30794 0.21514 0.0
C205 C 0.06187 0.30512 0.22046 0.0
H206 H 0.04436 0.26856 0.19647 0.0
H207 H 0.01673 0.31573 0.21634 0.0
C208 C 0.95156 0.2669 0.16595 0.0
N209 N 0.9232 0.26152 0.14039 0.0
C210 C 0.94473 0.24929 0.16266 0.0
C211 C 0.94366 0.28181 0.15652 0.0
C212 C 0.93049 0.24683 0.14959 0.0
C213 C 0.92941 0.27881 0.14359 0.0
C214 C 0.0132 0.24162 0.18414 0.0
C215 C 0.01216 0.22955 0.1687 0.0
C216 C 0.02076 0.23566 0.20138 0.0
C217 C 0.01838 0.21157 0.17089 0.0
C218 C 0.02682 0.21758 0.20301 0.0
N219 N 0.02549 0.206 0.18787 0.0
C220 C 0.00151 0.28113 0.12851 0.0
C221 C 0.98289 0.25475 0.13176 0.0
C222 C 0.00261 0.27852 0.1088 0.0
N223 N 0.99149 0.2695 0.13948 0.0
C224 C 0.98368 0.25156 0.11214 0.0
C225 C 0.99352 0.26362 0.10033 0.0
H226 H 0.0086 0.29252 0.13505 0.0
H227 H 0.9756 0.2453 0.14086 0.0
C228 C 0.97055 0.23767 0.22766 0.0
N229 N 0.9755 0.23723 0.20897 0.0
C230 C 0.96277 0.22225 0.23625 0.0
C231 C 0.96571 0.20611 0.20628 0.0
C232 C 0.97343 0.22182 0.1983 0.0
C233 C 0.95994 0.2063 0.22542 0.0
H234 H 0.97202 0.25019 0.23574 0.0
H235 H 0.97722 0.22191 0.18339 0.0
O236 O 0.99631 0.29872 0.17546 0.0
O237 O 0.98548 0.28077 0.21432 0.0
O238 O 0.96552 0.26953 0.17872 0.0
O239 O 0.00702 0.25924 0.18232 0.0
H240 H 0.01474 0.32884 0.1842 0.0
H241 H 0.97455 0.30603 0.1461 0.0
H242 H 0.01101 0.35883 0.1681 0.0
H243 H 0.97134 0.33645 0.13081 0.0
H244 H 0.01969 0.27214 0.2678 0.0
H245 H 0.97874 0.31265 0.23095 0.0
H246 H 0.00716 0.26134 0.23689 0.0
H247 H 0.99162 0.32252 0.26204 0.0
H248 H 0.9523 0.35561 0.20519 0.0
H249 H 0.91131 0.31281 0.20497 0.0
H250 H 0.07377 0.28015 0.20909 0.0
H251 H 0.04529 0.3283 0.2294 0.0
H252 H 0.95046 0.2376 0.16998 0.0
H253 H 0.94826 0.2956 0.15935 0.0
H254 H 0.9252 0.23325 0.1468 0.0
H255 H 0.92323 0.29024 0.13617 0.0
H256 H 0.00656 0.23397 0.1552 0.0
H257 H 0.02196 0.2449 0.21335 0.0
H258 H 0.01755 0.20205 0.15909 0.0
H259 H 0.0326 0.21276 0.21631 0.0
H260 H 0.01029 0.28822 0.10027 0.0
H261 H 0.97686 0.23962 0.10635 0.0
H262 H 0.95827 0.22311 0.25095 0.0
H263 H 0.96393 0.19406 0.19746 0.0
Li264 Li 0.20511 0.97544 0.69219 0.0
Li265 Li 0.21485 0.00725 0.69755 0.0
Li266 Li 0.22392 0.98983 0.66809 0.0
Li267 Li 0.23828 0.9829 0.69877 0.0
C268 C 0.18082 0.99585 0.67283 0.0
N269 N 0.14379 0.99213 0.66556 0.0
C270 C 0.1682 0.00747 0.68169 0.0
C271 C 0.17461 0.98251 0.66005 0.0
C272 C 0.14954 0.00534 0.67787 0.0
C273 C 0.15584 0.98079 0.65663 0.0
C274 C 0.2151 0.99026 0.73435 0.0
C275 C 0.22822 0.00229 0.76337 0.0
N276 N 0.21244 0.9983 0.77281 0.0
C277 C 0.19911 0.98604 0.74442 0.0
C278 C 0.22986 0.99825 0.74396 0.0
C279 C 0.19799 0.99032 0.76382 0.0
C280 C 0.18973 0.94015 0.69373 0.0
N281 N 0.18623 0.95811 0.69724 0.0
C282 C 0.15649 0.95079 0.7093 0.0
C283 C 0.17003 0.96362 0.70492 0.0
C284 C 0.1598 0.9321 0.70604 0.0
C285 C 0.17664 0.92684 0.69804 0.0
H286 H 0.20281 0.93611 0.68785 0.0
H287 H 0.16774 0.97794 0.70797 0.0
C288 C 0.21383 0.04596 0.69925 0.0
N289 N 0.20732 0.03034 0.70736 0.0
C290 C 0.20751 0.06304 0.7054 0.0
C291 C 0.18794 0.04759 0.72811 0.0
C292 C 0.19462 0.03087 0.72152 0.0
C293 C 0.19426 0.06398 0.71992 0.0
H294 H 0.2237 0.04514 0.68777 0.0
H295 H 0.1891 0.01829 0.72719 0.0
C296 C 0.23357 0.95465 0.66541 0.0
N297 N 0.24583 0.93362 0.6352 0.0
C298 C 0.25214 0.95027 0.6638 0.0
C299 C 0.22119 0.94808 0.65182 0.0
C300 C 0.25808 0.93968 0.64839 0.0
C301 C 0.22767 0.93755 0.6366 0.0
C302 C 0.25431 0.01656 0.68816 0.0
C303 C 0.26824 0.01814 0.67457 0.0
C304 C 0.25592 0.02575 0.70556 0.0
C305 C 0.28377 0.02855 0.67882 0.0
C306 C 0.27165 0.03605 0.70928 0.0
N307 N 0.28515 0.0372 0.69595 0.0
C308 C 0.21454 0.9966 0.62957 0.0
C309 C 0.24537 0.98762 0.63452 0.0
C310 C 0.21735 0.99737 0.60988 0.0
N311 N 0.22842 0.9916 0.6414 0.0
C312 C 0.24877 0.9881 0.61493 0.0
C313 C 0.23462 0.99295 0.60232 0.0
H314 H 0.20125 -0.0001 0.6354 0.0
H315 H 0.25623 0.98391 0.64427 0.0
C316 C 0.25753 0.96401 0.72723 0.0
N317 N 0.25978 0.97427 0.71121 0.0
C318 C 0.27267 0.95632 0.73637 0.0
C319 C 0.29218 0.96971 0.71224 0.0
C320 C 0.27667 0.97724 0.70363 0.0
C321 C 0.29027 0.95898 0.72876 0.0
H322 H 0.24391 0.96147 0.73267 0.0
H323 H 0.27807 0.98496 0.69058 0.0
O324 O 0.19915 0.99764 0.67651 0.0
O325 O 0.21642 0.9861 0.71534 0.0
O326 O 0.22753 0.96525 0.68024 0.0
O327 O 0.23902 0.00638 0.6842 0.0
H328 H 0.17274 0.018 0.69143 0.0
H329 H 0.18418 0.97354 0.65292 0.0
H330 H 0.13962 0.01418 0.68471 0.0
H331 H 0.15085 0.97045 0.64688 0.0
H332 H 0.23953 0.0085 0.77095 0.0
H333 H 0.18764 0.97966 0.73731 0.0
H334 H 0.24256 0.00105 0.7366 0.0
H335 H 0.18564 0.98726 0.77174 0.0
H336 H 0.14379 0.95538 0.71572 0.0
H337 H 0.17969 0.91257 0.69521 0.0
H338 H 0.21275 0.07534 0.69871 0.0
H339 H 0.17737 0.04763 0.73896 0.0
H340 H 0.26189 0.95512 0.67424 0.0
H341 H 0.20675 0.95112 0.65297 0.0
H342 H 0.27244 0.9363 0.6469 0.0
H343 H 0.21826 0.93249 0.62591 0.0
H344 H 0.26714 0.01131 0.66092 0.0
H345 H 0.24506 0.02517 0.716 0.0
H346 H 0.29472 0.02977 0.66849 0.0
H347 H 0.27309 0.0432 0.72272 0.0
H348 H 0.20604 0.00106 0.60065 0.0
H349 H 0.26236 0.98485 0.60972 0.0
H350 H 0.27054 0.94785 0.74887 0.0
H351 H 0.30551 0.97209 0.70592 0.0
Li352 Li 0.49122 0.28304 0.80431 0.0
Li353 Li 0.52319 0.29206 0.80946 0.0
Li354 Li 0.51412 0.25944 0.80221 0.0
Li355 Li 0.50795 0.27253 0.83365 0.0
C356 C 0.50525 0.28824 0.76924 0.0
N357 N 0.49087 0.30202 0.7357 0.0
C358 C 0.51032 0.30566 0.76285 0.0
C359 C 0.49309 0.27772 0.75842 0.0
C360 C 0.50284 0.3124 0.7459 0.0
C361 C 0.48589 0.28496 0.74155 0.0
C362 C 0.50304 0.31363 0.83607 0.0
C363 C 0.51657 0.33061 0.86204 0.0
N364 N 0.50609 0.34535 0.85741 0.0
C365 C 0.49222 0.32888 0.83174 0.0
C366 C 0.51517 0.31445 0.85148 0.0
C367 C 0.49403 0.34482 0.84262 0.0
C368 C 0.45309 0.28218 0.79474 0.0
N369 N 0.46881 0.29219 0.79444 0.0
C370 C 0.45361 0.317 0.77897 0.0
C371 C 0.46928 0.30934 0.78697 0.0
C372 C 0.43719 0.30702 0.77891 0.0
C373 C 0.43694 0.28944 0.78708 0.0
H374 H 0.45309 0.26862 0.80092 0.0
H375 H 0.48189 0.31709 0.78722 0.0
C376 C 0.55823 0.30465 0.80007 0.0
N377 N 0.54112 0.31042 0.80476 0.0
C378 C 0.57185 0.31733 0.79555 0.0
C379 C 0.54997 0.3417 0.80067 0.0
C380 C 0.53676 0.32853 0.80506 0.0
C381 C 0.56777 0.33614 0.79572 0.0
H382 H 0.56123 0.29015 0.79968 0.0
H383 H 0.52292 0.33276 0.80817 0.0
C384 C 0.48519 0.24091 0.81469 0.0
N385 N 0.47471 0.20483 0.80988 0.0
C386 C 0.48711 0.22842 0.82967 0.0
C387 C 0.47769 0.23512 0.79736 0.0
C388 C 0.48179 0.21022 0.82693 0.0
C389 C 0.47256 0.21681 0.79517 0.0
C390 C 0.54669 0.2664 0.83309 0.0
C391 C 0.55417 0.24895 0.83566 0.0
C392 C 0.55459 0.28138 0.84239 0.0
C393 C 0.5691 0.2467 0.84792 0.0
C394 C 0.56953 0.27859 0.85451 0.0
N395 N 0.57639 0.26144 0.85703 0.0
C396 C 0.52592 0.23912 0.77032 0.0
C397 C 0.52516 0.22228 0.79922 0.0
C398 C 0.53358 0.22422 0.76072 0.0
N399 N 0.52208 0.23795 0.78926 0.0
C400 C 0.5328 0.20704 0.7902 0.0
C401 C 0.53743 0.208 0.77076 0.0
H402 H 0.52355 0.2518 0.76277 0.0
H403 H 0.52227 0.22181 0.81434 0.0
C404 C 0.49481 0.278 0.87115 0.0
N405 N 0.50608 0.26751 0.86025 0.0
C406 C 0.49368 0.2751 0.89082 0.0
C407 C 0.51517 0.25012 0.88754 0.0
C408 C 0.51593 0.25355 0.86797 0.0
C409 C 0.50408 0.26109 0.89929 0.0
H410 H 0.48683 0.28877 0.8646 0.0
H411 H 0.52424 0.24496 0.85892 0.0
O412 O 0.5122 0.28152 0.78598 0.0
O413 O 0.50146 0.29794 0.82548 0.0
O414 O 0.49051 0.25873 0.81703 0.0
O415 O 0.53211 0.26883 0.82103 0.0
H416 H 0.5198 0.31394 0.77096 0.0
H417 H 0.48917 0.26415 0.76304 0.0
H418 H 0.50655 0.32591 0.74085 0.0
H419 H 0.47636 0.27702 0.73312 0.0
H420 H 0.52593 0.3314 0.87398 0.0
H421 H 0.48256 0.32847 0.82006 0.0
H422 H 0.52319 0.30264 0.85547 0.0
H423 H 0.48583 0.35675 0.83934 0.0
H424 H 0.45427 0.33073 0.77314 0.0
H425 H 0.4245 0.28137 0.78732 0.0
H426 H 0.58543 0.31246 0.79195 0.0
H427 H 0.54615 0.35603 0.80062 0.0
H428 H 0.49274 0.23269 0.84322 0.0
H429 H 0.47591 0.24465 0.7857 0.0
H430 H 0.4833 0.20038 0.83837 0.0
H431 H 0.46684 0.21211 0.78179 0.0
H432 H 0.54845 0.23722 0.8284 0.0
H433 H 0.54947 0.29508 0.8401 0.0
H434 H 0.57491 0.23324 0.85016 0.0
H435 H 0.57572 0.29007 0.86183 0.0
H436 H 0.53677 0.2255 0.74568 0.0
H437 H 0.53579 0.19493 0.79857 0.0
H438 H 0.485 0.28395 0.89931 0.0
H439 H 0.52306 0.23887 0.89337 0.0
Li440 Li 0.20348 0.52196 0.30634 0.0
Li441 Li 0.21399 0.4902 0.30272 0.0
Li442 Li 0.22211 0.50804 0.33089 0.0
Li443 Li 0.23557 0.51459 0.29964 0.0
C444 C 0.17913 0.50191 0.32525 0.0
N445 N 0.14171 0.50567 0.32974 0.0
C446 C 0.16715 0.49025 0.31552 0.0
C447 C 0.17208 0.51544 0.33731 0.0
C448 C 0.14827 0.49237 0.31799 0.0
C449 C 0.15312 0.51715 0.33936 0.0
C450 C 0.21982 0.516 0.26625 0.0
C451 C 0.23899 0.51259 0.23844 0.0
N452 N 0.23365 0.52945 0.23233 0.0
C453 C 0.21445 0.53325 0.25966 0.0
C454 C 0.23211 0.50552 0.25553 0.0
C455 C 0.22162 0.53982 0.24248 0.0
C456 C 0.18785 0.55707 0.30529 0.0
N457 N 0.18455 0.53919 0.30113 0.0
C458 C 0.15492 0.54665 0.28885 0.0
C459 C 0.16861 0.53382 0.29278 0.0
C460 C 0.15801 0.56519 0.29299 0.0
C461 C 0.17473 0.57039 0.30123 0.0
H462 H 0.2008 0.56103 0.31152 0.0
H463 H 0.16658 0.5196 0.28905 0.0
C464 C 0.20212 0.45398 0.30791 0.0
N465 N 0.20674 0.46653 0.29443 0.0
C466 C 0.19525 0.43691 0.30254 0.0
C467 C 0.19837 0.44589 0.26947 0.0
C468 C 0.20518 0.4628 0.2755 0.0
C469 C 0.193 0.4328 0.28309 0.0
H470 H 0.20331 0.45744 0.32287 0.0
H471 H 0.2087 0.47314 0.2651 0.0
C472 C 0.23225 0.54256 0.33284 0.0
N473 N 0.2462 0.56232 0.36316 0.0
C474 C 0.25111 0.54552 0.33434 0.0
C475 C 0.22047 0.54974 0.34668 0.0
C476 C 0.25789 0.55555 0.34979 0.0
C477 C 0.2278 0.55964 0.36193 0.0
C478 C 0.24347 0.47445 0.31609 0.0
C479 C 0.2418 0.46479 0.33322 0.0
C480 C 0.24969 0.46545 0.29972 0.0
C481 C 0.24627 0.44618 0.33364 0.0
C482 C 0.25398 0.44683 0.30072 0.0
N483 N 0.2522 0.43766 0.31752 0.0
C484 C 0.21241 0.50473 0.36978 0.0
C485 C 0.24411 0.50901 0.36404 0.0
C486 C 0.21536 0.5046 0.38945 0.0
N487 N 0.22666 0.50714 0.35758 0.0
C488 C 0.2477 0.50905 0.38361 0.0
C489 C 0.23319 0.50693 0.39662 0.0
H490 H 0.19873 0.50286 0.36426 0.0
H491 H 0.25522 0.51065 0.35397 0.0
C492 C 0.25604 0.54168 0.28161 0.0
N493 N 0.25667 0.52383 0.28704 0.0
C494 C 0.27102 0.54972 0.27259 0.0
C495 C 0.28714 0.52088 0.27499 0.0
C496 C 0.27177 0.51336 0.28396 0.0
C497 C 0.28689 0.53932 0.26922 0.0
H498 H 0.24389 0.54971 0.28449 0.0
H499 H 0.27193 0.49923 0.28856 0.0
O500 O 0.19766 0.50012 0.32295 0.0
O501 O 0.21331 0.50951 0.28326 0.0
O502 O 0.22536 0.53247 0.31804 0.0
O503 O 0.23886 0.49259 0.31531 0.0
H504 H 0.17232 0.47978 0.30603 0.0
H505 H 0.18113 0.52467 0.34484 0.0
H506 H 0.13884 0.48348 0.3105 0.0
H507 H 0.14747 0.52763 0.34855 0.0
H508 H 0.24863 0.50471 0.23008 0.0
H509 H 0.20499 0.54157 0.26779 0.0
H510 H 0.23652 0.49221 0.2605 0.0
H511 H 0.21766 0.55319 0.23725 0.0
H512 H 0.14227 0.54222 0.28222 0.0
H513 H 0.17757 0.5846 0.30456 0.0
H514 H 0.19143 0.42717 0.3135 0.0
H515 H 0.19659 0.4434 0.25435 0.0
H516 H 0.26043 0.53996 0.32383 0.0
H517 H 0.20585 0.54753 0.34574 0.0
H518 H 0.27246 0.55787 0.35119 0.0
H519 H 0.21886 0.56518 0.37281 0.0
H520 H 0.23694 0.47152 0.34601 0.0
H521 H 0.25093 0.4727 0.28632 0.0
H522 H 0.24497 0.4385 0.34678 0.0
H523 H 0.25868 0.43965 0.28813 0.0
H524 H 0.20383 0.50252 0.39891 0.0
H525 H 0.26164 0.51102 0.38848 0.0
H526 H 0.27033 0.56407 0.26872 0.0
H527 H 0.29906 0.51235 0.27257 0.0
Li528 Li 0.98216 0.23603 0.80139 0.0
Li529 Li 0.98979 0.22194 0.83191 0.0
Li530 Li 0.00726 0.21326 0.80238 0.0
Li531 Li 0.97571 0.20282 0.80812 0.0
C532 C 0.01602 0.25273 0.81159 0.0
N533 N 0.03693 0.28343 0.80381 0.0
C534 C 0.01683 0.26716 0.82469 0.0
C535 C 0.02618 0.25378 0.79471 0.0
C536 C 0.02737 0.2826 0.82045 0.0
C537 C 0.03659 0.26944 0.79099 0.0
C538 C 0.95477 0.23094 0.83524 0.0
C539 C 0.93923 0.22523 0.86504 0.0
N540 N 0.93461 0.24325 0.86606 0.0
C541 C 0.94973 0.24937 0.8365 0.0
C542 C 0.94934 0.21873 0.84953 0.0
C543 C 0.93958 0.25534 0.85222 0.0
C544 C 0.96177 0.25417 0.77347 0.0
N545 N 0.97266 0.25714 0.78889 0.0
C546 C 0.96738 0.2894 0.78692 0.0
C547 C 0.97558 0.27432 0.79573 0.0
C548 C 0.95601 0.28675 0.77096 0.0
C549 C 0.95345 0.26883 0.76413 0.0
H550 H 0.95934 0.24034 0.76857 0.0
H551 H 0.98375 0.27629 0.8084 0.0
C552 C 0.9967 0.2128 0.87049 0.0
N553 N 0.99177 0.22662 0.85855 0.0
C554 C 0.99777 0.21583 0.89013 0.0
C555 C 0.98889 0.24732 0.88479 0.0
C556 C 0.98801 0.24367 0.86527 0.0
C557 C 0.99378 0.23328 0.89754 0.0
H558 H -0.00028 0.19939 0.86477 0.0
H559 H 0.98415 0.25442 0.85546 0.0
C560 C 0.98929 0.21463 0.76559 0.0
N561 N 0.99587 0.21541 0.72673 0.0
C562 C 0.98423 0.19979 0.75412 0.0
C563 C 0.99742 0.22998 0.75721 0.0
C564 C 0.98776 0.20041 0.73454 0.0
C565 C 0.00069 0.23009 0.73757 0.0
C566 C 0.99673 0.17883 0.82617 0.0
C567 C 0.00805 0.16687 0.816 0.0
C568 C 0.98393 0.17177 0.83906 0.0
C569 C 0.00618 0.148 0.81869 0.0
C570 C 0.98247 0.15282 0.84134 0.0
N571 N 0.99352 0.14142 0.83118 0.0
C572 C 0.04584 0.2108 0.80227 0.0
C573 C 0.03128 0.19596 0.77629 0.0
C574 C 0.06301 0.20487 0.79592 0.0
N575 N 0.03045 0.20624 0.79243 0.0
C576 C 0.04811 0.18992 0.76933 0.0
C577 C 0.06424 0.19424 0.77926 0.0
H578 H 0.04474 0.2188 0.81521 0.0
H579 H 0.01886 0.19192 0.76911 0.0
C580 C 0.9413 0.18513 0.80878 0.0
N581 N 0.95901 0.18338 0.80311 0.0
C582 C 0.92852 0.17156 0.80436 0.0
C583 C 0.95249 0.15452 0.78849 0.0
C584 C 0.96479 0.16844 0.7932 0.0
C585 C 0.93402 0.15606 0.79392 0.0
H586 H 0.937 0.19728 0.81636 0.0
H587 H 0.97892 0.16747 0.78869 0.0
O588 O 0.00584 0.23745 0.81562 0.0
O589 O 0.96495 0.2249 0.8201 0.0
O590 O 0.98595 0.21418 0.78482 0.0
O591 O 0.9982 0.19735 0.82356 0.0
H592 H 0.00931 0.26651 0.83796 0.0
H593 H 0.02626 0.24257 0.78467 0.0
H594 H 0.02798 0.29391 0.8304 0.0
H595 H 0.04446 0.27044 0.77795 0.0
H596 H 0.93507 0.21596 0.87627 0.0
H597 H 0.95372 0.25899 0.82554 0.0
H598 H 0.95302 0.20441 0.84872 0.0
H599 H 0.93568 0.26959 0.85344 0.0
H600 H 0.96944 0.3029 0.79296 0.0
H601 H 0.94497 0.26611 0.75177 0.0
H602 H 0.00139 0.20455 0.89943 0.0
H603 H 0.98594 0.26103 0.88982 0.0
H604 H 0.97772 0.18787 0.76028 0.0
H605 H 0.00086 0.24183 0.76569 0.0
H606 H 0.98402 0.18896 0.72553 0.0
H607 H 0.00699 0.2419 0.73093 0.0
H608 H 0.0181 0.17207 0.80606 0.0
H609 H 0.97513 0.18082 0.84713 0.0
H610 H 0.01479 0.13858 0.81084 0.0
H611 H 0.97253 0.14717 0.85117 0.0
H612 H 0.07514 0.20844 0.80399 0.0
H613 H 0.04842 0.18136 0.75671 0.0
H614 H 0.91437 0.17348 0.80855 0.0
H615 H 0.95736 0.14275 0.78058 0.0
Li616 Li 0.259 0.98213 0.30299 0.0
Li617 Li 0.27358 0.99001 0.33324 0.0
Li618 Li 0.28185 0.00715 0.30332 0.0
Li619 Li 0.2923 0.97562 0.30923 0.0
C620 C 0.24265 0.0163 0.31335 0.0
N621 N 0.21204 0.03753 0.30626 0.0
C622 C 0.22876 0.01768 0.32701 0.0
C623 C 0.24112 0.02602 0.29624 0.0
C624 C 0.21334 0.02839 0.32311 0.0
C625 C 0.2255 0.0366 0.29288 0.0
C626 C 0.26419 0.95492 0.33674 0.0
C627 C 0.2697 0.939 0.36636 0.0
N628 N 0.25158 0.93479 0.36744 0.0
C629 C 0.24565 0.9503 0.33806 0.0
C630 C 0.27635 0.9491 0.3509 0.0
C631 C 0.23954 0.94015 0.35372 0.0
C632 C 0.24093 0.96022 0.27659 0.0
N633 N 0.2378 0.9725 0.29079 0.0
C634 C 0.20544 0.9684 0.28771 0.0
C635 C 0.2205 0.9767 0.29648 0.0
C636 C 0.20827 0.95555 0.27306 0.0
C637 C 0.22632 0.95164 0.26741 0.0
H638 H 0.25484 0.95692 0.27255 0.0
H639 H 0.21835 0.98607 0.30817 0.0
C640 C 0.28339 0.99723 0.37158 0.0
N641 N 0.26939 0.99213 0.35996 0.0
C642 C 0.28083 0.998 0.39132 0.0
C643 C 0.24941 0.98853 0.38672 0.0
C644 C 0.25255 0.98805 0.36708 0.0
C645 C 0.2637 0.99345 0.39912 0.0
H646 H 0.2966 0.00053 0.36555 0.0
H647 H 0.24161 0.98419 0.35751 0.0
C648 C 0.2798 0.98847 0.26677 0.0
N649 N 0.27825 0.99389 0.22776 0.0
C650 C 0.29447 0.98319 0.25519 0.0
C651 C 0.26423 0.99624 0.25846 0.0
C652 C 0.29347 0.98613 0.23551 0.0
C653 C 0.26373 0.99893 0.23873 0.0
C654 C 0.31651 0.9967 0.32711 0.0
C655 C 0.3286 0.00808 0.31718 0.0
C656 C 0.32341 0.98374 0.33992 0.0
C657 C 0.34744 0.00612 0.32004 0.0
C658 C 0.34233 0.98218 0.34236 0.0
N659 N 0.35386 0.9933 0.33244 0.0
C660 C 0.28421 0.04583 0.30184 0.0
C661 C 0.29958 0.03022 0.27687 0.0
C662 C 0.29036 0.06271 0.29493 0.0
N663 N 0.28893 0.03005 0.29277 0.0
C664 C 0.30587 0.04674 0.26938 0.0
C665 C 0.30141 0.06326 0.27852 0.0
H666 H 0.27592 0.04525 0.31463 0.0
H667 H 0.30373 0.01751 0.27033 0.0
C668 C 0.30985 0.94111 0.30943 0.0
N669 N 0.31165 0.95889 0.30404 0.0
C670 C 0.32349 0.92839 0.30498 0.0
C671 C 0.34069 0.95259 0.28972 0.0
C672 C 0.32667 0.9648 0.29436 0.0
C673 C 0.33914 0.93404 0.29486 0.0
H674 H 0.29764 0.93671 0.31685 0.0
H675 H 0.32764 0.97897 0.29001 0.0
O676 O 0.25788 0.00594 0.31702 0.0
O677 O 0.27038 0.96508 0.32167 0.0
O678 O 0.2806 0.98566 0.28608 0.0
O679 O 0.29803 0.99827 0.32434 0.0
H680 H 0.2298 0.01047 0.34044 0.0
H681 H 0.25194 0.02562 0.28574 0.0
H682 H 0.20243 0.02945 0.33351 0.0
H683 H 0.22413 0.04415 0.27967 0.0
H684 H 0.27893 0.93453 0.37749 0.0
H685 H 0.23606 0.95462 0.32721 0.0
H686 H 0.29075 0.95245 0.35004 0.0
H687 H 0.22521 0.93657 0.35499 0.0
H688 H 0.19179 0.97157 0.29276 0.0
H689 H 0.22915 0.94198 0.25606 0.0
H690 H 0.29224 0.00175 0.40039 0.0
H691 H 0.23593 0.98516 0.39212 0.0
H692 H 0.30655 0.97697 0.26132 0.0
H693 H 0.25252 -0.00011 0.26707 0.0
H694 H 0.30477 0.98221 0.2264 0.0
H695 H 0.25177 0.00494 0.23212 0.0
H696 H 0.32352 0.01827 0.30732 0.0
H697 H 0.31425 0.97489 0.34779 0.0
H698 H 0.35696 0.01478 0.31238 0.0
H699 H 0.34786 0.97212 0.35212 0.0
H700 H 0.28666 0.07516 0.3024 0.0
H701 H 0.31475 0.04652 0.25699 0.0
H702 H 0.32151 0.91419 0.30894 0.0
H703 H 0.35257 0.95764 0.28211 0.0
Li704 Li 0.48574 0.77342 0.83195 0.0
Li705 Li 0.50332 0.78234 0.80265 0.0
Li706 Li 0.47253 0.79203 0.80734 0.0
Li707 Li 0.47775 0.76061 0.80016 0.0
C708 C 0.4902 0.81555 0.82806 0.0
N709 N 0.48088 0.8514 0.83604 0.0
C710 C 0.49713 0.82978 0.81685 0.0
C711 C 0.47864 0.81953 0.84341 0.0
C712 C 0.49222 0.84782 0.8211 0.0
C713 C 0.47406 0.83775 0.8472 0.0
C714 C 0.5152 0.74722 0.82012 0.0
C715 C 0.53436 0.72058 0.81618 0.0
N716 N 0.54447 0.72588 0.83152 0.0
C717 C 0.52571 0.75236 0.8359 0.0
C718 C 0.51948 0.73116 0.81022 0.0
C719 C 0.54049 0.74141 0.84142 0.0
C720 C 0.47775 0.7537 0.86539 0.0
N721 N 0.48708 0.76832 0.85834 0.0
C722 C 0.49796 0.77609 0.88943 0.0
C723 C 0.49708 0.77946 0.86986 0.0
C724 C 0.48838 0.76116 0.89721 0.0
C725 C 0.47819 0.74986 0.88491 0.0
H726 H 0.46993 0.74509 0.85582 0.0
H727 H 0.50433 0.79101 0.86381 0.0
C728 C 0.52563 0.80226 0.7782 0.0
N729 N 0.52643 0.78989 0.79267 0.0
C730 C 0.54164 0.8095 0.77043 0.0
C731 C 0.55917 0.79137 0.79277 0.0
C732 C 0.54276 0.78431 0.79999 0.0
C733 C 0.55869 0.80419 0.77784 0.0
H734 H 0.51248 0.80685 0.77296 0.0
H735 H 0.54314 0.77471 0.81164 0.0
C736 C 0.44343 0.76779 0.81488 0.0
N737 N 0.40762 0.76143 0.804 0.0
C738 C 0.43763 0.77225 0.79644 0.0
C739 C 0.43103 0.7601 0.82778 0.0
C740 C 0.41947 0.76893 0.79122 0.0
C741 C 0.41297 0.75699 0.82201 0.0
C742 C 0.48963 0.7762 0.76632 0.0
C743 C 0.48333 0.78419 0.74943 0.0
C744 C 0.50262 0.76215 0.7655 0.0
C745 C 0.49013 0.77797 0.73196 0.0
C746 C 0.50909 0.75632 0.74774 0.0
N747 N 0.50275 0.76427 0.73148 0.0
C748 C 0.45999 0.82303 0.7877 0.0
C749 C 0.44183 0.81514 0.81453 0.0
C750 C 0.44837 0.83763 0.7834 0.0
N751 N 0.45645 0.8121 0.80295 0.0
C752 C 0.42976 0.82951 0.81067 0.0
C753 C 0.43286 0.8409 0.7948 0.0
H754 H 0.47184 0.82035 0.77886 0.0
H755 H 0.43942 0.80626 0.82663 0.0
C756 C 0.46908 0.72316 0.79799 0.0
N757 N 0.46841 0.7392 0.78818 0.0
C758 C 0.46098 0.7074 0.79047 0.0
C759 C 0.45192 0.72493 0.76277 0.0
C760 C 0.46013 0.74034 0.77085 0.0
C761 C 0.45204 0.70822 0.77272 0.0
H762 H 0.47552 0.72275 0.81189 0.0
H763 H 0.45946 0.7533 0.76346 0.0
O764 O 0.49443 0.79777 0.82381 0.0
O765 O 0.50044 0.75752 0.81469 0.0
O766 O 0.46118 0.77076 0.82036 0.0
O767 O 0.48302 0.78223 0.78349 0.0
H768 H 0.50605 0.82691 0.80489 0.0
H769 H 0.47305 0.80863 0.85212 0.0
H770 H 0.49739 0.85898 0.81248 0.0
H771 H 0.46503 0.84104 0.85895 0.0
H772 H 0.53785 0.70813 0.80863 0.0
H773 H 0.5227 0.76482 0.84361 0.0
H774 H 0.51137 0.72689 0.79807 0.0
H775 H 0.54881 0.74528 0.85353 0.0
H776 H 0.50579 0.78527 0.89843 0.0
H777 H 0.47075 0.73811 0.89029 0.0
H778 H 0.54065 0.81965 0.7592 0.0
H779 H 0.57206 0.78696 0.79887 0.0
H780 H 0.44701 0.77822 0.78625 0.0
H781 H 0.43533 0.75655 0.8421 0.0
H782 H 0.4148 0.7723 0.77699 0.0
H783 H 0.40322 0.75104 0.83184 0.0
H784 H 0.47327 0.79508 0.74984 0.0
H785 H 0.50772 0.75585 0.77837 0.0
H786 H 0.48536 0.78402 0.71877 0.0
H787 H 0.51914 0.74547 0.7469 0.0
H788 H 0.45151 0.84623 0.77124 0.0
H789 H 0.4179 0.83136 0.81974 0.0
H790 H 0.46117 0.69489 0.79878 0.0
H791 H 0.44537 0.72617 0.74896 0.0
Li792 Li 0.71221 0.50446 0.30473 0.0
Li793 Li 0.72277 0.48832 0.33269 0.0
Li794 Li 0.73568 0.4803 0.30111 0.0
Li795 Li 0.70468 0.47201 0.30996 0.0
C796 C 0.74354 0.51969 0.32398 0.0
N797 N 0.75561 0.55116 0.34195 0.0
C798 C 0.73097 0.53191 0.33195 0.0
C799 C 0.76227 0.52351 0.32507 0.0
C800 C 0.73732 0.54772 0.34101 0.0
C801 C 0.7681 0.53948 0.33423 0.0
C802 C 0.68782 0.49791 0.34139 0.0
C803 C 0.67606 0.48973 0.37243 0.0
N804 N 0.66961 0.50708 0.37465 0.0
C805 C 0.68097 0.51563 0.34394 0.0
C806 C 0.68525 0.48482 0.35571 0.0
C807 C 0.67184 0.52001 0.36086 0.0
C808 C 0.68398 0.52639 0.29241 0.0
N809 N 0.70247 0.52641 0.29442 0.0
C810 C 0.70428 0.55699 0.28236 0.0
C811 C 0.71276 0.54115 0.28931 0.0
C812 C 0.6851 0.55753 0.28066 0.0
C813 C 0.67497 0.54186 0.28558 0.0
H814 H 0.67623 0.51433 0.29632 0.0
H815 H 0.7275 0.54067 0.29078 0.0
C816 C 0.73932 0.47668 0.36669 0.0
N817 N 0.729 0.49038 0.35915 0.0
C818 C 0.74364 0.47663 0.3861 0.0
C819 C 0.72704 0.50506 0.38959 0.0
C820 C 0.72314 0.50461 0.3701 0.0
C821 C 0.73728 0.49084 0.3979 0.0
H822 H 0.74408 0.46567 0.35764 0.0
H823 H 0.71506 0.51544 0.36388 0.0
C824 C 0.71683 0.49069 0.26821 0.0
N825 N 0.72429 0.5047 0.23242 0.0
C826 C 0.70625 0.4854 0.25253 0.0
C827 C 0.73121 0.50311 0.26569 0.0
C828 C 0.71025 0.49263 0.23455 0.0
C829 C 0.73475 0.51004 0.24748 0.0
C830 C 0.72443 0.44552 0.32379 0.0
C831 C 0.72903 0.43348 0.30905 0.0
C832 C 0.71592 0.43879 0.34022 0.0
C833 C 0.72478 0.4149 0.31087 0.0
C834 C 0.71189 0.42012 0.34151 0.0
N835 N 0.71635 0.40866 0.32692 0.0
C836 C 0.77348 0.47442 0.2961 0.0
C837 C 0.75485 0.46236 0.27141 0.0
C838 C 0.7891 0.46675 0.28782 0.0
N839 N 0.7568 0.47196 0.28791 0.0
C840 C 0.77008 0.45443 0.26266 0.0
C841 C 0.78748 0.45633 0.27102 0.0
H842 H 0.77456 0.48188 0.30938 0.0
H843 H 0.74136 0.46025 0.26544 0.0
C844 C 0.67194 0.45147 0.31704 0.0
N845 N 0.68657 0.45384 0.30529 0.0
C846 C 0.65866 0.43831 0.31279 0.0
C847 C 0.67575 0.43034 0.28443 0.0
C848 C 0.68866 0.44364 0.28921 0.0
C849 C 0.66043 0.4276 0.29623 0.0
H850 H 0.67041 0.45994 0.32955 0.0
H851 H 0.7004 0.4459 0.28009 0.0
O852 O 0.73764 0.50417 0.31493 0.0
O853 O 0.69687 0.4934 0.32492 0.0
O854 O 0.71299 0.48374 0.28589 0.0
O855 O 0.72806 0.46384 0.32205 0.0
H856 H 0.71645 0.5292 0.33118 0.0
H857 H 0.77221 0.51427 0.31886 0.0
H858 H 0.72771 0.55727 0.34727 0.0
H859 H 0.78256 0.54261 0.33518 0.0
H860 H 0.67411 0.47977 0.38368 0.0
H861 H 0.68274 0.52595 0.33303 0.0
H862 H 0.6905 0.47109 0.35404 0.0
H863 H 0.66655 0.53369 0.36305 0.0
H864 H 0.71259 0.56877 0.2787 0.0
H865 H 0.66021 0.54151 0.28408 0.0
H866 H 0.75188 0.46557 0.39178 0.0
H867 H 0.72167 0.5162 0.39812 0.0
H868 H 0.69507 0.47579 0.25427 0.0
H869 H 0.73955 0.50737 0.27764 0.0
H870 H 0.70217 0.48865 0.22228 0.0
H871 H 0.74583 0.51967 0.24533 0.0
H872 H 0.73559 0.43844 0.29622 0.0
H873 H 0.71246 0.44785 0.35187 0.0
H874 H 0.72813 0.40545 0.2995 0.0
H875 H 0.70523 0.41474 0.35411 0.0
H876 H 0.80226 0.46871 0.29467 0.0
H877 H 0.76811 0.44624 0.24994 0.0
H878 H 0.64694 0.43685 0.32214 0.0
H879 H 0.6778 0.42223 0.27166 0.0
Li880 Li 0.00981 0.7216 0.83276 0.0
Li881 Li 0.99239 0.71405 0.80418 0.0
Li882 Li 0.0252 0.70432 0.80826 0.0
Li883 Li 0.01759 0.73651 0.8014 0.0
C884 C 0.99759 0.68793 0.83911 0.0
N885 N 0.98603 0.67074 0.87212 0.0
C886 C 0.9789 0.68537 0.84254 0.0
C887 C 0.0104 0.68153 0.85235 0.0
C888 C 0.97333 0.67669 0.85934 0.0
C889 C 0.00428 0.67295 0.86899 0.0
C890 C 0.98005 0.74973 0.81369 0.0
C891 C 0.96327 0.7705 0.79339 0.0
N892 N 0.95065 0.77285 0.80745 0.0
C893 C 0.96706 0.75259 0.82805 0.0
C894 C 0.97827 0.75895 0.79631 0.0
C895 C 0.95224 0.76423 0.82458 0.0
C896 C 0.02362 0.72924 0.86947 0.0
N897 N 0.0081 0.72533 0.85959 0.0
C898 C 0.99043 0.72574 0.88831 0.0
C899 C 0.99165 0.72371 0.86854 0.0
C900 C 0.00631 0.72951 0.89894 0.0
C901 C 0.02306 0.73134 0.88925 0.0
H902 H 0.03647 0.73073 0.862 0.0
H903 H 0.9795 0.72059 0.86035 0.0
C904 C 0.97011 0.69451 0.7792 0.0
N905 N 0.96943 0.70632 0.79418 0.0
C906 C 0.95403 0.68736 0.7715 0.0
C907 C 0.93674 0.7043 0.79505 0.0
C908 C 0.9532 0.71128 0.80219 0.0
C909 C 0.93706 0.69214 0.77952 0.0
H910 H 0.98321 0.69036 0.77346 0.0
H911 H 0.95302 0.7202 0.81447 0.0
C912 C 0.05266 0.72387 0.82321 0.0
N913 N 0.08988 0.71755 0.82612 0.0
C914 C 0.06496 0.73394 0.8121 0.0
C915 C 0.05931 0.71075 0.83599 0.0
C916 C 0.08373 0.73051 0.81374 0.0
C917 C 0.07817 0.7077 0.83719 0.0
C918 C 0.01165 0.71709 0.76615 0.0
C919 C 0.02519 0.71008 0.75407 0.0
C920 C 0.99667 0.72634 0.75834 0.0
C921 C 0.0237 0.71281 0.73439 0.0
C922 C 0.99566 0.72877 0.73859 0.0
N923 N 0.0091 0.72204 0.72713 0.0
C924 C 0.03998 0.66837 0.80962 0.0
C925 C 0.05758 0.69004 0.79233 0.0
C926 C 0.05294 0.65472 0.806 0.0
N927 N 0.0426 0.68564 0.80289 0.0
C928 C 0.07097 0.67692 0.78857 0.0
C929 C 0.06875 0.659 0.79549 0.0
H930 H 0.02784 0.66519 0.81781 0.0
H931 H 0.05916 0.7038 0.78688 0.0
C932 C 0.02346 0.77457 0.79807 0.0
N933 N 0.02622 0.75819 0.7893 0.0
C934 C 0.03082 0.7906 0.7903 0.0
C935 C 0.04348 0.77259 0.76452 0.0
C936 C 0.03602 0.75694 0.77286 0.0
C937 C 0.04108 0.78968 0.77336 0.0
H938 H 0.01583 0.77512 0.81129 0.0
H939 H 0.03863 0.74372 0.76654 0.0
O940 O 0.00329 0.69665 0.82288 0.0
O941 O 0.9947 0.73844 0.81693 0.0
O942 O 0.03421 0.72688 0.82162 0.0
O943 O 0.01294 0.71452 0.78547 0.0
H944 H 0.9688 0.69015 0.83242 0.0
H945 H 0.0249 0.68328 0.84987 0.0
H946 H 0.95891 0.67471 0.86223 0.0
H947 H 0.01404 0.66806 0.87943 0.0
H948 H 0.96172 0.77766 0.77997 0.0
H949 H 0.96832 0.7458 0.84169 0.0
H950 H 0.98846 0.75741 0.78525 0.0
H951 H 0.94201 0.76643 0.83552 0.0
H952 H 0.97728 0.72408 0.89524 0.0
H953 H 0.03557 0.73455 0.89685 0.0
H954 H 0.95492 0.67769 0.75981 0.0
H955 H 0.92393 0.70823 0.80169 0.0
H956 H 0.0601 0.74424 0.80225 0.0
H957 H 0.05001 0.7029 0.84477 0.0
H958 H 0.09339 0.73814 0.80515 0.0
H959 H 0.08348 0.69749 0.84691 0.0
H960 H 0.03677 0.70268 0.75981 0.0
H961 H 0.98577 0.73133 0.76736 0.0
H962 H 0.03415 0.70756 0.7249 0.0
H963 H 0.98414 0.73592 0.73237 0.0
H964 H 0.05077 0.64105 0.81158 0.0
H965 H 0.08281 0.68068 0.78013 0.0
H966 H 0.02864 0.80353 0.79754 0.0
H967 H 0.05166 0.77123 0.7517 0.0
Li968 Li 0.776 0.00978 0.33407 0.0
Li969 Li 0.7846 0.99274 0.30409 0.0
Li970 Li 0.79339 0.02345 0.30891 0.0
Li971 Li 0.76199 0.01767 0.30167 0.0
C972 C 0.81814 0.00645 0.32875 0.0
N973 N 0.85401 0.01644 0.33579 0.0
C974 C 0.832 0.00135 0.31606 0.0
C975 C 0.82253 0.01654 0.34508 0.0
C976 C 0.85005 0.00658 0.31984 0.0
C977 C 0.84075 0.02147 0.34838 0.0
C978 C 0.75074 0.97937 0.32217 0.0
C979 C 0.72563 0.95824 0.31823 0.0
N980 N 0.73167 0.94855 0.33357 0.0
C981 C 0.75666 0.96925 0.33795 0.0
C982 C 0.73505 0.97389 0.31228 0.0
C983 C 0.74685 0.9537 0.34347 0.0
C984 C 0.75581 0.01657 0.36742 0.0
N985 N 0.77109 0.00828 0.36054 0.0
C986 C 0.77951 0.99833 0.3918 0.0
C987 C 0.78284 0.99916 0.3722 0.0
C988 C 0.76389 0.00689 0.39943 0.0
C989 C 0.7519 0.01603 0.38692 0.0
H990 H 0.74669 0.02365 0.35773 0.0
H991 H 0.79483 0.99259 0.36627 0.0
C992 C 0.80523 0.97129 0.2796 0.0
N993 N 0.79244 0.96987 0.29362 0.0
C994 C 0.81278 0.95563 0.2714 0.0
C995 C 0.79375 0.93716 0.29204 0.0
C996 C 0.78652 0.95324 0.29983 0.0
C997 C 0.80717 0.93825 0.27771 0.0
H998 H 0.80984 0.98466 0.27503 0.0
H999 H 0.77642 0.95234 0.31098 0.0
C1000 C 0.77388 0.05224 0.32299 0.0
N1001 N 0.77891 0.08969 0.32484 0.0
C1002 C 0.77388 0.0627 0.30629 0.0
C1003 C 0.77626 0.06081 0.34065 0.0
C1004 C 0.77651 0.08161 0.30752 0.0
C1005 C 0.77881 0.07977 0.34128 0.0
C1006 C 0.7771 0.00619 0.268 0.0
C1007 C 0.78368 0.01317 0.25073 0.0
C1008 C 0.76384 0.99238 0.26781 0.0
C1009 C 0.77691 0.00619 0.23356 0.0
C1010 C 0.75742 0.98575 0.25035 0.0
N1011 N 0.76403 0.99273 0.23373 0.0
C1012 C 0.82048 0.03972 0.28631 0.0
C1013 C 0.81869 0.0528 0.3172 0.0
C1014 C 0.83414 0.0521 0.2811 0.0
N1015 N 0.81284 0.04047 0.30397 0.0
C1016 C 0.8323 0.06549 0.31259 0.0
C1017 C 0.84003 0.06541 0.29422 0.0
H1018 H 0.8159 0.02951 0.27622 0.0
H1019 H 0.81269 0.05291 0.33129 0.0
C1020 C 0.72391 0.02369 0.29846 0.0
N1021 N 0.74034 0.0264 0.2898 0.0
C1022 C 0.70793 0.03091 0.29046 0.0
C1023 C 0.72612 0.04332 0.26467 0.0
C1024 C 0.74172 0.03597 0.27322 0.0
C1025 C 0.70895 0.04096 0.27338 0.0
H1026 H 0.72328 0.01616 0.31174 0.0
H1027 H 0.755 0.03824 0.26683 0.0
O1028 O 0.80034 0.00176 0.3251 0.0
O1029 O 0.75992 0.99485 0.31675 0.0
O1030 O 0.7715 0.0337 0.32211 0.0
O1031 O 0.78359 0.01306 0.28491 0.0
H1032 H 0.82885 0.99359 0.30335 0.0
H1033 H 0.81194 0.02083 0.35492 0.0
H1034 H 0.8609 0.00282 0.31009 0.0
H1035 H 0.84433 0.02938 0.36088 0.0
H1036 H 0.71349 0.95381 0.31067 0.0
H1037 H 0.76887 0.97317 0.34564 0.0
H1038 H 0.73017 0.98165 0.30013 0.0
H1039 H 0.75134 0.94568 0.35558 0.0
H1040 H 0.78924 0.99132 0.40089 0.0
H1041 H 0.73956 0.02259 0.39212 0.0
H1042 H 0.82333 0.95715 0.26065 0.0
H1043 H 0.78895 0.92404 0.29723 0.0
H1044 H 0.77215 0.05623 0.29252 0.0
H1045 H 0.77626 0.05287 0.35371 0.0
H1046 H 0.77669 0.08987 0.2947 0.0
H1047 H 0.78076 0.0866 0.35484 0.0
H1048 H 0.79385 0.02395 0.25057 0.0
H1049 H 0.75859 0.98676 0.28094 0.0
H1050 H 0.78187 0.01149 0.2201 0.0
H1051 H 0.74718 0.97504 0.25002 0.0
H1052 H 0.83999 0.05127 0.26693 0.0
H1053 H 0.83637 0.07554 0.32313 0.0
H1054 H 0.69495 0.02873 0.29758 0.0
H1055 H 0.72757 0.05125 0.2517 0.0
Li1056 Li 0.47894 0.7371 0.19863 0.0
Li1057 Li 0.47113 0.7051 0.19173 0.0
Li1058 Li 0.50395 0.71576 0.19483 0.0
Li1059 Li 0.4861 0.72351 0.16642 0.0
C1060 C 0.48027 0.72011 0.23268 0.0
N1061 N 0.47195 0.73093 0.26946 0.0
C1062 C 0.46412 0.71412 0.24138 0.0
C1063 C 0.49234 0.73135 0.2428 0.0
C1064 C 0.46012 0.71981 0.25996 0.0
C1065 C 0.48785 0.73675 0.26135 0.0
C1066 C 0.44478 0.72565 0.17112 0.0
C1067 C 0.42457 0.71279 0.14739 0.0
N1068 N 0.41022 0.72176 0.1555 0.0
C1069 C 0.42986 0.73493 0.17906 0.0
C1070 C 0.44214 0.71465 0.15503 0.0
C1071 C 0.41248 0.73271 0.17102 0.0
C1072 C 0.47884 0.7746 0.20972 0.0
N1073 N 0.4701 0.75825 0.21152 0.0
C1074 C 0.4468 0.7719 0.23077 0.0
C1075 C 0.45438 0.75665 0.22178 0.0
C1076 C 0.45534 0.78905 0.22898 0.0
C1077 C 0.47164 0.79029 0.21837 0.0
H1078 H 0.4912 0.77553 0.20129 0.0
H1079 H 0.4475 0.74357 0.22262 0.0
C1080 C 0.46033 0.66822 0.1969 0.0
N1081 N 0.45429 0.68584 0.19702 0.0
C1082 C 0.4483 0.65386 0.20099 0.0
C1083 C 0.42416 0.67608 0.20559 0.0
C1084 C 0.43665 0.68998 0.20145 0.0
C1085 C 0.42992 0.65772 0.20537 0.0
H1086 H 0.47453 0.66533 0.19368 0.0
H1087 H 0.43234 0.7041 0.20219 0.0
C1088 C 0.51837 0.74759 0.18258 0.0
N1089 N 0.55337 0.762 0.18282 0.0
C1090 C 0.52845 0.74864 0.16565 0.0
C1091 C 0.52597 0.75413 0.19956 0.0
C1092 C 0.54616 0.75591 0.16608 0.0
C1093 C 0.54372 0.76129 0.19941 0.0
C1094 C 0.49518 0.68582 0.16202 0.0
C1095 C 0.5128 0.68038 0.15663 0.0
C1096 C 0.47999 0.67757 0.15343 0.0
C1097 C 0.51493 0.66715 0.14239 0.0
C1098 C 0.48268 0.66438 0.13926 0.0
N1099 N 0.49995 0.65951 0.13405 0.0
C1100 C 0.52923 0.7013 0.22114 0.0
C1101 C 0.54196 0.70851 0.19094 0.0
C1102 C 0.54579 0.69363 0.22709 0.0
N1103 N 0.52757 0.70831 0.20326 0.0
C1104 C 0.55879 0.70104 0.19631 0.0
C1105 C 0.56076 0.6931 0.21446 0.0
H1106 H 0.51749 0.701 0.23052 0.0
H1107 H 0.5402 0.71383 0.17668 0.0
C1108 C 0.47432 0.73864 0.13137 0.0
N1109 N 0.48725 0.72784 0.13964 0.0
C1110 C 0.47447 0.74157 0.11168 0.0
C1111 C 0.50171 0.72287 0.10948 0.0
C1112 C 0.50097 0.72025 0.12919 0.0
C1113 C 0.48823 0.73351 0.10045 0.0
H1114 H 0.46384 0.74495 0.14007 0.0
H1115 H 0.51144 0.71225 0.13616 0.0
O1116 O 0.48432 0.71485 0.21441 0.0
O1117 O 0.46188 0.72761 0.1789 0.0
O1118 O 0.50106 0.7404 0.18245 0.0
O1119 O 0.49287 0.69874 0.176 0.0
H1120 H 0.4547 0.70529 0.23383 0.0
H1121 H 0.50504 0.73584 0.23642 0.0
H1122 H 0.44759 0.71539 0.26681 0.0
H1123 H 0.49702 0.74553 0.26931 0.0
H1124 H 0.42236 0.70429 0.13496 0.0
H1125 H 0.43163 0.7437 0.19135 0.0
H1126 H 0.45357 0.70785 0.14831 0.0
H1127 H 0.40081 0.73972 0.17711 0.0
H1128 H 0.43403 0.7704 0.23849 0.0
H1129 H 0.47868 0.80325 0.21669 0.0
H1130 H 0.45331 0.63991 0.20061 0.0
H1131 H 0.41024 0.67972 0.20936 0.0
H1132 H 0.52272 0.74383 0.15235 0.0
H1133 H 0.51826 0.75369 0.21271 0.0
H1134 H 0.55416 0.7567 0.15311 0.0
H1135 H 0.54981 0.7663 0.21248 0.0
H1136 H 0.52473 0.68639 0.16326 0.0
H1137 H 0.46626 0.68109 0.15783 0.0
H1138 H 0.5285 0.66295 0.13798 0.0
H1139 H 0.47102 0.65795 0.13248 0.0
H1140 H 0.54655 0.68739 0.24108 0.0
H1141 H 0.56998 0.70106 0.18617 0.0
H1142 H 0.46403 0.75018 0.10534 0.0
H1143 H 0.51256 0.7164 0.10137 0.0
Li1144 Li 0.76109 0.48066 0.69957 0.0
Li1145 Li 0.79293 0.47326 0.69187 0.0
Li1146 Li 0.78287 0.50606 0.69577 0.0
Li1147 Li 0.77465 0.48831 0.66727 0.0
C1148 C 0.7791 0.4866 0.73389 0.0
N1149 N 0.77027 0.488 0.77222 0.0
C1150 C 0.78498 0.47276 0.74623 0.0
C1151 C 0.76899 0.5013 0.7411 0.0
C1152 C 0.7803 0.47366 0.76554 0.0
C1153 C 0.7646 0.50173 0.7605 0.0
C1154 C 0.77384 0.44609 0.67482 0.0
C1155 C 0.78835 0.4234 0.65486 0.0
N1156 N 0.78136 0.40993 0.66612 0.0
C1157 C 0.76661 0.43201 0.68604 0.0
C1158 C 0.78464 0.44175 0.65898 0.0
C1159 C 0.77064 0.41382 0.68147 0.0
C1160 C 0.72312 0.47773 0.70797 0.0
N1161 N 0.74016 0.47177 0.71272 0.0
C1162 C 0.72769 0.45066 0.73529 0.0
C1163 C 0.74268 0.45854 0.7261 0.0
C1164 C 0.70988 0.45633 0.73054 0.0
C1165 C 0.70769 0.47018 0.71678 0.0
H1166 H 0.72149 0.48806 0.69704 0.0
H1167 H 0.75633 0.45364 0.72917 0.0
C1168 C 0.829 0.45852 0.6901 0.0
N1169 N 0.81176 0.45597 0.69693 0.0
C1170 C 0.84273 0.44572 0.694 0.0
C1171 C 0.82073 0.4281 0.71212 0.0
C1172 C 0.80748 0.44123 0.70789 0.0
C1173 C 0.83865 0.43022 0.70511 0.0
H1174 H 0.83215 0.47054 0.68173 0.0
H1175 H 0.79376 0.43975 0.71347 0.0
C1176 C 0.74843 0.51917 0.68401 0.0
N1177 N 0.72858 0.5514 0.68424 0.0
C1178 C 0.74742 0.52997 0.66757 0.0
C1179 C 0.73902 0.52458 0.70045 0.0
C1180 C 0.7374 0.54627 0.66801 0.0
C1181 C 0.72915 0.54097 0.70032 0.0
C1182 C 0.8102 0.50023 0.66133 0.0
C1183 C 0.81459 0.51869 0.65859 0.0
C1184 C 0.81682 0.48711 0.64854 0.0
C1185 C 0.82526 0.52374 0.6429 0.0
C1186 C 0.82745 0.49271 0.63302 0.0
N1187 N 0.8314 0.51076 0.63053 0.0
C1188 C 0.80157 0.52943 0.72063 0.0
C1189 C 0.78657 0.54513 0.69551 0.0
C1190 C 0.80914 0.54577 0.72727 0.0
N1191 N 0.79057 0.52938 0.70499 0.0
C1192 C 0.79389 0.5618 0.70163 0.0
C1193 C 0.80553 0.56222 0.71758 0.0
H1194 H 0.80495 0.51667 0.72762 0.0
H1195 H 0.77833 0.54471 0.68275 0.0
C1196 C 0.76012 0.47557 0.63253 0.0
N1197 N 0.76981 0.48947 0.64056 0.0
C1198 C 0.75671 0.47546 0.61292 0.0
C1199 C 0.77298 0.50417 0.61026 0.0
C1200 C 0.77594 0.50379 0.62993 0.0
C1201 C 0.76333 0.48981 0.60145 0.0
H1202 H 0.75506 0.46454 0.64136 0.0
H1203 H 0.78316 0.51494 0.63669 0.0
O1204 O 0.78342 0.48585 0.71489 0.0
O1205 O 0.77023 0.464 0.67921 0.0
O1206 O 0.75814 0.50313 0.6838 0.0
O1207 O 0.79968 0.49506 0.67658 0.0
H1208 H 0.793 0.46138 0.74095 0.0
H1209 H 0.76475 0.51235 0.73186 0.0
H1210 H 0.78465 0.46297 0.77523 0.0
H1211 H 0.75673 0.51301 0.76625 0.0
H1212 H 0.79676 0.41988 0.64269 0.0
H1213 H 0.75807 0.43507 0.69823 0.0
H1214 H 0.79 0.45243 0.6499 0.0
H1215 H 0.76524 0.4028 0.69012 0.0
H1216 H 0.73001 0.43974 0.74547 0.0
H1217 H 0.69421 0.47499 0.71274 0.0
H1218 H 0.85633 0.44786 0.68824 0.0
H1219 H 0.81706 0.41658 0.72107 0.0
H1220 H 0.75443 0.5259 0.65466 0.0
H1221 H 0.73917 0.51614 0.71311 0.0
H1222 H 0.73665 0.55484 0.65543 0.0
H1223 H 0.72188 0.54536 0.71297 0.0
H1224 H 0.80975 0.52902 0.66841 0.0
H1225 H 0.81387 0.47276 0.65061 0.0
H1226 H 0.82867 0.53799 0.64056 0.0
H1227 H 0.83259 0.4827 0.62298 0.0
H1228 H 0.81836 0.54538 0.73938 0.0
H1229 H 0.79076 0.57416 0.69372 0.0
H1230 H 0.74886 0.4643 0.60686 0.0
H1231 H 0.77846 0.51547 0.60204 0.0
Li1232 Li 0.0242 0.79193 0.19047 0.0
Li1233 Li 0.01708 0.76008 0.19852 0.0
Li1234 Li 0.01031 0.77262 0.16683 0.0
Li1235 Li 0.99247 0.78171 0.19474 0.0
C1236 C 0.04445 0.76151 0.16505 0.0
N1237 N 0.06308 0.74491 0.13538 0.0
C1238 C 0.04811 0.74272 0.16562 0.0
C1239 C 0.05037 0.77187 0.14944 0.0
C1240 C 0.05754 0.73458 0.15048 0.0
C1241 C 0.05972 0.76322 0.13456 0.0
C1242 C 0.01698 0.77776 0.23188 0.0
C1243 C 0.01131 0.7608 0.26082 0.0
N1244 N 0.0274 0.76707 0.26811 0.0
C1245 C 0.03341 0.78412 0.23969 0.0
C1246 C 0.00577 0.7661 0.24255 0.0
C1247 C 0.03845 0.77853 0.25802 0.0
C1248 C 0.03612 0.82507 0.20724 0.0
N1249 N 0.04095 0.81137 0.1951 0.0
C1250 C 0.07045 0.82473 0.19037 0.0
C1251 C 0.05769 0.81097 0.18664 0.0
C1252 C 0.06598 0.83897 0.20304 0.0
C1253 C 0.04847 0.83912 0.21139 0.0
H1254 H 0.02277 0.82489 0.21393 0.0
H1255 H 0.06122 0.79984 0.17718 0.0
C1256 C 0.01656 0.72306 0.21096 0.0
N1257 N 0.02576 0.73923 0.21194 0.0
C1258 C 0.02358 0.70749 0.21998 0.0
C1259 C 0.04911 0.72568 0.23118 0.0
C1260 C 0.04184 0.74075 0.22158 0.0
C1261 C 0.04001 0.70879 0.23028 0.0
H1262 H 0.00399 0.72217 0.20286 0.0
H1263 H 0.04917 0.75361 0.22156 0.0
C1264 C 0.00457 0.81584 0.17206 0.0
N1265 N 0.00978 0.85322 0.16903 0.0
C1266 C 0.99413 0.82786 0.18314 0.0
C1267 C 0.0176 0.82283 0.15937 0.0
C1268 C 0.99697 0.84671 0.1814 0.0
C1269 C 0.02006 0.84176 0.15808 0.0
C1270 C 0.97712 0.75088 0.18279 0.0
C1271 C 0.96714 0.75149 0.16578 0.0
C1272 C 0.96876 0.74451 0.19947 0.0
C1273 C 0.94884 0.74588 0.16579 0.0
C1274 C 0.95043 0.73906 0.19889 0.0
N1275 N 0.94093 0.73986 0.18221 0.0
C1276 C 0.01078 0.74955 0.13436 0.0
C1277 C 0.00536 0.78097 0.12792 0.0
C1278 C 0.00993 0.7454 0.11492 0.0
N1279 N 0.00873 0.76713 0.14039 0.0
C1280 C 0.00426 0.77744 0.10839 0.0
C1281 C 0.00665 0.75947 0.10167 0.0
H1282 H 0.01313 0.73878 0.14467 0.0
H1283 H 0.00351 0.79477 0.13313 0.0
C1284 C 0.96634 0.79418 0.22153 0.0
N1285 N 0.96895 0.78939 0.20299 0.0
C1286 C 0.94985 0.80215 0.22725 0.0
C1287 C 0.93884 0.79949 0.19483 0.0
C1288 C 0.95562 0.79179 0.1897 0.0
C1289 C 0.93592 0.80522 0.21375 0.0
H1290 H 0.97735 0.79257 0.2317 0.0
H1291 H 0.95826 0.7883 0.17496 0.0
O1292 O 0.03498 0.76968 0.17959 0.0
O1293 O 0.01191 0.78291 0.21387 0.0
O1294 O 0.00229 0.79732 0.17385 0.0
O1295 O 0.99498 0.7565 0.18313 0.0
H1296 H 0.04361 0.73447 0.17755 0.0
H1297 H 0.04749 0.78639 0.14866 0.0
H1298 H 0.0604 0.72005 0.1507 0.0
H1299 H 0.06423 0.77104 0.12232 0.0
H1300 H 0.00282 0.75169 0.26919 0.0
H1301 H 0.04229 0.7931 0.23161 0.0
H1302 H 0.993 0.76109 0.23672 0.0
H1303 H 0.05118 0.78326 0.26421 0.0
H1304 H 0.0837 0.82418 0.18345 0.0
H1305 H 0.04454 0.84968 0.22145 0.0
H1306 H 0.01632 0.69459 0.21891 0.0
H1307 H 0.062 0.72705 0.2387 0.0
H1308 H 0.98406 0.82272 0.19311 0.0
H1309 H 0.02593 0.81371 0.15083 0.0
H1310 H 0.98904 0.85618 0.18994 0.0
H1311 H 0.03018 0.84735 0.14843 0.0
H1312 H 0.9734 0.75639 0.15275 0.0
H1313 H 0.97633 0.74388 0.21272 0.0
H1314 H 0.94092 0.74636 0.15276 0.0
H1315 H 0.94375 0.73419 0.21171 0.0
H1316 H 0.0116 0.73133 0.11034 0.0
H1317 H 0.00184 0.78869 0.09864 0.0
H1318 H 0.94843 0.80666 0.2419 0.0
H1319 H 0.92847 0.80139 0.18396 0.0
Li1320 Li 0.70264 0.023 0.69234 0.0
Li1321 Li 0.73392 0.01743 0.69979 0.0
Li1322 Li 0.72129 0.00964 0.66774 0.0
Li1323 Li 0.71199 0.99207 0.69698 0.0
C1324 C 0.72724 0.05183 0.68489 0.0
N1325 N 0.73386 0.08764 0.69562 0.0
C1326 C 0.72267 0.05778 0.70324 0.0
C1327 C 0.73517 0.06409 0.67199 0.0
C1328 C 0.72612 0.07594 0.70839 0.0
C1329 C 0.7384 0.08214 0.67768 0.0
C1330 C 0.71791 0.00557 0.73349 0.0
C1331 C 0.73715 0.98553 0.75212 0.0
N1332 N 0.72957 0.99232 0.76838 0.0
C1333 C 0.7103 0.01234 0.75038 0.0
C1334 C 0.73144 0.99205 0.73435 0.0
C1335 C 0.71639 0.00547 0.76788 0.0
C1336 C 0.67278 0.03797 0.71247 0.0
N1337 N 0.68295 0.03963 0.69633 0.0
C1338 C 0.66579 0.06589 0.68667 0.0
C1339 C 0.67967 0.05313 0.68341 0.0
C1340 C 0.65526 0.06479 0.70343 0.0
C1341 C 0.65879 0.05046 0.71633 0.0
H1342 H 0.67574 0.02708 0.72246 0.0
H1343 H 0.68797 0.05405 0.67065 0.0
C1344 C 0.77148 0.02584 0.7025 0.0
N1345 N 0.75528 0.02662 0.71203 0.0
C1346 C 0.78714 0.03397 0.71024 0.0
C1347 C 0.76917 0.04328 0.73754 0.0
C1348 C 0.75389 0.03501 0.72929 0.0
C1349 C 0.78603 0.04307 0.72788 0.0
H1350 H 0.77209 0.01932 0.68865 0.0
H1351 H 0.74081 0.03578 0.73643 0.0
C1352 C 0.67878 0.0052 0.67225 0.0
N1353 N 0.64253 0.01403 0.6657 0.0
C1354 C 0.66516 0.99894 0.68466 0.0
C1355 C 0.67398 0.01587 0.65646 0.0
C1356 C 0.64691 0.00358 0.68112 0.0
C1357 C 0.65557 0.0202 0.65341 0.0
C1358 C 0.74783 0.98034 0.68025 0.0
C1359 C 0.74405 0.97002 0.66392 0.0
C1360 C 0.76325 0.9762 0.69126 0.0
C1361 C 0.75563 0.95553 0.65902 0.0
C1362 C 0.7745 0.96161 0.68588 0.0
N1363 N 0.77049 0.95166 0.67001 0.0
C1364 C 0.74153 0.01672 0.63431 0.0
C1365 C 0.71475 0.99885 0.62984 0.0
C1366 C 0.74526 0.01621 0.61476 0.0
N1367 N 0.72644 0.00819 0.64136 0.0
C1368 C 0.71789 0.99805 0.61022 0.0
C1369 C 0.73326 0.0069 0.60243 0.0
H1370 H 0.75056 0.02406 0.64388 0.0
H1371 H 0.70295 0.99204 0.63591 0.0
C1372 C 0.69259 0.96852 0.72122 0.0
N1373 N 0.70434 0.96868 0.70617 0.0
C1374 C 0.68508 0.95208 0.72765 0.0
C1375 C 0.70193 0.93616 0.70303 0.0
C1376 C 0.70917 0.95294 0.69711 0.0
C1377 C 0.68954 0.93563 0.71836 0.0
H1378 H 0.68853 0.98126 0.72784 0.0
H1379 H 0.71818 0.95339 0.68494 0.0
O1380 O 0.72412 0.03409 0.67948 0.0
O1381 O 0.71208 0.0123 0.7163 0.0
O1382 O 0.69677 0.00123 0.67577 0.0
O1383 O 0.73688 0.99483 0.6851 0.0
H1384 H 0.71653 0.04851 0.71343 0.0
H1385 H 0.7388 0.05967 0.65773 0.0
H1386 H 0.72267 0.08072 0.72256 0.0
H1387 H 0.74454 0.09178 0.66785 0.0
H1388 H 0.7476 0.97505 0.75298 0.0
H1389 H 0.69984 0.02284 0.74996 0.0
H1390 H 0.7374 0.98657 0.72148 0.0
H1391 H 0.71063 0.01061 0.78107 0.0
H1392 H 0.66339 0.07655 0.67622 0.0
H1393 H 0.6512 0.0492 0.72954 0.0
H1394 H 0.79979 0.03369 0.70216 0.0
H1395 H 0.76772 0.04998 0.75125 0.0
H1396 H 0.66867 0.99076 0.69699 0.0
H1397 H 0.68438 0.02099 0.64683 0.0
H1398 H 0.63623 0.99892 0.69066 0.0
H1399 H 0.65165 0.02854 0.64131 0.0
H1400 H 0.73215 0.97299 0.65527 0.0
H1401 H 0.76654 0.98419 0.70381 0.0
H1402 H 0.75279 0.94736 0.64648 0.0
H1403 H 0.78645 0.95822 0.69429 0.0
H1404 H 0.75717 0.02335 0.60931 0.0
H1405 H 0.70845 0.9905 0.60126 0.0
H1406 H 0.67528 0.95237 0.73925 0.0
H1407 H 0.70575 0.92378 0.69549 0.0
H1408 H 0.4206 0.18409 0.25453 0.0
H1409 H 0.39339 0.16621 0.26289 0.0
H1410 H 0.3789 0.1624 0.20337 0.0
H1411 H 0.40632 0.17981 0.19481 0.0
H1412 H 0.35433 0.17025 0.25436 0.0
H1413 H 0.38646 0.10869 0.22148 0.0
H1414 H 0.39932 0.12914 0.2269 0.0
H1415 H 0.38457 0.12851 0.2064 0.0
C1416 C 0.41156 0.17954 0.24323 0.0
C1417 C 0.41574 0.18317 0.22399 0.0
C1418 C 0.39596 0.16947 0.24804 0.0
C1419 C 0.38432 0.16282 0.23372 0.0
C1420 C 0.38785 0.16729 0.2146 0.0
H1421 H 0.3037 0.07543 0.24174 0.0
H1422 H 0.32097 0.10186 0.22998 0.0
C1423 C 0.40345 0.17735 0.20976 0.0
C1424 C 0.36948 0.14989 0.2387 0.0
H1425 H 0.35737 0.10492 0.23511 0.0
C1426 C 0.35487 0.15598 0.25007 0.0
C1427 C 0.3703 0.13132 0.23307 0.0
C1428 C 0.38605 0.1239 0.22141 0.0
C1429 C 0.34102 0.14389 0.25602 0.0
C1430 C 0.34208 0.12521 0.25074 0.0
C1431 C 0.35652 0.11927 0.23905 0.0
C1432 C 0.32915 0.11121 0.25803 0.0
C1433 C 0.32538 0.15123 0.26782 0.0
C1434 C 0.32772 0.10791 0.27771 0.0
C1435 C 0.31783 0.09285 0.28445 0.0
C1436 C 0.30941 0.0807 0.2716 0.0
C1437 C 0.31021 0.08448 0.25195 0.0
C1438 C 0.32 0.09959 0.24523 0.0
H1439 H 0.32338 0.16614 0.26542 0.0
H1440 H 0.31238 0.14399 0.26452 0.0
H1441 H 0.32851 0.1492 0.28317 0.0
H1442 H 0.33505 0.1164 0.28783 0.0
H1443 H 0.31766 0.09014 0.29965 0.0
H1444 H 0.33099 0.41586 0.69422 0.0
H1445 H 0.35042 0.3908 0.70512 0.0
H1446 H 0.31595 0.38353 0.75451 0.0
H1447 H 0.29606 0.40847 0.74346 0.0
H1448 H 0.36777 0.3937 0.74265 0.0
H1449 H 0.32649 0.33009 0.73369 0.0
H1450 H 0.3222 0.35052 0.71981 0.0
H1451 H 0.31557 0.34969 0.74443 0.0
C1452 C 0.32717 0.40861 0.7071 0.0
C1453 C 0.31195 0.41416 0.71797 0.0
C1454 C 0.33836 0.39434 0.71335 0.0
C1455 C 0.33452 0.38527 0.73052 0.0
C1456 C 0.31898 0.39024 0.74108 0.0
H1457 H 0.40293 0.30864 0.79472 0.0
H1458 H 0.37664 0.3264 0.78302 0.0
C1459 C 0.30775 0.40458 0.73485 0.0
C1460 C 0.34804 0.3722 0.73831 0.0
H1461 H 0.35584 0.32694 0.74761 0.0
C1462 C 0.36517 0.37911 0.74376 0.0
C1463 C 0.34444 0.35325 0.73994 0.0
C1464 C 0.32623 0.3453 0.73409 0.0
C1465 C 0.37895 0.36753 0.75061 0.0
C1466 C 0.37564 0.34846 0.75161 0.0
C1467 C 0.35833 0.34156 0.74665 0.0
C1468 C 0.39032 0.33564 0.75737 0.0
C1469 C 0.39692 0.37585 0.75683 0.0
C1470 C 0.40636 0.33443 0.74643 0.0
C1471 C 0.42133 0.32446 0.7531 0.0
C1472 C 0.42045 0.31534 0.77073 0.0
C1473 C 0.40394 0.31553 0.78107 0.0
C1474 C 0.38896 0.32567 0.77443 0.0
H1475 H 0.39552 0.39069 0.76003 0.0
H1476 H 0.40237 0.36882 0.76969 0.0
H1477 H 0.4071 0.37434 0.74516 0.0
H1478 H 0.40752 0.34176 0.73304 0.0
H1479 H 0.43379 0.32425 0.74469 0.0
H1480 H 0.09495 0.30645 0.20214 0.0
H1481 H 0.1227 0.32255 0.21252 0.0
H1482 H 0.0956 0.33819 0.26475 0.0
H1483 H 0.06806 0.32186 0.25467 0.0
H1484 H 0.1234 0.35985 0.21956 0.0
H1485 H 0.14588 0.32194 0.28376 0.0
H1486 H 0.13037 0.31225 0.26638 0.0
H1487 H 0.12197 0.3276 0.28448 0.0
C1488 C 0.0951 0.31292 0.21605 0.0
C1489 C 0.07933 0.31296 0.22757 0.0
C1490 C 0.11091 0.32215 0.22192 0.0
C1491 C 0.11128 0.33136 0.2395 0.0
C1492 C 0.09576 0.33087 0.2513 0.0
H1493 H 0.163 0.41673 0.29916 0.0
H1494 H 0.14613 0.39005 0.28774 0.0
C1495 C 0.07995 0.32172 0.24543 0.0
C1496 C 0.12695 0.34324 0.24467 0.0
H1497 H 0.15634 0.3532 0.28109 0.0
C1498 C 0.13091 0.35821 0.2328 0.0
C1499 C 0.13668 0.34104 0.26196 0.0
C1500 C 0.13364 0.32473 0.27478 0.0
C1501 C 0.14351 0.37171 0.23836 0.0
C1502 C 0.15261 0.36996 0.25609 0.0
C1503 C 0.1493 0.35452 0.26753 0.0
C1504 C 0.16416 0.38489 0.26382 0.0
C1505 C 0.14614 0.38827 0.22573 0.0
C1506 C 0.18016 0.39055 0.25441 0.0
C1507 C 0.18987 0.40584 0.26093 0.0
C1508 C 0.18381 0.4156 0.27706 0.0
C1509 C 0.16818 0.4094 0.28685 0.0
C1510 C 0.15848 0.39419 0.2803 0.0
H1511 H 0.1356 0.3891 0.21433 0.0
H1512 H 0.14562 0.40106 0.23429 0.0
H1513 H 0.15978 0.38751 0.2188 0.0
H1514 H 0.18494 0.38334 0.24186 0.0
H1515 H 0.20202 0.41013 0.25326 0.0
H1516 H 0.18553 0.07569 0.75592 0.0
H1517 H 0.16765 0.1028 0.7646 0.0
H1518 H 0.16657 0.11964 0.70564 0.0
H1519 H 0.18399 0.09233 0.69672 0.0
H1520 H 0.17222 0.14222 0.75788 0.0
H1521 H 0.11207 0.11152 0.72094 0.0
H1522 H 0.13224 0.09839 0.7268 0.0
H1523 H 0.13254 0.11387 0.70689 0.0
C1524 C 0.1816 0.08524 0.74482 0.0
C1525 C 0.18597 0.08173 0.7256 0.0
C1526 C 0.17153 0.10078 0.74983 0.0
C1527 C 0.16562 0.11304 0.73572 0.0
C1528 C 0.17089 0.1102 0.71669 0.0
H1529 H 0.07789 0.19326 0.743 0.0
H1530 H 0.10486 0.1765 0.73178 0.0
C1531 C 0.18095 0.09466 0.71165 0.0
C1532 C 0.15253 0.12773 0.74069 0.0
H1533 H 0.10775 0.14004 0.7356 0.0
C1534 C 0.15815 0.14188 0.75292 0.0
C1535 C 0.13421 0.12715 0.73421 0.0
C1536 C 0.12727 0.11187 0.7216 0.0
C1537 C 0.14583 0.15552 0.75889 0.0
C1538 C 0.12738 0.15469 0.75274 0.0
C1539 C 0.12192 0.14072 0.74021 0.0
C1540 C 0.11309 0.16737 0.75989 0.0
C1541 C 0.15267 0.17068 0.77165 0.0
C1542 C 0.10898 0.16811 0.77945 0.0
C1543 C 0.09362 0.17772 0.78589 0.0
C1544 C 0.08197 0.18654 0.77283 0.0
C1545 C 0.08655 0.18644 0.75335 0.0
C1546 C 0.10197 0.17694 0.74694 0.0
H1547 H 0.16767 0.17276 0.76998 0.0
H1548 H 0.14556 0.1838 0.76859 0.0
H1549 H 0.15003 0.16695 0.78676 0.0
H1550 H 0.11707 0.16045 0.78966 0.0
H1551 H 0.09029 0.17737 0.80095 0.0
H1552 H 0.56863 0.81021 0.7408 0.0
H1553 H 0.59472 0.82812 0.72925 0.0
H1554 H 0.61266 0.83648 0.78727 0.0
H1555 H 0.58678 0.81837 0.79885 0.0
H1556 H 0.59949 0.86367 0.73733 0.0
H1557 H 0.66071 0.82522 0.76126 0.0
H1558 H 0.63812 0.81515 0.76075 0.0
H1559 H 0.64489 0.82964 0.78031 0.0
C1560 C 0.57833 0.81562 0.75105 0.0
C1561 C 0.57568 0.81293 0.77072 0.0
C1562 C 0.59325 0.82578 0.74444 0.0
C1563 C 0.60577 0.83347 0.75737 0.0
C1564 C 0.60347 0.83029 0.77699 0.0
H1565 H 0.68227 0.92275 0.75429 0.0
H1566 H 0.66325 0.89635 0.7629 0.0
C1567 C 0.58863 0.82 0.7836 0.0
C1568 C 0.61988 0.8465 0.75051 0.0
H1569 H 0.66557 0.85658 0.75216 0.0
C1570 C 0.61397 0.86197 0.74033 0.0
C1571 C 0.63875 0.84432 0.75456 0.0
C1572 C 0.64603 0.82759 0.76466 0.0
C1573 C 0.62631 0.87557 0.73455 0.0
C1574 C 0.6451 0.87356 0.7389 0.0
C1575 C 0.65112 0.85802 0.74887 0.0
C1576 C 0.65847 0.88793 0.73374 0.0
C1577 C 0.61909 0.8923 0.72436 0.0
C1578 C 0.66243 0.89155 0.71452 0.0
C1579 C 0.67319 0.90663 0.70956 0.0
C1580 C 0.68016 0.91834 0.72375 0.0
C1581 C 0.67688 0.91412 0.74304 0.0
C1582 C 0.66615 0.899 0.74799 0.0
H1583 H 0.60392 0.89329 0.72517 0.0
H1584 H 0.62511 0.90497 0.73049 0.0
H1585 H 0.62304 0.89163 0.70908 0.0
H1586 H 0.65667 0.88306 0.70335 0.0
H1587 H 0.67533 0.90959 0.69457 0.0
H1588 H 0.57847 0.69214 0.24902 0.0
H1589 H 0.60362 0.67191 0.25839 0.0
H1590 H 0.60648 0.65078 0.20099 0.0
H1591 H 0.58097 0.67042 0.19167 0.0
H1592 H 0.60271 0.62398 0.2279 0.0
H1593 H 0.6588 0.67125 0.24838 0.0
H1594 H 0.63733 0.67645 0.25964 0.0
H1595 H 0.63945 0.67845 0.23416 0.0
C1596 C 0.58458 0.68332 0.23835 0.0
C1597 C 0.57765 0.68286 0.21961 0.0
C1598 C 0.59911 0.67194 0.24366 0.0
C1599 C 0.60706 0.66 0.23032 0.0
C1600 C 0.60064 0.66001 0.21146 0.0
H1601 H 0.69481 0.58033 0.25116 0.0
H1602 H 0.67724 0.60628 0.23844 0.0
C1603 C 0.58611 0.67135 0.20613 0.0
C1604 C 0.62051 0.64602 0.23653 0.0
H1605 H 0.66172 0.64006 0.2588 0.0
C1606 C 0.6157 0.62752 0.23444 0.0
C1607 C 0.63749 0.65066 0.24497 0.0
C1608 C 0.64369 0.67028 0.24677 0.0
C1609 C 0.62714 0.61353 0.24114 0.0
C1610 C 0.64372 0.61817 0.25034 0.0
C1611 C 0.64889 0.63662 0.25187 0.0
C1612 C 0.65535 0.60391 0.25909 0.0
C1613 C 0.62133 0.59384 0.23853 0.0
C1614 C 0.64902 0.5944 0.27516 0.0
C1615 C 0.65899 0.5797 0.28247 0.0
C1616 C 0.67549 0.5742 0.27382 0.0
C1617 C 0.68219 0.58428 0.25818 0.0
C1618 C 0.67218 0.59905 0.25087 0.0
H1619 H 0.61034 0.59245 0.22765 0.0
H1620 H 0.63316 0.58522 0.23421 0.0
H1621 H 0.61603 0.58848 0.25229 0.0
H1622 H 0.63615 0.59813 0.2818 0.0
H1623 H 0.65366 0.57249 0.29479 0.0
H1624 H 0.92669 0.6871 0.74243 0.0
H1625 H 0.90059 0.66934 0.73068 0.0
H1626 H 0.88327 0.65938 0.78863 0.0
H1627 H 0.90924 0.67723 0.80045 0.0
H1628 H 0.89616 0.63324 0.73838 0.0
H1629 H 0.83494 0.67144 0.76292 0.0
H1630 H 0.8575 0.68157 0.76224 0.0
H1631 H 0.85102 0.66685 0.7817 0.0
C1632 C 0.91715 0.68134 0.75264 0.0
C1633 C 0.92002 0.68349 0.77235 0.0
C1634 C 0.90222 0.67128 0.74592 0.0
C1635 C 0.88987 0.6632 0.75877 0.0
C1636 C 0.89235 0.66586 0.77844 0.0
H1637 H 0.81173 0.57523 0.7537 0.0
H1638 H 0.831 0.60126 0.76287 0.0
C1639 C 0.90723 0.67602 0.78518 0.0
C1640 C 0.87576 0.65029 0.75169 0.0
H1641 H 0.83002 0.64043 0.75286 0.0
C1642 C 0.88167 0.63495 0.74132 0.0
C1643 C 0.85689 0.65249 0.75569 0.0
C1644 C 0.84966 0.66907 0.76609 0.0
C1645 C 0.86931 0.62147 0.73526 0.0
C1646 C 0.85048 0.62354 0.73946 0.0
C1647 C 0.84448 0.63895 0.74966 0.0
C1648 C 0.83705 0.60937 0.73386 0.0
C1649 C 0.87658 0.60483 0.72494 0.0
C1650 C 0.83368 0.60572 0.71453 0.0
C1651 C 0.82281 0.59081 0.70925 0.0
C1652 C 0.81508 0.57934 0.72323 0.0
C1653 C 0.81773 0.58364 0.74261 0.0
C1654 C 0.8286 0.59857 0.74787 0.0
H1655 H 0.89169 0.60354 0.7263 0.0
H1656 H 0.87013 0.59213 0.73053 0.0
H1657 H 0.8732 0.60592 0.70954 0.0
H1658 H 0.83998 0.61403 0.70353 0.0
H1659 H 0.82117 0.58781 0.69421 0.0
H1660 H 0.81641 0.9309 0.24065 0.0
H1661 H 0.83476 0.90529 0.22879 0.0
H1662 H 0.83658 0.88225 0.28542 0.0
H1663 H 0.81845 0.90794 0.29748 0.0
H1664 H 0.87048 0.89846 0.24381 0.0
H1665 H 0.82514 0.8376 0.25047 0.0
H1666 H 0.81637 0.86074 0.24964 0.0
H1667 H 0.82656 0.85212 0.27116 0.0
C1668 C 0.82056 0.92029 0.25056 0.0
C1669 C 0.81609 0.92152 0.27004 0.0
C1670 C 0.83093 0.90562 0.24373 0.0
C1671 C 0.83687 0.89183 0.25621 0.0
C1672 C 0.83181 0.89258 0.2755 0.0
H1673 H 0.91633 0.80392 0.24729 0.0
H1674 H 0.89147 0.82432 0.25718 0.0
C1675 C 0.82146 0.90728 0.28236 0.0
C1676 C 0.85007 0.87789 0.24946 0.0
H1677 H 0.85636 0.83198 0.24289 0.0
C1678 C 0.86736 0.88393 0.24346 0.0
C1679 C 0.84599 0.85897 0.24931 0.0
C1680 C 0.82747 0.85189 0.25535 0.0
C1681 C 0.88083 0.87153 0.23749 0.0
C1682 C 0.87671 0.85259 0.23703 0.0
C1683 C 0.85942 0.84651 0.24314 0.0
C1684 C 0.89034 0.83901 0.23039 0.0
C1685 C 0.89952 0.87882 0.23221 0.0
C1686 C 0.89751 0.84013 0.21186 0.0
C1687 C 0.9119 0.82875 0.20628 0.0
C1688 C 0.91924 0.81578 0.21903 0.0
C1689 C 0.91127 0.81399 0.23724 0.0
C1690 C 0.89695 0.82552 0.24286 0.0
H1691 H 0.90194 0.89268 0.23828 0.0
H1692 H 0.91054 0.86953 0.23729 0.0
H1693 H 0.90054 0.87989 0.21645 0.0
H1694 H 0.89235 0.85023 0.20189 0.0
H1695 H 0.91774 0.8307 0.19222 0.0
H1696 H 0.54644 0.29379 0.2669 0.0
H1697 H 0.56429 0.31884 0.28085 0.0
H1698 H 0.57152 0.34245 0.22492 0.0
H1699 H 0.55379 0.3175 0.21089 0.0
H1700 H 0.60032 0.32691 0.27246 0.0
H1701 H 0.55607 0.38664 0.25656 0.0
H1702 H 0.54784 0.36334 0.25535 0.0
H1703 H 0.56085 0.37288 0.23593 0.0
C1704 C 0.55174 0.30439 0.25759 0.0
C1705 C 0.54867 0.30368 0.23778 0.0
C1706 C 0.56185 0.31872 0.26559 0.0
C1707 C 0.569 0.33264 0.25396 0.0
C1708 C 0.56574 0.33211 0.23423 0.0
H1709 H 0.64631 0.42046 0.26087 0.0
H1710 H 0.62359 0.39733 0.25218 0.0
C1711 C 0.5556 0.31782 0.22622 0.0
C1712 C 0.58105 0.34693 0.26216 0.0
H1713 H 0.58712 0.3932 0.26522 0.0
C1714 C 0.59734 0.34141 0.27113 0.0
C1715 C 0.57711 0.36582 0.26036 0.0
C1716 C 0.55943 0.37255 0.25169 0.0
C1717 C 0.61016 0.35428 0.27765 0.0
C1718 C 0.60643 0.37316 0.2754 0.0
C1719 C 0.58995 0.3787 0.26686 0.0
C1720 C 0.61986 0.38737 0.281 0.0
C1721 C 0.62791 0.34756 0.28621 0.0
C1722 C 0.62512 0.38955 0.30013 0.0
C1723 C 0.63823 0.40266 0.30513 0.0
C1724 C 0.64626 0.41386 0.29108 0.0
C1725 C 0.64066 0.41183 0.27198 0.0
C1726 C 0.62757 0.39874 0.26701 0.0
H1727 H 0.63032 0.33282 0.28317 0.0
H1728 H 0.63969 0.35557 0.28066 0.0
H1729 H 0.62744 0.34936 0.30193 0.0
H1730 H 0.61912 0.38108 0.31117 0.0
H1731 H 0.6423 0.40382 0.31994 0.0
H1732 H 0.17423 0.53707 0.72191 0.0
H1733 H 0.14918 0.5549 0.73597 0.0
H1734 H 0.18777 0.58333 0.77187 0.0
H1735 H 0.21285 0.56532 0.75829 0.0
H1736 H 0.1411 0.56266 0.78091 0.0
H1737 H 0.1589 0.62131 0.73346 0.0
H1738 H 0.16432 0.59792 0.72723 0.0
H1739 H 0.17724 0.60941 0.74539 0.0
C1740 C 0.17735 0.54681 0.73311 0.0
C1741 C 0.19557 0.54991 0.73885 0.0
C1742 C 0.16304 0.55701 0.74106 0.0
C1743 C 0.16673 0.57043 0.75482 0.0
C1744 C 0.18474 0.57305 0.76117 0.0
H1745 H 0.10577 0.66234 0.79905 0.0
H1746 H 0.1292 0.6398 0.79063 0.0
C1747 C 0.19903 0.56285 0.7533 0.0
C1748 C 0.15204 0.58272 0.76153 0.0
H1749 H 0.13525 0.62592 0.7557 0.0
C1750 C 0.13972 0.57649 0.77543 0.0
C1751 C 0.15045 0.6007 0.75433 0.0
C1752 C 0.16333 0.60784 0.7392 0.0
C1753 C 0.12591 0.58801 0.7826 0.0
C1754 C 0.12423 0.60602 0.77531 0.0
C1755 C 0.13657 0.61213 0.76131 0.0
C1756 C 0.10988 0.61892 0.78191 0.0
C1757 C 0.11358 0.58094 0.79824 0.0
C1758 C 0.09122 0.61463 0.7799 0.0
C1759 C 0.07781 0.62747 0.78482 0.0
C1760 C 0.08284 0.64491 0.79152 0.0
C1761 C 0.10151 0.64907 0.79373 0.0
C1762 C 0.11489 0.63619 0.78899 0.0
H1763 H 0.11986 0.56919 0.8059 0.0
H1764 H 0.11039 0.59187 0.80875 0.0
H1765 H 0.10051 0.57615 0.79187 0.0
H1766 H 0.08704 0.60158 0.77401 0.0
H1767 H 0.06352 0.62399 0.78275 0.0
H1768 H 0.86874 0.07909 0.31519 0.0
H1769 H 0.89042 0.10313 0.3058 0.0
H1770 H 0.86412 0.10713 0.25085 0.0
H1771 H 0.84213 0.08365 0.26027 0.0
H1772 H 0.91508 0.10421 0.27458 0.0
H1773 H 0.86377 0.16003 0.2704 0.0
H1774 H 0.8592 0.13854 0.28224 0.0
H1775 H 0.85757 0.14021 0.25668 0.0
C1776 C 0.86749 0.08521 0.30117 0.0
C1777 C 0.85366 0.0795 0.2885 0.0
C1778 C 0.87994 0.09884 0.2958 0.0
C1779 C 0.87868 0.10707 0.27775 0.0
C1780 C 0.86513 0.10116 0.26497 0.0
H1781 H 0.93326 0.186 0.20824 0.0
H1782 H 0.91498 0.16139 0.22216 0.0
C1783 C 0.8527 0.08758 0.27031 0.0
C1784 C 0.89152 0.1218 0.27208 0.0
H1785 H 0.8928 0.16588 0.25595 0.0
C1786 C 0.91028 0.11777 0.27072 0.0
C1787 C 0.8852 0.13949 0.26717 0.0
C1788 C 0.86536 0.14492 0.26936 0.0
C1789 C 0.9228 0.13078 0.26374 0.0
C1790 C 0.91633 0.14823 0.25818 0.0
C1791 C 0.89767 0.15241 0.26009 0.0
C1792 C 0.92849 0.1622 0.24961 0.0
C1793 C 0.9427 0.1256 0.26167 0.0
C1794 C 0.94222 0.17072 0.26045 0.0
C1795 C 0.95278 0.18479 0.2525 0.0
C1796 C 0.94976 0.19053 0.23358 0.0
C1797 C 0.93616 0.18171 0.22273 0.0
C1798 C 0.9256 0.16773 0.23069 0.0
H1799 H 0.94491 0.11064 0.26349 0.0
H1800 H 0.94796 0.12978 0.24745 0.0
H1801 H 0.95085 0.13288 0.27267 0.0
H1802 H 0.94448 0.16678 0.27517 0.0
H1803 H 0.9632 0.19126 0.26119 0.0
H1804 H 0.31781 0.94092 0.71034 0.0
H1805 H 0.34317 0.92385 0.72452 0.0
H1806 H 0.3245 0.93889 0.78079 0.0
H1807 H 0.29894 0.95593 0.76667 0.0
H1808 H 0.37144 0.93446 0.74838 0.0
H1809 H 0.32646 0.88322 0.78384 0.0
H1810 H 0.31802 0.89901 0.76609 0.0
H1811 H 0.32199 0.90665 0.79012 0.0
C1812 C 0.31922 0.94079 0.72572 0.0
C1813 C 0.30633 0.94969 0.7374 0.0
C1814 C 0.33368 0.93097 0.73381 0.0
C1815 C 0.33553 0.92985 0.7537 0.0
C1816 C 0.32306 0.93923 0.76541 0.0
H1817 H 0.41414 0.86393 0.81896 0.0
H1818 H 0.39127 0.88708 0.81039 0.0
C1819 C 0.30851 0.94898 0.75733 0.0
C1820 C 0.35035 0.91852 0.76203 0.0
H1821 H 0.35826 0.88009 0.7886 0.0
C1822 C 0.36857 0.92263 0.75726 0.0
C1823 C 0.34655 0.90311 0.77365 0.0
C1824 C 0.32721 0.89758 0.77863 0.0
C1825 C 0.38309 0.91159 0.76356 0.0
C1826 C 0.37924 0.89595 0.77475 0.0
C1827 C 0.36111 0.89214 0.78004 0.0
C1828 C 0.39366 0.88264 0.77998 0.0
C1829 C 0.40243 0.91663 0.75809 0.0
C1830 C 0.4024 0.87242 0.7657 0.0
C1831 C 0.41527 0.85906 0.77052 0.0
C1832 C 0.41966 0.85565 0.78976 0.0
C1833 C 0.41094 0.86605 0.80403 0.0
C1834 C 0.39797 0.87936 0.79918 0.0
H1835 H 0.40353 0.93126 0.75388 0.0
H1836 H 0.41204 0.91396 0.77006 0.0
H1837 H 0.40676 0.90814 0.74575 0.0
H1838 H 0.39896 0.87448 0.75082 0.0
H1839 H 0.42139 0.85106 0.75917 0.0
H1840 H 0.5314 0.17105 0.77446 0.0
H1841 H 0.54994 0.14605 0.76127 0.0
H1842 H 0.58442 0.18538 0.7327 0.0
H1843 H 0.56634 0.2104 0.74614 0.0
H1844 H 0.55968 0.13742 0.72159 0.0
H1845 H 0.61955 0.15487 0.7671 0.0
H1846 H 0.59676 0.16327 0.77196 0.0
H1847 H 0.61035 0.17358 0.75347 0.0
C1848 C 0.54293 0.17436 0.76535 0.0
C1849 C 0.54745 0.19272 0.76143 0.0
C1850 C 0.55341 0.16008 0.75775 0.0
C1851 C 0.56864 0.16393 0.74623 0.0
C1852 C 0.57282 0.18217 0.74174 0.0
H1853 H 0.65766 0.10175 0.69769 0.0
H1854 H 0.63549 0.12526 0.70667 0.0
C1855 C 0.56235 0.19644 0.74929 0.0
C1856 C 0.58067 0.14897 0.73949 0.0
H1857 H 0.62413 0.13224 0.74343 0.0
C1858 C 0.57376 0.13619 0.72638 0.0
C1859 C 0.59898 0.14746 0.74585 0.0
C1860 C 0.60687 0.16041 0.76049 0.0
C1861 C 0.58489 0.12214 0.71906 0.0
C1862 C 0.60326 0.12072 0.72533 0.0
C1863 C 0.61007 0.13343 0.73858 0.0
C1864 C 0.61579 0.1062 0.71841 0.0
C1865 C 0.57705 0.10924 0.70436 0.0
C1866 C 0.61202 0.08766 0.72195 0.0
C1867 C 0.62461 0.07415 0.71668 0.0
C1868 C 0.64127 0.07895 0.70789 0.0
C1869 C 0.64485 0.09753 0.70414 0.0
C1870 C 0.63225 0.11101 0.70938 0.0
H1871 H 0.56459 0.11499 0.6975 0.0
H1872 H 0.58729 0.1061 0.69311 0.0
H1873 H 0.57317 0.0962 0.71142 0.0
H1874 H 0.59955 0.08367 0.72922 0.0
H1875 H 0.62136 0.05995 0.71963 0.0
H1876 H 0.39426 0.65424 0.19398 0.0
H1877 H 0.37216 0.63082 0.20369 0.0
H1878 H 0.41397 0.60384 0.23684 0.0
H1879 H 0.43606 0.62747 0.22762 0.0
H1880 H 0.37328 0.59165 0.19955 0.0
H1881 H 0.37233 0.61402 0.27549 0.0
H1882 H 0.38174 0.62805 0.25668 0.0
H1883 H 0.3945 0.60889 0.2657 0.0
C1884 C 0.39874 0.64336 0.2034 0.0
C1885 C 0.41687 0.64281 0.21018 0.0
C1886 C 0.38614 0.62993 0.20881 0.0
C1887 C 0.3914 0.61576 0.22116 0.0
C1888 C 0.4096 0.61481 0.22749 0.0
H1889 H 0.32288 0.53515 0.27934 0.0
H1890 H 0.34944 0.5514 0.26639 0.0
C1891 C 0.42223 0.62824 0.22207 0.0
C1892 C 0.37761 0.60235 0.22783 0.0
H1893 H 0.354 0.58868 0.26738 0.0
C1894 C 0.36911 0.59091 0.21439 0.0
C1895 C 0.37226 0.60142 0.2472 0.0
C1896 C 0.38054 0.61382 0.26213 0.0
C1897 C 0.35528 0.57859 0.21981 0.0
C1898 C 0.34961 0.57799 0.23911 0.0
C1899 C 0.35841 0.58914 0.25261 0.0
C1900 C 0.33388 0.56673 0.24552 0.0
C1901 C 0.34693 0.5663 0.20485 0.0
C1902 C 0.31635 0.56987 0.23799 0.0
C1903 C 0.30118 0.56053 0.24527 0.0
C1904 C 0.30322 0.54798 0.26035 0.0
C1905 C 0.32087 0.54455 0.26758 0.0
C1906 C 0.33604 0.5539 0.26027 0.0
H1907 H 0.35636 0.5643 0.19258 0.0
H1908 H 0.34337 0.55269 0.21089 0.0
H1909 H 0.3342 0.57272 0.19936 0.0
H1910 H 0.31429 0.57997 0.22687 0.0
H1911 H 0.2878 0.56335 0.23927 0.0
H1912 H 0.83516 0.39294 0.70581 0.0
H1913 H 0.85816 0.37036 0.71518 0.0
H1914 H 0.89772 0.41353 0.72335 0.0
H1915 H 0.87457 0.43631 0.71466 0.0
H1916 H 0.89247 0.36249 0.69953 0.0
H1917 H 0.8984 0.38663 0.7746 0.0
H1918 H 0.88002 0.39377 0.75908 0.0
H1919 H 0.9024 0.40373 0.75664 0.0
C1920 C 0.8487 0.39766 0.70976 0.0
C1921 C 0.85297 0.41645 0.70969 0.0
C1922 C 0.86187 0.38473 0.71496 0.0
C1923 C 0.87955 0.3903 0.72023 0.0
C1924 C 0.88405 0.40898 0.71964 0.0
H1925 H 0.96861 0.32177 0.76487 0.0
H1926 H 0.95171 0.34769 0.75128 0.0
C1927 C 0.87087 0.42195 0.71447 0.0
C1928 C 0.89306 0.37647 0.72659 0.0
H1929 H 0.91723 0.36193 0.76548 0.0
C1930 C 0.89798 0.36242 0.71391 0.0
C1931 C 0.90025 0.37646 0.74535 0.0
C1932 C 0.89493 0.39085 0.7598 0.0
C1933 C 0.90968 0.34818 0.71958 0.0
C1934 C 0.91644 0.34791 0.73848 0.0
C1935 C 0.91202 0.36225 0.75098 0.0
C1936 C 0.92698 0.33219 0.74598 0.0
C1937 C 0.91461 0.33345 0.70539 0.0
C1938 C 0.91856 0.31502 0.74767 0.0
C1939 C 0.92804 0.30028 0.75562 0.0
C1940 C 0.94619 0.30241 0.76203 0.0
C1941 C 0.95461 0.31968 0.76025 0.0
C1942 C 0.94504 0.33447 0.75238 0.0
H1943 H 0.91242 0.33809 0.69045 0.0
H1944 H 0.92913 0.32918 0.70707 0.0
H1945 H 0.90582 0.32128 0.70789 0.0
H1946 H 0.90448 0.3131 0.7432 0.0
H1947 H 0.92096 0.28733 0.75716 0.0
H1948 H 0.0607 0.87592 0.20795 0.0
H1949 H 0.08352 0.89888 0.2173 0.0
H1950 H 0.12508 0.85694 0.21908 0.0
H1951 H 0.10244 0.83397 0.20997 0.0
H1952 H 0.10482 0.89937 0.25054 0.0
H1953 H 0.14883 0.89672 0.18622 0.0
H1954 H 0.12587 0.88751 0.18663 0.0
H1955 H 0.14464 0.87453 0.19633 0.0
C1956 C 0.0747 0.8716 0.21034 0.0
C1957 C 0.07978 0.85313 0.20809 0.0
C1958 C 0.08772 0.88474 0.21557 0.0
C1959 C 0.10604 0.87965 0.21852 0.0
C1960 C 0.11111 0.86124 0.21637 0.0
H1961 H 0.20631 0.91932 0.26354 0.0
H1962 H 0.18056 0.90291 0.24938 0.0
C1963 C 0.09815 0.84812 0.21115 0.0
C1964 C 0.11977 0.89329 0.22483 0.0
H1965 H 0.16208 0.91033 0.21414 0.0
C1966 C 0.11721 0.90203 0.24247 0.0
C1967 C 0.13588 0.89675 0.21421 0.0
C1968 C 0.13892 0.88852 0.1947 0.0
C1969 C 0.13081 0.91339 0.25026 0.0
C1970 C 0.14724 0.91623 0.23998 0.0
C1971 C 0.14949 0.90804 0.22202 0.0
C1972 C 0.16279 0.92659 0.24817 0.0
C1973 C 0.12789 0.92158 0.26981 0.0
C1974 C 0.16136 0.9454 0.252 0.0
C1975 C 0.17613 0.95488 0.26003 0.0
C1976 C 0.1926 0.9457 0.26425 0.0
C1977 C 0.19396 0.92688 0.2602 0.0
C1978 C 0.17922 0.91745 0.25219 0.0
H1979 H 0.11594 0.91542 0.27724 0.0
H1980 H 0.14026 0.91967 0.27882 0.0
H1981 H 0.12541 0.93651 0.26837 0.0
H1982 H 0.14887 0.95275 0.24871 0.0
H1983 H 0.17473 0.96942 0.26273 0.0
H1984 H 0.3548 0.56348 0.74177 0.0
H1985 H 0.3762 0.58692 0.75284 0.0
H1986 H 0.3775 0.61051 0.69644 0.0
H1987 H 0.35668 0.58667 0.68501 0.0
H1988 H 0.41193 0.60921 0.71386 0.0
H1989 H 0.35953 0.6397 0.76179 0.0
H1990 H 0.36391 0.61583 0.76597 0.0
H1991 H 0.3539 0.62299 0.74375 0.0
C1992 C 0.35989 0.57343 0.7316 0.0
C1993 C 0.35389 0.57328 0.71252 0.0
C1994 C 0.37197 0.58694 0.73802 0.0
C1995 C 0.37813 0.60065 0.72555 0.0
C1996 C 0.37277 0.60013 0.70633 0.0
H1997 H 0.41884 0.70767 0.75471 0.0
H1998 H 0.40214 0.68117 0.74263 0.0
C1999 C 0.36076 0.58659 0.69987 0.0
C2000 C 0.38958 0.61594 0.73265 0.0
H2001 H 0.38937 0.65215 0.76347 0.0
C2002 C 0.40705 0.6186 0.72473 0.0
C2003 C 0.38303 0.6283 0.74663 0.0
C2004 C 0.36401 0.62672 0.75493 0.0
C2005 C 0.41819 0.63328 0.7305 0.0
C2006 C 0.41177 0.6454 0.74476 0.0
C2007 C 0.3943 0.64274 0.75264 0.0
C2008 C 0.42259 0.66139 0.75128 0.0
C2009 C 0.43652 0.63597 0.72093 0.0
C2010 C 0.43966 0.65907 0.76018 0.0
C2011 C 0.44938 0.67426 0.76694 0.0
C2012 C 0.44213 0.69203 0.76502 0.0
C2013 C 0.42501 0.69425 0.7561 0.0
C2014 C 0.41536 0.67909 0.74932 0.0
H2015 H 0.43743 0.62833 0.70724 0.0
H2016 H 0.43912 0.6507 0.71808 0.0
H2017 H 0.4475 0.63086 0.73049 0.0
H2018 H 0.44534 0.6455 0.76215 0.0
H2019 H 0.46256 0.67209 0.77365 0.0
H2020 H 0.92548 0.37124 0.19236 0.0
H2021 H 0.9022 0.39363 0.20184 0.0
H2022 H 0.87863 0.3542 0.24051 0.0
H2023 H 0.90191 0.33183 0.23134 0.0
H2024 H 0.85287 0.37232 0.21674 0.0
H2025 H 0.89963 0.42103 0.25355 0.0
H2026 H 0.90585 0.41496 0.22953 0.0
H2027 H 0.90623 0.39782 0.2479 0.0
C2028 C 0.91545 0.36739 0.20302 0.0
C2029 C 0.91557 0.34974 0.21111 0.0
C2030 C 0.90216 0.3802 0.2084 0.0
C2031 C 0.88883 0.37561 0.22201 0.0
C2032 C 0.88881 0.35799 0.22997 0.0
H2033 H 0.8145 0.43832 0.2905 0.0
H2034 H 0.83954 0.42009 0.27732 0.0
C2035 C 0.90207 0.3452 0.22463 0.0
C2036 C 0.87469 0.38902 0.22786 0.0
H2037 H 0.86846 0.42951 0.25139 0.0
C2038 C 0.85626 0.38488 0.22422 0.0
C2039 C 0.87921 0.40529 0.23775 0.0
C2040 C 0.89878 0.41006 0.24259 0.0
C2041 C 0.84215 0.39654 0.23034 0.0
C2042 C 0.84666 0.41286 0.24016 0.0
C2043 C 0.8651 0.41706 0.2437 0.0
C2044 C 0.83232 0.42515 0.24786 0.0
C2045 C 0.82252 0.39103 0.2268 0.0
C2046 C 0.82024 0.43438 0.23562 0.0
C2047 C 0.80595 0.44493 0.2431 0.0
C2048 C 0.80354 0.44646 0.26297 0.0
C2049 C 0.81608 0.43765 0.27515 0.0
C2050 C 0.83035 0.42714 0.26765 0.0
H2051 H 0.82132 0.37643 0.22249 0.0
H2052 H 0.81406 0.39328 0.23977 0.0
H2053 H 0.81677 0.39959 0.21516 0.0
H2054 H 0.82174 0.43325 0.22028 0.0
H2055 H 0.79672 0.45178 0.23333 0.0
H2056 H 0.04277 0.80079 0.73611 0.0
H2057 H 0.06041 0.82642 0.72298 0.0
H2058 H 0.07807 0.84108 0.77971 0.0
H2059 H 0.06031 0.81567 0.79293 0.0
H2060 H 0.06925 0.87119 0.75812 0.0
H2061 H 0.11583 0.82475 0.71824 0.0
H2062 H 0.09205 0.82218 0.7123 0.0
H2063 H 0.09987 0.8165 0.7359 0.0
C2064 C 0.05037 0.80954 0.74577 0.0
C2065 C 0.05028 0.80616 0.76553 0.0
C2066 C 0.06046 0.82413 0.73826 0.0
C2067 C 0.07084 0.83541 0.75034 0.0
C2068 C 0.0702 0.8325 0.77013 0.0
H2069 H 0.16594 0.90006 0.72495 0.0
H2070 H 0.1434 0.87725 0.73495 0.0
C2071 C 0.05999 0.81802 0.77767 0.0
C2072 C 0.08294 0.84985 0.74242 0.0
H2073 H 0.12028 0.8565 0.71392 0.0
C2074 C 0.08038 0.86802 0.7484 0.0
C2075 C 0.09758 0.8456 0.72994 0.0
C2076 C 0.10166 0.82619 0.72383 0.0
C2077 C 0.09216 0.88208 0.74234 0.0
C2078 C 0.10664 0.87786 0.72964 0.0
C2079 C 0.10908 0.85971 0.72354 0.0
C2080 C 0.1201 0.89182 0.72334 0.0
C2081 C 0.08937 0.90115 0.75013 0.0
C2082 C 0.11452 0.9075 0.71329 0.0
C2083 C 0.12739 0.92062 0.70763 0.0
C2084 C 0.14609 0.91812 0.71168 0.0
C2085 C 0.15166 0.90226 0.72145 0.0
C2086 C 0.13879 0.88926 0.72723 0.0
H2087 H 0.08074 0.90111 0.76318 0.0
H2088 H 0.10269 0.90771 0.75357 0.0
H2089 H 0.08237 0.90965 0.73922 0.0
H2090 H 0.10023 0.90954 0.70973 0.0
H2091 H 0.12276 0.9326 0.6999 0.0
H2092 H 0.59905 0.16431 0.22312 0.0
H2093 H 0.62218 0.14172 0.23207 0.0
H2094 H 0.58864 0.09858 0.20867 0.0
H2095 H 0.56528 0.12116 0.19981 0.0
H2096 H 0.60205 0.08969 0.24358 0.0
H2097 H 0.65826 0.11545 0.19792 0.0
H2098 H 0.64909 0.13304 0.21303 0.0
H2099 H 0.63482 0.1228 0.19499 0.0
C2100 C 0.59671 0.15004 0.21964 0.0
C2101 C 0.58041 0.14452 0.21063 0.0
C2102 C 0.60995 0.13715 0.22473 0.0
C2103 C 0.6073 0.11851 0.22069 0.0
C2104 C 0.591 0.11291 0.21182 0.0
H2105 H 0.69859 0.04226 0.23586 0.0
H2106 H 0.67266 0.05893 0.22209 0.0
C2107 C 0.57766 0.12581 0.20682 0.0
C2108 C 0.62129 0.10485 0.22643 0.0
H2109 H 0.66692 0.09518 0.2233 0.0
C2110 C 0.61619 0.09075 0.23898 0.0
C2111 C 0.63967 0.10602 0.22014 0.0
C2112 C 0.64576 0.12003 0.20562 0.0
C2113 C 0.62916 0.07827 0.24605 0.0
C2114 C 0.64776 0.08021 0.24075 0.0
C2115 C 0.65269 0.09383 0.22756 0.0
C2116 C 0.66248 0.06881 0.24922 0.0
C2117 C 0.62278 0.06312 0.25911 0.0
C2118 C 0.66534 0.06879 0.26904 0.0
C2119 C 0.68009 0.05925 0.27693 0.0
C2120 C 0.69243 0.04975 0.26512 0.0
C2121 C 0.6894 0.04958 0.2453 0.0
C2122 C 0.67457 0.05904 0.23743 0.0
H2123 H 0.60808 0.05987 0.25675 0.0
H2124 H 0.63094 0.05045 0.25699 0.0
H2125 H 0.62436 0.06759 0.27415 0.0
H2126 H 0.6565 0.07665 0.27837 0.0
H2127 H 0.68224 0.05991 0.29221 0.0
H2128 H 0.45092 0.82253 0.21218 0.0
H2129 H 0.43397 0.84889 0.22462 0.0
H2130 H 0.42257 0.81919 0.27647 0.0
H2131 H 0.43973 0.79286 0.26427 0.0
H2132 H 0.39605 0.84659 0.23532 0.0
H2133 H 0.43995 0.87041 0.29517 0.0
H2134 H 0.44857 0.85627 0.27599 0.0
H2135 H 0.43513 0.84626 0.29476 0.0
C2136 C 0.44516 0.82176 0.22641 0.0
C2137 C 0.44665 0.80562 0.23725 0.0
C2138 C 0.43541 0.83679 0.23344 0.0
C2139 C 0.42718 0.83603 0.25151 0.0
C2140 C 0.42906 0.82014 0.2626 0.0
H2141 H 0.35236 0.90477 0.31527 0.0
H2142 H 0.37406 0.88139 0.30456 0.0
C2143 C 0.43872 0.80507 0.25554 0.0
C2144 C 0.4153 0.8512 0.25806 0.0
H2145 H 0.41027 0.88354 0.29287 0.0
C2146 C 0.3992 0.85478 0.24781 0.0
C2147 C 0.41942 0.86169 0.27447 0.0
C2148 C 0.43677 0.85862 0.2857 0.0
C2149 C 0.38687 0.86837 0.25372 0.0
C2150 C 0.39101 0.87898 0.27007 0.0
C2151 C 0.40716 0.87542 0.28032 0.0
C2152 C 0.37859 0.89366 0.27685 0.0
C2153 C 0.36926 0.87084 0.24272 0.0
C2154 C 0.37424 0.90851 0.26498 0.0
C2155 C 0.36166 0.92174 0.27093 0.0
C2156 C 0.35333 0.92052 0.28901 0.0
C2157 C 0.35824 0.90596 0.30114 0.0
C2158 C 0.37076 0.89267 0.29511 0.0
H2159 H 0.36591 0.85855 0.23404 0.0
H2160 H 0.35761 0.87367 0.25248 0.0
H2161 H 0.37073 0.88263 0.23285 0.0
H2162 H 0.3804 0.90974 0.25098 0.0
H2163 H 0.35812 0.93265 0.26114 0.0
H2164 H 0.70487 0.44598 0.76775 0.0
H2165 H 0.67979 0.42761 0.78087 0.0
H2166 H 0.65355 0.42701 0.72574 0.0
H2167 H 0.67857 0.44529 0.71249 0.0
H2168 H 0.62913 0.43258 0.75661 0.0
H2169 H 0.67495 0.37276 0.76811 0.0
H2170 H 0.68225 0.39363 0.77936 0.0
H2171 H 0.68156 0.39219 0.75377 0.0
C2172 C 0.69373 0.44197 0.75844 0.0
C2173 C 0.69379 0.44695 0.73904 0.0
C2174 C 0.67943 0.4315 0.76595 0.0
C2175 C 0.665 0.42571 0.75418 0.0
C2176 C 0.66459 0.43132 0.73504 0.0
H2177 H 0.59216 0.33404 0.76625 0.0
H2178 H 0.61533 0.35652 0.75702 0.0
C2179 C 0.67887 0.44183 0.72752 0.0
C2180 C 0.65076 0.41311 0.76151 0.0
H2181 H 0.64434 0.36973 0.77842 0.0
C2182 C 0.63242 0.41886 0.76146 0.0
C2183 C 0.65513 0.39515 0.76758 0.0
C2184 C 0.67451 0.38794 0.7671 0.0
C2185 C 0.61828 0.40709 0.76733 0.0
C2186 C 0.62269 0.38921 0.77361 0.0
C2187 C 0.64104 0.3835 0.77372 0.0
C2188 C 0.60843 0.37584 0.77931 0.0
C2189 C 0.59872 0.41368 0.7662 0.0
C2190 C 0.59699 0.37919 0.79502 0.0
C2191 C 0.58374 0.36633 0.80037 0.0
C2192 C 0.58184 0.34983 0.79019 0.0
C2193 C 0.59344 0.3465 0.77454 0.0
C2194 C 0.60661 0.35937 0.76919 0.0
H2195 H 0.59737 0.42602 0.75701 0.0
H2196 H 0.58962 0.40278 0.76053 0.0
H2197 H 0.59389 0.41732 0.78073 0.0
H2198 H 0.59844 0.39165 0.80328 0.0
H2199 H 0.57518 0.36918 0.81264 0.0
H2200 H 0.16279 0.59593 0.27179 0.0
H2201 H 0.13999 0.61926 0.26391 0.0
H2202 H 0.09927 0.5896 0.29619 0.0
H2203 H 0.12197 0.56574 0.30332 0.0
H2204 H 0.08477 0.60144 0.26463 0.0
H2205 H 0.12193 0.65933 0.2972 0.0
H2206 H 0.13596 0.64841 0.27959 0.0
H2207 H 0.12902 0.6359 0.30059 0.0
C2208 C 0.14898 0.59447 0.27724 0.0
C2209 C 0.14411 0.57919 0.28827 0.0
C2210 C 0.136 0.60786 0.27288 0.0
C2211 C 0.11803 0.60649 0.27992 0.0
C2212 C 0.11308 0.59104 0.29073 0.0
H2213 H 0.05009 0.70444 0.2674 0.0
H2214 H 0.06632 0.67835 0.28152 0.0
C2215 C 0.12601 0.57744 0.29479 0.0
C2216 C 0.10435 0.62094 0.27548 0.0
H2217 H 0.09857 0.66728 0.27441 0.0
C2218 C 0.08767 0.61583 0.26701 0.0
C2219 C 0.10785 0.6397 0.27904 0.0
C2220 C 0.12457 0.64612 0.28981 0.0
C2221 C 0.07481 0.62901 0.26122 0.0
C2222 C 0.07905 0.64784 0.26327 0.0
C2223 C 0.09536 0.65288 0.27252 0.0
C2224 C 0.06728 0.6626 0.25531 0.0
C2225 C 0.05678 0.62253 0.25313 0.0
C2226 C 0.06219 0.66239 0.23596 0.0
C2227 C 0.05255 0.67708 0.22805 0.0
C2228 C 0.0483 0.69246 0.23921 0.0
C2229 C 0.05323 0.69267 0.25856 0.0
C2230 C 0.06251 0.6778 0.26659 0.0
H2231 H 0.0529 0.60898 0.25911 0.0
H2232 H 0.04557 0.6324 0.25612 0.0
H2233 H 0.05812 0.6209 0.23745 0.0
H2234 H 0.06622 0.65118 0.22676 0.0
H2235 H 0.04914 0.67679 0.213 0.0
H2236 H 0.93151 0.13868 0.7594 0.0
H2237 H 0.90783 0.11733 0.74878 0.0
H2238 H 0.88156 0.12099 0.80376 0.0
H2239 H 0.90553 0.14193 0.81476 0.0
H2240 H 0.88331 0.08481 0.78858 0.0
H2241 H 0.85553 0.13505 0.73649 0.0
H2242 H 0.87954 0.13023 0.73397 0.0
H2243 H 0.87134 0.14145 0.75514 0.0
C2244 C 0.92089 0.13471 0.76937 0.0
C2245 C 0.92035 0.14212 0.78791 0.0
C2246 C 0.90727 0.12265 0.7632 0.0
C2247 C 0.89281 0.11784 0.77539 0.0
C2248 C 0.89256 0.12464 0.79411 0.0
H2249 H 0.78624 0.07667 0.74501 0.0
H2250 H 0.81252 0.09365 0.75725 0.0
C2251 C 0.90618 0.13671 0.80031 0.0
C2252 C 0.87755 0.10628 0.7684 0.0
H2253 H 0.84248 0.10544 0.73621 0.0
C2254 C 0.87438 0.08926 0.77712 0.0
C2255 C 0.86582 0.11228 0.75361 0.0
C2256 C 0.86807 0.13082 0.74433 0.0
C2257 C 0.8598 0.078 0.77132 0.0
C2258 C 0.84828 0.08388 0.75628 0.0
C2259 C 0.85143 0.10092 0.74764 0.0
C2260 C 0.83242 0.07292 0.74969 0.0
C2261 C 0.85657 0.06013 0.7816 0.0
C2262 C 0.8349 0.05562 0.74135 0.0
C2263 C 0.81985 0.04578 0.73444 0.0
C2264 C 0.80206 0.05312 0.73572 0.0
C2265 C 0.79969 0.07046 0.74412 0.0
C2266 C 0.81471 0.08025 0.751 0.0
H2267 H 0.86391 0.05961 0.79548 0.0
H2268 H 0.84172 0.05794 0.78421 0.0
H2269 H 0.86162 0.04868 0.77262 0.0
H2270 H 0.8485 0.04986 0.73991 0.0
H2271 H 0.82213 0.03243 0.72813 0.0
H2272 H 0.52559 0.25563 0.0811 0.0
H2273 H 0.52438 0.26083 0.04664 0.0
H2274 H 0.48001 0.22213 0.04183 0.0
H2275 H 0.48088 0.21706 0.07633 0.0
H2276 H 0.50929 0.21684 0.01531 0.0
H2277 H 0.48422 0.28871 0.01636 0.0
H2278 H 0.50389 0.28431 0.0311 0.0
H2279 H 0.48238 0.27366 0.03674 0.0
C2280 C 0.51539 0.24842 0.07277 0.0
C2281 C 0.50329 0.23596 0.08149 0.0
C2282 C 0.51474 0.25139 0.05308 0.0
C2283 C 0.50198 0.24201 0.04177 0.0
C2284 C 0.48994 0.22952 0.05036 0.0
H2285 H 0.47421 0.26264 0.92301 0.0
H2286 H 0.47345 0.25776 0.95756 0.0
C2287 C 0.49053 0.22657 0.07005 0.0
C2288 C 0.50154 0.24479 0.02086 0.0
H2289 H 0.49389 0.27696 0.9864 0.0
C2290 C 0.50587 0.22995 0.00896 0.0
C2291 C 0.49688 0.26187 0.01268 0.0
C2292 C 0.49142 0.27804 0.02483 0.0
C2293 C 0.50602 0.23185 0.98903 0.0
C2294 C 0.50188 0.24907 0.98087 0.0
C2295 C 0.49719 0.26381 0.99275 0.0
C2296 C 0.50242 0.25206 0.96 0.0
C2297 C 0.51043 0.21538 0.97685 0.0
C2298 C 0.51902 0.25069 0.95004 0.0
C2299 C 0.51954 0.2536 0.93034 0.0
C2300 C 0.50347 0.25798 0.92025 0.0
C2301 C 0.48687 0.25948 0.93036 0.0
C2302 C 0.48638 0.25661 0.95007 0.0
H2303 H 0.50906 0.20238 0.98497 0.0
H2304 H 0.50131 0.21479 0.96418 0.0
H2305 H 0.52477 0.21645 0.97171 0.0
H2306 H 0.53161 0.24753 0.95753 0.0
H2307 H 0.53261 0.25269 0.92308 0.0
H2308 H 0.21223 0.52289 0.42445 0.0
H2309 H 0.21749 0.52271 0.45887 0.0
H2310 H 0.26728 0.49193 0.45059 0.0
H2311 H 0.26174 0.49137 0.41617 0.0
H2312 H 0.24595 0.47807 0.47942 0.0
H2313 H 0.25482 0.55306 0.48812 0.0
H2314 H 0.23371 0.54683 0.47671 0.0
H2315 H 0.25513 0.54201 0.46507 0.0
C2316 C 0.22423 0.51596 0.42994 0.0
C2317 C 0.23658 0.50716 0.41753 0.0
C2318 C 0.22734 0.51608 0.44961 0.0
C2319 C 0.24293 0.50758 0.45724 0.0
C2320 C 0.25523 0.4987 0.44495 0.0
H2321 H 0.28462 0.52107 0.57226 0.0
H2322 H 0.27996 0.52088 0.53772 0.0
C2323 C 0.25211 0.49851 0.42528 0.0
C2324 C 0.24618 0.50754 0.47811 0.0
H2325 H 0.25198 0.53557 0.51663 0.0
C2326 C 0.24734 0.49063 0.48757 0.0
C2327 C 0.24821 0.52395 0.48864 0.0
C2328 C 0.24809 0.54249 0.47911 0.0
C2329 C 0.25022 0.48968 0.50734 0.0
C2330 C 0.25159 0.50611 0.51797 0.0
C2331 C 0.25071 0.52301 0.50847 0.0
C2332 C 0.25431 0.50606 0.53891 0.0
C2333 C 0.25208 0.47111 0.51661 0.0
C2334 C 0.24132 0.49798 0.55104 0.0
C2335 C 0.24405 0.49788 0.57079 0.0
C2336 C 0.25975 0.50601 0.57877 0.0
C2337 C 0.27256 0.51438 0.56656 0.0
C2338 C 0.26985 0.51442 0.54684 0.0
H2339 H 0.25563 0.46034 0.50603 0.0
H2340 H 0.26274 0.47129 0.52791 0.0
H2341 H 0.23884 0.46729 0.5233 0.0
H2342 H 0.22905 0.49178 0.54525 0.0
H2343 H 0.23397 0.49122 0.57976 0.0
H2344 H 0.96585 0.25217 0.07679 0.0
H2345 H 0.9672 0.24682 0.04238 0.0
H2346 H 0.02387 0.26339 0.04178 0.0
H2347 H 0.02283 0.2684 0.0763 0.0
H2348 H 0.00064 0.27992 0.01276 0.0
H2349 H 0.99514 0.20403 0.01552 0.0
H2350 H 0.97813 0.21628 0.029 0.0
H2351 H 0.00178 0.21762 0.03592 0.0
C2352 C 0.97869 0.25445 0.06942 0.0
C2353 C 0.99427 0.26061 0.07936 0.0
C2354 C 0.9794 0.25144 0.04975 0.0
C2355 C 0.99568 0.25453 0.03964 0.0
C2356 C 0.01119 0.26091 0.04939 0.0
H2357 H 0.01922 0.22073 0.92315 0.0
H2358 H 0.02028 0.22627 0.95758 0.0
C2359 C 0.01053 0.26385 0.06909 0.0
C2360 C 0.99642 0.25132 0.01881 0.0
H2361 H 0.99274 0.21788 0.98499 0.0
C2362 C 0.999 0.26636 0.00665 0.0
C2363 C 0.99445 0.23358 0.01098 0.0
C2364 C 0.99237 0.21689 0.02349 0.0
C2365 C 0.99924 0.26418 0.98675 0.0
C2366 C 0.99669 0.24651 0.97889 0.0
C2367 C 0.99454 0.23142 0.99108 0.0
C2368 C 0.99611 0.24341 0.95803 0.0
C2369 C 0.00237 0.28074 0.97428 0.0
C2370 C 0.98205 0.25105 0.94697 0.0
C2371 C 0.98131 0.2478 0.92734 0.0
C2372 C 0.99462 0.23679 0.91841 0.0
C2373 C 0.00865 0.22909 0.9296 0.0
C2374 C 0.00934 0.23232 0.94924 0.0
H2375 H 0.00843 0.2923 0.98244 0.0
H2376 H 0.01154 0.27736 0.96214 0.0
H2377 H 0.98905 0.28537 0.96836 0.0
H2378 H 0.97149 0.25933 0.95358 0.0
H2379 H 0.97014 0.25366 0.91921 0.0
H2380 H 0.27509 0.01921 0.42489 0.0
H2381 H 0.27041 0.01921 0.45949 0.0
H2382 H 0.24116 0.96803 0.45529 0.0
H2383 H 0.24572 0.96798 0.4207 0.0
H2384 H 0.22351 0.99305 0.47796 0.0
H2385 H 0.29666 0.98741 0.49861 0.0
H2386 H 0.29184 0.00641 0.48313 0.0
H2387 H 0.28879 0.98339 0.47455 0.0
C2388 C 0.26781 0.00788 0.43137 0.0
C2389 C 0.26081 0.99357 0.42009 0.0
C2390 C 0.26517 0.00788 0.45113 0.0
C2391 C 0.25569 0.99347 0.45998 0.0
C2392 C 0.24856 0.97926 0.44874 0.0
H2393 H 0.2532 0.96782 0.58083 0.0
H2394 H 0.25805 0.96805 0.54627 0.0
C2395 C 0.2511 0.97929 0.42898 0.0
C2396 C 0.25286 0.99335 0.48093 0.0
H2397 H 0.27547 0.99342 0.52358 0.0
C2398 C 0.23486 0.99309 0.48795 0.0
C2399 C 0.26771 0.99316 0.49391 0.0
C2400 C 0.28734 0.99243 0.48721 0.0
C2401 C 0.23128 0.99286 0.50763 0.0
C2402 C 0.24612 0.99327 0.52061 0.0
C2403 C 0.26412 0.9933 0.51359 0.0
C2404 C 0.24326 0.99334 0.54155 0.0
C2405 C 0.21165 0.99181 0.51432 0.0
C2406 C 0.23357 0.00762 0.55037 0.0
C2407 C 0.23077 0.00752 0.5701 0.0
C2408 C 0.2378 0.99322 0.5814 0.0
C2409 C 0.24777 0.9791 0.57254 0.0
C2410 C 0.25049 0.97918 0.5528 0.0
H2411 H 0.20241 0.98668 0.50291 0.0
H2412 H 0.21034 0.98272 0.52696 0.0
H2413 H 0.20694 0.00571 0.51844 0.0
H2414 H 0.22826 0.01891 0.54201 0.0
H2415 H 0.2233 0.01874 0.57656 0.0
H2416 H 0.45977 0.75164 0.92038 0.0
H2417 H 0.46035 0.74665 0.95492 0.0
H2418 H 0.5184 0.75757 0.95567 0.0
H2419 H 0.51794 0.76259 0.92114 0.0
H2420 H 0.48023 0.72148 0.97641 0.0
H2421 H 0.49868 0.79285 0.99598 0.0
H2422 H 0.49082 0.78667 0.97242 0.0
H2423 H 0.51412 0.78228 0.97935 0.0
C2424 C 0.47268 0.75285 0.92788 0.0
C2425 C 0.48879 0.75761 0.91806 0.0
C2426 C 0.47297 0.75008 0.94761 0.0
C2427 C 0.48935 0.75206 0.95788 0.0
C2428 C 0.50553 0.75642 0.94807 0.0
H2429 H 0.51784 0.74052 0.07761 0.0
H2430 H 0.51822 0.74435 0.04289 0.0
C2431 C 0.50525 0.75926 0.92836 0.0
C2432 C 0.4895 0.74939 0.97883 0.0
H2433 H 0.49859 0.77098 0.02101 0.0
C2434 C 0.48418 0.73231 0.98617 0.0
C2435 C 0.49467 0.76356 0.99151 0.0
C2436 C 0.49974 0.78243 0.98447 0.0
C2437 C 0.48413 0.72894 0.00589 0.0
C2438 C 0.48929 0.74311 0.01855 0.0
C2439 C 0.49468 0.76016 0.01122 0.0
C2440 C 0.48901 0.74058 0.03949 0.0
C2441 C 0.47884 0.71017 0.01302 0.0
C2442 C 0.47242 0.73742 0.04905 0.0
C2443 C 0.47216 0.73519 0.06885 0.0
C2444 C 0.48849 0.73613 0.07945 0.0
C2445 C 0.50507 0.73947 0.06982 0.0
C2446 C 0.5053 0.74176 0.05002 0.0
H2447 H 0.47952 0.69971 0.00152 0.0
H2448 H 0.48789 0.70581 0.02493 0.0
H2449 H 0.46456 0.71058 0.01845 0.0
H2450 H 0.45966 0.73675 0.04119 0.0
H2451 H 0.4592 0.7325 0.07583 0.0
H2452 H 0.75577 0.51907 0.57812 0.0
H2453 H 0.75176 0.51892 0.54346 0.0
H2454 H 0.75953 0.46042 0.54254 0.0
H2455 H 0.7642 0.46041 0.5771 0.0
H2456 H 0.77931 0.50198 0.51506 0.0
H2457 H 0.70882 0.47278 0.51401 0.0
H2458 H 0.71785 0.48484 0.53448 0.0
H2459 H 0.72551 0.46204 0.52929 0.0
C2460 C 0.75682 0.50617 0.57057 0.0
C2461 C 0.76033 0.48975 0.58045 0.0
C2462 C 0.7544 0.50612 0.55079 0.0
C2463 C 0.75524 0.48965 0.54057 0.0
C2464 C 0.75865 0.47323 0.55028 0.0
H2465 H 0.73712 0.4613 0.42199 0.0
H2466 H 0.74261 0.46102 0.45637 0.0
C2467 C 0.76121 0.47327 0.57004 0.0
C2468 C 0.75289 0.48968 0.51964 0.0
H2469 H 0.72309 0.47776 0.48429 0.0
C2470 C 0.76703 0.49674 0.50827 0.0
C2471 C 0.73691 0.48269 0.51097 0.0
C2472 C 0.72129 0.47522 0.52273 0.0
C2473 C 0.76568 0.4968 0.48829 0.0
C2474 C 0.74954 0.49005 0.47955 0.0
C2475 C 0.73543 0.48295 0.491 0.0
C2476 C 0.74696 0.49027 0.45857 0.0
C2477 C 0.78172 0.50366 0.47674 0.0
C2478 C 0.7475 0.50681 0.4484 0.0
C2479 C 0.74464 0.50699 0.42868 0.0
C2480 C 0.74092 0.49064 0.41878 0.0
C2481 C 0.74028 0.4741 0.42907 0.0
C2482 C 0.74325 0.47393 0.44876 0.0
H2483 H 0.79467 0.50319 0.48506 0.0
H2484 H 0.78354 0.49548 0.46351 0.0
H2485 H 0.77924 0.51812 0.47262 0.0
H2486 H 0.74995 0.51964 0.45573 0.0
H2487 H 0.74538 0.51995 0.4212 0.0
H2488 H 0.02941 0.7375 0.08076 0.0
H2489 H 0.02852 0.73186 0.04631 0.0
H2490 H 0.98098 0.76663 0.04139 0.0
H2491 H 0.98184 0.77239 0.07577 0.0
H2492 H 0.00111 0.71693 0.0236 0.0
H2493 H 0.016 0.78866 0.00233 0.0
H2494 H 0.01908 0.78052 0.02643 0.0
H2495 H 0.9966 0.78635 0.01789 0.0
C2496 C 0.0187 0.74384 0.07235 0.0
C2497 C 0.00578 0.75551 0.08093 0.0
C2498 C 0.01825 0.74066 0.05268 0.0
C2499 C 0.00489 0.7491 0.04127 0.0
C2500 C 0.99169 0.76036 0.04987 0.0
H2501 H 0.98065 0.74793 0.91996 0.0
H2502 H 0.97969 0.75178 0.95468 0.0
C2503 C 0.99218 0.76362 0.06951 0.0
C2504 C 0.00473 0.74604 0.02038 0.0
H2505 H 0.00769 0.76814 0.97754 0.0
C2506 C 0.00262 0.7281 0.01352 0.0
C2507 C 0.00671 0.76067 0.00728 0.0
C2508 C 0.0099 0.78011 0.01381 0.0
C2509 C 0.00215 0.72442 0.99386 0.0
C2510 C 0.00407 0.73906 0.98079 0.0
C2511 C 0.00614 0.75699 0.98764 0.0
C2512 C 0.00429 0.73605 0.95992 0.0
C2513 C 0.99933 0.70497 0.98721 0.0
C2514 C 0.0185 0.72601 0.95143 0.0
C2515 C 0.01907 0.72376 0.93164 0.0
C2516 C 0.00546 0.73157 0.91999 0.0
C2517 C 0.9912 0.74157 0.92857 0.0
C2518 C 0.99068 0.74386 0.94837 0.0
H2519 H 0.99373 0.69614 0.99874 0.0
H2520 H 0.98987 0.70449 0.9748 0.0
H2521 H 0.01268 0.69916 0.98266 0.0
H2522 H 0.02928 0.72011 0.96009 0.0
H2523 H 0.03014 0.71586 0.92547 0.0
H2524 H 0.76574 0.00155 0.58368 0.0
H2525 H 0.771 0.00132 0.54916 0.0
H2526 H 0.71354 0.01147 0.5395 0.0
H2527 H 0.70816 0.01165 0.57394 0.0
H2528 H 0.72716 0.98421 0.5165 0.0
H2529 H 0.77185 0.04566 0.51387 0.0
H2530 H 0.7797 0.02824 0.53 0.0
H2531 H 0.75841 0.0398 0.53461 0.0
C2532 C 0.75426 0.00389 0.57419 0.0
C2533 C 0.73655 0.00667 0.58152 0.0
C2534 C 0.75729 0.00378 0.55449 0.0
C2535 C 0.7427 0.00665 0.54179 0.0
C2536 C 0.72499 0.00926 0.54906 0.0
H2537 H 0.75066 0.03459 0.42192 0.0
H2538 H 0.74486 0.03394 0.45625 0.0
C2539 C 0.72193 0.00928 0.56874 0.0
C2540 C 0.74579 0.00669 0.52089 0.0
H2541 H 0.76922 0.02839 0.4853 0.0
C2542 C 0.73633 0.99388 0.50965 0.0
C2543 C 0.75757 0.01949 0.51199 0.0
C2544 C 0.76734 0.0342 0.52319 0.0
C2545 C 0.73847 0.9934 0.48975 0.0
C2546 C 0.75068 0.00584 0.48092 0.0
C2547 C 0.75999 0.01877 0.49214 0.0
C2548 C 0.75377 0.00591 0.46002 0.0
C2549 C 0.72734 0.97984 0.47835 0.0
C2550 C 0.7608 0.99038 0.45076 0.0
C2551 C 0.76392 0.99063 0.43108 0.0
C2552 C 0.76025 0.00648 0.42031 0.0
C2553 C 0.75334 0.02205 0.42969 0.0
C2554 C 0.75016 0.02177 0.44935 0.0
H2555 H 0.71522 0.97493 0.48646 0.0
H2556 H 0.72257 0.98596 0.46472 0.0
H2557 H 0.73599 0.96778 0.47494 0.0
H2558 H 0.76402 0.97812 0.45877 0.0
H2559 H 0.76911 0.97835 0.4243 0.0
loop_
_geom_bond_atom_site_label_1
_geom_bond_atom_site_label_2
_geom_bond_distance
_geom_bond_site_symmetry_2
_ccdc_geom_bond_type
Li0 N17 1.990 . S
Li0 O60 1.956 . S
Li0 O61 1.970 . S
Li0 O62 1.961 . S
Li1 N25 1.990 . S
Li1 O60 1.970 . S
Li1 O61 1.956 . S
Li1 O63 1.961 . S
Li2 N47 1.990 . S
Li2 O60 1.961 . S
Li2 O62 1.956 . S
Li2 O63 1.970 . S
Li3 N53 1.990 . S
Li3 O61 1.961 . S
Li3 O62 1.970 . S
Li3 O63 1.956 . S
C4 C6 1.348 . S
C4 C7 1.356 . S
C4 O60 1.325 . S
N5 C8 1.314 . S
N5 C9 1.279 . S
C6 C4 1.348 . S
C6 C8 1.353 . S
C6 H64 0.929 . S
C7 C4 1.356 . S
C7 C9 1.358 . S
C7 H65 0.930 . S
C8 N5 1.314 . S
C8 C6 1.353 . S
C8 H66 0.930 . S
C9 N5 1.279 . S
C9 C7 1.358 . S
C9 H67 0.930 . S
C10 C13 1.348 . S
C10 C14 1.356 . S
C10 O61 1.325 . S
C11 N12 1.279 . S
C11 C14 1.358 . S
C11 H68 0.930 . S
N12 C11 1.279 . S
N12 C15 1.314 . S
C13 C10 1.348 . S
C13 C15 1.353 . S
C13 H69 0.929 . S
C14 C10 1.356 . S
C14 C11 1.358 . S
C14 H70 0.930 . S
C15 N12 1.314 . S
C15 C13 1.353 . S
C15 H71 0.930 . S
C16 N17 1.314 . S
C16 C21 1.353 . S
C16 H22 0.930 . S
N17 Li0 1.990 . S
N17 C16 1.314 . S
N17 C19 1.279 . S
C18 C19 1.358 . S
C18 C20 1.356 . S
C18 H72 0.930 . S
C19 N17 1.279 . S
C19 C18 1.358 . S
C19 H23 0.930 . S
C20 C18 1.356 . S
C20 C21 1.348 . S
C21 C16 1.353 . S
C21 C20 1.348 . S
C21 H73 0.929 . S
H22 C16 0.930 . S
H23 C19 0.930 . S
C24 N25 1.314 . S
C24 C26 1.353 . S
C24 H30 0.930 . S
N25 Li1 1.990 . S
N25 C24 1.314 . S
N25 C28 1.279 . S
C26 C24 1.353 . S
C26 C29 1.348 . S
C26 H74 0.929 . S
C27 C28 1.358 . S
C27 C29 1.356 . S
C27 H75 0.930 . S
C28 N25 1.279 . S
C28 C27 1.358 . S
C28 H31 0.930 . S
C29 C26 1.348 . S
C29 C27 1.356 . S
H30 C24 0.930 . S
H31 C28 0.930 . S
C32 C34 1.348 . S
C32 C35 1.356 . S
C32 O62 1.325 . S
N33 C36 1.314 . S
N33 C37 1.279 . S
C34 C32 1.348 . S
C34 C36 1.353 . S
C34 H76 0.929 . S
C35 C32 1.356 . S
C35 C37 1.358 . S
C35 H77 0.930 . S
C36 N33 1.314 . S
C36 C34 1.353 . S
C36 H78 0.930 . S
C37 N33 1.279 . S
C37 C35 1.358 . S
C37 H79 0.930 . S
C38 C39 1.348 . S
C38 C40 1.356 . S
C38 O63 1.325 . S
C39 C38 1.348 . S
C39 C41 1.353 . S
C39 H80 0.929 . S
C40 C38 1.356 . S
C40 C42 1.358 . S
C40 H81 0.930 . S
C41 C39 1.353 . S
C41 N43 1.314 . S
C41 H82 0.930 . S
C42 C40 1.358 . S
C42 N43 1.279 . S
C42 H83 0.930 . S
N43 C41 1.314 . S
N43 C42 1.279 . S
C44 C46 1.353 . S
C44 N47 1.314 . S
C44 H50 0.930 . S
C45 N47 1.279 . S
C45 C48 1.358 . S
C45 H51 0.930 . S
C46 C44 1.353 . S
C46 C49 1.348 . S
C46 H84 0.929 . S
N47 Li2 1.990 . S
N47 C44 1.314 . S
N47 C45 1.279 . S
C48 C45 1.358 . S
C48 C49 1.356 . S
C48 H85 0.930 . S
C49 C46 1.348 . S
C49 C48 1.356 . S
H50 C44 0.930 . S
H51 C45 0.930 . S
C52 N53 1.314 . S
C52 C54 1.353 . S
C52 H58 0.930 . S
N53 Li3 1.990 . S
N53 C52 1.314 . S
N53 C56 1.279 . S
C54 C52 1.353 . S
C54 C57 1.348 . S
C54 H86 0.929 . S
C55 C56 1.358 . S
C55 C57 1.356 . S
C55 H87 0.930 . S
C56 N53 1.279 . S
C56 C55 1.358 . S
C56 H59 0.930 . S
C57 C54 1.348 . S
C57 C55 1.356 . S
H58 C52 0.930 . S
H59 C56 0.930 . S
O60 Li0 1.956 . S
O60 Li1 1.970 . S
O60 Li2 1.961 . S
O60 C4 1.325 . S
O61 Li0 1.970 . S
O61 Li1 1.956 . S
O61 Li3 1.961 . S
O61 C10 1.325 . S
O62 Li0 1.961 . S
O62 Li2 1.956 . S
O62 Li3 1.970 . S
O62 C32 1.325 . S
O63 Li1 1.961 . S
O63 Li2 1.970 . S
O63 Li3 1.956 . S
O63 C38 1.325 . S
H64 C6 0.929 . S
H65 C7 0.930 . S
H66 C8 0.930 . S
H67 C9 0.930 . S
H68 C11 0.930 . S
H69 C13 0.929 . S
H70 C14 0.930 . S
H71 C15 0.930 . S
H72 C18 0.930 . S
H73 C21 0.929 . S
H74 C26 0.929 . S
H75 C27 0.930 . S
H76 C34 0.929 . S
H77 C35 0.930 . S
H78 C36 0.930 . S
H79 C37 0.930 . S
H80 C39 0.929 . S
H81 C40 0.930 . S
H82 C41 0.930 . S
H83 C42 0.930 . S
H84 C46 0.929 . S
H85 C48 0.930 . S
H86 C54 0.929 . S
H87 C55 0.930 . S
Li88 N105 1.990 . S
Li88 O148 1.956 . S
Li88 O149 1.970 . S
Li88 O150 1.961 . S
Li89 N113 1.990 . S
Li89 O148 1.970 . S
Li89 O149 1.956 . S
Li89 O151 1.961 . S
Li90 N135 1.990 . S
Li90 O148 1.961 . S
Li90 O150 1.956 . S
Li90 O151 1.970 . S
Li91 N141 1.990 . S
Li91 O149 1.961 . S
Li91 O150 1.970 . S
Li91 O151 1.956 . S
C92 C94 1.348 . S
C92 C95 1.356 . S
C92 O148 1.325 . S
N93 C96 1.314 . S
N93 C97 1.279 . S
C94 C92 1.348 . S
C94 C96 1.353 . S
C94 H152 0.929 . S
C95 C92 1.356 . S
C95 C97 1.358 . S
C95 H153 0.930 . S
C96 N93 1.314 . S
C96 C94 1.353 . S
C96 H154 0.930 . S
C97 N93 1.279 . S
C97 C95 1.358 . S
C97 H155 0.930 . S
C98 C101 1.348 . S
C98 C102 1.356 . S
C98 O149 1.325 . S
C99 N100 1.279 . S
C99 C102 1.358 . S
C99 H156 0.930 . S
N100 C99 1.279 . S
N100 C103 1.314 . S
C101 C98 1.348 . S
C101 C103 1.353 . S
C101 H157 0.929 . S
C102 C98 1.356 . S
C102 C99 1.358 . S
C102 H158 0.930 . S
C103 N100 1.314 . S
C103 C101 1.353 . S
C103 H159 0.930 . S
C104 N105 1.314 . S
C104 C109 1.353 . S
C104 H110 0.930 . S
N105 Li88 1.990 . S
N105 C104 1.314 . S
N105 C107 1.279 . S
C106 C107 1.358 . S
C106 C108 1.356 . S
C106 H160 0.930 . S
C107 N105 1.279 . S
C107 C106 1.358 . S
C107 H111 0.930 . S
C108 C106 1.356 . S
C108 C109 1.348 . S
C109 C104 1.353 . S
C109 C108 1.348 . S
C109 H161 0.929 . S
H110 C104 0.930 . S
H111 C107 0.930 . S
C112 N113 1.314 . S
C112 C114 1.353 . S
C112 H118 0.930 . S
N113 Li89 1.990 . S
N113 C112 1.314 . S
N113 C116 1.279 . S
C114 C112 1.353 . S
C114 C117 1.348 . S
C114 H162 0.929 . S
C115 C116 1.358 . S
C115 C117 1.356 . S
C115 H163 0.930 . S
C116 N113 1.279 . S
C116 C115 1.358 . S
C116 H119 0.930 . S
C117 C114 1.348 . S
C117 C115 1.356 . S
H118 C112 0.930 . S
H119 C116 0.930 . S
C120 C122 1.348 . S
C120 C123 1.356 . S
C120 O150 1.325 . S
N121 C124 1.314 . S
N121 C125 1.279 . S
C122 C120 1.348 . S
C122 C124 1.353 . S
C122 H164 0.929 . S
C123 C120 1.356 . S
C123 C125 1.358 . S
C123 H165 0.930 . S
C124 N121 1.314 . S
C124 C122 1.353 . S
C124 H166 0.930 . S
C125 N121 1.279 . S
C125 C123 1.358 . S
C125 H167 0.930 . S
C126 C127 1.348 . S
C126 C128 1.356 . S
C126 O151 1.325 . S
C127 C126 1.348 . S
C127 C129 1.353 . S
C127 H168 0.929 . S
C128 C126 1.356 . S
C128 C130 1.358 . S
C128 H169 0.930 . S
C129 C127 1.353 . S
C129 N131 1.314 . S
C129 H170 0.930 . S
C130 C128 1.358 . S
C130 N131 1.279 . S
C130 H171 0.930 . S
N131 C129 1.314 . S
N131 C130 1.279 . S
C132 C134 1.353 . S
C132 N135 1.314 . S
C132 H138 0.930 . S
C133 N135 1.279 . S
C133 C136 1.358 . S
C133 H139 0.930 . S
C134 C132 1.353 . S
C134 C137 1.348 . S
C134 H172 0.929 . S
N135 Li90 1.990 . S
N135 C132 1.314 . S
N135 C133 1.279 . S
C136 C133 1.358 . S
C136 C137 1.356 . S
C136 H173 0.930 . S
C137 C134 1.348 . S
C137 C136 1.356 . S
H138 C132 0.930 . S
H139 C133 0.930 . S
C140 N141 1.314 . S
C140 C142 1.353 . S
C140 H146 0.930 . S
N141 Li91 1.990 . S
N141 C140 1.314 . S
N141 C144 1.279 . S
C142 C140 1.353 . S
C142 C145 1.348 . S
C142 H174 0.929 . S
C143 C144 1.358 . S
C143 C145 1.356 . S
C143 H175 0.930 . S
C144 N141 1.279 . S
C144 C143 1.358 . S
C144 H147 0.930 . S
C145 C142 1.348 . S
C145 C143 1.356 . S
H146 C140 0.930 . S
H147 C144 0.930 . S
O148 Li88 1.956 . S
O148 Li89 1.970 . S
O148 Li90 1.961 . S
O148 C92 1.325 . S
O149 Li88 1.970 . S
O149 Li89 1.956 . S
O149 Li91 1.961 . S
O149 C98 1.325 . S
O150 Li88 1.961 . S
O150 Li90 1.956 . S
O150 Li91 1.970 . S
O150 C120 1.325 . S
O151 Li89 1.961 . S
O151 Li90 1.970 . S
O151 Li91 1.956 . S
O151 C126 1.325 . S
H152 C94 0.929 . S
H153 C95 0.930 . S
H154 C96 0.930 . S
H155 C97 0.930 . S
H156 C99 0.930 . S
H157 C101 0.929 . S
H158 C102 0.930 . S
H159 C103 0.930 . S
H160 C106 0.930 . S
H161 C109 0.929 . S
H162 C114 0.929 . S
H163 C115 0.930 . S
H164 C122 0.929 . S
H165 C123 0.930 . S
H166 C124 0.930 . S
H167 C125 0.930 . S
H168 C127 0.929 . S
H169 C128 0.930 . S
H170 C129 0.930 . S
H171 C130 0.930 . S
H172 C134 0.929 . S
H173 C136 0.930 . S
H174 C142 0.929 . S
H175 C143 0.930 . S
Li176 N193 1.990 . S
Li176 O236 1.956 . S
Li176 O237 1.970 . S
Li176 O238 1.961 . S
Li177 N201 1.990 . S
Li177 O236 1.970 1_455 S
Li177 O237 1.956 1_455 S
Li177 O239 1.961 . S
Li178 N223 1.990 . S
Li178 O236 1.961 . S
Li178 O238 1.956 . S
Li178 O239 1.970 1_655 S
Li179 N229 1.990 . S
Li179 O237 1.961 . S
Li179 O238 1.970 . S
Li179 O239 1.956 1_655 S
C180 C182 1.348 1_655 S
C180 C183 1.356 . S
C180 O236 1.325 . S
N181 C184 1.314 1_655 S
N181 C185 1.279 . S
C182 C180 1.348 1_455 S
C182 C184 1.353 . S
C182 H240 0.929 . S
C183 C180 1.356 . S
C183 C185 1.358 . S
C183 H241 0.930 . S
C184 N181 1.314 1_455 S
C184 C182 1.353 . S
C184 H242 0.930 . S
C185 N181 1.279 . S
C185 C183 1.358 . S
C185 H243 0.930 . S
C186 C189 1.348 . S
C186 C190 1.356 . S
C186 O237 1.325 . S
C187 N188 1.279 . S
C187 C190 1.358 . S
C187 H244 0.930 . S
N188 C187 1.279 . S
N188 C191 1.314 . S
C189 C186 1.348 . S
C189 C191 1.353 . S
C189 H245 0.929 . S
C190 C186 1.356 . S
C190 C187 1.358 . S
C190 H246 0.930 . S
C191 N188 1.314 . S
C191 C189 1.353 . S
C191 H247 0.930 . S
C192 N193 1.314 . S
C192 C197 1.353 . S
C192 H198 0.930 . S
N193 Li176 1.990 . S
N193 C192 1.314 . S
N193 C195 1.279 . S
C194 C195 1.358 . S
C194 C196 1.356 . S
C194 H248 0.930 . S
C195 N193 1.279 . S
C195 C194 1.358 . S
C195 H199 0.930 . S
C196 C194 1.356 . S
C196 C197 1.348 . S
C197 C192 1.353 . S
C197 C196 1.348 . S
C197 H249 0.929 . S
H198 C192 0.930 . S
H199 C195 0.930 . S
C200 N201 1.314 . S
C200 C202 1.353 . S
C200 H206 0.930 . S
N201 Li177 1.990 . S
N201 C200 1.314 . S
N201 C204 1.279 . S
C202 C200 1.353 . S
C202 C205 1.348 . S
C202 H250 0.929 . S
C203 C204 1.358 . S
C203 C205 1.356 . S
C203 H251 0.930 . S
C204 N201 1.279 . S
C204 C203 1.358 . S
C204 H207 0.930 . S
C205 C202 1.348 . S
C205 C203 1.356 . S
H206 C200 0.930 . S
H207 C204 0.930 . S
C208 C210 1.348 . S
C208 C211 1.356 . S
C208 O238 1.325 . S
N209 C212 1.314 . S
N209 C213 1.279 . S
C210 C208 1.348 . S
C210 C212 1.353 . S
C210 H252 0.929 . S
C211 C208 1.356 . S
C211 C213 1.358 . S
C211 H253 0.930 . S
C212 N209 1.314 . S
C212 C210 1.353 . S
C212 H254 0.930 . S
C213 N209 1.279 . S
C213 C211 1.358 . S
C213 H255 0.930 . S
C214 C215 1.348 . S
C214 C216 1.356 . S
C214 O239 1.325 . S
C215 C214 1.348 . S
C215 C217 1.353 . S
C215 H256 0.929 . S
C216 C214 1.356 . S
C216 C218 1.358 . S
C216 H257 0.930 . S
C217 C215 1.353 . S
C217 N219 1.314 . S
C217 H258 0.930 . S
C218 C216 1.358 . S
C218 N219 1.279 . S
C218 H259 0.930 . S
N219 C217 1.314 . S
N219 C218 1.279 . S
C220 C222 1.360 . S
C220 N223 1.287 1_455 S
C220 H226 0.954 . S
C221 N223 1.279 . S
C221 C224 1.358 . S
C221 H227 0.930 . S
C222 C220 1.360 . S
C222 C225 1.348 1_455 S
C222 H260 0.929 . S
N223 Li178 1.990 . S
N223 C220 1.287 1_655 S
N223 C221 1.279 . S
C224 C221 1.358 . S
C224 C225 1.356 . S
C224 H261 0.930 . S
C225 C222 1.348 1_655 S
C225 C224 1.356 . S
H226 C220 0.954 . S
H227 C221 0.930 . S
C228 N229 1.314 . S
C228 C230 1.353 . S
C228 H234 0.930 . S
N229 Li179 1.990 . S
N229 C228 1.314 . S
N229 C232 1.279 . S
C230 C228 1.353 . S
C230 C233 1.348 . S
C230 H262 0.929 . S
C231 C232 1.358 . S
C231 C233 1.356 . S
C231 H263 0.930 . S
C232 N229 1.279 . S
C232 C231 1.358 . S
C232 H235 0.930 . S
C233 C230 1.348 . S
C233 C231 1.356 . S
H234 C228 0.930 . S
H235 C232 0.930 . S
O236 Li176 1.956 . S
O236 Li177 1.970 1_655 S
O236 Li178 1.961 . S
O236 C180 1.325 . S
O237 Li176 1.970 . S
O237 Li177 1.956 1_655 S
O237 Li179 1.961 . S
O237 C186 1.325 . S
O238 Li176 1.961 . S
O238 Li178 1.956 . S
O238 Li179 1.970 . S
O238 C208 1.325 . S
O239 Li177 1.961 . S
O239 Li178 1.970 1_455 S
O239 Li179 1.956 1_455 S
O239 C214 1.325 . S
H240 C182 0.929 . S
H241 C183 0.930 . S
H242 C184 0.930 . S
H243 C185 0.930 . S
H244 C187 0.930 . S
H245 C189 0.929 . S
H246 C190 0.930 . S
H247 C191 0.930 . S
H248 C194 0.930 . S
H249 C197 0.929 . S
H250 C202 0.929 . S
H251 C203 0.930 . S
H252 C210 0.929 . S
H253 C211 0.930 . S
H254 C212 0.930 . S
H255 C213 0.930 . S
H256 C215 0.929 . S
H257 C216 0.930 . S
H258 C217 0.930 . S
H259 C218 0.930 . S
H260 C222 0.929 . S
H261 C224 0.930 . S
H262 C230 0.929 . S
H263 C231 0.930 . S
Li264 N281 1.990 . S
Li264 O324 1.956 . S
Li264 O325 1.970 . S
Li264 O326 1.961 . S
Li265 N289 1.990 . S
Li265 O324 1.970 1_545 S
Li265 O325 1.956 1_545 S
Li265 O327 1.961 . S
Li266 N311 1.990 . S
Li266 O324 1.961 . S
Li266 O326 1.956 . S
Li266 O327 1.970 1_565 S
Li267 N317 1.990 . S
Li267 O325 1.961 . S
Li267 O326 1.970 . S
Li267 O327 1.956 1_565 S
C268 C270 1.348 1_565 S
C268 C271 1.356 . S
C268 O324 1.325 . S
N269 C272 1.314 1_565 S
N269 C273 1.279 . S
C270 C268 1.348 1_545 S
C270 C272 1.353 . S
C270 H328 0.929 . S
C271 C268 1.356 . S
C271 C273 1.358 . S
C271 H329 0.930 . S
C272 N269 1.314 1_545 S
C272 C270 1.353 . S
C272 H330 0.930 . S
C273 N269 1.279 . S
C273 C271 1.358 . S
C273 H331 0.930 . S
C274 C277 1.348 . S
C274 C278 1.356 . S
C274 O325 1.325 . S
C275 N276 1.279 . S
C275 C278 1.358 . S
C275 H332 0.930 . S
N276 C275 1.279 . S
N276 C279 1.314 . S
C277 C274 1.348 . S
C277 C279 1.353 . S
C277 H333 0.929 . S
C278 C274 1.356 . S
C278 C275 1.358 . S
C278 H334 0.930 . S
C279 N276 1.314 . S
C279 C277 1.353 . S
C279 H335 0.930 . S
C280 N281 1.314 . S
C280 C285 1.353 . S
C280 H286 0.930 . S
N281 Li264 1.990 . S
N281 C280 1.314 . S
N281 C283 1.279 . S
C282 C283 1.358 . S
C282 C284 1.356 . S
C282 H336 0.930 . S
C283 N281 1.279 . S
C283 C282 1.358 . S
C283 H287 0.930 . S
C284 C282 1.356 . S
C284 C285 1.348 . S
C285 C280 1.353 . S
C285 C284 1.348 . S
C285 H337 0.929 . S
H286 C280 0.930 . S
H287 C283 0.930 . S
C288 N289 1.314 . S
C288 C290 1.353 . S
C288 H294 0.930 . S
N289 Li265 1.990 . S
N289 C288 1.314 . S
N289 C292 1.279 . S
C290 C288 1.353 . S
C290 C293 1.348 . S
C290 H338 0.929 . S
C291 C292 1.358 . S
C291 C293 1.356 . S
C291 H339 0.930 . S
C292 N289 1.279 . S
C292 C291 1.358 . S
C292 H295 0.930 . S
C293 C290 1.348 . S
C293 C291 1.356 . S
H294 C288 0.930 . S
H295 C292 0.930 . S
C296 C298 1.348 . S
C296 C299 1.356 . S
C296 O326 1.325 . S
N297 C300 1.314 . S
N297 C301 1.279 . S
C298 C296 1.348 . S
C298 C300 1.353 . S
C298 H340 0.929 . S
C299 C296 1.356 . S
C299 C301 1.358 . S
C299 H341 0.930 . S
C300 N297 1.314 . S
C300 C298 1.353 . S
C300 H342 0.930 . S
C301 N297 1.279 . S
C301 C299 1.358 . S
C301 H343 0.930 . S
C302 C303 1.348 . S
C302 C304 1.356 . S
C302 O327 1.325 . S
C303 C302 1.348 . S
C303 C305 1.353 . S
C303 H344 0.929 . S
C304 C302 1.356 . S
C304 C306 1.358 . S
C304 H345 0.930 . S
C305 C303 1.353 . S
C305 N307 1.314 . S
C305 H346 0.930 . S
C306 C304 1.358 . S
C306 N307 1.279 . S
C306 H347 0.930 . S
N307 C305 1.314 . S
N307 C306 1.279 . S
C308 C310 1.360 . S
C308 N311 1.287 1_545 S
C308 H314 0.954 . S
C309 N311 1.279 . S
C309 C312 1.358 . S
C309 H315 0.930 . S
C310 C308 1.360 . S
C310 C313 1.348 1_545 S
C310 H348 0.929 . S
N311 Li266 1.990 . S
N311 C308 1.287 1_565 S
N311 C309 1.279 . S
C312 C309 1.358 . S
C312 C313 1.356 . S
C312 H349 0.930 . S
C313 C310 1.348 1_565 S
C313 C312 1.356 . S
H314 C308 0.954 . S
H315 C309 0.930 . S
C316 N317 1.314 . S
C316 C318 1.353 . S
C316 H322 0.930 . S
N317 Li267 1.990 . S
N317 C316 1.314 . S
N317 C320 1.279 . S
C318 C316 1.353 . S
C318 C321 1.348 . S
C318 H350 0.929 . S
C319 C320 1.358 . S
C319 C321 1.356 . S
C319 H351 0.930 . S
C320 N317 1.279 . S
C320 C319 1.358 . S
C320 H323 0.930 . S
C321 C318 1.348 . S
C321 C319 1.356 . S
H322 C316 0.930 . S
H323 C320 0.930 . S
O324 Li264 1.956 . S
O324 Li265 1.970 1_565 S
O324 Li266 1.961 . S
O324 C268 1.325 . S
O325 Li264 1.970 . S
O325 Li265 1.956 1_565 S
O325 Li267 1.961 . S
O325 C274 1.325 . S
O326 Li264 1.961 . S
O326 Li266 1.956 . S
O326 Li267 1.970 . S
O326 C296 1.325 . S
O327 Li265 1.961 . S
O327 Li266 1.970 1_545 S
O327 Li267 1.956 1_545 S
O327 C302 1.325 . S
H328 C270 0.929 . S
H329 C271 0.930 . S
H330 C272 0.930 . S
H331 C273 0.930 . S
H332 C275 0.930 . S
H333 C277 0.929 . S
H334 C278 0.930 . S
H335 C279 0.930 . S
H336 C282 0.930 . S
H337 C285 0.929 . S
H338 C290 0.929 . S
H339 C291 0.930 . S
H340 C298 0.929 . S
H341 C299 0.930 . S
H342 C300 0.930 . S
H343 C301 0.930 . S
H344 C303 0.929 . S
H345 C304 0.930 . S
H346 C305 0.930 . S
H347 C306 0.930 . S
H348 C310 0.929 . S
H349 C312 0.930 . S
H350 C318 0.929 . S
H351 C319 0.930 . S
Li352 N369 1.990 . S
Li352 O412 1.956 . S
Li352 O413 1.970 . S
Li352 O414 1.961 . S
Li353 N377 1.990 . S
Li353 O412 1.970 . S
Li353 O413 1.956 . S
Li353 O415 1.961 . S
Li354 N399 1.990 . S
Li354 O412 1.961 . S
Li354 O414 1.956 . S
Li354 O415 1.970 . S
Li355 N405 1.990 . S
Li355 O413 1.961 . S
Li355 O414 1.970 . S
Li355 O415 1.956 . S
C356 C358 1.348 . S
C356 C359 1.356 . S
C356 O412 1.325 . S
N357 C360 1.314 . S
N357 C361 1.279 . S
C358 C356 1.348 . S
C358 C360 1.353 . S
C358 H416 0.929 . S
C359 C356 1.356 . S
C359 C361 1.358 . S
C359 H417 0.930 . S
C360 N357 1.314 . S
C360 C358 1.353 . S
C360 H418 0.930 . S
C361 N357 1.279 . S
C361 C359 1.358 . S
C361 H419 0.930 . S
C362 C365 1.348 . S
C362 C366 1.356 . S
C362 O413 1.325 . S
C363 N364 1.279 . S
C363 C366 1.358 . S
C363 H420 0.930 . S
N364 C363 1.279 . S
N364 C367 1.314 . S
C365 C362 1.348 . S
C365 C367 1.353 . S
C365 H421 0.929 . S
C366 C362 1.356 . S
C366 C363 1.358 . S
C366 H422 0.930 . S
C367 N364 1.314 . S
C367 C365 1.353 . S
C367 H423 0.930 . S
C368 N369 1.314 . S
C368 C373 1.353 . S
C368 H374 0.930 . S
N369 Li352 1.990 . S
N369 C368 1.314 . S
N369 C371 1.279 . S
C370 C371 1.358 . S
C370 C372 1.356 . S
C370 H424 0.930 . S
C371 N369 1.279 . S
C371 C370 1.358 . S
C371 H375 0.930 . S
C372 C370 1.356 . S
C372 C373 1.348 . S
C373 C368 1.353 . S
C373 C372 1.348 . S
C373 H425 0.929 . S
H374 C368 0.930 . S
H375 C371 0.930 . S
C376 N377 1.314 . S
C376 C378 1.353 . S
C376 H382 0.930 . S
N377 Li353 1.990 . S
N377 C376 1.314 . S
N377 C380 1.279 . S
C378 C376 1.353 . S
C378 C381 1.348 . S
C378 H426 0.929 . S
C379 C380 1.358 . S
C379 C381 1.356 . S
C379 H427 0.930 . S
C380 N377 1.279 . S
C380 C379 1.358 . S
C380 H383 0.930 . S
C381 C378 1.348 . S
C381 C379 1.356 . S
H382 C376 0.930 . S
H383 C380 0.930 . S
C384 C386 1.348 . S
C384 C387 1.356 . S
C384 O414 1.325 . S
N385 C388 1.314 . S
N385 C389 1.279 . S
C386 C384 1.348 . S
C386 C388 1.353 . S
C386 H428 0.929 . S
C387 C384 1.356 . S
C387 C389 1.358 . S
C387 H429 0.930 . S
C388 N385 1.314 . S
C388 C386 1.353 . S
C388 H430 0.930 . S
C389 N385 1.279 . S
C389 C387 1.358 . S
C389 H431 0.930 . S
C390 C391 1.348 . S
C390 C392 1.356 . S
C390 O415 1.325 . S
C391 C390 1.348 . S
C391 C393 1.353 . S
C391 H432 0.929 . S
C392 C390 1.356 . S
C392 C394 1.358 . S
C392 H433 0.930 . S
C393 C391 1.353 . S
C393 N395 1.314 . S
C393 H434 0.930 . S
C394 C392 1.358 . S
C394 N395 1.279 . S
C394 H435 0.930 . S
N395 C393 1.314 . S
N395 C394 1.279 . S
C396 C398 1.353 . S
C396 N399 1.314 . S
C396 H402 0.930 . S
C397 N399 1.279 . S
C397 C400 1.358 . S
C397 H403 0.930 . S
C398 C396 1.353 . S
C398 C401 1.348 . S
C398 H436 0.929 . S
N399 Li354 1.990 . S
N399 C396 1.314 . S
N399 C397 1.279 . S
C400 C397 1.358 . S
C400 C401 1.356 . S
C400 H437 0.930 . S
C401 C398 1.348 . S
C401 C400 1.356 . S
H402 C396 0.930 . S
H403 C397 0.930 . S
C404 N405 1.314 . S
C404 C406 1.353 . S
C404 H410 0.930 . S
N405 Li355 1.990 . S
N405 C404 1.314 . S
N405 C408 1.279 . S
C406 C404 1.353 . S
C406 C409 1.348 . S
C406 H438 0.929 . S
C407 C408 1.358 . S
C407 C409 1.356 . S
C407 H439 0.930 . S
C408 N405 1.279 . S
C408 C407 1.358 . S
C408 H411 0.930 . S
C409 C406 1.348 . S
C409 C407 1.356 . S
H410 C404 0.930 . S
H411 C408 0.930 . S
O412 Li352 1.956 . S
O412 Li353 1.970 . S
O412 Li354 1.961 . S
O412 C356 1.325 . S
O413 Li352 1.970 . S
O413 Li353 1.956 . S
O413 Li355 1.961 . S
O413 C362 1.325 . S
O414 Li352 1.961 . S
O414 Li354 1.956 . S
O414 Li355 1.970 . S
O414 C384 1.325 . S
O415 Li353 1.961 . S
O415 Li354 1.970 . S
O415 Li355 1.956 . S
O415 C390 1.325 . S
H416 C358 0.929 . S
H417 C359 0.930 . S
H418 C360 0.930 . S
H419 C361 0.930 . S
H420 C363 0.930 . S
H421 C365 0.929 . S
H422 C366 0.930 . S
H423 C367 0.930 . S
H424 C370 0.930 . S
H425 C373 0.929 . S
H426 C378 0.929 . S
H427 C379 0.930 . S
H428 C386 0.929 . S
H429 C387 0.930 . S
H430 C388 0.930 . S
H431 C389 0.930 . S
H432 C391 0.929 . S
H433 C392 0.930 . S
H434 C393 0.930 . S
H435 C394 0.930 . S
H436 C398 0.929 . S
H437 C400 0.930 . S
H438 C406 0.929 . S
H439 C407 0.930 . S
Li440 N457 1.990 . S
Li440 O500 1.956 . S
Li440 O501 1.970 . S
Li440 O502 1.961 . S
Li441 N465 1.990 . S
Li441 O500 1.970 . S
Li441 O501 1.956 . S
Li441 O503 1.961 . S
Li442 N487 1.990 . S
Li442 O500 1.961 . S
Li442 O502 1.956 . S
Li442 O503 1.970 . S
Li443 N493 1.990 . S
Li443 O501 1.961 . S
Li443 O502 1.970 . S
Li443 O503 1.956 . S
C444 C446 1.348 . S
C444 C447 1.356 . S
C444 O500 1.325 . S
N445 C448 1.314 . S
N445 C449 1.279 . S
C446 C444 1.348 . S
C446 C448 1.353 . S
C446 H504 0.929 . S
C447 C444 1.356 . S
C447 C449 1.358 . S
C447 H505 0.930 . S
C448 N445 1.314 . S
C448 C446 1.353 . S
C448 H506 0.930 . S
C449 N445 1.279 . S
C449 C447 1.358 . S
C449 H507 0.930 . S
C450 C453 1.348 . S
C450 C454 1.356 . S
C450 O501 1.325 . S
C451 N452 1.279 . S
C451 C454 1.358 . S
C451 H508 0.930 . S
N452 C451 1.279 . S
N452 C455 1.314 . S
C453 C450 1.348 . S
C453 C455 1.353 . S
C453 H509 0.929 . S
C454 C450 1.356 . S
C454 C451 1.358 . S
C454 H510 0.930 . S
C455 N452 1.314 . S
C455 C453 1.353 . S
C455 H511 0.930 . S
C456 N457 1.314 . S
C456 C461 1.353 . S
C456 H462 0.930 . S
N457 Li440 1.990 . S
N457 C456 1.314 . S
N457 C459 1.279 . S
C458 C459 1.358 . S
C458 C460 1.356 . S
C458 H512 0.930 . S
C459 N457 1.279 . S
C459 C458 1.358 . S
C459 H463 0.930 . S
C460 C458 1.356 . S
C460 C461 1.348 . S
C461 C456 1.353 . S
C461 C460 1.348 . S
C461 H513 0.929 . S
H462 C456 0.930 . S
H463 C459 0.930 . S
C464 N465 1.314 . S
C464 C466 1.353 . S
C464 H470 0.930 . S
N465 Li441 1.990 . S
N465 C464 1.314 . S
N465 C468 1.279 . S
C466 C464 1.353 . S
C466 C469 1.348 . S
C466 H514 0.929 . S
C467 C468 1.358 . S
C467 C469 1.356 . S
C467 H515 0.930 . S
C468 N465 1.279 . S
C468 C467 1.358 . S
C468 H471 0.930 . S
C469 C466 1.348 . S
C469 C467 1.356 . S
H470 C464 0.930 . S
H471 C468 0.930 . S
C472 C474 1.348 . S
C472 C475 1.356 . S
C472 O502 1.325 . S
N473 C476 1.314 . S
N473 C477 1.279 . S
C474 C472 1.348 . S
C474 C476 1.353 . S
C474 H516 0.929 . S
C475 C472 1.356 . S
C475 C477 1.358 . S
C475 H517 0.930 . S
C476 N473 1.314 . S
C476 C474 1.353 . S
C476 H518 0.930 . S
C477 N473 1.279 . S
C477 C475 1.358 . S
C477 H519 0.930 . S
C478 C479 1.348 . S
C478 C480 1.356 . S
C478 O503 1.325 . S
C479 C478 1.348 . S
C479 C481 1.353 . S
C479 H520 0.929 . S
C480 C478 1.356 . S
C480 C482 1.358 . S
C480 H521 0.930 . S
C481 C479 1.353 . S
C481 N483 1.314 . S
C481 H522 0.930 . S
C482 C480 1.358 . S
C482 N483 1.279 . S
C482 H523 0.930 . S
N483 C481 1.314 . S
N483 C482 1.279 . S
C484 C486 1.353 . S
C484 N487 1.314 . S
C484 H490 0.930 . S
C485 N487 1.279 . S
C485 C488 1.358 . S
C485 H491 0.930 . S
C486 C484 1.353 . S
C486 C489 1.348 . S
C486 H524 0.929 . S
N487 Li442 1.990 . S
N487 C484 1.314 . S
N487 C485 1.279 . S
C488 C485 1.358 . S
C488 C489 1.356 . S
C488 H525 0.930 . S
C489 C486 1.348 . S
C489 C488 1.356 . S
H490 C484 0.930 . S
H491 C485 0.930 . S
C492 N493 1.314 . S
C492 C494 1.353 . S
C492 H498 0.930 . S
N493 Li443 1.990 . S
N493 C492 1.314 . S
N493 C496 1.279 . S
C494 C492 1.353 . S
C494 C497 1.348 . S
C494 H526 0.929 . S
C495 C496 1.358 . S
C495 C497 1.356 . S
C495 H527 0.930 . S
C496 N493 1.279 . S
C496 C495 1.358 . S
C496 H499 0.930 . S
C497 C494 1.348 . S
C497 C495 1.356 . S
H498 C492 0.930 . S
H499 C496 0.930 . S
O500 Li440 1.956 . S
O500 Li441 1.970 . S
O500 Li442 1.961 . S
O500 C444 1.325 . S
O501 Li440 1.970 . S
O501 Li441 1.956 . S
O501 Li443 1.961 . S
O501 C450 1.325 . S
O502 Li440 1.961 . S
O502 Li442 1.956 . S
O502 Li443 1.970 . S
O502 C472 1.325 . S
O503 Li441 1.961 . S
O503 Li442 1.970 . S
O503 Li443 1.956 . S
O503 C478 1.325 . S
H504 C446 0.929 . S
H505 C447 0.930 . S
H506 C448 0.930 . S
H507 C449 0.930 . S
H508 C451 0.930 . S
H509 C453 0.929 . S
H510 C454 0.930 . S
H511 C455 0.930 . S
H512 C458 0.930 . S
H513 C461 0.929 . S
H514 C466 0.929 . S
H515 C467 0.930 . S
H516 C474 0.929 . S
H517 C475 0.930 . S
H518 C476 0.930 . S
H519 C477 0.930 . S
H520 C479 0.929 . S
H521 C480 0.930 . S
H522 C481 0.930 . S
H523 C482 0.930 . S
H524 C486 0.929 . S
H525 C488 0.930 . S
H526 C494 0.929 . S
H527 C495 0.930 . S
Li528 N545 1.990 . S
Li528 O588 1.956 1_655 S
Li528 O589 1.970 . S
Li528 O590 1.961 . S
Li529 N553 1.990 . S
Li529 O588 1.970 1_655 S
Li529 O589 1.956 . S
Li529 O591 1.961 . S
Li530 N575 1.990 . S
Li530 O588 1.961 . S
Li530 O590 1.956 1_455 S
Li530 O591 1.970 1_455 S
Li531 N581 1.990 . S
Li531 O589 1.961 . S
Li531 O590 1.970 . S
Li531 O591 1.956 . S
C532 C534 1.348 . S
C532 C535 1.356 . S
C532 O588 1.325 . S
N533 C536 1.314 . S
N533 C537 1.279 . S
C534 C532 1.348 . S
C534 C536 1.353 . S
C534 H592 0.929 . S
C535 C532 1.356 . S
C535 C537 1.358 . S
C535 H593 0.930 . S
C536 N533 1.314 . S
C536 C534 1.353 . S
C536 H594 0.930 . S
C537 N533 1.279 . S
C537 C535 1.358 . S
C537 H595 0.930 . S
C538 C541 1.348 . S
C538 C542 1.356 . S
C538 O589 1.325 . S
C539 N540 1.279 . S
C539 C542 1.358 . S
C539 H596 0.930 . S
N540 C539 1.279 . S
N540 C543 1.314 . S
C541 C538 1.348 . S
C541 C543 1.353 . S
C541 H597 0.929 . S
C542 C538 1.356 . S
C542 C539 1.358 . S
C542 H598 0.930 . S
C543 N540 1.314 . S
C543 C541 1.353 . S
C543 H599 0.930 . S
C544 N545 1.314 . S
C544 C549 1.353 . S
C544 H550 0.930 . S
N545 Li528 1.990 . S
N545 C544 1.314 . S
N545 C547 1.279 . S
C546 C547 1.358 . S
C546 C548 1.356 . S
C546 H600 0.930 . S
C547 N545 1.279 . S
C547 C546 1.358 . S
C547 H551 0.930 . S
C548 C546 1.356 . S
C548 C549 1.348 . S
C549 C544 1.353 . S
C549 C548 1.348 . S
C549 H601 0.929 . S
H550 C544 0.930 . S
H551 C547 0.930 . S
C552 N553 1.287 1_455 S
C552 C554 1.360 . S
C552 H558 0.954 . S
N553 Li529 1.990 . S
N553 C552 1.287 1_655 S
N553 C556 1.279 . S
C554 C552 1.360 . S
C554 C557 1.348 1_455 S
C554 H602 0.929 . S
C555 C556 1.358 . S
C555 C557 1.356 . S
C555 H603 0.930 . S
C556 N553 1.279 . S
C556 C555 1.358 . S
C556 H559 0.930 . S
C557 C554 1.348 1_655 S
C557 C555 1.356 . S
H558 C552 0.954 . S
H559 C556 0.930 . S
C560 C562 1.348 . S
C560 C563 1.356 . S
C560 O590 1.325 . S
N561 C564 1.314 . S
N561 C565 1.279 . S
C562 C560 1.348 . S
C562 C564 1.353 . S
C562 H604 0.929 . S
C563 C560 1.356 . S
C563 C565 1.358 . S
C563 H605 0.930 . S
C564 N561 1.314 . S
C564 C562 1.353 . S
C564 H606 0.930 . S
C565 N561 1.279 . S
C565 C563 1.358 . S
C565 H607 0.930 . S
C566 C567 1.348 1_655 S
C566 C568 1.356 . S
C566 O591 1.325 . S
C567 C566 1.348 1_455 S
C567 C569 1.353 . S
C567 H608 0.929 . S
C568 C566 1.356 . S
C568 C570 1.358 . S
C568 H609 0.930 . S
C569 C567 1.353 . S
C569 N571 1.314 1_455 S
C569 H610 0.930 . S
C570 C568 1.358 . S
C570 N571 1.279 . S
C570 H611 0.930 . S
N571 C569 1.314 1_655 S
N571 C570 1.279 . S
C572 C574 1.353 . S
C572 N575 1.314 . S
C572 H578 0.930 . S
C573 N575 1.279 . S
C573 C576 1.358 . S
C573 H579 0.930 . S
C574 C572 1.353 . S
C574 C577 1.348 . S
C574 H612 0.929 . S
N575 Li530 1.990 . S
N575 C572 1.314 . S
N575 C573 1.279 . S
C576 C573 1.358 . S
C576 C577 1.356 . S
C576 H613 0.930 . S
C577 C574 1.348 . S
C577 C576 1.356 . S
H578 C572 0.930 . S
H579 C573 0.930 . S
C580 N581 1.314 . S
C580 C582 1.353 . S
C580 H586 0.930 . S
N581 Li531 1.990 . S
N581 C580 1.314 . S
N581 C584 1.279 . S
C582 C580 1.353 . S
C582 C585 1.348 . S
C582 H614 0.929 . S
C583 C584 1.358 . S
C583 C585 1.356 . S
C583 H615 0.930 . S
C584 N581 1.279 . S
C584 C583 1.358 . S
C584 H587 0.930 . S
C585 C582 1.348 . S
C585 C583 1.356 . S
H586 C580 0.930 . S
H587 C584 0.930 . S
O588 Li528 1.956 1_455 S
O588 Li529 1.970 1_455 S
O588 Li530 1.961 . S
O588 C532 1.325 . S
O589 Li528 1.970 . S
O589 Li529 1.956 . S
O589 Li531 1.961 . S
O589 C538 1.325 . S
O590 Li528 1.961 . S
O590 Li530 1.956 1_655 S
O590 Li531 1.970 . S
O590 C560 1.325 . S
O591 Li529 1.961 . S
O591 Li530 1.970 1_655 S
O591 Li531 1.956 . S
O591 C566 1.325 . S
H592 C534 0.929 . S
H593 C535 0.930 . S
H594 C536 0.930 . S
H595 C537 0.930 . S
H596 C539 0.930 . S
H597 C541 0.929 . S
H598 C542 0.930 . S
H599 C543 0.930 . S
H600 C546 0.930 . S
H601 C549 0.929 . S
H602 C554 0.929 . S
H603 C555 0.930 . S
H604 C562 0.929 . S
H605 C563 0.930 . S
H606 C564 0.930 . S
H607 C565 0.930 . S
H608 C567 0.929 . S
H609 C568 0.930 . S
H610 C569 0.930 . S
H611 C570 0.930 . S
H612 C574 0.929 . S
H613 C576 0.930 . S
H614 C582 0.929 . S
H615 C583 0.930 . S
Li616 N633 1.990 . S
Li616 O676 1.956 1_565 S
Li616 O677 1.970 . S
Li616 O678 1.961 . S
Li617 N641 1.990 . S
Li617 O676 1.970 1_565 S
Li617 O677 1.956 . S
Li617 O679 1.961 . S
Li618 N663 1.990 . S
Li618 O676 1.961 . S
Li618 O678 1.956 1_545 S
Li618 O679 1.970 1_545 S
Li619 N669 1.990 . S
Li619 O677 1.961 . S
Li619 O678 1.970 . S
Li619 O679 1.956 . S
C620 C622 1.348 . S
C620 C623 1.356 . S
C620 O676 1.325 . S
N621 C624 1.314 . S
N621 C625 1.279 . S
C622 C620 1.348 . S
C622 C624 1.353 . S
C622 H680 0.929 . S
C623 C620 1.356 . S
C623 C625 1.358 . S
C623 H681 0.930 . S
C624 N621 1.314 . S
C624 C622 1.353 . S
C624 H682 0.930 . S
C625 N621 1.279 . S
C625 C623 1.358 . S
C625 H683 0.930 . S
C626 C629 1.348 . S
C626 C630 1.356 . S
C626 O677 1.325 . S
C627 N628 1.279 . S
C627 C630 1.358 . S
C627 H684 0.930 . S
N628 C627 1.279 . S
N628 C631 1.314 . S
C629 C626 1.348 . S
C629 C631 1.353 . S
C629 H685 0.929 . S
C630 C626 1.356 . S
C630 C627 1.358 . S
C630 H686 0.930 . S
C631 N628 1.314 . S
C631 C629 1.353 . S
C631 H687 0.930 . S
C632 N633 1.314 . S
C632 C637 1.353 . S
C632 H638 0.930 . S
N633 Li616 1.990 . S
N633 C632 1.314 . S
N633 C635 1.279 . S
C634 C635 1.358 . S
C634 C636 1.356 . S
C634 H688 0.930 . S
C635 N633 1.279 . S
C635 C634 1.358 . S
C635 H639 0.930 . S
C636 C634 1.356 . S
C636 C637 1.348 . S
C637 C632 1.353 . S
C637 C636 1.348 . S
C637 H689 0.929 . S
H638 C632 0.930 . S
H639 C635 0.930 . S
C640 N641 1.287 1_545 S
C640 C642 1.360 . S
C640 H646 0.954 . S
N641 Li617 1.990 . S
N641 C640 1.287 1_565 S
N641 C644 1.279 . S
C642 C640 1.360 . S
C642 C645 1.348 1_545 S
C642 H690 0.929 . S
C643 C644 1.358 . S
C643 C645 1.356 . S
C643 H691 0.930 . S
C644 N641 1.279 . S
C644 C643 1.358 . S
C644 H647 0.930 . S
C645 C642 1.348 1_565 S
C645 C643 1.356 . S
H646 C640 0.954 . S
H647 C644 0.930 . S
C648 C650 1.348 . S
C648 C651 1.356 . S
C648 O678 1.325 . S
N649 C652 1.314 . S
N649 C653 1.279 . S
C650 C648 1.348 . S
C650 C652 1.353 . S
C650 H692 0.929 . S
C651 C648 1.356 . S
C651 C653 1.358 . S
C651 H693 0.930 . S
C652 N649 1.314 . S
C652 C650 1.353 . S
C652 H694 0.930 . S
C653 N649 1.279 . S
C653 C651 1.358 . S
C653 H695 0.930 . S
C654 C655 1.348 1_565 S
C654 C656 1.356 . S
C654 O679 1.325 . S
C655 C654 1.348 1_545 S
C655 C657 1.353 . S
C655 H696 0.929 . S
C656 C654 1.356 . S
C656 C658 1.358 . S
C656 H697 0.930 . S
C657 C655 1.353 . S
C657 N659 1.314 1_545 S
C657 H698 0.930 . S
C658 C656 1.358 . S
C658 N659 1.279 . S
C658 H699 0.930 . S
N659 C657 1.314 1_565 S
N659 C658 1.279 . S
C660 C662 1.353 . S
C660 N663 1.314 . S
C660 H666 0.930 . S
C661 N663 1.279 . S
C661 C664 1.358 . S
C661 H667 0.930 . S
C662 C660 1.353 . S
C662 C665 1.348 . S
C662 H700 0.929 . S
N663 Li618 1.990 . S
N663 C660 1.314 . S
N663 C661 1.279 . S
C664 C661 1.358 . S
C664 C665 1.356 . S
C664 H701 0.930 . S
C665 C662 1.348 . S
C665 C664 1.356 . S
H666 C660 0.930 . S
H667 C661 0.930 . S
C668 N669 1.314 . S
C668 C670 1.353 . S
C668 H674 0.930 . S
N669 Li619 1.990 . S
N669 C668 1.314 . S
N669 C672 1.279 . S
C670 C668 1.353 . S
C670 C673 1.348 . S
C670 H702 0.929 . S
C671 C672 1.358 . S
C671 C673 1.356 . S
C671 H703 0.930 . S
C672 N669 1.279 . S
C672 C671 1.358 . S
C672 H675 0.930 . S
C673 C670 1.348 . S
C673 C671 1.356 . S
H674 C668 0.930 . S
H675 C672 0.930 . S
O676 Li616 1.956 1_545 S
O676 Li617 1.970 1_545 S
O676 Li618 1.961 . S
O676 C620 1.325 . S
O677 Li616 1.970 . S
O677 Li617 1.956 . S
O677 Li619 1.961 . S
O677 C626 1.325 . S
O678 Li616 1.961 . S
O678 Li618 1.956 1_565 S
O678 Li619 1.970 . S
O678 C648 1.325 . S
O679 Li617 1.961 . S
O679 Li618 1.970 1_565 S
O679 Li619 1.956 . S
O679 C654 1.325 . S
H680 C622 0.929 . S
H681 C623 0.930 . S
H682 C624 0.930 . S
H683 C625 0.930 . S
H684 C627 0.930 . S
H685 C629 0.929 . S
H686 C630 0.930 . S
H687 C631 0.930 . S
H688 C634 0.930 . S
H689 C637 0.929 . S
H690 C642 0.929 . S
H691 C643 0.930 . S
H692 C650 0.929 . S
H693 C651 0.930 . S
H694 C652 0.930 . S
H695 C653 0.930 . S
H696 C655 0.929 . S
H697 C656 0.930 . S
H698 C657 0.930 . S
H699 C658 0.930 . S
H700 C662 0.929 . S
H701 C664 0.930 . S
H702 C670 0.929 . S
H703 C671 0.930 . S
Li704 N721 1.990 . S
Li704 O764 1.956 . S
Li704 O765 1.970 . S
Li704 O766 1.961 . S
Li705 N729 1.990 . S
Li705 O764 1.970 . S
Li705 O765 1.956 . S
Li705 O767 1.961 . S
Li706 N751 1.990 . S
Li706 O764 1.961 . S
Li706 O766 1.956 . S
Li706 O767 1.970 . S
Li707 N757 1.990 . S
Li707 O765 1.961 . S
Li707 O766 1.970 . S
Li707 O767 1.956 . S
C708 C710 1.348 . S
C708 C711 1.356 . S
C708 O764 1.325 . S
N709 C712 1.314 . S
N709 C713 1.279 . S
C710 C708 1.348 . S
C710 C712 1.353 . S
C710 H768 0.929 . S
C711 C708 1.356 . S
C711 C713 1.358 . S
C711 H769 0.930 . S
C712 N709 1.314 . S
C712 C710 1.353 . S
C712 H770 0.930 . S
C713 N709 1.279 . S
C713 C711 1.358 . S
C713 H771 0.930 . S
C714 C717 1.348 . S
C714 C718 1.356 . S
C714 O765 1.325 . S
C715 N716 1.279 . S
C715 C718 1.358 . S
C715 H772 0.930 . S
N716 C715 1.279 . S
N716 C719 1.314 . S
C717 C714 1.348 . S
C717 C719 1.353 . S
C717 H773 0.929 . S
C718 C714 1.356 . S
C718 C715 1.358 . S
C718 H774 0.930 . S
C719 N716 1.314 . S
C719 C717 1.353 . S
C719 H775 0.930 . S
C720 N721 1.314 . S
C720 C725 1.353 . S
C720 H726 0.930 . S
N721 Li704 1.990 . S
N721 C720 1.314 . S
N721 C723 1.279 . S
C722 C723 1.358 . S
C722 C724 1.356 . S
C722 H776 0.930 . S
C723 N721 1.279 . S
C723 C722 1.358 . S
C723 H727 0.930 . S
C724 C722 1.356 . S
C724 C725 1.348 . S
C725 C720 1.353 . S
C725 C724 1.348 . S
C725 H777 0.929 . S
H726 C720 0.930 . S
H727 C723 0.930 . S
C728 N729 1.314 . S
C728 C730 1.353 . S
C728 H734 0.930 . S
N729 Li705 1.990 . S
N729 C728 1.314 . S
N729 C732 1.279 . S
C730 C728 1.353 . S
C730 C733 1.348 . S
C730 H778 0.929 . S
C731 C732 1.358 . S
C731 C733 1.356 . S
C731 H779 0.930 . S
C732 N729 1.279 . S
C732 C731 1.358 . S
C732 H735 0.930 . S
C733 C730 1.348 . S
C733 C731 1.356 . S
H734 C728 0.930 . S
H735 C732 0.930 . S
C736 C738 1.348 . S
C736 C739 1.356 . S
C736 O766 1.325 . S
N737 C740 1.314 . S
N737 C741 1.279 . S
C738 C736 1.348 . S
C738 C740 1.353 . S
C738 H780 0.929 . S
C739 C736 1.356 . S
C739 C741 1.358 . S
C739 H781 0.930 . S
C740 N737 1.314 . S
C740 C738 1.353 . S
C740 H782 0.930 . S
C741 N737 1.279 . S
C741 C739 1.358 . S
C741 H783 0.930 . S
C742 C743 1.348 . S
C742 C744 1.356 . S
C742 O767 1.325 . S
C743 C742 1.348 . S
C743 C745 1.353 . S
C743 H784 0.929 . S
C744 C742 1.356 . S
C744 C746 1.358 . S
C744 H785 0.930 . S
C745 C743 1.353 . S
C745 N747 1.314 . S
C745 H786 0.930 . S
C746 C744 1.358 . S
C746 N747 1.279 . S
C746 H787 0.930 . S
N747 C745 1.314 . S
N747 C746 1.279 . S
C748 C750 1.353 . S
C748 N751 1.314 . S
C748 H754 0.930 . S
C749 N751 1.279 . S
C749 C752 1.358 . S
C749 H755 0.930 . S
C750 C748 1.353 . S
C750 C753 1.348 . S
C750 H788 0.929 . S
N751 Li706 1.990 . S
N751 C748 1.314 . S
N751 C749 1.279 . S
C752 C749 1.358 . S
C752 C753 1.356 . S
C752 H789 0.930 . S
C753 C750 1.348 . S
C753 C752 1.356 . S
H754 C748 0.930 . S
H755 C749 0.930 . S
C756 N757 1.314 . S
C756 C758 1.353 . S
C756 H762 0.930 . S
N757 Li707 1.990 . S
N757 C756 1.314 . S
N757 C760 1.279 . S
C758 C756 1.353 . S
C758 C761 1.348 . S
C758 H790 0.929 . S
C759 C760 1.358 . S
C759 C761 1.356 . S
C759 H791 0.930 . S
C760 N757 1.279 . S
C760 C759 1.358 . S
C760 H763 0.930 . S
C761 C758 1.348 . S
C761 C759 1.356 . S
H762 C756 0.930 . S
H763 C760 0.930 . S
O764 Li704 1.956 . S
O764 Li705 1.970 . S
O764 Li706 1.961 . S
O764 C708 1.325 . S
O765 Li704 1.970 . S
O765 Li705 1.956 . S
O765 Li707 1.961 . S
O765 C714 1.325 . S
O766 Li704 1.961 . S
O766 Li706 1.956 . S
O766 Li707 1.970 . S
O766 C736 1.325 . S
O767 Li705 1.961 . S
O767 Li706 1.970 . S
O767 Li707 1.956 . S
O767 C742 1.325 . S
H768 C710 0.929 . S
H769 C711 0.930 . S
H770 C712 0.930 . S
H771 C713 0.930 . S
H772 C715 0.930 . S
H773 C717 0.929 . S
H774 C718 0.930 . S
H775 C719 0.930 . S
H776 C722 0.930 . S
H777 C725 0.929 . S
H778 C730 0.929 . S
H779 C731 0.930 . S
H780 C738 0.929 . S
H781 C739 0.930 . S
H782 C740 0.930 . S
H783 C741 0.930 . S
H784 C743 0.929 . S
H785 C744 0.930 . S
H786 C745 0.930 . S
H787 C746 0.930 . S
H788 C750 0.929 . S
H789 C752 0.930 . S
H790 C758 0.929 . S
H791 C759 0.930 . S
Li792 N809 1.990 . S
Li792 O852 1.956 . S
Li792 O853 1.970 . S
Li792 O854 1.961 . S
Li793 N817 1.990 . S
Li793 O852 1.970 . S
Li793 O853 1.956 . S
Li793 O855 1.961 . S
Li794 N839 1.990 . S
Li794 O852 1.961 . S
Li794 O854 1.956 . S
Li794 O855 1.970 . S
Li795 N845 1.990 . S
Li795 O853 1.961 . S
Li795 O854 1.970 . S
Li795 O855 1.956 . S
C796 C798 1.348 . S
C796 C799 1.356 . S
C796 O852 1.325 . S
N797 C800 1.314 . S
N797 C801 1.279 . S
C798 C796 1.348 . S
C798 C800 1.353 . S
C798 H856 0.929 . S
C799 C796 1.356 . S
C799 C801 1.358 . S
C799 H857 0.930 . S
C800 N797 1.314 . S
C800 C798 1.353 . S
C800 H858 0.930 . S
C801 N797 1.279 . S
C801 C799 1.358 . S
C801 H859 0.930 . S
C802 C805 1.348 . S
C802 C806 1.356 . S
C802 O853 1.325 . S
C803 N804 1.279 . S
C803 C806 1.358 . S
C803 H860 0.930 . S
N804 C803 1.279 . S
N804 C807 1.314 . S
C805 C802 1.348 . S
C805 C807 1.353 . S
C805 H861 0.929 . S
C806 C802 1.356 . S
C806 C803 1.358 . S
C806 H862 0.930 . S
C807 N804 1.314 . S
C807 C805 1.353 . S
C807 H863 0.930 . S
C808 N809 1.314 . S
C808 C813 1.353 . S
C808 H814 0.930 . S
N809 Li792 1.990 . S
N809 C808 1.314 . S
N809 C811 1.279 . S
C810 C811 1.358 . S
C810 C812 1.356 . S
C810 H864 0.930 . S
C811 N809 1.279 . S
C811 C810 1.358 . S
C811 H815 0.930 . S
C812 C810 1.356 . S
C812 C813 1.348 . S
C813 C808 1.353 . S
C813 C812 1.348 . S
C813 H865 0.929 . S
H814 C808 0.930 . S
H815 C811 0.930 . S
C816 N817 1.314 . S
C816 C818 1.353 . S
C816 H822 0.930 . S
N817 Li793 1.990 . S
N817 C816 1.314 . S
N817 C820 1.279 . S
C818 C816 1.353 . S
C818 C821 1.348 . S
C818 H866 0.929 . S
C819 C820 1.358 . S
C819 C821 1.356 . S
C819 H867 0.930 . S
C820 N817 1.279 . S
C820 C819 1.358 . S
C820 H823 0.930 . S
C821 C818 1.348 . S
C821 C819 1.356 . S
H822 C816 0.930 . S
H823 C820 0.930 . S
C824 C826 1.348 . S
C824 C827 1.356 . S
C824 O854 1.325 . S
N825 C828 1.314 . S
N825 C829 1.279 . S
C826 C824 1.348 . S
C826 C828 1.353 . S
C826 H868 0.929 . S
C827 C824 1.356 . S
C827 C829 1.358 . S
C827 H869 0.930 . S
C828 N825 1.314 . S
C828 C826 1.353 . S
C828 H870 0.930 . S
C829 N825 1.279 . S
C829 C827 1.358 . S
C829 H871 0.930 . S
C830 C831 1.348 . S
C830 C832 1.356 . S
C830 O855 1.325 . S
C831 C830 1.348 . S
C831 C833 1.353 . S
C831 H872 0.929 . S
C832 C830 1.356 . S
C832 C834 1.358 . S
C832 H873 0.930 . S
C833 C831 1.353 . S
C833 N835 1.314 . S
C833 H874 0.930 . S
C834 C832 1.358 . S
C834 N835 1.279 . S
C834 H875 0.930 . S
N835 C833 1.314 . S
N835 C834 1.279 . S
C836 C838 1.353 . S
C836 N839 1.314 . S
C836 H842 0.930 . S
C837 N839 1.279 . S
C837 C840 1.358 . S
C837 H843 0.930 . S
C838 C836 1.353 . S
C838 C841 1.348 . S
C838 H876 0.929 . S
N839 Li794 1.990 . S
N839 C836 1.314 . S
N839 C837 1.279 . S
C840 C837 1.358 . S
C840 C841 1.356 . S
C840 H877 0.930 . S
C841 C838 1.348 . S
C841 C840 1.356 . S
H842 C836 0.930 . S
H843 C837 0.930 . S
C844 N845 1.314 . S
C844 C846 1.353 . S
C844 H850 0.930 . S
N845 Li795 1.990 . S
N845 C844 1.314 . S
N845 C848 1.279 . S
C846 C844 1.353 . S
C846 C849 1.348 . S
C846 H878 0.929 . S
C847 C848 1.358 . S
C847 C849 1.356 . S
C847 H879 0.930 . S
C848 N845 1.279 . S
C848 C847 1.358 . S
C848 H851 0.930 . S
C849 C846 1.348 . S
C849 C847 1.356 . S
H850 C844 0.930 . S
H851 C848 0.930 . S
O852 Li792 1.956 . S
O852 Li793 1.970 . S
O852 Li794 1.961 . S
O852 C796 1.325 . S
O853 Li792 1.970 . S
O853 Li793 1.956 . S
O853 Li795 1.961 . S
O853 C802 1.325 . S
O854 Li792 1.961 . S
O854 Li794 1.956 . S
O854 Li795 1.970 . S
O854 C824 1.325 . S
O855 Li793 1.961 . S
O855 Li794 1.970 . S
O855 Li795 1.956 . S
O855 C830 1.325 . S
H856 C798 0.929 . S
H857 C799 0.930 . S
H858 C800 0.930 . S
H859 C801 0.930 . S
H860 C803 0.930 . S
H861 C805 0.929 . S
H862 C806 0.930 . S
H863 C807 0.930 . S
H864 C810 0.930 . S
H865 C813 0.929 . S
H866 C818 0.929 . S
H867 C819 0.930 . S
H868 C826 0.929 . S
H869 C827 0.930 . S
H870 C828 0.930 . S
H871 C829 0.930 . S
H872 C831 0.929 . S
H873 C832 0.930 . S
H874 C833 0.930 . S
H875 C834 0.930 . S
H876 C838 0.929 . S
H877 C840 0.930 . S
H878 C846 0.929 . S
H879 C847 0.930 . S
Li880 N897 1.990 . S
Li880 O940 1.956 . S
Li880 O941 1.970 1_455 S
Li880 O942 1.961 . S
Li881 N905 1.990 . S
Li881 O940 1.970 1_655 S
Li881 O941 1.956 . S
Li881 O943 1.961 1_655 S
Li882 N927 1.990 . S
Li882 O940 1.961 . S
Li882 O942 1.956 . S
Li882 O943 1.970 . S
Li883 N933 1.990 . S
Li883 O941 1.961 1_455 S
Li883 O942 1.970 . S
Li883 O943 1.956 . S
C884 C886 1.348 1_455 S
C884 C887 1.356 . S
C884 O940 1.325 . S
N885 C888 1.314 . S
N885 C889 1.279 1_655 S
C886 C884 1.348 1_655 S
C886 C888 1.353 . S
C886 H944 0.929 . S
C887 C884 1.356 . S
C887 C889 1.358 . S
C887 H945 0.930 . S
C888 N885 1.314 . S
C888 C886 1.353 . S
C888 H946 0.930 . S
C889 N885 1.279 1_455 S
C889 C887 1.358 . S
C889 H947 0.930 . S
C890 C893 1.348 . S
C890 C894 1.356 . S
C890 O941 1.325 . S
C891 N892 1.279 . S
C891 C894 1.358 . S
C891 H948 0.930 . S
N892 C891 1.279 . S
N892 C895 1.314 . S
C893 C890 1.348 . S
C893 C895 1.353 . S
C893 H949 0.929 . S
C894 C890 1.356 . S
C894 C891 1.358 . S
C894 H950 0.930 . S
C895 N892 1.314 . S
C895 C893 1.353 . S
C895 H951 0.930 . S
C896 N897 1.314 . S
C896 C901 1.353 . S
C896 H902 0.930 . S
N897 Li880 1.990 . S
N897 C896 1.314 . S
N897 C899 1.279 . S
C898 C899 1.359 . S
C898 C900 1.358 . S
C898 H952 0.927 1_455 S
C899 N897 1.279 . S
C899 C898 1.359 . S
C899 H903 0.930 1_455 S
C900 C898 1.358 . S
C900 C901 1.348 . S
C901 C896 1.353 . S
C901 C900 1.348 . S
C901 H953 0.929 . S
H902 C896 0.930 . S
H903 C899 0.930 1_655 S
C904 N905 1.314 . S
C904 C906 1.353 . S
C904 H910 0.930 . S
N905 Li881 1.990 . S
N905 C904 1.314 . S
N905 C908 1.279 . S
C906 C904 1.353 . S
C906 C909 1.348 . S
C906 H954 0.929 . S
C907 C908 1.358 . S
C907 C909 1.356 . S
C907 H955 0.930 . S
C908 N905 1.279 . S
C908 C907 1.358 . S
C908 H911 0.930 . S
C909 C906 1.348 . S
C909 C907 1.356 . S
H910 C904 0.930 . S
H911 C908 0.930 . S
C912 C914 1.348 . S
C912 C915 1.356 . S
C912 O942 1.325 . S
N913 C916 1.314 . S
N913 C917 1.279 . S
C914 C912 1.348 . S
C914 C916 1.353 . S
C914 H956 0.929 . S
C915 C912 1.356 . S
C915 C917 1.358 . S
C915 H957 0.930 . S
C916 N913 1.314 . S
C916 C914 1.353 . S
C916 H958 0.930 . S
C917 N913 1.279 . S
C917 C915 1.358 . S
C917 H959 0.930 . S
C918 C919 1.348 . S
C918 C920 1.356 . S
C918 O943 1.325 . S
C919 C918 1.348 . S
C919 C921 1.353 . S
C919 H960 0.929 . S
C920 C918 1.356 . S
C920 C922 1.358 . S
C920 H961 0.930 1_455 S
C921 C919 1.353 . S
C921 N923 1.314 . S
C921 H962 0.930 . S
C922 C920 1.358 . S
C922 N923 1.279 . S
C922 H963 0.930 1_455 S
N923 C921 1.314 . S
N923 C922 1.279 . S
C924 C926 1.353 . S
C924 N927 1.314 . S
C924 H930 0.930 . S
C925 N927 1.279 . S
C925 C928 1.358 . S
C925 H931 0.930 . S
C926 C924 1.353 . S
C926 C929 1.348 . S
C926 H964 0.929 . S
N927 Li882 1.990 . S
N927 C924 1.314 . S
N927 C925 1.279 . S
C928 C925 1.358 . S
C928 C929 1.356 . S
C928 H965 0.930 . S
C929 C926 1.348 . S
C929 C928 1.356 . S
H930 C924 0.930 . S
H931 C925 0.930 . S
C932 N933 1.314 . S
C932 C934 1.353 . S
C932 H938 0.930 . S
N933 Li883 1.990 . S
N933 C932 1.314 . S
N933 C936 1.279 . S
C934 C932 1.353 . S
C934 C937 1.348 . S
C934 H966 0.929 . S
C935 C936 1.358 . S
C935 C937 1.356 . S
C935 H967 0.930 . S
C936 N933 1.279 . S
C936 C935 1.358 . S
C936 H939 0.930 . S
C937 C934 1.348 . S
C937 C935 1.356 . S
H938 C932 0.930 . S
H939 C936 0.930 . S
O940 Li880 1.956 . S
O940 Li881 1.970 1_455 S
O940 Li882 1.961 . S
O940 C884 1.325 . S
O941 Li880 1.970 1_655 S
O941 Li881 1.956 . S
O941 Li883 1.961 1_655 S
O941 C890 1.325 . S
O942 Li880 1.961 . S
O942 Li882 1.956 . S
O942 Li883 1.970 . S
O942 C912 1.325 . S
O943 Li881 1.961 1_455 S
O943 Li882 1.970 . S
O943 Li883 1.956 . S
O943 C918 1.325 . S
H944 C886 0.929 . S
H945 C887 0.930 . S
H946 C888 0.930 . S
H947 C889 0.930 . S
H948 C891 0.930 . S
H949 C893 0.929 . S
H950 C894 0.930 . S
H951 C895 0.930 . S
H952 C898 0.927 1_655 S
H953 C901 0.929 . S
H954 C906 0.929 . S
H955 C907 0.930 . S
H956 C914 0.929 . S
H957 C915 0.930 . S
H958 C916 0.930 . S
H959 C917 0.930 . S
H960 C919 0.929 . S
H961 C920 0.930 1_655 S
H962 C921 0.930 . S
H963 C922 0.930 1_655 S
H964 C926 0.929 . S
H965 C928 0.930 . S
H966 C934 0.929 . S
H967 C935 0.930 . S
Li968 N985 1.990 . S
Li968 O1028 1.956 . S
Li968 O1029 1.970 1_545 S
Li968 O1030 1.961 . S
Li969 N993 1.990 . S
Li969 O1028 1.970 1_565 S
Li969 O1029 1.956 . S
Li969 O1031 1.961 1_565 S
Li970 N1015 1.990 . S
Li970 O1028 1.961 . S
Li970 O1030 1.956 . S
Li970 O1031 1.970 . S
Li971 N1021 1.990 . S
Li971 O1029 1.961 1_545 S
Li971 O1030 1.970 . S
Li971 O1031 1.956 . S
C972 C974 1.348 1_545 S
C972 C975 1.356 . S
C972 O1028 1.325 . S
N973 C976 1.314 . S
N973 C977 1.279 1_565 S
C974 C972 1.348 1_565 S
C974 C976 1.353 . S
C974 H1032 0.929 . S
C975 C972 1.356 . S
C975 C977 1.358 . S
C975 H1033 0.930 . S
C976 N973 1.314 . S
C976 C974 1.353 . S
C976 H1034 0.930 . S
C977 N973 1.279 1_545 S
C977 C975 1.358 . S
C977 H1035 0.930 . S
C978 C981 1.348 . S
C978 C982 1.356 . S
C978 O1029 1.325 . S
C979 N980 1.279 . S
C979 C982 1.358 . S
C979 H1036 0.930 . S
N980 C979 1.279 . S
N980 C983 1.314 . S
C981 C978 1.348 . S
C981 C983 1.353 . S
C981 H1037 0.929 . S
C982 C978 1.356 . S
C982 C979 1.358 . S
C982 H1038 0.930 . S
C983 N980 1.314 . S
C983 C981 1.353 . S
C983 H1039 0.930 . S
C984 N985 1.314 . S
C984 C989 1.353 . S
C984 H990 0.930 . S
N985 Li968 1.990 . S
N985 C984 1.314 . S
N985 C987 1.279 . S
C986 C987 1.359 . S
C986 C988 1.358 . S
C986 H1040 0.927 1_545 S
C987 N985 1.279 . S
C987 C986 1.359 . S
C987 H991 0.930 1_545 S
C988 C986 1.358 . S
C988 C989 1.348 . S
C989 C984 1.353 . S
C989 C988 1.348 . S
C989 H1041 0.929 . S
H990 C984 0.930 . S
H991 C987 0.930 1_565 S
C992 N993 1.314 . S
C992 C994 1.353 . S
C992 H998 0.930 . S
N993 Li969 1.990 . S
N993 C992 1.314 . S
N993 C996 1.279 . S
C994 C992 1.353 . S
C994 C997 1.348 . S
C994 H1042 0.929 . S
C995 C996 1.358 . S
C995 C997 1.356 . S
C995 H1043 0.930 . S
C996 N993 1.279 . S
C996 C995 1.358 . S
C996 H999 0.930 . S
C997 C994 1.348 . S
C997 C995 1.356 . S
H998 C992 0.930 . S
H999 C996 0.930 . S
C1000 C1002 1.348 . S
C1000 C1003 1.356 . S
C1000 O1030 1.325 . S
N1001 C1004 1.314 . S
N1001 C1005 1.279 . S
C1002 C1000 1.348 . S
C1002 C1004 1.353 . S
C1002 H1044 0.929 . S
C1003 C1000 1.356 . S
C1003 C1005 1.358 . S
C1003 H1045 0.930 . S
C1004 N1001 1.314 . S
C1004 C1002 1.353 . S
C1004 H1046 0.930 . S
C1005 N1001 1.279 . S
C1005 C1003 1.358 . S
C1005 H1047 0.930 . S
C1006 C1007 1.348 . S
C1006 C1008 1.356 . S
C1006 O1031 1.325 . S
C1007 C1006 1.348 . S
C1007 C1009 1.353 . S
C1007 H1048 0.929 . S
C1008 C1006 1.356 . S
C1008 C1010 1.358 . S
C1008 H1049 0.930 1_545 S
C1009 C1007 1.353 . S
C1009 N1011 1.314 . S
C1009 H1050 0.930 . S
C1010 C1008 1.358 . S
C1010 N1011 1.279 . S
C1010 H1051 0.930 1_545 S
N1011 C1009 1.314 . S
N1011 C1010 1.279 . S
C1012 C1014 1.353 . S
C1012 N1015 1.314 . S
C1012 H1018 0.930 . S
C1013 N1015 1.279 . S
C1013 C1016 1.358 . S
C1013 H1019 0.930 . S
C1014 C1012 1.353 . S
C1014 C1017 1.348 . S
C1014 H1052 0.929 . S
N1015 Li970 1.990 . S
N1015 C1012 1.314 . S
N1015 C1013 1.279 . S
C1016 C1013 1.358 . S
C1016 C1017 1.356 . S
C1016 H1053 0.930 . S
C1017 C1014 1.348 . S
C1017 C1016 1.356 . S
H1018 C1012 0.930 . S
H1019 C1013 0.930 . S
C1020 N1021 1.314 . S
C1020 C1022 1.353 . S
C1020 H1026 0.930 . S
N1021 Li971 1.990 . S
N1021 C1020 1.314 . S
N1021 C1024 1.279 . S
C1022 C1020 1.353 . S
C1022 C1025 1.348 . S
C1022 H1054 0.929 . S
C1023 C1024 1.358 . S
C1023 C1025 1.356 . S
C1023 H1055 0.930 . S
C1024 N1021 1.279 . S
C1024 C1023 1.358 . S
C1024 H1027 0.930 . S
C1025 C1022 1.348 . S
C1025 C1023 1.356 . S
H1026 C1020 0.930 . S
H1027 C1024 0.930 . S
O1028 Li968 1.956 . S
O1028 Li969 1.970 1_545 S
O1028 Li970 1.961 . S
O1028 C972 1.325 . S
O1029 Li968 1.970 1_565 S
O1029 Li969 1.956 . S
O1029 Li971 1.961 1_565 S
O1029 C978 1.325 . S
O1030 Li968 1.961 . S
O1030 Li970 1.956 . S
O1030 Li971 1.970 . S
O1030 C1000 1.325 . S
O1031 Li969 1.961 1_545 S
O1031 Li970 1.970 . S
O1031 Li971 1.956 . S
O1031 C1006 1.325 . S
H1032 C974 0.929 . S
H1033 C975 0.930 . S
H1034 C976 0.930 . S
H1035 C977 0.930 . S
H1036 C979 0.930 . S
H1037 C981 0.929 . S
H1038 C982 0.930 . S
H1039 C983 0.930 . S
H1040 C986 0.927 1_565 S
H1041 C989 0.929 . S
H1042 C994 0.929 . S
H1043 C995 0.930 . S
H1044 C1002 0.929 . S
H1045 C1003 0.930 . S
H1046 C1004 0.930 . S
H1047 C1005 0.930 . S
H1048 C1007 0.929 . S
H1049 C1008 0.930 1_565 S
H1050 C1009 0.930 . S
H1051 C1010 0.930 1_565 S
H1052 C1014 0.929 . S
H1053 C1016 0.930 . S
H1054 C1022 0.929 . S
H1055 C1023 0.930 . S
Li1056 N1073 1.990 . S
Li1056 O1116 1.956 . S
Li1056 O1117 1.970 . S
Li1056 O1118 1.961 . S
Li1057 N1081 1.990 . S
Li1057 O1116 1.970 . S
Li1057 O1117 1.956 . S
Li1057 O1119 1.961 . S
Li1058 N1103 1.990 . S
Li1058 O1116 1.961 . S
Li1058 O1118 1.956 . S
Li1058 O1119 1.970 . S
Li1059 N1109 1.990 . S
Li1059 O1117 1.961 . S
Li1059 O1118 1.970 . S
Li1059 O1119 1.956 . S
C1060 C1062 1.348 . S
C1060 C1063 1.356 . S
C1060 O1116 1.325 . S
N1061 C1064 1.314 . S
N1061 C1065 1.279 . S
C1062 C1060 1.348 . S
C1062 C1064 1.353 . S
C1062 H1120 0.929 . S
C1063 C1060 1.356 . S
C1063 C1065 1.358 . S
C1063 H1121 0.930 . S
C1064 N1061 1.314 . S
C1064 C1062 1.353 . S
C1064 H1122 0.930 . S
C1065 N1061 1.279 . S
C1065 C1063 1.358 . S
C1065 H1123 0.930 . S
C1066 C1069 1.348 . S
C1066 C1070 1.356 . S
C1066 O1117 1.325 . S
C1067 N1068 1.279 . S
C1067 C1070 1.358 . S
C1067 H1124 0.930 . S
N1068 C1067 1.279 . S
N1068 C1071 1.314 . S
C1069 C1066 1.348 . S
C1069 C1071 1.353 . S
C1069 H1125 0.929 . S
C1070 C1066 1.356 . S
C1070 C1067 1.358 . S
C1070 H1126 0.930 . S
C1071 N1068 1.314 . S
C1071 C1069 1.353 . S
C1071 H1127 0.930 . S
C1072 N1073 1.314 . S
C1072 C1077 1.353 . S
C1072 H1078 0.930 . S
N1073 Li1056 1.990 . S
N1073 C1072 1.314 . S
N1073 C1075 1.279 . S
C1074 C1075 1.358 . S
C1074 C1076 1.356 . S
C1074 H1128 0.930 . S
C1075 N1073 1.279 . S
C1075 C1074 1.358 . S
C1075 H1079 0.930 . S
C1076 C1074 1.356 . S
C1076 C1077 1.348 . S
C1077 C1072 1.353 . S
C1077 C1076 1.348 . S
C1077 H1129 0.929 . S
H1078 C1072 0.930 . S
H1079 C1075 0.930 . S
C1080 N1081 1.314 . S
C1080 C1082 1.353 . S
C1080 H1086 0.930 . S
N1081 Li1057 1.990 . S
N1081 C1080 1.314 . S
N1081 C1084 1.279 . S
C1082 C1080 1.353 . S
C1082 C1085 1.348 . S
C1082 H1130 0.929 . S
C1083 C1084 1.358 . S
C1083 C1085 1.356 . S
C1083 H1131 0.930 . S
C1084 N1081 1.279 . S
C1084 C1083 1.358 . S
C1084 H1087 0.930 . S
C1085 C1082 1.348 . S
C1085 C1083 1.356 . S
H1086 C1080 0.930 . S
H1087 C1084 0.930 . S
C1088 C1090 1.348 . S
C1088 C1091 1.356 . S
C1088 O1118 1.325 . S
N1089 C1092 1.314 . S
N1089 C1093 1.279 . S
C1090 C1088 1.348 . S
C1090 C1092 1.353 . S
C1090 H1132 0.929 . S
C1091 C1088 1.356 . S
C1091 C1093 1.358 . S
C1091 H1133 0.930 . S
C1092 N1089 1.314 . S
C1092 C1090 1.353 . S
C1092 H1134 0.930 . S
C1093 N1089 1.279 . S
C1093 C1091 1.358 . S
C1093 H1135 0.930 . S
C1094 C1095 1.348 . S
C1094 C1096 1.356 . S
C1094 O1119 1.325 . S
C1095 C1094 1.348 . S
C1095 C1097 1.353 . S
C1095 H1136 0.929 . S
C1096 C1094 1.356 . S
C1096 C1098 1.358 . S
C1096 H1137 0.930 . S
C1097 C1095 1.353 . S
C1097 N1099 1.314 . S
C1097 H1138 0.930 . S
C1098 C1096 1.358 . S
C1098 N1099 1.279 . S
C1098 H1139 0.930 . S
N1099 C1097 1.314 . S
N1099 C1098 1.279 . S
C1100 C1102 1.353 . S
C1100 N1103 1.314 . S
C1100 H1106 0.930 . S
C1101 N1103 1.279 . S
C1101 C1104 1.358 . S
C1101 H1107 0.930 . S
C1102 C1100 1.353 . S
C1102 C1105 1.348 . S
C1102 H1140 0.929 . S
N1103 Li1058 1.990 . S
N1103 C1100 1.314 . S
N1103 C1101 1.279 . S
C1104 C1101 1.358 . S
C1104 C1105 1.356 . S
C1104 H1141 0.930 . S
C1105 C1102 1.348 . S
C1105 C1104 1.356 . S
H1106 C1100 0.930 . S
H1107 C1101 0.930 . S
C1108 N1109 1.314 . S
C1108 C1110 1.353 . S
C1108 H1114 0.930 . S
N1109 Li1059 1.990 . S
N1109 C1108 1.314 . S
N1109 C1112 1.279 . S
C1110 C1108 1.353 . S
C1110 C1113 1.348 . S
C1110 H1142 0.929 . S
C1111 C1112 1.358 . S
C1111 C1113 1.356 . S
C1111 H1143 0.930 . S
C1112 N1109 1.279 . S
C1112 C1111 1.358 . S
C1112 H1115 0.930 . S
C1113 C1110 1.348 . S
C1113 C1111 1.356 . S
H1114 C1108 0.930 . S
H1115 C1112 0.930 . S
O1116 Li1056 1.956 . S
O1116 Li1057 1.970 . S
O1116 Li1058 1.961 . S
O1116 C1060 1.325 . S
O1117 Li1056 1.970 . S
O1117 Li1057 1.956 . S
O1117 Li1059 1.961 . S
O1117 C1066 1.325 . S
O1118 Li1056 1.961 . S
O1118 Li1058 1.956 . S
O1118 Li1059 1.970 . S
O1118 C1088 1.325 . S
O1119 Li1057 1.961 . S
O1119 Li1058 1.970 . S
O1119 Li1059 1.956 . S
O1119 C1094 1.325 . S
H1120 C1062 0.929 . S
H1121 C1063 0.930 . S
H1122 C1064 0.930 . S
H1123 C1065 0.930 . S
H1124 C1067 0.930 . S
H1125 C1069 0.929 . S
H1126 C1070 0.930 . S
H1127 C1071 0.930 . S
H1128 C1074 0.930 . S
H1129 C1077 0.929 . S
H1130 C1082 0.929 . S
H1131 C1083 0.930 . S
H1132 C1090 0.929 . S
H1133 C1091 0.930 . S
H1134 C1092 0.930 . S
H1135 C1093 0.930 . S
H1136 C1095 0.929 . S
H1137 C1096 0.930 . S
H1138 C1097 0.930 . S
H1139 C1098 0.930 . S
H1140 C1102 0.929 . S
H1141 C1104 0.930 . S
H1142 C1110 0.929 . S
H1143 C1111 0.930 . S
Li1144 N1161 1.990 . S
Li1144 O1204 1.956 . S
Li1144 O1205 1.970 . S
Li1144 O1206 1.961 . S
Li1145 N1169 1.990 . S
Li1145 O1204 1.970 . S
Li1145 O1205 1.956 . S
Li1145 O1207 1.961 . S
Li1146 N1191 1.990 . S
Li1146 O1204 1.961 . S
Li1146 O1206 1.956 . S
Li1146 O1207 1.970 . S
Li1147 N1197 1.990 . S
Li1147 O1205 1.961 . S
Li1147 O1206 1.970 . S
Li1147 O1207 1.956 . S
C1148 C1150 1.348 . S
C1148 C1151 1.356 . S
C1148 O1204 1.325 . S
N1149 C1152 1.314 . S
N1149 C1153 1.279 . S
C1150 C1148 1.348 . S
C1150 C1152 1.353 . S
C1150 H1208 0.929 . S
C1151 C1148 1.356 . S
C1151 C1153 1.358 . S
C1151 H1209 0.930 . S
C1152 N1149 1.314 . S
C1152 C1150 1.353 . S
C1152 H1210 0.930 . S
C1153 N1149 1.279 . S
C1153 C1151 1.358 . S
C1153 H1211 0.930 . S
C1154 C1157 1.348 . S
C1154 C1158 1.356 . S
C1154 O1205 1.325 . S
C1155 N1156 1.279 . S
C1155 C1158 1.358 . S
C1155 H1212 0.930 . S
N1156 C1155 1.279 . S
N1156 C1159 1.314 . S
C1157 C1154 1.348 . S
C1157 C1159 1.353 . S
C1157 H1213 0.929 . S
C1158 C1154 1.356 . S
C1158 C1155 1.358 . S
C1158 H1214 0.930 . S
C1159 N1156 1.314 . S
C1159 C1157 1.353 . S
C1159 H1215 0.930 . S
C1160 N1161 1.314 . S
C1160 C1165 1.353 . S
C1160 H1166 0.930 . S
N1161 Li1144 1.990 . S
N1161 C1160 1.314 . S
N1161 C1163 1.279 . S
C1162 C1163 1.358 . S
C1162 C1164 1.356 . S
C1162 H1216 0.930 . S
C1163 N1161 1.279 . S
C1163 C1162 1.358 . S
C1163 H1167 0.930 . S
C1164 C1162 1.356 . S
C1164 C1165 1.348 . S
C1165 C1160 1.353 . S
C1165 C1164 1.348 . S
C1165 H1217 0.929 . S
H1166 C1160 0.930 . S
H1167 C1163 0.930 . S
C1168 N1169 1.314 . S
C1168 C1170 1.353 . S
C1168 H1174 0.930 . S
N1169 Li1145 1.990 . S
N1169 C1168 1.314 . S
N1169 C1172 1.279 . S
C1170 C1168 1.353 . S
C1170 C1173 1.348 . S
C1170 H1218 0.929 . S
C1171 C1172 1.358 . S
C1171 C1173 1.356 . S
C1171 H1219 0.930 . S
C1172 N1169 1.279 . S
C1172 C1171 1.358 . S
C1172 H1175 0.930 . S
C1173 C1170 1.348 . S
C1173 C1171 1.356 . S
H1174 C1168 0.930 . S
H1175 C1172 0.930 . S
C1176 C1178 1.348 . S
C1176 C1179 1.356 . S
C1176 O1206 1.325 . S
N1177 C1180 1.314 . S
N1177 C1181 1.279 . S
C1178 C1176 1.348 . S
C1178 C1180 1.353 . S
C1178 H1220 0.929 . S
C1179 C1176 1.356 . S
C1179 C1181 1.358 . S
C1179 H1221 0.930 . S
C1180 N1177 1.314 . S
C1180 C1178 1.353 . S
C1180 H1222 0.930 . S
C1181 N1177 1.279 . S
C1181 C1179 1.358 . S
C1181 H1223 0.930 . S
C1182 C1183 1.348 . S
C1182 C1184 1.356 . S
C1182 O1207 1.325 . S
C1183 C1182 1.348 . S
C1183 C1185 1.353 . S
C1183 H1224 0.929 . S
C1184 C1182 1.356 . S
C1184 C1186 1.358 . S
C1184 H1225 0.930 . S
C1185 C1183 1.353 . S
C1185 N1187 1.314 . S
C1185 H1226 0.930 . S
C1186 C1184 1.358 . S
C1186 N1187 1.279 . S
C1186 H1227 0.930 . S
N1187 C1185 1.314 . S
N1187 C1186 1.279 . S
C1188 C1190 1.353 . S
C1188 N1191 1.314 . S
C1188 H1194 0.930 . S
C1189 N1191 1.279 . S
C1189 C1192 1.358 . S
C1189 H1195 0.930 . S
C1190 C1188 1.353 . S
C1190 C1193 1.348 . S
C1190 H1228 0.929 . S
N1191 Li1146 1.990 . S
N1191 C1188 1.314 . S
N1191 C1189 1.279 . S
C1192 C1189 1.358 . S
C1192 C1193 1.356 . S
C1192 H1229 0.930 . S
C1193 C1190 1.348 . S
C1193 C1192 1.356 . S
H1194 C1188 0.930 . S
H1195 C1189 0.930 . S
C1196 N1197 1.314 . S
C1196 C1198 1.353 . S
C1196 H1202 0.930 . S
N1197 Li1147 1.990 . S
N1197 C1196 1.314 . S
N1197 C1200 1.279 . S
C1198 C1196 1.353 . S
C1198 C1201 1.348 . S
C1198 H1230 0.929 . S
C1199 C1200 1.358 . S
C1199 C1201 1.356 . S
C1199 H1231 0.930 . S
C1200 N1197 1.279 . S
C1200 C1199 1.358 . S
C1200 H1203 0.930 . S
C1201 C1198 1.348 . S
C1201 C1199 1.356 . S
H1202 C1196 0.930 . S
H1203 C1200 0.930 . S
O1204 Li1144 1.956 . S
O1204 Li1145 1.970 . S
O1204 Li1146 1.961 . S
O1204 C1148 1.325 . S
O1205 Li1144 1.970 . S
O1205 Li1145 1.956 . S
O1205 Li1147 1.961 . S
O1205 C1154 1.325 . S
O1206 Li1144 1.961 . S
O1206 Li1146 1.956 . S
O1206 Li1147 1.970 . S
O1206 C1176 1.325 . S
O1207 Li1145 1.961 . S
O1207 Li1146 1.970 . S
O1207 Li1147 1.956 . S
O1207 C1182 1.325 . S
H1208 C1150 0.929 . S
H1209 C1151 0.930 . S
H1210 C1152 0.930 . S
H1211 C1153 0.930 . S
H1212 C1155 0.930 . S
H1213 C1157 0.929 . S
H1214 C1158 0.930 . S
H1215 C1159 0.930 . S
H1216 C1162 0.930 . S
H1217 C1165 0.929 . S
H1218 C1170 0.929 . S
H1219 C1171 0.930 . S
H1220 C1178 0.929 . S
H1221 C1179 0.930 . S
H1222 C1180 0.930 . S
H1223 C1181 0.930 . S
H1224 C1183 0.929 . S
H1225 C1184 0.930 . S
H1226 C1185 0.930 . S
H1227 C1186 0.930 . S
H1228 C1190 0.929 . S
H1229 C1192 0.930 . S
H1230 C1198 0.929 . S
H1231 C1199 0.930 . S
Li1232 N1249 1.990 . S
Li1232 O1292 1.956 . S
Li1232 O1293 1.970 . S
Li1232 O1294 1.961 . S
Li1233 N1257 1.990 . S
Li1233 O1292 1.970 . S
Li1233 O1293 1.956 . S
Li1233 O1295 1.961 1_455 S
Li1234 N1279 1.990 . S
Li1234 O1292 1.961 . S
Li1234 O1294 1.956 . S
Li1234 O1295 1.970 1_455 S
Li1235 N1285 1.990 . S
Li1235 O1293 1.961 1_655 S
Li1235 O1294 1.970 1_655 S
Li1235 O1295 1.956 . S
C1236 C1238 1.348 . S
C1236 C1239 1.356 . S
C1236 O1292 1.325 . S
N1237 C1240 1.314 . S
N1237 C1241 1.279 . S
C1238 C1236 1.348 . S
C1238 C1240 1.353 . S
C1238 H1296 0.929 . S
C1239 C1236 1.356 . S
C1239 C1241 1.358 . S
C1239 H1297 0.930 . S
C1240 N1237 1.314 . S
C1240 C1238 1.353 . S
C1240 H1298 0.930 . S
C1241 N1237 1.279 . S
C1241 C1239 1.358 . S
C1241 H1299 0.930 . S
C1242 C1245 1.348 . S
C1242 C1246 1.356 . S
C1242 O1293 1.325 . S
C1243 N1244 1.279 . S
C1243 C1246 1.358 . S
C1243 H1300 0.930 1_455 S
N1244 C1243 1.279 . S
N1244 C1247 1.314 . S
C1245 C1242 1.348 . S
C1245 C1247 1.353 . S
C1245 H1301 0.929 . S
C1246 C1242 1.356 . S
C1246 C1243 1.358 . S
C1246 H1302 0.930 1_455 S
C1247 N1244 1.314 . S
C1247 C1245 1.353 . S
C1247 H1303 0.930 . S
C1248 N1249 1.314 . S
C1248 C1253 1.353 . S
C1248 H1254 0.930 . S
N1249 Li1232 1.990 . S
N1249 C1248 1.314 . S
N1249 C1251 1.279 . S
C1250 C1251 1.358 . S
C1250 C1252 1.356 . S
C1250 H1304 0.930 . S
C1251 N1249 1.279 . S
C1251 C1250 1.358 . S
C1251 H1255 0.930 . S
C1252 C1250 1.356 . S
C1252 C1253 1.348 . S
C1253 C1248 1.353 . S
C1253 C1252 1.348 . S
C1253 H1305 0.929 . S
H1254 C1248 0.930 . S
H1255 C1251 0.930 . S
C1256 N1257 1.314 . S
C1256 C1258 1.353 . S
C1256 H1262 0.930 . S
N1257 Li1233 1.990 . S
N1257 C1256 1.314 . S
N1257 C1260 1.279 . S
C1258 C1256 1.353 . S
C1258 C1261 1.348 . S
C1258 H1306 0.929 . S
C1259 C1260 1.358 . S
C1259 C1261 1.356 . S
C1259 H1307 0.930 . S
C1260 N1257 1.279 . S
C1260 C1259 1.358 . S
C1260 H1263 0.930 . S
C1261 C1258 1.348 . S
C1261 C1259 1.356 . S
H1262 C1256 0.930 . S
H1263 C1260 0.930 . S
C1264 C1266 1.348 1_455 S
C1264 C1267 1.356 . S
C1264 O1294 1.325 . S
N1265 C1268 1.314 . S
N1265 C1269 1.279 1_655 S
C1266 C1264 1.348 1_655 S
C1266 C1268 1.353 . S
C1266 H1308 0.929 . S
C1267 C1264 1.356 . S
C1267 C1269 1.358 . S
C1267 H1309 0.930 . S
C1268 N1265 1.314 . S
C1268 C1266 1.353 . S
C1268 H1310 0.930 . S
C1269 N1265 1.279 1_455 S
C1269 C1267 1.358 . S
C1269 H1311 0.930 . S
C1270 C1271 1.348 . S
C1270 C1272 1.356 . S
C1270 O1295 1.325 . S
C1271 C1270 1.348 . S
C1271 C1273 1.353 . S
C1271 H1312 0.929 . S
C1272 C1270 1.356 . S
C1272 C1274 1.358 . S
C1272 H1313 0.930 . S
C1273 C1271 1.353 . S
C1273 N1275 1.314 . S
C1273 H1314 0.930 . S
C1274 C1272 1.358 . S
C1274 N1275 1.279 . S
C1274 H1315 0.930 . S
N1275 C1273 1.314 . S
N1275 C1274 1.279 . S
C1276 C1278 1.353 . S
C1276 N1279 1.314 . S
C1276 H1282 0.930 . S
C1277 N1279 1.279 . S
C1277 C1280 1.359 . S
C1277 H1283 0.930 1_455 S
C1278 C1276 1.353 . S
C1278 C1281 1.348 . S
C1278 H1316 0.929 . S
N1279 Li1234 1.990 . S
N1279 C1276 1.314 . S
N1279 C1277 1.279 . S
C1280 C1277 1.359 . S
C1280 C1281 1.358 . S
C1280 H1317 0.927 1_455 S
C1281 C1278 1.348 . S
C1281 C1280 1.358 . S
H1282 C1276 0.930 . S
H1283 C1277 0.930 1_655 S
C1284 N1285 1.314 . S
C1284 C1286 1.353 . S
C1284 H1290 0.930 . S
N1285 Li1235 1.990 . S
N1285 C1284 1.314 . S
N1285 C1288 1.279 . S
C1286 C1284 1.353 . S
C1286 C1289 1.348 . S
C1286 H1318 0.929 . S
C1287 C1288 1.358 . S
C1287 C1289 1.356 . S
C1287 H1319 0.930 . S
C1288 N1285 1.279 . S
C1288 C1287 1.358 . S
C1288 H1291 0.930 . S
C1289 C1286 1.348 . S
C1289 C1287 1.356 . S
H1290 C1284 0.930 . S
H1291 C1288 0.930 . S
O1292 Li1232 1.956 . S
O1292 Li1233 1.970 . S
O1292 Li1234 1.961 . S
O1292 C1236 1.325 . S
O1293 Li1232 1.970 . S
O1293 Li1233 1.956 . S
O1293 Li1235 1.961 1_455 S
O1293 C1242 1.325 . S
O1294 Li1232 1.961 . S
O1294 Li1234 1.956 . S
O1294 Li1235 1.970 1_455 S
O1294 C1264 1.325 . S
O1295 Li1233 1.961 1_655 S
O1295 Li1234 1.970 1_655 S
O1295 Li1235 1.956 . S
O1295 C1270 1.325 . S
H1296 C1238 0.929 . S
H1297 C1239 0.930 . S
H1298 C1240 0.930 . S
H1299 C1241 0.930 . S
H1300 C1243 0.930 1_655 S
H1301 C1245 0.929 . S
H1302 C1246 0.930 1_655 S
H1303 C1247 0.930 . S
H1304 C1250 0.930 . S
H1305 C1253 0.929 . S
H1306 C1258 0.929 . S
H1307 C1259 0.930 . S
H1308 C1266 0.929 . S
H1309 C1267 0.930 . S
H1310 C1268 0.930 . S
H1311 C1269 0.930 . S
H1312 C1271 0.929 . S
H1313 C1272 0.930 . S
H1314 C1273 0.930 . S
H1315 C1274 0.930 . S
H1316 C1278 0.929 . S
H1317 C1280 0.927 1_655 S
H1318 C1286 0.929 . S
H1319 C1287 0.930 . S
Li1320 N1337 1.990 . S
Li1320 O1380 1.956 . S
Li1320 O1381 1.970 . S
Li1320 O1382 1.961 . S
Li1321 N1345 1.990 . S
Li1321 O1380 1.970 . S
Li1321 O1381 1.956 . S
Li1321 O1383 1.961 1_545 S
Li1322 N1367 1.990 . S
Li1322 O1380 1.961 . S
Li1322 O1382 1.956 . S
Li1322 O1383 1.970 1_545 S
Li1323 N1373 1.990 . S
Li1323 O1381 1.961 1_565 S
Li1323 O1382 1.970 1_565 S
Li1323 O1383 1.956 . S
C1324 C1326 1.348 . S
C1324 C1327 1.356 . S
C1324 O1380 1.325 . S
N1325 C1328 1.314 . S
N1325 C1329 1.279 . S
C1326 C1324 1.348 . S
C1326 C1328 1.353 . S
C1326 H1384 0.929 . S
C1327 C1324 1.356 . S
C1327 C1329 1.358 . S
C1327 H1385 0.930 . S
C1328 N1325 1.314 . S
C1328 C1326 1.353 . S
C1328 H1386 0.930 . S
C1329 N1325 1.279 . S
C1329 C1327 1.358 . S
C1329 H1387 0.930 . S
C1330 C1333 1.348 . S
C1330 C1334 1.356 . S
C1330 O1381 1.325 . S
C1331 N1332 1.279 . S
C1331 C1334 1.358 . S
C1331 H1388 0.930 1_545 S
N1332 C1331 1.279 . S
N1332 C1335 1.314 . S
C1333 C1330 1.348 . S
C1333 C1335 1.353 . S
C1333 H1389 0.929 . S
C1334 C1330 1.356 . S
C1334 C1331 1.358 . S
C1334 H1390 0.930 1_545 S
C1335 N1332 1.314 . S
C1335 C1333 1.353 . S
C1335 H1391 0.930 . S
C1336 N1337 1.314 . S
C1336 C1341 1.353 . S
C1336 H1342 0.930 . S
N1337 Li1320 1.990 . S
N1337 C1336 1.314 . S
N1337 C1339 1.279 . S
C1338 C1339 1.358 . S
C1338 C1340 1.356 . S
C1338 H1392 0.930 . S
C1339 N1337 1.279 . S
C1339 C1338 1.358 . S
C1339 H1343 0.930 . S
C1340 C1338 1.356 . S
C1340 C1341 1.348 . S
C1341 C1336 1.353 . S
C1341 C1340 1.348 . S
C1341 H1393 0.929 . S
H1342 C1336 0.930 . S
H1343 C1339 0.930 . S
C1344 N1345 1.314 . S
C1344 C1346 1.353 . S
C1344 H1350 0.930 . S
N1345 Li1321 1.990 . S
N1345 C1344 1.314 . S
N1345 C1348 1.279 . S
C1346 C1344 1.353 . S
C1346 C1349 1.348 . S
C1346 H1394 0.929 . S
C1347 C1348 1.358 . S
C1347 C1349 1.356 . S
C1347 H1395 0.930 . S
C1348 N1345 1.279 . S
C1348 C1347 1.358 . S
C1348 H1351 0.930 . S
C1349 C1346 1.348 . S
C1349 C1347 1.356 . S
H1350 C1344 0.930 . S
H1351 C1348 0.930 . S
C1352 C1354 1.348 1_545 S
C1352 C1355 1.356 . S
C1352 O1382 1.325 . S
N1353 C1356 1.314 . S
N1353 C1357 1.279 1_565 S
C1354 C1352 1.348 1_565 S
C1354 C1356 1.353 . S
C1354 H1396 0.929 . S
C1355 C1352 1.356 . S
C1355 C1357 1.358 . S
C1355 H1397 0.930 . S
C1356 N1353 1.314 . S
C1356 C1354 1.353 . S
C1356 H1398 0.930 . S
C1357 N1353 1.279 1_545 S
C1357 C1355 1.358 . S
C1357 H1399 0.930 . S
C1358 C1359 1.348 . S
C1358 C1360 1.356 . S
C1358 O1383 1.325 . S
C1359 C1358 1.348 . S
C1359 C1361 1.353 . S
C1359 H1400 0.929 . S
C1360 C1358 1.356 . S
C1360 C1362 1.358 . S
C1360 H1401 0.930 . S
C1361 C1359 1.353 . S
C1361 N1363 1.314 . S
C1361 H1402 0.930 . S
C1362 C1360 1.358 . S
C1362 N1363 1.279 . S
C1362 H1403 0.930 . S
N1363 C1361 1.314 . S
N1363 C1362 1.279 . S
C1364 C1366 1.353 . S
C1364 N1367 1.314 . S
C1364 H1370 0.930 . S
C1365 N1367 1.279 . S
C1365 C1368 1.359 . S
C1365 H1371 0.930 1_545 S
C1366 C1364 1.353 . S
C1366 C1369 1.348 . S
C1366 H1404 0.929 . S
N1367 Li1322 1.990 . S
N1367 C1364 1.314 . S
N1367 C1365 1.279 . S
C1368 C1365 1.359 . S
C1368 C1369 1.358 . S
C1368 H1405 0.927 1_545 S
C1369 C1366 1.348 . S
C1369 C1368 1.358 . S
H1370 C1364 0.930 . S
H1371 C1365 0.930 1_565 S
C1372 N1373 1.314 . S
C1372 C1374 1.353 . S
C1372 H1378 0.930 . S
N1373 Li1323 1.990 . S
N1373 C1372 1.314 . S
N1373 C1376 1.279 . S
C1374 C1372 1.353 . S
C1374 C1377 1.348 . S
C1374 H1406 0.929 . S
C1375 C1376 1.358 . S
C1375 C1377 1.356 . S
C1375 H1407 0.930 . S
C1376 N1373 1.279 . S
C1376 C1375 1.358 . S
C1376 H1379 0.930 . S
C1377 C1374 1.348 . S
C1377 C1375 1.356 . S
H1378 C1372 0.930 . S
H1379 C1376 0.930 . S
O1380 Li1320 1.956 . S
O1380 Li1321 1.970 . S
O1380 Li1322 1.961 . S
O1380 C1324 1.325 . S
O1381 Li1320 1.970 . S
O1381 Li1321 1.956 . S
O1381 Li1323 1.961 1_545 S
O1381 C1330 1.325 . S
O1382 Li1320 1.961 . S
O1382 Li1322 1.956 . S
O1382 Li1323 1.970 1_545 S
O1382 C1352 1.325 . S
O1383 Li1321 1.961 1_565 S
O1383 Li1322 1.970 1_565 S
O1383 Li1323 1.956 . S
O1383 C1358 1.325 . S
H1384 C1326 0.929 . S
H1385 C1327 0.930 . S
H1386 C1328 0.930 . S
H1387 C1329 0.930 . S
H1388 C1331 0.930 1_565 S
H1389 C1333 0.929 . S
H1390 C1334 0.930 1_565 S
H1391 C1335 0.930 . S
H1392 C1338 0.930 . S
H1393 C1341 0.929 . S
H1394 C1346 0.929 . S
H1395 C1347 0.930 . S
H1396 C1354 0.929 . S
H1397 C1355 0.930 . S
H1398 C1356 0.930 . S
H1399 C1357 0.930 . S
H1400 C1359 0.929 . S
H1401 C1360 0.930 . S
H1402 C1361 0.930 . S
H1403 C1362 0.930 . S
H1404 C1366 0.929 . S
H1405 C1368 0.927 1_565 S
H1406 C1374 0.929 . S
H1407 C1375 0.930 . S
H1408 C1416 0.929 . S
H1409 C1418 0.930 . S
H1410 C1420 0.930 . S
H1411 C1423 0.929 . S
H1412 C1426 0.930 . S
H1413 C1428 0.960 . S
H1414 C1428 0.960 . S
H1415 C1428 0.960 . S
C1416 H1408 0.929 . S
C1416 C1417 1.377 . S
C1416 C1418 1.384 . S
C1417 C1416 1.377 . S
C1417 C1423 1.390 . S
C1418 H1409 0.930 . S
C1418 C1416 1.384 . S
C1418 C1419 1.372 . S
C1419 C1418 1.372 . S
C1419 C1420 1.400 . S
C1419 C1424 1.490 . S
C1420 H1410 0.930 . S
C1420 C1419 1.400 . S
C1420 C1423 1.386 . S
H1421 C1437 0.930 . S
H1422 C1438 0.931 . S
C1423 H1411 0.929 . S
C1423 C1417 1.390 . S
C1423 C1420 1.386 . S
C1424 C1419 1.490 . S
C1424 C1426 1.395 . S
C1424 C1427 1.403 . S
H1425 C1431 0.930 . S
C1426 H1412 0.930 . S
C1426 C1424 1.395 . S
C1426 C1429 1.403 . S
C1427 C1424 1.403 . S
C1427 C1428 1.524 . S
C1427 C1431 1.400 . S
C1428 H1413 0.960 . S
C1428 H1414 0.960 . S
C1428 H1415 0.960 . S
C1428 C1427 1.524 . S
C1429 C1426 1.403 . S
C1429 C1430 1.392 . S
C1429 C1433 1.495 . S
C1430 C1429 1.392 . S
C1430 C1431 1.385 . S
C1430 C1432 1.478 . S
C1431 H1425 0.930 . S
C1431 C1427 1.400 . S
C1431 C1430 1.385 . S
C1432 C1430 1.478 . S
C1432 C1434 1.381 . S
C1432 C1438 1.383 . S
C1433 C1429 1.495 . S
C1433 H1439 0.959 . S
C1433 H1440 0.961 . S
C1433 H1441 0.960 . S
C1434 C1432 1.381 . S
C1434 C1435 1.394 . S
C1434 H1442 0.930 . S
C1435 C1434 1.394 . S
C1435 C1436 1.383 . S
C1435 H1443 0.929 . S
C1436 C1435 1.383 . S
C1436 C1437 1.377 . S
C1437 H1421 0.930 . S
C1437 C1436 1.377 . S
C1437 C1438 1.379 . S
C1438 H1422 0.931 . S
C1438 C1432 1.383 . S
C1438 C1437 1.379 . S
H1439 C1433 0.959 . S
H1440 C1433 0.961 . S
H1441 C1433 0.960 . S
H1442 C1434 0.930 . S
H1443 C1435 0.929 . S
H1444 C1452 0.929 . S
H1445 C1454 0.930 . S
H1446 C1456 0.930 . S
H1447 C1459 0.929 . S
H1448 C1462 0.930 . S
H1449 C1464 0.960 . S
H1450 C1464 0.960 . S
H1451 C1464 0.960 . S
C1452 H1444 0.929 . S
C1452 C1453 1.377 . S
C1452 C1454 1.384 . S
C1453 C1452 1.377 . S
C1453 C1459 1.390 . S
C1454 H1445 0.930 . S
C1454 C1452 1.384 . S
C1454 C1455 1.372 . S
C1455 C1454 1.372 . S
C1455 C1456 1.400 . S
C1455 C1460 1.490 . S
C1456 H1446 0.930 . S
C1456 C1455 1.400 . S
C1456 C1459 1.386 . S
H1457 C1473 0.930 . S
H1458 C1474 0.931 . S
C1459 H1447 0.929 . S
C1459 C1453 1.390 . S
C1459 C1456 1.386 . S
C1460 C1455 1.490 . S
C1460 C1462 1.395 . S
C1460 C1463 1.403 . S
H1461 C1467 0.930 . S
C1462 H1448 0.930 . S
C1462 C1460 1.395 . S
C1462 C1465 1.403 . S
C1463 C1460 1.403 . S
C1463 C1464 1.524 . S
C1463 C1467 1.400 . S
C1464 H1449 0.960 . S
C1464 H1450 0.960 . S
C1464 H1451 0.960 . S
C1464 C1463 1.524 . S
C1465 C1462 1.403 . S
C1465 C1466 1.392 . S
C1465 C1469 1.495 . S
C1466 C1465 1.392 . S
C1466 C1467 1.385 . S
C1466 C1468 1.478 . S
C1467 H1461 0.930 . S
C1467 C1463 1.400 . S
C1467 C1466 1.385 . S
C1468 C1466 1.478 . S
C1468 C1470 1.381 . S
C1468 C1474 1.383 . S
C1469 C1465 1.495 . S
C1469 H1475 0.959 . S
C1469 H1476 0.961 . S
C1469 H1477 0.960 . S
C1470 C1468 1.381 . S
C1470 C1471 1.394 . S
C1470 H1478 0.930 . S
C1471 C1470 1.394 . S
C1471 C1472 1.383 . S
C1471 H1479 0.929 . S
C1472 C1471 1.383 . S
C1472 C1473 1.377 . S
C1473 H1457 0.930 . S
C1473 C1472 1.377 . S
C1473 C1474 1.379 . S
C1474 H1458 0.931 . S
C1474 C1468 1.383 . S
C1474 C1473 1.379 . S
H1475 C1469 0.959 . S
H1476 C1469 0.961 . S
H1477 C1469 0.960 . S
H1478 C1470 0.930 . S
H1479 C1471 0.929 . S
H1480 C1488 0.929 . S
H1481 C1490 0.930 . S
H1482 C1492 0.930 . S
H1483 C1495 0.929 . S
H1484 C1498 0.930 . S
H1485 C1500 0.960 . S
H1486 C1500 0.960 . S
H1487 C1500 0.960 . S
C1488 H1480 0.929 . S
C1488 C1489 1.377 . S
C1488 C1490 1.384 . S
C1489 C1488 1.377 . S
C1489 C1495 1.390 . S
C1490 H1481 0.930 . S
C1490 C1488 1.384 . S
C1490 C1491 1.372 . S
C1491 C1490 1.372 . S
C1491 C1492 1.400 . S
C1491 C1496 1.490 . S
C1492 H1482 0.930 . S
C1492 C1491 1.400 . S
C1492 C1495 1.386 . S
H1493 C1509 0.930 . S
H1494 C1510 0.931 . S
C1495 H1483 0.929 . S
C1495 C1489 1.390 . S
C1495 C1492 1.386 . S
C1496 C1491 1.490 . S
C1496 C1498 1.395 . S
C1496 C1499 1.403 . S
H1497 C1503 0.930 . S
C1498 H1484 0.930 . S
C1498 C1496 1.395 . S
C1498 C1501 1.403 . S
C1499 C1496 1.403 . S
C1499 C1500 1.524 . S
C1499 C1503 1.400 . S
C1500 H1485 0.960 . S
C1500 H1486 0.960 . S
C1500 H1487 0.960 . S
C1500 C1499 1.524 . S
C1501 C1498 1.403 . S
C1501 C1502 1.392 . S
C1501 C1505 1.495 . S
C1502 C1501 1.392 . S
C1502 C1503 1.385 . S
C1502 C1504 1.478 . S
C1503 H1497 0.930 . S
C1503 C1499 1.400 . S
C1503 C1502 1.385 . S
C1504 C1502 1.478 . S
C1504 C1506 1.381 . S
C1504 C1510 1.383 . S
C1505 C1501 1.495 . S
C1505 H1511 0.959 . S
C1505 H1512 0.961 . S
C1505 H1513 0.960 . S
C1506 C1504 1.381 . S
C1506 C1507 1.394 . S
C1506 H1514 0.930 . S
C1507 C1506 1.394 . S
C1507 C1508 1.383 . S
C1507 H1515 0.929 . S
C1508 C1507 1.383 . S
C1508 C1509 1.377 . S
C1509 H1493 0.930 . S
C1509 C1508 1.377 . S
C1509 C1510 1.379 . S
C1510 H1494 0.931 . S
C1510 C1504 1.383 . S
C1510 C1509 1.379 . S
H1511 C1505 0.959 . S
H1512 C1505 0.961 . S
H1513 C1505 0.960 . S
H1514 C1506 0.930 . S
H1515 C1507 0.929 . S
H1516 C1524 0.929 . S
H1517 C1526 0.930 . S
H1518 C1528 0.930 . S
H1519 C1531 0.929 . S
H1520 C1534 0.930 . S
H1521 C1536 0.960 . S
H1522 C1536 0.960 . S
H1523 C1536 0.960 . S
C1524 H1516 0.929 . S
C1524 C1525 1.377 . S
C1524 C1526 1.384 . S
C1525 C1524 1.377 . S
C1525 C1531 1.390 . S
C1526 H1517 0.930 . S
C1526 C1524 1.384 . S
C1526 C1527 1.372 . S
C1527 C1526 1.372 . S
C1527 C1528 1.400 . S
C1527 C1532 1.490 . S
C1528 H1518 0.930 . S
C1528 C1527 1.400 . S
C1528 C1531 1.386 . S
H1529 C1545 0.930 . S
H1530 C1546 0.931 . S
C1531 H1519 0.929 . S
C1531 C1525 1.390 . S
C1531 C1528 1.386 . S
C1532 C1527 1.490 . S
C1532 C1534 1.395 . S
C1532 C1535 1.403 . S
H1533 C1539 0.930 . S
C1534 H1520 0.930 . S
C1534 C1532 1.395 . S
C1534 C1537 1.403 . S
C1535 C1532 1.403 . S
C1535 C1536 1.524 . S
C1535 C1539 1.400 . S
C1536 H1521 0.960 . S
C1536 H1522 0.960 . S
C1536 H1523 0.960 . S
C1536 C1535 1.524 . S
C1537 C1534 1.403 . S
C1537 C1538 1.392 . S
C1537 C1541 1.495 . S
C1538 C1537 1.392 . S
C1538 C1539 1.385 . S
C1538 C1540 1.478 . S
C1539 H1533 0.930 . S
C1539 C1535 1.400 . S
C1539 C1538 1.385 . S
C1540 C1538 1.478 . S
C1540 C1542 1.381 . S
C1540 C1546 1.383 . S
C1541 C1537 1.495 . S
C1541 H1547 0.959 . S
C1541 H1548 0.961 . S
C1541 H1549 0.960 . S
C1542 C1540 1.381 . S
C1542 C1543 1.394 . S
C1542 H1550 0.930 . S
C1543 C1542 1.394 . S
C1543 C1544 1.383 . S
C1543 H1551 0.929 . S
C1544 C1543 1.383 . S
C1544 C1545 1.377 . S
C1545 H1529 0.930 . S
C1545 C1544 1.377 . S
C1545 C1546 1.379 . S
C1546 H1530 0.931 . S
C1546 C1540 1.383 . S
C1546 C1545 1.379 . S
H1547 C1541 0.959 . S
H1548 C1541 0.961 . S
H1549 C1541 0.960 . S
H1550 C1542 0.930 . S
H1551 C1543 0.929 . S
H1552 C1560 0.929 . S
H1553 C1562 0.930 . S
H1554 C1564 0.930 . S
H1555 C1567 0.929 . S
H1556 C1570 0.930 . S
H1557 C1572 0.960 . S
H1558 C1572 0.960 . S
H1559 C1572 0.960 . S
C1560 H1552 0.929 . S
C1560 C1561 1.377 . S
C1560 C1562 1.384 . S
C1561 C1560 1.377 . S
C1561 C1567 1.390 . S
C1562 H1553 0.930 . S
C1562 C1560 1.384 . S
C1562 C1563 1.372 . S
C1563 C1562 1.372 . S
C1563 C1564 1.400 . S
C1563 C1568 1.490 . S
C1564 H1554 0.930 . S
C1564 C1563 1.400 . S
C1564 C1567 1.386 . S
H1565 C1581 0.930 . S
H1566 C1582 0.931 . S
C1567 H1555 0.929 . S
C1567 C1561 1.390 . S
C1567 C1564 1.386 . S
C1568 C1563 1.490 . S
C1568 C1570 1.395 . S
C1568 C1571 1.403 . S
H1569 C1575 0.930 . S
C1570 H1556 0.930 . S
C1570 C1568 1.395 . S
C1570 C1573 1.403 . S
C1571 C1568 1.403 . S
C1571 C1572 1.524 . S
C1571 C1575 1.400 . S
C1572 H1557 0.960 . S
C1572 H1558 0.960 . S
C1572 H1559 0.960 . S
C1572 C1571 1.524 . S
C1573 C1570 1.403 . S
C1573 C1574 1.392 . S
C1573 C1577 1.495 . S
C1574 C1573 1.392 . S
C1574 C1575 1.385 . S
C1574 C1576 1.478 . S
C1575 H1569 0.930 . S
C1575 C1571 1.400 . S
C1575 C1574 1.385 . S
C1576 C1574 1.478 . S
C1576 C1578 1.381 . S
C1576 C1582 1.383 . S
C1577 C1573 1.495 . S
C1577 H1583 0.959 . S
C1577 H1584 0.961 . S
C1577 H1585 0.960 . S
C1578 C1576 1.381 . S
C1578 C1579 1.394 . S
C1578 H1586 0.930 . S
C1579 C1578 1.394 . S
C1579 C1580 1.383 . S
C1579 H1587 0.929 . S
C1580 C1579 1.383 . S
C1580 C1581 1.377 . S
C1581 H1565 0.930 . S
C1581 C1580 1.377 . S
C1581 C1582 1.379 . S
C1582 H1566 0.931 . S
C1582 C1576 1.383 . S
C1582 C1581 1.379 . S
H1583 C1577 0.959 . S
H1584 C1577 0.961 . S
H1585 C1577 0.960 . S
H1586 C1578 0.930 . S
H1587 C1579 0.929 . S
H1588 C1596 0.929 . S
H1589 C1598 0.930 . S
H1590 C1600 0.930 . S
H1591 C1603 0.929 . S
H1592 C1606 0.930 . S
H1593 C1608 0.960 . S
H1594 C1608 0.960 . S
H1595 C1608 0.960 . S
C1596 H1588 0.929 . S
C1596 C1597 1.377 . S
C1596 C1598 1.384 . S
C1597 C1596 1.377 . S
C1597 C1603 1.390 . S
C1598 H1589 0.930 . S
C1598 C1596 1.384 . S
C1598 C1599 1.372 . S
C1599 C1598 1.372 . S
C1599 C1600 1.400 . S
C1599 C1604 1.490 . S
C1600 H1590 0.930 . S
C1600 C1599 1.400 . S
C1600 C1603 1.386 . S
H1601 C1617 0.930 . S
H1602 C1618 0.931 . S
C1603 H1591 0.929 . S
C1603 C1597 1.390 . S
C1603 C1600 1.386 . S
C1604 C1599 1.490 . S
C1604 C1606 1.395 . S
C1604 C1607 1.403 . S
H1605 C1611 0.930 . S
C1606 H1592 0.930 . S
C1606 C1604 1.395 . S
C1606 C1609 1.403 . S
C1607 C1604 1.403 . S
C1607 C1608 1.524 . S
C1607 C1611 1.400 . S
C1608 H1593 0.960 . S
C1608 H1594 0.960 . S
C1608 H1595 0.960 . S
C1608 C1607 1.524 . S
C1609 C1606 1.403 . S
C1609 C1610 1.392 . S
C1609 C1613 1.495 . S
C1610 C1609 1.392 . S
C1610 C1611 1.385 . S
C1610 C1612 1.478 . S
C1611 H1605 0.930 . S
C1611 C1607 1.400 . S
C1611 C1610 1.385 . S
C1612 C1610 1.478 . S
C1612 C1614 1.381 . S
C1612 C1618 1.383 . S
C1613 C1609 1.495 . S
C1613 H1619 0.959 . S
C1613 H1620 0.961 . S
C1613 H1621 0.960 . S
C1614 C1612 1.381 . S
C1614 C1615 1.394 . S
C1614 H1622 0.930 . S
C1615 C1614 1.394 . S
C1615 C1616 1.383 . S
C1615 H1623 0.929 . S
C1616 C1615 1.383 . S
C1616 C1617 1.377 . S
C1617 H1601 0.930 . S
C1617 C1616 1.377 . S
C1617 C1618 1.379 . S
C1618 H1602 0.931 . S
C1618 C1612 1.383 . S
C1618 C1617 1.379 . S
H1619 C1613 0.959 . S
H1620 C1613 0.961 . S
H1621 C1613 0.960 . S
H1622 C1614 0.930 . S
H1623 C1615 0.929 . S
H1624 C1632 0.929 . S
H1625 C1634 0.930 . S
H1626 C1636 0.930 . S
H1627 C1639 0.929 . S
H1628 C1642 0.930 . S
H1629 C1644 0.960 . S
H1630 C1644 0.960 . S
H1631 C1644 0.960 . S
C1632 H1624 0.929 . S
C1632 C1633 1.377 . S
C1632 C1634 1.384 . S
C1633 C1632 1.377 . S
C1633 C1639 1.390 . S
C1634 H1625 0.930 . S
C1634 C1632 1.384 . S
C1634 C1635 1.372 . S
C1635 C1634 1.372 . S
C1635 C1636 1.400 . S
C1635 C1640 1.490 . S
C1636 H1626 0.930 . S
C1636 C1635 1.400 . S
C1636 C1639 1.386 . S
H1637 C1653 0.930 . S
H1638 C1654 0.931 . S
C1639 H1627 0.929 . S
C1639 C1633 1.390 . S
C1639 C1636 1.386 . S
C1640 C1635 1.490 . S
C1640 C1642 1.395 . S
C1640 C1643 1.403 . S
H1641 C1647 0.930 . S
C1642 H1628 0.930 . S
C1642 C1640 1.395 . S
C1642 C1645 1.403 . S
C1643 C1640 1.403 . S
C1643 C1644 1.524 . S
C1643 C1647 1.400 . S
C1644 H1629 0.960 . S
C1644 H1630 0.960 . S
C1644 H1631 0.960 . S
C1644 C1643 1.524 . S
C1645 C1642 1.403 . S
C1645 C1646 1.392 . S
C1645 C1649 1.495 . S
C1646 C1645 1.392 . S
C1646 C1647 1.385 . S
C1646 C1648 1.478 . S
C1647 H1641 0.930 . S
C1647 C1643 1.400 . S
C1647 C1646 1.385 . S
C1648 C1646 1.478 . S
C1648 C1650 1.381 . S
C1648 C1654 1.383 . S
C1649 C1645 1.495 . S
C1649 H1655 0.959 . S
C1649 H1656 0.961 . S
C1649 H1657 0.960 . S
C1650 C1648 1.381 . S
C1650 C1651 1.394 . S
C1650 H1658 0.930 . S
C1651 C1650 1.394 . S
C1651 C1652 1.383 . S
C1651 H1659 0.929 . S
C1652 C1651 1.383 . S
C1652 C1653 1.377 . S
C1653 H1637 0.930 . S
C1653 C1652 1.377 . S
C1653 C1654 1.379 . S
C1654 H1638 0.931 . S
C1654 C1648 1.383 . S
C1654 C1653 1.379 . S
H1655 C1649 0.959 . S
H1656 C1649 0.961 . S
H1657 C1649 0.960 . S
H1658 C1650 0.930 . S
H1659 C1651 0.929 . S
H1660 C1668 0.929 . S
H1661 C1670 0.930 . S
H1662 C1672 0.930 . S
H1663 C1675 0.929 . S
H1664 C1678 0.930 . S
H1665 C1680 0.960 . S
H1666 C1680 0.960 . S
H1667 C1680 0.960 . S
C1668 H1660 0.929 . S
C1668 C1669 1.377 . S
C1668 C1670 1.384 . S
C1669 C1668 1.377 . S
C1669 C1675 1.390 . S
C1670 H1661 0.930 . S
C1670 C1668 1.384 . S
C1670 C1671 1.372 . S
C1671 C1670 1.372 . S
C1671 C1672 1.400 . S
C1671 C1676 1.490 . S
C1672 H1662 0.930 . S
C1672 C1671 1.400 . S
C1672 C1675 1.386 . S
H1673 C1689 0.930 . S
H1674 C1690 0.931 . S
C1675 H1663 0.929 . S
C1675 C1669 1.390 . S
C1675 C1672 1.386 . S
C1676 C1671 1.490 . S
C1676 C1678 1.395 . S
C1676 C1679 1.403 . S
H1677 C1683 0.930 . S
C1678 H1664 0.930 . S
C1678 C1676 1.395 . S
C1678 C1681 1.403 . S
C1679 C1676 1.403 . S
C1679 C1680 1.524 . S
C1679 C1683 1.400 . S
C1680 H1665 0.960 . S
C1680 H1666 0.960 . S
C1680 H1667 0.960 . S
C1680 C1679 1.524 . S
C1681 C1678 1.403 . S
C1681 C1682 1.392 . S
C1681 C1685 1.495 . S
C1682 C1681 1.392 . S
C1682 C1683 1.385 . S
C1682 C1684 1.478 . S
C1683 H1677 0.930 . S
C1683 C1679 1.400 . S
C1683 C1682 1.385 . S
C1684 C1682 1.478 . S
C1684 C1686 1.381 . S
C1684 C1690 1.383 . S
C1685 C1681 1.495 . S
C1685 H1691 0.959 . S
C1685 H1692 0.961 . S
C1685 H1693 0.960 . S
C1686 C1684 1.381 . S
C1686 C1687 1.394 . S
C1686 H1694 0.930 . S
C1687 C1686 1.394 . S
C1687 C1688 1.383 . S
C1687 H1695 0.929 . S
C1688 C1687 1.383 . S
C1688 C1689 1.377 . S
C1689 H1673 0.930 . S
C1689 C1688 1.377 . S
C1689 C1690 1.379 . S
C1690 H1674 0.931 . S
C1690 C1684 1.383 . S
C1690 C1689 1.379 . S
H1691 C1685 0.959 . S
H1692 C1685 0.961 . S
H1693 C1685 0.960 . S
H1694 C1686 0.930 . S
H1695 C1687 0.929 . S
H1696 C1704 0.929 . S
H1697 C1706 0.930 . S
H1698 C1708 0.930 . S
H1699 C1711 0.929 . S
H1700 C1714 0.930 . S
H1701 C1716 0.960 . S
H1702 C1716 0.960 . S
H1703 C1716 0.960 . S
C1704 H1696 0.929 . S
C1704 C1705 1.377 . S
C1704 C1706 1.384 . S
C1705 C1704 1.377 . S
C1705 C1711 1.390 . S
C1706 H1697 0.930 . S
C1706 C1704 1.384 . S
C1706 C1707 1.372 . S
C1707 C1706 1.372 . S
C1707 C1708 1.400 . S
C1707 C1712 1.490 . S
C1708 H1698 0.930 . S
C1708 C1707 1.400 . S
C1708 C1711 1.386 . S
H1709 C1725 0.930 . S
H1710 C1726 0.931 . S
C1711 H1699 0.929 . S
C1711 C1705 1.390 . S
C1711 C1708 1.386 . S
C1712 C1707 1.490 . S
C1712 C1714 1.395 . S
C1712 C1715 1.403 . S
H1713 C1719 0.930 . S
C1714 H1700 0.930 . S
C1714 C1712 1.395 . S
C1714 C1717 1.403 . S
C1715 C1712 1.403 . S
C1715 C1716 1.524 . S
C1715 C1719 1.400 . S
C1716 H1701 0.960 . S
C1716 H1702 0.960 . S
C1716 H1703 0.960 . S
C1716 C1715 1.524 . S
C1717 C1714 1.403 . S
C1717 C1718 1.392 . S
C1717 C1721 1.495 . S
C1718 C1717 1.392 . S
C1718 C1719 1.385 . S
C1718 C1720 1.478 . S
C1719 H1713 0.930 . S
C1719 C1715 1.400 . S
C1719 C1718 1.385 . S
C1720 C1718 1.478 . S
C1720 C1722 1.381 . S
C1720 C1726 1.383 . S
C1721 C1717 1.495 . S
C1721 H1727 0.959 . S
C1721 H1728 0.961 . S
C1721 H1729 0.960 . S
C1722 C1720 1.381 . S
C1722 C1723 1.394 . S
C1722 H1730 0.930 . S
C1723 C1722 1.394 . S
C1723 C1724 1.383 . S
C1723 H1731 0.929 . S
C1724 C1723 1.383 . S
C1724 C1725 1.377 . S
C1725 H1709 0.930 . S
C1725 C1724 1.377 . S
C1725 C1726 1.379 . S
C1726 H1710 0.931 . S
C1726 C1720 1.383 . S
C1726 C1725 1.379 . S
H1727 C1721 0.959 . S
H1728 C1721 0.961 . S
H1729 C1721 0.960 . S
H1730 C1722 0.930 . S
H1731 C1723 0.929 . S
H1732 C1740 0.929 . S
H1733 C1742 0.930 . S
H1734 C1744 0.930 . S
H1735 C1747 0.929 . S
H1736 C1750 0.930 . S
H1737 C1752 0.960 . S
H1738 C1752 0.960 . S
H1739 C1752 0.960 . S
C1740 H1732 0.929 . S
C1740 C1741 1.377 . S
C1740 C1742 1.384 . S
C1741 C1740 1.377 . S
C1741 C1747 1.390 . S
C1742 H1733 0.930 . S
C1742 C1740 1.384 . S
C1742 C1743 1.372 . S
C1743 C1742 1.372 . S
C1743 C1744 1.400 . S
C1743 C1748 1.490 . S
C1744 H1734 0.930 . S
C1744 C1743 1.400 . S
C1744 C1747 1.386 . S
H1745 C1761 0.930 . S
H1746 C1762 0.931 . S
C1747 H1735 0.929 . S
C1747 C1741 1.390 . S
C1747 C1744 1.386 . S
C1748 C1743 1.490 . S
C1748 C1750 1.395 . S
C1748 C1751 1.403 . S
H1749 C1755 0.930 . S
C1750 H1736 0.930 . S
C1750 C1748 1.395 . S
C1750 C1753 1.403 . S
C1751 C1748 1.403 . S
C1751 C1752 1.524 . S
C1751 C1755 1.400 . S
C1752 H1737 0.960 . S
C1752 H1738 0.960 . S
C1752 H1739 0.960 . S
C1752 C1751 1.524 . S
C1753 C1750 1.403 . S
C1753 C1754 1.392 . S
C1753 C1757 1.495 . S
C1754 C1753 1.392 . S
C1754 C1755 1.385 . S
C1754 C1756 1.478 . S
C1755 H1749 0.930 . S
C1755 C1751 1.400 . S
C1755 C1754 1.385 . S
C1756 C1754 1.478 . S
C1756 C1758 1.381 . S
C1756 C1762 1.383 . S
C1757 C1753 1.495 . S
C1757 H1763 0.959 . S
C1757 H1764 0.961 . S
C1757 H1765 0.960 . S
C1758 C1756 1.381 . S
C1758 C1759 1.394 . S
C1758 H1766 0.930 . S
C1759 C1758 1.394 . S
C1759 C1760 1.383 . S
C1759 H1767 0.929 . S
C1760 C1759 1.383 . S
C1760 C1761 1.377 . S
C1761 H1745 0.930 . S
C1761 C1760 1.377 . S
C1761 C1762 1.379 . S
C1762 H1746 0.931 . S
C1762 C1756 1.383 . S
C1762 C1761 1.379 . S
H1763 C1757 0.959 . S
H1764 C1757 0.961 . S
H1765 C1757 0.960 . S
H1766 C1758 0.930 . S
H1767 C1759 0.929 . S
H1768 C1776 0.929 . S
H1769 C1778 0.930 . S
H1770 C1780 0.930 . S
H1771 C1783 0.929 . S
H1772 C1786 0.930 . S
H1773 C1788 0.960 . S
H1774 C1788 0.960 . S
H1775 C1788 0.960 . S
C1776 H1768 0.929 . S
C1776 C1777 1.377 . S
C1776 C1778 1.384 . S
C1777 C1776 1.377 . S
C1777 C1783 1.390 . S
C1778 H1769 0.930 . S
C1778 C1776 1.384 . S
C1778 C1779 1.372 . S
C1779 C1778 1.372 . S
C1779 C1780 1.400 . S
C1779 C1784 1.490 . S
C1780 H1770 0.930 . S
C1780 C1779 1.400 . S
C1780 C1783 1.386 . S
H1781 C1797 0.930 . S
H1782 C1798 0.931 . S
C1783 H1771 0.929 . S
C1783 C1777 1.390 . S
C1783 C1780 1.386 . S
C1784 C1779 1.490 . S
C1784 C1786 1.395 . S
C1784 C1787 1.403 . S
H1785 C1791 0.930 . S
C1786 H1772 0.930 . S
C1786 C1784 1.395 . S
C1786 C1789 1.403 . S
C1787 C1784 1.403 . S
C1787 C1788 1.524 . S
C1787 C1791 1.400 . S
C1788 H1773 0.960 . S
C1788 H1774 0.960 . S
C1788 H1775 0.960 . S
C1788 C1787 1.524 . S
C1789 C1786 1.403 . S
C1789 C1790 1.392 . S
C1789 C1793 1.495 . S
C1790 C1789 1.392 . S
C1790 C1791 1.385 . S
C1790 C1792 1.478 . S
C1791 H1785 0.930 . S
C1791 C1787 1.400 . S
C1791 C1790 1.385 . S
C1792 C1790 1.478 . S
C1792 C1794 1.381 . S
C1792 C1798 1.383 . S
C1793 C1789 1.495 . S
C1793 H1799 0.959 . S
C1793 H1800 0.961 . S
C1793 H1801 0.960 . S
C1794 C1792 1.381 . S
C1794 C1795 1.394 . S
C1794 H1802 0.930 . S
C1795 C1794 1.394 . S
C1795 C1796 1.383 . S
C1795 H1803 0.929 . S
C1796 C1795 1.383 . S
C1796 C1797 1.377 . S
C1797 H1781 0.930 . S
C1797 C1796 1.377 . S
C1797 C1798 1.379 . S
C1798 H1782 0.931 . S
C1798 C1792 1.383 . S
C1798 C1797 1.379 . S
H1799 C1793 0.959 . S
H1800 C1793 0.961 . S
H1801 C1793 0.960 . S
H1802 C1794 0.930 . S
H1803 C1795 0.929 . S
H1804 C1812 0.929 . S
H1805 C1814 0.930 . S
H1806 C1816 0.930 . S
H1807 C1819 0.929 . S
H1808 C1822 0.930 . S
H1809 C1824 0.960 . S
H1810 C1824 0.960 . S
H1811 C1824 0.960 . S
C1812 H1804 0.929 . S
C1812 C1813 1.377 . S
C1812 C1814 1.384 . S
C1813 C1812 1.377 . S
C1813 C1819 1.390 . S
C1814 H1805 0.930 . S
C1814 C1812 1.384 . S
C1814 C1815 1.372 . S
C1815 C1814 1.372 . S
C1815 C1816 1.400 . S
C1815 C1820 1.490 . S
C1816 H1806 0.930 . S
C1816 C1815 1.400 . S
C1816 C1819 1.386 . S
H1817 C1833 0.930 . S
H1818 C1834 0.931 . S
C1819 H1807 0.929 . S
C1819 C1813 1.390 . S
C1819 C1816 1.386 . S
C1820 C1815 1.490 . S
C1820 C1822 1.395 . S
C1820 C1823 1.403 . S
H1821 C1827 0.930 . S
C1822 H1808 0.930 . S
C1822 C1820 1.395 . S
C1822 C1825 1.403 . S
C1823 C1820 1.403 . S
C1823 C1824 1.524 . S
C1823 C1827 1.400 . S
C1824 H1809 0.960 . S
C1824 H1810 0.960 . S
C1824 H1811 0.960 . S
C1824 C1823 1.524 . S
C1825 C1822 1.403 . S
C1825 C1826 1.392 . S
C1825 C1829 1.495 . S
C1826 C1825 1.392 . S
C1826 C1827 1.385 . S
C1826 C1828 1.478 . S
C1827 H1821 0.930 . S
C1827 C1823 1.400 . S
C1827 C1826 1.385 . S
C1828 C1826 1.478 . S
C1828 C1830 1.381 . S
C1828 C1834 1.383 . S
C1829 C1825 1.495 . S
C1829 H1835 0.959 . S
C1829 H1836 0.961 . S
C1829 H1837 0.960 . S
C1830 C1828 1.381 . S
C1830 C1831 1.394 . S
C1830 H1838 0.930 . S
C1831 C1830 1.394 . S
C1831 C1832 1.383 . S
C1831 H1839 0.929 . S
C1832 C1831 1.383 . S
C1832 C1833 1.377 . S
C1833 H1817 0.930 . S
C1833 C1832 1.377 . S
C1833 C1834 1.379 . S
C1834 H1818 0.931 . S
C1834 C1828 1.383 . S
C1834 C1833 1.379 . S
H1835 C1829 0.959 . S
H1836 C1829 0.961 . S
H1837 C1829 0.960 . S
H1838 C1830 0.930 . S
H1839 C1831 0.929 . S
H1840 C1848 0.929 . S
H1841 C1850 0.930 . S
H1842 C1852 0.930 . S
H1843 C1855 0.929 . S
H1844 C1858 0.930 . S
H1845 C1860 0.960 . S
H1846 C1860 0.960 . S
H1847 C1860 0.960 . S
C1848 H1840 0.929 . S
C1848 C1849 1.377 . S
C1848 C1850 1.384 . S
C1849 C1848 1.377 . S
C1849 C1855 1.390 . S
C1850 H1841 0.930 . S
C1850 C1848 1.384 . S
C1850 C1851 1.372 . S
C1851 C1850 1.372 . S
C1851 C1852 1.400 . S
C1851 C1856 1.490 . S
C1852 H1842 0.930 . S
C1852 C1851 1.400 . S
C1852 C1855 1.386 . S
H1853 C1869 0.930 . S
H1854 C1870 0.931 . S
C1855 H1843 0.929 . S
C1855 C1849 1.390 . S
C1855 C1852 1.386 . S
C1856 C1851 1.490 . S
C1856 C1858 1.395 . S
C1856 C1859 1.403 . S
H1857 C1863 0.930 . S
C1858 H1844 0.930 . S
C1858 C1856 1.395 . S
C1858 C1861 1.403 . S
C1859 C1856 1.403 . S
C1859 C1860 1.524 . S
C1859 C1863 1.400 . S
C1860 H1845 0.960 . S
C1860 H1846 0.960 . S
C1860 H1847 0.960 . S
C1860 C1859 1.524 . S
C1861 C1858 1.403 . S
C1861 C1862 1.392 . S
C1861 C1865 1.495 . S
C1862 C1861 1.392 . S
C1862 C1863 1.385 . S
C1862 C1864 1.478 . S
C1863 H1857 0.930 . S
C1863 C1859 1.400 . S
C1863 C1862 1.385 . S
C1864 C1862 1.478 . S
C1864 C1866 1.381 . S
C1864 C1870 1.383 . S
C1865 C1861 1.495 . S
C1865 H1871 0.959 . S
C1865 H1872 0.961 . S
C1865 H1873 0.960 . S
C1866 C1864 1.381 . S
C1866 C1867 1.394 . S
C1866 H1874 0.930 . S
C1867 C1866 1.394 . S
C1867 C1868 1.383 . S
C1867 H1875 0.929 . S
C1868 C1867 1.383 . S
C1868 C1869 1.377 . S
C1869 H1853 0.930 . S
C1869 C1868 1.377 . S
C1869 C1870 1.379 . S
C1870 H1854 0.931 . S
C1870 C1864 1.383 . S
C1870 C1869 1.379 . S
H1871 C1865 0.959 . S
H1872 C1865 0.961 . S
H1873 C1865 0.960 . S
H1874 C1866 0.930 . S
H1875 C1867 0.929 . S
H1876 C1884 0.929 . S
H1877 C1886 0.930 . S
H1878 C1888 0.930 . S
H1879 C1891 0.929 . S
H1880 C1894 0.930 . S
H1881 C1896 0.960 . S
H1882 C1896 0.960 . S
H1883 C1896 0.960 . S
C1884 H1876 0.929 . S
C1884 C1885 1.377 . S
C1884 C1886 1.384 . S
C1885 C1884 1.377 . S
C1885 C1891 1.390 . S
C1886 H1877 0.930 . S
C1886 C1884 1.384 . S
C1886 C1887 1.372 . S
C1887 C1886 1.372 . S
C1887 C1888 1.400 . S
C1887 C1892 1.490 . S
C1888 H1878 0.930 . S
C1888 C1887 1.400 . S
C1888 C1891 1.386 . S
H1889 C1905 0.930 . S
H1890 C1906 0.931 . S
C1891 H1879 0.929 . S
C1891 C1885 1.390 . S
C1891 C1888 1.386 . S
C1892 C1887 1.490 . S
C1892 C1894 1.395 . S
C1892 C1895 1.403 . S
H1893 C1899 0.930 . S
C1894 H1880 0.930 . S
C1894 C1892 1.395 . S
C1894 C1897 1.403 . S
C1895 C1892 1.403 . S
C1895 C1896 1.524 . S
C1895 C1899 1.400 . S
C1896 H1881 0.960 . S
C1896 H1882 0.960 . S
C1896 H1883 0.960 . S
C1896 C1895 1.524 . S
C1897 C1894 1.403 . S
C1897 C1898 1.392 . S
C1897 C1901 1.495 . S
C1898 C1897 1.392 . S
C1898 C1899 1.385 . S
C1898 C1900 1.478 . S
C1899 H1893 0.930 . S
C1899 C1895 1.400 . S
C1899 C1898 1.385 . S
C1900 C1898 1.478 . S
C1900 C1902 1.381 . S
C1900 C1906 1.383 . S
C1901 C1897 1.495 . S
C1901 H1907 0.959 . S
C1901 H1908 0.961 . S
C1901 H1909 0.960 . S
C1902 C1900 1.381 . S
C1902 C1903 1.394 . S
C1902 H1910 0.930 . S
C1903 C1902 1.394 . S
C1903 C1904 1.383 . S
C1903 H1911 0.929 . S
C1904 C1903 1.383 . S
C1904 C1905 1.377 . S
C1905 H1889 0.930 . S
C1905 C1904 1.377 . S
C1905 C1906 1.379 . S
C1906 H1890 0.931 . S
C1906 C1900 1.383 . S
C1906 C1905 1.379 . S
H1907 C1901 0.959 . S
H1908 C1901 0.961 . S
H1909 C1901 0.960 . S
H1910 C1902 0.930 . S
H1911 C1903 0.929 . S
H1912 C1920 0.929 . S
H1913 C1922 0.930 . S
H1914 C1924 0.930 . S
H1915 C1927 0.929 . S
H1916 C1930 0.930 . S
H1917 C1932 0.960 . S
H1918 C1932 0.960 . S
H1919 C1932 0.960 . S
C1920 H1912 0.929 . S
C1920 C1921 1.377 . S
C1920 C1922 1.384 . S
C1921 C1920 1.377 . S
C1921 C1927 1.390 . S
C1922 H1913 0.930 . S
C1922 C1920 1.384 . S
C1922 C1923 1.372 . S
C1923 C1922 1.372 . S
C1923 C1924 1.400 . S
C1923 C1928 1.490 . S
C1924 H1914 0.930 . S
C1924 C1923 1.400 . S
C1924 C1927 1.386 . S
H1925 C1941 0.930 . S
H1926 C1942 0.931 . S
C1927 H1915 0.929 . S
C1927 C1921 1.390 . S
C1927 C1924 1.386 . S
C1928 C1923 1.490 . S
C1928 C1930 1.395 . S
C1928 C1931 1.403 . S
H1929 C1935 0.930 . S
C1930 H1916 0.930 . S
C1930 C1928 1.395 . S
C1930 C1933 1.403 . S
C1931 C1928 1.403 . S
C1931 C1932 1.524 . S
C1931 C1935 1.400 . S
C1932 H1917 0.960 . S
C1932 H1918 0.960 . S
C1932 H1919 0.960 . S
C1932 C1931 1.524 . S
C1933 C1930 1.403 . S
C1933 C1934 1.392 . S
C1933 C1937 1.495 . S
C1934 C1933 1.392 . S
C1934 C1935 1.385 . S
C1934 C1936 1.478 . S
C1935 H1929 0.930 . S
C1935 C1931 1.400 . S
C1935 C1934 1.385 . S
C1936 C1934 1.478 . S
C1936 C1938 1.381 . S
C1936 C1942 1.383 . S
C1937 C1933 1.495 . S
C1937 H1943 0.959 . S
C1937 H1944 0.961 . S
C1937 H1945 0.960 . S
C1938 C1936 1.381 . S
C1938 C1939 1.394 . S
C1938 H1946 0.930 . S
C1939 C1938 1.394 . S
C1939 C1940 1.383 . S
C1939 H1947 0.929 . S
C1940 C1939 1.383 . S
C1940 C1941 1.377 . S
C1941 H1925 0.930 . S
C1941 C1940 1.377 . S
C1941 C1942 1.379 . S
C1942 H1926 0.931 . S
C1942 C1936 1.383 . S
C1942 C1941 1.379 . S
H1943 C1937 0.959 . S
H1944 C1937 0.961 . S
H1945 C1937 0.960 . S
H1946 C1938 0.930 . S
H1947 C1939 0.929 . S
H1948 C1956 0.929 . S
H1949 C1958 0.930 . S
H1950 C1960 0.930 . S
H1951 C1963 0.929 . S
H1952 C1966 0.930 . S
H1953 C1968 0.960 . S
H1954 C1968 0.960 . S
H1955 C1968 0.960 . S
C1956 H1948 0.929 . S
C1956 C1957 1.377 . S
C1956 C1958 1.384 . S
C1957 C1956 1.377 . S
C1957 C1963 1.390 . S
C1958 H1949 0.930 . S
C1958 C1956 1.384 . S
C1958 C1959 1.372 . S
C1959 C1958 1.372 . S
C1959 C1960 1.400 . S
C1959 C1964 1.490 . S
C1960 H1950 0.930 . S
C1960 C1959 1.400 . S
C1960 C1963 1.386 . S
H1961 C1977 0.930 . S
H1962 C1978 0.931 . S
C1963 H1951 0.929 . S
C1963 C1957 1.390 . S
C1963 C1960 1.386 . S
C1964 C1959 1.490 . S
C1964 C1966 1.395 . S
C1964 C1967 1.403 . S
H1965 C1971 0.930 . S
C1966 H1952 0.930 . S
C1966 C1964 1.395 . S
C1966 C1969 1.403 . S
C1967 C1964 1.403 . S
C1967 C1968 1.524 . S
C1967 C1971 1.400 . S
C1968 H1953 0.960 . S
C1968 H1954 0.960 . S
C1968 H1955 0.960 . S
C1968 C1967 1.524 . S
C1969 C1966 1.403 . S
C1969 C1970 1.392 . S
C1969 C1973 1.495 . S
C1970 C1969 1.392 . S
C1970 C1971 1.385 . S
C1970 C1972 1.478 . S
C1971 H1965 0.930 . S
C1971 C1967 1.400 . S
C1971 C1970 1.385 . S
C1972 C1970 1.478 . S
C1972 C1974 1.381 . S
C1972 C1978 1.383 . S
C1973 C1969 1.495 . S
C1973 H1979 0.959 . S
C1973 H1980 0.961 . S
C1973 H1981 0.960 . S
C1974 C1972 1.381 . S
C1974 C1975 1.394 . S
C1974 H1982 0.930 . S
C1975 C1974 1.394 . S
C1975 C1976 1.383 . S
C1975 H1983 0.929 . S
C1976 C1975 1.383 . S
C1976 C1977 1.377 . S
C1977 H1961 0.930 . S
C1977 C1976 1.377 . S
C1977 C1978 1.379 . S
C1978 H1962 0.931 . S
C1978 C1972 1.383 . S
C1978 C1977 1.379 . S
H1979 C1973 0.959 . S
H1980 C1973 0.961 . S
H1981 C1973 0.960 . S
H1982 C1974 0.930 . S
H1983 C1975 0.929 . S
H1984 C1992 0.929 . S
H1985 C1994 0.930 . S
H1986 C1996 0.930 . S
H1987 C1999 0.929 . S
H1988 C2002 0.930 . S
H1989 C2004 0.960 . S
H1990 C2004 0.960 . S
H1991 C2004 0.960 . S
C1992 H1984 0.929 . S
C1992 C1993 1.377 . S
C1992 C1994 1.384 . S
C1993 C1992 1.377 . S
C1993 C1999 1.390 . S
C1994 H1985 0.930 . S
C1994 C1992 1.384 . S
C1994 C1995 1.372 . S
C1995 C1994 1.372 . S
C1995 C1996 1.400 . S
C1995 C2000 1.490 . S
C1996 H1986 0.930 . S
C1996 C1995 1.400 . S
C1996 C1999 1.386 . S
H1997 C2013 0.930 . S
H1998 C2014 0.931 . S
C1999 H1987 0.929 . S
C1999 C1993 1.390 . S
C1999 C1996 1.386 . S
C2000 C1995 1.490 . S
C2000 C2002 1.395 . S
C2000 C2003 1.403 . S
H2001 C2007 0.930 . S
C2002 H1988 0.930 . S
C2002 C2000 1.395 . S
C2002 C2005 1.403 . S
C2003 C2000 1.403 . S
C2003 C2004 1.524 . S
C2003 C2007 1.400 . S
C2004 H1989 0.960 . S
C2004 H1990 0.960 . S
C2004 H1991 0.960 . S
C2004 C2003 1.524 . S
C2005 C2002 1.403 . S
C2005 C2006 1.392 . S
C2005 C2009 1.495 . S
C2006 C2005 1.392 . S
C2006 C2007 1.385 . S
C2006 C2008 1.478 . S
C2007 H2001 0.930 . S
C2007 C2003 1.400 . S
C2007 C2006 1.385 . S
C2008 C2006 1.478 . S
C2008 C2010 1.381 . S
C2008 C2014 1.383 . S
C2009 C2005 1.495 . S
C2009 H2015 0.959 . S
C2009 H2016 0.961 . S
C2009 H2017 0.960 . S
C2010 C2008 1.381 . S
C2010 C2011 1.394 . S
C2010 H2018 0.930 . S
C2011 C2010 1.394 . S
C2011 C2012 1.383 . S
C2011 H2019 0.929 . S
C2012 C2011 1.383 . S
C2012 C2013 1.377 . S
C2013 H1997 0.930 . S
C2013 C2012 1.377 . S
C2013 C2014 1.379 . S
C2014 H1998 0.931 . S
C2014 C2008 1.383 . S
C2014 C2013 1.379 . S
H2015 C2009 0.959 . S
H2016 C2009 0.961 . S
H2017 C2009 0.960 . S
H2018 C2010 0.930 . S
H2019 C2011 0.929 . S
H2020 C2028 0.929 . S
H2021 C2030 0.930 . S
H2022 C2032 0.930 . S
H2023 C2035 0.929 . S
H2024 C2038 0.930 . S
H2025 C2040 0.960 . S
H2026 C2040 0.960 . S
H2027 C2040 0.960 . S
C2028 H2020 0.929 . S
C2028 C2029 1.377 . S
C2028 C2030 1.384 . S
C2029 C2028 1.377 . S
C2029 C2035 1.390 . S
C2030 H2021 0.930 . S
C2030 C2028 1.384 . S
C2030 C2031 1.372 . S
C2031 C2030 1.372 . S
C2031 C2032 1.400 . S
C2031 C2036 1.490 . S
C2032 H2022 0.930 . S
C2032 C2031 1.400 . S
C2032 C2035 1.386 . S
H2033 C2049 0.930 . S
H2034 C2050 0.931 . S
C2035 H2023 0.929 . S
C2035 C2029 1.390 . S
C2035 C2032 1.386 . S
C2036 C2031 1.490 . S
C2036 C2038 1.395 . S
C2036 C2039 1.403 . S
H2037 C2043 0.930 . S
C2038 H2024 0.930 . S
C2038 C2036 1.395 . S
C2038 C2041 1.403 . S
C2039 C2036 1.403 . S
C2039 C2040 1.524 . S
C2039 C2043 1.400 . S
C2040 H2025 0.960 . S
C2040 H2026 0.960 . S
C2040 H2027 0.960 . S
C2040 C2039 1.524 . S
C2041 C2038 1.403 . S
C2041 C2042 1.392 . S
C2041 C2045 1.495 . S
C2042 C2041 1.392 . S
C2042 C2043 1.385 . S
C2042 C2044 1.478 . S
C2043 H2037 0.930 . S
C2043 C2039 1.400 . S
C2043 C2042 1.385 . S
C2044 C2042 1.478 . S
C2044 C2046 1.381 . S
C2044 C2050 1.383 . S
C2045 C2041 1.495 . S
C2045 H2051 0.959 . S
C2045 H2052 0.961 . S
C2045 H2053 0.960 . S
C2046 C2044 1.381 . S
C2046 C2047 1.394 . S
C2046 H2054 0.930 . S
C2047 C2046 1.394 . S
C2047 C2048 1.383 . S
C2047 H2055 0.929 . S
C2048 C2047 1.383 . S
C2048 C2049 1.377 . S
C2049 H2033 0.930 . S
C2049 C2048 1.377 . S
C2049 C2050 1.379 . S
C2050 H2034 0.931 . S
C2050 C2044 1.383 . S
C2050 C2049 1.379 . S
H2051 C2045 0.959 . S
H2052 C2045 0.961 . S
H2053 C2045 0.960 . S
H2054 C2046 0.930 . S
H2055 C2047 0.929 . S
H2056 C2064 0.929 . S
H2057 C2066 0.930 . S
H2058 C2068 0.930 . S
H2059 C2071 0.929 . S
H2060 C2074 0.930 . S
H2061 C2076 0.960 . S
H2062 C2076 0.960 . S
H2063 C2076 0.960 . S
C2064 H2056 0.929 . S
C2064 C2065 1.377 . S
C2064 C2066 1.384 . S
C2065 C2064 1.377 . S
C2065 C2071 1.390 . S
C2066 H2057 0.930 . S
C2066 C2064 1.384 . S
C2066 C2067 1.372 . S
C2067 C2066 1.372 . S
C2067 C2068 1.400 . S
C2067 C2072 1.490 . S
C2068 H2058 0.930 . S
C2068 C2067 1.400 . S
C2068 C2071 1.386 . S
H2069 C2085 0.930 . S
H2070 C2086 0.931 . S
C2071 H2059 0.929 . S
C2071 C2065 1.390 . S
C2071 C2068 1.386 . S
C2072 C2067 1.490 . S
C2072 C2074 1.395 . S
C2072 C2075 1.403 . S
H2073 C2079 0.930 . S
C2074 H2060 0.930 . S
C2074 C2072 1.395 . S
C2074 C2077 1.403 . S
C2075 C2072 1.403 . S
C2075 C2076 1.524 . S
C2075 C2079 1.400 . S
C2076 H2061 0.960 . S
C2076 H2062 0.960 . S
C2076 H2063 0.960 . S
C2076 C2075 1.524 . S
C2077 C2074 1.403 . S
C2077 C2078 1.392 . S
C2077 C2081 1.495 . S
C2078 C2077 1.392 . S
C2078 C2079 1.385 . S
C2078 C2080 1.478 . S
C2079 H2073 0.930 . S
C2079 C2075 1.400 . S
C2079 C2078 1.385 . S
C2080 C2078 1.478 . S
C2080 C2082 1.381 . S
C2080 C2086 1.383 . S
C2081 C2077 1.495 . S
C2081 H2087 0.959 . S
C2081 H2088 0.961 . S
C2081 H2089 0.960 . S
C2082 C2080 1.381 . S
C2082 C2083 1.394 . S
C2082 H2090 0.930 . S
C2083 C2082 1.394 . S
C2083 C2084 1.383 . S
C2083 H2091 0.929 . S
C2084 C2083 1.383 . S
C2084 C2085 1.377 . S
C2085 H2069 0.930 . S
C2085 C2084 1.377 . S
C2085 C2086 1.379 . S
C2086 H2070 0.931 . S
C2086 C2080 1.383 . S
C2086 C2085 1.379 . S
H2087 C2081 0.959 . S
H2088 C2081 0.961 . S
H2089 C2081 0.960 . S
H2090 C2082 0.930 . S
H2091 C2083 0.929 . S
H2092 C2100 0.929 . S
H2093 C2102 0.930 . S
H2094 C2104 0.930 . S
H2095 C2107 0.929 . S
H2096 C2110 0.930 . S
H2097 C2112 0.960 . S
H2098 C2112 0.960 . S
H2099 C2112 0.960 . S
C2100 H2092 0.929 . S
C2100 C2101 1.377 . S
C2100 C2102 1.384 . S
C2101 C2100 1.377 . S
C2101 C2107 1.390 . S
C2102 H2093 0.930 . S
C2102 C2100 1.384 . S
C2102 C2103 1.372 . S
C2103 C2102 1.372 . S
C2103 C2104 1.400 . S
C2103 C2108 1.490 . S
C2104 H2094 0.930 . S
C2104 C2103 1.400 . S
C2104 C2107 1.386 . S
H2105 C2121 0.930 . S
H2106 C2122 0.931 . S
C2107 H2095 0.929 . S
C2107 C2101 1.390 . S
C2107 C2104 1.386 . S
C2108 C2103 1.490 . S
C2108 C2110 1.395 . S
C2108 C2111 1.403 . S
H2109 C2115 0.930 . S
C2110 H2096 0.930 . S
C2110 C2108 1.395 . S
C2110 C2113 1.403 . S
C2111 C2108 1.403 . S
C2111 C2112 1.524 . S
C2111 C2115 1.400 . S
C2112 H2097 0.960 . S
C2112 H2098 0.960 . S
C2112 H2099 0.960 . S
C2112 C2111 1.524 . S
C2113 C2110 1.403 . S
C2113 C2114 1.392 . S
C2113 C2117 1.495 . S
C2114 C2113 1.392 . S
C2114 C2115 1.385 . S
C2114 C2116 1.478 . S
C2115 H2109 0.930 . S
C2115 C2111 1.400 . S
C2115 C2114 1.385 . S
C2116 C2114 1.478 . S
C2116 C2118 1.381 . S
C2116 C2122 1.383 . S
C2117 C2113 1.495 . S
C2117 H2123 0.959 . S
C2117 H2124 0.961 . S
C2117 H2125 0.960 . S
C2118 C2116 1.381 . S
C2118 C2119 1.394 . S
C2118 H2126 0.930 . S
C2119 C2118 1.394 . S
C2119 C2120 1.383 . S
C2119 H2127 0.929 . S
C2120 C2119 1.383 . S
C2120 C2121 1.377 . S
C2121 H2105 0.930 . S
C2121 C2120 1.377 . S
C2121 C2122 1.379 . S
C2122 H2106 0.931 . S
C2122 C2116 1.383 . S
C2122 C2121 1.379 . S
H2123 C2117 0.959 . S
H2124 C2117 0.961 . S
H2125 C2117 0.960 . S
H2126 C2118 0.930 . S
H2127 C2119 0.929 . S
H2128 C2136 0.929 . S
H2129 C2138 0.930 . S
H2130 C2140 0.930 . S
H2131 C2143 0.929 . S
H2132 C2146 0.930 . S
H2133 C2148 0.960 . S
H2134 C2148 0.960 . S
H2135 C2148 0.960 . S
C2136 H2128 0.929 . S
C2136 C2137 1.377 . S
C2136 C2138 1.384 . S
C2137 C2136 1.377 . S
C2137 C2143 1.390 . S
C2138 H2129 0.930 . S
C2138 C2136 1.384 . S
C2138 C2139 1.372 . S
C2139 C2138 1.372 . S
C2139 C2140 1.400 . S
C2139 C2144 1.490 . S
C2140 H2130 0.930 . S
C2140 C2139 1.400 . S
C2140 C2143 1.386 . S
H2141 C2157 0.930 . S
H2142 C2158 0.931 . S
C2143 H2131 0.929 . S
C2143 C2137 1.390 . S
C2143 C2140 1.386 . S
C2144 C2139 1.490 . S
C2144 C2146 1.395 . S
C2144 C2147 1.403 . S
H2145 C2151 0.930 . S
C2146 H2132 0.930 . S
C2146 C2144 1.395 . S
C2146 C2149 1.403 . S
C2147 C2144 1.403 . S
C2147 C2148 1.524 . S
C2147 C2151 1.400 . S
C2148 H2133 0.960 . S
C2148 H2134 0.960 . S
C2148 H2135 0.960 . S
C2148 C2147 1.524 . S
C2149 C2146 1.403 . S
C2149 C2150 1.392 . S
C2149 C2153 1.495 . S
C2150 C2149 1.392 . S
C2150 C2151 1.385 . S
C2150 C2152 1.478 . S
C2151 H2145 0.930 . S
C2151 C2147 1.400 . S
C2151 C2150 1.385 . S
C2152 C2150 1.478 . S
C2152 C2154 1.381 . S
C2152 C2158 1.383 . S
C2153 C2149 1.495 . S
C2153 H2159 0.959 . S
C2153 H2160 0.961 . S
C2153 H2161 0.960 . S
C2154 C2152 1.381 . S
C2154 C2155 1.394 . S
C2154 H2162 0.930 . S
C2155 C2154 1.394 . S
C2155 C2156 1.383 . S
C2155 H2163 0.929 . S
C2156 C2155 1.383 . S
C2156 C2157 1.377 . S
C2157 H2141 0.930 . S
C2157 C2156 1.377 . S
C2157 C2158 1.379 . S
C2158 H2142 0.931 . S
C2158 C2152 1.383 . S
C2158 C2157 1.379 . S
H2159 C2153 0.959 . S
H2160 C2153 0.961 . S
H2161 C2153 0.960 . S
H2162 C2154 0.930 . S
H2163 C2155 0.929 . S
H2164 C2172 0.929 . S
H2165 C2174 0.930 . S
H2166 C2176 0.930 . S
H2167 C2179 0.929 . S
H2168 C2182 0.930 . S
H2169 C2184 0.960 . S
H2170 C2184 0.960 . S
H2171 C2184 0.960 . S
C2172 H2164 0.929 . S
C2172 C2173 1.377 . S
C2172 C2174 1.384 . S
C2173 C2172 1.377 . S
C2173 C2179 1.390 . S
C2174 H2165 0.930 . S
C2174 C2172 1.384 . S
C2174 C2175 1.372 . S
C2175 C2174 1.372 . S
C2175 C2176 1.400 . S
C2175 C2180 1.490 . S
C2176 H2166 0.930 . S
C2176 C2175 1.400 . S
C2176 C2179 1.386 . S
H2177 C2193 0.930 . S
H2178 C2194 0.931 . S
C2179 H2167 0.929 . S
C2179 C2173 1.390 . S
C2179 C2176 1.386 . S
C2180 C2175 1.490 . S
C2180 C2182 1.395 . S
C2180 C2183 1.403 . S
H2181 C2187 0.930 . S
C2182 H2168 0.930 . S
C2182 C2180 1.395 . S
C2182 C2185 1.403 . S
C2183 C2180 1.403 . S
C2183 C2184 1.524 . S
C2183 C2187 1.400 . S
C2184 H2169 0.960 . S
C2184 H2170 0.960 . S
C2184 H2171 0.960 . S
C2184 C2183 1.524 . S
C2185 C2182 1.403 . S
C2185 C2186 1.392 . S
C2185 C2189 1.495 . S
C2186 C2185 1.392 . S
C2186 C2187 1.385 . S
C2186 C2188 1.478 . S
C2187 H2181 0.930 . S
C2187 C2183 1.400 . S
C2187 C2186 1.385 . S
C2188 C2186 1.478 . S
C2188 C2190 1.381 . S
C2188 C2194 1.383 . S
C2189 C2185 1.495 . S
C2189 H2195 0.959 . S
C2189 H2196 0.961 . S
C2189 H2197 0.960 . S
C2190 C2188 1.381 . S
C2190 C2191 1.394 . S
C2190 H2198 0.930 . S
C2191 C2190 1.394 . S
C2191 C2192 1.383 . S
C2191 H2199 0.929 . S
C2192 C2191 1.383 . S
C2192 C2193 1.377 . S
C2193 H2177 0.930 . S
C2193 C2192 1.377 . S
C2193 C2194 1.379 . S
C2194 H2178 0.931 . S
C2194 C2188 1.383 . S
C2194 C2193 1.379 . S
H2195 C2189 0.959 . S
H2196 C2189 0.961 . S
H2197 C2189 0.960 . S
H2198 C2190 0.930 . S
H2199 C2191 0.929 . S
H2200 C2208 0.929 . S
H2201 C2210 0.930 . S
H2202 C2212 0.930 . S
H2203 C2215 0.929 . S
H2204 C2218 0.930 . S
H2205 C2220 0.960 . S
H2206 C2220 0.960 . S
H2207 C2220 0.960 . S
C2208 H2200 0.929 . S
C2208 C2209 1.377 . S
C2208 C2210 1.384 . S
C2209 C2208 1.377 . S
C2209 C2215 1.390 . S
C2210 H2201 0.930 . S
C2210 C2208 1.384 . S
C2210 C2211 1.372 . S
C2211 C2210 1.372 . S
C2211 C2212 1.400 . S
C2211 C2216 1.490 . S
C2212 H2202 0.930 . S
C2212 C2211 1.400 . S
C2212 C2215 1.386 . S
H2213 C2229 0.930 . S
H2214 C2230 0.931 . S
C2215 H2203 0.929 . S
C2215 C2209 1.390 . S
C2215 C2212 1.386 . S
C2216 C2211 1.490 . S
C2216 C2218 1.395 . S
C2216 C2219 1.403 . S
H2217 C2223 0.930 . S
C2218 H2204 0.930 . S
C2218 C2216 1.395 . S
C2218 C2221 1.403 . S
C2219 C2216 1.403 . S
C2219 C2220 1.524 . S
C2219 C2223 1.400 . S
C2220 H2205 0.960 . S
C2220 H2206 0.960 . S
C2220 H2207 0.960 . S
C2220 C2219 1.524 . S
C2221 C2218 1.403 . S
C2221 C2222 1.392 . S
C2221 C2225 1.495 . S
C2222 C2221 1.392 . S
C2222 C2223 1.385 . S
C2222 C2224 1.478 . S
C2223 H2217 0.930 . S
C2223 C2219 1.400 . S
C2223 C2222 1.385 . S
C2224 C2222 1.478 . S
C2224 C2226 1.381 . S
C2224 C2230 1.383 . S
C2225 C2221 1.495 . S
C2225 H2231 0.959 . S
C2225 H2232 0.961 . S
C2225 H2233 0.960 . S
C2226 C2224 1.381 . S
C2226 C2227 1.394 . S
C2226 H2234 0.930 . S
C2227 C2226 1.394 . S
C2227 C2228 1.383 . S
C2227 H2235 0.929 . S
C2228 C2227 1.383 . S
C2228 C2229 1.377 . S
C2229 H2213 0.930 . S
C2229 C2228 1.377 . S
C2229 C2230 1.379 . S
C2230 H2214 0.931 . S
C2230 C2224 1.383 . S
C2230 C2229 1.379 . S
H2231 C2225 0.959 . S
H2232 C2225 0.961 . S
H2233 C2225 0.960 . S
H2234 C2226 0.930 . S
H2235 C2227 0.929 . S
H2236 C2244 0.929 . S
H2237 C2246 0.930 . S
H2238 C2248 0.930 . S
H2239 C2251 0.929 . S
H2240 C2254 0.930 . S
H2241 C2256 0.960 . S
H2242 C2256 0.960 . S
H2243 C2256 0.960 . S
C2244 H2236 0.929 . S
C2244 C2245 1.377 . S
C2244 C2246 1.384 . S
C2245 C2244 1.377 . S
C2245 C2251 1.390 . S
C2246 H2237 0.930 . S
C2246 C2244 1.384 . S
C2246 C2247 1.372 . S
C2247 C2246 1.372 . S
C2247 C2248 1.400 . S
C2247 C2252 1.490 . S
C2248 H2238 0.930 . S
C2248 C2247 1.400 . S
C2248 C2251 1.386 . S
H2249 C2265 0.930 . S
H2250 C2266 0.931 . S
C2251 H2239 0.929 . S
C2251 C2245 1.390 . S
C2251 C2248 1.386 . S
C2252 C2247 1.490 . S
C2252 C2254 1.395 . S
C2252 C2255 1.403 . S
H2253 C2259 0.930 . S
C2254 H2240 0.930 . S
C2254 C2252 1.395 . S
C2254 C2257 1.403 . S
C2255 C2252 1.403 . S
C2255 C2256 1.524 . S
C2255 C2259 1.400 . S
C2256 H2241 0.960 . S
C2256 H2242 0.960 . S
C2256 H2243 0.960 . S
C2256 C2255 1.524 . S
C2257 C2254 1.403 . S
C2257 C2258 1.392 . S
C2257 C2261 1.495 . S
C2258 C2257 1.392 . S
C2258 C2259 1.385 . S
C2258 C2260 1.478 . S
C2259 H2253 0.930 . S
C2259 C2255 1.400 . S
C2259 C2258 1.385 . S
C2260 C2258 1.478 . S
C2260 C2262 1.381 . S
C2260 C2266 1.383 . S
C2261 C2257 1.495 . S
C2261 H2267 0.959 . S
C2261 H2268 0.961 . S
C2261 H2269 0.960 . S
C2262 C2260 1.381 . S
C2262 C2263 1.394 . S
C2262 H2270 0.930 . S
C2263 C2262 1.394 . S
C2263 C2264 1.383 . S
C2263 H2271 0.929 . S
C2264 C2263 1.383 . S
C2264 C2265 1.377 . S
C2265 H2249 0.930 . S
C2265 C2264 1.377 . S
C2265 C2266 1.379 . S
C2266 H2250 0.931 . S
C2266 C2260 1.383 . S
C2266 C2265 1.379 . S
H2267 C2261 0.959 . S
H2268 C2261 0.961 . S
H2269 C2261 0.960 . S
H2270 C2262 0.930 . S
H2271 C2263 0.929 . S
H2272 C2280 0.929 . S
H2273 C2282 0.930 . S
H2274 C2284 0.930 . S
H2275 C2287 0.929 . S
H2276 C2290 0.930 . S
H2277 C2292 0.960 . S
H2278 C2292 0.960 . S
H2279 C2292 0.960 . S
C2280 H2272 0.929 . S
C2280 C2281 1.377 . S
C2280 C2282 1.384 . S
C2281 C2280 1.377 . S
C2281 C2287 1.390 . S
C2282 H2273 0.930 . S
C2282 C2280 1.384 . S
C2282 C2283 1.372 . S
C2283 C2282 1.372 . S
C2283 C2284 1.400 . S
C2283 C2288 1.490 . S
C2284 H2274 0.930 . S
C2284 C2283 1.400 . S
C2284 C2287 1.386 . S
H2285 C2301 0.930 . S
H2286 C2302 0.931 . S
C2287 H2275 0.929 . S
C2287 C2281 1.390 . S
C2287 C2284 1.386 . S
C2288 C2283 1.490 . S
C2288 C2290 1.395 . S
C2288 C2291 1.403 . S
H2289 C2295 0.930 . S
C2290 H2276 0.930 . S
C2290 C2288 1.395 . S
C2290 C2293 1.403 1_554 S
C2291 C2288 1.403 . S
C2291 C2292 1.524 . S
C2291 C2295 1.400 1_554 S
C2292 H2277 0.960 . S
C2292 H2278 0.960 . S
C2292 H2279 0.960 . S
C2292 C2291 1.524 . S
C2293 C2290 1.403 1_556 S
C2293 C2294 1.392 . S
C2293 C2297 1.495 . S
C2294 C2293 1.392 . S
C2294 C2295 1.385 . S
C2294 C2296 1.478 . S
C2295 H2289 0.930 . S
C2295 C2291 1.400 1_556 S
C2295 C2294 1.385 . S
C2296 C2294 1.478 . S
C2296 C2298 1.381 . S
C2296 C2302 1.383 . S
C2297 C2293 1.495 . S
C2297 H2303 0.959 . S
C2297 H2304 0.961 . S
C2297 H2305 0.960 . S
C2298 C2296 1.381 . S
C2298 C2299 1.394 . S
C2298 H2306 0.930 . S
C2299 C2298 1.394 . S
C2299 C2300 1.383 . S
C2299 H2307 0.929 . S
C2300 C2299 1.383 . S
C2300 C2301 1.377 . S
C2301 H2285 0.930 . S
C2301 C2300 1.377 . S
C2301 C2302 1.379 . S
C2302 H2286 0.931 . S
C2302 C2296 1.383 . S
C2302 C2301 1.379 . S
H2303 C2297 0.959 . S
H2304 C2297 0.961 . S
H2305 C2297 0.960 . S
H2306 C2298 0.930 . S
H2307 C2299 0.929 . S
H2308 C2316 0.929 . S
H2309 C2318 0.930 . S
H2310 C2320 0.930 . S
H2311 C2323 0.929 . S
H2312 C2326 0.930 . S
H2313 C2328 0.960 . S
H2314 C2328 0.960 . S
H2315 C2328 0.960 . S
C2316 H2308 0.929 . S
C2316 C2317 1.377 . S
C2316 C2318 1.384 . S
C2317 C2316 1.377 . S
C2317 C2323 1.390 . S
C2318 H2309 0.930 . S
C2318 C2316 1.384 . S
C2318 C2319 1.372 . S
C2319 C2318 1.372 . S
C2319 C2320 1.400 . S
C2319 C2324 1.490 . S
C2320 H2310 0.930 . S
C2320 C2319 1.400 . S
C2320 C2323 1.386 . S
H2321 C2337 0.930 . S
H2322 C2338 0.931 . S
C2323 H2311 0.929 . S
C2323 C2317 1.390 . S
C2323 C2320 1.386 . S
C2324 C2319 1.490 . S
C2324 C2326 1.395 . S
C2324 C2327 1.403 . S
H2325 C2331 0.930 . S
C2326 H2312 0.930 . S
C2326 C2324 1.395 . S
C2326 C2329 1.403 . S
C2327 C2324 1.403 . S
C2327 C2328 1.524 . S
C2327 C2331 1.400 . S
C2328 H2313 0.960 . S
C2328 H2314 0.960 . S
C2328 H2315 0.960 . S
C2328 C2327 1.524 . S
C2329 C2326 1.403 . S
C2329 C2330 1.392 . S
C2329 C2333 1.495 . S
C2330 C2329 1.392 . S
C2330 C2331 1.385 . S
C2330 C2332 1.478 . S
C2331 H2325 0.930 . S
C2331 C2327 1.400 . S
C2331 C2330 1.385 . S
C2332 C2330 1.478 . S
C2332 C2334 1.381 . S
C2332 C2338 1.383 . S
C2333 C2329 1.495 . S
C2333 H2339 0.959 . S
C2333 H2340 0.961 . S
C2333 H2341 0.960 . S
C2334 C2332 1.381 . S
C2334 C2335 1.394 . S
C2334 H2342 0.930 . S
C2335 C2334 1.394 . S
C2335 C2336 1.383 . S
C2335 H2343 0.929 . S
C2336 C2335 1.383 . S
C2336 C2337 1.377 . S
C2337 H2321 0.930 . S
C2337 C2336 1.377 . S
C2337 C2338 1.379 . S
C2338 H2322 0.931 . S
C2338 C2332 1.383 . S
C2338 C2337 1.379 . S
H2339 C2333 0.959 . S
H2340 C2333 0.961 . S
H2341 C2333 0.960 . S
H2342 C2334 0.930 . S
H2343 C2335 0.929 . S
H2344 C2352 0.929 . S
H2345 C2354 0.930 . S
H2346 C2356 0.930 . S
H2347 C2359 0.929 . S
H2348 C2362 0.930 . S
H2349 C2364 0.960 . S
H2350 C2364 0.960 . S
H2351 C2364 0.960 1_455 S
C2352 H2344 0.929 . S
C2352 C2353 1.377 . S
C2352 C2354 1.384 . S
C2353 C2352 1.377 . S
C2353 C2359 1.390 1_655 S
C2354 H2345 0.930 . S
C2354 C2352 1.384 . S
C2354 C2355 1.372 . S
C2355 C2354 1.372 . S
C2355 C2356 1.400 1_655 S
C2355 C2360 1.490 . S
C2356 H2346 0.930 . S
C2356 C2355 1.400 1_455 S
C2356 C2359 1.386 . S
H2357 C2373 0.930 . S
H2358 C2374 0.931 . S
C2359 H2347 0.929 . S
C2359 C2353 1.390 1_455 S
C2359 C2356 1.386 . S
C2360 C2355 1.490 . S
C2360 C2362 1.395 . S
C2360 C2363 1.403 . S
H2361 C2367 0.930 . S
C2362 H2348 0.930 . S
C2362 C2360 1.395 . S
C2362 C2365 1.403 1_554 S
C2363 C2360 1.403 . S
C2363 C2364 1.524 . S
C2363 C2367 1.400 1_554 S
C2364 H2349 0.960 . S
C2364 H2350 0.960 . S
C2364 H2351 0.960 1_655 S
C2364 C2363 1.524 . S
C2365 C2362 1.403 1_556 S
C2365 C2366 1.392 . S
C2365 C2369 1.495 . S
C2366 C2365 1.392 . S
C2366 C2367 1.385 . S
C2366 C2368 1.478 . S
C2367 H2361 0.930 . S
C2367 C2363 1.400 1_556 S
C2367 C2366 1.385 . S
C2368 C2366 1.478 . S
C2368 C2370 1.381 . S
C2368 C2374 1.383 1_655 S
C2369 C2365 1.495 . S
C2369 H2375 0.959 . S
C2369 H2376 0.961 1_655 S
C2369 H2377 0.960 . S
C2370 C2368 1.381 . S
C2370 C2371 1.394 . S
C2370 H2378 0.930 . S
C2371 C2370 1.394 . S
C2371 C2372 1.383 . S
C2371 H2379 0.929 . S
C2372 C2371 1.383 . S
C2372 C2373 1.377 1_655 S
C2373 H2357 0.930 . S
C2373 C2372 1.377 1_455 S
C2373 C2374 1.379 . S
C2374 H2358 0.931 . S
C2374 C2368 1.383 1_455 S
C2374 C2373 1.379 . S
H2375 C2369 0.959 . S
H2376 C2369 0.961 1_455 S
H2377 C2369 0.960 . S
H2378 C2370 0.930 . S
H2379 C2371 0.929 . S
H2380 C2388 0.929 . S
H2381 C2390 0.930 . S
H2382 C2392 0.930 . S
H2383 C2395 0.929 . S
H2384 C2398 0.930 . S
H2385 C2400 0.967 . S
H2386 C2400 1.013 . S
H2387 C2400 0.914 1_565 S
C2388 H2380 0.929 . S
C2388 C2389 1.377 1_545 S
C2388 C2390 1.384 . S
C2389 C2388 1.377 1_565 S
C2389 C2395 1.390 . S
C2390 H2381 0.930 . S
C2390 C2388 1.384 . S
C2390 C2391 1.372 1_545 S
C2391 C2390 1.372 1_565 S
C2391 C2392 1.400 . S
C2391 C2396 1.490 . S
C2392 H2382 0.930 . S
C2392 C2391 1.400 . S
C2392 C2395 1.386 . S
H2393 C2409 0.930 . S
H2394 C2410 0.931 . S
C2395 H2383 0.929 . S
C2395 C2389 1.390 . S
C2395 C2392 1.386 . S
C2396 C2391 1.490 . S
C2396 C2398 1.395 . S
C2396 C2399 1.403 . S
H2397 C2403 0.930 . S
C2398 H2384 0.930 . S
C2398 C2396 1.395 . S
C2398 C2401 1.403 . S
C2399 C2396 1.403 . S
C2399 C2400 1.514 1_565 S
C2399 C2403 1.400 . S
C2400 H2385 0.967 . S
C2400 H2386 1.013 . S
C2400 H2387 0.914 1_545 S
C2400 C2399 1.514 1_545 S
C2401 C2398 1.403 . S
C2401 C2402 1.392 . S
C2401 C2405 1.495 . S
C2402 C2401 1.392 . S
C2402 C2403 1.385 . S
C2402 C2404 1.478 . S
C2403 H2397 0.930 . S
C2403 C2399 1.400 . S
C2403 C2402 1.385 . S
C2404 C2402 1.478 . S
C2404 C2406 1.381 1_565 S
C2404 C2410 1.383 . S
C2405 C2401 1.495 . S
C2405 H2411 0.959 . S
C2405 H2412 0.961 . S
C2405 H2413 0.965 . S
C2406 C2404 1.381 1_545 S
C2406 C2407 1.394 . S
C2406 H2414 0.930 . S
C2407 C2406 1.394 . S
C2407 C2408 1.383 1_545 S
C2407 H2415 0.929 . S
C2408 C2407 1.383 1_565 S
C2408 C2409 1.377 . S
C2409 H2393 0.930 . S
C2409 C2408 1.377 . S
C2409 C2410 1.379 . S
C2410 H2394 0.931 . S
C2410 C2404 1.383 . S
C2410 C2409 1.379 . S
H2411 C2405 0.959 . S
H2412 C2405 0.961 . S
H2413 C2405 0.965 . S
H2414 C2406 0.930 . S
H2415 C2407 0.929 . S
H2416 C2424 0.929 . S
H2417 C2426 0.930 . S
H2418 C2428 0.930 . S
H2419 C2431 0.929 . S
H2420 C2434 0.930 . S
H2421 C2436 0.960 1_554 S
H2422 C2436 0.960 . S
H2423 C2436 0.960 . S
C2424 H2416 0.929 . S
C2424 C2425 1.377 . S
C2424 C2426 1.384 . S
C2425 C2424 1.377 . S
C2425 C2431 1.390 . S
C2426 H2417 0.930 . S
C2426 C2424 1.384 . S
C2426 C2427 1.372 . S
C2427 C2426 1.372 . S
C2427 C2428 1.400 . S
C2427 C2432 1.490 . S
C2428 H2418 0.930 . S
C2428 C2427 1.400 . S
C2428 C2431 1.386 . S
H2429 C2445 0.930 . S
H2430 C2446 0.931 . S
C2431 H2419 0.929 . S
C2431 C2425 1.390 . S
C2431 C2428 1.386 . S
C2432 C2427 1.490 . S
C2432 C2434 1.395 . S
C2432 C2435 1.403 . S
H2433 C2439 0.930 . S
C2434 H2420 0.930 . S
C2434 C2432 1.395 . S
C2434 C2437 1.403 1_556 S
C2435 C2432 1.403 . S
C2435 C2436 1.524 . S
C2435 C2439 1.400 1_556 S
C2436 H2421 0.960 1_556 S
C2436 H2422 0.960 . S
C2436 H2423 0.960 . S
C2436 C2435 1.524 . S
C2437 C2434 1.403 1_554 S
C2437 C2438 1.392 . S
C2437 C2441 1.495 . S
C2438 C2437 1.392 . S
C2438 C2439 1.385 . S
C2438 C2440 1.478 . S
C2439 H2433 0.930 . S
C2439 C2435 1.400 1_554 S
C2439 C2438 1.385 . S
C2440 C2438 1.478 . S
C2440 C2442 1.381 . S
C2440 C2446 1.383 . S
C2441 C2437 1.495 . S
C2441 H2447 0.959 1_554 S
C2441 H2448 0.961 . S
C2441 H2449 0.960 . S
C2442 C2440 1.381 . S
C2442 C2443 1.394 . S
C2442 H2450 0.930 . S
C2443 C2442 1.394 . S
C2443 C2444 1.383 . S
C2443 H2451 0.929 . S
C2444 C2443 1.383 . S
C2444 C2445 1.377 . S
C2445 H2429 0.930 . S
C2445 C2444 1.377 . S
C2445 C2446 1.379 . S
C2446 H2430 0.931 . S
C2446 C2440 1.383 . S
C2446 C2445 1.379 . S
H2447 C2441 0.959 1_556 S
H2448 C2441 0.961 . S
H2449 C2441 0.960 . S
H2450 C2442 0.930 . S
H2451 C2443 0.929 . S
H2452 C2460 0.929 . S
H2453 C2462 0.930 . S
H2454 C2464 0.930 . S
H2455 C2467 0.929 . S
H2456 C2470 0.930 . S
H2457 C2472 0.960 . S
H2458 C2472 0.960 . S
H2459 C2472 0.960 . S
C2460 H2452 0.929 . S
C2460 C2461 1.377 . S
C2460 C2462 1.384 . S
C2461 C2460 1.377 . S
C2461 C2467 1.390 . S
C2462 H2453 0.930 . S
C2462 C2460 1.384 . S
C2462 C2463 1.372 . S
C2463 C2462 1.372 . S
C2463 C2464 1.400 . S
C2463 C2468 1.490 . S
C2464 H2454 0.930 . S
C2464 C2463 1.400 . S
C2464 C2467 1.386 . S
H2465 C2481 0.930 . S
H2466 C2482 0.931 . S
C2467 H2455 0.929 . S
C2467 C2461 1.390 . S
C2467 C2464 1.386 . S
C2468 C2463 1.490 . S
C2468 C2470 1.395 . S
C2468 C2471 1.403 . S
H2469 C2475 0.930 . S
C2470 H2456 0.930 . S
C2470 C2468 1.395 . S
C2470 C2473 1.403 . S
C2471 C2468 1.403 . S
C2471 C2472 1.524 . S
C2471 C2475 1.400 . S
C2472 H2457 0.960 . S
C2472 H2458 0.960 . S
C2472 H2459 0.960 . S
C2472 C2471 1.524 . S
C2473 C2470 1.403 . S
C2473 C2474 1.392 . S
C2473 C2477 1.495 . S
C2474 C2473 1.392 . S
C2474 C2475 1.385 . S
C2474 C2476 1.478 . S
C2475 H2469 0.930 . S
C2475 C2471 1.400 . S
C2475 C2474 1.385 . S
C2476 C2474 1.478 . S
C2476 C2478 1.381 . S
C2476 C2482 1.383 . S
C2477 C2473 1.495 . S
C2477 H2483 0.959 . S
C2477 H2484 0.961 . S
C2477 H2485 0.960 . S
C2478 C2476 1.381 . S
C2478 C2479 1.394 . S
C2478 H2486 0.930 . S
C2479 C2478 1.394 . S
C2479 C2480 1.383 . S
C2479 H2487 0.929 . S
C2480 C2479 1.383 . S
C2480 C2481 1.377 . S
C2481 H2465 0.930 . S
C2481 C2480 1.377 . S
C2481 C2482 1.379 . S
C2482 H2466 0.931 . S
C2482 C2476 1.383 . S
C2482 C2481 1.379 . S
H2483 C2477 0.959 . S
H2484 C2477 0.961 . S
H2485 C2477 0.960 . S
H2486 C2478 0.930 . S
H2487 C2479 0.929 . S
H2488 C2496 0.929 . S
H2489 C2498 0.930 . S
H2490 C2500 0.930 . S
H2491 C2503 0.929 . S
H2492 C2506 0.930 . S
H2493 C2508 0.953 1_656 S
H2494 C2508 1.013 . S
H2495 C2508 0.910 1_655 S
C2496 H2488 0.929 . S
C2496 C2497 1.377 . S
C2496 C2498 1.384 . S
C2497 C2496 1.377 . S
C2497 C2503 1.390 1_455 S
C2498 H2489 0.930 . S
C2498 C2496 1.384 . S
C2498 C2499 1.372 . S
C2499 C2498 1.372 . S
C2499 C2500 1.400 1_455 S
C2499 C2504 1.490 . S
C2500 H2490 0.930 . S
C2500 C2499 1.400 1_655 S
C2500 C2503 1.386 . S
H2501 C2517 0.930 . S
H2502 C2518 0.931 . S
C2503 H2491 0.929 . S
C2503 C2497 1.390 1_655 S
C2503 C2500 1.386 . S
C2504 C2499 1.490 . S
C2504 C2506 1.395 . S
C2504 C2507 1.403 . S
H2505 C2511 0.941 . S
C2506 H2492 0.930 . S
C2506 C2504 1.395 . S
C2506 C2509 1.403 1_554 S
C2507 C2504 1.403 . S
C2507 C2508 1.531 . S
C2507 C2511 1.400 1_554 S
C2508 H2493 0.953 1_454 S
C2508 H2494 1.013 . S
C2508 H2495 0.910 1_455 S
C2508 C2507 1.531 . S
C2509 C2506 1.403 1_556 S
C2509 C2510 1.392 . S
C2509 C2513 1.495 . S
C2510 C2509 1.392 . S
C2510 C2511 1.385 . S
C2510 C2512 1.478 . S
C2511 H2505 0.941 . S
C2511 C2507 1.400 1_556 S
C2511 C2510 1.385 . S
C2512 C2510 1.478 . S
C2512 C2514 1.381 . S
C2512 C2518 1.383 1_455 S
C2513 C2509 1.495 . S
C2513 H2519 0.959 1_556 S
C2513 H2520 0.949 1_455 S
C2513 H2521 0.960 . S
C2514 C2512 1.381 . S
C2514 C2515 1.394 . S
C2514 H2522 0.930 . S
C2515 C2514 1.394 . S
C2515 C2516 1.383 . S
C2515 H2523 0.929 . S
C2516 C2515 1.383 . S
C2516 C2517 1.377 1_455 S
C2517 H2501 0.930 . S
C2517 C2516 1.377 1_655 S
C2517 C2518 1.379 . S
C2518 H2502 0.931 . S
C2518 C2512 1.383 1_655 S
C2518 C2517 1.379 . S
H2519 C2513 0.959 1_554 S
H2520 C2513 0.949 1_655 S
H2521 C2513 0.960 . S
H2522 C2514 0.930 . S
H2523 C2515 0.929 . S
H2524 C2532 0.929 . S
H2525 C2534 0.930 . S
H2526 C2536 0.930 . S
H2527 C2539 0.929 . S
H2528 C2542 0.930 . S
H2529 C2544 0.960 . S
H2530 C2544 0.960 . S
H2531 C2544 0.960 . S
C2532 H2524 0.929 . S
C2532 C2533 1.377 1_565 S
C2532 C2534 1.384 . S
C2533 C2532 1.377 1_545 S
C2533 C2539 1.390 . S
C2534 H2525 0.930 . S
C2534 C2532 1.384 . S
C2534 C2535 1.372 1_565 S
C2535 C2534 1.372 1_545 S
C2535 C2536 1.400 . S
C2535 C2540 1.490 . S
C2536 H2526 0.930 . S
C2536 C2535 1.400 . S
C2536 C2539 1.386 . S
H2537 C2553 0.930 . S
H2538 C2554 0.931 . S
C2539 H2527 0.929 . S
C2539 C2533 1.390 . S
C2539 C2536 1.386 . S
C2540 C2535 1.490 . S
C2540 C2542 1.395 1_545 S
C2540 C2543 1.403 . S
H2541 C2547 0.930 . S
C2542 H2528 0.930 . S
C2542 C2540 1.395 1_565 S
C2542 C2545 1.403 . S
C2543 C2540 1.403 . S
C2543 C2544 1.524 . S
C2543 C2547 1.400 . S
C2544 H2529 0.960 . S
C2544 H2530 0.960 . S
C2544 H2531 0.960 . S
C2544 C2543 1.524 . S
C2545 C2542 1.403 . S
C2545 C2546 1.375 1_565 S
C2545 C2549 1.495 . S
C2546 C2545 1.375 1_545 S
C2546 C2547 1.404 . S
C2546 C2548 1.478 . S
C2547 H2541 0.930 . S
C2547 C2543 1.400 . S
C2547 C2546 1.404 . S
C2548 C2546 1.478 . S
C2548 C2550 1.369 1_545 S
C2548 C2554 1.397 . S
C2549 C2545 1.495 . S
C2549 H2555 0.959 . S
C2549 H2556 0.961 . S
C2549 H2557 0.960 . S
C2550 C2548 1.369 1_565 S
C2550 C2551 1.394 . S
C2550 H2558 0.930 . S
C2551 C2550 1.394 . S
C2551 C2552 1.383 1_565 S
C2551 H2559 0.929 . S
C2552 C2551 1.383 1_545 S
C2552 C2553 1.377 . S
C2553 H2537 0.930 . S
C2553 C2552 1.377 . S
C2553 C2554 1.379 . S
C2554 H2538 0.931 . S
C2554 C2548 1.397 . S
C2554 C2553 1.379 . S
H2555 C2549 0.959 . S
H2556 C2549 0.961 . S
H2557 C2549 0.960 . S
H2558 C2550 0.930 . S
H2559 C2551 0.929 . S
C1417 C57 0.820 . S
C1436 C665 0.851 . S
C1453 C117 0.824 . S
C1472 C372 0.793 . S
C1489 C205 0.825 . S
C1508 C469 0.796 . S
C1525 C293 0.817 . S
C1544 C577 0.843 . S
C1561 C733 0.834 . S
C1580 C1377 0.797 . S
C1597 C1105 0.831 . S
C1616 C812 0.806 . S
C1633 C909 0.833 . S
C1652 C1193 0.798 . S
C1669 C997 0.833 . S
C1688 C1289 0.798 . S
C1705 C29 1.233 . S
C1724 C849 1.271 . S
C1741 C145 1.224 . S
C1760 C929 1.262 . S
C1777 C1017 1.268 . S
C1796 C233 1.255 . S
C1813 C321 1.222 . S
C1832 C753 1.259 . S
C1849 C401 1.229 . S
C1868 C1340 1.266 . S
C1885 C1085 1.268 . S
C1904 C497 1.250 . S
C1921 C1173 1.267 . S
C1940 C548 1.232 . S
C1957 C1252 1.267 . S
C1976 C636 1.241 . S
C1993 C108 1.277 . S
C2012 C761 1.259 . S
C2029 C196 1.278 . S
C2048 C841 1.206 . S
C2065 C937 1.235 . S
C2084 C284 1.269 . S
C2101 C49 1.279 . S
C2120 C1025 1.262 . S
C2137 C1076 1.242 . S
C2156 C673 1.277 . S
C2173 C1164 1.233 . S
C2192 C381 1.271 . S
C2209 C460 1.279 . S
C2228 C1261 1.262 . S
C2245 C585 1.277 . S
C2264 C1349 1.261 . S
C2281 C20 1.585 . S
C2300 C409 1.575 . S
C2317 C489 1.587 . S
C2336 C137 1.588 . S
C2353 C225 1.584 . S
C2372 C557 1.578 . S
C2389 C645 1.588 . S
C2408 C313 1.587 . S
C2425 C724 1.578 . S
C2444 C1113 1.577 . S
C2461 C1201 1.578 . S
C2480 C821 1.572 . S
C2497 C1281 1.577 . S
C2516 C900 1.578 . S
C2533 C1369 1.577 . S
C2552 C988 1.578 . S
