# Generated by pormake.
# Topology vby, (6)-cn, num edge types: 1
# Building blocks:
#     Node 0, Type 0, BuildingBlock: GEDQOX_clean_sbu_0, # of connection points: 6
#     Node 1, Type 0, BuildingBlock: GEDQOX_clean_sbu_0, # of connection points: 6
#     Node 2, Type 0, BuildingBlock: GEDQOX_clean_sbu_0, # of connection points: 6
#     Node 3, Type 0, BuildingBlock: GEDQOX_clean_sbu_0, # of connection points: 6
#     Node 4, Type 0, BuildingBlock: GEDQOX_clean_sbu_0, # of connection points: 6
#     Node 5, Type 0, BuildingBlock: GEDQOX_clean_sbu_0, # of connection points: 6
#     Node 6, Type 0, BuildingBlock: GEDQOX_clean_sbu_0, # of connection points: 6
#     Node 7, Type 0, BuildingBlock: GEDQOX_clean_sbu_0, # of connection points: 6
#     Edge 8, Type (0, 0), BuildingBlock: UVAHIK_clean_linker_0, # of connection points: 2
#     Edge 9, Type (0, 0), BuildingBlock: UVAHIK_clean_linker_0, # of connection points: 2
#     Edge 10, Type (0, 0), BuildingBlock: UVAHIK_clean_linker_0, # of connection points: 2
#     Edge 11, Type (0, 0), BuildingBlock: UVAHIK_clean_linker_0, # of connection points: 2
#     Edge 12, Type (0, 0), BuildingBlock: UVAHIK_clean_linker_0, # of connection points: 2
#     Edge 13, Type (0, 0), BuildingBlock: UVAHIK_clean_linker_0, # of connection points: 2
#     Edge 14, Type (0, 0), BuildingBlock: UVAHIK_clean_linker_0, # of connection points: 2
#     Edge 15, Type (0, 0), BuildingBlock: UVAHIK_clean_linker_0, # of connection points: 2
#     Edge 16, Type (0, 0), BuildingBlock: UVAHIK_clean_linker_0, # of connection points: 2
#     Edge 17, Type (0, 0), BuildingBlock: UVAHIK_clean_linker_0, # of connection points: 2
#     Edge 18, Type (0, 0), BuildingBlock: UVAHIK_clean_linker_0, # of connection points: 2
#     Edge 19, Type (0, 0), BuildingBlock: UVAHIK_clean_linker_0, # of connection points: 2
#     Edge 20, Type (0, 0), BuildingBlock: UVAHIK_clean_linker_0, # of connection points: 2
#     Edge 21, Type (0, 0), BuildingBlock: UVAHIK_clean_linker_0, # of connection points: 2
#     Edge 22, Type (0, 0), BuildingBlock: UVAHIK_clean_linker_0, # of connection points: 2
#     Edge 23, Type (0, 0), BuildingBlock: UVAHIK_clean_linker_0, # of connection points: 2
#     Edge 24, Type (0, 0), BuildingBlock: UVAHIK_clean_linker_0, # of connection points: 2
#     Edge 25, Type (0, 0), BuildingBlock: UVAHIK_clean_linker_0, # of connection points: 2
#     Edge 26, Type (0, 0), BuildingBlock: UVAHIK_clean_linker_0, # of connection points: 2
#     Edge 27, Type (0, 0), BuildingBlock: UVAHIK_clean_linker_0, # of connection points: 2
#     Edge 28, Type (0, 0), BuildingBlock: UVAHIK_clean_linker_0, # of connection points: 2
#     Edge 29, Type (0, 0), BuildingBlock: UVAHIK_clean_linker_0, # of connection points: 2
#     Edge 30, Type (0, 0), BuildingBlock: UVAHIK_clean_linker_0, # of connection points: 2
#     Edge 31, Type (0, 0), BuildingBlock: UVAHIK_clean_linker_0, # of connection points: 2
# Relax obj value: 0.126
# Max RMSD: 0.202
# Mean RMSD: 0.197
data_MOF--net-vby--node1-GEDQOX_clean_sbu_0--edge1-UVAHIK_clean_linker_0
_symmetry_space_group_name_H-M    P1
_symmetry_Int_Tables_number       1
_symmetry_cell_setting            triclinic
loop_
_symmetry_equiv_pos_as_xyz
'x, y, z'
_cell_length_a     30.004131
_cell_length_b     71.609767
_cell_length_c     37.030903
_cell_angle_alpha  92.035332
_cell_angle_beta   93.234255
_cell_angle_gamma 89.996759
loop_
_atom_site_label
_atom_site_type_symbol
_atom_site_fract_x
_atom_site_fract_y
_atom_site_fract_z
_atom_type_partial_charge
Nd0 Nd 0.13345 0.37966 0.03055 0.0
Nd1 Nd 0.04983 0.35886 0.04347 0.0
C2 C 0.21049 0.39226 1.00923 0.0
C3 C 0.25875 0.3885 1.0135 0.0
C4 C 0.28699 0.3953 0.98811 0.0
C5 C 0.33304 0.3923 0.99181 0.0
C6 C 0.35194 0.38244 0.02113 0.0
C7 C 0.32328 0.37539 0.04632 0.0
C8 C 0.27708 0.37838 0.04251 0.0
C9 C 0.11135 0.37961 0.10192 0.0
C10 C 0.14004 0.33469 0.04354 0.0
C11 C 0.97284 0.34688 0.06622 0.0
C12 C 0.92464 0.3509 0.06268 0.0
C13 C 0.89692 0.34464 0.08896 0.0
C14 C 0.85082 0.34759 0.08558 0.0
C15 C 0.83139 0.35688 0.05574 0.0
C16 C 0.85952 0.36342 0.02969 0.0
C17 C 0.90574 0.36046 0.03313 0.0
C18 C 0.06844 0.35937 0.97132 0.0
C19 C 0.04611 0.40393 0.0284 0.0
O20 O 0.18613 0.3797 0.99077 0.0
O21 O 0.1912 0.399 0.03769 0.0
O22 O 0.12658 0.39417 0.08677 0.0
O23 O 0.10966 0.36574 0.08004 0.0
O24 O 0.1571 0.34925 0.02843 0.0
O25 O 0.09999 0.33543 0.05665 0.0
O26 O 0.99816 0.35923 0.08428 0.0
O27 O 0.99111 0.34004 0.03741 0.0
O28 O 0.05337 0.3449 0.98681 0.0
O29 O 0.07231 0.37307 0.99361 0.0
O30 O 0.02888 0.3903 0.04644 0.0
O31 O 0.08388 0.40169 1.01254 0.0
H32 H 0.27339 0.40301 0.96538 0.0
H33 H 0.35382 0.3976 0.97149 0.0
H34 H 0.33659 0.36788 0.06938 0.0
H35 H 0.25574 0.37293 0.06233 0.0
H36 H 0.91094 0.33731 0.11206 0.0
H37 H 0.8304 0.34267 0.1065 0.0
H38 H 0.84575 0.37048 1.00621 0.0
H39 H 0.92663 0.36543 1.01255 0.0
Nd40 Nd 0.90905 0.6247 0.99839 0.0
Nd41 Nd 1.00211 0.64485 0.02067 0.0
C42 C 0.82908 0.61424 0.97082 0.0
C43 C 0.78176 0.61811 0.97698 0.0
C44 C 0.74842 0.61006 0.95337 0.0
C45 C 0.70328 0.61312 0.95923 0.0
C46 C 0.69043 0.62429 0.98894 0.0
C47 C 0.72415 0.63254 1.01235 0.0
C48 C 0.76938 0.62946 1.00643 0.0
C49 C 0.93845 0.62417 0.07014 0.0
C50 C 0.91046 0.67004 0.01987 0.0
C51 C 0.07744 0.65502 0.05662 0.0
C52 C 0.12554 0.65303 0.05106 0.0
C53 C 0.15705 0.66142 0.07592 0.0
C54 C 0.20283 0.65943 0.07111 0.0
C55 C 0.21804 0.64897 0.0413 0.0
C56 C 0.18614 0.64063 0.01638 0.0
C57 C 0.14037 0.64265 0.02121 0.0
C58 C 0.99275 0.64088 0.94607 0.0
C59 C 0.99538 0.59994 0.9988 0.0
O60 O 0.8521 0.62784 0.95811 0.0
O61 O 0.85149 0.60522 0.99604 0.0
O62 O 0.9171 0.61031 0.05348 0.0
O63 O 0.9412 0.63769 0.04963 0.0
O64 O 0.88788 0.65513 1.00715 0.0
O65 O 0.95397 0.66969 0.02859 0.0
O66 O 0.05599 0.63955 0.06241 0.0
O67 O 0.05495 0.66598 0.03459 0.0
O68 O 0.0262 0.64922 0.96339 0.0
O69 O 0.96545 0.63567 0.96829 0.0
O70 O 1.01404 0.61283 0.0214 0.0
O71 O 0.95866 0.60332 0.97893 0.0
H72 H 0.75732 0.60133 0.9304 0.0
H73 H 0.67841 0.60681 0.94025 0.0
H74 H 0.71563 0.64107 0.03569 0.0
H75 H 0.79469 0.63578 0.02501 0.0
H76 H 0.14625 0.66943 0.0992 0.0
H77 H 0.22631 0.66585 0.0911 0.0
H78 H 0.1965 0.63269 0.99288 0.0
H79 H 0.11652 0.63609 1.00166 0.0
Nd80 Nd 0.04848 0.64187 0.5246 0.0
Nd81 Nd 0.13853 0.62006 0.50736 0.0
C82 C 0.97789 0.65353 0.55864 0.0
C83 C 0.92905 0.65149 0.55344 0.0
C84 C 0.90126 0.66021 0.57808 0.0
C85 C 0.85483 0.65806 0.57381 0.0
C86 C 0.83528 0.6471 0.54479 0.0
C87 C 0.86346 0.63843 0.52005 0.0
C88 C 0.90989 0.64061 0.52434 0.0
C89 C 0.05274 0.63695 0.45064 0.0
C90 C 0.04917 0.59678 0.50264 0.0
C91 C 0.21568 0.60796 0.48405 0.0
C92 C 0.26372 0.61213 0.48974 0.0
C93 C 0.29379 0.60368 0.46665 0.0
C94 C 0.33964 0.60714 0.47187 0.0
C95 C 0.35647 0.61911 0.50043 0.0
C96 C 0.32597 0.62776 0.5233 0.0
C97 C 0.28001 0.6243 0.51799 0.0
C98 C 0.11364 0.62143 0.57798 0.0
C99 C 0.14153 0.66589 0.52217 0.0
O100 O 0.99998 0.6383 0.56674 0.0
O101 O 0.99739 0.66349 0.53499 0.0
O102 O 1.0208 0.64589 0.46588 0.0
O103 O 0.08073 0.63151 0.4746 0.0
O104 O 0.03249 0.61005 0.52387 0.0
O105 O 0.08605 0.59932 0.48576 0.0
O106 O 0.19112 0.62053 0.46758 0.0
O107 O 0.19624 0.60077 0.51114 0.0
O108 O 0.13179 0.60679 0.56314 0.0
O109 O 0.1113 0.63453 0.55626 0.0
O110 O 0.16208 0.65034 0.51247 0.0
O111 O 0.09893 0.66635 0.53018 0.0
H112 H 0.91549 0.66858 0.60081 0.0
H113 H 0.83431 0.66473 0.59364 0.0
H114 H 0.84963 0.63009 0.49715 0.0
H115 H 0.93086 0.63378 0.50501 0.0
H116 H 0.2818 0.59434 0.44455 0.0
H117 H 0.36187 0.6005 0.4533 0.0
H118 H 0.33765 0.63693 0.54573 0.0
H119 H 0.25724 0.631 0.53607 0.0
Nd120 Nd 0.91574 0.37633 0.52991 0.0
Nd121 Nd 1.00553 0.35605 0.50853 0.0
C122 C 0.83896 0.38716 0.55589 0.0
C123 C 0.79079 0.3834 0.54943 0.0
C124 C 0.761 0.39033 0.57442 0.0
C125 C 0.71505 0.38731 0.56852 0.0
C126 C 0.69782 0.3773 0.53738 0.0
C127 C 0.72804 0.37016 0.51257 0.0
C128 C 0.7741 0.37318 0.51856 0.0
C129 C 0.93739 0.37728 0.45852 0.0
C130 C 0.91391 0.331 0.50985 0.0
C131 C 0.07575 0.34602 0.47233 0.0
C132 C 0.12461 0.34798 0.47767 0.0
C133 C 0.15224 0.34108 0.45101 0.0
C134 C 0.19868 0.34314 0.45555 0.0
C135 C 0.21841 0.35219 0.48687 0.0
C136 C 0.19039 0.35906 0.51357 0.0
C137 C 0.14396 0.35698 0.509 0.0
C138 C 1.00456 0.35876 0.58311 0.0
C139 C 1.0031 0.40057 0.53422 0.0
O140 O 0.86326 0.37362 0.56937 0.0
O141 O 0.85851 0.39588 0.53061 0.0
O142 O 0.91918 0.39124 0.4755 0.0
O143 O 0.94157 0.36356 0.47867 0.0
O144 O 0.89324 0.34602 0.52205 0.0
O145 O 0.9561 0.33124 0.50078 0.0
O146 O 0.05354 0.36153 0.46685 0.0
O147 O 0.05646 0.335 0.49432 0.0
O148 O 0.03612 0.35075 0.56578 0.0
O149 O 0.97497 0.36459 0.56075 0.0
O150 O 1.01918 0.38804 0.51112 0.0
O151 O 0.96793 0.39696 0.55251 0.0
H152 H 0.77329 0.39815 0.59853 0.0
H153 H 0.69304 0.39271 0.58858 0.0
H154 H 0.71608 0.36254 0.48815 0.0
H155 H 0.79665 0.36767 0.49897 0.0
H156 H 0.13788 0.33419 0.42655 0.0
H157 H 0.21906 0.33791 0.4342 0.0
H158 H 0.20435 0.36589 0.53821 0.0
H159 H 0.12312 0.36241 0.5299 0.0
Nd160 Nd 0.63166 0.87992 0.02364 0.0
Nd161 Nd 0.54795 0.85927 0.03713 0.0
C162 C 0.70862 0.89242 1.00194 0.0
C163 C 0.75691 0.88878 1.00641 0.0
C164 C 0.78563 0.8969 0.98287 0.0
C165 C 0.8317 0.89395 0.98679 0.0
C166 C 0.85011 0.88283 1.01445 0.0
C167 C 0.82097 0.8745 0.03778 0.0
C168 C 0.77476 0.87744 0.03377 0.0
C169 C 0.61009 0.87996 0.09517 0.0
C170 C 0.63802 0.83503 0.03736 0.0
C171 C 0.47106 0.84738 0.06026 0.0
C172 C 0.42284 0.85131 0.05666 0.0
C173 C 0.39463 0.84375 0.08128 0.0
C174 C 0.34852 0.84667 0.07776 0.0
C175 C 0.32959 0.85723 0.04945 0.0
C176 C 0.35819 0.86505 0.02509 0.0
C177 C 0.40442 0.86211 0.02866 0.0
C178 C 0.56627 0.85951 0.96492 0.0
C179 C 0.54445 0.90428 0.02169 0.0
O180 O 0.68442 0.87964 0.98394 0.0
O181 O 0.68927 0.89937 0.03019 0.0
O182 O 0.6253 0.8945 0.07993 0.0
O183 O 0.60813 0.86611 0.07329 0.0
O184 O 0.65499 0.84944 0.02172 0.0
O185 O 0.59817 0.83594 0.05079 0.0
O186 O 0.49629 0.8599 0.07793 0.0
O187 O 0.48928 0.84039 0.03156 0.0
O188 O 0.55115 0.84512 0.98063 0.0
O189 O 0.57029 0.87328 0.98701 0.0
O190 O 0.52744 0.89074 0.0401 0.0
O191 O 0.58196 0.90191 1.0055 0.0
H192 H 0.77241 0.90558 0.96142 0.0
H193 H 0.85287 0.90029 0.96787 0.0
H194 H 0.8339 0.86598 0.05955 0.0
H195 H 0.75302 0.87099 0.05214 0.0
H196 H 0.40828 0.83545 0.10317 0.0
H197 H 0.32772 0.84072 0.09739 0.0
H198 H 0.3448 0.87311 1.0028 0.0
H199 H 0.42572 0.86807 1.00938 0.0
Nd200 Nd 0.41112 0.12505 0.98973 0.0
Nd201 Nd 0.50419 0.14501 1.01249 0.0
C202 C 0.33114 0.11481 0.96185 0.0
C203 C 0.28387 0.11896 0.96776 0.0
C204 C 0.25047 0.11148 0.9435 0.0
C205 C 0.20538 0.11494 0.94895 0.0
C206 C 0.19267 0.12598 0.97889 0.0
C207 C 0.22644 0.13354 1.00311 0.0
C208 C 0.27161 0.13009 0.99756 0.0
C209 C 0.44013 0.12427 0.06157 0.0
C210 C 0.41263 0.17029 1.01208 0.0
C211 C 0.57962 0.155 0.0485 0.0
C212 C 0.62771 0.15316 0.04272 0.0
C213 C 0.65928 0.16117 0.06799 0.0
C214 C 0.70504 0.15933 0.06294 0.0
C215 C 0.7202 0.14942 0.03246 0.0
C216 C 0.68821 0.14144 1.00713 0.0
C217 C 0.64247 0.14329 1.01223 0.0
C218 C 0.4953 0.14118 0.93781 0.0
C219 C 0.4969 0.10008 0.99083 0.0
O220 O 0.35463 0.12823 0.94904 0.0
O221 O 0.35313 0.10579 0.98731 0.0
O222 O 0.41878 0.11048 0.04467 0.0
O223 O 0.4431 0.13785 0.04123 0.0
O224 O 0.39012 0.15548 0.99876 0.0
O225 O 0.45609 0.16983 0.02104 0.0
O226 O 0.55835 0.13943 0.05384 0.0
O227 O 0.55692 0.16612 0.02694 0.0
O228 O 0.52866 0.14946 0.95535 0.0
O229 O 0.46779 0.13598 0.95987 0.0
O230 O 0.5154 0.11294 1.01359 0.0
O231 O 0.46069 0.10361 0.97046 0.0
H232 H 0.25927 0.1028 0.92041 0.0
H233 H 0.18041 0.10867 0.93002 0.0
H234 H 0.21798 0.14228 0.02619 0.0
H235 H 0.29697 0.13604 0.01656 0.0
H236 H 0.64854 0.16887 0.09166 0.0
H237 H 0.72854 0.16588 0.08276 0.0
H238 H 0.69851 0.13351 0.98361 0.0
H239 H 0.61857 0.13693 0.99247 0.0
Nd240 Nd 0.55116 0.14075 0.51633 0.0
Nd241 Nd 0.64114 0.11908 0.49883 0.0
C242 C 0.4806 0.1523 0.55054 0.0
C243 C 0.43177 0.1502 0.54538 0.0
C244 C 0.40401 0.1585 0.57053 0.0
C245 C 0.3576 0.1563 0.56628 0.0
C246 C 0.33803 0.14569 0.53678 0.0
C247 C 0.36618 0.13743 0.51155 0.0
C248 C 0.41259 0.13967 0.51582 0.0
C249 C 0.55482 0.13577 0.44231 0.0
C250 C 0.55222 0.09564 0.49472 0.0
C251 C 0.71826 0.10696 0.47549 0.0
C252 C 0.76634 0.11105 0.48126 0.0
C253 C 0.79629 0.10284 0.45776 0.0
C254 C 0.84217 0.10621 0.46304 0.0
C255 C 0.85916 0.11785 0.49206 0.0
C256 C 0.82878 0.12625 0.51535 0.0
C257 C 0.78279 0.12289 0.50997 0.0
C258 C 0.61685 0.12062 0.56968 0.0
C259 C 0.6439 0.16493 0.51332 0.0
O260 O 0.5028 0.13709 0.55855 0.0
O261 O 0.49999 0.16231 0.52689 0.0
O262 O 0.52301 0.14469 0.45772 0.0
O263 O 0.58308 0.13038 0.46612 0.0
O264 O 0.53571 0.10888 0.51612 0.0
O265 O 0.5887 0.0983 0.47741 0.0
O266 O 0.69384 0.11962 0.45915 0.0
O267 O 0.6987 0.09972 0.50246 0.0
O268 O 0.63487 0.10596 0.55486 0.0
O269 O 0.61425 0.13364 0.5478 0.0
O270 O 0.66432 0.14942 0.50319 0.0
O271 O 0.60154 0.16527 0.522 0.0
H272 H 0.41825 0.1666 0.59363 0.0
H273 H 0.3371 0.16264 0.5865 0.0
H274 H 0.35234 0.12937 0.48827 0.0
H275 H 0.43355 0.13315 0.49609 0.0
H276 H 0.78418 0.09377 0.43529 0.0
H277 H 0.8643 0.09978 0.44413 0.0
H278 H 0.84057 0.13515 0.53815 0.0
H279 H 0.76011 0.1294 0.52837 0.0
Nd280 Nd 0.41573 0.87542 0.52331 0.0
Nd281 Nd 0.5056 0.85499 0.50214 0.0
C282 C 0.33882 0.88615 0.54919 0.0
C283 C 0.29082 0.88193 0.54316 0.0
C284 C 0.26071 0.88943 0.56733 0.0
C285 C 0.21494 0.88581 0.56196 0.0
C286 C 0.19826 0.8746 0.53222 0.0
C287 C 0.22872 0.86703 0.50807 0.0
C288 C 0.27461 0.87063 0.51354 0.0
C289 C 0.43812 0.87666 0.45221 0.0
C290 C 0.41367 0.83012 0.50283 0.0
C291 C 0.57592 0.84484 0.46616 0.0
C292 C 0.6248 0.84667 0.47165 0.0
C293 C 0.65256 0.83875 0.44608 0.0
C294 C 0.69903 0.8406 0.45081 0.0
C295 C 0.71869 0.85044 0.48128 0.0
C296 C 0.69052 0.85833 0.5069 0.0
C297 C 0.64405 0.85647 0.50212 0.0
C298 C 0.50398 0.8576 0.57666 0.0
C299 C 0.50354 0.8995 0.52825 0.0
O300 O 0.36383 0.873 0.56332 0.0
O301 O 0.35775 0.89461 0.52328 0.0
O302 O 0.41988 0.89058 0.46931 0.0
O303 O 0.44196 0.8628 0.47209 0.0
O304 O 0.39286 0.8452 0.51458 0.0
O305 O 0.45612 0.83021 0.49446 0.0
O306 O 0.55392 0.86039 0.46065 0.0
O307 O 0.55639 0.83384 0.48805 0.0
O308 O 0.5357 0.84959 0.55952 0.0
O309 O 0.47469 0.8635 0.55414 0.0
O310 O 0.51982 0.88694 0.50529 0.0
O311 O 0.46788 0.89603 0.54607 0.0
H312 H 0.2726 0.89821 0.5903 0.0
H313 H 0.19251 0.89208 0.58083 0.0
H314 H 0.21716 0.85817 0.48513 0.0
H315 H 0.29742 0.86464 0.49466 0.0
H316 H 0.6383 0.83112 0.4224 0.0
H317 H 0.71958 0.83413 0.43077 0.0
H318 H 0.70432 0.86621 0.53042 0.0
H319 H 0.6231 0.86276 0.5221 0.0
C320 C 0.43068 0.39412 0.01724 0.0
C321 C 0.4013 0.37974 0.02542 0.0
C322 C 0.47694 0.3916 0.02069 0.0
C323 C 0.56392 0.3548 0.02573 0.0
H324 H 0.64008 0.3957 0.06268 0.0
C325 C 0.75286 0.34518 0.06068 0.0
C326 C 0.78201 0.35949 0.05174 0.0
C327 C 0.70655 0.34761 0.05732 0.0
C328 C 0.61937 0.38419 0.05191 0.0
H329 H 0.39804 0.35135 0.04368 0.0
H330 H 0.47871 0.34711 0.05051 0.0
H331 H 0.5594 0.39994 0.05777 0.0
H332 H 0.78489 0.38765 0.03228 0.0
H333 H 0.70413 0.39176 0.02581 0.0
H334 H 0.62395 0.33905 0.01996 0.0
C335 C 0.46589 0.36028 0.04092 0.0
C336 C 0.57302 0.38662 0.0491 0.0
C337 C 0.41955 0.3628 0.03743 0.0
C338 C 0.76353 0.37627 0.03914 0.0
C339 C 0.71717 0.37871 0.03582 0.0
C340 C 0.61028 0.35237 0.02859 0.0
C341 C 0.49522 0.37464 0.03253 0.0
C342 C 0.54464 0.37196 0.03593 0.0
C343 C 0.68806 0.36442 0.04492 0.0
C344 C 0.63864 0.36704 0.04169 0.0
H345 H 0.41796 0.40745 1.00838 0.0
H346 H 0.49838 0.4029 1.01359 0.0
H347 H 0.54325 0.34329 1.01491 0.0
H348 H 0.76581 0.33198 0.07003 0.0
H349 H 0.68524 0.33637 0.06491 0.0
C350 C 0.29674 0.66168 0.0439 0.0
C351 C 0.2669 0.64669 0.03637 0.0
C352 C 0.34254 0.65949 0.03942 0.0
C353 C 0.43068 0.6233 0.03274 0.0
H354 H 0.49753 0.66277 0.99123 0.0
C355 C 0.61143 0.6123 0.98948 0.0
C356 C 0.64211 0.6271 0.99555 0.0
C357 C 0.56609 0.61488 0.99522 0.0
C358 C 0.47956 0.65169 1.0033 0.0
H359 H 0.2624 0.61754 0.01853 0.0
H360 H 0.34195 0.61383 1.01016 0.0
H361 H 0.41804 0.66689 0.9996 0.0
H362 H 0.64859 0.65633 1.01245 0.0
H363 H 0.5697 0.66074 0.02315 0.0
H364 H 0.49211 0.60809 0.03646 0.0
C365 C 0.33 0.62726 0.01985 0.0
C366 C 0.43386 0.65405 1.00809 0.0
C367 C 0.2842 0.62945 0.02424 0.0
C368 C 0.62611 0.64456 1.00777 0.0
C369 C 0.58068 0.64715 1.0135 0.0
C370 C 0.47635 0.62095 0.028 0.0
C371 C 0.35984 0.64224 0.02739 0.0
C372 C 0.40873 0.63986 0.02274 0.0
C373 C 0.55 0.63235 1.00727 0.0
C374 C 0.50144 0.63507 1.01306 0.0
H375 H 0.28465 0.67521 0.05293 0.0
H376 H 0.36448 0.6713 0.04583 0.0
H377 H 0.41267 0.6122 0.0447 0.0
H378 H 0.62247 0.59859 0.98054 0.0
H379 H 0.54351 0.6032 0.98972 0.0
C380 C 0.7568 0.65957 0.54739 0.0
C381 C 0.78581 0.64456 0.54058 0.0
C382 C 0.71042 0.65712 0.54372 0.0
C383 C 0.62261 0.62057 0.54144 0.0
H384 H 0.54781 0.65858 0.49719 0.0
C385 C 0.43589 0.6076 0.5014 0.0
C386 C 0.4056 0.62235 0.50637 0.0
C387 C 0.48195 0.61057 0.5064 0.0
C388 C 0.56809 0.64792 0.51005 0.0
H389 H 0.78836 0.61513 0.52484 0.0
H390 H 0.70767 0.61096 0.51788 0.0
H391 H 0.62841 0.66326 0.50412 0.0
H392 H 0.40052 0.65189 0.52059 0.0
H393 H 0.48081 0.65698 0.53011 0.0
H394 H 0.56241 0.60523 0.54744 0.0
C395 C 0.72078 0.62461 0.52639 0.0
C396 C 0.6144 0.6506 0.514 0.0
C397 C 0.76714 0.62706 0.52995 0.0
C398 C 0.42273 0.64015 0.5168 0.0
C399 C 0.46889 0.64313 0.52184 0.0
C400 C 0.57634 0.6179 0.53757 0.0
C401 C 0.69176 0.63959 0.53326 0.0
C402 C 0.64232 0.63692 0.52958 0.0
C403 C 0.49915 0.62837 0.51665 0.0
C404 C 0.54842 0.63149 0.52164 0.0
H405 H 0.76993 0.67329 0.55527 0.0
H406 H 0.68915 0.66894 0.54956 0.0
H407 H 0.64292 0.60988 0.55417 0.0
H408 H 0.42404 0.59364 0.49385 0.0
H409 H 0.50412 0.59891 0.50174 0.0
C410 C 0.61862 0.38889 0.53962 0.0
C411 C 0.64859 0.37453 0.53082 0.0
C412 C 0.57248 0.38631 0.53401 0.0
C413 C 0.48557 0.34937 0.52081 0.0
H414 H 0.41133 0.39031 0.48738 0.0
C415 C 0.29682 0.34015 0.4809 0.0
C416 C 0.26792 0.35456 0.49153 0.0
C417 C 0.34323 0.34242 0.48513 0.0
C418 C 0.43147 0.37878 0.4971 0.0
H419 H 0.65294 0.34609 0.50915 0.0
H420 H 0.57256 0.34173 0.4986 0.0
H421 H 0.49191 0.39451 0.49524 0.0
H422 H 0.2656 0.38278 0.51466 0.0
H423 H 0.34633 0.3866 0.52258 0.0
H424 H 0.42503 0.33365 0.52261 0.0
C425 C 0.5848 0.35495 0.51033 0.0
C426 C 0.47779 0.38119 0.50163 0.0
C427 C 0.63102 0.35753 0.51597 0.0
C428 C 0.28673 0.3713 0.50651 0.0
C429 C 0.33312 0.37358 0.51065 0.0
C430 C 0.43923 0.34695 0.51621 0.0
C431 C 0.55486 0.3693 0.51933 0.0
C432 C 0.50551 0.36655 0.51371 0.0
C433 C 0.36203 0.35918 0.50001 0.0
C434 C 0.41151 0.36165 0.50444 0.0
H435 H 0.6308 0.40227 0.55064 0.0
H436 H 0.55059 0.39762 0.54168 0.0
H437 H 0.50567 0.33787 0.53067 0.0
H438 H 0.2836 0.327 0.4696 0.0
H439 H 0.36439 0.33109 0.47632 0.0
C440 C 0.92886 0.89498 1.01374 0.0
C441 C 0.89946 0.88012 0.01893 0.0
C442 C 0.97512 0.89245 0.01725 0.0
C443 C 0.06237 0.85573 0.0165 0.0
H444 H 0.13779 0.89507 0.06113 0.0
C445 C 0.25101 0.84504 0.05131 0.0
C446 C 0.28021 0.85986 0.04529 0.0
C447 C 0.20471 0.84748 0.0479 0.0
C448 C 0.1173 0.88402 0.04821 0.0
H449 H 0.89614 0.85088 0.03195 0.0
H450 H 0.9768 0.84658 0.03888 0.0
H451 H 0.0571 0.89927 0.0563 0.0
H452 H 0.2832 0.88891 0.03097 0.0
H453 H 0.20244 0.89308 0.02445 0.0
H454 H 0.12262 0.84046 1.00851 0.0
C455 C 0.96401 0.86016 0.03159 0.0
C456 C 0.07093 0.88643 0.04544 0.0
C457 C 0.91767 0.86269 0.02805 0.0
C458 C 0.26179 0.87715 0.03553 0.0
C459 C 0.21543 0.87961 0.0322 0.0
C460 C 0.10874 0.85331 0.01932 0.0
C461 C 0.99338 0.875 0.02615 0.0
C462 C 0.04281 0.87233 0.0295 0.0
C463 C 0.18626 0.86481 0.0384 0.0
C464 C 0.13684 0.86743 0.03519 0.0
H465 H 0.91616 0.90867 1.00718 0.0
H466 H 0.99659 0.90416 1.01246 0.0
H467 H 0.04191 0.84469 1.00353 0.0
H468 H 0.26392 0.83146 0.05841 0.0
H469 H 0.18334 0.83583 0.05322 0.0
C470 C 0.11382 0.13255 0.95552 0.0
C471 C 0.14441 0.12935 0.98486 0.0
C472 C 0.06836 0.13513 0.96089 0.0
C473 C 0.98856 0.14699 0.03159 0.0
H474 H 0.90171 0.1244 0.96179 0.0
C475 C 0.79951 0.14437 0.05669 0.0
C476 C 0.76905 0.14738 0.02715 0.0
C477 C 0.84525 0.1424 0.0517 0.0
C478 C 0.92544 0.131 0.98136 0.0
H479 H 0.1507 0.12634 0.04299 0.0
H480 H 0.07151 0.13078 0.05234 0.0
H481 H 0.9811 0.12069 0.95294 0.0
H482 H 0.76345 0.15101 0.96917 0.0
H483 H 0.84299 0.14756 0.96049 0.0
H484 H 0.9328 0.15723 0.06006 0.0
C485 C 0.08278 0.13157 0.02517 0.0
C486 C 0.9711 0.12888 0.97626 0.0
C487 C 0.12829 0.12902 0.0198 0.0
C488 C 0.78569 0.1484 0.99249 0.0
C489 C 0.83142 0.14642 0.9875 0.0
C490 C 0.94287 0.1491 0.0367 0.0
C491 C 0.0521 0.13455 0.99575 0.0
C492 C 1.00335 0.13686 1.00128 0.0
C493 C 0.86187 0.14337 0.01703 0.0
C494 C 0.91065 0.14114 1.01164 0.0
H495 H 0.12505 0.13324 0.92832 0.0
H496 H 0.04599 0.13775 0.93765 0.0
H497 H 1.0123 0.15357 0.05116 0.0
H498 H 0.78794 0.1432 0.08369 0.0
H499 H 0.86751 0.13979 0.07501 0.0
C500 C 0.25949 0.15798 0.54022 0.0
C501 C 0.28857 0.14311 0.53255 0.0
C502 C 0.21312 0.15551 0.5365 0.0
C503 C 0.12548 0.11883 0.53233 0.0
H504 H 0.05048 0.15744 0.49036 0.0
C505 C 0.93855 0.10632 0.49223 0.0
C506 C 0.90832 0.12101 0.49803 0.0
C507 C 0.98464 0.10923 0.49725 0.0
C508 C 0.07081 0.14661 0.50258 0.0
H509 H 0.29126 0.1139 0.51522 0.0
H510 H 0.21058 0.10969 0.50818 0.0
H511 H 0.13107 0.1621 0.49737 0.0
H512 H 0.90339 0.15037 0.51373 0.0
H513 H 0.9837 0.15535 0.52328 0.0
H514 H 0.06534 0.10334 0.53761 0.0
C515 C 0.22363 0.12324 0.5174 0.0
C516 C 0.11712 0.14928 0.50657 0.0
C517 C 0.26998 0.12572 0.52102 0.0
C518 C 0.92555 0.13868 0.50929 0.0
C519 C 0.97171 0.14159 0.51435 0.0
C520 C 0.07921 0.11618 0.52841 0.0
C521 C 0.19454 0.13809 0.52512 0.0
C522 C 0.14511 0.13539 0.52134 0.0
C523 C 1.00192 0.12691 0.50833 0.0
C524 C 0.05121 0.12998 0.51332 0.0
H525 H 0.27255 0.17162 0.54881 0.0
H526 H 0.1918 0.16721 0.54301 0.0
H527 H 0.14585 0.10797 0.54441 0.0
H528 H 0.92664 0.09245 0.48403 0.0
H529 H 1.00675 0.09763 0.49193 0.0
C530 C 0.7901 0.85134 0.52075 0.0
C531 C 0.76827 0.85249 0.48625 0.0
C532 C 0.83652 0.85334 0.52544 0.0
C533 C 0.94049 0.85095 0.47557 0.0
H534 H 0.99087 0.87934 0.55916 0.0
C535 C 0.12809 0.87133 0.49156 0.0
C536 C 0.14927 0.87103 0.52642 0.0
C537 C 0.08185 0.86867 0.4864 0.0
C538 C 0.97749 0.87116 0.53588 0.0
H539 H 0.77861 0.85693 0.42968 0.0
H540 H 0.85943 0.86039 0.43785 0.0
H541 H 0.91025 0.87553 0.55077 0.0
H542 H 0.13832 0.86704 0.58301 0.0
H543 H 0.058 0.8623 0.57403 0.0
H544 H 1.00779 0.84657 0.4607 0.0
C545 C 0.84068 0.85765 0.46125 0.0
C546 C 0.93113 0.86898 0.53106 0.0
C547 C 0.79424 0.85566 0.45656 0.0
C548 C 0.12308 0.86771 0.55587 0.0
C549 C 0.07691 0.86501 0.55071 0.0
C550 C 0.9869 0.8531 0.48042 0.0
C551 C 0.86247 0.85655 0.49576 0.0
C552 C 0.91197 0.85884 0.50085 0.0
C553 C 0.05556 0.86559 0.51594 0.0
C554 C 1.00607 0.86323 0.51067 0.0
H555 H 0.77137 0.8486 0.54416 0.0
H556 H 0.85216 0.85211 0.55232 0.0
H557 H 0.92702 0.84282 0.45225 0.0
H558 H 0.14708 0.87409 0.4683 0.0
H559 H 0.06659 0.86946 0.45929 0.0
C560 C 1.00094 0.56797 0.97081 0.0
C561 C 1.00998 0.58034 1.00059 0.0
C562 C 1.00609 0.54875 0.97443 0.0
C563 C 0.99764 0.51335 0.04121 0.0
H564 H 0.05412 0.48102 0.97126 0.0
C565 C 1.02333 0.43368 0.05829 0.0
C566 C 1.02531 0.4224 0.02673 0.0
C567 C 1.01742 0.45301 0.0559 0.0
C568 C 0.03737 0.48977 0.99069 0.0
H569 H 0.03296 0.58245 0.05716 0.0
H570 H 0.04155 0.54868 0.06356 0.0
H571 H 0.057 0.51472 0.96553 0.0
H572 H 1.01936 0.4218 0.96825 0.0
H573 H 1.00601 0.45523 0.96389 0.0
H574 H 0.9769 0.48843 0.0659 0.0
C575 C 0.03065 0.55393 0.03745 0.0
C576 C 0.03951 0.5091 0.98755 0.0
C577 C 0.02627 0.57322 0.03365 0.0
C578 C 1.01762 0.43032 0.99292 0.0
C579 C 1.01081 0.4495 0.9905 0.0
C580 C 0.99496 0.49396 0.04412 0.0
C581 C 1.01964 0.54152 1.00806 0.0
C582 C 1.01962 0.52107 1.01271 0.0
C583 C 1.01297 0.46123 0.02186 0.0
C584 C 1.0146 0.48191 0.01875 0.0
H585 H 0.98818 0.57311 0.94508 0.0
H586 H 0.99725 0.53947 0.95138 0.0
H587 H 0.98148 0.5223 0.0607 0.0
H588 H 0.03018 0.42783 0.08461 0.0
H589 H 1.01946 0.46156 0.08064 0.0
C590 C 1.00681 0.43248 0.56319 0.0
C591 C 1.01842 0.42016 0.53485 0.0
C592 C 1.01141 0.45173 0.56027 0.0
C593 C 1.01048 0.48647 0.49015 0.0
H594 H 0.0444 0.52094 0.57009 0.0
C595 C 0.04198 0.56494 0.47394 0.0
C596 C 0.03154 0.57755 0.50214 0.0
C597 C 0.03548 0.54581 0.47705 0.0
C598 C 0.03407 0.5115 0.54768 0.0
H599 H 0.04694 0.41827 0.48235 0.0
H600 H 0.05564 0.45201 0.47746 0.0
H601 H 0.04997 0.48737 0.57839 0.0
H602 H 1.00303 0.5802 0.55456 0.0
H603 H 0.99105 0.54662 0.55985 0.0
H604 H 0.99468 0.51059 0.45942 0.0
C605 C 0.04224 0.44673 0.50167 0.0
C606 C 0.03761 0.49227 0.55236 0.0
C607 C 0.03783 0.42741 0.50467 0.0
C608 C 1.01123 0.5708 0.53235 0.0
C609 C 1.00494 0.55158 0.53557 0.0
C610 C 1.00692 0.5057 0.48548 0.0
C611 C 0.02764 0.4591 0.52891 0.0
C612 C 0.026 0.47955 0.52361 0.0
C613 C 1.0185 0.53885 0.5085 0.0
C614 C 1.01881 0.51843 0.51415 0.0
H615 H 0.99191 0.42729 0.58687 0.0
H616 H 0.99976 0.46086 0.5817 0.0
H617 H 1.0003 0.47703 0.46771 0.0
H618 H 0.05751 0.56978 0.45025 0.0
H619 H 0.04641 0.53642 0.45576 0.0
C620 C 0.51614 0.93307 0.05214 0.0
C621 C 0.52368 0.92278 0.02013 0.0
C622 C 0.50831 0.95233 0.05109 0.0
C623 C 0.47618 0.99081 0.99222 0.0
H624 H 0.56629 0.01986 0.04858 0.0
C625 C 0.50213 0.06791 0.96385 0.0
C626 C 0.5101 0.08036 0.99361 0.0
C627 C 0.50478 0.04866 0.9682 0.0
C628 C 0.54041 0.01205 0.03307 0.0
H629 H 0.52624 0.92392 0.96197 0.0
H630 H 0.51054 0.95734 0.95989 0.0
H631 H 0.5613 0.98623 0.05617 0.0
H632 H 0.52879 0.08258 0.05097 0.0
H633 H 0.53233 0.04898 0.05891 0.0
H634 H 0.45465 0.01645 0.96938 0.0
C635 C 0.51113 0.9507 0.98575 0.0
C636 C 0.53754 0.99279 0.03752 0.0
C637 C 0.51999 0.93161 0.9869 0.0
C638 C 0.52315 0.07327 0.02744 0.0
C639 C 0.525 0.05397 0.03197 0.0
C640 C 0.47856 0.01008 0.98816 0.0
C641 C 0.50693 0.96135 0.01793 0.0
C642 C 0.50586 0.98197 0.01671 0.0
C643 C 0.51446 0.04141 1.00261 0.0
C644 C 0.51128 0.02094 1.008 0.0
H645 H 0.51969 0.92654 0.07809 0.0
H646 H 0.50506 0.96029 0.07622 0.0
H647 H 0.45136 0.98275 0.97598 0.0
H648 H 0.49216 0.07306 0.93744 0.0
H649 H 0.49792 0.03946 0.94471 0.0
C650 C 0.51621 0.0695 0.5254 0.0
C651 C 0.53521 0.07633 0.49467 0.0
C652 C 0.51088 0.05024 0.52892 0.0
C653 C 0.56249 0.00651 0.49751 0.0
H654 H 0.46408 0.98259 0.54118 0.0
C655 C 0.53917 0.9263 0.49931 0.0
C656 C 0.51949 0.919 0.52932 0.0
C657 C 0.54422 0.94562 0.49671 0.0
C658 C 0.49216 0.98911 0.52943 0.0
H659 H 0.55946 0.06867 0.44211 0.0
H660 H 0.54919 0.03522 0.44789 0.0
H661 H 0.46133 0.01609 0.53146 0.0
H662 H 0.49347 0.92597 0.58157 0.0
H663 H 0.50335 0.95956 0.57744 0.0
H664 H 0.59338 0.97958 0.49551 0.0
C665 C 0.53972 0.04459 0.46974 0.0
C666 C 0.49042 0.00829 0.52373 0.0
C667 C 0.54521 0.06376 0.4663 0.0
C668 C 0.5083 0.93122 0.55791 0.0
C669 C 0.51355 0.95047 0.55541 0.0
C670 C 0.56426 0.98735 0.50326 0.0
C671 C 0.5243 0.03757 0.5017 0.0
C672 C 0.52547 0.01718 0.50752 0.0
C673 C 0.52992 0.95793 0.52417 0.0
C674 C 0.52909 0.97842 0.51924 0.0
H675 H 0.50854 0.07887 0.5478 0.0
H676 H 0.49887 0.04524 0.55388 0.0
H677 H 0.59051 0.01303 0.48567 0.0
H678 H 0.54779 0.91723 0.47673 0.0
H679 H 0.55688 0.95092 0.47224 0.0
C680 C 0.21404 0.31887 0.04237 0.0
C681 C 0.16775 0.31764 0.04624 0.0
C682 C 0.24061 0.30289 0.0427 0.0
C683 C 0.23505 0.25291 0.02158 0.0
H684 H 0.35137 0.25155 0.07282 0.0
C685 C 0.33985 0.18598 0.02146 0.0
C686 C 0.38638 0.18742 0.01928 0.0
C687 C 0.31391 0.20181 0.02739 0.0
C688 C 0.31925 0.25178 0.05796 0.0
H689 H 0.11321 0.29869 0.05431 0.0
H690 H 0.15983 0.27053 0.05436 0.0
H691 H 0.30395 0.27906 0.07961 0.0
H692 H 0.44223 0.20667 0.02229 0.0
H693 H 0.39654 0.23462 0.03159 0.0
H694 H 0.25051 0.22602 0.99893 0.0
C695 C 0.17536 0.28398 0.0511 0.0
C696 C 0.29198 0.26749 0.06205 0.0
C697 C 0.14874 0.30007 0.05125 0.0
C698 C 0.40648 0.20512 0.0238 0.0
C699 C 0.38027 0.2211 0.02932 0.0
C700 C 0.26243 0.23731 0.01719 0.0
C701 C 0.22153 0.28524 0.04653 0.0
C702 C 0.24959 0.26821 0.04389 0.0
C703 C 0.33353 0.21963 0.03084 0.0
C704 C 0.30487 0.23649 0.03538 0.0
H705 H 0.22987 0.33222 0.03871 0.0
H706 H 0.27595 0.3043 0.0388 0.0
H707 H 0.20295 0.25321 1.00668 0.0
H708 H 0.3232 0.17254 0.01879 0.0
H709 H 0.27832 0.19999 0.02941 0.0
C710 C 0.71181 0.81903 0.03571 0.0
C711 C 0.66574 0.81801 0.04071 0.0
C712 C 0.7384 0.80307 0.03736 0.0
C713 C 0.73274 0.75257 0.02281 0.0
H714 H 0.84989 0.75289 0.0729 0.0
C715 C 0.838 0.68588 0.02963 0.0
C716 C 0.88433 0.68726 0.02633 0.0
C717 C 0.81206 0.70182 0.03428 0.0
C718 C 0.81752 0.75263 0.05839 0.0
H719 H 0.61159 0.79945 0.05196 0.0
H720 H 0.65822 0.77133 0.05432 0.0
H721 H 0.80252 0.78058 0.07655 0.0
H722 H 0.93994 0.70652 0.0261 0.0
H723 H 0.89425 0.73464 0.03313 0.0
H724 H 0.74788 0.72498 1.0036 0.0
C725 C 0.67357 0.78459 0.04916 0.0
C726 C 0.79029 0.76845 0.06068 0.0
C727 C 0.64694 0.80067 0.04797 0.0
C728 C 0.90433 0.70503 0.02856 0.0
C729 C 0.87812 0.72111 0.03276 0.0
C730 C 0.76006 0.73685 0.02021 0.0
C731 C 0.71954 0.78564 0.04368 0.0
C732 C 0.74762 0.76858 0.04289 0.0
C733 C 0.83152 0.71969 0.03525 0.0
C734 C 0.80281 0.73662 0.03802 0.0
H735 H 0.7275 0.83219 0.03031 0.0
H736 H 0.77358 0.8043 0.03269 0.0
H737 H 0.70039 0.75238 1.00826 0.0
H738 H 0.82151 0.6724 0.02872 0.0
H739 H 0.7766 0.70009 0.03713 0.0
C740 C 0.2154 0.68187 0.52385 0.0
C741 C 0.16859 0.68322 0.52371 0.0
C742 C 0.2417 0.69776 0.52166 0.0
C743 C 0.24233 0.74906 0.5334 0.0
H744 H 0.34064 0.74551 0.46968 0.0
C745 C 0.34013 0.81391 0.4982 0.0
C746 C 0.38699 0.8127 0.49942 0.0
C747 C 0.31395 0.79794 0.49951 0.0
C748 C 0.31365 0.74666 0.48785 0.0
H749 H 0.11283 0.70245 0.52242 0.0
H750 H 0.15908 0.73044 0.51833 0.0
H751 H 0.29307 0.71837 0.47642 0.0
H752 H 0.44305 0.79364 0.50132 0.0
H753 H 0.39696 0.76545 0.50379 0.0
H754 H 0.26288 0.77734 0.54482 0.0
C755 C 0.17528 0.71697 0.52034 0.0
C756 C 0.28634 0.73113 0.49174 0.0
C757 C 0.14877 0.70097 0.52267 0.0
C758 C 0.40706 0.79499 0.50027 0.0
C759 C 0.38066 0.77889 0.50171 0.0
C760 C 0.2696 0.76459 0.52949 0.0
C761 C 0.22201 0.71547 0.51913 0.0
C762 C 0.25041 0.73214 0.51462 0.0
C763 C 0.33383 0.78028 0.5022 0.0
C764 C 0.30551 0.76358 0.50661 0.0
H765 H 0.23197 0.66845 0.52518 0.0
H766 H 0.2776 0.69614 0.52175 0.0
H767 H 0.2154 0.75022 0.55163 0.0
H768 H 0.32344 0.82731 0.49692 0.0
H769 H 0.27799 0.79946 0.49884 0.0
C770 C 0.84079 0.31445 0.50932 0.0
C771 C 0.8873 0.31353 0.50618 0.0
C772 C 0.81504 0.29826 0.50855 0.0
C773 C 0.82251 0.24829 0.52603 0.0
H774 H 0.70422 0.24673 0.47786 0.0
C775 C 0.71728 0.1811 0.5111 0.0
C776 C 0.67095 0.18229 0.51509 0.0
C777 C 0.74338 0.19715 0.51061 0.0
C778 C 0.73691 0.24705 0.49186 0.0
H779 H 0.94297 0.29477 0.49877 0.0
H780 H 0.89756 0.26623 0.49719 0.0
H781 H 0.75152 0.27411 0.47277 0.0
H782 H 0.61597 0.20143 0.52242 0.0
H783 H 0.662 0.22971 0.52181 0.0
H784 H 0.80788 0.22125 0.54517 0.0
C785 C 0.88133 0.27963 0.50065 0.0
C786 C 0.76413 0.26269 0.4888 0.0
C787 C 0.90729 0.29595 0.50129 0.0
C788 C 0.6515 0.20003 0.51929 0.0
C789 C 0.6778 0.2162 0.51868 0.0
C790 C 0.7953 0.23265 0.52907 0.0
C791 C 0.83494 0.28064 0.50459 0.0
C792 C 0.80719 0.26352 0.50596 0.0
C793 C 0.72402 0.21489 0.51412 0.0
C794 C 0.75217 0.23185 0.51205 0.0
H795 H 0.82401 0.32773 0.51294 0.0
H796 H 0.77958 0.29957 0.51214 0.0
H797 H 0.85515 0.24863 0.54011 0.0
H798 H 0.73366 0.1677 0.5079 0.0
H799 H 0.77869 0.19562 0.50657 0.0
C800 C 0.08368 0.36272 0.15449 0.0
C801 C 0.09486 0.37958 0.13892 0.0
C802 C 0.06742 0.3627 0.18923 0.0
C803 C 1.01 0.39215 0.25558 0.0
H804 H 0.05712 0.35697 0.32511 0.0
C805 C 0.95859 0.39482 0.40448 0.0
C806 C 0.95501 0.37786 0.42197 0.0
C807 C 0.9762 0.39529 0.37023 0.0
C808 C 0.04296 0.36672 0.30596 0.0
H809 H 0.09733 0.40966 0.14733 0.0
H810 H 0.06843 0.40966 0.20787 0.0
H811 H 0.08608 0.35711 0.26496 0.0
H812 H 0.96663 0.34805 0.41723 0.0
H813 H 0.9958 0.34869 0.35722 0.0
H814 H 0.96608 0.40149 0.29602 0.0
C815 C 0.07238 0.39645 0.19327 0.0
C816 C 0.0598 0.36683 0.27144 0.0
C817 C 0.08919 0.39644 0.15871 0.0
C818 C 0.9691 0.36136 0.40445 0.0
C819 C 0.98624 0.36178 0.37009 0.0
C820 C 0.99274 0.3919 0.28996 0.0
C821 C 0.06139 0.37957 0.209 0.0
C822 C 0.04356 0.37954 0.24582 0.0
C823 C 0.99026 0.37876 0.35244 0.0
C824 C 1.00893 0.37917 0.31573 0.0
H825 H 0.0875 0.34951 0.13981 0.0
H826 H 0.05886 0.34948 0.2004 0.0
H827 H 0.99639 0.40198 0.23633 0.0
H828 H 0.94834 0.40779 0.41748 0.0
H829 H 0.97938 0.4087 0.35799 0.0
C830 C 0.97095 0.64128 0.12533 0.0
C831 C 0.95671 0.62437 0.10809 0.0
C832 C 0.98645 0.64182 0.16166 0.0
C833 C 0.03547 0.61464 0.23552 0.0
H834 H 0.97669 0.65071 0.29707 0.0
C835 C 0.06151 0.6178 0.39341 0.0
C836 C 0.0557 0.6352 0.41112 0.0
C837 C 0.0543 0.61591 0.35561 0.0
C838 C 0.99434 0.64081 0.28036 0.0
H839 H 0.94921 0.59462 0.11477 0.0
H840 H 0.9772 0.59553 0.17848 0.0
H841 H 0.95557 0.64844 0.23289 0.0
H842 H 0.04117 0.66443 0.40367 0.0
H843 H 0.03184 0.66155 0.33814 0.0
H844 H 0.07512 0.6073 0.28292 0.0
C845 C 0.97592 0.60836 0.16383 0.0
C846 C 0.98183 0.63944 0.24349 0.0
C847 C 0.95967 0.60787 0.12754 0.0
C848 C 0.04563 0.65084 0.39053 0.0
C849 C 0.03961 0.64909 0.35295 0.0
C850 C 0.04864 0.61623 0.27251 0.0
C851 C 0.98876 0.62541 0.18139 0.0
C852 C 1.00229 0.62641 0.22063 0.0
C853 C 0.04186 0.63148 0.33497 0.0
C854 C 0.02843 0.62945 0.29545 0.0
H855 H 0.9693 0.6542 0.11094 0.0
H856 H 0.99647 0.65512 0.17444 0.0
H857 H 0.05184 0.60449 0.21841 0.0
H858 H 0.06868 0.6055 0.40889 0.0
H859 H 0.05623 0.60211 0.34292 0.0
C860 C 0.98352 0.62102 0.88893 0.0
C861 C 0.98896 0.63868 0.90628 0.0
C862 C 0.99144 0.61858 0.85198 0.0
C863 C 0.05365 0.64229 0.7819 0.0
H864 H 0.99802 0.60487 0.71587 0.0
C865 C 0.08362 0.63986 0.62972 0.0
C866 C 0.09578 0.62248 0.61447 0.0
C867 C 0.06755 0.64115 0.66443 0.0
C868 C 1.01395 0.61531 0.73414 0.0
H869 H 1.00372 0.66777 0.89865 0.0
H870 H 1.01429 0.66392 0.83423 0.0
H871 H 0.97262 0.60878 0.77745 0.0
H872 H 0.09941 0.59275 0.62314 0.0
H873 H 0.07065 0.595 0.68398 0.0
H874 H 0.09427 0.64906 0.7385 0.0
C875 C 1.00611 0.65169 0.84894 0.0
C876 C 0.9995 0.61754 0.76948 0.0
C877 C 0.99931 0.65401 0.88579 0.0
C878 C 0.09056 0.60634 0.63436 0.0
C879 C 0.07383 0.60761 0.66901 0.0
C880 C 0.06752 0.64024 0.74661 0.0
C881 C 1.00435 0.63382 0.83175 0.0
C882 C 1.01899 0.63118 0.79385 0.0
C883 C 0.0627 0.62508 0.68459 0.0
C884 C 0.0478 0.6268 0.72225 0.0
H885 H 0.97635 0.60892 0.90438 0.0
H886 H 0.98986 0.60458 0.83992 0.0
H887 H 0.07075 0.6525 0.79996 0.0
H888 H 0.08703 0.65253 0.61495 0.0
H889 H 0.05886 0.65478 0.67555 0.0
C890 C 0.98538 0.37443 0.64241 0.0
C891 C 1.00417 0.35947 0.62302 0.0
C892 C 0.99148 0.3758 0.68039 0.0
C893 C 0.06604 0.35687 0.75527 0.0
H894 H 0.97863 0.37812 0.81795 0.0
C895 C 0.06729 0.3451 0.90881 0.0
C896 C 0.06493 0.36112 0.93157 0.0
C897 C 0.06089 0.34635 0.87126 0.0
C898 C 1.00344 0.37229 0.80065 0.0
H899 H 0.04137 0.3337 0.6279 0.0
H900 H 0.04963 0.3354 0.69334 0.0
H901 H 0.96308 0.37713 0.75224 0.0
H902 H 0.0539 0.39105 0.93299 0.0
H903 H 0.04143 0.39315 0.86711 0.0
H904 H 0.10539 0.3513 0.8038 0.0
C905 C 0.03221 0.34664 0.67981 0.0
C906 C 0.99466 0.37177 0.76297 0.0
C907 C 0.02698 0.34551 0.64216 0.0
C908 C 0.05622 0.37849 0.91604 0.0
C909 C 0.04876 0.37968 0.87845 0.0
C910 C 0.07433 0.35707 0.79278 0.0
C911 C 1.01589 0.36208 0.69956 0.0
C912 C 0.02559 0.36377 0.73971 0.0
C913 C 0.051 0.3636 0.85573 0.0
C914 C 0.043 0.3646 0.81588 0.0
H915 H 0.96787 0.38544 0.6282 0.0
H916 H 0.97844 0.38793 0.69449 0.0
H917 H 0.09152 0.35119 0.73849 0.0
H918 H 0.07382 0.33155 0.92008 0.0
H919 H 0.06266 0.33374 0.85436 0.0
C920 C 0.58251 0.863 0.14757 0.0
C921 C 0.59377 0.87989 0.1322 0.0
C922 C 0.56612 0.86289 0.18223 0.0
C923 C 0.55623 0.89264 0.26661 0.0
H924 H 0.46781 0.85554 0.28695 0.0
C925 C 0.4591 0.8944 0.39839 0.0
C926 C 0.45558 0.87734 0.41564 0.0
C927 C 0.47625 0.89498 0.36399 0.0
C928 C 0.49273 0.86591 0.28178 0.0
H929 H 0.59624 0.90994 0.14085 0.0
H930 H 0.56648 0.90988 0.20086 0.0
H931 H 0.49648 0.8562 0.22678 0.0
H932 H 0.46726 0.84754 0.41048 0.0
H933 H 0.49651 0.8485 0.35026 0.0
H934 H 0.55143 0.90256 0.32163 0.0
C935 C 0.57135 0.89661 0.1867 0.0
C936 C 0.50941 0.86626 0.24724 0.0
C937 C 0.58822 0.89669 0.15216 0.0
C938 C 0.4694 0.86088 0.39778 0.0
C939 C 0.486 0.86142 0.36324 0.0
C940 C 0.5391 0.89242 0.30105 0.0
C941 C 0.55998 0.8797 0.2023 0.0
C942 C 0.54165 0.87955 0.23913 0.0
C943 C 0.48968 0.87848 0.34592 0.0
C944 C 0.50734 0.87898 0.30911 0.0
H945 H 0.58653 0.84982 0.13284 0.0
H946 H 0.55867 0.84954 0.19337 0.0
H947 H 0.5815 0.90291 0.2618 0.0
H948 H 0.44888 0.90732 0.41158 0.0
H949 H 0.4784 0.90832 0.35129 0.0
C950 C 0.47249 0.14115 0.11709 0.0
C951 C 0.45828 0.12431 0.09955 0.0
C952 C 0.4879 0.14153 0.15344 0.0
C953 C 0.53674 0.11401 0.22692 0.0
H954 H 0.4782 0.14993 0.28893 0.0
C955 C 0.56319 0.11673 0.38485 0.0
C956 C 0.55754 0.13409 0.40274 0.0
C957 C 0.55579 0.11493 0.34704 0.0
C958 C 0.49579 0.14007 0.27209 0.0
H959 H 0.45079 0.09452 0.10573 0.0
H960 H 0.47863 0.09515 0.16947 0.0
H961 H 0.45706 0.1479 0.22473 0.0
H962 H 0.54308 0.16334 0.39558 0.0
H963 H 0.53345 0.16062 0.33005 0.0
H964 H 0.57636 0.10647 0.27422 0.0
C965 C 0.47737 0.10806 0.15505 0.0
C966 C 0.48327 0.13883 0.23522 0.0
C967 C 0.4612 0.10772 0.11873 0.0
C968 C 0.54743 0.14978 0.38231 0.0
C969 C 0.54123 0.14812 0.34472 0.0
C970 C 0.54993 0.11546 0.26393 0.0
C971 C 0.49017 0.12503 0.17291 0.0
C972 C 0.50366 0.12587 0.21218 0.0
C973 C 0.54333 0.13055 0.32657 0.0
C974 C 0.52981 0.12863 0.28704 0.0
H975 H 0.47088 0.15413 0.10292 0.0
H976 H 0.4979 0.15479 0.16644 0.0
H977 H 0.55307 0.1039 0.20968 0.0
H978 H 0.57038 0.10438 0.4002 0.0
H979 H 0.55763 0.10115 0.33423 0.0
C980 C 0.5033 0.15414 0.87754 0.0
C981 C 0.49195 0.13894 0.89799 0.0
C982 C 0.51036 0.15172 0.84074 0.0
C983 C 0.50273 0.11751 0.76132 0.0
H984 H 0.59866 0.14841 0.73037 0.0
C985 C 0.59378 0.10569 0.62624 0.0
C986 C 0.5992 0.12178 0.60626 0.0
C987 C 0.57715 0.10706 0.66093 0.0
C988 C 0.5716 0.13976 0.73849 0.0
H989 H 0.47787 0.1093 0.89606 0.0
H990 H 0.49184 0.10476 0.83172 0.0
H991 H 0.57512 0.15206 0.7918 0.0
H992 H 0.59095 0.15185 0.60662 0.0
H993 H 0.56303 0.15428 0.6673 0.0
H994 H 0.50097 0.10478 0.70774 0.0
C995 C 0.49401 0.11875 0.84375 0.0
C996 C 0.55771 0.14193 0.77376 0.0
C997 C 0.48583 0.12131 0.88064 0.0
C998 C 0.58739 0.13921 0.62146 0.0
C999 C 0.57145 0.14061 0.65621 0.0
C1000 C 0.51721 0.11514 0.72601 0.0
C1001 C 0.50787 0.13386 0.82356 0.0
C1002 C 0.52261 0.13105 0.78569 0.0
C1003 C 0.56635 0.12458 0.67646 0.0
C1004 C 0.55148 0.12641 0.71413 0.0
H1005 H 0.50824 0.16788 0.89038 0.0
H1006 H 0.51926 0.16386 0.82607 0.0
H1007 H 0.4755 0.10892 0.76925 0.0
H1008 H 0.60235 0.09206 0.61507 0.0
H1009 H 0.57375 0.09448 0.67597 0.0
C1010 C 0.52571 0.8444 0.63587 0.0
C1011 C 0.50327 0.85838 0.61653 0.0
C1012 C 0.53074 0.84561 0.67352 0.0
C1013 C 0.49325 0.87113 0.75627 0.0
H1014 H 0.60359 0.85056 0.79762 0.0
C1015 C 0.55444 0.87839 0.90931 0.0
C1016 C 0.56288 0.86109 0.92514 0.0
C1017 C 0.54711 0.87943 0.87169 0.0
C1018 C 0.57265 0.85636 0.78645 0.0
H1019 H 0.4674 0.88447 0.62133 0.0
H1020 H 0.47763 0.88712 0.68761 0.0
H1021 H 0.58991 0.85019 0.73228 0.0
H1022 H 0.57146 0.83145 0.91417 0.0
H1023 H 0.56052 0.83336 0.84838 0.0
H1024 H 0.47716 0.87776 0.81112 0.0
C1025 C 0.49052 0.8749 0.67368 0.0
C1026 C 0.56445 0.85601 0.74892 0.0
C1027 C 0.48461 0.87344 0.6357 0.0
C1028 C 0.56512 0.84496 0.90265 0.0
C1029 C 0.55886 0.84605 0.86508 0.0
C1030 C 0.50193 0.87179 0.79396 0.0
C1031 C 0.51458 0.86116 0.69306 0.0
C1032 C 0.52416 0.86296 0.73319 0.0
C1033 C 0.54923 0.86325 0.84924 0.0
C1034 C 0.54135 0.86408 0.80937 0.0
H1035 H 0.53999 0.83251 0.62177 0.0
H1036 H 0.54788 0.83435 0.68723 0.0
H1037 H 0.46178 0.87653 0.74539 0.0
H1038 H 0.55221 0.89104 0.92606 0.0
H1039 H 0.53999 0.89285 0.8601 0.0
loop_
_geom_bond_atom_site_label_1
_geom_bond_atom_site_label_2
_geom_bond_distance
_geom_bond_site_symmetry_2
_ccdc_geom_bond_type
Nd0 C2 2.836 . S
Nd0 O20 2.500 1_554 S
Nd0 O21 2.492 . S
Nd0 O22 2.487 . S
Nd0 O23 2.682 . S
Nd0 O24 2.410 . S
Nd0 O29 2.414 1_554 S
Nd0 O31 2.424 . S
Nd1 C11 2.836 1_455 S
Nd1 O23 2.414 1_556 S
Nd1 O25 2.424 . S
Nd1 O26 2.500 1_456 S
Nd1 O27 2.492 1_455 S
Nd1 O28 2.487 . S
Nd1 O29 2.682 . S
Nd1 O30 2.411 . S
C2 Nd0 2.836 . S
C2 C3 1.498 . S
C2 O20 1.258 1_554 S
C2 O21 1.239 . S
C3 C2 1.498 . S
C3 C4 1.366 1_554 S
C3 C8 1.407 . S
C4 C3 1.366 1_556 S
C4 C5 1.392 . S
C4 H32 0.930 . S
C5 C4 1.392 . S
C5 C6 1.408 . S
C5 H33 0.929 . S
C6 C5 1.408 . S
C6 C7 1.341 1_556 S
C7 C6 1.341 1_554 S
C7 C8 1.384 . S
C7 H34 0.930 . S
C8 C3 1.407 . S
C8 C7 1.384 . S
C8 H35 0.929 . S
C9 O22 1.241 . S
C9 O23 1.273 . S
C10 O24 1.251 1_556 S
C10 O25 1.268 . S
C11 Nd1 2.836 1_655 S
C11 C12 1.500 . S
C11 O26 1.258 1_556 S
C11 O27 1.239 . S
C12 C11 1.500 . S
C12 C13 1.344 1_556 S
C12 C17 1.429 . S
C13 C12 1.344 1_554 S
C13 C14 1.392 . S
C13 H36 0.930 . S
C14 C13 1.392 . S
C14 C15 1.398 . S
C14 H37 0.929 . S
C15 C14 1.398 . S
C15 C16 1.352 1_554 S
C16 C15 1.352 1_556 S
C16 C17 1.384 . S
C16 H38 0.930 . S
C17 C12 1.429 . S
C17 C16 1.384 . S
C17 H39 0.929 . S
C18 O28 1.241 . S
C18 O29 1.273 . S
C19 O30 1.260 1_554 S
C19 O31 1.268 . S
O20 Nd0 2.500 1_556 S
O20 C2 1.258 1_556 S
O21 Nd0 2.492 . S
O21 C2 1.239 . S
O22 Nd0 2.487 . S
O22 C9 1.241 . S
O23 Nd0 2.682 . S
O23 Nd1 2.414 1_554 S
O23 C9 1.273 . S
O24 Nd0 2.410 . S
O24 C10 1.251 1_554 S
O25 Nd1 2.424 . S
O25 C10 1.268 . S
O26 Nd1 2.500 1_654 S
O26 C11 1.258 1_554 S
O27 Nd1 2.492 1_655 S
O27 C11 1.239 . S
O28 Nd1 2.487 . S
O28 C18 1.241 . S
O29 Nd0 2.414 1_556 S
O29 Nd1 2.682 . S
O29 C18 1.273 . S
O30 Nd1 2.411 . S
O30 C19 1.260 1_556 S
O31 Nd0 2.424 . S
O31 C19 1.268 . S
H32 C4 0.930 . S
H33 C5 0.929 . S
H34 C7 0.930 . S
H35 C8 0.929 . S
H36 C13 0.930 . S
H37 C14 0.929 . S
H38 C16 0.930 . S
H39 C17 0.929 . S
Nd40 C42 2.836 1_554 S
Nd40 O60 2.500 1_554 S
Nd40 O61 2.492 . S
Nd40 O62 2.487 . S
Nd40 O63 2.682 . S
Nd40 O64 2.410 . S
Nd40 O69 2.414 1_554 S
Nd40 O71 2.424 . S
Nd41 C51 2.836 1_656 S
Nd41 O63 2.414 1_556 S
Nd41 O65 2.424 . S
Nd41 O66 2.500 1_656 S
Nd41 O67 2.492 1_655 S
Nd41 O68 2.487 . S
Nd41 O69 2.682 . S
Nd41 O70 2.410 . S
C42 Nd40 2.836 1_556 S
C42 C43 1.498 . S
C42 O60 1.258 . S
C42 O61 1.239 1_556 S
C43 C42 1.498 . S
C43 C44 1.366 . S
C43 C48 1.407 1_556 S
C44 C43 1.366 . S
C44 C45 1.392 . S
C44 H72 0.930 . S
C45 C44 1.392 . S
C45 C46 1.398 . S
C45 H73 0.929 . S
C46 C45 1.398 . S
C46 C47 1.352 1_556 S
C47 C46 1.352 1_554 S
C47 C48 1.384 . S
C47 H74 0.930 . S
C48 C43 1.407 1_554 S
C48 C47 1.384 . S
C48 H75 0.929 . S
C49 O62 1.241 . S
C49 O63 1.273 . S
C50 O64 1.251 . S
C50 O65 1.264 1_554 S
C51 Nd41 2.836 1_454 S
C51 C52 1.498 . S
C51 O66 1.258 . S
C51 O67 1.239 1_554 S
C52 C51 1.498 . S
C52 C53 1.366 . S
C52 C57 1.407 1_554 S
C53 C52 1.366 . S
C53 C54 1.392 . S
C53 H76 0.930 . S
C54 C53 1.392 . S
C54 C55 1.398 . S
C54 H77 0.929 . S
C55 C54 1.398 . S
C55 C56 1.352 1_554 S
C56 C55 1.352 1_556 S
C56 C57 1.384 . S
C56 H78 0.930 . S
C57 C52 1.407 1_556 S
C57 C56 1.384 . S
C57 H79 0.929 . S
C58 O68 1.241 . S
C58 O69 1.273 . S
C59 O70 1.246 1_554 S
C59 O71 1.270 . S
O60 Nd40 2.500 1_556 S
O60 C42 1.258 . S
O61 Nd40 2.492 . S
O61 C42 1.239 1_554 S
O62 Nd40 2.487 . S
O62 C49 1.241 . S
O63 Nd40 2.682 . S
O63 Nd41 2.414 1_554 S
O63 C49 1.273 . S
O64 Nd40 2.410 . S
O64 C50 1.251 . S
O65 Nd41 2.424 . S
O65 C50 1.264 1_556 S
O66 Nd41 2.500 1_454 S
O66 C51 1.258 . S
O67 Nd41 2.492 1_455 S
O67 C51 1.239 1_556 S
O68 Nd41 2.487 . S
O68 C58 1.241 . S
O69 Nd40 2.414 1_556 S
O69 Nd41 2.682 . S
O69 C58 1.273 . S
O70 Nd41 2.410 . S
O70 C59 1.246 1_556 S
O71 Nd40 2.424 . S
O71 C59 1.270 . S
H72 C44 0.930 . S
H73 C45 0.929 . S
H74 C47 0.930 . S
H75 C48 0.929 . S
H76 C53 0.930 . S
H77 C54 0.929 . S
H78 C56 0.930 . S
H79 C57 0.929 . S
Nd80 C82 2.836 1_455 S
Nd80 O100 2.500 1_455 S
Nd80 O101 2.492 1_455 S
Nd80 O102 2.487 . S
Nd80 O103 2.682 . S
Nd80 O104 2.410 . S
Nd80 O109 2.414 . S
Nd80 O111 2.424 . S
Nd81 C91 2.836 . S
Nd81 O103 2.414 . S
Nd81 O105 2.424 . S
Nd81 O106 2.500 . S
Nd81 O107 2.492 . S
Nd81 O108 2.487 . S
Nd81 O109 2.682 . S
Nd81 O110 2.410 . S
C82 Nd80 2.836 1_655 S
C82 C83 1.498 . S
C82 O100 1.258 . S
C82 O101 1.239 . S
C83 C82 1.498 . S
C83 C84 1.366 . S
C83 C88 1.407 . S
C84 C83 1.366 . S
C84 C85 1.392 . S
C84 H112 0.930 . S
C85 C84 1.392 . S
C85 C86 1.398 . S
C85 H113 0.929 . S
C86 C85 1.398 . S
C86 C87 1.352 . S
C87 C86 1.352 . S
C87 C88 1.384 . S
C87 H114 0.930 . S
C88 C83 1.407 . S
C88 C87 1.384 . S
C88 H115 0.929 . S
C89 O102 1.241 . S
C89 O103 1.273 . S
C90 O104 1.258 . S
C90 O105 1.268 . S
C91 Nd81 2.836 . S
C91 C92 1.498 . S
C91 O106 1.258 . S
C91 O107 1.239 . S
C92 C91 1.498 . S
C92 C93 1.366 . S
C92 C97 1.407 . S
C93 C92 1.366 . S
C93 C94 1.392 . S
C93 H116 0.930 . S
C94 C93 1.392 . S
C94 C95 1.398 . S
C94 H117 0.929 . S
C95 C94 1.398 . S
C95 C96 1.352 . S
C96 C95 1.352 . S
C96 C97 1.384 . S
C96 H118 0.930 . S
C97 C92 1.407 . S
C97 C96 1.384 . S
C97 H119 0.929 . S
C98 O108 1.241 . S
C98 O109 1.273 . S
C99 O110 1.251 . S
C99 O111 1.268 . S
O100 Nd80 2.500 1_655 S
O100 C82 1.258 . S
O101 Nd80 2.492 1_655 S
O101 C82 1.239 . S
O102 Nd80 2.487 . S
O102 C89 1.241 . S
O103 Nd80 2.682 . S
O103 Nd81 2.414 . S
O103 C89 1.273 . S
O104 Nd80 2.410 . S
O104 C90 1.258 . S
O105 Nd81 2.424 . S
O105 C90 1.268 . S
O106 Nd81 2.500 . S
O106 C91 1.258 . S
O107 Nd81 2.492 . S
O107 C91 1.239 . S
O108 Nd81 2.487 . S
O108 C98 1.241 . S
O109 Nd80 2.414 . S
O109 Nd81 2.682 . S
O109 C98 1.273 . S
O110 Nd81 2.410 . S
O110 C99 1.251 . S
O111 Nd80 2.424 . S
O111 C99 1.268 . S
H112 C84 0.930 . S
H113 C85 0.929 . S
H114 C87 0.930 . S
H115 C88 0.929 . S
H116 C93 0.930 . S
H117 C94 0.929 . S
H118 C96 0.930 . S
H119 C97 0.929 . S
Nd120 C122 2.836 . S
Nd120 O140 2.500 . S
Nd120 O141 2.492 . S
Nd120 O142 2.487 . S
Nd120 O143 2.682 . S
Nd120 O144 2.410 . S
Nd120 O149 2.414 . S
Nd120 O151 2.424 . S
Nd121 C131 2.836 1_655 S
Nd121 O143 2.414 . S
Nd121 O145 2.424 . S
Nd121 O146 2.500 1_655 S
Nd121 O147 2.492 1_655 S
Nd121 O148 2.487 . S
Nd121 O149 2.682 . S
Nd121 O150 2.410 . S
C122 Nd120 2.836 . S
C122 C123 1.498 . S
C122 O140 1.258 . S
C122 O141 1.239 . S
C123 C122 1.498 . S
C123 C124 1.366 . S
C123 C128 1.407 . S
C124 C123 1.366 . S
C124 C125 1.392 . S
C124 H152 0.930 . S
C125 C124 1.392 . S
C125 C126 1.398 . S
C125 H153 0.929 . S
C126 C125 1.398 . S
C126 C127 1.352 . S
C127 C126 1.352 . S
C127 C128 1.384 . S
C127 H154 0.930 . S
C128 C123 1.407 . S
C128 C127 1.384 . S
C128 H155 0.929 . S
C129 O142 1.241 . S
C129 O143 1.273 . S
C130 O144 1.251 . S
C130 O145 1.268 . S
C131 Nd121 2.836 1_455 S
C131 C132 1.498 . S
C131 O146 1.258 . S
C131 O147 1.239 . S
C132 C131 1.498 . S
C132 C133 1.366 . S
C132 C137 1.407 . S
C133 C132 1.366 . S
C133 C134 1.392 . S
C133 H156 0.930 . S
C134 C133 1.392 . S
C134 C135 1.398 . S
C134 H157 0.929 . S
C135 C134 1.398 . S
C135 C136 1.352 . S
C136 C135 1.352 . S
C136 C137 1.384 . S
C136 H158 0.930 . S
C137 C132 1.407 . S
C137 C136 1.384 . S
C137 H159 0.929 . S
C138 O148 1.241 . S
C138 O149 1.273 . S
C139 O150 1.258 . S
C139 O151 1.268 . S
O140 Nd120 2.500 . S
O140 C122 1.258 . S
O141 Nd120 2.492 . S
O141 C122 1.239 . S
O142 Nd120 2.487 . S
O142 C129 1.241 . S
O143 Nd120 2.682 . S
O143 Nd121 2.414 . S
O143 C129 1.273 . S
O144 Nd120 2.410 . S
O144 C130 1.251 . S
O145 Nd121 2.424 . S
O145 C130 1.268 . S
O146 Nd121 2.500 1_455 S
O146 C131 1.258 . S
O147 Nd121 2.492 1_455 S
O147 C131 1.239 . S
O148 Nd121 2.487 . S
O148 C138 1.241 . S
O149 Nd120 2.414 . S
O149 Nd121 2.682 . S
O149 C138 1.273 . S
O150 Nd121 2.410 . S
O150 C139 1.258 . S
O151 Nd120 2.424 . S
O151 C139 1.268 . S
H152 C124 0.930 . S
H153 C125 0.929 . S
H154 C127 0.930 . S
H155 C128 0.929 . S
H156 C133 0.930 . S
H157 C134 0.929 . S
H158 C136 0.930 . S
H159 C137 0.929 . S
Nd160 C162 2.836 . S
Nd160 O180 2.500 1_554 S
Nd160 O181 2.492 . S
Nd160 O182 2.487 . S
Nd160 O183 2.682 . S
Nd160 O184 2.410 . S
Nd160 O189 2.414 1_554 S
Nd160 O191 2.424 . S
Nd161 C171 2.836 . S
Nd161 O183 2.414 1_556 S
Nd161 O185 2.424 . S
Nd161 O186 2.500 1_556 S
Nd161 O187 2.492 . S
Nd161 O188 2.487 . S
Nd161 O189 2.682 . S
Nd161 O190 2.410 . S
C162 Nd160 2.836 . S
C162 C163 1.498 . S
C162 O180 1.258 1_554 S
C162 O181 1.239 . S
C163 C162 1.498 . S
C163 C164 1.366 1_554 S
C163 C168 1.407 . S
C164 C163 1.366 1_556 S
C164 C165 1.392 . S
C164 H192 0.930 . S
C165 C164 1.392 . S
C165 C166 1.408 . S
C165 H193 0.929 . S
C166 C165 1.408 . S
C166 C167 1.341 1_556 S
C167 C166 1.341 1_554 S
C167 C168 1.384 . S
C167 H194 0.930 . S
C168 C163 1.407 . S
C168 C167 1.384 . S
C168 H195 0.929 . S
C169 O182 1.241 . S
C169 O183 1.273 . S
C170 O184 1.251 1_556 S
C170 O185 1.268 . S
C171 Nd161 2.836 . S
C171 C172 1.500 . S
C171 O186 1.258 1_556 S
C171 O187 1.239 . S
C172 C171 1.500 . S
C172 C173 1.344 1_556 S
C172 C177 1.429 . S
C173 C172 1.344 1_554 S
C173 C174 1.392 . S
C173 H196 0.930 . S
C174 C173 1.392 . S
C174 C175 1.398 . S
C174 H197 0.929 . S
C175 C174 1.398 . S
C175 C176 1.352 1_554 S
C176 C175 1.352 1_556 S
C176 C177 1.384 . S
C176 H198 0.930 . S
C177 C172 1.429 . S
C177 C176 1.384 . S
C177 H199 0.929 . S
C178 O188 1.241 . S
C178 O189 1.273 . S
C179 O190 1.251 1_554 S
C179 O191 1.268 . S
O180 Nd160 2.500 1_556 S
O180 C162 1.258 1_556 S
O181 Nd160 2.492 . S
O181 C162 1.239 . S
O182 Nd160 2.487 . S
O182 C169 1.241 . S
O183 Nd160 2.682 . S
O183 Nd161 2.414 1_554 S
O183 C169 1.273 . S
O184 Nd160 2.410 . S
O184 C170 1.251 1_554 S
O185 Nd161 2.424 . S
O185 C170 1.268 . S
O186 Nd161 2.500 1_554 S
O186 C171 1.258 1_554 S
O187 Nd161 2.492 . S
O187 C171 1.239 . S
O188 Nd161 2.487 . S
O188 C178 1.241 . S
O189 Nd160 2.414 1_556 S
O189 Nd161 2.682 . S
O189 C178 1.273 . S
O190 Nd161 2.410 . S
O190 C179 1.251 1_556 S
O191 Nd160 2.424 . S
O191 C179 1.268 . S
H192 C164 0.930 . S
H193 C165 0.929 . S
H194 C167 0.930 . S
H195 C168 0.929 . S
H196 C173 0.930 . S
H197 C174 0.929 . S
H198 C176 0.930 . S
H199 C177 0.929 . S
Nd200 C202 2.836 1_554 S
Nd200 O220 2.500 1_554 S
Nd200 O221 2.492 . S
Nd200 O222 2.487 . S
Nd200 O223 2.682 . S
Nd200 O224 2.410 . S
Nd200 O229 2.414 1_554 S
Nd200 O231 2.424 . S
Nd201 C211 2.836 1_556 S
Nd201 O223 2.414 1_556 S
Nd201 O225 2.424 . S
Nd201 O226 2.500 1_556 S
Nd201 O227 2.492 . S
Nd201 O228 2.487 . S
Nd201 O229 2.682 . S
Nd201 O230 2.410 . S
C202 Nd200 2.836 1_556 S
C202 C203 1.498 . S
C202 O220 1.258 . S
C202 O221 1.239 1_556 S
C203 C202 1.498 . S
C203 C204 1.366 . S
C203 C208 1.407 1_556 S
C204 C203 1.366 . S
C204 C205 1.392 . S
C204 H232 0.930 . S
C205 C204 1.392 . S
C205 C206 1.398 . S
C205 H233 0.929 . S
C206 C205 1.398 . S
C206 C207 1.352 1_556 S
C207 C206 1.352 1_554 S
C207 C208 1.384 . S
C207 H234 0.930 . S
C208 C203 1.407 1_554 S
C208 C207 1.384 . S
C208 H235 0.929 . S
C209 O222 1.241 . S
C209 O223 1.273 . S
C210 O224 1.251 . S
C210 O225 1.264 1_554 S
C211 Nd201 2.836 1_554 S
C211 C212 1.498 . S
C211 O226 1.258 . S
C211 O227 1.239 1_554 S
C212 C211 1.498 . S
C212 C213 1.366 . S
C212 C217 1.407 1_554 S
C213 C212 1.366 . S
C213 C214 1.392 . S
C213 H236 0.930 . S
C214 C213 1.392 . S
C214 C215 1.398 . S
C214 H237 0.929 . S
C215 C214 1.398 . S
C215 C216 1.352 1_554 S
C216 C215 1.352 1_556 S
C216 C217 1.384 . S
C216 H238 0.930 . S
C217 C212 1.407 1_556 S
C217 C216 1.384 . S
C217 H239 0.929 . S
C218 O228 1.241 . S
C218 O229 1.273 . S
C219 O230 1.246 1_554 S
C219 O231 1.270 . S
O220 Nd200 2.500 1_556 S
O220 C202 1.258 . S
O221 Nd200 2.492 . S
O221 C202 1.239 1_554 S
O222 Nd200 2.487 . S
O222 C209 1.241 . S
O223 Nd200 2.682 . S
O223 Nd201 2.414 1_554 S
O223 C209 1.273 . S
O224 Nd200 2.410 . S
O224 C210 1.251 . S
O225 Nd201 2.424 . S
O225 C210 1.264 1_556 S
O226 Nd201 2.500 1_554 S
O226 C211 1.258 . S
O227 Nd201 2.492 . S
O227 C211 1.239 1_556 S
O228 Nd201 2.487 . S
O228 C218 1.241 . S
O229 Nd200 2.414 1_556 S
O229 Nd201 2.682 . S
O229 C218 1.273 . S
O230 Nd201 2.410 . S
O230 C219 1.246 1_556 S
O231 Nd200 2.424 . S
O231 C219 1.270 . S
H232 C204 0.930 . S
H233 C205 0.929 . S
H234 C207 0.930 . S
H235 C208 0.929 . S
H236 C213 0.930 . S
H237 C214 0.929 . S
H238 C216 0.930 . S
H239 C217 0.929 . S
Nd240 C242 2.836 . S
Nd240 O260 2.500 . S
Nd240 O261 2.492 . S
Nd240 O262 2.487 . S
Nd240 O263 2.682 . S
Nd240 O264 2.410 . S
Nd240 O269 2.414 . S
Nd240 O271 2.424 . S
Nd241 C251 2.836 . S
Nd241 O263 2.414 . S
Nd241 O265 2.424 . S
Nd241 O266 2.500 . S
Nd241 O267 2.492 . S
Nd241 O268 2.487 . S
Nd241 O269 2.682 . S
Nd241 O270 2.410 . S
C242 Nd240 2.836 . S
C242 C243 1.498 . S
C242 O260 1.258 . S
C242 O261 1.239 . S
C243 C242 1.498 . S
C243 C244 1.366 . S
C243 C248 1.407 . S
C244 C243 1.366 . S
C244 C245 1.392 . S
C244 H272 0.930 . S
C245 C244 1.392 . S
C245 C246 1.398 . S
C245 H273 0.929 . S
C246 C245 1.398 . S
C246 C247 1.352 . S
C247 C246 1.352 . S
C247 C248 1.384 . S
C247 H274 0.930 . S
C248 C243 1.407 . S
C248 C247 1.384 . S
C248 H275 0.929 . S
C249 O262 1.241 . S
C249 O263 1.273 . S
C250 O264 1.251 . S
C250 O265 1.268 . S
C251 Nd241 2.836 . S
C251 C252 1.498 . S
C251 O266 1.258 . S
C251 O267 1.239 . S
C252 C251 1.498 . S
C252 C253 1.366 . S
C252 C257 1.407 . S
C253 C252 1.366 . S
C253 C254 1.392 . S
C253 H276 0.930 . S
C254 C253 1.392 . S
C254 C255 1.398 . S
C254 H277 0.929 . S
C255 C254 1.398 . S
C255 C256 1.352 . S
C256 C255 1.352 . S
C256 C257 1.384 . S
C256 H278 0.930 . S
C257 C252 1.407 . S
C257 C256 1.384 . S
C257 H279 0.929 . S
C258 O268 1.241 . S
C258 O269 1.273 . S
C259 O270 1.251 . S
C259 O271 1.268 . S
O260 Nd240 2.500 . S
O260 C242 1.258 . S
O261 Nd240 2.492 . S
O261 C242 1.239 . S
O262 Nd240 2.487 . S
O262 C249 1.241 . S
O263 Nd240 2.682 . S
O263 Nd241 2.414 . S
O263 C249 1.273 . S
O264 Nd240 2.410 . S
O264 C250 1.251 . S
O265 Nd241 2.424 . S
O265 C250 1.268 . S
O266 Nd241 2.500 . S
O266 C251 1.258 . S
O267 Nd241 2.492 . S
O267 C251 1.239 . S
O268 Nd241 2.487 . S
O268 C258 1.241 . S
O269 Nd240 2.414 . S
O269 Nd241 2.682 . S
O269 C258 1.273 . S
O270 Nd241 2.410 . S
O270 C259 1.251 . S
O271 Nd240 2.424 . S
O271 C259 1.268 . S
H272 C244 0.930 . S
H273 C245 0.929 . S
H274 C247 0.930 . S
H275 C248 0.929 . S
H276 C253 0.930 . S
H277 C254 0.929 . S
H278 C256 0.930 . S
H279 C257 0.929 . S
Nd280 C282 2.836 . S
Nd280 O300 2.500 . S
Nd280 O301 2.492 . S
Nd280 O302 2.487 . S
Nd280 O303 2.682 . S
Nd280 O304 2.410 . S
Nd280 O309 2.414 . S
Nd280 O311 2.424 . S
Nd281 C291 2.836 . S
Nd281 O303 2.414 . S
Nd281 O305 2.424 . S
Nd281 O306 2.500 . S
Nd281 O307 2.492 . S
Nd281 O308 2.487 . S
Nd281 O309 2.682 . S
Nd281 O310 2.410 . S
C282 Nd280 2.836 . S
C282 C283 1.498 . S
C282 O300 1.258 . S
C282 O301 1.239 . S
C283 C282 1.498 . S
C283 C284 1.366 . S
C283 C288 1.407 . S
C284 C283 1.366 . S
C284 C285 1.392 . S
C284 H312 0.930 . S
C285 C284 1.392 . S
C285 C286 1.398 . S
C285 H313 0.929 . S
C286 C285 1.398 . S
C286 C287 1.352 . S
C287 C286 1.352 . S
C287 C288 1.384 . S
C287 H314 0.930 . S
C288 C283 1.407 . S
C288 C287 1.384 . S
C288 H315 0.929 . S
C289 O302 1.241 . S
C289 O303 1.273 . S
C290 O304 1.251 . S
C290 O305 1.268 . S
C291 Nd281 2.836 . S
C291 C292 1.498 . S
C291 O306 1.258 . S
C291 O307 1.239 . S
C292 C291 1.498 . S
C292 C293 1.366 . S
C292 C297 1.407 . S
C293 C292 1.366 . S
C293 C294 1.392 . S
C293 H316 0.930 . S
C294 C293 1.392 . S
C294 C295 1.398 . S
C294 H317 0.929 . S
C295 C294 1.398 . S
C295 C296 1.352 . S
C296 C295 1.352 . S
C296 C297 1.384 . S
C296 H318 0.930 . S
C297 C292 1.407 . S
C297 C296 1.384 . S
C297 H319 0.929 . S
C298 O308 1.241 . S
C298 O309 1.273 . S
C299 O310 1.251 . S
C299 O311 1.268 . S
O300 Nd280 2.500 . S
O300 C282 1.258 . S
O301 Nd280 2.492 . S
O301 C282 1.239 . S
O302 Nd280 2.487 . S
O302 C289 1.241 . S
O303 Nd280 2.682 . S
O303 Nd281 2.414 . S
O303 C289 1.273 . S
O304 Nd280 2.410 . S
O304 C290 1.251 . S
O305 Nd281 2.424 . S
O305 C290 1.268 . S
O306 Nd281 2.500 . S
O306 C291 1.258 . S
O307 Nd281 2.492 . S
O307 C291 1.239 . S
O308 Nd281 2.487 . S
O308 C298 1.241 . S
O309 Nd280 2.414 . S
O309 Nd281 2.682 . S
O309 C298 1.273 . S
O310 Nd281 2.410 . S
O310 C299 1.251 . S
O311 Nd280 2.424 . S
O311 C299 1.268 . S
H312 C284 0.930 . S
H313 C285 0.929 . S
H314 C287 0.930 . S
H315 C288 0.929 . S
H316 C293 0.930 . S
H317 C294 0.929 . S
H318 C296 0.930 . S
H319 C297 0.929 . S
C320 C321 1.349 . S
C320 C322 1.327 . S
C320 H345 0.950 . S
C321 C320 1.349 . S
C321 C337 1.349 1_556 S
C322 C320 1.327 . S
C322 C341 1.430 . S
C322 H346 0.950 . S
C323 C340 1.574 . S
C323 C342 1.375 . S
C323 H347 0.949 . S
H324 C328 0.949 . S
C325 C326 1.349 . S
C325 C327 1.327 . S
C325 H348 0.950 . S
C326 C325 1.349 . S
C326 C338 1.349 1_554 S
C327 C325 1.327 . S
C327 C343 1.429 . S
C327 H349 0.950 . S
C328 H324 0.949 . S
C328 C336 1.574 . S
C328 C344 1.368 1_556 S
H329 C337 0.950 . S
H330 C335 0.950 . S
H331 C336 0.949 . S
H332 C338 0.950 . S
H333 C339 0.950 . S
H334 C340 0.949 . S
C335 H330 0.950 . S
C335 C337 1.327 . S
C335 C341 1.427 1_554 S
C336 C328 1.574 . S
C336 H331 0.949 . S
C336 C342 1.361 1_556 S
C337 C321 1.349 1_554 S
C337 H329 0.950 . S
C337 C335 1.327 . S
C338 C326 1.349 1_556 S
C338 H332 0.950 . S
C338 C339 1.327 . S
C339 H333 0.950 . S
C339 C338 1.327 . S
C339 C343 1.429 1_556 S
C340 C323 1.574 . S
C340 H334 0.949 . S
C340 C344 1.368 . S
C341 C322 1.430 . S
C341 C335 1.427 1_556 S
C341 C342 1.524 1_556 S
C342 C323 1.375 . S
C342 C336 1.361 1_554 S
C342 C341 1.524 1_554 S
C343 C327 1.429 . S
C343 C339 1.429 1_554 S
C343 C344 1.523 . S
C344 C328 1.368 1_554 S
C344 C340 1.368 . S
C344 C343 1.523 . S
H345 C320 0.950 . S
H346 C322 0.950 . S
H347 C323 0.949 . S
H348 C325 0.950 . S
H349 C327 0.950 . S
C350 C351 1.349 . S
C350 C352 1.327 . S
C350 H375 0.950 . S
C351 C350 1.349 . S
C351 C367 1.349 1_554 S
C352 C350 1.327 . S
C352 C371 1.429 . S
C352 H376 0.950 . S
C353 C370 1.574 . S
C353 C372 1.368 1_556 S
C353 H377 0.949 . S
H354 C358 0.949 . S
C355 C356 1.349 . S
C355 C357 1.327 . S
C355 H378 0.950 . S
C356 C355 1.349 . S
C356 C368 1.349 1_556 S
C357 C355 1.327 . S
C357 C373 1.429 . S
C357 H379 0.950 . S
C358 H354 0.949 . S
C358 C366 1.574 . S
C358 C374 1.368 1_554 S
H359 C367 0.950 . S
H360 C365 0.950 . S
H361 C366 0.949 . S
H362 C368 0.950 . S
H363 C369 0.950 . S
H364 C370 0.949 . S
C365 H360 0.950 . S
C365 C367 1.327 . S
C365 C371 1.429 1_556 S
C366 C358 1.574 . S
C366 H361 0.949 . S
C366 C372 1.368 . S
C367 C351 1.349 1_556 S
C367 H359 0.950 . S
C367 C365 1.327 . S
C368 C356 1.349 1_554 S
C368 H362 0.950 . S
C368 C369 1.327 . S
C369 H363 0.950 . S
C369 C368 1.327 . S
C369 C373 1.429 1_554 S
C370 C353 1.574 . S
C370 H364 0.949 . S
C370 C374 1.368 . S
C371 C352 1.429 . S
C371 C365 1.429 1_554 S
C371 C372 1.523 . S
C372 C353 1.368 1_554 S
C372 C366 1.368 . S
C372 C371 1.523 . S
C373 C357 1.429 . S
C373 C369 1.429 1_556 S
C373 C374 1.523 . S
C374 C358 1.368 1_556 S
C374 C370 1.368 . S
C374 C373 1.523 . S
H375 C350 0.950 . S
H376 C352 0.950 . S
H377 C353 0.949 . S
H378 C355 0.950 . S
H379 C357 0.950 . S
C380 C381 1.349 . S
C380 C382 1.327 . S
C380 H405 0.950 . S
C381 C380 1.349 . S
C381 C397 1.349 . S
C382 C380 1.327 . S
C382 C401 1.429 . S
C382 H406 0.950 . S
C383 C400 1.574 . S
C383 C402 1.368 . S
C383 H407 0.949 . S
H384 C388 0.949 . S
C385 C386 1.349 . S
C385 C387 1.327 . S
C385 H408 0.950 . S
C386 C385 1.349 . S
C386 C398 1.349 . S
C387 C385 1.327 . S
C387 C403 1.429 . S
C387 H409 0.950 . S
C388 H384 0.949 . S
C388 C396 1.574 . S
C388 C404 1.368 . S
H389 C397 0.950 . S
H390 C395 0.950 . S
H391 C396 0.949 . S
H392 C398 0.950 . S
H393 C399 0.950 . S
H394 C400 0.949 . S
C395 H390 0.950 . S
C395 C397 1.327 . S
C395 C401 1.429 . S
C396 C388 1.574 . S
C396 H391 0.949 . S
C396 C402 1.368 . S
C397 C381 1.349 . S
C397 H389 0.950 . S
C397 C395 1.327 . S
C398 C386 1.349 . S
C398 H392 0.950 . S
C398 C399 1.327 . S
C399 H393 0.950 . S
C399 C398 1.327 . S
C399 C403 1.429 . S
C400 C383 1.574 . S
C400 H394 0.949 . S
C400 C404 1.368 . S
C401 C382 1.429 . S
C401 C395 1.429 . S
C401 C402 1.523 . S
C402 C383 1.368 . S
C402 C396 1.368 . S
C402 C401 1.523 . S
C403 C387 1.429 . S
C403 C399 1.429 . S
C403 C404 1.523 . S
C404 C388 1.368 . S
C404 C400 1.368 . S
C404 C403 1.523 . S
H405 C380 0.950 . S
H406 C382 0.950 . S
H407 C383 0.949 . S
H408 C385 0.950 . S
H409 C387 0.950 . S
C410 C411 1.349 . S
C410 C412 1.327 . S
C410 H435 0.950 . S
C411 C410 1.349 . S
C411 C427 1.349 . S
C412 C410 1.327 . S
C412 C431 1.429 . S
C412 H436 0.950 . S
C413 C430 1.574 . S
C413 C432 1.368 . S
C413 H437 0.949 . S
H414 C418 0.949 . S
C415 C416 1.349 . S
C415 C417 1.327 . S
C415 H438 0.950 . S
C416 C415 1.349 . S
C416 C428 1.349 . S
C417 C415 1.327 . S
C417 C433 1.429 . S
C417 H439 0.950 . S
C418 H414 0.949 . S
C418 C426 1.574 . S
C418 C434 1.368 . S
H419 C427 0.950 . S
H420 C425 0.950 . S
H421 C426 0.949 . S
H422 C428 0.950 . S
H423 C429 0.950 . S
H424 C430 0.949 . S
C425 H420 0.950 . S
C425 C427 1.327 . S
C425 C431 1.429 . S
C426 C418 1.574 . S
C426 H421 0.949 . S
C426 C432 1.368 . S
C427 C411 1.349 . S
C427 H419 0.950 . S
C427 C425 1.327 . S
C428 C416 1.349 . S
C428 H422 0.950 . S
C428 C429 1.327 . S
C429 H423 0.950 . S
C429 C428 1.327 . S
C429 C433 1.429 . S
C430 C413 1.574 . S
C430 H424 0.949 . S
C430 C434 1.368 . S
C431 C412 1.429 . S
C431 C425 1.429 . S
C431 C432 1.523 . S
C432 C413 1.368 . S
C432 C426 1.368 . S
C432 C431 1.523 . S
C433 C417 1.429 . S
C433 C429 1.429 . S
C433 C434 1.523 . S
C434 C418 1.368 . S
C434 C430 1.368 . S
C434 C433 1.523 . S
H435 C410 0.950 . S
H436 C412 0.950 . S
H437 C413 0.949 . S
H438 C415 0.950 . S
H439 C417 0.950 . S
C440 C441 1.349 . S
C440 C442 1.327 . S
C440 H465 0.950 . S
C441 C440 1.349 . S
C441 C457 1.349 1_556 S
C442 C440 1.327 . S
C442 C461 1.430 . S
C442 H466 0.950 . S
C443 C460 1.574 . S
C443 C462 1.374 . S
C443 H467 0.949 . S
H444 C448 0.949 . S
C445 C446 1.349 . S
C445 C447 1.327 . S
C445 H468 0.950 . S
C446 C445 1.349 . S
C446 C458 1.349 1_554 S
C447 C445 1.327 . S
C447 C463 1.429 . S
C447 H469 0.950 . S
C448 H444 0.949 . S
C448 C456 1.574 . S
C448 C464 1.368 1_556 S
H449 C457 0.950 . S
H450 C455 0.950 . S
H451 C456 0.949 . S
H452 C458 0.950 . S
H453 C459 0.950 . S
H454 C460 0.949 . S
C455 H450 0.950 . S
C455 C457 1.327 . S
C455 C461 1.427 1_554 S
C456 C448 1.574 . S
C456 H451 0.949 . S
C456 C462 1.362 1_556 S
C457 C441 1.349 1_554 S
C457 H449 0.950 . S
C457 C455 1.327 . S
C458 C446 1.349 1_556 S
C458 H452 0.950 . S
C458 C459 1.327 . S
C459 H453 0.950 . S
C459 C458 1.327 . S
C459 C463 1.429 1_556 S
C460 C443 1.574 . S
C460 H454 0.949 . S
C460 C464 1.368 . S
C461 C442 1.430 . S
C461 C455 1.427 1_556 S
C461 C462 1.524 1_656 S
C462 C443 1.374 . S
C462 C456 1.362 1_554 S
C462 C461 1.524 1_454 S
C463 C447 1.429 . S
C463 C459 1.429 1_554 S
C463 C464 1.523 . S
C464 C448 1.368 1_554 S
C464 C460 1.368 . S
C464 C463 1.523 . S
H465 C440 0.950 . S
H466 C442 0.950 . S
H467 C443 0.949 . S
H468 C445 0.950 . S
H469 C447 0.950 . S
C470 C471 1.349 . S
C470 C472 1.327 . S
C470 H495 0.950 . S
C471 C470 1.349 . S
C471 C487 1.349 1_556 S
C472 C470 1.327 . S
C472 C491 1.429 . S
C472 H496 0.950 . S
C473 C490 1.574 . S
C473 C492 1.368 1_554 S
C473 H497 0.949 . S
H474 C478 0.949 . S
C475 C476 1.349 . S
C475 C477 1.327 . S
C475 H498 0.950 . S
C476 C475 1.349 . S
C476 C488 1.349 1_554 S
C477 C475 1.327 . S
C477 C493 1.429 . S
C477 H499 0.950 . S
C478 H474 0.949 . S
C478 C486 1.574 . S
C478 C494 1.368 1_556 S
H479 C487 0.950 . S
H480 C485 0.950 . S
H481 C486 0.949 . S
H482 C488 0.950 . S
H483 C489 0.950 . S
H484 C490 0.949 . S
C485 H480 0.950 . S
C485 C487 1.327 . S
C485 C491 1.429 1_554 S
C486 C478 1.574 . S
C486 H481 0.949 . S
C486 C492 1.368 . S
C487 C471 1.349 1_554 S
C487 H479 0.950 . S
C487 C485 1.327 . S
C488 C476 1.349 1_556 S
C488 H482 0.950 . S
C488 C489 1.327 . S
C489 H483 0.950 . S
C489 C488 1.327 . S
C489 C493 1.429 1_556 S
C490 C473 1.574 . S
C490 H484 0.949 . S
C490 C494 1.368 . S
C491 C472 1.429 . S
C491 C485 1.429 1_556 S
C491 C492 1.523 1_455 S
C492 C473 1.368 1_556 S
C492 C486 1.368 . S
C492 C491 1.523 1_655 S
C493 C477 1.429 . S
C493 C489 1.429 1_554 S
C493 C494 1.523 . S
C494 C478 1.368 1_554 S
C494 C490 1.368 . S
C494 C493 1.523 . S
H495 C470 0.950 . S
H496 C472 0.950 . S
H497 C473 0.949 . S
H498 C475 0.950 . S
H499 C477 0.950 . S
C500 C501 1.349 . S
C500 C502 1.327 . S
C500 H525 0.950 . S
C501 C500 1.349 . S
C501 C517 1.349 . S
C502 C500 1.327 . S
C502 C521 1.429 . S
C502 H526 0.950 . S
C503 C520 1.574 . S
C503 C522 1.368 . S
C503 H527 0.949 . S
H504 C508 0.949 . S
C505 C506 1.349 . S
C505 C507 1.327 . S
C505 H528 0.950 . S
C506 C505 1.349 . S
C506 C518 1.349 . S
C507 C505 1.327 . S
C507 C523 1.429 . S
C507 H529 0.950 . S
C508 H504 0.949 . S
C508 C516 1.574 . S
C508 C524 1.368 . S
H509 C517 0.950 . S
H510 C515 0.950 . S
H511 C516 0.949 . S
H512 C518 0.950 . S
H513 C519 0.950 . S
H514 C520 0.949 . S
C515 H510 0.950 . S
C515 C517 1.327 . S
C515 C521 1.429 . S
C516 C508 1.574 . S
C516 H511 0.949 . S
C516 C522 1.368 . S
C517 C501 1.349 . S
C517 H509 0.950 . S
C517 C515 1.327 . S
C518 C506 1.349 . S
C518 H512 0.950 . S
C518 C519 1.327 . S
C519 H513 0.950 . S
C519 C518 1.327 . S
C519 C523 1.429 . S
C520 C503 1.574 . S
C520 H514 0.949 . S
C520 C524 1.368 . S
C521 C502 1.429 . S
C521 C515 1.429 . S
C521 C522 1.523 . S
C522 C503 1.368 . S
C522 C516 1.368 . S
C522 C521 1.523 . S
C523 C507 1.429 . S
C523 C519 1.429 . S
C523 C524 1.523 1_655 S
C524 C508 1.368 . S
C524 C520 1.368 . S
C524 C523 1.523 1_455 S
H525 C500 0.950 . S
H526 C502 0.950 . S
H527 C503 0.949 . S
H528 C505 0.950 . S
H529 C507 0.950 . S
C530 C531 1.349 . S
C530 C532 1.327 . S
C530 H555 0.950 . S
C531 C530 1.349 . S
C531 C547 1.349 . S
C532 C530 1.327 . S
C532 C551 1.429 . S
C532 H556 0.950 . S
C533 C550 1.574 . S
C533 C552 1.368 . S
C533 H557 0.949 . S
H534 C538 0.949 . S
C535 C536 1.349 . S
C535 C537 1.327 . S
C535 H558 0.950 . S
C536 C535 1.349 . S
C536 C548 1.349 . S
C537 C535 1.327 . S
C537 C553 1.429 . S
C537 H559 0.950 . S
C538 H534 0.949 . S
C538 C546 1.574 . S
C538 C554 1.368 . S
H539 C547 0.950 . S
H540 C545 0.950 . S
H541 C546 0.949 . S
H542 C548 0.950 . S
H543 C549 0.950 . S
H544 C550 0.949 . S
C545 H540 0.950 . S
C545 C547 1.327 . S
C545 C551 1.429 . S
C546 C538 1.574 . S
C546 H541 0.949 . S
C546 C552 1.368 . S
C547 C531 1.349 . S
C547 H539 0.950 . S
C547 C545 1.327 . S
C548 C536 1.349 . S
C548 H542 0.950 . S
C548 C549 1.327 . S
C549 H543 0.950 . S
C549 C548 1.327 . S
C549 C553 1.429 . S
C550 C533 1.574 . S
C550 H544 0.949 . S
C550 C554 1.368 . S
C551 C532 1.429 . S
C551 C545 1.429 . S
C551 C552 1.523 . S
C552 C533 1.368 . S
C552 C546 1.368 . S
C552 C551 1.523 . S
C553 C537 1.429 . S
C553 C549 1.429 . S
C553 C554 1.523 1_455 S
C554 C538 1.368 . S
C554 C550 1.368 . S
C554 C553 1.523 1_655 S
H555 C530 0.950 . S
H556 C532 0.950 . S
H557 C533 0.949 . S
H558 C535 0.950 . S
H559 C537 0.950 . S
C560 C561 1.349 1_456 S
C560 C562 1.327 . S
C560 H585 0.950 . S
C561 C560 1.349 1_654 S
C561 C577 1.349 . S
C562 C560 1.327 . S
C562 C581 1.429 1_456 S
C562 H586 0.950 . S
C563 C580 1.574 . S
C563 C582 1.368 . S
C563 H587 0.949 . S
H564 C568 0.949 . S
C565 C566 1.349 1_655 S
C565 C567 1.327 . S
C565 H588 0.950 . S
C566 C565 1.349 1_455 S
C566 C578 1.349 1_554 S
C567 C565 1.327 . S
C567 C583 1.429 1_655 S
C567 H589 0.950 . S
C568 H564 0.949 . S
C568 C576 1.574 . S
C568 C584 1.368 1_556 S
H569 C577 0.950 . S
H570 C575 0.950 . S
H571 C576 0.949 . S
H572 C578 0.950 . S
H573 C579 0.950 . S
H574 C580 0.949 . S
C575 H570 0.950 . S
C575 C577 1.327 . S
C575 C581 1.429 . S
C576 C568 1.574 . S
C576 H571 0.949 . S
C576 C582 1.368 1_456 S
C577 C561 1.349 . S
C577 H569 0.950 . S
C577 C575 1.327 . S
C578 C566 1.349 1_556 S
C578 H572 0.950 . S
C578 C579 1.327 . S
C579 H573 0.950 . S
C579 C578 1.327 . S
C579 C583 1.429 1_556 S
C580 C563 1.574 . S
C580 H574 0.949 . S
C580 C584 1.368 1_655 S
C581 C562 1.429 1_654 S
C581 C575 1.429 . S
C581 C582 1.523 . S
C582 C563 1.368 . S
C582 C576 1.368 1_654 S
C582 C581 1.523 . S
C583 C567 1.429 1_455 S
C583 C579 1.429 1_554 S
C583 C584 1.523 . S
C584 C568 1.368 1_554 S
C584 C580 1.368 1_455 S
C584 C583 1.523 . S
H585 C560 0.950 . S
H586 C562 0.950 . S
H587 C563 0.949 . S
H588 C565 0.950 . S
H589 C567 0.950 . S
C590 C591 1.349 1_455 S
C590 C592 1.327 . S
C590 H615 0.950 . S
C591 C590 1.349 1_655 S
C591 C607 1.349 . S
C592 C590 1.327 . S
C592 C611 1.429 1_455 S
C592 H616 0.950 . S
C593 C610 1.574 . S
C593 C612 1.368 . S
C593 H617 0.949 . S
H594 C598 0.949 . S
C595 C596 1.349 1_655 S
C595 C597 1.327 . S
C595 H618 0.950 . S
C596 C595 1.349 1_455 S
C596 C608 1.349 . S
C597 C595 1.327 . S
C597 C613 1.429 1_655 S
C597 H619 0.950 . S
C598 H594 0.949 . S
C598 C606 1.574 . S
C598 C614 1.368 . S
H599 C607 0.950 . S
H600 C605 0.950 . S
H601 C606 0.949 . S
H602 C608 0.950 . S
H603 C609 0.950 . S
H604 C610 0.949 . S
C605 H600 0.950 . S
C605 C607 1.327 . S
C605 C611 1.429 . S
C606 C598 1.574 . S
C606 H601 0.949 . S
C606 C612 1.368 1_455 S
C607 C591 1.349 . S
C607 H599 0.950 . S
C607 C605 1.327 . S
C608 C596 1.349 . S
C608 H602 0.950 . S
C608 C609 1.327 . S
C609 H603 0.950 . S
C609 C608 1.327 . S
C609 C613 1.429 . S
C610 C593 1.574 . S
C610 H604 0.949 . S
C610 C614 1.368 1_655 S
C611 C592 1.429 1_655 S
C611 C605 1.429 . S
C611 C612 1.523 . S
C612 C593 1.368 . S
C612 C606 1.368 1_655 S
C612 C611 1.523 . S
C613 C597 1.429 1_455 S
C613 C609 1.429 . S
C613 C614 1.523 . S
C614 C598 1.368 . S
C614 C610 1.368 1_455 S
C614 C613 1.523 . S
H615 C590 0.950 . S
H616 C592 0.950 . S
H617 C593 0.949 . S
H618 C595 0.950 . S
H619 C597 0.950 . S
C620 C621 1.349 . S
C620 C622 1.327 . S
C620 H645 0.950 . S
C621 C620 1.349 . S
C621 C637 1.349 1_554 S
C622 C620 1.327 . S
C622 C641 1.429 . S
C622 H646 0.950 . S
C623 C640 1.574 1_565 S
C623 C642 1.368 1_556 S
C623 H647 0.949 . S
H624 C628 0.949 . S
C625 C626 1.349 1_556 S
C625 C627 1.327 . S
C625 H648 0.950 . S
C626 C625 1.349 1_554 S
C626 C638 1.349 . S
C627 C625 1.327 . S
C627 C643 1.429 1_556 S
C627 H649 0.950 . S
C628 H624 0.949 . S
C628 C636 1.574 1_545 S
C628 C644 1.368 . S
H629 C637 0.950 . S
H630 C635 0.950 . S
H631 C636 0.949 . S
H632 C638 0.950 . S
H633 C639 0.950 . S
H634 C640 0.949 . S
C635 H630 0.950 . S
C635 C637 1.327 . S
C635 C641 1.429 1_556 S
C636 C628 1.574 1_565 S
C636 H631 0.949 . S
C636 C642 1.368 . S
C637 C621 1.349 1_556 S
C637 H629 0.950 . S
C637 C635 1.327 . S
C638 C626 1.349 . S
C638 H632 0.950 . S
C638 C639 1.327 . S
C639 H633 0.950 . S
C639 C638 1.327 . S
C639 C643 1.429 . S
C640 C623 1.574 1_545 S
C640 H634 0.949 . S
C640 C644 1.368 1_556 S
C641 C622 1.429 . S
C641 C635 1.429 1_554 S
C641 C642 1.523 . S
C642 C623 1.368 1_554 S
C642 C636 1.368 . S
C642 C641 1.523 . S
C643 C627 1.429 1_554 S
C643 C639 1.429 . S
C643 C644 1.523 . S
C644 C628 1.368 . S
C644 C640 1.368 1_554 S
C644 C643 1.523 . S
H645 C620 0.950 . S
H646 C622 0.950 . S
H647 C623 0.949 . S
H648 C625 0.950 . S
H649 C627 0.950 . S
C650 C651 1.349 . S
C650 C652 1.327 . S
C650 H675 0.950 . S
C651 C650 1.349 . S
C651 C667 1.349 . S
C652 C650 1.327 . S
C652 C671 1.429 . S
C652 H676 0.950 . S
C653 C670 1.574 1_545 S
C653 C672 1.368 . S
C653 H677 0.949 . S
H654 C658 0.949 . S
C655 C656 1.349 . S
C655 C657 1.327 . S
C655 H678 0.950 . S
C656 C655 1.349 . S
C656 C668 1.349 . S
C657 C655 1.327 . S
C657 C673 1.429 . S
C657 H679 0.950 . S
C658 H654 0.949 . S
C658 C666 1.574 1_565 S
C658 C674 1.368 . S
H659 C667 0.950 . S
H660 C665 0.950 . S
H661 C666 0.949 . S
H662 C668 0.950 . S
H663 C669 0.950 . S
H664 C670 0.949 . S
C665 H660 0.950 . S
C665 C667 1.327 . S
C665 C671 1.429 . S
C666 C658 1.574 1_545 S
C666 H661 0.949 . S
C666 C672 1.368 . S
C667 C651 1.349 . S
C667 H659 0.950 . S
C667 C665 1.327 . S
C668 C656 1.349 . S
C668 H662 0.950 . S
C668 C669 1.327 . S
C669 H663 0.950 . S
C669 C668 1.327 . S
C669 C673 1.429 . S
C670 C653 1.574 1_565 S
C670 H664 0.949 . S
C670 C674 1.368 . S
C671 C652 1.429 . S
C671 C665 1.429 . S
C671 C672 1.523 . S
C672 C653 1.368 . S
C672 C666 1.368 . S
C672 C671 1.523 . S
C673 C657 1.429 . S
C673 C669 1.429 . S
C673 C674 1.523 . S
C674 C658 1.368 . S
C674 C670 1.368 . S
C674 C673 1.523 . S
H675 C650 0.950 . S
H676 C652 0.950 . S
H677 C653 0.949 . S
H678 C655 0.950 . S
H679 C657 0.950 . S
C680 C681 1.349 . S
C680 C682 1.327 . S
C680 H705 0.950 . S
C681 C680 1.349 . S
C681 C697 1.349 1_556 S
C682 C680 1.327 . S
C682 C701 1.429 . S
C682 H706 0.950 . S
C683 C700 1.574 . S
C683 C702 1.368 1_554 S
C683 H707 0.949 . S
H684 C688 0.949 . S
C685 C686 1.349 1_554 S
C685 C687 1.327 . S
C685 H708 0.950 . S
C686 C685 1.349 1_556 S
C686 C698 1.349 . S
C687 C685 1.327 . S
C687 C703 1.429 1_554 S
C687 H709 0.950 . S
C688 H684 0.949 . S
C688 C696 1.574 . S
C688 C704 1.368 . S
H689 C697 0.950 . S
H690 C695 0.950 . S
H691 C696 0.949 . S
H692 C698 0.950 . S
H693 C699 0.950 . S
H694 C700 0.949 . S
C695 H690 0.950 . S
C695 C697 1.327 . S
C695 C701 1.429 1_554 S
C696 C688 1.574 . S
C696 H691 0.949 . S
C696 C702 1.368 . S
C697 C681 1.349 1_554 S
C697 H689 0.950 . S
C697 C695 1.327 . S
C698 C686 1.349 . S
C698 H692 0.950 . S
C698 C699 1.327 . S
C699 H693 0.950 . S
C699 C698 1.327 . S
C699 C703 1.429 . S
C700 C683 1.574 . S
C700 H694 0.949 . S
C700 C704 1.368 1_554 S
C701 C682 1.429 . S
C701 C695 1.429 1_556 S
C701 C702 1.523 . S
C702 C683 1.368 1_556 S
C702 C696 1.368 . S
C702 C701 1.523 . S
C703 C687 1.429 1_556 S
C703 C699 1.429 . S
C703 C704 1.523 . S
C704 C688 1.368 . S
C704 C700 1.368 1_556 S
C704 C703 1.523 . S
H705 C680 0.950 . S
H706 C682 0.950 . S
H707 C683 0.949 . S
H708 C685 0.950 . S
H709 C687 0.950 . S
C710 C711 1.349 . S
C710 C712 1.327 . S
C710 H735 0.950 . S
C711 C710 1.349 . S
C711 C727 1.349 1_556 S
C712 C710 1.327 . S
C712 C731 1.429 . S
C712 H736 0.950 . S
C713 C730 1.574 . S
C713 C732 1.368 1_554 S
C713 H737 0.949 . S
H714 C718 0.949 . S
C715 C716 1.349 1_554 S
C715 C717 1.327 . S
C715 H738 0.950 . S
C716 C715 1.349 1_556 S
C716 C728 1.349 . S
C717 C715 1.327 . S
C717 C733 1.429 1_554 S
C717 H739 0.950 . S
C718 H714 0.949 . S
C718 C726 1.574 . S
C718 C734 1.368 . S
H719 C727 0.950 . S
H720 C725 0.950 . S
H721 C726 0.949 . S
H722 C728 0.950 . S
H723 C729 0.950 . S
H724 C730 0.949 . S
C725 H720 0.950 . S
C725 C727 1.327 . S
C725 C731 1.429 1_554 S
C726 C718 1.574 . S
C726 H721 0.949 . S
C726 C732 1.368 . S
C727 C711 1.349 1_554 S
C727 H719 0.950 . S
C727 C725 1.327 . S
C728 C716 1.349 . S
C728 H722 0.950 . S
C728 C729 1.327 . S
C729 H723 0.950 . S
C729 C728 1.327 . S
C729 C733 1.429 . S
C730 C713 1.574 . S
C730 H724 0.949 . S
C730 C734 1.368 1_554 S
C731 C712 1.429 . S
C731 C725 1.429 1_556 S
C731 C732 1.523 . S
C732 C713 1.368 1_556 S
C732 C726 1.368 . S
C732 C731 1.523 . S
C733 C717 1.429 1_556 S
C733 C729 1.429 . S
C733 C734 1.523 . S
C734 C718 1.368 . S
C734 C730 1.368 1_556 S
C734 C733 1.523 . S
H735 C710 0.950 . S
H736 C712 0.950 . S
H737 C713 0.949 . S
H738 C715 0.950 . S
H739 C717 0.950 . S
C740 C741 1.349 . S
C740 C742 1.327 . S
C740 H765 0.950 . S
C741 C740 1.349 . S
C741 C757 1.349 . S
C742 C740 1.327 . S
C742 C761 1.429 . S
C742 H766 0.950 . S
C743 C760 1.574 . S
C743 C762 1.368 . S
C743 H767 0.949 . S
H744 C748 0.949 . S
C745 C746 1.349 . S
C745 C747 1.327 . S
C745 H768 0.950 . S
C746 C745 1.349 . S
C746 C758 1.349 . S
C747 C745 1.327 . S
C747 C763 1.429 . S
C747 H769 0.950 . S
C748 H744 0.949 . S
C748 C756 1.574 . S
C748 C764 1.368 . S
H749 C757 0.950 . S
H750 C755 0.950 . S
H751 C756 0.949 . S
H752 C758 0.950 . S
H753 C759 0.950 . S
H754 C760 0.949 . S
C755 H750 0.950 . S
C755 C757 1.327 . S
C755 C761 1.429 . S
C756 C748 1.574 . S
C756 H751 0.949 . S
C756 C762 1.368 . S
C757 C741 1.349 . S
C757 H749 0.950 . S
C757 C755 1.327 . S
C758 C746 1.349 . S
C758 H752 0.950 . S
C758 C759 1.327 . S
C759 H753 0.950 . S
C759 C758 1.327 . S
C759 C763 1.429 . S
C760 C743 1.574 . S
C760 H754 0.949 . S
C760 C764 1.368 . S
C761 C742 1.429 . S
C761 C755 1.429 . S
C761 C762 1.523 . S
C762 C743 1.368 . S
C762 C756 1.368 . S
C762 C761 1.523 . S
C763 C747 1.429 . S
C763 C759 1.429 . S
C763 C764 1.523 . S
C764 C748 1.368 . S
C764 C760 1.368 . S
C764 C763 1.523 . S
H765 C740 0.950 . S
H766 C742 0.950 . S
H767 C743 0.949 . S
H768 C745 0.950 . S
H769 C747 0.950 . S
C770 C771 1.349 . S
C770 C772 1.327 . S
C770 H795 0.950 . S
C771 C770 1.349 . S
C771 C787 1.349 . S
C772 C770 1.327 . S
C772 C791 1.429 . S
C772 H796 0.950 . S
C773 C790 1.574 . S
C773 C792 1.368 . S
C773 H797 0.949 . S
H774 C778 0.949 . S
C775 C776 1.349 . S
C775 C777 1.327 . S
C775 H798 0.950 . S
C776 C775 1.349 . S
C776 C788 1.349 . S
C777 C775 1.327 . S
C777 C793 1.429 . S
C777 H799 0.950 . S
C778 H774 0.949 . S
C778 C786 1.574 . S
C778 C794 1.368 . S
H779 C787 0.950 . S
H780 C785 0.950 . S
H781 C786 0.949 . S
H782 C788 0.950 . S
H783 C789 0.950 . S
H784 C790 0.949 . S
C785 H780 0.950 . S
C785 C787 1.327 . S
C785 C791 1.429 . S
C786 C778 1.574 . S
C786 H781 0.949 . S
C786 C792 1.368 . S
C787 C771 1.349 . S
C787 H779 0.950 . S
C787 C785 1.327 . S
C788 C776 1.349 . S
C788 H782 0.950 . S
C788 C789 1.327 . S
C789 H783 0.950 . S
C789 C788 1.327 . S
C789 C793 1.429 . S
C790 C773 1.574 . S
C790 H784 0.949 . S
C790 C794 1.368 . S
C791 C772 1.429 . S
C791 C785 1.429 . S
C791 C792 1.523 . S
C792 C773 1.368 . S
C792 C786 1.368 . S
C792 C791 1.523 . S
C793 C777 1.429 . S
C793 C789 1.429 . S
C793 C794 1.523 . S
C794 C778 1.368 . S
C794 C790 1.368 . S
C794 C793 1.523 . S
H795 C770 0.950 . S
H796 C772 0.950 . S
H797 C773 0.949 . S
H798 C775 0.950 . S
H799 C777 0.950 . S
C800 C801 1.349 . S
C800 C802 1.327 . S
C800 H825 0.950 . S
C801 C800 1.349 . S
C801 C817 1.349 . S
C802 C800 1.327 . S
C802 C821 1.429 . S
C802 H826 0.950 . S
C803 C820 1.574 . S
C803 C822 1.368 1_655 S
C803 H827 0.949 . S
H804 C808 0.949 . S
C805 C806 1.349 . S
C805 C807 1.327 . S
C805 H828 0.950 . S
C806 C805 1.349 . S
C806 C818 1.349 . S
C807 C805 1.327 . S
C807 C823 1.429 . S
C807 H829 0.950 . S
C808 H804 0.949 . S
C808 C816 1.574 . S
C808 C824 1.368 1_455 S
H809 C817 0.950 . S
H810 C815 0.950 1_655 S
H811 C816 0.949 . S
H812 C818 0.950 . S
H813 C819 0.950 1_455 S
H814 C820 0.949 . S
C815 H810 0.950 1_455 S
C815 C817 1.327 . S
C815 C821 1.429 . S
C816 C808 1.574 . S
C816 H811 0.949 . S
C816 C822 1.368 . S
C817 C801 1.349 . S
C817 H809 0.950 . S
C817 C815 1.327 . S
C818 C806 1.349 . S
C818 H812 0.950 . S
C818 C819 1.327 . S
C819 H813 0.950 1_655 S
C819 C818 1.327 . S
C819 C823 1.429 . S
C820 C803 1.574 . S
C820 H814 0.949 . S
C820 C824 1.368 . S
C821 C802 1.429 . S
C821 C815 1.429 . S
C821 C822 1.523 . S
C822 C803 1.368 1_455 S
C822 C816 1.368 . S
C822 C821 1.523 . S
C823 C807 1.429 . S
C823 C819 1.429 . S
C823 C824 1.523 . S
C824 C808 1.368 1_655 S
C824 C820 1.368 . S
C824 C823 1.523 . S
H825 C800 0.950 . S
H826 C802 0.950 . S
H827 C803 0.949 . S
H828 C805 0.950 . S
H829 C807 0.950 . S
C830 C831 1.349 . S
C830 C832 1.327 . S
C830 H855 0.950 . S
C831 C830 1.349 . S
C831 C847 1.349 . S
C832 C830 1.327 . S
C832 C851 1.429 . S
C832 H856 0.950 . S
C833 C850 1.574 . S
C833 C852 1.368 1_455 S
C833 H857 0.949 . S
H834 C838 0.949 . S
C835 C836 1.349 . S
C835 C837 1.327 . S
C835 H858 0.950 . S
C836 C835 1.349 . S
C836 C848 1.349 . S
C837 C835 1.327 . S
C837 C853 1.429 . S
C837 H859 0.950 . S
C838 H834 0.949 . S
C838 C846 1.574 . S
C838 C854 1.368 1_655 S
H839 C847 0.950 . S
H840 C845 0.950 1_455 S
H841 C846 0.949 . S
H842 C848 0.950 . S
H843 C849 0.950 1_655 S
H844 C850 0.949 . S
C845 H840 0.950 1_655 S
C845 C847 1.327 . S
C845 C851 1.429 . S
C846 C838 1.574 . S
C846 H841 0.949 . S
C846 C852 1.368 . S
C847 C831 1.349 . S
C847 H839 0.950 . S
C847 C845 1.327 . S
C848 C836 1.349 . S
C848 H842 0.950 . S
C848 C849 1.327 . S
C849 H843 0.950 1_455 S
C849 C848 1.327 . S
C849 C853 1.429 . S
C850 C833 1.574 . S
C850 H844 0.949 . S
C850 C854 1.368 . S
C851 C832 1.429 . S
C851 C845 1.429 . S
C851 C852 1.523 . S
C852 C833 1.368 1_655 S
C852 C846 1.368 . S
C852 C851 1.523 . S
C853 C837 1.429 . S
C853 C849 1.429 . S
C853 C854 1.523 . S
C854 C838 1.368 1_455 S
C854 C850 1.368 . S
C854 C853 1.523 . S
H855 C830 0.950 . S
H856 C832 0.950 . S
H857 C833 0.949 . S
H858 C835 0.950 . S
H859 C837 0.950 . S
C860 C861 1.349 . S
C860 C862 1.327 . S
C860 H885 0.950 . S
C861 C860 1.349 . S
C861 C877 1.349 . S
C862 C860 1.327 . S
C862 C881 1.429 . S
C862 H886 0.950 . S
C863 C880 1.574 . S
C863 C882 1.368 1_455 S
C863 H887 0.949 . S
H864 C868 0.949 . S
C865 C866 1.349 . S
C865 C867 1.327 . S
C865 H888 0.950 . S
C866 C865 1.349 . S
C866 C878 1.349 . S
C867 C865 1.327 . S
C867 C883 1.429 . S
C867 H889 0.950 . S
C868 H864 0.949 . S
C868 C876 1.574 . S
C868 C884 1.368 1_655 S
H869 C877 0.950 . S
H870 C875 0.950 . S
H871 C876 0.949 . S
H872 C878 0.950 . S
H873 C879 0.950 1_655 S
H874 C880 0.949 . S
C875 H870 0.950 . S
C875 C877 1.327 . S
C875 C881 1.429 . S
C876 C868 1.574 . S
C876 H871 0.949 . S
C876 C882 1.368 . S
C877 C861 1.349 . S
C877 H869 0.950 . S
C877 C875 1.327 . S
C878 C866 1.349 . S
C878 H872 0.950 . S
C878 C879 1.327 . S
C879 H873 0.950 1_455 S
C879 C878 1.327 . S
C879 C883 1.429 . S
C880 C863 1.574 . S
C880 H874 0.949 . S
C880 C884 1.368 . S
C881 C862 1.429 . S
C881 C875 1.429 . S
C881 C882 1.523 . S
C882 C863 1.368 1_655 S
C882 C876 1.368 . S
C882 C881 1.523 . S
C883 C867 1.429 . S
C883 C879 1.429 . S
C883 C884 1.523 . S
C884 C868 1.368 1_455 S
C884 C880 1.368 . S
C884 C883 1.523 . S
H885 C860 0.950 . S
H886 C862 0.950 . S
H887 C863 0.949 . S
H888 C865 0.950 . S
H889 C867 0.950 . S
C890 C891 1.349 . S
C890 C892 1.327 . S
C890 H915 0.950 . S
C891 C890 1.349 . S
C891 C907 1.349 . S
C892 C890 1.327 . S
C892 C911 1.429 . S
C892 H916 0.950 . S
C893 C910 1.574 . S
C893 C912 1.368 1_455 S
C893 H917 0.949 . S
H894 C898 0.949 . S
C895 C896 1.349 . S
C895 C897 1.327 . S
C895 H918 0.950 . S
C896 C895 1.349 . S
C896 C908 1.349 . S
C897 C895 1.327 . S
C897 C913 1.429 . S
C897 H919 0.950 . S
C898 H894 0.949 . S
C898 C906 1.574 . S
C898 C914 1.368 1_655 S
H899 C907 0.950 . S
H900 C905 0.950 1_455 S
H901 C906 0.949 . S
H902 C908 0.950 . S
H903 C909 0.950 1_655 S
H904 C910 0.949 . S
C905 H900 0.950 1_655 S
C905 C907 1.327 . S
C905 C911 1.429 . S
C906 C898 1.574 . S
C906 H901 0.949 . S
C906 C912 1.368 . S
C907 C891 1.349 . S
C907 H899 0.950 . S
C907 C905 1.327 . S
C908 C896 1.349 . S
C908 H902 0.950 . S
C908 C909 1.327 . S
C909 H903 0.950 1_455 S
C909 C908 1.327 . S
C909 C913 1.429 . S
C910 C893 1.574 . S
C910 H904 0.949 . S
C910 C914 1.368 . S
C911 C892 1.429 . S
C911 C905 1.429 . S
C911 C912 1.523 . S
C912 C893 1.368 1_655 S
C912 C906 1.368 . S
C912 C911 1.523 . S
C913 C897 1.429 . S
C913 C909 1.429 . S
C913 C914 1.523 . S
C914 C898 1.368 1_455 S
C914 C910 1.368 . S
C914 C913 1.523 . S
H915 C890 0.950 . S
H916 C892 0.950 . S
H917 C893 0.949 . S
H918 C895 0.950 . S
H919 C897 0.950 . S
C920 C921 1.349 . S
C920 C922 1.327 . S
C920 H945 0.950 . S
C921 C920 1.349 . S
C921 C937 1.349 . S
C922 C920 1.327 . S
C922 C941 1.429 . S
C922 H946 0.950 . S
C923 C940 1.574 . S
C923 C942 1.368 . S
C923 H947 0.949 . S
H924 C928 0.949 . S
C925 C926 1.349 . S
C925 C927 1.327 . S
C925 H948 0.950 . S
C926 C925 1.349 . S
C926 C938 1.349 . S
C927 C925 1.327 . S
C927 C943 1.429 . S
C927 H949 0.950 . S
C928 H924 0.949 . S
C928 C936 1.574 . S
C928 C944 1.368 . S
H929 C937 0.950 . S
H930 C935 0.950 . S
H931 C936 0.949 . S
H932 C938 0.950 . S
H933 C939 0.950 . S
H934 C940 0.949 . S
C935 H930 0.950 . S
C935 C937 1.327 . S
C935 C941 1.429 . S
C936 C928 1.574 . S
C936 H931 0.949 . S
C936 C942 1.368 . S
C937 C921 1.349 . S
C937 H929 0.950 . S
C937 C935 1.327 . S
C938 C926 1.349 . S
C938 H932 0.950 . S
C938 C939 1.327 . S
C939 H933 0.950 . S
C939 C938 1.327 . S
C939 C943 1.429 . S
C940 C923 1.574 . S
C940 H934 0.949 . S
C940 C944 1.368 . S
C941 C922 1.429 . S
C941 C935 1.429 . S
C941 C942 1.523 . S
C942 C923 1.368 . S
C942 C936 1.368 . S
C942 C941 1.523 . S
C943 C927 1.429 . S
C943 C939 1.429 . S
C943 C944 1.523 . S
C944 C928 1.368 . S
C944 C940 1.368 . S
C944 C943 1.523 . S
H945 C920 0.950 . S
H946 C922 0.950 . S
H947 C923 0.949 . S
H948 C925 0.950 . S
H949 C927 0.950 . S
C950 C951 1.349 . S
C950 C952 1.327 . S
C950 H975 0.950 . S
C951 C950 1.349 . S
C951 C967 1.349 . S
C952 C950 1.327 . S
C952 C971 1.429 . S
C952 H976 0.950 . S
C953 C970 1.574 . S
C953 C972 1.368 . S
C953 H977 0.949 . S
H954 C958 0.949 . S
C955 C956 1.349 . S
C955 C957 1.327 . S
C955 H978 0.950 . S
C956 C955 1.349 . S
C956 C968 1.349 . S
C957 C955 1.327 . S
C957 C973 1.429 . S
C957 H979 0.950 . S
C958 H954 0.949 . S
C958 C966 1.574 . S
C958 C974 1.368 . S
H959 C967 0.950 . S
H960 C965 0.950 . S
H961 C966 0.949 . S
H962 C968 0.950 . S
H963 C969 0.950 . S
H964 C970 0.949 . S
C965 H960 0.950 . S
C965 C967 1.327 . S
C965 C971 1.429 . S
C966 C958 1.574 . S
C966 H961 0.949 . S
C966 C972 1.368 . S
C967 C951 1.349 . S
C967 H959 0.950 . S
C967 C965 1.327 . S
C968 C956 1.349 . S
C968 H962 0.950 . S
C968 C969 1.327 . S
C969 H963 0.950 . S
C969 C968 1.327 . S
C969 C973 1.429 . S
C970 C953 1.574 . S
C970 H964 0.949 . S
C970 C974 1.368 . S
C971 C952 1.429 . S
C971 C965 1.429 . S
C971 C972 1.523 . S
C972 C953 1.368 . S
C972 C966 1.368 . S
C972 C971 1.523 . S
C973 C957 1.429 . S
C973 C969 1.429 . S
C973 C974 1.523 . S
C974 C958 1.368 . S
C974 C970 1.368 . S
C974 C973 1.523 . S
H975 C950 0.950 . S
H976 C952 0.950 . S
H977 C953 0.949 . S
H978 C955 0.950 . S
H979 C957 0.950 . S
C980 C981 1.349 . S
C980 C982 1.327 . S
C980 H1005 0.950 . S
C981 C980 1.349 . S
C981 C997 1.349 . S
C982 C980 1.327 . S
C982 C1001 1.429 . S
C982 H1006 0.950 . S
C983 C1000 1.574 . S
C983 C1002 1.368 . S
C983 H1007 0.949 . S
H984 C988 0.949 . S
C985 C986 1.349 . S
C985 C987 1.327 . S
C985 H1008 0.950 . S
C986 C985 1.349 . S
C986 C998 1.349 . S
C987 C985 1.327 . S
C987 C1003 1.429 . S
C987 H1009 0.950 . S
C988 H984 0.949 . S
C988 C996 1.574 . S
C988 C1004 1.368 . S
H989 C997 0.950 . S
H990 C995 0.950 . S
H991 C996 0.949 . S
H992 C998 0.950 . S
H993 C999 0.950 . S
H994 C1000 0.949 . S
C995 H990 0.950 . S
C995 C997 1.327 . S
C995 C1001 1.429 . S
C996 C988 1.574 . S
C996 H991 0.949 . S
C996 C1002 1.368 . S
C997 C981 1.349 . S
C997 H989 0.950 . S
C997 C995 1.327 . S
C998 C986 1.349 . S
C998 H992 0.950 . S
C998 C999 1.327 . S
C999 H993 0.950 . S
C999 C998 1.327 . S
C999 C1003 1.429 . S
C1000 C983 1.574 . S
C1000 H994 0.949 . S
C1000 C1004 1.368 . S
C1001 C982 1.429 . S
C1001 C995 1.429 . S
C1001 C1002 1.523 . S
C1002 C983 1.368 . S
C1002 C996 1.368 . S
C1002 C1001 1.523 . S
C1003 C987 1.429 . S
C1003 C999 1.429 . S
C1003 C1004 1.523 . S
C1004 C988 1.368 . S
C1004 C1000 1.368 . S
C1004 C1003 1.523 . S
H1005 C980 0.950 . S
H1006 C982 0.950 . S
H1007 C983 0.949 . S
H1008 C985 0.950 . S
H1009 C987 0.950 . S
C1010 C1011 1.349 . S
C1010 C1012 1.327 . S
C1010 H1035 0.950 . S
C1011 C1010 1.349 . S
C1011 C1027 1.349 . S
C1012 C1010 1.327 . S
C1012 C1031 1.429 . S
C1012 H1036 0.950 . S
C1013 C1030 1.574 . S
C1013 C1032 1.368 . S
C1013 H1037 0.949 . S
H1014 C1018 0.949 . S
C1015 C1016 1.349 . S
C1015 C1017 1.327 . S
C1015 H1038 0.950 . S
C1016 C1015 1.349 . S
C1016 C1028 1.349 . S
C1017 C1015 1.327 . S
C1017 C1033 1.429 . S
C1017 H1039 0.950 . S
C1018 H1014 0.949 . S
C1018 C1026 1.574 . S
C1018 C1034 1.368 . S
H1019 C1027 0.950 . S
H1020 C1025 0.950 . S
H1021 C1026 0.949 . S
H1022 C1028 0.950 . S
H1023 C1029 0.950 . S
H1024 C1030 0.949 . S
C1025 H1020 0.950 . S
C1025 C1027 1.327 . S
C1025 C1031 1.429 . S
C1026 C1018 1.574 . S
C1026 H1021 0.949 . S
C1026 C1032 1.368 . S
C1027 C1011 1.349 . S
C1027 H1019 0.950 . S
C1027 C1025 1.327 . S
C1028 C1016 1.349 . S
C1028 H1022 0.950 . S
C1028 C1029 1.327 . S
C1029 H1023 0.950 . S
C1029 C1028 1.327 . S
C1029 C1033 1.429 . S
C1030 C1013 1.574 . S
C1030 H1024 0.949 . S
C1030 C1034 1.368 . S
C1031 C1012 1.429 . S
C1031 C1025 1.429 . S
C1031 C1032 1.523 . S
C1032 C1013 1.368 . S
C1032 C1026 1.368 . S
C1032 C1031 1.523 . S
C1033 C1017 1.429 . S
C1033 C1029 1.429 . S
C1033 C1034 1.523 . S
C1034 C1018 1.368 . S
C1034 C1030 1.368 . S
C1034 C1033 1.523 . S
H1035 C1010 0.950 . S
H1036 C1012 0.950 . S
H1037 C1013 0.949 . S
H1038 C1015 0.950 . S
H1039 C1017 0.950 . S
C321 C6 1.599 . S
C326 C15 1.598 . S
C351 C55 1.649 . S
C356 C46 1.649 . S
C381 C86 1.606 . S
C386 C95 1.606 . S
C411 C126 1.606 . S
C416 C135 1.606 . S
C441 C166 1.599 . S
C446 C175 1.598 . S
C471 C206 1.649 . S
C476 C215 1.649 . S
C501 C246 1.606 . S
C506 C255 1.606 . S
C531 C295 1.606 . S
C536 C286 1.606 . S
C561 C59 1.838 . S
C566 C19 1.824 . S
C591 C139 1.827 . S
C596 C90 1.827 . S
C621 C179 1.824 . S
C626 C219 1.838 . S
C651 C250 1.827 . S
C656 C299 1.827 . S
C681 C10 1.715 . S
C686 C210 1.721 1_556 S
C711 C170 1.715 . S
C716 C50 1.721 1_556 S
C741 C99 1.717 . S
C746 C290 1.717 . S
C771 C130 1.717 . S
C776 C259 1.717 . S
C801 C9 1.755 . S
C806 C129 1.751 . S
C831 C49 1.613 . S
C836 C89 1.508 . S
C861 C58 1.661 . S
C866 C98 1.810 . S
C891 C138 1.549 . S
C896 C18 1.549 . S
C921 C169 1.755 . S
C926 C289 1.751 . S
C951 C209 1.613 . S
C956 C249 1.508 . S
C981 C218 1.661 . S
C986 C258 1.810 . S
C1011 C298 1.549 . S
C1016 C178 1.549 . S
