# Generated by pormake.
# Topology yfm, (5)-cn, num edge types: 1
# Building blocks:
#     Node 0, Type 0, BuildingBlock: BEQFEK_clean_sbu_0, # of connection points: 5
#     Node 1, Type 0, BuildingBlock: BEQFEK_clean_sbu_0, # of connection points: 5
#     Node 2, Type 0, BuildingBlock: BEQFEK_clean_sbu_0, # of connection points: 5
#     Node 3, Type 0, BuildingBlock: BEQFEK_clean_sbu_0, # of connection points: 5
#     Node 4, Type 0, BuildingBlock: BEQFEK_clean_sbu_0, # of connection points: 5
#     Node 5, Type 0, BuildingBlock: BEQFEK_clean_sbu_0, # of connection points: 5
#     Node 6, Type 0, BuildingBlock: BEQFEK_clean_sbu_0, # of connection points: 5
#     Node 7, Type 0, BuildingBlock: BEQFEK_clean_sbu_0, # of connection points: 5
#     Node 8, Type 0, BuildingBlock: BEQFEK_clean_sbu_0, # of connection points: 5
#     Node 9, Type 0, BuildingBlock: BEQFEK_clean_sbu_0, # of connection points: 5
#     Node 10, Type 0, BuildingBlock: BEQFEK_clean_sbu_0, # of connection points: 5
#     Node 11, Type 0, BuildingBlock: BEQFEK_clean_sbu_0, # of connection points: 5
#     Node 12, Type 0, BuildingBlock: BEQFEK_clean_sbu_0, # of connection points: 5
#     Node 13, Type 0, BuildingBlock: BEQFEK_clean_sbu_0, # of connection points: 5
#     Node 14, Type 0, BuildingBlock: BEQFEK_clean_sbu_0, # of connection points: 5
#     Node 15, Type 0, BuildingBlock: BEQFEK_clean_sbu_0, # of connection points: 5
#     Node 16, Type 0, BuildingBlock: BEQFEK_clean_sbu_0, # of connection points: 5
#     Node 17, Type 0, BuildingBlock: BEQFEK_clean_sbu_0, # of connection points: 5
#     Node 18, Type 0, BuildingBlock: BEQFEK_clean_sbu_0, # of connection points: 5
#     Node 19, Type 0, BuildingBlock: BEQFEK_clean_sbu_0, # of connection points: 5
#     Node 20, Type 0, BuildingBlock: BEQFEK_clean_sbu_0, # of connection points: 5
#     Node 21, Type 0, BuildingBlock: BEQFEK_clean_sbu_0, # of connection points: 5
#     Node 22, Type 0, BuildingBlock: BEQFEK_clean_sbu_0, # of connection points: 5
#     Node 23, Type 0, BuildingBlock: BEQFEK_clean_sbu_0, # of connection points: 5
#     Node 24, Type 0, BuildingBlock: BEQFEK_clean_sbu_0, # of connection points: 5
#     Node 25, Type 0, BuildingBlock: BEQFEK_clean_sbu_0, # of connection points: 5
#     Node 26, Type 0, BuildingBlock: BEQFEK_clean_sbu_0, # of connection points: 5
#     Node 27, Type 0, BuildingBlock: BEQFEK_clean_sbu_0, # of connection points: 5
#     Node 28, Type 0, BuildingBlock: BEQFEK_clean_sbu_0, # of connection points: 5
#     Node 29, Type 0, BuildingBlock: BEQFEK_clean_sbu_0, # of connection points: 5
#     Node 30, Type 0, BuildingBlock: BEQFEK_clean_sbu_0, # of connection points: 5
#     Node 31, Type 0, BuildingBlock: BEQFEK_clean_sbu_0, # of connection points: 5
#     Edge 32, Type (0, 0), None
#     Edge 33, Type (0, 0), None
#     Edge 34, Type (0, 0), None
#     Edge 35, Type (0, 0), None
#     Edge 36, Type (0, 0), None
#     Edge 37, Type (0, 0), None
#     Edge 38, Type (0, 0), None
#     Edge 39, Type (0, 0), None
#     Edge 40, Type (0, 0), None
#     Edge 41, Type (0, 0), None
#     Edge 42, Type (0, 0), None
#     Edge 43, Type (0, 0), None
#     Edge 44, Type (0, 0), None
#     Edge 45, Type (0, 0), None
#     Edge 46, Type (0, 0), None
#     Edge 47, Type (0, 0), None
#     Edge 48, Type (0, 0), None
#     Edge 49, Type (0, 0), None
#     Edge 50, Type (0, 0), None
#     Edge 51, Type (0, 0), None
#     Edge 52, Type (0, 0), None
#     Edge 53, Type (0, 0), None
#     Edge 54, Type (0, 0), None
#     Edge 55, Type (0, 0), None
#     Edge 56, Type (0, 0), None
#     Edge 57, Type (0, 0), None
#     Edge 58, Type (0, 0), None
#     Edge 59, Type (0, 0), None
#     Edge 60, Type (0, 0), None
#     Edge 61, Type (0, 0), None
#     Edge 62, Type (0, 0), None
#     Edge 63, Type (0, 0), None
#     Edge 64, Type (0, 0), None
#     Edge 65, Type (0, 0), None
#     Edge 66, Type (0, 0), None
#     Edge 67, Type (0, 0), None
#     Edge 68, Type (0, 0), None
#     Edge 69, Type (0, 0), None
#     Edge 70, Type (0, 0), None
#     Edge 71, Type (0, 0), None
#     Edge 72, Type (0, 0), None
#     Edge 73, Type (0, 0), None
#     Edge 74, Type (0, 0), None
#     Edge 75, Type (0, 0), None
#     Edge 76, Type (0, 0), None
#     Edge 77, Type (0, 0), None
#     Edge 78, Type (0, 0), None
#     Edge 79, Type (0, 0), None
#     Edge 80, Type (0, 0), None
#     Edge 81, Type (0, 0), None
#     Edge 82, Type (0, 0), None
#     Edge 83, Type (0, 0), None
#     Edge 84, Type (0, 0), None
#     Edge 85, Type (0, 0), None
#     Edge 86, Type (0, 0), None
#     Edge 87, Type (0, 0), None
#     Edge 88, Type (0, 0), None
#     Edge 89, Type (0, 0), None
#     Edge 90, Type (0, 0), None
#     Edge 91, Type (0, 0), None
#     Edge 92, Type (0, 0), None
#     Edge 93, Type (0, 0), None
#     Edge 94, Type (0, 0), None
#     Edge 95, Type (0, 0), None
#     Edge 96, Type (0, 0), None
#     Edge 97, Type (0, 0), None
#     Edge 98, Type (0, 0), None
#     Edge 99, Type (0, 0), None
#     Edge 100, Type (0, 0), None
#     Edge 101, Type (0, 0), None
#     Edge 102, Type (0, 0), None
#     Edge 103, Type (0, 0), None
#     Edge 104, Type (0, 0), None
#     Edge 105, Type (0, 0), None
#     Edge 106, Type (0, 0), None
#     Edge 107, Type (0, 0), None
#     Edge 108, Type (0, 0), None
#     Edge 109, Type (0, 0), None
#     Edge 110, Type (0, 0), None
#     Edge 111, Type (0, 0), None
# Relax obj value: 0.580
# Max RMSD: 0.249
# Mean RMSD: 0.249
data_MOF--net-yfm--node1-BEQFEK_clean_sbu_0--edge1-none
_symmetry_space_group_name_H-M    P1
_symmetry_Int_Tables_number       1
_symmetry_cell_setting            triclinic
loop_
_symmetry_equiv_pos_as_xyz
'x, y, z'
_cell_length_a     32.655907
_cell_length_b     32.515334
_cell_length_c     26.979905
_cell_angle_alpha  91.090271
_cell_angle_beta   90.048416
_cell_angle_gamma 89.977918
loop_
_atom_site_label
_atom_site_type_symbol
_atom_site_fract_x
_atom_site_fract_y
_atom_site_fract_z
_atom_type_partial_charge
Co0 Co 0.20588 0.14211 0.14935 0.0
Co1 Co 0.24104 0.1018 0.0532 0.0
C2 C 0.29406 0.10843 0.13586 0.0
O3 O 0.26293 0.11798 0.16251 0.0
O4 O 0.29193 0.10764 0.08887 0.0
C5 C 0.21273 0.18864 0.24029 0.0
O6 O 0.25206 0.18825 0.23021 0.0
C7 C 0.28769 0.06039 0.97112 0.0
C8 C 0.25272 0.07504 0.90379 0.0
C9 C 0.2879 0.05512 0.9192 0.0
N10 N 0.25414 0.08185 0.98514 0.0
N11 N 0.2335 0.09062 0.94445 0.0
C12 C 0.31996 0.04841 1.00757 0.0
H13 H 0.30525 0.03867 0.0425 0.0
H14 H 0.33918 0.07574 1.01619 0.0
H15 H 0.34023 0.02361 0.994 0.0
C16 C 0.19969 0.21309 0.08828 0.0
N17 N 0.2022 0.17209 0.09103 0.0
N18 N 0.22182 0.15728 0.05221 0.0
C19 C 0.23679 0.18928 0.02665 0.0
C20 C 0.22387 0.22598 0.04929 0.0
C21 C 0.18065 0.24001 0.12765 0.0
H22 H 0.15207 0.22559 0.14115 0.0
H23 H 0.20165 0.2437 0.15956 0.0
H24 H 0.1738 0.27096 0.11302 0.0
O25 O 0.16834 0.09735 0.14448 0.0
O26 O 0.20983 0.05919 0.09833 0.0
H27 H 0.2578 0.17379 0.95386 0.0
H28 H 0.28653 0.21459 0.98363 0.0
C29 C 0.27076 0.18488 0.98969 0.0
H30 H 0.29313 0.16157 1.00228 0.0
H31 H 0.20649 0.10778 0.94424 0.0
O32 O 0.1877 0.17346 0.20896 0.0
C33 C 0.18195 0.06239 0.13199 0.0
Co34 Co 0.09414 -0.00322 0.41051 0.0
Co35 Co 0.14313 0.99224 0.31012 0.0
C36 C 0.14166 0.06435 0.39137 0.0
O37 O 0.11781 0.04827 0.42237 0.0
O38 O 0.15226 0.04618 0.35048 0.0
C39 C 0.04693 0.00418 0.49854 0.0
O40 O 0.05201 0.04387 0.49275 0.0
C41 C 0.15289 0.03235 0.21305 0.0
C42 C 0.19512 0.99204 0.17117 0.0
C43 C 0.17393 0.0288 0.16779 0.0
N44 N 0.16142 -0.00029 0.2413 0.0
N45 N 0.18618 0.97529 0.21546 0.0
C46 C 0.12718 0.06769 0.2311 0.0
H47 H 0.10881 0.05879 0.26378 0.0
H48 H 0.10642 0.07799 0.20119 0.0
H49 H 0.1474 0.09376 0.24202 0.0
C50 C 0.02841 0.00296 0.34299 0.0
N51 N 0.06842 -0.00113 0.34996 0.0
N52 N 0.08552 0.98189 0.31087 0.0
C53 C 0.05514 0.96868 0.28039 0.0
C54 C 0.01752 0.9808 0.30073 0.0
C55 C 0.00081 0.02551 0.37869 0.0
H56 H 0.01631 0.05388 0.39243 0.0
H57 H 0.97136 0.03364 0.36079 0.0
H58 H -0.00552 0.0065 0.41127 0.0
O59 O 0.13932 0.95711 0.41524 0.0
O60 O 0.17627 0.94971 0.34698 0.0
H61 H 0.04839 0.91236 0.23937 0.0
H62 H 0.04507 0.95776 0.203 0.0
C63 C 0.06157 0.94346 0.23427 0.0
H64 H 0.09468 0.94069 0.22556 0.0
H65 H 0.19822 0.94786 0.22872 0.0
O66 O 0.05724 0.97963 0.46379 0.0
C67 C 0.16912 0.94077 0.39211 0.0
Co68 Co 0.21795 0.83034 0.66143 0.0
Co69 Co 0.23425 0.87525 0.55981 0.0
C70 C 0.16553 0.8932 0.63878 0.0
O71 O 0.17004 0.86303 0.66713 0.0
O72 O 0.18765 0.89832 0.60034 0.0
C73 C 0.20014 0.79901 0.75587 0.0
O74 O 0.16241 0.80903 0.74436 0.0
C75 C 0.19139 0.90182 0.46962 0.0
C76 C 0.24067 0.91571 0.41685 0.0
C77 C 0.19844 0.91676 0.42225 0.0
N78 N 0.22738 0.89292 0.49135 0.0
N79 N 0.25676 0.90057 0.45905 0.0
C80 C 0.15078 0.89693 0.49455 0.0
H81 H 0.15191 0.87093 0.52056 0.0
H82 H 0.12616 0.89122 0.46688 0.0
H83 H 0.14344 0.92553 0.51586 0.0
C84 C 0.21931 0.75896 0.5956 0.0
N85 N 0.21964 0.79982 0.60187 0.0
N86 N 0.23519 0.81682 0.56237 0.0
C87 C 0.24903 0.7867 0.53164 0.0
C88 C 0.24003 0.74873 0.55206 0.0
C89 C 0.20247 0.73018 0.63325 0.0
H90 H 0.17036 0.73899 0.64174 0.0
H91 H 0.20331 0.69772 0.6198 0.0
H92 H 0.21975 0.73333 0.66833 0.0
O93 O 0.26058 0.87289 0.66553 0.0
O94 O 0.28117 0.90161 0.59596 0.0
H95 H 0.28792 0.76539 0.47158 0.0
H96 H 0.25499 0.80848 0.458 0.0
C97 C 0.2745 0.79436 0.48676 0.0
H98 H 0.29917 0.81662 0.49628 0.0
H99 H 0.28792 0.8968 0.46633 0.0
O100 O 0.22737 0.79893 0.72237 0.0
C101 C 0.2828 0.89854 0.6431 0.0
Co102 Co 0.38653 0.96616 0.90936 0.0
Co103 Co 0.34323 0.97727 0.8091 0.0
C104 C 0.32867 0.90779 0.891 0.0
O105 O 0.35835 0.91613 0.92021 0.0
O106 O 0.32224 0.92884 0.85183 0.0
C107 C 0.42759 0.98086 1.00409 0.0
O108 O 0.41994 0.9424 1.01487 0.0
C109 C 0.30096 0.93618 0.72501 0.0
C110 C 0.33729 0.95379 0.65974 0.0
C111 C 0.30619 0.92803 0.67438 0.0
N112 N 0.32886 0.96415 0.74009 0.0
N113 N 0.35005 0.97485 0.70051 0.0
C114 C 0.26873 0.91905 0.75838 0.0
H115 H 0.26452 0.93924 0.79158 0.0
H116 H 0.27798 0.88787 0.77014 0.0
H117 H 0.23892 0.91658 0.73876 0.0
C118 C 0.45623 0.95532 0.84914 0.0
N119 N 0.4158 0.96059 0.85155 0.0
N120 N 0.40253 0.98095 0.81349 0.0
C121 C 0.43594 0.9943 0.78854 0.0
C122 C 0.47114 0.97768 0.81005 0.0
C123 C 0.48033 0.93291 0.88753 0.0
H124 H 0.46425 0.90397 0.8967 0.0
H125 H 0.51176 0.92578 0.87425 0.0
H126 H 0.48227 0.95152 0.92216 0.0
O127 O 0.34209 0.00733 0.90982 0.0
O128 O 0.31276 0.02586 0.8406 0.0
H129 H 0.45945 0.05147 0.76214 0.0
H130 H 0.44297 0.01598 0.71483 0.0
C131 C 0.4355 0.0285 0.75229 0.0
H132 H 0.40517 0.04392 0.75197 0.0
H133 H 0.37401 0.99578 0.70098 0.0
O134 O 0.42082 0.99293 0.96068 0.0
C135 C 0.31619 0.02934 0.88773 0.0
Co136 Co 0.20644 0.85068 0.89828 0.0
Co137 Co 0.2413 0.89121 0.99454 0.0
C138 C 0.29443 0.8847 0.91204 0.0
O139 O 0.26338 0.87501 0.88527 0.0
O140 O 0.29225 0.88555 0.95902 0.0
C141 C 0.21353 0.80402 0.80744 0.0
O142 O 0.25284 0.80442 0.81769 0.0
C143 C 0.28767 0.93282 0.07673 0.0
C144 C 0.2528 0.91791 0.14397 0.0
C145 C 0.28786 0.93804 0.12865 0.0
N146 N 0.25424 0.91121 0.06262 0.0
N147 N 0.23365 0.90229 0.10325 0.0
C148 C 0.31987 0.94495 0.04035 0.0
H149 H 0.30512 0.95467 1.0054 0.0
H150 H 0.33921 0.91769 0.03174 0.0
H151 H 0.34004 0.96981 0.05398 0.0
C152 C 0.20055 0.77973 0.95945 0.0
N153 N 0.20287 0.82074 0.95661 0.0
N154 N 0.22231 0.83569 0.99552 0.0
C155 C 0.23735 0.80381 1.02127 0.0
C156 C 0.22466 0.76704 0.99865 0.0
C157 C 0.18178 0.75266 0.92001 0.0
H158 H 0.15312 0.76689 0.90635 0.0
H159 H 0.20287 0.74909 0.88822 0.0
H160 H 0.17511 0.72168 0.93465 0.0
O161 O 0.16871 0.89532 0.90302 0.0
O162 O 0.20994 0.93367 0.94932 0.0
H163 H 0.25804 0.81921 0.09426 0.0
H164 H 0.28725 0.77882 0.06443 0.0
C165 C 0.27119 0.8084 0.05844 0.0
H166 H 0.29336 0.83196 0.0461 0.0
H167 H 0.20674 0.88499 0.10338 0.0
O168 O 0.18843 0.81924 0.83864 0.0
C169 C 0.18212 0.93034 0.91556 0.0
Co170 Co 0.3863 0.02711 0.13853 0.0
Co171 Co 0.34315 0.01591 0.23874 0.0
C172 C 0.32838 0.08544 0.15698 0.0
O173 O 0.35805 0.07715 0.1278 0.0
O174 O 0.32199 0.06436 0.19611 0.0
C175 C 0.42754 0.01237 0.0438 0.0
O176 O 0.42022 0.05089 0.03293 0.0
C177 C 0.30067 0.05652 0.32291 0.0
C178 C 0.33813 0.04034 0.38791 0.0
C179 C 0.30617 0.06513 0.37341 0.0
N180 N 0.32913 0.02915 0.30777 0.0
N181 N 0.35105 0.01934 0.34718 0.0
C182 C 0.26794 0.07294 0.28965 0.0
H183 H 0.26405 0.05266 0.25645 0.0
H184 H 0.27646 0.1043 0.27784 0.0
H185 H 0.23819 0.07483 0.30944 0.0
C186 C 0.45621 0.03718 0.19852 0.0
N187 N 0.4157 0.0325 0.1963 0.0
N188 N 0.40238 0.01196 0.23416 0.0
C189 C 0.43573 -0.00209 0.25871 0.0
C190 C 0.47101 0.01425 0.23721 0.0
C191 C 0.48042 0.05949 0.16022 0.0
H192 H 0.46437 0.08841 0.1508 0.0
H193 H 0.51179 0.06662 0.17371 0.0
H194 H 0.48254 0.04078 0.1257 0.0
O195 O 0.34192 0.98591 0.13819 0.0
O196 O 0.31259 0.96734 0.20732 0.0
H197 H 0.45797 0.93972 0.28348 0.0
H198 H 0.44377 0.97522 0.33185 0.0
C199 C 0.43501 0.96337 0.29448 0.0
H200 H 0.40422 0.94897 0.29562 0.0
H201 H 0.37574 -0.00074 0.34656 0.0
O202 O 0.42039 0.0003 0.08711 0.0
C203 C 0.31604 0.96388 0.16021 0.0
Co204 Co 0.21723 0.16231 0.38624 0.0
Co205 Co 0.23384 0.11745 0.48782 0.0
C206 C 0.16516 0.09922 0.40874 0.0
O207 O 0.1695 0.12941 0.3804 0.0
O208 O 0.18734 0.09416 0.44719 0.0
C209 C 0.19927 0.19363 0.29181 0.0
O210 O 0.16157 0.18344 0.30317 0.0
C211 C 0.19112 0.0908 0.57793 0.0
C212 C 0.24046 0.07683 0.63068 0.0
C213 C 0.19821 0.07586 0.62531 0.0
N214 N 0.22709 0.09969 0.55623 0.0
N215 N 0.25651 0.09199 0.58852 0.0
C216 C 0.15049 0.09568 0.55296 0.0
H217 H 0.15158 0.12168 0.52695 0.0
H218 H 0.12588 0.10139 0.58061 0.0
H219 H 0.14316 0.06708 0.53165 0.0
C220 C 0.21794 0.23366 0.45225 0.0
N221 N 0.2187 0.19281 0.44586 0.0
N222 N 0.23436 0.17588 0.48537 0.0
C223 C 0.24789 0.20607 0.51623 0.0
C224 C 0.23854 0.24401 0.49589 0.0
C225 C 0.20087 0.26236 0.41462 0.0
H226 H 0.16878 0.25342 0.4062 0.0
H227 H 0.20159 0.29483 0.42805 0.0
H228 H 0.21807 0.25925 0.37951 0.0
O229 O 0.2601 0.11993 0.3821 0.0
O230 O 0.28097 0.09142 0.45175 0.0
H231 H 0.28657 0.2276 0.57645 0.0
H232 H 0.254 0.18423 0.58983 0.0
C233 C 0.2734 0.19855 0.56116 0.0
H234 H 0.29825 0.17648 0.55167 0.0
H235 H 0.28765 0.09573 0.58124 0.0
O236 O 0.22648 0.19383 0.32539 0.0
C237 C 0.28251 0.09445 0.40461 0.0
Co238 Co 0.09421 0.99549 0.63675 0.0
Co239 Co 0.14314 0.00016 0.73726 0.0
C240 C 0.14188 0.92799 0.6561 0.0
O241 O 0.11804 0.94403 0.625 0.0
O242 O 0.15245 0.9462 0.697 0.0
C243 C 0.04697 0.9879 0.54865 0.0
O244 O 0.0522 0.94822 0.55442 0.0
C245 C 0.15298 0.96023 0.83441 0.0
C246 C 0.1951 0.00068 0.87633 0.0
C247 C 0.17399 0.96388 0.87971 0.0
N248 N 0.16145 0.99284 0.80612 0.0
N249 N 0.18614 0.01735 0.83197 0.0
C250 C 0.12737 0.92482 0.81636 0.0
H251 H 0.10896 0.93365 0.78364 0.0
H252 H 0.10665 0.9145 0.84625 0.0
H253 H 0.14766 0.89878 0.8055 0.0
C254 C 0.02853 0.98893 0.7042 0.0
N255 N 0.06849 0.99336 0.69724 0.0
N256 N 0.08552 0.01034 0.7364 0.0
C257 C 0.05508 0.02321 0.76695 0.0
C258 C 0.01753 0.01088 0.74657 0.0
C259 C 0.00107 0.96623 0.66845 0.0
H260 H 0.01674 0.93792 0.65478 0.0
H261 H 0.97166 0.95795 0.68628 0.0
H262 H -0.00535 0.98518 0.63584 0.0
O263 O 0.13924 0.0353 0.63207 0.0
O264 O 0.17613 0.04276 0.70045 0.0
H265 H 0.04762 0.07916 0.80856 0.0
H266 H 0.04535 0.03347 0.8445 0.0
C267 C 0.06138 0.04826 0.81325 0.0
H268 H 0.0945 0.0515 0.82175 0.0
H269 H 0.19811 0.04477 0.8187 0.0
O270 O 0.05723 0.01249 0.58339 0.0
C271 C 0.16898 0.0517 0.65532 0.0
Co272 Co 0.77789 0.86338 0.89859 0.0
Co273 Co 0.7494 0.90646 0.99599 0.0
C274 C 0.69108 0.90265 0.91491 0.0
O275 O 0.71953 0.88714 0.88748 0.0
O276 O 0.69668 0.90814 0.96113 0.0
C277 C 0.77343 0.81719 0.80623 0.0
O278 O 0.73367 0.81749 0.81337 0.0
C279 C 0.70675 0.93654 0.08493 0.0
C280 C 0.74958 0.92614 0.14657 0.0
C281 C 0.70987 0.93824 0.13633 0.0
N282 N 0.74217 0.92333 0.06532 0.0
N283 N 0.76791 0.91734 0.10251 0.0
C284 C 0.67053 0.94808 0.05456 0.0
H285 H 0.68073 0.96009 1.01872 0.0
H286 H 0.65069 0.92079 0.04822 0.0
H287 H 0.65286 0.97262 0.07341 0.0
C288 C 0.78885 0.79402 0.9608 0.0
N289 N 0.78457 0.8347 0.95671 0.0
N290 N 0.76499 0.84968 0.99528 0.0
C291 C 0.75117 0.81777 1.02187 0.0
C292 C 0.76498 0.78101 1.00006 0.0
C293 C 0.80933 0.7672 0.92237 0.0
H294 H 0.838 0.78211 0.9099 0.0
H295 H 0.78939 0.76308 0.88956 0.0
H296 H 0.81634 0.73646 0.93749 0.0
O297 O 0.81624 0.907 0.90169 0.0
O298 O 0.78355 0.9482 0.95428 0.0
H299 H 0.73072 0.83673 0.0938 0.0
H300 H 0.70485 0.79168 0.06935 0.0
C301 C 0.71793 0.82201 0.05975 0.0
H302 H 0.69344 0.84244 0.0457 0.0
H303 H 0.7975 0.90572 0.09806 0.0
O304 O 0.79682 0.832 0.83953 0.0
C305 C 0.80856 0.94267 0.91807 0.0
Co306 Co 0.89384 0.02756 0.63984 0.0
Co307 Co 0.85506 0.0047 0.74142 0.0
C308 C 0.8501 0.94526 0.6626 0.0
O309 O 0.86207 0.97387 0.63451 0.0
O310 O 0.85192 0.94952 0.70958 0.0
C311 C 0.93225 0.9957 0.55106 0.0
O312 O 0.92878 0.96063 0.574 0.0
C313 C 0.81955 0.9707 0.8317 0.0
C314 C 0.83841 0.01303 0.89228 0.0
C315 C 0.81931 0.97565 0.88318 0.0
N316 N 0.83813 0.0029 0.81116 0.0
N317 N 0.84876 0.02861 0.84767 0.0
C318 C 0.80378 0.93481 0.80206 0.0
H319 H 0.79173 0.94563 0.76619 0.0
H320 H 0.82918 0.91285 0.79476 0.0
H321 H 0.77914 0.91868 0.82209 0.0
C322 C 0.96319 0.04903 0.70415 0.0
N323 N 0.92461 0.03643 0.69756 0.0
N324 N 0.91099 0.021 0.73884 0.0
C325 C 0.943 0.01668 0.76997 0.0
C326 C 0.97809 0.03293 0.74823 0.0
C327 C 0.98734 0.07072 0.6652 0.0
H328 H 0.97352 0.10145 0.65953 0.0
H329 H 0.98541 0.054 0.62918 0.0
H330 H 0.01987 0.07477 0.67627 0.0
O331 O 0.85464 0.07034 0.64421 0.0
O332 O 0.81484 0.03742 0.69701 0.0
H333 H 0.93538 0.00992 0.84784 0.0
H334 H 0.97164 0.97471 0.82064 0.0
C335 C 0.94179 0.99021 0.81474 0.0
H336 H 0.91705 0.96694 0.81106 0.0
H337 H 0.86502 0.05581 0.84247 0.0
O338 O 0.92424 0.02924 0.57465 0.0
C339 C 0.81946 0.06187 0.66064 0.0
Co340 Co 0.7748 0.14653 0.38744 0.0
Co341 Co 0.75459 0.09992 0.48481 0.0
C342 C 0.82579 0.07998 0.40584 0.0
O343 O 0.82237 0.11205 0.38019 0.0
O344 O 0.80215 0.07384 0.44305 0.0
C345 C 0.789 0.17796 0.29192 0.0
O346 O 0.82674 0.1659 0.30012 0.0
C347 C 0.79114 0.06874 0.57403 0.0
C348 C 0.74609 0.08087 0.63353 0.0
C349 C 0.78613 0.06887 0.62513 0.0
N350 N 0.75685 0.08244 0.553 0.0
N351 N 0.72939 0.08834 0.5886 0.0
C352 C 0.82664 0.052 0.54489 0.0
H353 H 0.81506 0.03289 0.51357 0.0
H354 H 0.8452 0.07768 0.53039 0.0
H355 H 0.84603 0.03161 0.56724 0.0
C356 C 0.77317 0.21756 0.45257 0.0
N357 N 0.77394 0.1766 0.44682 0.0
N358 N 0.75577 0.15936 0.48451 0.0
C359 C 0.73957 0.18963 0.51351 0.0
C360 C 0.74981 0.2276 0.49405 0.0
C361 C 0.79035 0.24646 0.41532 0.0
H362 H 0.82205 0.2369 0.40578 0.0
H363 H 0.79046 0.27868 0.42968 0.0
H364 H 0.77232 0.24461 0.38071 0.0
O365 O 0.72897 0.1075 0.38516 0.0
O366 O 0.7054 0.07778 0.45197 0.0
H367 H 0.69347 0.21152 0.56519 0.0
H368 H 0.72584 0.17082 0.58678 0.0
C369 C 0.70939 0.18263 0.55403 0.0
H370 H 0.68653 0.15946 0.5415 0.0
H371 H 0.69957 0.09856 0.58264 0.0
O372 O 0.76377 0.17879 0.32757 0.0
C373 C 0.70395 0.08338 0.40558 0.0
Co374 Co 0.60525 0.98345 0.14058 0.0
Co375 Co 0.63841 0.01856 0.23732 0.0
C376 C 0.65626 0.06558 0.15485 0.0
O377 O 0.64171 0.03454 0.13074 0.0
O378 O 0.64991 0.06939 0.20112 0.0
C379 C 0.56675 -0.00049 0.05 0.0
O380 O 0.56911 0.03749 0.06721 0.0
C381 C 0.67889 0.05605 0.32149 0.0
C382 C 0.64962 0.02844 0.38676 0.0
C383 C 0.67767 0.05806 0.37295 0.0
N384 N 0.65216 0.02759 0.30556 0.0
N385 N 0.63481 0.01089 0.34464 0.0
C386 C 0.7052 0.07999 0.28694 0.0
H387 H 0.71029 0.06179 0.2524 0.0
H388 H 0.6896 0.10924 0.27802 0.0
H389 H 0.73557 0.08724 0.30269 0.0
C390 C 0.52899 0.97808 0.19493 0.0
N391 N 0.56902 0.98652 0.19252 0.0
N392 N 0.58086 0.006 0.23284 0.0
C393 C 0.5471 0.01485 0.26007 0.0
C394 C 0.51286 -0.00278 0.23692 0.0
C395 C 0.50587 0.95543 0.15492 0.0
H396 H 0.52262 0.92682 0.14463 0.0
H397 H 0.50412 0.97426 0.12127 0.0
H398 H 0.47439 0.94767 0.16715 0.0
O399 O 0.64077 0.9385 0.15511 0.0
O400 O 0.67969 0.97864 0.20184 0.0
H401 H 0.54419 0.02844 0.33763 0.0
H402 H 0.51915 0.06557 0.29982 0.0
C403 C 0.54639 0.04528 0.30234 0.0
H404 H 0.57465 0.06421 0.30278 0.0
H405 H 0.6125 0.98795 0.34262 0.0
O406 O 0.57701 0.97024 0.07775 0.0
C407 C 0.67588 0.94868 0.17062 0.0
Co408 Co 0.77693 0.12843 0.14884 0.0
Co409 Co 0.74933 0.08468 0.05118 0.0
C410 C 0.69059 0.08858 0.13205 0.0
O411 O 0.71866 0.10461 0.15966 0.0
O412 O 0.69658 0.08264 0.08598 0.0
C413 C 0.77259 0.17455 0.24145 0.0
O414 O 0.7328 0.17441 0.23446 0.0
C415 C 0.70706 0.05436 0.96203 0.0
C416 C 0.74989 0.06509 0.90059 0.0
C417 C 0.71026 0.05274 0.91064 0.0
N418 N 0.74238 0.06772 0.98182 0.0
N419 N 0.76813 0.07389 0.94475 0.0
C420 C 0.67083 0.04278 0.99225 0.0
H421 H 0.68101 0.03073 0.0281 0.0
H422 H 0.65097 0.07008 0.99859 0.0
H423 H 0.65319 0.01829 0.97328 0.0
C424 C 0.78747 0.19762 0.08623 0.0
N425 N 0.78364 0.15691 0.09055 0.0
N426 N 0.7645 0.14155 0.05182 0.0
C427 C 0.75056 0.17317 0.02479 0.0
C428 C 0.76382 0.21016 0.04649 0.0
C429 C 0.80738 0.22485 0.12472 0.0
H430 H 0.83637 0.21052 0.13721 0.0
H431 H 0.78741 0.22848 0.15753 0.0
H432 H 0.81375 0.25575 0.10967 0.0
O433 O 0.81523 0.08471 0.1464 0.0
O434 O 0.78376 0.04324 0.09294 0.0
H435 H 0.73097 0.15415 0.9525 0.0
H436 H 0.70401 0.19853 0.9769 0.0
C437 C 0.71765 0.16842 0.98649 0.0
H438 H 0.6935 0.14745 1.00011 0.0
H439 H 0.79763 0.0857 0.94934 0.0
O440 O 0.79584 0.15989 0.20793 0.0
C441 C 0.80824 0.049 0.12966 0.0
Co442 Co 0.60575 0.00784 0.90617 0.0
Co443 Co 0.6387 0.97253 0.80944 0.0
C444 C 0.65674 0.92563 0.89199 0.0
O445 O 0.64218 0.95668 0.91605 0.0
O446 O 0.65036 0.92175 0.84572 0.0
C447 C 0.5669 0.99184 0.99654 0.0
O448 O 0.56916 0.95385 0.97935 0.0
C449 C 0.67917 0.93487 0.72541 0.0
C450 C 0.6497 0.96209 0.65996 0.0
C451 C 0.67787 0.93261 0.67395 0.0
N452 N 0.65235 0.96332 0.74117 0.0
N453 N 0.63488 0.97979 0.70198 0.0
C454 C 0.70563 0.91118 0.76011 0.0
H455 H 0.7107 0.92954 0.79453 0.0
H456 H 0.69016 0.88191 0.7692 0.0
H457 H 0.736 0.90396 0.74439 0.0
C458 C 0.52952 0.01355 0.85189 0.0
N459 N 0.56948 0.00484 0.85424 0.0
N460 N 0.58112 0.98515 0.814 0.0
C461 C 0.54721 0.97639 0.78692 0.0
C462 C 0.51314 0.99432 0.81008 0.0
C463 C 0.50667 0.03662 0.89176 0.0
H464 H 0.52384 0.06496 0.90212 0.0
H465 H 0.50451 0.01784 0.9254 0.0
H466 H 0.47535 0.04488 0.87935 0.0
O467 O 0.6412 0.05275 0.8916 0.0
O468 O 0.68005 0.01246 0.84498 0.0
H469 H 0.54377 0.9627 0.70942 0.0
H470 H 0.51898 0.92567 0.74752 0.0
C471 C 0.54621 0.94591 0.74472 0.0
H472 H 0.57447 0.92695 0.7441 0.0
H473 H 0.61249 0.00266 0.70385 0.0
O474 O 0.57746 0.02107 0.96892 0.0
C475 C 0.6763 0.04246 0.87617 0.0
Co476 Co 0.77506 0.84412 0.66013 0.0
Co477 Co 0.75504 0.89042 0.56241 0.0
C478 C 0.82603 0.91068 0.64156 0.0
O479 O 0.82264 0.87864 0.66726 0.0
O480 O 0.80245 0.91672 0.60424 0.0
C481 C 0.78963 0.81327 0.75576 0.0
O482 O 0.82737 0.82515 0.74729 0.0
C483 C 0.79157 0.92166 0.4732 0.0
C484 C 0.74648 0.90963 0.41363 0.0
C485 C 0.78651 0.92168 0.42209 0.0
N486 N 0.75733 0.90785 0.49417 0.0
N487 N 0.72985 0.90202 0.45852 0.0
C488 C 0.82703 0.93844 0.50242 0.0
H489 H 0.8154 0.95754 0.5337 0.0
H490 H 0.84563 0.91278 0.517 0.0
H491 H 0.84639 0.95885 0.48012 0.0
C492 C 0.77316 0.77273 0.59545 0.0
N493 N 0.77408 0.81372 0.601 0.0
N494 N 0.75634 0.83091 0.56292 0.0
C495 C 0.74041 0.80059 0.53374 0.0
C496 C 0.75031 0.76263 0.55355 0.0
C497 C 0.78965 0.74386 0.63322 0.0
H498 H 0.82147 0.75292 0.6429 0.0
H499 H 0.78926 0.71151 0.61929 0.0
H500 H 0.77149 0.74637 0.66765 0.0
O501 O 0.72921 0.88313 0.66214 0.0
O502 O 0.70574 0.91264 0.59508 0.0
H503 H 0.69521 0.77861 0.48088 0.0
H504 H 0.7275 0.81972 0.46035 0.0
C505 C 0.71073 0.80756 0.49262 0.0
H506 H 0.68749 0.83047 0.50484 0.0
H507 H 0.70004 0.89177 0.46442 0.0
O508 O 0.76424 0.81224 0.72025 0.0
C509 C 0.70422 0.90719 0.6415 0.0
Co510 Co 0.89405 0.96334 0.40751 0.0
Co511 Co 0.8551 0.98623 0.30596 0.0
C512 C 0.85002 0.0455 0.38488 0.0
O513 O 0.86202 0.01688 0.41296 0.0
O514 O 0.85193 0.04132 0.33791 0.0
C515 C 0.93232 0.99529 0.49637 0.0
O516 O 0.92875 0.03035 0.47344 0.0
C517 C 0.81961 0.02067 0.21587 0.0
C518 C 0.83829 0.97853 0.15504 0.0
C519 C 0.81937 0.01598 0.16436 0.0
N520 N 0.83812 0.98832 0.23622 0.0
N521 N 0.84865 0.96273 0.19955 0.0
C522 C 0.80365 0.05636 0.24575 0.0
H523 H 0.79163 0.04532 0.28151 0.0
H524 H 0.82894 0.07841 0.25324 0.0
H525 H 0.77893 0.07249 0.22582 0.0
C526 C 0.96351 0.94235 0.34322 0.0
N527 N 0.92485 0.9547 0.34979 0.0
N528 N 0.91108 0.97005 0.30851 0.0
C529 C 0.94301 0.97454 0.27737 0.0
C530 C 0.97824 0.95851 0.29912 0.0
C531 C 0.98789 0.92088 0.38222 0.0
H532 H 0.97433 0.89005 0.38792 0.0
H533 H 0.98586 0.93762 0.41821 0.0
H534 H 0.02043 0.91707 0.37116 0.0
O535 O 0.85501 0.92043 0.40302 0.0
O536 O 0.81502 0.95333 0.35028 0.0
H537 H 0.93496 0.9814 0.19957 0.0
H538 H 0.97141 0.01652 0.22657 0.0
C539 C 0.94158 0.00106 0.23265 0.0
H540 H 0.91688 0.02437 0.23652 0.0
H541 H 0.86484 0.93545 0.2046 0.0
O542 O 0.92448 0.96172 0.47275 0.0
C543 C 0.81978 0.92882 0.3866 0.0
Co544 Co 0.70528 0.64095 0.64771 0.0
Co545 Co 0.73718 0.59899 0.55052 0.0
C546 C 0.79209 0.60348 0.63214 0.0
O547 O 0.76208 0.61561 0.65929 0.0
O548 O 0.78882 0.60039 0.58524 0.0
C549 C 0.7143 0.68718 0.73895 0.0
O550 O 0.75359 0.6855 0.72879 0.0
C551 C 0.77562 0.55079 0.46757 0.0
C552 C 0.75434 0.58173 0.40029 0.0
C553 C 0.78081 0.55131 0.41597 0.0
N554 N 0.74822 0.57968 0.48167 0.0
N555 N 0.7353 0.59774 0.4409 0.0
C556 C 0.7957 0.52247 0.50316 0.0
H557 H 0.78297 0.5267 0.54104 0.0
H558 H 0.82919 0.52814 0.50396 0.0
H559 H 0.79035 0.49032 0.49036 0.0
C560 C 0.70056 0.71212 0.58745 0.0
N561 N 0.70176 0.67102 0.58961 0.0
N562 N 0.72166 0.65595 0.55112 0.0
C563 C 0.73833 0.68778 0.52668 0.0
C564 C 0.72575 0.72459 0.54926 0.0
C565 C 0.68153 0.73923 0.62663 0.0
H566 H 0.65277 0.72505 0.64 0.0
H567 H 0.70243 0.74288 0.65862 0.0
H568 H 0.67499 0.77019 0.61184 0.0
O569 O 0.66619 0.59759 0.644 0.0
O570 O 0.70438 0.55772 0.59576 0.0
H571 H 0.76151 0.68464 0.45282 0.0
H572 H 0.79598 0.70828 0.49656 0.0
C573 C 0.77339 0.68308 0.49127 0.0
H574 H 0.78881 0.65301 0.49602 0.0
H575 H 0.71442 0.62204 0.44079 0.0
O576 O 0.68875 0.67285 0.70765 0.0
C577 C 0.67762 0.5621 0.63055 0.0
Co578 Co 0.59291 0.49758 0.91084 0.0
Co579 Co 0.64101 0.4927 0.80985 0.0
C580 C 0.64071 0.56491 0.89098 0.0
O581 O 0.61687 0.54908 0.92221 0.0
O582 O 0.65091 0.54658 0.85004 0.0
C583 C 0.54644 0.50499 0.99952 0.0
O584 O 0.55164 0.54468 0.99385 0.0
C585 C 0.64995 0.53322 0.71293 0.0
C586 C 0.68805 0.49082 0.66834 0.0
C587 C 0.66894 0.52876 0.66646 0.0
N588 N 0.65781 0.5 0.74049 0.0
N589 N 0.68002 0.47432 0.71302 0.0
C590 C 0.62654 0.56965 0.73246 0.0
H591 H 0.60838 0.56126 0.76551 0.0
H592 H 0.60573 0.5815 0.70348 0.0
H593 H 0.64835 0.59443 0.74325 0.0
C594 C 0.52657 0.5033 0.84397 0.0
N595 N 0.56663 0.49941 0.85067 0.0
N596 N 0.58358 0.48245 0.81148 0.0
C597 C 0.55318 0.46921 0.78112 0.0
C598 C 0.51564 0.48119 0.80167 0.0
C599 C 0.49902 0.52563 0.8799 0.0
H600 H 0.51432 0.5542 0.89336 0.0
H601 H 0.46933 0.53341 0.86233 0.0
H602 H 0.49321 0.50664 0.91262 0.0
O603 O 0.63801 0.45774 0.91496 0.0
O604 O 0.67433 0.44994 0.84623 0.0
H605 H 0.54364 0.41417 0.73821 0.0
H606 H 0.54565 0.46029 0.70307 0.0
C607 C 0.55954 0.44415 0.73485 0.0
H608 H 0.59265 0.43893 0.72795 0.0
H609 H 0.69083 0.44606 0.72525 0.0
O610 O 0.55646 0.48051 0.96459 0.0
C611 C 0.66751 0.44114 0.8915 0.0
Co612 Co 0.71703 0.32959 0.16014 0.0
Co613 Co 0.73317 0.37451 0.05845 0.0
C614 C 0.6652 0.39306 0.13827 0.0
O615 O 0.66948 0.36272 0.1664 0.0
O616 O 0.68712 0.39801 0.09962 0.0
C617 C 0.69949 0.2982 0.25472 0.0
O618 O 0.66179 0.3087 0.24365 0.0
C619 C 0.68993 0.40187 0.96877 0.0
C620 C 0.73898 0.41519 0.91546 0.0
C621 C 0.69681 0.41682 0.92135 0.0
N622 N 0.72596 0.39242 0.99006 0.0
N623 N 0.75519 0.39975 0.95743 0.0
C624 C 0.64945 0.39748 0.99416 0.0
H625 H 0.65045 0.37145 1.02012 0.0
H626 H 0.62455 0.39211 0.96677 0.0
H627 H 0.64264 0.42616 1.01558 0.0
C628 C 0.71801 0.25821 0.09442 0.0
N629 N 0.71817 0.2991 0.1005 0.0
N630 N 0.73374 0.31604 0.06097 0.0
C631 C 0.7478 0.28588 0.03042 0.0
C632 C 0.73895 0.24795 0.05106 0.0
C633 C 0.70125 0.22946 0.13216 0.0
H634 H 0.66923 0.2384 0.14094 0.0
H635 H 0.70189 0.19702 0.11863 0.0
H636 H 0.71874 0.23245 0.1671 0.0
O637 O 0.76005 0.37181 0.16389 0.0
O638 O 0.78058 0.40034 0.09414 0.0
H639 H 0.78677 0.26448 0.97048 0.0
H640 H 0.75431 0.30796 0.95698 0.0
C641 C 0.77354 0.2935 0.98576 0.0
H642 H 0.79837 0.31549 0.99561 0.0
H643 H 0.78634 0.39554 0.96434 0.0
O644 O 0.72651 0.29801 0.22096 0.0
C645 C 0.78239 0.39724 0.14127 0.0
Co646 Co 0.88296 0.46667 0.40835 0.0
Co647 Co 0.84224 0.4767 0.30696 0.0
C648 C 0.82987 0.40566 0.38759 0.0
O649 O 0.85926 0.41448 0.41696 0.0
O650 O 0.82268 0.42725 0.34906 0.0
C651 C 0.92673 0.48401 0.50279 0.0
O652 O 0.9282 0.44466 0.51275 0.0
C653 C 0.80063 0.43531 0.22282 0.0
C654 C 0.83792 0.45147 0.15777 0.0
C655 C 0.80612 0.42657 0.17237 0.0
N656 N 0.82894 0.46286 0.23785 0.0
N657 N 0.85077 0.47265 0.19841 0.0
C658 C 0.76791 0.419 0.25609 0.0
H659 H 0.76416 0.43923 0.28935 0.0
H660 H 0.77632 0.38757 0.26781 0.0
H661 H 0.73812 0.41728 0.23632 0.0
C662 C 0.95489 0.45975 0.35113 0.0
N663 N 0.91436 0.46426 0.3522 0.0
N664 N 0.90134 0.48306 0.31285 0.0
C665 C 0.93499 0.49634 0.2882 0.0
C666 C 0.97008 0.48111 0.31144 0.0
C667 C 0.97858 0.43804 0.39044 0.0
H668 H 0.96222 0.40947 0.4005 0.0
H669 H 0.01002 0.43039 0.37767 0.0
H670 H 0.98047 0.45746 0.42441 0.0
O671 O 0.83575 0.50456 0.40875 0.0
O672 O 0.80913 0.5238 0.33804 0.0
H673 H 0.95798 0.55281 0.25931 0.0
H674 H 0.94316 0.51527 0.21352 0.0
C675 C 0.93465 0.52904 0.25003 0.0
H676 H 0.90407 0.54381 0.24794 0.0
H677 H 0.87523 0.49297 0.19891 0.0
O678 O 0.91315 0.49524 0.46142 0.0
C679 C 0.80976 0.52564 0.38546 0.0
Co680 Co 0.70772 0.3494 0.39705 0.0
Co681 Co 0.74475 0.38941 0.49258 0.0
C682 C 0.79614 0.3822 0.40891 0.0
O683 O 0.7646 0.37304 0.38279 0.0
O684 O 0.79468 0.38294 0.45592 0.0
C685 C 0.71325 0.30272 0.3062 0.0
O686 O 0.75264 0.30249 0.31605 0.0
C687 C 0.79553 0.42182 0.57861 0.0
C688 C 0.75074 0.42533 0.63936 0.0
C689 C 0.79143 0.43301 0.62878 0.0
N690 N 0.75889 0.4092 0.56038 0.0
N691 N 0.7325 0.41077 0.59755 0.0
C692 C 0.83474 0.41943 0.54987 0.0
H693 H 0.83847 0.38787 0.53429 0.0
H694 H 0.86176 0.42641 0.57341 0.0
H695 H 0.83381 0.44076 0.51844 0.0
C696 C 0.7015 0.27865 0.45874 0.0
N697 N 0.70464 0.31958 0.45552 0.0
N698 N 0.72447 0.33438 0.49426 0.0
C699 C 0.73863 0.30237 0.52048 0.0
C700 C 0.7254 0.26577 0.49802 0.0
C701 C 0.68231 0.2517 0.41949 0.0
H702 H 0.65366 0.26614 0.40611 0.0
H703 H 0.70315 0.24801 0.38747 0.0
H704 H 0.67551 0.22077 0.43418 0.0
O705 O 0.67078 0.39466 0.4026 0.0
O706 O 0.7132 0.43243 0.44804 0.0
H707 H 0.76304 0.32749 0.58807 0.0
H708 H 0.78087 0.27607 0.57298 0.0
C709 C 0.77259 0.30635 0.55749 0.0
H710 H 0.7998 0.31993 0.53943 0.0
H711 H 0.70178 0.4023 0.59435 0.0
O712 O 0.68859 0.3182 0.33773 0.0
C713 C 0.68484 0.4295 0.41487 0.0
Co714 Co 0.88735 0.52499 0.63754 0.0
Co715 Co 0.84337 0.51436 0.73751 0.0
C716 C 0.82685 0.58165 0.65394 0.0
O717 O 0.85672 0.57339 0.6251 0.0
O718 O 0.82101 0.56153 0.6939 0.0
C719 C 0.92515 0.51476 0.54316 0.0
O720 O 0.90979 0.55125 0.53432 0.0
C721 C 0.80072 0.55548 0.82142 0.0
C722 C 0.8355 0.5359 0.88715 0.0
C723 C 0.80541 0.56282 0.87232 0.0
N724 N 0.8281 0.52695 0.80642 0.0
N725 N 0.84828 0.515 0.84628 0.0
C726 C 0.7692 0.57362 0.78778 0.0
H727 H 0.76438 0.55341 0.75472 0.0
H728 H 0.77957 0.60438 0.77585 0.0
H729 H 0.73938 0.57716 0.80707 0.0
C730 C 0.95605 0.53856 0.69876 0.0
N731 N 0.91569 0.53273 0.69597 0.0
N732 N 0.90261 0.51228 0.734 0.0
C733 C 0.93609 0.49932 0.75918 0.0
C734 C 0.97114 0.5163 0.73789 0.0
C735 C 0.9801 0.56129 0.66066 0.0
H736 H 0.96273 0.5889 0.64929 0.0
H737 H 0.01053 0.57059 0.67543 0.0
H738 H 0.98463 0.54186 0.62708 0.0
O739 O 0.84508 0.48118 0.63579 0.0
O740 O 0.81519 0.46488 0.70593 0.0
H741 H 0.9611 0.44318 0.78703 0.0
H742 H 0.94154 0.47806 0.83325 0.0
C743 C 0.93592 0.46517 0.79548 0.0
H744 H 0.90626 0.44851 0.7943 0.0
H745 H 0.87141 0.49313 0.84598 0.0
O746 O 0.92436 0.50177 0.58687 0.0
C747 C 0.81977 0.45927 0.6592 0.0
Co748 Co 0.71828 0.66144 0.88515 0.0
Co749 Co 0.73398 0.61651 0.98705 0.0
C750 C 0.66484 0.59942 0.9082 0.0
O751 O 0.66997 0.62929 0.87954 0.0
O752 O 0.68686 0.59408 0.94673 0.0
C753 C 0.70099 0.69268 0.79048 0.0
O754 O 0.66309 0.68337 0.80197 0.0
C755 C 0.69131 0.59042 0.0776 0.0
C756 C 0.74079 0.57632 0.13012 0.0
C757 C 0.69851 0.57558 0.12503 0.0
N758 N 0.72724 0.59903 0.05562 0.0
N759 N 0.75674 0.59125 0.08778 0.0
C760 C 0.6506 0.59543 0.05286 0.0
H761 H 0.65168 0.62143 0.02686 0.0
H762 H 0.62611 0.6012 0.08063 0.0
H763 H 0.64313 0.56686 0.03156 0.0
C764 C 0.72006 0.7329 0.95087 0.0
N765 N 0.72032 0.69203 0.94464 0.0
N766 N 0.73555 0.67498 0.98433 0.0
C767 C 0.74925 0.70507 1.01524 0.0
C768 C 0.7405 0.74305 0.99465 0.0
C769 C 0.70342 0.76168 0.91306 0.0
H770 H 0.67124 0.75311 0.9046 0.0
H771 H 0.7045 0.79418 0.92631 0.0
H772 H 0.72066 0.7582 0.87802 0.0
O773 O 0.76043 0.61848 0.88127 0.0
O774 O 0.7805 0.58934 0.9508 0.0
H775 H 0.78763 0.72629 0.07588 0.0
H776 H 0.75428 0.68348 0.08907 0.0
C777 C 0.77418 0.69737 0.06059 0.0
H778 H 0.7988 0.67491 0.05159 0.0
H779 H 0.78788 0.59477 0.0803 0.0
O780 O 0.7282 0.69249 0.82405 0.0
C781 C 0.78227 0.59249 0.90368 0.0
Co782 Co 0.59433 0.49563 0.13725 0.0
Co783 Co 0.64379 0.50001 0.23744 0.0
C784 C 0.64192 0.42801 0.15587 0.0
O785 O 0.61798 0.44422 0.125 0.0
O786 O 0.65273 0.44607 0.19679 0.0
C787 C 0.54662 0.48854 0.04953 0.0
O788 O 0.55178 0.44882 0.05506 0.0
C789 C 0.65479 0.45979 0.33438 0.0
C790 C 0.69737 0.50012 0.3758 0.0
C791 C 0.67639 0.46324 0.37932 0.0
N792 N 0.66282 0.49254 0.30614 0.0
N793 N 0.68781 0.51697 0.33171 0.0
C794 C 0.62903 0.42442 0.31653 0.0
H795 H 0.61037 0.43331 0.28404 0.0
H796 H 0.60852 0.41407 0.34661 0.0
H797 H 0.64923 0.39838 0.30539 0.0
C798 C 0.52901 0.48867 0.20495 0.0
N799 N 0.56895 0.49316 0.19794 0.0
N800 N 0.58602 0.51019 0.23706 0.0
C801 C 0.55555 0.5231 0.26757 0.0
C802 C 0.51797 0.51069 0.24723 0.0
C803 C 0.50156 0.46586 0.16928 0.0
H804 H 0.51737 0.4377 0.15539 0.0
H805 H 0.47229 0.45733 0.18728 0.0
H806 H 0.49481 0.48484 0.13679 0.0
O807 O 0.6394 0.53531 0.13229 0.0
O808 O 0.67666 0.5426 0.20037 0.0
H809 H 0.5496 0.57973 0.30807 0.0
H810 H 0.54443 0.53463 0.34466 0.0
C811 C 0.56183 0.54832 0.31374 0.0
H812 H 0.59486 0.55027 0.32327 0.0
H813 H 0.6996 0.54445 0.31839 0.0
O814 O 0.55707 0.51296 0.08434 0.0
C815 C 0.6693 0.5516 0.1553 0.0
Co816 Co 0.27594 0.36388 0.39875 0.0
Co817 Co 0.24852 0.40747 0.49645 0.0
C818 C 0.18965 0.40395 0.41554 0.0
O819 O 0.21765 0.38783 0.38793 0.0
O820 O 0.19575 0.40982 0.46162 0.0
C821 C 0.27141 0.31751 0.30636 0.0
O822 O 0.23163 0.31775 0.31337 0.0
C823 C 0.20637 0.43786 0.58556 0.0
C824 C 0.24908 0.42666 0.64709 0.0
C825 C 0.20955 0.43936 0.63696 0.0
N826 N 0.24161 0.42426 0.56584 0.0
N827 N 0.26728 0.4178 0.60296 0.0
C828 C 0.17024 0.44978 0.55527 0.0
H829 H 0.18053 0.46181 0.51948 0.0
H830 H 0.1502 0.42265 0.5488 0.0
H831 H 0.15276 0.47438 0.57425 0.0
C832 C 0.28685 0.29465 0.46111 0.0
N833 N 0.28284 0.33535 0.45696 0.0
N834 N 0.26359 0.35056 0.49566 0.0
C835 C 0.2497 0.31882 0.52249 0.0
C836 C 0.26312 0.28196 0.50062 0.0
C837 C 0.30696 0.2676 0.42263 0.0
H838 H 0.33568 0.28226 0.40992 0.0
H839 H 0.28685 0.26357 0.38995 0.0
H840 H 0.31382 0.23684 0.43778 0.0
O841 O 0.31433 0.40742 0.40123 0.0
O842 O 0.28318 0.44888 0.45495 0.0
H843 H 0.23002 0.33749 0.59483 0.0
H844 H 0.20313 0.29321 0.57001 0.0
C845 C 0.21674 0.32337 0.5607 0.0
H846 H 0.19259 0.3444 0.54715 0.0
H847 H 0.2967 0.40577 0.59842 0.0
O848 O 0.29471 0.33236 0.33973 0.0
C849 C 0.30763 0.44309 0.41824 0.0
Co850 Co 0.39381 0.52768 0.14056 0.0
Co851 Co 0.35513 0.50517 0.24217 0.0
C852 C 0.34916 0.44586 0.16331 0.0
O853 O 0.36137 0.47436 0.13521 0.0
O854 O 0.35126 0.45003 0.21029 0.0
C855 C 0.4317 0.49546 0.05172 0.0
O856 O 0.42804 0.46043 0.07472 0.0
C857 C 0.31899 0.47156 0.33219 0.0
C858 C 0.33892 0.51303 0.39313 0.0
C859 C 0.31898 0.47614 0.38371 0.0
N860 N 0.33827 0.50345 0.31192 0.0
N861 N 0.34953 0.52867 0.34864 0.0
C862 C 0.30232 0.43626 0.30224 0.0
H863 H 0.2904 0.44759 0.26653 0.0
H864 H 0.32719 0.41376 0.2946 0.0
H865 H 0.27741 0.42053 0.32223 0.0
C866 C 0.46353 0.54867 0.20461 0.0
N867 N 0.42489 0.5362 0.19814 0.0
N868 N 0.41128 0.52089 0.23948 0.0
C869 C 0.44334 0.51651 0.27056 0.0
C870 C 0.47846 0.53266 0.24874 0.0
C871 C 0.48765 0.57032 0.16559 0.0
H872 H 0.47395 0.60113 0.16008 0.0
H873 H 0.48551 0.55367 0.12955 0.0
H874 H 0.52023 0.57421 0.17651 0.0
O875 O 0.3551 0.57091 0.14501 0.0
O876 O 0.31512 0.53834 0.19792 0.0
H877 H 0.43651 0.51008 0.34858 0.0
H878 H 0.47174 0.47411 0.32085 0.0
C879 C 0.44212 0.49017 0.31543 0.0
H880 H 0.41691 0.46738 0.31227 0.0
H881 H 0.36641 0.55553 0.34366 0.0
O882 O 0.42408 0.52908 0.07533 0.0
C883 C 0.31988 0.56277 0.16154 0.0
Co884 Co 0.27506 0.6478 0.88837 0.0
Co885 Co 0.25456 0.60135 0.9859 0.0
C886 C 0.32563 0.58101 0.907 0.0
O887 O 0.32258 0.61319 0.88148 0.0
O888 O 0.30186 0.57501 0.94409 0.0
C889 C 0.28976 0.67844 0.7925 0.0
O890 O 0.32741 0.66624 0.80101 0.0
C891 C 0.29135 0.57008 0.07504 0.0
C892 C 0.24651 0.58224 0.13477 0.0
C893 C 0.28651 0.57015 0.12616 0.0
N894 N 0.25703 0.58392 0.05417 0.0
N895 N 0.22971 0.58984 0.08993 0.0
C896 C 0.32664 0.5531 0.04571 0.0
H897 H 0.31482 0.53403 1.01449 0.0
H898 H 0.34529 0.57866 0.03106 0.0
H899 H 0.346 0.53261 0.06796 0.0
C900 C 0.2728 0.71907 0.95324 0.0
N901 N 0.27392 0.67809 0.94765 0.0
N902 N 0.25581 0.66082 0.98539 0.0
C903 C 0.23939 0.69104 1.01428 0.0
C904 C 0.24931 0.72902 0.99464 0.0
C905 C 0.28972 0.74801 0.91587 0.0
H906 H 0.3217 0.73905 0.90693 0.0
H907 H 0.28902 0.78035 0.92979 0.0
H908 H 0.27209 0.74543 0.881 0.0
O909 O 0.22917 0.60883 0.88624 0.0
O910 O 0.20531 0.57926 0.95301 0.0
H911 H 0.19298 0.71269 0.06571 0.0
H912 H 0.22562 0.67231 0.08757 0.0
C913 C 0.20916 0.68391 0.05472 0.0
H914 H 0.18652 0.66051 0.04219 0.0
H915 H 0.19987 0.6001 0.08414 0.0
O916 O 0.2644 0.67966 0.82802 0.0
C917 C 0.20403 0.5848 0.90658 0.0
Co918 Co 0.10535 0.48519 0.64127 0.0
Co919 Co 0.1387 0.52021 0.73801 0.0
C920 C 0.15684 0.56703 0.65552 0.0
O921 O 0.14207 0.53608 0.63145 0.0
O922 O 0.1506 0.5709 0.7018 0.0
C923 C 0.06668 0.50164 0.55086 0.0
O924 O 0.06929 0.53958 0.56816 0.0
C925 C 0.17914 0.55753 0.82237 0.0
C926 C 0.14964 0.52997 0.88751 0.0
C927 C 0.1778 0.55952 0.87383 0.0
N928 N 0.15239 0.52914 0.80631 0.0
N929 N 0.13489 0.51247 0.84532 0.0
C930 C 0.20551 0.5815 0.7879 0.0
H931 H 0.21077 0.56327 0.75342 0.0
H932 H 0.18985 0.61068 0.77884 0.0
H933 H 0.23582 0.58888 0.80375 0.0
C934 C 0.02919 0.48016 0.69568 0.0
N935 N 0.0692 0.48853 0.69322 0.0
N936 N 0.08109 0.50815 0.73342 0.0
C937 C 0.04734 0.51723 0.76057 0.0
C938 C 0.01309 0.49956 0.73751 0.0
C939 C 0.00612 0.45688 0.65613 0.0
H940 H 0.02288 0.4281 0.64659 0.0
H941 H 0.00446 0.47509 0.62199 0.0
H942 H 0.97462 0.44932 0.66844 0.0
O943 O 0.1405 0.43999 0.65584 0.0
O944 O 0.17968 0.47994 0.70251 0.0
H945 H 0.04434 0.53088 0.8381 0.0
H946 H 0.01956 0.56809 0.80017 0.0
C947 C 0.0467 0.54768 0.80281 0.0
H948 H 0.07507 0.56647 0.80331 0.0
H949 H 0.11251 0.48961 0.8432 0.0
O950 O 0.07693 0.47226 0.57846 0.0
C951 C 0.17568 0.44996 0.67134 0.0
Co952 Co 0.27799 0.62891 0.64923 0.0
Co953 Co 0.24957 0.5856 0.55164 0.0
C954 C 0.19121 0.58985 0.63261 0.0
O955 O 0.21964 0.60532 0.66012 0.0
O956 O 0.19683 0.58421 0.58642 0.0
C957 C 0.27357 0.67491 0.74192 0.0
O958 O 0.23381 0.6749 0.73468 0.0
C959 C 0.20694 0.55551 0.46259 0.0
C960 C 0.24989 0.56548 0.40108 0.0
C961 C 0.21011 0.55365 0.4112 0.0
N962 N 0.24241 0.56854 0.48231 0.0
N963 N 0.26823 0.57425 0.44519 0.0
C964 C 0.17059 0.5444 0.49287 0.0
H965 H 0.18062 0.5324 0.5288 0.0
H966 H 0.15098 0.5719 0.49902 0.0
H967 H 0.15275 0.51998 0.47404 0.0
C968 C 0.28855 0.69821 0.58685 0.0
N969 N 0.28458 0.65751 0.59102 0.0
N970 N 0.26529 0.64231 0.5523 0.0
C971 C 0.25139 0.67404 0.52542 0.0
C972 C 0.26478 0.7109 0.54731 0.0
C973 C 0.30853 0.72528 0.62545 0.0
H974 H 0.33744 0.71081 0.63795 0.0
H975 H 0.28851 0.72893 0.65823 0.0
H976 H 0.31502 0.75618 0.61051 0.0
O977 O 0.31624 0.58509 0.64614 0.0
O978 O 0.28342 0.54389 0.59362 0.0
H979 H 0.23131 0.65474 0.45343 0.0
H980 H 0.2051 0.69973 0.47744 0.0
C981 C 0.21831 0.6695 0.4873 0.0
H982 H 0.19388 0.64902 0.50128 0.0
H983 H 0.29787 0.58571 0.4497 0.0
O984 O 0.29692 0.66018 0.70853 0.0
C985 C 0.30836 0.5494 0.62993 0.0
Co986 Co 0.10514 0.50988 0.40688 0.0
Co987 Co 0.13751 0.47395 0.31033 0.0
C988 C 0.15532 0.42707 0.39279 0.0
O989 O 0.14118 0.45839 0.41673 0.0
O990 O 0.14864 0.42305 0.3466 0.0
C991 C 0.06648 0.49407 0.49738 0.0
O992 O 0.06844 0.45609 0.48008 0.0
C993 C 0.1777 0.43599 0.22631 0.0
C994 C 0.14834 0.46336 0.16089 0.0
C995 C 0.17639 0.43375 0.17487 0.0
N996 N 0.15103 0.46456 0.24209 0.0
N997 N 0.1336 0.4811 0.20291 0.0
C998 C 0.20411 0.41221 0.26096 0.0
H999 H 0.20906 0.43043 0.29551 0.0
H1000 H 0.18868 0.38287 0.26982 0.0
H1001 H 0.23454 0.40512 0.24527 0.0
C1002 C 0.02896 0.5167 0.35254 0.0
N1003 N 0.06877 0.50732 0.35497 0.0
N1004 N 0.08007 0.48725 0.31486 0.0
C1005 C 0.04601 0.4789 0.28788 0.0
C1006 C 0.0122 0.49747 0.31093 0.0
C1007 C 0.00658 0.54069 0.39204 0.0
H1008 H 0.02397 0.56913 0.40126 0.0
H1009 H 0.0047 0.52271 0.42635 0.0
H1010 H 0.97518 0.54884 0.37983 0.0
O1011 O 0.14104 0.5544 0.39225 0.0
O1012 O 0.17936 0.5135 0.34576 0.0
H1013 H 0.042 0.46485 0.2105 0.0
H1014 H 0.01716 0.42822 0.2491 0.0
C1015 C 0.04453 0.44822 0.2459 0.0
H1016 H 0.07263 0.42902 0.24517 0.0
H1017 H 0.11132 0.50409 0.2048 0.0
O1018 O 0.07709 0.52328 0.46974 0.0
C1019 C 0.176 0.54364 0.37682 0.0
Co1020 Co 0.27346 0.34505 0.16054 0.0
Co1021 Co 0.25343 0.39178 0.06326 0.0
C1022 C 0.32468 0.41152 0.14235 0.0
O1023 O 0.3211 0.37946 0.16798 0.0
O1024 O 0.3011 0.41777 0.10506 0.0
C1025 C 0.28775 0.31366 0.25595 0.0
O1026 O 0.32553 0.32554 0.24768 0.0
C1027 C 0.2898 0.42301 0.9741 0.0
C1028 C 0.24453 0.41118 0.91468 0.0
C1029 C 0.28463 0.42301 0.92303 0.0
N1030 N 0.25554 0.4094 0.99517 0.0
N1031 N 0.22795 0.4037 0.95963 0.0
C1032 C 0.32546 0.43951 1.0032 0.0
H1033 H 0.31404 0.45867 0.03455 0.0
H1034 H 0.34391 0.4137 1.01768 0.0
H1035 H 0.34491 0.45978 0.98084 0.0
C1036 C 0.27162 0.27397 0.09529 0.0
N1037 N 0.27251 0.31494 0.10113 0.0
N1038 N 0.25452 0.33229 0.06334 0.0
C1039 C 0.23836 0.30211 0.03413 0.0
C1040 C 0.24836 0.26408 0.05365 0.0
C1041 C 0.28861 0.24495 0.13257 0.0
H1042 H 0.32049 0.25408 0.14183 0.0
H1043 H 0.28821 0.21268 0.11839 0.0
H1044 H 0.27082 0.24721 0.1673 0.0
O1045 O 0.22763 0.38416 0.16295 0.0
O1046 O 0.20426 0.41396 0.09602 0.0
H1047 H 0.19265 0.28039 0.98177 0.0
H1048 H 0.22496 0.32136 0.96092 0.0
C1049 C 0.20839 0.30926 0.99337 0.0
H1050 H 0.18535 0.33227 1.00589 0.0
H1051 H 0.19811 0.39358 0.96563 0.0
O1052 O 0.26246 0.31279 0.22033 0.0
C1053 C 0.2027 0.40834 0.1424 0.0
Co1054 Co 0.39254 0.46359 0.90837 0.0
Co1055 Co 0.35359 0.48692 0.80695 0.0
C1056 C 0.34938 0.54627 0.88588 0.0
O1057 O 0.36117 0.51752 0.9139 0.0
O1058 O 0.35098 0.54204 0.8389 0.0
C1059 C 0.43142 0.49504 0.99704 0.0
O1060 O 0.42809 0.53015 0.97414 0.0
C1061 C 0.31892 0.52151 0.71649 0.0
C1062 C 0.33698 0.47861 0.65614 0.0
C1063 C 0.31873 0.51646 0.66504 0.0
N1064 N 0.33673 0.48894 0.73722 0.0
N1065 N 0.34689 0.46292 0.70085 0.0
C1066 C 0.30369 0.55774 0.74595 0.0
H1067 H 0.29144 0.54721 0.78182 0.0
H1068 H 0.32943 0.5793 0.75324 0.0
H1069 H 0.27931 0.57422 0.72583 0.0
C1070 C 0.46179 0.44246 0.84397 0.0
N1071 N 0.42313 0.45478 0.85062 0.0
N1072 N 0.40936 0.47029 0.80943 0.0
C1073 C 0.44124 0.47487 0.77827 0.0
C1074 C 0.47645 0.45881 0.79996 0.0
C1075 C 0.48626 0.42099 0.88289 0.0
H1076 H 0.47262 0.39022 0.88876 0.0
H1077 H 0.48444 0.43781 0.91884 0.0
H1078 H 0.51874 0.41707 0.87165 0.0
O1079 O 0.35306 0.42108 0.90381 0.0
O1080 O 0.31329 0.4544 0.85122 0.0
H1081 H 0.43264 0.48225 0.70064 0.0
H1082 H 0.46976 0.51676 0.72742 0.0
C1083 C 0.4398 0.50165 0.73378 0.0
H1084 H 0.41543 0.52525 0.73812 0.0
H1085 H 0.36256 0.43538 0.70622 0.0
O1086 O 0.42309 0.46156 0.97349 0.0
C1087 C 0.31789 0.4298 0.88746 0.0
loop_
_geom_bond_atom_site_label_1
_geom_bond_atom_site_label_2
_geom_bond_distance
_geom_bond_site_symmetry_2
_ccdc_geom_bond_type
Co0 O3 1.970 . S
Co0 N17 1.989 . S
Co0 O25 1.967 . S
Co0 O32 1.920 . S
Co1 O4 1.966 . S
Co1 N10 2.022 1_554 S
Co1 N18 1.993 . S
Co1 O26 1.941 . S
C2 O3 1.258 . S
C2 O4 1.263 . S
O3 Co0 1.970 . S
O3 C2 1.258 . S
O4 Co1 1.966 . S
O4 C2 1.263 . S
C5 O6 1.235 . S
C5 O32 1.289 . S
O6 C5 1.235 . S
C7 C9 1.400 . S
C7 N10 1.351 . S
C7 C12 1.501 . S
C8 C9 1.387 . S
C8 N11 1.341 . S
C9 C7 1.400 . S
C9 C8 1.387 . S
N10 Co1 2.022 1_556 S
N10 C7 1.351 . S
N10 N11 1.365 . S
N11 C8 1.341 . S
N11 N10 1.365 . S
N11 H31 0.862 . S
C12 C7 1.501 . S
C12 H13 0.961 . S
C12 H14 0.961 . S
C12 H15 0.960 . S
H13 C12 0.961 . S
H14 C12 0.961 . S
H15 C12 0.960 . S
C16 N17 1.342 . S
C16 C20 1.401 . S
C16 C21 1.499 . S
N17 Co0 1.989 . S
N17 C16 1.342 . S
N17 N18 1.388 . S
N18 Co1 1.993 . S
N18 N17 1.388 . S
N18 C19 1.346 . S
C19 N18 1.346 . S
C19 C20 1.396 . S
C19 C29 1.510 1_554 S
C20 C16 1.401 . S
C20 C19 1.396 . S
C21 C16 1.499 . S
C21 H22 0.959 . S
C21 H23 0.960 . S
C21 H24 0.961 . S
H22 C21 0.959 . S
H23 C21 0.960 . S
H24 C21 0.961 . S
O25 Co0 1.967 . S
O25 C33 1.258 . S
O26 Co1 1.941 . S
O26 C33 1.266 . S
H27 C29 0.959 . S
H28 C29 0.961 . S
C29 C19 1.510 1_556 S
C29 H27 0.959 . S
C29 H28 0.961 . S
C29 H30 0.960 . S
H30 C29 0.960 . S
H31 N11 0.862 . S
O32 Co0 1.920 . S
O32 C5 1.289 . S
C33 O25 1.258 . S
C33 O26 1.266 . S
Co34 O37 1.970 1_565 S
Co34 N51 1.989 . S
Co34 O59 1.967 . S
Co34 O66 1.920 . S
Co35 O38 1.966 1_565 S
Co35 N44 2.022 . S
Co35 N52 1.993 . S
Co35 O60 1.941 . S
C36 O37 1.258 . S
C36 O38 1.263 . S
O37 Co34 1.970 1_545 S
O37 C36 1.258 . S
O38 Co35 1.966 1_545 S
O38 C36 1.263 . S
C39 O40 1.235 . S
C39 O66 1.289 1_545 S
O40 C39 1.235 . S
C41 C43 1.396 1_545 S
C41 N44 1.338 1_545 S
C41 C46 1.515 . S
C42 C43 1.387 . S
C42 N45 1.341 . S
C43 C41 1.396 1_565 S
C43 C42 1.387 . S
N44 Co35 2.022 . S
N44 C41 1.338 1_565 S
N44 N45 1.365 . S
N45 C42 1.341 . S
N45 N44 1.365 . S
N45 H65 0.862 . S
C46 C41 1.515 . S
C46 H47 0.961 . S
C46 H48 0.961 . S
C46 H49 0.960 . S
H47 C46 0.961 . S
H48 C46 0.961 . S
H49 C46 0.960 . S
C50 N51 1.342 . S
C50 C54 1.401 . S
C50 C55 1.499 . S
N51 Co34 1.989 . S
N51 C50 1.342 . S
N51 N52 1.388 . S
N52 Co35 1.993 . S
N52 N51 1.388 . S
N52 C53 1.346 . S
C53 N52 1.346 . S
C53 C54 1.396 . S
C53 C63 1.510 . S
C54 C50 1.401 . S
C54 C53 1.396 . S
C55 C50 1.499 . S
C55 H56 0.959 . S
C55 H57 0.960 1_455 S
C55 H58 0.961 . S
H56 C55 0.959 . S
H57 C55 0.960 1_655 S
H58 C55 0.961 . S
O59 Co34 1.967 . S
O59 C67 1.258 . S
O60 Co35 1.941 . S
O60 C67 1.266 . S
H61 C63 0.959 . S
H62 C63 0.961 . S
C63 C53 1.510 . S
C63 H61 0.959 . S
C63 H62 0.961 . S
C63 H64 0.960 . S
H64 C63 0.960 . S
H65 N45 0.862 . S
O66 Co34 1.920 . S
O66 C39 1.289 1_565 S
C67 O59 1.258 . S
C67 O60 1.266 . S
Co68 O71 1.970 . S
Co68 N85 1.989 . S
Co68 O93 1.967 . S
Co68 O100 1.920 . S
Co69 O72 1.966 . S
Co69 N78 2.022 . S
Co69 N86 1.993 . S
Co69 O94 1.941 . S
C70 O71 1.258 . S
C70 O72 1.263 . S
O71 Co68 1.970 . S
O71 C70 1.258 . S
O72 Co69 1.966 . S
O72 C70 1.263 . S
C73 O74 1.235 . S
C73 O100 1.289 . S
O74 C73 1.235 . S
C75 C77 1.400 . S
C75 N78 1.351 . S
C75 C80 1.501 . S
C76 C77 1.387 . S
C76 N79 1.341 . S
C77 C75 1.400 . S
C77 C76 1.387 . S
N78 Co69 2.022 . S
N78 C75 1.351 . S
N78 N79 1.365 . S
N79 C76 1.341 . S
N79 N78 1.365 . S
N79 H99 0.862 . S
C80 C75 1.501 . S
C80 H81 0.961 . S
C80 H82 0.961 . S
C80 H83 0.960 . S
H81 C80 0.961 . S
H82 C80 0.961 . S
H83 C80 0.960 . S
C84 N85 1.342 . S
C84 C88 1.401 . S
C84 C89 1.499 . S
N85 Co68 1.989 . S
N85 C84 1.342 . S
N85 N86 1.388 . S
N86 Co69 1.993 . S
N86 N85 1.388 . S
N86 C87 1.346 . S
C87 N86 1.346 . S
C87 C88 1.396 . S
C87 C97 1.510 . S
C88 C84 1.401 . S
C88 C87 1.396 . S
C89 C84 1.499 . S
C89 H90 0.959 . S
C89 H91 0.960 . S
C89 H92 0.961 . S
H90 C89 0.959 . S
H91 C89 0.960 . S
H92 C89 0.961 . S
O93 Co68 1.967 . S
O93 C101 1.258 . S
O94 Co69 1.941 . S
O94 C101 1.266 . S
H95 C97 0.959 . S
H96 C97 0.961 . S
C97 C87 1.510 . S
C97 H95 0.959 . S
C97 H96 0.961 . S
C97 H98 0.960 . S
H98 C97 0.960 . S
H99 N79 0.862 . S
O100 Co68 1.920 . S
O100 C73 1.289 . S
C101 O93 1.258 . S
C101 O94 1.266 . S
Co102 O105 1.970 1_545 S
Co102 N119 1.989 . S
Co102 O127 1.967 . S
Co102 O134 1.920 . S
Co103 O106 1.966 1_545 S
Co103 N112 2.022 . S
Co103 N120 1.993 . S
Co103 O128 1.941 . S
C104 O105 1.258 . S
C104 O106 1.263 . S
O105 Co102 1.970 1_565 S
O105 C104 1.258 . S
O106 Co103 1.966 1_565 S
O106 C104 1.263 . S
C107 O108 1.235 . S
C107 O134 1.289 1_565 S
O108 C107 1.235 . S
C109 C111 1.396 1_565 S
C109 N112 1.338 1_565 S
C109 C114 1.516 . S
C110 C111 1.387 . S
C110 N113 1.341 . S
C111 C109 1.396 1_545 S
C111 C110 1.387 . S
N112 Co103 2.022 . S
N112 C109 1.338 1_545 S
N112 N113 1.365 . S
N113 C110 1.341 . S
N113 N112 1.365 . S
N113 H133 0.862 . S
C114 C109 1.516 . S
C114 H115 0.961 . S
C114 H116 0.961 . S
C114 H117 0.960 . S
H115 C114 0.961 . S
H116 C114 0.961 . S
H117 C114 0.960 . S
C118 N119 1.342 . S
C118 C122 1.401 . S
C118 C123 1.499 . S
N119 Co102 1.989 . S
N119 C118 1.342 . S
N119 N120 1.388 . S
N120 Co103 1.993 . S
N120 N119 1.388 . S
N120 C121 1.346 . S
C121 N120 1.346 . S
C121 C122 1.396 . S
C121 C131 1.510 . S
C122 C118 1.401 . S
C122 C121 1.396 . S
C123 C118 1.499 . S
C123 H124 0.959 . S
C123 H125 0.960 . S
C123 H126 0.961 . S
H124 C123 0.959 . S
H125 C123 0.960 . S
H126 C123 0.961 . S
O127 Co102 1.967 . S
O127 C135 1.258 . S
O128 Co103 1.941 . S
O128 C135 1.266 . S
H129 C131 0.959 . S
H130 C131 0.961 . S
C131 C121 1.510 . S
C131 H129 0.959 . S
C131 H130 0.961 . S
C131 H132 0.960 . S
H132 C131 0.960 . S
H133 N113 0.862 . S
O134 Co102 1.920 . S
O134 C107 1.289 1_545 S
C135 O127 1.258 . S
C135 O128 1.266 . S
Co136 O139 1.970 . S
Co136 N153 1.989 . S
Co136 O161 1.967 . S
Co136 O168 1.920 . S
Co137 O140 1.966 . S
Co137 N146 2.022 1_556 S
Co137 N154 1.993 . S
Co137 O162 1.941 . S
C138 O139 1.258 . S
C138 O140 1.263 . S
O139 Co136 1.970 . S
O139 C138 1.258 . S
O140 Co137 1.966 . S
O140 C138 1.263 . S
C141 O142 1.235 . S
C141 O168 1.289 . S
O142 C141 1.235 . S
C143 C145 1.400 . S
C143 N146 1.351 . S
C143 C148 1.501 . S
C144 C145 1.387 . S
C144 N147 1.341 . S
C145 C143 1.400 . S
C145 C144 1.387 . S
N146 Co137 2.022 1_554 S
N146 C143 1.351 . S
N146 N147 1.365 . S
N147 C144 1.341 . S
N147 N146 1.365 . S
N147 H167 0.862 . S
C148 C143 1.501 . S
C148 H149 0.961 . S
C148 H150 0.961 . S
C148 H151 0.960 . S
H149 C148 0.961 . S
H150 C148 0.961 . S
H151 C148 0.960 . S
C152 N153 1.342 . S
C152 C156 1.401 . S
C152 C157 1.499 . S
N153 Co136 1.989 . S
N153 C152 1.342 . S
N153 N154 1.388 . S
N154 Co137 1.993 . S
N154 N153 1.388 . S
N154 C155 1.346 . S
C155 N154 1.346 . S
C155 C156 1.396 . S
C155 C165 1.510 1_556 S
C156 C152 1.401 . S
C156 C155 1.396 . S
C157 C152 1.499 . S
C157 H158 0.959 . S
C157 H159 0.960 . S
C157 H160 0.961 . S
H158 C157 0.959 . S
H159 C157 0.960 . S
H160 C157 0.961 . S
O161 Co136 1.967 . S
O161 C169 1.258 . S
O162 Co137 1.941 . S
O162 C169 1.266 . S
H163 C165 0.959 . S
H164 C165 0.961 . S
C165 C155 1.510 1_554 S
C165 H163 0.959 . S
C165 H164 0.961 . S
C165 H166 0.960 . S
H166 C165 0.960 . S
H167 N147 0.862 . S
O168 Co136 1.920 . S
O168 C141 1.289 . S
C169 O161 1.258 . S
C169 O162 1.266 . S
Co170 O173 1.970 1_565 S
Co170 N187 1.989 . S
Co170 O195 1.967 . S
Co170 O202 1.920 . S
Co171 O174 1.966 1_565 S
Co171 N180 2.022 . S
Co171 N188 1.993 . S
Co171 O196 1.941 . S
C172 O173 1.258 . S
C172 O174 1.263 . S
O173 Co170 1.970 1_545 S
O173 C172 1.258 . S
O174 Co171 1.966 1_545 S
O174 C172 1.263 . S
C175 O176 1.235 . S
C175 O202 1.289 1_545 S
O176 C175 1.235 . S
C177 C179 1.396 1_545 S
C177 N180 1.338 1_545 S
C177 C182 1.516 . S
C178 C179 1.387 . S
C178 N181 1.341 . S
C179 C177 1.396 1_565 S
C179 C178 1.387 . S
N180 Co171 2.022 . S
N180 C177 1.338 1_565 S
N180 N181 1.365 . S
N181 C178 1.341 . S
N181 N180 1.365 . S
N181 H201 0.862 . S
C182 C177 1.516 . S
C182 H183 0.961 . S
C182 H184 0.961 . S
C182 H185 0.960 . S
H183 C182 0.961 . S
H184 C182 0.961 . S
H185 C182 0.960 . S
C186 N187 1.342 . S
C186 C190 1.401 . S
C186 C191 1.499 . S
N187 Co170 1.989 . S
N187 C186 1.342 . S
N187 N188 1.388 . S
N188 Co171 1.993 . S
N188 N187 1.388 . S
N188 C189 1.346 . S
C189 N188 1.346 . S
C189 C190 1.396 . S
C189 C199 1.510 . S
C190 C186 1.401 . S
C190 C189 1.396 . S
C191 C186 1.499 . S
C191 H192 0.959 . S
C191 H193 0.960 . S
C191 H194 0.961 . S
H192 C191 0.959 . S
H193 C191 0.960 . S
H194 C191 0.961 . S
O195 Co170 1.967 . S
O195 C203 1.258 . S
O196 Co171 1.941 . S
O196 C203 1.266 . S
H197 C199 0.959 . S
H198 C199 0.961 . S
C199 C189 1.510 . S
C199 H197 0.959 . S
C199 H198 0.961 . S
C199 H200 0.960 . S
H200 C199 0.960 . S
H201 N181 0.862 . S
O202 Co170 1.920 . S
O202 C175 1.289 1_565 S
C203 O195 1.258 . S
C203 O196 1.266 . S
Co204 O207 1.970 . S
Co204 N221 1.989 . S
Co204 O229 1.967 . S
Co204 O236 1.920 . S
Co205 O208 1.966 . S
Co205 N214 2.022 . S
Co205 N222 1.993 . S
Co205 O230 1.941 . S
C206 O207 1.258 . S
C206 O208 1.263 . S
O207 Co204 1.970 . S
O207 C206 1.258 . S
O208 Co205 1.966 . S
O208 C206 1.263 . S
C209 O210 1.235 . S
C209 O236 1.289 . S
O210 C209 1.235 . S
C211 C213 1.400 . S
C211 N214 1.351 . S
C211 C216 1.501 . S
C212 C213 1.387 . S
C212 N215 1.341 . S
C213 C211 1.400 . S
C213 C212 1.387 . S
N214 Co205 2.022 . S
N214 C211 1.351 . S
N214 N215 1.365 . S
N215 C212 1.341 . S
N215 N214 1.365 . S
N215 H235 0.862 . S
C216 C211 1.501 . S
C216 H217 0.961 . S
C216 H218 0.961 . S
C216 H219 0.960 . S
H217 C216 0.961 . S
H218 C216 0.961 . S
H219 C216 0.960 . S
C220 N221 1.342 . S
C220 C224 1.401 . S
C220 C225 1.499 . S
N221 Co204 1.989 . S
N221 C220 1.342 . S
N221 N222 1.388 . S
N222 Co205 1.993 . S
N222 N221 1.388 . S
N222 C223 1.346 . S
C223 N222 1.346 . S
C223 C224 1.396 . S
C223 C233 1.510 . S
C224 C220 1.401 . S
C224 C223 1.396 . S
C225 C220 1.499 . S
C225 H226 0.959 . S
C225 H227 0.960 . S
C225 H228 0.961 . S
H226 C225 0.959 . S
H227 C225 0.960 . S
H228 C225 0.961 . S
O229 Co204 1.967 . S
O229 C237 1.258 . S
O230 Co205 1.941 . S
O230 C237 1.266 . S
H231 C233 0.959 . S
H232 C233 0.961 . S
C233 C223 1.510 . S
C233 H231 0.959 . S
C233 H232 0.961 . S
C233 H234 0.960 . S
H234 C233 0.960 . S
H235 N215 0.862 . S
O236 Co204 1.920 . S
O236 C209 1.289 . S
C237 O229 1.258 . S
C237 O230 1.266 . S
Co238 O241 1.970 1_545 S
Co238 N255 1.989 . S
Co238 O263 1.967 . S
Co238 O270 1.920 . S
Co239 O242 1.966 1_545 S
Co239 N248 2.022 . S
Co239 N256 1.993 . S
Co239 O264 1.941 . S
C240 O241 1.258 . S
C240 O242 1.263 . S
O241 Co238 1.970 1_565 S
O241 C240 1.258 . S
O242 Co239 1.966 1_565 S
O242 C240 1.263 . S
C243 O244 1.235 . S
C243 O270 1.289 1_565 S
O244 C243 1.235 . S
C245 C247 1.396 1_565 S
C245 N248 1.338 1_565 S
C245 C250 1.515 . S
C246 C247 1.387 . S
C246 N249 1.341 . S
C247 C245 1.396 1_545 S
C247 C246 1.387 . S
N248 Co239 2.022 . S
N248 C245 1.338 1_545 S
N248 N249 1.365 . S
N249 C246 1.341 . S
N249 N248 1.365 . S
N249 H269 0.862 . S
C250 C245 1.515 . S
C250 H251 0.961 . S
C250 H252 0.961 . S
C250 H253 0.960 . S
H251 C250 0.961 . S
H252 C250 0.961 . S
H253 C250 0.960 . S
C254 N255 1.342 . S
C254 C258 1.401 . S
C254 C259 1.499 . S
N255 Co238 1.989 . S
N255 C254 1.342 . S
N255 N256 1.388 . S
N256 Co239 1.993 . S
N256 N255 1.388 . S
N256 C257 1.346 . S
C257 N256 1.346 . S
C257 C258 1.396 . S
C257 C267 1.510 . S
C258 C254 1.401 . S
C258 C257 1.396 . S
C259 C254 1.499 . S
C259 H260 0.959 . S
C259 H261 0.960 1_455 S
C259 H262 0.961 . S
H260 C259 0.959 . S
H261 C259 0.960 1_655 S
H262 C259 0.961 . S
O263 Co238 1.967 . S
O263 C271 1.258 . S
O264 Co239 1.941 . S
O264 C271 1.266 . S
H265 C267 0.959 . S
H266 C267 0.961 . S
C267 C257 1.510 . S
C267 H265 0.959 . S
C267 H266 0.961 . S
C267 H268 0.960 . S
H268 C267 0.960 . S
H269 N249 0.862 . S
O270 Co238 1.920 . S
O270 C243 1.289 1_545 S
C271 O263 1.258 . S
C271 O264 1.266 . S
Co272 O275 1.970 . S
Co272 N289 1.989 . S
Co272 O297 1.967 . S
Co272 O304 1.920 . S
Co273 O276 1.966 . S
Co273 N282 2.022 1_556 S
Co273 N290 1.993 . S
Co273 O298 1.941 . S
C274 O275 1.258 . S
C274 O276 1.263 . S
O275 Co272 1.970 . S
O275 C274 1.258 . S
O276 Co273 1.966 . S
O276 C274 1.263 . S
C277 O278 1.235 . S
C277 O304 1.289 . S
O278 C277 1.235 . S
C279 C281 1.400 . S
C279 N282 1.351 . S
C279 C284 1.501 . S
C280 C281 1.387 . S
C280 N283 1.341 . S
C281 C279 1.400 . S
C281 C280 1.387 . S
N282 Co273 2.022 1_554 S
N282 C279 1.351 . S
N282 N283 1.365 . S
N283 C280 1.341 . S
N283 N282 1.365 . S
N283 H303 0.862 . S
C284 C279 1.501 . S
C284 H285 0.961 . S
C284 H286 0.961 . S
C284 H287 0.960 . S
H285 C284 0.961 . S
H286 C284 0.961 . S
H287 C284 0.960 . S
C288 N289 1.342 . S
C288 C292 1.401 . S
C288 C293 1.499 . S
N289 Co272 1.989 . S
N289 C288 1.342 . S
N289 N290 1.388 . S
N290 Co273 1.993 . S
N290 N289 1.388 . S
N290 C291 1.346 . S
C291 N290 1.346 . S
C291 C292 1.396 . S
C291 C301 1.510 1_556 S
C292 C288 1.401 . S
C292 C291 1.396 . S
C293 C288 1.499 . S
C293 H294 0.959 . S
C293 H295 0.960 . S
C293 H296 0.961 . S
H294 C293 0.959 . S
H295 C293 0.960 . S
H296 C293 0.961 . S
O297 Co272 1.967 . S
O297 C305 1.258 . S
O298 Co273 1.941 . S
O298 C305 1.266 . S
H299 C301 0.959 . S
H300 C301 0.961 . S
C301 C291 1.510 1_554 S
C301 H299 0.959 . S
C301 H300 0.961 . S
C301 H302 0.960 . S
H302 C301 0.960 . S
H303 N283 0.862 . S
O304 Co272 1.920 . S
O304 C277 1.289 . S
C305 O297 1.258 . S
C305 O298 1.266 . S
Co306 O309 1.970 1_545 S
Co306 N323 1.989 . S
Co306 O331 1.967 . S
Co306 O338 1.920 . S
Co307 O310 1.966 1_545 S
Co307 N316 2.022 . S
Co307 N324 1.993 . S
Co307 O332 1.941 . S
C308 O309 1.258 . S
C308 O310 1.263 . S
O309 Co306 1.970 1_565 S
O309 C308 1.258 . S
O310 Co307 1.966 1_565 S
O310 C308 1.263 . S
C311 O312 1.235 . S
C311 O338 1.289 1_565 S
O312 C311 1.235 . S
C313 C315 1.396 1_565 S
C313 N316 1.338 1_565 S
C313 C318 1.515 . S
C314 C315 1.387 . S
C314 N317 1.341 . S
C315 C313 1.396 1_545 S
C315 C314 1.387 . S
N316 Co307 2.022 . S
N316 C313 1.338 1_545 S
N316 N317 1.365 . S
N317 C314 1.341 . S
N317 N316 1.365 . S
N317 H337 0.862 . S
C318 C313 1.515 . S
C318 H319 0.961 . S
C318 H320 0.961 . S
C318 H321 0.960 . S
H319 C318 0.961 . S
H320 C318 0.961 . S
H321 C318 0.960 . S
C322 N323 1.342 . S
C322 C326 1.401 . S
C322 C327 1.499 . S
N323 Co306 1.989 . S
N323 C322 1.342 . S
N323 N324 1.388 . S
N324 Co307 1.993 . S
N324 N323 1.388 . S
N324 C325 1.346 . S
C325 N324 1.346 . S
C325 C326 1.396 . S
C325 C335 1.510 . S
C326 C322 1.401 . S
C326 C325 1.396 . S
C327 C322 1.499 . S
C327 H328 0.959 . S
C327 H329 0.960 1_655 S
C327 H330 0.961 . S
H328 C327 0.959 . S
H329 C327 0.960 1_455 S
H330 C327 0.961 . S
O331 Co306 1.967 . S
O331 C339 1.258 . S
O332 Co307 1.941 . S
O332 C339 1.266 . S
H333 C335 0.959 . S
H334 C335 0.961 . S
C335 C325 1.510 . S
C335 H333 0.959 . S
C335 H334 0.961 . S
C335 H336 0.960 . S
H336 C335 0.960 . S
H337 N317 0.862 . S
O338 Co306 1.920 . S
O338 C311 1.289 1_545 S
C339 O331 1.258 . S
C339 O332 1.266 . S
Co340 O343 1.970 . S
Co340 N357 1.989 . S
Co340 O365 1.967 . S
Co340 O372 1.920 . S
Co341 O344 1.966 . S
Co341 N350 2.022 . S
Co341 N358 1.993 . S
Co341 O366 1.941 . S
C342 O343 1.258 . S
C342 O344 1.263 . S
O343 Co340 1.970 . S
O343 C342 1.258 . S
O344 Co341 1.966 . S
O344 C342 1.263 . S
C345 O346 1.235 . S
C345 O372 1.289 . S
O346 C345 1.235 . S
C347 C349 1.400 . S
C347 N350 1.351 . S
C347 C352 1.501 . S
C348 C349 1.387 . S
C348 N351 1.341 . S
C349 C347 1.400 . S
C349 C348 1.387 . S
N350 Co341 2.022 . S
N350 C347 1.351 . S
N350 N351 1.365 . S
N351 C348 1.341 . S
N351 N350 1.365 . S
N351 H371 0.862 . S
C352 C347 1.501 . S
C352 H353 0.961 . S
C352 H354 0.961 . S
C352 H355 0.960 . S
H353 C352 0.961 . S
H354 C352 0.961 . S
H355 C352 0.960 . S
C356 N357 1.342 . S
C356 C360 1.401 . S
C356 C361 1.499 . S
N357 Co340 1.989 . S
N357 C356 1.342 . S
N357 N358 1.388 . S
N358 Co341 1.993 . S
N358 N357 1.388 . S
N358 C359 1.346 . S
C359 N358 1.346 . S
C359 C360 1.396 . S
C359 C369 1.510 . S
C360 C356 1.401 . S
C360 C359 1.396 . S
C361 C356 1.499 . S
C361 H362 0.959 . S
C361 H363 0.960 . S
C361 H364 0.961 . S
H362 C361 0.959 . S
H363 C361 0.960 . S
H364 C361 0.961 . S
O365 Co340 1.967 . S
O365 C373 1.258 . S
O366 Co341 1.941 . S
O366 C373 1.266 . S
H367 C369 0.959 . S
H368 C369 0.961 . S
C369 C359 1.510 . S
C369 H367 0.959 . S
C369 H368 0.961 . S
C369 H370 0.960 . S
H370 C369 0.960 . S
H371 N351 0.862 . S
O372 Co340 1.920 . S
O372 C345 1.289 . S
C373 O365 1.258 . S
C373 O366 1.266 . S
Co374 O377 1.970 1_565 S
Co374 N391 1.989 . S
Co374 O399 1.967 . S
Co374 O406 1.920 . S
Co375 O378 1.966 1_565 S
Co375 N384 2.022 . S
Co375 N392 1.993 . S
Co375 O400 1.941 . S
C376 O377 1.258 . S
C376 O378 1.263 . S
O377 Co374 1.970 1_545 S
O377 C376 1.258 . S
O378 Co375 1.966 1_545 S
O378 C376 1.263 . S
C379 O380 1.235 . S
C379 O406 1.289 1_545 S
O380 C379 1.235 . S
C381 C383 1.396 1_545 S
C381 N384 1.338 1_545 S
C381 C386 1.516 . S
C382 C383 1.387 . S
C382 N385 1.341 . S
C383 C381 1.396 1_565 S
C383 C382 1.387 . S
N384 Co375 2.022 . S
N384 C381 1.338 1_565 S
N384 N385 1.365 . S
N385 C382 1.341 . S
N385 N384 1.365 . S
N385 H405 0.862 . S
C386 C381 1.516 . S
C386 H387 0.961 . S
C386 H388 0.961 . S
C386 H389 0.960 . S
H387 C386 0.961 . S
H388 C386 0.961 . S
H389 C386 0.960 . S
C390 N391 1.342 . S
C390 C394 1.401 . S
C390 C395 1.499 . S
N391 Co374 1.989 . S
N391 C390 1.342 . S
N391 N392 1.388 . S
N392 Co375 1.993 . S
N392 N391 1.388 . S
N392 C393 1.346 . S
C393 N392 1.346 . S
C393 C394 1.396 . S
C393 C403 1.510 . S
C394 C390 1.401 . S
C394 C393 1.396 . S
C395 C390 1.499 . S
C395 H396 0.959 . S
C395 H397 0.960 . S
C395 H398 0.961 . S
H396 C395 0.959 . S
H397 C395 0.960 . S
H398 C395 0.961 . S
O399 Co374 1.967 . S
O399 C407 1.258 . S
O400 Co375 1.941 . S
O400 C407 1.266 . S
H401 C403 0.959 . S
H402 C403 0.961 . S
C403 C393 1.510 . S
C403 H401 0.959 . S
C403 H402 0.961 . S
C403 H404 0.960 . S
H404 C403 0.960 . S
H405 N385 0.862 . S
O406 Co374 1.920 . S
O406 C379 1.289 1_565 S
C407 O399 1.258 . S
C407 O400 1.266 . S
Co408 O411 1.970 . S
Co408 N425 1.989 . S
Co408 O433 1.967 . S
Co408 O440 1.920 . S
Co409 O412 1.966 . S
Co409 N418 2.022 1_554 S
Co409 N426 1.993 . S
Co409 O434 1.941 . S
C410 O411 1.258 . S
C410 O412 1.263 . S
O411 Co408 1.970 . S
O411 C410 1.258 . S
O412 Co409 1.966 . S
O412 C410 1.263 . S
C413 O414 1.235 . S
C413 O440 1.289 . S
O414 C413 1.235 . S
C415 C417 1.400 . S
C415 N418 1.351 . S
C415 C420 1.501 . S
C416 C417 1.387 . S
C416 N419 1.341 . S
C417 C415 1.400 . S
C417 C416 1.387 . S
N418 Co409 2.022 1_556 S
N418 C415 1.351 . S
N418 N419 1.365 . S
N419 C416 1.341 . S
N419 N418 1.365 . S
N419 H439 0.862 . S
C420 C415 1.501 . S
C420 H421 0.961 . S
C420 H422 0.961 . S
C420 H423 0.960 . S
H421 C420 0.961 . S
H422 C420 0.961 . S
H423 C420 0.960 . S
C424 N425 1.342 . S
C424 C428 1.401 . S
C424 C429 1.499 . S
N425 Co408 1.989 . S
N425 C424 1.342 . S
N425 N426 1.388 . S
N426 Co409 1.993 . S
N426 N425 1.388 . S
N426 C427 1.346 . S
C427 N426 1.346 . S
C427 C428 1.396 . S
C427 C437 1.510 1_554 S
C428 C424 1.401 . S
C428 C427 1.396 . S
C429 C424 1.499 . S
C429 H430 0.959 . S
C429 H431 0.960 . S
C429 H432 0.961 . S
H430 C429 0.959 . S
H431 C429 0.960 . S
H432 C429 0.961 . S
O433 Co408 1.967 . S
O433 C441 1.258 . S
O434 Co409 1.941 . S
O434 C441 1.266 . S
H435 C437 0.959 . S
H436 C437 0.961 . S
C437 C427 1.510 1_556 S
C437 H435 0.959 . S
C437 H436 0.961 . S
C437 H438 0.960 . S
H438 C437 0.960 . S
H439 N419 0.862 . S
O440 Co408 1.920 . S
O440 C413 1.289 . S
C441 O433 1.258 . S
C441 O434 1.266 . S
Co442 O445 1.970 1_545 S
Co442 N459 1.989 . S
Co442 O467 1.967 . S
Co442 O474 1.920 . S
Co443 O446 1.966 1_545 S
Co443 N452 2.022 . S
Co443 N460 1.993 . S
Co443 O468 1.941 . S
C444 O445 1.258 . S
C444 O446 1.263 . S
O445 Co442 1.970 1_565 S
O445 C444 1.258 . S
O446 Co443 1.966 1_565 S
O446 C444 1.263 . S
C447 O448 1.235 . S
C447 O474 1.289 1_565 S
O448 C447 1.235 . S
C449 C451 1.396 1_565 S
C449 N452 1.338 1_565 S
C449 C454 1.516 . S
C450 C451 1.387 . S
C450 N453 1.341 . S
C451 C449 1.396 1_545 S
C451 C450 1.387 . S
N452 Co443 2.022 . S
N452 C449 1.338 1_545 S
N452 N453 1.365 . S
N453 C450 1.341 . S
N453 N452 1.365 . S
N453 H473 0.862 . S
C454 C449 1.516 . S
C454 H455 0.961 . S
C454 H456 0.961 . S
C454 H457 0.960 . S
H455 C454 0.961 . S
H456 C454 0.961 . S
H457 C454 0.960 . S
C458 N459 1.342 . S
C458 C462 1.401 . S
C458 C463 1.499 . S
N459 Co442 1.989 . S
N459 C458 1.342 . S
N459 N460 1.388 . S
N460 Co443 1.993 . S
N460 N459 1.388 . S
N460 C461 1.346 . S
C461 N460 1.346 . S
C461 C462 1.396 . S
C461 C471 1.510 . S
C462 C458 1.401 . S
C462 C461 1.396 . S
C463 C458 1.499 . S
C463 H464 0.959 . S
C463 H465 0.960 . S
C463 H466 0.961 . S
H464 C463 0.959 . S
H465 C463 0.960 . S
H466 C463 0.961 . S
O467 Co442 1.967 . S
O467 C475 1.258 . S
O468 Co443 1.941 . S
O468 C475 1.266 . S
H469 C471 0.959 . S
H470 C471 0.961 . S
C471 C461 1.510 . S
C471 H469 0.959 . S
C471 H470 0.961 . S
C471 H472 0.960 . S
H472 C471 0.960 . S
H473 N453 0.862 . S
O474 Co442 1.920 . S
O474 C447 1.289 1_545 S
C475 O467 1.258 . S
C475 O468 1.266 . S
Co476 O479 1.970 . S
Co476 N493 1.989 . S
Co476 O501 1.967 . S
Co476 O508 1.920 . S
Co477 O480 1.966 . S
Co477 N486 2.022 . S
Co477 N494 1.993 . S
Co477 O502 1.941 . S
C478 O479 1.258 . S
C478 O480 1.263 . S
O479 Co476 1.970 . S
O479 C478 1.258 . S
O480 Co477 1.966 . S
O480 C478 1.263 . S
C481 O482 1.235 . S
C481 O508 1.289 . S
O482 C481 1.235 . S
C483 C485 1.400 . S
C483 N486 1.351 . S
C483 C488 1.501 . S
C484 C485 1.387 . S
C484 N487 1.341 . S
C485 C483 1.400 . S
C485 C484 1.387 . S
N486 Co477 2.022 . S
N486 C483 1.351 . S
N486 N487 1.365 . S
N487 C484 1.341 . S
N487 N486 1.365 . S
N487 H507 0.862 . S
C488 C483 1.501 . S
C488 H489 0.961 . S
C488 H490 0.961 . S
C488 H491 0.960 . S
H489 C488 0.961 . S
H490 C488 0.961 . S
H491 C488 0.960 . S
C492 N493 1.342 . S
C492 C496 1.401 . S
C492 C497 1.499 . S
N493 Co476 1.989 . S
N493 C492 1.342 . S
N493 N494 1.388 . S
N494 Co477 1.993 . S
N494 N493 1.388 . S
N494 C495 1.346 . S
C495 N494 1.346 . S
C495 C496 1.396 . S
C495 C505 1.510 . S
C496 C492 1.401 . S
C496 C495 1.396 . S
C497 C492 1.499 . S
C497 H498 0.959 . S
C497 H499 0.960 . S
C497 H500 0.961 . S
H498 C497 0.959 . S
H499 C497 0.960 . S
H500 C497 0.961 . S
O501 Co476 1.967 . S
O501 C509 1.258 . S
O502 Co477 1.941 . S
O502 C509 1.266 . S
H503 C505 0.959 . S
H504 C505 0.961 . S
C505 C495 1.510 . S
C505 H503 0.959 . S
C505 H504 0.961 . S
C505 H506 0.960 . S
H506 C505 0.960 . S
H507 N487 0.862 . S
O508 Co476 1.920 . S
O508 C481 1.289 . S
C509 O501 1.258 . S
C509 O502 1.266 . S
Co510 O513 1.970 1_565 S
Co510 N527 1.989 . S
Co510 O535 1.967 . S
Co510 O542 1.920 . S
Co511 O514 1.966 1_565 S
Co511 N520 2.022 . S
Co511 N528 1.993 . S
Co511 O536 1.941 . S
C512 O513 1.258 . S
C512 O514 1.263 . S
O513 Co510 1.970 1_545 S
O513 C512 1.258 . S
O514 Co511 1.966 1_545 S
O514 C512 1.263 . S
C515 O516 1.235 . S
C515 O542 1.289 1_545 S
O516 C515 1.235 . S
C517 C519 1.396 1_545 S
C517 N520 1.338 1_545 S
C517 C522 1.515 . S
C518 C519 1.387 . S
C518 N521 1.341 . S
C519 C517 1.396 1_565 S
C519 C518 1.387 . S
N520 Co511 2.022 . S
N520 C517 1.338 1_565 S
N520 N521 1.365 . S
N521 C518 1.341 . S
N521 N520 1.365 . S
N521 H541 0.862 . S
C522 C517 1.515 . S
C522 H523 0.961 . S
C522 H524 0.961 . S
C522 H525 0.960 . S
H523 C522 0.961 . S
H524 C522 0.961 . S
H525 C522 0.960 . S
C526 N527 1.342 . S
C526 C530 1.401 . S
C526 C531 1.499 . S
N527 Co510 1.989 . S
N527 C526 1.342 . S
N527 N528 1.388 . S
N528 Co511 1.993 . S
N528 N527 1.388 . S
N528 C529 1.346 . S
C529 N528 1.346 . S
C529 C530 1.396 . S
C529 C539 1.510 . S
C530 C526 1.401 . S
C530 C529 1.396 . S
C531 C526 1.499 . S
C531 H532 0.959 . S
C531 H533 0.960 1_655 S
C531 H534 0.961 . S
H532 C531 0.959 . S
H533 C531 0.960 1_455 S
H534 C531 0.961 . S
O535 Co510 1.967 . S
O535 C543 1.258 . S
O536 Co511 1.941 . S
O536 C543 1.266 . S
H537 C539 0.959 . S
H538 C539 0.961 . S
C539 C529 1.510 . S
C539 H537 0.959 . S
C539 H538 0.961 . S
C539 H540 0.960 . S
H540 C539 0.960 . S
H541 N521 0.862 . S
O542 Co510 1.920 . S
O542 C515 1.289 1_565 S
C543 O535 1.258 . S
C543 O536 1.266 . S
Co544 O547 1.970 . S
Co544 N561 1.989 . S
Co544 O569 1.967 . S
Co544 O576 1.920 . S
Co545 O548 1.966 . S
Co545 N554 2.022 . S
Co545 N562 1.993 . S
Co545 O570 1.941 . S
C546 O547 1.258 . S
C546 O548 1.263 . S
O547 Co544 1.970 . S
O547 C546 1.258 . S
O548 Co545 1.966 . S
O548 C546 1.263 . S
C549 O550 1.235 . S
C549 O576 1.289 . S
O550 C549 1.235 . S
C551 C553 1.400 . S
C551 N554 1.351 . S
C551 C556 1.501 . S
C552 C553 1.387 . S
C552 N555 1.341 . S
C553 C551 1.400 . S
C553 C552 1.387 . S
N554 Co545 2.022 . S
N554 C551 1.351 . S
N554 N555 1.365 . S
N555 C552 1.341 . S
N555 N554 1.365 . S
N555 H575 0.862 . S
C556 C551 1.501 . S
C556 H557 0.961 . S
C556 H558 0.961 . S
C556 H559 0.960 . S
H557 C556 0.961 . S
H558 C556 0.961 . S
H559 C556 0.960 . S
C560 N561 1.342 . S
C560 C564 1.401 . S
C560 C565 1.499 . S
N561 Co544 1.989 . S
N561 C560 1.342 . S
N561 N562 1.388 . S
N562 Co545 1.993 . S
N562 N561 1.388 . S
N562 C563 1.346 . S
C563 N562 1.346 . S
C563 C564 1.396 . S
C563 C573 1.510 . S
C564 C560 1.401 . S
C564 C563 1.396 . S
C565 C560 1.499 . S
C565 H566 0.959 . S
C565 H567 0.960 . S
C565 H568 0.961 . S
H566 C565 0.959 . S
H567 C565 0.960 . S
H568 C565 0.961 . S
O569 Co544 1.967 . S
O569 C577 1.258 . S
O570 Co545 1.941 . S
O570 C577 1.266 . S
H571 C573 0.959 . S
H572 C573 0.961 . S
C573 C563 1.510 . S
C573 H571 0.959 . S
C573 H572 0.961 . S
C573 H574 0.960 . S
H574 C573 0.960 . S
H575 N555 0.862 . S
O576 Co544 1.920 . S
O576 C549 1.289 . S
C577 O569 1.258 . S
C577 O570 1.266 . S
Co578 O581 1.970 . S
Co578 N595 1.989 . S
Co578 O603 1.967 . S
Co578 O610 1.920 . S
Co579 O582 1.966 . S
Co579 N588 2.022 . S
Co579 N596 1.993 . S
Co579 O604 1.941 . S
C580 O581 1.258 . S
C580 O582 1.263 . S
O581 Co578 1.970 . S
O581 C580 1.258 . S
O582 Co579 1.966 . S
O582 C580 1.263 . S
C583 O584 1.235 . S
C583 O610 1.289 . S
O584 C583 1.235 . S
C585 C587 1.400 . S
C585 N588 1.351 . S
C585 C590 1.501 . S
C586 C587 1.387 . S
C586 N589 1.341 . S
C587 C585 1.400 . S
C587 C586 1.387 . S
N588 Co579 2.022 . S
N588 C585 1.351 . S
N588 N589 1.365 . S
N589 C586 1.341 . S
N589 N588 1.365 . S
N589 H609 0.862 . S
C590 C585 1.501 . S
C590 H591 0.961 . S
C590 H592 0.961 . S
C590 H593 0.960 . S
H591 C590 0.961 . S
H592 C590 0.961 . S
H593 C590 0.960 . S
C594 N595 1.342 . S
C594 C598 1.401 . S
C594 C599 1.499 . S
N595 Co578 1.989 . S
N595 C594 1.342 . S
N595 N596 1.388 . S
N596 Co579 1.993 . S
N596 N595 1.388 . S
N596 C597 1.346 . S
C597 N596 1.346 . S
C597 C598 1.396 . S
C597 C607 1.510 . S
C598 C594 1.401 . S
C598 C597 1.396 . S
C599 C594 1.499 . S
C599 H600 0.959 . S
C599 H601 0.960 . S
C599 H602 0.961 . S
H600 C599 0.959 . S
H601 C599 0.960 . S
H602 C599 0.961 . S
O603 Co578 1.967 . S
O603 C611 1.258 . S
O604 Co579 1.941 . S
O604 C611 1.266 . S
H605 C607 0.959 . S
H606 C607 0.961 . S
C607 C597 1.510 . S
C607 H605 0.959 . S
C607 H606 0.961 . S
C607 H608 0.960 . S
H608 C607 0.960 . S
H609 N589 0.862 . S
O610 Co578 1.920 . S
O610 C583 1.289 . S
C611 O603 1.258 . S
C611 O604 1.266 . S
Co612 O615 1.970 . S
Co612 N629 1.989 . S
Co612 O637 1.967 . S
Co612 O644 1.920 . S
Co613 O616 1.966 . S
Co613 N622 2.022 1_554 S
Co613 N630 1.993 . S
Co613 O638 1.941 . S
C614 O615 1.258 . S
C614 O616 1.263 . S
O615 Co612 1.970 . S
O615 C614 1.258 . S
O616 Co613 1.966 . S
O616 C614 1.263 . S
C617 O618 1.235 . S
C617 O644 1.289 . S
O618 C617 1.235 . S
C619 C621 1.400 . S
C619 N622 1.351 . S
C619 C624 1.501 . S
C620 C621 1.387 . S
C620 N623 1.341 . S
C621 C619 1.400 . S
C621 C620 1.387 . S
N622 Co613 2.022 1_556 S
N622 C619 1.351 . S
N622 N623 1.365 . S
N623 C620 1.341 . S
N623 N622 1.365 . S
N623 H643 0.862 . S
C624 C619 1.501 . S
C624 H625 0.961 . S
C624 H626 0.961 . S
C624 H627 0.960 . S
H625 C624 0.961 . S
H626 C624 0.961 . S
H627 C624 0.960 . S
C628 N629 1.342 . S
C628 C632 1.401 . S
C628 C633 1.499 . S
N629 Co612 1.989 . S
N629 C628 1.342 . S
N629 N630 1.388 . S
N630 Co613 1.993 . S
N630 N629 1.388 . S
N630 C631 1.346 . S
C631 N630 1.346 . S
C631 C632 1.396 . S
C631 C641 1.510 1_554 S
C632 C628 1.401 . S
C632 C631 1.396 . S
C633 C628 1.499 . S
C633 H634 0.959 . S
C633 H635 0.960 . S
C633 H636 0.961 . S
H634 C633 0.959 . S
H635 C633 0.960 . S
H636 C633 0.961 . S
O637 Co612 1.967 . S
O637 C645 1.258 . S
O638 Co613 1.941 . S
O638 C645 1.266 . S
H639 C641 0.959 . S
H640 C641 0.961 . S
C641 C631 1.510 1_556 S
C641 H639 0.959 . S
C641 H640 0.961 . S
C641 H642 0.960 . S
H642 C641 0.960 . S
H643 N623 0.862 . S
O644 Co612 1.920 . S
O644 C617 1.289 . S
C645 O637 1.258 . S
C645 O638 1.266 . S
Co646 O649 1.970 . S
Co646 N663 1.989 . S
Co646 O671 1.967 . S
Co646 O678 1.920 . S
Co647 O650 1.966 . S
Co647 N656 2.022 . S
Co647 N664 1.993 . S
Co647 O672 1.941 . S
C648 O649 1.258 . S
C648 O650 1.263 . S
O649 Co646 1.970 . S
O649 C648 1.258 . S
O650 Co647 1.966 . S
O650 C648 1.263 . S
C651 O652 1.235 . S
C651 O678 1.289 . S
O652 C651 1.235 . S
C653 C655 1.400 . S
C653 N656 1.351 . S
C653 C658 1.501 . S
C654 C655 1.387 . S
C654 N657 1.341 . S
C655 C653 1.400 . S
C655 C654 1.387 . S
N656 Co647 2.022 . S
N656 C653 1.351 . S
N656 N657 1.365 . S
N657 C654 1.341 . S
N657 N656 1.365 . S
N657 H677 0.862 . S
C658 C653 1.501 . S
C658 H659 0.961 . S
C658 H660 0.961 . S
C658 H661 0.960 . S
H659 C658 0.961 . S
H660 C658 0.961 . S
H661 C658 0.960 . S
C662 N663 1.342 . S
C662 C666 1.401 . S
C662 C667 1.499 . S
N663 Co646 1.989 . S
N663 C662 1.342 . S
N663 N664 1.388 . S
N664 Co647 1.993 . S
N664 N663 1.388 . S
N664 C665 1.346 . S
C665 N664 1.346 . S
C665 C666 1.396 . S
C665 C675 1.510 . S
C666 C662 1.401 . S
C666 C665 1.396 . S
C667 C662 1.499 . S
C667 H668 0.959 . S
C667 H669 0.960 1_655 S
C667 H670 0.961 . S
H668 C667 0.959 . S
H669 C667 0.960 1_455 S
H670 C667 0.961 . S
O671 Co646 1.967 . S
O671 C679 1.258 . S
O672 Co647 1.941 . S
O672 C679 1.266 . S
H673 C675 0.959 . S
H674 C675 0.961 . S
C675 C665 1.510 . S
C675 H673 0.959 . S
C675 H674 0.961 . S
C675 H676 0.960 . S
H676 C675 0.960 . S
H677 N657 0.862 . S
O678 Co646 1.920 . S
O678 C651 1.289 . S
C679 O671 1.258 . S
C679 O672 1.266 . S
Co680 O683 1.970 . S
Co680 N697 1.989 . S
Co680 O705 1.967 . S
Co680 O712 1.920 . S
Co681 O684 1.966 . S
Co681 N690 2.022 . S
Co681 N698 1.993 . S
Co681 O706 1.941 . S
C682 O683 1.258 . S
C682 O684 1.263 . S
O683 Co680 1.970 . S
O683 C682 1.258 . S
O684 Co681 1.966 . S
O684 C682 1.263 . S
C685 O686 1.235 . S
C685 O712 1.289 . S
O686 C685 1.235 . S
C687 C689 1.400 . S
C687 N690 1.351 . S
C687 C692 1.501 . S
C688 C689 1.387 . S
C688 N691 1.341 . S
C689 C687 1.400 . S
C689 C688 1.387 . S
N690 Co681 2.022 . S
N690 C687 1.351 . S
N690 N691 1.365 . S
N691 C688 1.341 . S
N691 N690 1.365 . S
N691 H711 0.862 . S
C692 C687 1.501 . S
C692 H693 0.961 . S
C692 H694 0.961 . S
C692 H695 0.960 . S
H693 C692 0.961 . S
H694 C692 0.961 . S
H695 C692 0.960 . S
C696 N697 1.342 . S
C696 C700 1.401 . S
C696 C701 1.499 . S
N697 Co680 1.989 . S
N697 C696 1.342 . S
N697 N698 1.388 . S
N698 Co681 1.993 . S
N698 N697 1.388 . S
N698 C699 1.346 . S
C699 N698 1.346 . S
C699 C700 1.396 . S
C699 C709 1.510 . S
C700 C696 1.401 . S
C700 C699 1.396 . S
C701 C696 1.499 . S
C701 H702 0.959 . S
C701 H703 0.960 . S
C701 H704 0.961 . S
H702 C701 0.959 . S
H703 C701 0.960 . S
H704 C701 0.961 . S
O705 Co680 1.967 . S
O705 C713 1.258 . S
O706 Co681 1.941 . S
O706 C713 1.266 . S
H707 C709 0.959 . S
H708 C709 0.961 . S
C709 C699 1.510 . S
C709 H707 0.959 . S
C709 H708 0.961 . S
C709 H710 0.960 . S
H710 C709 0.960 . S
H711 N691 0.862 . S
O712 Co680 1.920 . S
O712 C685 1.289 . S
C713 O705 1.258 . S
C713 O706 1.266 . S
Co714 O717 1.970 . S
Co714 N731 1.989 . S
Co714 O739 1.967 . S
Co714 O746 1.920 . S
Co715 O718 1.966 . S
Co715 N724 2.022 . S
Co715 N732 1.993 . S
Co715 O740 1.941 . S
C716 O717 1.258 . S
C716 O718 1.263 . S
O717 Co714 1.970 . S
O717 C716 1.258 . S
O718 Co715 1.966 . S
O718 C716 1.263 . S
C719 O720 1.235 . S
C719 O746 1.289 . S
O720 C719 1.235 . S
C721 C723 1.400 . S
C721 N724 1.351 . S
C721 C726 1.501 . S
C722 C723 1.387 . S
C722 N725 1.341 . S
C723 C721 1.400 . S
C723 C722 1.387 . S
N724 Co715 2.022 . S
N724 C721 1.351 . S
N724 N725 1.365 . S
N725 C722 1.341 . S
N725 N724 1.365 . S
N725 H745 0.862 . S
C726 C721 1.501 . S
C726 H727 0.961 . S
C726 H728 0.961 . S
C726 H729 0.960 . S
H727 C726 0.961 . S
H728 C726 0.961 . S
H729 C726 0.960 . S
C730 N731 1.342 . S
C730 C734 1.401 . S
C730 C735 1.499 . S
N731 Co714 1.989 . S
N731 C730 1.342 . S
N731 N732 1.388 . S
N732 Co715 1.993 . S
N732 N731 1.388 . S
N732 C733 1.346 . S
C733 N732 1.346 . S
C733 C734 1.396 . S
C733 C743 1.510 . S
C734 C730 1.401 . S
C734 C733 1.396 . S
C735 C730 1.499 . S
C735 H736 0.959 . S
C735 H737 0.960 1_655 S
C735 H738 0.961 . S
H736 C735 0.959 . S
H737 C735 0.960 1_455 S
H738 C735 0.961 . S
O739 Co714 1.967 . S
O739 C747 1.258 . S
O740 Co715 1.941 . S
O740 C747 1.266 . S
H741 C743 0.959 . S
H742 C743 0.961 . S
C743 C733 1.510 . S
C743 H741 0.959 . S
C743 H742 0.961 . S
C743 H744 0.960 . S
H744 C743 0.960 . S
H745 N725 0.862 . S
O746 Co714 1.920 . S
O746 C719 1.289 . S
C747 O739 1.258 . S
C747 O740 1.266 . S
Co748 O751 1.970 . S
Co748 N765 1.989 . S
Co748 O773 1.967 . S
Co748 O780 1.920 . S
Co749 O752 1.966 . S
Co749 N758 2.022 1_556 S
Co749 N766 1.993 . S
Co749 O774 1.941 . S
C750 O751 1.258 . S
C750 O752 1.263 . S
O751 Co748 1.970 . S
O751 C750 1.258 . S
O752 Co749 1.966 . S
O752 C750 1.263 . S
C753 O754 1.235 . S
C753 O780 1.289 . S
O754 C753 1.235 . S
C755 C757 1.400 . S
C755 N758 1.351 . S
C755 C760 1.501 . S
C756 C757 1.387 . S
C756 N759 1.341 . S
C757 C755 1.400 . S
C757 C756 1.387 . S
N758 Co749 2.022 1_554 S
N758 C755 1.351 . S
N758 N759 1.365 . S
N759 C756 1.341 . S
N759 N758 1.365 . S
N759 H779 0.862 . S
C760 C755 1.501 . S
C760 H761 0.961 . S
C760 H762 0.961 . S
C760 H763 0.960 . S
H761 C760 0.961 . S
H762 C760 0.961 . S
H763 C760 0.960 . S
C764 N765 1.342 . S
C764 C768 1.401 . S
C764 C769 1.499 . S
N765 Co748 1.989 . S
N765 C764 1.342 . S
N765 N766 1.388 . S
N766 Co749 1.993 . S
N766 N765 1.388 . S
N766 C767 1.346 . S
C767 N766 1.346 . S
C767 C768 1.396 . S
C767 C777 1.510 1_556 S
C768 C764 1.401 . S
C768 C767 1.396 . S
C769 C764 1.499 . S
C769 H770 0.959 . S
C769 H771 0.960 . S
C769 H772 0.961 . S
H770 C769 0.959 . S
H771 C769 0.960 . S
H772 C769 0.961 . S
O773 Co748 1.967 . S
O773 C781 1.258 . S
O774 Co749 1.941 . S
O774 C781 1.266 . S
H775 C777 0.959 . S
H776 C777 0.961 . S
C777 C767 1.510 1_554 S
C777 H775 0.959 . S
C777 H776 0.961 . S
C777 H778 0.960 . S
H778 C777 0.960 . S
H779 N759 0.862 . S
O780 Co748 1.920 . S
O780 C753 1.289 . S
C781 O773 1.258 . S
C781 O774 1.266 . S
Co782 O785 1.970 . S
Co782 N799 1.989 . S
Co782 O807 1.967 . S
Co782 O814 1.920 . S
Co783 O786 1.966 . S
Co783 N792 2.022 . S
Co783 N800 1.993 . S
Co783 O808 1.941 . S
C784 O785 1.258 . S
C784 O786 1.263 . S
O785 Co782 1.970 . S
O785 C784 1.258 . S
O786 Co783 1.966 . S
O786 C784 1.263 . S
C787 O788 1.235 . S
C787 O814 1.289 . S
O788 C787 1.235 . S
C789 C791 1.400 . S
C789 N792 1.351 . S
C789 C794 1.501 . S
C790 C791 1.387 . S
C790 N793 1.341 . S
C791 C789 1.400 . S
C791 C790 1.387 . S
N792 Co783 2.022 . S
N792 C789 1.351 . S
N792 N793 1.365 . S
N793 C790 1.341 . S
N793 N792 1.365 . S
N793 H813 0.862 . S
C794 C789 1.501 . S
C794 H795 0.961 . S
C794 H796 0.961 . S
C794 H797 0.960 . S
H795 C794 0.961 . S
H796 C794 0.961 . S
H797 C794 0.960 . S
C798 N799 1.342 . S
C798 C802 1.401 . S
C798 C803 1.499 . S
N799 Co782 1.989 . S
N799 C798 1.342 . S
N799 N800 1.388 . S
N800 Co783 1.993 . S
N800 N799 1.388 . S
N800 C801 1.346 . S
C801 N800 1.346 . S
C801 C802 1.396 . S
C801 C811 1.510 . S
C802 C798 1.401 . S
C802 C801 1.396 . S
C803 C798 1.499 . S
C803 H804 0.959 . S
C803 H805 0.960 . S
C803 H806 0.961 . S
H804 C803 0.959 . S
H805 C803 0.960 . S
H806 C803 0.961 . S
O807 Co782 1.967 . S
O807 C815 1.258 . S
O808 Co783 1.941 . S
O808 C815 1.266 . S
H809 C811 0.959 . S
H810 C811 0.961 . S
C811 C801 1.510 . S
C811 H809 0.959 . S
C811 H810 0.961 . S
C811 H812 0.960 . S
H812 C811 0.960 . S
H813 N793 0.862 . S
O814 Co782 1.920 . S
O814 C787 1.289 . S
C815 O807 1.258 . S
C815 O808 1.266 . S
Co816 O819 1.970 . S
Co816 N833 1.989 . S
Co816 O841 1.967 . S
Co816 O848 1.920 . S
Co817 O820 1.966 . S
Co817 N826 2.022 . S
Co817 N834 1.993 . S
Co817 O842 1.941 . S
C818 O819 1.258 . S
C818 O820 1.263 . S
O819 Co816 1.970 . S
O819 C818 1.258 . S
O820 Co817 1.966 . S
O820 C818 1.263 . S
C821 O822 1.235 . S
C821 O848 1.289 . S
O822 C821 1.235 . S
C823 C825 1.400 . S
C823 N826 1.351 . S
C823 C828 1.501 . S
C824 C825 1.387 . S
C824 N827 1.341 . S
C825 C823 1.400 . S
C825 C824 1.387 . S
N826 Co817 2.022 . S
N826 C823 1.351 . S
N826 N827 1.365 . S
N827 C824 1.341 . S
N827 N826 1.365 . S
N827 H847 0.862 . S
C828 C823 1.501 . S
C828 H829 0.961 . S
C828 H830 0.961 . S
C828 H831 0.960 . S
H829 C828 0.961 . S
H830 C828 0.961 . S
H831 C828 0.960 . S
C832 N833 1.342 . S
C832 C836 1.401 . S
C832 C837 1.499 . S
N833 Co816 1.989 . S
N833 C832 1.342 . S
N833 N834 1.388 . S
N834 Co817 1.993 . S
N834 N833 1.388 . S
N834 C835 1.346 . S
C835 N834 1.346 . S
C835 C836 1.396 . S
C835 C845 1.510 . S
C836 C832 1.401 . S
C836 C835 1.396 . S
C837 C832 1.499 . S
C837 H838 0.959 . S
C837 H839 0.960 . S
C837 H840 0.961 . S
H838 C837 0.959 . S
H839 C837 0.960 . S
H840 C837 0.961 . S
O841 Co816 1.967 . S
O841 C849 1.258 . S
O842 Co817 1.941 . S
O842 C849 1.266 . S
H843 C845 0.959 . S
H844 C845 0.961 . S
C845 C835 1.510 . S
C845 H843 0.959 . S
C845 H844 0.961 . S
C845 H846 0.960 . S
H846 C845 0.960 . S
H847 N827 0.862 . S
O848 Co816 1.920 . S
O848 C821 1.289 . S
C849 O841 1.258 . S
C849 O842 1.266 . S
Co850 O853 1.970 . S
Co850 N867 1.989 . S
Co850 O875 1.967 . S
Co850 O882 1.920 . S
Co851 O854 1.966 . S
Co851 N860 2.022 . S
Co851 N868 1.993 . S
Co851 O876 1.941 . S
C852 O853 1.258 . S
C852 O854 1.263 . S
O853 Co850 1.970 . S
O853 C852 1.258 . S
O854 Co851 1.966 . S
O854 C852 1.263 . S
C855 O856 1.235 . S
C855 O882 1.289 . S
O856 C855 1.235 . S
C857 C859 1.400 . S
C857 N860 1.351 . S
C857 C862 1.501 . S
C858 C859 1.387 . S
C858 N861 1.341 . S
C859 C857 1.400 . S
C859 C858 1.387 . S
N860 Co851 2.022 . S
N860 C857 1.351 . S
N860 N861 1.365 . S
N861 C858 1.341 . S
N861 N860 1.365 . S
N861 H881 0.862 . S
C862 C857 1.501 . S
C862 H863 0.961 . S
C862 H864 0.961 . S
C862 H865 0.960 . S
H863 C862 0.961 . S
H864 C862 0.961 . S
H865 C862 0.960 . S
C866 N867 1.342 . S
C866 C870 1.401 . S
C866 C871 1.499 . S
N867 Co850 1.989 . S
N867 C866 1.342 . S
N867 N868 1.388 . S
N868 Co851 1.993 . S
N868 N867 1.388 . S
N868 C869 1.346 . S
C869 N868 1.346 . S
C869 C870 1.396 . S
C869 C879 1.510 . S
C870 C866 1.401 . S
C870 C869 1.396 . S
C871 C866 1.499 . S
C871 H872 0.959 . S
C871 H873 0.960 . S
C871 H874 0.961 . S
H872 C871 0.959 . S
H873 C871 0.960 . S
H874 C871 0.961 . S
O875 Co850 1.967 . S
O875 C883 1.258 . S
O876 Co851 1.941 . S
O876 C883 1.266 . S
H877 C879 0.959 . S
H878 C879 0.961 . S
C879 C869 1.510 . S
C879 H877 0.959 . S
C879 H878 0.961 . S
C879 H880 0.960 . S
H880 C879 0.960 . S
H881 N861 0.862 . S
O882 Co850 1.920 . S
O882 C855 1.289 . S
C883 O875 1.258 . S
C883 O876 1.266 . S
Co884 O887 1.970 . S
Co884 N901 1.989 . S
Co884 O909 1.967 . S
Co884 O916 1.920 . S
Co885 O888 1.966 . S
Co885 N894 2.022 1_556 S
Co885 N902 1.993 . S
Co885 O910 1.941 . S
C886 O887 1.258 . S
C886 O888 1.263 . S
O887 Co884 1.970 . S
O887 C886 1.258 . S
O888 Co885 1.966 . S
O888 C886 1.263 . S
C889 O890 1.235 . S
C889 O916 1.289 . S
O890 C889 1.235 . S
C891 C893 1.400 . S
C891 N894 1.351 . S
C891 C896 1.501 . S
C892 C893 1.387 . S
C892 N895 1.341 . S
C893 C891 1.400 . S
C893 C892 1.387 . S
N894 Co885 2.022 1_554 S
N894 C891 1.351 . S
N894 N895 1.365 . S
N895 C892 1.341 . S
N895 N894 1.365 . S
N895 H915 0.862 . S
C896 C891 1.501 . S
C896 H897 0.961 . S
C896 H898 0.961 . S
C896 H899 0.960 . S
H897 C896 0.961 . S
H898 C896 0.961 . S
H899 C896 0.960 . S
C900 N901 1.342 . S
C900 C904 1.401 . S
C900 C905 1.499 . S
N901 Co884 1.989 . S
N901 C900 1.342 . S
N901 N902 1.388 . S
N902 Co885 1.993 . S
N902 N901 1.388 . S
N902 C903 1.346 . S
C903 N902 1.346 . S
C903 C904 1.396 . S
C903 C913 1.510 1_556 S
C904 C900 1.401 . S
C904 C903 1.396 . S
C905 C900 1.499 . S
C905 H906 0.959 . S
C905 H907 0.960 . S
C905 H908 0.961 . S
H906 C905 0.959 . S
H907 C905 0.960 . S
H908 C905 0.961 . S
O909 Co884 1.967 . S
O909 C917 1.258 . S
O910 Co885 1.941 . S
O910 C917 1.266 . S
H911 C913 0.959 . S
H912 C913 0.961 . S
C913 C903 1.510 1_554 S
C913 H911 0.959 . S
C913 H912 0.961 . S
C913 H914 0.960 . S
H914 C913 0.960 . S
H915 N895 0.862 . S
O916 Co884 1.920 . S
O916 C889 1.289 . S
C917 O909 1.258 . S
C917 O910 1.266 . S
Co918 O921 1.970 . S
Co918 N935 1.989 . S
Co918 O943 1.967 . S
Co918 O950 1.920 . S
Co919 O922 1.966 . S
Co919 N928 2.022 . S
Co919 N936 1.993 . S
Co919 O944 1.941 . S
C920 O921 1.258 . S
C920 O922 1.263 . S
O921 Co918 1.970 . S
O921 C920 1.258 . S
O922 Co919 1.966 . S
O922 C920 1.263 . S
C923 O924 1.235 . S
C923 O950 1.289 . S
O924 C923 1.235 . S
C925 C927 1.400 . S
C925 N928 1.351 . S
C925 C930 1.501 . S
C926 C927 1.387 . S
C926 N929 1.341 . S
C927 C925 1.400 . S
C927 C926 1.387 . S
N928 Co919 2.022 . S
N928 C925 1.351 . S
N928 N929 1.365 . S
N929 C926 1.341 . S
N929 N928 1.365 . S
N929 H949 0.862 . S
C930 C925 1.501 . S
C930 H931 0.961 . S
C930 H932 0.961 . S
C930 H933 0.960 . S
H931 C930 0.961 . S
H932 C930 0.961 . S
H933 C930 0.960 . S
C934 N935 1.342 . S
C934 C938 1.401 . S
C934 C939 1.499 . S
N935 Co918 1.989 . S
N935 C934 1.342 . S
N935 N936 1.388 . S
N936 Co919 1.993 . S
N936 N935 1.388 . S
N936 C937 1.346 . S
C937 N936 1.346 . S
C937 C938 1.396 . S
C937 C947 1.510 . S
C938 C934 1.401 . S
C938 C937 1.396 . S
C939 C934 1.499 . S
C939 H940 0.959 . S
C939 H941 0.960 1_455 S
C939 H942 0.961 . S
H940 C939 0.959 . S
H941 C939 0.960 1_655 S
H942 C939 0.961 . S
O943 Co918 1.967 . S
O943 C951 1.258 . S
O944 Co919 1.941 . S
O944 C951 1.266 . S
H945 C947 0.959 . S
H946 C947 0.961 . S
C947 C937 1.510 . S
C947 H945 0.959 . S
C947 H946 0.961 . S
C947 H948 0.960 . S
H948 C947 0.960 . S
H949 N929 0.862 . S
O950 Co918 1.920 . S
O950 C923 1.289 . S
C951 O943 1.258 . S
C951 O944 1.266 . S
Co952 O955 1.970 . S
Co952 N969 1.989 . S
Co952 O977 1.967 . S
Co952 O984 1.920 . S
Co953 O956 1.966 . S
Co953 N962 2.022 . S
Co953 N970 1.993 . S
Co953 O978 1.941 . S
C954 O955 1.258 . S
C954 O956 1.263 . S
O955 Co952 1.970 . S
O955 C954 1.258 . S
O956 Co953 1.966 . S
O956 C954 1.263 . S
C957 O958 1.235 . S
C957 O984 1.289 . S
O958 C957 1.235 . S
C959 C961 1.400 . S
C959 N962 1.351 . S
C959 C964 1.501 . S
C960 C961 1.387 . S
C960 N963 1.341 . S
C961 C959 1.400 . S
C961 C960 1.387 . S
N962 Co953 2.022 . S
N962 C959 1.351 . S
N962 N963 1.365 . S
N963 C960 1.341 . S
N963 N962 1.365 . S
N963 H983 0.862 . S
C964 C959 1.501 . S
C964 H965 0.961 . S
C964 H966 0.961 . S
C964 H967 0.960 . S
H965 C964 0.961 . S
H966 C964 0.961 . S
H967 C964 0.960 . S
C968 N969 1.342 . S
C968 C972 1.401 . S
C968 C973 1.499 . S
N969 Co952 1.989 . S
N969 C968 1.342 . S
N969 N970 1.388 . S
N970 Co953 1.993 . S
N970 N969 1.388 . S
N970 C971 1.346 . S
C971 N970 1.346 . S
C971 C972 1.396 . S
C971 C981 1.510 . S
C972 C968 1.401 . S
C972 C971 1.396 . S
C973 C968 1.499 . S
C973 H974 0.959 . S
C973 H975 0.960 . S
C973 H976 0.961 . S
H974 C973 0.959 . S
H975 C973 0.960 . S
H976 C973 0.961 . S
O977 Co952 1.967 . S
O977 C985 1.258 . S
O978 Co953 1.941 . S
O978 C985 1.266 . S
H979 C981 0.959 . S
H980 C981 0.961 . S
C981 C971 1.510 . S
C981 H979 0.959 . S
C981 H980 0.961 . S
C981 H982 0.960 . S
H982 C981 0.960 . S
H983 N963 0.862 . S
O984 Co952 1.920 . S
O984 C957 1.289 . S
C985 O977 1.258 . S
C985 O978 1.266 . S
Co986 O989 1.970 . S
Co986 N1003 1.989 . S
Co986 O1011 1.967 . S
Co986 O1018 1.920 . S
Co987 O990 1.966 . S
Co987 N996 2.022 . S
Co987 N1004 1.993 . S
Co987 O1012 1.941 . S
C988 O989 1.258 . S
C988 O990 1.263 . S
O989 Co986 1.970 . S
O989 C988 1.258 . S
O990 Co987 1.966 . S
O990 C988 1.263 . S
C991 O992 1.235 . S
C991 O1018 1.289 . S
O992 C991 1.235 . S
C993 C995 1.400 . S
C993 N996 1.351 . S
C993 C998 1.501 . S
C994 C995 1.387 . S
C994 N997 1.341 . S
C995 C993 1.400 . S
C995 C994 1.387 . S
N996 Co987 2.022 . S
N996 C993 1.351 . S
N996 N997 1.365 . S
N997 C994 1.341 . S
N997 N996 1.365 . S
N997 H1017 0.862 . S
C998 C993 1.501 . S
C998 H999 0.961 . S
C998 H1000 0.961 . S
C998 H1001 0.960 . S
H999 C998 0.961 . S
H1000 C998 0.961 . S
H1001 C998 0.960 . S
C1002 N1003 1.342 . S
C1002 C1006 1.401 . S
C1002 C1007 1.499 . S
N1003 Co986 1.989 . S
N1003 C1002 1.342 . S
N1003 N1004 1.388 . S
N1004 Co987 1.993 . S
N1004 N1003 1.388 . S
N1004 C1005 1.346 . S
C1005 N1004 1.346 . S
C1005 C1006 1.396 . S
C1005 C1015 1.510 . S
C1006 C1002 1.401 . S
C1006 C1005 1.396 . S
C1007 C1002 1.499 . S
C1007 H1008 0.959 . S
C1007 H1009 0.960 1_455 S
C1007 H1010 0.961 . S
H1008 C1007 0.959 . S
H1009 C1007 0.960 1_655 S
H1010 C1007 0.961 . S
O1011 Co986 1.967 . S
O1011 C1019 1.258 . S
O1012 Co987 1.941 . S
O1012 C1019 1.266 . S
H1013 C1015 0.959 . S
H1014 C1015 0.961 . S
C1015 C1005 1.510 . S
C1015 H1013 0.959 . S
C1015 H1014 0.961 . S
C1015 H1016 0.960 . S
H1016 C1015 0.960 . S
H1017 N997 0.862 . S
O1018 Co986 1.920 . S
O1018 C991 1.289 . S
C1019 O1011 1.258 . S
C1019 O1012 1.266 . S
Co1020 O1023 1.970 . S
Co1020 N1037 1.989 . S
Co1020 O1045 1.967 . S
Co1020 O1052 1.920 . S
Co1021 O1024 1.966 . S
Co1021 N1030 2.022 1_554 S
Co1021 N1038 1.993 . S
Co1021 O1046 1.941 . S
C1022 O1023 1.258 . S
C1022 O1024 1.263 . S
O1023 Co1020 1.970 . S
O1023 C1022 1.258 . S
O1024 Co1021 1.966 . S
O1024 C1022 1.263 . S
C1025 O1026 1.235 . S
C1025 O1052 1.289 . S
O1026 C1025 1.235 . S
C1027 C1029 1.400 . S
C1027 N1030 1.351 . S
C1027 C1032 1.501 . S
C1028 C1029 1.387 . S
C1028 N1031 1.341 . S
C1029 C1027 1.400 . S
C1029 C1028 1.387 . S
N1030 Co1021 2.022 1_556 S
N1030 C1027 1.351 . S
N1030 N1031 1.365 . S
N1031 C1028 1.341 . S
N1031 N1030 1.365 . S
N1031 H1051 0.862 . S
C1032 C1027 1.501 . S
C1032 H1033 0.961 . S
C1032 H1034 0.961 . S
C1032 H1035 0.960 . S
H1033 C1032 0.961 . S
H1034 C1032 0.961 . S
H1035 C1032 0.960 . S
C1036 N1037 1.342 . S
C1036 C1040 1.401 . S
C1036 C1041 1.499 . S
N1037 Co1020 1.989 . S
N1037 C1036 1.342 . S
N1037 N1038 1.388 . S
N1038 Co1021 1.993 . S
N1038 N1037 1.388 . S
N1038 C1039 1.346 . S
C1039 N1038 1.346 . S
C1039 C1040 1.396 . S
C1039 C1049 1.510 1_554 S
C1040 C1036 1.401 . S
C1040 C1039 1.396 . S
C1041 C1036 1.499 . S
C1041 H1042 0.959 . S
C1041 H1043 0.960 . S
C1041 H1044 0.961 . S
H1042 C1041 0.959 . S
H1043 C1041 0.960 . S
H1044 C1041 0.961 . S
O1045 Co1020 1.967 . S
O1045 C1053 1.258 . S
O1046 Co1021 1.941 . S
O1046 C1053 1.266 . S
H1047 C1049 0.959 . S
H1048 C1049 0.961 . S
C1049 C1039 1.510 1_556 S
C1049 H1047 0.959 . S
C1049 H1048 0.961 . S
C1049 H1050 0.960 . S
H1050 C1049 0.960 . S
H1051 N1031 0.862 . S
O1052 Co1020 1.920 . S
O1052 C1025 1.289 . S
C1053 O1045 1.258 . S
C1053 O1046 1.266 . S
Co1054 O1057 1.970 . S
Co1054 N1071 1.989 . S
Co1054 O1079 1.967 . S
Co1054 O1086 1.920 . S
Co1055 O1058 1.966 . S
Co1055 N1064 2.022 . S
Co1055 N1072 1.993 . S
Co1055 O1080 1.941 . S
C1056 O1057 1.258 . S
C1056 O1058 1.263 . S
O1057 Co1054 1.970 . S
O1057 C1056 1.258 . S
O1058 Co1055 1.966 . S
O1058 C1056 1.263 . S
C1059 O1060 1.235 . S
C1059 O1086 1.289 . S
O1060 C1059 1.235 . S
C1061 C1063 1.400 . S
C1061 N1064 1.351 . S
C1061 C1066 1.501 . S
C1062 C1063 1.387 . S
C1062 N1065 1.341 . S
C1063 C1061 1.400 . S
C1063 C1062 1.387 . S
N1064 Co1055 2.022 . S
N1064 C1061 1.351 . S
N1064 N1065 1.365 . S
N1065 C1062 1.341 . S
N1065 N1064 1.365 . S
N1065 H1085 0.862 . S
C1066 C1061 1.501 . S
C1066 H1067 0.961 . S
C1066 H1068 0.961 . S
C1066 H1069 0.960 . S
H1067 C1066 0.961 . S
H1068 C1066 0.961 . S
H1069 C1066 0.960 . S
C1070 N1071 1.342 . S
C1070 C1074 1.401 . S
C1070 C1075 1.499 . S
N1071 Co1054 1.989 . S
N1071 C1070 1.342 . S
N1071 N1072 1.388 . S
N1072 Co1055 1.993 . S
N1072 N1071 1.388 . S
N1072 C1073 1.346 . S
C1073 N1072 1.346 . S
C1073 C1074 1.396 . S
C1073 C1083 1.510 . S
C1074 C1070 1.401 . S
C1074 C1073 1.396 . S
C1075 C1070 1.499 . S
C1075 H1076 0.959 . S
C1075 H1077 0.960 . S
C1075 H1078 0.961 . S
H1076 C1075 0.959 . S
H1077 C1075 0.960 . S
H1078 C1075 0.961 . S
O1079 Co1054 1.967 . S
O1079 C1087 1.258 . S
O1080 Co1055 1.941 . S
O1080 C1087 1.266 . S
H1081 C1083 0.959 . S
H1082 C1083 0.961 . S
C1083 C1073 1.510 . S
C1083 H1081 0.959 . S
C1083 H1082 0.961 . S
C1083 H1084 0.960 . S
H1084 C1083 0.960 . S
H1085 N1065 0.862 . S
O1086 Co1054 1.920 . S
O1086 C1059 1.289 . S
C1087 O1079 1.258 . S
C1087 O1080 1.266 . S
C43 C33 2.717 1_565 S
C67 C77 2.717 . S
C101 C111 2.717 1_565 S
C135 C9 2.717 . S
C169 C247 2.717 1_565 S
C145 C203 2.717 . S
C237 C179 2.717 1_545 S
C271 C213 2.717 . S
C315 C305 2.717 1_545 S
C349 C339 2.717 . S
C373 C383 2.717 1_545 S
C281 C407 2.717 . S
C441 C519 2.717 1_545 S
C475 C417 2.717 . S
C451 C509 2.717 1_545 S
C485 C543 2.717 . S
C587 C577 2.717 . S
C611 C621 2.717 . S
C655 C645 2.717 . S
C553 C679 2.717 . S
C791 C713 2.717 . S
C747 C689 2.717 . S
C723 C781 2.717 . S
C815 C757 2.717 . S
C859 C849 2.717 . S
C883 C893 2.717 . S
C917 C927 2.717 . S
C951 C825 2.717 . S
C1063 C985 2.717 . S
C961 C1019 2.717 . S
C995 C1053 2.717 . S
C1029 C1087 2.717 . S
C209 C5 1.189 . S
C39 C243 1.190 1_545 S
C73 C141 1.189 . S
C107 C175 1.190 1_566 S
C481 C277 1.189 . S
C515 C311 1.190 1_545 S
C345 C413 1.189 . S
C447 C379 1.190 1_566 S
C549 C753 1.189 . S
C583 C787 1.190 1_556 S
C685 C617 1.189 . S
C719 C651 1.190 . S
C1025 C821 1.189 . S
C1059 C855 1.190 1_556 S
C957 C889 1.189 . S
C991 C923 1.190 . S
C172 C2 1.534 . S
C36 C206 1.534 . S
C70 C240 1.534 . S
C104 C138 1.534 . S
C444 C274 1.534 . S
C308 C478 1.534 . S
C512 C342 1.534 . S
C376 C410 1.534 . S
C546 C716 1.534 . S
C750 C580 1.534 . S
C784 C614 1.534 . S
C648 C682 1.534 . S
C818 C988 1.534 . S
C1022 C852 1.534 . S
C1056 C886 1.534 . S
C954 C920 1.534 . S
C20 C1040 1.574 . S
C530 C54 1.575 1_655 S
C972 C88 1.574 . S
C122 C462 1.575 . S
C156 C904 1.574 . S
C394 C190 1.575 . S
C224 C836 1.574 . S
C258 C326 1.575 1_455 S
C292 C768 1.574 . S
C360 C700 1.574 . S
C428 C632 1.574 . S
C496 C564 1.574 . S
C598 C1074 1.575 . S
C1006 C666 1.575 1_455 S
C938 C734 1.575 1_455 S
C870 C802 1.575 . S
