# Generated by pormake.
# Topology ttw, (5)-cn, num edge types: 1
# Building blocks:
#     Node 0, Type 0, BuildingBlock: BEQFEK_clean_sbu_0, # of connection points: 5
#     Node 1, Type 0, BuildingBlock: BEQFEK_clean_sbu_0, # of connection points: 5
#     Node 2, Type 0, BuildingBlock: BEQFEK_clean_sbu_0, # of connection points: 5
#     Node 3, Type 0, BuildingBlock: BEQFEK_clean_sbu_0, # of connection points: 5
#     Node 4, Type 0, BuildingBlock: BEQFEK_clean_sbu_0, # of connection points: 5
#     Node 5, Type 0, BuildingBlock: BEQFEK_clean_sbu_0, # of connection points: 5
#     Edge 6, Type (0, 0), BuildingBlock: XUDNAN_clean_linker_2, # of connection points: 2
#     Edge 7, Type (0, 0), BuildingBlock: XUDNAN_clean_linker_2, # of connection points: 2
#     Edge 8, Type (0, 0), BuildingBlock: XUDNAN_clean_linker_2, # of connection points: 2
#     Edge 9, Type (0, 0), BuildingBlock: XUDNAN_clean_linker_2, # of connection points: 2
#     Edge 10, Type (0, 0), BuildingBlock: XUDNAN_clean_linker_2, # of connection points: 2
#     Edge 11, Type (0, 0), BuildingBlock: XUDNAN_clean_linker_2, # of connection points: 2
#     Edge 12, Type (0, 0), BuildingBlock: XUDNAN_clean_linker_2, # of connection points: 2
#     Edge 13, Type (0, 0), BuildingBlock: XUDNAN_clean_linker_2, # of connection points: 2
#     Edge 14, Type (0, 0), BuildingBlock: XUDNAN_clean_linker_2, # of connection points: 2
#     Edge 15, Type (0, 0), BuildingBlock: XUDNAN_clean_linker_2, # of connection points: 2
#     Edge 16, Type (0, 0), BuildingBlock: XUDNAN_clean_linker_2, # of connection points: 2
#     Edge 17, Type (0, 0), BuildingBlock: XUDNAN_clean_linker_2, # of connection points: 2
#     Edge 18, Type (0, 0), BuildingBlock: XUDNAN_clean_linker_2, # of connection points: 2
#     Edge 19, Type (0, 0), BuildingBlock: XUDNAN_clean_linker_2, # of connection points: 2
#     Edge 20, Type (0, 0), BuildingBlock: XUDNAN_clean_linker_2, # of connection points: 2
# Relax obj value: 0.108
# Max RMSD: 0.172
# Mean RMSD: 0.159
data_MOF--net-ttw--node1-BEQFEK_clean_sbu_0--edge1-XUDNAN_clean_linker_2
_symmetry_space_group_name_H-M    P1
_symmetry_Int_Tables_number       1
_symmetry_cell_setting            triclinic
loop_
_symmetry_equiv_pos_as_xyz
'x, y, z'
_cell_length_a     55.519232
_cell_length_b     57.907044
_cell_length_c     19.483866
_cell_angle_alpha  91.325846
_cell_angle_beta   90.004511
_cell_angle_gamma 125.70779
loop_
_atom_site_label
_atom_site_type_symbol
_atom_site_fract_x
_atom_site_fract_y
_atom_site_fract_z
_atom_type_partial_charge
Co0 Co 0.18 0.53051 0.99228 0.0
Co1 Co 0.17901 0.53435 0.15397 0.0
C2 C 0.22124 0.52626 0.08128 0.0
O3 O 0.21153 0.52669 0.02248 0.0
O4 O 0.21019 0.52834 0.13634 0.0
C5 C 0.17347 0.50384 0.85967 0.0
O6 O 0.17385 0.48502 0.89511 0.0
C7 C 0.17164 0.51774 0.30015 0.0
C8 C 0.16553 0.54894 0.34777 0.0
C9 C 0.1672 0.52664 0.36307 0.0
N10 N 0.17237 0.53401 0.25065 0.0
N11 N 0.16863 0.55253 0.27966 0.0
C12 C 0.1763 0.49505 0.28706 0.0
H13 H 0.1863 0.49738 0.23634 0.0
H14 H 0.15453 0.47394 0.28707 0.0
H15 H 0.19072 0.49579 0.32782 0.0
C16 C 0.11572 0.48895 0.01287 0.0
N17 N 0.14371 0.50563 0.03782 0.0
N18 N 0.14308 0.50726 0.10525 0.0
C19 C 0.11457 0.49155 0.12525 0.0
C20 C 0.09627 0.47952 0.0673 0.0
C21 C 0.1078 0.48436 0.93793 0.0
H22 H 0.11687 0.47359 0.91322 0.0
H23 H 0.08345 0.47093 0.92882 0.0
H24 H 0.11801 0.50522 0.91366 0.0
O25 O 0.19409 0.57024 0.01072 0.0
O26 O 0.19493 0.57339 0.12466 0.0
H27 H 0.08068 0.47828 0.20173 0.0
H28 H 0.11458 0.48409 0.23213 0.0
C29 C 0.10515 0.49182 0.19707 0.0
H30 H 0.11398 0.51395 0.2132 0.0
H31 H 0.16847 0.56785 0.25291 0.0
O32 O 0.1752 0.52425 0.89114 0.0
C33 C 0.1995 0.58461 0.06628 0.0
Co34 Co 0.48276 0.16086 0.16585 0.0
Co35 Co 0.48859 0.16359 0.00435 0.0
C36 C 0.48332 0.20487 0.08424 0.0
O37 O 0.48205 0.19325 0.14007 0.0
O38 O 0.48544 0.19542 0.02655 0.0
C39 C 0.45866 0.16166 0.29577 0.0
O40 O 0.44718 0.17189 0.25918 0.0
C41 C 0.47308 0.16081 0.85781 0.0
C42 C 0.50454 0.15438 0.80793 0.0
C43 C 0.48227 0.15773 0.79363 0.0
N44 N 0.4893 0.15947 0.90673 0.0
N45 N 0.50804 0.15562 0.87651 0.0
C46 C 0.44827 0.16322 0.87385 0.0
H47 H 0.45642 0.18581 0.87093 0.0
H48 H 0.44039 0.15616 0.92679 0.0
H49 H 0.42957 0.15022 0.83666 0.0
C50 C 0.43748 0.10076 0.13072 0.0
N51 N 0.4557 0.12797 0.11182 0.0
N52 N 0.45799 0.12879 0.04451 0.0
C53 C 0.44122 0.10193 0.01849 0.0
C54 C 0.42775 0.08323 0.07219 0.0
C55 C 0.43441 0.09195 0.20371 0.0
H56 H 0.45675 0.10128 0.22634 0.0
H57 H 0.42417 0.10057 0.23368 0.0
H58 H 0.42068 0.06852 0.20827 0.0
O59 O 0.52341 0.17138 0.15257 0.0
O60 O 0.52759 0.17461 0.03918 0.0
H61 H 0.46371 0.1006 0.93111 0.0
H62 H 0.42494 0.07093 0.93439 0.0
C63 C 0.4412 0.09413 0.94472 0.0
H64 H 0.43551 0.1057 0.91183 0.0
H65 H 0.52331 0.15395 0.90273 0.0
O66 O 0.47395 0.1546 0.2659 0.0
C67 C 0.53845 0.17653 0.09838 0.0
Co68 Co 0.48542 0.65259 0.01194 0.0
Co69 Co 0.48633 0.65242 0.17356 0.0
C70 C 0.49833 0.70243 0.1012 0.0
O71 O 0.49383 0.68958 0.04356 0.0
O72 O 0.49705 0.69094 0.15731 0.0
C73 C 0.51095 0.67863 0.88434 0.0
O74 O 0.52628 0.70158 0.92419 0.0
C75 C 0.50357 0.66566 0.32067 0.0
C76 C 0.46964 0.62439 0.36592 0.0
C77 C 0.49338 0.65202 0.38327 0.0
N78 N 0.48639 0.64692 0.26985 0.0
N79 N 0.46626 0.6223 0.2973 0.0
C80 C 0.52989 0.69529 0.30766 0.0
H81 H 0.53759 0.69673 0.25432 0.0
H82 H 0.54824 0.70176 0.34437 0.0
H83 H 0.52347 0.71012 0.31381 0.0
C84 C 0.52341 0.63296 0.03346 0.0
N85 N 0.51002 0.64471 0.05772 0.0
N86 N 0.51104 0.64538 0.12529 0.0
C87 C 0.52531 0.63429 0.14608 0.0
C88 C 0.53343 0.6258 0.08873 0.0
C89 C 0.52195 0.62437 0.95968 0.0
H90 H 0.49851 0.61133 0.94131 0.0
H91 H 0.53436 0.64374 0.92852 0.0
H92 H 0.53148 0.6122 0.95194 0.0
O93 O 0.44297 0.62201 0.02929 0.0
O94 O 0.44488 0.62364 0.14326 0.0
H95 H 0.50525 0.61097 0.23712 0.0
H96 H 0.5428 0.62194 0.22505 0.0
C97 C 0.52757 0.62834 0.21923 0.0
H98 H 0.53585 0.64761 0.25179 0.0
H99 H 0.44995 0.60413 0.26918 0.0
O100 O 0.49221 0.65477 0.91112 0.0
C101 C 0.43037 0.61312 0.08698 0.0
Co102 Co 0.80299 0.34913 0.17069 0.0
Co103 Co 0.79704 0.3476 0.00943 0.0
C104 C 0.75168 0.29847 0.09088 0.0
O105 O 0.76599 0.31157 0.14607 0.0
O106 O 0.76116 0.30962 0.03252 0.0
C107 C 0.80894 0.32861 0.29809 0.0
O108 O 0.80518 0.30791 0.25902 0.0
C109 C 0.79596 0.33445 0.85955 0.0
C110 C 0.81374 0.37669 0.81818 0.0
C111 C 0.80405 0.34935 0.79867 0.0
N112 N 0.80121 0.35246 0.91211 0.0
N113 N 0.81161 0.37756 0.8867 0.0
C114 C 0.78278 0.30362 0.86799 0.0
H115 H 0.76999 0.29584 0.91591 0.0
H116 H 0.80088 0.30082 0.87129 0.0
H117 H 0.76809 0.29074 0.82353 0.0
C118 C 0.86361 0.36831 0.13503 0.0
N119 N 0.83517 0.35676 0.11742 0.0
N120 N 0.83243 0.35526 0.05003 0.0
C121 C 0.85905 0.36535 0.02271 0.0
C122 C 0.87976 0.37426 0.07547 0.0
C123 C 0.87569 0.37754 0.20687 0.0
H124 H 0.86572 0.3873 0.23269 0.0
H125 H 0.86943 0.35858 0.23591 0.0
H126 H 0.9002 0.39294 0.20809 0.0
O127 O 0.79662 0.3789 0.15655 0.0
O128 O 0.79087 0.37636 0.04326 0.0
H129 H 0.86407 0.38583 0.92847 0.0
H130 H 0.88745 0.37375 0.93651 0.0
C131 C 0.8652 0.36858 0.94747 0.0
H132 H 0.84826 0.34849 0.91964 0.0
H133 H 0.81763 0.39546 0.91637 0.0
O134 O 0.80992 0.34881 0.27041 0.0
C135 C 0.7916 0.38706 0.1017 0.0
Co136 Co 0.39914 0.83488 0.16207 0.0
Co137 Co 0.401 0.8354 1.00058 0.0
C138 C 0.44223 0.82933 0.0816 0.0
O139 O 0.43105 0.83096 0.13691 0.0
O140 O 0.43292 0.8307 0.02308 0.0
C141 C 0.42736 0.85848 0.29214 0.0
O142 O 0.45111 0.8732 0.25431 0.0
C143 C 0.41699 0.84862 0.85284 0.0
C144 C 0.37252 0.83097 0.80896 0.0
C145 C 0.40194 0.84453 0.79136 0.0
N146 N 0.39722 0.8381 0.90399 0.0
N147 N 0.37076 0.82761 0.87713 0.0
C148 C 0.44917 0.86106 0.86267 0.0
H149 H 0.45296 0.85366 0.91058 0.0
H150 H 0.46201 0.88458 0.86659 0.0
H151 H 0.45741 0.85525 0.81845 0.0
C152 C 0.4024 0.88709 0.13999 0.0
N153 N 0.40327 0.86553 0.11656 0.0
N154 N 0.4055 0.86656 0.04925 0.0
C155 C 0.40657 0.88911 0.0278 0.0
C156 C 0.40445 0.90274 0.08455 0.0
C157 C 0.39924 0.89219 0.21405 0.0
H158 H 0.42005 0.89957 0.24208 0.0
H159 H 0.39506 0.90861 0.22116 0.0
H160 H 0.38096 0.87199 0.23666 0.0
O161 O 0.36023 0.79863 0.13866 0.0
O162 O 0.36268 0.80015 0.02499 0.0
H163 H 0.40952 0.91615 0.94784 0.0
H164 H 0.42427 0.89614 0.92676 0.0
C165 C 0.40641 0.89559 0.95394 0.0
H166 H 0.38486 0.8785 0.92981 0.0
H167 H 0.35139 0.81806 0.90549 0.0
O168 O 0.40222 0.84114 0.26295 0.0
C169 C 0.34893 0.78785 0.07948 0.0
Co170 Co 0.63162 0.46158 0.17609 0.0
Co171 Co 0.62961 0.45725 0.0145 0.0
C172 C 0.6802 0.46597 0.09492 0.0
O173 O 0.6685 0.46611 0.15093 0.0
O174 O 0.66773 0.46279 0.03707 0.0
C175 C 0.65676 0.48918 0.3076 0.0
O176 O 0.68001 0.50771 0.27166 0.0
C177 C 0.64355 0.47249 0.86753 0.0
C178 C 0.59909 0.44234 0.82038 0.0
C179 C 0.62816 0.46389 0.80479 0.0
N180 N 0.62424 0.45687 0.91729 0.0
N181 N 0.59778 0.43888 0.88852 0.0
C182 C 0.67604 0.49437 0.88031 0.0
H183 H 0.68314 0.49099 0.92984 0.0
H184 H 0.68068 0.51579 0.88283 0.0
H185 H 0.68908 0.49371 0.83816 0.0
C186 C 0.61885 0.50317 0.1483 0.0
N187 N 0.62681 0.48631 0.12685 0.0
N188 N 0.62622 0.48493 0.05925 0.0
C189 C 0.61801 0.50116 0.03566 0.0
C190 C 0.61298 0.51315 0.09133 0.0
C191 C 0.61405 0.5072 0.22194 0.0
H192 H 0.6355 0.51833 0.25035 0.0
H193 H 0.60518 0.52003 0.22769 0.0
H194 H 0.59858 0.48613 0.24508 0.0
O195 O 0.59736 0.42174 0.15736 0.0
O196 O 0.59697 0.41859 0.04354 0.0
H197 H 0.60453 0.51654 0.95437 0.0
H198 H 0.63023 0.50837 0.93019 0.0
C199 C 0.61074 0.50171 0.96203 0.0
H200 H 0.59203 0.48001 0.9446 0.0
H201 H 0.57873 0.42424 0.91555 0.0
O202 O 0.63359 0.46856 0.27668 0.0
C203 C 0.58634 0.40743 0.10129 0.0
H204 H 0.04926 0.43009 0.12112 0.0
H205 H 0.07236 0.50321 0.00509 0.0
H206 H 0.01941 0.48432 0.99622 0.0
H207 H 0.98204 0.37841 0.02784 0.0
H208 H 0.962 0.35852 0.10228 0.0
H209 H 0.00177 0.37792 0.10065 0.0
H210 H 0.00638 0.40509 0.21316 0.0
H211 H 0.96661 0.38575 0.21515 0.0
H212 H 0.98978 0.4241 0.21729 0.0
H213 H 0.96478 0.45775 0.99836 0.0
H214 H 0.91055 0.4246 0.01151 0.0
H215 H 0.92186 0.36825 0.12659 0.0
C216 C 0.04298 0.44199 0.09403 0.0
C217 C 0.06456 0.46785 0.06304 0.0
C218 C 0.0559 0.48313 0.02824 0.0
C219 C 0.026 0.47266 0.02324 0.0
C220 C 0.00514 0.44698 0.05376 0.0
C221 C 0.01312 0.43182 0.08864 0.0
C222 C 0.98608 0.40466 0.11627 0.0
C223 C 0.98279 0.37832 0.08486 0.0
C224 C 0.98729 0.40493 0.19516 0.0
C225 C 0.9617 0.40686 0.09085 0.0
C226 C 0.9733 0.43152 0.0551 0.0
C227 C 0.95537 0.43834 0.02608 0.0
C228 C 0.92468 0.41937 0.03347 0.0
C229 C 0.91227 0.39387 0.06923 0.0
C230 C 0.93098 0.38763 0.09883 0.0
H231 H 0.44416 0.95618 0.03877 0.0
H232 H 0.35761 0.90197 0.13004 0.0
H233 H 0.35238 0.94167 0.13059 0.0
H234 H 0.46761 0.01949 0.13242 0.0
H235 H 0.48686 0.04259 0.06167 0.0
H236 H 0.48291 0.00954 0.06627 0.0
H237 H 0.45827 0.99463 0.94498 0.0
H238 H 0.46198 0.02762 0.94024 0.0
H239 H 0.42606 0.9942 0.92844 0.0
H240 H 0.35789 0.98814 0.12555 0.0
H241 H 0.37424 0.03807 0.11697 0.0
H242 H 0.45666 0.06106 0.02739 0.0
C243 C 0.42407 0.95274 0.05836 0.0
C244 C 0.40131 0.9263 0.08463 0.0
C245 C 0.37534 0.92233 0.11029 0.0
C246 C 0.37214 0.94463 0.11038 0.0
C247 C 0.39506 0.97059 0.08416 0.0
C248 C 0.42051 0.97472 0.05857 0.0
C249 C 0.44225 0.00484 0.03526 0.0
C250 C 0.47163 0.02 0.07638 0.0
C251 C 0.44743 0.00534 0.95762 0.0
C252 C 0.4253 0.01717 0.05272 0.0
C253 C 0.39803 0.99709 0.08046 0.0
C254 C 0.37904 0.00396 0.10316 0.0
C255 C 0.38839 0.03222 0.09807 0.0
C256 C 0.41636 0.05299 0.07055 0.0
C257 C 0.43485 0.04529 0.04711 0.0
H258 H 0.63017 0.56494 0.04486 0.0
H259 H 0.55708 0.48786 0.13613 0.0
H260 H 0.52786 0.50763 0.1395 0.0
H261 H 0.62309 0.61307 0.14327 0.0
H262 H 0.63208 0.63697 0.07433 0.0
H263 H 0.64664 0.61618 0.07493 0.0
H264 H 0.62377 0.59531 0.95384 0.0
H265 H 0.60915 0.61609 0.95283 0.0
H266 H 0.58464 0.57804 0.93932 0.0
H267 H 0.50773 0.53609 0.13856 0.0
H268 H 0.49745 0.57218 0.13356 0.0
H269 H 0.58318 0.63131 0.04251 0.0
C270 C 0.60791 0.55229 0.06489 0.0
C271 C 0.5957 0.52505 0.09058 0.0
C272 C 0.56665 0.50888 0.11671 0.0
C273 C 0.54994 0.51987 0.11855 0.0
C274 C 0.56263 0.54697 0.09368 0.0
C275 C 0.59089 0.56301 0.06716 0.0
C276 C 0.59952 0.59195 0.04616 0.0
C277 C 0.62695 0.61595 0.08714 0.0
C278 C 0.60456 0.59554 0.96841 0.0
C279 C 0.57191 0.5898 0.06619 0.0
C280 C 0.55088 0.56355 0.09306 0.0
C281 C 0.5239 0.55665 0.11727 0.0
C282 C 0.5183 0.57723 0.11446 0.0
C283 C 0.53961 0.6043 0.0879 0.0
C284 C 0.56659 0.61061 0.06272 0.0
H285 H 0.18239 0.55792 0.48226 0.0
H286 H 0.1477 0.47276 0.40525 0.0
H287 H 0.14702 0.45809 0.52317 0.0
H288 H 0.22837 0.56214 0.61808 0.0
H289 H 0.21972 0.58072 0.67692 0.0
H290 H 0.21878 0.58478 0.58582 0.0
H291 H 0.16448 0.56882 0.59382 0.0
H292 H 0.16525 0.56471 0.68494 0.0
H293 H 0.13696 0.53527 0.63153 0.0
H294 H 0.15068 0.45292 0.65109 0.0
H295 H 0.15581 0.45713 0.77779 0.0
H296 H 0.18476 0.5447 0.77036 0.0
C297 C 0.1747 0.53616 0.48988 0.0
C298 C 0.16612 0.51685 0.43364 0.0
C299 C 0.15581 0.48848 0.44646 0.0
C300 C 0.15493 0.47978 0.51369 0.0
C301 C 0.16396 0.49955 0.56768 0.0
C302 C 0.17337 0.52708 0.55646 0.0
C303 C 0.18098 0.54402 0.62322 0.0
C304 C 0.21392 0.56941 0.62616 0.0
C305 C 0.1607 0.55377 0.63399 0.0
C306 C 0.17445 0.52173 0.67393 0.0
C307 C 0.16484 0.49625 0.64101 0.0
C308 C 0.15805 0.47273 0.67739 0.0
C309 C 0.16108 0.47534 0.74928 0.0
C310 C 0.17054 0.50118 0.78393 0.0
C311 C 0.17724 0.52458 0.74545 0.0
H312 H 0.47443 0.13672 0.38648 0.0
H313 H 0.43717 0.18487 0.37657 0.0
H314 H 0.43618 0.18672 0.50311 0.0
H315 H 0.43226 0.09523 0.53654 0.0
H316 H 0.46287 0.09603 0.57108 0.0
H317 H 0.4588 0.0969 0.4796 0.0
H318 H 0.51205 0.1434 0.47513 0.0
H319 H 0.51625 0.14272 0.56649 0.0
H320 H 0.52184 0.17361 0.52871 0.0
H321 H 0.44406 0.18754 0.63073 0.0
H322 H 0.45764 0.1851 0.74897 0.0
H323 H 0.48678 0.13379 0.67659 0.0
C324 C 0.46572 0.14736 0.41088 0.0
C325 C 0.4559 0.16067 0.3715 0.0
C326 C 0.44471 0.17441 0.40552 0.0
C327 C 0.44408 0.1756 0.47745 0.0
C328 C 0.45436 0.16265 0.51475 0.0
C329 C 0.46466 0.14851 0.48264 0.0
C330 C 0.47519 0.13704 0.53466 0.0
C331 C 0.45614 0.10436 0.5302 0.0
C332 C 0.50829 0.14998 0.5257 0.0
C333 C 0.46992 0.14757 0.6009 0.0
C334 C 0.45781 0.16221 0.58839 0.0
C335 C 0.45276 0.17543 0.64135 0.0
C336 C 0.46024 0.17359 0.70887 0.0
C337 C 0.47232 0.15834 0.72315 0.0
C338 C 0.47711 0.1452 0.66795 0.0
H339 H 0.49116 0.63543 0.78823 0.0
H340 H 0.53827 0.727 0.81007 0.0
H341 H 0.54173 0.73082 0.68404 0.0
H342 H 0.53314 0.63672 0.64126 0.0
H343 H 0.50108 0.60513 0.60146 0.0
H344 H 0.50359 0.60979 0.69358 0.0
H345 H 0.45312 0.603 0.69396 0.0
H346 H 0.45048 0.59835 0.60196 0.0
H347 H 0.44823 0.62539 0.64202 0.0
H348 H 0.5357 0.72407 0.55552 0.0
H349 H 0.52304 0.70767 0.43508 0.0
H350 H 0.48334 0.62094 0.49647 0.0
C351 C 0.50241 0.65631 0.76652 0.0
C352 C 0.51439 0.68091 0.80898 0.0
C353 C 0.52902 0.70786 0.77859 0.0
C354 C 0.53108 0.71026 0.70702 0.0
C355 C 0.51878 0.68557 0.66658 0.0
C356 C 0.50501 0.65914 0.69522 0.0
C357 C 0.49312 0.63588 0.64025 0.0
C358 C 0.50867 0.62101 0.6444 0.0
C359 C 0.45923 0.6144 0.64484 0.0
C360 C 0.50179 0.6533 0.57628 0.0
C361 C 0.51657 0.68189 0.59249 0.0
C362 C 0.52491 0.70182 0.54203 0.0
C363 C 0.51793 0.69227 0.47317 0.0
C364 C 0.50315 0.66305 0.45513 0.0
C365 C 0.49515 0.6435 0.50792 0.0
H366 H 0.7981 0.37083 0.68258 0.0
H367 H 0.81174 0.30843 0.75133 0.0
H368 H 0.81349 0.29558 0.63091 0.0
H369 H 0.75322 0.33206 0.53223 0.0
H370 H 0.7702 0.36346 0.48161 0.0
H371 H 0.76804 0.36618 0.57335 0.0
H372 H 0.82502 0.40397 0.58082 0.0
H373 H 0.82738 0.40122 0.48918 0.0
H374 H 0.84915 0.39556 0.54548 0.0
H375 H 0.8145 0.29015 0.50116 0.0
H376 H 0.81521 0.29313 0.37457 0.0
H377 H 0.80405 0.36121 0.39285 0.0
C378 C 0.8012 0.35425 0.67253 0.0
C379 C 0.80379 0.34003 0.72684 0.0
C380 C 0.8083 0.3188 0.71114 0.0
C381 C 0.80977 0.31161 0.64263 0.0
C382 C 0.80711 0.32611 0.59047 0.0
C383 C 0.80301 0.34706 0.60478 0.0
C384 C 0.80183 0.36024 0.53989 0.0
C385 C 0.77152 0.35517 0.53128 0.0
C386 C 0.82737 0.39213 0.53881 0.0
C387 C 0.80592 0.34346 0.4866 0.0
C388 C 0.8088 0.32377 0.51658 0.0
C389 C 0.81235 0.30555 0.47722 0.0
C390 C 0.81274 0.30741 0.40539 0.0
C391 C 0.80985 0.3275 0.3738 0.0
C392 C 0.8066 0.34581 0.41532 0.0
H393 H 0.38469 0.82472 0.38516 0.0
H394 H 0.4757 0.89922 0.37018 0.0
H395 H 0.47983 0.90385 0.49691 0.0
H396 H 0.36485 0.84903 0.53033 0.0
H397 H 0.34232 0.81443 0.56759 0.0
H398 H 0.34671 0.81738 0.47597 0.0
H399 H 0.36563 0.78568 0.47649 0.0
H400 H 0.36139 0.78271 0.56817 0.0
H401 H 0.39677 0.79574 0.53096 0.0
H402 H 0.47322 0.90079 0.62622 0.0
H403 H 0.4568 0.88976 0.74613 0.0
H404 H 0.37114 0.81585 0.67462 0.0
C405 C 0.40548 0.8421 0.40841 0.0
C406 C 0.42984 0.86168 0.36782 0.0
C407 C 0.45673 0.88397 0.40032 0.0
C408 C 0.45929 0.88678 0.47223 0.0
C409 C 0.43484 0.867 0.51073 0.0
C410 C 0.40849 0.84505 0.47985 0.0
C411 C 0.3856 0.82638 0.5325 0.0
C412 C 0.35826 0.82685 0.52621 0.0
C413 C 0.37685 0.79582 0.52667 0.0
C414 C 0.40307 0.84134 0.59793 0.0
C415 C 0.4314 0.86474 0.58455 0.0
C416 C 0.45124 0.88223 0.6373 0.0
C417 C 0.44182 0.87557 0.70548 0.0
C418 C 0.41295 0.85143 0.72016 0.0
C419 C 0.39346 0.83429 0.66531 0.0
H420 H 0.61877 0.44825 0.39715 0.0
H421 H 0.69702 0.5355 0.38933 0.0
H422 H 0.69876 0.53898 0.51634 0.0
H423 H 0.58492 0.45752 0.54187 0.0
H424 H 0.57155 0.42351 0.5768 0.0
H425 H 0.57629 0.42837 0.48561 0.0
H426 H 0.61054 0.41156 0.48617 0.0
H427 H 0.60598 0.40674 0.5774 0.0
H428 H 0.64265 0.42932 0.54256 0.0
H429 H 0.6907 0.53297 0.64501 0.0
H430 H 0.67483 0.51761 0.76334 0.0
H431 H 0.60404 0.43329 0.68534 0.0
C432 C 0.63619 0.46818 0.42203 0.0
C433 C 0.65767 0.49168 0.3834 0.0
C434 C 0.68031 0.51724 0.41799 0.0
C435 C 0.68146 0.51942 0.49005 0.0
C436 C 0.65998 0.49576 0.52659 0.0
C437 C 0.63788 0.47059 0.49365 0.0
C438 C 0.61784 0.44804 0.54445 0.0
C439 C 0.58576 0.43883 0.53671 0.0
C440 C 0.61936 0.42241 0.5372 0.0
C441 C 0.63199 0.46447 0.61124 0.0
C442 C 0.65617 0.49197 0.60008 0.0
C443 C 0.67213 0.5113 0.65435 0.0
C444 C 0.66317 0.5022 0.72173 0.0
C445 C 0.63876 0.47388 0.73429 0.0
C446 C 0.62302 0.45499 0.67786 0.0
H447 H 0.26364 0.54458 0.9839 0.0
H448 H 0.24151 0.51302 0.19079 0.0
H449 H 0.29162 0.52466 0.20642 0.0
H450 H 0.31697 0.52502 0.94593 0.0
H451 H 0.34114 0.55748 0.90054 0.0
H452 H 0.30164 0.54033 0.89937 0.0
H453 H 0.3105 0.58713 0.94496 0.0
H454 H 0.34985 0.60431 0.94713 0.0
H455 H 0.33128 0.60348 0.02393 0.0
H456 H 0.34564 0.54744 0.2077 0.0
H457 H 0.39979 0.57953 0.19493 0.0
H458 H 0.38783 0.59757 0.98771 0.0
C459 C 0.2689 0.53896 0.03141 0.0
C460 C 0.24858 0.52757 0.08589 0.0
C461 C 0.25666 0.52151 0.14822 0.0
C462 C 0.28504 0.52796 0.15744 0.0
C463 C 0.30503 0.54041 0.1038 0.0
C464 C 0.29727 0.54564 0.0417 0.0
C465 C 0.324 0.56286 0.9961 0.0
C466 C 0.32074 0.54537 0.93167 0.0
C467 C 0.3292 0.5911 0.97698 0.0
C468 C 0.34827 0.56779 0.04364 0.0
C469 C 0.33671 0.55411 0.10489 0.0
C470 C 0.3549 0.55772 0.15946 0.0
C471 C 0.38566 0.57617 0.15181 0.0
C472 C 0.39803 0.59097 0.09018 0.0
C473 C 0.37902 0.58612 0.03486 0.0
H474 H 0.5811 0.20261 1.00057 0.0
H475 H 0.56683 0.17424 0.21045 0.0
H476 H 0.62027 0.19572 0.22372 0.0
H477 H 0.64306 0.19592 0.96135 0.0
H478 H 0.66224 0.22791 0.91252 0.0
H479 H 0.62228 0.20569 0.91507 0.0
H480 H 0.62323 0.24891 0.95811 0.0
H481 H 0.66303 0.27118 0.95557 0.0
H482 H 0.64462 0.26864 0.03421 0.0
H483 H 0.67544 0.22581 0.2199 0.0
H484 H 0.72815 0.26412 0.20155 0.0
H485 H 0.70681 0.27336 0.99429 0.0
C486 C 0.58904 0.20015 0.0487 0.0
C487 C 0.56975 0.18657 0.10435 0.0
C488 C 0.58117 0.18448 0.16704 0.0
C489 C 0.61147 0.19644 0.1749 0.0
C490 C 0.63001 0.21031 0.11953 0.0
C491 C 0.61922 0.21218 0.05755 0.0
C492 C 0.64418 0.23123 0.00903 0.0
C493 C 0.64285 0.21416 0.94575 0.0
C494 C 0.64373 0.25648 0.98807 0.0
C495 C 0.67077 0.24086 0.05452 0.0
C496 C 0.6621 0.22804 0.11749 0.0
C497 C 0.68253 0.23557 0.17037 0.0
C498 C 0.71244 0.25742 0.15947 0.0
C499 C 0.72164 0.27165 0.09635 0.0
C500 C 0.70059 0.2625 0.04255 0.0
H501 H 0.48564 0.72538 0.99869 0.0
H502 H 0.5183 0.74095 0.2091 0.0
H503 H 0.51723 0.78293 0.21742 0.0
H504 H 0.5219 0.80252 0.95381 0.0
H505 H 0.48969 0.79284 0.90427 0.0
H506 H 0.49984 0.76847 0.90902 0.0
H507 H 0.44736 0.72945 0.95243 0.0
H508 H 0.43711 0.75359 0.94794 0.0
H509 H 0.43365 0.73675 0.02763 0.0
H510 H 0.50399 0.81693 0.21062 0.0
H511 H 0.4778 0.83894 0.19123 0.0
H512 H 0.45309 0.80137 0.98539 0.0
C513 C 0.49364 0.73824 0.04569 0.0
C514 C 0.50228 0.73002 0.10309 0.0
C515 C 0.51173 0.74692 0.16436 0.0
C516 C 0.51138 0.77092 0.16938 0.0
C517 C 0.50167 0.77783 0.11263 0.0
C518 C 0.4931 0.76205 0.05173 0.0
C519 C 0.47944 0.77128 0.00197 0.0
C520 C 0.49889 0.78457 0.93851 0.0
C521 C 0.44751 0.74629 0.98137 0.0
C522 C 0.47998 0.79351 0.04589 0.0
C523 C 0.49365 0.79751 0.10884 0.0
C524 C 0.49388 0.8145 0.161 0.0
C525 C 0.47885 0.82685 0.14956 0.0
C526 C 0.46359 0.82201 0.08661 0.0
C527 C 0.46519 0.80603 0.03331 0.0
H528 H 0.76461 0.39814 0.00366 0.0
H529 H 0.80143 0.42243 0.21088 0.0
H530 H 0.78426 0.45315 0.2228 0.0
H531 H 0.77751 0.46756 0.95963 0.0
H532 H 0.74263 0.44941 0.91332 0.0
H533 H 0.76299 0.43402 0.91572 0.0
H534 H 0.71688 0.38765 0.96339 0.0
H535 H 0.69647 0.40283 0.96109 0.0
H536 H 0.69999 0.38951 0.04036 0.0
H537 H 0.75685 0.47494 0.21916 0.0
H538 H 0.71937 0.48438 0.2025 0.0
H539 H 0.69977 0.44579 0.99782 0.0
C540 C 0.76991 0.41062 0.05077 0.0
C541 C 0.78456 0.40806 0.10618 0.0
C542 C 0.79033 0.42414 0.16767 0.0
C543 C 0.78084 0.4418 0.17473 0.0
C544 C 0.76573 0.44324 0.11978 0.0
C545 C 0.76035 0.42813 0.05886 0.0
C546 C 0.74032 0.43042 0.01109 0.0
C547 C 0.75686 0.4463 0.94609 0.0
C548 C 0.71174 0.40085 0.99299 0.0
C549 C 0.73407 0.44798 0.05602 0.0
C550 C 0.7495 0.45572 0.11786 0.0
C551 C 0.74512 0.46953 0.17045 0.0
C552 C 0.72371 0.47474 0.16055 0.0
C553 C 0.70678 0.46596 0.09869 0.0
C554 C 0.71283 0.45332 0.04499 0.0
H555 H 0.23325 0.62562 0.16565 0.0
H556 H 0.19919 0.61334 0.95745 0.0
H557 H 0.22876 0.66536 0.94543 0.0
H558 H 0.24041 0.69312 0.20876 0.0
H559 H 0.27461 0.70784 0.25591 0.0
H560 H 0.24652 0.66994 0.25314 0.0
H561 H 0.28502 0.66204 0.20685 0.0
H562 H 0.3131 0.6998 0.20906 0.0
H563 H 0.30494 0.67953 0.13004 0.0
H564 H 0.26691 0.71744 0.94928 0.0
H565 H 0.31158 0.76637 0.96815 0.0
H566 H 0.32176 0.74551 0.17372 0.0
C567 C 0.23124 0.63389 0.11839 0.0
C568 C 0.21373 0.61547 0.06266 0.0
C569 C 0.21237 0.62709 1.00087 0.0
C570 C 0.22897 0.65659 0.9937 0.0
C571 C 0.24676 0.67419 0.04881 0.0
C572 C 0.24793 0.66332 0.11015 0.0
C573 C 0.27149 0.68672 0.15829 0.0
C574 C 0.25741 0.68957 0.22285 0.0
C575 C 0.29502 0.68172 0.17711 0.0
C576 C 0.28419 0.71226 0.11334 0.0
C577 C 0.26923 0.70458 0.05088 0.0
C578 C 0.27844 0.72385 0.99844 0.0
C579 C 0.30393 0.75156 0.00956 0.0
C580 C 0.32002 0.75977 0.07257 0.0
C581 C 0.30955 0.74 0.12562 0.0
H582 H 0.50747 0.24658 0.9891 0.0
H583 H 0.46816 0.22522 0.19086 0.0
H584 H 0.48372 0.2744 0.20925 0.0
H585 H 0.57018 0.3092 0.0364 0.0
H586 H 0.57454 0.3285 0.9606 0.0
H587 H 0.55429 0.29046 0.95536 0.0
H588 H 0.5084 0.2859 0.90541 0.0
H589 H 0.5287 0.32411 0.90954 0.0
H590 H 0.4934 0.30218 0.95103 0.0
H591 H 0.51201 0.32696 0.21591 0.0
H592 H 0.54884 0.37886 0.20752 0.0
H593 H 0.56961 0.3666 1.00111 0.0
C594 C 0.50099 0.25194 0.03585 0.0
C595 C 0.48646 0.23204 0.08837 0.0
C596 C 0.47918 0.24009 0.14979 0.0
C597 C 0.48786 0.26798 0.16064 0.0
C598 C 0.50356 0.28752 0.10937 0.0
C599 C 0.50968 0.27979 0.04765 0.0
C600 C 0.53012 0.30558 0.00473 0.0
C601 C 0.55897 0.3086 0.98838 0.0
C602 C 0.51419 0.30437 0.93877 0.0
C603 C 0.53583 0.32908 0.05354 0.0
C604 C 0.51991 0.31819 0.11312 0.0
C605 C 0.52398 0.33576 0.16879 0.0
C606 C 0.54509 0.36521 0.16374 0.0
C607 C 0.56189 0.37677 0.10348 0.0
C608 C 0.55664 0.35843 0.04726 0.0
loop_
_geom_bond_atom_site_label_1
_geom_bond_atom_site_label_2
_geom_bond_distance
_geom_bond_site_symmetry_2
_ccdc_geom_bond_type
Co0 O3 1.970 . S
Co0 N17 1.989 . S
Co0 O25 1.967 . S
Co0 O32 1.920 1_554 S
Co1 O4 1.966 . S
Co1 N10 2.022 . S
Co1 N18 1.993 . S
Co1 O26 1.941 . S
C2 O3 1.258 . S
C2 O4 1.263 . S
O3 Co0 1.970 . S
O3 C2 1.258 . S
O4 Co1 1.966 . S
O4 C2 1.263 . S
C5 O6 1.235 . S
C5 O32 1.289 . S
O6 C5 1.235 . S
C7 C9 1.400 . S
C7 N10 1.351 . S
C7 C12 1.501 . S
C8 C9 1.387 . S
C8 N11 1.341 . S
C9 C7 1.400 . S
C9 C8 1.387 . S
N10 Co1 2.022 . S
N10 C7 1.351 . S
N10 N11 1.365 . S
N11 C8 1.341 . S
N11 N10 1.365 . S
N11 H31 0.862 . S
C12 C7 1.501 . S
C12 H13 0.961 . S
C12 H14 0.961 . S
C12 H15 0.960 . S
H13 C12 0.961 . S
H14 C12 0.961 . S
H15 C12 0.960 . S
C16 N17 1.342 . S
C16 C20 1.401 . S
C16 C21 1.499 1_554 S
N17 Co0 1.989 . S
N17 C16 1.342 . S
N17 N18 1.388 . S
N18 Co1 1.993 . S
N18 N17 1.388 . S
N18 C19 1.346 . S
C19 N18 1.346 . S
C19 C20 1.396 . S
C19 C29 1.510 . S
C20 C16 1.401 . S
C20 C19 1.396 . S
C21 C16 1.499 1_556 S
C21 H22 0.959 . S
C21 H23 0.960 . S
C21 H24 0.961 . S
H22 C21 0.959 . S
H23 C21 0.960 . S
H24 C21 0.961 . S
O25 Co0 1.967 . S
O25 C33 1.258 . S
O26 Co1 1.941 . S
O26 C33 1.266 . S
H27 C29 0.959 . S
H28 C29 0.961 . S
C29 C19 1.510 . S
C29 H27 0.959 . S
C29 H28 0.961 . S
C29 H30 0.960 . S
H30 C29 0.960 . S
H31 N11 0.862 . S
O32 Co0 1.920 1_556 S
O32 C5 1.289 . S
C33 O25 1.258 . S
C33 O26 1.266 . S
Co34 O37 1.970 . S
Co34 N51 1.989 . S
Co34 O59 1.967 . S
Co34 O66 1.920 . S
Co35 O38 1.966 1_556 S
Co35 N44 2.022 . S
Co35 N52 1.993 1_556 S
Co35 O60 1.941 1_556 S
C36 O37 1.258 . S
C36 O38 1.263 . S
O37 Co34 1.970 . S
O37 C36 1.258 . S
O38 Co35 1.966 1_554 S
O38 C36 1.263 . S
C39 O40 1.235 . S
C39 O66 1.289 . S
O40 C39 1.235 . S
C41 C43 1.400 . S
C41 N44 1.351 . S
C41 C46 1.501 . S
C42 C43 1.387 . S
C42 N45 1.341 . S
C43 C41 1.400 . S
C43 C42 1.387 . S
N44 Co35 2.022 . S
N44 C41 1.351 . S
N44 N45 1.365 . S
N45 C42 1.341 . S
N45 N44 1.365 . S
N45 H65 0.862 . S
C46 C41 1.501 . S
C46 H47 0.961 . S
C46 H48 0.961 . S
C46 H49 0.960 . S
H47 C46 0.961 . S
H48 C46 0.961 . S
H49 C46 0.960 . S
C50 N51 1.342 . S
C50 C54 1.401 . S
C50 C55 1.499 . S
N51 Co34 1.989 . S
N51 C50 1.342 . S
N51 N52 1.388 . S
N52 Co35 1.993 1_554 S
N52 N51 1.388 . S
N52 C53 1.346 . S
C53 N52 1.346 . S
C53 C54 1.396 . S
C53 C63 1.510 1_554 S
C54 C50 1.401 . S
C54 C53 1.396 . S
C55 C50 1.499 . S
C55 H56 0.959 . S
C55 H57 0.960 . S
C55 H58 0.961 . S
H56 C55 0.959 . S
H57 C55 0.960 . S
H58 C55 0.961 . S
O59 Co34 1.967 . S
O59 C67 1.258 . S
O60 Co35 1.941 1_554 S
O60 C67 1.266 . S
H61 C63 0.959 . S
H62 C63 0.961 . S
C63 C53 1.510 1_556 S
C63 H61 0.959 . S
C63 H62 0.961 . S
C63 H64 0.960 . S
H64 C63 0.960 . S
H65 N45 0.862 . S
O66 Co34 1.920 . S
O66 C39 1.289 . S
C67 O59 1.258 . S
C67 O60 1.266 . S
Co68 O71 1.970 . S
Co68 N85 1.989 . S
Co68 O93 1.967 . S
Co68 O100 1.920 1_554 S
Co69 O72 1.966 . S
Co69 N78 2.022 . S
Co69 N86 1.993 . S
Co69 O94 1.941 . S
C70 O71 1.258 . S
C70 O72 1.263 . S
O71 Co68 1.970 . S
O71 C70 1.258 . S
O72 Co69 1.966 . S
O72 C70 1.263 . S
C73 O74 1.235 . S
C73 O100 1.289 . S
O74 C73 1.235 . S
C75 C77 1.400 . S
C75 N78 1.351 . S
C75 C80 1.501 . S
C76 C77 1.387 . S
C76 N79 1.341 . S
C77 C75 1.400 . S
C77 C76 1.387 . S
N78 Co69 2.022 . S
N78 C75 1.351 . S
N78 N79 1.365 . S
N79 C76 1.341 . S
N79 N78 1.365 . S
N79 H99 0.862 . S
C80 C75 1.501 . S
C80 H81 0.961 . S
C80 H82 0.961 . S
C80 H83 0.960 . S
H81 C80 0.961 . S
H82 C80 0.961 . S
H83 C80 0.960 . S
C84 N85 1.342 . S
C84 C88 1.401 . S
C84 C89 1.499 1_554 S
N85 Co68 1.989 . S
N85 C84 1.342 . S
N85 N86 1.388 . S
N86 Co69 1.993 . S
N86 N85 1.388 . S
N86 C87 1.346 . S
C87 N86 1.346 . S
C87 C88 1.396 . S
C87 C97 1.510 . S
C88 C84 1.401 . S
C88 C87 1.396 . S
C89 C84 1.499 1_556 S
C89 H90 0.959 . S
C89 H91 0.960 . S
C89 H92 0.961 . S
H90 C89 0.959 . S
H91 C89 0.960 . S
H92 C89 0.961 . S
O93 Co68 1.967 . S
O93 C101 1.258 . S
O94 Co69 1.941 . S
O94 C101 1.266 . S
H95 C97 0.959 . S
H96 C97 0.961 . S
C97 C87 1.510 . S
C97 H95 0.959 . S
C97 H96 0.961 . S
C97 H98 0.960 . S
H98 C97 0.960 . S
H99 N79 0.862 . S
O100 Co68 1.920 1_556 S
O100 C73 1.289 . S
C101 O93 1.258 . S
C101 O94 1.266 . S
Co102 O105 1.970 . S
Co102 N119 1.989 . S
Co102 O127 1.967 . S
Co102 O134 1.920 . S
Co103 O106 1.966 . S
Co103 N112 2.022 1_554 S
Co103 N120 1.993 . S
Co103 O128 1.941 . S
C104 O105 1.258 . S
C104 O106 1.263 . S
O105 Co102 1.970 . S
O105 C104 1.258 . S
O106 Co103 1.966 . S
O106 C104 1.263 . S
C107 O108 1.235 . S
C107 O134 1.289 . S
O108 C107 1.235 . S
C109 C111 1.400 . S
C109 N112 1.351 . S
C109 C114 1.501 . S
C110 C111 1.387 . S
C110 N113 1.341 . S
C111 C109 1.400 . S
C111 C110 1.387 . S
N112 Co103 2.022 1_556 S
N112 C109 1.351 . S
N112 N113 1.365 . S
N113 C110 1.341 . S
N113 N112 1.365 . S
N113 H133 0.862 . S
C114 C109 1.501 . S
C114 H115 0.961 . S
C114 H116 0.961 . S
C114 H117 0.960 . S
H115 C114 0.961 . S
H116 C114 0.961 . S
H117 C114 0.960 . S
C118 N119 1.342 . S
C118 C122 1.401 . S
C118 C123 1.499 . S
N119 Co102 1.989 . S
N119 C118 1.342 . S
N119 N120 1.388 . S
N120 Co103 1.993 . S
N120 N119 1.388 . S
N120 C121 1.346 . S
C121 N120 1.346 . S
C121 C122 1.396 . S
C121 C131 1.510 1_554 S
C122 C118 1.401 . S
C122 C121 1.396 . S
C123 C118 1.499 . S
C123 H124 0.959 . S
C123 H125 0.960 . S
C123 H126 0.961 . S
H124 C123 0.959 . S
H125 C123 0.960 . S
H126 C123 0.961 . S
O127 Co102 1.967 . S
O127 C135 1.258 . S
O128 Co103 1.941 . S
O128 C135 1.266 . S
H129 C131 0.959 . S
H130 C131 0.961 . S
C131 C121 1.510 1_556 S
C131 H129 0.959 . S
C131 H130 0.961 . S
C131 H132 0.960 . S
H132 C131 0.960 . S
H133 N113 0.862 . S
O134 Co102 1.920 . S
O134 C107 1.289 . S
C135 O127 1.258 . S
C135 O128 1.266 . S
Co136 O139 1.970 . S
Co136 N153 1.989 . S
Co136 O161 1.967 . S
Co136 O168 1.920 . S
Co137 O140 1.966 . S
Co137 N146 2.022 . S
Co137 N154 1.993 1_556 S
Co137 O162 1.941 . S
C138 O139 1.258 . S
C138 O140 1.263 1_554 S
O139 Co136 1.970 . S
O139 C138 1.258 . S
O140 Co137 1.966 . S
O140 C138 1.263 1_556 S
C141 O142 1.235 . S
C141 O168 1.289 . S
O142 C141 1.235 . S
C143 C145 1.400 . S
C143 N146 1.351 . S
C143 C148 1.501 . S
C144 C145 1.387 . S
C144 N147 1.341 . S
C145 C143 1.400 . S
C145 C144 1.387 . S
N146 Co137 2.022 . S
N146 C143 1.351 . S
N146 N147 1.365 . S
N147 C144 1.341 . S
N147 N146 1.365 . S
N147 H167 0.862 . S
C148 C143 1.501 . S
C148 H149 0.961 . S
C148 H150 0.961 . S
C148 H151 0.960 . S
H149 C148 0.961 . S
H150 C148 0.961 . S
H151 C148 0.960 . S
C152 N153 1.342 . S
C152 C156 1.401 . S
C152 C157 1.499 . S
N153 Co136 1.989 . S
N153 C152 1.342 . S
N153 N154 1.388 . S
N154 Co137 1.993 1_554 S
N154 N153 1.388 . S
N154 C155 1.346 1_554 S
C155 N154 1.346 1_556 S
C155 C156 1.396 1_556 S
C155 C165 1.510 . S
C156 C152 1.401 . S
C156 C155 1.396 1_554 S
C157 C152 1.499 . S
C157 H158 0.959 . S
C157 H159 0.960 . S
C157 H160 0.961 . S
H158 C157 0.959 . S
H159 C157 0.960 . S
H160 C157 0.961 . S
O161 Co136 1.967 . S
O161 C169 1.258 . S
O162 Co137 1.941 . S
O162 C169 1.266 1_556 S
H163 C165 0.959 . S
H164 C165 0.961 . S
C165 C155 1.510 . S
C165 H163 0.959 . S
C165 H164 0.961 . S
C165 H166 0.960 . S
H166 C165 0.960 . S
H167 N147 0.862 . S
O168 Co136 1.920 . S
O168 C141 1.289 . S
C169 O161 1.258 . S
C169 O162 1.266 1_554 S
Co170 O173 1.970 . S
Co170 N187 1.989 . S
Co170 O195 1.967 . S
Co170 O202 1.920 . S
Co171 O174 1.966 . S
Co171 N180 2.022 1_554 S
Co171 N188 1.993 . S
Co171 O196 1.941 . S
C172 O173 1.258 . S
C172 O174 1.263 . S
O173 Co170 1.970 . S
O173 C172 1.258 . S
O174 Co171 1.966 . S
O174 C172 1.263 . S
C175 O176 1.235 . S
C175 O202 1.289 . S
O176 C175 1.235 . S
C177 C179 1.400 . S
C177 N180 1.351 . S
C177 C182 1.501 . S
C178 C179 1.387 . S
C178 N181 1.341 . S
C179 C177 1.400 . S
C179 C178 1.387 . S
N180 Co171 2.022 1_556 S
N180 C177 1.351 . S
N180 N181 1.365 . S
N181 C178 1.341 . S
N181 N180 1.365 . S
N181 H201 0.862 . S
C182 C177 1.501 . S
C182 H183 0.961 . S
C182 H184 0.961 . S
C182 H185 0.960 . S
H183 C182 0.961 . S
H184 C182 0.961 . S
H185 C182 0.960 . S
C186 N187 1.342 . S
C186 C190 1.401 . S
C186 C191 1.499 . S
N187 Co170 1.989 . S
N187 C186 1.342 . S
N187 N188 1.388 . S
N188 Co171 1.993 . S
N188 N187 1.388 . S
N188 C189 1.346 . S
C189 N188 1.346 . S
C189 C190 1.396 . S
C189 C199 1.510 1_554 S
C190 C186 1.401 . S
C190 C189 1.396 . S
C191 C186 1.499 . S
C191 H192 0.959 . S
C191 H193 0.960 . S
C191 H194 0.961 . S
H192 C191 0.959 . S
H193 C191 0.960 . S
H194 C191 0.961 . S
O195 Co170 1.967 . S
O195 C203 1.258 . S
O196 Co171 1.941 . S
O196 C203 1.266 . S
H197 C199 0.959 . S
H198 C199 0.961 . S
C199 C189 1.510 1_556 S
C199 H197 0.959 . S
C199 H198 0.961 . S
C199 H200 0.960 . S
H200 C199 0.960 . S
H201 N181 0.862 . S
O202 Co170 1.920 . S
O202 C175 1.289 . S
C203 O195 1.258 . S
C203 O196 1.266 . S
H204 C216 0.930 . S
H205 C218 0.930 1_556 S
H206 C219 0.930 1_556 S
H207 C223 0.959 . S
H208 C223 0.959 . S
H209 C223 0.961 1_455 S
H210 C224 0.960 1_455 S
H211 C224 0.961 . S
H212 C224 0.959 . S
H213 C227 0.929 1_556 S
H214 C228 0.931 1_556 S
H215 C230 0.930 . S
C216 H204 0.930 . S
C216 C217 1.399 . S
C216 C221 1.399 . S
C217 C216 1.399 . S
C217 C218 1.376 . S
C218 H205 0.930 1_554 S
C218 C217 1.376 . S
C218 C219 1.388 . S
C219 H206 0.930 1_554 S
C219 C218 1.388 . S
C219 C220 1.390 . S
C220 C219 1.390 . S
C220 C221 1.394 . S
C220 C226 1.465 1_455 S
C221 C216 1.399 . S
C221 C220 1.394 . S
C221 C222 1.516 1_455 S
C222 C221 1.516 1_655 S
C222 C223 1.502 . S
C222 C224 1.561 . S
C222 C225 1.526 . S
C223 H207 0.959 . S
C223 H208 0.959 . S
C223 H209 0.961 1_655 S
C223 C222 1.502 . S
C224 H210 0.960 1_655 S
C224 H211 0.961 . S
C224 H212 0.959 . S
C224 C222 1.561 . S
C225 C222 1.526 . S
C225 C226 1.396 . S
C225 C230 1.390 . S
C226 C220 1.465 1_655 S
C226 C225 1.396 . S
C226 C227 1.399 . S
C227 H213 0.929 1_554 S
C227 C226 1.399 . S
C227 C228 1.385 . S
C228 H214 0.931 1_554 S
C228 C227 1.385 . S
C228 C229 1.389 . S
C229 C228 1.389 . S
C229 C230 1.387 . S
C230 H215 0.930 . S
C230 C225 1.390 . S
C230 C229 1.387 . S
H231 C243 0.930 1_556 S
H232 C245 0.930 . S
H233 C246 0.930 . S
H234 C250 0.959 . S
H235 C250 0.959 . S
H236 C250 0.961 1_565 S
H237 C251 0.960 . S
H238 C251 0.961 1_545 S
H239 C251 0.959 . S
H240 C254 0.929 . S
H241 C255 0.931 . S
H242 C257 0.930 1_556 S
C243 H231 0.930 1_554 S
C243 C244 1.399 . S
C243 C248 1.399 . S
C244 C243 1.399 . S
C244 C245 1.376 . S
C245 H232 0.930 . S
C245 C244 1.376 . S
C245 C246 1.388 . S
C246 H233 0.930 . S
C246 C245 1.388 . S
C246 C247 1.390 . S
C247 C246 1.390 . S
C247 C248 1.394 . S
C247 C253 1.420 1_565 S
C248 C243 1.399 . S
C248 C247 1.394 . S
C248 C249 1.516 1_554 S
C249 C248 1.516 1_556 S
C249 C250 1.502 1_565 S
C249 C251 1.561 . S
C249 C252 1.526 1_566 S
C250 H234 0.959 . S
C250 H235 0.959 . S
C250 H236 0.961 1_545 S
C250 C249 1.502 1_545 S
C251 H237 0.960 . S
C251 H238 0.961 1_565 S
C251 H239 0.959 . S
C251 C249 1.561 . S
C252 C249 1.526 1_544 S
C252 C253 1.410 . S
C252 C257 1.390 . S
C253 C247 1.420 1_545 S
C253 C252 1.410 . S
C253 C254 1.429 . S
C254 H240 0.929 . S
C254 C253 1.429 . S
C254 C255 1.385 . S
C255 H241 0.931 . S
C255 C254 1.385 . S
C255 C256 1.389 . S
C256 C255 1.389 . S
C256 C257 1.387 . S
C257 H242 0.930 1_554 S
C257 C252 1.390 . S
C257 C256 1.387 . S
H258 C270 0.930 . S
H259 C272 0.930 . S
H260 C273 0.930 . S
H261 C277 0.959 . S
H262 C277 0.959 1_556 S
H263 C277 0.961 1_556 S
H264 C278 0.960 . S
H265 C278 0.961 . S
H266 C278 0.959 . S
H267 C281 0.929 . S
H268 C282 0.931 . S
H269 C284 0.930 . S
C270 H258 0.930 . S
C270 C271 1.399 . S
C270 C275 1.399 . S
C271 C270 1.399 . S
C271 C272 1.376 . S
C272 H259 0.930 . S
C272 C271 1.376 . S
C272 C273 1.388 . S
C273 H260 0.930 . S
C273 C272 1.388 . S
C273 C274 1.390 . S
C274 C273 1.390 . S
C274 C275 1.394 . S
C274 C280 1.465 . S
C275 C270 1.399 . S
C275 C274 1.394 . S
C275 C276 1.516 . S
C276 C275 1.516 . S
C276 C277 1.502 . S
C276 C278 1.561 1_554 S
C276 C279 1.526 . S
C277 H261 0.959 . S
C277 H262 0.959 1_554 S
C277 H263 0.961 1_554 S
C277 C276 1.502 . S
C278 H264 0.960 . S
C278 H265 0.961 . S
C278 H266 0.959 . S
C278 C276 1.561 1_556 S
C279 C276 1.526 . S
C279 C280 1.396 . S
C279 C284 1.390 . S
C280 C274 1.465 . S
C280 C279 1.396 . S
C280 C281 1.399 . S
C281 H267 0.929 . S
C281 C280 1.399 . S
C281 C282 1.385 . S
C282 H268 0.931 . S
C282 C281 1.385 . S
C282 C283 1.389 . S
C283 C282 1.389 . S
C283 C284 1.387 . S
C284 H269 0.930 . S
C284 C279 1.390 . S
C284 C283 1.387 . S
H285 C297 0.930 . S
H286 C299 0.930 . S
H287 C300 0.930 . S
H288 C304 0.959 . S
H289 C304 0.959 . S
H290 C304 0.961 . S
H291 C305 0.960 . S
H292 C305 0.961 . S
H293 C305 0.959 . S
H294 C308 0.929 . S
H295 C309 0.931 . S
H296 C311 0.930 . S
C297 H285 0.930 . S
C297 C298 1.399 . S
C297 C302 1.399 . S
C298 C297 1.399 . S
C298 C299 1.376 . S
C299 H286 0.930 . S
C299 C298 1.376 . S
C299 C300 1.388 . S
C300 H287 0.930 . S
C300 C299 1.388 . S
C300 C301 1.390 . S
C301 C300 1.390 . S
C301 C302 1.394 . S
C301 C307 1.465 . S
C302 C297 1.399 . S
C302 C301 1.394 . S
C302 C303 1.516 . S
C303 C302 1.516 . S
C303 C304 1.502 . S
C303 C305 1.561 . S
C303 C306 1.526 . S
C304 H288 0.959 . S
C304 H289 0.959 . S
C304 H290 0.961 . S
C304 C303 1.502 . S
C305 H291 0.960 . S
C305 H292 0.961 . S
C305 H293 0.959 . S
C305 C303 1.561 . S
C306 C303 1.526 . S
C306 C307 1.396 . S
C306 C311 1.390 . S
C307 C301 1.465 . S
C307 C306 1.396 . S
C307 C308 1.399 . S
C308 H294 0.929 . S
C308 C307 1.399 . S
C308 C309 1.385 . S
C309 H295 0.931 . S
C309 C308 1.385 . S
C309 C310 1.389 . S
C310 C309 1.389 . S
C310 C311 1.387 . S
C311 H296 0.930 . S
C311 C306 1.390 . S
C311 C310 1.387 . S
H312 C324 0.930 . S
H313 C326 0.930 . S
H314 C327 0.930 . S
H315 C331 0.959 . S
H316 C331 0.959 . S
H317 C331 0.961 . S
H318 C332 0.960 . S
H319 C332 0.961 . S
H320 C332 0.959 . S
H321 C335 0.929 . S
H322 C336 0.931 . S
H323 C338 0.930 . S
C324 H312 0.930 . S
C324 C325 1.399 . S
C324 C329 1.399 . S
C325 C324 1.399 . S
C325 C326 1.376 . S
C326 H313 0.930 . S
C326 C325 1.376 . S
C326 C327 1.388 . S
C327 H314 0.930 . S
C327 C326 1.388 . S
C327 C328 1.390 . S
C328 C327 1.390 . S
C328 C329 1.394 . S
C328 C334 1.465 . S
C329 C324 1.399 . S
C329 C328 1.394 . S
C329 C330 1.516 . S
C330 C329 1.516 . S
C330 C331 1.502 . S
C330 C332 1.561 . S
C330 C333 1.526 . S
C331 H315 0.959 . S
C331 H316 0.959 . S
C331 H317 0.961 . S
C331 C330 1.502 . S
C332 H318 0.960 . S
C332 H319 0.961 . S
C332 H320 0.959 . S
C332 C330 1.561 . S
C333 C330 1.526 . S
C333 C334 1.396 . S
C333 C338 1.390 . S
C334 C328 1.465 . S
C334 C333 1.396 . S
C334 C335 1.399 . S
C335 H321 0.929 . S
C335 C334 1.399 . S
C335 C336 1.385 . S
C336 H322 0.931 . S
C336 C335 1.385 . S
C336 C337 1.389 . S
C337 C336 1.389 . S
C337 C338 1.387 . S
C338 H323 0.930 . S
C338 C333 1.390 . S
C338 C337 1.387 . S
H339 C351 0.930 . S
H340 C353 0.930 . S
H341 C354 0.930 . S
H342 C358 0.959 . S
H343 C358 0.959 . S
H344 C358 0.961 . S
H345 C359 0.960 . S
H346 C359 0.961 . S
H347 C359 0.959 . S
H348 C362 0.929 . S
H349 C363 0.931 . S
H350 C365 0.930 . S
C351 H339 0.930 . S
C351 C352 1.399 . S
C351 C356 1.399 . S
C352 C351 1.399 . S
C352 C353 1.376 . S
C353 H340 0.930 . S
C353 C352 1.376 . S
C353 C354 1.388 . S
C354 H341 0.930 . S
C354 C353 1.388 . S
C354 C355 1.390 . S
C355 C354 1.390 . S
C355 C356 1.394 . S
C355 C361 1.465 . S
C356 C351 1.399 . S
C356 C355 1.394 . S
C356 C357 1.516 . S
C357 C356 1.516 . S
C357 C358 1.502 . S
C357 C359 1.561 . S
C357 C360 1.526 . S
C358 H342 0.959 . S
C358 H343 0.959 . S
C358 H344 0.961 . S
C358 C357 1.502 . S
C359 H345 0.960 . S
C359 H346 0.961 . S
C359 H347 0.959 . S
C359 C357 1.561 . S
C360 C357 1.526 . S
C360 C361 1.396 . S
C360 C365 1.390 . S
C361 C355 1.465 . S
C361 C360 1.396 . S
C361 C362 1.399 . S
C362 H348 0.929 . S
C362 C361 1.399 . S
C362 C363 1.385 . S
C363 H349 0.931 . S
C363 C362 1.385 . S
C363 C364 1.389 . S
C364 C363 1.389 . S
C364 C365 1.387 . S
C365 H350 0.930 . S
C365 C360 1.390 . S
C365 C364 1.387 . S
H366 C378 0.930 . S
H367 C380 0.930 . S
H368 C381 0.930 . S
H369 C385 0.959 . S
H370 C385 0.959 . S
H371 C385 0.961 . S
H372 C386 0.960 . S
H373 C386 0.961 . S
H374 C386 0.959 . S
H375 C389 0.929 . S
H376 C390 0.931 . S
H377 C392 0.930 . S
C378 H366 0.930 . S
C378 C379 1.399 . S
C378 C383 1.399 . S
C379 C378 1.399 . S
C379 C380 1.376 . S
C380 H367 0.930 . S
C380 C379 1.376 . S
C380 C381 1.388 . S
C381 H368 0.930 . S
C381 C380 1.388 . S
C381 C382 1.390 . S
C382 C381 1.390 . S
C382 C383 1.394 . S
C382 C388 1.465 . S
C383 C378 1.399 . S
C383 C382 1.394 . S
C383 C384 1.516 . S
C384 C383 1.516 . S
C384 C385 1.502 . S
C384 C386 1.561 . S
C384 C387 1.526 . S
C385 H369 0.959 . S
C385 H370 0.959 . S
C385 H371 0.961 . S
C385 C384 1.502 . S
C386 H372 0.960 . S
C386 H373 0.961 . S
C386 H374 0.959 . S
C386 C384 1.561 . S
C387 C384 1.526 . S
C387 C388 1.396 . S
C387 C392 1.390 . S
C388 C382 1.465 . S
C388 C387 1.396 . S
C388 C389 1.399 . S
C389 H375 0.929 . S
C389 C388 1.399 . S
C389 C390 1.385 . S
C390 H376 0.931 . S
C390 C389 1.385 . S
C390 C391 1.389 . S
C391 C390 1.389 . S
C391 C392 1.387 . S
C392 H377 0.930 . S
C392 C387 1.390 . S
C392 C391 1.387 . S
H393 C405 0.930 . S
H394 C407 0.930 . S
H395 C408 0.930 . S
H396 C412 0.959 . S
H397 C412 0.959 . S
H398 C412 0.961 . S
H399 C413 0.960 . S
H400 C413 0.961 . S
H401 C413 0.959 . S
H402 C416 0.929 . S
H403 C417 0.931 . S
H404 C419 0.930 . S
C405 H393 0.930 . S
C405 C406 1.399 . S
C405 C410 1.399 . S
C406 C405 1.399 . S
C406 C407 1.376 . S
C407 H394 0.930 . S
C407 C406 1.376 . S
C407 C408 1.388 . S
C408 H395 0.930 . S
C408 C407 1.388 . S
C408 C409 1.390 . S
C409 C408 1.390 . S
C409 C410 1.394 . S
C409 C415 1.465 . S
C410 C405 1.399 . S
C410 C409 1.394 . S
C410 C411 1.516 . S
C411 C410 1.516 . S
C411 C412 1.502 . S
C411 C413 1.561 . S
C411 C414 1.526 . S
C412 H396 0.959 . S
C412 H397 0.959 . S
C412 H398 0.961 . S
C412 C411 1.502 . S
C413 H399 0.960 . S
C413 H400 0.961 . S
C413 H401 0.959 . S
C413 C411 1.561 . S
C414 C411 1.526 . S
C414 C415 1.396 . S
C414 C419 1.390 . S
C415 C409 1.465 . S
C415 C414 1.396 . S
C415 C416 1.399 . S
C416 H402 0.929 . S
C416 C415 1.399 . S
C416 C417 1.385 . S
C417 H403 0.931 . S
C417 C416 1.385 . S
C417 C418 1.389 . S
C418 C417 1.389 . S
C418 C419 1.387 . S
C419 H404 0.930 . S
C419 C414 1.390 . S
C419 C418 1.387 . S
H420 C432 0.930 . S
H421 C434 0.930 . S
H422 C435 0.930 . S
H423 C439 0.959 . S
H424 C439 0.959 . S
H425 C439 0.961 . S
H426 C440 0.960 . S
H427 C440 0.961 . S
H428 C440 0.959 . S
H429 C443 0.929 . S
H430 C444 0.931 . S
H431 C446 0.930 . S
C432 H420 0.930 . S
C432 C433 1.399 . S
C432 C437 1.399 . S
C433 C432 1.399 . S
C433 C434 1.376 . S
C434 H421 0.930 . S
C434 C433 1.376 . S
C434 C435 1.388 . S
C435 H422 0.930 . S
C435 C434 1.388 . S
C435 C436 1.390 . S
C436 C435 1.390 . S
C436 C437 1.394 . S
C436 C442 1.465 . S
C437 C432 1.399 . S
C437 C436 1.394 . S
C437 C438 1.516 . S
C438 C437 1.516 . S
C438 C439 1.502 . S
C438 C440 1.561 . S
C438 C441 1.526 . S
C439 H423 0.959 . S
C439 H424 0.959 . S
C439 H425 0.961 . S
C439 C438 1.502 . S
C440 H426 0.960 . S
C440 H427 0.961 . S
C440 H428 0.959 . S
C440 C438 1.561 . S
C441 C438 1.526 . S
C441 C442 1.396 . S
C441 C446 1.390 . S
C442 C436 1.465 . S
C442 C441 1.396 . S
C442 C443 1.399 . S
C443 H429 0.929 . S
C443 C442 1.399 . S
C443 C444 1.385 . S
C444 H430 0.931 . S
C444 C443 1.385 . S
C444 C445 1.389 . S
C445 C444 1.389 . S
C445 C446 1.387 . S
C446 H431 0.930 . S
C446 C441 1.390 . S
C446 C445 1.387 . S
H447 C459 0.930 . S
H448 C461 0.930 . S
H449 C462 0.930 . S
H450 C466 0.959 1_554 S
H451 C466 0.959 . S
H452 C466 0.961 . S
H453 C467 0.960 . S
H454 C467 0.961 . S
H455 C467 0.959 . S
H456 C470 0.929 . S
H457 C471 0.931 . S
H458 C473 0.930 . S
C459 H447 0.930 . S
C459 C460 1.399 . S
C459 C464 1.399 . S
C460 C459 1.399 . S
C460 C461 1.376 . S
C461 H448 0.930 . S
C461 C460 1.376 . S
C461 C462 1.388 . S
C462 H449 0.930 . S
C462 C461 1.388 . S
C462 C463 1.390 . S
C463 C462 1.390 . S
C463 C464 1.394 . S
C463 C469 1.465 . S
C464 C459 1.399 . S
C464 C463 1.394 . S
C464 C465 1.516 . S
C465 C464 1.516 . S
C465 C466 1.502 1_554 S
C465 C467 1.561 1_554 S
C465 C468 1.526 . S
C466 H450 0.959 1_556 S
C466 H451 0.959 . S
C466 H452 0.961 . S
C466 C465 1.502 1_556 S
C467 H453 0.960 . S
C467 H454 0.961 . S
C467 H455 0.959 . S
C467 C465 1.561 1_556 S
C468 C465 1.526 . S
C468 C469 1.396 . S
C468 C473 1.390 . S
C469 C463 1.465 . S
C469 C468 1.396 . S
C469 C470 1.399 . S
C470 H456 0.929 . S
C470 C469 1.399 . S
C470 C471 1.385 . S
C471 H457 0.931 . S
C471 C470 1.385 . S
C471 C472 1.389 . S
C472 C471 1.389 . S
C472 C473 1.387 . S
C473 H458 0.930 . S
C473 C468 1.390 . S
C473 C472 1.387 . S
H474 C486 0.930 1_556 S
H475 C488 0.930 . S
H476 C489 0.930 . S
H477 C493 0.959 . S
H478 C493 0.959 . S
H479 C493 0.961 . S
H480 C494 0.960 . S
H481 C494 0.961 . S
H482 C494 0.959 . S
H483 C497 0.929 . S
H484 C498 0.931 . S
H485 C500 0.930 1_556 S
C486 H474 0.930 1_554 S
C486 C487 1.399 . S
C486 C491 1.399 . S
C487 C486 1.399 . S
C487 C488 1.376 . S
C488 H475 0.930 . S
C488 C487 1.376 . S
C488 C489 1.388 . S
C489 H476 0.930 . S
C489 C488 1.388 . S
C489 C490 1.390 . S
C490 C489 1.390 . S
C490 C491 1.394 . S
C490 C496 1.465 . S
C491 C486 1.399 . S
C491 C490 1.394 . S
C491 C492 1.516 . S
C492 C491 1.516 . S
C492 C493 1.502 1_554 S
C492 C494 1.561 1_554 S
C492 C495 1.526 . S
C493 H477 0.959 . S
C493 H478 0.959 . S
C493 H479 0.961 . S
C493 C492 1.502 1_556 S
C494 H480 0.960 . S
C494 H481 0.961 . S
C494 H482 0.959 . S
C494 C492 1.561 1_556 S
C495 C492 1.526 . S
C495 C496 1.396 . S
C495 C500 1.390 . S
C496 C490 1.465 . S
C496 C495 1.396 . S
C496 C497 1.399 . S
C497 H483 0.929 . S
C497 C496 1.399 . S
C497 C498 1.385 . S
C498 H484 0.931 . S
C498 C497 1.385 . S
C498 C499 1.389 . S
C499 C498 1.389 . S
C499 C500 1.387 . S
C500 H485 0.930 1_554 S
C500 C495 1.390 . S
C500 C499 1.387 . S
H501 C513 0.930 . S
H502 C515 0.930 . S
H503 C516 0.930 . S
H504 C520 0.959 1_554 S
H505 C520 0.959 . S
H506 C520 0.961 . S
H507 C521 0.960 . S
H508 C521 0.961 . S
H509 C521 0.959 . S
H510 C524 0.929 . S
H511 C525 0.931 . S
H512 C527 0.930 1_556 S
C513 H501 0.930 . S
C513 C514 1.399 . S
C513 C518 1.399 . S
C514 C513 1.399 . S
C514 C515 1.376 . S
C515 H502 0.930 . S
C515 C514 1.376 . S
C515 C516 1.388 . S
C516 H503 0.930 . S
C516 C515 1.388 . S
C516 C517 1.390 . S
C517 C516 1.390 . S
C517 C518 1.394 . S
C517 C523 1.465 . S
C518 C513 1.399 . S
C518 C517 1.394 . S
C518 C519 1.516 1_554 S
C519 C518 1.516 1_556 S
C519 C520 1.502 . S
C519 C521 1.561 . S
C519 C522 1.526 1_556 S
C520 H504 0.959 1_556 S
C520 H505 0.959 . S
C520 H506 0.961 . S
C520 C519 1.502 . S
C521 H507 0.960 . S
C521 H508 0.961 . S
C521 H509 0.959 . S
C521 C519 1.561 . S
C522 C519 1.526 1_554 S
C522 C523 1.396 . S
C522 C527 1.390 . S
C523 C517 1.465 . S
C523 C522 1.396 . S
C523 C524 1.399 . S
C524 H510 0.929 . S
C524 C523 1.399 . S
C524 C525 1.385 . S
C525 H511 0.931 . S
C525 C524 1.385 . S
C525 C526 1.389 . S
C526 C525 1.389 . S
C526 C527 1.387 . S
C527 H512 0.930 1_554 S
C527 C522 1.390 . S
C527 C526 1.387 . S
H528 C540 0.930 . S
H529 C542 0.930 . S
H530 C543 0.930 . S
H531 C547 0.959 . S
H532 C547 0.959 . S
H533 C547 0.961 . S
H534 C548 0.960 . S
H535 C548 0.961 . S
H536 C548 0.959 . S
H537 C551 0.929 . S
H538 C552 0.931 . S
H539 C554 0.930 . S
C540 H528 0.930 . S
C540 C541 1.399 . S
C540 C545 1.399 . S
C541 C540 1.399 . S
C541 C542 1.376 . S
C542 H529 0.930 . S
C542 C541 1.376 . S
C542 C543 1.388 . S
C543 H530 0.930 . S
C543 C542 1.388 . S
C543 C544 1.390 . S
C544 C543 1.390 . S
C544 C545 1.394 . S
C544 C550 1.465 . S
C545 C540 1.399 . S
C545 C544 1.394 . S
C545 C546 1.516 . S
C546 C545 1.516 . S
C546 C547 1.502 . S
C546 C548 1.561 1_554 S
C546 C549 1.526 . S
C547 H531 0.959 . S
C547 H532 0.959 . S
C547 H533 0.961 . S
C547 C546 1.502 . S
C548 H534 0.960 . S
C548 H535 0.961 . S
C548 H536 0.959 . S
C548 C546 1.561 1_556 S
C549 C546 1.526 . S
C549 C550 1.396 . S
C549 C554 1.390 . S
C550 C544 1.465 . S
C550 C549 1.396 . S
C550 C551 1.399 . S
C551 H537 0.929 . S
C551 C550 1.399 . S
C551 C552 1.385 . S
C552 H538 0.931 . S
C552 C551 1.385 . S
C552 C553 1.389 . S
C553 C552 1.389 . S
C553 C554 1.387 . S
C554 H539 0.930 . S
C554 C549 1.390 . S
C554 C553 1.387 . S
H555 C567 0.930 . S
H556 C569 0.930 . S
H557 C570 0.930 . S
H558 C574 0.959 . S
H559 C574 0.959 . S
H560 C574 0.961 . S
H561 C575 0.960 . S
H562 C575 0.961 . S
H563 C575 0.959 1_556 S
H564 C578 0.929 . S
H565 C579 0.931 . S
H566 C581 0.930 . S
C567 H555 0.930 . S
C567 C568 1.399 . S
C567 C572 1.399 . S
C568 C567 1.399 . S
C568 C569 1.376 . S
C569 H556 0.930 . S
C569 C568 1.376 . S
C569 C570 1.388 . S
C570 H557 0.930 . S
C570 C569 1.388 . S
C570 C571 1.390 . S
C571 C570 1.390 . S
C571 C572 1.394 . S
C571 C577 1.465 . S
C572 C567 1.399 . S
C572 C571 1.394 . S
C572 C573 1.516 . S
C573 C572 1.516 . S
C573 C574 1.502 . S
C573 C575 1.561 . S
C573 C576 1.526 . S
C574 H558 0.959 . S
C574 H559 0.959 . S
C574 H560 0.961 . S
C574 C573 1.502 . S
C575 H561 0.960 . S
C575 H562 0.961 . S
C575 H563 0.959 1_554 S
C575 C573 1.561 . S
C576 C573 1.526 . S
C576 C577 1.396 . S
C576 C581 1.390 . S
C577 C571 1.465 . S
C577 C576 1.396 . S
C577 C578 1.399 . S
C578 H564 0.929 . S
C578 C577 1.399 . S
C578 C579 1.385 . S
C579 H565 0.931 . S
C579 C578 1.385 . S
C579 C580 1.389 . S
C580 C579 1.389 . S
C580 C581 1.387 . S
C581 H566 0.930 . S
C581 C576 1.390 . S
C581 C580 1.387 . S
H582 C594 0.930 1_556 S
H583 C596 0.930 . S
H584 C597 0.930 . S
H585 C601 0.959 1_554 S
H586 C601 0.959 . S
H587 C601 0.961 . S
H588 C602 0.960 . S
H589 C602 0.961 . S
H590 C602 0.959 . S
H591 C605 0.929 . S
H592 C606 0.931 . S
H593 C608 0.930 . S
C594 H582 0.930 1_554 S
C594 C595 1.399 . S
C594 C599 1.399 . S
C595 C594 1.399 . S
C595 C596 1.376 . S
C596 H583 0.930 . S
C596 C595 1.376 . S
C596 C597 1.388 . S
C597 H584 0.930 . S
C597 C596 1.388 . S
C597 C598 1.390 . S
C598 C597 1.390 . S
C598 C599 1.394 . S
C598 C604 1.465 . S
C599 C594 1.399 . S
C599 C598 1.394 . S
C599 C600 1.516 . S
C600 C599 1.516 . S
C600 C601 1.502 1_554 S
C600 C602 1.561 1_554 S
C600 C603 1.526 . S
C601 H585 0.959 1_556 S
C601 H586 0.959 . S
C601 H587 0.961 . S
C601 C600 1.502 1_556 S
C602 H588 0.960 . S
C602 H589 0.961 . S
C602 H590 0.959 . S
C602 C600 1.561 1_556 S
C603 C600 1.526 . S
C603 C604 1.396 . S
C603 C608 1.390 . S
C604 C598 1.465 . S
C604 C603 1.396 . S
C604 C605 1.399 . S
C605 H591 0.929 . S
C605 C604 1.399 . S
C605 C606 1.385 . S
C606 H592 0.931 . S
C606 C605 1.385 . S
C606 C607 1.389 . S
C607 C606 1.389 . S
C607 C608 1.387 . S
C608 H593 0.930 . S
C608 C603 1.390 . S
C608 C607 1.387 . S
C217 C20 1.303 . S
C229 C122 1.306 . S
C244 C156 1.460 . S
C256 C54 1.457 . S
C271 C190 1.324 . S
C283 C88 1.328 . S
C298 C9 1.426 . S
C310 C5 1.478 . S
C325 C39 1.509 . S
C337 C43 1.360 . S
C352 C73 1.499 . S
C364 C77 1.406 . S
C379 C111 1.448 . S
C391 C107 1.477 . S
C406 C141 1.467 . S
C418 C145 1.443 . S
C433 C175 1.479 . S
C445 C179 1.450 . S
C460 C2 1.009 . S
C472 C101 1.019 . S
C487 C67 1.129 . S
C499 C104 1.081 . S
C514 C70 1.039 . S
C526 C138 1.044 . S
C541 C135 0.894 . S
C553 C172 0.869 . S
C568 C33 0.927 . S
C580 C169 0.931 . S
C595 C36 1.251 . S
C607 C203 1.295 . S
