# Generated by pormake.
# Topology wje, (4)-cn, num edge types: 1
# Building blocks:
#     Node 0, Type 0, BuildingBlock: QUQFOY_clean_sbu_3, # of connection points: 4
#     Node 1, Type 0, BuildingBlock: QUQFOY_clean_sbu_3, # of connection points: 4
#     Node 2, Type 0, BuildingBlock: QUQFOY_clean_sbu_3, # of connection points: 4
#     Node 3, Type 0, BuildingBlock: QUQFOY_clean_sbu_3, # of connection points: 4
#     Node 4, Type 0, BuildingBlock: QUQFOY_clean_sbu_3, # of connection points: 4
#     Node 5, Type 0, BuildingBlock: QUQFOY_clean_sbu_3, # of connection points: 4
#     Node 6, Type 0, BuildingBlock: QUQFOY_clean_sbu_3, # of connection points: 4
#     Node 7, Type 0, BuildingBlock: QUQFOY_clean_sbu_3, # of connection points: 4
#     Node 8, Type 0, BuildingBlock: QUQFOY_clean_sbu_3, # of connection points: 4
#     Node 9, Type 0, BuildingBlock: QUQFOY_clean_sbu_3, # of connection points: 4
#     Node 10, Type 0, BuildingBlock: QUQFOY_clean_sbu_3, # of connection points: 4
#     Node 11, Type 0, BuildingBlock: QUQFOY_clean_sbu_3, # of connection points: 4
#     Edge 12, Type (0, 0), BuildingBlock: MIFKUJ_clean_linker_0, # of connection points: 2
#     Edge 13, Type (0, 0), BuildingBlock: MIFKUJ_clean_linker_0, # of connection points: 2
#     Edge 14, Type (0, 0), BuildingBlock: MIFKUJ_clean_linker_0, # of connection points: 2
#     Edge 15, Type (0, 0), BuildingBlock: MIFKUJ_clean_linker_0, # of connection points: 2
#     Edge 16, Type (0, 0), BuildingBlock: MIFKUJ_clean_linker_0, # of connection points: 2
#     Edge 17, Type (0, 0), BuildingBlock: MIFKUJ_clean_linker_0, # of connection points: 2
#     Edge 18, Type (0, 0), BuildingBlock: MIFKUJ_clean_linker_0, # of connection points: 2
#     Edge 19, Type (0, 0), BuildingBlock: MIFKUJ_clean_linker_0, # of connection points: 2
#     Edge 20, Type (0, 0), BuildingBlock: MIFKUJ_clean_linker_0, # of connection points: 2
#     Edge 21, Type (0, 0), BuildingBlock: MIFKUJ_clean_linker_0, # of connection points: 2
#     Edge 22, Type (0, 0), BuildingBlock: MIFKUJ_clean_linker_0, # of connection points: 2
#     Edge 23, Type (0, 0), BuildingBlock: MIFKUJ_clean_linker_0, # of connection points: 2
#     Edge 24, Type (0, 0), BuildingBlock: MIFKUJ_clean_linker_0, # of connection points: 2
#     Edge 25, Type (0, 0), BuildingBlock: MIFKUJ_clean_linker_0, # of connection points: 2
#     Edge 26, Type (0, 0), BuildingBlock: MIFKUJ_clean_linker_0, # of connection points: 2
#     Edge 27, Type (0, 0), BuildingBlock: MIFKUJ_clean_linker_0, # of connection points: 2
#     Edge 28, Type (0, 0), BuildingBlock: MIFKUJ_clean_linker_0, # of connection points: 2
#     Edge 29, Type (0, 0), BuildingBlock: MIFKUJ_clean_linker_0, # of connection points: 2
#     Edge 30, Type (0, 0), BuildingBlock: MIFKUJ_clean_linker_0, # of connection points: 2
#     Edge 31, Type (0, 0), BuildingBlock: MIFKUJ_clean_linker_0, # of connection points: 2
#     Edge 32, Type (0, 0), BuildingBlock: MIFKUJ_clean_linker_0, # of connection points: 2
#     Edge 33, Type (0, 0), BuildingBlock: MIFKUJ_clean_linker_0, # of connection points: 2
#     Edge 34, Type (0, 0), BuildingBlock: MIFKUJ_clean_linker_0, # of connection points: 2
#     Edge 35, Type (0, 0), BuildingBlock: MIFKUJ_clean_linker_0, # of connection points: 2
# Relax obj value: 0.150
# Max RMSD: 0.092
# Mean RMSD: 0.092
data_MOF--net-wje--node1-QUQFOY_clean_sbu_3--edge1-MIFKUJ_clean_linker_0
_symmetry_space_group_name_H-M    P1
_symmetry_Int_Tables_number       1
_symmetry_cell_setting            triclinic
loop_
_symmetry_equiv_pos_as_xyz
'x, y, z'
_cell_length_a     53.051825
_cell_length_b     52.952874
_cell_length_c     49.949005
_cell_angle_alpha  89.923439
_cell_angle_beta   90.063658
_cell_angle_gamma 120.00884
loop_
_atom_site_label
_atom_site_type_symbol
_atom_site_fract_x
_atom_site_fract_y
_atom_site_fract_z
_atom_type_partial_charge
C0 C 0.2905 0.95883 0.29273 0.0
O1 O 0.31116 0.95361 0.28924 0.0
Cd2 Cd 0.35998 0.98978 0.29944 0.0
O3 O 0.29559 0.98464 0.29718 0.0
Cd4 Cd 0.33573 0.03577 0.29787 0.0
C5 C 0.34408 0.0147 0.35873 0.0
O6 O 0.37043 0.03033 0.2725 0.0
O7 O 0.38952 0.06693 0.29924 0.0
O8 O 0.31271 0.04239 0.2596 0.0
C9 C 0.39326 0.0521 0.28136 0.0
O10 O 0.35531 0.00175 0.34613 0.0
C11 C 0.31285 0.06515 0.2677 0.0
O12 O 0.33334 0.02822 0.34627 0.0
O13 O 0.32322 0.07445 0.29097 0.0
C14 C 0.31449 0.27938 0.61971 0.0
O15 O 0.34175 0.29543 0.62301 0.0
Cd16 Cd 0.36388 0.3445 0.63854 0.0
O17 O 0.29757 0.28975 0.6224 0.0
Cd18 Cd 0.29993 0.33691 0.62974 0.0
C19 C 0.31868 0.33344 0.69329 0.0
O20 O 0.34651 0.36821 0.61035 0.0
O21 O 0.33162 0.38997 0.63699 0.0
O22 O 0.27744 0.32952 0.58705 0.0
C23 C 0.35078 0.39183 0.62064 0.0
O24 O 0.34348 0.34065 0.68325 0.0
C25 C 0.25521 0.33066 0.59444 0.0
O26 O 0.29705 0.32834 0.67841 0.0
O27 O 0.253 0.33456 0.61932 0.0
C28 C 0.01566 0.32714 0.95394 0.0
O29 O 0.0239 0.35413 0.95271 0.0
Cd30 Cd 0.99051 0.3711 0.9591 0.0
O31 O 0.98876 0.30815 0.95594 0.0
Cd32 Cd 0.93988 0.30302 0.95596 0.0
C33 C 0.95936 0.33167 0.01758 0.0
O34 O 0.95312 0.34394 0.92765 0.0
O35 O 0.91361 0.33054 0.94948 0.0
O36 O 0.93279 0.26677 0.92344 0.0
C37 C 0.93162 0.34738 0.93208 0.0
O38 O 0.97493 0.35588 0.00555 0.0
C39 C 0.90677 0.24853 0.92981 0.0
O40 O 0.94478 0.30799 0.00454 0.0
O41 O 0.89569 0.25527 0.94918 0.0
C42 C 0.68955 0.0227 0.28705 0.0
O43 O 0.67128 0.03088 0.28196 0.0
Cd44 Cd 0.62139 0.00059 0.29354 0.0
O45 O 0.68125 -0.00353 0.29376 0.0
Cd46 Cd 0.63699 0.94786 0.2964 0.0
C47 C 0.63166 0.975 0.35536 0.0
O48 O 0.60532 0.95694 0.26984 0.0
O49 O 0.58309 0.92089 0.29699 0.0
O50 O 0.65667 0.93661 0.2586 0.0
C51 C 0.58139 0.93692 0.27897 0.0
O52 O 0.62432 0.99033 0.3411 0.0
C53 C 0.65558 0.91381 0.26793 0.0
O54 O 0.63874 0.95758 0.34452 0.0
O55 O 0.64589 0.90635 0.29171 0.0
C56 C 0.6646 0.70481 0.61208 0.0
O57 O 0.63809 0.68483 0.61328 0.0
Cd58 Cd 0.62406 0.63706 0.62909 0.0
O59 O 0.68488 0.69922 0.61685 0.0
Cd60 Cd 0.69377 0.6587 0.62611 0.0
C61 C 0.66683 0.65816 0.68713 0.0
O62 O 0.65176 0.62167 0.60421 0.0
O63 O 0.67067 0.60521 0.63244 0.0
O64 O 0.72201 0.67516 0.58623 0.0
C65 C 0.65114 0.59979 0.61504 0.0
O66 O 0.64219 0.64603 0.67531 0.0
C67 C 0.74499 0.67668 0.59546 0.0
O68 O 0.69047 0.66712 0.67403 0.0
O69 O 0.74472 0.66998 0.62003 0.0
C70 C 0.97644 0.69154 0.95542 0.0
O71 O 0.96328 0.66466 0.94942 0.0
Cd72 Cd 0.98382 0.63484 0.95911 0.0
O73 O 0.00272 0.70462 0.96354 0.0
Cd74 Cd 0.04518 0.69715 0.9677 0.0
C75 C 0.01124 0.66106 0.02361 0.0
O76 O 0.02793 0.6592 0.93509 0.0
O77 O 0.06346 0.66309 0.95875 0.0
O78 O 0.06366 0.74054 0.94128 0.0
C79 C 0.04527 0.64999 0.94012 0.0
O80 O -0.00718 0.64173 0.00775 0.0
C81 C 0.08967 0.7524 0.94961 0.0
O82 O 0.03299 0.68431 0.01461 0.0
O83 O 0.09551 0.73876 0.9673 0.0
C84 C 0.03712 0.69381 0.36554 0.0
O85 O 0.04355 0.67425 0.3708 0.0
Cd86 Cd 0.00719 0.62428 0.36714 0.0
O87 O 0.01073 0.68764 0.36321 0.0
Cd88 Cd 0.96052 0.64695 0.37029 0.0
C89 C 0.97307 0.63047 0.30908 0.0
O90 O 0.9712 0.61741 0.39861 0.0
O91 O 0.93038 0.59373 0.37786 0.0
O92 O 0.95896 0.67619 0.40597 0.0
C93 C 0.94816 0.59338 0.39469 0.0
O94 O 0.98922 0.62275 0.32142 0.0
C95 C 0.93444 0.6734 0.40012 0.0
O96 O 0.95963 0.64108 0.32178 0.0
O97 O 0.92188 0.65883 0.37912 0.0
C98 C 0.31632 0.03638 0.68184 0.0
O99 O 0.34359 0.04625 0.68047 0.0
Cd100 Cd 0.36762 0.01914 0.68797 0.0
O101 O 0.29908 0.01022 0.68922 0.0
Cd102 Cd 0.30316 0.96763 0.70324 0.0
C103 C 0.32694 0.96866 0.64002 0.0
O104 O 0.34749 0.99425 0.72866 0.0
O105 O 0.33479 0.9496 0.72048 0.0
O106 O 0.26662 0.9592 0.73661 0.0
C107 C 0.35194 0.9732 0.73241 0.0
O108 O 0.35187 0.98834 0.64819 0.0
C109 C 0.2531 0.93163 0.73424 0.0
O110 O 0.30488 0.95809 0.65548 0.0
O111 O 0.26169 0.92095 0.716 0.0
C112 C 0.26759 0.33047 0.03278 0.0
O113 O 0.28722 0.35705 0.03027 0.0
Cd114 Cd 0.33809 0.37447 0.02923 0.0
O115 O 0.27421 0.31075 0.03694 0.0
Cd116 Cd 0.31798 0.30619 0.04352 0.0
C117 C 0.33252 0.32733 0.97849 0.0
O118 O 0.34533 0.35128 0.06633 0.0
O119 O 0.37121 0.33287 0.05325 0.0
O120 O 0.29398 0.27598 0.08195 0.0
C121 C 0.36994 0.35304 0.06578 0.0
O122 O 0.34152 0.35317 0.98694 0.0
C123 C 0.29839 0.25535 0.07546 0.0
O124 O 0.32153 0.3056 0.99445 0.0
O125 O 0.31114 0.25777 0.05324 0.0
C126 C 0.94833 0.27666 0.35745 0.0
O127 O 0.94032 0.29533 0.36106 0.0
Cd128 Cd 0.97323 0.34633 0.35848 0.0
O129 O 0.9752 0.28434 0.35583 0.0
Cd130 Cd 0.02347 0.32867 0.36155 0.0
C131 C 0.00913 0.34471 0.30048 0.0
O132 O 0.00918 0.35492 0.39056 0.0
O133 O 0.04918 0.38207 0.36965 0.0
O134 O 0.03131 0.30251 0.39676 0.0
C135 C 0.03085 0.38007 0.38706 0.0
O136 O -0.00739 0.35186 0.31286 0.0
C137 C 0.05708 0.30953 0.39016 0.0
O138 O 0.0226 0.33394 0.31292 0.0
O139 O 0.06704 0.32434 0.36874 0.0
C140 C 0.65478 0.94888 0.68722 0.0
O141 O 0.62784 0.94007 0.69006 0.0
Cd142 Cd 0.60849 0.97149 0.69599 0.0
O143 O 0.67379 0.97577 0.68986 0.0
Cd144 Cd 0.67675 0.02274 0.70103 0.0
C145 C 0.64479 0.01366 0.64045 0.0
O146 O 0.63675 0.00225 0.73143 0.0
O147 O 0.64983 0.04601 0.71939 0.0
O148 O 0.71582 0.02992 0.73064 0.0
C149 C 0.63356 0.02421 0.73395 0.0
O150 O 0.62136 -0.00475 0.65215 0.0
C151 C 0.73192 0.05687 0.72556 0.0
O152 O 0.66878 0.02682 0.65328 0.0
O153 O 0.72303 0.06774 0.7077 0.0
C154 C 0.72153 0.67355 0.02107 0.0
O155 O 0.7049 0.64608 0.01974 0.0
Cd156 Cd 0.65301 0.62223 0.02009 0.0
O157 O 0.71133 0.69037 0.02564 0.0
Cd158 Cd 0.66477 0.68777 0.0364 0.0
C159 C 0.64854 0.66714 0.97159 0.0
O160 O 0.64226 0.64128 0.05807 0.0
O161 O 0.61279 0.65668 0.04807 0.0
O162 O 0.68882 0.71644 0.07536 0.0
C163 C 0.61665 0.63714 0.05882 0.0
O164 O 0.64404 0.64229 0.97946 0.0
C165 C 0.68146 0.73558 0.07164 0.0
O166 O 0.65763 0.68864 0.98772 0.0
O167 O 0.66709 0.73334 0.05046 0.0
H168 H 0.30865 0.11391 0.27832 0.0
H169 H 0.29818 0.14246 0.24589 0.0
H170 H 0.28617 0.08086 0.18388 0.0
H171 H 0.29597 0.05211 0.21587 0.0
H172 H 0.32979 0.14187 0.17424 0.0
H173 H 0.2298 0.07998 0.20128 0.0
H174 H 0.18962 0.05769 0.2339 0.0
H175 H 0.20587 0.1426 0.2571 0.0
H176 H 0.24647 0.16543 0.22487 0.0
H177 H 0.29797 0.20434 0.06541 0.0
H178 H 0.29255 0.16755 0.09818 0.0
H179 H 0.27937 0.21592 0.16075 0.0
H180 H 0.28345 0.25193 0.12798 0.0
H181 H 0.24713 0.16066 0.17083 0.0
H182 H 0.34741 0.22348 0.14781 0.0
H183 H 0.38978 0.24843 0.11775 0.0
H184 H 0.37635 0.1657 0.09054 0.0
H185 H 0.33364 0.14024 0.1202 0.0
C186 C 0.30327 0.10623 0.25789 0.0
C187 C 0.30335 0.08091 0.24962 0.0
C188 C 0.29724 0.12248 0.23945 0.0
C189 C 0.2915 0.11368 0.21257 0.0
C190 C 0.29057 0.08793 0.20456 0.0
C191 C 0.29619 0.07156 0.22292 0.0
C192 C 0.28914 0.13253 0.19213 0.0
C193 C 0.31154 0.14571 0.17323 0.0
C194 C 0.26576 0.13812 0.19149 0.0
C195 C 0.2414 0.12442 0.21089 0.0
C196 C 0.22502 0.09392 0.21354 0.0
C197 C 0.20212 0.08118 0.23191 0.0
C198 C 0.19526 0.09872 0.24762 0.0
C199 C 0.21124 0.12904 0.24495 0.0
C200 C 0.23419 0.14189 0.22662 0.0
C201 C 0.29342 0.20682 0.08607 0.0
C202 C 0.29147 0.23116 0.09419 0.0
C203 C 0.29047 0.18589 0.10481 0.0
C204 C 0.28629 0.18937 0.13205 0.0
C205 C 0.28271 0.21281 0.13989 0.0
C206 C 0.28515 0.23345 0.12112 0.0
C207 C 0.28774 0.16991 0.15264 0.0
C208 C 0.26533 0.15675 0.17169 0.0
C209 C 0.31145 0.16473 0.1538 0.0
C210 C 0.33716 0.17997 0.136 0.0
C211 C 0.35338 0.21061 0.13527 0.0
C212 C 0.37746 0.22484 0.11833 0.0
C213 C 0.3857 0.20866 0.10219 0.0
C214 C 0.36991 0.1782 0.10302 0.0
C215 C 0.34578 0.16386 0.1199 0.0
H216 H 0.40435 0.21972 0.08909 0.0
H217 H 0.1775 0.08882 0.26182 0.0
H218 H 0.19823 0.31636 0.60243 0.0
H219 H 0.16236 0.30938 0.56763 0.0
H220 H 0.22782 0.3317 0.50678 0.0
H221 H 0.26332 0.33831 0.54099 0.0
H222 H 0.19538 0.36044 0.50145 0.0
H223 H 0.18126 0.26358 0.51549 0.0
H224 H 0.17054 0.22052 0.54279 0.0
H225 H 0.08724 0.20968 0.56385 0.0
H226 H 0.09765 0.25298 0.53695 0.0
H227 H 0.11391 0.32344 0.38338 0.0
H228 H 0.14637 0.32266 0.41784 0.0
H229 H 0.07474 0.28411 0.47364 0.0
H230 H 0.04211 0.28376 0.43918 0.0
H231 H 0.10928 0.26343 0.48305 0.0
H232 H 0.12163 0.35883 0.47074 0.0
H233 H 0.13106 0.40264 0.44528 0.0
H234 H 0.21586 0.41773 0.42378 0.0
H235 H 0.20675 0.37375 0.44883 0.0
C236 C 0.20489 0.31989 0.58163 0.0
C237 C 0.23348 0.32776 0.57439 0.0
C238 C 0.18443 0.31579 0.56184 0.0
C239 C 0.19252 0.3199 0.5347 0.0
C240 C 0.2212 0.32841 0.52761 0.0
C241 C 0.2414 0.33208 0.5472 0.0
C242 C 0.17137 0.31536 0.51336 0.0
C243 C 0.17666 0.3392 0.49725 0.0
C244 C 0.14668 0.28777 0.50839 0.0
C245 C 0.14038 0.26171 0.52447 0.0
C246 C 0.16077 0.25218 0.52614 0.0
C247 C 0.15473 0.2277 0.5415 0.0
C248 C 0.12826 0.21243 0.55511 0.0
C249 C 0.10775 0.22157 0.55333 0.0
C250 C 0.11371 0.24606 0.53802 0.0
C251 C 0.10497 0.31415 0.40279 0.0
C252 C 0.07556 0.30406 0.40867 0.0
C253 C 0.12356 0.31391 0.42253 0.0
C254 C 0.11312 0.3041 0.44855 0.0
C255 C 0.08334 0.292 0.4538 0.0
C256 C 0.06471 0.29189 0.43404 0.0
C257 C 0.13342 0.30851 0.47085 0.0
C258 C 0.12794 0.2847 0.48721 0.0
C259 C 0.15777 0.33628 0.47635 0.0
C260 C 0.16339 0.36285 0.46143 0.0
C261 C 0.14221 0.37139 0.46044 0.0
C262 C 0.1475 0.39626 0.4461 0.0
C263 C 0.17401 0.41292 0.43286 0.0
C264 C 0.19532 0.40478 0.43401 0.0
C265 C 0.19011 0.37989 0.44829 0.0
H266 H 0.17807 0.43216 0.42177 0.0
H267 H 0.12362 0.19347 0.56699 0.0
H268 H 0.75924 0.03903 0.76075 0.0
H269 H 0.79417 0.06856 0.79539 0.0
H270 H 0.79581 0.14542 0.76424 0.0
H271 H 0.76164 0.11621 0.72909 0.0
H272 H 0.84744 0.15937 0.78253 0.0
H273 H 0.74899 0.10455 0.81509 0.0
H274 H 0.70204 0.05995 0.82375 0.0
H275 H 0.74526 0.02586 0.872 0.0
H276 H 0.79254 0.07014 0.86332 0.0
H277 H 0.84777 0.21706 0.92341 0.0
H278 H 0.82129 0.18005 0.88911 0.0
H279 H 0.9011 0.1833 0.86553 0.0
H280 H 0.92776 0.22101 0.89901 0.0
H281 H 0.81032 0.12766 0.87486 0.0
H282 H 0.90426 0.18103 0.7983 0.0
H283 H 0.94752 0.22898 0.78915 0.0
H284 H 0.907 0.27174 0.82818 0.0
H285 H 0.86338 0.22409 0.83724 0.0
C286 C 0.76763 0.06235 0.76089 0.0
C287 C 0.75744 0.07529 0.74245 0.0
C288 C 0.78745 0.07915 0.78077 0.0
C289 C 0.79696 0.10903 0.78281 0.0
C290 C 0.7886 0.12236 0.76313 0.0
C291 C 0.76906 0.10563 0.74304 0.0
C292 C 0.81344 0.12594 0.8066 0.0
C293 C 0.83948 0.15229 0.80272 0.0
C294 C 0.80271 0.11702 0.83294 0.0
C295 C 0.77431 0.09049 0.83832 0.0
C296 C 0.74849 0.08745 0.8274 0.0
C297 C 0.72183 0.06225 0.83233 0.0
C298 C 0.72068 0.04005 0.84835 0.0
C299 C 0.74619 0.04305 0.85955 0.0
C300 C 0.77292 0.06819 0.85465 0.0
C301 C 0.8595 0.2094 0.91127 0.0
C302 C 0.88982 0.22216 0.91351 0.0
C303 C 0.84438 0.18827 0.8917 0.0
C304 C 0.85938 0.17947 0.87434 0.0
C305 C 0.88924 0.19033 0.87825 0.0
C306 C 0.90441 0.21176 0.89744 0.0
C307 C 0.84435 0.16104 0.85078 0.0
C308 C 0.81856 0.13446 0.8547 0.0
C309 C 0.8548 0.1702 0.82441 0.0
C310 C 0.88073 0.19899 0.8187 0.0
C311 C 0.90457 0.20068 0.80484 0.0
C312 C 0.92915 0.2278 0.79968 0.0
C313 C 0.93005 0.25338 0.80817 0.0
C314 C 0.90632 0.25191 0.82171 0.0
C315 C 0.88168 0.22486 0.82688 0.0
H316 H 0.94911 0.27434 0.80419 0.0
H317 H 0.70002 0.02055 0.85215 0.0
H318 H 0.70064 0.73717 0.12247 0.0
H319 H 0.70385 0.7695 0.15877 0.0
H320 H 0.6784 0.81613 0.10446 0.0
H321 H 0.67453 0.7834 0.06794 0.0
H322 H 0.72726 0.85153 0.14365 0.0
H323 H 0.62772 0.76932 0.13755 0.0
H324 H 0.59176 0.71674 0.13632 0.0
H325 H 0.62152 0.70532 0.21294 0.0
H326 H 0.65799 0.75781 0.21441 0.0
H327 H 0.66842 0.9217 0.21509 0.0
H328 H 0.68065 0.89302 0.18579 0.0
H329 H 0.67568 0.83875 0.25245 0.0
H330 H 0.66218 0.86711 0.28211 0.0
H331 H 0.64876 0.80613 0.21165 0.0
H332 H 0.74237 0.88821 0.22253 0.0
H333 H 0.78013 0.94011 0.2251 0.0
H334 H 0.76573 0.95173 0.14252 0.0
H335 H 0.72756 0.9 0.13953 0.0
C336 C 0.69616 0.75457 0.11808 0.0
C337 C 0.68713 0.75766 0.09237 0.0
C338 C 0.698 0.77298 0.13887 0.0
C339 C 0.69122 0.79499 0.13422 0.0
C340 C 0.68375 0.79921 0.10831 0.0
C341 C 0.68146 0.78049 0.08754 0.0
C342 C 0.6896 0.81203 0.15682 0.0
C343 C 0.71007 0.8418 0.15849 0.0
C344 C 0.66789 0.79883 0.17672 0.0
C345 C 0.6458 0.76738 0.17593 0.0
C346 C 0.62677 0.75554 0.15401 0.0
C347 C 0.60626 0.72577 0.1533 0.0
C348 C 0.60442 0.70768 0.1745 0.0
C349 C 0.62302 0.71935 0.19651 0.0
C350 C 0.6436 0.7491 0.1973 0.0
C351 C 0.67014 0.90384 0.22371 0.0
C352 C 0.66439 0.89671 0.25098 0.0
C353 C 0.67743 0.88757 0.20689 0.0
C354 C 0.67979 0.86412 0.21697 0.0
C355 C 0.67422 0.85693 0.24428 0.0
C356 C 0.66654 0.87311 0.26119 0.0
C357 C 0.68601 0.84616 0.19827 0.0
C358 C 0.66639 0.81604 0.19724 0.0
C359 C 0.70888 0.85902 0.17925 0.0
C360 C 0.73195 0.8902 0.18086 0.0
C361 C 0.7471 0.90186 0.20495 0.0
C362 C 0.76861 0.93126 0.20648 0.0
C363 C 0.7753 0.94921 0.184 0.0
C364 C 0.76053 0.93779 0.15992 0.0
C365 C 0.73898 0.90841 0.15829 0.0
H366 H 0.79196 0.97197 0.18522 0.0
H367 H 0.58853 0.68464 0.17391 0.0
H368 H 0.95531 0.70036 0.44791 0.0
H369 H 0.929 0.71054 0.48225 0.0
H370 H 0.8554 0.68119 0.42926 0.0
H371 H 0.88147 0.67037 0.39465 0.0
H372 H 0.87188 0.73471 0.46423 0.0
H373 H 0.85013 0.63337 0.46687 0.0
H374 H 0.8648 0.59594 0.46858 0.0
H375 H 0.91094 0.63242 0.542 0.0
H376 H 0.8969 0.67037 0.54047 0.0
H377 H 0.74734 0.68635 0.54201 0.0
H378 H 0.78633 0.69564 0.51126 0.0
H379 H 0.83888 0.69516 0.57709 0.0
H380 H 0.79901 0.6847 0.60826 0.0
H381 H 0.84017 0.6632 0.53882 0.0
H382 H 0.85618 0.75923 0.54148 0.0
H383 H 0.84427 0.79864 0.54082 0.0
H384 H 0.81315 0.77643 0.46006 0.0
H385 H 0.82447 0.73658 0.46035 0.0
C386 C 0.93373 0.69655 0.44327 0.0
C387 C 0.92028 0.6842 0.41866 0.0
C388 C 0.9188 0.70246 0.46294 0.0
C389 C 0.8903 0.6964 0.45826 0.0
C390 C 0.87748 0.68603 0.4331 0.0
C391 C 0.89233 0.67978 0.41343 0.0
C392 C 0.87283 0.69765 0.48063 0.0
C393 C 0.86468 0.71904 0.4805 0.0
C394 C 0.86466 0.67791 0.50229 0.0
C395 C 0.87277 0.65489 0.50338 0.0
C396 C 0.86362 0.63356 0.48324 0.0
C397 C 0.87177 0.61223 0.4842 0.0
C398 C 0.88887 0.61186 0.50534 0.0
C399 C 0.89775 0.63277 0.52561 0.0
C400 C 0.88969 0.65418 0.52471 0.0
C401 C 0.76727 0.68853 0.55012 0.0
C402 C 0.77007 0.68472 0.57761 0.0
C403 C 0.78974 0.69414 0.53245 0.0
C404 C 0.81581 0.69667 0.54185 0.0
C405 C 0.81899 0.69348 0.56941 0.0
C406 C 0.79626 0.68752 0.58718 0.0
C407 C 0.83835 0.69995 0.52237 0.0
C408 C 0.8476 0.67934 0.52293 0.0
C409 C 0.84787 0.72077 0.50135 0.0
C410 C 0.84104 0.74477 0.50101 0.0
C411 C 0.8466 0.7626 0.52364 0.0
C412 C 0.83998 0.78505 0.52332 0.0
C413 C 0.82792 0.79001 0.50043 0.0
C414 C 0.8225 0.77256 0.47778 0.0
C415 C 0.82906 0.75006 0.478 0.0
H416 H 0.82281 0.8074 0.50022 0.0
H417 H 0.89516 0.59533 0.50604 0.0
H418 H 0.22143 0.94573 0.76778 0.0
H419 H 0.19322 0.9179 0.80671 0.0
H420 H 0.21067 0.84881 0.78663 0.0
H421 H 0.23734 0.87576 0.74698 0.0
H422 H 0.16014 0.82544 0.80591 0.0
H423 H 0.25201 0.90488 0.83438 0.0
H424 H 0.29104 0.9562 0.83828 0.0
H425 H 0.23204 0.97752 0.87737 0.0
H426 H 0.19253 0.92637 0.87338 0.0
H427 H 0.14411 0.76482 0.93535 0.0
H428 H 0.17474 0.80078 0.90152 0.0
H429 H 0.11609 0.83491 0.89969 0.0
H430 H 0.08486 0.79837 0.93269 0.0
H431 H 0.18791 0.87671 0.89345 0.0
H432 H 0.09492 0.79443 0.85812 0.0
H433 H 0.0597 0.74163 0.85647 0.0
H434 H 0.1277 0.72499 0.83229 0.0
H435 H 0.1634 0.77771 0.83425 0.0
C436 C 0.21861 0.92429 0.77138 0.0
C437 C 0.23167 0.91294 0.75449 0.0
C438 C 0.2028 0.90855 0.79378 0.0
C439 C 0.20062 0.88167 0.80012 0.0
C440 C 0.21219 0.86958 0.78232 0.0
C441 C 0.22738 0.88498 0.75958 0.0
C442 C 0.18736 0.86657 0.82571 0.0
C443 C 0.16648 0.83677 0.82496 0.0
C444 C 0.19551 0.88114 0.85078 0.0
C445 C 0.21925 0.91187 0.85333 0.0
C446 C 0.24731 0.92056 0.84365 0.0
C447 C 0.26953 0.9496 0.84589 0.0
C448 C 0.264 0.97012 0.858 0.0
C449 C 0.23627 0.96161 0.86796 0.0
C450 C 0.21396 0.93259 0.86573 0.0
C451 C 0.13844 0.78077 0.92851 0.0
C452 C 0.11218 0.77889 0.93641 0.0
C453 C 0.15587 0.80119 0.9092 0.0
C454 C 0.14747 0.82026 0.89819 0.0
C455 C 0.12289 0.8204 0.90815 0.0
C456 C 0.1051 0.79955 0.92691 0.0
C457 C 0.161 0.83607 0.87324 0.0
C458 C 0.18177 0.86576 0.87422 0.0
C459 C 0.15333 0.82139 0.84843 0.0
C460 C 0.1318 0.78987 0.84659 0.0
C461 C 0.10236 0.77946 0.85265 0.0
C462 C 0.08232 0.74957 0.85163 0.0
C463 C 0.09147 0.72995 0.84434 0.0
C464 C 0.12066 0.7402 0.83797 0.0
C465 C 0.14079 0.77007 0.83902 0.0
H466 H 0.07593 0.70682 0.84358 0.0
H467 H 0.28123 0.9926 0.85972 0.0
H468 H 0.4186 0.04594 0.23688 0.0
H469 H 0.45289 0.0278 0.2357 0.0
H470 H 0.45993 0.03385 0.32186 0.0
H471 H 0.42697 0.05358 0.32285 0.0
H472 H 0.50856 0.04157 0.30268 0.0
H473 H 0.40865 0.97023 0.29001 0.0
H474 H 0.35981 0.9477 0.2696 0.0
H475 H 0.39528 0.9421 0.19409 0.0
H476 H 0.4444 0.96478 0.214 0.0
H477 H 0.5409 0.92698 0.31731 0.0
H478 H 0.50727 0.94606 0.31707 0.0
H479 H 0.53105 0.97463 0.23545 0.0
H480 H 0.56522 0.95624 0.23573 0.0
H481 H 0.46553 0.94702 0.25436 0.0
H482 H 0.5677 0.0272 0.2703 0.0
H483 H 0.61429 0.04613 0.29453 0.0
H484 H 0.56919 0.02789 0.36967 0.0
H485 H 0.52238 0.00928 0.34579 0.0
C486 C 0.4286 0.04465 0.25538 0.0
C487 C 0.42036 0.05117 0.27991 0.0
C488 C 0.4478 0.0339 0.25477 0.0
C489 C 0.45807 0.02844 0.27878 0.0
C490 C 0.45206 0.03763 0.3031 0.0
C491 C 0.43341 0.04912 0.30365 0.0
C492 C 0.47241 0.01055 0.27872 0.0
C493 C 0.49894 0.02083 0.29228 0.0
C494 C 0.45977 0.98318 0.26547 0.0
C495 C 0.43025 0.96945 0.25343 0.0
C496 C 0.40606 0.96435 0.26901 0.0
C497 C 0.37833 0.95155 0.25754 0.0
C498 C 0.37446 0.9436 0.23055 0.0
C499 C 0.39831 0.94832 0.21499 0.0
C500 C 0.4261 0.9611 0.22636 0.0
C501 C 0.53813 0.93632 0.299 0.0
C502 C 0.55557 0.94019 0.2765 0.0
C503 C 0.5191 0.94736 0.29897 0.0
C504 C 0.51699 0.96184 0.2763 0.0
C505 C 0.53246 0.96343 0.25306 0.0
C506 C 0.55185 0.95289 0.25323 0.0
C507 C 0.50161 0.97845 0.2778 0.0
C508 C 0.47491 0.96781 0.26467 0.0
C509 C 0.5136 0.00501 0.292 0.0
C510 C 0.54167 0.01681 0.30633 0.0
C511 C 0.56779 0.02727 0.29199 0.0
C512 C 0.5942 0.03797 0.30565 0.0
C513 C 0.59469 0.03807 0.33362 0.0
C514 C 0.56878 0.02778 0.348 0.0
C515 C 0.54233 0.01731 0.33443 0.0
H516 H 0.61514 0.04617 0.34416 0.0
H517 H 0.35297 0.9337 0.22171 0.0
H518 H 0.62302 0.5645 0.65737 0.0
H519 H 0.5716 0.52708 0.65862 0.0
H520 H 0.56579 0.5353 0.57309 0.0
H521 H 0.61682 0.57388 0.57216 0.0
H522 H 0.52623 0.54142 0.59536 0.0
H523 H 0.55745 0.47141 0.60524 0.0
H524 H 0.58478 0.44937 0.62452 0.0
H525 H 0.5437 0.441 0.70061 0.0
H526 H 0.51639 0.46336 0.68187 0.0
H527 H 0.38696 0.41094 0.57807 0.0
H528 H 0.43884 0.44763 0.57823 0.0
H529 H 0.43312 0.46529 0.66157 0.0
H530 H 0.38084 0.4292 0.66131 0.0
H531 H 0.47728 0.44626 0.64257 0.0
H532 H 0.4454 0.51636 0.62984 0.0
H533 H 0.41729 0.53608 0.60779 0.0
H534 H 0.45955 0.54104 0.53311 0.0
H535 H 0.48761 0.52092 0.55464 0.0
C536 C 0.61099 0.55751 0.63874 0.0
C537 C 0.62371 0.57189 0.61464 0.0
C538 C 0.58156 0.53615 0.63945 0.0
C539 C 0.56473 0.52839 0.61594 0.0
C540 C 0.57824 0.54111 0.59152 0.0
C541 C 0.60742 0.5629 0.59092 0.0
C542 C 0.5326 0.50977 0.61716 0.0
C543 C 0.51564 0.52041 0.60536 0.0
C544 C 0.51865 0.48274 0.63086 0.0
C545 C 0.53509 0.46934 0.64221 0.0
C546 C 0.55442 0.46511 0.62614 0.0
C547 C 0.56987 0.4525 0.63696 0.0
C548 C 0.56604 0.44387 0.66379 0.0
C549 C 0.54668 0.44774 0.67984 0.0
C550 C 0.53119 0.46035 0.66912 0.0
C551 C 0.39664 0.42326 0.59619 0.0
C552 C 0.38006 0.41752 0.61961 0.0
C553 C 0.42618 0.44404 0.59628 0.0
C554 C 0.43959 0.45888 0.61994 0.0
C555 C 0.42293 0.45395 0.64317 0.0
C556 C 0.39316 0.43361 0.64292 0.0
C557 C 0.47142 0.47793 0.62059 0.0
C558 C 0.48817 0.46734 0.63269 0.0
C559 C 0.48522 0.50474 0.60679 0.0
C560 C 0.46837 0.51683 0.5938 0.0
C561 C 0.44847 0.52136 0.60865 0.0
C562 C 0.4326 0.53268 0.59626 0.0
C563 C 0.43657 0.53973 0.56905 0.0
C564 C 0.45647 0.53553 0.55418 0.0
C565 C 0.47238 0.52419 0.56647 0.0
H566 H 0.42427 0.54851 0.55949 0.0
H567 H 0.57802 0.43411 0.67213 0.0
H568 H 0.01097 0.6194 0.89813 0.0
H569 H 0.99098 0.5675 0.889 0.0
H570 H 0.04247 0.56222 0.95338 0.0
H571 H 0.06317 0.61428 0.9621 0.0
H572 H 0.03767 0.52651 0.91447 0.0
H573 H 0.97319 0.54746 0.96415 0.0
H574 H 0.94481 0.57193 0.97265 0.0
H575 H 0.89418 0.53303 0.90181 0.0
H576 H 0.92266 0.50873 0.89263 0.0
H577 H 0.91421 0.37937 0.96144 0.0
H578 H 0.93135 0.43133 0.95546 0.0
H579 H 0.97136 0.43046 0.88053 0.0
H580 H 0.95532 0.37883 0.88704 0.0
H581 H 0.92997 0.46938 0.92251 0.0
H582 H 0.03799 0.48804 0.87685 0.0
H583 H 0.06797 0.46437 0.87591 0.0
H584 H 0.03315 0.42437 0.95203 0.0
H585 H 0.00301 0.4478 0.95342 0.0
C586 C 0.01856 0.6073 0.9099 0.0
C587 C 0.03828 0.62072 0.93108 0.0
C588 C 0.00703 0.57766 0.90474 0.0
C589 C 0.01467 0.5609 0.92097 0.0
C590 C 0.03614 0.57475 0.94072 0.0
C591 C 0.04796 0.6045 0.9457 0.0
C592 C -0.00154 0.52869 0.91913 0.0
C593 C 0.01411 0.51404 0.91594 0.0
C594 C 0.96776 0.51239 0.92184 0.0
C595 C 0.95026 0.52654 0.92755 0.0
C596 C 0.95613 0.54427 0.9503 0.0
C597 C 0.94003 0.55811 0.95524 0.0
C598 C 0.91775 0.5541 0.93774 0.0
C599 C 0.91148 0.53616 0.91531 0.0
C600 C 0.92759 0.52235 0.91023 0.0
C601 C 0.92584 0.39007 0.94329 0.0
C602 C 0.93382 0.37533 0.92485 0.0
C603 C 0.93569 0.41977 0.93991 0.0
C604 C 0.95333 0.43491 0.91792 0.0
C605 C 0.95842 0.41934 0.89798 0.0
C606 C 0.94908 0.38985 0.90161 0.0
C607 C 0.96917 0.46721 0.91753 0.0
C608 C 0.95347 0.48187 0.92047 0.0
C609 C -5e-05 0.48353 0.91567 0.0
C610 C 0.01805 0.46942 0.91507 0.0
C611 C 0.03677 0.4742 0.89338 0.0
C612 C 0.05373 0.46078 0.89275 0.0
C613 C 0.05232 0.44273 0.91383 0.0
C614 C 0.03403 0.43814 0.93562 0.0
C615 C 0.01697 0.45145 0.93632 0.0
H616 H 0.06548 0.43237 0.91331 0.0
H617 H 0.90532 0.56483 0.94159 0.0
H618 H 0.97025 0.58262 0.43927 0.0
H619 H 0.98229 0.54397 0.44486 0.0
H620 H 0.94032 0.50624 0.36958 0.0
H621 H 0.92704 0.54404 0.36462 0.0
H622 H 0.93504 0.4649 0.40087 0.0
H623 H 0.01405 0.55726 0.37286 0.0
H624 H 0.04797 0.61028 0.37554 0.0
H625 H 0.07987 0.59914 0.4511 0.0
H626 H 0.04602 0.54603 0.44893 0.0
H627 H 0.05664 0.43444 0.36444 0.0
H628 H 0.04285 0.47156 0.37226 0.0
H629 H 0.98718 0.4203 0.43729 0.0
H630 H 0.00036 0.38291 0.42921 0.0
H631 H 0.04166 0.50614 0.4114 0.0
H632 H 0.92181 0.41559 0.42922 0.0
H633 H 0.88958 0.36366 0.41803 0.0
H634 H 0.94142 0.37332 0.34866 0.0
H635 H 0.97369 0.42531 0.35925 0.0
C636 C 0.96271 0.56542 0.42445 0.0
C637 C 0.94796 0.56631 0.40145 0.0
C638 C 0.96981 0.54355 0.42752 0.0
C639 C 0.96304 0.52283 0.4072 0.0
C640 C 0.94595 0.52215 0.38541 0.0
C641 C 0.93828 0.54369 0.38262 0.0
C642 C 0.97629 0.50399 0.4072 0.0
C643 C 0.95829 0.47389 0.40344 0.0
C644 C 0.00681 0.51586 0.40957 0.0
C645 C 0.02732 0.54773 0.41086 0.0
C646 C 0.02819 0.56615 0.39011 0.0
C647 C 0.0474 0.5962 0.39154 0.0
C648 C 0.06595 0.60808 0.41354 0.0
C649 C 0.06544 0.58991 0.4341 0.0
C650 C 0.04629 0.55983 0.43277 0.0
C651 C 0.04216 0.43153 0.3809 0.0
C652 C 0.02913 0.40563 0.39593 0.0
C653 C 0.03429 0.45272 0.38534 0.0
C654 C 0.01347 0.44824 0.40491 0.0
C655 C 0.00283 0.42382 0.42173 0.0
C656 C 0.01044 0.40256 0.41715 0.0
C657 C 0.00031 0.46709 0.40568 0.0
C658 C 0.01835 0.49715 0.40935 0.0
C659 C 0.97 0.45538 0.40202 0.0
C660 C 0.95033 0.42424 0.39523 0.0
C661 C 0.92625 0.40663 0.41154 0.0
C662 C 0.90799 0.37718 0.40531 0.0
C663 C 0.91353 0.36516 0.38272 0.0
C664 C 0.93724 0.3826 0.36623 0.0
C665 C 0.95552 0.41205 0.37235 0.0
H666 H 0.89941 0.34236 0.37796 0.0
H667 H 0.08078 0.63136 0.41461 0.0
H668 H 0.6158 0.06466 0.7368 0.0
H669 H 0.56772 0.05561 0.75081 0.0
H670 H 0.54417 0.96815 0.77435 0.0
H671 H 0.59203 0.97699 0.76075 0.0
H672 H 0.51025 0.97313 0.73272 0.0
H673 H 0.54495 0.00975 0.82083 0.0
H674 H 0.57787 0.04555 0.85398 0.0
H675 H 0.55572 0.10831 0.82484 0.0
H676 H 0.52298 0.07304 0.79122 0.0
H677 H 0.36475 0.93186 0.74916 0.0
H678 H 0.41237 0.93978 0.76321 0.0
H679 H 0.44828 0.03281 0.75616 0.0
H680 H 0.40058 0.02509 0.74326 0.0
H681 H 0.4753 0.02188 0.79505 0.0
H682 H 0.44988 0.99259 0.70342 0.0
H683 H 0.41945 0.96107 0.66658 0.0
H684 H 0.42767 0.8899 0.69774 0.0
H685 H 0.45784 0.92093 0.73501 0.0
C686 C 0.60066 0.04379 0.74566 0.0
C687 C 0.60742 0.02134 0.74719 0.0
C688 C 0.57331 0.03872 0.75379 0.0
C689 C 0.55251 0.01119 0.7635 0.0
C690 C 0.56003 0.98953 0.76692 0.0
C691 C 0.58734 0.99462 0.75903 0.0
C692 C 0.52172 0.00337 0.76545 0.0
C693 C 0.50241 0.98323 0.74681 0.0
C694 C 0.51202 0.01752 0.78312 0.0
C695 C 0.53167 0.03879 0.80334 0.0
C696 C 0.54729 0.03127 0.82131 0.0
C697 C 0.56588 0.05146 0.84023 0.0
C698 C 0.56893 0.07921 0.84148 0.0
C699 C 0.55334 0.08681 0.82384 0.0
C700 C 0.53474 0.06671 0.80487 0.0
C701 C 0.38269 0.95399 0.75116 0.0
C702 C 0.37918 0.97784 0.74464 0.0
C703 C 0.40984 0.9585 0.7592 0.0
C704 C 0.43398 0.98686 0.7601 0.0
C705 C 0.42998 0.01075 0.75552 0.0
C706 C 0.40273 0.00628 0.74798 0.0
C707 C 0.46383 0.99153 0.76234 0.0
C708 C 0.48301 0.01127 0.78144 0.0
C709 C 0.47382 0.97762 0.74459 0.0
C710 C 0.45578 0.95894 0.72217 0.0
C711 C 0.44501 0.97015 0.70252 0.0
C712 C 0.42784 0.95239 0.68155 0.0
C713 C 0.42155 0.92348 0.67987 0.0
C714 C 0.4325 0.91229 0.69911 0.0
C715 C 0.44963 0.92994 0.72016 0.0
H716 H 0.40826 0.90976 0.66362 0.0
H717 H 0.58333 0.0948 0.85614 0.0
H718 H 0.42707 0.36663 0.06261 0.0
H719 H 0.47024 0.41494 0.06915 0.0
H720 H 0.41513 0.44973 0.09153 0.0
H721 H 0.37218 0.40185 0.0855 0.0
H722 H 0.45368 0.47747 0.04683 0.0
H723 H 0.45384 0.44626 0.13764 0.0
H724 H 0.45443 0.41337 0.1723 0.0
H725 H 0.53615 0.42697 0.14238 0.0
H726 H 0.53584 0.45963 0.10726 0.0
H727 H 0.56036 0.62304 0.06811 0.0
H728 H 0.51885 0.57444 0.07676 0.0
H729 H 0.5758 0.53816 0.07449 0.0
H730 H 0.6174 0.58671 0.06701 0.0
H731 H 0.536 0.51058 0.1106 0.0
H732 H 0.53613 0.53742 0.01899 0.0
H733 H 0.53692 0.5683 0.98162 0.0
H734 H 0.45645 0.5601 0.00901 0.0
H735 H 0.4554 0.52949 0.04678 0.0
C736 C 0.42425 0.38447 0.06943 0.0
C737 C 0.39626 0.38056 0.07323 0.0
C738 C 0.44886 0.41195 0.07322 0.0
C739 C 0.44569 0.43575 0.08071 0.0
C740 C 0.4179 0.43156 0.08571 0.0
C741 C 0.39342 0.40417 0.08222 0.0
C742 C 0.47087 0.46562 0.08058 0.0
C743 C 0.47151 0.48492 0.06102 0.0
C744 C 0.49443 0.47475 0.09852 0.0
C745 C 0.49465 0.45515 0.11964 0.0
C746 C 0.47179 0.44202 0.13827 0.0
C747 C 0.47211 0.42347 0.15805 0.0
C748 C 0.49527 0.41802 0.15949 0.0
C749 C 0.5182 0.43118 0.14121 0.0
C750 C 0.51798 0.44973 0.12139 0.0
C751 C 0.56402 0.60473 0.06981 0.0
C752 C 0.59199 0.60856 0.06656 0.0
C753 C 0.54032 0.57698 0.07467 0.0
C754 C 0.54415 0.55258 0.07567 0.0
C755 C 0.57231 0.55663 0.07372 0.0
C756 C 0.59605 0.5844 0.06933 0.0
C757 C 0.51873 0.52267 0.07695 0.0
C758 C 0.5181 0.50327 0.09653 0.0
C759 C 0.49535 0.51312 0.05861 0.0
C760 C 0.49586 0.53144 0.03587 0.0
C761 C 0.51872 0.54238 0.01715 0.0
C762 C 0.5192 0.55981 0.99589 0.0
C763 C 0.49679 0.56623 0.99299 0.0
C764 C 0.47382 0.55516 0.01131 0.0
C765 C 0.47326 0.53776 0.03264 0.0
H766 H 0.4972 0.57972 0.97651 0.0
H767 H 0.49548 0.40366 0.17482 0.0
H768 H 0.08918 0.72385 0.39104 0.0
H769 H 0.1295 0.7722 0.37949 0.0
H770 H 0.07881 0.7774 0.31413 0.0
H771 H 0.03786 0.73017 0.32704 0.0
H772 H 0.16139 0.78872 0.34 0.0
H773 H 0.1008 0.84538 0.29486 0.0
H774 H 0.05596 0.84742 0.30282 0.0
H775 H 0.05516 0.82284 0.38491 0.0
H776 H 0.10018 0.82102 0.37754 0.0
H777 H 0.26657 0.90604 0.26778 0.0
H778 H 0.21963 0.86287 0.2779 0.0
H779 H 0.20153 0.91275 0.33521 0.0
H780 H 0.24742 0.95622 0.32385 0.0
H781 H 0.15354 0.87529 0.31533 0.0
H782 H 0.23361 0.87062 0.35338 0.0
H783 H 0.28066 0.87176 0.35379 0.0
H784 H 0.2458 0.79767 0.30133 0.0
H785 H 0.19863 0.79633 0.30033 0.0
C786 C 0.08659 0.73571 0.37458 0.0
C787 C 0.06054 0.7236 0.36002 0.0
C788 C 0.1096 0.76322 0.36789 0.0
C789 C 0.1072 0.77866 0.34604 0.0
C790 C 0.08101 0.76644 0.33154 0.0
C791 C 0.05767 0.73937 0.3388 0.0
C792 C 0.13272 0.80653 0.33736 0.0
C793 C 0.1596 0.80765 0.33477 0.0
C794 C 0.13067 0.8315 0.33087 0.0
C795 C 0.10372 0.8328 0.33556 0.0
C796 C 0.09112 0.84053 0.31464 0.0
C797 C 0.06566 0.84161 0.31904 0.0
C798 C 0.05267 0.83517 0.34433 0.0
C799 C 0.06518 0.82772 0.3653 0.0
C800 C 0.09064 0.82661 0.36101 0.0
C801 C 0.25219 0.90785 0.28204 0.0
C802 C 0.26062 0.93427 0.29523 0.0
C803 C 0.22551 0.8832 0.28796 0.0
C804 C 0.20748 0.88437 0.30793 0.0
C805 C 0.2151 0.91125 0.31983 0.0
C806 C 0.24136 0.93608 0.31334 0.0
C807 C 0.18201 0.85731 0.31802 0.0
C808 C 0.15519 0.85632 0.3207 0.0
C809 C 0.18441 0.83292 0.32596 0.0
C810 C 0.2127 0.83356 0.32657 0.0
C811 C 0.23604 0.85469 0.3418 0.0
C812 C 0.26272 0.85536 0.34215 0.0
C813 C 0.26624 0.83485 0.32753 0.0
C814 C 0.24305 0.81357 0.3126 0.0
C815 C 0.21634 0.81283 0.31214 0.0
H816 H 0.28691 0.8354 0.32783 0.0
H817 H 0.03295 0.83601 0.3477 0.0
H818 H 0.25714 0.23638 0.62117 0.0
H819 H 0.23827 0.18369 0.62093 0.0
H820 H 0.32504 0.19883 0.60715 0.0
H821 H 0.34396 0.25118 0.6071 0.0
H822 H 0.2838 0.14892 0.58227 0.0
H823 H 0.30097 0.19704 0.67092 0.0
H824 H 0.29067 0.22457 0.70481 0.0
H825 H 0.20014 0.15894 0.70402 0.0
H826 H 0.20995 0.13122 0.66988 0.0
H827 H 0.3464 0.09009 0.65907 0.0
H828 H 0.32701 0.11891 0.63971 0.0
H829 H 0.24015 0.05364 0.66297 0.0
H830 H 0.25944 0.0241 0.68251 0.0
H831 H 0.25695 0.11324 0.67563 0.0
H832 H 0.2512 0.05701 0.60025 0.0
H833 H 0.26809 0.0318 0.56996 0.0
H834 H 0.34123 0.11392 0.54683 0.0
H835 H 0.3252 0.13965 0.57736 0.0
C836 C 0.27207 0.22844 0.61741 0.0
C837 C 0.30216 0.24791 0.61475 0.0
C838 C 0.26121 0.19835 0.6172 0.0
C839 C 0.28032 0.18745 0.61434 0.0
C840 C 0.30991 0.20681 0.60935 0.0
C841 C 0.32076 0.23677 0.60961 0.0
C842 C 0.27123 0.15687 0.6209 0.0
C843 C 0.27735 0.14069 0.60248 0.0
C844 C 0.26193 0.14582 0.64707 0.0
C845 C 0.2561 0.1623 0.66769 0.0
C846 C 0.27886 0.1886 0.67791 0.0
C847 C 0.27312 0.20422 0.69715 0.0
C848 C 0.24475 0.19356 0.7065 0.0
C849 C 0.22209 0.16721 0.6967 0.0
C850 C 0.22771 0.15155 0.67741 0.0
C851 C 0.32317 0.08175 0.66025 0.0
C852 C 0.30446 0.05473 0.67228 0.0
C853 C 0.3121 0.09816 0.64892 0.0
C854 C 0.28212 0.08799 0.6494 0.0
C855 C 0.26332 0.06153 0.66212 0.0
C856 C 0.2744 0.04484 0.67334 0.0
C857 C 0.27143 0.10637 0.6375 0.0
C858 C 0.26161 0.12029 0.65492 0.0
C859 C 0.27769 0.11549 0.6105 0.0
C860 C 0.28693 0.10029 0.59118 0.0
C861 C 0.27092 0.06973 0.58875 0.0
C862 C 0.28037 0.05533 0.57156 0.0
C863 C 0.30576 0.07125 0.55657 0.0
C864 C 0.32158 0.10163 0.5585 0.0
C865 C 0.31227 0.11614 0.57571 0.0
H866 H 0.31325 0.06006 0.54353 0.0
H867 H 0.24034 0.20568 0.72139 0.0
H868 H 0.21909 0.27598 0.03602 0.0
H869 H 0.16978 0.26178 0.02064 0.0
H870 H 0.19808 0.35154 0.00179 0.0
H871 H 0.24694 0.36604 0.01728 0.0
H872 H 0.13066 0.28798 0.03563 0.0
H873 H 0.17829 0.34746 0.93518 0.0
H874 H 0.2192 0.35785 0.90508 0.0
H875 H 0.21863 0.28075 0.93268 0.0
H876 H 0.17737 0.26959 0.96257 0.0
H877 H 0.07409 0.36041 0.94544 0.0
H878 H 0.11109 0.34729 0.95529 0.0
H879 H 0.04418 0.26 0.97595 0.0
H880 H 0.00685 0.27295 0.96625 0.0
H881 H 0.12454 0.30575 0.93881 0.0
H882 H 0.06914 0.24318 0.0343 0.0
H883 H 0.03112 0.23728 0.06634 0.0
H884 H 0.05043 0.32488 0.05035 0.0
H885 H 0.08879 0.33139 0.01854 0.0
C886 C 0.21465 0.29274 0.02905 0.0
C887 C 0.237 0.32211 0.02762 0.0
C888 C 0.18654 0.28457 0.0203 0.0
C889 C 0.18069 0.30562 0.00978 0.0
C890 C 0.20247 0.33502 0.00963 0.0
C891 C 0.23035 0.34324 0.01857 0.0
C892 C 0.15242 0.29743 -0.00248 0.0
C893 C 0.12882 0.29083 0.01433 0.0
C894 C 0.15051 0.30166 0.96981 0.0
C895 C 0.17481 0.30779 0.95126 0.0
C896 C 0.18673 0.33259 0.93468 0.0
C897 C 0.21001 0.33864 0.91768 0.0
C898 C 0.22155 0.32001 0.91701 0.0
C899 C 0.20973 0.29521 0.93327 0.0
C900 C 0.18641 0.28903 0.95027 0.0
C901 C 0.06718 0.33826 0.95162 0.0
C902 C 0.03759 0.31786 0.95548 0.0
C903 C 0.08834 0.33075 0.95706 0.0
C904 C 0.08029 0.3028 0.96662 0.0
C905 C 0.05074 0.28175 0.96879 0.0
C906 C 0.02949 0.28921 0.96322 0.0
C907 C 0.10306 0.29723 0.97704 0.0
C908 C 0.12575 0.30149 0.95989 0.0
C909 C 0.10422 0.29107 0.00448 0.0
C910 C 0.08148 0.28758 0.02378 0.0
C911 C 0.06526 0.26117 0.03767 0.0
C912 C 0.04368 0.25773 0.05579 0.0
C913 C 0.03828 0.28065 0.06029 0.0
C914 C 0.05455 0.3071 0.04677 0.0
C915 C 0.07619 0.31066 0.02868 0.0
H916 H 0.02154 0.27794 0.0743 0.0
H917 H 0.23961 0.32477 0.90388 0.0
H918 H 0.95285 0.23809 0.3247 0.0
H919 H 0.91285 0.19151 0.30872 0.0
H920 H 0.85401 0.19985 0.36281 0.0
H921 H 0.89355 0.24709 0.37774 0.0
H922 H 0.87443 0.13992 0.32558 0.0
H923 H 0.79151 0.18127 0.33394 0.0
H924 H 0.79181 0.228 0.33249 0.0
H925 H 0.87043 0.26621 0.28606 0.0
H926 H 0.87037 0.21962 0.2869 0.0
H927 H 0.72966 0.02499 0.322 0.0
H928 H 0.77886 0.06548 0.3288 0.0
H929 H 0.76923 0.10949 0.25996 0.0
H930 H 0.71903 0.0698 0.25448 0.0
H931 H 0.78765 0.14498 0.29642 0.0
H932 H 0.81988 0.08233 0.26389 0.0
H933 H 0.8224 0.03733 0.259 0.0
H934 H 0.84978 0.04393 0.34087 0.0
H935 H 0.84702 0.08875 0.34638 0.0
C936 C 0.93147 0.22966 0.33351 0.0
C937 C 0.92605 0.24626 0.35211 0.0
C938 C 0.90867 0.20308 0.32438 0.0
C939 C 0.88033 0.19266 0.33403 0.0
C940 C 0.87557 0.20796 0.3545 0.0
C941 C 0.89814 0.23482 0.36313 0.0
C942 C 0.85533 0.16726 0.3213 0.0
C943 C 0.85543 0.1409 0.31909 0.0
C944 C 0.83115 0.16902 0.3117 0.0
C945 C 0.83103 0.197 0.31068 0.0
C946 C 0.80876 0.1996 0.32329 0.0
C947 C 0.80891 0.22607 0.32261 0.0
C948 C 0.83116 0.25007 0.30925 0.0
C949 C 0.85325 0.24763 0.29646 0.0
C950 C 0.85318 0.2212 0.29705 0.0
C951 C 0.73832 0.04306 0.30801 0.0
C952 C 0.72066 0.04451 0.28783 0.0
C953 C 0.76657 0.06613 0.31175 0.0
C954 C 0.77801 0.09055 0.29476 0.0
C955 C 0.76088 0.09101 0.27346 0.0
C956 C 0.73228 0.06836 0.27026 0.0
C957 C 0.80609 0.117 0.30134 0.0
C958 C 0.80667 0.14377 0.30245 0.0
C959 C 0.83126 0.11579 0.30878 0.0
C960 C 0.83308 0.08886 0.30558 0.0
C961 C 0.82626 0.0741 0.28091 0.0
C962 C 0.82776 0.04863 0.27802 0.0
C963 C 0.83621 0.03776 0.29962 0.0
C964 C 0.84324 0.05238 0.32415 0.0
C965 C 0.84176 0.07785 0.32715 0.0
H966 H 0.83735 0.01803 0.29734 0.0
H967 H 0.83126 0.27056 0.30878 0.0
H968 H 0.71866 0.75358 0.61245 0.0
H969 H 0.72954 0.80407 0.61574 0.0
H970 H 0.63833 0.77565 0.60647 0.0
H971 H 0.62722 0.72524 0.60289 0.0
H972 H 0.67342 0.8299 0.58413 0.0
H973 H 0.66459 0.77758 0.66748 0.0
H974 H 0.67863 0.75027 0.69833 0.0
H975 H 0.76607 0.82265 0.70102 0.0
H976 H 0.75259 0.85021 0.66985 0.0
H977 H 0.61961 0.89329 0.67001 0.0
H978 H 0.63417 0.86088 0.64959 0.0
H979 H 0.72454 0.92463 0.66229 0.0
H980 H 0.7102 0.95776 0.68265 0.0
H981 H 0.70545 0.86366 0.67722 0.0
H982 H 0.70588 0.92036 0.60327 0.0
H983 H 0.68688 0.94538 0.57513 0.0
H984 H 0.61138 0.86324 0.55625 0.0
H985 H 0.6296 0.83772 0.58474 0.0
C986 C 0.70098 0.75812 0.61039 0.0
C987 C 0.67195 0.73536 0.60809 0.0
C988 C 0.7073 0.787 0.6122 0.0
C989 C 0.68467 0.79341 0.61183 0.0
C990 C 0.65608 0.77107 0.60686 0.0
C991 C 0.64974 0.74223 0.60503 0.0
C992 C 0.68961 0.82203 0.62089 0.0
C993 C 0.68073 0.83755 0.60434 0.0
C994 C 0.69967 0.83217 0.64715 0.0
C995 C 0.70771 0.81578 0.66609 0.0
C996 C 0.68686 0.78757 0.67453 0.0
C997 C 0.6947 0.77206 0.69207 0.0
C998 C 0.72325 0.78468 0.70156 0.0
C999 C 0.74399 0.81287 0.69359 0.0
C1000 C 0.73627 0.82845 0.67598 0.0
C1001 C 0.6426 0.90045 0.66875 0.0
C1002 C 0.66377 0.92817 0.67785 0.0
C1003 C 0.65086 0.88197 0.65688 0.0
C1004 C 0.68037 0.89072 0.65405 0.0
C1005 C 0.70165 0.91778 0.66411 0.0
C1006 C 0.69341 0.93655 0.67576 0.0
C1007 C 0.68834 0.87093 0.64076 0.0
C1008 C 0.69944 0.85691 0.65659 0.0
C1009 C 0.67994 0.86199 0.61398 0.0
C1010 C 0.6691 0.87712 0.59629 0.0
C1011 C 0.68514 0.90762 0.59326 0.0
C1012 C 0.6745 0.9219 0.57724 0.0
C1013 C 0.64791 0.90591 0.56396 0.0
C1014 C 0.63197 0.87559 0.56657 0.0
C1015 C 0.64247 0.8612 0.58264 0.0
H1016 H 0.63965 0.91703 0.55168 0.0
H1017 H 0.72928 0.77263 0.71514 0.0
H1018 H 0.75941 0.72884 0.00372 0.0
H1019 H 0.80844 0.74668 0.98576 0.0
H1020 H 0.80275 0.66482 0.00635 0.0
H1021 H 0.75365 0.64659 0.0235 0.0
H1022 H 0.86047 0.75523 0.00252 0.0
H1023 H 0.82401 0.64014 0.95686 0.0
H1024 H 0.77948 0.59921 0.93762 0.0
H1025 H 0.74746 0.65718 0.91842 0.0
H1026 H 0.79198 0.69856 0.93715 0.0
H1027 H 0.96775 0.71825 -0.00272 0.0
H1028 H 0.9306 0.73223 0.0006 0.0
H1029 H 0.91195 0.71468 0.91618 0.0
H1030 H 0.94742 0.69804 0.9137 0.0
H1031 H 0.86617 0.68681 0.93842 0.0
H1032 H 0.93414 0.78527 0.94787 0.0
H1033 H 0.97827 0.83008 0.96226 0.0
H1034 H 0.94849 0.81372 0.0437 0.0
H1035 H 0.90438 0.76857 0.02993 0.0
C1036 C 0.76885 0.71485 0.00479 0.0
C1037 C 0.7526 0.68615 0.0146 0.0
C1038 C 0.79681 0.72509 0.99453 0.0
C1039 C 0.80882 0.70678 0.99414 0.0
C1040 C 0.79349 0.67899 0.00586 0.0
C1041 C 0.7655 0.66863 0.01572 0.0
C1042 C 0.83647 0.71547 0.98011 0.0
C1043 C 0.86196 0.74057 0.98831 0.0
C1044 C 0.83797 0.69726 0.9603 0.0
C1045 C 0.81134 0.67246 0.94851 0.0
C1046 C 0.80759 0.64422 0.94834 0.0
C1047 C 0.78231 0.62092 0.93757 0.0
C1048 C 0.76064 0.62559 0.92684 0.0
C1049 C 0.76423 0.65358 0.92679 0.0
C1050 C 0.78948 0.67696 0.9375 0.0
C1051 C 0.95623 0.71823 0.97933 0.0
C1052 C 0.95997 0.70689 0.95533 0.0
C1053 C 0.93518 0.72657 0.9811 0.0
C1054 C 0.91832 0.72467 0.95861 0.0
C1055 C 0.92438 0.71609 0.9339 0.0
C1056 C 0.94463 0.70667 0.93242 0.0
C1057 C 0.89102 0.72562 0.96227 0.0
C1058 C 0.86522 0.70226 0.95201 0.0
C1059 C 0.88938 0.74621 0.97924 0.0
C1060 C 0.91588 0.77342 0.98781 0.0
C1061 C 0.93705 0.79111 0.96888 0.0
C1062 C 0.96207 0.8166 0.97693 0.0
C1063 C 0.96618 0.82474 0.00387 0.0
C1064 C 0.94525 0.80741 0.02282 0.0
C1065 C 0.92018 0.78189 0.01489 0.0
H1066 H 0.98558 0.84448 0.01007 0.0
H1067 H 0.74108 0.60751 0.91855 0.0
H1068 H 0.30168 0.01336 0.39077 0.0
H1069 H 0.29404 0.00118 0.43845 0.0
H1070 H 0.37347 -0.0026 0.44068 0.0
H1071 H 0.38027 0.00805 0.39283 0.0
H1072 H 0.33452 0.95282 0.4647 0.0
H1073 H 0.36498 0.05521 0.47056 0.0
H1074 H 0.36367 0.10025 0.46095 0.0
H1075 H 0.27567 0.06001 0.48961 0.0
H1076 H 0.27639 0.01464 0.49917 0.0
H1077 H 0.3676 0.97309 0.60411 0.0
H1078 H 0.3646 0.97472 0.55535 0.0
H1079 H 0.27529 0.95431 0.56145 0.0
H1080 H 0.27795 0.95215 0.61031 0.0
H1081 H 0.31261 0.00673 0.53328 0.0
H1082 H 0.28655 0.90628 0.53299 0.0
H1083 H 0.29133 0.86368 0.54496 0.0
H1084 H 0.37522 0.90306 0.50722 0.0
H1085 H 0.37115 0.94611 0.49534 0.0
C1086 C 0.31772 0.01039 0.40159 0.0
C1087 C 0.34157 0.01165 0.38814 0.0
C1088 C 0.31338 0.00347 0.42887 0.0
C1089 C 0.33326 -0.0015 0.44333 0.0
C1090 C 0.35767 0.00089 0.43001 0.0
C1091 C 0.36165 0.00714 0.40268 0.0
C1092 C 0.32813 0.98941 0.47195 0.0
C1093 C 0.33007 0.96488 0.4797 0.0
C1094 C 0.32131 0.00441 0.49151 0.0
C1095 C 0.32064 0.03145 0.48529 0.0
C1096 C 0.34527 0.05589 0.47458 0.0
C1097 C 0.34465 0.08149 0.4692 0.0
C1098 C 0.31957 0.08296 0.47458 0.0
C1099 C 0.29504 0.05881 0.48534 0.0
C1100 C 0.29555 0.03316 0.49076 0.0
C1101 C 0.34705 0.96805 0.59503 0.0
C1102 C 0.32303 0.9625 0.61101 0.0
C1103 C 0.34538 0.96903 0.56718 0.0
C1104 C 0.31976 0.96477 0.55487 0.0
C1105 C 0.29523 0.95765 0.57064 0.0
C1106 C 0.29673 0.95617 0.59852 0.0
C1107 C 0.3198 0.97076 0.52591 0.0
C1108 C 0.31682 0.99461 0.51814 0.0
C1109 C 0.32613 0.95545 0.50642 0.0
C1110 C 0.32862 0.92954 0.51345 0.0
C1111 C 0.30613 0.90598 0.52743 0.0
C1112 C 0.30869 0.88172 0.53416 0.0
C1113 C 0.33358 0.88069 0.5269 0.0
C1114 C 0.35595 0.9039 0.51284 0.0
C1115 C 0.35351 0.92822 0.50607 0.0
H1116 H 0.33552 0.86189 0.53213 0.0
H1117 H 0.31916 0.10282 0.47047 0.0
H1118 H 0.29336 0.27956 0.95002 0.0
H1119 H 0.28651 0.2762 0.90139 0.0
H1120 H 0.36262 0.3614 0.89243 0.0
H1121 H 0.36877 0.3653 0.94094 0.0
H1122 H 0.32064 0.35986 0.86549 0.0
H1123 H 0.35957 0.29518 0.87361 0.0
H1124 H 0.36196 0.25269 0.89064 0.0
H1125 H 0.27637 0.19516 0.85976 0.0
H1126 H 0.27332 0.23737 0.84284 0.0
H1127 H 0.3607 0.36316 0.73022 0.0
H1128 H 0.35716 0.3576 0.77882 0.0
H1129 H 0.26671 0.29163 0.77179 0.0
H1130 H 0.26989 0.29759 0.72275 0.0
H1131 H 0.30772 0.27904 0.80634 0.0
H1132 H 0.27242 0.34609 0.79462 0.0
H1133 H 0.27345 0.38985 0.77628 0.0
H1134 H 0.35653 0.44434 0.81326 0.0
H1135 H 0.3562 0.40086 0.83149 0.0
C1136 C 0.30899 0.29726 0.93759 0.0
C1137 C 0.33161 0.32271 0.94924 0.0
C1138 C 0.30504 0.29534 0.90978 0.0
C1139 C 0.32404 0.31856 0.89315 0.0
C1140 C 0.3475 0.34331 0.90479 0.0
C1141 C 0.35113 0.34544 0.93252 0.0
C1142 C 0.31868 0.3182 0.86386 0.0
C1143 C 0.31806 0.34223 0.85262 0.0
C1144 C 0.3143 0.29481 0.84703 0.0
C1145 C 0.31608 0.26945 0.85725 0.0
C1146 C 0.34115 0.27349 0.87066 0.0
C1147 C 0.34265 0.24945 0.88025 0.0
C1148 C 0.3193 0.22125 0.87636 0.0
C1149 C 0.29442 0.21702 0.86281 0.0
C1150 C 0.2928 0.24099 0.8532 0.0
C1151 C 0.33997 0.34757 0.73897 0.0
C1152 C 0.31554 0.33083 0.72272 0.0
C1153 C 0.33801 0.34444 0.76672 0.0
C1154 C 0.31172 0.32419 0.77879 0.0
C1155 C 0.28718 0.30734 0.76273 0.0
C1156 C 0.28898 0.31091 0.73484 0.0
C1157 C 0.3105 0.32095 0.80825 0.0
C1158 C 0.30989 0.29635 0.81945 0.0
C1159 C 0.31416 0.34395 0.82506 0.0
C1160 C 0.31438 0.37018 0.81423 0.0
C1161 C 0.29103 0.36738 0.79864 0.0
C1162 C 0.29147 0.39215 0.78831 0.0
C1163 C 0.31507 0.41986 0.79355 0.0
C1164 C 0.33827 0.42286 0.8092 0.0
C1165 C 0.33795 0.39816 0.81956 0.0
H1166 H 0.31536 0.439 0.78554 0.0
H1167 H 0.3205 0.20268 0.88379 0.0
H1168 H 0.0155 0.30878 0.2654 0.0
H1169 H 0.00793 0.30615 0.21696 0.0
H1170 H -0.00288 0.38167 0.22047 0.0
H1171 H 0.00311 0.38332 0.26903 0.0
H1172 H 0.95602 0.34356 0.19283 0.0
H1173 H 0.05888 0.38095 0.19159 0.0
H1174 H 0.10527 0.38309 0.20238 0.0
H1175 H 0.07469 0.29951 0.16554 0.0
H1176 H 0.02793 0.29668 0.15486 0.0
H1177 H 0.97108 0.37576 0.05244 0.0
H1178 H 0.97922 0.37653 0.10077 0.0
H1179 H 0.96111 0.28763 0.09753 0.0
H1180 H 0.95227 0.28644 0.0492 0.0
H1181 H 0.01584 0.33034 0.12413 0.0
H1182 H 0.91274 0.29557 0.12478 0.0
H1183 H 0.86841 0.297 0.11261 0.0
H1184 H 0.90316 0.38114 0.14948 0.0
H1185 H 0.9479 0.38039 0.16153 0.0
C1186 C 0.0121 0.32516 0.25572 0.0
C1187 C 0.00987 0.34625 0.27094 0.0
C1188 C 0.00782 0.32369 0.22798 0.0
C1189 C 0.00206 0.34381 0.21488 0.0
C1190 C 0.00129 0.36575 0.23003 0.0
C1191 C 0.00489 0.3668 0.25778 0.0
C1192 C -0.00524 0.34086 0.18583 0.0
C1193 C 0.96945 0.34113 0.17786 0.0
C1194 C 0.01172 0.3369 0.16617 0.0
C1195 C 0.03976 0.33846 0.1727 0.0
C1196 C 0.06194 0.36291 0.18601 0.0
C1197 C 0.08832 0.36426 0.19206 0.0
C1198 C 0.09289 0.34141 0.18473 0.0
C1199 C 0.0711 0.31717 0.17126 0.0
C1200 C 0.04466 0.31569 0.16519 0.0
C1201 C 0.9684 0.35623 0.06209 0.0
C1202 C 0.96089 0.33099 0.0471 0.0
C1203 C 0.97309 0.35673 0.08965 0.0
C1204 C 0.97081 0.33216 0.10261 0.0
C1205 C 0.96295 0.30678 0.08781 0.0
C1206 C 0.95768 0.30607 0.0603 0.0
C1207 C 0.97755 0.33345 0.13149 0.0
C1208 C 0.00261 0.33279 0.13931 0.0
C1209 C 0.96072 0.33761 0.15098 0.0
C1210 C 0.93379 0.33804 0.14383 0.0
C1211 C 0.91104 0.3145 0.13007 0.0
C1212 C 0.88582 0.31516 0.12324 0.0
C1213 C 0.883 0.33918 0.1302 0.0
C1214 C 0.90538 0.36256 0.14407 0.0
C1215 C 0.93067 0.36201 0.15093 0.0
H1216 H 0.86345 0.33964 0.1249 0.0
H1217 H 0.11334 0.34251 0.18942 0.0
H1218 H 0.65317 0.95256 0.39284 0.0
H1219 H 0.65718 0.96114 0.44124 0.0
H1220 H 0.61701 0.01424 0.43286 0.0
H1221 H 0.61335 0.00624 0.38469 0.0
H1222 H 0.66304 0.04035 0.46475 0.0
H1223 H 0.57898 0.94339 0.45693 0.0
H1224 H 0.55264 0.89161 0.44355 0.0
H1225 H 0.61214 0.87618 0.48946 0.0
H1226 H 0.63914 0.92801 0.50266 0.0
H1227 H 0.59742 0.99081 0.60749 0.0
H1228 H 0.59689 0.98688 0.55887 0.0
H1229 H 0.69069 0.03679 0.55749 0.0
H1230 H 0.69149 0.04099 0.60634 0.0
H1231 H 0.61978 0.95947 0.53067 0.0
H1232 H 0.71074 0.07225 0.49586 0.0
H1233 H 0.73427 0.12379 0.50984 0.0
H1234 H 0.65576 0.1074 0.54958 0.0
H1235 H 0.63167 0.05588 0.53555 0.0
C1236 C 0.64506 0.96593 0.40133 0.0
C1237 C 0.63294 0.97869 0.38484 0.0
C1238 C 0.64735 0.97081 0.429 0.0
C1239 C 0.63731 0.98827 0.4407 0.0
C1240 C 0.62506 0.00084 0.42429 0.0
C1241 C 0.62288 -0.00389 0.39671 0.0
C1242 C 0.63949 0.99367 0.47001 0.0
C1243 C 0.65366 0.02265 0.47917 0.0
C1244 C 0.62721 0.97063 0.48885 0.0
C1245 C 0.61119 0.93959 0.48062 0.0
C1246 C 0.58658 0.929 0.46397 0.0
C1247 C 0.57152 0.89964 0.45643 0.0
C1248 C 0.58075 0.88063 0.4656 0.0
C1249 C 0.60504 0.89093 0.48233 0.0
C1250 C 0.62021 0.92028 0.48986 0.0
C1251 C 0.61798 0.00143 0.59689 0.0
C1252 C 0.64452 0.0161 0.61089 0.0
C1253 C 0.61761 -0.001 0.56908 0.0
C1254 C 0.64373 0.01132 0.55459 0.0
C1255 C 0.67026 0.02721 0.56828 0.0
C1256 C 0.67067 0.02967 0.59621 0.0
C1257 C 0.64298 0.00611 0.52536 0.0
C1258 C 0.6293 0.97717 0.51625 0.0
C1259 C 0.65542 0.02917 0.50658 0.0
C1260 C 0.66954 0.06015 0.51491 0.0
C1261 C 0.69849 0.07968 0.50752 0.0
C1262 C 0.71192 0.10888 0.51546 0.0
C1263 C 0.69655 0.11884 0.53067 0.0
C1264 C 0.66768 0.09964 0.5379 0.0
C1265 C 0.65415 0.07042 0.53 0.0
H1266 H 0.70699 0.14145 0.53681 0.0
H1267 H 0.56903 0.85791 0.45977 0.0
H1268 H 0.68112 0.7166 0.94206 0.0
H1269 H 0.6855 0.71979 0.8932 0.0
H1270 H 0.61644 0.63024 0.88681 0.0
H1271 H 0.61282 0.6267 0.9355 0.0
H1272 H 0.66046 0.63685 0.85973 0.0
H1273 H 0.60977 0.69055 0.86605 0.0
H1274 H 0.60081 0.72947 0.88182 0.0
H1275 H 0.68287 0.79436 0.84929 0.0
H1276 H 0.69251 0.75581 0.83363 0.0
H1277 H 0.6241 0.62508 0.72252 0.0
H1278 H 0.62379 0.63173 0.77087 0.0
H1279 H 0.70989 0.70701 0.76661 0.0
H1280 H 0.71065 0.70014 0.71793 0.0
H1281 H 0.6629 0.71183 0.79844 0.0
H1282 H 0.71118 0.65564 0.79044 0.0
H1283 H 0.71708 0.61518 0.77352 0.0
H1284 H 0.63537 0.55316 0.80877 0.0
H1285 H 0.62877 0.59328 0.82557 0.0
C1286 C 0.66636 0.69788 0.93016 0.0
C1287 C 0.64671 0.67136 0.94255 0.0
C1288 C 0.6689 0.6997 0.90221 0.0
C1289 C 0.65139 0.6752 0.88623 0.0
C1290 C 0.63042 0.64934 0.89865 0.0
C1291 C 0.62823 0.64738 0.92649 0.0
C1292 C 0.65647 0.67537 0.85692 0.0
C1293 C 0.66065 0.65313 0.84639 0.0
C1294 C 0.65771 0.69709 0.83947 0.0
C1295 C 0.65201 0.7203 0.84895 0.0
C1296 C 0.62603 0.71312 0.86248 0.0
C1297 C 0.6208 0.73512 0.87135 0.0
C1298 C 0.6413 0.76437 0.86664 0.0
C1299 C 0.66704 0.77169 0.85297 0.0
C1300 C 0.67239 0.74978 0.84408 0.0
C1301 C 0.64303 0.64304 0.73183 0.0
C1302 C 0.66746 0.66202 0.71648 0.0
C1303 C 0.64279 0.6468 0.75943 0.0
C1304 C 0.66678 0.66986 0.7722 0.0
C1305 C 0.69116 0.68912 0.757 0.0
C1306 C 0.69165 0.68504 0.72932 0.0
C1307 C 0.66618 0.67304 0.80158 0.0
C1308 C 0.66291 0.69582 0.81202 0.0
C1309 C 0.6654 0.65165 0.81901 0.0
C1310 C 0.66937 0.62747 0.80905 0.0
C1311 C 0.69434 0.63337 0.79438 0.0
C1312 C 0.69784 0.6105 0.78485 0.0
C1313 C 0.67658 0.58161 0.79001 0.0
C1314 C 0.65181 0.57555 0.80477 0.0
C1315 C 0.64819 0.59835 0.81432 0.0
H1316 H 0.67933 0.56393 0.78263 0.0
H1317 H 0.63721 0.78137 0.87351 0.0
H1318 H 4e-05 0.61018 0.27618 0.0
H1319 H 0.00399 0.61375 0.22764 0.0
H1320 H 0.94827 0.65139 0.22578 0.0
H1321 H 0.94471 0.64855 0.27468 0.0
H1322 H 0.96835 0.59246 0.18701 0.0
H1323 H 0.97226 0.70319 0.17644 0.0
H1324 H 0.98579 0.74724 0.20333 0.0
H1325 H 0.04489 0.73156 0.24959 0.0
H1326 H 0.03203 0.68769 0.22273 0.0
H1327 H 0.96216 0.62065 0.04952 0.0
H1328 H 0.95366 0.61422 0.09764 0.0
H1329 H 0.04095 0.68473 0.11223 0.0
H1330 H 0.04933 0.69194 0.06397 0.0
H1331 H 0.00532 0.68953 0.14476 0.0
H1332 H 0.02167 0.61172 0.11964 0.0
H1333 H 0.01419 0.56887 0.09378 0.0
H1334 H 0.92548 0.52087 0.12054 0.0
H1335 H 0.93232 0.56359 0.1463 0.0
C1336 C 0.98836 0.61901 0.26553 0.0
C1337 C 0.97227 0.62936 0.27942 0.0
C1338 C 0.99059 0.62093 0.23769 0.0
C1339 C 0.9768 0.63322 0.22308 0.0
C1340 C 0.95953 0.64229 0.23671 0.0
C1341 C 0.95738 0.6405 0.26465 0.0
C1342 C 0.98168 0.6376 0.19376 0.0
C1343 C 0.97627 0.61365 0.17775 0.0
C1344 C -0.0073 0.66539 0.18175 0.0
C1345 C 0.00091 0.69198 0.19777 0.0
C1346 C 0.98821 0.70921 0.19229 0.0
C1347 C -0.00424 0.73414 0.20753 0.0
C1348 C 0.01611 0.74213 0.22822 0.0
C1349 C 0.02905 0.72529 0.23363 0.0
C1350 C 0.02162 0.70037 0.21842 0.0
C1351 C 0.97963 0.63475 0.06293 0.0
C1352 C 0.00651 0.65673 0.05288 0.0
C1353 C 0.97474 0.63098 0.09048 0.0
C1354 C -0.00322 0.64872 0.10861 0.0
C1355 C 0.0236 0.67078 0.09864 0.0
C1356 C 0.02841 0.6748 0.07105 0.0
C1357 C -0.00818 0.64433 0.13794 0.0
C1358 C -0.00281 0.66828 0.15396 0.0
C1359 C 0.9816 0.61671 0.15009 0.0
C1360 C 0.97743 0.59095 0.13469 0.0
C1361 C 0.0005 0.5921 0.11985 0.0
C1362 C -0.00361 0.56782 0.10524 0.0
C1363 C 0.96935 0.54219 0.10546 0.0
C1364 C 0.94639 0.54076 0.12036 0.0
C1365 C 0.95038 0.56498 0.13499 0.0
H1366 H 0.96621 0.52342 0.09413 0.0
H1367 H 0.02189 0.76142 0.24001 0.0
loop_
_geom_bond_atom_site_label_1
_geom_bond_atom_site_label_2
_geom_bond_distance
_geom_bond_site_symmetry_2
_ccdc_geom_bond_type
C0 O1 1.306 . S
C0 O3 1.160 . S
O1 C0 1.306 . S
O1 Cd2 2.228 . S
Cd2 O1 2.228 . S
Cd2 O6 2.273 . S
Cd2 O10 2.277 . S
O3 C0 1.160 . S
O3 Cd4 2.203 1_565 S
Cd4 O3 2.203 1_545 S
Cd4 O6 2.411 1_545 S
Cd4 O7 2.333 . S
Cd4 O8 2.352 . S
Cd4 O12 2.277 . S
Cd4 O13 2.356 . S
C5 O10 1.209 1_545 S
C5 O12 1.226 . S
O6 Cd2 2.273 . S
O6 Cd4 2.411 1_565 S
O6 C9 1.320 1_565 S
O7 Cd4 2.333 . S
O7 C9 1.214 . S
O8 Cd4 2.352 . S
O8 C11 1.258 . S
C9 O6 1.320 1_545 S
C9 O7 1.214 . S
O10 Cd2 2.277 . S
O10 C5 1.209 1_565 S
C11 O8 1.258 . S
C11 O13 1.282 . S
O12 Cd4 2.277 . S
O12 C5 1.226 . S
O13 Cd4 2.356 . S
O13 C11 1.282 . S
C14 O15 1.306 . S
C14 O17 1.160 . S
O15 C14 1.306 . S
O15 Cd16 2.228 . S
Cd16 O15 2.228 . S
Cd16 O20 2.273 . S
Cd16 O24 2.277 . S
O17 C14 1.160 . S
O17 Cd18 2.203 . S
Cd18 O17 2.203 . S
Cd18 O20 2.411 . S
Cd18 O21 2.333 . S
Cd18 O22 2.352 . S
Cd18 O26 2.277 . S
Cd18 O27 2.356 . S
C19 O24 1.209 . S
C19 O26 1.226 . S
O20 Cd16 2.273 . S
O20 Cd18 2.411 . S
O20 C23 1.320 . S
O21 Cd18 2.333 . S
O21 C23 1.214 . S
O22 Cd18 2.352 . S
O22 C25 1.258 . S
C23 O20 1.320 . S
C23 O21 1.214 . S
O24 Cd16 2.277 . S
O24 C19 1.209 . S
C25 O22 1.258 . S
C25 O27 1.282 . S
O26 Cd18 2.277 . S
O26 C19 1.226 . S
O27 Cd18 2.356 . S
O27 C25 1.282 . S
C28 O29 1.306 . S
C28 O31 1.160 . S
O29 C28 1.306 . S
O29 Cd30 2.228 1_556 S
Cd30 O29 2.228 1_554 S
Cd30 O34 2.273 1_554 S
Cd30 O38 2.277 . S
O31 C28 1.160 . S
O31 Cd32 2.203 1_455 S
Cd32 O31 2.203 1_655 S
Cd32 O34 2.411 1_655 S
Cd32 O35 2.333 . S
Cd32 O36 2.352 . S
Cd32 O40 2.277 1_556 S
Cd32 O41 2.356 . S
C33 O38 1.209 1_655 S
C33 O40 1.226 . S
O34 Cd30 2.273 1_556 S
O34 Cd32 2.411 1_455 S
O34 C37 1.320 1_455 S
O35 Cd32 2.333 . S
O35 C37 1.214 . S
O36 Cd32 2.352 . S
O36 C39 1.258 . S
C37 O34 1.320 1_655 S
C37 O35 1.214 . S
O38 Cd30 2.277 . S
O38 C33 1.209 1_455 S
C39 O36 1.258 . S
C39 O41 1.282 . S
O40 Cd32 2.277 1_554 S
O40 C33 1.226 . S
O41 Cd32 2.356 . S
O41 C39 1.282 . S
C42 O43 1.306 . S
C42 O45 1.160 . S
O43 C42 1.306 . S
O43 Cd44 2.228 . S
Cd44 O43 2.228 . S
Cd44 O48 2.273 . S
Cd44 O52 2.277 . S
O45 C42 1.160 . S
O45 Cd46 2.203 1_545 S
Cd46 O45 2.203 1_565 S
Cd46 O48 2.411 1_565 S
Cd46 O49 2.333 . S
Cd46 O50 2.352 . S
Cd46 O54 2.277 . S
Cd46 O55 2.356 . S
C47 O52 1.209 1_565 S
C47 O54 1.226 . S
O48 Cd44 2.273 . S
O48 Cd46 2.411 1_545 S
O48 C51 1.320 1_545 S
O49 Cd46 2.333 . S
O49 C51 1.214 . S
O50 Cd46 2.352 . S
O50 C53 1.258 . S
C51 O48 1.320 1_565 S
C51 O49 1.214 . S
O52 Cd44 2.277 . S
O52 C47 1.209 1_545 S
C53 O50 1.258 . S
C53 O55 1.282 . S
O54 Cd46 2.277 . S
O54 C47 1.226 . S
O55 Cd46 2.356 . S
O55 C53 1.282 . S
C56 O57 1.306 . S
C56 O59 1.160 . S
O57 C56 1.306 . S
O57 Cd58 2.228 . S
Cd58 O57 2.228 . S
Cd58 O62 2.273 . S
Cd58 O66 2.277 . S
O59 C56 1.160 . S
O59 Cd60 2.203 . S
Cd60 O59 2.203 . S
Cd60 O62 2.411 . S
Cd60 O63 2.333 . S
Cd60 O64 2.352 . S
Cd60 O68 2.277 . S
Cd60 O69 2.356 . S
C61 O66 1.209 . S
C61 O68 1.226 . S
O62 Cd58 2.273 . S
O62 Cd60 2.411 . S
O62 C65 1.320 . S
O63 Cd60 2.333 . S
O63 C65 1.214 . S
O64 Cd60 2.352 . S
O64 C67 1.258 . S
C65 O62 1.320 . S
C65 O63 1.214 . S
O66 Cd58 2.277 . S
O66 C61 1.209 . S
C67 O64 1.258 . S
C67 O69 1.282 . S
O68 Cd60 2.277 . S
O68 C61 1.226 . S
O69 Cd60 2.356 . S
O69 C67 1.282 . S
C70 O71 1.306 . S
C70 O73 1.160 . S
O71 C70 1.306 . S
O71 Cd72 2.228 1_556 S
Cd72 O71 2.228 1_554 S
Cd72 O76 2.273 1_554 S
Cd72 O80 2.277 . S
O73 C70 1.160 . S
O73 Cd74 2.203 1_655 S
Cd74 O73 2.203 1_455 S
Cd74 O76 2.411 1_455 S
Cd74 O77 2.333 . S
Cd74 O78 2.352 . S
Cd74 O82 2.277 1_556 S
Cd74 O83 2.356 . S
C75 O80 1.209 1_455 S
C75 O82 1.226 . S
O76 Cd72 2.273 1_556 S
O76 Cd74 2.411 1_655 S
O76 C79 1.320 1_655 S
O77 Cd74 2.333 . S
O77 C79 1.214 . S
O78 Cd74 2.352 . S
O78 C81 1.258 . S
C79 O76 1.320 1_455 S
C79 O77 1.214 . S
O80 Cd72 2.277 . S
O80 C75 1.209 1_655 S
C81 O78 1.258 . S
C81 O83 1.282 . S
O82 Cd74 2.277 1_554 S
O82 C75 1.226 . S
O83 Cd74 2.356 . S
O83 C81 1.282 . S
C84 O85 1.306 . S
C84 O87 1.160 . S
O85 C84 1.306 . S
O85 Cd86 2.228 . S
Cd86 O85 2.228 . S
Cd86 O90 2.273 . S
Cd86 O94 2.277 . S
O87 C84 1.160 . S
O87 Cd88 2.203 1_455 S
Cd88 O87 2.203 1_655 S
Cd88 O90 2.411 1_655 S
Cd88 O91 2.333 . S
Cd88 O92 2.352 . S
Cd88 O96 2.277 . S
Cd88 O97 2.356 . S
C89 O94 1.209 1_655 S
C89 O96 1.226 . S
O90 Cd86 2.273 . S
O90 Cd88 2.411 1_455 S
O90 C93 1.320 1_455 S
O91 Cd88 2.333 . S
O91 C93 1.214 . S
O92 Cd88 2.352 . S
O92 C95 1.258 . S
C93 O90 1.320 1_655 S
C93 O91 1.214 . S
O94 Cd86 2.277 . S
O94 C89 1.209 1_455 S
C95 O92 1.258 . S
C95 O97 1.282 . S
O96 Cd88 2.277 . S
O96 C89 1.226 . S
O97 Cd88 2.356 . S
O97 C95 1.282 . S
C98 O99 1.306 . S
C98 O101 1.160 . S
O99 C98 1.306 . S
O99 Cd100 2.228 . S
Cd100 O99 2.228 . S
Cd100 O104 2.273 . S
Cd100 O108 2.277 . S
O101 C98 1.160 . S
O101 Cd102 2.203 1_545 S
Cd102 O101 2.203 1_565 S
Cd102 O104 2.411 1_565 S
Cd102 O105 2.333 . S
Cd102 O106 2.352 . S
Cd102 O110 2.277 . S
Cd102 O111 2.356 . S
C103 O108 1.209 1_565 S
C103 O110 1.226 . S
O104 Cd100 2.273 . S
O104 Cd102 2.411 1_545 S
O104 C107 1.320 1_545 S
O105 Cd102 2.333 . S
O105 C107 1.214 . S
O106 Cd102 2.352 . S
O106 C109 1.258 . S
C107 O104 1.320 1_565 S
C107 O105 1.214 . S
O108 Cd100 2.277 . S
O108 C103 1.209 1_545 S
C109 O106 1.258 . S
C109 O111 1.282 . S
O110 Cd102 2.277 . S
O110 C103 1.226 . S
O111 Cd102 2.356 . S
O111 C109 1.282 . S
C112 O113 1.306 . S
C112 O115 1.160 . S
O113 C112 1.306 . S
O113 Cd114 2.228 1_554 S
Cd114 O113 2.228 1_556 S
Cd114 O118 2.273 1_556 S
Cd114 O122 2.277 . S
O115 C112 1.160 . S
O115 Cd116 2.203 . S
Cd116 O115 2.203 . S
Cd116 O118 2.411 . S
Cd116 O119 2.333 . S
Cd116 O120 2.352 . S
Cd116 O124 2.277 1_554 S
Cd116 O125 2.356 . S
C117 O122 1.209 . S
C117 O124 1.226 . S
O118 Cd114 2.273 1_554 S
O118 Cd116 2.411 . S
O118 C121 1.320 . S
O119 Cd116 2.333 . S
O119 C121 1.214 . S
O120 Cd116 2.352 . S
O120 C123 1.258 . S
C121 O118 1.320 . S
C121 O119 1.214 . S
O122 Cd114 2.277 . S
O122 C117 1.209 . S
C123 O120 1.258 . S
C123 O125 1.282 . S
O124 Cd116 2.277 1_556 S
O124 C117 1.226 . S
O125 Cd116 2.356 . S
O125 C123 1.282 . S
C126 O127 1.306 . S
C126 O129 1.160 . S
O127 C126 1.306 . S
O127 Cd128 2.228 . S
Cd128 O127 2.228 . S
Cd128 O132 2.273 . S
Cd128 O136 2.277 . S
O129 C126 1.160 . S
O129 Cd130 2.203 1_655 S
Cd130 O129 2.203 1_455 S
Cd130 O132 2.411 1_455 S
Cd130 O133 2.333 . S
Cd130 O134 2.352 . S
Cd130 O138 2.277 . S
Cd130 O139 2.356 . S
C131 O136 1.209 1_455 S
C131 O138 1.226 . S
O132 Cd128 2.273 . S
O132 Cd130 2.411 1_655 S
O132 C135 1.320 1_655 S
O133 Cd130 2.333 . S
O133 C135 1.214 . S
O134 Cd130 2.352 . S
O134 C137 1.258 . S
C135 O132 1.320 1_455 S
C135 O133 1.214 . S
O136 Cd128 2.277 . S
O136 C131 1.209 1_655 S
C137 O134 1.258 . S
C137 O139 1.282 . S
O138 Cd130 2.277 . S
O138 C131 1.226 . S
O139 Cd130 2.356 . S
O139 C137 1.282 . S
C140 O141 1.306 . S
C140 O143 1.160 . S
O141 C140 1.306 . S
O141 Cd142 2.228 . S
Cd142 O141 2.228 . S
Cd142 O146 2.273 . S
Cd142 O150 2.277 . S
O143 C140 1.160 . S
O143 Cd144 2.203 1_565 S
Cd144 O143 2.203 1_545 S
Cd144 O146 2.411 1_545 S
Cd144 O147 2.333 . S
Cd144 O148 2.352 . S
Cd144 O152 2.277 . S
Cd144 O153 2.356 . S
C145 O150 1.209 1_545 S
C145 O152 1.226 . S
O146 Cd142 2.273 . S
O146 Cd144 2.411 1_565 S
O146 C149 1.320 1_565 S
O147 Cd144 2.333 . S
O147 C149 1.214 . S
O148 Cd144 2.352 . S
O148 C151 1.258 . S
C149 O146 1.320 1_545 S
C149 O147 1.214 . S
O150 Cd142 2.277 . S
O150 C145 1.209 1_565 S
C151 O148 1.258 . S
C151 O153 1.282 . S
O152 Cd144 2.277 . S
O152 C145 1.226 . S
O153 Cd144 2.356 . S
O153 C151 1.282 . S
C154 O155 1.306 . S
C154 O157 1.160 . S
O155 C154 1.306 . S
O155 Cd156 2.228 1_554 S
Cd156 O155 2.228 1_556 S
Cd156 O160 2.273 1_556 S
Cd156 O164 2.277 . S
O157 C154 1.160 . S
O157 Cd158 2.203 . S
Cd158 O157 2.203 . S
Cd158 O160 2.411 . S
Cd158 O161 2.333 . S
Cd158 O162 2.352 . S
Cd158 O166 2.277 1_554 S
Cd158 O167 2.356 . S
C159 O164 1.209 . S
C159 O166 1.226 . S
O160 Cd156 2.273 1_554 S
O160 Cd158 2.411 . S
O160 C163 1.320 . S
O161 Cd158 2.333 . S
O161 C163 1.214 . S
O162 Cd158 2.352 . S
O162 C165 1.258 . S
C163 O160 1.320 . S
C163 O161 1.214 . S
O164 Cd156 2.277 . S
O164 C159 1.209 . S
C165 O162 1.258 . S
C165 O167 1.282 . S
O166 Cd158 2.277 1_556 S
O166 C159 1.226 . S
O167 Cd158 2.356 . S
O167 C165 1.282 . S
H168 C186 0.951 . S
H169 C188 0.951 . S
H170 C190 0.950 . S
H171 C191 0.950 . S
H172 C193 0.950 . S
H173 C196 0.950 . S
H174 C197 0.950 . S
H175 C199 0.950 . S
H176 C200 0.950 . S
H177 C201 0.951 . S
H178 C203 0.951 . S
H179 C205 0.950 . S
H180 C206 0.950 . S
H181 C208 0.950 . S
H182 C211 0.950 . S
H183 C212 0.950 . S
H184 C214 0.950 . S
H185 C215 0.950 . S
C186 H168 0.951 . S
C186 C187 1.366 . S
C186 C188 1.388 . S
C187 C186 1.366 . S
C187 C191 1.385 . S
C188 H169 0.951 . S
C188 C186 1.388 . S
C188 C189 1.366 . S
C189 C188 1.366 . S
C189 C190 1.414 . S
C189 C192 1.499 . S
C190 H170 0.950 . S
C190 C189 1.414 . S
C190 C191 1.374 . S
C191 H171 0.950 . S
C191 C187 1.385 . S
C191 C190 1.374 . S
C192 C189 1.499 . S
C192 C193 1.373 . S
C192 C194 1.389 . S
C193 H172 0.950 . S
C193 C192 1.373 . S
C193 C209 1.377 . S
C194 C192 1.389 . S
C194 C195 1.524 . S
C194 C208 1.377 . S
C195 C194 1.524 . S
C195 C196 1.397 . S
C195 C200 1.363 . S
C196 H173 0.950 . S
C196 C195 1.397 . S
C196 C197 1.334 . S
C197 H174 0.950 . S
C197 C196 1.334 . S
C197 C198 1.287 . S
C198 C197 1.287 . S
C198 C199 1.524 . S
C198 H217 0.913 . S
C199 H175 0.950 . S
C199 C198 1.524 . S
C199 C200 1.415 . S
C200 H176 0.950 . S
C200 C195 1.363 . S
C200 C199 1.415 . S
C201 H177 0.951 . S
C201 C202 1.366 . S
C201 C203 1.388 . S
C202 C201 1.366 . S
C202 C206 1.385 . S
C203 H178 0.951 . S
C203 C201 1.388 . S
C203 C204 1.366 . S
C204 C203 1.366 . S
C204 C205 1.414 . S
C204 C207 1.499 . S
C205 H179 0.950 . S
C205 C204 1.414 . S
C205 C206 1.374 . S
C206 H180 0.950 . S
C206 C202 1.385 . S
C206 C205 1.374 . S
C207 C204 1.499 . S
C207 C208 1.373 . S
C207 C209 1.389 . S
C208 H181 0.950 . S
C208 C194 1.377 . S
C208 C207 1.373 . S
C209 C193 1.377 . S
C209 C207 1.389 . S
C209 C210 1.524 . S
C210 C209 1.524 . S
C210 C211 1.397 . S
C210 C215 1.363 . S
C211 H182 0.950 . S
C211 C210 1.397 . S
C211 C212 1.334 . S
C212 H183 0.950 . S
C212 C211 1.334 . S
C212 C213 1.287 . S
C213 C212 1.287 . S
C213 C214 1.524 . S
C213 H216 0.999 . S
C214 H184 0.950 . S
C214 C213 1.524 . S
C214 C215 1.415 . S
C215 H185 0.950 . S
C215 C210 1.363 . S
C215 C214 1.415 . S
H216 C213 0.999 . S
H217 C198 0.913 . S
H218 C236 0.951 . S
H219 C238 0.951 . S
H220 C240 0.950 . S
H221 C241 0.950 . S
H222 C243 0.950 . S
H223 C246 0.950 . S
H224 C247 0.950 . S
H225 C249 0.950 . S
H226 C250 0.950 . S
H227 C251 0.951 . S
H228 C253 0.951 . S
H229 C255 0.950 . S
H230 C256 0.950 . S
H231 C258 0.950 . S
H232 C261 0.950 . S
H233 C262 0.950 . S
H234 C264 0.950 . S
H235 C265 0.950 . S
C236 H218 0.951 . S
C236 C237 1.366 . S
C236 C238 1.388 . S
C237 C236 1.366 . S
C237 C241 1.385 . S
C238 H219 0.951 . S
C238 C236 1.388 . S
C238 C239 1.366 . S
C239 C238 1.366 . S
C239 C240 1.414 . S
C239 C242 1.499 . S
C240 H220 0.950 . S
C240 C239 1.414 . S
C240 C241 1.374 . S
C241 H221 0.950 . S
C241 C237 1.385 . S
C241 C240 1.374 . S
C242 C239 1.499 . S
C242 C243 1.373 . S
C242 C244 1.389 . S
C243 H222 0.950 . S
C243 C242 1.373 . S
C243 C259 1.377 . S
C244 C242 1.389 . S
C244 C245 1.524 . S
C244 C258 1.377 . S
C245 C244 1.524 . S
C245 C246 1.397 . S
C245 C250 1.363 . S
C246 H223 0.950 . S
C246 C245 1.397 . S
C246 C247 1.334 . S
C247 H224 0.950 . S
C247 C246 1.334 . S
C247 C248 1.287 . S
C248 C247 1.287 . S
C248 C249 1.524 . S
C248 H267 0.913 . S
C249 H225 0.950 . S
C249 C248 1.524 . S
C249 C250 1.415 . S
C250 H226 0.950 . S
C250 C245 1.363 . S
C250 C249 1.415 . S
C251 H227 0.951 . S
C251 C252 1.366 . S
C251 C253 1.388 . S
C252 C251 1.366 . S
C252 C256 1.385 . S
C253 H228 0.951 . S
C253 C251 1.388 . S
C253 C254 1.366 . S
C254 C253 1.366 . S
C254 C255 1.414 . S
C254 C257 1.499 . S
C255 H229 0.950 . S
C255 C254 1.414 . S
C255 C256 1.374 . S
C256 H230 0.950 . S
C256 C252 1.385 . S
C256 C255 1.374 . S
C257 C254 1.499 . S
C257 C258 1.373 . S
C257 C259 1.389 . S
C258 H231 0.950 . S
C258 C244 1.377 . S
C258 C257 1.373 . S
C259 C243 1.377 . S
C259 C257 1.389 . S
C259 C260 1.524 . S
C260 C259 1.524 . S
C260 C261 1.397 . S
C260 C265 1.363 . S
C261 H232 0.950 . S
C261 C260 1.397 . S
C261 C262 1.334 . S
C262 H233 0.950 . S
C262 C261 1.334 . S
C262 C263 1.287 . S
C263 C262 1.287 . S
C263 C264 1.524 . S
C263 H266 0.999 . S
C264 H234 0.950 . S
C264 C263 1.524 . S
C264 C265 1.415 . S
C265 H235 0.950 . S
C265 C260 1.363 . S
C265 C264 1.415 . S
H266 C263 0.999 . S
H267 C248 0.913 . S
H268 C286 0.951 . S
H269 C288 0.951 . S
H270 C290 0.950 . S
H271 C291 0.950 . S
H272 C293 0.950 . S
H273 C296 0.950 . S
H274 C297 0.950 . S
H275 C299 0.950 . S
H276 C300 0.950 . S
H277 C301 0.951 . S
H278 C303 0.951 . S
H279 C305 0.950 . S
H280 C306 0.950 . S
H281 C308 0.950 . S
H282 C311 0.950 . S
H283 C312 0.950 . S
H284 C314 0.950 . S
H285 C315 0.950 . S
C286 H268 0.951 . S
C286 C287 1.366 . S
C286 C288 1.388 . S
C287 C286 1.366 . S
C287 C291 1.385 . S
C288 H269 0.951 . S
C288 C286 1.388 . S
C288 C289 1.366 . S
C289 C288 1.366 . S
C289 C290 1.414 . S
C289 C292 1.499 . S
C290 H270 0.950 . S
C290 C289 1.414 . S
C290 C291 1.374 . S
C291 H271 0.950 . S
C291 C287 1.385 . S
C291 C290 1.374 . S
C292 C289 1.499 . S
C292 C293 1.373 . S
C292 C294 1.389 . S
C293 H272 0.950 . S
C293 C292 1.373 . S
C293 C309 1.377 . S
C294 C292 1.389 . S
C294 C295 1.524 . S
C294 C308 1.377 . S
C295 C294 1.524 . S
C295 C296 1.397 . S
C295 C300 1.363 . S
C296 H273 0.950 . S
C296 C295 1.397 . S
C296 C297 1.334 . S
C297 H274 0.950 . S
C297 C296 1.334 . S
C297 C298 1.287 . S
C298 C297 1.287 . S
C298 C299 1.524 . S
C298 H317 0.913 . S
C299 H275 0.950 . S
C299 C298 1.524 . S
C299 C300 1.415 . S
C300 H276 0.950 . S
C300 C295 1.363 . S
C300 C299 1.415 . S
C301 H277 0.951 . S
C301 C302 1.366 . S
C301 C303 1.388 . S
C302 C301 1.366 . S
C302 C306 1.385 . S
C303 H278 0.951 . S
C303 C301 1.388 . S
C303 C304 1.366 . S
C304 C303 1.366 . S
C304 C305 1.414 . S
C304 C307 1.499 . S
C305 H279 0.950 . S
C305 C304 1.414 . S
C305 C306 1.374 . S
C306 H280 0.950 . S
C306 C302 1.385 . S
C306 C305 1.374 . S
C307 C304 1.499 . S
C307 C308 1.373 . S
C307 C309 1.389 . S
C308 H281 0.950 . S
C308 C294 1.377 . S
C308 C307 1.373 . S
C309 C293 1.377 . S
C309 C307 1.389 . S
C309 C310 1.524 . S
C310 C309 1.524 . S
C310 C311 1.397 . S
C310 C315 1.363 . S
C311 H282 0.950 . S
C311 C310 1.397 . S
C311 C312 1.334 . S
C312 H283 0.950 . S
C312 C311 1.334 . S
C312 C313 1.287 . S
C313 C312 1.287 . S
C313 C314 1.524 . S
C313 H316 0.999 . S
C314 H284 0.950 . S
C314 C313 1.524 . S
C314 C315 1.415 . S
C315 H285 0.950 . S
C315 C310 1.363 . S
C315 C314 1.415 . S
H316 C313 0.999 . S
H317 C298 0.913 . S
H318 C336 0.951 . S
H319 C338 0.951 . S
H320 C340 0.950 . S
H321 C341 0.950 . S
H322 C343 0.950 . S
H323 C346 0.950 . S
H324 C347 0.950 . S
H325 C349 0.950 . S
H326 C350 0.950 . S
H327 C351 0.951 . S
H328 C353 0.951 . S
H329 C355 0.950 . S
H330 C356 0.950 . S
H331 C358 0.950 . S
H332 C361 0.950 . S
H333 C362 0.950 . S
H334 C364 0.950 . S
H335 C365 0.950 . S
C336 H318 0.951 . S
C336 C337 1.366 . S
C336 C338 1.388 . S
C337 C336 1.366 . S
C337 C341 1.385 . S
C338 H319 0.951 . S
C338 C336 1.388 . S
C338 C339 1.366 . S
C339 C338 1.366 . S
C339 C340 1.414 . S
C339 C342 1.499 . S
C340 H320 0.950 . S
C340 C339 1.414 . S
C340 C341 1.374 . S
C341 H321 0.950 . S
C341 C337 1.385 . S
C341 C340 1.374 . S
C342 C339 1.499 . S
C342 C343 1.373 . S
C342 C344 1.389 . S
C343 H322 0.950 . S
C343 C342 1.373 . S
C343 C359 1.377 . S
C344 C342 1.389 . S
C344 C345 1.524 . S
C344 C358 1.377 . S
C345 C344 1.524 . S
C345 C346 1.397 . S
C345 C350 1.363 . S
C346 H323 0.950 . S
C346 C345 1.397 . S
C346 C347 1.334 . S
C347 H324 0.950 . S
C347 C346 1.334 . S
C347 C348 1.287 . S
C348 C347 1.287 . S
C348 C349 1.524 . S
C348 H367 0.913 . S
C349 H325 0.950 . S
C349 C348 1.524 . S
C349 C350 1.415 . S
C350 H326 0.950 . S
C350 C345 1.363 . S
C350 C349 1.415 . S
C351 H327 0.951 . S
C351 C352 1.366 . S
C351 C353 1.388 . S
C352 C351 1.366 . S
C352 C356 1.385 . S
C353 H328 0.951 . S
C353 C351 1.388 . S
C353 C354 1.366 . S
C354 C353 1.366 . S
C354 C355 1.414 . S
C354 C357 1.499 . S
C355 H329 0.950 . S
C355 C354 1.414 . S
C355 C356 1.374 . S
C356 H330 0.950 . S
C356 C352 1.385 . S
C356 C355 1.374 . S
C357 C354 1.499 . S
C357 C358 1.373 . S
C357 C359 1.389 . S
C358 H331 0.950 . S
C358 C344 1.377 . S
C358 C357 1.373 . S
C359 C343 1.377 . S
C359 C357 1.389 . S
C359 C360 1.524 . S
C360 C359 1.524 . S
C360 C361 1.397 . S
C360 C365 1.363 . S
C361 H332 0.950 . S
C361 C360 1.397 . S
C361 C362 1.334 . S
C362 H333 0.950 . S
C362 C361 1.334 . S
C362 C363 1.287 . S
C363 C362 1.287 . S
C363 C364 1.524 . S
C363 H366 0.999 . S
C364 H334 0.950 . S
C364 C363 1.524 . S
C364 C365 1.415 . S
C365 H335 0.950 . S
C365 C360 1.363 . S
C365 C364 1.415 . S
H366 C363 0.999 . S
H367 C348 0.913 . S
H368 C386 0.951 . S
H369 C388 0.951 . S
H370 C390 0.950 . S
H371 C391 0.950 . S
H372 C393 0.950 . S
H373 C396 0.950 . S
H374 C397 0.950 . S
H375 C399 0.950 . S
H376 C400 0.950 . S
H377 C401 0.951 . S
H378 C403 0.951 . S
H379 C405 0.950 . S
H380 C406 0.950 . S
H381 C408 0.950 . S
H382 C411 0.950 . S
H383 C412 0.950 . S
H384 C414 0.950 . S
H385 C415 0.950 . S
C386 H368 0.951 . S
C386 C387 1.366 . S
C386 C388 1.388 . S
C387 C386 1.366 . S
C387 C391 1.385 . S
C388 H369 0.951 . S
C388 C386 1.388 . S
C388 C389 1.366 . S
C389 C388 1.366 . S
C389 C390 1.414 . S
C389 C392 1.499 . S
C390 H370 0.950 . S
C390 C389 1.414 . S
C390 C391 1.374 . S
C391 H371 0.950 . S
C391 C387 1.385 . S
C391 C390 1.374 . S
C392 C389 1.499 . S
C392 C393 1.373 . S
C392 C394 1.389 . S
C393 H372 0.950 . S
C393 C392 1.373 . S
C393 C409 1.377 . S
C394 C392 1.389 . S
C394 C395 1.524 . S
C394 C408 1.377 . S
C395 C394 1.524 . S
C395 C396 1.397 . S
C395 C400 1.363 . S
C396 H373 0.950 . S
C396 C395 1.397 . S
C396 C397 1.334 . S
C397 H374 0.950 . S
C397 C396 1.334 . S
C397 C398 1.287 . S
C398 C397 1.287 . S
C398 C399 1.524 . S
C398 H417 0.913 . S
C399 H375 0.950 . S
C399 C398 1.524 . S
C399 C400 1.415 . S
C400 H376 0.950 . S
C400 C395 1.363 . S
C400 C399 1.415 . S
C401 H377 0.951 . S
C401 C402 1.366 . S
C401 C403 1.388 . S
C402 C401 1.366 . S
C402 C406 1.385 . S
C403 H378 0.951 . S
C403 C401 1.388 . S
C403 C404 1.366 . S
C404 C403 1.366 . S
C404 C405 1.414 . S
C404 C407 1.499 . S
C405 H379 0.950 . S
C405 C404 1.414 . S
C405 C406 1.374 . S
C406 H380 0.950 . S
C406 C402 1.385 . S
C406 C405 1.374 . S
C407 C404 1.499 . S
C407 C408 1.373 . S
C407 C409 1.389 . S
C408 H381 0.950 . S
C408 C394 1.377 . S
C408 C407 1.373 . S
C409 C393 1.377 . S
C409 C407 1.389 . S
C409 C410 1.524 . S
C410 C409 1.524 . S
C410 C411 1.397 . S
C410 C415 1.363 . S
C411 H382 0.950 . S
C411 C410 1.397 . S
C411 C412 1.334 . S
C412 H383 0.950 . S
C412 C411 1.334 . S
C412 C413 1.287 . S
C413 C412 1.287 . S
C413 C414 1.524 . S
C413 H416 0.999 . S
C414 H384 0.950 . S
C414 C413 1.524 . S
C414 C415 1.415 . S
C415 H385 0.950 . S
C415 C410 1.363 . S
C415 C414 1.415 . S
H416 C413 0.999 . S
H417 C398 0.913 . S
H418 C436 0.951 . S
H419 C438 0.951 . S
H420 C440 0.950 . S
H421 C441 0.950 . S
H422 C443 0.950 . S
H423 C446 0.950 . S
H424 C447 0.950 . S
H425 C449 0.950 . S
H426 C450 0.950 . S
H427 C451 0.951 . S
H428 C453 0.951 . S
H429 C455 0.950 . S
H430 C456 0.950 . S
H431 C458 0.950 . S
H432 C461 0.950 . S
H433 C462 0.950 . S
H434 C464 0.950 . S
H435 C465 0.950 . S
C436 H418 0.951 . S
C436 C437 1.366 . S
C436 C438 1.388 . S
C437 C436 1.366 . S
C437 C441 1.385 . S
C438 H419 0.951 . S
C438 C436 1.388 . S
C438 C439 1.366 . S
C439 C438 1.366 . S
C439 C440 1.414 . S
C439 C442 1.499 . S
C440 H420 0.950 . S
C440 C439 1.414 . S
C440 C441 1.374 . S
C441 H421 0.950 . S
C441 C437 1.385 . S
C441 C440 1.374 . S
C442 C439 1.499 . S
C442 C443 1.373 . S
C442 C444 1.389 . S
C443 H422 0.950 . S
C443 C442 1.373 . S
C443 C459 1.377 . S
C444 C442 1.389 . S
C444 C445 1.524 . S
C444 C458 1.377 . S
C445 C444 1.524 . S
C445 C446 1.397 . S
C445 C450 1.363 . S
C446 H423 0.950 . S
C446 C445 1.397 . S
C446 C447 1.334 . S
C447 H424 0.950 . S
C447 C446 1.334 . S
C447 C448 1.287 . S
C448 C447 1.287 . S
C448 C449 1.524 . S
C448 H467 0.913 . S
C449 H425 0.950 . S
C449 C448 1.524 . S
C449 C450 1.415 . S
C450 H426 0.950 . S
C450 C445 1.363 . S
C450 C449 1.415 . S
C451 H427 0.951 . S
C451 C452 1.366 . S
C451 C453 1.388 . S
C452 C451 1.366 . S
C452 C456 1.385 . S
C453 H428 0.951 . S
C453 C451 1.388 . S
C453 C454 1.366 . S
C454 C453 1.366 . S
C454 C455 1.414 . S
C454 C457 1.499 . S
C455 H429 0.950 . S
C455 C454 1.414 . S
C455 C456 1.374 . S
C456 H430 0.950 . S
C456 C452 1.385 . S
C456 C455 1.374 . S
C457 C454 1.499 . S
C457 C458 1.373 . S
C457 C459 1.389 . S
C458 H431 0.950 . S
C458 C444 1.377 . S
C458 C457 1.373 . S
C459 C443 1.377 . S
C459 C457 1.389 . S
C459 C460 1.524 . S
C460 C459 1.524 . S
C460 C461 1.397 . S
C460 C465 1.363 . S
C461 H432 0.950 . S
C461 C460 1.397 . S
C461 C462 1.334 . S
C462 H433 0.950 . S
C462 C461 1.334 . S
C462 C463 1.287 . S
C463 C462 1.287 . S
C463 C464 1.524 . S
C463 H466 0.999 . S
C464 H434 0.950 . S
C464 C463 1.524 . S
C464 C465 1.415 . S
C465 H435 0.950 . S
C465 C460 1.363 . S
C465 C464 1.415 . S
H466 C463 0.999 . S
H467 C448 0.913 . S
H468 C486 0.951 . S
H469 C488 0.951 . S
H470 C490 0.950 . S
H471 C491 0.950 . S
H472 C493 0.950 . S
H473 C496 0.950 . S
H474 C497 0.950 . S
H475 C499 0.950 . S
H476 C500 0.950 . S
H477 C501 0.951 . S
H478 C503 0.951 . S
H479 C505 0.950 . S
H480 C506 0.950 . S
H481 C508 0.950 . S
H482 C511 0.950 . S
H483 C512 0.950 . S
H484 C514 0.950 . S
H485 C515 0.950 . S
C486 H468 0.951 . S
C486 C487 1.366 . S
C486 C488 1.388 . S
C487 C486 1.366 . S
C487 C491 1.385 1_545 S
C488 H469 0.951 . S
C488 C486 1.388 . S
C488 C489 1.366 . S
C489 C488 1.366 . S
C489 C490 1.414 1_545 S
C489 C492 1.499 . S
C490 H470 0.950 . S
C490 C489 1.414 1_565 S
C490 C491 1.374 . S
C491 H471 0.950 . S
C491 C487 1.385 1_565 S
C491 C490 1.374 . S
C492 C489 1.499 . S
C492 C493 1.373 1_545 S
C492 C494 1.389 . S
C493 H472 0.950 . S
C493 C492 1.373 1_565 S
C493 C509 1.377 . S
C494 C492 1.389 . S
C494 C495 1.524 . S
C494 C508 1.377 . S
C495 C494 1.524 . S
C495 C496 1.397 1_545 S
C495 C500 1.363 . S
C496 H473 0.950 . S
C496 C495 1.397 1_565 S
C496 C497 1.334 . S
C497 H474 0.950 . S
C497 C496 1.334 . S
C497 C498 1.287 1_565 S
C498 C497 1.287 1_545 S
C498 C499 1.524 . S
C498 H517 0.913 1_545 S
C499 H475 0.950 . S
C499 C498 1.524 . S
C499 C500 1.415 . S
C500 H476 0.950 . S
C500 C495 1.363 . S
C500 C499 1.415 . S
C501 H477 0.951 . S
C501 C502 1.366 . S
C501 C503 1.388 . S
C502 C501 1.366 . S
C502 C506 1.385 1_565 S
C503 H478 0.951 . S
C503 C501 1.388 . S
C503 C504 1.366 . S
C504 C503 1.366 . S
C504 C505 1.414 1_565 S
C504 C507 1.499 . S
C505 H479 0.950 . S
C505 C504 1.414 1_545 S
C505 C506 1.374 . S
C506 H480 0.950 . S
C506 C502 1.385 1_545 S
C506 C505 1.374 . S
C507 C504 1.499 . S
C507 C508 1.373 1_565 S
C507 C509 1.389 . S
C508 H481 0.950 . S
C508 C494 1.377 . S
C508 C507 1.373 1_545 S
C509 C493 1.377 . S
C509 C507 1.389 . S
C509 C510 1.524 . S
C510 C509 1.524 . S
C510 C511 1.397 1_565 S
C510 C515 1.363 . S
C511 H482 0.950 . S
C511 C510 1.397 1_545 S
C511 C512 1.334 . S
C512 H483 0.950 . S
C512 C511 1.334 . S
C512 C513 1.287 1_545 S
C513 C512 1.287 1_565 S
C513 C514 1.524 . S
C513 H516 0.994 . S
C514 H484 0.950 . S
C514 C513 1.524 . S
C514 C515 1.415 . S
C515 H485 0.950 . S
C515 C510 1.363 . S
C515 C514 1.415 . S
H516 C513 0.994 . S
H517 C498 0.913 1_565 S
H518 C536 0.951 . S
H519 C538 0.951 . S
H520 C540 0.950 . S
H521 C541 0.950 . S
H522 C543 0.950 . S
H523 C546 0.950 . S
H524 C547 0.950 . S
H525 C549 0.950 . S
H526 C550 0.950 . S
H527 C551 0.951 . S
H528 C553 0.951 . S
H529 C555 0.950 . S
H530 C556 0.950 . S
H531 C558 0.950 . S
H532 C561 0.950 . S
H533 C562 0.950 . S
H534 C564 0.950 . S
H535 C565 0.950 . S
C536 H518 0.951 . S
C536 C537 1.366 . S
C536 C538 1.388 . S
C537 C536 1.366 . S
C537 C541 1.385 . S
C538 H519 0.951 . S
C538 C536 1.388 . S
C538 C539 1.366 . S
C539 C538 1.366 . S
C539 C540 1.414 . S
C539 C542 1.499 . S
C540 H520 0.950 . S
C540 C539 1.414 . S
C540 C541 1.374 . S
C541 H521 0.950 . S
C541 C537 1.385 . S
C541 C540 1.374 . S
C542 C539 1.499 . S
C542 C543 1.373 . S
C542 C544 1.389 . S
C543 H522 0.950 . S
C543 C542 1.373 . S
C543 C559 1.377 . S
C544 C542 1.389 . S
C544 C545 1.524 . S
C544 C558 1.377 . S
C545 C544 1.524 . S
C545 C546 1.397 . S
C545 C550 1.363 . S
C546 H523 0.950 . S
C546 C545 1.397 . S
C546 C547 1.334 . S
C547 H524 0.950 . S
C547 C546 1.334 . S
C547 C548 1.287 . S
C548 C547 1.287 . S
C548 C549 1.524 . S
C548 H567 0.913 . S
C549 H525 0.950 . S
C549 C548 1.524 . S
C549 C550 1.415 . S
C550 H526 0.950 . S
C550 C545 1.363 . S
C550 C549 1.415 . S
C551 H527 0.951 . S
C551 C552 1.366 . S
C551 C553 1.388 . S
C552 C551 1.366 . S
C552 C556 1.385 . S
C553 H528 0.951 . S
C553 C551 1.388 . S
C553 C554 1.366 . S
C554 C553 1.366 . S
C554 C555 1.414 . S
C554 C557 1.499 . S
C555 H529 0.950 . S
C555 C554 1.414 . S
C555 C556 1.374 . S
C556 H530 0.950 . S
C556 C552 1.385 . S
C556 C555 1.374 . S
C557 C554 1.499 . S
C557 C558 1.373 . S
C557 C559 1.389 . S
C558 H531 0.950 . S
C558 C544 1.377 . S
C558 C557 1.373 . S
C559 C543 1.377 . S
C559 C557 1.389 . S
C559 C560 1.524 . S
C560 C559 1.524 . S
C560 C561 1.397 . S
C560 C565 1.363 . S
C561 H532 0.950 . S
C561 C560 1.397 . S
C561 C562 1.334 . S
C562 H533 0.950 . S
C562 C561 1.334 . S
C562 C563 1.287 . S
C563 C562 1.287 . S
C563 C564 1.524 . S
C563 H566 0.999 . S
C564 H534 0.950 . S
C564 C563 1.524 . S
C564 C565 1.415 . S
C565 H535 0.950 . S
C565 C560 1.363 . S
C565 C564 1.415 . S
H566 C563 0.999 . S
H567 C548 0.913 . S
H568 C586 0.951 . S
H569 C588 0.951 . S
H570 C590 0.950 . S
H571 C591 0.950 . S
H572 C593 0.950 . S
H573 C596 0.950 . S
H574 C597 0.950 . S
H575 C599 0.950 . S
H576 C600 0.950 . S
H577 C601 0.951 . S
H578 C603 0.951 . S
H579 C605 0.950 . S
H580 C606 0.950 . S
H581 C608 0.950 . S
H582 C611 0.950 . S
H583 C612 0.950 . S
H584 C614 0.950 . S
H585 C615 0.950 . S
C586 H568 0.951 . S
C586 C587 1.366 1_655 S
C586 C588 1.388 . S
C587 C586 1.366 1_455 S
C587 C591 1.385 . S
C588 H569 0.951 . S
C588 C586 1.388 . S
C588 C589 1.366 1_655 S
C589 C588 1.366 1_455 S
C589 C590 1.414 . S
C589 C592 1.499 . S
C590 H570 0.950 . S
C590 C589 1.414 . S
C590 C591 1.374 . S
C591 H571 0.950 . S
C591 C587 1.385 . S
C591 C590 1.374 . S
C592 C589 1.499 . S
C592 C593 1.373 . S
C592 C594 1.389 1_455 S
C593 H572 0.950 . S
C593 C592 1.373 . S
C593 C609 1.377 . S
C594 C592 1.389 1_655 S
C594 C595 1.524 . S
C594 C608 1.377 . S
C595 C594 1.524 . S
C595 C596 1.397 1_556 S
C595 C600 1.363 . S
C596 H573 0.950 . S
C596 C595 1.397 1_554 S
C596 C597 1.334 . S
C597 H574 0.950 . S
C597 C596 1.334 . S
C597 C598 1.287 . S
C598 C597 1.287 . S
C598 C599 1.524 1_554 S
C598 H617 0.913 . S
C599 H575 0.950 . S
C599 C598 1.524 1_556 S
C599 C600 1.415 . S
C600 H576 0.950 . S
C600 C595 1.363 . S
C600 C599 1.415 . S
C601 H577 0.951 . S
C601 C602 1.366 1_455 S
C601 C603 1.388 . S
C602 C601 1.366 1_655 S
C602 C606 1.385 . S
C603 H578 0.951 . S
C603 C601 1.388 . S
C603 C604 1.366 1_455 S
C604 C603 1.366 1_655 S
C604 C605 1.414 . S
C604 C607 1.499 . S
C605 H579 0.950 . S
C605 C604 1.414 . S
C605 C606 1.374 . S
C606 H580 0.950 . S
C606 C602 1.385 . S
C606 C605 1.374 . S
C607 C604 1.499 . S
C607 C608 1.373 . S
C607 C609 1.389 1_655 S
C608 H581 0.950 . S
C608 C594 1.377 . S
C608 C607 1.373 . S
C609 C593 1.377 . S
C609 C607 1.389 1_455 S
C609 C610 1.524 . S
C610 C609 1.524 . S
C610 C611 1.397 . S
C610 C615 1.363 . S
C611 H582 0.950 . S
C611 C610 1.397 . S
C611 C612 1.334 . S
C612 H583 0.950 . S
C612 C611 1.334 . S
C612 C613 1.287 . S
C613 C612 1.287 . S
C613 C614 1.524 . S
C613 H616 0.999 . S
C614 H584 0.950 . S
C614 C613 1.524 . S
C614 C615 1.415 . S
C615 H585 0.950 . S
C615 C610 1.363 . S
C615 C614 1.415 . S
H616 C613 0.999 . S
H617 C598 0.913 . S
H618 C636 0.951 . S
H619 C638 0.951 . S
H620 C640 0.973 . S
H621 C641 0.950 1_455 S
H622 C643 0.950 . S
H623 C646 0.950 . S
H624 C647 0.950 . S
H625 C649 0.950 . S
H626 C650 0.950 . S
H627 C651 0.951 . S
H628 C653 0.951 . S
H629 C655 0.973 . S
H630 C656 0.950 1_655 S
H631 C658 0.950 . S
H632 C661 0.950 . S
H633 C662 0.950 . S
H634 C664 0.950 . S
H635 C665 0.950 . S
C636 H618 0.951 . S
C636 C637 1.366 . S
C636 C638 1.388 . S
C637 C636 1.366 . S
C637 C641 1.385 . S
C638 H619 0.951 . S
C638 C636 1.388 . S
C638 C639 1.366 . S
C639 C638 1.366 . S
C639 C640 1.416 1_655 S
C639 C642 1.499 . S
C640 H620 0.973 . S
C640 C639 1.416 1_455 S
C640 C641 1.350 1_455 S
C641 H621 0.950 1_655 S
C641 C637 1.385 . S
C641 C640 1.350 1_655 S
C642 C639 1.499 . S
C642 C643 1.373 . S
C642 C644 1.389 1_655 S
C643 H622 0.950 . S
C643 C642 1.373 . S
C643 C659 1.377 . S
C644 C642 1.389 1_455 S
C644 C645 1.524 . S
C644 C658 1.377 . S
C645 C644 1.524 . S
C645 C646 1.397 . S
C645 C650 1.363 . S
C646 H623 0.950 . S
C646 C645 1.397 . S
C646 C647 1.334 . S
C647 H624 0.950 . S
C647 C646 1.334 . S
C647 C648 1.287 . S
C648 C647 1.287 . S
C648 C649 1.524 . S
C648 H667 0.913 . S
C649 H625 0.950 . S
C649 C648 1.524 . S
C649 C650 1.415 . S
C650 H626 0.950 . S
C650 C645 1.363 . S
C650 C649 1.415 . S
C651 H627 0.951 . S
C651 C652 1.366 . S
C651 C653 1.388 . S
C652 C651 1.366 . S
C652 C656 1.385 . S
C653 H628 0.951 . S
C653 C651 1.388 . S
C653 C654 1.366 . S
C654 C653 1.366 . S
C654 C655 1.416 1_455 S
C654 C657 1.499 . S
C655 H629 0.973 . S
C655 C654 1.416 1_655 S
C655 C656 1.350 1_655 S
C656 H630 0.950 1_455 S
C656 C652 1.385 . S
C656 C655 1.350 1_455 S
C657 C654 1.499 . S
C657 C658 1.373 . S
C657 C659 1.389 1_455 S
C658 H631 0.950 . S
C658 C644 1.377 . S
C658 C657 1.373 . S
C659 C643 1.377 . S
C659 C657 1.389 1_655 S
C659 C660 1.524 . S
C660 C659 1.524 . S
C660 C661 1.397 . S
C660 C665 1.363 . S
C661 H632 0.950 . S
C661 C660 1.397 . S
C661 C662 1.334 . S
C662 H633 0.950 . S
C662 C661 1.334 . S
C662 C663 1.287 . S
C663 C662 1.287 . S
C663 C664 1.524 . S
C663 H666 0.999 . S
C664 H634 0.950 . S
C664 C663 1.524 . S
C664 C665 1.415 . S
C665 H635 0.950 . S
C665 C660 1.363 . S
C665 C664 1.415 . S
H666 C663 0.999 . S
H667 C648 0.913 . S
H668 C686 0.951 . S
H669 C688 0.951 . S
H670 C690 0.950 . S
H671 C691 0.950 . S
H672 C693 0.950 . S
H673 C696 0.950 . S
H674 C697 0.950 . S
H675 C699 0.950 . S
H676 C700 0.950 . S
H677 C701 0.951 . S
H678 C703 0.951 . S
H679 C705 0.950 . S
H680 C706 0.950 . S
H681 C708 0.950 . S
H682 C711 0.950 . S
H683 C712 0.950 . S
H684 C714 0.950 . S
H685 C715 0.950 . S
C686 H668 0.951 . S
C686 C687 1.366 . S
C686 C688 1.388 . S
C687 C686 1.366 . S
C687 C691 1.385 1_545 S
C688 H669 0.951 . S
C688 C686 1.388 . S
C688 C689 1.366 . S
C689 C688 1.366 . S
C689 C690 1.414 1_545 S
C689 C692 1.499 . S
C690 H670 0.950 . S
C690 C689 1.414 1_565 S
C690 C691 1.374 . S
C691 H671 0.950 . S
C691 C687 1.385 1_565 S
C691 C690 1.374 . S
C692 C689 1.499 . S
C692 C693 1.373 1_545 S
C692 C694 1.389 . S
C693 H672 0.950 . S
C693 C692 1.373 1_565 S
C693 C709 1.377 . S
C694 C692 1.389 . S
C694 C695 1.524 . S
C694 C708 1.377 . S
C695 C694 1.524 . S
C695 C696 1.397 . S
C695 C700 1.363 . S
C696 H673 0.950 . S
C696 C695 1.397 . S
C696 C697 1.334 . S
C697 H674 0.950 . S
C697 C696 1.334 . S
C697 C698 1.287 . S
C698 C697 1.287 . S
C698 C699 1.524 . S
C698 H717 0.913 . S
C699 H675 0.950 . S
C699 C698 1.524 . S
C699 C700 1.415 . S
C700 H676 0.950 . S
C700 C695 1.363 . S
C700 C699 1.415 . S
C701 H677 0.951 . S
C701 C702 1.366 . S
C701 C703 1.388 . S
C702 C701 1.366 . S
C702 C706 1.385 1_565 S
C703 H678 0.951 . S
C703 C701 1.388 . S
C703 C704 1.366 . S
C704 C703 1.366 . S
C704 C705 1.414 1_565 S
C704 C707 1.499 . S
C705 H679 0.950 . S
C705 C704 1.414 1_545 S
C705 C706 1.374 . S
C706 H680 0.950 . S
C706 C702 1.385 1_545 S
C706 C705 1.374 . S
C707 C704 1.499 . S
C707 C708 1.373 1_565 S
C707 C709 1.389 . S
C708 H681 0.950 . S
C708 C694 1.377 . S
C708 C707 1.373 1_545 S
C709 C693 1.377 . S
C709 C707 1.389 . S
C709 C710 1.524 . S
C710 C709 1.524 . S
C710 C711 1.397 . S
C710 C715 1.363 . S
C711 H682 0.950 . S
C711 C710 1.397 . S
C711 C712 1.334 . S
C712 H683 0.950 . S
C712 C711 1.334 . S
C712 C713 1.287 . S
C713 C712 1.287 . S
C713 C714 1.524 . S
C713 H716 0.999 . S
C714 H684 0.950 . S
C714 C713 1.524 . S
C714 C715 1.415 . S
C715 H685 0.950 . S
C715 C710 1.363 . S
C715 C714 1.415 . S
H716 C713 0.999 . S
H717 C698 0.913 . S
H718 C736 0.951 . S
H719 C738 0.951 . S
H720 C740 0.950 . S
H721 C741 0.950 . S
H722 C743 0.950 . S
H723 C746 0.950 . S
H724 C747 0.950 . S
H725 C749 0.950 . S
H726 C750 0.950 . S
H727 C751 0.951 . S
H728 C753 0.951 . S
H729 C755 0.950 . S
H730 C756 0.950 . S
H731 C758 0.950 . S
H732 C761 0.950 . S
H733 C762 0.950 . S
H734 C764 0.950 . S
H735 C765 0.983 . S
C736 H718 0.951 . S
C736 C737 1.366 . S
C736 C738 1.388 . S
C737 C736 1.366 . S
C737 C741 1.385 . S
C738 H719 0.951 . S
C738 C736 1.388 . S
C738 C739 1.366 . S
C739 C738 1.366 . S
C739 C740 1.414 . S
C739 C742 1.499 . S
C740 H720 0.950 . S
C740 C739 1.414 . S
C740 C741 1.374 . S
C741 H721 0.950 . S
C741 C737 1.385 . S
C741 C740 1.374 . S
C742 C739 1.499 . S
C742 C743 1.373 . S
C742 C744 1.389 . S
C743 H722 0.950 . S
C743 C742 1.373 . S
C743 C759 1.377 . S
C744 C742 1.389 . S
C744 C745 1.524 . S
C744 C758 1.377 . S
C745 C744 1.524 . S
C745 C746 1.397 . S
C745 C750 1.363 . S
C746 H723 0.950 . S
C746 C745 1.397 . S
C746 C747 1.334 . S
C747 H724 0.950 . S
C747 C746 1.334 . S
C747 C748 1.287 . S
C748 C747 1.287 . S
C748 C749 1.524 . S
C748 H767 0.913 . S
C749 H725 0.950 . S
C749 C748 1.524 . S
C749 C750 1.415 . S
C750 H726 0.950 . S
C750 C745 1.363 . S
C750 C749 1.415 . S
C751 H727 0.951 . S
C751 C752 1.366 . S
C751 C753 1.388 . S
C752 C751 1.366 . S
C752 C756 1.385 . S
C753 H728 0.951 . S
C753 C751 1.388 . S
C753 C754 1.366 . S
C754 C753 1.366 . S
C754 C755 1.414 . S
C754 C757 1.499 . S
C755 H729 0.950 . S
C755 C754 1.414 . S
C755 C756 1.374 . S
C756 H730 0.950 . S
C756 C752 1.385 . S
C756 C755 1.374 . S
C757 C754 1.499 . S
C757 C758 1.373 . S
C757 C759 1.389 . S
C758 H731 0.950 . S
C758 C744 1.377 . S
C758 C757 1.373 . S
C759 C743 1.377 . S
C759 C757 1.389 . S
C759 C760 1.524 1_554 S
C760 C759 1.524 1_556 S
C760 C761 1.397 . S
C760 C765 1.359 1_556 S
C761 H732 0.950 . S
C761 C760 1.397 . S
C761 C762 1.334 . S
C762 H733 0.950 . S
C762 C761 1.334 . S
C762 C763 1.287 . S
C763 C762 1.287 . S
C763 C764 1.524 . S
C763 H766 0.999 . S
C764 H734 0.950 . S
C764 C763 1.524 . S
C764 C765 1.388 1_556 S
C765 H735 0.983 . S
C765 C760 1.359 1_554 S
C765 C764 1.388 1_554 S
H766 C763 0.999 . S
H767 C748 0.913 . S
H768 C786 0.951 . S
H769 C788 0.951 . S
H770 C790 0.950 . S
H771 C791 0.950 . S
H772 C793 0.950 . S
H773 C796 0.950 . S
H774 C797 0.950 . S
H775 C799 0.950 . S
H776 C800 0.950 . S
H777 C801 0.951 . S
H778 C803 0.951 . S
H779 C805 0.950 . S
H780 C806 0.950 . S
H781 C808 0.950 . S
H782 C811 0.950 . S
H783 C812 0.950 . S
H784 C814 0.950 . S
H785 C815 0.950 . S
C786 H768 0.951 . S
C786 C787 1.366 . S
C786 C788 1.388 . S
C787 C786 1.366 . S
C787 C791 1.385 . S
C788 H769 0.951 . S
C788 C786 1.388 . S
C788 C789 1.366 . S
C789 C788 1.366 . S
C789 C790 1.414 . S
C789 C792 1.499 . S
C790 H770 0.950 . S
C790 C789 1.414 . S
C790 C791 1.374 . S
C791 H771 0.950 . S
C791 C787 1.385 . S
C791 C790 1.374 . S
C792 C789 1.499 . S
C792 C793 1.373 . S
C792 C794 1.389 . S
C793 H772 0.950 . S
C793 C792 1.373 . S
C793 C809 1.377 . S
C794 C792 1.389 . S
C794 C795 1.524 . S
C794 C808 1.377 . S
C795 C794 1.524 . S
C795 C796 1.397 . S
C795 C800 1.363 . S
C796 H773 0.950 . S
C796 C795 1.397 . S
C796 C797 1.334 . S
C797 H774 0.950 . S
C797 C796 1.334 . S
C797 C798 1.287 . S
C798 C797 1.287 . S
C798 C799 1.524 . S
C798 H817 0.913 . S
C799 H775 0.950 . S
C799 C798 1.524 . S
C799 C800 1.415 . S
C800 H776 0.950 . S
C800 C795 1.363 . S
C800 C799 1.415 . S
C801 H777 0.951 . S
C801 C802 1.366 . S
C801 C803 1.388 . S
C802 C801 1.366 . S
C802 C806 1.385 . S
C803 H778 0.951 . S
C803 C801 1.388 . S
C803 C804 1.366 . S
C804 C803 1.366 . S
C804 C805 1.414 . S
C804 C807 1.499 . S
C805 H779 0.950 . S
C805 C804 1.414 . S
C805 C806 1.374 . S
C806 H780 0.950 . S
C806 C802 1.385 . S
C806 C805 1.374 . S
C807 C804 1.499 . S
C807 C808 1.373 . S
C807 C809 1.389 . S
C808 H781 0.950 . S
C808 C794 1.377 . S
C808 C807 1.373 . S
C809 C793 1.377 . S
C809 C807 1.389 . S
C809 C810 1.524 . S
C810 C809 1.524 . S
C810 C811 1.397 . S
C810 C815 1.363 . S
C811 H782 0.950 . S
C811 C810 1.397 . S
C811 C812 1.334 . S
C812 H783 0.950 . S
C812 C811 1.334 . S
C812 C813 1.287 . S
C813 C812 1.287 . S
C813 C814 1.524 . S
C813 H816 0.999 . S
C814 H784 0.950 . S
C814 C813 1.524 . S
C814 C815 1.415 . S
C815 H785 0.950 . S
C815 C810 1.363 . S
C815 C814 1.415 . S
H816 C813 0.999 . S
H817 C798 0.913 . S
H818 C836 0.951 . S
H819 C838 0.951 . S
H820 C840 0.950 . S
H821 C841 0.950 . S
H822 C843 0.950 . S
H823 C846 0.950 . S
H824 C847 0.950 . S
H825 C849 0.950 . S
H826 C850 0.950 . S
H827 C851 0.951 . S
H828 C853 0.951 . S
H829 C855 0.950 . S
H830 C856 0.950 . S
H831 C858 0.950 . S
H832 C861 0.950 . S
H833 C862 0.950 . S
H834 C864 0.950 . S
H835 C865 0.950 . S
C836 H818 0.951 . S
C836 C837 1.366 . S
C836 C838 1.388 . S
C837 C836 1.366 . S
C837 C841 1.385 . S
C838 H819 0.951 . S
C838 C836 1.388 . S
C838 C839 1.366 . S
C839 C838 1.366 . S
C839 C840 1.414 . S
C839 C842 1.499 . S
C840 H820 0.950 . S
C840 C839 1.414 . S
C840 C841 1.374 . S
C841 H821 0.950 . S
C841 C837 1.385 . S
C841 C840 1.374 . S
C842 C839 1.499 . S
C842 C843 1.373 . S
C842 C844 1.389 . S
C843 H822 0.950 . S
C843 C842 1.373 . S
C843 C859 1.377 . S
C844 C842 1.389 . S
C844 C845 1.524 . S
C844 C858 1.377 . S
C845 C844 1.524 . S
C845 C846 1.397 . S
C845 C850 1.363 . S
C846 H823 0.950 . S
C846 C845 1.397 . S
C846 C847 1.334 . S
C847 H824 0.950 . S
C847 C846 1.334 . S
C847 C848 1.287 . S
C848 C847 1.287 . S
C848 C849 1.524 . S
C848 H867 0.913 . S
C849 H825 0.950 . S
C849 C848 1.524 . S
C849 C850 1.415 . S
C850 H826 0.950 . S
C850 C845 1.363 . S
C850 C849 1.415 . S
C851 H827 0.951 . S
C851 C852 1.366 . S
C851 C853 1.388 . S
C852 C851 1.366 . S
C852 C856 1.385 . S
C853 H828 0.951 . S
C853 C851 1.388 . S
C853 C854 1.366 . S
C854 C853 1.366 . S
C854 C855 1.414 . S
C854 C857 1.499 . S
C855 H829 0.950 . S
C855 C854 1.414 . S
C855 C856 1.374 . S
C856 H830 0.950 . S
C856 C852 1.385 . S
C856 C855 1.374 . S
C857 C854 1.499 . S
C857 C858 1.373 . S
C857 C859 1.389 . S
C858 H831 0.950 . S
C858 C844 1.377 . S
C858 C857 1.373 . S
C859 C843 1.377 . S
C859 C857 1.389 . S
C859 C860 1.524 . S
C860 C859 1.524 . S
C860 C861 1.397 . S
C860 C865 1.363 . S
C861 H832 0.950 . S
C861 C860 1.397 . S
C861 C862 1.334 . S
C862 H833 0.950 . S
C862 C861 1.334 . S
C862 C863 1.287 . S
C863 C862 1.287 . S
C863 C864 1.524 . S
C863 H866 0.999 . S
C864 H834 0.950 . S
C864 C863 1.524 . S
C864 C865 1.415 . S
C865 H835 0.950 . S
C865 C860 1.363 . S
C865 C864 1.415 . S
H866 C863 0.999 . S
H867 C848 0.913 . S
H868 C886 0.951 1_556 S
H869 C888 0.951 . S
H870 C890 0.950 . S
H871 C891 0.950 . S
H872 C893 0.950 . S
H873 C896 0.970 . S
H874 C897 0.950 . S
H875 C899 0.950 . S
H876 C900 0.950 . S
H877 C901 0.961 . S
H878 C903 0.951 . S
H879 C905 0.950 . S
H880 C906 0.950 . S
H881 C908 0.950 . S
H882 C911 0.950 . S
H883 C912 0.950 . S
H884 C914 0.950 . S
H885 C915 0.950 . S
C886 H868 0.951 1_554 S
C886 C887 1.366 . S
C886 C888 1.388 1_554 S
C887 C886 1.366 . S
C887 C891 1.385 . S
C888 H869 0.951 . S
C888 C886 1.388 1_556 S
C888 C889 1.366 1_556 S
C889 C888 1.366 1_554 S
C889 C890 1.414 . S
C889 C892 1.499 . S
C890 H870 0.950 . S
C890 C889 1.414 . S
C890 C891 1.374 . S
C891 H871 0.950 . S
C891 C887 1.385 . S
C891 C890 1.374 . S
C892 C889 1.499 . S
C892 C893 1.373 . S
C892 C894 1.389 1_554 S
C893 H872 0.950 . S
C893 C892 1.373 . S
C893 C909 1.377 . S
C894 C892 1.389 1_556 S
C894 C895 1.524 . S
C894 C908 1.377 . S
C895 C894 1.524 . S
C895 C896 1.397 . S
C895 C900 1.363 . S
C896 H873 0.970 . S
C896 C895 1.397 . S
C896 C897 1.334 . S
C897 H874 0.950 . S
C897 C896 1.334 . S
C897 C898 1.287 . S
C898 C897 1.287 . S
C898 C899 1.524 . S
C898 H917 0.913 . S
C899 H875 0.950 . S
C899 C898 1.524 . S
C899 C900 1.415 . S
C900 H876 0.950 . S
C900 C895 1.363 . S
C900 C899 1.415 . S
C901 H877 0.961 . S
C901 C902 1.352 1_554 S
C901 C903 1.391 . S
C902 C901 1.352 1_556 S
C902 C906 1.385 . S
C903 H878 0.951 . S
C903 C901 1.391 . S
C903 C904 1.366 1_554 S
C904 C903 1.366 1_556 S
C904 C905 1.414 . S
C904 C907 1.499 . S
C905 H879 0.950 . S
C905 C904 1.414 . S
C905 C906 1.374 . S
C906 H880 0.950 . S
C906 C902 1.385 . S
C906 C905 1.374 . S
C907 C904 1.499 . S
C907 C908 1.373 . S
C907 C909 1.389 1_556 S
C908 H881 0.950 . S
C908 C894 1.377 . S
C908 C907 1.373 . S
C909 C893 1.377 . S
C909 C907 1.389 1_554 S
C909 C910 1.524 . S
C910 C909 1.524 . S
C910 C911 1.397 . S
C910 C915 1.363 . S
C911 H882 0.950 . S
C911 C910 1.397 . S
C911 C912 1.334 . S
C912 H883 0.950 . S
C912 C911 1.334 . S
C912 C913 1.287 . S
C913 C912 1.287 . S
C913 C914 1.524 . S
C913 H916 0.999 . S
C914 H884 0.950 . S
C914 C913 1.524 . S
C914 C915 1.415 . S
C915 H885 0.950 . S
C915 C910 1.363 . S
C915 C914 1.415 . S
H916 C913 0.999 . S
H917 C898 0.913 . S
H918 C936 0.951 . S
H919 C938 0.951 . S
H920 C940 0.950 . S
H921 C941 0.950 . S
H922 C943 0.950 . S
H923 C946 0.950 . S
H924 C947 0.950 . S
H925 C949 0.950 . S
H926 C950 0.950 . S
H927 C951 0.951 . S
H928 C953 0.951 . S
H929 C955 0.950 . S
H930 C956 0.950 . S
H931 C958 0.950 . S
H932 C961 0.950 . S
H933 C962 0.950 . S
H934 C964 0.950 . S
H935 C965 0.950 . S
C936 H918 0.951 . S
C936 C937 1.366 . S
C936 C938 1.388 . S
C937 C936 1.366 . S
C937 C941 1.385 . S
C938 H919 0.951 . S
C938 C936 1.388 . S
C938 C939 1.366 . S
C939 C938 1.366 . S
C939 C940 1.414 . S
C939 C942 1.499 . S
C940 H920 0.950 . S
C940 C939 1.414 . S
C940 C941 1.374 . S
C941 H921 0.950 . S
C941 C937 1.385 . S
C941 C940 1.374 . S
C942 C939 1.499 . S
C942 C943 1.373 . S
C942 C944 1.389 . S
C943 H922 0.950 . S
C943 C942 1.373 . S
C943 C959 1.377 . S
C944 C942 1.389 . S
C944 C945 1.524 . S
C944 C958 1.377 . S
C945 C944 1.524 . S
C945 C946 1.397 . S
C945 C950 1.363 . S
C946 H923 0.950 . S
C946 C945 1.397 . S
C946 C947 1.334 . S
C947 H924 0.950 . S
C947 C946 1.334 . S
C947 C948 1.287 . S
C948 C947 1.287 . S
C948 C949 1.524 . S
C948 H967 0.913 . S
C949 H925 0.950 . S
C949 C948 1.524 . S
C949 C950 1.415 . S
C950 H926 0.950 . S
C950 C945 1.363 . S
C950 C949 1.415 . S
C951 H927 0.951 . S
C951 C952 1.366 . S
C951 C953 1.388 . S
C952 C951 1.366 . S
C952 C956 1.385 . S
C953 H928 0.951 . S
C953 C951 1.388 . S
C953 C954 1.366 . S
C954 C953 1.366 . S
C954 C955 1.414 . S
C954 C957 1.499 . S
C955 H929 0.950 . S
C955 C954 1.414 . S
C955 C956 1.374 . S
C956 H930 0.950 . S
C956 C952 1.385 . S
C956 C955 1.374 . S
C957 C954 1.499 . S
C957 C958 1.373 . S
C957 C959 1.389 . S
C958 H931 0.950 . S
C958 C944 1.377 . S
C958 C957 1.373 . S
C959 C943 1.377 . S
C959 C957 1.389 . S
C959 C960 1.524 . S
C960 C959 1.524 . S
C960 C961 1.397 . S
C960 C965 1.363 . S
C961 H932 0.950 . S
C961 C960 1.397 . S
C961 C962 1.334 . S
C962 H933 0.950 . S
C962 C961 1.334 . S
C962 C963 1.287 . S
C963 C962 1.287 . S
C963 C964 1.524 . S
C963 H966 0.999 . S
C964 H934 0.950 . S
C964 C963 1.524 . S
C964 C965 1.415 . S
C965 H935 0.950 . S
C965 C960 1.363 . S
C965 C964 1.415 . S
H966 C963 0.999 . S
H967 C948 0.913 . S
H968 C986 0.951 . S
H969 C988 0.951 . S
H970 C990 0.950 . S
H971 C991 0.950 . S
H972 C993 0.950 . S
H973 C996 0.950 . S
H974 C997 0.950 . S
H975 C999 0.950 . S
H976 C1000 0.950 . S
H977 C1001 0.951 . S
H978 C1003 0.951 . S
H979 C1005 0.950 . S
H980 C1006 0.950 . S
H981 C1008 0.950 . S
H982 C1011 0.950 . S
H983 C1012 0.950 . S
H984 C1014 0.950 . S
H985 C1015 0.950 . S
C986 H968 0.951 . S
C986 C987 1.366 . S
C986 C988 1.388 . S
C987 C986 1.366 . S
C987 C991 1.385 . S
C988 H969 0.951 . S
C988 C986 1.388 . S
C988 C989 1.366 . S
C989 C988 1.366 . S
C989 C990 1.414 . S
C989 C992 1.499 . S
C990 H970 0.950 . S
C990 C989 1.414 . S
C990 C991 1.374 . S
C991 H971 0.950 . S
C991 C987 1.385 . S
C991 C990 1.374 . S
C992 C989 1.499 . S
C992 C993 1.373 . S
C992 C994 1.389 . S
C993 H972 0.950 . S
C993 C992 1.373 . S
C993 C1009 1.377 . S
C994 C992 1.389 . S
C994 C995 1.524 . S
C994 C1008 1.377 . S
C995 C994 1.524 . S
C995 C996 1.397 . S
C995 C1000 1.363 . S
C996 H973 0.950 . S
C996 C995 1.397 . S
C996 C997 1.334 . S
C997 H974 0.950 . S
C997 C996 1.334 . S
C997 C998 1.287 . S
C998 C997 1.287 . S
C998 C999 1.524 . S
C998 H1017 0.913 . S
C999 H975 0.950 . S
C999 C998 1.524 . S
C999 C1000 1.415 . S
C1000 H976 0.950 . S
C1000 C995 1.363 . S
C1000 C999 1.415 . S
C1001 H977 0.951 . S
C1001 C1002 1.366 . S
C1001 C1003 1.388 . S
C1002 C1001 1.366 . S
C1002 C1006 1.385 . S
C1003 H978 0.951 . S
C1003 C1001 1.388 . S
C1003 C1004 1.366 . S
C1004 C1003 1.366 . S
C1004 C1005 1.414 . S
C1004 C1007 1.499 . S
C1005 H979 0.950 . S
C1005 C1004 1.414 . S
C1005 C1006 1.374 . S
C1006 H980 0.950 . S
C1006 C1002 1.385 . S
C1006 C1005 1.374 . S
C1007 C1004 1.499 . S
C1007 C1008 1.373 . S
C1007 C1009 1.389 . S
C1008 H981 0.950 . S
C1008 C994 1.377 . S
C1008 C1007 1.373 . S
C1009 C993 1.377 . S
C1009 C1007 1.389 . S
C1009 C1010 1.524 . S
C1010 C1009 1.524 . S
C1010 C1011 1.397 . S
C1010 C1015 1.363 . S
C1011 H982 0.950 . S
C1011 C1010 1.397 . S
C1011 C1012 1.334 . S
C1012 H983 0.950 . S
C1012 C1011 1.334 . S
C1012 C1013 1.287 . S
C1013 C1012 1.287 . S
C1013 C1014 1.524 . S
C1013 H1016 0.999 . S
C1014 H984 0.950 . S
C1014 C1013 1.524 . S
C1014 C1015 1.415 . S
C1015 H985 0.950 . S
C1015 C1010 1.363 . S
C1015 C1014 1.415 . S
H1016 C1013 0.999 . S
H1017 C998 0.913 . S
H1018 C1036 0.939 1_556 S
H1019 C1038 0.951 . S
H1020 C1040 0.950 . S
H1021 C1041 0.950 . S
H1022 C1043 0.950 . S
H1023 C1046 0.950 1_554 S
H1024 C1047 0.950 . S
H1025 C1049 0.950 . S
H1026 C1050 0.950 . S
H1027 C1051 0.951 . S
H1028 C1053 0.951 . S
H1029 C1055 0.950 . S
H1030 C1056 0.950 . S
H1031 C1058 0.950 . S
H1032 C1061 0.950 1_556 S
H1033 C1062 0.950 . S
H1034 C1064 0.950 . S
H1035 C1065 0.950 . S
C1036 H1018 0.939 1_554 S
C1036 C1037 1.382 . S
C1036 C1038 1.384 1_554 S
C1037 C1036 1.382 . S
C1037 C1041 1.385 . S
C1038 H1019 0.951 . S
C1038 C1036 1.384 1_556 S
C1038 C1039 1.366 1_556 S
C1039 C1038 1.366 1_554 S
C1039 C1040 1.414 . S
C1039 C1042 1.499 . S
C1040 H1020 0.950 . S
C1040 C1039 1.414 . S
C1040 C1041 1.374 . S
C1041 H1021 0.950 . S
C1041 C1037 1.385 . S
C1041 C1040 1.374 . S
C1042 C1039 1.499 . S
C1042 C1043 1.373 . S
C1042 C1044 1.389 1_554 S
C1043 H1022 0.950 . S
C1043 C1042 1.373 . S
C1043 C1059 1.377 . S
C1044 C1042 1.389 1_556 S
C1044 C1045 1.524 . S
C1044 C1058 1.377 . S
C1045 C1044 1.524 . S
C1045 C1046 1.397 . S
C1045 C1050 1.363 . S
C1046 H1023 0.950 1_556 S
C1046 C1045 1.397 . S
C1046 C1047 1.334 . S
C1047 H1024 0.950 . S
C1047 C1046 1.334 . S
C1047 C1048 1.287 . S
C1048 C1047 1.287 . S
C1048 C1049 1.524 . S
C1048 H1067 0.913 . S
C1049 H1025 0.950 . S
C1049 C1048 1.524 . S
C1049 C1050 1.415 . S
C1050 H1026 0.950 . S
C1050 C1045 1.363 . S
C1050 C1049 1.415 . S
C1051 H1027 0.951 . S
C1051 C1052 1.366 1_554 S
C1051 C1053 1.388 . S
C1052 C1051 1.366 1_556 S
C1052 C1056 1.385 . S
C1053 H1028 0.951 . S
C1053 C1051 1.388 . S
C1053 C1054 1.366 1_554 S
C1054 C1053 1.366 1_556 S
C1054 C1055 1.414 . S
C1054 C1057 1.499 . S
C1055 H1029 0.950 . S
C1055 C1054 1.414 . S
C1055 C1056 1.374 . S
C1056 H1030 0.950 . S
C1056 C1052 1.385 . S
C1056 C1055 1.374 . S
C1057 C1054 1.499 . S
C1057 C1058 1.373 . S
C1057 C1059 1.389 1_556 S
C1058 H1031 0.950 . S
C1058 C1044 1.377 . S
C1058 C1057 1.373 . S
C1059 C1043 1.377 . S
C1059 C1057 1.389 1_554 S
C1059 C1060 1.524 . S
C1060 C1059 1.524 . S
C1060 C1061 1.397 . S
C1060 C1065 1.363 . S
C1061 H1032 0.950 1_554 S
C1061 C1060 1.397 . S
C1061 C1062 1.334 . S
C1062 H1033 0.950 . S
C1062 C1061 1.334 . S
C1062 C1063 1.287 . S
C1063 C1062 1.287 . S
C1063 C1064 1.524 . S
C1063 H1066 0.999 . S
C1064 H1034 0.950 . S
C1064 C1063 1.524 . S
C1064 C1065 1.415 . S
C1065 H1035 0.950 . S
C1065 C1060 1.363 . S
C1065 C1064 1.415 . S
H1066 C1063 0.999 . S
H1067 C1048 0.913 . S
H1068 C1086 0.951 . S
H1069 C1088 0.951 . S
H1070 C1090 0.950 . S
H1071 C1091 0.950 . S
H1072 C1093 0.950 . S
H1073 C1096 0.950 . S
H1074 C1097 0.950 . S
H1075 C1099 0.950 . S
H1076 C1100 0.950 . S
H1077 C1101 0.951 . S
H1078 C1103 0.951 . S
H1079 C1105 0.950 . S
H1080 C1106 0.950 . S
H1081 C1108 0.950 . S
H1082 C1111 0.950 . S
H1083 C1112 0.950 . S
H1084 C1114 0.950 . S
H1085 C1115 0.950 . S
C1086 H1068 0.951 . S
C1086 C1087 1.366 . S
C1086 C1088 1.388 . S
C1087 C1086 1.366 . S
C1087 C1091 1.385 . S
C1088 H1069 0.951 . S
C1088 C1086 1.388 . S
C1088 C1089 1.366 . S
C1089 C1088 1.366 . S
C1089 C1090 1.414 . S
C1089 C1092 1.499 . S
C1090 H1070 0.950 . S
C1090 C1089 1.414 . S
C1090 C1091 1.374 . S
C1091 H1071 0.950 . S
C1091 C1087 1.385 . S
C1091 C1090 1.374 . S
C1092 C1089 1.499 . S
C1092 C1093 1.373 1_545 S
C1092 C1094 1.389 . S
C1093 H1072 0.950 . S
C1093 C1092 1.373 1_565 S
C1093 C1109 1.377 . S
C1094 C1092 1.389 . S
C1094 C1095 1.524 . S
C1094 C1108 1.377 . S
C1095 C1094 1.524 . S
C1095 C1096 1.397 . S
C1095 C1100 1.363 . S
C1096 H1073 0.950 . S
C1096 C1095 1.397 . S
C1096 C1097 1.334 . S
C1097 H1074 0.950 . S
C1097 C1096 1.334 . S
C1097 C1098 1.287 . S
C1098 C1097 1.287 . S
C1098 C1099 1.524 . S
C1098 H1117 0.913 . S
C1099 H1075 0.950 . S
C1099 C1098 1.524 . S
C1099 C1100 1.415 . S
C1100 H1076 0.950 . S
C1100 C1095 1.363 . S
C1100 C1099 1.415 . S
C1101 H1077 0.951 . S
C1101 C1102 1.366 . S
C1101 C1103 1.388 . S
C1102 C1101 1.366 . S
C1102 C1106 1.385 . S
C1103 H1078 0.951 . S
C1103 C1101 1.388 . S
C1103 C1104 1.366 . S
C1104 C1103 1.366 . S
C1104 C1105 1.414 . S
C1104 C1107 1.499 . S
C1105 H1079 0.950 . S
C1105 C1104 1.414 . S
C1105 C1106 1.374 . S
C1106 H1080 0.950 . S
C1106 C1102 1.385 . S
C1106 C1105 1.374 . S
C1107 C1104 1.499 . S
C1107 C1108 1.373 1_565 S
C1107 C1109 1.389 . S
C1108 H1081 0.950 . S
C1108 C1094 1.377 . S
C1108 C1107 1.373 1_545 S
C1109 C1093 1.377 . S
C1109 C1107 1.389 . S
C1109 C1110 1.524 . S
C1110 C1109 1.524 . S
C1110 C1111 1.397 . S
C1110 C1115 1.363 . S
C1111 H1082 0.950 . S
C1111 C1110 1.397 . S
C1111 C1112 1.334 . S
C1112 H1083 0.950 . S
C1112 C1111 1.334 . S
C1112 C1113 1.287 . S
C1113 C1112 1.287 . S
C1113 C1114 1.524 . S
C1113 H1116 0.999 . S
C1114 H1084 0.950 . S
C1114 C1113 1.524 . S
C1114 C1115 1.415 . S
C1115 H1085 0.950 . S
C1115 C1110 1.363 . S
C1115 C1114 1.415 . S
H1116 C1113 0.999 . S
H1117 C1098 0.913 . S
H1118 C1136 0.951 . S
H1119 C1138 0.951 . S
H1120 C1140 0.950 . S
H1121 C1141 0.950 . S
H1122 C1143 0.950 . S
H1123 C1146 0.950 . S
H1124 C1147 0.950 . S
H1125 C1149 0.950 . S
H1126 C1150 0.950 . S
H1127 C1151 0.951 . S
H1128 C1153 0.951 . S
H1129 C1155 0.950 . S
H1130 C1156 0.950 . S
H1131 C1158 0.950 . S
H1132 C1161 0.950 . S
H1133 C1162 0.950 . S
H1134 C1164 0.950 . S
H1135 C1165 0.950 . S
C1136 H1118 0.951 . S
C1136 C1137 1.366 . S
C1136 C1138 1.388 . S
C1137 C1136 1.366 . S
C1137 C1141 1.385 . S
C1138 H1119 0.951 . S
C1138 C1136 1.388 . S
C1138 C1139 1.366 . S
C1139 C1138 1.366 . S
C1139 C1140 1.414 . S
C1139 C1142 1.499 . S
C1140 H1120 0.950 . S
C1140 C1139 1.414 . S
C1140 C1141 1.374 . S
C1141 H1121 0.950 . S
C1141 C1137 1.385 . S
C1141 C1140 1.374 . S
C1142 C1139 1.499 . S
C1142 C1143 1.373 . S
C1142 C1144 1.389 . S
C1143 H1122 0.950 . S
C1143 C1142 1.373 . S
C1143 C1159 1.377 . S
C1144 C1142 1.389 . S
C1144 C1145 1.524 . S
C1144 C1158 1.377 . S
C1145 C1144 1.524 . S
C1145 C1146 1.397 . S
C1145 C1150 1.363 . S
C1146 H1123 0.950 . S
C1146 C1145 1.397 . S
C1146 C1147 1.334 . S
C1147 H1124 0.950 . S
C1147 C1146 1.334 . S
C1147 C1148 1.287 . S
C1148 C1147 1.287 . S
C1148 C1149 1.524 . S
C1148 H1167 0.913 . S
C1149 H1125 0.950 . S
C1149 C1148 1.524 . S
C1149 C1150 1.415 . S
C1150 H1126 0.950 . S
C1150 C1145 1.363 . S
C1150 C1149 1.415 . S
C1151 H1127 0.951 . S
C1151 C1152 1.366 . S
C1151 C1153 1.388 . S
C1152 C1151 1.366 . S
C1152 C1156 1.385 . S
C1153 H1128 0.951 . S
C1153 C1151 1.388 . S
C1153 C1154 1.366 . S
C1154 C1153 1.366 . S
C1154 C1155 1.414 . S
C1154 C1157 1.499 . S
C1155 H1129 0.950 . S
C1155 C1154 1.414 . S
C1155 C1156 1.374 . S
C1156 H1130 0.950 . S
C1156 C1152 1.385 . S
C1156 C1155 1.374 . S
C1157 C1154 1.499 . S
C1157 C1158 1.373 . S
C1157 C1159 1.389 . S
C1158 H1131 0.950 . S
C1158 C1144 1.377 . S
C1158 C1157 1.373 . S
C1159 C1143 1.377 . S
C1159 C1157 1.389 . S
C1159 C1160 1.524 . S
C1160 C1159 1.524 . S
C1160 C1161 1.397 . S
C1160 C1165 1.363 . S
C1161 H1132 0.950 . S
C1161 C1160 1.397 . S
C1161 C1162 1.334 . S
C1162 H1133 0.950 . S
C1162 C1161 1.334 . S
C1162 C1163 1.287 . S
C1163 C1162 1.287 . S
C1163 C1164 1.524 . S
C1163 H1166 0.999 . S
C1164 H1134 0.950 . S
C1164 C1163 1.524 . S
C1164 C1165 1.415 . S
C1165 H1135 0.950 . S
C1165 C1160 1.363 . S
C1165 C1164 1.415 . S
H1166 C1163 0.999 . S
H1167 C1148 0.913 . S
H1168 C1186 0.951 . S
H1169 C1188 0.950 1_655 S
H1170 C1190 0.950 . S
H1171 C1191 0.950 . S
H1172 C1193 0.950 . S
H1173 C1196 0.950 . S
H1174 C1197 0.950 . S
H1175 C1199 0.950 . S
H1176 C1200 0.950 . S
H1177 C1201 0.951 . S
H1178 C1203 0.951 . S
H1179 C1205 0.950 . S
H1180 C1206 0.950 . S
H1181 C1208 0.950 . S
H1182 C1211 0.950 . S
H1183 C1212 0.950 . S
H1184 C1214 0.950 . S
H1185 C1215 0.950 . S
C1186 H1168 0.951 . S
C1186 C1187 1.366 . S
C1186 C1188 1.388 . S
C1187 C1186 1.366 . S
C1187 C1191 1.385 . S
C1188 H1169 0.950 1_455 S
C1188 C1186 1.388 . S
C1188 C1189 1.366 . S
C1189 C1188 1.366 . S
C1189 C1190 1.414 . S
C1189 C1192 1.499 . S
C1190 H1170 0.950 . S
C1190 C1189 1.414 . S
C1190 C1191 1.374 . S
C1191 H1171 0.950 . S
C1191 C1187 1.385 . S
C1191 C1190 1.374 . S
C1192 C1189 1.499 . S
C1192 C1193 1.373 1_455 S
C1192 C1194 1.389 . S
C1193 H1172 0.950 . S
C1193 C1192 1.373 1_655 S
C1193 C1209 1.377 . S
C1194 C1192 1.389 . S
C1194 C1195 1.524 . S
C1194 C1208 1.377 . S
C1195 C1194 1.524 . S
C1195 C1196 1.397 . S
C1195 C1200 1.363 . S
C1196 H1173 0.950 . S
C1196 C1195 1.397 . S
C1196 C1197 1.334 . S
C1197 H1174 0.950 . S
C1197 C1196 1.334 . S
C1197 C1198 1.287 . S
C1198 C1197 1.287 . S
C1198 C1199 1.524 . S
C1198 H1217 0.913 . S
C1199 H1175 0.950 . S
C1199 C1198 1.524 . S
C1199 C1200 1.415 . S
C1200 H1176 0.950 . S
C1200 C1195 1.363 . S
C1200 C1199 1.415 . S
C1201 H1177 0.951 . S
C1201 C1202 1.366 . S
C1201 C1203 1.388 . S
C1202 C1201 1.366 . S
C1202 C1206 1.385 . S
C1203 H1178 0.951 . S
C1203 C1201 1.388 . S
C1203 C1204 1.366 . S
C1204 C1203 1.366 . S
C1204 C1205 1.414 . S
C1204 C1207 1.499 . S
C1205 H1179 0.950 . S
C1205 C1204 1.414 . S
C1205 C1206 1.374 . S
C1206 H1180 0.950 . S
C1206 C1202 1.385 . S
C1206 C1205 1.374 . S
C1207 C1204 1.499 . S
C1207 C1208 1.373 1_655 S
C1207 C1209 1.389 . S
C1208 H1181 0.950 . S
C1208 C1194 1.377 . S
C1208 C1207 1.373 1_455 S
C1209 C1193 1.377 . S
C1209 C1207 1.389 . S
C1209 C1210 1.524 . S
C1210 C1209 1.524 . S
C1210 C1211 1.397 . S
C1210 C1215 1.363 . S
C1211 H1182 0.950 . S
C1211 C1210 1.397 . S
C1211 C1212 1.334 . S
C1212 H1183 0.950 . S
C1212 C1211 1.334 . S
C1212 C1213 1.287 . S
C1213 C1212 1.287 . S
C1213 C1214 1.524 . S
C1213 H1216 0.999 . S
C1214 H1184 0.950 . S
C1214 C1213 1.524 . S
C1214 C1215 1.415 . S
C1215 H1185 0.950 . S
C1215 C1210 1.363 . S
C1215 C1214 1.415 . S
H1216 C1213 0.999 . S
H1217 C1198 0.913 . S
H1218 C1236 0.951 . S
H1219 C1238 0.951 . S
H1220 C1240 0.950 . S
H1221 C1241 0.950 . S
H1222 C1243 0.950 . S
H1223 C1246 0.950 . S
H1224 C1247 0.950 . S
H1225 C1249 0.950 . S
H1226 C1250 0.950 . S
H1227 C1251 0.951 . S
H1228 C1253 0.951 . S
H1229 C1255 0.950 . S
H1230 C1256 0.950 . S
H1231 C1258 0.950 . S
H1232 C1261 0.950 . S
H1233 C1262 0.950 . S
H1234 C1264 0.950 . S
H1235 C1265 0.950 . S
C1236 H1218 0.951 . S
C1236 C1237 1.366 . S
C1236 C1238 1.388 . S
C1237 C1236 1.366 . S
C1237 C1241 1.385 1_565 S
C1238 H1219 0.951 . S
C1238 C1236 1.388 . S
C1238 C1239 1.366 . S
C1239 C1238 1.366 . S
C1239 C1240 1.414 1_565 S
C1239 C1242 1.499 . S
C1240 H1220 0.950 . S
C1240 C1239 1.414 1_545 S
C1240 C1241 1.374 . S
C1241 H1221 0.950 . S
C1241 C1237 1.385 1_545 S
C1241 C1240 1.374 . S
C1242 C1239 1.499 . S
C1242 C1243 1.373 1_565 S
C1242 C1244 1.389 . S
C1243 H1222 0.950 . S
C1243 C1242 1.373 1_545 S
C1243 C1259 1.377 . S
C1244 C1242 1.389 . S
C1244 C1245 1.524 . S
C1244 C1258 1.377 . S
C1245 C1244 1.524 . S
C1245 C1246 1.397 . S
C1245 C1250 1.363 . S
C1246 H1223 0.950 . S
C1246 C1245 1.397 . S
C1246 C1247 1.334 . S
C1247 H1224 0.950 . S
C1247 C1246 1.334 . S
C1247 C1248 1.287 . S
C1248 C1247 1.287 . S
C1248 C1249 1.524 . S
C1248 H1267 0.913 . S
C1249 H1225 0.950 . S
C1249 C1248 1.524 . S
C1249 C1250 1.415 . S
C1250 H1226 0.950 . S
C1250 C1245 1.363 . S
C1250 C1249 1.415 . S
C1251 H1227 0.951 . S
C1251 C1252 1.366 . S
C1251 C1253 1.388 . S
C1252 C1251 1.366 . S
C1252 C1256 1.385 1_545 S
C1253 H1228 0.951 . S
C1253 C1251 1.388 . S
C1253 C1254 1.366 . S
C1254 C1253 1.366 . S
C1254 C1255 1.414 1_545 S
C1254 C1257 1.499 . S
C1255 H1229 0.950 . S
C1255 C1254 1.414 1_565 S
C1255 C1256 1.374 . S
C1256 H1230 0.950 . S
C1256 C1252 1.385 1_565 S
C1256 C1255 1.374 . S
C1257 C1254 1.499 . S
C1257 C1258 1.373 1_545 S
C1257 C1259 1.389 . S
C1258 H1231 0.950 . S
C1258 C1244 1.377 . S
C1258 C1257 1.373 1_565 S
C1259 C1243 1.377 . S
C1259 C1257 1.389 . S
C1259 C1260 1.524 . S
C1260 C1259 1.524 . S
C1260 C1261 1.397 . S
C1260 C1265 1.363 . S
C1261 H1232 0.950 . S
C1261 C1260 1.397 . S
C1261 C1262 1.334 . S
C1262 H1233 0.950 . S
C1262 C1261 1.334 . S
C1262 C1263 1.287 . S
C1263 C1262 1.287 . S
C1263 C1264 1.524 . S
C1263 H1266 0.999 . S
C1264 H1234 0.950 . S
C1264 C1263 1.524 . S
C1264 C1265 1.415 . S
C1265 H1235 0.950 . S
C1265 C1260 1.363 . S
C1265 C1264 1.415 . S
H1266 C1263 0.999 . S
H1267 C1248 0.913 . S
H1268 C1286 0.951 . S
H1269 C1288 0.951 . S
H1270 C1290 0.950 . S
H1271 C1291 0.950 . S
H1272 C1293 0.950 . S
H1273 C1296 0.950 . S
H1274 C1297 0.950 . S
H1275 C1299 0.950 . S
H1276 C1300 0.950 . S
H1277 C1301 0.951 . S
H1278 C1303 0.951 . S
H1279 C1305 0.950 . S
H1280 C1306 0.950 . S
H1281 C1308 0.950 . S
H1282 C1311 0.950 . S
H1283 C1312 0.950 . S
H1284 C1314 0.950 . S
H1285 C1315 0.950 . S
C1286 H1268 0.951 . S
C1286 C1287 1.366 . S
C1286 C1288 1.388 . S
C1287 C1286 1.366 . S
C1287 C1291 1.385 . S
C1288 H1269 0.951 . S
C1288 C1286 1.388 . S
C1288 C1289 1.366 . S
C1289 C1288 1.366 . S
C1289 C1290 1.414 . S
C1289 C1292 1.499 . S
C1290 H1270 0.950 . S
C1290 C1289 1.414 . S
C1290 C1291 1.374 . S
C1291 H1271 0.950 . S
C1291 C1287 1.385 . S
C1291 C1290 1.374 . S
C1292 C1289 1.499 . S
C1292 C1293 1.373 . S
C1292 C1294 1.389 . S
C1293 H1272 0.950 . S
C1293 C1292 1.373 . S
C1293 C1309 1.377 . S
C1294 C1292 1.389 . S
C1294 C1295 1.524 . S
C1294 C1308 1.377 . S
C1295 C1294 1.524 . S
C1295 C1296 1.397 . S
C1295 C1300 1.363 . S
C1296 H1273 0.950 . S
C1296 C1295 1.397 . S
C1296 C1297 1.334 . S
C1297 H1274 0.950 . S
C1297 C1296 1.334 . S
C1297 C1298 1.287 . S
C1298 C1297 1.287 . S
C1298 C1299 1.524 . S
C1298 H1317 0.913 . S
C1299 H1275 0.950 . S
C1299 C1298 1.524 . S
C1299 C1300 1.415 . S
C1300 H1276 0.950 . S
C1300 C1295 1.363 . S
C1300 C1299 1.415 . S
C1301 H1277 0.951 . S
C1301 C1302 1.366 . S
C1301 C1303 1.388 . S
C1302 C1301 1.366 . S
C1302 C1306 1.385 . S
C1303 H1278 0.951 . S
C1303 C1301 1.388 . S
C1303 C1304 1.366 . S
C1304 C1303 1.366 . S
C1304 C1305 1.414 . S
C1304 C1307 1.499 . S
C1305 H1279 0.950 . S
C1305 C1304 1.414 . S
C1305 C1306 1.374 . S
C1306 H1280 0.950 . S
C1306 C1302 1.385 . S
C1306 C1305 1.374 . S
C1307 C1304 1.499 . S
C1307 C1308 1.373 . S
C1307 C1309 1.389 . S
C1308 H1281 0.950 . S
C1308 C1294 1.377 . S
C1308 C1307 1.373 . S
C1309 C1293 1.377 . S
C1309 C1307 1.389 . S
C1309 C1310 1.524 . S
C1310 C1309 1.524 . S
C1310 C1311 1.397 . S
C1310 C1315 1.363 . S
C1311 H1282 0.950 . S
C1311 C1310 1.397 . S
C1311 C1312 1.334 . S
C1312 H1283 0.950 . S
C1312 C1311 1.334 . S
C1312 C1313 1.287 . S
C1313 C1312 1.287 . S
C1313 C1314 1.524 . S
C1313 H1316 0.999 . S
C1314 H1284 0.950 . S
C1314 C1313 1.524 . S
C1314 C1315 1.415 . S
C1315 H1285 0.950 . S
C1315 C1310 1.363 . S
C1315 C1314 1.415 . S
H1316 C1313 0.999 . S
H1317 C1298 0.913 . S
H1318 C1336 0.951 . S
H1319 C1338 0.951 . S
H1320 C1340 0.950 . S
H1321 C1341 0.950 . S
H1322 C1343 0.950 . S
H1323 C1346 0.950 . S
H1324 C1347 0.950 . S
H1325 C1349 0.950 . S
H1326 C1350 0.950 . S
H1327 C1351 0.951 . S
H1328 C1353 0.951 . S
H1329 C1355 0.950 . S
H1330 C1356 0.950 . S
H1331 C1358 0.950 . S
H1332 C1361 0.950 . S
H1333 C1362 0.950 . S
H1334 C1364 0.950 . S
H1335 C1365 0.950 . S
C1336 H1318 0.951 . S
C1336 C1337 1.366 1_455 S
C1336 C1338 1.388 . S
C1337 C1336 1.366 1_655 S
C1337 C1341 1.385 . S
C1338 H1319 0.951 . S
C1338 C1336 1.388 . S
C1338 C1339 1.366 1_455 S
C1339 C1338 1.366 1_655 S
C1339 C1340 1.414 . S
C1339 C1342 1.499 . S
C1340 H1320 0.950 . S
C1340 C1339 1.414 . S
C1340 C1341 1.374 . S
C1341 H1321 0.950 . S
C1341 C1337 1.385 . S
C1341 C1340 1.374 . S
C1342 C1339 1.499 . S
C1342 C1343 1.373 . S
C1342 C1344 1.389 1_655 S
C1343 H1322 0.950 . S
C1343 C1342 1.373 . S
C1343 C1359 1.377 . S
C1344 C1342 1.389 1_455 S
C1344 C1345 1.524 . S
C1344 C1358 1.377 . S
C1345 C1344 1.524 . S
C1345 C1346 1.397 1_455 S
C1345 C1350 1.363 . S
C1346 H1323 0.950 . S
C1346 C1345 1.397 1_655 S
C1346 C1347 1.334 . S
C1347 H1324 0.950 . S
C1347 C1346 1.334 . S
C1347 C1348 1.287 1_655 S
C1348 C1347 1.287 1_455 S
C1348 C1349 1.524 . S
C1348 H1367 0.913 . S
C1349 H1325 0.950 . S
C1349 C1348 1.524 . S
C1349 C1350 1.415 . S
C1350 H1326 0.950 . S
C1350 C1345 1.363 . S
C1350 C1349 1.415 . S
C1351 H1327 0.951 . S
C1351 C1352 1.366 1_655 S
C1351 C1353 1.388 . S
C1352 C1351 1.366 1_455 S
C1352 C1356 1.385 . S
C1353 H1328 0.951 . S
C1353 C1351 1.388 . S
C1353 C1354 1.366 1_655 S
C1354 C1353 1.366 1_455 S
C1354 C1355 1.414 . S
C1354 C1357 1.499 . S
C1355 H1329 0.950 . S
C1355 C1354 1.414 . S
C1355 C1356 1.374 . S
C1356 H1330 0.950 . S
C1356 C1352 1.385 . S
C1356 C1355 1.374 . S
C1357 C1354 1.499 . S
C1357 C1358 1.373 . S
C1357 C1359 1.389 1_455 S
C1358 H1331 0.950 . S
C1358 C1344 1.377 . S
C1358 C1357 1.373 . S
C1359 C1343 1.377 . S
C1359 C1357 1.389 1_655 S
C1359 C1360 1.524 . S
C1360 C1359 1.524 . S
C1360 C1361 1.397 1_655 S
C1360 C1365 1.363 . S
C1361 H1332 0.950 . S
C1361 C1360 1.397 1_455 S
C1361 C1362 1.334 . S
C1362 H1333 0.950 . S
C1362 C1361 1.334 . S
C1362 C1363 1.287 1_455 S
C1363 C1362 1.287 1_655 S
C1363 C1364 1.524 . S
C1363 H1366 0.999 . S
C1364 H1334 0.950 . S
C1364 C1363 1.524 . S
C1364 C1365 1.415 . S
C1365 H1335 0.950 . S
C1365 C1360 1.363 . S
C1365 C1364 1.415 . S
H1366 C1363 0.999 . S
H1367 C1348 0.913 . S
C187 C11 1.879 . S
C202 C123 1.879 . S
C237 C25 1.879 . S
C252 C137 1.880 . S
C287 C151 1.879 . S
C302 C39 1.879 . S
C337 C165 1.879 . S
C352 C53 1.879 . S
C387 C95 1.880 . S
C402 C67 1.879 . S
C437 C109 1.879 . S
C452 C81 1.879 . S
C487 C9 1.592 . S
C502 C51 1.592 . S
C537 C65 1.592 . S
C552 C23 1.592 . S
C587 C79 1.592 . S
C602 C37 1.592 . S
C637 C93 1.592 . S
C652 C135 1.592 . S
C687 C149 1.592 . S
C702 C107 1.592 . S
C737 C121 1.592 . S
C752 C163 1.592 . S
C787 C84 0.680 . S
C802 C0 0.681 . S
C837 C14 0.681 . S
C852 C98 0.681 . S
C887 C112 0.682 . S
C902 C28 0.680 . S
C937 C126 0.681 . S
C952 C42 0.680 . S
C987 C56 0.681 . S
C1002 C140 0.681 . S
C1037 C154 0.681 . S
C1052 C70 0.680 . S
C1087 C5 0.896 . S
C1102 C103 0.896 . S
C1137 C117 0.896 . S
C1152 C19 0.896 . S
C1187 C131 0.896 . S
C1202 C33 0.896 . S
C1237 C47 0.896 . S
C1252 C145 0.896 . S
C1287 C159 0.896 . S
C1302 C61 0.896 . S
C1337 C89 0.897 . S
C1352 C75 0.897 . S
