# Generated by pormake.
# Topology wkh, (6)-cn, num edge types: 1
# Building blocks:
#     Node 0, Type 0, BuildingBlock: VOLQOD_clean_sbu_1, # of connection points: 6
#     Node 1, Type 0, BuildingBlock: VOLQOD_clean_sbu_1, # of connection points: 6
#     Node 2, Type 0, BuildingBlock: VOLQOD_clean_sbu_1, # of connection points: 6
#     Node 3, Type 0, BuildingBlock: VOLQOD_clean_sbu_1, # of connection points: 6
#     Node 4, Type 0, BuildingBlock: VOLQOD_clean_sbu_1, # of connection points: 6
#     Node 5, Type 0, BuildingBlock: VOLQOD_clean_sbu_1, # of connection points: 6
#     Node 6, Type 0, BuildingBlock: VOLQOD_clean_sbu_1, # of connection points: 6
#     Node 7, Type 0, BuildingBlock: VOLQOD_clean_sbu_1, # of connection points: 6
#     Node 8, Type 0, BuildingBlock: VOLQOD_clean_sbu_1, # of connection points: 6
#     Node 9, Type 0, BuildingBlock: VOLQOD_clean_sbu_1, # of connection points: 6
#     Node 10, Type 0, BuildingBlock: VOLQOD_clean_sbu_1, # of connection points: 6
#     Node 11, Type 0, BuildingBlock: VOLQOD_clean_sbu_1, # of connection points: 6
#     Edge 12, Type (0, 0), BuildingBlock: MIFKUJ_clean_linker_0, # of connection points: 2
#     Edge 13, Type (0, 0), BuildingBlock: MIFKUJ_clean_linker_0, # of connection points: 2
#     Edge 14, Type (0, 0), BuildingBlock: MIFKUJ_clean_linker_0, # of connection points: 2
#     Edge 15, Type (0, 0), BuildingBlock: MIFKUJ_clean_linker_0, # of connection points: 2
#     Edge 16, Type (0, 0), BuildingBlock: MIFKUJ_clean_linker_0, # of connection points: 2
#     Edge 17, Type (0, 0), BuildingBlock: MIFKUJ_clean_linker_0, # of connection points: 2
#     Edge 18, Type (0, 0), BuildingBlock: MIFKUJ_clean_linker_0, # of connection points: 2
#     Edge 19, Type (0, 0), BuildingBlock: MIFKUJ_clean_linker_0, # of connection points: 2
#     Edge 20, Type (0, 0), BuildingBlock: MIFKUJ_clean_linker_0, # of connection points: 2
#     Edge 21, Type (0, 0), BuildingBlock: MIFKUJ_clean_linker_0, # of connection points: 2
#     Edge 22, Type (0, 0), BuildingBlock: MIFKUJ_clean_linker_0, # of connection points: 2
#     Edge 23, Type (0, 0), BuildingBlock: MIFKUJ_clean_linker_0, # of connection points: 2
#     Edge 24, Type (0, 0), BuildingBlock: MIFKUJ_clean_linker_0, # of connection points: 2
#     Edge 25, Type (0, 0), BuildingBlock: MIFKUJ_clean_linker_0, # of connection points: 2
#     Edge 26, Type (0, 0), BuildingBlock: MIFKUJ_clean_linker_0, # of connection points: 2
#     Edge 27, Type (0, 0), BuildingBlock: MIFKUJ_clean_linker_0, # of connection points: 2
#     Edge 28, Type (0, 0), BuildingBlock: MIFKUJ_clean_linker_0, # of connection points: 2
#     Edge 29, Type (0, 0), BuildingBlock: MIFKUJ_clean_linker_0, # of connection points: 2
#     Edge 30, Type (0, 0), BuildingBlock: MIFKUJ_clean_linker_0, # of connection points: 2
#     Edge 31, Type (0, 0), BuildingBlock: MIFKUJ_clean_linker_0, # of connection points: 2
#     Edge 32, Type (0, 0), BuildingBlock: MIFKUJ_clean_linker_0, # of connection points: 2
#     Edge 33, Type (0, 0), BuildingBlock: MIFKUJ_clean_linker_0, # of connection points: 2
#     Edge 34, Type (0, 0), BuildingBlock: MIFKUJ_clean_linker_0, # of connection points: 2
#     Edge 35, Type (0, 0), BuildingBlock: MIFKUJ_clean_linker_0, # of connection points: 2
#     Edge 36, Type (0, 0), BuildingBlock: MIFKUJ_clean_linker_0, # of connection points: 2
#     Edge 37, Type (0, 0), BuildingBlock: MIFKUJ_clean_linker_0, # of connection points: 2
#     Edge 38, Type (0, 0), BuildingBlock: MIFKUJ_clean_linker_0, # of connection points: 2
#     Edge 39, Type (0, 0), BuildingBlock: MIFKUJ_clean_linker_0, # of connection points: 2
#     Edge 40, Type (0, 0), BuildingBlock: MIFKUJ_clean_linker_0, # of connection points: 2
#     Edge 41, Type (0, 0), BuildingBlock: MIFKUJ_clean_linker_0, # of connection points: 2
#     Edge 42, Type (0, 0), BuildingBlock: MIFKUJ_clean_linker_0, # of connection points: 2
#     Edge 43, Type (0, 0), BuildingBlock: MIFKUJ_clean_linker_0, # of connection points: 2
#     Edge 44, Type (0, 0), BuildingBlock: MIFKUJ_clean_linker_0, # of connection points: 2
#     Edge 45, Type (0, 0), BuildingBlock: MIFKUJ_clean_linker_0, # of connection points: 2
#     Edge 46, Type (0, 0), BuildingBlock: MIFKUJ_clean_linker_0, # of connection points: 2
#     Edge 47, Type (0, 0), BuildingBlock: MIFKUJ_clean_linker_0, # of connection points: 2
# Relax obj value: 0.364
# Max RMSD: 0.262
# Mean RMSD: 0.262
data_MOF--net-wkh--node1-VOLQOD_clean_sbu_1--edge1-MIFKUJ_clean_linker_0
_symmetry_space_group_name_H-M    P1
_symmetry_Int_Tables_number       1
_symmetry_cell_setting            triclinic
loop_
_symmetry_equiv_pos_as_xyz
'x, y, z'
_cell_length_a     34.796059
_cell_length_b     34.781257
_cell_length_c     111.6344
_cell_angle_alpha  90.026648
_cell_angle_beta   89.974658
_cell_angle_gamma 119.97534
loop_
_atom_site_label
_atom_site_type_symbol
_atom_site_fract_x
_atom_site_fract_y
_atom_site_fract_z
_atom_type_partial_charge
O0 O 0.1405 0.32969 0.03807 0.0
Zn1 Zn 0.15161 0.31855 0.02117 0.0
O2 O 0.21321 0.33464 0.01879 0.0
Zn3 Zn 0.21583 0.28244 0.01389 0.0
Zn4 Zn 0.24417 0.35577 0.034 0.0
Zn5 Zn 0.24119 0.38069 0.0064 0.0
O6 O 0.24934 0.29288 0.99859 0.0
O7 O 0.25885 0.35733 0.99198 0.0
O8 O 0.10849 0.25455 0.01667 0.0
O9 O 0.15506 0.23244 0.01054 0.0
O10 O 0.24186 0.26134 0.0267 0.0
O11 O 0.25738 0.31072 0.04115 0.0
O12 O 0.30314 0.41044 0.03132 0.0
O13 O 0.1384 0.35819 0.0113 0.0
O14 O 0.29992 0.43029 0.01259 0.0
O15 O 0.19962 0.40323 0.00106 0.0
C16 C 0.16576 0.35076 0.04682 0.0
C17 C 0.26232 0.32281 0.99057 0.0
C18 C 0.25585 0.27563 0.03722 0.0
C19 C 0.11582 0.22513 0.01219 0.0
C20 C 0.32083 0.4364 0.02244 0.0
C21 C 0.1594 0.39 0.00398 0.0
O22 O 0.20747 0.36575 0.04633 0.0
O23 O 0.82875 0.15317 0.2058 0.0
Zn24 Zn 0.8475 0.16589 0.18857 0.0
O25 O 0.88698 0.22892 0.18606 0.0
Zn26 Zn 0.94428 0.23885 0.18093 0.0
Zn27 Zn 0.89457 0.26012 0.20113 0.0
Zn28 Zn 0.8634 0.25122 0.17363 0.0
O29 O 0.96509 0.27602 0.16616 0.0
O30 O 0.90302 0.27022 0.15889 0.0
O31 O 0.87436 0.12883 0.18311 0.0
O32 O 0.94026 0.1814 0.17675 0.0
O33 O 0.99033 0.266 0.1938 0.0
O34 O 0.95538 0.28131 0.20799 0.0
O35 O 0.8906 0.31492 0.1983 0.0
O36 O 0.79206 0.14627 0.17924 0.0
O37 O 0.86769 0.30839 0.17943 0.0
O38 O 0.79997 0.20451 0.16895 0.0
C39 C 0.83062 0.17757 0.21456 0.0
C40 C 0.94407 0.28244 0.15781 0.0
C41 C 0.98976 0.28134 0.20409 0.0
C42 C 0.91173 0.14064 0.17822 0.0
C43 C 0.88043 0.33021 0.18922 0.0
C44 C 0.7769 0.16378 0.17203 0.0
O45 O 0.85195 0.21981 0.21379 0.0
O46 O 0.67169 0.82351 0.37417 0.0
Zn47 Zn 0.68192 0.8435 0.35712 0.0
O48 O 0.66488 0.88771 0.35429 0.0
Zn49 Zn 0.71656 0.94231 0.3495 0.0
Zn50 Zn 0.64256 0.8981 0.36919 0.0
Zn51 Zn 0.62066 0.86866 0.34147 0.0
O52 O 0.70497 0.9673 0.33478 0.0
O53 O 0.64672 0.90847 0.32684 0.0
O54 O 0.74508 0.86377 0.35231 0.0
O55 O 0.76561 0.93098 0.34532 0.0
O56 O 0.73957 0.98756 0.3627 0.0
O57 O 0.68794 0.95585 0.37671 0.0
O58 O 0.58853 0.90296 0.36572 0.0
O59 O 0.64327 0.78997 0.34759 0.0
O60 O 0.57117 0.8794 0.3469 0.0
O61 O 0.5979 0.80368 0.33675 0.0
C62 C 0.64868 0.82663 0.38258 0.0
C63 C 0.67833 0.94858 0.3261 0.0
C64 C 0.72474 0.98792 0.37309 0.0
C65 C 0.7734 0.89945 0.34717 0.0
C66 C 0.56393 0.89469 0.35652 0.0
C67 C 0.61168 0.77756 0.34013 0.0
O68 O 0.6314 0.85132 0.3816 0.0
O69 O 0.85144 0.67336 0.5397 0.0
Zn70 Zn 0.83778 0.68745 0.52322 0.0
O71 O 0.77412 0.66216 0.52129 0.0
Zn72 Zn 0.761 0.70865 0.51755 0.0
Zn73 Zn 0.74406 0.63499 0.53629 0.0
Zn74 Zn 0.75244 0.61859 0.50822 0.0
O75 O 0.73073 0.69861 0.50188 0.0
O76 O 0.73339 0.64161 0.49386 0.0
O77 O 0.87131 0.7542 0.52089 0.0
O78 O 0.81655 0.76728 0.51673 0.0
O79 O 0.72426 0.71608 0.52998 0.0
O80 O 0.72215 0.67204 0.54458 0.0
O81 O 0.68928 0.57663 0.53279 0.0
O82 O 0.86039 0.66049 0.51126 0.0
O83 O 0.69579 0.56405 0.51356 0.0
O84 O 0.80044 0.60472 0.50278 0.0
C85 C 0.82768 0.64941 0.54837 0.0
C86 C 0.72367 0.67239 0.49317 0.0
C87 C 0.71387 0.70142 0.5406 0.0
C88 C 0.85755 0.78097 0.51832 0.0
C89 C 0.67406 0.55295 0.52338 0.0
C90 C 0.84246 0.62712 0.50427 0.0
O91 O 0.78544 0.63013 0.54803 0.0
O92 O 0.18791 0.84603 0.70883 0.0
Zn93 Zn 0.16573 0.84049 0.69208 0.0
O94 O 0.12197 0.77932 0.68859 0.0
Zn95 Zn 0.06565 0.77531 0.68495 0.0
Zn96 Zn 0.11407 0.74275 0.70271 0.0
Zn97 Zn 0.1414 0.75904 0.67466 0.0
O98 O 0.04428 0.75129 0.66844 0.0
O99 O 0.10199 0.75025 0.6603 0.0
O100 O 0.14268 0.88294 0.6896 0.0
O101 O 0.07219 0.83533 0.68533 0.0
O102 O 0.01906 0.74058 0.69718 0.0
O103 O 0.05468 0.72296 0.71058 0.0
O104 O 0.1132 0.68687 0.69757 0.0
O105 O 0.21871 0.86002 0.68178 0.0
O106 O 0.13214 0.69798 0.6783 0.0
O107 O 0.20584 0.80314 0.67008 0.0
C108 C 0.18533 0.81875 0.71683 0.0
C109 C 0.0633 0.74554 0.65943 0.0
C110 C 0.02003 0.72343 0.70715 0.0
C111 C 0.10357 0.87468 0.68716 0.0
C112 C 0.12004 0.67333 0.68761 0.0
C113 C 0.23128 0.84276 0.67376 0.0
O114 O 0.16035 0.77696 0.71549 0.0
O115 O 0.32226 0.16519 0.87502 0.0
Zn116 Zn 0.31225 0.1414 0.85825 0.0
O117 O 0.3381 0.10418 0.85606 0.0
Zn118 Zn 0.29213 0.04396 0.85264 0.0
Zn119 Zn 0.36756 0.10449 0.87082 0.0
Zn120 Zn 0.38034 0.12615 0.84285 0.0
O121 O 0.30466 0.02179 0.83737 0.0
O122 O 0.35519 0.08439 0.8287 0.0
O123 O 0.24716 0.10993 0.85412 0.0
O124 O 0.23421 0.04194 0.85014 0.0
O125 O 0.2825 0.00273 0.86634 0.0
O126 O 0.32996 0.04793 0.87997 0.0
O127 O 0.42377 0.10432 0.86686 0.0
O128 O 0.34299 0.19441 0.84774 0.0
O129 O 0.43438 0.12202 0.84753 0.0
O130 O 0.39511 0.18864 0.83775 0.0
C131 C 0.35149 0.17172 0.88288 0.0
C132 C 0.32795 0.04272 0.8283 0.0
C133 C 0.2986 0.00982 0.87688 0.0
C134 C 0.22093 0.06993 0.851 0.0
C135 C 0.44585 0.11098 0.85722 0.0
C136 C 0.37526 0.21007 0.8404 0.0
O137 O 0.37637 0.15465 0.88182 0.0
O138 O 0.67372 0.83836 0.78894 0.0
Zn139 Zn 0.68102 0.82698 0.80618 0.0
O140 O 0.65757 0.76426 0.80886 0.0
Zn141 Zn 0.70433 0.75463 0.81442 0.0
Zn142 Zn 0.63531 0.7324 0.79387 0.0
Zn143 Zn 0.61166 0.74221 0.82116 0.0
O144 O 0.6864 0.71528 0.82881 0.0
O145 O 0.63394 0.72705 0.83625 0.0
O146 O 0.74498 0.8643 0.81167 0.0
O147 O 0.75576 0.81181 0.81948 0.0
O148 O 0.72738 0.73199 0.80145 0.0
O149 O 0.67849 0.71568 0.78679 0.0
O150 O 0.57895 0.67532 0.79711 0.0
O151 O 0.64496 0.84683 0.81537 0.0
O152 O 0.56027 0.68326 0.81565 0.0
O153 O 0.59339 0.78821 0.82529 0.0
C154 C 0.64935 0.81341 0.7805 0.0
C155 C 0.66094 0.71252 0.83736 0.0
C156 C 0.71358 0.71785 0.79093 0.0
C157 C 0.7689 0.85249 0.81749 0.0
C158 C 0.55311 0.66023 0.80613 0.0
C159 C 0.61144 0.82906 0.8223 0.0
O160 O 0.62859 0.77118 0.78147 0.0
O161 O 0.82303 0.68004 0.95808 0.0
Zn162 Zn 0.84252 0.68637 0.97519 0.0
O163 O 0.88329 0.66453 0.97761 0.0
Zn164 Zn 0.94006 0.71261 0.98314 0.0
Zn165 Zn 0.89143 0.64245 0.96231 0.0
Zn166 Zn 0.8596 0.61724 0.98962 0.0
O167 O 0.95896 0.69649 0.9984 0.0
O168 O 0.89742 0.63683 0.00462 0.0
O169 O 0.86839 0.74995 0.9804 0.0
O170 O 0.93568 0.76708 0.9866 0.0
O171 O 0.98774 0.72958 0.97075 0.0
O172 O 0.95202 0.68428 0.95562 0.0
O173 O 0.89002 0.58457 0.96479 0.0
O174 O 0.7874 0.65003 0.98462 0.0
O175 O 0.86591 0.56596 0.98349 0.0
O176 O 0.79584 0.59875 0.99421 0.0
C177 C 0.82469 0.65771 0.94925 0.0
C178 C 0.93754 0.66713 0.00632 0.0
C179 C 0.98715 0.71621 0.9601 0.0
C180 C 0.90574 0.77742 0.98496 0.0
C181 C 0.87988 0.55836 0.9737 0.0
C182 C 0.77253 0.6165 0.99152 0.0
O183 O 0.84705 0.63781 0.94983 0.0
O184 O 0.14499 0.81159 0.12422 0.0
Zn185 Zn 0.15798 0.84186 0.14019 0.0
O186 O 0.22102 0.88289 0.14171 0.0
Zn187 Zn 0.23095 0.94199 0.14468 0.0
Zn188 Zn 0.25072 0.88452 0.1268 0.0
Zn189 Zn 0.24501 0.86444 0.15493 0.0
O190 O 0.25728 0.96385 0.16086 0.0
O191 O 0.26049 0.90704 0.16893 0.0
O192 O 0.12086 0.87123 0.14228 0.0
O193 O 0.17341 0.94127 0.14491 0.0
O194 O 0.26669 0.98534 0.13176 0.0
O195 O 0.26667 0.94043 0.11765 0.0
O196 O 0.30893 0.88765 0.13052 0.0
O197 O 0.13859 0.79399 0.15238 0.0
O198 O 0.30356 0.87066 0.14988 0.0
O199 O 0.20015 0.80193 0.16075 0.0
C200 C 0.16859 0.80953 0.11579 0.0
C201 C 0.26539 0.94583 0.16967 0.0
C202 C 0.27454 0.97863 0.12106 0.0
C203 C 0.13272 0.91185 0.14398 0.0
C204 C 0.32543 0.88194 0.14009 0.0
C205 C 0.15804 0.7804 0.15941 0.0
O206 O 0.21079 0.83357 0.11586 0.0
O207 O 0.31176 0.14875 0.2906 0.0
Zn208 Zn 0.30884 0.16184 0.30797 0.0
O209 O 0.33006 0.22443 0.31038 0.0
Zn210 Zn 0.28157 0.2323 0.31581 0.0
Zn211 Zn 0.35198 0.25508 0.29514 0.0
Zn212 Zn 0.37677 0.2484 0.32253 0.0
O213 O 0.29742 0.26905 0.33078 0.0
O214 O 0.35577 0.26565 0.33749 0.0
O215 O 0.24654 0.12314 0.31417 0.0
O216 O 0.22917 0.17373 0.31983 0.0
O217 O 0.26095 0.25826 0.30306 0.0
O218 O 0.31016 0.27415 0.28849 0.0
O219 O 0.40956 0.31135 0.29768 0.0
O220 O 0.34785 0.14455 0.31668 0.0
O221 O 0.42776 0.30636 0.31648 0.0
O222 O 0.39636 0.20383 0.32698 0.0
C223 C 0.33424 0.17279 0.28179 0.0
C224 C 0.32581 0.27618 0.33894 0.0
C225 C 0.27575 0.27337 0.29267 0.0
C226 C 0.21932 0.13345 0.3187 0.0
C227 C 0.43543 0.32767 0.30664 0.0
C228 C 0.38069 0.16344 0.3238 0.0
O229 O 0.35595 0.21506 0.28256 0.0
O230 O 0.17702 0.3308 0.4587 0.0
Zn231 Zn 0.15345 0.32215 0.47558 0.0
O232 O 0.11786 0.35005 0.47743 0.0
Zn233 Zn 0.05762 0.30694 0.48172 0.0
Zn234 Zn 0.11625 0.37733 0.4625 0.0
Zn235 Zn 0.14197 0.39376 0.49012 0.0
O236 O 0.0376 0.32542 0.49636 0.0
O237 O 0.10296 0.36992 0.50482 0.0
O238 O 0.11973 0.25744 0.48049 0.0
O239 O 0.05513 0.25007 0.48608 0.0
O240 O 0.01502 0.29251 0.46802 0.0
O241 O 0.05921 0.33757 0.45385 0.0
O242 O 0.11676 0.43469 0.46598 0.0
O243 O 0.20691 0.35226 0.48611 0.0
O244 O 0.13619 0.44644 0.4852 0.0
O245 O 0.20522 0.40933 0.49453 0.0
C246 C 0.18192 0.35836 0.45047 0.0
C247 C 0.06077 0.34666 0.50541 0.0
C248 C 0.02155 0.30628 0.45724 0.0
C249 C 0.08103 0.23434 0.48496 0.0
C250 C 0.12426 0.45735 0.47557 0.0
C251 C 0.22454 0.38683 0.49267 0.0
O252 O 0.16424 0.38281 0.45124 0.0
O253 O 0.85957 0.17464 0.62428 0.0
Zn254 Zn 0.84633 0.14932 0.64085 0.0
O255 O 0.78324 0.11095 0.64292 0.0
Zn256 Zn 0.77103 0.05162 0.64656 0.0
Zn257 Zn 0.75315 0.1094 0.62807 0.0
Zn258 Zn 0.76209 0.13221 0.65615 0.0
O259 O 0.73582 0.0289 0.66158 0.0
O260 O 0.74476 0.09015 0.67038 0.0
O261 O 0.88112 0.11852 0.64425 0.0
O262 O 0.82756 0.05112 0.64924 0.0
O263 O 0.73993 0.00939 0.63311 0.0
O264 O 0.7335 0.05171 0.61933 0.0
O265 O 0.69713 0.11043 0.6319 0.0
O266 O 0.86821 0.20095 0.65193 0.0
O267 O 0.70456 0.12855 0.6512 0.0
O268 O 0.80895 0.19477 0.66129 0.0
C269 C 0.83628 0.17824 0.61603 0.0
C270 C 0.73146 0.04867 0.67062 0.0
C271 C 0.72868 0.01454 0.62266 0.0
C272 C 0.86849 0.07923 0.64781 0.0
C273 C 0.68211 0.11785 0.64151 0.0
C274 C 0.85056 0.21604 0.65912 0.0
O275 O 0.79403 0.1582 0.61669 0.0
H276 H 0.73537 0.56362 0.01135 0.0
H277 H 0.66155 0.53901 0.01982 0.0
H278 H 0.63383 0.60432 0.99101 0.0
H279 H 0.70739 0.62995 0.9828 0.0
H280 H 0.60735 0.62146 0.01089 0.0
H281 H 0.59115 0.48895 0.99218 0.0
H282 H 0.60866 0.4294 0.98858 0.0
H283 H 0.58119 0.38976 0.02545 0.0
H284 H 0.56403 0.44948 0.0293 0.0
H285 H 0.3713 0.4992 0.00567 0.0
H286 H 0.45211 0.53788 0.00395 0.0
H287 H 0.46082 0.48345 0.03786 0.0
H288 H 0.38021 0.44503 0.03976 0.0
H289 H 0.4997 0.46292 0.01881 0.0
H290 H 0.50447 0.59088 0.03606 0.0
H291 H 0.48372 0.64866 0.0384 0.0
H292 H 0.52945 0.69521 0.00273 0.0
H293 H 0.54989 0.63728 0.00011 0.0
C294 C 0.71336 0.57245 0.00681 0.0
C295 C 0.72725 0.59877 0.99642 0.0
C296 C 0.6712 0.55839 0.01165 0.0
C297 C 0.642 0.56971 0.00603 0.0
C298 C 0.6558 0.59549 0.99558 0.0
C299 C 0.69789 0.60996 0.99086 0.0
C300 C 0.59692 0.5549 0.01087 0.0
C301 C 0.58375 0.58673 0.01256 0.0
C302 C 0.56638 0.50976 0.01335 0.0
C303 C 0.57689 0.47402 0.01106 0.0
C304 C 0.58923 0.46778 -0.00046 0.0
C305 C 0.59901 0.43395 0.99745 0.0
C306 C 0.5962 0.40592 0.00679 0.0
C307 C 0.58347 0.41157 0.01823 0.0
C308 C 0.5737 0.44539 0.02037 0.0
C309 C 0.39041 0.4965 0.01294 0.0
C310 C 0.36914 0.46857 0.02278 0.0
C311 C 0.43663 0.51866 0.01195 0.0
C312 C 0.46234 0.51319 0.02074 0.0
C313 C 0.4415 0.48792 0.03096 0.0
C314 C 0.39536 0.46616 0.03204 0.0
C315 C 0.50998 0.52934 0.01854 0.0
C316 C 0.52358 0.49773 0.01734 0.0
C317 C 0.54063 0.57453 0.01632 0.0
C318 C 0.52842 0.60948 0.01786 0.0
C319 C 0.50977 0.61318 0.02868 0.0
C320 C 0.49813 0.64602 0.03006 0.0
C321 C 0.50518 0.67553 0.02071 0.0
C322 C 0.52398 0.67232 0.00996 0.0
C323 C 0.53566 0.63952 0.00853 0.0
H324 H 0.49616 0.70094 0.0218 0.0
H325 H 0.60376 0.37973 0.00515 0.0
H326 H 0.07027 0.74222 0.16451 0.0
H327 H 0.0215 0.66841 0.17258 0.0
H328 H 0.13303 0.64744 0.17639 0.0
H329 H 0.18254 0.72198 0.16827 0.0
H330 H 0.06234 0.57957 0.16414 0.0
H331 H 0.08581 0.65858 0.2009 0.0
H332 H 0.08971 0.71714 0.21415 0.0
H333 H 0.95129 0.67016 0.20827 0.0
H334 H 0.94668 0.61168 0.19484 0.0
H335 H 0.92312 0.39154 0.20693 0.0
H336 H 0.96625 0.47168 0.20422 0.0
H337 H 0.912 0.45804 0.16874 0.0
H338 H 0.86956 0.37757 0.1712 0.0
H339 H 0.95864 0.54344 0.19836 0.0
H340 H 0.99274 0.51704 0.14993 0.0
H341 H 0.989 0.45749 0.13708 0.0
H342 H 0.01753 0.39996 0.16738 0.0
H343 H 0.02133 0.45915 0.18043 0.0
C344 C 0.08466 0.7222 0.1672 0.0
C345 C 0.13027 0.73781 0.16569 0.0
C346 C 0.0567 0.68008 0.17188 0.0
C347 C 0.07364 0.65253 0.17512 0.0
C348 C 0.11937 0.66834 0.17395 0.0
C349 C 0.14761 0.71091 0.16938 0.0
C350 C 0.04275 0.60616 0.17884 0.0
C351 C 0.03992 0.57173 0.17167 0.0
C352 C 0.01341 0.59591 0.18866 0.0
C353 C 0.01599 0.63092 0.19678 0.0
C354 C 0.05627 0.66093 0.20235 0.0
C355 C 0.0586 0.69408 0.20992 0.0
C356 C 0.0208 0.69742 0.21204 0.0
C357 C 0.98056 0.66754 0.20662 0.0
C358 C 0.97806 0.63435 0.19904 0.0
C359 C 0.9192 0.40552 0.19866 0.0
C360 C 0.89371 0.3779 0.18915 0.0
C361 C 0.94399 0.45149 0.19714 0.0
C362 C 0.94342 0.47061 0.18614 0.0
C363 C 0.91375 0.44374 0.1772 0.0
C364 C 0.88925 0.39771 0.17866 0.0
C365 C 0.97775 0.51713 0.18351 0.0
C366 C 0.98122 0.55144 0.19086 0.0
C367 C 0.00803 0.52738 0.17392 0.0
C368 C 0.00719 0.49241 0.16614 0.0
C369 C 0.99841 0.49179 0.15383 0.0
C370 C 0.99604 0.458 0.14654 0.0
C371 C 0.00303 0.42501 0.15142 0.0
C372 C 0.01215 0.42557 0.16362 0.0
C373 C 0.01429 0.45915 0.17098 0.0
H374 H 0.00161 0.39922 0.14571 0.0
H375 H 0.02267 0.72311 0.21789 0.0
H376 H 0.4302 0.17749 0.34423 0.0
H377 H 0.45559 0.12876 0.35258 0.0
H378 H 0.39969 0.04093 0.32226 0.0
H379 H 0.37321 0.08836 0.31413 0.0
H380 H 0.3788 0.99378 0.3416 0.0
H381 H 0.51407 0.11544 0.32568 0.0
H382 H 0.57263 0.19372 0.32346 0.0
H383 H 0.60281 0.20017 0.36095 0.0
H384 H 0.54401 0.12202 0.36342 0.0
H385 H 0.50474 0.88347 0.33876 0.0
H386 H 0.46591 0.92518 0.33629 0.0
H387 H 0.51301 0.98617 0.37084 0.0
H388 H 0.55176 0.94452 0.37346 0.0
H389 H 0.53564 0.04704 0.35246 0.0
H390 H 0.4053 0.91965 0.36713 0.0
H391 H 0.34851 0.8404 0.3683 0.0
H392 H 0.3108 0.8436 0.33185 0.0
H393 H 0.36781 0.92275 0.33041 0.0
C394 C 0.42371 0.14797 0.33932 0.0
C395 C 0.39966 0.13675 0.32854 0.0
C396 C 0.43821 0.12013 0.3441 0.0
C397 C 0.42964 0.08115 0.33804 0.0
C398 C 0.40636 0.07053 0.32717 0.0
C399 C 0.39142 0.09786 0.3225 0.0
C400 C 0.44445 0.0509 0.34291 0.0
C401 C 0.41319 0.00543 0.3439 0.0
C402 C 0.48903 0.06613 0.34623 0.0
C403 C 0.5243 0.11309 0.34476 0.0
C404 C 0.53295 0.13367 0.33347 0.0
C405 C 0.56623 0.17799 0.33216 0.0
C406 C 0.59132 0.20195 0.34207 0.0
C407 C 0.58328 0.1816 0.3533 0.0
C408 C 0.55 0.1373 0.35465 0.0
C409 C 0.50584 0.90476 0.346 0.0
C410 C 0.5318 0.91093 0.35625 0.0
C411 C 0.48358 0.92859 0.34457 0.0
C412 C 0.48687 0.95898 0.35335 0.0
C413 C 0.51024 0.96301 0.36394 0.0
C414 C 0.53218 0.93893 0.36543 0.0
C415 C 0.47021 0.98993 0.35087 0.0
C416 C 0.50114 0.03553 0.35033 0.0
C417 C 0.42549 0.97472 0.3478 0.0
C418 C 0.39109 0.92711 0.34864 0.0
C419 C 0.38515 0.90339 0.35933 0.0
C420 C 0.35287 0.85849 0.36005 0.0
C421 C 0.32612 0.83695 0.35015 0.0
C422 C 0.33156 0.86031 0.33952 0.0
C423 C 0.36381 0.90522 0.33875 0.0
H424 H 0.30115 0.80219 0.35072 0.0
H425 H 0.61708 0.23625 0.34104 0.0
H426 H 0.26178 0.33517 0.49622 0.0
H427 H 0.33577 0.3574 0.50372 0.0
H428 H 0.36167 0.49128 0.50854 0.0
H429 H 0.28695 0.46912 0.50108 0.0
H430 H 0.42895 0.48511 0.49589 0.0
H431 H 0.34636 0.43167 0.53246 0.0
H432 H 0.28573 0.37772 0.54533 0.0
H433 H 0.32896 0.28305 0.53976 0.0
H434 H 0.38949 0.33622 0.52672 0.0
H435 H 0.61075 0.53588 0.54037 0.0
H436 H 0.5309 0.49783 0.53703 0.0
H437 H 0.5487 0.45313 0.50253 0.0
H438 H 0.62896 0.49256 0.50557 0.0
H439 H 0.45916 0.41644 0.53098 0.0
H440 H 0.49825 0.4712 0.48336 0.0
H441 H 0.56226 0.52443 0.47127 0.0
H442 H 0.60518 0.61931 0.49994 0.0
H443 H 0.5422 0.56584 0.51238 0.0
C444 C 0.28301 0.36935 0.49894 0.0
C445 C 0.26852 0.40047 0.498 0.0
C446 C 0.32526 0.3819 0.50328 0.0
C447 C 0.35412 0.4259 0.50673 0.0
C448 C 0.33977 0.4571 0.50594 0.0
C449 C 0.29709 0.44439 0.50173 0.0
C450 C 0.3999 0.43938 0.51061 0.0
C451 C 0.43542 0.4702 0.5036 0.0
C452 C 0.40847 0.41978 0.52063 0.0
C453 C 0.37225 0.38782 0.52852 0.0
C454 C 0.34273 0.39922 0.5339 0.0
C455 C 0.30841 0.3688 0.54124 0.0
C456 C 0.30343 0.32695 0.54334 0.0
C457 C 0.33283 0.31547 0.53812 0.0
C458 C 0.36719 0.34576 0.53076 0.0
C459 C 0.59775 0.51687 0.53221 0.0
C460 C 0.62647 0.51825 0.5231 0.0
C461 C 0.55192 0.49507 0.53032 0.0
C462 C 0.53403 0.47389 0.51938 0.0
C463 C 0.56202 0.47038 0.51092 0.0
C464 C 0.60792 0.49271 0.51271 0.0
C465 C 0.48787 0.46155 0.51616 0.0
C466 C 0.45243 0.43117 0.52328 0.0
C467 C 0.47918 0.48161 0.50629 0.0
C468 C 0.51545 0.51482 0.49871 0.0
C469 C 0.52113 0.5036 0.48702 0.0
C470 C 0.55737 0.53363 0.48016 0.0
C471 C 0.58742 0.57541 0.48478 0.0
C472 C 0.5817 0.58702 0.49635 0.0
C473 C 0.54593 0.55677 0.50335 0.0
H474 H 0.6151 0.59869 0.47938 0.0
H475 H 0.27684 0.30344 0.54903 0.0
H476 H 0.82742 0.27525 0.66814 0.0
H477 H 0.87813 0.35176 0.67469 0.0
H478 H 0.98986 0.33253 0.66872 0.0
H479 H 0.93981 0.25662 0.66219 0.0
H480 H 0.0001 0.38051 0.68915 0.0
H481 H 0.96384 0.38067 0.64764 0.0
H482 H 0.91407 0.36416 0.63031 0.0
H483 H 0.86048 0.43996 0.6461 0.0
H484 H 0.90958 0.45644 0.66361 0.0
H485 H 0.12539 0.6304 0.66762 0.0
H486 H 0.08647 0.55039 0.66418 0.0
H487 H 0.04091 0.52787 0.70081 0.0
H488 H 0.08039 0.60761 0.70442 0.0
H489 H -5e-05 0.49975 0.66482 0.0
H490 H 0.01543 0.42411 0.70969 0.0
H491 H 0.07074 0.44061 0.7256 0.0
H492 H 0.17614 0.51637 0.70075 0.0
H493 H 0.12153 0.49984 0.68465 0.0
C494 C 0.86272 0.28716 0.66843 0.0
C495 C 0.87965 0.2601 0.66454 0.0
C496 C 0.89163 0.33084 0.67212 0.0
C497 C 0.93776 0.34785 0.67208 0.0
C498 C 0.95443 0.32008 0.66882 0.0
C499 C 0.92573 0.27676 0.66502 0.0
C500 C 0.96906 0.39535 0.67459 0.0
C501 C -3e-05 0.40669 0.6839 0.0
C502 C 0.96966 0.42931 0.66749 0.0
C503 C 0.94 0.41935 0.657 0.0
C504 C 0.94115 0.39348 0.64747 0.0
C505 C 0.91313 0.38419 0.6376 0.0
C506 C 0.88403 0.40088 0.63712 0.0
C507 C 0.88298 0.42698 0.64649 0.0
C508 C 0.91091 0.43632 0.65639 0.0
C509 C 0.10814 0.60845 0.67505 0.0
C510 C 0.10573 0.62558 0.68627 0.0
C511 C 0.08565 0.56267 0.67304 0.0
C512 C 0.06046 0.53309 0.6822 0.0
C513 C 0.0604 0.54994 0.69363 0.0
C514 C 0.08305 0.5957 0.69567 0.0
C515 C 0.0309 0.48525 0.67952 0.0
C516 C 0.00013 0.47376 0.67015 0.0
C517 C 0.03115 0.45122 0.68641 0.0
C518 C 0.06432 0.46108 0.696 0.0
C519 C 0.05042 0.44416 0.70761 0.0
C520 C 0.08165 0.45354 0.71667 0.0
C521 C 0.12692 0.47964 0.7142 0.0
C522 C 0.14106 0.49631 0.70266 0.0
C523 C 0.10997 0.48701 0.69358 0.0
H524 H 0.15104 0.48688 0.72122 0.0
H525 H 0.8624 0.39369 0.62946 0.0
H526 H 0.55913 0.81596 0.84212 0.0
H527 H 0.53667 0.86729 0.85031 0.0
H528 H 0.60226 0.95732 0.82093 0.0
H529 H 0.62569 0.90721 0.81298 0.0
H530 H 0.62256 0.0026 0.84051 0.0
H531 H 0.48695 0.88998 0.8228 0.0
H532 H 0.42477 0.81423 0.81929 0.0
H533 H 0.38724 0.80374 0.85631 0.0
H534 H 0.44969 0.87922 0.86009 0.0
H535 H 0.5029 0.1221 0.83882 0.0
H536 H 0.53947 0.0785 0.83548 0.0
H537 H 0.49681 0.01851 0.8703 0.0
H538 H 0.46092 0.06238 0.87386 0.0
H539 H 0.46677 0.95801 0.85029 0.0
H540 H 0.60085 0.07772 0.86661 0.0
H541 H 0.66109 0.15538 0.86852 0.0
H542 H 0.69892 0.15446 0.83196 0.0
H543 H 0.63847 0.07696 0.82976 0.0
C544 C 0.56839 0.84654 0.83739 0.0
C545 C 0.59431 0.85755 0.82693 0.0
C546 C 0.55555 0.87586 0.84206 0.0
C547 C 0.56772 0.91625 0.83623 0.0
C548 C 0.59281 0.92666 0.82567 0.0
C549 C 0.60603 0.8978 0.8211 0.0
C550 C 0.55509 0.94824 0.84108 0.0
C551 C 0.5884 0.99283 0.84256 0.0
C552 C 0.51069 0.93552 0.84398 0.0
C553 C 0.47336 0.89 0.84176 0.0
C554 C 0.46573 0.87134 0.83022 0.0
C555 C 0.4304 0.82848 0.82818 0.0
C556 C 0.40217 0.80413 0.83758 0.0
C557 C 0.4092 0.8226 0.84904 0.0
C558 C 0.44457 0.86541 0.85114 0.0
C559 C 0.50258 0.10082 0.84595 0.0
C560 C 0.47851 0.09546 0.85655 0.0
C561 C 0.52342 0.07583 0.84401 0.0
C562 C 0.52032 0.04496 0.8526 0.0
C563 C 0.49934 0.04203 0.86355 0.0
C564 C 0.47908 0.06744 0.86558 0.0
C565 C 0.53412 0.01218 0.84956 0.0
C566 C 0.50097 0.96751 0.84839 0.0
C567 C 0.57845 0.025 0.8467 0.0
C568 C 0.61486 0.07162 0.84799 0.0
C569 C 0.62175 0.09419 0.85894 0.0
C570 C 0.65599 0.13817 0.86008 0.0
C571 C 0.68375 0.15988 0.85036 0.0
C572 C 0.67737 0.13762 0.83948 0.0
C573 C 0.64315 0.09364 0.83828 0.0
H574 H 0.71025 0.19392 0.85127 0.0
H575 H 0.37477 0.77099 0.83597 0.0
H576 H 0.54831 0.59532 0.79142 0.0
H577 H 0.50941 0.51616 0.79541 0.0
H578 H 0.44406 0.53595 0.8257 0.0
H579 H 0.48495 0.61597 0.82211 0.0
H580 H 0.47981 0.49221 0.83271 0.0
H581 H 0.38784 0.47455 0.79918 0.0
H582 H 0.36945 0.48404 0.77847 0.0
H583 H 0.43926 0.42027 0.76507 0.0
H584 H 0.45861 0.41091 0.7857 0.0
H585 H 0.34494 0.26619 0.84624 0.0
H586 H 0.36877 0.33984 0.8384 0.0
H587 H 0.46166 0.32947 0.81496 0.0
H588 H 0.43789 0.25478 0.82282 0.0
H589 H 0.40979 0.36627 0.80416 0.0
H590 H 0.50233 0.38714 0.83868 0.0
H591 H 0.51551 0.37574 0.85975 0.0
H592 H 0.43697 0.43235 0.87151 0.0
H593 H 0.42284 0.44354 0.8505 0.0
C594 C 0.52468 0.58286 0.79873 0.0
C595 C 0.52012 0.61216 0.80653 0.0
C596 C 0.50221 0.53728 0.80098 0.0
C597 C 0.47369 0.51978 0.81088 0.0
C598 C 0.46618 0.54861 0.81807 0.0
C599 C 0.48935 0.59437 0.81596 0.0
C600 C 0.45643 0.47283 0.81459 0.0
C601 C 0.46371 0.46473 0.82647 0.0
C602 C 0.43655 0.4368 0.80643 0.0
C603 C 0.425 0.44238 0.794 0.0
C604 C 0.39958 0.46286 0.79182 0.0
C605 C 0.38892 0.46815 0.78009 0.0
C606 C 0.40326 0.45286 0.77046 0.0
C607 C 0.42821 0.43213 0.77254 0.0
C608 C 0.43898 0.42677 0.78425 0.0
C609 C 0.37034 0.27919 0.83938 0.0
C610 C 0.38971 0.25451 0.83521 0.0
C611 C 0.38389 0.32143 0.83491 0.0
C612 C 0.41711 0.34014 0.82617 0.0
C613 C 0.4359 0.31544 0.82172 0.0
C614 C 0.42248 0.27296 0.82625 0.0
C615 C 0.43312 0.38629 0.82218 0.0
C616 C 0.42573 0.39407 0.81031 0.0
C617 C 0.45227 0.42205 0.83037 0.0
C618 C 0.46124 0.41585 0.84301 0.0
C619 C 0.48762 0.39688 0.84576 0.0
C620 C 0.49531 0.3905 0.85769 0.0
C621 C 0.47702 0.40322 0.86696 0.0
C622 C 0.4511 0.42247 0.86432 0.0
C623 C 0.44329 0.4289 0.8524 0.0
H624 H 0.48301 0.39825 0.87619 0.0
H625 H 0.39498 0.45699 0.76139 0.0
H626 H 0.87764 0.50601 0.99226 0.0
H627 H 0.92353 0.47163 0.99413 0.0
H628 H 0.96249 0.50109 0.95713 0.0
H629 H 0.91687 0.5361 0.95512 0.0
H630 H 0.954 0.41456 0.96838 0.0
H631 H 0.03263 0.57404 0.97067 0.0
H632 H 0.03738 0.64467 0.97653 0.0
H633 H 0.02426 0.60689 0.01352 0.0
H634 H 0.01951 0.53574 0.0079 0.0
H635 H 0.16114 0.41948 0.98105 0.0
H636 H 0.11299 0.44635 0.97285 0.0
H637 H 0.0567 0.43635 0.00793 0.0
H638 H 0.1034 0.40854 0.01601 0.0
H639 H 0.07913 0.51738 0.99453 0.0
H640 H 0.00166 0.35565 0.99088 0.0
H641 H 0.99475 0.28536 0.98373 0.0
H642 H 0.00684 0.3299 0.94733 0.0
H643 H 0.01449 0.40079 0.95429 0.0
C644 C 0.89452 0.5038 0.98436 0.0
C645 C 0.89432 0.5248 0.97361 0.0
C646 C 0.92076 0.48407 0.98546 0.0
C647 C 0.9468 0.48452 0.97581 0.0
C648 C 0.94259 0.50052 0.96467 0.0
C649 C 0.91653 0.52061 0.96357 0.0
C650 C 0.98388 0.47623 0.97811 0.0
C651 C 0.98181 0.4373 0.9739 0.0
C652 C 0.02016 0.50615 0.98525 0.0
C653 C 0.02557 0.54961 0.98886 0.0
C654 C 0.03087 0.58083 0.98007 0.0
C655 C 0.03361 0.6209 0.98334 0.0
C656 C 0.03127 0.63021 0.9954 0.0
C657 C 0.02639 0.59957 0.00421 0.0
C658 C 0.02381 0.55943 0.00099 0.0
C659 C 0.13896 0.42377 0.98699 0.0
C660 C 0.13575 0.41186 -0.00087 0.0
C661 C 0.11144 0.43888 0.98232 0.0
C662 C 0.08126 0.44312 0.98981 0.0
C663 C 0.07979 0.43334 0.00202 0.0
C664 C 0.10637 0.41737 0.00661 0.0
C665 C 0.04909 0.45516 0.98497 0.0
C666 C 0.05193 0.49494 0.98879 0.0
C667 C 0.01407 0.42634 0.97728 0.0
C668 C 0.00923 0.3837 0.97311 0.0
C669 C 0.00329 0.35062 0.98136 0.0
C670 C 0.99914 0.31064 0.97734 0.0
C671 C 0.00051 0.30323 0.96508 0.0
C672 C 0.00589 0.33573 0.95682 0.0
C673 C 0.01012 0.3758 0.9608 0.0
H674 H 0.99728 0.27225 0.96199 0.0
H675 H 0.03323 0.66117 0.9979 0.0
H676 H 0.38862 0.93335 0.12361 0.0
H677 H 0.46816 0.97771 0.12716 0.0
H678 H 0.4519 0.91297 0.16126 0.0
H679 H 0.37198 0.86935 0.15794 0.0
H680 H 0.49169 0.99848 0.16425 0.0
H681 H 0.51184 0.90275 0.13729 0.0
H682 H 0.50351 0.86221 0.11847 0.0
H683 H 0.56809 0.98529 0.09911 0.0
H684 H 0.57628 0.02657 0.1178 0.0
H685 H 0.71348 0.08506 0.18116 0.0
H686 H 0.63902 0.03628 0.17362 0.0
H687 H 0.66162 0.12772 0.14481 0.0
H688 H 0.73709 0.17757 0.15239 0.0
H689 H 0.62018 0.03308 0.13805 0.0
H690 H 0.60074 0.12807 0.16551 0.0
H691 H 0.61007 0.1673 0.18463 0.0
H692 H 0.5441 0.04276 0.20328 0.0
H693 H 0.53498 0.00278 0.18429 0.0
C694 C 0.40203 0.9274 0.1317 0.0
C695 C 0.37374 0.89814 0.14057 0.0
C696 C 0.44772 0.95291 0.13371 0.0
C697 C 0.4661 0.94903 0.14453 0.0
C698 C 0.43843 0.9169 0.1529 0.0
C699 C 0.39271 0.89174 0.15095 0.0
C700 C 0.51261 0.98199 0.14779 0.0
C701 C 0.51975 0.00541 0.15858 0.0
C702 C 0.5492 0.99247 0.14019 0.0
C703 C 0.54426 0.96773 0.12894 0.0
C704 C 0.52391 0.92116 0.12901 0.0
C705 C 0.51929 0.89805 0.11836 0.0
C706 C 0.53514 0.92115 0.10759 0.0
C707 C 0.55576 0.96743 0.10746 0.0
C708 C 0.56045 0.99071 0.11808 0.0
C709 C 0.70288 0.09504 0.1732 0.0
C710 C 0.73131 0.13535 0.16738 0.0
C711 C 0.6602 0.06702 0.16892 0.0
C712 C 0.64485 0.07845 0.15869 0.0
C713 C 0.67303 0.11838 0.15272 0.0
C714 C 0.71591 0.1469 0.1571 0.0
C715 C 0.59885 0.04852 0.15456 0.0
C716 C 0.59187 0.02596 0.14364 0.0
C717 C 0.56226 0.03851 0.16204 0.0
C718 C 0.56752 0.06245 0.17349 0.0
C719 C 0.58856 0.10906 0.17371 0.0
C720 C 0.59374 0.13143 0.18452 0.0
C721 C 0.57778 0.10755 0.19517 0.0
C722 C 0.55649 0.06122 0.19503 0.0
C723 C 0.55126 0.03868 0.18424 0.0
H724 H 0.58182 0.12493 0.20353 0.0
H725 H 0.53154 0.90319 0.09936 0.0
H726 H 0.50205 0.37444 0.32282 0.0
H727 H 0.539 0.45449 0.32614 0.0
H728 H 0.47789 0.46963 0.29425 0.0
H729 H 0.44235 0.39009 0.29057 0.0
H730 H 0.55683 0.54346 0.29825 0.0
H731 H 0.42331 0.45179 0.32138 0.0
H732 H 0.3769 0.38902 0.33482 0.0
H733 H 0.47922 0.44261 0.36156 0.0
H734 H 0.52607 0.50582 0.34831 0.0
H735 H 0.55998 0.74104 0.31994 0.0
H736 H 0.53228 0.66553 0.31207 0.0
H737 H 0.59144 0.63587 0.34202 0.0
H738 H 0.61848 0.70996 0.3499 0.0
H739 H 0.50897 0.56933 0.33788 0.0
H740 H 0.64177 0.66244 0.31488 0.0
H741 H 0.68862 0.72425 0.30128 0.0
H742 H 0.58838 0.66768 0.27403 0.0
H743 H 0.54067 0.6058 0.28754 0.0
C744 C 0.49776 0.39496 0.31627 0.0
C745 C 0.46843 0.3757 0.30659 0.0
C746 C 0.51865 0.4407 0.31822 0.0
C747 C 0.50975 0.46768 0.31069 0.0
C748 C 0.48473 0.44934 0.30027 0.0
C749 C 0.46443 0.40371 0.29818 0.0
C750 C 0.52122 0.51303 0.31451 0.0
C751 C 0.54605 0.54915 0.30685 0.0
C752 C 0.50697 0.52043 0.32572 0.0
C753 C 0.47819 0.48337 0.33386 0.0
C754 C 0.43582 0.45017 0.33014 0.0
C755 C 0.40947 0.41455 0.33771 0.0
C756 C 0.42519 0.41182 0.34901 0.0
C757 C 0.46718 0.44475 0.35278 0.0
C758 C 0.4935 0.48063 0.34529 0.0
C759 C 0.56663 0.71818 0.32486 0.0
C760 C 0.59164 0.73162 0.33549 0.0
C761 C 0.55108 0.67524 0.32033 0.0
C762 C 0.5602 0.64527 0.32642 0.0
C763 C 0.58406 0.6584 0.33717 0.0
C764 C 0.59966 0.70097 0.34163 0.0
C765 C 0.54556 0.60011 0.32175 0.0
C766 C 0.51966 0.56379 0.32923 0.0
C767 C 0.55878 0.59271 0.31039 0.0
C768 C 0.58745 0.62981 0.30226 0.0
C769 C 0.62957 0.6634 0.30602 0.0
C770 C 0.65631 0.69839 0.29833 0.0
C771 C 0.64143 0.69997 0.28681 0.0
C772 C 0.59982 0.66647 0.28296 0.0
C773 C 0.57293 0.63142 0.29063 0.0
H774 H 0.66218 0.72708 0.28086 0.0
H775 H 0.40479 0.38438 0.35489 0.0
H776 H 0.09913 0.49268 0.45719 0.0
H777 H 0.0594 0.53388 0.45904 0.0
H778 H 0.07277 0.53492 0.49749 0.0
H779 H 0.11404 0.49601 0.49568 0.0
H780 H 0.98355 0.50743 0.46794 0.0
H781 H 0.06319 0.6132 0.51109 0.0
H782 H 0.13753 0.65834 0.51997 0.0
H783 H 0.1969 0.67768 0.48515 0.0
H784 H 0.12291 0.63319 0.47604 0.0
H785 H 0.82775 0.54357 0.49948 0.0
H786 H 0.88153 0.52396 0.49166 0.0
H787 H 0.97683 0.66299 0.48675 0.0
H788 H 0.92419 0.68245 0.49526 0.0
H789 H 0.0174 0.63017 0.49624 0.0
H790 H 0.92199 0.5852 0.46256 0.0
H791 H 0.85172 0.54741 0.45128 0.0
H792 H 0.8315 0.42076 0.46272 0.0
H793 H 0.90135 0.4578 0.4742 0.0
C794 C 0.09489 0.50302 0.46601 0.0
C795 C 0.10982 0.49091 0.47628 0.0
C796 C 0.07179 0.52626 0.46707 0.0
C797 C 0.06293 0.53766 0.47841 0.0
C798 C 0.07981 0.52752 0.48861 0.0
C799 C 0.10347 0.50501 0.48755 0.0
C800 C 0.0327 0.55623 0.47976 0.0
C801 C 0.99117 0.5346 0.47403 0.0
C802 C 0.04277 0.59239 0.48748 0.0
C803 C 0.08744 0.61957 0.49289 0.0
C804 C 0.09207 0.62728 0.50532 0.0
C805 C 0.13417 0.65271 0.51039 0.0
C806 C 0.17192 0.67078 0.50313 0.0
C807 C 0.16764 0.66354 0.49077 0.0
C808 C 0.12563 0.63817 0.48565 0.0
C809 C 0.85997 0.56978 0.49655 0.0
C810 C 0.87192 0.61447 0.498 0.0
C811 C 0.89071 0.55861 0.49202 0.0
C812 C 0.93342 0.59195 0.48849 0.0
C813 C 0.94441 0.63657 0.48947 0.0
C814 C 0.91422 0.64769 0.49429 0.0
C815 C 0.96774 0.5807 0.48464 0.0
C816 C 0.00997 0.60354 0.48997 0.0
C817 C 0.95889 0.54683 0.4762 0.0
C818 C 0.91678 0.52433 0.46932 0.0
C819 C 0.9024 0.5493 0.46274 0.0
C820 C 0.86266 0.528 0.4563 0.0
C821 C 0.83712 0.48172 0.4563 0.0
C822 C 0.85131 0.45661 0.46273 0.0
C823 C 0.891 0.47774 0.4692 0.0
H824 H 0.80637 0.46529 0.45131 0.0
H825 H 0.20448 0.69043 0.50708 0.0
H826 H 0.618 0.07382 0.6245 0.0
H827 H 0.53828 0.03112 0.62806 0.0
H828 H 0.55757 0.08609 0.66364 0.0
H829 H 0.63746 0.12837 0.66026 0.0
H830 H 0.51695 0.9981 0.66429 0.0
H831 H 0.4987 0.10595 0.64217 0.0
H832 H 0.5068 0.15383 0.62497 0.0
H833 H 0.4367 0.03895 0.60255 0.0
H834 H 0.42871 0.99035 0.61959 0.0
H835 H 0.29939 0.91501 0.68421 0.0
H836 H 0.37379 0.96264 0.6765 0.0
H837 H 0.34178 0.88151 0.64478 0.0
H838 H 0.26624 0.83279 0.65254 0.0
H839 H 0.38729 0.97778 0.64071 0.0
H840 H 0.40397 0.87025 0.66328 0.0
H841 H 0.39548 0.82322 0.68073 0.0
H842 H 0.46896 0.93932 0.7025 0.0
H843 H 0.47751 0.98712 0.68521 0.0
C844 C 0.60527 0.07809 0.63295 0.0
C845 C 0.63433 0.10396 0.64218 0.0
C846 C 0.55951 0.05355 0.63496 0.0
C847 C 0.54198 0.05494 0.64617 0.0
C848 C 0.57046 0.08414 0.65497 0.0
C849 C 0.61618 0.1085 0.65299 0.0
C850 C 0.49549 0.02182 0.64932 0.0
C851 C 0.48862 0.9942 0.65922 0.0
C852 C 0.45862 0.01538 0.64241 0.0
C853 C 0.46355 0.04452 0.63213 0.0
C854 C 0.48539 0.09089 0.63355 0.0
C855 C 0.48988 0.11817 0.62383 0.0
C856 C 0.4724 0.09945 0.61266 0.0
C857 C 0.45029 0.0534 0.6112 0.0
C858 C 0.44574 0.02597 0.62089 0.0
C859 C 0.30793 0.90704 0.67558 0.0
C860 C 0.27682 0.87003 0.66898 0.0
C861 C 0.35059 0.93435 0.67121 0.0
C862 C 0.36327 0.92552 0.66011 0.0
C863 C 0.33246 0.8888 0.65339 0.0
C864 C 0.28955 0.86091 0.65785 0.0
C865 C 0.40907 0.95504 0.65578 0.0
C866 C 0.41581 0.98174 0.64569 0.0
C867 C 0.44601 0.96086 0.66252 0.0
C868 C 0.44102 0.93226 0.67296 0.0
C869 C 0.41801 0.88577 0.67181 0.0
C870 C 0.41329 0.85898 0.68167 0.0
C871 C 0.43164 0.87828 0.69272 0.0
C872 C 0.45482 0.92444 0.69393 0.0
C873 C 0.45965 0.95139 0.6841 0.0
H874 H 0.42795 0.85748 0.70034 0.0
H875 H 0.47588 0.12063 0.60515 0.0
H876 H 0.24521 0.24475 0.98058 0.0
H877 H 0.27678 0.23326 0.96242 0.0
H878 H 0.35571 0.37503 0.95736 0.0
H879 H 0.32213 0.38663 0.97535 0.0
H880 H 0.32816 0.34072 0.93705 0.0
H881 H 0.40279 0.31059 0.96718 0.0
H882 H 0.41385 0.27982 0.98591 0.0
H883 H 0.33526 0.14766 0.97206 0.0
H884 H 0.32316 0.17755 0.95331 0.0
H885 H 0.41732 0.20555 0.89993 0.0
H886 H 0.42086 0.24753 0.91795 0.0
H887 H 0.29639 0.23814 0.90822 0.0
H888 H 0.29354 0.19805 0.89014 0.0
H889 H 0.37269 0.22565 0.93647 0.0
H890 H 0.28456 0.32028 0.91771 0.0
H891 H 0.28618 0.35981 0.89922 0.0
H892 H 0.41542 0.38013 0.89078 0.0
H893 H 0.41494 0.34138 0.90929 0.0
C894 C 0.26935 0.27353 0.97562 0.0
C895 C 0.28141 0.3166 0.97941 0.0
C896 C 0.28773 0.26694 0.96527 0.0
C897 C 0.31969 0.30328 0.95867 0.0
C898 C 0.3314 0.34645 0.96234 0.0
C899 C 0.3122 0.35306 0.9726 0.0
C900 C 0.33915 0.29545 0.9477 0.0
C901 C 0.33831 0.31589 0.93694 0.0
C902 C 0.35466 0.26473 0.9476 0.0
C903 C 0.36194 0.24637 0.95884 0.0
C904 C 0.38765 0.27494 0.96815 0.0
C905 C 0.39412 0.25765 0.97877 0.0
C906 C 0.37524 0.21181 0.98018 0.0
C907 C 0.3499 0.18317 0.97095 0.0
C908 C 0.34329 0.20028 0.96032 0.0
C909 C 0.39103 0.21296 0.90159 0.0
C910 C 0.35521 0.19853 0.89358 0.0
C911 C 0.39308 0.23694 0.91188 0.0
C912 C 0.35928 0.24672 0.91437 0.0
C913 C 0.32361 0.2323 0.90636 0.0
C914 C 0.32183 0.20895 0.89604 0.0
C915 C 0.35886 0.2688 0.92574 0.0
C916 C 0.36346 0.25118 0.93659 0.0
C917 C 0.3489 0.30363 0.92597 0.0
C918 C 0.34958 0.32766 0.91489 0.0
C919 C 0.31348 0.33346 0.91197 0.0
C920 C 0.31417 0.35567 0.90146 0.0
C921 C 0.35084 0.3724 0.89381 0.0
C922 C 0.38697 0.36706 0.89668 0.0
C923 C 0.38648 0.34492 0.90718 0.0
H924 H 0.3513 0.38953 0.88568 0.0
H925 H 0.38027 0.19849 0.98841 0.0
H926 H 0.03206 0.31599 0.15306 0.0
H927 H 0.06978 0.34148 0.13392 0.0
H928 H 0.94841 0.32081 0.11768 0.0
H929 H 0.90988 0.29427 0.13686 0.0
H930 H 0.98323 0.27994 0.10549 0.0
H931 H 0.04129 0.42939 0.12032 0.0
H932 H 0.07871 0.49168 0.13457 0.0
H933 H 0.19429 0.47749 0.13418 0.0
H934 H 0.15806 0.41578 0.11976 0.0
H935 H 0.08512 0.34505 0.04918 0.0
H936 H 0.04843 0.34652 0.06767 0.0
H937 H 0.16306 0.36838 0.08802 0.0
H938 H 0.20064 0.36845 0.06947 0.0
H939 H 0.12862 0.41435 0.09748 0.0
H940 H 0.07196 0.26369 0.08462 0.0
H941 H 0.0381 0.20086 0.07047 0.0
H942 H 0.92138 0.21297 0.06836 0.0
H943 H 0.95483 0.2763 0.08238 0.0
C944 C 0.01335 0.3173 0.14547 0.0
C945 C 0.96773 0.3025 0.14647 0.0
C946 C 0.0352 0.33244 0.13454 0.0
C947 C 0.01207 0.33349 0.12438 0.0
C948 C 0.96693 0.32041 0.12543 0.0
C949 C 0.94494 0.30518 0.13639 0.0
C950 C 0.03372 0.3429 0.11246 0.0
C951 C 0.01447 0.30989 0.10363 0.0
C952 C 0.07532 0.38115 0.1102 0.0
C953 C 0.09685 0.41779 0.11902 0.0
C954 C 0.07458 0.43939 0.12333 0.0
C955 C 0.0956 0.47463 0.13141 0.0
C956 C 0.13861 0.48821 0.13536 0.0
C957 C 0.16093 0.46687 0.13114 0.0
C958 C 0.1403 0.43196 0.12295 0.0
C959 C 0.10273 0.35062 0.05758 0.0
C960 C 0.14556 0.35606 0.05789 0.0
C961 C 0.08167 0.35137 0.06814 0.0
C962 C 0.1026 0.35657 0.07925 0.0
C963 C 0.14621 0.36416 0.07955 0.0
C964 C 0.16761 0.36408 0.06895 0.0
C965 C 0.07808 0.35136 0.09057 0.0
C966 C 0.09693 0.38488 0.09927 0.0
C967 C 0.03636 0.31323 0.09282 0.0
C968 C 0.0161 0.27504 0.08443 0.0
C969 C 0.03921 0.25315 0.08106 0.0
C970 C 0.02007 0.21743 0.07308 0.0
C971 C 0.97767 0.20302 0.06849 0.0
C972 C 0.95426 0.22423 0.07191 0.0
C973 C 0.97327 0.26002 0.07987 0.0
H974 H 0.96291 0.17535 0.06231 0.0
H975 H 0.15471 0.51541 0.14165 0.0
H976 H 0.8481 0.21465 0.23693 0.0
H977 H 0.81687 0.17707 0.25599 0.0
H978 H 0.73392 0.05469 0.23713 0.0
H979 H 0.76516 0.09183 0.21805 0.0
H980 H 0.68931 0.07133 0.25568 0.0
H981 H 0.82327 0.06653 0.24924 0.0
H982 H 0.90284 0.09527 0.24544 0.0
H983 H 0.93613 0.17581 0.2771 0.0
H984 H 0.8567 0.148 0.281 0.0
H985 H 0.64063 0.91738 0.30401 0.0
H986 H 0.66045 0.95855 0.28509 0.0
H987 H 0.75343 0.07775 0.3038 0.0
H988 H 0.73445 0.037 0.32261 0.0
H989 H 0.79164 0.06342 0.2852 0.0
H990 H 0.65663 0.06519 0.29219 0.0
H991 H 0.5768 0.03295 0.29638 0.0
H992 H 0.54501 0.9567 0.26394 0.0
H993 H 0.6247 0.98802 0.25964 0.0
C994 C 0.82283 0.17988 0.23683 0.0
C995 C 0.80922 0.15614 0.226 0.0
C996 C 0.80517 0.15845 0.24772 0.0
C997 C 0.77334 0.11308 0.24794 0.0
C998 C 0.75846 0.08972 0.23713 0.0
C999 C 0.77649 0.11096 0.22625 0.0
C1000 C 0.75698 0.08949 0.25948 0.0
C1001 C 0.71153 0.06922 0.26211 0.0
C1002 C 0.7862 0.08744 0.26791 0.0
C1003 C 0.83404 0.10551 0.26534 0.0
C1004 C 0.84756 0.09078 0.25531 0.0
C1005 C 0.89262 0.10674 0.25317 0.0
C1006 C 0.92449 0.13716 0.26105 0.0
C1007 C 0.91138 0.15205 0.27103 0.0
C1008 C 0.86635 0.13625 0.27321 0.0
C1009 C 0.66484 0.95249 0.30411 0.0
C1010 C 0.68624 0.97378 0.31481 0.0
C1011 C 0.67603 0.97601 0.29329 0.0
C1012 C 0.7084 0.02126 0.29304 0.0
C1013 C 0.72853 0.04283 0.30377 0.0
C1014 C 0.71758 0.01941 0.31453 0.0
C1015 C 0.72391 0.04555 0.28153 0.0
C1016 C 0.76932 0.06582 0.27885 0.0
C1017 C 0.69461 0.04752 0.27309 0.0
C1018 C 0.64666 0.02863 0.27566 0.0
C1019 C 0.63263 0.04125 0.286 0.0
C1020 C 0.5874 0.0232 0.28839 0.0
C1021 C 0.55585 0.9927 0.28045 0.0
C1022 C 0.56948 0.98028 0.27009 0.0
C1023 C 0.61468 0.9982 0.26767 0.0
H1024 H 0.52085 0.97877 0.28231 0.0
H1025 H 0.95936 0.14936 0.2594 0.0
H1026 H 0.62578 0.84302 0.40468 0.0
H1027 H 0.62836 0.80968 0.42377 0.0
H1028 H 0.66502 0.72399 0.4052 0.0
H1029 H 0.66269 0.75709 0.38611 0.0
H1030 H 0.60275 0.6815 0.42403 0.0
H1031 H 0.744 0.81431 0.41661 0.0
H1032 H 0.79174 0.8939 0.41208 0.0
H1033 H 0.74616 0.92796 0.44394 0.0
H1034 H 0.69762 0.84851 0.44857 0.0
H1035 H 0.71573 0.63438 0.47097 0.0
H1036 H 0.69068 0.65253 0.45235 0.0
H1037 H 0.66442 0.74438 0.47166 0.0
H1038 H 0.68887 0.7265 0.49017 0.0
H1039 H 0.71837 0.78298 0.45259 0.0
H1040 H 0.57685 0.65548 0.46018 0.0
H1041 H 0.52072 0.57769 0.4644 0.0
H1042 H 0.56206 0.53514 0.43328 0.0
H1043 H 0.61801 0.61289 0.42877 0.0
C1044 C 0.63365 0.81657 0.40464 0.0
C1045 C 0.64448 0.80298 0.39392 0.0
C1046 C 0.63523 0.79769 0.41554 0.0
C1047 C 0.64734 0.76478 0.41585 0.0
C1048 C 0.65569 0.74941 0.40511 0.0
C1049 C 0.65456 0.76854 0.39424 0.0
C1050 C 0.65454 0.74862 0.4274 0.0
C1051 C 0.62832 0.70349 0.43024 0.0
C1052 C 0.6872 0.77769 0.43557 0.0
C1053 C 0.71682 0.82547 0.43287 0.0
C1054 C 0.7439 0.83877 0.4226 0.0
C1055 C 0.77115 0.88386 0.42002 0.0
C1056 C 0.77188 0.91597 0.4277 0.0
C1057 C 0.7455 0.90305 0.43799 0.0
C1058 C 0.71814 0.858 0.4406 0.0
C1059 C 0.70408 0.658 0.47126 0.0
C1060 C 0.70495 0.67946 0.48202 0.0
C1061 C 0.68955 0.66815 0.46064 0.0
C1062 C 0.67584 0.69991 0.46065 0.0
C1063 C 0.67506 0.71995 0.47146 0.0
C1064 C 0.68927 0.70975 0.48202 0.0
C1065 C 0.66651 0.71566 0.4493 0.0
C1066 C 0.69266 0.76085 0.44643 0.0
C1067 C 0.63349 0.68675 0.44119 0.0
C1068 C 0.60191 0.63986 0.44422 0.0
C1069 C 0.57429 0.62947 0.45431 0.0
C1070 C 0.54227 0.58545 0.4567 0.0
C1071 C 0.53792 0.55147 0.44914 0.0
C1072 C 0.5655 0.56148 0.43914 0.0
C1073 C 0.59722 0.60554 0.43663 0.0
H1074 H 0.51317 0.51738 0.45103 0.0
H1075 H 0.79296 0.95086 0.42569 0.0
H1076 H 0.91337 0.66779 0.55123 0.0
H1077 H 0.95253 0.67637 0.57017 0.0
H1078 H 0.83198 0.63883 0.58971 0.0
H1079 H 0.79232 0.62922 0.57086 0.0
H1080 H 0.91026 0.72599 0.59522 0.0
H1081 H 0.86418 0.57095 0.59139 0.0
H1082 H 0.85686 0.50451 0.58133 0.0
H1083 H 0.99866 0.56541 0.57939 0.0
H1084 H 0.00684 0.63253 0.5893 0.0
H1085 H 0.9795 0.72936 0.65461 0.0
H1086 H 0.94065 0.70954 0.63549 0.0
H1087 H 0.05448 0.71438 0.61857 0.0
H1088 H 0.09363 0.73381 0.63778 0.0
H1089 H 0.98106 0.64335 0.61122 0.0
H1090 H 0.03001 0.79761 0.61387 0.0
H1091 H 0.04171 0.86869 0.62194 0.0
H1092 H 0.90089 0.81468 0.62459 0.0
H1093 H 0.8883 0.74315 0.61659 0.0
C1094 C 0.89499 0.66045 0.55955 0.0
C1095 C 0.84979 0.64802 0.55955 0.0
C1096 C 0.91737 0.66525 0.57034 0.0
C1097 C 0.89507 0.65827 0.58129 0.0
C1098 C 0.84964 0.64423 0.58132 0.0
C1099 C 0.82705 0.63864 0.57054 0.0
C1100 C 0.92006 0.67018 0.59269 0.0
C1101 C 0.92516 0.70754 0.59886 0.0
C1102 C 0.94096 0.6471 0.59706 0.0
C1103 C 0.93611 0.607 0.59097 0.0
C1104 C 0.89381 0.57042 0.58869 0.0
C1105 C 0.8895 0.53256 0.58305 0.0
C1106 C 0.92726 0.53078 0.57969 0.0
C1107 C 0.96942 0.56685 0.58198 0.0
C1108 C 0.97391 0.6048 0.58762 0.0
C1109 C 0.99647 0.72638 0.64684 0.0
C1110 C 0.03984 0.73338 0.64775 0.0
C1111 C 0.9742 0.7152 0.63588 0.0
C1112 C 0.99483 0.71102 0.62555 0.0
C1113 C 0.03794 0.71752 0.62642 0.0
C1114 C 0.0603 0.7287 0.63741 0.0
C1115 C 0.97089 0.69905 0.61391 0.0
C1116 C 0.96612 0.66183 0.60765 0.0
C1117 C 0.95084 0.72274 0.6093 0.0
C1118 C 0.95823 0.76491 0.61471 0.0
C1119 C 0.00153 0.80073 0.61629 0.0
C1120 C 0.00832 0.84119 0.62077 0.0
C1121 C 0.97206 0.84628 0.62369 0.0
C1122 C 0.92893 0.81077 0.62225 0.0
C1123 C 0.92195 0.77027 0.61773 0.0
H1124 H 0.97739 0.87764 0.62716 0.0
H1125 H 0.92385 0.5014 0.57535 0.0
H1126 H 0.28051 0.95293 0.82476 0.0
H1127 H 0.26587 0.9129 0.80582 0.0
H1128 H 0.34659 0.03642 0.78722 0.0
H1129 H 0.3614 0.0769 0.80614 0.0
H1130 H 0.26463 0.98682 0.77723 0.0
H1131 H 0.38283 0.96429 0.7903 0.0
H1132 H 0.42282 0.94229 0.80444 0.0
H1133 H 0.3136 0.80847 0.80444 0.0
H1134 H 0.27262 0.82979 0.79043 0.0
H1135 H 0.25546 0.9015 0.72055 0.0
H1136 H 0.28842 0.93608 0.73966 0.0
H1137 H 0.20382 0.81278 0.75792 0.0
H1138 H 0.1708 0.77746 0.73869 0.0
H1139 H 0.28974 0.86134 0.76813 0.0
H1140 H 0.16999 0.88442 0.75631 0.0
H1141 H 0.1287 0.90575 0.74244 0.0
H1142 H 0.23989 0.03828 0.74061 0.0
H1143 H 0.28212 0.01753 0.75434 0.0
C1144 C 0.29554 0.97163 0.81667 0.0
C1145 C 0.32191 0.0182 0.81696 0.0
C1146 C 0.28735 0.94861 0.80586 0.0
C1147 C 0.30535 0.97168 0.79514 0.0
C1148 C 0.33248 0.01803 0.79542 0.0
C1149 C 0.34093 0.04108 0.80624 0.0
C1150 C 0.29293 0.94785 0.78354 0.0
C1151 C 0.27086 0.95993 0.77516 0.0
C1152 C 0.29978 0.9118 0.78104 0.0
C1153 C 0.32445 0.89876 0.7894 0.0
C1154 C 0.36716 0.93024 0.79339 0.0
C1155 C 0.39004 0.91789 0.80137 0.0
C1156 C 0.3707 0.87405 0.80536 0.0
C1157 C 0.3285 0.84243 0.80135 0.0
C1158 C 0.30545 0.85463 0.79338 0.0
C1159 C 0.24428 0.88142 0.72859 0.0
C1160 C 0.20995 0.83693 0.72814 0.0
C1161 C 0.26326 0.90125 0.73951 0.0
C1162 C 0.24794 0.8772 0.7502 0.0
C1163 C 0.21596 0.8319 0.74974 0.0
C1164 C 0.19707 0.81183 0.73877 0.0
C1165 C 0.26196 0.90077 0.76182 0.0
C1166 C 0.28391 0.88847 0.7702 0.0
C1167 C 0.25484 0.93657 0.76442 0.0
C1168 C 0.22936 0.9493 0.75626 0.0
C1169 C 0.18576 0.91802 0.75288 0.0
C1170 C 0.16217 0.93002 0.74506 0.0
C1171 C 0.18171 0.97331 0.74062 0.0
C1172 C 0.22483 0.00474 0.74404 0.0
C1173 C 0.24859 0.99289 0.75185 0.0
H1174 H 0.1634 0.98254 0.73456 0.0
H1175 H 0.38845 0.86458 0.81154 0.0
H1176 H 0.63686 0.72737 0.85945 0.0
H1177 H 0.65631 0.70932 0.87891 0.0
H1178 H 0.71622 0.64206 0.8612 0.0
H1179 H 0.69739 0.66033 0.84171 0.0
H1180 H 0.6672 0.59894 0.88281 0.0
H1181 H 0.78202 0.74049 0.86821 0.0
H1182 H 0.81112 0.81581 0.85998 0.0
H1183 H 0.76576 0.85368 0.8912 0.0
H1184 H 0.73569 0.77827 0.89952 0.0
H1185 H 0.82027 0.61465 0.9282 0.0
H1186 H 0.78401 0.61595 0.90953 0.0
H1187 H 0.73921 0.69823 0.92637 0.0
H1188 H 0.77539 0.69744 0.94497 0.0
H1189 H 0.77814 0.73171 0.90517 0.0
H1190 H 0.66705 0.59052 0.9204 0.0
H1191 H 0.63757 0.51483 0.92837 0.0
H1192 H 0.67601 0.47577 0.89608 0.0
H1193 H 0.70633 0.55146 0.88798 0.0
C1194 C 0.65335 0.70795 0.8597 0.0
C1195 C 0.66607 0.69571 0.84906 0.0
C1196 C 0.66447 0.69774 0.87081 0.0
C1197 C 0.68799 0.67472 0.87143 0.0
C1198 C 0.69805 0.65984 0.86087 0.0
C1199 C 0.68749 0.67054 0.84976 0.0
C1200 C 0.70613 0.67027 0.88299 0.0
C1201 C 0.69171 0.62783 0.88769 0.0
C1202 C 0.73772 0.70812 0.88934 0.0
C1203 C 0.75613 0.7536 0.88442 0.0
C1204 C 0.77788 0.76476 0.87327 0.0
C1205 C 0.79462 0.80748 0.86859 0.0
C1206 C 0.79018 0.83947 0.87505 0.0
C1207 C 0.7691 0.82883 0.8862 0.0
C1208 C 0.75221 0.78611 0.8909 0.0
C1209 C 0.80243 0.63275 0.92796 0.0
C1210 C 0.80093 0.65609 0.93808 0.0
C1211 C 0.78156 0.63329 0.9173 0.0
C1212 C 0.75875 0.65703 0.9166 0.0
C1213 C 0.75668 0.67975 0.92672 0.0
C1214 C 0.77739 0.67918 0.93736 0.0
C1215 C 0.73897 0.66027 0.90515 0.0
C1216 C 0.75337 0.70266 0.90039 0.0
C1217 C 0.70748 0.62232 0.89877 0.0
C1218 C 0.6894 0.57681 0.90363 0.0
C1219 C 0.66961 0.56592 0.91504 0.0
C1220 C 0.65266 0.52299 0.91958 0.0
C1221 C 0.65503 0.49055 0.91275 0.0
C1222 C 0.67426 0.50095 0.90137 0.0
C1223 C 0.6913 0.54386 0.89679 0.0
H1224 H 0.64186 0.45732 0.91628 0.0
H1225 H 0.80317 0.87253 0.87142 0.0
H1226 H 0.02614 0.71418 0.01125 0.0
H1227 H 0.06249 0.72179 0.03049 0.0
H1228 H 0.93588 0.63427 0.0468 0.0
H1229 H 0.8991 0.62528 0.02743 0.0
H1230 H 0.98759 0.72041 0.05775 0.0
H1231 H 0.00168 0.59537 0.04647 0.0
H1232 H 0.01991 0.54992 0.03324 0.0
H1233 H 0.15545 0.6552 0.03149 0.0
H1234 H 0.13804 0.70127 0.04475 0.0
H1235 H 0.08228 0.74339 0.1143 0.0
H1236 H 0.0414 0.70508 0.09629 0.0
H1237 H 0.16146 0.77383 0.07544 0.0
H1238 H 0.20297 0.81189 0.0935 0.0
H1239 H 0.10798 0.68833 0.06746 0.0
H1240 H 0.09347 0.81529 0.07721 0.0
H1241 H 0.07651 0.86222 0.09022 0.0
H1242 H 0.94212 0.75589 0.09397 0.0
H1243 H 0.95848 0.70808 0.08111 0.0
C1244 C 0.006 0.69587 0.01886 0.0
C1245 C 0.95968 0.66918 0.01781 0.0
C1246 C 0.02691 0.7001 0.02984 0.0
C1247 C 0.00185 0.67836 0.04001 0.0
C1248 C 0.95573 0.65102 0.03899 0.0
C1249 C 0.93482 0.64602 0.02794 0.0
C1250 C 0.02356 0.68835 0.05188 0.0
C1251 C 0.01317 0.71247 0.06001 0.0
C1252 C 0.05784 0.67917 0.0546 0.0
C1253 C 0.06848 0.65187 0.04653 0.0
C1254 C 0.03532 0.60892 0.04321 0.0
C1255 C 0.04556 0.58295 0.03577 0.0
C1256 C 0.0888 0.59968 0.03151 0.0
C1257 C 0.12197 0.6423 0.03478 0.0
C1258 C 0.11198 0.66828 0.04231 0.0
C1259 C 0.10023 0.74987 0.10593 0.0
C1260 C 0.14576 0.78125 0.10529 0.0
C1261 C 0.07677 0.72791 0.09564 0.0
C1262 C 0.09823 0.73732 0.0845 0.0
C1263 C 0.14426 0.76624 0.08395 0.0
C1264 C 0.1679 0.78804 0.09428 0.0
C1265 C 0.07198 0.72043 0.07334 0.0
C1266 C 0.08182 0.69551 0.0653 0.0
C1267 C 0.03733 0.7292 0.07063 0.0
C1268 C 0.02734 0.75794 0.07832 0.0
C1269 C 0.0604 0.8018 0.08089 0.0
C1270 C 0.05088 0.82857 0.08822 0.0
C1271 C 0.0083 0.812 0.09295 0.0
C1272 C 0.97511 0.76865 0.09032 0.0
C1273 C 0.98448 0.7417 0.08301 0.0
H1274 H 0.00099 0.83278 0.09863 0.0
H1275 H 0.09657 0.57963 0.02568 0.0
H1276 H 0.32362 0.94741 0.18646 0.0
H1277 H 0.34511 0.98917 0.20534 0.0
H1278 H 0.25473 0.03736 0.19783 0.0
H1279 H 0.23593 0.9985 0.17871 0.0
H1280 H 0.3215 0.10033 0.20653 0.0
H1281 H 0.23332 0.94722 0.21843 0.0
H1282 H 0.21311 0.86849 0.21965 0.0
H1283 H 0.33798 0.90574 0.23642 0.0
H1284 H 0.35912 0.98476 0.23517 0.0
H1285 H 0.27476 0.08847 0.27491 0.0
H1286 H 0.27103 0.05258 0.2559 0.0
H1287 H 0.38935 0.17024 0.24395 0.0
H1288 H 0.39208 0.2072 0.26286 0.0
H1289 H 0.31771 0.02715 0.24496 0.0
H1290 H 0.38907 0.1826 0.21469 0.0
H1291 H 0.39105 0.25446 0.21334 0.0
H1292 H 0.26994 0.20088 0.23352 0.0
H1293 H 0.26759 0.12908 0.23506 0.0
C1294 C 0.3086 0.96711 0.18888 0.0
C1295 C 0.2782 0.96986 0.18117 0.0
C1296 C 0.32067 0.99078 0.19969 0.0
C1297 C 0.30118 0.01613 0.20314 0.0
C1298 C 0.27064 0.0185 0.19539 0.0
C1299 C 0.25971 0.99608 0.18447 0.0
C1300 C 0.31185 0.0401 0.21481 0.0
C1301 C 0.32083 0.08424 0.21491 0.0
C1302 C 0.3106 0.01929 0.22583 0.0
C1303 C 0.298 0.97187 0.22658 0.0
C1304 C 0.25658 0.93861 0.2223 0.0
C1305 C 0.24494 0.89395 0.22301 0.0
C1306 C 0.2743 0.88213 0.22807 0.0
C1307 C 0.31532 0.91495 0.23247 0.0
C1308 C 0.32713 0.95967 0.23177 0.0
C1309 C 0.3001 0.10677 0.26826 0.0
C1310 C 0.3336 0.15081 0.27038 0.0
C1311 C 0.29801 0.08609 0.25738 0.0
C1312 C 0.32965 0.10871 0.2484 0.0
C1313 C 0.36397 0.15233 0.25062 0.0
C1314 C 0.36563 0.17338 0.26145 0.0
C1315 C 0.3257 0.08668 0.23667 0.0
C1316 C 0.3187 0.04323 0.23655 0.0
C1317 C 0.32637 0.10721 0.22567 0.0
C1318 C 0.3285 0.15077 0.22512 0.0
C1319 C 0.36306 0.18634 0.21889 0.0
C1320 C 0.36428 0.22707 0.21811 0.0
C1321 C 0.33083 0.23238 0.22341 0.0
C1322 C 0.29613 0.19699 0.22953 0.0
C1323 C 0.29492 0.15633 0.2304 0.0
H1324 H 0.33167 0.26382 0.22272 0.0
H1325 H 0.26523 0.84754 0.22861 0.0
H1326 H 0.27942 0.31873 0.34359 0.0
H1327 H 0.26746 0.3435 0.36296 0.0
H1328 H 0.35209 0.30175 0.37982 0.0
H1329 H 0.36403 0.27648 0.36042 0.0
H1330 H 0.27152 0.26704 0.3906 0.0
H1331 H 0.38638 0.41508 0.37895 0.0
H1332 H 0.42348 0.48087 0.36582 0.0
H1333 H 0.30472 0.48935 0.36463 0.0
H1334 H 0.26722 0.42441 0.37801 0.0
H1335 H 0.24364 0.33238 0.44794 0.0
H1336 H 0.27919 0.32846 0.42948 0.0
H1337 H 0.21002 0.38197 0.40967 0.0
H1338 H 0.17577 0.3877 0.42822 0.0
H1339 H 0.28917 0.41386 0.4008 0.0
H1340 H 0.17252 0.26802 0.411 0.0
H1341 H 0.13061 0.20232 0.42387 0.0
H1342 H 0.2443 0.18514 0.4262 0.0
H1343 H 0.28709 0.25112 0.41346 0.0
C1344 C 0.29592 0.31523 0.35139 0.0
C1345 C 0.32234 0.29522 0.35048 0.0
C1346 C 0.2894 0.32986 0.36245 0.0
C1347 C 0.30916 0.3248 0.37283 0.0
C1348 C 0.33668 0.30611 0.37191 0.0
C1349 C 0.34345 0.29168 0.36082 0.0
C1350 C 0.29709 0.33449 0.38475 0.0
C1351 C 0.27632 0.29944 0.39295 0.0
C1352 C 0.30165 0.3762 0.3876 0.0
C1353 C 0.32393 0.41473 0.3794 0.0
C1354 C 0.36811 0.43083 0.37583 0.0
C1355 C 0.38924 0.468 0.36837 0.0
C1356 C 0.36635 0.48892 0.36429 0.0
C1357 C 0.32239 0.47304 0.36777 0.0
C1358 C 0.30128 0.43627 0.37536 0.0
C1359 C 0.23636 0.34375 0.43967 0.0
C1360 C 0.20657 0.35995 0.43951 0.0
C1361 C 0.25657 0.34132 0.42911 0.0
C1362 C 0.24649 0.35391 0.41812 0.0
C1363 C 0.21822 0.37189 0.41802 0.0
C1364 C 0.1986 0.37509 0.42863 0.0
C1365 C 0.2637 0.34641 0.40669 0.0
C1366 C 0.28504 0.38167 0.39855 0.0
C1367 C 0.25882 0.30455 0.40376 0.0
C1368 C 0.23315 0.26479 0.4114 0.0
C1369 C 0.18868 0.25041 0.41433 0.0
C1370 C 0.16475 0.2131 0.42159 0.0
C1371 C 0.18482 0.18965 0.42588 0.0
C1372 C 0.22883 0.20339 0.42289 0.0
C1373 C 0.25293 0.24072 0.41565 0.0
H1374 H 0.16624 0.16077 0.4315 0.0
H1375 H 0.38276 0.51757 0.35848 0.0
H1376 H 0.09664 0.3579 0.52775 0.0
H1377 H 0.05677 0.33715 0.54684 0.0
H1378 H 0.93438 0.30139 0.52851 0.0
H1379 H 0.97379 0.32122 0.50931 0.0
H1380 H 0.95062 0.34972 0.55216 0.0
H1381 H 0.94358 0.22188 0.53316 0.0
H1382 H 0.97488 0.1809 0.52288 0.0
H1383 H 0.05783 0.19924 0.5533 0.0
H1384 H 0.02758 0.24108 0.56367 0.0
H1385 H 0.79991 0.19698 0.59658 0.0
H1386 H 0.83792 0.23472 0.57805 0.0
H1387 H 0.96185 0.25556 0.59247 0.0
H1388 H 0.92461 0.21837 0.61093 0.0
H1389 H 0.94226 0.21541 0.57027 0.0
H1390 H 0.94673 0.34053 0.58973 0.0
H1391 H 0.91655 0.38278 0.59983 0.0
H1392 H 0.8384 0.37003 0.56875 0.0
H1393 H 0.86753 0.32697 0.55852 0.0
C1394 C 0.06142 0.34647 0.5278 0.0
C1395 C 0.03823 0.34075 0.51703 0.0
C1396 C 0.03874 0.33463 0.5387 0.0
C1397 C 0.99274 0.31761 0.53901 0.0
C1398 C 0.96994 0.31458 0.5284 0.0
C1399 C 0.99245 0.32566 0.51746 0.0
C1400 C 0.96799 0.29869 0.55023 0.0
C1401 C 0.94819 0.32006 0.55609 0.0
C1402 C 0.96551 0.26035 0.55532 0.0
C1403 C 0.98372 0.2351 0.54913 0.0
C1404 C 0.96886 0.21761 0.5376 0.0
C1405 C 0.98632 0.19413 0.53177 0.0
C1406 C 0.01841 0.18757 0.53742 0.0
C1407 C 0.03303 0.20442 0.54892 0.0
C1408 C 0.01573 0.22802 0.55479 0.0
C1409 C 0.83534 0.21006 0.59586 0.0
C1410 C 0.85912 0.20435 0.60521 0.0
C1411 C 0.85699 0.23173 0.58529 0.0
C1412 C 0.90264 0.24782 0.58392 0.0
C1413 C 0.92658 0.24324 0.59336 0.0
C1414 C 0.90515 0.22198 0.60391 0.0
C1415 C 0.92516 0.26667 0.57239 0.0
C1416 C 0.94447 0.24506 0.5664 0.0
C1417 C 0.92699 0.30468 0.56721 0.0
C1418 C 0.90891 0.33 0.57341 0.0
C1419 C 0.92269 0.34623 0.58509 0.0
C1420 C 0.90587 0.37045 0.59083 0.0
C1421 C 0.87549 0.37899 0.58495 0.0
C1422 C 0.86188 0.36332 0.5733 0.0
C1423 C 0.87853 0.339 0.56753 0.0
H1424 H 0.8626 0.39786 0.58939 0.0
H1425 H 0.03184 0.16933 0.53289 0.0
H1426 H 0.61259 0.77297 0.75908 0.0
H1427 H 0.61423 0.80906 0.7401 0.0
H1428 H 0.68145 0.93694 0.75743 0.0
H1429 H 0.67977 0.90137 0.7764 0.0
H1430 H 0.61766 0.92976 0.74111 0.0
H1431 H 0.74067 0.90114 0.7429 0.0
H1432 H 0.77375 0.85323 0.74519 0.0
H1433 H 0.69867 0.77499 0.71506 0.0
H1434 H 0.66468 0.82212 0.7127 0.0
H1435 H 0.73457 0.07951 0.69346 0.0
H1436 H 0.70848 0.03546 0.71184 0.0
H1437 H 0.6576 0.91507 0.69108 0.0
H1438 H 0.68437 0.95869 0.67279 0.0
H1439 H 0.70562 0.91314 0.70862 0.0
H1440 H 0.58843 0.94543 0.7051 0.0
H1441 H 0.55436 0.99226 0.70249 0.0
H1442 H 0.61435 0.06086 0.73524 0.0
H1443 H 0.64964 0.01511 0.73791 0.0
C1444 C 0.62723 0.80872 0.75889 0.0
C1445 C 0.64653 0.83431 0.76923 0.0
C1446 C 0.62815 0.82926 0.74804 0.0
C1447 C 0.64834 0.87568 0.74736 0.0
C1448 C 0.6657 0.90109 0.75778 0.0
C1449 C 0.66498 0.88065 0.76859 0.0
C1450 C 0.65466 0.89823 0.73569 0.0
C1451 C 0.63704 0.9264 0.734 0.0
C1452 C 0.67907 0.89292 0.72634 0.0
C1453 C 0.69978 0.86483 0.72771 0.0
C1454 C 0.73098 0.87352 0.73682 0.0
C1455 C 0.74993 0.84654 0.73812 0.0
C1456 C 0.73822 0.81101 0.7303 0.0
C1457 C 0.70764 0.80247 0.72113 0.0
C1458 C 0.68854 0.82931 0.7198 0.0
C1459 C 0.71732 0.04365 0.69281 0.0
C1460 C 0.71194 0.02264 0.68168 0.0
C1461 C 0.70223 0.01848 0.70331 0.0
C1462 C 0.68092 0.9719 0.70284 0.0
C1463 C 0.67412 0.95093 0.69168 0.0
C1464 C 0.68949 0.97598 0.68122 0.0
C1465 C 0.66883 0.9451 0.71398 0.0
C1466 C 0.68562 0.9162 0.71561 0.0
C1467 C 0.64334 0.94954 0.72319 0.0
C1468 C 0.62202 0.97705 0.72165 0.0
C1469 C 0.59468 0.97074 0.7117 0.0
C1470 C 0.57507 0.99705 0.71021 0.0
C1471 C 0.58217 0.02951 0.71869 0.0
C1472 C 0.60889 0.03571 0.72867 0.0
C1473 C 0.62871 0.00959 0.73018 0.0
H1474 H 0.56694 0.04982 0.71753 0.0
H1475 H 0.75292 0.79015 0.73132 0.0
H1476 H 0.30392 0.06644 0.12529 0.0
H1477 H 0.31359 0.12258 0.1106 0.0
H1478 H 0.28407 0.02828 0.08204 0.0
H1479 H 0.27534 0.97215 0.09664 0.0
H1480 H 0.3459 0.1115 0.0751 0.0
H1481 H 0.20261 0.04092 0.09398 0.0
H1482 H 0.15133 0.01564 0.1112 0.0
H1483 H 0.20478 0.15052 0.12285 0.0
H1484 H 0.25691 0.17656 0.10579 0.0
H1485 H 0.25459 0.19761 0.03247 0.0
H1486 H 0.26957 0.15257 0.04644 0.0
H1487 H 0.30055 0.25025 0.07415 0.0
H1488 H 0.28533 0.29529 0.06032 0.0
H1489 H 0.24143 0.16759 0.08164 0.0
H1490 H 0.38189 0.23769 0.06126 0.0
H1491 H 0.43129 0.26036 0.04366 0.0
H1492 H 0.38 0.12367 0.03413 0.0
H1493 H 0.32983 0.10018 0.05159 0.0
C1494 C 0.30033 0.05785 0.11587 0.0
C1495 C 0.28812 0.0146 0.11215 0.0
C1496 C 0.30582 0.08997 0.10749 0.0
C1497 C 0.29852 0.07924 0.09527 0.0
C1498 C 0.28962 0.03716 0.09144 0.0
C1499 C 0.28453 0.00508 0.09981 0.0
C1500 C 0.29573 0.1102 0.08668 0.0
C1501 C 0.32289 0.12359 0.07646 0.0
C1502 C 0.26588 0.12615 0.08854 0.0
C1503 C 0.23397 0.11065 0.09868 0.0
C1504 C 0.20361 0.06517 0.10025 0.0
C1505 C 0.17438 0.0507 0.10998 0.0
C1506 C 0.17487 0.08144 0.11813 0.0
C1507 C 0.20448 0.12674 0.11654 0.0
C1508 C 0.23387 0.14138 0.10684 0.0
C1509 C 0.26507 0.20978 0.04149 0.0
C1510 C 0.26852 0.24998 0.04528 0.0
C1511 C 0.27381 0.18407 0.04945 0.0
C1512 C 0.28637 0.19819 0.06131 0.0
C1513 C 0.29087 0.23876 0.06503 0.0
C1514 C 0.2822 0.26448 0.05709 0.0
C1515 C 0.29191 0.16936 0.07008 0.0
C1516 C 0.26487 0.15601 0.08031 0.0
C1517 C 0.32148 0.15315 0.06814 0.0
C1518 C 0.35181 0.1672 0.05768 0.0
C1519 C 0.38089 0.21247 0.05536 0.0
C1520 C 0.40908 0.22547 0.04542 0.0
C1521 C 0.40871 0.19348 0.03776 0.0
C1522 C 0.38023 0.14842 0.04006 0.0
C1523 C 0.35194 0.13524 0.04998 0.0
H1524 H 0.43055 0.20361 0.03007 0.0
H1525 H 0.15226 0.07016 0.12567 0.0
H1526 H 0.04997 0.25326 0.20384 0.0
H1527 H 0.1053 0.26635 0.21908 0.0
H1528 H 0.07301 0.35573 0.23753 0.0
H1529 H 0.01562 0.34063 0.22259 0.0
H1530 H 0.17657 0.32867 0.22813 0.0
H1531 H 0.07755 0.34213 0.26819 0.0
H1532 H 0.00054 0.32199 0.27307 0.0
H1533 H 0.95164 0.21736 0.24698 0.0
H1534 H 0.02813 0.23534 0.24238 0.0
H1535 H 0.30618 0.3475 0.27879 0.0
H1536 H 0.26295 0.36479 0.26466 0.0
H1537 H 0.14498 0.24211 0.27417 0.0
H1538 H 0.18736 0.22723 0.28899 0.0
H1539 H 0.12027 0.29584 0.26986 0.0
H1540 H 0.22008 0.25973 0.24921 0.0
H1541 H 0.2938 0.27053 0.24414 0.0
H1542 H 0.3325 0.39909 0.22962 0.0
H1543 H 0.25968 0.38994 0.2351 0.0
C1544 C 0.05511 0.27622 0.21104 0.0
C1545 C 0.02807 0.2954 0.21215 0.0
C1546 C 0.08689 0.28383 0.21974 0.0
C1547 C 0.09272 0.31131 0.22961 0.0
C1548 C 0.06832 0.3335 0.23016 0.0
C1549 C 0.03566 0.32497 0.22162 0.0
C1550 C 0.12125 0.31317 0.23974 0.0
C1551 C 0.16439 0.32177 0.23727 0.0
C1552 C 0.10508 0.30341 0.25165 0.0
C1553 C 0.0587 0.29067 0.2548 0.0
C1554 C 0.05035 0.31453 0.26359 0.0
C1555 C 0.00676 0.30335 0.26634 0.0
C1556 C 0.97122 0.26841 0.26034 0.0
C1557 C 0.97919 0.2443 0.25166 0.0
C1558 C 0.02264 0.25482 0.24902 0.0
C1559 C 0.27084 0.32483 0.27795 0.0
C1560 C 0.24993 0.28601 0.28487 0.0
C1561 C 0.24619 0.33448 0.26984 0.0
C1562 C 0.2008 0.30419 0.26806 0.0
C1563 C 0.17985 0.26613 0.27532 0.0
C1564 C 0.20408 0.25746 0.28376 0.0
C1565 C 0.17535 0.31016 0.25822 0.0
C1566 C 0.13278 0.30326 0.26075 0.0
C1567 C 0.19125 0.31939 0.24626 0.0
C1568 C 0.23461 0.32437 0.24269 0.0
C1569 C 0.24439 0.29041 0.24499 0.0
C1570 C 0.28602 0.29624 0.24206 0.0
C1571 C 0.31774 0.33536 0.23652 0.0
C1572 C 0.30792 0.36881 0.23393 0.0
C1573 C 0.26655 0.36342 0.237 0.0
H1574 H 0.34993 0.33975 0.23424 0.0
H1575 H 0.93752 0.25998 0.26242 0.0
H1576 H 0.81033 0.05473 0.36991 0.0
H1577 H 0.85716 0.11248 0.38418 0.0
H1578 H 0.74869 0.06254 0.40936 0.0
H1579 H 0.70137 0.00462 0.39511 0.0
H1580 H 0.79273 0.15239 0.40866 0.0
H1581 H 0.82794 0.03806 0.41312 0.0
H1582 H 0.85068 0.98331 0.40807 0.0
H1583 H 0.97628 0.08768 0.3954 0.0
H1584 H 0.95395 0.14306 0.4001 0.0
H1585 H 0.93341 0.24729 0.46112 0.0
H1586 H 0.87866 0.19906 0.44625 0.0
H1587 H 0.97587 0.26095 0.41823 0.0
H1588 H 0.03054 0.30973 0.43293 0.0
H1589 H 0.93566 0.16505 0.42089 0.0
H1590 H 0.89631 0.27946 0.41755 0.0
H1591 H 0.87275 0.33073 0.42539 0.0
H1592 H 0.75229 0.2204 0.43872 0.0
H1593 H 0.77545 0.16846 0.43111 0.0
C1594 C 0.7962 0.0562 0.37843 0.0
C1595 C 0.75208 0.02493 0.38138 0.0
C1596 C 0.82313 0.08912 0.3866 0.0
C1597 C 0.80652 0.09146 0.39787 0.0
C1598 C 0.76214 0.06124 0.40071 0.0
C1599 C 0.7352 0.0281 0.39256 0.0
C1600 C 0.83589 0.1249 0.40676 0.0
C1601 C 0.82378 0.15488 0.41143 0.0
C1602 C 0.87646 0.1282 0.41034 0.0
C1603 C 0.88906 0.09473 0.40685 0.0
C1604 C 0.86014 0.04933 0.40907 0.0
C1605 C 0.87303 0.01818 0.40633 0.0
C1606 C 0.91496 0.03205 0.40148 0.0
C1607 C 0.94389 0.07703 0.39921 0.0
C1608 C 0.93107 0.1083 0.40188 0.0
C1609 C 0.94286 0.25128 0.45176 0.0
C1610 C 0.98642 0.28213 0.44822 0.0
C1611 C 0.91152 0.2238 0.44329 0.0
C1612 C 0.92341 0.22651 0.43119 0.0
C1613 C 0.96619 0.25851 0.42755 0.0
C1614 C 0.99731 0.28641 0.43597 0.0
C1615 C 0.89296 0.19296 0.42254 0.0
C1616 C 0.90476 0.1627 0.41801 0.0
C1617 C 0.85184 0.1889 0.41931 0.0
C1618 C 0.83785 0.22009 0.42387 0.0
C1619 C 0.865 0.26614 0.42226 0.0
C1620 C 0.85167 0.29532 0.42664 0.0
C1621 C 0.81111 0.27885 0.43258 0.0
C1622 C 0.78374 0.23313 0.43413 0.0
C1623 C 0.79693 0.20379 0.42978 0.0
H1624 H 0.80085 0.3015 0.43596 0.0
H1625 H 0.92505 0.00793 0.39947 0.0
H1626 H 0.68475 0.75855 0.53457 0.0
H1627 H 0.6706 0.80509 0.54812 0.0
H1628 H 0.69061 0.74053 0.5785 0.0
H1629 H 0.70452 0.69336 0.565 0.0
H1630 H 0.62454 0.76379 0.58231 0.0
H1631 H 0.77606 0.83019 0.56827 0.0
H1632 H 0.8331 0.85332 0.5525 0.0
H1633 H 0.79092 0.9399 0.53756 0.0
H1634 H 0.7331 0.91672 0.55314 0.0
H1635 H 0.71347 0.93066 0.62678 0.0
H1636 H 0.6949 0.87204 0.61214 0.0
H1637 H 0.68846 0.95488 0.58438 0.0
H1638 H 0.70776 0.01426 0.59897 0.0
H1639 H 0.74047 0.92218 0.578 0.0
H1640 H 0.59453 0.86232 0.59397 0.0
H1641 H 0.53725 0.83771 0.60968 0.0
H1642 H 0.56906 0.7392 0.62127 0.0
H1643 H 0.62701 0.76362 0.60573 0.0
C1644 C 0.68525 0.75352 0.54413 0.0
C1645 C 0.69663 0.72285 0.54872 0.0
C1646 C 0.67708 0.78013 0.55185 0.0
C1647 C 0.68043 0.77674 0.56427 0.0
C1648 C 0.68805 0.74367 0.56891 0.0
C1649 C 0.69611 0.71685 0.56119 0.0
C1650 C 0.68151 0.81107 0.57228 0.0
C1651 C 0.64992 0.79842 0.58145 0.0
C1652 C 0.71425 0.85629 0.57094 0.0
C1653 C 0.74986 0.87127 0.56177 0.0
C1654 C 0.77874 0.85393 0.56158 0.0
C1655 C 0.81119 0.86703 0.55267 0.0
C1656 C 0.81535 0.89776 0.54398 0.0
C1657 C 0.78744 0.91587 0.54426 0.0
C1658 C 0.75485 0.9028 0.55313 0.0
C1659 C 0.70754 0.93632 0.6176 0.0
C1660 C 0.71242 0.97733 0.61404 0.0
C1661 C 0.69661 0.90258 0.60925 0.0
C1662 C 0.68997 0.90897 0.59719 0.0
C1663 C 0.69338 0.94929 0.59366 0.0
C1664 C 0.70435 0.98314 0.60201 0.0
C1665 C 0.68353 0.87508 0.58815 0.0
C1666 C 0.71447 0.88776 0.5788 0.0
C1667 C 0.6503 0.82995 0.58938 0.0
C1668 C 0.61537 0.81504 0.59873 0.0
C1669 C 0.58956 0.83563 0.59992 0.0
C1670 C 0.55692 0.82167 0.60879 0.0
C1671 C 0.54958 0.78697 0.61648 0.0
C1672 C 0.5748 0.76609 0.61531 0.0
C1673 C 0.60751 0.77994 0.60646 0.0
H1674 H 0.52429 0.77622 0.62334 0.0
H1675 H 0.84036 0.90771 0.53707 0.0
H1676 H 0.00033 0.66972 0.72688 0.0
H1677 H 0.94043 0.65041 0.74135 0.0
H1678 H 0.89576 0.72581 0.7208 0.0
H1679 H 0.95367 0.74316 0.70612 0.0
H1680 H 0.92785 0.69845 0.75573 0.0
H1681 H 0.79119 0.69485 0.72427 0.0
H1682 H 0.76048 0.66744 0.70415 0.0
H1683 H 0.80649 0.5737 0.70556 0.0
H1684 H 0.83693 0.60007 0.72576 0.0
H1685 H 0.8017 0.76833 0.78731 0.0
H1686 H 0.8477 0.75465 0.77348 0.0
H1687 H 0.73402 0.62895 0.76363 0.0
H1688 H 0.6871 0.64499 0.77673 0.0
H1689 H 0.77457 0.66071 0.74509 0.0
H1690 H 0.82706 0.64209 0.78254 0.0
H1691 H 0.85434 0.66025 0.80332 0.0
H1692 H 0.97007 0.77863 0.79119 0.0
H1693 H 0.94323 0.76154 0.77036 0.0
C1694 C 0.97711 0.68137 0.72535 0.0
C1695 C 0.98164 0.70781 0.71533 0.0
C1696 C 0.94297 0.67043 0.73364 0.0
C1697 C 0.91307 0.68612 0.73213 0.0
C1698 C 0.91737 0.71206 0.72203 0.0
C1699 C 0.95083 0.72225 0.71365 0.0
C1700 C 0.87977 0.67893 0.74152 0.0
C1701 C 0.89414 0.68961 0.75343 0.0
C1702 C 0.83529 0.66604 0.73864 0.0
C1703 C 0.81658 0.64966 0.72652 0.0
C1704 C 0.79452 0.66819 0.72033 0.0
C1705 C 0.77722 0.65288 0.70889 0.0
C1706 C 0.78161 0.61891 0.70357 0.0
C1707 C 0.80322 0.60011 0.70968 0.0
C1708 C 0.82056 0.61527 0.72112 0.0
C1709 C 0.78671 0.73769 0.78222 0.0
C1710 C 0.74111 0.70751 0.78308 0.0
C1711 C 0.81309 0.72957 0.7744 0.0
C1712 C 0.79485 0.69003 0.76771 0.0
C1713 C 0.7491 0.65961 0.76869 0.0
C1714 C 0.72231 0.66862 0.77619 0.0
C1715 C 0.82317 0.68195 0.75923 0.0
C1716 C 0.80789 0.66848 0.74748 0.0
C1717 C 0.86624 0.69052 0.76237 0.0
C1718 C 0.88302 0.70055 0.77488 0.0
C1719 C 0.85826 0.67206 0.7843 0.0
C1720 C 0.87364 0.68218 0.79609 0.0
C1721 C 0.91389 0.72059 0.79857 0.0
C1722 C 0.93893 0.74886 0.78926 0.0
C1723 C 0.92368 0.73893 0.77745 0.0
H1724 H 0.92568 0.72842 0.80771 0.0
H1725 H 0.76821 0.60713 0.69471 0.0
H1726 H 0.07075 0.77881 0.96715 0.0
H1727 H 0.13496 0.82317 0.95435 0.0
H1728 H 0.0587 0.75228 0.92328 0.0
H1729 H 0.99468 0.70707 0.93602 0.0
H1730 H 0.14336 0.77041 0.92125 0.0
H1731 H 0.06776 0.85088 0.9317 0.0
H1732 H 0.03707 0.88356 0.9457 0.0
H1733 H 0.16629 0.96507 0.96101 0.0
H1734 H 0.19762 0.93239 0.9472 0.0
H1735 H 0.22877 0.92562 0.87385 0.0
H1736 H 0.18809 0.87092 0.88937 0.0
H1737 H 0.28036 0.95805 0.916 0.0
H1738 H 0.32104 0.01343 0.90054 0.0
H1739 H 0.19731 0.93211 0.92218 0.0
H1740 H 0.27466 0.85934 0.90892 0.0
H1741 H 0.30388 0.82714 0.89433 0.0
H1742 H 0.17118 0.73186 0.88365 0.0
H1743 H 0.14113 0.76387 0.89805 0.0
C1744 C 0.06777 0.77227 0.95761 0.0
C1745 C 0.02737 0.73984 0.95258 0.0
C1746 C 0.10452 0.79765 0.95031 0.0
C1747 C 0.10134 0.79153 0.93785 0.0
C1748 C 0.06185 0.7576 0.93288 0.0
C1749 C 0.0252 0.73193 0.94018 0.0
C1750 C 0.1376 0.82272 0.92986 0.0
C1751 C 0.15515 0.80576 0.92141 0.0
C1752 C 0.15365 0.86897 0.93027 0.0
C1753 C 0.1349 0.88883 0.93852 0.0
C1754 C 0.08955 0.87555 0.93811 0.0
C1755 C 0.07205 0.89409 0.946 0.0
C1756 C 0.09968 0.92627 0.95427 0.0
C1757 C 0.1449 0.94007 0.95463 0.0
C1758 C 0.16255 0.92156 0.94677 0.0
C1759 C 0.24097 0.93293 0.88296 0.0
C1760 C 0.27794 0.97415 0.88596 0.0
C1761 C 0.21779 0.90142 0.89183 0.0
C1762 C 0.23132 0.9103 0.90384 0.0
C1763 C 0.2694 0.95053 0.90678 0.0
C1764 C 0.2926 0.98213 0.89792 0.0
C1765 C 0.2028 0.87984 0.9134 0.0
C1766 C 0.18642 0.89693 0.92215 0.0
C1767 C 0.18773 0.83377 0.91318 0.0
C1768 C 0.20564 0.81423 0.90453 0.0
C1769 C 0.25169 0.83173 0.9034 0.0
C1770 C 0.26841 0.81347 0.89517 0.0
C1771 C 0.23941 0.77752 0.88805 0.0
C1772 C 0.19361 0.7597 0.88917 0.0
C1773 C 0.17671 0.77786 0.89738 0.0
H1774 H 0.25243 0.76344 0.88168 0.0
H1775 H 0.08608 0.94058 0.96037 0.0
H1776 H 0.11574 0.17069 0.99488 0.0
H1777 H 0.05859 0.09452 0.99072 0.0
H1778 H 0.97513 0.10274 0.018 0.0
H1779 H 0.0326 0.17998 0.02215 0.0
H1780 H 0.98826 0.03033 0.02064 0.0
H1781 H 0.93874 0.09017 0.99056 0.0
H1782 H 0.9449 0.13889 0.97376 0.0
H1783 H 0.00091 0.07835 0.95162 0.0
H1784 H 0.99579 0.02973 0.96833 0.0
H1785 H 0.85219 0.81371 0.98183 0.0
H1786 H 0.86784 0.88811 0.98761 0.0
H1787 H 0.99482 0.91663 0.00169 0.0
H1788 H 0.97951 0.84263 0.99608 0.0
H1789 H 0.93357 0.96791 0.98015 0.0
H1790 H 0.02106 0.98113 0.02576 0.0
H1791 H 0.01386 0.93245 0.04268 0.0
H1792 H 0.87624 0.84663 0.0343 0.0
H1793 H 0.88241 0.89513 0.01743 0.0
C1794 C 0.08497 0.15658 -0.00012 0.0
C1795 C 0.07866 0.18109 0.00889 0.0
C1796 C 0.0522 0.11315 0.99743 0.0
C1797 C 0.01254 0.09315 0.00399 0.0
C1798 C 0.00546 0.11782 0.01279 0.0
C1799 C 0.03816 0.16181 0.01513 0.0
C1800 C 0.98129 0.04518 0.00232 0.0
C1801 C 0.97555 0.01653 0.01185 0.0
C1802 C 0.96398 0.02736 0.9909 0.0
C1803 C 0.96693 0.0563 0.98074 0.0
C1804 C 0.95262 0.08739 0.98213 0.0
C1805 C 0.9559 0.11499 0.97262 0.0
C1806 C 0.97329 0.11172 0.96163 0.0
C1807 C 0.98739 0.08081 0.96013 0.0
C1808 C 0.98422 0.05314 0.96962 0.0
C1809 C 0.88335 0.83573 0.98623 0.0
C1810 C 0.9146 0.82216 0.9885 0.0
C1811 C 0.89219 0.87821 0.98951 0.0
C1812 C 0.93216 0.9076 0.99524 0.0
C1813 C 0.96335 0.89414 0.99751 0.0
C1814 C 0.95465 0.85187 0.99421 0.0
C1815 C 0.94291 0.95334 0.99831 0.0
C1816 C 0.94495 0.9815 0.98904 0.0
C1817 C 0.95645 0.97068 0.01 0.0
C1818 C 0.95227 0.94176 0.02029 0.0
C1819 C 0.98917 0.95208 0.02758 0.0
C1820 C 0.98529 0.92445 0.03715 0.0
C1821 C 0.94464 0.88644 0.03956 0.0
C1822 C 0.90774 0.87603 0.03241 0.0
C1823 C 0.91142 0.90356 0.02283 0.0
H1824 H 0.94173 0.86507 0.04696 0.0
H1825 H 0.97582 0.13313 0.95427 0.0
H1826 H 0.04456 0.85971 0.14978 0.0
H1827 H 0.99322 0.8856 0.15567 0.0
H1828 H 0.09431 0.02049 0.14808 0.0
H1829 H 0.14544 0.99523 0.14228 0.0
H1830 H 0.06072 0.00897 0.171 0.0
H1831 H 0.00687 0.96764 0.13018 0.0
H1832 H 0.97404 0.91469 0.11345 0.0
H1833 H 0.85795 0.83405 0.13461 0.0
H1834 H 0.89042 0.88625 0.15153 0.0
H1835 H 0.98528 0.15553 0.16593 0.0
H1836 H 0.00813 0.10233 0.16055 0.0
H1837 H 0.88827 0.99634 0.17598 0.0
H1838 H 0.86457 0.04988 0.18148 0.0
H1839 H 0.91819 0.9774 0.15249 0.0
H1840 H 0.96926 0.02628 0.1924 0.0
H1841 H 0.00288 0.08161 0.20857 0.0
H1842 H 0.12517 0.14869 0.18892 0.0
H1843 H 0.09206 0.09419 0.17254 0.0
C1844 C 0.05545 0.89476 0.14916 0.0
C1845 C 0.09921 0.92553 0.14575 0.0
C1846 C 0.02615 0.90945 0.15253 0.0
C1847 C 0.04026 0.95496 0.15243 0.0
C1848 C 0.08303 0.98528 0.14836 0.0
C1849 C 0.1122 0.97075 0.14505 0.0
C1850 C 0.01236 0.97218 0.15734 0.0
C1851 C 0.0295 0.00198 0.16697 0.0
C1852 C 0.97087 0.96167 0.15237 0.0
C1853 C 0.95131 0.93051 0.14217 0.0
C1854 C 0.97453 0.9384 0.1313 0.0
C1855 C 0.95595 0.90857 0.12177 0.0
C1856 C 0.914 0.87094 0.12298 0.0
C1857 C 0.89048 0.86315 0.1337 0.0
C1858 C 0.90895 0.89285 0.14326 0.0
C1859 C 0.96342 0.12094 0.16816 0.0
C1860 C 0.92331 0.10707 0.17429 0.0
C1861 C 0.97655 0.09055 0.16502 0.0
C1862 C 0.95007 0.04564 0.16799 0.0
C1863 C 0.90908 0.031 0.17365 0.0
C1864 C 0.89577 0.06161 0.17682 0.0
C1865 C 0.9677 0.01551 0.16577 0.0
C1866 C 0.94873 0.98333 0.15673 0.0
C1867 C 0.00768 0.02372 0.17127 0.0
C1868 C 0.02807 0.05619 0.18121 0.0
C1869 C 0.00324 0.05297 0.19149 0.0
C1870 C 0.02221 0.08418 0.2007 0.0
C1871 C 0.06611 0.11867 0.19977 0.0
C1872 C 0.09117 0.12194 0.18964 0.0
C1873 C 0.07233 0.09085 0.18039 0.0
H1874 H 0.08073 0.14283 0.2069 0.0
H1875 H 0.89967 0.84788 0.11559 0.0
H1876 H 0.19175 0.04633 0.32412 0.0
H1877 H 0.11795 0.98982 0.33119 0.0
H1878 H 0.07353 0.08539 0.32876 0.0
H1879 H 0.14676 0.14172 0.32219 0.0
H1880 H 0.04567 0.04263 0.34861 0.0
H1881 H 0.05067 0.00272 0.30692 0.0
H1882 H 0.0803 0.97944 0.29007 0.0
H1883 H 0.05466 0.86229 0.30943 0.0
H1884 H 0.02531 0.88519 0.32645 0.0
H1885 H 0.83214 0.9612 0.3318 0.0
H1886 H 0.90879 0.98069 0.32839 0.0
H1887 H 0.89119 0.87271 0.35104 0.0
H1888 H 0.81358 0.85262 0.35458 0.0
H1889 H 0.95275 0.90398 0.32575 0.0
H1890 H 0.93068 0.94549 0.36613 0.0
H1891 H 0.89088 0.97173 0.37901 0.0
H1892 H 0.94531 0.093 0.35892 0.0
H1893 H 0.98417 0.06679 0.34564 0.0
C1894 C 0.16611 0.05509 0.32512 0.0
C1895 C 0.17502 0.09845 0.32264 0.0
C1896 C 0.12404 0.02284 0.32914 0.0
C1897 C 0.09021 0.03338 0.33051 0.0
C1898 C 0.0992 0.07657 0.32793 0.0
C1899 C 0.14112 0.10876 0.32411 0.0
C1900 C 0.04487 6e-05 0.33443 0.0
C1901 C 0.02566 0.01193 0.34374 0.0
C1902 C 0.01877 0.95962 0.32821 0.0
C1903 C 0.03642 0.94595 0.318 0.0
C1904 C 0.05169 0.97218 0.30761 0.0
C1905 C 0.06837 0.95902 0.29803 0.0
C1906 C 0.06953 0.91949 0.2987 0.0
C1907 C 0.05387 0.89296 0.30894 0.0
C1908 C 0.03721 0.906 0.31855 0.0
C1909 C 0.84414 0.94096 0.33591 0.0
C1910 C 0.81713 0.90594 0.34367 0.0
C1911 C 0.88781 0.95191 0.33385 0.0
C1912 C 0.90538 0.92823 0.33953 0.0
C1913 C 0.87785 0.8911 0.34655 0.0
C1914 C 0.83375 0.87993 0.34861 0.0
C1915 C 0.95388 0.94768 0.33955 0.0
C1916 C 0.97353 0.93344 0.33101 0.0
C1917 C 0.98036 0.98663 0.34625 0.0
C1918 C 0.96018 0.00404 0.35486 0.0
C1919 C 0.93411 0.97772 0.36445 0.0
C1920 C 0.91161 0.99255 0.3718 0.0
C1921 C 0.9155 0.03399 0.36977 0.0
C1922 C 0.94228 0.06089 0.36047 0.0
C1923 C 0.96454 0.04604 0.35303 0.0
H1924 H 0.89771 0.04525 0.37539 0.0
H1925 H 0.08243 0.90936 0.29127 0.0
H1926 H 0.12682 0.18879 0.48524 0.0
H1927 H 0.10097 0.11389 0.49301 0.0
H1928 H 0.97524 0.10236 0.5023 0.0
H1929 H 0.0008 0.17687 0.49482 0.0
H1930 H 0.0032 0.07166 0.51988 0.0
H1931 H 0.98909 0.05461 0.47676 0.0
H1932 H 0.01679 0.06949 0.45597 0.0
H1933 H 0.10809 0.02409 0.46418 0.0
H1934 H 0.08125 0.00945 0.48508 0.0
H1935 H 0.83867 0.84794 0.51869 0.0
H1936 H 0.88916 0.92666 0.51537 0.0
H1937 H 0.99861 0.90226 0.51181 0.0
H1938 H 0.94786 0.82265 0.5151 0.0
H1939 H 0.99431 0.95292 0.49339 0.0
H1940 H 0.99201 0.95439 0.53602 0.0
H1941 H 0.95846 0.93745 0.55615 0.0
H1942 H 0.89233 0.01088 0.54848 0.0
H1943 H 0.92459 0.02742 0.52819 0.0
C1944 C 0.09366 0.17024 0.48892 0.0
C1945 C 0.06581 0.18877 0.48933 0.0
C1946 C 0.07895 0.12747 0.49335 0.0
C1947 C 0.03608 0.10247 0.49817 0.0
C1948 C 0.0085 0.12109 0.49867 0.0
C1949 C 0.02313 0.16369 0.4943 0.0
C1950 C 0.01894 0.05644 0.50249 0.0
C1951 C 0.00115 0.04562 0.5141 0.0
C1952 C 0.01752 0.0228 0.49505 0.0
C1953 C 0.03361 0.03151 0.48251 0.0
C1954 C 0.01533 0.04815 0.47415 0.0
C1955 C 0.03082 0.05647 0.46235 0.0
C1956 C 0.0643 0.0479 0.45877 0.0
C1957 C 0.08224 0.03083 0.46698 0.0
C1958 C 0.0669 0.0225 0.4788 0.0
C1959 C 0.87351 0.85919 0.51727 0.0
C1960 C 0.88924 0.82899 0.51709 0.0
C1961 C 0.9024 0.90431 0.51547 0.0
C1962 C 0.94768 0.92032 0.51346 0.0
C1963 C 0.96377 0.89048 0.51341 0.0
C1964 C 0.9348 0.84513 0.51532 0.0
C1965 C 0.97709 0.96787 0.51063 0.0
C1966 C 0.99727 0.97904 0.49931 0.0
C1967 C 0.98004 0.00173 0.51827 0.0
C1968 C 0.96066 0.992 0.53053 0.0
C1969 C 0.97005 0.96666 0.53858 0.0
C1970 C 0.95127 0.95715 0.55003 0.0
C1971 C 0.92335 0.97314 0.5536 0.0
C1972 C 0.91412 0.99867 0.54572 0.0
C1973 C 0.93261 0.00808 0.53423 0.0
H1974 H 0.90876 0.96565 0.56246 0.0
H1975 H 0.07626 0.05437 0.44963 0.0
H1976 H 0.02725 0.87255 0.69287 0.0
H1977 H 0.0032 0.92359 0.68595 0.0
H1978 H 0.13247 0.00854 0.67065 0.0
H1979 H 0.15724 0.95751 0.6778 0.0
H1980 H 0.07948 0.05141 0.68121 0.0
H1981 H 0.07193 0.94285 0.65265 0.0
H1982 H 0.05554 0.86683 0.64796 0.0
H1983 H 0.91865 0.81615 0.65701 0.0
H1984 H 0.93446 0.89168 0.66212 0.0
H1985 H 0.95908 0.12773 0.64504 0.0
H1986 H 0.0133 0.10536 0.65054 0.0
H1987 H 0.90704 0.97906 0.66284 0.0
H1988 H 0.85299 0.0005 0.65718 0.0
H1989 H 0.96468 0.96755 0.65039 0.0
H1990 H 0.97074 0.06613 0.68219 0.0
H1991 H 0.983 0.13734 0.69033 0.0
H1992 H 0.11675 0.20299 0.67707 0.0
H1993 H 0.10505 0.13219 0.66872 0.0
C1994 C 0.051 0.9028 0.68836 0.0
C1995 C 0.09379 0.91087 0.68566 0.0
C1996 C 0.0373 0.93198 0.68447 0.0
C1997 C 0.06591 0.96924 0.67764 0.0
C1998 C 0.11007 0.97984 0.67592 0.0
C1999 C 0.12408 0.95071 0.67997 0.0
C2000 C 0.0467 0.99162 0.67072 0.0
C2001 C 0.05523 0.03381 0.67424 0.0
C2002 C 0.01471 0.96802 0.66175 0.0
C2003 C 0.00449 0.92297 0.65786 0.0
C2004 C 0.03838 0.91549 0.6537 0.0
C2005 C 0.02924 0.87245 0.65103 0.0
C2006 C 0.98617 0.83666 0.65229 0.0
C2007 C 0.95206 0.84389 0.65611 0.0
C2008 C 0.96109 0.88682 0.6589 0.0
C2009 C 0.94731 0.0951 0.64885 0.0
C2010 C 0.90169 0.06594 0.65069 0.0
C2011 C 0.97834 0.08246 0.65202 0.0
C2012 C 0.96419 0.04066 0.65717 0.0
C2013 C 0.91869 0.01139 0.65883 0.0
C2014 C 0.8878 0.02381 0.65562 0.0
C2015 C 0.99616 0.02697 0.66115 0.0
C2016 C 0.99001 0.98613 0.65704 0.0
C2017 C 0.02982 0.0516 0.66967 0.0
C2018 C 0.03684 0.09406 0.67469 0.0
C2019 C 0.00264 0.09584 0.68093 0.0
C2020 C 0.00951 0.13609 0.6856 0.0
C2021 C 0.05058 0.1747 0.68418 0.0
C2022 C 0.08492 0.17309 0.67813 0.0
C2023 C 0.07819 0.13292 0.67343 0.0
H2024 H 0.05584 0.20583 0.68781 0.0
H2025 H 0.97911 0.80341 0.65016 0.0
H2026 H 0.18484 0.12179 0.84512 0.0
H2027 H 0.10857 0.0965 0.83864 0.0
H2028 H 0.07585 0.96047 0.84383 0.0
H2029 H 0.15187 0.98531 0.8499 0.0
H2030 H 0.04572 0.96781 0.82332 0.0
H2031 H 0.0433 0.01732 0.86361 0.0
H2032 H 0.06769 0.07131 0.8802 0.0
H2033 H 0.03694 0.15604 0.85928 0.0
H2034 H 0.01286 0.10273 0.8425 0.0
H2035 H 0.82104 0.83875 0.83294 0.0
H2036 H 0.89831 0.88929 0.83786 0.0
H2037 H 0.89657 0.99202 0.81668 0.0
H2038 H 0.81837 0.94107 0.81151 0.0
H2039 H 0.94575 0.01386 0.84213 0.0
H2040 H 0.93846 0.9529 0.8025 0.0
H2041 H 0.90842 0.89113 0.78799 0.0
H2042 H 0.95412 0.82074 0.80996 0.0
H2043 H 0.98379 0.88179 0.82469 0.0
C2044 C 0.16122 0.08652 0.84496 0.0
C2045 C 0.17436 0.05551 0.84797 0.0
C2046 C 0.11766 0.07213 0.84127 0.0
C2047 C 0.08647 0.02658 0.84076 0.0
C2048 C 0.09943 0.99576 0.84405 0.0
C2049 C 0.1429 0.01003 0.84756 0.0
C2050 C 0.04049 0.01025 0.83653 0.0
C2051 C 0.02402 0.97808 0.82743 0.0
C2052 C 0.01231 0.02428 0.84169 0.0
C2053 C 0.02686 0.05636 0.85175 0.0
C2054 C 0.04212 0.04766 0.86251 0.0
C2055 C 0.05581 0.07809 0.87195 0.0
C2056 C 0.05403 0.11716 0.87078 0.0
C2057 C 0.03841 0.12581 0.86017 0.0
C2058 C 0.02473 0.0955 0.85069 0.0
C2059 C 0.8367 0.87218 0.82938 0.0
C2060 C 0.81376 0.88566 0.82164 0.0
C2061 C 0.88083 0.90106 0.83227 0.0
C2062 C 0.90295 0.94402 0.82753 0.0
C2063 C 0.87974 0.95883 0.8204 0.0
C2064 C 0.83526 0.92971 0.81744 0.0
C2065 C 0.95131 0.971 0.82921 0.0
C2066 C 0.96808 0.00486 0.83781 0.0
C2067 C 0.97972 0.95802 0.82377 0.0
C2068 C 0.96314 0.92185 0.81473 0.0
C2069 C 0.94189 0.92415 0.80426 0.0
C2070 C 0.92495 0.88927 0.796 0.0
C2071 C 0.92929 0.85199 0.79806 0.0
C2072 C 0.95078 0.84963 0.80837 0.0
C2073 C 0.96773 0.8844 0.81667 0.0
H2074 H 0.91604 0.82497 0.79166 0.0
H2075 H 0.06462 0.14067 0.8781 0.0
loop_
_geom_bond_atom_site_label_1
_geom_bond_atom_site_label_2
_geom_bond_distance
_geom_bond_site_symmetry_2
_ccdc_geom_bond_type
O0 Zn1 1.953 . S
O0 C16 1.225 . S
Zn1 O0 1.953 . S
Zn1 O2 1.949 . S
Zn1 O8 1.919 . S
Zn1 O13 1.924 . S
O2 Zn1 1.949 . S
O2 Zn3 1.923 . S
O2 Zn4 1.950 . S
O2 Zn5 1.945 . S
Zn3 O2 1.923 . S
Zn3 O6 1.933 1_554 S
Zn3 O9 1.941 . S
Zn3 O10 1.965 . S
Zn4 O2 1.950 . S
Zn4 O11 1.938 . S
Zn4 O12 1.906 . S
Zn4 O22 1.953 . S
Zn5 O2 1.945 . S
Zn5 O7 1.932 1_554 S
Zn5 O14 1.977 . S
Zn5 O15 1.910 . S
O6 Zn3 1.933 1_556 S
O6 C17 1.226 . S
O7 Zn5 1.932 1_556 S
O7 C17 1.307 . S
O8 Zn1 1.919 . S
O8 C19 1.253 . S
O9 Zn3 1.941 . S
O9 C19 1.283 . S
O10 Zn3 1.965 . S
O10 C18 1.303 . S
O11 Zn4 1.938 . S
O11 C18 1.247 . S
O12 Zn4 1.906 . S
O12 C20 1.304 . S
O13 Zn1 1.924 . S
O13 C21 1.311 . S
O14 Zn5 1.977 . S
O14 C20 1.272 . S
O15 Zn5 1.910 . S
O15 C21 1.231 . S
C16 O0 1.225 . S
C16 O22 1.298 . S
C17 O6 1.226 . S
C17 O7 1.307 . S
C18 O10 1.303 . S
C18 O11 1.247 . S
C19 O8 1.253 . S
C19 O9 1.283 . S
C20 O12 1.304 . S
C20 O14 1.272 . S
C21 O13 1.311 . S
C21 O15 1.231 . S
O22 Zn4 1.953 . S
O22 C16 1.298 . S
O23 Zn24 1.953 . S
O23 C39 1.225 . S
Zn24 O23 1.953 . S
Zn24 O25 1.949 . S
Zn24 O31 1.919 . S
Zn24 O36 1.924 . S
O25 Zn24 1.949 . S
O25 Zn26 1.923 . S
O25 Zn27 1.950 . S
O25 Zn28 1.945 . S
Zn26 O25 1.923 . S
Zn26 O29 1.933 1_655 S
Zn26 O32 1.941 . S
Zn26 O33 1.965 1_655 S
Zn27 O25 1.950 . S
Zn27 O34 1.938 . S
Zn27 O35 1.906 . S
Zn27 O45 1.953 . S
Zn28 O25 1.945 . S
Zn28 O30 1.932 . S
Zn28 O37 1.977 . S
Zn28 O38 1.910 . S
O29 Zn26 1.933 1_455 S
O29 C40 1.226 1_455 S
O30 Zn28 1.932 . S
O30 C40 1.307 . S
O31 Zn24 1.919 . S
O31 C42 1.253 . S
O32 Zn26 1.941 . S
O32 C42 1.283 . S
O33 Zn26 1.965 1_455 S
O33 C41 1.303 . S
O34 Zn27 1.938 . S
O34 C41 1.247 1_655 S
O35 Zn27 1.906 . S
O35 C43 1.304 . S
O36 Zn24 1.924 . S
O36 C44 1.311 . S
O37 Zn28 1.977 . S
O37 C43 1.272 . S
O38 Zn28 1.910 . S
O38 C44 1.231 . S
C39 O23 1.225 . S
C39 O45 1.298 . S
C40 O29 1.226 1_655 S
C40 O30 1.307 . S
C41 O33 1.303 . S
C41 O34 1.247 1_455 S
C42 O31 1.253 . S
C42 O32 1.283 . S
C43 O35 1.304 . S
C43 O37 1.272 . S
C44 O36 1.311 . S
C44 O38 1.231 . S
O45 Zn27 1.953 . S
O45 C39 1.298 . S
O46 Zn47 1.953 . S
O46 C62 1.225 . S
Zn47 O46 1.953 . S
Zn47 O48 1.949 . S
Zn47 O54 1.919 . S
Zn47 O59 1.924 . S
O48 Zn47 1.949 . S
O48 Zn49 1.923 . S
O48 Zn50 1.950 . S
O48 Zn51 1.945 . S
Zn49 O48 1.923 . S
Zn49 O52 1.933 1_565 S
Zn49 O55 1.941 . S
Zn49 O56 1.965 1_565 S
Zn50 O48 1.950 . S
Zn50 O57 1.938 . S
Zn50 O58 1.906 . S
Zn50 O68 1.953 . S
Zn51 O48 1.945 . S
Zn51 O53 1.932 . S
Zn51 O60 1.977 . S
Zn51 O61 1.910 . S
O52 Zn49 1.933 1_545 S
O52 C63 1.226 1_545 S
O53 Zn51 1.932 . S
O53 C63 1.307 . S
O54 Zn47 1.919 . S
O54 C65 1.253 . S
O55 Zn49 1.941 . S
O55 C65 1.283 . S
O56 Zn49 1.965 1_545 S
O56 C64 1.303 . S
O57 Zn50 1.938 . S
O57 C64 1.247 1_565 S
O58 Zn50 1.906 . S
O58 C66 1.304 . S
O59 Zn47 1.924 . S
O59 C67 1.311 . S
O60 Zn51 1.977 . S
O60 C66 1.272 . S
O61 Zn51 1.910 . S
O61 C67 1.231 . S
C62 O46 1.225 . S
C62 O68 1.298 . S
C63 O52 1.226 1_565 S
C63 O53 1.307 . S
C64 O56 1.303 . S
C64 O57 1.247 1_545 S
C65 O54 1.253 . S
C65 O55 1.283 . S
C66 O58 1.304 . S
C66 O60 1.272 . S
C67 O59 1.311 . S
C67 O61 1.231 . S
O68 Zn50 1.953 . S
O68 C62 1.298 . S
O69 Zn70 1.953 . S
O69 C85 1.225 . S
Zn70 O69 1.953 . S
Zn70 O71 1.949 . S
Zn70 O77 1.919 . S
Zn70 O82 1.924 . S
O71 Zn70 1.949 . S
O71 Zn72 1.923 . S
O71 Zn73 1.950 . S
O71 Zn74 1.945 . S
Zn72 O71 1.923 . S
Zn72 O75 1.933 . S
Zn72 O78 1.941 . S
Zn72 O79 1.965 . S
Zn73 O71 1.950 . S
Zn73 O80 1.938 . S
Zn73 O81 1.906 . S
Zn73 O91 1.953 . S
Zn74 O71 1.945 . S
Zn74 O76 1.932 . S
Zn74 O83 1.977 . S
Zn74 O84 1.910 . S
O75 Zn72 1.933 . S
O75 C86 1.226 . S
O76 Zn74 1.932 . S
O76 C86 1.307 . S
O77 Zn70 1.919 . S
O77 C88 1.253 . S
O78 Zn72 1.941 . S
O78 C88 1.283 . S
O79 Zn72 1.965 . S
O79 C87 1.303 . S
O80 Zn73 1.938 . S
O80 C87 1.247 . S
O81 Zn73 1.906 . S
O81 C89 1.304 . S
O82 Zn70 1.924 . S
O82 C90 1.311 . S
O83 Zn74 1.977 . S
O83 C89 1.272 . S
O84 Zn74 1.910 . S
O84 C90 1.231 . S
C85 O69 1.225 . S
C85 O91 1.298 . S
C86 O75 1.226 . S
C86 O76 1.307 . S
C87 O79 1.303 . S
C87 O80 1.247 . S
C88 O77 1.253 . S
C88 O78 1.283 . S
C89 O81 1.304 . S
C89 O83 1.272 . S
C90 O82 1.311 . S
C90 O84 1.231 . S
O91 Zn73 1.953 . S
O91 C85 1.298 . S
O92 Zn93 1.953 . S
O92 C108 1.225 . S
Zn93 O92 1.953 . S
Zn93 O94 1.949 . S
Zn93 O100 1.919 . S
Zn93 O105 1.924 . S
O94 Zn93 1.949 . S
O94 Zn95 1.923 . S
O94 Zn96 1.950 . S
O94 Zn97 1.945 . S
Zn95 O94 1.923 . S
Zn95 O98 1.933 1_455 S
Zn95 O101 1.941 . S
Zn95 O102 1.965 1_455 S
Zn96 O94 1.950 . S
Zn96 O103 1.938 . S
Zn96 O104 1.906 . S
Zn96 O114 1.953 . S
Zn97 O94 1.945 . S
Zn97 O99 1.932 . S
Zn97 O106 1.977 . S
Zn97 O107 1.910 . S
O98 Zn95 1.933 1_655 S
O98 C109 1.226 1_655 S
O99 Zn97 1.932 . S
O99 C109 1.307 . S
O100 Zn93 1.919 . S
O100 C111 1.253 . S
O101 Zn95 1.941 . S
O101 C111 1.283 . S
O102 Zn95 1.965 1_655 S
O102 C110 1.303 . S
O103 Zn96 1.938 . S
O103 C110 1.247 1_455 S
O104 Zn96 1.906 . S
O104 C112 1.304 . S
O105 Zn93 1.924 . S
O105 C113 1.311 . S
O106 Zn97 1.977 . S
O106 C112 1.272 . S
O107 Zn97 1.910 . S
O107 C113 1.231 . S
C108 O92 1.225 . S
C108 O114 1.298 . S
C109 O98 1.226 1_455 S
C109 O99 1.307 . S
C110 O102 1.303 . S
C110 O103 1.247 1_655 S
C111 O100 1.253 . S
C111 O101 1.283 . S
C112 O104 1.304 . S
C112 O106 1.272 . S
C113 O105 1.311 . S
C113 O107 1.231 . S
O114 Zn96 1.953 . S
O114 C108 1.298 . S
O115 Zn116 1.953 . S
O115 C131 1.225 . S
Zn116 O115 1.953 . S
Zn116 O117 1.949 . S
Zn116 O123 1.919 . S
Zn116 O128 1.924 . S
O117 Zn116 1.949 . S
O117 Zn118 1.923 . S
O117 Zn119 1.950 . S
O117 Zn120 1.945 . S
Zn118 O117 1.923 . S
Zn118 O121 1.933 1_545 S
Zn118 O124 1.941 . S
Zn118 O125 1.965 1_545 S
Zn119 O117 1.950 . S
Zn119 O126 1.938 . S
Zn119 O127 1.906 . S
Zn119 O137 1.953 . S
Zn120 O117 1.945 . S
Zn120 O122 1.932 . S
Zn120 O129 1.977 . S
Zn120 O130 1.910 . S
O121 Zn118 1.933 1_565 S
O121 C132 1.226 1_565 S
O122 Zn120 1.932 . S
O122 C132 1.307 . S
O123 Zn116 1.919 . S
O123 C134 1.253 . S
O124 Zn118 1.941 . S
O124 C134 1.283 . S
O125 Zn118 1.965 1_565 S
O125 C133 1.303 . S
O126 Zn119 1.938 . S
O126 C133 1.247 1_545 S
O127 Zn119 1.906 . S
O127 C135 1.304 . S
O128 Zn116 1.924 . S
O128 C136 1.311 . S
O129 Zn120 1.977 . S
O129 C135 1.272 . S
O130 Zn120 1.910 . S
O130 C136 1.231 . S
C131 O115 1.225 . S
C131 O137 1.298 . S
C132 O121 1.226 1_545 S
C132 O122 1.307 . S
C133 O125 1.303 . S
C133 O126 1.247 1_565 S
C134 O123 1.253 . S
C134 O124 1.283 . S
C135 O127 1.304 . S
C135 O129 1.272 . S
C136 O128 1.311 . S
C136 O130 1.231 . S
O137 Zn119 1.953 . S
O137 C131 1.298 . S
O138 Zn139 1.953 . S
O138 C154 1.225 . S
Zn139 O138 1.953 . S
Zn139 O140 1.949 . S
Zn139 O146 1.919 . S
Zn139 O151 1.924 . S
O140 Zn139 1.949 . S
O140 Zn141 1.923 . S
O140 Zn142 1.950 . S
O140 Zn143 1.945 . S
Zn141 O140 1.923 . S
Zn141 O144 1.933 . S
Zn141 O147 1.941 . S
Zn141 O148 1.965 . S
Zn142 O140 1.950 . S
Zn142 O149 1.938 . S
Zn142 O150 1.906 . S
Zn142 O160 1.953 . S
Zn143 O140 1.945 . S
Zn143 O145 1.932 . S
Zn143 O152 1.977 . S
Zn143 O153 1.910 . S
O144 Zn141 1.933 . S
O144 C155 1.226 . S
O145 Zn143 1.932 . S
O145 C155 1.307 . S
O146 Zn139 1.919 . S
O146 C157 1.253 . S
O147 Zn141 1.941 . S
O147 C157 1.283 . S
O148 Zn141 1.965 . S
O148 C156 1.303 . S
O149 Zn142 1.938 . S
O149 C156 1.247 . S
O150 Zn142 1.906 . S
O150 C158 1.304 . S
O151 Zn139 1.924 . S
O151 C159 1.311 . S
O152 Zn143 1.977 . S
O152 C158 1.272 . S
O153 Zn143 1.910 . S
O153 C159 1.231 . S
C154 O138 1.225 . S
C154 O160 1.298 . S
C155 O144 1.226 . S
C155 O145 1.307 . S
C156 O148 1.303 . S
C156 O149 1.247 . S
C157 O146 1.253 . S
C157 O147 1.283 . S
C158 O150 1.304 . S
C158 O152 1.272 . S
C159 O151 1.311 . S
C159 O153 1.231 . S
O160 Zn142 1.953 . S
O160 C154 1.298 . S
O161 Zn162 1.953 . S
O161 C177 1.225 . S
Zn162 O161 1.953 . S
Zn162 O163 1.949 . S
Zn162 O169 1.919 . S
Zn162 O174 1.924 . S
O163 Zn162 1.949 . S
O163 Zn164 1.923 . S
O163 Zn165 1.950 . S
O163 Zn166 1.945 . S
Zn164 O163 1.923 . S
Zn164 O167 1.933 1_656 S
Zn164 O170 1.941 . S
Zn164 O171 1.965 1_655 S
Zn165 O163 1.950 . S
Zn165 O172 1.938 . S
Zn165 O173 1.906 . S
Zn165 O183 1.953 . S
Zn166 O163 1.945 . S
Zn166 O168 1.932 1_556 S
Zn166 O175 1.977 . S
Zn166 O176 1.910 . S
O167 Zn164 1.933 1_454 S
O167 C178 1.226 1_455 S
O168 Zn166 1.932 1_554 S
O168 C178 1.307 . S
O169 Zn162 1.919 . S
O169 C180 1.253 . S
O170 Zn164 1.941 . S
O170 C180 1.283 . S
O171 Zn164 1.965 1_455 S
O171 C179 1.303 . S
O172 Zn165 1.938 . S
O172 C179 1.247 1_655 S
O173 Zn165 1.906 . S
O173 C181 1.304 . S
O174 Zn162 1.924 . S
O174 C182 1.311 . S
O175 Zn166 1.977 . S
O175 C181 1.272 . S
O176 Zn166 1.910 . S
O176 C182 1.231 . S
C177 O161 1.225 . S
C177 O183 1.298 . S
C178 O167 1.226 1_655 S
C178 O168 1.307 . S
C179 O171 1.303 . S
C179 O172 1.247 1_455 S
C180 O169 1.253 . S
C180 O170 1.283 . S
C181 O173 1.304 . S
C181 O175 1.272 . S
C182 O174 1.311 . S
C182 O176 1.231 . S
O183 Zn165 1.953 . S
O183 C177 1.298 . S
O184 Zn185 1.953 . S
O184 C200 1.225 . S
Zn185 O184 1.953 . S
Zn185 O186 1.949 . S
Zn185 O192 1.919 . S
Zn185 O197 1.924 . S
O186 Zn185 1.949 . S
O186 Zn187 1.923 . S
O186 Zn188 1.950 . S
O186 Zn189 1.945 . S
Zn187 O186 1.923 . S
Zn187 O190 1.933 1_565 S
Zn187 O193 1.941 . S
Zn187 O194 1.965 1_565 S
Zn188 O186 1.950 . S
Zn188 O195 1.938 . S
Zn188 O196 1.906 . S
Zn188 O206 1.953 . S
Zn189 O186 1.945 . S
Zn189 O191 1.932 . S
Zn189 O198 1.977 . S
Zn189 O199 1.910 . S
O190 Zn187 1.933 1_545 S
O190 C201 1.226 1_545 S
O191 Zn189 1.932 . S
O191 C201 1.307 . S
O192 Zn185 1.919 . S
O192 C203 1.253 . S
O193 Zn187 1.941 . S
O193 C203 1.283 . S
O194 Zn187 1.965 1_545 S
O194 C202 1.303 . S
O195 Zn188 1.938 . S
O195 C202 1.247 1_565 S
O196 Zn188 1.906 . S
O196 C204 1.304 . S
O197 Zn185 1.924 . S
O197 C205 1.311 . S
O198 Zn189 1.977 . S
O198 C204 1.272 . S
O199 Zn189 1.910 . S
O199 C205 1.231 . S
C200 O184 1.225 . S
C200 O206 1.298 . S
C201 O190 1.226 1_565 S
C201 O191 1.307 . S
C202 O194 1.303 . S
C202 O195 1.247 1_545 S
C203 O192 1.253 . S
C203 O193 1.283 . S
C204 O196 1.304 . S
C204 O198 1.272 . S
C205 O197 1.311 . S
C205 O199 1.231 . S
O206 Zn188 1.953 . S
O206 C200 1.298 . S
O207 Zn208 1.953 . S
O207 C223 1.225 . S
Zn208 O207 1.953 . S
Zn208 O209 1.949 . S
Zn208 O215 1.919 . S
Zn208 O220 1.924 . S
O209 Zn208 1.949 . S
O209 Zn210 1.923 . S
O209 Zn211 1.950 . S
O209 Zn212 1.945 . S
Zn210 O209 1.923 . S
Zn210 O213 1.933 . S
Zn210 O216 1.941 . S
Zn210 O217 1.965 . S
Zn211 O209 1.950 . S
Zn211 O218 1.938 . S
Zn211 O219 1.906 . S
Zn211 O229 1.953 . S
Zn212 O209 1.945 . S
Zn212 O214 1.932 . S
Zn212 O221 1.977 . S
Zn212 O222 1.910 . S
O213 Zn210 1.933 . S
O213 C224 1.226 . S
O214 Zn212 1.932 . S
O214 C224 1.307 . S
O215 Zn208 1.919 . S
O215 C226 1.253 . S
O216 Zn210 1.941 . S
O216 C226 1.283 . S
O217 Zn210 1.965 . S
O217 C225 1.303 . S
O218 Zn211 1.938 . S
O218 C225 1.247 . S
O219 Zn211 1.906 . S
O219 C227 1.304 . S
O220 Zn208 1.924 . S
O220 C228 1.311 . S
O221 Zn212 1.977 . S
O221 C227 1.272 . S
O222 Zn212 1.910 . S
O222 C228 1.231 . S
C223 O207 1.225 . S
C223 O229 1.298 . S
C224 O213 1.226 . S
C224 O214 1.307 . S
C225 O217 1.303 . S
C225 O218 1.247 . S
C226 O215 1.253 . S
C226 O216 1.283 . S
C227 O219 1.304 . S
C227 O221 1.272 . S
C228 O220 1.311 . S
C228 O222 1.231 . S
O229 Zn211 1.953 . S
O229 C223 1.298 . S
O230 Zn231 1.953 . S
O230 C246 1.225 . S
Zn231 O230 1.953 . S
Zn231 O232 1.949 . S
Zn231 O238 1.919 . S
Zn231 O243 1.924 . S
O232 Zn231 1.949 . S
O232 Zn233 1.923 . S
O232 Zn234 1.950 . S
O232 Zn235 1.945 . S
Zn233 O232 1.923 . S
Zn233 O236 1.933 1_455 S
Zn233 O239 1.941 . S
Zn233 O240 1.965 1_455 S
Zn234 O232 1.950 . S
Zn234 O241 1.938 . S
Zn234 O242 1.906 . S
Zn234 O252 1.953 . S
Zn235 O232 1.945 . S
Zn235 O237 1.932 . S
Zn235 O244 1.977 . S
Zn235 O245 1.910 . S
O236 Zn233 1.933 1_655 S
O236 C247 1.226 1_655 S
O237 Zn235 1.932 . S
O237 C247 1.307 . S
O238 Zn231 1.919 . S
O238 C249 1.253 . S
O239 Zn233 1.941 . S
O239 C249 1.283 . S
O240 Zn233 1.965 1_655 S
O240 C248 1.303 . S
O241 Zn234 1.938 . S
O241 C248 1.247 1_455 S
O242 Zn234 1.906 . S
O242 C250 1.304 . S
O243 Zn231 1.924 . S
O243 C251 1.311 . S
O244 Zn235 1.977 . S
O244 C250 1.272 . S
O245 Zn235 1.910 . S
O245 C251 1.231 . S
C246 O230 1.225 . S
C246 O252 1.298 . S
C247 O236 1.226 1_455 S
C247 O237 1.307 . S
C248 O240 1.303 . S
C248 O241 1.247 1_655 S
C249 O238 1.253 . S
C249 O239 1.283 . S
C250 O242 1.304 . S
C250 O244 1.272 . S
C251 O243 1.311 . S
C251 O245 1.231 . S
O252 Zn234 1.953 . S
O252 C246 1.298 . S
O253 Zn254 1.953 . S
O253 C269 1.225 . S
Zn254 O253 1.953 . S
Zn254 O255 1.949 . S
Zn254 O261 1.919 . S
Zn254 O266 1.924 . S
O255 Zn254 1.949 . S
O255 Zn256 1.923 . S
O255 Zn257 1.950 . S
O255 Zn258 1.945 . S
Zn256 O255 1.923 . S
Zn256 O259 1.933 1_545 S
Zn256 O262 1.941 . S
Zn256 O263 1.965 1_545 S
Zn257 O255 1.950 . S
Zn257 O264 1.938 . S
Zn257 O265 1.906 . S
Zn257 O275 1.953 . S
Zn258 O255 1.945 . S
Zn258 O260 1.932 . S
Zn258 O267 1.977 . S
Zn258 O268 1.910 . S
O259 Zn256 1.933 1_565 S
O259 C270 1.226 1_565 S
O260 Zn258 1.932 . S
O260 C270 1.307 . S
O261 Zn254 1.919 . S
O261 C272 1.253 . S
O262 Zn256 1.941 . S
O262 C272 1.283 . S
O263 Zn256 1.965 1_565 S
O263 C271 1.303 . S
O264 Zn257 1.938 . S
O264 C271 1.247 1_545 S
O265 Zn257 1.906 . S
O265 C273 1.304 . S
O266 Zn254 1.924 . S
O266 C274 1.311 . S
O267 Zn258 1.977 . S
O267 C273 1.272 . S
O268 Zn258 1.910 . S
O268 C274 1.231 . S
C269 O253 1.225 . S
C269 O275 1.298 . S
C270 O259 1.226 1_545 S
C270 O260 1.307 . S
C271 O263 1.303 . S
C271 O264 1.247 1_565 S
C272 O261 1.253 . S
C272 O262 1.283 . S
C273 O265 1.304 . S
C273 O267 1.272 . S
C274 O266 1.311 . S
C274 O268 1.231 . S
O275 Zn257 1.953 . S
O275 C269 1.298 . S
H276 C294 0.951 . S
H277 C296 0.951 . S
H278 C298 0.950 . S
H279 C299 0.950 . S
H280 C301 0.950 . S
H281 C304 0.950 . S
H282 C305 0.950 . S
H283 C307 0.933 1_554 S
H284 C308 0.950 . S
H285 C309 0.951 . S
H286 C311 0.951 . S
H287 C313 0.950 . S
H288 C314 0.950 . S
H289 C316 0.950 . S
H290 C319 0.950 . S
H291 C320 0.950 . S
H292 C322 0.950 . S
H293 C323 0.950 . S
C294 H276 0.951 . S
C294 C295 1.366 1_554 S
C294 C296 1.388 . S
C295 C294 1.366 1_556 S
C295 C299 1.385 . S
C296 H277 0.951 . S
C296 C294 1.388 . S
C296 C297 1.364 . S
C297 C296 1.364 . S
C297 C298 1.416 1_554 S
C297 C300 1.498 . S
C298 H278 0.950 . S
C298 C297 1.416 1_556 S
C298 C299 1.374 . S
C299 H279 0.950 . S
C299 C295 1.385 . S
C299 C298 1.374 . S
C300 C297 1.498 . S
C300 C301 1.373 . S
C300 C302 1.389 . S
C301 H280 0.950 . S
C301 C300 1.373 . S
C301 C317 1.377 . S
C302 C300 1.389 . S
C302 C303 1.524 1_554 S
C302 C316 1.377 . S
C303 C302 1.524 1_556 S
C303 C304 1.397 . S
C303 C308 1.363 1_556 S
C304 H281 0.950 . S
C304 C303 1.397 . S
C304 C305 1.334 . S
C305 H282 0.950 . S
C305 C304 1.334 . S
C305 C306 1.287 . S
C306 C305 1.287 . S
C306 C307 1.524 . S
C306 H325 0.913 . S
C307 H283 0.933 1_556 S
C307 C306 1.524 . S
C307 C308 1.415 1_556 S
C308 H284 0.950 . S
C308 C303 1.363 1_554 S
C308 C307 1.415 1_554 S
C309 H285 0.951 . S
C309 C310 1.366 . S
C309 C311 1.388 . S
C310 C309 1.366 . S
C310 C314 1.385 . S
C311 H286 0.951 . S
C311 C309 1.388 . S
C311 C312 1.366 . S
C312 C311 1.366 . S
C312 C313 1.414 . S
C312 C315 1.499 . S
C313 H287 0.950 . S
C313 C312 1.414 . S
C313 C314 1.374 . S
C314 H288 0.950 . S
C314 C310 1.385 . S
C314 C313 1.374 . S
C315 C312 1.499 . S
C315 C316 1.373 . S
C315 C317 1.389 . S
C316 H289 0.950 . S
C316 C302 1.377 . S
C316 C315 1.373 . S
C317 C301 1.377 . S
C317 C315 1.389 . S
C317 C318 1.524 . S
C318 C317 1.524 . S
C318 C319 1.397 . S
C318 C323 1.363 . S
C319 H290 0.950 . S
C319 C318 1.397 . S
C319 C320 1.334 . S
C320 H291 0.950 . S
C320 C319 1.334 . S
C320 C321 1.287 . S
C321 C320 1.287 . S
C321 C322 1.524 . S
C321 H324 0.999 . S
C322 H292 0.950 . S
C322 C321 1.524 . S
C322 C323 1.415 . S
C323 H293 0.950 . S
C323 C318 1.363 . S
C323 C322 1.415 . S
H324 C321 0.999 . S
H325 C306 0.913 . S
H326 C344 0.951 . S
H327 C346 0.951 . S
H328 C348 0.950 . S
H329 C349 0.950 . S
H330 C351 0.950 . S
H331 C354 0.950 . S
H332 C355 0.950 . S
H333 C357 0.950 . S
H334 C358 0.950 . S
H335 C359 0.951 . S
H336 C361 0.951 . S
H337 C363 0.950 . S
H338 C364 0.950 . S
H339 C366 0.950 1_655 S
H340 C369 0.950 . S
H341 C370 0.950 . S
H342 C372 0.950 . S
H343 C373 0.950 . S
C344 H326 0.951 . S
C344 C345 1.366 . S
C344 C346 1.388 . S
C345 C344 1.366 . S
C345 C349 1.385 . S
C346 H327 0.951 . S
C346 C344 1.388 . S
C346 C347 1.366 . S
C347 C346 1.366 . S
C347 C348 1.414 . S
C347 C350 1.499 . S
C348 H328 0.950 . S
C348 C347 1.414 . S
C348 C349 1.374 . S
C349 H329 0.950 . S
C349 C345 1.385 . S
C349 C348 1.374 . S
C350 C347 1.499 . S
C350 C351 1.373 . S
C350 C352 1.389 . S
C351 H330 0.950 . S
C351 C350 1.373 . S
C351 C367 1.377 . S
C352 C350 1.389 . S
C352 C353 1.524 . S
C352 C366 1.377 . S
C353 C352 1.524 . S
C353 C354 1.397 . S
C353 C358 1.363 1_455 S
C354 H331 0.950 . S
C354 C353 1.397 . S
C354 C355 1.334 . S
C355 H332 0.950 . S
C355 C354 1.334 . S
C355 C356 1.287 . S
C356 C355 1.287 . S
C356 C357 1.524 1_455 S
C356 H375 0.913 . S
C357 H333 0.950 . S
C357 C356 1.524 1_655 S
C357 C358 1.415 . S
C358 H334 0.950 . S
C358 C353 1.363 1_655 S
C358 C357 1.415 . S
C359 H335 0.951 . S
C359 C360 1.366 1_455 S
C359 C361 1.388 . S
C360 C359 1.366 1_655 S
C360 C364 1.385 . S
C361 H336 0.951 . S
C361 C359 1.388 . S
C361 C362 1.366 . S
C362 C361 1.366 . S
C362 C363 1.414 1_455 S
C362 C365 1.499 . S
C363 H337 0.950 . S
C363 C362 1.414 1_655 S
C363 C364 1.374 . S
C364 H338 0.950 . S
C364 C360 1.385 . S
C364 C363 1.374 . S
C365 C362 1.499 . S
C365 C366 1.373 . S
C365 C367 1.389 . S
C366 H339 0.950 1_455 S
C366 C352 1.377 . S
C366 C365 1.373 . S
C367 C351 1.377 . S
C367 C365 1.389 . S
C367 C368 1.524 . S
C368 C367 1.524 . S
C368 C369 1.397 . S
C368 C373 1.363 . S
C369 H340 0.950 . S
C369 C368 1.397 . S
C369 C370 1.334 . S
C370 H341 0.950 . S
C370 C369 1.334 . S
C370 C371 1.287 . S
C371 C370 1.287 . S
C371 C372 1.524 . S
C371 H374 0.999 . S
C372 H342 0.950 . S
C372 C371 1.524 . S
C372 C373 1.415 . S
C373 H343 0.950 . S
C373 C368 1.363 . S
C373 C372 1.415 . S
H374 C371 0.999 . S
H375 C356 0.913 . S
H376 C394 0.951 . S
H377 C396 0.951 . S
H378 C398 0.950 . S
H379 C399 0.950 . S
H380 C401 0.950 . S
H381 C404 0.950 . S
H382 C405 0.950 . S
H383 C407 0.950 . S
H384 C408 0.950 . S
H385 C409 0.951 . S
H386 C411 0.951 . S
H387 C413 0.950 . S
H388 C414 0.951 1_545 S
H389 C416 0.950 . S
H390 C419 0.950 . S
H391 C420 0.950 . S
H392 C422 0.950 . S
H393 C423 0.950 . S
C394 H376 0.951 . S
C394 C395 1.366 . S
C394 C396 1.388 . S
C395 C394 1.366 . S
C395 C399 1.385 . S
C396 H377 0.951 . S
C396 C394 1.388 . S
C396 C397 1.366 . S
C397 C396 1.366 . S
C397 C398 1.414 . S
C397 C400 1.499 . S
C398 H378 0.950 . S
C398 C397 1.414 . S
C398 C399 1.374 . S
C399 H379 0.950 . S
C399 C395 1.385 . S
C399 C398 1.374 . S
C400 C397 1.499 . S
C400 C401 1.373 . S
C400 C402 1.389 . S
C401 H380 0.950 . S
C401 C400 1.373 . S
C401 C417 1.377 . S
C402 C400 1.389 . S
C402 C403 1.524 . S
C402 C416 1.377 . S
C403 C402 1.524 . S
C403 C404 1.397 . S
C403 C408 1.363 . S
C404 H381 0.950 . S
C404 C403 1.397 . S
C404 C405 1.334 . S
C405 H382 0.950 . S
C405 C404 1.334 . S
C405 C406 1.287 . S
C406 C405 1.287 . S
C406 C407 1.524 . S
C406 H425 0.913 . S
C407 H383 0.950 . S
C407 C406 1.524 . S
C407 C408 1.415 . S
C408 H384 0.950 . S
C408 C403 1.363 . S
C408 C407 1.415 . S
C409 H385 0.951 . S
C409 C410 1.366 . S
C409 C411 1.388 . S
C410 C409 1.366 . S
C410 C414 1.398 . S
C411 H386 0.951 . S
C411 C409 1.388 . S
C411 C412 1.366 1_565 S
C412 C411 1.366 1_545 S
C412 C413 1.414 . S
C412 C415 1.499 . S
C413 H387 0.950 . S
C413 C412 1.414 . S
C413 C414 1.360 1_545 S
C414 H388 0.951 1_565 S
C414 C410 1.398 . S
C414 C413 1.360 1_565 S
C415 C412 1.499 . S
C415 C416 1.373 . S
C415 C417 1.389 . S
C416 H389 0.950 . S
C416 C402 1.377 . S
C416 C415 1.373 . S
C417 C401 1.377 . S
C417 C415 1.389 . S
C417 C418 1.524 1_545 S
C418 C417 1.524 1_565 S
C418 C419 1.397 . S
C418 C423 1.363 . S
C419 H390 0.950 . S
C419 C418 1.397 . S
C419 C420 1.334 . S
C420 H391 0.950 . S
C420 C419 1.334 . S
C420 C421 1.287 . S
C421 C420 1.287 . S
C421 C422 1.524 . S
C421 H424 0.999 . S
C422 H392 0.950 . S
C422 C421 1.524 . S
C422 C423 1.415 . S
C423 H393 0.950 . S
C423 C418 1.363 . S
C423 C422 1.415 . S
H424 C421 0.999 . S
H425 C406 0.913 . S
H426 C444 0.951 . S
H427 C446 0.951 . S
H428 C448 0.950 . S
H429 C449 0.950 . S
H430 C451 0.950 . S
H431 C454 0.950 . S
H432 C455 0.950 . S
H433 C457 0.950 . S
H434 C458 0.950 . S
H435 C459 0.951 . S
H436 C461 0.951 . S
H437 C463 0.950 . S
H438 C464 0.950 . S
H439 C466 0.950 . S
H440 C469 0.950 . S
H441 C470 0.950 . S
H442 C472 0.950 . S
H443 C473 0.950 . S
C444 H426 0.951 . S
C444 C445 1.366 . S
C444 C446 1.388 . S
C445 C444 1.366 . S
C445 C449 1.385 . S
C446 H427 0.951 . S
C446 C444 1.388 . S
C446 C447 1.366 . S
C447 C446 1.366 . S
C447 C448 1.414 . S
C447 C450 1.499 . S
C448 H428 0.950 . S
C448 C447 1.414 . S
C448 C449 1.374 . S
C449 H429 0.950 . S
C449 C445 1.385 . S
C449 C448 1.374 . S
C450 C447 1.499 . S
C450 C451 1.373 . S
C450 C452 1.389 . S
C451 H430 0.950 . S
C451 C450 1.373 . S
C451 C467 1.377 . S
C452 C450 1.389 . S
C452 C453 1.524 . S
C452 C466 1.377 . S
C453 C452 1.524 . S
C453 C454 1.397 . S
C453 C458 1.363 . S
C454 H431 0.950 . S
C454 C453 1.397 . S
C454 C455 1.334 . S
C455 H432 0.950 . S
C455 C454 1.334 . S
C455 C456 1.287 . S
C456 C455 1.287 . S
C456 C457 1.524 . S
C456 H475 0.913 . S
C457 H433 0.950 . S
C457 C456 1.524 . S
C457 C458 1.415 . S
C458 H434 0.950 . S
C458 C453 1.363 . S
C458 C457 1.415 . S
C459 H435 0.951 . S
C459 C460 1.366 . S
C459 C461 1.388 . S
C460 C459 1.366 . S
C460 C464 1.385 . S
C461 H436 0.951 . S
C461 C459 1.388 . S
C461 C462 1.366 . S
C462 C461 1.366 . S
C462 C463 1.414 . S
C462 C465 1.499 . S
C463 H437 0.950 . S
C463 C462 1.414 . S
C463 C464 1.374 . S
C464 H438 0.950 . S
C464 C460 1.385 . S
C464 C463 1.374 . S
C465 C462 1.499 . S
C465 C466 1.373 . S
C465 C467 1.389 . S
C466 H439 0.950 . S
C466 C452 1.377 . S
C466 C465 1.373 . S
C467 C451 1.377 . S
C467 C465 1.389 . S
C467 C468 1.524 . S
C468 C467 1.524 . S
C468 C469 1.397 . S
C468 C473 1.363 . S
C469 H440 0.950 . S
C469 C468 1.397 . S
C469 C470 1.334 . S
C470 H441 0.950 . S
C470 C469 1.334 . S
C470 C471 1.287 . S
C471 C470 1.287 . S
C471 C472 1.524 . S
C471 H474 0.999 . S
C472 H442 0.950 . S
C472 C471 1.524 . S
C472 C473 1.415 . S
C473 H443 0.950 . S
C473 C468 1.363 . S
C473 C472 1.415 . S
H474 C471 0.999 . S
H475 C456 0.913 . S
H476 C494 0.951 . S
H477 C496 0.951 . S
H478 C498 0.950 . S
H479 C499 0.950 . S
H480 C501 0.950 . S
H481 C504 0.950 . S
H482 C505 0.950 . S
H483 C507 0.950 . S
H484 C508 0.950 . S
H485 C509 0.951 . S
H486 C511 0.951 . S
H487 C513 0.950 . S
H488 C514 0.950 . S
H489 C516 0.950 . S
H490 C519 0.950 . S
H491 C520 0.950 . S
H492 C522 0.950 . S
H493 C523 0.950 . S
C494 H476 0.951 . S
C494 C495 1.366 . S
C494 C496 1.388 . S
C495 C494 1.366 . S
C495 C499 1.385 . S
C496 H477 0.951 . S
C496 C494 1.388 . S
C496 C497 1.366 . S
C497 C496 1.366 . S
C497 C498 1.414 . S
C497 C500 1.499 . S
C498 H478 0.950 . S
C498 C497 1.414 . S
C498 C499 1.374 . S
C499 H479 0.950 . S
C499 C495 1.385 . S
C499 C498 1.374 . S
C500 C497 1.499 . S
C500 C501 1.373 . S
C500 C502 1.389 . S
C501 H480 0.950 . S
C501 C500 1.373 . S
C501 C517 1.377 . S
C502 C500 1.389 . S
C502 C503 1.524 . S
C502 C516 1.377 . S
C503 C502 1.524 . S
C503 C504 1.397 . S
C503 C508 1.363 . S
C504 H481 0.950 . S
C504 C503 1.397 . S
C504 C505 1.334 . S
C505 H482 0.950 . S
C505 C504 1.334 . S
C505 C506 1.287 . S
C506 C505 1.287 . S
C506 C507 1.524 . S
C506 H525 0.913 . S
C507 H483 0.950 . S
C507 C506 1.524 . S
C507 C508 1.415 . S
C508 H484 0.950 . S
C508 C503 1.363 . S
C508 C507 1.415 . S
C509 H485 0.951 . S
C509 C510 1.366 . S
C509 C511 1.388 . S
C510 C509 1.366 . S
C510 C514 1.385 1_455 S
C511 H486 0.951 . S
C511 C509 1.388 . S
C511 C512 1.366 1_455 S
C512 C511 1.366 1_655 S
C512 C513 1.414 . S
C512 C515 1.499 . S
C513 H487 0.950 . S
C513 C512 1.414 . S
C513 C514 1.374 . S
C514 H488 0.950 . S
C514 C510 1.385 1_655 S
C514 C513 1.374 . S
C515 C512 1.499 . S
C515 C516 1.373 . S
C515 C517 1.389 . S
C516 H489 0.950 . S
C516 C502 1.377 . S
C516 C515 1.373 . S
C517 C501 1.377 . S
C517 C515 1.389 . S
C517 C518 1.524 1_655 S
C518 C517 1.524 1_455 S
C518 C519 1.397 1_455 S
C518 C523 1.363 . S
C519 H490 0.950 . S
C519 C518 1.397 1_655 S
C519 C520 1.334 1_655 S
C520 H491 0.950 . S
C520 C519 1.334 1_455 S
C520 C521 1.287 . S
C521 C520 1.287 . S
C521 C522 1.524 . S
C521 H524 0.999 . S
C522 H492 0.950 . S
C522 C521 1.524 . S
C522 C523 1.415 . S
C523 H493 0.950 . S
C523 C518 1.363 . S
C523 C522 1.415 . S
H524 C521 0.999 . S
H525 C506 0.913 . S
H526 C544 0.951 . S
H527 C546 0.951 . S
H528 C548 0.950 . S
H529 C549 0.950 . S
H530 C551 0.950 . S
H531 C554 0.950 . S
H532 C555 0.950 . S
H533 C557 0.950 . S
H534 C558 0.950 . S
H535 C559 0.951 . S
H536 C561 0.951 . S
H537 C563 0.950 . S
H538 C564 0.950 . S
H539 C566 0.950 . S
H540 C569 0.950 . S
H541 C570 0.950 . S
H542 C572 0.950 . S
H543 C573 0.950 . S
C544 H526 0.951 . S
C544 C545 1.366 . S
C544 C546 1.388 . S
C545 C544 1.366 . S
C545 C549 1.385 . S
C546 H527 0.951 . S
C546 C544 1.388 . S
C546 C547 1.366 . S
C547 C546 1.366 . S
C547 C548 1.414 . S
C547 C550 1.499 . S
C548 H528 0.950 . S
C548 C547 1.414 . S
C548 C549 1.374 . S
C549 H529 0.950 . S
C549 C545 1.385 . S
C549 C548 1.374 . S
C550 C547 1.499 . S
C550 C551 1.373 . S
C550 C552 1.389 . S
C551 H530 0.950 . S
C551 C550 1.373 . S
C551 C567 1.377 . S
C552 C550 1.389 . S
C552 C553 1.524 . S
C552 C566 1.377 . S
C553 C552 1.524 . S
C553 C554 1.397 . S
C553 C558 1.363 . S
C554 H531 0.950 . S
C554 C553 1.397 . S
C554 C555 1.334 . S
C555 H532 0.950 . S
C555 C554 1.334 . S
C555 C556 1.287 . S
C556 C555 1.287 . S
C556 C557 1.524 . S
C556 H575 0.913 . S
C557 H533 0.950 . S
C557 C556 1.524 . S
C557 C558 1.415 . S
C558 H534 0.950 . S
C558 C553 1.363 . S
C558 C557 1.415 . S
C559 H535 0.951 . S
C559 C560 1.366 . S
C559 C561 1.388 . S
C560 C559 1.366 . S
C560 C564 1.385 1_545 S
C561 H536 0.951 . S
C561 C559 1.388 . S
C561 C562 1.366 1_545 S
C562 C561 1.366 1_565 S
C562 C563 1.414 . S
C562 C565 1.499 . S
C563 H537 0.950 . S
C563 C562 1.414 . S
C563 C564 1.374 . S
C564 H538 0.950 . S
C564 C560 1.385 1_565 S
C564 C563 1.374 . S
C565 C562 1.499 . S
C565 C566 1.373 . S
C565 C567 1.389 . S
C566 H539 0.950 . S
C566 C552 1.377 . S
C566 C565 1.373 . S
C567 C551 1.377 . S
C567 C565 1.389 . S
C567 C568 1.524 1_565 S
C568 C567 1.524 1_545 S
C568 C569 1.397 . S
C568 C573 1.363 . S
C569 H540 0.950 . S
C569 C568 1.397 . S
C569 C570 1.334 . S
C570 H541 0.950 . S
C570 C569 1.334 . S
C570 C571 1.287 . S
C571 C570 1.287 . S
C571 C572 1.524 . S
C571 H574 0.999 . S
C572 H542 0.950 . S
C572 C571 1.524 . S
C572 C573 1.415 . S
C573 H543 0.950 . S
C573 C568 1.363 . S
C573 C572 1.415 . S
H574 C571 0.999 . S
H575 C556 0.913 . S
H576 C594 0.951 . S
H577 C596 0.951 . S
H578 C598 0.950 . S
H579 C599 0.950 . S
H580 C601 0.950 . S
H581 C604 0.950 . S
H582 C605 0.950 . S
H583 C607 0.950 . S
H584 C608 0.950 . S
H585 C609 0.951 . S
H586 C611 0.951 . S
H587 C613 0.950 . S
H588 C614 0.950 . S
H589 C616 0.950 . S
H590 C619 0.950 . S
H591 C620 0.950 . S
H592 C622 0.950 . S
H593 C623 0.950 . S
C594 H576 0.951 . S
C594 C595 1.366 . S
C594 C596 1.388 . S
C595 C594 1.366 . S
C595 C599 1.385 . S
C596 H577 0.951 . S
C596 C594 1.388 . S
C596 C597 1.366 . S
C597 C596 1.366 . S
C597 C598 1.414 . S
C597 C600 1.499 . S
C598 H578 0.950 . S
C598 C597 1.414 . S
C598 C599 1.374 . S
C599 H579 0.950 . S
C599 C595 1.385 . S
C599 C598 1.374 . S
C600 C597 1.499 . S
C600 C601 1.373 . S
C600 C602 1.389 . S
C601 H580 0.950 . S
C601 C600 1.373 . S
C601 C617 1.377 . S
C602 C600 1.389 . S
C602 C603 1.524 . S
C602 C616 1.377 . S
C603 C602 1.524 . S
C603 C604 1.397 . S
C603 C608 1.363 . S
C604 H581 0.950 . S
C604 C603 1.397 . S
C604 C605 1.334 . S
C605 H582 0.950 . S
C605 C604 1.334 . S
C605 C606 1.287 . S
C606 C605 1.287 . S
C606 C607 1.524 . S
C606 H625 0.913 . S
C607 H583 0.950 . S
C607 C606 1.524 . S
C607 C608 1.415 . S
C608 H584 0.950 . S
C608 C603 1.363 . S
C608 C607 1.415 . S
C609 H585 0.951 . S
C609 C610 1.366 . S
C609 C611 1.388 . S
C610 C609 1.366 . S
C610 C614 1.385 . S
C611 H586 0.951 . S
C611 C609 1.388 . S
C611 C612 1.366 . S
C612 C611 1.366 . S
C612 C613 1.414 . S
C612 C615 1.499 . S
C613 H587 0.950 . S
C613 C612 1.414 . S
C613 C614 1.374 . S
C614 H588 0.950 . S
C614 C610 1.385 . S
C614 C613 1.374 . S
C615 C612 1.499 . S
C615 C616 1.373 . S
C615 C617 1.389 . S
C616 H589 0.950 . S
C616 C602 1.377 . S
C616 C615 1.373 . S
C617 C601 1.377 . S
C617 C615 1.389 . S
C617 C618 1.524 . S
C618 C617 1.524 . S
C618 C619 1.397 . S
C618 C623 1.363 . S
C619 H590 0.950 . S
C619 C618 1.397 . S
C619 C620 1.334 . S
C620 H591 0.950 . S
C620 C619 1.334 . S
C620 C621 1.287 . S
C621 C620 1.287 . S
C621 C622 1.524 . S
C621 H624 0.999 . S
C622 H592 0.950 . S
C622 C621 1.524 . S
C622 C623 1.415 . S
C623 H593 0.950 . S
C623 C618 1.363 . S
C623 C622 1.415 . S
H624 C621 0.999 . S
H625 C606 0.913 . S
H626 C644 0.951 1_554 S
H627 C646 0.951 1_554 S
H628 C648 0.950 . S
H629 C649 0.950 . S
H630 C651 0.950 1_655 S
H631 C654 0.950 . S
H632 C655 0.950 . S
H633 C657 0.950 . S
H634 C658 0.950 . S
H635 C659 0.951 . S
H636 C661 0.951 . S
H637 C663 0.950 . S
H638 C664 0.950 . S
H639 C666 0.918 1_554 S
H640 C669 0.951 . S
H641 C670 0.950 . S
H642 C672 0.950 . S
H643 C673 0.950 . S
C644 H626 0.951 1_556 S
C644 C645 1.366 . S
C644 C646 1.388 1_655 S
C645 C644 1.366 . S
C645 C649 1.385 . S
C646 H627 0.951 1_556 S
C646 C644 1.388 1_455 S
C646 C647 1.366 . S
C647 C646 1.366 . S
C647 C648 1.414 1_455 S
C647 C650 1.499 . S
C648 H628 0.950 . S
C648 C647 1.414 1_655 S
C648 C649 1.374 . S
C649 H629 0.950 . S
C649 C645 1.385 . S
C649 C648 1.374 . S
C650 C647 1.499 . S
C650 C651 1.373 . S
C650 C652 1.389 . S
C651 H630 0.950 1_455 S
C651 C650 1.373 . S
C651 C667 1.377 . S
C652 C650 1.389 . S
C652 C653 1.524 . S
C652 C666 1.404 . S
C653 C652 1.524 . S
C653 C654 1.397 . S
C653 C658 1.363 1_556 S
C654 H631 0.950 . S
C654 C653 1.397 . S
C654 C655 1.334 . S
C655 H632 0.950 . S
C655 C654 1.334 . S
C655 C656 1.287 . S
C656 C655 1.287 . S
C656 C657 1.524 1_556 S
C656 H675 0.913 . S
C657 H633 0.950 . S
C657 C656 1.524 1_554 S
C657 C658 1.415 . S
C658 H634 0.950 . S
C658 C653 1.363 1_554 S
C658 C657 1.415 . S
C659 H635 0.951 . S
C659 C660 1.366 1_556 S
C659 C661 1.388 . S
C660 C659 1.366 1_554 S
C660 C664 1.385 . S
C661 H636 0.951 . S
C661 C659 1.388 . S
C661 C662 1.381 . S
C662 C661 1.381 . S
C662 C663 1.394 1_556 S
C662 C665 1.503 . S
C663 H637 0.950 . S
C663 C662 1.394 1_554 S
C663 C664 1.374 . S
C664 H638 0.950 . S
C664 C660 1.385 . S
C664 C663 1.374 . S
C665 C662 1.503 . S
C665 C666 1.389 . S
C665 C667 1.389 . S
C666 H639 0.918 1_556 S
C666 C652 1.404 . S
C666 C665 1.389 . S
C667 C651 1.377 . S
C667 C665 1.389 . S
C667 C668 1.524 . S
C668 C667 1.524 . S
C668 C669 1.395 1_556 S
C668 C673 1.363 1_455 S
C669 H640 0.951 . S
C669 C668 1.395 1_554 S
C669 C670 1.334 1_455 S
C670 H641 0.950 . S
C670 C669 1.334 1_655 S
C670 C671 1.287 1_554 S
C671 C670 1.287 1_556 S
C671 C672 1.524 . S
C671 H674 0.999 . S
C672 H642 0.950 . S
C672 C671 1.524 . S
C672 C673 1.415 . S
C673 H643 0.950 . S
C673 C668 1.363 1_655 S
C673 C672 1.415 . S
H674 C671 0.999 . S
H675 C656 0.913 . S
H676 C694 0.951 1_545 S
H677 C696 0.951 . S
H678 C698 0.950 . S
H679 C699 0.950 . S
H680 C701 0.950 . S
H681 C704 0.950 . S
H682 C705 0.950 . S
H683 C707 0.950 . S
H684 C708 0.950 . S
H685 C709 0.951 . S
H686 C711 0.951 . S
H687 C713 0.950 . S
H688 C714 0.950 . S
H689 C716 0.950 . S
H690 C719 0.950 . S
H691 C720 0.950 . S
H692 C722 0.950 . S
H693 C723 0.950 . S
C694 H676 0.951 1_565 S
C694 C695 1.366 . S
C694 C696 1.388 1_565 S
C695 C694 1.366 . S
C695 C699 1.385 . S
C696 H677 0.951 . S
C696 C694 1.388 1_545 S
C696 C697 1.366 . S
C697 C696 1.366 . S
C697 C698 1.414 1_545 S
C697 C700 1.499 . S
C698 H678 0.950 . S
C698 C697 1.414 1_565 S
C698 C699 1.374 . S
C699 H679 0.950 . S
C699 C695 1.385 . S
C699 C698 1.374 . S
C700 C697 1.499 . S
C700 C701 1.373 . S
C700 C702 1.389 . S
C701 H680 0.950 . S
C701 C700 1.373 . S
C701 C717 1.377 . S
C702 C700 1.389 . S
C702 C703 1.524 . S
C702 C716 1.377 . S
C703 C702 1.524 . S
C703 C704 1.397 1_545 S
C703 C708 1.363 . S
C704 H681 0.950 . S
C704 C703 1.397 1_565 S
C704 C705 1.334 . S
C705 H682 0.950 . S
C705 C704 1.334 . S
C705 C706 1.287 . S
C706 C705 1.287 . S
C706 C707 1.524 1_565 S
C706 H725 0.913 . S
C707 H683 0.950 . S
C707 C706 1.524 1_545 S
C707 C708 1.415 . S
C708 H684 0.950 . S
C708 C703 1.363 . S
C708 C707 1.415 . S
C709 H685 0.951 . S
C709 C710 1.366 . S
C709 C711 1.388 . S
C710 C709 1.366 . S
C710 C714 1.385 . S
C711 H686 0.951 . S
C711 C709 1.388 . S
C711 C712 1.366 . S
C712 C711 1.366 . S
C712 C713 1.414 . S
C712 C715 1.499 . S
C713 H687 0.950 . S
C713 C712 1.414 . S
C713 C714 1.374 . S
C714 H688 0.950 . S
C714 C710 1.385 . S
C714 C713 1.374 . S
C715 C712 1.499 . S
C715 C716 1.373 . S
C715 C717 1.389 . S
C716 H689 0.950 . S
C716 C702 1.377 . S
C716 C715 1.373 . S
C717 C701 1.377 . S
C717 C715 1.389 . S
C717 C718 1.524 . S
C718 C717 1.524 . S
C718 C719 1.397 . S
C718 C723 1.363 . S
C719 H690 0.950 . S
C719 C718 1.397 . S
C719 C720 1.334 . S
C720 H691 0.950 . S
C720 C719 1.334 . S
C720 C721 1.287 . S
C721 C720 1.287 . S
C721 C722 1.524 . S
C721 H724 0.999 . S
C722 H692 0.950 . S
C722 C721 1.524 . S
C722 C723 1.415 . S
C723 H693 0.950 . S
C723 C718 1.363 . S
C723 C722 1.415 . S
H724 C721 0.999 . S
H725 C706 0.913 . S
H726 C744 0.951 . S
H727 C746 0.951 . S
H728 C748 0.950 . S
H729 C749 0.950 . S
H730 C751 0.950 . S
H731 C754 0.950 . S
H732 C755 0.950 . S
H733 C757 0.950 . S
H734 C758 0.950 . S
H735 C759 0.951 . S
H736 C761 0.951 . S
H737 C763 0.950 . S
H738 C764 0.950 . S
H739 C766 0.950 . S
H740 C769 0.950 . S
H741 C770 0.950 . S
H742 C772 0.950 . S
H743 C773 0.950 . S
C744 H726 0.951 . S
C744 C745 1.366 . S
C744 C746 1.388 . S
C745 C744 1.366 . S
C745 C749 1.385 . S
C746 H727 0.951 . S
C746 C744 1.388 . S
C746 C747 1.366 . S
C747 C746 1.366 . S
C747 C748 1.414 . S
C747 C750 1.499 . S
C748 H728 0.950 . S
C748 C747 1.414 . S
C748 C749 1.374 . S
C749 H729 0.950 . S
C749 C745 1.385 . S
C749 C748 1.374 . S
C750 C747 1.499 . S
C750 C751 1.373 . S
C750 C752 1.389 . S
C751 H730 0.950 . S
C751 C750 1.373 . S
C751 C767 1.377 . S
C752 C750 1.389 . S
C752 C753 1.524 . S
C752 C766 1.377 . S
C753 C752 1.524 . S
C753 C754 1.397 . S
C753 C758 1.363 . S
C754 H731 0.950 . S
C754 C753 1.397 . S
C754 C755 1.334 . S
C755 H732 0.950 . S
C755 C754 1.334 . S
C755 C756 1.287 . S
C756 C755 1.287 . S
C756 C757 1.524 . S
C756 H775 0.913 . S
C757 H733 0.950 . S
C757 C756 1.524 . S
C757 C758 1.415 . S
C758 H734 0.950 . S
C758 C753 1.363 . S
C758 C757 1.415 . S
C759 H735 0.951 . S
C759 C760 1.366 . S
C759 C761 1.388 . S
C760 C759 1.366 . S
C760 C764 1.385 . S
C761 H736 0.951 . S
C761 C759 1.388 . S
C761 C762 1.366 . S
C762 C761 1.366 . S
C762 C763 1.414 . S
C762 C765 1.499 . S
C763 H737 0.950 . S
C763 C762 1.414 . S
C763 C764 1.374 . S
C764 H738 0.950 . S
C764 C760 1.385 . S
C764 C763 1.374 . S
C765 C762 1.499 . S
C765 C766 1.373 . S
C765 C767 1.389 . S
C766 H739 0.950 . S
C766 C752 1.377 . S
C766 C765 1.373 . S
C767 C751 1.377 . S
C767 C765 1.389 . S
C767 C768 1.524 . S
C768 C767 1.524 . S
C768 C769 1.397 . S
C768 C773 1.363 . S
C769 H740 0.950 . S
C769 C768 1.397 . S
C769 C770 1.334 . S
C770 H741 0.950 . S
C770 C769 1.334 . S
C770 C771 1.287 . S
C771 C770 1.287 . S
C771 C772 1.524 . S
C771 H774 0.999 . S
C772 H742 0.950 . S
C772 C771 1.524 . S
C772 C773 1.415 . S
C773 H743 0.950 . S
C773 C768 1.363 . S
C773 C772 1.415 . S
H774 C771 0.999 . S
H775 C756 0.913 . S
H776 C794 0.951 . S
H777 C796 0.951 . S
H778 C798 0.950 . S
H779 C799 0.950 . S
H780 C801 0.950 . S
H781 C804 0.950 . S
H782 C805 0.950 . S
H783 C807 0.950 . S
H784 C808 0.950 . S
H785 C809 0.951 . S
H786 C811 0.951 . S
H787 C813 0.950 . S
H788 C814 0.950 . S
H789 C816 0.950 . S
H790 C819 0.950 . S
H791 C820 0.950 . S
H792 C822 0.950 . S
H793 C823 0.950 . S
C794 H776 0.951 . S
C794 C795 1.366 . S
C794 C796 1.388 . S
C795 C794 1.366 . S
C795 C799 1.385 1_455 S
C796 H777 0.951 . S
C796 C794 1.388 . S
C796 C797 1.366 1_455 S
C797 C796 1.366 1_655 S
C797 C798 1.414 . S
C797 C800 1.499 . S
C798 H778 0.950 . S
C798 C797 1.414 . S
C798 C799 1.374 . S
C799 H779 0.950 . S
C799 C795 1.385 1_655 S
C799 C798 1.374 . S
C800 C797 1.499 . S
C800 C801 1.373 . S
C800 C802 1.389 . S
C801 H780 0.950 . S
C801 C800 1.373 . S
C801 C817 1.377 . S
C802 C800 1.389 . S
C802 C803 1.524 1_655 S
C802 C816 1.377 . S
C803 C802 1.524 1_455 S
C803 C804 1.397 . S
C803 C808 1.363 . S
C804 H781 0.950 . S
C804 C803 1.397 . S
C804 C805 1.334 . S
C805 H782 0.950 . S
C805 C804 1.334 . S
C805 C806 1.287 . S
C806 C805 1.287 . S
C806 C807 1.524 . S
C806 H825 0.913 . S
C807 H783 0.950 . S
C807 C806 1.524 . S
C807 C808 1.415 . S
C808 H784 0.950 . S
C808 C803 1.363 . S
C808 C807 1.415 . S
C809 H785 0.951 . S
C809 C810 1.366 . S
C809 C811 1.388 . S
C810 C809 1.366 . S
C810 C814 1.385 . S
C811 H786 0.951 . S
C811 C809 1.388 . S
C811 C812 1.366 . S
C812 C811 1.366 . S
C812 C813 1.414 . S
C812 C815 1.499 . S
C813 H787 0.950 . S
C813 C812 1.414 . S
C813 C814 1.374 . S
C814 H788 0.950 . S
C814 C810 1.385 . S
C814 C813 1.374 . S
C815 C812 1.499 . S
C815 C816 1.373 . S
C815 C817 1.389 . S
C816 H789 0.950 . S
C816 C802 1.377 . S
C816 C815 1.373 . S
C817 C801 1.377 . S
C817 C815 1.389 . S
C817 C818 1.524 . S
C818 C817 1.524 . S
C818 C819 1.397 . S
C818 C823 1.363 . S
C819 H790 0.950 . S
C819 C818 1.397 . S
C819 C820 1.334 . S
C820 H791 0.950 . S
C820 C819 1.334 . S
C820 C821 1.287 . S
C821 C820 1.287 . S
C821 C822 1.524 . S
C821 H824 0.999 . S
C822 H792 0.950 . S
C822 C821 1.524 . S
C822 C823 1.415 . S
C823 H793 0.950 . S
C823 C818 1.363 . S
C823 C822 1.415 . S
H824 C821 0.999 . S
H825 C806 0.913 . S
H826 C844 0.951 . S
H827 C846 0.951 . S
H828 C848 0.950 . S
H829 C849 0.950 . S
H830 C851 0.950 . S
H831 C854 0.950 . S
H832 C855 0.950 . S
H833 C857 0.950 . S
H834 C858 0.950 . S
H835 C859 0.951 . S
H836 C861 0.951 . S
H837 C863 0.950 . S
H838 C864 0.950 . S
H839 C866 0.950 . S
H840 C869 0.950 . S
H841 C870 0.950 . S
H842 C872 0.950 . S
H843 C873 0.950 . S
C844 H826 0.951 . S
C844 C845 1.366 . S
C844 C846 1.388 . S
C845 C844 1.366 . S
C845 C849 1.385 . S
C846 H827 0.951 . S
C846 C844 1.388 . S
C846 C847 1.366 1_545 S
C847 C846 1.366 1_565 S
C847 C848 1.414 . S
C847 C850 1.499 . S
C848 H828 0.950 . S
C848 C847 1.414 . S
C848 C849 1.374 1_565 S
C849 H829 0.950 . S
C849 C845 1.385 . S
C849 C848 1.374 1_545 S
C850 C847 1.499 . S
C850 C851 1.373 . S
C850 C852 1.389 . S
C851 H830 0.950 . S
C851 C850 1.373 . S
C851 C867 1.377 . S
C852 C850 1.389 . S
C852 C853 1.524 1_565 S
C852 C866 1.377 . S
C853 C852 1.524 1_545 S
C853 C854 1.397 . S
C853 C858 1.363 . S
C854 H831 0.950 . S
C854 C853 1.397 . S
C854 C855 1.334 . S
C855 H832 0.950 . S
C855 C854 1.334 . S
C855 C856 1.287 . S
C856 C855 1.287 . S
C856 C857 1.524 . S
C856 H875 0.913 . S
C857 H833 0.950 . S
C857 C856 1.524 . S
C857 C858 1.415 . S
C858 H834 0.950 . S
C858 C853 1.363 . S
C858 C857 1.415 . S
C859 H835 0.951 . S
C859 C860 1.366 . S
C859 C861 1.388 . S
C860 C859 1.366 . S
C860 C864 1.385 . S
C861 H836 0.951 . S
C861 C859 1.388 . S
C861 C862 1.366 . S
C862 C861 1.366 . S
C862 C863 1.414 . S
C862 C865 1.499 . S
C863 H837 0.950 . S
C863 C862 1.414 . S
C863 C864 1.374 . S
C864 H838 0.950 . S
C864 C860 1.385 . S
C864 C863 1.374 . S
C865 C862 1.499 . S
C865 C866 1.373 . S
C865 C867 1.389 . S
C866 H839 0.950 . S
C866 C852 1.377 . S
C866 C865 1.373 . S
C867 C851 1.377 . S
C867 C865 1.389 . S
C867 C868 1.524 . S
C868 C867 1.524 . S
C868 C869 1.397 . S
C868 C873 1.363 . S
C869 H840 0.950 . S
C869 C868 1.397 . S
C869 C870 1.334 . S
C870 H841 0.950 . S
C870 C869 1.334 . S
C870 C871 1.287 . S
C871 C870 1.287 . S
C871 C872 1.524 . S
C871 H874 0.999 . S
C872 H842 0.950 . S
C872 C871 1.524 . S
C872 C873 1.415 . S
C873 H843 0.950 . S
C873 C868 1.363 . S
C873 C872 1.415 . S
H874 C871 0.999 . S
H875 C856 0.913 . S
H876 C894 0.951 . S
H877 C896 0.951 . S
H878 C898 0.950 . S
H879 C899 0.950 . S
H880 C901 0.950 . S
H881 C904 0.950 . S
H882 C905 0.950 . S
H883 C907 0.950 . S
H884 C908 0.950 . S
H885 C909 0.951 . S
H886 C911 0.951 . S
H887 C913 0.950 . S
H888 C914 0.950 . S
H889 C916 0.950 . S
H890 C919 0.950 . S
H891 C920 0.950 . S
H892 C922 0.950 . S
H893 C923 0.950 . S
C894 H876 0.951 . S
C894 C895 1.366 . S
C894 C896 1.388 . S
C895 C894 1.366 . S
C895 C899 1.385 . S
C896 H877 0.951 . S
C896 C894 1.388 . S
C896 C897 1.366 . S
C897 C896 1.366 . S
C897 C898 1.414 . S
C897 C900 1.499 . S
C898 H878 0.950 . S
C898 C897 1.414 . S
C898 C899 1.374 . S
C899 H879 0.950 . S
C899 C895 1.385 . S
C899 C898 1.374 . S
C900 C897 1.499 . S
C900 C901 1.373 . S
C900 C902 1.389 . S
C901 H880 0.950 . S
C901 C900 1.373 . S
C901 C917 1.377 . S
C902 C900 1.389 . S
C902 C903 1.524 . S
C902 C916 1.377 . S
C903 C902 1.524 . S
C903 C904 1.397 . S
C903 C908 1.363 . S
C904 H881 0.950 . S
C904 C903 1.397 . S
C904 C905 1.334 . S
C905 H882 0.950 . S
C905 C904 1.334 . S
C905 C906 1.287 . S
C906 C905 1.287 . S
C906 C907 1.524 . S
C906 H925 0.913 . S
C907 H883 0.950 . S
C907 C906 1.524 . S
C907 C908 1.415 . S
C908 H884 0.950 . S
C908 C903 1.363 . S
C908 C907 1.415 . S
C909 H885 0.951 . S
C909 C910 1.366 . S
C909 C911 1.388 . S
C910 C909 1.366 . S
C910 C914 1.385 . S
C911 H886 0.951 . S
C911 C909 1.388 . S
C911 C912 1.366 . S
C912 C911 1.366 . S
C912 C913 1.414 . S
C912 C915 1.499 . S
C913 H887 0.950 . S
C913 C912 1.414 . S
C913 C914 1.374 . S
C914 H888 0.950 . S
C914 C910 1.385 . S
C914 C913 1.374 . S
C915 C912 1.499 . S
C915 C916 1.373 . S
C915 C917 1.389 . S
C916 H889 0.950 . S
C916 C902 1.377 . S
C916 C915 1.373 . S
C917 C901 1.377 . S
C917 C915 1.389 . S
C917 C918 1.524 . S
C918 C917 1.524 . S
C918 C919 1.397 . S
C918 C923 1.363 . S
C919 H890 0.950 . S
C919 C918 1.397 . S
C919 C920 1.334 . S
C920 H891 0.950 . S
C920 C919 1.334 . S
C920 C921 1.287 . S
C921 C920 1.287 . S
C921 C922 1.524 . S
C921 H924 0.999 . S
C922 H892 0.950 . S
C922 C921 1.524 . S
C922 C923 1.415 . S
C923 H893 0.950 . S
C923 C918 1.363 . S
C923 C922 1.415 . S
H924 C921 0.999 . S
H925 C906 0.913 . S
H926 C944 0.951 . S
H927 C946 0.951 . S
H928 C948 0.950 . S
H929 C949 0.950 . S
H930 C951 0.950 . S
H931 C954 0.950 . S
H932 C955 0.950 . S
H933 C957 0.950 . S
H934 C958 0.950 . S
H935 C959 0.951 . S
H936 C961 0.951 . S
H937 C963 0.950 . S
H938 C964 0.950 . S
H939 C966 0.950 . S
H940 C969 0.950 . S
H941 C970 0.950 . S
H942 C972 0.950 . S
H943 C973 0.950 1_655 S
C944 H926 0.951 . S
C944 C945 1.366 . S
C944 C946 1.388 . S
C945 C944 1.366 . S
C945 C949 1.385 1_455 S
C946 H927 0.951 . S
C946 C944 1.388 . S
C946 C947 1.366 . S
C947 C946 1.366 . S
C947 C948 1.414 1_455 S
C947 C950 1.499 . S
C948 H928 0.950 . S
C948 C947 1.414 1_655 S
C948 C949 1.374 . S
C949 H929 0.950 . S
C949 C945 1.385 1_655 S
C949 C948 1.374 . S
C950 C947 1.499 . S
C950 C951 1.373 . S
C950 C952 1.389 . S
C951 H930 0.950 . S
C951 C950 1.373 . S
C951 C967 1.377 . S
C952 C950 1.389 . S
C952 C953 1.524 . S
C952 C966 1.377 . S
C953 C952 1.524 . S
C953 C954 1.397 . S
C953 C958 1.363 . S
C954 H931 0.950 . S
C954 C953 1.397 . S
C954 C955 1.334 . S
C955 H932 0.950 . S
C955 C954 1.334 . S
C955 C956 1.287 . S
C956 C955 1.287 . S
C956 C957 1.524 . S
C956 H975 0.913 . S
C957 H933 0.950 . S
C957 C956 1.524 . S
C957 C958 1.415 . S
C958 H934 0.950 . S
C958 C953 1.363 . S
C958 C957 1.415 . S
C959 H935 0.951 . S
C959 C960 1.366 . S
C959 C961 1.388 . S
C960 C959 1.366 . S
C960 C964 1.385 . S
C961 H936 0.951 . S
C961 C959 1.388 . S
C961 C962 1.366 . S
C962 C961 1.366 . S
C962 C963 1.414 . S
C962 C965 1.499 . S
C963 H937 0.950 . S
C963 C962 1.414 . S
C963 C964 1.374 . S
C964 H938 0.950 . S
C964 C960 1.385 . S
C964 C963 1.374 . S
C965 C962 1.499 . S
C965 C966 1.373 . S
C965 C967 1.389 . S
C966 H939 0.950 . S
C966 C952 1.377 . S
C966 C965 1.373 . S
C967 C951 1.377 . S
C967 C965 1.389 . S
C967 C968 1.524 . S
C968 C967 1.524 . S
C968 C969 1.397 . S
C968 C973 1.363 . S
C969 H940 0.950 . S
C969 C968 1.397 . S
C969 C970 1.334 . S
C970 H941 0.950 . S
C970 C969 1.334 . S
C970 C971 1.287 . S
C971 C970 1.287 . S
C971 C972 1.524 1_455 S
C971 H974 0.999 . S
C972 H942 0.950 . S
C972 C971 1.524 1_655 S
C972 C973 1.415 1_655 S
C973 H943 0.950 1_455 S
C973 C968 1.363 . S
C973 C972 1.415 1_455 S
H974 C971 0.999 . S
H975 C956 0.913 . S
H976 C994 0.951 . S
H977 C996 0.951 . S
H978 C998 0.950 . S
H979 C999 0.950 . S
H980 C1001 0.950 . S
H981 C1004 0.950 . S
H982 C1005 0.950 . S
H983 C1007 0.950 . S
H984 C1008 0.950 . S
H985 C1009 0.951 . S
H986 C1011 0.951 . S
H987 C1013 0.950 . S
H988 C1014 0.950 . S
H989 C1016 0.950 . S
H990 C1019 0.950 . S
H991 C1020 0.950 . S
H992 C1022 0.950 . S
H993 C1023 0.950 . S
C994 H976 0.951 . S
C994 C995 1.366 . S
C994 C996 1.388 . S
C995 C994 1.366 . S
C995 C999 1.385 . S
C996 H977 0.951 . S
C996 C994 1.388 . S
C996 C997 1.366 . S
C997 C996 1.366 . S
C997 C998 1.414 . S
C997 C1000 1.499 . S
C998 H978 0.950 . S
C998 C997 1.414 . S
C998 C999 1.374 . S
C999 H979 0.950 . S
C999 C995 1.385 . S
C999 C998 1.374 . S
C1000 C997 1.499 . S
C1000 C1001 1.373 . S
C1000 C1002 1.389 . S
C1001 H980 0.950 . S
C1001 C1000 1.373 . S
C1001 C1017 1.377 . S
C1002 C1000 1.389 . S
C1002 C1003 1.524 . S
C1002 C1016 1.377 . S
C1003 C1002 1.524 . S
C1003 C1004 1.397 . S
C1003 C1008 1.363 . S
C1004 H981 0.950 . S
C1004 C1003 1.397 . S
C1004 C1005 1.334 . S
C1005 H982 0.950 . S
C1005 C1004 1.334 . S
C1005 C1006 1.287 . S
C1006 C1005 1.287 . S
C1006 C1007 1.524 . S
C1006 H1025 0.913 . S
C1007 H983 0.950 . S
C1007 C1006 1.524 . S
C1007 C1008 1.415 . S
C1008 H984 0.950 . S
C1008 C1003 1.363 . S
C1008 C1007 1.415 . S
C1009 H985 0.951 . S
C1009 C1010 1.366 1_565 S
C1009 C1011 1.388 1_565 S
C1010 C1009 1.366 1_545 S
C1010 C1014 1.385 . S
C1011 H986 0.951 . S
C1011 C1009 1.388 1_545 S
C1011 C1012 1.366 . S
C1012 C1011 1.366 . S
C1012 C1013 1.414 . S
C1012 C1015 1.499 . S
C1013 H987 0.950 . S
C1013 C1012 1.414 . S
C1013 C1014 1.374 . S
C1014 H988 0.950 . S
C1014 C1010 1.385 . S
C1014 C1013 1.374 . S
C1015 C1012 1.499 . S
C1015 C1016 1.373 . S
C1015 C1017 1.389 . S
C1016 H989 0.950 . S
C1016 C1002 1.377 . S
C1016 C1015 1.373 . S
C1017 C1001 1.377 . S
C1017 C1015 1.389 . S
C1017 C1018 1.524 . S
C1018 C1017 1.524 . S
C1018 C1019 1.397 . S
C1018 C1023 1.363 . S
C1019 H990 0.950 . S
C1019 C1018 1.397 . S
C1019 C1020 1.334 . S
C1020 H991 0.950 . S
C1020 C1019 1.334 . S
C1020 C1021 1.287 . S
C1021 C1020 1.287 . S
C1021 C1022 1.524 . S
C1021 H1024 0.999 . S
C1022 H992 0.950 . S
C1022 C1021 1.524 . S
C1022 C1023 1.415 . S
C1023 H993 0.950 . S
C1023 C1018 1.363 . S
C1023 C1022 1.415 . S
H1024 C1021 0.999 . S
H1025 C1006 0.913 . S
H1026 C1044 0.951 . S
H1027 C1046 0.951 . S
H1028 C1048 0.950 . S
H1029 C1049 0.950 . S
H1030 C1051 0.950 . S
H1031 C1054 0.950 . S
H1032 C1055 0.950 . S
H1033 C1057 0.950 . S
H1034 C1058 0.950 . S
H1035 C1059 0.951 . S
H1036 C1061 0.951 . S
H1037 C1063 0.950 . S
H1038 C1064 0.950 . S
H1039 C1066 0.950 . S
H1040 C1069 0.950 . S
H1041 C1070 0.950 . S
H1042 C1072 0.950 . S
H1043 C1073 0.950 . S
C1044 H1026 0.951 . S
C1044 C1045 1.366 . S
C1044 C1046 1.388 . S
C1045 C1044 1.366 . S
C1045 C1049 1.385 . S
C1046 H1027 0.951 . S
C1046 C1044 1.388 . S
C1046 C1047 1.366 . S
C1047 C1046 1.366 . S
C1047 C1048 1.414 . S
C1047 C1050 1.499 . S
C1048 H1028 0.950 . S
C1048 C1047 1.414 . S
C1048 C1049 1.374 . S
C1049 H1029 0.950 . S
C1049 C1045 1.385 . S
C1049 C1048 1.374 . S
C1050 C1047 1.499 . S
C1050 C1051 1.373 . S
C1050 C1052 1.389 . S
C1051 H1030 0.950 . S
C1051 C1050 1.373 . S
C1051 C1067 1.377 . S
C1052 C1050 1.389 . S
C1052 C1053 1.524 . S
C1052 C1066 1.377 . S
C1053 C1052 1.524 . S
C1053 C1054 1.397 . S
C1053 C1058 1.363 . S
C1054 H1031 0.950 . S
C1054 C1053 1.397 . S
C1054 C1055 1.334 . S
C1055 H1032 0.950 . S
C1055 C1054 1.334 . S
C1055 C1056 1.287 . S
C1056 C1055 1.287 . S
C1056 C1057 1.524 . S
C1056 H1075 0.913 . S
C1057 H1033 0.950 . S
C1057 C1056 1.524 . S
C1057 C1058 1.415 . S
C1058 H1034 0.950 . S
C1058 C1053 1.363 . S
C1058 C1057 1.415 . S
C1059 H1035 0.951 . S
C1059 C1060 1.366 . S
C1059 C1061 1.388 . S
C1060 C1059 1.366 . S
C1060 C1064 1.385 . S
C1061 H1036 0.951 . S
C1061 C1059 1.388 . S
C1061 C1062 1.366 . S
C1062 C1061 1.366 . S
C1062 C1063 1.414 . S
C1062 C1065 1.499 . S
C1063 H1037 0.950 . S
C1063 C1062 1.414 . S
C1063 C1064 1.374 . S
C1064 H1038 0.950 . S
C1064 C1060 1.385 . S
C1064 C1063 1.374 . S
C1065 C1062 1.499 . S
C1065 C1066 1.373 . S
C1065 C1067 1.389 . S
C1066 H1039 0.950 . S
C1066 C1052 1.377 . S
C1066 C1065 1.373 . S
C1067 C1051 1.377 . S
C1067 C1065 1.389 . S
C1067 C1068 1.524 . S
C1068 C1067 1.524 . S
C1068 C1069 1.397 . S
C1068 C1073 1.363 . S
C1069 H1040 0.950 . S
C1069 C1068 1.397 . S
C1069 C1070 1.334 . S
C1070 H1041 0.950 . S
C1070 C1069 1.334 . S
C1070 C1071 1.287 . S
C1071 C1070 1.287 . S
C1071 C1072 1.524 . S
C1071 H1074 0.999 . S
C1072 H1042 0.950 . S
C1072 C1071 1.524 . S
C1072 C1073 1.415 . S
C1073 H1043 0.950 . S
C1073 C1068 1.363 . S
C1073 C1072 1.415 . S
H1074 C1071 0.999 . S
H1075 C1056 0.913 . S
H1076 C1094 0.951 . S
H1077 C1096 0.951 . S
H1078 C1098 0.950 . S
H1079 C1099 0.950 . S
H1080 C1101 0.950 . S
H1081 C1104 0.950 . S
H1082 C1105 0.950 . S
H1083 C1107 0.950 1_455 S
H1084 C1108 0.955 . S
H1085 C1109 0.951 . S
H1086 C1111 0.951 . S
H1087 C1113 0.950 . S
H1088 C1114 0.950 . S
H1089 C1116 0.950 . S
H1090 C1119 0.950 . S
H1091 C1120 0.950 . S
H1092 C1122 0.950 . S
H1093 C1123 0.950 . S
C1094 H1076 0.951 . S
C1094 C1095 1.366 . S
C1094 C1096 1.388 . S
C1095 C1094 1.366 . S
C1095 C1099 1.385 . S
C1096 H1077 0.951 . S
C1096 C1094 1.388 . S
C1096 C1097 1.366 . S
C1097 C1096 1.366 . S
C1097 C1098 1.414 . S
C1097 C1100 1.499 . S
C1098 H1078 0.950 . S
C1098 C1097 1.414 . S
C1098 C1099 1.374 . S
C1099 H1079 0.950 . S
C1099 C1095 1.385 . S
C1099 C1098 1.374 . S
C1100 C1097 1.499 . S
C1100 C1101 1.373 . S
C1100 C1102 1.389 . S
C1101 H1080 0.950 . S
C1101 C1100 1.373 . S
C1101 C1117 1.377 . S
C1102 C1100 1.389 . S
C1102 C1103 1.524 . S
C1102 C1116 1.377 . S
C1103 C1102 1.524 . S
C1103 C1104 1.397 . S
C1103 C1108 1.363 . S
C1104 H1081 0.950 . S
C1104 C1103 1.397 . S
C1104 C1105 1.334 . S
C1105 H1082 0.950 . S
C1105 C1104 1.334 . S
C1105 C1106 1.287 . S
C1106 C1105 1.287 . S
C1106 C1107 1.524 . S
C1106 H1125 0.913 . S
C1107 H1083 0.950 1_655 S
C1107 C1106 1.524 . S
C1107 C1108 1.415 . S
C1108 H1084 0.955 . S
C1108 C1103 1.363 . S
C1108 C1107 1.415 . S
C1109 H1085 0.951 . S
C1109 C1110 1.366 . S
C1109 C1111 1.388 . S
C1110 C1109 1.366 . S
C1110 C1114 1.385 1_655 S
C1111 H1086 0.951 . S
C1111 C1109 1.388 . S
C1111 C1112 1.366 . S
C1112 C1111 1.366 . S
C1112 C1113 1.414 1_655 S
C1112 C1115 1.499 . S
C1113 H1087 0.950 . S
C1113 C1112 1.414 1_455 S
C1113 C1114 1.374 . S
C1114 H1088 0.950 . S
C1114 C1110 1.385 1_455 S
C1114 C1113 1.374 . S
C1115 C1112 1.499 . S
C1115 C1116 1.373 . S
C1115 C1117 1.389 . S
C1116 H1089 0.950 . S
C1116 C1102 1.377 . S
C1116 C1115 1.373 . S
C1117 C1101 1.377 . S
C1117 C1115 1.389 . S
C1117 C1118 1.524 . S
C1118 C1117 1.524 . S
C1118 C1119 1.397 . S
C1118 C1123 1.363 . S
C1119 H1090 0.950 . S
C1119 C1118 1.397 . S
C1119 C1120 1.334 . S
C1120 H1091 0.950 . S
C1120 C1119 1.334 . S
C1120 C1121 1.287 . S
C1121 C1120 1.287 . S
C1121 C1122 1.524 . S
C1121 H1124 0.999 . S
C1122 H1092 0.950 . S
C1122 C1121 1.524 . S
C1122 C1123 1.415 . S
C1123 H1093 0.950 . S
C1123 C1118 1.363 . S
C1123 C1122 1.415 . S
H1124 C1121 0.999 . S
H1125 C1106 0.913 . S
H1126 C1144 0.951 . S
H1127 C1146 0.951 . S
H1128 C1148 0.950 . S
H1129 C1149 0.950 . S
H1130 C1151 0.950 . S
H1131 C1154 0.950 . S
H1132 C1155 0.950 . S
H1133 C1157 0.950 . S
H1134 C1158 0.950 . S
H1135 C1159 0.951 . S
H1136 C1161 0.951 . S
H1137 C1163 0.950 . S
H1138 C1164 0.950 . S
H1139 C1166 0.950 . S
H1140 C1169 0.950 . S
H1141 C1170 0.950 . S
H1142 C1172 0.950 . S
H1143 C1173 0.950 . S
C1144 H1126 0.951 . S
C1144 C1145 1.366 . S
C1144 C1146 1.388 . S
C1145 C1144 1.366 . S
C1145 C1149 1.385 1_565 S
C1146 H1127 0.951 . S
C1146 C1144 1.388 . S
C1146 C1147 1.366 . S
C1147 C1146 1.366 . S
C1147 C1148 1.414 1_565 S
C1147 C1150 1.499 . S
C1148 H1128 0.950 . S
C1148 C1147 1.414 1_545 S
C1148 C1149 1.374 . S
C1149 H1129 0.950 . S
C1149 C1145 1.385 1_545 S
C1149 C1148 1.374 . S
C1150 C1147 1.499 . S
C1150 C1151 1.373 . S
C1150 C1152 1.389 . S
C1151 H1130 0.950 . S
C1151 C1150 1.373 . S
C1151 C1167 1.377 . S
C1152 C1150 1.389 . S
C1152 C1153 1.524 . S
C1152 C1166 1.377 . S
C1153 C1152 1.524 . S
C1153 C1154 1.397 . S
C1153 C1158 1.363 . S
C1154 H1131 0.950 . S
C1154 C1153 1.397 . S
C1154 C1155 1.334 . S
C1155 H1132 0.950 . S
C1155 C1154 1.334 . S
C1155 C1156 1.287 . S
C1156 C1155 1.287 . S
C1156 C1157 1.524 . S
C1156 H1175 0.913 . S
C1157 H1133 0.950 . S
C1157 C1156 1.524 . S
C1157 C1158 1.415 . S
C1158 H1134 0.950 . S
C1158 C1153 1.363 . S
C1158 C1157 1.415 . S
C1159 H1135 0.951 . S
C1159 C1160 1.366 . S
C1159 C1161 1.388 . S
C1160 C1159 1.366 . S
C1160 C1164 1.385 . S
C1161 H1136 0.951 . S
C1161 C1159 1.388 . S
C1161 C1162 1.366 . S
C1162 C1161 1.366 . S
C1162 C1163 1.414 . S
C1162 C1165 1.499 . S
C1163 H1137 0.950 . S
C1163 C1162 1.414 . S
C1163 C1164 1.374 . S
C1164 H1138 0.950 . S
C1164 C1160 1.385 . S
C1164 C1163 1.374 . S
C1165 C1162 1.499 . S
C1165 C1166 1.373 . S
C1165 C1167 1.389 . S
C1166 H1139 0.950 . S
C1166 C1152 1.377 . S
C1166 C1165 1.373 . S
C1167 C1151 1.377 . S
C1167 C1165 1.389 . S
C1167 C1168 1.524 . S
C1168 C1167 1.524 . S
C1168 C1169 1.397 . S
C1168 C1173 1.363 . S
C1169 H1140 0.950 . S
C1169 C1168 1.397 . S
C1169 C1170 1.334 . S
C1170 H1141 0.950 . S
C1170 C1169 1.334 . S
C1170 C1171 1.287 . S
C1171 C1170 1.287 . S
C1171 C1172 1.524 . S
C1171 H1174 0.999 . S
C1172 H1142 0.950 . S
C1172 C1171 1.524 . S
C1172 C1173 1.415 . S
C1173 H1143 0.950 . S
C1173 C1168 1.363 . S
C1173 C1172 1.415 . S
H1174 C1171 0.999 . S
H1175 C1156 0.913 . S
H1176 C1194 0.951 . S
H1177 C1196 0.951 . S
H1178 C1198 0.950 . S
H1179 C1199 0.950 . S
H1180 C1201 0.950 . S
H1181 C1204 0.950 . S
H1182 C1205 0.950 . S
H1183 C1207 0.950 . S
H1184 C1208 0.950 . S
H1185 C1209 0.951 . S
H1186 C1211 0.951 . S
H1187 C1213 0.950 . S
H1188 C1214 0.950 . S
H1189 C1216 0.950 . S
H1190 C1219 0.950 . S
H1191 C1220 0.950 . S
H1192 C1222 0.950 . S
H1193 C1223 0.950 . S
C1194 H1176 0.951 . S
C1194 C1195 1.366 . S
C1194 C1196 1.388 . S
C1195 C1194 1.366 . S
C1195 C1199 1.385 . S
C1196 H1177 0.951 . S
C1196 C1194 1.388 . S
C1196 C1197 1.366 . S
C1197 C1196 1.366 . S
C1197 C1198 1.414 . S
C1197 C1200 1.499 . S
C1198 H1178 0.950 . S
C1198 C1197 1.414 . S
C1198 C1199 1.374 . S
C1199 H1179 0.950 . S
C1199 C1195 1.385 . S
C1199 C1198 1.374 . S
C1200 C1197 1.499 . S
C1200 C1201 1.373 . S
C1200 C1202 1.389 . S
C1201 H1180 0.950 . S
C1201 C1200 1.373 . S
C1201 C1217 1.377 . S
C1202 C1200 1.389 . S
C1202 C1203 1.524 . S
C1202 C1216 1.377 . S
C1203 C1202 1.524 . S
C1203 C1204 1.397 . S
C1203 C1208 1.363 . S
C1204 H1181 0.950 . S
C1204 C1203 1.397 . S
C1204 C1205 1.334 . S
C1205 H1182 0.950 . S
C1205 C1204 1.334 . S
C1205 C1206 1.287 . S
C1206 C1205 1.287 . S
C1206 C1207 1.524 . S
C1206 H1225 0.913 . S
C1207 H1183 0.950 . S
C1207 C1206 1.524 . S
C1207 C1208 1.415 . S
C1208 H1184 0.950 . S
C1208 C1203 1.363 . S
C1208 C1207 1.415 . S
C1209 H1185 0.951 . S
C1209 C1210 1.366 . S
C1209 C1211 1.388 . S
C1210 C1209 1.366 . S
C1210 C1214 1.385 . S
C1211 H1186 0.951 . S
C1211 C1209 1.388 . S
C1211 C1212 1.366 . S
C1212 C1211 1.366 . S
C1212 C1213 1.414 . S
C1212 C1215 1.499 . S
C1213 H1187 0.950 . S
C1213 C1212 1.414 . S
C1213 C1214 1.374 . S
C1214 H1188 0.950 . S
C1214 C1210 1.385 . S
C1214 C1213 1.374 . S
C1215 C1212 1.499 . S
C1215 C1216 1.373 . S
C1215 C1217 1.389 . S
C1216 H1189 0.950 . S
C1216 C1202 1.377 . S
C1216 C1215 1.373 . S
C1217 C1201 1.377 . S
C1217 C1215 1.389 . S
C1217 C1218 1.524 . S
C1218 C1217 1.524 . S
C1218 C1219 1.397 . S
C1218 C1223 1.363 . S
C1219 H1190 0.950 . S
C1219 C1218 1.397 . S
C1219 C1220 1.334 . S
C1220 H1191 0.950 . S
C1220 C1219 1.334 . S
C1220 C1221 1.287 . S
C1221 C1220 1.287 . S
C1221 C1222 1.524 . S
C1221 H1224 0.999 . S
C1222 H1192 0.950 . S
C1222 C1221 1.524 . S
C1222 C1223 1.415 . S
C1223 H1193 0.950 . S
C1223 C1218 1.363 . S
C1223 C1222 1.415 . S
H1224 C1221 0.999 . S
H1225 C1206 0.913 . S
H1226 C1244 0.951 . S
H1227 C1246 0.951 . S
H1228 C1248 0.950 1_655 S
H1229 C1249 0.950 . S
H1230 C1251 0.950 . S
H1231 C1254 0.938 1_655 S
H1232 C1255 0.950 1_655 S
H1233 C1257 0.950 . S
H1234 C1258 0.950 . S
H1235 C1259 0.951 . S
H1236 C1261 0.951 . S
H1237 C1263 0.950 . S
H1238 C1264 0.950 . S
H1239 C1266 0.950 . S
H1240 C1269 0.950 . S
H1241 C1270 0.950 . S
H1242 C1272 0.950 . S
H1243 C1273 0.950 . S
C1244 H1226 0.951 . S
C1244 C1245 1.366 . S
C1244 C1246 1.388 . S
C1245 C1244 1.366 . S
C1245 C1249 1.385 1_455 S
C1246 H1227 0.951 . S
C1246 C1244 1.388 . S
C1246 C1247 1.366 . S
C1247 C1246 1.366 . S
C1247 C1248 1.414 . S
C1247 C1250 1.499 . S
C1248 H1228 0.950 1_455 S
C1248 C1247 1.414 . S
C1248 C1249 1.374 1_455 S
C1249 H1229 0.950 . S
C1249 C1245 1.385 1_655 S
C1249 C1248 1.374 1_655 S
C1250 C1247 1.499 . S
C1250 C1251 1.373 . S
C1250 C1252 1.389 . S
C1251 H1230 0.950 . S
C1251 C1250 1.373 . S
C1251 C1267 1.377 . S
C1252 C1250 1.389 . S
C1252 C1253 1.524 . S
C1252 C1266 1.377 . S
C1253 C1252 1.524 . S
C1253 C1254 1.397 . S
C1253 C1258 1.363 . S
C1254 H1231 0.938 1_455 S
C1254 C1253 1.397 . S
C1254 C1255 1.334 . S
C1255 H1232 0.950 1_455 S
C1255 C1254 1.334 . S
C1255 C1256 1.287 . S
C1256 C1255 1.287 . S
C1256 C1257 1.524 . S
C1256 H1275 0.913 . S
C1257 H1233 0.950 . S
C1257 C1256 1.524 . S
C1257 C1258 1.415 . S
C1258 H1234 0.950 . S
C1258 C1253 1.363 . S
C1258 C1257 1.415 . S
C1259 H1235 0.951 . S
C1259 C1260 1.366 . S
C1259 C1261 1.388 . S
C1260 C1259 1.366 . S
C1260 C1264 1.385 . S
C1261 H1236 0.951 . S
C1261 C1259 1.388 . S
C1261 C1262 1.366 . S
C1262 C1261 1.366 . S
C1262 C1263 1.414 . S
C1262 C1265 1.499 . S
C1263 H1237 0.950 . S
C1263 C1262 1.414 . S
C1263 C1264 1.374 . S
C1264 H1238 0.950 . S
C1264 C1260 1.385 . S
C1264 C1263 1.374 . S
C1265 C1262 1.499 . S
C1265 C1266 1.373 . S
C1265 C1267 1.389 . S
C1266 H1239 0.950 . S
C1266 C1252 1.377 . S
C1266 C1265 1.373 . S
C1267 C1251 1.377 . S
C1267 C1265 1.389 . S
C1267 C1268 1.524 . S
C1268 C1267 1.524 . S
C1268 C1269 1.397 . S
C1268 C1273 1.363 . S
C1269 H1240 0.950 . S
C1269 C1268 1.397 . S
C1269 C1270 1.334 . S
C1270 H1241 0.950 . S
C1270 C1269 1.334 . S
C1270 C1271 1.287 . S
C1271 C1270 1.287 . S
C1271 C1272 1.524 . S
C1271 H1274 0.999 . S
C1272 H1242 0.950 . S
C1272 C1271 1.524 . S
C1272 C1273 1.415 . S
C1273 H1243 0.950 . S
C1273 C1268 1.363 . S
C1273 C1272 1.415 . S
H1274 C1271 0.999 . S
H1275 C1256 0.913 . S
H1276 C1294 0.951 . S
H1277 C1296 0.951 . S
H1278 C1298 0.950 . S
H1279 C1299 0.950 1_565 S
H1280 C1301 0.950 . S
H1281 C1304 0.950 . S
H1282 C1305 0.950 . S
H1283 C1307 0.950 . S
H1284 C1308 0.950 . S
H1285 C1309 0.951 . S
H1286 C1311 0.951 . S
H1287 C1313 0.950 . S
H1288 C1314 0.950 . S
H1289 C1316 0.950 . S
H1290 C1319 0.950 . S
H1291 C1320 0.950 . S
H1292 C1322 0.950 . S
H1293 C1323 0.950 . S
C1294 H1276 0.951 . S
C1294 C1295 1.366 . S
C1294 C1296 1.388 . S
C1295 C1294 1.366 . S
C1295 C1299 1.385 . S
C1296 H1277 0.951 . S
C1296 C1294 1.388 . S
C1296 C1297 1.366 . S
C1297 C1296 1.366 . S
C1297 C1298 1.414 . S
C1297 C1300 1.499 . S
C1298 H1278 0.950 . S
C1298 C1297 1.414 . S
C1298 C1299 1.374 . S
C1299 H1279 0.950 1_545 S
C1299 C1295 1.385 . S
C1299 C1298 1.374 . S
C1300 C1297 1.499 . S
C1300 C1301 1.373 . S
C1300 C1302 1.389 . S
C1301 H1280 0.950 . S
C1301 C1300 1.373 . S
C1301 C1317 1.377 . S
C1302 C1300 1.389 . S
C1302 C1303 1.524 . S
C1302 C1316 1.377 . S
C1303 C1302 1.524 . S
C1303 C1304 1.397 1_545 S
C1303 C1308 1.363 . S
C1304 H1281 0.950 . S
C1304 C1303 1.397 1_565 S
C1304 C1305 1.334 . S
C1305 H1282 0.950 . S
C1305 C1304 1.334 . S
C1305 C1306 1.287 . S
C1306 C1305 1.287 . S
C1306 C1307 1.524 . S
C1306 H1325 0.913 . S
C1307 H1283 0.950 . S
C1307 C1306 1.524 . S
C1307 C1308 1.415 1_565 S
C1308 H1284 0.950 . S
C1308 C1303 1.363 . S
C1308 C1307 1.415 1_545 S
C1309 H1285 0.951 . S
C1309 C1310 1.366 . S
C1309 C1311 1.388 . S
C1310 C1309 1.366 . S
C1310 C1314 1.385 . S
C1311 H1286 0.951 . S
C1311 C1309 1.388 . S
C1311 C1312 1.366 . S
C1312 C1311 1.366 . S
C1312 C1313 1.414 . S
C1312 C1315 1.499 . S
C1313 H1287 0.950 . S
C1313 C1312 1.414 . S
C1313 C1314 1.374 . S
C1314 H1288 0.950 . S
C1314 C1310 1.385 . S
C1314 C1313 1.374 . S
C1315 C1312 1.499 . S
C1315 C1316 1.373 . S
C1315 C1317 1.389 . S
C1316 H1289 0.950 . S
C1316 C1302 1.377 . S
C1316 C1315 1.373 . S
C1317 C1301 1.377 . S
C1317 C1315 1.389 . S
C1317 C1318 1.524 . S
C1318 C1317 1.524 . S
C1318 C1319 1.397 . S
C1318 C1323 1.363 . S
C1319 H1290 0.950 . S
C1319 C1318 1.397 . S
C1319 C1320 1.334 . S
C1320 H1291 0.950 . S
C1320 C1319 1.334 . S
C1320 C1321 1.287 . S
C1321 C1320 1.287 . S
C1321 C1322 1.524 . S
C1321 H1324 0.999 . S
C1322 H1292 0.950 . S
C1322 C1321 1.524 . S
C1322 C1323 1.415 . S
C1323 H1293 0.950 . S
C1323 C1318 1.363 . S
C1323 C1322 1.415 . S
H1324 C1321 0.999 . S
H1325 C1306 0.913 . S
H1326 C1344 0.951 . S
H1327 C1346 0.951 . S
H1328 C1348 0.950 . S
H1329 C1349 0.950 . S
H1330 C1351 0.950 . S
H1331 C1354 0.950 . S
H1332 C1355 0.950 . S
H1333 C1357 0.950 . S
H1334 C1358 0.950 . S
H1335 C1359 0.951 . S
H1336 C1361 0.951 . S
H1337 C1363 0.950 . S
H1338 C1364 0.950 . S
H1339 C1366 0.950 . S
H1340 C1369 0.950 . S
H1341 C1370 0.950 . S
H1342 C1372 0.950 . S
H1343 C1373 0.950 . S
C1344 H1326 0.951 . S
C1344 C1345 1.366 . S
C1344 C1346 1.388 . S
C1345 C1344 1.366 . S
C1345 C1349 1.385 . S
C1346 H1327 0.951 . S
C1346 C1344 1.388 . S
C1346 C1347 1.366 . S
C1347 C1346 1.366 . S
C1347 C1348 1.414 . S
C1347 C1350 1.499 . S
C1348 H1328 0.950 . S
C1348 C1347 1.414 . S
C1348 C1349 1.374 . S
C1349 H1329 0.950 . S
C1349 C1345 1.385 . S
C1349 C1348 1.374 . S
C1350 C1347 1.499 . S
C1350 C1351 1.373 . S
C1350 C1352 1.389 . S
C1351 H1330 0.950 . S
C1351 C1350 1.373 . S
C1351 C1367 1.377 . S
C1352 C1350 1.389 . S
C1352 C1353 1.524 . S
C1352 C1366 1.377 . S
C1353 C1352 1.524 . S
C1353 C1354 1.397 . S
C1353 C1358 1.363 . S
C1354 H1331 0.950 . S
C1354 C1353 1.397 . S
C1354 C1355 1.334 . S
C1355 H1332 0.950 . S
C1355 C1354 1.334 . S
C1355 C1356 1.287 . S
C1356 C1355 1.287 . S
C1356 C1357 1.524 . S
C1356 H1375 0.913 . S
C1357 H1333 0.950 . S
C1357 C1356 1.524 . S
C1357 C1358 1.415 . S
C1358 H1334 0.950 . S
C1358 C1353 1.363 . S
C1358 C1357 1.415 . S
C1359 H1335 0.951 . S
C1359 C1360 1.366 . S
C1359 C1361 1.388 . S
C1360 C1359 1.366 . S
C1360 C1364 1.385 . S
C1361 H1336 0.951 . S
C1361 C1359 1.388 . S
C1361 C1362 1.366 . S
C1362 C1361 1.366 . S
C1362 C1363 1.414 . S
C1362 C1365 1.499 . S
C1363 H1337 0.950 . S
C1363 C1362 1.414 . S
C1363 C1364 1.374 . S
C1364 H1338 0.950 . S
C1364 C1360 1.385 . S
C1364 C1363 1.374 . S
C1365 C1362 1.499 . S
C1365 C1366 1.373 . S
C1365 C1367 1.389 . S
C1366 H1339 0.950 . S
C1366 C1352 1.377 . S
C1366 C1365 1.373 . S
C1367 C1351 1.377 . S
C1367 C1365 1.389 . S
C1367 C1368 1.524 . S
C1368 C1367 1.524 . S
C1368 C1369 1.397 . S
C1368 C1373 1.363 . S
C1369 H1340 0.950 . S
C1369 C1368 1.397 . S
C1369 C1370 1.334 . S
C1370 H1341 0.950 . S
C1370 C1369 1.334 . S
C1370 C1371 1.287 . S
C1371 C1370 1.287 . S
C1371 C1372 1.524 . S
C1371 H1374 0.999 . S
C1372 H1342 0.950 . S
C1372 C1371 1.524 . S
C1372 C1373 1.415 . S
C1373 H1343 0.950 . S
C1373 C1368 1.363 . S
C1373 C1372 1.415 . S
H1374 C1371 0.999 . S
H1375 C1356 0.913 . S
H1376 C1394 0.951 . S
H1377 C1396 0.951 . S
H1378 C1398 0.950 . S
H1379 C1399 0.950 . S
H1380 C1401 0.950 . S
H1381 C1404 0.950 . S
H1382 C1405 0.950 . S
H1383 C1407 0.950 . S
H1384 C1408 0.950 . S
H1385 C1409 0.951 . S
H1386 C1411 0.951 . S
H1387 C1413 0.950 . S
H1388 C1414 0.950 . S
H1389 C1416 0.950 . S
H1390 C1419 0.950 . S
H1391 C1420 0.950 . S
H1392 C1422 0.950 . S
H1393 C1423 0.950 . S
C1394 H1376 0.951 . S
C1394 C1395 1.366 1_455 S
C1394 C1396 1.388 1_455 S
C1395 C1394 1.366 1_655 S
C1395 C1399 1.385 . S
C1396 H1377 0.951 . S
C1396 C1394 1.388 1_655 S
C1396 C1397 1.366 . S
C1397 C1396 1.366 . S
C1397 C1398 1.414 . S
C1397 C1400 1.499 . S
C1398 H1378 0.950 . S
C1398 C1397 1.414 . S
C1398 C1399 1.374 . S
C1399 H1379 0.950 . S
C1399 C1395 1.385 . S
C1399 C1398 1.374 . S
C1400 C1397 1.499 . S
C1400 C1401 1.373 . S
C1400 C1402 1.389 . S
C1401 H1380 0.950 . S
C1401 C1400 1.373 . S
C1401 C1417 1.377 . S
C1402 C1400 1.389 . S
C1402 C1403 1.524 . S
C1402 C1416 1.377 . S
C1403 C1402 1.524 . S
C1403 C1404 1.397 . S
C1403 C1408 1.363 . S
C1404 H1381 0.950 . S
C1404 C1403 1.397 . S
C1404 C1405 1.334 . S
C1405 H1382 0.950 . S
C1405 C1404 1.334 . S
C1405 C1406 1.287 . S
C1406 C1405 1.287 . S
C1406 C1407 1.524 . S
C1406 H1425 0.913 . S
C1407 H1383 0.950 . S
C1407 C1406 1.524 . S
C1407 C1408 1.415 . S
C1408 H1384 0.950 . S
C1408 C1403 1.363 . S
C1408 C1407 1.415 . S
C1409 H1385 0.951 . S
C1409 C1410 1.366 . S
C1409 C1411 1.388 . S
C1410 C1409 1.366 . S
C1410 C1414 1.385 . S
C1411 H1386 0.951 . S
C1411 C1409 1.388 . S
C1411 C1412 1.366 . S
C1412 C1411 1.366 . S
C1412 C1413 1.414 . S
C1412 C1415 1.499 . S
C1413 H1387 0.950 . S
C1413 C1412 1.414 . S
C1413 C1414 1.374 . S
C1414 H1388 0.950 . S
C1414 C1410 1.385 . S
C1414 C1413 1.374 . S
C1415 C1412 1.499 . S
C1415 C1416 1.373 . S
C1415 C1417 1.389 . S
C1416 H1389 0.950 . S
C1416 C1402 1.377 . S
C1416 C1415 1.373 . S
C1417 C1401 1.377 . S
C1417 C1415 1.389 . S
C1417 C1418 1.524 . S
C1418 C1417 1.524 . S
C1418 C1419 1.397 . S
C1418 C1423 1.363 . S
C1419 H1390 0.950 . S
C1419 C1418 1.397 . S
C1419 C1420 1.334 . S
C1420 H1391 0.950 . S
C1420 C1419 1.334 . S
C1420 C1421 1.287 . S
C1421 C1420 1.287 . S
C1421 C1422 1.524 . S
C1421 H1424 0.999 . S
C1422 H1392 0.950 . S
C1422 C1421 1.524 . S
C1422 C1423 1.415 . S
C1423 H1393 0.950 . S
C1423 C1418 1.363 . S
C1423 C1422 1.415 . S
H1424 C1421 0.999 . S
H1425 C1406 0.913 . S
H1426 C1444 0.951 . S
H1427 C1446 0.951 . S
H1428 C1448 0.950 . S
H1429 C1449 0.950 . S
H1430 C1451 0.950 . S
H1431 C1454 0.950 . S
H1432 C1455 0.950 . S
H1433 C1457 0.950 . S
H1434 C1458 0.950 . S
H1435 C1459 0.951 . S
H1436 C1461 0.951 . S
H1437 C1463 0.950 . S
H1438 C1464 0.950 . S
H1439 C1466 0.950 . S
H1440 C1469 0.950 . S
H1441 C1470 0.950 . S
H1442 C1472 0.950 . S
H1443 C1473 0.950 . S
C1444 H1426 0.951 . S
C1444 C1445 1.366 . S
C1444 C1446 1.388 . S
C1445 C1444 1.366 . S
C1445 C1449 1.385 . S
C1446 H1427 0.951 . S
C1446 C1444 1.388 . S
C1446 C1447 1.366 . S
C1447 C1446 1.366 . S
C1447 C1448 1.414 . S
C1447 C1450 1.499 . S
C1448 H1428 0.950 . S
C1448 C1447 1.414 . S
C1448 C1449 1.374 . S
C1449 H1429 0.950 . S
C1449 C1445 1.385 . S
C1449 C1448 1.374 . S
C1450 C1447 1.499 . S
C1450 C1451 1.373 . S
C1450 C1452 1.389 . S
C1451 H1430 0.950 . S
C1451 C1450 1.373 . S
C1451 C1467 1.377 . S
C1452 C1450 1.389 . S
C1452 C1453 1.524 . S
C1452 C1466 1.377 . S
C1453 C1452 1.524 . S
C1453 C1454 1.397 . S
C1453 C1458 1.363 . S
C1454 H1431 0.950 . S
C1454 C1453 1.397 . S
C1454 C1455 1.334 . S
C1455 H1432 0.950 . S
C1455 C1454 1.334 . S
C1455 C1456 1.287 . S
C1456 C1455 1.287 . S
C1456 C1457 1.524 . S
C1456 H1475 0.913 . S
C1457 H1433 0.950 . S
C1457 C1456 1.524 . S
C1457 C1458 1.415 . S
C1458 H1434 0.950 . S
C1458 C1453 1.363 . S
C1458 C1457 1.415 . S
C1459 H1435 0.951 . S
C1459 C1460 1.366 1_545 S
C1459 C1461 1.388 1_545 S
C1460 C1459 1.366 1_565 S
C1460 C1464 1.385 . S
C1461 H1436 0.951 . S
C1461 C1459 1.388 1_565 S
C1461 C1462 1.366 . S
C1462 C1461 1.366 . S
C1462 C1463 1.414 . S
C1462 C1465 1.499 . S
C1463 H1437 0.950 . S
C1463 C1462 1.414 . S
C1463 C1464 1.374 . S
C1464 H1438 0.950 . S
C1464 C1460 1.385 . S
C1464 C1463 1.374 . S
C1465 C1462 1.499 . S
C1465 C1466 1.373 . S
C1465 C1467 1.389 . S
C1466 H1439 0.950 . S
C1466 C1452 1.377 . S
C1466 C1465 1.373 . S
C1467 C1451 1.377 . S
C1467 C1465 1.389 . S
C1467 C1468 1.524 1_565 S
C1468 C1467 1.524 1_545 S
C1468 C1469 1.397 . S
C1468 C1473 1.363 . S
C1469 H1440 0.950 . S
C1469 C1468 1.397 . S
C1469 C1470 1.334 . S
C1470 H1441 0.950 . S
C1470 C1469 1.334 . S
C1470 C1471 1.287 . S
C1471 C1470 1.287 . S
C1471 C1472 1.524 . S
C1471 H1474 0.999 . S
C1472 H1442 0.950 . S
C1472 C1471 1.524 . S
C1472 C1473 1.415 . S
C1473 H1443 0.950 . S
C1473 C1468 1.363 . S
C1473 C1472 1.415 . S
H1474 C1471 0.999 . S
H1475 C1456 0.913 . S
H1476 C1494 0.951 . S
H1477 C1496 0.951 . S
H1478 C1498 0.950 . S
H1479 C1499 0.950 1_565 S
H1480 C1501 0.950 . S
H1481 C1504 0.950 . S
H1482 C1505 0.950 . S
H1483 C1507 0.950 . S
H1484 C1508 0.950 . S
H1485 C1509 0.951 . S
H1486 C1511 0.951 . S
H1487 C1513 0.950 . S
H1488 C1514 0.950 . S
H1489 C1516 0.950 . S
H1490 C1519 0.950 . S
H1491 C1520 0.950 . S
H1492 C1522 0.950 1_565 S
H1493 C1523 0.950 . S
C1494 H1476 0.951 . S
C1494 C1495 1.366 . S
C1494 C1496 1.388 . S
C1495 C1494 1.366 . S
C1495 C1499 1.385 . S
C1496 H1477 0.951 . S
C1496 C1494 1.388 . S
C1496 C1497 1.366 . S
C1497 C1496 1.366 . S
C1497 C1498 1.414 . S
C1497 C1500 1.499 . S
C1498 H1478 0.950 . S
C1498 C1497 1.414 . S
C1498 C1499 1.374 . S
C1499 H1479 0.950 1_545 S
C1499 C1495 1.385 . S
C1499 C1498 1.374 . S
C1500 C1497 1.499 . S
C1500 C1501 1.373 . S
C1500 C1502 1.389 . S
C1501 H1480 0.950 . S
C1501 C1500 1.373 . S
C1501 C1517 1.377 . S
C1502 C1500 1.389 . S
C1502 C1503 1.524 . S
C1502 C1516 1.377 . S
C1503 C1502 1.524 . S
C1503 C1504 1.397 . S
C1503 C1508 1.363 . S
C1504 H1481 0.950 . S
C1504 C1503 1.397 . S
C1504 C1505 1.334 . S
C1505 H1482 0.950 . S
C1505 C1504 1.334 . S
C1505 C1506 1.287 . S
C1506 C1505 1.287 . S
C1506 C1507 1.524 . S
C1506 H1525 0.913 . S
C1507 H1483 0.950 . S
C1507 C1506 1.524 . S
C1507 C1508 1.415 . S
C1508 H1484 0.950 . S
C1508 C1503 1.363 . S
C1508 C1507 1.415 . S
C1509 H1485 0.951 . S
C1509 C1510 1.366 . S
C1509 C1511 1.388 . S
C1510 C1509 1.366 . S
C1510 C1514 1.385 . S
C1511 H1486 0.951 . S
C1511 C1509 1.388 . S
C1511 C1512 1.366 . S
C1512 C1511 1.366 . S
C1512 C1513 1.414 . S
C1512 C1515 1.499 . S
C1513 H1487 0.950 . S
C1513 C1512 1.414 . S
C1513 C1514 1.374 . S
C1514 H1488 0.950 . S
C1514 C1510 1.385 . S
C1514 C1513 1.374 . S
C1515 C1512 1.499 . S
C1515 C1516 1.373 . S
C1515 C1517 1.389 . S
C1516 H1489 0.950 . S
C1516 C1502 1.377 . S
C1516 C1515 1.373 . S
C1517 C1501 1.377 . S
C1517 C1515 1.389 . S
C1517 C1518 1.524 . S
C1518 C1517 1.524 . S
C1518 C1519 1.397 . S
C1518 C1523 1.363 . S
C1519 H1490 0.950 . S
C1519 C1518 1.397 . S
C1519 C1520 1.334 . S
C1520 H1491 0.950 . S
C1520 C1519 1.334 . S
C1520 C1521 1.287 . S
C1521 C1520 1.287 . S
C1521 C1522 1.524 . S
C1521 H1524 0.999 . S
C1522 H1492 0.950 1_545 S
C1522 C1521 1.524 . S
C1522 C1523 1.415 . S
C1523 H1493 0.950 . S
C1523 C1518 1.363 . S
C1523 C1522 1.415 . S
H1524 C1521 0.999 . S
H1525 C1506 0.913 . S
H1526 C1544 0.951 1_655 S
H1527 C1546 0.951 . S
H1528 C1548 0.950 . S
H1529 C1549 0.950 . S
H1530 C1551 0.950 . S
H1531 C1554 0.950 . S
H1532 C1555 0.950 . S
H1533 C1557 0.950 . S
H1534 C1558 0.950 . S
H1535 C1559 0.951 . S
H1536 C1561 0.951 . S
H1537 C1563 0.950 . S
H1538 C1564 0.950 . S
H1539 C1566 0.950 . S
H1540 C1569 0.950 . S
H1541 C1570 0.950 . S
H1542 C1572 0.950 . S
H1543 C1573 0.950 . S
C1544 H1526 0.951 1_455 S
C1544 C1545 1.366 . S
C1544 C1546 1.388 . S
C1545 C1544 1.366 . S
C1545 C1549 1.385 . S
C1546 H1527 0.951 . S
C1546 C1544 1.388 . S
C1546 C1547 1.366 . S
C1547 C1546 1.366 . S
C1547 C1548 1.414 . S
C1547 C1550 1.499 . S
C1548 H1528 0.950 . S
C1548 C1547 1.414 . S
C1548 C1549 1.374 . S
C1549 H1529 0.950 . S
C1549 C1545 1.385 . S
C1549 C1548 1.374 . S
C1550 C1547 1.499 . S
C1550 C1551 1.373 . S
C1550 C1552 1.389 . S
C1551 H1530 0.950 . S
C1551 C1550 1.373 . S
C1551 C1567 1.377 . S
C1552 C1550 1.389 . S
C1552 C1553 1.524 . S
C1552 C1566 1.377 . S
C1553 C1552 1.524 . S
C1553 C1554 1.397 . S
C1553 C1558 1.363 . S
C1554 H1531 0.950 . S
C1554 C1553 1.397 . S
C1554 C1555 1.334 1_455 S
C1555 H1532 0.950 . S
C1555 C1554 1.334 1_655 S
C1555 C1556 1.287 . S
C1556 C1555 1.287 . S
C1556 C1557 1.524 . S
C1556 H1575 0.913 . S
C1557 H1533 0.950 . S
C1557 C1556 1.524 . S
C1557 C1558 1.415 1_655 S
C1558 H1534 0.950 . S
C1558 C1553 1.363 . S
C1558 C1557 1.415 1_455 S
C1559 H1535 0.951 . S
C1559 C1560 1.366 . S
C1559 C1561 1.388 . S
C1560 C1559 1.366 . S
C1560 C1564 1.385 . S
C1561 H1536 0.951 . S
C1561 C1559 1.388 . S
C1561 C1562 1.366 . S
C1562 C1561 1.366 . S
C1562 C1563 1.414 . S
C1562 C1565 1.499 . S
C1563 H1537 0.950 . S
C1563 C1562 1.414 . S
C1563 C1564 1.374 . S
C1564 H1538 0.950 . S
C1564 C1560 1.385 . S
C1564 C1563 1.374 . S
C1565 C1562 1.499 . S
C1565 C1566 1.373 . S
C1565 C1567 1.389 . S
C1566 H1539 0.950 . S
C1566 C1552 1.377 . S
C1566 C1565 1.373 . S
C1567 C1551 1.377 . S
C1567 C1565 1.389 . S
C1567 C1568 1.524 . S
C1568 C1567 1.524 . S
C1568 C1569 1.397 . S
C1568 C1573 1.363 . S
C1569 H1540 0.950 . S
C1569 C1568 1.397 . S
C1569 C1570 1.334 . S
C1570 H1541 0.950 . S
C1570 C1569 1.334 . S
C1570 C1571 1.287 . S
C1571 C1570 1.287 . S
C1571 C1572 1.524 . S
C1571 H1574 0.999 . S
C1572 H1542 0.950 . S
C1572 C1571 1.524 . S
C1572 C1573 1.415 . S
C1573 H1543 0.950 . S
C1573 C1568 1.363 . S
C1573 C1572 1.415 . S
H1574 C1571 0.999 . S
H1575 C1556 0.913 . S
H1576 C1594 0.951 . S
H1577 C1596 0.951 . S
H1578 C1598 0.950 . S
H1579 C1599 0.950 . S
H1580 C1601 0.950 . S
H1581 C1604 0.950 . S
H1582 C1605 0.950 . S
H1583 C1607 0.950 . S
H1584 C1608 0.950 . S
H1585 C1609 0.951 . S
H1586 C1611 0.951 . S
H1587 C1613 0.950 . S
H1588 C1614 0.950 1_455 S
H1589 C1616 0.950 . S
H1590 C1619 0.950 . S
H1591 C1620 0.950 . S
H1592 C1622 0.950 . S
H1593 C1623 0.950 . S
C1594 H1576 0.951 . S
C1594 C1595 1.366 . S
C1594 C1596 1.388 . S
C1595 C1594 1.366 . S
C1595 C1599 1.385 . S
C1596 H1577 0.951 . S
C1596 C1594 1.388 . S
C1596 C1597 1.366 . S
C1597 C1596 1.366 . S
C1597 C1598 1.414 . S
C1597 C1600 1.499 . S
C1598 H1578 0.950 . S
C1598 C1597 1.414 . S
C1598 C1599 1.374 . S
C1599 H1579 0.950 . S
C1599 C1595 1.385 . S
C1599 C1598 1.374 . S
C1600 C1597 1.499 . S
C1600 C1601 1.373 . S
C1600 C1602 1.389 . S
C1601 H1580 0.950 . S
C1601 C1600 1.373 . S
C1601 C1617 1.377 . S
C1602 C1600 1.389 . S
C1602 C1603 1.524 . S
C1602 C1616 1.377 . S
C1603 C1602 1.524 . S
C1603 C1604 1.397 . S
C1603 C1608 1.363 . S
C1604 H1581 0.950 . S
C1604 C1603 1.397 . S
C1604 C1605 1.334 1_545 S
C1605 H1582 0.950 . S
C1605 C1604 1.334 1_565 S
C1605 C1606 1.287 . S
C1606 C1605 1.287 . S
C1606 C1607 1.524 1_565 S
C1606 H1625 0.913 . S
C1607 H1583 0.950 . S
C1607 C1606 1.524 1_545 S
C1607 C1608 1.415 . S
C1608 H1584 0.950 . S
C1608 C1603 1.363 . S
C1608 C1607 1.415 . S
C1609 H1585 0.951 . S
C1609 C1610 1.366 . S
C1609 C1611 1.388 . S
C1610 C1609 1.366 . S
C1610 C1614 1.385 . S
C1611 H1586 0.951 . S
C1611 C1609 1.388 . S
C1611 C1612 1.366 . S
C1612 C1611 1.366 . S
C1612 C1613 1.414 . S
C1612 C1615 1.499 . S
C1613 H1587 0.950 . S
C1613 C1612 1.414 . S
C1613 C1614 1.374 . S
C1614 H1588 0.950 1_655 S
C1614 C1610 1.385 . S
C1614 C1613 1.374 . S
C1615 C1612 1.499 . S
C1615 C1616 1.373 . S
C1615 C1617 1.389 . S
C1616 H1589 0.950 . S
C1616 C1602 1.377 . S
C1616 C1615 1.373 . S
C1617 C1601 1.377 . S
C1617 C1615 1.389 . S
C1617 C1618 1.524 . S
C1618 C1617 1.524 . S
C1618 C1619 1.397 . S
C1618 C1623 1.363 . S
C1619 H1590 0.950 . S
C1619 C1618 1.397 . S
C1619 C1620 1.334 . S
C1620 H1591 0.950 . S
C1620 C1619 1.334 . S
C1620 C1621 1.287 . S
C1621 C1620 1.287 . S
C1621 C1622 1.524 . S
C1621 H1624 0.999 . S
C1622 H1592 0.950 . S
C1622 C1621 1.524 . S
C1622 C1623 1.415 . S
C1623 H1593 0.950 . S
C1623 C1618 1.363 . S
C1623 C1622 1.415 . S
H1624 C1621 0.999 . S
H1625 C1606 0.913 . S
H1626 C1644 0.951 . S
H1627 C1646 0.951 . S
H1628 C1648 0.950 . S
H1629 C1649 0.950 . S
H1630 C1651 0.950 . S
H1631 C1654 0.950 . S
H1632 C1655 0.950 . S
H1633 C1657 0.950 . S
H1634 C1658 0.950 . S
H1635 C1659 0.951 . S
H1636 C1661 0.951 . S
H1637 C1663 0.950 . S
H1638 C1664 0.950 . S
H1639 C1666 0.950 . S
H1640 C1669 0.950 . S
H1641 C1670 0.950 . S
H1642 C1672 0.950 . S
H1643 C1673 0.950 . S
C1644 H1626 0.951 . S
C1644 C1645 1.366 . S
C1644 C1646 1.388 . S
C1645 C1644 1.366 . S
C1645 C1649 1.385 . S
C1646 H1627 0.951 . S
C1646 C1644 1.388 . S
C1646 C1647 1.366 . S
C1647 C1646 1.366 . S
C1647 C1648 1.414 . S
C1647 C1650 1.499 . S
C1648 H1628 0.950 . S
C1648 C1647 1.414 . S
C1648 C1649 1.374 . S
C1649 H1629 0.950 . S
C1649 C1645 1.385 . S
C1649 C1648 1.374 . S
C1650 C1647 1.499 . S
C1650 C1651 1.373 . S
C1650 C1652 1.389 . S
C1651 H1630 0.950 . S
C1651 C1650 1.373 . S
C1651 C1667 1.377 . S
C1652 C1650 1.389 . S
C1652 C1653 1.524 . S
C1652 C1666 1.377 . S
C1653 C1652 1.524 . S
C1653 C1654 1.397 . S
C1653 C1658 1.363 . S
C1654 H1631 0.950 . S
C1654 C1653 1.397 . S
C1654 C1655 1.334 . S
C1655 H1632 0.950 . S
C1655 C1654 1.334 . S
C1655 C1656 1.287 . S
C1656 C1655 1.287 . S
C1656 C1657 1.524 . S
C1656 H1675 0.913 . S
C1657 H1633 0.950 . S
C1657 C1656 1.524 . S
C1657 C1658 1.415 . S
C1658 H1634 0.950 . S
C1658 C1653 1.363 . S
C1658 C1657 1.415 . S
C1659 H1635 0.951 . S
C1659 C1660 1.366 . S
C1659 C1661 1.388 . S
C1660 C1659 1.366 . S
C1660 C1664 1.385 . S
C1661 H1636 0.951 . S
C1661 C1659 1.388 . S
C1661 C1662 1.366 . S
C1662 C1661 1.366 . S
C1662 C1663 1.414 . S
C1662 C1665 1.499 . S
C1663 H1637 0.950 . S
C1663 C1662 1.414 . S
C1663 C1664 1.374 . S
C1664 H1638 0.950 . S
C1664 C1660 1.385 . S
C1664 C1663 1.374 . S
C1665 C1662 1.499 . S
C1665 C1666 1.373 . S
C1665 C1667 1.389 . S
C1666 H1639 0.950 . S
C1666 C1652 1.377 . S
C1666 C1665 1.373 . S
C1667 C1651 1.377 . S
C1667 C1665 1.389 . S
C1667 C1668 1.524 . S
C1668 C1667 1.524 . S
C1668 C1669 1.397 . S
C1668 C1673 1.363 . S
C1669 H1640 0.950 . S
C1669 C1668 1.397 . S
C1669 C1670 1.334 . S
C1670 H1641 0.950 . S
C1670 C1669 1.334 . S
C1670 C1671 1.287 . S
C1671 C1670 1.287 . S
C1671 C1672 1.524 . S
C1671 H1674 0.999 . S
C1672 H1642 0.950 . S
C1672 C1671 1.524 . S
C1672 C1673 1.415 . S
C1673 H1643 0.950 . S
C1673 C1668 1.363 . S
C1673 C1672 1.415 . S
H1674 C1671 0.999 . S
H1675 C1656 0.913 . S
H1676 C1694 0.951 . S
H1677 C1696 0.951 . S
H1678 C1698 0.950 . S
H1679 C1699 0.950 . S
H1680 C1701 0.950 . S
H1681 C1704 0.950 . S
H1682 C1705 0.950 . S
H1683 C1707 0.950 . S
H1684 C1708 0.950 . S
H1685 C1709 0.951 . S
H1686 C1711 0.951 . S
H1687 C1713 0.950 . S
H1688 C1714 0.950 . S
H1689 C1716 0.950 . S
H1690 C1719 0.950 . S
H1691 C1720 0.950 . S
H1692 C1722 0.950 1_455 S
H1693 C1723 0.950 . S
C1694 H1676 0.951 . S
C1694 C1695 1.366 . S
C1694 C1696 1.388 . S
C1695 C1694 1.366 . S
C1695 C1699 1.385 . S
C1696 H1677 0.951 . S
C1696 C1694 1.388 . S
C1696 C1697 1.366 . S
C1697 C1696 1.366 . S
C1697 C1698 1.414 . S
C1697 C1700 1.499 . S
C1698 H1678 0.950 . S
C1698 C1697 1.414 . S
C1698 C1699 1.374 . S
C1699 H1679 0.950 . S
C1699 C1695 1.385 . S
C1699 C1698 1.374 . S
C1700 C1697 1.499 . S
C1700 C1701 1.373 . S
C1700 C1702 1.389 . S
C1701 H1680 0.950 . S
C1701 C1700 1.373 . S
C1701 C1717 1.377 . S
C1702 C1700 1.389 . S
C1702 C1703 1.524 . S
C1702 C1716 1.377 . S
C1703 C1702 1.524 . S
C1703 C1704 1.397 . S
C1703 C1708 1.363 . S
C1704 H1681 0.950 . S
C1704 C1703 1.397 . S
C1704 C1705 1.334 . S
C1705 H1682 0.950 . S
C1705 C1704 1.334 . S
C1705 C1706 1.287 . S
C1706 C1705 1.287 . S
C1706 C1707 1.524 . S
C1706 H1725 0.913 . S
C1707 H1683 0.950 . S
C1707 C1706 1.524 . S
C1707 C1708 1.415 . S
C1708 H1684 0.950 . S
C1708 C1703 1.363 . S
C1708 C1707 1.415 . S
C1709 H1685 0.951 . S
C1709 C1710 1.366 . S
C1709 C1711 1.388 . S
C1710 C1709 1.366 . S
C1710 C1714 1.385 . S
C1711 H1686 0.951 . S
C1711 C1709 1.388 . S
C1711 C1712 1.366 . S
C1712 C1711 1.366 . S
C1712 C1713 1.414 . S
C1712 C1715 1.499 . S
C1713 H1687 0.950 . S
C1713 C1712 1.414 . S
C1713 C1714 1.374 . S
C1714 H1688 0.950 . S
C1714 C1710 1.385 . S
C1714 C1713 1.374 . S
C1715 C1712 1.499 . S
C1715 C1716 1.373 . S
C1715 C1717 1.389 . S
C1716 H1689 0.950 . S
C1716 C1702 1.377 . S
C1716 C1715 1.373 . S
C1717 C1701 1.377 . S
C1717 C1715 1.389 . S
C1717 C1718 1.524 . S
C1718 C1717 1.524 . S
C1718 C1719 1.397 . S
C1718 C1723 1.363 . S
C1719 H1690 0.950 . S
C1719 C1718 1.397 . S
C1719 C1720 1.334 . S
C1720 H1691 0.950 . S
C1720 C1719 1.334 . S
C1720 C1721 1.287 . S
C1721 C1720 1.287 . S
C1721 C1722 1.524 . S
C1721 H1724 0.999 . S
C1722 H1692 0.950 1_655 S
C1722 C1721 1.524 . S
C1722 C1723 1.415 . S
C1723 H1693 0.950 . S
C1723 C1718 1.363 . S
C1723 C1722 1.415 . S
H1724 C1721 0.999 . S
H1725 C1706 0.913 . S
H1726 C1744 0.951 . S
H1727 C1746 0.951 . S
H1728 C1748 0.950 . S
H1729 C1749 0.950 1_655 S
H1730 C1751 0.950 . S
H1731 C1754 0.950 . S
H1732 C1755 0.950 . S
H1733 C1757 0.950 . S
H1734 C1758 0.950 . S
H1735 C1759 0.951 . S
H1736 C1761 0.951 . S
H1737 C1763 0.950 . S
H1738 C1764 0.950 . S
H1739 C1766 0.950 . S
H1740 C1769 0.950 . S
H1741 C1770 0.950 . S
H1742 C1772 0.950 . S
H1743 C1773 0.950 . S
C1744 H1726 0.951 . S
C1744 C1745 1.366 . S
C1744 C1746 1.388 . S
C1745 C1744 1.366 . S
C1745 C1749 1.385 . S
C1746 H1727 0.951 . S
C1746 C1744 1.388 . S
C1746 C1747 1.366 . S
C1747 C1746 1.366 . S
C1747 C1748 1.414 . S
C1747 C1750 1.499 . S
C1748 H1728 0.950 . S
C1748 C1747 1.414 . S
C1748 C1749 1.374 . S
C1749 H1729 0.950 1_455 S
C1749 C1745 1.385 . S
C1749 C1748 1.374 . S
C1750 C1747 1.499 . S
C1750 C1751 1.373 . S
C1750 C1752 1.389 . S
C1751 H1730 0.950 . S
C1751 C1750 1.373 . S
C1751 C1767 1.377 . S
C1752 C1750 1.389 . S
C1752 C1753 1.524 . S
C1752 C1766 1.377 . S
C1753 C1752 1.524 . S
C1753 C1754 1.397 . S
C1753 C1758 1.363 . S
C1754 H1731 0.950 . S
C1754 C1753 1.397 . S
C1754 C1755 1.334 . S
C1755 H1732 0.950 . S
C1755 C1754 1.334 . S
C1755 C1756 1.287 . S
C1756 C1755 1.287 . S
C1756 C1757 1.524 . S
C1756 H1775 0.913 . S
C1757 H1733 0.950 . S
C1757 C1756 1.524 . S
C1757 C1758 1.415 . S
C1758 H1734 0.950 . S
C1758 C1753 1.363 . S
C1758 C1757 1.415 . S
C1759 H1735 0.951 . S
C1759 C1760 1.366 . S
C1759 C1761 1.388 . S
C1760 C1759 1.366 . S
C1760 C1764 1.385 . S
C1761 H1736 0.951 . S
C1761 C1759 1.388 . S
C1761 C1762 1.366 . S
C1762 C1761 1.366 . S
C1762 C1763 1.414 . S
C1762 C1765 1.499 . S
C1763 H1737 0.950 . S
C1763 C1762 1.414 . S
C1763 C1764 1.374 . S
C1764 H1738 0.950 . S
C1764 C1760 1.385 . S
C1764 C1763 1.374 . S
C1765 C1762 1.499 . S
C1765 C1766 1.373 . S
C1765 C1767 1.389 . S
C1766 H1739 0.950 . S
C1766 C1752 1.377 . S
C1766 C1765 1.373 . S
C1767 C1751 1.377 . S
C1767 C1765 1.389 . S
C1767 C1768 1.524 . S
C1768 C1767 1.524 . S
C1768 C1769 1.397 . S
C1768 C1773 1.363 . S
C1769 H1740 0.950 . S
C1769 C1768 1.397 . S
C1769 C1770 1.334 . S
C1770 H1741 0.950 . S
C1770 C1769 1.334 . S
C1770 C1771 1.287 . S
C1771 C1770 1.287 . S
C1771 C1772 1.524 . S
C1771 H1774 0.999 . S
C1772 H1742 0.950 . S
C1772 C1771 1.524 . S
C1772 C1773 1.415 . S
C1773 H1743 0.950 . S
C1773 C1768 1.363 . S
C1773 C1772 1.415 . S
H1774 C1771 0.999 . S
H1775 C1756 0.913 . S
H1776 C1794 0.951 . S
H1777 C1796 0.951 . S
H1778 C1798 0.950 . S
H1779 C1799 0.950 . S
H1780 C1801 0.950 . S
H1781 C1804 0.950 . S
H1782 C1805 0.950 . S
H1783 C1807 0.950 . S
H1784 C1808 0.950 . S
H1785 C1809 0.951 . S
H1786 C1811 0.951 . S
H1787 C1813 0.950 . S
H1788 C1814 0.950 . S
H1789 C1816 0.950 . S
H1790 C1819 0.950 . S
H1791 C1820 0.950 . S
H1792 C1822 0.950 . S
H1793 C1823 0.950 . S
C1794 H1776 0.951 . S
C1794 C1795 1.366 1_556 S
C1794 C1796 1.388 . S
C1795 C1794 1.366 1_554 S
C1795 C1799 1.385 . S
C1796 H1777 0.951 . S
C1796 C1794 1.388 . S
C1796 C1797 1.366 1_556 S
C1797 C1796 1.366 1_554 S
C1797 C1798 1.414 . S
C1797 C1800 1.499 . S
C1798 H1778 0.950 . S
C1798 C1797 1.414 . S
C1798 C1799 1.374 . S
C1799 H1779 0.950 . S
C1799 C1795 1.385 . S
C1799 C1798 1.374 . S
C1800 C1797 1.499 . S
C1800 C1801 1.373 . S
C1800 C1802 1.389 1_554 S
C1801 H1780 0.950 . S
C1801 C1800 1.373 . S
C1801 C1817 1.377 1_545 S
C1802 C1800 1.389 1_556 S
C1802 C1803 1.524 . S
C1802 C1816 1.377 1_445 S
C1803 C1802 1.524 . S
C1803 C1804 1.397 1_455 S
C1803 C1808 1.363 . S
C1804 H1781 0.950 . S
C1804 C1803 1.397 1_655 S
C1804 C1805 1.334 . S
C1805 H1782 0.950 . S
C1805 C1804 1.334 . S
C1805 C1806 1.287 . S
C1806 C1805 1.287 . S
C1806 C1807 1.524 . S
C1806 H1825 0.913 . S
C1807 H1783 0.950 . S
C1807 C1806 1.524 . S
C1807 C1808 1.415 1_655 S
C1808 H1784 0.950 . S
C1808 C1803 1.363 . S
C1808 C1807 1.415 1_455 S
C1809 H1785 0.951 . S
C1809 C1810 1.366 1_554 S
C1809 C1811 1.388 . S
C1810 C1809 1.366 1_556 S
C1810 C1814 1.385 . S
C1811 H1786 0.951 . S
C1811 C1809 1.388 . S
C1811 C1812 1.366 1_554 S
C1812 C1811 1.366 1_556 S
C1812 C1813 1.414 . S
C1812 C1815 1.499 1_655 S
C1813 H1787 0.950 . S
C1813 C1812 1.414 . S
C1813 C1814 1.374 . S
C1814 H1788 0.950 . S
C1814 C1810 1.385 . S
C1814 C1813 1.374 . S
C1815 C1812 1.499 1_455 S
C1815 C1816 1.373 1_455 S
C1815 C1817 1.389 1_556 S
C1816 H1789 0.950 . S
C1816 C1802 1.377 1_665 S
C1816 C1815 1.373 1_655 S
C1817 C1801 1.377 1_565 S
C1817 C1815 1.389 1_554 S
C1817 C1818 1.524 . S
C1818 C1817 1.524 . S
C1818 C1819 1.397 . S
C1818 C1823 1.363 . S
C1819 H1790 0.950 . S
C1819 C1818 1.397 . S
C1819 C1820 1.334 . S
C1820 H1791 0.950 . S
C1820 C1819 1.334 . S
C1820 C1821 1.287 . S
C1821 C1820 1.287 . S
C1821 C1822 1.524 . S
C1821 H1824 0.999 . S
C1822 H1792 0.950 . S
C1822 C1821 1.524 . S
C1822 C1823 1.415 . S
C1823 H1793 0.950 . S
C1823 C1818 1.363 . S
C1823 C1822 1.415 . S
H1824 C1821 0.999 . S
H1825 C1806 0.913 . S
H1826 C1844 0.951 . S
H1827 C1846 0.951 . S
H1828 C1848 0.950 1_545 S
H1829 C1849 0.950 . S
H1830 C1851 0.950 . S
H1831 C1854 0.950 . S
H1832 C1855 0.950 . S
H1833 C1857 0.950 . S
H1834 C1858 0.950 . S
H1835 C1859 0.951 . S
H1836 C1861 0.951 1_455 S
H1837 C1863 0.950 . S
H1838 C1864 0.950 . S
H1839 C1866 0.950 1_565 S
H1840 C1869 0.950 . S
H1841 C1870 0.950 . S
H1842 C1872 0.950 . S
H1843 C1873 0.950 . S
C1844 H1826 0.951 . S
C1844 C1845 1.366 . S
C1844 C1846 1.388 . S
C1845 C1844 1.366 . S
C1845 C1849 1.385 . S
C1846 H1827 0.951 . S
C1846 C1844 1.388 . S
C1846 C1847 1.366 . S
C1847 C1846 1.366 . S
C1847 C1848 1.414 . S
C1847 C1850 1.498 1_565 S
C1848 H1828 0.950 1_565 S
C1848 C1847 1.414 . S
C1848 C1849 1.374 . S
C1849 H1829 0.950 . S
C1849 C1845 1.385 . S
C1849 C1848 1.374 . S
C1850 C1847 1.498 1_545 S
C1850 C1851 1.374 . S
C1850 C1852 1.362 1_445 S
C1851 H1830 0.950 . S
C1851 C1850 1.374 . S
C1851 C1867 1.377 . S
C1852 C1850 1.362 1_665 S
C1852 C1853 1.529 . S
C1852 C1866 1.402 1_565 S
C1853 C1852 1.529 . S
C1853 C1854 1.397 . S
C1853 C1858 1.363 . S
C1854 H1831 0.950 . S
C1854 C1853 1.397 . S
C1854 C1855 1.334 . S
C1855 H1832 0.950 . S
C1855 C1854 1.334 . S
C1855 C1856 1.287 . S
C1856 C1855 1.287 . S
C1856 C1857 1.524 . S
C1856 H1875 0.913 . S
C1857 H1833 0.950 . S
C1857 C1856 1.524 . S
C1857 C1858 1.415 . S
C1858 H1834 0.950 . S
C1858 C1853 1.363 . S
C1858 C1857 1.415 . S
C1859 H1835 0.951 . S
C1859 C1860 1.366 . S
C1859 C1861 1.388 . S
C1860 C1859 1.366 . S
C1860 C1864 1.385 . S
C1861 H1836 0.951 1_655 S
C1861 C1859 1.388 . S
C1861 C1862 1.366 . S
C1862 C1861 1.366 . S
C1862 C1863 1.414 . S
C1862 C1865 1.499 1_655 S
C1863 H1837 0.950 . S
C1863 C1862 1.414 . S
C1863 C1864 1.374 . S
C1864 H1838 0.950 . S
C1864 C1860 1.385 . S
C1864 C1863 1.374 . S
C1865 C1862 1.499 1_455 S
C1865 C1866 1.373 1_455 S
C1865 C1867 1.389 . S
C1866 H1839 0.950 1_545 S
C1866 C1852 1.402 1_545 S
C1866 C1865 1.373 1_655 S
C1867 C1851 1.377 . S
C1867 C1865 1.389 . S
C1867 C1868 1.524 . S
C1868 C1867 1.524 . S
C1868 C1869 1.397 . S
C1868 C1873 1.363 . S
C1869 H1840 0.950 . S
C1869 C1868 1.397 . S
C1869 C1870 1.334 . S
C1870 H1841 0.950 . S
C1870 C1869 1.334 . S
C1870 C1871 1.287 . S
C1871 C1870 1.287 . S
C1871 C1872 1.524 . S
C1871 H1874 0.999 . S
C1872 H1842 0.950 . S
C1872 C1871 1.524 . S
C1872 C1873 1.415 . S
C1873 H1843 0.950 . S
C1873 C1868 1.363 . S
C1873 C1872 1.415 . S
H1874 C1871 0.999 . S
H1875 C1856 0.913 . S
H1876 C1894 0.951 . S
H1877 C1896 0.951 . S
H1878 C1898 0.950 . S
H1879 C1899 0.950 . S
H1880 C1901 0.950 . S
H1881 C1904 0.950 1_545 S
H1882 C1905 0.950 . S
H1883 C1907 0.950 . S
H1884 C1908 0.950 . S
H1885 C1909 0.951 . S
H1886 C1911 0.951 1_545 S
H1887 C1913 0.950 . S
H1888 C1914 0.950 . S
H1889 C1916 0.950 . S
H1890 C1919 0.950 . S
H1891 C1920 0.950 . S
H1892 C1922 0.950 . S
H1893 C1923 0.950 . S
C1894 H1876 0.951 . S
C1894 C1895 1.366 . S
C1894 C1896 1.388 . S
C1895 C1894 1.366 . S
C1895 C1899 1.385 . S
C1896 H1877 0.951 . S
C1896 C1894 1.388 . S
C1896 C1897 1.366 . S
C1897 C1896 1.366 . S
C1897 C1898 1.414 . S
C1897 C1900 1.499 . S
C1898 H1878 0.950 . S
C1898 C1897 1.414 . S
C1898 C1899 1.374 . S
C1899 H1879 0.950 . S
C1899 C1895 1.385 . S
C1899 C1898 1.374 . S
C1900 C1897 1.499 . S
C1900 C1901 1.373 . S
C1900 C1902 1.369 1_545 S
C1901 H1880 0.950 . S
C1901 C1900 1.373 . S
C1901 C1917 1.377 1_455 S
C1902 C1900 1.369 1_565 S
C1902 C1903 1.546 . S
C1902 C1916 1.377 1_455 S
C1903 C1902 1.546 . S
C1903 C1904 1.397 . S
C1903 C1908 1.363 . S
C1904 H1881 0.950 1_565 S
C1904 C1903 1.397 . S
C1904 C1905 1.334 . S
C1905 H1882 0.950 . S
C1905 C1904 1.334 . S
C1905 C1906 1.287 . S
C1906 C1905 1.287 . S
C1906 C1907 1.524 . S
C1906 H1925 0.913 . S
C1907 H1883 0.950 . S
C1907 C1906 1.524 . S
C1907 C1908 1.415 . S
C1908 H1884 0.950 . S
C1908 C1903 1.363 . S
C1908 C1907 1.415 . S
C1909 H1885 0.951 . S
C1909 C1910 1.366 . S
C1909 C1911 1.388 . S
C1910 C1909 1.366 . S
C1910 C1914 1.385 . S
C1911 H1886 0.951 1_565 S
C1911 C1909 1.388 . S
C1911 C1912 1.366 . S
C1912 C1911 1.366 . S
C1912 C1913 1.414 . S
C1912 C1915 1.499 1_565 S
C1913 H1887 0.950 . S
C1913 C1912 1.414 . S
C1913 C1914 1.374 . S
C1914 H1888 0.950 . S
C1914 C1910 1.385 . S
C1914 C1913 1.374 . S
C1915 C1912 1.499 1_545 S
C1915 C1916 1.373 1_545 S
C1915 C1917 1.389 . S
C1916 H1889 0.950 . S
C1916 C1902 1.377 1_655 S
C1916 C1915 1.373 1_565 S
C1917 C1901 1.377 1_655 S
C1917 C1915 1.389 . S
C1917 C1918 1.524 . S
C1918 C1917 1.524 . S
C1918 C1919 1.397 . S
C1918 C1923 1.363 . S
C1919 H1890 0.950 . S
C1919 C1918 1.397 . S
C1919 C1920 1.334 . S
C1920 H1891 0.950 . S
C1920 C1919 1.334 . S
C1920 C1921 1.287 . S
C1921 C1920 1.287 . S
C1921 C1922 1.524 . S
C1921 H1924 0.999 . S
C1922 H1892 0.950 . S
C1922 C1921 1.524 . S
C1922 C1923 1.415 . S
C1923 H1893 0.950 . S
C1923 C1918 1.363 . S
C1923 C1922 1.415 . S
H1924 C1921 0.999 . S
H1925 C1906 0.913 . S
H1926 C1944 0.951 . S
H1927 C1946 0.951 . S
H1928 C1948 0.950 . S
H1929 C1949 0.950 . S
H1930 C1951 0.950 . S
H1931 C1954 0.950 . S
H1932 C1955 0.950 . S
H1933 C1957 0.950 . S
H1934 C1958 0.950 1_565 S
H1935 C1959 0.951 . S
H1936 C1961 0.951 . S
H1937 C1963 0.950 . S
H1938 C1964 0.950 . S
H1939 C1966 0.950 . S
H1940 C1969 0.950 . S
H1941 C1970 0.950 . S
H1942 C1972 0.950 . S
H1943 C1973 0.972 1_545 S
C1944 H1926 0.951 . S
C1944 C1945 1.366 . S
C1944 C1946 1.388 . S
C1945 C1944 1.366 . S
C1945 C1949 1.385 . S
C1946 H1927 0.951 . S
C1946 C1944 1.388 . S
C1946 C1947 1.366 . S
C1947 C1946 1.366 . S
C1947 C1948 1.414 . S
C1947 C1950 1.499 1_455 S
C1948 H1928 0.950 . S
C1948 C1947 1.414 . S
C1948 C1949 1.374 . S
C1949 H1929 0.950 . S
C1949 C1945 1.385 . S
C1949 C1948 1.374 . S
C1950 C1947 1.499 1_655 S
C1950 C1951 1.373 1_655 S
C1950 C1952 1.389 . S
C1951 H1930 0.950 . S
C1951 C1950 1.373 1_455 S
C1951 C1967 1.377 1_445 S
C1952 C1950 1.389 . S
C1952 C1953 1.524 . S
C1952 C1966 1.377 1_545 S
C1953 C1952 1.524 . S
C1953 C1954 1.397 . S
C1953 C1958 1.363 . S
C1954 H1931 0.950 . S
C1954 C1953 1.397 . S
C1954 C1955 1.334 . S
C1955 H1932 0.950 . S
C1955 C1954 1.334 . S
C1955 C1956 1.287 . S
C1956 C1955 1.287 . S
C1956 C1957 1.524 . S
C1956 H1975 0.913 . S
C1957 H1933 0.950 . S
C1957 C1956 1.524 . S
C1957 C1958 1.415 . S
C1958 H1934 0.950 1_545 S
C1958 C1953 1.363 . S
C1958 C1957 1.415 . S
C1959 H1935 0.951 . S
C1959 C1960 1.366 . S
C1959 C1961 1.388 . S
C1960 C1959 1.366 . S
C1960 C1964 1.385 . S
C1961 H1936 0.951 . S
C1961 C1959 1.388 . S
C1961 C1962 1.366 . S
C1962 C1961 1.366 . S
C1962 C1963 1.414 . S
C1962 C1965 1.499 . S
C1963 H1937 0.950 . S
C1963 C1962 1.414 . S
C1963 C1964 1.374 . S
C1964 H1938 0.950 . S
C1964 C1960 1.385 . S
C1964 C1963 1.374 . S
C1965 C1962 1.499 . S
C1965 C1966 1.373 . S
C1965 C1967 1.389 . S
C1966 H1939 0.950 . S
C1966 C1952 1.377 1_565 S
C1966 C1965 1.373 . S
C1967 C1951 1.377 1_665 S
C1967 C1965 1.389 . S
C1967 C1968 1.529 . S
C1968 C1967 1.529 . S
C1968 C1969 1.389 1_655 S
C1968 C1973 1.358 . S
C1969 H1940 0.950 . S
C1969 C1968 1.389 1_455 S
C1969 C1970 1.334 . S
C1970 H1941 0.950 . S
C1970 C1969 1.334 . S
C1970 C1971 1.287 . S
C1971 C1970 1.287 . S
C1971 C1972 1.524 . S
C1971 H1974 0.999 . S
C1972 H1942 0.950 . S
C1972 C1971 1.524 . S
C1972 C1973 1.401 1_455 S
C1973 H1943 0.972 1_565 S
C1973 C1968 1.358 . S
C1973 C1972 1.401 1_655 S
H1974 C1971 0.999 . S
H1975 C1956 0.913 . S
H1976 C1994 0.951 . S
H1977 C1996 0.951 1_655 S
H1978 C1998 0.950 . S
H1979 C1999 0.950 . S
H1980 C2001 0.950 1_545 S
H1981 C2004 0.950 1_455 S
H1982 C2005 0.950 1_455 S
H1983 C2007 0.950 . S
H1984 C2008 0.950 . S
H1985 C2009 0.951 . S
H1986 C2011 0.951 . S
H1987 C2013 0.950 1_565 S
H1988 C2014 0.950 . S
H1989 C2016 0.950 . S
H1990 C2019 0.950 . S
H1991 C2020 0.950 . S
H1992 C2022 0.950 . S
H1993 C2023 0.950 . S
C1994 H1976 0.951 . S
C1994 C1995 1.366 . S
C1994 C1996 1.388 . S
C1995 C1994 1.366 . S
C1995 C1999 1.385 . S
C1996 H1977 0.951 1_455 S
C1996 C1994 1.388 . S
C1996 C1997 1.366 . S
C1997 C1996 1.366 . S
C1997 C1998 1.414 . S
C1997 C2000 1.523 . S
C1998 H1978 0.950 . S
C1998 C1997 1.414 . S
C1998 C1999 1.374 . S
C1999 H1979 0.950 . S
C1999 C1995 1.385 . S
C1999 C1998 1.374 . S
C2000 C1997 1.523 . S
C2000 C2001 1.367 . S
C2000 C2002 1.370 1_455 S
C2001 H1980 0.950 1_565 S
C2001 C2000 1.367 . S
C2001 C2017 1.377 1_465 S
C2002 C2000 1.370 1_655 S
C2002 C2003 1.524 . S
C2002 C2016 1.377 . S
C2003 C2002 1.524 . S
C2003 C2004 1.397 . S
C2003 C2008 1.363 . S
C2004 H1981 0.950 1_655 S
C2004 C2003 1.397 . S
C2004 C2005 1.334 . S
C2005 H1982 0.950 1_655 S
C2005 C2004 1.334 . S
C2005 C2006 1.287 . S
C2006 C2005 1.287 . S
C2006 C2007 1.524 . S
C2006 H2025 0.913 . S
C2007 H1983 0.950 . S
C2007 C2006 1.524 . S
C2007 C2008 1.415 . S
C2008 H1984 0.950 . S
C2008 C2003 1.363 . S
C2008 C2007 1.415 . S
C2009 H1985 0.951 . S
C2009 C2010 1.366 . S
C2009 C2011 1.388 . S
C2010 C2009 1.366 . S
C2010 C2014 1.385 . S
C2011 H1986 0.951 . S
C2011 C2009 1.388 . S
C2011 C2012 1.366 . S
C2012 C2011 1.366 . S
C2012 C2013 1.414 . S
C2012 C2015 1.499 1_545 S
C2013 H1987 0.950 1_545 S
C2013 C2012 1.414 . S
C2013 C2014 1.374 . S
C2014 H1988 0.950 . S
C2014 C2010 1.385 . S
C2014 C2013 1.374 . S
C2015 C2012 1.499 1_565 S
C2015 C2016 1.373 . S
C2015 C2017 1.389 1_565 S
C2016 H1989 0.950 . S
C2016 C2002 1.377 . S
C2016 C2015 1.373 . S
C2017 C2001 1.377 1_645 S
C2017 C2015 1.389 1_545 S
C2017 C2018 1.524 . S
C2018 C2017 1.524 . S
C2018 C2019 1.397 . S
C2018 C2023 1.363 1_655 S
C2019 H1990 0.950 . S
C2019 C2018 1.397 . S
C2019 C2020 1.334 . S
C2020 H1991 0.950 . S
C2020 C2019 1.334 . S
C2020 C2021 1.287 1_655 S
C2021 C2020 1.287 1_455 S
C2021 C2022 1.524 . S
C2021 H2024 0.999 . S
C2022 H1992 0.950 . S
C2022 C2021 1.524 . S
C2022 C2023 1.415 . S
C2023 H1993 0.950 . S
C2023 C2018 1.363 1_455 S
C2023 C2022 1.415 . S
H2024 C2021 0.999 . S
H2025 C2006 0.913 . S
H2026 C2044 0.951 . S
H2027 C2046 0.951 . S
H2028 C2048 0.950 1_565 S
H2029 C2049 0.950 . S
H2030 C2051 0.950 . S
H2031 C2054 0.950 1_565 S
H2032 C2055 0.950 . S
H2033 C2057 0.950 . S
H2034 C2058 0.950 1_655 S
H2035 C2059 0.951 . S
H2036 C2061 0.951 . S
H2037 C2063 0.950 . S
H2038 C2064 0.950 . S
H2039 C2066 0.950 . S
H2040 C2069 0.950 . S
H2041 C2070 0.950 . S
H2042 C2072 0.950 . S
H2043 C2073 0.950 1_455 S
C2044 H2026 0.951 . S
C2044 C2045 1.366 . S
C2044 C2046 1.388 . S
C2045 C2044 1.366 . S
C2045 C2049 1.385 . S
C2046 H2027 0.951 . S
C2046 C2044 1.388 . S
C2046 C2047 1.366 . S
C2047 C2046 1.366 . S
C2047 C2048 1.414 . S
C2047 C2050 1.499 1_545 S
C2048 H2028 0.950 1_545 S
C2048 C2047 1.414 . S
C2048 C2049 1.374 . S
C2049 H2029 0.950 . S
C2049 C2045 1.385 . S
C2049 C2048 1.374 . S
C2050 C2047 1.499 1_565 S
C2050 C2051 1.373 . S
C2050 C2052 1.389 1_565 S
C2051 H2030 0.950 . S
C2051 C2050 1.373 . S
C2051 C2067 1.377 1_455 S
C2052 C2050 1.389 1_545 S
C2052 C2053 1.524 . S
C2052 C2066 1.377 1_445 S
C2053 C2052 1.524 . S
C2053 C2054 1.397 . S
C2053 C2058 1.363 . S
C2054 H2031 0.950 1_545 S
C2054 C2053 1.397 . S
C2054 C2055 1.334 . S
C2055 H2032 0.950 . S
C2055 C2054 1.334 . S
C2055 C2056 1.287 . S
C2056 C2055 1.287 . S
C2056 C2057 1.524 . S
C2056 H2075 0.913 . S
C2057 H2033 0.950 . S
C2057 C2056 1.524 . S
C2057 C2058 1.415 . S
C2058 H2034 0.950 1_455 S
C2058 C2053 1.363 . S
C2058 C2057 1.415 . S
C2059 H2035 0.951 . S
C2059 C2060 1.366 . S
C2059 C2061 1.388 . S
C2060 C2059 1.366 . S
C2060 C2064 1.385 . S
C2061 H2036 0.951 . S
C2061 C2059 1.388 . S
C2061 C2062 1.366 . S
C2062 C2061 1.366 . S
C2062 C2063 1.414 . S
C2062 C2065 1.499 . S
C2063 H2037 0.950 . S
C2063 C2062 1.414 . S
C2063 C2064 1.374 . S
C2064 H2038 0.950 . S
C2064 C2060 1.385 . S
C2064 C2063 1.374 . S
C2065 C2062 1.499 . S
C2065 C2066 1.373 . S
C2065 C2067 1.389 . S
C2066 H2039 0.950 . S
C2066 C2052 1.377 1_665 S
C2066 C2065 1.373 . S
C2067 C2051 1.377 1_655 S
C2067 C2065 1.389 . S
C2067 C2068 1.524 . S
C2068 C2067 1.524 . S
C2068 C2069 1.397 . S
C2068 C2073 1.363 . S
C2069 H2040 0.950 . S
C2069 C2068 1.397 . S
C2069 C2070 1.334 . S
C2070 H2041 0.950 . S
C2070 C2069 1.334 . S
C2070 C2071 1.287 . S
C2071 C2070 1.287 . S
C2071 C2072 1.524 . S
C2071 H2074 0.999 . S
C2072 H2042 0.950 . S
C2072 C2071 1.524 . S
C2072 C2073 1.415 . S
C2073 H2043 0.950 1_655 S
C2073 C2068 1.363 . S
C2073 C2072 1.415 . S
H2074 C2071 0.999 . S
H2075 C2056 0.913 . S
C295 C182 1.821 . S
C310 C20 1.827 . S
C345 C205 1.821 . S
C360 C43 1.827 . S
C395 C228 1.821 . S
C410 C66 1.827 . S
C445 C251 1.821 . S
C460 C89 1.827 . S
C495 C274 1.821 . S
C510 C112 1.827 . S
C545 C159 1.820 . S
C560 C135 1.827 . S
C595 C158 1.827 . S
C610 C136 1.821 . S
C645 C181 1.827 . S
C660 C21 1.821 . S
C695 C204 1.827 . S
C710 C44 1.821 . S
C745 C227 1.827 . S
C760 C67 1.821 . S
C795 C250 1.827 . S
C810 C90 1.821 . S
C845 C273 1.827 . S
C860 C113 1.821 . S
C895 C17 1.244 . S
C910 C131 1.231 . S
C945 C40 1.243 1_455 S
C960 C16 1.231 . S
C995 C39 1.231 . S
C1010 C63 1.244 1_545 S
C1045 C62 1.231 . S
C1060 C86 1.243 . S
C1095 C85 1.230 . S
C1110 C109 1.244 1_655 S
C1145 C132 1.243 1_565 S
C1160 C108 1.231 . S
C1195 C155 1.244 . S
C1210 C177 1.230 . S
C1245 C178 1.244 1_455 S
C1260 C200 1.231 . S
C1295 C201 1.243 1_545 S
C1310 C223 1.231 . S
C1345 C224 1.243 . S
C1360 C246 1.231 . S
C1395 C247 1.244 1_655 S
C1410 C269 1.231 . S
C1445 C154 1.231 . S
C1460 C270 1.244 1_565 S
C1495 C202 0.766 . S
C1510 C18 0.766 . S
C1545 C41 0.767 . S
C1560 C225 0.767 . S
C1595 C64 0.766 . S
C1610 C248 0.766 . S
C1645 C87 0.766 . S
C1660 C271 0.766 . S
C1695 C110 0.766 . S
C1710 C156 0.766 . S
C1745 C179 0.766 . S
C1760 C133 0.766 . S
C1795 C19 0.502 . S
C1810 C180 0.505 . S
C1845 C203 0.504 . S
C1860 C42 0.506 . S
C1895 C226 0.504 . S
C1910 C65 0.506 . S
C1945 C249 0.506 . S
C1960 C88 0.504 . S
C1995 C111 0.503 . S
C2010 C272 0.502 . S
C2045 C134 0.505 . S
C2060 C157 0.506 . S
