# Generated by pormake.
# Topology smm, (6)-cn, num edge types: 1
# Building blocks:
#     Node 0, Type 0, BuildingBlock: JUFBIX_clean_sbu_0, # of connection points: 6
#     Node 1, Type 0, BuildingBlock: JUFBIX_clean_sbu_0, # of connection points: 6
#     Node 2, Type 0, BuildingBlock: JUFBIX_clean_sbu_0, # of connection points: 6
#     Node 3, Type 0, BuildingBlock: JUFBIX_clean_sbu_0, # of connection points: 6
#     Node 4, Type 0, BuildingBlock: JUFBIX_clean_sbu_0, # of connection points: 6
#     Node 5, Type 0, BuildingBlock: JUFBIX_clean_sbu_0, # of connection points: 6
#     Node 6, Type 0, BuildingBlock: JUFBIX_clean_sbu_0, # of connection points: 6
#     Node 7, Type 0, BuildingBlock: JUFBIX_clean_sbu_0, # of connection points: 6
#     Node 8, Type 0, BuildingBlock: JUFBIX_clean_sbu_0, # of connection points: 6
#     Edge 9, Type (0, 0), BuildingBlock: XIVTED_clean_linker_0, # of connection points: 2
#     Edge 10, Type (0, 0), BuildingBlock: XIVTED_clean_linker_0, # of connection points: 2
#     Edge 11, Type (0, 0), BuildingBlock: XIVTED_clean_linker_0, # of connection points: 2
#     Edge 12, Type (0, 0), BuildingBlock: XIVTED_clean_linker_0, # of connection points: 2
#     Edge 13, Type (0, 0), BuildingBlock: XIVTED_clean_linker_0, # of connection points: 2
#     Edge 14, Type (0, 0), BuildingBlock: XIVTED_clean_linker_0, # of connection points: 2
#     Edge 15, Type (0, 0), BuildingBlock: XIVTED_clean_linker_0, # of connection points: 2
#     Edge 16, Type (0, 0), BuildingBlock: XIVTED_clean_linker_0, # of connection points: 2
#     Edge 17, Type (0, 0), BuildingBlock: XIVTED_clean_linker_0, # of connection points: 2
#     Edge 18, Type (0, 0), BuildingBlock: XIVTED_clean_linker_0, # of connection points: 2
#     Edge 19, Type (0, 0), BuildingBlock: XIVTED_clean_linker_0, # of connection points: 2
#     Edge 20, Type (0, 0), BuildingBlock: XIVTED_clean_linker_0, # of connection points: 2
#     Edge 21, Type (0, 0), BuildingBlock: XIVTED_clean_linker_0, # of connection points: 2
#     Edge 22, Type (0, 0), BuildingBlock: XIVTED_clean_linker_0, # of connection points: 2
#     Edge 23, Type (0, 0), BuildingBlock: XIVTED_clean_linker_0, # of connection points: 2
#     Edge 24, Type (0, 0), BuildingBlock: XIVTED_clean_linker_0, # of connection points: 2
#     Edge 25, Type (0, 0), BuildingBlock: XIVTED_clean_linker_0, # of connection points: 2
#     Edge 26, Type (0, 0), BuildingBlock: XIVTED_clean_linker_0, # of connection points: 2
#     Edge 27, Type (0, 0), BuildingBlock: XIVTED_clean_linker_0, # of connection points: 2
#     Edge 28, Type (0, 0), BuildingBlock: XIVTED_clean_linker_0, # of connection points: 2
#     Edge 29, Type (0, 0), BuildingBlock: XIVTED_clean_linker_0, # of connection points: 2
#     Edge 30, Type (0, 0), BuildingBlock: XIVTED_clean_linker_0, # of connection points: 2
#     Edge 31, Type (0, 0), BuildingBlock: XIVTED_clean_linker_0, # of connection points: 2
#     Edge 32, Type (0, 0), BuildingBlock: XIVTED_clean_linker_0, # of connection points: 2
#     Edge 33, Type (0, 0), BuildingBlock: XIVTED_clean_linker_0, # of connection points: 2
#     Edge 34, Type (0, 0), BuildingBlock: XIVTED_clean_linker_0, # of connection points: 2
#     Edge 35, Type (0, 0), BuildingBlock: XIVTED_clean_linker_0, # of connection points: 2
# Relax obj value: 0.251
# Max RMSD: 0.204
# Mean RMSD: 0.204
data_MOF--net-smm--node1-JUFBIX_clean_sbu_0--edge1-XIVTED_clean_linker_0
_symmetry_space_group_name_H-M    P1
_symmetry_Int_Tables_number       1
_symmetry_cell_setting            triclinic
loop_
_symmetry_equiv_pos_as_xyz
'x, y, z'
_cell_length_a     58.283199
_cell_length_b     58.334253
_cell_length_c     15.06456
_cell_angle_alpha  90.026779
_cell_angle_beta   89.983033
_cell_angle_gamma 120.00794
loop_
_atom_site_label
_atom_site_type_symbol
_atom_site_fract_x
_atom_site_fract_y
_atom_site_fract_z
_atom_type_partial_charge
Co0 Co 0.99442 0.16445 0.96657 0.0
C1 C 0.01455 0.18443 0.13457 0.0
Co2 Co 0.02958 0.20461 0.96696 0.0
C3 C 0.96127 0.10734 0.94643 0.0
C4 C 0.94167 0.12491 0.01452 0.0
N5 N 0.96451 0.13094 -0.02715 0.0
N6 N 0.93735 0.08695 0.97009 0.0
C7 C 0.92497 0.09803 0.01252 0.0
H8 H 0.97637 0.10509 0.91235 0.0
H9 H 0.93775 0.13899 0.04797 0.0
C10 C 0.00933 0.18448 0.79897 0.0
N11 N 0.05907 0.23807 0.96156 0.0
C12 C 0.06187 0.25828 0.91039 0.0
C13 C 0.08248 0.24741 0.00358 0.0
N14 N 0.08614 0.2799 0.91823 0.0
C15 C 0.0992 0.27313 -0.02307 0.0
C16 C 0.04178 0.16433 0.95613 0.0
O17 O 0.99228 0.16417 0.84111 0.0
O18 O 0.02696 0.2042 0.84182 0.0
O19 O 0.05151 0.18928 0.95814 0.0
O20 O 0.01678 0.14936 0.95965 0.0
O21 O 0.03185 0.20459 0.09248 0.0
H22 H 0.08715 0.23616 0.04987 0.0
H23 H 0.04652 0.25687 0.86649 0.0
O24 O 0.99674 0.16488 0.09165 0.0
O25 O 0.97265 0.18022 -0.02589 0.0
O26 O 0.0076 0.21984 -0.02337 0.0
C27 C 0.98262 0.20513 -0.01994 0.0
H28 H 0.90575 0.08737 0.04417 0.0
H29 H 0.11932 0.28587 -0.00047 0.0
Co30 Co 0.86562 0.84492 0.0198 0.0
C31 C 0.84601 0.84549 0.18792 0.0
Co32 Co 0.82526 0.83937 0.02038 0.0
C33 C 0.92216 0.86801 -0.01025 0.0
C34 C 0.90596 0.83324 0.07079 0.0
N35 N 0.89918 0.8488 0.02475 0.0
N36 N 0.94293 0.86496 0.01213 0.0
C37 C 0.93274 0.84303 0.06284 0.0
H38 H 0.92367 0.88409 0.94961 0.0
H39 H 0.89245 0.81629 0.1101 0.0
C40 C 0.84502 0.83885 0.85231 0.0
N41 N 0.79172 0.83525 0.01597 0.0
C42 C 0.77149 0.81826 0.96385 0.0
C43 C 0.78248 0.84921 0.05933 0.0
N44 N 0.75 0.82111 -0.02774 0.0
C45 C 0.75684 0.84059 0.03249 0.0
C46 C 0.86527 0.89196 0.00616 0.0
O47 O 0.86545 0.84243 0.89442 0.0
O48 O 0.82526 0.83667 0.89521 0.0
O49 O 0.84036 0.87652 0.00972 0.0
O50 O 0.88052 0.88227 0.0106 0.0
O51 O 0.82566 0.84215 0.14586 0.0
H52 H 0.79381 0.86489 0.10638 0.0
H53 H 0.77286 0.80457 0.91861 0.0
O54 O 0.86566 0.84743 0.14496 0.0
O55 O 0.85016 0.80747 0.02934 0.0
O56 O 0.81026 0.80224 0.03152 0.0
C57 C 0.82526 0.79229 0.0355 0.0
H58 H 0.94399 0.83524 0.09512 0.0
H59 H 0.74424 0.84806 0.05571 0.0
Co60 Co 0.18528 0.0357 -0.01087 0.0
C61 C 0.18519 0.01527 0.15602 0.0
Co62 Co 0.19029 1.00059 -0.01277 0.0
C63 C 0.16233 0.06932 0.9618 0.0
C64 C 0.19745 0.08779 0.04138 0.0
N65 N 0.18164 0.06548 -0.0045 0.0
N66 N 0.16553 0.09313 -0.01511 0.0
C67 C 0.18768 0.10481 0.03468 0.0
H68 H 0.14607 0.05479 0.92208 0.0
H69 H 0.21454 0.09117 0.07974 0.0
C70 C 0.19033 0.0211 0.82039 0.0
N71 N 0.19414 0.97104 -0.01861 0.0
C72 C 0.21128 0.96788 0.92976 0.0
C73 C 0.18002 0.94779 0.02417 0.0
N74 N 0.20838 0.94353 0.93807 0.0
C75 C 0.18869 0.93081 -0.00243 0.0
C76 C 0.13779 0.98849 -0.02229 0.0
O77 O 0.1872 0.03804 0.86373 0.0
O78 O 0.19239 0.0033 0.86207 0.0
O79 O 0.153 0.97874 -0.0212 0.0
O80 O 0.14782 0.01345 -0.01794 0.0
O81 O 0.18812 0.99819 0.11273 0.0
H82 H 0.16428 0.94341 0.07102 0.0
H83 H 0.2252 0.98303 0.88529 0.0
O84 O 0.18335 0.03318 0.11427 0.0
O85 O 0.22282 0.05747 -0.00308 0.0
O86 O 0.22754 0.02253 -0.00354 0.0
C87 C 0.23779 0.04748 0.0013 0.0
H88 H 0.19566 0.12384 0.06718 0.0
H89 H 0.1812 0.91075 0.02078 0.0
Co90 Co 0.65975 0.49548 0.33934 0.0
C91 C 0.68039 0.51561 0.50627 0.0
Co92 Co 0.69446 0.53586 0.33761 0.0
C93 C 0.62651 0.43894 0.31036 0.0
C94 C 0.60792 0.45503 0.39196 0.0
N95 N 0.6302 0.46188 0.34534 0.0
N96 N 0.6028 0.41812 0.33333 0.0
C97 C 0.59104 0.42824 0.3844 0.0
H98 H 0.64105 0.4375 0.26975 0.0
H99 H 0.60445 0.46851 0.43135 0.0
C100 C 0.67372 0.5156 0.17072 0.0
N101 N 0.7238 0.56942 0.3323 0.0
C102 C 0.72679 0.58977 0.28144 0.0
C103 C 0.7471 0.57863 0.37499 0.0
N104 N 0.75107 0.61133 0.29015 0.0
C105 C 0.76393 0.60438 0.34913 0.0
C106 C 0.7073 0.49603 0.32427 0.0
O107 O 0.65709 0.49533 0.214 0.0
O108 O 0.69142 0.53556 0.21246 0.0
O109 O 0.71665 0.52091 0.32665 0.0
O110 O 0.68239 0.48072 0.32983 0.0
O111 O 0.69718 0.53578 0.46305 0.0
H112 H 0.75161 0.56726 0.42127 0.0
H113 H 0.71156 0.5885 0.23722 0.0
O114 O 0.66257 0.49576 0.46445 0.0
O115 O 0.6376 0.5108 0.34937 0.0
O116 O 0.6722 0.55072 0.34917 0.0
C117 C 0.64728 0.5357 0.35469 0.0
H118 H 0.57207 0.41694 0.41715 0.0
H119 H 0.78398 0.61702 0.37248 0.0
Co120 Co 0.533 0.17639 0.31286 0.0
C121 C 0.51337 0.1767 0.48094 0.0
Co122 Co 0.49272 0.17107 0.31335 0.0
C123 C 0.58966 0.20007 0.28489 0.0
C124 C 0.57342 0.16454 0.36194 0.0
N125 N 0.56661 0.18031 0.31748 0.0
N126 N 0.61054 0.19722 0.30746 0.0
C127 C 0.60031 0.17479 0.3556 0.0
H128 H 0.59118 0.21648 0.24671 0.0
H129 H 0.55988 0.14719 0.39957 0.0
C130 C 0.51249 0.17079 0.14529 0.0
N131 N 0.4592 0.16707 0.30936 0.0
C132 C 0.43888 0.15031 0.2571 0.0
C133 C 0.45015 0.18102 0.35375 0.0
N134 N 0.4175 0.15332 0.26646 0.0
C135 C 0.42452 0.17264 0.32743 0.0
C136 C 0.53282 0.22362 0.30149 0.0
O137 O 0.53285 0.17416 0.18743 0.0
O138 O 0.49276 0.16868 0.18816 0.0
O139 O 0.50788 0.20828 0.30411 0.0
O140 O 0.54792 0.21377 0.3049 0.0
O141 O 0.49308 0.17352 0.43889 0.0
H142 H 0.46158 0.19652 0.40122 0.0
H143 H 0.44007 0.13667 0.2112 0.0
O144 O 0.53302 0.17864 0.43798 0.0
O145 O 0.51747 0.13891 0.32166 0.0
O146 O 0.47765 0.13389 0.32343 0.0
C147 C 0.49255 0.12383 0.32768 0.0
H148 H 0.61159 0.16698 0.38762 0.0
H149 H 0.41205 0.18015 0.35161 0.0
Co150 Co 0.85273 0.36869 0.30617 0.0
C151 C 0.85271 0.34872 0.47411 0.0
Co152 Co 0.85847 0.334 0.30642 0.0
C153 C 0.82837 0.40134 0.28316 0.0
C154 C 0.86493 0.42106 0.35484 0.0
N155 N 0.84864 0.39828 0.31199 0.0
N156 N 0.83143 0.42509 0.30645 0.0
C157 C 0.8545 0.43755 0.35117 0.0
H158 H 0.81142 0.38625 0.2474 0.0
H159 H 0.88274 0.42508 0.38993 0.0
C160 C 0.85846 0.3541 0.1385 0.0
N161 N 0.86272 0.30468 0.30142 0.0
C162 C 0.87952 0.30142 0.24835 0.0
C163 C 0.84889 0.28152 0.34497 0.0
N164 N 0.87665 0.27708 0.25633 0.0
C165 C 0.85739 0.26449 0.31728 0.0
C166 C 0.80571 0.32107 0.29452 0.0
O167 O 0.85485 0.37092 0.18072 0.0
O168 O 0.86082 0.33664 0.18128 0.0
O169 O 0.82129 0.31177 0.29707 0.0
O170 O 0.8153 0.34599 0.29833 0.0
O171 O 0.85606 0.33173 0.43197 0.0
H172 H 0.83336 0.27718 0.39265 0.0
H173 H 0.89305 0.31643 0.20269 0.0
O174 O 0.85059 0.36631 0.43123 0.0
O175 O 0.89028 0.39083 0.31463 0.0
O176 O 0.89563 0.35626 0.31645 0.0
C177 C 0.90554 0.38119 0.32045 0.0
H178 H 0.86264 0.4567 0.38298 0.0
H179 H 0.84996 0.24443 0.34039 0.0
Co180 Co 0.32929 0.83193 0.66531 0.0
C181 C 0.3499 0.85249 0.83225 0.0
Co182 Co 0.36438 0.8721 0.66354 0.0
C183 C 0.29542 0.77534 0.63877 0.0
C184 C 0.27728 0.7922 0.71895 0.0
N185 N 0.29946 0.79855 0.67241 0.0
N186 N 0.27159 0.75483 0.66249 0.0
C187 C 0.26012 0.76544 0.71267 0.0
H188 H 0.30981 0.77348 0.59863 0.0
H189 H 0.27409 0.806 0.75747 0.0
C190 C 0.34368 0.85141 0.49665 0.0
N191 N 0.39395 0.9055 0.6568 0.0
C192 C 0.39714 0.92542 0.60327 0.0
C193 C 0.41727 0.91489 0.69952 0.0
N194 N 0.42157 0.94687 0.61018 0.0
C195 C 0.43432 0.94031 0.67089 0.0
C196 C 0.3765 0.83169 0.65369 0.0
O197 O 0.32677 0.83131 0.53993 0.0
O198 O 0.36147 0.87129 0.53839 0.0
O199 O 0.38626 0.85665 0.65493 0.0
O200 O 0.35151 0.81675 0.65813 0.0
O201 O 0.36697 0.8725 0.78901 0.0
H202 H 0.42169 0.90382 0.7474 0.0
H203 H 0.38198 0.92387 0.55816 0.0
O204 O 0.33198 0.83271 0.79045 0.0
O205 O 0.30753 0.84766 0.67308 0.0
O206 O 0.3424 0.8874 0.67298 0.0
C207 C 0.31743 0.87258 0.67768 0.0
H208 H 0.24115 0.75449 0.74572 0.0
H209 H 0.45447 0.95296 0.69331 0.0
Co210 Co 0.19937 0.51249 0.646 0.0
C211 C 0.17867 0.5123 0.81298 0.0
Co212 Co 0.1591 0.50722 0.64431 0.0
C213 C 0.25637 0.53618 0.62466 0.0
C214 C 0.239 0.49984 0.69754 0.0
N215 N 0.23287 0.5162 0.65353 0.0
N216 N 0.27684 0.53286 0.64904 0.0
C217 C 0.2659 0.50992 0.69454 0.0
H218 H 0.25849 0.55307 0.58799 0.0
H219 H 0.22497 0.48218 0.73279 0.0
C220 C 0.17994 0.50747 0.47737 0.0
N221 N 0.12562 0.50326 0.6376 0.0
C222 C 0.10559 0.48638 0.58459 0.0
C223 C 0.11626 0.51719 0.68039 0.0
N224 N 0.08408 0.48926 0.59198 0.0
C225 C 0.09073 0.50866 0.6524 0.0
C226 C 0.19943 0.5598 0.63512 0.0
O227 O 0.20012 0.51081 0.52063 0.0
O228 O 0.15996 0.50515 0.51914 0.0
O229 O 0.17446 0.54454 0.63589 0.0
O230 O 0.21443 0.54985 0.63965 0.0
O231 O 0.15866 0.50937 0.76977 0.0
H232 H 0.12739 0.53274 0.72805 0.0
H233 H 0.10708 0.4727 0.53966 0.0
O234 O 0.19847 0.51419 0.77115 0.0
O235 O 0.18372 0.47505 0.65285 0.0
O236 O 0.14388 0.46993 0.65363 0.0
C237 C 0.1588 0.45991 0.65773 0.0
H238 H 0.27667 0.50166 0.72718 0.0
H239 H 0.07805 0.51608 0.67519 0.0
Co240 Co 0.51951 0.70233 0.67974 0.0
C241 C 0.51894 0.68147 0.84655 0.0
Co242 Co 0.52493 0.66746 0.67777 0.0
C243 C 0.49651 0.73602 0.65317 0.0
C244 C 0.53146 0.75419 0.73358 0.0
N245 N 0.51574 0.73205 0.6868 0.0
N246 N 0.4997 0.75977 0.67711 0.0
C247 C 0.52175 0.77126 0.72743 0.0
H248 H 0.4803 0.72163 0.61294 0.0
H249 H 0.54845 0.75743 0.77227 0.0
C250 C 0.52547 0.68843 0.51102 0.0
N251 N 0.52893 0.638 0.67139 0.0
C252 C 0.54593 0.63488 0.61886 0.0
C253 C 0.51492 0.6147 0.71403 0.0
N254 N 0.54304 0.61052 0.62639 0.0
C255 C 0.52353 0.59775 0.68643 0.0
C256 C 0.47234 0.65506 0.66489 0.0
O257 O 0.52199 0.70515 0.55438 0.0
O258 O 0.52759 0.67065 0.55267 0.0
O259 O 0.48773 0.64553 0.66711 0.0
O260 O 0.48211 0.67998 0.67039 0.0
O261 O 0.5222 0.66462 0.80323 0.0
H262 H 0.49926 0.61025 0.76129 0.0
H263 H 0.55969 0.65006 0.57414 0.0
O264 O 0.51701 0.69935 0.80481 0.0
O265 O 0.557 0.72418 0.68961 0.0
O266 O 0.56211 0.68947 0.68909 0.0
C267 C 0.57212 0.71438 0.69478 0.0
H268 H 0.52967 0.79017 0.7607 0.0
H269 H 0.51605 0.57765 0.70918 0.0
H270 H 0.05746 0.30132 0.85404 0.0
H271 H 0.18558 0.433 0.68298 0.0
H272 H 0.13729 0.31538 0.877 0.0
H273 H 0.10668 0.42221 0.68243 0.0
H274 H 0.16752 0.3879 0.73825 0.0
H275 H 0.07452 0.3436 0.77723 0.0
C276 C 0.07856 0.31318 0.84238 0.0
C277 C 0.09597 0.30477 0.87236 0.0
C278 C 0.15412 0.39531 0.72537 0.0
C279 C 0.11568 0.35337 0.78477 0.0
C280 C 0.1644 0.42105 0.69336 0.0
C281 C 0.14764 0.43151 0.67866 0.0
C282 C 0.12688 0.37986 0.74291 0.0
C283 C 0.12036 0.41503 0.69321 0.0
C284 C 0.08831 0.3374 0.79881 0.0
C285 C 0.12317 0.32121 0.85632 0.0
N286 N 0.11086 0.39009 0.72515 0.0
N287 N 0.13218 0.34471 0.81374 0.0
H288 H 0.71527 0.83787 0.9329 0.0
H289 H 0.60991 0.6999 0.71347 0.0
H290 H 0.72823 0.77164 0.90242 0.0
H291 H 0.59858 0.76745 0.73209 0.0
H292 H 0.65455 0.72683 0.77343 0.0
H293 H 0.6733 0.81306 0.85363 0.0
C294 C 0.70927 0.81808 0.90988 0.0
C295 C 0.7253 0.80681 0.92479 0.0
C296 C 0.6424 0.73584 0.76361 0.0
C297 C 0.67733 0.77834 0.83296 0.0
C298 C 0.61692 0.72049 0.72904 0.0
C299 C 0.60038 0.73138 0.71827 0.0
C300 C 0.65139 0.76224 0.78812 0.0
C301 C 0.61058 0.75819 0.73952 0.0
C302 C 0.68538 0.80399 0.86393 0.0
C303 C 0.71668 0.78124 0.89184 0.0
N304 N 0.63532 0.77262 0.77419 0.0
N305 N 0.69324 0.76784 0.84792 0.0
H306 H 0.19193 0.89217 0.89849 0.0
H307 H 0.33202 0.92489 0.6965 0.0
H308 H 0.25838 0.97141 0.87206 0.0
H309 H 0.26401 0.84612 0.70935 0.0
H310 H 0.3046 0.94264 0.75171 0.0
H311 H 0.21747 0.87514 0.82328 0.0
C312 C 0.21192 0.90599 0.87714 0.0
C313 C 0.22304 0.93326 0.89212 0.0
C314 C 0.29561 0.9215 0.74165 0.0
C315 C 0.25238 0.91392 0.80502 0.0
C316 C 0.31124 0.91135 0.70982 0.0
C317 C 0.30035 0.88394 0.69881 0.0
C318 C 0.26892 0.90412 0.76313 0.0
C319 C 0.2733 0.86737 0.7171 0.0
C320 C 0.22644 0.89628 0.83353 0.0
C321 C 0.24889 0.95028 0.86137 0.0
N322 N 0.25859 0.87769 0.74909 0.0
N323 N 0.26272 0.94032 0.81977 0.0
H324 H 0.38298 0.17052 0.2296 0.0
H325 H 0.27541 0.03263 0.0158 0.0
H326 H 0.39519 0.10393 0.19554 0.0
H327 H 0.26489 0.10062 0.03753 0.0
H328 H 0.32056 0.05939 0.07181 0.0
H329 H 0.34056 0.14595 0.15278 0.0
C330 C 0.37673 0.15071 0.20626 0.0
C331 C 0.39265 0.13924 0.21961 0.0
C332 C 0.30847 0.06854 0.06353 0.0
C333 C 0.34415 0.11103 0.1306 0.0
C334 C 0.28269 0.05328 0.03125 0.0
C335 C 0.26625 0.06434 0.02253 0.0
C336 C 0.31786 0.09502 0.08782 0.0
C337 C 0.27681 0.09122 0.04344 0.0
C338 C 0.35258 0.13675 0.16172 0.0
C339 C 0.38371 0.11366 0.18623 0.0
N340 N 0.30184 0.10556 0.0759 0.0
N341 N 0.36001 0.10038 0.14377 0.0
H342 H 0.85951 0.22561 0.21596 0.0
H343 H 0.99748 0.25747 -0.00144 0.0
H344 H 0.926 0.30465 0.18524 0.0
H345 H 0.9293 0.17887 0.01416 0.0
H346 H 0.97065 0.27544 0.05714 0.0
H347 H 0.88405 0.20831 0.13583 0.0
C348 C 0.8793 0.23933 0.19266 0.0
C349 C 0.89074 0.26663 0.20789 0.0
C350 C 0.96148 0.25429 0.04693 0.0
C351 C 0.91891 0.24698 0.11512 0.0
C352 C 0.97677 0.244 0.01316 0.0
C353 C 0.96569 0.21658 0.0021 0.0
C354 C 0.93494 0.23703 0.0704 0.0
C355 C 0.93873 0.20012 0.02197 0.0
C356 C 0.89324 0.22946 0.14622 0.0
C357 C 0.91629 0.28351 0.17452 0.0
N358 N 0.92436 0.21058 0.056 0.0
N359 N 0.92956 0.2734 0.1302 0.0
H360 H 0.85207 0.76557 0.06453 0.0
H361 H 0.72283 0.6331 0.22489 0.0
H362 H 0.77308 0.75448 0.05706 0.0
H363 H 0.80244 0.6468 0.25171 0.0
H364 H 0.74042 0.67576 0.1502 0.0
H365 H 0.83372 0.72027 0.1185 0.0
C366 C 0.83083 0.75352 0.07316 0.0
C367 C 0.81411 0.76393 0.05678 0.0
C368 C 0.75404 0.6694 0.17217 0.0
C369 C 0.793 0.71208 0.11945 0.0
C370 C 0.74399 0.64496 0.21452 0.0
C371 C 0.76118 0.63634 0.24503 0.0
C372 C 0.7815 0.68538 0.15993 0.0
C373 C 0.78848 0.65278 0.23063 0.0
C374 C 0.82037 0.72767 0.1044 0.0
C375 C 0.78674 0.74734 0.0692 0.0
N376 N 0.79778 0.6765 0.18926 0.0
N377 N 0.77707 0.72231 0.10035 0.0
H378 H 0.04924 0.50585 0.55201 0.0
H379 H 0.94364 0.3671 0.33795 0.0
H380 H 0.06249 0.43979 0.52212 0.0
H381 H 0.93192 0.43442 0.35567 0.0
H382 H 0.98851 0.39442 0.39555 0.0
H383 H 0.00714 0.48076 0.47363 0.0
C384 C 0.04329 0.48605 0.52925 0.0
C385 C 0.05942 0.47489 0.54421 0.0
C386 C 0.97623 0.4033 0.38606 0.0
C387 C 0.01128 0.44609 0.45344 0.0
C388 C 0.95061 0.38772 0.35285 0.0
C389 C 0.93389 0.39842 0.34255 0.0
C390 C 0.98519 0.42975 0.40971 0.0
C391 C 0.94405 0.42529 0.36282 0.0
C392 C 0.01932 0.4718 0.48383 0.0
C393 C 0.05086 0.4493 0.51156 0.0
N394 N 0.96894 0.43995 0.39622 0.0
N395 N 0.02734 0.43574 0.46821 0.0
H396 H 0.59254 0.63845 0.55647 0.0
H397 H 0.59397 0.50891 0.38921 0.0
H398 H 0.52659 0.55908 0.58704 0.0
H399 H 0.66165 0.58786 0.37485 0.0
H400 H 0.5675 0.52737 0.44736 0.0
H401 H 0.61674 0.62066 0.47721 0.0
C402 C 0.58304 0.6173 0.546 0.0
C403 C 0.55747 0.60025 0.57888 0.0
C404 C 0.58808 0.54068 0.43078 0.0
C405 C 0.58522 0.57968 0.48849 0.0
C406 C 0.60319 0.53016 0.39711 0.0
C407 C 0.63014 0.54684 0.37766 0.0
C408 C 0.59998 0.56808 0.4452 0.0
C409 C 0.64099 0.57423 0.38933 0.0
C410 C 0.59693 0.60713 0.50099 0.0
C411 C 0.54636 0.57295 0.56419 0.0
N412 N 0.62593 0.58396 0.42293 0.0
N413 N 0.56031 0.56352 0.52024 0.0
H414 H 0.44026 0.08607 0.34652 0.0
H415 H 0.47304 0.98128 0.56894 0.0
H416 H 0.51919 0.09734 0.36444 0.0
H417 H 0.39381 0.96838 0.53883 0.0
H418 H 0.49014 0.0229 0.48774 0.0
H419 H 0.42258 0.04155 0.40706 0.0
C420 C 0.45386 0.07907 0.36202 0.0
C421 C 0.48128 0.09557 0.35095 0.0
C422 C 0.46899 0.0109 0.49852 0.0
C423 C 0.46117 0.04469 0.42154 0.0
C424 C 0.45923 0.98721 0.54556 0.0
C425 C 0.43193 0.97131 0.56123 0.0
C426 C 0.45136 0.01888 0.4672 0.0
C427 C 0.41495 0.97983 0.52776 0.0
C428 C 0.44374 0.05365 0.39694 0.0
C429 C 0.49792 0.08537 0.3721 0.0
N430 N 0.42495 1.00308 0.4828 0.0
N431 N 0.48763 0.0607 0.40719 0.0
H432 H 0.17872 0.14449 0.97007 0.0
H433 H 0.02812 0.11193 0.95089 0.0
H434 H 0.1121 0.06494 0.96151 0.0
H435 H 0.09587 0.191 0.94985 0.0
H436 H 0.05822 0.09404 0.94768 0.0
H437 H 0.1484 0.16165 0.95493 0.0
C438 C 0.15768 0.13063 0.96479 0.0
C439 C 0.14792 0.10326 0.9678 0.0
C440 C 0.06646 0.1153 0.94773 0.0
C441 C 0.11296 0.12274 0.95036 0.0
C442 C 0.0493 0.12553 0.94968 0.0
C443 C 0.05949 0.15302 0.95112 0.0
C444 C 0.09399 0.13269 0.94743 0.0
C445 C 0.08709 0.16968 0.94917 0.0
C446 C 0.14036 0.14042 0.95582 0.0
C447 C 0.12049 0.08618 0.959 0.0
N448 N 0.10334 0.15926 0.94779 0.0
N449 N 0.10393 0.09621 0.95144 0.0
H450 H 0.83777 0.91831 -0.00901 0.0
H451 H 0.96664 0.0624 0.96471 0.0
H452 H 0.91748 0.93125 -0.00425 0.0
H453 H 0.88634 0.04756 0.95879 0.0
H454 H 0.94952 0.01456 0.96675 0.0
H455 H 0.85565 0.96569 -0.02746 0.0
C456 C 0.85908 0.93112 -0.01179 0.0
C457 C 0.87615 0.92077 -0.00467 0.0
C458 C 0.93567 0.0218 0.96445 0.0
C459 C 0.89684 0.97527 -0.02607 0.0
C460 C 0.94543 0.04911 0.96259 0.0
C461 C 0.92787 0.059 0.96229 0.0
C462 C 0.90816 0.00431 0.96587 0.0
C463 C 0.90057 0.04083 0.96059 0.0
C464 C 0.86929 0.95823 -0.02255 0.0
C465 C 0.90359 0.93839 -0.00912 0.0
N466 N 0.89159 0.01443 0.96288 0.0
N467 N 0.91309 0.96481 -0.01931 0.0
H468 H 0.98106 0.85176 -0.00475 0.0
H469 H 0.09902 1.00217 -0.02621 0.0
H470 H 0.96801 0.91828 -0.01237 0.0
H471 H 0.11036 0.93446 0.97079 0.0
H472 H 0.05101 0.97212 0.97149 0.0
H473 H 0.0285 0.88203 -0.02176 0.0
C474 C 0.98821 0.87277 -0.01025 0.0
C475 C 0.97058 0.88252 -0.00637 0.0
C476 C 0.06403 0.96388 0.97089 0.0
C477 C 0.02497 0.91743 -0.02591 0.0
C478 C 0.09144 0.98101 -0.02768 0.0
C479 C 0.10875 0.97081 -0.027 0.0
C480 C 0.05389 0.93638 0.97034 0.0
C481 C 0.09781 0.94324 0.9707 0.0
C482 C 0.0153 0.89006 -0.02029 0.0
C483 C 0.98088 0.90991 -0.01551 0.0
N484 N 0.07112 0.92702 0.96987 0.0
N485 N 0.00745 0.92645 -0.02406 0.0
H486 H 0.76114 0.52373 0.30818 0.0
H487 H 0.77766 0.39553 0.29581 0.0
H488 H 0.69476 0.44391 0.31733 0.0
H489 H 0.8428 0.47595 0.29343 0.0
H490 H 0.74665 0.41233 0.29225 0.0
H491 H 0.79098 0.5061 0.29351 0.0
C492 C 0.7528 0.50245 0.30707 0.0
C493 C 0.72538 0.48528 0.31449 0.0
C494 C 0.76774 0.42628 0.29197 0.0
C495 C 0.7596 0.46487 0.29756 0.0
C496 C 0.78545 0.4167 0.29331 0.0
C497 C 0.81289 0.43439 0.29563 0.0
C498 C 0.77756 0.45373 0.29272 0.0
C499 C 0.82184 0.46163 0.29327 0.0
C500 C 0.76989 0.49238 0.29854 0.0
C501 C 0.71578 0.45788 0.3122 0.0
N502 N 0.80426 0.47043 0.29235 0.0
N503 N 0.73289 0.44851 0.30422 0.0
H504 H 0.5515 0.37972 0.31799 0.0
H505 H 0.58515 0.26263 0.295 0.0
H506 H 0.63132 0.39336 0.30768 0.0
H507 H 0.50579 0.25065 0.29558 0.0
H508 H 0.60275 0.31054 0.29181 0.0
H509 H 0.53463 0.33237 0.30131 0.0
C510 C 0.56548 0.37273 0.31197 0.0
C511 C 0.59284 0.39049 0.31502 0.0
C512 C 0.58149 0.2974 0.29219 0.0
C513 C 0.5737 0.33619 0.29586 0.0
C514 C 0.57143 0.27005 0.29413 0.0
C515 C 0.54395 0.25259 0.29611 0.0
C516 C 0.56394 0.30733 0.29244 0.0
C517 C 0.52711 0.26333 0.29452 0.0
C518 C 0.55585 0.34568 0.30212 0.0
C519 C 0.61008 0.38038 0.30521 0.0
N520 N 0.53738 0.28996 0.29319 0.0
N521 N 0.60022 0.35385 0.29687 0.0
H522 H 0.63466 0.25068 0.28728 0.0
H523 H 0.7795 0.26715 0.28339 0.0
H524 H 0.64986 0.18553 0.29399 0.0
H525 H 0.76601 0.3335 0.28977 0.0
H526 H 0.73185 0.23717 0.27595 0.0
H527 H 0.68237 0.28145 0.27515 0.0
C528 C 0.64798 0.24281 0.28502 0.0
C529 C 0.63826 0.21548 0.29233 0.0
C530 C 0.73925 0.25828 0.27874 0.0
C531 C 0.69285 0.25056 0.27955 0.0
C532 C 0.76651 0.27545 0.28307 0.0
C533 C 0.77679 0.3029 0.28774 0.0
C534 C 0.722 0.26854 0.27923 0.0
C535 C 0.75894 0.31246 0.28666 0.0
C536 C 0.67523 0.2604 0.27876 0.0
C537 C 0.65649 0.20644 0.29006 0.0
N538 N 0.73239 0.29528 0.28284 0.0
N539 N 0.68286 0.22392 0.28424 0.0
H540 H 0.51309 0.81121 0.66359 0.0
H541 H 0.36269 0.77927 0.64768 0.0
H542 H 0.44628 0.7318 0.65358 0.0
H543 H 0.4306 0.85824 0.64704 0.0
H544 H 0.39263 0.76123 0.64308 0.0
H545 H 0.48291 0.82858 0.64995 0.0
C546 C 0.49204 0.79742 0.65827 0.0
C547 C 0.48218 0.77003 0.66049 0.0
C548 C 0.40095 0.7825 0.64354 0.0
C549 C 0.44738 0.78975 0.64481 0.0
C550 C 0.38387 0.79282 0.64631 0.0
C551 C 0.39415 0.82032 0.64822 0.0
C552 C 0.42849 0.79981 0.64289 0.0
C553 C 0.42176 0.83691 0.64599 0.0
C554 C 0.47479 0.80734 0.65018 0.0
C555 C 0.45474 0.75305 0.65168 0.0
N556 N 0.43793 0.8264 0.64381 0.0
N557 N 0.43825 0.76319 0.64501 0.0
H558 H 0.25187 0.59844 0.62983 0.0
H559 H 0.22006 0.71682 0.64904 0.0
H560 H 0.17284 0.5873 0.62908 0.0
H561 H 0.29948 0.72935 0.63833 0.0
H562 H 0.20259 0.6693 0.63447 0.0
H563 H 0.26993 0.64639 0.62635 0.0
C564 C 0.23831 0.60606 0.62866 0.0
C565 C 0.21078 0.58882 0.63021 0.0
C566 C 0.22385 0.6824 0.63475 0.0
C567 C 0.23132 0.64364 0.62621 0.0
C568 C 0.23382 0.70955 0.64339 0.0
C569 C 0.26125 0.72706 0.64564 0.0
C570 C 0.24142 0.67257 0.62885 0.0
C571 C 0.2782 0.71658 0.6364 0.0
C572 C 0.24864 0.63343 0.62654 0.0
C573 C 0.19418 0.59981 0.62828 0.0
N574 N 0.268 0.68998 0.62917 0.0
N575 N 0.20471 0.62649 0.62675 0.0
H576 H 0.44571 0.60121 0.65017 0.0
H577 H 0.30165 0.58655 0.63619 0.0
H578 H 0.43312 0.66813 0.65746 0.0
H579 H 0.31591 0.52076 0.63818 0.0
H580 H 0.34958 0.61704 0.63221 0.0
H581 H 0.39812 0.57177 0.63616 0.0
C582 C 0.43293 0.60975 0.64877 0.0
C583 C 0.44344 0.6372 0.65547 0.0
C584 C 0.34219 0.59592 0.633 0.0
C585 C 0.38871 0.60345 0.6393 0.0
C586 C 0.31483 0.57851 0.63458 0.0
C587 C 0.30477 0.55106 0.63821 0.0
C588 C 0.35956 0.58578 0.63481 0.0
C589 C 0.3228 0.54176 0.63698 0.0
C590 C 0.4057 0.59288 0.64063 0.0
C591 C 0.42586 0.64707 0.65287 0.0
N592 N 0.34926 0.55906 0.63577 0.0
N593 N 0.39933 0.63019 0.64525 0.0
H594 H 0.04289 0.22506 0.69079 0.0
H595 H 0.98038 0.1442 0.24266 0.0
H596 H 0.97666 0.14511 0.68413 0.0
H597 H 0.04774 0.22349 0.24945 0.0
H598 H 0.97869 0.14423 0.40427 0.0
H599 H 0.04456 0.22506 0.52915 0.0
C600 C 0.02861 0.20751 0.65532 0.0
C601 C 0.0096 0.18501 0.70106 0.0
C602 C 0.99388 0.16161 0.37051 0.0
C603 C 0.01151 0.18488 0.51581 0.0
C604 C 0.9949 0.1616 0.27816 0.0
C605 C 0.01424 0.18391 0.23246 0.0
C606 C 0.0123 0.18409 0.41769 0.0
C607 C 0.03251 0.20587 0.28198 0.0
C608 C 0.02963 0.20752 0.56295 0.0
C609 C 0.99162 0.16288 0.65158 0.0
N610 N 0.03105 0.20543 0.37202 0.0
N611 N 0.99306 0.16336 0.56154 0.0
H612 H 0.80433 0.83143 0.7437 0.0
H613 H 0.88641 0.85208 0.29649 0.0
H614 H 0.88464 0.84602 0.73786 0.0
H615 H 0.80667 0.83907 0.30246 0.0
H616 H 0.88611 0.84997 0.45812 0.0
H617 H 0.80462 0.83355 0.58205 0.0
C618 C 0.82201 0.83496 0.7084 0.0
C619 C 0.84453 0.83858 0.75438 0.0
C620 C 0.8687 0.84764 0.42416 0.0
C621 C 0.845 0.84118 0.56917 0.0
C622 C 0.86886 0.84891 0.33181 0.0
C623 C 0.8465 0.84573 0.28586 0.0
C624 C 0.846 0.84311 0.47109 0.0
C625 C 0.82434 0.84164 0.33517 0.0
C626 C 0.82216 0.83623 0.61604 0.0
C627 C 0.86684 0.84309 0.70513 0.0
N628 N 0.82463 0.84038 0.42518 0.0
N629 N 0.86652 0.84432 0.61512 0.0
H630 H 0.18429 0.05475 0.70858 0.0
H631 H 0.19042 0.98113 0.26789 0.0
H632 H 0.1964 0.9875 0.70923 0.0
H633 H 0.17993 0.04937 0.2671 0.0
H634 H 0.19208 0.98277 0.42998 0.0
H635 H 0.18261 0.05309 0.54652 0.0
C636 C 0.18671 0.03972 0.67466 0.0
C637 C 0.19047 0.02123 0.72248 0.0
C638 C 0.18937 0.99735 0.3943 0.0
C639 C 0.18841 0.01911 0.53723 0.0
C640 C 0.18836 0.99638 0.30179 0.0
C641 C 0.18505 0.01514 0.25393 0.0
C642 C 0.18706 0.01723 0.43919 0.0
C643 C 0.18251 0.0345 0.30129 0.0
C644 C 0.18569 0.03874 0.58215 0.0
C645 C 0.19344 1.00215 0.67507 0.0
N646 N 0.18361 0.03505 0.39128 0.0
N647 N 0.1923 1.00156 0.58508 0.0
H648 H 0.71413 0.55528 0.61818 0.0
H649 H 0.64045 0.47562 0.05892 0.0
H650 H 0.64669 0.476 0.61749 0.0
H651 H 0.70689 0.55549 0.05939 0.0
H652 H 0.64237 0.4754 0.89692 0.0
H653 H 0.7122 0.55551 0.7802 0.0
C654 C 0.69901 0.53787 0.65209 0.0
C655 C 0.68054 0.5156 0.60424 0.0
C656 C 0.65648 0.493 0.93248 0.0
C657 C 0.6781 0.51579 0.78949 0.0
C658 C 0.65534 0.49316 0.02496 0.0
C659 C 0.67354 0.51559 0.07275 0.0
C660 C 0.67598 0.51541 0.88751 0.0
C661 C 0.69246 0.53774 0.02527 0.0
C662 C 0.69786 0.53804 0.74458 0.0
C663 C 0.66134 0.49362 0.65165 0.0
N664 N 0.69322 0.53706 0.9353 0.0
N665 N 0.6606 0.49429 0.74162 0.0
H666 H 0.55362 0.18291 0.58951 0.0
H667 H 0.47194 0.16369 0.0366 0.0
H668 H 0.47414 0.1706 0.59535 0.0
H669 H 0.552 0.17757 0.03096 0.0
H670 H 0.47217 0.16554 0.87492 0.0
H671 H 0.55336 0.18099 0.75117 0.0
C672 C 0.53613 0.17992 0.62481 0.0
C673 C 0.51384 0.1769 0.57884 0.0
C674 C 0.48968 0.16814 0.90897 0.0
C675 C 0.51338 0.17452 0.76405 0.0
C676 C 0.48955 0.16702 0.00135 0.0
C677 C 0.51202 0.17052 0.04738 0.0
C678 C 0.51243 0.17279 0.86215 0.0
C679 C 0.53424 0.17476 -0.00182 0.0
C680 C 0.53599 0.17877 0.71717 0.0
C681 C 0.49176 0.17304 0.62809 0.0
N682 N 0.5339 0.17583 0.90816 0.0
N683 N 0.49207 0.17191 0.7181 0.0
H684 H 0.84589 0.38237 0.5825 0.0
H685 H 0.86616 0.32102 0.03001 0.0
H686 H 0.85935 0.316 0.58873 0.0
H687 H 0.85109 0.38637 0.02394 0.0
H688 H 0.86434 0.3193 0.86837 0.0
H689 H 0.84775 0.38412 0.74411 0.0
C690 C 0.84912 0.36807 0.61787 0.0
C691 C 0.85248 0.349 0.57202 0.0
C692 C 0.86148 0.33405 0.90231 0.0
C693 C 0.8548 0.35103 0.75724 0.0
C694 C 0.86257 0.3351 -0.00533 0.0
C695 C 0.85874 0.35387 0.04058 0.0
C696 C 0.85651 0.35188 0.85534 0.0
C697 C 0.85417 0.37159 -0.00874 0.0
C698 C 0.85024 0.36913 0.71023 0.0
C699 C 0.85664 0.33102 0.62138 0.0
N700 N 0.85313 0.37012 0.90123 0.0
N701 N 0.85774 0.33251 0.71141 0.0
H702 H 0.3102 0.81167 0.38443 0.0
H703 H 0.38389 0.89191 0.94452 0.0
H704 H 0.3772 0.89122 0.38588 0.0
H705 H 0.31587 0.81298 0.94297 0.0
H706 H 0.38214 0.89183 0.10664 0.0
H707 H 0.31197 0.81176 0.22235 0.0
C708 C 0.3252 0.82919 0.35068 0.0
C709 C 0.34358 0.85145 0.39872 0.0
C710 C 0.36763 0.87452 0.07078 0.0
C711 C 0.34583 0.85165 0.21347 0.0
C712 C 0.36866 0.87453 -0.02174 0.0
C713 C 0.34999 0.85243 0.93018 0.0
C714 C 0.34779 0.85225 0.11544 0.0
C715 C 0.33068 0.83047 -0.02267 0.0
C716 C 0.32624 0.82921 0.25817 0.0
C717 C 0.36263 0.8736 0.35154 0.0
N718 N 0.33006 0.83096 0.06732 0.0
N719 N 0.36328 0.8731 0.26155 0.0
H720 H 0.13922 0.5068 0.9253 0.0
H721 H 0.21977 0.51392 0.36511 0.0
H722 H 0.21824 0.51786 0.92363 0.0
H723 H 0.14003 0.50097 0.36664 0.0
H724 H 0.21963 0.51552 0.20303 0.0
H725 H 0.13936 0.50523 0.08742 0.0
C726 C 0.15663 0.509 0.95901 0.0
C727 C 0.17874 0.51244 0.9109 0.0
C728 C 0.20215 0.51227 0.23887 0.0
C729 C 0.17899 0.51055 0.09616 0.0
C730 C 0.2022 0.5113 0.33138 0.0
C731 C 0.17989 0.50733 0.37945 0.0
C732 C 0.17964 0.50928 0.19419 0.0
C733 C 0.15769 0.5041 0.33229 0.0
C734 C 0.15668 0.50804 0.05153 0.0
C735 C 0.20075 0.51516 0.95801 0.0
N736 N 0.15815 0.5052 0.2423 0.0
N737 N 0.2003 0.51412 0.04801 0.0
H738 H 0.51884 0.72168 0.39899 0.0
H739 H 0.52485 0.64778 0.95866 0.0
H740 H 0.53216 0.6552 0.3999 0.0
H741 H 0.51305 0.71521 0.95759 0.0
H742 H 0.52698 0.64978 0.12072 0.0
H743 H 0.51674 0.71969 0.23696 0.0
C744 C 0.52147 0.70677 0.36513 0.0
C745 C 0.52566 0.68857 0.41304 0.0
C746 C 0.52386 0.6641 0.08499 0.0
C747 C 0.52309 0.68605 0.22779 0.0
C748 C 0.52256 0.66291 -0.00751 0.0
C749 C 0.51878 0.68136 0.94453 0.0
C750 C 0.52137 0.68388 0.12978 0.0
C751 C 0.516 0.70057 -0.00817 0.0
C752 C 0.52019 0.70558 0.27264 0.0
C753 C 0.52887 0.66962 0.36569 0.0
N754 N 0.5174 0.70136 0.08179 0.0
N755 N 0.52745 0.66882 0.27572 0.0
loop_
_geom_bond_atom_site_label_1
_geom_bond_atom_site_label_2
_geom_bond_distance
_geom_bond_site_symmetry_2
_ccdc_geom_bond_type
Co0 N5 2.057 . S
Co0 O17 2.021 1_554 S
Co0 O20 2.062 1_654 S
Co0 O24 2.117 1_655 S
Co0 O25 2.020 . S
C1 O21 1.259 . S
C1 O24 1.258 . S
Co2 N11 2.057 1_554 S
Co2 O18 2.117 1_554 S
Co2 O19 2.020 1_554 S
Co2 O21 2.021 . S
Co2 O26 2.062 . S
C3 N5 1.316 1_556 S
C3 N6 1.347 1_556 S
C3 H8 0.931 . S
C4 N5 1.375 . S
C4 C7 1.350 . S
C4 H9 0.930 . S
N5 Co0 2.057 . S
N5 C3 1.316 1_554 S
N5 C4 1.375 . S
N6 C3 1.347 1_554 S
N6 C7 1.373 . S
C7 C4 1.350 . S
C7 N6 1.373 . S
C7 H28 0.931 . S
H8 C3 0.931 . S
H9 C4 0.930 . S
C10 O17 1.259 1_455 S
C10 O18 1.258 . S
N11 Co2 2.057 1_556 S
N11 C12 1.316 1_556 S
N11 C13 1.375 . S
C12 N11 1.316 1_554 S
C12 N14 1.347 1_554 S
C12 H23 0.931 . S
C13 N11 1.375 . S
C13 C15 1.350 . S
C13 H22 0.930 . S
N14 C12 1.347 1_556 S
N14 C15 1.373 . S
C15 C13 1.350 . S
C15 N14 1.373 . S
C15 H29 0.931 . S
C16 O19 1.256 . S
C16 O20 1.255 . S
O17 Co0 2.021 1_556 S
O17 C10 1.259 1_655 S
O18 Co2 2.117 1_556 S
O18 C10 1.258 . S
O19 Co2 2.020 1_556 S
O19 C16 1.256 . S
O20 Co0 2.062 1_456 S
O20 C16 1.255 . S
O21 C1 1.259 . S
O21 Co2 2.021 . S
H22 C13 0.930 . S
H23 C12 0.931 . S
O24 Co0 2.117 1_455 S
O24 C1 1.258 . S
O25 Co0 2.020 . S
O25 C27 1.256 . S
O26 Co2 2.062 . S
O26 C27 1.255 1_455 S
C27 O25 1.256 . S
C27 O26 1.255 1_655 S
H28 C7 0.931 . S
H29 C15 0.931 . S
Co30 N35 2.057 . S
Co30 O47 2.021 1_554 S
Co30 O50 2.062 1_554 S
Co30 O54 2.117 . S
Co30 O55 2.020 . S
C31 O51 1.259 . S
C31 O54 1.258 . S
Co32 N41 2.057 1_554 S
Co32 O48 2.117 1_554 S
Co32 O49 2.020 1_554 S
Co32 O51 2.021 . S
Co32 O56 2.062 . S
C33 N35 1.316 1_556 S
C33 N36 1.347 1_556 S
C33 H38 0.931 . S
C34 N35 1.375 . S
C34 C37 1.350 . S
C34 H39 0.930 . S
N35 Co30 2.057 . S
N35 C33 1.316 1_554 S
N35 C34 1.375 . S
N36 C33 1.347 1_554 S
N36 C37 1.373 . S
C37 C34 1.350 . S
C37 N36 1.373 . S
C37 H58 0.931 . S
H38 C33 0.931 . S
H39 C34 0.930 . S
C40 O47 1.259 . S
C40 O48 1.258 . S
N41 Co32 2.057 1_556 S
N41 C42 1.316 1_556 S
N41 C43 1.375 . S
C42 N41 1.316 1_554 S
C42 N44 1.347 1_554 S
C42 H53 0.931 . S
C43 N41 1.375 . S
C43 C45 1.350 . S
C43 H52 0.930 . S
N44 C42 1.347 1_556 S
N44 C45 1.373 . S
C45 C43 1.350 . S
C45 N44 1.373 . S
C45 H59 0.931 . S
C46 O49 1.256 . S
C46 O50 1.255 . S
O47 Co30 2.021 1_556 S
O47 C40 1.259 . S
O48 Co32 2.117 1_556 S
O48 C40 1.258 . S
O49 Co32 2.020 1_556 S
O49 C46 1.256 . S
O50 Co30 2.062 1_556 S
O50 C46 1.255 . S
O51 C31 1.259 . S
O51 Co32 2.021 . S
H52 C43 0.930 . S
H53 C42 0.931 . S
O54 Co30 2.117 . S
O54 C31 1.258 . S
O55 Co30 2.020 . S
O55 C57 1.256 . S
O56 Co32 2.062 . S
O56 C57 1.255 . S
C57 O55 1.256 . S
C57 O56 1.255 . S
H58 C37 0.931 . S
H59 C45 0.931 . S
Co60 N65 2.057 . S
Co60 O77 2.021 1_554 S
Co60 O80 2.062 1_554 S
Co60 O84 2.117 . S
Co60 O85 2.020 . S
C61 O81 1.259 1_545 S
C61 O84 1.258 . S
Co62 N71 2.057 1_554 S
Co62 O78 2.117 1_564 S
Co62 O79 2.020 1_554 S
Co62 O81 2.021 . S
Co62 O86 2.062 1_565 S
C63 N65 1.316 1_556 S
C63 N66 1.347 1_556 S
C63 H68 0.931 . S
C64 N65 1.375 . S
C64 C67 1.350 . S
C64 H69 0.930 . S
N65 Co60 2.057 . S
N65 C63 1.316 1_554 S
N65 C64 1.375 . S
N66 C63 1.347 1_554 S
N66 C67 1.373 . S
C67 C64 1.350 . S
C67 N66 1.373 . S
C67 H88 0.931 . S
H68 C63 0.931 . S
H69 C64 0.930 . S
C70 O77 1.259 . S
C70 O78 1.258 . S
N71 Co62 2.057 1_556 S
N71 C72 1.316 1_556 S
N71 C73 1.375 . S
C72 N71 1.316 1_554 S
C72 N74 1.347 1_554 S
C72 H83 0.931 . S
C73 N71 1.375 . S
C73 C75 1.350 . S
C73 H82 0.930 . S
N74 C72 1.347 1_556 S
N74 C75 1.373 . S
C75 C73 1.350 . S
C75 N74 1.373 . S
C75 H89 0.931 . S
C76 O79 1.256 . S
C76 O80 1.255 1_565 S
O77 Co60 2.021 1_556 S
O77 C70 1.259 . S
O78 Co62 2.117 1_546 S
O78 C70 1.258 . S
O79 Co62 2.020 1_556 S
O79 C76 1.256 . S
O80 Co60 2.062 1_556 S
O80 C76 1.255 1_545 S
O81 C61 1.259 1_565 S
O81 Co62 2.021 . S
H82 C73 0.930 . S
H83 C72 0.931 . S
O84 Co60 2.117 . S
O84 C61 1.258 . S
O85 Co60 2.020 . S
O85 C87 1.256 . S
O86 Co62 2.062 1_545 S
O86 C87 1.255 . S
C87 O85 1.256 . S
C87 O86 1.255 . S
H88 C67 0.931 . S
H89 C75 0.931 . S
Co90 N95 2.057 . S
Co90 O107 2.021 . S
Co90 O110 2.062 . S
Co90 O114 2.117 . S
Co90 O115 2.020 . S
C91 O111 1.259 . S
C91 O114 1.258 . S
Co92 N101 2.057 . S
Co92 O108 2.117 . S
Co92 O109 2.020 . S
Co92 O111 2.021 . S
Co92 O116 2.062 . S
C93 N95 1.316 . S
C93 N96 1.347 . S
C93 H98 0.931 . S
C94 N95 1.375 . S
C94 C97 1.350 . S
C94 H99 0.930 . S
N95 Co90 2.057 . S
N95 C93 1.316 . S
N95 C94 1.375 . S
N96 C93 1.347 . S
N96 C97 1.373 . S
C97 C94 1.350 . S
C97 N96 1.373 . S
C97 H118 0.931 . S
H98 C93 0.931 . S
H99 C94 0.930 . S
C100 O107 1.259 . S
C100 O108 1.258 . S
N101 Co92 2.057 . S
N101 C102 1.316 . S
N101 C103 1.375 . S
C102 N101 1.316 . S
C102 N104 1.347 . S
C102 H113 0.931 . S
C103 N101 1.375 . S
C103 C105 1.350 . S
C103 H112 0.930 . S
N104 C102 1.347 . S
N104 C105 1.373 . S
C105 C103 1.350 . S
C105 N104 1.373 . S
C105 H119 0.931 . S
C106 O109 1.256 . S
C106 O110 1.255 . S
O107 Co90 2.021 . S
O107 C100 1.259 . S
O108 Co92 2.117 . S
O108 C100 1.258 . S
O109 Co92 2.020 . S
O109 C106 1.256 . S
O110 Co90 2.062 . S
O110 C106 1.255 . S
O111 C91 1.259 . S
O111 Co92 2.021 . S
H112 C103 0.930 . S
H113 C102 0.931 . S
O114 Co90 2.117 . S
O114 C91 1.258 . S
O115 Co90 2.020 . S
O115 C117 1.256 . S
O116 Co92 2.062 . S
O116 C117 1.255 . S
C117 O115 1.256 . S
C117 O116 1.255 . S
H118 C97 0.931 . S
H119 C105 0.931 . S
Co120 N125 2.057 . S
Co120 O137 2.021 . S
Co120 O140 2.062 . S
Co120 O144 2.117 . S
Co120 O145 2.020 . S
C121 O141 1.259 . S
C121 O144 1.258 . S
Co122 N131 2.057 . S
Co122 O138 2.117 . S
Co122 O139 2.020 . S
Co122 O141 2.021 . S
Co122 O146 2.062 . S
C123 N125 1.316 . S
C123 N126 1.347 . S
C123 H128 0.931 . S
C124 N125 1.375 . S
C124 C127 1.350 . S
C124 H129 0.930 . S
N125 Co120 2.057 . S
N125 C123 1.316 . S
N125 C124 1.375 . S
N126 C123 1.347 . S
N126 C127 1.373 . S
C127 C124 1.350 . S
C127 N126 1.373 . S
C127 H148 0.931 . S
H128 C123 0.931 . S
H129 C124 0.930 . S
C130 O137 1.259 . S
C130 O138 1.258 . S
N131 Co122 2.057 . S
N131 C132 1.316 . S
N131 C133 1.375 . S
C132 N131 1.316 . S
C132 N134 1.347 . S
C132 H143 0.931 . S
C133 N131 1.375 . S
C133 C135 1.350 . S
C133 H142 0.930 . S
N134 C132 1.347 . S
N134 C135 1.373 . S
C135 C133 1.350 . S
C135 N134 1.373 . S
C135 H149 0.931 . S
C136 O139 1.256 . S
C136 O140 1.255 . S
O137 Co120 2.021 . S
O137 C130 1.259 . S
O138 Co122 2.117 . S
O138 C130 1.258 . S
O139 Co122 2.020 . S
O139 C136 1.256 . S
O140 Co120 2.062 . S
O140 C136 1.255 . S
O141 C121 1.259 . S
O141 Co122 2.021 . S
H142 C133 0.930 . S
H143 C132 0.931 . S
O144 Co120 2.117 . S
O144 C121 1.258 . S
O145 Co120 2.020 . S
O145 C147 1.256 . S
O146 Co122 2.062 . S
O146 C147 1.255 . S
C147 O145 1.256 . S
C147 O146 1.255 . S
H148 C127 0.931 . S
H149 C135 0.931 . S
Co150 N155 2.057 . S
Co150 O167 2.021 . S
Co150 O170 2.062 . S
Co150 O174 2.117 . S
Co150 O175 2.020 . S
C151 O171 1.259 . S
C151 O174 1.258 . S
Co152 N161 2.057 . S
Co152 O168 2.117 . S
Co152 O169 2.020 . S
Co152 O171 2.021 . S
Co152 O176 2.062 . S
C153 N155 1.316 . S
C153 N156 1.347 . S
C153 H158 0.931 . S
C154 N155 1.375 . S
C154 C157 1.350 . S
C154 H159 0.930 . S
N155 Co150 2.057 . S
N155 C153 1.316 . S
N155 C154 1.375 . S
N156 C153 1.347 . S
N156 C157 1.373 . S
C157 C154 1.350 . S
C157 N156 1.373 . S
C157 H178 0.931 . S
H158 C153 0.931 . S
H159 C154 0.930 . S
C160 O167 1.259 . S
C160 O168 1.258 . S
N161 Co152 2.057 . S
N161 C162 1.316 . S
N161 C163 1.375 . S
C162 N161 1.316 . S
C162 N164 1.347 . S
C162 H173 0.931 . S
C163 N161 1.375 . S
C163 C165 1.350 . S
C163 H172 0.930 . S
N164 C162 1.347 . S
N164 C165 1.373 . S
C165 C163 1.350 . S
C165 N164 1.373 . S
C165 H179 0.931 . S
C166 O169 1.256 . S
C166 O170 1.255 . S
O167 Co150 2.021 . S
O167 C160 1.259 . S
O168 Co152 2.117 . S
O168 C160 1.258 . S
O169 Co152 2.020 . S
O169 C166 1.256 . S
O170 Co150 2.062 . S
O170 C166 1.255 . S
O171 C151 1.259 . S
O171 Co152 2.021 . S
H172 C163 0.930 . S
H173 C162 0.931 . S
O174 Co150 2.117 . S
O174 C151 1.258 . S
O175 Co150 2.020 . S
O175 C177 1.256 . S
O176 Co152 2.062 . S
O176 C177 1.255 . S
C177 O175 1.256 . S
C177 O176 1.255 . S
H178 C157 0.931 . S
H179 C165 0.931 . S
Co180 N185 2.057 . S
Co180 O197 2.021 . S
Co180 O200 2.062 . S
Co180 O204 2.117 . S
Co180 O205 2.020 . S
C181 O201 1.259 . S
C181 O204 1.258 . S
Co182 N191 2.057 . S
Co182 O198 2.117 . S
Co182 O199 2.020 . S
Co182 O201 2.021 . S
Co182 O206 2.062 . S
C183 N185 1.316 . S
C183 N186 1.347 . S
C183 H188 0.931 . S
C184 N185 1.375 . S
C184 C187 1.350 . S
C184 H189 0.930 . S
N185 Co180 2.057 . S
N185 C183 1.316 . S
N185 C184 1.375 . S
N186 C183 1.347 . S
N186 C187 1.373 . S
C187 C184 1.350 . S
C187 N186 1.373 . S
C187 H208 0.931 . S
H188 C183 0.931 . S
H189 C184 0.930 . S
C190 O197 1.259 . S
C190 O198 1.258 . S
N191 Co182 2.057 . S
N191 C192 1.316 . S
N191 C193 1.375 . S
C192 N191 1.316 . S
C192 N194 1.347 . S
C192 H203 0.931 . S
C193 N191 1.375 . S
C193 C195 1.350 . S
C193 H202 0.930 . S
N194 C192 1.347 . S
N194 C195 1.373 . S
C195 C193 1.350 . S
C195 N194 1.373 . S
C195 H209 0.931 . S
C196 O199 1.256 . S
C196 O200 1.255 . S
O197 Co180 2.021 . S
O197 C190 1.259 . S
O198 Co182 2.117 . S
O198 C190 1.258 . S
O199 Co182 2.020 . S
O199 C196 1.256 . S
O200 Co180 2.062 . S
O200 C196 1.255 . S
O201 C181 1.259 . S
O201 Co182 2.021 . S
H202 C193 0.930 . S
H203 C192 0.931 . S
O204 Co180 2.117 . S
O204 C181 1.258 . S
O205 Co180 2.020 . S
O205 C207 1.256 . S
O206 Co182 2.062 . S
O206 C207 1.255 . S
C207 O205 1.256 . S
C207 O206 1.255 . S
H208 C187 0.931 . S
H209 C195 0.931 . S
Co210 N215 2.057 . S
Co210 O227 2.021 . S
Co210 O230 2.062 . S
Co210 O234 2.117 . S
Co210 O235 2.020 . S
C211 O231 1.259 . S
C211 O234 1.258 . S
Co212 N221 2.057 . S
Co212 O228 2.117 . S
Co212 O229 2.020 . S
Co212 O231 2.021 . S
Co212 O236 2.062 . S
C213 N215 1.316 . S
C213 N216 1.347 . S
C213 H218 0.931 . S
C214 N215 1.375 . S
C214 C217 1.350 . S
C214 H219 0.930 . S
N215 Co210 2.057 . S
N215 C213 1.316 . S
N215 C214 1.375 . S
N216 C213 1.347 . S
N216 C217 1.373 . S
C217 C214 1.350 . S
C217 N216 1.373 . S
C217 H238 0.931 . S
H218 C213 0.931 . S
H219 C214 0.930 . S
C220 O227 1.259 . S
C220 O228 1.258 . S
N221 Co212 2.057 . S
N221 C222 1.316 . S
N221 C223 1.375 . S
C222 N221 1.316 . S
C222 N224 1.347 . S
C222 H233 0.931 . S
C223 N221 1.375 . S
C223 C225 1.350 . S
C223 H232 0.930 . S
N224 C222 1.347 . S
N224 C225 1.373 . S
C225 C223 1.350 . S
C225 N224 1.373 . S
C225 H239 0.931 . S
C226 O229 1.256 . S
C226 O230 1.255 . S
O227 Co210 2.021 . S
O227 C220 1.259 . S
O228 Co212 2.117 . S
O228 C220 1.258 . S
O229 Co212 2.020 . S
O229 C226 1.256 . S
O230 Co210 2.062 . S
O230 C226 1.255 . S
O231 C211 1.259 . S
O231 Co212 2.021 . S
H232 C223 0.930 . S
H233 C222 0.931 . S
O234 Co210 2.117 . S
O234 C211 1.258 . S
O235 Co210 2.020 . S
O235 C237 1.256 . S
O236 Co212 2.062 . S
O236 C237 1.255 . S
C237 O235 1.256 . S
C237 O236 1.255 . S
H238 C217 0.931 . S
H239 C225 0.931 . S
Co240 N245 2.057 . S
Co240 O257 2.021 . S
Co240 O260 2.062 . S
Co240 O264 2.117 . S
Co240 O265 2.020 . S
C241 O261 1.259 . S
C241 O264 1.258 . S
Co242 N251 2.057 . S
Co242 O258 2.117 . S
Co242 O259 2.020 . S
Co242 O261 2.021 . S
Co242 O266 2.062 . S
C243 N245 1.316 . S
C243 N246 1.347 . S
C243 H248 0.931 . S
C244 N245 1.375 . S
C244 C247 1.350 . S
C244 H249 0.930 . S
N245 Co240 2.057 . S
N245 C243 1.316 . S
N245 C244 1.375 . S
N246 C243 1.347 . S
N246 C247 1.373 . S
C247 C244 1.350 . S
C247 N246 1.373 . S
C247 H268 0.931 . S
H248 C243 0.931 . S
H249 C244 0.930 . S
C250 O257 1.259 . S
C250 O258 1.258 . S
N251 Co242 2.057 . S
N251 C252 1.316 . S
N251 C253 1.375 . S
C252 N251 1.316 . S
C252 N254 1.347 . S
C252 H263 0.931 . S
C253 N251 1.375 . S
C253 C255 1.350 . S
C253 H262 0.930 . S
N254 C252 1.347 . S
N254 C255 1.373 . S
C255 C253 1.350 . S
C255 N254 1.373 . S
C255 H269 0.931 . S
C256 O259 1.256 . S
C256 O260 1.255 . S
O257 Co240 2.021 . S
O257 C250 1.259 . S
O258 Co242 2.117 . S
O258 C250 1.258 . S
O259 Co242 2.020 . S
O259 C256 1.256 . S
O260 Co240 2.062 . S
O260 C256 1.255 . S
O261 C241 1.259 . S
O261 Co242 2.021 . S
H262 C253 0.930 . S
H263 C252 0.931 . S
O264 Co240 2.117 . S
O264 C241 1.258 . S
O265 Co240 2.020 . S
O265 C267 1.256 . S
O266 Co242 2.062 . S
O266 C267 1.255 . S
C267 O265 1.256 . S
C267 O266 1.255 . S
H268 C247 0.931 . S
H269 C255 0.931 . S
H270 C276 0.930 . S
H271 C280 0.930 . S
H272 C285 0.929 1_554 S
H273 C283 0.929 . S
H274 C278 0.929 . S
H275 C284 0.929 . S
C276 H270 0.930 . S
C276 C277 1.367 . S
C276 C284 1.378 . S
C277 C276 1.367 . S
C277 C285 1.433 . S
C278 H274 0.929 . S
C278 C280 1.378 . S
C278 C282 1.350 . S
C279 C282 1.463 . S
C279 C284 1.350 . S
C279 N287 1.427 . S
C280 H271 0.930 . S
C280 C278 1.378 . S
C280 C281 1.367 . S
C281 C280 1.367 . S
C281 C283 1.433 . S
C282 C278 1.350 . S
C282 C279 1.463 . S
C282 N286 1.427 . S
C283 H273 0.929 . S
C283 C281 1.433 . S
C283 N286 1.384 . S
C284 H275 0.929 . S
C284 C276 1.378 . S
C284 C279 1.350 . S
C285 H272 0.929 1_556 S
C285 C277 1.433 . S
C285 N287 1.384 . S
N286 C282 1.427 . S
N286 C283 1.384 . S
N287 C279 1.427 . S
N287 C285 1.384 . S
H288 C294 0.930 . S
H289 C298 0.930 . S
H290 C303 0.929 . S
H291 C301 0.929 . S
H292 C296 0.929 . S
H293 C302 0.929 . S
C294 H288 0.930 . S
C294 C295 1.367 1_554 S
C294 C302 1.378 1_554 S
C295 C294 1.367 1_556 S
C295 C303 1.433 . S
C296 H292 0.929 . S
C296 C298 1.378 . S
C296 C300 1.350 . S
C297 C300 1.463 . S
C297 C302 1.350 . S
C297 N305 1.427 . S
C298 H289 0.930 . S
C298 C296 1.378 . S
C298 C299 1.367 . S
C299 C298 1.367 . S
C299 C301 1.433 . S
C300 C296 1.350 . S
C300 C297 1.463 . S
C300 N304 1.427 . S
C301 H291 0.929 . S
C301 C299 1.433 . S
C301 N304 1.384 . S
C302 H293 0.929 . S
C302 C294 1.378 1_556 S
C302 C297 1.350 . S
C303 H290 0.929 . S
C303 C295 1.433 . S
C303 N305 1.384 . S
N304 C300 1.427 . S
N304 C301 1.384 . S
N305 C297 1.427 . S
N305 C303 1.384 . S
H306 C312 0.930 1_554 S
H307 C316 0.930 . S
H308 C321 0.929 . S
H309 C319 0.929 . S
H310 C314 0.929 . S
H311 C320 0.929 . S
C312 H306 0.930 1_556 S
C312 C313 1.367 . S
C312 C320 1.378 . S
C313 C312 1.367 . S
C313 C321 1.433 . S
C314 H310 0.929 . S
C314 C316 1.378 . S
C314 C318 1.350 . S
C315 C318 1.463 . S
C315 C320 1.350 . S
C315 N323 1.427 . S
C316 H307 0.930 . S
C316 C314 1.378 . S
C316 C317 1.367 . S
C317 C316 1.367 . S
C317 C319 1.433 . S
C318 C314 1.350 . S
C318 C315 1.463 . S
C318 N322 1.427 . S
C319 H309 0.929 . S
C319 C317 1.433 . S
C319 N322 1.384 . S
C320 H311 0.929 . S
C320 C312 1.378 . S
C320 C315 1.350 . S
C321 H308 0.929 . S
C321 C313 1.433 . S
C321 N323 1.384 . S
N322 C318 1.427 . S
N322 C319 1.384 . S
N323 C315 1.427 . S
N323 C321 1.384 . S
H324 C330 0.930 . S
H325 C334 0.930 . S
H326 C339 0.929 . S
H327 C337 0.929 . S
H328 C332 0.929 . S
H329 C338 0.929 . S
C330 H324 0.930 . S
C330 C331 1.367 . S
C330 C338 1.378 . S
C331 C330 1.367 . S
C331 C339 1.433 . S
C332 H328 0.929 . S
C332 C334 1.378 . S
C332 C336 1.350 . S
C333 C336 1.463 . S
C333 C338 1.350 . S
C333 N341 1.427 . S
C334 H325 0.930 . S
C334 C332 1.378 . S
C334 C335 1.367 . S
C335 C334 1.367 . S
C335 C337 1.433 . S
C336 C332 1.350 . S
C336 C333 1.463 . S
C336 N340 1.427 . S
C337 H327 0.929 . S
C337 C335 1.433 . S
C337 N340 1.384 . S
C338 H329 0.929 . S
C338 C330 1.378 . S
C338 C333 1.350 . S
C339 H326 0.929 . S
C339 C331 1.433 . S
C339 N341 1.384 . S
N340 C336 1.427 . S
N340 C337 1.384 . S
N341 C333 1.427 . S
N341 C339 1.384 . S
H342 C348 0.930 . S
H343 C352 0.930 . S
H344 C357 0.929 . S
H345 C355 0.929 . S
H346 C350 0.929 . S
H347 C356 0.929 . S
C348 H342 0.930 . S
C348 C349 1.367 . S
C348 C356 1.378 . S
C349 C348 1.367 . S
C349 C357 1.433 . S
C350 H346 0.929 . S
C350 C352 1.378 . S
C350 C354 1.350 . S
C351 C354 1.463 . S
C351 C356 1.350 . S
C351 N359 1.427 . S
C352 H343 0.930 . S
C352 C350 1.378 . S
C352 C353 1.367 . S
C353 C352 1.367 . S
C353 C355 1.433 . S
C354 C350 1.350 . S
C354 C351 1.463 . S
C354 N358 1.427 . S
C355 H345 0.929 . S
C355 C353 1.433 . S
C355 N358 1.384 . S
C356 H347 0.929 . S
C356 C348 1.378 . S
C356 C351 1.350 . S
C357 H344 0.929 . S
C357 C349 1.433 . S
C357 N359 1.384 . S
N358 C354 1.427 . S
N358 C355 1.384 . S
N359 C351 1.427 . S
N359 C357 1.384 . S
H360 C366 0.930 1_556 S
H361 C370 0.930 . S
H362 C375 0.929 . S
H363 C373 0.929 . S
H364 C368 0.929 . S
H365 C374 0.929 . S
C366 H360 0.930 1_554 S
C366 C367 1.367 . S
C366 C374 1.378 . S
C367 C366 1.367 . S
C367 C375 1.433 . S
C368 H364 0.929 . S
C368 C370 1.378 . S
C368 C372 1.350 . S
C369 C372 1.463 . S
C369 C374 1.350 . S
C369 N377 1.427 . S
C370 H361 0.930 . S
C370 C368 1.378 . S
C370 C371 1.367 . S
C371 C370 1.367 . S
C371 C373 1.433 . S
C372 C368 1.350 . S
C372 C369 1.463 . S
C372 N376 1.427 . S
C373 H363 0.929 . S
C373 C371 1.433 . S
C373 N376 1.384 . S
C374 H365 0.929 . S
C374 C366 1.378 . S
C374 C369 1.350 . S
C375 H362 0.929 . S
C375 C367 1.433 . S
C375 N377 1.384 . S
N376 C372 1.427 . S
N376 C373 1.384 . S
N377 C369 1.427 . S
N377 C375 1.384 . S
H378 C384 0.930 . S
H379 C388 0.930 . S
H380 C393 0.929 . S
H381 C391 0.929 . S
H382 C386 0.929 . S
H383 C392 0.921 1_655 S
C384 H378 0.930 . S
C384 C385 1.367 . S
C384 C392 1.384 . S
C385 C384 1.367 . S
C385 C393 1.433 . S
C386 H382 0.929 . S
C386 C388 1.378 . S
C386 C390 1.350 . S
C387 C390 1.463 . S
C387 C392 1.352 1_655 S
C387 N395 1.427 1_655 S
C388 H379 0.930 . S
C388 C386 1.378 . S
C388 C389 1.367 . S
C389 C388 1.367 . S
C389 C391 1.433 . S
C390 C386 1.350 . S
C390 C387 1.463 . S
C390 N394 1.427 . S
C391 H381 0.929 . S
C391 C389 1.433 . S
C391 N394 1.384 . S
C392 H383 0.921 1_455 S
C392 C384 1.384 . S
C392 C387 1.352 1_455 S
C393 H380 0.929 . S
C393 C385 1.433 . S
C393 N395 1.384 . S
N394 C390 1.427 . S
N394 C391 1.384 . S
N395 C387 1.427 1_455 S
N395 C393 1.384 . S
H396 C402 0.930 . S
H397 C406 0.930 . S
H398 C411 0.929 . S
H399 C409 0.929 . S
H400 C404 0.929 . S
H401 C410 0.929 . S
C402 H396 0.930 . S
C402 C403 1.367 . S
C402 C410 1.378 . S
C403 C402 1.367 . S
C403 C411 1.433 . S
C404 H400 0.929 . S
C404 C406 1.378 . S
C404 C408 1.350 . S
C405 C408 1.463 . S
C405 C410 1.350 . S
C405 N413 1.427 . S
C406 H397 0.930 . S
C406 C404 1.378 . S
C406 C407 1.367 . S
C407 C406 1.367 . S
C407 C409 1.433 . S
C408 C404 1.350 . S
C408 C405 1.463 . S
C408 N412 1.427 . S
C409 H399 0.929 . S
C409 C407 1.433 . S
C409 N412 1.384 . S
C410 H401 0.929 . S
C410 C402 1.378 . S
C410 C405 1.350 . S
C411 H398 0.929 . S
C411 C403 1.433 . S
C411 N413 1.384 . S
N412 C408 1.427 . S
N412 C409 1.384 . S
N413 C405 1.427 . S
N413 C411 1.384 . S
H414 C420 0.930 . S
H415 C424 0.930 . S
H416 C429 0.929 . S
H417 C427 0.930 . S
H418 C422 0.929 . S
H419 C428 0.929 . S
C420 H414 0.930 . S
C420 C421 1.367 . S
C420 C428 1.378 . S
C421 C420 1.367 . S
C421 C429 1.433 . S
C422 H418 0.929 . S
C422 C424 1.378 1_545 S
C422 C426 1.350 . S
C423 C426 1.463 . S
C423 C428 1.350 . S
C423 N431 1.427 . S
C424 H415 0.930 . S
C424 C422 1.378 1_565 S
C424 C425 1.367 . S
C425 C424 1.367 . S
C425 C427 1.433 1_565 S
C426 C422 1.350 . S
C426 C423 1.463 . S
C426 N430 1.427 . S
C427 H417 0.930 . S
C427 C425 1.433 1_545 S
C427 N430 1.384 . S
C428 H419 0.929 . S
C428 C420 1.378 . S
C428 C423 1.350 . S
C429 H416 0.929 . S
C429 C421 1.433 . S
C429 N431 1.384 . S
N430 C426 1.427 . S
N430 C427 1.384 . S
N431 C423 1.427 . S
N431 C429 1.384 . S
H432 C438 0.930 . S
H433 C442 0.930 . S
H434 C447 0.929 . S
H435 C445 0.929 . S
H436 C440 0.929 . S
H437 C446 0.929 . S
C438 H432 0.930 . S
C438 C439 1.367 . S
C438 C446 1.378 . S
C439 C438 1.367 . S
C439 C447 1.433 1_554 S
C440 H436 0.929 . S
C440 C442 1.378 . S
C440 C444 1.350 1_556 S
C441 C444 1.463 . S
C441 C446 1.350 . S
C441 N449 1.427 1_554 S
C442 H433 0.930 . S
C442 C440 1.378 . S
C442 C443 1.367 . S
C443 C442 1.367 . S
C443 C445 1.433 1_556 S
C444 C440 1.350 1_554 S
C444 C441 1.463 . S
C444 N448 1.427 . S
C445 H435 0.929 . S
C445 C443 1.433 1_554 S
C445 N448 1.384 . S
C446 H437 0.929 . S
C446 C438 1.378 . S
C446 C441 1.350 . S
C447 H434 0.929 . S
C447 C439 1.433 1_556 S
C447 N449 1.384 . S
N448 C444 1.427 . S
N448 C445 1.384 . S
N449 C441 1.427 1_556 S
N449 C447 1.384 . S
H450 C456 0.930 . S
H451 C460 0.930 . S
H452 C465 0.929 . S
H453 C463 0.929 . S
H454 C458 0.919 1_565 S
H455 C464 0.929 . S
C456 H450 0.930 . S
C456 C457 1.367 . S
C456 C464 1.378 . S
C457 C456 1.367 . S
C457 C465 1.433 1_556 S
C458 H454 0.919 1_545 S
C458 C460 1.378 . S
C458 C462 1.350 1_545 S
C459 C462 1.463 . S
C459 C464 1.350 1_554 S
C459 N467 1.427 . S
C460 H451 0.930 . S
C460 C458 1.378 . S
C460 C461 1.367 . S
C461 C460 1.367 . S
C461 C463 1.433 1_554 S
C462 C458 1.350 1_565 S
C462 C459 1.463 . S
C462 N466 1.427 1_564 S
C463 H453 0.929 . S
C463 C461 1.433 1_556 S
C463 N466 1.384 . S
C464 H455 0.929 . S
C464 C456 1.378 . S
C464 C459 1.350 1_556 S
C465 H452 0.929 . S
C465 C457 1.433 1_554 S
C465 N467 1.384 . S
N466 C462 1.427 1_546 S
N466 C463 1.384 . S
N467 C459 1.427 . S
N467 C465 1.384 . S
H468 C474 0.930 . S
H469 C478 0.930 . S
H470 C483 0.929 . S
H471 C481 0.929 . S
H472 C476 0.929 . S
H473 C482 0.929 . S
C474 H468 0.930 . S
C474 C475 1.367 . S
C474 C482 1.378 1_655 S
C475 C474 1.367 . S
C475 C483 1.433 1_554 S
C476 H472 0.929 . S
C476 C478 1.378 . S
C476 C480 1.350 1_556 S
C477 C480 1.463 . S
C477 C482 1.350 . S
C477 N485 1.427 1_554 S
C478 H469 0.930 . S
C478 C476 1.378 . S
C478 C479 1.367 . S
C479 C478 1.367 . S
C479 C481 1.433 1_556 S
C480 C476 1.350 1_554 S
C480 C477 1.463 . S
C480 N484 1.427 . S
C481 H471 0.929 . S
C481 C479 1.433 1_554 S
C481 N484 1.384 . S
C482 H473 0.929 . S
C482 C474 1.378 1_455 S
C482 C477 1.350 . S
C483 H470 0.929 . S
C483 C475 1.433 1_556 S
C483 N485 1.384 1_655 S
N484 C480 1.427 . S
N484 C481 1.384 . S
N485 C477 1.427 1_556 S
N485 C483 1.384 1_455 S
H486 C492 0.930 . S
H487 C496 0.930 . S
H488 C501 0.929 . S
H489 C499 0.929 . S
H490 C494 0.929 . S
H491 C500 0.929 . S
C492 H486 0.930 . S
C492 C493 1.367 . S
C492 C500 1.378 . S
C493 C492 1.367 . S
C493 C501 1.433 . S
C494 H490 0.929 . S
C494 C496 1.378 . S
C494 C498 1.350 . S
C495 C498 1.463 . S
C495 C500 1.350 . S
C495 N503 1.427 . S
C496 H487 0.930 . S
C496 C494 1.378 . S
C496 C497 1.367 . S
C497 C496 1.367 . S
C497 C499 1.433 . S
C498 C494 1.350 . S
C498 C495 1.463 . S
C498 N502 1.427 . S
C499 H489 0.929 . S
C499 C497 1.433 . S
C499 N502 1.384 . S
C500 H491 0.929 . S
C500 C492 1.378 . S
C500 C495 1.350 . S
C501 H488 0.929 . S
C501 C493 1.433 . S
C501 N503 1.384 . S
N502 C498 1.427 . S
N502 C499 1.384 . S
N503 C495 1.427 . S
N503 C501 1.384 . S
H504 C510 0.930 . S
H505 C514 0.930 . S
H506 C519 0.929 . S
H507 C517 0.929 . S
H508 C512 0.929 . S
H509 C518 0.929 . S
C510 H504 0.930 . S
C510 C511 1.367 . S
C510 C518 1.378 . S
C511 C510 1.367 . S
C511 C519 1.433 . S
C512 H508 0.929 . S
C512 C514 1.378 . S
C512 C516 1.350 . S
C513 C516 1.463 . S
C513 C518 1.350 . S
C513 N521 1.427 . S
C514 H505 0.930 . S
C514 C512 1.378 . S
C514 C515 1.367 . S
C515 C514 1.367 . S
C515 C517 1.433 . S
C516 C512 1.350 . S
C516 C513 1.463 . S
C516 N520 1.427 . S
C517 H507 0.929 . S
C517 C515 1.433 . S
C517 N520 1.384 . S
C518 H509 0.929 . S
C518 C510 1.378 . S
C518 C513 1.350 . S
C519 H506 0.929 . S
C519 C511 1.433 . S
C519 N521 1.384 . S
N520 C516 1.427 . S
N520 C517 1.384 . S
N521 C513 1.427 . S
N521 C519 1.384 . S
H522 C528 0.930 . S
H523 C532 0.930 . S
H524 C537 0.929 . S
H525 C535 0.929 . S
H526 C530 0.929 . S
H527 C536 0.929 . S
C528 H522 0.930 . S
C528 C529 1.367 . S
C528 C536 1.378 . S
C529 C528 1.367 . S
C529 C537 1.433 . S
C530 H526 0.929 . S
C530 C532 1.378 . S
C530 C534 1.350 . S
C531 C534 1.463 . S
C531 C536 1.350 . S
C531 N539 1.427 . S
C532 H523 0.930 . S
C532 C530 1.378 . S
C532 C533 1.367 . S
C533 C532 1.367 . S
C533 C535 1.433 . S
C534 C530 1.350 . S
C534 C531 1.463 . S
C534 N538 1.427 . S
C535 H525 0.929 . S
C535 C533 1.433 . S
C535 N538 1.384 . S
C536 H527 0.929 . S
C536 C528 1.378 . S
C536 C531 1.350 . S
C537 H524 0.929 . S
C537 C529 1.433 . S
C537 N539 1.384 . S
N538 C534 1.427 . S
N538 C535 1.384 . S
N539 C531 1.427 . S
N539 C537 1.384 . S
H540 C546 0.930 . S
H541 C550 0.930 . S
H542 C555 0.929 . S
H543 C553 0.929 . S
H544 C548 0.929 . S
H545 C554 0.929 . S
C546 H540 0.930 . S
C546 C547 1.367 . S
C546 C554 1.378 . S
C547 C546 1.367 . S
C547 C555 1.433 . S
C548 H544 0.929 . S
C548 C550 1.378 . S
C548 C552 1.350 . S
C549 C552 1.463 . S
C549 C554 1.350 . S
C549 N557 1.427 . S
C550 H541 0.930 . S
C550 C548 1.378 . S
C550 C551 1.367 . S
C551 C550 1.367 . S
C551 C553 1.433 . S
C552 C548 1.350 . S
C552 C549 1.463 . S
C552 N556 1.427 . S
C553 H543 0.929 . S
C553 C551 1.433 . S
C553 N556 1.384 . S
C554 H545 0.929 . S
C554 C546 1.378 . S
C554 C549 1.350 . S
C555 H542 0.929 . S
C555 C547 1.433 . S
C555 N557 1.384 . S
N556 C552 1.427 . S
N556 C553 1.384 . S
N557 C549 1.427 . S
N557 C555 1.384 . S
H558 C564 0.930 . S
H559 C568 0.930 . S
H560 C573 0.929 . S
H561 C571 0.929 . S
H562 C566 0.929 . S
H563 C572 0.929 . S
C564 H558 0.930 . S
C564 C565 1.367 . S
C564 C572 1.378 . S
C565 C564 1.367 . S
C565 C573 1.433 . S
C566 H562 0.929 . S
C566 C568 1.378 . S
C566 C570 1.350 . S
C567 C570 1.463 . S
C567 C572 1.350 . S
C567 N575 1.427 . S
C568 H559 0.930 . S
C568 C566 1.378 . S
C568 C569 1.367 . S
C569 C568 1.367 . S
C569 C571 1.433 . S
C570 C566 1.350 . S
C570 C567 1.463 . S
C570 N574 1.427 . S
C571 H561 0.929 . S
C571 C569 1.433 . S
C571 N574 1.384 . S
C572 H563 0.929 . S
C572 C564 1.378 . S
C572 C567 1.350 . S
C573 H560 0.929 . S
C573 C565 1.433 . S
C573 N575 1.384 . S
N574 C570 1.427 . S
N574 C571 1.384 . S
N575 C567 1.427 . S
N575 C573 1.384 . S
H576 C582 0.930 . S
H577 C586 0.930 . S
H578 C591 0.929 . S
H579 C589 0.929 . S
H580 C584 0.929 . S
H581 C590 0.929 . S
C582 H576 0.930 . S
C582 C583 1.367 . S
C582 C590 1.378 . S
C583 C582 1.367 . S
C583 C591 1.433 . S
C584 H580 0.929 . S
C584 C586 1.378 . S
C584 C588 1.350 . S
C585 C588 1.463 . S
C585 C590 1.350 . S
C585 N593 1.427 . S
C586 H577 0.930 . S
C586 C584 1.378 . S
C586 C587 1.367 . S
C587 C586 1.367 . S
C587 C589 1.433 . S
C588 C584 1.350 . S
C588 C585 1.463 . S
C588 N592 1.427 . S
C589 H579 0.929 . S
C589 C587 1.433 . S
C589 N592 1.384 . S
C590 H581 0.929 . S
C590 C582 1.378 . S
C590 C585 1.350 . S
C591 H578 0.929 . S
C591 C583 1.433 . S
C591 N593 1.384 . S
N592 C588 1.427 . S
N592 C589 1.384 . S
N593 C585 1.427 . S
N593 C591 1.384 . S
H594 C600 0.930 . S
H595 C604 0.930 . S
H596 C609 0.929 . S
H597 C607 0.929 . S
H598 C602 0.929 . S
H599 C608 0.929 . S
C600 H594 0.930 . S
C600 C601 1.367 . S
C600 C608 1.378 . S
C601 C600 1.367 . S
C601 C609 1.433 1_455 S
C602 H598 0.929 . S
C602 C604 1.378 . S
C602 C606 1.350 1_655 S
C603 C606 1.463 . S
C603 C608 1.350 . S
C603 N611 1.427 1_455 S
C604 H595 0.930 . S
C604 C602 1.378 . S
C604 C605 1.367 1_655 S
C605 C604 1.367 1_455 S
C605 C607 1.433 . S
C606 C602 1.350 1_455 S
C606 C603 1.463 . S
C606 N610 1.427 . S
C607 H597 0.929 . S
C607 C605 1.433 . S
C607 N610 1.384 . S
C608 H599 0.929 . S
C608 C600 1.378 . S
C608 C603 1.350 . S
C609 H596 0.929 . S
C609 C601 1.433 1_655 S
C609 N611 1.384 . S
N610 C606 1.427 . S
N610 C607 1.384 . S
N611 C603 1.427 1_655 S
N611 C609 1.384 . S
H612 C618 0.930 . S
H613 C622 0.930 . S
H614 C627 0.929 . S
H615 C625 0.929 . S
H616 C620 0.929 . S
H617 C626 0.929 . S
C618 H612 0.930 . S
C618 C619 1.367 . S
C618 C626 1.378 . S
C619 C618 1.367 . S
C619 C627 1.433 . S
C620 H616 0.929 . S
C620 C622 1.378 . S
C620 C624 1.350 . S
C621 C624 1.463 . S
C621 C626 1.350 . S
C621 N629 1.427 . S
C622 H613 0.930 . S
C622 C620 1.378 . S
C622 C623 1.367 . S
C623 C622 1.367 . S
C623 C625 1.433 . S
C624 C620 1.350 . S
C624 C621 1.463 . S
C624 N628 1.427 . S
C625 H615 0.929 . S
C625 C623 1.433 . S
C625 N628 1.384 . S
C626 H617 0.929 . S
C626 C618 1.378 . S
C626 C621 1.350 . S
C627 H614 0.929 . S
C627 C619 1.433 . S
C627 N629 1.384 . S
N628 C624 1.427 . S
N628 C625 1.384 . S
N629 C621 1.427 . S
N629 C627 1.384 . S
H630 C636 0.930 . S
H631 C640 0.930 . S
H632 C645 0.929 . S
H633 C643 0.929 . S
H634 C638 0.929 . S
H635 C644 0.929 . S
C636 H630 0.930 . S
C636 C637 1.367 . S
C636 C644 1.378 . S
C637 C636 1.367 . S
C637 C645 1.433 1_545 S
C638 H634 0.929 . S
C638 C640 1.378 . S
C638 C642 1.350 1_565 S
C639 C642 1.463 . S
C639 C644 1.350 . S
C639 N647 1.427 1_545 S
C640 H631 0.930 . S
C640 C638 1.378 . S
C640 C641 1.367 1_565 S
C641 C640 1.367 1_545 S
C641 C643 1.433 . S
C642 C638 1.350 1_545 S
C642 C639 1.463 . S
C642 N646 1.427 . S
C643 H633 0.929 . S
C643 C641 1.433 . S
C643 N646 1.384 . S
C644 H635 0.929 . S
C644 C636 1.378 . S
C644 C639 1.350 . S
C645 H632 0.929 . S
C645 C637 1.433 1_565 S
C645 N647 1.384 . S
N646 C642 1.427 . S
N646 C643 1.384 . S
N647 C639 1.427 1_565 S
N647 C645 1.384 . S
H648 C654 0.930 . S
H649 C658 0.930 . S
H650 C663 0.929 . S
H651 C661 0.929 . S
H652 C656 0.929 . S
H653 C662 0.929 . S
C654 H648 0.930 . S
C654 C655 1.367 . S
C654 C662 1.378 . S
C655 C654 1.367 . S
C655 C663 1.433 . S
C656 H652 0.929 . S
C656 C658 1.378 1_556 S
C656 C660 1.350 . S
C657 C660 1.463 . S
C657 C662 1.350 . S
C657 N665 1.427 . S
C658 H649 0.930 . S
C658 C656 1.378 1_554 S
C658 C659 1.367 . S
C659 C658 1.367 . S
C659 C661 1.433 . S
C660 C656 1.350 . S
C660 C657 1.463 . S
C660 N664 1.427 . S
C661 H651 0.929 . S
C661 C659 1.433 . S
C661 N664 1.384 1_554 S
C662 H653 0.929 . S
C662 C654 1.378 . S
C662 C657 1.350 . S
C663 H650 0.929 . S
C663 C655 1.433 . S
C663 N665 1.384 . S
N664 C660 1.427 . S
N664 C661 1.384 1_556 S
N665 C657 1.427 . S
N665 C663 1.384 . S
H666 C672 0.930 . S
H667 C676 0.930 . S
H668 C681 0.929 . S
H669 C679 0.929 . S
H670 C674 0.929 . S
H671 C680 0.929 . S
C672 H666 0.930 . S
C672 C673 1.367 . S
C672 C680 1.378 . S
C673 C672 1.367 . S
C673 C681 1.433 . S
C674 H670 0.929 . S
C674 C676 1.378 1_556 S
C674 C678 1.350 . S
C675 C678 1.463 . S
C675 C680 1.350 . S
C675 N683 1.427 . S
C676 H667 0.930 . S
C676 C674 1.378 1_554 S
C676 C677 1.367 . S
C677 C676 1.367 . S
C677 C679 1.433 . S
C678 C674 1.350 . S
C678 C675 1.463 . S
C678 N682 1.427 . S
C679 H669 0.929 . S
C679 C677 1.433 . S
C679 N682 1.384 1_554 S
C680 H671 0.929 . S
C680 C672 1.378 . S
C680 C675 1.350 . S
C681 H668 0.929 . S
C681 C673 1.433 . S
C681 N683 1.384 . S
N682 C678 1.427 . S
N682 C679 1.384 1_556 S
N683 C675 1.427 . S
N683 C681 1.384 . S
H684 C690 0.930 . S
H685 C694 0.930 . S
H686 C699 0.929 . S
H687 C697 0.929 . S
H688 C692 0.929 . S
H689 C698 0.929 . S
C690 H684 0.930 . S
C690 C691 1.367 . S
C690 C698 1.378 . S
C691 C690 1.367 . S
C691 C699 1.433 . S
C692 H688 0.929 . S
C692 C694 1.378 1_556 S
C692 C696 1.350 . S
C693 C696 1.463 . S
C693 C698 1.350 . S
C693 N701 1.427 . S
C694 H685 0.930 . S
C694 C692 1.378 1_554 S
C694 C695 1.367 . S
C695 C694 1.367 . S
C695 C697 1.433 . S
C696 C692 1.350 . S
C696 C693 1.463 . S
C696 N700 1.427 . S
C697 H687 0.929 . S
C697 C695 1.433 . S
C697 N700 1.384 1_554 S
C698 H689 0.929 . S
C698 C690 1.378 . S
C698 C693 1.350 . S
C699 H686 0.929 . S
C699 C691 1.433 . S
C699 N701 1.384 . S
N700 C696 1.427 . S
N700 C697 1.384 1_556 S
N701 C693 1.427 . S
N701 C699 1.384 . S
H702 C708 0.930 . S
H703 C712 0.930 . S
H704 C717 0.929 . S
H705 C715 0.929 . S
H706 C710 0.929 . S
H707 C716 0.929 . S
C708 H702 0.930 . S
C708 C709 1.367 . S
C708 C716 1.378 . S
C709 C708 1.367 . S
C709 C717 1.433 . S
C710 H706 0.929 . S
C710 C712 1.378 1_554 S
C710 C714 1.350 . S
C711 C714 1.463 . S
C711 C716 1.350 . S
C711 N719 1.427 . S
C712 H703 0.930 . S
C712 C710 1.378 1_556 S
C712 C713 1.367 . S
C713 C712 1.367 . S
C713 C715 1.433 . S
C714 C710 1.350 . S
C714 C711 1.463 . S
C714 N718 1.427 . S
C715 H705 0.929 . S
C715 C713 1.433 . S
C715 N718 1.384 1_556 S
C716 H707 0.929 . S
C716 C708 1.378 . S
C716 C711 1.350 . S
C717 H704 0.929 . S
C717 C709 1.433 . S
C717 N719 1.384 . S
N718 C714 1.427 . S
N718 C715 1.384 1_554 S
N719 C711 1.427 . S
N719 C717 1.384 . S
H720 C726 0.930 . S
H721 C730 0.930 . S
H722 C735 0.929 . S
H723 C733 0.929 . S
H724 C728 0.929 . S
H725 C734 0.929 . S
C726 H720 0.930 . S
C726 C727 1.367 . S
C726 C734 1.378 1_556 S
C727 C726 1.367 . S
C727 C735 1.433 . S
C728 H724 0.929 . S
C728 C730 1.378 . S
C728 C732 1.350 . S
C729 C732 1.463 . S
C729 C734 1.350 . S
C729 N737 1.427 . S
C730 H721 0.930 . S
C730 C728 1.378 . S
C730 C731 1.367 . S
C731 C730 1.367 . S
C731 C733 1.433 . S
C732 C728 1.350 . S
C732 C729 1.463 . S
C732 N736 1.427 . S
C733 H723 0.929 . S
C733 C731 1.433 . S
C733 N736 1.384 . S
C734 H725 0.929 . S
C734 C726 1.378 1_554 S
C734 C729 1.350 . S
C735 H722 0.929 . S
C735 C727 1.433 . S
C735 N737 1.384 1_556 S
N736 C732 1.427 . S
N736 C733 1.384 . S
N737 C729 1.427 . S
N737 C735 1.384 1_554 S
H738 C744 0.930 . S
H739 C748 0.930 . S
H740 C753 0.929 . S
H741 C751 0.929 . S
H742 C746 0.929 . S
H743 C752 0.929 . S
C744 H738 0.930 . S
C744 C745 1.367 . S
C744 C752 1.378 . S
C745 C744 1.367 . S
C745 C753 1.433 . S
C746 H742 0.929 . S
C746 C748 1.378 1_554 S
C746 C750 1.350 . S
C747 C750 1.463 . S
C747 C752 1.350 . S
C747 N755 1.427 . S
C748 H739 0.930 . S
C748 C746 1.378 1_556 S
C748 C749 1.367 . S
C749 C748 1.367 . S
C749 C751 1.433 . S
C750 C746 1.350 . S
C750 C747 1.463 . S
C750 N754 1.427 . S
C751 H741 0.929 . S
C751 C749 1.433 . S
C751 N754 1.384 1_556 S
C752 H743 0.929 . S
C752 C744 1.378 . S
C752 C747 1.350 . S
C753 H740 0.929 . S
C753 C745 1.433 . S
C753 N755 1.384 . S
N754 C750 1.427 . S
N754 C751 1.384 1_554 S
N755 C747 1.427 . S
N755 C753 1.384 . S
C277 N14 1.355 . S
C281 C237 1.456 . S
C295 N44 1.375 . S
C299 C267 1.464 . S
C313 N74 1.371 . S
C317 C207 1.462 . S
C331 N134 1.370 . S
C335 C87 1.461 . S
C349 N164 1.366 . S
C353 C27 1.459 . S
C367 C57 1.465 . S
C371 N104 1.373 . S
C385 N224 1.369 . S
C389 C177 1.460 . S
C403 N254 1.366 . S
C407 C117 1.463 . S
C421 C147 1.454 . S
C425 N194 1.355 . S
C439 N66 1.182 . S
C443 C16 1.189 . S
C457 C46 1.192 . S
C461 N6 1.179 . S
C475 N36 1.179 . S
C479 C76 1.191 . S
C493 C106 1.192 . S
C497 N156 1.179 . S
C511 N96 1.180 . S
C515 C136 1.190 . S
C529 N126 1.187 . S
C533 C166 1.188 . S
C547 N246 1.183 . S
C551 C196 1.187 . S
C565 C226 1.185 . S
C569 N186 1.187 . S
C583 C256 1.192 . S
C587 N216 1.181 . S
C601 C10 1.101 . S
C605 C1 1.101 . S
C619 C40 1.102 . S
C623 C31 1.102 . S
C637 C70 1.104 . S
C641 C61 1.104 . S
C655 C91 1.102 . S
C659 C100 1.102 . S
C673 C121 1.103 . S
C677 C130 1.103 . S
C691 C151 1.102 . S
C695 C160 1.102 . S
C709 C190 1.101 . S
C713 C181 1.101 . S
C727 C211 1.103 . S
C731 C220 1.103 . S
C745 C250 1.101 . S
C749 C241 1.101 . S
