# Generated by pormake.
# Topology yfx, (5)-cn, num edge types: 1
# Building blocks:
#     Node 0, Type 0, BuildingBlock: BEQFEK_clean_sbu_0, # of connection points: 5
#     Node 1, Type 0, BuildingBlock: BEQFEK_clean_sbu_0, # of connection points: 5
#     Node 2, Type 0, BuildingBlock: BEQFEK_clean_sbu_0, # of connection points: 5
#     Node 3, Type 0, BuildingBlock: BEQFEK_clean_sbu_0, # of connection points: 5
#     Node 4, Type 0, BuildingBlock: BEQFEK_clean_sbu_0, # of connection points: 5
#     Node 5, Type 0, BuildingBlock: BEQFEK_clean_sbu_0, # of connection points: 5
#     Node 6, Type 0, BuildingBlock: BEQFEK_clean_sbu_0, # of connection points: 5
#     Node 7, Type 0, BuildingBlock: BEQFEK_clean_sbu_0, # of connection points: 5
#     Edge 8, Type (0, 0), BuildingBlock: XUDNAN_clean_linker_2, # of connection points: 2
#     Edge 9, Type (0, 0), BuildingBlock: XUDNAN_clean_linker_2, # of connection points: 2
#     Edge 10, Type (0, 0), BuildingBlock: XUDNAN_clean_linker_2, # of connection points: 2
#     Edge 11, Type (0, 0), BuildingBlock: XUDNAN_clean_linker_2, # of connection points: 2
#     Edge 12, Type (0, 0), BuildingBlock: XUDNAN_clean_linker_2, # of connection points: 2
#     Edge 13, Type (0, 0), BuildingBlock: XUDNAN_clean_linker_2, # of connection points: 2
#     Edge 14, Type (0, 0), BuildingBlock: XUDNAN_clean_linker_2, # of connection points: 2
#     Edge 15, Type (0, 0), BuildingBlock: XUDNAN_clean_linker_2, # of connection points: 2
#     Edge 16, Type (0, 0), BuildingBlock: XUDNAN_clean_linker_2, # of connection points: 2
#     Edge 17, Type (0, 0), BuildingBlock: XUDNAN_clean_linker_2, # of connection points: 2
#     Edge 18, Type (0, 0), BuildingBlock: XUDNAN_clean_linker_2, # of connection points: 2
#     Edge 19, Type (0, 0), BuildingBlock: XUDNAN_clean_linker_2, # of connection points: 2
#     Edge 20, Type (0, 0), BuildingBlock: XUDNAN_clean_linker_2, # of connection points: 2
#     Edge 21, Type (0, 0), BuildingBlock: XUDNAN_clean_linker_2, # of connection points: 2
#     Edge 22, Type (0, 0), BuildingBlock: XUDNAN_clean_linker_2, # of connection points: 2
#     Edge 23, Type (0, 0), BuildingBlock: XUDNAN_clean_linker_2, # of connection points: 2
#     Edge 24, Type (0, 0), BuildingBlock: XUDNAN_clean_linker_2, # of connection points: 2
#     Edge 25, Type (0, 0), BuildingBlock: XUDNAN_clean_linker_2, # of connection points: 2
#     Edge 26, Type (0, 0), BuildingBlock: XUDNAN_clean_linker_2, # of connection points: 2
#     Edge 27, Type (0, 0), BuildingBlock: XUDNAN_clean_linker_2, # of connection points: 2
# Relax obj value: 0.162
# Max RMSD: 0.152
# Mean RMSD: 0.152
data_MOF--net-yfx--node1-BEQFEK_clean_sbu_0--edge1-XUDNAN_clean_linker_2
_symmetry_space_group_name_H-M    P1
_symmetry_Int_Tables_number       1
_symmetry_cell_setting            triclinic
loop_
_symmetry_equiv_pos_as_xyz
'x, y, z'
_cell_length_a     39.551682
_cell_length_b     39.704152
_cell_length_c     22.299439
_cell_angle_alpha  90.095342
_cell_angle_beta   89.984319
_cell_angle_gamma 90.138222
loop_
_atom_site_label
_atom_site_type_symbol
_atom_site_fract_x
_atom_site_fract_y
_atom_site_fract_z
_atom_type_partial_charge
Co0 Co 0.26768 0.35336 0.05133 0.0
Co1 Co 0.19216 0.37866 0.06292 0.0
C2 C 0.21809 0.33854 0.95614 0.0
O3 O 0.24754 0.33772 0.97844 0.0
O4 O 0.19327 0.35286 0.98289 0.0
C5 C 0.32525 0.31348 0.03446 0.0
O6 O 0.30287 0.29315 0.0101 0.0
C7 C 0.12939 0.42022 0.03858 0.0
C8 C 0.10875 0.42273 0.13035 0.0
C9 C 0.10303 0.4343 0.07257 0.0
N10 N 0.14947 0.40193 0.07526 0.0
N11 N 0.13662 0.40348 0.12985 0.0
C12 C 0.13527 0.42313 0.97254 0.0
H13 H 0.15316 0.40353 0.95697 0.0
H14 H 0.14637 0.44813 0.96227 0.0
H15 H 0.11099 0.42061 0.94796 0.0
C16 C 0.28173 0.4251 0.05929 0.0
N17 N 0.25973 0.39936 0.05977 0.0
N18 N 0.22865 0.41084 0.06517 0.0
C19 C 0.23019 0.44475 0.06981 0.0
C20 C 0.26387 0.45477 0.06623 0.0
C21 C 0.31866 0.42111 0.04615 0.0
H22 H 0.33169 0.41205 0.0871 0.0
H23 H 0.32219 0.40202 0.01035 0.0
H24 H 0.33042 0.44508 0.0314 0.0
O25 O 0.25003 0.32887 0.11847 0.0
O26 O 0.19784 0.34724 0.13402 0.0
H27 H 0.18335 0.4561 0.11358 0.0
H28 H 0.20812 0.49268 0.09404 0.0
C29 C 0.20029 0.46713 0.07924 0.0
H30 H 0.1861 0.46934 0.03661 0.0
H31 H 0.14735 0.39196 0.16724 0.0
O32 O 0.31605 0.34235 0.05269 0.0
C33 C 0.22285 0.32863 0.14821 0.0
Co34 Co 0.64345 0.266 0.94248 0.0
Co35 Co 0.63874 0.18682 0.93953 0.0
C36 C 0.65445 0.23131 0.82935 0.0
O37 O 0.64851 0.25816 0.85825 0.0
O38 O 0.65322 0.2023 0.85467 0.0
C39 C 0.66575 0.33246 0.93082 0.0
O40 O 0.68146 0.31931 0.88449 0.0
C41 C 0.59982 0.12478 0.90676 0.0
C42 C 0.61737 0.08915 0.97576 0.0
C43 C 0.59402 0.0925 0.92973 0.0
N44 N 0.6249 0.13964 0.93848 0.0
N45 N 0.63558 0.11782 0.97889 0.0
C46 C 0.57953 0.14274 0.86017 0.0
H47 H 0.58325 0.17039 0.86389 0.0
H48 H 0.55229 0.13643 0.86464 0.0
H49 H 0.5881 0.13456 0.81507 0.0
C50 C 0.57674 0.26032 0.99356 0.0
N51 N 0.60441 0.24597 0.97034 0.0
N52 N 0.60143 0.21296 0.97122 0.0
C53 C 0.57135 0.20534 0.99705 0.0
C54 C 0.555 0.23514 0.01189 0.0
C55 C 0.57085 0.29756 0.9951 0.0
H56 H 0.58507 0.30861 0.03328 0.0
H57 H 0.58037 0.30916 0.95312 0.0
H58 H 0.54364 0.30364 0.00024 0.0
O59 O 0.68263 0.24868 0.98424 0.0
O60 O 0.67953 0.19317 0.99462 0.0
H61 H 0.58074 0.15453 0.02514 0.0
H62 H 0.54028 0.17118 0.0483 0.0
C63 C 0.55922 0.1706 0.01157 0.0
H64 H 0.54695 0.15951 0.97147 0.0
H65 H 0.65414 0.12315 0.01088 0.0
O66 O 0.64535 0.31436 0.96071 0.0
C67 C 0.69451 0.22128 0.0041 0.0
Co68 Co 0.74218 0.65089 0.02767 0.0
Co69 Co 0.81757 0.63776 0.06766 0.0
C70 C 0.79997 0.69014 0.97744 0.0
O71 O 0.76913 0.68296 0.98483 0.0
O72 O 0.82342 0.67433 0.00471 0.0
C73 C 0.68951 0.67132 0.94976 0.0
O74 O 0.7145 0.67648 0.91205 0.0
C75 C 0.88472 0.60572 0.05112 0.0
C76 C 0.90108 0.5982 0.14467 0.0
C77 C 0.91023 0.59126 0.08583 0.0
N78 N 0.86168 0.61995 0.08792 0.0
N79 N 0.87199 0.61576 0.14374 0.0
C80 C 0.88019 0.60311 0.98467 0.0
H81 H 0.85353 0.60819 0.97214 0.0
H82 H 0.88776 0.57777 0.96849 0.0
H83 H 0.89651 0.62213 0.96246 0.0
C84 C 0.74317 0.57956 0.0025 0.0
N85 N 0.75927 0.60798 0.01801 0.0
N86 N 0.78955 0.60098 0.03909 0.0
C87 C 0.79298 0.56709 0.03963 0.0
C88 C 0.76397 0.55271 0.01547 0.0
C89 C 0.70688 0.57822 0.98356 0.0
H90 H 0.69076 0.58745 0.02085 0.0
H91 H 0.70306 0.59523 0.94475 0.0
H92 H 0.6989 0.55232 0.97117 0.0
O93 O 0.74206 0.66293 0.11186 0.0
O94 O 0.79572 0.65927 0.14128 0.0
H95 H 0.82953 0.56167 0.11008 0.0
H96 H 0.81418 0.52225 0.07959 0.0
C97 C 0.82151 0.54852 0.06857 0.0
H98 H 0.84317 0.54751 0.03715 0.0
H99 H 0.85843 0.6236 0.18134 0.0
O100 O 0.69544 0.65691 -0.0005 0.0
C101 C 0.76471 0.66653 0.15165 0.0
Co102 Co 0.37258 0.74069 0.94092 0.0
Co103 Co 0.37571 0.82014 0.93738 0.0
C104 C 0.35708 0.77569 0.82897 0.0
O105 O 0.3632 0.74891 0.85796 0.0
O106 O 0.35945 0.80498 0.85334 0.0
C107 C 0.34599 0.67665 0.94561 0.0
O108 O 0.32187 0.69265 0.91692 0.0
C109 C 0.40855 0.886 0.90409 0.0
C110 C 0.39831 0.9154 0.98615 0.0
C111 C 0.41634 0.91643 0.93285 0.0
N112 N 0.3877 0.86783 0.93974 0.0
N113 N 0.38118 0.88608 0.98796 0.0
C114 C 0.42353 0.87269 0.84721 0.0
H115 H 0.42119 0.84484 0.84534 0.0
H116 H 0.45048 0.88024 0.84323 0.0
H117 H 0.40961 0.8835 0.8086 0.0
C118 C 0.44298 0.74739 0.96969 0.0
N119 N 0.41258 0.76151 0.96178 0.0
N120 N 0.41522 0.79456 0.96176 0.0
C121 C 0.44805 0.80238 0.97221 0.0
C122 C 0.4666 0.77281 0.97678 0.0
C123 C 0.44951 0.71057 0.96021 0.0
H124 H 0.44192 0.69659 0.00112 0.0
H125 H 0.43399 0.70118 0.92227 0.0
H126 H 0.47643 0.70521 0.95038 0.0
O127 O 0.33493 0.75666 0.98768 0.0
O128 O 0.33649 0.81228 0.99554 0.0
H129 H 0.44385 0.85385 0.00065 0.0
H130 H 0.48614 0.837 0.00353 0.0
C131 C 0.46215 0.83721 0.97768 0.0
H132 H 0.4678 0.84719 0.93248 0.0
H133 H 0.36667 0.87761 0.02407 0.0
O134 O 0.3731 0.69229 0.95819 0.0
C135 C 0.32277 0.7839 0.00752 0.0
Co136 Co 0.76756 0.85562 0.55039 0.0
Co137 Co 0.69063 0.87399 0.56851 0.0
C138 C 0.71603 0.82979 0.46639 0.0
O139 O 0.74603 0.83442 0.48424 0.0
O140 O 0.6908 0.84245 0.49461 0.0
C141 C 0.82664 0.82009 0.52408 0.0
O142 O 0.80452 0.79865 0.50214 0.0
C143 C 0.62677 0.91235 0.54353 0.0
C144 C 0.60411 0.91308 0.63397 0.0
C145 C 0.59963 0.92541 0.57639 0.0
N146 N 0.64629 0.89376 0.58051 0.0
N147 N 0.63217 0.89401 0.63422 0.0
C148 C 0.63589 0.91977 0.47982 0.0
H149 H 0.663 0.91418 0.4716 0.0
H150 H 0.63047 0.94649 0.46895 0.0
H151 H 0.62046 0.90358 0.44981 0.0
C152 C 0.77549 0.92796 0.54963 0.0
N153 N 0.75566 0.90065 0.55259 0.0
N154 N 0.72398 0.90956 0.56145 0.0
C155 C 0.72307 0.94354 0.56635 0.0
C156 C 0.75568 0.95609 0.55902 0.0
C157 C 0.81249 0.92677 0.53545 0.0
H158 H 0.81722 0.90763 0.50018 0.0
H159 H 0.82205 0.95149 0.5196 0.0
H160 H 0.82661 0.91927 0.57628 0.0
O161 O 0.75488 0.83347 0.62381 0.0
O162 O 0.70166 0.84734 0.64361 0.0
H163 H 0.67719 0.94965 0.61658 0.0
H164 H 0.6997 0.98841 0.60212 0.0
C165 C 0.69249 0.96355 0.58315 0.0
H166 H 0.67695 0.96791 0.5426 0.0
H167 H 0.64243 0.88225 0.67177 0.0
O168 O 0.81654 0.8481 0.54501 0.0
C169 C 0.72905 0.8322 0.6572 0.0
Co170 Co 0.15209 0.76395 0.44697 0.0
Co171 Co 0.14183 0.68513 0.43974 0.0
C172 C 0.17297 0.72636 0.33857 0.0
O173 O 0.17016 0.75303 0.36948 0.0
O174 O 0.16209 0.69785 0.35776 0.0
C175 C 0.18252 0.82683 0.45165 0.0
O176 O 0.20753 0.80927 0.42878 0.0
C177 C 0.10141 0.62354 0.40776 0.0
C178 C 0.1157 0.58948 0.48152 0.0
C179 C 0.09384 0.59215 0.43313 0.0
N180 N 0.12599 0.63856 0.4405 0.0
N181 N 0.13471 0.61764 0.4838 0.0
C182 C 0.08343 0.64063 0.35728 0.0
H183 H 0.08824 0.66818 0.35838 0.0
H184 H 0.05585 0.63558 0.35953 0.0
H185 H 0.09308 0.63056 0.31411 0.0
C186 C 0.08094 0.76317 0.47332 0.0
N187 N 0.10907 0.74677 0.45736 0.0
N188 N 0.10413 0.71401 0.46027 0.0
C189 C 0.07224 0.70872 0.4805 0.0
C190 C 0.05678 0.73973 0.48911 0.0
C191 C 0.0778 0.80075 0.47453 0.0
H192 H 0.09021 0.81063 0.5156 0.0
H193 H 0.09075 0.81171 0.43496 0.0
H194 H 0.05094 0.80874 0.47433 0.0
O195 O 0.18148 0.74622 0.50759 0.0
O196 O 0.17912 0.69042 0.50277 0.0
H197 H 0.0783 0.65883 0.51613 0.0
H198 H 0.03831 0.67841 0.53372 0.0
C199 C 0.05803 0.67532 0.49871 0.0
H200 H 0.04602 0.66316 0.45934 0.0
H201 H 0.15248 0.62331 0.51696 0.0
O202 O 0.15418 0.81262 0.4604 0.0
C203 C 0.19103 0.71757 0.52558 0.0
Co204 Co 0.24155 0.15625 0.54103 0.0
Co205 Co 0.31903 0.13826 0.55981 0.0
C206 C 0.29714 0.18457 0.46375 0.0
O207 O 0.26726 0.18134 0.48299 0.0
O208 O 0.32183 0.16857 0.4869 0.0
C209 C 0.18551 0.17379 0.46913 0.0
O210 O 0.2084 0.17267 0.4265 0.0
C211 C 0.38363 0.10094 0.53812 0.0
C212 C 0.40396 0.09779 0.62992 0.0
C213 C 0.41035 0.08711 0.57158 0.0
N214 N 0.36284 0.11799 0.57548 0.0
N215 N 0.37548 0.11622 0.63012 0.0
C216 C 0.37725 0.09835 0.47216 0.0
H217 H 0.35613 0.115 0.45869 0.0
H218 H 0.37029 0.07212 0.46023 0.0
H219 H 0.40038 0.10554 0.447 0.0
C220 C 0.23443 0.0839 0.53569 0.0
N221 N 0.25394 0.11141 0.53992 0.0
N222 N 0.28555 0.1028 0.55039 0.0
C223 C 0.28674 0.0688 0.55449 0.0
C224 C 0.25442 0.05595 0.54529 0.0
C225 C 0.19741 0.08483 0.52171 0.0
H226 H 0.18354 0.09509 0.56092 0.0
H227 H 0.193 0.10186 0.48319 0.0
H228 H 0.1873 0.05955 0.5103 0.0
O229 O 0.25052 0.17562 0.61918 0.0
O230 O 0.30624 0.16923 0.62915 0.0
H231 H 0.33081 0.0623 0.60922 0.0
H232 H 0.31012 0.02346 0.58834 0.0
C233 C 0.3172 0.04905 0.57273 0.0
H234 H 0.33435 0.04643 0.53376 0.0
H235 H 0.36411 0.12677 0.66793 0.0
O236 O 0.19344 0.16471 0.52196 0.0
C237 C 0.27784 0.18071 0.64763 0.0
Co238 Co 0.86139 0.2446 0.45002 0.0
Co239 Co 0.8696 0.32353 0.44097 0.0
C240 C 0.83908 0.28156 0.3408 0.0
O241 O 0.84242 0.25517 0.37233 0.0
O242 O 0.84945 0.31043 0.35931 0.0
C243 C 0.83168 0.18217 0.45638 0.0
O244 O 0.80662 0.20012 0.4348 0.0
C245 C 0.90439 0.38864 0.40777 0.0
C246 C 0.89687 0.41717 0.49171 0.0
C247 C 0.91377 0.41843 0.43728 0.0
N248 N 0.88379 0.3706 0.44412 0.0
N249 N 0.87892 0.38837 0.49351 0.0
C250 C 0.91737 0.37575 0.34906 0.0
H251 H 0.94453 0.38208 0.34349 0.0
H252 H 0.90312 0.38795 0.31219 0.0
H253 H 0.91361 0.34809 0.34573 0.0
C254 C 0.93402 0.24695 0.46404 0.0
N255 N 0.90423 0.2627 0.45847 0.0
N256 N 0.9087 0.29557 0.45812 0.0
C257 C 0.94218 0.30159 0.46531 0.0
C258 C 0.95911 0.27105 0.46867 0.0
C259 C 0.9382 0.20956 0.45879 0.0
H260 H 0.92175 0.19978 0.42241 0.0
H261 H 0.96473 0.20238 0.4492 0.0
H262 H 0.93013 0.19761 0.50142 0.0
O263 O 0.83205 0.26135 0.51144 0.0
O264 O 0.83263 0.31701 0.50461 0.0
H265 H 0.94127 0.35286 0.49596 0.0
H266 H 0.98262 0.33383 0.49553 0.0
C267 C 0.95819 0.33557 0.47122 0.0
H268 H 0.96349 0.3458 0.42605 0.0
H269 H 0.8649 0.37989 0.53019 0.0
O270 O 0.86039 0.19595 0.46346 0.0
C271 C 0.82161 0.28985 0.52853 0.0
H272 H 0.49482 0.21404 0.9664 0.0
H273 H 0.54003 0.26995 0.11281 0.0
H274 H 0.48386 0.29173 0.14151 0.0
H275 H 0.44214 0.275 0.92002 0.0
H276 H 0.4063 0.24896 0.90106 0.0
H277 H 0.44816 0.23146 0.8996 0.0
H278 H 0.4302 0.18466 0.97391 0.0
H279 H 0.38789 0.20147 0.9745 0.0
H280 H 0.4105 0.19603 0.04397 0.0
H281 H 0.42653 0.31632 0.14077 0.0
H282 H 0.36891 0.33675 0.11952 0.0
H283 H 0.35961 0.2638 0.97526 0.0
C284 C 0.49243 0.22951 0.00623 0.0
C285 C 0.52129 0.24019 0.03802 0.0
C286 C 0.51786 0.26138 0.08861 0.0
C287 C 0.48616 0.27387 0.10504 0.0
C288 C 0.45826 0.2645 0.07074 0.0
C289 C 0.46086 0.24218 0.02321 0.0
C290 C 0.42758 0.23898 0.99005 0.0
C291 C 0.4313 0.24923 0.92379 0.0
C292 C 0.41319 0.20316 0.99599 0.0
C293 C 0.40645 0.26417 0.02455 0.0
C294 C 0.4246 0.27844 0.07109 0.0
C295 C 0.41169 0.30471 0.10556 0.0
C296 C 0.37913 0.31638 0.09273 0.0
C297 C 0.35986 0.30165 0.04606 0.0
C298 C 0.37366 0.2751 0.01184 0.0
H299 H 0.6978 0.38279 0.86963 0.0
H300 H 0.65859 0.35616 0.04517 0.0
H301 H 0.68308 0.40829 0.08743 0.0
H302 H 0.77553 0.4186 0.91728 0.0
H303 H 0.77512 0.45245 0.86352 0.0
H304 H 0.75422 0.41325 0.84643 0.0
H305 H 0.69795 0.44483 0.82703 0.0
H306 H 0.71888 0.48418 0.84283 0.0
H307 H 0.6814 0.47257 0.88395 0.0
H308 H 0.71391 0.46191 0.11137 0.0
H309 H 0.74225 0.5177 0.11222 0.0
H310 H 0.75934 0.51011 0.9209 0.0
C311 C 0.69411 0.38811 0.91684 0.0
C312 C 0.67644 0.36549 0.95421 0.0
C313 C 0.67191 0.37331 0.01569 0.0
C314 C 0.68595 0.40268 0.0402 0.0
C315 C 0.70402 0.42403 0.00242 0.0
C316 C 0.70752 0.4175 0.94184 0.0
C317 C 0.72709 0.44515 0.91062 0.0
C318 C 0.75994 0.43153 0.88284 0.0
C319 C 0.70501 0.46272 0.86333 0.0
C320 C 0.73436 0.46808 0.96324 0.0
C321 C 0.72116 0.45528 0.01594 0.0
C322 C 0.7244 0.47219 0.07047 0.0
C323 C 0.7407 0.50355 0.07072 0.0
C324 C 0.75327 0.5174 0.01683 0.0
C325 C 0.75044 0.4994 0.96269 0.0
H326 H 0.63358 0.66785 0.02152 0.0
H327 H 0.67249 0.71541 0.86027 0.0
H328 H 0.62151 0.75108 0.85542 0.0
H329 H 0.54602 0.66657 0.97638 0.0
H330 H 0.53087 0.67477 0.05121 0.0
H331 H 0.57022 0.65292 0.04036 0.0
H332 H 0.60037 0.69751 0.10683 0.0
H333 H 0.56121 0.71997 0.11653 0.0
H334 H 0.59779 0.74143 0.08695 0.0
H335 H 0.56645 0.78188 0.86896 0.0
H336 H 0.50818 0.80013 0.89258 0.0
H337 H 0.50668 0.73371 0.04648 0.0
C338 C 0.63127 0.68548 0.98475 0.0
C339 C 0.65703 0.68886 0.94131 0.0
C340 C 0.653 0.71225 0.89392 0.0
C341 C 0.6243 0.73286 0.8911 0.0
C342 C 0.59997 0.72969 0.93596 0.0
C343 C 0.60294 0.70623 0.98133 0.0
C344 C 0.57293 0.70723 0.02328 0.0
C345 C 0.55389 0.67337 0.02274 0.0
C346 C 0.58374 0.71713 0.08717 0.0
C347 C 0.55244 0.7348 0.99421 0.0
C348 C 0.56858 0.74768 0.9442 0.0
C349 C 0.5537 0.77222 0.90829 0.0
C350 C 0.52083 0.78273 0.92239 0.0
C351 C 0.50344 0.76855 0.97172 0.0
C352 C 0.51987 0.74525 0.00916 0.0
H353 H 0.24317 0.50625 0.9944 0.0
H354 H 0.3168 0.47979 0.13019 0.0
H355 H 0.34613 0.53417 0.11431 0.0
H356 H 0.29866 0.54498 0.89468 0.0
H357 H 0.27046 0.57834 0.87267 0.0
H358 H 0.25353 0.53871 0.89795 0.0
H359 H 0.21871 0.56919 0.98014 0.0
H360 H 0.23501 0.60904 0.95435 0.0
H361 H 0.23986 0.59713 0.03183 0.0
H362 H 0.37019 0.58857 0.07676 0.0
H363 H 0.38393 0.64281 0.02847 0.0
H364 H 0.29327 0.63447 0.91951 0.0
C365 C 0.26489 0.51241 0.02192 0.0
C366 C 0.27789 0.48912 0.06348 0.0
C367 C 0.3067 0.49751 0.09799 0.0
C368 C 0.32347 0.52821 0.08924 0.0
C369 C 0.31071 0.55024 0.04637 0.0
C370 C 0.28173 0.54304 0.01406 0.0
C371 C 0.27377 0.57071 0.96977 0.0
C372 C 0.27414 0.55737 0.90494 0.0
C373 C 0.23983 0.58752 0.98495 0.0
C374 C 0.30318 0.59424 0.98137 0.0
C375 C 0.32425 0.58193 0.02557 0.0
C376 C 0.35369 0.59871 0.0426 0.0
C377 C 0.3614 0.62934 0.0146 0.0
C378 C 0.3396 0.64285 0.97039 0.0
C379 C 0.31033 0.62484 0.95334 0.0
H380 H 0.99544 0.72095 0.44464 0.0
H381 H 0.04362 0.77709 0.5879 0.0
H382 H 0.98847 0.80118 0.61692 0.0
H383 H 0.94232 0.78326 0.39819 0.0
H384 H 0.90603 0.7572 0.38214 0.0
H385 H 0.94782 0.73954 0.37855 0.0
H386 H 0.93105 0.69338 0.45505 0.0
H387 H 0.88887 0.71043 0.45781 0.0
H388 H 0.9128 0.70543 0.52599 0.0
H389 H 0.93134 0.82638 0.61878 0.0
H390 H 0.87272 0.84556 0.60304 0.0
H391 H 0.86046 0.77177 0.46072 0.0
C392 C 0.99393 0.73723 0.48357 0.0
C393 C 0.02335 0.74727 0.51437 0.0
C394 C 0.02104 0.76923 0.56414 0.0
C395 C 0.98994 0.78301 0.5808 0.0
C396 C 0.9615 0.77409 0.54762 0.0
C397 C 0.96296 0.75114 0.50091 0.0
C398 C 0.92903 0.74785 0.46996 0.0
C399 C 0.93148 0.75755 0.40328 0.0
C400 C 0.91458 0.71215 0.47769 0.0
C401 C 0.90876 0.77344 0.50512 0.0
C402 C 0.92799 0.78824 0.5497 0.0
C403 C 0.91571 0.81447 0.58499 0.0
C404 C 0.88257 0.82542 0.57529 0.0
C405 C 0.86214 0.80996 0.53096 0.0
C406 C 0.87546 0.78369 0.49546 0.0
H407 H 0.27867 1.00274 0.48102 0.0
H408 H 0.20364 0.03068 0.61362 0.0
H409 H 0.17783 0.97408 0.606 0.0
H410 H 0.22521 0.95692 0.38775 0.0
H411 H 0.25499 0.92421 0.36927 0.0
H412 H 0.26998 0.96555 0.38937 0.0
H413 H 0.30662 0.94021 0.47436 0.0
H414 H 0.29223 0.89866 0.45377 0.0
H415 H 0.28712 0.91342 0.52972 0.0
H416 H 0.15642 0.91773 0.57538 0.0
H417 H 0.1443 0.86172 0.53236 0.0
H418 H 0.23453 0.86923 0.42209 0.0
C419 C 0.2574 0.99646 0.50952 0.0
C420 C 0.24287 0.02075 0.54767 0.0
C421 C 0.21481 0.01218 0.58389 0.0
C422 C 0.20006 0.98022 0.57987 0.0
C423 C 0.21409 0.95714 0.54003 0.0
C424 C 0.24249 0.96455 0.50629 0.0
C425 C 0.25168 0.93556 0.46529 0.0
C426 C 0.25037 0.94622 0.39901 0.0
C427 C 0.28648 0.9211 0.48179 0.0
C428 C 0.22353 0.9111 0.48027 0.0
C429 C 0.20211 0.9241 0.52338 0.0
C430 C 0.17327 0.90699 0.54228 0.0
C431 C 0.16646 0.87536 0.51722 0.0
C432 C 0.18857 0.86118 0.47412 0.0
C433 C 0.21737 0.87938 0.45536 0.0
H434 H 0.12849 0.17171 0.53894 0.0
H435 H 0.1694 0.21463 0.37523 0.0
H436 H 0.11727 0.24765 0.36177 0.0
H437 H 0.04279 0.1638 0.48477 0.0
H438 H 0.02421 0.17393 0.55634 0.0
H439 H 0.06505 0.15408 0.55312 0.0
H440 H 0.0902 0.20272 0.61694 0.0
H441 H 0.04953 0.22299 0.61948 0.0
H442 H 0.08582 0.24556 0.59147 0.0
H443 H 0.06146 0.277 0.36721 0.0
H444 H 1.00233 0.29493 0.38421 0.0
H445 H 0.99729 0.23218 0.54277 0.0
C446 C 0.12637 0.18792 0.50011 0.0
C447 C 0.15296 0.19065 0.45816 0.0
C448 C 0.14923 0.21196 0.4077 0.0
C449 C 0.11986 0.23106 0.39994 0.0
C450 C 0.0944 0.22834 0.44278 0.0
C451 C 0.09709 0.2069 0.49131 0.0
C452 C 0.06546 0.20764 0.52949 0.0
C453 C 0.04837 0.1728 0.53098 0.0
C454 C 0.07324 0.2205 0.59311 0.0
C455 C 0.04459 0.23281 0.49474 0.0
C456 C 0.06192 0.24479 0.44532 0.0
C457 C 0.04762 0.26787 0.4058 0.0
C458 C 0.01424 0.27813 0.41601 0.0
C459 C 0.99571 0.265 0.4649 0.0
C460 C 0.01126 0.24267 0.50538 0.0
H461 H 0.77811 0.14098 0.43089 0.0
H462 H 0.87039 0.14704 0.53588 0.0
H463 H 0.85723 0.09201 0.58164 0.0
H464 H 0.72606 0.09989 0.54294 0.0
H465 H 0.70474 0.07326 0.48936 0.0
H466 H 0.72023 0.11406 0.46689 0.0
H467 H 0.75508 0.08667 0.38133 0.0
H468 H 0.73928 0.04591 0.40288 0.0
H469 H 0.78422 0.05325 0.39883 0.0
H470 H 0.83452 0.03679 0.61549 0.0
H471 H 0.8075 0.98091 0.62551 0.0
H472 H 0.73129 0.00952 0.4957 0.0
C473 C 0.79551 0.13072 0.46358 0.0
C474 C 0.82518 0.14822 0.48007 0.0
C475 C 0.84756 0.13392 0.52247 0.0
C476 C 0.84015 0.10288 0.54912 0.0
C477 C 0.81043 0.08649 0.53252 0.0
C478 C 0.7887 0.09961 0.4901 0.0
C479 C 0.75961 0.07582 0.47737 0.0
C480 C 0.72565 0.09172 0.49522 0.0
C481 C 0.75957 0.06475 0.41119 0.0
C482 C 0.76868 0.04702 0.51862 0.0
C483 C 0.79775 0.05403 0.55083 0.0
C484 C 0.81175 0.03098 0.59059 0.0
C485 C 0.7963 0.99942 0.59597 0.0
C486 C 0.76758 0.99119 0.56111 0.0
C487 C 0.75303 0.01554 0.52328 0.0
H488 H 0.28965 0.17724 0.34359 0.0
H489 H 0.30806 0.25026 0.48414 0.0
H490 H 0.28522 0.29532 0.4197 0.0
H491 H 0.30934 0.23705 0.21444 0.0
H492 H 0.27728 0.21741 0.16873 0.0
H493 H 0.30007 0.19284 0.22313 0.0
H494 H 0.24267 0.17462 0.2691 0.0
H495 H 0.2198 0.20067 0.21712 0.0
H496 H 0.21405 0.20633 0.29665 0.0
H497 H 0.25078 0.32988 0.34755 0.0
H498 H 0.22373 0.35607 0.25911 0.0
H499 H 0.23049 0.26138 0.16335 0.0
C500 C 0.29099 0.20309 0.35903 0.0
C501 C 0.30152 0.21058 0.41802 0.0
C502 C 0.30126 0.24436 0.43822 0.0
C503 C 0.2876 0.26994 0.40243 0.0
C504 C 0.27492 0.26129 0.34619 0.0
C505 C 0.27795 0.22902 0.32338 0.0
C506 C 0.2619 0.22633 0.26184 0.0
C507 C 0.28875 0.21793 0.21421 0.0
C508 C 0.2329 0.20044 0.2612 0.0
C509 C 0.24858 0.26182 0.25446 0.0
C510 C 0.25579 0.28142 0.30409 0.0
C511 C 0.24535 0.31489 0.30813 0.0
C512 C 0.22931 0.32937 0.25831 0.0
C513 C 0.22435 0.31046 0.20527 0.0
C514 C 0.23312 0.27602 0.20412 0.0
H515 H 0.70684 0.19596 0.11707 0.0
H516 H 0.74993 0.25728 0.97573 0.0
H517 H 0.79301 0.27896 0.04578 0.0
H518 H 0.7136 0.25474 0.2291 0.0
H519 H 0.72517 0.22648 0.28882 0.0
H520 H 0.70098 0.2111 0.22615 0.0
H521 H 0.746 0.16536 0.20471 0.0
H522 H 0.7699 0.17999 0.26846 0.0
H523 H 0.78965 0.17752 0.19573 0.0
H524 H 0.82534 0.30129 0.13497 0.0
H525 H 0.85099 0.3147 0.23399 0.0
H526 H 0.78816 0.2379 0.31616 0.0
C527 C 0.72643 0.21256 0.10032 0.0
C528 C 0.72547 0.22448 0.04076 0.0
C529 C 0.75063 0.24743 0.02101 0.0
C530 C 0.77504 0.26012 0.06059 0.0
C531 C 0.77422 0.24945 0.11992 0.0
C532 C 0.75118 0.2255 0.13948 0.0
C533 C 0.75462 0.21986 0.2064 0.0
C534 C 0.72163 0.22857 0.23953 0.0
C535 C 0.76572 0.18353 0.21959 0.0
C536 C 0.78244 0.24488 0.22128 0.0
C537 C 0.79334 0.2619 0.17099 0.0
C538 C 0.81749 0.28765 0.17459 0.0
C539 C 0.83166 0.29541 0.23092 0.0
C540 C 0.82177 0.27721 0.28245 0.0
C541 C 0.79656 0.25196 0.2773 0.0
H542 H 0.79769 0.71649 0.21303 0.0
H543 H 0.70615 0.65632 0.21253 0.0
H544 H 0.68142 0.69312 0.29049 0.0
H545 H 0.79763 0.7376 0.37488 0.0
H546 H 0.81294 0.77963 0.36086 0.0
H547 H 0.82431 0.74581 0.31096 0.0
H548 H 0.80059 0.78036 0.22176 0.0
H549 H 0.78812 0.81374 0.27175 0.0
H550 H 0.75722 0.79422 0.22344 0.0
H551 H 0.66544 0.7392 0.36563 0.0
H552 H 0.66276 0.78702 0.43772 0.0
H553 H 0.76285 0.81848 0.38071 0.0
C554 C 0.773 0.71035 0.23106 0.0
C555 C 0.75407 0.68325 0.20772 0.0
C556 C 0.72123 0.67675 0.23064 0.0
C557 C 0.70687 0.69765 0.27454 0.0
C558 C 0.72554 0.72518 0.2947 0.0
C559 C 0.75807 0.7313 0.27421 0.0
C560 C 0.77215 0.76347 0.30065 0.0
C561 C 0.8036 0.75618 0.33913 0.0
C562 C 0.77997 0.78947 0.25145 0.0
C563 C 0.74252 0.77445 0.33887 0.0
C564 C 0.71582 0.75216 0.33529 0.0
C565 C 0.68621 0.7569 0.36871 0.0
C566 C 0.68463 0.78434 0.40892 0.0
C567 C 0.71246 0.80653 0.41478 0.0
C568 C 0.74104 0.80202 0.37735 0.0
H569 H 0.30985 0.80878 0.12086 0.0
H570 H 0.26768 0.74801 0.97757 0.0
H571 H 0.22351 0.72681 0.04585 0.0
H572 H 0.30071 0.74976 0.23248 0.0
H573 H 0.28891 0.77831 0.29178 0.0
H574 H 0.31424 0.79314 0.23017 0.0
H575 H 0.27043 0.83975 0.20711 0.0
H576 H 0.24538 0.82564 0.26976 0.0
H577 H 0.22668 0.82845 0.19623 0.0
H578 H 0.18923 0.70542 0.13348 0.0
H579 H 0.16167 0.69299 0.23132 0.0
H580 H 0.22533 0.76834 0.31616 0.0
C581 C 0.2903 0.79234 0.10336 0.0
C582 C 0.29173 0.78049 0.04377 0.0
C583 C 0.2666 0.75778 0.02295 0.0
C584 C 0.24157 0.74537 0.06148 0.0
C585 C 0.24179 0.75605 0.12086 0.0
C586 C 0.26495 0.77966 0.14146 0.0
C587 C 0.26072 0.78543 0.20819 0.0
C588 C 0.29307 0.77609 0.24265 0.0
C589 C 0.25016 0.82198 0.22107 0.0
C590 C 0.23223 0.76096 0.22171 0.0
C591 C 0.2217 0.74406 0.17098 0.0
C592 C 0.19683 0.71894 0.17345 0.0
C593 C 0.18157 0.71174 0.2291 0.0
C594 C 0.19115 0.72986 0.28097 0.0
C595 C 0.21713 0.75437 0.27698 0.0
H596 H 0.74807 0.76756 0.6719 0.0
H597 H 0.72382 0.85864 0.76975 0.0
H598 H 0.74931 0.83424 0.86165 0.0
H599 H 0.73043 0.70937 0.796 0.0
H600 H 0.76387 0.68131 0.77345 0.0
H601 H 0.74231 0.70624 0.71816 0.0
H602 H 0.80023 0.73011 0.68377 0.0
H603 H 0.82187 0.70643 0.74086 0.0
H604 H 0.8269 0.75152 0.73724 0.0
H605 H 0.78095 0.80077 0.94054 0.0
H606 H 0.80225 0.75587 0.00711 0.0
H607 H 0.805 0.68674 0.85714 0.0
C608 C 0.74711 0.78184 0.71333 0.0
C609 C 0.7335 0.81463 0.71449 0.0
C610 C 0.73333 0.83308 0.76874 0.0
C611 C 0.74835 0.81967 0.82062 0.0
C612 C 0.76316 0.78781 0.81713 0.0
C613 C 0.7616 0.76873 0.76535 0.0
C614 C 0.77815 0.73473 0.77359 0.0
C615 C 0.75215 0.70623 0.76483 0.0
C616 C 0.80859 0.73047 0.73134 0.0
C617 C 0.78943 0.73755 0.83825 0.0
C618 C 0.78119 0.76863 0.86224 0.0
C619 C 0.7877 0.77647 0.92209 0.0
C620 C 0.80055 0.75107 0.95935 0.0
C621 C 0.80635 0.71828 0.93669 0.0
C622 C 0.80227 0.71201 0.87486 0.0
H623 H 0.19827 0.76211 0.61655 0.0
H624 H 0.24587 0.67518 0.53465 0.0
H625 H 0.29714 0.68532 0.59657 0.0
H626 H 0.27026 0.81453 0.62224 0.0
H627 H 0.26024 0.83304 0.69391 0.0
H628 H 0.22682 0.81804 0.64584 0.0
H629 H 0.20431 0.77908 0.73021 0.0
H630 H 0.23687 0.79492 0.77914 0.0
H631 H 0.23288 0.75024 0.76644 0.0
H632 H 0.34398 0.70731 0.66355 0.0
H633 H 0.37869 0.73181 0.7446 0.0
H634 H 0.30004 0.80462 0.78224 0.0
C635 C 0.21926 0.74475 0.61249 0.0
C636 C 0.21818 0.71773 0.57105 0.0
C637 C 0.24606 0.69566 0.5668 0.0
C638 C 0.27539 0.7016 0.60108 0.0
C639 C 0.27614 0.72955 0.63936 0.0
C640 C 0.24845 0.75024 0.64629 0.0
C641 C 0.25519 0.77813 0.69126 0.0
C642 C 0.25299 0.81299 0.66151 0.0
C643 C 0.23088 0.77541 0.74495 0.0
C644 C 0.29117 0.76998 0.70905 0.0
C645 C 0.30294 0.74216 0.67786 0.0
C646 C 0.33502 0.72908 0.68804 0.0
C647 C 0.35472 0.74345 0.73366 0.0
C648 C 0.34228 0.77049 0.76891 0.0
C649 C 0.31064 0.78475 0.75476 0.0
H650 H 0.24126 0.17896 0.7516 0.0
H651 H 0.30793 0.24166 0.64517 0.0
H652 H 0.29104 0.29149 0.70475 0.0
H653 H 0.17497 0.23676 0.77265 0.0
H654 H 0.16678 0.22646 0.85 0.0
H655 H 0.18424 0.19515 0.80034 0.0
H656 H 0.23556 0.1865 0.87103 0.0
H657 H 0.21734 0.21655 0.92212 0.0
H658 H 0.25985 0.22259 0.89491 0.0
H659 H 0.26298 0.33488 0.76901 0.0
H660 H 0.24021 0.36692 0.85474 0.0
H661 H 0.19543 0.2758 0.92597 0.0
C662 C 0.25313 0.20302 0.74244 0.0
C663 C 0.27631 0.20658 0.69466 0.0
C664 C 0.29084 0.23843 0.68272 0.0
C665 C 0.28085 0.26691 0.71548 0.0
C666 C 0.25674 0.26288 0.76056 0.0
C667 C 0.24417 0.23156 0.77587 0.0
C668 C 0.22031 0.23395 0.829 0.0
C669 C 0.18445 0.22238 0.81194 0.0
C670 C 0.2341 0.21372 0.88244 0.0
C671 C 0.22134 0.27156 0.84103 0.0
C672 C 0.24169 0.28781 0.79968 0.0
C673 C 0.24706 0.32245 0.80171 0.0
C674 C 0.23345 0.34058 0.84989 0.0
C675 C 0.21533 0.32397 0.89591 0.0
C676 C 0.20801 0.28929 0.89013 0.0
H677 H 0.71092 0.20183 0.78166 0.0
H678 H 0.63285 0.27534 0.74523 0.0
H679 H 0.66774 0.29976 0.66446 0.0
H680 H 0.77799 0.25518 0.76784 0.0
H681 H 0.80658 0.2265 0.73112 0.0
H682 H 0.7736 0.21039 0.77878 0.0
H683 H 0.75026 0.17336 0.69231 0.0
H684 H 0.78403 0.18828 0.64497 0.0
H685 H 0.74073 0.19246 0.62102 0.0
H686 H 0.71496 0.32182 0.59823 0.0
H687 H 0.76666 0.33223 0.53762 0.0
H688 H 0.81349 0.24465 0.61823 0.0
C689 C 0.70043 0.22179 0.7544 0.0
C690 C 0.66892 0.23629 0.76892 0.0
C691 C 0.65668 0.26348 0.73399 0.0
C692 C 0.6765 0.2778 0.6885 0.0
C693 C 0.70847 0.26449 0.67805 0.0
C694 C 0.71999 0.23645 0.70873 0.0
C695 C 0.75603 0.22824 0.69111 0.0
C696 C 0.77994 0.23021 0.74546 0.0
C697 C 0.75786 0.19354 0.66052 0.0
C698 C 0.76312 0.25642 0.64706 0.0
C699 C 0.73552 0.27721 0.64016 0.0
C700 C 0.73663 0.30543 0.60269 0.0
C701 C 0.76622 0.31152 0.56916 0.0
C702 C 0.79405 0.28938 0.57339 0.0
C703 C 0.79258 0.26208 0.61411 0.0
H704 H 0.93618 0.53817 0.14769 0.0
H705 H 0.95076 0.59534 0.98423 0.0
H706 H 0.9997 0.55936 0.95822 0.0
H707 H 0.02432 0.52868 0.18094 0.0
H708 H 0.01779 0.48757 0.21319 0.0
H709 H 0.98414 0.51816 0.21386 0.0
H710 H 0.94584 0.47334 0.16124 0.0
H711 H 0.9805 0.44408 0.15772 0.0
H712 H 0.95892 0.45623 0.08996 0.0
H713 H 0.0507 0.51858 0.9551 0.0
H714 H 0.09627 0.47788 0.97378 0.0
H715 H 0.04599 0.44659 0.13771 0.0
C716 C 0.94943 0.54304 0.10609 0.0
C717 C 0.93912 0.56934 0.06759 0.0
C718 C 0.95744 0.57486 0.01381 0.0
C719 C 0.98551 0.55463 0.99886 0.0
C720 C 0.99494 0.52886 0.03801 0.0
C721 C 0.97722 0.52305 0.09041 0.0
C722 C 0.99295 0.49486 0.12637 0.0
C723 C 0.00557 0.50806 0.1872 0.0
C724 C 0.96806 0.46538 0.13425 0.0
C725 C 0.02223 0.48538 0.08611 0.0
C726 C 0.02328 0.50533 0.03549 0.0
C727 C 0.0496 0.5024 0.99406 0.0
C728 C 0.07543 0.4787 0.00486 0.0
C729 C 0.07477 0.45784 0.05655 0.0
C730 C 0.04743 0.46149 0.09717 0.0
H731 H 0.56067 0.0516 0.00875 0.0
H732 H 0.56547 0.0764 0.81966 0.0
H733 H 0.52071 0.03435 0.79892 0.0
H734 H 0.54783 0.96276 0.99127 0.0
H735 H 0.51912 0.95949 0.05379 0.0
H736 H 0.55118 0.99177 0.05328 0.0
H737 H 0.50526 0.03749 0.06777 0.0
H738 H 0.47306 0.00534 0.0686 0.0
H739 H 0.47037 0.03961 0.01591 0.0
H740 H 0.47527 0.98716 0.79953 0.0
H741 H 0.43305 0.94279 0.82168 0.0
H742 H 0.45805 0.94993 0.01055 0.0
C743 C 0.55236 0.04822 0.96285 0.0
C744 C 0.5665 0.06772 0.91594 0.0
C745 C 0.55468 0.06245 0.85665 0.0
C746 C 0.52939 0.03828 0.84435 0.0
C747 C 0.51599 0.01951 0.89177 0.0
C748 C 0.52702 0.02446 0.94994 0.0
C749 C 0.50844 1.00155 0.99329 0.0
C750 C 0.53312 0.97747 0.02475 0.0
C751 C 0.48808 0.02224 0.03908 0.0
C752 C 0.4853 0.98269 0.9506 0.0
C753 C 0.49006 0.99316 0.89214 0.0
C754 C 0.47158 0.97884 0.8451 0.0
C755 C 0.44773 0.95339 0.85807 0.0
C756 C 0.44229 0.94254 0.91778 0.0
C757 C 0.46141 0.95766 0.96438 0.0
H758 H 0.46269 0.06725 0.64336 0.0
H759 H 0.42378 0.05233 0.46293 0.0
H760 H 0.46956 0.01273 0.44239 0.0
H761 H 0.55195 0.06059 0.60919 0.0
H762 H 0.561 0.03744 0.67678 0.0
H763 H 0.52658 0.06702 0.67542 0.0
H764 H 0.48492 0.02021 0.70912 0.0
H765 H 0.51954 0.99079 0.7117 0.0
H766 H 0.48264 0.98144 0.66723 0.0
H767 H 0.5195 0.97114 0.44326 0.0
H768 H 0.56623 0.93206 0.46743 0.0
H769 H 0.57096 0.97349 0.64731 0.0
C770 C 0.46371 0.05617 0.59902 0.0
C771 C 0.4391 0.06403 0.55489 0.0
C772 C 0.44189 0.04808 0.49796 0.0
C773 C 0.46811 0.02507 0.48563 0.0
C774 C 0.49153 0.01789 0.53052 0.0
C775 C 0.48944 0.03303 0.58614 0.0
C776 C 0.51624 0.01963 0.62828 0.0
C777 C 0.54038 0.04786 0.64857 0.0
C778 C 0.49987 1.00195 0.68227 0.0
C779 C 0.5339 0.99459 0.58779 0.0
C780 C 0.5195 0.99393 0.53138 0.0
C781 C 0.53115 0.97182 0.48715 0.0
C782 C 0.55797 0.94983 0.50114 0.0
C783 C 0.57281 0.94994 0.55899 0.0
C784 C 0.56041 0.97279 0.60251 0.0
H785 H 0.05923 0.55242 0.51241 0.0
H786 H 0.06594 0.57523 0.32265 0.0
H787 H 0.02058 0.53388 0.30233 0.0
H788 H 0.04553 0.46359 0.4967 0.0
H789 H 0.01643 0.46112 0.55876 0.0
H790 H 0.04888 0.49301 0.55809 0.0
H791 H 1.00341 0.53936 0.57069 0.0
H792 H 0.97083 0.5076 0.57163 0.0
H793 H 0.96886 0.54152 0.51812 0.0
H794 H 0.97432 0.48746 0.30304 0.0
H795 H 0.93117 0.44414 0.32552 0.0
H796 H 0.95565 0.45196 0.5146 0.0
C797 C 0.05125 0.54877 0.4664 0.0
C798 C 0.06605 0.56765 0.41927 0.0
C799 C 0.05463 0.56192 0.35988 0.0
C800 C 0.02902 0.53808 0.34776 0.0
C801 C 0.01499 0.51994 0.39534 0.0
C802 C 0.02571 0.52522 0.45357 0.0
C803 C 0.0066 0.50285 0.49709 0.0
C804 C 0.03081 0.47871 0.52956 0.0
C805 C 0.98622 0.52411 0.54202 0.0
C806 C 0.9835 0.48396 0.45439 0.0
C807 C 0.9887 0.49394 0.39579 0.0
C808 C 0.97025 0.47956 0.34876 0.0
C809 C 0.9459 0.45462 0.36193 0.0
C810 C 0.94008 0.44416 0.42177 0.0
C811 C 0.95926 0.45932 0.4683 0.0
loop_
_geom_bond_atom_site_label_1
_geom_bond_atom_site_label_2
_geom_bond_distance
_geom_bond_site_symmetry_2
_ccdc_geom_bond_type
Co0 O3 1.970 1_554 S
Co0 N17 1.989 . S
Co0 O25 1.967 . S
Co0 O32 1.920 . S
Co1 O4 1.966 1_554 S
Co1 N10 2.022 . S
Co1 N18 1.993 . S
Co1 O26 1.941 . S
C2 O3 1.258 . S
C2 O4 1.263 . S
O3 Co0 1.970 1_556 S
O3 C2 1.258 . S
O4 Co1 1.966 1_556 S
O4 C2 1.263 . S
C5 O6 1.235 . S
C5 O32 1.289 1_556 S
O6 C5 1.235 . S
C7 C9 1.400 . S
C7 N10 1.351 1_556 S
C7 C12 1.501 . S
C8 C9 1.387 1_554 S
C8 N11 1.341 . S
C9 C7 1.400 . S
C9 C8 1.387 1_556 S
N10 Co1 2.022 . S
N10 C7 1.351 1_554 S
N10 N11 1.365 . S
N11 C8 1.341 . S
N11 N10 1.365 . S
N11 H31 0.862 . S
C12 C7 1.501 . S
C12 H13 0.961 . S
C12 H14 0.961 . S
C12 H15 0.960 . S
H13 C12 0.961 . S
H14 C12 0.961 . S
H15 C12 0.960 . S
C16 N17 1.342 . S
C16 C20 1.401 . S
C16 C21 1.499 . S
N17 Co0 1.989 . S
N17 C16 1.342 . S
N17 N18 1.388 . S
N18 Co1 1.993 . S
N18 N17 1.388 . S
N18 C19 1.346 . S
C19 N18 1.346 . S
C19 C20 1.396 . S
C19 C29 1.510 . S
C20 C16 1.401 . S
C20 C19 1.396 . S
C21 C16 1.499 . S
C21 H22 0.959 . S
C21 H23 0.960 1_554 S
C21 H24 0.961 . S
H22 C21 0.959 . S
H23 C21 0.960 1_556 S
H24 C21 0.961 . S
O25 Co0 1.967 . S
O25 C33 1.258 . S
O26 Co1 1.941 . S
O26 C33 1.266 . S
H27 C29 0.959 . S
H28 C29 0.961 1_556 S
C29 C19 1.510 . S
C29 H27 0.959 . S
C29 H28 0.961 1_554 S
C29 H30 0.960 . S
H30 C29 0.960 . S
H31 N11 0.862 . S
O32 Co0 1.920 . S
O32 C5 1.289 1_554 S
C33 O25 1.258 . S
C33 O26 1.266 . S
Co34 O37 1.970 1_554 S
Co34 N51 1.989 . S
Co34 O59 1.967 . S
Co34 O66 1.920 . S
Co35 O38 1.966 1_554 S
Co35 N44 2.022 . S
Co35 N52 1.993 . S
Co35 O60 1.941 . S
C36 O37 1.258 . S
C36 O38 1.263 . S
O37 Co34 1.970 1_556 S
O37 C36 1.258 . S
O38 Co35 1.966 1_556 S
O38 C36 1.263 . S
C39 O40 1.235 . S
C39 O66 1.289 1_556 S
O40 C39 1.235 . S
C41 C43 1.400 . S
C41 N44 1.351 1_556 S
C41 C46 1.501 . S
C42 C43 1.387 1_554 S
C42 N45 1.341 . S
C43 C41 1.400 . S
C43 C42 1.387 1_556 S
N44 Co35 2.022 . S
N44 C41 1.351 1_554 S
N44 N45 1.365 . S
N45 C42 1.341 . S
N45 N44 1.365 . S
N45 H65 0.862 . S
C46 C41 1.501 . S
C46 H47 0.961 . S
C46 H48 0.961 . S
C46 H49 0.960 . S
H47 C46 0.961 . S
H48 C46 0.961 . S
H49 C46 0.960 . S
C50 N51 1.342 . S
C50 C54 1.401 . S
C50 C55 1.499 . S
N51 Co34 1.989 . S
N51 C50 1.342 . S
N51 N52 1.388 . S
N52 Co35 1.993 . S
N52 N51 1.388 . S
N52 C53 1.346 . S
C53 N52 1.346 . S
C53 C54 1.396 . S
C53 C63 1.510 . S
C54 C50 1.401 . S
C54 C53 1.396 . S
C55 C50 1.499 . S
C55 H56 0.959 . S
C55 H57 0.960 1_554 S
C55 H58 0.961 . S
H56 C55 0.959 . S
H57 C55 0.960 1_556 S
H58 C55 0.961 . S
O59 Co34 1.967 . S
O59 C67 1.258 . S
O60 Co35 1.941 . S
O60 C67 1.266 . S
H61 C63 0.959 . S
H62 C63 0.961 1_556 S
C63 C53 1.510 . S
C63 H61 0.959 . S
C63 H62 0.961 1_554 S
C63 H64 0.960 . S
H64 C63 0.960 . S
H65 N45 0.862 . S
O66 Co34 1.920 . S
O66 C39 1.289 1_554 S
C67 O59 1.258 . S
C67 O60 1.266 . S
Co68 O71 1.970 1_554 S
Co68 N85 1.989 . S
Co68 O93 1.967 . S
Co68 O100 1.920 . S
Co69 O72 1.966 1_554 S
Co69 N78 2.022 . S
Co69 N86 1.993 . S
Co69 O94 1.941 . S
C70 O71 1.258 . S
C70 O72 1.263 . S
O71 Co68 1.970 1_556 S
O71 C70 1.258 . S
O72 Co69 1.966 1_556 S
O72 C70 1.263 . S
C73 O74 1.235 . S
C73 O100 1.289 1_556 S
O74 C73 1.235 . S
C75 C77 1.400 . S
C75 N78 1.351 1_556 S
C75 C80 1.501 . S
C76 C77 1.387 1_554 S
C76 N79 1.341 . S
C77 C75 1.400 . S
C77 C76 1.387 1_556 S
N78 Co69 2.022 . S
N78 C75 1.351 1_554 S
N78 N79 1.365 . S
N79 C76 1.341 . S
N79 N78 1.365 . S
N79 H99 0.862 . S
C80 C75 1.501 . S
C80 H81 0.961 . S
C80 H82 0.961 . S
C80 H83 0.960 . S
H81 C80 0.961 . S
H82 C80 0.961 . S
H83 C80 0.960 . S
C84 N85 1.342 . S
C84 C88 1.401 . S
C84 C89 1.499 . S
N85 Co68 1.989 . S
N85 C84 1.342 . S
N85 N86 1.388 . S
N86 Co69 1.993 . S
N86 N85 1.388 . S
N86 C87 1.346 . S
C87 N86 1.346 . S
C87 C88 1.396 . S
C87 C97 1.510 . S
C88 C84 1.401 . S
C88 C87 1.396 . S
C89 C84 1.499 . S
C89 H90 0.959 . S
C89 H91 0.960 1_554 S
C89 H92 0.961 . S
H90 C89 0.959 . S
H91 C89 0.960 1_556 S
H92 C89 0.961 . S
O93 Co68 1.967 . S
O93 C101 1.258 . S
O94 Co69 1.941 . S
O94 C101 1.266 . S
H95 C97 0.959 . S
H96 C97 0.961 1_556 S
C97 C87 1.510 . S
C97 H95 0.959 . S
C97 H96 0.961 1_554 S
C97 H98 0.960 . S
H98 C97 0.960 . S
H99 N79 0.862 . S
O100 Co68 1.920 . S
O100 C73 1.289 1_554 S
C101 O93 1.258 . S
C101 O94 1.266 . S
Co102 O105 1.970 1_554 S
Co102 N119 1.989 . S
Co102 O127 1.967 . S
Co102 O134 1.920 . S
Co103 O106 1.966 1_554 S
Co103 N112 2.022 . S
Co103 N120 1.993 . S
Co103 O128 1.941 . S
C104 O105 1.258 . S
C104 O106 1.263 . S
O105 Co102 1.970 1_556 S
O105 C104 1.258 . S
O106 Co103 1.966 1_556 S
O106 C104 1.263 . S
C107 O108 1.235 . S
C107 O134 1.289 1_556 S
O108 C107 1.235 . S
C109 C111 1.400 . S
C109 N112 1.351 1_556 S
C109 C114 1.501 . S
C110 C111 1.387 1_554 S
C110 N113 1.341 . S
C111 C109 1.400 . S
C111 C110 1.387 1_556 S
N112 Co103 2.022 . S
N112 C109 1.351 1_554 S
N112 N113 1.365 . S
N113 C110 1.341 . S
N113 N112 1.365 . S
N113 H133 0.862 . S
C114 C109 1.501 . S
C114 H115 0.961 . S
C114 H116 0.961 . S
C114 H117 0.960 . S
H115 C114 0.961 . S
H116 C114 0.961 . S
H117 C114 0.960 . S
C118 N119 1.342 . S
C118 C122 1.401 . S
C118 C123 1.499 . S
N119 Co102 1.989 . S
N119 C118 1.342 . S
N119 N120 1.388 . S
N120 Co103 1.993 . S
N120 N119 1.388 . S
N120 C121 1.346 . S
C121 N120 1.346 . S
C121 C122 1.396 . S
C121 C131 1.510 . S
C122 C118 1.401 . S
C122 C121 1.396 . S
C123 C118 1.499 . S
C123 H124 0.959 . S
C123 H125 0.960 1_554 S
C123 H126 0.961 . S
H124 C123 0.959 . S
H125 C123 0.960 1_556 S
H126 C123 0.961 . S
O127 Co102 1.967 . S
O127 C135 1.258 . S
O128 Co103 1.941 . S
O128 C135 1.266 . S
H129 C131 0.959 . S
H130 C131 0.961 1_556 S
C131 C121 1.510 . S
C131 H129 0.959 . S
C131 H130 0.961 1_554 S
C131 H132 0.960 . S
H132 C131 0.960 . S
H133 N113 0.862 . S
O134 Co102 1.920 . S
O134 C107 1.289 1_554 S
C135 O127 1.258 . S
C135 O128 1.266 . S
Co136 O139 1.970 . S
Co136 N153 1.989 . S
Co136 O161 1.967 . S
Co136 O168 1.920 . S
Co137 O140 1.966 . S
Co137 N146 2.022 . S
Co137 N154 1.993 . S
Co137 O162 1.941 . S
C138 O139 1.258 . S
C138 O140 1.263 . S
O139 Co136 1.970 . S
O139 C138 1.258 . S
O140 Co137 1.966 . S
O140 C138 1.263 . S
C141 O142 1.235 . S
C141 O168 1.289 . S
O142 C141 1.235 . S
C143 C145 1.400 . S
C143 N146 1.351 . S
C143 C148 1.501 . S
C144 C145 1.387 . S
C144 N147 1.341 . S
C145 C143 1.400 . S
C145 C144 1.387 . S
N146 Co137 2.022 . S
N146 C143 1.351 . S
N146 N147 1.365 . S
N147 C144 1.341 . S
N147 N146 1.365 . S
N147 H167 0.862 . S
C148 C143 1.501 . S
C148 H149 0.961 . S
C148 H150 0.961 . S
C148 H151 0.960 . S
H149 C148 0.961 . S
H150 C148 0.961 . S
H151 C148 0.960 . S
C152 N153 1.342 . S
C152 C156 1.401 . S
C152 C157 1.499 . S
N153 Co136 1.989 . S
N153 C152 1.342 . S
N153 N154 1.388 . S
N154 Co137 1.993 . S
N154 N153 1.388 . S
N154 C155 1.346 . S
C155 N154 1.346 . S
C155 C156 1.396 . S
C155 C165 1.510 . S
C156 C152 1.401 . S
C156 C155 1.396 . S
C157 C152 1.499 . S
C157 H158 0.959 . S
C157 H159 0.960 . S
C157 H160 0.961 . S
H158 C157 0.959 . S
H159 C157 0.960 . S
H160 C157 0.961 . S
O161 Co136 1.967 . S
O161 C169 1.258 . S
O162 Co137 1.941 . S
O162 C169 1.266 . S
H163 C165 0.959 . S
H164 C165 0.961 . S
C165 C155 1.510 . S
C165 H163 0.959 . S
C165 H164 0.961 . S
C165 H166 0.960 . S
H166 C165 0.960 . S
H167 N147 0.862 . S
O168 Co136 1.920 . S
O168 C141 1.289 . S
C169 O161 1.258 . S
C169 O162 1.266 . S
Co170 O173 1.970 . S
Co170 N187 1.989 . S
Co170 O195 1.967 . S
Co170 O202 1.920 . S
Co171 O174 1.966 . S
Co171 N180 2.022 . S
Co171 N188 1.993 . S
Co171 O196 1.941 . S
C172 O173 1.258 . S
C172 O174 1.263 . S
O173 Co170 1.970 . S
O173 C172 1.258 . S
O174 Co171 1.966 . S
O174 C172 1.263 . S
C175 O176 1.235 . S
C175 O202 1.289 . S
O176 C175 1.235 . S
C177 C179 1.400 . S
C177 N180 1.351 . S
C177 C182 1.501 . S
C178 C179 1.387 . S
C178 N181 1.341 . S
C179 C177 1.400 . S
C179 C178 1.387 . S
N180 Co171 2.022 . S
N180 C177 1.351 . S
N180 N181 1.365 . S
N181 C178 1.341 . S
N181 N180 1.365 . S
N181 H201 0.862 . S
C182 C177 1.501 . S
C182 H183 0.961 . S
C182 H184 0.961 . S
C182 H185 0.960 . S
H183 C182 0.961 . S
H184 C182 0.961 . S
H185 C182 0.960 . S
C186 N187 1.342 . S
C186 C190 1.401 . S
C186 C191 1.499 . S
N187 Co170 1.989 . S
N187 C186 1.342 . S
N187 N188 1.388 . S
N188 Co171 1.993 . S
N188 N187 1.388 . S
N188 C189 1.346 . S
C189 N188 1.346 . S
C189 C190 1.396 . S
C189 C199 1.510 . S
C190 C186 1.401 . S
C190 C189 1.396 . S
C191 C186 1.499 . S
C191 H192 0.959 . S
C191 H193 0.960 . S
C191 H194 0.961 . S
H192 C191 0.959 . S
H193 C191 0.960 . S
H194 C191 0.961 . S
O195 Co170 1.967 . S
O195 C203 1.258 . S
O196 Co171 1.941 . S
O196 C203 1.266 . S
H197 C199 0.959 . S
H198 C199 0.961 . S
C199 C189 1.510 . S
C199 H197 0.959 . S
C199 H198 0.961 . S
C199 H200 0.960 . S
H200 C199 0.960 . S
H201 N181 0.862 . S
O202 Co170 1.920 . S
O202 C175 1.289 . S
C203 O195 1.258 . S
C203 O196 1.266 . S
Co204 O207 1.970 . S
Co204 N221 1.989 . S
Co204 O229 1.967 . S
Co204 O236 1.920 . S
Co205 O208 1.966 . S
Co205 N214 2.022 . S
Co205 N222 1.993 . S
Co205 O230 1.941 . S
C206 O207 1.258 . S
C206 O208 1.263 . S
O207 Co204 1.970 . S
O207 C206 1.258 . S
O208 Co205 1.966 . S
O208 C206 1.263 . S
C209 O210 1.235 . S
C209 O236 1.289 . S
O210 C209 1.235 . S
C211 C213 1.400 . S
C211 N214 1.351 . S
C211 C216 1.501 . S
C212 C213 1.387 . S
C212 N215 1.341 . S
C213 C211 1.400 . S
C213 C212 1.387 . S
N214 Co205 2.022 . S
N214 C211 1.351 . S
N214 N215 1.365 . S
N215 C212 1.341 . S
N215 N214 1.365 . S
N215 H235 0.862 . S
C216 C211 1.501 . S
C216 H217 0.961 . S
C216 H218 0.961 . S
C216 H219 0.960 . S
H217 C216 0.961 . S
H218 C216 0.961 . S
H219 C216 0.960 . S
C220 N221 1.342 . S
C220 C224 1.401 . S
C220 C225 1.499 . S
N221 Co204 1.989 . S
N221 C220 1.342 . S
N221 N222 1.388 . S
N222 Co205 1.993 . S
N222 N221 1.388 . S
N222 C223 1.346 . S
C223 N222 1.346 . S
C223 C224 1.396 . S
C223 C233 1.510 . S
C224 C220 1.401 . S
C224 C223 1.396 . S
C225 C220 1.499 . S
C225 H226 0.959 . S
C225 H227 0.960 . S
C225 H228 0.961 . S
H226 C225 0.959 . S
H227 C225 0.960 . S
H228 C225 0.961 . S
O229 Co204 1.967 . S
O229 C237 1.258 . S
O230 Co205 1.941 . S
O230 C237 1.266 . S
H231 C233 0.959 . S
H232 C233 0.961 . S
C233 C223 1.510 . S
C233 H231 0.959 . S
C233 H232 0.961 . S
C233 H234 0.960 . S
H234 C233 0.960 . S
H235 N215 0.862 . S
O236 Co204 1.920 . S
O236 C209 1.289 . S
C237 O229 1.258 . S
C237 O230 1.266 . S
Co238 O241 1.970 . S
Co238 N255 1.989 . S
Co238 O263 1.967 . S
Co238 O270 1.920 . S
Co239 O242 1.966 . S
Co239 N248 2.022 . S
Co239 N256 1.993 . S
Co239 O264 1.941 . S
C240 O241 1.258 . S
C240 O242 1.263 . S
O241 Co238 1.970 . S
O241 C240 1.258 . S
O242 Co239 1.966 . S
O242 C240 1.263 . S
C243 O244 1.235 . S
C243 O270 1.289 . S
O244 C243 1.235 . S
C245 C247 1.400 . S
C245 N248 1.351 . S
C245 C250 1.501 . S
C246 C247 1.387 . S
C246 N249 1.341 . S
C247 C245 1.400 . S
C247 C246 1.387 . S
N248 Co239 2.022 . S
N248 C245 1.351 . S
N248 N249 1.365 . S
N249 C246 1.341 . S
N249 N248 1.365 . S
N249 H269 0.862 . S
C250 C245 1.501 . S
C250 H251 0.961 . S
C250 H252 0.961 . S
C250 H253 0.960 . S
H251 C250 0.961 . S
H252 C250 0.961 . S
H253 C250 0.960 . S
C254 N255 1.342 . S
C254 C258 1.401 . S
C254 C259 1.499 . S
N255 Co238 1.989 . S
N255 C254 1.342 . S
N255 N256 1.388 . S
N256 Co239 1.993 . S
N256 N255 1.388 . S
N256 C257 1.346 . S
C257 N256 1.346 . S
C257 C258 1.396 . S
C257 C267 1.510 . S
C258 C254 1.401 . S
C258 C257 1.396 . S
C259 C254 1.499 . S
C259 H260 0.959 . S
C259 H261 0.960 . S
C259 H262 0.961 . S
H260 C259 0.959 . S
H261 C259 0.960 . S
H262 C259 0.961 . S
O263 Co238 1.967 . S
O263 C271 1.258 . S
O264 Co239 1.941 . S
O264 C271 1.266 . S
H265 C267 0.959 . S
H266 C267 0.961 . S
C267 C257 1.510 . S
C267 H265 0.959 . S
C267 H266 0.961 . S
C267 H268 0.960 . S
H268 C267 0.960 . S
H269 N249 0.862 . S
O270 Co238 1.920 . S
O270 C243 1.289 . S
C271 O263 1.258 . S
C271 O264 1.266 . S
H272 C284 0.930 . S
H273 C286 0.930 . S
H274 C287 0.930 . S
H275 C291 0.959 . S
H276 C291 0.959 . S
H277 C291 0.961 . S
H278 C292 0.960 . S
H279 C292 0.961 . S
H280 C292 0.959 . S
H281 C295 0.929 . S
H282 C296 0.931 . S
H283 C298 0.930 . S
C284 H272 0.930 . S
C284 C285 1.399 . S
C284 C289 1.399 . S
C285 C284 1.399 . S
C285 C286 1.376 . S
C286 H273 0.930 . S
C286 C285 1.376 . S
C286 C287 1.388 . S
C287 H274 0.930 . S
C287 C286 1.388 . S
C287 C288 1.390 . S
C288 C287 1.390 . S
C288 C289 1.394 . S
C288 C294 1.465 1_554 S
C289 C284 1.399 . S
C289 C288 1.394 . S
C289 C290 1.516 1_554 S
C290 C289 1.516 1_556 S
C290 C291 1.502 1_556 S
C290 C292 1.561 . S
C290 C293 1.526 . S
C291 H275 0.959 . S
C291 H276 0.959 . S
C291 H277 0.961 . S
C291 C290 1.502 1_554 S
C292 H278 0.960 . S
C292 H279 0.961 . S
C292 H280 0.959 . S
C292 C290 1.561 . S
C293 C290 1.526 . S
C293 C294 1.396 . S
C293 C298 1.390 . S
C294 C288 1.465 1_556 S
C294 C293 1.396 . S
C294 C295 1.399 . S
C295 H281 0.929 . S
C295 C294 1.399 . S
C295 C296 1.385 . S
C296 H282 0.931 . S
C296 C295 1.385 . S
C296 C297 1.389 . S
C297 C296 1.389 . S
C297 C298 1.387 . S
C298 H283 0.930 . S
C298 C293 1.390 . S
C298 C297 1.387 . S
H299 C311 0.930 . S
H300 C313 0.930 . S
H301 C314 0.930 . S
H302 C318 0.959 . S
H303 C318 0.959 . S
H304 C318 0.961 . S
H305 C319 0.960 . S
H306 C319 0.961 . S
H307 C319 0.959 . S
H308 C322 0.929 . S
H309 C323 0.931 . S
H310 C325 0.930 . S
C311 H299 0.930 . S
C311 C312 1.399 . S
C311 C316 1.399 . S
C312 C311 1.399 . S
C312 C313 1.376 1_556 S
C313 H300 0.930 . S
C313 C312 1.376 1_554 S
C313 C314 1.388 . S
C314 H301 0.930 . S
C314 C313 1.388 . S
C314 C315 1.390 . S
C315 C314 1.390 . S
C315 C316 1.394 1_554 S
C315 C321 1.465 . S
C316 C311 1.399 . S
C316 C315 1.394 1_556 S
C316 C317 1.516 . S
C317 C316 1.516 . S
C317 C318 1.502 . S
C317 C319 1.561 . S
C317 C320 1.526 . S
C318 H302 0.959 . S
C318 H303 0.959 . S
C318 H304 0.961 . S
C318 C317 1.502 . S
C319 H305 0.960 . S
C319 H306 0.961 . S
C319 H307 0.959 . S
C319 C317 1.561 . S
C320 C317 1.526 . S
C320 C321 1.396 1_556 S
C320 C325 1.390 . S
C321 C315 1.465 . S
C321 C320 1.396 1_554 S
C321 C322 1.399 . S
C322 H308 0.929 . S
C322 C321 1.399 . S
C322 C323 1.385 . S
C323 H309 0.931 . S
C323 C322 1.385 . S
C323 C324 1.389 . S
C324 C323 1.389 . S
C324 C325 1.387 1_554 S
C325 H310 0.930 . S
C325 C320 1.390 . S
C325 C324 1.387 1_556 S
H326 C338 0.930 . S
H327 C340 0.930 . S
H328 C341 0.930 . S
H329 C345 0.959 . S
H330 C345 0.959 . S
H331 C345 0.961 . S
H332 C346 0.960 . S
H333 C346 0.961 . S
H334 C346 0.959 . S
H335 C349 0.929 . S
H336 C350 0.931 . S
H337 C352 0.930 . S
C338 H326 0.930 . S
C338 C339 1.399 1_554 S
C338 C343 1.399 . S
C339 C338 1.399 1_556 S
C339 C340 1.376 . S
C340 H327 0.930 . S
C340 C339 1.376 . S
C340 C341 1.388 . S
C341 H328 0.930 . S
C341 C340 1.388 . S
C341 C342 1.390 . S
C342 C341 1.390 . S
C342 C343 1.394 1_556 S
C342 C348 1.465 . S
C343 C338 1.399 . S
C343 C342 1.394 1_554 S
C343 C344 1.516 . S
C344 C343 1.516 . S
C344 C345 1.502 . S
C344 C346 1.561 . S
C344 C347 1.526 . S
C345 H329 0.959 . S
C345 H330 0.959 . S
C345 H331 0.961 . S
C345 C344 1.502 . S
C346 H332 0.960 . S
C346 H333 0.961 . S
C346 H334 0.959 . S
C346 C344 1.561 . S
C347 C344 1.526 . S
C347 C348 1.396 1_554 S
C347 C352 1.390 . S
C348 C342 1.465 . S
C348 C347 1.396 1_556 S
C348 C349 1.399 . S
C349 H335 0.929 . S
C349 C348 1.399 . S
C349 C350 1.385 . S
C350 H336 0.931 . S
C350 C349 1.385 . S
C350 C351 1.389 1_556 S
C351 C350 1.389 1_554 S
C351 C352 1.387 . S
C352 H337 0.930 . S
C352 C347 1.390 . S
C352 C351 1.387 . S
H353 C365 0.930 . S
H354 C367 0.930 . S
H355 C368 0.930 . S
H356 C372 0.959 . S
H357 C372 0.959 . S
H358 C372 0.961 . S
H359 C373 0.960 . S
H360 C373 0.961 . S
H361 C373 0.959 . S
H362 C376 0.929 . S
H363 C377 0.931 . S
H364 C379 0.930 . S
C365 H353 0.930 . S
C365 C366 1.399 1_556 S
C365 C370 1.399 . S
C366 C365 1.399 1_554 S
C366 C367 1.376 . S
C367 H354 0.930 . S
C367 C366 1.376 . S
C367 C368 1.388 . S
C368 H355 0.930 . S
C368 C367 1.388 . S
C368 C369 1.390 . S
C369 C368 1.390 . S
C369 C370 1.394 1_554 S
C369 C375 1.465 . S
C370 C365 1.399 . S
C370 C369 1.394 1_556 S
C370 C371 1.516 . S
C371 C370 1.516 . S
C371 C372 1.502 . S
C371 C373 1.561 . S
C371 C374 1.526 . S
C372 H356 0.959 . S
C372 H357 0.959 . S
C372 H358 0.961 . S
C372 C371 1.502 . S
C373 H359 0.960 . S
C373 H360 0.961 . S
C373 H361 0.959 . S
C373 C371 1.561 . S
C374 C371 1.526 . S
C374 C375 1.396 1_556 S
C374 C379 1.390 . S
C375 C369 1.465 . S
C375 C374 1.396 1_554 S
C375 C376 1.399 . S
C376 H362 0.929 . S
C376 C375 1.399 . S
C376 C377 1.385 . S
C377 H363 0.931 . S
C377 C376 1.385 . S
C377 C378 1.389 1_554 S
C378 C377 1.389 1_556 S
C378 C379 1.387 . S
C379 H364 0.930 . S
C379 C374 1.390 . S
C379 C378 1.387 . S
H380 C392 0.929 . S
H381 C394 0.930 . S
H382 C395 0.930 . S
H383 C399 0.959 . S
H384 C399 0.959 . S
H385 C399 0.961 . S
H386 C400 0.960 . S
H387 C400 0.961 . S
H388 C400 0.959 . S
H389 C403 0.929 . S
H390 C404 0.931 . S
H391 C406 0.930 . S
C392 H380 0.929 . S
C392 C393 1.398 . S
C392 C397 1.400 1_455 S
C393 C392 1.398 . S
C393 C394 1.376 . S
C394 H381 0.930 . S
C394 C393 1.376 . S
C394 C395 1.388 1_455 S
C395 H382 0.930 . S
C395 C394 1.388 1_655 S
C395 C396 1.390 . S
C396 C395 1.390 . S
C396 C397 1.394 . S
C396 C402 1.465 . S
C397 C392 1.400 1_655 S
C397 C396 1.394 . S
C397 C398 1.516 . S
C398 C397 1.516 . S
C398 C399 1.502 . S
C398 C400 1.561 . S
C398 C401 1.526 . S
C399 H383 0.959 . S
C399 H384 0.959 . S
C399 H385 0.961 . S
C399 C398 1.502 . S
C400 H386 0.960 . S
C400 H387 0.961 . S
C400 H388 0.959 . S
C400 C398 1.561 . S
C401 C398 1.526 . S
C401 C402 1.396 . S
C401 C406 1.390 . S
C402 C396 1.465 . S
C402 C401 1.396 . S
C402 C403 1.399 . S
C403 H389 0.929 . S
C403 C402 1.399 . S
C403 C404 1.385 . S
C404 H390 0.931 . S
C404 C403 1.385 . S
C404 C405 1.389 . S
C405 C404 1.389 . S
C405 C406 1.387 . S
C406 H391 0.930 . S
C406 C401 1.390 . S
C406 C405 1.387 . S
H407 C419 0.930 . S
H408 C421 0.930 1_545 S
H409 C422 0.930 . S
H410 C426 0.959 . S
H411 C426 0.959 . S
H412 C426 0.961 . S
H413 C427 0.960 . S
H414 C427 0.961 . S
H415 C427 0.959 . S
H416 C430 0.929 . S
H417 C431 0.931 . S
H418 C433 0.930 . S
C419 H407 0.930 . S
C419 C420 1.399 . S
C419 C424 1.399 1_545 S
C420 C419 1.399 . S
C420 C421 1.376 1_545 S
C421 H408 0.930 1_565 S
C421 C420 1.376 1_565 S
C421 C422 1.388 . S
C422 H409 0.930 . S
C422 C421 1.388 . S
C422 C423 1.390 . S
C423 C422 1.390 . S
C423 C424 1.394 . S
C423 C429 1.465 . S
C424 C419 1.399 1_565 S
C424 C423 1.394 . S
C424 C425 1.516 . S
C425 C424 1.516 . S
C425 C426 1.502 . S
C425 C427 1.561 . S
C425 C428 1.526 . S
C426 H410 0.959 . S
C426 H411 0.959 . S
C426 H412 0.961 . S
C426 C425 1.502 . S
C427 H413 0.960 . S
C427 H414 0.961 . S
C427 H415 0.959 . S
C427 C425 1.561 . S
C428 C425 1.526 . S
C428 C429 1.396 . S
C428 C433 1.390 . S
C429 C423 1.465 . S
C429 C428 1.396 . S
C429 C430 1.399 . S
C430 H416 0.929 . S
C430 C429 1.399 . S
C430 C431 1.385 . S
C431 H417 0.931 . S
C431 C430 1.385 . S
C431 C432 1.389 . S
C432 C431 1.389 . S
C432 C433 1.387 . S
C433 H418 0.930 . S
C433 C428 1.390 . S
C433 C432 1.387 . S
H434 C446 0.930 . S
H435 C448 0.930 . S
H436 C449 0.930 . S
H437 C453 0.959 . S
H438 C453 0.959 . S
H439 C453 0.961 . S
H440 C454 0.960 . S
H441 C454 0.961 . S
H442 C454 0.959 . S
H443 C457 0.929 . S
H444 C458 0.931 . S
H445 C460 0.930 . S
C446 H434 0.930 . S
C446 C447 1.399 . S
C446 C451 1.399 . S
C447 C446 1.399 . S
C447 C448 1.376 . S
C448 H435 0.930 . S
C448 C447 1.376 . S
C448 C449 1.388 . S
C449 H436 0.930 . S
C449 C448 1.388 . S
C449 C450 1.390 . S
C450 C449 1.390 . S
C450 C451 1.394 . S
C450 C456 1.465 . S
C451 C446 1.399 . S
C451 C450 1.394 . S
C451 C452 1.516 . S
C452 C451 1.516 . S
C452 C453 1.502 . S
C452 C454 1.561 . S
C452 C455 1.526 . S
C453 H437 0.959 . S
C453 H438 0.959 . S
C453 H439 0.961 . S
C453 C452 1.502 . S
C454 H440 0.960 . S
C454 H441 0.961 . S
C454 H442 0.959 . S
C454 C452 1.561 . S
C455 C452 1.526 . S
C455 C456 1.396 . S
C455 C460 1.390 1_455 S
C456 C450 1.465 . S
C456 C455 1.396 . S
C456 C457 1.399 . S
C457 H443 0.929 . S
C457 C456 1.399 . S
C457 C458 1.385 1_455 S
C458 H444 0.931 . S
C458 C457 1.385 1_655 S
C458 C459 1.389 . S
C459 C458 1.389 . S
C459 C460 1.387 . S
C460 H445 0.930 . S
C460 C455 1.390 1_655 S
C460 C459 1.387 . S
H461 C473 0.930 . S
H462 C475 0.930 . S
H463 C476 0.930 . S
H464 C480 0.959 . S
H465 C480 0.959 . S
H466 C480 0.961 . S
H467 C481 0.960 . S
H468 C481 0.961 . S
H469 C481 0.959 . S
H470 C484 0.929 . S
H471 C485 0.931 . S
H472 C487 0.930 1_565 S
C473 H461 0.930 . S
C473 C474 1.399 . S
C473 C478 1.399 . S
C474 C473 1.399 . S
C474 C475 1.376 . S
C475 H462 0.930 . S
C475 C474 1.376 . S
C475 C476 1.388 . S
C476 H463 0.930 . S
C476 C475 1.388 . S
C476 C477 1.390 . S
C477 C476 1.390 . S
C477 C478 1.394 . S
C477 C483 1.465 . S
C478 C473 1.399 . S
C478 C477 1.394 . S
C478 C479 1.516 . S
C479 C478 1.516 . S
C479 C480 1.502 . S
C479 C481 1.561 . S
C479 C482 1.526 . S
C480 H464 0.959 . S
C480 H465 0.959 . S
C480 H466 0.961 . S
C480 C479 1.502 . S
C481 H467 0.960 . S
C481 H468 0.961 . S
C481 H469 0.959 . S
C481 C479 1.561 . S
C482 C479 1.526 . S
C482 C483 1.396 . S
C482 C487 1.388 . S
C483 C477 1.465 . S
C483 C482 1.396 . S
C483 C484 1.399 . S
C484 H470 0.929 . S
C484 C483 1.399 . S
C484 C485 1.385 1_545 S
C485 H471 0.931 . S
C485 C484 1.385 1_565 S
C485 C486 1.389 . S
C486 C485 1.389 . S
C486 C487 1.387 1_565 S
C487 H472 0.930 1_545 S
C487 C482 1.388 . S
C487 C486 1.387 1_545 S
H488 C500 0.930 . S
H489 C502 0.930 . S
H490 C503 0.930 . S
H491 C507 0.959 . S
H492 C507 0.959 . S
H493 C507 0.961 . S
H494 C508 0.960 . S
H495 C508 0.961 . S
H496 C508 0.959 . S
H497 C511 0.929 . S
H498 C512 0.931 . S
H499 C514 0.930 . S
C500 H488 0.930 . S
C500 C501 1.399 . S
C500 C505 1.399 . S
C501 C500 1.399 . S
C501 C502 1.376 . S
C502 H489 0.930 . S
C502 C501 1.376 . S
C502 C503 1.388 . S
C503 H490 0.930 . S
C503 C502 1.388 . S
C503 C504 1.390 . S
C504 C503 1.390 . S
C504 C505 1.394 . S
C504 C510 1.465 . S
C505 C500 1.399 . S
C505 C504 1.394 . S
C505 C506 1.516 . S
C506 C505 1.516 . S
C506 C507 1.502 . S
C506 C508 1.561 . S
C506 C509 1.526 . S
C507 H491 0.959 . S
C507 H492 0.959 . S
C507 H493 0.961 . S
C507 C506 1.502 . S
C508 H494 0.960 . S
C508 H495 0.961 . S
C508 H496 0.959 . S
C508 C506 1.561 . S
C509 C506 1.526 . S
C509 C510 1.396 . S
C509 C514 1.390 . S
C510 C504 1.465 . S
C510 C509 1.396 . S
C510 C511 1.399 . S
C511 H497 0.929 . S
C511 C510 1.399 . S
C511 C512 1.385 . S
C512 H498 0.931 . S
C512 C511 1.385 . S
C512 C513 1.389 . S
C513 C512 1.389 . S
C513 C514 1.387 . S
C514 H499 0.930 . S
C514 C509 1.390 . S
C514 C513 1.387 . S
H515 C527 0.930 . S
H516 C529 0.930 . S
H517 C530 0.930 . S
H518 C534 0.959 . S
H519 C534 0.959 . S
H520 C534 0.961 . S
H521 C535 0.960 . S
H522 C535 0.961 . S
H523 C535 0.959 . S
H524 C538 0.929 . S
H525 C539 0.931 . S
H526 C541 0.930 . S
C527 H515 0.930 . S
C527 C528 1.399 . S
C527 C532 1.399 . S
C528 C527 1.399 . S
C528 C529 1.376 . S
C529 H516 0.930 . S
C529 C528 1.376 . S
C529 C530 1.388 . S
C530 H517 0.930 . S
C530 C529 1.388 . S
C530 C531 1.390 . S
C531 C530 1.390 . S
C531 C532 1.394 . S
C531 C537 1.465 . S
C532 C527 1.399 . S
C532 C531 1.394 . S
C532 C533 1.516 . S
C533 C532 1.516 . S
C533 C534 1.502 . S
C533 C535 1.561 . S
C533 C536 1.526 . S
C534 H518 0.959 . S
C534 H519 0.959 . S
C534 H520 0.961 . S
C534 C533 1.502 . S
C535 H521 0.960 . S
C535 H522 0.961 . S
C535 H523 0.959 . S
C535 C533 1.561 . S
C536 C533 1.526 . S
C536 C537 1.396 . S
C536 C541 1.390 . S
C537 C531 1.465 . S
C537 C536 1.396 . S
C537 C538 1.399 . S
C538 H524 0.929 . S
C538 C537 1.399 . S
C538 C539 1.385 . S
C539 H525 0.931 . S
C539 C538 1.385 . S
C539 C540 1.389 . S
C540 C539 1.389 . S
C540 C541 1.387 . S
C541 H526 0.930 . S
C541 C536 1.390 . S
C541 C540 1.387 . S
H542 C554 0.930 . S
H543 C556 0.930 . S
H544 C557 0.930 . S
H545 C561 0.959 . S
H546 C561 0.959 . S
H547 C561 0.961 . S
H548 C562 0.960 . S
H549 C562 0.961 . S
H550 C562 0.959 . S
H551 C565 0.929 . S
H552 C566 0.931 . S
H553 C568 0.930 . S
C554 H542 0.930 . S
C554 C555 1.399 . S
C554 C559 1.399 . S
C555 C554 1.399 . S
C555 C556 1.376 . S
C556 H543 0.930 . S
C556 C555 1.376 . S
C556 C557 1.388 . S
C557 H544 0.930 . S
C557 C556 1.388 . S
C557 C558 1.390 . S
C558 C557 1.390 . S
C558 C559 1.394 . S
C558 C564 1.465 . S
C559 C554 1.399 . S
C559 C558 1.394 . S
C559 C560 1.516 . S
C560 C559 1.516 . S
C560 C561 1.502 . S
C560 C562 1.561 . S
C560 C563 1.526 . S
C561 H545 0.959 . S
C561 H546 0.959 . S
C561 H547 0.961 . S
C561 C560 1.502 . S
C562 H548 0.960 . S
C562 H549 0.961 . S
C562 H550 0.959 . S
C562 C560 1.561 . S
C563 C560 1.526 . S
C563 C564 1.396 . S
C563 C568 1.390 . S
C564 C558 1.465 . S
C564 C563 1.396 . S
C564 C565 1.399 . S
C565 H551 0.929 . S
C565 C564 1.399 . S
C565 C566 1.385 . S
C566 H552 0.931 . S
C566 C565 1.385 . S
C566 C567 1.389 . S
C567 C566 1.389 . S
C567 C568 1.387 . S
C568 H553 0.930 . S
C568 C563 1.390 . S
C568 C567 1.387 . S
H569 C581 0.930 . S
H570 C583 0.930 . S
H571 C584 0.930 . S
H572 C588 0.959 . S
H573 C588 0.959 . S
H574 C588 0.961 . S
H575 C589 0.960 . S
H576 C589 0.961 . S
H577 C589 0.959 . S
H578 C592 0.929 . S
H579 C593 0.931 . S
H580 C595 0.930 . S
C581 H569 0.930 . S
C581 C582 1.399 . S
C581 C586 1.399 . S
C582 C581 1.399 . S
C582 C583 1.376 . S
C583 H570 0.930 . S
C583 C582 1.376 . S
C583 C584 1.388 . S
C584 H571 0.930 . S
C584 C583 1.388 . S
C584 C585 1.390 . S
C585 C584 1.390 . S
C585 C586 1.394 . S
C585 C591 1.465 . S
C586 C581 1.399 . S
C586 C585 1.394 . S
C586 C587 1.516 . S
C587 C586 1.516 . S
C587 C588 1.502 . S
C587 C589 1.561 . S
C587 C590 1.526 . S
C588 H572 0.959 . S
C588 H573 0.959 . S
C588 H574 0.961 . S
C588 C587 1.502 . S
C589 H575 0.960 . S
C589 H576 0.961 . S
C589 H577 0.959 . S
C589 C587 1.561 . S
C590 C587 1.526 . S
C590 C591 1.396 . S
C590 C595 1.390 . S
C591 C585 1.465 . S
C591 C590 1.396 . S
C591 C592 1.399 . S
C592 H578 0.929 . S
C592 C591 1.399 . S
C592 C593 1.385 . S
C593 H579 0.931 . S
C593 C592 1.385 . S
C593 C594 1.389 . S
C594 C593 1.389 . S
C594 C595 1.387 . S
C595 H580 0.930 . S
C595 C590 1.390 . S
C595 C594 1.387 . S
H596 C608 0.930 . S
H597 C610 0.930 . S
H598 C611 0.930 . S
H599 C615 0.959 . S
H600 C615 0.959 . S
H601 C615 0.961 . S
H602 C616 0.960 . S
H603 C616 0.961 . S
H604 C616 0.959 . S
H605 C619 0.929 . S
H606 C620 0.931 . S
H607 C622 0.930 . S
C608 H596 0.930 . S
C608 C609 1.399 . S
C608 C613 1.399 . S
C609 C608 1.399 . S
C609 C610 1.376 . S
C610 H597 0.930 . S
C610 C609 1.376 . S
C610 C611 1.388 . S
C611 H598 0.930 . S
C611 C610 1.388 . S
C611 C612 1.390 . S
C612 C611 1.390 . S
C612 C613 1.394 . S
C612 C618 1.465 . S
C613 C608 1.399 . S
C613 C612 1.394 . S
C613 C614 1.516 . S
C614 C613 1.516 . S
C614 C615 1.502 . S
C614 C616 1.561 . S
C614 C617 1.526 . S
C615 H599 0.959 . S
C615 H600 0.959 . S
C615 H601 0.961 . S
C615 C614 1.502 . S
C616 H602 0.960 . S
C616 H603 0.961 . S
C616 H604 0.959 . S
C616 C614 1.561 . S
C617 C614 1.526 . S
C617 C618 1.396 . S
C617 C622 1.390 . S
C618 C612 1.465 . S
C618 C617 1.396 . S
C618 C619 1.399 . S
C619 H605 0.929 . S
C619 C618 1.399 . S
C619 C620 1.385 . S
C620 H606 0.931 . S
C620 C619 1.385 . S
C620 C621 1.389 . S
C621 C620 1.389 . S
C621 C622 1.387 . S
C622 H607 0.930 . S
C622 C617 1.390 . S
C622 C621 1.387 . S
H623 C635 0.930 . S
H624 C637 0.930 . S
H625 C638 0.930 . S
H626 C642 0.959 . S
H627 C642 0.959 . S
H628 C642 0.961 . S
H629 C643 0.960 . S
H630 C643 0.961 . S
H631 C643 0.959 . S
H632 C646 0.929 . S
H633 C647 0.931 . S
H634 C649 0.930 . S
C635 H623 0.930 . S
C635 C636 1.399 . S
C635 C640 1.399 . S
C636 C635 1.399 . S
C636 C637 1.376 . S
C637 H624 0.930 . S
C637 C636 1.376 . S
C637 C638 1.388 . S
C638 H625 0.930 . S
C638 C637 1.388 . S
C638 C639 1.390 . S
C639 C638 1.390 . S
C639 C640 1.394 . S
C639 C645 1.465 . S
C640 C635 1.399 . S
C640 C639 1.394 . S
C640 C641 1.516 . S
C641 C640 1.516 . S
C641 C642 1.502 . S
C641 C643 1.561 . S
C641 C644 1.526 . S
C642 H626 0.959 . S
C642 H627 0.959 . S
C642 H628 0.961 . S
C642 C641 1.502 . S
C643 H629 0.960 . S
C643 H630 0.961 . S
C643 H631 0.959 . S
C643 C641 1.561 . S
C644 C641 1.526 . S
C644 C645 1.396 . S
C644 C649 1.390 . S
C645 C639 1.465 . S
C645 C644 1.396 . S
C645 C646 1.399 . S
C646 H632 0.929 . S
C646 C645 1.399 . S
C646 C647 1.385 . S
C647 H633 0.931 . S
C647 C646 1.385 . S
C647 C648 1.389 . S
C648 C647 1.389 . S
C648 C649 1.387 . S
C649 H634 0.930 . S
C649 C644 1.390 . S
C649 C648 1.387 . S
H650 C662 0.930 . S
H651 C664 0.930 . S
H652 C665 0.930 . S
H653 C669 0.959 . S
H654 C669 0.959 . S
H655 C669 0.961 . S
H656 C670 0.960 . S
H657 C670 0.961 . S
H658 C670 0.959 . S
H659 C673 0.929 . S
H660 C674 0.931 . S
H661 C676 0.930 . S
C662 H650 0.930 . S
C662 C663 1.399 . S
C662 C667 1.399 . S
C663 C662 1.399 . S
C663 C664 1.376 . S
C664 H651 0.930 . S
C664 C663 1.376 . S
C664 C665 1.388 . S
C665 H652 0.930 . S
C665 C664 1.388 . S
C665 C666 1.390 . S
C666 C665 1.390 . S
C666 C667 1.394 . S
C666 C672 1.465 . S
C667 C662 1.399 . S
C667 C666 1.394 . S
C667 C668 1.516 . S
C668 C667 1.516 . S
C668 C669 1.502 . S
C668 C670 1.561 . S
C668 C671 1.526 . S
C669 H653 0.959 . S
C669 H654 0.959 . S
C669 H655 0.961 . S
C669 C668 1.502 . S
C670 H656 0.960 . S
C670 H657 0.961 . S
C670 H658 0.959 . S
C670 C668 1.561 . S
C671 C668 1.526 . S
C671 C672 1.396 . S
C671 C676 1.390 . S
C672 C666 1.465 . S
C672 C671 1.396 . S
C672 C673 1.399 . S
C673 H659 0.929 . S
C673 C672 1.399 . S
C673 C674 1.385 . S
C674 H660 0.931 . S
C674 C673 1.385 . S
C674 C675 1.389 . S
C675 C674 1.389 . S
C675 C676 1.387 . S
C676 H661 0.930 . S
C676 C671 1.390 . S
C676 C675 1.387 . S
H677 C689 0.930 . S
H678 C691 0.930 . S
H679 C692 0.930 . S
H680 C696 0.959 . S
H681 C696 0.959 . S
H682 C696 0.961 . S
H683 C697 0.960 . S
H684 C697 0.961 . S
H685 C697 0.959 . S
H686 C700 0.929 . S
H687 C701 0.931 . S
H688 C703 0.930 . S
C689 H677 0.930 . S
C689 C690 1.399 . S
C689 C694 1.399 . S
C690 C689 1.399 . S
C690 C691 1.376 . S
C691 H678 0.930 . S
C691 C690 1.376 . S
C691 C692 1.388 . S
C692 H679 0.930 . S
C692 C691 1.388 . S
C692 C693 1.390 . S
C693 C692 1.390 . S
C693 C694 1.394 . S
C693 C699 1.465 . S
C694 C689 1.399 . S
C694 C693 1.394 . S
C694 C695 1.516 . S
C695 C694 1.516 . S
C695 C696 1.502 . S
C695 C697 1.561 . S
C695 C698 1.526 . S
C696 H680 0.959 . S
C696 H681 0.959 . S
C696 H682 0.961 . S
C696 C695 1.502 . S
C697 H683 0.960 . S
C697 H684 0.961 . S
C697 H685 0.959 . S
C697 C695 1.561 . S
C698 C695 1.526 . S
C698 C699 1.396 . S
C698 C703 1.390 . S
C699 C693 1.465 . S
C699 C698 1.396 . S
C699 C700 1.399 . S
C700 H686 0.929 . S
C700 C699 1.399 . S
C700 C701 1.385 . S
C701 H687 0.931 . S
C701 C700 1.385 . S
C701 C702 1.389 . S
C702 C701 1.389 . S
C702 C703 1.387 . S
C703 H688 0.930 . S
C703 C698 1.390 . S
C703 C702 1.387 . S
H704 C716 0.930 . S
H705 C718 0.930 . S
H706 C719 0.930 . S
H707 C723 0.959 . S
H708 C723 0.959 . S
H709 C723 0.961 . S
H710 C724 0.960 1_655 S
H711 C724 0.961 . S
H712 C724 0.959 . S
H713 C727 0.929 . S
H714 C728 0.931 . S
H715 C730 0.930 . S
C716 H704 0.930 . S
C716 C717 1.399 . S
C716 C721 1.399 . S
C717 C716 1.399 . S
C717 C718 1.376 1_556 S
C718 H705 0.930 . S
C718 C717 1.376 1_554 S
C718 C719 1.388 . S
C719 H706 0.930 . S
C719 C718 1.388 . S
C719 C720 1.390 1_554 S
C720 C719 1.390 1_556 S
C720 C721 1.394 . S
C720 C726 1.465 1_655 S
C721 C716 1.399 . S
C721 C720 1.394 . S
C721 C722 1.516 . S
C722 C721 1.516 . S
C722 C723 1.502 . S
C722 C724 1.561 1_655 S
C722 C725 1.526 1_655 S
C723 H707 0.959 . S
C723 H708 0.959 . S
C723 H709 0.961 . S
C723 C722 1.502 . S
C724 H710 0.960 1_455 S
C724 H711 0.961 . S
C724 H712 0.959 . S
C724 C722 1.561 1_455 S
C725 C722 1.526 1_455 S
C725 C726 1.396 . S
C725 C730 1.390 . S
C726 C720 1.465 1_455 S
C726 C725 1.396 . S
C726 C727 1.399 1_556 S
C727 H713 0.929 . S
C727 C726 1.399 1_554 S
C727 C728 1.385 . S
C728 H714 0.931 . S
C728 C727 1.385 . S
C728 C729 1.389 1_554 S
C729 C728 1.389 1_556 S
C729 C730 1.387 . S
C730 H715 0.930 . S
C730 C725 1.390 . S
C730 C729 1.387 . S
H731 C743 0.930 . S
H732 C745 0.930 . S
H733 C746 0.930 . S
H734 C750 0.959 . S
H735 C750 0.959 . S
H736 C750 0.961 . S
H737 C751 0.960 . S
H738 C751 0.961 1_565 S
H739 C751 0.959 . S
H740 C754 0.929 . S
H741 C755 0.931 . S
H742 C757 0.930 . S
C743 H731 0.930 . S
C743 C744 1.399 1_554 S
C743 C748 1.399 1_554 S
C744 C743 1.399 1_556 S
C744 C745 1.376 . S
C745 H732 0.930 . S
C745 C744 1.376 . S
C745 C746 1.388 . S
C746 H733 0.930 . S
C746 C745 1.388 . S
C746 C747 1.390 . S
C747 C746 1.390 . S
C747 C748 1.394 . S
C747 C753 1.465 1_545 S
C748 C743 1.399 1_556 S
C748 C747 1.394 . S
C748 C749 1.516 1_546 S
C749 C748 1.516 1_564 S
C749 C750 1.502 . S
C749 C751 1.561 1_565 S
C749 C752 1.526 1_554 S
C750 H734 0.959 . S
C750 H735 0.959 . S
C750 H736 0.961 . S
C750 C749 1.502 . S
C751 H737 0.960 . S
C751 H738 0.961 1_545 S
C751 H739 0.959 . S
C751 C749 1.561 1_545 S
C752 C749 1.526 1_556 S
C752 C753 1.396 . S
C752 C757 1.390 1_556 S
C753 C747 1.465 1_565 S
C753 C752 1.396 . S
C753 C754 1.399 . S
C754 H740 0.929 . S
C754 C753 1.399 . S
C754 C755 1.385 . S
C755 H741 0.931 . S
C755 C754 1.385 . S
C755 C756 1.389 . S
C756 C755 1.389 . S
C756 C757 1.387 1_556 S
C757 H742 0.930 . S
C757 C752 1.390 1_554 S
C757 C756 1.387 1_554 S
H758 C770 0.930 . S
H759 C772 0.930 . S
H760 C773 0.930 . S
H761 C777 0.959 . S
H762 C777 0.959 . S
H763 C777 0.961 . S
H764 C778 0.960 . S
H765 C778 0.961 . S
H766 C778 0.959 . S
H767 C781 0.929 . S
H768 C782 0.931 . S
H769 C784 0.930 . S
C770 H758 0.930 . S
C770 C771 1.399 . S
C770 C775 1.399 . S
C771 C770 1.399 . S
C771 C772 1.376 . S
C772 H759 0.930 . S
C772 C771 1.376 . S
C772 C773 1.388 . S
C773 H760 0.930 . S
C773 C772 1.388 . S
C773 C774 1.390 . S
C774 C773 1.390 . S
C774 C775 1.394 . S
C774 C780 1.465 1_545 S
C775 C770 1.399 . S
C775 C774 1.394 . S
C775 C776 1.516 . S
C776 C775 1.516 . S
C776 C777 1.502 1_545 S
C776 C778 1.561 . S
C776 C779 1.526 1_545 S
C777 H761 0.959 . S
C777 H762 0.959 . S
C777 H763 0.961 . S
C777 C776 1.502 1_565 S
C778 H764 0.960 . S
C778 H765 0.961 . S
C778 H766 0.959 . S
C778 C776 1.561 . S
C779 C776 1.526 1_565 S
C779 C780 1.396 . S
C779 C784 1.390 . S
C780 C774 1.465 1_565 S
C780 C779 1.396 . S
C780 C781 1.399 . S
C781 H767 0.929 . S
C781 C780 1.399 . S
C781 C782 1.385 . S
C782 H768 0.931 . S
C782 C781 1.385 . S
C782 C783 1.389 . S
C783 C782 1.389 . S
C783 C784 1.387 . S
C784 H769 0.930 . S
C784 C779 1.390 . S
C784 C783 1.387 . S
H785 C797 0.930 . S
H786 C799 0.930 . S
H787 C800 0.930 . S
H788 C804 0.959 . S
H789 C804 0.959 . S
H790 C804 0.961 . S
H791 C805 0.960 . S
H792 C805 0.961 . S
H793 C805 0.959 . S
H794 C808 0.929 1_455 S
H795 C809 0.931 . S
H796 C811 0.930 . S
C797 H785 0.930 . S
C797 C798 1.399 . S
C797 C802 1.399 . S
C798 C797 1.399 . S
C798 C799 1.376 . S
C799 H786 0.930 . S
C799 C798 1.376 . S
C799 C800 1.388 . S
C800 H787 0.930 . S
C800 C799 1.388 . S
C800 C801 1.390 . S
C801 C800 1.390 . S
C801 C802 1.394 . S
C801 C807 1.465 1_455 S
C802 C797 1.399 . S
C802 C801 1.394 . S
C802 C803 1.516 1_455 S
C803 C802 1.516 1_655 S
C803 C804 1.502 . S
C803 C805 1.561 1_655 S
C803 C806 1.526 . S
C804 H788 0.959 . S
C804 H789 0.959 . S
C804 H790 0.961 . S
C804 C803 1.502 . S
C805 H791 0.960 . S
C805 H792 0.961 . S
C805 H793 0.959 . S
C805 C803 1.561 1_455 S
C806 C803 1.526 . S
C806 C807 1.396 . S
C806 C811 1.390 . S
C807 C801 1.465 1_655 S
C807 C806 1.396 . S
C807 C808 1.399 . S
C808 H794 0.929 1_655 S
C808 C807 1.399 . S
C808 C809 1.385 . S
C809 H795 0.931 . S
C809 C808 1.385 . S
C809 C810 1.389 . S
C810 C809 1.389 . S
C810 C811 1.387 . S
C811 H796 0.930 . S
C811 C806 1.390 . S
C811 C810 1.387 . S
C285 C54 0.692 . S
C297 C5 0.663 . S
C312 C39 0.692 . S
C324 C88 0.730 . S
C339 C73 0.674 . S
C351 C122 0.640 . S
C366 C20 0.753 . S
C378 C107 0.667 . S
C393 C190 0.754 . S
C405 C141 0.681 . S
C420 C224 0.753 . S
C432 C175 0.667 . S
C447 C209 0.668 . S
C459 C258 0.661 . S
C474 C243 0.694 . S
C486 C156 0.723 . S
C501 C206 1.500 . S
C513 C33 1.564 . S
C528 C67 1.536 . S
C540 C240 1.545 . S
C555 C101 1.540 . S
C567 C138 1.548 . S
C582 C135 1.535 . S
C594 C172 1.550 . S
C609 C169 1.564 . S
C621 C70 1.507 . S
C636 C203 1.566 . S
C648 C104 1.499 . S
C663 C237 1.552 . S
C675 C2 1.516 . S
C690 C36 1.510 . S
C702 C271 1.556 . S
C717 C77 2.044 . S
C729 C9 2.036 . S
C744 C43 2.091 . S
C756 C111 2.099 . S
C771 C213 2.036 . S
C783 C145 2.035 . S
C798 C179 2.044 . S
C810 C247 2.036 . S
