# Generated by pormake.
# Topology uka, (4)-cn, num edge types: 1
# Building blocks:
#     Node 0, Type 0, BuildingBlock: GALJAG_clean_sbu_0, # of connection points: 4
#     Node 1, Type 0, BuildingBlock: GALJAG_clean_sbu_0, # of connection points: 4
#     Node 2, Type 0, BuildingBlock: GALJAG_clean_sbu_0, # of connection points: 4
#     Node 3, Type 0, BuildingBlock: GALJAG_clean_sbu_0, # of connection points: 4
#     Node 4, Type 0, BuildingBlock: GALJAG_clean_sbu_0, # of connection points: 4
#     Node 5, Type 0, BuildingBlock: GALJAG_clean_sbu_0, # of connection points: 4
#     Node 6, Type 0, BuildingBlock: GALJAG_clean_sbu_0, # of connection points: 4
#     Node 7, Type 0, BuildingBlock: GALJAG_clean_sbu_0, # of connection points: 4
#     Node 8, Type 0, BuildingBlock: GALJAG_clean_sbu_0, # of connection points: 4
#     Node 9, Type 0, BuildingBlock: GALJAG_clean_sbu_0, # of connection points: 4
#     Node 10, Type 0, BuildingBlock: GALJAG_clean_sbu_0, # of connection points: 4
#     Node 11, Type 0, BuildingBlock: GALJAG_clean_sbu_0, # of connection points: 4
#     Node 12, Type 0, BuildingBlock: GALJAG_clean_sbu_0, # of connection points: 4
#     Node 13, Type 0, BuildingBlock: GALJAG_clean_sbu_0, # of connection points: 4
#     Node 14, Type 0, BuildingBlock: GALJAG_clean_sbu_0, # of connection points: 4
#     Node 15, Type 0, BuildingBlock: GALJAG_clean_sbu_0, # of connection points: 4
#     Node 16, Type 0, BuildingBlock: GALJAG_clean_sbu_0, # of connection points: 4
#     Node 17, Type 0, BuildingBlock: GALJAG_clean_sbu_0, # of connection points: 4
#     Node 18, Type 0, BuildingBlock: GALJAG_clean_sbu_0, # of connection points: 4
#     Node 19, Type 0, BuildingBlock: GALJAG_clean_sbu_0, # of connection points: 4
#     Node 20, Type 0, BuildingBlock: GALJAG_clean_sbu_0, # of connection points: 4
#     Node 21, Type 0, BuildingBlock: GALJAG_clean_sbu_0, # of connection points: 4
#     Node 22, Type 0, BuildingBlock: GALJAG_clean_sbu_0, # of connection points: 4
#     Node 23, Type 0, BuildingBlock: GALJAG_clean_sbu_0, # of connection points: 4
#     Node 24, Type 0, BuildingBlock: GALJAG_clean_sbu_0, # of connection points: 4
#     Node 25, Type 0, BuildingBlock: GALJAG_clean_sbu_0, # of connection points: 4
#     Node 26, Type 0, BuildingBlock: GALJAG_clean_sbu_0, # of connection points: 4
#     Node 27, Type 0, BuildingBlock: GALJAG_clean_sbu_0, # of connection points: 4
#     Node 28, Type 0, BuildingBlock: GALJAG_clean_sbu_0, # of connection points: 4
#     Node 29, Type 0, BuildingBlock: GALJAG_clean_sbu_0, # of connection points: 4
#     Node 30, Type 0, BuildingBlock: GALJAG_clean_sbu_0, # of connection points: 4
#     Node 31, Type 0, BuildingBlock: GALJAG_clean_sbu_0, # of connection points: 4
#     Edge 32, Type (0, 0), BuildingBlock: XIVTED_clean_linker_0, # of connection points: 2
#     Edge 33, Type (0, 0), BuildingBlock: XIVTED_clean_linker_0, # of connection points: 2
#     Edge 34, Type (0, 0), BuildingBlock: XIVTED_clean_linker_0, # of connection points: 2
#     Edge 35, Type (0, 0), BuildingBlock: XIVTED_clean_linker_0, # of connection points: 2
#     Edge 36, Type (0, 0), BuildingBlock: XIVTED_clean_linker_0, # of connection points: 2
#     Edge 37, Type (0, 0), BuildingBlock: XIVTED_clean_linker_0, # of connection points: 2
#     Edge 38, Type (0, 0), BuildingBlock: XIVTED_clean_linker_0, # of connection points: 2
#     Edge 39, Type (0, 0), BuildingBlock: XIVTED_clean_linker_0, # of connection points: 2
#     Edge 40, Type (0, 0), BuildingBlock: XIVTED_clean_linker_0, # of connection points: 2
#     Edge 41, Type (0, 0), BuildingBlock: XIVTED_clean_linker_0, # of connection points: 2
#     Edge 42, Type (0, 0), BuildingBlock: XIVTED_clean_linker_0, # of connection points: 2
#     Edge 43, Type (0, 0), BuildingBlock: XIVTED_clean_linker_0, # of connection points: 2
#     Edge 44, Type (0, 0), BuildingBlock: XIVTED_clean_linker_0, # of connection points: 2
#     Edge 45, Type (0, 0), BuildingBlock: XIVTED_clean_linker_0, # of connection points: 2
#     Edge 46, Type (0, 0), BuildingBlock: XIVTED_clean_linker_0, # of connection points: 2
#     Edge 47, Type (0, 0), BuildingBlock: XIVTED_clean_linker_0, # of connection points: 2
#     Edge 48, Type (0, 0), BuildingBlock: XIVTED_clean_linker_0, # of connection points: 2
#     Edge 49, Type (0, 0), BuildingBlock: XIVTED_clean_linker_0, # of connection points: 2
#     Edge 50, Type (0, 0), BuildingBlock: XIVTED_clean_linker_0, # of connection points: 2
#     Edge 51, Type (0, 0), BuildingBlock: XIVTED_clean_linker_0, # of connection points: 2
#     Edge 52, Type (0, 0), BuildingBlock: XIVTED_clean_linker_0, # of connection points: 2
#     Edge 53, Type (0, 0), BuildingBlock: XIVTED_clean_linker_0, # of connection points: 2
#     Edge 54, Type (0, 0), BuildingBlock: XIVTED_clean_linker_0, # of connection points: 2
#     Edge 55, Type (0, 0), BuildingBlock: XIVTED_clean_linker_0, # of connection points: 2
#     Edge 56, Type (0, 0), BuildingBlock: XIVTED_clean_linker_0, # of connection points: 2
#     Edge 57, Type (0, 0), BuildingBlock: XIVTED_clean_linker_0, # of connection points: 2
#     Edge 58, Type (0, 0), BuildingBlock: XIVTED_clean_linker_0, # of connection points: 2
#     Edge 59, Type (0, 0), BuildingBlock: XIVTED_clean_linker_0, # of connection points: 2
#     Edge 60, Type (0, 0), BuildingBlock: XIVTED_clean_linker_0, # of connection points: 2
#     Edge 61, Type (0, 0), BuildingBlock: XIVTED_clean_linker_0, # of connection points: 2
#     Edge 62, Type (0, 0), BuildingBlock: XIVTED_clean_linker_0, # of connection points: 2
#     Edge 63, Type (0, 0), BuildingBlock: XIVTED_clean_linker_0, # of connection points: 2
#     Edge 64, Type (0, 0), BuildingBlock: XIVTED_clean_linker_0, # of connection points: 2
#     Edge 65, Type (0, 0), BuildingBlock: XIVTED_clean_linker_0, # of connection points: 2
#     Edge 66, Type (0, 0), BuildingBlock: XIVTED_clean_linker_0, # of connection points: 2
#     Edge 67, Type (0, 0), BuildingBlock: XIVTED_clean_linker_0, # of connection points: 2
#     Edge 68, Type (0, 0), BuildingBlock: XIVTED_clean_linker_0, # of connection points: 2
#     Edge 69, Type (0, 0), BuildingBlock: XIVTED_clean_linker_0, # of connection points: 2
#     Edge 70, Type (0, 0), BuildingBlock: XIVTED_clean_linker_0, # of connection points: 2
#     Edge 71, Type (0, 0), BuildingBlock: XIVTED_clean_linker_0, # of connection points: 2
#     Edge 72, Type (0, 0), BuildingBlock: XIVTED_clean_linker_0, # of connection points: 2
#     Edge 73, Type (0, 0), BuildingBlock: XIVTED_clean_linker_0, # of connection points: 2
#     Edge 74, Type (0, 0), BuildingBlock: XIVTED_clean_linker_0, # of connection points: 2
#     Edge 75, Type (0, 0), BuildingBlock: XIVTED_clean_linker_0, # of connection points: 2
#     Edge 76, Type (0, 0), BuildingBlock: XIVTED_clean_linker_0, # of connection points: 2
#     Edge 77, Type (0, 0), BuildingBlock: XIVTED_clean_linker_0, # of connection points: 2
#     Edge 78, Type (0, 0), BuildingBlock: XIVTED_clean_linker_0, # of connection points: 2
#     Edge 79, Type (0, 0), BuildingBlock: XIVTED_clean_linker_0, # of connection points: 2
#     Edge 80, Type (0, 0), BuildingBlock: XIVTED_clean_linker_0, # of connection points: 2
#     Edge 81, Type (0, 0), BuildingBlock: XIVTED_clean_linker_0, # of connection points: 2
#     Edge 82, Type (0, 0), BuildingBlock: XIVTED_clean_linker_0, # of connection points: 2
#     Edge 83, Type (0, 0), BuildingBlock: XIVTED_clean_linker_0, # of connection points: 2
#     Edge 84, Type (0, 0), BuildingBlock: XIVTED_clean_linker_0, # of connection points: 2
#     Edge 85, Type (0, 0), BuildingBlock: XIVTED_clean_linker_0, # of connection points: 2
#     Edge 86, Type (0, 0), BuildingBlock: XIVTED_clean_linker_0, # of connection points: 2
#     Edge 87, Type (0, 0), BuildingBlock: XIVTED_clean_linker_0, # of connection points: 2
#     Edge 88, Type (0, 0), BuildingBlock: XIVTED_clean_linker_0, # of connection points: 2
#     Edge 89, Type (0, 0), BuildingBlock: XIVTED_clean_linker_0, # of connection points: 2
#     Edge 90, Type (0, 0), BuildingBlock: XIVTED_clean_linker_0, # of connection points: 2
#     Edge 91, Type (0, 0), BuildingBlock: XIVTED_clean_linker_0, # of connection points: 2
#     Edge 92, Type (0, 0), BuildingBlock: XIVTED_clean_linker_0, # of connection points: 2
#     Edge 93, Type (0, 0), BuildingBlock: XIVTED_clean_linker_0, # of connection points: 2
#     Edge 94, Type (0, 0), BuildingBlock: XIVTED_clean_linker_0, # of connection points: 2
#     Edge 95, Type (0, 0), BuildingBlock: XIVTED_clean_linker_0, # of connection points: 2
# Relax obj value: 0.105
# Max RMSD: 0.149
# Mean RMSD: 0.149
data_MOF--net-uka--node1-GALJAG_clean_sbu_0--edge1-XIVTED_clean_linker_0
_symmetry_space_group_name_H-M    P1
_symmetry_Int_Tables_number       1
_symmetry_cell_setting            triclinic
loop_
_symmetry_equiv_pos_as_xyz
'x, y, z'
_cell_length_a     57.1583
_cell_length_b     57.208915
_cell_length_c     46.874724
_cell_angle_alpha  90.018024
_cell_angle_beta   90.031083
_cell_angle_gamma 90.124384
loop_
_atom_site_label
_atom_site_type_symbol
_atom_site_fract_x
_atom_site_fract_y
_atom_site_fract_z
_atom_type_partial_charge
In0 In 0.14054 0.26496 0.26664 0.0
O1 O 0.17939 0.27354 0.26795 0.0
O2 O 0.16926 0.23865 0.25788 0.0
C3 C 0.12346 0.30245 0.29412 0.0
C4 C 0.12608 0.27243 0.21269 0.0
C5 C 0.12485 0.23333 0.30472 0.0
O6 O 0.14442 0.29597 0.29695 0.0
O7 O 0.11164 0.29076 0.2764 0.0
O8 O 0.12087 0.23104 0.27831 0.0
O9 O 0.13675 0.25106 0.31129 0.0
C10 C 0.18573 0.25291 0.2624 0.0
O11 O 0.11625 0.25776 0.22893 0.0
O12 O 0.14352 0.28277 0.22344 0.0
In13 In 0.97034 0.85984 0.50787 0.0
O14 O 0.97347 0.8432 0.46356 0.0
O15 O 0.94009 0.85536 0.47706 0.0
C16 C 0.01251 0.85549 0.53259 0.0
C17 C 0.97178 0.90624 0.50072 0.0
C18 C 0.94849 0.83358 0.5473 0.0
O19 O 0.00683 0.84322 0.51116 0.0
O20 O -0.00271 0.87 0.54051 0.0
O21 O 0.94385 0.85503 0.54412 0.0
O22 O 0.96317 0.82548 0.52986 0.0
C23 C 0.95203 0.84582 0.45768 0.0
O24 O 0.95703 0.89656 0.51706 0.0
O25 O 0.98501 0.8924 0.48733 0.0
In26 In 0.37388 0.73022 0.77184 0.0
O27 O 0.40245 0.7376 0.73882 0.0
O28 O 0.3749 0.71432 0.72744 0.0
C29 C 0.38084 0.76709 0.80676 0.0
C30 C 0.32805 0.73414 0.7603 0.0
C31 C 0.3916 0.69515 0.80354 0.0
O32 O 0.38636 0.76781 0.78068 0.0
O33 O 0.37218 0.74798 0.81483 0.0
O34 O 0.3703 0.70074 0.80435 0.0
O35 O 0.40379 0.70672 0.78612 0.0
C36 C 0.39358 0.72444 0.72005 0.0
O37 O 0.33706 0.71519 0.76858 0.0
O38 O 0.34226 0.75085 0.75719 0.0
In39 In 0.50328 0.16424 0.99397 0.0
O40 O 0.52186 0.12944 -0.00051 0.0
O41 O 0.49605 0.13246 0.96676 0.0
C42 C 0.51997 0.18629 0.04044 0.0
C43 C 0.52155 0.18616 0.9482 0.0
C44 C 0.4594 0.15993 0.01431 0.0
O45 O 0.52675 0.16608 0.03345 0.0
O46 O 0.50556 0.19551 0.02345 0.0
O47 O 0.46549 0.17756 -0.00024 0.0
O48 O 0.47505 0.1447 0.01733 0.0
C49 C 0.51023 0.11944 0.97999 0.0
O50 O 0.49974 0.18314 0.95097 0.0
O51 O 0.53374 0.17842 0.96851 0.0
In52 In 0.12194 0.71716 0.23487 0.0
O53 O 0.15997 0.70681 0.22758 0.0
O54 O 0.15303 0.73774 0.25134 0.0
C55 C 0.11166 0.68665 0.19265 0.0
C56 C 0.1047 0.70578 0.28674 0.0
C57 C 0.10158 0.75564 0.21326 0.0
O58 O 0.12202 0.70576 0.18836 0.0
O59 O 0.10727 0.68238 0.2185 0.0
O60 O 0.09023 0.73736 0.21933 0.0
O61 O 0.12309 0.75483 0.21917 0.0
C62 C 0.16815 0.72444 0.24038 0.0
O63 O 0.12186 0.69529 0.27573 0.0
O64 O 0.09654 0.72217 0.27185 0.0
In65 In 0.49394 0.82299 0.49531 0.0
O66 O 0.49042 0.80458 0.53861 0.0
O67 O 0.52416 0.80738 0.5199 0.0
C68 C 0.44917 0.82646 0.4776 0.0
C69 C 0.50424 0.86723 0.50944 0.0
C70 C 0.5109 0.80222 0.44813 0.0
O71 O 0.4565 0.80862 0.49072 0.0
O72 O 0.4641 0.84246 0.47462 0.0
O73 O 0.51624 0.82288 0.455 0.0
O74 O 0.49744 0.79192 0.46536 0.0
C75 C 0.51207 0.80051 0.54074 0.0
O76 O 0.51415 0.85682 0.48898 0.0
O77 O 0.48957 0.85506 0.52313 0.0
In78 In 0.36849 0.23464 0.72807 0.0
O79 O 0.40088 0.24565 0.75357 0.0
O80 O 0.37011 0.23769 0.77677 0.0
C81 C 0.3765 0.19131 0.70764 0.0
C82 C 0.32179 0.23864 0.73393 0.0
C83 C 0.38378 0.26328 0.68622 0.0
O84 O 0.38879 0.20019 0.72725 0.0
O85 O 0.35982 0.20395 0.69929 0.0
O86 O 0.37381 0.27105 0.70831 0.0
O87 O 0.38602 0.2414 0.68552 0.0
C88 C 0.39122 0.24404 0.77763 0.0
O89 O 0.33403 0.25394 0.7215 0.0
O90 O 0.33319 0.22169 0.74403 0.0
In91 In 0.96941 0.14098 0.98775 0.0
O92 O 0.96263 0.10246 0.99399 0.0
O93 O -0.00303 0.11467 0.00297 0.0
C94 C 0.94734 0.13314 0.93793 0.0
C95 C 0.94815 0.15702 0.03543 0.0
C96 C -0.00193 0.1737 0.96555 0.0
O97 O 0.96815 0.12693 0.94247 0.0
O98 O 0.93747 0.14319 0.9587 0.0
O99 O 0.97623 0.17649 0.96742 0.0
O100 O 0.00559 0.15506 0.97664 0.0
C101 C 0.98324 0.09742 0.00113 0.0
O102 O 0.96994 0.15878 0.03163 0.0
O103 O 0.93726 0.14735 0.01525 0.0
In104 In 0.86728 0.69485 0.7286 0.0
O105 O 0.82875 0.686 0.7323 0.0
O106 O 0.84006 0.71884 0.74857 0.0
C107 C 0.86659 0.66776 0.68156 0.0
C108 C 0.88743 0.67836 0.77681 0.0
C109 C 0.89106 0.72989 0.70351 0.0
O110 O 0.85536 0.68661 0.68344 0.0
O111 O 0.87762 0.66208 0.70385 0.0
O112 O 0.87096 0.73267 0.71409 0.0
O113 O 0.89966 0.70979 0.70707 0.0
C114 C 0.82321 0.70509 0.74387 0.0
O115 O 0.89269 0.69794 0.76623 0.0
O116 O 0.87205 0.6672 0.76316 0.0
In117 In 0.00631 0.12375 0.48665 0.0
O118 O -0.0 0.15195 0.52047 0.0
O119 O 0.02658 0.12671 0.52813 0.0
C120 C 0.96912 0.12754 0.45162 0.0
C121 C 0.00178 0.07842 0.50016 0.0
C122 C 0.03931 0.14275 0.4528 0.0
O123 O 0.96876 0.13591 0.4766 0.0
O124 O 0.988 0.11777 0.44478 0.0
O125 O 0.03676 0.12092 0.45517 0.0
O126 O 0.0257 0.15481 0.46797 0.0
C127 C 0.01603 0.14471 0.53681 0.0
O128 O 0.02004 0.08663 0.48871 0.0
O129 O 0.98619 0.09331 0.50591 0.0
In130 In 0.59921 0.30366 0.24094 0.0
O131 O 0.63758 0.3092 0.2513 0.0
O132 O 0.62314 0.27543 0.25868 0.0
C133 C 0.60741 0.32698 0.19195 0.0
C134 C 0.579 0.32262 0.28775 0.0
C135 C 0.57105 0.27314 0.21379 0.0
O136 O 0.61759 0.30823 0.19847 0.0
O137 O 0.59389 0.33485 0.21099 0.0
O138 O 0.58936 0.26685 0.22675 0.0
O139 O 0.5661 0.29453 0.21635 0.0
C140 C 0.64109 0.28831 0.25881 0.0
O141 O 0.57456 0.30218 0.27927 0.0
O142 O 0.59364 0.33356 0.27266 0.0
In143 In 0.47253 0.90186 0.97865 0.0
O144 O 0.46079 0.93957 0.97478 0.0
O145 O 0.4949 0.93311 0.99125 0.0
C146 C 0.43828 0.88048 0.94895 0.0
C147 C 0.46308 0.88723 0.03198 0.0
C148 C 0.50798 0.88909 0.94422 0.0
O149 O 0.44317 0.9018 0.94541 0.0
O150 O 0.45 0.87038 0.96807 0.0
O151 O 0.50802 0.88417 0.97051 0.0
O152 O 0.49049 0.90055 0.93592 0.0
C153 C 0.47985 0.94801 0.98374 0.0
O154 O 0.48001 0.87929 0.01763 0.0
O155 O 0.45143 0.90307 0.01975 0.0
In156 In 0.89361 0.24293 0.7507 0.0
O157 O 0.91214 0.24207 0.70733 0.0
O158 O 0.90514 0.27511 0.72616 0.0
C159 C 0.89482 0.19785 0.76694 0.0
C160 C 0.84787 0.24873 0.73992 0.0
C161 C 0.91597 0.25907 0.79749 0.0
O162 O 0.91022 0.20652 0.75071 0.0
O163 O 0.87855 0.21162 0.77357 0.0
O164 O 0.89513 0.26462 0.79172 0.0
O165 O 0.92561 0.24607 0.77929 0.0
C166 C 0.91371 0.26403 0.70542 0.0
O167 O 0.85856 0.26025 0.7589 0.0
O168 O 0.86045 0.23474 0.72581 0.0
In169 In 0.48997 0.08706 0.52553 0.0
O170 O 0.4969 0.10501 0.48281 0.0
O171 O 0.46446 0.08739 0.48798 0.0
C172 C 0.52534 0.11334 0.54602 0.0
C173 C 0.49685 0.04055 0.5232 0.0
C174 C 0.45884 0.09732 0.56689 0.0
O175 O 0.50745 0.12197 0.53435 0.0
O176 O 0.5259 0.09128 0.54639 0.0
O177 O 0.47806 0.08737 0.57174 0.0
O178 O 0.45509 0.10201 0.54098 0.0
C179 C 0.47742 0.09956 0.47203 0.0
O180 O 0.47971 0.04984 0.5356 0.0
O181 O 0.51065 0.05474 0.51122 0.0
In182 In 0.61446 0.69211 0.25872 0.0
O183 O 0.65321 0.68763 0.24935 0.0
O184 O 0.63803 0.72081 0.24096 0.0
C185 C 0.6219 0.67009 0.30875 0.0
C186 C 0.59482 0.67182 0.21241 0.0
C187 C 0.58291 0.72067 0.28301 0.0
O188 O 0.62948 0.69033 0.3035 0.0
O189 O 0.61162 0.6603 0.28806 0.0
O190 O 0.57952 0.699 0.28008 0.0
O191 O 0.60168 0.72819 0.27214 0.0
C192 C 0.65629 0.70846 0.24135 0.0
O193 O 0.59125 0.69284 0.21914 0.0
O194 O 0.60869 0.66108 0.22871 0.0
In195 In 0.02134 0.88336 0.01809 0.0
O196 O 0.0374 0.91967 0.02284 0.0
O197 O 0.01028 0.91461 0.99216 0.0
C198 C 0.04207 0.8588 0.05976 0.0
C199 C 0.03626 0.86163 0.97048 0.0
C200 C 0.97932 0.88554 0.04378 0.0
O201 O 0.04961 0.87868 0.05232 0.0
O202 O 0.025 0.85125 0.04542 0.0
O203 O 0.98256 0.87326 0.02166 0.0
O204 O -0.00302 0.8969 0.05208 0.0
C205 C 0.02412 0.92869 0.0043 0.0
O206 O 0.01529 0.86033 0.97889 0.0
O207 O 0.04951 0.87388 0.98602 0.0
In208 In 0.60996 0.75762 0.77644 0.0
O209 O 0.57947 0.75029 0.74625 0.0
O210 O 0.60854 0.76965 0.73035 0.0
C211 C 0.6009 0.72409 0.81527 0.0
C212 C 0.65482 0.7484 0.76413 0.0
C213 C 0.59626 0.79659 0.80389 0.0
O214 O 0.59613 0.72143 0.78918 0.0
O215 O 0.60955 0.74365 0.82159 0.0
O216 O 0.61677 0.78867 0.80593 0.0
O217 O 0.58296 0.78527 0.78742 0.0
C218 C 0.58868 0.76082 0.72539 0.0
O219 O 0.64802 0.76872 0.77056 0.0
O220 O 0.63892 0.73312 0.76319 0.0
In221 In 0.48584 0.32812 -0.00137 0.0
O222 O 0.4643 0.36132 0.00319 0.0
O223 O 0.48896 0.35919 0.96916 0.0
C224 C 0.47227 0.30694 0.04716 0.0
C225 C 0.46937 0.30258 0.95455 0.0
C226 C 0.52974 0.33712 0.0167 0.0
O227 O 0.46309 0.32577 0.03867 0.0
O228 O 0.48745 0.29847 0.03061 0.0
O229 O 0.52483 0.31859 0.00318 0.0
O230 O 0.51285 0.35095 0.01987 0.0
C231 C 0.47416 0.37144 0.98243 0.0
O232 O 0.49069 0.30823 0.95658 0.0
O233 O 0.45669 0.30946 0.97488 0.0
In234 In 0.84837 0.21239 0.26766 0.0
O235 O 0.80912 0.20492 0.26525 0.0
O236 O 0.82124 0.23909 0.255 0.0
C237 C 0.86288 0.17572 0.29896 0.0
C238 C 0.86672 0.20402 0.2158 0.0
C239 C 0.86296 0.24562 0.3043 0.0
O240 O 0.84246 0.18388 0.3011 0.0
O241 O 0.87532 0.18516 0.27997 0.0
O242 O 0.86796 0.24649 0.27806 0.0
O243 O 0.85075 0.22831 0.31156 0.0
C244 C 0.80398 0.22563 0.25836 0.0
O245 O 0.87544 0.21868 0.23297 0.0
O246 O 0.84846 0.19383 0.22462 0.0
In247 In 0.0053 0.62593 0.50824 0.0
O248 O 0.02106 0.58994 0.51436 0.0
O249 O -0.00346 0.5947 0.48053 0.0
C250 C 0.02193 0.64648 0.55583 0.0
C251 C 0.02603 0.64744 0.46369 0.0
C252 C 0.9603 0.62443 0.52487 0.0
O253 O 0.02923 0.62687 0.54733 0.0
O254 O 0.007 0.65596 0.5398 0.0
O255 O 0.96786 0.64036 0.50854 0.0
O256 O 0.97526 0.60937 0.53193 0.0
C257 C 0.0095 0.5808 0.49423 0.0
O258 O 0.00413 0.64769 0.46723 0.0
O259 O 0.03727 0.63665 0.48269 0.0
In260 In 0.62637 0.24682 0.72098 0.0
O261 O 0.59308 0.23959 0.74669 0.0
O262 O 0.62526 0.24058 0.76914 0.0
C263 C 0.61782 0.28981 0.69991 0.0
C264 C 0.6731 0.24526 0.72764 0.0
C265 C 0.61152 0.21625 0.68087 0.0
O266 O 0.60647 0.28148 0.72066 0.0
O267 O 0.63382 0.27677 0.69061 0.0
O268 O 0.60994 0.23808 0.67829 0.0
O269 O 0.62067 0.2095 0.70396 0.0
C270 C 0.6034 0.23782 0.77034 0.0
O271 O 0.66187 0.22962 0.71442 0.0
O272 O 0.66069 0.26134 0.73808 0.0
In273 In 0.03297 0.35442 0.98806 0.0
O274 O 0.03095 0.33323 0.02948 0.0
O275 O 0.06442 0.34427 0.01525 0.0
C276 C 0.00351 0.32381 0.96308 0.0
C277 C 0.02018 0.39707 0.00673 0.0
C278 C 0.05522 0.36448 0.93886 0.0
O279 O -0.00353 0.34209 0.97548 0.0
O280 O 0.02527 0.32032 0.96479 0.0
O281 O 0.03441 0.37051 0.94376 0.0
O282 O 0.0651 0.35378 0.95912 0.0
C283 C 0.05273 0.33349 0.03386 0.0
O284 O 0.04096 0.3919 0.00044 0.0
O285 O 0.0058 0.38039 0.00472 0.0
In286 In 0.86214 0.78901 0.21893 0.0
O287 O 0.82263 0.79526 0.22176 0.0
O288 O 0.83577 0.76165 0.23244 0.0
C289 C 0.8733 0.82636 0.18661 0.0
C290 C 0.88102 0.79905 0.27023 0.0
C291 C 0.87771 0.75474 0.18426 0.0
O292 O 0.85388 0.81598 0.18438 0.0
O293 O 0.88653 0.81855 0.20589 0.0
O294 O 0.88098 0.75411 0.2109 0.0
O295 O 0.86711 0.7726 0.17549 0.0
C296 C 0.81811 0.77453 0.22926 0.0
O297 O 0.891 0.78596 0.25229 0.0
O298 O 0.86141 0.80694 0.26236 0.0
In299 In 0.48732 0.65585 0.49138 0.0
O300 O 0.49101 0.67596 0.53355 0.0
O301 O 0.45703 0.67163 0.51592 0.0
C302 C 0.53217 0.65037 0.47478 0.0
C303 C 0.47651 0.612 0.50679 0.0
C304 C 0.47196 0.6765 0.44322 0.0
O305 O 0.52558 0.66819 0.48855 0.0
O306 O 0.5164 0.63539 0.47046 0.0
O307 O 0.46492 0.6566 0.45106 0.0
O308 O 0.48611 0.68625 0.46013 0.0
C309 C 0.46931 0.6795 0.53611 0.0
O310 O 0.46698 0.62197 0.48573 0.0
O311 O 0.49104 0.62441 0.52038 0.0
In312 In 0.39567 0.19216 0.24692 0.0
O313 O 0.40338 0.16014 0.27446 0.0
O314 O 0.41863 0.19247 0.28682 0.0
C315 C 0.42398 0.22452 0.22367 0.0
C316 C 0.35283 0.2034 0.2659 0.0
C317 C 0.38794 0.17295 0.19525 0.0
O318 O 0.42941 0.20317 0.22514 0.0
O319 O 0.40509 0.22981 0.23604 0.0
O320 O 0.37834 0.19156 0.20346 0.0
O321 O 0.40073 0.16318 0.21374 0.0
C322 C 0.4161 0.17098 0.29205 0.0
O323 O 0.35798 0.18322 0.25713 0.0
O324 O 0.36965 0.21774 0.26636 0.0
In325 In 0.51178 0.58813 0.98513 0.0
O326 O 0.50511 0.60787 0.02665 0.0
O327 O 0.53375 0.58412 0.02514 0.0
C328 C 0.47834 0.60367 0.94944 0.0
C329 C 0.50206 0.54229 0.98606 0.0
C330 C 0.54683 0.61027 0.9582 0.0
O331 O 0.47735 0.6077 0.97597 0.0
O332 O 0.49555 0.59157 0.94168 0.0
O333 O 0.5431 0.58866 0.95491 0.0
O334 O 0.53354 0.62025 0.97586 0.0
C335 C 0.52248 0.59904 0.03942 0.0
O336 O 0.52122 0.55035 0.97691 0.0
O337 O 0.48807 0.55734 0.99587 0.0
In338 In 0.10993 0.7707 0.73975 0.0
O339 O 0.08894 0.76846 0.78137 0.0
O340 O 0.1094 0.79885 0.77412 0.0
C341 C 0.08467 0.73418 0.72075 0.0
C342 C 0.15595 0.7631 0.74687 0.0
C343 C 0.10336 0.79674 0.69247 0.0
O344 O 0.07577 0.75392 0.72583 0.0
O345 O 0.10609 0.73245 0.72701 0.0
O346 O 0.11499 0.77807 0.69249 0.0
O347 O 0.09548 0.80271 0.71654 0.0
C348 C 0.09555 0.78815 0.79045 0.0
O349 O 0.14791 0.78111 0.73495 0.0
O350 O 0.1407 0.7489 0.75585 0.0
In351 In 0.97975 0.36267 0.47814 0.0
O352 O 0.96624 0.39988 0.47811 0.0
O353 O 0.00051 0.39371 0.49443 0.0
C354 C 0.94502 0.34226 0.44852 0.0
C355 C 0.97284 0.34387 0.53002 0.0
C356 C 0.0152 0.35722 0.44098 0.0
O357 O 0.94786 0.36415 0.44884 0.0
O358 O 0.95926 0.33088 0.46362 0.0
O359 O 0.01701 0.35075 0.46668 0.0
O360 O -0.00429 0.36587 0.43444 0.0
C361 C 0.98486 0.40841 0.48828 0.0
O362 O 0.98794 0.33593 0.51289 0.0
O363 O 0.96174 0.3615 0.52117 0.0
In364 In 0.37814 0.78802 0.25122 0.0
O365 O 0.39858 0.78821 0.2093 0.0
O366 O 0.38632 0.82071 0.22526 0.0
C367 C 0.40938 0.75775 0.27287 0.0
C368 C 0.33487 0.77596 0.23414 0.0
C369 C 0.37058 0.80691 0.30305 0.0
O370 O 0.41321 0.77944 0.2713 0.0
O371 O 0.39044 0.75109 0.26157 0.0
O372 O 0.36301 0.78707 0.29591 0.0
O373 O 0.38129 0.81781 0.28355 0.0
C374 C 0.39736 0.81006 0.20595 0.0
O375 O 0.34022 0.79637 0.24192 0.0
O376 O 0.3517 0.76172 0.23361 0.0
In377 In 0.96874 0.6117 0.01498 0.0
O378 O 0.95721 0.5738 0.02165 0.0
O379 O 0.98942 0.58058 0.00016 0.0
C380 C 0.93904 0.63747 0.04631 0.0
C381 C 0.95549 0.62264 0.9616 0.0
C382 C 0.00735 0.62171 0.04543 0.0
O383 O 0.94068 0.6156 0.04962 0.0
O384 O 0.95169 0.64587 0.02683 0.0
O385 O 0.00454 0.62954 0.0204 0.0
O386 O 0.99087 0.60911 0.05454 0.0
C387 C 0.97538 0.56555 0.01 0.0
O388 O 0.97451 0.62992 0.97226 0.0
O389 O 0.94349 0.6096 0.97772 0.0
In390 In 0.10132 0.25393 0.74911 0.0
O391 O 0.08283 0.25441 0.70549 0.0
O392 O 0.08821 0.2217 0.72578 0.0
C393 C 0.10073 0.29927 0.76472 0.0
C394 C 0.14689 0.2465 0.73857 0.0
C395 C 0.08032 0.2389 0.79736 0.0
O396 O 0.08459 0.29034 0.7498 0.0
O397 O 0.11747 0.28567 0.77007 0.0
O398 O 0.10092 0.23317 0.79078 0.0
O399 O 0.07009 0.2515 0.77919 0.0
C400 C 0.08022 0.2325 0.70451 0.0
O401 O 0.1356 0.23524 0.75723 0.0
O402 O 0.13497 0.26113 0.72454 0.0
In403 In 0.49831 0.39359 0.52449 0.0
O404 O 0.49271 0.37509 0.48175 0.0
O405 O 0.5231 0.39615 0.48645 0.0
C406 C 0.46429 0.36594 0.54583 0.0
C407 C 0.4885 0.43958 0.52335 0.0
C408 C 0.53128 0.38457 0.56416 0.0
O409 O 0.48281 0.35798 0.53495 0.0
O410 O 0.46239 0.38789 0.54477 0.0
O411 O 0.53427 0.38008 0.53806 0.0
O412 O 0.51188 0.39377 0.57006 0.0
C413 C 0.51132 0.38271 0.47064 0.0
O414 O 0.50544 0.43107 0.53698 0.0
O415 O 0.47643 0.42489 0.50961 0.0
H416 H 0.05778 0.1235 0.40434 0.0
H417 H 0.12705 0.23948 0.36198 0.0
H418 H 0.05712 0.18677 0.45443 0.0
H419 H 0.1012 0.19162 0.29803 0.0
H420 H 0.1092 0.21544 0.3989 0.0
H421 H 0.08125 0.14377 0.36791 0.0
C422 C 0.0629 0.14152 0.40784 0.0
C423 C 0.05552 0.15358 0.43229 0.0
C424 C 0.10753 0.21011 0.37681 0.0
C425 C 0.08224 0.17658 0.39114 0.0
C426 C 0.11776 0.22377 0.35569 0.0
C427 C 0.11541 0.21762 0.32686 0.0
C428 C 0.09501 0.18999 0.36916 0.0
C429 C 0.10325 0.19703 0.32002 0.0
C430 C 0.07609 0.15306 0.38702 0.0
C431 C 0.06238 0.17691 0.43579 0.0
N432 N 0.0934 0.1839 0.34109 0.0
N433 N 0.0754 0.18765 0.41545 0.0
H434 H 0.0301 0.88329 0.57438 0.0
H435 H 0.11025 0.78195 0.63772 0.0
H436 H 0.0422 0.8178 0.53122 0.0
H437 H 0.08216 0.83922 0.68676 0.0
H438 H 0.09446 0.79967 0.59427 0.0
H439 H 0.05868 0.87229 0.61053 0.0
C440 C 0.03915 0.86676 0.5722 0.0
C441 C 0.0335 0.85122 0.55008 0.0
C442 C 0.09209 0.80852 0.61448 0.0
C443 C 0.06599 0.83841 0.59161 0.0
C444 C 0.10114 0.79848 0.63927 0.0
C445 C 0.09721 0.80903 0.66588 0.0
C446 C 0.07921 0.82931 0.61638 0.0
C447 C 0.08534 0.83041 0.66669 0.0
C448 C 0.0554 0.86047 0.59292 0.0
C449 C 0.04594 0.83018 0.54809 0.0
N450 N 0.07658 0.83975 0.64231 0.0
N451 N 0.06137 0.82418 0.56894 0.0
H452 H 0.41658 0.83911 0.95946 0.0
H453 H 0.39887 0.81076 0.79572 0.0
H454 H 0.426 0.89141 0.8942 0.0
H455 H 0.3714 0.76769 0.86351 0.0
H456 H 0.40748 0.84145 0.83083 0.0
H457 H 0.39785 0.81364 0.92448 0.0
C458 C 0.41428 0.84537 0.93783 0.0
C459 C 0.42292 0.86727 0.92959 0.0
C460 C 0.3993 0.82538 0.8379 0.0
C461 C 0.4021 0.83805 0.88924 0.0
C462 C 0.39449 0.80785 0.81792 0.0
C463 C 0.3847 0.78658 0.82682 0.0
C464 C 0.39446 0.82139 0.86691 0.0
C465 C 0.37919 0.78374 0.85577 0.0
C466 C 0.40363 0.83083 0.91783 0.0
C467 C 0.41951 0.87462 0.90134 0.0
N468 N 0.38437 0.80083 0.87479 0.0
N469 N 0.40973 0.85983 0.88197 0.0
H470 H 0.40463 0.13253 0.17164 0.0
H471 H 0.42946 0.19556 0.02847 0.0
H472 H 0.37166 0.19793 0.14992 0.0
H473 H 0.44107 0.12173 0.04039 0.0
H474 H 0.40243 0.19511 0.06897 0.0
H475 H 0.41263 0.12589 0.12111 0.0
C476 C 0.39859 0.14522 0.15615 0.0
C477 C 0.38785 0.16597 0.16497 0.0
C478 C 0.41036 0.17886 0.06221 0.0
C479 C 0.39741 0.15884 0.10724 0.0
C480 C 0.42569 0.17911 0.03897 0.0
C481 C 0.43789 0.15878 0.03158 0.0
C482 C 0.40758 0.1582 0.07817 0.0
C483 C 0.43238 0.13792 0.04586 0.0
C484 C 0.40314 0.14145 0.12727 0.0
C485 C 0.38024 0.18179 0.14402 0.0
N486 N 0.41807 0.13827 0.06891 0.0
N487 N 0.38568 0.17818 0.11617 0.0
H488 H 0.05622 0.76023 0.19646 0.0
H489 H 0.08144 0.86783 0.09174 0.0
H490 H 0.12352 0.79438 0.1917 0.0
H491 H 0.0227 0.82065 0.08459 0.0
H492 H 0.09496 0.84582 0.13367 0.0
H493 H 0.04093 0.78804 0.16179 0.0
C494 C 0.06768 0.77383 0.18844 0.0
C495 C 0.09123 0.77485 0.19664 0.0
C496 C 0.07909 0.8404 0.12288 0.0
C497 C 0.07397 0.80649 0.15664 0.0
C498 C 0.07144 0.85287 0.09898 0.0
C499 C 0.05109 0.84587 0.08457 0.0
C500 C 0.06607 0.82107 0.13247 0.0
C501 C 0.03863 0.8265 0.09488 0.0
C502 C 0.05899 0.78961 0.16851 0.0
C503 C 0.10528 0.79291 0.18573 0.0
N504 N 0.04632 0.81481 0.11817 0.0
N505 N 0.0965 0.80792 0.16597 0.0
H506 H 0.38427 0.84928 0.32443 0.0
H507 H 0.41836 0.79048 0.46799 0.0
H508 H 0.35795 0.78173 0.34998 0.0
H509 H 0.42975 0.86363 0.45034 0.0
H510 H 0.38901 0.78933 0.43005 0.0
H511 H 0.39377 0.85775 0.37416 0.0
C512 C 0.37999 0.83646 0.34062 0.0
C513 C 0.37082 0.8146 0.33306 0.0
C514 C 0.39745 0.80581 0.43497 0.0
C515 C 0.38211 0.82386 0.38987 0.0
C516 C 0.41415 0.80646 0.45673 0.0
C517 C 0.42691 0.82701 0.46172 0.0
C518 C 0.39383 0.82576 0.41799 0.0
C519 C 0.42068 0.84726 0.44667 0.0
C520 C 0.3854 0.84127 0.36905 0.0
C521 C 0.36536 0.79869 0.35488 0.0
N522 N 0.40498 0.846 0.42501 0.0
N523 N 0.37163 0.80339 0.38223 0.0
H524 H 0.35493 0.17171 0.66157 0.0
H525 H 0.46608 0.09354 0.62422 0.0
H526 H 0.41426 0.16309 0.71755 0.0
H527 H 0.41563 0.11743 0.56227 0.0
H528 H 0.44198 0.11006 0.66225 0.0
H529 H 0.37152 0.14256 0.62939 0.0
C530 C 0.3712 0.1633 0.66742 0.0
C531 C 0.38349 0.17011 0.69198 0.0
C532 C 0.43604 0.11141 0.64037 0.0
C533 C 0.40261 0.13698 0.65515 0.0
C534 C 0.44976 0.10199 0.61865 0.0
C535 C 0.44298 0.10448 0.59004 0.0
C536 C 0.41539 0.12332 0.63339 0.0
C537 C 0.42162 0.1154 0.58404 0.0
C538 C 0.3807 0.14675 0.64896 0.0
C539 C 0.40438 0.15853 0.69863 0.0
N540 N 0.40866 0.12464 0.60554 0.0
N541 N 0.41349 0.14274 0.68007 0.0
H542 H 0.0375 0.25195 0.81765 0.0
H543 H 0.04477 0.16914 0.95438 0.0
H544 H 0.09817 0.21079 0.83923 0.0
H545 H 0.98463 0.21134 0.93362 0.0
H546 H 0.06647 0.18806 0.91586 0.0
H547 H 0.01939 0.24038 0.8627 0.0
C548 C 0.047 0.24045 0.83188 0.0
C549 C 0.06926 0.23209 0.82457 0.0
C550 C 0.04864 0.19344 0.91998 0.0
C551 C 0.04867 0.21886 0.87623 0.0
C552 C 0.03628 0.18274 0.9421 0.0
C553 C 0.01278 0.18849 0.94698 0.0
C554 C 0.03735 0.20988 0.90252 0.0
C555 C 0.00268 0.20626 0.93045 0.0
C556 C 0.03669 0.23394 0.85766 0.0
C557 C 0.08088 0.21747 0.84394 0.0
N558 N 0.01492 0.2161 0.9087 0.0
N559 N 0.07039 0.21119 0.8688 0.0
H560 H 0.91593 0.84574 0.5878 0.0
H561 H 0.93162 0.72569 0.67342 0.0
H562 H 0.9608 0.7892 0.56123 0.0
H563 H 0.87498 0.77357 0.69 0.0
H564 H 0.94611 0.75201 0.63649 0.0
H565 H 0.9033 0.82207 0.62874 0.0
C566 C 0.923 0.82833 0.59049 0.0
C567 C 0.93933 0.81935 0.57105 0.0
C568 C 0.93061 0.75688 0.64834 0.0
C569 C 0.92537 0.79249 0.61787 0.0
C570 C 0.92244 0.74194 0.66959 0.0
C571 C 0.90201 0.74741 0.68467 0.0
C572 C 0.91829 0.77748 0.64212 0.0
C573 C 0.89078 0.76868 0.67878 0.0
C574 C 0.91587 0.81489 0.61386 0.0
C575 C 0.94808 0.79677 0.5756 0.0
N576 N 0.89899 0.78291 0.6578 0.0
N577 N 0.94105 0.78417 0.59856 0.0
H578 H 0.92666 0.14951 0.4585 0.0
H579 H 0.90088 0.14766 0.29316 0.0
H580 H 0.96731 0.10978 0.398 0.0
H581 H 0.84931 0.17014 0.35435 0.0
H582 H 0.9237 0.13058 0.33186 0.0
H583 H 0.89653 0.15509 0.42173 0.0
C584 C 0.92911 0.14177 0.43762 0.0
C585 C 0.94963 0.12948 0.43113 0.0
C586 C 0.90716 0.13881 0.33686 0.0
C587 C 0.91546 0.13575 0.38917 0.0
C588 C 0.8941 0.14845 0.31473 0.0
C589 C 0.8733 0.16037 0.32066 0.0
C590 C 0.89964 0.14164 0.3652 0.0
C591 C 0.86527 0.16101 0.34894 0.0
C592 C 0.91191 0.14486 0.4167 0.0
C593 C 0.9519 0.11966 0.40383 0.0
N594 N 0.87873 0.15222 0.37032 0.0
N595 N 0.93518 0.12324 0.3838 0.0
H596 H 0.548 0.16918 0.08313 0.0
H597 H 0.53452 0.28434 0.17891 0.0
H598 H 0.50753 0.22953 0.05887 0.0
H599 H 0.58124 0.22778 0.20013 0.0
H600 H 0.5207 0.26207 0.13785 0.0
H601 H 0.55767 0.18846 0.12837 0.0
C602 C 0.54125 0.18653 0.08728 0.0
C603 C 0.52702 0.19786 0.06723 0.0
C604 C 0.53373 0.25435 0.15168 0.0
C605 C 0.53776 0.21986 0.11889 0.0
C606 C 0.54151 0.26701 0.17527 0.0
C607 C 0.55917 0.25795 0.19284 0.0
C608 C 0.54368 0.23247 0.14558 0.0
C609 C 0.56765 0.23544 0.18706 0.0
C610 C 0.54667 0.19747 0.11313 0.0
C611 C 0.51861 0.22023 0.07373 0.0
N612 N 0.55999 0.22354 0.16374 0.0
N613 N 0.52413 0.2305 0.09895 0.0
H614 H 0.5471 0.86261 0.95498 0.0
H615 H 0.55807 0.82378 0.79464 0.0
H616 H 0.50863 0.89578 0.8869 0.0
H617 H 0.61408 0.81201 0.85461 0.0
H618 H 0.54012 0.8509 0.82833 0.0
H619 H 0.57265 0.8444 0.91924 0.0
C620 C 0.54426 0.86631 0.93259 0.0
C621 C 0.52558 0.88045 0.92383 0.0
C622 C 0.55654 0.8427 0.83398 0.0
C623 C 0.5544 0.85963 0.88308 0.0
C624 C 0.56675 0.82723 0.81476 0.0
C625 C 0.58747 0.81564 0.82198 0.0
C626 C 0.56685 0.84617 0.86087 0.0
C627 C 0.59808 0.82069 0.84829 0.0
C628 C 0.55884 0.85599 0.91224 0.0
C629 C 0.52269 0.88479 0.89458 0.0
N630 N 0.58741 0.83529 0.86709 0.0
N631 N 0.53671 0.87415 0.87525 0.0
H632 H 0.86329 0.17514 0.80055 0.0
H633 H 0.96805 0.1202 0.8879 0.0
H634 H 0.93441 0.17111 0.77023 0.0
H635 H 0.90195 0.14203 0.92334 0.0
H636 H 0.95183 0.12486 0.83993 0.0
H637 H 0.87317 0.14831 0.83913 0.0
C638 C 0.88081 0.168 0.80146 0.0
C639 C 0.89827 0.17588 0.78275 0.0
C640 C 0.94073 0.12811 0.85822 0.0
C641 C 0.90975 0.14562 0.82706 0.0
C642 C 0.94995 0.12547 0.88559 0.0
C643 C 0.93644 0.13131 0.90953 0.0
C644 C 0.91787 0.13657 0.85489 0.0
C645 C 0.91308 0.13781 0.90539 0.0
C646 C 0.88647 0.15278 0.82359 0.0
C647 C 0.92055 0.16579 0.78458 0.0
N648 N 0.90462 0.14061 0.87854 0.0
N649 N 0.92586 0.15161 0.8069 0.0
H650 H 0.61165 0.1682 0.68089 0.0
H651 H 0.5307 0.16054 0.54259 0.0
H652 H 0.59108 0.22783 0.63047 0.0
H653 H 0.55865 0.09953 0.58447 0.0
H654 H 0.55501 0.18523 0.57297 0.0
H655 H 0.59435 0.14238 0.64472 0.0
C656 C 0.60365 0.17583 0.66214 0.0
C657 C 0.6026 0.20016 0.65876 0.0
C658 C 0.55609 0.16644 0.57535 0.0
C659 C 0.58282 0.17088 0.61747 0.0
C660 C 0.54223 0.15234 0.55795 0.0
C661 C 0.54258 0.128 0.56117 0.0
C662 C 0.5702 0.15615 0.59643 0.0
C663 C 0.55787 0.11827 0.58135 0.0
C664 C 0.59383 0.16112 0.64149 0.0
C665 C 0.59212 0.20916 0.63404 0.0
N666 N 0.57087 0.1324 0.59852 0.0
N667 N 0.58251 0.19454 0.61448 0.0
H668 H 0.58808 0.76703 0.29598 0.0
H669 H 0.50286 0.75766 0.43007 0.0
H670 H 0.5449 0.70682 0.31386 0.0
H671 H 0.5381 0.82147 0.40621 0.0
H672 H 0.51744 0.73918 0.38659 0.0
H673 H 0.56829 0.78827 0.33426 0.0
C674 C 0.57413 0.75844 0.3076 0.0
C675 C 0.56823 0.73509 0.30192 0.0
C676 C 0.52174 0.75731 0.39066 0.0
C677 C 0.54587 0.75907 0.34602 0.0
C678 C 0.51356 0.7678 0.41556 0.0
C679 C 0.51939 0.79105 0.42176 0.0
C680 C 0.53579 0.7702 0.37176 0.0
C681 C 0.53331 0.80344 0.40227 0.0
C682 C 0.56292 0.77052 0.32954 0.0
C683 C 0.55006 0.72478 0.31763 0.0
N684 N 0.54111 0.79283 0.37815 0.0
N685 N 0.53972 0.73674 0.3392 0.0
H686 H 0.85897 0.83106 0.13134 0.0
H687 H 0.9701 0.90937 0.09271 0.0
H688 H 0.90775 0.85888 0.19289 0.0
H689 H 0.93985 0.85899 0.03481 0.0
H690 H 0.93851 0.90168 0.12642 0.0
H691 H 0.87997 0.85196 0.09343 0.0
C692 C 0.87364 0.84215 0.13698 0.0
C693 C 0.88186 0.84311 0.16517 0.0
C694 C 0.93855 0.89263 0.10611 0.0
C695 C 0.90576 0.8669 0.12216 0.0
C696 C 0.95654 0.89701 0.08682 0.0
C697 C 0.95783 0.88443 0.06116 0.0
C698 C 0.92168 0.8756 0.09969 0.0
C699 C 0.93965 0.86884 0.05453 0.0
C700 C 0.88568 0.8539 0.11534 0.0
C701 C 0.90103 0.85754 0.17135 0.0
N702 N 0.92243 0.8646 0.07391 0.0
N703 N 0.91248 0.86873 0.14996 0.0
H704 H 0.56369 0.59786 0.90583 0.0
H705 H 0.60725 0.7278 0.87257 0.0
H706 H 0.56427 0.65383 0.96754 0.0
H707 H 0.5865 0.67881 0.80718 0.0
H708 H 0.60021 0.69787 0.90863 0.0
H709 H 0.58149 0.62429 0.8708 0.0
C710 C 0.56815 0.61552 0.91221 0.0
C711 C 0.56233 0.62383 0.93944 0.0
C712 C 0.59731 0.69363 0.88638 0.0
C713 C 0.58234 0.65401 0.89965 0.0
C714 C 0.60127 0.7107 0.8658 0.0
C715 C 0.59714 0.70583 0.83691 0.0
C716 C 0.58925 0.67148 0.87803 0.0
C717 C 0.58962 0.68333 0.82929 0.0
C718 C 0.57807 0.63061 0.89217 0.0
C719 C 0.56831 0.64685 0.94664 0.0
N720 N 0.58579 0.66696 0.84979 0.0
N721 N 0.57781 0.66122 0.92676 0.0
H722 H 0.58726 0.36696 0.1714 0.0
H723 H 0.56467 0.30542 0.02727 0.0
H724 H 0.62634 0.30627 0.14495 0.0
H725 H 0.54422 0.37673 0.04348 0.0
H726 H 0.59352 0.30843 0.06567 0.0
H727 H 0.57753 0.37466 0.12157 0.0
C728 C 0.59432 0.35563 0.15502 0.0
C729 C 0.60715 0.33567 0.16233 0.0
C730 C 0.5832 0.32366 0.0603 0.0
C731 C 0.5956 0.34393 0.10538 0.0
C732 C 0.56678 0.32194 0.03828 0.0
C733 C 0.55166 0.34064 0.03276 0.0
C734 C 0.58412 0.34409 0.07702 0.0
C735 C 0.55519 0.36169 0.04756 0.0
C736 C 0.58875 0.35998 0.12653 0.0
C737 C 0.61605 0.32166 0.14026 0.0
N738 N 0.57065 0.36267 0.06949 0.0
N739 N 0.60957 0.32568 0.11282 0.0
H740 H 0.88605 0.28712 0.29502 0.0
H741 H 0.92632 0.29895 0.45505 0.0
H742 H 0.85928 0.24261 0.36186 0.0
H743 H 0.9262 0.35864 0.39884 0.0
H744 H 0.90277 0.27741 0.42035 0.0
H745 H 0.90228 0.31333 0.33162 0.0
C746 C 0.88345 0.28299 0.31734 0.0
C747 C 0.87151 0.26263 0.32548 0.0
C748 C 0.90759 0.29533 0.41575 0.0
C749 C 0.89002 0.2922 0.36713 0.0
C750 C 0.92103 0.30759 0.43552 0.0
C751 C 0.92816 0.33051 0.42967 0.0
C752 C 0.90176 0.3059 0.38968 0.0
C753 C 0.9209 0.34097 0.4041 0.0
C754 C 0.89258 0.29795 0.33815 0.0
C755 C 0.86849 0.25808 0.35466 0.0
N756 N 0.90838 0.32843 0.38473 0.0
N757 N 0.87794 0.27259 0.37442 0.0
H758 H 0.85498 0.68341 0.62843 0.0
H759 H 0.94027 0.59076 0.55777 0.0
H760 H 0.88638 0.62502 0.67221 0.0
H761 H 0.92819 0.66002 0.52451 0.0
H762 H 0.90814 0.59631 0.59132 0.0
H763 H 0.86949 0.66791 0.58313 0.0
C764 C 0.86436 0.66698 0.62843 0.0
C765 C 0.86998 0.6557 0.65412 0.0
C766 C 0.91215 0.61008 0.57622 0.0
C767 C 0.88651 0.63799 0.60254 0.0
C768 C 0.93045 0.60693 0.55703 0.0
C769 C 0.93726 0.62524 0.53891 0.0
C770 C 0.90069 0.6317 0.57735 0.0
C771 C 0.92372 0.64563 0.53848 0.0
C772 C 0.87268 0.65821 0.60258 0.0
C773 C 0.88205 0.63444 0.6529 0.0
N774 N 0.90633 0.64853 0.55793 0.0
N775 N 0.89023 0.62644 0.62754 0.0
H776 H 0.52618 0.38835 0.62184 0.0
H777 H 0.63764 0.30874 0.65232 0.0
H778 H 0.57451 0.36502 0.55717 0.0
H779 H 0.58116 0.31883 0.71211 0.0
H780 H 0.62038 0.33832 0.62129 0.0
H781 H 0.55165 0.37171 0.65845 0.0
C782 C 0.54234 0.38003 0.61538 0.0
C783 C 0.5481 0.37768 0.58643 0.0
C784 C 0.61198 0.33436 0.64143 0.0
C785 C 0.57722 0.35864 0.62814 0.0
C786 C 0.62186 0.31755 0.65921 0.0
C787 C 0.61053 0.31104 0.68455 0.0
C788 C 0.59063 0.34468 0.64905 0.0
C789 C 0.59027 0.32314 0.69256 0.0
C790 C 0.55684 0.37053 0.63628 0.0
C791 C 0.5693 0.36692 0.57925 0.0
N792 N 0.58074 0.33916 0.67463 0.0
N793 N 0.58299 0.35755 0.59997 0.0
H794 H 0.95695 0.33008 0.95225 0.0
H795 H 0.95951 0.24656 0.81571 0.0
H796 H 0.01573 0.28661 0.92969 0.0
H797 H 0.89962 0.28801 0.83953 0.0
H798 H 0.97921 0.2588 0.85946 0.0
H799 H 0.9342 0.31196 0.91398 0.0
C800 C 0.96492 0.31641 0.93958 0.0
C801 C 0.98832 0.30998 0.94398 0.0
C802 C 0.96174 0.26517 0.85521 0.0
C803 C 0.96255 0.28947 0.89986 0.0
C804 C 0.95051 0.25828 0.83016 0.0
C805 C 0.92798 0.26647 0.82388 0.0
C806 C 0.95041 0.28047 0.87411 0.0
C807 C 0.91707 0.28143 0.84348 0.0
C808 C 0.95197 0.30616 0.91763 0.0
C809 C -0.00222 0.29219 0.92694 0.0
N810 N 0.92844 0.28805 0.86765 0.0
N811 N 0.98494 0.28274 0.90541 0.0
H812 H 0.92357 0.68126 0.03514 0.0
H813 H 0.89579 0.71152 0.19721 0.0
H814 H 0.92465 0.62868 0.10105 0.0
H815 H 0.87609 0.75551 0.12642 0.0
H816 H 0.90756 0.68105 0.16317 0.0
H817 H 0.90655 0.70881 0.06887 0.0
C818 C 0.9199 0.67545 0.05668 0.0
C819 C 0.92551 0.65273 0.0654 0.0
C820 C 0.90052 0.69734 0.15519 0.0
C821 C 0.9065 0.6843 0.10435 0.0
C822 C 0.89396 0.71474 0.17455 0.0
C823 C 0.8851 0.73607 0.16457 0.0
C824 C 0.89839 0.7015 0.12575 0.0
C825 C 0.88292 0.73935 0.13504 0.0
C826 C 0.91022 0.69118 0.07596 0.0
C827 C 0.92043 0.64605 0.09352 0.0
N828 N 0.88965 0.72233 0.11671 0.0
N829 N 0.91148 0.66191 0.1122 0.0
H830 H 0.60577 0.62748 0.32661 0.0
H831 H 0.56611 0.68412 0.46979 0.0
H832 H 0.63367 0.69274 0.35797 0.0
H833 H 0.5498 0.61309 0.44592 0.0
H834 H 0.59784 0.68427 0.43481 0.0
H835 H 0.59262 0.61806 0.37479 0.0
C836 C 0.60969 0.63953 0.3438 0.0
C837 C 0.62029 0.66115 0.3382 0.0
C838 C 0.58772 0.66843 0.43771 0.0
C839 C 0.60476 0.65085 0.39321 0.0
C840 C 0.56963 0.66834 0.45776 0.0
C841 C 0.55497 0.64878 0.46018 0.0
C842 C 0.59085 0.64893 0.41982 0.0
C843 C 0.56039 0.62875 0.44425 0.0
C844 C 0.60212 0.6342 0.37134 0.0
C845 C 0.62517 0.67603 0.36129 0.0
N846 N 0.57756 0.62951 0.42429 0.0
N847 N 0.61682 0.67089 0.38767 0.0
H848 H 0.49023 0.2669 0.06922 0.0
H849 H 0.41139 0.26918 0.20955 0.0
H850 H 0.44232 0.3228 0.08862 0.0
H851 H 0.46273 0.21603 0.19131 0.0
H852 H 0.42516 0.29134 0.1682 0.0
H853 H 0.48174 0.24933 0.1155 0.0
C854 C 0.47791 0.27546 0.08327 0.0
C855 C 0.46678 0.29617 0.07498 0.0
C856 C 0.43366 0.27501 0.17351 0.0
C857 C 0.45747 0.27653 0.12839 0.0
C858 C 0.42594 0.26244 0.19726 0.0
C859 C 0.43577 0.24061 0.20367 0.0
C860 C 0.45123 0.26559 0.15605 0.0
C861 C 0.45453 0.2327 0.18701 0.0
C862 C 0.47325 0.26556 0.1098 0.0
C863 C 0.45114 0.30669 0.09411 0.0
N864 N 0.46144 0.24504 0.16375 0.0
N865 N 0.44689 0.29671 0.11994 0.0
H866 H 0.43888 0.63025 0.95867 0.0
H867 H 0.43343 0.67292 0.79837 0.0
H868 H 0.48138 0.60041 0.89188 0.0
H869 H 0.37363 0.67919 0.85394 0.0
H870 H 0.45229 0.64783 0.83369 0.0
H871 H 0.4152 0.64991 0.922 0.0
C872 C 0.44305 0.62764 0.93636 0.0
C873 C 0.46217 0.61383 0.92828 0.0
C874 C 0.43492 0.65447 0.83804 0.0
C875 C 0.43557 0.63634 0.88657 0.0
C876 C 0.42419 0.6688 0.81791 0.0
C877 C 0.40199 0.67807 0.8233 0.0
C878 C 0.42356 0.64979 0.86399 0.0
C879 C 0.39075 0.67224 0.84898 0.0
C880 C 0.42955 0.6388 0.9155 0.0
C881 C 0.46685 0.61099 0.89909 0.0
N882 N 0.4018 0.65869 0.86862 0.0
N883 N 0.45384 0.62236 0.87935 0.0
H884 H 0.10135 0.69212 0.70181 0.0
H885 H 0.00332 0.68461 0.58197 0.0
H886 H 0.0403 0.73633 0.69957 0.0
H887 H 0.05709 0.63237 0.59167 0.0
H888 H 0.01565 0.70235 0.62681 0.0
H889 H 0.08403 0.6678 0.66437 0.0
C890 C 0.08407 0.6964 0.6939 0.0
C891 C 0.07236 0.71643 0.70352 0.0
C892 C 0.0247 0.68693 0.61928 0.0
C893 C 0.0527 0.68904 0.66038 0.0
C894 C 0.01777 0.67689 0.59356 0.0
C895 C 0.02939 0.65716 0.58297 0.0
C896 C 0.04358 0.67733 0.63444 0.0
C897 C 0.0478 0.6477 0.59902 0.0
C898 C 0.07425 0.68259 0.67242 0.0
C899 C 0.05002 0.72116 0.69259 0.0
N900 N 0.05449 0.65801 0.62388 0.0
N901 N 0.04109 0.70778 0.67128 0.0
H902 H 0.01356 0.36969 0.38517 0.0
H903 H 0.13817 0.31533 0.34728 0.0
H904 H 0.05942 0.33926 0.44816 0.0
H905 H 0.08249 0.32567 0.28645 0.0
H906 H 0.11413 0.33409 0.38401 0.0
H907 H 0.04324 0.36313 0.34882 0.0
C908 C 0.02997 0.36175 0.3914 0.0
C909 C 0.03393 0.35466 0.41964 0.0
C910 C 0.10742 0.33266 0.36247 0.0
C911 C 0.06801 0.34721 0.37807 0.0
C912 C 0.12118 0.32219 0.34146 0.0
C913 C 0.11213 0.3188 0.31394 0.0
C914 C 0.08465 0.33993 0.35567 0.0
C915 C 0.08999 0.32781 0.30751 0.0
C916 C 0.04691 0.35806 0.37062 0.0
C917 C 0.05561 0.34472 0.42655 0.0
N918 N 0.07689 0.33777 0.32832 0.0
N919 N 0.07183 0.34108 0.40579 0.0
H920 H 0.48557 0.71864 0.42181 0.0
H921 H 0.40138 0.71185 0.28629 0.0
H922 H 0.44272 0.65857 0.40236 0.0
H923 H 0.44848 0.76927 0.30321 0.0
H924 H 0.41909 0.69017 0.32572 0.0
H925 H 0.47394 0.73626 0.37653 0.0
C926 C 0.47374 0.70916 0.40795 0.0
C927 C 0.46494 0.68724 0.41592 0.0
C928 C 0.4258 0.70737 0.32052 0.0
C929 C 0.45182 0.70709 0.36385 0.0
C930 C 0.41581 0.71968 0.29788 0.0
C931 C 0.42332 0.74248 0.29168 0.0
C932 C 0.44329 0.71803 0.33713 0.0
C933 C 0.44204 0.75179 0.30739 0.0
C934 C 0.46724 0.71913 0.38202 0.0
C935 C 0.44978 0.6756 0.3971 0.0
N936 N 0.45116 0.73966 0.32964 0.0
N937 N 0.4436 0.68572 0.37196 0.0
H938 H 0.04228 0.65383 0.03564 0.0
H939 H 0.08804 0.64517 0.19609 0.0
H940 H 0.01817 0.60292 0.09692 0.0
H941 H 0.11371 0.69592 0.13557 0.0
H942 H 0.06688 0.62563 0.15759 0.0
H943 H 0.07275 0.66599 0.06945 0.0
C944 C 0.04361 0.64503 0.05603 0.0
C945 C 0.02753 0.6276 0.06369 0.0
C946 C 0.07739 0.64086 0.15261 0.0
C947 C 0.06213 0.64135 0.10237 0.0
C948 C 0.08953 0.65196 0.1746 0.0
C949 C 0.10239 0.67233 0.16905 0.0
C950 C 0.07793 0.65035 0.12494 0.0
C951 C 0.10383 0.68034 0.14079 0.0
C952 C 0.06096 0.65196 0.07532 0.0
C953 C 0.03003 0.61667 0.0903 0.0
N954 N 0.09145 0.66952 0.11983 0.0
N955 N 0.04683 0.62387 0.10876 0.0
H956 H 0.0616 0.32665 0.76906 0.0
H957 H 0.10061 0.35637 0.92351 0.0
H958 H 0.13303 0.32126 0.79807 0.0
H959 H 0.03372 0.37697 0.88917 0.0
H960 H 0.11533 0.35151 0.87501 0.0
H961 H 0.05347 0.35348 0.80834 0.0
C962 C 0.07579 0.33175 0.7831 0.0
C963 C 0.09782 0.32119 0.78087 0.0
C964 C 0.09758 0.35761 0.87799 0.0
C965 C 0.08855 0.35132 0.82622 0.0
C966 C 0.08918 0.36033 0.90572 0.0
C967 C 0.06579 0.36655 0.9103 0.0
C968 C 0.08229 0.3606 0.85475 0.0
C969 C 0.05179 0.37178 0.88654 0.0
C970 C 0.07112 0.34698 0.80567 0.0
C971 C 0.11561 0.32857 0.79948 0.0
N972 N 0.06009 0.36814 0.85976 0.0
N973 N 0.11043 0.34269 0.82185 0.0
H974 H 0.42856 0.37955 0.58094 0.0
H975 H 0.40645 0.24959 0.63805 0.0
H976 H 0.46329 0.31833 0.54802 0.0
H977 H 0.38109 0.31108 0.68142 0.0
H978 H 0.42252 0.27437 0.60058 0.0
H979 H 0.4059 0.3545 0.61315 0.0
C980 C 0.43112 0.36081 0.58014 0.0
C981 C 0.44792 0.35098 0.56194 0.0
C982 C 0.41336 0.28249 0.6182 0.0
C983 C 0.42228 0.32234 0.59879 0.0
C984 C 0.40418 0.26834 0.63963 0.0
C985 C 0.39259 0.27833 0.663 0.0
C986 C 0.41095 0.30685 0.62006 0.0
C987 C 0.39005 0.3027 0.66384 0.0
C988 C 0.4183 0.34655 0.59865 0.0
C989 C 0.45061 0.32663 0.56183 0.0
N990 N 0.39927 0.31618 0.64271 0.0
N991 N 0.43804 0.31317 0.58011 0.0
H992 H 0.33632 0.24698 0.27889 0.0
H993 H 0.20308 0.20908 0.25434 0.0
H994 H 0.31387 0.17598 0.26368 0.0
H995 H 0.22429 0.27985 0.27336 0.0
H996 H 0.24368 0.19661 0.25892 0.0
H997 H 0.29533 0.25923 0.27963 0.0
C998 C 0.32275 0.23392 0.27616 0.0
C999 C 0.32845 0.21047 0.27105 0.0
C1000 C 0.2395 0.21487 0.2621 0.0
C1001 C 0.28168 0.22436 0.27141 0.0
C1002 C 0.21633 0.22202 0.25931 0.0
C1003 C 0.21038 0.24554 0.26336 0.0
C1004 C 0.25685 0.23137 0.26892 0.0
C1005 C 0.2282 0.26155 0.26996 0.0
C1006 C 0.29938 0.24094 0.27642 0.0
C1007 C 0.31023 0.19426 0.26758 0.0
N1008 N 0.25067 0.25417 0.27251 0.0
N1009 N 0.28766 0.20155 0.26758 0.0
H1010 H 0.00523 0.93021 0.4715 0.0
H1011 H 0.96417 0.05635 0.5243 0.0
H1012 H 0.94637 0.94025 0.5278 0.0
H1013 H 0.03029 0.04297 0.48305 0.0
H1014 H 0.95621 0.01427 0.52459 0.0
H1015 H 0.01299 0.97209 0.47304 0.0
C1016 C 0.9938 0.94128 0.484 0.0
C1017 C 0.97512 0.93177 0.49954 0.0
C1018 C 0.97253 0.02055 0.51568 0.0
C1019 C 0.98404 0.97974 0.50163 0.0
C1020 C 0.97711 0.04453 0.51559 0.0
C1021 C -0.0021 0.05311 0.50358 0.0
C1022 C 0.98876 0.00515 0.50343 0.0
C1023 C 0.01405 0.03709 0.49253 0.0
C1024 C -0.00166 0.96518 0.48504 0.0
C1025 C 0.96094 0.94691 0.51548 0.0
N1026 N 0.00906 0.01389 0.49253 0.0
N1027 N 0.9657 0.97021 0.51613 0.0
H1028 H 0.29327 0.70234 0.77083 0.0
H1029 H 0.19126 0.792 0.73036 0.0
H1030 H 0.30517 0.77274 0.74103 0.0
H1031 H 0.17818 0.72422 0.76759 0.0
H1032 H 0.23313 0.78427 0.73212 0.0
H1033 H 0.25104 0.70886 0.76722 0.0
C1034 C 0.28698 0.7191 0.76333 0.0
C1035 C 0.30268 0.73707 0.75628 0.0
C1036 C 0.22115 0.77107 0.73997 0.0
C1037 C 0.25457 0.74467 0.75227 0.0
C1038 C 0.19723 0.77549 0.73901 0.0
C1039 C 0.18127 0.75874 0.74893 0.0
C1040 C 0.22921 0.7497 0.75085 0.0
C1041 C 0.18995 0.73764 0.75983 0.0
C1042 C 0.26291 0.72283 0.76138 0.0
C1043 C 0.29366 0.75844 0.74674 0.0
N1044 N 0.21339 0.73368 0.76048 0.0
N1045 N 0.2702 0.76166 0.74508 0.0
H1046 H 0.53684 0.08687 0.00786 0.0
H1047 H 0.45308 0.98248 0.96063 0.0
H1048 H 0.48221 0.09384 0.94483 0.0
H1049 H 0.51828 0.97081 0.00482 0.0
H1050 H 0.46282 0.0239 0.95678 0.0
H1051 H 0.53061 0.0445 0.00789 0.0
C1052 C 0.52385 0.07944 0.99366 0.0
C1053 C 0.50992 0.09386 0.97644 0.0
C1054 C 0.47503 0.01229 0.96729 0.0
C1055 C 0.50238 0.04566 0.97683 0.0
C1056 C 0.46938 0.98869 0.9697 0.0
C1057 C 0.48488 0.97326 0.98313 0.0
C1058 C 0.49623 0.02058 0.97862 0.0
C1059 C 0.50584 0.98219 0.99435 0.0
C1060 C 0.52023 0.0553 0.99379 0.0
C1061 C 0.49329 0.08337 0.95852 0.0
N1062 N 0.51089 0.00532 0.99193 0.0
N1063 N 0.48978 0.05993 0.95944 0.0
H1064 H 0.20464 0.69845 0.21969 0.0
H1065 H 0.29606 0.80314 0.23834 0.0
H1066 H 0.18843 0.76464 0.25917 0.0
H1067 H 0.31788 0.73224 0.22177 0.0
H1068 H 0.25548 0.79008 0.23912 0.0
H1069 H 0.24557 0.71094 0.21517 0.0
C1070 C 0.20974 0.71551 0.22761 0.0
C1071 C 0.19319 0.73054 0.23988 0.0
C1072 C 0.26911 0.77737 0.23515 0.0
C1073 C 0.23962 0.74502 0.23427 0.0
C1074 C 0.29228 0.78485 0.23448 0.0
C1075 C 0.31034 0.76871 0.23016 0.0
C1076 C 0.26393 0.75358 0.23139 0.0
C1077 C 0.30443 0.74523 0.22524 0.0
C1078 C 0.23303 0.72264 0.22493 0.0
C1079 C 0.20065 0.75247 0.24967 0.0
N1080 N 0.28167 0.7383 0.22614 0.0
N1081 N 0.22328 0.7591 0.2465 0.0
H1082 H 0.53247 0.898 0.4808 0.0
H1083 H 0.47262 0.00843 0.55389 0.0
H1084 H 0.48302 0.89369 0.55016 0.0
H1085 H 0.52905 0.01477 0.49322 0.0
H1086 H 0.47752 0.96622 0.55366 0.0
H1087 H 0.53332 0.94056 0.48628 0.0
C1088 C 0.52205 0.90599 0.49743 0.0
C1089 C 0.50749 0.89237 0.5149 0.0
C1090 C 0.48896 0.97677 0.54048 0.0
C1091 C 0.50819 0.9409 0.52107 0.0
C1092 C 0.48609 0.0009 0.5405 0.0
C1093 C 0.50035 0.01506 0.52337 0.0
C1094 C 0.50607 0.96663 0.52298 0.0
C1095 C 0.51764 0.00441 0.50664 0.0
C1096 C 0.52251 0.93026 0.5005 0.0
C1097 C 0.49437 0.90356 0.53612 0.0
N1098 N 0.51992 0.98074 0.50668 0.0
N1099 N 0.49487 0.92718 0.53842 0.0
H1100 H 0.17619 0.27252 0.70501 0.0
H1101 H 0.29199 0.20857 0.76091 0.0
H1102 H 0.17574 0.21554 0.76533 0.0
H1103 H 0.29303 0.27097 0.70921 0.0
H1104 H 0.24927 0.20958 0.76068 0.0
H1105 H 0.21894 0.27054 0.70347 0.0
C1106 C 0.18509 0.25945 0.71771 0.0
C1107 C 0.17245 0.24419 0.73536 0.0
C1108 C 0.25882 0.22309 0.74944 0.0
C1109 C 0.22127 0.24195 0.73389 0.0
C1110 C 0.28321 0.22255 0.74962 0.0
C1111 C 0.29604 0.23975 0.73512 0.0
C1112 C 0.24717 0.2409 0.73453 0.0
C1113 C 0.28379 0.25742 0.72075 0.0
C1114 C 0.20948 0.25841 0.71695 0.0
C1115 C 0.18483 0.22766 0.75146 0.0
N1116 N 0.26001 0.25751 0.72075 0.0
N1117 N 0.20855 0.22702 0.7504 0.0
H1118 H 0.02589 0.08063 0.01908 0.0
H1119 H -0.00468 0.9514 0.96758 0.0
H1120 H 0.95844 0.05869 0.98724 0.0
H1121 H 0.04827 0.96375 0.0316 0.0
H1122 H 0.98719 0.99314 0.96638 0.0
H1123 H 0.03891 0.03962 0.0177 0.0
C1124 C 0.01381 0.0672 0.01205 0.0
C1125 C 0.99105 0.07298 0.00335 0.0
C1126 C 0.00071 0.98675 0.98055 0.0
C1127 C 0.00592 0.02662 0.001 0.0
C1128 C 0.00549 0.96296 0.9811 0.0
C1129 C 0.02228 0.95411 -2e-05 0.0
C1130 C 0.01287 0.00186 -0.00108 0.0
C1131 C 0.03505 0.96991 0.01688 0.0
C1132 C 0.02126 0.04392 0.01117 0.0
C1133 C 0.9761 0.05502 0.99426 0.0
N1134 N 0.02995 0.99313 0.01613 0.0
N1135 N 0.98386 0.0327 0.99312 0.0
H1136 H 0.80619 0.74683 0.76327 0.0
H1137 H 0.6727 0.70635 0.74834 0.0
H1138 H 0.78451 0.67805 0.73595 0.0
H1139 H 0.69317 0.77667 0.77073 0.0
H1140 H 0.7138 0.69567 0.74454 0.0
H1141 H 0.76503 0.75793 0.76795 0.0
C1142 C 0.79276 0.73402 0.75851 0.0
C1143 C 0.79869 0.71151 0.74919 0.0
C1144 C 0.70936 0.71347 0.7502 0.0
C1145 C 0.75176 0.7241 0.75423 0.0
C1146 C 0.68589 0.71959 0.75229 0.0
C1147 C 0.67958 0.74242 0.75986 0.0
C1148 C 0.72669 0.73028 0.75581 0.0
C1149 C 0.69735 0.75888 0.76478 0.0
C1150 C 0.7693 0.7404 0.76104 0.0
C1151 C 0.78068 0.6956 0.74318 0.0
N1152 N 0.72016 0.75246 0.76276 0.0
N1153 N 0.75802 0.70223 0.74574 0.0
H1154 H 0.65376 0.24322 0.27059 0.0
H1155 H 0.78959 0.26967 0.24564 0.0
H1156 H 0.68238 0.31207 0.25602 0.0
H1157 H 0.7634 0.20152 0.26913 0.0
H1158 H 0.74996 0.28503 0.24823 0.0
H1159 H 0.6935 0.22732 0.27065 0.0
C1160 C 0.66843 0.25503 0.26783 0.0
C1161 C 0.66481 0.27898 0.26321 0.0
C1162 C 0.75281 0.2667 0.25278 0.0
C1163 C 0.71014 0.26091 0.26276 0.0
C1164 C 0.77543 0.25788 0.25112 0.0
C1165 C 0.77975 0.23429 0.25717 0.0
C1166 C 0.7343 0.25183 0.26051 0.0
C1167 C 0.76077 0.21982 0.26423 0.0
C1168 C 0.69107 0.24593 0.2677 0.0
C1169 C 0.68438 0.29349 0.25962 0.0
N1170 N 0.73882 0.22885 0.26576 0.0
N1171 N 0.70619 0.28419 0.25926 0.0
H1172 H 0.70378 0.21481 0.70293 0.0
H1173 H 0.81731 0.27796 0.76688 0.0
H1174 H 0.70094 0.27628 0.7562 0.0
H1175 H 0.82024 0.22202 0.7052 0.0
H1176 H 0.77463 0.27741 0.76369 0.0
H1177 H 0.74651 0.21648 0.70455 0.0
C1178 C 0.71217 0.22859 0.71508 0.0
C1179 C 0.69885 0.24541 0.72949 0.0
C1180 C 0.7846 0.26535 0.75071 0.0
C1181 C 0.74766 0.24752 0.73133 0.0
C1182 C 0.80896 0.2657 0.75248 0.0
C1183 C 0.82229 0.25 0.73629 0.0
C1184 C 0.77351 0.24908 0.73277 0.0
C1185 C 0.8106 0.23445 0.71803 0.0
C1186 C 0.73655 0.2296 0.71589 0.0
C1187 C 0.71057 0.26295 0.74481 0.0
N1188 N 0.78685 0.23429 0.71688 0.0
N1189 N 0.73433 0.26353 0.74535 0.0
H1190 H 0.80514 0.73038 0.24385 0.0
H1191 H 0.66783 0.75346 0.2272 0.0
H1192 H 0.77662 0.79743 0.22019 0.0
H1193 H 0.69815 0.68587 0.24432 0.0
H1194 H 0.70724 0.77013 0.22404 0.0
H1195 H 0.76572 0.7142 0.24486 0.0
C1196 C 0.79053 0.74175 0.23904 0.0
C1197 C 0.79412 0.76529 0.23195 0.0
C1198 C 0.70525 0.75162 0.22829 0.0
C1199 C 0.74887 0.7468 0.23281 0.0
C1200 C 0.68279 0.74208 0.22997 0.0
C1201 C 0.67976 0.71826 0.23608 0.0
C1202 C 0.72476 0.73722 0.23289 0.0
C1203 C 0.6997 0.70433 0.23958 0.0
C1204 C 0.76801 0.73246 0.23948 0.0
C1205 C 0.77457 0.7792 0.22583 0.0
N1206 N 0.72134 0.71405 0.2381 0.0
N1207 N 0.75273 0.76972 0.22637 0.0
H1208 H 0.44771 0.40316 0.01196 0.0
H1209 H 0.52577 0.50865 0.95713 0.0
H1210 H 0.49704 0.3975 0.94262 0.0
H1211 H 0.46433 0.51939 0.00894 0.0
H1212 H 0.51511 0.46761 0.95192 0.0
H1213 H 0.45198 0.44574 0.01043 0.0
C1214 C 0.45903 0.4109 0.996 0.0
C1215 C 0.47226 0.39681 0.97762 0.0
C1216 C 0.50386 0.47893 0.96432 0.0
C1217 C 0.47759 0.44527 0.97617 0.0
C1218 C 0.51006 0.50232 0.96751 0.0
C1219 C 0.49599 0.51735 0.98366 0.0
C1220 C 0.48358 0.4704 0.97767 0.0
C1221 C 0.4757 0.5083 0.99641 0.0
C1222 C 0.46154 0.43518 0.99524 0.0
C1223 C 0.48666 0.4077 0.95737 0.0
N1224 N 0.47016 0.48531 0.99333 0.0
N1225 N 0.48922 0.43127 0.95748 0.0
H1226 H 0.0221 0.43096 0.5124 0.0
H1227 H 0.98098 0.55667 0.45807 0.0
H1228 H 0.95718 0.44334 0.46786 0.0
H1229 H 0.0354 0.54716 0.52088 0.0
H1230 H 0.97554 0.51436 0.45615 0.0
H1231 H 0.03001 0.47302 0.51174 0.0
C1232 C 0.00944 0.44256 0.50268 0.0
C1233 C 0.98892 0.43375 0.49025 0.0
C1234 C 0.98877 0.52152 0.47022 0.0
C1235 C -0.00198 0.48163 0.489 0.0
C1236 C 0.99202 0.54564 0.47115 0.0
C1237 C 0.00857 0.55537 0.48978 0.0
C1238 C 0.00226 0.50708 0.48794 0.0
C1239 C 0.02238 0.54032 0.5063 0.0
C1240 C 0.014 0.46651 0.50223 0.0
C1241 C 0.97315 0.44946 0.47781 0.0
N1242 N 0.01884 0.51686 0.5051 0.0
N1243 N 0.97809 0.47267 0.47738 0.0
H1244 H 0.97608 0.41379 0.01766 0.0
H1245 H 0.01588 0.54554 0.9925 0.0
H1246 H 0.04791 0.43571 0.00758 0.0
H1247 H 0.94811 0.52855 0.02752 0.0
H1248 H 0.02658 0.50449 0.99483 0.0
H1249 H 0.96433 0.45501 0.01988 0.0
C1250 C 0.98939 0.42726 0.01633 0.0
C1251 C 0.01298 0.42138 0.01226 0.0
C1252 C 0.00936 0.50967 0.00207 0.0
C1253 C -0.00033 0.46828 0.01428 0.0
C1254 C 0.00317 0.53311 0.00054 0.0
C1255 C 0.98106 0.54044 0.00981 0.0
C1256 C 0.99329 0.49329 0.01272 0.0
C1257 C 0.96534 0.52357 0.02013 0.0
C1258 C 0.98267 0.45072 0.01751 0.0
C1259 C 0.02952 0.43945 0.0106 0.0
N1260 N 0.97173 0.50068 0.02125 0.0
N1261 N 0.02251 0.46206 0.01133 0.0
H1262 H 0.50835 0.47243 0.55747 0.0
H1263 H 0.44971 0.58031 0.47754 0.0
H1264 H 0.45721 0.46404 0.49045 0.0
H1265 H 0.49608 0.58674 0.54983 0.0
H1266 H 0.44925 0.53787 0.4842 0.0
H1267 H 0.50156 0.51438 0.55697 0.0
C1268 C 0.49562 0.47945 0.54266 0.0
C1269 C 0.48348 0.46481 0.52376 0.0
C1270 C 0.45928 0.5486 0.49881 0.0
C1271 C 0.47563 0.51294 0.52301 0.0
C1272 C 0.4595 0.57281 0.49507 0.0
C1273 C 0.47316 0.58698 0.51299 0.0
C1274 C 0.47291 0.53859 0.52052 0.0
C1275 C 0.48547 0.57643 0.53538 0.0
C1276 C 0.49167 0.50343 0.54246 0.0
C1277 C 0.46702 0.4748 0.50525 0.0
N1278 N 0.48524 0.55285 0.53832 0.0
N1279 N 0.46371 0.49834 0.50514 0.0
H1280 H 0.03199 0.30612 0.07463 0.0
H1281 H 0.1463 0.30028 0.17235 0.0
H1282 H 0.09853 0.33568 0.05016 0.0
H1283 H 0.08446 0.25906 0.1887 0.0
H1284 H 0.12903 0.31344 0.12747 0.0
H1285 H 0.0506 0.28892 0.11675 0.0
C1286 C 0.05052 0.30894 0.0781 0.0
C1287 C 0.06373 0.32241 0.05896 0.0
C1288 C 0.11929 0.30136 0.14073 0.0
C1289 C 0.0851 0.30289 0.10707 0.0
C1290 C 0.12916 0.29383 0.16635 0.0
C1291 C 0.11676 0.27861 0.18429 0.0
C1292 C 0.09673 0.29381 0.13311 0.0
C1293 C 0.09461 0.27079 0.17547 0.0
C1294 C 0.06115 0.29906 0.10208 0.0
C1295 C 0.08769 0.32544 0.0644 0.0
N1296 N 0.08521 0.27865 0.15061 0.0
N1297 N 0.09756 0.31588 0.08803 0.0
H1298 H 0.92437 0.78705 0.29023 0.0
H1299 H 0.90717 0.85246 0.4398 0.0
H1300 H 0.86201 0.82498 0.31332 0.0
H1301 H 0.97291 0.82267 0.41315 0.0
H1302 H 0.88984 0.84068 0.39445 0.0
H1303 H 0.94193 0.79803 0.33598 0.0
C1304 C 0.91435 0.79764 0.30497 0.0
C1305 C 0.89169 0.80512 0.29799 0.0
C1306 C 0.90806 0.8367 0.39846 0.0
C1307 C 0.91167 0.81774 0.35032 0.0
C1308 C 0.91797 0.8434 0.42439 0.0
C1309 C 0.94153 0.83855 0.43024 0.0
C1310 C 0.92176 0.82495 0.37818 0.0
C1311 C 0.95468 0.82678 0.40947 0.0
C1312 C 0.92441 0.80394 0.33104 0.0
C1313 C 0.87953 0.81884 0.31783 0.0
N1314 N 0.9446 0.82034 0.38435 0.0
N1315 N 0.88966 0.82468 0.34308 0.0
H1316 H 0.37394 0.70345 0.67374 0.0
H1317 H 0.49139 0.69884 0.58263 0.0
H1318 H 0.43771 0.73655 0.70222 0.0
H1319 H 0.42297 0.684 0.54804 0.0
H1320 H 0.47284 0.71259 0.62678 0.0
H1321 H 0.39228 0.69552 0.6278 0.0
C1322 C 0.39181 0.70912 0.67026 0.0
C1323 C 0.40436 0.7206 0.69182 0.0
C1324 C 0.46192 0.70652 0.60939 0.0
C1325 C 0.42558 0.71144 0.63927 0.0
C1326 C 0.47249 0.69868 0.58423 0.0
C1327 C 0.45869 0.69012 0.56174 0.0
C1328 C 0.43745 0.70548 0.6121 0.0
C1329 C 0.43429 0.69035 0.56488 0.0
C1330 C 0.40226 0.70467 0.64398 0.0
C1331 C 0.42744 0.72765 0.68612 0.0
N1332 N 0.42448 0.69767 0.58966 0.0
N1333 N 0.43741 0.72277 0.66044 0.0
H1334 H 0.62222 0.23241 0.82343 0.0
H1335 H 0.50029 0.2003 0.89849 0.0
H1336 H 0.55637 0.23123 0.77839 0.0
H1337 H 0.56761 0.19597 0.93984 0.0
H1338 H 0.51967 0.2151 0.85539 0.0
H1339 H 0.6017 0.22234 0.86739 0.0
C1340 C 0.60341 0.2301 0.82282 0.0
C1341 C 0.59099 0.23253 0.79721 0.0
C1342 C 0.53015 0.211 0.87396 0.0
C1343 C 0.56732 0.22097 0.8475 0.0
C1344 C 0.5191 0.20263 0.89856 0.0
C1345 C 0.53239 0.19676 0.92268 0.0
C1346 C 0.55463 0.21355 0.8736 0.0
C1347 C 0.55669 0.20013 0.92167 0.0
C1348 C 0.59168 0.22434 0.84794 0.0
C1349 C 0.56662 0.22942 0.79768 0.0
N1350 N 0.56701 0.2082 0.89753 0.0
N1351 N 0.55557 0.22371 0.82243 0.0
H1352 H 0.00674 0.67489 0.42197 0.0
H1353 H 0.12179 0.67452 0.32555 0.0
H1354 H 0.0719 0.64377 0.4486 0.0
H1355 H 0.06366 0.72084 0.31015 0.0
H1356 H 0.10306 0.66166 0.36978 0.0
H1357 H 0.02649 0.69065 0.37971 0.0
C1358 C 0.02521 0.67147 0.41897 0.0
C1359 C 0.03771 0.65799 0.43874 0.0
C1360 C 0.09447 0.67474 0.35681 0.0
C1361 C 0.06032 0.67573 0.3905 0.0
C1362 C 0.10513 0.68205 0.33157 0.0
C1363 C 0.09423 0.69873 0.3142 0.0
C1364 C 0.07261 0.68398 0.36455 0.0
C1365 C 0.07266 0.70795 0.32298 0.0
C1366 C 0.03647 0.68048 0.39491 0.0
C1367 C 0.0616 0.65408 0.43388 0.0
N1368 N 0.06246 0.70032 0.34745 0.0
N1369 N 0.07209 0.66278 0.41015 0.0
H1370 H 0.54309 0.75082 0.71171 0.0
H1371 H 0.5583 0.79242 0.54985 0.0
H1372 H 0.60772 0.77639 0.6757 0.0
H1373 H 0.49072 0.78558 0.59006 0.0
H1374 H 0.57685 0.77957 0.59391 0.0
H1375 H 0.52385 0.75708 0.66549 0.0
C1376 C 0.55325 0.75759 0.69403 0.0
C1377 C 0.57699 0.76325 0.69751 0.0
C1378 C 0.55795 0.78074 0.5931 0.0
C1379 C 0.55522 0.77026 0.64482 0.0
C1380 C 0.54733 0.788 0.56791 0.0
C1381 C 0.52295 0.7903 0.56642 0.0
C1382 C 0.54412 0.77568 0.61705 0.0
C1383 C 0.5096 0.78419 0.59042 0.0
C1384 C 0.54226 0.76119 0.66774 0.0
C1385 C 0.58936 0.77195 0.67398 0.0
N1386 N 0.52039 0.77727 0.61489 0.0
N1387 N 0.57832 0.7752 0.64866 0.0
H1388 H 0.3733 0.24396 0.83164 0.0
H1389 H 0.49137 0.2907 0.90459 0.0
H1390 H 0.43699 0.25696 0.78484 0.0
H1391 H 0.42473 0.28679 0.94755 0.0
H1392 H 0.47325 0.27368 0.86192 0.0
H1393 H 0.39332 0.25513 0.87567 0.0
C1394 C 0.39154 0.24907 0.83066 0.0
C1395 C 0.40346 0.2497 0.80454 0.0
C1396 C 0.46264 0.27642 0.88076 0.0
C1397 C 0.42652 0.26251 0.85485 0.0
C1398 C 0.47299 0.28605 0.90512 0.0
C1399 C 0.45948 0.29032 0.92954 0.0
C1400 C 0.43864 0.27099 0.8809 0.0
C1401 C 0.43576 0.28395 0.92911 0.0
C1402 C 0.40297 0.25546 0.8558 0.0
C1403 C 0.42711 0.25636 0.80453 0.0
N1404 N 0.42609 0.27472 0.90516 0.0
N1405 N 0.43786 0.2626 0.82929 0.0
H1406 H 0.84987 0.17567 0.17351 0.0
H1407 H 0.96674 0.18189 0.08001 0.0
H1408 H 0.90887 0.2193 0.19546 0.0
H1409 H 0.90245 0.15061 0.05021 0.0
H1410 H 0.94651 0.1945 0.12343 0.0
H1411 H 0.86943 0.16506 0.12897 0.0
C1412 C 0.86689 0.1831 0.16887 0.0
C1413 C 0.87777 0.19838 0.18818 0.0
C1414 C 0.93682 0.18495 0.10733 0.0
C1415 C 0.90035 0.18618 0.13741 0.0
C1416 C 0.94837 0.17772 0.0826 0.0
C1417 C 0.93625 0.16518 0.06153 0.0
C1418 C 0.91305 0.17942 0.11108 0.0
C1419 C 0.91246 0.16026 0.06592 0.0
C1420 C 0.87805 0.17705 0.14345 0.0
C1421 C 0.89985 0.20748 0.18113 0.0
N1422 N 0.90167 0.16729 0.09025 0.0
N1423 N 0.91048 0.20114 0.15638 0.0
H1424 H 0.9745 0.65538 0.92576 0.0
H1425 H 0.87586 0.63871 0.80598 0.0
H1426 H 0.91746 0.60617 0.93264 0.0
H1427 H 0.92368 0.69717 0.80745 0.0
H1428 H 0.89355 0.62409 0.84994 0.0
H1429 H 0.95886 0.6684 0.87976 0.0
C1430 C 0.95879 0.64721 0.91749 0.0
C1431 C 0.94721 0.62973 0.93304 0.0
C1432 C 0.9002 0.64011 0.84066 0.0
C1433 C 0.92924 0.64451 0.88056 0.0
C1434 C 0.89013 0.64845 0.81554 0.0
C1435 C 0.89827 0.66923 0.80314 0.0
C1436 C 0.91865 0.65256 0.8534 0.0
C1437 C 0.91682 0.68112 0.8164 0.0
C1438 C 0.94982 0.6547 0.89131 0.0
C1439 C 0.92689 0.61976 0.92138 0.0
N1440 N 0.9264 0.67261 0.84083 0.0
N1441 N 0.91855 0.6273 0.89587 0.0
H1442 H 0.05685 0.25121 0.65861 0.0
H1443 H 0.044 0.12844 0.57936 0.0
H1444 H 0.07821 0.18556 0.69555 0.0
H1445 H 0.00464 0.18918 0.55375 0.0
H1446 H 0.05825 0.14987 0.62092 0.0
H1447 H 0.03919 0.22972 0.61861 0.0
C1448 C 0.0578 0.23231 0.65831 0.0
C1449 C 0.06906 0.22014 0.68036 0.0
C1450 C 0.04636 0.1585 0.60636 0.0
C1451 C 0.04908 0.19555 0.6348 0.0
C1452 C 0.03823 0.14627 0.58262 0.0
C1453 C 0.02312 0.15706 0.56312 0.0
C1454 C 0.03962 0.18185 0.61049 0.0
C1455 C 0.01621 0.1802 0.56837 0.0
C1456 C 0.04765 0.22007 0.63558 0.0
C1457 C 0.06972 0.19565 0.679 0.0
N1458 N 0.02469 0.19193 0.59145 0.0
N1459 N 0.06002 0.1842 0.65655 0.0
H1460 H 0.49243 0.34927 0.4358 0.0
H1461 H 0.58964 0.36402 0.31402 0.0
H1462 H 0.54889 0.3993 0.4407 0.0
H1463 H 0.54355 0.30439 0.31997 0.0
H1464 H 0.57196 0.38001 0.35739 0.0
H1465 H 0.50786 0.33554 0.39008 0.0
C1466 C 0.50797 0.35749 0.42714 0.0
C1467 C 0.51946 0.37539 0.44209 0.0
C1468 C 0.56569 0.36345 0.34917 0.0
C1469 C 0.53721 0.35976 0.38986 0.0
C1470 C 0.57574 0.35434 0.32441 0.0
C1471 C 0.56811 0.33281 0.31348 0.0
C1472 C 0.54774 0.35103 0.36297 0.0
C1473 C 0.55003 0.32101 0.32776 0.0
C1474 C 0.51682 0.34958 0.40111 0.0
C1475 C 0.53954 0.38539 0.42991 0.0
N1476 N 0.54046 0.33027 0.35176 0.0
N1477 N 0.5478 0.37743 0.40452 0.0
H1478 H 0.47959 0.84767 0.05769 0.0
H1479 H 0.39226 0.85584 0.19069 0.0
H1480 H 0.43016 0.9038 0.06905 0.0
H1481 H 0.42701 0.79215 0.16573 0.0
H1482 H 0.40999 0.87575 0.14986 0.0
H1483 H 0.46479 0.82932 0.1013 0.0
C1484 C 0.46581 0.85627 0.06955 0.0
C1485 C 0.45602 0.87724 0.05973 0.0
C1486 C 0.41375 0.85743 0.15334 0.0
C1487 C 0.43898 0.85634 0.10949 0.0
C1488 C 0.40366 0.84606 0.17664 0.0
C1489 C 0.4081 0.82229 0.18149 0.0
C1490 C 0.42857 0.84499 0.13493 0.0
C1491 C 0.42303 0.81047 0.16265 0.0
C1492 C 0.45728 0.84572 0.09432 0.0
C1493 C 0.43814 0.88759 0.07584 0.0
N1494 N 0.43277 0.82196 0.1402 0.0
N1495 N 0.43017 0.87701 0.09992 0.0
H1496 H 0.98635 0.30063 0.54894 0.0
H1497 H 0.91446 0.3108 0.6948 0.0
H1498 H 0.94626 0.36127 0.57325 0.0
H1499 H 0.93727 0.24476 0.66018 0.0
H1500 H 0.93118 0.33069 0.65352 0.0
H1501 H 0.97373 0.28107 0.59292 0.0
C1502 C 0.97511 0.3099 0.56368 0.0
C1503 C 0.96725 0.33255 0.55746 0.0
C1504 C 0.93257 0.31185 0.65494 0.0
C1505 C 0.9528 0.31037 0.60757 0.0
C1506 C 0.92307 0.30048 0.67852 0.0
C1507 C 0.92437 0.27608 0.6808 0.0
C1508 C 0.94363 0.29877 0.63352 0.0
C1509 C 0.93578 0.2636 0.65912 0.0
C1510 C 0.96783 0.2987 0.58865 0.0
C1511 C 0.95264 0.34376 0.57718 0.0
N1512 N 0.94499 0.2751 0.63632 0.0
N1513 N 0.94588 0.33255 0.60133 0.0
H1514 H 0.44972 0.18848 0.32766 0.0
H1515 H 0.4393 0.08552 0.44113 0.0
H1516 H 0.40646 0.12764 0.31369 0.0
H1517 H 0.49789 0.13316 0.43894 0.0
H1518 H 0.42543 0.10184 0.39589 0.0
H1519 H 0.46606 0.16981 0.3702 0.0
C1520 C 0.44371 0.17116 0.33352 0.0
C1521 C 0.42669 0.15959 0.31719 0.0
C1522 C 0.44142 0.10859 0.40521 0.0
C1523 C 0.44514 0.13823 0.3659 0.0
C1524 C 0.44931 0.09931 0.43102 0.0
C1525 C 0.46975 0.10804 0.44378 0.0
C1526 C 0.45385 0.12696 0.39232 0.0
C1527 C 0.48207 0.12591 0.42979 0.0
C1528 C 0.45309 0.16049 0.35773 0.0
C1529 C 0.41957 0.13716 0.32569 0.0
N1530 N 0.47381 0.13494 0.40494 0.0
N1531 N 0.42869 0.12728 0.34961 0.0
H1532 H 0.55731 0.58074 0.0724 0.0
H1533 H 0.5607 0.69002 0.17827 0.0
H1534 H 0.50686 0.6367 0.06991 0.0
H1535 H 0.60214 0.62793 0.19096 0.0
H1536 H 0.54119 0.67101 0.13804 0.0
H1537 H 0.57397 0.59758 0.11585 0.0
C1538 C 0.54956 0.59643 0.0812 0.0
C1539 C 0.53071 0.60739 0.06751 0.0
C1540 C 0.55449 0.6615 0.14967 0.0
C1541 C 0.54991 0.62694 0.11697 0.0
C1542 C 0.56572 0.67239 0.17255 0.0
C1543 C 0.58312 0.66055 0.18788 0.0
C1544 C 0.56084 0.63866 0.1419 0.0
C1545 C 0.58884 0.63769 0.17965 0.0
C1546 C 0.55911 0.60606 0.10598 0.0
C1547 C 0.52137 0.62768 0.07981 0.0
N1548 N 0.57781 0.62752 0.15712 0.0
N1549 N 0.53121 0.63694 0.1037 0.0
H1550 H 0.11285 0.82638 0.81804 0.0
H1551 H 0.0135 0.82918 0.93749 0.0
H1552 H 0.05972 0.77297 0.82463 0.0
H1553 H 0.0784 0.86746 0.94423 0.0
H1554 H 0.02822 0.81031 0.89407 0.0
H1555 H 0.0986 0.84369 0.86237 0.0
C1556 C 0.09819 0.81828 0.82887 0.0
C1557 C 0.08743 0.79823 0.81768 0.0
C1558 C 0.03923 0.82278 0.90514 0.0
C1559 C 0.0709 0.81805 0.8683 0.0
C1560 C 0.03082 0.83361 0.92982 0.0
C1561 C 0.04476 0.84992 0.94441 0.0
C1562 C 0.06159 0.82857 0.89485 0.0
C1563 C 0.06709 0.85497 0.93364 0.0
C1564 C 0.0901 0.82813 0.85421 0.0
C1565 C 0.06854 0.78841 0.8326 0.0
N1566 N 0.07476 0.84444 0.90943 0.0
N1567 N 0.06075 0.79852 0.85709 0.0
loop_
_geom_bond_atom_site_label_1
_geom_bond_atom_site_label_2
_geom_bond_distance
_geom_bond_site_symmetry_2
_ccdc_geom_bond_type
In0 O1 2.294 . S
In0 O2 2.326 . S
In0 O6 2.266 . S
In0 O7 2.326 . S
In0 O8 2.266 . S
In0 O9 2.326 . S
In0 O11 2.294 . S
In0 O12 2.326 . S
O1 In0 2.294 . S
O1 C10 1.240 . S
O2 In0 2.326 . S
O2 C10 1.252 . S
C3 O6 1.252 . S
C3 O7 1.260 . S
C4 O11 1.240 . S
C4 O12 1.252 . S
C5 O8 1.252 . S
C5 O9 1.260 . S
O6 In0 2.266 . S
O6 C3 1.252 . S
O7 In0 2.326 . S
O7 C3 1.260 . S
O8 In0 2.266 . S
O8 C5 1.252 . S
O9 In0 2.326 . S
O9 C5 1.260 . S
C10 O1 1.240 . S
C10 O2 1.252 . S
O11 In0 2.294 . S
O11 C4 1.240 . S
O12 In0 2.326 . S
O12 C4 1.252 . S
In13 O14 2.294 . S
In13 O15 2.326 . S
In13 O19 2.266 . S
In13 O20 2.326 . S
In13 O21 2.266 . S
In13 O22 2.326 . S
In13 O24 2.294 . S
In13 O25 2.326 . S
O14 In13 2.294 . S
O14 C23 1.240 . S
O15 In13 2.326 . S
O15 C23 1.252 . S
C16 O19 1.252 . S
C16 O20 1.260 . S
C17 O24 1.240 . S
C17 O25 1.252 . S
C18 O21 1.252 . S
C18 O22 1.260 . S
O19 In13 2.266 . S
O19 C16 1.252 . S
O20 In13 2.326 . S
O20 C16 1.260 . S
O21 In13 2.266 . S
O21 C18 1.252 . S
O22 In13 2.326 . S
O22 C18 1.260 . S
C23 O14 1.240 . S
C23 O15 1.252 . S
O24 In13 2.294 . S
O24 C17 1.240 . S
O25 In13 2.326 . S
O25 C17 1.252 . S
In26 O27 2.294 . S
In26 O28 2.326 . S
In26 O32 2.266 . S
In26 O33 2.326 . S
In26 O34 2.266 . S
In26 O35 2.326 . S
In26 O37 2.294 . S
In26 O38 2.326 . S
O27 In26 2.294 . S
O27 C36 1.240 . S
O28 In26 2.326 . S
O28 C36 1.252 . S
C29 O32 1.252 . S
C29 O33 1.260 . S
C30 O37 1.240 . S
C30 O38 1.252 . S
C31 O34 1.252 . S
C31 O35 1.260 . S
O32 In26 2.266 . S
O32 C29 1.252 . S
O33 In26 2.326 . S
O33 C29 1.260 . S
O34 In26 2.266 . S
O34 C31 1.252 . S
O35 In26 2.326 . S
O35 C31 1.260 . S
C36 O27 1.240 . S
C36 O28 1.252 . S
O37 In26 2.294 . S
O37 C30 1.240 . S
O38 In26 2.326 . S
O38 C30 1.252 . S
In39 O40 2.294 . S
In39 O41 2.326 . S
In39 O45 2.266 . S
In39 O46 2.326 . S
In39 O47 2.266 . S
In39 O48 2.326 . S
In39 O50 2.294 1_554 S
In39 O51 2.326 1_554 S
O40 In39 2.294 . S
O40 C49 1.240 . S
O41 In39 2.326 . S
O41 C49 1.252 . S
C42 O45 1.252 . S
C42 O46 1.260 . S
C43 O50 1.240 . S
C43 O51 1.252 . S
C44 O47 1.252 . S
C44 O48 1.260 . S
O45 In39 2.266 . S
O45 C42 1.252 . S
O46 In39 2.326 . S
O46 C42 1.260 . S
O47 In39 2.266 . S
O47 C44 1.252 . S
O48 In39 2.326 . S
O48 C44 1.260 . S
C49 O40 1.240 . S
C49 O41 1.252 . S
O50 In39 2.294 1_556 S
O50 C43 1.240 . S
O51 In39 2.326 1_556 S
O51 C43 1.252 . S
In52 O53 2.294 . S
In52 O54 2.326 . S
In52 O58 2.266 . S
In52 O59 2.326 . S
In52 O60 2.266 . S
In52 O61 2.326 . S
In52 O63 2.294 . S
In52 O64 2.326 . S
O53 In52 2.294 . S
O53 C62 1.240 . S
O54 In52 2.326 . S
O54 C62 1.252 . S
C55 O58 1.252 . S
C55 O59 1.260 . S
C56 O63 1.240 . S
C56 O64 1.252 . S
C57 O60 1.252 . S
C57 O61 1.260 . S
O58 In52 2.266 . S
O58 C55 1.252 . S
O59 In52 2.326 . S
O59 C55 1.260 . S
O60 In52 2.266 . S
O60 C57 1.252 . S
O61 In52 2.326 . S
O61 C57 1.260 . S
C62 O53 1.240 . S
C62 O54 1.252 . S
O63 In52 2.294 . S
O63 C56 1.240 . S
O64 In52 2.326 . S
O64 C56 1.252 . S
In65 O66 2.294 . S
In65 O67 2.326 . S
In65 O71 2.266 . S
In65 O72 2.326 . S
In65 O73 2.266 . S
In65 O74 2.326 . S
In65 O76 2.294 . S
In65 O77 2.326 . S
O66 In65 2.294 . S
O66 C75 1.240 . S
O67 In65 2.326 . S
O67 C75 1.252 . S
C68 O71 1.252 . S
C68 O72 1.260 . S
C69 O76 1.240 . S
C69 O77 1.252 . S
C70 O73 1.252 . S
C70 O74 1.260 . S
O71 In65 2.266 . S
O71 C68 1.252 . S
O72 In65 2.326 . S
O72 C68 1.260 . S
O73 In65 2.266 . S
O73 C70 1.252 . S
O74 In65 2.326 . S
O74 C70 1.260 . S
C75 O66 1.240 . S
C75 O67 1.252 . S
O76 In65 2.294 . S
O76 C69 1.240 . S
O77 In65 2.326 . S
O77 C69 1.252 . S
In78 O79 2.294 . S
In78 O80 2.326 . S
In78 O84 2.266 . S
In78 O85 2.326 . S
In78 O86 2.266 . S
In78 O87 2.326 . S
In78 O89 2.294 . S
In78 O90 2.326 . S
O79 In78 2.294 . S
O79 C88 1.240 . S
O80 In78 2.326 . S
O80 C88 1.252 . S
C81 O84 1.252 . S
C81 O85 1.260 . S
C82 O89 1.240 . S
C82 O90 1.252 . S
C83 O86 1.252 . S
C83 O87 1.260 . S
O84 In78 2.266 . S
O84 C81 1.252 . S
O85 In78 2.326 . S
O85 C81 1.260 . S
O86 In78 2.266 . S
O86 C83 1.252 . S
O87 In78 2.326 . S
O87 C83 1.260 . S
C88 O79 1.240 . S
C88 O80 1.252 . S
O89 In78 2.294 . S
O89 C82 1.240 . S
O90 In78 2.326 . S
O90 C82 1.252 . S
In91 O92 2.294 . S
In91 O93 2.326 . S
In91 O97 2.266 . S
In91 O98 2.326 . S
In91 O99 2.266 . S
In91 O100 2.326 . S
In91 O102 2.294 1_556 S
In91 O103 2.326 1_556 S
O92 In91 2.294 . S
O92 C101 1.240 . S
O93 In91 2.326 . S
O93 C101 1.252 . S
C94 O97 1.252 . S
C94 O98 1.260 . S
C95 O102 1.240 . S
C95 O103 1.252 . S
C96 O99 1.252 . S
C96 O100 1.260 . S
O97 In91 2.266 . S
O97 C94 1.252 . S
O98 In91 2.326 . S
O98 C94 1.260 . S
O99 In91 2.266 . S
O99 C96 1.252 . S
O100 In91 2.326 . S
O100 C96 1.260 . S
C101 O92 1.240 . S
C101 O93 1.252 . S
O102 In91 2.294 1_554 S
O102 C95 1.240 . S
O103 In91 2.326 1_554 S
O103 C95 1.252 . S
In104 O105 2.294 . S
In104 O106 2.326 . S
In104 O110 2.266 . S
In104 O111 2.326 . S
In104 O112 2.266 . S
In104 O113 2.326 . S
In104 O115 2.294 . S
In104 O116 2.326 . S
O105 In104 2.294 . S
O105 C114 1.240 . S
O106 In104 2.326 . S
O106 C114 1.252 . S
C107 O110 1.252 . S
C107 O111 1.260 . S
C108 O115 1.240 . S
C108 O116 1.252 . S
C109 O112 1.252 . S
C109 O113 1.260 . S
O110 In104 2.266 . S
O110 C107 1.252 . S
O111 In104 2.326 . S
O111 C107 1.260 . S
O112 In104 2.266 . S
O112 C109 1.252 . S
O113 In104 2.326 . S
O113 C109 1.260 . S
C114 O105 1.240 . S
C114 O106 1.252 . S
O115 In104 2.294 . S
O115 C108 1.240 . S
O116 In104 2.326 . S
O116 C108 1.252 . S
In117 O118 2.294 . S
In117 O119 2.326 . S
In117 O123 2.266 . S
In117 O124 2.326 . S
In117 O125 2.266 . S
In117 O126 2.326 . S
In117 O128 2.294 . S
In117 O129 2.326 . S
O118 In117 2.294 . S
O118 C127 1.240 . S
O119 In117 2.326 . S
O119 C127 1.252 . S
C120 O123 1.252 . S
C120 O124 1.260 . S
C121 O128 1.240 . S
C121 O129 1.252 . S
C122 O125 1.252 . S
C122 O126 1.260 . S
O123 In117 2.266 . S
O123 C120 1.252 . S
O124 In117 2.326 . S
O124 C120 1.260 . S
O125 In117 2.266 . S
O125 C122 1.252 . S
O126 In117 2.326 . S
O126 C122 1.260 . S
C127 O118 1.240 . S
C127 O119 1.252 . S
O128 In117 2.294 . S
O128 C121 1.240 . S
O129 In117 2.326 . S
O129 C121 1.252 . S
In130 O131 2.294 . S
In130 O132 2.326 . S
In130 O136 2.266 . S
In130 O137 2.326 . S
In130 O138 2.266 . S
In130 O139 2.326 . S
In130 O141 2.294 . S
In130 O142 2.326 . S
O131 In130 2.294 . S
O131 C140 1.240 . S
O132 In130 2.326 . S
O132 C140 1.252 . S
C133 O136 1.252 . S
C133 O137 1.260 . S
C134 O141 1.240 . S
C134 O142 1.252 . S
C135 O138 1.252 . S
C135 O139 1.260 . S
O136 In130 2.266 . S
O136 C133 1.252 . S
O137 In130 2.326 . S
O137 C133 1.260 . S
O138 In130 2.266 . S
O138 C135 1.252 . S
O139 In130 2.326 . S
O139 C135 1.260 . S
C140 O131 1.240 . S
C140 O132 1.252 . S
O141 In130 2.294 . S
O141 C134 1.240 . S
O142 In130 2.326 . S
O142 C134 1.252 . S
In143 O144 2.294 . S
In143 O145 2.326 . S
In143 O149 2.266 . S
In143 O150 2.326 . S
In143 O151 2.266 . S
In143 O152 2.326 . S
In143 O154 2.294 1_556 S
In143 O155 2.326 1_556 S
O144 In143 2.294 . S
O144 C153 1.240 . S
O145 In143 2.326 . S
O145 C153 1.252 . S
C146 O149 1.252 . S
C146 O150 1.260 . S
C147 O154 1.240 . S
C147 O155 1.252 . S
C148 O151 1.252 . S
C148 O152 1.260 . S
O149 In143 2.266 . S
O149 C146 1.252 . S
O150 In143 2.326 . S
O150 C146 1.260 . S
O151 In143 2.266 . S
O151 C148 1.252 . S
O152 In143 2.326 . S
O152 C148 1.260 . S
C153 O144 1.240 . S
C153 O145 1.252 . S
O154 In143 2.294 1_554 S
O154 C147 1.240 . S
O155 In143 2.326 1_554 S
O155 C147 1.252 . S
In156 O157 2.294 . S
In156 O158 2.326 . S
In156 O162 2.266 . S
In156 O163 2.326 . S
In156 O164 2.266 . S
In156 O165 2.326 . S
In156 O167 2.294 . S
In156 O168 2.326 . S
O157 In156 2.294 . S
O157 C166 1.240 . S
O158 In156 2.326 . S
O158 C166 1.252 . S
C159 O162 1.252 . S
C159 O163 1.260 . S
C160 O167 1.240 . S
C160 O168 1.252 . S
C161 O164 1.252 . S
C161 O165 1.260 . S
O162 In156 2.266 . S
O162 C159 1.252 . S
O163 In156 2.326 . S
O163 C159 1.260 . S
O164 In156 2.266 . S
O164 C161 1.252 . S
O165 In156 2.326 . S
O165 C161 1.260 . S
C166 O157 1.240 . S
C166 O158 1.252 . S
O167 In156 2.294 . S
O167 C160 1.240 . S
O168 In156 2.326 . S
O168 C160 1.252 . S
In169 O170 2.294 . S
In169 O171 2.326 . S
In169 O175 2.266 . S
In169 O176 2.326 . S
In169 O177 2.266 . S
In169 O178 2.326 . S
In169 O180 2.294 . S
In169 O181 2.326 . S
O170 In169 2.294 . S
O170 C179 1.240 . S
O171 In169 2.326 . S
O171 C179 1.252 . S
C172 O175 1.252 . S
C172 O176 1.260 . S
C173 O180 1.240 . S
C173 O181 1.252 . S
C174 O177 1.252 . S
C174 O178 1.260 . S
O175 In169 2.266 . S
O175 C172 1.252 . S
O176 In169 2.326 . S
O176 C172 1.260 . S
O177 In169 2.266 . S
O177 C174 1.252 . S
O178 In169 2.326 . S
O178 C174 1.260 . S
C179 O170 1.240 . S
C179 O171 1.252 . S
O180 In169 2.294 . S
O180 C173 1.240 . S
O181 In169 2.326 . S
O181 C173 1.252 . S
In182 O183 2.294 . S
In182 O184 2.326 . S
In182 O188 2.266 . S
In182 O189 2.326 . S
In182 O190 2.266 . S
In182 O191 2.326 . S
In182 O193 2.294 . S
In182 O194 2.326 . S
O183 In182 2.294 . S
O183 C192 1.240 . S
O184 In182 2.326 . S
O184 C192 1.252 . S
C185 O188 1.252 . S
C185 O189 1.260 . S
C186 O193 1.240 . S
C186 O194 1.252 . S
C187 O190 1.252 . S
C187 O191 1.260 . S
O188 In182 2.266 . S
O188 C185 1.252 . S
O189 In182 2.326 . S
O189 C185 1.260 . S
O190 In182 2.266 . S
O190 C187 1.252 . S
O191 In182 2.326 . S
O191 C187 1.260 . S
C192 O183 1.240 . S
C192 O184 1.252 . S
O193 In182 2.294 . S
O193 C186 1.240 . S
O194 In182 2.326 . S
O194 C186 1.252 . S
In195 O196 2.294 . S
In195 O197 2.326 . S
In195 O201 2.266 . S
In195 O202 2.326 . S
In195 O203 2.266 . S
In195 O204 2.326 . S
In195 O206 2.294 1_554 S
In195 O207 2.326 1_554 S
O196 In195 2.294 . S
O196 C205 1.240 . S
O197 In195 2.326 . S
O197 C205 1.252 . S
C198 O201 1.252 . S
C198 O202 1.260 . S
C199 O206 1.240 . S
C199 O207 1.252 . S
C200 O203 1.252 . S
C200 O204 1.260 . S
O201 In195 2.266 . S
O201 C198 1.252 . S
O202 In195 2.326 . S
O202 C198 1.260 . S
O203 In195 2.266 . S
O203 C200 1.252 . S
O204 In195 2.326 . S
O204 C200 1.260 . S
C205 O196 1.240 . S
C205 O197 1.252 . S
O206 In195 2.294 1_556 S
O206 C199 1.240 . S
O207 In195 2.326 1_556 S
O207 C199 1.252 . S
In208 O209 2.294 . S
In208 O210 2.326 . S
In208 O214 2.266 . S
In208 O215 2.326 . S
In208 O216 2.266 . S
In208 O217 2.326 . S
In208 O219 2.294 . S
In208 O220 2.326 . S
O209 In208 2.294 . S
O209 C218 1.240 . S
O210 In208 2.326 . S
O210 C218 1.252 . S
C211 O214 1.252 . S
C211 O215 1.260 . S
C212 O219 1.240 . S
C212 O220 1.252 . S
C213 O216 1.252 . S
C213 O217 1.260 . S
O214 In208 2.266 . S
O214 C211 1.252 . S
O215 In208 2.326 . S
O215 C211 1.260 . S
O216 In208 2.266 . S
O216 C213 1.252 . S
O217 In208 2.326 . S
O217 C213 1.260 . S
C218 O209 1.240 . S
C218 O210 1.252 . S
O219 In208 2.294 . S
O219 C212 1.240 . S
O220 In208 2.326 . S
O220 C212 1.252 . S
In221 O222 2.294 . S
In221 O223 2.326 . S
In221 O227 2.266 . S
In221 O228 2.326 . S
In221 O229 2.266 . S
In221 O230 2.326 . S
In221 O232 2.294 1_554 S
In221 O233 2.326 1_554 S
O222 In221 2.294 . S
O222 C231 1.240 . S
O223 In221 2.326 . S
O223 C231 1.252 . S
C224 O227 1.252 . S
C224 O228 1.260 . S
C225 O232 1.240 . S
C225 O233 1.252 . S
C226 O229 1.252 . S
C226 O230 1.260 . S
O227 In221 2.266 . S
O227 C224 1.252 . S
O228 In221 2.326 . S
O228 C224 1.260 . S
O229 In221 2.266 . S
O229 C226 1.252 . S
O230 In221 2.326 . S
O230 C226 1.260 . S
C231 O222 1.240 . S
C231 O223 1.252 . S
O232 In221 2.294 1_556 S
O232 C225 1.240 . S
O233 In221 2.326 1_556 S
O233 C225 1.252 . S
In234 O235 2.294 . S
In234 O236 2.326 . S
In234 O240 2.266 . S
In234 O241 2.326 . S
In234 O242 2.266 . S
In234 O243 2.326 . S
In234 O245 2.294 . S
In234 O246 2.326 . S
O235 In234 2.294 . S
O235 C244 1.240 . S
O236 In234 2.326 . S
O236 C244 1.252 . S
C237 O240 1.252 . S
C237 O241 1.260 . S
C238 O245 1.240 . S
C238 O246 1.252 . S
C239 O242 1.252 . S
C239 O243 1.260 . S
O240 In234 2.266 . S
O240 C237 1.252 . S
O241 In234 2.326 . S
O241 C237 1.260 . S
O242 In234 2.266 . S
O242 C239 1.252 . S
O243 In234 2.326 . S
O243 C239 1.260 . S
C244 O235 1.240 . S
C244 O236 1.252 . S
O245 In234 2.294 . S
O245 C238 1.240 . S
O246 In234 2.326 . S
O246 C238 1.252 . S
In247 O248 2.294 . S
In247 O249 2.326 . S
In247 O253 2.266 . S
In247 O254 2.326 . S
In247 O255 2.266 . S
In247 O256 2.326 . S
In247 O258 2.294 . S
In247 O259 2.326 . S
O248 In247 2.294 . S
O248 C257 1.240 . S
O249 In247 2.326 . S
O249 C257 1.252 . S
C250 O253 1.252 . S
C250 O254 1.260 . S
C251 O258 1.240 . S
C251 O259 1.252 . S
C252 O255 1.252 . S
C252 O256 1.260 . S
O253 In247 2.266 . S
O253 C250 1.252 . S
O254 In247 2.326 . S
O254 C250 1.260 . S
O255 In247 2.266 . S
O255 C252 1.252 . S
O256 In247 2.326 . S
O256 C252 1.260 . S
C257 O248 1.240 . S
C257 O249 1.252 . S
O258 In247 2.294 . S
O258 C251 1.240 . S
O259 In247 2.326 . S
O259 C251 1.252 . S
In260 O261 2.294 . S
In260 O262 2.326 . S
In260 O266 2.266 . S
In260 O267 2.326 . S
In260 O268 2.266 . S
In260 O269 2.326 . S
In260 O271 2.294 . S
In260 O272 2.326 . S
O261 In260 2.294 . S
O261 C270 1.240 . S
O262 In260 2.326 . S
O262 C270 1.252 . S
C263 O266 1.252 . S
C263 O267 1.260 . S
C264 O271 1.240 . S
C264 O272 1.252 . S
C265 O268 1.252 . S
C265 O269 1.260 . S
O266 In260 2.266 . S
O266 C263 1.252 . S
O267 In260 2.326 . S
O267 C263 1.260 . S
O268 In260 2.266 . S
O268 C265 1.252 . S
O269 In260 2.326 . S
O269 C265 1.260 . S
C270 O261 1.240 . S
C270 O262 1.252 . S
O271 In260 2.294 . S
O271 C264 1.240 . S
O272 In260 2.326 . S
O272 C264 1.252 . S
In273 O274 2.294 1_556 S
In273 O275 2.326 1_556 S
In273 O279 2.266 . S
In273 O280 2.326 . S
In273 O281 2.266 . S
In273 O282 2.326 . S
In273 O284 2.294 . S
In273 O285 2.326 . S
O274 In273 2.294 1_554 S
O274 C283 1.240 . S
O275 In273 2.326 1_554 S
O275 C283 1.252 . S
C276 O279 1.252 . S
C276 O280 1.260 . S
C277 O284 1.240 . S
C277 O285 1.252 . S
C278 O281 1.252 . S
C278 O282 1.260 . S
O279 In273 2.266 . S
O279 C276 1.252 . S
O280 In273 2.326 . S
O280 C276 1.260 . S
O281 In273 2.266 . S
O281 C278 1.252 . S
O282 In273 2.326 . S
O282 C278 1.260 . S
C283 O274 1.240 . S
C283 O275 1.252 . S
O284 In273 2.294 . S
O284 C277 1.240 . S
O285 In273 2.326 . S
O285 C277 1.252 . S
In286 O287 2.294 . S
In286 O288 2.326 . S
In286 O292 2.266 . S
In286 O293 2.326 . S
In286 O294 2.266 . S
In286 O295 2.326 . S
In286 O297 2.294 . S
In286 O298 2.326 . S
O287 In286 2.294 . S
O287 C296 1.240 . S
O288 In286 2.326 . S
O288 C296 1.252 . S
C289 O292 1.252 . S
C289 O293 1.260 . S
C290 O297 1.240 . S
C290 O298 1.252 . S
C291 O294 1.252 . S
C291 O295 1.260 . S
O292 In286 2.266 . S
O292 C289 1.252 . S
O293 In286 2.326 . S
O293 C289 1.260 . S
O294 In286 2.266 . S
O294 C291 1.252 . S
O295 In286 2.326 . S
O295 C291 1.260 . S
C296 O287 1.240 . S
C296 O288 1.252 . S
O297 In286 2.294 . S
O297 C290 1.240 . S
O298 In286 2.326 . S
O298 C290 1.252 . S
In299 O300 2.294 . S
In299 O301 2.326 . S
In299 O305 2.266 . S
In299 O306 2.326 . S
In299 O307 2.266 . S
In299 O308 2.326 . S
In299 O310 2.294 . S
In299 O311 2.326 . S
O300 In299 2.294 . S
O300 C309 1.240 . S
O301 In299 2.326 . S
O301 C309 1.252 . S
C302 O305 1.252 . S
C302 O306 1.260 . S
C303 O310 1.240 . S
C303 O311 1.252 . S
C304 O307 1.252 . S
C304 O308 1.260 . S
O305 In299 2.266 . S
O305 C302 1.252 . S
O306 In299 2.326 . S
O306 C302 1.260 . S
O307 In299 2.266 . S
O307 C304 1.252 . S
O308 In299 2.326 . S
O308 C304 1.260 . S
C309 O300 1.240 . S
C309 O301 1.252 . S
O310 In299 2.294 . S
O310 C303 1.240 . S
O311 In299 2.326 . S
O311 C303 1.252 . S
In312 O313 2.294 . S
In312 O314 2.326 . S
In312 O318 2.266 . S
In312 O319 2.326 . S
In312 O320 2.266 . S
In312 O321 2.326 . S
In312 O323 2.294 . S
In312 O324 2.326 . S
O313 In312 2.294 . S
O313 C322 1.240 . S
O314 In312 2.326 . S
O314 C322 1.252 . S
C315 O318 1.252 . S
C315 O319 1.260 . S
C316 O323 1.240 . S
C316 O324 1.252 . S
C317 O320 1.252 . S
C317 O321 1.260 . S
O318 In312 2.266 . S
O318 C315 1.252 . S
O319 In312 2.326 . S
O319 C315 1.260 . S
O320 In312 2.266 . S
O320 C317 1.252 . S
O321 In312 2.326 . S
O321 C317 1.260 . S
C322 O313 1.240 . S
C322 O314 1.252 . S
O323 In312 2.294 . S
O323 C316 1.240 . S
O324 In312 2.326 . S
O324 C316 1.252 . S
In325 O326 2.294 1_556 S
In325 O327 2.326 1_556 S
In325 O331 2.266 . S
In325 O332 2.326 . S
In325 O333 2.266 . S
In325 O334 2.326 . S
In325 O336 2.294 . S
In325 O337 2.326 . S
O326 In325 2.294 1_554 S
O326 C335 1.240 . S
O327 In325 2.326 1_554 S
O327 C335 1.252 . S
C328 O331 1.252 . S
C328 O332 1.260 . S
C329 O336 1.240 . S
C329 O337 1.252 . S
C330 O333 1.252 . S
C330 O334 1.260 . S
O331 In325 2.266 . S
O331 C328 1.252 . S
O332 In325 2.326 . S
O332 C328 1.260 . S
O333 In325 2.266 . S
O333 C330 1.252 . S
O334 In325 2.326 . S
O334 C330 1.260 . S
C335 O326 1.240 . S
C335 O327 1.252 . S
O336 In325 2.294 . S
O336 C329 1.240 . S
O337 In325 2.326 . S
O337 C329 1.252 . S
In338 O339 2.294 . S
In338 O340 2.326 . S
In338 O344 2.266 . S
In338 O345 2.326 . S
In338 O346 2.266 . S
In338 O347 2.326 . S
In338 O349 2.294 . S
In338 O350 2.326 . S
O339 In338 2.294 . S
O339 C348 1.240 . S
O340 In338 2.326 . S
O340 C348 1.252 . S
C341 O344 1.252 . S
C341 O345 1.260 . S
C342 O349 1.240 . S
C342 O350 1.252 . S
C343 O346 1.252 . S
C343 O347 1.260 . S
O344 In338 2.266 . S
O344 C341 1.252 . S
O345 In338 2.326 . S
O345 C341 1.260 . S
O346 In338 2.266 . S
O346 C343 1.252 . S
O347 In338 2.326 . S
O347 C343 1.260 . S
C348 O339 1.240 . S
C348 O340 1.252 . S
O349 In338 2.294 . S
O349 C342 1.240 . S
O350 In338 2.326 . S
O350 C342 1.252 . S
In351 O352 2.294 . S
In351 O353 2.326 . S
In351 O357 2.266 . S
In351 O358 2.326 . S
In351 O359 2.266 . S
In351 O360 2.326 . S
In351 O362 2.294 . S
In351 O363 2.326 . S
O352 In351 2.294 . S
O352 C361 1.240 . S
O353 In351 2.326 . S
O353 C361 1.252 . S
C354 O357 1.252 . S
C354 O358 1.260 . S
C355 O362 1.240 . S
C355 O363 1.252 . S
C356 O359 1.252 . S
C356 O360 1.260 . S
O357 In351 2.266 . S
O357 C354 1.252 . S
O358 In351 2.326 . S
O358 C354 1.260 . S
O359 In351 2.266 . S
O359 C356 1.252 . S
O360 In351 2.326 . S
O360 C356 1.260 . S
C361 O352 1.240 . S
C361 O353 1.252 . S
O362 In351 2.294 . S
O362 C355 1.240 . S
O363 In351 2.326 . S
O363 C355 1.252 . S
In364 O365 2.294 . S
In364 O366 2.326 . S
In364 O370 2.266 . S
In364 O371 2.326 . S
In364 O372 2.266 . S
In364 O373 2.326 . S
In364 O375 2.294 . S
In364 O376 2.326 . S
O365 In364 2.294 . S
O365 C374 1.240 . S
O366 In364 2.326 . S
O366 C374 1.252 . S
C367 O370 1.252 . S
C367 O371 1.260 . S
C368 O375 1.240 . S
C368 O376 1.252 . S
C369 O372 1.252 . S
C369 O373 1.260 . S
O370 In364 2.266 . S
O370 C367 1.252 . S
O371 In364 2.326 . S
O371 C367 1.260 . S
O372 In364 2.266 . S
O372 C369 1.252 . S
O373 In364 2.326 . S
O373 C369 1.260 . S
C374 O365 1.240 . S
C374 O366 1.252 . S
O375 In364 2.294 . S
O375 C368 1.240 . S
O376 In364 2.326 . S
O376 C368 1.252 . S
In377 O378 2.294 . S
In377 O379 2.326 . S
In377 O383 2.266 . S
In377 O384 2.326 . S
In377 O385 2.266 . S
In377 O386 2.326 . S
In377 O388 2.294 1_554 S
In377 O389 2.326 1_554 S
O378 In377 2.294 . S
O378 C387 1.240 . S
O379 In377 2.326 . S
O379 C387 1.252 . S
C380 O383 1.252 . S
C380 O384 1.260 . S
C381 O388 1.240 . S
C381 O389 1.252 . S
C382 O385 1.252 . S
C382 O386 1.260 . S
O383 In377 2.266 . S
O383 C380 1.252 . S
O384 In377 2.326 . S
O384 C380 1.260 . S
O385 In377 2.266 . S
O385 C382 1.252 . S
O386 In377 2.326 . S
O386 C382 1.260 . S
C387 O378 1.240 . S
C387 O379 1.252 . S
O388 In377 2.294 1_556 S
O388 C381 1.240 . S
O389 In377 2.326 1_556 S
O389 C381 1.252 . S
In390 O391 2.294 . S
In390 O392 2.326 . S
In390 O396 2.266 . S
In390 O397 2.326 . S
In390 O398 2.266 . S
In390 O399 2.326 . S
In390 O401 2.294 . S
In390 O402 2.326 . S
O391 In390 2.294 . S
O391 C400 1.240 . S
O392 In390 2.326 . S
O392 C400 1.252 . S
C393 O396 1.252 . S
C393 O397 1.260 . S
C394 O401 1.240 . S
C394 O402 1.252 . S
C395 O398 1.252 . S
C395 O399 1.260 . S
O396 In390 2.266 . S
O396 C393 1.252 . S
O397 In390 2.326 . S
O397 C393 1.260 . S
O398 In390 2.266 . S
O398 C395 1.252 . S
O399 In390 2.326 . S
O399 C395 1.260 . S
C400 O391 1.240 . S
C400 O392 1.252 . S
O401 In390 2.294 . S
O401 C394 1.240 . S
O402 In390 2.326 . S
O402 C394 1.252 . S
In403 O404 2.294 . S
In403 O405 2.326 . S
In403 O409 2.266 . S
In403 O410 2.326 . S
In403 O411 2.266 . S
In403 O412 2.326 . S
In403 O414 2.294 . S
In403 O415 2.326 . S
O404 In403 2.294 . S
O404 C413 1.240 . S
O405 In403 2.326 . S
O405 C413 1.252 . S
C406 O409 1.252 . S
C406 O410 1.260 . S
C407 O414 1.240 . S
C407 O415 1.252 . S
C408 O411 1.252 . S
C408 O412 1.260 . S
O409 In403 2.266 . S
O409 C406 1.252 . S
O410 In403 2.326 . S
O410 C406 1.260 . S
O411 In403 2.266 . S
O411 C408 1.252 . S
O412 In403 2.326 . S
O412 C408 1.260 . S
C413 O404 1.240 . S
C413 O405 1.252 . S
O414 In403 2.294 . S
O414 C407 1.240 . S
O415 In403 2.326 . S
O415 C407 1.252 . S
H416 C422 0.930 . S
H417 C426 0.930 . S
H418 C431 0.929 . S
H419 C429 0.929 . S
H420 C424 0.929 . S
H421 C430 0.929 . S
C422 H416 0.930 . S
C422 C423 1.367 . S
C422 C430 1.378 . S
C423 C422 1.367 . S
C423 C431 1.433 . S
C424 H420 0.929 . S
C424 C426 1.378 . S
C424 C428 1.350 . S
C425 C428 1.463 . S
C425 C430 1.350 . S
C425 N433 1.427 . S
C426 H417 0.930 . S
C426 C424 1.378 . S
C426 C427 1.367 . S
C427 C426 1.367 . S
C427 C429 1.433 . S
C428 C424 1.350 . S
C428 C425 1.463 . S
C428 N432 1.427 . S
C429 H419 0.929 . S
C429 C427 1.433 . S
C429 N432 1.384 . S
C430 H421 0.929 . S
C430 C422 1.378 . S
C430 C425 1.350 . S
C431 H418 0.929 . S
C431 C423 1.433 . S
C431 N433 1.384 . S
N432 C428 1.427 . S
N432 C429 1.384 . S
N433 C425 1.427 . S
N433 C431 1.384 . S
H434 C440 0.930 1_655 S
H435 C444 0.930 . S
H436 C449 0.929 . S
H437 C447 0.929 . S
H438 C442 0.929 . S
H439 C448 0.929 . S
C440 H434 0.930 1_455 S
C440 C441 1.366 . S
C440 C448 1.378 . S
C441 C440 1.366 . S
C441 C449 1.430 . S
C442 H438 0.929 . S
C442 C444 1.378 . S
C442 C446 1.350 . S
C443 C446 1.463 . S
C443 C448 1.350 . S
C443 N451 1.427 . S
C444 H435 0.930 . S
C444 C442 1.378 . S
C444 C445 1.367 . S
C445 C444 1.367 . S
C445 C447 1.433 . S
C446 C442 1.350 . S
C446 C443 1.463 . S
C446 N450 1.427 . S
C447 H437 0.929 . S
C447 C445 1.433 . S
C447 N450 1.384 . S
C448 H439 0.929 . S
C448 C440 1.378 . S
C448 C443 1.350 . S
C449 H436 0.929 . S
C449 C441 1.430 . S
C449 N451 1.384 . S
N450 C446 1.427 . S
N450 C447 1.384 . S
N451 C443 1.427 . S
N451 C449 1.384 . S
H452 C458 0.930 . S
H453 C462 0.930 . S
H454 C467 0.929 . S
H455 C465 0.929 . S
H456 C460 0.929 . S
H457 C466 0.929 . S
C458 H452 0.930 . S
C458 C459 1.367 . S
C458 C466 1.378 . S
C459 C458 1.367 . S
C459 C467 1.433 . S
C460 H456 0.929 . S
C460 C462 1.378 . S
C460 C464 1.350 . S
C461 C464 1.463 . S
C461 C466 1.350 . S
C461 N469 1.427 . S
C462 H453 0.930 . S
C462 C460 1.378 . S
C462 C463 1.367 . S
C463 C462 1.367 . S
C463 C465 1.433 . S
C464 C460 1.350 . S
C464 C461 1.463 . S
C464 N468 1.427 . S
C465 H455 0.929 . S
C465 C463 1.433 . S
C465 N468 1.384 . S
C466 H457 0.929 . S
C466 C458 1.378 . S
C466 C461 1.350 . S
C467 H454 0.929 . S
C467 C459 1.433 . S
C467 N469 1.384 . S
N468 C464 1.427 . S
N468 C465 1.384 . S
N469 C461 1.427 . S
N469 C467 1.384 . S
H470 C476 0.930 . S
H471 C480 0.930 . S
H472 C485 0.929 . S
H473 C483 0.929 . S
H474 C478 0.929 . S
H475 C484 0.929 . S
C476 H470 0.930 . S
C476 C477 1.367 . S
C476 C484 1.378 . S
C477 C476 1.367 . S
C477 C485 1.433 . S
C478 H474 0.929 . S
C478 C480 1.378 . S
C478 C482 1.350 . S
C479 C482 1.463 . S
C479 C484 1.350 . S
C479 N487 1.427 . S
C480 H471 0.930 . S
C480 C478 1.378 . S
C480 C481 1.367 . S
C481 C480 1.367 . S
C481 C483 1.433 . S
C482 C478 1.350 . S
C482 C479 1.463 . S
C482 N486 1.427 . S
C483 H473 0.929 . S
C483 C481 1.433 . S
C483 N486 1.384 . S
C484 H475 0.929 . S
C484 C476 1.378 . S
C484 C479 1.350 . S
C485 H472 0.929 . S
C485 C477 1.433 . S
C485 N487 1.384 . S
N486 C482 1.427 . S
N486 C483 1.384 . S
N487 C479 1.427 . S
N487 C485 1.384 . S
H488 C494 0.930 . S
H489 C498 0.930 . S
H490 C503 0.929 . S
H491 C501 0.929 . S
H492 C496 0.929 . S
H493 C502 0.929 . S
C494 H488 0.930 . S
C494 C495 1.367 . S
C494 C502 1.378 . S
C495 C494 1.367 . S
C495 C503 1.433 . S
C496 H492 0.929 . S
C496 C498 1.378 . S
C496 C500 1.350 . S
C497 C500 1.463 . S
C497 C502 1.350 . S
C497 N505 1.427 . S
C498 H489 0.930 . S
C498 C496 1.378 . S
C498 C499 1.367 . S
C499 C498 1.367 . S
C499 C501 1.433 . S
C500 C496 1.350 . S
C500 C497 1.463 . S
C500 N504 1.427 . S
C501 H491 0.929 . S
C501 C499 1.433 . S
C501 N504 1.384 . S
C502 H493 0.929 . S
C502 C494 1.378 . S
C502 C497 1.350 . S
C503 H490 0.929 . S
C503 C495 1.433 . S
C503 N505 1.384 . S
N504 C500 1.427 . S
N504 C501 1.384 . S
N505 C497 1.427 . S
N505 C503 1.384 . S
H506 C512 0.930 . S
H507 C516 0.930 . S
H508 C521 0.929 . S
H509 C519 0.929 . S
H510 C514 0.929 . S
H511 C520 0.929 . S
C512 H506 0.930 . S
C512 C513 1.367 . S
C512 C520 1.378 . S
C513 C512 1.367 . S
C513 C521 1.433 . S
C514 H510 0.929 . S
C514 C516 1.378 . S
C514 C518 1.350 . S
C515 C518 1.463 . S
C515 C520 1.350 . S
C515 N523 1.427 . S
C516 H507 0.930 . S
C516 C514 1.378 . S
C516 C517 1.367 . S
C517 C516 1.367 . S
C517 C519 1.433 . S
C518 C514 1.350 . S
C518 C515 1.463 . S
C518 N522 1.427 . S
C519 H509 0.929 . S
C519 C517 1.433 . S
C519 N522 1.384 . S
C520 H511 0.929 . S
C520 C512 1.378 . S
C520 C515 1.350 . S
C521 H508 0.929 . S
C521 C513 1.433 . S
C521 N523 1.384 . S
N522 C518 1.427 . S
N522 C519 1.384 . S
N523 C515 1.427 . S
N523 C521 1.384 . S
H524 C530 0.930 . S
H525 C534 0.930 . S
H526 C539 0.929 . S
H527 C537 0.929 . S
H528 C532 0.929 . S
H529 C538 0.929 . S
C530 H524 0.930 . S
C530 C531 1.367 . S
C530 C538 1.378 . S
C531 C530 1.367 . S
C531 C539 1.433 . S
C532 H528 0.929 . S
C532 C534 1.378 . S
C532 C536 1.350 . S
C533 C536 1.463 . S
C533 C538 1.350 . S
C533 N541 1.427 . S
C534 H525 0.930 . S
C534 C532 1.378 . S
C534 C535 1.367 . S
C535 C534 1.367 . S
C535 C537 1.433 . S
C536 C532 1.350 . S
C536 C533 1.463 . S
C536 N540 1.427 . S
C537 H527 0.929 . S
C537 C535 1.433 . S
C537 N540 1.384 . S
C538 H529 0.929 . S
C538 C530 1.378 . S
C538 C533 1.350 . S
C539 H526 0.929 . S
C539 C531 1.433 . S
C539 N541 1.384 . S
N540 C536 1.427 . S
N540 C537 1.384 . S
N541 C533 1.427 . S
N541 C539 1.384 . S
H542 C548 0.930 . S
H543 C552 0.930 . S
H544 C557 0.929 . S
H545 C555 0.940 . S
H546 C550 0.929 . S
H547 C556 0.929 . S
C548 H542 0.930 . S
C548 C549 1.367 . S
C548 C556 1.378 . S
C549 C548 1.367 . S
C549 C557 1.433 . S
C550 H546 0.929 . S
C550 C552 1.378 . S
C550 C554 1.350 . S
C551 C554 1.463 . S
C551 C556 1.350 . S
C551 N559 1.427 . S
C552 H543 0.930 . S
C552 C550 1.378 . S
C552 C553 1.380 . S
C553 C552 1.380 . S
C553 C555 1.433 1_455 S
C554 C550 1.350 . S
C554 C551 1.463 . S
C554 N558 1.427 . S
C555 H545 0.940 . S
C555 C553 1.433 1_655 S
C555 N558 1.373 1_655 S
C556 H547 0.929 . S
C556 C548 1.378 . S
C556 C551 1.350 . S
C557 H544 0.929 . S
C557 C549 1.433 . S
C557 N559 1.384 . S
N558 C554 1.427 . S
N558 C555 1.373 1_455 S
N559 C551 1.427 . S
N559 C557 1.384 . S
H560 C566 0.930 . S
H561 C570 0.930 . S
H562 C575 0.929 . S
H563 C573 0.929 . S
H564 C568 0.929 . S
H565 C574 0.929 . S
C566 H560 0.930 . S
C566 C567 1.367 . S
C566 C574 1.378 . S
C567 C566 1.367 . S
C567 C575 1.433 . S
C568 H564 0.929 . S
C568 C570 1.378 . S
C568 C572 1.350 . S
C569 C572 1.463 . S
C569 C574 1.350 . S
C569 N577 1.427 . S
C570 H561 0.930 . S
C570 C568 1.378 . S
C570 C571 1.367 . S
C571 C570 1.367 . S
C571 C573 1.433 . S
C572 C568 1.350 . S
C572 C569 1.463 . S
C572 N576 1.427 . S
C573 H563 0.929 . S
C573 C571 1.433 . S
C573 N576 1.384 . S
C574 H565 0.929 . S
C574 C566 1.378 . S
C574 C569 1.350 . S
C575 H562 0.929 . S
C575 C567 1.433 . S
C575 N577 1.384 . S
N576 C572 1.427 . S
N576 C573 1.384 . S
N577 C569 1.427 . S
N577 C575 1.384 . S
H578 C584 0.930 . S
H579 C588 0.930 . S
H580 C593 0.929 . S
H581 C591 0.929 . S
H582 C586 0.929 . S
H583 C592 0.929 . S
C584 H578 0.930 . S
C584 C585 1.385 . S
C584 C592 1.378 . S
C585 C584 1.385 . S
C585 C593 1.431 1_655 S
C586 H582 0.929 . S
C586 C588 1.378 . S
C586 C590 1.350 . S
C587 C590 1.463 . S
C587 C592 1.350 . S
C587 N595 1.427 . S
C588 H579 0.930 . S
C588 C586 1.378 . S
C588 C589 1.367 . S
C589 C588 1.367 . S
C589 C591 1.433 . S
C590 C586 1.350 . S
C590 C587 1.463 . S
C590 N594 1.427 . S
C591 H581 0.929 . S
C591 C589 1.433 . S
C591 N594 1.384 . S
C592 H583 0.929 . S
C592 C584 1.378 . S
C592 C587 1.350 . S
C593 H580 0.929 . S
C593 C585 1.431 1_455 S
C593 N595 1.384 1_455 S
N594 C590 1.427 . S
N594 C591 1.384 . S
N595 C587 1.427 . S
N595 C593 1.384 1_655 S
H596 C602 0.930 . S
H597 C606 0.930 . S
H598 C611 0.929 . S
H599 C609 0.929 . S
H600 C604 0.929 . S
H601 C610 0.929 . S
C602 H596 0.930 . S
C602 C603 1.367 . S
C602 C610 1.378 . S
C603 C602 1.367 . S
C603 C611 1.433 . S
C604 H600 0.929 . S
C604 C606 1.378 . S
C604 C608 1.350 . S
C605 C608 1.463 . S
C605 C610 1.350 . S
C605 N613 1.427 . S
C606 H597 0.930 . S
C606 C604 1.378 . S
C606 C607 1.367 . S
C607 C606 1.367 . S
C607 C609 1.433 . S
C608 C604 1.350 . S
C608 C605 1.463 . S
C608 N612 1.427 . S
C609 H599 0.929 . S
C609 C607 1.433 . S
C609 N612 1.384 . S
C610 H601 0.929 . S
C610 C602 1.378 . S
C610 C605 1.350 . S
C611 H598 0.929 . S
C611 C603 1.433 . S
C611 N613 1.384 . S
N612 C608 1.427 . S
N612 C609 1.384 . S
N613 C605 1.427 . S
N613 C611 1.384 . S
H614 C620 0.930 . S
H615 C624 0.930 . S
H616 C629 0.929 . S
H617 C627 0.929 . S
H618 C622 0.929 . S
H619 C628 0.929 . S
C620 H614 0.930 . S
C620 C621 1.367 . S
C620 C628 1.378 . S
C621 C620 1.367 . S
C621 C629 1.433 . S
C622 H618 0.929 . S
C622 C624 1.378 . S
C622 C626 1.350 . S
C623 C626 1.463 . S
C623 C628 1.350 . S
C623 N631 1.427 . S
C624 H615 0.930 . S
C624 C622 1.378 . S
C624 C625 1.367 . S
C625 C624 1.367 . S
C625 C627 1.433 . S
C626 C622 1.350 . S
C626 C623 1.463 . S
C626 N630 1.427 . S
C627 H617 0.929 . S
C627 C625 1.433 . S
C627 N630 1.384 . S
C628 H619 0.929 . S
C628 C620 1.378 . S
C628 C623 1.350 . S
C629 H616 0.929 . S
C629 C621 1.433 . S
C629 N631 1.384 . S
N630 C626 1.427 . S
N630 C627 1.384 . S
N631 C623 1.427 . S
N631 C629 1.384 . S
H632 C638 0.930 . S
H633 C642 0.930 . S
H634 C647 0.929 . S
H635 C645 0.929 . S
H636 C640 0.929 . S
H637 C646 0.929 . S
C638 H632 0.930 . S
C638 C639 1.367 . S
C638 C646 1.378 . S
C639 C638 1.367 . S
C639 C647 1.433 . S
C640 H636 0.929 . S
C640 C642 1.378 . S
C640 C644 1.350 . S
C641 C644 1.463 . S
C641 C646 1.350 . S
C641 N649 1.427 . S
C642 H633 0.930 . S
C642 C640 1.378 . S
C642 C643 1.367 . S
C643 C642 1.367 . S
C643 C645 1.433 . S
C644 C640 1.350 . S
C644 C641 1.463 . S
C644 N648 1.427 . S
C645 H635 0.929 . S
C645 C643 1.433 . S
C645 N648 1.384 . S
C646 H637 0.929 . S
C646 C638 1.378 . S
C646 C641 1.350 . S
C647 H634 0.929 . S
C647 C639 1.433 . S
C647 N649 1.384 . S
N648 C644 1.427 . S
N648 C645 1.384 . S
N649 C641 1.427 . S
N649 C647 1.384 . S
H650 C656 0.930 . S
H651 C660 0.930 . S
H652 C665 0.929 . S
H653 C663 0.929 . S
H654 C658 0.929 . S
H655 C664 0.929 . S
C656 H650 0.930 . S
C656 C657 1.367 . S
C656 C664 1.378 . S
C657 C656 1.367 . S
C657 C665 1.433 . S
C658 H654 0.929 . S
C658 C660 1.378 . S
C658 C662 1.350 . S
C659 C662 1.463 . S
C659 C664 1.350 . S
C659 N667 1.427 . S
C660 H651 0.930 . S
C660 C658 1.378 . S
C660 C661 1.367 . S
C661 C660 1.367 . S
C661 C663 1.433 . S
C662 C658 1.350 . S
C662 C659 1.463 . S
C662 N666 1.427 . S
C663 H653 0.929 . S
C663 C661 1.433 . S
C663 N666 1.384 . S
C664 H655 0.929 . S
C664 C656 1.378 . S
C664 C659 1.350 . S
C665 H652 0.929 . S
C665 C657 1.433 . S
C665 N667 1.384 . S
N666 C662 1.427 . S
N666 C663 1.384 . S
N667 C659 1.427 . S
N667 C665 1.384 . S
H668 C674 0.930 . S
H669 C678 0.930 . S
H670 C683 0.929 . S
H671 C681 0.929 . S
H672 C676 0.929 . S
H673 C682 0.929 . S
C674 H668 0.930 . S
C674 C675 1.367 . S
C674 C682 1.378 . S
C675 C674 1.367 . S
C675 C683 1.433 . S
C676 H672 0.929 . S
C676 C678 1.378 . S
C676 C680 1.350 . S
C677 C680 1.463 . S
C677 C682 1.350 . S
C677 N685 1.427 . S
C678 H669 0.930 . S
C678 C676 1.378 . S
C678 C679 1.367 . S
C679 C678 1.367 . S
C679 C681 1.433 . S
C680 C676 1.350 . S
C680 C677 1.463 . S
C680 N684 1.427 . S
C681 H671 0.929 . S
C681 C679 1.433 . S
C681 N684 1.384 . S
C682 H673 0.929 . S
C682 C674 1.378 . S
C682 C677 1.350 . S
C683 H670 0.929 . S
C683 C675 1.433 . S
C683 N685 1.384 . S
N684 C680 1.427 . S
N684 C681 1.384 . S
N685 C677 1.427 . S
N685 C683 1.384 . S
H686 C692 0.930 . S
H687 C696 0.930 1_455 S
H688 C701 0.929 . S
H689 C699 0.929 . S
H690 C694 0.929 . S
H691 C700 0.929 . S
C692 H686 0.930 . S
C692 C693 1.367 . S
C692 C700 1.378 . S
C693 C692 1.367 . S
C693 C701 1.433 . S
C694 H690 0.929 . S
C694 C696 1.378 . S
C694 C698 1.350 . S
C695 C698 1.463 . S
C695 C700 1.350 . S
C695 N703 1.427 . S
C696 H687 0.930 1_655 S
C696 C694 1.378 . S
C696 C697 1.367 1_655 S
C697 C696 1.367 1_455 S
C697 C699 1.437 1_455 S
C698 C694 1.350 . S
C698 C695 1.463 . S
C698 N702 1.427 . S
C699 H689 0.929 . S
C699 C697 1.437 1_655 S
C699 N702 1.384 . S
C700 H691 0.929 . S
C700 C692 1.378 . S
C700 C695 1.350 . S
C701 H688 0.929 . S
C701 C693 1.433 . S
C701 N703 1.384 . S
N702 C698 1.427 . S
N702 C699 1.384 . S
N703 C695 1.427 . S
N703 C701 1.384 . S
H704 C710 0.930 . S
H705 C714 0.930 . S
H706 C719 0.929 . S
H707 C717 0.929 . S
H708 C712 0.929 . S
H709 C718 0.929 . S
C710 H704 0.930 . S
C710 C711 1.367 . S
C710 C718 1.378 . S
C711 C710 1.367 . S
C711 C719 1.433 . S
C712 H708 0.929 . S
C712 C714 1.378 . S
C712 C716 1.350 . S
C713 C716 1.463 . S
C713 C718 1.350 . S
C713 N721 1.427 . S
C714 H705 0.930 . S
C714 C712 1.378 . S
C714 C715 1.367 . S
C715 C714 1.367 . S
C715 C717 1.433 . S
C716 C712 1.350 . S
C716 C713 1.463 . S
C716 N720 1.427 . S
C717 H707 0.929 . S
C717 C715 1.433 . S
C717 N720 1.384 . S
C718 H709 0.929 . S
C718 C710 1.378 . S
C718 C713 1.350 . S
C719 H706 0.929 . S
C719 C711 1.433 . S
C719 N721 1.384 . S
N720 C716 1.427 . S
N720 C717 1.384 . S
N721 C713 1.427 . S
N721 C719 1.384 . S
H722 C728 0.930 . S
H723 C732 0.930 . S
H724 C737 0.929 . S
H725 C735 0.929 . S
H726 C730 0.929 . S
H727 C736 0.929 . S
C728 H722 0.930 . S
C728 C729 1.367 . S
C728 C736 1.378 . S
C729 C728 1.367 . S
C729 C737 1.433 . S
C730 H726 0.929 . S
C730 C732 1.378 . S
C730 C734 1.350 . S
C731 C734 1.463 . S
C731 C736 1.350 . S
C731 N739 1.427 . S
C732 H723 0.930 . S
C732 C730 1.378 . S
C732 C733 1.367 . S
C733 C732 1.367 . S
C733 C735 1.433 . S
C734 C730 1.350 . S
C734 C731 1.463 . S
C734 N738 1.427 . S
C735 H725 0.929 . S
C735 C733 1.433 . S
C735 N738 1.384 . S
C736 H727 0.929 . S
C736 C728 1.378 . S
C736 C731 1.350 . S
C737 H724 0.929 . S
C737 C729 1.433 . S
C737 N739 1.384 . S
N738 C734 1.427 . S
N738 C735 1.384 . S
N739 C731 1.427 . S
N739 C737 1.384 . S
H740 C746 0.930 . S
H741 C750 0.930 . S
H742 C755 0.929 . S
H743 C753 0.929 . S
H744 C748 0.929 . S
H745 C754 0.929 . S
C746 H740 0.930 . S
C746 C747 1.367 . S
C746 C754 1.378 . S
C747 C746 1.367 . S
C747 C755 1.433 . S
C748 H744 0.929 . S
C748 C750 1.378 . S
C748 C752 1.350 . S
C749 C752 1.463 . S
C749 C754 1.350 . S
C749 N757 1.427 . S
C750 H741 0.930 . S
C750 C748 1.378 . S
C750 C751 1.367 . S
C751 C750 1.367 . S
C751 C753 1.433 . S
C752 C748 1.350 . S
C752 C749 1.463 . S
C752 N756 1.427 . S
C753 H743 0.929 . S
C753 C751 1.433 . S
C753 N756 1.384 . S
C754 H745 0.929 . S
C754 C746 1.378 . S
C754 C749 1.350 . S
C755 H742 0.929 . S
C755 C747 1.433 . S
C755 N757 1.384 . S
N756 C752 1.427 . S
N756 C753 1.384 . S
N757 C749 1.427 . S
N757 C755 1.384 . S
H758 C764 0.930 . S
H759 C768 0.930 . S
H760 C773 0.929 . S
H761 C771 0.929 . S
H762 C766 0.929 . S
H763 C772 0.929 . S
C764 H758 0.930 . S
C764 C765 1.367 . S
C764 C772 1.378 . S
C765 C764 1.367 . S
C765 C773 1.433 . S
C766 H762 0.929 . S
C766 C768 1.378 1_655 S
C766 C770 1.350 . S
C767 C770 1.463 . S
C767 C772 1.350 . S
C767 N775 1.427 . S
C768 H759 0.930 . S
C768 C766 1.378 1_455 S
C768 C769 1.367 . S
C769 C768 1.367 . S
C769 C771 1.432 1_455 S
C770 C766 1.350 . S
C770 C767 1.463 . S
C770 N774 1.427 . S
C771 H761 0.929 . S
C771 C769 1.432 1_655 S
C771 N774 1.384 . S
C772 H763 0.929 . S
C772 C764 1.378 . S
C772 C767 1.350 . S
C773 H760 0.929 . S
C773 C765 1.433 . S
C773 N775 1.384 . S
N774 C770 1.427 . S
N774 C771 1.384 . S
N775 C767 1.427 . S
N775 C773 1.384 . S
H776 C782 0.930 . S
H777 C786 0.930 . S
H778 C791 0.929 . S
H779 C789 0.929 . S
H780 C784 0.929 . S
H781 C790 0.929 . S
C782 H776 0.930 . S
C782 C783 1.367 . S
C782 C790 1.378 . S
C783 C782 1.367 . S
C783 C791 1.433 . S
C784 H780 0.929 . S
C784 C786 1.378 . S
C784 C788 1.350 . S
C785 C788 1.463 . S
C785 C790 1.350 . S
C785 N793 1.427 . S
C786 H777 0.930 . S
C786 C784 1.378 . S
C786 C787 1.367 . S
C787 C786 1.367 . S
C787 C789 1.433 . S
C788 C784 1.350 . S
C788 C785 1.463 . S
C788 N792 1.427 . S
C789 H779 0.929 . S
C789 C787 1.433 . S
C789 N792 1.384 . S
C790 H781 0.929 . S
C790 C782 1.378 . S
C790 C785 1.350 . S
C791 H778 0.929 . S
C791 C783 1.433 . S
C791 N793 1.384 . S
N792 C788 1.427 . S
N792 C789 1.384 . S
N793 C785 1.427 . S
N793 C791 1.384 . S
H794 C800 0.930 . S
H795 C804 0.930 . S
H796 C809 0.929 . S
H797 C807 0.929 . S
H798 C802 0.929 . S
H799 C808 0.929 . S
C800 H794 0.930 . S
C800 C801 1.383 . S
C800 C808 1.378 . S
C801 C800 1.383 . S
C801 C809 1.431 1_655 S
C802 H798 0.929 . S
C802 C804 1.378 . S
C802 C806 1.350 . S
C803 C806 1.463 . S
C803 C808 1.350 . S
C803 N811 1.427 . S
C804 H795 0.930 . S
C804 C802 1.378 . S
C804 C805 1.367 . S
C805 C804 1.367 . S
C805 C807 1.433 . S
C806 C802 1.350 . S
C806 C803 1.463 . S
C806 N810 1.427 . S
C807 H797 0.929 . S
C807 C805 1.433 . S
C807 N810 1.384 . S
C808 H799 0.929 . S
C808 C800 1.378 . S
C808 C803 1.350 . S
C809 H796 0.929 . S
C809 C801 1.431 1_455 S
C809 N811 1.384 1_455 S
N810 C806 1.427 . S
N810 C807 1.384 . S
N811 C803 1.427 . S
N811 C809 1.384 1_655 S
H812 C818 0.930 . S
H813 C822 0.930 . S
H814 C827 0.929 . S
H815 C825 0.929 . S
H816 C820 0.929 . S
H817 C826 0.929 . S
C818 H812 0.930 . S
C818 C819 1.367 . S
C818 C826 1.378 . S
C819 C818 1.367 . S
C819 C827 1.433 . S
C820 H816 0.929 . S
C820 C822 1.378 . S
C820 C824 1.350 . S
C821 C824 1.463 . S
C821 C826 1.350 . S
C821 N829 1.427 . S
C822 H813 0.930 . S
C822 C820 1.378 . S
C822 C823 1.367 . S
C823 C822 1.367 . S
C823 C825 1.433 . S
C824 C820 1.350 . S
C824 C821 1.463 . S
C824 N828 1.427 . S
C825 H815 0.929 . S
C825 C823 1.433 . S
C825 N828 1.384 . S
C826 H817 0.929 . S
C826 C818 1.378 . S
C826 C821 1.350 . S
C827 H814 0.929 . S
C827 C819 1.433 . S
C827 N829 1.384 . S
N828 C824 1.427 . S
N828 C825 1.384 . S
N829 C821 1.427 . S
N829 C827 1.384 . S
H830 C836 0.930 . S
H831 C840 0.930 . S
H832 C845 0.929 . S
H833 C843 0.929 . S
H834 C838 0.929 . S
H835 C844 0.929 . S
C836 H830 0.930 . S
C836 C837 1.367 . S
C836 C844 1.378 . S
C837 C836 1.367 . S
C837 C845 1.433 . S
C838 H834 0.929 . S
C838 C840 1.378 . S
C838 C842 1.350 . S
C839 C842 1.463 . S
C839 C844 1.350 . S
C839 N847 1.427 . S
C840 H831 0.930 . S
C840 C838 1.378 . S
C840 C841 1.367 . S
C841 C840 1.367 . S
C841 C843 1.433 . S
C842 C838 1.350 . S
C842 C839 1.463 . S
C842 N846 1.427 . S
C843 H833 0.929 . S
C843 C841 1.433 . S
C843 N846 1.384 . S
C844 H835 0.929 . S
C844 C836 1.378 . S
C844 C839 1.350 . S
C845 H832 0.929 . S
C845 C837 1.433 . S
C845 N847 1.384 . S
N846 C842 1.427 . S
N846 C843 1.384 . S
N847 C839 1.427 . S
N847 C845 1.384 . S
H848 C854 0.930 . S
H849 C858 0.930 . S
H850 C863 0.929 . S
H851 C861 0.929 . S
H852 C856 0.929 . S
H853 C862 0.929 . S
C854 H848 0.930 . S
C854 C855 1.367 . S
C854 C862 1.378 . S
C855 C854 1.367 . S
C855 C863 1.433 . S
C856 H852 0.929 . S
C856 C858 1.378 . S
C856 C860 1.350 . S
C857 C860 1.463 . S
C857 C862 1.350 . S
C857 N865 1.427 . S
C858 H849 0.930 . S
C858 C856 1.378 . S
C858 C859 1.367 . S
C859 C858 1.367 . S
C859 C861 1.433 . S
C860 C856 1.350 . S
C860 C857 1.463 . S
C860 N864 1.427 . S
C861 H851 0.929 . S
C861 C859 1.433 . S
C861 N864 1.384 . S
C862 H853 0.929 . S
C862 C854 1.378 . S
C862 C857 1.350 . S
C863 H850 0.929 . S
C863 C855 1.433 . S
C863 N865 1.384 . S
N864 C860 1.427 . S
N864 C861 1.384 . S
N865 C857 1.427 . S
N865 C863 1.384 . S
H866 C872 0.930 . S
H867 C876 0.930 . S
H868 C881 0.929 . S
H869 C879 0.929 . S
H870 C874 0.929 . S
H871 C880 0.929 . S
C872 H866 0.930 . S
C872 C873 1.367 . S
C872 C880 1.378 . S
C873 C872 1.367 . S
C873 C881 1.433 . S
C874 H870 0.929 . S
C874 C876 1.378 . S
C874 C878 1.350 . S
C875 C878 1.463 . S
C875 C880 1.350 . S
C875 N883 1.427 . S
C876 H867 0.930 . S
C876 C874 1.378 . S
C876 C877 1.367 . S
C877 C876 1.367 . S
C877 C879 1.433 . S
C878 C874 1.350 . S
C878 C875 1.463 . S
C878 N882 1.427 . S
C879 H869 0.929 . S
C879 C877 1.433 . S
C879 N882 1.384 . S
C880 H871 0.929 . S
C880 C872 1.378 . S
C880 C875 1.350 . S
C881 H868 0.929 . S
C881 C873 1.433 . S
C881 N883 1.384 . S
N882 C878 1.427 . S
N882 C879 1.384 . S
N883 C875 1.427 . S
N883 C881 1.384 . S
H884 C890 0.930 . S
H885 C894 0.930 . S
H886 C899 0.929 . S
H887 C897 0.929 . S
H888 C892 0.929 . S
H889 C898 0.929 . S
C890 H884 0.930 . S
C890 C891 1.367 . S
C890 C898 1.378 . S
C891 C890 1.367 . S
C891 C899 1.433 . S
C892 H888 0.929 . S
C892 C894 1.378 . S
C892 C896 1.350 . S
C893 C896 1.463 . S
C893 C898 1.350 . S
C893 N901 1.427 . S
C894 H885 0.930 . S
C894 C892 1.378 . S
C894 C895 1.367 . S
C895 C894 1.367 . S
C895 C897 1.433 . S
C896 C892 1.350 . S
C896 C893 1.463 . S
C896 N900 1.427 . S
C897 H887 0.929 . S
C897 C895 1.433 . S
C897 N900 1.384 . S
C898 H889 0.929 . S
C898 C890 1.378 . S
C898 C893 1.350 . S
C899 H886 0.929 . S
C899 C891 1.433 . S
C899 N901 1.384 . S
N900 C896 1.427 . S
N900 C897 1.384 . S
N901 C893 1.427 . S
N901 C899 1.384 . S
H902 C908 0.930 . S
H903 C912 0.930 . S
H904 C917 0.929 . S
H905 C915 0.929 . S
H906 C910 0.929 . S
H907 C916 0.929 . S
C908 H902 0.930 . S
C908 C909 1.367 . S
C908 C916 1.378 1_655 S
C909 C908 1.367 . S
C909 C917 1.432 1_655 S
C910 H906 0.929 . S
C910 C912 1.378 . S
C910 C914 1.350 . S
C911 C914 1.463 . S
C911 C916 1.350 . S
C911 N919 1.427 . S
C912 H903 0.930 . S
C912 C910 1.378 . S
C912 C913 1.367 . S
C913 C912 1.367 . S
C913 C915 1.433 . S
C914 C910 1.350 . S
C914 C911 1.463 . S
C914 N918 1.427 . S
C915 H905 0.929 . S
C915 C913 1.433 . S
C915 N918 1.384 . S
C916 H907 0.929 . S
C916 C908 1.378 1_455 S
C916 C911 1.350 . S
C917 H904 0.929 . S
C917 C909 1.432 1_455 S
C917 N919 1.384 . S
N918 C914 1.427 . S
N918 C915 1.384 . S
N919 C911 1.427 . S
N919 C917 1.384 . S
H920 C926 0.930 . S
H921 C930 0.930 . S
H922 C935 0.929 . S
H923 C933 0.929 . S
H924 C928 0.929 . S
H925 C934 0.929 . S
C926 H920 0.930 . S
C926 C927 1.367 . S
C926 C934 1.378 . S
C927 C926 1.367 . S
C927 C935 1.433 . S
C928 H924 0.929 . S
C928 C930 1.378 . S
C928 C932 1.350 . S
C929 C932 1.463 . S
C929 C934 1.350 . S
C929 N937 1.427 . S
C930 H921 0.930 . S
C930 C928 1.378 . S
C930 C931 1.367 . S
C931 C930 1.367 . S
C931 C933 1.433 . S
C932 C928 1.350 . S
C932 C929 1.463 . S
C932 N936 1.427 . S
C933 H923 0.929 . S
C933 C931 1.433 . S
C933 N936 1.384 . S
C934 H925 0.929 . S
C934 C926 1.378 . S
C934 C929 1.350 . S
C935 H922 0.929 . S
C935 C927 1.433 . S
C935 N937 1.384 . S
N936 C932 1.427 . S
N936 C933 1.384 . S
N937 C929 1.427 . S
N937 C935 1.384 . S
H938 C944 0.930 . S
H939 C948 0.930 . S
H940 C953 0.929 1_655 S
H941 C951 0.929 . S
H942 C946 0.929 . S
H943 C952 0.929 . S
C944 H938 0.930 . S
C944 C945 1.377 . S
C944 C952 1.378 . S
C945 C944 1.377 . S
C945 C953 1.434 . S
C946 H942 0.929 . S
C946 C948 1.378 . S
C946 C950 1.350 . S
C947 C950 1.463 . S
C947 C952 1.350 . S
C947 N955 1.427 . S
C948 H939 0.930 . S
C948 C946 1.378 . S
C948 C949 1.367 . S
C949 C948 1.367 . S
C949 C951 1.433 . S
C950 C946 1.350 . S
C950 C947 1.463 . S
C950 N954 1.427 . S
C951 H941 0.929 . S
C951 C949 1.433 . S
C951 N954 1.384 . S
C952 H943 0.929 . S
C952 C944 1.378 . S
C952 C947 1.350 . S
C953 H940 0.929 1_455 S
C953 C945 1.434 . S
C953 N955 1.384 . S
N954 C950 1.427 . S
N954 C951 1.384 . S
N955 C947 1.427 . S
N955 C953 1.384 . S
H956 C962 0.930 . S
H957 C966 0.930 . S
H958 C971 0.929 . S
H959 C969 0.929 . S
H960 C964 0.929 . S
H961 C970 0.929 . S
C962 H956 0.930 . S
C962 C963 1.367 . S
C962 C970 1.378 . S
C963 C962 1.367 . S
C963 C971 1.433 . S
C964 H960 0.929 . S
C964 C966 1.378 . S
C964 C968 1.350 . S
C965 C968 1.463 . S
C965 C970 1.350 . S
C965 N973 1.427 . S
C966 H957 0.930 . S
C966 C964 1.378 . S
C966 C967 1.367 . S
C967 C966 1.367 . S
C967 C969 1.433 . S
C968 C964 1.350 . S
C968 C965 1.463 . S
C968 N972 1.427 . S
C969 H959 0.929 . S
C969 C967 1.433 . S
C969 N972 1.384 . S
C970 H961 0.929 . S
C970 C962 1.378 . S
C970 C965 1.350 . S
C971 H958 0.929 . S
C971 C963 1.433 . S
C971 N973 1.384 . S
N972 C968 1.427 . S
N972 C969 1.384 . S
N973 C965 1.427 . S
N973 C971 1.384 . S
H974 C980 0.930 . S
H975 C984 0.930 . S
H976 C989 0.929 . S
H977 C987 0.929 . S
H978 C982 0.929 . S
H979 C988 0.929 . S
C980 H974 0.930 . S
C980 C981 1.367 . S
C980 C988 1.378 . S
C981 C980 1.367 . S
C981 C989 1.433 . S
C982 H978 0.929 . S
C982 C984 1.378 . S
C982 C986 1.350 . S
C983 C986 1.463 . S
C983 C988 1.350 . S
C983 N991 1.427 . S
C984 H975 0.930 . S
C984 C982 1.378 . S
C984 C985 1.367 . S
C985 C984 1.367 . S
C985 C987 1.433 . S
C986 C982 1.350 . S
C986 C983 1.463 . S
C986 N990 1.427 . S
C987 H977 0.929 . S
C987 C985 1.433 . S
C987 N990 1.384 . S
C988 H979 0.929 . S
C988 C980 1.378 . S
C988 C983 1.350 . S
C989 H976 0.929 . S
C989 C981 1.433 . S
C989 N991 1.384 . S
N990 C986 1.427 . S
N990 C987 1.384 . S
N991 C983 1.427 . S
N991 C989 1.384 . S
H992 C998 0.930 . S
H993 C1002 0.930 . S
H994 C1007 0.929 . S
H995 C1005 0.929 . S
H996 C1000 0.929 . S
H997 C1006 0.929 . S
C998 H992 0.930 . S
C998 C999 1.367 . S
C998 C1006 1.378 . S
C999 C998 1.367 . S
C999 C1007 1.433 . S
C1000 H996 0.929 . S
C1000 C1002 1.378 . S
C1000 C1004 1.350 . S
C1001 C1004 1.463 . S
C1001 C1006 1.350 . S
C1001 N1009 1.427 . S
C1002 H993 0.930 . S
C1002 C1000 1.378 . S
C1002 C1003 1.367 . S
C1003 C1002 1.367 . S
C1003 C1005 1.433 . S
C1004 C1000 1.350 . S
C1004 C1001 1.463 . S
C1004 N1008 1.427 . S
C1005 H995 0.929 . S
C1005 C1003 1.433 . S
C1005 N1008 1.384 . S
C1006 H997 0.929 . S
C1006 C998 1.378 . S
C1006 C1001 1.350 . S
C1007 H994 0.929 . S
C1007 C999 1.433 . S
C1007 N1009 1.384 . S
N1008 C1004 1.427 . S
N1008 C1005 1.384 . S
N1009 C1001 1.427 . S
N1009 C1007 1.384 . S
H1010 C1016 0.930 . S
H1011 C1020 0.930 . S
H1012 C1025 0.929 . S
H1013 C1023 0.929 . S
H1014 C1018 0.929 . S
H1015 C1024 0.929 . S
C1016 H1010 0.930 . S
C1016 C1017 1.367 . S
C1016 C1024 1.378 1_655 S
C1017 C1016 1.367 . S
C1017 C1025 1.433 . S
C1018 H1014 0.929 . S
C1018 C1020 1.378 1_655 S
C1018 C1022 1.350 1_655 S
C1019 C1022 1.463 1_665 S
C1019 C1024 1.350 1_655 S
C1019 N1027 1.427 . S
C1020 H1011 0.930 . S
C1020 C1018 1.378 1_455 S
C1020 C1021 1.367 . S
C1021 C1020 1.367 . S
C1021 C1023 1.433 . S
C1022 C1018 1.350 1_455 S
C1022 C1019 1.463 1_445 S
C1022 N1026 1.427 . S
C1023 H1013 0.929 . S
C1023 C1021 1.433 . S
C1023 N1026 1.384 . S
C1024 H1015 0.929 . S
C1024 C1016 1.378 1_455 S
C1024 C1019 1.350 1_455 S
C1025 H1012 0.929 . S
C1025 C1017 1.433 . S
C1025 N1027 1.384 . S
N1026 C1022 1.427 . S
N1026 C1023 1.384 . S
N1027 C1019 1.427 . S
N1027 C1025 1.384 . S
H1028 C1034 0.930 . S
H1029 C1038 0.930 . S
H1030 C1043 0.929 . S
H1031 C1041 0.929 . S
H1032 C1036 0.929 . S
H1033 C1042 0.929 . S
C1034 H1028 0.930 . S
C1034 C1035 1.367 . S
C1034 C1042 1.378 . S
C1035 C1034 1.367 . S
C1035 C1043 1.433 . S
C1036 H1032 0.929 . S
C1036 C1038 1.378 . S
C1036 C1040 1.350 . S
C1037 C1040 1.463 . S
C1037 C1042 1.350 . S
C1037 N1045 1.427 . S
C1038 H1029 0.930 . S
C1038 C1036 1.378 . S
C1038 C1039 1.367 . S
C1039 C1038 1.367 . S
C1039 C1041 1.433 . S
C1040 C1036 1.350 . S
C1040 C1037 1.463 . S
C1040 N1044 1.427 . S
C1041 H1031 0.929 . S
C1041 C1039 1.433 . S
C1041 N1044 1.384 . S
C1042 H1033 0.929 . S
C1042 C1034 1.378 . S
C1042 C1037 1.350 . S
C1043 H1030 0.929 . S
C1043 C1035 1.433 . S
C1043 N1045 1.384 . S
N1044 C1040 1.427 . S
N1044 C1041 1.384 . S
N1045 C1037 1.427 . S
N1045 C1043 1.384 . S
H1046 C1052 0.930 . S
H1047 C1056 0.930 . S
H1048 C1061 0.929 . S
H1049 C1059 0.929 . S
H1050 C1054 0.929 . S
H1051 C1060 0.929 . S
C1052 H1046 0.930 . S
C1052 C1053 1.367 . S
C1052 C1060 1.378 . S
C1053 C1052 1.367 . S
C1053 C1061 1.433 1_554 S
C1054 H1050 0.929 . S
C1054 C1056 1.378 . S
C1054 C1058 1.350 . S
C1055 C1058 1.463 1_544 S
C1055 C1060 1.350 . S
C1055 N1063 1.427 1_554 S
C1056 H1047 0.930 . S
C1056 C1054 1.378 . S
C1056 C1057 1.367 . S
C1057 C1056 1.367 . S
C1057 C1059 1.433 1_556 S
C1058 C1054 1.350 . S
C1058 C1055 1.463 1_566 S
C1058 N1062 1.427 1_556 S
C1059 H1049 0.929 . S
C1059 C1057 1.433 1_554 S
C1059 N1062 1.384 . S
C1060 H1051 0.929 . S
C1060 C1052 1.378 . S
C1060 C1055 1.350 . S
C1061 H1048 0.929 . S
C1061 C1053 1.433 1_556 S
C1061 N1063 1.384 . S
N1062 C1058 1.427 1_554 S
N1062 C1059 1.384 . S
N1063 C1055 1.427 1_556 S
N1063 C1061 1.384 . S
H1064 C1070 0.930 . S
H1065 C1074 0.930 . S
H1066 C1079 0.929 . S
H1067 C1077 0.929 . S
H1068 C1072 0.929 . S
H1069 C1078 0.929 . S
C1070 H1064 0.930 . S
C1070 C1071 1.367 . S
C1070 C1078 1.378 . S
C1071 C1070 1.367 . S
C1071 C1079 1.433 . S
C1072 H1068 0.929 . S
C1072 C1074 1.378 . S
C1072 C1076 1.350 . S
C1073 C1076 1.463 . S
C1073 C1078 1.350 . S
C1073 N1081 1.427 . S
C1074 H1065 0.930 . S
C1074 C1072 1.378 . S
C1074 C1075 1.367 . S
C1075 C1074 1.367 . S
C1075 C1077 1.433 . S
C1076 C1072 1.350 . S
C1076 C1073 1.463 . S
C1076 N1080 1.427 . S
C1077 H1067 0.929 . S
C1077 C1075 1.433 . S
C1077 N1080 1.384 . S
C1078 H1069 0.929 . S
C1078 C1070 1.378 . S
C1078 C1073 1.350 . S
C1079 H1066 0.929 . S
C1079 C1071 1.433 . S
C1079 N1081 1.384 . S
N1080 C1076 1.427 . S
N1080 C1077 1.384 . S
N1081 C1073 1.427 . S
N1081 C1079 1.384 . S
H1082 C1088 0.930 . S
H1083 C1092 0.930 . S
H1084 C1097 0.929 . S
H1085 C1095 0.929 . S
H1086 C1090 0.929 1_565 S
H1087 C1096 0.929 1_545 S
C1088 H1082 0.930 . S
C1088 C1089 1.367 . S
C1088 C1096 1.378 . S
C1089 C1088 1.367 . S
C1089 C1097 1.433 . S
C1090 H1086 0.929 1_545 S
C1090 C1092 1.378 . S
C1090 C1094 1.350 . S
C1091 C1094 1.463 1_565 S
C1091 C1096 1.350 . S
C1091 N1099 1.427 . S
C1092 H1083 0.930 . S
C1092 C1090 1.378 . S
C1092 C1093 1.367 . S
C1093 C1092 1.367 . S
C1093 C1095 1.433 . S
C1094 C1090 1.350 . S
C1094 C1091 1.463 1_545 S
C1094 N1098 1.427 . S
C1095 H1085 0.929 . S
C1095 C1093 1.433 . S
C1095 N1098 1.384 . S
C1096 H1087 0.929 1_565 S
C1096 C1088 1.378 . S
C1096 C1091 1.350 . S
C1097 H1084 0.929 . S
C1097 C1089 1.433 . S
C1097 N1099 1.384 . S
N1098 C1094 1.427 . S
N1098 C1095 1.384 . S
N1099 C1091 1.427 . S
N1099 C1097 1.384 . S
H1100 C1106 0.930 . S
H1101 C1110 0.930 . S
H1102 C1115 0.929 . S
H1103 C1113 0.929 . S
H1104 C1108 0.929 . S
H1105 C1114 0.929 . S
C1106 H1100 0.930 . S
C1106 C1107 1.367 . S
C1106 C1114 1.378 . S
C1107 C1106 1.367 . S
C1107 C1115 1.433 . S
C1108 H1104 0.929 . S
C1108 C1110 1.378 . S
C1108 C1112 1.350 . S
C1109 C1112 1.463 . S
C1109 C1114 1.350 . S
C1109 N1117 1.427 . S
C1110 H1101 0.930 . S
C1110 C1108 1.378 . S
C1110 C1111 1.367 . S
C1111 C1110 1.367 . S
C1111 C1113 1.433 . S
C1112 C1108 1.350 . S
C1112 C1109 1.463 . S
C1112 N1116 1.427 . S
C1113 H1103 0.929 . S
C1113 C1111 1.433 . S
C1113 N1116 1.384 . S
C1114 H1105 0.929 . S
C1114 C1106 1.378 . S
C1114 C1109 1.350 . S
C1115 H1102 0.929 . S
C1115 C1107 1.433 . S
C1115 N1117 1.384 . S
N1116 C1112 1.427 . S
N1116 C1113 1.384 . S
N1117 C1109 1.427 . S
N1117 C1115 1.384 . S
H1118 C1124 0.930 . S
H1119 C1128 0.930 . S
H1120 C1133 0.929 . S
H1121 C1131 0.929 . S
H1122 C1126 0.929 1_655 S
H1123 C1132 0.929 1_455 S
C1124 H1118 0.930 . S
C1124 C1125 1.367 1_554 S
C1124 C1132 1.378 . S
C1125 C1124 1.367 1_556 S
C1125 C1133 1.433 . S
C1126 H1122 0.929 1_455 S
C1126 C1128 1.378 . S
C1126 C1130 1.350 1_556 S
C1127 C1130 1.463 1_646 S
C1127 C1132 1.350 1_556 S
C1127 N1135 1.427 . S
C1128 H1119 0.930 . S
C1128 C1126 1.378 . S
C1128 C1129 1.367 1_556 S
C1129 C1128 1.367 1_554 S
C1129 C1131 1.433 . S
C1130 C1126 1.350 1_554 S
C1130 C1127 1.463 1_464 S
C1130 N1134 1.427 . S
C1131 H1121 0.929 . S
C1131 C1129 1.433 . S
C1131 N1134 1.384 . S
C1132 H1123 0.929 1_655 S
C1132 C1124 1.378 . S
C1132 C1127 1.350 1_554 S
C1133 H1120 0.929 . S
C1133 C1125 1.433 . S
C1133 N1135 1.384 . S
N1134 C1130 1.427 . S
N1134 C1131 1.384 . S
N1135 C1127 1.427 . S
N1135 C1133 1.384 . S
H1136 C1142 0.930 . S
H1137 C1146 0.930 . S
H1138 C1151 0.929 . S
H1139 C1149 0.929 . S
H1140 C1144 0.929 . S
H1141 C1150 0.929 . S
C1142 H1136 0.930 . S
C1142 C1143 1.367 . S
C1142 C1150 1.378 . S
C1143 C1142 1.367 . S
C1143 C1151 1.433 . S
C1144 H1140 0.929 . S
C1144 C1146 1.378 . S
C1144 C1148 1.350 . S
C1145 C1148 1.463 . S
C1145 C1150 1.350 . S
C1145 N1153 1.427 . S
C1146 H1137 0.930 . S
C1146 C1144 1.378 . S
C1146 C1147 1.367 . S
C1147 C1146 1.367 . S
C1147 C1149 1.433 . S
C1148 C1144 1.350 . S
C1148 C1145 1.463 . S
C1148 N1152 1.427 . S
C1149 H1139 0.929 . S
C1149 C1147 1.433 . S
C1149 N1152 1.384 . S
C1150 H1141 0.929 . S
C1150 C1142 1.378 . S
C1150 C1145 1.350 . S
C1151 H1138 0.929 . S
C1151 C1143 1.433 . S
C1151 N1153 1.384 . S
N1152 C1148 1.427 . S
N1152 C1149 1.384 . S
N1153 C1145 1.427 . S
N1153 C1151 1.384 . S
H1154 C1160 0.930 . S
H1155 C1164 0.930 . S
H1156 C1169 0.929 . S
H1157 C1167 0.929 . S
H1158 C1162 0.929 . S
H1159 C1168 0.929 . S
C1160 H1154 0.930 . S
C1160 C1161 1.367 . S
C1160 C1168 1.378 . S
C1161 C1160 1.367 . S
C1161 C1169 1.433 . S
C1162 H1158 0.929 . S
C1162 C1164 1.378 . S
C1162 C1166 1.350 . S
C1163 C1166 1.463 . S
C1163 C1168 1.350 . S
C1163 N1171 1.427 . S
C1164 H1155 0.930 . S
C1164 C1162 1.378 . S
C1164 C1165 1.367 . S
C1165 C1164 1.367 . S
C1165 C1167 1.433 . S
C1166 C1162 1.350 . S
C1166 C1163 1.463 . S
C1166 N1170 1.427 . S
C1167 H1157 0.929 . S
C1167 C1165 1.433 . S
C1167 N1170 1.384 . S
C1168 H1159 0.929 . S
C1168 C1160 1.378 . S
C1168 C1163 1.350 . S
C1169 H1156 0.929 . S
C1169 C1161 1.433 . S
C1169 N1171 1.384 . S
N1170 C1166 1.427 . S
N1170 C1167 1.384 . S
N1171 C1163 1.427 . S
N1171 C1169 1.384 . S
H1172 C1178 0.930 . S
H1173 C1182 0.930 . S
H1174 C1187 0.929 . S
H1175 C1185 0.929 . S
H1176 C1180 0.929 . S
H1177 C1186 0.929 . S
C1178 H1172 0.930 . S
C1178 C1179 1.367 . S
C1178 C1186 1.378 . S
C1179 C1178 1.367 . S
C1179 C1187 1.433 . S
C1180 H1176 0.929 . S
C1180 C1182 1.378 . S
C1180 C1184 1.350 . S
C1181 C1184 1.463 . S
C1181 C1186 1.350 . S
C1181 N1189 1.427 . S
C1182 H1173 0.930 . S
C1182 C1180 1.378 . S
C1182 C1183 1.367 . S
C1183 C1182 1.367 . S
C1183 C1185 1.433 . S
C1184 C1180 1.350 . S
C1184 C1181 1.463 . S
C1184 N1188 1.427 . S
C1185 H1175 0.929 . S
C1185 C1183 1.433 . S
C1185 N1188 1.384 . S
C1186 H1177 0.929 . S
C1186 C1178 1.378 . S
C1186 C1181 1.350 . S
C1187 H1174 0.929 . S
C1187 C1179 1.433 . S
C1187 N1189 1.384 . S
N1188 C1184 1.427 . S
N1188 C1185 1.384 . S
N1189 C1181 1.427 . S
N1189 C1187 1.384 . S
H1190 C1196 0.930 . S
H1191 C1200 0.930 . S
H1192 C1205 0.929 . S
H1193 C1203 0.929 . S
H1194 C1198 0.929 . S
H1195 C1204 0.929 . S
C1196 H1190 0.930 . S
C1196 C1197 1.367 . S
C1196 C1204 1.378 . S
C1197 C1196 1.367 . S
C1197 C1205 1.433 . S
C1198 H1194 0.929 . S
C1198 C1200 1.378 . S
C1198 C1202 1.350 . S
C1199 C1202 1.463 . S
C1199 C1204 1.350 . S
C1199 N1207 1.427 . S
C1200 H1191 0.930 . S
C1200 C1198 1.378 . S
C1200 C1201 1.367 . S
C1201 C1200 1.367 . S
C1201 C1203 1.433 . S
C1202 C1198 1.350 . S
C1202 C1199 1.463 . S
C1202 N1206 1.427 . S
C1203 H1193 0.929 . S
C1203 C1201 1.433 . S
C1203 N1206 1.384 . S
C1204 H1195 0.929 . S
C1204 C1196 1.378 . S
C1204 C1199 1.350 . S
C1205 H1192 0.929 . S
C1205 C1197 1.433 . S
C1205 N1207 1.384 . S
N1206 C1202 1.427 . S
N1206 C1203 1.384 . S
N1207 C1199 1.427 . S
N1207 C1205 1.384 . S
H1208 C1214 0.935 . S
H1209 C1218 0.935 . S
H1210 C1223 0.929 . S
H1211 C1221 0.929 . S
H1212 C1216 0.929 . S
H1213 C1222 0.929 . S
C1214 H1208 0.935 . S
C1214 C1215 1.367 . S
C1214 C1222 1.378 1_554 S
C1215 C1214 1.367 . S
C1215 C1223 1.433 . S
C1216 H1212 0.929 . S
C1216 C1218 1.378 1_554 S
C1216 C1220 1.350 1_554 S
C1217 C1220 1.463 1_554 S
C1217 C1222 1.350 1_554 S
C1217 N1225 1.427 . S
C1218 H1209 0.935 . S
C1218 C1216 1.378 1_556 S
C1218 C1219 1.367 . S
C1219 C1218 1.367 . S
C1219 C1221 1.433 . S
C1220 C1216 1.350 1_556 S
C1220 C1217 1.463 1_556 S
C1220 N1224 1.427 . S
C1221 H1211 0.929 . S
C1221 C1219 1.433 . S
C1221 N1224 1.384 . S
C1222 H1213 0.929 . S
C1222 C1214 1.378 1_556 S
C1222 C1217 1.350 1_556 S
C1223 H1210 0.929 . S
C1223 C1215 1.433 . S
C1223 N1225 1.384 . S
N1224 C1220 1.427 . S
N1224 C1221 1.384 . S
N1225 C1217 1.427 . S
N1225 C1223 1.384 . S
H1226 C1232 0.930 . S
H1227 C1236 0.930 . S
H1228 C1241 0.929 . S
H1229 C1239 0.929 . S
H1230 C1234 0.929 . S
H1231 C1240 0.929 . S
C1232 H1226 0.930 . S
C1232 C1233 1.367 . S
C1232 C1240 1.378 1_655 S
C1233 C1232 1.367 . S
C1233 C1241 1.433 . S
C1234 H1230 0.929 . S
C1234 C1236 1.378 1_655 S
C1234 C1238 1.350 1_655 S
C1235 C1238 1.463 1_655 S
C1235 C1240 1.350 1_655 S
C1235 N1243 1.427 . S
C1236 H1227 0.930 . S
C1236 C1234 1.378 1_455 S
C1236 C1237 1.367 . S
C1237 C1236 1.367 . S
C1237 C1239 1.433 . S
C1238 C1234 1.350 1_455 S
C1238 C1235 1.463 1_455 S
C1238 N1242 1.427 . S
C1239 H1229 0.929 . S
C1239 C1237 1.433 . S
C1239 N1242 1.384 . S
C1240 H1231 0.929 . S
C1240 C1232 1.378 1_455 S
C1240 C1235 1.350 1_455 S
C1241 H1228 0.929 . S
C1241 C1233 1.433 . S
C1241 N1243 1.384 . S
N1242 C1238 1.427 . S
N1242 C1239 1.384 . S
N1243 C1235 1.427 . S
N1243 C1241 1.384 . S
H1244 C1250 0.930 . S
H1245 C1254 0.930 . S
H1246 C1259 0.925 1_554 S
H1247 C1257 0.925 1_556 S
H1248 C1252 0.929 . S
H1249 C1258 0.929 . S
C1250 H1244 0.930 . S
C1250 C1251 1.367 . S
C1250 C1258 1.378 1_455 S
C1251 C1250 1.367 . S
C1251 C1259 1.441 . S
C1252 H1248 0.929 . S
C1252 C1254 1.378 1_455 S
C1252 C1256 1.350 1_455 S
C1253 C1256 1.463 1_456 S
C1253 C1258 1.350 1_455 S
C1253 N1261 1.427 1_556 S
C1254 H1245 0.930 . S
C1254 C1252 1.378 1_655 S
C1254 C1255 1.367 . S
C1255 C1254 1.367 . S
C1255 C1257 1.441 . S
C1256 C1252 1.350 1_655 S
C1256 C1253 1.463 1_654 S
C1256 N1260 1.427 1_554 S
C1257 H1247 0.925 1_554 S
C1257 C1255 1.441 . S
C1257 N1260 1.380 1_554 S
C1258 H1249 0.929 . S
C1258 C1250 1.378 1_655 S
C1258 C1253 1.350 1_655 S
C1259 H1246 0.925 1_556 S
C1259 C1251 1.441 . S
C1259 N1261 1.380 1_556 S
N1260 C1256 1.427 1_556 S
N1260 C1257 1.380 1_556 S
N1261 C1253 1.427 1_554 S
N1261 C1259 1.380 1_554 S
H1262 C1268 0.930 . S
H1263 C1272 0.930 . S
H1264 C1277 0.929 . S
H1265 C1275 0.929 . S
H1266 C1270 0.929 . S
H1267 C1276 0.929 . S
C1268 H1262 0.930 . S
C1268 C1269 1.367 . S
C1268 C1276 1.378 . S
C1269 C1268 1.367 . S
C1269 C1277 1.433 . S
C1270 H1266 0.929 . S
C1270 C1272 1.378 . S
C1270 C1274 1.350 . S
C1271 C1274 1.463 . S
C1271 C1276 1.350 . S
C1271 N1279 1.427 . S
C1272 H1263 0.930 . S
C1272 C1270 1.378 . S
C1272 C1273 1.367 . S
C1273 C1272 1.367 . S
C1273 C1275 1.433 . S
C1274 C1270 1.350 . S
C1274 C1271 1.463 . S
C1274 N1278 1.427 . S
C1275 H1265 0.929 . S
C1275 C1273 1.433 . S
C1275 N1278 1.384 . S
C1276 H1267 0.929 . S
C1276 C1268 1.378 . S
C1276 C1271 1.350 . S
C1277 H1264 0.929 . S
C1277 C1269 1.433 . S
C1277 N1279 1.384 . S
N1278 C1274 1.427 . S
N1278 C1275 1.384 . S
N1279 C1271 1.427 . S
N1279 C1277 1.384 . S
H1280 C1286 0.930 . S
H1281 C1290 0.930 . S
H1282 C1295 0.929 . S
H1283 C1293 0.929 . S
H1284 C1288 0.929 . S
H1285 C1294 0.929 . S
C1286 H1280 0.930 . S
C1286 C1287 1.367 . S
C1286 C1294 1.378 . S
C1287 C1286 1.367 . S
C1287 C1295 1.433 . S
C1288 H1284 0.929 . S
C1288 C1290 1.378 . S
C1288 C1292 1.350 . S
C1289 C1292 1.463 . S
C1289 C1294 1.350 . S
C1289 N1297 1.427 . S
C1290 H1281 0.930 . S
C1290 C1288 1.378 . S
C1290 C1291 1.367 . S
C1291 C1290 1.367 . S
C1291 C1293 1.433 . S
C1292 C1288 1.350 . S
C1292 C1289 1.463 . S
C1292 N1296 1.427 . S
C1293 H1283 0.929 . S
C1293 C1291 1.433 . S
C1293 N1296 1.384 . S
C1294 H1285 0.929 . S
C1294 C1286 1.378 . S
C1294 C1289 1.350 . S
C1295 H1282 0.929 . S
C1295 C1287 1.433 . S
C1295 N1297 1.384 . S
N1296 C1292 1.427 . S
N1296 C1293 1.384 . S
N1297 C1289 1.427 . S
N1297 C1295 1.384 . S
H1298 C1304 0.930 . S
H1299 C1308 0.930 . S
H1300 C1313 0.929 . S
H1301 C1311 0.929 . S
H1302 C1306 0.929 . S
H1303 C1312 0.929 . S
C1304 H1298 0.930 . S
C1304 C1305 1.367 . S
C1304 C1312 1.378 . S
C1305 C1304 1.367 . S
C1305 C1313 1.433 . S
C1306 H1302 0.929 . S
C1306 C1308 1.378 . S
C1306 C1310 1.350 . S
C1307 C1310 1.463 . S
C1307 C1312 1.350 . S
C1307 N1315 1.427 . S
C1308 H1299 0.930 . S
C1308 C1306 1.378 . S
C1308 C1309 1.367 . S
C1309 C1308 1.367 . S
C1309 C1311 1.433 . S
C1310 C1306 1.350 . S
C1310 C1307 1.463 . S
C1310 N1314 1.427 . S
C1311 H1301 0.929 . S
C1311 C1309 1.433 . S
C1311 N1314 1.384 . S
C1312 H1303 0.929 . S
C1312 C1304 1.378 . S
C1312 C1307 1.350 . S
C1313 H1300 0.929 . S
C1313 C1305 1.433 . S
C1313 N1315 1.384 . S
N1314 C1310 1.427 . S
N1314 C1311 1.384 . S
N1315 C1307 1.427 . S
N1315 C1313 1.384 . S
H1316 C1322 0.930 . S
H1317 C1326 0.930 . S
H1318 C1331 0.929 . S
H1319 C1329 0.929 . S
H1320 C1324 0.929 . S
H1321 C1330 0.929 . S
C1322 H1316 0.930 . S
C1322 C1323 1.367 . S
C1322 C1330 1.378 . S
C1323 C1322 1.367 . S
C1323 C1331 1.433 . S
C1324 H1320 0.929 . S
C1324 C1326 1.378 . S
C1324 C1328 1.350 . S
C1325 C1328 1.463 . S
C1325 C1330 1.350 . S
C1325 N1333 1.427 . S
C1326 H1317 0.930 . S
C1326 C1324 1.378 . S
C1326 C1327 1.367 . S
C1327 C1326 1.367 . S
C1327 C1329 1.433 . S
C1328 C1324 1.350 . S
C1328 C1325 1.463 . S
C1328 N1332 1.427 . S
C1329 H1319 0.929 . S
C1329 C1327 1.433 . S
C1329 N1332 1.384 . S
C1330 H1321 0.929 . S
C1330 C1322 1.378 . S
C1330 C1325 1.350 . S
C1331 H1318 0.929 . S
C1331 C1323 1.433 . S
C1331 N1333 1.384 . S
N1332 C1328 1.427 . S
N1332 C1329 1.384 . S
N1333 C1325 1.427 . S
N1333 C1331 1.384 . S
H1334 C1340 0.930 . S
H1335 C1344 0.930 . S
H1336 C1349 0.929 . S
H1337 C1347 0.929 . S
H1338 C1342 0.929 . S
H1339 C1348 0.929 . S
C1340 H1334 0.930 . S
C1340 C1341 1.367 . S
C1340 C1348 1.378 . S
C1341 C1340 1.367 . S
C1341 C1349 1.433 . S
C1342 H1338 0.929 . S
C1342 C1344 1.378 . S
C1342 C1346 1.350 . S
C1343 C1346 1.463 . S
C1343 C1348 1.350 . S
C1343 N1351 1.427 . S
C1344 H1335 0.930 . S
C1344 C1342 1.378 . S
C1344 C1345 1.367 . S
C1345 C1344 1.367 . S
C1345 C1347 1.433 . S
C1346 C1342 1.350 . S
C1346 C1343 1.463 . S
C1346 N1350 1.427 . S
C1347 H1337 0.929 . S
C1347 C1345 1.433 . S
C1347 N1350 1.384 . S
C1348 H1339 0.929 . S
C1348 C1340 1.378 . S
C1348 C1343 1.350 . S
C1349 H1336 0.929 . S
C1349 C1341 1.433 . S
C1349 N1351 1.384 . S
N1350 C1346 1.427 . S
N1350 C1347 1.384 . S
N1351 C1343 1.427 . S
N1351 C1349 1.384 . S
H1352 C1358 0.930 . S
H1353 C1362 0.930 . S
H1354 C1367 0.929 . S
H1355 C1365 0.929 . S
H1356 C1360 0.929 . S
H1357 C1366 0.929 . S
C1358 H1352 0.930 . S
C1358 C1359 1.367 . S
C1358 C1366 1.378 . S
C1359 C1358 1.367 . S
C1359 C1367 1.433 . S
C1360 H1356 0.929 . S
C1360 C1362 1.378 . S
C1360 C1364 1.350 . S
C1361 C1364 1.463 . S
C1361 C1366 1.350 . S
C1361 N1369 1.427 . S
C1362 H1353 0.930 . S
C1362 C1360 1.378 . S
C1362 C1363 1.367 . S
C1363 C1362 1.367 . S
C1363 C1365 1.433 . S
C1364 C1360 1.350 . S
C1364 C1361 1.463 . S
C1364 N1368 1.427 . S
C1365 H1355 0.929 . S
C1365 C1363 1.433 . S
C1365 N1368 1.384 . S
C1366 H1357 0.929 . S
C1366 C1358 1.378 . S
C1366 C1361 1.350 . S
C1367 H1354 0.929 . S
C1367 C1359 1.433 . S
C1367 N1369 1.384 . S
N1368 C1364 1.427 . S
N1368 C1365 1.384 . S
N1369 C1361 1.427 . S
N1369 C1367 1.384 . S
H1370 C1376 0.930 . S
H1371 C1380 0.930 . S
H1372 C1385 0.929 . S
H1373 C1383 0.929 . S
H1374 C1378 0.929 . S
H1375 C1384 0.929 . S
C1376 H1370 0.930 . S
C1376 C1377 1.367 . S
C1376 C1384 1.378 . S
C1377 C1376 1.367 . S
C1377 C1385 1.433 . S
C1378 H1374 0.929 . S
C1378 C1380 1.378 . S
C1378 C1382 1.350 . S
C1379 C1382 1.463 . S
C1379 C1384 1.350 . S
C1379 N1387 1.427 . S
C1380 H1371 0.930 . S
C1380 C1378 1.378 . S
C1380 C1381 1.367 . S
C1381 C1380 1.367 . S
C1381 C1383 1.433 . S
C1382 C1378 1.350 . S
C1382 C1379 1.463 . S
C1382 N1386 1.427 . S
C1383 H1373 0.929 . S
C1383 C1381 1.433 . S
C1383 N1386 1.384 . S
C1384 H1375 0.929 . S
C1384 C1376 1.378 . S
C1384 C1379 1.350 . S
C1385 H1372 0.929 . S
C1385 C1377 1.433 . S
C1385 N1387 1.384 . S
N1386 C1382 1.427 . S
N1386 C1383 1.384 . S
N1387 C1379 1.427 . S
N1387 C1385 1.384 . S
H1388 C1394 0.930 . S
H1389 C1398 0.930 . S
H1390 C1403 0.929 . S
H1391 C1401 0.929 . S
H1392 C1396 0.929 . S
H1393 C1402 0.929 . S
C1394 H1388 0.930 . S
C1394 C1395 1.367 . S
C1394 C1402 1.378 . S
C1395 C1394 1.367 . S
C1395 C1403 1.433 . S
C1396 H1392 0.929 . S
C1396 C1398 1.378 . S
C1396 C1400 1.350 . S
C1397 C1400 1.463 . S
C1397 C1402 1.350 . S
C1397 N1405 1.427 . S
C1398 H1389 0.930 . S
C1398 C1396 1.378 . S
C1398 C1399 1.367 . S
C1399 C1398 1.367 . S
C1399 C1401 1.433 . S
C1400 C1396 1.350 . S
C1400 C1397 1.463 . S
C1400 N1404 1.427 . S
C1401 H1391 0.929 . S
C1401 C1399 1.433 . S
C1401 N1404 1.384 . S
C1402 H1393 0.929 . S
C1402 C1394 1.378 . S
C1402 C1397 1.350 . S
C1403 H1390 0.929 . S
C1403 C1395 1.433 . S
C1403 N1405 1.384 . S
N1404 C1400 1.427 . S
N1404 C1401 1.384 . S
N1405 C1397 1.427 . S
N1405 C1403 1.384 . S
H1406 C1412 0.930 . S
H1407 C1416 0.930 . S
H1408 C1421 0.929 . S
H1409 C1419 0.929 . S
H1410 C1414 0.929 . S
H1411 C1420 0.929 . S
C1412 H1406 0.930 . S
C1412 C1413 1.367 . S
C1412 C1420 1.378 . S
C1413 C1412 1.367 . S
C1413 C1421 1.433 . S
C1414 H1410 0.929 . S
C1414 C1416 1.378 . S
C1414 C1418 1.350 . S
C1415 C1418 1.463 . S
C1415 C1420 1.350 . S
C1415 N1423 1.427 . S
C1416 H1407 0.930 . S
C1416 C1414 1.378 . S
C1416 C1417 1.367 . S
C1417 C1416 1.367 . S
C1417 C1419 1.433 . S
C1418 C1414 1.350 . S
C1418 C1415 1.463 . S
C1418 N1422 1.427 . S
C1419 H1409 0.929 . S
C1419 C1417 1.433 . S
C1419 N1422 1.384 . S
C1420 H1411 0.929 . S
C1420 C1412 1.378 . S
C1420 C1415 1.350 . S
C1421 H1408 0.929 . S
C1421 C1413 1.433 . S
C1421 N1423 1.384 . S
N1422 C1418 1.427 . S
N1422 C1419 1.384 . S
N1423 C1415 1.427 . S
N1423 C1421 1.384 . S
H1424 C1430 0.930 . S
H1425 C1434 0.930 . S
H1426 C1439 0.929 . S
H1427 C1437 0.929 . S
H1428 C1432 0.929 . S
H1429 C1438 0.929 . S
C1430 H1424 0.930 . S
C1430 C1431 1.367 . S
C1430 C1438 1.378 . S
C1431 C1430 1.367 . S
C1431 C1439 1.433 . S
C1432 H1428 0.929 . S
C1432 C1434 1.378 . S
C1432 C1436 1.350 . S
C1433 C1436 1.463 . S
C1433 C1438 1.350 . S
C1433 N1441 1.427 . S
C1434 H1425 0.930 . S
C1434 C1432 1.378 . S
C1434 C1435 1.367 . S
C1435 C1434 1.367 . S
C1435 C1437 1.433 . S
C1436 C1432 1.350 . S
C1436 C1433 1.463 . S
C1436 N1440 1.427 . S
C1437 H1427 0.929 . S
C1437 C1435 1.433 . S
C1437 N1440 1.384 . S
C1438 H1429 0.929 . S
C1438 C1430 1.378 . S
C1438 C1433 1.350 . S
C1439 H1426 0.929 . S
C1439 C1431 1.433 . S
C1439 N1441 1.384 . S
N1440 C1436 1.427 . S
N1440 C1437 1.384 . S
N1441 C1433 1.427 . S
N1441 C1439 1.384 . S
H1442 C1448 0.930 . S
H1443 C1452 0.930 . S
H1444 C1457 0.929 . S
H1445 C1455 0.929 . S
H1446 C1450 0.929 . S
H1447 C1456 0.929 . S
C1448 H1442 0.930 . S
C1448 C1449 1.367 . S
C1448 C1456 1.378 . S
C1449 C1448 1.367 . S
C1449 C1457 1.433 . S
C1450 H1446 0.929 . S
C1450 C1452 1.378 . S
C1450 C1454 1.350 . S
C1451 C1454 1.463 . S
C1451 C1456 1.350 . S
C1451 N1459 1.427 . S
C1452 H1443 0.930 . S
C1452 C1450 1.378 . S
C1452 C1453 1.367 . S
C1453 C1452 1.367 . S
C1453 C1455 1.433 . S
C1454 C1450 1.350 . S
C1454 C1451 1.463 . S
C1454 N1458 1.427 . S
C1455 H1445 0.929 . S
C1455 C1453 1.433 . S
C1455 N1458 1.384 . S
C1456 H1447 0.929 . S
C1456 C1448 1.378 . S
C1456 C1451 1.350 . S
C1457 H1444 0.929 . S
C1457 C1449 1.433 . S
C1457 N1459 1.384 . S
N1458 C1454 1.427 . S
N1458 C1455 1.384 . S
N1459 C1451 1.427 . S
N1459 C1457 1.384 . S
H1460 C1466 0.930 . S
H1461 C1470 0.930 . S
H1462 C1475 0.929 . S
H1463 C1473 0.929 . S
H1464 C1468 0.929 . S
H1465 C1474 0.929 . S
C1466 H1460 0.930 . S
C1466 C1467 1.367 . S
C1466 C1474 1.378 . S
C1467 C1466 1.367 . S
C1467 C1475 1.433 . S
C1468 H1464 0.929 . S
C1468 C1470 1.378 . S
C1468 C1472 1.350 . S
C1469 C1472 1.463 . S
C1469 C1474 1.350 . S
C1469 N1477 1.427 . S
C1470 H1461 0.930 . S
C1470 C1468 1.378 . S
C1470 C1471 1.367 . S
C1471 C1470 1.367 . S
C1471 C1473 1.433 . S
C1472 C1468 1.350 . S
C1472 C1469 1.463 . S
C1472 N1476 1.427 . S
C1473 H1463 0.929 . S
C1473 C1471 1.433 . S
C1473 N1476 1.384 . S
C1474 H1465 0.929 . S
C1474 C1466 1.378 . S
C1474 C1469 1.350 . S
C1475 H1462 0.929 . S
C1475 C1467 1.433 . S
C1475 N1477 1.384 . S
N1476 C1472 1.427 . S
N1476 C1473 1.384 . S
N1477 C1469 1.427 . S
N1477 C1475 1.384 . S
H1478 C1484 0.930 . S
H1479 C1488 0.930 . S
H1480 C1493 0.929 . S
H1481 C1491 0.929 . S
H1482 C1486 0.929 . S
H1483 C1492 0.929 . S
C1484 H1478 0.930 . S
C1484 C1485 1.367 . S
C1484 C1492 1.378 . S
C1485 C1484 1.367 . S
C1485 C1493 1.433 . S
C1486 H1482 0.929 . S
C1486 C1488 1.378 . S
C1486 C1490 1.350 . S
C1487 C1490 1.463 . S
C1487 C1492 1.350 . S
C1487 N1495 1.427 . S
C1488 H1479 0.930 . S
C1488 C1486 1.378 . S
C1488 C1489 1.367 . S
C1489 C1488 1.367 . S
C1489 C1491 1.433 . S
C1490 C1486 1.350 . S
C1490 C1487 1.463 . S
C1490 N1494 1.427 . S
C1491 H1481 0.929 . S
C1491 C1489 1.433 . S
C1491 N1494 1.384 . S
C1492 H1483 0.929 . S
C1492 C1484 1.378 . S
C1492 C1487 1.350 . S
C1493 H1480 0.929 . S
C1493 C1485 1.433 . S
C1493 N1495 1.384 . S
N1494 C1490 1.427 . S
N1494 C1491 1.384 . S
N1495 C1487 1.427 . S
N1495 C1493 1.384 . S
H1496 C1502 0.930 . S
H1497 C1506 0.930 . S
H1498 C1511 0.929 . S
H1499 C1509 0.929 . S
H1500 C1504 0.929 . S
H1501 C1510 0.929 . S
C1502 H1496 0.930 . S
C1502 C1503 1.367 . S
C1502 C1510 1.378 . S
C1503 C1502 1.367 . S
C1503 C1511 1.433 . S
C1504 H1500 0.929 . S
C1504 C1506 1.378 . S
C1504 C1508 1.350 . S
C1505 C1508 1.463 . S
C1505 C1510 1.350 . S
C1505 N1513 1.427 . S
C1506 H1497 0.930 . S
C1506 C1504 1.378 . S
C1506 C1507 1.367 . S
C1507 C1506 1.367 . S
C1507 C1509 1.433 . S
C1508 C1504 1.350 . S
C1508 C1505 1.463 . S
C1508 N1512 1.427 . S
C1509 H1499 0.929 . S
C1509 C1507 1.433 . S
C1509 N1512 1.384 . S
C1510 H1501 0.929 . S
C1510 C1502 1.378 . S
C1510 C1505 1.350 . S
C1511 H1498 0.929 . S
C1511 C1503 1.433 . S
C1511 N1513 1.384 . S
N1512 C1508 1.427 . S
N1512 C1509 1.384 . S
N1513 C1505 1.427 . S
N1513 C1511 1.384 . S
H1514 C1520 0.930 . S
H1515 C1524 0.930 . S
H1516 C1529 0.929 . S
H1517 C1527 0.929 . S
H1518 C1522 0.929 . S
H1519 C1528 0.929 . S
C1520 H1514 0.930 . S
C1520 C1521 1.367 . S
C1520 C1528 1.378 . S
C1521 C1520 1.367 . S
C1521 C1529 1.433 . S
C1522 H1518 0.929 . S
C1522 C1524 1.378 . S
C1522 C1526 1.350 . S
C1523 C1526 1.463 . S
C1523 C1528 1.350 . S
C1523 N1531 1.427 . S
C1524 H1515 0.930 . S
C1524 C1522 1.378 . S
C1524 C1525 1.367 . S
C1525 C1524 1.367 . S
C1525 C1527 1.433 . S
C1526 C1522 1.350 . S
C1526 C1523 1.463 . S
C1526 N1530 1.427 . S
C1527 H1517 0.929 . S
C1527 C1525 1.433 . S
C1527 N1530 1.384 . S
C1528 H1519 0.929 . S
C1528 C1520 1.378 . S
C1528 C1523 1.350 . S
C1529 H1516 0.929 . S
C1529 C1521 1.433 . S
C1529 N1531 1.384 . S
N1530 C1526 1.427 . S
N1530 C1527 1.384 . S
N1531 C1523 1.427 . S
N1531 C1529 1.384 . S
H1532 C1538 0.930 . S
H1533 C1542 0.930 . S
H1534 C1547 0.929 . S
H1535 C1545 0.929 . S
H1536 C1540 0.929 . S
H1537 C1546 0.929 . S
C1538 H1532 0.930 . S
C1538 C1539 1.367 . S
C1538 C1546 1.378 . S
C1539 C1538 1.367 . S
C1539 C1547 1.433 . S
C1540 H1536 0.929 . S
C1540 C1542 1.378 . S
C1540 C1544 1.350 . S
C1541 C1544 1.463 . S
C1541 C1546 1.350 . S
C1541 N1549 1.427 . S
C1542 H1533 0.930 . S
C1542 C1540 1.378 . S
C1542 C1543 1.367 . S
C1543 C1542 1.367 . S
C1543 C1545 1.433 . S
C1544 C1540 1.350 . S
C1544 C1541 1.463 . S
C1544 N1548 1.427 . S
C1545 H1535 0.929 . S
C1545 C1543 1.433 . S
C1545 N1548 1.384 . S
C1546 H1537 0.929 . S
C1546 C1538 1.378 . S
C1546 C1541 1.350 . S
C1547 H1534 0.929 . S
C1547 C1539 1.433 . S
C1547 N1549 1.384 . S
N1548 C1544 1.427 . S
N1548 C1545 1.384 . S
N1549 C1541 1.427 . S
N1549 C1547 1.384 . S
H1550 C1556 0.930 . S
H1551 C1560 0.930 . S
H1552 C1565 0.929 . S
H1553 C1563 0.929 . S
H1554 C1558 0.929 . S
H1555 C1564 0.929 . S
C1556 H1550 0.930 . S
C1556 C1557 1.367 . S
C1556 C1564 1.378 . S
C1557 C1556 1.367 . S
C1557 C1565 1.433 . S
C1558 H1554 0.929 . S
C1558 C1560 1.378 . S
C1558 C1562 1.350 . S
C1559 C1562 1.463 . S
C1559 C1564 1.350 . S
C1559 N1567 1.427 . S
C1560 H1551 0.930 . S
C1560 C1558 1.378 . S
C1560 C1561 1.367 . S
C1561 C1560 1.367 . S
C1561 C1563 1.433 . S
C1562 C1558 1.350 . S
C1562 C1559 1.463 . S
C1562 N1566 1.427 . S
C1563 H1553 0.929 . S
C1563 C1561 1.433 . S
C1563 N1566 1.384 . S
C1564 H1555 0.929 . S
C1564 C1556 1.378 . S
C1564 C1559 1.350 . S
C1565 H1552 0.929 . S
C1565 C1557 1.433 . S
C1565 N1567 1.384 . S
N1566 C1562 1.427 . S
N1566 C1563 1.384 . S
N1567 C1559 1.427 . S
N1567 C1565 1.384 . S
C423 C122 1.075 . S
C427 C5 1.102 . S
C441 C16 1.104 1_455 S
C445 C343 1.070 . S
C459 C146 1.074 . S
C463 C29 1.105 . S
C477 C317 1.078 . S
C481 C44 1.105 . S
C495 C57 1.104 . S
C499 C198 1.083 . S
C513 C369 1.065 . S
C517 C68 1.102 . S
C531 C81 1.103 . S
C535 C174 1.082 . S
C549 C395 1.064 . S
C553 C96 1.088 1_455 S
C567 C18 1.079 . S
C571 C109 1.102 . S
C585 C120 1.086 1_655 S
C589 C237 1.065 . S
C603 C42 1.080 . S
C607 C135 1.102 . S
C621 C148 1.103 . S
C625 C213 1.069 . S
C639 C159 1.101 . S
C643 C94 1.072 . S
C657 C265 1.080 . S
C661 C172 1.105 . S
C675 C187 1.103 . S
C679 C70 1.065 . S
C693 C289 1.071 . S
C697 C200 1.097 . S
C711 C330 1.072 . S
C715 C211 1.101 . S
C729 C133 1.077 . S
C733 C226 1.105 . S
C747 C239 1.104 . S
C751 C354 1.070 . S
C765 C107 1.082 . S
C769 C252 1.104 . S
C783 C408 1.068 . S
C787 C263 1.101 . S
C801 C276 1.089 1_655 S
C805 C161 1.072 . S
C819 C380 1.078 . S
C823 C291 1.105 . S
C837 C185 1.069 . S
C841 C302 1.103 . S
C855 C224 1.065 . S
C859 C315 1.102 . S
C873 C328 1.103 . S
C877 C31 1.067 . S
C891 C341 1.102 . S
C895 C250 1.065 . S
C909 C356 1.103 . S
C913 C3 1.082 . S
C927 C304 1.065 . S
C931 C367 1.102 . S
C945 C382 1.093 1_455 S
C949 C55 1.076 . S
C963 C393 1.105 . S
C967 C278 1.079 . S
C981 C406 1.102 . S
C985 C83 1.064 . S
C999 C316 1.527 . S
C1003 C10 1.527 . S
C1017 C17 1.525 . S
C1021 C121 1.525 . S
C1035 C30 1.537 . S
C1039 C342 1.537 . S
C1053 C49 1.531 . S
C1057 C153 1.531 . S
C1071 C62 1.526 . S
C1075 C368 1.526 . S
C1089 C69 1.537 . S
C1093 C173 1.537 . S
C1107 C394 1.524 . S
C1111 C82 1.524 . S
C1125 C101 1.528 . S
C1129 C205 1.528 . S
C1143 C114 1.528 . S
C1147 C212 1.528 . S
C1161 C140 1.530 . S
C1165 C244 1.530 . S
C1179 C264 1.527 . S
C1183 C160 1.527 . S
C1197 C296 1.534 . S
C1201 C192 1.534 . S
C1215 C231 1.537 . S
C1219 C329 1.537 . S
C1233 C361 1.525 . S
C1237 C257 1.525 . S
C1251 C277 1.525 . S
C1255 C387 1.525 . S
C1269 C407 1.527 . S
C1273 C303 1.527 . S
C1287 C283 1.995 . S
C1291 C4 1.995 . S
C1305 C290 1.996 . S
C1309 C23 1.997 . S
C1323 C36 1.996 . S
C1327 C309 1.995 . S
C1341 C270 1.997 . S
C1345 C43 1.995 . S
C1359 C251 1.997 . S
C1363 C56 1.997 . S
C1377 C218 1.995 . S
C1381 C75 1.996 . S
C1395 C88 1.995 . S
C1399 C225 1.995 . S
C1413 C238 1.997 . S
C1417 C95 1.995 . S
C1431 C381 1.995 . S
C1435 C108 1.996 . S
C1449 C400 1.995 . S
C1453 C127 1.995 . S
C1467 C413 1.997 . S
C1471 C134 1.997 . S
C1485 C147 1.995 . S
C1489 C374 1.997 . S
C1503 C355 1.995 . S
C1507 C166 1.996 . S
C1521 C322 1.995 . S
C1525 C179 1.995 . S
C1539 C335 1.997 . S
C1543 C186 1.996 . S
C1557 C348 1.996 . S
C1561 C199 1.995 . S
