# Generated by pormake.
# Topology wio, (6)-cn, num edge types: 1
# Building blocks:
#     Node 0, Type 0, BuildingBlock: INOVEN_clean_sbu_0, # of connection points: 6
#     Node 1, Type 0, BuildingBlock: INOVEN_clean_sbu_0, # of connection points: 6
#     Node 2, Type 0, BuildingBlock: INOVEN_clean_sbu_0, # of connection points: 6
#     Node 3, Type 0, BuildingBlock: INOVEN_clean_sbu_0, # of connection points: 6
#     Node 4, Type 0, BuildingBlock: INOVEN_clean_sbu_0, # of connection points: 6
#     Node 5, Type 0, BuildingBlock: INOVEN_clean_sbu_0, # of connection points: 6
#     Node 6, Type 0, BuildingBlock: INOVEN_clean_sbu_0, # of connection points: 6
#     Node 7, Type 0, BuildingBlock: INOVEN_clean_sbu_0, # of connection points: 6
#     Node 8, Type 0, BuildingBlock: INOVEN_clean_sbu_0, # of connection points: 6
#     Node 9, Type 0, BuildingBlock: INOVEN_clean_sbu_0, # of connection points: 6
#     Node 10, Type 0, BuildingBlock: INOVEN_clean_sbu_0, # of connection points: 6
#     Node 11, Type 0, BuildingBlock: INOVEN_clean_sbu_0, # of connection points: 6
#     Node 12, Type 0, BuildingBlock: INOVEN_clean_sbu_0, # of connection points: 6
#     Node 13, Type 0, BuildingBlock: INOVEN_clean_sbu_0, # of connection points: 6
#     Node 14, Type 0, BuildingBlock: INOVEN_clean_sbu_0, # of connection points: 6
#     Node 15, Type 0, BuildingBlock: INOVEN_clean_sbu_0, # of connection points: 6
#     Node 16, Type 0, BuildingBlock: INOVEN_clean_sbu_0, # of connection points: 6
#     Node 17, Type 0, BuildingBlock: INOVEN_clean_sbu_0, # of connection points: 6
#     Node 18, Type 0, BuildingBlock: INOVEN_clean_sbu_0, # of connection points: 6
#     Node 19, Type 0, BuildingBlock: INOVEN_clean_sbu_0, # of connection points: 6
#     Node 20, Type 0, BuildingBlock: INOVEN_clean_sbu_0, # of connection points: 6
#     Node 21, Type 0, BuildingBlock: INOVEN_clean_sbu_0, # of connection points: 6
#     Node 22, Type 0, BuildingBlock: INOVEN_clean_sbu_0, # of connection points: 6
#     Node 23, Type 0, BuildingBlock: INOVEN_clean_sbu_0, # of connection points: 6
#     Node 24, Type 0, BuildingBlock: INOVEN_clean_sbu_0, # of connection points: 6
#     Node 25, Type 0, BuildingBlock: INOVEN_clean_sbu_0, # of connection points: 6
#     Node 26, Type 0, BuildingBlock: INOVEN_clean_sbu_0, # of connection points: 6
#     Node 27, Type 0, BuildingBlock: INOVEN_clean_sbu_0, # of connection points: 6
#     Node 28, Type 0, BuildingBlock: INOVEN_clean_sbu_0, # of connection points: 6
#     Node 29, Type 0, BuildingBlock: INOVEN_clean_sbu_0, # of connection points: 6
#     Node 30, Type 0, BuildingBlock: INOVEN_clean_sbu_0, # of connection points: 6
#     Node 31, Type 0, BuildingBlock: INOVEN_clean_sbu_0, # of connection points: 6
#     Edge 32, Type (0, 0), BuildingBlock: CIFDUS_clean_linker_0, # of connection points: 2
#     Edge 33, Type (0, 0), BuildingBlock: CIFDUS_clean_linker_0, # of connection points: 2
#     Edge 34, Type (0, 0), BuildingBlock: CIFDUS_clean_linker_0, # of connection points: 2
#     Edge 35, Type (0, 0), BuildingBlock: CIFDUS_clean_linker_0, # of connection points: 2
#     Edge 36, Type (0, 0), BuildingBlock: CIFDUS_clean_linker_0, # of connection points: 2
#     Edge 37, Type (0, 0), BuildingBlock: CIFDUS_clean_linker_0, # of connection points: 2
#     Edge 38, Type (0, 0), BuildingBlock: CIFDUS_clean_linker_0, # of connection points: 2
#     Edge 39, Type (0, 0), BuildingBlock: CIFDUS_clean_linker_0, # of connection points: 2
#     Edge 40, Type (0, 0), BuildingBlock: CIFDUS_clean_linker_0, # of connection points: 2
#     Edge 41, Type (0, 0), BuildingBlock: CIFDUS_clean_linker_0, # of connection points: 2
#     Edge 42, Type (0, 0), BuildingBlock: CIFDUS_clean_linker_0, # of connection points: 2
#     Edge 43, Type (0, 0), BuildingBlock: CIFDUS_clean_linker_0, # of connection points: 2
#     Edge 44, Type (0, 0), BuildingBlock: CIFDUS_clean_linker_0, # of connection points: 2
#     Edge 45, Type (0, 0), BuildingBlock: CIFDUS_clean_linker_0, # of connection points: 2
#     Edge 46, Type (0, 0), BuildingBlock: CIFDUS_clean_linker_0, # of connection points: 2
#     Edge 47, Type (0, 0), BuildingBlock: CIFDUS_clean_linker_0, # of connection points: 2
#     Edge 48, Type (0, 0), BuildingBlock: CIFDUS_clean_linker_0, # of connection points: 2
#     Edge 49, Type (0, 0), BuildingBlock: CIFDUS_clean_linker_0, # of connection points: 2
#     Edge 50, Type (0, 0), BuildingBlock: CIFDUS_clean_linker_0, # of connection points: 2
#     Edge 51, Type (0, 0), BuildingBlock: CIFDUS_clean_linker_0, # of connection points: 2
#     Edge 52, Type (0, 0), BuildingBlock: CIFDUS_clean_linker_0, # of connection points: 2
#     Edge 53, Type (0, 0), BuildingBlock: CIFDUS_clean_linker_0, # of connection points: 2
#     Edge 54, Type (0, 0), BuildingBlock: CIFDUS_clean_linker_0, # of connection points: 2
#     Edge 55, Type (0, 0), BuildingBlock: CIFDUS_clean_linker_0, # of connection points: 2
#     Edge 56, Type (0, 0), BuildingBlock: CIFDUS_clean_linker_0, # of connection points: 2
#     Edge 57, Type (0, 0), BuildingBlock: CIFDUS_clean_linker_0, # of connection points: 2
#     Edge 58, Type (0, 0), BuildingBlock: CIFDUS_clean_linker_0, # of connection points: 2
#     Edge 59, Type (0, 0), BuildingBlock: CIFDUS_clean_linker_0, # of connection points: 2
#     Edge 60, Type (0, 0), BuildingBlock: CIFDUS_clean_linker_0, # of connection points: 2
#     Edge 61, Type (0, 0), BuildingBlock: CIFDUS_clean_linker_0, # of connection points: 2
#     Edge 62, Type (0, 0), BuildingBlock: CIFDUS_clean_linker_0, # of connection points: 2
#     Edge 63, Type (0, 0), BuildingBlock: CIFDUS_clean_linker_0, # of connection points: 2
#     Edge 64, Type (0, 0), BuildingBlock: CIFDUS_clean_linker_0, # of connection points: 2
#     Edge 65, Type (0, 0), BuildingBlock: CIFDUS_clean_linker_0, # of connection points: 2
#     Edge 66, Type (0, 0), BuildingBlock: CIFDUS_clean_linker_0, # of connection points: 2
#     Edge 67, Type (0, 0), BuildingBlock: CIFDUS_clean_linker_0, # of connection points: 2
#     Edge 68, Type (0, 0), BuildingBlock: CIFDUS_clean_linker_0, # of connection points: 2
#     Edge 69, Type (0, 0), BuildingBlock: CIFDUS_clean_linker_0, # of connection points: 2
#     Edge 70, Type (0, 0), BuildingBlock: CIFDUS_clean_linker_0, # of connection points: 2
#     Edge 71, Type (0, 0), BuildingBlock: CIFDUS_clean_linker_0, # of connection points: 2
#     Edge 72, Type (0, 0), BuildingBlock: CIFDUS_clean_linker_0, # of connection points: 2
#     Edge 73, Type (0, 0), BuildingBlock: CIFDUS_clean_linker_0, # of connection points: 2
#     Edge 74, Type (0, 0), BuildingBlock: CIFDUS_clean_linker_0, # of connection points: 2
#     Edge 75, Type (0, 0), BuildingBlock: CIFDUS_clean_linker_0, # of connection points: 2
#     Edge 76, Type (0, 0), BuildingBlock: CIFDUS_clean_linker_0, # of connection points: 2
#     Edge 77, Type (0, 0), BuildingBlock: CIFDUS_clean_linker_0, # of connection points: 2
#     Edge 78, Type (0, 0), BuildingBlock: CIFDUS_clean_linker_0, # of connection points: 2
#     Edge 79, Type (0, 0), BuildingBlock: CIFDUS_clean_linker_0, # of connection points: 2
#     Edge 80, Type (0, 0), BuildingBlock: CIFDUS_clean_linker_0, # of connection points: 2
#     Edge 81, Type (0, 0), BuildingBlock: CIFDUS_clean_linker_0, # of connection points: 2
#     Edge 82, Type (0, 0), BuildingBlock: CIFDUS_clean_linker_0, # of connection points: 2
#     Edge 83, Type (0, 0), BuildingBlock: CIFDUS_clean_linker_0, # of connection points: 2
#     Edge 84, Type (0, 0), BuildingBlock: CIFDUS_clean_linker_0, # of connection points: 2
#     Edge 85, Type (0, 0), BuildingBlock: CIFDUS_clean_linker_0, # of connection points: 2
#     Edge 86, Type (0, 0), BuildingBlock: CIFDUS_clean_linker_0, # of connection points: 2
#     Edge 87, Type (0, 0), BuildingBlock: CIFDUS_clean_linker_0, # of connection points: 2
#     Edge 88, Type (0, 0), BuildingBlock: CIFDUS_clean_linker_0, # of connection points: 2
#     Edge 89, Type (0, 0), BuildingBlock: CIFDUS_clean_linker_0, # of connection points: 2
#     Edge 90, Type (0, 0), BuildingBlock: CIFDUS_clean_linker_0, # of connection points: 2
#     Edge 91, Type (0, 0), BuildingBlock: CIFDUS_clean_linker_0, # of connection points: 2
#     Edge 92, Type (0, 0), BuildingBlock: CIFDUS_clean_linker_0, # of connection points: 2
#     Edge 93, Type (0, 0), BuildingBlock: CIFDUS_clean_linker_0, # of connection points: 2
#     Edge 94, Type (0, 0), BuildingBlock: CIFDUS_clean_linker_0, # of connection points: 2
#     Edge 95, Type (0, 0), BuildingBlock: CIFDUS_clean_linker_0, # of connection points: 2
#     Edge 96, Type (0, 0), BuildingBlock: CIFDUS_clean_linker_0, # of connection points: 2
#     Edge 97, Type (0, 0), BuildingBlock: CIFDUS_clean_linker_0, # of connection points: 2
#     Edge 98, Type (0, 0), BuildingBlock: CIFDUS_clean_linker_0, # of connection points: 2
#     Edge 99, Type (0, 0), BuildingBlock: CIFDUS_clean_linker_0, # of connection points: 2
#     Edge 100, Type (0, 0), BuildingBlock: CIFDUS_clean_linker_0, # of connection points: 2
#     Edge 101, Type (0, 0), BuildingBlock: CIFDUS_clean_linker_0, # of connection points: 2
#     Edge 102, Type (0, 0), BuildingBlock: CIFDUS_clean_linker_0, # of connection points: 2
#     Edge 103, Type (0, 0), BuildingBlock: CIFDUS_clean_linker_0, # of connection points: 2
#     Edge 104, Type (0, 0), BuildingBlock: CIFDUS_clean_linker_0, # of connection points: 2
#     Edge 105, Type (0, 0), BuildingBlock: CIFDUS_clean_linker_0, # of connection points: 2
#     Edge 106, Type (0, 0), BuildingBlock: CIFDUS_clean_linker_0, # of connection points: 2
#     Edge 107, Type (0, 0), BuildingBlock: CIFDUS_clean_linker_0, # of connection points: 2
#     Edge 108, Type (0, 0), BuildingBlock: CIFDUS_clean_linker_0, # of connection points: 2
#     Edge 109, Type (0, 0), BuildingBlock: CIFDUS_clean_linker_0, # of connection points: 2
#     Edge 110, Type (0, 0), BuildingBlock: CIFDUS_clean_linker_0, # of connection points: 2
#     Edge 111, Type (0, 0), BuildingBlock: CIFDUS_clean_linker_0, # of connection points: 2
#     Edge 112, Type (0, 0), BuildingBlock: CIFDUS_clean_linker_0, # of connection points: 2
#     Edge 113, Type (0, 0), BuildingBlock: CIFDUS_clean_linker_0, # of connection points: 2
#     Edge 114, Type (0, 0), BuildingBlock: CIFDUS_clean_linker_0, # of connection points: 2
#     Edge 115, Type (0, 0), BuildingBlock: CIFDUS_clean_linker_0, # of connection points: 2
#     Edge 116, Type (0, 0), BuildingBlock: CIFDUS_clean_linker_0, # of connection points: 2
#     Edge 117, Type (0, 0), BuildingBlock: CIFDUS_clean_linker_0, # of connection points: 2
#     Edge 118, Type (0, 0), BuildingBlock: CIFDUS_clean_linker_0, # of connection points: 2
#     Edge 119, Type (0, 0), BuildingBlock: CIFDUS_clean_linker_0, # of connection points: 2
#     Edge 120, Type (0, 0), BuildingBlock: CIFDUS_clean_linker_0, # of connection points: 2
#     Edge 121, Type (0, 0), BuildingBlock: CIFDUS_clean_linker_0, # of connection points: 2
#     Edge 122, Type (0, 0), BuildingBlock: CIFDUS_clean_linker_0, # of connection points: 2
#     Edge 123, Type (0, 0), BuildingBlock: CIFDUS_clean_linker_0, # of connection points: 2
#     Edge 124, Type (0, 0), BuildingBlock: CIFDUS_clean_linker_0, # of connection points: 2
#     Edge 125, Type (0, 0), BuildingBlock: CIFDUS_clean_linker_0, # of connection points: 2
#     Edge 126, Type (0, 0), BuildingBlock: CIFDUS_clean_linker_0, # of connection points: 2
#     Edge 127, Type (0, 0), BuildingBlock: CIFDUS_clean_linker_0, # of connection points: 2
# Relax obj value: 0.192
# Max RMSD: 0.236
# Mean RMSD: 0.236
data_MOF--net-wio--node1-INOVEN_clean_sbu_0--edge1-CIFDUS_clean_linker_0
_symmetry_space_group_name_H-M    P1
_symmetry_Int_Tables_number       1
_symmetry_cell_setting            triclinic
loop_
_symmetry_equiv_pos_as_xyz
'x, y, z'
_cell_length_a     55.409857
_cell_length_b     55.265293
_cell_length_c     49.490776
_cell_angle_alpha  90.151495
_cell_angle_beta   90.01909
_cell_angle_gamma 89.9164
loop_
_atom_site_label
_atom_site_type_symbol
_atom_site_fract_x
_atom_site_fract_y
_atom_site_fract_z
_atom_type_partial_charge
Gd0 Gd 0.15044 0.11564 0.28378 0.0
Gd1 Gd 0.09796 0.1238 0.29574 0.0
C2 C 0.11582 0.13682 0.23572 0.0
C3 C 0.19237 0.10354 0.26499 0.0
C4 C 0.20871 0.10977 0.24259 0.0
C5 C 0.2337 0.10964 0.24706 0.0
C6 C 0.19985 0.11525 0.21673 0.0
C7 C 0.24098 0.11889 0.19972 0.0
C8 C 0.21586 0.1197 0.19547 0.0
C9 C 0.24971 0.11422 0.22586 0.0
C10 C 0.14141 0.15677 0.31158 0.0
C11 C 0.13168 0.09618 0.34048 0.0
C12 C 0.05786 0.13839 0.31793 0.0
C13 C 0.04288 0.13486 0.34243 0.0
C14 C 0.02982 0.1545 0.35307 0.0
C15 C 0.0404 0.11206 0.35458 0.0
C16 C 0.01041 0.12827 0.38616 0.0
C17 C 0.02432 0.1088 0.37616 0.0
C18 C 0.01382 0.15129 0.37474 0.0
C19 C 0.10761 0.07933 0.27396 0.0
O20 O 0.13694 0.12775 0.24282 0.0
O21 O 0.09789 0.13912 0.25327 0.0
O22 O 0.18933 0.12011 0.28356 0.0
O23 O 0.17238 0.09219 0.25874 0.0
O24 O 0.16009 0.14307 0.31514 0.0
O25 O 0.12872 0.14891 0.29204 0.0
O26 O 0.11201 0.10931 0.33607 0.0
O27 O 0.14799 0.09323 0.32128 0.0
O28 O 0.0592 0.12045 0.30071 0.0
O29 O 0.07848 0.14947 0.32108 0.0
O30 O 0.08834 0.09195 0.26879 0.0
O31 O 0.12013 0.09071 0.29094 0.0
H32 H 0.24086 0.10551 0.2669 0.0
H33 H 0.18061 0.11572 0.21285 0.0
H34 H 0.20858 0.12355 0.17562 0.0
H35 H 0.26893 0.11325 0.22972 0.0
H36 H 0.03148 0.17228 0.34408 0.0
H37 H 0.05045 0.09665 0.347 0.0
H38 H 0.02244 0.09089 0.38471 0.0
H39 H 1.00333 0.16662 0.38173 0.0
Gd40 Gd 0.14614 0.90206 0.53565 0.0
Gd41 Gd 0.13981 0.84876 0.5459 0.0
C42 C 0.12644 0.86789 0.48624 0.0
C43 C 0.15729 0.94494 0.51888 0.0
C44 C 0.15399 0.96109 0.49562 0.0
C45 C 0.15321 0.98612 0.50012 0.0
C46 C 0.15186 0.95211 0.46918 0.0
C47 C 0.14922 0.9933 0.45187 0.0
C48 C 0.14957 0.96811 0.44745 0.0
C49 C 0.15081 1.0021 0.47848 0.0
C50 C 0.10597 0.89125 0.5638 0.0
C51 C 0.16577 0.88292 0.59221 0.0
C52 C 0.12666 0.80776 0.56712 0.0
C53 C 0.13159 0.79095 0.58998 0.0
C54 C 0.12684 0.79725 0.6171 0.0
C55 C 0.13954 0.76735 0.58432 0.0
C56 C 0.13828 0.75669 0.63224 0.0
C57 C 0.14287 0.75051 0.60507 0.0
C58 C 0.13012 0.7803 0.63797 0.0
C59 C 0.18323 0.86072 0.52398 0.0
O60 O 0.13539 0.88892 0.49404 0.0
O61 O 0.12397 0.84967 0.50347 0.0
O62 O 0.13799 0.94033 0.53312 0.0
O63 O 0.17121 0.926 0.51549 0.0
O64 O 0.11911 0.91028 0.56759 0.0
O65 O 0.11378 0.87906 0.54375 0.0
O66 O 0.15591 0.8617 0.5861 0.0
O67 O 0.16645 0.90077 0.57458 0.0
O68 O 0.14299 0.80953 0.54814 0.0
O69 O 0.11625 0.82847 0.57251 0.0
O70 O 0.17169 0.84085 0.5185 0.0
O71 O 0.17175 0.87219 0.54177 0.0
H72 H 0.15478 0.99335 0.52042 0.0
H73 H 0.15219 0.9328 0.46532 0.0
H74 H 0.1481 0.96079 0.42719 0.0
H75 H 0.15086 0.02137 0.48251 0.0
H76 H 0.12045 0.81522 0.62221 0.0
H77 H 0.14291 0.76177 0.56365 0.0
H78 H 0.14875 0.73243 0.59972 0.0
H79 H 0.12656 0.78578 0.65861 0.0
Gd80 Gd 0.36007 0.90085 0.78444 0.0
Gd81 Gd 0.41297 0.89185 0.79378 0.0
C82 C 0.39213 0.87755 0.73508 0.0
C83 C 0.31769 0.91304 0.76694 0.0
C84 C 0.2995 0.90469 0.74733 0.0
C85 C 0.30566 0.88961 0.72551 0.0
C86 C 0.27548 0.91208 0.75054 0.0
C87 C 0.26391 0.89021 0.70972 0.0
C88 C 0.25786 0.90491 0.73198 0.0
C89 C 0.28801 0.88244 0.70685 0.0
C90 C 0.36942 0.86046 0.81335 0.0
C91 C 0.38172 0.92253 0.83885 0.0
C92 C 0.45355 0.87716 0.81487 0.0
C93 C 0.46847 0.87994 0.83966 0.0
C94 C 0.4699 0.90205 0.85361 0.0
C95 C 0.48249 0.86037 0.84877 0.0
C96 C 0.50076 0.88552 0.88392 0.0
C97 C 0.4984 0.86308 0.87069 0.0
C98 C 0.48588 0.90481 0.87543 0.0
C99 C 0.40305 0.93543 0.77037 0.0
O100 O 0.37146 0.88683 0.74341 0.0
O101 O 0.41101 0.87556 0.75147 0.0
O102 O 0.32111 0.89925 0.78801 0.0
O103 O 0.33781 0.92174 0.75707 0.0
O104 O 0.35107 0.87457 0.81712 0.0
O105 O 0.38145 0.86738 0.79292 0.0
O106 O 0.40063 0.90826 0.83428 0.0
O107 O 0.365 0.92542 0.82008 0.0
O108 O 0.45168 0.89587 0.79887 0.0
O109 O 0.43323 0.86537 0.8172 0.0
O110 O 0.42188 0.92231 0.76463 0.0
O111 O 0.3913 0.92503 0.78866 0.0
H112 H 0.32411 0.88361 0.72274 0.0
H113 H 0.27035 0.92355 0.76739 0.0
H114 H 0.23944 0.91091 0.73508 0.0
H115 H 0.29336 0.87131 0.68982 0.0
H116 H 0.4591 0.91738 0.84725 0.0
H117 H 0.48166 0.8431 0.83841 0.0
H118 H 0.50963 0.8479 0.87648 0.0
H119 H 0.48691 0.92226 0.88536 0.0
Gd120 Gd 0.36552 0.11901 0.03453 0.0
Gd121 Gd 0.37385 0.17197 0.04543 0.0
C122 C 0.387 0.15254 0.98568 0.0
C123 C 0.35435 0.07638 1.01636 0.0
C124 C 0.35943 0.06006 0.99334 0.0
C125 C 0.3614 0.0351 0.99798 0.0
C126 C 0.36151 0.06877 0.9668 0.0
C127 C 0.36605 0.02749 0.94973 0.0
C128 C 0.36477 0.05263 0.94521 0.0
C129 C 0.36472 0.01897 0.97644 0.0
C130 C 0.40477 0.1282 0.06533 0.0
C131 C 0.34453 0.13915 0.0896 0.0
C132 C 0.38707 0.21329 0.06636 0.0
C133 C 0.38843 0.22752 0.09202 0.0
C134 C 0.36767 0.23381 0.10687 0.0
C135 C 0.41074 0.23701 0.10042 0.0
C136 C 0.39141 0.25987 0.13699 0.0
C137 C 0.41223 0.25289 0.12257 0.0
C138 C 0.36914 0.24971 0.12904 0.0
C139 C 0.33074 0.1624 1.02106 0.0
O140 O 0.37807 0.13164 0.99372 0.0
O141 O 0.38907 0.17115 1.00259 0.0
O142 O 0.37207 0.08026 0.03324 0.0
O143 O 0.34159 0.09585 1.01149 0.0
O144 O 0.39046 0.10994 0.06849 0.0
O145 O 0.39848 0.14048 0.04479 0.0
O146 O 0.35886 0.1581 0.0858 0.0
O147 O 0.34151 0.12283 0.07037 0.0
O148 O 0.36581 0.20931 0.05583 0.0
O149 O 0.40169 0.19488 0.06333 0.0
O150 O 0.34421 0.18102 1.01563 0.0
O151 O 0.34092 0.15011 0.03918 0.0
H152 H 0.35985 0.02801 1.01829 0.0
H153 H 0.36021 0.08796 0.96269 0.0
H154 H 0.36606 0.05984 0.92493 0.0
H155 H 0.36538 0.99976 0.98064 0.0
H156 H 0.35013 0.22697 0.10094 0.0
H157 H 0.42705 0.23263 0.08937 0.0
H158 H 0.42977 0.25989 0.12821 0.0
H159 H 0.35263 0.25474 0.13933 0.0
Gd160 Gd 0.15026 0.89383 0.27572 0.0
Gd161 Gd 0.09615 0.89491 0.26529 0.0
C162 C 0.1153 0.88156 0.32531 0.0
C163 C 0.19586 0.9011 0.28473 0.0
C164 C 0.21443 0.89329 0.30428 0.0
C165 C 0.20892 0.87726 0.32536 0.0
C166 C 0.23763 0.90328 0.30287 0.0
C167 C 0.24947 0.88217 0.34409 0.0
C168 C 0.25496 0.89779 0.32253 0.0
C169 C 0.22631 0.87168 0.34503 0.0
C170 C 0.13107 0.85111 0.25754 0.0
C171 C 0.13148 0.91752 0.21948 0.0
C172 C 0.05269 0.88748 0.24713 0.0
C173 C 0.03634 0.88677 0.22333 0.0
C174 C 0.0119 0.89211 0.2276 0.0
C175 C 0.04418 0.88165 0.19685 0.0
C176 C 1.00338 0.88882 0.17931 0.0
C177 C 0.02777 0.88256 0.17499 0.0
C178 C 0.99569 0.89311 0.206 0.0
C179 C 0.11323 0.93535 0.29081 0.0
O180 O 0.13607 0.89105 0.31802 0.0
O181 O 0.09792 0.87746 0.3073 0.0
O182 O 0.18782 0.88485 0.26767 0.0
O183 O 0.17865 0.91474 0.29458 0.0
O184 O 0.14723 0.85275 0.27648 0.0
O185 O 0.12577 0.87215 0.24996 0.0
O186 O 0.10899 0.91237 0.22659 0.0
O187 O 0.15019 0.91213 0.23504 0.0
O188 O 0.06074 0.90868 0.25465 0.0
O189 O 0.06855 0.8701 0.25047 0.0
O190 O 0.09237 0.92544 0.2955 0.0
O191 O 0.12342 0.92328 0.27243 0.0
H192 H 0.19103 0.8695 0.32692 0.0
H193 H 0.24222 0.91573 0.2868 0.0
H194 H 0.27267 0.90594 0.32092 0.0
H195 H 0.22135 0.85978 0.36147 0.0
H196 H 1.00535 0.89597 0.24779 0.0
H197 H 0.06297 0.87743 0.19302 0.0
H198 H 0.0343 0.87928 0.15469 0.0
H199 H 0.97704 0.89771 0.21017 0.0
Gd200 Gd 0.36245 0.90583 0.52338 0.0
Gd201 Gd 0.37024 0.85247 0.51503 0.0
C202 C 0.38461 0.87387 0.57351 0.0
C203 C 0.35054 0.94851 0.54062 0.0
C204 C 0.35855 0.96642 0.56075 0.0
C205 C 0.37278 0.9598 0.58302 0.0
C206 C 0.35196 0.9907 0.55739 0.0
C207 C 0.373 1.00166 0.5989 0.0
C208 C 0.35911 0.00815 0.57622 0.0
C209 C 0.37993 0.97728 0.60196 0.0
C210 C 0.40324 0.89522 0.49606 0.0
C211 C 0.34238 0.88437 0.46809 0.0
C212 C 0.38455 0.81138 0.4947 0.0
C213 C 0.38154 0.79616 0.47016 0.0
C214 C 0.40113 0.78237 0.46065 0.0
C215 C 0.3593 0.79439 0.45669 0.0
C216 C 0.37581 0.76371 0.42601 0.0
C217 C 0.35647 0.77832 0.43492 0.0
C218 C 0.39834 0.76637 0.43879 0.0
C219 C 0.32683 0.86388 0.53736 0.0
O220 O 0.37617 0.89473 0.56458 0.0
O221 O 0.3859 0.85452 0.55761 0.0
O222 O 0.3651 0.94483 0.52026 0.0
O223 O 0.34093 0.92851 0.54985 0.0
O224 O 0.38994 0.91409 0.49181 0.0
O225 O 0.3954 0.88346 0.51627 0.0
O226 O 0.35419 0.86416 0.47421 0.0
O227 O 0.34032 0.90217 0.4858 0.0
O228 O 0.36601 0.81359 0.51088 0.0
O229 O 0.3964 0.83163 0.49184 0.0
O230 O 0.33937 0.84483 0.54377 0.0
O231 O 0.33758 0.87509 0.51887 0.0
H232 H 0.37818 0.94115 0.5859 0.0
H233 H 0.34118 0.99618 0.54018 0.0
H234 H 0.35378 0.02678 0.57298 0.0
H235 H 0.39041 0.9716 0.6193 0.0
H236 H 0.4185 0.78349 0.47064 0.0
H237 H 0.34397 0.80503 0.46335 0.0
H238 H 0.33894 0.77702 0.42532 0.0
H239 H 0.41356 0.75534 0.43266 0.0
Gd240 Gd 0.36051 0.11552 0.77518 0.0
Gd241 Gd 0.41342 0.12445 0.76472 0.0
C242 C 0.39444 0.13398 0.82498 0.0
C243 C 0.31818 0.10288 0.79219 0.0
C244 C 0.30245 0.10414 0.81619 0.0
C245 C 0.29877 0.12593 0.83033 0.0
C246 C 0.28957 0.08348 0.82392 0.0
C247 C 0.26876 0.10649 0.85891 0.0
C248 C 0.27294 0.0846 0.84512 0.0
C249 C 0.28201 0.1271 0.85144 0.0
C250 C 0.3698 0.15746 0.74936 0.0
C251 C 0.37987 0.09876 0.71759 0.0
C252 C 0.45361 0.13987 0.74372 0.0
C253 C 0.4717 0.13463 0.72219 0.0
C254 C 0.49521 0.12789 0.72963 0.0
C255 C 0.46659 0.13795 0.69453 0.0
C256 C 0.50804 0.12721 0.68237 0.0
C257 C 0.48457 0.13431 0.67485 0.0
C258 C 0.51307 0.12419 0.71006 0.0
C259 C 0.40337 0.07961 0.78451 0.0
O260 O 0.3747 0.1226 0.81719 0.0
O261 O 0.41147 0.13999 0.8074 0.0
O262 O 0.32255 0.12321 0.77968 0.0
O263 O 0.33702 0.0886 0.79341 0.0
O264 O 0.35127 0.14382 0.74491 0.0
O265 O 0.38228 0.14912 0.76881 0.0
O266 O 0.40076 0.10907 0.72403 0.0
O267 O 0.36214 0.09684 0.73523 0.0
O268 O 0.45268 0.12514 0.76437 0.0
O269 O 0.43227 0.14759 0.73639 0.0
O270 O 0.42309 0.09142 0.78969 0.0
O271 O 0.39129 0.09135 0.76754 0.0
H272 H 0.30855 0.14215 0.82483 0.0
H273 H 0.29201 0.06654 0.81318 0.0
H274 H 0.2629 0.06845 0.85026 0.0
H275 H 0.27944 0.14412 0.86196 0.0
H276 H 0.4999 0.12569 0.75074 0.0
H277 H 0.44874 0.14345 0.68804 0.0
H278 H 0.48 0.13667 0.65374 0.0
H279 H 0.53101 0.11917 0.71672 0.0
Gd280 Gd 0.15004 0.11645 1.02928 0.0
Gd281 Gd 0.14253 0.16996 1.01515 0.0
C282 C 0.13035 0.15321 0.0763 0.0
C283 C 0.16256 0.07535 0.05004 0.0
C284 C 0.15467 0.05781 0.07077 0.0
C285 C 0.13144 0.04759 0.07039 0.0
C286 C 0.17116 0.05022 0.09052 0.0
C287 C 0.14172 0.02183 0.1087 0.0
C288 C 0.16476 0.03251 0.10932 0.0
C289 C 0.12506 0.02978 0.08914 0.0
C290 C 0.10831 0.12605 1.00318 0.0
C291 C 0.16911 0.13393 0.97152 0.0
C292 C 0.12695 0.20916 0.99167 0.0
C293 C 0.13056 0.22456 0.96746 0.0
C294 C 0.11104 0.23798 0.95727 0.0
C295 C 0.15319 0.22686 0.955 0.0
C296 C 0.13703 0.25724 0.92378 0.0
C297 C 0.15639 0.24302 0.93344 0.0
C298 C 0.11419 0.2541 0.93567 0.0
C299 C 0.187 0.1597 0.03605 0.0
O300 O 0.13825 0.13146 0.0696 0.0
O301 O 0.12859 0.17104 0.05843 0.0
O302 O 0.14924 0.07737 1.02831 0.0
O303 O 0.17095 0.09614 0.05867 0.0
O304 O 0.12039 0.10608 1.00083 0.0
O305 O 0.11768 0.13932 1.02134 0.0
O306 O 0.15651 0.15411 0.97538 0.0
O307 O 0.17211 0.11815 0.99132 0.0
O308 O 0.14402 0.20896 1.00996 0.0
O309 O 0.1175 0.1878 0.98777 0.0
O310 O 0.17636 0.18061 0.03813 0.0
O311 O 0.1745 0.14663 1.02068 0.0
H312 H 0.11831 0.05305 0.05538 0.0
H313 H 0.18917 0.05783 0.09123 0.0
H314 H 0.17791 0.02722 0.1244 0.0
H315 H 0.10723 0.02185 0.0879 0.0
H316 H 0.09338 0.23646 0.9665 0.0
H317 H 0.1685 0.21652 0.96225 0.0
H318 H 0.17416 0.24462 0.92454 0.0
H319 H 0.09893 0.2648 0.92903 0.0
Gd320 Gd 0.91301 0.8926 0.76548 0.0
Gd321 Gd 0.86007 0.90125 0.77735 0.0
C322 C 0.87945 0.92064 0.72069 0.0
C323 C 0.95249 0.8765 0.74314 0.0
C324 C 0.96813 0.88 0.71918 0.0
C325 C 0.96957 0.90233 0.70586 0.0
C326 C 0.98244 0.86068 0.70993 0.0
C327 C 1.00086 0.88641 0.67564 0.0
C328 C 0.99859 0.8638 0.68838 0.0
C329 C 0.98578 0.9055 0.68436 0.0
C330 C 0.90353 0.93734 0.78668 0.0
C331 C 0.89437 0.87982 0.82562 0.0
C332 C 0.81811 0.91379 0.79555 0.0
C333 C 0.80168 0.90827 0.81803 0.0
C334 C 0.7768 0.90717 0.81303 0.0
C335 C 0.81027 0.90482 0.84444 0.0
C336 C 0.76903 0.90076 0.86081 0.0
C337 C 0.79405 0.90118 0.86567 0.0
C338 C 0.76059 0.90337 0.83421 0.0
C339 C 0.8694 0.86006 0.74981 0.0
O340 O 0.89919 0.9076 0.72522 0.0
O341 O 0.86297 0.92349 0.73975 0.0
O342 O 0.95203 0.89374 0.76131 0.0
O343 O 0.9312 0.86711 0.73884 0.0
O344 O 0.92354 0.92544 0.79036 0.0
O345 O 0.89066 0.92554 0.77043 0.0
O346 O 0.87348 0.88935 0.81832 0.0
O347 O 0.91235 0.87714 0.8081 0.0
O348 O 0.8212 0.89669 0.77758 0.0
O349 O 0.83807 0.9253 0.80151 0.0
O350 O 0.85067 0.87365 0.74599 0.0
O351 O 0.88184 0.86808 0.76944 0.0
H352 H 0.95851 0.91744 0.71238 0.0
H353 H 0.98154 0.84324 0.71983 0.0
H354 H 0.00999 0.84877 0.68244 0.0
H355 H 0.98674 0.92307 0.67479 0.0
H356 H 0.76986 0.90975 0.79276 0.0
H357 H 0.82943 0.90535 0.84874 0.0
H358 H 0.80107 0.89892 0.88595 0.0
H359 H 0.74143 0.90334 0.8299 0.0
Gd360 Gd 0.87548 0.16836 0.51587 0.0
Gd361 Gd 0.86507 0.11595 0.52685 0.0
C362 C 0.84515 0.13612 0.47104 0.0
C363 C 0.89193 0.20762 0.49343 0.0
C364 C 0.88752 0.22328 0.46963 0.0
C365 C 0.86469 0.2248 0.45745 0.0
C366 C 0.9064 0.23747 0.45933 0.0
C367 C 0.87932 0.25585 0.42625 0.0
C368 C 0.90239 0.25353 0.43785 0.0
C369 C 0.86063 0.24093 0.43605 0.0
C370 C 0.83118 0.16084 0.53792 0.0
C371 C 0.88489 0.14968 0.57623 0.0
C372 C 0.85314 0.0731 0.54328 0.0
C373 C 0.85595 0.05651 0.56628 0.0
C374 C 0.85922 0.03177 0.56106 0.0
C375 C 0.85507 0.06469 0.59314 0.0
C376 C 0.85981 0.02326 0.60925 0.0
C377 C 0.85692 0.04818 0.61445 0.0
C378 C 0.86119 0.0153 0.58231 0.0
C379 C 0.90617 0.1242 0.4989 0.0
O380 O 0.85841 0.15572 0.47583 0.0
O381 O 0.84276 0.11918 0.48957 0.0
O382 O 0.87551 0.20753 0.51241 0.0
O383 O 0.90066 0.18606 0.48864 0.0
O384 O 0.84443 0.17977 0.54272 0.0
O385 O 0.84165 0.14766 0.52078 0.0
O386 O 0.87335 0.12995 0.56859 0.0
O387 O 0.89094 0.16669 0.55858 0.0
O388 O 0.87259 0.07754 0.52929 0.0
O389 O 0.8395 0.09224 0.54666 0.0
O390 O 0.8913 0.10671 0.49412 0.0
O391 O 0.8991 0.13643 0.51917 0.0
H392 H 0.84989 0.21384 0.46478 0.0
H393 H 0.92421 0.23651 0.46833 0.0
H394 H 0.91715 0.2648 0.43105 0.0
H395 H 0.84271 0.24193 0.42737 0.0
H396 H 0.85995 0.02512 0.54045 0.0
H397 H 0.85278 0.08375 0.59764 0.0
H398 H 0.85608 0.0549 0.635 0.0
H399 H 0.86315 0.99624 0.57763 0.0
Gd400 Gd 0.59561 0.12263 0.27024 0.0
Gd401 Gd 0.64899 0.11394 0.27934 0.0
C402 C 0.62714 0.09297 0.22465 0.0
C403 C 0.55508 0.13762 0.24932 0.0
C404 C 0.53998 0.13485 0.22467 0.0
C405 C 0.527 0.15485 0.21481 0.0
C406 C 0.53734 0.11243 0.21157 0.0
C407 C 0.50743 0.12969 0.18056 0.0
C408 C 0.52123 0.10988 0.18983 0.0
C409 C 0.51098 0.15234 0.19297 0.0
C410 C 0.60623 0.07896 0.29305 0.0
C411 C 0.61646 0.13504 0.32954 0.0
C412 C 0.69206 0.10272 0.29544 0.0
C413 C 0.70853 0.10757 0.3182 0.0
C414 C 0.73316 0.11104 0.31297 0.0
C415 C 0.70023 0.10846 0.34497 0.0
C416 C 0.74131 0.11504 0.3611 0.0
C417 C 0.71647 0.11216 0.36623 0.0
C418 C 0.74941 0.11477 0.33419 0.0
C419 C 0.63883 0.15358 0.24968 0.0
O420 O 0.60782 0.10652 0.22972 0.0
O421 O 0.64438 0.09041 0.24289 0.0
O422 O 0.55681 0.11905 0.26554 0.0
O423 O 0.57551 0.14915 0.24673 0.0
O424 O 0.58646 0.091 0.2976 0.0
O425 O 0.61794 0.08985 0.27513 0.0
O426 O 0.6369 0.12538 0.32095 0.0
O427 O 0.59786 0.13824 0.31291 0.0
O428 O 0.68748 0.12099 0.27953 0.0
O429 O 0.67302 0.0894 0.30031 0.0
O430 O 0.65695 0.13924 0.2456 0.0
O431 O 0.6272 0.14709 0.27062 0.0
H432 H 0.52876 0.17236 0.22452 0.0
H433 H 0.54731 0.09675 0.21849 0.0
H434 H 0.51928 0.09223 0.18052 0.0
H435 H 0.5006 0.16793 0.18659 0.0
H436 H 0.7399 0.11045 0.29242 0.0
H437 H 0.68127 0.10599 0.34951 0.0
H438 H 0.70961 0.11257 0.38672 0.0
H439 H 0.76842 0.11666 0.32956 0.0
Gd440 Gd 0.63752 0.84686 1.01532 0.0
Gd441 Gd 0.64468 0.90035 1.02659 0.0
C442 C 0.66567 0.88042 0.97074 0.0
C443 C 0.62295 0.80661 0.99323 0.0
C444 C 0.62794 0.78901 0.97102 0.0
C445 C 0.63482 0.76529 0.97757 0.0
C446 C 0.62399 0.79472 0.94361 0.0
C447 C 0.63418 0.75336 0.92994 0.0
C448 C 0.62706 0.77709 0.92332 0.0
C449 C 0.63793 0.74777 0.95739 0.0
C450 C 0.68141 0.85773 0.03757 0.0
C451 C 0.62417 0.86606 0.07513 0.0
C452 C 0.6554 0.9432 0.0441 0.0
C453 C 0.6508 0.95909 0.06745 0.0
C454 C 0.64881 0.98409 0.06329 0.0
C455 C 0.64885 0.94986 0.09375 0.0
C456 C 0.64434 0.99077 0.11164 0.0
C457 C 0.6457 0.96558 0.11568 0.0
C458 C 0.64556 0.99981 0.08516 0.0
C459 C 0.60477 0.88986 0.9975 0.0
O460 O 0.65332 0.86027 0.97535 0.0
O461 O 0.66745 0.8975 0.98939 0.0
O462 O 0.63807 0.80747 1.01354 0.0
O463 O 0.61456 0.82795 0.98675 0.0
O464 O 0.67049 0.83709 0.0404 0.0
O465 O 0.66961 0.87004 1.02085 0.0
O466 O 0.63371 0.8869 0.06773 0.0
O467 O 0.62131 0.84802 0.05762 0.0
O468 O 0.63698 0.9388 1.02836 0.0
O469 O 0.66899 0.92414 0.0482 0.0
O470 O 0.61832 0.90862 0.99385 0.0
O471 O 0.61218 0.87776 1.01774 0.0
H472 H 0.63749 0.76014 0.99847 0.0
H473 H 0.61838 0.81275 0.9378 0.0
H474 H 0.62416 0.78211 0.90243 0.0
H475 H 0.643 0.72963 0.9634 0.0
H476 H 0.65022 0.99152 0.04311 0.0
H477 H 0.65012 0.93058 0.0974 0.0
H478 H 0.64452 0.95806 0.13582 0.0
H479 H 0.64482 0.0191 0.08141 0.0
Gd480 Gd 0.92336 0.12657 0.79695 0.0
Gd481 Gd 0.86873 0.11243 0.78205 0.0
C482 C 0.89423 0.08955 0.83587 0.0
C483 C 0.95948 0.14888 0.81935 0.0
C484 C 0.97499 0.1451 0.84339 0.0
C485 C 0.9895 0.16399 0.85323 0.0
C486 C 0.97604 0.12248 0.85617 0.0
C487 C 0.0073 0.13718 0.88704 0.0
C488 C 0.99202 0.11856 0.8777 0.0
C489 C 1.00545 0.16011 0.87489 0.0
C490 C 0.92125 0.08076 0.77673 0.0
C491 C 0.9012 0.13804 0.73623 0.0
C492 C 0.82748 0.09311 0.77035 0.0
C493 C 0.80678 0.0976 0.75229 0.0
C494 C 0.80578 0.11808 0.73555 0.0
C495 C 0.78842 0.08028 0.75058 0.0
C496 C 0.76885 0.103 0.71448 0.0
C497 C 0.76966 0.08293 0.73191 0.0
C498 C 0.78689 0.12082 0.71687 0.0
C499 C 0.87636 0.15681 0.80507 0.0
O500 O 0.91327 0.10398 0.83335 0.0
O501 O 0.87619 0.08911 0.81826 0.0
O502 O 0.96185 0.13313 0.79971 0.0
O503 O 0.93692 0.15456 0.82392 0.0
O504 O 0.94105 0.09126 0.78456 0.0
O505 O 0.9044 0.09608 0.77893 0.0
O506 O 0.88194 0.12486 0.74182 0.0
O507 O 0.91802 0.14334 0.75474 0.0
O508 O 0.83054 0.10815 0.79059 0.0
O509 O 0.84773 0.08716 0.75837 0.0
O510 O 0.85997 0.15262 0.78685 0.0
O511 O 0.88694 0.13725 0.81033 0.0
H512 H 0.98891 0.18162 0.84375 0.0
H513 H 0.96485 0.10768 0.84913 0.0
H514 H 0.99266 0.10077 0.8868 0.0
H515 H 0.01701 0.1748 0.8814 0.0
H516 H 0.81991 0.13159 0.73646 0.0
H517 H 0.78888 0.06436 0.76331 0.0
H518 H 0.75593 0.06902 0.73082 0.0
H519 H 0.78691 0.13637 0.70359 0.0
Gd520 Gd 0.64322 0.16092 0.55088 0.0
Gd521 Gd 0.65257 0.10775 0.54173 0.0
C522 C 0.67231 0.12924 0.59737 0.0
C523 C 0.62675 0.20097 0.57165 0.0
C524 C 0.63136 0.21916 0.5933 0.0
C525 C 0.62798 0.21385 0.6209 0.0
C526 C 0.63756 0.24289 0.58607 0.0
C527 C 0.63743 0.25561 0.63341 0.0
C528 C 0.6406 0.26082 0.6058 0.0
C529 C 0.63094 0.23189 0.64071 0.0
C530 C 0.6875 0.15149 0.52955 0.0
C531 C 0.63442 0.14073 0.49096 0.0
C532 C 0.66273 0.06413 0.52603 0.0
C533 C 0.65996 0.0485 0.50215 0.0
C534 C 0.65782 0.02345 0.5058 0.0
C535 C 0.65879 0.05811 0.47597 0.0
C536 C 0.65391 0.01752 0.45726 0.0
C537 C 0.65585 0.04273 0.4537 0.0
C538 C 0.6548 0.00809 0.48359 0.0
C539 C 0.6116 0.118 0.56913 0.0
O540 O 0.66021 0.14933 0.59125 0.0
O541 O 0.67412 0.11124 0.57981 0.0
O542 O 0.6417 0.20027 0.55119 0.0
O543 O 0.61938 0.17945 0.57886 0.0
O544 O 0.67556 0.17142 0.52559 0.0
O545 O 0.67644 0.13903 0.54677 0.0
O546 O 0.64582 0.12117 0.49939 0.0
O547 O 0.62797 0.15808 0.50811 0.0
O548 O 0.64275 0.06997 0.5384 0.0
O549 O 0.67793 0.08218 0.52429 0.0
O550 O 0.62609 0.10032 0.5746 0.0
O551 O 0.61898 0.1294 0.54847 0.0
H552 H 0.62292 0.19581 0.62722 0.0
H553 H 0.63981 0.2477 0.56502 0.0
H554 H 0.64519 0.27894 0.59932 0.0
H555 H 0.62851 0.22719 0.66176 0.0
H556 H 0.65856 0.01574 0.52589 0.0
H557 H 0.66013 0.07744 0.47275 0.0
H558 H 0.65496 0.05059 0.4337 0.0
H559 H 0.65365 0.98877 0.487 0.0
Gd560 Gd 0.59782 0.88976 0.29691 0.0
Gd561 Gd 0.6496 0.90022 0.28488 0.0
C562 C 0.63074 0.91877 0.34173 0.0
C563 C 0.55858 0.87338 0.31936 0.0
C564 C 0.54273 0.87777 0.34301 0.0
C565 C 0.52902 0.85862 0.35355 0.0
C566 C 0.54028 0.90087 0.35454 0.0
C567 C 0.50916 0.88595 0.38543 0.0
C568 C 0.52366 0.90492 0.37547 0.0
C569 C 0.51247 0.86263 0.37457 0.0
C570 C 0.60503 0.93496 0.27639 0.0
C571 C 0.61539 0.88037 0.23602 0.0
C572 C 0.69138 0.91333 0.26642 0.0
C573 C 0.70975 0.90515 0.24698 0.0
C574 C 0.7041 0.88915 0.22584 0.0
C575 C 0.73346 0.9135 0.24981 0.0
C576 C 0.74576 0.8907 0.20993 0.0
C577 C 0.7513 0.90635 0.23151 0.0
C578 C 0.72198 0.88198 0.20744 0.0
C579 C 0.64233 0.85756 0.31058 0.0
O580 O 0.61172 0.90465 0.3375 0.0
O581 O 0.64624 0.92291 0.32204 0.0
O582 O 0.55877 0.88984 0.30042 0.0
O583 O 0.58005 0.86462 0.32421 0.0
O584 O 0.58627 0.92166 0.27126 0.0
O585 O 0.61838 0.92397 0.29287 0.0
O586 O 0.63543 0.89138 0.24339 0.0
O587 O 0.59849 0.87476 0.25392 0.0
O588 O 0.68863 0.89994 0.28788 0.0
O589 O 0.67088 0.92105 0.25651 0.0
O590 O 0.66063 0.87161 0.31432 0.0
O591 O 0.62928 0.86577 0.29161 0.0
H592 H 0.53067 0.84062 0.34503 0.0
H593 H 0.55083 0.91589 0.34699 0.0
H594 H 0.52189 0.92305 0.3836 0.0
H595 H 0.50155 0.84765 0.38152 0.0
H596 H 0.68588 0.88241 0.22342 0.0
H597 H 0.73818 0.92569 0.26617 0.0
H598 H 0.76948 0.9131 0.23428 0.0
H599 H 0.71705 0.87009 0.19091 0.0
Gd600 Gd 0.87035 0.84887 0.04664 0.0
Gd601 Gd 0.86151 0.90073 0.03465 0.0
C602 C 0.84292 0.8834 0.09174 0.0
C603 C 0.8856 0.80917 0.06938 0.0
C604 C 0.88071 0.79187 0.09184 0.0
C605 C 0.87284 0.76835 0.08569 0.0
C606 C 0.88564 0.79762 0.11907 0.0
C607 C 0.87438 0.75678 0.13335 0.0
C608 C 0.88252 0.78028 0.13957 0.0
C609 C 0.86969 0.75112 0.10607 0.0
C610 C 0.82566 0.85676 1.02548 0.0
C611 C 0.88033 0.86606 0.98588 0.0
C612 C 0.85113 0.94315 1.01544 0.0
C613 C 0.85631 0.9581 0.99149 0.0
C614 C 0.85885 0.98318 0.99474 0.0
C615 C 0.85911 0.94789 0.96566 0.0
C616 C 0.86641 0.98792 0.94656 0.0
C617 C 0.86404 0.96269 0.94338 0.0
C618 C 0.86387 0.99794 0.97255 0.0
C619 C 0.90311 0.89219 0.06191 0.0
O620 O 0.8541 0.86262 0.08654 0.0
O621 O 0.84083 0.90033 0.07317 0.0
O622 O 0.87053 0.80954 0.04904 0.0
O623 O 0.89368 0.83071 0.0755 0.0
O624 O 0.83899 0.83796 1.02035 0.0
O625 O 0.83647 0.87022 0.04221 0.0
O626 O 0.86926 0.8861 0.99315 0.0
O627 O 0.88587 0.8492 1.00389 0.0
O628 O 0.86937 0.93902 0.03146 0.0
O629 O 0.83734 0.92415 1.01213 0.0
O630 O 0.88881 0.9103 0.06609 0.0
O631 O 0.89539 0.87953 0.04224 0.0
H632 H 0.8694 0.76312 0.06492 0.0
H633 H 0.89206 0.81546 0.12458 0.0
H634 H 0.88619 0.78537 0.16031 0.0
H635 H 0.86386 0.73313 0.10032 0.0
H636 H 0.85682 0.99139 1.01452 0.0
H637 H 0.85746 0.92854 0.96268 0.0
H638 H 0.86613 0.95435 0.92369 0.0
H639 H 0.86523 0.0173 0.97569 0.0
Gd640 Gd 0.64755 0.61154 0.78415 0.0
Gd641 Gd 0.59475 0.62095 0.79496 0.0
C642 C 0.61434 0.6343 0.73552 0.0
C643 C 0.68951 0.59896 0.76577 0.0
C644 C 0.70594 0.60485 0.74329 0.0
C645 C 0.73089 0.60551 0.74804 0.0
C646 C 0.69723 0.60929 0.71712 0.0
C647 C 0.73844 0.61358 0.70045 0.0
C648 C 0.71334 0.61358 0.69589 0.0
C649 C 0.747 0.60987 0.72686 0.0
C650 C 0.63891 0.65215 0.81295 0.0
C651 C 0.62724 0.59161 0.83989 0.0
C652 C 0.5547 0.63603 0.81699 0.0
C653 C 0.53983 0.63274 0.84168 0.0
C654 C 0.53923 0.61064 0.85561 0.0
C655 C 0.52519 0.65185 0.85089 0.0
C656 C 0.50809 0.62629 0.88624 0.0
C657 C 0.50955 0.64871 0.87293 0.0
C658 C 0.52353 0.60745 0.87758 0.0
C659 C 0.60421 0.57672 0.77249 0.0
O660 O 0.63488 0.62425 0.74318 0.0
O661 O 0.59612 0.63715 0.75269 0.0
O662 O 0.68648 0.61578 0.78408 0.0
O663 O 0.6695 0.58758 0.7597 0.0
O664 O 0.6572 0.63793 0.81653 0.0
O665 O 0.62642 0.64512 0.79285 0.0
O666 O 0.60797 0.60535 0.83534 0.0
O667 O 0.6438 0.5885 0.82097 0.0
O668 O 0.55594 0.61789 0.80002 0.0
O669 O 0.57538 0.64705 0.81989 0.0
O670 O 0.58511 0.58954 0.76716 0.0
O671 O 0.61635 0.58768 0.79007 0.0
H672 H 0.73795 0.60217 0.76811 0.0
H673 H 0.67804 0.60906 0.71297 0.0
H674 H 0.70614 0.61669 0.67584 0.0
H675 H 0.76619 0.60951 0.731 0.0
H676 H 0.55052 0.59569 0.84916 0.0
H677 H 0.5254 0.6691 0.84054 0.0
H678 H 0.49788 0.66355 0.87881 0.0
H679 H 0.5232 0.59004 0.88756 0.0
Gd680 Gd 0.64484 0.39654 0.03401 0.0
Gd681 Gd 0.63721 0.34271 0.04327 0.0
C682 C 0.62257 0.36385 0.98488 0.0
C683 C 0.65612 0.43939 1.01718 0.0
C684 C 0.65106 0.45577 0.99443 0.0
C685 C 0.65071 0.48082 0.999 0.0
C686 C 0.6472 0.4469 0.96817 0.0
C687 C 0.64416 0.48815 0.95108 0.0
C688 C 0.64385 0.46296 0.94668 0.0
C689 C 0.64724 0.49688 0.97755 0.0
C690 C 0.6046 0.38548 0.06204 0.0
C691 C 0.66648 0.3752 0.08871 0.0
C692 C 0.62276 0.30185 0.06369 0.0
C693 C 0.62643 0.28502 0.08678 0.0
C694 C 0.62358 0.29222 0.11396 0.0
C695 C 0.63156 0.26065 0.08124 0.0
C696 C 0.63178 0.25097 0.12942 0.0
C697 C 0.63421 0.24391 0.10218 0.0
C698 C 0.62618 0.27534 0.13506 0.0
C699 C 0.68059 0.35354 1.02038 0.0
O700 O 0.63229 0.38447 0.9928 0.0
O701 O 0.62028 0.34513 1.00143 0.0
O702 O 0.63825 0.43525 0.03376 0.0
O703 O 0.66897 0.42002 1.0119 0.0
O704 O 0.61797 0.40417 0.06692 0.0
O705 O 0.61259 0.37387 0.0418 0.0
O706 O 0.6544 0.35495 0.08334 0.0
O707 O 0.66751 0.39298 0.07098 0.0
O708 O 0.64005 0.30347 0.04579 0.0
O709 O 0.61223 0.32262 0.06842 0.0
O710 O 0.66809 0.33423 1.01486 0.0
O711 O 0.66961 0.36548 0.03827 0.0
H712 H 0.65361 0.48799 1.01914 0.0
H713 H 0.64716 0.42761 0.96421 0.0
H714 H 0.64121 0.45567 0.92656 0.0
H715 H 0.6478 0.51614 0.98157 0.0
H716 H 0.6194 0.31085 0.11893 0.0
H717 H 0.63342 0.25447 0.06055 0.0
H718 H 0.6381 0.22526 0.09696 0.0
H719 H 0.62433 0.28145 0.15576 0.0
Gd720 Gd 0.85932 0.39938 0.28447 0.0
Gd721 Gd 0.91272 0.39254 0.29744 0.0
C722 C 0.89498 0.37976 0.23651 0.0
C723 C 0.81754 0.41171 0.26554 0.0
C724 C 0.8014 0.40769 0.24227 0.0
C725 C 0.79635 0.38438 0.23231 0.0
C726 C 0.78998 0.42771 0.23056 0.0
C727 C 0.76849 0.40136 0.19928 0.0
C728 C 0.77373 0.42461 0.20929 0.0
C729 C 0.77994 0.38125 0.21104 0.0
C730 C 0.86955 0.35841 0.31163 0.0
C731 C 0.87712 0.41842 0.3423 0.0
C732 C 0.95214 0.377 0.32035 0.0
C733 C 0.96779 0.38075 0.34433 0.0
C734 C 0.96947 0.40327 0.35735 0.0
C735 C 0.98191 0.36143 0.35389 0.0
C736 C 1.00056 0.38749 0.38792 0.0
C737 C 0.99807 0.36472 0.37544 0.0
C738 C 0.98567 0.4066 0.37887 0.0
C739 C 0.90201 0.43691 0.27669 0.0
O740 O 0.87339 0.38765 0.24364 0.0
O741 O 0.91309 0.37832 0.25409 0.0
O742 O 0.82081 0.3936 0.28212 0.0
O743 O 0.83723 0.42417 0.26112 0.0
O744 O 0.84997 0.37095 0.31461 0.0
O745 O 0.88232 0.36712 0.29265 0.0
O746 O 0.89832 0.40812 0.33721 0.0
O747 O 0.85999 0.41958 0.32375 0.0
O748 O 0.9517 0.39401 0.302 0.0
O749 O 0.93087 0.36759 0.32463 0.0
O750 O 0.92267 0.42602 0.27369 0.0
O751 O 0.88923 0.42452 0.29248 0.0
H752 H 0.80497 0.36862 0.241 0.0
H753 H 0.79346 0.44582 0.23808 0.0
H754 H 0.76501 0.44045 0.20089 0.0
H755 H 0.77644 0.36315 0.20356 0.0
H756 H 0.95858 0.41839 0.3506 0.0
H757 H 0.98084 0.34385 0.34423 0.0
H758 H 0.00929 0.34965 0.38159 0.0
H759 H 0.98677 0.4243 0.38823 0.0
Gd760 Gd 0.86242 0.61498 0.53435 0.0
Gd761 Gd 0.87301 0.66712 0.54733 0.0
C762 C 0.88318 0.64969 0.48649 0.0
C763 C 0.84926 0.57327 0.51521 0.0
C764 C 0.85725 0.55444 0.49609 0.0
C765 C 0.84808 0.53097 0.4988 0.0
C766 C 0.87366 0.55943 0.47523 0.0
C767 C 0.87086 0.51764 0.45935 0.0
C768 C 0.88042 0.54116 0.457 0.0
C769 C 0.8548 0.51275 0.48066 0.0
C770 C 0.90485 0.62238 0.56046 0.0
C771 C 0.84239 0.63425 0.59065 0.0
C772 C 0.88971 0.706 0.57057 0.0
C773 C 0.8854 0.72186 0.59429 0.0
C774 C 0.86234 0.72451 0.60567 0.0
C775 C 0.90461 0.73532 0.60512 0.0
C776 C 0.87749 0.75531 0.63705 0.0
C777 C 0.90074 0.75182 0.62629 0.0
C778 C 0.85843 0.74107 0.62678 0.0
C779 C 0.8286 0.66029 0.52489 0.0
O780 O 0.87211 0.6295 0.49328 0.0
O781 O 0.88848 0.66655 0.50469 0.0
O782 O 0.86212 0.57582 0.53714 0.0
O783 O 0.84229 0.59395 0.505 0.0
O784 O 0.89096 0.60393 0.56411 0.0
O785 O 0.89653 0.63545 0.54165 0.0
O786 O 0.85677 0.65321 0.58715 0.0
O787 O 0.83889 0.61862 0.5708 0.0
O788 O 0.8735 0.70623 0.55135 0.0
O789 O 0.89798 0.68428 0.57538 0.0
O790 O 0.84197 0.67926 0.52096 0.0
O791 O 0.83901 0.64666 0.5416 0.0
H792 H 0.83554 0.52674 0.5149 0.0
H793 H 0.88101 0.57745 0.47288 0.0
H794 H 0.89265 0.54561 0.4407 0.0
H795 H 0.8474 0.49479 0.48334 0.0
H796 H 0.84727 0.71414 0.5979 0.0
H797 H 0.92258 0.73351 0.59671 0.0
H798 H 0.91578 0.76255 0.63347 0.0
H799 H 0.84035 0.74297 0.63482 0.0
Gd800 Gd 0.65012 0.39873 0.77749 0.0
Gd801 Gd 0.59729 0.38875 0.76618 0.0
C802 C 0.61751 0.37347 0.82479 0.0
C803 C 0.69117 0.41234 0.79716 0.0
C804 C 0.70942 0.40415 0.81696 0.0
C805 C 0.72171 0.38201 0.81392 0.0
C806 C 0.71542 0.41929 0.83872 0.0
C807 C 0.74617 0.39073 0.85371 0.0
C808 C 0.73349 0.41263 0.85695 0.0
C809 C 0.7399 0.37538 0.83211 0.0
C810 C 0.64225 0.35779 0.74911 0.0
C811 C 0.62953 0.41907 0.72203 0.0
C812 C 0.55776 0.37297 0.74377 0.0
C813 C 0.54235 0.37682 0.71964 0.0
C814 C 0.52779 0.35783 0.71013 0.0
C815 C 0.54134 0.39926 0.70647 0.0
C816 C 0.50997 0.38412 0.67589 0.0
C817 C 0.52531 0.40287 0.68487 0.0
C818 C 0.51182 0.36139 0.68847 0.0
C819 C 0.60609 0.43278 0.7895 0.0
O820 O 0.63807 0.38359 0.81754 0.0
O821 O 0.59903 0.37147 0.80786 0.0
O822 O 0.68902 0.39976 0.77485 0.0
O823 O 0.67041 0.41972 0.80684 0.0
O824 O 0.66088 0.37163 0.74616 0.0
O825 O 0.62938 0.36511 0.76873 0.0
O826 O 0.61037 0.40513 0.7262 0.0
O827 O 0.64576 0.4223 0.74126 0.0
O828 O 0.5583 0.3902 0.76194 0.0
O829 O 0.57896 0.36325 0.73968 0.0
O830 O 0.58684 0.41996 0.79391 0.0
O831 O 0.61847 0.42212 0.77189 0.0
H832 H 0.71753 0.36992 0.79731 0.0
H833 H 0.70622 0.43643 0.84152 0.0
H834 H 0.73746 0.42467 0.87366 0.0
H835 H 0.74939 0.35847 0.8289 0.0
H836 H 0.52835 0.34032 0.71991 0.0
H837 H 0.55259 0.41412 0.71319 0.0
H838 H 0.52466 0.42052 0.67544 0.0
H839 H 0.50022 0.34661 0.68231 0.0
Gd840 Gd 0.86311 0.39903 1.02772 0.0
Gd841 Gd 0.86672 0.3454 1.01556 0.0
C842 C 0.87976 0.36269 0.07644 0.0
C843 C 0.85301 0.44183 0.0459 0.0
C844 C 0.85596 0.45768 0.06975 0.0
C845 C 0.87886 0.46445 0.07945 0.0
C846 C 0.83532 0.46751 0.08199 0.0
C847 C 0.86026 0.49086 0.11302 0.0
C848 C 0.83742 0.48385 0.10341 0.0
C849 C 0.88098 0.48094 0.10086 0.0
C850 C 0.90218 0.38711 0.99814 0.0
C851 C 0.84453 0.38195 0.97005 0.0
C852 C 0.87681 0.30317 0.9947 0.0
C853 C 0.8791 0.28909 0.969 0.0
C854 C 0.85894 0.28354 0.95272 0.0
C855 C 0.90141 0.27858 0.96229 0.0
C856 C 0.88311 0.25572 0.92512 0.0
C857 C 0.90341 0.26221 0.94068 0.0
C858 C 0.86096 0.26714 0.931 0.0
C859 C 0.82394 0.35936 0.03806 0.0
O860 O 0.87426 0.38486 0.06866 0.0
O861 O 0.87931 0.34407 0.05939 0.0
O862 O 0.87226 0.43688 0.03161 0.0
O863 O 0.83838 0.42336 0.04831 0.0
O864 O 0.89011 0.40707 0.99584 0.0
O865 O 0.89413 0.37458 1.01776 0.0
O866 O 0.85519 0.36089 0.97484 0.0
O867 O 0.84253 0.39871 0.98896 0.0
O868 O 0.85525 0.30967 1.00262 0.0
O869 O 0.8932 0.31946 1.00031 0.0
O870 O 0.83455 0.3388 0.04272 0.0
O871 O 0.83615 0.37063 1.02077 0.0
H872 H 0.89513 0.45721 0.07037 0.0
H873 H 0.81749 0.4628 0.07468 0.0
H874 H 0.82112 0.49138 0.11212 0.0
H875 H 0.8988 0.4858 0.10801 0.0
H876 H 0.8414 0.29118 0.95731 0.0
H877 H 0.91726 0.28235 0.97442 0.0
H878 H 0.92088 0.2542 0.93656 0.0
H879 H 0.84489 0.26256 0.91965 0.0
Gd880 Gd 0.8635 0.61527 0.2791 0.0
Gd881 Gd 0.91553 0.62571 0.26633 0.0
C882 C 0.89724 0.63917 0.32632 0.0
C883 C 0.82227 0.60153 0.29838 0.0
C884 C 0.8034 0.60971 0.31727 0.0
C885 C 0.80862 0.62502 0.33918 0.0
C886 C 0.77963 0.60195 0.31316 0.0
C887 C 0.76642 0.62391 0.35328 0.0
C888 C 0.76132 0.60898 0.33094 0.0
C889 C 0.79028 0.63206 0.35705 0.0
C890 C 0.87036 0.65672 0.25117 0.0
C891 C 0.88311 0.59456 0.22312 0.0
C892 C 0.95439 0.6424 0.24347 0.0
C893 C 0.97042 0.63847 0.21991 0.0
C894 C 0.9743 0.61533 0.20898 0.0
C895 C 0.98295 0.65821 0.20892 0.0
C896 C 1.00456 0.63152 0.17786 0.0
C897 C 0.99979 0.65481 0.18809 0.0
C898 C 0.9912 0.61189 0.18821 0.0
C899 C 0.9086 0.58131 0.28925 0.0
O900 O 0.87663 0.62885 0.31952 0.0
O901 O 0.91486 0.64219 0.30849 0.0
O902 O 0.8245 0.61399 0.27613 0.0
O903 O 0.84305 0.59507 0.30876 0.0
O904 O 0.85199 0.64256 0.24832 0.0
O905 O 0.88362 0.64933 0.27036 0.0
O906 O 0.90208 0.60889 0.22662 0.0
O907 O 0.86742 0.59134 0.24287 0.0
O908 O 0.95453 0.62597 0.26244 0.0
O909 O 0.93276 0.65076 0.23856 0.0
O910 O 0.9275 0.59477 0.29318 0.0
O911 O 0.89509 0.59175 0.27248 0.0
H912 H 0.82687 0.6313 0.34261 0.0
H913 H 0.77523 0.59029 0.29623 0.0
H914 H 0.74312 0.60268 0.32716 0.0
H915 H 0.79489 0.64338 0.37418 0.0
H916 H 0.96467 0.59984 0.21688 0.0
H917 H 0.98019 0.67625 0.21699 0.0
H918 H 0.00981 0.67029 0.18081 0.0
H919 H 0.99412 0.59375 0.18055 0.0
Gd920 Gd 0.64815 0.61136 0.52562 0.0
Gd921 Gd 0.64024 0.66489 0.51423 0.0
C922 C 0.63099 0.64648 0.57507 0.0
C923 C 0.65926 0.56853 0.54272 0.0
C924 C 0.65758 0.55289 0.56672 0.0
C925 C 0.63574 0.54973 0.58073 0.0
C926 C 0.67791 0.53953 0.57459 0.0
C927 C 0.65453 0.51948 0.60962 0.0
C928 C 0.67644 0.52304 0.59585 0.0
C929 C 0.63422 0.5331 0.60194 0.0
C930 C 0.60678 0.62166 0.49923 0.0
C931 C 0.6662 0.63011 0.46822 0.0
C932 C 0.62478 0.7046 0.49177 0.0
C933 C 0.62974 0.72198 0.46937 0.0
C934 C 0.63795 0.74538 0.47553 0.0
C935 C 0.62454 0.71639 0.44215 0.0
C936 C 0.63629 0.75709 0.42788 0.0
C937 C 0.62777 0.73374 0.42167 0.0
C938 C 0.64122 0.76262 0.45516 0.0
C939 C 0.68471 0.65445 0.53453 0.0
O940 O 0.64134 0.62607 0.5674 0.0
O941 O 0.62569 0.66382 0.55745 0.0
O942 O 0.63908 0.57367 0.53029 0.0
O943 O 0.6742 0.58684 0.54383 0.0
O944 O 0.61997 0.60272 0.49498 0.0
O945 O 0.61532 0.63408 0.51866 0.0
O946 O 0.65609 0.6513 0.47416 0.0
O947 O 0.66747 0.61245 0.48607 0.0
O948 O 0.63964 0.70427 0.51235 0.0
O949 O 0.61694 0.68301 0.4854 0.0
O950 O 0.67369 0.67502 0.53797 0.0
O951 O 0.6726 0.64185 0.51826 0.0
H952 H 0.61977 0.55986 0.5751 0.0
H953 H 0.69486 0.54153 0.56392 0.0
H954 H 0.69235 0.51267 0.60112 0.0
H955 H 0.6172 0.53098 0.61242 0.0
H956 H 0.64159 0.75051 0.49628 0.0
H957 H 0.61784 0.69866 0.43662 0.0
H958 H 0.62392 0.72874 0.40095 0.0
H959 H 0.64736 0.7805 0.46091 0.0
Gd960 Gd 0.41639 0.39512 0.26566 0.0
Gd961 Gd 0.36005 0.39897 0.27912 0.0
C962 C 0.37906 0.41707 0.2204 0.0
C963 C 0.45787 0.38286 0.2454 0.0
C964 C 0.47174 0.38125 0.21991 0.0
C965 C 0.49688 0.38378 0.22106 0.0
C966 C 0.46067 0.37745 0.1947 0.0
C967 C 0.50002 0.37882 0.17215 0.0
C968 C 0.47469 0.37627 0.17103 0.0
C969 C 0.51085 0.38261 0.19755 0.0
C970 C 0.40156 0.43766 0.28809 0.0
C971 C 0.39795 0.38219 0.32651 0.0
C972 C 0.31908 0.41422 0.29722 0.0
C973 C 0.29993 0.40652 0.31616 0.0
C974 C 0.28752 0.3845 0.31301 0.0
C975 C 0.29377 0.42179 0.33775 0.0
C976 C 0.26287 0.39346 0.35268 0.0
C977 C 0.27558 0.41532 0.35585 0.0
C978 C 0.26916 0.37805 0.33109 0.0
C979 C 0.37141 0.35431 0.25865 0.0
O980 O 0.40106 0.40869 0.22582 0.0
O981 O 0.3612 0.41667 0.23826 0.0
O982 O 0.45297 0.40462 0.25436 0.0
O983 O 0.44015 0.36751 0.24913 0.0
O984 O 0.42282 0.42808 0.29163 0.0
O985 O 0.38996 0.4246 0.27165 0.0
O986 O 0.37589 0.38908 0.31968 0.0
O987 O 0.41618 0.38127 0.30899 0.0
O988 O 0.32134 0.40219 0.27443 0.0
O989 O 0.33984 0.42017 0.30815 0.0
O990 O 0.34985 0.36051 0.2663 0.0
O991 O 0.38507 0.37178 0.26414 0.0
H992 H 0.50579 0.38685 0.24026 0.0
H993 H 0.44126 0.37548 0.1933 0.0
H994 H 0.46571 0.3732 0.1519 0.0
H995 H 0.53015 0.38519 0.19929 0.0
H996 H 0.29188 0.3723 0.29655 0.0
H997 H 0.30311 0.43882 0.34066 0.0
H998 H 0.27165 0.42742 0.37254 0.0
H999 H 0.25967 0.36117 0.32791 0.0
Gd1000 Gd 0.3719 0.66506 1.01448 0.0
Gd1001 Gd 0.36298 0.61228 1.02706 0.0
C1002 C 0.34249 0.63121 0.97062 0.0
C1003 C 0.38737 0.70457 0.99164 0.0
C1004 C 0.38234 0.72246 0.96975 0.0
C1005 C 0.37575 0.7462 0.97677 0.0
C1006 C 0.38597 0.71701 0.94218 0.0
C1007 C 0.37592 0.7586 0.92931 0.0
C1008 C 0.38281 0.73487 0.92222 0.0
C1009 C 0.37256 0.76395 0.95692 0.0
C1010 C 0.32755 0.65621 0.03625 0.0
C1011 C 0.38268 0.64743 0.07531 0.0
C1012 C 0.35049 0.57027 0.04575 0.0
C1013 C 0.35792 0.55196 0.06568 0.0
C1014 C 0.37385 0.55746 0.08686 0.0
C1015 C 0.34879 0.52842 0.06329 0.0
C1016 C 0.37098 0.51595 0.10346 0.0
C1017 C 0.35523 0.5106 0.08195 0.0
C1018 C 0.38034 0.53959 0.1056 0.0
C1019 C 0.40485 0.62092 1.00046 0.0
O1020 O 0.35568 0.65098 0.97463 0.0
O1021 O 0.33986 0.61512 0.99011 0.0
O1022 O 0.373 0.70439 1.01262 0.0
O1023 O 0.39459 0.68286 0.98477 0.0
O1024 O 0.33956 0.67613 0.03978 0.0
O1025 O 0.33886 0.64319 1.0197 0.0
O1026 O 0.37238 0.62686 0.06827 0.0
O1027 O 0.38732 0.66458 0.05728 0.0
O1028 O 0.36466 0.57312 1.02493 0.0
O1029 O 0.34206 0.59077 0.05514 0.0
O1030 O 0.39155 0.60194 0.99722 0.0
O1031 O 0.39642 0.63389 1.01946 0.0
H1032 H 0.37336 0.75121 0.99778 0.0
H1033 H 0.39139 0.69899 0.936 0.0
H1034 H 0.38543 0.73 0.90121 0.0
H1035 H 0.36772 0.78206 0.96333 0.0
H1036 H 0.38113 0.57555 0.08899 0.0
H1037 H 0.33659 0.52381 0.04696 0.0
H1038 H 0.34798 0.49255 0.07941 0.0
H1039 H 0.3923 0.54442 0.12206 0.0
Gd1040 Gd 0.09534 0.62888 0.76411 0.0
Gd1041 Gd 0.14666 0.61546 0.77798 0.0
C1042 C 0.12885 0.59957 0.71973 0.0
C1043 C 0.05756 0.6469 0.7401 0.0
C1044 C 0.04107 0.64166 0.71723 0.0
C1045 C 0.02751 0.66053 0.7058 0.0
C1046 C 0.03834 0.61815 0.70686 0.0
C1047 C 0.0076 0.63231 0.67495 0.0
C1048 C 0.02178 0.61353 0.686 0.0
C1049 C 0.011 0.65595 0.68489 0.0
C1050 C 0.09977 0.58346 0.78489 0.0
C1051 C 0.11344 0.64012 0.82462 0.0
C1052 C 0.187 0.59937 0.79749 0.0
C1053 C 0.2035 0.60194 0.82069 0.0
C1054 C 0.20851 0.62458 0.83242 0.0
C1055 C 0.21566 0.58139 0.8301 0.0
C1056 C 0.23816 0.60598 0.86233 0.0
C1057 C 0.23278 0.58336 0.8507 0.0
C1058 C 0.22577 0.62659 0.85302 0.0
C1059 C 0.14177 0.65792 0.75123 0.0
O1060 O 0.10907 0.61255 0.72431 0.0
O1061 O 0.14485 0.59551 0.73891 0.0
O1062 O 0.0564 0.63263 0.76113 0.0
O1063 O 0.07973 0.65272 0.73391 0.0
O1064 O 0.08152 0.59774 0.7892 0.0
O1065 O 0.11423 0.59369 0.76895 0.0
O1066 O 0.13203 0.62613 0.81881 0.0
O1067 O 0.09779 0.64682 0.8057 0.0
O1068 O 0.18544 0.61776 0.78104 0.0
O1069 O 0.16623 0.58879 0.80176 0.0
O1070 O 0.1595 0.64294 0.748 0.0
O1071 O 0.1281 0.65059 0.77002 0.0
H1072 H 0.02939 0.67884 0.7134 0.0
H1073 H 0.0488 0.60333 0.71512 0.0
H1074 H 0.01997 0.59516 0.67863 0.0
H1075 H 1.00032 0.67082 0.67714 0.0
H1076 H 0.19932 0.64072 0.82548 0.0
H1077 H 0.21221 0.56381 0.82117 0.0
H1078 H 0.24217 0.56717 0.85716 0.0
H1079 H 0.22928 0.64421 0.8618 0.0
Gd1080 Gd 0.14008 0.34996 0.51535 0.0
Gd1081 Gd 0.1463 0.40259 0.52782 0.0
C1082 C 0.16562 0.38526 0.47053 0.0
C1083 C 0.1268 0.30934 0.49299 0.0
C1084 C 0.1301 0.29452 0.46816 0.0
C1085 C 0.15253 0.29275 0.45509 0.0
C1086 C 0.1107 0.28073 0.45829 0.0
C1087 C 0.13657 0.26198 0.42417 0.0
C1088 C 0.11385 0.26469 0.43651 0.0
C1089 C 0.15572 0.27665 0.43339 0.0
C1090 C 0.18379 0.36081 0.53737 0.0
C1091 C 0.12674 0.36706 0.57584 0.0
C1092 C 0.15719 0.44457 0.54772 0.0
C1093 C 0.14877 0.46215 0.5683 0.0
C1094 C 0.12636 0.474 0.56595 0.0
C1095 C 0.16413 0.46842 0.58971 0.0
C1096 C 0.13541 0.49879 0.60548 0.0
C1097 C 0.15751 0.48643 0.60815 0.0
C1098 C 0.11975 0.49211 0.58437 0.0
C1099 C 0.10521 0.3927 0.50059 0.0
O1100 O 0.15449 0.36445 0.47518 0.0
O1101 O 0.16787 0.40175 0.4897 0.0
O1102 O 0.14521 0.31138 0.50937 0.0
O1103 O 0.11465 0.3295 0.4907 0.0
O1104 O 0.17169 0.34127 0.54263 0.0
O1105 O 0.17241 0.37317 0.52021 0.0
O1106 O 0.13421 0.38876 0.5686 0.0
O1107 O 0.12563 0.3489 0.55831 0.0
O1108 O 0.14367 0.44156 0.52632 0.0
O1109 O 0.16677 0.42435 0.55639 0.0
O1110 O 0.11781 0.4122 0.49785 0.0
O1111 O 0.11377 0.37986 0.51963 0.0
H1112 H 0.16775 0.30335 0.46207 0.0
H1113 H 0.09321 0.2818 0.46801 0.0
H1114 H 0.09875 0.25362 0.43017 0.0
H1115 H 0.17338 0.27535 0.42413 0.0
H1116 H 0.1141 0.46967 0.5496 0.0
H1117 H 0.18151 0.45963 0.59196 0.0
H1118 H 0.1698 0.49074 0.62449 0.0
H1119 H 0.10268 0.50134 0.58161 0.0
Gd1120 Gd 0.41572 0.62629 0.29624 0.0
Gd1121 Gd 0.36349 0.61794 0.28511 0.0
C1122 C 0.38218 0.59928 0.34189 0.0
C1123 C 0.45567 0.64137 0.3183 0.0
C1124 C 0.47076 0.63742 0.34261 0.0
C1125 C 0.48563 0.65619 0.35206 0.0
C1126 C 0.47117 0.61509 0.35605 0.0
C1127 C 0.50259 0.62983 0.38673 0.0
C1128 C 0.48694 0.61132 0.37783 0.0
C1129 C 0.50134 0.65248 0.37391 0.0
C1130 C 0.40666 0.58188 0.27462 0.0
C1131 C 0.39725 0.63879 0.2362 0.0
C1132 C 0.32122 0.60627 0.26705 0.0
C1133 C 0.30528 0.61217 0.24423 0.0
C1134 C 0.28027 0.61291 0.24841 0.0
C1135 C 0.31456 0.61706 0.21845 0.0
C1136 C 0.27376 0.62192 0.20089 0.0
C1137 C 0.29893 0.62188 0.19695 0.0
C1138 C 0.26461 0.61777 0.22695 0.0
C1139 C 0.37245 0.65909 0.31284 0.0
O1140 O 0.40272 0.61061 0.3365 0.0
O1141 O 0.36512 0.59705 0.3235 0.0
O1142 O 0.45464 0.62382 0.30056 0.0
O1143 O 0.43477 0.6518 0.32206 0.0
O1144 O 0.42555 0.59489 0.26913 0.0
O1145 O 0.3939 0.59285 0.29183 0.0
O1146 O 0.37648 0.62933 0.24382 0.0
O1147 O 0.41523 0.6417 0.25362 0.0
O1148 O 0.32482 0.62367 0.28447 0.0
O1149 O 0.34081 0.59387 0.26165 0.0
O1150 O 0.35408 0.64514 0.31675 0.0
O1151 O 0.38489 0.65145 0.29299 0.0
H1152 H 0.48553 0.67361 0.34207 0.0
H1153 H 0.45966 0.60041 0.34937 0.0
H1154 H 0.48715 0.59375 0.38746 0.0
H1155 H 0.51321 0.66706 0.38001 0.0
H1156 H 0.27281 0.60931 0.26823 0.0
H1157 H 0.33383 0.61682 0.21484 0.0
H1158 H 0.30652 0.62528 0.17715 0.0
H1159 H 0.24534 0.61741 0.23056 0.0
Gd1160 Gd 0.14106 0.66863 0.04315 0.0
Gd1161 Gd 0.14955 0.61477 0.03711 0.0
C1162 C 0.17021 0.63849 0.09025 0.0
C1163 C 0.128 0.71075 0.06214 0.0
C1164 C 0.12597 0.72497 0.0878 0.0
C1165 C 0.14595 0.72948 0.10472 0.0
C1166 C 0.10384 0.73593 0.09438 0.0
C1167 C 0.12194 0.75697 0.13303 0.0
C1168 C 0.10183 0.75161 0.11662 0.0
C1169 C 0.14394 0.74522 0.12708 0.0
C1170 C 0.18404 0.65677 1.01982 0.0
C1171 C 0.12726 0.64486 0.98568 0.0
C1172 C 0.16093 0.57124 1.0222 0.0
C1173 C 0.15742 0.55489 0.99895 0.0
C1174 C 0.15581 0.5299 1.0034 0.0
C1175 C 0.15605 0.56374 0.97242 0.0
C1176 C 0.15252 0.52256 0.95499 0.0
C1177 C 0.15367 0.54771 0.95064 0.0
C1178 C 0.15333 0.51387 0.98165 0.0
C1179 C 0.11072 0.62627 0.06738 0.0
O1180 O 0.15601 0.65726 0.08468 0.0
O1181 O 0.1731 0.62073 0.07271 0.0
O1182 O 0.14955 0.70607 0.05271 0.0
O1183 O 0.11302 0.69277 0.05848 0.0
O1184 O 0.17109 0.67539 1.01278 0.0
O1185 O 0.17365 0.64616 0.03896 0.0
O1186 O 0.13705 0.62498 0.99556 0.0
O1187 O 0.1251 0.6648 1.00062 0.0
O1188 O 0.14173 0.5763 0.03649 0.0
O1189 O 0.1749 0.59003 1.01845 0.0
O1190 O 0.12507 0.60824 0.07208 0.0
O1191 O 0.11675 0.63694 0.04569 0.0
H1192 H 0.16331 0.72135 0.10031 0.0
H1193 H 0.08812 0.73285 0.08182 0.0
H1194 H 0.08446 0.75984 0.12071 0.0
H1195 H 0.15988 0.7489 0.13905 0.0
H1196 H 0.1568 0.52273 1.02373 0.0
H1197 H 0.15705 0.58299 0.96851 0.0
H1198 H 0.15276 0.55501 0.93037 0.0
H1199 H 0.15271 0.49463 0.98567 0.0
Gd1200 Gd 0.09641 0.39375 0.79737 0.0
Gd1201 Gd 0.14924 0.40267 0.78316 0.0
C1202 C 0.13111 0.42201 0.84075 0.0
C1203 C 0.0578 0.37657 0.82046 0.0
C1204 C 0.04201 0.37933 0.84444 0.0
C1205 C 0.02737 0.35988 0.8524 0.0
C1206 C 0.04061 0.40115 0.85892 0.0
C1207 C 0.00871 0.38451 0.88772 0.0
C1208 C 0.02415 0.40371 0.88031 0.0
C1209 C 0.01094 0.36239 0.8738 0.0
C1210 C 0.10492 0.43863 0.77646 0.0
C1211 C 0.11331 0.38184 0.73606 0.0
C1212 C 0.19009 0.4157 0.76253 0.0
C1213 C 0.20798 0.40741 0.74236 0.0
C1214 C 0.21981 0.38497 0.74471 0.0
C1215 C 0.21417 0.42281 0.721 0.0
C1216 C 0.24439 0.39399 0.70515 0.0
C1217 C 0.23208 0.41616 0.70255 0.0
C1218 C 0.23784 0.37834 0.72628 0.0
C1219 C 0.14116 0.36079 0.80973 0.0
O1220 O 0.11166 0.40835 0.8372 0.0
O1221 O 0.14652 0.42556 0.82068 0.0
O1222 O 0.05746 0.39386 0.80245 0.0
O1223 O 0.07948 0.368 0.82455 0.0
O1224 O 0.08442 0.42733 0.77457 0.0
O1225 O 0.11856 0.42656 0.79161 0.0
O1226 O 0.1348 0.39025 0.74275 0.0
O1227 O 0.09562 0.37976 0.75403 0.0
O1228 O 0.18821 0.4032 0.78485 0.0
O1229 O 0.16922 0.42317 0.75327 0.0
O1230 O 0.16048 0.37376 0.81209 0.0
O1231 O 0.1277 0.36946 0.79135 0.0
H1232 H 0.02821 0.34284 0.84156 0.0
H1233 H 0.0519 0.41634 0.85338 0.0
H1234 H 0.02324 0.4209 0.89081 0.0
H1235 H 0.99929 0.34731 0.87869 0.0
H1236 H 0.21544 0.37268 0.76099 0.0
H1237 H 0.20531 0.44018 0.71875 0.0
H1238 H 0.23627 0.42845 0.68621 0.0
H1239 H 0.24704 0.36121 0.72899 0.0
Gd1240 Gd 0.37086 0.3503 0.54683 0.0
Gd1241 Gd 0.36593 0.40352 0.53467 0.0
C1242 C 0.34554 0.3861 0.59151 0.0
C1243 C 0.38381 0.30957 0.56897 0.0
C1244 C 0.38074 0.29504 0.59391 0.0
C1245 C 0.35885 0.29466 0.60819 0.0
C1246 C 0.3998 0.28026 0.6028 0.0
C1247 C 0.37452 0.26331 0.63844 0.0
C1248 C 0.39677 0.26462 0.62484 0.0
C1249 C 0.35578 0.27896 0.63017 0.0
C1250 C 0.32768 0.36266 0.52429 0.0
C1251 C 0.38487 0.36741 0.48657 0.0
C1252 C 0.35586 0.44571 0.51503 0.0
C1253 C 0.36419 0.46285 0.49407 0.0
C1254 C 0.38631 0.47517 0.49644 0.0
C1255 C 0.34895 0.46832 0.47227 0.0
C1256 C 0.3772 0.49884 0.45623 0.0
C1257 C 0.35541 0.486 0.45351 0.0
C1258 C 0.39276 0.49295 0.47768 0.0
C1259 C 0.40634 0.39232 0.56238 0.0
O1260 O 0.35624 0.36501 0.58682 0.0
O1261 O 0.34404 0.40285 0.57262 0.0
O1262 O 0.36512 0.31187 0.55302 0.0
O1263 O 0.39632 0.32951 0.57096 0.0
O1264 O 0.33869 0.34221 0.52012 0.0
O1265 O 0.33942 0.37459 0.54153 0.0
O1266 O 0.37826 0.38939 0.49404 0.0
O1267 O 0.38514 0.34906 0.50382 0.0
O1268 O 0.3699 0.44238 0.53594 0.0
O1269 O 0.34537 0.42578 0.50679 0.0
O1270 O 0.39427 0.41223 0.56513 0.0
O1271 O 0.39764 0.37978 0.54312 0.0
H1272 H 0.34394 0.30605 0.60197 0.0
H1273 H 0.41688 0.28028 0.59215 0.0
H1274 H 0.41152 0.25276 0.63042 0.0
H1275 H 0.3385 0.27873 0.64039 0.0
H1276 H 0.39845 0.47149 0.51309 0.0
H1277 H 0.33177 0.45919 0.46998 0.0
H1278 H 0.34322 0.48973 0.43693 0.0
H1279 H 0.40959 0.50258 0.48047 0.0
H1280 H 0.28292 0.14504 0.19733 0.0
H1281 H 0.23726 0.09768 0.15033 0.0
H1282 H 0.26548 0.09965 0.11269 0.0
H1283 H 0.30308 0.11398 0.0934 0.0
H1284 H 0.34895 0.16237 0.1387 0.0
H1285 H 0.32079 0.16059 0.17698 0.0
C1286 C 0.27923 0.13513 0.17885 0.0
C1287 C 0.25797 0.12126 0.17664 0.0
C1288 C 0.29562 0.13634 0.15715 0.0
C1289 C 0.25328 0.10874 0.15246 0.0
C1290 C 0.26951 0.1097 0.13098 0.0
C1291 C 0.30714 0.12404 0.11169 0.0
C1292 C 0.3283 0.13802 0.11334 0.0
C1293 C 0.29075 0.12329 0.13319 0.0
C1294 C 0.33288 0.15132 0.13701 0.0
C1295 C 0.31677 0.15033 0.15885 0.0
H1296 H 0.15994 0.05671 0.347 0.0
H1297 H 0.10601 0.09984 0.38776 0.0
H1298 H 0.10662 0.07171 0.42597 0.0
H1299 H 0.12192 0.03425 0.44716 0.0
H1300 H 0.1747 0.99085 0.40492 0.0
H1301 H 0.17466 0.01953 0.36754 0.0
C1302 C 0.14845 0.06019 0.36432 0.0
C1303 C 0.13312 0.08052 0.36464 0.0
C1304 C 0.14844 0.04369 0.38575 0.0
C1305 C 0.1181 0.08442 0.3871 0.0
C1306 C 0.11837 0.06829 0.40888 0.0
C1307 C 0.13349 0.03117 0.42981 0.0
C1308 C 0.14829 0.01043 0.42882 0.0
C1309 C 0.13337 0.04777 0.40833 0.0
C1310 C 0.16292 1.00648 0.40605 0.0
C1311 C 0.16306 0.02298 0.38476 0.0
H1312 H 0.22926 0.91955 0.6889 0.0
H1313 H 0.25692 0.84668 0.68388 0.0
H1314 H 0.2273 0.83706 0.64875 0.0
H1315 H 0.19466 0.85015 0.61776 0.0
H1316 H 0.16856 0.92358 0.62229 0.0
H1317 H 0.19586 0.93196 0.65988 0.0
C1318 C 0.22858 0.90142 0.68051 0.0
C1319 C 0.24531 0.88388 0.6891 0.0
C1320 C 0.21159 0.89606 0.66032 0.0
C1321 C 0.24444 0.86063 0.67746 0.0
C1322 C 0.2274 0.85507 0.65749 0.0
C1323 C 0.19462 0.86777 0.62745 0.0
C1324 C 0.17951 0.88618 0.6175 0.0
C1325 C 0.21099 0.87271 0.64856 0.0
C1326 C 0.17999 0.90913 0.62973 0.0
C1327 C 0.19568 0.91397 0.65111 0.0
H1328 H 0.35489 0.96312 0.84494 0.0
H1329 H 0.4084 0.9197 0.8857 0.0
H1330 H 0.40853 0.94842 0.92361 0.0
H1331 H 0.39344 0.98621 0.94493 0.0
H1332 H 0.34084 0.02959 0.90254 0.0
H1333 H 0.34079 1.00074 0.86525 0.0
C1334 C 0.36647 0.95971 0.86218 0.0
C1335 C 0.38139 0.93905 0.86259 0.0
C1336 C 0.36683 0.9765 0.88349 0.0
C1337 C 0.3966 0.93533 0.88493 0.0
C1338 C 0.39672 0.9518 0.90657 0.0
C1339 C 0.38191 0.98929 0.92756 0.0
C1340 C 0.36717 0.01013 0.92661 0.0
C1341 C 0.38192 0.9725 0.90605 0.0
C1342 C 0.3526 0.01396 0.90374 0.0
C1343 C 0.35239 0.99734 0.88247 0.0
H1344 H 0.31832 0.8489 0.4401 0.0
H1345 H 0.33483 0.92513 0.43939 0.0
H1346 H 0.30845 0.93095 0.40047 0.0
H1347 H 0.27878 0.91513 0.36845 0.0
H1348 H 0.26048 0.83933 0.36955 0.0
H1349 H 0.28906 0.83267 0.40658 0.0
C1350 C 0.31643 0.86666 0.43106 0.0
C1351 C 0.32865 0.88655 0.4425 0.0
C1352 C 0.30059 0.87005 0.409 0.0
C1353 C 0.32565 0.90955 0.43094 0.0
C1354 C 0.31051 0.91292 0.40872 0.0
C1355 C 0.28127 0.89705 0.37646 0.0
C1356 C 0.26748 0.87777 0.36608 0.0
C1357 C 0.29759 0.8934 0.39785 0.0
C1358 C 0.27065 0.85457 0.37725 0.0
C1359 C 0.28711 0.85072 0.39836 0.0
H1360 H 0.34427 0.03726 0.61892 0.0
H1361 H 0.41596 0.00739 0.62593 0.0
H1362 H 0.4255 0.03672 0.6615 0.0
H1363 H 0.41254 0.06957 0.69245 0.0
H1364 H 0.34017 0.09772 0.68614 0.0
H1365 H 0.33209 0.07097 0.64784 0.0
C1366 C 0.36215 0.03741 0.62784 0.0
C1367 C 0.37935 0.02012 0.6197 0.0
C1368 C 0.36745 0.05422 0.64828 0.0
C1369 C 0.40226 0.0203 0.632 0.0
C1370 C 0.40779 0.03718 0.65222 0.0
C1371 C 0.39525 0.0702 0.68218 0.0
C1372 C 0.37703 0.08572 0.69179 0.0
C1373 C 0.39044 0.0541 0.66073 0.0
C1374 C 0.35447 0.08599 0.67888 0.0
C1375 C 0.3498 0.07062 0.65712 0.0
H1376 H 0.19963 0.09705 0.95949 0.0
H1377 H 0.17274 0.16485 0.92834 0.0
H1378 H 0.20107 0.16221 0.89055 0.0
H1379 H 0.23474 0.14141 0.86744 0.0
H1380 H 0.26193 0.07422 0.89974 0.0
H1381 H 0.23218 0.07593 0.93605 0.0
C1382 C 0.19974 0.1112 0.94435 0.0
C1383 C 0.18407 0.13116 0.94686 0.0
C1384 C 0.2163 0.10978 0.92298 0.0
C1385 C 0.18454 0.14926 0.92694 0.0
C1386 C 0.20084 0.14783 0.90539 0.0
C1387 C 0.23422 0.12723 0.88253 0.0
C1388 C 0.25058 0.10774 0.88092 0.0
C1389 C 0.21706 0.12835 0.90344 0.0
C1390 C 0.24942 0.0893 0.90037 0.0
C1391 C 0.23247 0.0903 0.92119 0.0
H1392 H 0.10043 0.94946 0.19627 0.0
H1393 H 0.17263 0.92072 0.18963 0.0
H1394 H 0.18179 0.94979 0.15397 0.0
H1395 H 0.17004 0.9847 0.12641 0.0
H1396 H 0.09867 0.01515 0.13501 0.0
H1397 H 0.08837 0.98393 0.16787 0.0
C1398 C 0.11801 0.94926 0.18665 0.0
C1399 C 0.13578 0.93284 0.19547 0.0
C1400 C 0.12338 0.96649 0.16666 0.0
C1401 C 0.15863 0.93314 0.18317 0.0
C1402 C 0.16391 0.94982 0.16285 0.0
C1403 C 0.15227 0.98465 0.13558 0.0
C1404 C 0.13523 1.0024 0.12826 0.0
C1405 C 0.14658 0.96687 0.1548 0.0
C1406 C 0.11211 1.00164 0.14 0.0
C1407 C 0.10623 0.98384 0.15892 0.0
H1408 H 0.72868 0.87258 0.86446 0.0
H1409 H 0.77047 0.9257 0.90811 0.0
H1410 H 0.74158 0.92469 0.94522 0.0
H1411 H 0.70475 0.90898 0.96521 0.0
H1412 H 0.66309 0.85472 0.92321 0.0
H1413 H 0.69148 0.85617 0.88522 0.0
C1414 C 0.73136 0.88396 0.88209 0.0
C1415 C 0.75172 0.89915 0.88359 0.0
C1416 C 0.71465 0.88324 0.90347 0.0
C1417 C 0.75515 0.91362 0.90664 0.0
C1418 C 0.73854 0.91319 0.92777 0.0
C1419 C 0.70164 0.89762 0.94764 0.0
C1420 C 0.68165 0.88198 0.94688 0.0
C1421 C 0.71824 0.89815 0.92635 0.0
C1422 C 0.67825 0.86704 0.92419 0.0
C1423 C 0.69452 0.86782 0.90253 0.0
H1424 H 0.88997 0.98445 0.61537 0.0
H1425 H 0.83076 0.02212 0.65356 0.0
H1426 H 0.83089 0.99289 0.69038 0.0
H1427 H 0.84791 0.95722 0.71196 0.0
H1428 H 0.90793 0.91967 0.6752 0.0
H1429 H 0.90703 0.94802 0.63721 0.0
C1430 C 0.87701 0.98614 0.63169 0.0
C1431 C 0.86043 1.00552 0.63176 0.0
C1432 C 0.87719 0.96922 0.65289 0.0
C1433 C 0.84394 0.00763 0.6532 0.0
C1434 C 0.84387 0.99081 0.67416 0.0
C1435 C 0.86069 0.95497 0.69555 0.0
C1436 C 0.87788 0.9362 0.69639 0.0
C1437 C 0.86042 0.97159 0.67422 0.0
C1438 C 0.89443 0.93387 0.67502 0.0
C1439 C 0.89399 0.95014 0.65336 0.0
H1440 H 0.78051 0.14505 0.36578 0.0
H1441 H 0.74169 0.08858 0.40732 0.0
H1442 H 0.77071 0.08993 0.44422 0.0
H1443 H 0.80692 0.10652 0.46448 0.0
H1444 H 0.84609 0.1637 0.42466 0.0
H1445 H 0.81729 0.16237 0.38695 0.0
C1446 C 0.7785 0.13299 0.38287 0.0
C1447 C 0.75885 0.11678 0.38379 0.0
C1448 C 0.79539 0.1338 0.40413 0.0
C1449 C 0.75636 0.10147 0.40624 0.0
C1450 C 0.77308 0.10207 0.42726 0.0
C1451 C 0.80944 0.1186 0.44748 0.0
C1452 C 0.82888 0.13499 0.44726 0.0
C1453 C 0.79267 0.11806 0.42635 0.0
C1454 C 0.83142 0.15078 0.42524 0.0
C1455 C 0.81491 0.15006 0.40374 0.0
H1456 H 0.61587 0.03093 0.11762 0.0
H1457 H 0.67052 0.98861 0.15802 0.0
H1458 H 0.67032 0.01688 0.1959 0.0
H1459 H 0.65517 0.05351 0.21731 0.0
H1460 H 0.59973 0.09589 0.17842 0.0
H1461 H 0.59994 0.06784 0.13991 0.0
C1462 C 0.62776 0.02798 0.13471 0.0
C1463 C 0.64315 0.00765 0.13502 0.0
C1464 C 0.62757 0.04438 0.15652 0.0
C1465 C 0.65826 1.00389 0.15743 0.0
C1466 C 0.65831 0.02016 0.17901 0.0
C1467 C 0.64325 0.05684 0.20034 0.0
C1468 C 0.62767 0.07698 0.2006 0.0
C1469 C 0.64314 0.04048 0.17869 0.0
C1470 C 0.61202 0.08064 0.17863 0.0
C1471 C 0.6121 0.06457 0.15667 0.0
H1472 H 0.74141 0.14204 0.69872 0.0
H1473 H 0.7546 0.06665 0.68106 0.0
H1474 H 0.7249 0.06783 0.64482 0.0
H1475 H 0.69631 0.09027 0.61702 0.0
H1476 H 0.68262 0.16576 0.63355 0.0
H1477 H 0.71109 0.16445 0.67142 0.0
C1478 C 0.73776 0.12591 0.6869 0.0
C1479 C 0.75022 0.10426 0.69274 0.0
C1480 C 0.7205 0.12668 0.66591 0.0
C1481 C 0.7451 0.08346 0.67733 0.0
C1482 C 0.72817 0.08413 0.65648 0.0
C1483 C 0.69936 0.10647 0.62896 0.0
C1484 C 0.68735 0.12811 0.62227 0.0
C1485 C 0.71586 0.10563 0.6505 0.0
C1486 C 0.69152 0.14881 0.6382 0.0
C1487 C 0.70793 0.14811 0.6598 0.0
H1488 H 0.62446 0.97813 0.4512 0.0
H1489 H 0.67907 0.01983 0.41014 0.0
H1490 H 0.67693 0.99258 0.37143 0.0
H1491 H 0.66013 0.95709 0.34949 0.0
H1492 H 0.6048 0.91522 0.38905 0.0
H1493 H 0.60701 0.94217 0.42847 0.0
C1494 C 0.63598 0.98114 0.43383 0.0
C1495 C 0.6519 1.00104 0.43358 0.0
C1496 C 0.6347 0.9653 0.41155 0.0
C1497 C 0.66645 1.00489 0.41075 0.0
C1498 C 0.66538 0.9892 0.38868 0.0
C1499 C 0.64861 0.95361 0.36676 0.0
C1500 C 0.63246 0.93396 0.36639 0.0
C1501 C 0.64967 0.96935 0.38893 0.0
C1502 C 0.61749 0.9301 0.38887 0.0
C1503 C 0.61871 0.94556 0.41135 0.0
H1504 H 0.81621 0.85027 0.11937 0.0
H1505 H 0.83851 0.92497 0.11988 0.0
H1506 H 0.81126 0.93351 0.15748 0.0
H1507 H 0.77878 0.92071 0.18746 0.0
H1508 H 0.75474 0.84652 0.18633 0.0
H1509 H 0.78461 0.83687 0.15146 0.0
C1510 C 0.81544 0.86824 0.1282 0.0
C1511 C 0.82943 0.88695 0.11711 0.0
C1512 C 0.79907 0.87321 0.14929 0.0
C1513 C 0.82793 0.9103 0.12822 0.0
C1514 C 0.81228 0.91522 0.1496 0.0
C1515 C 0.78032 0.90231 0.17996 0.0
C1516 C 0.76453 0.88438 0.18955 0.0
C1517 C 0.79739 0.89696 0.15988 0.0
C1518 C 0.76648 0.86075 0.17911 0.0
C1519 C 0.78366 0.85519 0.15928 0.0
H1520 H 0.86723 0.04883 0.83882 0.0
H1521 H 0.91897 0.09097 0.88399 0.0
H1522 H 0.91554 0.06279 0.92195 0.0
H1523 H 0.89678 0.0268 0.94274 0.0
H1524 H 0.84517 0.98505 0.89688 0.0
H1525 H 0.84994 0.01231 0.85858 0.0
C1526 C 0.87772 0.05199 0.85699 0.0
C1527 C 0.89306 0.07225 0.85871 0.0
C1528 C 0.87576 0.03569 0.87857 0.0
C1529 C 0.90692 0.07564 0.88219 0.0
C1530 C 0.90493 0.05954 0.90391 0.0
C1531 C 0.88652 0.02372 0.92439 0.0
C1532 C 0.87055 1.00391 0.92279 0.0
C1533 C 0.88922 0.03962 0.90242 0.0
C1534 C 0.85775 0.99995 0.89865 0.0
C1535 C 0.86032 0.01566 0.87678 0.0
H1536 H 0.7801 0.64025 0.69795 0.0
H1537 H 0.73548 0.59158 0.65136 0.0
H1538 H 0.76392 0.5935 0.61393 0.0
H1539 H 0.80139 0.60822 0.59466 0.0
H1540 H 0.84626 0.65782 0.63961 0.0
H1541 H 0.81793 0.656 0.67771 0.0
C1542 C 0.77669 0.63002 0.67962 0.0
C1543 C 0.75562 0.61583 0.67748 0.0
C1544 C 0.79323 0.63117 0.65804 0.0
C1545 C 0.75132 0.60291 0.65346 0.0
C1546 C 0.76768 0.60383 0.6321 0.0
C1547 C 0.80521 0.61853 0.61284 0.0
C1548 C 0.82614 0.6329 0.61441 0.0
C1549 C 0.78871 0.61776 0.63425 0.0
C1550 C 0.83039 0.64647 0.63796 0.0
C1551 C 0.81417 0.64547 0.6597 0.0
H1552 H 0.65325 0.55059 0.84528 0.0
H1553 H 0.60239 0.59599 0.88779 0.0
H1554 H 0.60297 0.56789 0.92612 0.0
H1555 H 0.61791 0.53006 0.94722 0.0
H1556 H 0.66768 0.48466 0.90302 0.0
H1557 H 0.66717 0.51301 0.8654 0.0
C1558 C 0.64245 0.55459 0.86302 0.0
C1559 C 0.62808 0.5756 0.86384 0.0
C1560 C 0.64246 0.53816 0.88452 0.0
C1561 C 0.61377 0.58007 0.88675 0.0
C1562 C 0.61406 0.56397 0.90861 0.0
C1563 C 0.62869 0.52646 0.92937 0.0
C1564 C 0.6428 0.50523 0.92795 0.0
C1565 C 0.62832 0.54291 0.90769 0.0
C1566 C 0.65643 0.50066 0.90454 0.0
C1567 C 0.65631 0.51696 0.88309 0.0
H1568 H 0.70295 0.40678 0.09578 0.0
H1569 H 0.66763 0.3464 0.13419 0.0
H1570 H 0.69657 0.34867 0.17176 0.0
H1571 H 0.73191 0.36835 0.19364 0.0
H1572 H 0.76694 0.42787 0.15323 0.0
H1573 H 0.73803 0.42525 0.1163 0.0
C1574 C 0.7013 0.39416 0.11242 0.0
C1575 C 0.68291 0.37661 0.1123 0.0
C1576 C 0.71806 0.39536 0.13351 0.0
C1577 C 0.68151 0.36019 0.13387 0.0
C1578 C 0.69808 0.36146 0.15529 0.0
C1579 C 0.73328 0.38058 0.17662 0.0
C1580 C 0.75142 0.39846 0.17634 0.0
C1581 C 0.71649 0.37898 0.1553 0.0
C1582 C 0.75292 0.41426 0.1542 0.0
C1583 C 0.73644 0.41273 0.13303 0.0
H1584 H 0.84022 0.4852 0.43643 0.0
H1585 H 0.91492 0.50708 0.43666 0.0
H1586 H 0.92413 0.47648 0.4023 0.0
H1587 H 0.91036 0.4448 0.37036 0.0
H1588 H 0.83523 0.42453 0.36946 0.0
H1589 H 0.82694 0.45263 0.40647 0.0
C1590 C 0.85862 0.48305 0.42934 0.0
C1591 C 0.87683 0.49845 0.43917 0.0
C1592 C 0.86374 0.46554 0.40953 0.0
C1593 C 0.90047 0.49567 0.42924 0.0
C1594 C 0.90579 0.47807 0.40971 0.0
C1595 C 0.89231 0.4462 0.37872 0.0
C1596 C 0.87344 0.43252 0.36737 0.0
C1597 C 0.88751 0.46303 0.39949 0.0
C1598 C 0.85004 0.43485 0.37795 0.0
C1599 C 0.84526 0.45099 0.39901 0.0
H1600 H 0.78036 0.42039 0.87509 0.0
H1601 H 0.75648 0.3461 0.87519 0.0
H1602 H 0.78738 0.33598 0.90858 0.0
H1603 H 0.81875 0.34913 0.94097 0.0
H1604 H 0.83998 0.42414 0.94301 0.0
H1605 H 0.81265 0.43308 0.90561 0.0
C1606 C 0.7818 0.40199 0.88248 0.0
C1607 C 0.76589 0.38413 0.87281 0.0
C1608 C 0.79922 0.39641 0.90209 0.0
C1609 C 0.76852 0.36023 0.88214 0.0
C1610 C 0.78612 0.35443 0.90136 0.0
C1611 C 0.81776 0.36727 0.93273 0.0
C1612 C 0.8314 0.38595 0.94454 0.0
C1613 C 0.80131 0.37247 0.91184 0.0
C1614 C 0.82965 0.4095 0.93414 0.0
C1615 C 0.81395 0.41464 0.91287 0.0
H1616 H 0.85282 0.55674 0.21663 0.0
H1617 H 0.91044 0.59502 0.1766 0.0
H1618 H 0.90877 0.56603 0.139 0.0
H1619 H 0.89081 0.52955 0.11776 0.0
H1620 H 0.83409 0.49138 0.15949 0.0
H1621 H 0.83566 0.52067 0.19632 0.0
C1622 C 0.86496 0.55899 0.19964 0.0
C1623 C 0.88161 0.57821 0.19937 0.0
C1624 C 0.86413 0.54217 0.17847 0.0
C1625 C 0.89734 0.5805 0.17726 0.0
C1626 C 0.89645 0.56387 0.15582 0.0
C1627 C 0.87895 0.52757 0.13503 0.0
C1628 C 0.86223 0.50837 0.13577 0.0
C1629 C 0.87996 0.54455 0.15627 0.0
C1630 C 0.84684 0.50617 0.15819 0.0
C1631 C 0.84777 0.52287 0.17931 0.0
H1632 H 0.73183 0.59411 0.37314 0.0
H1633 H 0.7577 0.66757 0.37815 0.0
H1634 H 0.72699 0.67691 0.41218 0.0
H1635 H 0.69423 0.66335 0.44259 0.0
H1636 H 0.67004 0.58932 0.43837 0.0
H1637 H 0.69806 0.58126 0.40134 0.0
C1638 C 0.73052 0.6123 0.38128 0.0
C1639 C 0.74709 0.63009 0.37306 0.0
C1640 C 0.71294 0.61748 0.40088 0.0
C1641 C 0.74537 0.65343 0.38432 0.0
C1642 C 0.72771 0.65883 0.40367 0.0
C1643 C 0.69474 0.64566 0.43305 0.0
C1644 C 0.67999 0.62698 0.44296 0.0
C1645 C 0.71155 0.64092 0.41235 0.0
C1646 C 0.68118 0.60397 0.43094 0.0
C1647 C 0.69728 0.59932 0.4099 0.0
H1648 H 0.6652 0.45043 0.70984 0.0
H1649 H 0.59703 0.4235 0.68016 0.0
H1650 H 0.59862 0.45239 0.64269 0.0
H1651 H 0.61919 0.48604 0.61904 0.0
H1652 H 0.68675 0.51297 0.65041 0.0
H1653 H 0.68546 0.48331 0.68672 0.0
C1654 C 0.65067 0.45068 0.69516 0.0
C1655 C 0.63102 0.43476 0.69785 0.0
C1656 C 0.65153 0.46748 0.67406 0.0
C1657 C 0.61243 0.43546 0.67853 0.0
C1658 C 0.61327 0.45207 0.65718 0.0
C1659 C 0.63352 0.48549 0.63396 0.0
C1660 C 0.65309 0.50166 0.63197 0.0
C1661 C 0.63265 0.46834 0.65491 0.0
C1662 C 0.67166 0.50056 0.65127 0.0
C1663 C 0.6709 0.48365 0.67208 0.0
H1664 H 0.19128 0.35223 0.44123 0.0
H1665 H 0.1707 0.42746 0.44391 0.0
H1666 H 0.19759 0.43624 0.40613 0.0
H1667 H 0.22909 0.4233 0.37478 0.0
H1668 H 0.25251 0.3488 0.37412 0.0
H1669 H 0.22216 0.33888 0.40818 0.0
C1670 C 0.19236 0.3704 0.43309 0.0
C1671 C 0.17898 0.38918 0.44516 0.0
C1672 C 0.20855 0.37549 0.4119 0.0
C1673 C 0.18084 0.41275 0.43486 0.0
C1674 C 0.19627 0.41779 0.41335 0.0
C1675 C 0.22769 0.40489 0.38214 0.0
C1676 C 0.2433 0.38691 0.37202 0.0
C1677 C 0.21064 0.39944 0.40217 0.0
C1678 C 0.24069 0.36302 0.38136 0.0
C1679 C 0.22341 0.35734 0.40099 0.0
H1680 H 0.41154 0.44433 0.19258 0.0
H1681 H 0.33696 0.42205 0.19286 0.0
H1682 H 0.32814 0.44999 0.15599 0.0
H1683 H 0.3408 0.48293 0.1262 0.0
H1684 H 0.415 0.50649 0.12665 0.0
H1685 H 0.42467 0.47623 0.16099 0.0
C1686 C 0.39349 0.44522 0.18414 0.0
C1687 C 0.37495 0.43101 0.19531 0.0
C1688 C 0.38837 0.46193 0.16345 0.0
C1689 C 0.35154 0.43275 0.18456 0.0
C1690 C 0.34646 0.44882 0.16357 0.0
C1691 C 0.35919 0.48123 0.13347 0.0
C1692 C 0.37711 0.49704 0.12381 0.0
C1693 C 0.3646 0.46385 0.15325 0.0
C1694 C 0.40075 0.49481 0.13393 0.0
C1695 C 0.40634 0.47738 0.15345 0.0
H1696 H 0.27375 0.63997 0.86866 0.0
H1697 H 0.24366 0.57596 0.90535 0.0
H1698 H 0.27424 0.57741 0.94065 0.0
H1699 H 0.30887 0.59676 0.96142 0.0
H1700 H 0.33888 0.6617 0.92674 0.0
H1701 H 0.30905 0.65984 0.89017 0.0
C1702 C 0.2738 0.62647 0.88451 0.0
C1703 C 0.25648 0.60778 0.88423 0.0
C1704 C 0.29149 0.62745 0.90496 0.0
C1705 C 0.25696 0.5903 0.9048 0.0
C1706 C 0.2744 0.59115 0.92507 0.0
C1707 C 0.30914 0.6105 0.94582 0.0
C1708 C 0.32623 0.62931 0.94685 0.0
C1709 C 0.29176 0.60957 0.92529 0.0
C1710 C 0.32605 0.64693 0.92641 0.0
C1711 C 0.3089 0.64594 0.90557 0.0
H1712 H 0.09538 0.57309 0.69246 0.0
H1713 H 0.16993 0.59518 0.6911 0.0
H1714 H 0.17813 0.56708 0.65403 0.0
H1715 H 0.16507 0.53384 0.62494 0.0
H1716 H 0.09135 0.50901 0.62839 0.0
H1717 H 0.08175 0.54067 0.66133 0.0
C1718 C 0.11321 0.57211 0.68349 0.0
C1719 C 0.13202 0.58624 0.69419 0.0
C1720 C 0.11802 0.55517 0.66285 0.0
C1721 C 0.15521 0.58451 0.68297 0.0
C1722 C 0.15992 0.56836 0.66193 0.0
C1723 C 0.14691 0.53523 0.63297 0.0
C1724 C 0.12907 0.51883 0.62441 0.0
C1725 C 0.14165 0.55312 0.65226 0.0
C1726 C 0.10546 0.5214 0.63453 0.0
C1727 C 0.09996 0.53945 0.65347 0.0
H1728 H 0.21203 0.61436 0.09486 0.0
H1729 H 0.16591 0.66416 0.13802 0.0
H1730 H 0.19432 0.66396 0.17625 0.0
H1731 H 0.23218 0.64876 0.19735 0.0
H1732 H 0.2778 0.59987 0.15211 0.0
H1733 H 0.24971 0.60099 0.11436 0.0
C1734 C 0.20794 0.62508 0.11268 0.0
C1735 C 0.18663 0.63891 0.11383 0.0
C1736 C 0.22442 0.62521 0.13404 0.0
C1737 C 0.18208 0.65318 0.13679 0.0
C1738 C 0.19833 0.65307 0.15857 0.0
C1739 C 0.2359 0.63838 0.1792 0.0
C1740 C 0.25709 0.62425 0.17755 0.0
C1741 C 0.21954 0.63904 0.15744 0.0
C1742 C 0.26185 0.61112 0.1538 0.0
C1743 C 0.24568 0.61157 0.13228 0.0
H1744 H 0.1609 0.46032 0.84828 0.0
H1745 H 0.1058 0.41848 0.88828 0.0
H1746 H 0.10771 0.44572 0.92734 0.0
H1747 H 0.12427 0.48227 0.9495 0.0
H1748 H 0.17854 0.52427 0.90834 0.0
H1749 H 0.17742 0.49626 0.87019 0.0
C1750 C 0.14943 0.45693 0.86561 0.0
C1751 C 0.13332 0.43724 0.86537 0.0
C1752 C 0.15028 0.4729 0.88769 0.0
C1753 C 0.11843 0.43342 0.88794 0.0
C1754 C 0.11947 0.44904 0.91026 0.0
C1755 C 0.13595 0.48518 0.93224 0.0
C1756 C 0.1514 0.50542 0.93176 0.0
C1757 C 0.1352 0.46897 0.91026 0.0
C1758 C 0.16623 0.50908 0.90909 0.0
C1759 C 0.16573 0.49296 0.88734 0.0
H1760 H 0.31814 0.35317 0.61835 0.0
H1761 H 0.3404 0.4279 0.61927 0.0
H1762 H 0.31212 0.43654 0.65592 0.0
H1763 H 0.27913 0.42365 0.68524 0.0
H1764 H 0.25429 0.34973 0.68223 0.0
H1765 H 0.28565 0.33988 0.6492 0.0
C1766 C 0.31712 0.37118 0.62706 0.0
C1767 C 0.3314 0.38987 0.61638 0.0
C1768 C 0.30016 0.37622 0.64751 0.0
C1769 C 0.3296 0.41326 0.62733 0.0
C1770 C 0.31337 0.41822 0.64816 0.0
C1771 C 0.28045 0.4054 0.67727 0.0
C1772 C 0.26418 0.38755 0.68605 0.0
C1773 C 0.29816 0.39999 0.65793 0.0
C1774 C 0.26662 0.36383 0.67597 0.0
C1775 C 0.28449 0.3582 0.65697 0.0
H1776 H 0.34694 0.5331 0.43641 0.0
H1777 H 0.4211 0.50942 0.43329 0.0
H1778 H 0.43018 0.54089 0.40013 0.0
H1779 H 0.41602 0.57294 0.36895 0.0
H1780 H 0.3411 0.59411 0.37039 0.0
H1781 H 0.33334 0.56595 0.40728 0.0
C1782 C 0.36508 0.5347 0.42839 0.0
C1783 C 0.38321 0.51868 0.43709 0.0
C1784 C 0.37004 0.5525 0.40904 0.0
C1785 C 0.40678 0.52151 0.42701 0.0
C1786 C 0.41197 0.53946 0.40795 0.0
C1787 C 0.39818 0.57173 0.37784 0.0
C1788 C 0.37915 0.5856 0.36716 0.0
C1789 C 0.39364 0.55482 0.39848 0.0
C1790 C 0.35599 0.5836 0.37841 0.0
C1791 C 0.35152 0.56743 0.39937 0.0
H1792 H 0.10791 0.24819 0.38092 0.0
H1793 H 0.17489 0.23132 0.4214 0.0
H1794 H 0.18214 0.19825 0.38993 0.0
H1795 H 0.16931 0.17317 0.35209 0.0
H1796 H 0.10329 0.18942 0.30975 0.0
H1797 H 0.09571 0.22343 0.34081 0.0
C1798 C 0.12409 0.23727 0.38281 0.0
C1799 C 0.1409 0.24249 0.40358 0.0
C1800 C 0.12826 0.21803 0.36441 0.0
C1801 C 0.16183 0.22816 0.40549 0.0
C1802 C 0.16594 0.20905 0.38757 0.0
C1803 C 0.15324 0.18415 0.34948 0.0
C1804 C 0.13669 0.17844 0.32881 0.0
C1805 C 0.14926 0.20374 0.3671 0.0
C1806 C 0.11614 0.19311 0.32571 0.0
C1807 C 0.11187 0.21262 0.34345 0.0
H1808 H 0.08863 0.9196 0.60332 0.0
H1809 H 0.07458 0.85198 0.56271 0.0
H1810 H 0.04068 0.84432 0.59369 0.0
H1811 H 0.01546 0.85697 0.63325 0.0
H1812 H 0.03044 0.92543 0.67205 0.0
H1813 H 0.06327 0.93273 0.64057 0.0
C1814 C 0.07816 0.90315 0.60105 0.0
C1815 C 0.0844 0.88623 0.58086 0.0
C1816 C 0.05871 0.89911 0.61862 0.0
C1817 C 0.0704 0.86518 0.57823 0.0
C1818 C 0.05098 0.86085 0.59594 0.0
C1819 C 0.02591 0.87348 0.63478 0.0
C1820 C 0.02023 0.8907 0.65506 0.0
C1821 C 0.04505 0.87765 0.6164 0.0
C1822 C 0.03396 0.91205 0.65651 0.0
C1823 C 0.05293 0.91618 0.63859 0.0
H1824 H 0.34385 0.84725 0.85698 0.0
H1825 H 0.40552 0.82559 0.80969 0.0
H1826 H 0.41295 0.79182 0.84099 0.0
H1827 H 0.40204 0.76895 0.88288 0.0
H1828 H 0.33927 0.79138 0.92828 0.0
H1829 H 0.3322 0.82418 0.89664 0.0
C1830 C 0.35893 0.83514 0.85334 0.0
C1831 C 0.37426 0.83918 0.83109 0.0
C1832 C 0.36291 0.81582 0.87123 0.0
C1833 C 0.3936 0.82314 0.82679 0.0
C1834 C 0.39778 0.80377 0.84468 0.0
C1835 C 0.3867 0.78089 0.8857 0.0
C1836 C 0.37142 0.77773 0.90837 0.0
C1837 C 0.38258 0.79997 0.86713 0.0
C1838 C 0.35168 0.79353 0.91156 0.0
C1839 C 0.34751 0.8123 0.89332 0.0
H1840 H 0.41883 0.10023 0.10686 0.0
H1841 H 0.43867 0.16517 0.06435 0.0
H1842 H 0.47204 0.17174 0.09632 0.0
H1843 H 0.49546 0.15879 0.13704 0.0
H1844 H 0.47523 0.09274 0.17751 0.0
H1845 H 0.44249 0.0867 0.14544 0.0
C1846 C 0.43045 0.11586 0.10443 0.0
C1847 C 0.42594 0.1324 0.08339 0.0
C1848 C 0.44973 0.1192 0.12253 0.0
C1849 C 0.44141 0.15237 0.08056 0.0
C1850 C 0.46058 0.15604 0.09882 0.0
C1851 C 0.48387 0.14308 0.13881 0.0
C1852 C 0.48805 0.12616 0.15974 0.0
C1853 C 0.46487 0.1396 0.12004 0.0
C1854 C 0.47286 0.10585 0.1615 0.0
C1855 C 0.45395 0.10245 0.14323 0.0
H1856 H 0.10638 0.8481 0.21002 0.0
H1857 H 0.15214 0.80631 0.26273 0.0
H1858 H 0.15318 0.7734 0.22943 0.0
H1859 H 0.14259 0.75715 0.18406 0.0
H1860 H 0.09742 0.79994 0.13148 0.0
H1861 H 0.09462 0.83141 0.16584 0.0
C1862 C 0.11637 0.83167 0.21441 0.0
C1863 C 0.1292 0.82979 0.23895 0.0
C1864 C 0.11714 0.81292 0.19497 0.0
C1865 C 0.14205 0.80832 0.24413 0.0
C1866 C 0.14276 0.78951 0.22496 0.0
C1867 C 0.13217 0.77336 0.18006 0.0
C1868 C 0.12015 0.77587 0.15498 0.0
C1869 C 0.13069 0.79172 0.20007 0.0
C1870 C 0.10656 0.79707 0.15055 0.0
C1871 C 0.10505 0.81528 0.17021 0.0
H1872 H 0.49533 0.85926 0.43006 0.0
H1873 H 0.47788 0.92386 0.38516 0.0
H1874 H 0.44444 0.93223 0.41561 0.0
H1875 H 0.41935 0.92104 0.45389 0.0
H1876 H 0.43614 0.85747 0.50056 0.0
H1877 H 0.4704 0.84872 0.47044 0.0
C1878 C 0.4842 0.87516 0.42697 0.0
C1879 C 0.48935 0.89098 0.40529 0.0
C1880 C 0.46475 0.87996 0.44477 0.0
C1881 C 0.47475 0.91158 0.40181 0.0
C1882 C 0.45544 0.91631 0.41914 0.0
C1883 C 0.43051 0.90526 0.45765 0.0
C1884 C 0.42491 0.88973 0.47929 0.0
C1885 C 0.45022 0.90062 0.44056 0.0
C1886 C 0.43975 0.86951 0.48384 0.0
C1887 C 0.45941 0.86458 0.46664 0.0
H1888 H 0.40426 0.24808 0.68012 0.0
H1889 H 0.3348 0.23492 0.64332 0.0
H1890 H 0.32733 0.20218 0.67491 0.0
H1891 H 0.34071 0.17612 0.71142 0.0
H1892 H 0.40929 0.18847 0.75013 0.0
H1893 H 0.41698 0.22253 0.71934 0.0
C1894 C 0.38748 0.23807 0.67908 0.0
C1895 C 0.37007 0.24419 0.65928 0.0
C1896 C 0.3832 0.21899 0.69753 0.0
C1897 C 0.34837 0.23104 0.65847 0.0
C1898 C 0.34412 0.21212 0.67645 0.0
C1899 C 0.35736 0.18627 0.71333 0.0
C1900 C 0.37459 0.17944 0.73283 0.0
C1901 C 0.36144 0.20583 0.69586 0.0
C1902 C 0.39588 0.19308 0.73509 0.0
C1903 C 0.40023 0.21259 0.71748 0.0
H1904 H 0.09245 0.09967 0.96109 0.0
H1905 H 0.07752 0.16568 1.00457 0.0
H1906 H 0.04513 0.17536 0.97232 0.0
H1907 H 0.0212 0.16484 0.93108 0.0
H1908 H 0.03667 0.09786 0.8894 0.0
H1909 H 0.06839 0.0887 0.92179 0.0
C1910 C 0.08209 0.11619 0.96368 0.0
C1911 C 0.08771 0.13213 0.98503 0.0
C1912 C 0.06344 0.1214 0.94535 0.0
C1913 C 0.0739 0.15331 0.98807 0.0
C1914 C 0.05531 0.15877 0.96966 0.0
C1915 C 0.03155 0.14827 0.92911 0.0
C1916 C 0.02631 0.13199 0.90778 0.0
C1917 C 0.04998 0.14299 0.94805 0.0
C1918 C 0.03989 0.11053 0.90573 0.0
C1919 C 0.0582 0.10533 0.92419 0.0
H1920 H 0.84328 0.84465 0.7074 0.0
H1921 H 0.90697 0.82698 0.75334 0.0
H1922 H 0.91534 0.79298 0.72251 0.0
H1923 H 0.90441 0.76852 0.6818 0.0
H1924 H 0.83985 0.78693 0.63744 0.0
H1925 H 0.83182 0.82009 0.66859 0.0
C1926 C 0.859 0.83336 0.71083 0.0
C1927 C 0.87466 0.8386 0.73249 0.0
C1928 C 0.86345 0.81381 0.69331 0.0
C1929 C 0.89481 0.82359 0.73663 0.0
C1930 C 0.89953 0.8041 0.71902 0.0
C1931 C 0.8886 0.7798 0.67897 0.0
C1932 C 0.87268 0.77499 0.65725 0.0
C1933 C 0.88401 0.7991 0.69714 0.0
C1934 C 0.8522 0.78979 0.65411 0.0
C1935 C 0.84766 0.80894 0.67184 0.0
H1936 H 0.99827 0.15595 0.43079 0.0
H1937 H 0.97829 0.09121 0.38722 0.0
H1938 H 0.94519 0.08433 0.41851 0.0
H1939 H 0.92099 0.09698 0.45706 0.0
H1940 H 0.94035 0.16073 0.50244 0.0
H1941 H 0.97443 0.16783 0.4716 0.0
C1942 C 0.98667 0.14034 0.42821 0.0
C1943 C 0.99097 0.12405 0.40662 0.0
C1944 C 0.96744 0.13639 0.44649 0.0
C1945 C 0.97579 0.10383 0.40377 0.0
C1946 C 0.95668 0.09995 0.42158 0.0
C1947 C 0.93268 0.11244 0.46037 0.0
C1948 C 0.92786 0.12852 0.48184 0.0
C1949 C 0.95226 0.11614 0.44287 0.0
C1950 C 0.9434 0.14827 0.48588 0.0
C1951 C 0.96293 0.15227 0.46826 0.0
H1952 H 0.60607 0.24299 0.17676 0.0
H1953 H 0.66825 0.21833 0.13179 0.0
H1954 H 0.67544 0.18679 0.16491 0.0
H1955 H 0.66394 0.1653 0.20544 0.0
H1956 H 0.6029 0.18894 0.25261 0.0
H1957 H 0.5954 0.22171 0.21995 0.0
C1958 C 0.6213 0.23083 0.17439 0.0
C1959 C 0.63638 0.23292 0.15141 0.0
C1960 C 0.62545 0.21243 0.19381 0.0
C1961 C 0.65601 0.21693 0.14878 0.0
C1962 C 0.66024 0.1989 0.16783 0.0
C1963 C 0.64896 0.17761 0.20879 0.0
C1964 C 0.63381 0.1744 0.23135 0.0
C1965 C 0.64498 0.19631 0.19019 0.0
C1966 C 0.61464 0.19072 0.23526 0.0
C1967 C 0.61044 0.20953 0.2166 0.0
H1968 H 0.51472 0.85603 0.92647 0.0
H1969 H 0.53095 0.92403 0.88775 0.0
H1970 H 0.56361 0.93109 0.91959 0.0
H1971 H 0.58837 0.91798 0.95734 0.0
H1972 H 0.57287 0.85098 0.99814 0.0
H1973 H 0.53933 0.84342 0.96655 0.0
C1974 C 0.52541 0.87238 0.92505 0.0
C1975 C 0.52011 0.88955 0.90467 0.0
C1976 C 0.54441 0.87646 0.94371 0.0
C1977 C 0.53416 0.91069 0.90335 0.0
C1978 C 0.55304 0.91469 0.92149 0.0
C1979 C 0.57767 0.90169 0.95952 0.0
C1980 C 0.58341 0.88491 0.97995 0.0
C1981 C 0.55838 0.89771 0.94162 0.0
C1982 C 0.5691 0.86406 0.98244 0.0
C1983 C 0.54988 0.85979 0.96438 0.0
H1984 H 0.86197 0.25294 0.8745 0.0
H1985 H 0.90786 0.21314 0.92917 0.0
H1986 H 0.91053 0.17998 0.89684 0.0
H1987 H 0.89869 0.16119 0.8539 0.0
H1988 H 0.85319 0.2003 0.79845 0.0
H1989 H 0.8512 0.2344 0.83023 0.0
C1990 C 0.87253 0.23701 0.87936 0.0
C1991 C 0.88482 0.23582 0.90438 0.0
C1992 C 0.874 0.21771 0.86051 0.0
C1993 C 0.89854 0.21496 0.91005 0.0
C1994 C 0.89996 0.1958 0.89159 0.0
C1995 C 0.88874 0.17736 0.84845 0.0
C1996 C 0.87639 0.17824 0.82355 0.0
C1997 C 0.88772 0.1969 0.86681 0.0
C1998 C 0.863 0.19913 0.81734 0.0
C1999 C 0.86183 0.21865 0.83557 0.0
H2000 H 0.51965 0.15292 0.63615 0.0
H2001 H 0.53955 0.08954 0.68197 0.0
H2002 H 0.57257 0.08145 0.65093 0.0
H2003 H 0.59663 0.09253 0.61195 0.0
H2004 H 0.57773 0.15494 0.56433 0.0
H2005 H 0.54347 0.16317 0.59472 0.0
C2006 C 0.53109 0.13723 0.63916 0.0
C2007 C 0.5272 0.12207 0.66176 0.0
C2008 C 0.5503 0.13255 0.62098 0.0
C2009 C 0.54231 0.10184 0.66526 0.0
C2010 C 0.56119 0.09709 0.64739 0.0
C2011 C 0.58502 0.10796 0.60803 0.0
C2012 C 0.58994 0.12324 0.58599 0.0
C2013 C 0.5655 0.11242 0.62542 0.0
C2014 C 0.57452 0.14299 0.58126 0.0
C2015 C 0.55491 0.14766 0.59865 0.0
H2016 H 0.66966 0.84276 0.35217 0.0
H2017 H 0.60468 0.8243 0.30897 0.0
H2018 H 0.59712 0.79115 0.34104 0.0
H2019 H 0.6087 0.76826 0.38274 0.0
H2020 H 0.67462 0.78758 0.42406 0.0
H2021 H 0.682 0.81944 0.39137 0.0
C2022 C 0.65383 0.83146 0.34956 0.0
C2023 C 0.6376 0.83627 0.32831 0.0
C2024 C 0.64973 0.81256 0.36793 0.0
C2025 C 0.61733 0.82124 0.3253 0.0
C2026 C 0.61305 0.80225 0.34364 0.0
C2027 C 0.62478 0.77929 0.38443 0.0
C2028 C 0.64088 0.77559 0.4063 0.0
C2029 C 0.62907 0.79783 0.36526 0.0
C2030 C 0.66159 0.79022 0.40801 0.0
C2031 C 0.66594 0.80842 0.38916 0.0
H2032 H 0.91976 0.92146 0.10091 0.0
H2033 H 0.93546 0.85343 0.06195 0.0
H2034 H 0.96884 0.84653 0.09399 0.0
H2035 H 0.99239 0.85947 0.13514 0.0
H2036 H 0.97524 0.92817 0.1722 0.0
H2037 H 0.94389 0.9352 0.13878 0.0
C2038 C 0.9305 0.9051 0.09919 0.0
C2039 C 0.92481 0.88784 0.0792 0.0
C2040 C 0.94951 0.90139 0.11752 0.0
C2041 C 0.9392 0.86692 0.07728 0.0
C2042 C 0.95832 0.86302 0.09564 0.0
C2043 C 0.98193 0.87606 0.13564 0.0
C2044 C 0.98603 0.89313 0.15654 0.0
C2045 C 0.96351 0.88003 0.11615 0.0
C2046 C 0.97228 0.91454 0.15678 0.0
C2047 C 0.95433 0.91863 0.13759 0.0
H2048 H 0.66546 0.66552 0.85579 0.0
H2049 H 0.60256 0.68682 0.81042 0.0
H2050 H 0.5956 0.72045 0.84224 0.0
H2051 H 0.60722 0.74314 0.88412 0.0
H2052 H 0.67115 0.72105 0.92755 0.0
H2053 H 0.67785 0.68851 0.89529 0.0
C2054 C 0.65021 0.67752 0.85267 0.0
C2055 C 0.63439 0.67342 0.83085 0.0
C2056 C 0.6465 0.69673 0.87084 0.0
C2057 C 0.61485 0.68932 0.8272 0.0
C2058 C 0.61094 0.70861 0.84538 0.0
C2059 C 0.62273 0.73134 0.88635 0.0
C2060 C 0.63846 0.73448 0.90864 0.0
C2061 C 0.62661 0.71242 0.86745 0.0
C2062 C 0.65842 0.71888 0.91111 0.0
C2063 C 0.66237 0.70027 0.89253 0.0
H2064 H 0.55679 0.39625 0.06243 0.0
H2065 H 0.61193 0.35823 0.10661 0.0
H2066 H 0.58374 0.35074 0.14355 0.0
H2067 H 0.54454 0.35821 0.16514 0.0
H2068 H 0.48993 0.39878 0.12259 0.0
H2069 H 0.51638 0.40168 0.08322 0.0
C2070 C 0.56232 0.38574 0.07986 0.0
C2071 C 0.58616 0.37706 0.08142 0.0
C2072 C 0.54613 0.38225 0.10154 0.0
C2073 C 0.59346 0.3643 0.10451 0.0
C2074 C 0.57739 0.3603 0.12581 0.0
C2075 C 0.53835 0.36769 0.14728 0.0
C2076 C 0.51524 0.37845 0.14711 0.0
C2077 C 0.55386 0.3697 0.12485 0.0
C2078 C 0.50748 0.39017 0.12341 0.0
C2079 C 0.5227 0.39199 0.10088 0.0
H2080 H 0.84313 0.34248 0.35344 0.0
H2081 H 0.90859 0.32684 0.3097 0.0
H2082 H 0.91766 0.29376 0.34134 0.0
H2083 H 0.90682 0.26953 0.38215 0.0
H2084 H 0.84041 0.28582 0.42413 0.0
H2085 H 0.83177 0.31808 0.39223 0.0
C2086 C 0.8594 0.33184 0.35065 0.0
C2087 C 0.87535 0.33744 0.3294 0.0
C2088 C 0.86425 0.3128 0.36862 0.0
C2089 C 0.8962 0.32323 0.32611 0.0
C2090 C 0.90132 0.30425 0.34417 0.0
C2091 C 0.89047 0.28016 0.3843 0.0
C2092 C 0.87422 0.275 0.40559 0.0
C2093 C 0.88551 0.29893 0.36566 0.0
C2094 C 0.85306 0.28894 0.40783 0.0
C2095 C 0.84815 0.30758 0.38965 0.0
H2096 H 0.92 0.59626 0.60317 0.0
H2097 H 0.93762 0.65998 0.55723 0.0
H2098 H 0.97101 0.66881 0.58845 0.0
H2099 H 0.99484 0.65849 0.62958 0.0
H2100 H 0.97647 0.59417 0.67441 0.0
H2101 H 0.94408 0.58539 0.64266 0.0
C2102 C 0.93118 0.61207 0.59983 0.0
C2103 C 0.92608 0.62761 0.57802 0.0
C2104 C 0.95035 0.61687 0.6177 0.0
C2105 C 0.94092 0.64788 0.57401 0.0
C2106 C 0.96005 0.65289 0.59186 0.0
C2107 C 0.98372 0.64257 0.63242 0.0
C2108 C 0.98833 0.62697 0.65447 0.0
C2109 C 0.96486 0.63758 0.61395 0.0
C2110 C 0.97378 0.60631 0.65754 0.0
C2111 C 0.95506 0.60134 0.63945 0.0
H2112 H 0.66855 0.34445 0.70604 0.0
H2113 H 0.60607 0.32326 0.75205 0.0
H2114 H 0.59914 0.28934 0.72068 0.0
H2115 H 0.61072 0.26625 0.67915 0.0
H2116 H 0.67397 0.28834 0.63468 0.0
H2117 H 0.68069 0.32127 0.66648 0.0
C2118 C 0.65341 0.3324 0.70937 0.0
C2119 C 0.63773 0.33654 0.73128 0.0
C2120 C 0.64967 0.31306 0.6914 0.0
C2121 C 0.61828 0.32065 0.73521 0.0
C2122 C 0.61438 0.30122 0.71729 0.0
C2123 C 0.62608 0.27815 0.67659 0.0
C2124 C 0.64166 0.27487 0.65422 0.0
C2125 C 0.62993 0.29729 0.69517 0.0
C2126 C 0.6614 0.29061 0.65125 0.0
C2127 C 0.66536 0.30943 0.66956 0.0
H2128 H 0.92054 0.41653 0.96044 0.0
H2129 H 0.93241 0.34678 0.9969 0.0
H2130 H 0.96651 0.33961 0.96598 0.0
H2131 H 0.99273 0.35348 0.92785 0.0
H2132 H 0.97981 0.42399 0.89321 0.0
H2133 H 0.94666 0.43063 0.92448 0.0
C2134 C 0.93056 0.3997 0.96182 0.0
C2135 C 0.92368 0.38209 0.98086 0.0
C2136 C 0.95015 0.39594 0.94433 0.0
C2137 C 0.93708 0.36053 0.9823 0.0
C2138 C 0.95664 0.3565 0.96463 0.0
C2139 C 0.98265 0.37029 0.92717 0.0
C2140 C 0.98906 0.38829 0.90815 0.0
C2141 C 0.96329 0.37407 0.94541 0.0
C2142 C 0.97578 0.41 0.9078 0.0
C2143 C 0.95661 0.41376 0.92559 0.0
H2144 H 0.90205 0.74633 0.17855 0.0
H2145 H 0.83674 0.72537 0.13703 0.0
H2146 H 0.83005 0.69334 0.16973 0.0
H2147 H 0.84285 0.67039 0.20912 0.0
H2148 H 0.90717 0.69074 0.2525 0.0
H2149 H 0.91405 0.72387 0.22028 0.0
C2150 C 0.88624 0.73491 0.17682 0.0
C2151 C 0.87012 0.7382 0.15492 0.0
C2152 C 0.88235 0.7163 0.19599 0.0
C2153 C 0.84977 0.72306 0.15313 0.0
C2154 C 0.84582 0.70476 0.17198 0.0
C2155 C 0.85838 0.68209 0.21171 0.0
C2156 C 0.87463 0.67784 0.23307 0.0
C2157 C 0.86206 0.70105 0.19328 0.0
C2158 C 0.89453 0.69336 0.23607 0.0
C2159 C 0.89841 0.71236 0.21766 0.0
H2160 H 0.58886 0.59376 0.45967 0.0
H2161 H 0.57599 0.66143 0.50076 0.0
H2162 H 0.54244 0.67013 0.4696 0.0
H2163 H 0.51738 0.65849 0.42957 0.0
H2164 H 0.53098 0.58988 0.3904 0.0
H2165 H 0.56336 0.58146 0.42219 0.0
C2166 C 0.57871 0.61044 0.462 0.0
C2167 C 0.58524 0.62712 0.48229 0.0
C2168 C 0.55944 0.61507 0.44434 0.0
C2169 C 0.57163 0.64845 0.48508 0.0
C2170 C 0.55241 0.65336 0.46728 0.0
C2171 C 0.52743 0.6417 0.42806 0.0
C2172 C 0.52154 0.62479 0.40755 0.0
C2173 C 0.54627 0.63687 0.44661 0.0
C2174 C 0.5347 0.60305 0.4061 0.0
C2175 C 0.55341 0.59827 0.42419 0.0
H2176 H 0.36598 0.26132 0.18469 0.0
H2177 H 0.41984 0.30063 0.13976 0.0
H2178 H 0.42078 0.33185 0.17472 0.0
H2179 H 0.40387 0.34996 0.2167 0.0
H2180 H 0.3486 0.31136 0.25999 0.0
H2181 H 0.35062 0.27826 0.22728 0.0
C2182 C 0.37791 0.27671 0.18242 0.0
C2183 C 0.39275 0.27839 0.15933 0.0
C2184 C 0.37813 0.29492 0.2025 0.0
C2185 C 0.40837 0.29845 0.15729 0.0
C2186 C 0.40882 0.31652 0.17728 0.0
C2187 C 0.39279 0.334 0.21933 0.0
C2188 C 0.37633 0.333 0.24103 0.0
C2189 C 0.39357 0.31515 0.19988 0.0
C2190 C 0.36155 0.31249 0.24364 0.0
C2191 C 0.36259 0.29359 0.22482 0.0
H2192 H 0.49346 0.656 0.92842 0.0
H2193 H 0.47959 0.58656 0.89136 0.0
H2194 H 0.44754 0.57892 0.92376 0.0
H2195 H 0.42241 0.59204 0.96136 0.0
H2196 H 0.43555 0.66065 1.00022 0.0
H2197 H 0.46872 0.66859 0.96837 0.0
C2198 C 0.48343 0.6392 0.92747 0.0
C2199 C 0.48919 0.62183 0.90737 0.0
C2200 C 0.46476 0.63481 0.94641 0.0
C2201 C 0.47601 0.6001 0.90671 0.0
C2202 C 0.45748 0.59576 0.92517 0.0
C2203 C 0.43254 0.60876 0.96306 0.0
C2204 C 0.4262 0.62589 0.98298 0.0
C2205 C 0.45161 0.61299 0.94495 0.0
C2206 C 0.43978 0.64729 0.98489 0.0
C2207 C 0.45879 0.65178 0.96668 0.0
H2208 H 0.11062 0.74697 0.67753 0.0
H2209 H 0.17609 0.72544 0.63663 0.0
H2210 H 0.18277 0.69384 0.6699 0.0
H2211 H 0.16977 0.67126 0.70948 0.0
H2212 H 0.10517 0.69216 0.75208 0.0
H2213 H 0.09852 0.72508 0.71951 0.0
C2214 C 0.12648 0.73553 0.67607 0.0
C2215 C 0.14264 0.73851 0.65418 0.0
C2216 C 0.13034 0.71718 0.69554 0.0
C2217 C 0.16303 0.72336 0.65274 0.0
C2218 C 0.16698 0.7053 0.6719 0.0
C2219 C 0.15425 0.68306 0.71182 0.0
C2220 C 0.13783 0.67903 0.73306 0.0
C2221 C 0.15065 0.70185 0.69316 0.0
C2222 C 0.11795 0.69467 0.73577 0.0
C2223 C 0.11418 0.71352 0.71714 0.0
H2224 H 0.01504 0.3582 0.43037 0.0
H2225 H 0.03018 0.42655 0.3918 0.0
H2226 H 0.06282 0.43397 0.42355 0.0
H2227 H 0.08802 0.42099 0.46101 0.0
H2228 H 0.07385 0.35341 0.50124 0.0
H2229 H 0.04013 0.34565 0.46999 0.0
C2230 C 0.02549 0.37471 0.42893 0.0
C2231 C 0.01987 0.39186 0.40863 0.0
C2232 C 0.04455 0.37894 0.44744 0.0
C2233 C 0.03361 0.41321 0.40734 0.0
C2234 C 0.05249 0.41742 0.42542 0.0
C2235 C 0.07755 0.40453 0.46315 0.0
C2236 C 0.08374 0.38764 0.48329 0.0
C2237 C 0.05819 0.40041 0.4454 0.0
C2238 C 0.06977 0.36655 0.48572 0.0
C2239 C 0.05042 0.36218 0.46787 0.0
H2240 H 0.40482 0.75045 0.38283 0.0
H2241 H 0.33793 0.73275 0.42288 0.0
H2242 H 0.33115 0.69981 0.39113 0.0
H2243 H 0.34435 0.67513 0.35323 0.0
H2244 H 0.41024 0.69214 0.31115 0.0
H2245 H 0.41738 0.72606 0.34249 0.0
C2246 C 0.38876 0.73938 0.38455 0.0
C2247 C 0.37183 0.7443 0.40528 0.0
C2248 C 0.38486 0.72024 0.36597 0.0
C2249 C 0.35106 0.72979 0.407 0.0
C2250 C 0.34723 0.71077 0.38892 0.0
C2251 C 0.3603 0.68626 0.35072 0.0
C2252 C 0.37694 0.6808 0.33005 0.0
C2253 C 0.36402 0.70576 0.36848 0.0
C2254 C 0.39733 0.69566 0.32709 0.0
C2255 C 0.40134 0.71511 0.345 0.0
H2256 H 0.09651 0.60069 0.11057 0.0
H2257 H 0.07604 0.66225 0.06238 0.0
H2258 H 0.04135 0.66958 0.09233 0.0
H2259 H 0.01692 0.6582 0.13275 0.0
H2260 H 0.03809 0.59562 0.17921 0.0
H2261 H 0.07212 0.58879 0.14912 0.0
C2262 C 0.08448 0.61574 0.10647 0.0
C2263 C 0.08908 0.63108 0.08439 0.0
C2264 C 0.06452 0.61953 0.12344 0.0
C2265 C 0.07314 0.65035 0.0794 0.0
C2266 C 0.05324 0.65446 0.0965 0.0
C2267 C 0.029 0.64308 0.13626 0.0
C2268 C 0.02472 0.62735 0.15825 0.0
C2269 C 0.04878 0.63917 0.11869 0.0
C2270 C 0.04054 0.60777 0.1623 0.0
C2271 C 0.06019 0.60394 0.14518 0.0
H2272 H 0.16909 0.34516 0.85051 0.0
H2273 H 0.10299 0.32823 0.80866 0.0
H2274 H 0.09566 0.29468 0.84022 0.0
H2275 H 0.10819 0.27042 0.88045 0.0
H2276 H 0.17508 0.28819 0.92067 0.0
H2277 H 0.18206 0.32079 0.88874 0.0
C2278 C 0.15305 0.33413 0.84811 0.0
C2279 C 0.13642 0.3395 0.82742 0.0
C2280 C 0.14919 0.31484 0.86604 0.0
C2281 C 0.11589 0.3248 0.82464 0.0
C2282 C 0.11177 0.30554 0.84265 0.0
C2283 C 0.12428 0.28144 0.88222 0.0
C2284 C 0.14116 0.27657 0.90303 0.0
C2285 C 0.12826 0.30046 0.86361 0.0
C2286 C 0.16198 0.29104 0.90474 0.0
C2287 C 0.16593 0.3099 0.88656 0.0
H2288 H 0.49534 0.35541 0.63292 0.0
H2289 H 0.48086 0.42359 0.67263 0.0
H2290 H 0.44844 0.43184 0.64084 0.0
H2291 H 0.42339 0.41969 0.60292 0.0
H2292 H 0.43718 0.35251 0.56122 0.0
H2293 H 0.47043 0.34375 0.59274 0.0
C2294 C 0.48508 0.37207 0.63458 0.0
C2295 C 0.49079 0.38893 0.65521 0.0
C2296 C 0.46621 0.3768 0.616 0.0
C2297 C 0.47731 0.41047 0.65683 0.0
C2298 C 0.45858 0.41515 0.63873 0.0
C2299 C 0.43366 0.4031 0.60052 0.0
C2300 C 0.42747 0.38659 0.57991 0.0
C2301 C 0.45281 0.39845 0.61837 0.0
C2302 C 0.44121 0.36534 0.57715 0.0
C2303 C 0.46031 0.36041 0.59513 0.0
H2304 H 0.13395 0.04737 0.30409 0.0
H2305 H 0.08149 0.05078 0.23982 0.0
H2306 H 0.07879 1.00655 0.23935 0.0
H2307 H 0.09012 0.96689 0.25845 0.0
H2308 H 0.14178 0.96329 0.32333 0.0
H2309 H 0.14583 0.00762 0.32272 0.0
C2310 C 0.12208 0.03846 0.28982 0.0
C2311 C 0.10793 0.05244 0.27196 0.0
C2312 C 0.12024 0.01299 0.29011 0.0
C2313 C 0.09256 0.0405 0.25372 0.0
C2314 C 0.09094 0.01521 0.25355 0.0
C2315 C 0.10216 0.97591 0.27252 0.0
C2316 C 0.11543 0.96203 0.29117 0.0
C2317 C 0.10441 1.00129 0.27189 0.0
C2318 C 0.13126 0.97371 0.30902 0.0
C2319 C 0.13361 0.999 0.30857 0.0
H2320 H 0.21541 0.86143 0.56504 0.0
H2321 H 0.21027 0.86301 0.4782 0.0
H2322 H 0.25442 0.86571 0.47476 0.0
H2323 H 0.29443 0.86686 0.49661 0.0
H2324 H 0.2998 0.86085 0.5832 0.0
H2325 H 0.25557 0.86067 0.58682 0.0
C2326 C 0.22403 0.86246 0.5454 0.0
C2327 C 0.20976 0.86228 0.52184 0.0
C2328 C 0.24938 0.86319 0.54365 0.0
C2329 C 0.221 0.8632 0.4965 0.0
C2330 C 0.24618 0.86475 0.49459 0.0
C2331 C 0.28587 0.86569 0.51627 0.0
C2332 C 0.30023 0.86422 0.53971 0.0
C2333 C 0.26054 0.8647 0.51802 0.0
C2334 C 0.28903 0.86215 0.56499 0.0
C2335 C 0.26379 0.86203 0.56701 0.0
H2336 H 0.39243 0.96826 0.80932 0.0
H2337 H 0.41493 0.96258 0.72622 0.0
H2338 H 0.41624 1.00694 0.72292 0.0
H2339 H 0.41156 0.0474 0.74422 0.0
H2340 H 0.39223 0.05247 0.82835 0.0
H2341 H 0.38905 0.00822 0.83092 0.0
C2342 C 0.39738 0.97671 0.7904 0.0
C2343 C 0.40324 0.96218 0.76788 0.0
C2344 C 0.39882 1.00208 0.78902 0.0
C2345 C 0.41023 0.9734 0.74372 0.0
C2346 C 0.411 0.99873 0.74189 0.0
C2347 C 0.40671 0.03869 0.76308 0.0
C2348 C 0.40209 0.05297 0.78612 0.0
C2349 C 0.40546 0.01325 0.76446 0.0
C2350 C 0.39591 0.04171 0.81048 0.0
C2351 C 0.39406 0.01648 0.81188 0.0
H2352 H 0.21978 0.18825 1.01119 0.0
H2353 H 0.21344 0.12477 0.06092 0.0
H2354 H 0.25738 0.11903 0.05947 0.0
H2355 H 0.29761 0.13237 0.04414 0.0
H2356 H 0.30366 0.19524 0.99311 0.0
H2357 H 0.25985 0.20056 0.9943 0.0
C2358 C 0.22813 0.17334 1.02194 0.0
C2359 C 0.21358 0.15724 0.03668 0.0
C2360 C 0.25328 0.16982 1.02033 0.0
C2361 C 0.2244 0.13756 0.04982 0.0
C2362 C 0.24947 0.13422 0.04884 0.0
C2363 C 0.28934 0.1471 0.03306 0.0
C2364 C 0.30399 0.16346 1.01864 0.0
C2365 C 0.2641 0.15021 0.03408 0.0
C2366 C 0.29289 0.18239 1.00435 0.0
C2367 C 0.26782 0.18555 1.00518 0.0
H2368 H 0.88199 0.05037 0.78474 0.0
H2369 H 0.95754 0.05105 0.76366 0.0
H2370 H 0.95922 1.00719 0.76667 0.0
H2371 H 0.94005 0.9685 0.77689 0.0
H2372 H 0.8643 0.96625 0.79592 0.0
H2373 H 0.86196 0.01056 0.79289 0.0
C2374 C 0.89865 0.04084 0.78038 0.0
C2375 C 0.91964 0.05405 0.77399 0.0
C2376 C 0.89964 0.01529 0.78248 0.0
C2377 C 0.94113 0.04138 0.7686 0.0
C2378 C 0.94219 0.01624 0.77051 0.0
C2379 C 0.9231 0.97774 0.78073 0.0
C2380 C 0.90251 0.96418 0.78729 0.0
C2381 C 0.92174 1.00303 0.77793 0.0
C2382 C 0.8805 0.97635 0.79131 0.0
C2383 C 0.87912 1.00168 0.78934 0.0
H2384 H 0.71966 0.18187 0.55254 0.0
H2385 H 0.71441 0.11779 0.50323 0.0
H2386 H 0.75861 0.11429 0.50231 0.0
H2387 H 0.79867 0.12959 0.51576 0.0
H2388 H 0.80375 0.19309 0.56633 0.0
H2389 H 0.75972 0.19641 0.56716 0.0
C2390 C 0.72831 0.16733 0.54138 0.0
C2391 C 0.71403 0.15037 0.52748 0.0
C2392 C 0.75362 0.16513 0.5416 0.0
C2393 C 0.7252 0.13119 0.51371 0.0
C2394 C 0.7504 0.12914 0.51335 0.0
C2395 C 0.79015 0.14404 0.52715 0.0
C2396 C 0.80452 0.16114 0.54091 0.0
C2397 C 0.7648 0.14595 0.52733 0.0
C2398 C 0.79314 0.17972 0.55557 0.0
C2399 C 0.76796 0.1817 0.55593 0.0
H2400 H 0.58639 0.04693 0.25835 0.0
H2401 H 0.6294 0.05166 0.33064 0.0
H2402 H 0.63401 0.00742 0.33108 0.0
H2403 H 0.6258 0.96754 0.31067 0.0
H2404 H 0.58171 0.96262 0.23907 0.0
H2405 H 0.57778 1.00682 0.2382 0.0
C2406 C 0.59649 0.03814 0.27435 0.0
C2407 C 0.6072 0.05231 0.29475 0.0
C2408 C 0.59912 0.01278 0.2743 0.0
C2409 C 0.6207 0.04097 0.31506 0.0
C2410 C 0.62345 0.01574 0.31517 0.0
C2411 C 0.6155 0.97612 0.29473 0.0
C2412 C 0.60417 0.96179 0.27481 0.0
C2413 C 0.61283 1.00148 0.29482 0.0
C2414 C 0.59063 0.97324 0.25455 0.0
C2415 C 0.58831 0.9985 0.25413 0.0
H2416 H 0.71496 0.83144 1.01075 0.0
H2417 H 0.70705 0.8904 0.06705 0.0
H2418 H 0.751 0.89632 0.06753 0.0
H2419 H 0.79186 0.88438 0.05195 0.0
H2420 H 0.79922 0.8261 0.99435 0.0
H2421 H 0.75548 0.82054 0.99393 0.0
C2422 C 0.72298 0.84536 1.02336 0.0
C2423 C 0.70797 0.8601 0.03938 0.0
C2424 C 0.74816 0.849 1.02295 0.0
C2425 C 0.71837 0.87859 0.05497 0.0
C2426 C 0.74345 0.88205 0.05509 0.0
C2427 C 0.78386 0.87064 0.03909 0.0
C2428 C 0.79888 0.85563 1.02322 0.0
C2429 C 0.75857 0.86739 0.0391 0.0
C2430 C 0.78815 0.83787 1.00677 0.0
C2431 C 0.76311 0.83459 1.00662 0.0
H2432 H 0.6094 0.54513 0.81384 0.0
H2433 H 0.59826 0.54836 0.72776 0.0
H2434 H 0.5985 0.50393 0.72536 0.0
H2435 H 0.60177 0.46419 0.74801 0.0
H2436 H 0.60973 0.46108 0.83453 0.0
H2437 H 0.61086 0.50551 0.83672 0.0
C2438 C 0.60716 0.53608 0.79454 0.0
C2439 C 0.60412 0.54993 0.77089 0.0
C2440 C 0.60663 0.51062 0.79354 0.0
C2441 C 0.6007 0.53803 0.74613 0.0
C2442 C 0.60084 0.51267 0.74481 0.0
C2443 C 0.60368 0.47332 0.76732 0.0
C2444 C 0.60574 0.45952 0.79113 0.0
C2445 C 0.60375 0.49879 0.76839 0.0
C2446 C 0.60804 0.47141 0.81604 0.0
C2447 C 0.60874 0.49675 0.81724 0.0
H2448 H 0.79247 0.33287 1.00889 0.0
H2449 H 0.79622 0.39123 0.06652 0.0
H2450 H 0.75209 0.39577 0.06491 0.0
H2451 H 0.71245 0.38257 0.04737 0.0
H2452 H 0.70901 0.32434 0.98927 0.0
H2453 H 0.753 0.32067 0.99019 0.0
C2454 C 0.78351 0.34642 1.02124 0.0
C2455 C 0.79735 0.36139 0.03825 0.0
C2456 C 0.75827 0.34916 1.01974 0.0
C2457 C 0.78578 0.3793 0.05364 0.0
C2458 C 0.76062 0.38196 0.05256 0.0
C2459 C 0.72132 0.36925 0.03469 0.0
C2460 C 0.70737 0.35369 1.01828 0.0
C2461 C 0.74666 0.36698 0.03567 0.0
C2462 C 0.71925 0.33653 1.00203 0.0
C2463 C 0.74442 0.33432 1.00269 0.0
H2464 H 0.87625 0.54834 0.26972 0.0
H2465 H 0.94347 0.55384 0.31331 0.0
H2466 H 0.94785 0.50981 0.31222 0.0
H2467 H 0.93324 0.46964 0.29767 0.0
H2468 H 0.8655 0.46388 0.25551 0.0
H2469 H 0.86082 0.50803 0.25673 0.0
C2470 C 0.89176 0.53991 0.27919 0.0
C2471 C 0.90957 0.55447 0.2915 0.0
C2472 C 0.89425 0.51451 0.27832 0.0
C2473 C 0.9295 0.54315 0.30372 0.0
C2474 C 0.93209 0.51794 0.30296 0.0
C2475 C 0.91759 0.47813 0.28853 0.0
C2476 C 0.89992 0.46363 0.27605 0.0
C2477 C 0.91477 0.50346 0.28998 0.0
C2478 C 0.87941 0.47472 0.26496 0.0
C2479 C 0.87671 0.49994 0.26578 0.0
H2480 H 0.71756 0.68439 0.51216 0.0
H2481 H 0.711 0.61904 0.55874 0.0
H2482 H 0.75507 0.61423 0.55884 0.0
H2483 H 0.79547 0.62893 0.54574 0.0
H2484 H 0.80174 0.6938 0.49796 0.0
H2485 H 0.75783 0.6982 0.49762 0.0
C2486 C 0.72588 0.66925 0.52252 0.0
C2487 C 0.71125 0.6523 0.53586 0.0
C2488 C 0.75112 0.66634 0.52187 0.0
C2489 C 0.72203 0.63239 0.54861 0.0
C2490 C 0.74718 0.62961 0.54854 0.0
C2491 C 0.78723 0.64392 0.53507 0.0
C2492 C 0.80193 0.6611 0.52201 0.0
C2493 C 0.76192 0.64646 0.53517 0.0
C2494 C 0.79089 0.68036 0.50821 0.0
C2495 C 0.76577 0.68296 0.50813 0.0
H2496 H 0.37615 0.54917 0.29823 0.0
H2497 H 0.43816 0.55418 0.24581 0.0
H2498 H 0.44214 0.51015 0.24578 0.0
H2499 H 0.4292 0.47021 0.26215 0.0
H2500 H 0.36664 0.46447 0.31328 0.0
H2501 H 0.36174 0.5087 0.3126 0.0
C2502 C 0.39037 0.5406 0.28656 0.0
C2503 C 0.40693 0.55504 0.27212 0.0
C2504 C 0.39265 0.51515 0.28676 0.0
C2505 C 0.42522 0.54358 0.25712 0.0
C2506 C 0.42758 0.51838 0.2572 0.0
C2507 C 0.41458 0.47872 0.27325 0.0
C2508 C 0.39855 0.46427 0.28819 0.0
C2509 C 0.41167 0.50401 0.27228 0.0
C2510 C 0.37933 0.47533 0.30194 0.0
C2511 C 0.37652 0.50058 0.30145 0.0
H2512 H 0.29616 0.65935 0.99451 0.0
H2513 H 0.29963 0.6521 0.0811 0.0
H2514 H 0.25538 0.65056 0.08337 0.0
H2515 H 0.21593 0.65188 0.06071 0.0
H2516 H 0.21194 0.66228 0.97458 0.0
H2517 H 0.25628 0.66209 0.97192 0.0
C2518 C 0.28712 0.65744 1.01383 0.0
C2519 C 0.30095 0.65573 0.03766 0.0
C2520 C 0.26172 0.65718 1.01495 0.0
C2521 C 0.28924 0.65347 0.06261 0.0
C2522 C 0.26401 0.65257 0.06385 0.0
C2523 C 0.22476 0.6539 0.04132 0.0
C2524 C 0.21073 0.65675 1.01776 0.0
C2525 C 0.25009 0.65444 0.04017 0.0
C2526 C 0.22239 0.65997 0.99289 0.0
C2527 C 0.24769 0.65986 0.99142 0.0
H2528 H 0.07125 0.47253 0.78979 0.0
H2529 H 0.14412 0.46447 0.7609 0.0
H2530 H 0.14939 0.50849 0.76144 0.0
H2531 H 0.13325 0.54947 0.77052 0.0
H2532 H 0.06127 0.55715 0.8026 0.0
H2533 H 0.05581 0.5133 0.80091 0.0
C2534 C 0.08814 0.48048 0.78325 0.0
C2535 C 0.10711 0.46532 0.77467 0.0
C2536 C 0.09132 0.50578 0.78462 0.0
C2537 C 0.12916 0.47579 0.76712 0.0
C2538 C 0.13222 0.50096 0.76761 0.0
C2539 C 0.11645 0.54151 0.77735 0.0
C2540 C 0.09767 0.55665 0.78661 0.0
C2541 C 0.11346 0.51616 0.77647 0.0
C2542 C 0.07604 0.546 0.79544 0.0
C2543 C 0.07284 0.52089 0.79432 0.0
H2544 H 0.21636 0.37599 0.4999 0.0
H2545 H 0.211 0.34667 0.5803 0.0
H2546 H 0.25516 0.34556 0.58379 0.0
H2547 H 0.29541 0.35164 0.56324 0.0
H2548 H 0.3007 0.3779 0.48163 0.0
H2549 H 0.25652 0.38136 0.47908 0.0
C2550 C 0.22488 0.36961 0.51829 0.0
C2551 C 0.21046 0.36168 0.54 0.0
C2552 C 0.25027 0.36823 0.51973 0.0
C2553 C 0.22174 0.35298 0.56345 0.0
C2554 C 0.24697 0.35228 0.56538 0.0
C2555 C 0.28678 0.3581 0.54494 0.0
C2556 C 0.30111 0.36451 0.5226 0.0
C2557 C 0.26142 0.35961 0.54355 0.0
C2558 C 0.28992 0.37283 0.49897 0.0
C2559 C 0.26472 0.37485 0.49758 0.0
H2560 H 0.09781 0.13102 0.10961 0.0
H2561 H 0.15465 0.18404 0.1092 0.0
H2562 H 0.15484 0.18466 0.15876 0.0
H2563 H 0.14153 0.16686 0.20245 0.0
H2564 H 0.08199 0.11688 0.20292 0.0
H2565 H 0.07991 0.11843 0.15347 0.0
C2566 C 0.10971 0.14325 0.12041 0.0
C2567 C 0.12605 0.15767 0.10566 0.0
C2568 C 0.10937 0.14383 0.14903 0.0
C2569 C 0.14161 0.17313 0.11999 0.0
C2570 C 0.14188 0.17328 0.14838 0.0
C2571 C 0.12772 0.1568 0.19172 0.0
C2572 C 0.11184 0.14183 0.20642 0.0
C2573 C 0.12624 0.15829 0.16317 0.0
C2574 C 0.09417 0.12878 0.19218 0.0
C2575 C 0.09312 0.12952 0.16384 0.0
H2576 H 0.11152 0.90249 0.4506 0.0
H2577 H 0.12901 0.82662 0.45503 0.0
H2578 H 0.12527 0.8232 0.40573 0.0
H2579 H 0.12045 0.8429 0.36042 0.0
H2580 H 0.10165 0.91848 0.35717 0.0
H2581 H 0.10221 0.92083 0.40649 0.0
C2582 C 0.11415 0.88508 0.44087 0.0
C2583 C 0.1206 0.86485 0.45674 0.0
C2584 C 0.11171 0.88321 0.41247 0.0
C2585 C 0.12384 0.84247 0.44356 0.0
C2586 C 0.12184 0.84055 0.41524 0.0
C2587 C 0.11574 0.85964 0.3706 0.0
C2588 C 0.11051 0.88042 0.35501 0.0
C2589 C 0.11617 0.86089 0.39933 0.0
C2590 C 0.1052 0.90215 0.36858 0.0
C2591 C 0.10574 0.90355 0.39686 0.0
H2592 H 0.41713 0.89842 0.69352 0.0
H2593 H 0.36768 0.84064 0.71119 0.0
H2594 H 0.36314 0.83209 0.66281 0.0
H2595 H 0.37012 0.84367 0.61479 0.0
H2596 H 0.41628 0.90431 0.5976 0.0
H2597 H 0.42537 0.90893 0.6457 0.0
C2598 C 0.40595 0.8835 0.68676 0.0
C2599 C 0.39332 0.86971 0.70611 0.0
C2600 C 0.40264 0.87933 0.65866 0.0
C2601 C 0.37807 0.85112 0.69685 0.0
C2602 C 0.37531 0.84636 0.66909 0.0
C2603 C 0.38268 0.85744 0.62156 0.0
C2604 C 0.39292 0.8733 0.60237 0.0
C2605 C 0.38711 0.86064 0.64967 0.0
C2606 C 0.40846 0.89162 0.61174 0.0
C2607 C 0.41356 0.89436 0.63937 0.0
H2608 H 0.3965 0.17417 0.85921 0.0
H2609 H 0.40037 0.09626 0.85791 0.0
H2610 H 0.40051 0.09529 0.90716 0.0
H2611 H 0.39625 0.11585 0.95053 0.0
H2612 H 0.39107 0.19362 0.95379 0.0
H2613 H 0.39518 0.19543 0.90434 0.0
C2614 C 0.39798 0.15709 0.8698 0.0
C2615 C 0.39875 0.13526 0.85477 0.0
C2616 C 0.39761 0.15661 0.89859 0.0
C2617 C 0.40005 0.11327 0.86888 0.0
C2618 C 0.4 0.11269 0.89712 0.0
C2619 C 0.39623 0.13332 0.94059 0.0
C2620 C 0.39318 0.15458 0.95616 0.0
C2621 C 0.39827 0.13415 0.91219 0.0
C2622 C 0.39349 0.17694 0.94258 0.0
C2623 C 0.39568 0.17795 0.91417 0.0
H2624 H 0.85925 0.86656 0.86106 0.0
H2625 H 0.93598 0.8783 0.85635 0.0
H2626 H 0.93938 0.8727 0.90545 0.0
H2627 H 0.91955 0.86826 0.95085 0.0
H2628 H 0.84286 0.85577 0.95395 0.0
H2629 H 0.84049 0.85766 0.90477 0.0
C2630 C 0.87682 0.8676 0.87065 0.0
C2631 C 0.89731 0.87302 0.85482 0.0
C2632 C 0.87864 0.8642 0.89887 0.0
C2633 C 0.91989 0.87406 0.86781 0.0
C2634 C 0.92182 0.87098 0.89602 0.0
C2635 C 0.90252 0.86514 0.94064 0.0
C2636 C 0.88143 0.86137 0.95617 0.0
C2637 C 0.90123 0.86645 0.91194 0.0
C2638 C 0.85939 0.85817 0.94256 0.0
C2639 C 0.85799 0.85948 0.91437 0.0
H2640 H 0.86505 0.14826 0.70123 0.0
H2641 H 0.94261 0.14488 0.70573 0.0
H2642 H 0.94517 0.15064 0.6565 0.0
H2643 H 0.92462 0.15225 0.61102 0.0
H2644 H 0.84689 0.1553 0.6086 0.0
H2645 H 0.84518 0.15422 0.65776 0.0
C2646 C 0.88261 0.14914 0.69159 0.0
C2647 C 0.90361 0.14598 0.70735 0.0
C2648 C 0.88388 0.15229 0.66334 0.0
C2649 C 0.92613 0.14739 0.6943 0.0
C2650 C 0.92756 0.1505 0.66602 0.0
C2651 C 0.90741 0.15337 0.62136 0.0
C2652 C 0.88585 0.15411 0.60602 0.0
C2653 C 0.9065 0.15241 0.65013 0.0
C2654 C 0.8637 0.15497 0.61981 0.0
C2655 C 0.86269 0.15421 0.648 0.0
H2656 H 0.59497 0.14738 0.45619 0.0
H2657 H 0.67252 0.14087 0.45804 0.0
H2658 H 0.67388 0.1405 0.40887 0.0
H2659 H 0.65348 0.13908 0.36536 0.0
H2660 H 0.57592 0.1438 0.36132 0.0
H2661 H 0.57416 0.14821 0.41077 0.0
C2662 C 0.61214 0.14641 0.44575 0.0
C2663 C 0.63371 0.14439 0.46097 0.0
C2664 C 0.6128 0.14567 0.41692 0.0
C2665 C 0.65572 0.14261 0.44698 0.0
C2666 C 0.65652 0.14229 0.41876 0.0
C2667 C 0.63608 0.14119 0.3751 0.0
C2668 C 0.61484 0.1409 0.35927 0.0
C2669 C 0.63522 0.14333 0.40352 0.0
C2670 C 0.59262 0.14401 0.37268 0.0
C2671 C 0.59161 0.1464 0.40111 0.0
H2672 H 0.61361 0.90169 0.11125 0.0
H2673 H 0.62121 0.82423 0.10562 0.0
H2674 H 0.61687 0.82098 0.15491 0.0
H2675 H 0.61477 0.84098 0.20064 0.0
H2676 H 0.60721 0.91854 0.20448 0.0
H2677 H 0.60759 0.92088 0.15528 0.0
C2678 C 0.61405 0.88399 0.12067 0.0
C2679 C 0.61791 0.86325 0.10451 0.0
C2680 C 0.6116 0.8823 0.149 0.0
C2681 C 0.61817 0.84053 0.11733 0.0
C2682 C 0.61583 0.83869 0.14565 0.0
C2683 C 0.6125 0.85825 0.19061 0.0
C2684 C 0.61059 0.87959 0.20633 0.0
C2685 C 0.613 0.85952 0.16187 0.0
C2686 C 0.60833 0.90187 0.19295 0.0
C2687 C 0.60872 0.90324 0.16475 0.0
H2688 H 0.65059 0.64501 0.7004 0.0
H2689 H 0.57318 0.63864 0.70414 0.0
H2690 H 0.57073 0.64423 0.65495 0.0
H2691 H 0.59134 0.64712 0.60974 0.0
H2692 H 0.66883 0.65326 0.60767 0.0
H2693 H 0.67047 0.65167 0.6569 0.0
C2694 C 0.63309 0.64507 0.6906 0.0
C2695 C 0.61211 0.6412 0.70621 0.0
C2696 C 0.63186 0.64824 0.6623 0.0
C2697 C 0.58965 0.64166 0.69288 0.0
C2698 C 0.58827 0.64472 0.66461 0.0
C2699 C 0.60845 0.64885 0.62017 0.0
C2700 C 0.62996 0.65076 0.60491 0.0
C2701 C 0.60931 0.64759 0.64892 0.0
C2702 C 0.65203 0.65222 0.61883 0.0
C2703 C 0.653 0.65112 0.64705 0.0
H2704 H 0.58806 0.38819 0.86622 0.0
H2705 H 0.64597 0.33908 0.84704 0.0
H2706 H 0.65054 0.32889 0.89488 0.0
H2707 H 0.64132 0.33753 0.94298 0.0
H2708 H 0.5862 0.38967 0.96241 0.0
H2709 H 0.57709 0.39489 0.91433 0.0
C2710 C 0.60113 0.3747 0.87251 0.0
C2711 C 0.6163 0.36399 0.85296 0.0
C2712 C 0.60432 0.36965 0.90038 0.0
C2713 C 0.63379 0.34724 0.86158 0.0
C2714 C 0.63652 0.34154 0.88902 0.0
C2715 C 0.62681 0.34943 0.93665 0.0
C2716 C 0.61403 0.36274 0.95633 0.0
C2717 C 0.62233 0.35306 0.90874 0.0
C2718 C 0.59593 0.37883 0.94773 0.0
C2719 C 0.59085 0.38197 0.92017 0.0
H2720 H 0.91184 0.38582 0.10997 0.0
H2721 H 0.85562 0.33211 0.10986 0.0
H2722 H 0.85581 0.33163 0.15941 0.0
H2723 H 0.86942 0.34945 0.20312 0.0
H2724 H 0.92851 0.39997 0.20334 0.0
H2725 H 0.93001 0.39858 0.15382 0.0
C2726 C 0.90008 0.37355 0.12082 0.0
C2727 C 0.8838 0.35889 0.10608 0.0
C2728 C 0.90071 0.37295 0.14948 0.0
C2729 C 0.86856 0.34327 0.12054 0.0
C2730 C 0.86852 0.34317 0.14897 0.0
C2731 C 0.88303 0.35967 0.19233 0.0
C2732 C 0.89894 0.37474 0.20706 0.0
C2733 C 0.88417 0.3583 0.16372 0.0
C2734 C 0.91631 0.38798 0.19267 0.0
C2735 C 0.91702 0.38734 0.16426 0.0
H2736 H 0.86262 0.65366 0.36172 0.0
H2737 H 0.93891 0.6393 0.35683 0.0
H2738 H 0.94234 0.64355 0.40613 0.0
H2739 H 0.92241 0.64708 0.45158 0.0
H2740 H 0.84609 0.66185 0.45492 0.0
H2741 H 0.84392 0.66182 0.40567 0.0
C2742 C 0.8801 0.65179 0.37134 0.0
C2743 C 0.90044 0.646 0.35544 0.0
C2744 C 0.88189 0.65426 0.39967 0.0
C2745 C 0.92295 0.6439 0.3684 0.0
C2746 C 0.92487 0.64615 0.39671 0.0
C2747 C 0.90552 0.65103 0.44143 0.0
C2748 C 0.88445 0.65484 0.45698 0.0
C2749 C 0.90434 0.6508 0.41272 0.0
C2750 C 0.86258 0.65927 0.44348 0.0
C2751 C 0.86129 0.65907 0.41526 0.0
H2752 H 0.37649 0.3495 0.36047 0.0
H2753 H 0.42855 0.40725 0.35891 0.0
H2754 H 0.43025 0.40728 0.40842 0.0
H2755 H 0.41382 0.39344 0.4525 0.0
H2756 H 0.36488 0.333 0.45416 0.0
H2757 H 0.36525 0.33116 0.40465 0.0
C2758 C 0.38867 0.36163 0.371 0.0
C2759 C 0.4025 0.37829 0.35594 0.0
C2760 C 0.38996 0.36115 0.39961 0.0
C2761 C 0.41802 0.39403 0.36992 0.0
C2762 C 0.41882 0.39419 0.39829 0.0
C2763 C 0.40373 0.37948 0.44201 0.0
C2764 C 0.38938 0.36331 0.45712 0.0
C2765 C 0.40448 0.37819 0.41342 0.0
C2766 C 0.37632 0.34543 0.44316 0.0
C2767 C 0.37636 0.34453 0.41476 0.0
H2768 H 0.36203 0.6511 0.20037 0.0
H2769 H 0.43878 0.63937 0.2053 0.0
H2770 H 0.44198 0.64314 0.15596 0.0
H2771 H 0.42197 0.64596 0.11043 0.0
H2772 H 0.34519 0.65806 0.10707 0.0
H2773 H 0.34302 0.65801 0.15633 0.0
C2774 C 0.37956 0.64963 0.19076 0.0
C2775 C 0.40011 0.64478 0.20676 0.0
C2776 C 0.38123 0.65184 0.16238 0.0
C2777 C 0.42265 0.64322 0.19372 0.0
C2778 C 0.42445 0.64522 0.16537 0.0
C2779 C 0.40495 0.64931 0.12057 0.0
C2780 C 0.38378 0.65245 0.10497 0.0
C2781 C 0.40377 0.64908 0.14933 0.0
C2782 C 0.36177 0.65606 0.11851 0.0
C2783 C 0.36048 0.65584 0.14674 0.0
H2784 H 0.1058 0.61017 0.86641 0.0
H2785 H 0.11608 0.68544 0.8481 0.0
H2786 H 0.11952 0.69476 0.89669 0.0
H2787 H 0.12365 0.68026 0.94488 0.0
H2788 H 0.11177 0.6044 0.9609 0.0
H2789 H 0.10474 0.59681 0.91341 0.0
C2790 C 0.10817 0.62873 0.87309 0.0
C2791 C 0.11039 0.64709 0.85363 0.0
C2792 C 0.11015 0.63386 0.90096 0.0
C2793 C 0.11385 0.671 0.86263 0.0
C2794 C 0.11605 0.67628 0.89049 0.0
C2795 C 0.11898 0.66223 0.93804 0.0
C2796 C 0.11866 0.64293 0.95686 0.0
C2797 C 0.11477 0.65773 0.90998 0.0
C2798 C 0.11261 0.61965 0.94723 0.0
C2799 C 0.10852 0.61518 0.91986 0.0
H2800 H 0.13746 0.35103 0.70191 0.0
H2801 H 0.08009 0.40364 0.70388 0.0
H2802 H 0.07808 0.40319 0.65437 0.0
H2803 H 0.09553 0.39068 0.61007 0.0
H2804 H 0.14998 0.33503 0.60819 0.0
H2805 H 0.15011 0.33354 0.6577 0.0
C2806 C 0.12408 0.36189 0.69149 0.0
C2807 C 0.10882 0.37726 0.70669 0.0
C2808 C 0.12265 0.3611 0.66288 0.0
C2809 C 0.09176 0.39139 0.6928 0.0
C2810 C 0.09077 0.39129 0.66441 0.0
C2811 C 0.10694 0.37778 0.62052 0.0
C2812 C 0.12264 0.36286 0.60534 0.0
C2813 C 0.10648 0.37662 0.64916 0.0
C2814 C 0.13747 0.34642 0.61926 0.0
C2815 C 0.13769 0.34573 0.64765 0.0
loop_
_geom_bond_atom_site_label_1
_geom_bond_atom_site_label_2
_geom_bond_distance
_geom_bond_site_symmetry_2
_ccdc_geom_bond_type
Gd0 C3 2.818 . S
Gd0 O20 2.377 . S
Gd0 O22 2.448 . S
Gd0 O23 2.506 . S
Gd0 O24 2.435 . S
Gd0 O25 2.717 . S
Gd0 O27 2.395 . S
Gd0 O31 2.327 . S
Gd1 C12 2.818 . S
Gd1 O21 2.395 . S
Gd1 O25 2.327 . S
Gd1 O26 2.377 . S
Gd1 O28 2.448 . S
Gd1 O29 2.506 . S
Gd1 O30 2.435 . S
Gd1 O31 2.717 . S
C2 O20 1.240 . S
C2 O21 1.240 . S
C3 Gd0 2.818 . S
C3 C4 1.510 . S
C3 O22 1.249 . S
C3 O23 1.252 . S
C4 C3 1.510 . S
C4 C5 1.404 . S
C4 C6 1.352 . S
C5 C4 1.404 . S
C5 C9 1.389 . S
C5 H32 0.930 . S
C6 C4 1.352 . S
C6 C8 1.374 . S
C6 H33 0.931 . S
C7 C8 1.359 . S
C7 C9 1.364 . S
C8 C6 1.374 . S
C8 C7 1.359 . S
C8 H34 0.931 . S
C9 C5 1.389 . S
C9 C7 1.364 . S
C9 H35 0.931 . S
C10 O24 1.256 . S
C10 O25 1.257 . S
C11 O26 1.240 . S
C11 O27 1.240 . S
C12 Gd1 2.818 . S
C12 C13 1.510 . S
C12 O28 1.249 . S
C12 O29 1.252 . S
C13 C12 1.510 . S
C13 C14 1.404 . S
C13 C15 1.352 . S
C14 C13 1.404 . S
C14 C18 1.389 . S
C14 H36 0.930 . S
C15 C13 1.352 . S
C15 C17 1.374 . S
C15 H37 0.931 . S
C16 C17 1.359 . S
C16 C18 1.364 . S
C17 C15 1.374 . S
C17 C16 1.359 . S
C17 H38 0.931 . S
C18 C14 1.389 . S
C18 C16 1.364 . S
C18 H39 0.931 1_455 S
C19 O30 1.256 . S
C19 O31 1.257 . S
O20 Gd0 2.377 . S
O20 C2 1.240 . S
O21 Gd1 2.395 . S
O21 C2 1.240 . S
O22 Gd0 2.448 . S
O22 C3 1.249 . S
O23 Gd0 2.506 . S
O23 C3 1.252 . S
O24 Gd0 2.435 . S
O24 C10 1.256 . S
O25 Gd0 2.717 . S
O25 Gd1 2.327 . S
O25 C10 1.257 . S
O26 Gd1 2.377 . S
O26 C11 1.240 . S
O27 Gd0 2.395 . S
O27 C11 1.240 . S
O28 Gd1 2.448 . S
O28 C12 1.249 . S
O29 Gd1 2.506 . S
O29 C12 1.252 . S
O30 Gd1 2.435 . S
O30 C19 1.256 . S
O31 Gd0 2.327 . S
O31 Gd1 2.717 . S
O31 C19 1.257 . S
H32 C5 0.930 . S
H33 C6 0.931 . S
H34 C8 0.931 . S
H35 C9 0.931 . S
H36 C14 0.930 . S
H37 C15 0.931 . S
H38 C17 0.931 . S
H39 C18 0.931 1_655 S
Gd40 C43 2.818 . S
Gd40 O60 2.377 . S
Gd40 O62 2.448 . S
Gd40 O63 2.506 . S
Gd40 O64 2.435 . S
Gd40 O65 2.717 . S
Gd40 O67 2.395 . S
Gd40 O71 2.327 . S
Gd41 C52 2.818 . S
Gd41 O61 2.395 . S
Gd41 O65 2.327 . S
Gd41 O66 2.377 . S
Gd41 O68 2.448 . S
Gd41 O69 2.506 . S
Gd41 O70 2.435 . S
Gd41 O71 2.717 . S
C42 O60 1.240 . S
C42 O61 1.240 . S
C43 Gd40 2.818 . S
C43 C44 1.510 . S
C43 O62 1.249 . S
C43 O63 1.252 . S
C44 C43 1.510 . S
C44 C45 1.404 . S
C44 C46 1.352 . S
C45 C44 1.404 . S
C45 C49 1.389 1_565 S
C45 H72 0.930 . S
C46 C44 1.352 . S
C46 C48 1.374 . S
C46 H73 0.931 . S
C47 C48 1.337 1_545 S
C47 C49 1.366 . S
C48 C46 1.374 . S
C48 C47 1.337 1_565 S
C48 H74 0.931 . S
C49 C45 1.389 1_545 S
C49 C47 1.366 . S
C49 H75 0.931 . S
C50 O64 1.256 . S
C50 O65 1.257 . S
C51 O66 1.240 . S
C51 O67 1.240 . S
C52 Gd41 2.818 . S
C52 C53 1.510 . S
C52 O68 1.249 . S
C52 O69 1.252 . S
C53 C52 1.510 . S
C53 C54 1.404 . S
C53 C55 1.352 . S
C54 C53 1.404 . S
C54 C58 1.389 . S
C54 H76 0.930 . S
C55 C53 1.352 . S
C55 C57 1.374 . S
C55 H77 0.931 . S
C56 C57 1.359 . S
C56 C58 1.364 . S
C57 C55 1.374 . S
C57 C56 1.359 . S
C57 H78 0.931 . S
C58 C54 1.389 . S
C58 C56 1.364 . S
C58 H79 0.931 . S
C59 O70 1.256 . S
C59 O71 1.257 . S
O60 Gd40 2.377 . S
O60 C42 1.240 . S
O61 Gd41 2.395 . S
O61 C42 1.240 . S
O62 Gd40 2.448 . S
O62 C43 1.249 . S
O63 Gd40 2.506 . S
O63 C43 1.252 . S
O64 Gd40 2.435 . S
O64 C50 1.256 . S
O65 Gd40 2.717 . S
O65 Gd41 2.327 . S
O65 C50 1.257 . S
O66 Gd41 2.377 . S
O66 C51 1.240 . S
O67 Gd40 2.395 . S
O67 C51 1.240 . S
O68 Gd41 2.448 . S
O68 C52 1.249 . S
O69 Gd41 2.506 . S
O69 C52 1.252 . S
O70 Gd41 2.435 . S
O70 C59 1.256 . S
O71 Gd40 2.327 . S
O71 Gd41 2.717 . S
O71 C59 1.257 . S
H72 C45 0.930 . S
H73 C46 0.931 . S
H74 C48 0.931 . S
H75 C49 0.931 . S
H76 C54 0.930 . S
H77 C55 0.931 . S
H78 C57 0.931 . S
H79 C58 0.931 . S
Gd80 C83 2.818 . S
Gd80 O100 2.377 . S
Gd80 O102 2.448 . S
Gd80 O103 2.506 . S
Gd80 O104 2.435 . S
Gd80 O105 2.717 . S
Gd80 O107 2.395 . S
Gd80 O111 2.327 . S
Gd81 C92 2.818 . S
Gd81 O101 2.395 . S
Gd81 O105 2.327 . S
Gd81 O106 2.377 . S
Gd81 O108 2.448 . S
Gd81 O109 2.506 . S
Gd81 O110 2.435 . S
Gd81 O111 2.717 . S
C82 O100 1.240 . S
C82 O101 1.240 . S
C83 Gd80 2.818 . S
C83 C84 1.510 . S
C83 O102 1.249 . S
C83 O103 1.252 . S
C84 C83 1.510 . S
C84 C85 1.404 . S
C84 C86 1.352 . S
C85 C84 1.404 . S
C85 C89 1.389 . S
C85 H112 0.930 . S
C86 C84 1.352 . S
C86 C88 1.374 . S
C86 H113 0.931 . S
C87 C88 1.359 . S
C87 C89 1.364 . S
C88 C86 1.374 . S
C88 C87 1.359 . S
C88 H114 0.931 . S
C89 C85 1.389 . S
C89 C87 1.364 . S
C89 H115 0.931 . S
C90 O104 1.256 . S
C90 O105 1.257 . S
C91 O106 1.240 . S
C91 O107 1.240 . S
C92 Gd81 2.818 . S
C92 C93 1.510 . S
C92 O108 1.249 . S
C92 O109 1.252 . S
C93 C92 1.510 . S
C93 C94 1.404 . S
C93 C95 1.352 . S
C94 C93 1.404 . S
C94 C98 1.389 . S
C94 H116 0.930 . S
C95 C93 1.352 . S
C95 C97 1.374 . S
C95 H117 0.931 . S
C96 C97 1.359 . S
C96 C98 1.364 . S
C97 C95 1.374 . S
C97 C96 1.359 . S
C97 H118 0.931 . S
C98 C94 1.389 . S
C98 C96 1.364 . S
C98 H119 0.931 . S
C99 O110 1.256 . S
C99 O111 1.257 . S
O100 Gd80 2.377 . S
O100 C82 1.240 . S
O101 Gd81 2.395 . S
O101 C82 1.240 . S
O102 Gd80 2.448 . S
O102 C83 1.249 . S
O103 Gd80 2.506 . S
O103 C83 1.252 . S
O104 Gd80 2.435 . S
O104 C90 1.256 . S
O105 Gd80 2.717 . S
O105 Gd81 2.327 . S
O105 C90 1.257 . S
O106 Gd81 2.377 . S
O106 C91 1.240 . S
O107 Gd80 2.395 . S
O107 C91 1.240 . S
O108 Gd81 2.448 . S
O108 C92 1.249 . S
O109 Gd81 2.506 . S
O109 C92 1.252 . S
O110 Gd81 2.435 . S
O110 C99 1.256 . S
O111 Gd80 2.327 . S
O111 Gd81 2.717 . S
O111 C99 1.257 . S
H112 C85 0.930 . S
H113 C86 0.931 . S
H114 C88 0.931 . S
H115 C89 0.931 . S
H116 C94 0.930 . S
H117 C95 0.931 . S
H118 C97 0.931 . S
H119 C98 0.931 . S
Gd120 C123 2.818 1_554 S
Gd120 O140 2.377 1_554 S
Gd120 O142 2.443 1_554 S
Gd120 O143 2.506 1_554 S
Gd120 O144 2.435 . S
Gd120 O145 2.717 . S
Gd120 O147 2.395 . S
Gd120 O151 2.327 . S
Gd121 C132 2.818 . S
Gd121 O141 2.395 1_554 S
Gd121 O145 2.327 . S
Gd121 O146 2.377 . S
Gd121 O148 2.448 . S
Gd121 O149 2.506 . S
Gd121 O150 2.435 . S
Gd121 O151 2.717 . S
C122 O140 1.240 . S
C122 O141 1.240 . S
C123 Gd120 2.818 1_556 S
C123 C124 1.510 . S
C123 O142 1.258 . S
C123 O143 1.252 . S
C124 C123 1.510 . S
C124 C125 1.404 . S
C124 C126 1.352 . S
C125 C124 1.404 . S
C125 C129 1.389 1_545 S
C125 H152 0.930 . S
C126 C124 1.352 . S
C126 C128 1.374 . S
C126 H153 0.931 . S
C127 C128 1.337 1_565 S
C127 C129 1.366 . S
C128 C126 1.374 . S
C128 C127 1.337 1_545 S
C128 H154 0.931 . S
C129 C125 1.389 1_565 S
C129 C127 1.366 . S
C129 H155 0.931 . S
C130 O144 1.256 . S
C130 O145 1.257 . S
C131 O146 1.240 . S
C131 O147 1.240 . S
C132 Gd121 2.818 . S
C132 C133 1.510 . S
C132 O148 1.249 . S
C132 O149 1.252 . S
C133 C132 1.510 . S
C133 C134 1.404 . S
C133 C135 1.352 . S
C134 C133 1.404 . S
C134 C138 1.389 . S
C134 H156 0.930 . S
C135 C133 1.352 . S
C135 C137 1.374 . S
C135 H157 0.931 . S
C136 C137 1.359 . S
C136 C138 1.364 . S
C137 C135 1.374 . S
C137 C136 1.359 . S
C137 H158 0.931 . S
C138 C134 1.389 . S
C138 C136 1.364 . S
C138 H159 0.931 . S
C139 O150 1.256 . S
C139 O151 1.257 . S
O140 Gd120 2.377 1_556 S
O140 C122 1.240 . S
O141 Gd121 2.395 1_556 S
O141 C122 1.240 . S
O142 Gd120 2.443 1_556 S
O142 C123 1.258 . S
O143 Gd120 2.506 1_556 S
O143 C123 1.252 . S
O144 Gd120 2.435 . S
O144 C130 1.256 . S
O145 Gd120 2.717 . S
O145 Gd121 2.327 . S
O145 C130 1.257 . S
O146 Gd121 2.377 . S
O146 C131 1.240 . S
O147 Gd120 2.395 . S
O147 C131 1.240 . S
O148 Gd121 2.448 . S
O148 C132 1.249 . S
O149 Gd121 2.506 . S
O149 C132 1.252 . S
O150 Gd121 2.435 . S
O150 C139 1.256 . S
O151 Gd120 2.327 . S
O151 Gd121 2.717 . S
O151 C139 1.257 . S
H152 C125 0.930 . S
H153 C126 0.931 . S
H154 C128 0.931 . S
H155 C129 0.931 . S
H156 C134 0.930 . S
H157 C135 0.931 . S
H158 C137 0.931 . S
H159 C138 0.931 . S
Gd160 C163 2.818 . S
Gd160 O180 2.377 . S
Gd160 O182 2.448 . S
Gd160 O183 2.506 . S
Gd160 O184 2.435 . S
Gd160 O185 2.717 . S
Gd160 O187 2.395 . S
Gd160 O191 2.327 . S
Gd161 C172 2.818 . S
Gd161 O181 2.395 . S
Gd161 O185 2.327 . S
Gd161 O186 2.377 . S
Gd161 O188 2.448 . S
Gd161 O189 2.506 . S
Gd161 O190 2.435 . S
Gd161 O191 2.717 . S
C162 O180 1.240 . S
C162 O181 1.240 . S
C163 Gd160 2.818 . S
C163 C164 1.510 . S
C163 O182 1.249 . S
C163 O183 1.252 . S
C164 C163 1.510 . S
C164 C165 1.404 . S
C164 C166 1.352 . S
C165 C164 1.404 . S
C165 C169 1.389 . S
C165 H192 0.930 . S
C166 C164 1.352 . S
C166 C168 1.374 . S
C166 H193 0.931 . S
C167 C168 1.359 . S
C167 C169 1.364 . S
C168 C166 1.374 . S
C168 C167 1.359 . S
C168 H194 0.931 . S
C169 C165 1.389 . S
C169 C167 1.364 . S
C169 H195 0.931 . S
C170 O184 1.256 . S
C170 O185 1.257 . S
C171 O186 1.240 . S
C171 O187 1.240 . S
C172 Gd161 2.818 . S
C172 C173 1.510 . S
C172 O188 1.249 . S
C172 O189 1.252 . S
C173 C172 1.510 . S
C173 C174 1.404 . S
C173 C175 1.352 . S
C174 C173 1.404 . S
C174 C178 1.389 . S
C174 H196 0.930 . S
C175 C173 1.352 . S
C175 C177 1.374 . S
C175 H197 0.931 . S
C176 C177 1.359 . S
C176 C178 1.364 . S
C177 C175 1.374 . S
C177 C176 1.359 . S
C177 H198 0.931 . S
C178 C174 1.389 . S
C178 C176 1.364 . S
C178 H199 0.931 1_455 S
C179 O190 1.256 . S
C179 O191 1.257 . S
O180 Gd160 2.377 . S
O180 C162 1.240 . S
O181 Gd161 2.395 . S
O181 C162 1.240 . S
O182 Gd160 2.448 . S
O182 C163 1.249 . S
O183 Gd160 2.506 . S
O183 C163 1.252 . S
O184 Gd160 2.435 . S
O184 C170 1.256 . S
O185 Gd160 2.717 . S
O185 Gd161 2.327 . S
O185 C170 1.257 . S
O186 Gd161 2.377 . S
O186 C171 1.240 . S
O187 Gd160 2.395 . S
O187 C171 1.240 . S
O188 Gd161 2.448 . S
O188 C172 1.249 . S
O189 Gd161 2.506 . S
O189 C172 1.252 . S
O190 Gd161 2.435 . S
O190 C179 1.256 . S
O191 Gd160 2.327 . S
O191 Gd161 2.717 . S
O191 C179 1.257 . S
H192 C165 0.930 . S
H193 C166 0.931 . S
H194 C168 0.931 . S
H195 C169 0.931 . S
H196 C174 0.930 . S
H197 C175 0.931 . S
H198 C177 0.931 . S
H199 C178 0.931 1_655 S
Gd200 C203 2.818 . S
Gd200 O220 2.377 . S
Gd200 O222 2.448 . S
Gd200 O223 2.506 . S
Gd200 O224 2.435 . S
Gd200 O225 2.717 . S
Gd200 O227 2.395 . S
Gd200 O231 2.327 . S
Gd201 C212 2.818 . S
Gd201 O221 2.395 . S
Gd201 O225 2.327 . S
Gd201 O226 2.377 . S
Gd201 O228 2.448 . S
Gd201 O229 2.506 . S
Gd201 O230 2.435 . S
Gd201 O231 2.717 . S
C202 O220 1.240 . S
C202 O221 1.240 . S
C203 Gd200 2.818 . S
C203 C204 1.510 . S
C203 O222 1.249 . S
C203 O223 1.252 . S
C204 C203 1.510 . S
C204 C205 1.404 . S
C204 C206 1.352 . S
C205 C204 1.404 . S
C205 C209 1.389 1_565 S
C205 H232 0.930 . S
C206 C204 1.352 . S
C206 C208 1.374 . S
C206 H233 0.931 . S
C207 C208 1.337 1_545 S
C207 C209 1.366 . S
C208 C206 1.374 . S
C208 C207 1.337 1_565 S
C208 H234 0.931 . S
C209 C205 1.389 1_545 S
C209 C207 1.366 . S
C209 H235 0.931 . S
C210 O224 1.256 . S
C210 O225 1.257 . S
C211 O226 1.240 . S
C211 O227 1.240 . S
C212 Gd201 2.818 . S
C212 C213 1.510 . S
C212 O228 1.249 . S
C212 O229 1.252 . S
C213 C212 1.510 . S
C213 C214 1.404 . S
C213 C215 1.352 . S
C214 C213 1.404 . S
C214 C218 1.389 . S
C214 H236 0.930 . S
C215 C213 1.352 . S
C215 C217 1.374 . S
C215 H237 0.931 . S
C216 C217 1.359 . S
C216 C218 1.364 . S
C217 C215 1.374 . S
C217 C216 1.359 . S
C217 H238 0.931 . S
C218 C214 1.389 . S
C218 C216 1.364 . S
C218 H239 0.931 . S
C219 O230 1.256 . S
C219 O231 1.257 . S
O220 Gd200 2.377 . S
O220 C202 1.240 . S
O221 Gd201 2.395 . S
O221 C202 1.240 . S
O222 Gd200 2.448 . S
O222 C203 1.249 . S
O223 Gd200 2.506 . S
O223 C203 1.252 . S
O224 Gd200 2.435 . S
O224 C210 1.256 . S
O225 Gd200 2.717 . S
O225 Gd201 2.327 . S
O225 C210 1.257 . S
O226 Gd201 2.377 . S
O226 C211 1.240 . S
O227 Gd200 2.395 . S
O227 C211 1.240 . S
O228 Gd201 2.448 . S
O228 C212 1.249 . S
O229 Gd201 2.506 . S
O229 C212 1.252 . S
O230 Gd201 2.435 . S
O230 C219 1.256 . S
O231 Gd200 2.327 . S
O231 Gd201 2.717 . S
O231 C219 1.257 . S
H232 C205 0.930 . S
H233 C206 0.931 . S
H234 C208 0.931 . S
H235 C209 0.931 . S
H236 C214 0.930 . S
H237 C215 0.931 . S
H238 C217 0.931 . S
H239 C218 0.931 . S
Gd240 C243 2.818 . S
Gd240 O260 2.377 . S
Gd240 O262 2.448 . S
Gd240 O263 2.506 . S
Gd240 O264 2.435 . S
Gd240 O265 2.717 . S
Gd240 O267 2.395 . S
Gd240 O271 2.327 . S
Gd241 C252 2.818 . S
Gd241 O261 2.395 . S
Gd241 O265 2.327 . S
Gd241 O266 2.377 . S
Gd241 O268 2.448 . S
Gd241 O269 2.506 . S
Gd241 O270 2.435 . S
Gd241 O271 2.717 . S
C242 O260 1.240 . S
C242 O261 1.240 . S
C243 Gd240 2.818 . S
C243 C244 1.510 . S
C243 O262 1.249 . S
C243 O263 1.252 . S
C244 C243 1.510 . S
C244 C245 1.404 . S
C244 C246 1.352 . S
C245 C244 1.404 . S
C245 C249 1.389 . S
C245 H272 0.930 . S
C246 C244 1.352 . S
C246 C248 1.374 . S
C246 H273 0.931 . S
C247 C248 1.359 . S
C247 C249 1.364 . S
C248 C246 1.374 . S
C248 C247 1.359 . S
C248 H274 0.931 . S
C249 C245 1.389 . S
C249 C247 1.364 . S
C249 H275 0.931 . S
C250 O264 1.256 . S
C250 O265 1.257 . S
C251 O266 1.240 . S
C251 O267 1.240 . S
C252 Gd241 2.818 . S
C252 C253 1.510 . S
C252 O268 1.249 . S
C252 O269 1.252 . S
C253 C252 1.510 . S
C253 C254 1.404 . S
C253 C255 1.352 . S
C254 C253 1.404 . S
C254 C258 1.389 . S
C254 H276 0.930 . S
C255 C253 1.352 . S
C255 C257 1.374 . S
C255 H277 0.931 . S
C256 C257 1.359 . S
C256 C258 1.364 . S
C257 C255 1.374 . S
C257 C256 1.359 . S
C257 H278 0.931 . S
C258 C254 1.389 . S
C258 C256 1.364 . S
C258 H279 0.931 . S
C259 O270 1.256 . S
C259 O271 1.257 . S
O260 Gd240 2.377 . S
O260 C242 1.240 . S
O261 Gd241 2.395 . S
O261 C242 1.240 . S
O262 Gd240 2.448 . S
O262 C243 1.249 . S
O263 Gd240 2.506 . S
O263 C243 1.252 . S
O264 Gd240 2.435 . S
O264 C250 1.256 . S
O265 Gd240 2.717 . S
O265 Gd241 2.327 . S
O265 C250 1.257 . S
O266 Gd241 2.377 . S
O266 C251 1.240 . S
O267 Gd240 2.395 . S
O267 C251 1.240 . S
O268 Gd241 2.448 . S
O268 C252 1.249 . S
O269 Gd241 2.506 . S
O269 C252 1.252 . S
O270 Gd241 2.435 . S
O270 C259 1.256 . S
O271 Gd240 2.327 . S
O271 Gd241 2.717 . S
O271 C259 1.257 . S
H272 C245 0.930 . S
H273 C246 0.931 . S
H274 C248 0.931 . S
H275 C249 0.931 . S
H276 C254 0.930 . S
H277 C255 0.931 . S
H278 C257 0.931 . S
H279 C258 0.931 . S
Gd280 C283 2.818 1_556 S
Gd280 O300 2.377 1_556 S
Gd280 O302 2.443 1_556 S
Gd280 O303 2.506 1_556 S
Gd280 O304 2.435 . S
Gd280 O305 2.717 . S
Gd280 O307 2.395 . S
Gd280 O311 2.327 . S
Gd281 C292 2.818 . S
Gd281 O301 2.395 1_556 S
Gd281 O305 2.327 . S
Gd281 O306 2.377 . S
Gd281 O308 2.448 . S
Gd281 O309 2.506 . S
Gd281 O310 2.435 . S
Gd281 O311 2.717 . S
C282 O300 1.240 . S
C282 O301 1.240 . S
C283 Gd280 2.818 1_554 S
C283 C284 1.510 . S
C283 O302 1.258 . S
C283 O303 1.252 . S
C284 C283 1.510 . S
C284 C285 1.404 . S
C284 C286 1.352 . S
C285 C284 1.404 . S
C285 C289 1.389 1_545 S
C285 H312 0.930 . S
C286 C284 1.352 . S
C286 C288 1.374 . S
C286 H313 0.931 . S
C287 C288 1.337 1_565 S
C287 C289 1.366 . S
C288 C286 1.374 . S
C288 C287 1.337 1_545 S
C288 H314 0.931 . S
C289 C285 1.389 1_565 S
C289 C287 1.366 . S
C289 H315 0.931 . S
C290 O304 1.256 . S
C290 O305 1.257 . S
C291 O306 1.240 . S
C291 O307 1.240 . S
C292 Gd281 2.818 . S
C292 C293 1.510 . S
C292 O308 1.249 . S
C292 O309 1.252 . S
C293 C292 1.510 . S
C293 C294 1.404 . S
C293 C295 1.352 . S
C294 C293 1.404 . S
C294 C298 1.389 . S
C294 H316 0.930 . S
C295 C293 1.352 . S
C295 C297 1.374 . S
C295 H317 0.931 . S
C296 C297 1.359 . S
C296 C298 1.364 . S
C297 C295 1.374 . S
C297 C296 1.359 . S
C297 H318 0.931 . S
C298 C294 1.389 . S
C298 C296 1.364 . S
C298 H319 0.931 . S
C299 O310 1.256 . S
C299 O311 1.257 . S
O300 Gd280 2.377 1_554 S
O300 C282 1.240 . S
O301 Gd281 2.395 1_554 S
O301 C282 1.240 . S
O302 Gd280 2.443 1_554 S
O302 C283 1.258 . S
O303 Gd280 2.506 1_554 S
O303 C283 1.252 . S
O304 Gd280 2.435 . S
O304 C290 1.256 . S
O305 Gd280 2.717 . S
O305 Gd281 2.327 . S
O305 C290 1.257 . S
O306 Gd281 2.377 . S
O306 C291 1.240 . S
O307 Gd280 2.395 . S
O307 C291 1.240 . S
O308 Gd281 2.448 . S
O308 C292 1.249 . S
O309 Gd281 2.506 . S
O309 C292 1.252 . S
O310 Gd281 2.435 . S
O310 C299 1.256 . S
O311 Gd280 2.327 . S
O311 Gd281 2.717 . S
O311 C299 1.257 . S
H312 C285 0.930 . S
H313 C286 0.931 . S
H314 C288 0.931 . S
H315 C289 0.931 . S
H316 C294 0.930 . S
H317 C295 0.931 . S
H318 C297 0.931 . S
H319 C298 0.931 . S
Gd320 C323 2.818 . S
Gd320 O340 2.377 . S
Gd320 O342 2.448 . S
Gd320 O343 2.506 . S
Gd320 O344 2.435 . S
Gd320 O345 2.717 . S
Gd320 O347 2.395 . S
Gd320 O351 2.327 . S
Gd321 C332 2.818 . S
Gd321 O341 2.395 . S
Gd321 O345 2.327 . S
Gd321 O346 2.377 . S
Gd321 O348 2.448 . S
Gd321 O349 2.506 . S
Gd321 O350 2.435 . S
Gd321 O351 2.717 . S
C322 O340 1.240 . S
C322 O341 1.240 . S
C323 Gd320 2.818 . S
C323 C324 1.510 . S
C323 O342 1.249 . S
C323 O343 1.252 . S
C324 C323 1.510 . S
C324 C325 1.404 . S
C324 C326 1.352 . S
C325 C324 1.404 . S
C325 C329 1.389 . S
C325 H352 0.930 . S
C326 C324 1.352 . S
C326 C328 1.374 . S
C326 H353 0.931 . S
C327 C328 1.359 . S
C327 C329 1.364 . S
C328 C326 1.374 . S
C328 C327 1.359 . S
C328 H354 0.931 . S
C329 C325 1.389 . S
C329 C327 1.364 . S
C329 H355 0.931 1_655 S
C330 O344 1.256 . S
C330 O345 1.257 . S
C331 O346 1.240 . S
C331 O347 1.240 . S
C332 Gd321 2.818 . S
C332 C333 1.510 . S
C332 O348 1.249 . S
C332 O349 1.252 . S
C333 C332 1.510 . S
C333 C334 1.404 . S
C333 C335 1.352 . S
C334 C333 1.404 . S
C334 C338 1.389 . S
C334 H356 0.930 . S
C335 C333 1.352 . S
C335 C337 1.374 . S
C335 H357 0.931 . S
C336 C337 1.359 . S
C336 C338 1.364 . S
C337 C335 1.374 . S
C337 C336 1.359 . S
C337 H358 0.931 . S
C338 C334 1.389 . S
C338 C336 1.364 . S
C338 H359 0.931 . S
C339 O350 1.256 . S
C339 O351 1.257 . S
O340 Gd320 2.377 . S
O340 C322 1.240 . S
O341 Gd321 2.395 . S
O341 C322 1.240 . S
O342 Gd320 2.448 . S
O342 C323 1.249 . S
O343 Gd320 2.506 . S
O343 C323 1.252 . S
O344 Gd320 2.435 . S
O344 C330 1.256 . S
O345 Gd320 2.717 . S
O345 Gd321 2.327 . S
O345 C330 1.257 . S
O346 Gd321 2.377 . S
O346 C331 1.240 . S
O347 Gd320 2.395 . S
O347 C331 1.240 . S
O348 Gd321 2.448 . S
O348 C332 1.249 . S
O349 Gd321 2.506 . S
O349 C332 1.252 . S
O350 Gd321 2.435 . S
O350 C339 1.256 . S
O351 Gd320 2.327 . S
O351 Gd321 2.717 . S
O351 C339 1.257 . S
H352 C325 0.930 . S
H353 C326 0.931 . S
H354 C328 0.931 . S
H355 C329 0.931 1_455 S
H356 C334 0.930 . S
H357 C335 0.931 . S
H358 C337 0.931 . S
H359 C338 0.931 . S
Gd360 C363 2.818 . S
Gd360 O380 2.377 . S
Gd360 O382 2.448 . S
Gd360 O383 2.506 . S
Gd360 O384 2.435 . S
Gd360 O385 2.717 . S
Gd360 O387 2.395 . S
Gd360 O391 2.327 . S
Gd361 C372 2.818 . S
Gd361 O381 2.395 . S
Gd361 O385 2.327 . S
Gd361 O386 2.377 . S
Gd361 O388 2.448 . S
Gd361 O389 2.506 . S
Gd361 O390 2.435 . S
Gd361 O391 2.717 . S
C362 O380 1.240 . S
C362 O381 1.240 . S
C363 Gd360 2.818 . S
C363 C364 1.510 . S
C363 O382 1.249 . S
C363 O383 1.252 . S
C364 C363 1.510 . S
C364 C365 1.404 . S
C364 C366 1.352 . S
C365 C364 1.404 . S
C365 C369 1.389 . S
C365 H392 0.930 . S
C366 C364 1.352 . S
C366 C368 1.374 . S
C366 H393 0.931 . S
C367 C368 1.359 . S
C367 C369 1.364 . S
C368 C366 1.374 . S
C368 C367 1.359 . S
C368 H394 0.931 . S
C369 C365 1.389 . S
C369 C367 1.364 . S
C369 H395 0.931 . S
C370 O384 1.256 . S
C370 O385 1.257 . S
C371 O386 1.240 . S
C371 O387 1.240 . S
C372 Gd361 2.818 . S
C372 C373 1.510 . S
C372 O388 1.249 . S
C372 O389 1.252 . S
C373 C372 1.510 . S
C373 C374 1.404 . S
C373 C375 1.352 . S
C374 C373 1.404 . S
C374 C378 1.389 1_545 S
C374 H396 0.930 . S
C375 C373 1.352 . S
C375 C377 1.374 . S
C375 H397 0.931 . S
C376 C377 1.337 1_565 S
C376 C378 1.366 . S
C377 C375 1.374 . S
C377 C376 1.337 1_545 S
C377 H398 0.931 . S
C378 C374 1.389 1_565 S
C378 C376 1.366 . S
C378 H399 0.931 . S
C379 O390 1.256 . S
C379 O391 1.257 . S
O380 Gd360 2.377 . S
O380 C362 1.240 . S
O381 Gd361 2.395 . S
O381 C362 1.240 . S
O382 Gd360 2.448 . S
O382 C363 1.249 . S
O383 Gd360 2.506 . S
O383 C363 1.252 . S
O384 Gd360 2.435 . S
O384 C370 1.256 . S
O385 Gd360 2.717 . S
O385 Gd361 2.327 . S
O385 C370 1.257 . S
O386 Gd361 2.377 . S
O386 C371 1.240 . S
O387 Gd360 2.395 . S
O387 C371 1.240 . S
O388 Gd361 2.448 . S
O388 C372 1.249 . S
O389 Gd361 2.506 . S
O389 C372 1.252 . S
O390 Gd361 2.435 . S
O390 C379 1.256 . S
O391 Gd360 2.327 . S
O391 Gd361 2.717 . S
O391 C379 1.257 . S
H392 C365 0.930 . S
H393 C366 0.931 . S
H394 C368 0.931 . S
H395 C369 0.931 . S
H396 C374 0.930 . S
H397 C375 0.931 . S
H398 C377 0.931 . S
H399 C378 0.931 . S
Gd400 C403 2.818 . S
Gd400 O420 2.377 . S
Gd400 O422 2.448 . S
Gd400 O423 2.506 . S
Gd400 O424 2.435 . S
Gd400 O425 2.717 . S
Gd400 O427 2.395 . S
Gd400 O431 2.327 . S
Gd401 C412 2.818 . S
Gd401 O421 2.395 . S
Gd401 O425 2.327 . S
Gd401 O426 2.377 . S
Gd401 O428 2.448 . S
Gd401 O429 2.506 . S
Gd401 O430 2.435 . S
Gd401 O431 2.717 . S
C402 O420 1.240 . S
C402 O421 1.240 . S
C403 Gd400 2.818 . S
C403 C404 1.510 . S
C403 O422 1.249 . S
C403 O423 1.252 . S
C404 C403 1.510 . S
C404 C405 1.404 . S
C404 C406 1.352 . S
C405 C404 1.404 . S
C405 C409 1.389 . S
C405 H432 0.930 . S
C406 C404 1.352 . S
C406 C408 1.374 . S
C406 H433 0.931 . S
C407 C408 1.359 . S
C407 C409 1.364 . S
C408 C406 1.374 . S
C408 C407 1.359 . S
C408 H434 0.931 . S
C409 C405 1.389 . S
C409 C407 1.364 . S
C409 H435 0.931 . S
C410 O424 1.256 . S
C410 O425 1.257 . S
C411 O426 1.240 . S
C411 O427 1.240 . S
C412 Gd401 2.818 . S
C412 C413 1.510 . S
C412 O428 1.249 . S
C412 O429 1.252 . S
C413 C412 1.510 . S
C413 C414 1.404 . S
C413 C415 1.352 . S
C414 C413 1.404 . S
C414 C418 1.389 . S
C414 H436 0.930 . S
C415 C413 1.352 . S
C415 C417 1.374 . S
C415 H437 0.931 . S
C416 C417 1.359 . S
C416 C418 1.364 . S
C417 C415 1.374 . S
C417 C416 1.359 . S
C417 H438 0.931 . S
C418 C414 1.389 . S
C418 C416 1.364 . S
C418 H439 0.931 . S
C419 O430 1.256 . S
C419 O431 1.257 . S
O420 Gd400 2.377 . S
O420 C402 1.240 . S
O421 Gd401 2.395 . S
O421 C402 1.240 . S
O422 Gd400 2.448 . S
O422 C403 1.249 . S
O423 Gd400 2.506 . S
O423 C403 1.252 . S
O424 Gd400 2.435 . S
O424 C410 1.256 . S
O425 Gd400 2.717 . S
O425 Gd401 2.327 . S
O425 C410 1.257 . S
O426 Gd401 2.377 . S
O426 C411 1.240 . S
O427 Gd400 2.395 . S
O427 C411 1.240 . S
O428 Gd401 2.448 . S
O428 C412 1.249 . S
O429 Gd401 2.506 . S
O429 C412 1.252 . S
O430 Gd401 2.435 . S
O430 C419 1.256 . S
O431 Gd400 2.327 . S
O431 Gd401 2.717 . S
O431 C419 1.257 . S
H432 C405 0.930 . S
H433 C406 0.931 . S
H434 C408 0.931 . S
H435 C409 0.931 . S
H436 C414 0.930 . S
H437 C415 0.931 . S
H438 C417 0.931 . S
H439 C418 0.931 . S
Gd440 C443 2.818 . S
Gd440 O460 2.377 . S
Gd440 O462 2.448 . S
Gd440 O463 2.506 . S
Gd440 O464 2.435 . S
Gd440 O465 2.717 . S
Gd440 O467 2.395 1_556 S
Gd440 O471 2.327 . S
Gd441 C452 2.818 1_556 S
Gd441 O461 2.395 . S
Gd441 O465 2.327 . S
Gd441 O466 2.377 1_556 S
Gd441 O468 2.443 1_556 S
Gd441 O469 2.506 1_556 S
Gd441 O470 2.435 . S
Gd441 O471 2.717 . S
C442 O460 1.240 . S
C442 O461 1.240 . S
C443 Gd440 2.818 . S
C443 C444 1.510 . S
C443 O462 1.249 . S
C443 O463 1.252 . S
C444 C443 1.510 . S
C444 C445 1.404 . S
C444 C446 1.352 . S
C445 C444 1.404 . S
C445 C449 1.389 . S
C445 H472 0.930 . S
C446 C444 1.352 . S
C446 C448 1.374 . S
C446 H473 0.931 . S
C447 C448 1.359 . S
C447 C449 1.364 . S
C448 C446 1.374 . S
C448 C447 1.359 . S
C448 H474 0.931 . S
C449 C445 1.389 . S
C449 C447 1.364 . S
C449 H475 0.931 . S
C450 O464 1.256 . S
C450 O465 1.257 . S
C451 O466 1.240 . S
C451 O467 1.240 . S
C452 Gd441 2.818 1_554 S
C452 C453 1.510 . S
C452 O468 1.258 . S
C452 O469 1.252 . S
C453 C452 1.510 . S
C453 C454 1.404 . S
C453 C455 1.352 . S
C454 C453 1.404 . S
C454 C458 1.389 1_565 S
C454 H476 0.930 . S
C455 C453 1.352 . S
C455 C457 1.374 . S
C455 H477 0.931 . S
C456 C457 1.337 1_545 S
C456 C458 1.366 . S
C457 C455 1.374 . S
C457 C456 1.337 1_565 S
C457 H478 0.931 . S
C458 C454 1.389 1_545 S
C458 C456 1.366 . S
C458 H479 0.931 . S
C459 O470 1.256 . S
C459 O471 1.257 . S
O460 Gd440 2.377 . S
O460 C442 1.240 . S
O461 Gd441 2.395 . S
O461 C442 1.240 . S
O462 Gd440 2.448 . S
O462 C443 1.249 . S
O463 Gd440 2.506 . S
O463 C443 1.252 . S
O464 Gd440 2.435 . S
O464 C450 1.256 . S
O465 Gd440 2.717 . S
O465 Gd441 2.327 . S
O465 C450 1.257 . S
O466 Gd441 2.377 1_554 S
O466 C451 1.240 . S
O467 Gd440 2.395 1_554 S
O467 C451 1.240 . S
O468 Gd441 2.443 1_554 S
O468 C452 1.258 . S
O469 Gd441 2.506 1_554 S
O469 C452 1.252 . S
O470 Gd441 2.435 . S
O470 C459 1.256 . S
O471 Gd440 2.327 . S
O471 Gd441 2.717 . S
O471 C459 1.257 . S
H472 C445 0.930 . S
H473 C446 0.931 . S
H474 C448 0.931 . S
H475 C449 0.931 . S
H476 C454 0.930 . S
H477 C455 0.931 . S
H478 C457 0.931 . S
H479 C458 0.931 . S
Gd480 C483 2.818 . S
Gd480 O500 2.377 . S
Gd480 O502 2.448 . S
Gd480 O503 2.506 . S
Gd480 O504 2.435 . S
Gd480 O505 2.717 . S
Gd480 O507 2.395 . S
Gd480 O511 2.327 . S
Gd481 C492 2.818 . S
Gd481 O501 2.395 . S
Gd481 O505 2.327 . S
Gd481 O506 2.377 . S
Gd481 O508 2.448 . S
Gd481 O509 2.506 . S
Gd481 O510 2.435 . S
Gd481 O511 2.717 . S
C482 O500 1.240 . S
C482 O501 1.240 . S
C483 Gd480 2.818 . S
C483 C484 1.510 . S
C483 O502 1.249 . S
C483 O503 1.252 . S
C484 C483 1.510 . S
C484 C485 1.404 . S
C484 C486 1.352 . S
C485 C484 1.404 . S
C485 C489 1.389 . S
C485 H512 0.930 . S
C486 C484 1.352 . S
C486 C488 1.374 . S
C486 H513 0.931 . S
C487 C488 1.359 . S
C487 C489 1.364 . S
C488 C486 1.374 . S
C488 C487 1.359 . S
C488 H514 0.931 . S
C489 C485 1.389 . S
C489 C487 1.364 . S
C489 H515 0.931 1_655 S
C490 O504 1.256 . S
C490 O505 1.257 . S
C491 O506 1.240 . S
C491 O507 1.240 . S
C492 Gd481 2.818 . S
C492 C493 1.510 . S
C492 O508 1.249 . S
C492 O509 1.252 . S
C493 C492 1.510 . S
C493 C494 1.404 . S
C493 C495 1.352 . S
C494 C493 1.404 . S
C494 C498 1.389 . S
C494 H516 0.930 . S
C495 C493 1.352 . S
C495 C497 1.374 . S
C495 H517 0.931 . S
C496 C497 1.359 . S
C496 C498 1.364 . S
C497 C495 1.374 . S
C497 C496 1.359 . S
C497 H518 0.931 . S
C498 C494 1.389 . S
C498 C496 1.364 . S
C498 H519 0.931 . S
C499 O510 1.256 . S
C499 O511 1.257 . S
O500 Gd480 2.377 . S
O500 C482 1.240 . S
O501 Gd481 2.395 . S
O501 C482 1.240 . S
O502 Gd480 2.448 . S
O502 C483 1.249 . S
O503 Gd480 2.506 . S
O503 C483 1.252 . S
O504 Gd480 2.435 . S
O504 C490 1.256 . S
O505 Gd480 2.717 . S
O505 Gd481 2.327 . S
O505 C490 1.257 . S
O506 Gd481 2.377 . S
O506 C491 1.240 . S
O507 Gd480 2.395 . S
O507 C491 1.240 . S
O508 Gd481 2.448 . S
O508 C492 1.249 . S
O509 Gd481 2.506 . S
O509 C492 1.252 . S
O510 Gd481 2.435 . S
O510 C499 1.256 . S
O511 Gd480 2.327 . S
O511 Gd481 2.717 . S
O511 C499 1.257 . S
H512 C485 0.930 . S
H513 C486 0.931 . S
H514 C488 0.931 . S
H515 C489 0.931 1_455 S
H516 C494 0.930 . S
H517 C495 0.931 . S
H518 C497 0.931 . S
H519 C498 0.931 . S
Gd520 C523 2.818 . S
Gd520 O540 2.377 . S
Gd520 O542 2.448 . S
Gd520 O543 2.506 . S
Gd520 O544 2.435 . S
Gd520 O545 2.717 . S
Gd520 O547 2.395 . S
Gd520 O551 2.327 . S
Gd521 C532 2.818 . S
Gd521 O541 2.395 . S
Gd521 O545 2.327 . S
Gd521 O546 2.377 . S
Gd521 O548 2.448 . S
Gd521 O549 2.506 . S
Gd521 O550 2.435 . S
Gd521 O551 2.717 . S
C522 O540 1.240 . S
C522 O541 1.240 . S
C523 Gd520 2.818 . S
C523 C524 1.510 . S
C523 O542 1.249 . S
C523 O543 1.252 . S
C524 C523 1.510 . S
C524 C525 1.404 . S
C524 C526 1.352 . S
C525 C524 1.404 . S
C525 C529 1.389 . S
C525 H552 0.930 . S
C526 C524 1.352 . S
C526 C528 1.374 . S
C526 H553 0.931 . S
C527 C528 1.359 . S
C527 C529 1.364 . S
C528 C526 1.374 . S
C528 C527 1.359 . S
C528 H554 0.931 . S
C529 C525 1.389 . S
C529 C527 1.364 . S
C529 H555 0.931 . S
C530 O544 1.256 . S
C530 O545 1.257 . S
C531 O546 1.240 . S
C531 O547 1.240 . S
C532 Gd521 2.818 . S
C532 C533 1.510 . S
C532 O548 1.249 . S
C532 O549 1.252 . S
C533 C532 1.510 . S
C533 C534 1.404 . S
C533 C535 1.352 . S
C534 C533 1.404 . S
C534 C538 1.389 1_545 S
C534 H556 0.930 . S
C535 C533 1.352 . S
C535 C537 1.374 . S
C535 H557 0.931 . S
C536 C537 1.337 1_565 S
C536 C538 1.366 . S
C537 C535 1.374 . S
C537 C536 1.337 1_545 S
C537 H558 0.931 . S
C538 C534 1.389 1_565 S
C538 C536 1.366 . S
C538 H559 0.931 . S
C539 O550 1.256 . S
C539 O551 1.257 . S
O540 Gd520 2.377 . S
O540 C522 1.240 . S
O541 Gd521 2.395 . S
O541 C522 1.240 . S
O542 Gd520 2.448 . S
O542 C523 1.249 . S
O543 Gd520 2.506 . S
O543 C523 1.252 . S
O544 Gd520 2.435 . S
O544 C530 1.256 . S
O545 Gd520 2.717 . S
O545 Gd521 2.327 . S
O545 C530 1.257 . S
O546 Gd521 2.377 . S
O546 C531 1.240 . S
O547 Gd520 2.395 . S
O547 C531 1.240 . S
O548 Gd521 2.448 . S
O548 C532 1.249 . S
O549 Gd521 2.506 . S
O549 C532 1.252 . S
O550 Gd521 2.435 . S
O550 C539 1.256 . S
O551 Gd520 2.327 . S
O551 Gd521 2.717 . S
O551 C539 1.257 . S
H552 C525 0.930 . S
H553 C526 0.931 . S
H554 C528 0.931 . S
H555 C529 0.931 . S
H556 C534 0.930 . S
H557 C535 0.931 . S
H558 C537 0.931 . S
H559 C538 0.931 . S
Gd560 C563 2.818 . S
Gd560 O580 2.377 . S
Gd560 O582 2.448 . S
Gd560 O583 2.506 . S
Gd560 O584 2.435 . S
Gd560 O585 2.717 . S
Gd560 O587 2.395 . S
Gd560 O591 2.327 . S
Gd561 C572 2.818 . S
Gd561 O581 2.395 . S
Gd561 O585 2.327 . S
Gd561 O586 2.377 . S
Gd561 O588 2.448 . S
Gd561 O589 2.506 . S
Gd561 O590 2.435 . S
Gd561 O591 2.717 . S
C562 O580 1.240 . S
C562 O581 1.240 . S
C563 Gd560 2.818 . S
C563 C564 1.510 . S
C563 O582 1.249 . S
C563 O583 1.252 . S
C564 C563 1.510 . S
C564 C565 1.404 . S
C564 C566 1.352 . S
C565 C564 1.404 . S
C565 C569 1.389 . S
C565 H592 0.930 . S
C566 C564 1.352 . S
C566 C568 1.374 . S
C566 H593 0.931 . S
C567 C568 1.359 . S
C567 C569 1.364 . S
C568 C566 1.374 . S
C568 C567 1.359 . S
C568 H594 0.931 . S
C569 C565 1.389 . S
C569 C567 1.364 . S
C569 H595 0.931 . S
C570 O584 1.256 . S
C570 O585 1.257 . S
C571 O586 1.240 . S
C571 O587 1.240 . S
C572 Gd561 2.818 . S
C572 C573 1.510 . S
C572 O588 1.249 . S
C572 O589 1.252 . S
C573 C572 1.510 . S
C573 C574 1.404 . S
C573 C575 1.352 . S
C574 C573 1.404 . S
C574 C578 1.389 . S
C574 H596 0.930 . S
C575 C573 1.352 . S
C575 C577 1.374 . S
C575 H597 0.931 . S
C576 C577 1.359 . S
C576 C578 1.364 . S
C577 C575 1.374 . S
C577 C576 1.359 . S
C577 H598 0.931 . S
C578 C574 1.389 . S
C578 C576 1.364 . S
C578 H599 0.931 . S
C579 O590 1.256 . S
C579 O591 1.257 . S
O580 Gd560 2.377 . S
O580 C562 1.240 . S
O581 Gd561 2.395 . S
O581 C562 1.240 . S
O582 Gd560 2.448 . S
O582 C563 1.249 . S
O583 Gd560 2.506 . S
O583 C563 1.252 . S
O584 Gd560 2.435 . S
O584 C570 1.256 . S
O585 Gd560 2.717 . S
O585 Gd561 2.327 . S
O585 C570 1.257 . S
O586 Gd561 2.377 . S
O586 C571 1.240 . S
O587 Gd560 2.395 . S
O587 C571 1.240 . S
O588 Gd561 2.448 . S
O588 C572 1.249 . S
O589 Gd561 2.506 . S
O589 C572 1.252 . S
O590 Gd561 2.435 . S
O590 C579 1.256 . S
O591 Gd560 2.327 . S
O591 Gd561 2.717 . S
O591 C579 1.257 . S
H592 C565 0.930 . S
H593 C566 0.931 . S
H594 C568 0.931 . S
H595 C569 0.931 . S
H596 C574 0.930 . S
H597 C575 0.931 . S
H598 C577 0.931 . S
H599 C578 0.931 . S
Gd600 C603 2.818 . S
Gd600 O620 2.377 . S
Gd600 O622 2.448 . S
Gd600 O623 2.506 . S
Gd600 O624 2.435 . S
Gd600 O625 2.717 . S
Gd600 O627 2.395 1_554 S
Gd600 O631 2.327 . S
Gd601 C612 2.818 1_554 S
Gd601 O621 2.395 . S
Gd601 O625 2.327 . S
Gd601 O626 2.377 1_554 S
Gd601 O628 2.443 1_554 S
Gd601 O629 2.506 1_554 S
Gd601 O630 2.435 . S
Gd601 O631 2.717 . S
C602 O620 1.240 . S
C602 O621 1.240 . S
C603 Gd600 2.818 . S
C603 C604 1.510 . S
C603 O622 1.249 . S
C603 O623 1.252 . S
C604 C603 1.510 . S
C604 C605 1.404 . S
C604 C606 1.352 . S
C605 C604 1.404 . S
C605 C609 1.389 . S
C605 H632 0.930 . S
C606 C604 1.352 . S
C606 C608 1.374 . S
C606 H633 0.931 . S
C607 C608 1.359 . S
C607 C609 1.364 . S
C608 C606 1.374 . S
C608 C607 1.359 . S
C608 H634 0.931 . S
C609 C605 1.389 . S
C609 C607 1.364 . S
C609 H635 0.931 . S
C610 O624 1.256 . S
C610 O625 1.257 . S
C611 O626 1.240 . S
C611 O627 1.240 . S
C612 Gd601 2.818 1_556 S
C612 C613 1.510 . S
C612 O628 1.258 . S
C612 O629 1.252 . S
C613 C612 1.510 . S
C613 C614 1.404 . S
C613 C615 1.352 . S
C614 C613 1.404 . S
C614 C618 1.389 1_565 S
C614 H636 0.930 . S
C615 C613 1.352 . S
C615 C617 1.374 . S
C615 H637 0.931 . S
C616 C617 1.337 1_545 S
C616 C618 1.366 . S
C617 C615 1.374 . S
C617 C616 1.337 1_565 S
C617 H638 0.931 . S
C618 C614 1.389 1_545 S
C618 C616 1.366 . S
C618 H639 0.931 . S
C619 O630 1.256 . S
C619 O631 1.257 . S
O620 Gd600 2.377 . S
O620 C602 1.240 . S
O621 Gd601 2.395 . S
O621 C602 1.240 . S
O622 Gd600 2.448 . S
O622 C603 1.249 . S
O623 Gd600 2.506 . S
O623 C603 1.252 . S
O624 Gd600 2.435 . S
O624 C610 1.256 . S
O625 Gd600 2.717 . S
O625 Gd601 2.327 . S
O625 C610 1.257 . S
O626 Gd601 2.377 1_556 S
O626 C611 1.240 . S
O627 Gd600 2.395 1_556 S
O627 C611 1.240 . S
O628 Gd601 2.443 1_556 S
O628 C612 1.258 . S
O629 Gd601 2.506 1_556 S
O629 C612 1.252 . S
O630 Gd601 2.435 . S
O630 C619 1.256 . S
O631 Gd600 2.327 . S
O631 Gd601 2.717 . S
O631 C619 1.257 . S
H632 C605 0.930 . S
H633 C606 0.931 . S
H634 C608 0.931 . S
H635 C609 0.931 . S
H636 C614 0.930 . S
H637 C615 0.931 . S
H638 C617 0.931 . S
H639 C618 0.931 . S
Gd640 C643 2.818 . S
Gd640 O660 2.377 . S
Gd640 O662 2.448 . S
Gd640 O663 2.506 . S
Gd640 O664 2.435 . S
Gd640 O665 2.717 . S
Gd640 O667 2.395 . S
Gd640 O671 2.327 . S
Gd641 C652 2.818 . S
Gd641 O661 2.395 . S
Gd641 O665 2.327 . S
Gd641 O666 2.377 . S
Gd641 O668 2.448 . S
Gd641 O669 2.506 . S
Gd641 O670 2.435 . S
Gd641 O671 2.717 . S
C642 O660 1.240 . S
C642 O661 1.240 . S
C643 Gd640 2.818 . S
C643 C644 1.510 . S
C643 O662 1.249 . S
C643 O663 1.252 . S
C644 C643 1.510 . S
C644 C645 1.404 . S
C644 C646 1.352 . S
C645 C644 1.404 . S
C645 C649 1.389 . S
C645 H672 0.930 . S
C646 C644 1.352 . S
C646 C648 1.374 . S
C646 H673 0.931 . S
C647 C648 1.359 . S
C647 C649 1.364 . S
C648 C646 1.374 . S
C648 C647 1.359 . S
C648 H674 0.931 . S
C649 C645 1.389 . S
C649 C647 1.364 . S
C649 H675 0.931 . S
C650 O664 1.256 . S
C650 O665 1.257 . S
C651 O666 1.240 . S
C651 O667 1.240 . S
C652 Gd641 2.818 . S
C652 C653 1.510 . S
C652 O668 1.249 . S
C652 O669 1.252 . S
C653 C652 1.510 . S
C653 C654 1.404 . S
C653 C655 1.352 . S
C654 C653 1.404 . S
C654 C658 1.389 . S
C654 H676 0.930 . S
C655 C653 1.352 . S
C655 C657 1.374 . S
C655 H677 0.931 . S
C656 C657 1.359 . S
C656 C658 1.364 . S
C657 C655 1.374 . S
C657 C656 1.359 . S
C657 H678 0.931 . S
C658 C654 1.389 . S
C658 C656 1.364 . S
C658 H679 0.931 . S
C659 O670 1.256 . S
C659 O671 1.257 . S
O660 Gd640 2.377 . S
O660 C642 1.240 . S
O661 Gd641 2.395 . S
O661 C642 1.240 . S
O662 Gd640 2.448 . S
O662 C643 1.249 . S
O663 Gd640 2.506 . S
O663 C643 1.252 . S
O664 Gd640 2.435 . S
O664 C650 1.256 . S
O665 Gd640 2.717 . S
O665 Gd641 2.327 . S
O665 C650 1.257 . S
O666 Gd641 2.377 . S
O666 C651 1.240 . S
O667 Gd640 2.395 . S
O667 C651 1.240 . S
O668 Gd641 2.448 . S
O668 C652 1.249 . S
O669 Gd641 2.506 . S
O669 C652 1.252 . S
O670 Gd641 2.435 . S
O670 C659 1.256 . S
O671 Gd640 2.327 . S
O671 Gd641 2.717 . S
O671 C659 1.257 . S
H672 C645 0.930 . S
H673 C646 0.931 . S
H674 C648 0.931 . S
H675 C649 0.931 . S
H676 C654 0.930 . S
H677 C655 0.931 . S
H678 C657 0.931 . S
H679 C658 0.931 . S
Gd680 C683 2.818 1_554 S
Gd680 O700 2.377 1_554 S
Gd680 O702 2.443 1_554 S
Gd680 O703 2.506 1_554 S
Gd680 O704 2.435 . S
Gd680 O705 2.717 . S
Gd680 O707 2.395 . S
Gd680 O711 2.327 . S
Gd681 C692 2.818 . S
Gd681 O701 2.395 1_554 S
Gd681 O705 2.327 . S
Gd681 O706 2.377 . S
Gd681 O708 2.448 . S
Gd681 O709 2.506 . S
Gd681 O710 2.435 . S
Gd681 O711 2.717 . S
C682 O700 1.240 . S
C682 O701 1.240 . S
C683 Gd680 2.818 1_556 S
C683 C684 1.510 . S
C683 O702 1.258 . S
C683 O703 1.252 . S
C684 C683 1.510 . S
C684 C685 1.404 . S
C684 C686 1.352 . S
C685 C684 1.404 . S
C685 C689 1.389 . S
C685 H712 0.930 . S
C686 C684 1.352 . S
C686 C688 1.374 . S
C686 H713 0.931 . S
C687 C688 1.359 . S
C687 C689 1.364 . S
C688 C686 1.374 . S
C688 C687 1.359 . S
C688 H714 0.931 . S
C689 C685 1.389 . S
C689 C687 1.364 . S
C689 H715 0.931 . S
C690 O704 1.256 . S
C690 O705 1.257 . S
C691 O706 1.240 . S
C691 O707 1.240 . S
C692 Gd681 2.818 . S
C692 C693 1.510 . S
C692 O708 1.249 . S
C692 O709 1.252 . S
C693 C692 1.510 . S
C693 C694 1.404 . S
C693 C695 1.352 . S
C694 C693 1.404 . S
C694 C698 1.389 . S
C694 H716 0.930 . S
C695 C693 1.352 . S
C695 C697 1.374 . S
C695 H717 0.931 . S
C696 C697 1.359 . S
C696 C698 1.364 . S
C697 C695 1.374 . S
C697 C696 1.359 . S
C697 H718 0.931 . S
C698 C694 1.389 . S
C698 C696 1.364 . S
C698 H719 0.931 . S
C699 O710 1.256 . S
C699 O711 1.257 . S
O700 Gd680 2.377 1_556 S
O700 C682 1.240 . S
O701 Gd681 2.395 1_556 S
O701 C682 1.240 . S
O702 Gd680 2.443 1_556 S
O702 C683 1.258 . S
O703 Gd680 2.506 1_556 S
O703 C683 1.252 . S
O704 Gd680 2.435 . S
O704 C690 1.256 . S
O705 Gd680 2.717 . S
O705 Gd681 2.327 . S
O705 C690 1.257 . S
O706 Gd681 2.377 . S
O706 C691 1.240 . S
O707 Gd680 2.395 . S
O707 C691 1.240 . S
O708 Gd681 2.448 . S
O708 C692 1.249 . S
O709 Gd681 2.506 . S
O709 C692 1.252 . S
O710 Gd681 2.435 . S
O710 C699 1.256 . S
O711 Gd680 2.327 . S
O711 Gd681 2.717 . S
O711 C699 1.257 . S
H712 C685 0.930 . S
H713 C686 0.931 . S
H714 C688 0.931 . S
H715 C689 0.931 . S
H716 C694 0.930 . S
H717 C695 0.931 . S
H718 C697 0.931 . S
H719 C698 0.931 . S
Gd720 C723 2.818 . S
Gd720 O740 2.377 . S
Gd720 O742 2.448 . S
Gd720 O743 2.506 . S
Gd720 O744 2.435 . S
Gd720 O745 2.717 . S
Gd720 O747 2.395 . S
Gd720 O751 2.327 . S
Gd721 C732 2.818 . S
Gd721 O741 2.395 . S
Gd721 O745 2.327 . S
Gd721 O746 2.377 . S
Gd721 O748 2.448 . S
Gd721 O749 2.506 . S
Gd721 O750 2.435 . S
Gd721 O751 2.717 . S
C722 O740 1.240 . S
C722 O741 1.240 . S
C723 Gd720 2.818 . S
C723 C724 1.510 . S
C723 O742 1.249 . S
C723 O743 1.252 . S
C724 C723 1.510 . S
C724 C725 1.404 . S
C724 C726 1.352 . S
C725 C724 1.404 . S
C725 C729 1.389 . S
C725 H752 0.930 . S
C726 C724 1.352 . S
C726 C728 1.374 . S
C726 H753 0.931 . S
C727 C728 1.359 . S
C727 C729 1.364 . S
C728 C726 1.374 . S
C728 C727 1.359 . S
C728 H754 0.931 . S
C729 C725 1.389 . S
C729 C727 1.364 . S
C729 H755 0.931 . S
C730 O744 1.256 . S
C730 O745 1.257 . S
C731 O746 1.240 . S
C731 O747 1.240 . S
C732 Gd721 2.818 . S
C732 C733 1.510 . S
C732 O748 1.249 . S
C732 O749 1.252 . S
C733 C732 1.510 . S
C733 C734 1.404 . S
C733 C735 1.352 . S
C734 C733 1.404 . S
C734 C738 1.389 . S
C734 H756 0.930 . S
C735 C733 1.352 . S
C735 C737 1.374 . S
C735 H757 0.931 . S
C736 C737 1.359 . S
C736 C738 1.364 . S
C737 C735 1.374 . S
C737 C736 1.359 . S
C737 H758 0.931 . S
C738 C734 1.389 . S
C738 C736 1.364 . S
C738 H759 0.931 1_655 S
C739 O750 1.256 . S
C739 O751 1.257 . S
O740 Gd720 2.377 . S
O740 C722 1.240 . S
O741 Gd721 2.395 . S
O741 C722 1.240 . S
O742 Gd720 2.448 . S
O742 C723 1.249 . S
O743 Gd720 2.506 . S
O743 C723 1.252 . S
O744 Gd720 2.435 . S
O744 C730 1.256 . S
O745 Gd720 2.717 . S
O745 Gd721 2.327 . S
O745 C730 1.257 . S
O746 Gd721 2.377 . S
O746 C731 1.240 . S
O747 Gd720 2.395 . S
O747 C731 1.240 . S
O748 Gd721 2.448 . S
O748 C732 1.249 . S
O749 Gd721 2.506 . S
O749 C732 1.252 . S
O750 Gd721 2.435 . S
O750 C739 1.256 . S
O751 Gd720 2.327 . S
O751 Gd721 2.717 . S
O751 C739 1.257 . S
H752 C725 0.930 . S
H753 C726 0.931 . S
H754 C728 0.931 . S
H755 C729 0.931 . S
H756 C734 0.930 . S
H757 C735 0.931 . S
H758 C737 0.931 . S
H759 C738 0.931 1_455 S
Gd760 C763 2.818 . S
Gd760 O780 2.377 . S
Gd760 O782 2.448 . S
Gd760 O783 2.506 . S
Gd760 O784 2.435 . S
Gd760 O785 2.717 . S
Gd760 O787 2.395 . S
Gd760 O791 2.327 . S
Gd761 C772 2.818 . S
Gd761 O781 2.395 . S
Gd761 O785 2.327 . S
Gd761 O786 2.377 . S
Gd761 O788 2.448 . S
Gd761 O789 2.506 . S
Gd761 O790 2.435 . S
Gd761 O791 2.717 . S
C762 O780 1.240 . S
C762 O781 1.240 . S
C763 Gd760 2.818 . S
C763 C764 1.510 . S
C763 O782 1.249 . S
C763 O783 1.252 . S
C764 C763 1.510 . S
C764 C765 1.404 . S
C764 C766 1.352 . S
C765 C764 1.404 . S
C765 C769 1.389 . S
C765 H792 0.930 . S
C766 C764 1.352 . S
C766 C768 1.374 . S
C766 H793 0.931 . S
C767 C768 1.359 . S
C767 C769 1.364 . S
C768 C766 1.374 . S
C768 C767 1.359 . S
C768 H794 0.931 . S
C769 C765 1.389 . S
C769 C767 1.364 . S
C769 H795 0.931 . S
C770 O784 1.256 . S
C770 O785 1.257 . S
C771 O786 1.240 . S
C771 O787 1.240 . S
C772 Gd761 2.818 . S
C772 C773 1.510 . S
C772 O788 1.249 . S
C772 O789 1.252 . S
C773 C772 1.510 . S
C773 C774 1.404 . S
C773 C775 1.352 . S
C774 C773 1.404 . S
C774 C778 1.389 . S
C774 H796 0.930 . S
C775 C773 1.352 . S
C775 C777 1.374 . S
C775 H797 0.931 . S
C776 C777 1.359 . S
C776 C778 1.364 . S
C777 C775 1.374 . S
C777 C776 1.359 . S
C777 H798 0.931 . S
C778 C774 1.389 . S
C778 C776 1.364 . S
C778 H799 0.931 . S
C779 O790 1.256 . S
C779 O791 1.257 . S
O780 Gd760 2.377 . S
O780 C762 1.240 . S
O781 Gd761 2.395 . S
O781 C762 1.240 . S
O782 Gd760 2.448 . S
O782 C763 1.249 . S
O783 Gd760 2.506 . S
O783 C763 1.252 . S
O784 Gd760 2.435 . S
O784 C770 1.256 . S
O785 Gd760 2.717 . S
O785 Gd761 2.327 . S
O785 C770 1.257 . S
O786 Gd761 2.377 . S
O786 C771 1.240 . S
O787 Gd760 2.395 . S
O787 C771 1.240 . S
O788 Gd761 2.448 . S
O788 C772 1.249 . S
O789 Gd761 2.506 . S
O789 C772 1.252 . S
O790 Gd761 2.435 . S
O790 C779 1.256 . S
O791 Gd760 2.327 . S
O791 Gd761 2.717 . S
O791 C779 1.257 . S
H792 C765 0.930 . S
H793 C766 0.931 . S
H794 C768 0.931 . S
H795 C769 0.931 . S
H796 C774 0.930 . S
H797 C775 0.931 . S
H798 C777 0.931 . S
H799 C778 0.931 . S
Gd800 C803 2.818 . S
Gd800 O820 2.377 . S
Gd800 O822 2.448 . S
Gd800 O823 2.506 . S
Gd800 O824 2.435 . S
Gd800 O825 2.717 . S
Gd800 O827 2.395 . S
Gd800 O831 2.327 . S
Gd801 C812 2.818 . S
Gd801 O821 2.395 . S
Gd801 O825 2.327 . S
Gd801 O826 2.377 . S
Gd801 O828 2.448 . S
Gd801 O829 2.506 . S
Gd801 O830 2.435 . S
Gd801 O831 2.717 . S
C802 O820 1.240 . S
C802 O821 1.240 . S
C803 Gd800 2.818 . S
C803 C804 1.510 . S
C803 O822 1.249 . S
C803 O823 1.252 . S
C804 C803 1.510 . S
C804 C805 1.404 . S
C804 C806 1.352 . S
C805 C804 1.404 . S
C805 C809 1.389 . S
C805 H832 0.930 . S
C806 C804 1.352 . S
C806 C808 1.374 . S
C806 H833 0.931 . S
C807 C808 1.359 . S
C807 C809 1.364 . S
C808 C806 1.374 . S
C808 C807 1.359 . S
C808 H834 0.931 . S
C809 C805 1.389 . S
C809 C807 1.364 . S
C809 H835 0.931 . S
C810 O824 1.256 . S
C810 O825 1.257 . S
C811 O826 1.240 . S
C811 O827 1.240 . S
C812 Gd801 2.818 . S
C812 C813 1.510 . S
C812 O828 1.249 . S
C812 O829 1.252 . S
C813 C812 1.510 . S
C813 C814 1.404 . S
C813 C815 1.352 . S
C814 C813 1.404 . S
C814 C818 1.389 . S
C814 H836 0.930 . S
C815 C813 1.352 . S
C815 C817 1.374 . S
C815 H837 0.931 . S
C816 C817 1.359 . S
C816 C818 1.364 . S
C817 C815 1.374 . S
C817 C816 1.359 . S
C817 H838 0.931 . S
C818 C814 1.389 . S
C818 C816 1.364 . S
C818 H839 0.931 . S
C819 O830 1.256 . S
C819 O831 1.257 . S
O820 Gd800 2.377 . S
O820 C802 1.240 . S
O821 Gd801 2.395 . S
O821 C802 1.240 . S
O822 Gd800 2.448 . S
O822 C803 1.249 . S
O823 Gd800 2.506 . S
O823 C803 1.252 . S
O824 Gd800 2.435 . S
O824 C810 1.256 . S
O825 Gd800 2.717 . S
O825 Gd801 2.327 . S
O825 C810 1.257 . S
O826 Gd801 2.377 . S
O826 C811 1.240 . S
O827 Gd800 2.395 . S
O827 C811 1.240 . S
O828 Gd801 2.448 . S
O828 C812 1.249 . S
O829 Gd801 2.506 . S
O829 C812 1.252 . S
O830 Gd801 2.435 . S
O830 C819 1.256 . S
O831 Gd800 2.327 . S
O831 Gd801 2.717 . S
O831 C819 1.257 . S
H832 C805 0.930 . S
H833 C806 0.931 . S
H834 C808 0.931 . S
H835 C809 0.931 . S
H836 C814 0.930 . S
H837 C815 0.931 . S
H838 C817 0.931 . S
H839 C818 0.931 . S
Gd840 C843 2.818 1_556 S
Gd840 O860 2.377 1_556 S
Gd840 O862 2.443 1_556 S
Gd840 O863 2.506 1_556 S
Gd840 O864 2.435 . S
Gd840 O865 2.717 . S
Gd840 O867 2.395 . S
Gd840 O871 2.327 . S
Gd841 C852 2.818 . S
Gd841 O861 2.395 1_556 S
Gd841 O865 2.327 . S
Gd841 O866 2.377 . S
Gd841 O868 2.448 . S
Gd841 O869 2.506 . S
Gd841 O870 2.435 . S
Gd841 O871 2.717 . S
C842 O860 1.240 . S
C842 O861 1.240 . S
C843 Gd840 2.818 1_554 S
C843 C844 1.510 . S
C843 O862 1.258 . S
C843 O863 1.252 . S
C844 C843 1.510 . S
C844 C845 1.404 . S
C844 C846 1.352 . S
C845 C844 1.404 . S
C845 C849 1.389 . S
C845 H872 0.930 . S
C846 C844 1.352 . S
C846 C848 1.374 . S
C846 H873 0.931 . S
C847 C848 1.359 . S
C847 C849 1.364 . S
C848 C846 1.374 . S
C848 C847 1.359 . S
C848 H874 0.931 . S
C849 C845 1.389 . S
C849 C847 1.364 . S
C849 H875 0.931 . S
C850 O864 1.256 . S
C850 O865 1.257 . S
C851 O866 1.240 . S
C851 O867 1.240 . S
C852 Gd841 2.818 . S
C852 C853 1.510 . S
C852 O868 1.249 . S
C852 O869 1.252 . S
C853 C852 1.510 . S
C853 C854 1.404 . S
C853 C855 1.352 . S
C854 C853 1.404 . S
C854 C858 1.389 . S
C854 H876 0.930 . S
C855 C853 1.352 . S
C855 C857 1.374 . S
C855 H877 0.931 . S
C856 C857 1.359 . S
C856 C858 1.364 . S
C857 C855 1.374 . S
C857 C856 1.359 . S
C857 H878 0.931 . S
C858 C854 1.389 . S
C858 C856 1.364 . S
C858 H879 0.931 . S
C859 O870 1.256 . S
C859 O871 1.257 . S
O860 Gd840 2.377 1_554 S
O860 C842 1.240 . S
O861 Gd841 2.395 1_554 S
O861 C842 1.240 . S
O862 Gd840 2.443 1_554 S
O862 C843 1.258 . S
O863 Gd840 2.506 1_554 S
O863 C843 1.252 . S
O864 Gd840 2.435 . S
O864 C850 1.256 . S
O865 Gd840 2.717 . S
O865 Gd841 2.327 . S
O865 C850 1.257 . S
O866 Gd841 2.377 . S
O866 C851 1.240 . S
O867 Gd840 2.395 . S
O867 C851 1.240 . S
O868 Gd841 2.448 . S
O868 C852 1.249 . S
O869 Gd841 2.506 . S
O869 C852 1.252 . S
O870 Gd841 2.435 . S
O870 C859 1.256 . S
O871 Gd840 2.327 . S
O871 Gd841 2.717 . S
O871 C859 1.257 . S
H872 C845 0.930 . S
H873 C846 0.931 . S
H874 C848 0.931 . S
H875 C849 0.931 . S
H876 C854 0.930 . S
H877 C855 0.931 . S
H878 C857 0.931 . S
H879 C858 0.931 . S
Gd880 C883 2.818 . S
Gd880 O900 2.377 . S
Gd880 O902 2.448 . S
Gd880 O903 2.506 . S
Gd880 O904 2.435 . S
Gd880 O905 2.717 . S
Gd880 O907 2.395 . S
Gd880 O911 2.327 . S
Gd881 C892 2.818 . S
Gd881 O901 2.395 . S
Gd881 O905 2.327 . S
Gd881 O906 2.377 . S
Gd881 O908 2.448 . S
Gd881 O909 2.506 . S
Gd881 O910 2.435 . S
Gd881 O911 2.717 . S
C882 O900 1.240 . S
C882 O901 1.240 . S
C883 Gd880 2.818 . S
C883 C884 1.510 . S
C883 O902 1.249 . S
C883 O903 1.252 . S
C884 C883 1.510 . S
C884 C885 1.404 . S
C884 C886 1.352 . S
C885 C884 1.404 . S
C885 C889 1.389 . S
C885 H912 0.930 . S
C886 C884 1.352 . S
C886 C888 1.374 . S
C886 H913 0.931 . S
C887 C888 1.359 . S
C887 C889 1.364 . S
C888 C886 1.374 . S
C888 C887 1.359 . S
C888 H914 0.931 . S
C889 C885 1.389 . S
C889 C887 1.364 . S
C889 H915 0.931 . S
C890 O904 1.256 . S
C890 O905 1.257 . S
C891 O906 1.240 . S
C891 O907 1.240 . S
C892 Gd881 2.818 . S
C892 C893 1.510 . S
C892 O908 1.249 . S
C892 O909 1.252 . S
C893 C892 1.510 . S
C893 C894 1.404 . S
C893 C895 1.352 . S
C894 C893 1.404 . S
C894 C898 1.389 . S
C894 H916 0.930 . S
C895 C893 1.352 . S
C895 C897 1.374 . S
C895 H917 0.931 . S
C896 C897 1.359 . S
C896 C898 1.364 . S
C897 C895 1.374 . S
C897 C896 1.359 . S
C897 H918 0.931 . S
C898 C894 1.389 . S
C898 C896 1.364 . S
C898 H919 0.931 1_655 S
C899 O910 1.256 . S
C899 O911 1.257 . S
O900 Gd880 2.377 . S
O900 C882 1.240 . S
O901 Gd881 2.395 . S
O901 C882 1.240 . S
O902 Gd880 2.448 . S
O902 C883 1.249 . S
O903 Gd880 2.506 . S
O903 C883 1.252 . S
O904 Gd880 2.435 . S
O904 C890 1.256 . S
O905 Gd880 2.717 . S
O905 Gd881 2.327 . S
O905 C890 1.257 . S
O906 Gd881 2.377 . S
O906 C891 1.240 . S
O907 Gd880 2.395 . S
O907 C891 1.240 . S
O908 Gd881 2.448 . S
O908 C892 1.249 . S
O909 Gd881 2.506 . S
O909 C892 1.252 . S
O910 Gd881 2.435 . S
O910 C899 1.256 . S
O911 Gd880 2.327 . S
O911 Gd881 2.717 . S
O911 C899 1.257 . S
H912 C885 0.930 . S
H913 C886 0.931 . S
H914 C888 0.931 . S
H915 C889 0.931 . S
H916 C894 0.930 . S
H917 C895 0.931 . S
H918 C897 0.931 . S
H919 C898 0.931 1_455 S
Gd920 C923 2.818 . S
Gd920 O940 2.377 . S
Gd920 O942 2.448 . S
Gd920 O943 2.506 . S
Gd920 O944 2.435 . S
Gd920 O945 2.717 . S
Gd920 O947 2.395 . S
Gd920 O951 2.327 . S
Gd921 C932 2.818 . S
Gd921 O941 2.395 . S
Gd921 O945 2.327 . S
Gd921 O946 2.377 . S
Gd921 O948 2.448 . S
Gd921 O949 2.506 . S
Gd921 O950 2.435 . S
Gd921 O951 2.717 . S
C922 O940 1.240 . S
C922 O941 1.240 . S
C923 Gd920 2.818 . S
C923 C924 1.510 . S
C923 O942 1.249 . S
C923 O943 1.252 . S
C924 C923 1.510 . S
C924 C925 1.404 . S
C924 C926 1.352 . S
C925 C924 1.404 . S
C925 C929 1.389 . S
C925 H952 0.930 . S
C926 C924 1.352 . S
C926 C928 1.374 . S
C926 H953 0.931 . S
C927 C928 1.359 . S
C927 C929 1.364 . S
C928 C926 1.374 . S
C928 C927 1.359 . S
C928 H954 0.931 . S
C929 C925 1.389 . S
C929 C927 1.364 . S
C929 H955 0.931 . S
C930 O944 1.256 . S
C930 O945 1.257 . S
C931 O946 1.240 . S
C931 O947 1.240 . S
C932 Gd921 2.818 . S
C932 C933 1.510 . S
C932 O948 1.249 . S
C932 O949 1.252 . S
C933 C932 1.510 . S
C933 C934 1.404 . S
C933 C935 1.352 . S
C934 C933 1.404 . S
C934 C938 1.389 . S
C934 H956 0.930 . S
C935 C933 1.352 . S
C935 C937 1.374 . S
C935 H957 0.931 . S
C936 C937 1.359 . S
C936 C938 1.364 . S
C937 C935 1.374 . S
C937 C936 1.359 . S
C937 H958 0.931 . S
C938 C934 1.389 . S
C938 C936 1.364 . S
C938 H959 0.931 . S
C939 O950 1.256 . S
C939 O951 1.257 . S
O940 Gd920 2.377 . S
O940 C922 1.240 . S
O941 Gd921 2.395 . S
O941 C922 1.240 . S
O942 Gd920 2.448 . S
O942 C923 1.249 . S
O943 Gd920 2.506 . S
O943 C923 1.252 . S
O944 Gd920 2.435 . S
O944 C930 1.256 . S
O945 Gd920 2.717 . S
O945 Gd921 2.327 . S
O945 C930 1.257 . S
O946 Gd921 2.377 . S
O946 C931 1.240 . S
O947 Gd920 2.395 . S
O947 C931 1.240 . S
O948 Gd921 2.448 . S
O948 C932 1.249 . S
O949 Gd921 2.506 . S
O949 C932 1.252 . S
O950 Gd921 2.435 . S
O950 C939 1.256 . S
O951 Gd920 2.327 . S
O951 Gd921 2.717 . S
O951 C939 1.257 . S
H952 C925 0.930 . S
H953 C926 0.931 . S
H954 C928 0.931 . S
H955 C929 0.931 . S
H956 C934 0.930 . S
H957 C935 0.931 . S
H958 C937 0.931 . S
H959 C938 0.931 . S
Gd960 C963 2.818 . S
Gd960 O980 2.377 . S
Gd960 O982 2.448 . S
Gd960 O983 2.506 . S
Gd960 O984 2.435 . S
Gd960 O985 2.717 . S
Gd960 O987 2.395 . S
Gd960 O991 2.327 . S
Gd961 C972 2.818 . S
Gd961 O981 2.395 . S
Gd961 O985 2.327 . S
Gd961 O986 2.377 . S
Gd961 O988 2.448 . S
Gd961 O989 2.506 . S
Gd961 O990 2.435 . S
Gd961 O991 2.717 . S
C962 O980 1.240 . S
C962 O981 1.240 . S
C963 Gd960 2.818 . S
C963 C964 1.510 . S
C963 O982 1.249 . S
C963 O983 1.252 . S
C964 C963 1.510 . S
C964 C965 1.404 . S
C964 C966 1.352 . S
C965 C964 1.404 . S
C965 C969 1.389 . S
C965 H992 0.930 . S
C966 C964 1.352 . S
C966 C968 1.374 . S
C966 H993 0.931 . S
C967 C968 1.359 . S
C967 C969 1.364 . S
C968 C966 1.374 . S
C968 C967 1.359 . S
C968 H994 0.931 . S
C969 C965 1.389 . S
C969 C967 1.364 . S
C969 H995 0.931 . S
C970 O984 1.256 . S
C970 O985 1.257 . S
C971 O986 1.240 . S
C971 O987 1.240 . S
C972 Gd961 2.818 . S
C972 C973 1.510 . S
C972 O988 1.249 . S
C972 O989 1.252 . S
C973 C972 1.510 . S
C973 C974 1.404 . S
C973 C975 1.352 . S
C974 C973 1.404 . S
C974 C978 1.389 . S
C974 H996 0.930 . S
C975 C973 1.352 . S
C975 C977 1.374 . S
C975 H997 0.931 . S
C976 C977 1.359 . S
C976 C978 1.364 . S
C977 C975 1.374 . S
C977 C976 1.359 . S
C977 H998 0.931 . S
C978 C974 1.389 . S
C978 C976 1.364 . S
C978 H999 0.931 . S
C979 O990 1.256 . S
C979 O991 1.257 . S
O980 Gd960 2.377 . S
O980 C962 1.240 . S
O981 Gd961 2.395 . S
O981 C962 1.240 . S
O982 Gd960 2.448 . S
O982 C963 1.249 . S
O983 Gd960 2.506 . S
O983 C963 1.252 . S
O984 Gd960 2.435 . S
O984 C970 1.256 . S
O985 Gd960 2.717 . S
O985 Gd961 2.327 . S
O985 C970 1.257 . S
O986 Gd961 2.377 . S
O986 C971 1.240 . S
O987 Gd960 2.395 . S
O987 C971 1.240 . S
O988 Gd961 2.448 . S
O988 C972 1.249 . S
O989 Gd961 2.506 . S
O989 C972 1.252 . S
O990 Gd961 2.435 . S
O990 C979 1.256 . S
O991 Gd960 2.327 . S
O991 Gd961 2.717 . S
O991 C979 1.257 . S
H992 C965 0.930 . S
H993 C966 0.931 . S
H994 C968 0.931 . S
H995 C969 0.931 . S
H996 C974 0.930 . S
H997 C975 0.931 . S
H998 C977 0.931 . S
H999 C978 0.931 . S
Gd1000 C1003 2.818 . S
Gd1000 O1020 2.377 . S
Gd1000 O1022 2.448 . S
Gd1000 O1023 2.506 . S
Gd1000 O1024 2.435 . S
Gd1000 O1025 2.717 . S
Gd1000 O1027 2.395 1_556 S
Gd1000 O1031 2.327 . S
Gd1001 C1012 2.818 1_556 S
Gd1001 O1021 2.395 . S
Gd1001 O1025 2.327 . S
Gd1001 O1026 2.377 1_556 S
Gd1001 O1028 2.443 1_556 S
Gd1001 O1029 2.506 1_556 S
Gd1001 O1030 2.435 . S
Gd1001 O1031 2.717 . S
C1002 O1020 1.240 . S
C1002 O1021 1.240 . S
C1003 Gd1000 2.818 . S
C1003 C1004 1.510 . S
C1003 O1022 1.249 . S
C1003 O1023 1.252 . S
C1004 C1003 1.510 . S
C1004 C1005 1.404 . S
C1004 C1006 1.352 . S
C1005 C1004 1.404 . S
C1005 C1009 1.389 . S
C1005 H1032 0.930 . S
C1006 C1004 1.352 . S
C1006 C1008 1.374 . S
C1006 H1033 0.931 . S
C1007 C1008 1.359 . S
C1007 C1009 1.364 . S
C1008 C1006 1.374 . S
C1008 C1007 1.359 . S
C1008 H1034 0.931 . S
C1009 C1005 1.389 . S
C1009 C1007 1.364 . S
C1009 H1035 0.931 . S
C1010 O1024 1.256 . S
C1010 O1025 1.257 . S
C1011 O1026 1.240 . S
C1011 O1027 1.240 . S
C1012 Gd1001 2.818 1_554 S
C1012 C1013 1.510 . S
C1012 O1028 1.258 . S
C1012 O1029 1.252 . S
C1013 C1012 1.510 . S
C1013 C1014 1.404 . S
C1013 C1015 1.352 . S
C1014 C1013 1.404 . S
C1014 C1018 1.389 . S
C1014 H1036 0.930 . S
C1015 C1013 1.352 . S
C1015 C1017 1.374 . S
C1015 H1037 0.931 . S
C1016 C1017 1.359 . S
C1016 C1018 1.364 . S
C1017 C1015 1.374 . S
C1017 C1016 1.359 . S
C1017 H1038 0.931 . S
C1018 C1014 1.389 . S
C1018 C1016 1.364 . S
C1018 H1039 0.931 . S
C1019 O1030 1.256 . S
C1019 O1031 1.257 . S
O1020 Gd1000 2.377 . S
O1020 C1002 1.240 . S
O1021 Gd1001 2.395 . S
O1021 C1002 1.240 . S
O1022 Gd1000 2.448 . S
O1022 C1003 1.249 . S
O1023 Gd1000 2.506 . S
O1023 C1003 1.252 . S
O1024 Gd1000 2.435 . S
O1024 C1010 1.256 . S
O1025 Gd1000 2.717 . S
O1025 Gd1001 2.327 . S
O1025 C1010 1.257 . S
O1026 Gd1001 2.377 1_554 S
O1026 C1011 1.240 . S
O1027 Gd1000 2.395 1_554 S
O1027 C1011 1.240 . S
O1028 Gd1001 2.443 1_554 S
O1028 C1012 1.258 . S
O1029 Gd1001 2.506 1_554 S
O1029 C1012 1.252 . S
O1030 Gd1001 2.435 . S
O1030 C1019 1.256 . S
O1031 Gd1000 2.327 . S
O1031 Gd1001 2.717 . S
O1031 C1019 1.257 . S
H1032 C1005 0.930 . S
H1033 C1006 0.931 . S
H1034 C1008 0.931 . S
H1035 C1009 0.931 . S
H1036 C1014 0.930 . S
H1037 C1015 0.931 . S
H1038 C1017 0.931 . S
H1039 C1018 0.931 . S
Gd1040 C1043 2.818 . S
Gd1040 O1060 2.377 . S
Gd1040 O1062 2.448 . S
Gd1040 O1063 2.506 . S
Gd1040 O1064 2.435 . S
Gd1040 O1065 2.717 . S
Gd1040 O1067 2.395 . S
Gd1040 O1071 2.327 . S
Gd1041 C1052 2.818 . S
Gd1041 O1061 2.395 . S
Gd1041 O1065 2.327 . S
Gd1041 O1066 2.377 . S
Gd1041 O1068 2.448 . S
Gd1041 O1069 2.506 . S
Gd1041 O1070 2.435 . S
Gd1041 O1071 2.717 . S
C1042 O1060 1.240 . S
C1042 O1061 1.240 . S
C1043 Gd1040 2.818 . S
C1043 C1044 1.510 . S
C1043 O1062 1.249 . S
C1043 O1063 1.252 . S
C1044 C1043 1.510 . S
C1044 C1045 1.404 . S
C1044 C1046 1.352 . S
C1045 C1044 1.404 . S
C1045 C1049 1.389 . S
C1045 H1072 0.930 . S
C1046 C1044 1.352 . S
C1046 C1048 1.374 . S
C1046 H1073 0.931 . S
C1047 C1048 1.359 . S
C1047 C1049 1.364 . S
C1048 C1046 1.374 . S
C1048 C1047 1.359 . S
C1048 H1074 0.931 . S
C1049 C1045 1.389 . S
C1049 C1047 1.364 . S
C1049 H1075 0.931 1_455 S
C1050 O1064 1.256 . S
C1050 O1065 1.257 . S
C1051 O1066 1.240 . S
C1051 O1067 1.240 . S
C1052 Gd1041 2.818 . S
C1052 C1053 1.510 . S
C1052 O1068 1.249 . S
C1052 O1069 1.252 . S
C1053 C1052 1.510 . S
C1053 C1054 1.404 . S
C1053 C1055 1.352 . S
C1054 C1053 1.404 . S
C1054 C1058 1.389 . S
C1054 H1076 0.930 . S
C1055 C1053 1.352 . S
C1055 C1057 1.374 . S
C1055 H1077 0.931 . S
C1056 C1057 1.359 . S
C1056 C1058 1.364 . S
C1057 C1055 1.374 . S
C1057 C1056 1.359 . S
C1057 H1078 0.931 . S
C1058 C1054 1.389 . S
C1058 C1056 1.364 . S
C1058 H1079 0.931 . S
C1059 O1070 1.256 . S
C1059 O1071 1.257 . S
O1060 Gd1040 2.377 . S
O1060 C1042 1.240 . S
O1061 Gd1041 2.395 . S
O1061 C1042 1.240 . S
O1062 Gd1040 2.448 . S
O1062 C1043 1.249 . S
O1063 Gd1040 2.506 . S
O1063 C1043 1.252 . S
O1064 Gd1040 2.435 . S
O1064 C1050 1.256 . S
O1065 Gd1040 2.717 . S
O1065 Gd1041 2.327 . S
O1065 C1050 1.257 . S
O1066 Gd1041 2.377 . S
O1066 C1051 1.240 . S
O1067 Gd1040 2.395 . S
O1067 C1051 1.240 . S
O1068 Gd1041 2.448 . S
O1068 C1052 1.249 . S
O1069 Gd1041 2.506 . S
O1069 C1052 1.252 . S
O1070 Gd1041 2.435 . S
O1070 C1059 1.256 . S
O1071 Gd1040 2.327 . S
O1071 Gd1041 2.717 . S
O1071 C1059 1.257 . S
H1072 C1045 0.930 . S
H1073 C1046 0.931 . S
H1074 C1048 0.931 . S
H1075 C1049 0.931 1_655 S
H1076 C1054 0.930 . S
H1077 C1055 0.931 . S
H1078 C1057 0.931 . S
H1079 C1058 0.931 . S
Gd1080 C1083 2.818 . S
Gd1080 O1100 2.377 . S
Gd1080 O1102 2.448 . S
Gd1080 O1103 2.506 . S
Gd1080 O1104 2.435 . S
Gd1080 O1105 2.717 . S
Gd1080 O1107 2.395 . S
Gd1080 O1111 2.327 . S
Gd1081 C1092 2.818 . S
Gd1081 O1101 2.395 . S
Gd1081 O1105 2.327 . S
Gd1081 O1106 2.377 . S
Gd1081 O1108 2.448 . S
Gd1081 O1109 2.506 . S
Gd1081 O1110 2.435 . S
Gd1081 O1111 2.717 . S
C1082 O1100 1.240 . S
C1082 O1101 1.240 . S
C1083 Gd1080 2.818 . S
C1083 C1084 1.510 . S
C1083 O1102 1.249 . S
C1083 O1103 1.252 . S
C1084 C1083 1.510 . S
C1084 C1085 1.404 . S
C1084 C1086 1.352 . S
C1085 C1084 1.404 . S
C1085 C1089 1.389 . S
C1085 H1112 0.930 . S
C1086 C1084 1.352 . S
C1086 C1088 1.374 . S
C1086 H1113 0.931 . S
C1087 C1088 1.359 . S
C1087 C1089 1.364 . S
C1088 C1086 1.374 . S
C1088 C1087 1.359 . S
C1088 H1114 0.931 . S
C1089 C1085 1.389 . S
C1089 C1087 1.364 . S
C1089 H1115 0.931 . S
C1090 O1104 1.256 . S
C1090 O1105 1.257 . S
C1091 O1106 1.240 . S
C1091 O1107 1.240 . S
C1092 Gd1081 2.818 . S
C1092 C1093 1.510 . S
C1092 O1108 1.249 . S
C1092 O1109 1.252 . S
C1093 C1092 1.510 . S
C1093 C1094 1.404 . S
C1093 C1095 1.352 . S
C1094 C1093 1.404 . S
C1094 C1098 1.389 . S
C1094 H1116 0.930 . S
C1095 C1093 1.352 . S
C1095 C1097 1.374 . S
C1095 H1117 0.931 . S
C1096 C1097 1.359 . S
C1096 C1098 1.364 . S
C1097 C1095 1.374 . S
C1097 C1096 1.359 . S
C1097 H1118 0.931 . S
C1098 C1094 1.389 . S
C1098 C1096 1.364 . S
C1098 H1119 0.931 . S
C1099 O1110 1.256 . S
C1099 O1111 1.257 . S
O1100 Gd1080 2.377 . S
O1100 C1082 1.240 . S
O1101 Gd1081 2.395 . S
O1101 C1082 1.240 . S
O1102 Gd1080 2.448 . S
O1102 C1083 1.249 . S
O1103 Gd1080 2.506 . S
O1103 C1083 1.252 . S
O1104 Gd1080 2.435 . S
O1104 C1090 1.256 . S
O1105 Gd1080 2.717 . S
O1105 Gd1081 2.327 . S
O1105 C1090 1.257 . S
O1106 Gd1081 2.377 . S
O1106 C1091 1.240 . S
O1107 Gd1080 2.395 . S
O1107 C1091 1.240 . S
O1108 Gd1081 2.448 . S
O1108 C1092 1.249 . S
O1109 Gd1081 2.506 . S
O1109 C1092 1.252 . S
O1110 Gd1081 2.435 . S
O1110 C1099 1.256 . S
O1111 Gd1080 2.327 . S
O1111 Gd1081 2.717 . S
O1111 C1099 1.257 . S
H1112 C1085 0.930 . S
H1113 C1086 0.931 . S
H1114 C1088 0.931 . S
H1115 C1089 0.931 . S
H1116 C1094 0.930 . S
H1117 C1095 0.931 . S
H1118 C1097 0.931 . S
H1119 C1098 0.931 . S
Gd1120 C1123 2.818 . S
Gd1120 O1140 2.377 . S
Gd1120 O1142 2.448 . S
Gd1120 O1143 2.506 . S
Gd1120 O1144 2.435 . S
Gd1120 O1145 2.717 . S
Gd1120 O1147 2.395 . S
Gd1120 O1151 2.327 . S
Gd1121 C1132 2.818 . S
Gd1121 O1141 2.395 . S
Gd1121 O1145 2.327 . S
Gd1121 O1146 2.377 . S
Gd1121 O1148 2.448 . S
Gd1121 O1149 2.506 . S
Gd1121 O1150 2.435 . S
Gd1121 O1151 2.717 . S
C1122 O1140 1.240 . S
C1122 O1141 1.240 . S
C1123 Gd1120 2.818 . S
C1123 C1124 1.510 . S
C1123 O1142 1.249 . S
C1123 O1143 1.252 . S
C1124 C1123 1.510 . S
C1124 C1125 1.404 . S
C1124 C1126 1.352 . S
C1125 C1124 1.404 . S
C1125 C1129 1.389 . S
C1125 H1152 0.930 . S
C1126 C1124 1.352 . S
C1126 C1128 1.374 . S
C1126 H1153 0.931 . S
C1127 C1128 1.359 . S
C1127 C1129 1.364 . S
C1128 C1126 1.374 . S
C1128 C1127 1.359 . S
C1128 H1154 0.931 . S
C1129 C1125 1.389 . S
C1129 C1127 1.364 . S
C1129 H1155 0.931 . S
C1130 O1144 1.256 . S
C1130 O1145 1.257 . S
C1131 O1146 1.240 . S
C1131 O1147 1.240 . S
C1132 Gd1121 2.818 . S
C1132 C1133 1.510 . S
C1132 O1148 1.249 . S
C1132 O1149 1.252 . S
C1133 C1132 1.510 . S
C1133 C1134 1.404 . S
C1133 C1135 1.352 . S
C1134 C1133 1.404 . S
C1134 C1138 1.389 . S
C1134 H1156 0.930 . S
C1135 C1133 1.352 . S
C1135 C1137 1.374 . S
C1135 H1157 0.931 . S
C1136 C1137 1.359 . S
C1136 C1138 1.364 . S
C1137 C1135 1.374 . S
C1137 C1136 1.359 . S
C1137 H1158 0.931 . S
C1138 C1134 1.389 . S
C1138 C1136 1.364 . S
C1138 H1159 0.931 . S
C1139 O1150 1.256 . S
C1139 O1151 1.257 . S
O1140 Gd1120 2.377 . S
O1140 C1122 1.240 . S
O1141 Gd1121 2.395 . S
O1141 C1122 1.240 . S
O1142 Gd1120 2.448 . S
O1142 C1123 1.249 . S
O1143 Gd1120 2.506 . S
O1143 C1123 1.252 . S
O1144 Gd1120 2.435 . S
O1144 C1130 1.256 . S
O1145 Gd1120 2.717 . S
O1145 Gd1121 2.327 . S
O1145 C1130 1.257 . S
O1146 Gd1121 2.377 . S
O1146 C1131 1.240 . S
O1147 Gd1120 2.395 . S
O1147 C1131 1.240 . S
O1148 Gd1121 2.448 . S
O1148 C1132 1.249 . S
O1149 Gd1121 2.506 . S
O1149 C1132 1.252 . S
O1150 Gd1121 2.435 . S
O1150 C1139 1.256 . S
O1151 Gd1120 2.327 . S
O1151 Gd1121 2.717 . S
O1151 C1139 1.257 . S
H1152 C1125 0.930 . S
H1153 C1126 0.931 . S
H1154 C1128 0.931 . S
H1155 C1129 0.931 . S
H1156 C1134 0.930 . S
H1157 C1135 0.931 . S
H1158 C1137 0.931 . S
H1159 C1138 0.931 . S
Gd1160 C1163 2.818 . S
Gd1160 O1180 2.377 . S
Gd1160 O1182 2.448 . S
Gd1160 O1183 2.506 . S
Gd1160 O1184 2.435 . S
Gd1160 O1185 2.717 . S
Gd1160 O1187 2.395 1_554 S
Gd1160 O1191 2.327 . S
Gd1161 C1172 2.818 1_554 S
Gd1161 O1181 2.395 . S
Gd1161 O1185 2.327 . S
Gd1161 O1186 2.377 1_554 S
Gd1161 O1188 2.443 1_554 S
Gd1161 O1189 2.506 1_554 S
Gd1161 O1190 2.435 . S
Gd1161 O1191 2.717 . S
C1162 O1180 1.240 . S
C1162 O1181 1.240 . S
C1163 Gd1160 2.818 . S
C1163 C1164 1.510 . S
C1163 O1182 1.249 . S
C1163 O1183 1.252 . S
C1164 C1163 1.510 . S
C1164 C1165 1.404 . S
C1164 C1166 1.352 . S
C1165 C1164 1.404 . S
C1165 C1169 1.389 . S
C1165 H1192 0.930 . S
C1166 C1164 1.352 . S
C1166 C1168 1.374 . S
C1166 H1193 0.931 . S
C1167 C1168 1.359 . S
C1167 C1169 1.364 . S
C1168 C1166 1.374 . S
C1168 C1167 1.359 . S
C1168 H1194 0.931 . S
C1169 C1165 1.389 . S
C1169 C1167 1.364 . S
C1169 H1195 0.931 . S
C1170 O1184 1.256 . S
C1170 O1185 1.257 . S
C1171 O1186 1.240 . S
C1171 O1187 1.240 . S
C1172 Gd1161 2.818 1_556 S
C1172 C1173 1.510 . S
C1172 O1188 1.258 . S
C1172 O1189 1.252 . S
C1173 C1172 1.510 . S
C1173 C1174 1.404 . S
C1173 C1175 1.352 . S
C1174 C1173 1.404 . S
C1174 C1178 1.389 . S
C1174 H1196 0.930 . S
C1175 C1173 1.352 . S
C1175 C1177 1.374 . S
C1175 H1197 0.931 . S
C1176 C1177 1.359 . S
C1176 C1178 1.364 . S
C1177 C1175 1.374 . S
C1177 C1176 1.359 . S
C1177 H1198 0.931 . S
C1178 C1174 1.389 . S
C1178 C1176 1.364 . S
C1178 H1199 0.931 . S
C1179 O1190 1.256 . S
C1179 O1191 1.257 . S
O1180 Gd1160 2.377 . S
O1180 C1162 1.240 . S
O1181 Gd1161 2.395 . S
O1181 C1162 1.240 . S
O1182 Gd1160 2.448 . S
O1182 C1163 1.249 . S
O1183 Gd1160 2.506 . S
O1183 C1163 1.252 . S
O1184 Gd1160 2.435 . S
O1184 C1170 1.256 . S
O1185 Gd1160 2.717 . S
O1185 Gd1161 2.327 . S
O1185 C1170 1.257 . S
O1186 Gd1161 2.377 1_556 S
O1186 C1171 1.240 . S
O1187 Gd1160 2.395 1_556 S
O1187 C1171 1.240 . S
O1188 Gd1161 2.443 1_556 S
O1188 C1172 1.258 . S
O1189 Gd1161 2.506 1_556 S
O1189 C1172 1.252 . S
O1190 Gd1161 2.435 . S
O1190 C1179 1.256 . S
O1191 Gd1160 2.327 . S
O1191 Gd1161 2.717 . S
O1191 C1179 1.257 . S
H1192 C1165 0.930 . S
H1193 C1166 0.931 . S
H1194 C1168 0.931 . S
H1195 C1169 0.931 . S
H1196 C1174 0.930 . S
H1197 C1175 0.931 . S
H1198 C1177 0.931 . S
H1199 C1178 0.931 . S
Gd1200 C1203 2.818 . S
Gd1200 O1220 2.377 . S
Gd1200 O1222 2.448 . S
Gd1200 O1223 2.506 . S
Gd1200 O1224 2.435 . S
Gd1200 O1225 2.717 . S
Gd1200 O1227 2.395 . S
Gd1200 O1231 2.327 . S
Gd1201 C1212 2.818 . S
Gd1201 O1221 2.395 . S
Gd1201 O1225 2.327 . S
Gd1201 O1226 2.377 . S
Gd1201 O1228 2.448 . S
Gd1201 O1229 2.506 . S
Gd1201 O1230 2.435 . S
Gd1201 O1231 2.717 . S
C1202 O1220 1.240 . S
C1202 O1221 1.240 . S
C1203 Gd1200 2.818 . S
C1203 C1204 1.510 . S
C1203 O1222 1.249 . S
C1203 O1223 1.252 . S
C1204 C1203 1.510 . S
C1204 C1205 1.404 . S
C1204 C1206 1.352 . S
C1205 C1204 1.404 . S
C1205 C1209 1.389 . S
C1205 H1232 0.930 . S
C1206 C1204 1.352 . S
C1206 C1208 1.374 . S
C1206 H1233 0.931 . S
C1207 C1208 1.359 . S
C1207 C1209 1.364 . S
C1208 C1206 1.374 . S
C1208 C1207 1.359 . S
C1208 H1234 0.931 . S
C1209 C1205 1.389 . S
C1209 C1207 1.364 . S
C1209 H1235 0.931 1_455 S
C1210 O1224 1.256 . S
C1210 O1225 1.257 . S
C1211 O1226 1.240 . S
C1211 O1227 1.240 . S
C1212 Gd1201 2.818 . S
C1212 C1213 1.510 . S
C1212 O1228 1.249 . S
C1212 O1229 1.252 . S
C1213 C1212 1.510 . S
C1213 C1214 1.404 . S
C1213 C1215 1.352 . S
C1214 C1213 1.404 . S
C1214 C1218 1.389 . S
C1214 H1236 0.930 . S
C1215 C1213 1.352 . S
C1215 C1217 1.374 . S
C1215 H1237 0.931 . S
C1216 C1217 1.359 . S
C1216 C1218 1.364 . S
C1217 C1215 1.374 . S
C1217 C1216 1.359 . S
C1217 H1238 0.931 . S
C1218 C1214 1.389 . S
C1218 C1216 1.364 . S
C1218 H1239 0.931 . S
C1219 O1230 1.256 . S
C1219 O1231 1.257 . S
O1220 Gd1200 2.377 . S
O1220 C1202 1.240 . S
O1221 Gd1201 2.395 . S
O1221 C1202 1.240 . S
O1222 Gd1200 2.448 . S
O1222 C1203 1.249 . S
O1223 Gd1200 2.506 . S
O1223 C1203 1.252 . S
O1224 Gd1200 2.435 . S
O1224 C1210 1.256 . S
O1225 Gd1200 2.717 . S
O1225 Gd1201 2.327 . S
O1225 C1210 1.257 . S
O1226 Gd1201 2.377 . S
O1226 C1211 1.240 . S
O1227 Gd1200 2.395 . S
O1227 C1211 1.240 . S
O1228 Gd1201 2.448 . S
O1228 C1212 1.249 . S
O1229 Gd1201 2.506 . S
O1229 C1212 1.252 . S
O1230 Gd1201 2.435 . S
O1230 C1219 1.256 . S
O1231 Gd1200 2.327 . S
O1231 Gd1201 2.717 . S
O1231 C1219 1.257 . S
H1232 C1205 0.930 . S
H1233 C1206 0.931 . S
H1234 C1208 0.931 . S
H1235 C1209 0.931 1_655 S
H1236 C1214 0.930 . S
H1237 C1215 0.931 . S
H1238 C1217 0.931 . S
H1239 C1218 0.931 . S
Gd1240 C1243 2.818 . S
Gd1240 O1260 2.377 . S
Gd1240 O1262 2.448 . S
Gd1240 O1263 2.506 . S
Gd1240 O1264 2.435 . S
Gd1240 O1265 2.717 . S
Gd1240 O1267 2.395 . S
Gd1240 O1271 2.327 . S
Gd1241 C1252 2.818 . S
Gd1241 O1261 2.395 . S
Gd1241 O1265 2.327 . S
Gd1241 O1266 2.377 . S
Gd1241 O1268 2.448 . S
Gd1241 O1269 2.506 . S
Gd1241 O1270 2.435 . S
Gd1241 O1271 2.717 . S
C1242 O1260 1.240 . S
C1242 O1261 1.240 . S
C1243 Gd1240 2.818 . S
C1243 C1244 1.510 . S
C1243 O1262 1.249 . S
C1243 O1263 1.252 . S
C1244 C1243 1.510 . S
C1244 C1245 1.404 . S
C1244 C1246 1.352 . S
C1245 C1244 1.404 . S
C1245 C1249 1.389 . S
C1245 H1272 0.930 . S
C1246 C1244 1.352 . S
C1246 C1248 1.374 . S
C1246 H1273 0.931 . S
C1247 C1248 1.359 . S
C1247 C1249 1.364 . S
C1248 C1246 1.374 . S
C1248 C1247 1.359 . S
C1248 H1274 0.931 . S
C1249 C1245 1.389 . S
C1249 C1247 1.364 . S
C1249 H1275 0.931 . S
C1250 O1264 1.256 . S
C1250 O1265 1.257 . S
C1251 O1266 1.240 . S
C1251 O1267 1.240 . S
C1252 Gd1241 2.818 . S
C1252 C1253 1.510 . S
C1252 O1268 1.249 . S
C1252 O1269 1.252 . S
C1253 C1252 1.510 . S
C1253 C1254 1.404 . S
C1253 C1255 1.352 . S
C1254 C1253 1.404 . S
C1254 C1258 1.389 . S
C1254 H1276 0.930 . S
C1255 C1253 1.352 . S
C1255 C1257 1.374 . S
C1255 H1277 0.931 . S
C1256 C1257 1.359 . S
C1256 C1258 1.364 . S
C1257 C1255 1.374 . S
C1257 C1256 1.359 . S
C1257 H1278 0.931 . S
C1258 C1254 1.389 . S
C1258 C1256 1.364 . S
C1258 H1279 0.931 . S
C1259 O1270 1.256 . S
C1259 O1271 1.257 . S
O1260 Gd1240 2.377 . S
O1260 C1242 1.240 . S
O1261 Gd1241 2.395 . S
O1261 C1242 1.240 . S
O1262 Gd1240 2.448 . S
O1262 C1243 1.249 . S
O1263 Gd1240 2.506 . S
O1263 C1243 1.252 . S
O1264 Gd1240 2.435 . S
O1264 C1250 1.256 . S
O1265 Gd1240 2.717 . S
O1265 Gd1241 2.327 . S
O1265 C1250 1.257 . S
O1266 Gd1241 2.377 . S
O1266 C1251 1.240 . S
O1267 Gd1240 2.395 . S
O1267 C1251 1.240 . S
O1268 Gd1241 2.448 . S
O1268 C1252 1.249 . S
O1269 Gd1241 2.506 . S
O1269 C1252 1.252 . S
O1270 Gd1241 2.435 . S
O1270 C1259 1.256 . S
O1271 Gd1240 2.327 . S
O1271 Gd1241 2.717 . S
O1271 C1259 1.257 . S
H1272 C1245 0.930 . S
H1273 C1246 0.931 . S
H1274 C1248 0.931 . S
H1275 C1249 0.931 . S
H1276 C1254 0.930 . S
H1277 C1255 0.931 . S
H1278 C1257 0.931 . S
H1279 C1258 0.931 . S
H1280 C1286 0.930 . S
H1281 C1289 0.930 . S
H1282 C1290 0.930 . S
H1283 C1291 0.930 . S
H1284 C1294 0.930 . S
H1285 C1295 0.930 . S
C1286 H1280 0.930 . S
C1286 C1287 1.355 . S
C1286 C1288 1.415 . S
C1287 C1286 1.355 . S
C1287 C1289 1.419 . S
C1288 C1286 1.415 . S
C1288 C1293 1.425 . S
C1288 C1295 1.409 . S
C1289 H1281 0.930 . S
C1289 C1287 1.419 . S
C1289 C1290 1.362 . S
C1290 H1282 0.930 . S
C1290 C1289 1.362 . S
C1290 C1293 1.409 . S
C1291 H1283 0.930 . S
C1291 C1292 1.355 . S
C1291 C1293 1.415 . S
C1292 C1291 1.355 . S
C1292 C1294 1.419 . S
C1293 C1288 1.425 . S
C1293 C1290 1.409 . S
C1293 C1291 1.415 . S
C1294 H1284 0.930 . S
C1294 C1292 1.419 . S
C1294 C1295 1.362 . S
C1295 H1285 0.930 . S
C1295 C1288 1.409 . S
C1295 C1294 1.362 . S
H1296 C1302 0.930 . S
H1297 C1305 0.930 . S
H1298 C1306 0.930 . S
H1299 C1307 0.930 . S
H1300 C1310 0.930 . S
H1301 C1311 0.930 . S
C1302 H1296 0.930 . S
C1302 C1303 1.355 . S
C1302 C1304 1.415 . S
C1303 C1302 1.355 . S
C1303 C1305 1.419 . S
C1304 C1302 1.415 . S
C1304 C1309 1.425 . S
C1304 C1311 1.409 . S
C1305 H1297 0.930 . S
C1305 C1303 1.419 . S
C1305 C1306 1.362 . S
C1306 H1298 0.930 . S
C1306 C1305 1.362 . S
C1306 C1309 1.409 . S
C1307 H1299 0.930 . S
C1307 C1308 1.355 . S
C1307 C1309 1.415 . S
C1308 C1307 1.355 . S
C1308 C1310 1.419 . S
C1309 C1304 1.425 . S
C1309 C1306 1.409 . S
C1309 C1307 1.415 . S
C1310 H1300 0.930 . S
C1310 C1308 1.419 . S
C1310 C1311 1.362 . S
C1311 H1301 0.930 . S
C1311 C1304 1.409 . S
C1311 C1310 1.362 . S
H1312 C1318 0.930 . S
H1313 C1321 0.930 . S
H1314 C1322 0.930 . S
H1315 C1323 0.930 . S
H1316 C1326 0.930 . S
H1317 C1327 0.930 . S
C1318 H1312 0.930 . S
C1318 C1319 1.355 . S
C1318 C1320 1.415 . S
C1319 C1318 1.355 . S
C1319 C1321 1.419 . S
C1320 C1318 1.415 . S
C1320 C1325 1.425 . S
C1320 C1327 1.409 . S
C1321 H1313 0.930 . S
C1321 C1319 1.419 . S
C1321 C1322 1.362 . S
C1322 H1314 0.930 . S
C1322 C1321 1.362 . S
C1322 C1325 1.409 . S
C1323 H1315 0.930 . S
C1323 C1324 1.355 . S
C1323 C1325 1.415 . S
C1324 C1323 1.355 . S
C1324 C1326 1.419 . S
C1325 C1320 1.425 . S
C1325 C1322 1.409 . S
C1325 C1323 1.415 . S
C1326 H1316 0.930 . S
C1326 C1324 1.419 . S
C1326 C1327 1.362 . S
C1327 H1317 0.930 . S
C1327 C1320 1.409 . S
C1327 C1326 1.362 . S
H1328 C1334 0.930 . S
H1329 C1337 0.930 . S
H1330 C1338 0.930 . S
H1331 C1339 0.930 . S
H1332 C1342 0.930 . S
H1333 C1343 0.930 . S
C1334 H1328 0.930 . S
C1334 C1335 1.355 . S
C1334 C1336 1.415 . S
C1335 C1334 1.355 . S
C1335 C1337 1.419 . S
C1336 C1334 1.415 . S
C1336 C1341 1.425 . S
C1336 C1343 1.409 . S
C1337 H1329 0.930 . S
C1337 C1335 1.419 . S
C1337 C1338 1.362 . S
C1338 H1330 0.930 . S
C1338 C1337 1.362 . S
C1338 C1341 1.409 . S
C1339 H1331 0.930 . S
C1339 C1340 1.355 . S
C1339 C1341 1.415 . S
C1340 C1339 1.355 . S
C1340 C1342 1.419 . S
C1341 C1336 1.425 . S
C1341 C1338 1.409 . S
C1341 C1339 1.415 . S
C1342 H1332 0.930 . S
C1342 C1340 1.419 . S
C1342 C1343 1.362 . S
C1343 H1333 0.930 . S
C1343 C1336 1.409 . S
C1343 C1342 1.362 . S
H1344 C1350 0.930 . S
H1345 C1353 0.930 . S
H1346 C1354 0.930 . S
H1347 C1355 0.930 . S
H1348 C1358 0.930 . S
H1349 C1359 0.930 . S
C1350 H1344 0.930 . S
C1350 C1351 1.355 . S
C1350 C1352 1.415 . S
C1351 C1350 1.355 . S
C1351 C1353 1.419 . S
C1352 C1350 1.415 . S
C1352 C1357 1.425 . S
C1352 C1359 1.409 . S
C1353 H1345 0.930 . S
C1353 C1351 1.419 . S
C1353 C1354 1.362 . S
C1354 H1346 0.930 . S
C1354 C1353 1.362 . S
C1354 C1357 1.409 . S
C1355 H1347 0.930 . S
C1355 C1356 1.355 . S
C1355 C1357 1.415 . S
C1356 C1355 1.355 . S
C1356 C1358 1.419 . S
C1357 C1352 1.425 . S
C1357 C1354 1.409 . S
C1357 C1355 1.415 . S
C1358 H1348 0.930 . S
C1358 C1356 1.419 . S
C1358 C1359 1.362 . S
C1359 H1349 0.930 . S
C1359 C1352 1.409 . S
C1359 C1358 1.362 . S
H1360 C1366 0.930 1_565 S
H1361 C1369 0.930 . S
H1362 C1370 0.930 . S
H1363 C1371 0.930 . S
H1364 C1374 0.930 . S
H1365 C1375 0.930 . S
C1366 H1360 0.930 1_545 S
C1366 C1367 1.355 . S
C1366 C1368 1.415 . S
C1367 C1366 1.355 . S
C1367 C1369 1.419 . S
C1368 C1366 1.415 . S
C1368 C1373 1.425 . S
C1368 C1375 1.409 . S
C1369 H1361 0.930 . S
C1369 C1367 1.419 . S
C1369 C1370 1.362 . S
C1370 H1362 0.930 . S
C1370 C1369 1.362 . S
C1370 C1373 1.409 . S
C1371 H1363 0.930 . S
C1371 C1372 1.355 . S
C1371 C1373 1.415 . S
C1372 C1371 1.355 . S
C1372 C1374 1.419 . S
C1373 C1368 1.425 . S
C1373 C1370 1.409 . S
C1373 C1371 1.415 . S
C1374 H1364 0.930 . S
C1374 C1372 1.419 . S
C1374 C1375 1.362 . S
C1375 H1365 0.930 . S
C1375 C1368 1.409 . S
C1375 C1374 1.362 . S
H1376 C1382 0.930 . S
H1377 C1385 0.930 . S
H1378 C1386 0.930 . S
H1379 C1387 0.930 . S
H1380 C1390 0.930 . S
H1381 C1391 0.930 . S
C1382 H1376 0.930 . S
C1382 C1383 1.355 . S
C1382 C1384 1.415 . S
C1383 C1382 1.355 . S
C1383 C1385 1.419 . S
C1384 C1382 1.415 . S
C1384 C1389 1.425 . S
C1384 C1391 1.409 . S
C1385 H1377 0.930 . S
C1385 C1383 1.419 . S
C1385 C1386 1.362 . S
C1386 H1378 0.930 . S
C1386 C1385 1.362 . S
C1386 C1389 1.409 . S
C1387 H1379 0.930 . S
C1387 C1388 1.355 . S
C1387 C1389 1.415 . S
C1388 C1387 1.355 . S
C1388 C1390 1.419 . S
C1389 C1384 1.425 . S
C1389 C1386 1.409 . S
C1389 C1387 1.415 . S
C1390 H1380 0.930 . S
C1390 C1388 1.419 . S
C1390 C1391 1.362 . S
C1391 H1381 0.930 . S
C1391 C1384 1.409 . S
C1391 C1390 1.362 . S
H1392 C1398 0.930 . S
H1393 C1401 0.930 . S
H1394 C1402 0.930 . S
H1395 C1403 0.930 . S
H1396 C1406 0.930 . S
H1397 C1407 0.930 . S
C1398 H1392 0.930 . S
C1398 C1399 1.355 . S
C1398 C1400 1.415 . S
C1399 C1398 1.355 . S
C1399 C1401 1.419 . S
C1400 C1398 1.415 . S
C1400 C1405 1.425 . S
C1400 C1407 1.409 . S
C1401 H1393 0.930 . S
C1401 C1399 1.419 . S
C1401 C1402 1.362 . S
C1402 H1394 0.930 . S
C1402 C1401 1.362 . S
C1402 C1405 1.409 . S
C1403 H1395 0.930 . S
C1403 C1404 1.355 . S
C1403 C1405 1.415 . S
C1404 C1403 1.355 . S
C1404 C1406 1.419 . S
C1405 C1400 1.425 . S
C1405 C1402 1.409 . S
C1405 C1403 1.415 . S
C1406 H1396 0.930 . S
C1406 C1404 1.419 . S
C1406 C1407 1.362 . S
C1407 H1397 0.930 . S
C1407 C1400 1.409 . S
C1407 C1406 1.362 . S
H1408 C1414 0.930 . S
H1409 C1417 0.930 . S
H1410 C1418 0.930 . S
H1411 C1419 0.930 . S
H1412 C1422 0.930 . S
H1413 C1423 0.930 . S
C1414 H1408 0.930 . S
C1414 C1415 1.355 . S
C1414 C1416 1.415 . S
C1415 C1414 1.355 . S
C1415 C1417 1.419 . S
C1416 C1414 1.415 . S
C1416 C1421 1.425 . S
C1416 C1423 1.409 . S
C1417 H1409 0.930 . S
C1417 C1415 1.419 . S
C1417 C1418 1.362 . S
C1418 H1410 0.930 . S
C1418 C1417 1.362 . S
C1418 C1421 1.409 . S
C1419 H1411 0.930 . S
C1419 C1420 1.355 . S
C1419 C1421 1.415 . S
C1420 C1419 1.355 . S
C1420 C1422 1.419 . S
C1421 C1416 1.425 . S
C1421 C1418 1.409 . S
C1421 C1419 1.415 . S
C1422 H1412 0.930 . S
C1422 C1420 1.419 . S
C1422 C1423 1.362 . S
C1423 H1413 0.930 . S
C1423 C1416 1.409 . S
C1423 C1422 1.362 . S
H1424 C1430 0.930 . S
H1425 C1433 0.930 . S
H1426 C1434 0.930 . S
H1427 C1435 0.930 . S
H1428 C1438 0.930 . S
H1429 C1439 0.930 . S
C1430 H1424 0.930 . S
C1430 C1431 1.355 . S
C1430 C1432 1.415 . S
C1431 C1430 1.355 . S
C1431 C1433 1.419 . S
C1432 C1430 1.415 . S
C1432 C1437 1.425 . S
C1432 C1439 1.409 . S
C1433 H1425 0.930 . S
C1433 C1431 1.419 . S
C1433 C1434 1.362 . S
C1434 H1426 0.930 . S
C1434 C1433 1.362 . S
C1434 C1437 1.409 . S
C1435 H1427 0.930 . S
C1435 C1436 1.355 . S
C1435 C1437 1.415 . S
C1436 C1435 1.355 . S
C1436 C1438 1.419 . S
C1437 C1432 1.425 . S
C1437 C1434 1.409 . S
C1437 C1435 1.415 . S
C1438 H1428 0.930 . S
C1438 C1436 1.419 . S
C1438 C1439 1.362 . S
C1439 H1429 0.930 . S
C1439 C1432 1.409 . S
C1439 C1438 1.362 . S
H1440 C1446 0.930 . S
H1441 C1449 0.930 . S
H1442 C1450 0.930 . S
H1443 C1451 0.930 . S
H1444 C1454 0.930 . S
H1445 C1455 0.930 . S
C1446 H1440 0.930 . S
C1446 C1447 1.355 . S
C1446 C1448 1.415 . S
C1447 C1446 1.355 . S
C1447 C1449 1.419 . S
C1448 C1446 1.415 . S
C1448 C1453 1.425 . S
C1448 C1455 1.409 . S
C1449 H1441 0.930 . S
C1449 C1447 1.419 . S
C1449 C1450 1.362 . S
C1450 H1442 0.930 . S
C1450 C1449 1.362 . S
C1450 C1453 1.409 . S
C1451 H1443 0.930 . S
C1451 C1452 1.355 . S
C1451 C1453 1.415 . S
C1452 C1451 1.355 . S
C1452 C1454 1.419 . S
C1453 C1448 1.425 . S
C1453 C1450 1.409 . S
C1453 C1451 1.415 . S
C1454 H1444 0.930 . S
C1454 C1452 1.419 . S
C1454 C1455 1.362 . S
C1455 H1445 0.930 . S
C1455 C1448 1.409 . S
C1455 C1454 1.362 . S
H1456 C1462 0.930 . S
H1457 C1465 0.930 1_565 S
H1458 C1466 0.930 . S
H1459 C1467 0.930 . S
H1460 C1470 0.930 . S
H1461 C1471 0.930 . S
C1462 H1456 0.930 . S
C1462 C1463 1.355 . S
C1462 C1464 1.415 . S
C1463 C1462 1.355 . S
C1463 C1465 1.419 . S
C1464 C1462 1.415 . S
C1464 C1469 1.425 . S
C1464 C1471 1.409 . S
C1465 H1457 0.930 1_545 S
C1465 C1463 1.419 . S
C1465 C1466 1.362 . S
C1466 H1458 0.930 . S
C1466 C1465 1.362 . S
C1466 C1469 1.409 . S
C1467 H1459 0.930 . S
C1467 C1468 1.355 . S
C1467 C1469 1.415 . S
C1468 C1467 1.355 . S
C1468 C1470 1.419 . S
C1469 C1464 1.425 . S
C1469 C1466 1.409 . S
C1469 C1467 1.415 . S
C1470 H1460 0.930 . S
C1470 C1468 1.419 . S
C1470 C1471 1.362 . S
C1471 H1461 0.930 . S
C1471 C1464 1.409 . S
C1471 C1470 1.362 . S
H1472 C1478 0.930 . S
H1473 C1481 0.930 . S
H1474 C1482 0.930 . S
H1475 C1483 0.930 . S
H1476 C1486 0.930 . S
H1477 C1487 0.930 . S
C1478 H1472 0.930 . S
C1478 C1479 1.355 . S
C1478 C1480 1.415 . S
C1479 C1478 1.355 . S
C1479 C1481 1.419 . S
C1480 C1478 1.415 . S
C1480 C1485 1.425 . S
C1480 C1487 1.409 . S
C1481 H1473 0.930 . S
C1481 C1479 1.419 . S
C1481 C1482 1.362 . S
C1482 H1474 0.930 . S
C1482 C1481 1.362 . S
C1482 C1485 1.409 . S
C1483 H1475 0.930 . S
C1483 C1484 1.355 . S
C1483 C1485 1.415 . S
C1484 C1483 1.355 . S
C1484 C1486 1.419 . S
C1485 C1480 1.425 . S
C1485 C1482 1.409 . S
C1485 C1483 1.415 . S
C1486 H1476 0.930 . S
C1486 C1484 1.419 . S
C1486 C1487 1.362 . S
C1487 H1477 0.930 . S
C1487 C1480 1.409 . S
C1487 C1486 1.362 . S
H1488 C1494 0.930 . S
H1489 C1497 0.930 . S
H1490 C1498 0.930 . S
H1491 C1499 0.930 . S
H1492 C1502 0.930 . S
H1493 C1503 0.930 . S
C1494 H1488 0.930 . S
C1494 C1495 1.355 . S
C1494 C1496 1.415 . S
C1495 C1494 1.355 . S
C1495 C1497 1.419 . S
C1496 C1494 1.415 . S
C1496 C1501 1.425 . S
C1496 C1503 1.409 . S
C1497 H1489 0.930 . S
C1497 C1495 1.419 . S
C1497 C1498 1.362 . S
C1498 H1490 0.930 . S
C1498 C1497 1.362 . S
C1498 C1501 1.409 . S
C1499 H1491 0.930 . S
C1499 C1500 1.355 . S
C1499 C1501 1.415 . S
C1500 C1499 1.355 . S
C1500 C1502 1.419 . S
C1501 C1496 1.425 . S
C1501 C1498 1.409 . S
C1501 C1499 1.415 . S
C1502 H1492 0.930 . S
C1502 C1500 1.419 . S
C1502 C1503 1.362 . S
C1503 H1493 0.930 . S
C1503 C1496 1.409 . S
C1503 C1502 1.362 . S
H1504 C1510 0.930 . S
H1505 C1513 0.930 . S
H1506 C1514 0.930 . S
H1507 C1515 0.930 . S
H1508 C1518 0.930 . S
H1509 C1519 0.930 . S
C1510 H1504 0.930 . S
C1510 C1511 1.355 . S
C1510 C1512 1.415 . S
C1511 C1510 1.355 . S
C1511 C1513 1.419 . S
C1512 C1510 1.415 . S
C1512 C1517 1.425 . S
C1512 C1519 1.409 . S
C1513 H1505 0.930 . S
C1513 C1511 1.419 . S
C1513 C1514 1.362 . S
C1514 H1506 0.930 . S
C1514 C1513 1.362 . S
C1514 C1517 1.409 . S
C1515 H1507 0.930 . S
C1515 C1516 1.355 . S
C1515 C1517 1.415 . S
C1516 C1515 1.355 . S
C1516 C1518 1.419 . S
C1517 C1512 1.425 . S
C1517 C1514 1.409 . S
C1517 C1515 1.415 . S
C1518 H1508 0.930 . S
C1518 C1516 1.419 . S
C1518 C1519 1.362 . S
C1519 H1509 0.930 . S
C1519 C1512 1.409 . S
C1519 C1518 1.362 . S
H1520 C1526 0.930 . S
H1521 C1529 0.930 . S
H1522 C1530 0.930 . S
H1523 C1531 0.930 . S
H1524 C1534 0.930 . S
H1525 C1535 0.930 . S
C1526 H1520 0.930 . S
C1526 C1527 1.355 . S
C1526 C1528 1.415 . S
C1527 C1526 1.355 . S
C1527 C1529 1.419 . S
C1528 C1526 1.415 . S
C1528 C1533 1.425 . S
C1528 C1535 1.409 . S
C1529 H1521 0.930 . S
C1529 C1527 1.419 . S
C1529 C1530 1.362 . S
C1530 H1522 0.930 . S
C1530 C1529 1.362 . S
C1530 C1533 1.409 . S
C1531 H1523 0.930 . S
C1531 C1532 1.355 . S
C1531 C1533 1.415 . S
C1532 C1531 1.355 . S
C1532 C1534 1.419 . S
C1533 C1528 1.425 . S
C1533 C1530 1.409 . S
C1533 C1531 1.415 . S
C1534 H1524 0.930 . S
C1534 C1532 1.419 . S
C1534 C1535 1.362 . S
C1535 H1525 0.930 . S
C1535 C1528 1.409 . S
C1535 C1534 1.362 . S
H1536 C1542 0.930 . S
H1537 C1545 0.930 . S
H1538 C1546 0.930 . S
H1539 C1547 0.930 . S
H1540 C1550 0.930 . S
H1541 C1551 0.930 . S
C1542 H1536 0.930 . S
C1542 C1543 1.355 . S
C1542 C1544 1.415 . S
C1543 C1542 1.355 . S
C1543 C1545 1.419 . S
C1544 C1542 1.415 . S
C1544 C1549 1.425 . S
C1544 C1551 1.409 . S
C1545 H1537 0.930 . S
C1545 C1543 1.419 . S
C1545 C1546 1.362 . S
C1546 H1538 0.930 . S
C1546 C1545 1.362 . S
C1546 C1549 1.409 . S
C1547 H1539 0.930 . S
C1547 C1548 1.355 . S
C1547 C1549 1.415 . S
C1548 C1547 1.355 . S
C1548 C1550 1.419 . S
C1549 C1544 1.425 . S
C1549 C1546 1.409 . S
C1549 C1547 1.415 . S
C1550 H1540 0.930 . S
C1550 C1548 1.419 . S
C1550 C1551 1.362 . S
C1551 H1541 0.930 . S
C1551 C1544 1.409 . S
C1551 C1550 1.362 . S
H1552 C1558 0.930 . S
H1553 C1561 0.930 . S
H1554 C1562 0.930 . S
H1555 C1563 0.930 . S
H1556 C1566 0.930 . S
H1557 C1567 0.930 . S
C1558 H1552 0.930 . S
C1558 C1559 1.355 . S
C1558 C1560 1.415 . S
C1559 C1558 1.355 . S
C1559 C1561 1.419 . S
C1560 C1558 1.415 . S
C1560 C1565 1.425 . S
C1560 C1567 1.409 . S
C1561 H1553 0.930 . S
C1561 C1559 1.419 . S
C1561 C1562 1.362 . S
C1562 H1554 0.930 . S
C1562 C1561 1.362 . S
C1562 C1565 1.409 . S
C1563 H1555 0.930 . S
C1563 C1564 1.355 . S
C1563 C1565 1.415 . S
C1564 C1563 1.355 . S
C1564 C1566 1.419 . S
C1565 C1560 1.425 . S
C1565 C1562 1.409 . S
C1565 C1563 1.415 . S
C1566 H1556 0.930 . S
C1566 C1564 1.419 . S
C1566 C1567 1.362 . S
C1567 H1557 0.930 . S
C1567 C1560 1.409 . S
C1567 C1566 1.362 . S
H1568 C1574 0.930 . S
H1569 C1577 0.930 . S
H1570 C1578 0.930 . S
H1571 C1579 0.930 . S
H1572 C1582 0.930 . S
H1573 C1583 0.930 . S
C1574 H1568 0.930 . S
C1574 C1575 1.355 . S
C1574 C1576 1.415 . S
C1575 C1574 1.355 . S
C1575 C1577 1.419 . S
C1576 C1574 1.415 . S
C1576 C1581 1.425 . S
C1576 C1583 1.409 . S
C1577 H1569 0.930 . S
C1577 C1575 1.419 . S
C1577 C1578 1.362 . S
C1578 H1570 0.930 . S
C1578 C1577 1.362 . S
C1578 C1581 1.409 . S
C1579 H1571 0.930 . S
C1579 C1580 1.355 . S
C1579 C1581 1.415 . S
C1580 C1579 1.355 . S
C1580 C1582 1.419 . S
C1581 C1576 1.425 . S
C1581 C1578 1.409 . S
C1581 C1579 1.415 . S
C1582 H1572 0.930 . S
C1582 C1580 1.419 . S
C1582 C1583 1.362 . S
C1583 H1573 0.930 . S
C1583 C1576 1.409 . S
C1583 C1582 1.362 . S
H1584 C1590 0.930 . S
H1585 C1593 0.930 . S
H1586 C1594 0.930 . S
H1587 C1595 0.930 . S
H1588 C1598 0.930 . S
H1589 C1599 0.930 . S
C1590 H1584 0.930 . S
C1590 C1591 1.355 . S
C1590 C1592 1.415 . S
C1591 C1590 1.355 . S
C1591 C1593 1.419 . S
C1592 C1590 1.415 . S
C1592 C1597 1.425 . S
C1592 C1599 1.409 . S
C1593 H1585 0.930 . S
C1593 C1591 1.419 . S
C1593 C1594 1.362 . S
C1594 H1586 0.930 . S
C1594 C1593 1.362 . S
C1594 C1597 1.409 . S
C1595 H1587 0.930 . S
C1595 C1596 1.355 . S
C1595 C1597 1.415 . S
C1596 C1595 1.355 . S
C1596 C1598 1.419 . S
C1597 C1592 1.425 . S
C1597 C1594 1.409 . S
C1597 C1595 1.415 . S
C1598 H1588 0.930 . S
C1598 C1596 1.419 . S
C1598 C1599 1.362 . S
C1599 H1589 0.930 . S
C1599 C1592 1.409 . S
C1599 C1598 1.362 . S
H1600 C1606 0.930 . S
H1601 C1609 0.930 . S
H1602 C1610 0.930 . S
H1603 C1611 0.930 . S
H1604 C1614 0.930 . S
H1605 C1615 0.930 . S
C1606 H1600 0.930 . S
C1606 C1607 1.355 . S
C1606 C1608 1.415 . S
C1607 C1606 1.355 . S
C1607 C1609 1.419 . S
C1608 C1606 1.415 . S
C1608 C1613 1.425 . S
C1608 C1615 1.409 . S
C1609 H1601 0.930 . S
C1609 C1607 1.419 . S
C1609 C1610 1.362 . S
C1610 H1602 0.930 . S
C1610 C1609 1.362 . S
C1610 C1613 1.409 . S
C1611 H1603 0.930 . S
C1611 C1612 1.355 . S
C1611 C1613 1.415 . S
C1612 C1611 1.355 . S
C1612 C1614 1.419 . S
C1613 C1608 1.425 . S
C1613 C1610 1.409 . S
C1613 C1611 1.415 . S
C1614 H1604 0.930 . S
C1614 C1612 1.419 . S
C1614 C1615 1.362 . S
C1615 H1605 0.930 . S
C1615 C1608 1.409 . S
C1615 C1614 1.362 . S
H1616 C1622 0.930 . S
H1617 C1625 0.930 . S
H1618 C1626 0.930 . S
H1619 C1627 0.930 . S
H1620 C1630 0.930 . S
H1621 C1631 0.930 . S
C1622 H1616 0.930 . S
C1622 C1623 1.355 . S
C1622 C1624 1.415 . S
C1623 C1622 1.355 . S
C1623 C1625 1.419 . S
C1624 C1622 1.415 . S
C1624 C1629 1.425 . S
C1624 C1631 1.409 . S
C1625 H1617 0.930 . S
C1625 C1623 1.419 . S
C1625 C1626 1.362 . S
C1626 H1618 0.930 . S
C1626 C1625 1.362 . S
C1626 C1629 1.409 . S
C1627 H1619 0.930 . S
C1627 C1628 1.355 . S
C1627 C1629 1.415 . S
C1628 C1627 1.355 . S
C1628 C1630 1.419 . S
C1629 C1624 1.425 . S
C1629 C1626 1.409 . S
C1629 C1627 1.415 . S
C1630 H1620 0.930 . S
C1630 C1628 1.419 . S
C1630 C1631 1.362 . S
C1631 H1621 0.930 . S
C1631 C1624 1.409 . S
C1631 C1630 1.362 . S
H1632 C1638 0.930 . S
H1633 C1641 0.930 . S
H1634 C1642 0.930 . S
H1635 C1643 0.930 . S
H1636 C1646 0.930 . S
H1637 C1647 0.930 . S
C1638 H1632 0.930 . S
C1638 C1639 1.355 . S
C1638 C1640 1.415 . S
C1639 C1638 1.355 . S
C1639 C1641 1.419 . S
C1640 C1638 1.415 . S
C1640 C1645 1.425 . S
C1640 C1647 1.409 . S
C1641 H1633 0.930 . S
C1641 C1639 1.419 . S
C1641 C1642 1.362 . S
C1642 H1634 0.930 . S
C1642 C1641 1.362 . S
C1642 C1645 1.409 . S
C1643 H1635 0.930 . S
C1643 C1644 1.355 . S
C1643 C1645 1.415 . S
C1644 C1643 1.355 . S
C1644 C1646 1.419 . S
C1645 C1640 1.425 . S
C1645 C1642 1.409 . S
C1645 C1643 1.415 . S
C1646 H1636 0.930 . S
C1646 C1644 1.419 . S
C1646 C1647 1.362 . S
C1647 H1637 0.930 . S
C1647 C1640 1.409 . S
C1647 C1646 1.362 . S
H1648 C1654 0.930 . S
H1649 C1657 0.930 . S
H1650 C1658 0.930 . S
H1651 C1659 0.930 . S
H1652 C1662 0.930 . S
H1653 C1663 0.930 . S
C1654 H1648 0.930 . S
C1654 C1655 1.355 . S
C1654 C1656 1.415 . S
C1655 C1654 1.355 . S
C1655 C1657 1.419 . S
C1656 C1654 1.415 . S
C1656 C1661 1.425 . S
C1656 C1663 1.409 . S
C1657 H1649 0.930 . S
C1657 C1655 1.419 . S
C1657 C1658 1.362 . S
C1658 H1650 0.930 . S
C1658 C1657 1.362 . S
C1658 C1661 1.409 . S
C1659 H1651 0.930 . S
C1659 C1660 1.355 . S
C1659 C1661 1.415 . S
C1660 C1659 1.355 . S
C1660 C1662 1.419 . S
C1661 C1656 1.425 . S
C1661 C1658 1.409 . S
C1661 C1659 1.415 . S
C1662 H1652 0.930 . S
C1662 C1660 1.419 . S
C1662 C1663 1.362 . S
C1663 H1653 0.930 . S
C1663 C1656 1.409 . S
C1663 C1662 1.362 . S
H1664 C1670 0.930 . S
H1665 C1673 0.930 . S
H1666 C1674 0.930 . S
H1667 C1675 0.930 . S
H1668 C1678 0.930 . S
H1669 C1679 0.930 . S
C1670 H1664 0.930 . S
C1670 C1671 1.355 . S
C1670 C1672 1.415 . S
C1671 C1670 1.355 . S
C1671 C1673 1.419 . S
C1672 C1670 1.415 . S
C1672 C1677 1.425 . S
C1672 C1679 1.409 . S
C1673 H1665 0.930 . S
C1673 C1671 1.419 . S
C1673 C1674 1.362 . S
C1674 H1666 0.930 . S
C1674 C1673 1.362 . S
C1674 C1677 1.409 . S
C1675 H1667 0.930 . S
C1675 C1676 1.355 . S
C1675 C1677 1.415 . S
C1676 C1675 1.355 . S
C1676 C1678 1.419 . S
C1677 C1672 1.425 . S
C1677 C1674 1.409 . S
C1677 C1675 1.415 . S
C1678 H1668 0.930 . S
C1678 C1676 1.419 . S
C1678 C1679 1.362 . S
C1679 H1669 0.930 . S
C1679 C1672 1.409 . S
C1679 C1678 1.362 . S
H1680 C1686 0.930 . S
H1681 C1689 0.930 . S
H1682 C1690 0.930 . S
H1683 C1691 0.930 . S
H1684 C1694 0.930 . S
H1685 C1695 0.930 . S
C1686 H1680 0.930 . S
C1686 C1687 1.355 . S
C1686 C1688 1.415 . S
C1687 C1686 1.355 . S
C1687 C1689 1.419 . S
C1688 C1686 1.415 . S
C1688 C1693 1.425 . S
C1688 C1695 1.409 . S
C1689 H1681 0.930 . S
C1689 C1687 1.419 . S
C1689 C1690 1.362 . S
C1690 H1682 0.930 . S
C1690 C1689 1.362 . S
C1690 C1693 1.409 . S
C1691 H1683 0.930 . S
C1691 C1692 1.355 . S
C1691 C1693 1.415 . S
C1692 C1691 1.355 . S
C1692 C1694 1.419 . S
C1693 C1688 1.425 . S
C1693 C1690 1.409 . S
C1693 C1691 1.415 . S
C1694 H1684 0.930 . S
C1694 C1692 1.419 . S
C1694 C1695 1.362 . S
C1695 H1685 0.930 . S
C1695 C1688 1.409 . S
C1695 C1694 1.362 . S
H1696 C1702 0.930 . S
H1697 C1705 0.930 . S
H1698 C1706 0.930 . S
H1699 C1707 0.930 . S
H1700 C1710 0.930 . S
H1701 C1711 0.930 . S
C1702 H1696 0.930 . S
C1702 C1703 1.355 . S
C1702 C1704 1.415 . S
C1703 C1702 1.355 . S
C1703 C1705 1.419 . S
C1704 C1702 1.415 . S
C1704 C1709 1.425 . S
C1704 C1711 1.409 . S
C1705 H1697 0.930 . S
C1705 C1703 1.419 . S
C1705 C1706 1.362 . S
C1706 H1698 0.930 . S
C1706 C1705 1.362 . S
C1706 C1709 1.409 . S
C1707 H1699 0.930 . S
C1707 C1708 1.355 . S
C1707 C1709 1.415 . S
C1708 C1707 1.355 . S
C1708 C1710 1.419 . S
C1709 C1704 1.425 . S
C1709 C1706 1.409 . S
C1709 C1707 1.415 . S
C1710 H1700 0.930 . S
C1710 C1708 1.419 . S
C1710 C1711 1.362 . S
C1711 H1701 0.930 . S
C1711 C1704 1.409 . S
C1711 C1710 1.362 . S
H1712 C1718 0.930 . S
H1713 C1721 0.930 . S
H1714 C1722 0.930 . S
H1715 C1723 0.930 . S
H1716 C1726 0.930 . S
H1717 C1727 0.930 . S
C1718 H1712 0.930 . S
C1718 C1719 1.355 . S
C1718 C1720 1.415 . S
C1719 C1718 1.355 . S
C1719 C1721 1.419 . S
C1720 C1718 1.415 . S
C1720 C1725 1.425 . S
C1720 C1727 1.409 . S
C1721 H1713 0.930 . S
C1721 C1719 1.419 . S
C1721 C1722 1.362 . S
C1722 H1714 0.930 . S
C1722 C1721 1.362 . S
C1722 C1725 1.409 . S
C1723 H1715 0.930 . S
C1723 C1724 1.355 . S
C1723 C1725 1.415 . S
C1724 C1723 1.355 . S
C1724 C1726 1.419 . S
C1725 C1720 1.425 . S
C1725 C1722 1.409 . S
C1725 C1723 1.415 . S
C1726 H1716 0.930 . S
C1726 C1724 1.419 . S
C1726 C1727 1.362 . S
C1727 H1717 0.930 . S
C1727 C1720 1.409 . S
C1727 C1726 1.362 . S
H1728 C1734 0.930 . S
H1729 C1737 0.930 . S
H1730 C1738 0.930 . S
H1731 C1739 0.930 . S
H1732 C1742 0.930 . S
H1733 C1743 0.930 . S
C1734 H1728 0.930 . S
C1734 C1735 1.355 . S
C1734 C1736 1.415 . S
C1735 C1734 1.355 . S
C1735 C1737 1.419 . S
C1736 C1734 1.415 . S
C1736 C1741 1.425 . S
C1736 C1743 1.409 . S
C1737 H1729 0.930 . S
C1737 C1735 1.419 . S
C1737 C1738 1.362 . S
C1738 H1730 0.930 . S
C1738 C1737 1.362 . S
C1738 C1741 1.409 . S
C1739 H1731 0.930 . S
C1739 C1740 1.355 . S
C1739 C1741 1.415 . S
C1740 C1739 1.355 . S
C1740 C1742 1.419 . S
C1741 C1736 1.425 . S
C1741 C1738 1.409 . S
C1741 C1739 1.415 . S
C1742 H1732 0.930 . S
C1742 C1740 1.419 . S
C1742 C1743 1.362 . S
C1743 H1733 0.930 . S
C1743 C1736 1.409 . S
C1743 C1742 1.362 . S
H1744 C1750 0.930 . S
H1745 C1753 0.930 . S
H1746 C1754 0.930 . S
H1747 C1755 0.930 . S
H1748 C1758 0.930 . S
H1749 C1759 0.930 . S
C1750 H1744 0.930 . S
C1750 C1751 1.355 . S
C1750 C1752 1.415 . S
C1751 C1750 1.355 . S
C1751 C1753 1.419 . S
C1752 C1750 1.415 . S
C1752 C1757 1.425 . S
C1752 C1759 1.409 . S
C1753 H1745 0.930 . S
C1753 C1751 1.419 . S
C1753 C1754 1.362 . S
C1754 H1746 0.930 . S
C1754 C1753 1.362 . S
C1754 C1757 1.409 . S
C1755 H1747 0.930 . S
C1755 C1756 1.355 . S
C1755 C1757 1.415 . S
C1756 C1755 1.355 . S
C1756 C1758 1.419 . S
C1757 C1752 1.425 . S
C1757 C1754 1.409 . S
C1757 C1755 1.415 . S
C1758 H1748 0.930 . S
C1758 C1756 1.419 . S
C1758 C1759 1.362 . S
C1759 H1749 0.930 . S
C1759 C1752 1.409 . S
C1759 C1758 1.362 . S
H1760 C1766 0.930 . S
H1761 C1769 0.930 . S
H1762 C1770 0.930 . S
H1763 C1771 0.930 . S
H1764 C1774 0.930 . S
H1765 C1775 0.930 . S
C1766 H1760 0.930 . S
C1766 C1767 1.355 . S
C1766 C1768 1.415 . S
C1767 C1766 1.355 . S
C1767 C1769 1.419 . S
C1768 C1766 1.415 . S
C1768 C1773 1.425 . S
C1768 C1775 1.409 . S
C1769 H1761 0.930 . S
C1769 C1767 1.419 . S
C1769 C1770 1.362 . S
C1770 H1762 0.930 . S
C1770 C1769 1.362 . S
C1770 C1773 1.409 . S
C1771 H1763 0.930 . S
C1771 C1772 1.355 . S
C1771 C1773 1.415 . S
C1772 C1771 1.355 . S
C1772 C1774 1.419 . S
C1773 C1768 1.425 . S
C1773 C1770 1.409 . S
C1773 C1771 1.415 . S
C1774 H1764 0.930 . S
C1774 C1772 1.419 . S
C1774 C1775 1.362 . S
C1775 H1765 0.930 . S
C1775 C1768 1.409 . S
C1775 C1774 1.362 . S
H1776 C1782 0.930 . S
H1777 C1785 0.930 . S
H1778 C1786 0.930 . S
H1779 C1787 0.930 . S
H1780 C1790 0.930 . S
H1781 C1791 0.930 . S
C1782 H1776 0.930 . S
C1782 C1783 1.355 . S
C1782 C1784 1.415 . S
C1783 C1782 1.355 . S
C1783 C1785 1.419 . S
C1784 C1782 1.415 . S
C1784 C1789 1.425 . S
C1784 C1791 1.409 . S
C1785 H1777 0.930 . S
C1785 C1783 1.419 . S
C1785 C1786 1.362 . S
C1786 H1778 0.930 . S
C1786 C1785 1.362 . S
C1786 C1789 1.409 . S
C1787 H1779 0.930 . S
C1787 C1788 1.355 . S
C1787 C1789 1.415 . S
C1788 C1787 1.355 . S
C1788 C1790 1.419 . S
C1789 C1784 1.425 . S
C1789 C1786 1.409 . S
C1789 C1787 1.415 . S
C1790 H1780 0.930 . S
C1790 C1788 1.419 . S
C1790 C1791 1.362 . S
C1791 H1781 0.930 . S
C1791 C1784 1.409 . S
C1791 C1790 1.362 . S
H1792 C1798 0.930 . S
H1793 C1801 0.930 . S
H1794 C1802 0.930 . S
H1795 C1803 0.930 . S
H1796 C1806 0.930 . S
H1797 C1807 0.930 . S
C1798 H1792 0.930 . S
C1798 C1799 1.355 . S
C1798 C1800 1.415 . S
C1799 C1798 1.355 . S
C1799 C1801 1.419 . S
C1800 C1798 1.415 . S
C1800 C1805 1.425 . S
C1800 C1807 1.409 . S
C1801 H1793 0.930 . S
C1801 C1799 1.419 . S
C1801 C1802 1.362 . S
C1802 H1794 0.930 . S
C1802 C1801 1.362 . S
C1802 C1805 1.409 . S
C1803 H1795 0.930 . S
C1803 C1804 1.355 . S
C1803 C1805 1.415 . S
C1804 C1803 1.355 . S
C1804 C1806 1.419 . S
C1805 C1800 1.425 . S
C1805 C1802 1.409 . S
C1805 C1803 1.415 . S
C1806 H1796 0.930 . S
C1806 C1804 1.419 . S
C1806 C1807 1.362 . S
C1807 H1797 0.930 . S
C1807 C1800 1.409 . S
C1807 C1806 1.362 . S
H1808 C1814 0.930 . S
H1809 C1817 0.930 . S
H1810 C1818 0.930 . S
H1811 C1819 0.930 . S
H1812 C1822 0.930 . S
H1813 C1823 0.930 . S
C1814 H1808 0.930 . S
C1814 C1815 1.355 . S
C1814 C1816 1.415 . S
C1815 C1814 1.355 . S
C1815 C1817 1.419 . S
C1816 C1814 1.415 . S
C1816 C1821 1.425 . S
C1816 C1823 1.409 . S
C1817 H1809 0.930 . S
C1817 C1815 1.419 . S
C1817 C1818 1.362 . S
C1818 H1810 0.930 . S
C1818 C1817 1.362 . S
C1818 C1821 1.409 . S
C1819 H1811 0.930 . S
C1819 C1820 1.355 . S
C1819 C1821 1.415 . S
C1820 C1819 1.355 . S
C1820 C1822 1.419 . S
C1821 C1816 1.425 . S
C1821 C1818 1.409 . S
C1821 C1819 1.415 . S
C1822 H1812 0.930 . S
C1822 C1820 1.419 . S
C1822 C1823 1.362 . S
C1823 H1813 0.930 . S
C1823 C1816 1.409 . S
C1823 C1822 1.362 . S
H1824 C1830 0.930 . S
H1825 C1833 0.930 . S
H1826 C1834 0.930 . S
H1827 C1835 0.930 . S
H1828 C1838 0.930 . S
H1829 C1839 0.930 . S
C1830 H1824 0.930 . S
C1830 C1831 1.355 . S
C1830 C1832 1.415 . S
C1831 C1830 1.355 . S
C1831 C1833 1.419 . S
C1832 C1830 1.415 . S
C1832 C1837 1.425 . S
C1832 C1839 1.409 . S
C1833 H1825 0.930 . S
C1833 C1831 1.419 . S
C1833 C1834 1.362 . S
C1834 H1826 0.930 . S
C1834 C1833 1.362 . S
C1834 C1837 1.409 . S
C1835 H1827 0.930 . S
C1835 C1836 1.355 . S
C1835 C1837 1.415 . S
C1836 C1835 1.355 . S
C1836 C1838 1.419 . S
C1837 C1832 1.425 . S
C1837 C1834 1.409 . S
C1837 C1835 1.415 . S
C1838 H1828 0.930 . S
C1838 C1836 1.419 . S
C1838 C1839 1.362 . S
C1839 H1829 0.930 . S
C1839 C1832 1.409 . S
C1839 C1838 1.362 . S
H1840 C1846 0.930 . S
H1841 C1849 0.930 . S
H1842 C1850 0.930 . S
H1843 C1851 0.930 . S
H1844 C1854 0.930 . S
H1845 C1855 0.930 . S
C1846 H1840 0.930 . S
C1846 C1847 1.355 . S
C1846 C1848 1.415 . S
C1847 C1846 1.355 . S
C1847 C1849 1.419 . S
C1848 C1846 1.415 . S
C1848 C1853 1.425 . S
C1848 C1855 1.409 . S
C1849 H1841 0.930 . S
C1849 C1847 1.419 . S
C1849 C1850 1.362 . S
C1850 H1842 0.930 . S
C1850 C1849 1.362 . S
C1850 C1853 1.409 . S
C1851 H1843 0.930 . S
C1851 C1852 1.355 . S
C1851 C1853 1.415 . S
C1852 C1851 1.355 . S
C1852 C1854 1.419 . S
C1853 C1848 1.425 . S
C1853 C1850 1.409 . S
C1853 C1851 1.415 . S
C1854 H1844 0.930 . S
C1854 C1852 1.419 . S
C1854 C1855 1.362 . S
C1855 H1845 0.930 . S
C1855 C1848 1.409 . S
C1855 C1854 1.362 . S
H1856 C1862 0.930 . S
H1857 C1865 0.930 . S
H1858 C1866 0.930 . S
H1859 C1867 0.930 . S
H1860 C1870 0.930 . S
H1861 C1871 0.930 . S
C1862 H1856 0.930 . S
C1862 C1863 1.355 . S
C1862 C1864 1.415 . S
C1863 C1862 1.355 . S
C1863 C1865 1.419 . S
C1864 C1862 1.415 . S
C1864 C1869 1.425 . S
C1864 C1871 1.409 . S
C1865 H1857 0.930 . S
C1865 C1863 1.419 . S
C1865 C1866 1.362 . S
C1866 H1858 0.930 . S
C1866 C1865 1.362 . S
C1866 C1869 1.409 . S
C1867 H1859 0.930 . S
C1867 C1868 1.355 . S
C1867 C1869 1.415 . S
C1868 C1867 1.355 . S
C1868 C1870 1.419 . S
C1869 C1864 1.425 . S
C1869 C1866 1.409 . S
C1869 C1867 1.415 . S
C1870 H1860 0.930 . S
C1870 C1868 1.419 . S
C1870 C1871 1.362 . S
C1871 H1861 0.930 . S
C1871 C1864 1.409 . S
C1871 C1870 1.362 . S
H1872 C1878 0.930 . S
H1873 C1881 0.930 . S
H1874 C1882 0.930 . S
H1875 C1883 0.930 . S
H1876 C1886 0.930 . S
H1877 C1887 0.930 . S
C1878 H1872 0.930 . S
C1878 C1879 1.355 . S
C1878 C1880 1.415 . S
C1879 C1878 1.355 . S
C1879 C1881 1.419 . S
C1880 C1878 1.415 . S
C1880 C1885 1.425 . S
C1880 C1887 1.409 . S
C1881 H1873 0.930 . S
C1881 C1879 1.419 . S
C1881 C1882 1.362 . S
C1882 H1874 0.930 . S
C1882 C1881 1.362 . S
C1882 C1885 1.409 . S
C1883 H1875 0.930 . S
C1883 C1884 1.355 . S
C1883 C1885 1.415 . S
C1884 C1883 1.355 . S
C1884 C1886 1.419 . S
C1885 C1880 1.425 . S
C1885 C1882 1.409 . S
C1885 C1883 1.415 . S
C1886 H1876 0.930 . S
C1886 C1884 1.419 . S
C1886 C1887 1.362 . S
C1887 H1877 0.930 . S
C1887 C1880 1.409 . S
C1887 C1886 1.362 . S
H1888 C1894 0.930 . S
H1889 C1897 0.930 . S
H1890 C1898 0.930 . S
H1891 C1899 0.930 . S
H1892 C1902 0.930 . S
H1893 C1903 0.930 . S
C1894 H1888 0.930 . S
C1894 C1895 1.355 . S
C1894 C1896 1.415 . S
C1895 C1894 1.355 . S
C1895 C1897 1.419 . S
C1896 C1894 1.415 . S
C1896 C1901 1.425 . S
C1896 C1903 1.409 . S
C1897 H1889 0.930 . S
C1897 C1895 1.419 . S
C1897 C1898 1.362 . S
C1898 H1890 0.930 . S
C1898 C1897 1.362 . S
C1898 C1901 1.409 . S
C1899 H1891 0.930 . S
C1899 C1900 1.355 . S
C1899 C1901 1.415 . S
C1900 C1899 1.355 . S
C1900 C1902 1.419 . S
C1901 C1896 1.425 . S
C1901 C1898 1.409 . S
C1901 C1899 1.415 . S
C1902 H1892 0.930 . S
C1902 C1900 1.419 . S
C1902 C1903 1.362 . S
C1903 H1893 0.930 . S
C1903 C1896 1.409 . S
C1903 C1902 1.362 . S
H1904 C1910 0.930 . S
H1905 C1913 0.930 . S
H1906 C1914 0.930 . S
H1907 C1915 0.930 . S
H1908 C1918 0.930 1_655 S
H1909 C1919 0.930 . S
C1910 H1904 0.930 . S
C1910 C1911 1.355 . S
C1910 C1912 1.415 . S
C1911 C1910 1.355 . S
C1911 C1913 1.419 . S
C1912 C1910 1.415 . S
C1912 C1917 1.425 . S
C1912 C1919 1.409 . S
C1913 H1905 0.930 . S
C1913 C1911 1.419 . S
C1913 C1914 1.362 . S
C1914 H1906 0.930 . S
C1914 C1913 1.362 . S
C1914 C1917 1.409 . S
C1915 H1907 0.930 . S
C1915 C1916 1.355 . S
C1915 C1917 1.415 . S
C1916 C1915 1.355 . S
C1916 C1918 1.419 . S
C1917 C1912 1.425 . S
C1917 C1914 1.409 . S
C1917 C1915 1.415 . S
C1918 H1908 0.930 1_455 S
C1918 C1916 1.419 . S
C1918 C1919 1.362 . S
C1919 H1909 0.930 . S
C1919 C1912 1.409 . S
C1919 C1918 1.362 . S
H1920 C1926 0.930 . S
H1921 C1929 0.930 . S
H1922 C1930 0.930 . S
H1923 C1931 0.930 . S
H1924 C1934 0.930 . S
H1925 C1935 0.930 . S
C1926 H1920 0.930 . S
C1926 C1927 1.355 . S
C1926 C1928 1.415 . S
C1927 C1926 1.355 . S
C1927 C1929 1.419 . S
C1928 C1926 1.415 . S
C1928 C1933 1.425 . S
C1928 C1935 1.409 . S
C1929 H1921 0.930 . S
C1929 C1927 1.419 . S
C1929 C1930 1.362 . S
C1930 H1922 0.930 . S
C1930 C1929 1.362 . S
C1930 C1933 1.409 . S
C1931 H1923 0.930 . S
C1931 C1932 1.355 . S
C1931 C1933 1.415 . S
C1932 C1931 1.355 . S
C1932 C1934 1.419 . S
C1933 C1928 1.425 . S
C1933 C1930 1.409 . S
C1933 C1931 1.415 . S
C1934 H1924 0.930 . S
C1934 C1932 1.419 . S
C1934 C1935 1.362 . S
C1935 H1925 0.930 . S
C1935 C1928 1.409 . S
C1935 C1934 1.362 . S
H1936 C1942 0.930 . S
H1937 C1945 0.930 1_455 S
H1938 C1946 0.930 . S
H1939 C1947 0.930 . S
H1940 C1950 0.930 . S
H1941 C1951 0.930 . S
C1942 H1936 0.930 . S
C1942 C1943 1.355 . S
C1942 C1944 1.415 . S
C1943 C1942 1.355 . S
C1943 C1945 1.419 . S
C1944 C1942 1.415 . S
C1944 C1949 1.425 . S
C1944 C1951 1.409 . S
C1945 H1937 0.930 1_655 S
C1945 C1943 1.419 . S
C1945 C1946 1.362 . S
C1946 H1938 0.930 . S
C1946 C1945 1.362 . S
C1946 C1949 1.409 . S
C1947 H1939 0.930 . S
C1947 C1948 1.355 . S
C1947 C1949 1.415 . S
C1948 C1947 1.355 . S
C1948 C1950 1.419 . S
C1949 C1944 1.425 . S
C1949 C1946 1.409 . S
C1949 C1947 1.415 . S
C1950 H1940 0.930 . S
C1950 C1948 1.419 . S
C1950 C1951 1.362 . S
C1951 H1941 0.930 . S
C1951 C1944 1.409 . S
C1951 C1950 1.362 . S
H1952 C1958 0.930 . S
H1953 C1961 0.930 . S
H1954 C1962 0.930 . S
H1955 C1963 0.930 . S
H1956 C1966 0.930 . S
H1957 C1967 0.930 . S
C1958 H1952 0.930 . S
C1958 C1959 1.355 . S
C1958 C1960 1.415 . S
C1959 C1958 1.355 . S
C1959 C1961 1.419 . S
C1960 C1958 1.415 . S
C1960 C1965 1.425 . S
C1960 C1967 1.409 . S
C1961 H1953 0.930 . S
C1961 C1959 1.419 . S
C1961 C1962 1.362 . S
C1962 H1954 0.930 . S
C1962 C1961 1.362 . S
C1962 C1965 1.409 . S
C1963 H1955 0.930 . S
C1963 C1964 1.355 . S
C1963 C1965 1.415 . S
C1964 C1963 1.355 . S
C1964 C1966 1.419 . S
C1965 C1960 1.425 . S
C1965 C1962 1.409 . S
C1965 C1963 1.415 . S
C1966 H1956 0.930 . S
C1966 C1964 1.419 . S
C1966 C1967 1.362 . S
C1967 H1957 0.930 . S
C1967 C1960 1.409 . S
C1967 C1966 1.362 . S
H1968 C1974 0.930 . S
H1969 C1977 0.930 . S
H1970 C1978 0.930 . S
H1971 C1979 0.930 . S
H1972 C1982 0.930 . S
H1973 C1983 0.930 . S
C1974 H1968 0.930 . S
C1974 C1975 1.355 . S
C1974 C1976 1.415 . S
C1975 C1974 1.355 . S
C1975 C1977 1.419 . S
C1976 C1974 1.415 . S
C1976 C1981 1.425 . S
C1976 C1983 1.409 . S
C1977 H1969 0.930 . S
C1977 C1975 1.419 . S
C1977 C1978 1.362 . S
C1978 H1970 0.930 . S
C1978 C1977 1.362 . S
C1978 C1981 1.409 . S
C1979 H1971 0.930 . S
C1979 C1980 1.355 . S
C1979 C1981 1.415 . S
C1980 C1979 1.355 . S
C1980 C1982 1.419 . S
C1981 C1976 1.425 . S
C1981 C1978 1.409 . S
C1981 C1979 1.415 . S
C1982 H1972 0.930 . S
C1982 C1980 1.419 . S
C1982 C1983 1.362 . S
C1983 H1973 0.930 . S
C1983 C1976 1.409 . S
C1983 C1982 1.362 . S
H1984 C1990 0.930 . S
H1985 C1993 0.930 . S
H1986 C1994 0.930 . S
H1987 C1995 0.930 . S
H1988 C1998 0.930 . S
H1989 C1999 0.930 . S
C1990 H1984 0.930 . S
C1990 C1991 1.355 . S
C1990 C1992 1.415 . S
C1991 C1990 1.355 . S
C1991 C1993 1.419 . S
C1992 C1990 1.415 . S
C1992 C1997 1.425 . S
C1992 C1999 1.409 . S
C1993 H1985 0.930 . S
C1993 C1991 1.419 . S
C1993 C1994 1.362 . S
C1994 H1986 0.930 . S
C1994 C1993 1.362 . S
C1994 C1997 1.409 . S
C1995 H1987 0.930 . S
C1995 C1996 1.355 . S
C1995 C1997 1.415 . S
C1996 C1995 1.355 . S
C1996 C1998 1.419 . S
C1997 C1992 1.425 . S
C1997 C1994 1.409 . S
C1997 C1995 1.415 . S
C1998 H1988 0.930 . S
C1998 C1996 1.419 . S
C1998 C1999 1.362 . S
C1999 H1989 0.930 . S
C1999 C1992 1.409 . S
C1999 C1998 1.362 . S
H2000 C2006 0.930 . S
H2001 C2009 0.930 . S
H2002 C2010 0.930 . S
H2003 C2011 0.930 . S
H2004 C2014 0.930 . S
H2005 C2015 0.930 . S
C2006 H2000 0.930 . S
C2006 C2007 1.355 . S
C2006 C2008 1.415 . S
C2007 C2006 1.355 . S
C2007 C2009 1.419 . S
C2008 C2006 1.415 . S
C2008 C2013 1.425 . S
C2008 C2015 1.409 . S
C2009 H2001 0.930 . S
C2009 C2007 1.419 . S
C2009 C2010 1.362 . S
C2010 H2002 0.930 . S
C2010 C2009 1.362 . S
C2010 C2013 1.409 . S
C2011 H2003 0.930 . S
C2011 C2012 1.355 . S
C2011 C2013 1.415 . S
C2012 C2011 1.355 . S
C2012 C2014 1.419 . S
C2013 C2008 1.425 . S
C2013 C2010 1.409 . S
C2013 C2011 1.415 . S
C2014 H2004 0.930 . S
C2014 C2012 1.419 . S
C2014 C2015 1.362 . S
C2015 H2005 0.930 . S
C2015 C2008 1.409 . S
C2015 C2014 1.362 . S
H2016 C2022 0.930 . S
H2017 C2025 0.930 . S
H2018 C2026 0.930 . S
H2019 C2027 0.930 . S
H2020 C2030 0.930 . S
H2021 C2031 0.930 . S
C2022 H2016 0.930 . S
C2022 C2023 1.355 . S
C2022 C2024 1.415 . S
C2023 C2022 1.355 . S
C2023 C2025 1.419 . S
C2024 C2022 1.415 . S
C2024 C2029 1.425 . S
C2024 C2031 1.409 . S
C2025 H2017 0.930 . S
C2025 C2023 1.419 . S
C2025 C2026 1.362 . S
C2026 H2018 0.930 . S
C2026 C2025 1.362 . S
C2026 C2029 1.409 . S
C2027 H2019 0.930 . S
C2027 C2028 1.355 . S
C2027 C2029 1.415 . S
C2028 C2027 1.355 . S
C2028 C2030 1.419 . S
C2029 C2024 1.425 . S
C2029 C2026 1.409 . S
C2029 C2027 1.415 . S
C2030 H2020 0.930 . S
C2030 C2028 1.419 . S
C2030 C2031 1.362 . S
C2031 H2021 0.930 . S
C2031 C2024 1.409 . S
C2031 C2030 1.362 . S
H2032 C2038 0.930 . S
H2033 C2041 0.930 . S
H2034 C2042 0.930 . S
H2035 C2043 0.930 . S
H2036 C2046 0.930 . S
H2037 C2047 0.930 . S
C2038 H2032 0.930 . S
C2038 C2039 1.355 . S
C2038 C2040 1.415 . S
C2039 C2038 1.355 . S
C2039 C2041 1.419 . S
C2040 C2038 1.415 . S
C2040 C2045 1.425 . S
C2040 C2047 1.409 . S
C2041 H2033 0.930 . S
C2041 C2039 1.419 . S
C2041 C2042 1.362 . S
C2042 H2034 0.930 . S
C2042 C2041 1.362 . S
C2042 C2045 1.409 . S
C2043 H2035 0.930 . S
C2043 C2044 1.355 . S
C2043 C2045 1.415 . S
C2044 C2043 1.355 . S
C2044 C2046 1.419 . S
C2045 C2040 1.425 . S
C2045 C2042 1.409 . S
C2045 C2043 1.415 . S
C2046 H2036 0.930 . S
C2046 C2044 1.419 . S
C2046 C2047 1.362 . S
C2047 H2037 0.930 . S
C2047 C2040 1.409 . S
C2047 C2046 1.362 . S
H2048 C2054 0.930 . S
H2049 C2057 0.930 . S
H2050 C2058 0.930 . S
H2051 C2059 0.930 . S
H2052 C2062 0.930 . S
H2053 C2063 0.930 . S
C2054 H2048 0.930 . S
C2054 C2055 1.355 . S
C2054 C2056 1.415 . S
C2055 C2054 1.355 . S
C2055 C2057 1.419 . S
C2056 C2054 1.415 . S
C2056 C2061 1.425 . S
C2056 C2063 1.409 . S
C2057 H2049 0.930 . S
C2057 C2055 1.419 . S
C2057 C2058 1.362 . S
C2058 H2050 0.930 . S
C2058 C2057 1.362 . S
C2058 C2061 1.409 . S
C2059 H2051 0.930 . S
C2059 C2060 1.355 . S
C2059 C2061 1.415 . S
C2060 C2059 1.355 . S
C2060 C2062 1.419 . S
C2061 C2056 1.425 . S
C2061 C2058 1.409 . S
C2061 C2059 1.415 . S
C2062 H2052 0.930 . S
C2062 C2060 1.419 . S
C2062 C2063 1.362 . S
C2063 H2053 0.930 . S
C2063 C2056 1.409 . S
C2063 C2062 1.362 . S
H2064 C2070 0.930 . S
H2065 C2073 0.930 . S
H2066 C2074 0.930 . S
H2067 C2075 0.930 . S
H2068 C2078 0.930 . S
H2069 C2079 0.930 . S
C2070 H2064 0.930 . S
C2070 C2071 1.355 . S
C2070 C2072 1.415 . S
C2071 C2070 1.355 . S
C2071 C2073 1.419 . S
C2072 C2070 1.415 . S
C2072 C2077 1.425 . S
C2072 C2079 1.409 . S
C2073 H2065 0.930 . S
C2073 C2071 1.419 . S
C2073 C2074 1.362 . S
C2074 H2066 0.930 . S
C2074 C2073 1.362 . S
C2074 C2077 1.409 . S
C2075 H2067 0.930 . S
C2075 C2076 1.355 . S
C2075 C2077 1.415 . S
C2076 C2075 1.355 . S
C2076 C2078 1.419 . S
C2077 C2072 1.425 . S
C2077 C2074 1.409 . S
C2077 C2075 1.415 . S
C2078 H2068 0.930 . S
C2078 C2076 1.419 . S
C2078 C2079 1.362 . S
C2079 H2069 0.930 . S
C2079 C2072 1.409 . S
C2079 C2078 1.362 . S
H2080 C2086 0.930 . S
H2081 C2089 0.930 . S
H2082 C2090 0.930 . S
H2083 C2091 0.930 . S
H2084 C2094 0.930 . S
H2085 C2095 0.930 . S
C2086 H2080 0.930 . S
C2086 C2087 1.355 . S
C2086 C2088 1.415 . S
C2087 C2086 1.355 . S
C2087 C2089 1.419 . S
C2088 C2086 1.415 . S
C2088 C2093 1.425 . S
C2088 C2095 1.409 . S
C2089 H2081 0.930 . S
C2089 C2087 1.419 . S
C2089 C2090 1.362 . S
C2090 H2082 0.930 . S
C2090 C2089 1.362 . S
C2090 C2093 1.409 . S
C2091 H2083 0.930 . S
C2091 C2092 1.355 . S
C2091 C2093 1.415 . S
C2092 C2091 1.355 . S
C2092 C2094 1.419 . S
C2093 C2088 1.425 . S
C2093 C2090 1.409 . S
C2093 C2091 1.415 . S
C2094 H2084 0.930 . S
C2094 C2092 1.419 . S
C2094 C2095 1.362 . S
C2095 H2085 0.930 . S
C2095 C2088 1.409 . S
C2095 C2094 1.362 . S
H2096 C2102 0.930 . S
H2097 C2105 0.930 . S
H2098 C2106 0.930 . S
H2099 C2107 0.930 . S
H2100 C2110 0.930 1_455 S
H2101 C2111 0.930 . S
C2102 H2096 0.930 . S
C2102 C2103 1.355 . S
C2102 C2104 1.415 . S
C2103 C2102 1.355 . S
C2103 C2105 1.419 . S
C2104 C2102 1.415 . S
C2104 C2109 1.425 . S
C2104 C2111 1.409 . S
C2105 H2097 0.930 . S
C2105 C2103 1.419 . S
C2105 C2106 1.362 . S
C2106 H2098 0.930 . S
C2106 C2105 1.362 . S
C2106 C2109 1.409 . S
C2107 H2099 0.930 . S
C2107 C2108 1.355 . S
C2107 C2109 1.415 . S
C2108 C2107 1.355 . S
C2108 C2110 1.419 . S
C2109 C2104 1.425 . S
C2109 C2106 1.409 . S
C2109 C2107 1.415 . S
C2110 H2100 0.930 1_655 S
C2110 C2108 1.419 . S
C2110 C2111 1.362 . S
C2111 H2101 0.930 . S
C2111 C2104 1.409 . S
C2111 C2110 1.362 . S
H2112 C2118 0.930 . S
H2113 C2121 0.930 . S
H2114 C2122 0.930 . S
H2115 C2123 0.930 . S
H2116 C2126 0.930 . S
H2117 C2127 0.930 . S
C2118 H2112 0.930 . S
C2118 C2119 1.355 . S
C2118 C2120 1.415 . S
C2119 C2118 1.355 . S
C2119 C2121 1.419 . S
C2120 C2118 1.415 . S
C2120 C2125 1.425 . S
C2120 C2127 1.409 . S
C2121 H2113 0.930 . S
C2121 C2119 1.419 . S
C2121 C2122 1.362 . S
C2122 H2114 0.930 . S
C2122 C2121 1.362 . S
C2122 C2125 1.409 . S
C2123 H2115 0.930 . S
C2123 C2124 1.355 . S
C2123 C2125 1.415 . S
C2124 C2123 1.355 . S
C2124 C2126 1.419 . S
C2125 C2120 1.425 . S
C2125 C2122 1.409 . S
C2125 C2123 1.415 . S
C2126 H2116 0.930 . S
C2126 C2124 1.419 . S
C2126 C2127 1.362 . S
C2127 H2117 0.930 . S
C2127 C2120 1.409 . S
C2127 C2126 1.362 . S
H2128 C2134 0.930 . S
H2129 C2137 0.930 . S
H2130 C2138 0.930 . S
H2131 C2139 0.930 . S
H2132 C2142 0.930 1_455 S
H2133 C2143 0.930 . S
C2134 H2128 0.930 . S
C2134 C2135 1.355 . S
C2134 C2136 1.415 . S
C2135 C2134 1.355 . S
C2135 C2137 1.419 . S
C2136 C2134 1.415 . S
C2136 C2141 1.425 . S
C2136 C2143 1.409 . S
C2137 H2129 0.930 . S
C2137 C2135 1.419 . S
C2137 C2138 1.362 . S
C2138 H2130 0.930 . S
C2138 C2137 1.362 . S
C2138 C2141 1.409 . S
C2139 H2131 0.930 . S
C2139 C2140 1.355 . S
C2139 C2141 1.415 . S
C2140 C2139 1.355 . S
C2140 C2142 1.419 . S
C2141 C2136 1.425 . S
C2141 C2138 1.409 . S
C2141 C2139 1.415 . S
C2142 H2132 0.930 1_655 S
C2142 C2140 1.419 . S
C2142 C2143 1.362 . S
C2143 H2133 0.930 . S
C2143 C2136 1.409 . S
C2143 C2142 1.362 . S
H2144 C2150 0.930 . S
H2145 C2153 0.930 . S
H2146 C2154 0.930 . S
H2147 C2155 0.930 . S
H2148 C2158 0.930 . S
H2149 C2159 0.930 . S
C2150 H2144 0.930 . S
C2150 C2151 1.355 . S
C2150 C2152 1.415 . S
C2151 C2150 1.355 . S
C2151 C2153 1.419 . S
C2152 C2150 1.415 . S
C2152 C2157 1.425 . S
C2152 C2159 1.409 . S
C2153 H2145 0.930 . S
C2153 C2151 1.419 . S
C2153 C2154 1.362 . S
C2154 H2146 0.930 . S
C2154 C2153 1.362 . S
C2154 C2157 1.409 . S
C2155 H2147 0.930 . S
C2155 C2156 1.355 . S
C2155 C2157 1.415 . S
C2156 C2155 1.355 . S
C2156 C2158 1.419 . S
C2157 C2152 1.425 . S
C2157 C2154 1.409 . S
C2157 C2155 1.415 . S
C2158 H2148 0.930 . S
C2158 C2156 1.419 . S
C2158 C2159 1.362 . S
C2159 H2149 0.930 . S
C2159 C2152 1.409 . S
C2159 C2158 1.362 . S
H2160 C2166 0.930 . S
H2161 C2169 0.930 . S
H2162 C2170 0.930 . S
H2163 C2171 0.930 . S
H2164 C2174 0.930 . S
H2165 C2175 0.930 . S
C2166 H2160 0.930 . S
C2166 C2167 1.355 . S
C2166 C2168 1.415 . S
C2167 C2166 1.355 . S
C2167 C2169 1.419 . S
C2168 C2166 1.415 . S
C2168 C2173 1.425 . S
C2168 C2175 1.409 . S
C2169 H2161 0.930 . S
C2169 C2167 1.419 . S
C2169 C2170 1.362 . S
C2170 H2162 0.930 . S
C2170 C2169 1.362 . S
C2170 C2173 1.409 . S
C2171 H2163 0.930 . S
C2171 C2172 1.355 . S
C2171 C2173 1.415 . S
C2172 C2171 1.355 . S
C2172 C2174 1.419 . S
C2173 C2168 1.425 . S
C2173 C2170 1.409 . S
C2173 C2171 1.415 . S
C2174 H2164 0.930 . S
C2174 C2172 1.419 . S
C2174 C2175 1.362 . S
C2175 H2165 0.930 . S
C2175 C2168 1.409 . S
C2175 C2174 1.362 . S
H2176 C2182 0.930 . S
H2177 C2185 0.930 . S
H2178 C2186 0.930 . S
H2179 C2187 0.930 . S
H2180 C2190 0.930 . S
H2181 C2191 0.930 . S
C2182 H2176 0.930 . S
C2182 C2183 1.355 . S
C2182 C2184 1.415 . S
C2183 C2182 1.355 . S
C2183 C2185 1.419 . S
C2184 C2182 1.415 . S
C2184 C2189 1.425 . S
C2184 C2191 1.409 . S
C2185 H2177 0.930 . S
C2185 C2183 1.419 . S
C2185 C2186 1.362 . S
C2186 H2178 0.930 . S
C2186 C2185 1.362 . S
C2186 C2189 1.409 . S
C2187 H2179 0.930 . S
C2187 C2188 1.355 . S
C2187 C2189 1.415 . S
C2188 C2187 1.355 . S
C2188 C2190 1.419 . S
C2189 C2184 1.425 . S
C2189 C2186 1.409 . S
C2189 C2187 1.415 . S
C2190 H2180 0.930 . S
C2190 C2188 1.419 . S
C2190 C2191 1.362 . S
C2191 H2181 0.930 . S
C2191 C2184 1.409 . S
C2191 C2190 1.362 . S
H2192 C2198 0.930 . S
H2193 C2201 0.930 . S
H2194 C2202 0.930 . S
H2195 C2203 0.930 . S
H2196 C2206 0.930 . S
H2197 C2207 0.930 . S
C2198 H2192 0.930 . S
C2198 C2199 1.355 . S
C2198 C2200 1.415 . S
C2199 C2198 1.355 . S
C2199 C2201 1.419 . S
C2200 C2198 1.415 . S
C2200 C2205 1.425 . S
C2200 C2207 1.409 . S
C2201 H2193 0.930 . S
C2201 C2199 1.419 . S
C2201 C2202 1.362 . S
C2202 H2194 0.930 . S
C2202 C2201 1.362 . S
C2202 C2205 1.409 . S
C2203 H2195 0.930 . S
C2203 C2204 1.355 . S
C2203 C2205 1.415 . S
C2204 C2203 1.355 . S
C2204 C2206 1.419 . S
C2205 C2200 1.425 . S
C2205 C2202 1.409 . S
C2205 C2203 1.415 . S
C2206 H2196 0.930 . S
C2206 C2204 1.419 . S
C2206 C2207 1.362 . S
C2207 H2197 0.930 . S
C2207 C2200 1.409 . S
C2207 C2206 1.362 . S
H2208 C2214 0.930 . S
H2209 C2217 0.930 . S
H2210 C2218 0.930 . S
H2211 C2219 0.930 . S
H2212 C2222 0.930 . S
H2213 C2223 0.930 . S
C2214 H2208 0.930 . S
C2214 C2215 1.355 . S
C2214 C2216 1.415 . S
C2215 C2214 1.355 . S
C2215 C2217 1.419 . S
C2216 C2214 1.415 . S
C2216 C2221 1.425 . S
C2216 C2223 1.409 . S
C2217 H2209 0.930 . S
C2217 C2215 1.419 . S
C2217 C2218 1.362 . S
C2218 H2210 0.930 . S
C2218 C2217 1.362 . S
C2218 C2221 1.409 . S
C2219 H2211 0.930 . S
C2219 C2220 1.355 . S
C2219 C2221 1.415 . S
C2220 C2219 1.355 . S
C2220 C2222 1.419 . S
C2221 C2216 1.425 . S
C2221 C2218 1.409 . S
C2221 C2219 1.415 . S
C2222 H2212 0.930 . S
C2222 C2220 1.419 . S
C2222 C2223 1.362 . S
C2223 H2213 0.930 . S
C2223 C2216 1.409 . S
C2223 C2222 1.362 . S
H2224 C2230 0.930 . S
H2225 C2233 0.930 . S
H2226 C2234 0.930 . S
H2227 C2235 0.930 . S
H2228 C2238 0.930 . S
H2229 C2239 0.930 . S
C2230 H2224 0.930 . S
C2230 C2231 1.355 . S
C2230 C2232 1.415 . S
C2231 C2230 1.355 . S
C2231 C2233 1.419 . S
C2232 C2230 1.415 . S
C2232 C2237 1.425 . S
C2232 C2239 1.409 . S
C2233 H2225 0.930 . S
C2233 C2231 1.419 . S
C2233 C2234 1.362 . S
C2234 H2226 0.930 . S
C2234 C2233 1.362 . S
C2234 C2237 1.409 . S
C2235 H2227 0.930 . S
C2235 C2236 1.355 . S
C2235 C2237 1.415 . S
C2236 C2235 1.355 . S
C2236 C2238 1.419 . S
C2237 C2232 1.425 . S
C2237 C2234 1.409 . S
C2237 C2235 1.415 . S
C2238 H2228 0.930 . S
C2238 C2236 1.419 . S
C2238 C2239 1.362 . S
C2239 H2229 0.930 . S
C2239 C2232 1.409 . S
C2239 C2238 1.362 . S
H2240 C2246 0.930 . S
H2241 C2249 0.930 . S
H2242 C2250 0.930 . S
H2243 C2251 0.930 . S
H2244 C2254 0.930 . S
H2245 C2255 0.930 . S
C2246 H2240 0.930 . S
C2246 C2247 1.355 . S
C2246 C2248 1.415 . S
C2247 C2246 1.355 . S
C2247 C2249 1.419 . S
C2248 C2246 1.415 . S
C2248 C2253 1.425 . S
C2248 C2255 1.409 . S
C2249 H2241 0.930 . S
C2249 C2247 1.419 . S
C2249 C2250 1.362 . S
C2250 H2242 0.930 . S
C2250 C2249 1.362 . S
C2250 C2253 1.409 . S
C2251 H2243 0.930 . S
C2251 C2252 1.355 . S
C2251 C2253 1.415 . S
C2252 C2251 1.355 . S
C2252 C2254 1.419 . S
C2253 C2248 1.425 . S
C2253 C2250 1.409 . S
C2253 C2251 1.415 . S
C2254 H2244 0.930 . S
C2254 C2252 1.419 . S
C2254 C2255 1.362 . S
C2255 H2245 0.930 . S
C2255 C2248 1.409 . S
C2255 C2254 1.362 . S
H2256 C2262 0.930 . S
H2257 C2265 0.930 . S
H2258 C2266 0.930 . S
H2259 C2267 0.930 . S
H2260 C2270 0.930 . S
H2261 C2271 0.930 . S
C2262 H2256 0.930 . S
C2262 C2263 1.355 . S
C2262 C2264 1.415 . S
C2263 C2262 1.355 . S
C2263 C2265 1.419 . S
C2264 C2262 1.415 . S
C2264 C2269 1.425 . S
C2264 C2271 1.409 . S
C2265 H2257 0.930 . S
C2265 C2263 1.419 . S
C2265 C2266 1.362 . S
C2266 H2258 0.930 . S
C2266 C2265 1.362 . S
C2266 C2269 1.409 . S
C2267 H2259 0.930 . S
C2267 C2268 1.355 . S
C2267 C2269 1.415 . S
C2268 C2267 1.355 . S
C2268 C2270 1.419 . S
C2269 C2264 1.425 . S
C2269 C2266 1.409 . S
C2269 C2267 1.415 . S
C2270 H2260 0.930 . S
C2270 C2268 1.419 . S
C2270 C2271 1.362 . S
C2271 H2261 0.930 . S
C2271 C2264 1.409 . S
C2271 C2270 1.362 . S
H2272 C2278 0.930 . S
H2273 C2281 0.930 . S
H2274 C2282 0.930 . S
H2275 C2283 0.930 . S
H2276 C2286 0.930 . S
H2277 C2287 0.930 . S
C2278 H2272 0.930 . S
C2278 C2279 1.355 . S
C2278 C2280 1.415 . S
C2279 C2278 1.355 . S
C2279 C2281 1.419 . S
C2280 C2278 1.415 . S
C2280 C2285 1.425 . S
C2280 C2287 1.409 . S
C2281 H2273 0.930 . S
C2281 C2279 1.419 . S
C2281 C2282 1.362 . S
C2282 H2274 0.930 . S
C2282 C2281 1.362 . S
C2282 C2285 1.409 . S
C2283 H2275 0.930 . S
C2283 C2284 1.355 . S
C2283 C2285 1.415 . S
C2284 C2283 1.355 . S
C2284 C2286 1.419 . S
C2285 C2280 1.425 . S
C2285 C2282 1.409 . S
C2285 C2283 1.415 . S
C2286 H2276 0.930 . S
C2286 C2284 1.419 . S
C2286 C2287 1.362 . S
C2287 H2277 0.930 . S
C2287 C2280 1.409 . S
C2287 C2286 1.362 . S
H2288 C2294 0.930 . S
H2289 C2297 0.930 . S
H2290 C2298 0.930 . S
H2291 C2299 0.930 . S
H2292 C2302 0.930 . S
H2293 C2303 0.930 . S
C2294 H2288 0.930 . S
C2294 C2295 1.355 . S
C2294 C2296 1.415 . S
C2295 C2294 1.355 . S
C2295 C2297 1.419 . S
C2296 C2294 1.415 . S
C2296 C2301 1.425 . S
C2296 C2303 1.409 . S
C2297 H2289 0.930 . S
C2297 C2295 1.419 . S
C2297 C2298 1.362 . S
C2298 H2290 0.930 . S
C2298 C2297 1.362 . S
C2298 C2301 1.409 . S
C2299 H2291 0.930 . S
C2299 C2300 1.355 . S
C2299 C2301 1.415 . S
C2300 C2299 1.355 . S
C2300 C2302 1.419 . S
C2301 C2296 1.425 . S
C2301 C2298 1.409 . S
C2301 C2299 1.415 . S
C2302 H2292 0.930 . S
C2302 C2300 1.419 . S
C2302 C2303 1.362 . S
C2303 H2293 0.930 . S
C2303 C2296 1.409 . S
C2303 C2302 1.362 . S
H2304 C2310 0.930 . S
H2305 C2313 0.930 . S
H2306 C2314 0.930 . S
H2307 C2315 0.930 . S
H2308 C2318 0.930 . S
H2309 C2319 0.930 . S
C2310 H2304 0.930 . S
C2310 C2311 1.355 . S
C2310 C2312 1.415 . S
C2311 C2310 1.355 . S
C2311 C2313 1.419 . S
C2312 C2310 1.415 . S
C2312 C2317 1.425 1_545 S
C2312 C2319 1.409 1_545 S
C2313 H2305 0.930 . S
C2313 C2311 1.419 . S
C2313 C2314 1.362 . S
C2314 H2306 0.930 . S
C2314 C2313 1.362 . S
C2314 C2317 1.409 1_545 S
C2315 H2307 0.930 . S
C2315 C2316 1.355 . S
C2315 C2317 1.415 . S
C2316 C2315 1.355 . S
C2316 C2318 1.419 . S
C2317 C2312 1.425 1_565 S
C2317 C2314 1.409 1_565 S
C2317 C2315 1.415 . S
C2318 H2308 0.930 . S
C2318 C2316 1.419 . S
C2318 C2319 1.362 . S
C2319 H2309 0.930 . S
C2319 C2312 1.409 1_565 S
C2319 C2318 1.362 . S
H2320 C2326 0.930 . S
H2321 C2329 0.930 . S
H2322 C2330 0.930 . S
H2323 C2331 0.930 . S
H2324 C2334 0.930 . S
H2325 C2335 0.930 . S
C2326 H2320 0.930 . S
C2326 C2327 1.355 . S
C2326 C2328 1.415 . S
C2327 C2326 1.355 . S
C2327 C2329 1.419 . S
C2328 C2326 1.415 . S
C2328 C2333 1.425 . S
C2328 C2335 1.409 . S
C2329 H2321 0.930 . S
C2329 C2327 1.419 . S
C2329 C2330 1.362 . S
C2330 H2322 0.930 . S
C2330 C2329 1.362 . S
C2330 C2333 1.409 . S
C2331 H2323 0.930 . S
C2331 C2332 1.355 . S
C2331 C2333 1.415 . S
C2332 C2331 1.355 . S
C2332 C2334 1.419 . S
C2333 C2328 1.425 . S
C2333 C2330 1.409 . S
C2333 C2331 1.415 . S
C2334 H2324 0.930 . S
C2334 C2332 1.419 . S
C2334 C2335 1.362 . S
C2335 H2325 0.930 . S
C2335 C2328 1.409 . S
C2335 C2334 1.362 . S
H2336 C2342 0.930 . S
H2337 C2345 0.930 . S
H2338 C2346 0.930 . S
H2339 C2347 0.930 . S
H2340 C2350 0.930 . S
H2341 C2351 0.930 . S
C2342 H2336 0.930 . S
C2342 C2343 1.355 . S
C2342 C2344 1.415 . S
C2343 C2342 1.355 . S
C2343 C2345 1.419 . S
C2344 C2342 1.415 . S
C2344 C2349 1.425 1_565 S
C2344 C2351 1.409 1_565 S
C2345 H2337 0.930 . S
C2345 C2343 1.419 . S
C2345 C2346 1.362 . S
C2346 H2338 0.930 . S
C2346 C2345 1.362 . S
C2346 C2349 1.409 1_565 S
C2347 H2339 0.930 . S
C2347 C2348 1.355 . S
C2347 C2349 1.415 . S
C2348 C2347 1.355 . S
C2348 C2350 1.419 . S
C2349 C2344 1.425 1_545 S
C2349 C2346 1.409 1_545 S
C2349 C2347 1.415 . S
C2350 H2340 0.930 . S
C2350 C2348 1.419 . S
C2350 C2351 1.362 . S
C2351 H2341 0.930 . S
C2351 C2344 1.409 1_545 S
C2351 C2350 1.362 . S
H2352 C2358 0.930 . S
H2353 C2361 0.930 . S
H2354 C2362 0.930 . S
H2355 C2363 0.930 . S
H2356 C2366 0.930 . S
H2357 C2367 0.930 . S
C2358 H2352 0.930 . S
C2358 C2359 1.355 . S
C2358 C2360 1.415 . S
C2359 C2358 1.355 . S
C2359 C2361 1.419 1_554 S
C2360 C2358 1.415 . S
C2360 C2365 1.425 1_554 S
C2360 C2367 1.409 . S
C2361 H2353 0.930 . S
C2361 C2359 1.419 1_556 S
C2361 C2362 1.362 . S
C2362 H2354 0.930 . S
C2362 C2361 1.362 . S
C2362 C2365 1.409 . S
C2363 H2355 0.930 . S
C2363 C2364 1.355 . S
C2363 C2365 1.415 . S
C2364 C2363 1.355 . S
C2364 C2366 1.419 1_556 S
C2365 C2360 1.425 1_556 S
C2365 C2362 1.409 . S
C2365 C2363 1.415 . S
C2366 H2356 0.930 . S
C2366 C2364 1.419 1_554 S
C2366 C2367 1.362 . S
C2367 H2357 0.930 . S
C2367 C2360 1.409 . S
C2367 C2366 1.362 . S
H2368 C2374 0.930 . S
H2369 C2377 0.930 . S
H2370 C2378 0.930 . S
H2371 C2379 0.930 . S
H2372 C2382 0.930 . S
H2373 C2383 0.930 . S
C2374 H2368 0.930 . S
C2374 C2375 1.355 . S
C2374 C2376 1.415 . S
C2375 C2374 1.355 . S
C2375 C2377 1.419 . S
C2376 C2374 1.415 . S
C2376 C2381 1.425 1_545 S
C2376 C2383 1.409 1_545 S
C2377 H2369 0.930 . S
C2377 C2375 1.419 . S
C2377 C2378 1.362 . S
C2378 H2370 0.930 . S
C2378 C2377 1.362 . S
C2378 C2381 1.409 1_545 S
C2379 H2371 0.930 . S
C2379 C2380 1.355 . S
C2379 C2381 1.415 . S
C2380 C2379 1.355 . S
C2380 C2382 1.419 . S
C2381 C2376 1.425 1_565 S
C2381 C2378 1.409 1_565 S
C2381 C2379 1.415 . S
C2382 H2372 0.930 . S
C2382 C2380 1.419 . S
C2382 C2383 1.362 . S
C2383 H2373 0.930 . S
C2383 C2376 1.409 1_565 S
C2383 C2382 1.362 . S
H2384 C2390 0.930 . S
H2385 C2393 0.930 . S
H2386 C2394 0.930 . S
H2387 C2395 0.930 . S
H2388 C2398 0.930 . S
H2389 C2399 0.930 . S
C2390 H2384 0.930 . S
C2390 C2391 1.355 . S
C2390 C2392 1.415 . S
C2391 C2390 1.355 . S
C2391 C2393 1.419 . S
C2392 C2390 1.415 . S
C2392 C2397 1.425 . S
C2392 C2399 1.409 . S
C2393 H2385 0.930 . S
C2393 C2391 1.419 . S
C2393 C2394 1.362 . S
C2394 H2386 0.930 . S
C2394 C2393 1.362 . S
C2394 C2397 1.409 . S
C2395 H2387 0.930 . S
C2395 C2396 1.355 . S
C2395 C2397 1.415 . S
C2396 C2395 1.355 . S
C2396 C2398 1.419 . S
C2397 C2392 1.425 . S
C2397 C2394 1.409 . S
C2397 C2395 1.415 . S
C2398 H2388 0.930 . S
C2398 C2396 1.419 . S
C2398 C2399 1.362 . S
C2399 H2389 0.930 . S
C2399 C2392 1.409 . S
C2399 C2398 1.362 . S
H2400 C2406 0.930 . S
H2401 C2409 0.930 . S
H2402 C2410 0.930 . S
H2403 C2411 0.930 . S
H2404 C2414 0.930 . S
H2405 C2415 0.930 . S
C2406 H2400 0.930 . S
C2406 C2407 1.355 . S
C2406 C2408 1.415 . S
C2407 C2406 1.355 . S
C2407 C2409 1.419 . S
C2408 C2406 1.415 . S
C2408 C2413 1.425 1_545 S
C2408 C2415 1.409 1_545 S
C2409 H2401 0.930 . S
C2409 C2407 1.419 . S
C2409 C2410 1.362 . S
C2410 H2402 0.930 . S
C2410 C2409 1.362 . S
C2410 C2413 1.409 1_545 S
C2411 H2403 0.930 . S
C2411 C2412 1.355 . S
C2411 C2413 1.415 . S
C2412 C2411 1.355 . S
C2412 C2414 1.419 . S
C2413 C2408 1.425 1_565 S
C2413 C2410 1.409 1_565 S
C2413 C2411 1.415 . S
C2414 H2404 0.930 . S
C2414 C2412 1.419 . S
C2414 C2415 1.362 . S
C2415 H2405 0.930 . S
C2415 C2408 1.409 1_565 S
C2415 C2414 1.362 . S
H2416 C2422 0.930 . S
H2417 C2425 0.930 . S
H2418 C2426 0.930 . S
H2419 C2427 0.930 . S
H2420 C2430 0.930 . S
H2421 C2431 0.930 . S
C2422 H2416 0.930 . S
C2422 C2423 1.355 . S
C2422 C2424 1.415 . S
C2423 C2422 1.355 . S
C2423 C2425 1.419 1_554 S
C2424 C2422 1.415 . S
C2424 C2429 1.425 1_554 S
C2424 C2431 1.409 . S
C2425 H2417 0.930 . S
C2425 C2423 1.419 1_556 S
C2425 C2426 1.362 . S
C2426 H2418 0.930 . S
C2426 C2425 1.362 . S
C2426 C2429 1.409 . S
C2427 H2419 0.930 . S
C2427 C2428 1.355 . S
C2427 C2429 1.415 . S
C2428 C2427 1.355 . S
C2428 C2430 1.419 1_556 S
C2429 C2424 1.425 1_556 S
C2429 C2426 1.409 . S
C2429 C2427 1.415 . S
C2430 H2420 0.930 . S
C2430 C2428 1.419 1_554 S
C2430 C2431 1.362 . S
C2431 H2421 0.930 . S
C2431 C2424 1.409 . S
C2431 C2430 1.362 . S
H2432 C2438 0.930 . S
H2433 C2441 0.930 . S
H2434 C2442 0.930 . S
H2435 C2443 0.930 . S
H2436 C2446 0.930 . S
H2437 C2447 0.930 . S
C2438 H2432 0.930 . S
C2438 C2439 1.355 . S
C2438 C2440 1.415 . S
C2439 C2438 1.355 . S
C2439 C2441 1.419 . S
C2440 C2438 1.415 . S
C2440 C2445 1.425 . S
C2440 C2447 1.409 . S
C2441 H2433 0.930 . S
C2441 C2439 1.419 . S
C2441 C2442 1.362 . S
C2442 H2434 0.930 . S
C2442 C2441 1.362 . S
C2442 C2445 1.409 . S
C2443 H2435 0.930 . S
C2443 C2444 1.355 . S
C2443 C2445 1.415 . S
C2444 C2443 1.355 . S
C2444 C2446 1.419 . S
C2445 C2440 1.425 . S
C2445 C2442 1.409 . S
C2445 C2443 1.415 . S
C2446 H2436 0.930 . S
C2446 C2444 1.419 . S
C2446 C2447 1.362 . S
C2447 H2437 0.930 . S
C2447 C2440 1.409 . S
C2447 C2446 1.362 . S
H2448 C2454 0.930 . S
H2449 C2457 0.930 . S
H2450 C2458 0.930 . S
H2451 C2459 0.930 . S
H2452 C2462 0.930 . S
H2453 C2463 0.930 . S
C2454 H2448 0.930 . S
C2454 C2455 1.355 1_556 S
C2454 C2456 1.415 . S
C2455 C2454 1.355 1_554 S
C2455 C2457 1.419 . S
C2456 C2454 1.415 . S
C2456 C2461 1.425 1_556 S
C2456 C2463 1.409 . S
C2457 H2449 0.930 . S
C2457 C2455 1.419 . S
C2457 C2458 1.362 . S
C2458 H2450 0.930 . S
C2458 C2457 1.362 . S
C2458 C2461 1.409 . S
C2459 H2451 0.930 . S
C2459 C2460 1.355 1_554 S
C2459 C2461 1.415 . S
C2460 C2459 1.355 1_556 S
C2460 C2462 1.419 . S
C2461 C2456 1.425 1_554 S
C2461 C2458 1.409 . S
C2461 C2459 1.415 . S
C2462 H2452 0.930 . S
C2462 C2460 1.419 . S
C2462 C2463 1.362 . S
C2463 H2453 0.930 . S
C2463 C2456 1.409 . S
C2463 C2462 1.362 . S
H2464 C2470 0.930 . S
H2465 C2473 0.930 . S
H2466 C2474 0.930 . S
H2467 C2475 0.930 . S
H2468 C2478 0.930 . S
H2469 C2479 0.930 . S
C2470 H2464 0.930 . S
C2470 C2471 1.355 . S
C2470 C2472 1.415 . S
C2471 C2470 1.355 . S
C2471 C2473 1.419 . S
C2472 C2470 1.415 . S
C2472 C2477 1.425 . S
C2472 C2479 1.409 . S
C2473 H2465 0.930 . S
C2473 C2471 1.419 . S
C2473 C2474 1.362 . S
C2474 H2466 0.930 . S
C2474 C2473 1.362 . S
C2474 C2477 1.409 . S
C2475 H2467 0.930 . S
C2475 C2476 1.355 . S
C2475 C2477 1.415 . S
C2476 C2475 1.355 . S
C2476 C2478 1.419 . S
C2477 C2472 1.425 . S
C2477 C2474 1.409 . S
C2477 C2475 1.415 . S
C2478 H2468 0.930 . S
C2478 C2476 1.419 . S
C2478 C2479 1.362 . S
C2479 H2469 0.930 . S
C2479 C2472 1.409 . S
C2479 C2478 1.362 . S
H2480 C2486 0.930 . S
H2481 C2489 0.930 . S
H2482 C2490 0.930 . S
H2483 C2491 0.930 . S
H2484 C2494 0.930 . S
H2485 C2495 0.930 . S
C2486 H2480 0.930 . S
C2486 C2487 1.355 . S
C2486 C2488 1.415 . S
C2487 C2486 1.355 . S
C2487 C2489 1.419 . S
C2488 C2486 1.415 . S
C2488 C2493 1.425 . S
C2488 C2495 1.409 . S
C2489 H2481 0.930 . S
C2489 C2487 1.419 . S
C2489 C2490 1.362 . S
C2490 H2482 0.930 . S
C2490 C2489 1.362 . S
C2490 C2493 1.409 . S
C2491 H2483 0.930 . S
C2491 C2492 1.355 . S
C2491 C2493 1.415 . S
C2492 C2491 1.355 . S
C2492 C2494 1.419 . S
C2493 C2488 1.425 . S
C2493 C2490 1.409 . S
C2493 C2491 1.415 . S
C2494 H2484 0.930 . S
C2494 C2492 1.419 . S
C2494 C2495 1.362 . S
C2495 H2485 0.930 . S
C2495 C2488 1.409 . S
C2495 C2494 1.362 . S
H2496 C2502 0.930 . S
H2497 C2505 0.930 . S
H2498 C2506 0.930 . S
H2499 C2507 0.930 . S
H2500 C2510 0.930 . S
H2501 C2511 0.930 . S
C2502 H2496 0.930 . S
C2502 C2503 1.355 . S
C2502 C2504 1.415 . S
C2503 C2502 1.355 . S
C2503 C2505 1.419 . S
C2504 C2502 1.415 . S
C2504 C2509 1.425 . S
C2504 C2511 1.409 . S
C2505 H2497 0.930 . S
C2505 C2503 1.419 . S
C2505 C2506 1.362 . S
C2506 H2498 0.930 . S
C2506 C2505 1.362 . S
C2506 C2509 1.409 . S
C2507 H2499 0.930 . S
C2507 C2508 1.355 . S
C2507 C2509 1.415 . S
C2508 C2507 1.355 . S
C2508 C2510 1.419 . S
C2509 C2504 1.425 . S
C2509 C2506 1.409 . S
C2509 C2507 1.415 . S
C2510 H2500 0.930 . S
C2510 C2508 1.419 . S
C2510 C2511 1.362 . S
C2511 H2501 0.930 . S
C2511 C2504 1.409 . S
C2511 C2510 1.362 . S
H2512 C2518 0.930 . S
H2513 C2521 0.930 . S
H2514 C2522 0.930 . S
H2515 C2523 0.930 . S
H2516 C2526 0.930 . S
H2517 C2527 0.930 . S
C2518 H2512 0.930 . S
C2518 C2519 1.355 1_556 S
C2518 C2520 1.415 . S
C2519 C2518 1.355 1_554 S
C2519 C2521 1.419 . S
C2520 C2518 1.415 . S
C2520 C2525 1.425 1_556 S
C2520 C2527 1.409 . S
C2521 H2513 0.930 . S
C2521 C2519 1.419 . S
C2521 C2522 1.362 . S
C2522 H2514 0.930 . S
C2522 C2521 1.362 . S
C2522 C2525 1.409 . S
C2523 H2515 0.930 . S
C2523 C2524 1.355 1_554 S
C2523 C2525 1.415 . S
C2524 C2523 1.355 1_556 S
C2524 C2526 1.419 . S
C2525 C2520 1.425 1_554 S
C2525 C2522 1.409 . S
C2525 C2523 1.415 . S
C2526 H2516 0.930 . S
C2526 C2524 1.419 . S
C2526 C2527 1.362 . S
C2527 H2517 0.930 . S
C2527 C2520 1.409 . S
C2527 C2526 1.362 . S
H2528 C2534 0.930 . S
H2529 C2537 0.930 . S
H2530 C2538 0.930 . S
H2531 C2539 0.930 . S
H2532 C2542 0.930 . S
H2533 C2543 0.930 . S
C2534 H2528 0.930 . S
C2534 C2535 1.355 . S
C2534 C2536 1.415 . S
C2535 C2534 1.355 . S
C2535 C2537 1.419 . S
C2536 C2534 1.415 . S
C2536 C2541 1.425 . S
C2536 C2543 1.409 . S
C2537 H2529 0.930 . S
C2537 C2535 1.419 . S
C2537 C2538 1.362 . S
C2538 H2530 0.930 . S
C2538 C2537 1.362 . S
C2538 C2541 1.409 . S
C2539 H2531 0.930 . S
C2539 C2540 1.355 . S
C2539 C2541 1.415 . S
C2540 C2539 1.355 . S
C2540 C2542 1.419 . S
C2541 C2536 1.425 . S
C2541 C2538 1.409 . S
C2541 C2539 1.415 . S
C2542 H2532 0.930 . S
C2542 C2540 1.419 . S
C2542 C2543 1.362 . S
C2543 H2533 0.930 . S
C2543 C2536 1.409 . S
C2543 C2542 1.362 . S
H2544 C2550 0.930 . S
H2545 C2553 0.930 . S
H2546 C2554 0.930 . S
H2547 C2555 0.930 . S
H2548 C2558 0.930 . S
H2549 C2559 0.930 . S
C2550 H2544 0.930 . S
C2550 C2551 1.355 . S
C2550 C2552 1.415 . S
C2551 C2550 1.355 . S
C2551 C2553 1.419 . S
C2552 C2550 1.415 . S
C2552 C2557 1.425 . S
C2552 C2559 1.409 . S
C2553 H2545 0.930 . S
C2553 C2551 1.419 . S
C2553 C2554 1.362 . S
C2554 H2546 0.930 . S
C2554 C2553 1.362 . S
C2554 C2557 1.409 . S
C2555 H2547 0.930 . S
C2555 C2556 1.355 . S
C2555 C2557 1.415 . S
C2556 C2555 1.355 . S
C2556 C2558 1.419 . S
C2557 C2552 1.425 . S
C2557 C2554 1.409 . S
C2557 C2555 1.415 . S
C2558 H2548 0.930 . S
C2558 C2556 1.419 . S
C2558 C2559 1.362 . S
C2559 H2549 0.930 . S
C2559 C2552 1.409 . S
C2559 C2558 1.362 . S
H2560 C2566 0.930 . S
H2561 C2569 0.930 . S
H2562 C2570 0.930 . S
H2563 C2571 0.930 . S
H2564 C2574 0.930 . S
H2565 C2575 0.930 . S
C2566 H2560 0.930 . S
C2566 C2567 1.355 . S
C2566 C2568 1.415 . S
C2567 C2566 1.355 . S
C2567 C2569 1.419 . S
C2568 C2566 1.415 . S
C2568 C2573 1.425 . S
C2568 C2575 1.409 . S
C2569 H2561 0.930 . S
C2569 C2567 1.419 . S
C2569 C2570 1.362 . S
C2570 H2562 0.930 . S
C2570 C2569 1.362 . S
C2570 C2573 1.409 . S
C2571 H2563 0.930 . S
C2571 C2572 1.355 . S
C2571 C2573 1.415 . S
C2572 C2571 1.355 . S
C2572 C2574 1.419 . S
C2573 C2568 1.425 . S
C2573 C2570 1.409 . S
C2573 C2571 1.415 . S
C2574 H2564 0.930 . S
C2574 C2572 1.419 . S
C2574 C2575 1.362 . S
C2575 H2565 0.930 . S
C2575 C2568 1.409 . S
C2575 C2574 1.362 . S
H2576 C2582 0.930 . S
H2577 C2585 0.930 . S
H2578 C2586 0.930 . S
H2579 C2587 0.930 . S
H2580 C2590 0.930 . S
H2581 C2591 0.930 . S
C2582 H2576 0.930 . S
C2582 C2583 1.355 . S
C2582 C2584 1.415 . S
C2583 C2582 1.355 . S
C2583 C2585 1.419 . S
C2584 C2582 1.415 . S
C2584 C2589 1.425 . S
C2584 C2591 1.409 . S
C2585 H2577 0.930 . S
C2585 C2583 1.419 . S
C2585 C2586 1.362 . S
C2586 H2578 0.930 . S
C2586 C2585 1.362 . S
C2586 C2589 1.409 . S
C2587 H2579 0.930 . S
C2587 C2588 1.355 . S
C2587 C2589 1.415 . S
C2588 C2587 1.355 . S
C2588 C2590 1.419 . S
C2589 C2584 1.425 . S
C2589 C2586 1.409 . S
C2589 C2587 1.415 . S
C2590 H2580 0.930 . S
C2590 C2588 1.419 . S
C2590 C2591 1.362 . S
C2591 H2581 0.930 . S
C2591 C2584 1.409 . S
C2591 C2590 1.362 . S
H2592 C2598 0.930 . S
H2593 C2601 0.930 . S
H2594 C2602 0.930 . S
H2595 C2603 0.930 . S
H2596 C2606 0.930 . S
H2597 C2607 0.930 . S
C2598 H2592 0.930 . S
C2598 C2599 1.355 . S
C2598 C2600 1.415 . S
C2599 C2598 1.355 . S
C2599 C2601 1.419 . S
C2600 C2598 1.415 . S
C2600 C2605 1.425 . S
C2600 C2607 1.409 . S
C2601 H2593 0.930 . S
C2601 C2599 1.419 . S
C2601 C2602 1.362 . S
C2602 H2594 0.930 . S
C2602 C2601 1.362 . S
C2602 C2605 1.409 . S
C2603 H2595 0.930 . S
C2603 C2604 1.355 . S
C2603 C2605 1.415 . S
C2604 C2603 1.355 . S
C2604 C2606 1.419 . S
C2605 C2600 1.425 . S
C2605 C2602 1.409 . S
C2605 C2603 1.415 . S
C2606 H2596 0.930 . S
C2606 C2604 1.419 . S
C2606 C2607 1.362 . S
C2607 H2597 0.930 . S
C2607 C2600 1.409 . S
C2607 C2606 1.362 . S
H2608 C2614 0.930 . S
H2609 C2617 0.930 . S
H2610 C2618 0.930 . S
H2611 C2619 0.930 . S
H2612 C2622 0.930 . S
H2613 C2623 0.930 . S
C2614 H2608 0.930 . S
C2614 C2615 1.355 . S
C2614 C2616 1.415 . S
C2615 C2614 1.355 . S
C2615 C2617 1.419 . S
C2616 C2614 1.415 . S
C2616 C2621 1.425 . S
C2616 C2623 1.409 . S
C2617 H2609 0.930 . S
C2617 C2615 1.419 . S
C2617 C2618 1.362 . S
C2618 H2610 0.930 . S
C2618 C2617 1.362 . S
C2618 C2621 1.409 . S
C2619 H2611 0.930 . S
C2619 C2620 1.355 . S
C2619 C2621 1.415 . S
C2620 C2619 1.355 . S
C2620 C2622 1.419 . S
C2621 C2616 1.425 . S
C2621 C2618 1.409 . S
C2621 C2619 1.415 . S
C2622 H2612 0.930 . S
C2622 C2620 1.419 . S
C2622 C2623 1.362 . S
C2623 H2613 0.930 . S
C2623 C2616 1.409 . S
C2623 C2622 1.362 . S
H2624 C2630 0.930 . S
H2625 C2633 0.930 . S
H2626 C2634 0.930 . S
H2627 C2635 0.930 . S
H2628 C2638 0.930 . S
H2629 C2639 0.930 . S
C2630 H2624 0.930 . S
C2630 C2631 1.355 . S
C2630 C2632 1.415 . S
C2631 C2630 1.355 . S
C2631 C2633 1.419 . S
C2632 C2630 1.415 . S
C2632 C2637 1.425 . S
C2632 C2639 1.409 . S
C2633 H2625 0.930 . S
C2633 C2631 1.419 . S
C2633 C2634 1.362 . S
C2634 H2626 0.930 . S
C2634 C2633 1.362 . S
C2634 C2637 1.409 . S
C2635 H2627 0.930 . S
C2635 C2636 1.355 . S
C2635 C2637 1.415 . S
C2636 C2635 1.355 . S
C2636 C2638 1.419 . S
C2637 C2632 1.425 . S
C2637 C2634 1.409 . S
C2637 C2635 1.415 . S
C2638 H2628 0.930 . S
C2638 C2636 1.419 . S
C2638 C2639 1.362 . S
C2639 H2629 0.930 . S
C2639 C2632 1.409 . S
C2639 C2638 1.362 . S
H2640 C2646 0.930 . S
H2641 C2649 0.930 . S
H2642 C2650 0.930 . S
H2643 C2651 0.930 . S
H2644 C2654 0.930 . S
H2645 C2655 0.930 . S
C2646 H2640 0.930 . S
C2646 C2647 1.355 . S
C2646 C2648 1.415 . S
C2647 C2646 1.355 . S
C2647 C2649 1.419 . S
C2648 C2646 1.415 . S
C2648 C2653 1.425 . S
C2648 C2655 1.409 . S
C2649 H2641 0.930 . S
C2649 C2647 1.419 . S
C2649 C2650 1.362 . S
C2650 H2642 0.930 . S
C2650 C2649 1.362 . S
C2650 C2653 1.409 . S
C2651 H2643 0.930 . S
C2651 C2652 1.355 . S
C2651 C2653 1.415 . S
C2652 C2651 1.355 . S
C2652 C2654 1.419 . S
C2653 C2648 1.425 . S
C2653 C2650 1.409 . S
C2653 C2651 1.415 . S
C2654 H2644 0.930 . S
C2654 C2652 1.419 . S
C2654 C2655 1.362 . S
C2655 H2645 0.930 . S
C2655 C2648 1.409 . S
C2655 C2654 1.362 . S
H2656 C2662 0.930 . S
H2657 C2665 0.930 . S
H2658 C2666 0.930 . S
H2659 C2667 0.930 . S
H2660 C2670 0.930 . S
H2661 C2671 0.930 . S
C2662 H2656 0.930 . S
C2662 C2663 1.355 . S
C2662 C2664 1.415 . S
C2663 C2662 1.355 . S
C2663 C2665 1.419 . S
C2664 C2662 1.415 . S
C2664 C2669 1.425 . S
C2664 C2671 1.409 . S
C2665 H2657 0.930 . S
C2665 C2663 1.419 . S
C2665 C2666 1.362 . S
C2666 H2658 0.930 . S
C2666 C2665 1.362 . S
C2666 C2669 1.409 . S
C2667 H2659 0.930 . S
C2667 C2668 1.355 . S
C2667 C2669 1.415 . S
C2668 C2667 1.355 . S
C2668 C2670 1.419 . S
C2669 C2664 1.425 . S
C2669 C2666 1.409 . S
C2669 C2667 1.415 . S
C2670 H2660 0.930 . S
C2670 C2668 1.419 . S
C2670 C2671 1.362 . S
C2671 H2661 0.930 . S
C2671 C2664 1.409 . S
C2671 C2670 1.362 . S
H2672 C2678 0.930 . S
H2673 C2681 0.930 . S
H2674 C2682 0.930 . S
H2675 C2683 0.930 . S
H2676 C2686 0.930 . S
H2677 C2687 0.930 . S
C2678 H2672 0.930 . S
C2678 C2679 1.355 . S
C2678 C2680 1.415 . S
C2679 C2678 1.355 . S
C2679 C2681 1.419 . S
C2680 C2678 1.415 . S
C2680 C2685 1.425 . S
C2680 C2687 1.409 . S
C2681 H2673 0.930 . S
C2681 C2679 1.419 . S
C2681 C2682 1.362 . S
C2682 H2674 0.930 . S
C2682 C2681 1.362 . S
C2682 C2685 1.409 . S
C2683 H2675 0.930 . S
C2683 C2684 1.355 . S
C2683 C2685 1.415 . S
C2684 C2683 1.355 . S
C2684 C2686 1.419 . S
C2685 C2680 1.425 . S
C2685 C2682 1.409 . S
C2685 C2683 1.415 . S
C2686 H2676 0.930 . S
C2686 C2684 1.419 . S
C2686 C2687 1.362 . S
C2687 H2677 0.930 . S
C2687 C2680 1.409 . S
C2687 C2686 1.362 . S
H2688 C2694 0.930 . S
H2689 C2697 0.930 . S
H2690 C2698 0.930 . S
H2691 C2699 0.930 . S
H2692 C2702 0.930 . S
H2693 C2703 0.930 . S
C2694 H2688 0.930 . S
C2694 C2695 1.355 . S
C2694 C2696 1.415 . S
C2695 C2694 1.355 . S
C2695 C2697 1.419 . S
C2696 C2694 1.415 . S
C2696 C2701 1.425 . S
C2696 C2703 1.409 . S
C2697 H2689 0.930 . S
C2697 C2695 1.419 . S
C2697 C2698 1.362 . S
C2698 H2690 0.930 . S
C2698 C2697 1.362 . S
C2698 C2701 1.409 . S
C2699 H2691 0.930 . S
C2699 C2700 1.355 . S
C2699 C2701 1.415 . S
C2700 C2699 1.355 . S
C2700 C2702 1.419 . S
C2701 C2696 1.425 . S
C2701 C2698 1.409 . S
C2701 C2699 1.415 . S
C2702 H2692 0.930 . S
C2702 C2700 1.419 . S
C2702 C2703 1.362 . S
C2703 H2693 0.930 . S
C2703 C2696 1.409 . S
C2703 C2702 1.362 . S
H2704 C2710 0.930 . S
H2705 C2713 0.930 . S
H2706 C2714 0.930 . S
H2707 C2715 0.930 . S
H2708 C2718 0.930 . S
H2709 C2719 0.930 . S
C2710 H2704 0.930 . S
C2710 C2711 1.355 . S
C2710 C2712 1.415 . S
C2711 C2710 1.355 . S
C2711 C2713 1.419 . S
C2712 C2710 1.415 . S
C2712 C2717 1.425 . S
C2712 C2719 1.409 . S
C2713 H2705 0.930 . S
C2713 C2711 1.419 . S
C2713 C2714 1.362 . S
C2714 H2706 0.930 . S
C2714 C2713 1.362 . S
C2714 C2717 1.409 . S
C2715 H2707 0.930 . S
C2715 C2716 1.355 . S
C2715 C2717 1.415 . S
C2716 C2715 1.355 . S
C2716 C2718 1.419 . S
C2717 C2712 1.425 . S
C2717 C2714 1.409 . S
C2717 C2715 1.415 . S
C2718 H2708 0.930 . S
C2718 C2716 1.419 . S
C2718 C2719 1.362 . S
C2719 H2709 0.930 . S
C2719 C2712 1.409 . S
C2719 C2718 1.362 . S
H2720 C2726 0.930 . S
H2721 C2729 0.930 . S
H2722 C2730 0.930 . S
H2723 C2731 0.930 . S
H2724 C2734 0.930 . S
H2725 C2735 0.930 . S
C2726 H2720 0.930 . S
C2726 C2727 1.355 . S
C2726 C2728 1.415 . S
C2727 C2726 1.355 . S
C2727 C2729 1.419 . S
C2728 C2726 1.415 . S
C2728 C2733 1.425 . S
C2728 C2735 1.409 . S
C2729 H2721 0.930 . S
C2729 C2727 1.419 . S
C2729 C2730 1.362 . S
C2730 H2722 0.930 . S
C2730 C2729 1.362 . S
C2730 C2733 1.409 . S
C2731 H2723 0.930 . S
C2731 C2732 1.355 . S
C2731 C2733 1.415 . S
C2732 C2731 1.355 . S
C2732 C2734 1.419 . S
C2733 C2728 1.425 . S
C2733 C2730 1.409 . S
C2733 C2731 1.415 . S
C2734 H2724 0.930 . S
C2734 C2732 1.419 . S
C2734 C2735 1.362 . S
C2735 H2725 0.930 . S
C2735 C2728 1.409 . S
C2735 C2734 1.362 . S
H2736 C2742 0.930 . S
H2737 C2745 0.930 . S
H2738 C2746 0.930 . S
H2739 C2747 0.930 . S
H2740 C2750 0.930 . S
H2741 C2751 0.930 . S
C2742 H2736 0.930 . S
C2742 C2743 1.355 . S
C2742 C2744 1.415 . S
C2743 C2742 1.355 . S
C2743 C2745 1.419 . S
C2744 C2742 1.415 . S
C2744 C2749 1.425 . S
C2744 C2751 1.409 . S
C2745 H2737 0.930 . S
C2745 C2743 1.419 . S
C2745 C2746 1.362 . S
C2746 H2738 0.930 . S
C2746 C2745 1.362 . S
C2746 C2749 1.409 . S
C2747 H2739 0.930 . S
C2747 C2748 1.355 . S
C2747 C2749 1.415 . S
C2748 C2747 1.355 . S
C2748 C2750 1.419 . S
C2749 C2744 1.425 . S
C2749 C2746 1.409 . S
C2749 C2747 1.415 . S
C2750 H2740 0.930 . S
C2750 C2748 1.419 . S
C2750 C2751 1.362 . S
C2751 H2741 0.930 . S
C2751 C2744 1.409 . S
C2751 C2750 1.362 . S
H2752 C2758 0.930 . S
H2753 C2761 0.930 . S
H2754 C2762 0.930 . S
H2755 C2763 0.930 . S
H2756 C2766 0.930 . S
H2757 C2767 0.930 . S
C2758 H2752 0.930 . S
C2758 C2759 1.355 . S
C2758 C2760 1.415 . S
C2759 C2758 1.355 . S
C2759 C2761 1.419 . S
C2760 C2758 1.415 . S
C2760 C2765 1.425 . S
C2760 C2767 1.409 . S
C2761 H2753 0.930 . S
C2761 C2759 1.419 . S
C2761 C2762 1.362 . S
C2762 H2754 0.930 . S
C2762 C2761 1.362 . S
C2762 C2765 1.409 . S
C2763 H2755 0.930 . S
C2763 C2764 1.355 . S
C2763 C2765 1.415 . S
C2764 C2763 1.355 . S
C2764 C2766 1.419 . S
C2765 C2760 1.425 . S
C2765 C2762 1.409 . S
C2765 C2763 1.415 . S
C2766 H2756 0.930 . S
C2766 C2764 1.419 . S
C2766 C2767 1.362 . S
C2767 H2757 0.930 . S
C2767 C2760 1.409 . S
C2767 C2766 1.362 . S
H2768 C2774 0.930 . S
H2769 C2777 0.930 . S
H2770 C2778 0.930 . S
H2771 C2779 0.930 . S
H2772 C2782 0.930 . S
H2773 C2783 0.930 . S
C2774 H2768 0.930 . S
C2774 C2775 1.355 . S
C2774 C2776 1.415 . S
C2775 C2774 1.355 . S
C2775 C2777 1.419 . S
C2776 C2774 1.415 . S
C2776 C2781 1.425 . S
C2776 C2783 1.409 . S
C2777 H2769 0.930 . S
C2777 C2775 1.419 . S
C2777 C2778 1.362 . S
C2778 H2770 0.930 . S
C2778 C2777 1.362 . S
C2778 C2781 1.409 . S
C2779 H2771 0.930 . S
C2779 C2780 1.355 . S
C2779 C2781 1.415 . S
C2780 C2779 1.355 . S
C2780 C2782 1.419 . S
C2781 C2776 1.425 . S
C2781 C2778 1.409 . S
C2781 C2779 1.415 . S
C2782 H2772 0.930 . S
C2782 C2780 1.419 . S
C2782 C2783 1.362 . S
C2783 H2773 0.930 . S
C2783 C2776 1.409 . S
C2783 C2782 1.362 . S
H2784 C2790 0.930 . S
H2785 C2793 0.930 . S
H2786 C2794 0.930 . S
H2787 C2795 0.930 . S
H2788 C2798 0.930 . S
H2789 C2799 0.930 . S
C2790 H2784 0.930 . S
C2790 C2791 1.355 . S
C2790 C2792 1.415 . S
C2791 C2790 1.355 . S
C2791 C2793 1.419 . S
C2792 C2790 1.415 . S
C2792 C2797 1.425 . S
C2792 C2799 1.409 . S
C2793 H2785 0.930 . S
C2793 C2791 1.419 . S
C2793 C2794 1.362 . S
C2794 H2786 0.930 . S
C2794 C2793 1.362 . S
C2794 C2797 1.409 . S
C2795 H2787 0.930 . S
C2795 C2796 1.355 . S
C2795 C2797 1.415 . S
C2796 C2795 1.355 . S
C2796 C2798 1.419 . S
C2797 C2792 1.425 . S
C2797 C2794 1.409 . S
C2797 C2795 1.415 . S
C2798 H2788 0.930 . S
C2798 C2796 1.419 . S
C2798 C2799 1.362 . S
C2799 H2789 0.930 . S
C2799 C2792 1.409 . S
C2799 C2798 1.362 . S
H2800 C2806 0.930 . S
H2801 C2809 0.930 . S
H2802 C2810 0.930 . S
H2803 C2811 0.930 . S
H2804 C2814 0.930 . S
H2805 C2815 0.930 . S
C2806 H2800 0.930 . S
C2806 C2807 1.355 . S
C2806 C2808 1.415 . S
C2807 C2806 1.355 . S
C2807 C2809 1.419 . S
C2808 C2806 1.415 . S
C2808 C2813 1.425 . S
C2808 C2815 1.409 . S
C2809 H2801 0.930 . S
C2809 C2807 1.419 . S
C2809 C2810 1.362 . S
C2810 H2802 0.930 . S
C2810 C2809 1.362 . S
C2810 C2813 1.409 . S
C2811 H2803 0.930 . S
C2811 C2812 1.355 . S
C2811 C2813 1.415 . S
C2812 C2811 1.355 . S
C2812 C2814 1.419 . S
C2813 C2808 1.425 . S
C2813 C2810 1.409 . S
C2813 C2811 1.415 . S
C2814 H2804 0.930 . S
C2814 C2812 1.419 . S
C2814 C2815 1.362 . S
C2815 H2805 0.930 . S
C2815 C2808 1.409 . S
C2815 C2814 1.362 . S
C1287 C7 1.034 . S
C1292 C131 1.065 . S
C1303 C11 0.983 . S
C1308 C47 1.075 . S
C1319 C87 1.053 . S
C1324 C51 0.977 . S
C1335 C91 0.994 . S
C1340 C127 1.072 . S
C1351 C211 0.964 . S
C1356 C167 1.058 . S
C1367 C207 1.079 . S
C1372 C251 0.969 . S
C1383 C291 1.067 . S
C1388 C247 1.034 . S
C1399 C171 0.985 . S
C1404 C287 1.077 . S
C1415 C336 1.043 . S
C1420 C442 1.017 . S
C1431 C376 1.069 . S
C1436 C322 1.005 . S
C1447 C416 1.044 . S
C1452 C362 1.013 . S
C1463 C456 1.058 . S
C1468 C402 1.045 . S
C1479 C496 1.035 . S
C1484 C522 1.061 . S
C1495 C536 1.066 . S
C1500 C562 1.017 . S
C1511 C602 0.971 . S
C1516 C576 1.055 . S
C1527 C482 1.010 . S
C1532 C616 1.068 . S
C1543 C647 1.036 . S
C1548 C771 1.051 . S
C1559 C651 1.031 . S
C1564 C687 1.041 . S
C1575 C691 1.067 . S
C1580 C727 1.034 . S
C1591 C767 1.043 . S
C1596 C731 1.040 . S
C1607 C807 1.058 . S
C1612 C851 0.969 . S
C1623 C891 1.066 . S
C1628 C847 1.036 . S
C1639 C887 1.051 . S
C1644 C931 0.985 . S
C1655 C811 1.059 . S
C1660 C927 1.035 . S
C1671 C1082 1.029 . S
C1676 C976 1.046 . S
C1687 C962 0.964 . S
C1692 C1016 1.057 . S
C1703 C1056 1.034 . S
C1708 C1002 1.068 . S
C1719 C1042 1.017 . S
C1724 C1096 1.049 . S
C1735 C1162 1.010 . S
C1740 C1136 1.045 . S
C1751 C1202 1.016 . S
C1756 C1176 1.044 . S
C1767 C1242 1.029 . S
C1772 C1216 1.046 . S
C1783 C1256 1.048 . S
C1788 C1122 1.021 . S
C1799 C1087 1.560 . S
C1804 C10 1.526 . S
C1815 C50 1.558 . S
C1820 C327 1.582 1_455 S
C1831 C90 1.541 . S
C1836 C1007 1.590 . S
C1847 C130 1.506 . S
C1852 C407 1.568 . S
C1863 C170 1.492 . S
C1868 C1167 1.553 . S
C1879 C567 1.592 . S
C1884 C210 1.546 . S
C1895 C1247 1.568 . S
C1900 C250 1.540 . S
C1911 C290 1.503 . S
C1916 C487 1.566 1_455 S
C1927 C339 1.547 . S
C1932 C776 1.573 . S
C1943 C16 1.568 1_655 S
C1948 C379 1.505 . S
C1959 C696 1.549 . S
C1964 C419 1.495 . S
C1975 C96 1.579 . S
C1980 C459 1.555 . S
C1991 C856 1.552 . S
C1996 C499 1.492 . S
C2007 C256 1.596 . S
C2012 C539 1.561 . S
C2023 C579 1.563 . S
C2028 C936 1.596 . S
C2039 C619 1.553 . S
C2044 C176 1.577 1_655 S
C2055 C650 1.540 . S
C2060 C447 1.589 . S
C2071 C690 1.498 . S
C2076 C967 1.562 . S
C2087 C730 1.558 . S
C2092 C367 1.581 . S
C2103 C770 1.523 . S
C2108 C1047 1.580 1_655 S
C2119 C810 1.503 . S
C2124 C527 1.550 . S
C2135 C850 1.516 . S
C2140 C1207 1.576 1_655 S
C2151 C607 1.587 . S
C2156 C890 1.564 . S
C2167 C930 1.520 . S
C2172 C1127 1.578 . S
C2183 C136 1.549 . S
C2188 C979 1.495 . S
C2199 C656 1.566 . S
C2204 C1019 1.538 . S
C2215 C56 1.551 . S
C2220 C1059 1.505 . S
C2231 C736 1.556 1_455 S
C2236 C1099 1.518 . S
C2247 C216 1.582 . S
C2252 C1139 1.526 . S
C2263 C1179 1.532 . S
C2268 C896 1.563 1_455 S
C2279 C1219 1.519 . S
C2284 C296 1.578 . S
C2295 C816 1.576 . S
C2300 C1259 1.517 . S
C2311 C19 0.853 . S
C2316 C179 0.910 . S
C2327 C59 0.986 . S
C2332 C219 0.923 . S
C2343 C99 0.954 . S
C2348 C259 0.874 . S
C2359 C299 0.899 1_554 S
C2364 C139 0.852 1_556 S
C2375 C490 0.867 . S
C2380 C330 0.946 . S
C2391 C530 0.967 . S
C2396 C370 0.887 . S
C2407 C410 0.924 . S
C2412 C570 0.856 . S
C2423 C450 0.899 1_554 S
C2428 C610 0.852 1_556 S
C2439 C659 0.941 . S
C2444 C819 0.990 . S
C2455 C859 0.989 1_554 S
C2460 C699 0.935 1_556 S
C2471 C899 0.872 . S
C2476 C739 0.952 . S
C2487 C939 0.854 . S
C2492 C779 0.915 . S
C2503 C1130 0.971 . S
C2508 C970 0.983 . S
C2519 C1010 0.972 1_554 S
C2524 C1170 0.982 1_556 S
C2535 C1210 0.918 . S
C2540 C1050 0.854 . S
C2551 C1090 0.857 . S
C2556 C1250 0.927 . S
C2567 C282 2.735 . S
C2572 C2 2.727 . S
C2583 C42 2.741 . S
C2588 C162 2.737 . S
C2599 C82 2.738 . S
C2604 C202 2.741 . S
C2615 C242 2.732 . S
C2620 C122 2.740 . S
C2631 C331 2.729 . S
C2636 C611 2.725 . S
C2647 C491 2.737 . S
C2652 C371 2.729 . S
C2663 C531 2.725 . S
C2668 C411 2.732 . S
C2679 C451 2.729 . S
C2684 C571 2.725 . S
C2695 C642 2.728 . S
C2700 C922 2.725 . S
C2711 C802 2.740 . S
C2716 C682 2.740 . S
C2727 C842 2.733 . S
C2732 C722 2.726 . S
C2743 C882 2.740 . S
C2748 C762 2.733 . S
C2759 C971 2.739 . S
C2764 C1251 2.730 . S
C2775 C1131 2.740 . S
C2780 C1011 2.733 . S
C2791 C1051 2.741 . S
C2796 C1171 2.738 . S
C2807 C1211 2.727 . S
C2812 C1091 2.726 . S
