# Generated by pormake.
# Topology ume, (4)-cn, num edge types: 1
# Building blocks:
#     Node 0, Type 0, BuildingBlock: KUFVIS_clean_sbu_0, # of connection points: 4
#     Node 1, Type 0, BuildingBlock: KUFVIS_clean_sbu_0, # of connection points: 4
#     Node 2, Type 0, BuildingBlock: KUFVIS_clean_sbu_0, # of connection points: 4
#     Node 3, Type 0, BuildingBlock: KUFVIS_clean_sbu_0, # of connection points: 4
#     Node 4, Type 0, BuildingBlock: KUFVIS_clean_sbu_0, # of connection points: 4
#     Node 5, Type 0, BuildingBlock: KUFVIS_clean_sbu_0, # of connection points: 4
#     Node 6, Type 0, BuildingBlock: KUFVIS_clean_sbu_0, # of connection points: 4
#     Node 7, Type 0, BuildingBlock: KUFVIS_clean_sbu_0, # of connection points: 4
#     Node 8, Type 0, BuildingBlock: KUFVIS_clean_sbu_0, # of connection points: 4
#     Node 9, Type 0, BuildingBlock: KUFVIS_clean_sbu_0, # of connection points: 4
#     Node 10, Type 0, BuildingBlock: KUFVIS_clean_sbu_0, # of connection points: 4
#     Node 11, Type 0, BuildingBlock: KUFVIS_clean_sbu_0, # of connection points: 4
#     Node 12, Type 0, BuildingBlock: KUFVIS_clean_sbu_0, # of connection points: 4
#     Node 13, Type 0, BuildingBlock: KUFVIS_clean_sbu_0, # of connection points: 4
#     Node 14, Type 0, BuildingBlock: KUFVIS_clean_sbu_0, # of connection points: 4
#     Node 15, Type 0, BuildingBlock: KUFVIS_clean_sbu_0, # of connection points: 4
#     Edge 16, Type (0, 0), BuildingBlock: MIFKUJ_clean_linker_0, # of connection points: 2
#     Edge 17, Type (0, 0), BuildingBlock: MIFKUJ_clean_linker_0, # of connection points: 2
#     Edge 18, Type (0, 0), BuildingBlock: MIFKUJ_clean_linker_0, # of connection points: 2
#     Edge 19, Type (0, 0), BuildingBlock: MIFKUJ_clean_linker_0, # of connection points: 2
#     Edge 20, Type (0, 0), BuildingBlock: MIFKUJ_clean_linker_0, # of connection points: 2
#     Edge 21, Type (0, 0), BuildingBlock: MIFKUJ_clean_linker_0, # of connection points: 2
#     Edge 22, Type (0, 0), BuildingBlock: MIFKUJ_clean_linker_0, # of connection points: 2
#     Edge 23, Type (0, 0), BuildingBlock: MIFKUJ_clean_linker_0, # of connection points: 2
#     Edge 24, Type (0, 0), BuildingBlock: MIFKUJ_clean_linker_0, # of connection points: 2
#     Edge 25, Type (0, 0), BuildingBlock: MIFKUJ_clean_linker_0, # of connection points: 2
#     Edge 26, Type (0, 0), BuildingBlock: MIFKUJ_clean_linker_0, # of connection points: 2
#     Edge 27, Type (0, 0), BuildingBlock: MIFKUJ_clean_linker_0, # of connection points: 2
#     Edge 28, Type (0, 0), BuildingBlock: MIFKUJ_clean_linker_0, # of connection points: 2
#     Edge 29, Type (0, 0), BuildingBlock: MIFKUJ_clean_linker_0, # of connection points: 2
#     Edge 30, Type (0, 0), BuildingBlock: MIFKUJ_clean_linker_0, # of connection points: 2
#     Edge 31, Type (0, 0), BuildingBlock: MIFKUJ_clean_linker_0, # of connection points: 2
#     Edge 32, Type (0, 0), BuildingBlock: MIFKUJ_clean_linker_0, # of connection points: 2
#     Edge 33, Type (0, 0), BuildingBlock: MIFKUJ_clean_linker_0, # of connection points: 2
#     Edge 34, Type (0, 0), BuildingBlock: MIFKUJ_clean_linker_0, # of connection points: 2
#     Edge 35, Type (0, 0), BuildingBlock: MIFKUJ_clean_linker_0, # of connection points: 2
#     Edge 36, Type (0, 0), BuildingBlock: MIFKUJ_clean_linker_0, # of connection points: 2
#     Edge 37, Type (0, 0), BuildingBlock: MIFKUJ_clean_linker_0, # of connection points: 2
#     Edge 38, Type (0, 0), BuildingBlock: MIFKUJ_clean_linker_0, # of connection points: 2
#     Edge 39, Type (0, 0), BuildingBlock: MIFKUJ_clean_linker_0, # of connection points: 2
#     Edge 40, Type (0, 0), BuildingBlock: MIFKUJ_clean_linker_0, # of connection points: 2
#     Edge 41, Type (0, 0), BuildingBlock: MIFKUJ_clean_linker_0, # of connection points: 2
#     Edge 42, Type (0, 0), BuildingBlock: MIFKUJ_clean_linker_0, # of connection points: 2
#     Edge 43, Type (0, 0), BuildingBlock: MIFKUJ_clean_linker_0, # of connection points: 2
#     Edge 44, Type (0, 0), BuildingBlock: MIFKUJ_clean_linker_0, # of connection points: 2
#     Edge 45, Type (0, 0), BuildingBlock: MIFKUJ_clean_linker_0, # of connection points: 2
#     Edge 46, Type (0, 0), BuildingBlock: MIFKUJ_clean_linker_0, # of connection points: 2
#     Edge 47, Type (0, 0), BuildingBlock: MIFKUJ_clean_linker_0, # of connection points: 2
# Relax obj value: 0.106
# Max RMSD: 0.162
# Mean RMSD: 0.161
data_MOF--net-ume--node1-KUFVIS_clean_sbu_0--edge1-MIFKUJ_clean_linker_0
_symmetry_space_group_name_H-M    P1
_symmetry_Int_Tables_number       1
_symmetry_cell_setting            triclinic
loop_
_symmetry_equiv_pos_as_xyz
'x, y, z'
_cell_length_a     33.874727
_cell_length_b     33.803779
_cell_length_c     148.67417
_cell_angle_alpha  89.965986
_cell_angle_beta   90.007325
_cell_angle_gamma 90.008007
loop_
_atom_site_label
_atom_site_type_symbol
_atom_site_fract_x
_atom_site_fract_y
_atom_site_fract_z
_atom_type_partial_charge
Mn0 Mn 0.2441 0.14212 0.31116 0.0
Mn1 Mn 0.24397 0.05839 0.3235 0.0
C2 C 0.30331 0.11663 0.31644 0.0
C3 C 0.24378 0.1706 0.29687 0.0
C4 C 0.21956 0.13904 0.33075 0.0
O5 O 0.18901 0.11919 0.3091 0.0
O6 O 0.19722 0.05954 0.3156 0.0
C7 C 0.2549 -0.00041 0.30894 0.0
N8 N 0.26615 0.01502 0.317 0.0
C9 C 0.31659 0.96554 0.31877 0.0
C10 C 0.30509 0.94867 0.31056 0.0
C11 C 0.2743 0.96596 0.3056 0.0
C12 C 0.29627 -0.00085 0.32174 0.0
H13 H 0.23158 0.01308 0.30507 0.0
C14 C 0.17773 0.08391 0.31075 0.0
O15 O 0.23086 0.18999 0.30382 0.0
O16 O 0.25662 0.13502 0.29826 0.0
N17 N 0.28806 0.0526 0.33144 0.0
C18 C 0.2968 0.07357 0.33901 0.0
C19 C 0.32663 0.05999 0.34479 0.0
C20 C 0.34717 0.02511 0.34272 0.0
C21 C 0.33836 0.00453 0.3348 0.0
C22 C 0.30766 0.01889 0.32942 0.0
H23 H 0.28049 0.09988 0.34075 0.0
O24 O 0.30109 0.15318 0.31381 0.0
O25 O 0.27117 0.09603 0.31567 0.0
O26 O 0.22898 0.15968 0.32389 0.0
O27 O 0.22137 0.10125 0.33093 0.0
C28 C 0.35848 0.97004 0.3321 0.0
C29 C 0.34788 0.95079 0.32404 0.0
H30 H 0.32003 0.92277 0.30796 0.0
H31 H 0.26558 0.95342 0.2992 0.0
H32 H 0.33326 0.07584 0.35092 0.0
H33 H 0.36921 0.014 0.34733 0.0
H34 H 0.38242 0.95829 0.33613 0.0
H35 H 0.36405 0.92474 0.32194 0.0
Mn36 Mn 0.8653 0.75014 0.56528 0.0
Mn37 Mn 0.94385 0.74684 0.57925 0.0
C38 C 0.89588 0.80845 0.56961 0.0
C39 C 0.84165 0.74676 0.55054 0.0
C40 C 0.85907 0.73694 0.58556 0.0
O41 O 0.88178 0.6922 0.56478 0.0
O42 O 0.93649 0.69512 0.57332 0.0
C43 C 0.00671 0.7365 0.56561 0.0
N44 N 0.99142 0.75667 0.57273 0.0
C45 C 0.04768 0.80003 0.57325 0.0
C46 C 0.06414 0.77965 0.56595 0.0
C47 C 0.04344 0.7479 0.56207 0.0
C48 C 0.01084 0.78752 0.57643 0.0
H49 H 0.99097 0.71194 0.56265 0.0
C50 C 0.91239 0.67646 0.56825 0.0
O51 O 0.81862 0.73944 0.55734 0.0
O52 O 0.87792 0.75587 0.55234 0.0
N53 N 0.95527 0.79484 0.5855 0.0
C54 C 0.9344 0.81252 0.59222 0.0
C55 C 0.95118 0.8444 0.5969 0.0
C56 C 0.98924 0.85759 0.59464 0.0
C57 C 0.00974 0.83959 0.58756 0.0
C58 C 0.99188 0.80744 0.58327 0.0
H59 H 0.90551 0.80187 0.59411 0.0
O60 O 0.86018 0.80872 0.56646 0.0
O61 O 0.91306 0.77405 0.56996 0.0
O62 O 0.84199 0.74261 0.57799 0.0
O63 O 0.89652 0.737 0.58657 0.0
C64 C 0.04728 0.85214 0.58464 0.0
C65 C 0.06608 0.83259 0.57743 0.0
H66 H 0.09249 0.78831 0.56321 0.0
H67 H 0.0558 0.73226 0.55639 0.0
H68 H 0.93512 0.85834 0.60233 0.0
H69 H 0.00268 0.8813 0.59844 0.0
H70 H 0.06173 0.87707 0.58781 0.0
H71 H 0.09465 0.84289 0.57514 0.0
Mn72 Mn 0.23476 0.36571 0.80922 0.0
Mn73 Mn 0.23271 0.44854 0.82171 0.0
C74 C 0.1751 0.38951 0.81444 0.0
C75 C 0.23666 0.33966 0.79471 0.0
C76 C 0.25996 0.36829 0.82868 0.0
O77 O 0.28948 0.38998 0.80755 0.0
O78 O 0.27867 0.4504 0.81351 0.0
C79 C 0.21727 0.50825 0.80756 0.0
N80 N 0.20721 0.49097 0.81551 0.0
C81 C 0.15245 0.53551 0.81742 0.0
C82 C 0.16262 0.5542 0.80932 0.0
C83 C 0.19504 0.54034 0.80434 0.0
C84 C 0.17571 0.50365 0.82028 0.0
H85 H 0.24189 0.49744 0.80368 0.0
C86 C 0.29925 0.42597 0.8089 0.0
O87 O 0.24901 0.319 0.80154 0.0
O88 O 0.22333 0.37479 0.79635 0.0
N89 N 0.1889 0.45072 0.82984 0.0
C90 C 0.18133 0.4278 0.83719 0.0
C91 C 0.14887 0.43669 0.8427 0.0
C92 C 0.12477 0.46929 0.84067 0.0
C93 C 0.13332 0.49267 0.83313 0.0
C94 C 0.1661 0.48243 0.82789 0.0
H95 H 0.19989 0.40296 0.83887 0.0
O96 O 0.17765 0.3534 0.81155 0.0
O97 O 0.20691 0.41053 0.81385 0.0
O98 O 0.24921 0.34739 0.82195 0.0
O99 O 0.25851 0.40615 0.82879 0.0
C100 C 0.11031 0.52547 0.83055 0.0
C101 C 0.11968 0.54671 0.82267 0.0
H102 H 0.14545 0.57887 0.80681 0.0
H103 H 0.20282 0.55432 0.79804 0.0
H104 H 0.1425 0.41852 0.84852 0.0
H105 H 0.09967 0.47598 0.84492 0.0
H106 H 0.08506 0.53429 0.83452 0.0
H107 H 0.10125 0.57135 0.82065 0.0
Mn108 Mn 0.64387 0.73914 0.06301 0.0
Mn109 Mn 0.56666 0.75559 0.07676 0.0
C110 C 0.60709 0.68605 0.06823 0.0
C111 C 0.66805 0.73591 0.04834 0.0
C112 C 0.65247 0.76197 0.08257 0.0
O113 O 0.63284 0.79829 0.06168 0.0
O114 O 0.5744 0.80243 0.06897 0.0
C115 C 0.49978 0.76069 0.06398 0.0
N116 N 0.51705 0.74366 0.07129 0.0
C117 C 0.46014 0.70262 0.0739 0.0
C118 C 0.44166 0.71987 0.06642 0.0
C119 C 0.46164 0.74893 0.06143 0.0
C120 C 0.49808 0.71571 0.07615 0.0
H121 H 0.51499 0.78308 0.06015 0.0
C122 C 0.60144 0.81674 0.06391 0.0
O123 O 0.69137 0.74334 0.05507 0.0
O124 O 0.63099 0.73068 0.05016 0.0
N125 N 0.55616 0.71151 0.08445 0.0
C126 C 0.58024 0.69397 0.09061 0.0
C127 C 0.56601 0.6621 0.0957 0.0
C128 C 0.5269 0.64939 0.09459 0.0
C129 C 0.50287 0.66737 0.0881 0.0
C130 C 0.51889 0.69855 0.0831 0.0
H131 H 0.61015 0.70393 0.09158 0.0
O132 O 0.64246 0.68058 0.06511 0.0
O133 O 0.59423 0.72223 0.06804 0.0
O134 O 0.66814 0.7476 0.0755 0.0
O135 O 0.61558 0.76866 0.08337 0.0
C136 C 0.46408 0.65487 0.0862 0.0
C137 C 0.44278 0.67235 0.07908 0.0
H138 H 0.41233 0.71071 0.0644 0.0
H139 H 0.44766 0.76225 0.05562 0.0
H140 H 0.58502 0.64764 0.10054 0.0
H141 H 0.51589 0.62553 0.09869 0.0
H142 H 0.45053 0.63145 0.09008 0.0
H143 H 0.41333 0.66184 0.07755 0.0
Mn144 Mn 0.25953 0.35974 0.94027 0.0
Mn145 Mn 0.23983 0.43795 0.92705 0.0
C146 C 0.3111 0.39841 0.93497 0.0
C147 C 0.26437 0.33457 0.95485 0.0
C148 C 0.23501 0.35243 0.92083 0.0
O149 O 0.20021 0.36891 0.94177 0.0
O150 O 0.19449 0.42885 0.93518 0.0
C151 C 0.23685 0.50326 0.9403 0.0
N152 N 0.25205 0.48729 0.93265 0.0
C153 C 0.29111 0.54546 0.92984 0.0
C154 C 0.27549 0.56275 0.93764 0.0
C155 C 0.24843 0.54145 0.94292 0.0
C156 C 0.27844 0.50734 0.92757 0.0
H157 H 0.21624 0.48688 0.94439 0.0
C158 C 0.181 0.40049 0.93999 0.0
O159 O 0.25706 0.31146 0.94807 0.0
O160 O 0.26847 0.37194 0.95314 0.0
N161 N 0.28216 0.44994 0.91899 0.0
C162 C 0.29779 0.42732 0.91229 0.0
C163 C 0.32649 0.44354 0.90658 0.0
C164 C 0.33877 0.48281 0.90781 0.0
C165 C 0.3231 0.5052 0.91489 0.0
C166 C 0.29438 0.48753 0.92033 0.0
H167 H 0.28807 0.39737 0.91121 0.0
O168 O 0.31786 0.363 0.93799 0.0
O169 O 0.27472 0.41018 0.93538 0.0
O170 O 0.25104 0.33646 0.92769 0.0
O171 O 0.22649 0.38917 0.92036 0.0
C172 C 0.33505 0.54421 0.91682 0.0
C173 C 0.31932 0.56421 0.92433 0.0
H174 H 0.28446 0.59215 0.9397 0.0
H175 H 0.23653 0.55444 0.94899 0.0
H176 H 0.33872 0.426 0.90117 0.0
H177 H 0.36022 0.49536 0.90326 0.0
H178 H 0.35663 0.55896 0.91263 0.0
H179 H 0.32943 0.59385 0.92587 0.0
Mn180 Mn 0.63862 0.75639 0.19365 0.0
Mn181 Mn 0.56428 0.73893 0.17906 0.0
C182 C 0.60035 0.80849 0.18851 0.0
C183 C 0.66119 0.75831 0.20848 0.0
C184 C 0.65071 0.73922 0.17374 0.0
O185 O 0.6301 0.69675 0.19454 0.0
O186 O 0.57593 0.68995 0.18582 0.0
C187 C 0.49877 0.72468 0.19183 0.0
N188 N 0.51417 0.74512 0.18476 0.0
C189 C 0.45457 0.78312 0.18307 0.0
C190 C 0.43795 0.76235 0.19031 0.0
C191 C 0.46021 0.7331 0.19473 0.0
C192 C 0.49311 0.77343 0.18049 0.0
H193 H 0.5158 0.70213 0.19522 0.0
C194 C 0.60209 0.67626 0.19119 0.0
O195 O 0.68536 0.75312 0.2018 0.0
O196 O 0.62411 0.76239 0.20652 0.0
N197 N 0.54995 0.78402 0.17204 0.0
C198 C 0.57129 0.80297 0.16558 0.0
C199 C 0.55363 0.83343 0.1606 0.0
C200 C 0.51423 0.84384 0.16229 0.0
C201 C 0.49298 0.82428 0.16904 0.0
C202 C 0.51201 0.79387 0.17372 0.0
H203 H 0.60145 0.79473 0.16418 0.0
O204 O 0.635 0.81498 0.19194 0.0
O205 O 0.58888 0.7718 0.18836 0.0
O206 O 0.66501 0.75067 0.18124 0.0
O207 O 0.61413 0.73238 0.17245 0.0
C208 C 0.45378 0.83384 0.17135 0.0
C209 C 0.43468 0.81345 0.1784 0.0
H210 H 0.40826 0.76882 0.19258 0.0
H211 H 0.44764 0.71706 0.20034 0.0
H212 H 0.57018 0.84858 0.15541 0.0
H213 H 0.50058 0.86664 0.1583 0.0
H214 H 0.43819 0.85707 0.16782 0.0
H215 H 0.40477 0.82151 0.18022 0.0
Mn216 Mn 0.24222 0.12866 0.44053 0.0
Mn217 Mn 0.24965 0.04714 0.42756 0.0
C218 C 0.18556 0.09555 0.43614 0.0
C219 C 0.24423 0.15558 0.45496 0.0
C220 C 0.25963 0.13112 0.42051 0.0
O221 O 0.30025 0.11355 0.44151 0.0
O222 O 0.29892 0.05481 0.43442 0.0
C223 C 0.25454 0.986 0.4418 0.0
N224 N 0.23718 0.00042 0.43422 0.0
C225 C 0.19367 0.94431 0.43332 0.0
C226 C 0.21137 0.92862 0.44107 0.0
C227 C 0.24179 0.94967 0.44535 0.0
C228 C 0.20756 0.98069 0.43011 0.0
H229 H 0.27781 0.00217 0.44513 0.0
C230 C 0.31622 0.08094 0.43922 0.0
O231 O 0.2517 0.17716 0.44792 0.0
O232 O 0.23536 0.1188 0.45357 0.0
N233 N 0.20365 0.03535 0.4206 0.0
C234 C 0.1883 0.05555 0.41348 0.0
C235 C 0.15777 0.03842 0.40842 0.0
C236 C 0.14339 0.00085 0.41075 0.0
C237 C 0.15901 0.98099 0.4182 0.0
C238 C 0.19 -0.00094 0.42286 0.0
H239 H 0.19981 0.08409 0.41155 0.0
O240 O 0.18363 0.13185 0.43896 0.0
O241 O 0.22038 0.07953 0.4362 0.0
O242 O 0.25047 0.14947 0.42771 0.0
O243 O 0.26231 0.09346 0.42001 0.0
C244 C 0.14524 0.94384 0.42115 0.0
C245 C 0.16234 0.92567 0.42875 0.0
H246 H 0.20157 0.90064 0.44384 0.0
H247 H 0.25538 0.93792 0.45138 0.0
H248 H 0.14585 0.05372 0.40263 0.0
H249 H 0.12083 0.98716 0.40667 0.0
H250 H 0.12123 0.9292 0.41768 0.0
H251 H 0.15104 0.89745 0.43105 0.0
Mn252 Mn 0.86285 0.74058 0.69325 0.0
Mn253 Mn 0.93969 0.76899 0.68038 0.0
C254 C 0.90494 0.69361 0.68717 0.0
C255 C 0.83749 0.7292 0.7076 0.0
C256 C 0.85479 0.76754 0.67375 0.0
O257 O 0.86784 0.79939 0.69598 0.0
O258 O 0.9238 0.813 0.68834 0.0
C259 C 0.00049 0.77911 0.6945 0.0
N260 N 0.98826 0.76201 0.68669 0.0
C261 C 0.05079 0.72953 0.68474 0.0
C262 C 0.06421 0.74698 0.69273 0.0
C263 C 0.03879 0.77156 0.69768 0.0
C264 C 0.01211 0.73757 0.68199 0.0
H265 H 0.98126 0.79852 0.69823 0.0
C266 C 0.8959 0.8224 0.69371 0.0
O267 O 0.81432 0.73725 0.70088 0.0
O268 O 0.87503 0.72769 0.70596 0.0
N269 N 0.95846 0.72882 0.67242 0.0
C270 C 0.94024 0.71254 0.66513 0.0
C271 C 0.96105 0.68581 0.65968 0.0
C272 C 0.00057 0.67677 0.66167 0.0
C273 C 0.01874 0.69424 0.66915 0.0
C274 C 0.99638 0.72012 0.67442 0.0
H275 H 0.91008 0.71986 0.66348 0.0
O276 O 0.86989 0.68368 0.6899 0.0
O277 O 0.91451 0.73041 0.68828 0.0
O278 O 0.83924 0.75242 0.68079 0.0
O279 O 0.89135 0.77645 0.67319 0.0
C280 C 0.0583 0.68726 0.67154 0.0
C281 C 0.07428 0.70463 0.67936 0.0
H282 H 0.0939 0.74159 0.69515 0.0
H283 H 0.04888 0.78512 0.70386 0.0
H284 H 0.9468 0.67251 0.65391 0.0
H285 H 0.01665 0.65636 0.65741 0.0
H286 H 0.07666 0.66889 0.66734 0.0
H287 H 0.1047 0.69885 0.68117 0.0
Mn288 Mn 0.75132 0.61967 0.81449 0.0
Mn289 Mn 0.73815 0.54077 0.82813 0.0
C290 C 0.80559 0.58747 0.82045 0.0
C291 C 0.75668 0.64349 0.79981 0.0
C292 C 0.72803 0.62609 0.83423 0.0
O293 O 0.6939 0.60473 0.81234 0.0
O294 O 0.69087 0.54918 0.82062 0.0
C295 C 0.73465 0.47833 0.81419 0.0
N296 N 0.75055 0.49291 0.82192 0.0
C297 C 0.79202 0.43563 0.82361 0.0
C298 C 0.77576 0.41978 0.81573 0.0
C299 C 0.74709 0.44133 0.81097 0.0
C300 C 0.77847 0.47265 0.82649 0.0
H301 H 0.71277 0.49489 0.81048 0.0
C302 C 0.67603 0.57375 0.81503 0.0
O303 O 0.74557 0.6666 0.80633 0.0
O304 O 0.76426 0.60704 0.80184 0.0
N305 N 0.78175 0.528 0.83579 0.0
C306 C 0.79563 0.54812 0.84307 0.0
C307 C 0.82428 0.53046 0.8486 0.0
C308 C 0.83838 0.49245 0.84657 0.0
C309 C 0.82402 0.47251 0.839 0.0
C310 C 0.79476 0.49111 0.83388 0.0
H311 H 0.78436 0.57705 0.84476 0.0
O312 O 0.80877 0.62323 0.81735 0.0
O313 O 0.77093 0.57127 0.81977 0.0
O314 O 0.73796 0.64301 0.82688 0.0
O315 O 0.72558 0.58856 0.83517 0.0
C316 C 0.83744 0.4348 0.83637 0.0
C317 C 0.82167 0.4165 0.82864 0.0
H318 H 0.78537 0.39129 0.81321 0.0
H319 H 0.73463 0.42946 0.80483 0.0
H320 H 0.83505 0.54577 0.8545 0.0
H321 H 0.85988 0.47856 0.85092 0.0
H322 H 0.8602 0.41981 0.84019 0.0
H323 H 0.83268 0.38779 0.8266 0.0
Mn324 Mn 0.37735 0.25942 0.0609 0.0
Mn325 Mn 0.45465 0.27265 0.07486 0.0
C326 C 0.39623 0.32255 0.06495 0.0
C327 C 0.35505 0.25149 0.04614 0.0
C328 C 0.37399 0.24408 0.08101 0.0
O329 O 0.4056 0.20612 0.06072 0.0
O330 O 0.46049 0.22141 0.06857 0.0
C331 C 0.51958 0.27987 0.06164 0.0
N332 N 0.49859 0.29512 0.06864 0.0
C333 C 0.54079 0.3523 0.06937 0.0
C334 C 0.56297 0.33715 0.06219 0.0
C335 C 0.55222 0.30084 0.05829 0.0
C336 C 0.50852 0.33013 0.0724 0.0
H337 H 0.51145 0.25191 0.05865 0.0
C338 C 0.44 0.1978 0.06371 0.0
O339 O 0.33407 0.2392 0.05291 0.0
O340 O 0.38896 0.26719 0.04798 0.0
N341 N 0.45265 0.32164 0.0813 0.0
C342 C 0.42659 0.33342 0.08775 0.0
C343 C 0.43262 0.36953 0.0922 0.0
C344 C 0.4654 0.39308 0.09001 0.0
C345 C 0.49169 0.38047 0.08332 0.0
C346 C 0.48431 0.34408 0.07915 0.0
H347 H 0.40161 0.31527 0.08954 0.0
O348 O 0.36104 0.31629 0.06181 0.0
O349 O 0.41904 0.29188 0.06552 0.0
O350 O 0.35557 0.2484 0.07358 0.0
O351 O 0.41092 0.25027 0.08199 0.0
C352 C 0.52469 0.40276 0.08055 0.0
C353 C 0.54906 0.38882 0.07354 0.0
H354 H 0.58812 0.35326 0.05958 0.0
H355 H 0.5691 0.28903 0.05273 0.0
H356 H 0.41214 0.37909 0.09735 0.0
H357 H 0.46996 0.42088 0.09348 0.0
H358 H 0.53128 0.43092 0.08367 0.0
H359 H 0.57389 0.40658 0.07135 0.0
Mn360 Mn 0.72764 0.8761 0.31418 0.0
Mn361 Mn 0.72723 0.95992 0.32643 0.0
C362 C 0.66854 0.90597 0.31786 0.0
C363 C 0.73234 0.8481 0.29985 0.0
C364 C 0.74344 0.87824 0.33428 0.0
O365 O 0.78451 0.89549 0.31347 0.0
O366 O 0.77776 0.95561 0.31985 0.0
C367 C 0.72779 0.01902 0.31172 0.0
N368 N 0.71084 0.00399 0.31929 0.0
C369 C 0.66075 0.05446 0.31919 0.0
C370 C 0.67798 0.07079 0.31146 0.0
C371 C 0.71151 0.05285 0.30768 0.0
C372 C 0.67825 0.02068 0.32291 0.0
H373 H 0.75341 0.00518 0.30877 0.0
C374 C 0.7976 0.92981 0.31547 0.0
O375 O 0.74078 0.82754 0.307 0.0
O376 O 0.72153 0.88439 0.30109 0.0
N377 N 0.67931 0.96805 0.33301 0.0
C378 C 0.66463 0.94701 0.34008 0.0
C379 C 0.6302 0.96012 0.34442 0.0
C380 C 0.61147 0.99493 0.34151 0.0
C381 C 0.62724 0.01622 0.33425 0.0
C382 C 0.66164 0.00174 0.3302 0.0
H383 H 0.67905 0.92044 0.34241 0.0
O384 O 0.669 0.86919 0.31536 0.0
O385 O 0.7023 0.92383 0.31797 0.0
O386 O 0.73585 0.85789 0.32724 0.0
O387 O 0.74345 0.91609 0.33442 0.0
C388 C 0.60992 0.05099 0.33081 0.0
C389 C 0.62648 0.06992 0.32325 0.0
H390 H 0.66544 0.09681 0.3083 0.0
H391 H 0.72476 0.06505 0.30166 0.0
H392 H 0.61818 0.9435 0.35 0.0
H393 H 0.58488 0.00489 0.34486 0.0
H394 H 0.58352 0.06313 0.33386 0.0
H395 H 0.61239 0.09612 0.32055 0.0
Mn396 Mn 0.13713 0.23346 0.5597 0.0
Mn397 Mn 0.05349 0.23832 0.57198 0.0
C398 C 0.10471 0.17598 0.56366 0.0
C399 C 0.16587 0.23631 0.54546 0.0
C400 C 0.13571 0.25031 0.5798 0.0
O401 O 0.12099 0.29128 0.55878 0.0
O402 O 0.06109 0.28877 0.56543 0.0
C403 C 0.99417 0.2433 0.5574 0.0
N404 N 0.00877 0.22456 0.5648 0.0
C405 C 0.95616 0.17675 0.56451 0.0
C406 C 0.94055 0.19554 0.55688 0.0
C407 C 0.95967 0.22893 0.55331 0.0
C408 C 0.99063 0.19241 0.56829 0.0
H409 H 0.0087 0.26906 0.55466 0.0
C410 C 0.08809 0.30667 0.56101 0.0
O411 O 0.18641 0.24402 0.55265 0.0
O412 O 0.12913 0.22701 0.54662 0.0
N413 N 0.04224 0.19113 0.57862 0.0
C414 C 0.06139 0.17617 0.58593 0.0
C415 C 0.04596 0.14282 0.59034 0.0
C416 C 0.01085 0.12545 0.58724 0.0
C417 C 0.99155 0.14146 0.57973 0.0
C418 C 0.00816 0.17491 0.57566 0.0
H419 H 0.08815 0.18961 0.58841 0.0
O420 O 0.14135 0.17476 0.56113 0.0
O421 O 0.08805 0.21053 0.56357 0.0
O422 O 0.15554 0.24168 0.57275 0.0
O423 O 0.09799 0.25194 0.57997 0.0
C424 C 0.95657 0.12549 0.5761 0.0
C425 C 0.939 0.143 0.56847 0.0
H426 H 0.91395 0.18454 0.5537 0.0
H427 H 0.94778 0.24363 0.54744 0.0
H428 H 0.06101 0.13065 0.59613 0.0
H429 H -0.00103 0.09988 0.59069 0.0
H430 H 0.94308 0.09958 0.5791 0.0
H431 H 0.91232 0.13022 0.5657 0.0
Mn432 Mn 0.75739 0.86593 0.44528 0.0
Mn433 Mn 0.76724 0.94886 0.43297 0.0
C434 C 0.81959 0.88748 0.44117 0.0
C435 C 0.75046 0.83912 0.45965 0.0
C436 C 0.73886 0.87011 0.42538 0.0
O437 O 0.70347 0.89266 0.4462 0.0
O438 O 0.71845 0.95212 0.4402 0.0
C439 C 0.77936 0.00732 0.44753 0.0
N440 N 0.79168 0.99014 0.43975 0.0
C441 C 0.8478 0.03359 0.43887 0.0
C442 C 0.83536 0.0522 0.4468 0.0
C443 C 0.80114 0.0388 0.45119 0.0
C444 C 0.82499 0.00224 0.43557 0.0
H445 H 0.75327 0.9969 0.45095 0.0
C446 C 0.69555 0.9289 0.44456 0.0
O447 O 0.73904 0.81948 0.45259 0.0
O448 O 0.76548 0.87382 0.45832 0.0
N449 N 0.81403 0.9498 0.42574 0.0
C450 C 0.8236 0.92684 0.41853 0.0
C451 C 0.85789 0.93532 0.41358 0.0
C452 C 0.88168 0.96762 0.41602 0.0
C453 C 0.87118 0.99092 0.42344 0.0
C454 C 0.83672 0.98101 0.42812 0.0
H455 H 0.80519 0.90234 0.41653 0.0
O456 O 0.81454 0.85128 0.44382 0.0
O457 O 0.78852 0.90971 0.44123 0.0
O458 O 0.74583 0.84872 0.4323 0.0
O459 O 0.74278 0.90777 0.42529 0.0
C460 C 0.89369 0.02342 0.42642 0.0
C461 C 0.88227 0.04449 0.43418 0.0
H462 H 0.85211 0.07646 0.44964 0.0
H463 H 0.79159 0.0527 0.45737 0.0
H464 H 0.86581 0.91718 0.40787 0.0
H465 H 0.90803 0.97413 0.41217 0.0
H466 H 0.92015 0.03213 0.42285 0.0
H467 H 0.90037 0.06881 0.43651 0.0
Mn468 Mn 0.11722 0.2578 0.68893 0.0
Mn469 Mn 0.04019 0.26102 0.6747 0.0
C470 C 0.09188 0.31838 0.68441 0.0
C471 C 0.13968 0.25228 0.7037 0.0
C472 C 0.12365 0.23938 0.66905 0.0
O473 O 0.09462 0.20179 0.68934 0.0
O474 O 0.03789 0.21152 0.68173 0.0
C475 C 0.97281 0.26567 0.68732 0.0
N476 N 0.99407 0.28149 0.68042 0.0
C477 C 0.94611 0.33301 0.67822 0.0
C478 C 0.92355 0.31717 0.68527 0.0
C479 C 0.93719 0.28361 0.6899 0.0
C480 C 0.98183 0.31447 0.6761 0.0
H481 H 0.98276 0.23931 0.69075 0.0
C482 C 0.06053 0.19047 0.6867 0.0
O483 O 0.16214 0.24277 0.69696 0.0
O484 O 0.1044 0.26467 0.70185 0.0
N485 N 0.03902 0.30812 0.66756 0.0
C486 C 0.06366 0.3191 0.66075 0.0
C487 C 0.05481 0.35285 0.65562 0.0
C488 C 0.02025 0.37441 0.6574 0.0
C489 C 0.99486 0.36197 0.66429 0.0
C490 C 0.00557 0.32853 0.66928 0.0
H491 H 0.08984 0.30226 0.65921 0.0
O492 O 0.12713 0.31613 0.68779 0.0
O493 O 0.07265 0.28538 0.68398 0.0
O494 O 0.14092 0.2481 0.67642 0.0
O495 O 0.08621 0.24036 0.66806 0.0
C496 C 0.95881 0.38081 0.66622 0.0
C497 C 0.93419 0.36593 0.67308 0.0
H498 H 0.89566 0.33041 0.68716 0.0
H499 H 0.91996 0.27122 0.69535 0.0
H500 H 0.07437 0.36199 0.65025 0.0
H501 H 0.01329 0.40017 0.65336 0.0
H502 H 0.94939 0.40637 0.66238 0.0
H503 H 0.90593 0.37981 0.67426 0.0
Mn504 Mn 0.74025 0.61455 0.94302 0.0
Mn505 Mn 0.72287 0.53603 0.92958 0.0
C506 C 0.67667 0.60016 0.93845 0.0
C507 C 0.74683 0.63913 0.95761 0.0
C508 C 0.7579 0.61366 0.92293 0.0
O509 O 0.79093 0.58224 0.94404 0.0
O510 O 0.77301 0.52817 0.93616 0.0
C511 C 0.71064 0.47476 0.94355 0.0
N512 N 0.69733 0.4949 0.93621 0.0
C513 C 0.63753 0.4565 0.93583 0.0
C514 C 0.6507 0.43517 0.94335 0.0
C515 C 0.68735 0.44445 0.94724 0.0
C516 C 0.66196 0.48647 0.93247 0.0
H517 H 0.73877 0.48182 0.94656 0.0
C518 C 0.79712 0.54711 0.9412 0.0
O519 O 0.76241 0.65764 0.95081 0.0
O520 O 0.72887 0.60616 0.95592 0.0
N521 N 0.67471 0.53941 0.92287 0.0
C522 C 0.66561 0.56374 0.91586 0.0
C523 C 0.62974 0.55854 0.91127 0.0
C524 C 0.60371 0.52835 0.9139 0.0
C525 C 0.61378 0.50356 0.9211 0.0
C526 C 0.65011 0.50984 0.92536 0.0
H527 H 0.68566 0.58674 0.91373 0.0
O528 O 0.68529 0.63534 0.94132 0.0
O529 O 0.70528 0.57475 0.93843 0.0
O530 O 0.75549 0.63292 0.93031 0.0
O531 O 0.74819 0.57725 0.92215 0.0
C532 C 0.58913 0.47293 0.92424 0.0
C533 C 0.60086 0.44961 0.93164 0.0
H534 H 0.63281 0.41182 0.94622 0.0
H535 H 0.69764 0.42826 0.95307 0.0
H536 H 0.62226 0.57748 0.90566 0.0
H537 H 0.57612 0.52444 0.91032 0.0
H538 H 0.56089 0.46735 0.92107 0.0
H539 H 0.58136 0.42659 0.93408 0.0
Mn540 Mn 0.37397 0.23781 0.19379 0.0
Mn541 Mn 0.45519 0.22076 0.18121 0.0
C542 C 0.39305 0.17364 0.19077 0.0
C543 C 0.34681 0.25019 0.20793 0.0
C544 C 0.37697 0.24845 0.17348 0.0
O545 O 0.40288 0.29075 0.1939 0.0
O546 O 0.45941 0.27365 0.18685 0.0
C547 C 0.51554 0.21659 0.19558 0.0
N548 N 0.49689 0.19977 0.18843 0.0
C549 C 0.53878 0.14235 0.18914 0.0
C550 C 0.55858 0.15913 0.1965 0.0
C551 C 0.54681 0.19634 0.19975 0.0
C552 C 0.50778 0.16386 0.18529 0.0
H553 H 0.50659 0.24522 0.19808 0.0
C554 C 0.43783 0.29828 0.19116 0.0
O555 O 0.32841 0.26048 0.20062 0.0
O556 O 0.38089 0.23329 0.20698 0.0
N557 N 0.45504 0.17033 0.17537 0.0
C558 C 0.43153 0.1574 0.16854 0.0
C559 C 0.43905 0.12047 0.16458 0.0
C560 C 0.47081 0.09738 0.16762 0.0
C561 C 0.49449 0.1112 0.17469 0.0
C562 C 0.4858 0.14841 0.17832 0.0
H563 H 0.40737 0.17521 0.16608 0.0
O564 O 0.35709 0.1811 0.19325 0.0
O565 O 0.41664 0.2038 0.19024 0.0
O566 O 0.35646 0.24628 0.18067 0.0
O567 O 0.41396 0.24146 0.17313 0.0
C568 C 0.52617 0.0894 0.17832 0.0
C569 C 0.54815 0.10486 0.18558 0.0
H570 H 0.58266 0.14359 0.19974 0.0
H571 H 0.56184 0.2094 0.20544 0.0
H572 H 0.42057 0.10994 0.15914 0.0
H573 H 0.47669 0.06906 0.16449 0.0
H574 H 0.53353 0.06049 0.17567 0.0
H575 H 0.57199 0.08754 0.18842 0.0
H576 H 0.82452 0.00471 0.31307 0.0
H577 H 0.88983 0.02559 0.30827 0.0
H578 H 0.92586 0.90369 0.30586 0.0
H579 H 0.85964 0.88216 0.31054 0.0
H580 H 0.97458 0.95195 0.31688 0.0
H581 H 0.92084 0.95238 0.28747 0.0
H582 H 0.87196 0.96643 0.27561 0.0
H583 H 0.88859 0.09119 0.27946 0.0
H584 H 0.9371 0.07794 0.29146 0.0
H585 H 0.16208 0.00947 0.3052 0.0
H586 H 0.09786 0.98086 0.30198 0.0
H587 H 0.04366 0.09552 0.30502 0.0
H588 H 0.10879 0.12492 0.30804 0.0
H589 H 0.0059 0.0442 0.29185 0.0
H590 H 0.05009 0.04325 0.32279 0.0
H591 H 0.0982 0.03019 0.33489 0.0
H592 H 0.09747 0.90649 0.32833 0.0
H593 H 0.04982 0.91896 0.31609 0.0
C594 C 0.84609 0.98218 0.31145 0.0
C595 C 0.83703 0.94172 0.31225 0.0
C596 C 0.8833 0.99424 0.30862 0.0
C597 C 0.91235 0.96616 0.30663 0.0
C598 C 0.9035 0.9257 0.3073 0.0
C599 C 0.86584 0.91351 0.30999 0.0
C600 C 0.95291 0.97976 0.30482 0.0
C601 C 0.98174 0.97127 0.31127 0.0
C602 C 0.96161 0.0059 0.29765 0.0
C603 C 0.93246 0.01414 0.29042 0.0
C604 C 0.91384 0.98283 0.28585 0.0
C605 C 0.88624 0.99065 0.27909 0.0
C606 C 0.87714 0.02967 0.27679 0.0
C607 C 0.89567 0.06097 0.28125 0.0
C608 C 0.92327 0.05332 0.28803 0.0
C609 C 0.13674 0.02891 0.30494 0.0
C610 C 0.14022 0.0693 0.30703 0.0
C611 C 0.10008 0.01248 0.30307 0.0
C612 C 0.06612 0.03597 0.30344 0.0
C613 C 0.06971 0.077 0.30472 0.0
C614 C 0.10677 0.09369 0.30648 0.0
C615 C 0.02719 0.01658 0.30396 0.0
C616 C -0.0012 0.02423 0.29733 0.0
C617 C 0.01859 0.98977 0.31102 0.0
C618 C 0.04676 0.9821 0.31846 0.0
C619 C 0.06043 0.01331 0.32389 0.0
C620 C 0.08758 0.00602 0.33077 0.0
C621 C 0.10097 0.96755 0.33236 0.0
C622 C 0.08713 0.93628 0.32708 0.0
C623 C 0.06005 0.94344 0.32017 0.0
H624 H 0.122 0.96195 0.33769 0.0
H625 H 0.85577 0.03567 0.27155 0.0
H626 H 0.9582 0.62674 0.578 0.0
H627 H 0.98639 0.56412 0.57317 0.0
H628 H 0.92013 0.57021 0.54844 0.0
H629 H 0.89137 0.63363 0.55326 0.0
H630 H 0.92679 0.49099 0.55702 0.0
H631 H 0.00744 0.59758 0.54653 0.0
H632 H 0.04238 0.66123 0.54798 0.0
H633 H 0.11632 0.61209 0.56861 0.0
H634 H 0.08131 0.54836 0.56742 0.0
H635 H 0.05056 0.33031 0.54592 0.0
H636 H 0.02187 0.39599 0.54321 0.0
H637 H 0.07503 0.43839 0.56778 0.0
H638 H 0.10409 0.373 0.57037 0.0
H639 H 0.07305 0.49588 0.55485 0.0
H640 H 0.98426 0.39776 0.5679 0.0
H641 H 0.95003 0.33335 0.56755 0.0
H642 H 0.89174 0.3664 0.54302 0.0
H643 H 0.92628 0.43074 0.54314 0.0
C644 C 0.94906 0.6146 0.57158 0.0
C645 C 0.923 0.63537 0.56594 0.0
C646 C 0.96522 0.57881 0.56884 0.0
C647 C 0.95592 0.56314 0.56039 0.0
C648 C 0.92778 0.58215 0.55497 0.0
C649 C 0.91135 0.61821 0.55774 0.0
C650 C 0.9782 0.52844 0.55714 0.0
C651 C 0.95863 0.49213 0.55628 0.0
C652 C 0.01979 0.5301 0.5563 0.0
C653 C 0.04163 0.56816 0.55689 0.0
C654 C 0.03101 0.60038 0.55141 0.0
C655 C 0.05083 0.6365 0.55219 0.0
C656 C 0.08155 0.6407 0.55839 0.0
C657 C 0.09254 0.60878 0.56381 0.0
C658 C 0.07275 0.57263 0.56307 0.0
C659 C 0.05717 0.35423 0.55052 0.0
C660 C 0.07957 0.34724 0.55829 0.0
C661 C 0.04069 0.39151 0.54901 0.0
C662 C 0.04594 0.42181 0.55536 0.0
C663 C 0.07076 0.41543 0.56279 0.0
C664 C 0.08733 0.37823 0.56427 0.0
C665 C 0.02182 0.45824 0.55501 0.0
C666 C 0.04109 0.49489 0.55525 0.0
C667 C 0.98002 0.45683 0.55536 0.0
C668 C 0.95815 0.41883 0.55547 0.0
C669 C 0.96425 0.39121 0.56241 0.0
C670 C 0.94484 0.35471 0.56226 0.0
C671 C 0.91881 0.34574 0.55526 0.0
C672 C 0.91198 0.37335 0.54843 0.0
C673 C 0.93148 0.40983 0.54853 0.0
H674 H 0.90388 0.31743 0.55513 0.0
H675 H 0.09691 0.66865 0.55898 0.0
H676 H 0.64049 0.50185 0.81518 0.0
H677 H 0.57643 0.484 0.80918 0.0
H678 H 0.55847 0.60395 0.80016 0.0
H679 H 0.62372 0.62238 0.80612 0.0
H680 H 0.49712 0.57225 0.81084 0.0
H681 H 0.56731 0.53732 0.78449 0.0
H682 H 0.62136 0.50804 0.77562 0.0
H683 H 0.59045 0.39241 0.78528 0.0
H684 H 0.53658 0.42101 0.79432 0.0
H685 H 0.311 0.49747 0.80117 0.0
H686 H 0.37396 0.52762 0.79716 0.0
H687 H 0.43421 0.41972 0.80442 0.0
H688 H 0.37065 0.38871 0.80804 0.0
H689 H 0.47225 0.45714 0.7909 0.0
H690 H 0.41766 0.49277 0.81998 0.0
H691 H 0.36614 0.51927 0.83004 0.0
H692 H 0.37104 0.63103 0.81633 0.0
H693 H 0.42225 0.60495 0.80611 0.0
C694 C 0.62324 0.52459 0.81188 0.0
C695 C 0.63712 0.56369 0.81119 0.0
C696 C 0.58674 0.51414 0.80836 0.0
C697 C 0.56312 0.5425 0.80411 0.0
C698 C 0.57668 0.5816 0.80334 0.0
C699 C 0.61375 0.59207 0.80676 0.0
C700 C 0.52272 0.53131 0.80142 0.0
C701 C 0.4914 0.54799 0.80624 0.0
C702 C 0.51572 0.49893 0.79561 0.0
C703 C 0.54788 0.48139 0.79011 0.0
C704 C 0.57215 0.50567 0.78477 0.0
C705 C 0.60276 0.48918 0.7797 0.0
C706 C 0.60934 0.4484 0.77989 0.0
C707 C 0.58528 0.424 0.78513 0.0
C708 C 0.55464 0.44033 0.79022 0.0
C709 C 0.33758 0.47988 0.8017 0.0
C710 C 0.33624 0.44106 0.80506 0.0
C711 C 0.37349 0.49712 0.79941 0.0
C712 C 0.40877 0.47626 0.80072 0.0
C713 C 0.40726 0.43638 0.80339 0.0
C714 C 0.37108 0.41874 0.80549 0.0
C715 C 0.447 0.49736 0.80053 0.0
C716 C 0.47777 0.48236 0.79523 0.0
C717 C 0.45379 0.53096 0.80602 0.0
C718 C 0.42337 0.54679 0.81222 0.0
C719 C 0.40756 0.52292 0.81908 0.0
C720 C 0.37844 0.53785 0.82481 0.0
C721 C 0.36523 0.57677 0.82381 0.0
C722 C 0.38123 0.60086 0.81709 0.0
C723 C 0.41029 0.58603 0.81133 0.0
H724 H 0.34268 0.58828 0.82825 0.0
H725 H 0.63307 0.43569 0.77596 0.0
H726 H 0.40931 0.13832 0.05318 0.0
H727 H 0.43953 0.0742 0.04981 0.0
H728 H 0.5412 0.10583 0.06574 0.0
H729 H 0.5119 0.16979 0.069 0.0
H730 H 0.56347 0.06843 0.05066 0.0
H731 H 0.46741 0.0491 0.07442 0.0
H732 H 0.401 0.05182 0.08119 0.0
H733 H 0.35576 0.97802 0.06007 0.0
H734 H 0.42186 0.97531 0.05311 0.0
H735 H 0.63848 0.886 0.06786 0.0
H736 H 0.61422 0.95254 0.06416 0.0
H737 H 0.5218 0.90119 0.04793 0.0
H738 H 0.54582 0.83502 0.0517 0.0
H739 H 0.49241 0.94781 0.0606 0.0
H740 H 0.5928 0.95855 0.03832 0.0
H741 H 0.6602 0.95503 0.03213 0.0
H742 H 0.69871 0.04377 0.05083 0.0
H743 H 0.63165 0.04742 0.05723 0.0
C744 C 0.43815 0.13168 0.05593 0.0
C745 C 0.45793 0.15912 0.06144 0.0
C746 C 0.45539 0.09507 0.05399 0.0
C747 C 0.49249 0.08521 0.05758 0.0
C748 C 0.51264 0.11289 0.06287 0.0
C749 C 0.49559 0.1494 0.06479 0.0
C750 C 0.50964 0.04532 0.05633 0.0
C751 C 0.54805 0.04198 0.05285 0.0
C752 C 0.48912 0.01084 0.059 0.0
C753 C 0.44942 0.01242 0.06318 0.0
C754 C 0.44322 0.03373 0.07118 0.0
C755 C 0.40566 0.03522 0.07506 0.0
C756 C 0.37415 0.01522 0.07105 0.0
C757 C 0.38017 0.99358 0.06316 0.0
C758 C 0.41767 0.99205 0.05924 0.0
C759 C 0.61386 0.88922 0.06327 0.0
C760 C 0.59377 0.85584 0.06007 0.0
C761 C 0.60001 0.92708 0.06115 0.0
C762 C 0.56613 0.93175 0.05578 0.0
C763 C 0.54786 0.89823 0.0521 0.0
C764 C 0.56155 0.86054 0.05425 0.0
C765 C 0.54658 0.97079 0.05505 0.0
C766 C 0.50768 0.97402 0.05821 0.0
C767 C 0.5668 0.00507 0.05214 0.0
C768 C 0.6072 0.00305 0.0483 0.0
C769 C 0.6157 0.9771 0.04116 0.0
C770 C 0.65384 0.97512 0.03761 0.0
C771 C 0.68373 -0.00089 0.04109 0.0
C772 C 0.67552 0.02519 0.04814 0.0
C773 C 0.63743 0.02727 0.05172 0.0
H774 H 0.71325 0.99754 0.03833 0.0
H775 H 0.3451 0.01639 0.07406 0.0
H776 H 0.15021 0.46705 0.94716 0.0
H777 H 0.08142 0.47993 0.95086 0.0
H778 H 0.0518 0.35918 0.94434 0.0
H779 H 0.12154 0.34581 0.94078 0.0
H780 H 0.0111 0.41764 0.93436 0.0
H781 H 0.03641 0.38655 0.96493 0.0
H782 H 0.0722 0.38776 0.97936 0.0
H783 H 0.05249 0.51285 0.98153 0.0
H784 H 0.0171 0.51256 0.96703 0.0
H785 H 0.81241 0.46827 0.93991 0.0
H786 H 0.87446 0.43434 0.94275 0.0
H787 H 0.92761 0.54436 0.95107 0.0
H788 H 0.86501 0.57884 0.94835 0.0
H789 H 0.95261 0.48055 0.96142 0.0
H790 H 0.93986 0.51439 0.93013 0.0
H791 H 0.90695 0.51664 0.91535 0.0
H792 H 0.90682 0.38971 0.91422 0.0
H793 H 0.93923 0.38672 0.92908 0.0
C794 C 0.12926 0.44296 0.94672 0.0
C795 C 0.14097 0.40553 0.94363 0.0
C796 C 0.09002 0.45028 0.94891 0.0
C797 C 0.06165 0.42046 0.94791 0.0
C798 C 0.07347 0.38243 0.94521 0.0
C799 C 0.11313 0.37483 0.9432 0.0
C800 C 0.01948 0.4313 0.94838 0.0
C801 C -0.00217 0.43029 0.94035 0.0
C802 C 0.00296 0.44912 0.95612 0.0
C803 C 0.02425 0.44955 0.96485 0.0
C804 C 0.03997 0.4144 0.96844 0.0
C805 C 0.06014 0.4149 0.97664 0.0
C806 C 0.06466 0.45037 0.98135 0.0
C807 C 0.04896 0.4854 0.97787 0.0
C808 C 0.02878 0.48506 0.96967 0.0
C809 C 0.83713 0.48538 0.9424 0.0
C810 C 0.83397 0.52648 0.94374 0.0
C811 C 0.87254 0.46582 0.94405 0.0
C812 C 0.9057 0.48695 0.94698 0.0
C813 C 0.90226 0.52758 0.94879 0.0
C814 C 0.86659 0.54725 0.94719 0.0
C815 C 0.94461 0.46722 0.94738 0.0
C816 C 0.96558 0.46692 0.95551 0.0
C817 C 0.96092 0.44862 0.9397 0.0
C818 C 0.9415 0.45032 0.93076 0.0
C819 C 0.93249 0.48696 0.92677 0.0
C820 C 0.91399 0.48837 0.91837 0.0
C821 C 0.90468 0.45334 0.91386 0.0
C822 C 0.91396 0.41682 0.91773 0.0
C823 C 0.9324 0.41524 0.92614 0.0
H824 H 0.89038 0.45449 0.90735 0.0
H825 H 0.08028 0.4507 0.9877 0.0
H826 H 0.42994 0.34298 0.20641 0.0
H827 H 0.46507 0.40456 0.20999 0.0
H828 H 0.5191 0.40278 0.18367 0.0
H829 H 0.48592 0.3406 0.18033 0.0
H830 H 0.57217 0.42012 0.19509 0.0
H831 H 0.43697 0.46531 0.19024 0.0
H832 H 0.36552 0.46741 0.19343 0.0
H833 H 0.38933 0.50242 0.22066 0.0
H834 H 0.46097 0.50014 0.21764 0.0
H835 H 0.59475 0.61485 0.17982 0.0
H836 H 0.57588 0.54704 0.1836 0.0
H837 H 0.57823 0.57636 0.21183 0.0
H838 H 0.59848 0.64445 0.20804 0.0
H839 H 0.50356 0.54319 0.20429 0.0
H840 H 0.64053 0.51353 0.20678 0.0
H841 H 0.71047 0.51475 0.20221 0.0
H842 H 0.68157 0.45317 0.17783 0.0
H843 H 0.61135 0.45208 0.18219 0.0
C844 C 0.4491 0.35611 0.2014 0.0
C845 C 0.45528 0.33724 0.1931 0.0
C846 C 0.46916 0.39122 0.20343 0.0
C847 C 0.49472 0.40849 0.19709 0.0
C848 C 0.49997 0.38992 0.18873 0.0
C849 C 0.48078 0.35452 0.18679 0.0
C850 C 0.51642 0.44578 0.19898 0.0
C851 C 0.55708 0.44701 0.1971 0.0
C852 C 0.49724 0.48063 0.20196 0.0
C853 C 0.45425 0.48205 0.20375 0.0
C854 C 0.42694 0.47318 0.19692 0.0
C855 C 0.38643 0.47446 0.1987 0.0
C856 C 0.3729 0.4849 0.20725 0.0
C857 C 0.39985 0.49423 0.21404 0.0
C858 C 0.4404 0.49298 0.21231 0.0
C859 C 0.59236 0.60644 0.18683 0.0
C860 C 0.59825 0.63444 0.19365 0.0
C861 C 0.58159 0.56784 0.18898 0.0
C862 C 0.57578 0.55684 0.19798 0.0
C863 C 0.58286 0.5844 0.20485 0.0
C864 C 0.59461 0.623 0.2027 0.0
C865 C 0.5585 0.51765 0.19992 0.0
C866 C 0.51877 0.51601 0.20254 0.0
C867 C 0.57828 0.48258 0.19744 0.0
C868 C 0.62059 0.48283 0.19481 0.0
C869 C 0.64903 0.50046 0.20042 0.0
C870 C 0.68875 0.5011 0.19787 0.0
C871 C 0.70045 0.48407 0.18974 0.0
C872 C 0.67246 0.46631 0.18414 0.0
C873 C 0.6327 0.46561 0.18665 0.0
H874 H 0.73122 0.48461 0.18777 0.0
H875 H 0.34152 0.48586 0.20861 0.0
H876 H 0.34889 0.00788 0.44038 0.0
H877 H 0.41437 0.99032 0.4456 0.0
H878 H 0.43977 0.1131 0.45096 0.0
H879 H 0.37316 0.13128 0.44581 0.0
H880 H 0.49521 0.07306 0.43986 0.0
H881 H 0.43449 0.05627 0.46828 0.0
H882 H 0.38316 0.03433 0.47891 0.0
H883 H 0.40786 0.91308 0.47245 0.0
H884 H 0.45881 0.93423 0.46163 0.0
H885 H 0.68316 0.00447 0.44987 0.0
H886 H 0.62039 0.03606 0.45324 0.0
H887 H 0.56053 0.92447 0.44969 0.0
H888 H 0.62403 0.89208 0.44664 0.0
H889 H 0.52511 0.97007 0.4627 0.0
H890 H 0.57138 0.98639 0.43213 0.0
H891 H 0.6197 0.00545 0.4205 0.0
H892 H 0.6187 0.12508 0.43021 0.0
H893 H 0.57074 0.10654 0.44198 0.0
C894 C 0.3681 0.03132 0.44272 0.0
C895 C 0.35592 0.07109 0.44261 0.0
C896 C 0.40542 0.02109 0.4458 0.0
C897 C 0.43154 0.05036 0.44877 0.0
C898 C 0.41965 0.09013 0.44877 0.0
C899 C 0.3818 0.10044 0.4458 0.0
C900 C 0.47243 0.03893 0.45093 0.0
C901 C 0.50212 0.05152 0.44504 0.0
C902 C 0.48082 0.00992 0.45752 0.0
C903 C 0.45046 0.9969 0.4641 0.0
C904 C 0.42883 0.02492 0.46907 0.0
C905 C 0.39981 0.01262 0.47514 0.0
C906 C 0.39227 0.97235 0.47636 0.0
C907 C 0.41377 0.94427 0.47151 0.0
C908 C 0.44277 0.95641 0.46541 0.0
C909 C 0.65678 0.98642 0.44998 0.0
C910 C 0.65827 0.94596 0.44783 0.0
C911 C 0.62096 0.00454 0.45193 0.0
C912 C 0.58583 0.98278 0.45151 0.0
C913 C 0.58742 0.94176 0.45001 0.0
C914 C 0.62356 0.92335 0.44823 0.0
C915 C 0.54752 0.00363 0.45149 0.0
C916 C 0.51844 0.99257 0.45772 0.0
C917 C 0.53935 0.03372 0.44512 0.0
C918 C 0.56788 0.04499 0.438 0.0
C919 C 0.58169 0.01669 0.43182 0.0
C920 C 0.60897 0.0274 0.4252 0.0
C921 C 0.62236 0.06643 0.42463 0.0
C922 C 0.60837 0.09485 0.43067 0.0
C923 C 0.58114 0.08426 0.43731 0.0
H924 H 0.64349 0.07467 0.4195 0.0
H925 H 0.36978 0.96289 0.48106 0.0
H926 H 0.99129 0.15585 0.68177 0.0
H927 H 0.96222 0.09551 0.68756 0.0
H928 H 0.06319 0.07746 0.70475 0.0
H929 H 0.09314 0.13849 0.69893 0.0
H930 H 0.04083 0.0103 0.69569 0.0
H931 H 0.97837 0.10523 0.71425 0.0
H932 H 0.94404 0.16756 0.71781 0.0
H933 H 0.84532 0.13168 0.70163 0.0
H934 H 0.8793 0.06938 0.69785 0.0
H935 H 0.93791 0.8409 0.70845 0.0
H936 H 0.96304 0.90696 0.71208 0.0
H937 H 0.88873 0.9571 0.69145 0.0
H938 H 0.86398 0.8909 0.68775 0.0
H939 H 0.90236 0.00862 0.70666 0.0
H940 H 0.97228 0.92512 0.68519 0.0
H941 H 0.00731 0.86475 0.68039 0.0
H942 H 0.09235 0.88113 0.70148 0.0
H943 H 0.05728 0.94123 0.70652 0.0
C944 C 0.00758 0.13926 0.68678 0.0
C945 C 0.04462 0.15219 0.6899 0.0
C946 C 0.99063 0.10485 0.69014 0.0
C947 C 0.0101 0.0826 0.69674 0.0
C948 C 0.04752 0.09462 0.69974 0.0
C949 C 0.06463 0.12933 0.69637 0.0
C950 C 0.99159 0.04574 0.70003 0.0
C951 C 0.01104 0.00993 0.69837 0.0
C952 C 0.95245 0.04541 0.70338 0.0
C953 C 0.9315 0.0826 0.70575 0.0
C954 C 0.94943 0.11069 0.71141 0.0
C955 C 0.93002 0.14603 0.71347 0.0
C956 C 0.89254 0.15359 0.70994 0.0
C957 C 0.87435 0.12577 0.70437 0.0
C958 C 0.89365 0.09039 0.70228 0.0
C959 C 0.92567 0.86634 0.705 0.0
C960 C 0.89901 0.86132 0.69788 0.0
C961 C 0.94007 0.90392 0.70706 0.0
C962 C 0.928 0.93667 0.70196 0.0
C963 C 0.89818 0.93213 0.69548 0.0
C964 C 0.88399 0.89446 0.69338 0.0
C965 C 0.95134 0.97351 0.70209 0.0
C966 C 0.93269 0.00915 0.70432 0.0
C967 C 0.99121 0.9738 0.69922 0.0
C968 C 0.01189 0.93734 0.6963 0.0
C969 C -0.00183 0.91558 0.68887 0.0
C970 C 0.01808 0.8815 0.68609 0.0
C971 C 0.05207 0.86919 0.69062 0.0
C972 C 0.06603 0.89074 0.69798 0.0
C973 C 0.04612 0.92478 0.70081 0.0
H974 H 0.06768 0.84303 0.6884 0.0
H975 H 0.87757 0.18099 0.71154 0.0
H976 H 0.60337 0.89258 0.32818 0.0
H977 H 0.54224 0.93206 0.32828 0.0
H978 H 0.59054 0.00769 0.30761 0.0
H979 H 0.65072 0.96793 0.30739 0.0
H980 H 0.53176 0.01082 0.33204 0.0
H981 H 0.51837 0.03873 0.29397 0.0
H982 H 0.53551 0.00634 0.27962 0.0
H983 H 0.52857 0.89244 0.29232 0.0
H984 H 0.5109 0.9241 0.30671 0.0
H985 H 0.36726 0.14548 0.32557 0.0
H986 H 0.43354 0.11674 0.32596 0.0
H987 H 0.39104 0.01643 0.31071 0.0
H988 H 0.32801 0.04903 0.30894 0.0
H989 H 0.45324 0.0319 0.30434 0.0
H990 H 0.43325 0.01432 0.33988 0.0
H991 H 0.42216 0.04725 0.35459 0.0
H992 H 0.5008 0.14087 0.34693 0.0
H993 H 0.51264 0.10817 0.33232 0.0
C994 C 0.60051 0.91755 0.32366 0.0
C995 C 0.6316 0.92815 0.31794 0.0
C996 C 0.56593 0.94008 0.32374 0.0
C997 C 0.562 0.9727 0.31794 0.0
C998 C 0.59285 0.98245 0.31207 0.0
C999 C 0.62723 0.96001 0.312 0.0
C1000 C 0.52569 0.99675 0.318 0.0
C1001 C 0.51429 0.01521 0.32601 0.0
C1002 C 0.50364 0.00327 0.31008 0.0
C1003 C 0.5137 0.98384 0.30143 0.0
C1004 C 0.52036 0.00676 0.29369 0.0
C1005 C 0.53019 0.98854 0.28555 0.0
C1006 C 0.53325 0.94737 0.28507 0.0
C1007 C 0.52634 0.92433 0.29271 0.0
C1008 C 0.51646 0.9424 0.30086 0.0
C1009 C 0.37244 0.11713 0.32238 0.0
C1010 C 0.342 0.098 0.31769 0.0
C1011 C 0.41019 0.10023 0.32275 0.0
C1012 C 0.41757 0.06337 0.31867 0.0
C1013 C 0.38668 0.04471 0.31399 0.0
C1014 C 0.35002 0.06267 0.3132 0.0
C1015 C 0.45733 0.0445 0.31857 0.0
C1016 C 0.47022 0.02745 0.31044 0.0
C1017 C 0.48091 0.03958 0.32637 0.0
C1018 C 0.47257 0.05963 0.33496 0.0
C1019 C 0.44745 0.04228 0.34132 0.0
C1020 C 0.4413 0.06071 0.34963 0.0
C1021 C 0.4602 0.09641 0.35161 0.0
C1022 C 0.48583 0.11344 0.34535 0.0
C1023 C 0.4924 0.09491 0.33709 0.0
H1024 H 0.45529 0.11065 0.35804 0.0
H1025 H 0.54091 0.93332 0.27876 0.0
H1026 H 0.96906 0.82521 0.56346 0.0
H1027 H 0.0037 0.8882 0.564 0.0
H1028 H 0.9002 0.94245 0.5757 0.0
H1029 H 0.86841 0.8777 0.57648 0.0
H1030 H 0.99245 0.94752 0.55541 0.0
H1031 H 0.91064 0.02722 0.58187 0.0
H1032 H 0.87749 0.02027 0.59658 0.0
H1033 H 0.96316 0.93379 0.60465 0.0
H1034 H 0.99662 0.94014 0.58984 0.0
H1035 H 0.04127 0.15363 0.55394 0.0
H1036 H 0.00388 0.0917 0.55527 0.0
H1037 H 0.08163 0.05347 0.57656 0.0
H1038 H 0.11928 0.1154 0.57516 0.0
H1039 H -0.00095 0.04463 0.5803 0.0
H1040 H 0.09442 0.01487 0.55698 0.0
H1041 H 0.1281 0.02687 0.54253 0.0
H1042 H 0.01745 0.01785 0.52859 0.0
H1043 H 0.98303 0.00634 0.54298 0.0
C1044 C 0.95496 0.85006 0.56673 0.0
C1045 C 0.91736 0.84608 0.57052 0.0
C1046 C 0.97422 0.88649 0.5668 0.0
C1047 C 0.95518 0.92055 0.57008 0.0
C1048 C 0.91671 0.91678 0.57355 0.0
C1049 C 0.89821 0.87978 0.57388 0.0
C1050 C 0.9748 0.95985 0.56911 0.0
C1051 C 0.99387 0.9685 0.56092 0.0
C1052 C 0.97589 0.98844 0.57608 0.0
C1053 C 0.9554 0.98326 0.58475 0.0
C1054 C 0.92212 0.00643 0.58676 0.0
C1055 C 0.9033 0.00261 0.59508 0.0
C1056 C 0.91798 0.97618 0.60149 0.0
C1057 C 0.95155 0.95366 0.59959 0.0
C1058 C 0.97025 0.95712 0.59124 0.0
C1059 C 0.05008 0.13198 0.55893 0.0
C1060 C 0.08223 0.13929 0.56463 0.0
C1061 C 0.02897 0.09669 0.55964 0.0
C1062 C 0.04002 0.06824 0.56603 0.0
C1063 C 0.0726 0.0753 0.57164 0.0
C1064 C 0.09403 0.11042 0.57084 0.0
C1065 C 0.01765 0.03095 0.56685 0.0
C1066 C 0.99762 0.02328 0.57489 0.0
C1067 C 0.01542 0.00351 0.55972 0.0
C1068 C 0.03611 0.01013 0.55106 0.0
C1069 C 0.07723 0.01576 0.55084 0.0
C1070 C 0.09647 0.02242 0.54266 0.0
C1071 C 0.07492 0.02323 0.53465 0.0
C1072 C 0.0341 0.01727 0.5348 0.0
C1073 C 0.01472 0.01064 0.54297 0.0
H1074 H 0.08986 0.02839 0.52832 0.0
H1075 H 0.90353 0.97339 0.60795 0.0
H1076 H 0.12055 0.3677 0.82696 0.0
H1077 H 0.05583 0.39899 0.82959 0.0
H1078 H 0.07922 0.48168 0.8081 0.0
H1079 H 0.14309 0.45021 0.80542 0.0
H1080 H 0.03596 0.47748 0.83398 0.0
H1081 H 0.99694 0.49594 0.79643 0.0
H1082 H 0.00985 0.46274 0.78195 0.0
H1083 H 0.02542 0.35196 0.79564 0.0
H1084 H 0.01206 0.38438 0.81018 0.0
H1085 H 0.87267 0.61144 0.82896 0.0
H1086 H 0.93576 0.57644 0.82932 0.0
H1087 H 0.8809 0.47582 0.81641 0.0
H1088 H 0.82104 0.51413 0.81447 0.0
H1089 H 0.94097 0.48543 0.80868 0.0
H1090 H 0.92366 0.48155 0.84231 0.0
H1091 H 0.91299 0.51512 0.85695 0.0
H1092 H 0.00858 0.59451 0.85132 0.0
H1093 H 0.01987 0.56146 0.83675 0.0
C1094 C 0.11154 0.39255 0.82284 0.0
C1095 C 0.13663 0.40739 0.81615 0.0
C1096 C 0.07495 0.41046 0.82437 0.0
C1097 C 0.06294 0.44258 0.81904 0.0
C1098 C 0.08792 0.4568 0.81225 0.0
C1099 C 0.12434 0.43903 0.81075 0.0
C1100 C 0.02376 0.46075 0.82029 0.0
C1101 C 0.01482 0.47894 0.82851 0.0
C1102 C 0.99647 0.46263 0.81313 0.0
C1103 C 0.00379 0.44268 0.8044 0.0
C1104 C 0.0029 0.46446 0.79634 0.0
C1105 C 0.01034 0.44578 0.78812 0.0
C1106 C 0.01855 0.40529 0.78788 0.0
C1107 C 0.01918 0.38335 0.79584 0.0
C1108 C 0.01172 0.40187 0.80407 0.0
C1109 C 0.8743 0.58161 0.82633 0.0
C1110 C 0.8414 0.56432 0.82217 0.0
C1111 C 0.91021 0.56122 0.82668 0.0
C1112 C 0.91326 0.52264 0.82318 0.0
C1113 C 0.87972 0.50533 0.81924 0.0
C1114 C 0.84489 0.52667 0.81838 0.0
C1115 C 0.95183 0.50173 0.82253 0.0
C1116 C 0.96126 0.48346 0.81431 0.0
C1117 C 0.97931 0.49964 0.82971 0.0
C1118 C 0.97248 0.51913 0.83848 0.0
C1119 C 0.9422 0.50625 0.84422 0.0
C1120 C 0.93607 0.52514 0.85248 0.0
C1121 C 0.95986 0.557 0.85501 0.0
C1122 C 0.99015 0.56983 0.84935 0.0
C1123 C 0.99661 0.55088 0.84113 0.0
H1124 H 0.95489 0.57166 0.86139 0.0
H1125 H 0.02435 0.3909 0.78151 0.0
H1126 H 0.53363 0.67609 0.06159 0.0
H1127 H 0.49097 0.61835 0.06303 0.0
H1128 H 0.58301 0.55772 0.07759 0.0
H1129 H 0.62367 0.61753 0.07713 0.0
H1130 H 0.50872 0.55184 0.05542 0.0
H1131 H 0.56286 0.5076 0.08713 0.0
H1132 H 0.57282 0.51902 0.10336 0.0
H1133 H 0.4562 0.56803 0.10537 0.0
H1134 H 0.44655 0.55859 0.08904 0.0
H1135 H 0.45941 0.35001 0.05603 0.0
H1136 H 0.48899 0.41566 0.05706 0.0
H1137 H 0.39615 0.4521 0.07516 0.0
H1138 H 0.3672 0.38541 0.07433 0.0
H1139 H 0.46457 0.47283 0.08162 0.0
H1140 H 0.40207 0.48743 0.05324 0.0
H1141 H 0.38332 0.46916 0.03777 0.0
H1142 H 0.50499 0.47302 0.02972 0.0
H1143 H 0.52455 0.49076 0.04518 0.0
C1144 C 0.54367 0.65127 0.06558 0.0
C1145 C 0.58085 0.65197 0.0697 0.0
C1146 C 0.51953 0.61803 0.0663 0.0
C1147 C 0.53294 0.5839 0.07075 0.0
C1148 C 0.57073 0.5842 0.07465 0.0
C1149 C 0.59437 0.61812 0.07421 0.0
C1150 C 0.50988 0.54672 0.06989 0.0
C1151 C 0.49933 0.53447 0.06117 0.0
C1152 C 0.49693 0.52412 0.07735 0.0
C1153 C 0.50501 0.53483 0.08679 0.0
C1154 C 0.54014 0.52256 0.09096 0.0
C1155 C 0.54556 0.52824 0.10019 0.0
C1156 C 0.51539 0.5448 0.10538 0.0
C1157 C 0.47976 0.55569 0.10133 0.0
C1158 C 0.4746 0.55082 0.09207 0.0
C1159 C 0.44546 0.37213 0.06024 0.0
C1160 C 0.412 0.36276 0.06534 0.0
C1161 C 0.46197 0.40975 0.06072 0.0
C1162 C 0.44462 0.4389 0.06614 0.0
C1163 C 0.41004 0.42996 0.07096 0.0
C1164 C 0.39354 0.39211 0.07049 0.0
C1165 C 0.46431 0.47769 0.0672 0.0
C1166 C 0.47407 0.49023 0.07589 0.0
C1167 C 0.47645 0.50051 0.05973 0.0
C1168 C 0.4648 0.49019 0.05039 0.0
C1169 C 0.42486 0.48415 0.04819 0.0
C1170 C 0.41408 0.47391 0.03941 0.0
C1171 C 0.44295 0.46987 0.03277 0.0
C1172 C 0.48266 0.47615 0.03488 0.0
C1173 C 0.49361 0.48636 0.04364 0.0
H1174 H 0.43455 0.46192 0.02598 0.0
H1175 H 0.51946 0.54881 0.11254 0.0
H1176 H 0.31971 0.47141 0.94196 0.0
H1177 H 0.37575 0.51603 0.94043 0.0
H1178 H 0.43705 0.42737 0.92491 0.0
H1179 H 0.37858 0.3849 0.92548 0.0
H1180 H 0.44137 0.50263 0.94757 0.0
H1181 H 0.49076 0.44781 0.91538 0.0
H1182 H 0.47719 0.43849 0.8992 0.0
H1183 H 0.41719 0.55034 0.89838 0.0
H1184 H 0.42918 0.55935 0.91464 0.0
H1185 H 0.64342 0.54136 0.94786 0.0
H1186 H 0.57628 0.51619 0.94661 0.0
H1187 H 0.54912 0.60749 0.92722 0.0
H1188 H 0.61754 0.6317 0.92823 0.0
H1189 H 0.52316 0.54085 0.92135 0.0
H1190 H 0.50982 0.6077 0.94914 0.0
H1191 H 0.52739 0.62816 0.96455 0.0
H1192 H 0.51683 0.50799 0.9736 0.0
H1193 H 0.49975 0.48669 0.95823 0.0
C1194 C 0.34421 0.46259 0.93775 0.0
C1195 C 0.34407 0.42583 0.93341 0.0
C1196 C 0.37655 0.48781 0.93698 0.0
C1197 C 0.4105 0.47583 0.93229 0.0
C1198 C 0.41069 0.43852 0.92811 0.0
C1199 C 0.37756 0.41384 0.92859 0.0
C1200 C 0.44721 0.49959 0.93313 0.0
C1201 C 0.45919 0.51095 0.94181 0.0
C1202 C 0.47043 0.51119 0.92567 0.0
C1203 C 0.45909 0.50331 0.91627 0.0
C1204 C 0.47354 0.46972 0.91179 0.0
C1205 C 0.46635 0.4646 0.90261 0.0
C1206 C 0.44589 0.49357 0.89778 0.0
C1207 C 0.43262 0.52769 0.90214 0.0
C1208 C 0.439 0.53249 0.91137 0.0
C1209 C 0.62302 0.55595 0.94333 0.0
C1210 C 0.6355 0.58748 0.93792 0.0
C1211 C 0.58452 0.54201 0.94272 0.0
C1212 C 0.55746 0.56019 0.93689 0.0
C1213 C 0.56955 0.59299 0.93175 0.0
C1214 C 0.60839 0.60682 0.93233 0.0
C1215 C 0.51762 0.54292 0.93577 0.0
C1216 C 0.50515 0.53276 0.92709 0.0
C1217 C 0.49371 0.53289 0.94322 0.0
C1218 C 0.50368 0.54558 0.95251 0.0
C1219 C 0.51147 0.58559 0.95441 0.0
C1220 C 0.52131 0.59735 0.96314 0.0
C1221 C 0.52327 0.56939 0.97005 0.0
C1222 C 0.5153 0.52962 0.96824 0.0
C1223 C 0.50546 0.5177 0.95952 0.0
H1224 H 0.53092 0.57855 0.9768 0.0
H1225 H 0.44065 0.48976 0.89066 0.0
H1226 H 0.52598 0.81645 0.19485 0.0
H1227 H 0.48265 0.87396 0.19357 0.0
H1228 H 0.57408 0.93639 0.17921 0.0
H1229 H 0.61577 0.87731 0.17969 0.0
H1230 H 0.50103 0.94175 0.20134 0.0
H1231 H 0.55234 0.98396 0.16917 0.0
H1232 H 0.55975 0.97242 0.15288 0.0
H1233 H 0.44255 0.92421 0.15179 0.0
H1234 H 0.4356 0.93331 0.16819 0.0
H1235 H 0.45393 0.14482 0.2004 0.0
H1236 H 0.48159 0.0782 0.19984 0.0
H1237 H 0.38986 0.04315 0.18129 0.0
H1238 H 0.36332 0.11079 0.18157 0.0
H1239 H 0.45558 0.01991 0.17514 0.0
H1240 H 0.39569 0.00829 0.20385 0.0
H1241 H 0.3787 0.02735 0.21938 0.0
H1242 H 0.50098 0.02146 0.22687 0.0
H1243 H 0.51879 0.00288 0.21135 0.0
C1244 C 0.53583 0.84172 0.19097 0.0
C1245 C 0.57327 0.84186 0.18696 0.0
C1246 C 0.51128 0.87474 0.19032 0.0
C1247 C 0.52434 0.90925 0.18597 0.0
C1248 C 0.56219 0.90962 0.1821 0.0
C1249 C 0.58636 0.87609 0.18254 0.0
C1250 C 0.50101 0.94621 0.18687 0.0
C1251 C 0.49134 0.95901 0.19559 0.0
C1252 C 0.48756 0.96852 0.17942 0.0
C1253 C 0.4944 0.95709 0.16997 0.0
C1254 C 0.52898 0.96908 0.16553 0.0
C1255 C 0.53293 0.96337 0.15626 0.0
C1256 C 0.50184 0.94711 0.15131 0.0
C1257 C 0.4668 0.93639 0.15564 0.0
C1258 C 0.46316 0.94109 0.16494 0.0
C1259 C 0.43988 0.12279 0.19619 0.0
C1260 C 0.40764 0.13288 0.19075 0.0
C1261 C 0.4552 0.08456 0.196 0.0
C1262 C 0.43771 0.05546 0.19056 0.0
C1263 C 0.40399 0.06515 0.18549 0.0
C1264 C 0.38885 0.10361 0.18564 0.0
C1265 C 0.45674 0.01618 0.18958 0.0
C1266 C 0.46542 0.00285 0.18089 0.0
C1267 C 0.46918 0.99349 0.19706 0.0
C1268 C 0.45859 0.00442 0.20642 0.0
C1269 C 0.41899 0.0113 0.2088 0.0
C1270 C 0.40921 0.02198 0.2176 0.0
C1271 C 0.43875 0.02567 0.22411 0.0
C1272 C 0.47813 0.01859 0.22182 0.0
C1273 C 0.48808 0.00792 0.21303 0.0
H1274 H 0.43112 0.03397 0.23092 0.0
H1275 H 0.50475 0.94316 0.14412 0.0
H1276 H 0.87922 0.86465 0.43001 0.0
H1277 H 0.94478 0.8957 0.42872 0.0
H1278 H 0.91338 0.97821 0.4497 0.0
H1279 H 0.84882 0.94673 0.4511 0.0
H1280 H 0.96229 0.97013 0.42402 0.0
H1281 H 0.99183 0.00471 0.46164 0.0
H1282 H 0.97844 0.97511 0.47651 0.0
H1283 H 0.97198 0.85977 0.46452 0.0
H1284 H 0.98594 0.88856 0.44961 0.0
H1285 H 0.1164 0.11724 0.42818 0.0
H1286 H 0.054 0.0811 0.42861 0.0
H1287 H 0.11178 0.98455 0.44238 0.0
H1288 H 0.17157 0.02396 0.44336 0.0
H1289 H 0.04984 0.99568 0.45006 0.0
H1290 H 0.05431 0.967 0.41445 0.0
H1291 H 0.05831 0.9931 0.39891 0.0
H1292 H 0.99112 0.09507 0.40671 0.0
H1293 H 0.98552 0.06877 0.42216 0.0
C1294 C 0.8868 0.88917 0.43437 0.0
C1295 C 0.85918 0.90421 0.44048 0.0
C1296 C 0.92396 0.90687 0.43363 0.0
C1297 C 0.93394 0.93908 0.43915 0.0
C1298 C 0.90655 0.95304 0.44547 0.0
C1299 C 0.86962 0.93541 0.4462 0.0
C1300 C 0.97217 0.95956 0.43811 0.0
C1301 C 0.98164 0.97553 0.42969 0.0
C1302 C 0.99726 0.96662 0.44551 0.0
C1303 C 0.98969 0.94888 0.4545 0.0
C1304 C 0.98781 0.973 0.46219 0.0
C1305 C 0.98007 0.95637 0.47062 0.0
C1306 C 0.97432 0.9156 0.47145 0.0
C1307 C 0.97637 0.89136 0.46386 0.0
C1308 C 0.98416 0.90783 0.45542 0.0
C1309 C 0.11558 0.08802 0.43117 0.0
C1310 C 0.14932 0.07211 0.43526 0.0
C1311 C 0.08006 0.06687 0.43123 0.0
C1312 C 0.07815 0.02893 0.43511 0.0
C1313 C 0.11222 0.01337 0.43919 0.0
C1314 C 0.14685 0.0354 0.43956 0.0
C1315 C 0.04039 0.00668 0.43589 0.0
C1316 C 0.03078 0.99029 0.44433 0.0
C1317 C 0.01487 -0.0004 0.42852 0.0
C1318 C 0.02098 0.01679 0.4195 0.0
C1319 C 0.04102 0.99529 0.41286 0.0
C1320 C 0.0432 0.0099 0.40406 0.0
C1321 C 0.02569 0.04607 0.40188 0.0
C1322 C 0.00516 0.06732 0.40843 0.0
C1323 C 0.00225 0.05245 0.41718 0.0
H1324 H 0.02763 0.0574 0.39508 0.0
H1325 H 0.96836 0.90277 0.47798 0.0
H1326 H 0.04303 0.34632 0.69708 0.0
H1327 H 0.01729 0.41295 0.69842 0.0
H1328 H 0.06593 0.44166 0.67232 0.0
H1329 H 0.09821 0.37716 0.67197 0.0
H1330 H 0.07938 0.49766 0.6813 0.0
H1331 H 0.92711 0.44583 0.68044 0.0
H1332 H 0.87444 0.40515 0.68741 0.0
H1333 H 0.92442 0.42564 0.7135 0.0
H1334 H 0.97622 0.46752 0.70671 0.0
H1335 H 0.89733 0.63459 0.675 0.0
H1336 H 0.93866 0.57536 0.67381 0.0
H1337 H 0.01681 0.62205 0.6941 0.0
H1338 H 0.97599 0.68168 0.69512 0.0
H1339 H 0.94346 0.53296 0.69045 0.0
H1340 H 0.08305 0.59266 0.69275 0.0
H1341 H 0.14057 0.63126 0.68757 0.0
H1342 H 0.11777 0.59567 0.66033 0.0
H1343 H 0.05967 0.55747 0.66538 0.0
C1344 C 0.0477 0.367 0.69161 0.0
C1345 C 0.07147 0.35655 0.68428 0.0
C1346 C 0.03202 0.4051 0.69226 0.0
C1347 C 0.03781 0.43282 0.68533 0.0
C1348 C 0.06078 0.42139 0.67784 0.0
C1349 C 0.07873 0.38424 0.67751 0.0
C1350 C 0.02358 0.47464 0.68604 0.0
C1351 C 0.04928 0.50488 0.68318 0.0
C1352 C 0.98536 0.48558 0.68908 0.0
C1353 C 0.95666 0.4577 0.69302 0.0
C1354 C 0.92733 0.44064 0.68763 0.0
C1355 C 0.89741 0.41788 0.69155 0.0
C1356 C 0.89673 0.41194 0.70085 0.0
C1357 C 0.92535 0.42964 0.70628 0.0
C1358 C 0.95477 0.4531 0.70241 0.0
C1359 C 0.9242 0.63275 0.67893 0.0
C1360 C 0.93394 0.66269 0.68504 0.0
C1361 C 0.9479 0.59912 0.67822 0.0
C1362 C 0.98121 0.59451 0.68377 0.0
C1363 C 0.9921 0.62541 0.68955 0.0
C1364 C 0.96859 0.65934 0.69018 0.0
C1365 C -0.0019 0.55447 0.68492 0.0
C1366 C 0.97313 0.52504 0.68835 0.0
C1367 C 0.03714 0.54443 0.68261 0.0
C1368 C 0.06636 0.57346 0.67939 0.0
C1369 C 0.08956 0.59423 0.68563 0.0
C1370 C 0.12259 0.61552 0.68273 0.0
C1371 C 0.13285 0.6159 0.67363 0.0
C1372 C 0.10977 0.5954 0.66738 0.0
C1373 C 0.07656 0.5743 0.67024 0.0
H1374 H 0.15857 0.63221 0.67141 0.0
H1375 H 0.87367 0.39415 0.70386 0.0
H1376 H 0.23954 0.21462 0.33584 0.0
H1377 H 0.24179 0.2398 0.3513 0.0
H1378 H 0.18569 0.1329 0.3607 0.0
H1379 H 0.18245 0.10819 0.34538 0.0
H1380 H 0.16422 0.19342 0.37096 0.0
H1381 H 0.28827 0.14276 0.3578 0.0
H1382 H 0.34369 0.14621 0.34701 0.0
H1383 H 0.37257 0.26271 0.35635 0.0
H1384 H 0.31686 0.26043 0.36704 0.0
H1385 H 0.29742 0.10773 0.4053 0.0
H1386 H 0.28979 0.13523 0.39031 0.0
H1387 H 0.22182 0.23208 0.40113 0.0
H1388 H 0.22875 0.20405 0.41628 0.0
H1389 H 0.30377 0.20124 0.38094 0.0
H1390 H 0.14372 0.24636 0.38569 0.0
H1391 H 0.08873 0.23834 0.39643 0.0
H1392 H 0.1332 0.12439 0.40412 0.0
H1393 H 0.18798 0.13125 0.39326 0.0
C1394 C 0.22637 0.19716 0.34117 0.0
C1395 C 0.21145 0.15907 0.33941 0.0
C1396 C 0.22791 0.2115 0.35 0.0
C1397 C 0.21475 0.18784 0.35718 0.0
C1398 C 0.19624 0.15165 0.35529 0.0
C1399 C 0.19459 0.13742 0.34651 0.0
C1400 C 0.22484 0.1971 0.36667 0.0
C1401 C 0.19468 0.19605 0.37314 0.0
C1402 C 0.26459 0.20062 0.36954 0.0
C1403 C 0.29811 0.20166 0.36313 0.0
C1404 C 0.30628 0.16921 0.35751 0.0
C1405 C 0.33772 0.17092 0.35142 0.0
C1406 C 0.36155 0.20459 0.351 0.0
C1407 C 0.35402 0.23667 0.35667 0.0
C1408 C 0.32248 0.23524 0.36273 0.0
C1409 C 0.28159 0.13539 0.40455 0.0
C1410 C 0.26311 0.15333 0.41196 0.0
C1411 C 0.27745 0.15125 0.39596 0.0
C1412 C 0.25467 0.18536 0.39456 0.0
C1413 C 0.23915 0.20546 0.40204 0.0
C1414 C 0.24332 0.18951 0.4107 0.0
C1415 C 0.24327 0.19578 0.38521 0.0
C1416 C 0.27319 0.20045 0.37877 0.0
C1417 C 0.20337 0.19484 0.38237 0.0
C1418 C 0.1702 0.18964 0.38876 0.0
C1419 C 0.14165 0.21952 0.38965 0.0
C1420 C 0.11052 0.21513 0.39574 0.0
C1421 C 0.10757 0.18087 0.40096 0.0
C1422 C 0.13559 0.15083 0.40006 0.0
C1423 C 0.16665 0.15494 0.39393 0.0
H1424 H 0.08353 0.17758 0.4057 0.0
H1425 H 0.3859 0.2058 0.34629 0.0
H1426 H 0.8807 0.6984 0.60073 0.0
H1427 H 0.84964 0.70143 0.61538 0.0
H1428 H 0.75288 0.76831 0.60416 0.0
H1429 H 0.78484 0.76609 0.5893 0.0
H1430 H 0.77948 0.80457 0.61827 0.0
H1431 H 0.73589 0.67548 0.61389 0.0
H1432 H 0.73689 0.60576 0.60906 0.0
H1433 H 0.82906 0.58083 0.62805 0.0
H1434 H 0.82913 0.65049 0.63291 0.0
H1435 H 0.78409 0.73171 0.66951 0.0
H1436 H 0.75338 0.72818 0.65459 0.0
H1437 H 0.84304 0.80641 0.64413 0.0
H1438 H 0.87272 0.81101 0.6589 0.0
H1439 H 0.78365 0.69605 0.64072 0.0
H1440 H 0.81991 0.85427 0.62621 0.0
H1441 H 0.81284 0.92364 0.63101 0.0
H1442 H 0.72227 0.89008 0.64972 0.0
H1443 H 0.72829 0.82054 0.64494 0.0
C1444 C 0.85237 0.71306 0.6013 0.0
C1445 C 0.83537 0.73226 0.59386 0.0
C1446 C 0.83434 0.71443 0.6097 0.0
C1447 C 0.79858 0.73471 0.61091 0.0
C1448 C 0.78035 0.75226 0.60339 0.0
C1449 C 0.79849 0.7508 0.5949 0.0
C1450 C 0.78408 0.74162 0.62023 0.0
C1451 C 0.77964 0.78081 0.62318 0.0
C1452 C 0.78232 0.71054 0.62661 0.0
C1453 C 0.78243 0.66835 0.62378 0.0
C1454 C 0.75651 0.6552 0.61702 0.0
C1455 C 0.75689 0.61565 0.61427 0.0
C1456 C 0.783 0.58888 0.61825 0.0
C1457 C 0.80878 0.60159 0.62499 0.0
C1458 C 0.80854 0.6411 0.62776 0.0
C1459 C 0.79639 0.7492 0.66409 0.0
C1460 C 0.83108 0.7714 0.6654 0.0
C1461 C 0.77892 0.747 0.65555 0.0
C1462 C 0.79562 0.76721 0.6482 0.0
C1463 C 0.82884 0.7912 0.64967 0.0
C1464 C 0.84615 0.79348 0.65816 0.0
C1465 C 0.78276 0.75922 0.63879 0.0
C1466 C 0.78198 0.71979 0.63582 0.0
C1467 C 0.77862 0.79004 0.63239 0.0
C1468 C 0.77458 0.83205 0.63521 0.0
C1469 C 0.7982 0.86166 0.63129 0.0
C1470 C 0.79446 0.90104 0.63403 0.0
C1471 C 0.76714 0.91126 0.64067 0.0
C1472 C 0.74347 0.88212 0.64459 0.0
C1473 C 0.74708 0.84269 0.64187 0.0
H1474 H 0.76431 0.94176 0.64278 0.0
H1475 H 0.78327 0.55828 0.61611 0.0
H1476 H 0.30867 0.39523 0.84182 0.0
H1477 H 0.30832 0.37494 0.85756 0.0
H1478 H 0.22952 0.27877 0.85117 0.0
H1479 H 0.23009 0.29879 0.83531 0.0
H1480 H 0.23847 0.3802 0.86627 0.0
H1481 H 0.23843 0.21011 0.86953 0.0
H1482 H 0.26767 0.15187 0.86209 0.0
H1483 H 0.36545 0.2225 0.85314 0.0
H1484 H 0.33709 0.281 0.86063 0.0
H1485 H 0.17261 0.34888 0.90938 0.0
H1486 H 0.17607 0.33223 0.89339 0.0
H1487 H 0.2969 0.2947 0.8968 0.0
H1488 H 0.29252 0.3089 0.91291 0.0
H1489 H 0.26532 0.25606 0.88299 0.0
H1490 H 0.27104 0.39556 0.89232 0.0
H1491 H 0.24465 0.45643 0.89934 0.0
H1492 H 0.1415 0.44966 0.88269 0.0
H1493 H 0.16717 0.38903 0.87554 0.0
C1494 C 0.29236 0.36892 0.8437 0.0
C1495 C 0.26911 0.34882 0.83735 0.0
C1496 C 0.2921 0.35741 0.85271 0.0
C1497 C 0.26852 0.32566 0.85556 0.0
C1498 C 0.24809 0.30323 0.84911 0.0
C1499 C 0.24856 0.31463 0.84004 0.0
C1500 C 0.26056 0.32062 0.86531 0.0
C1501 C 0.24438 0.35297 0.8699 0.0
C1502 C 0.26784 0.28504 0.87004 0.0
C1503 C 0.28536 0.25003 0.86556 0.0
C1504 C 0.26622 0.21318 0.866 0.0
C1505 C 0.28264 0.18012 0.86176 0.0
C1506 C 0.31832 0.18352 0.85711 0.0
C1507 C 0.33772 0.21995 0.85671 0.0
C1508 C 0.32143 0.25309 0.86093 0.0
C1509 C 0.1992 0.33524 0.90678 0.0
C1510 C 0.23232 0.33022 0.91234 0.0
C1511 C 0.20136 0.32615 0.89763 0.0
C1512 C 0.23723 0.31363 0.89382 0.0
C1513 C 0.26899 0.30462 0.89955 0.0
C1514 C 0.26643 0.31256 0.90878 0.0
C1515 C 0.2436 0.31585 0.88393 0.0
C1516 C 0.25923 0.28309 0.87931 0.0
C1517 C 0.23616 0.35127 0.87911 0.0
C1518 C 0.22081 0.3876 0.88347 0.0
C1519 C 0.24265 0.40698 0.8902 0.0
C1520 C 0.22786 0.44139 0.89419 0.0
C1521 C 0.1914 0.45667 0.89151 0.0
C1522 C 0.16969 0.43773 0.88478 0.0
C1523 C 0.18436 0.40343 0.88074 0.0
H1524 H 0.18004 0.48328 0.89462 0.0
H1525 H 0.33098 0.15789 0.85384 0.0
H1526 H 0.69344 0.70373 0.09083 0.0
H1527 H 0.71191 0.7026 0.10678 0.0
H1528 H 0.68181 0.82604 0.10908 0.0
H1529 H 0.66088 0.8266 0.09327 0.0
H1530 H 0.76019 0.77561 0.12005 0.0
H1531 H 0.61791 0.80342 0.11543 0.0
H1532 H 0.55261 0.79277 0.10855 0.0
H1533 H 0.55625 0.67044 0.11627 0.0
H1534 H 0.62278 0.67986 0.12269 0.0
H1535 H 0.69778 0.79706 0.16683 0.0
H1536 H 0.71911 0.80136 0.15108 0.0
H1537 H 0.6795 0.6816 0.14668 0.0
H1538 H 0.65725 0.67781 0.16228 0.0
H1539 H 0.6403 0.73321 0.13661 0.0
H1540 H 0.77628 0.70808 0.1437 0.0
H1541 H 0.83961 0.719 0.15149 0.0
H1542 H 0.84603 0.83647 0.14059 0.0
H1543 H 0.78242 0.82647 0.13283 0.0
C1544 C 0.69233 0.73099 0.09465 0.0
C1545 C 0.67594 0.7653 0.09086 0.0
C1546 C 0.7027 0.73027 0.10376 0.0
C1547 C 0.69779 0.76414 0.1091 0.0
C1548 C 0.68561 0.7996 0.10506 0.0
C1549 C 0.6739 0.79997 0.09604 0.0
C1550 C 0.69862 0.76051 0.11901 0.0
C1551 C 0.73399 0.76675 0.12372 0.0
C1552 C 0.66454 0.74838 0.12374 0.0
C1553 C 0.62592 0.74208 0.11926 0.0
C1554 C 0.60547 0.77395 0.11537 0.0
C1555 C 0.56811 0.76817 0.11159 0.0
C1556 C 0.55041 0.73088 0.11191 0.0
C1557 C 0.57014 0.69925 0.11596 0.0
C1558 C 0.60785 0.70468 0.11957 0.0
C1559 C 0.69546 0.77111 0.16259 0.0
C1560 C 0.67597 0.73709 0.16571 0.0
C1561 C 0.70752 0.7736 0.15359 0.0
C1562 C 0.7006 0.74189 0.14768 0.0
C1563 C 0.68498 0.70648 0.1511 0.0
C1564 C 0.67246 0.70422 0.16002 0.0
C1565 C 0.70204 0.74776 0.13778 0.0
C1566 C 0.66678 0.742 0.13301 0.0
C1567 C 0.73613 0.76059 0.1331 0.0
C1568 C 0.77436 0.76665 0.13776 0.0
C1569 C 0.79099 0.73639 0.14303 0.0
C1570 C 0.82699 0.74238 0.14743 0.0
C1571 C 0.84678 0.77844 0.14655 0.0
C1572 C 0.83065 0.80857 0.14127 0.0
C1573 C 0.79464 0.80273 0.13686 0.0
H1574 H 0.87465 0.78302 0.14996 0.0
H1575 H 0.52136 0.72651 0.10904 0.0
H1576 H 0.76446 0.69633 0.83842 0.0
H1577 H 0.77282 0.72357 0.8536 0.0
H1578 H 0.6935 0.6348 0.86403 0.0
H1579 H 0.68449 0.60827 0.84899 0.0
H1580 H 0.68711 0.70145 0.87359 0.0
H1581 H 0.79667 0.6212 0.8605 0.0
H1582 H 0.85189 0.61275 0.84978 0.0
H1583 H 0.90573 0.7192 0.85953 0.0
H1584 H 0.85041 0.72908 0.8701 0.0
H1585 H 0.78846 0.5817 0.9077 0.0
H1586 H 0.79047 0.61166 0.89285 0.0
H1587 H 0.7528 0.72314 0.90405 0.0
H1588 H 0.75011 0.69287 0.91906 0.0
H1589 H 0.82358 0.67303 0.88383 0.0
H1590 H 0.68273 0.75992 0.88821 0.0
H1591 H 0.62793 0.76873 0.89897 0.0
H1592 H 0.63768 0.64713 0.90694 0.0
H1593 H 0.69178 0.63721 0.89604 0.0
C1594 C 0.74758 0.68372 0.8439 0.0
C1595 C 0.72424 0.6498 0.84254 0.0
C1596 C 0.75264 0.69913 0.85259 0.0
C1597 C 0.7345 0.68066 0.85999 0.0
C1598 C 0.70799 0.64948 0.85845 0.0
C1599 C 0.70296 0.63418 0.84983 0.0
C1600 C 0.74669 0.68892 0.8694 0.0
C1601 C 0.71717 0.69622 0.87582 0.0
C1602 C 0.786 0.68261 0.87234 0.0
C1603 C 0.81916 0.67618 0.866 0.0
C1604 C 0.82014 0.64294 0.86031 0.0
C1605 C 0.85142 0.63787 0.85427 0.0
C1606 C 0.88222 0.66531 0.854 0.0
C1607 C 0.88181 0.69799 0.85974 0.0
C1608 C 0.85045 0.70344 0.86573 0.0
C1609 C 0.7815 0.61286 0.90707 0.0
C1610 C 0.76846 0.63472 0.91453 0.0
C1611 C 0.78293 0.63007 0.89856 0.0
C1612 C 0.77118 0.66948 0.8973 0.0
C1613 C 0.76164 0.69255 0.90486 0.0
C1614 C 0.76026 0.67526 0.91344 0.0
C1615 C 0.76357 0.68339 0.88798 0.0
C1616 C 0.79392 0.68017 0.8816 0.0
C1617 C 0.72501 0.69327 0.88506 0.0
C1618 C 0.69164 0.69806 0.89141 0.0
C1619 C 0.673 0.73501 0.89222 0.0
C1620 C 0.64202 0.74014 0.89832 0.0
C1621 C 0.6294 0.70847 0.90364 0.0
C1622 C 0.64748 0.67151 0.9028 0.0
C1623 C 0.67824 0.66611 0.89665 0.0
H1624 H 0.60557 0.71254 0.9084 0.0
H1625 H 0.90643 0.6612 0.84934 0.0
H1626 H 0.39675 0.30517 0.16155 0.0
H1627 H 0.37833 0.30761 0.14567 0.0
H1628 H 0.29879 0.20939 0.14969 0.0
H1629 H 0.31615 0.20817 0.16573 0.0
H1630 H 0.39778 0.25073 0.13522 0.0
H1631 H 0.23399 0.20364 0.13152 0.0
H1632 H 0.17034 0.21342 0.13926 0.0
H1633 H 0.21202 0.32333 0.15017 0.0
H1634 H 0.2757 0.3145 0.1424 0.0
H1635 H 0.38381 0.18197 0.09225 0.0
H1636 H 0.36583 0.18072 0.10818 0.0
H1637 H 0.30143 0.28984 0.10484 0.0
H1638 H 0.31793 0.29001 0.08877 0.0
H1639 H 0.27045 0.24508 0.11878 0.0
H1640 H 0.39881 0.29432 0.10944 0.0
H1641 H 0.46338 0.29014 0.10178 0.0
H1642 H 0.49271 0.18681 0.11716 0.0
H1643 H 0.42842 0.19033 0.12493 0.0
C1644 C 0.37411 0.28524 0.1591 0.0
C1645 C 0.35763 0.25669 0.16482 0.0
C1646 C 0.36377 0.28642 0.15002 0.0
C1647 C 0.33741 0.25847 0.14643 0.0
C1648 C 0.3188 0.2316 0.15229 0.0
C1649 C 0.32864 0.23094 0.16146 0.0
C1650 C 0.33444 0.25391 0.1365 0.0
C1651 C 0.3698 0.24968 0.13167 0.0
C1652 C 0.29807 0.25237 0.1318 0.0
C1653 C 0.25978 0.25816 0.13645 0.0
C1654 C 0.22953 0.22996 0.13555 0.0
C1655 C 0.19344 0.23533 0.13994 0.0
C1656 C 0.18719 0.26891 0.14523 0.0
C1657 C 0.21696 0.29725 0.14611 0.0
C1658 C 0.25309 0.29203 0.14172 0.0
C1659 C 0.36409 0.2045 0.09483 0.0
C1660 C 0.35201 0.23594 0.08933 0.0
C1661 C 0.35409 0.204 0.10394 0.0
C1662 C 0.33316 0.23575 0.10774 0.0
C1663 C 0.31765 0.26508 0.10205 0.0
C1664 C 0.32693 0.26509 0.09287 0.0
C1665 C 0.33374 0.24185 0.11764 0.0
C1666 C 0.29819 0.24619 0.12241 0.0
C1667 C 0.36998 0.24433 0.12235 0.0
C1668 C 0.40871 0.24238 0.11771 0.0
C1669 C 0.41896 0.2706 0.11116 0.0
C1670 C 0.45547 0.26837 0.1068 0.0
C1671 C 0.48196 0.23813 0.10894 0.0
C1672 C 0.47212 0.21017 0.11549 0.0
C1673 C 0.43572 0.21232 0.11989 0.0
H1674 H 0.51018 0.23646 0.10555 0.0
H1675 H 0.15924 0.273 0.14863 0.0
H1676 H 0.78386 0.90575 0.34876 0.0
H1677 H 0.78327 0.87957 0.36399 0.0
H1678 H 0.71457 0.77949 0.3551 0.0
H1679 H 0.71485 0.80594 0.3397 0.0
H1680 H 0.68076 0.81494 0.36927 0.0
H1681 H 0.80731 0.76416 0.36317 0.0
H1682 H 0.87547 0.76335 0.35737 0.0
H1683 H 0.9073 0.85639 0.37563 0.0
H1684 H 0.83921 0.85823 0.38145 0.0
H1685 H 0.76304 0.79738 0.41935 0.0
H1686 H 0.76081 0.77351 0.40376 0.0
H1687 H 0.69448 0.87709 0.39608 0.0
H1688 H 0.69654 0.90084 0.41153 0.0
H1689 H 0.79531 0.81137 0.39004 0.0
H1690 H 0.63765 0.86049 0.37839 0.0
H1691 H 0.5695 0.85844 0.38418 0.0
H1692 H 0.59973 0.76095 0.40137 0.0
H1693 H 0.66792 0.76197 0.39559 0.0
C1694 C 0.76934 0.8777 0.34998 0.0
C1695 C 0.7493 0.85799 0.34302 0.0
C1696 C 0.76923 0.8626 0.35871 0.0
C1697 C 0.7491 0.82739 0.36071 0.0
C1698 C 0.73045 0.80662 0.3537 0.0
C1699 C 0.73085 0.82162 0.3449 0.0
C1700 C 0.74418 0.81543 0.37027 0.0
C1701 C 0.70579 0.8135 0.3738 0.0
C1702 C 0.77684 0.81237 0.37617 0.0
C1703 C 0.81803 0.81135 0.37274 0.0
C1704 C 0.82877 0.78461 0.36591 0.0
C1705 C 0.86742 0.78396 0.36262 0.0
C1706 C 0.89569 0.80981 0.36612 0.0
C1707 C 0.88538 0.83634 0.37293 0.0
C1708 C 0.84676 0.83714 0.37624 0.0
C1709 C 0.74684 0.81432 0.41439 0.0
C1710 C 0.73002 0.85102 0.41665 0.0
C1711 C 0.74583 0.80079 0.40547 0.0
C1712 C 0.72735 0.8234 0.39874 0.0
C1713 C 0.7084 0.85877 0.40115 0.0
C1714 C 0.70975 0.87244 0.40999 0.0
C1715 C 0.73192 0.81344 0.38906 0.0
C1716 C 0.77025 0.81147 0.3855 0.0
C1717 C 0.69921 0.81244 0.38314 0.0
C1718 C 0.65802 0.8114 0.38657 0.0
C1719 C 0.62973 0.8384 0.38335 0.0
C1720 C 0.59108 0.83748 0.38665 0.0
C1721 C 0.5803 0.80962 0.39314 0.0
C1722 C 0.60814 0.78258 0.39635 0.0
C1723 C 0.64682 0.78336 0.39308 0.0
H1724 H 0.55037 0.80897 0.39569 0.0
H1725 H 0.9256 0.80926 0.36357 0.0
H1726 H 0.10187 0.19581 0.65457 0.0
H1727 H 0.13275 0.19503 0.63983 0.0
H1728 H 0.22921 0.26543 0.65 0.0
H1729 H 0.19781 0.2667 0.66489 0.0
H1730 H 0.19879 0.29893 0.63567 0.0
H1731 H 0.24761 0.17215 0.64146 0.0
H1732 H 0.24858 0.10341 0.64699 0.0
H1733 H 0.15777 0.07207 0.62815 0.0
H1734 H 0.15576 0.14073 0.62259 0.0
H1735 H 0.20778 0.22075 0.58506 0.0
H1736 H 0.23473 0.22008 0.60041 0.0
H1737 H 0.13578 0.28977 0.6095 0.0
H1738 H 0.10933 0.29101 0.59433 0.0
H1739 H 0.20103 0.18606 0.61438 0.0
H1740 H 0.15487 0.34396 0.62698 0.0
H1741 H 0.1577 0.41266 0.62147 0.0
H1742 H 0.25262 0.38194 0.60367 0.0
H1743 H 0.25084 0.31316 0.60916 0.0
C1744 C 0.1302 0.21025 0.65375 0.0
C1745 C 0.14728 0.23151 0.66088 0.0
C1746 C 0.14806 0.20953 0.64532 0.0
C1747 C 0.18352 0.22995 0.64379 0.0
C1748 C 0.20195 0.2493 0.65103 0.0
C1749 C 0.18411 0.24981 0.65954 0.0
C1750 C 0.19737 0.23549 0.63438 0.0
C1751 C 0.20005 0.27424 0.63103 0.0
C1752 C 0.20052 0.20328 0.62834 0.0
C1753 C 0.20157 0.16172 0.6316 0.0
C1754 C 0.22769 0.15067 0.63852 0.0
C1755 C 0.22843 0.11169 0.64166 0.0
C1756 C 0.20326 0.08339 0.63792 0.0
C1757 C 0.17731 0.09401 0.63103 0.0
C1758 C 0.17643 0.13296 0.62786 0.0
C1759 C 0.19251 0.23692 0.59029 0.0
C1760 C 0.15633 0.25578 0.58849 0.0
C1761 C 0.20781 0.23634 0.59906 0.0
C1762 C 0.1875 0.25513 0.60611 0.0
C1763 C 0.15252 0.2757 0.60418 0.0
C1764 C 0.13719 0.2761 0.59549 0.0
C1765 C 0.19923 0.24949 0.61567 0.0
C1766 C 0.20128 0.21073 0.61904 0.0
C1767 C 0.20113 0.2817 0.62173 0.0
C1768 C 0.20268 0.32328 0.61849 0.0
C1769 C 0.17661 0.35188 0.62195 0.0
C1770 C 0.17796 0.39085 0.61881 0.0
C1771 C 0.2053 0.40165 0.61222 0.0
C1772 C 0.2314 0.37351 0.60876 0.0
C1773 C 0.2302 0.33451 0.61188 0.0
H1774 H 0.20627 0.43183 0.60979 0.0
H1775 H 0.20388 0.05323 0.64036 0.0
H1776 H 0.22822 0.24726 0.29174 0.0
H1777 H 0.23264 0.27508 0.27648 0.0
H1778 H 0.26598 0.16049 0.26624 0.0
H1779 H 0.26146 0.13271 0.28129 0.0
H1780 H 0.29628 0.27967 0.26539 0.0
H1781 H 0.22924 0.14566 0.24587 0.0
H1782 H 0.17586 0.09687 0.24789 0.0
H1783 H 0.11524 0.17655 0.26562 0.0
H1784 H 0.16793 0.22608 0.26361 0.0
H1785 H 0.38339 0.24 0.22402 0.0
H1786 H 0.35417 0.24242 0.23896 0.0
H1787 H 0.24183 0.27461 0.22741 0.0
H1788 H 0.27108 0.27197 0.2123 0.0
H1789 H 0.23402 0.21466 0.23904 0.0
H1790 H 0.29104 0.34163 0.24006 0.0
H1791 H 0.34212 0.3928 0.23804 0.0
H1792 H 0.41658 0.33376 0.25718 0.0
H1793 H 0.36623 0.28187 0.25922 0.0
C1794 C 0.23611 0.22801 0.2862 0.0
C1795 C 0.24449 0.1878 0.28772 0.0
C1796 C 0.23869 0.24394 0.27751 0.0
C1797 C 0.24913 0.21974 0.2702 0.0
C1798 C 0.25714 0.17958 0.27173 0.0
C1799 C 0.25479 0.16378 0.28037 0.0
C1800 C 0.25403 0.23618 0.26101 0.0
C1801 C 0.28233 0.26588 0.25963 0.0
C1802 C 0.2349 0.219 0.2535 0.0
C1803 C 0.20269 0.18956 0.25461 0.0
C1804 C 0.20439 0.15292 0.25015 0.0
C1805 C 0.17427 0.12509 0.2513 0.0
C1806 C 0.14221 0.13358 0.25689 0.0
C1807 C 0.14014 0.16997 0.26131 0.0
C1808 C 0.17016 0.19791 0.26018 0.0
C1809 C 0.35257 0.24811 0.22464 0.0
C1810 C 0.32949 0.25566 0.21698 0.0
C1811 C 0.33595 0.24977 0.23321 0.0
C1812 C 0.29589 0.25912 0.23433 0.0
C1813 C 0.27286 0.26754 0.2267 0.0
C1814 C 0.28961 0.2661 0.21809 0.0
C1815 C 0.27794 0.2565 0.24342 0.0
C1816 C 0.24724 0.22929 0.24479 0.0
C1817 C 0.29442 0.27645 0.25091 0.0
C1818 C 0.32482 0.30774 0.24977 0.0
C1819 C 0.31839 0.33941 0.2438 0.0
C1820 C 0.34722 0.36857 0.24266 0.0
C1821 C 0.38258 0.36652 0.24747 0.0
C1822 C 0.38915 0.33533 0.25346 0.0
C1823 C 0.36043 0.30606 0.25462 0.0
H1824 H 0.40487 0.38912 0.24657 0.0
H1825 H 0.11895 0.11197 0.25778 0.0
H1826 H 0.74337 0.88069 0.47508 0.0
H1827 H 0.75145 0.85648 0.49042 0.0
H1828 H 0.76337 0.73723 0.48046 0.0
H1829 H 0.75379 0.76139 0.465 0.0
H1830 H 0.72615 0.73846 0.49688 0.0
H1831 H 0.84493 0.79092 0.48415 0.0
H1832 H 0.88543 0.84066 0.47624 0.0
H1833 H 0.86283 0.9247 0.49726 0.0
H1834 H 0.82177 0.87563 0.50523 0.0
H1835 H 0.88643 0.73872 0.53555 0.0
H1836 H 0.86558 0.74399 0.51992 0.0
H1837 H 0.74495 0.76037 0.5285 0.0
H1838 H 0.7657 0.75352 0.54424 0.0
H1839 H 0.83855 0.80462 0.5121 0.0
H1840 H 0.68124 0.73583 0.51144 0.0
H1841 H 0.64455 0.68127 0.51863 0.0
H1842 H 0.75317 0.61945 0.52352 0.0
H1843 H 0.79046 0.67335 0.51626 0.0
C1844 C 0.74691 0.84919 0.47617 0.0
C1845 C 0.7485 0.82293 0.46886 0.0
C1846 C 0.75157 0.83539 0.48493 0.0
C1847 C 0.75902 0.7952 0.48657 0.0
C1848 C 0.75787 0.76841 0.47934 0.0
C1849 C 0.75245 0.7822 0.47052 0.0
C1850 C 0.7719 0.78234 0.49567 0.0
C1851 C 0.75072 0.75281 0.50023 0.0
C1852 C 0.80465 0.80034 0.49994 0.0
C1853 C 0.83003 0.82969 0.49525 0.0
C1854 C 0.84846 0.82007 0.48706 0.0
C1855 C 0.87152 0.84814 0.48257 0.0
C1856 C 0.8766 0.88584 0.48623 0.0
C1857 C 0.85882 0.89549 0.49442 0.0
C1858 C 0.8357 0.86755 0.49894 0.0
C1859 C 0.85535 0.74287 0.53411 0.0
C1860 C 0.8277 0.74597 0.54112 0.0
C1861 C 0.84345 0.74593 0.52516 0.0
C1862 C 0.80368 0.75266 0.52298 0.0
C1863 C 0.77573 0.75458 0.52997 0.0
C1864 C 0.7876 0.75085 0.53897 0.0
C1865 C 0.79248 0.76098 0.51348 0.0
C1866 C 0.81403 0.78993 0.5088 0.0
C1867 C 0.76084 0.74158 0.50906 0.0
C1868 C 0.73866 0.70886 0.51338 0.0
C1869 C 0.69728 0.71053 0.51402 0.0
C1870 C 0.67638 0.67973 0.51811 0.0
C1871 C 0.69653 0.64698 0.52156 0.0
C1872 C 0.73762 0.6449 0.52089 0.0
C1873 C 0.75865 0.67561 0.5168 0.0
H1874 H 0.68029 0.62317 0.52472 0.0
H1875 H 0.89432 0.90759 0.48273 0.0
H1876 H 0.09491 0.24967 0.71885 0.0
H1877 H 0.11716 0.25556 0.7344 0.0
H1878 H 0.2382 0.25948 0.72541 0.0
H1879 H 0.21604 0.25201 0.70979 0.0
H1880 H 0.23359 0.22163 0.74125 0.0
H1881 H 0.18718 0.34475 0.72928 0.0
H1882 H 0.13989 0.38927 0.72175 0.0
H1883 H 0.05506 0.36823 0.74267 0.0
H1884 H 0.10167 0.32311 0.75026 0.0
H1885 H 0.24512 0.38276 0.77956 0.0
H1886 H 0.23697 0.36093 0.76407 0.0
H1887 H 0.21757 0.24133 0.77328 0.0
H1888 H 0.22768 0.26308 0.78889 0.0
H1889 H 0.17404 0.33622 0.75705 0.0
H1890 H 0.23457 0.17586 0.75593 0.0
H1891 H 0.28779 0.13609 0.76276 0.0
H1892 H 0.35623 0.24129 0.7671 0.0
H1893 H 0.30366 0.28161 0.76019 0.0
C1894 C 0.12631 0.25119 0.72019 0.0
C1895 C 0.15374 0.25097 0.7131 0.0
C1896 C 0.139 0.25458 0.72908 0.0
C1897 C 0.1793 0.2589 0.73106 0.0
C1898 C 0.20695 0.25635 0.72404 0.0
C1899 C 0.19426 0.25224 0.71512 0.0
C1900 C 0.19201 0.26966 0.74032 0.0
C1901 C 0.22061 0.24664 0.74473 0.0
C1902 C 0.17575 0.30284 0.74478 0.0
C1903 C 0.14778 0.33028 0.74029 0.0
C1904 C 0.15835 0.34944 0.73224 0.0
C1905 C 0.13168 0.37479 0.72796 0.0
C1906 C 0.09446 0.3815 0.73171 0.0
C1907 C 0.08388 0.36296 0.73976 0.0
C1908 C 0.11042 0.33751 0.74406 0.0
C1909 C 0.23985 0.35165 0.77827 0.0
C1910 C 0.2368 0.3246 0.7854 0.0
C1911 C 0.23507 0.3392 0.76941 0.0
C1912 C 0.22639 0.2995 0.76746 0.0
C1913 C 0.22476 0.27202 0.77457 0.0
C1914 C 0.23041 0.28443 0.78349 0.0
C1915 C 0.21575 0.28822 0.75809 0.0
C1916 C 0.18722 0.31114 0.75363 0.0
C1917 C 0.23303 0.25575 0.75353 0.0
C1918 C 0.26496 0.23177 0.75763 0.0
C1919 C 0.26103 0.19048 0.75832 0.0
C1920 C 0.29107 0.16785 0.76221 0.0
C1921 C 0.32531 0.18617 0.76539 0.0
C1922 C 0.32962 0.22715 0.76467 0.0
C1923 C 0.29968 0.24992 0.76078 0.0
H1924 H 0.34852 0.1686 0.7684 0.0
H1925 H 0.07384 0.40112 0.72839 0.0
H1926 H 0.79397 0.69774 0.96477 0.0
H1927 H 0.79062 0.72503 0.98014 0.0
H1928 H 0.69471 0.64574 0.98631 0.0
H1929 H 0.69847 0.61783 0.97124 0.0
H1930 H 0.68635 0.73636 0.98998 0.0
H1931 H 0.76867 0.61685 0.99437 0.0
H1932 H 0.82877 0.57791 0.99133 0.0
H1933 H 0.9008 0.67536 0.99993 0.0
H1934 H 0.84102 0.71507 0.0029 0.0
H1935 H 0.62803 0.70791 0.03387 0.0
H1936 H 0.65074 0.70255 0.01842 0.0
H1937 H 0.76315 0.75269 0.02594 0.0
H1938 H 0.7408 0.75691 0.04164 0.0
H1939 H 0.77472 0.69368 0.01478 0.0
H1940 H 0.69471 0.80766 0.01384 0.0
H1941 H 0.63681 0.84991 0.01675 0.0
H1942 H 0.56388 0.77145 1.00127 0.0
H1943 H 0.6212 0.72836 0.99838 0.0
C1944 C 0.7724 0.68607 0.96944 0.0
C1945 C 0.74659 0.65557 0.96682 0.0
C1946 C 0.77054 0.70163 0.97819 0.0
C1947 C 0.74235 0.68734 0.98431 0.0
C1948 C 0.71661 0.65711 0.98167 0.0
C1949 C 0.71895 0.6411 0.97306 0.0
C1950 C 0.73857 0.70369 0.99348 0.0
C1951 C 0.70567 0.72729 0.99542 0.0
C1952 C 0.76473 0.69304 1.00047 0.0
C1953 C 0.80047 0.66908 0.99873 0.0
C1954 C 0.79733 0.6301 0.99552 0.0
C1955 C 0.83133 0.60786 0.99383 0.0
C1956 C 0.86859 0.6242 0.9954 0.0
C1957 C 0.87192 0.66278 0.9987 0.0
C1958 C 0.83801 0.68515 1.00038 0.0
C1959 C 0.65757 0.71797 0.03226 0.0
C1960 C 0.68254 0.73309 0.03897 0.0
C1961 C 0.67046 0.71512 0.02339 0.0
C1962 C 0.70835 0.72813 0.02094 0.0
C1963 C 0.73368 0.74278 0.02765 0.0
C1964 C 0.72088 0.74522 0.0366 0.0
C1965 C 0.72123 0.72503 0.0114 0.0
C1966 C 0.75584 0.70392 0.00936 0.0
C1967 C 0.69696 0.73868 0.00427 0.0
C1968 C 0.66231 0.76467 0.00592 0.0
C1969 C 0.66629 0.79928 0.01109 0.0
C1970 C 0.63356 0.8234 0.01274 0.0
C1971 C 0.59669 0.81335 0.0092 0.0
C1972 C 0.59248 0.7792 0.004 0.0
C1973 C 0.62511 0.75495 0.00234 0.0
H1974 H 0.57138 0.83205 0.01049 0.0
H1975 H 0.89488 0.60694 0.9941 0.0
H1976 H 0.38967 0.28493 0.03155 0.0
H1977 H 0.36417 0.28905 0.01626 0.0
H1978 H 0.2626 0.22008 0.02392 0.0
H1979 H 0.28766 0.21635 0.03946 0.0
H1980 H 0.31726 0.2057 0.00495 0.0
H1981 H 0.22977 0.293 0.0221 0.0
H1982 H 0.2182 0.34393 0.03368 0.0
H1983 H 0.29674 0.42323 0.01992 0.0
H1984 H 0.30918 0.37251 0.00833 0.0
H1985 H 0.23818 0.26402 0.96187 0.0
H1986 H 0.24394 0.24131 0.97751 0.0
H1987 H 0.30727 0.34815 0.98423 0.0
H1988 H 0.29991 0.3715 0.96885 0.0
H1989 H 0.25845 0.33515 0.99671 0.0
H1990 H 0.35206 0.25246 0.98082 0.0
H1991 H 0.37304 0.20357 0.96947 0.0
H1992 H 0.2932 0.11799 0.98065 0.0
H1993 H 0.27143 0.16657 0.99201 0.0
C1994 C 0.36208 0.27021 0.03001 0.0
C1995 C 0.34058 0.25043 0.03674 0.0
C1996 C 0.34762 0.27259 0.02125 0.0
C1997 C 0.3116 0.25491 0.019 0.0
C1998 C 0.29057 0.2338 0.02557 0.0
C1999 C 0.30484 0.23181 0.03442 0.0
C2000 C 0.29546 0.26136 0.00987 0.0
C2001 C 0.30335 0.23348 0.00313 0.0
C2002 C 0.27858 0.29812 0.00753 0.0
C2003 C 0.27061 0.32887 0.01439 0.0
C2004 C 0.24479 0.32119 0.02158 0.0
C2005 C 0.23803 0.35004 0.02814 0.0
C2006 C 0.25679 0.38677 0.02754 0.0
C2007 C 0.28224 0.39477 0.02037 0.0
C2008 C 0.28911 0.366 0.0138 0.0
C2009 C 0.25332 0.28253 0.96671 0.0
C2010 C 0.26853 0.31955 0.96415 0.0
C2011 C 0.25675 0.26949 0.97564 0.0
C2012 C 0.27632 0.29284 0.98209 0.0
C2013 C 0.29175 0.32964 0.97945 0.0
C2014 C 0.28766 0.34294 0.97062 0.0
C2015 C 0.28088 0.27977 0.99161 0.0
C2016 C 0.27114 0.3067 0.99846 0.0
C2017 C 0.29677 0.24239 0.99401 0.0
C2018 C 0.30975 0.21327 0.98718 0.0
C2019 C 0.33876 0.22331 0.98081 0.0
C2020 C 0.35083 0.19565 0.97439 0.0
C2021 C 0.33436 0.15775 0.97432 0.0
C2022 C 0.30586 0.14739 0.9807 0.0
C2023 C 0.29365 0.17496 0.98713 0.0
H2024 H 0.34376 0.13637 0.96935 0.0
H2025 H 0.25154 0.40906 0.03263 0.0
H2026 H 0.74683 0.77121 0.29461 0.0
H2027 H 0.74651 0.74506 0.27916 0.0
H2028 H 0.72048 0.86175 0.269 0.0
H2029 H 0.72123 0.88787 0.28421 0.0
H2030 H 0.68788 0.7427 0.267 0.0
H2031 H 0.76239 0.87784 0.24926 0.0
H2032 H 0.81551 0.92577 0.2524 0.0
H2033 H 0.86925 0.84378 0.27076 0.0
H2034 H 0.81682 0.7951 0.26763 0.0
H2035 H 0.61714 0.77268 0.22345 0.0
H2036 H 0.63951 0.77673 0.239 0.0
H2037 H 0.75857 0.75066 0.23057 0.0
H2038 H 0.73639 0.74739 0.21488 0.0
H2039 H 0.75935 0.80917 0.24208 0.0
H2040 H 0.70338 0.68126 0.24203 0.0
H2041 H 0.65373 0.62966 0.23899 0.0
H2042 H 0.57109 0.68874 0.25627 0.0
H2043 H 0.62002 0.74105 0.25931 0.0
C2044 C 0.74146 0.79125 0.28905 0.0
C2045 C 0.73411 0.8316 0.29063 0.0
C2046 C 0.74119 0.77629 0.28025 0.0
C2047 C 0.73402 0.80155 0.27291 0.0
C2048 C 0.72691 0.8418 0.27452 0.0
C2049 C 0.72709 0.85666 0.28325 0.0
C2050 C 0.73172 0.78625 0.26355 0.0
C2051 C 0.70381 0.75688 0.26155 0.0
C2052 C 0.75336 0.80394 0.25646 0.0
C2053 C 0.78549 0.83285 0.25824 0.0
C2054 C 0.78568 0.86989 0.25392 0.0
C2055 C 0.81564 0.89723 0.25571 0.0
C2056 C 0.84569 0.88785 0.26179 0.0
C2057 C 0.8459 0.85106 0.26607 0.0
C2058 C 0.81604 0.82359 0.2643 0.0
C2059 C 0.64808 0.76759 0.22489 0.0
C2060 C 0.67499 0.75969 0.21793 0.0
C2061 C 0.6608 0.76964 0.23381 0.0
C2062 C 0.70065 0.76334 0.236 0.0
C2063 C 0.72766 0.75542 0.22906 0.0
C2064 C 0.71494 0.75354 0.2201 0.0
C2065 C 0.714 0.7671 0.24549 0.0
C2066 C 0.74399 0.79434 0.24752 0.0
C2067 C 0.69489 0.74679 0.25261 0.0
C2068 C 0.66537 0.71521 0.25087 0.0
C2069 C 0.67454 0.68339 0.24515 0.0
C2070 C 0.64653 0.65399 0.24342 0.0
C2071 C 0.60926 0.65594 0.24742 0.0
C2072 C 0.59997 0.68726 0.25317 0.0
C2073 C 0.62787 0.71677 0.25491 0.0
H2074 H 0.58761 0.63316 0.24608 0.0
H2075 H 0.86884 0.90907 0.26317 0.0
H2076 H 0.26246 0.23118 0.46038 0.0
H2077 H 0.26428 0.25653 0.47585 0.0
H2078 H 0.23095 0.14132 0.48579 0.0
H2079 H 0.22972 0.11586 0.4705 0.0
H2080 H 0.20753 0.26322 0.48789 0.0
H2081 H 0.27013 0.12174 0.50565 0.0
H2082 H 0.31981 0.07013 0.50265 0.0
H2083 H 0.3802 0.14793 0.48444 0.0
H2084 H 0.33128 0.20029 0.48742 0.0
H2085 H 0.12668 0.22711 0.5297 0.0
H2086 H 0.15361 0.22647 0.51456 0.0
H2087 H 0.27027 0.24797 0.52513 0.0
H2088 H 0.24329 0.24826 0.54049 0.0
H2089 H 0.27115 0.18962 0.51288 0.0
H2090 H 0.22475 0.32063 0.51347 0.0
H2091 H 0.17887 0.37558 0.51654 0.0
H2092 H 0.09478 0.32598 0.49812 0.0
H2093 H 0.13987 0.27039 0.49503 0.0
C2094 C 0.25581 0.21127 0.46588 0.0
C2095 C 0.24597 0.17152 0.46422 0.0
C2096 C 0.25689 0.22577 0.47471 0.0
C2097 C 0.24843 0.20067 0.482 0.0
C2098 C 0.23856 0.16104 0.48031 0.0
C2099 C 0.23754 0.14659 0.47154 0.0
C2100 C 0.24721 0.21586 0.49137 0.0
C2101 C 0.22184 0.24748 0.49335 0.0
C2102 C 0.26698 0.19622 0.49849 0.0
C2103 C 0.29687 0.16495 0.49674 0.0
C2104 C 0.29415 0.12799 0.50105 0.0
C2105 C 0.32215 0.09855 0.49934 0.0
C2106 C 0.35312 0.10574 0.49335 0.0
C2107 C 0.35616 0.14238 0.48906 0.0
C2108 C 0.32826 0.17194 0.49075 0.0
C2109 C 0.15806 0.23198 0.52884 0.0
C2110 C 0.18287 0.23772 0.53631 0.0
C2111 C 0.17339 0.23191 0.52015 0.0
C2112 C 0.21386 0.2378 0.51868 0.0
C2113 C 0.23888 0.24366 0.52611 0.0
C2114 C 0.22345 0.24385 0.53487 0.0
C2115 C 0.22959 0.23527 0.50938 0.0
C2116 C 0.25767 0.20604 0.50742 0.0
C2117 C 0.21299 0.25767 0.50228 0.0
C2118 C 0.18573 0.29123 0.50404 0.0
C2119 C 0.19639 0.3213 0.51011 0.0
C2120 C 0.17052 0.35259 0.51185 0.0
C2121 C 0.13393 0.35426 0.50753 0.0
C2122 C 0.12316 0.32467 0.50145 0.0
C2123 C 0.1489 0.29329 0.49969 0.0
H2124 H 0.11393 0.3785 0.50889 0.0
H2125 H 0.37479 0.08294 0.49206 0.0
H2126 H 0.87517 0.69184 0.72129 0.0
H2127 H 0.85156 0.68112 0.73663 0.0
H2128 H 0.74285 0.74115 0.73023 0.0
H2129 H 0.766 0.75125 0.71469 0.0
H2130 H 0.78946 0.76432 0.74759 0.0
H2131 H 0.72821 0.65544 0.73194 0.0
H2132 H 0.7277 0.59883 0.72149 0.0
H2133 H 0.81549 0.54008 0.73749 0.0
H2134 H 0.81696 0.59664 0.74796 0.0
H2135 H 0.71895 0.70537 0.79142 0.0
H2136 H 0.72348 0.72381 0.77547 0.0
H2137 H 0.80996 0.63173 0.77133 0.0
H2138 H 0.8039 0.61217 0.78702 0.0
H2139 H 0.7617 0.6284 0.75848 0.0
H2140 H 0.83154 0.73635 0.77276 0.0
H2141 H 0.8393 0.79305 0.78304 0.0
H2142 H 0.74391 0.85332 0.76984 0.0
H2143 H 0.73531 0.79674 0.75953 0.0
C2144 C 0.84619 0.7027 0.72312 0.0
C2145 C 0.82237 0.72231 0.71679 0.0
C2146 C 0.83277 0.69656 0.73188 0.0
C2147 C 0.79555 0.71039 0.73453 0.0
C2148 C 0.77171 0.73034 0.72828 0.0
C2149 C 0.78485 0.73587 0.71942 0.0
C2150 C 0.78202 0.70332 0.74385 0.0
C2151 C 0.78249 0.7348 0.74999 0.0
C2152 C 0.77399 0.66466 0.74694 0.0
C2153 C 0.77289 0.63042 0.7407 0.0
C2154 C 0.74764 0.6306 0.73319 0.0
C2155 C 0.74713 0.59849 0.72727 0.0
C2156 C 0.7716 0.56591 0.72882 0.0
C2157 C 0.79656 0.56534 0.7363 0.0
C2158 C 0.7972 0.5974 0.74224 0.0
C2159 C 0.73903 0.68934 0.78708 0.0
C2160 C 0.76098 0.65729 0.79043 0.0
C2161 C 0.74172 0.69993 0.77798 0.0
C2162 C 0.76723 0.67931 0.77216 0.0
C2163 C 0.78975 0.64791 0.77562 0.0
C2164 C 0.7864 0.63683 0.78461 0.0
C2165 C 0.77035 0.68924 0.76241 0.0
C2166 C 0.76792 0.65818 0.75615 0.0
C2167 C 0.77737 0.72821 0.75926 0.0
C2168 C 0.78245 0.76213 0.76546 0.0
C2169 C 0.81202 0.76157 0.7721 0.0
C2170 C 0.81661 0.7937 0.77792 0.0
C2171 C 0.79202 0.8267 0.77712 0.0
C2172 C 0.76287 0.82769 0.77047 0.0
C2173 C 0.75813 0.79561 0.76463 0.0
H2174 H 0.79563 0.85156 0.78163 0.0
H2175 H 0.77117 0.54108 0.72422 0.0
loop_
_geom_bond_atom_site_label_1
_geom_bond_atom_site_label_2
_geom_bond_distance
_geom_bond_site_symmetry_2
_ccdc_geom_bond_type
Mn0 O5 2.095 . S
Mn0 O15 2.162 . S
Mn0 O16 2.297 . S
Mn0 O24 2.385 . S
Mn0 O25 2.209 . S
Mn0 O26 2.094 . S
Mn1 O6 2.121 . S
Mn1 N8 2.257 . S
Mn1 N17 2.282 . S
Mn1 O25 2.215 . S
Mn1 O27 2.117 . S
C2 O24 1.234 . S
C2 O25 1.283 . S
C3 O15 1.281 . S
C3 O16 1.236 . S
C4 O26 1.240 . S
C4 O27 1.264 . S
O5 Mn0 2.095 . S
O5 C14 1.250 . S
O6 Mn1 2.121 . S
O6 C14 1.258 . S
C7 N8 1.326 1_565 S
C7 C11 1.460 . S
C7 H13 0.929 . S
N8 Mn1 2.257 . S
N8 C7 1.326 1_545 S
N8 C12 1.362 1_545 S
C9 C10 1.258 . S
C9 C12 1.431 . S
C9 C29 1.449 . S
C10 C9 1.258 . S
C10 C11 1.477 . S
C10 H30 0.931 . S
C11 C7 1.460 . S
C11 C10 1.477 . S
C11 H31 0.930 . S
C12 N8 1.362 1_565 S
C12 C9 1.431 . S
C12 C22 1.476 1_565 S
H13 C7 0.929 . S
C14 O5 1.250 . S
C14 O6 1.258 . S
O15 Mn0 2.162 . S
O15 C3 1.281 . S
O16 Mn0 2.297 . S
O16 C3 1.236 . S
N17 Mn1 2.282 . S
N17 C18 1.328 . S
N17 C22 1.318 . S
C18 N17 1.328 . S
C18 C19 1.457 . S
C18 H23 0.929 . S
C19 C18 1.457 . S
C19 C20 1.291 . S
C19 H32 0.931 . S
C20 C19 1.291 . S
C20 C21 1.373 . S
C20 H33 0.929 . S
C21 C20 1.373 . S
C21 C22 1.396 . S
C21 C28 1.403 1_545 S
C22 C12 1.476 1_545 S
C22 N17 1.318 . S
C22 C21 1.396 . S
H23 C18 0.929 . S
O24 Mn0 2.385 . S
O24 C2 1.234 . S
O25 Mn0 2.209 . S
O25 Mn1 2.215 . S
O25 C2 1.283 . S
O26 Mn0 2.094 . S
O26 C4 1.240 . S
O27 Mn1 2.117 . S
O27 C4 1.264 . S
C28 C21 1.403 1_565 S
C28 C29 1.399 . S
C28 H34 0.929 . S
C29 C9 1.449 . S
C29 C28 1.399 . S
C29 H35 0.930 . S
H30 C10 0.931 . S
H31 C11 0.930 . S
H32 C19 0.931 . S
H33 C20 0.929 . S
H34 C28 0.929 . S
H35 C29 0.930 . S
Mn36 O41 2.095 . S
Mn36 O51 2.162 . S
Mn36 O52 2.297 . S
Mn36 O60 2.385 . S
Mn36 O61 2.209 . S
Mn36 O62 2.094 . S
Mn37 O42 2.121 . S
Mn37 N44 2.257 . S
Mn37 N53 2.282 . S
Mn37 O61 2.215 . S
Mn37 O63 2.117 . S
C38 O60 1.234 . S
C38 O61 1.283 . S
C39 O51 1.281 . S
C39 O52 1.236 . S
C40 O62 1.240 . S
C40 O63 1.264 . S
O41 Mn36 2.095 . S
O41 C50 1.250 . S
O42 Mn37 2.121 . S
O42 C50 1.258 . S
C43 N44 1.326 1_455 S
C43 C47 1.460 . S
C43 H49 0.929 . S
N44 Mn37 2.257 . S
N44 C43 1.326 1_655 S
N44 C48 1.362 1_655 S
C45 C46 1.258 . S
C45 C48 1.431 . S
C45 C65 1.449 . S
C46 C45 1.258 . S
C46 C47 1.477 . S
C46 H66 0.931 . S
C47 C43 1.460 . S
C47 C46 1.477 . S
C47 H67 0.930 . S
C48 N44 1.362 1_455 S
C48 C45 1.431 . S
C48 C58 1.476 1_455 S
H49 C43 0.929 . S
C50 O41 1.250 . S
C50 O42 1.258 . S
O51 Mn36 2.162 . S
O51 C39 1.281 . S
O52 Mn36 2.297 . S
O52 C39 1.236 . S
N53 Mn37 2.282 . S
N53 C54 1.328 . S
N53 C58 1.318 . S
C54 N53 1.328 . S
C54 C55 1.457 . S
C54 H59 0.929 . S
C55 C54 1.457 . S
C55 C56 1.291 . S
C55 H68 0.931 . S
C56 C55 1.291 . S
C56 C57 1.373 . S
C56 H69 0.929 . S
C57 C56 1.373 . S
C57 C58 1.396 . S
C57 C64 1.403 1_655 S
C58 C48 1.476 1_655 S
C58 N53 1.318 . S
C58 C57 1.396 . S
H59 C54 0.929 . S
O60 Mn36 2.385 . S
O60 C38 1.234 . S
O61 Mn36 2.209 . S
O61 Mn37 2.215 . S
O61 C38 1.283 . S
O62 Mn36 2.094 . S
O62 C40 1.240 . S
O63 Mn37 2.117 . S
O63 C40 1.264 . S
C64 C57 1.403 1_455 S
C64 C65 1.399 . S
C64 H70 0.929 . S
C65 C45 1.449 . S
C65 C64 1.399 . S
C65 H71 0.930 . S
H66 C46 0.931 . S
H67 C47 0.930 . S
H68 C55 0.931 . S
H69 C56 0.929 . S
H70 C64 0.929 . S
H71 C65 0.930 . S
Mn72 O77 2.095 . S
Mn72 O87 2.162 . S
Mn72 O88 2.297 . S
Mn72 O96 2.385 . S
Mn72 O97 2.209 . S
Mn72 O98 2.094 . S
Mn73 O78 2.121 . S
Mn73 N80 2.257 . S
Mn73 N89 2.282 . S
Mn73 O97 2.215 . S
Mn73 O99 2.117 . S
C74 O96 1.234 . S
C74 O97 1.283 . S
C75 O87 1.281 . S
C75 O88 1.236 . S
C76 O98 1.240 . S
C76 O99 1.264 . S
O77 Mn72 2.095 . S
O77 C86 1.250 . S
O78 Mn73 2.121 . S
O78 C86 1.258 . S
C79 N80 1.326 . S
C79 C83 1.460 . S
C79 H85 0.929 . S
N80 Mn73 2.257 . S
N80 C79 1.326 . S
N80 C84 1.362 . S
C81 C82 1.258 . S
C81 C84 1.431 . S
C81 C101 1.449 . S
C82 C81 1.258 . S
C82 C83 1.477 . S
C82 H102 0.931 . S
C83 C79 1.460 . S
C83 C82 1.477 . S
C83 H103 0.930 . S
C84 N80 1.362 . S
C84 C81 1.431 . S
C84 C94 1.476 . S
H85 C79 0.929 . S
C86 O77 1.250 . S
C86 O78 1.258 . S
O87 Mn72 2.162 . S
O87 C75 1.281 . S
O88 Mn72 2.297 . S
O88 C75 1.236 . S
N89 Mn73 2.282 . S
N89 C90 1.328 . S
N89 C94 1.318 . S
C90 N89 1.328 . S
C90 C91 1.457 . S
C90 H95 0.929 . S
C91 C90 1.457 . S
C91 C92 1.291 . S
C91 H104 0.931 . S
C92 C91 1.291 . S
C92 C93 1.373 . S
C92 H105 0.929 . S
C93 C92 1.373 . S
C93 C94 1.396 . S
C93 C100 1.403 . S
C94 C84 1.476 . S
C94 N89 1.318 . S
C94 C93 1.396 . S
H95 C90 0.929 . S
O96 Mn72 2.385 . S
O96 C74 1.234 . S
O97 Mn72 2.209 . S
O97 Mn73 2.215 . S
O97 C74 1.283 . S
O98 Mn72 2.094 . S
O98 C76 1.240 . S
O99 Mn73 2.117 . S
O99 C76 1.264 . S
C100 C93 1.403 . S
C100 C101 1.399 . S
C100 H106 0.929 . S
C101 C81 1.449 . S
C101 C100 1.399 . S
C101 H107 0.930 . S
H102 C82 0.931 . S
H103 C83 0.930 . S
H104 C91 0.931 . S
H105 C92 0.929 . S
H106 C100 0.929 . S
H107 C101 0.930 . S
Mn108 O113 2.095 . S
Mn108 O123 2.162 . S
Mn108 O124 2.297 . S
Mn108 O132 2.385 . S
Mn108 O133 2.209 . S
Mn108 O134 2.094 . S
Mn109 O114 2.121 . S
Mn109 N116 2.257 . S
Mn109 N125 2.282 . S
Mn109 O133 2.215 . S
Mn109 O135 2.117 . S
C110 O132 1.234 . S
C110 O133 1.283 . S
C111 O123 1.281 . S
C111 O124 1.236 . S
C112 O134 1.240 . S
C112 O135 1.264 . S
O113 Mn108 2.095 . S
O113 C122 1.250 . S
O114 Mn109 2.121 . S
O114 C122 1.258 . S
C115 N116 1.326 . S
C115 C119 1.460 . S
C115 H121 0.929 . S
N116 Mn109 2.257 . S
N116 C115 1.326 . S
N116 C120 1.362 . S
C117 C118 1.258 . S
C117 C120 1.431 . S
C117 C137 1.449 . S
C118 C117 1.258 . S
C118 C119 1.477 . S
C118 H138 0.931 . S
C119 C115 1.460 . S
C119 C118 1.477 . S
C119 H139 0.930 . S
C120 N116 1.362 . S
C120 C117 1.431 . S
C120 C130 1.476 . S
H121 C115 0.929 . S
C122 O113 1.250 . S
C122 O114 1.258 . S
O123 Mn108 2.162 . S
O123 C111 1.281 . S
O124 Mn108 2.297 . S
O124 C111 1.236 . S
N125 Mn109 2.282 . S
N125 C126 1.328 . S
N125 C130 1.318 . S
C126 N125 1.328 . S
C126 C127 1.457 . S
C126 H131 0.929 . S
C127 C126 1.457 . S
C127 C128 1.291 . S
C127 H140 0.931 . S
C128 C127 1.291 . S
C128 C129 1.373 . S
C128 H141 0.929 . S
C129 C128 1.373 . S
C129 C130 1.396 . S
C129 C136 1.403 . S
C130 C120 1.476 . S
C130 N125 1.318 . S
C130 C129 1.396 . S
H131 C126 0.929 . S
O132 Mn108 2.385 . S
O132 C110 1.234 . S
O133 Mn108 2.209 . S
O133 Mn109 2.215 . S
O133 C110 1.283 . S
O134 Mn108 2.094 . S
O134 C112 1.240 . S
O135 Mn109 2.117 . S
O135 C112 1.264 . S
C136 C129 1.403 . S
C136 C137 1.399 . S
C136 H142 0.929 . S
C137 C117 1.449 . S
C137 C136 1.399 . S
C137 H143 0.930 . S
H138 C118 0.931 . S
H139 C119 0.930 . S
H140 C127 0.931 . S
H141 C128 0.929 . S
H142 C136 0.929 . S
H143 C137 0.930 . S
Mn144 O149 2.095 . S
Mn144 O159 2.162 . S
Mn144 O160 2.297 . S
Mn144 O168 2.385 . S
Mn144 O169 2.209 . S
Mn144 O170 2.094 . S
Mn145 O150 2.121 . S
Mn145 N152 2.257 . S
Mn145 N161 2.282 . S
Mn145 O169 2.215 . S
Mn145 O171 2.117 . S
C146 O168 1.234 . S
C146 O169 1.283 . S
C147 O159 1.281 . S
C147 O160 1.236 . S
C148 O170 1.240 . S
C148 O171 1.264 . S
O149 Mn144 2.095 . S
O149 C158 1.250 . S
O150 Mn145 2.121 . S
O150 C158 1.258 . S
C151 N152 1.326 . S
C151 C155 1.460 . S
C151 H157 0.929 . S
N152 Mn145 2.257 . S
N152 C151 1.326 . S
N152 C156 1.362 . S
C153 C154 1.258 . S
C153 C156 1.431 . S
C153 C173 1.449 . S
C154 C153 1.258 . S
C154 C155 1.477 . S
C154 H174 0.931 . S
C155 C151 1.460 . S
C155 C154 1.477 . S
C155 H175 0.930 . S
C156 N152 1.362 . S
C156 C153 1.431 . S
C156 C166 1.476 . S
H157 C151 0.929 . S
C158 O149 1.250 . S
C158 O150 1.258 . S
O159 Mn144 2.162 . S
O159 C147 1.281 . S
O160 Mn144 2.297 . S
O160 C147 1.236 . S
N161 Mn145 2.282 . S
N161 C162 1.328 . S
N161 C166 1.318 . S
C162 N161 1.328 . S
C162 C163 1.457 . S
C162 H167 0.929 . S
C163 C162 1.457 . S
C163 C164 1.291 . S
C163 H176 0.931 . S
C164 C163 1.291 . S
C164 C165 1.373 . S
C164 H177 0.929 . S
C165 C164 1.373 . S
C165 C166 1.396 . S
C165 C172 1.403 . S
C166 C156 1.476 . S
C166 N161 1.318 . S
C166 C165 1.396 . S
H167 C162 0.929 . S
O168 Mn144 2.385 . S
O168 C146 1.234 . S
O169 Mn144 2.209 . S
O169 Mn145 2.215 . S
O169 C146 1.283 . S
O170 Mn144 2.094 . S
O170 C148 1.240 . S
O171 Mn145 2.117 . S
O171 C148 1.264 . S
C172 C165 1.403 . S
C172 C173 1.399 . S
C172 H178 0.929 . S
C173 C153 1.449 . S
C173 C172 1.399 . S
C173 H179 0.930 . S
H174 C154 0.931 . S
H175 C155 0.930 . S
H176 C163 0.931 . S
H177 C164 0.929 . S
H178 C172 0.929 . S
H179 C173 0.930 . S
Mn180 O185 2.095 . S
Mn180 O195 2.162 . S
Mn180 O196 2.297 . S
Mn180 O204 2.385 . S
Mn180 O205 2.209 . S
Mn180 O206 2.094 . S
Mn181 O186 2.121 . S
Mn181 N188 2.257 . S
Mn181 N197 2.282 . S
Mn181 O205 2.215 . S
Mn181 O207 2.117 . S
C182 O204 1.234 . S
C182 O205 1.283 . S
C183 O195 1.281 . S
C183 O196 1.236 . S
C184 O206 1.240 . S
C184 O207 1.264 . S
O185 Mn180 2.095 . S
O185 C194 1.250 . S
O186 Mn181 2.121 . S
O186 C194 1.258 . S
C187 N188 1.326 . S
C187 C191 1.460 . S
C187 H193 0.929 . S
N188 Mn181 2.257 . S
N188 C187 1.326 . S
N188 C192 1.362 . S
C189 C190 1.258 . S
C189 C192 1.431 . S
C189 C209 1.449 . S
C190 C189 1.258 . S
C190 C191 1.477 . S
C190 H210 0.931 . S
C191 C187 1.460 . S
C191 C190 1.477 . S
C191 H211 0.930 . S
C192 N188 1.362 . S
C192 C189 1.431 . S
C192 C202 1.476 . S
H193 C187 0.929 . S
C194 O185 1.250 . S
C194 O186 1.258 . S
O195 Mn180 2.162 . S
O195 C183 1.281 . S
O196 Mn180 2.297 . S
O196 C183 1.236 . S
N197 Mn181 2.282 . S
N197 C198 1.328 . S
N197 C202 1.318 . S
C198 N197 1.328 . S
C198 C199 1.457 . S
C198 H203 0.929 . S
C199 C198 1.457 . S
C199 C200 1.291 . S
C199 H212 0.931 . S
C200 C199 1.291 . S
C200 C201 1.373 . S
C200 H213 0.929 . S
C201 C200 1.373 . S
C201 C202 1.396 . S
C201 C208 1.403 . S
C202 C192 1.476 . S
C202 N197 1.318 . S
C202 C201 1.396 . S
H203 C198 0.929 . S
O204 Mn180 2.385 . S
O204 C182 1.234 . S
O205 Mn180 2.209 . S
O205 Mn181 2.215 . S
O205 C182 1.283 . S
O206 Mn180 2.094 . S
O206 C184 1.240 . S
O207 Mn181 2.117 . S
O207 C184 1.264 . S
C208 C201 1.403 . S
C208 C209 1.399 . S
C208 H214 0.929 . S
C209 C189 1.449 . S
C209 C208 1.399 . S
C209 H215 0.930 . S
H210 C190 0.931 . S
H211 C191 0.930 . S
H212 C199 0.931 . S
H213 C200 0.929 . S
H214 C208 0.929 . S
H215 C209 0.930 . S
Mn216 O221 2.095 . S
Mn216 O231 2.162 . S
Mn216 O232 2.297 . S
Mn216 O240 2.385 . S
Mn216 O241 2.209 . S
Mn216 O242 2.094 . S
Mn217 O222 2.121 . S
Mn217 N224 2.257 . S
Mn217 N233 2.282 . S
Mn217 O241 2.215 . S
Mn217 O243 2.117 . S
C218 O240 1.234 . S
C218 O241 1.283 . S
C219 O231 1.281 . S
C219 O232 1.236 . S
C220 O242 1.240 . S
C220 O243 1.264 . S
O221 Mn216 2.095 . S
O221 C230 1.250 . S
O222 Mn217 2.121 . S
O222 C230 1.258 . S
C223 N224 1.326 1_565 S
C223 C227 1.460 . S
C223 H229 0.929 . S
N224 Mn217 2.257 . S
N224 C223 1.326 1_545 S
N224 C228 1.362 1_545 S
C225 C226 1.258 . S
C225 C228 1.431 . S
C225 C245 1.449 . S
C226 C225 1.258 . S
C226 C227 1.477 . S
C226 H246 0.931 . S
C227 C223 1.460 . S
C227 C226 1.477 . S
C227 H247 0.930 . S
C228 N224 1.362 1_565 S
C228 C225 1.431 . S
C228 C238 1.476 1_565 S
H229 C223 0.929 . S
C230 O221 1.250 . S
C230 O222 1.258 . S
O231 Mn216 2.162 . S
O231 C219 1.281 . S
O232 Mn216 2.297 . S
O232 C219 1.236 . S
N233 Mn217 2.282 . S
N233 C234 1.328 . S
N233 C238 1.318 . S
C234 N233 1.328 . S
C234 C235 1.457 . S
C234 H239 0.929 . S
C235 C234 1.457 . S
C235 C236 1.291 . S
C235 H248 0.931 . S
C236 C235 1.291 . S
C236 C237 1.373 . S
C236 H249 0.929 . S
C237 C236 1.373 . S
C237 C238 1.396 . S
C237 C244 1.403 1_545 S
C238 C228 1.476 1_545 S
C238 N233 1.318 . S
C238 C237 1.396 . S
H239 C234 0.929 . S
O240 Mn216 2.385 . S
O240 C218 1.234 . S
O241 Mn216 2.209 . S
O241 Mn217 2.215 . S
O241 C218 1.283 . S
O242 Mn216 2.094 . S
O242 C220 1.240 . S
O243 Mn217 2.117 . S
O243 C220 1.264 . S
C244 C237 1.403 1_565 S
C244 C245 1.399 . S
C244 H250 0.929 . S
C245 C225 1.449 . S
C245 C244 1.399 . S
C245 H251 0.930 . S
H246 C226 0.931 . S
H247 C227 0.930 . S
H248 C235 0.931 . S
H249 C236 0.929 . S
H250 C244 0.929 . S
H251 C245 0.930 . S
Mn252 O257 2.095 . S
Mn252 O267 2.162 . S
Mn252 O268 2.297 . S
Mn252 O276 2.385 . S
Mn252 O277 2.209 . S
Mn252 O278 2.094 . S
Mn253 O258 2.121 . S
Mn253 N260 2.257 . S
Mn253 N269 2.282 . S
Mn253 O277 2.215 . S
Mn253 O279 2.117 . S
C254 O276 1.234 . S
C254 O277 1.283 . S
C255 O267 1.281 . S
C255 O268 1.236 . S
C256 O278 1.240 . S
C256 O279 1.264 . S
O257 Mn252 2.095 . S
O257 C266 1.250 . S
O258 Mn253 2.121 . S
O258 C266 1.258 . S
C259 N260 1.326 1_455 S
C259 C263 1.460 . S
C259 H265 0.929 . S
N260 Mn253 2.257 . S
N260 C259 1.326 1_655 S
N260 C264 1.362 1_655 S
C261 C262 1.258 . S
C261 C264 1.431 . S
C261 C281 1.449 . S
C262 C261 1.258 . S
C262 C263 1.477 . S
C262 H282 0.931 . S
C263 C259 1.460 . S
C263 C262 1.477 . S
C263 H283 0.930 . S
C264 N260 1.362 1_455 S
C264 C261 1.431 . S
C264 C274 1.476 1_455 S
H265 C259 0.929 . S
C266 O257 1.250 . S
C266 O258 1.258 . S
O267 Mn252 2.162 . S
O267 C255 1.281 . S
O268 Mn252 2.297 . S
O268 C255 1.236 . S
N269 Mn253 2.282 . S
N269 C270 1.328 . S
N269 C274 1.318 . S
C270 N269 1.328 . S
C270 C271 1.457 . S
C270 H275 0.929 . S
C271 C270 1.457 . S
C271 C272 1.291 . S
C271 H284 0.931 . S
C272 C271 1.291 . S
C272 C273 1.373 . S
C272 H285 0.929 . S
C273 C272 1.373 . S
C273 C274 1.396 . S
C273 C280 1.403 1_655 S
C274 C264 1.476 1_655 S
C274 N269 1.318 . S
C274 C273 1.396 . S
H275 C270 0.929 . S
O276 Mn252 2.385 . S
O276 C254 1.234 . S
O277 Mn252 2.209 . S
O277 Mn253 2.215 . S
O277 C254 1.283 . S
O278 Mn252 2.094 . S
O278 C256 1.240 . S
O279 Mn253 2.117 . S
O279 C256 1.264 . S
C280 C273 1.403 1_455 S
C280 C281 1.399 . S
C280 H286 0.929 . S
C281 C261 1.449 . S
C281 C280 1.399 . S
C281 H287 0.930 . S
H282 C262 0.931 . S
H283 C263 0.930 . S
H284 C271 0.931 . S
H285 C272 0.929 . S
H286 C280 0.929 . S
H287 C281 0.930 . S
Mn288 O293 2.095 . S
Mn288 O303 2.162 . S
Mn288 O304 2.297 . S
Mn288 O312 2.385 . S
Mn288 O313 2.209 . S
Mn288 O314 2.094 . S
Mn289 O294 2.121 . S
Mn289 N296 2.257 . S
Mn289 N305 2.282 . S
Mn289 O313 2.215 . S
Mn289 O315 2.117 . S
C290 O312 1.234 . S
C290 O313 1.283 . S
C291 O303 1.281 . S
C291 O304 1.236 . S
C292 O314 1.240 . S
C292 O315 1.264 . S
O293 Mn288 2.095 . S
O293 C302 1.250 . S
O294 Mn289 2.121 . S
O294 C302 1.258 . S
C295 N296 1.326 . S
C295 C299 1.460 . S
C295 H301 0.929 . S
N296 Mn289 2.257 . S
N296 C295 1.326 . S
N296 C300 1.362 . S
C297 C298 1.258 . S
C297 C300 1.431 . S
C297 C317 1.449 . S
C298 C297 1.258 . S
C298 C299 1.477 . S
C298 H318 0.931 . S
C299 C295 1.460 . S
C299 C298 1.477 . S
C299 H319 0.930 . S
C300 N296 1.362 . S
C300 C297 1.431 . S
C300 C310 1.476 . S
H301 C295 0.929 . S
C302 O293 1.250 . S
C302 O294 1.258 . S
O303 Mn288 2.162 . S
O303 C291 1.281 . S
O304 Mn288 2.297 . S
O304 C291 1.236 . S
N305 Mn289 2.282 . S
N305 C306 1.328 . S
N305 C310 1.318 . S
C306 N305 1.328 . S
C306 C307 1.457 . S
C306 H311 0.929 . S
C307 C306 1.457 . S
C307 C308 1.291 . S
C307 H320 0.931 . S
C308 C307 1.291 . S
C308 C309 1.373 . S
C308 H321 0.929 . S
C309 C308 1.373 . S
C309 C310 1.396 . S
C309 C316 1.403 . S
C310 C300 1.476 . S
C310 N305 1.318 . S
C310 C309 1.396 . S
H311 C306 0.929 . S
O312 Mn288 2.385 . S
O312 C290 1.234 . S
O313 Mn288 2.209 . S
O313 Mn289 2.215 . S
O313 C290 1.283 . S
O314 Mn288 2.094 . S
O314 C292 1.240 . S
O315 Mn289 2.117 . S
O315 C292 1.264 . S
C316 C309 1.403 . S
C316 C317 1.399 . S
C316 H322 0.929 . S
C317 C297 1.449 . S
C317 C316 1.399 . S
C317 H323 0.930 . S
H318 C298 0.931 . S
H319 C299 0.930 . S
H320 C307 0.931 . S
H321 C308 0.929 . S
H322 C316 0.929 . S
H323 C317 0.930 . S
Mn324 O329 2.095 . S
Mn324 O339 2.162 . S
Mn324 O340 2.297 . S
Mn324 O348 2.385 . S
Mn324 O349 2.209 . S
Mn324 O350 2.094 . S
Mn325 O330 2.121 . S
Mn325 N332 2.257 . S
Mn325 N341 2.282 . S
Mn325 O349 2.215 . S
Mn325 O351 2.117 . S
C326 O348 1.234 . S
C326 O349 1.283 . S
C327 O339 1.281 . S
C327 O340 1.236 . S
C328 O350 1.240 . S
C328 O351 1.264 . S
O329 Mn324 2.095 . S
O329 C338 1.250 . S
O330 Mn325 2.121 . S
O330 C338 1.258 . S
C331 N332 1.326 . S
C331 C335 1.460 . S
C331 H337 0.929 . S
N332 Mn325 2.257 . S
N332 C331 1.326 . S
N332 C336 1.362 . S
C333 C334 1.258 . S
C333 C336 1.431 . S
C333 C353 1.449 . S
C334 C333 1.258 . S
C334 C335 1.477 . S
C334 H354 0.931 . S
C335 C331 1.460 . S
C335 C334 1.477 . S
C335 H355 0.930 . S
C336 N332 1.362 . S
C336 C333 1.431 . S
C336 C346 1.476 . S
H337 C331 0.929 . S
C338 O329 1.250 . S
C338 O330 1.258 . S
O339 Mn324 2.162 . S
O339 C327 1.281 . S
O340 Mn324 2.297 . S
O340 C327 1.236 . S
N341 Mn325 2.282 . S
N341 C342 1.328 . S
N341 C346 1.318 . S
C342 N341 1.328 . S
C342 C343 1.457 . S
C342 H347 0.929 . S
C343 C342 1.457 . S
C343 C344 1.291 . S
C343 H356 0.931 . S
C344 C343 1.291 . S
C344 C345 1.373 . S
C344 H357 0.929 . S
C345 C344 1.373 . S
C345 C346 1.396 . S
C345 C352 1.403 . S
C346 C336 1.476 . S
C346 N341 1.318 . S
C346 C345 1.396 . S
H347 C342 0.929 . S
O348 Mn324 2.385 . S
O348 C326 1.234 . S
O349 Mn324 2.209 . S
O349 Mn325 2.215 . S
O349 C326 1.283 . S
O350 Mn324 2.094 . S
O350 C328 1.240 . S
O351 Mn325 2.117 . S
O351 C328 1.264 . S
C352 C345 1.403 . S
C352 C353 1.399 . S
C352 H358 0.929 . S
C353 C333 1.449 . S
C353 C352 1.399 . S
C353 H359 0.930 . S
H354 C334 0.931 . S
H355 C335 0.930 . S
H356 C343 0.931 . S
H357 C344 0.929 . S
H358 C352 0.929 . S
H359 C353 0.930 . S
Mn360 O365 2.095 . S
Mn360 O375 2.162 . S
Mn360 O376 2.297 . S
Mn360 O384 2.385 . S
Mn360 O385 2.209 . S
Mn360 O386 2.094 . S
Mn361 O366 2.121 . S
Mn361 N368 2.257 . S
Mn361 N377 2.282 . S
Mn361 O385 2.215 . S
Mn361 O387 2.117 . S
C362 O384 1.234 . S
C362 O385 1.283 . S
C363 O375 1.281 . S
C363 O376 1.236 . S
C364 O386 1.240 . S
C364 O387 1.264 . S
O365 Mn360 2.095 . S
O365 C374 1.250 . S
O366 Mn361 2.121 . S
O366 C374 1.258 . S
C367 N368 1.326 1_545 S
C367 C371 1.460 . S
C367 H373 0.929 . S
N368 Mn361 2.257 . S
N368 C367 1.326 1_565 S
N368 C372 1.362 1_565 S
C369 C370 1.258 . S
C369 C372 1.431 . S
C369 C389 1.449 . S
C370 C369 1.258 . S
C370 C371 1.477 . S
C370 H390 0.931 . S
C371 C367 1.460 . S
C371 C370 1.477 . S
C371 H391 0.930 . S
C372 N368 1.362 1_545 S
C372 C369 1.431 . S
C372 C382 1.476 1_545 S
H373 C367 0.929 . S
C374 O365 1.250 . S
C374 O366 1.258 . S
O375 Mn360 2.162 . S
O375 C363 1.281 . S
O376 Mn360 2.297 . S
O376 C363 1.236 . S
N377 Mn361 2.282 . S
N377 C378 1.328 . S
N377 C382 1.318 . S
C378 N377 1.328 . S
C378 C379 1.457 . S
C378 H383 0.929 . S
C379 C378 1.457 . S
C379 C380 1.291 . S
C379 H392 0.931 . S
C380 C379 1.291 . S
C380 C381 1.373 . S
C380 H393 0.929 . S
C381 C380 1.373 . S
C381 C382 1.396 . S
C381 C388 1.403 1_565 S
C382 C372 1.476 1_565 S
C382 N377 1.318 . S
C382 C381 1.396 . S
H383 C378 0.929 . S
O384 Mn360 2.385 . S
O384 C362 1.234 . S
O385 Mn360 2.209 . S
O385 Mn361 2.215 . S
O385 C362 1.283 . S
O386 Mn360 2.094 . S
O386 C364 1.240 . S
O387 Mn361 2.117 . S
O387 C364 1.264 . S
C388 C381 1.403 1_545 S
C388 C389 1.399 . S
C388 H394 0.929 . S
C389 C369 1.449 . S
C389 C388 1.399 . S
C389 H395 0.930 . S
H390 C370 0.931 . S
H391 C371 0.930 . S
H392 C379 0.931 . S
H393 C380 0.929 . S
H394 C388 0.929 . S
H395 C389 0.930 . S
Mn396 O401 2.095 . S
Mn396 O411 2.162 . S
Mn396 O412 2.297 . S
Mn396 O420 2.385 . S
Mn396 O421 2.209 . S
Mn396 O422 2.094 . S
Mn397 O402 2.121 . S
Mn397 N404 2.257 . S
Mn397 N413 2.282 . S
Mn397 O421 2.215 . S
Mn397 O423 2.117 . S
C398 O420 1.234 . S
C398 O421 1.283 . S
C399 O411 1.281 . S
C399 O412 1.236 . S
C400 O422 1.240 . S
C400 O423 1.264 . S
O401 Mn396 2.095 . S
O401 C410 1.250 . S
O402 Mn397 2.121 . S
O402 C410 1.258 . S
C403 N404 1.326 1_655 S
C403 C407 1.460 . S
C403 H409 0.929 . S
N404 Mn397 2.257 . S
N404 C403 1.326 1_455 S
N404 C408 1.362 1_455 S
C405 C406 1.258 . S
C405 C408 1.431 . S
C405 C425 1.449 . S
C406 C405 1.258 . S
C406 C407 1.477 . S
C406 H426 0.931 . S
C407 C403 1.460 . S
C407 C406 1.477 . S
C407 H427 0.930 . S
C408 N404 1.362 1_655 S
C408 C405 1.431 . S
C408 C418 1.476 1_655 S
H409 C403 0.929 . S
C410 O401 1.250 . S
C410 O402 1.258 . S
O411 Mn396 2.162 . S
O411 C399 1.281 . S
O412 Mn396 2.297 . S
O412 C399 1.236 . S
N413 Mn397 2.282 . S
N413 C414 1.328 . S
N413 C418 1.318 . S
C414 N413 1.328 . S
C414 C415 1.457 . S
C414 H419 0.929 . S
C415 C414 1.457 . S
C415 C416 1.291 . S
C415 H428 0.931 . S
C416 C415 1.291 . S
C416 C417 1.373 . S
C416 H429 0.929 . S
C417 C416 1.373 . S
C417 C418 1.396 . S
C417 C424 1.403 1_455 S
C418 C408 1.476 1_455 S
C418 N413 1.318 . S
C418 C417 1.396 . S
H419 C414 0.929 . S
O420 Mn396 2.385 . S
O420 C398 1.234 . S
O421 Mn396 2.209 . S
O421 Mn397 2.215 . S
O421 C398 1.283 . S
O422 Mn396 2.094 . S
O422 C400 1.240 . S
O423 Mn397 2.117 . S
O423 C400 1.264 . S
C424 C417 1.403 1_655 S
C424 C425 1.399 . S
C424 H430 0.929 . S
C425 C405 1.449 . S
C425 C424 1.399 . S
C425 H431 0.930 . S
H426 C406 0.931 . S
H427 C407 0.930 . S
H428 C415 0.931 . S
H429 C416 0.929 . S
H430 C424 0.929 . S
H431 C425 0.930 . S
Mn432 O437 2.095 . S
Mn432 O447 2.162 . S
Mn432 O448 2.297 . S
Mn432 O456 2.385 . S
Mn432 O457 2.209 . S
Mn432 O458 2.094 . S
Mn433 O438 2.121 . S
Mn433 N440 2.257 . S
Mn433 N449 2.282 . S
Mn433 O457 2.215 . S
Mn433 O459 2.117 . S
C434 O456 1.234 . S
C434 O457 1.283 . S
C435 O447 1.281 . S
C435 O448 1.236 . S
C436 O458 1.240 . S
C436 O459 1.264 . S
O437 Mn432 2.095 . S
O437 C446 1.250 . S
O438 Mn433 2.121 . S
O438 C446 1.258 . S
C439 N440 1.326 1_545 S
C439 C443 1.460 . S
C439 H445 0.929 . S
N440 Mn433 2.257 . S
N440 C439 1.326 1_565 S
N440 C444 1.362 1_565 S
C441 C442 1.258 . S
C441 C444 1.431 . S
C441 C461 1.449 . S
C442 C441 1.258 . S
C442 C443 1.477 . S
C442 H462 0.931 . S
C443 C439 1.460 . S
C443 C442 1.477 . S
C443 H463 0.930 . S
C444 N440 1.362 1_545 S
C444 C441 1.431 . S
C444 C454 1.476 1_545 S
H445 C439 0.929 . S
C446 O437 1.250 . S
C446 O438 1.258 . S
O447 Mn432 2.162 . S
O447 C435 1.281 . S
O448 Mn432 2.297 . S
O448 C435 1.236 . S
N449 Mn433 2.282 . S
N449 C450 1.328 . S
N449 C454 1.318 . S
C450 N449 1.328 . S
C450 C451 1.457 . S
C450 H455 0.929 . S
C451 C450 1.457 . S
C451 C452 1.291 . S
C451 H464 0.931 . S
C452 C451 1.291 . S
C452 C453 1.373 . S
C452 H465 0.929 . S
C453 C452 1.373 . S
C453 C454 1.396 . S
C453 C460 1.403 1_565 S
C454 C444 1.476 1_565 S
C454 N449 1.318 . S
C454 C453 1.396 . S
H455 C450 0.929 . S
O456 Mn432 2.385 . S
O456 C434 1.234 . S
O457 Mn432 2.209 . S
O457 Mn433 2.215 . S
O457 C434 1.283 . S
O458 Mn432 2.094 . S
O458 C436 1.240 . S
O459 Mn433 2.117 . S
O459 C436 1.264 . S
C460 C453 1.403 1_545 S
C460 C461 1.399 . S
C460 H466 0.929 . S
C461 C441 1.449 . S
C461 C460 1.399 . S
C461 H467 0.930 . S
H462 C442 0.931 . S
H463 C443 0.930 . S
H464 C451 0.931 . S
H465 C452 0.929 . S
H466 C460 0.929 . S
H467 C461 0.930 . S
Mn468 O473 2.095 . S
Mn468 O483 2.162 . S
Mn468 O484 2.297 . S
Mn468 O492 2.385 . S
Mn468 O493 2.209 . S
Mn468 O494 2.094 . S
Mn469 O474 2.121 . S
Mn469 N476 2.257 . S
Mn469 N485 2.282 . S
Mn469 O493 2.215 . S
Mn469 O495 2.117 . S
C470 O492 1.234 . S
C470 O493 1.283 . S
C471 O483 1.281 . S
C471 O484 1.236 . S
C472 O494 1.240 . S
C472 O495 1.264 . S
O473 Mn468 2.095 . S
O473 C482 1.250 . S
O474 Mn469 2.121 . S
O474 C482 1.258 . S
C475 N476 1.326 1_655 S
C475 C479 1.460 . S
C475 H481 0.929 . S
N476 Mn469 2.257 . S
N476 C475 1.326 1_455 S
N476 C480 1.362 1_455 S
C477 C478 1.258 . S
C477 C480 1.431 . S
C477 C497 1.449 . S
C478 C477 1.258 . S
C478 C479 1.477 . S
C478 H498 0.931 . S
C479 C475 1.460 . S
C479 C478 1.477 . S
C479 H499 0.930 . S
C480 N476 1.362 1_655 S
C480 C477 1.431 . S
C480 C490 1.476 1_655 S
H481 C475 0.929 . S
C482 O473 1.250 . S
C482 O474 1.258 . S
O483 Mn468 2.162 . S
O483 C471 1.281 . S
O484 Mn468 2.297 . S
O484 C471 1.236 . S
N485 Mn469 2.282 . S
N485 C486 1.328 . S
N485 C490 1.318 . S
C486 N485 1.328 . S
C486 C487 1.457 . S
C486 H491 0.929 . S
C487 C486 1.457 . S
C487 C488 1.291 . S
C487 H500 0.931 . S
C488 C487 1.291 . S
C488 C489 1.373 . S
C488 H501 0.929 . S
C489 C488 1.373 . S
C489 C490 1.396 . S
C489 C496 1.403 1_455 S
C490 C480 1.476 1_455 S
C490 N485 1.318 . S
C490 C489 1.396 . S
H491 C486 0.929 . S
O492 Mn468 2.385 . S
O492 C470 1.234 . S
O493 Mn468 2.209 . S
O493 Mn469 2.215 . S
O493 C470 1.283 . S
O494 Mn468 2.094 . S
O494 C472 1.240 . S
O495 Mn469 2.117 . S
O495 C472 1.264 . S
C496 C489 1.403 1_655 S
C496 C497 1.399 . S
C496 H502 0.929 . S
C497 C477 1.449 . S
C497 C496 1.399 . S
C497 H503 0.930 . S
H498 C478 0.931 . S
H499 C479 0.930 . S
H500 C487 0.931 . S
H501 C488 0.929 . S
H502 C496 0.929 . S
H503 C497 0.930 . S
Mn504 O509 2.095 . S
Mn504 O519 2.162 . S
Mn504 O520 2.297 . S
Mn504 O528 2.385 . S
Mn504 O529 2.209 . S
Mn504 O530 2.094 . S
Mn505 O510 2.121 . S
Mn505 N512 2.257 . S
Mn505 N521 2.282 . S
Mn505 O529 2.215 . S
Mn505 O531 2.117 . S
C506 O528 1.234 . S
C506 O529 1.283 . S
C507 O519 1.281 . S
C507 O520 1.236 . S
C508 O530 1.240 . S
C508 O531 1.264 . S
O509 Mn504 2.095 . S
O509 C518 1.250 . S
O510 Mn505 2.121 . S
O510 C518 1.258 . S
C511 N512 1.326 . S
C511 C515 1.460 . S
C511 H517 0.929 . S
N512 Mn505 2.257 . S
N512 C511 1.326 . S
N512 C516 1.362 . S
C513 C514 1.258 . S
C513 C516 1.431 . S
C513 C533 1.449 . S
C514 C513 1.258 . S
C514 C515 1.477 . S
C514 H534 0.931 . S
C515 C511 1.460 . S
C515 C514 1.477 . S
C515 H535 0.930 . S
C516 N512 1.362 . S
C516 C513 1.431 . S
C516 C526 1.476 . S
H517 C511 0.929 . S
C518 O509 1.250 . S
C518 O510 1.258 . S
O519 Mn504 2.162 . S
O519 C507 1.281 . S
O520 Mn504 2.297 . S
O520 C507 1.236 . S
N521 Mn505 2.282 . S
N521 C522 1.328 . S
N521 C526 1.318 . S
C522 N521 1.328 . S
C522 C523 1.457 . S
C522 H527 0.929 . S
C523 C522 1.457 . S
C523 C524 1.291 . S
C523 H536 0.931 . S
C524 C523 1.291 . S
C524 C525 1.373 . S
C524 H537 0.929 . S
C525 C524 1.373 . S
C525 C526 1.396 . S
C525 C532 1.403 . S
C526 C516 1.476 . S
C526 N521 1.318 . S
C526 C525 1.396 . S
H527 C522 0.929 . S
O528 Mn504 2.385 . S
O528 C506 1.234 . S
O529 Mn504 2.209 . S
O529 Mn505 2.215 . S
O529 C506 1.283 . S
O530 Mn504 2.094 . S
O530 C508 1.240 . S
O531 Mn505 2.117 . S
O531 C508 1.264 . S
C532 C525 1.403 . S
C532 C533 1.399 . S
C532 H538 0.929 . S
C533 C513 1.449 . S
C533 C532 1.399 . S
C533 H539 0.930 . S
H534 C514 0.931 . S
H535 C515 0.930 . S
H536 C523 0.931 . S
H537 C524 0.929 . S
H538 C532 0.929 . S
H539 C533 0.930 . S
Mn540 O545 2.095 . S
Mn540 O555 2.162 . S
Mn540 O556 2.297 . S
Mn540 O564 2.385 . S
Mn540 O565 2.209 . S
Mn540 O566 2.094 . S
Mn541 O546 2.121 . S
Mn541 N548 2.257 . S
Mn541 N557 2.282 . S
Mn541 O565 2.215 . S
Mn541 O567 2.117 . S
C542 O564 1.234 . S
C542 O565 1.283 . S
C543 O555 1.281 . S
C543 O556 1.236 . S
C544 O566 1.240 . S
C544 O567 1.264 . S
O545 Mn540 2.095 . S
O545 C554 1.250 . S
O546 Mn541 2.121 . S
O546 C554 1.258 . S
C547 N548 1.326 . S
C547 C551 1.460 . S
C547 H553 0.929 . S
N548 Mn541 2.257 . S
N548 C547 1.326 . S
N548 C552 1.362 . S
C549 C550 1.258 . S
C549 C552 1.431 . S
C549 C569 1.449 . S
C550 C549 1.258 . S
C550 C551 1.477 . S
C550 H570 0.931 . S
C551 C547 1.460 . S
C551 C550 1.477 . S
C551 H571 0.930 . S
C552 N548 1.362 . S
C552 C549 1.431 . S
C552 C562 1.476 . S
H553 C547 0.929 . S
C554 O545 1.250 . S
C554 O546 1.258 . S
O555 Mn540 2.162 . S
O555 C543 1.281 . S
O556 Mn540 2.297 . S
O556 C543 1.236 . S
N557 Mn541 2.282 . S
N557 C558 1.328 . S
N557 C562 1.318 . S
C558 N557 1.328 . S
C558 C559 1.457 . S
C558 H563 0.929 . S
C559 C558 1.457 . S
C559 C560 1.291 . S
C559 H572 0.931 . S
C560 C559 1.291 . S
C560 C561 1.373 . S
C560 H573 0.929 . S
C561 C560 1.373 . S
C561 C562 1.396 . S
C561 C568 1.403 . S
C562 C552 1.476 . S
C562 N557 1.318 . S
C562 C561 1.396 . S
H563 C558 0.929 . S
O564 Mn540 2.385 . S
O564 C542 1.234 . S
O565 Mn540 2.209 . S
O565 Mn541 2.215 . S
O565 C542 1.283 . S
O566 Mn540 2.094 . S
O566 C544 1.240 . S
O567 Mn541 2.117 . S
O567 C544 1.264 . S
C568 C561 1.403 . S
C568 C569 1.399 . S
C568 H574 0.929 . S
C569 C549 1.449 . S
C569 C568 1.399 . S
C569 H575 0.930 . S
H570 C550 0.931 . S
H571 C551 0.930 . S
H572 C559 0.931 . S
H573 C560 0.929 . S
H574 C568 0.929 . S
H575 C569 0.930 . S
H576 C594 0.951 . S
H577 C596 0.951 . S
H578 C598 0.950 . S
H579 C599 0.950 . S
H580 C601 0.950 . S
H581 C604 0.950 . S
H582 C605 0.950 . S
H583 C607 0.950 1_545 S
H584 C608 0.950 . S
H585 C609 0.951 . S
H586 C611 0.951 . S
H587 C613 0.950 . S
H588 C614 0.950 . S
H589 C616 0.950 . S
H590 C619 0.950 . S
H591 C620 0.950 . S
H592 C622 0.950 1_565 S
H593 C623 0.950 . S
C594 H576 0.951 . S
C594 C595 1.366 . S
C594 C596 1.388 . S
C595 C594 1.366 . S
C595 C599 1.385 . S
C596 H577 0.951 . S
C596 C594 1.388 . S
C596 C597 1.366 . S
C597 C596 1.366 . S
C597 C598 1.414 . S
C597 C600 1.499 . S
C598 H578 0.950 . S
C598 C597 1.414 . S
C598 C599 1.374 . S
C599 H579 0.950 . S
C599 C595 1.385 . S
C599 C598 1.374 . S
C600 C597 1.499 . S
C600 C601 1.373 . S
C600 C602 1.389 . S
C601 H580 0.950 . S
C601 C600 1.373 . S
C601 C617 1.377 1_665 S
C602 C600 1.389 . S
C602 C603 1.524 . S
C602 C616 1.377 1_665 S
C603 C602 1.524 . S
C603 C604 1.397 . S
C603 C608 1.363 1_565 S
C604 H581 0.950 . S
C604 C603 1.397 . S
C604 C605 1.334 . S
C605 H582 0.950 . S
C605 C604 1.334 . S
C605 C606 1.287 . S
C606 C605 1.287 . S
C606 C607 1.524 . S
C606 H625 0.913 . S
C607 H583 0.950 1_565 S
C607 C606 1.524 . S
C607 C608 1.415 1_565 S
C608 H584 0.950 . S
C608 C603 1.363 1_545 S
C608 C607 1.415 1_545 S
C609 H585 0.951 . S
C609 C610 1.366 . S
C609 C611 1.388 . S
C610 C609 1.366 . S
C610 C614 1.385 . S
C611 H586 0.951 . S
C611 C609 1.388 . S
C611 C612 1.366 . S
C612 C611 1.366 . S
C612 C613 1.414 . S
C612 C615 1.499 . S
C613 H587 0.950 . S
C613 C612 1.414 . S
C613 C614 1.374 . S
C614 H588 0.950 . S
C614 C610 1.385 . S
C614 C613 1.374 . S
C615 C612 1.499 . S
C615 C616 1.373 . S
C615 C617 1.389 . S
C616 H589 0.950 . S
C616 C602 1.377 1_445 S
C616 C615 1.373 . S
C617 C601 1.377 1_445 S
C617 C615 1.389 . S
C617 C618 1.524 . S
C618 C617 1.524 . S
C618 C619 1.397 . S
C618 C623 1.363 1_545 S
C619 H590 0.950 . S
C619 C618 1.397 . S
C619 C620 1.334 . S
C620 H591 0.950 . S
C620 C619 1.334 . S
C620 C621 1.287 . S
C621 C620 1.287 . S
C621 C622 1.524 . S
C621 H624 0.999 . S
C622 H592 0.950 1_545 S
C622 C621 1.524 . S
C622 C623 1.415 1_545 S
C623 H593 0.950 . S
C623 C618 1.363 1_565 S
C623 C622 1.415 1_565 S
H624 C621 0.999 . S
H625 C606 0.913 . S
H626 C644 0.951 . S
H627 C646 0.951 . S
H628 C648 0.950 . S
H629 C649 0.950 . S
H630 C651 0.950 . S
H631 C654 0.950 . S
H632 C655 0.950 . S
H633 C657 0.950 . S
H634 C658 0.950 . S
H635 C659 0.951 . S
H636 C661 0.951 . S
H637 C663 0.950 . S
H638 C664 0.950 . S
H639 C666 0.950 . S
H640 C669 0.950 . S
H641 C670 0.950 . S
H642 C672 0.950 . S
H643 C673 0.950 . S
C644 H626 0.951 . S
C644 C645 1.366 . S
C644 C646 1.388 . S
C645 C644 1.366 . S
C645 C649 1.385 . S
C646 H627 0.951 . S
C646 C644 1.388 . S
C646 C647 1.366 . S
C647 C646 1.366 . S
C647 C648 1.414 . S
C647 C650 1.499 . S
C648 H628 0.950 . S
C648 C647 1.414 . S
C648 C649 1.374 . S
C649 H629 0.950 . S
C649 C645 1.385 . S
C649 C648 1.374 . S
C650 C647 1.499 . S
C650 C651 1.373 . S
C650 C652 1.389 1_655 S
C651 H630 0.950 . S
C651 C650 1.373 . S
C651 C667 1.377 . S
C652 C650 1.389 1_455 S
C652 C653 1.524 . S
C652 C666 1.377 . S
C653 C652 1.524 . S
C653 C654 1.397 . S
C653 C658 1.363 . S
C654 H631 0.950 . S
C654 C653 1.397 . S
C654 C655 1.334 . S
C655 H632 0.950 . S
C655 C654 1.334 . S
C655 C656 1.287 . S
C656 C655 1.287 . S
C656 C657 1.524 . S
C656 H675 0.913 . S
C657 H633 0.950 . S
C657 C656 1.524 . S
C657 C658 1.415 . S
C658 H634 0.950 . S
C658 C653 1.363 . S
C658 C657 1.415 . S
C659 H635 0.951 . S
C659 C660 1.366 . S
C659 C661 1.388 . S
C660 C659 1.366 . S
C660 C664 1.385 . S
C661 H636 0.951 . S
C661 C659 1.388 . S
C661 C662 1.366 . S
C662 C661 1.366 . S
C662 C663 1.414 . S
C662 C665 1.499 . S
C663 H637 0.950 . S
C663 C662 1.414 . S
C663 C664 1.374 . S
C664 H638 0.950 . S
C664 C660 1.385 . S
C664 C663 1.374 . S
C665 C662 1.499 . S
C665 C666 1.373 . S
C665 C667 1.389 1_455 S
C666 H639 0.950 . S
C666 C652 1.377 . S
C666 C665 1.373 . S
C667 C651 1.377 . S
C667 C665 1.389 1_655 S
C667 C668 1.524 . S
C668 C667 1.524 . S
C668 C669 1.397 . S
C668 C673 1.363 . S
C669 H640 0.950 . S
C669 C668 1.397 . S
C669 C670 1.334 . S
C670 H641 0.950 . S
C670 C669 1.334 . S
C670 C671 1.287 . S
C671 C670 1.287 . S
C671 C672 1.524 . S
C671 H674 0.999 . S
C672 H642 0.950 . S
C672 C671 1.524 . S
C672 C673 1.415 . S
C673 H643 0.950 . S
C673 C668 1.363 . S
C673 C672 1.415 . S
H674 C671 0.999 . S
H675 C656 0.913 . S
H676 C694 0.951 . S
H677 C696 0.951 . S
H678 C698 0.950 . S
H679 C699 0.950 . S
H680 C701 0.950 . S
H681 C704 0.950 . S
H682 C705 0.950 . S
H683 C707 0.950 . S
H684 C708 0.950 . S
H685 C709 0.951 . S
H686 C711 0.951 . S
H687 C713 0.950 . S
H688 C714 0.950 . S
H689 C716 0.950 . S
H690 C719 0.950 . S
H691 C720 0.950 . S
H692 C722 0.950 . S
H693 C723 0.950 . S
C694 H676 0.951 . S
C694 C695 1.366 . S
C694 C696 1.388 . S
C695 C694 1.366 . S
C695 C699 1.385 . S
C696 H677 0.951 . S
C696 C694 1.388 . S
C696 C697 1.366 . S
C697 C696 1.366 . S
C697 C698 1.414 . S
C697 C700 1.499 . S
C698 H678 0.950 . S
C698 C697 1.414 . S
C698 C699 1.374 . S
C699 H679 0.950 . S
C699 C695 1.385 . S
C699 C698 1.374 . S
C700 C697 1.499 . S
C700 C701 1.373 . S
C700 C702 1.389 . S
C701 H680 0.950 . S
C701 C700 1.373 . S
C701 C717 1.377 . S
C702 C700 1.389 . S
C702 C703 1.524 . S
C702 C716 1.377 . S
C703 C702 1.524 . S
C703 C704 1.397 . S
C703 C708 1.363 . S
C704 H681 0.950 . S
C704 C703 1.397 . S
C704 C705 1.334 . S
C705 H682 0.950 . S
C705 C704 1.334 . S
C705 C706 1.287 . S
C706 C705 1.287 . S
C706 C707 1.524 . S
C706 H725 0.913 . S
C707 H683 0.950 . S
C707 C706 1.524 . S
C707 C708 1.415 . S
C708 H684 0.950 . S
C708 C703 1.363 . S
C708 C707 1.415 . S
C709 H685 0.951 . S
C709 C710 1.366 . S
C709 C711 1.388 . S
C710 C709 1.366 . S
C710 C714 1.385 . S
C711 H686 0.951 . S
C711 C709 1.388 . S
C711 C712 1.366 . S
C712 C711 1.366 . S
C712 C713 1.414 . S
C712 C715 1.499 . S
C713 H687 0.950 . S
C713 C712 1.414 . S
C713 C714 1.374 . S
C714 H688 0.950 . S
C714 C710 1.385 . S
C714 C713 1.374 . S
C715 C712 1.499 . S
C715 C716 1.373 . S
C715 C717 1.389 . S
C716 H689 0.950 . S
C716 C702 1.377 . S
C716 C715 1.373 . S
C717 C701 1.377 . S
C717 C715 1.389 . S
C717 C718 1.524 . S
C718 C717 1.524 . S
C718 C719 1.397 . S
C718 C723 1.363 . S
C719 H690 0.950 . S
C719 C718 1.397 . S
C719 C720 1.334 . S
C720 H691 0.950 . S
C720 C719 1.334 . S
C720 C721 1.287 . S
C721 C720 1.287 . S
C721 C722 1.524 . S
C721 H724 0.999 . S
C722 H692 0.950 . S
C722 C721 1.524 . S
C722 C723 1.415 . S
C723 H693 0.950 . S
C723 C718 1.363 . S
C723 C722 1.415 . S
H724 C721 0.999 . S
H725 C706 0.913 . S
H726 C744 0.951 . S
H727 C746 0.951 . S
H728 C748 0.950 . S
H729 C749 0.950 . S
H730 C751 0.950 . S
H731 C754 0.950 . S
H732 C755 0.950 . S
H733 C757 0.950 . S
H734 C758 0.950 . S
H735 C759 0.951 . S
H736 C761 0.951 . S
H737 C763 0.950 . S
H738 C764 0.950 . S
H739 C766 0.950 . S
H740 C769 0.950 . S
H741 C770 0.950 . S
H742 C772 0.950 . S
H743 C773 0.950 . S
C744 H726 0.951 . S
C744 C745 1.366 . S
C744 C746 1.388 . S
C745 C744 1.366 . S
C745 C749 1.385 . S
C746 H727 0.951 . S
C746 C744 1.388 . S
C746 C747 1.366 . S
C747 C746 1.366 . S
C747 C748 1.414 . S
C747 C750 1.499 . S
C748 H728 0.950 . S
C748 C747 1.414 . S
C748 C749 1.374 . S
C749 H729 0.950 . S
C749 C745 1.385 . S
C749 C748 1.374 . S
C750 C747 1.499 . S
C750 C751 1.373 . S
C750 C752 1.379 1_545 S
C751 H730 0.950 . S
C751 C750 1.373 . S
C751 C767 1.387 . S
C752 C750 1.379 1_565 S
C752 C753 1.525 . S
C752 C766 1.386 . S
C753 C752 1.525 . S
C753 C754 1.397 1_565 S
C753 C758 1.363 . S
C754 H731 0.950 . S
C754 C753 1.397 1_545 S
C754 C755 1.334 . S
C755 H732 0.950 . S
C755 C754 1.334 . S
C755 C756 1.287 1_545 S
C756 C755 1.287 1_565 S
C756 C757 1.524 . S
C756 H775 0.913 . S
C757 H733 0.950 . S
C757 C756 1.524 . S
C757 C758 1.415 . S
C758 H734 0.950 . S
C758 C753 1.363 . S
C758 C757 1.415 . S
C759 H735 0.951 . S
C759 C760 1.366 . S
C759 C761 1.388 . S
C760 C759 1.366 . S
C760 C764 1.385 . S
C761 H736 0.951 . S
C761 C759 1.388 . S
C761 C762 1.366 . S
C762 C761 1.366 . S
C762 C763 1.414 . S
C762 C765 1.499 . S
C763 H737 0.950 . S
C763 C762 1.414 . S
C763 C764 1.374 . S
C764 H738 0.950 . S
C764 C760 1.385 . S
C764 C763 1.374 . S
C765 C762 1.499 . S
C765 C766 1.373 . S
C765 C767 1.379 1_565 S
C766 H739 0.950 . S
C766 C752 1.386 . S
C766 C765 1.373 . S
C767 C751 1.387 . S
C767 C765 1.379 1_545 S
C767 C768 1.525 . S
C768 C767 1.525 . S
C768 C769 1.397 1_545 S
C768 C773 1.363 . S
C769 H740 0.950 . S
C769 C768 1.397 1_565 S
C769 C770 1.334 . S
C770 H741 0.950 . S
C770 C769 1.334 . S
C770 C771 1.287 1_565 S
C771 C770 1.287 1_545 S
C771 C772 1.524 . S
C771 H774 0.999 . S
C772 H742 0.950 . S
C772 C771 1.524 . S
C772 C773 1.415 . S
C773 H743 0.950 . S
C773 C768 1.363 . S
C773 C772 1.415 . S
H774 C771 0.999 . S
H775 C756 0.913 . S
H776 C794 0.951 . S
H777 C796 0.951 . S
H778 C798 0.950 . S
H779 C799 0.950 . S
H780 C801 0.950 . S
H781 C804 0.950 . S
H782 C805 0.950 . S
H783 C807 0.950 . S
H784 C808 0.950 . S
H785 C809 0.951 . S
H786 C811 0.951 . S
H787 C813 0.950 . S
H788 C814 0.950 . S
H789 C816 0.950 . S
H790 C819 0.950 . S
H791 C820 0.950 . S
H792 C822 0.950 . S
H793 C823 0.950 . S
C794 H776 0.951 . S
C794 C795 1.366 . S
C794 C796 1.388 . S
C795 C794 1.366 . S
C795 C799 1.385 . S
C796 H777 0.951 . S
C796 C794 1.388 . S
C796 C797 1.366 . S
C797 C796 1.366 . S
C797 C798 1.414 . S
C797 C800 1.499 . S
C798 H778 0.950 . S
C798 C797 1.414 . S
C798 C799 1.374 . S
C799 H779 0.950 . S
C799 C795 1.385 . S
C799 C798 1.374 . S
C800 C797 1.499 . S
C800 C801 1.373 . S
C800 C802 1.389 . S
C801 H780 0.950 . S
C801 C800 1.373 . S
C801 C817 1.377 1_455 S
C802 C800 1.389 . S
C802 C803 1.524 . S
C802 C816 1.377 1_455 S
C803 C802 1.524 . S
C803 C804 1.397 . S
C803 C808 1.363 . S
C804 H781 0.950 . S
C804 C803 1.397 . S
C804 C805 1.334 . S
C805 H782 0.950 . S
C805 C804 1.334 . S
C805 C806 1.287 . S
C806 C805 1.287 . S
C806 C807 1.524 . S
C806 H825 0.913 . S
C807 H783 0.950 . S
C807 C806 1.524 . S
C807 C808 1.415 . S
C808 H784 0.950 . S
C808 C803 1.363 . S
C808 C807 1.415 . S
C809 H785 0.951 . S
C809 C810 1.366 . S
C809 C811 1.388 . S
C810 C809 1.366 . S
C810 C814 1.385 . S
C811 H786 0.951 . S
C811 C809 1.388 . S
C811 C812 1.366 . S
C812 C811 1.366 . S
C812 C813 1.414 . S
C812 C815 1.499 . S
C813 H787 0.950 . S
C813 C812 1.414 . S
C813 C814 1.374 . S
C814 H788 0.950 . S
C814 C810 1.385 . S
C814 C813 1.374 . S
C815 C812 1.499 . S
C815 C816 1.373 . S
C815 C817 1.389 . S
C816 H789 0.950 . S
C816 C802 1.377 1_655 S
C816 C815 1.373 . S
C817 C801 1.377 1_655 S
C817 C815 1.389 . S
C817 C818 1.524 . S
C818 C817 1.524 . S
C818 C819 1.397 . S
C818 C823 1.363 . S
C819 H790 0.950 . S
C819 C818 1.397 . S
C819 C820 1.334 . S
C820 H791 0.950 . S
C820 C819 1.334 . S
C820 C821 1.287 . S
C821 C820 1.287 . S
C821 C822 1.524 . S
C821 H824 0.999 . S
C822 H792 0.950 . S
C822 C821 1.524 . S
C822 C823 1.415 . S
C823 H793 0.950 . S
C823 C818 1.363 . S
C823 C822 1.415 . S
H824 C821 0.999 . S
H825 C806 0.913 . S
H826 C844 0.951 . S
H827 C846 0.951 . S
H828 C848 0.950 . S
H829 C849 0.950 . S
H830 C851 0.950 . S
H831 C854 0.950 . S
H832 C855 0.950 . S
H833 C857 0.950 . S
H834 C858 0.950 . S
H835 C859 0.951 . S
H836 C861 0.951 . S
H837 C863 0.950 . S
H838 C864 0.950 . S
H839 C866 0.950 . S
H840 C869 0.950 . S
H841 C870 0.950 . S
H842 C872 0.950 . S
H843 C873 0.950 . S
C844 H826 0.951 . S
C844 C845 1.366 . S
C844 C846 1.388 . S
C845 C844 1.366 . S
C845 C849 1.385 . S
C846 H827 0.951 . S
C846 C844 1.388 . S
C846 C847 1.366 . S
C847 C846 1.366 . S
C847 C848 1.414 . S
C847 C850 1.499 . S
C848 H828 0.950 . S
C848 C847 1.414 . S
C848 C849 1.374 . S
C849 H829 0.950 . S
C849 C845 1.385 . S
C849 C848 1.374 . S
C850 C847 1.499 . S
C850 C851 1.373 . S
C850 C852 1.389 . S
C851 H830 0.950 . S
C851 C850 1.373 . S
C851 C867 1.377 . S
C852 C850 1.389 . S
C852 C853 1.524 . S
C852 C866 1.377 . S
C853 C852 1.524 . S
C853 C854 1.397 . S
C853 C858 1.363 . S
C854 H831 0.950 . S
C854 C853 1.397 . S
C854 C855 1.334 . S
C855 H832 0.950 . S
C855 C854 1.334 . S
C855 C856 1.287 . S
C856 C855 1.287 . S
C856 C857 1.524 . S
C856 H875 0.913 . S
C857 H833 0.950 . S
C857 C856 1.524 . S
C857 C858 1.415 . S
C858 H834 0.950 . S
C858 C853 1.363 . S
C858 C857 1.415 . S
C859 H835 0.951 . S
C859 C860 1.366 . S
C859 C861 1.388 . S
C860 C859 1.366 . S
C860 C864 1.385 . S
C861 H836 0.951 . S
C861 C859 1.388 . S
C861 C862 1.366 . S
C862 C861 1.366 . S
C862 C863 1.414 . S
C862 C865 1.499 . S
C863 H837 0.950 . S
C863 C862 1.414 . S
C863 C864 1.374 . S
C864 H838 0.950 . S
C864 C860 1.385 . S
C864 C863 1.374 . S
C865 C862 1.499 . S
C865 C866 1.373 . S
C865 C867 1.389 . S
C866 H839 0.950 . S
C866 C852 1.377 . S
C866 C865 1.373 . S
C867 C851 1.377 . S
C867 C865 1.389 . S
C867 C868 1.524 . S
C868 C867 1.524 . S
C868 C869 1.397 . S
C868 C873 1.363 . S
C869 H840 0.950 . S
C869 C868 1.397 . S
C869 C870 1.334 . S
C870 H841 0.950 . S
C870 C869 1.334 . S
C870 C871 1.287 . S
C871 C870 1.287 . S
C871 C872 1.524 . S
C871 H874 0.999 . S
C872 H842 0.950 . S
C872 C871 1.524 . S
C872 C873 1.415 . S
C873 H843 0.950 . S
C873 C868 1.363 . S
C873 C872 1.415 . S
H874 C871 0.999 . S
H875 C856 0.913 . S
H876 C894 0.951 . S
H877 C896 0.951 1_565 S
H878 C898 0.950 . S
H879 C899 0.950 . S
H880 C901 0.950 . S
H881 C904 0.950 . S
H882 C905 0.950 1_545 S
H883 C907 0.950 . S
H884 C908 0.950 . S
H885 C909 0.951 . S
H886 C911 0.951 1_545 S
H887 C913 0.950 . S
H888 C914 0.950 . S
H889 C916 0.950 . S
H890 C919 0.950 . S
H891 C920 0.950 1_565 S
H892 C922 0.950 . S
H893 C923 0.950 . S
C894 H876 0.951 . S
C894 C895 1.366 . S
C894 C896 1.388 . S
C895 C894 1.366 . S
C895 C899 1.385 . S
C896 H877 0.951 1_545 S
C896 C894 1.388 . S
C896 C897 1.366 . S
C897 C896 1.366 . S
C897 C898 1.414 . S
C897 C900 1.499 . S
C898 H878 0.950 . S
C898 C897 1.414 . S
C898 C899 1.374 . S
C899 H879 0.950 . S
C899 C895 1.385 . S
C899 C898 1.374 . S
C900 C897 1.499 . S
C900 C901 1.373 . S
C900 C902 1.389 1_545 S
C901 H880 0.950 . S
C901 C900 1.373 . S
C901 C917 1.377 . S
C902 C900 1.389 1_565 S
C902 C903 1.524 . S
C902 C916 1.377 . S
C903 C902 1.524 . S
C903 C904 1.397 1_565 S
C903 C908 1.363 . S
C904 H881 0.950 . S
C904 C903 1.397 1_545 S
C904 C905 1.334 1_545 S
C905 H882 0.950 1_565 S
C905 C904 1.334 1_565 S
C905 C906 1.287 . S
C906 C905 1.287 . S
C906 C907 1.524 . S
C906 H925 0.913 . S
C907 H883 0.950 . S
C907 C906 1.524 . S
C907 C908 1.415 . S
C908 H884 0.950 . S
C908 C903 1.363 . S
C908 C907 1.415 . S
C909 H885 0.951 . S
C909 C910 1.366 . S
C909 C911 1.388 . S
C910 C909 1.366 . S
C910 C914 1.385 . S
C911 H886 0.951 1_565 S
C911 C909 1.388 . S
C911 C912 1.366 . S
C912 C911 1.366 . S
C912 C913 1.414 . S
C912 C915 1.499 . S
C913 H887 0.950 . S
C913 C912 1.414 . S
C913 C914 1.374 . S
C914 H888 0.950 . S
C914 C910 1.385 . S
C914 C913 1.374 . S
C915 C912 1.499 . S
C915 C916 1.373 . S
C915 C917 1.389 1_565 S
C916 H889 0.950 . S
C916 C902 1.377 . S
C916 C915 1.373 . S
C917 C901 1.377 . S
C917 C915 1.389 1_545 S
C917 C918 1.524 . S
C918 C917 1.524 . S
C918 C919 1.397 1_545 S
C918 C923 1.363 . S
C919 H890 0.950 . S
C919 C918 1.397 1_565 S
C919 C920 1.334 1_565 S
C920 H891 0.950 1_545 S
C920 C919 1.334 1_545 S
C920 C921 1.287 . S
C921 C920 1.287 . S
C921 C922 1.524 . S
C921 H924 0.999 . S
C922 H892 0.950 . S
C922 C921 1.524 . S
C922 C923 1.415 . S
C923 H893 0.950 . S
C923 C918 1.363 . S
C923 C922 1.415 . S
H924 C921 0.999 . S
H925 C906 0.913 . S
H926 C944 0.951 . S
H927 C946 0.951 1_655 S
H928 C948 0.950 . S
H929 C949 0.950 . S
H930 C951 0.950 . S
H931 C954 0.950 . S
H932 C955 0.950 1_455 S
H933 C957 0.950 . S
H934 C958 0.950 . S
H935 C959 0.951 . S
H936 C961 0.951 1_455 S
H937 C963 0.950 . S
H938 C964 0.950 . S
H939 C966 0.950 . S
H940 C969 0.950 . S
H941 C970 0.950 1_655 S
H942 C972 0.950 . S
H943 C973 0.950 . S
C944 H926 0.951 . S
C944 C945 1.366 . S
C944 C946 1.388 . S
C945 C944 1.366 . S
C945 C949 1.385 . S
C946 H927 0.951 1_455 S
C946 C944 1.388 . S
C946 C947 1.366 . S
C947 C946 1.366 . S
C947 C948 1.414 . S
C947 C950 1.499 . S
C948 H928 0.950 . S
C948 C947 1.414 . S
C948 C949 1.374 . S
C949 H929 0.950 . S
C949 C945 1.385 . S
C949 C948 1.374 . S
C950 C947 1.499 . S
C950 C951 1.373 . S
C950 C952 1.389 1_455 S
C951 H930 0.950 . S
C951 C950 1.373 . S
C951 C967 1.377 1_545 S
C952 C950 1.389 1_655 S
C952 C953 1.524 . S
C952 C966 1.377 1_545 S
C953 C952 1.524 . S
C953 C954 1.397 1_655 S
C953 C958 1.363 . S
C954 H931 0.950 . S
C954 C953 1.397 1_455 S
C954 C955 1.334 1_455 S
C955 H932 0.950 1_655 S
C955 C954 1.334 1_655 S
C955 C956 1.287 . S
C956 C955 1.287 . S
C956 C957 1.524 . S
C956 H975 0.913 . S
C957 H933 0.950 . S
C957 C956 1.524 . S
C957 C958 1.415 . S
C958 H934 0.950 . S
C958 C953 1.363 . S
C958 C957 1.415 . S
C959 H935 0.951 . S
C959 C960 1.366 . S
C959 C961 1.388 . S
C960 C959 1.366 . S
C960 C964 1.385 . S
C961 H936 0.951 1_655 S
C961 C959 1.388 . S
C961 C962 1.366 . S
C962 C961 1.366 . S
C962 C963 1.414 . S
C962 C965 1.499 . S
C963 H937 0.950 . S
C963 C962 1.414 . S
C963 C964 1.374 . S
C964 H938 0.950 . S
C964 C960 1.385 . S
C964 C963 1.374 . S
C965 C962 1.499 . S
C965 C966 1.373 . S
C965 C967 1.389 1_655 S
C966 H939 0.950 . S
C966 C952 1.377 1_565 S
C966 C965 1.373 . S
C967 C951 1.377 1_565 S
C967 C965 1.389 1_455 S
C967 C968 1.524 . S
C968 C967 1.524 . S
C968 C969 1.397 1_455 S
C968 C973 1.363 . S
C969 H940 0.950 . S
C969 C968 1.397 1_655 S
C969 C970 1.334 1_655 S
C970 H941 0.950 1_455 S
C970 C969 1.334 1_455 S
C970 C971 1.287 . S
C971 C970 1.287 . S
C971 C972 1.524 . S
C971 H974 0.999 . S
C972 H942 0.950 . S
C972 C971 1.524 . S
C972 C973 1.415 . S
C973 H943 0.950 . S
C973 C968 1.363 . S
C973 C972 1.415 . S
H974 C971 0.999 . S
H975 C956 0.913 . S
H976 C994 0.951 . S
H977 C996 0.951 . S
H978 C998 0.950 . S
H979 C999 0.950 . S
H980 C1001 0.950 . S
H981 C1004 0.950 . S
H982 C1005 0.950 . S
H983 C1007 0.955 . S
H984 C1008 0.953 . S
H985 C1009 0.951 . S
H986 C1011 0.951 . S
H987 C1013 0.950 . S
H988 C1014 0.950 . S
H989 C1016 0.950 . S
H990 C1019 0.950 . S
H991 C1020 0.950 . S
H992 C1022 0.955 . S
H993 C1023 0.954 . S
C994 H976 0.951 . S
C994 C995 1.366 . S
C994 C996 1.388 . S
C995 C994 1.366 . S
C995 C999 1.385 . S
C996 H977 0.951 . S
C996 C994 1.388 . S
C996 C997 1.366 . S
C997 C996 1.366 . S
C997 C998 1.414 . S
C997 C1000 1.499 . S
C998 H978 0.950 . S
C998 C997 1.414 . S
C998 C999 1.374 . S
C999 H979 0.950 . S
C999 C995 1.385 . S
C999 C998 1.374 . S
C1000 C997 1.499 . S
C1000 C1001 1.373 . S
C1000 C1002 1.389 1_565 S
C1001 H980 0.950 . S
C1001 C1000 1.373 . S
C1001 C1017 1.377 . S
C1002 C1000 1.389 1_545 S
C1002 C1003 1.524 . S
C1002 C1016 1.377 . S
C1003 C1002 1.524 . S
C1003 C1004 1.397 . S
C1003 C1008 1.361 1_545 S
C1004 H981 0.950 . S
C1004 C1003 1.397 . S
C1004 C1005 1.334 . S
C1005 H982 0.950 . S
C1005 C1004 1.334 . S
C1005 C1006 1.287 . S
C1006 C1005 1.287 . S
C1006 C1007 1.524 . S
C1006 H1025 0.913 . S
C1007 H983 0.955 . S
C1007 C1006 1.524 . S
C1007 C1008 1.413 1_545 S
C1008 H984 0.953 . S
C1008 C1003 1.361 1_565 S
C1008 C1007 1.413 1_565 S
C1009 H985 0.951 . S
C1009 C1010 1.366 . S
C1009 C1011 1.388 . S
C1010 C1009 1.366 . S
C1010 C1014 1.385 . S
C1011 H986 0.951 . S
C1011 C1009 1.388 . S
C1011 C1012 1.366 . S
C1012 C1011 1.366 . S
C1012 C1013 1.414 . S
C1012 C1015 1.499 . S
C1013 H987 0.950 . S
C1013 C1012 1.414 . S
C1013 C1014 1.374 . S
C1014 H988 0.950 . S
C1014 C1010 1.385 . S
C1014 C1013 1.374 . S
C1015 C1012 1.499 . S
C1015 C1016 1.373 . S
C1015 C1017 1.389 1_545 S
C1016 H989 0.950 . S
C1016 C1002 1.377 . S
C1016 C1015 1.373 . S
C1017 C1001 1.377 . S
C1017 C1015 1.389 1_565 S
C1017 C1018 1.524 . S
C1018 C1017 1.524 . S
C1018 C1019 1.397 . S
C1018 C1023 1.361 1_565 S
C1019 H990 0.950 . S
C1019 C1018 1.397 . S
C1019 C1020 1.334 . S
C1020 H991 0.950 . S
C1020 C1019 1.334 . S
C1020 C1021 1.287 . S
C1021 C1020 1.287 . S
C1021 C1022 1.524 . S
C1021 H1024 0.999 . S
C1022 H992 0.955 . S
C1022 C1021 1.524 . S
C1022 C1023 1.413 1_565 S
C1023 H993 0.954 . S
C1023 C1018 1.361 1_545 S
C1023 C1022 1.413 1_545 S
H1024 C1021 0.999 . S
H1025 C1006 0.913 . S
H1026 C1044 0.951 . S
H1027 C1046 0.951 1_455 S
H1028 C1048 0.950 . S
H1029 C1049 0.950 . S
H1030 C1051 0.950 . S
H1031 C1054 0.950 . S
H1032 C1055 0.950 . S
H1033 C1057 0.950 . S
H1034 C1058 0.950 . S
H1035 C1059 0.951 . S
H1036 C1061 0.951 1_655 S
H1037 C1063 0.950 . S
H1038 C1064 0.950 . S
H1039 C1066 0.950 . S
H1040 C1069 0.950 . S
H1041 C1070 0.950 . S
H1042 C1072 0.950 . S
H1043 C1073 0.950 . S
C1044 H1026 0.951 . S
C1044 C1045 1.366 . S
C1044 C1046 1.388 . S
C1045 C1044 1.366 . S
C1045 C1049 1.385 . S
C1046 H1027 0.951 1_655 S
C1046 C1044 1.388 . S
C1046 C1047 1.366 . S
C1047 C1046 1.366 . S
C1047 C1048 1.414 . S
C1047 C1050 1.499 . S
C1048 H1028 0.950 . S
C1048 C1047 1.414 . S
C1048 C1049 1.374 . S
C1049 H1029 0.950 . S
C1049 C1045 1.385 . S
C1049 C1048 1.374 . S
C1050 C1047 1.499 . S
C1050 C1051 1.373 . S
C1050 C1052 1.389 1_655 S
C1051 H1030 0.950 . S
C1051 C1050 1.373 . S
C1051 C1067 1.377 1_565 S
C1052 C1050 1.389 1_455 S
C1052 C1053 1.524 . S
C1052 C1066 1.377 1_565 S
C1053 C1052 1.524 . S
C1053 C1054 1.397 1_455 S
C1053 C1058 1.363 . S
C1054 H1031 0.950 . S
C1054 C1053 1.397 1_655 S
C1054 C1055 1.334 . S
C1055 H1032 0.950 . S
C1055 C1054 1.334 . S
C1055 C1056 1.287 . S
C1056 C1055 1.287 . S
C1056 C1057 1.524 1_655 S
C1056 H1075 0.913 . S
C1057 H1033 0.950 . S
C1057 C1056 1.524 1_455 S
C1057 C1058 1.415 . S
C1058 H1034 0.950 . S
C1058 C1053 1.363 . S
C1058 C1057 1.415 . S
C1059 H1035 0.951 . S
C1059 C1060 1.366 . S
C1059 C1061 1.388 . S
C1060 C1059 1.366 . S
C1060 C1064 1.385 . S
C1061 H1036 0.951 1_455 S
C1061 C1059 1.388 . S
C1061 C1062 1.366 . S
C1062 C1061 1.366 . S
C1062 C1063 1.414 . S
C1062 C1065 1.499 . S
C1063 H1037 0.950 . S
C1063 C1062 1.414 . S
C1063 C1064 1.374 . S
C1064 H1038 0.950 . S
C1064 C1060 1.385 . S
C1064 C1063 1.374 . S
C1065 C1062 1.499 . S
C1065 C1066 1.373 . S
C1065 C1067 1.389 1_455 S
C1066 H1039 0.950 . S
C1066 C1052 1.377 1_545 S
C1066 C1065 1.373 . S
C1067 C1051 1.377 1_545 S
C1067 C1065 1.389 1_655 S
C1067 C1068 1.524 . S
C1068 C1067 1.524 . S
C1068 C1069 1.397 1_655 S
C1068 C1073 1.363 . S
C1069 H1040 0.950 . S
C1069 C1068 1.397 1_455 S
C1069 C1070 1.334 . S
C1070 H1041 0.950 . S
C1070 C1069 1.334 . S
C1070 C1071 1.287 . S
C1071 C1070 1.287 . S
C1071 C1072 1.524 1_455 S
C1071 H1074 0.999 . S
C1072 H1042 0.950 . S
C1072 C1071 1.524 1_655 S
C1072 C1073 1.415 . S
C1073 H1043 0.950 . S
C1073 C1068 1.363 . S
C1073 C1072 1.415 . S
H1074 C1071 0.999 . S
H1075 C1056 0.913 . S
H1076 C1094 0.951 . S
H1077 C1096 0.951 . S
H1078 C1098 0.950 . S
H1079 C1099 0.950 . S
H1080 C1101 0.950 . S
H1081 C1104 0.950 . S
H1082 C1105 0.950 . S
H1083 C1107 0.950 . S
H1084 C1108 0.950 . S
H1085 C1109 0.951 . S
H1086 C1111 0.951 . S
H1087 C1113 0.950 . S
H1088 C1114 0.950 . S
H1089 C1116 0.950 . S
H1090 C1119 0.950 . S
H1091 C1120 0.950 . S
H1092 C1122 0.950 . S
H1093 C1123 0.950 . S
C1094 H1076 0.951 . S
C1094 C1095 1.366 . S
C1094 C1096 1.388 . S
C1095 C1094 1.366 . S
C1095 C1099 1.385 . S
C1096 H1077 0.951 . S
C1096 C1094 1.388 . S
C1096 C1097 1.366 . S
C1097 C1096 1.366 . S
C1097 C1098 1.414 . S
C1097 C1100 1.499 . S
C1098 H1078 0.950 . S
C1098 C1097 1.414 . S
C1098 C1099 1.374 . S
C1099 H1079 0.950 . S
C1099 C1095 1.385 . S
C1099 C1098 1.374 . S
C1100 C1097 1.499 . S
C1100 C1101 1.373 . S
C1100 C1102 1.389 . S
C1101 H1080 0.950 . S
C1101 C1100 1.373 . S
C1101 C1117 1.377 1_455 S
C1102 C1100 1.389 . S
C1102 C1103 1.524 . S
C1102 C1116 1.377 1_455 S
C1103 C1102 1.524 . S
C1103 C1104 1.397 . S
C1103 C1108 1.363 1_455 S
C1104 H1081 0.950 . S
C1104 C1103 1.397 . S
C1104 C1105 1.334 . S
C1105 H1082 0.950 . S
C1105 C1104 1.334 . S
C1105 C1106 1.287 . S
C1106 C1105 1.287 . S
C1106 C1107 1.524 1_455 S
C1106 H1125 0.913 . S
C1107 H1083 0.950 . S
C1107 C1106 1.524 1_655 S
C1107 C1108 1.415 . S
C1108 H1084 0.950 . S
C1108 C1103 1.363 1_655 S
C1108 C1107 1.415 . S
C1109 H1085 0.951 . S
C1109 C1110 1.366 . S
C1109 C1111 1.388 . S
C1110 C1109 1.366 . S
C1110 C1114 1.385 . S
C1111 H1086 0.951 . S
C1111 C1109 1.388 . S
C1111 C1112 1.366 . S
C1112 C1111 1.366 . S
C1112 C1113 1.414 . S
C1112 C1115 1.499 . S
C1113 H1087 0.950 . S
C1113 C1112 1.414 . S
C1113 C1114 1.374 . S
C1114 H1088 0.950 . S
C1114 C1110 1.385 . S
C1114 C1113 1.374 . S
C1115 C1112 1.499 . S
C1115 C1116 1.373 . S
C1115 C1117 1.389 . S
C1116 H1089 0.950 . S
C1116 C1102 1.377 1_655 S
C1116 C1115 1.373 . S
C1117 C1101 1.377 1_655 S
C1117 C1115 1.389 . S
C1117 C1118 1.524 . S
C1118 C1117 1.524 . S
C1118 C1119 1.397 . S
C1118 C1123 1.363 1_655 S
C1119 H1090 0.950 . S
C1119 C1118 1.397 . S
C1119 C1120 1.334 . S
C1120 H1091 0.950 . S
C1120 C1119 1.334 . S
C1120 C1121 1.287 . S
C1121 C1120 1.287 . S
C1121 C1122 1.524 1_655 S
C1121 H1124 0.999 . S
C1122 H1092 0.950 . S
C1122 C1121 1.524 1_455 S
C1122 C1123 1.415 . S
C1123 H1093 0.950 . S
C1123 C1118 1.363 1_455 S
C1123 C1122 1.415 . S
H1124 C1121 0.999 . S
H1125 C1106 0.913 . S
H1126 C1144 0.951 . S
H1127 C1146 0.951 . S
H1128 C1148 0.950 . S
H1129 C1149 0.950 . S
H1130 C1151 0.950 . S
H1131 C1154 0.950 . S
H1132 C1155 0.950 . S
H1133 C1157 0.950 . S
H1134 C1158 0.950 . S
H1135 C1159 0.951 . S
H1136 C1161 0.951 . S
H1137 C1163 0.950 . S
H1138 C1164 0.950 . S
H1139 C1166 0.950 . S
H1140 C1169 0.950 . S
H1141 C1170 0.950 . S
H1142 C1172 0.950 . S
H1143 C1173 0.950 . S
C1144 H1126 0.951 . S
C1144 C1145 1.366 . S
C1144 C1146 1.388 . S
C1145 C1144 1.366 . S
C1145 C1149 1.385 . S
C1146 H1127 0.951 . S
C1146 C1144 1.388 . S
C1146 C1147 1.366 . S
C1147 C1146 1.366 . S
C1147 C1148 1.414 . S
C1147 C1150 1.499 . S
C1148 H1128 0.950 . S
C1148 C1147 1.414 . S
C1148 C1149 1.374 . S
C1149 H1129 0.950 . S
C1149 C1145 1.385 . S
C1149 C1148 1.374 . S
C1150 C1147 1.499 . S
C1150 C1151 1.373 . S
C1150 C1152 1.389 . S
C1151 H1130 0.950 . S
C1151 C1150 1.373 . S
C1151 C1167 1.377 . S
C1152 C1150 1.389 . S
C1152 C1153 1.524 . S
C1152 C1166 1.377 . S
C1153 C1152 1.524 . S
C1153 C1154 1.397 . S
C1153 C1158 1.363 . S
C1154 H1131 0.950 . S
C1154 C1153 1.397 . S
C1154 C1155 1.334 . S
C1155 H1132 0.950 . S
C1155 C1154 1.334 . S
C1155 C1156 1.287 . S
C1156 C1155 1.287 . S
C1156 C1157 1.524 . S
C1156 H1175 0.913 . S
C1157 H1133 0.950 . S
C1157 C1156 1.524 . S
C1157 C1158 1.415 . S
C1158 H1134 0.950 . S
C1158 C1153 1.363 . S
C1158 C1157 1.415 . S
C1159 H1135 0.951 . S
C1159 C1160 1.366 . S
C1159 C1161 1.388 . S
C1160 C1159 1.366 . S
C1160 C1164 1.385 . S
C1161 H1136 0.951 . S
C1161 C1159 1.388 . S
C1161 C1162 1.366 . S
C1162 C1161 1.366 . S
C1162 C1163 1.414 . S
C1162 C1165 1.499 . S
C1163 H1137 0.950 . S
C1163 C1162 1.414 . S
C1163 C1164 1.374 . S
C1164 H1138 0.950 . S
C1164 C1160 1.385 . S
C1164 C1163 1.374 . S
C1165 C1162 1.499 . S
C1165 C1166 1.373 . S
C1165 C1167 1.389 . S
C1166 H1139 0.950 . S
C1166 C1152 1.377 . S
C1166 C1165 1.373 . S
C1167 C1151 1.377 . S
C1167 C1165 1.389 . S
C1167 C1168 1.524 . S
C1168 C1167 1.524 . S
C1168 C1169 1.397 . S
C1168 C1173 1.363 . S
C1169 H1140 0.950 . S
C1169 C1168 1.397 . S
C1169 C1170 1.334 . S
C1170 H1141 0.950 . S
C1170 C1169 1.334 . S
C1170 C1171 1.287 . S
C1171 C1170 1.287 . S
C1171 C1172 1.524 . S
C1171 H1174 0.999 . S
C1172 H1142 0.950 . S
C1172 C1171 1.524 . S
C1172 C1173 1.415 . S
C1173 H1143 0.950 . S
C1173 C1168 1.363 . S
C1173 C1172 1.415 . S
H1174 C1171 0.999 . S
H1175 C1156 0.913 . S
H1176 C1194 0.951 . S
H1177 C1196 0.951 . S
H1178 C1198 0.950 . S
H1179 C1199 0.950 . S
H1180 C1201 0.950 . S
H1181 C1204 0.950 . S
H1182 C1205 0.950 . S
H1183 C1207 0.950 . S
H1184 C1208 0.950 . S
H1185 C1209 0.951 . S
H1186 C1211 0.951 . S
H1187 C1213 0.950 . S
H1188 C1214 0.950 . S
H1189 C1216 0.950 . S
H1190 C1219 0.950 . S
H1191 C1220 0.950 . S
H1192 C1222 0.950 . S
H1193 C1223 0.950 . S
C1194 H1176 0.951 . S
C1194 C1195 1.366 . S
C1194 C1196 1.388 . S
C1195 C1194 1.366 . S
C1195 C1199 1.385 . S
C1196 H1177 0.951 . S
C1196 C1194 1.388 . S
C1196 C1197 1.366 . S
C1197 C1196 1.366 . S
C1197 C1198 1.414 . S
C1197 C1200 1.499 . S
C1198 H1178 0.950 . S
C1198 C1197 1.414 . S
C1198 C1199 1.374 . S
C1199 H1179 0.950 . S
C1199 C1195 1.385 . S
C1199 C1198 1.374 . S
C1200 C1197 1.499 . S
C1200 C1201 1.373 . S
C1200 C1202 1.389 . S
C1201 H1180 0.950 . S
C1201 C1200 1.373 . S
C1201 C1217 1.377 . S
C1202 C1200 1.389 . S
C1202 C1203 1.524 . S
C1202 C1216 1.377 . S
C1203 C1202 1.524 . S
C1203 C1204 1.397 . S
C1203 C1208 1.363 . S
C1204 H1181 0.950 . S
C1204 C1203 1.397 . S
C1204 C1205 1.334 . S
C1205 H1182 0.950 . S
C1205 C1204 1.334 . S
C1205 C1206 1.287 . S
C1206 C1205 1.287 . S
C1206 C1207 1.524 . S
C1206 H1225 0.913 . S
C1207 H1183 0.950 . S
C1207 C1206 1.524 . S
C1207 C1208 1.415 . S
C1208 H1184 0.950 . S
C1208 C1203 1.363 . S
C1208 C1207 1.415 . S
C1209 H1185 0.951 . S
C1209 C1210 1.366 . S
C1209 C1211 1.388 . S
C1210 C1209 1.366 . S
C1210 C1214 1.385 . S
C1211 H1186 0.951 . S
C1211 C1209 1.388 . S
C1211 C1212 1.366 . S
C1212 C1211 1.366 . S
C1212 C1213 1.414 . S
C1212 C1215 1.499 . S
C1213 H1187 0.950 . S
C1213 C1212 1.414 . S
C1213 C1214 1.374 . S
C1214 H1188 0.950 . S
C1214 C1210 1.385 . S
C1214 C1213 1.374 . S
C1215 C1212 1.499 . S
C1215 C1216 1.373 . S
C1215 C1217 1.389 . S
C1216 H1189 0.950 . S
C1216 C1202 1.377 . S
C1216 C1215 1.373 . S
C1217 C1201 1.377 . S
C1217 C1215 1.389 . S
C1217 C1218 1.524 . S
C1218 C1217 1.524 . S
C1218 C1219 1.397 . S
C1218 C1223 1.363 . S
C1219 H1190 0.950 . S
C1219 C1218 1.397 . S
C1219 C1220 1.334 . S
C1220 H1191 0.950 . S
C1220 C1219 1.334 . S
C1220 C1221 1.287 . S
C1221 C1220 1.287 . S
C1221 C1222 1.524 . S
C1221 H1224 0.999 . S
C1222 H1192 0.950 . S
C1222 C1221 1.524 . S
C1222 C1223 1.415 . S
C1223 H1193 0.950 . S
C1223 C1218 1.363 . S
C1223 C1222 1.415 . S
H1224 C1221 0.999 . S
H1225 C1206 0.913 . S
H1226 C1244 0.951 . S
H1227 C1246 0.951 . S
H1228 C1248 0.950 . S
H1229 C1249 0.950 . S
H1230 C1251 0.950 . S
H1231 C1254 0.950 . S
H1232 C1255 0.950 . S
H1233 C1257 0.950 . S
H1234 C1258 0.950 . S
H1235 C1259 0.951 . S
H1236 C1261 0.951 . S
H1237 C1263 0.950 . S
H1238 C1264 0.950 . S
H1239 C1266 0.950 . S
H1240 C1269 0.950 . S
H1241 C1270 0.950 . S
H1242 C1272 0.950 . S
H1243 C1273 0.950 . S
C1244 H1226 0.951 . S
C1244 C1245 1.366 . S
C1244 C1246 1.388 . S
C1245 C1244 1.366 . S
C1245 C1249 1.385 . S
C1246 H1227 0.951 . S
C1246 C1244 1.388 . S
C1246 C1247 1.366 . S
C1247 C1246 1.366 . S
C1247 C1248 1.414 . S
C1247 C1250 1.499 . S
C1248 H1228 0.950 . S
C1248 C1247 1.414 . S
C1248 C1249 1.374 . S
C1249 H1229 0.950 . S
C1249 C1245 1.385 . S
C1249 C1248 1.374 . S
C1250 C1247 1.499 . S
C1250 C1251 1.373 . S
C1250 C1252 1.389 . S
C1251 H1230 0.950 . S
C1251 C1250 1.373 . S
C1251 C1267 1.377 1_565 S
C1252 C1250 1.389 . S
C1252 C1253 1.524 . S
C1252 C1266 1.377 1_565 S
C1253 C1252 1.524 . S
C1253 C1254 1.397 . S
C1253 C1258 1.363 . S
C1254 H1231 0.950 . S
C1254 C1253 1.397 . S
C1254 C1255 1.334 . S
C1255 H1232 0.950 . S
C1255 C1254 1.334 . S
C1255 C1256 1.287 . S
C1256 C1255 1.287 . S
C1256 C1257 1.524 . S
C1256 H1275 0.913 . S
C1257 H1233 0.950 . S
C1257 C1256 1.524 . S
C1257 C1258 1.415 . S
C1258 H1234 0.950 . S
C1258 C1253 1.363 . S
C1258 C1257 1.415 . S
C1259 H1235 0.951 . S
C1259 C1260 1.366 . S
C1259 C1261 1.388 . S
C1260 C1259 1.366 . S
C1260 C1264 1.385 . S
C1261 H1236 0.951 . S
C1261 C1259 1.388 . S
C1261 C1262 1.366 . S
C1262 C1261 1.366 . S
C1262 C1263 1.414 . S
C1262 C1265 1.499 . S
C1263 H1237 0.950 . S
C1263 C1262 1.414 . S
C1263 C1264 1.374 . S
C1264 H1238 0.950 . S
C1264 C1260 1.385 . S
C1264 C1263 1.374 . S
C1265 C1262 1.499 . S
C1265 C1266 1.373 . S
C1265 C1267 1.389 . S
C1266 H1239 0.950 . S
C1266 C1252 1.377 1_545 S
C1266 C1265 1.373 . S
C1267 C1251 1.377 1_545 S
C1267 C1265 1.389 . S
C1267 C1268 1.524 . S
C1268 C1267 1.524 . S
C1268 C1269 1.397 . S
C1268 C1273 1.363 . S
C1269 H1240 0.950 . S
C1269 C1268 1.397 . S
C1269 C1270 1.334 . S
C1270 H1241 0.950 . S
C1270 C1269 1.334 . S
C1270 C1271 1.287 . S
C1271 C1270 1.287 . S
C1271 C1272 1.524 . S
C1271 H1274 0.999 . S
C1272 H1242 0.950 . S
C1272 C1271 1.524 . S
C1272 C1273 1.415 . S
C1273 H1243 0.950 . S
C1273 C1268 1.363 . S
C1273 C1272 1.415 . S
H1274 C1271 0.999 . S
H1275 C1256 0.913 . S
H1276 C1294 0.951 . S
H1277 C1296 0.951 . S
H1278 C1298 0.950 1_545 S
H1279 C1299 0.950 . S
H1280 C1301 0.950 . S
H1281 C1304 0.950 . S
H1282 C1305 0.950 . S
H1283 C1307 0.950 . S
H1284 C1308 0.950 . S
H1285 C1309 0.951 . S
H1286 C1311 0.951 . S
H1287 C1313 0.950 1_565 S
H1288 C1314 0.950 . S
H1289 C1316 0.950 . S
H1290 C1319 0.950 . S
H1291 C1320 0.950 . S
H1292 C1322 0.950 . S
H1293 C1323 0.950 . S
C1294 H1276 0.951 . S
C1294 C1295 1.366 . S
C1294 C1296 1.388 . S
C1295 C1294 1.366 . S
C1295 C1299 1.385 . S
C1296 H1277 0.951 . S
C1296 C1294 1.388 . S
C1296 C1297 1.366 . S
C1297 C1296 1.366 . S
C1297 C1298 1.414 . S
C1297 C1300 1.499 . S
C1298 H1278 0.950 1_565 S
C1298 C1297 1.414 . S
C1298 C1299 1.374 . S
C1299 H1279 0.950 . S
C1299 C1295 1.385 . S
C1299 C1298 1.374 . S
C1300 C1297 1.499 . S
C1300 C1301 1.373 1_565 S
C1300 C1302 1.389 . S
C1301 H1280 0.950 . S
C1301 C1300 1.373 1_545 S
C1301 C1317 1.377 1_655 S
C1302 C1300 1.389 . S
C1302 C1303 1.524 . S
C1302 C1316 1.377 1_655 S
C1303 C1302 1.524 . S
C1303 C1304 1.397 . S
C1303 C1308 1.363 1_655 S
C1304 H1281 0.950 . S
C1304 C1303 1.397 . S
C1304 C1305 1.334 . S
C1305 H1282 0.950 . S
C1305 C1304 1.334 . S
C1305 C1306 1.287 . S
C1306 C1305 1.287 . S
C1306 C1307 1.524 1_655 S
C1306 H1325 0.913 . S
C1307 H1283 0.950 . S
C1307 C1306 1.524 1_455 S
C1307 C1308 1.415 . S
C1308 H1284 0.950 . S
C1308 C1303 1.363 1_455 S
C1308 C1307 1.415 . S
C1309 H1285 0.951 . S
C1309 C1310 1.366 . S
C1309 C1311 1.388 . S
C1310 C1309 1.366 . S
C1310 C1314 1.385 . S
C1311 H1286 0.951 . S
C1311 C1309 1.388 . S
C1311 C1312 1.366 . S
C1312 C1311 1.366 . S
C1312 C1313 1.414 . S
C1312 C1315 1.499 . S
C1313 H1287 0.950 1_545 S
C1313 C1312 1.414 . S
C1313 C1314 1.374 . S
C1314 H1288 0.950 . S
C1314 C1310 1.385 . S
C1314 C1313 1.374 . S
C1315 C1312 1.499 . S
C1315 C1316 1.373 1_545 S
C1315 C1317 1.389 . S
C1316 H1289 0.950 . S
C1316 C1302 1.377 1_455 S
C1316 C1315 1.373 1_565 S
C1317 C1301 1.377 1_455 S
C1317 C1315 1.389 . S
C1317 C1318 1.524 . S
C1318 C1317 1.524 . S
C1318 C1319 1.397 . S
C1318 C1323 1.363 1_455 S
C1319 H1290 0.950 . S
C1319 C1318 1.397 . S
C1319 C1320 1.334 . S
C1320 H1291 0.950 . S
C1320 C1319 1.334 . S
C1320 C1321 1.287 . S
C1321 C1320 1.287 . S
C1321 C1322 1.524 1_455 S
C1321 H1324 0.999 . S
C1322 H1292 0.950 . S
C1322 C1321 1.524 1_655 S
C1322 C1323 1.415 . S
C1323 H1293 0.950 . S
C1323 C1318 1.363 1_655 S
C1323 C1322 1.415 . S
H1324 C1321 0.999 . S
H1325 C1306 0.913 . S
H1326 C1344 0.951 . S
H1327 C1346 0.951 . S
H1328 C1348 0.950 . S
H1329 C1349 0.950 . S
H1330 C1351 0.950 . S
H1331 C1354 0.950 . S
H1332 C1355 0.950 . S
H1333 C1357 0.950 . S
H1334 C1358 0.950 . S
H1335 C1359 0.951 . S
H1336 C1361 0.951 . S
H1337 C1363 0.950 . S
H1338 C1364 0.950 . S
H1339 C1366 0.950 . S
H1340 C1369 0.950 . S
H1341 C1370 0.950 . S
H1342 C1372 0.950 . S
H1343 C1373 0.950 . S
C1344 H1326 0.951 . S
C1344 C1345 1.366 . S
C1344 C1346 1.388 . S
C1345 C1344 1.366 . S
C1345 C1349 1.385 . S
C1346 H1327 0.951 . S
C1346 C1344 1.388 . S
C1346 C1347 1.366 . S
C1347 C1346 1.366 . S
C1347 C1348 1.414 . S
C1347 C1350 1.499 . S
C1348 H1328 0.950 . S
C1348 C1347 1.414 . S
C1348 C1349 1.374 . S
C1349 H1329 0.950 . S
C1349 C1345 1.385 . S
C1349 C1348 1.374 . S
C1350 C1347 1.499 . S
C1350 C1351 1.373 . S
C1350 C1352 1.389 1_455 S
C1351 H1330 0.950 . S
C1351 C1350 1.373 . S
C1351 C1367 1.377 . S
C1352 C1350 1.389 1_655 S
C1352 C1353 1.524 . S
C1352 C1366 1.377 . S
C1353 C1352 1.524 . S
C1353 C1354 1.397 . S
C1353 C1358 1.363 . S
C1354 H1331 0.950 . S
C1354 C1353 1.397 . S
C1354 C1355 1.334 . S
C1355 H1332 0.950 . S
C1355 C1354 1.334 . S
C1355 C1356 1.287 . S
C1356 C1355 1.287 . S
C1356 C1357 1.524 . S
C1356 H1375 0.913 . S
C1357 H1333 0.950 . S
C1357 C1356 1.524 . S
C1357 C1358 1.415 . S
C1358 H1334 0.950 . S
C1358 C1353 1.363 . S
C1358 C1357 1.415 . S
C1359 H1335 0.951 . S
C1359 C1360 1.366 . S
C1359 C1361 1.388 . S
C1360 C1359 1.366 . S
C1360 C1364 1.385 . S
C1361 H1336 0.951 . S
C1361 C1359 1.388 . S
C1361 C1362 1.366 . S
C1362 C1361 1.366 . S
C1362 C1363 1.414 . S
C1362 C1365 1.499 . S
C1363 H1337 0.950 . S
C1363 C1362 1.414 . S
C1363 C1364 1.374 . S
C1364 H1338 0.950 . S
C1364 C1360 1.385 . S
C1364 C1363 1.374 . S
C1365 C1362 1.499 . S
C1365 C1366 1.373 . S
C1365 C1367 1.389 1_655 S
C1366 H1339 0.950 . S
C1366 C1352 1.377 . S
C1366 C1365 1.373 . S
C1367 C1351 1.377 . S
C1367 C1365 1.389 1_455 S
C1367 C1368 1.524 . S
C1368 C1367 1.524 . S
C1368 C1369 1.397 . S
C1368 C1373 1.363 . S
C1369 H1340 0.950 . S
C1369 C1368 1.397 . S
C1369 C1370 1.334 . S
C1370 H1341 0.950 . S
C1370 C1369 1.334 . S
C1370 C1371 1.287 . S
C1371 C1370 1.287 . S
C1371 C1372 1.524 . S
C1371 H1374 0.999 . S
C1372 H1342 0.950 . S
C1372 C1371 1.524 . S
C1372 C1373 1.415 . S
C1373 H1343 0.950 . S
C1373 C1368 1.363 . S
C1373 C1372 1.415 . S
H1374 C1371 0.999 . S
H1375 C1356 0.913 . S
H1376 C1394 0.951 . S
H1377 C1396 0.951 . S
H1378 C1398 0.950 . S
H1379 C1399 0.950 . S
H1380 C1401 0.950 . S
H1381 C1404 0.950 . S
H1382 C1405 0.950 . S
H1383 C1407 0.950 . S
H1384 C1408 0.950 . S
H1385 C1409 0.951 . S
H1386 C1411 0.951 . S
H1387 C1413 0.950 . S
H1388 C1414 0.950 . S
H1389 C1416 0.950 . S
H1390 C1419 0.950 . S
H1391 C1420 0.950 . S
H1392 C1422 0.950 . S
H1393 C1423 0.950 . S
C1394 H1376 0.951 . S
C1394 C1395 1.366 . S
C1394 C1396 1.388 . S
C1395 C1394 1.366 . S
C1395 C1399 1.385 . S
C1396 H1377 0.951 . S
C1396 C1394 1.388 . S
C1396 C1397 1.366 . S
C1397 C1396 1.366 . S
C1397 C1398 1.414 . S
C1397 C1400 1.499 . S
C1398 H1378 0.950 . S
C1398 C1397 1.414 . S
C1398 C1399 1.374 . S
C1399 H1379 0.950 . S
C1399 C1395 1.385 . S
C1399 C1398 1.374 . S
C1400 C1397 1.499 . S
C1400 C1401 1.373 . S
C1400 C1402 1.389 . S
C1401 H1380 0.950 . S
C1401 C1400 1.373 . S
C1401 C1417 1.377 . S
C1402 C1400 1.389 . S
C1402 C1403 1.524 . S
C1402 C1416 1.377 . S
C1403 C1402 1.524 . S
C1403 C1404 1.397 . S
C1403 C1408 1.363 . S
C1404 H1381 0.950 . S
C1404 C1403 1.397 . S
C1404 C1405 1.334 . S
C1405 H1382 0.950 . S
C1405 C1404 1.334 . S
C1405 C1406 1.287 . S
C1406 C1405 1.287 . S
C1406 C1407 1.524 . S
C1406 H1425 0.913 . S
C1407 H1383 0.950 . S
C1407 C1406 1.524 . S
C1407 C1408 1.415 . S
C1408 H1384 0.950 . S
C1408 C1403 1.363 . S
C1408 C1407 1.415 . S
C1409 H1385 0.951 . S
C1409 C1410 1.366 . S
C1409 C1411 1.388 . S
C1410 C1409 1.366 . S
C1410 C1414 1.385 . S
C1411 H1386 0.951 . S
C1411 C1409 1.388 . S
C1411 C1412 1.366 . S
C1412 C1411 1.366 . S
C1412 C1413 1.414 . S
C1412 C1415 1.499 . S
C1413 H1387 0.950 . S
C1413 C1412 1.414 . S
C1413 C1414 1.374 . S
C1414 H1388 0.950 . S
C1414 C1410 1.385 . S
C1414 C1413 1.374 . S
C1415 C1412 1.499 . S
C1415 C1416 1.373 . S
C1415 C1417 1.389 . S
C1416 H1389 0.950 . S
C1416 C1402 1.377 . S
C1416 C1415 1.373 . S
C1417 C1401 1.377 . S
C1417 C1415 1.389 . S
C1417 C1418 1.524 . S
C1418 C1417 1.524 . S
C1418 C1419 1.397 . S
C1418 C1423 1.363 . S
C1419 H1390 0.950 . S
C1419 C1418 1.397 . S
C1419 C1420 1.334 . S
C1420 H1391 0.950 . S
C1420 C1419 1.334 . S
C1420 C1421 1.287 . S
C1421 C1420 1.287 . S
C1421 C1422 1.524 . S
C1421 H1424 0.999 . S
C1422 H1392 0.950 . S
C1422 C1421 1.524 . S
C1422 C1423 1.415 . S
C1423 H1393 0.950 . S
C1423 C1418 1.363 . S
C1423 C1422 1.415 . S
H1424 C1421 0.999 . S
H1425 C1406 0.913 . S
H1426 C1444 0.951 . S
H1427 C1446 0.951 . S
H1428 C1448 0.950 . S
H1429 C1449 0.950 . S
H1430 C1451 0.950 . S
H1431 C1454 0.950 . S
H1432 C1455 0.950 . S
H1433 C1457 0.950 . S
H1434 C1458 0.950 . S
H1435 C1459 0.951 . S
H1436 C1461 0.951 . S
H1437 C1463 0.950 . S
H1438 C1464 0.950 . S
H1439 C1466 0.950 . S
H1440 C1469 0.950 . S
H1441 C1470 0.950 . S
H1442 C1472 0.950 . S
H1443 C1473 0.950 . S
C1444 H1426 0.951 . S
C1444 C1445 1.366 . S
C1444 C1446 1.388 . S
C1445 C1444 1.366 . S
C1445 C1449 1.385 . S
C1446 H1427 0.951 . S
C1446 C1444 1.388 . S
C1446 C1447 1.366 . S
C1447 C1446 1.366 . S
C1447 C1448 1.414 . S
C1447 C1450 1.499 . S
C1448 H1428 0.950 . S
C1448 C1447 1.414 . S
C1448 C1449 1.374 . S
C1449 H1429 0.950 . S
C1449 C1445 1.385 . S
C1449 C1448 1.374 . S
C1450 C1447 1.499 . S
C1450 C1451 1.373 . S
C1450 C1452 1.389 . S
C1451 H1430 0.950 . S
C1451 C1450 1.373 . S
C1451 C1467 1.377 . S
C1452 C1450 1.389 . S
C1452 C1453 1.524 . S
C1452 C1466 1.377 . S
C1453 C1452 1.524 . S
C1453 C1454 1.397 . S
C1453 C1458 1.363 . S
C1454 H1431 0.950 . S
C1454 C1453 1.397 . S
C1454 C1455 1.334 . S
C1455 H1432 0.950 . S
C1455 C1454 1.334 . S
C1455 C1456 1.287 . S
C1456 C1455 1.287 . S
C1456 C1457 1.524 . S
C1456 H1475 0.913 . S
C1457 H1433 0.950 . S
C1457 C1456 1.524 . S
C1457 C1458 1.415 . S
C1458 H1434 0.950 . S
C1458 C1453 1.363 . S
C1458 C1457 1.415 . S
C1459 H1435 0.951 . S
C1459 C1460 1.366 . S
C1459 C1461 1.388 . S
C1460 C1459 1.366 . S
C1460 C1464 1.385 . S
C1461 H1436 0.951 . S
C1461 C1459 1.388 . S
C1461 C1462 1.366 . S
C1462 C1461 1.366 . S
C1462 C1463 1.414 . S
C1462 C1465 1.499 . S
C1463 H1437 0.950 . S
C1463 C1462 1.414 . S
C1463 C1464 1.374 . S
C1464 H1438 0.950 . S
C1464 C1460 1.385 . S
C1464 C1463 1.374 . S
C1465 C1462 1.499 . S
C1465 C1466 1.373 . S
C1465 C1467 1.389 . S
C1466 H1439 0.950 . S
C1466 C1452 1.377 . S
C1466 C1465 1.373 . S
C1467 C1451 1.377 . S
C1467 C1465 1.389 . S
C1467 C1468 1.524 . S
C1468 C1467 1.524 . S
C1468 C1469 1.397 . S
C1468 C1473 1.363 . S
C1469 H1440 0.950 . S
C1469 C1468 1.397 . S
C1469 C1470 1.334 . S
C1470 H1441 0.950 . S
C1470 C1469 1.334 . S
C1470 C1471 1.287 . S
C1471 C1470 1.287 . S
C1471 C1472 1.524 . S
C1471 H1474 0.999 . S
C1472 H1442 0.950 . S
C1472 C1471 1.524 . S
C1472 C1473 1.415 . S
C1473 H1443 0.950 . S
C1473 C1468 1.363 . S
C1473 C1472 1.415 . S
H1474 C1471 0.999 . S
H1475 C1456 0.913 . S
H1476 C1494 0.951 . S
H1477 C1496 0.951 . S
H1478 C1498 0.950 . S
H1479 C1499 0.950 . S
H1480 C1501 0.950 . S
H1481 C1504 0.950 . S
H1482 C1505 0.950 . S
H1483 C1507 0.950 . S
H1484 C1508 0.950 . S
H1485 C1509 0.951 . S
H1486 C1511 0.951 . S
H1487 C1513 0.950 . S
H1488 C1514 0.950 . S
H1489 C1516 0.950 . S
H1490 C1519 0.950 . S
H1491 C1520 0.950 . S
H1492 C1522 0.950 . S
H1493 C1523 0.950 . S
C1494 H1476 0.951 . S
C1494 C1495 1.366 . S
C1494 C1496 1.388 . S
C1495 C1494 1.366 . S
C1495 C1499 1.385 . S
C1496 H1477 0.951 . S
C1496 C1494 1.388 . S
C1496 C1497 1.366 . S
C1497 C1496 1.366 . S
C1497 C1498 1.414 . S
C1497 C1500 1.499 . S
C1498 H1478 0.950 . S
C1498 C1497 1.414 . S
C1498 C1499 1.374 . S
C1499 H1479 0.950 . S
C1499 C1495 1.385 . S
C1499 C1498 1.374 . S
C1500 C1497 1.499 . S
C1500 C1501 1.373 . S
C1500 C1502 1.389 . S
C1501 H1480 0.950 . S
C1501 C1500 1.373 . S
C1501 C1517 1.377 . S
C1502 C1500 1.389 . S
C1502 C1503 1.524 . S
C1502 C1516 1.377 . S
C1503 C1502 1.524 . S
C1503 C1504 1.397 . S
C1503 C1508 1.363 . S
C1504 H1481 0.950 . S
C1504 C1503 1.397 . S
C1504 C1505 1.334 . S
C1505 H1482 0.950 . S
C1505 C1504 1.334 . S
C1505 C1506 1.287 . S
C1506 C1505 1.287 . S
C1506 C1507 1.524 . S
C1506 H1525 0.913 . S
C1507 H1483 0.950 . S
C1507 C1506 1.524 . S
C1507 C1508 1.415 . S
C1508 H1484 0.950 . S
C1508 C1503 1.363 . S
C1508 C1507 1.415 . S
C1509 H1485 0.951 . S
C1509 C1510 1.366 . S
C1509 C1511 1.388 . S
C1510 C1509 1.366 . S
C1510 C1514 1.385 . S
C1511 H1486 0.951 . S
C1511 C1509 1.388 . S
C1511 C1512 1.366 . S
C1512 C1511 1.366 . S
C1512 C1513 1.414 . S
C1512 C1515 1.499 . S
C1513 H1487 0.950 . S
C1513 C1512 1.414 . S
C1513 C1514 1.374 . S
C1514 H1488 0.950 . S
C1514 C1510 1.385 . S
C1514 C1513 1.374 . S
C1515 C1512 1.499 . S
C1515 C1516 1.373 . S
C1515 C1517 1.389 . S
C1516 H1489 0.950 . S
C1516 C1502 1.377 . S
C1516 C1515 1.373 . S
C1517 C1501 1.377 . S
C1517 C1515 1.389 . S
C1517 C1518 1.524 . S
C1518 C1517 1.524 . S
C1518 C1519 1.397 . S
C1518 C1523 1.363 . S
C1519 H1490 0.950 . S
C1519 C1518 1.397 . S
C1519 C1520 1.334 . S
C1520 H1491 0.950 . S
C1520 C1519 1.334 . S
C1520 C1521 1.287 . S
C1521 C1520 1.287 . S
C1521 C1522 1.524 . S
C1521 H1524 0.999 . S
C1522 H1492 0.950 . S
C1522 C1521 1.524 . S
C1522 C1523 1.415 . S
C1523 H1493 0.950 . S
C1523 C1518 1.363 . S
C1523 C1522 1.415 . S
H1524 C1521 0.999 . S
H1525 C1506 0.913 . S
H1526 C1544 0.951 . S
H1527 C1546 0.951 . S
H1528 C1548 0.950 . S
H1529 C1549 0.950 . S
H1530 C1551 0.950 . S
H1531 C1554 0.950 . S
H1532 C1555 0.950 . S
H1533 C1557 0.950 . S
H1534 C1558 0.950 . S
H1535 C1559 0.951 . S
H1536 C1561 0.951 . S
H1537 C1563 0.950 . S
H1538 C1564 0.950 . S
H1539 C1566 0.950 . S
H1540 C1569 0.950 . S
H1541 C1570 0.950 . S
H1542 C1572 0.950 . S
H1543 C1573 0.950 . S
C1544 H1526 0.951 . S
C1544 C1545 1.366 . S
C1544 C1546 1.388 . S
C1545 C1544 1.366 . S
C1545 C1549 1.385 . S
C1546 H1527 0.951 . S
C1546 C1544 1.388 . S
C1546 C1547 1.366 . S
C1547 C1546 1.366 . S
C1547 C1548 1.414 . S
C1547 C1550 1.499 . S
C1548 H1528 0.950 . S
C1548 C1547 1.414 . S
C1548 C1549 1.374 . S
C1549 H1529 0.950 . S
C1549 C1545 1.385 . S
C1549 C1548 1.374 . S
C1550 C1547 1.499 . S
C1550 C1551 1.373 . S
C1550 C1552 1.389 . S
C1551 H1530 0.950 . S
C1551 C1550 1.373 . S
C1551 C1567 1.377 . S
C1552 C1550 1.389 . S
C1552 C1553 1.524 . S
C1552 C1566 1.377 . S
C1553 C1552 1.524 . S
C1553 C1554 1.397 . S
C1553 C1558 1.363 . S
C1554 H1531 0.950 . S
C1554 C1553 1.397 . S
C1554 C1555 1.334 . S
C1555 H1532 0.950 . S
C1555 C1554 1.334 . S
C1555 C1556 1.287 . S
C1556 C1555 1.287 . S
C1556 C1557 1.524 . S
C1556 H1575 0.913 . S
C1557 H1533 0.950 . S
C1557 C1556 1.524 . S
C1557 C1558 1.415 . S
C1558 H1534 0.950 . S
C1558 C1553 1.363 . S
C1558 C1557 1.415 . S
C1559 H1535 0.951 . S
C1559 C1560 1.366 . S
C1559 C1561 1.388 . S
C1560 C1559 1.366 . S
C1560 C1564 1.385 . S
C1561 H1536 0.951 . S
C1561 C1559 1.388 . S
C1561 C1562 1.366 . S
C1562 C1561 1.366 . S
C1562 C1563 1.414 . S
C1562 C1565 1.499 . S
C1563 H1537 0.950 . S
C1563 C1562 1.414 . S
C1563 C1564 1.374 . S
C1564 H1538 0.950 . S
C1564 C1560 1.385 . S
C1564 C1563 1.374 . S
C1565 C1562 1.499 . S
C1565 C1566 1.373 . S
C1565 C1567 1.389 . S
C1566 H1539 0.950 . S
C1566 C1552 1.377 . S
C1566 C1565 1.373 . S
C1567 C1551 1.377 . S
C1567 C1565 1.389 . S
C1567 C1568 1.524 . S
C1568 C1567 1.524 . S
C1568 C1569 1.397 . S
C1568 C1573 1.363 . S
C1569 H1540 0.950 . S
C1569 C1568 1.397 . S
C1569 C1570 1.334 . S
C1570 H1541 0.950 . S
C1570 C1569 1.334 . S
C1570 C1571 1.287 . S
C1571 C1570 1.287 . S
C1571 C1572 1.524 . S
C1571 H1574 0.999 . S
C1572 H1542 0.950 . S
C1572 C1571 1.524 . S
C1572 C1573 1.415 . S
C1573 H1543 0.950 . S
C1573 C1568 1.363 . S
C1573 C1572 1.415 . S
H1574 C1571 0.999 . S
H1575 C1556 0.913 . S
H1576 C1594 0.951 . S
H1577 C1596 0.951 . S
H1578 C1598 0.950 . S
H1579 C1599 0.950 . S
H1580 C1601 0.950 . S
H1581 C1604 0.950 . S
H1582 C1605 0.950 . S
H1583 C1607 0.950 . S
H1584 C1608 0.950 . S
H1585 C1609 0.951 . S
H1586 C1611 0.951 . S
H1587 C1613 0.950 . S
H1588 C1614 0.950 . S
H1589 C1616 0.950 . S
H1590 C1619 0.950 . S
H1591 C1620 0.950 . S
H1592 C1622 0.950 . S
H1593 C1623 0.950 . S
C1594 H1576 0.951 . S
C1594 C1595 1.366 . S
C1594 C1596 1.388 . S
C1595 C1594 1.366 . S
C1595 C1599 1.385 . S
C1596 H1577 0.951 . S
C1596 C1594 1.388 . S
C1596 C1597 1.366 . S
C1597 C1596 1.366 . S
C1597 C1598 1.414 . S
C1597 C1600 1.499 . S
C1598 H1578 0.950 . S
C1598 C1597 1.414 . S
C1598 C1599 1.374 . S
C1599 H1579 0.950 . S
C1599 C1595 1.385 . S
C1599 C1598 1.374 . S
C1600 C1597 1.499 . S
C1600 C1601 1.373 . S
C1600 C1602 1.389 . S
C1601 H1580 0.950 . S
C1601 C1600 1.373 . S
C1601 C1617 1.377 . S
C1602 C1600 1.389 . S
C1602 C1603 1.524 . S
C1602 C1616 1.377 . S
C1603 C1602 1.524 . S
C1603 C1604 1.397 . S
C1603 C1608 1.363 . S
C1604 H1581 0.950 . S
C1604 C1603 1.397 . S
C1604 C1605 1.334 . S
C1605 H1582 0.950 . S
C1605 C1604 1.334 . S
C1605 C1606 1.287 . S
C1606 C1605 1.287 . S
C1606 C1607 1.524 . S
C1606 H1625 0.913 . S
C1607 H1583 0.950 . S
C1607 C1606 1.524 . S
C1607 C1608 1.415 . S
C1608 H1584 0.950 . S
C1608 C1603 1.363 . S
C1608 C1607 1.415 . S
C1609 H1585 0.951 . S
C1609 C1610 1.366 . S
C1609 C1611 1.388 . S
C1610 C1609 1.366 . S
C1610 C1614 1.385 . S
C1611 H1586 0.951 . S
C1611 C1609 1.388 . S
C1611 C1612 1.366 . S
C1612 C1611 1.366 . S
C1612 C1613 1.414 . S
C1612 C1615 1.499 . S
C1613 H1587 0.950 . S
C1613 C1612 1.414 . S
C1613 C1614 1.374 . S
C1614 H1588 0.950 . S
C1614 C1610 1.385 . S
C1614 C1613 1.374 . S
C1615 C1612 1.499 . S
C1615 C1616 1.373 . S
C1615 C1617 1.389 . S
C1616 H1589 0.950 . S
C1616 C1602 1.377 . S
C1616 C1615 1.373 . S
C1617 C1601 1.377 . S
C1617 C1615 1.389 . S
C1617 C1618 1.524 . S
C1618 C1617 1.524 . S
C1618 C1619 1.397 . S
C1618 C1623 1.363 . S
C1619 H1590 0.950 . S
C1619 C1618 1.397 . S
C1619 C1620 1.334 . S
C1620 H1591 0.950 . S
C1620 C1619 1.334 . S
C1620 C1621 1.287 . S
C1621 C1620 1.287 . S
C1621 C1622 1.524 . S
C1621 H1624 0.999 . S
C1622 H1592 0.950 . S
C1622 C1621 1.524 . S
C1622 C1623 1.415 . S
C1623 H1593 0.950 . S
C1623 C1618 1.363 . S
C1623 C1622 1.415 . S
H1624 C1621 0.999 . S
H1625 C1606 0.913 . S
H1626 C1644 0.951 . S
H1627 C1646 0.951 . S
H1628 C1648 0.950 . S
H1629 C1649 0.950 . S
H1630 C1651 0.950 . S
H1631 C1654 0.950 . S
H1632 C1655 0.950 . S
H1633 C1657 0.950 . S
H1634 C1658 0.950 . S
H1635 C1659 0.951 . S
H1636 C1661 0.951 . S
H1637 C1663 0.950 . S
H1638 C1664 0.950 . S
H1639 C1666 0.950 . S
H1640 C1669 0.950 . S
H1641 C1670 0.950 . S
H1642 C1672 0.950 . S
H1643 C1673 0.950 . S
C1644 H1626 0.951 . S
C1644 C1645 1.366 . S
C1644 C1646 1.388 . S
C1645 C1644 1.366 . S
C1645 C1649 1.385 . S
C1646 H1627 0.951 . S
C1646 C1644 1.388 . S
C1646 C1647 1.366 . S
C1647 C1646 1.366 . S
C1647 C1648 1.414 . S
C1647 C1650 1.499 . S
C1648 H1628 0.950 . S
C1648 C1647 1.414 . S
C1648 C1649 1.374 . S
C1649 H1629 0.950 . S
C1649 C1645 1.385 . S
C1649 C1648 1.374 . S
C1650 C1647 1.499 . S
C1650 C1651 1.373 . S
C1650 C1652 1.389 . S
C1651 H1630 0.950 . S
C1651 C1650 1.373 . S
C1651 C1667 1.377 . S
C1652 C1650 1.389 . S
C1652 C1653 1.524 . S
C1652 C1666 1.377 . S
C1653 C1652 1.524 . S
C1653 C1654 1.397 . S
C1653 C1658 1.363 . S
C1654 H1631 0.950 . S
C1654 C1653 1.397 . S
C1654 C1655 1.334 . S
C1655 H1632 0.950 . S
C1655 C1654 1.334 . S
C1655 C1656 1.287 . S
C1656 C1655 1.287 . S
C1656 C1657 1.524 . S
C1656 H1675 0.913 . S
C1657 H1633 0.950 . S
C1657 C1656 1.524 . S
C1657 C1658 1.415 . S
C1658 H1634 0.950 . S
C1658 C1653 1.363 . S
C1658 C1657 1.415 . S
C1659 H1635 0.951 . S
C1659 C1660 1.366 . S
C1659 C1661 1.388 . S
C1660 C1659 1.366 . S
C1660 C1664 1.385 . S
C1661 H1636 0.951 . S
C1661 C1659 1.388 . S
C1661 C1662 1.366 . S
C1662 C1661 1.366 . S
C1662 C1663 1.414 . S
C1662 C1665 1.499 . S
C1663 H1637 0.950 . S
C1663 C1662 1.414 . S
C1663 C1664 1.374 . S
C1664 H1638 0.950 . S
C1664 C1660 1.385 . S
C1664 C1663 1.374 . S
C1665 C1662 1.499 . S
C1665 C1666 1.373 . S
C1665 C1667 1.389 . S
C1666 H1639 0.950 . S
C1666 C1652 1.377 . S
C1666 C1665 1.373 . S
C1667 C1651 1.377 . S
C1667 C1665 1.389 . S
C1667 C1668 1.524 . S
C1668 C1667 1.524 . S
C1668 C1669 1.397 . S
C1668 C1673 1.363 . S
C1669 H1640 0.950 . S
C1669 C1668 1.397 . S
C1669 C1670 1.334 . S
C1670 H1641 0.950 . S
C1670 C1669 1.334 . S
C1670 C1671 1.287 . S
C1671 C1670 1.287 . S
C1671 C1672 1.524 . S
C1671 H1674 0.999 . S
C1672 H1642 0.950 . S
C1672 C1671 1.524 . S
C1672 C1673 1.415 . S
C1673 H1643 0.950 . S
C1673 C1668 1.363 . S
C1673 C1672 1.415 . S
H1674 C1671 0.999 . S
H1675 C1656 0.913 . S
H1676 C1694 0.951 . S
H1677 C1696 0.951 . S
H1678 C1698 0.950 . S
H1679 C1699 0.950 . S
H1680 C1701 0.950 . S
H1681 C1704 0.950 . S
H1682 C1705 0.950 . S
H1683 C1707 0.950 . S
H1684 C1708 0.950 . S
H1685 C1709 0.951 . S
H1686 C1711 0.951 . S
H1687 C1713 0.950 . S
H1688 C1714 0.950 . S
H1689 C1716 0.950 . S
H1690 C1719 0.950 . S
H1691 C1720 0.950 . S
H1692 C1722 0.950 . S
H1693 C1723 0.950 . S
C1694 H1676 0.951 . S
C1694 C1695 1.366 . S
C1694 C1696 1.388 . S
C1695 C1694 1.366 . S
C1695 C1699 1.385 . S
C1696 H1677 0.951 . S
C1696 C1694 1.388 . S
C1696 C1697 1.366 . S
C1697 C1696 1.366 . S
C1697 C1698 1.414 . S
C1697 C1700 1.499 . S
C1698 H1678 0.950 . S
C1698 C1697 1.414 . S
C1698 C1699 1.374 . S
C1699 H1679 0.950 . S
C1699 C1695 1.385 . S
C1699 C1698 1.374 . S
C1700 C1697 1.499 . S
C1700 C1701 1.373 . S
C1700 C1702 1.389 . S
C1701 H1680 0.950 . S
C1701 C1700 1.373 . S
C1701 C1717 1.377 . S
C1702 C1700 1.389 . S
C1702 C1703 1.524 . S
C1702 C1716 1.377 . S
C1703 C1702 1.524 . S
C1703 C1704 1.397 . S
C1703 C1708 1.363 . S
C1704 H1681 0.950 . S
C1704 C1703 1.397 . S
C1704 C1705 1.334 . S
C1705 H1682 0.950 . S
C1705 C1704 1.334 . S
C1705 C1706 1.287 . S
C1706 C1705 1.287 . S
C1706 C1707 1.524 . S
C1706 H1725 0.913 . S
C1707 H1683 0.950 . S
C1707 C1706 1.524 . S
C1707 C1708 1.415 . S
C1708 H1684 0.950 . S
C1708 C1703 1.363 . S
C1708 C1707 1.415 . S
C1709 H1685 0.951 . S
C1709 C1710 1.366 . S
C1709 C1711 1.388 . S
C1710 C1709 1.366 . S
C1710 C1714 1.385 . S
C1711 H1686 0.951 . S
C1711 C1709 1.388 . S
C1711 C1712 1.366 . S
C1712 C1711 1.366 . S
C1712 C1713 1.414 . S
C1712 C1715 1.499 . S
C1713 H1687 0.950 . S
C1713 C1712 1.414 . S
C1713 C1714 1.374 . S
C1714 H1688 0.950 . S
C1714 C1710 1.385 . S
C1714 C1713 1.374 . S
C1715 C1712 1.499 . S
C1715 C1716 1.373 . S
C1715 C1717 1.389 . S
C1716 H1689 0.950 . S
C1716 C1702 1.377 . S
C1716 C1715 1.373 . S
C1717 C1701 1.377 . S
C1717 C1715 1.389 . S
C1717 C1718 1.524 . S
C1718 C1717 1.524 . S
C1718 C1719 1.397 . S
C1718 C1723 1.363 . S
C1719 H1690 0.950 . S
C1719 C1718 1.397 . S
C1719 C1720 1.334 . S
C1720 H1691 0.950 . S
C1720 C1719 1.334 . S
C1720 C1721 1.287 . S
C1721 C1720 1.287 . S
C1721 C1722 1.524 . S
C1721 H1724 0.999 . S
C1722 H1692 0.950 . S
C1722 C1721 1.524 . S
C1722 C1723 1.415 . S
C1723 H1693 0.950 . S
C1723 C1718 1.363 . S
C1723 C1722 1.415 . S
H1724 C1721 0.999 . S
H1725 C1706 0.913 . S
H1726 C1744 0.951 . S
H1727 C1746 0.951 . S
H1728 C1748 0.950 . S
H1729 C1749 0.950 . S
H1730 C1751 0.950 . S
H1731 C1754 0.950 . S
H1732 C1755 0.950 . S
H1733 C1757 0.950 . S
H1734 C1758 0.950 . S
H1735 C1759 0.951 . S
H1736 C1761 0.951 . S
H1737 C1763 0.950 . S
H1738 C1764 0.950 . S
H1739 C1766 0.950 . S
H1740 C1769 0.950 . S
H1741 C1770 0.950 . S
H1742 C1772 0.950 . S
H1743 C1773 0.950 . S
C1744 H1726 0.951 . S
C1744 C1745 1.366 . S
C1744 C1746 1.388 . S
C1745 C1744 1.366 . S
C1745 C1749 1.385 . S
C1746 H1727 0.951 . S
C1746 C1744 1.388 . S
C1746 C1747 1.366 . S
C1747 C1746 1.366 . S
C1747 C1748 1.414 . S
C1747 C1750 1.499 . S
C1748 H1728 0.950 . S
C1748 C1747 1.414 . S
C1748 C1749 1.374 . S
C1749 H1729 0.950 . S
C1749 C1745 1.385 . S
C1749 C1748 1.374 . S
C1750 C1747 1.499 . S
C1750 C1751 1.373 . S
C1750 C1752 1.389 . S
C1751 H1730 0.950 . S
C1751 C1750 1.373 . S
C1751 C1767 1.377 . S
C1752 C1750 1.389 . S
C1752 C1753 1.524 . S
C1752 C1766 1.377 . S
C1753 C1752 1.524 . S
C1753 C1754 1.397 . S
C1753 C1758 1.363 . S
C1754 H1731 0.950 . S
C1754 C1753 1.397 . S
C1754 C1755 1.334 . S
C1755 H1732 0.950 . S
C1755 C1754 1.334 . S
C1755 C1756 1.287 . S
C1756 C1755 1.287 . S
C1756 C1757 1.524 . S
C1756 H1775 0.913 . S
C1757 H1733 0.950 . S
C1757 C1756 1.524 . S
C1757 C1758 1.415 . S
C1758 H1734 0.950 . S
C1758 C1753 1.363 . S
C1758 C1757 1.415 . S
C1759 H1735 0.951 . S
C1759 C1760 1.366 . S
C1759 C1761 1.388 . S
C1760 C1759 1.366 . S
C1760 C1764 1.385 . S
C1761 H1736 0.951 . S
C1761 C1759 1.388 . S
C1761 C1762 1.366 . S
C1762 C1761 1.366 . S
C1762 C1763 1.414 . S
C1762 C1765 1.499 . S
C1763 H1737 0.950 . S
C1763 C1762 1.414 . S
C1763 C1764 1.374 . S
C1764 H1738 0.950 . S
C1764 C1760 1.385 . S
C1764 C1763 1.374 . S
C1765 C1762 1.499 . S
C1765 C1766 1.373 . S
C1765 C1767 1.389 . S
C1766 H1739 0.950 . S
C1766 C1752 1.377 . S
C1766 C1765 1.373 . S
C1767 C1751 1.377 . S
C1767 C1765 1.389 . S
C1767 C1768 1.524 . S
C1768 C1767 1.524 . S
C1768 C1769 1.397 . S
C1768 C1773 1.363 . S
C1769 H1740 0.950 . S
C1769 C1768 1.397 . S
C1769 C1770 1.334 . S
C1770 H1741 0.950 . S
C1770 C1769 1.334 . S
C1770 C1771 1.287 . S
C1771 C1770 1.287 . S
C1771 C1772 1.524 . S
C1771 H1774 0.999 . S
C1772 H1742 0.950 . S
C1772 C1771 1.524 . S
C1772 C1773 1.415 . S
C1773 H1743 0.950 . S
C1773 C1768 1.363 . S
C1773 C1772 1.415 . S
H1774 C1771 0.999 . S
H1775 C1756 0.913 . S
H1776 C1794 0.951 . S
H1777 C1796 0.951 . S
H1778 C1798 0.950 . S
H1779 C1799 0.950 . S
H1780 C1801 0.950 . S
H1781 C1804 0.950 . S
H1782 C1805 0.950 . S
H1783 C1807 0.950 . S
H1784 C1808 0.950 . S
H1785 C1809 0.951 . S
H1786 C1811 0.951 . S
H1787 C1813 0.950 . S
H1788 C1814 0.950 . S
H1789 C1816 0.950 . S
H1790 C1819 0.950 . S
H1791 C1820 0.950 . S
H1792 C1822 0.950 . S
H1793 C1823 0.950 . S
C1794 H1776 0.951 . S
C1794 C1795 1.366 . S
C1794 C1796 1.388 . S
C1795 C1794 1.366 . S
C1795 C1799 1.385 . S
C1796 H1777 0.951 . S
C1796 C1794 1.388 . S
C1796 C1797 1.366 . S
C1797 C1796 1.366 . S
C1797 C1798 1.414 . S
C1797 C1800 1.499 . S
C1798 H1778 0.950 . S
C1798 C1797 1.414 . S
C1798 C1799 1.374 . S
C1799 H1779 0.950 . S
C1799 C1795 1.385 . S
C1799 C1798 1.374 . S
C1800 C1797 1.499 . S
C1800 C1801 1.373 . S
C1800 C1802 1.389 . S
C1801 H1780 0.950 . S
C1801 C1800 1.373 . S
C1801 C1817 1.377 . S
C1802 C1800 1.389 . S
C1802 C1803 1.524 . S
C1802 C1816 1.377 . S
C1803 C1802 1.524 . S
C1803 C1804 1.397 . S
C1803 C1808 1.363 . S
C1804 H1781 0.950 . S
C1804 C1803 1.397 . S
C1804 C1805 1.334 . S
C1805 H1782 0.950 . S
C1805 C1804 1.334 . S
C1805 C1806 1.287 . S
C1806 C1805 1.287 . S
C1806 C1807 1.524 . S
C1806 H1825 0.913 . S
C1807 H1783 0.950 . S
C1807 C1806 1.524 . S
C1807 C1808 1.415 . S
C1808 H1784 0.950 . S
C1808 C1803 1.363 . S
C1808 C1807 1.415 . S
C1809 H1785 0.951 . S
C1809 C1810 1.366 . S
C1809 C1811 1.388 . S
C1810 C1809 1.366 . S
C1810 C1814 1.385 . S
C1811 H1786 0.951 . S
C1811 C1809 1.388 . S
C1811 C1812 1.366 . S
C1812 C1811 1.366 . S
C1812 C1813 1.414 . S
C1812 C1815 1.499 . S
C1813 H1787 0.950 . S
C1813 C1812 1.414 . S
C1813 C1814 1.374 . S
C1814 H1788 0.950 . S
C1814 C1810 1.385 . S
C1814 C1813 1.374 . S
C1815 C1812 1.499 . S
C1815 C1816 1.373 . S
C1815 C1817 1.389 . S
C1816 H1789 0.950 . S
C1816 C1802 1.377 . S
C1816 C1815 1.373 . S
C1817 C1801 1.377 . S
C1817 C1815 1.389 . S
C1817 C1818 1.524 . S
C1818 C1817 1.524 . S
C1818 C1819 1.397 . S
C1818 C1823 1.363 . S
C1819 H1790 0.950 . S
C1819 C1818 1.397 . S
C1819 C1820 1.334 . S
C1820 H1791 0.950 . S
C1820 C1819 1.334 . S
C1820 C1821 1.287 . S
C1821 C1820 1.287 . S
C1821 C1822 1.524 . S
C1821 H1824 0.999 . S
C1822 H1792 0.950 . S
C1822 C1821 1.524 . S
C1822 C1823 1.415 . S
C1823 H1793 0.950 . S
C1823 C1818 1.363 . S
C1823 C1822 1.415 . S
H1824 C1821 0.999 . S
H1825 C1806 0.913 . S
H1826 C1844 0.951 . S
H1827 C1846 0.951 . S
H1828 C1848 0.950 . S
H1829 C1849 0.950 . S
H1830 C1851 0.950 . S
H1831 C1854 0.950 . S
H1832 C1855 0.950 . S
H1833 C1857 0.950 . S
H1834 C1858 0.950 . S
H1835 C1859 0.951 . S
H1836 C1861 0.951 . S
H1837 C1863 0.950 . S
H1838 C1864 0.950 . S
H1839 C1866 0.950 . S
H1840 C1869 0.950 . S
H1841 C1870 0.950 . S
H1842 C1872 0.950 . S
H1843 C1873 0.950 . S
C1844 H1826 0.951 . S
C1844 C1845 1.366 . S
C1844 C1846 1.388 . S
C1845 C1844 1.366 . S
C1845 C1849 1.385 . S
C1846 H1827 0.951 . S
C1846 C1844 1.388 . S
C1846 C1847 1.366 . S
C1847 C1846 1.366 . S
C1847 C1848 1.414 . S
C1847 C1850 1.499 . S
C1848 H1828 0.950 . S
C1848 C1847 1.414 . S
C1848 C1849 1.374 . S
C1849 H1829 0.950 . S
C1849 C1845 1.385 . S
C1849 C1848 1.374 . S
C1850 C1847 1.499 . S
C1850 C1851 1.373 . S
C1850 C1852 1.389 . S
C1851 H1830 0.950 . S
C1851 C1850 1.373 . S
C1851 C1867 1.377 . S
C1852 C1850 1.389 . S
C1852 C1853 1.524 . S
C1852 C1866 1.377 . S
C1853 C1852 1.524 . S
C1853 C1854 1.397 . S
C1853 C1858 1.363 . S
C1854 H1831 0.950 . S
C1854 C1853 1.397 . S
C1854 C1855 1.334 . S
C1855 H1832 0.950 . S
C1855 C1854 1.334 . S
C1855 C1856 1.287 . S
C1856 C1855 1.287 . S
C1856 C1857 1.524 . S
C1856 H1875 0.913 . S
C1857 H1833 0.950 . S
C1857 C1856 1.524 . S
C1857 C1858 1.415 . S
C1858 H1834 0.950 . S
C1858 C1853 1.363 . S
C1858 C1857 1.415 . S
C1859 H1835 0.951 . S
C1859 C1860 1.366 . S
C1859 C1861 1.388 . S
C1860 C1859 1.366 . S
C1860 C1864 1.385 . S
C1861 H1836 0.951 . S
C1861 C1859 1.388 . S
C1861 C1862 1.366 . S
C1862 C1861 1.366 . S
C1862 C1863 1.414 . S
C1862 C1865 1.499 . S
C1863 H1837 0.950 . S
C1863 C1862 1.414 . S
C1863 C1864 1.374 . S
C1864 H1838 0.950 . S
C1864 C1860 1.385 . S
C1864 C1863 1.374 . S
C1865 C1862 1.499 . S
C1865 C1866 1.373 . S
C1865 C1867 1.389 . S
C1866 H1839 0.950 . S
C1866 C1852 1.377 . S
C1866 C1865 1.373 . S
C1867 C1851 1.377 . S
C1867 C1865 1.389 . S
C1867 C1868 1.524 . S
C1868 C1867 1.524 . S
C1868 C1869 1.397 . S
C1868 C1873 1.363 . S
C1869 H1840 0.950 . S
C1869 C1868 1.397 . S
C1869 C1870 1.334 . S
C1870 H1841 0.950 . S
C1870 C1869 1.334 . S
C1870 C1871 1.287 . S
C1871 C1870 1.287 . S
C1871 C1872 1.524 . S
C1871 H1874 0.999 . S
C1872 H1842 0.950 . S
C1872 C1871 1.524 . S
C1872 C1873 1.415 . S
C1873 H1843 0.950 . S
C1873 C1868 1.363 . S
C1873 C1872 1.415 . S
H1874 C1871 0.999 . S
H1875 C1856 0.913 . S
H1876 C1894 0.951 . S
H1877 C1896 0.951 . S
H1878 C1898 0.950 . S
H1879 C1899 0.950 . S
H1880 C1901 0.950 . S
H1881 C1904 0.950 . S
H1882 C1905 0.950 . S
H1883 C1907 0.950 . S
H1884 C1908 0.950 . S
H1885 C1909 0.951 . S
H1886 C1911 0.951 . S
H1887 C1913 0.950 . S
H1888 C1914 0.950 . S
H1889 C1916 0.950 . S
H1890 C1919 0.950 . S
H1891 C1920 0.950 . S
H1892 C1922 0.950 . S
H1893 C1923 0.950 . S
C1894 H1876 0.951 . S
C1894 C1895 1.366 . S
C1894 C1896 1.388 . S
C1895 C1894 1.366 . S
C1895 C1899 1.385 . S
C1896 H1877 0.951 . S
C1896 C1894 1.388 . S
C1896 C1897 1.366 . S
C1897 C1896 1.366 . S
C1897 C1898 1.414 . S
C1897 C1900 1.499 . S
C1898 H1878 0.950 . S
C1898 C1897 1.414 . S
C1898 C1899 1.374 . S
C1899 H1879 0.950 . S
C1899 C1895 1.385 . S
C1899 C1898 1.374 . S
C1900 C1897 1.499 . S
C1900 C1901 1.373 . S
C1900 C1902 1.389 . S
C1901 H1880 0.950 . S
C1901 C1900 1.373 . S
C1901 C1917 1.377 . S
C1902 C1900 1.389 . S
C1902 C1903 1.524 . S
C1902 C1916 1.377 . S
C1903 C1902 1.524 . S
C1903 C1904 1.397 . S
C1903 C1908 1.363 . S
C1904 H1881 0.950 . S
C1904 C1903 1.397 . S
C1904 C1905 1.334 . S
C1905 H1882 0.950 . S
C1905 C1904 1.334 . S
C1905 C1906 1.287 . S
C1906 C1905 1.287 . S
C1906 C1907 1.524 . S
C1906 H1925 0.913 . S
C1907 H1883 0.950 . S
C1907 C1906 1.524 . S
C1907 C1908 1.415 . S
C1908 H1884 0.950 . S
C1908 C1903 1.363 . S
C1908 C1907 1.415 . S
C1909 H1885 0.951 . S
C1909 C1910 1.366 . S
C1909 C1911 1.388 . S
C1910 C1909 1.366 . S
C1910 C1914 1.385 . S
C1911 H1886 0.951 . S
C1911 C1909 1.388 . S
C1911 C1912 1.366 . S
C1912 C1911 1.366 . S
C1912 C1913 1.414 . S
C1912 C1915 1.499 . S
C1913 H1887 0.950 . S
C1913 C1912 1.414 . S
C1913 C1914 1.374 . S
C1914 H1888 0.950 . S
C1914 C1910 1.385 . S
C1914 C1913 1.374 . S
C1915 C1912 1.499 . S
C1915 C1916 1.373 . S
C1915 C1917 1.389 . S
C1916 H1889 0.950 . S
C1916 C1902 1.377 . S
C1916 C1915 1.373 . S
C1917 C1901 1.377 . S
C1917 C1915 1.389 . S
C1917 C1918 1.524 . S
C1918 C1917 1.524 . S
C1918 C1919 1.397 . S
C1918 C1923 1.363 . S
C1919 H1890 0.950 . S
C1919 C1918 1.397 . S
C1919 C1920 1.334 . S
C1920 H1891 0.950 . S
C1920 C1919 1.334 . S
C1920 C1921 1.287 . S
C1921 C1920 1.287 . S
C1921 C1922 1.524 . S
C1921 H1924 0.999 . S
C1922 H1892 0.950 . S
C1922 C1921 1.524 . S
C1922 C1923 1.415 . S
C1923 H1893 0.950 . S
C1923 C1918 1.363 . S
C1923 C1922 1.415 . S
H1924 C1921 0.999 . S
H1925 C1906 0.913 . S
H1926 C1944 0.951 . S
H1927 C1946 0.951 . S
H1928 C1948 0.950 . S
H1929 C1949 0.950 . S
H1930 C1951 0.950 . S
H1931 C1954 0.950 . S
H1932 C1955 0.950 . S
H1933 C1957 0.950 . S
H1934 C1958 0.950 . S
H1935 C1959 0.951 . S
H1936 C1961 0.951 . S
H1937 C1963 0.950 . S
H1938 C1964 0.950 . S
H1939 C1966 0.950 . S
H1940 C1969 0.950 . S
H1941 C1970 0.950 . S
H1942 C1972 0.950 . S
H1943 C1973 0.950 . S
C1944 H1926 0.951 . S
C1944 C1945 1.366 . S
C1944 C1946 1.388 . S
C1945 C1944 1.366 . S
C1945 C1949 1.385 . S
C1946 H1927 0.951 . S
C1946 C1944 1.388 . S
C1946 C1947 1.366 . S
C1947 C1946 1.366 . S
C1947 C1948 1.414 . S
C1947 C1950 1.499 . S
C1948 H1928 0.950 . S
C1948 C1947 1.414 . S
C1948 C1949 1.374 . S
C1949 H1929 0.950 . S
C1949 C1945 1.385 . S
C1949 C1948 1.374 . S
C1950 C1947 1.499 . S
C1950 C1951 1.373 . S
C1950 C1952 1.389 . S
C1951 H1930 0.950 . S
C1951 C1950 1.373 . S
C1951 C1967 1.377 1_556 S
C1952 C1950 1.389 . S
C1952 C1953 1.524 . S
C1952 C1966 1.377 1_556 S
C1953 C1952 1.524 . S
C1953 C1954 1.397 . S
C1953 C1958 1.363 . S
C1954 H1931 0.950 . S
C1954 C1953 1.397 . S
C1954 C1955 1.334 . S
C1955 H1932 0.950 . S
C1955 C1954 1.334 . S
C1955 C1956 1.287 . S
C1956 C1955 1.287 . S
C1956 C1957 1.524 . S
C1956 H1975 0.913 . S
C1957 H1933 0.950 . S
C1957 C1956 1.524 . S
C1957 C1958 1.415 . S
C1958 H1934 0.950 . S
C1958 C1953 1.363 . S
C1958 C1957 1.415 . S
C1959 H1935 0.951 . S
C1959 C1960 1.366 . S
C1959 C1961 1.388 . S
C1960 C1959 1.366 . S
C1960 C1964 1.385 . S
C1961 H1936 0.951 . S
C1961 C1959 1.388 . S
C1961 C1962 1.366 . S
C1962 C1961 1.366 . S
C1962 C1963 1.414 . S
C1962 C1965 1.499 . S
C1963 H1937 0.950 . S
C1963 C1962 1.414 . S
C1963 C1964 1.374 . S
C1964 H1938 0.950 . S
C1964 C1960 1.385 . S
C1964 C1963 1.374 . S
C1965 C1962 1.499 . S
C1965 C1966 1.373 . S
C1965 C1967 1.389 . S
C1966 H1939 0.950 . S
C1966 C1952 1.377 1_554 S
C1966 C1965 1.373 . S
C1967 C1951 1.377 1_554 S
C1967 C1965 1.389 . S
C1967 C1968 1.524 . S
C1968 C1967 1.524 . S
C1968 C1969 1.397 . S
C1968 C1973 1.363 . S
C1969 H1940 0.950 . S
C1969 C1968 1.397 . S
C1969 C1970 1.334 . S
C1970 H1941 0.950 . S
C1970 C1969 1.334 . S
C1970 C1971 1.287 . S
C1971 C1970 1.287 . S
C1971 C1972 1.524 . S
C1971 H1974 0.999 . S
C1972 H1942 0.950 . S
C1972 C1971 1.524 . S
C1972 C1973 1.415 . S
C1973 H1943 0.950 . S
C1973 C1968 1.363 . S
C1973 C1972 1.415 . S
H1974 C1971 0.999 . S
H1975 C1956 0.913 . S
H1976 C1994 0.951 . S
H1977 C1996 0.951 . S
H1978 C1998 0.950 . S
H1979 C1999 0.950 . S
H1980 C2001 0.950 . S
H1981 C2004 0.950 . S
H1982 C2005 0.950 . S
H1983 C2007 0.950 . S
H1984 C2008 0.950 . S
H1985 C2009 0.951 . S
H1986 C2011 0.951 . S
H1987 C2013 0.950 . S
H1988 C2014 0.950 . S
H1989 C2016 0.950 . S
H1990 C2019 0.950 . S
H1991 C2020 0.950 . S
H1992 C2022 0.950 . S
H1993 C2023 0.950 . S
C1994 H1976 0.951 . S
C1994 C1995 1.366 . S
C1994 C1996 1.388 . S
C1995 C1994 1.366 . S
C1995 C1999 1.385 . S
C1996 H1977 0.951 . S
C1996 C1994 1.388 . S
C1996 C1997 1.366 . S
C1997 C1996 1.366 . S
C1997 C1998 1.414 . S
C1997 C2000 1.499 . S
C1998 H1978 0.950 . S
C1998 C1997 1.414 . S
C1998 C1999 1.374 . S
C1999 H1979 0.950 . S
C1999 C1995 1.385 . S
C1999 C1998 1.374 . S
C2000 C1997 1.499 . S
C2000 C2001 1.373 . S
C2000 C2002 1.389 . S
C2001 H1980 0.950 . S
C2001 C2000 1.373 . S
C2001 C2017 1.377 1_554 S
C2002 C2000 1.389 . S
C2002 C2003 1.524 . S
C2002 C2016 1.377 1_554 S
C2003 C2002 1.524 . S
C2003 C2004 1.397 . S
C2003 C2008 1.363 . S
C2004 H1981 0.950 . S
C2004 C2003 1.397 . S
C2004 C2005 1.334 . S
C2005 H1982 0.950 . S
C2005 C2004 1.334 . S
C2005 C2006 1.287 . S
C2006 C2005 1.287 . S
C2006 C2007 1.524 . S
C2006 H2025 0.913 . S
C2007 H1983 0.950 . S
C2007 C2006 1.524 . S
C2007 C2008 1.415 . S
C2008 H1984 0.950 . S
C2008 C2003 1.363 . S
C2008 C2007 1.415 . S
C2009 H1985 0.951 . S
C2009 C2010 1.366 . S
C2009 C2011 1.388 . S
C2010 C2009 1.366 . S
C2010 C2014 1.385 . S
C2011 H1986 0.951 . S
C2011 C2009 1.388 . S
C2011 C2012 1.366 . S
C2012 C2011 1.366 . S
C2012 C2013 1.414 . S
C2012 C2015 1.499 . S
C2013 H1987 0.950 . S
C2013 C2012 1.414 . S
C2013 C2014 1.374 . S
C2014 H1988 0.950 . S
C2014 C2010 1.385 . S
C2014 C2013 1.374 . S
C2015 C2012 1.499 . S
C2015 C2016 1.373 . S
C2015 C2017 1.389 . S
C2016 H1989 0.950 . S
C2016 C2002 1.377 1_556 S
C2016 C2015 1.373 . S
C2017 C2001 1.377 1_556 S
C2017 C2015 1.389 . S
C2017 C2018 1.524 . S
C2018 C2017 1.524 . S
C2018 C2019 1.397 . S
C2018 C2023 1.363 . S
C2019 H1990 0.950 . S
C2019 C2018 1.397 . S
C2019 C2020 1.334 . S
C2020 H1991 0.950 . S
C2020 C2019 1.334 . S
C2020 C2021 1.287 . S
C2021 C2020 1.287 . S
C2021 C2022 1.524 . S
C2021 H2024 0.999 . S
C2022 H1992 0.950 . S
C2022 C2021 1.524 . S
C2022 C2023 1.415 . S
C2023 H1993 0.950 . S
C2023 C2018 1.363 . S
C2023 C2022 1.415 . S
H2024 C2021 0.999 . S
H2025 C2006 0.913 . S
H2026 C2044 0.951 . S
H2027 C2046 0.951 . S
H2028 C2048 0.950 . S
H2029 C2049 0.950 . S
H2030 C2051 0.950 . S
H2031 C2054 0.950 . S
H2032 C2055 0.950 . S
H2033 C2057 0.950 . S
H2034 C2058 0.950 . S
H2035 C2059 0.951 . S
H2036 C2061 0.951 . S
H2037 C2063 0.950 . S
H2038 C2064 0.950 . S
H2039 C2066 0.950 . S
H2040 C2069 0.950 . S
H2041 C2070 0.950 . S
H2042 C2072 0.950 . S
H2043 C2073 0.950 . S
C2044 H2026 0.951 . S
C2044 C2045 1.366 . S
C2044 C2046 1.388 . S
C2045 C2044 1.366 . S
C2045 C2049 1.385 . S
C2046 H2027 0.951 . S
C2046 C2044 1.388 . S
C2046 C2047 1.366 . S
C2047 C2046 1.366 . S
C2047 C2048 1.414 . S
C2047 C2050 1.499 . S
C2048 H2028 0.950 . S
C2048 C2047 1.414 . S
C2048 C2049 1.374 . S
C2049 H2029 0.950 . S
C2049 C2045 1.385 . S
C2049 C2048 1.374 . S
C2050 C2047 1.499 . S
C2050 C2051 1.373 . S
C2050 C2052 1.389 . S
C2051 H2030 0.950 . S
C2051 C2050 1.373 . S
C2051 C2067 1.377 . S
C2052 C2050 1.389 . S
C2052 C2053 1.524 . S
C2052 C2066 1.377 . S
C2053 C2052 1.524 . S
C2053 C2054 1.397 . S
C2053 C2058 1.363 . S
C2054 H2031 0.950 . S
C2054 C2053 1.397 . S
C2054 C2055 1.334 . S
C2055 H2032 0.950 . S
C2055 C2054 1.334 . S
C2055 C2056 1.287 . S
C2056 C2055 1.287 . S
C2056 C2057 1.524 . S
C2056 H2075 0.913 . S
C2057 H2033 0.950 . S
C2057 C2056 1.524 . S
C2057 C2058 1.415 . S
C2058 H2034 0.950 . S
C2058 C2053 1.363 . S
C2058 C2057 1.415 . S
C2059 H2035 0.951 . S
C2059 C2060 1.366 . S
C2059 C2061 1.388 . S
C2060 C2059 1.366 . S
C2060 C2064 1.385 . S
C2061 H2036 0.951 . S
C2061 C2059 1.388 . S
C2061 C2062 1.366 . S
C2062 C2061 1.366 . S
C2062 C2063 1.414 . S
C2062 C2065 1.499 . S
C2063 H2037 0.950 . S
C2063 C2062 1.414 . S
C2063 C2064 1.374 . S
C2064 H2038 0.950 . S
C2064 C2060 1.385 . S
C2064 C2063 1.374 . S
C2065 C2062 1.499 . S
C2065 C2066 1.373 . S
C2065 C2067 1.389 . S
C2066 H2039 0.950 . S
C2066 C2052 1.377 . S
C2066 C2065 1.373 . S
C2067 C2051 1.377 . S
C2067 C2065 1.389 . S
C2067 C2068 1.524 . S
C2068 C2067 1.524 . S
C2068 C2069 1.397 . S
C2068 C2073 1.363 . S
C2069 H2040 0.950 . S
C2069 C2068 1.397 . S
C2069 C2070 1.334 . S
C2070 H2041 0.950 . S
C2070 C2069 1.334 . S
C2070 C2071 1.287 . S
C2071 C2070 1.287 . S
C2071 C2072 1.524 . S
C2071 H2074 0.999 . S
C2072 H2042 0.950 . S
C2072 C2071 1.524 . S
C2072 C2073 1.415 . S
C2073 H2043 0.950 . S
C2073 C2068 1.363 . S
C2073 C2072 1.415 . S
H2074 C2071 0.999 . S
H2075 C2056 0.913 . S
H2076 C2094 0.951 . S
H2077 C2096 0.951 . S
H2078 C2098 0.950 . S
H2079 C2099 0.950 . S
H2080 C2101 0.950 . S
H2081 C2104 0.950 . S
H2082 C2105 0.950 . S
H2083 C2107 0.950 . S
H2084 C2108 0.950 . S
H2085 C2109 0.951 . S
H2086 C2111 0.951 . S
H2087 C2113 0.950 . S
H2088 C2114 0.950 . S
H2089 C2116 0.950 . S
H2090 C2119 0.950 . S
H2091 C2120 0.950 . S
H2092 C2122 0.950 . S
H2093 C2123 0.950 . S
C2094 H2076 0.951 . S
C2094 C2095 1.366 . S
C2094 C2096 1.388 . S
C2095 C2094 1.366 . S
C2095 C2099 1.385 . S
C2096 H2077 0.951 . S
C2096 C2094 1.388 . S
C2096 C2097 1.366 . S
C2097 C2096 1.366 . S
C2097 C2098 1.414 . S
C2097 C2100 1.499 . S
C2098 H2078 0.950 . S
C2098 C2097 1.414 . S
C2098 C2099 1.374 . S
C2099 H2079 0.950 . S
C2099 C2095 1.385 . S
C2099 C2098 1.374 . S
C2100 C2097 1.499 . S
C2100 C2101 1.373 . S
C2100 C2102 1.389 . S
C2101 H2080 0.950 . S
C2101 C2100 1.373 . S
C2101 C2117 1.377 . S
C2102 C2100 1.389 . S
C2102 C2103 1.524 . S
C2102 C2116 1.377 . S
C2103 C2102 1.524 . S
C2103 C2104 1.397 . S
C2103 C2108 1.363 . S
C2104 H2081 0.950 . S
C2104 C2103 1.397 . S
C2104 C2105 1.334 . S
C2105 H2082 0.950 . S
C2105 C2104 1.334 . S
C2105 C2106 1.287 . S
C2106 C2105 1.287 . S
C2106 C2107 1.524 . S
C2106 H2125 0.913 . S
C2107 H2083 0.950 . S
C2107 C2106 1.524 . S
C2107 C2108 1.415 . S
C2108 H2084 0.950 . S
C2108 C2103 1.363 . S
C2108 C2107 1.415 . S
C2109 H2085 0.951 . S
C2109 C2110 1.366 . S
C2109 C2111 1.388 . S
C2110 C2109 1.366 . S
C2110 C2114 1.385 . S
C2111 H2086 0.951 . S
C2111 C2109 1.388 . S
C2111 C2112 1.366 . S
C2112 C2111 1.366 . S
C2112 C2113 1.414 . S
C2112 C2115 1.499 . S
C2113 H2087 0.950 . S
C2113 C2112 1.414 . S
C2113 C2114 1.374 . S
C2114 H2088 0.950 . S
C2114 C2110 1.385 . S
C2114 C2113 1.374 . S
C2115 C2112 1.499 . S
C2115 C2116 1.373 . S
C2115 C2117 1.389 . S
C2116 H2089 0.950 . S
C2116 C2102 1.377 . S
C2116 C2115 1.373 . S
C2117 C2101 1.377 . S
C2117 C2115 1.389 . S
C2117 C2118 1.524 . S
C2118 C2117 1.524 . S
C2118 C2119 1.397 . S
C2118 C2123 1.363 . S
C2119 H2090 0.950 . S
C2119 C2118 1.397 . S
C2119 C2120 1.334 . S
C2120 H2091 0.950 . S
C2120 C2119 1.334 . S
C2120 C2121 1.287 . S
C2121 C2120 1.287 . S
C2121 C2122 1.524 . S
C2121 H2124 0.999 . S
C2122 H2092 0.950 . S
C2122 C2121 1.524 . S
C2122 C2123 1.415 . S
C2123 H2093 0.950 . S
C2123 C2118 1.363 . S
C2123 C2122 1.415 . S
H2124 C2121 0.999 . S
H2125 C2106 0.913 . S
H2126 C2144 0.951 . S
H2127 C2146 0.951 . S
H2128 C2148 0.950 . S
H2129 C2149 0.950 . S
H2130 C2151 0.950 . S
H2131 C2154 0.950 . S
H2132 C2155 0.950 . S
H2133 C2157 0.950 . S
H2134 C2158 0.950 . S
H2135 C2159 0.951 . S
H2136 C2161 0.951 . S
H2137 C2163 0.950 . S
H2138 C2164 0.950 . S
H2139 C2166 0.950 . S
H2140 C2169 0.950 . S
H2141 C2170 0.950 . S
H2142 C2172 0.950 . S
H2143 C2173 0.950 . S
C2144 H2126 0.951 . S
C2144 C2145 1.366 . S
C2144 C2146 1.388 . S
C2145 C2144 1.366 . S
C2145 C2149 1.385 . S
C2146 H2127 0.951 . S
C2146 C2144 1.388 . S
C2146 C2147 1.366 . S
C2147 C2146 1.366 . S
C2147 C2148 1.414 . S
C2147 C2150 1.499 . S
C2148 H2128 0.950 . S
C2148 C2147 1.414 . S
C2148 C2149 1.374 . S
C2149 H2129 0.950 . S
C2149 C2145 1.385 . S
C2149 C2148 1.374 . S
C2150 C2147 1.499 . S
C2150 C2151 1.373 . S
C2150 C2152 1.389 . S
C2151 H2130 0.950 . S
C2151 C2150 1.373 . S
C2151 C2167 1.377 . S
C2152 C2150 1.389 . S
C2152 C2153 1.524 . S
C2152 C2166 1.377 . S
C2153 C2152 1.524 . S
C2153 C2154 1.397 . S
C2153 C2158 1.363 . S
C2154 H2131 0.950 . S
C2154 C2153 1.397 . S
C2154 C2155 1.334 . S
C2155 H2132 0.950 . S
C2155 C2154 1.334 . S
C2155 C2156 1.287 . S
C2156 C2155 1.287 . S
C2156 C2157 1.524 . S
C2156 H2175 0.913 . S
C2157 H2133 0.950 . S
C2157 C2156 1.524 . S
C2157 C2158 1.415 . S
C2158 H2134 0.950 . S
C2158 C2153 1.363 . S
C2158 C2157 1.415 . S
C2159 H2135 0.951 . S
C2159 C2160 1.366 . S
C2159 C2161 1.388 . S
C2160 C2159 1.366 . S
C2160 C2164 1.385 . S
C2161 H2136 0.951 . S
C2161 C2159 1.388 . S
C2161 C2162 1.366 . S
C2162 C2161 1.366 . S
C2162 C2163 1.414 . S
C2162 C2165 1.499 . S
C2163 H2137 0.950 . S
C2163 C2162 1.414 . S
C2163 C2164 1.374 . S
C2164 H2138 0.950 . S
C2164 C2160 1.385 . S
C2164 C2163 1.374 . S
C2165 C2162 1.499 . S
C2165 C2166 1.373 . S
C2165 C2167 1.389 . S
C2166 H2139 0.950 . S
C2166 C2152 1.377 . S
C2166 C2165 1.373 . S
C2167 C2151 1.377 . S
C2167 C2165 1.389 . S
C2167 C2168 1.524 . S
C2168 C2167 1.524 . S
C2168 C2169 1.397 . S
C2168 C2173 1.363 . S
C2169 H2140 0.950 . S
C2169 C2168 1.397 . S
C2169 C2170 1.334 . S
C2170 H2141 0.950 . S
C2170 C2169 1.334 . S
C2170 C2171 1.287 . S
C2171 C2170 1.287 . S
C2171 C2172 1.524 . S
C2171 H2174 0.999 . S
C2172 H2142 0.950 . S
C2172 C2171 1.524 . S
C2172 C2173 1.415 . S
C2173 H2143 0.950 . S
C2173 C2168 1.363 . S
C2173 C2172 1.415 . S
H2174 C2171 0.999 . S
H2175 C2156 0.913 . S
C595 C374 1.455 . S
C610 C14 1.456 . S
C645 C50 1.455 . S
C660 C410 1.456 . S
C695 C302 1.455 . S
C710 C86 1.456 . S
C745 C338 1.455 . S
C760 C122 1.454 . S
C795 C158 1.455 . S
C810 C518 1.456 . S
C845 C554 1.455 . S
C860 C194 1.456 . S
C895 C230 1.455 . S
C910 C446 1.456 . S
C945 C482 1.455 . S
C960 C266 1.456 . S
C995 C362 1.524 . S
C1010 C2 1.524 . S
C1045 C38 1.524 . S
C1060 C398 1.524 . S
C1095 C74 1.524 . S
C1110 C290 1.524 . S
C1145 C110 1.523 . S
C1160 C326 1.523 . S
C1195 C146 1.523 . S
C1210 C506 1.523 . S
C1245 C182 1.523 . S
C1260 C542 1.523 . S
C1295 C434 1.524 . S
C1310 C218 1.524 . S
C1345 C470 1.524 . S
C1360 C254 1.524 . S
C1395 C4 1.141 . S
C1410 C220 1.142 . S
C1445 C40 1.142 . S
C1460 C256 1.141 . S
C1495 C76 1.141 . S
C1510 C148 1.142 . S
C1545 C112 1.143 . S
C1560 C184 1.141 . S
C1595 C292 1.142 . S
C1610 C508 1.141 . S
C1645 C544 1.141 . S
C1660 C328 1.142 . S
C1695 C364 1.142 . S
C1710 C436 1.141 . S
C1745 C472 1.141 . S
C1760 C400 1.142 . S
C1795 C3 1.132 . S
C1810 C543 1.131 . S
C1845 C435 1.131 . S
C1860 C39 1.131 . S
C1895 C471 1.132 . S
C1910 C75 1.131 . S
C1945 C507 1.131 . S
C1960 C111 1.132 . S
C1995 C327 1.131 . S
C2010 C147 1.131 . S
C2045 C363 1.131 . S
C2060 C183 1.132 . S
C2095 C219 1.132 . S
C2110 C399 1.131 . S
C2145 C255 1.131 . S
C2160 C291 1.131 . S
