# Generated by pormake.
# Topology ukh, (4)-cn, num edge types: 1
# Building blocks:
#     Node 0, Type 0, BuildingBlock: TATPOV_clean_sbu_0, # of connection points: 4
#     Node 1, Type 0, BuildingBlock: TATPOV_clean_sbu_0, # of connection points: 4
#     Node 2, Type 0, BuildingBlock: TATPOV_clean_sbu_0, # of connection points: 4
#     Node 3, Type 0, BuildingBlock: TATPOV_clean_sbu_0, # of connection points: 4
#     Node 4, Type 0, BuildingBlock: TATPOV_clean_sbu_0, # of connection points: 4
#     Node 5, Type 0, BuildingBlock: TATPOV_clean_sbu_0, # of connection points: 4
#     Node 6, Type 0, BuildingBlock: TATPOV_clean_sbu_0, # of connection points: 4
#     Node 7, Type 0, BuildingBlock: TATPOV_clean_sbu_0, # of connection points: 4
#     Node 8, Type 0, BuildingBlock: TATPOV_clean_sbu_0, # of connection points: 4
#     Node 9, Type 0, BuildingBlock: TATPOV_clean_sbu_0, # of connection points: 4
#     Node 10, Type 0, BuildingBlock: TATPOV_clean_sbu_0, # of connection points: 4
#     Node 11, Type 0, BuildingBlock: TATPOV_clean_sbu_0, # of connection points: 4
#     Edge 12, Type (0, 0), BuildingBlock: EZIPEK_clean_linker_0, # of connection points: 2
#     Edge 13, Type (0, 0), BuildingBlock: EZIPEK_clean_linker_0, # of connection points: 2
#     Edge 14, Type (0, 0), BuildingBlock: EZIPEK_clean_linker_0, # of connection points: 2
#     Edge 15, Type (0, 0), BuildingBlock: EZIPEK_clean_linker_0, # of connection points: 2
#     Edge 16, Type (0, 0), BuildingBlock: EZIPEK_clean_linker_0, # of connection points: 2
#     Edge 17, Type (0, 0), BuildingBlock: EZIPEK_clean_linker_0, # of connection points: 2
#     Edge 18, Type (0, 0), BuildingBlock: EZIPEK_clean_linker_0, # of connection points: 2
#     Edge 19, Type (0, 0), BuildingBlock: EZIPEK_clean_linker_0, # of connection points: 2
#     Edge 20, Type (0, 0), BuildingBlock: EZIPEK_clean_linker_0, # of connection points: 2
#     Edge 21, Type (0, 0), BuildingBlock: EZIPEK_clean_linker_0, # of connection points: 2
#     Edge 22, Type (0, 0), BuildingBlock: EZIPEK_clean_linker_0, # of connection points: 2
#     Edge 23, Type (0, 0), BuildingBlock: EZIPEK_clean_linker_0, # of connection points: 2
#     Edge 24, Type (0, 0), BuildingBlock: EZIPEK_clean_linker_0, # of connection points: 2
#     Edge 25, Type (0, 0), BuildingBlock: EZIPEK_clean_linker_0, # of connection points: 2
#     Edge 26, Type (0, 0), BuildingBlock: EZIPEK_clean_linker_0, # of connection points: 2
#     Edge 27, Type (0, 0), BuildingBlock: EZIPEK_clean_linker_0, # of connection points: 2
#     Edge 28, Type (0, 0), BuildingBlock: EZIPEK_clean_linker_0, # of connection points: 2
#     Edge 29, Type (0, 0), BuildingBlock: EZIPEK_clean_linker_0, # of connection points: 2
#     Edge 30, Type (0, 0), BuildingBlock: EZIPEK_clean_linker_0, # of connection points: 2
#     Edge 31, Type (0, 0), BuildingBlock: EZIPEK_clean_linker_0, # of connection points: 2
#     Edge 32, Type (0, 0), BuildingBlock: EZIPEK_clean_linker_0, # of connection points: 2
#     Edge 33, Type (0, 0), BuildingBlock: EZIPEK_clean_linker_0, # of connection points: 2
#     Edge 34, Type (0, 0), BuildingBlock: EZIPEK_clean_linker_0, # of connection points: 2
#     Edge 35, Type (0, 0), BuildingBlock: EZIPEK_clean_linker_0, # of connection points: 2
# Relax obj value: 0.150
# Max RMSD: 0.200
# Mean RMSD: 0.200
data_MOF--net-ukh--node1-TATPOV_clean_sbu_0--edge1-EZIPEK_clean_linker_0
_symmetry_space_group_name_H-M    P1
_symmetry_Int_Tables_number       1
_symmetry_cell_setting            triclinic
loop_
_symmetry_equiv_pos_as_xyz
'x, y, z'
_cell_length_a     22.529654
_cell_length_b     22.567361
_cell_length_c     47.191793
_cell_angle_alpha  89.945464
_cell_angle_beta   90.314555
_cell_angle_gamma 120.23404
loop_
_atom_site_label
_atom_site_type_symbol
_atom_site_fract_x
_atom_site_fract_y
_atom_site_fract_z
_atom_type_partial_charge
Zn0 Zn 0.33611 0.22456 0.99713 0.0
Zn1 Zn 0.3277 0.20158 0.05312 0.0
O2 O 0.35781 0.13662 0.03554 0.0
O3 O 0.36524 0.15553 0.98983 0.0
O4 O 0.3288 0.18726 0.09537 0.0
O5 O 0.40587 0.32441 1.00285 0.0
O6 O 0.38944 0.30628 0.0488 0.0
C7 C 0.37151 0.12411 0.01079 0.0
C8 C 0.20044 0.17675 0.02159 0.0
O9 O 0.22838 0.17466 0.04476 0.0
O10 O 0.23501 0.19612 0.99891 0.0
C11 C 0.28173 0.13402 0.10747 0.0
O12 O 0.23154 0.08594 0.09231 0.0
C13 C 0.41605 0.34715 0.02797 0.0
Zn14 Zn 0.10489 0.34362 0.33978 0.0
Zn15 Zn 0.11935 0.32865 0.39584 0.0
O16 O 0.21514 0.36366 0.37811 0.0
O17 O 0.20504 0.37904 0.33293 0.0
O18 O 0.13771 0.32682 0.438 0.0
O19 O 0.06935 0.40707 0.34832 0.0
O20 O 0.078 0.39175 0.39406 0.0
C21 C 0.24253 0.38312 0.35376 0.0
C22 C 0.01675 0.20589 0.3607 0.0
O23 O 0.04583 0.23065 0.38449 0.0
O24 O 0.03462 0.24269 0.33863 0.0
C25 C 0.12303 0.27357 0.45245 0.0
O26 O 0.09285 0.21311 0.44014 0.0
C27 C 0.06085 0.41772 0.37388 0.0
Zn28 Zn 0.77439 0.11626 0.68174 0.0
Zn29 Zn 0.79278 0.11843 0.73842 0.0
O30 O 0.86123 0.21664 0.72441 0.0
O31 O 0.8442 0.21666 0.6787 0.0
O32 O 0.80431 0.12617 0.78128 0.0
O33 O 0.67378 0.08231 0.68693 0.0
O34 O 0.68848 0.07943 0.73308 0.0
C35 C 0.87556 0.24884 0.70091 0.0
C36 C 0.81795 0.02241 0.70179 0.0
O37 O 0.81816 0.04692 0.72613 0.0
O38 O 0.80271 0.04421 0.67978 0.0
C39 C 0.8031 0.0797 0.79698 0.0
O40 O 0.79516 0.02313 0.78552 0.0
C41 C 0.64935 0.06816 0.7117 0.0
Zn42 Zn 0.62532 0.7642 0.99962 0.0
Zn43 Zn 0.65803 0.78613 0.05544 0.0
O44 O 0.62037 0.85022 0.04498 0.0
O45 O 0.58774 0.82808 1.00053 0.0
O46 O 0.68143 0.80131 0.09749 0.0
O47 O 0.56658 0.66354 1.00811 0.0
O48 O 0.58999 0.6825 0.05378 0.0
C49 C 0.59291 0.86039 0.02316 0.0
C50 C 0.7672 0.81279 0.0105 0.0
O51 O 0.74858 0.80901 0.03623 0.0
O52 O 0.72475 0.7991 0.99043 0.0
C53 C 0.69421 0.85498 0.11123 0.0
O54 O 0.69526 0.90654 0.09784 0.0
C55 C 0.56067 0.64132 0.03319 0.0
Zn56 Zn 0.88472 0.65275 0.3412 0.0
Zn57 Zn 0.89555 0.68345 0.39745 0.0
O58 O 0.79972 0.66442 0.38524 0.0
O59 O 0.79076 0.64214 0.33944 0.0
O60 O 0.89787 0.6958 0.43995 0.0
O61 O 0.90485 0.57651 0.3492 0.0
O62 O 0.92064 0.60864 0.39403 0.0
C63 C 0.76699 0.6528 0.36186 0.0
C64 C 0.99269 0.79107 0.35619 0.0
O65 O 0.97198 0.77437 0.38159 0.0
O66 O 0.96483 0.74871 0.33601 0.0
C67 C 0.87899 0.7327 0.45303 0.0
O68 O 0.85746 0.76822 0.43867 0.0
C69 C 0.92264 0.57164 0.37419 0.0
Zn70 Zn 0.24107 0.87824 0.66795 0.0
Zn71 Zn 0.20441 0.86075 0.72225 0.0
O72 O 0.14391 0.76423 0.70539 0.0
O73 O 0.16974 0.77902 0.66029 0.0
O74 O 0.18842 0.84958 0.76447 0.0
O75 O 0.33953 0.90836 0.67681 0.0
O76 O 0.3102 0.90542 0.72146 0.0
C77 C 0.1348 0.73978 0.68035 0.0
C78 C 0.18139 0.95957 0.687 0.0
O79 O 0.16972 0.92492 0.70966 0.0
O80 O 0.2138 0.95118 0.66699 0.0
C81 C 0.13442 0.83902 0.77721 0.0
O82 O 0.08172 0.83249 0.76254 0.0
C83 C 0.35597 0.92017 0.7027 0.0
Zn84 Zn 0.76234 0.625 0.68285 0.0
Zn85 Zn 0.79132 0.66828 0.62882 0.0
O86 O 0.85894 0.63552 0.63986 0.0
O87 O 0.83195 0.5937 0.68275 0.0
O88 O 0.80911 0.69001 0.58716 0.0
O89 O 0.66222 0.5626 0.67235 0.0
O90 O 0.6875 0.59944 0.62835 0.0
C91 C 0.86896 0.60625 0.66099 0.0
C92 C 0.80963 0.77013 0.67467 0.0
O93 O 0.81154 0.75743 0.64849 0.0
O94 O 0.79273 0.72358 0.69315 0.0
C95 C 0.86796 0.72349 0.57578 0.0
O96 O 0.92357 0.74939 0.59165 0.0
C97 C 0.64363 0.56303 0.64703 0.0
Zn98 Zn 0.10912 0.76367 0.01323 0.0
Zn99 Zn 0.10807 0.77497 0.95665 0.0
O100 O 0.20798 0.8438 0.96951 0.0
O101 O 0.20918 0.83342 0.01564 0.0
O102 O 0.10966 0.77881 0.9138 0.0
O103 O 0.07658 0.66303 0.01084 0.0
O104 O 0.06556 0.67163 0.9648 0.0
C105 C 0.2409 0.86114 0.993 0.0
C106 C 0.01576 0.80726 0.99107 0.0
O107 O 0.03921 0.8045 0.96697 0.0
O108 O 0.03676 0.79219 0.01341 0.0
C109 C 0.14043 0.83485 0.90013 0.0
O110 O 0.17404 0.8931 0.91404 0.0
C111 C 0.05674 0.63519 0.98675 0.0
Zn112 Zn 0.37603 0.1463 0.33972 0.0
Zn113 Zn 0.33537 0.15007 0.2862 0.0
O114 O 0.36566 0.24511 0.30344 0.0
O115 O 0.40509 0.24543 0.34602 0.0
O116 O 0.31448 0.15847 0.24517 0.0
O117 O 0.43939 0.11492 0.32497 0.0
O118 O 0.40597 0.11921 0.28144 0.0
C119 C 0.39298 0.2766 0.32658 0.0
C120 C 0.233 0.04846 0.32842 0.0
O121 O 0.2466 0.07256 0.30333 0.0
O122 O 0.27842 0.07229 0.34773 0.0
C123 C 0.28838 0.10572 0.22929 0.0
O124 O 0.27026 0.04546 0.24024 0.0
C125 C 0.44054 0.10493 0.29865 0.0
Zn126 Zn 0.24099 0.3479 0.68508 0.0
Zn127 Zn 0.19744 0.32718 0.63143 0.0
O128 O 0.14098 0.36467 0.65067 0.0
O129 O 0.17353 0.37846 0.69515 0.0
O130 O 0.16827 0.31673 0.59009 0.0
O131 O 0.33795 0.41395 0.67407 0.0
O132 O 0.30382 0.38924 0.62956 0.0
C133 C 0.13604 0.38194 0.67591 0.0
C134 C 0.17831 0.20617 0.6669 0.0
O135 O 0.16524 0.22873 0.64442 0.0
O136 O 0.21226 0.24757 0.68671 0.0
C137 C 0.19695 0.29832 0.57171 0.0
O138 O 0.24545 0.28571 0.57969 0.0
C139 C 0.35163 0.41942 0.64794 0.0
Zn140 Zn 0.85446 0.22239 0.02752 0.0
Zn141 Zn 0.8483 0.19317 0.97162 0.0
O142 O 0.75058 0.12967 0.98687 0.0
O143 O 0.75295 0.15745 0.03152 0.0
O144 O 0.84105 0.17274 0.92955 0.0
O145 O 0.89395 0.32208 0.01739 0.0
O146 O 0.88505 0.2967 0.97187 0.0
C147 C 0.71948 0.12177 1.01032 0.0
C148 C 0.94355 0.17169 0.01154 0.0
O149 O 0.92128 0.17212 0.98669 0.0
O150 O 0.92139 0.18859 0.03283 0.0
C151 C 0.82339 0.11417 0.91916 0.0
O152 O 0.80873 0.06245 0.93612 0.0
C153 C 0.90309 0.34073 0.99171 0.0
Zn154 Zn 0.60889 0.87859 0.33651 0.0
Zn155 Zn 0.65933 0.88466 0.28764 0.0
O156 O 0.63746 0.79578 0.30927 0.0
O157 O 0.56021 0.7761 0.34151 0.0
O158 O 0.67237 0.86992 0.24633 0.0
O159 O 0.5581 0.92661 0.32633 0.0
O160 O 0.59579 0.92547 0.28357 0.0
C161 C 0.59792 0.75806 0.329 0.0
C162 C 0.75908 0.97047 0.33103 0.0
O163 O 0.74911 0.95908 0.30448 0.0
O164 O 0.71009 0.93865 0.34838 0.0
C165 C 0.72588 0.87936 0.23348 0.0
O166 O 0.78291 0.89834 0.24777 0.0
C167 C 0.56185 0.9412 0.30034 0.0
C168 C 0.45179 0.53075 0.02752 0.0
C169 C 0.5201 0.56635 0.03778 0.0
C170 C 0.51488 0.45672 0.0472 0.0
C171 C 0.45097 0.42221 0.03263 0.0
N172 N 0.3602 0.42693 1.00678 0.0
N173 N 0.61946 0.56459 0.05625 0.0
C174 C 0.41971 0.45933 0.02228 0.0
C175 C 0.55216 0.52977 0.04782 0.0
N176 N 0.41712 0.56537 0.02339 0.0
N177 N 0.54048 0.41986 0.06002 0.0
H178 H 0.64821 0.6178 0.05781 0.0
H179 H 0.64833 0.54108 0.06012 0.0
H180 H 0.51683 0.36663 0.05855 0.0
H181 H 0.58266 0.44149 0.07369 0.0
H182 H 0.36484 0.5413 0.01869 0.0
H183 H 0.43908 0.61767 0.02767 0.0
H184 H 0.3399 0.45289 0.99586 0.0
H185 H 0.33334 0.3744 1.00293 0.0
C186 C 0.95142 0.42025 0.37449 0.0
C187 C 0.02331 0.45417 0.37975 0.0
C188 C 0.02758 0.56394 0.38478 0.0
C189 C 0.95565 0.53025 0.37926 0.0
N190 N 0.84658 0.42604 0.37504 0.0
N191 N 0.12682 0.55315 0.39642 0.0
C192 C 0.91671 0.45811 0.37606 0.0
C193 C 0.0603 0.52436 0.38723 0.0
N194 N 0.91688 0.35223 0.36731 0.0
N195 N 0.06545 0.63404 0.38577 0.0
H196 H 0.15257 0.52563 0.39778 0.0
H197 H 0.15451 0.60229 0.40499 0.0
H198 H 0.04403 0.66544 0.38407 0.0
H199 H 0.11892 0.66168 0.38618 0.0
H200 H 0.86642 0.32622 0.35991 0.0
H201 H 0.93985 0.32201 0.36759 0.0
H202 H 0.81449 0.37304 0.37532 0.0
H203 H 0.82002 0.45276 0.3763 0.0
C204 C 0.46433 0.02492 0.71898 0.0
C205 C 0.42951 0.95478 0.71067 0.0
C206 C 0.53897 0.95712 0.70702 0.0
C207 C 0.57391 0.02754 0.71485 0.0
N208 N 0.57125 0.12459 0.73434 0.0
N209 N 0.43051 0.8498 0.70353 0.0
C210 C 0.53688 0.06007 0.72299 0.0
C211 C 0.466 0.9195 0.70684 0.0
N212 N 0.42863 0.05892 0.72138 0.0
N213 N 0.57575 0.92683 0.69897 0.0
H214 H 0.37693 0.821 0.70353 0.0
H215 H 0.45354 0.81975 0.70331 0.0
H216 H 0.62921 0.95166 0.70016 0.0
H217 H 0.55386 0.87839 0.68975 0.0
H218 H 0.45187 0.11176 0.72406 0.0
H219 H 0.37545 0.03491 0.71895 0.0
H220 H 0.54693 0.14886 0.74328 0.0
H221 H 0.62453 0.15191 0.73691 0.0
C222 C 0.53228 0.45522 0.63676 0.0
C223 C 0.56933 0.52743 0.64023 0.0
C224 C 0.46176 0.52994 0.6416 0.0
C225 C 0.4247 0.45745 0.63953 0.0
N226 N 0.42201 0.35189 0.62863 0.0
N227 N 0.57197 0.63563 0.63964 0.0
C228 C 0.45927 0.42041 0.63475 0.0
C229 C 0.53479 0.56552 0.64038 0.0
N230 N 0.56699 0.42 0.63645 0.0
N231 N 0.42688 0.5642 0.64589 0.0
H232 H 0.62552 0.6634 0.63946 0.0
H233 H 0.55027 0.66655 0.63715 0.0
H234 H 0.37334 0.53974 0.6452 0.0
H235 H 0.45026 0.61596 0.65111 0.0
H236 H 0.54333 0.36681 0.63728 0.0
H237 H 0.62054 0.44451 0.63652 0.0
H238 H 0.44372 0.32268 0.62256 0.0
H239 H 0.3685 0.32492 0.62744 0.0
C240 C 0.90837 0.45292 0.99633 0.0
C241 C 0.93728 0.41491 0.98532 0.0
C242 C 0.0391 0.52167 0.96998 0.0
C243 C 0.01462 0.55952 0.98493 0.0
N244 N 0.92736 0.5615 0.01402 0.0
N245 N 0.032 0.41196 0.9629 0.0
C246 C 0.94953 0.52525 0.99851 0.0
C247 C 0.00268 0.44881 0.97201 0.0
N248 N 0.8407 0.41967 1.00398 0.0
N249 N 0.0976 0.55527 0.9542 0.0
H250 H 0.00681 0.35863 0.9632 0.0
H251 H 0.08301 0.4342 0.9566 0.0
H252 H 0.12801 0.60857 0.95361 0.0
H253 H 0.11362 0.53059 0.94018 0.0
H254 H 0.8143 0.44482 1.00943 0.0
H255 H 0.80886 0.36665 1.00202 0.0
H256 H 0.88472 0.53859 0.02723 0.0
H257 H 0.95389 0.61477 0.01536 0.0
C258 C 0.43943 0.00095 0.27899 0.0
C259 C 0.47733 0.07 0.28881 0.0
C260 C 0.57804 0.05852 0.29753 0.0
C261 C 0.53766 0.9877 0.29091 0.0
N262 N 0.43952 0.89574 0.26766 0.0
N263 N 0.58615 0.17014 0.2989 0.0
C264 C 0.47148 0.96043 0.27888 0.0
C265 C 0.54815 0.10068 0.29518 0.0
N266 N 0.37181 0.97291 0.2716 0.0
N267 N 0.64402 0.08442 0.30702 0.0
H268 H 0.56476 0.20159 0.29669 0.0
H269 H 0.63916 0.19729 0.3018 0.0
H270 H 0.66862 0.0557 0.30704 0.0
H271 H 0.67403 0.13341 0.31543 0.0
H272 H 0.33877 0.9208 0.26807 0.0
H273 H 0.3476 0.00161 0.26965 0.0
H274 H 0.39355 0.87428 0.25633 0.0
H275 H 0.46227 0.86529 0.26771 0.0
C276 C 0.33286 0.10387 0.18089 0.0
C277 C 0.28668 0.11335 0.19812 0.0
C278 C 0.23517 0.13318 0.15577 0.0
C279 C 0.2832 0.12652 0.13865 0.0
N280 N 0.38094 0.11088 0.13416 0.0
N281 N 0.19863 0.14331 0.20302 0.0
C282 C 0.33299 0.11338 0.15102 0.0
C283 C 0.23919 0.12988 0.18584 0.0
N284 N 0.37633 0.08533 0.19315 0.0
N285 N 0.18525 0.14192 0.14318 0.0
H286 H 0.19776 0.13809 0.225 0.0
H287 H 0.16843 0.16319 0.1959 0.0
H288 H 0.18293 0.1484 0.12139 0.0
H289 H 0.1438 0.13928 0.15392 0.0
H290 H 0.40531 0.06935 0.18186 0.0
H291 H 0.38165 0.08289 0.21501 0.0
H292 H 0.42359 0.10947 0.1418 0.0
H293 H 0.38022 0.11353 0.11211 0.0
C294 C 0.2113 0.3215 0.49155 0.0
C295 C 0.14161 0.2801 0.48303 0.0
C296 C 0.10881 0.24633 0.53256 0.0
C297 C 0.17734 0.29284 0.54128 0.0
N298 N 0.29096 0.38472 0.52958 0.0
N299 N 0.02203 0.21286 0.49582 0.0
C300 C 0.22785 0.33324 0.52091 0.0
C301 C 0.08974 0.24511 0.50365 0.0
N302 N 0.26214 0.3473 0.47167 0.0
N303 N 0.06258 0.20126 0.55161 0.0
H304 H 0.00587 0.21159 0.47497 0.0
H305 H 0.9819 0.1929 0.51032 0.0
H306 H 0.07468 0.19984 0.57287 0.0
H307 H 0.01421 0.16118 0.54583 0.0
H308 H 0.31422 0.37155 0.47678 0.0
H309 H 0.25244 0.33873 0.44999 0.0
H310 H 0.32722 0.42052 0.51577 0.0
H311 H 0.30475 0.39595 0.55087 0.0
C312 C 0.75039 0.04657 0.84537 0.0
C313 C 0.80844 0.08833 0.82826 0.0
C314 C 0.87778 0.14224 0.87097 0.0
C315 C 0.81844 0.10435 0.88792 0.0
N316 N 0.69598 0.02858 0.89128 0.0
N317 N 0.92546 0.18118 0.8241 0.0
C318 C 0.75416 0.05829 0.87515 0.0
C319 C 0.87149 0.13799 0.84088 0.0
N320 N 0.69142 0.99577 0.83315 0.0
N321 N 0.94078 0.17966 0.88368 0.0
H322 H 0.92455 0.17701 0.80208 0.0
H323 H 0.96969 0.22391 0.8318 0.0
H324 H 0.94767 0.1831 0.90561 0.0
H325 H 0.98696 0.20245 0.87267 0.0
H326 H 0.65058 0.95801 0.84468 0.0
H327 H 0.68455 0.98862 0.8113 0.0
H328 H 0.64654 0.00073 0.88289 0.0
H329 H 0.69637 0.03647 0.91306 0.0
C330 C 0.65687 0.80621 0.16035 0.0
C331 C 0.70565 0.85868 0.14245 0.0
C332 C 0.7688 0.92558 0.18439 0.0
C333 C 0.72315 0.87066 0.20215 0.0
N334 N 0.63438 0.75205 0.20644 0.0
N335 N 0.81714 0.96026 0.13747 0.0
C336 C 0.67048 0.80886 0.18991 0.0
C337 C 0.76442 0.91598 0.15449 0.0
N338 N 0.59564 0.75589 0.14953 0.0
N339 N 0.81386 0.98818 0.19582 0.0
H340 H 0.8168 0.95393 0.11557 0.0
H341 H 0.86407 -0.00105 0.14536 0.0
H342 H 0.81782 -0.00165 0.21749 0.0
H343 H 0.84276 0.03184 0.18358 0.0
H344 H 0.55552 0.72078 0.16219 0.0
H345 H 0.58185 0.75329 0.12826 0.0
H346 H 0.6001 0.70379 0.19816 0.0
H347 H 0.64408 0.75153 0.22806 0.0
C348 C 0.90565 0.79116 0.53035 0.0
C349 C 0.8733 0.72689 0.54443 0.0
C350 C 0.83861 0.6675 0.49866 0.0
C351 C 0.87657 0.7313 0.48449 0.0
N352 N 0.95639 0.85314 0.48688 0.0
N353 N 0.82299 0.60393 0.54194 0.0
C354 C 0.9129 0.79307 0.50034 0.0
C355 C 0.84377 0.66502 0.52857 0.0
N356 N 0.92718 0.85021 0.54548 0.0
N357 N 0.79505 0.60957 0.48374 0.0
H358 H 0.8277 0.59996 0.56377 0.0
H359 H 0.80781 0.55825 0.53109 0.0
H360 H 0.78766 0.60933 0.4619 0.0
H361 H 0.76087 0.56325 0.4934 0.0
H362 H 0.94419 0.89782 0.53607 0.0
H363 H 0.9226 0.85088 0.56745 0.0
H364 H 0.98968 0.89832 0.49759 0.0
H365 H 0.96386 0.8565 0.46501 0.0
C366 C 0.11411 0.87505 0.85449 0.0
C367 C 0.13697 0.83451 0.86865 0.0
C368 C 0.14632 0.78852 0.82285 0.0
C369 C 0.13221 0.83559 0.80865 0.0
N370 N 0.11538 0.93307 0.81115 0.0
N371 N 0.18728 0.76212 0.86586 0.0
C372 C 0.11938 0.8814 0.8245 0.0
C373 C 0.15633 0.79361 0.85272 0.0
N374 N 0.08474 0.90535 0.8695 0.0
N375 N 0.14794 0.73744 0.80796 0.0
H376 H 0.19774 0.76627 0.88754 0.0
H377 H 0.20885 0.73763 0.85484 0.0
H378 H 0.13907 0.73086 0.78616 0.0
H379 H 0.15102 0.69753 0.81761 0.0
H380 H 0.06089 0.92959 0.85991 0.0
H381 H 0.0777 0.90019 0.89137 0.0
H382 H 0.11361 0.97231 0.82203 0.0
H383 H 0.12055 0.94077 0.7893 0.0
C384 C 0.34042 0.94721 0.02231 0.0
C385 C 0.31098 0.92347 0.9951 0.0
C386 C 0.37762 0.04044 0.97741 0.0
C387 C 0.38012 0.06337 1.0056 0.0
N388 N 0.3969 0.04475 0.05447 0.0
N389 N 0.32918 0.94315 0.94496 0.0
C390 C 0.37321 0.01873 0.02808 0.0
C391 C 0.33946 0.96874 0.97184 0.0
N392 N 0.33703 0.90127 0.04196 0.0
N393 N 0.41273 0.08711 0.95668 0.0
H394 H 0.30922 0.89093 0.94114 0.0
H395 H 0.34174 0.97318 0.9268 0.0
H396 H 0.4453 0.13892 0.96145 0.0
H397 H 0.41521 0.07418 0.93574 0.0
H398 H 0.35919 0.91475 0.06205 0.0
H399 H 0.31689 0.84961 0.03679 0.0
H400 H 0.3873 0.01484 0.07253 0.0
H401 H 0.42816 0.0974 0.05788 0.0
C402 C 0.33814 0.40627 0.32016 0.0
C403 C 0.31413 0.39757 0.34842 0.0
C404 C 0.39629 0.36195 0.36174 0.0
C405 C 0.39505 0.34249 0.3331 0.0
N406 N 0.39401 0.37355 0.28448 0.0
N407 N 0.34533 0.40004 0.3975 0.0
C408 C 0.37643 0.3748 0.31198 0.0
C409 C 0.35205 0.38683 0.36987 0.0
N410 N 0.32514 0.44521 0.30184 0.0
N411 N 0.44063 0.35812 0.38042 0.0
H412 H 0.32099 0.42726 0.40312 0.0
H413 H 0.36506 0.3859 0.41451 0.0
H414 H 0.47742 0.34614 0.37366 0.0
H415 H 0.4461 0.37361 0.4015 0.0
H416 H 0.34327 0.45596 0.28116 0.0
H417 H 0.3019 0.47266 0.30868 0.0
H418 H 0.37602 0.38958 0.26747 0.0
H419 H 0.42775 0.35644 0.27902 0.0
C420 C 0.95681 0.34873 0.67078 0.0
C421 C 0.93798 0.31871 0.69805 0.0
C422 C 0.05802 0.38616 0.71288 0.0
C423 C 0.0762 0.39002 0.68394 0.0
N424 N 0.04889 0.40769 0.63653 0.0
N425 N 0.96639 0.33643 0.74775 0.0
C426 C 0.02741 0.3829 0.66317 0.0
C427 C 0.98729 0.34717 0.72022 0.0
N428 N 0.90722 0.34465 0.65283 0.0
N429 N 0.10812 0.42095 0.73267 0.0
H430 H 0.91495 0.31671 0.75313 0.0
H431 H -0.00047 0.34881 0.76501 0.0
H432 H 0.15893 0.45437 0.72676 0.0
H433 H 0.09883 0.42235 0.75416 0.0
H434 H 0.91693 0.36685 0.63282 0.0
H435 H 0.85637 0.32374 0.65944 0.0
H436 H 0.01597 0.3987 0.61946 0.0
H437 H 0.10096 0.4391 0.63195 0.0
C438 C 0.59636 0.96284 0.04631 0.0
C439 C 0.58168 0.92029 0.02221 0.0
C440 C 0.61379 0.01792 0.99111 0.0
C441 C 0.64947 0.06083 0.01443 0.0
N442 N 0.6365 0.07865 0.06372 0.0
N443 N 0.53365 0.90151 0.97521 0.0
C444 C 0.62777 0.03481 0.04213 0.0
C445 C 0.5757 0.94589 0.99556 0.0
N446 N 0.58143 0.93433 0.07266 0.0
N447 N 0.6182 0.0462 0.96511 0.0
H448 H 0.5018 0.8494 0.97952 0.0
H449 H 0.52505 0.91678 0.95554 0.0
H450 H 0.64118 0.09922 0.96254 0.0
H451 H 0.59889 0.01778 0.94656 0.0
H452 H 0.59696 0.9626 0.09139 0.0
H453 H 0.55227 0.88127 0.07541 0.0
H454 H 0.62 0.06298 0.08436 0.0
H455 H 0.65398 0.13045 0.05993 0.0
C456 C 0.61056 0.65366 0.33215 0.0
C457 C 0.61939 0.71478 0.34441 0.0
C458 C 0.71982 0.73094 0.37045 0.0
C459 C 0.71061 0.66839 0.35918 0.0
N460 N 0.63656 0.56155 0.3351 0.0
N461 N 0.66463 0.79411 0.38394 0.0
C462 C 0.65209 0.62656 0.34198 0.0
C463 C 0.66698 0.74642 0.36692 0.0
N464 N 0.56413 0.62299 0.31068 0.0
N465 N 0.78155 0.77989 0.38153 0.0
H466 H 0.62641 0.80699 0.38252 0.0
H467 H 0.69601 0.81448 0.4018 0.0
H468 H 0.82594 0.77657 0.38142 0.0
H469 H 0.79143 0.82867 0.38726 0.0
H470 H 0.56021 0.58233 0.29875 0.0
H471 H 0.53129 0.6406 0.30423 0.0
H472 H 0.59178 0.52693 0.32439 0.0
H473 H 0.66548 0.54033 0.34258 0.0
C474 C 0.02778 0.63074 0.69544 0.0
C475 C 0.07327 0.67126 0.67365 0.0
C476 C 0.97884 0.62265 0.63939 0.0
C477 C 0.93282 0.60124 0.66255 0.0
N478 N 0.91053 0.54464 0.7077 0.0
N479 N 0.09719 0.66851 0.62423 0.0
C480 C 0.95625 0.59178 0.68919 0.0
C481 C 0.05052 0.65484 0.64515 0.0
N482 N 0.05306 0.63052 0.72174 0.0
N483 N 0.9539 0.6129 0.61235 0.0
H484 H 0.14881 0.68622 0.62891 0.0
H485 H 0.08407 0.65547 0.60305 0.0
H486 H 0.90154 0.58197 0.60795 0.0
H487 H 0.98456 0.6344 0.59458 0.0
H488 H 0.02244 0.60867 0.73948 0.0
H489 H 0.1057 0.65208 0.72542 0.0
H490 H 0.92438 0.533 0.72709 0.0
H491 H 0.85938 0.51163 0.70192 0.0
C492 C 0.00756 0.11038 0.02416 0.0
C493 C 0.00795 0.17045 0.0149 0.0
C494 C 0.13314 0.2354 0.01741 0.0
C495 C 0.13343 0.17362 0.02211 0.0
N496 N 0.07308 0.05247 0.03161 0.0
N497 N 0.07059 0.28978 1.00103 0.0
C498 C 0.07114 0.11096 0.0262 0.0
C499 C 0.07064 0.23279 0.01095 0.0
N500 N 0.94671 0.05361 0.03122 0.0
N501 N 0.19234 0.29699 0.02096 0.0
H502 H 0.02589 0.2918 0.99766 0.0
H503 H 0.11482 0.33379 0.99434 0.0
H504 H 0.23797 0.30051 0.02797 0.0
H505 H 0.19441 0.34413 0.02045 0.0
H506 H 0.94281 0.01003 0.04056 0.0
H507 H 0.89956 0.0515 0.02905 0.0
H508 H 0.0297 0.00403 0.03328 0.0
H509 H 0.11907 0.0521 0.03348 0.0
C510 C 0.88754 0.02599 0.33571 0.0
C511 C 0.82597 0.02616 0.34177 0.0
C512 C 0.89143 0.13262 0.36891 0.0
C513 C 0.95335 0.13814 0.35904 0.0
N514 N 0.01203 0.09216 0.33254 0.0
N515 N 0.77025 0.0858 0.36025 0.0
C516 C 0.9519 0.08511 0.34239 0.0
C517 C 0.82794 0.08057 0.35769 0.0
N518 N 0.88428 0.96885 0.3242 0.0
N519 N 0.89301 0.17803 0.3885 0.0
H520 H 0.72273 0.05063 0.35157 0.0
H521 H 0.77082 0.12888 0.36851 0.0
H522 H 0.93822 0.21871 0.39666 0.0
H523 H 0.84925 0.17159 0.39869 0.0
H524 H 0.92699 0.96328 0.32134 0.0
H525 H 0.83788 0.92435 0.31964 0.0
H526 H 0.01446 0.05937 0.31769 0.0
H527 H 0.05998 0.13299 0.33851 0.0
C528 C 0.75713 0.83452 0.69528 0.0
C529 C 0.81548 0.83581 0.68335 0.0
C530 C 0.87974 0.96152 0.68603 0.0
C531 C 0.82232 0.9595 0.69927 0.0
N532 N 0.71238 0.89405 0.72234 0.0
N533 N 0.93569 0.89835 0.67144 0.0
C534 C 0.76323 0.89594 0.70597 0.0
C535 C 0.87797 0.89879 0.67989 0.0
N536 N 0.69446 0.77546 0.69467 0.0
N537 N 0.93534 0.02336 0.67905 0.0
H538 H 0.93573 0.85321 0.66671 0.0
H539 H 0.98441 0.94183 0.67111 0.0
H540 H 0.93946 0.06999 0.68472 0.0
H541 H 0.97584 0.02865 0.66668 0.0
H542 H 0.64871 0.7736 0.6999 0.0
H543 H 0.68658 0.72938 0.68619 0.0
H544 H 0.67202 0.8488 0.73049 0.0
H545 H 0.71337 0.93775 0.73006 0.0
C546 C 0.83178 0.75102 1.00709 0.0
C547 C 0.83152 0.81348 1.00424 0.0
C548 C 0.95209 0.87262 0.98928 0.0
C549 C 0.95193 0.81012 0.99263 0.0
N550 N 0.88733 0.68679 0.99486 0.0
N551 N 0.88511 0.93022 0.98792 0.0
C552 C 0.89048 0.74839 0.99872 0.0
C553 C 0.88983 0.87339 0.99373 0.0
N554 N 0.77582 0.69399 0.01782 0.0
N555 N 0.01177 0.93076 0.98221 0.0
H556 H 0.84069 0.93239 0.99179 0.0
H557 H 0.92347 0.97397 0.97807 0.0
H558 H 0.05742 0.93082 0.97851 0.0
H559 H 0.01708 0.97916 0.98074 0.0
H560 H 0.77663 0.65003 0.02392 0.0
H561 H 0.72944 0.69164 0.02229 0.0
H562 H 0.8422 0.63954 0.99629 0.0
H563 H 0.92842 0.68302 0.98693 0.0
C564 C 0.11148 0.85875 0.33745 0.0
C565 C 0.05408 0.85803 0.35002 0.0
C566 C 0.11459 0.98377 0.34908 0.0
C567 C 0.16889 0.9837 0.33406 0.0
N568 N 0.21594 0.92169 0.31047 0.0
N569 N -0.0038 0.91822 0.36474 0.0
C570 C 0.16613 0.92127 0.32706 0.0
C571 C 0.0543 0.92015 0.35515 0.0
N572 N 0.11549 0.80022 0.33686 0.0
N573 N 0.12119 0.04453 0.35783 0.0
H574 H 0.95105 0.87256 0.36921 0.0
H575 H 0.99092 0.96134 0.36635 0.0
H576 H 0.16328 0.09201 0.35252 0.0
H577 H 0.08721 0.04787 0.37171 0.0
H578 H 0.15938 0.7992 0.33086 0.0
H579 H 0.07751 0.75355 0.34508 0.0
H580 H 0.21228 0.87753 0.30181 0.0
H581 H 0.25871 0.96661 0.30348 0.0
C582 C 0.14404 0.02336 0.65522 0.0
C583 C 0.15853 0.01077 0.68318 0.0
C584 C 0.14508 0.1064 0.69886 0.0
C585 C 0.1559 0.13207 0.67075 0.0
N586 N 0.1668 0.11076 0.62084 0.0
N587 N 0.17564 0.04671 0.73278 0.0
C588 C 0.15435 0.08906 0.64833 0.0
C589 C 0.15849 0.05301 0.70558 0.0
N590 N 0.11983 0.97242 0.63534 0.0
N591 N 0.12201 0.13299 0.71911 0.0
H592 H 0.18929 0.01131 0.73941 0.0
H593 H 0.18245 0.08186 0.7486 0.0
H594 H 0.10803 0.16952 0.71432 0.0
H595 H 0.10868 0.11241 0.73943 0.0
H596 H 0.10363 0.97779 0.61524 0.0
H597 H 0.10771 0.92247 0.6403 0.0
H598 H 0.17341 0.08254 0.60495 0.0
H599 H 0.17588 0.15816 0.61382 0.0
loop_
_geom_bond_atom_site_label_1
_geom_bond_atom_site_label_2
_geom_bond_distance
_geom_bond_site_symmetry_2
_ccdc_geom_bond_type
Zn0 O3 2.035 . S
Zn0 O5 2.049 1_556 S
Zn0 O10 2.067 1_556 S
Zn1 O2 1.962 . S
Zn1 O4 1.986 . S
Zn1 O6 1.996 . S
Zn1 O9 1.943 . S
O2 Zn1 1.962 . S
O2 C7 1.254 . S
O3 Zn0 2.035 . S
O3 C7 1.259 1_556 S
O4 Zn1 1.986 . S
O4 C11 1.262 . S
O5 Zn0 2.049 1_554 S
O5 C13 1.260 . S
O6 Zn1 1.996 . S
O6 C13 1.257 . S
C7 O2 1.254 . S
C7 O3 1.259 1_554 S
C8 O9 1.249 . S
C8 O10 1.270 . S
O9 Zn1 1.943 . S
O9 C8 1.249 . S
O10 Zn0 2.067 1_554 S
O10 C8 1.270 . S
C11 O4 1.262 . S
C11 O12 1.232 . S
O12 C11 1.232 . S
C13 O5 1.260 . S
C13 O6 1.257 . S
Zn14 O17 2.031 . S
Zn14 O19 2.049 . S
Zn14 O24 2.067 1_455 S
Zn15 O16 1.962 . S
Zn15 O18 1.986 . S
Zn15 O20 1.996 . S
Zn15 O23 1.943 . S
O16 Zn15 1.962 . S
O16 C21 1.254 . S
O17 Zn14 2.031 . S
O17 C21 1.269 . S
O18 Zn15 1.986 . S
O18 C25 1.262 . S
O19 Zn14 2.049 . S
O19 C27 1.260 . S
O20 Zn15 1.996 . S
O20 C27 1.257 . S
C21 O16 1.254 . S
C21 O17 1.269 . S
C22 O23 1.249 1_655 S
C22 O24 1.270 . S
O23 Zn15 1.943 . S
O23 C22 1.249 1_455 S
O24 Zn14 2.067 1_655 S
O24 C22 1.270 . S
C25 O18 1.262 . S
C25 O26 1.232 . S
O26 C25 1.232 . S
C27 O19 1.260 . S
C27 O20 1.257 . S
Zn28 O31 2.031 . S
Zn28 O33 2.049 . S
Zn28 O38 2.067 1_545 S
Zn29 O30 1.962 . S
Zn29 O32 1.986 . S
Zn29 O34 1.996 . S
Zn29 O37 1.943 . S
O30 Zn29 1.962 . S
O30 C35 1.254 . S
O31 Zn28 2.031 . S
O31 C35 1.269 . S
O32 Zn29 1.986 . S
O32 C39 1.262 . S
O33 Zn28 2.049 . S
O33 C41 1.260 . S
O34 Zn29 1.996 . S
O34 C41 1.257 . S
C35 O30 1.254 . S
C35 O31 1.269 . S
C36 O37 1.249 1_565 S
C36 O38 1.270 . S
O37 Zn29 1.943 . S
O37 C36 1.249 1_545 S
O38 Zn28 2.067 1_565 S
O38 C36 1.270 . S
C39 O32 1.262 . S
C39 O40 1.232 . S
O40 C39 1.232 . S
C41 O33 1.260 . S
C41 O34 1.257 . S
Zn42 O45 2.035 . S
Zn42 O47 2.049 1_556 S
Zn42 O52 2.067 1_556 S
Zn43 O44 1.962 . S
Zn43 O46 1.986 . S
Zn43 O48 1.996 . S
Zn43 O51 1.943 . S
O44 Zn43 1.962 . S
O44 C49 1.254 . S
O45 Zn42 2.035 . S
O45 C49 1.259 1_556 S
O46 Zn43 1.986 . S
O46 C53 1.262 . S
O47 Zn42 2.049 1_554 S
O47 C55 1.260 . S
O48 Zn43 1.996 . S
O48 C55 1.257 . S
C49 O44 1.254 . S
C49 O45 1.259 1_554 S
C50 O51 1.249 . S
C50 O52 1.270 . S
O51 Zn43 1.943 . S
O51 C50 1.249 . S
O52 Zn42 2.067 1_554 S
O52 C50 1.270 . S
C53 O46 1.262 . S
C53 O54 1.232 . S
O54 C53 1.232 . S
C55 O47 1.260 . S
C55 O48 1.257 . S
Zn56 O59 2.031 . S
Zn56 O61 2.049 . S
Zn56 O66 2.067 1_655 S
Zn57 O58 1.962 . S
Zn57 O60 1.986 . S
Zn57 O62 1.996 . S
Zn57 O65 1.943 . S
O58 Zn57 1.962 . S
O58 C63 1.254 . S
O59 Zn56 2.031 . S
O59 C63 1.269 . S
O60 Zn57 1.986 . S
O60 C67 1.262 . S
O61 Zn56 2.049 . S
O61 C69 1.260 . S
O62 Zn57 1.996 . S
O62 C69 1.257 . S
C63 O58 1.254 . S
C63 O59 1.269 . S
C64 O65 1.249 1_455 S
C64 O66 1.270 . S
O65 Zn57 1.943 . S
O65 C64 1.249 1_655 S
O66 Zn56 2.067 1_455 S
O66 C64 1.270 . S
C67 O60 1.262 . S
C67 O68 1.232 . S
O68 C67 1.232 . S
C69 O61 1.260 . S
C69 O62 1.257 . S
Zn70 O73 2.031 . S
Zn70 O75 2.049 . S
Zn70 O80 2.067 1_565 S
Zn71 O72 1.962 . S
Zn71 O74 1.986 . S
Zn71 O76 1.996 . S
Zn71 O79 1.943 . S
O72 Zn71 1.962 . S
O72 C77 1.254 . S
O73 Zn70 2.031 . S
O73 C77 1.269 . S
O74 Zn71 1.986 . S
O74 C81 1.262 . S
O75 Zn70 2.049 . S
O75 C83 1.260 . S
O76 Zn71 1.996 . S
O76 C83 1.257 . S
C77 O72 1.254 . S
C77 O73 1.269 . S
C78 O79 1.249 1_545 S
C78 O80 1.270 . S
O79 Zn71 1.943 . S
O79 C78 1.249 1_565 S
O80 Zn70 2.067 1_545 S
O80 C78 1.270 . S
C81 O74 1.262 . S
C81 O82 1.232 . S
O82 C81 1.232 . S
C83 O75 1.260 . S
C83 O76 1.257 . S
Zn84 O87 2.031 . S
Zn84 O89 2.049 . S
Zn84 O94 2.067 . S
Zn85 O86 1.962 . S
Zn85 O88 1.986 . S
Zn85 O90 1.996 . S
Zn85 O93 1.943 . S
O86 Zn85 1.962 . S
O86 C91 1.254 . S
O87 Zn84 2.031 . S
O87 C91 1.269 . S
O88 Zn85 1.986 . S
O88 C95 1.262 . S
O89 Zn84 2.049 . S
O89 C97 1.260 . S
O90 Zn85 1.996 . S
O90 C97 1.257 . S
C91 O86 1.254 . S
C91 O87 1.269 . S
C92 O93 1.249 . S
C92 O94 1.270 . S
O93 Zn85 1.943 . S
O93 C92 1.249 . S
O94 Zn84 2.067 . S
O94 C92 1.270 . S
C95 O88 1.262 . S
C95 O96 1.232 . S
O96 C95 1.232 . S
C97 O89 1.260 . S
C97 O90 1.257 . S
Zn98 O101 2.035 . S
Zn98 O103 2.049 1_554 S
Zn98 O108 2.067 1_454 S
Zn99 O100 1.962 . S
Zn99 O102 1.986 . S
Zn99 O104 1.996 . S
Zn99 O107 1.943 . S
O100 Zn99 1.962 . S
O100 C105 1.254 . S
O101 Zn98 2.035 . S
O101 C105 1.259 1_554 S
O102 Zn99 1.986 . S
O102 C109 1.262 . S
O103 Zn98 2.049 1_556 S
O103 C111 1.260 . S
O104 Zn99 1.996 . S
O104 C111 1.257 . S
C105 O100 1.254 . S
C105 O101 1.259 1_556 S
C106 O107 1.249 1_655 S
C106 O108 1.270 . S
O107 Zn99 1.943 . S
O107 C106 1.249 1_455 S
O108 Zn98 2.067 1_656 S
O108 C106 1.270 . S
C109 O102 1.262 . S
C109 O110 1.232 . S
O110 C109 1.232 . S
C111 O103 1.260 . S
C111 O104 1.257 . S
Zn112 O115 2.031 . S
Zn112 O117 2.049 . S
Zn112 O122 2.067 1_545 S
Zn113 O114 1.962 . S
Zn113 O116 1.986 . S
Zn113 O118 1.996 . S
Zn113 O121 1.943 . S
O114 Zn113 1.962 . S
O114 C119 1.254 . S
O115 Zn112 2.031 . S
O115 C119 1.269 . S
O116 Zn113 1.986 . S
O116 C123 1.262 . S
O117 Zn112 2.049 . S
O117 C125 1.260 . S
O118 Zn113 1.996 . S
O118 C125 1.257 . S
C119 O114 1.254 . S
C119 O115 1.269 . S
C120 O121 1.249 1_565 S
C120 O122 1.270 . S
O121 Zn113 1.943 . S
O121 C120 1.249 1_545 S
O122 Zn112 2.067 1_565 S
O122 C120 1.270 . S
C123 O116 1.262 . S
C123 O124 1.232 . S
O124 C123 1.232 . S
C125 O117 1.260 . S
C125 O118 1.257 . S
Zn126 O129 2.031 . S
Zn126 O131 2.049 . S
Zn126 O136 2.067 . S
Zn127 O128 1.962 . S
Zn127 O130 1.986 . S
Zn127 O132 1.996 . S
Zn127 O135 1.943 . S
O128 Zn127 1.962 . S
O128 C133 1.254 . S
O129 Zn126 2.031 . S
O129 C133 1.269 . S
O130 Zn127 1.986 . S
O130 C137 1.262 . S
O131 Zn126 2.049 . S
O131 C139 1.260 . S
O132 Zn127 1.996 . S
O132 C139 1.257 . S
C133 O128 1.254 . S
C133 O129 1.269 . S
C134 O135 1.249 . S
C134 O136 1.270 . S
O135 Zn127 1.943 . S
O135 C134 1.249 . S
O136 Zn126 2.067 . S
O136 C134 1.270 . S
C137 O130 1.262 . S
C137 O138 1.232 . S
O138 C137 1.232 . S
C139 O131 1.260 . S
C139 O132 1.257 . S
Zn140 O143 2.035 . S
Zn140 O145 2.049 1_554 S
Zn140 O150 2.067 1_654 S
Zn141 O142 1.962 . S
Zn141 O144 1.986 . S
Zn141 O146 1.996 . S
Zn141 O149 1.943 . S
O142 Zn141 1.962 . S
O142 C147 1.254 . S
O143 Zn140 2.035 . S
O143 C147 1.259 1_554 S
O144 Zn141 1.986 . S
O144 C151 1.262 . S
O145 Zn140 2.049 1_556 S
O145 C153 1.260 . S
O146 Zn141 1.996 . S
O146 C153 1.257 . S
C147 O142 1.254 . S
C147 O143 1.259 1_556 S
C148 O149 1.249 1_455 S
C148 O150 1.270 . S
O149 Zn141 1.943 . S
O149 C148 1.249 1_655 S
O150 Zn140 2.067 1_456 S
O150 C148 1.270 . S
C151 O144 1.262 . S
C151 O152 1.232 . S
O152 C151 1.232 . S
C153 O145 1.260 . S
C153 O146 1.257 . S
Zn154 O157 2.031 . S
Zn154 O159 2.049 . S
Zn154 O164 2.067 1_565 S
Zn155 O156 1.962 . S
Zn155 O158 1.986 . S
Zn155 O160 1.996 . S
Zn155 O163 1.943 . S
O156 Zn155 1.962 . S
O156 C161 1.254 . S
O157 Zn154 2.031 . S
O157 C161 1.269 . S
O158 Zn155 1.986 . S
O158 C165 1.262 . S
O159 Zn154 2.049 . S
O159 C167 1.260 . S
O160 Zn155 1.996 . S
O160 C167 1.257 . S
C161 O156 1.254 . S
C161 O157 1.269 . S
C162 O163 1.249 1_545 S
C162 O164 1.270 . S
O163 Zn155 1.943 . S
O163 C162 1.249 1_565 S
O164 Zn154 2.067 1_545 S
O164 C162 1.270 . S
C165 O158 1.262 . S
C165 O166 1.232 . S
O166 C165 1.232 . S
C167 O159 1.260 . S
C167 O160 1.257 . S
C168 C169 1.363 . S
C168 C174 1.379 . S
C168 N176 1.356 . S
C169 C168 1.363 . S
C169 C175 1.363 . S
C170 C171 1.363 . S
C170 C175 1.379 . S
C170 N177 1.356 . S
C171 C170 1.363 . S
C171 C174 1.363 . S
N172 C174 1.356 . S
N172 H184 0.984 1_554 S
N172 H185 0.985 . S
N173 C175 1.356 . S
N173 H178 0.984 . S
N173 H179 0.985 . S
C174 C168 1.379 . S
C174 C171 1.363 . S
C174 N172 1.356 . S
C175 C169 1.363 . S
C175 C170 1.379 . S
C175 N173 1.356 . S
N176 C168 1.356 . S
N176 H182 0.984 1_554 S
N176 H183 0.984 . S
N177 C170 1.356 . S
N177 H180 0.984 . S
N177 H181 0.985 . S
H178 N173 0.984 . S
H179 N173 0.985 . S
H180 N177 0.984 . S
H181 N177 0.985 . S
H182 N176 0.984 1_556 S
H183 N176 0.984 . S
H184 N172 0.984 1_556 S
H185 N172 0.985 . S
C186 C187 1.363 1_655 S
C186 C192 1.379 . S
C186 N194 1.356 1_655 S
C187 C186 1.363 1_455 S
C187 C193 1.363 . S
C188 C189 1.363 1_455 S
C188 C193 1.379 . S
C188 N195 1.356 1_455 S
C189 C188 1.363 1_655 S
C189 C192 1.363 . S
N190 C192 1.356 . S
N190 H202 0.984 . S
N190 H203 0.985 . S
N191 C193 1.356 . S
N191 H196 0.984 . S
N191 H197 0.985 . S
C192 C186 1.379 . S
C192 C189 1.363 . S
C192 N190 1.356 . S
C193 C187 1.363 . S
C193 C188 1.379 . S
C193 N191 1.356 . S
N194 C186 1.356 1_455 S
N194 H200 0.984 1_455 S
N194 H201 0.984 . S
N195 C188 1.356 1_655 S
N195 H198 0.984 . S
N195 H199 0.985 1_655 S
H196 N191 0.984 . S
H197 N191 0.985 . S
H198 N195 0.984 . S
H199 N195 0.985 1_455 S
H200 N194 0.984 1_655 S
H201 N194 0.984 . S
H202 N190 0.984 . S
H203 N190 0.985 . S
C204 C205 1.363 1_545 S
C204 C210 1.379 . S
C204 N212 1.356 1_545 S
C205 C204 1.363 1_565 S
C205 C211 1.363 . S
C206 C207 1.363 1_565 S
C206 C211 1.379 . S
C206 N213 1.356 1_565 S
C207 C206 1.363 1_545 S
C207 C210 1.363 . S
N208 C210 1.356 . S
N208 H220 0.984 . S
N208 H221 0.985 . S
N209 C211 1.356 . S
N209 H214 0.984 . S
N209 H215 0.985 . S
C210 C204 1.379 . S
C210 C207 1.363 . S
C210 N208 1.356 . S
C211 C205 1.363 . S
C211 C206 1.379 . S
C211 N209 1.356 . S
N212 C204 1.356 1_565 S
N212 H218 0.984 1_565 S
N212 H219 0.984 . S
N213 C206 1.356 1_545 S
N213 H216 0.984 . S
N213 H217 0.985 1_545 S
H214 N209 0.984 . S
H215 N209 0.985 . S
H216 N213 0.984 . S
H217 N213 0.985 1_565 S
H218 N212 0.984 1_545 S
H219 N212 0.984 . S
H220 N208 0.984 . S
H221 N208 0.985 . S
C222 C223 1.363 . S
C222 C228 1.379 . S
C222 N230 1.356 . S
C223 C222 1.363 . S
C223 C229 1.363 . S
C224 C225 1.363 . S
C224 C229 1.379 . S
C224 N231 1.356 . S
C225 C224 1.363 . S
C225 C228 1.363 . S
N226 C228 1.356 . S
N226 H238 0.984 . S
N226 H239 0.985 . S
N227 C229 1.356 . S
N227 H232 0.984 . S
N227 H233 0.985 . S
C228 C222 1.379 . S
C228 C225 1.363 . S
C228 N226 1.356 . S
C229 C223 1.363 . S
C229 C224 1.379 . S
C229 N227 1.356 . S
N230 C222 1.356 . S
N230 H236 0.984 . S
N230 H237 0.984 . S
N231 C224 1.356 . S
N231 H234 0.984 . S
N231 H235 0.985 . S
H232 N227 0.984 . S
H233 N227 0.985 . S
H234 N231 0.984 . S
H235 N231 0.985 . S
H236 N230 0.984 . S
H237 N230 0.984 . S
H238 N226 0.984 . S
H239 N226 0.985 . S
C240 C241 1.363 . S
C240 C246 1.379 . S
C240 N248 1.356 . S
C241 C240 1.363 . S
C241 C247 1.363 1_655 S
C242 C243 1.363 . S
C242 C247 1.379 . S
C242 N249 1.356 . S
C243 C242 1.363 . S
C243 C246 1.363 1_455 S
N244 C246 1.356 1_455 S
N244 H256 0.984 1_456 S
N244 H257 0.985 . S
N245 C247 1.356 1_655 S
N245 H250 0.984 . S
N245 H251 0.985 1_655 S
C246 C240 1.379 . S
C246 C243 1.363 1_655 S
C246 N244 1.356 1_655 S
C247 C241 1.363 1_455 S
C247 C242 1.379 . S
C247 N245 1.356 1_455 S
N248 C240 1.356 . S
N248 H254 0.984 1_556 S
N248 H255 0.984 . S
N249 C242 1.356 . S
N249 H252 0.984 . S
N249 H253 0.985 . S
H250 N245 0.984 . S
H251 N245 0.985 1_455 S
H252 N249 0.984 . S
H253 N249 0.985 . S
H254 N248 0.984 1_554 S
H255 N248 0.984 . S
H256 N244 0.984 1_654 S
H257 N244 0.985 . S
C258 C259 1.363 1_565 S
C258 C264 1.379 . S
C258 N266 1.356 1_565 S
C259 C258 1.363 1_545 S
C259 C265 1.363 . S
C260 C261 1.363 1_545 S
C260 C265 1.379 . S
C260 N267 1.356 1_545 S
C261 C260 1.363 1_565 S
C261 C264 1.363 . S
N262 C264 1.356 . S
N262 H274 0.984 . S
N262 H275 0.985 . S
N263 C265 1.356 . S
N263 H268 0.984 . S
N263 H269 0.985 . S
C264 C258 1.379 . S
C264 C261 1.363 . S
C264 N262 1.356 . S
C265 C259 1.363 . S
C265 C260 1.379 . S
C265 N263 1.356 . S
N266 C258 1.356 1_545 S
N266 H272 0.984 1_545 S
N266 H273 0.984 . S
N267 C260 1.356 1_565 S
N267 H270 0.984 . S
N267 H271 0.985 1_565 S
H268 N263 0.984 . S
H269 N263 0.985 . S
H270 N267 0.984 . S
H271 N267 0.985 1_545 S
H272 N266 0.984 1_565 S
H273 N266 0.984 . S
H274 N262 0.984 . S
H275 N262 0.985 . S
C276 C277 1.363 . S
C276 C282 1.379 . S
C276 N284 1.356 . S
C277 C276 1.363 . S
C277 C283 1.363 . S
C278 C279 1.363 . S
C278 C283 1.379 . S
C278 N285 1.356 . S
C279 C278 1.363 . S
C279 C282 1.363 . S
N280 C282 1.356 . S
N280 H292 0.984 . S
N280 H293 0.985 . S
N281 C283 1.356 . S
N281 H286 0.984 . S
N281 H287 0.985 . S
C282 C276 1.379 . S
C282 C279 1.363 . S
C282 N280 1.356 . S
C283 C277 1.363 . S
C283 C278 1.379 . S
C283 N281 1.356 . S
N284 C276 1.356 . S
N284 H290 0.984 . S
N284 H291 0.984 . S
N285 C278 1.356 . S
N285 H288 0.984 . S
N285 H289 0.985 . S
H286 N281 0.984 . S
H287 N281 0.985 . S
H288 N285 0.984 . S
H289 N285 0.985 . S
H290 N284 0.984 . S
H291 N284 0.984 . S
H292 N280 0.984 . S
H293 N280 0.985 . S
C294 C295 1.363 . S
C294 C300 1.379 . S
C294 N302 1.356 . S
C295 C294 1.363 . S
C295 C301 1.363 . S
C296 C297 1.363 . S
C296 C301 1.379 . S
C296 N303 1.356 . S
C297 C296 1.363 . S
C297 C300 1.363 . S
N298 C300 1.356 . S
N298 H310 0.984 . S
N298 H311 0.985 . S
N299 C301 1.356 . S
N299 H304 0.984 . S
N299 H305 0.985 1_455 S
C300 C294 1.379 . S
C300 C297 1.363 . S
C300 N298 1.356 . S
C301 C295 1.363 . S
C301 C296 1.379 . S
C301 N299 1.356 . S
N302 C294 1.356 . S
N302 H308 0.984 . S
N302 H309 0.984 . S
N303 C296 1.356 . S
N303 H306 0.984 . S
N303 H307 0.985 . S
H304 N299 0.984 . S
H305 N299 0.985 1_655 S
H306 N303 0.984 . S
H307 N303 0.985 . S
H308 N302 0.984 . S
H309 N302 0.984 . S
H310 N298 0.984 . S
H311 N298 0.985 . S
C312 C313 1.363 . S
C312 C318 1.379 . S
C312 N320 1.356 . S
C313 C312 1.363 . S
C313 C319 1.363 . S
C314 C315 1.363 . S
C314 C319 1.379 . S
C314 N321 1.356 . S
C315 C314 1.363 . S
C315 C318 1.363 . S
N316 C318 1.356 . S
N316 H328 0.984 . S
N316 H329 0.985 . S
N317 C319 1.356 . S
N317 H322 0.984 . S
N317 H323 0.985 . S
C318 C312 1.379 . S
C318 C315 1.363 . S
C318 N316 1.356 . S
C319 C313 1.363 . S
C319 C314 1.379 . S
C319 N317 1.356 . S
N320 C312 1.356 . S
N320 H326 0.984 . S
N320 H327 0.984 . S
N321 C314 1.356 . S
N321 H324 0.984 . S
N321 H325 0.985 . S
H322 N317 0.984 . S
H323 N317 0.985 . S
H324 N321 0.984 . S
H325 N321 0.985 . S
H326 N320 0.984 . S
H327 N320 0.984 . S
H328 N316 0.984 . S
H329 N316 0.985 . S
C330 C331 1.363 . S
C330 C336 1.379 . S
C330 N338 1.356 . S
C331 C330 1.363 . S
C331 C337 1.363 . S
C332 C333 1.363 . S
C332 C337 1.379 . S
C332 N339 1.356 . S
C333 C332 1.363 . S
C333 C336 1.363 . S
N334 C336 1.356 . S
N334 H346 0.984 . S
N334 H347 0.985 . S
N335 C337 1.356 . S
N335 H340 0.984 . S
N335 H341 0.985 . S
C336 C330 1.379 . S
C336 C333 1.363 . S
C336 N334 1.356 . S
C337 C331 1.363 . S
C337 C332 1.379 . S
C337 N335 1.356 . S
N338 C330 1.356 . S
N338 H344 0.984 . S
N338 H345 0.984 . S
N339 C332 1.356 . S
N339 H342 0.984 . S
N339 H343 0.985 1_565 S
H340 N335 0.984 . S
H341 N335 0.985 . S
H342 N339 0.984 . S
H343 N339 0.985 1_545 S
H344 N338 0.984 . S
H345 N338 0.984 . S
H346 N334 0.984 . S
H347 N334 0.985 . S
C348 C349 1.363 . S
C348 C354 1.379 . S
C348 N356 1.356 . S
C349 C348 1.363 . S
C349 C355 1.363 . S
C350 C351 1.363 . S
C350 C355 1.379 . S
C350 N357 1.356 . S
C351 C350 1.363 . S
C351 C354 1.363 . S
N352 C354 1.356 . S
N352 H364 0.984 . S
N352 H365 0.985 . S
N353 C355 1.356 . S
N353 H358 0.984 . S
N353 H359 0.985 . S
C354 C348 1.379 . S
C354 C351 1.363 . S
C354 N352 1.356 . S
C355 C349 1.363 . S
C355 C350 1.379 . S
C355 N353 1.356 . S
N356 C348 1.356 . S
N356 H362 0.984 . S
N356 H363 0.984 . S
N357 C350 1.356 . S
N357 H360 0.984 . S
N357 H361 0.985 . S
H358 N353 0.984 . S
H359 N353 0.985 . S
H360 N357 0.984 . S
H361 N357 0.985 . S
H362 N356 0.984 . S
H363 N356 0.984 . S
H364 N352 0.984 . S
H365 N352 0.985 . S
C366 C367 1.363 . S
C366 C372 1.379 . S
C366 N374 1.356 . S
C367 C366 1.363 . S
C367 C373 1.363 . S
C368 C369 1.363 . S
C368 C373 1.379 . S
C368 N375 1.356 . S
C369 C368 1.363 . S
C369 C372 1.363 . S
N370 C372 1.356 . S
N370 H382 0.984 . S
N370 H383 0.985 . S
N371 C373 1.356 . S
N371 H376 0.984 . S
N371 H377 0.985 . S
C372 C366 1.379 . S
C372 C369 1.363 . S
C372 N370 1.356 . S
C373 C367 1.363 . S
C373 C368 1.379 . S
C373 N371 1.356 . S
N374 C366 1.356 . S
N374 H380 0.984 . S
N374 H381 0.984 . S
N375 C368 1.356 . S
N375 H378 0.984 . S
N375 H379 0.985 . S
H376 N371 0.984 . S
H377 N371 0.985 . S
H378 N375 0.984 . S
H379 N375 0.985 . S
H380 N374 0.984 . S
H381 N374 0.984 . S
H382 N370 0.984 . S
H383 N370 0.985 . S
C384 C385 1.363 1_554 S
C384 C390 1.379 1_565 S
C384 N392 1.356 . S
C385 C384 1.363 1_556 S
C385 C391 1.363 . S
C386 C387 1.363 1_556 S
C386 C391 1.379 1_545 S
C386 N393 1.356 . S
C387 C386 1.363 1_554 S
C387 C390 1.363 . S
N388 C390 1.356 . S
N388 H400 0.984 . S
N388 H401 0.985 . S
N389 C391 1.356 . S
N389 H394 0.984 . S
N389 H395 0.985 . S
C390 C384 1.379 1_545 S
C390 C387 1.363 . S
C390 N388 1.356 . S
C391 C385 1.363 . S
C391 C386 1.379 1_565 S
C391 N389 1.356 . S
N392 C384 1.356 . S
N392 H398 0.984 . S
N392 H399 0.984 . S
N393 C386 1.356 . S
N393 H396 0.984 . S
N393 H397 0.985 . S
H394 N389 0.984 . S
H395 N389 0.985 . S
H396 N393 0.984 . S
H397 N393 0.985 . S
H398 N392 0.984 . S
H399 N392 0.984 . S
H400 N388 0.984 . S
H401 N388 0.985 . S
C402 C403 1.363 . S
C402 C408 1.379 . S
C402 N410 1.356 . S
C403 C402 1.363 . S
C403 C409 1.363 . S
C404 C405 1.363 . S
C404 C409 1.379 . S
C404 N411 1.356 . S
C405 C404 1.363 . S
C405 C408 1.363 . S
N406 C408 1.356 . S
N406 H418 0.984 . S
N406 H419 0.985 . S
N407 C409 1.356 . S
N407 H412 0.984 . S
N407 H413 0.985 . S
C408 C402 1.379 . S
C408 C405 1.363 . S
C408 N406 1.356 . S
C409 C403 1.363 . S
C409 C404 1.379 . S
C409 N407 1.356 . S
N410 C402 1.356 . S
N410 H416 0.984 . S
N410 H417 0.984 . S
N411 C404 1.356 . S
N411 H414 0.984 . S
N411 H415 0.985 . S
H412 N407 0.984 . S
H413 N407 0.985 . S
H414 N411 0.984 . S
H415 N411 0.985 . S
H416 N410 0.984 . S
H417 N410 0.984 . S
H418 N406 0.984 . S
H419 N406 0.985 . S
C420 C421 1.363 . S
C420 C426 1.379 1_655 S
C420 N428 1.356 . S
C421 C420 1.363 . S
C421 C427 1.363 . S
C422 C423 1.363 . S
C422 C427 1.379 1_455 S
C422 N429 1.356 . S
C423 C422 1.363 . S
C423 C426 1.363 . S
N424 C426 1.356 . S
N424 H436 0.984 . S
N424 H437 0.985 . S
N425 C427 1.356 . S
N425 H430 0.984 . S
N425 H431 0.985 . S
C426 C420 1.379 1_455 S
C426 C423 1.363 . S
C426 N424 1.356 . S
C427 C421 1.363 . S
C427 C422 1.379 1_655 S
C427 N425 1.356 . S
N428 C420 1.356 . S
N428 H434 0.984 . S
N428 H435 0.984 . S
N429 C422 1.356 . S
N429 H432 0.984 . S
N429 H433 0.985 . S
H430 N425 0.984 . S
H431 N425 0.985 . S
H432 N429 0.984 . S
H433 N429 0.985 . S
H434 N428 0.984 . S
H435 N428 0.984 . S
H436 N424 0.984 . S
H437 N424 0.985 . S
C438 C439 1.363 . S
C438 C444 1.379 1_565 S
C438 N446 1.356 . S
C439 C438 1.363 . S
C439 C445 1.363 1_554 S
C440 C441 1.363 . S
C440 C445 1.379 1_545 S
C440 N447 1.356 . S
C441 C440 1.363 . S
C441 C444 1.363 1_556 S
N442 C444 1.356 . S
N442 H454 0.984 . S
N442 H455 0.985 . S
N443 C445 1.356 . S
N443 H448 0.984 . S
N443 H449 0.985 . S
C444 C438 1.379 1_545 S
C444 C441 1.363 1_554 S
C444 N442 1.356 . S
C445 C439 1.363 1_556 S
C445 C440 1.379 1_565 S
C445 N443 1.356 . S
N446 C438 1.356 . S
N446 H452 0.984 . S
N446 H453 0.984 . S
N447 C440 1.356 . S
N447 H450 0.984 . S
N447 H451 0.985 . S
H448 N443 0.984 . S
H449 N443 0.985 . S
H450 N447 0.984 . S
H451 N447 0.985 . S
H452 N446 0.984 . S
H453 N446 0.984 . S
H454 N442 0.984 . S
H455 N442 0.985 . S
C456 C457 1.363 . S
C456 C462 1.379 . S
C456 N464 1.356 . S
C457 C456 1.363 . S
C457 C463 1.363 . S
C458 C459 1.363 . S
C458 C463 1.379 . S
C458 N465 1.356 . S
C459 C458 1.363 . S
C459 C462 1.363 . S
N460 C462 1.356 . S
N460 H472 0.984 . S
N460 H473 0.985 . S
N461 C463 1.356 . S
N461 H466 0.984 . S
N461 H467 0.985 . S
C462 C456 1.379 . S
C462 C459 1.363 . S
C462 N460 1.356 . S
C463 C457 1.363 . S
C463 C458 1.379 . S
C463 N461 1.356 . S
N464 C456 1.356 . S
N464 H470 0.984 . S
N464 H471 0.984 . S
N465 C458 1.356 . S
N465 H468 0.984 . S
N465 H469 0.985 . S
H466 N461 0.984 . S
H467 N461 0.985 . S
H468 N465 0.984 . S
H469 N465 0.985 . S
H470 N464 0.984 . S
H471 N464 0.984 . S
H472 N460 0.984 . S
H473 N460 0.985 . S
C474 C475 1.363 . S
C474 C480 1.379 1_455 S
C474 N482 1.356 . S
C475 C474 1.363 . S
C475 C481 1.363 . S
C476 C477 1.363 . S
C476 C481 1.379 1_655 S
C476 N483 1.356 . S
C477 C476 1.363 . S
C477 C480 1.363 . S
N478 C480 1.356 . S
N478 H490 0.984 . S
N478 H491 0.985 . S
N479 C481 1.356 . S
N479 H484 0.984 . S
N479 H485 0.985 . S
C480 C474 1.379 1_655 S
C480 C477 1.363 . S
C480 N478 1.356 . S
C481 C475 1.363 . S
C481 C476 1.379 1_455 S
C481 N479 1.356 . S
N482 C474 1.356 . S
N482 H488 0.984 . S
N482 H489 0.984 . S
N483 C476 1.356 . S
N483 H486 0.984 . S
N483 H487 0.985 . S
H484 N479 0.984 . S
H485 N479 0.985 . S
H486 N483 0.984 . S
H487 N483 0.985 . S
H488 N482 0.984 . S
H489 N482 0.984 . S
H490 N478 0.984 . S
H491 N478 0.985 . S
C492 C493 1.363 1_554 S
C492 C498 1.379 . S
C492 N500 1.353 1_454 S
C493 C492 1.363 1_556 S
C493 C499 1.363 . S
C494 C495 1.363 1_556 S
C494 C499 1.379 . S
C494 N501 1.353 1_556 S
C495 C494 1.363 1_554 S
C495 C498 1.363 . S
N496 C498 1.356 . S
N496 H508 0.984 . S
N496 H509 0.985 . S
N497 C499 1.356 . S
N497 H502 0.984 . S
N497 H503 0.985 . S
C498 C492 1.379 . S
C498 C495 1.363 . S
C498 N496 1.356 . S
C499 C493 1.363 . S
C499 C494 1.379 . S
C499 N497 1.356 . S
N500 C492 1.353 1_656 S
N500 H506 0.966 1_556 S
N500 H507 1.007 . S
N501 C494 1.353 1_554 S
N501 H504 1.007 . S
N501 H505 0.966 1_554 S
H502 N497 0.984 . S
H503 N497 0.985 . S
H504 N501 1.007 . S
H505 N501 0.966 1_556 S
H506 N500 0.966 1_554 S
H507 N500 1.007 . S
H508 N496 0.984 . S
H509 N496 0.985 . S
C510 C511 1.363 . S
C510 C516 1.379 . S
C510 N518 1.356 . S
C511 C510 1.363 . S
C511 C517 1.363 . S
C512 C513 1.363 . S
C512 C517 1.379 . S
C512 N519 1.356 . S
C513 C512 1.363 . S
C513 C516 1.363 . S
N514 C516 1.356 1_455 S
N514 H526 0.984 . S
N514 H527 0.985 . S
N515 C517 1.356 . S
N515 H520 0.984 . S
N515 H521 0.985 . S
C516 C510 1.379 . S
C516 C513 1.363 . S
C516 N514 1.356 1_655 S
C517 C511 1.363 . S
C517 C512 1.379 . S
C517 N515 1.356 . S
N518 C510 1.356 . S
N518 H524 0.984 . S
N518 H525 0.984 . S
N519 C512 1.356 . S
N519 H522 0.984 . S
N519 H523 0.985 . S
H520 N515 0.984 . S
H521 N515 0.985 . S
H522 N519 0.984 . S
H523 N519 0.985 . S
H524 N518 0.984 . S
H525 N518 0.984 . S
H526 N514 0.984 . S
H527 N514 0.985 . S
C528 C529 1.363 . S
C528 C534 1.379 . S
C528 N536 1.356 . S
C529 C528 1.363 . S
C529 C535 1.363 . S
C530 C531 1.363 . S
C530 C535 1.379 . S
C530 N537 1.356 1_565 S
C531 C530 1.363 . S
C531 C534 1.363 . S
N532 C534 1.356 . S
N532 H544 0.984 . S
N532 H545 0.985 . S
N533 C535 1.356 . S
N533 H538 0.984 . S
N533 H539 0.985 . S
C534 C528 1.379 . S
C534 C531 1.363 . S
C534 N532 1.356 . S
C535 C529 1.363 . S
C535 C530 1.379 . S
C535 N533 1.356 . S
N536 C528 1.356 . S
N536 H542 0.984 . S
N536 H543 0.984 . S
N537 C530 1.356 1_545 S
N537 H540 0.984 . S
N537 H541 0.985 . S
H538 N533 0.984 . S
H539 N533 0.985 . S
H540 N537 0.984 . S
H541 N537 0.985 . S
H542 N536 0.984 . S
H543 N536 0.984 . S
H544 N532 0.984 . S
H545 N532 0.985 . S
C546 C547 1.363 . S
C546 C552 1.379 . S
C546 N554 1.356 . S
C547 C546 1.363 . S
C547 C553 1.363 1_554 S
C548 C549 1.363 . S
C548 C553 1.379 . S
C548 N555 1.356 . S
C549 C548 1.363 . S
C549 C552 1.363 1_556 S
N550 C552 1.353 1_556 S
N550 H562 0.966 1_556 S
N550 H563 1.007 . S
N551 C553 1.353 1_554 S
N551 H556 1.007 . S
N551 H557 0.966 1_554 S
C552 C546 1.379 . S
C552 C549 1.363 1_554 S
C552 N550 1.353 1_554 S
C553 C547 1.363 1_556 S
C553 C548 1.379 . S
C553 N551 1.353 1_556 S
N554 C546 1.356 . S
N554 H560 0.984 . S
N554 H561 0.984 . S
N555 C548 1.356 . S
N555 H558 0.984 . S
N555 H559 0.985 . S
H556 N551 1.007 . S
H557 N551 0.966 1_556 S
H558 N555 0.984 . S
H559 N555 0.985 . S
H560 N554 0.984 . S
H561 N554 0.984 . S
H562 N550 0.966 1_554 S
H563 N550 1.007 . S
C564 C565 1.363 . S
C564 C570 1.379 . S
C564 N572 1.356 . S
C565 C564 1.363 . S
C565 C571 1.363 . S
C566 C567 1.363 . S
C566 C571 1.379 . S
C566 N573 1.356 1_565 S
C567 C566 1.363 . S
C567 C570 1.363 . S
N568 C570 1.356 . S
N568 H580 0.984 . S
N568 H581 0.985 . S
N569 C571 1.356 . S
N569 H574 0.984 . S
N569 H575 0.985 . S
C570 C564 1.379 . S
C570 C567 1.363 . S
C570 N568 1.356 . S
C571 C565 1.363 . S
C571 C566 1.379 . S
C571 N569 1.356 . S
N572 C564 1.356 . S
N572 H578 0.984 . S
N572 H579 0.984 . S
N573 C566 1.356 1_545 S
N573 H576 0.984 . S
N573 H577 0.985 . S
H574 N569 0.984 . S
H575 N569 0.985 . S
H576 N573 0.984 . S
H577 N573 0.985 . S
H578 N572 0.984 . S
H579 N572 0.984 . S
H580 N568 0.984 . S
H581 N568 0.985 . S
C582 C583 1.363 . S
C582 C588 1.379 . S
C582 N590 1.356 . S
C583 C582 1.363 . S
C583 C589 1.363 . S
C584 C585 1.363 . S
C584 C589 1.379 . S
C584 N591 1.356 . S
C585 C584 1.363 . S
C585 C588 1.363 . S
N586 C588 1.356 . S
N586 H598 0.984 . S
N586 H599 0.985 . S
N587 C589 1.356 . S
N587 H592 0.984 . S
N587 H593 0.985 . S
C588 C582 1.379 . S
C588 C585 1.363 . S
C588 N586 1.356 . S
C589 C583 1.363 . S
C589 C584 1.379 . S
C589 N587 1.356 . S
N590 C582 1.356 . S
N590 H596 0.984 1_545 S
N590 H597 0.984 1_545 S
N591 C584 1.356 . S
N591 H594 0.984 . S
N591 H595 0.985 . S
H592 N587 0.984 . S
H593 N587 0.985 . S
H594 N591 0.984 . S
H595 N591 0.985 . S
H596 N590 0.984 1_565 S
H597 N590 0.984 1_565 S
H598 N586 0.984 . S
H599 N586 0.985 . S
C169 C55 1.455 . S
C171 C13 1.455 . S
C187 C27 1.455 . S
C189 C69 1.455 . S
C205 C83 1.456 . S
C207 C41 1.456 . S
C223 C97 1.455 . S
C225 C139 1.455 . S
C241 C153 1.455 . S
C243 C111 1.455 . S
C259 C125 1.455 . S
C261 C167 1.455 . S
C277 C123 1.521 . S
C279 C11 1.521 . S
C295 C25 1.521 . S
C297 C137 1.521 . S
C313 C39 1.521 . S
C315 C151 1.521 . S
C331 C53 1.521 . S
C333 C165 1.521 . S
C349 C95 1.521 . S
C351 C67 1.521 . S
C367 C109 1.521 . S
C369 C81 1.521 . S
C385 C105 1.188 . S
C387 C7 1.188 . S
C403 C21 1.188 . S
C405 C119 1.188 . S
C421 C35 1.188 . S
C423 C133 1.188 . S
C439 C49 1.188 . S
C441 C147 1.188 . S
C457 C161 1.188 . S
C459 C63 1.188 . S
C475 C77 1.188 . S
C477 C91 1.188 . S
C493 C148 1.360 . S
C495 C8 1.360 . S
C511 C162 1.360 . S
C513 C22 1.360 . S
C529 C92 1.360 . S
C531 C36 1.360 . S
C547 C50 1.360 . S
C549 C106 1.360 . S
C565 C64 1.360 . S
C567 C120 1.360 . S
C583 C78 1.360 . S
C585 C134 1.360 . S
