# Generated by pormake.
# Topology fnw, (5)-cn, num edge types: 1
# Building blocks:
#     Node 0, Type 0, BuildingBlock: BEQFEK_clean_sbu_0, # of connection points: 5
#     Node 1, Type 0, BuildingBlock: BEQFEK_clean_sbu_0, # of connection points: 5
#     Node 2, Type 0, BuildingBlock: BEQFEK_clean_sbu_0, # of connection points: 5
#     Node 3, Type 0, BuildingBlock: BEQFEK_clean_sbu_0, # of connection points: 5
#     Node 4, Type 0, BuildingBlock: BEQFEK_clean_sbu_0, # of connection points: 5
#     Node 5, Type 0, BuildingBlock: BEQFEK_clean_sbu_0, # of connection points: 5
#     Node 6, Type 0, BuildingBlock: BEQFEK_clean_sbu_0, # of connection points: 5
#     Node 7, Type 0, BuildingBlock: BEQFEK_clean_sbu_0, # of connection points: 5
#     Node 8, Type 0, BuildingBlock: BEQFEK_clean_sbu_0, # of connection points: 5
#     Node 9, Type 0, BuildingBlock: BEQFEK_clean_sbu_0, # of connection points: 5
#     Node 10, Type 0, BuildingBlock: BEQFEK_clean_sbu_0, # of connection points: 5
#     Node 11, Type 0, BuildingBlock: BEQFEK_clean_sbu_0, # of connection points: 5
#     Edge 12, Type (0, 0), BuildingBlock: AJUNOK_clean_linker_0, # of connection points: 2
#     Edge 13, Type (0, 0), BuildingBlock: AJUNOK_clean_linker_0, # of connection points: 2
#     Edge 14, Type (0, 0), BuildingBlock: AJUNOK_clean_linker_0, # of connection points: 2
#     Edge 15, Type (0, 0), BuildingBlock: AJUNOK_clean_linker_0, # of connection points: 2
#     Edge 16, Type (0, 0), BuildingBlock: AJUNOK_clean_linker_0, # of connection points: 2
#     Edge 17, Type (0, 0), BuildingBlock: AJUNOK_clean_linker_0, # of connection points: 2
#     Edge 18, Type (0, 0), BuildingBlock: AJUNOK_clean_linker_0, # of connection points: 2
#     Edge 19, Type (0, 0), BuildingBlock: AJUNOK_clean_linker_0, # of connection points: 2
#     Edge 20, Type (0, 0), BuildingBlock: AJUNOK_clean_linker_0, # of connection points: 2
#     Edge 21, Type (0, 0), BuildingBlock: AJUNOK_clean_linker_0, # of connection points: 2
#     Edge 22, Type (0, 0), BuildingBlock: AJUNOK_clean_linker_0, # of connection points: 2
#     Edge 23, Type (0, 0), BuildingBlock: AJUNOK_clean_linker_0, # of connection points: 2
#     Edge 24, Type (0, 0), BuildingBlock: AJUNOK_clean_linker_0, # of connection points: 2
#     Edge 25, Type (0, 0), BuildingBlock: AJUNOK_clean_linker_0, # of connection points: 2
#     Edge 26, Type (0, 0), BuildingBlock: AJUNOK_clean_linker_0, # of connection points: 2
#     Edge 27, Type (0, 0), BuildingBlock: AJUNOK_clean_linker_0, # of connection points: 2
#     Edge 28, Type (0, 0), BuildingBlock: AJUNOK_clean_linker_0, # of connection points: 2
#     Edge 29, Type (0, 0), BuildingBlock: AJUNOK_clean_linker_0, # of connection points: 2
#     Edge 30, Type (0, 0), BuildingBlock: AJUNOK_clean_linker_0, # of connection points: 2
#     Edge 31, Type (0, 0), BuildingBlock: AJUNOK_clean_linker_0, # of connection points: 2
#     Edge 32, Type (0, 0), BuildingBlock: AJUNOK_clean_linker_0, # of connection points: 2
#     Edge 33, Type (0, 0), BuildingBlock: AJUNOK_clean_linker_0, # of connection points: 2
#     Edge 34, Type (0, 0), BuildingBlock: AJUNOK_clean_linker_0, # of connection points: 2
#     Edge 35, Type (0, 0), BuildingBlock: AJUNOK_clean_linker_0, # of connection points: 2
#     Edge 36, Type (0, 0), BuildingBlock: AJUNOK_clean_linker_0, # of connection points: 2
#     Edge 37, Type (0, 0), BuildingBlock: AJUNOK_clean_linker_0, # of connection points: 2
#     Edge 38, Type (0, 0), BuildingBlock: AJUNOK_clean_linker_0, # of connection points: 2
#     Edge 39, Type (0, 0), BuildingBlock: AJUNOK_clean_linker_0, # of connection points: 2
#     Edge 40, Type (0, 0), BuildingBlock: AJUNOK_clean_linker_0, # of connection points: 2
#     Edge 41, Type (0, 0), BuildingBlock: AJUNOK_clean_linker_0, # of connection points: 2
# Relax obj value: 0.199
# Max RMSD: 0.133
# Mean RMSD: 0.133
data_MOF--net-fnw--node1-BEQFEK_clean_sbu_0--edge1-AJUNOK_clean_linker_0
_symmetry_space_group_name_H-M    P1
_symmetry_Int_Tables_number       1
_symmetry_cell_setting            triclinic
loop_
_symmetry_equiv_pos_as_xyz
'x, y, z'
_cell_length_a     44.512407
_cell_length_b     44.486244
_cell_length_c     22.973675
_cell_angle_alpha  89.997892
_cell_angle_beta   90.002794
_cell_angle_gamma 119.99247
loop_
_atom_site_label
_atom_site_type_symbol
_atom_site_fract_x
_atom_site_fract_y
_atom_site_fract_z
_atom_type_partial_charge
Co0 Co 0.25142 0.50792 0.22282 0.0
Co1 Co 0.28306 0.45917 0.22684 0.0
C2 C 0.24197 0.45854 0.12438 0.0
O3 O 0.23653 0.48119 0.14865 0.0
O4 O 0.25967 0.44686 0.14945 0.0
C5 C 0.20649 0.53878 0.20335 0.0
O6 O 0.18927 0.51533 0.16325 0.0
C7 C 0.2971 0.40044 0.23048 0.0
C8 C 0.33998 0.42177 0.29446 0.0
C9 C 0.32009 0.39313 0.25979 0.0
N10 N 0.30333 0.43197 0.24751 0.0
N11 N 0.32894 0.44447 0.2857 0.0
C12 C 0.26839 0.3775 0.19001 0.0
H13 H 0.24513 0.3798 0.19922 0.0
H14 H 0.26183 0.35002 0.19429 0.0
H15 H 0.27647 0.38634 0.14458 0.0
C16 C 0.22936 0.47977 0.34099 0.0
N17 N 0.24209 0.47917 0.28818 0.0
N18 N 0.25284 0.45652 0.28822 0.0
C19 C 0.24537 0.44041 0.34035 0.0
C20 C 0.2306 0.45484 0.37603 0.0
C21 C 0.22243 0.50801 0.35978 0.0
H22 H 0.24147 0.53291 0.33922 0.0
H23 H 0.19613 0.50156 0.34509 0.0
H24 H 0.22424 0.51154 0.40768 0.0
O25 O 0.30127 0.54107 0.22036 0.0
O26 O 0.3242 0.50691 0.22126 0.0
H27 H 0.28012 0.42366 0.37021 0.0
H28 H 0.23577 0.39614 0.39252 0.0
C29 C 0.25271 0.41209 0.35624 0.0
H30 H 0.24837 0.39515 0.31807 0.0
H31 H 0.33888 0.46862 0.30584 0.0
O32 O 0.23063 0.53781 0.23126 0.0
C33 C 0.32753 0.537 0.21967 0.0
Co34 Co 0.74036 0.24606 0.72581 0.0
Co35 Co 0.8214 0.28395 0.73049 0.0
C36 C 0.78117 0.23749 0.63012 0.0
O37 O 0.75242 0.23032 0.65379 0.0
O38 O 0.81026 0.25803 0.65435 0.0
C39 C 0.66707 0.21263 0.6972 0.0
O40 O 0.6759 0.20862 0.64445 0.0
C41 C 0.89478 0.29973 0.74029 0.0
C42 C 0.91571 0.34768 0.79286 0.0
C43 C 0.92453 0.32478 0.76825 0.0
N44 N 0.86937 0.30721 0.74946 0.0
N45 N 0.88225 0.33607 0.78041 0.0
C46 C 0.89 0.26853 0.70786 0.0
H47 H 0.86284 0.24698 0.71238 0.0
H48 H 0.90832 0.2603 0.72386 0.0
H49 H 0.89514 0.2751 0.66098 0.0
C50 C 0.7477 0.22437 0.84308 0.0
N51 N 0.76134 0.23902 0.79141 0.0
N52 N 0.79538 0.25531 0.7947 0.0
C53 C 0.80449 0.25175 0.8493 0.0
C54 C 0.77455 0.23242 0.88203 0.0
C55 C 0.70959 0.20485 0.85549 0.0
H56 H 0.69598 0.18556 0.82046 0.0
H57 H 0.70395 0.19132 0.89809 0.0
H58 H 0.6995 0.22317 0.8555 0.0
O59 O 0.75488 0.29578 0.71915 0.0
O60 O 0.81207 0.32269 0.72173 0.0
H61 H 0.84988 0.29886 0.87363 0.0
H62 H 0.84294 0.26219 0.91636 0.0
C63 C 0.84087 0.27072 0.872 0.0
H64 H 0.85807 0.26644 0.84252 0.0
H65 H 0.86796 0.34757 0.79393 0.0
O66 O 0.68982 0.22459 0.73715 0.0
C67 C 0.7841 0.32359 0.7181 0.0
Co68 Co 0.49323 0.74004 0.23041 0.0
Co69 Co 0.53452 0.82123 0.23358 0.0
C70 C 0.54071 0.78109 0.13296 0.0
O71 O 0.52018 0.75224 0.15742 0.0
O72 O 0.54865 0.81009 0.15692 0.0
C73 C 0.45879 0.66576 0.20503 0.0
O74 O 0.47589 0.67401 0.15559 0.0
C75 C 0.59177 0.8947 0.23873 0.0
C76 C 0.56594 0.91693 0.29125 0.0
C77 C 0.59693 0.92523 0.26437 0.0
N78 N 0.55923 0.86947 0.25084 0.0
N79 N 0.54398 0.88307 0.28189 0.0
C80 C 0.61745 0.88894 0.20593 0.0
H81 H 0.61471 0.8636 0.21857 0.0
H82 H 0.64436 0.9102 0.21414 0.0
H83 H 0.61179 0.88778 0.15868 0.0
C84 C 0.52413 0.749 0.34669 0.0
N85 N 0.52181 0.76194 0.29507 0.0
N86 N 0.53901 0.79605 0.29744 0.0
C87 C 0.55279 0.80588 0.35123 0.0
C88 C 0.54369 0.77635 0.3843 0.0
C89 C 0.50521 0.71113 0.3611 0.0
H90 H 0.50894 0.69643 0.32556 0.0
H91 H 0.51447 0.70598 0.40274 0.0
H92 H 0.47704 0.7019 0.36451 0.0
O93 O 0.4574 0.75353 0.22455 0.0
O94 O 0.48588 0.81082 0.22664 0.0
H95 H 0.57955 0.84494 0.41809 0.0
H96 H 0.59074 0.85979 0.34401 0.0
C97 C 0.56928 0.84237 0.37336 0.0
H98 H 0.54964 0.85072 0.37392 0.0
H99 H 0.51855 0.86906 0.29726 0.0
O100 O 0.46487 0.68936 0.24199 0.0
C101 C 0.45757 0.78215 0.22383 0.0
Co102 Co 0.73965 0.48691 0.72159 0.0
Co103 Co 0.71177 0.53878 0.72808 0.0
C104 C 0.75051 0.53708 0.62374 0.0
O105 O 0.75499 0.51365 0.64743 0.0
O106 O 0.73395 0.5498 0.64954 0.0
C107 C 0.78295 0.45385 0.70647 0.0
O108 O 0.80593 0.48104 0.67718 0.0
C109 C 0.69906 0.59855 0.73002 0.0
C110 C 0.66227 0.58198 0.8038 0.0
C111 C 0.67889 0.60806 0.76302 0.0
N112 N 0.6945 0.56831 0.75095 0.0
N113 N 0.67251 0.55866 0.79496 0.0
C114 C 0.72304 0.618 0.68096 0.0
H115 H 0.74765 0.61764 0.68616 0.0
H116 H 0.7285 0.64522 0.67925 0.0
H117 H 0.71109 0.60475 0.63933 0.0
C118 C 0.76438 0.51465 0.83934 0.0
N119 N 0.7514 0.51589 0.78706 0.0
N120 N 0.74257 0.54001 0.78763 0.0
C121 C 0.75189 0.55656 0.83935 0.0
C122 C 0.76544 0.54071 0.87448 0.0
C123 C 0.76944 0.48516 0.85768 0.0
H124 H 0.74962 0.46076 0.8368 0.0
H125 H 0.79538 0.49039 0.84308 0.0
H126 H 0.76742 0.48148 0.90555 0.0
O127 O 0.6897 0.45639 0.72129 0.0
O128 O 0.66856 0.49205 0.72466 0.0
H129 H 0.72207 0.57813 0.87382 0.0
H130 H 0.76775 0.60346 0.88825 0.0
C131 C 0.74815 0.58718 0.85514 0.0
H132 H 0.75141 0.60309 0.81597 0.0
H133 H 0.66426 0.53586 0.81872 0.0
O134 O 0.75651 0.45363 0.72762 0.0
C135 C 0.66421 0.46157 0.72287 0.0
Co136 Co 0.25167 0.74393 0.22519 0.0
Co137 Co 0.17132 0.71253 0.22586 0.0
C138 C 0.21363 0.75592 0.12653 0.0
O139 O 0.24134 0.76099 0.1518 0.0
O140 O 0.18379 0.7372 0.14958 0.0
C141 C 0.32704 0.78173 0.20344 0.0
O142 O 0.32205 0.79698 0.15852 0.0
C143 C 0.09838 0.6984 0.2281 0.0
C144 C 0.07735 0.65687 0.2946 0.0
C145 C 0.06838 0.67606 0.25864 0.0
N146 N 0.12384 0.69262 0.24589 0.0
N147 N 0.11101 0.66776 0.28549 0.0
C148 C 0.1035 0.72575 0.18502 0.0
H149 H 0.12876 0.7496 0.19313 0.0
H150 H 0.08213 0.73174 0.18751 0.0
H151 H 0.10447 0.71654 0.14054 0.0
C152 C 0.24339 0.76306 0.34486 0.0
N153 N 0.23136 0.75174 0.29084 0.0
N154 N 0.1982 0.74183 0.28864 0.0
C155 C 0.18854 0.74873 0.34027 0.0
C156 C 0.21657 0.76146 0.37843 0.0
C157 C 0.27836 0.77038 0.36539 0.0
H158 H 0.28554 0.75261 0.34365 0.0
H159 H 0.29794 0.79741 0.35358 0.0
H160 H 0.27892 0.76711 0.41315 0.0
O161 O 0.23432 0.69437 0.21927 0.0
O162 O 0.17727 0.67084 0.21976 0.0
H163 H 0.13465 0.71834 0.36243 0.0
H164 H 0.15539 0.76242 0.38822 0.0
C165 C 0.15391 0.74552 0.35148 0.0
H166 H 0.14483 0.75283 0.31182 0.0
H167 H 0.1254 0.65832 0.30652 0.0
O168 O 0.30177 0.76217 0.23617 0.0
C169 C 0.20423 0.66789 0.21794 0.0
Co170 Co 0.50391 0.25549 0.72786 0.0
Co171 Co 0.45899 0.17446 0.7262 0.0
C172 C 0.45542 0.21558 0.62777 0.0
O173 O 0.47694 0.24356 0.65375 0.0
O174 O 0.44539 0.1858 0.65033 0.0
C175 C 0.53706 0.33037 0.7048 0.0
O176 O 0.52182 0.32262 0.65365 0.0
C177 C 0.40313 0.10005 0.73269 0.0
C178 C 0.42838 0.08173 0.795 0.0
C179 C 0.39808 0.07111 0.76399 0.0
N180 N 0.43479 0.12664 0.74587 0.0
N181 N 0.4497 0.11535 0.78279 0.0
C182 C 0.37793 0.10304 0.69356 0.0
H183 H 0.38208 0.12979 0.69527 0.0
H184 H 0.35083 0.08397 0.70596 0.0
H185 H 0.38238 0.09772 0.64813 0.0
C186 C 0.47615 0.24409 0.84722 0.0
N187 N 0.47596 0.23296 0.7927 0.0
N188 N 0.45427 0.19941 0.78977 0.0
C189 C 0.43817 0.18843 0.8416 0.0
C190 C 0.45216 0.21617 0.88044 0.0
C191 C 0.50267 0.27939 0.86847 0.0
H192 H 0.52799 0.28739 0.84746 0.0
H193 H 0.49449 0.29835 0.85614 0.0
H194 H 0.50613 0.27999 0.91632 0.0
O195 O 0.5395 0.24215 0.72237 0.0
O196 O 0.50806 0.18478 0.71938 0.0
H197 H 0.41867 0.13476 0.86158 0.0
H198 H 0.39306 0.15228 0.89072 0.0
C199 C 0.40862 0.15258 0.85272 0.0
H200 H 0.3917 0.14299 0.81375 0.0
H201 H 0.47433 0.13089 0.80056 0.0
O202 O 0.53055 0.30617 0.74073 0.0
C203 C 0.53731 0.21263 0.71941 0.0
Co204 Co 0.49223 0.75089 0.78991 0.0
Co205 Co 0.53599 0.71356 0.78551 0.0
C206 C 0.5402 0.75791 0.8876 0.0
O207 O 0.51869 0.76523 0.86387 0.0
O208 O 0.54976 0.73847 0.86222 0.0
C209 C 0.45412 0.78792 0.8137 0.0
O210 O 0.46978 0.7975 0.86436 0.0
C211 C 0.59398 0.6983 0.77477 0.0
C212 C 0.56687 0.6502 0.72261 0.0
C213 C 0.59872 0.67334 0.7465 0.0
N214 N 0.56093 0.69054 0.76638 0.0
N215 N 0.54493 0.66158 0.73572 0.0
C216 C 0.62049 0.72974 0.80656 0.0
H217 H 0.61438 0.751 0.80277 0.0
H218 H 0.64689 0.73833 0.78945 0.0
H219 H 0.61982 0.72326 0.85336 0.0
C220 C 0.52334 0.77471 0.67421 0.0
N221 N 0.52142 0.7592 0.72542 0.0
N222 N 0.53957 0.7433 0.72245 0.0
C223 C 0.55361 0.74818 0.66872 0.0
C224 C 0.54367 0.76817 0.63628 0.0
C225 C 0.50335 0.79264 0.66035 0.0
H226 H 0.50654 0.81074 0.69614 0.0
H227 H 0.51218 0.80729 0.61884 0.0
H228 H 0.47537 0.77303 0.65696 0.0
O229 O 0.45714 0.7011 0.7935 0.0
O230 O 0.48786 0.67456 0.79281 0.0
H231 H 0.55251 0.70121 0.64547 0.0
H232 H 0.58114 0.73745 0.60107 0.0
C233 C 0.57126 0.72944 0.64593 0.0
H234 H 0.59321 0.73445 0.67482 0.0
H235 H 0.51905 0.6499 0.72266 0.0
O236 O 0.46271 0.7718 0.77789 0.0
C237 C 0.45886 0.67347 0.79485 0.0
Co238 Co 0.73955 0.48899 0.28035 0.0
Co239 Co 0.82016 0.53698 0.28098 0.0
C240 C 0.77811 0.53921 0.37924 0.0
O241 O 0.75051 0.51658 0.35368 0.0
O242 O 0.80806 0.55037 0.35654 0.0
C243 C 0.66439 0.4544 0.30232 0.0
O244 O 0.6713 0.47147 0.35173 0.0
C245 C 0.89374 0.59477 0.27308 0.0
C246 C 0.91279 0.57045 0.21023 0.0
C247 C 0.92272 0.60069 0.24106 0.0
N248 N 0.86775 0.56267 0.26041 0.0
N249 N 0.87948 0.54834 0.22316 0.0
C250 C 0.89015 0.61946 0.31263 0.0
H251 H 0.86318 0.61468 0.31115 0.0
H252 H 0.90875 0.64675 0.30042 0.0
H253 H 0.89569 0.61504 0.35793 0.0
C254 C 0.74907 0.51572 0.1604 0.0
N255 N 0.76083 0.51674 0.21474 0.0
N256 N 0.79413 0.53947 0.21696 0.0
C257 C 0.80426 0.55525 0.16469 0.0
C258 C 0.77628 0.54009 0.12647 0.0
C259 C 0.71392 0.48833 0.14009 0.0
H260 H 0.70732 0.46309 0.16011 0.0
H261 H 0.69434 0.49524 0.15448 0.0
H262 H 0.71266 0.48534 0.09211 0.0
O263 O 0.75522 0.45517 0.28744 0.0
O264 O 0.81232 0.48888 0.28984 0.0
H265 H 0.85788 0.5762 0.14286 0.0
H266 H 0.8388 0.60052 0.11436 0.0
C267 C 0.83952 0.58549 0.1524 0.0
H268 H 0.84913 0.60272 0.19102 0.0
H269 H 0.86444 0.52351 0.20573 0.0
O270 O 0.68905 0.46024 0.26796 0.0
C271 C 0.78537 0.45894 0.29113 0.0
Co272 Co 0.24677 0.74053 0.78412 0.0
Co273 Co 0.28092 0.82119 0.77923 0.0
C274 C 0.23868 0.78152 0.88175 0.0
O275 O 0.23196 0.75298 0.85758 0.0
O276 O 0.2575 0.81071 0.85668 0.0
C277 C 0.20279 0.66464 0.80477 0.0
O278 O 0.1872 0.67062 0.84804 0.0
C279 C 0.29816 0.89504 0.77656 0.0
C280 C 0.33841 0.91439 0.70794 0.0
C281 C 0.32087 0.92463 0.74539 0.0
N282 N 0.30219 0.86864 0.75783 0.0
N283 N 0.32627 0.88045 0.71693 0.0
C284 C 0.27195 0.89117 0.82106 0.0
H285 H 0.24734 0.8665 0.81359 0.0
H286 H 0.26715 0.91336 0.81952 0.0
H287 H 0.28152 0.88966 0.86497 0.0
C288 C 0.22597 0.74721 0.66536 0.0
N289 N 0.23878 0.76047 0.71818 0.0
N290 N 0.25021 0.79399 0.71801 0.0
C291 C 0.24291 0.80281 0.66588 0.0
C292 C 0.2277 0.77359 0.63025 0.0
C293 C 0.21857 0.71186 0.64669 0.0
H294 H 0.2373 0.70565 0.66748 0.0
H295 H 0.19211 0.69227 0.66117 0.0
H296 H 0.22052 0.71012 0.59883 0.0
O297 O 0.29614 0.75599 0.78848 0.0
O298 O 0.3213 0.81322 0.78503 0.0
H299 H 0.27742 0.85396 0.63416 0.0
H300 H 0.23269 0.83752 0.61519 0.0
C301 C 0.2504 0.83855 0.65016 0.0
H302 H 0.24727 0.85162 0.68885 0.0
H303 H 0.33444 0.86521 0.69512 0.0
O304 O 0.22544 0.68987 0.77501 0.0
C305 C 0.32325 0.78569 0.78795 0.0
Co306 Co 0.50625 0.25067 0.28455 0.0
Co307 Co 0.45596 0.28061 0.27875 0.0
C308 C 0.45651 0.24146 0.38278 0.0
O309 O 0.47953 0.23639 0.35893 0.0
O310 O 0.44417 0.2584 0.35705 0.0
C311 C 0.54078 0.20987 0.30899 0.0
O312 O 0.51842 0.19385 0.3511 0.0
C313 C 0.39782 0.29602 0.27181 0.0
C314 C 0.41786 0.33336 0.19877 0.0
C315 C 0.39015 0.31683 0.23669 0.0
N316 N 0.42842 0.29988 0.25439 0.0
N317 N 0.44016 0.32229 0.21091 0.0
C318 C 0.37637 0.27225 0.31976 0.0
H319 H 0.37954 0.24904 0.32084 0.0
H320 H 0.34859 0.26423 0.31414 0.0
H321 H 0.38559 0.28595 0.362 0.0
C322 C 0.4779 0.22674 0.16692 0.0
N323 N 0.47723 0.23982 0.21939 0.0
N324 N 0.45357 0.24923 0.21944 0.0
C325 C 0.43661 0.24007 0.1681 0.0
C326 C 0.4518 0.22607 0.13243 0.0
C327 C 0.50704 0.22133 0.14776 0.0
H328 H 0.53156 0.24068 0.16894 0.0
H329 H 0.50141 0.19508 0.16135 0.0
H330 H 0.51074 0.22387 0.09991 0.0
O331 O 0.53816 0.30042 0.28481 0.0
O332 O 0.50341 0.32265 0.28287 0.0
H333 H 0.41534 0.2705 0.1351 0.0
H334 H 0.38949 0.22486 0.1203 0.0
C335 C 0.40615 0.24428 0.15336 0.0
H336 H 0.3906 0.24109 0.19297 0.0
H337 H 0.46355 0.32999 0.18938 0.0
O338 O 0.53784 0.23172 0.2775 0.0
C339 C 0.53362 0.32635 0.28407 0.0
Co340 Co 0.25316 0.50837 0.78109 0.0
Co341 Co 0.17296 0.45788 0.77992 0.0
C342 C 0.21525 0.45802 0.87987 0.0
O343 O 0.2427 0.48112 0.85462 0.0
O344 O 0.18536 0.44605 0.85662 0.0
C345 C 0.32772 0.54365 0.8055 0.0
O346 O 0.32051 0.52216 0.84935 0.0
C347 C 0.09989 0.39923 0.77956 0.0
C348 C 0.07916 0.4178 0.7094 0.0
C349 C 0.06992 0.39086 0.74834 0.0
N350 N 0.12559 0.42965 0.75933 0.0
N351 N 0.11294 0.44052 0.71755 0.0
C352 C 0.10458 0.37855 0.82629 0.0
H353 H 0.12928 0.37862 0.81915 0.0
H354 H 0.08256 0.35146 0.82714 0.0
H355 H 0.10653 0.39103 0.86903 0.0
C356 C 0.24579 0.48088 0.66163 0.0
N357 N 0.23348 0.47993 0.71552 0.0
N358 N 0.20048 0.45613 0.71752 0.0
C359 C 0.19125 0.43955 0.66586 0.0
C360 C 0.21934 0.45534 0.62792 0.0
C361 C 0.28063 0.5089 0.6413 0.0
H362 H 0.30036 0.50154 0.65238 0.0
H363 H 0.28104 0.51302 0.59364 0.0
H364 H 0.28768 0.53363 0.66372 0.0
O365 O 0.235 0.54 0.78601 0.0
O366 O 0.17807 0.50516 0.78591 0.0
H367 H 0.13756 0.4149 0.64159 0.0
H368 H 0.15932 0.3921 0.61859 0.0
C369 C 0.15704 0.40762 0.65436 0.0
H370 H 0.14768 0.39156 0.69437 0.0
H371 H 0.12748 0.46364 0.69461 0.0
O372 O 0.30355 0.54012 0.77181 0.0
C373 C 0.20452 0.53546 0.78742 0.0
Co374 Co 0.74838 0.25505 0.2902 0.0
Co375 Co 0.71254 0.17409 0.28325 0.0
C376 C 0.75678 0.21382 0.38576 0.0
O377 O 0.76347 0.24265 0.36286 0.0
O378 O 0.73753 0.18489 0.36003 0.0
C379 C 0.78774 0.33022 0.31485 0.0
O380 O 0.7996 0.32352 0.36255 0.0
C381 C 0.69561 0.10006 0.27769 0.0
C382 C 0.6533 0.08098 0.2128 0.0
C383 C 0.67264 0.07089 0.24602 0.0
N384 N 0.69053 0.1264 0.26243 0.0
N385 N 0.66497 0.1146 0.22415 0.0
C386 C 0.72218 0.10315 0.32071 0.0
H387 H 0.74567 0.12924 0.31754 0.0
H388 H 0.7291 0.08267 0.31348 0.0
H389 H 0.71145 0.10025 0.36527 0.0
C390 C 0.7724 0.24987 0.17369 0.0
N391 N 0.75713 0.23538 0.22459 0.0
N392 N 0.74207 0.2014 0.22049 0.0
C393 C 0.74753 0.19326 0.16628 0.0
C394 C 0.76631 0.22368 0.13445 0.0
C395 C 0.79055 0.28808 0.16206 0.0
H396 H 0.80943 0.30203 0.19745 0.0
H397 H 0.80435 0.29457 0.11966 0.0
H398 H 0.77131 0.29702 0.16209 0.0
O399 O 0.69844 0.23926 0.29455 0.0
O400 O 0.67272 0.18203 0.29152 0.0
H401 H 0.70385 0.14775 0.13224 0.0
H402 H 0.74443 0.15585 0.1026 0.0
C403 C 0.73142 0.15709 0.14284 0.0
H404 H 0.733 0.13971 0.17567 0.0
H405 H 0.65562 0.1297 0.20541 0.0
O406 O 0.76872 0.30563 0.28045 0.0
C407 C 0.67111 0.20966 0.29502 0.0
C408 C 0.35392 0.33326 0.29696 0.0
C409 C 0.3626 0.32601 0.24201 0.0
C410 C 0.33662 0.35217 0.3021 0.0
C411 C 0.32745 0.36445 0.25259 0.0
H412 H 0.36328 0.32727 0.33626 0.0
H413 H 0.33276 0.3595 0.34524 0.0
S414 S 0.34043 0.34828 0.09881 0.0
N415 N 0.35698 0.32865 0.13717 0.0
N416 N 0.32568 0.36533 0.14688 0.0
C417 C 0.3333 0.35477 0.19745 0.0
C418 C 0.35065 0.33527 0.19222 0.0
C419 C 0.97595 0.33111 0.71451 0.0
C420 C 0.96017 0.3306 0.76769 0.0
C421 C 0.01216 0.34764 0.70995 0.0
C422 C 0.03358 0.36377 0.75846 0.0
H423 H 0.96062 0.32184 0.67514 0.0
H424 H 0.02354 0.35028 0.66723 0.0
S425 S 0.00429 0.3646 0.90915 0.0
N426 N 0.96811 0.34337 0.87117 0.0
N427 N 0.03616 0.37483 0.86244 0.0
C428 C 0.01792 0.3603 0.81294 0.0
C429 C 0.98112 0.34359 0.81753 0.0
C430 C 0.65611 0.01826 0.30564 0.0
C431 C 0.6645 0.03456 0.25102 0.0
C432 C 0.637 0.98199 0.30985 0.0
C433 C 0.62621 0.96103 0.25967 0.0
H434 H 0.66124 0.03347 0.34501 0.0
H435 H 0.6283 0.97036 0.35244 0.0
S436 S 0.64646 0.99141 0.10702 0.0
N437 N 0.66451 0.02734 0.14624 0.0
N438 N 0.62861 0.95913 0.15419 0.0
C439 C 0.63752 0.97698 0.20519 0.0
C440 C 0.65669 0.01387 0.20089 0.0
C441 C 0.66505 0.65176 0.80169 0.0
C442 C 0.6695 0.6351 0.75306 0.0
C443 C 0.64512 0.66808 0.79804 0.0
C444 C 0.62883 0.66794 0.74565 0.0
H445 H 0.67462 0.64965 0.84398 0.0
H446 H 0.63969 0.67768 0.83766 0.0
S447 S 0.63661 0.63266 0.60386 0.0
N448 N 0.65909 0.62294 0.64957 0.0
N449 N 0.6223 0.65425 0.64246 0.0
C450 C 0.63603 0.65457 0.69548 0.0
C451 C 0.65628 0.63797 0.69918 0.0
C452 C 0.01137 0.66122 0.30073 0.0
C453 C 0.03227 0.66814 0.25094 0.0
C454 C 0.97511 0.64248 0.29681 0.0
C455 C 0.95871 0.62991 0.24293 0.0
H456 H 0.02315 0.66784 0.34354 0.0
H457 H 0.96019 0.63496 0.33673 0.0
S458 S 0.00142 0.6455 0.09879 0.0
N459 N 0.03379 0.66428 0.14557 0.0
N460 N 0.96563 0.62968 0.13806 0.0
C461 C 0.97921 0.63972 0.19231 0.0
C462 C 0.01609 0.65876 0.19629 0.0
C463 C 0.33737 0.98232 0.70394 0.0
C464 C 0.33041 0.96123 0.7535 0.0
C465 C 0.35644 0.01859 0.70809 0.0
C466 C 0.36936 0.03484 0.76198 0.0
H467 H 0.33023 0.97065 0.66109 0.0
H468 H 0.36372 0.03363 0.6683 0.0
S469 S 0.35458 0.99165 0.90559 0.0
N470 N 0.33523 0.95942 0.85867 0.0
N471 N 0.37038 0.02757 0.86665 0.0
C472 C 0.3599 0.01417 0.8124 0.0
C473 C 0.34052 0.97729 0.80818 0.0
C474 C 0.19439 0.44816 0.98262 0.0
C475 C 0.21816 0.44934 0.94105 0.0
C476 C 0.20115 0.44883 0.04243 0.0
C477 C 0.2314 0.44968 0.06277 0.0
H478 H 0.17174 0.44942 0.96897 0.0
H479 H 0.18338 0.45034 0.07292 0.0
S480 S 0.2994 0.44822 0.97146 0.0
N481 N 0.27146 0.44824 0.92416 0.0
N482 N 0.28359 0.44823 0.03649 0.0
C483 C 0.25384 0.44785 0.02164 0.0
C484 C 0.24738 0.44804 0.96077 0.0
C485 C 0.79738 0.24419 0.46835 0.0
C486 C 0.76775 0.21447 0.44696 0.0
C487 C 0.80367 0.24978 0.52835 0.0
C488 C 0.78013 0.2262 0.56912 0.0
H489 H 0.81477 0.26431 0.43862 0.0
H490 H 0.82549 0.27413 0.54274 0.0
S491 S 0.70148 0.14199 0.53592 0.0
N492 N 0.7171 0.15909 0.47144 0.0
N493 N 0.72843 0.17008 0.58411 0.0
C494 C 0.75202 0.19507 0.54832 0.0
C495 C 0.74597 0.18905 0.48723 0.0
C496 C 0.55016 0.80373 0.03122 0.0
C497 C 0.55049 0.78014 0.0716 0.0
C498 C 0.5495 0.79775 0.97112 0.0
C499 C 0.54993 0.76839 0.94918 0.0
H500 H 0.5475 0.82541 0.04602 0.0
H501 H 0.54669 0.81523 0.94173 0.0
S502 S 0.5568 0.70203 0.03696 0.0
N503 N 0.55544 0.72865 0.08562 0.0
N504 N 0.55511 0.71785 0.97279 0.0
C505 C 0.55373 0.74651 0.98907 0.0
C506 C 0.55374 0.75225 0.05027 0.0
C507 C 0.79842 0.54777 0.48221 0.0
C508 C 0.77522 0.5477 0.44056 0.0
C509 C 0.79135 0.54653 0.54198 0.0
C510 C 0.76135 0.5462 0.56228 0.0
H511 H 0.82081 0.54602 0.46857 0.0
H512 H 0.80867 0.5442 0.57242 0.0
S513 S 0.69487 0.55054 0.47104 0.0
N514 N 0.72271 0.55034 0.42373 0.0
N515 N 0.71008 0.54937 0.53607 0.0
C516 C 0.73952 0.54914 0.52122 0.0
C517 C 0.74626 0.5495 0.46033 0.0
C518 C 0.19816 0.75118 0.96436 0.0
C519 C 0.22847 0.78031 0.94347 0.0
C520 C 0.19189 0.74516 0.02427 0.0
C521 C 0.21618 0.76757 0.06542 0.0
H522 H 0.18 0.73195 0.93418 0.0
H523 H 0.16918 0.72138 0.03823 0.0
S524 S 0.29755 0.84957 0.03364 0.0
N525 N 0.28113 0.83375 0.96889 0.0
N526 N 0.26988 0.82178 0.08141 0.0
C527 C 0.24539 0.79796 0.04522 0.0
C528 C 0.25138 0.80453 0.98424 0.0
C529 C 0.44676 0.19464 0.52514 0.0
C530 C 0.44681 0.21806 0.56634 0.0
C531 C 0.44763 0.20124 0.46526 0.0
C532 C 0.4476 0.23098 0.4444 0.0
H533 H 0.44876 0.17245 0.53916 0.0
H534 H 0.44998 0.18378 0.43514 0.0
S535 S 0.44287 0.29773 0.5344 0.0
N536 N 0.44357 0.27036 0.58221 0.0
N537 N 0.44398 0.28216 0.46966 0.0
C538 C 0.4446 0.25298 0.48505 0.0
C539 C 0.44456 0.24669 0.54605 0.0
C540 C 0.74942 0.54667 0.03534 0.0
C541 C 0.77645 0.54423 0.06228 0.0
C542 C 0.74658 0.54646 0.9746 0.0
C543 C 0.77125 0.54485 0.93838 0.0
H544 H 0.72961 0.54752 0.06148 0.0
H545 H 0.72407 0.54614 0.95615 0.0
S546 S 0.84824 0.54028 0.987 0.0
N547 N 0.82841 0.54005 0.04787 0.0
N548 N 0.82502 0.54343 0.93381 0.0
C549 C 0.79941 0.54426 0.96472 0.0
C550 C 0.80163 0.54316 0.02661 0.0
C551 C 0.24751 0.79768 0.52997 0.0
C552 C 0.22192 0.77238 0.56637 0.0
C553 C 0.24459 0.79487 0.46922 0.0
C554 C 0.21657 0.76609 0.44251 0.0
H555 H 0.27074 0.81912 0.54829 0.0
H556 H 0.2651 0.81476 0.44294 0.0
S557 S 0.14205 0.69327 0.5185 0.0
N558 N 0.16612 0.71931 0.57135 0.0
N559 N 0.16267 0.71169 0.45754 0.0
C560 C 0.19047 0.74093 0.47843 0.0
C561 C 0.19272 0.74461 0.54023 0.0
C562 C 0.44477 0.24212 0.97197 0.0
C563 C 0.44761 0.21541 0.94459 0.0
C564 C 0.44514 0.24481 0.03273 0.0
C565 C 0.44712 0.22019 0.06858 0.0
H566 H 0.44365 0.26192 0.94616 0.0
H567 H 0.44539 0.26725 0.05142 0.0
S568 S 0.45221 0.14364 0.01884 0.0
N569 N 0.45237 0.16368 0.95828 0.0
N570 N 0.44877 0.1665 0.07235 0.0
C571 C 0.44777 0.19215 0.04183 0.0
C572 C 0.44892 0.19021 0.9799 0.0
C573 C 0.25055 0.45069 0.47626 0.0
C574 C 0.22493 0.45039 0.43993 0.0
C575 C 0.24763 0.45049 0.53703 0.0
C576 C 0.2195 0.45099 0.5638 0.0
H577 H 0.27376 0.45248 0.45784 0.0
H578 H 0.26817 0.45116 0.56329 0.0
S579 S 0.14508 0.44957 0.48797 0.0
N580 N 0.16923 0.44783 0.43502 0.0
N581 N 0.1656 0.45148 0.54892 0.0
C582 C 0.19343 0.45014 0.52793 0.0
C583 C 0.19576 0.44896 0.46611 0.0
C584 C 0.78778 0.21438 0.97767 0.0
C585 C 0.77213 0.23007 0.94633 0.0
C586 C 0.78647 0.21296 0.03875 0.0
C587 C 0.76893 0.22663 0.07021 0.0
H588 H 0.80118 0.20324 0.95479 0.0
H589 H 0.79914 0.20101 0.0615 0.0
S590 S 0.72368 0.2703 0.00849 0.0
N591 N 0.73978 0.26071 0.95136 0.0
N592 N 0.73485 0.25548 0.06549 0.0
C593 C 0.75292 0.24205 0.03926 0.0
C594 C 0.75503 0.24431 0.97743 0.0
C595 C 0.51352 0.7562 0.54067 0.0
C596 C 0.54474 0.77161 0.5722 0.0
C597 C 0.51353 0.75772 0.47985 0.0
C598 C 0.54478 0.77441 0.44845 0.0
H599 H 0.48887 0.74258 0.56319 0.0
H600 H 0.48888 0.74591 0.45723 0.0
S601 S 0.63346 0.81866 0.51053 0.0
N602 N 0.60766 0.80452 0.56794 0.0
N603 N 0.60772 0.80629 0.453 0.0
C604 C 0.57619 0.7898 0.47936 0.0
C605 C 0.57616 0.78862 0.54144 0.0
C606 C 0.22812 0.59854 0.24114 0.0
C607 C 0.2024 0.56971 0.21049 0.0
C608 C 0.22782 0.62969 0.24396 0.0
C609 C 0.20148 0.63339 0.21717 0.0
H610 H 0.24953 0.59762 0.26179 0.0
H611 H 0.24876 0.65127 0.26697 0.0
S612 S 0.12642 0.56533 0.13541 0.0
N613 N 0.14868 0.54639 0.15512 0.0
N614 N 0.14784 0.60522 0.16167 0.0
C615 C 0.17464 0.60449 0.18859 0.0
C616 C 0.17519 0.57263 0.18488 0.0
C617 C 0.60364 0.18682 0.67586 0.0
C618 C 0.63324 0.2105 0.70729 0.0
C619 C 0.57213 0.18669 0.68149 0.0
C620 C 0.5696 0.21098 0.7173 0.0
H621 H 0.60493 0.16849 0.64638 0.0
H622 H 0.55 0.1683 0.65612 0.0
S623 S 0.6393 0.27811 0.80941 0.0
N624 N 0.6576 0.25825 0.77682 0.0
N625 N 0.59886 0.25856 0.7859 0.0
C626 C 0.59884 0.23446 0.74946 0.0
C627 C 0.63056 0.23407 0.74487 0.0
C628 C 0.39959 0.62894 0.24579 0.0
C629 C 0.42728 0.63137 0.21248 0.0
C630 C 0.3677 0.59812 0.24829 0.0
C631 C 0.36238 0.5682 0.21874 0.0
H632 H 0.40199 0.65142 0.26836 0.0
H633 H 0.34691 0.59784 0.27326 0.0
S634 S 0.42702 0.55998 0.12866 0.0
N635 N 0.44768 0.60077 0.15094 0.0
N636 N 0.38776 0.54224 0.15729 0.0
C637 C 0.39017 0.56969 0.18725 0.0
C638 C 0.42259 0.60144 0.18362 0.0
C639 C 0.75489 0.35882 0.726 0.0
C640 C 0.78522 0.35746 0.71467 0.0
C641 C 0.75481 0.39017 0.72406 0.0
C642 C 0.78496 0.42161 0.71 0.0
H643 H 0.73087 0.33549 0.73694 0.0
H644 H 0.73059 0.38952 0.73296 0.0
S645 S 0.87147 0.4325 0.67721 0.0
N646 N 0.84656 0.39053 0.68957 0.0
N647 N 0.84619 0.44955 0.68522 0.0
C648 C 0.81557 0.42078 0.6986 0.0
C649 C 0.81577 0.38874 0.70118 0.0
C650 C 0.39184 0.81145 0.19505 0.0
C651 C 0.36025 0.78211 0.21065 0.0
C652 C 0.42333 0.81152 0.20034 0.0
C653 C 0.4242 0.78195 0.22005 0.0
H654 H 0.39226 0.83454 0.17897 0.0
H655 H 0.44708 0.83473 0.18793 0.0
S656 S 0.34817 0.69802 0.26463 0.0
N657 N 0.33162 0.72255 0.24598 0.0
N658 N 0.39041 0.72246 0.25499 0.0
C659 C 0.39264 0.75237 0.23543 0.0
C660 C 0.36078 0.75252 0.23099 0.0
C661 C 0.60396 0.42581 0.6837 0.0
C662 C 0.62923 0.43092 0.72522 0.0
C663 C 0.57318 0.3936 0.67906 0.0
C664 C 0.56657 0.36578 0.7164 0.0
H665 H 0.60888 0.44606 0.65256 0.0
H666 H 0.55511 0.39011 0.6446 0.0
S667 S 0.62351 0.36835 0.83722 0.0
N668 N 0.64483 0.4072 0.80724 0.0
N669 N 0.58707 0.34717 0.8 0.0
C670 C 0.59086 0.37172 0.76075 0.0
C671 C 0.62222 0.40417 0.7647 0.0
C672 C 0.38566 0.81525 0.81932 0.0
C673 C 0.35742 0.78771 0.79041 0.0
C674 C 0.41724 0.8156 0.82615 0.0
C675 C 0.42187 0.78895 0.80284 0.0
H676 H 0.38295 0.83602 0.83851 0.0
H677 H 0.43805 0.83671 0.85012 0.0
S678 S 0.35628 0.71175 0.72113 0.0
N679 N 0.33646 0.73366 0.737 0.0
N680 N 0.39563 0.7346 0.74867 0.0
C681 C 0.39411 0.76187 0.77224 0.0
C682 C 0.36193 0.76118 0.76633 0.0
C683 C 0.56919 0.3867 0.32302 0.0
C684 C 0.56458 0.36114 0.28243 0.0
C685 C 0.60119 0.41769 0.32763 0.0
C686 C 0.62931 0.42426 0.29112 0.0
H687 H 0.54864 0.38194 0.35335 0.0
H688 H 0.60422 0.43604 0.36131 0.0
S689 S 0.62798 0.36668 0.17239 0.0
N690 N 0.58904 0.34523 0.20193 0.0
N691 N 0.64869 0.40341 0.20902 0.0
C692 C 0.62389 0.39961 0.24769 0.0
C693 C 0.59165 0.36802 0.24382 0.0
C694 C 0.22618 0.59695 0.76145 0.0
C695 C 0.20064 0.56655 0.78852 0.0
C696 C 0.22549 0.62789 0.76491 0.0
C697 C 0.19953 0.63005 0.79656 0.0
H698 H 0.24729 0.59703 0.7378 0.0
H699 H 0.24639 0.65061 0.74416 0.0
S700 S 0.1252 0.55707 0.87232 0.0
N701 N 0.14734 0.53964 0.84505 0.0
N702 N 0.14637 0.59836 0.85286 0.0
C703 C 0.17307 0.59953 0.82235 0.0
C704 C 0.1735 0.56764 0.81792 0.0
C705 C 0.60227 0.23512 0.27754 0.0
C706 C 0.5727 0.20748 0.30358 0.0
C707 C 0.63378 0.23542 0.27514 0.0
C708 C 0.637 0.2078 0.29766 0.0
H709 H 0.60145 0.25731 0.26001 0.0
H710 H 0.65582 0.25755 0.25526 0.0
S711 S 0.56722 0.12845 0.36819 0.0
N712 N 0.54848 0.15133 0.35137 0.0
N713 N 0.60776 0.1515 0.34555 0.0
C714 C 0.60751 0.17951 0.32251 0.0
C715 C 0.57539 0.17948 0.3259 0.0
C716 C 0.39595 0.63659 0.7727 0.0
C717 C 0.42634 0.63957 0.79684 0.0
C718 C 0.36461 0.60512 0.77409 0.0
C719 C 0.36214 0.57546 0.80076 0.0
H720 H 0.39635 0.65875 0.75228 0.0
H721 H 0.34192 0.6044 0.75537 0.0
S722 S 0.43425 0.56942 0.86989 0.0
N723 N 0.45231 0.61001 0.84713 0.0
N724 N 0.39295 0.55091 0.85113 0.0
C725 C 0.39234 0.57795 0.82483 0.0
C726 C 0.42455 0.60996 0.82243 0.0
C727 C 0.76466 0.36614 0.2726 0.0
C728 C 0.79026 0.36441 0.30607 0.0
C729 C 0.76367 0.39693 0.26778 0.0
C730 C 0.78865 0.42754 0.29515 0.0
H731 H 0.74435 0.34321 0.25135 0.0
H732 H 0.74298 0.39667 0.24251 0.0
S733 S 0.8625 0.43774 0.38477 0.0
N734 N 0.84201 0.39643 0.36544 0.0
N735 N 0.84069 0.45484 0.35491 0.0
C736 C 0.81523 0.4267 0.32696 0.0
C737 C 0.81586 0.395 0.33287 0.0
loop_
_geom_bond_atom_site_label_1
_geom_bond_atom_site_label_2
_geom_bond_distance
_geom_bond_site_symmetry_2
_ccdc_geom_bond_type
Co0 O3 1.970 . S
Co0 N17 1.989 . S
Co0 O25 1.967 . S
Co0 O32 1.920 . S
Co1 O4 1.966 . S
Co1 N10 2.022 . S
Co1 N18 1.993 . S
Co1 O26 1.941 . S
C2 O3 1.258 . S
C2 O4 1.263 . S
O3 Co0 1.970 . S
O3 C2 1.258 . S
O4 Co1 1.966 . S
O4 C2 1.263 . S
C5 O6 1.235 . S
C5 O32 1.289 . S
O6 C5 1.235 . S
C7 C9 1.400 . S
C7 N10 1.351 . S
C7 C12 1.501 . S
C8 C9 1.387 . S
C8 N11 1.341 . S
C9 C7 1.400 . S
C9 C8 1.387 . S
N10 Co1 2.022 . S
N10 C7 1.351 . S
N10 N11 1.365 . S
N11 C8 1.341 . S
N11 N10 1.365 . S
N11 H31 0.862 . S
C12 C7 1.501 . S
C12 H13 0.961 . S
C12 H14 0.961 . S
C12 H15 0.960 . S
H13 C12 0.961 . S
H14 C12 0.961 . S
H15 C12 0.960 . S
C16 N17 1.342 . S
C16 C20 1.401 . S
C16 C21 1.499 . S
N17 Co0 1.989 . S
N17 C16 1.342 . S
N17 N18 1.388 . S
N18 Co1 1.993 . S
N18 N17 1.388 . S
N18 C19 1.346 . S
C19 N18 1.346 . S
C19 C20 1.396 . S
C19 C29 1.510 . S
C20 C16 1.401 . S
C20 C19 1.396 . S
C21 C16 1.499 . S
C21 H22 0.959 . S
C21 H23 0.960 . S
C21 H24 0.961 . S
H22 C21 0.959 . S
H23 C21 0.960 . S
H24 C21 0.961 . S
O25 Co0 1.967 . S
O25 C33 1.258 . S
O26 Co1 1.941 . S
O26 C33 1.266 . S
H27 C29 0.959 . S
H28 C29 0.961 . S
C29 C19 1.510 . S
C29 H27 0.959 . S
C29 H28 0.961 . S
C29 H30 0.960 . S
H30 C29 0.960 . S
H31 N11 0.862 . S
O32 Co0 1.920 . S
O32 C5 1.289 . S
C33 O25 1.258 . S
C33 O26 1.266 . S
Co34 O37 1.970 . S
Co34 N51 1.989 . S
Co34 O59 1.967 . S
Co34 O66 1.920 . S
Co35 O38 1.966 . S
Co35 N44 2.022 . S
Co35 N52 1.993 . S
Co35 O60 1.941 . S
C36 O37 1.258 . S
C36 O38 1.263 . S
O37 Co34 1.970 . S
O37 C36 1.258 . S
O38 Co35 1.966 . S
O38 C36 1.263 . S
C39 O40 1.235 . S
C39 O66 1.289 . S
O40 C39 1.235 . S
C41 C43 1.400 . S
C41 N44 1.351 . S
C41 C46 1.501 . S
C42 C43 1.387 . S
C42 N45 1.341 . S
C43 C41 1.400 . S
C43 C42 1.387 . S
N44 Co35 2.022 . S
N44 C41 1.351 . S
N44 N45 1.365 . S
N45 C42 1.341 . S
N45 N44 1.365 . S
N45 H65 0.862 . S
C46 C41 1.501 . S
C46 H47 0.961 . S
C46 H48 0.961 . S
C46 H49 0.960 . S
H47 C46 0.961 . S
H48 C46 0.961 . S
H49 C46 0.960 . S
C50 N51 1.342 . S
C50 C54 1.401 . S
C50 C55 1.499 . S
N51 Co34 1.989 . S
N51 C50 1.342 . S
N51 N52 1.388 . S
N52 Co35 1.993 . S
N52 N51 1.388 . S
N52 C53 1.346 . S
C53 N52 1.346 . S
C53 C54 1.396 . S
C53 C63 1.510 . S
C54 C50 1.401 . S
C54 C53 1.396 . S
C55 C50 1.499 . S
C55 H56 0.959 . S
C55 H57 0.960 . S
C55 H58 0.961 . S
H56 C55 0.959 . S
H57 C55 0.960 . S
H58 C55 0.961 . S
O59 Co34 1.967 . S
O59 C67 1.258 . S
O60 Co35 1.941 . S
O60 C67 1.266 . S
H61 C63 0.959 . S
H62 C63 0.961 . S
C63 C53 1.510 . S
C63 H61 0.959 . S
C63 H62 0.961 . S
C63 H64 0.960 . S
H64 C63 0.960 . S
H65 N45 0.862 . S
O66 Co34 1.920 . S
O66 C39 1.289 . S
C67 O59 1.258 . S
C67 O60 1.266 . S
Co68 O71 1.970 . S
Co68 N85 1.989 . S
Co68 O93 1.967 . S
Co68 O100 1.920 . S
Co69 O72 1.966 . S
Co69 N78 2.022 . S
Co69 N86 1.993 . S
Co69 O94 1.941 . S
C70 O71 1.258 . S
C70 O72 1.263 . S
O71 Co68 1.970 . S
O71 C70 1.258 . S
O72 Co69 1.966 . S
O72 C70 1.263 . S
C73 O74 1.235 . S
C73 O100 1.289 . S
O74 C73 1.235 . S
C75 C77 1.400 . S
C75 N78 1.351 . S
C75 C80 1.501 . S
C76 C77 1.387 . S
C76 N79 1.341 . S
C77 C75 1.400 . S
C77 C76 1.387 . S
N78 Co69 2.022 . S
N78 C75 1.351 . S
N78 N79 1.365 . S
N79 C76 1.341 . S
N79 N78 1.365 . S
N79 H99 0.862 . S
C80 C75 1.501 . S
C80 H81 0.961 . S
C80 H82 0.961 . S
C80 H83 0.960 . S
H81 C80 0.961 . S
H82 C80 0.961 . S
H83 C80 0.960 . S
C84 N85 1.342 . S
C84 C88 1.401 . S
C84 C89 1.499 . S
N85 Co68 1.989 . S
N85 C84 1.342 . S
N85 N86 1.388 . S
N86 Co69 1.993 . S
N86 N85 1.388 . S
N86 C87 1.346 . S
C87 N86 1.346 . S
C87 C88 1.396 . S
C87 C97 1.510 . S
C88 C84 1.401 . S
C88 C87 1.396 . S
C89 C84 1.499 . S
C89 H90 0.959 . S
C89 H91 0.960 . S
C89 H92 0.961 . S
H90 C89 0.959 . S
H91 C89 0.960 . S
H92 C89 0.961 . S
O93 Co68 1.967 . S
O93 C101 1.258 . S
O94 Co69 1.941 . S
O94 C101 1.266 . S
H95 C97 0.959 . S
H96 C97 0.961 . S
C97 C87 1.510 . S
C97 H95 0.959 . S
C97 H96 0.961 . S
C97 H98 0.960 . S
H98 C97 0.960 . S
H99 N79 0.862 . S
O100 Co68 1.920 . S
O100 C73 1.289 . S
C101 O93 1.258 . S
C101 O94 1.266 . S
Co102 O105 1.970 . S
Co102 N119 1.989 . S
Co102 O127 1.967 . S
Co102 O134 1.920 . S
Co103 O106 1.966 . S
Co103 N112 2.022 . S
Co103 N120 1.993 . S
Co103 O128 1.941 . S
C104 O105 1.258 . S
C104 O106 1.263 . S
O105 Co102 1.970 . S
O105 C104 1.258 . S
O106 Co103 1.966 . S
O106 C104 1.263 . S
C107 O108 1.235 . S
C107 O134 1.289 . S
O108 C107 1.235 . S
C109 C111 1.400 . S
C109 N112 1.351 . S
C109 C114 1.501 . S
C110 C111 1.387 . S
C110 N113 1.341 . S
C111 C109 1.400 . S
C111 C110 1.387 . S
N112 Co103 2.022 . S
N112 C109 1.351 . S
N112 N113 1.365 . S
N113 C110 1.341 . S
N113 N112 1.365 . S
N113 H133 0.862 . S
C114 C109 1.501 . S
C114 H115 0.961 . S
C114 H116 0.961 . S
C114 H117 0.960 . S
H115 C114 0.961 . S
H116 C114 0.961 . S
H117 C114 0.960 . S
C118 N119 1.342 . S
C118 C122 1.401 . S
C118 C123 1.499 . S
N119 Co102 1.989 . S
N119 C118 1.342 . S
N119 N120 1.388 . S
N120 Co103 1.993 . S
N120 N119 1.388 . S
N120 C121 1.346 . S
C121 N120 1.346 . S
C121 C122 1.396 . S
C121 C131 1.510 . S
C122 C118 1.401 . S
C122 C121 1.396 . S
C123 C118 1.499 . S
C123 H124 0.959 . S
C123 H125 0.960 . S
C123 H126 0.961 . S
H124 C123 0.959 . S
H125 C123 0.960 . S
H126 C123 0.961 . S
O127 Co102 1.967 . S
O127 C135 1.258 . S
O128 Co103 1.941 . S
O128 C135 1.266 . S
H129 C131 0.959 . S
H130 C131 0.961 . S
C131 C121 1.510 . S
C131 H129 0.959 . S
C131 H130 0.961 . S
C131 H132 0.960 . S
H132 C131 0.960 . S
H133 N113 0.862 . S
O134 Co102 1.920 . S
O134 C107 1.289 . S
C135 O127 1.258 . S
C135 O128 1.266 . S
Co136 O139 1.970 . S
Co136 N153 1.989 . S
Co136 O161 1.967 . S
Co136 O168 1.920 . S
Co137 O140 1.966 . S
Co137 N146 2.022 . S
Co137 N154 1.993 . S
Co137 O162 1.941 . S
C138 O139 1.258 . S
C138 O140 1.263 . S
O139 Co136 1.970 . S
O139 C138 1.258 . S
O140 Co137 1.966 . S
O140 C138 1.263 . S
C141 O142 1.235 . S
C141 O168 1.289 . S
O142 C141 1.235 . S
C143 C145 1.400 . S
C143 N146 1.351 . S
C143 C148 1.501 . S
C144 C145 1.387 . S
C144 N147 1.341 . S
C145 C143 1.400 . S
C145 C144 1.387 . S
N146 Co137 2.022 . S
N146 C143 1.351 . S
N146 N147 1.365 . S
N147 C144 1.341 . S
N147 N146 1.365 . S
N147 H167 0.862 . S
C148 C143 1.501 . S
C148 H149 0.961 . S
C148 H150 0.961 . S
C148 H151 0.960 . S
H149 C148 0.961 . S
H150 C148 0.961 . S
H151 C148 0.960 . S
C152 N153 1.342 . S
C152 C156 1.401 . S
C152 C157 1.499 . S
N153 Co136 1.989 . S
N153 C152 1.342 . S
N153 N154 1.388 . S
N154 Co137 1.993 . S
N154 N153 1.388 . S
N154 C155 1.346 . S
C155 N154 1.346 . S
C155 C156 1.396 . S
C155 C165 1.510 . S
C156 C152 1.401 . S
C156 C155 1.396 . S
C157 C152 1.499 . S
C157 H158 0.959 . S
C157 H159 0.960 . S
C157 H160 0.961 . S
H158 C157 0.959 . S
H159 C157 0.960 . S
H160 C157 0.961 . S
O161 Co136 1.967 . S
O161 C169 1.258 . S
O162 Co137 1.941 . S
O162 C169 1.266 . S
H163 C165 0.959 . S
H164 C165 0.961 . S
C165 C155 1.510 . S
C165 H163 0.959 . S
C165 H164 0.961 . S
C165 H166 0.960 . S
H166 C165 0.960 . S
H167 N147 0.862 . S
O168 Co136 1.920 . S
O168 C141 1.289 . S
C169 O161 1.258 . S
C169 O162 1.266 . S
Co170 O173 1.970 . S
Co170 N187 1.989 . S
Co170 O195 1.967 . S
Co170 O202 1.920 . S
Co171 O174 1.966 . S
Co171 N180 2.022 . S
Co171 N188 1.993 . S
Co171 O196 1.941 . S
C172 O173 1.258 . S
C172 O174 1.263 . S
O173 Co170 1.970 . S
O173 C172 1.258 . S
O174 Co171 1.966 . S
O174 C172 1.263 . S
C175 O176 1.235 . S
C175 O202 1.289 . S
O176 C175 1.235 . S
C177 C179 1.400 . S
C177 N180 1.351 . S
C177 C182 1.501 . S
C178 C179 1.387 . S
C178 N181 1.341 . S
C179 C177 1.400 . S
C179 C178 1.387 . S
N180 Co171 2.022 . S
N180 C177 1.351 . S
N180 N181 1.365 . S
N181 C178 1.341 . S
N181 N180 1.365 . S
N181 H201 0.862 . S
C182 C177 1.501 . S
C182 H183 0.961 . S
C182 H184 0.961 . S
C182 H185 0.960 . S
H183 C182 0.961 . S
H184 C182 0.961 . S
H185 C182 0.960 . S
C186 N187 1.342 . S
C186 C190 1.401 . S
C186 C191 1.499 . S
N187 Co170 1.989 . S
N187 C186 1.342 . S
N187 N188 1.388 . S
N188 Co171 1.993 . S
N188 N187 1.388 . S
N188 C189 1.346 . S
C189 N188 1.346 . S
C189 C190 1.396 . S
C189 C199 1.510 . S
C190 C186 1.401 . S
C190 C189 1.396 . S
C191 C186 1.499 . S
C191 H192 0.959 . S
C191 H193 0.960 . S
C191 H194 0.961 . S
H192 C191 0.959 . S
H193 C191 0.960 . S
H194 C191 0.961 . S
O195 Co170 1.967 . S
O195 C203 1.258 . S
O196 Co171 1.941 . S
O196 C203 1.266 . S
H197 C199 0.959 . S
H198 C199 0.961 . S
C199 C189 1.510 . S
C199 H197 0.959 . S
C199 H198 0.961 . S
C199 H200 0.960 . S
H200 C199 0.960 . S
H201 N181 0.862 . S
O202 Co170 1.920 . S
O202 C175 1.289 . S
C203 O195 1.258 . S
C203 O196 1.266 . S
Co204 O207 1.970 . S
Co204 N221 1.989 . S
Co204 O229 1.967 . S
Co204 O236 1.920 . S
Co205 O208 1.966 . S
Co205 N214 2.022 . S
Co205 N222 1.993 . S
Co205 O230 1.941 . S
C206 O207 1.258 . S
C206 O208 1.263 . S
O207 Co204 1.970 . S
O207 C206 1.258 . S
O208 Co205 1.966 . S
O208 C206 1.263 . S
C209 O210 1.235 . S
C209 O236 1.289 . S
O210 C209 1.235 . S
C211 C213 1.400 . S
C211 N214 1.351 . S
C211 C216 1.501 . S
C212 C213 1.387 . S
C212 N215 1.341 . S
C213 C211 1.400 . S
C213 C212 1.387 . S
N214 Co205 2.022 . S
N214 C211 1.351 . S
N214 N215 1.365 . S
N215 C212 1.341 . S
N215 N214 1.365 . S
N215 H235 0.862 . S
C216 C211 1.501 . S
C216 H217 0.961 . S
C216 H218 0.961 . S
C216 H219 0.960 . S
H217 C216 0.961 . S
H218 C216 0.961 . S
H219 C216 0.960 . S
C220 N221 1.342 . S
C220 C224 1.401 . S
C220 C225 1.499 . S
N221 Co204 1.989 . S
N221 C220 1.342 . S
N221 N222 1.388 . S
N222 Co205 1.993 . S
N222 N221 1.388 . S
N222 C223 1.346 . S
C223 N222 1.346 . S
C223 C224 1.396 . S
C223 C233 1.510 . S
C224 C220 1.401 . S
C224 C223 1.396 . S
C225 C220 1.499 . S
C225 H226 0.959 . S
C225 H227 0.960 . S
C225 H228 0.961 . S
H226 C225 0.959 . S
H227 C225 0.960 . S
H228 C225 0.961 . S
O229 Co204 1.967 . S
O229 C237 1.258 . S
O230 Co205 1.941 . S
O230 C237 1.266 . S
H231 C233 0.959 . S
H232 C233 0.961 . S
C233 C223 1.510 . S
C233 H231 0.959 . S
C233 H232 0.961 . S
C233 H234 0.960 . S
H234 C233 0.960 . S
H235 N215 0.862 . S
O236 Co204 1.920 . S
O236 C209 1.289 . S
C237 O229 1.258 . S
C237 O230 1.266 . S
Co238 O241 1.970 . S
Co238 N255 1.989 . S
Co238 O263 1.967 . S
Co238 O270 1.920 . S
Co239 O242 1.966 . S
Co239 N248 2.022 . S
Co239 N256 1.993 . S
Co239 O264 1.941 . S
C240 O241 1.258 . S
C240 O242 1.263 . S
O241 Co238 1.970 . S
O241 C240 1.258 . S
O242 Co239 1.966 . S
O242 C240 1.263 . S
C243 O244 1.235 . S
C243 O270 1.289 . S
O244 C243 1.235 . S
C245 C247 1.400 . S
C245 N248 1.351 . S
C245 C250 1.501 . S
C246 C247 1.387 . S
C246 N249 1.341 . S
C247 C245 1.400 . S
C247 C246 1.387 . S
N248 Co239 2.022 . S
N248 C245 1.351 . S
N248 N249 1.365 . S
N249 C246 1.341 . S
N249 N248 1.365 . S
N249 H269 0.862 . S
C250 C245 1.501 . S
C250 H251 0.961 . S
C250 H252 0.961 . S
C250 H253 0.960 . S
H251 C250 0.961 . S
H252 C250 0.961 . S
H253 C250 0.960 . S
C254 N255 1.342 . S
C254 C258 1.401 . S
C254 C259 1.499 . S
N255 Co238 1.989 . S
N255 C254 1.342 . S
N255 N256 1.388 . S
N256 Co239 1.993 . S
N256 N255 1.388 . S
N256 C257 1.346 . S
C257 N256 1.346 . S
C257 C258 1.396 . S
C257 C267 1.510 . S
C258 C254 1.401 . S
C258 C257 1.396 . S
C259 C254 1.499 . S
C259 H260 0.959 . S
C259 H261 0.960 . S
C259 H262 0.961 . S
H260 C259 0.959 . S
H261 C259 0.960 . S
H262 C259 0.961 . S
O263 Co238 1.967 . S
O263 C271 1.258 . S
O264 Co239 1.941 . S
O264 C271 1.266 . S
H265 C267 0.959 . S
H266 C267 0.961 . S
C267 C257 1.510 . S
C267 H265 0.959 . S
C267 H266 0.961 . S
C267 H268 0.960 . S
H268 C267 0.960 . S
H269 N249 0.862 . S
O270 Co238 1.920 . S
O270 C243 1.289 . S
C271 O263 1.258 . S
C271 O264 1.266 . S
Co272 O275 1.970 . S
Co272 N289 1.989 . S
Co272 O297 1.967 . S
Co272 O304 1.920 . S
Co273 O276 1.966 . S
Co273 N282 2.022 . S
Co273 N290 1.993 . S
Co273 O298 1.941 . S
C274 O275 1.258 . S
C274 O276 1.263 . S
O275 Co272 1.970 . S
O275 C274 1.258 . S
O276 Co273 1.966 . S
O276 C274 1.263 . S
C277 O278 1.235 . S
C277 O304 1.289 . S
O278 C277 1.235 . S
C279 C281 1.400 . S
C279 N282 1.351 . S
C279 C284 1.501 . S
C280 C281 1.387 . S
C280 N283 1.341 . S
C281 C279 1.400 . S
C281 C280 1.387 . S
N282 Co273 2.022 . S
N282 C279 1.351 . S
N282 N283 1.365 . S
N283 C280 1.341 . S
N283 N282 1.365 . S
N283 H303 0.862 . S
C284 C279 1.501 . S
C284 H285 0.961 . S
C284 H286 0.961 . S
C284 H287 0.960 . S
H285 C284 0.961 . S
H286 C284 0.961 . S
H287 C284 0.960 . S
C288 N289 1.342 . S
C288 C292 1.401 . S
C288 C293 1.499 . S
N289 Co272 1.989 . S
N289 C288 1.342 . S
N289 N290 1.388 . S
N290 Co273 1.993 . S
N290 N289 1.388 . S
N290 C291 1.346 . S
C291 N290 1.346 . S
C291 C292 1.396 . S
C291 C301 1.510 . S
C292 C288 1.401 . S
C292 C291 1.396 . S
C293 C288 1.499 . S
C293 H294 0.959 . S
C293 H295 0.960 . S
C293 H296 0.961 . S
H294 C293 0.959 . S
H295 C293 0.960 . S
H296 C293 0.961 . S
O297 Co272 1.967 . S
O297 C305 1.258 . S
O298 Co273 1.941 . S
O298 C305 1.266 . S
H299 C301 0.959 . S
H300 C301 0.961 . S
C301 C291 1.510 . S
C301 H299 0.959 . S
C301 H300 0.961 . S
C301 H302 0.960 . S
H302 C301 0.960 . S
H303 N283 0.862 . S
O304 Co272 1.920 . S
O304 C277 1.289 . S
C305 O297 1.258 . S
C305 O298 1.266 . S
Co306 O309 1.970 . S
Co306 N323 1.989 . S
Co306 O331 1.967 . S
Co306 O338 1.920 . S
Co307 O310 1.966 . S
Co307 N316 2.022 . S
Co307 N324 1.993 . S
Co307 O332 1.941 . S
C308 O309 1.258 . S
C308 O310 1.263 . S
O309 Co306 1.970 . S
O309 C308 1.258 . S
O310 Co307 1.966 . S
O310 C308 1.263 . S
C311 O312 1.235 . S
C311 O338 1.289 . S
O312 C311 1.235 . S
C313 C315 1.400 . S
C313 N316 1.351 . S
C313 C318 1.501 . S
C314 C315 1.387 . S
C314 N317 1.341 . S
C315 C313 1.400 . S
C315 C314 1.387 . S
N316 Co307 2.022 . S
N316 C313 1.351 . S
N316 N317 1.365 . S
N317 C314 1.341 . S
N317 N316 1.365 . S
N317 H337 0.862 . S
C318 C313 1.501 . S
C318 H319 0.961 . S
C318 H320 0.961 . S
C318 H321 0.960 . S
H319 C318 0.961 . S
H320 C318 0.961 . S
H321 C318 0.960 . S
C322 N323 1.342 . S
C322 C326 1.401 . S
C322 C327 1.499 . S
N323 Co306 1.989 . S
N323 C322 1.342 . S
N323 N324 1.388 . S
N324 Co307 1.993 . S
N324 N323 1.388 . S
N324 C325 1.346 . S
C325 N324 1.346 . S
C325 C326 1.396 . S
C325 C335 1.510 . S
C326 C322 1.401 . S
C326 C325 1.396 . S
C327 C322 1.499 . S
C327 H328 0.959 . S
C327 H329 0.960 . S
C327 H330 0.961 . S
H328 C327 0.959 . S
H329 C327 0.960 . S
H330 C327 0.961 . S
O331 Co306 1.967 . S
O331 C339 1.258 . S
O332 Co307 1.941 . S
O332 C339 1.266 . S
H333 C335 0.959 . S
H334 C335 0.961 . S
C335 C325 1.510 . S
C335 H333 0.959 . S
C335 H334 0.961 . S
C335 H336 0.960 . S
H336 C335 0.960 . S
H337 N317 0.862 . S
O338 Co306 1.920 . S
O338 C311 1.289 . S
C339 O331 1.258 . S
C339 O332 1.266 . S
Co340 O343 1.970 . S
Co340 N357 1.989 . S
Co340 O365 1.967 . S
Co340 O372 1.920 . S
Co341 O344 1.966 . S
Co341 N350 2.022 . S
Co341 N358 1.993 . S
Co341 O366 1.941 . S
C342 O343 1.258 . S
C342 O344 1.263 . S
O343 Co340 1.970 . S
O343 C342 1.258 . S
O344 Co341 1.966 . S
O344 C342 1.263 . S
C345 O346 1.235 . S
C345 O372 1.289 . S
O346 C345 1.235 . S
C347 C349 1.400 . S
C347 N350 1.351 . S
C347 C352 1.501 . S
C348 C349 1.387 . S
C348 N351 1.341 . S
C349 C347 1.400 . S
C349 C348 1.387 . S
N350 Co341 2.022 . S
N350 C347 1.351 . S
N350 N351 1.365 . S
N351 C348 1.341 . S
N351 N350 1.365 . S
N351 H371 0.862 . S
C352 C347 1.501 . S
C352 H353 0.961 . S
C352 H354 0.961 . S
C352 H355 0.960 . S
H353 C352 0.961 . S
H354 C352 0.961 . S
H355 C352 0.960 . S
C356 N357 1.342 . S
C356 C360 1.401 . S
C356 C361 1.499 . S
N357 Co340 1.989 . S
N357 C356 1.342 . S
N357 N358 1.388 . S
N358 Co341 1.993 . S
N358 N357 1.388 . S
N358 C359 1.346 . S
C359 N358 1.346 . S
C359 C360 1.396 . S
C359 C369 1.510 . S
C360 C356 1.401 . S
C360 C359 1.396 . S
C361 C356 1.499 . S
C361 H362 0.959 . S
C361 H363 0.960 . S
C361 H364 0.961 . S
H362 C361 0.959 . S
H363 C361 0.960 . S
H364 C361 0.961 . S
O365 Co340 1.967 . S
O365 C373 1.258 . S
O366 Co341 1.941 . S
O366 C373 1.266 . S
H367 C369 0.959 . S
H368 C369 0.961 . S
C369 C359 1.510 . S
C369 H367 0.959 . S
C369 H368 0.961 . S
C369 H370 0.960 . S
H370 C369 0.960 . S
H371 N351 0.862 . S
O372 Co340 1.920 . S
O372 C345 1.289 . S
C373 O365 1.258 . S
C373 O366 1.266 . S
Co374 O377 1.970 . S
Co374 N391 1.989 . S
Co374 O399 1.967 . S
Co374 O406 1.920 . S
Co375 O378 1.966 . S
Co375 N384 2.022 . S
Co375 N392 1.993 . S
Co375 O400 1.941 . S
C376 O377 1.258 . S
C376 O378 1.263 . S
O377 Co374 1.970 . S
O377 C376 1.258 . S
O378 Co375 1.966 . S
O378 C376 1.263 . S
C379 O380 1.235 . S
C379 O406 1.289 . S
O380 C379 1.235 . S
C381 C383 1.400 . S
C381 N384 1.351 . S
C381 C386 1.501 . S
C382 C383 1.387 . S
C382 N385 1.341 . S
C383 C381 1.400 . S
C383 C382 1.387 . S
N384 Co375 2.022 . S
N384 C381 1.351 . S
N384 N385 1.365 . S
N385 C382 1.341 . S
N385 N384 1.365 . S
N385 H405 0.862 . S
C386 C381 1.501 . S
C386 H387 0.961 . S
C386 H388 0.961 . S
C386 H389 0.960 . S
H387 C386 0.961 . S
H388 C386 0.961 . S
H389 C386 0.960 . S
C390 N391 1.342 . S
C390 C394 1.401 . S
C390 C395 1.499 . S
N391 Co374 1.989 . S
N391 C390 1.342 . S
N391 N392 1.388 . S
N392 Co375 1.993 . S
N392 N391 1.388 . S
N392 C393 1.346 . S
C393 N392 1.346 . S
C393 C394 1.396 . S
C393 C403 1.510 . S
C394 C390 1.401 . S
C394 C393 1.396 . S
C395 C390 1.499 . S
C395 H396 0.959 . S
C395 H397 0.960 . S
C395 H398 0.961 . S
H396 C395 0.959 . S
H397 C395 0.960 . S
H398 C395 0.961 . S
O399 Co374 1.967 . S
O399 C407 1.258 . S
O400 Co375 1.941 . S
O400 C407 1.266 . S
H401 C403 0.959 . S
H402 C403 0.961 . S
C403 C393 1.510 . S
C403 H401 0.959 . S
C403 H402 0.961 . S
C403 H404 0.960 . S
H404 C403 0.960 . S
H405 N385 0.862 . S
O406 Co374 1.920 . S
O406 C379 1.289 . S
C407 O399 1.258 . S
C407 O400 1.266 . S
C408 C409 1.369 . S
C408 C410 1.419 . S
C408 H412 0.930 . S
C409 C408 1.369 . S
C409 C418 1.429 . S
C410 C408 1.419 . S
C410 C411 1.363 . S
C410 H413 0.929 . S
C411 C410 1.363 . S
C411 C417 1.428 . S
H412 C408 0.930 . S
H413 C410 0.929 . S
S414 N415 1.613 . S
S414 N416 1.610 . S
N415 S414 1.613 . S
N415 C418 1.350 . S
N416 S414 1.610 . S
N416 C417 1.351 . S
C417 C411 1.428 . S
C417 N416 1.351 . S
C417 C418 1.434 . S
C418 C409 1.429 . S
C418 N415 1.350 . S
C418 C417 1.434 . S
C419 C420 1.369 . S
C419 C421 1.419 1_655 S
C419 H423 0.930 . S
C420 C419 1.369 . S
C420 C429 1.429 . S
C421 C419 1.419 1_455 S
C421 C422 1.363 . S
C421 H424 0.929 . S
C422 C421 1.363 . S
C422 C428 1.428 . S
H423 C419 0.930 . S
H424 C421 0.929 . S
S425 N426 1.613 . S
S425 N427 1.610 1_655 S
N426 S425 1.613 . S
N426 C429 1.350 . S
N427 S425 1.610 1_455 S
N427 C428 1.351 . S
C428 C422 1.428 . S
C428 N427 1.351 . S
C428 C429 1.434 1_455 S
C429 C420 1.429 . S
C429 N426 1.350 . S
C429 C428 1.434 1_655 S
C430 C431 1.369 . S
C430 C432 1.419 1_545 S
C430 H434 0.930 . S
C431 C430 1.369 . S
C431 C440 1.429 . S
C432 C430 1.419 1_565 S
C432 C433 1.363 . S
C432 H435 0.929 . S
C433 C432 1.363 . S
C433 C439 1.428 . S
H434 C430 0.930 . S
H435 C432 0.929 . S
S436 N437 1.613 . S
S436 N438 1.610 1_545 S
N437 S436 1.613 . S
N437 C440 1.350 . S
N438 S436 1.610 1_565 S
N438 C439 1.351 . S
C439 C433 1.428 . S
C439 N438 1.351 . S
C439 C440 1.434 1_565 S
C440 C431 1.429 . S
C440 N437 1.350 . S
C440 C439 1.434 1_545 S
C441 C442 1.369 . S
C441 C443 1.419 . S
C441 H445 0.930 . S
C442 C441 1.369 . S
C442 C451 1.429 . S
C443 C441 1.419 . S
C443 C444 1.363 . S
C443 H446 0.929 . S
C444 C443 1.363 . S
C444 C450 1.428 . S
H445 C441 0.930 . S
H446 C443 0.929 . S
S447 N448 1.613 . S
S447 N449 1.610 . S
N448 S447 1.613 . S
N448 C451 1.350 . S
N449 S447 1.610 . S
N449 C450 1.351 . S
C450 C444 1.428 . S
C450 N449 1.351 . S
C450 C451 1.434 . S
C451 C442 1.429 . S
C451 N448 1.350 . S
C451 C450 1.434 . S
C452 C453 1.369 . S
C452 C454 1.419 1_455 S
C452 H456 0.930 . S
C453 C452 1.369 . S
C453 C462 1.429 . S
C454 C452 1.419 1_655 S
C454 C455 1.363 . S
C454 H457 0.929 . S
C455 C454 1.363 . S
C455 C461 1.428 . S
H456 C452 0.930 . S
H457 C454 0.929 . S
S458 N459 1.613 1_655 S
S458 N460 1.610 . S
N459 S458 1.613 1_455 S
N459 C462 1.350 . S
N460 S458 1.610 . S
N460 C461 1.351 . S
C461 C455 1.428 . S
C461 N460 1.351 . S
C461 C462 1.434 1_655 S
C462 C453 1.429 . S
C462 N459 1.350 . S
C462 C461 1.434 1_455 S
C463 C464 1.369 . S
C463 C465 1.419 1_565 S
C463 H467 0.930 . S
C464 C463 1.369 . S
C464 C473 1.429 . S
C465 C463 1.419 1_545 S
C465 C466 1.363 . S
C465 H468 0.929 . S
C466 C465 1.363 . S
C466 C472 1.428 . S
H467 C463 0.930 . S
H468 C465 0.929 . S
S469 N470 1.613 1_545 S
S469 N471 1.610 . S
N470 S469 1.613 1_565 S
N470 C473 1.350 . S
N471 S469 1.610 . S
N471 C472 1.351 . S
C472 C466 1.428 . S
C472 N471 1.351 . S
C472 C473 1.434 1_545 S
C473 C464 1.429 . S
C473 N470 1.350 . S
C473 C472 1.434 1_565 S
C474 C475 1.369 . S
C474 C476 1.419 1_556 S
C474 H478 0.930 . S
C475 C474 1.369 . S
C475 C484 1.429 . S
C476 C474 1.419 1_554 S
C476 C477 1.363 . S
C476 H479 0.929 . S
C477 C476 1.363 . S
C477 C483 1.428 . S
H478 C474 0.930 . S
H479 C476 0.929 . S
S480 N481 1.613 . S
S480 N482 1.610 1_556 S
N481 S480 1.613 . S
N481 C484 1.350 . S
N482 S480 1.610 1_554 S
N482 C483 1.351 . S
C483 C477 1.428 . S
C483 N482 1.351 . S
C483 C484 1.434 1_554 S
C484 C475 1.429 . S
C484 N481 1.350 . S
C484 C483 1.434 1_556 S
C485 C486 1.369 . S
C485 C487 1.419 . S
C485 H489 0.930 . S
C486 C485 1.369 . S
C486 C495 1.429 . S
C487 C485 1.419 . S
C487 C488 1.363 . S
C487 H490 0.929 . S
C488 C487 1.363 . S
C488 C494 1.428 . S
H489 C485 0.930 . S
H490 C487 0.929 . S
S491 N492 1.613 . S
S491 N493 1.610 . S
N492 S491 1.613 . S
N492 C495 1.350 . S
N493 S491 1.610 . S
N493 C494 1.351 . S
C494 C488 1.428 . S
C494 N493 1.351 . S
C494 C495 1.434 . S
C495 C486 1.429 . S
C495 N492 1.350 . S
C495 C494 1.434 . S
C496 C497 1.369 . S
C496 C498 1.419 1_554 S
C496 H500 0.930 . S
C497 C496 1.369 . S
C497 C506 1.429 . S
C498 C496 1.419 1_556 S
C498 C499 1.363 . S
C498 H501 0.929 . S
C499 C498 1.363 . S
C499 C505 1.428 . S
H500 C496 0.930 . S
H501 C498 0.929 . S
S502 N503 1.613 . S
S502 N504 1.610 1_554 S
N503 S502 1.613 . S
N503 C506 1.350 . S
N504 S502 1.610 1_556 S
N504 C505 1.351 . S
C505 C499 1.428 . S
C505 N504 1.351 . S
C505 C506 1.434 1_556 S
C506 C497 1.429 . S
C506 N503 1.350 . S
C506 C505 1.434 1_554 S
C507 C508 1.369 . S
C507 C509 1.419 . S
C507 H511 0.930 . S
C508 C507 1.369 . S
C508 C517 1.429 . S
C509 C507 1.419 . S
C509 C510 1.363 . S
C509 H512 0.929 . S
C510 C509 1.363 . S
C510 C516 1.428 . S
H511 C507 0.930 . S
H512 C509 0.929 . S
S513 N514 1.613 . S
S513 N515 1.610 . S
N514 S513 1.613 . S
N514 C517 1.350 . S
N515 S513 1.610 . S
N515 C516 1.351 . S
C516 C510 1.428 . S
C516 N515 1.351 . S
C516 C517 1.434 . S
C517 C508 1.429 . S
C517 N514 1.350 . S
C517 C516 1.434 . S
C518 C519 1.369 . S
C518 C520 1.419 1_556 S
C518 H522 0.930 . S
C519 C518 1.369 . S
C519 C528 1.429 . S
C520 C518 1.419 1_554 S
C520 C521 1.363 . S
C520 H523 0.929 . S
C521 C520 1.363 . S
C521 C527 1.428 . S
H522 C518 0.930 . S
H523 C520 0.929 . S
S524 N525 1.613 1_554 S
S524 N526 1.610 . S
N525 S524 1.613 1_556 S
N525 C528 1.350 . S
N526 S524 1.610 . S
N526 C527 1.351 . S
C527 C521 1.428 . S
C527 N526 1.351 . S
C527 C528 1.434 1_554 S
C528 C519 1.429 . S
C528 N525 1.350 . S
C528 C527 1.434 1_556 S
C529 C530 1.369 . S
C529 C531 1.419 . S
C529 H533 0.930 . S
C530 C529 1.369 . S
C530 C539 1.429 . S
C531 C529 1.419 . S
C531 C532 1.363 . S
C531 H534 0.929 . S
C532 C531 1.363 . S
C532 C538 1.428 . S
H533 C529 0.930 . S
H534 C531 0.929 . S
S535 N536 1.613 . S
S535 N537 1.610 . S
N536 S535 1.613 . S
N536 C539 1.350 . S
N537 S535 1.610 . S
N537 C538 1.351 . S
C538 C532 1.428 . S
C538 N537 1.351 . S
C538 C539 1.434 . S
C539 C530 1.429 . S
C539 N536 1.350 . S
C539 C538 1.434 . S
C540 C541 1.369 . S
C540 C542 1.419 1_554 S
C540 H544 0.930 . S
C541 C540 1.369 . S
C541 C550 1.429 . S
C542 C540 1.419 1_556 S
C542 C543 1.363 . S
C542 H545 0.929 . S
C543 C542 1.363 . S
C543 C549 1.428 . S
H544 C540 0.930 . S
H545 C542 0.929 . S
S546 N547 1.613 1_556 S
S546 N548 1.610 . S
N547 S546 1.613 1_554 S
N547 C550 1.350 . S
N548 S546 1.610 . S
N548 C549 1.351 . S
C549 C543 1.428 . S
C549 N548 1.351 . S
C549 C550 1.434 1_556 S
C550 C541 1.429 . S
C550 N547 1.350 . S
C550 C549 1.434 1_554 S
C551 C552 1.369 . S
C551 C553 1.419 . S
C551 H555 0.930 . S
C552 C551 1.369 . S
C552 C561 1.429 . S
C553 C551 1.419 . S
C553 C554 1.363 . S
C553 H556 0.929 . S
C554 C553 1.363 . S
C554 C560 1.428 . S
H555 C551 0.930 . S
H556 C553 0.929 . S
S557 N558 1.613 . S
S557 N559 1.610 . S
N558 S557 1.613 . S
N558 C561 1.350 . S
N559 S557 1.610 . S
N559 C560 1.351 . S
C560 C554 1.428 . S
C560 N559 1.351 . S
C560 C561 1.434 . S
C561 C552 1.429 . S
C561 N558 1.350 . S
C561 C560 1.434 . S
C562 C563 1.369 . S
C562 C564 1.419 1_556 S
C562 H566 0.930 . S
C563 C562 1.369 . S
C563 C572 1.429 . S
C564 C562 1.419 1_554 S
C564 C565 1.363 . S
C564 H567 0.929 . S
C565 C564 1.363 . S
C565 C571 1.428 . S
H566 C562 0.930 . S
H567 C564 0.929 . S
S568 N569 1.613 1_554 S
S568 N570 1.610 . S
N569 S568 1.613 1_556 S
N569 C572 1.350 . S
N570 S568 1.610 . S
N570 C571 1.351 . S
C571 C565 1.428 . S
C571 N570 1.351 . S
C571 C572 1.434 1_554 S
C572 C563 1.429 . S
C572 N569 1.350 . S
C572 C571 1.434 1_556 S
C573 C574 1.369 . S
C573 C575 1.419 . S
C573 H577 0.930 . S
C574 C573 1.369 . S
C574 C583 1.429 . S
C575 C573 1.419 . S
C575 C576 1.363 . S
C575 H578 0.929 . S
C576 C575 1.363 . S
C576 C582 1.428 . S
H577 C573 0.930 . S
H578 C575 0.929 . S
S579 N580 1.613 . S
S579 N581 1.610 . S
N580 S579 1.613 . S
N580 C583 1.350 . S
N581 S579 1.610 . S
N581 C582 1.351 . S
C582 C576 1.428 . S
C582 N581 1.351 . S
C582 C583 1.434 . S
C583 C574 1.429 . S
C583 N580 1.350 . S
C583 C582 1.434 . S
C584 C585 1.369 . S
C584 C586 1.419 1_556 S
C584 H588 0.930 . S
C585 C584 1.369 . S
C585 C594 1.429 . S
C586 C584 1.419 1_554 S
C586 C587 1.363 . S
C586 H589 0.929 . S
C587 C586 1.363 . S
C587 C593 1.428 . S
H588 C584 0.930 . S
H589 C586 0.929 . S
S590 N591 1.616 . S
S590 N592 1.607 1_556 S
N591 S590 1.616 . S
N591 C594 1.350 . S
N592 S590 1.607 1_554 S
N592 C593 1.351 . S
C593 C587 1.428 . S
C593 N592 1.351 . S
C593 C594 1.434 1_554 S
C594 C585 1.429 . S
C594 N591 1.350 . S
C594 C593 1.434 1_556 S
C595 C596 1.369 . S
C595 C597 1.419 . S
C595 H599 0.930 . S
C596 C595 1.369 . S
C596 C605 1.429 . S
C597 C595 1.419 . S
C597 C598 1.363 . S
C597 H600 0.929 . S
C598 C597 1.363 . S
C598 C604 1.428 . S
H599 C595 0.930 . S
H600 C597 0.929 . S
S601 N602 1.613 . S
S601 N603 1.610 . S
N602 S601 1.613 . S
N602 C605 1.350 . S
N603 S601 1.610 . S
N603 C604 1.351 . S
C604 C598 1.428 . S
C604 N603 1.351 . S
C604 C605 1.434 . S
C605 C596 1.429 . S
C605 N602 1.350 . S
C605 C604 1.434 . S
C606 C607 1.369 . S
C606 C608 1.419 . S
C606 H610 0.930 . S
C607 C606 1.369 . S
C607 C616 1.429 . S
C608 C606 1.419 . S
C608 C609 1.363 . S
C608 H611 0.929 . S
C609 C608 1.363 . S
C609 C615 1.428 . S
H610 C606 0.930 . S
H611 C608 0.929 . S
S612 N613 1.613 . S
S612 N614 1.610 . S
N613 S612 1.613 . S
N613 C616 1.350 . S
N614 S612 1.610 . S
N614 C615 1.351 . S
C615 C609 1.428 . S
C615 N614 1.351 . S
C615 C616 1.434 . S
C616 C607 1.429 . S
C616 N613 1.350 . S
C616 C615 1.434 . S
C617 C618 1.369 . S
C617 C619 1.419 . S
C617 H621 0.930 . S
C618 C617 1.369 . S
C618 C627 1.429 . S
C619 C617 1.419 . S
C619 C620 1.363 . S
C619 H622 0.929 . S
C620 C619 1.363 . S
C620 C626 1.428 . S
H621 C617 0.930 . S
H622 C619 0.929 . S
S623 N624 1.613 . S
S623 N625 1.610 . S
N624 S623 1.613 . S
N624 C627 1.350 . S
N625 S623 1.610 . S
N625 C626 1.351 . S
C626 C620 1.428 . S
C626 N625 1.351 . S
C626 C627 1.434 . S
C627 C618 1.429 . S
C627 N624 1.350 . S
C627 C626 1.434 . S
C628 C629 1.369 . S
C628 C630 1.419 . S
C628 H632 0.930 . S
C629 C628 1.369 . S
C629 C638 1.429 . S
C630 C628 1.419 . S
C630 C631 1.363 . S
C630 H633 0.929 . S
C631 C630 1.363 . S
C631 C637 1.428 . S
H632 C628 0.930 . S
H633 C630 0.929 . S
S634 N635 1.613 . S
S634 N636 1.610 . S
N635 S634 1.613 . S
N635 C638 1.350 . S
N636 S634 1.610 . S
N636 C637 1.351 . S
C637 C631 1.428 . S
C637 N636 1.351 . S
C637 C638 1.434 . S
C638 C629 1.429 . S
C638 N635 1.350 . S
C638 C637 1.434 . S
C639 C640 1.369 . S
C639 C641 1.419 . S
C639 H643 0.930 . S
C640 C639 1.369 . S
C640 C649 1.429 . S
C641 C639 1.419 . S
C641 C642 1.363 . S
C641 H644 0.929 . S
C642 C641 1.363 . S
C642 C648 1.428 . S
H643 C639 0.930 . S
H644 C641 0.929 . S
S645 N646 1.613 . S
S645 N647 1.610 . S
N646 S645 1.613 . S
N646 C649 1.350 . S
N647 S645 1.610 . S
N647 C648 1.351 . S
C648 C642 1.428 . S
C648 N647 1.351 . S
C648 C649 1.434 . S
C649 C640 1.429 . S
C649 N646 1.350 . S
C649 C648 1.434 . S
C650 C651 1.369 . S
C650 C652 1.419 . S
C650 H654 0.930 . S
C651 C650 1.369 . S
C651 C660 1.429 . S
C652 C650 1.419 . S
C652 C653 1.363 . S
C652 H655 0.929 . S
C653 C652 1.363 . S
C653 C659 1.428 . S
H654 C650 0.930 . S
H655 C652 0.929 . S
S656 N657 1.613 . S
S656 N658 1.610 . S
N657 S656 1.613 . S
N657 C660 1.350 . S
N658 S656 1.610 . S
N658 C659 1.351 . S
C659 C653 1.428 . S
C659 N658 1.351 . S
C659 C660 1.434 . S
C660 C651 1.429 . S
C660 N657 1.350 . S
C660 C659 1.434 . S
C661 C662 1.369 . S
C661 C663 1.419 . S
C661 H665 0.930 . S
C662 C661 1.369 . S
C662 C671 1.429 . S
C663 C661 1.419 . S
C663 C664 1.363 . S
C663 H666 0.929 . S
C664 C663 1.363 . S
C664 C670 1.428 . S
H665 C661 0.930 . S
H666 C663 0.929 . S
S667 N668 1.613 . S
S667 N669 1.610 . S
N668 S667 1.613 . S
N668 C671 1.350 . S
N669 S667 1.610 . S
N669 C670 1.351 . S
C670 C664 1.428 . S
C670 N669 1.351 . S
C670 C671 1.434 . S
C671 C662 1.429 . S
C671 N668 1.350 . S
C671 C670 1.434 . S
C672 C673 1.369 . S
C672 C674 1.419 . S
C672 H676 0.930 . S
C673 C672 1.369 . S
C673 C682 1.429 . S
C674 C672 1.419 . S
C674 C675 1.363 . S
C674 H677 0.929 . S
C675 C674 1.363 . S
C675 C681 1.428 . S
H676 C672 0.930 . S
H677 C674 0.929 . S
S678 N679 1.613 . S
S678 N680 1.610 . S
N679 S678 1.613 . S
N679 C682 1.350 . S
N680 S678 1.610 . S
N680 C681 1.351 . S
C681 C675 1.428 . S
C681 N680 1.351 . S
C681 C682 1.434 . S
C682 C673 1.429 . S
C682 N679 1.350 . S
C682 C681 1.434 . S
C683 C684 1.369 . S
C683 C685 1.419 . S
C683 H687 0.930 . S
C684 C683 1.369 . S
C684 C693 1.429 . S
C685 C683 1.419 . S
C685 C686 1.363 . S
C685 H688 0.929 . S
C686 C685 1.363 . S
C686 C692 1.428 . S
H687 C683 0.930 . S
H688 C685 0.929 . S
S689 N690 1.613 . S
S689 N691 1.610 . S
N690 S689 1.613 . S
N690 C693 1.350 . S
N691 S689 1.610 . S
N691 C692 1.351 . S
C692 C686 1.428 . S
C692 N691 1.351 . S
C692 C693 1.434 . S
C693 C684 1.429 . S
C693 N690 1.350 . S
C693 C692 1.434 . S
C694 C695 1.369 . S
C694 C696 1.419 . S
C694 H698 0.930 . S
C695 C694 1.369 . S
C695 C704 1.429 . S
C696 C694 1.419 . S
C696 C697 1.363 . S
C696 H699 0.929 . S
C697 C696 1.363 . S
C697 C703 1.428 . S
H698 C694 0.930 . S
H699 C696 0.929 . S
S700 N701 1.613 . S
S700 N702 1.610 . S
N701 S700 1.613 . S
N701 C704 1.350 . S
N702 S700 1.610 . S
N702 C703 1.351 . S
C703 C697 1.428 . S
C703 N702 1.351 . S
C703 C704 1.434 . S
C704 C695 1.429 . S
C704 N701 1.350 . S
C704 C703 1.434 . S
C705 C706 1.369 . S
C705 C707 1.419 . S
C705 H709 0.930 . S
C706 C705 1.369 . S
C706 C715 1.429 . S
C707 C705 1.419 . S
C707 C708 1.363 . S
C707 H710 0.929 . S
C708 C707 1.363 . S
C708 C714 1.428 . S
H709 C705 0.930 . S
H710 C707 0.929 . S
S711 N712 1.613 . S
S711 N713 1.610 . S
N712 S711 1.613 . S
N712 C715 1.350 . S
N713 S711 1.610 . S
N713 C714 1.351 . S
C714 C708 1.428 . S
C714 N713 1.351 . S
C714 C715 1.434 . S
C715 C706 1.429 . S
C715 N712 1.350 . S
C715 C714 1.434 . S
C716 C717 1.369 . S
C716 C718 1.419 . S
C716 H720 0.930 . S
C717 C716 1.369 . S
C717 C726 1.429 . S
C718 C716 1.419 . S
C718 C719 1.363 . S
C718 H721 0.929 . S
C719 C718 1.363 . S
C719 C725 1.428 . S
H720 C716 0.930 . S
H721 C718 0.929 . S
S722 N723 1.613 . S
S722 N724 1.610 . S
N723 S722 1.613 . S
N723 C726 1.350 . S
N724 S722 1.610 . S
N724 C725 1.351 . S
C725 C719 1.428 . S
C725 N724 1.351 . S
C725 C726 1.434 . S
C726 C717 1.429 . S
C726 N723 1.350 . S
C726 C725 1.434 . S
C727 C728 1.369 . S
C727 C729 1.419 . S
C727 H731 0.930 . S
C728 C727 1.369 . S
C728 C737 1.429 . S
C729 C727 1.419 . S
C729 C730 1.363 . S
C729 H732 0.929 . S
C730 C729 1.363 . S
C730 C736 1.428 . S
H731 C727 0.930 . S
H732 C729 0.929 . S
S733 N734 1.613 . S
S733 N735 1.610 . S
N734 S733 1.613 . S
N734 C737 1.350 . S
N735 S733 1.610 . S
N735 C736 1.351 . S
C736 C730 1.428 . S
C736 N735 1.351 . S
C736 C737 1.434 . S
C737 C728 1.429 . S
C737 N734 1.350 . S
C737 C736 1.434 . S
C409 C315 1.620 . S
C411 C9 1.624 . S
C420 C43 1.622 . S
C422 C349 1.625 . S
C431 C383 1.619 . S
C433 C77 1.623 . S
C442 C111 1.628 . S
C444 C213 1.625 . S
C453 C145 1.624 . S
C455 C247 1.620 . S
C464 C281 1.628 . S
C466 C179 1.624 . S
C475 C342 1.421 . S
C477 C2 1.421 . S
C486 C376 1.422 . S
C488 C36 1.421 . S
C497 C70 1.417 . S
C499 C206 1.418 . S
C508 C240 1.421 . S
C510 C104 1.421 . S
C519 C274 1.417 . S
C521 C138 1.417 . S
C530 C172 1.417 . S
C532 C308 1.418 . S
C541 C258 1.540 . S
C543 C122 1.541 . S
C552 C292 1.538 . S
C554 C156 1.537 . S
C563 C190 1.539 . S
C565 C326 1.540 . S
C574 C20 1.537 . S
C576 C360 1.537 . S
C585 C54 1.537 . S
C587 C394 1.537 . S
C596 C224 1.541 . S
C598 C88 1.539 . S
C607 C5 1.610 . S
C609 C169 1.640 . S
C618 C39 1.608 . S
C620 C203 1.640 . S
C629 C73 1.610 . S
C631 C33 1.640 . S
C640 C67 1.637 . S
C642 C107 1.612 . S
C651 C141 1.605 . S
C653 C101 1.643 . S
C662 C135 1.642 . S
C664 C175 1.606 . S
C673 C305 1.643 . S
C675 C209 1.606 . S
C684 C339 1.640 . S
C686 C243 1.608 . S
C695 C373 1.638 . S
C697 C277 1.612 . S
C706 C311 1.610 . S
C708 C407 1.640 . S
C717 C237 1.638 . S
C719 C345 1.611 . S
C728 C379 1.611 . S
C730 C271 1.640 . S
