# Generated by pormake.
# Topology sne, (6)-cn, num edge types: 1
# Building blocks:
#     Node 0, Type 0, BuildingBlock: KUMBUR_clean_sbu_1, # of connection points: 6
#     Node 1, Type 0, BuildingBlock: KUMBUR_clean_sbu_1, # of connection points: 6
#     Node 2, Type 0, BuildingBlock: KUMBUR_clean_sbu_1, # of connection points: 6
#     Node 3, Type 0, BuildingBlock: KUMBUR_clean_sbu_1, # of connection points: 6
#     Node 4, Type 0, BuildingBlock: KUMBUR_clean_sbu_1, # of connection points: 6
#     Node 5, Type 0, BuildingBlock: KUMBUR_clean_sbu_1, # of connection points: 6
#     Node 6, Type 0, BuildingBlock: KUMBUR_clean_sbu_1, # of connection points: 6
#     Node 7, Type 0, BuildingBlock: KUMBUR_clean_sbu_1, # of connection points: 6
#     Edge 8, Type (0, 0), BuildingBlock: AJUNOK_clean_linker_0, # of connection points: 2
#     Edge 9, Type (0, 0), BuildingBlock: AJUNOK_clean_linker_0, # of connection points: 2
#     Edge 10, Type (0, 0), BuildingBlock: AJUNOK_clean_linker_0, # of connection points: 2
#     Edge 11, Type (0, 0), BuildingBlock: AJUNOK_clean_linker_0, # of connection points: 2
#     Edge 12, Type (0, 0), BuildingBlock: AJUNOK_clean_linker_0, # of connection points: 2
#     Edge 13, Type (0, 0), BuildingBlock: AJUNOK_clean_linker_0, # of connection points: 2
#     Edge 14, Type (0, 0), BuildingBlock: AJUNOK_clean_linker_0, # of connection points: 2
#     Edge 15, Type (0, 0), BuildingBlock: AJUNOK_clean_linker_0, # of connection points: 2
#     Edge 16, Type (0, 0), BuildingBlock: AJUNOK_clean_linker_0, # of connection points: 2
#     Edge 17, Type (0, 0), BuildingBlock: AJUNOK_clean_linker_0, # of connection points: 2
#     Edge 18, Type (0, 0), BuildingBlock: AJUNOK_clean_linker_0, # of connection points: 2
#     Edge 19, Type (0, 0), BuildingBlock: AJUNOK_clean_linker_0, # of connection points: 2
#     Edge 20, Type (0, 0), BuildingBlock: AJUNOK_clean_linker_0, # of connection points: 2
#     Edge 21, Type (0, 0), BuildingBlock: AJUNOK_clean_linker_0, # of connection points: 2
#     Edge 22, Type (0, 0), BuildingBlock: AJUNOK_clean_linker_0, # of connection points: 2
#     Edge 23, Type (0, 0), BuildingBlock: AJUNOK_clean_linker_0, # of connection points: 2
#     Edge 24, Type (0, 0), BuildingBlock: AJUNOK_clean_linker_0, # of connection points: 2
#     Edge 25, Type (0, 0), BuildingBlock: AJUNOK_clean_linker_0, # of connection points: 2
#     Edge 26, Type (0, 0), BuildingBlock: AJUNOK_clean_linker_0, # of connection points: 2
#     Edge 27, Type (0, 0), BuildingBlock: AJUNOK_clean_linker_0, # of connection points: 2
#     Edge 28, Type (0, 0), BuildingBlock: AJUNOK_clean_linker_0, # of connection points: 2
#     Edge 29, Type (0, 0), BuildingBlock: AJUNOK_clean_linker_0, # of connection points: 2
#     Edge 30, Type (0, 0), BuildingBlock: AJUNOK_clean_linker_0, # of connection points: 2
#     Edge 31, Type (0, 0), BuildingBlock: AJUNOK_clean_linker_0, # of connection points: 2
# Relax obj value: 0.258
# Max RMSD: 0.303
# Mean RMSD: 0.301
data_MOF--net-sne--node1-KUMBUR_clean_sbu_1--edge1-AJUNOK_clean_linker_0
_symmetry_space_group_name_H-M    P1
_symmetry_Int_Tables_number       1
_symmetry_cell_setting            triclinic
loop_
_symmetry_equiv_pos_as_xyz
'x, y, z'
_cell_length_a     33.697589
_cell_length_b     33.625029
_cell_length_c     20.499062
_cell_angle_alpha  90.025557
_cell_angle_beta   89.767661
_cell_angle_gamma 90.446753
loop_
_atom_site_label
_atom_site_type_symbol
_atom_site_fract_x
_atom_site_fract_y
_atom_site_fract_z
_atom_type_partial_charge
Tb0 Tb 0.32031 0.20344 0.4555 0.0
C1 C 0.14807 0.13637 0.37531 0.0
N2 N 0.16876 0.17092 0.36951 0.0
C3 C 0.15296 0.17383 0.2563 0.0
C4 C 0.12957 0.1185 0.32116 0.0
C5 C 0.1688 0.19121 0.31212 0.0
C6 C 0.13307 0.13729 0.26048 0.0
C7 C 0.12304 0.08431 0.44574 0.0
C8 C 0.14534 0.11944 0.43613 0.0
C9 C 0.10502 0.06568 0.39191 0.0
C10 C 0.10841 0.08269 0.32958 0.0
Tb11 Tb 0.20059 0.19377 0.46016 0.0
N12 N 0.16364 0.13826 0.48629 0.0
C13 C 0.11944 0.06922 0.5091 0.0
C14 C 0.15845 0.12477 0.54872 0.0
C15 C 0.13693 0.08978 0.56092 0.0
H16 H 0.18158 0.22043 0.30898 0.0
H17 H 0.13357 0.07891 0.61033 0.0
H18 H 0.34706 0.15739 0.59417 0.0
H19 H 0.31744 0.36002 0.39352 0.0
H20 H 0.17045 0.14136 0.58934 0.0
H21 H 0.10273 0.04217 0.51865 0.0
H22 H 0.29286 0.29124 0.38752 0.0
H23 H 0.15685 0.18868 0.21044 0.0
H24 H 0.08814 0.03837 0.39806 0.0
H25 H 0.09416 0.06825 0.28853 0.0
H26 H 0.39746 0.17113 0.67848 0.0
H27 H 0.12019 0.12422 0.21707 0.0
H28 H 0.37207 0.37743 0.4689 0.0
N29 N 0.35319 0.21437 0.54974 0.0
C30 C 0.3716 0.25048 0.55064 0.0
C31 C 0.39051 0.1936 0.64263 0.0
C32 C 0.40243 0.25857 0.59496 0.0
C33 C 0.36127 0.18623 0.59565 0.0
C34 C 0.41183 0.22953 0.64134 0.0
N35 N 0.33036 0.27016 0.46315 0.0
C36 C 0.31532 0.29843 0.4226 0.0
C37 C 0.37604 0.31799 0.50894 0.0
C38 C 0.35932 0.27955 0.50679 0.0
C39 C 0.36046 0.34729 0.46803 0.0
C40 C 0.32957 0.33758 0.42544 0.0
H41 H 0.43485 0.23486 0.67708 0.0
H42 H 0.44543 0.30271 0.62682 0.0
H43 H 0.42164 0.35497 0.55279 0.0
O44 O 0.36609 0.21854 0.38798 0.0
O45 O 0.28517 0.24201 0.52416 0.0
O46 O 0.22937 0.20646 0.55359 0.0
O47 O 0.37302 0.17089 0.45602 0.0
O48 O 0.29282 0.21322 0.36158 0.0
O49 O 0.23189 0.23669 0.39267 0.0
O50 O 0.14395 0.20203 0.50099 0.0
O51 O 0.22754 0.15437 0.38794 0.0
O52 O 0.2955 0.14941 0.41029 0.0
O53 O 0.17622 0.25169 0.46143 0.0
O54 O 0.23311 0.1581 0.53338 0.0
O55 O 0.29986 0.14944 0.50478 0.0
C56 C 0.25812 0.23146 0.56811 0.0
C57 C 0.4317 0.20597 0.42708 0.0
C58 C 0.49698 0.23078 0.39336 0.0
C59 C 0.50946 0.23007 0.45845 0.0
C60 C 0.44664 0.20187 0.49064 0.0
C61 C 0.48444 0.21537 0.50677 0.0
C62 C 0.45769 0.21959 0.37759 0.0
C63 C 0.25864 0.22871 0.34641 0.0
C64 C 0.39055 0.19263 0.412 0.0
C65 C 0.42151 0.29593 0.59337 0.0
C66 C 0.40781 0.32578 0.55139 0.0
C67 C 0.26204 0.13646 0.38414 0.0
C68 C 0.10457 0.25292 0.45792 0.0
C69 C 0.03251 0.26309 0.4678 0.0
C70 C 0.03254 0.27938 0.40482 0.0
C71 C 0.10342 0.26882 0.39465 0.0
C72 C 0.06872 0.2497 0.49423 0.0
C73 C 0.06762 0.28193 0.36848 0.0
C74 C 0.26665 0.1377 0.53342 0.0
C75 C 0.14257 0.23944 0.4868 0.0
H76 H 0.53959 0.23842 0.47118 0.0
H77 H 0.42949 0.18735 0.52799 0.0
H78 H 0.49493 0.21288 0.55643 0.0
H79 H 0.44807 0.21993 0.32721 0.0
H80 H 1.0052 0.28998 0.38355 0.0
H81 H 0.13017 0.27125 0.36542 0.0
H82 H 0.06909 0.23737 0.54308 0.0
H83 H 0.06708 0.29431 0.31976 0.0
Tb84 Tb 0.19298 0.81862 0.67649 0.0
C85 C 0.24793 0.65847 0.56291 0.0
N86 N 0.21211 0.67586 0.57346 0.0
C87 C 0.18531 0.64467 0.47867 0.0
C88 C 0.25326 0.63206 0.51069 0.0
C89 C 0.18123 0.67035 0.53154 0.0
C90 C 0.22082 0.62432 0.46997 0.0
C91 C 0.31589 0.64743 0.59808 0.0
C92 C 0.27857 0.66499 0.60747 0.0
C93 C 0.32117 0.6207 0.54623 0.0
C94 C 0.28958 0.61218 0.50399 0.0
Tb95 Tb 0.20638 0.69965 0.67542 0.0
N96 N 0.27163 0.68884 0.65972 0.0
C97 C 0.34644 0.65678 0.64179 0.0
C98 C 0.30087 0.6976 0.70337 0.0
C99 C 0.33901 0.68236 0.6942 0.0
H100 H 0.15256 0.68311 0.54081 0.0
H101 H 0.36232 0.68938 0.7286 0.0
H102 H 0.22242 0.84412 0.82342 0.0
H103 H 0.07365 0.87595 0.52937 0.0
H104 H 0.29478 0.71542 0.74589 0.0
H105 H 0.37574 0.64421 0.63579 0.0
H106 H 0.1388 0.84485 0.54866 0.0
H107 H 0.1603 0.63865 0.4471 0.0
H108 H 0.34927 0.60586 0.53917 0.0
H109 H 0.29341 0.58963 0.46709 0.0
H110 H 0.19615 0.87984 0.91783 0.0
H111 H 0.2218 0.60121 0.43401 0.0
H112 H 0.03586 0.90435 0.62199 0.0
N113 N 0.17084 0.85183 0.76635 0.0
C114 C 0.13532 0.87013 0.76156 0.0
C115 C 0.17811 0.87646 0.87513 0.0
C116 C 0.11848 0.8904 0.81486 0.0
C117 C 0.19303 0.856 0.82129 0.0
C118 C 0.14026 0.893 0.87268 0.0
N119 N 0.13596 0.85199 0.65162 0.0
C120 C 0.1218 0.8558 0.58961 0.0
C121 C 0.08026 0.88882 0.69344 0.0
C122 C 0.11677 0.8695 0.70206 0.0
C123 C 0.06398 0.88997 0.63079 0.0
C124 C 0.08523 0.87398 0.57842 0.0
H125 H 0.12878 0.90877 0.91472 0.0
H126 H 0.0675 0.92371 0.84834 0.0
H127 H 0.03375 0.9221 0.74179 0.0
O128 O 0.20063 0.87551 0.63626 0.0
O129 O 0.15577 0.79066 0.75199 0.0
O130 O 0.15688 0.72207 0.73315 0.0
O131 O 0.25104 0.84251 0.66986 0.0
O132 O 0.15958 0.78306 0.60404 0.0
O133 O 0.14823 0.71898 0.64052 0.0
O134 O 0.22383 0.65299 0.73885 0.0
O135 O 0.24503 0.74021 0.61566 0.0
O136 O 0.2047 0.78989 0.58228 0.0
O137 O 0.17663 0.64474 0.67062 0.0
O138 O 0.22056 0.72634 0.76785 0.0
O139 O 0.23746 0.79142 0.74445 0.0
C140 C 0.14228 0.75418 0.76109 0.0
C141 C 0.25335 0.91367 0.67668 0.0
C142 C 0.26384 0.98565 0.66907 0.0
C143 C 0.27605 0.98606 0.73445 0.0
C144 C 0.26643 0.91473 0.74158 0.0
C145 C 0.27754 0.95079 0.77024 0.0
C146 C 0.25242 0.94928 0.64036 0.0
C147 C 0.13592 0.75214 0.61328 0.0
C148 C 0.23852 0.87645 0.64686 0.0
C149 C 0.08123 0.90832 0.80778 0.0
C150 C 0.06203 0.90738 0.74713 0.0
C151 C 0.23273 0.76422 0.56909 0.0
C152 C 0.21447 0.58758 0.69526 0.0
C153 C 0.23844 0.5214 0.7259 0.0
C154 C 0.23971 0.51102 0.65949 0.0
C155 C 0.21376 0.57504 0.62992 0.0
C156 C 0.22663 0.56032 0.74353 0.0
C157 C 0.22745 0.53768 0.61202 0.0
C158 C 0.23384 0.76125 0.78611 0.0
C159 C 0.19919 0.62752 0.71321 0.0
H160 H 0.28502 0.01367 0.75754 0.0
H161 H 0.2679 0.88783 0.77029 0.0
H162 H 0.28733 0.95143 0.82046 0.0
H163 H 0.24218 0.94879 0.59026 0.0
H164 H 0.24827 0.48142 0.64432 0.0
H165 H 0.20143 0.5936 0.59254 0.0
H166 H 0.22584 0.56897 0.79446 0.0
H167 H 0.22714 0.52882 0.56125 0.0
Tb168 Tb 0.70058 0.80999 0.44204 0.0
C169 C 0.87895 0.82698 0.33496 0.0
N170 N 0.8533 0.79831 0.35637 0.0
C171 C 0.88738 0.74932 0.29304 0.0
C172 C 0.90817 0.81822 0.28806 0.0
C173 C 0.85735 0.75971 0.33644 0.0
C174 C 0.91307 0.77871 0.26924 0.0
C175 C 0.90566 0.89412 0.34438 0.0
C176 C 0.8792 0.864 0.36545 0.0
C177 C 0.9318 0.88658 0.29246 0.0
C178 C 0.93367 0.84844 0.26535 0.0
Tb179 Tb 0.8153 0.81687 0.4426 0.0
N180 N 0.856 0.86934 0.419 0.0
C181 C 0.90645 0.93032 0.37809 0.0
C182 C 0.85819 0.90392 0.45416 0.0
C183 C 0.88283 0.93509 0.43354 0.0
H184 H 0.83793 0.73682 0.35572 0.0
H185 H 0.88394 0.9626 0.46092 0.0
H186 H 0.63347 0.83312 0.55109 0.0
H187 H 0.78355 0.67008 0.41635 0.0
H188 H 0.84076 0.90792 0.49765 0.0
H189 H 0.92615 0.95425 0.36303 0.0
H190 H 0.77647 0.7415 0.41183 0.0
H191 H 0.89142 0.71845 0.28 0.0
H192 H 0.95219 0.9094 0.27536 0.0
H193 H 0.95574 0.84232 0.22816 0.0
H194 H 0.58164 0.79741 0.6145 0.0
H195 H 0.93813 0.77051 0.23934 0.0
H196 H 0.73064 0.62854 0.46555 0.0
N197 N 0.6596 0.78013 0.51501 0.0
C198 C 0.6598 0.73992 0.51577 0.0
C199 C 0.60333 0.78088 0.58668 0.0
C200 C 0.6308 0.7183 0.55076 0.0
C201 C 0.63279 0.80096 0.55121 0.0
C202 C 0.60172 0.73934 0.58513 0.0
N203 N 0.71763 0.74294 0.45086 0.0
C204 C 0.75166 0.7248 0.42941 0.0
C205 C 0.69337 0.67886 0.4883 0.0
C206 C 0.69005 0.7206 0.48324 0.0
C207 C 0.72679 0.66043 0.46203 0.0
C208 C 0.75651 0.68369 0.43388 0.0
H209 H 0.57879 0.72383 0.61244 0.0
H210 H 0.60915 0.65918 0.57466 0.0
H211 H 0.66533 0.62481 0.52387 0.0
O212 O 0.64565 0.79352 0.39686 0.0
O213 O 0.72116 0.80713 0.5416 0.0
O214 O 0.78054 0.77988 0.51415 0.0
O215 O 0.65621 0.85277 0.43523 0.0
O216 O 0.72275 0.78443 0.35024 0.0
O217 O 0.79081 0.79755 0.34669 0.0
O218 O 0.83646 0.7659 0.48902 0.0
O219 O 0.78856 0.87196 0.40594 0.0
O220 O 0.72729 0.85002 0.36959 0.0
O221 O 0.87069 0.8205 0.49106 0.0
O222 O 0.79038 0.85774 0.51323 0.0
O223 O 0.72188 0.86408 0.49606 0.0
C224 C 0.75399 0.78992 0.55911 0.0
C225 C 0.59238 0.84265 0.38465 0.0
C226 C 0.52348 0.83023 0.35334 0.0
C227 C 0.5181 0.87151 0.34715 0.0
C228 C 0.58598 0.88371 0.37841 0.0
C229 C 0.54913 0.89794 0.35956 0.0
C230 C 0.56103 0.81575 0.37151 0.0
C231 C 0.75734 0.78497 0.31962 0.0
C232 C 0.63176 0.82898 0.40581 0.0
C233 C 0.63208 0.67658 0.55081 0.0
C234 C 0.66376 0.65693 0.52088 0.0
C235 C 0.75508 0.8775 0.37451 0.0
C236 C 0.90683 0.75943 0.48983 0.0
C237 C 0.97812 0.7481 0.50227 0.0
C238 C 0.97494 0.71419 0.46288 0.0
C239 C 0.90429 0.72361 0.45432 0.0
C240 C 0.94413 0.77123 0.51492 0.0
C241 C 0.9382 0.70199 0.43926 0.0
C242 C 0.75623 0.87592 0.52226 0.0
C243 C 0.87036 0.78257 0.50461 0.0
H244 H 0.48973 0.88338 0.33227 0.0
H245 H 0.6096 0.90497 0.38788 0.0
H246 H 0.54457 0.92963 0.35463 0.0
H247 H 0.56551 0.78404 0.37684 0.0
H248 H 1.00074 0.69606 0.45296 0.0
H249 H 0.87602 0.71175 0.43863 0.0
H250 H 0.94649 0.79735 0.5457 0.0
H251 H 0.9358 0.67495 0.41083 0.0
Tb252 Tb 0.82197 0.32431 0.68534 0.0
C253 C 0.7684 0.17444 0.80777 0.0
N254 N 0.80728 0.17929 0.79116 0.0
C255 C 0.82803 0.1469 0.88874 0.0
C256 C 0.75789 0.1553 0.86611 0.0
C257 C 0.83724 0.16633 0.83051 0.0
C258 C 0.78826 0.14104 0.90574 0.0
C259 C 0.69948 0.1909 0.78886 0.0
C260 C 0.73965 0.1923 0.76911 0.0
C261 C 0.68861 0.16977 0.84535 0.0
C262 C 0.71774 0.15199 0.88385 0.0
Tb263 Tb 0.81794 0.20555 0.69166 0.0
N264 N 0.75154 0.21389 0.71594 0.0
C265 C 0.67159 0.21203 0.75285 0.0
C266 C 0.72429 0.23595 0.68263 0.0
C267 C 0.68417 0.23507 0.70017 0.0
H268 H 0.86788 0.17046 0.81595 0.0
H269 H 0.66294 0.25251 0.67317 0.0
H270 H 0.7867 0.36195 0.54779 0.0
H271 H 0.93447 0.39075 0.84144 0.0
H272 H 0.7323 0.25507 0.64331 0.0
H273 H 0.6405 0.21178 0.76654 0.0
H274 H 0.87118 0.35536 0.81936 0.0
H275 H 0.8514 0.13605 0.91995 0.0
H276 H 0.65785 0.16806 0.86079 0.0
H277 H 0.70898 0.13678 0.92819 0.0
H278 H 0.81258 0.40236 0.45702 0.0
H279 H 0.78126 0.12585 0.94978 0.0
H280 H 0.97398 0.41857 0.75017 0.0
N281 N 0.84077 0.36398 0.60094 0.0
C282 C 0.87668 0.38197 0.60702 0.0
C283 C 0.83143 0.39563 0.49769 0.0
C284 C 0.89279 0.40517 0.55609 0.0
C285 C 0.81701 0.37239 0.54911 0.0
C286 C 0.86998 0.41102 0.50007 0.0
N287 N 0.87669 0.36058 0.71625 0.0
C288 C 0.88877 0.36667 0.77911 0.0
C289 C 0.93146 0.4006 0.67677 0.0
C290 C 0.89569 0.37961 0.66655 0.0
C291 C 0.94655 0.40274 0.74013 0.0
C292 C 0.92433 0.387 0.79181 0.0
H293 H 0.88098 0.42909 0.46006 0.0
H294 H 0.94334 0.44071 0.52516 0.0
H295 H 0.97738 0.43665 0.63102 0.0
O296 O 0.81231 0.3826 0.72033 0.0
O297 O 0.86116 0.29763 0.61061 0.0
O298 O 0.86636 0.22882 0.62905 0.0
O299 O 0.76301 0.34479 0.68754 0.0
O300 O 0.86028 0.29338 0.75582 0.0
O301 O 0.87655 0.22982 0.71862 0.0
O302 O 0.79446 0.15755 0.637 0.0
O303 O 0.81405 0.2373 0.78523 0.0
O304 O 0.78286 0.29496 0.75879 0.0
O305 O 0.84653 0.14952 0.69325 0.0
O306 O 0.79527 0.22851 0.60041 0.0
O307 O 0.79411 0.29789 0.59859 0.0
C308 C 0.87788 0.26252 0.60045 0.0
C309 C 0.74614 0.41151 0.72635 0.0
C310 C 0.73235 0.48069 0.75686 0.0
C311 C 0.69179 0.47063 0.76161 0.0
C312 C 0.70544 0.40276 0.73046 0.0
C313 C 0.67854 0.43215 0.74804 0.0
C314 C 0.75952 0.4507 0.73903 0.0
C315 C 0.88583 0.26419 0.7469 0.0
C316 C 0.77427 0.37921 0.71115 0.0
C317 C 0.93009 0.42332 0.56416 0.0
C318 C 0.94949 0.42093 0.62443 0.0
C319 C 0.79216 0.26769 0.80188 0.0
C320 C 0.80367 0.09275 0.67948 0.0
C321 C 0.77853 0.02545 0.65756 0.0
C322 C 0.76936 0.02095 0.72389 0.0
C323 C 0.79659 0.0856 0.74591 0.0
C324 C 0.79479 0.06186 0.63471 0.0
C325 C 0.77869 0.05077 0.76782 0.0
C326 C 0.78897 0.26267 0.57134 0.0
C327 C 0.82012 0.13189 0.65718 0.0
H328 H 0.67015 0.49245 0.77683 0.0
H329 H 0.6944 0.37296 0.72114 0.0
H330 H 0.64726 0.42496 0.75192 0.0
H331 H 0.79082 0.45778 0.73452 0.0
H332 H 0.75676 0.99334 0.74218 0.0
H333 H 0.80549 0.1062 0.78183 0.0
H334 H 0.80165 0.06556 0.58336 0.0
H335 H 0.77313 0.04644 0.8194 0.0
Tb336 Tb 0.19443 0.31693 0.96042 0.0
C337 C 0.35274 0.33306 0.81573 0.0
N338 N 0.33502 0.30087 0.84381 0.0
C339 C 0.34349 0.26398 0.74504 0.0
C340 C 0.36268 0.33314 0.74927 0.0
C341 C 0.33524 0.2651 0.81166 0.0
C342 C 0.35421 0.2991 0.71315 0.0
C343 C 0.38131 0.39908 0.82737 0.0
C344 C 0.36173 0.36563 0.85413 0.0
C345 C 0.39053 0.39962 0.7605 0.0
C346 C 0.38059 0.36693 0.72126 0.0
Tb347 Tb 0.31291 0.31052 0.94829 0.0
N348 N 0.34941 0.36518 0.9172 0.0
C349 C 0.3896 0.43145 0.86812 0.0
C350 C 0.35842 0.39627 0.95764 0.0
C351 C 0.37843 0.42985 0.93374 0.0
H352 H 0.32645 0.23793 0.83623 0.0
H353 H 0.38492 0.4546 0.96586 0.0
H354 H 0.15194 0.36862 0.07687 0.0
H355 H 0.21369 0.1571 0.92186 0.0
H356 H 0.35012 0.39528 1.00816 0.0
H357 H 0.40446 0.45779 0.84941 0.0
H358 H 0.22295 0.22618 0.89474 0.0
H359 H 0.33889 0.23678 0.71803 0.0
H360 H 0.40492 0.42529 0.73859 0.0
H361 H 0.38777 0.36771 0.66979 0.0
H362 H 0.10455 0.35415 0.16671 0.0
H363 H 0.35507 0.30015 0.66093 0.0
H364 H 0.16994 0.13811 1.0135 0.0
N365 N 0.15995 0.30771 1.05309 0.0
C366 C 0.15041 0.26918 1.06582 0.0
C367 C 0.11722 0.33006 0.13871 0.0
C368 C 0.12261 0.25975 0.11495 0.0
C369 C 0.14416 0.33815 0.08839 0.0
C370 C 0.1062 0.2907 0.15181 0.0
N371 N 0.193 0.24931 0.97811 0.0
C372 C 0.20785 0.22002 0.9389 0.0
C373 C 0.15822 0.19901 1.04135 0.0
C374 C 0.16801 0.23916 1.02845 0.0
C375 C 0.17626 0.16927 1.00438 0.0
C376 C 0.20114 0.17987 0.9529 0.0
H377 H 0.08486 0.28454 0.19022 0.0
H378 H 0.08929 0.21224 0.1613 0.0
H379 H 0.12106 0.15908 0.09814 0.0
O380 O 0.14066 0.29495 0.9244 0.0
O381 O 0.22395 0.30698 1.05398 0.0
O382 O 0.28268 0.27554 1.02827 0.0
O383 O 0.14627 0.35637 0.95232 0.0
O384 O 0.21526 0.30266 0.86159 0.0
O385 O 0.27295 0.27357 0.88844 0.0
O386 O 0.36663 0.31577 1.00153 0.0
O387 O 0.28779 0.3643 0.90141 0.0
O388 O 0.21835 0.36238 0.89605 0.0
O389 O 0.35015 0.26074 0.95741 0.0
O390 O 0.29013 0.3506 1.02382 0.0
O391 O 0.22377 0.3696 1.0065 0.0
C392 C 0.25432 0.28507 0.07082 0.0
C393 C 0.09988 0.33886 0.86991 0.0
C394 C 0.04125 0.32484 0.80475 0.0
C395 C 0.05533 0.35147 0.75699 0.0
C396 C 0.1139 0.36514 0.82182 0.0
C397 C 0.09146 0.37152 0.76565 0.0
C398 C 0.06376 0.31872 0.86107 0.0
C399 C 0.24873 0.28695 0.84293 0.0
C400 C 0.1232 0.3291 0.92761 0.0
C401 C 0.11132 0.22002 0.12472 0.0
C402 C 0.12949 0.18972 0.08878 0.0
C403 C 0.25312 0.37863 0.8829 0.0
C404 C 0.41926 0.27556 0.96087 0.0
C405 C 0.49092 0.26759 0.97555 0.0
C406 C 0.49559 0.26468 0.90767 0.0
C407 C 0.42557 0.2728 0.89325 0.0
C408 C 0.45252 0.2728 1.00246 0.0
C409 C 0.46312 0.26741 0.86692 0.0
C410 C 0.2602 0.37583 1.03026 0.0
C411 C 0.37823 0.2801 0.98738 0.0
H412 H 0.03824 0.35696 0.71329 0.0
H413 H 0.14217 0.38027 0.8273 0.0
H414 H 0.10217 0.39188 0.72858 0.0
H415 H 0.05361 0.29751 0.89751 0.0
H416 H 0.52462 0.26025 0.886 0.0
H417 H 0.4018 0.27419 0.85982 0.0
H418 H 0.44867 0.27506 1.05484 0.0
H419 H 0.467 0.26519 0.81459 0.0
Tb420 Tb 0.31253 0.82036 0.18762 0.0
C421 C 0.25855 0.65674 0.26119 0.0
N422 N 0.29764 0.66601 0.262 0.0
C423 C 0.30974 0.61589 0.34137 0.0
C424 C 0.24358 0.62508 0.29867 0.0
C425 C 0.32289 0.6482 0.30441 0.0
C426 C 0.27051 0.60268 0.33509 0.0
C427 C 0.1922 0.67461 0.2287 0.0
C428 C 0.23364 0.68012 0.22414 0.0
C429 C 0.17683 0.64258 0.26524 0.0
C430 C 0.20256 0.61725 0.29886 0.0
Tb431 Tb 0.31848 0.70393 0.17822 0.0
N432 N 0.25002 0.70982 0.18748 0.0
C433 C 0.16754 0.70195 0.19789 0.0
C434 C 0.22572 0.73807 0.16116 0.0
C435 C 0.18442 0.73439 0.16546 0.0
H436 H 0.35377 0.65718 0.30575 0.0
H437 H 0.16563 0.75682 0.14406 0.0
H438 H 0.22782 0.83224 0.10653 0.0
H439 H 0.44607 0.90942 0.20216 0.0
H440 H 0.23728 0.76454 0.13927 0.0
H441 H 0.13553 0.69912 0.20087 0.0
H442 H 0.40091 0.85464 0.23433 0.0
H443 H 0.3305 0.59987 0.37145 0.0
H444 H 0.1451 0.63743 0.26839 0.0
H445 H 0.1903 0.59274 0.32687 0.0
H446 H 0.20206 0.87879 1.02513 0.0
H447 H 0.26123 0.57577 0.35993 0.0
H448 H 0.42739 0.95481 0.11258 0.0
N449 N 0.28634 0.85655 0.10453 0.0
C450 C 0.31018 0.8867 0.08309 0.0
C451 C 0.23298 0.88043 1.03859 0.0
C452 C 0.297 0.91333 1.03484 0.0
C453 C 0.24751 0.85426 0.08522 0.0
C454 C 0.2581 0.9094 1.01177 0.0
N455 N 0.3576 0.86844 0.16256 0.0
C456 C 0.39272 0.87402 0.1947 0.0
C457 C 0.37157 0.92467 0.09349 0.0
C458 C 0.34687 0.89273 0.11283 0.0
C459 C 0.40759 0.93063 0.12615 0.0
C460 C 0.41826 0.9051 0.17679 0.0
H461 H 0.24664 0.92975 0.9756 0.0
H462 H 0.31271 0.96477 0.97626 0.0
H463 H 0.37813 0.97435 1.02697 0.0
O464 O 0.31617 0.87133 0.24787 0.0
O465 O 0.36833 0.80107 0.14132 0.0
O466 O 0.36171 0.7337 0.11392 0.0
O467 O 0.26031 0.84114 0.23179 0.0
O468 O 0.35602 0.79573 0.2556 0.0
O469 O 0.37146 0.72962 0.22746 0.0
O470 O 0.30259 0.65067 0.12846 0.0
O471 O 0.31083 0.72662 0.27744 0.0
O472 O 0.27508 0.77972 0.24726 0.0
O473 O 0.36026 0.65802 0.16789 0.0
O474 O 0.29517 0.72775 0.08695 0.0
O475 O 0.29744 0.797 0.08943 0.0
C476 C 0.38 0.76858 0.1103 0.0
C477 C 0.25877 0.91198 0.24087 0.0
C478 C 0.25489 0.98412 0.25543 0.0
C479 C 0.22348 0.98535 0.21095 0.0
C480 C 0.22511 0.91394 0.20053 0.0
C481 C 0.20858 0.95039 0.18394 0.0
C482 C 0.27311 0.94748 0.26954 0.0
C483 C 0.37899 0.7639 0.25781 0.0
C484 C 0.27778 0.87307 0.25488 0.0
C485 C 0.32218 0.94429 1.01379 0.0
C486 C 0.35938 0.94987 1.04291 0.0
C487 C 0.28839 0.75648 0.29398 0.0
C488 C 0.33425 0.59171 0.16574 0.0
C489 C 0.30944 0.52259 0.16358 0.0
C490 C 0.32383 0.51807 0.2275 0.0
C491 C 0.35578 0.5821 0.22204 0.0
C492 C 0.31238 0.56083 0.13432 0.0
C493 C 0.3487 0.54655 0.25465 0.0
C494 C 0.29153 0.76285 1.05893 0.0
C495 C 0.33599 0.63326 0.13983 0.0
H496 H 0.20898 0.01322 0.20005 0.0
H497 H 0.21091 0.8873 0.18244 0.0
H498 H 0.18321 0.9514 0.15178 0.0
H499 H 0.29738 0.94649 0.30403 0.0
H500 H 0.31858 0.49088 0.25464 0.0
H501 H 0.37662 0.60292 0.24333 0.0
H502 H 0.29927 0.56612 0.08698 0.0
H503 H 0.36276 0.54095 0.30109 0.0
Tb504 Tb 0.81735 0.70144 0.9391 0.0
C505 C 0.64404 0.65151 0.83516 0.0
N506 N 0.66437 0.68621 0.84103 0.0
C507 C 0.64221 0.70655 0.73563 0.0
C508 C 0.6235 0.64191 0.77763 0.0
C509 C 0.66242 0.71431 0.79351 0.0
C510 C 0.62288 0.66999 0.72739 0.0
C511 C 0.62063 0.59079 0.88566 0.0
C512 C 0.64249 0.62663 0.8884 0.0
C513 C 0.60215 0.57961 0.827 0.0
C514 C 0.60337 0.6053 0.77311 0.0
Tb515 Tb 0.69676 0.69699 0.93641 0.0
N516 N 0.66014 0.6391 0.94424 0.0
C517 C 0.61662 0.56821 0.94259 0.0
C518 C 0.65358 0.61868 1.00114 0.0
C519 C 0.63248 0.58266 1.00089 0.0
H520 H 0.67523 0.74322 0.80119 0.0
H521 H 0.62836 0.56613 1.04573 0.0
H522 H 0.83386 0.65211 0.0776 0.0
H523 H 0.83388 0.85651 0.87315 0.0
H524 H 0.6645 0.62999 1.04709 0.0
H525 H 0.60016 0.54041 0.94258 0.0
H526 H 0.80494 0.78969 0.86227 0.0
H527 H 0.64111 0.72913 0.69831 0.0
H528 H 0.58566 0.55191 0.82356 0.0
H529 H 0.58788 0.59704 0.72886 0.0
H530 H 0.87945 0.66136 0.16932 0.0
H531 H 0.60618 0.66429 0.68359 0.0
H532 H 0.88164 0.87086 0.9616 0.0
N533 N 0.84373 0.71008 1.03895 0.0
C534 C 0.86356 0.74531 1.0448 0.0
C535 C 0.87447 0.6855 0.1355 0.0
C536 C 0.89082 0.75149 0.09553 0.0
C537 C 0.84792 0.68063 0.08403 0.0
C538 C 0.89721 0.72028 0.13939 0.0
N539 N 0.83229 0.76712 0.94803 0.0
C540 C 0.82383 0.7958 0.90315 0.0
C541 C 0.87694 0.81189 1.00349 0.0
C542 C 0.85769 0.77475 0.99795 0.0
C543 C 0.86786 0.84171 0.95844 0.0
C544 C 0.8408 0.83375 0.90856 0.0
H545 H 0.92085 0.72163 0.17447 0.0
H546 H 0.93453 0.7925 0.13519 0.0
H547 H 0.92048 0.84598 1.05781 0.0
O548 O 0.86619 0.71473 0.87643 0.0
O549 O 0.78061 0.7424 0.99983 0.0
O550 O 0.72558 0.7071 1.03037 0.0
O551 O 0.86857 0.66672 0.94446 0.0
O552 O 0.79192 0.71509 0.84573 0.0
O553 O 0.73196 0.74086 0.87692 0.0
O554 O 0.64056 0.70275 0.98012 0.0
O555 O 0.7245 0.66029 0.8602 0.0
O556 O 0.79082 0.65008 0.88879 0.0
O557 O 0.67268 0.75452 0.94774 0.0
O558 O 0.72538 0.65797 1.0083 0.0
O559 O 0.79251 0.64725 0.98373 0.0
C560 C 0.75452 0.7318 1.04488 0.0
C561 C 0.92903 0.70133 0.92565 0.0
C562 C 0.99633 0.7261 0.90448 0.0
C563 C 1.00428 0.72477 0.97148 0.0
C564 C 0.93962 0.69672 0.99149 0.0
C565 C 0.97612 0.70988 1.01464 0.0
C566 C 0.95818 0.71551 0.88142 0.0
C567 C 0.75854 0.73233 0.83088 0.0
C568 C 0.88885 0.68838 0.90358 0.0
C569 C 0.91215 0.78756 0.09849 0.0
C570 C 0.90461 0.81796 1.05356 0.0
C571 C 0.75783 0.63986 0.85811 0.0
C572 C 0.60128 0.7568 0.94854 0.0
C573 C 0.53026 0.76959 0.96554 0.0
C574 C 0.52844 0.78507 0.90197 0.0
C575 C 0.59864 0.77379 0.88625 0.0
C576 C 0.56679 0.75464 0.98821 0.0
C577 C 0.56235 0.78727 0.86292 0.0
C578 C 0.75794 0.63637 1.00906 0.0
C579 C 0.63945 0.74098 0.9728 0.0
H580 H 0.03336 0.73289 0.98985 0.0
H581 H 0.91998 0.68214 1.02536 0.0
H582 H 0.98318 0.70698 1.06588 0.0
H583 H 0.95195 0.71644 0.82961 0.0
H584 H 0.50065 0.79577 0.88252 0.0
H585 H 0.62455 0.77685 0.85552 0.0
H586 H 0.56855 0.74213 1.03684 0.0
H587 H 0.56054 0.79981 0.81442 0.0
Tb588 Tb 0.70268 0.31622 0.18029 0.0
C589 C 0.77983 0.15446 0.11572 0.0
N590 N 0.74006 0.15727 0.10918 0.0
C591 C 0.73825 0.09672 1.04787 0.0
C592 C 0.80071 0.12247 0.08813 0.0
C593 C 0.71934 0.13044 0.07242 0.0
C594 C 0.77905 0.09214 1.05738 0.0
C595 C 0.8414 0.18461 0.15097 0.0
C596 C 0.7995 0.18409 0.1496 0.0
C597 C 0.86261 0.15322 0.12248 0.0
C598 C 0.84226 0.12188 0.09199 0.0
Tb599 Tb 0.70973 0.19914 0.17944 0.0
N600 N 0.77766 0.21361 0.17715 0.0
C601 C 0.86079 0.21732 0.17859 0.0
C602 C 0.79707 0.24673 0.20053 0.0
C603 C 0.83847 0.2489 0.20209 0.0
H604 H 0.68767 0.13354 0.06614 0.0
H605 H 0.85313 0.27523 0.221 0.0
H606 H 0.78536 0.34057 0.26032 0.0
H607 H 0.55797 0.38397 0.17504 0.0
H608 H 0.78157 0.27265 0.21602 0.0
H609 H 0.89289 0.21915 0.17976 0.0
H610 H 0.61214 0.3428 0.13148 0.0
H611 H 0.72149 0.07449 1.02126 0.0
H612 H 0.89476 0.1531 0.12323 0.0
H613 H 0.85895 0.09782 0.07027 0.0
H614 H 0.8034 0.38501 0.35106 0.0
H615 H 0.79385 0.06647 1.03699 0.0
H616 H 0.56752 0.42175 0.27744 0.0
N617 N 0.72366 0.35287 0.267 0.0
C618 C 0.69508 0.376 0.2942 0.0
C619 C 0.77268 0.38221 0.33679 0.0
C620 C 0.70379 0.40103 0.34743 0.0
C621 C 0.76255 0.35741 0.28484 0.0
C622 C 0.74304 0.40342 0.36932 0.0
N623 N 0.65153 0.35596 0.20976 0.0
C624 C 0.61658 0.35885 0.17643 0.0
C625 C 0.6278 0.40155 0.29124 0.0
C626 C 0.65772 0.37702 0.2654 0.0
C627 C 0.59131 0.40338 0.2589 0.0
C628 C 0.58583 0.38222 0.20094 0.0
H629 H 0.75092 0.42282 0.40949 0.0
H630 H 0.67959 0.4433 0.41652 0.0
H631 H 0.6129 0.44315 0.36809 0.0
O632 O 0.69779 0.37215 0.13363 0.0
O633 O 0.6488 0.28751 0.2181 0.0
O634 O 0.66762 0.22394 0.25027 0.0
O635 O 0.75117 0.3374 0.12621 0.0
O636 O 0.66057 0.28998 0.1113 0.0
O637 O 0.65659 0.22051 0.12664 0.0
O638 O 0.7243 0.14457 0.22745 0.0
O639 O 0.71555 0.22245 0.08074 0.0
O640 O 0.74182 0.27909 0.11946 0.0
O641 O 0.66762 0.15328 0.17991 0.0
O642 O 0.73018 0.22255 0.27282 0.0
O643 O 0.72309 0.29161 0.27425 0.0
C644 C 0.64218 0.25356 0.24861 0.0
C645 C 0.75955 0.40754 0.13082 0.0
C646 C 0.77151 0.47952 0.12287 0.0
C647 C 0.80914 0.47398 0.15089 0.0
C648 C 0.79774 0.4032 0.15729 0.0
C649 C 0.8218 0.43625 0.16866 0.0
C650 C 0.74627 0.446 0.11501 0.0
C651 C 0.64346 0.25473 0.10256 0.0
C652 C 0.7349 0.37191 0.11556 0.0
C653 C 0.67358 0.42431 0.37495 0.0
C654 C 0.63562 0.42433 0.34722 0.0
C655 C 0.73079 0.25752 0.06901 0.0
C656 C 0.67732 0.08797 0.22641 0.0
C657 C 0.68944 0.02047 0.26612 0.0
C658 C 0.65189 1.00903 0.24246 0.0
C659 C 0.63983 0.07547 0.20426 0.0
C660 C 0.70239 0.0602 0.25743 0.0
C661 C 0.62732 0.03633 0.21222 0.0
C662 C 0.7322 0.25745 0.30211 0.0
C663 C 0.69061 0.12884 0.21055 0.0
H664 H 0.82967 0.49862 0.15693 0.0
H665 H 0.80953 0.37417 0.16841 0.0
H666 H 0.85105 0.43245 0.18928 0.0
H667 H 0.71669 0.44948 0.09554 0.0
H668 H 0.64132 0.97867 0.24778 0.0
H669 H 0.6202 0.09584 0.17953 0.0
H670 H 0.73141 0.06934 0.27475 0.0
H671 H 0.59848 0.02704 0.19455 0.0
C672 C 0.28468 0.09015 0.29603 0.0
C673 C 0.26271 0.09691 0.35334 0.0
C674 C 0.2843 0.05254 0.26582 0.0
C675 C 0.2632 0.02044 0.29363 0.0
H676 H 0.30102 0.11437 0.27333 0.0
H677 H 0.2995 0.04882 0.21958 0.0
S678 S 0.20516 0.02179 0.4472 0.0
N679 N 0.22142 0.06796 0.43856 0.0
N680 N 0.22239 0.99711 0.38363 0.0
C681 C 0.24302 0.02646 0.35264 0.0
C682 C 0.24232 0.0648 0.38206 0.0
C683 C 0.0761 0.77724 0.80335 0.0
C684 C 0.10562 0.74778 0.80006 0.0
C685 C 0.03926 0.76961 0.83361 0.0
C686 C 0.03069 0.73215 0.86068 0.0
H687 H 0.08111 0.80609 0.78149 0.0
H688 H 0.01777 0.79331 0.83715 0.0
S689 S 0.09684 0.64469 0.86434 0.0
N690 N 0.12313 0.67954 0.82704 0.0
N691 N 0.05377 0.66528 0.88174 0.0
C692 C 0.05949 0.70236 0.85675 0.0
C693 C 0.09698 0.71016 0.82713 0.0
C694 C 0.70758 0.93297 0.37518 0.0
C695 C 0.74404 0.91797 0.35349 0.0
C696 C 0.6925 0.9685 0.35124 0.0
C697 C 0.71252 0.99013 0.30244 0.0
H698 H 0.68981 0.91661 0.41002 0.0
H699 H 0.66352 0.97784 0.36819 0.0
S700 S 0.81154 0.96589 0.23373 0.0
N701 N 0.80228 0.92941 0.28582 0.0
N702 N 0.77288 0.99588 0.23723 0.0
C703 C 0.75045 0.97701 0.28303 0.0
C704 C 0.76639 0.94088 0.30918 0.0
C705 C 0.99558 0.28305 0.73724 0.0
C706 C 1.00306 0.30359 0.79572 0.0
C707 C 0.95818 0.2664 0.72468 0.0
C708 C 0.92676 0.271 0.7691 0.0
H709 H 0.01853 0.28069 0.70028 0.0
H710 H 0.95332 0.25192 0.67838 0.0
S711 S 0.93256 0.31647 0.93348 0.0
N712 N 0.9774 0.32288 0.9022 0.0
N713 N 0.90675 0.29267 0.87717 0.0
C714 C 0.93466 0.28866 0.82972 0.0
C715 C 0.97292 0.30485 0.84329 0.0
C716 C 0.26191 0.48455 0.08823 0.0
C717 C 0.29603 0.48577 0.12795 0.0
C718 C 0.24893 0.44858 1.05885 0.0
C719 C 0.26916 0.41249 0.06914 0.0
H720 H 0.24511 0.5114 0.07997 0.0
H721 H 0.22342 0.44926 1.02701 0.0
S722 S 0.36063 0.39979 0.16758 0.0
N723 N 0.35169 0.44783 0.16999 0.0
N724 N 0.32374 0.38041 0.1255 0.0
C725 C 0.30241 0.41339 0.11057 0.0
C726 C 0.31693 0.44993 0.13658 0.0
C727 C 0.4781 0.73494 1.03423 0.0
C728 C 0.49375 0.77014 1.00713 0.0
C729 C 0.44109 0.73464 0.06649 0.0
C730 C 0.4186 0.76967 0.07412 0.0
H731 H 0.494 0.70724 1.0289 0.0
H732 H 0.43027 0.70669 0.08622 0.0
S733 S 0.44661 0.86935 1.01075 0.0
N734 N 0.48426 0.84083 0.99037 0.0
N735 N 0.41478 0.84012 1.0495 0.0
C736 C 0.43428 0.80499 1.04758 0.0
C737 C 0.47179 0.80527 1.0147 0.0
C738 C 0.77382 0.55423 0.13187 0.0
C739 C 0.76103 0.51989 0.09786 0.0
C740 C 0.77149 0.59221 0.10398 0.0
C741 C 0.75571 0.59738 1.04152 0.0
H742 H 0.78691 0.55168 0.17983 0.0
H743 H 0.78264 0.61753 0.1311 0.0
S744 S 0.71135 0.5193 0.93636 0.0
N745 N 0.72813 0.49494 1.00021 0.0
N746 N 0.72209 0.56655 0.94993 0.0
C747 C 0.73983 0.56416 1.00911 0.0
C748 C 0.74275 0.52535 1.03683 0.0
C749 C 0.59682 0.28633 1.02536 0.0
C750 C 0.60435 0.25574 0.07023 0.0
C751 C 0.5592 0.29139 0.99865 0.0
C752 C 0.5274 0.26602 1.01539 0.0
H753 H 0.62029 0.30665 1.01055 0.0
H754 H 0.55514 0.31483 0.96308 0.0
S755 S 0.53032 0.18304 0.13407 0.0
N756 N 0.57614 0.20093 0.13319 0.0
N757 N 0.50512 0.2103 0.08175 0.0
C758 C 0.53396 0.23597 1.06154 0.0
C759 C 0.57256 0.23068 0.08888 0.0
C760 C 0.72748 0.59297 0.77698 0.0
C761 C 0.7576 0.60126 0.82229 0.0
C762 C 0.72148 0.55447 0.75257 0.0
C763 C 0.74517 0.52233 0.77262 0.0
H764 H 0.70739 0.61611 0.76181 0.0
H765 H 0.69689 0.54954 0.7196 0.0
S766 S 0.83064 0.52872 0.88606 0.0
N767 N 0.81404 0.57467 0.8817 0.0
N768 N 0.80202 0.50221 0.83713 0.0
C769 C 0.77743 0.53074 0.81402 0.0
C770 C 0.78382 0.5702 0.83849 0.0
C771 C 0.57973 0.28023 0.29896 0.0
C772 C 0.60284 0.24739 0.28 0.0
C773 C 0.54315 0.27494 0.33097 0.0
C774 C 0.52798 0.23667 0.3434 0.0
H775 H 0.59075 0.31022 0.29181 0.0
H776 H 0.52758 0.30082 0.34895 0.0
S777 S 0.57468 0.14092 0.3 0.0
N778 N 0.60638 0.17507 0.27391 0.0
N779 N 0.53727 0.16563 0.33217 0.0
C780 C 0.54959 0.20373 0.32189 0.0
C781 C 0.58715 0.20894 0.29081 0.0
C782 C 0.27783 0.46333 0.76624 0.0
C783 C 0.24579 0.4896 0.77497 0.0
C784 C 0.2807 0.42807 0.80246 0.0
C785 C 0.25196 0.41774 0.84928 0.0
H786 H 0.29989 0.46914 0.72879 0.0
H787 H 0.30415 0.40768 0.79067 0.0
S788 S 0.16349 0.47732 0.89422 0.0
N789 N 0.18548 0.5034 0.83602 0.0
N790 N 0.19149 0.43786 0.90527 0.0
C791 C 0.22074 0.44462 0.86069 0.0
C792 C 0.21767 0.48045 0.82361 0.0
C793 C 0.4524 0.81229 0.37036 0.0
C794 C 0.48897 0.80359 0.34056 0.0
C795 C 0.41696 0.79568 0.34736 0.0
C796 C 0.41663 0.76954 0.29379 0.0
H797 H 0.45087 0.83428 0.40893 0.0
H798 H 0.3893 0.80565 0.36878 0.0
S799 S 0.50509 0.73182 0.20598 0.0
N800 N 0.52338 0.76331 0.26018 0.0
N801 N 0.45653 0.73133 0.21758 0.0
C802 C 0.45331 0.75723 0.26808 0.0
C803 C 0.4896 0.77449 0.2913 0.0
C804 C 0.74361 0.98411 0.57294 0.0
C805 C 0.77522 0.98939 0.61673 0.0
C806 C 0.73574 0.9466 0.54491 0.0
C807 C 0.75916 0.91337 0.56016 0.0
H808 H 0.72432 1.00877 0.56173 0.0
H809 H 0.71154 0.94382 0.51081 0.0
S810 S 0.84413 0.91194 0.67528 0.0
N811 N 0.82958 0.95868 0.67469 0.0
N812 N 0.81391 0.88824 0.62523 0.0
C813 C 0.79026 0.91849 0.60523 0.0
C814 C 0.7987 0.9565 0.63225 0.0
C815 C 0.97582 0.29711 0.52347 0.0
C816 C 0.99434 0.26152 0.50495 0.0
C817 C 0.9378 0.29713 0.55186 0.0
C818 C 0.91616 0.26164 0.56265 0.0
H819 H 0.99089 0.32531 0.51572 0.0
H820 H 0.92582 0.32532 0.56658 0.0
S821 S 0.95143 0.16016 0.52079 0.0
N822 N 0.98843 0.18974 0.49843 0.0
N823 N 0.91681 0.18949 0.55093 0.0
C824 C 0.9345 0.22569 0.54387 0.0
C825 C 0.97353 0.22572 0.51544 0.0
C826 C 0.24212 0.05622 0.65579 0.0
C827 C 0.26343 0.02347 0.63172 0.0
C828 C 0.2437 0.09325 0.62435 0.0
C829 C 0.26711 0.0991 0.56824 0.0
H830 H 0.22417 0.05317 0.69948 0.0
H831 H 0.22698 0.11761 0.64488 0.0
S832 S 0.32829 0.02266 0.48524 0.0
N833 N 0.30799 0.99896 0.54772 0.0
N834 N 0.31218 0.06882 0.4898 0.0
C835 C 0.28888 0.06662 0.54399 0.0
C836 C 0.2865 0.02869 0.57514 0.0
C837 C 0.08659 0.77329 0.52848 0.0
C838 C 0.09504 0.75289 0.58672 0.0
C839 C 0.04786 0.77425 0.50325 0.0
C840 C 0.01628 0.75511 0.53578 0.0
H841 H 0.11028 0.78737 0.50091 0.0
H842 H 0.04283 0.78869 0.45683 0.0
S843 S 0.02244 0.69663 0.68831 0.0
N844 N 0.06834 0.71215 0.67484 0.0
N845 N 0.99574 0.71487 0.62814 0.0
C846 C 0.02417 0.73505 0.59416 0.0
C847 C 0.06353 0.73354 0.6193 0.0
C848 C 0.27828 0.23862 0.16117 0.0
C849 C 0.25586 0.27169 0.1417 0.0
C850 C 0.27831 0.22515 0.2267 0.0
C851 C 0.25591 0.24383 0.2767 0.0
H852 H 0.29569 0.22262 0.12538 0.0
H853 H 0.29609 0.1994 0.23819 0.0
S854 S 0.19526 0.33421 0.25417 0.0
N855 N 0.2131 0.32491 0.18065 0.0
N856 N 0.21241 0.29878 0.30179 0.0
C857 C 0.2339 0.27729 0.25827 0.0
C858 C 0.23412 0.29133 0.19169 0.0
C859 C 0.28758 0.79355 0.94512 0.0
C860 C 0.27624 0.76359 0.99004 0.0
C861 C 0.27437 0.79304 0.87938 0.0
C862 C 0.24824 0.7632 0.85613 0.0
H863 H 0.30762 0.81707 0.96044 0.0
H864 H 0.28509 0.81596 0.84653 0.0
S865 S 0.20686 0.67976 0.95645 0.0
N866 N 0.23616 0.70421 1.00689 0.0
N867 N 0.20998 0.70399 0.88674 0.0
C868 C 0.23592 0.73379 0.90181 0.0
C869 C 0.2501 0.73384 0.96763 0.0
C870 C 0.73503 0.73887 0.22944 0.0
C871 C 0.75836 0.77135 0.25004 0.0
C872 C 0.73465 0.72644 0.1637 0.0
C873 C 0.75677 0.74645 0.11464 0.0
H874 H 0.7171 0.72261 0.26458 0.0
H875 H 0.71655 0.70077 0.15139 0.0
S876 S 0.81791 0.83738 0.14253 0.0
N877 N 0.80237 0.8248 0.21611 0.0
N878 N 0.79892 0.8039 0.0923 0.0
C879 C 0.77905 0.78001 0.13467 0.0
C880 C 0.78052 0.79177 0.20219 0.0
C881 C 0.73866 0.2811 0.88666 0.0
C882 C 0.77763 0.26938 0.871 0.0
C883 C 0.72388 0.2782 0.95127 0.0
C884 C 0.74785 0.26455 1.00277 0.0
H885 H 0.71897 0.29096 0.84839 0.0
H886 H 0.69329 0.28603 0.96082 0.0
S887 S 0.85197 0.23123 0.98839 0.0
N888 N 0.83961 0.24366 0.91335 0.0
N889 N 0.81238 0.23997 1.0336 0.0
C890 C 0.78691 0.25373 0.98792 0.0
C891 C 0.80164 0.25575 0.92243 0.0
C892 C 0.73469 0.79452 0.67816 0.0
C893 C 0.7559 0.77491 0.62796 0.0
C894 C 0.73517 0.78104 0.74348 0.0
C895 C 0.7559 0.74656 0.76129 0.0
H896 H 0.71797 0.82104 0.66707 0.0
H897 H 0.71947 0.79797 0.78025 0.0
S898 S 0.81469 0.68304 0.648 0.0
N899 N 0.79778 0.71891 0.60107 0.0
N900 N 0.79746 0.69249 0.7218 0.0
C901 C 0.77675 0.72641 0.7111 0.0
C902 C 0.77699 0.7407 0.64515 0.0
C903 C 0.75019 0.29107 0.47752 0.0
C904 C 0.77426 0.26085 0.50302 0.0
C905 C 0.73683 0.28983 0.41265 0.0
C906 C 0.74695 0.25831 0.37056 0.0
H907 H 0.74087 0.31551 0.50816 0.0
H908 H 0.7178 0.31345 0.39582 0.0
S909 S 0.81036 0.17218 0.4129 0.0
N910 N 0.80832 0.19874 0.48049 0.0
N911 N 0.78325 0.19633 0.35929 0.0
C912 C 0.77099 0.22783 0.39558 0.0
C913 C 0.78459 0.22912 0.4615 0.0
C914 C 0.24897 0.23247 0.75544 0.0
C915 C 0.25135 0.27308 0.77257 0.0
C916 C 0.25191 0.2197 0.6897 0.0
C917 C 0.25888 0.24654 0.63767 0.0
H918 H 0.24467 0.21017 0.79281 0.0
H919 H 0.24895 0.18821 0.67953 0.0
S920 S 0.26882 0.35593 0.65579 0.0
N921 N 0.26073 0.34009 0.73103 0.0
N922 N 0.26862 0.3159 0.60893 0.0
C923 C 0.26193 0.28711 0.65414 0.0
C924 C 0.25741 0.30032 0.72089 0.0
C925 C 0.23838 0.77677 0.38182 0.0
C926 C 0.27481 0.75944 0.36423 0.0
C927 C 0.22525 0.77781 0.44762 0.0
C928 C 0.24802 0.76203 0.49946 0.0
H929 H 0.21947 0.78903 0.3444 0.0
H930 H 0.19666 0.79099 0.45778 0.0
S931 S 0.34816 0.71813 0.48052 0.0
N932 N 0.3346 0.72832 0.40518 0.0
N933 N 0.31101 0.73232 0.52763 0.0
C934 C 0.28509 0.7459 0.48251 0.0
C935 C 0.29812 0.74413 0.41552 0.0
loop_
_geom_bond_atom_site_label_1
_geom_bond_atom_site_label_2
_geom_bond_distance
_geom_bond_site_symmetry_2
_ccdc_geom_bond_type
Tb0 N29 2.617 . S
Tb0 N35 2.572 . S
Tb0 O44 2.465 . S
Tb0 O45 2.387 . S
Tb0 O47 2.428 . S
Tb0 O48 2.308 . S
Tb0 O52 2.349 . S
Tb0 O55 2.393 . S
Tb0 C64 2.802 . S
C1 N2 1.379 . S
C1 C4 1.416 . S
C1 C8 1.424 . S
N2 C1 1.379 . S
N2 C5 1.334 . S
N2 Tb11 2.617 . S
C3 C5 1.390 . S
C3 C6 1.339 . S
C3 H23 0.930 . S
C4 C1 1.416 . S
C4 C6 1.416 . S
C4 C10 1.448 . S
C5 N2 1.334 . S
C5 C3 1.390 . S
C5 H16 0.930 . S
C6 C3 1.339 . S
C6 C4 1.416 . S
C6 H27 0.930 . S
C7 C8 1.413 . S
C7 C9 1.427 . S
C7 C13 1.416 . S
C8 C1 1.424 . S
C8 C7 1.413 . S
C8 N12 1.361 . S
C9 C7 1.427 . S
C9 C10 1.328 . S
C9 H24 0.929 . S
C10 C4 1.448 . S
C10 C9 1.328 . S
C10 H25 0.930 . S
Tb11 N2 2.617 . S
Tb11 N12 2.572 . S
Tb11 O46 2.349 . S
Tb11 O49 2.393 . S
Tb11 O50 2.465 . S
Tb11 O51 2.387 . S
Tb11 O53 2.428 . S
Tb11 O54 2.308 . S
Tb11 C75 2.802 . S
N12 C8 1.361 . S
N12 Tb11 2.572 . S
N12 C14 1.340 . S
C13 C7 1.416 . S
C13 C15 1.332 . S
C13 H21 0.931 . S
C14 N12 1.340 . S
C14 C15 1.407 . S
C14 H20 0.930 . S
C15 C13 1.332 . S
C15 C14 1.407 . S
C15 H17 0.929 . S
H16 C5 0.930 . S
H17 C15 0.929 . S
H18 C33 0.930 . S
H19 C40 0.929 . S
H20 C14 0.930 . S
H21 C13 0.931 . S
H22 C36 0.930 . S
H23 C3 0.930 . S
H24 C9 0.929 . S
H25 C10 0.930 . S
H26 C31 0.930 . S
H27 C6 0.930 . S
H28 C39 0.931 . S
N29 Tb0 2.617 . S
N29 C30 1.379 . S
N29 C33 1.334 . S
C30 N29 1.379 . S
C30 C32 1.416 . S
C30 C38 1.424 . S
C31 H26 0.930 . S
C31 C33 1.390 . S
C31 C34 1.339 . S
C32 C30 1.416 . S
C32 C34 1.416 . S
C32 C65 1.448 . S
C33 H18 0.930 . S
C33 N29 1.334 . S
C33 C31 1.390 . S
C34 C31 1.339 . S
C34 C32 1.416 . S
C34 H41 0.930 . S
N35 Tb0 2.572 . S
N35 C36 1.340 . S
N35 C38 1.361 . S
C36 H22 0.930 . S
C36 N35 1.340 . S
C36 C40 1.407 . S
C37 C38 1.413 . S
C37 C39 1.416 . S
C37 C66 1.427 . S
C38 C30 1.424 . S
C38 N35 1.361 . S
C38 C37 1.413 . S
C39 H28 0.931 . S
C39 C37 1.416 . S
C39 C40 1.332 . S
C40 H19 0.929 . S
C40 C36 1.407 . S
C40 C39 1.332 . S
H41 C34 0.930 . S
H42 C65 0.930 . S
H43 C66 0.929 . S
O44 Tb0 2.465 . S
O44 C64 1.264 . S
O45 Tb0 2.387 . S
O45 C56 1.264 . S
O46 Tb11 2.349 . S
O46 C56 1.243 . S
O47 Tb0 2.428 . S
O47 C64 1.256 . S
O48 Tb0 2.308 . S
O48 C63 1.266 . S
O49 Tb11 2.393 . S
O49 C63 1.248 . S
O50 Tb11 2.465 . S
O50 C75 1.264 . S
O51 Tb11 2.387 . S
O51 C67 1.264 . S
O52 Tb0 2.349 . S
O52 C67 1.243 . S
O53 Tb11 2.428 . S
O53 C75 1.256 . S
O54 Tb11 2.308 . S
O54 C74 1.266 . S
O55 Tb0 2.393 . S
O55 C74 1.248 . S
C56 O45 1.264 . S
C56 O46 1.243 . S
C57 C60 1.399 . S
C57 C62 1.383 . S
C57 C64 1.496 . S
C58 C59 1.399 . S
C58 C62 1.389 . S
C59 C58 1.399 . S
C59 C61 1.380 . S
C59 H76 0.929 . S
C60 C57 1.399 . S
C60 C61 1.392 . S
C60 H77 0.929 . S
C61 C59 1.380 . S
C61 C60 1.392 . S
C61 H78 0.929 . S
C62 C57 1.383 . S
C62 C58 1.389 . S
C62 H79 0.931 . S
C63 O48 1.266 . S
C63 O49 1.248 . S
C64 Tb0 2.802 . S
C64 O44 1.264 . S
C64 O47 1.256 . S
C64 C57 1.496 . S
C65 C32 1.448 . S
C65 H42 0.930 . S
C65 C66 1.328 . S
C66 C37 1.427 . S
C66 H43 0.929 . S
C66 C65 1.328 . S
C67 O51 1.264 . S
C67 O52 1.243 . S
C68 C71 1.399 . S
C68 C72 1.383 . S
C68 C75 1.496 . S
C69 C70 1.399 . S
C69 C72 1.389 . S
C70 C69 1.399 . S
C70 C73 1.380 . S
C70 H80 0.929 1_455 S
C71 C68 1.399 . S
C71 C73 1.392 . S
C71 H81 0.929 . S
C72 C68 1.383 . S
C72 C69 1.389 . S
C72 H82 0.931 . S
C73 C70 1.380 . S
C73 C71 1.392 . S
C73 H83 0.929 . S
C74 O54 1.266 . S
C74 O55 1.248 . S
C75 Tb11 2.802 . S
C75 O50 1.264 . S
C75 O53 1.256 . S
C75 C68 1.496 . S
H76 C59 0.929 . S
H77 C60 0.929 . S
H78 C61 0.929 . S
H79 C62 0.931 . S
H80 C70 0.929 1_655 S
H81 C71 0.929 . S
H82 C72 0.931 . S
H83 C73 0.929 . S
Tb84 N113 2.617 . S
Tb84 N119 2.572 . S
Tb84 O128 2.465 . S
Tb84 O129 2.387 . S
Tb84 O131 2.428 . S
Tb84 O132 2.308 . S
Tb84 O136 2.349 . S
Tb84 O139 2.393 . S
Tb84 C148 2.802 . S
C85 N86 1.379 . S
C85 C88 1.416 . S
C85 C92 1.424 . S
N86 C85 1.379 . S
N86 C89 1.334 . S
N86 Tb95 2.617 . S
C87 C89 1.390 . S
C87 C90 1.339 . S
C87 H107 0.930 . S
C88 C85 1.416 . S
C88 C90 1.416 . S
C88 C94 1.448 . S
C89 N86 1.334 . S
C89 C87 1.390 . S
C89 H100 0.930 . S
C90 C87 1.339 . S
C90 C88 1.416 . S
C90 H111 0.930 . S
C91 C92 1.413 . S
C91 C93 1.427 . S
C91 C97 1.416 . S
C92 C85 1.424 . S
C92 C91 1.413 . S
C92 N96 1.361 . S
C93 C91 1.427 . S
C93 C94 1.328 . S
C93 H108 0.929 . S
C94 C88 1.448 . S
C94 C93 1.328 . S
C94 H109 0.930 . S
Tb95 N86 2.617 . S
Tb95 N96 2.572 . S
Tb95 O130 2.349 . S
Tb95 O133 2.393 . S
Tb95 O134 2.465 . S
Tb95 O135 2.387 . S
Tb95 O137 2.428 . S
Tb95 O138 2.308 . S
Tb95 C159 2.802 . S
N96 C92 1.361 . S
N96 Tb95 2.572 . S
N96 C98 1.340 . S
C97 C91 1.416 . S
C97 C99 1.332 . S
C97 H105 0.931 . S
C98 N96 1.340 . S
C98 C99 1.407 . S
C98 H104 0.930 . S
C99 C97 1.332 . S
C99 C98 1.407 . S
C99 H101 0.929 . S
H100 C89 0.930 . S
H101 C99 0.929 . S
H102 C117 0.930 . S
H103 C124 0.929 . S
H104 C98 0.930 . S
H105 C97 0.931 . S
H106 C120 0.930 . S
H107 C87 0.930 . S
H108 C93 0.929 . S
H109 C94 0.930 . S
H110 C115 0.930 . S
H111 C90 0.930 . S
H112 C123 0.931 . S
N113 Tb84 2.617 . S
N113 C114 1.379 . S
N113 C117 1.334 . S
C114 N113 1.379 . S
C114 C116 1.416 . S
C114 C122 1.424 . S
C115 H110 0.930 . S
C115 C117 1.390 . S
C115 C118 1.339 . S
C116 C114 1.416 . S
C116 C118 1.416 . S
C116 C149 1.448 . S
C117 H102 0.930 . S
C117 N113 1.334 . S
C117 C115 1.390 . S
C118 C115 1.339 . S
C118 C116 1.416 . S
C118 H125 0.930 . S
N119 Tb84 2.572 . S
N119 C120 1.340 . S
N119 C122 1.361 . S
C120 H106 0.930 . S
C120 N119 1.340 . S
C120 C124 1.407 . S
C121 C122 1.413 . S
C121 C123 1.416 . S
C121 C150 1.427 . S
C122 C114 1.424 . S
C122 N119 1.361 . S
C122 C121 1.413 . S
C123 H112 0.931 . S
C123 C121 1.416 . S
C123 C124 1.332 . S
C124 H103 0.929 . S
C124 C120 1.407 . S
C124 C123 1.332 . S
H125 C118 0.930 . S
H126 C149 0.930 . S
H127 C150 0.929 . S
O128 Tb84 2.465 . S
O128 C148 1.264 . S
O129 Tb84 2.387 . S
O129 C140 1.264 . S
O130 Tb95 2.349 . S
O130 C140 1.243 . S
O131 Tb84 2.428 . S
O131 C148 1.256 . S
O132 Tb84 2.308 . S
O132 C147 1.266 . S
O133 Tb95 2.393 . S
O133 C147 1.248 . S
O134 Tb95 2.465 . S
O134 C159 1.264 . S
O135 Tb95 2.387 . S
O135 C151 1.264 . S
O136 Tb84 2.349 . S
O136 C151 1.243 . S
O137 Tb95 2.428 . S
O137 C159 1.256 . S
O138 Tb95 2.308 . S
O138 C158 1.266 . S
O139 Tb84 2.393 . S
O139 C158 1.248 . S
C140 O129 1.264 . S
C140 O130 1.243 . S
C141 C144 1.399 . S
C141 C146 1.383 . S
C141 C148 1.496 . S
C142 C143 1.399 . S
C142 C146 1.389 . S
C143 C142 1.399 . S
C143 C145 1.380 . S
C143 H160 0.929 1_565 S
C144 C141 1.399 . S
C144 C145 1.392 . S
C144 H161 0.929 . S
C145 C143 1.380 . S
C145 C144 1.392 . S
C145 H162 0.929 . S
C146 C141 1.383 . S
C146 C142 1.389 . S
C146 H163 0.931 . S
C147 O132 1.266 . S
C147 O133 1.248 . S
C148 Tb84 2.802 . S
C148 O128 1.264 . S
C148 O131 1.256 . S
C148 C141 1.496 . S
C149 C116 1.448 . S
C149 H126 0.930 . S
C149 C150 1.328 . S
C150 C121 1.427 . S
C150 H127 0.929 . S
C150 C149 1.328 . S
C151 O135 1.264 . S
C151 O136 1.243 . S
C152 C155 1.399 . S
C152 C156 1.383 . S
C152 C159 1.496 . S
C153 C154 1.399 . S
C153 C156 1.389 . S
C154 C153 1.399 . S
C154 C157 1.380 . S
C154 H164 0.929 . S
C155 C152 1.399 . S
C155 C157 1.392 . S
C155 H165 0.929 . S
C156 C152 1.383 . S
C156 C153 1.389 . S
C156 H166 0.931 . S
C157 C154 1.380 . S
C157 C155 1.392 . S
C157 H167 0.929 . S
C158 O138 1.266 . S
C158 O139 1.248 . S
C159 Tb95 2.802 . S
C159 O134 1.264 . S
C159 O137 1.256 . S
C159 C152 1.496 . S
H160 C143 0.929 1_545 S
H161 C144 0.929 . S
H162 C145 0.929 . S
H163 C146 0.931 . S
H164 C154 0.929 . S
H165 C155 0.929 . S
H166 C156 0.931 . S
H167 C157 0.929 . S
Tb168 N197 2.617 . S
Tb168 N203 2.572 . S
Tb168 O212 2.465 . S
Tb168 O213 2.387 . S
Tb168 O215 2.428 . S
Tb168 O216 2.308 . S
Tb168 O220 2.349 . S
Tb168 O223 2.393 . S
Tb168 C232 2.802 . S
C169 N170 1.379 . S
C169 C172 1.416 . S
C169 C176 1.424 . S
N170 C169 1.379 . S
N170 C173 1.334 . S
N170 Tb179 2.617 . S
C171 C173 1.390 . S
C171 C174 1.339 . S
C171 H191 0.930 . S
C172 C169 1.416 . S
C172 C174 1.416 . S
C172 C178 1.448 . S
C173 N170 1.334 . S
C173 C171 1.390 . S
C173 H184 0.930 . S
C174 C171 1.339 . S
C174 C172 1.416 . S
C174 H195 0.930 . S
C175 C176 1.413 . S
C175 C177 1.427 . S
C175 C181 1.416 . S
C176 C169 1.424 . S
C176 C175 1.413 . S
C176 N180 1.361 . S
C177 C175 1.427 . S
C177 C178 1.328 . S
C177 H192 0.929 . S
C178 C172 1.448 . S
C178 C177 1.328 . S
C178 H193 0.930 . S
Tb179 N170 2.617 . S
Tb179 N180 2.572 . S
Tb179 O214 2.349 . S
Tb179 O217 2.393 . S
Tb179 O218 2.465 . S
Tb179 O219 2.387 . S
Tb179 O221 2.428 . S
Tb179 O222 2.308 . S
Tb179 C243 2.802 . S
N180 C176 1.361 . S
N180 Tb179 2.572 . S
N180 C182 1.340 . S
C181 C175 1.416 . S
C181 C183 1.332 . S
C181 H189 0.931 . S
C182 N180 1.340 . S
C182 C183 1.407 . S
C182 H188 0.930 . S
C183 C181 1.332 . S
C183 C182 1.407 . S
C183 H185 0.929 . S
H184 C173 0.930 . S
H185 C183 0.929 . S
H186 C201 0.930 . S
H187 C208 0.929 . S
H188 C182 0.930 . S
H189 C181 0.931 . S
H190 C204 0.930 . S
H191 C171 0.930 . S
H192 C177 0.929 . S
H193 C178 0.930 . S
H194 C199 0.930 . S
H195 C174 0.930 . S
H196 C207 0.931 . S
N197 Tb168 2.617 . S
N197 C198 1.379 . S
N197 C201 1.334 . S
C198 N197 1.379 . S
C198 C200 1.416 . S
C198 C206 1.424 . S
C199 H194 0.930 . S
C199 C201 1.390 . S
C199 C202 1.339 . S
C200 C198 1.416 . S
C200 C202 1.416 . S
C200 C233 1.448 . S
C201 H186 0.930 . S
C201 N197 1.334 . S
C201 C199 1.390 . S
C202 C199 1.339 . S
C202 C200 1.416 . S
C202 H209 0.930 . S
N203 Tb168 2.572 . S
N203 C204 1.340 . S
N203 C206 1.361 . S
C204 H190 0.930 . S
C204 N203 1.340 . S
C204 C208 1.407 . S
C205 C206 1.413 . S
C205 C207 1.416 . S
C205 C234 1.427 . S
C206 C198 1.424 . S
C206 N203 1.361 . S
C206 C205 1.413 . S
C207 H196 0.931 . S
C207 C205 1.416 . S
C207 C208 1.332 . S
C208 H187 0.929 . S
C208 C204 1.407 . S
C208 C207 1.332 . S
H209 C202 0.930 . S
H210 C233 0.930 . S
H211 C234 0.929 . S
O212 Tb168 2.465 . S
O212 C232 1.264 . S
O213 Tb168 2.387 . S
O213 C224 1.264 . S
O214 Tb179 2.349 . S
O214 C224 1.243 . S
O215 Tb168 2.428 . S
O215 C232 1.256 . S
O216 Tb168 2.308 . S
O216 C231 1.266 . S
O217 Tb179 2.393 . S
O217 C231 1.248 . S
O218 Tb179 2.465 . S
O218 C243 1.264 . S
O219 Tb179 2.387 . S
O219 C235 1.264 . S
O220 Tb168 2.349 . S
O220 C235 1.243 . S
O221 Tb179 2.428 . S
O221 C243 1.256 . S
O222 Tb179 2.308 . S
O222 C242 1.266 . S
O223 Tb168 2.393 . S
O223 C242 1.248 . S
C224 O213 1.264 . S
C224 O214 1.243 . S
C225 C228 1.399 . S
C225 C230 1.383 . S
C225 C232 1.496 . S
C226 C227 1.399 . S
C226 C230 1.389 . S
C227 C226 1.399 . S
C227 C229 1.380 . S
C227 H244 0.929 . S
C228 C225 1.399 . S
C228 C229 1.392 . S
C228 H245 0.929 . S
C229 C227 1.380 . S
C229 C228 1.392 . S
C229 H246 0.929 . S
C230 C225 1.383 . S
C230 C226 1.389 . S
C230 H247 0.931 . S
C231 O216 1.266 . S
C231 O217 1.248 . S
C232 Tb168 2.802 . S
C232 O212 1.264 . S
C232 O215 1.256 . S
C232 C225 1.496 . S
C233 C200 1.448 . S
C233 H210 0.930 . S
C233 C234 1.328 . S
C234 C205 1.427 . S
C234 H211 0.929 . S
C234 C233 1.328 . S
C235 O219 1.264 . S
C235 O220 1.243 . S
C236 C239 1.399 . S
C236 C240 1.383 . S
C236 C243 1.496 . S
C237 C238 1.399 . S
C237 C240 1.389 . S
C238 C237 1.399 . S
C238 C241 1.380 . S
C238 H248 0.929 1_655 S
C239 C236 1.399 . S
C239 C241 1.392 . S
C239 H249 0.929 . S
C240 C236 1.383 . S
C240 C237 1.389 . S
C240 H250 0.931 . S
C241 C238 1.380 . S
C241 C239 1.392 . S
C241 H251 0.929 . S
C242 O222 1.266 . S
C242 O223 1.248 . S
C243 Tb179 2.802 . S
C243 O218 1.264 . S
C243 O221 1.256 . S
C243 C236 1.496 . S
H244 C227 0.929 . S
H245 C228 0.929 . S
H246 C229 0.929 . S
H247 C230 0.931 . S
H248 C238 0.929 1_455 S
H249 C239 0.929 . S
H250 C240 0.931 . S
H251 C241 0.929 . S
Tb252 N281 2.617 . S
Tb252 N287 2.572 . S
Tb252 O296 2.465 . S
Tb252 O297 2.387 . S
Tb252 O299 2.428 . S
Tb252 O300 2.308 . S
Tb252 O304 2.349 . S
Tb252 O307 2.393 . S
Tb252 C316 2.802 . S
C253 N254 1.379 . S
C253 C256 1.416 . S
C253 C260 1.424 . S
N254 C253 1.379 . S
N254 C257 1.334 . S
N254 Tb263 2.617 . S
C255 C257 1.390 . S
C255 C258 1.339 . S
C255 H275 0.930 . S
C256 C253 1.416 . S
C256 C258 1.416 . S
C256 C262 1.448 . S
C257 N254 1.334 . S
C257 C255 1.390 . S
C257 H268 0.930 . S
C258 C255 1.339 . S
C258 C256 1.416 . S
C258 H279 0.930 . S
C259 C260 1.413 . S
C259 C261 1.427 . S
C259 C265 1.416 . S
C260 C253 1.424 . S
C260 C259 1.413 . S
C260 N264 1.361 . S
C261 C259 1.427 . S
C261 C262 1.328 . S
C261 H276 0.929 . S
C262 C256 1.448 . S
C262 C261 1.328 . S
C262 H277 0.930 . S
Tb263 N254 2.617 . S
Tb263 N264 2.572 . S
Tb263 O298 2.349 . S
Tb263 O301 2.393 . S
Tb263 O302 2.465 . S
Tb263 O303 2.387 . S
Tb263 O305 2.428 . S
Tb263 O306 2.308 . S
Tb263 C327 2.802 . S
N264 C260 1.361 . S
N264 Tb263 2.572 . S
N264 C266 1.340 . S
C265 C259 1.416 . S
C265 C267 1.332 . S
C265 H273 0.931 . S
C266 N264 1.340 . S
C266 C267 1.407 . S
C266 H272 0.930 . S
C267 C265 1.332 . S
C267 C266 1.407 . S
C267 H269 0.929 . S
H268 C257 0.930 . S
H269 C267 0.929 . S
H270 C285 0.930 . S
H271 C292 0.929 . S
H272 C266 0.930 . S
H273 C265 0.931 . S
H274 C288 0.930 . S
H275 C255 0.930 . S
H276 C261 0.929 . S
H277 C262 0.930 . S
H278 C283 0.930 . S
H279 C258 0.930 . S
H280 C291 0.931 . S
N281 Tb252 2.617 . S
N281 C282 1.379 . S
N281 C285 1.334 . S
C282 N281 1.379 . S
C282 C284 1.416 . S
C282 C290 1.424 . S
C283 H278 0.930 . S
C283 C285 1.390 . S
C283 C286 1.339 . S
C284 C282 1.416 . S
C284 C286 1.416 . S
C284 C317 1.448 . S
C285 H270 0.930 . S
C285 N281 1.334 . S
C285 C283 1.390 . S
C286 C283 1.339 . S
C286 C284 1.416 . S
C286 H293 0.930 . S
N287 Tb252 2.572 . S
N287 C288 1.340 . S
N287 C290 1.361 . S
C288 H274 0.930 . S
C288 N287 1.340 . S
C288 C292 1.407 . S
C289 C290 1.413 . S
C289 C291 1.416 . S
C289 C318 1.427 . S
C290 C282 1.424 . S
C290 N287 1.361 . S
C290 C289 1.413 . S
C291 H280 0.931 . S
C291 C289 1.416 . S
C291 C292 1.332 . S
C292 H271 0.929 . S
C292 C288 1.407 . S
C292 C291 1.332 . S
H293 C286 0.930 . S
H294 C317 0.930 . S
H295 C318 0.929 . S
O296 Tb252 2.465 . S
O296 C316 1.264 . S
O297 Tb252 2.387 . S
O297 C308 1.264 . S
O298 Tb263 2.349 . S
O298 C308 1.243 . S
O299 Tb252 2.428 . S
O299 C316 1.256 . S
O300 Tb252 2.308 . S
O300 C315 1.266 . S
O301 Tb263 2.393 . S
O301 C315 1.248 . S
O302 Tb263 2.465 . S
O302 C327 1.264 . S
O303 Tb263 2.387 . S
O303 C319 1.264 . S
O304 Tb252 2.349 . S
O304 C319 1.243 . S
O305 Tb263 2.428 . S
O305 C327 1.256 . S
O306 Tb263 2.308 . S
O306 C326 1.266 . S
O307 Tb252 2.393 . S
O307 C326 1.248 . S
C308 O297 1.264 . S
C308 O298 1.243 . S
C309 C312 1.399 . S
C309 C314 1.383 . S
C309 C316 1.496 . S
C310 C311 1.399 . S
C310 C314 1.389 . S
C311 C310 1.399 . S
C311 C313 1.380 . S
C311 H328 0.929 . S
C312 C309 1.399 . S
C312 C313 1.392 . S
C312 H329 0.929 . S
C313 C311 1.380 . S
C313 C312 1.392 . S
C313 H330 0.929 . S
C314 C309 1.383 . S
C314 C310 1.389 . S
C314 H331 0.931 . S
C315 O300 1.266 . S
C315 O301 1.248 . S
C316 Tb252 2.802 . S
C316 O296 1.264 . S
C316 O299 1.256 . S
C316 C309 1.496 . S
C317 C284 1.448 . S
C317 H294 0.930 . S
C317 C318 1.328 . S
C318 C289 1.427 . S
C318 H295 0.929 . S
C318 C317 1.328 . S
C319 O303 1.264 . S
C319 O304 1.243 . S
C320 C323 1.399 . S
C320 C324 1.383 . S
C320 C327 1.496 . S
C321 C322 1.399 . S
C321 C324 1.389 . S
C322 C321 1.399 . S
C322 C325 1.380 . S
C322 H332 0.929 1_545 S
C323 C320 1.399 . S
C323 C325 1.392 . S
C323 H333 0.929 . S
C324 C320 1.383 . S
C324 C321 1.389 . S
C324 H334 0.931 . S
C325 C322 1.380 . S
C325 C323 1.392 . S
C325 H335 0.929 . S
C326 O306 1.266 . S
C326 O307 1.248 . S
C327 Tb263 2.802 . S
C327 O302 1.264 . S
C327 O305 1.256 . S
C327 C320 1.496 . S
H328 C311 0.929 . S
H329 C312 0.929 . S
H330 C313 0.929 . S
H331 C314 0.931 . S
H332 C322 0.929 1_565 S
H333 C323 0.929 . S
H334 C324 0.931 . S
H335 C325 0.929 . S
Tb336 N365 2.617 . S
Tb336 N371 2.572 . S
Tb336 O380 2.465 . S
Tb336 O381 2.387 . S
Tb336 O383 2.428 . S
Tb336 O384 2.308 . S
Tb336 O388 2.349 . S
Tb336 O391 2.393 . S
Tb336 C400 2.802 . S
C337 N338 1.379 . S
C337 C340 1.416 . S
C337 C344 1.424 . S
N338 C337 1.379 . S
N338 C341 1.334 . S
N338 Tb347 2.617 . S
C339 C341 1.390 . S
C339 C342 1.339 . S
C339 H359 0.930 . S
C340 C337 1.416 . S
C340 C342 1.416 . S
C340 C346 1.448 . S
C341 N338 1.334 . S
C341 C339 1.390 . S
C341 H352 0.930 . S
C342 C339 1.339 . S
C342 C340 1.416 . S
C342 H363 0.930 . S
C343 C344 1.413 . S
C343 C345 1.427 . S
C343 C349 1.416 . S
C344 C337 1.424 . S
C344 C343 1.413 . S
C344 N348 1.361 . S
C345 C343 1.427 . S
C345 C346 1.328 . S
C345 H360 0.929 . S
C346 C340 1.448 . S
C346 C345 1.328 . S
C346 H361 0.930 . S
Tb347 N338 2.617 . S
Tb347 N348 2.572 . S
Tb347 O382 2.349 . S
Tb347 O385 2.393 . S
Tb347 O386 2.465 . S
Tb347 O387 2.387 . S
Tb347 O389 2.428 . S
Tb347 O390 2.308 . S
Tb347 C411 2.802 . S
N348 C344 1.361 . S
N348 Tb347 2.572 . S
N348 C350 1.340 . S
C349 C343 1.416 . S
C349 C351 1.332 . S
C349 H357 0.931 . S
C350 N348 1.340 . S
C350 C351 1.407 . S
C350 H356 0.930 . S
C351 C349 1.332 . S
C351 C350 1.407 . S
C351 H353 0.929 . S
H352 C341 0.930 . S
H353 C351 0.929 . S
H354 C369 0.930 . S
H355 C376 0.929 . S
H356 C350 0.930 . S
H357 C349 0.931 . S
H358 C372 0.930 . S
H359 C339 0.930 . S
H360 C345 0.929 . S
H361 C346 0.930 . S
H362 C367 0.930 . S
H363 C342 0.930 . S
H364 C375 0.931 . S
N365 Tb336 2.617 . S
N365 C366 1.379 1_556 S
N365 C369 1.334 1_556 S
C366 N365 1.379 1_554 S
C366 C368 1.416 . S
C366 C374 1.424 1_554 S
C367 H362 0.930 . S
C367 C369 1.390 . S
C367 C370 1.339 . S
C368 C366 1.416 . S
C368 C370 1.416 . S
C368 C401 1.448 . S
C369 H354 0.930 . S
C369 N365 1.334 1_554 S
C369 C367 1.390 . S
C370 C367 1.339 . S
C370 C368 1.416 . S
C370 H377 0.930 . S
N371 Tb336 2.572 . S
N371 C372 1.340 . S
N371 C374 1.361 . S
C372 H358 0.930 . S
C372 N371 1.340 . S
C372 C376 1.407 . S
C373 C374 1.413 1_554 S
C373 C375 1.416 1_554 S
C373 C402 1.427 . S
C374 C366 1.424 1_556 S
C374 N371 1.361 . S
C374 C373 1.413 1_556 S
C375 H364 0.931 . S
C375 C373 1.416 1_556 S
C375 C376 1.332 . S
C376 H355 0.929 . S
C376 C372 1.407 . S
C376 C375 1.332 . S
H377 C370 0.930 . S
H378 C401 0.930 . S
H379 C402 0.929 . S
O380 Tb336 2.465 . S
O380 C400 1.264 . S
O381 Tb336 2.387 . S
O381 C392 1.264 . S
O382 Tb347 2.349 . S
O382 C392 1.243 . S
O383 Tb336 2.428 . S
O383 C400 1.256 . S
O384 Tb336 2.308 . S
O384 C399 1.266 . S
O385 Tb347 2.393 . S
O385 C399 1.248 . S
O386 Tb347 2.465 . S
O386 C411 1.264 . S
O387 Tb347 2.387 . S
O387 C403 1.264 . S
O388 Tb336 2.349 . S
O388 C403 1.243 . S
O389 Tb347 2.428 . S
O389 C411 1.256 . S
O390 Tb347 2.308 . S
O390 C410 1.266 . S
O391 Tb336 2.393 . S
O391 C410 1.248 . S
C392 O381 1.264 . S
C392 O382 1.243 . S
C393 C396 1.399 . S
C393 C398 1.383 . S
C393 C400 1.496 . S
C394 C395 1.399 . S
C394 C398 1.389 . S
C395 C394 1.399 . S
C395 C397 1.380 . S
C395 H412 0.929 1_455 S
C396 C393 1.399 . S
C396 C397 1.392 . S
C396 H413 0.929 . S
C397 C395 1.380 . S
C397 C396 1.392 . S
C397 H414 0.929 . S
C398 C393 1.383 . S
C398 C394 1.389 . S
C398 H415 0.931 . S
C399 O384 1.266 . S
C399 O385 1.248 . S
C400 Tb336 2.802 . S
C400 O380 1.264 . S
C400 O383 1.256 . S
C400 C393 1.496 . S
C401 C368 1.448 . S
C401 H378 0.930 . S
C401 C402 1.328 . S
C402 C373 1.427 . S
C402 H379 0.929 . S
C402 C401 1.328 . S
C403 O387 1.264 . S
C403 O388 1.243 . S
C404 C407 1.399 . S
C404 C408 1.383 . S
C404 C411 1.496 . S
C405 C406 1.399 1_554 S
C405 C408 1.389 1_554 S
C406 C405 1.399 1_556 S
C406 C409 1.380 . S
C406 H416 0.929 . S
C407 C404 1.399 . S
C407 C409 1.392 . S
C407 H417 0.929 . S
C408 C404 1.383 . S
C408 C405 1.389 1_556 S
C408 H418 0.931 1_556 S
C409 C406 1.380 . S
C409 C407 1.392 . S
C409 H419 0.929 . S
C410 O390 1.266 . S
C410 O391 1.248 . S
C411 Tb347 2.802 . S
C411 O386 1.264 . S
C411 O389 1.256 . S
C411 C404 1.496 . S
H412 C395 0.929 1_655 S
H413 C396 0.929 . S
H414 C397 0.929 . S
H415 C398 0.931 . S
H416 C406 0.929 . S
H417 C407 0.929 . S
H418 C408 0.931 1_554 S
H419 C409 0.929 . S
Tb420 N449 2.599 1_554 S
Tb420 N455 2.572 . S
Tb420 O464 2.465 . S
Tb420 O465 2.387 . S
Tb420 O467 2.428 . S
Tb420 O468 2.308 . S
Tb420 O472 2.349 . S
Tb420 O475 2.393 . S
Tb420 C484 2.802 . S
C421 N422 1.379 . S
C421 C424 1.416 . S
C421 C428 1.424 . S
N422 C421 1.379 . S
N422 C425 1.334 . S
N422 Tb431 2.617 . S
C423 C425 1.390 . S
C423 C426 1.339 . S
C423 H443 0.930 . S
C424 C421 1.416 . S
C424 C426 1.416 . S
C424 C430 1.448 . S
C425 N422 1.334 . S
C425 C423 1.390 . S
C425 H436 0.930 . S
C426 C423 1.339 . S
C426 C424 1.416 . S
C426 H447 0.930 . S
C427 C428 1.413 . S
C427 C429 1.427 . S
C427 C433 1.416 . S
C428 C421 1.424 . S
C428 C427 1.413 . S
C428 N432 1.361 . S
C429 C427 1.427 . S
C429 C430 1.328 . S
C429 H444 0.929 . S
C430 C424 1.448 . S
C430 C429 1.328 . S
C430 H445 0.930 . S
Tb431 N422 2.617 . S
Tb431 N432 2.572 . S
Tb431 O466 2.349 . S
Tb431 O469 2.393 . S
Tb431 O470 2.465 . S
Tb431 O471 2.387 . S
Tb431 O473 2.428 . S
Tb431 O474 2.308 . S
Tb431 C495 2.802 . S
N432 C428 1.361 . S
N432 Tb431 2.572 . S
N432 C434 1.340 . S
C433 C427 1.416 . S
C433 C435 1.332 . S
C433 H441 0.931 . S
C434 N432 1.340 . S
C434 C435 1.407 . S
C434 H440 0.930 . S
C435 C433 1.332 . S
C435 C434 1.407 . S
C435 H437 0.929 . S
H436 C425 0.930 . S
H437 C435 0.929 . S
H438 C453 0.930 . S
H439 C460 0.929 . S
H440 C434 0.930 . S
H441 C433 0.931 . S
H442 C456 0.930 . S
H443 C423 0.930 . S
H444 C429 0.929 . S
H445 C430 0.930 . S
H446 C451 0.930 . S
H447 C426 0.930 . S
H448 C459 0.931 . S
N449 Tb420 2.599 1_556 S
N449 C450 1.387 . S
N449 C453 1.346 . S
C450 N449 1.387 . S
C450 C452 1.416 . S
C450 C458 1.424 1_556 S
C451 H446 0.930 . S
C451 C453 1.390 . S
C451 C454 1.339 . S
C452 C450 1.416 . S
C452 C454 1.416 . S
C452 C485 1.448 . S
C453 H438 0.930 . S
C453 N449 1.346 . S
C453 C451 1.390 . S
C454 C451 1.339 . S
C454 C452 1.416 . S
C454 H461 0.930 . S
N455 Tb420 2.572 . S
N455 C456 1.340 . S
N455 C458 1.361 . S
C456 H442 0.930 . S
C456 N455 1.340 . S
C456 C460 1.407 . S
C457 C458 1.413 1_556 S
C457 C459 1.416 1_556 S
C457 C486 1.427 . S
C458 C450 1.424 1_554 S
C458 N455 1.361 . S
C458 C457 1.413 1_554 S
C459 H448 0.931 . S
C459 C457 1.416 1_554 S
C459 C460 1.332 . S
C460 H439 0.929 . S
C460 C456 1.407 . S
C460 C459 1.332 . S
H461 C454 0.930 . S
H462 C485 0.930 . S
H463 C486 0.929 . S
O464 Tb420 2.465 . S
O464 C484 1.264 . S
O465 Tb420 2.387 . S
O465 C476 1.264 . S
O466 Tb431 2.349 . S
O466 C476 1.243 . S
O467 Tb420 2.428 . S
O467 C484 1.256 . S
O468 Tb420 2.308 . S
O468 C483 1.266 . S
O469 Tb431 2.393 . S
O469 C483 1.248 . S
O470 Tb431 2.465 . S
O470 C495 1.264 . S
O471 Tb431 2.387 . S
O471 C487 1.264 . S
O472 Tb420 2.349 . S
O472 C487 1.243 . S
O473 Tb431 2.428 . S
O473 C495 1.256 . S
O474 Tb431 2.308 . S
O474 C494 1.266 . S
O475 Tb420 2.393 . S
O475 C494 1.248 . S
C476 O465 1.264 . S
C476 O466 1.243 . S
C477 C480 1.399 . S
C477 C482 1.383 . S
C477 C484 1.496 . S
C478 C479 1.399 . S
C478 C482 1.389 . S
C479 C478 1.399 . S
C479 C481 1.380 . S
C479 H496 0.929 1_565 S
C480 C477 1.399 . S
C480 C481 1.392 . S
C480 H497 0.929 . S
C481 C479 1.380 . S
C481 C480 1.392 . S
C481 H498 0.929 . S
C482 C477 1.383 . S
C482 C478 1.389 . S
C482 H499 0.931 . S
C483 O468 1.266 . S
C483 O469 1.248 . S
C484 Tb420 2.802 . S
C484 O464 1.264 . S
C484 O467 1.256 . S
C484 C477 1.496 . S
C485 C452 1.448 . S
C485 H462 0.930 . S
C485 C486 1.328 . S
C486 C457 1.427 . S
C486 H463 0.929 . S
C486 C485 1.328 . S
C487 O471 1.264 . S
C487 O472 1.243 . S
C488 C491 1.399 . S
C488 C492 1.383 . S
C488 C495 1.496 . S
C489 C490 1.399 1_556 S
C489 C492 1.389 1_556 S
C490 C489 1.399 1_554 S
C490 C493 1.380 . S
C490 H500 0.929 . S
C491 C488 1.399 . S
C491 C493 1.392 . S
C491 H501 0.929 . S
C492 C488 1.383 . S
C492 C489 1.389 1_554 S
C492 H502 0.931 1_554 S
C493 C490 1.380 . S
C493 C491 1.392 . S
C493 H503 0.929 . S
C494 O474 1.266 . S
C494 O475 1.248 . S
C495 Tb431 2.802 . S
C495 O470 1.264 . S
C495 O473 1.256 . S
C495 C488 1.496 . S
H496 C479 0.929 1_545 S
H497 C480 0.929 . S
H498 C481 0.929 . S
H499 C482 0.931 . S
H500 C490 0.929 . S
H501 C491 0.929 . S
H502 C492 0.931 1_556 S
H503 C493 0.929 . S
Tb504 N533 2.608 1_556 S
Tb504 N539 2.572 . S
Tb504 O548 2.465 . S
Tb504 O549 2.387 . S
Tb504 O551 2.428 . S
Tb504 O552 2.308 . S
Tb504 O556 2.349 . S
Tb504 O559 2.393 . S
Tb504 C568 2.802 . S
C505 N506 1.379 . S
C505 C508 1.416 . S
C505 C512 1.424 . S
N506 C505 1.379 . S
N506 C509 1.334 . S
N506 Tb515 2.617 . S
C507 C509 1.390 . S
C507 C510 1.339 . S
C507 H527 0.930 . S
C508 C505 1.416 . S
C508 C510 1.416 . S
C508 C514 1.448 . S
C509 N506 1.334 . S
C509 C507 1.390 . S
C509 H520 0.930 . S
C510 C507 1.339 . S
C510 C508 1.416 . S
C510 H531 0.930 . S
C511 C512 1.413 . S
C511 C513 1.427 . S
C511 C517 1.416 . S
C512 C505 1.424 . S
C512 C511 1.413 . S
C512 N516 1.361 . S
C513 C511 1.427 . S
C513 C514 1.328 . S
C513 H528 0.929 . S
C514 C508 1.448 . S
C514 C513 1.328 . S
C514 H529 0.930 . S
Tb515 N506 2.617 . S
Tb515 N516 2.572 . S
Tb515 O550 2.349 . S
Tb515 O553 2.393 . S
Tb515 O554 2.465 . S
Tb515 O555 2.387 . S
Tb515 O557 2.428 . S
Tb515 O558 2.308 . S
Tb515 C579 2.802 . S
N516 C512 1.361 . S
N516 Tb515 2.572 . S
N516 C518 1.340 . S
C517 C511 1.416 . S
C517 C519 1.332 . S
C517 H525 0.931 . S
C518 N516 1.340 . S
C518 C519 1.407 . S
C518 H524 0.930 . S
C519 C517 1.332 . S
C519 C518 1.407 . S
C519 H521 0.929 . S
H520 C509 0.930 . S
H521 C519 0.929 . S
H522 C537 0.930 . S
H523 C544 0.929 . S
H524 C518 0.930 . S
H525 C517 0.931 . S
H526 C540 0.930 . S
H527 C507 0.930 . S
H528 C513 0.929 . S
H529 C514 0.930 . S
H530 C535 0.930 . S
H531 C510 0.930 . S
H532 C543 0.931 . S
N533 Tb504 2.608 1_554 S
N533 C534 1.383 . S
N533 C537 1.340 . S
C534 N533 1.383 . S
C534 C536 1.416 . S
C534 C542 1.424 1_554 S
C535 H530 0.930 . S
C535 C537 1.390 . S
C535 C538 1.339 . S
C536 C534 1.416 . S
C536 C538 1.416 . S
C536 C569 1.448 . S
C537 H522 0.930 . S
C537 N533 1.340 . S
C537 C535 1.390 . S
C538 C535 1.339 . S
C538 C536 1.416 . S
C538 H545 0.930 . S
N539 Tb504 2.572 . S
N539 C540 1.340 . S
N539 C542 1.361 . S
C540 H526 0.930 . S
C540 N539 1.340 . S
C540 C544 1.407 . S
C541 C542 1.413 1_554 S
C541 C543 1.416 1_554 S
C541 C570 1.427 . S
C542 C534 1.424 1_556 S
C542 N539 1.361 . S
C542 C541 1.413 1_556 S
C543 H532 0.931 . S
C543 C541 1.416 1_556 S
C543 C544 1.332 . S
C544 H523 0.929 . S
C544 C540 1.407 . S
C544 C543 1.332 . S
H545 C538 0.930 . S
H546 C569 0.930 . S
H547 C570 0.929 . S
O548 Tb504 2.465 . S
O548 C568 1.264 . S
O549 Tb504 2.387 . S
O549 C560 1.264 . S
O550 Tb515 2.349 . S
O550 C560 1.243 . S
O551 Tb504 2.428 . S
O551 C568 1.256 . S
O552 Tb504 2.308 . S
O552 C567 1.266 . S
O553 Tb515 2.393 . S
O553 C567 1.248 . S
O554 Tb515 2.465 . S
O554 C579 1.264 . S
O555 Tb515 2.387 . S
O555 C571 1.264 . S
O556 Tb504 2.349 . S
O556 C571 1.243 . S
O557 Tb515 2.428 . S
O557 C579 1.256 . S
O558 Tb515 2.308 . S
O558 C578 1.266 . S
O559 Tb504 2.393 . S
O559 C578 1.248 . S
C560 O549 1.264 . S
C560 O550 1.243 . S
C561 C564 1.399 . S
C561 C566 1.383 . S
C561 C568 1.496 . S
C562 C563 1.399 . S
C562 C566 1.389 . S
C563 C562 1.399 . S
C563 C565 1.380 . S
C563 H580 0.929 1_655 S
C564 C561 1.399 . S
C564 C565 1.392 . S
C564 H581 0.929 . S
C565 C563 1.380 . S
C565 C564 1.392 . S
C565 H582 0.929 . S
C566 C561 1.383 . S
C566 C562 1.389 . S
C566 H583 0.931 . S
C567 O552 1.266 . S
C567 O553 1.248 . S
C568 Tb504 2.802 . S
C568 O548 1.264 . S
C568 O551 1.256 . S
C568 C561 1.496 . S
C569 C536 1.448 . S
C569 H546 0.930 . S
C569 C570 1.328 . S
C570 C541 1.427 . S
C570 H547 0.929 . S
C570 C569 1.328 . S
C571 O555 1.264 . S
C571 O556 1.243 . S
C572 C575 1.399 . S
C572 C576 1.383 . S
C572 C579 1.496 . S
C573 C574 1.399 1_554 S
C573 C576 1.389 1_554 S
C574 C573 1.399 1_556 S
C574 C577 1.380 . S
C574 H584 0.929 . S
C575 C572 1.399 . S
C575 C577 1.392 . S
C575 H585 0.929 . S
C576 C572 1.383 . S
C576 C573 1.389 1_556 S
C576 H586 0.931 . S
C577 C574 1.380 . S
C577 C575 1.392 . S
C577 H587 0.929 . S
C578 O558 1.266 . S
C578 O559 1.248 . S
C579 Tb515 2.802 . S
C579 O554 1.264 . S
C579 O557 1.256 . S
C579 C572 1.496 . S
H580 C563 0.929 1_455 S
H581 C564 0.929 . S
H582 C565 0.929 . S
H583 C566 0.931 . S
H584 C574 0.929 . S
H585 C575 0.929 . S
H586 C576 0.931 . S
H587 C577 0.929 . S
Tb588 N617 2.617 . S
Tb588 N623 2.572 . S
Tb588 O632 2.465 . S
Tb588 O633 2.387 . S
Tb588 O635 2.428 . S
Tb588 O636 2.308 . S
Tb588 O640 2.349 . S
Tb588 O643 2.393 . S
Tb588 C652 2.802 . S
C589 N590 1.379 1_556 S
C589 C592 1.416 . S
C589 C596 1.424 1_556 S
N590 C589 1.379 1_554 S
N590 C593 1.334 1_554 S
N590 Tb599 2.617 . S
C591 C593 1.390 . S
C591 C594 1.339 . S
C591 H611 0.930 . S
C592 C589 1.416 . S
C592 C594 1.416 . S
C592 C598 1.448 . S
C593 N590 1.334 1_556 S
C593 C591 1.390 . S
C593 H604 0.930 . S
C594 C591 1.339 . S
C594 C592 1.416 . S
C594 H615 0.930 . S
C595 C596 1.413 1_556 S
C595 C597 1.427 . S
C595 C601 1.416 1_556 S
C596 C589 1.424 1_554 S
C596 C595 1.413 1_554 S
C596 N600 1.361 . S
C597 C595 1.427 . S
C597 C598 1.328 . S
C597 H612 0.929 . S
C598 C592 1.448 . S
C598 C597 1.328 . S
C598 H613 0.930 . S
Tb599 N590 2.617 . S
Tb599 N600 2.572 . S
Tb599 O634 2.349 . S
Tb599 O637 2.393 . S
Tb599 O638 2.465 . S
Tb599 O639 2.387 . S
Tb599 O641 2.428 . S
Tb599 O642 2.308 . S
Tb599 C663 2.802 . S
N600 C596 1.361 . S
N600 Tb599 2.572 . S
N600 C602 1.340 . S
C601 C595 1.416 1_554 S
C601 C603 1.332 . S
C601 H609 0.931 . S
C602 N600 1.340 . S
C602 C603 1.407 . S
C602 H608 0.930 . S
C603 C601 1.332 . S
C603 C602 1.407 . S
C603 H605 0.929 . S
H604 C593 0.930 . S
H605 C603 0.929 . S
H606 C621 0.930 . S
H607 C628 0.929 . S
H608 C602 0.930 . S
H609 C601 0.931 . S
H610 C624 0.930 . S
H611 C591 0.930 . S
H612 C597 0.929 . S
H613 C598 0.930 . S
H614 C619 0.930 . S
H615 C594 0.930 . S
H616 C627 0.931 . S
N617 Tb588 2.617 . S
N617 C618 1.379 . S
N617 C621 1.334 . S
C618 N617 1.379 . S
C618 C620 1.416 . S
C618 C626 1.424 . S
C619 H614 0.930 . S
C619 C621 1.390 . S
C619 C622 1.339 . S
C620 C618 1.416 . S
C620 C622 1.416 . S
C620 C653 1.448 . S
C621 H606 0.930 . S
C621 N617 1.334 . S
C621 C619 1.390 . S
C622 C619 1.339 . S
C622 C620 1.416 . S
C622 H629 0.930 . S
N623 Tb588 2.572 . S
N623 C624 1.340 . S
N623 C626 1.361 . S
C624 H610 0.930 . S
C624 N623 1.340 . S
C624 C628 1.407 . S
C625 C626 1.413 . S
C625 C627 1.416 . S
C625 C654 1.427 . S
C626 C618 1.424 . S
C626 N623 1.361 . S
C626 C625 1.413 . S
C627 H616 0.931 . S
C627 C625 1.416 . S
C627 C628 1.332 . S
C628 H607 0.929 . S
C628 C624 1.407 . S
C628 C627 1.332 . S
H629 C622 0.930 . S
H630 C653 0.930 . S
H631 C654 0.929 . S
O632 Tb588 2.465 . S
O632 C652 1.264 . S
O633 Tb588 2.387 . S
O633 C644 1.264 . S
O634 Tb599 2.349 . S
O634 C644 1.243 . S
O635 Tb588 2.428 . S
O635 C652 1.256 . S
O636 Tb588 2.308 . S
O636 C651 1.266 . S
O637 Tb599 2.393 . S
O637 C651 1.248 . S
O638 Tb599 2.465 . S
O638 C663 1.264 . S
O639 Tb599 2.387 . S
O639 C655 1.264 . S
O640 Tb588 2.349 . S
O640 C655 1.243 . S
O641 Tb599 2.428 . S
O641 C663 1.256 . S
O642 Tb599 2.308 . S
O642 C662 1.266 . S
O643 Tb588 2.393 . S
O643 C662 1.248 . S
C644 O633 1.264 . S
C644 O634 1.243 . S
C645 C648 1.399 . S
C645 C650 1.383 . S
C645 C652 1.496 . S
C646 C647 1.399 1_556 S
C646 C650 1.389 1_556 S
C647 C646 1.399 1_554 S
C647 C649 1.380 . S
C647 H664 0.929 . S
C648 C645 1.399 . S
C648 C649 1.392 . S
C648 H665 0.929 . S
C649 C647 1.380 . S
C649 C648 1.392 . S
C649 H666 0.929 . S
C650 C645 1.383 . S
C650 C646 1.389 1_554 S
C650 H667 0.931 . S
C651 O636 1.266 . S
C651 O637 1.248 . S
C652 Tb588 2.802 . S
C652 O632 1.264 . S
C652 O635 1.256 . S
C652 C645 1.496 . S
C653 C620 1.448 . S
C653 H630 0.930 . S
C653 C654 1.328 . S
C654 C625 1.427 . S
C654 H631 0.929 . S
C654 C653 1.328 . S
C655 O639 1.264 . S
C655 O640 1.243 . S
C656 C659 1.399 . S
C656 C660 1.383 . S
C656 C663 1.496 . S
C657 C658 1.399 . S
C657 C660 1.389 . S
C658 C657 1.399 . S
C658 C661 1.380 . S
C658 H668 0.929 1_545 S
C659 C656 1.399 . S
C659 C661 1.392 . S
C659 H669 0.929 . S
C660 C656 1.383 . S
C660 C657 1.389 . S
C660 H670 0.931 . S
C661 C658 1.380 . S
C661 C659 1.392 . S
C661 H671 0.929 . S
C662 O642 1.266 . S
C662 O643 1.248 . S
C663 Tb599 2.802 . S
C663 O638 1.264 . S
C663 O641 1.256 . S
C663 C656 1.496 . S
H664 C647 0.929 . S
H665 C648 0.929 . S
H666 C649 0.929 . S
H667 C650 0.931 . S
H668 C658 0.929 1_565 S
H669 C659 0.929 . S
H670 C660 0.931 . S
H671 C661 0.929 . S
C672 C673 1.369 . S
C672 C674 1.419 . S
C672 H676 0.930 . S
C673 C672 1.369 . S
C673 C682 1.429 . S
C674 C672 1.419 . S
C674 C675 1.363 1_545 S
C674 H677 0.929 . S
C675 C674 1.363 1_565 S
C675 C681 1.428 . S
H676 C672 0.930 . S
H677 C674 0.929 . S
S678 N679 1.613 1_565 S
S678 N680 1.610 . S
N679 S678 1.613 1_545 S
N679 C682 1.350 . S
N680 S678 1.610 . S
N680 C681 1.351 . S
C681 C675 1.428 . S
C681 N680 1.351 . S
C681 C682 1.434 1_565 S
C682 C673 1.429 . S
C682 N679 1.350 . S
C682 C681 1.434 1_545 S
C683 C684 1.369 . S
C683 C685 1.419 1_455 S
C683 H687 0.930 . S
C684 C683 1.369 . S
C684 C693 1.429 . S
C685 C683 1.419 1_655 S
C685 C686 1.363 . S
C685 H688 0.929 . S
C686 C685 1.363 . S
C686 C692 1.428 1_655 S
H687 C683 0.930 . S
H688 C685 0.929 . S
S689 N690 1.613 . S
S689 N691 1.610 . S
N690 S689 1.613 . S
N690 C693 1.350 . S
N691 S689 1.610 . S
N691 C692 1.351 . S
C692 C686 1.428 1_455 S
C692 N691 1.351 . S
C692 C693 1.434 . S
C693 C684 1.429 . S
C693 N690 1.350 . S
C693 C692 1.434 . S
C694 C695 1.369 . S
C694 C696 1.419 . S
C694 H698 0.930 . S
C695 C694 1.369 . S
C695 C704 1.429 . S
C696 C694 1.419 . S
C696 C697 1.363 1_565 S
C696 H699 0.929 . S
C697 C696 1.363 1_545 S
C697 C703 1.428 1_545 S
H698 C694 0.930 . S
H699 C696 0.929 . S
S700 N701 1.613 1_545 S
S700 N702 1.610 . S
N701 S700 1.613 1_565 S
N701 C704 1.350 . S
N702 S700 1.610 . S
N702 C703 1.351 1_545 S
C703 C697 1.428 1_565 S
C703 N702 1.351 1_565 S
C703 C704 1.434 . S
C704 C695 1.429 . S
C704 N701 1.350 . S
C704 C703 1.434 . S
C705 C706 1.367 1_655 S
C705 C707 1.419 . S
C705 H709 0.930 1_655 S
C706 C705 1.367 1_455 S
C706 C715 1.413 1_455 S
C707 C705 1.419 . S
C707 C708 1.363 . S
C707 H710 0.929 . S
C708 C707 1.363 . S
C708 C714 1.428 . S
H709 C705 0.930 1_455 S
H710 C707 0.929 . S
S711 N712 1.613 . S
S711 N713 1.610 . S
N712 S711 1.613 . S
N712 C715 1.350 . S
N713 S711 1.610 . S
N713 C714 1.351 . S
C714 C708 1.428 . S
C714 N713 1.351 . S
C714 C715 1.434 . S
C715 C706 1.413 1_655 S
C715 N712 1.350 . S
C715 C714 1.434 . S
C716 C717 1.369 1_554 S
C716 C718 1.419 . S
C716 H720 0.930 . S
C717 C716 1.369 1_556 S
C717 C726 1.429 . S
C718 C716 1.419 . S
C718 C719 1.363 1_554 S
C718 H721 0.929 . S
C719 C718 1.363 1_556 S
C719 C725 1.428 . S
H720 C716 0.930 . S
H721 C718 0.929 . S
S722 N723 1.613 . S
S722 N724 1.610 . S
N723 S722 1.613 . S
N723 C726 1.350 . S
N724 S722 1.610 . S
N724 C725 1.351 . S
C725 C719 1.428 . S
C725 N724 1.351 . S
C725 C726 1.434 . S
C726 C717 1.429 . S
C726 N723 1.350 . S
C726 C725 1.434 . S
C727 C728 1.369 . S
C727 C729 1.419 . S
C727 H731 0.930 . S
C728 C727 1.369 . S
C728 C737 1.429 1_554 S
C729 C727 1.419 . S
C729 C730 1.363 . S
C729 H732 0.929 . S
C730 C729 1.363 . S
C730 C736 1.428 1_554 S
H731 C727 0.930 . S
H732 C729 0.929 . S
S733 N734 1.613 . S
S733 N735 1.610 . S
N734 S733 1.613 . S
N734 C737 1.350 . S
N735 S733 1.610 . S
N735 C736 1.351 . S
C736 C730 1.428 1_556 S
C736 N735 1.351 . S
C736 C737 1.434 . S
C737 C728 1.429 1_556 S
C737 N734 1.350 . S
C737 C736 1.434 . S
C738 C739 1.369 1_554 S
C738 C740 1.419 . S
C738 H742 0.930 . S
C739 C738 1.369 1_556 S
C739 C748 1.429 . S
C740 C738 1.419 . S
C740 C741 1.363 1_554 S
C740 H743 0.929 . S
C741 C740 1.363 1_556 S
C741 C747 1.428 . S
H742 C738 0.930 . S
H743 C740 0.929 . S
S744 N745 1.613 . S
S744 N746 1.610 . S
N745 S744 1.613 . S
N745 C748 1.350 . S
N746 S744 1.610 . S
N746 C747 1.351 . S
C747 C741 1.428 . S
C747 N746 1.351 . S
C747 C748 1.434 . S
C748 C739 1.429 . S
C748 N745 1.350 . S
C748 C747 1.434 . S
C749 C750 1.369 . S
C749 C751 1.419 . S
C749 H753 0.930 . S
C750 C749 1.369 . S
C750 C759 1.429 . S
C751 C749 1.419 . S
C751 C752 1.363 . S
C751 H754 0.929 . S
C752 C751 1.363 . S
C752 C758 1.428 . S
H753 C749 0.930 . S
H754 C751 0.929 . S
S755 N756 1.613 . S
S755 N757 1.613 . S
N756 S755 1.613 . S
N756 C759 1.350 1_556 S
N757 S755 1.613 . S
N757 C758 1.348 1_556 S
C758 C752 1.428 . S
C758 N757 1.348 1_554 S
C758 C759 1.434 . S
C759 C750 1.429 . S
C759 N756 1.350 1_554 S
C759 C758 1.434 . S
C760 C761 1.369 . S
C760 C762 1.419 . S
C760 H764 0.930 . S
C761 C760 1.369 . S
C761 C770 1.429 . S
C762 C760 1.419 . S
C762 C763 1.363 . S
C762 H765 0.929 . S
C763 C762 1.363 . S
C763 C769 1.428 . S
H764 C760 0.930 . S
H765 C762 0.929 . S
S766 N767 1.613 . S
S766 N768 1.610 . S
N767 S766 1.613 . S
N767 C770 1.350 . S
N768 S766 1.610 . S
N768 C769 1.351 . S
C769 C763 1.428 . S
C769 N768 1.351 . S
C769 C770 1.434 . S
C770 C761 1.429 . S
C770 N767 1.350 . S
C770 C769 1.434 . S
C771 C772 1.369 . S
C771 C773 1.419 . S
C771 H775 0.930 . S
C772 C771 1.369 . S
C772 C781 1.429 . S
C773 C771 1.419 . S
C773 C774 1.363 . S
C773 H776 0.929 . S
C774 C773 1.363 . S
C774 C780 1.428 . S
H775 C771 0.930 . S
H776 C773 0.929 . S
S777 N778 1.613 . S
S777 N779 1.610 . S
N778 S777 1.613 . S
N778 C781 1.350 . S
N779 S777 1.610 . S
N779 C780 1.351 . S
C780 C774 1.428 . S
C780 N779 1.351 . S
C780 C781 1.434 . S
C781 C772 1.429 . S
C781 N778 1.350 . S
C781 C780 1.434 . S
C782 C783 1.369 . S
C782 C784 1.419 . S
C782 H786 0.930 . S
C783 C782 1.369 . S
C783 C792 1.429 . S
C784 C782 1.419 . S
C784 C785 1.363 . S
C784 H787 0.929 . S
C785 C784 1.363 . S
C785 C791 1.428 . S
H786 C782 0.930 . S
H787 C784 0.929 . S
S788 N789 1.613 . S
S788 N790 1.610 . S
N789 S788 1.613 . S
N789 C792 1.350 . S
N790 S788 1.610 . S
N790 C791 1.351 . S
C791 C785 1.428 . S
C791 N790 1.351 . S
C791 C792 1.434 . S
C792 C783 1.429 . S
C792 N789 1.350 . S
C792 C791 1.434 . S
C793 C794 1.369 . S
C793 C795 1.419 . S
C793 H797 0.930 . S
C794 C793 1.369 . S
C794 C803 1.429 . S
C795 C793 1.419 . S
C795 C796 1.363 . S
C795 H798 0.929 . S
C796 C795 1.363 . S
C796 C802 1.428 . S
H797 C793 0.930 . S
H798 C795 0.929 . S
S799 N800 1.613 . S
S799 N801 1.610 . S
N800 S799 1.613 . S
N800 C803 1.350 . S
N801 S799 1.610 . S
N801 C802 1.351 . S
C802 C796 1.428 . S
C802 N801 1.351 . S
C802 C803 1.434 . S
C803 C794 1.429 . S
C803 N800 1.350 . S
C803 C802 1.434 . S
C804 C805 1.369 1_565 S
C804 C806 1.419 . S
C804 H808 0.930 1_565 S
C805 C804 1.369 1_545 S
C805 C814 1.429 1_545 S
C806 C804 1.419 . S
C806 C807 1.363 . S
C806 H809 0.929 . S
C807 C806 1.363 . S
C807 C813 1.428 . S
H808 C804 0.930 1_545 S
H809 C806 0.929 . S
S810 N811 1.613 . S
S810 N812 1.610 . S
N811 S810 1.613 . S
N811 C814 1.350 . S
N812 S810 1.610 . S
N812 C813 1.351 . S
C813 C807 1.428 . S
C813 N812 1.351 . S
C813 C814 1.434 . S
C814 C805 1.429 1_565 S
C814 N811 1.350 . S
C814 C813 1.434 . S
C815 C816 1.369 . S
C815 C817 1.419 1_455 S
C815 H819 0.930 . S
C816 C815 1.369 . S
C816 C825 1.429 1_455 S
C817 C815 1.419 1_655 S
C817 C818 1.363 . S
C817 H820 0.929 . S
C818 C817 1.363 . S
C818 C824 1.428 . S
H819 C815 0.930 . S
H820 C817 0.929 . S
S821 N822 1.613 . S
S821 N823 1.610 . S
N822 S821 1.613 . S
N822 C825 1.350 . S
N823 S821 1.610 . S
N823 C824 1.351 . S
C824 C818 1.428 . S
C824 N823 1.351 . S
C824 C825 1.434 . S
C825 C816 1.429 1_655 S
C825 N822 1.350 . S
C825 C824 1.434 . S
C826 C827 1.369 1_545 S
C826 C828 1.419 . S
C826 H830 0.930 . S
C827 C826 1.369 1_565 S
C827 C836 1.429 1_565 S
C828 C826 1.419 . S
C828 C829 1.363 . S
C828 H831 0.929 . S
C829 C828 1.363 . S
C829 C835 1.428 . S
H830 C826 0.930 . S
H831 C828 0.929 . S
S832 N833 1.613 . S
S832 N834 1.610 1_565 S
N833 S832 1.613 . S
N833 C836 1.350 1_565 S
N834 S832 1.610 1_545 S
N834 C835 1.351 . S
C835 C829 1.428 . S
C835 N834 1.351 . S
C835 C836 1.434 . S
C836 C827 1.429 1_545 S
C836 N833 1.350 1_545 S
C836 C835 1.434 . S
C837 C838 1.369 . S
C837 C839 1.419 . S
C837 H841 0.930 . S
C838 C837 1.369 . S
C838 C847 1.429 . S
C839 C837 1.419 . S
C839 C840 1.363 1_455 S
C839 H842 0.929 . S
C840 C839 1.363 1_655 S
C840 C846 1.428 1_655 S
H841 C837 0.930 . S
H842 C839 0.929 . S
S843 N844 1.613 . S
S843 N845 1.610 1_455 S
N844 S843 1.613 . S
N844 C847 1.350 . S
N845 S843 1.610 1_655 S
N845 C846 1.351 1_655 S
C846 C840 1.428 1_455 S
C846 N845 1.351 1_455 S
C846 C847 1.434 . S
C847 C838 1.429 . S
C847 N844 1.350 . S
C847 C846 1.434 . S
C848 C849 1.369 . S
C848 C850 1.419 . S
C848 H852 0.930 . S
C849 C848 1.369 . S
C849 C858 1.429 . S
C850 C848 1.419 . S
C850 C851 1.363 . S
C850 H853 0.929 . S
C851 C850 1.363 . S
C851 C857 1.428 . S
H852 C848 0.930 . S
H853 C850 0.929 . S
S854 N855 1.613 . S
S854 N856 1.610 . S
N855 S854 1.613 . S
N855 C858 1.350 . S
N856 S854 1.610 . S
N856 C857 1.351 . S
C857 C851 1.428 . S
C857 N856 1.351 . S
C857 C858 1.434 . S
C858 C849 1.429 . S
C858 N855 1.350 . S
C858 C857 1.434 . S
C859 C860 1.369 . S
C859 C861 1.419 . S
C859 H863 0.930 . S
C860 C859 1.369 . S
C860 C869 1.429 . S
C861 C859 1.419 . S
C861 C862 1.363 . S
C861 H864 0.929 . S
C862 C861 1.363 . S
C862 C868 1.428 . S
H863 C859 0.930 . S
H864 C861 0.929 . S
S865 N866 1.613 . S
S865 N867 1.610 . S
N866 S865 1.613 . S
N866 C869 1.350 . S
N867 S865 1.610 . S
N867 C868 1.351 . S
C868 C862 1.428 . S
C868 N867 1.351 . S
C868 C869 1.434 . S
C869 C860 1.429 . S
C869 N866 1.350 . S
C869 C868 1.434 . S
C870 C871 1.369 . S
C870 C872 1.419 . S
C870 H874 0.930 . S
C871 C870 1.369 . S
C871 C880 1.429 . S
C872 C870 1.419 . S
C872 C873 1.363 . S
C872 H875 0.929 . S
C873 C872 1.363 . S
C873 C879 1.428 . S
H874 C870 0.930 . S
H875 C872 0.929 . S
S876 N877 1.613 . S
S876 N878 1.610 . S
N877 S876 1.613 . S
N877 C880 1.350 . S
N878 S876 1.610 . S
N878 C879 1.351 . S
C879 C873 1.428 . S
C879 N878 1.351 . S
C879 C880 1.434 . S
C880 C871 1.429 . S
C880 N877 1.350 . S
C880 C879 1.434 . S
C881 C882 1.369 . S
C881 C883 1.419 . S
C881 H885 0.930 . S
C882 C881 1.369 . S
C882 C891 1.429 . S
C883 C881 1.419 . S
C883 C884 1.363 . S
C883 H886 0.929 . S
C884 C883 1.363 . S
C884 C890 1.428 . S
H885 C881 0.930 . S
H886 C883 0.929 . S
S887 N888 1.613 . S
S887 N889 1.610 . S
N888 S887 1.613 . S
N888 C891 1.350 . S
N889 S887 1.610 . S
N889 C890 1.351 . S
C890 C884 1.428 . S
C890 N889 1.351 . S
C890 C891 1.434 . S
C891 C882 1.429 . S
C891 N888 1.350 . S
C891 C890 1.434 . S
C892 C893 1.369 . S
C892 C894 1.419 . S
C892 H896 0.930 . S
C893 C892 1.369 . S
C893 C902 1.429 . S
C894 C892 1.419 . S
C894 C895 1.363 . S
C894 H897 0.929 . S
C895 C894 1.363 . S
C895 C901 1.428 . S
H896 C892 0.930 . S
H897 C894 0.929 . S
S898 N899 1.613 . S
S898 N900 1.610 . S
N899 S898 1.613 . S
N899 C902 1.350 . S
N900 S898 1.610 . S
N900 C901 1.351 . S
C901 C895 1.428 . S
C901 N900 1.351 . S
C901 C902 1.434 . S
C902 C893 1.429 . S
C902 N899 1.350 . S
C902 C901 1.434 . S
C903 C904 1.369 . S
C903 C905 1.419 . S
C903 H907 0.930 . S
C904 C903 1.369 . S
C904 C913 1.429 . S
C905 C903 1.419 . S
C905 C906 1.363 . S
C905 H908 0.929 . S
C906 C905 1.363 . S
C906 C912 1.428 . S
H907 C903 0.930 . S
H908 C905 0.929 . S
S909 N910 1.613 . S
S909 N911 1.610 . S
N910 S909 1.613 . S
N910 C913 1.350 . S
N911 S909 1.610 . S
N911 C912 1.351 . S
C912 C906 1.428 . S
C912 N911 1.351 . S
C912 C913 1.434 . S
C913 C904 1.429 . S
C913 N910 1.350 . S
C913 C912 1.434 . S
C914 C915 1.369 . S
C914 C916 1.419 . S
C914 H918 0.930 . S
C915 C914 1.369 . S
C915 C924 1.429 . S
C916 C914 1.419 . S
C916 C917 1.363 . S
C916 H919 0.929 . S
C917 C916 1.363 . S
C917 C923 1.428 . S
H918 C914 0.930 . S
H919 C916 0.929 . S
S920 N921 1.613 . S
S920 N922 1.610 . S
N921 S920 1.613 . S
N921 C924 1.350 . S
N922 S920 1.610 . S
N922 C923 1.351 . S
C923 C917 1.428 . S
C923 N922 1.351 . S
C923 C924 1.434 . S
C924 C915 1.429 . S
C924 N921 1.350 . S
C924 C923 1.434 . S
C925 C926 1.369 . S
C925 C927 1.419 . S
C925 H929 0.930 . S
C926 C925 1.369 . S
C926 C935 1.429 . S
C927 C925 1.419 . S
C927 C928 1.363 . S
C927 H930 0.929 . S
C928 C927 1.363 . S
C928 C934 1.428 . S
H929 C925 0.930 . S
H930 C927 0.929 . S
S931 N932 1.613 . S
S931 N933 1.610 . S
N932 S931 1.613 . S
N932 C935 1.350 . S
N933 S931 1.610 . S
N933 C934 1.351 . S
C934 C928 1.428 . S
C934 N933 1.351 . S
C934 C935 1.434 . S
C935 C926 1.429 . S
C935 N932 1.350 . S
C935 C934 1.434 . S
C673 C67 1.473 . S
C675 C478 1.114 . S
C684 C140 1.495 . S
C686 C562 1.430 . S
C695 C235 1.543 . S
C697 C657 1.463 . S
C706 C394 1.423 . S
C708 C315 1.454 . S
C717 C489 1.469 . S
C719 C410 1.493 . S
C728 C573 1.141 . S
C730 C476 1.528 . S
C739 C646 1.120 . S
C741 C578 1.429 . S
C750 C651 1.473 . S
C752 C405 1.134 . S
C761 C571 1.466 . S
C763 C310 1.125 . S
C772 C644 1.495 . S
C774 C58 1.430 . S
C783 C153 1.470 . S
C785 C403 1.533 . S
C794 C226 1.420 . S
C796 C483 1.445 . S
C805 C321 1.468 . S
C807 C242 1.493 . S
C816 C69 1.151 . S
C818 C308 1.525 . S
C827 C142 1.117 . S
C829 C74 1.430 . S
C838 C147 1.463 . S
C840 C237 1.145 . S
C849 C392 2.694 1_554 S
C851 C63 2.758 . S
C860 C494 2.754 1_556 S
C862 C158 2.752 . S
C871 C231 2.755 . S
C873 C560 2.699 1_554 S
C882 C319 2.699 . S
C884 C655 2.706 1_556 S
C893 C224 2.695 . S
C895 C567 2.758 . S
C904 C326 2.751 . S
C906 C662 2.752 . S
C915 C399 2.754 . S
C917 C56 2.698 . S
C926 C487 2.699 . S
C928 C151 2.706 . S
