# Generated by pormake.
# Topology umk, (4)-cn, num edge types: 1
# Building blocks:
#     Node 0, Type 0, BuildingBlock: TATPOV_clean_sbu_0, # of connection points: 4
#     Node 1, Type 0, BuildingBlock: TATPOV_clean_sbu_0, # of connection points: 4
#     Node 2, Type 0, BuildingBlock: TATPOV_clean_sbu_0, # of connection points: 4
#     Node 3, Type 0, BuildingBlock: TATPOV_clean_sbu_0, # of connection points: 4
#     Node 4, Type 0, BuildingBlock: TATPOV_clean_sbu_0, # of connection points: 4
#     Node 5, Type 0, BuildingBlock: TATPOV_clean_sbu_0, # of connection points: 4
#     Node 6, Type 0, BuildingBlock: TATPOV_clean_sbu_0, # of connection points: 4
#     Node 7, Type 0, BuildingBlock: TATPOV_clean_sbu_0, # of connection points: 4
#     Node 8, Type 0, BuildingBlock: TATPOV_clean_sbu_0, # of connection points: 4
#     Node 9, Type 0, BuildingBlock: TATPOV_clean_sbu_0, # of connection points: 4
#     Node 10, Type 0, BuildingBlock: TATPOV_clean_sbu_0, # of connection points: 4
#     Node 11, Type 0, BuildingBlock: TATPOV_clean_sbu_0, # of connection points: 4
#     Node 12, Type 0, BuildingBlock: TATPOV_clean_sbu_0, # of connection points: 4
#     Node 13, Type 0, BuildingBlock: TATPOV_clean_sbu_0, # of connection points: 4
#     Node 14, Type 0, BuildingBlock: TATPOV_clean_sbu_0, # of connection points: 4
#     Node 15, Type 0, BuildingBlock: TATPOV_clean_sbu_0, # of connection points: 4
#     Node 16, Type 0, BuildingBlock: TATPOV_clean_sbu_0, # of connection points: 4
#     Node 17, Type 0, BuildingBlock: TATPOV_clean_sbu_0, # of connection points: 4
#     Node 18, Type 0, BuildingBlock: TATPOV_clean_sbu_0, # of connection points: 4
#     Node 19, Type 0, BuildingBlock: TATPOV_clean_sbu_0, # of connection points: 4
#     Node 20, Type 0, BuildingBlock: TATPOV_clean_sbu_0, # of connection points: 4
#     Node 21, Type 0, BuildingBlock: TATPOV_clean_sbu_0, # of connection points: 4
#     Node 22, Type 0, BuildingBlock: TATPOV_clean_sbu_0, # of connection points: 4
#     Node 23, Type 0, BuildingBlock: TATPOV_clean_sbu_0, # of connection points: 4
#     Edge 24, Type (0, 0), BuildingBlock: UVAHIK_clean_linker_0, # of connection points: 2
#     Edge 25, Type (0, 0), BuildingBlock: UVAHIK_clean_linker_0, # of connection points: 2
#     Edge 26, Type (0, 0), BuildingBlock: UVAHIK_clean_linker_0, # of connection points: 2
#     Edge 27, Type (0, 0), BuildingBlock: UVAHIK_clean_linker_0, # of connection points: 2
#     Edge 28, Type (0, 0), BuildingBlock: UVAHIK_clean_linker_0, # of connection points: 2
#     Edge 29, Type (0, 0), BuildingBlock: UVAHIK_clean_linker_0, # of connection points: 2
#     Edge 30, Type (0, 0), BuildingBlock: UVAHIK_clean_linker_0, # of connection points: 2
#     Edge 31, Type (0, 0), BuildingBlock: UVAHIK_clean_linker_0, # of connection points: 2
#     Edge 32, Type (0, 0), BuildingBlock: UVAHIK_clean_linker_0, # of connection points: 2
#     Edge 33, Type (0, 0), BuildingBlock: UVAHIK_clean_linker_0, # of connection points: 2
#     Edge 34, Type (0, 0), BuildingBlock: UVAHIK_clean_linker_0, # of connection points: 2
#     Edge 35, Type (0, 0), BuildingBlock: UVAHIK_clean_linker_0, # of connection points: 2
#     Edge 36, Type (0, 0), BuildingBlock: UVAHIK_clean_linker_0, # of connection points: 2
#     Edge 37, Type (0, 0), BuildingBlock: UVAHIK_clean_linker_0, # of connection points: 2
#     Edge 38, Type (0, 0), BuildingBlock: UVAHIK_clean_linker_0, # of connection points: 2
#     Edge 39, Type (0, 0), BuildingBlock: UVAHIK_clean_linker_0, # of connection points: 2
#     Edge 40, Type (0, 0), BuildingBlock: UVAHIK_clean_linker_0, # of connection points: 2
#     Edge 41, Type (0, 0), BuildingBlock: UVAHIK_clean_linker_0, # of connection points: 2
#     Edge 42, Type (0, 0), BuildingBlock: UVAHIK_clean_linker_0, # of connection points: 2
#     Edge 43, Type (0, 0), BuildingBlock: UVAHIK_clean_linker_0, # of connection points: 2
#     Edge 44, Type (0, 0), BuildingBlock: UVAHIK_clean_linker_0, # of connection points: 2
#     Edge 45, Type (0, 0), BuildingBlock: UVAHIK_clean_linker_0, # of connection points: 2
#     Edge 46, Type (0, 0), BuildingBlock: UVAHIK_clean_linker_0, # of connection points: 2
#     Edge 47, Type (0, 0), BuildingBlock: UVAHIK_clean_linker_0, # of connection points: 2
#     Edge 48, Type (0, 0), BuildingBlock: UVAHIK_clean_linker_0, # of connection points: 2
#     Edge 49, Type (0, 0), BuildingBlock: UVAHIK_clean_linker_0, # of connection points: 2
#     Edge 50, Type (0, 0), BuildingBlock: UVAHIK_clean_linker_0, # of connection points: 2
#     Edge 51, Type (0, 0), BuildingBlock: UVAHIK_clean_linker_0, # of connection points: 2
#     Edge 52, Type (0, 0), BuildingBlock: UVAHIK_clean_linker_0, # of connection points: 2
#     Edge 53, Type (0, 0), BuildingBlock: UVAHIK_clean_linker_0, # of connection points: 2
#     Edge 54, Type (0, 0), BuildingBlock: UVAHIK_clean_linker_0, # of connection points: 2
#     Edge 55, Type (0, 0), BuildingBlock: UVAHIK_clean_linker_0, # of connection points: 2
#     Edge 56, Type (0, 0), BuildingBlock: UVAHIK_clean_linker_0, # of connection points: 2
#     Edge 57, Type (0, 0), BuildingBlock: UVAHIK_clean_linker_0, # of connection points: 2
#     Edge 58, Type (0, 0), BuildingBlock: UVAHIK_clean_linker_0, # of connection points: 2
#     Edge 59, Type (0, 0), BuildingBlock: UVAHIK_clean_linker_0, # of connection points: 2
#     Edge 60, Type (0, 0), BuildingBlock: UVAHIK_clean_linker_0, # of connection points: 2
#     Edge 61, Type (0, 0), BuildingBlock: UVAHIK_clean_linker_0, # of connection points: 2
#     Edge 62, Type (0, 0), BuildingBlock: UVAHIK_clean_linker_0, # of connection points: 2
#     Edge 63, Type (0, 0), BuildingBlock: UVAHIK_clean_linker_0, # of connection points: 2
#     Edge 64, Type (0, 0), BuildingBlock: UVAHIK_clean_linker_0, # of connection points: 2
#     Edge 65, Type (0, 0), BuildingBlock: UVAHIK_clean_linker_0, # of connection points: 2
#     Edge 66, Type (0, 0), BuildingBlock: UVAHIK_clean_linker_0, # of connection points: 2
#     Edge 67, Type (0, 0), BuildingBlock: UVAHIK_clean_linker_0, # of connection points: 2
#     Edge 68, Type (0, 0), BuildingBlock: UVAHIK_clean_linker_0, # of connection points: 2
#     Edge 69, Type (0, 0), BuildingBlock: UVAHIK_clean_linker_0, # of connection points: 2
#     Edge 70, Type (0, 0), BuildingBlock: UVAHIK_clean_linker_0, # of connection points: 2
#     Edge 71, Type (0, 0), BuildingBlock: UVAHIK_clean_linker_0, # of connection points: 2
# Relax obj value: 0.096
# Max RMSD: 0.112
# Mean RMSD: 0.112
data_MOF--net-umk--node1-TATPOV_clean_sbu_0--edge1-UVAHIK_clean_linker_0
_symmetry_space_group_name_H-M    P1
_symmetry_Int_Tables_number       1
_symmetry_cell_setting            triclinic
loop_
_symmetry_equiv_pos_as_xyz
'x, y, z'
_cell_length_a     84.044201
_cell_length_b     84.047413
_cell_length_c     55.557542
_cell_angle_alpha  89.990725
_cell_angle_beta   90.024589
_cell_angle_gamma 119.99756
loop_
_atom_site_label
_atom_site_type_symbol
_atom_site_fract_x
_atom_site_fract_y
_atom_site_fract_z
_atom_type_partial_charge
Zn0 Zn 0.36267 0.45971 0.08366 0.0
Zn1 Zn 0.33013 0.45471 0.06831 0.0
O2 O 0.32739 0.45329 0.10526 0.0
O3 O 0.3538 0.45678 0.1178 0.0
O4 O 0.3063 0.4521 0.05723 0.0
O5 O 0.37569 0.48472 0.06785 0.0
O6 O 0.34903 0.47944 0.05358 0.0
C7 C 0.33787 0.45405 0.12234 0.0
C8 C 0.34223 0.42754 0.05364 0.0
O9 O 0.33027 0.43257 0.05308 0.0
O10 O 0.3571 0.43673 0.06518 0.0
C11 C 0.29156 0.43665 0.05698 0.0
O12 O 0.29187 0.42195 0.06434 0.0
C13 C 0.36639 0.48969 0.05523 0.0
Zn14 Zn 0.89028 0.36101 0.59312 0.0
Zn15 Zn 0.86783 0.33034 0.57015 0.0
O16 O 0.86368 0.32178 0.60543 0.0
O17 O 0.88504 0.34647 0.62385 0.0
O18 O 0.85032 0.3077 0.5521 0.0
O19 O 0.8753 0.3726 0.5834 0.0
O20 O 0.859 0.34838 0.56064 0.0
C21 C 0.87236 0.32983 0.62452 0.0
C22 C 0.90859 0.3511 0.55764 0.0
O23 O 0.89298 0.33653 0.55611 0.0
O24 O 0.91078 0.36409 0.57133 0.0
C25 C 0.8517 0.29332 0.55168 0.0
O26 O 0.86505 0.29307 0.56366 0.0
C27 C 0.86283 0.36431 0.56782 0.0
Zn28 Zn 0.53819 0.90407 0.08269 0.0
Zn29 Zn 0.54053 0.87472 0.06894 0.0
O30 O 0.54451 0.87525 0.10545 0.0
O31 O 0.54413 0.90018 0.11666 0.0
O32 O 0.54184 0.85265 0.05847 0.0
O33 O 0.51191 0.89165 0.07112 0.0
O34 O 0.51463 0.86841 0.05808 0.0
C35 C 0.54596 0.8865 0.12182 0.0
C36 C 0.56693 0.91269 0.04829 0.0
O37 O 0.56179 0.89572 0.0503 0.0
O38 O 0.55892 0.91964 0.05985 0.0
C39 C 0.55706 0.8529 0.05737 0.0
O40 O 0.57225 0.86789 0.06354 0.0
C41 C 0.50512 0.87628 0.06054 0.0
Zn42 Zn 0.63867 0.5255 0.61136 0.0
Zn43 Zn 0.66675 0.53322 0.58131 0.0
O44 O 0.67806 0.53453 0.61468 0.0
O45 O 0.65522 0.52872 0.63935 0.0
O46 O 0.68742 0.53838 0.55894 0.0
O47 O 0.62351 0.50089 0.59472 0.0
O48 O 0.64674 0.50769 0.57046 0.0
C49 C 0.67167 0.53261 0.63592 0.0
C50 C 0.64981 0.55808 0.58291 0.0
O51 O 0.66123 0.554 0.57389 0.0
O52 O 0.63874 0.54812 0.59917 0.0
C53 C 0.7011 0.55444 0.55631 0.0
O54 O 0.70173 0.56814 0.56851 0.0
C55 C 0.63038 0.49662 0.57731 0.0
Zn56 Zn 0.08879 0.63403 0.08875 0.0
Zn57 Zn 0.11686 0.66393 0.07129 0.0
O58 O 0.1187 0.66961 0.10762 0.0
O59 O 0.09317 0.64611 0.12122 0.0
O60 O 0.13827 0.68639 0.05736 0.0
O61 O 0.10047 0.61902 0.08007 0.0
O62 O 0.12186 0.64318 0.06094 0.0
C63 C 0.10763 0.66135 0.12489 0.0
C64 C 0.0782 0.651 0.05243 0.0
O65 O 0.09495 0.66356 0.05404 0.0
O66 O 0.07222 0.63637 0.06456 0.0
C67 C 0.13817 0.70145 0.05654 0.0
O68 O 0.1241 0.70219 0.06553 0.0
C69 C 0.11447 0.62624 0.06659 0.0
Zn70 Zn 0.45555 0.09283 0.59567 0.0
Zn71 Zn 0.45233 0.12145 0.58042 0.0
O72 O 0.44703 0.12073 0.61669 0.0
O73 O 0.44896 0.09685 0.62907 0.0
O74 O 0.45018 0.14278 0.56864 0.0
O75 O 0.48198 0.10587 0.58441 0.0
O76 O 0.47887 0.12891 0.5715 0.0
C77 C 0.44596 0.10991 0.63347 0.0
C78 C 0.4274 0.08293 0.55999 0.0
O79 O 0.43244 0.09993 0.56075 0.0
O80 O 0.43509 0.07641 0.57307 0.0
C81 C 0.43459 0.14163 0.56643 0.0
O82 O 0.41971 0.12631 0.57251 0.0
C83 C 0.48869 0.12141 0.57429 0.0
Zn84 Zn 0.52719 0.64062 0.87546 0.0
Zn85 Zn 0.53464 0.66796 0.90669 0.0
O86 O 0.53583 0.67976 0.87365 0.0
O87 O 0.53092 0.6577 0.84806 0.0
O88 O 0.53861 0.68794 0.92959 0.0
O89 O 0.5021 0.62501 0.89077 0.0
O90 O 0.50961 0.64701 0.91743 0.0
C91 C 0.53441 0.67394 0.85216 0.0
C92 C 0.55988 0.6518 0.90445 0.0
O93 O 0.55592 0.66327 0.91361 0.0
O94 O 0.54973 0.64067 0.88833 0.0
C95 C 0.55423 0.70197 0.9335 0.0
O96 O 0.56877 0.70357 0.92243 0.0
C97 C 0.49828 0.63109 0.90943 0.0
Zn98 Zn 0.90098 0.53752 0.40852 0.0
Zn99 Zn 0.87299 0.54176 0.42361 0.0
O100 O 0.87322 0.54568 0.38704 0.0
O101 O 0.89677 0.54318 0.37469 0.0
O102 O 0.85182 0.54457 0.43441 0.0
O103 O 0.88784 0.51152 0.42115 0.0
O104 O 0.8655 0.51557 0.43462 0.0
C105 C 0.8837 0.54613 0.37018 0.0
C106 C 0.91186 0.56704 0.44245 0.0
O107 O 0.89495 0.56239 0.44184 0.0
O108 O 0.91787 0.55853 0.43007 0.0
C109 C 0.8531 0.56027 0.43543 0.0
O110 O 0.86861 0.57492 0.42931 0.0
C111 C 0.87268 0.50544 0.43212 0.0
Zn112 Zn 0.36058 0.90109 0.91085 0.0
Zn113 Zn 0.32855 0.87413 0.92585 0.0
O114 O 0.32416 0.87484 0.88951 0.0
O115 O 0.34973 0.89931 0.87793 0.0
O116 O 0.30479 0.85312 0.93756 0.0
O117 O 0.37303 0.88665 0.91889 0.0
O118 O 0.34714 0.86603 0.93564 0.0
C119 C 0.33378 0.88621 0.87313 0.0
C120 C 0.34443 0.91227 0.94791 0.0
O121 O 0.33081 0.89616 0.94498 0.0
O122 O 0.35917 0.91745 0.93629 0.0
C123 C 0.29062 0.85457 0.94099 0.0
O124 O 0.29137 0.87026 0.93636 0.0
C125 C 0.36405 0.87203 0.93095 0.0
Zn126 Zn 0.45919 0.36086 0.40799 0.0
Zn127 Zn 0.45371 0.32922 0.42581 0.0
O128 O 0.45015 0.32356 0.38959 0.0
O129 O 0.45172 0.34876 0.37534 0.0
O130 O 0.45072 0.30614 0.4404 0.0
O131 O 0.48563 0.37389 0.41855 0.0
O132 O 0.4799 0.3483 0.43666 0.0
C133 C 0.44911 0.33271 0.372 0.0
C134 C 0.43019 0.34526 0.44297 0.0
O135 O 0.43304 0.33176 0.44195 0.0
O136 O 0.44009 0.35973 0.43099 0.0
C137 C 0.43512 0.29181 0.44311 0.0
O138 O 0.42032 0.29179 0.43547 0.0
C139 C 0.49085 0.3652 0.43197 0.0
Zn140 Zn 0.09051 0.45191 0.89921 0.0
Zn141 Zn 0.11802 0.45104 0.92214 0.0
O142 O 0.12286 0.44799 0.8864 0.0
O143 O 0.10022 0.4489 0.86769 0.0
O144 O 0.13857 0.45022 0.93919 0.0
O145 O 0.09882 0.47701 0.9134 0.0
O146 O 0.12152 0.47616 0.93195 0.0
C147 C 0.11437 0.44723 0.86704 0.0
C148 C 0.0781 0.42186 0.93237 0.0
O149 O 0.09514 0.42901 0.937 0.0
O150 O 0.07254 0.42889 0.91669 0.0
C151 C 0.1383 0.43504 0.94125 0.0
O152 O 0.12462 0.42015 0.93175 0.0
C153 C 0.11272 0.48447 0.92713 0.0
Zn154 Zn 0.62757 0.10547 0.40279 0.0
Zn155 Zn 0.66049 0.1279 0.42241 0.0
O156 O 0.66547 0.13127 0.38604 0.0
O157 O 0.63854 0.11285 0.36961 0.0
O158 O 0.68505 0.14598 0.43607 0.0
O159 O 0.61703 0.11962 0.41848 0.0
O160 O 0.64356 0.13687 0.43651 0.0
C161 C 0.65546 0.12448 0.36743 0.0
C162 C 0.64126 0.08713 0.43384 0.0
O163 O 0.65541 0.10302 0.43559 0.0
O164 O 0.62761 0.08469 0.42131 0.0
C165 C 0.69793 0.1425 0.4397 0.0
O166 O 0.69528 0.12605 0.43482 0.0
C167 C 0.62686 0.13247 0.43294 0.0
Zn168 Zn 0.63975 0.529 0.88595 0.0
Zn169 Zn 0.66646 0.53745 0.91848 0.0
O170 O 0.67882 0.53778 0.88611 0.0
O171 O 0.65719 0.53211 0.85941 0.0
O172 O 0.68634 0.54286 0.9424 0.0
O173 O 0.62414 0.50433 0.90208 0.0
O174 O 0.64551 0.51252 0.9299 0.0
C175 C 0.67336 0.53577 0.86436 0.0
C176 C 0.65 0.5623 0.91278 0.0
O177 O 0.66137 0.55873 0.92311 0.0
O178 O 0.6392 0.55165 0.89674 0.0
C179 C 0.70239 0.55645 0.93931 0.0
O180 O 0.70566 0.56714 0.92051 0.0
C181 C 0.62983 0.50094 0.92145 0.0
Zn182 Zn 0.09436 0.6332 0.41005 0.0
Zn183 Zn 0.1209 0.66584 0.42671 0.0
O184 O 0.12214 0.66997 0.39004 0.0
O185 O 0.09942 0.64375 0.37657 0.0
O186 O 0.14126 0.6897 0.43921 0.0
O187 O 0.10804 0.62095 0.42327 0.0
O188 O 0.12833 0.64747 0.43908 0.0
C189 C 0.11234 0.65997 0.37267 0.0
C190 C 0.0813 0.65076 0.44295 0.0
O191 O 0.09797 0.6636 0.44302 0.0
O192 O 0.07628 0.63629 0.43076 0.0
C193 C 0.13972 0.7039 0.4416 0.0
O194 O 0.12428 0.70316 0.43541 0.0
C195 C 0.12226 0.63038 0.43593 0.0
Zn196 Zn 0.45419 0.08772 0.91714 0.0
Zn197 Zn 0.45032 0.11474 0.93458 0.0
O198 O 0.44556 0.11569 0.8984 0.0
O199 O 0.44545 0.09106 0.88476 0.0
O200 O 0.44831 0.13576 0.94801 0.0
O201 O 0.48106 0.10097 0.92526 0.0
O202 O 0.47671 0.12145 0.94419 0.0
C203 C 0.44335 0.10478 0.88117 0.0
C204 C 0.42681 0.07598 0.95417 0.0
O205 O 0.42986 0.09237 0.95246 0.0
O206 O 0.43607 0.07081 0.94184 0.0
C207 C 0.43289 0.13502 0.94987 0.0
O208 O 0.41795 0.12021 0.94259 0.0
C209 C 0.48714 0.11508 0.93848 0.0
Zn210 Zn 0.36192 0.45548 0.40761 0.0
Zn211 Zn 0.33043 0.45062 0.42447 0.0
O212 O 0.32535 0.44692 0.38808 0.0
O213 O 0.35045 0.44786 0.37471 0.0
O214 O 0.3071 0.44786 0.43789 0.0
O215 O 0.37509 0.48201 0.41742 0.0
O216 O 0.34957 0.47694 0.43511 0.0
C217 C 0.33459 0.44558 0.37084 0.0
C218 C 0.34592 0.42699 0.44311 0.0
O219 O 0.3325 0.42993 0.44153 0.0
O220 O 0.36049 0.43666 0.43123 0.0
C221 C 0.29229 0.43248 0.43863 0.0
O222 O 0.29206 0.41782 0.42997 0.0
C223 C 0.36652 0.48764 0.43037 0.0
Zn224 Zn 0.90241 0.35889 0.89678 0.0
Zn225 Zn 0.87455 0.33069 0.91951 0.0
O226 O 0.86987 0.32305 0.88369 0.0
O227 O 0.89276 0.34642 0.86509 0.0
O228 O 0.85377 0.30916 0.93596 0.0
O229 O 0.89423 0.37578 0.91107 0.0
O230 O 0.87124 0.35239 0.92943 0.0
C231 C 0.87845 0.33073 0.86438 0.0
C232 C 0.91428 0.34087 0.93012 0.0
O233 O 0.8972 0.33122 0.93466 0.0
O234 O 0.92006 0.35344 0.9144 0.0
C235 C 0.85393 0.29414 0.93679 0.0
O236 O 0.86757 0.2932 0.9267 0.0
C237 C 0.8803 0.3695 0.92469 0.0
Zn238 Zn 0.52904 0.89967 0.40737 0.0
Zn239 Zn 0.53709 0.87543 0.4243 0.0
O240 O 0.54122 0.87458 0.38787 0.0
O241 O 0.53786 0.8974 0.37461 0.0
O242 O 0.54168 0.856 0.43778 0.0
O243 O 0.50252 0.88431 0.41654 0.0
O244 O 0.51036 0.86622 0.43527 0.0
C245 C 0.54176 0.8849 0.37072 0.0
C246 C 0.55777 0.91472 0.44272 0.0
O247 O 0.55668 0.8991 0.44101 0.0
O248 O 0.54675 0.91802 0.43117 0.0
C249 C 0.55528 0.85417 0.4319 0.0
O250 O 0.56729 0.86558 0.41625 0.0
C251 C 0.49832 0.87069 0.4301 0.0
Zn252 Zn 0.45353 0.35982 0.08926 0.0
Zn253 Zn 0.44931 0.32846 0.07063 0.0
O254 O 0.44746 0.32381 0.10737 0.0
O255 O 0.45068 0.34949 0.12244 0.0
O256 O 0.44718 0.30536 0.05721 0.0
O257 O 0.4786 0.37405 0.07378 0.0
O258 O 0.47424 0.3483 0.05745 0.0
C259 C 0.44803 0.33342 0.12544 0.0
C260 C 0.42174 0.34066 0.05838 0.0
O261 O 0.42731 0.3292 0.05577 0.0
O262 O 0.43044 0.35469 0.0716 0.0
C263 C 0.43184 0.29057 0.05559 0.0
O264 O 0.41685 0.2903 0.06297 0.0
C265 C 0.48412 0.36559 0.0604 0.0
Zn266 Zn 0.10294 0.46543 0.59493 0.0
Zn267 Zn 0.12468 0.45642 0.57217 0.0
O268 O 0.12859 0.45237 0.60779 0.0
O269 O 0.10706 0.45557 0.62588 0.0
O270 O 0.14276 0.4514 0.55535 0.0
O271 O 0.11885 0.49214 0.58611 0.0
O272 O 0.13325 0.483 0.5616 0.0
C273 C 0.11976 0.45165 0.62676 0.0
C274 C 0.08436 0.43718 0.55908 0.0
O275 O 0.09963 0.43747 0.55809 0.0
O276 O 0.08262 0.4485 0.57231 0.0
C277 C 0.14006 0.43543 0.55075 0.0
O278 O 0.1244 0.42097 0.55688 0.0
C279 C 0.13042 0.4956 0.56949 0.0
Zn280 Zn 0.63844 0.08778 0.09062 0.0
Zn281 Zn 0.66763 0.11618 0.06948 0.0
O282 O 0.674 0.12002 0.1056 0.0
O283 O 0.65033 0.09657 0.12296 0.0
O284 O 0.68946 0.13759 0.0545 0.0
O285 O 0.6223 0.09706 0.07626 0.0
O286 O 0.6465 0.12016 0.05936 0.0
C287 C 0.66587 0.11102 0.12448 0.0
C288 C 0.65716 0.07667 0.0571 0.0
O289 O 0.6672 0.09385 0.05349 0.0
O290 O 0.64417 0.07061 0.07221 0.0
C291 C 0.70458 0.13777 0.0522 0.0
O292 O 0.70582 0.1236 0.05971 0.0
C293 C 0.62929 0.11145 0.06341 0.0
Zn294 Zn 0.52959 0.64067 0.60201 0.0
Zn295 Zn 0.53783 0.66778 0.57024 0.0
O296 O 0.53882 0.67998 0.6029 0.0
O297 O 0.53254 0.65782 0.62898 0.0
O298 O 0.54341 0.68798 0.54674 0.0
O299 O 0.50514 0.62511 0.58538 0.0
O300 O 0.51226 0.64752 0.55954 0.0
C301 C 0.53659 0.67418 0.62449 0.0
C302 C 0.5625 0.6508 0.57483 0.0
O303 O 0.5587 0.66204 0.56454 0.0
O304 O 0.55221 0.64023 0.59127 0.0
C305 C 0.55714 0.70394 0.54988 0.0
O306 O 0.56795 0.70698 0.56849 0.0
C307 C 0.50105 0.63144 0.5672 0.0
Zn308 Zn 0.907 0.54458 0.08493 0.0
Zn309 Zn 0.87879 0.54644 0.06848 0.0
O310 O 0.87777 0.55036 0.10495 0.0
O311 O 0.90355 0.55251 0.11771 0.0
O312 O 0.85685 0.54717 0.05593 0.0
O313 O 0.89517 0.51784 0.0766 0.0
O314 O 0.87368 0.52069 0.05787 0.0
C315 C 0.88914 0.55326 0.12187 0.0
C316 C 0.91689 0.57205 0.04846 0.0
O317 O 0.90022 0.56805 0.05068 0.0
O318 O 0.92295 0.56329 0.0602 0.0
C319 C 0.85404 0.56023 0.06143 0.0
O320 O 0.86571 0.57338 0.0757 0.0
C321 C 0.88104 0.51108 0.06335 0.0
Zn322 Zn 0.36194 0.9056 0.58635 0.0
Zn323 Zn 0.32995 0.87767 0.5708 0.0
O324 O 0.32527 0.87774 0.60713 0.0
O325 O 0.35102 0.90163 0.61963 0.0
O326 O 0.30656 0.85666 0.55826 0.0
O327 O 0.37508 0.89228 0.57554 0.0
O328 O 0.34891 0.87014 0.56124 0.0
C329 C 0.33499 0.8885 0.62399 0.0
C330 C 0.34433 0.91645 0.55095 0.0
O331 O 0.33175 0.89969 0.55218 0.0
O332 O 0.35882 0.92242 0.56339 0.0
C333 C 0.29195 0.85753 0.55638 0.0
O334 O 0.29196 0.87244 0.56352 0.0
C335 C 0.36612 0.87711 0.56457 0.0
C336 C 0.34014 0.44529 0.16441 0.0
C337 C 0.33126 0.4506 0.14749 0.0
C338 C 0.33394 0.44144 0.18805 0.0
C339 C 0.31297 0.45333 0.23509 0.0
H340 H 0.30932 0.41007 0.2655 0.0
C341 C 0.3133 0.44539 0.33885 0.0
C342 C 0.32724 0.44178 0.34605 0.0
C343 C 0.30776 0.44329 0.3147 0.0
C344 C 0.31009 0.42212 0.25726 0.0
H345 H 0.30896 0.4562 0.14215 0.0
H346 H 0.29842 0.45 0.18424 0.0
H347 H 0.31081 0.4127 0.22172 0.0
H348 H 0.34562 0.43231 0.33395 0.0
H349 H 0.33596 0.42855 0.29222 0.0
H350 H 0.31359 0.46334 0.27076 0.0
C351 C 0.31002 0.44859 0.1788 0.0
C352 C 0.3109 0.42359 0.23226 0.0
C353 C 0.31605 0.45212 0.15483 0.0
C354 C 0.33493 0.4353 0.32896 0.0
C355 C 0.32925 0.43297 0.30505 0.0
C356 C 0.31225 0.4519 0.26022 0.0
C357 C 0.31885 0.44304 0.1955 0.0
C358 C 0.31321 0.43958 0.22103 0.0
C359 C 0.31583 0.4372 0.29755 0.0
C360 C 0.31172 0.43666 0.27152 0.0
H361 H 0.35182 0.44388 0.15935 0.0
H362 H 0.34116 0.43748 0.20069 0.0
H363 H 0.31481 0.46581 0.22679 0.0
H364 H 0.30715 0.45043 0.35167 0.0
H365 H 0.29738 0.44664 0.30938 0.0
C366 C 0.88194 0.32479 0.66468 0.0
C367 C 0.86794 0.31998 0.64767 0.0
C368 C 0.87792 0.31685 0.68745 0.0
C369 C 0.84352 0.30181 0.73251 0.0
H370 H 0.87702 0.29019 0.76578 0.0
C371 C 0.85399 0.30839 0.83618 0.0
C372 C 0.8725 0.32123 0.84099 0.0
C373 C 0.84869 0.30055 0.8132 0.0
C374 C 0.86729 0.29304 0.75673 0.0
H375 H 0.83879 0.30275 0.64075 0.0
H376 H 0.83157 0.28927 0.68141 0.0
H377 H 0.87614 0.28987 0.72185 0.0
H378 H 0.90005 0.3352 0.82612 0.0
H379 H 0.89093 0.32144 0.78654 0.0
H380 H 0.83585 0.30656 0.76743 0.0
C381 C 0.8457 0.29895 0.67675 0.0
C382 C 0.86678 0.29284 0.73165 0.0
C383 C 0.84983 0.30663 0.6536 0.0
C384 C 0.88566 0.32547 0.82289 0.0
C385 C 0.88046 0.31741 0.80028 0.0
C386 C 0.84406 0.30205 0.75769 0.0
C387 C 0.85974 0.30415 0.69391 0.0
C388 C 0.85571 0.29831 0.71934 0.0
C389 C 0.86193 0.30508 0.79505 0.0
C390 C 0.85678 0.29877 0.7699 0.0
H391 H 0.89603 0.33497 0.6605 0.0
H392 H 0.88897 0.32134 0.70044 0.0
H393 H 0.8349 0.30613 0.72343 0.0
H394 H 0.84359 0.3049 0.84988 0.0
H395 H 0.8343 0.29116 0.80951 0.0
C396 C 0.54523 0.86584 0.33848 0.0
C397 C 0.54699 0.88259 0.34615 0.0
C398 C 0.54903 0.86363 0.31454 0.0
C399 C 0.57256 0.88981 0.25977 0.0
H400 H 0.53207 0.85075 0.22443 0.0
C401 C 0.55589 0.89837 0.16345 0.0
C402 C 0.54987 0.88382 0.14697 0.0
C403 C 0.55905 0.89596 0.18742 0.0
C404 C 0.54371 0.86146 0.23406 0.0
H405 H 0.5549 0.91036 0.33521 0.0
H406 H 0.56166 0.90658 0.29385 0.0
H407 H 0.53165 0.85043 0.26844 0.0
H408 H 0.54272 0.85535 0.14262 0.0
H409 H 0.54794 0.85102 0.18499 0.0
H410 H 0.58413 0.9014 0.22549 0.0
C411 C 0.55734 0.89514 0.30615 0.0
C412 C 0.54348 0.86127 0.25925 0.0
C413 C 0.55329 0.89725 0.32981 0.0
C414 C 0.54735 0.86682 0.15493 0.0
C415 C 0.5503 0.86433 0.17912 0.0
C416 C 0.5728 0.89 0.23468 0.0
C417 C 0.55502 0.87826 0.29815 0.0
C418 C 0.55749 0.87592 0.27226 0.0
C419 C 0.55613 0.87889 0.19558 0.0
C420 C 0.55797 0.87629 0.2216 0.0
H421 H 0.54039 0.85432 0.35073 0.0
H422 H 0.54711 0.85047 0.30876 0.0
H423 H 0.58369 0.9011 0.26941 0.0
H424 H 0.55804 0.91167 0.1579 0.0
H425 H 0.56323 0.90735 0.19976 0.0
C426 C 0.69391 0.52826 0.84023 0.0
C427 C 0.6861 0.53936 0.84436 0.0
C428 C 0.70294 0.52965 0.81841 0.0
C429 C 0.72018 0.55781 0.76241 0.0
H430 H 0.69298 0.51111 0.72938 0.0
C431 C 0.68404 0.54837 0.67463 0.0
C432 C 0.68359 0.53628 0.65695 0.0
C433 C 0.69354 0.55067 0.69604 0.0
C434 C 0.70122 0.52418 0.73833 0.0
H435 H 0.68253 0.56136 0.83029 0.0
H436 H 0.69842 0.56411 0.79271 0.0
H437 H 0.69378 0.51186 0.77323 0.0
H438 H 0.69302 0.51745 0.64714 0.0
H439 H 0.70909 0.52079 0.68563 0.0
H440 H 0.72591 0.57022 0.72747 0.0
C441 C 0.69778 0.55436 0.80598 0.0
C442 C 0.70171 0.52463 0.7635 0.0
C443 C 0.68853 0.55271 0.82741 0.0
C444 C 0.69332 0.52692 0.6606 0.0
C445 C 0.70247 0.52884 0.68248 0.0
C446 C 0.71959 0.55737 0.7373 0.0
C447 C 0.70452 0.54243 0.80081 0.0
C448 C 0.71008 0.54155 0.77573 0.0
C449 C 0.70244 0.54059 0.70047 0.0
C450 C 0.70906 0.54064 0.72515 0.0
H451 H 0.69203 0.51778 0.85311 0.0
H452 H 0.70794 0.52025 0.81485 0.0
H453 H 0.72704 0.57103 0.77138 0.0
H454 H 0.67662 0.55572 0.67211 0.0
H455 H 0.69299 0.55956 0.70974 0.0
C456 C 0.10091 0.65944 0.33125 0.0
C457 C 0.11542 0.66724 0.34788 0.0
C458 C 0.1035 0.66575 0.30763 0.0
C459 C 0.11041 0.68828 0.26242 0.0
H460 H 0.14601 0.68209 0.2253 0.0
C461 C 0.12942 0.68226 0.15665 0.0
C462 C 0.11153 0.66913 0.14946 0.0
C463 C 0.13302 0.68821 0.18064 0.0
C464 C 0.13634 0.6844 0.23543 0.0
H465 H 0.14405 0.68789 0.35289 0.0
H466 H 0.14877 0.69859 0.31087 0.0
H467 H 0.14692 0.68153 0.26931 0.0
H468 H 0.08329 0.65264 0.1614 0.0
H469 H 0.08949 0.66297 0.20283 0.0
H470 H 0.0992 0.69019 0.22871 0.0
C471 C 0.13533 0.68776 0.31647 0.0
C472 C 0.13686 0.68407 0.2606 0.0
C473 C 0.13262 0.68166 0.34041 0.0
C474 C 0.09724 0.66268 0.16638 0.0
C475 C 0.10077 0.66876 0.19012 0.0
C476 C 0.10994 0.68871 0.23735 0.0
C477 C 0.12074 0.67984 0.29993 0.0
C478 C 0.12333 0.68509 0.27422 0.0
C479 C 0.11871 0.68136 0.19764 0.0
C480 C 0.1223 0.68582 0.2236 0.0
H481 H 0.08747 0.6484 0.33649 0.0
H482 H 0.0921 0.65922 0.29515 0.0
H483 H 0.09998 0.68935 0.27258 0.0
H484 H 0.14071 0.68746 0.14397 0.0
H485 H 0.14697 0.69793 0.18597 0.0
C486 C 0.44183 0.12545 0.84964 0.0
C487 C 0.43859 0.10802 0.85675 0.0
C488 C 0.43863 0.12857 0.82581 0.0
C489 C 0.41504 0.10447 0.76968 0.0
H490 H 0.45739 0.14325 0.73674 0.0
C491 C 0.43412 0.09732 0.67422 0.0
C492 C 0.44106 0.11223 0.65822 0.0
C493 C 0.4302 0.09936 0.69797 0.0
C494 C 0.44526 0.13265 0.74571 0.0
H495 H 0.42865 0.08002 0.84486 0.0
H496 H 0.42302 0.08539 0.80365 0.0
H497 H 0.45678 0.14228 0.78072 0.0
H498 H 0.44899 0.14094 0.6544 0.0
H499 H 0.44253 0.14465 0.69653 0.0
H500 H 0.40403 0.09419 0.73471 0.0
C501 C 0.42799 0.09667 0.81633 0.0
C502 C 0.4449 0.1321 0.77089 0.0
C503 C 0.43139 0.09363 0.83992 0.0
C504 C 0.44365 0.12921 0.66637 0.0
C505 C 0.43999 0.13135 0.69041 0.0
C506 C 0.41541 0.10501 0.74459 0.0
C507 C 0.43183 0.11421 0.80889 0.0
C508 C 0.43018 0.11749 0.78304 0.0
C509 C 0.4333 0.11642 0.70642 0.0
C510 C 0.4309 0.1186 0.73238 0.0
H511 H 0.44738 0.1368 0.86225 0.0
H512 H 0.44171 0.14222 0.82051 0.0
H513 H 0.40336 0.09326 0.77861 0.0
H514 H 0.43186 0.08403 0.66846 0.0
H515 H 0.42535 0.08769 0.70999 0.0
C516 C 0.55287 0.6882 0.66232 0.0
C517 C 0.54021 0.68668 0.6448 0.0
C518 C 0.55476 0.69773 0.68358 0.0
C519 C 0.5595 0.72198 0.72582 0.0
H520 H 0.51299 0.69573 0.75948 0.0
C521 C 0.52834 0.69539 0.82763 0.0
C522 C 0.53831 0.68632 0.83161 0.0
C523 C 0.53031 0.70465 0.80584 0.0
C524 C 0.52603 0.70375 0.75036 0.0
H525 H 0.52006 0.69438 0.63496 0.0
H526 H 0.52281 0.71062 0.67306 0.0
H527 H 0.51345 0.69583 0.71562 0.0
H528 H 0.55894 0.68074 0.81723 0.0
H529 H 0.56279 0.69719 0.77975 0.0
H530 H 0.57217 0.72835 0.76059 0.0
C531 C 0.53155 0.70477 0.66999 0.0
C532 C 0.52629 0.70381 0.72519 0.0
C533 C 0.52998 0.69554 0.6483 0.0
C534 C 0.55111 0.68765 0.81446 0.0
C535 C 0.55342 0.69722 0.79312 0.0
C536 C 0.55924 0.72191 0.75094 0.0
C537 C 0.54373 0.70562 0.68801 0.0
C538 C 0.54311 0.71179 0.71279 0.0
C539 C 0.54267 0.70534 0.78822 0.0
C540 C 0.54258 0.71167 0.76337 0.0
H541 H 0.56086 0.68143 0.65992 0.0
H542 H 0.564 0.69781 0.69726 0.0
H543 H 0.57264 0.72848 0.71665 0.0
H544 H 0.51831 0.6944 0.84069 0.0
H545 H 0.52177 0.71068 0.80239 0.0
C546 C 0.86413 0.54817 0.33742 0.0
C547 C 0.88112 0.55059 0.3453 0.0
C548 C 0.86185 0.55186 0.31346 0.0
C549 C 0.8878 0.57725 0.25985 0.0
H550 H 0.85118 0.53634 0.22241 0.0
C551 C 0.89999 0.56456 0.16342 0.0
C552 C 0.8856 0.55721 0.14659 0.0
C553 C 0.89673 0.56719 0.18724 0.0
C554 C 0.86116 0.54809 0.23263 0.0
H555 H 0.90913 0.55934 0.33459 0.0
H556 H 0.90522 0.56599 0.29316 0.0
H557 H 0.85016 0.53467 0.26637 0.0
H558 H 0.85656 0.54736 0.14135 0.0
H559 H 0.85078 0.55173 0.18347 0.0
H560 H 0.89938 0.59032 0.22625 0.0
C561 C 0.89367 0.56121 0.30537 0.0
C562 C 0.86058 0.54712 0.25778 0.0
C563 C 0.89585 0.55723 0.32904 0.0
C564 C 0.86792 0.55304 0.15396 0.0
C565 C 0.8646 0.55549 0.17802 0.0
C566 C 0.88833 0.57826 0.2348 0.0
C567 C 0.87664 0.55844 0.29727 0.0
C568 C 0.87442 0.56133 0.27152 0.0
C569 C 0.87898 0.56244 0.19492 0.0
C570 C 0.87557 0.56332 0.22093 0.0
H571 H 0.85254 0.54305 0.3496 0.0
H572 H 0.84858 0.54955 0.30756 0.0
H573 H 0.89846 0.5885 0.2701 0.0
H574 H 0.91379 0.56802 0.1583 0.0
H575 H 0.90805 0.57228 0.19988 0.0
C576 C 0.31309 0.869 0.65654 0.0
C577 C 0.32781 0.88592 0.64881 0.0
C578 C 0.30732 0.86656 0.6806 0.0
C579 C 0.31014 0.89226 0.73602 0.0
H580 H 0.31129 0.85259 0.77014 0.0
C581 C 0.33505 0.89911 0.83237 0.0
C582 C 0.32668 0.88419 0.84832 0.0
C583 C 0.32936 0.8972 0.80848 0.0
C584 C 0.31044 0.86348 0.76085 0.0
H585 H 0.34747 0.91372 0.6599 0.0
H586 H 0.33738 0.90951 0.70149 0.0
H587 H 0.31156 0.85295 0.72614 0.0
H588 H 0.30543 0.85563 0.85189 0.0
H589 H 0.29567 0.85218 0.80965 0.0
H590 H 0.31003 0.90333 0.77065 0.0
C591 C 0.33026 0.89813 0.68911 0.0
C592 C 0.3106 0.86368 0.73567 0.0
C593 C 0.33617 0.90048 0.66531 0.0
C594 C 0.31213 0.86737 0.83999 0.0
C595 C 0.30658 0.86537 0.81586 0.0
C596 C 0.30997 0.89206 0.76112 0.0
C597 C 0.31594 0.88111 0.69712 0.0
C598 C 0.3113 0.87852 0.72308 0.0
C599 C 0.31527 0.88026 0.79985 0.0
C600 C 0.31097 0.87811 0.77377 0.0
H601 H 0.30639 0.85753 0.6442 0.0
H602 H 0.29625 0.85329 0.68635 0.0
H603 H 0.31032 0.90369 0.72673 0.0
H604 H 0.34622 0.91228 0.83824 0.0
H605 H 0.33653 0.90884 0.79651 0.0
C606 C 0.44856 0.31097 0.34047 0.0
C607 C 0.44482 0.32484 0.34751 0.0
C608 C 0.44559 0.30467 0.31662 0.0
C609 C 0.4209 0.30355 0.26111 0.0
H610 H 0.46418 0.31092 0.22659 0.0
C611 C 0.4381 0.33309 0.16758 0.0
C612 C 0.44467 0.32578 0.15005 0.0
C613 C 0.43505 0.32646 0.19104 0.0
C614 C 0.45181 0.30827 0.23602 0.0
H615 H 0.43431 0.3424 0.33551 0.0
H616 H 0.42892 0.3313 0.2943 0.0
H617 H 0.46408 0.31072 0.27068 0.0
H618 H 0.45307 0.30565 0.14326 0.0
H619 H 0.44828 0.29436 0.18506 0.0
H620 H 0.4091 0.30241 0.22658 0.0
C621 C 0.43417 0.32529 0.30704 0.0
C622 C 0.45175 0.30816 0.26122 0.0
C623 C 0.43743 0.33178 0.3306 0.0
C624 C 0.44799 0.31151 0.15646 0.0
C625 C 0.44526 0.30507 0.18026 0.0
C626 C 0.42096 0.30367 0.23603 0.0
C627 C 0.43842 0.31185 0.2997 0.0
C628 C 0.43665 0.30678 0.27392 0.0
C629 C 0.43871 0.3125 0.1977 0.0
C630 C 0.43677 0.307 0.2233 0.0
H631 H 0.4543 0.30541 0.35317 0.0
H632 H 0.44903 0.29435 0.31134 0.0
H633 H 0.40897 0.30217 0.27051 0.0
H634 H 0.43528 0.344 0.16319 0.0
H635 H 0.4303 0.33266 0.2042 0.0
C636 C 0.14218 0.45094 0.65602 0.0
C637 C 0.12411 0.44627 0.65001 0.0
C638 C 0.14627 0.44745 0.67923 0.0
C639 C 0.12512 0.42049 0.73421 0.0
H640 H 0.15646 0.46511 0.76984 0.0
C641 C 0.10689 0.4345 0.82572 0.0
C642 C 0.12017 0.44349 0.84368 0.0
C643 C 0.11193 0.43153 0.80307 0.0
C644 C 0.14813 0.4524 0.76015 0.0
H645 H 0.09603 0.43341 0.66282 0.0
H646 H 0.10302 0.42694 0.70287 0.0
H647 H 0.15723 0.46555 0.72583 0.0
H648 H 0.14913 0.45607 0.85229 0.0
H649 H 0.15815 0.45142 0.81183 0.0
H650 H 0.11497 0.40768 0.76839 0.0
C651 C 0.11407 0.43338 0.68989 0.0
C652 C 0.14856 0.45265 0.73496 0.0
C653 C 0.11009 0.43724 0.66704 0.0
C654 C 0.13864 0.4491 0.8387 0.0
C655 C 0.14378 0.44645 0.81567 0.0
C656 C 0.12473 0.42022 0.7593 0.0
C657 C 0.13223 0.43877 0.69639 0.0
C658 C 0.13624 0.43698 0.72185 0.0
C659 C 0.13042 0.43769 0.79764 0.0
C660 C 0.13539 0.43645 0.77243 0.0
H661 H 0.15323 0.45797 0.64316 0.0
H662 H 0.16038 0.45181 0.68391 0.0
H663 H 0.11566 0.40817 0.72446 0.0
H664 H 0.09253 0.42988 0.82909 0.0
H665 H 0.10136 0.42505 0.78945 0.0
C666 C 0.65209 0.12829 0.32363 0.0
C667 C 0.66345 0.12998 0.34314 0.0
C668 C 0.65915 0.13236 0.30035 0.0
C669 C 0.69199 0.12926 0.263 0.0
H670 H 0.67726 0.15395 0.21659 0.0
C671 C 0.68519 0.13635 0.15335 0.0
C672 C 0.67408 0.11751 0.14846 0.0
C673 C 0.69065 0.14239 0.17701 0.0
C674 C 0.68191 0.14739 0.22934 0.0
H675 H 0.69121 0.13766 0.35373 0.0
H676 H 0.70349 0.14419 0.31256 0.0
H677 H 0.6738 0.15749 0.2596 0.0
H678 H 0.66113 0.09018 0.16391 0.0
H679 H 0.67089 0.10064 0.20493 0.0
H680 H 0.69879 0.11805 0.23267 0.0
C681 C 0.68918 0.13999 0.31552 0.0
C682 C 0.67981 0.14931 0.25391 0.0
C683 C 0.68217 0.13626 0.33899 0.0
C684 C 0.66957 0.10479 0.16723 0.0
C685 C 0.67531 0.11078 0.19067 0.0
C686 C 0.69388 0.12716 0.23841 0.0
C687 C 0.67767 0.13793 0.29601 0.0
C688 C 0.68411 0.13965 0.27088 0.0
C689 C 0.68543 0.12963 0.19592 0.0
C690 C 0.68813 0.13559 0.22137 0.0
H691 H 0.63763 0.12359 0.32632 0.0
H692 H 0.64992 0.1304 0.28559 0.0
H693 H 0.69534 0.1216 0.27573 0.0
H694 H 0.68883 0.14643 0.13916 0.0
H695 H 0.69842 0.157 0.18065 0.0
C696 C 0.16828 0.45022 0.96322 0.0
C697 C 0.15303 0.4341 0.95454 0.0
C698 C 0.18216 0.44937 0.97592 0.0
C699 C 0.20228 0.41975 0.98611 0.0
H700 H 0.2255 0.4524 0.04031 0.0
C701 C 0.25877 0.41802 0.04365 0.0
C702 C 0.27443 0.43526 0.04777 0.0
C703 C 0.24286 0.41683 0.03396 0.0
C704 C 0.21918 0.44325 0.02516 0.0
H705 H 0.14032 0.40443 0.95252 0.0
H706 H 0.16446 0.40294 0.97501 0.0
H707 H 0.19964 0.45218 0.02008 0.0
H708 H 0.28555 0.46473 0.04545 0.0
H709 H 0.25781 0.46261 0.02862 0.0
H710 H 0.22193 0.41091 0.9912 0.0
C711 C 0.1658 0.41626 0.97167 0.0
C712 C 0.20441 0.44315 0.01353 0.0
C713 C 0.15194 0.41711 0.95887 0.0
C714 C 0.27373 0.45124 0.04246 0.0
C715 C 0.25781 0.45004 0.03297 0.0
C716 C 0.217 0.41979 -0.00216 0.0
C717 C 0.18107 0.43238 0.98034 0.0
C718 C 0.19598 0.43161 0.99364 0.0
C719 C 0.24227 0.43284 0.02844 0.0
C720 C 0.22576 0.43173 0.01725 0.0
H721 H 0.16958 0.46354 0.96009 0.0
H722 H 0.19389 0.46208 0.98197 0.0
H723 H 0.19623 0.41085 0.97068 0.0
H724 H 0.25888 0.40546 0.04757 0.0
H725 H 0.23101 0.40339 0.0308 0.0
C726 C 0.72935 0.15302 0.45664 0.0
C727 C 0.71581 0.15706 0.44897 0.0
C728 C 0.74614 0.16693 0.46564 0.0
C729 C 0.77643 0.21714 0.46533 0.0
H730 H 0.79349 0.21046 0.52734 0.0
C731 C 0.82442 0.27787 0.52461 0.0
C732 C 0.83825 0.2771 0.53786 0.0
C733 C 0.81148 0.2626 0.51179 0.0
C734 C 0.78912 0.21244 0.5098 0.0
H735 H 0.70935 0.17887 0.44445 0.0
H736 H 0.73854 0.20302 0.46001 0.0
H737 H 0.76709 0.18453 0.50813 0.0
H738 H 0.84947 0.25972 0.54787 0.0
H739 H 0.82676 0.23293 0.5253 0.0
H740 H 0.79813 0.24508 0.46712 0.0
C741 C 0.73625 0.18915 0.45897 0.0
C742 C 0.77401 0.1976 0.49883 0.0
C743 C 0.71947 0.17528 0.45023 0.0
C744 C 0.83895 0.26073 0.53786 0.0
C745 C 0.82593 0.24538 0.52502 0.0
C746 C 0.79154 0.23192 0.47622 0.0
C747 C 0.74974 0.18514 0.4668 0.0
C748 C 0.76721 0.19998 0.47683 0.0
C749 C 0.81205 0.24618 0.51186 0.0
C750 C 0.79771 0.22987 0.4989 0.0
H751 H 0.72692 0.1391 0.4559 0.0
H752 H 0.75635 0.1635 0.47153 0.0
H753 H 0.77168 0.21925 0.44814 0.0
H754 H 0.82345 0.29024 0.52424 0.0
H755 H 0.80077 0.26356 0.50221 0.0
C756 C 0.54126 0.82022 0.04383 0.0
C757 C 0.55766 0.8368 0.04789 0.0
C758 C 0.54161 0.80532 0.0334 0.0
C759 C 0.57181 0.78629 0.01888 0.0
H760 H 0.53465 0.75968 0.97032 0.0
C761 C 0.57264 0.73281 0.95318 0.0
C762 C 0.55564 0.71681 0.94921 0.0
C763 C 0.57359 0.74727 0.9668 0.0
C764 C 0.54499 0.76685 0.98401 0.0
H765 H 0.58735 0.85061 0.04487 0.0
H766 H 0.58794 0.82463 0.02617 0.0
H767 H 0.53502 0.78525 0.99124 0.0
H768 H 0.52645 0.70313 0.95716 0.0
H769 H 0.52817 0.72827 0.98081 0.0
H770 H 0.5819 0.7679 0.01118 0.0
C771 C 0.57482 0.82309 0.03135 0.0
C772 C 0.54519 0.78148 0.99605 0.0
C773 C 0.57447 0.838 0.04195 0.0
C774 C 0.53974 0.71532 0.9597 0.0
C775 C 0.54069 0.72975 0.97317 0.0
C776 C 0.57166 0.77165 0.00669 0.0
C777 C 0.55836 0.80669 0.02661 0.0
C778 C 0.55848 0.79128 0.01377 0.0
C779 C 0.55756 0.74597 0.97654 0.0
C780 C 0.55814 0.76171 0.98929 0.0
H781 H 0.52808 0.81878 0.04846 0.0
H782 H 0.52871 0.79274 0.03049 0.0
H783 H 0.58214 0.79349 0.03256 0.0
H784 H 0.58514 0.73434 0.9454 0.0
H785 H 0.58676 0.75966 0.96905 0.0
C786 C 0.71588 0.54253 0.52817 0.0
C787 C 0.71636 0.55745 0.54025 0.0
C788 C 0.73056 0.5451 0.51376 0.0
C789 C 0.78002 0.57618 0.5055 0.0
H790 H 0.77178 0.54739 0.44748 0.0
C791 C 0.8395 0.57927 0.44935 0.0
C792 C 0.83738 0.56197 0.44398 0.0
C793 C 0.82475 0.58069 0.45843 0.0
C794 C 0.77427 0.55552 0.46364 0.0
H795 H 0.73244 0.58686 0.54619 0.0
H796 H 0.75807 0.59138 0.52076 0.0
H797 H 0.74575 0.54657 0.46807 0.0
H798 H 0.81804 0.53265 0.44331 0.0
H799 H 0.79237 0.53516 0.45906 0.0
H800 H 0.80854 0.58486 0.50123 0.0
C801 C 0.74641 0.57765 0.52273 0.0
C802 C 0.75939 0.55503 0.47546 0.0
C803 C 0.7317 0.57507 0.53721 0.0
C804 C 0.82013 0.54618 0.44733 0.0
C805 C 0.80538 0.54762 0.45617 0.0
C806 C 0.79493 0.57674 0.49359 0.0
C807 C 0.74604 0.56265 0.51099 0.0
C808 C 0.76204 0.56498 0.49685 0.0
C809 C 0.80758 0.56486 0.46202 0.0
C810 C 0.79213 0.56606 0.47289 0.0
H811 H 0.70429 0.52876 0.53014 0.0
H812 H 0.72996 0.53319 0.50532 0.0
H813 H 0.78252 0.58386 0.52206 0.0
H814 H 0.85263 0.59169 0.44694 0.0
H815 H 0.82677 0.59416 0.46268 0.0
C816 C 0.25871 0.84091 0.9576 0.0
C817 C 0.27376 0.83892 0.95096 0.0
C818 C 0.2431 0.82624 0.96792 0.0
C819 C 0.21872 0.77583 0.9744 0.0
H820 H 0.19805 0.7846 0.03187 0.0
C821 C 0.16843 0.71684 0.03527 0.0
C822 C 0.15333 0.71766 0.04461 0.0
C823 C 0.18247 0.73189 0.02326 0.0
C824 C 0.2035 0.78196 0.01565 0.0
H825 H 0.2841 0.81988 0.94958 0.0
H826 H 0.25694 0.79437 0.96758 0.0
H827 H 0.22348 0.81042 0.0112 0.0
H828 H 0.14119 0.735 0.04885 0.0
H829 H 0.16567 0.76127 0.02764 0.0
H830 H 0.19887 0.74739 0.97886 0.0
C831 C 0.25714 0.80722 0.96467 0.0
C832 C 0.21805 0.79675 0.00382 0.0
C833 C 0.27275 0.82188 0.95448 0.0
C834 C 0.15267 0.73395 0.0419 0.0
C835 C 0.16672 0.74902 0.02984 0.0
C836 C 0.20417 0.76107 0.98618 0.0
C837 C 0.24219 0.80926 0.97163 0.0
C838 C 0.22595 0.79379 0.98325 0.0
C839 C 0.18171 0.7481 0.02025 0.0
C840 C 0.19656 0.76394 0.00712 0.0
H841 H 0.25906 0.85387 0.9551 0.0
H842 H 0.23171 0.82814 0.97293 0.0
H843 H 0.22433 0.77317 0.95834 0.0
H844 H 0.16942 0.70453 0.03715 0.0
H845 H 0.194 0.73086 0.01646 0.0
C846 C 0.41604 0.15528 0.55082 0.0
C847 C 0.43325 0.15711 0.55606 0.0
C848 C 0.41491 0.1697 0.53999 0.0
C849 C 0.44156 0.21966 0.52927 0.0
H850 H 0.40925 0.20901 0.47435 0.0
C851 C 0.44968 0.27601 0.46406 0.0
C852 C 0.43371 0.27574 0.45591 0.0
C853 C 0.44847 0.26127 0.47707 0.0
C854 C 0.41814 0.21218 0.48986 0.0
H855 H 0.46273 0.17558 0.55441 0.0
H856 H 0.46073 0.20063 0.53552 0.0
H857 H 0.40905 0.18379 0.49646 0.0
H858 H 0.40395 0.25965 0.45475 0.0
H859 H 0.40185 0.23385 0.47768 0.0
H860 H 0.4508 0.24801 0.52258 0.0
C861 C 0.44812 0.18813 0.53994 0.0
C862 C 0.41802 0.19775 0.50253 0.0
C863 C 0.44926 0.17373 0.55064 0.0
C864 C 0.4165 0.26026 0.46076 0.0
C865 C 0.4153 0.24547 0.47382 0.0
C866 C 0.44166 0.23405 0.51666 0.0
C867 C 0.43095 0.18624 0.53436 0.0
C868 C 0.42995 0.20138 0.52212 0.0
C869 C 0.43128 0.24591 0.4823 0.0
C870 C 0.43018 0.23049 0.49658 0.0
H871 H 0.40345 0.14265 0.5548 0.0
H872 H 0.40149 0.16792 0.53608 0.0
H873 H 0.45065 0.22285 0.54457 0.0
H874 H 0.46316 0.28767 0.46052 0.0
H875 H 0.46105 0.26187 0.48295 0.0
C876 C 0.83422 0.57463 0.05821 0.0
C877 C 0.83793 0.56068 0.05157 0.0
C878 C 0.81905 0.57505 0.04862 0.0
C879 C 0.77458 0.54559 0.01823 0.0
H880 H 0.77982 0.59184 0.99657 0.0
C881 C 0.71369 0.54874 0.97671 0.0
C882 C 0.71746 0.55926 0.95563 0.0
C883 C 0.728 0.55024 0.9911 0.0
C884 C 0.77816 0.57882 0.00248 0.0
H885 H 0.82867 0.53624 0.02964 0.0
H886 H 0.80247 0.53712 0.0127 0.0
H887 H 0.80564 0.59147 0.01613 0.0
H888 H 0.73917 0.5801 0.93356 0.0
H889 H 0.76415 0.58243 0.95838 0.0
H890 H 0.74743 0.5328 0.00371 0.0
C891 C 0.81105 0.54757 0.02562 0.0
C892 C 0.79288 0.57863 0.01393 0.0
C893 C 0.82616 0.54713 0.03522 0.0
C894 C 0.73581 0.5718 0.9497 0.0
C895 C 0.75014 0.57322 0.96402 0.0
C896 C 0.75991 0.54577 0.00674 0.0
C897 C 0.8073 0.56151 0.03221 0.0
C898 C 0.79132 0.56197 0.02161 0.0
C899 C 0.74639 0.56221 0.98465 0.0
C900 C 0.76159 0.56235 -0.00153 0.0
H901 H 0.84301 0.58524 0.07082 0.0
H902 H 0.81642 0.58587 0.05422 0.0
H903 H 0.77284 0.53256 0.02425 0.0
H904 H 0.69968 0.53909 0.98192 0.0
H905 H 0.72463 0.54183 0.00713 0.0
C906 C 0.17188 0.7218 0.457 0.0
C907 C 0.15507 0.72087 0.45185 0.0
C908 C 0.18631 0.73758 0.46718 0.0
C909 C 0.19638 0.77796 0.50339 0.0
H910 H 0.24613 0.79559 0.48096 0.0
C911 C 0.25969 0.84359 0.54083 0.0
C912 C 0.2755 0.84229 0.54496 0.0
C913 C 0.24454 0.82947 0.52892 0.0
C914 C 0.23233 0.79075 0.48755 0.0
H915 H 0.14024 0.73583 0.45324 0.0
H916 H 0.16559 0.76353 0.47108 0.0
H917 H 0.22055 0.7699 0.46053 0.0
H918 H 0.28765 0.82496 0.54036 0.0
H919 H 0.26123 0.80036 0.51991 0.0
H920 H 0.20824 0.79869 0.53067 0.0
C921 C 0.16749 0.75194 0.46732 0.0
C922 C 0.21769 0.77606 0.47583 0.0
C923 C 0.15303 0.73613 0.45699 0.0
C924 C 0.27573 0.82646 0.53734 0.0
C925 C 0.26063 0.8124 0.52546 0.0
C926 C 0.21106 0.79267 0.51517 0.0
C927 C 0.18427 0.7528 0.47251 0.0
C928 C 0.19959 0.76932 0.48384 0.0
C929 C 0.24495 0.81383 0.52088 0.0
C930 C 0.22921 0.79902 0.5076 0.0
H931 H 0.1739 0.71028 0.4533 0.0
H932 H 0.19899 0.73774 0.4713 0.0
H933 H 0.18257 0.77295 0.51009 0.0
H934 H 0.2591 0.85562 0.54647 0.0
H935 H 0.23267 0.83099 0.52553 0.0
C936 C 0.41476 0.1493 0.96487 0.0
C937 C 0.43183 0.15054 0.96066 0.0
C938 C 0.41386 0.16386 0.97566 0.0
C939 C 0.44121 0.20502 0.01324 0.0
H940 H 0.40718 0.22 0.98992 0.0
C941 C 0.4472 0.27389 0.0395 0.0
C942 C 0.43096 0.2739 0.04541 0.0
C943 C 0.44649 0.25822 0.02985 0.0
C944 C 0.4166 0.21582 0.9968 0.0
H945 H 0.46136 0.16815 0.96405 0.0
H946 H 0.4598 0.19357 0.98245 0.0
H947 H 0.40747 0.19377 0.97146 0.0
H948 H 0.4012 0.2575 0.04575 0.0
H949 H 0.39998 0.23008 0.02881 0.0
H950 H 0.45053 0.22722 0.03832 0.0
C951 C 0.44708 0.18123 0.97789 0.0
C952 C 0.41676 0.20081 0.98626 0.0
C953 C 0.44798 0.1667 0.96719 0.0
C954 C 0.41396 0.25792 0.04139 0.0
C955 C 0.41325 0.24225 0.03159 0.0
C956 C 0.4411 0.22005 0.0237 0.0
C957 C 0.43002 0.17994 0.98241 0.0
C958 C 0.42921 0.19537 0.9942 0.0
C959 C 0.42952 0.24225 0.0258 0.0
C960 C 0.42893 0.22572 0.01543 0.0
H961 H 0.40207 0.13701 0.96009 0.0
H962 H 0.4005 0.16238 0.9791 0.0
H963 H 0.4507 0.20094 0.02013 0.0
H964 H 0.46053 0.28598 0.04232 0.0
H965 H 0.45925 0.2587 0.02526 0.0
C966 C 0.17199 0.44891 0.53485 0.0
C967 C 0.15476 0.43334 0.53924 0.0
C968 C 0.18614 0.44713 0.52459 0.0
C969 C 0.19591 0.41709 0.48746 0.0
H970 H 0.24481 0.44623 0.51432 0.0
C971 C 0.25948 0.41408 0.45221 0.0
C972 C 0.27574 0.43112 0.44992 0.0
C973 C 0.24409 0.4129 0.46362 0.0
C974 C 0.23126 0.43811 0.5065 0.0
H975 H 0.1388 0.40366 0.53598 0.0
H976 H 0.16368 0.40057 0.51787 0.0
H977 H 0.21897 0.44667 0.53342 0.0
H978 H 0.28846 0.46032 0.45737 0.0
H979 H 0.26166 0.45828 0.47692 0.0
H980 H 0.20834 0.40879 0.46025 0.0
C981 C 0.16612 0.41415 0.52241 0.0
C982 C 0.21647 0.43835 0.51746 0.0
C983 C 0.15193 0.41592 0.53285 0.0
C984 C 0.2762 0.44696 0.45896 0.0
C985 C 0.26087 0.44578 0.47033 0.0
C986 C 0.21076 0.41689 0.47642 0.0
C987 C 0.18341 0.42974 0.51839 0.0
C988 C 0.19871 0.42812 0.50781 0.0
C989 C 0.2447 0.42874 0.47298 0.0
C990 C 0.22865 0.42768 0.48558 0.0
H991 H 0.17464 0.46255 0.53947 0.0
H992 H 0.19922 0.45942 0.52133 0.0
H993 H 0.18236 0.40915 0.47958 0.0
H994 H 0.25869 0.40163 0.44543 0.0
H995 H 0.23184 0.39957 0.46552 0.0
C996 C 0.82355 0.27838 0.95779 0.0
C997 C 0.83906 0.27799 0.94915 0.0
C998 C 0.80952 0.26313 0.96954 0.0
C999 C 0.79003 0.21313 0.97728 0.0
H1000 H 0.76598 0.22041 0.03229 0.0
C1001 C 0.73662 0.15325 0.03579 0.0
C1002 C 0.72055 0.15377 0.04118 0.0
C1003 C 0.75161 0.16837 0.02514 0.0
C1004 C 0.77251 0.21819 0.01686 0.0
H1005 H 0.85209 0.26137 0.94618 0.0
H1006 H 0.82775 0.23488 0.96708 0.0
H1007 H 0.7913 0.24693 0.01266 0.0
H1008 H 0.70764 0.17058 0.03979 0.0
H1009 H 0.73381 0.19693 0.02128 0.0
H1010 H 0.77123 0.18434 0.98164 0.0
C1011 C 0.82627 0.24684 0.9644 0.0
C1012 C 0.78696 0.23336 0.00557 0.0
C1013 C 0.84027 0.26206 0.95253 0.0
C1014 C 0.71982 0.16974 0.03586 0.0
C1015 C 0.73484 0.18488 0.0254 0.0
C1016 C 0.77563 0.19794 0.98867 0.0
C1017 C 0.81074 0.24721 0.97303 0.0
C1018 C 0.79578 0.23102 0.98552 0.0
C1019 C 0.75086 0.18433 0.01988 0.0
C1020 C 0.76663 0.20034 0.00843 0.0
H1021 H 0.82217 0.29042 0.95536 0.0
H1022 H 0.7976 0.26376 0.9756 0.0
H1023 H 0.79636 0.21086 0.96167 0.0
H1024 H 0.7376 0.14114 0.03967 0.0
H1025 H 0.76386 0.16765 0.02123 0.0
C1026 C 0.54456 0.82734 0.45959 0.0
C1027 C 0.5572 0.83902 0.44229 0.0
C1028 C 0.54591 0.81271 0.46909 0.0
C1029 C 0.5778 0.79521 0.4782 0.0
H1030 H 0.53253 0.74924 0.48859 0.0
C1031 C 0.57245 0.73748 0.54015 0.0
C1032 C 0.5599 0.71919 0.53394 0.0
C1033 C 0.57368 0.75196 0.52634 0.0
C1034 C 0.54535 0.76187 0.4855 0.0
H1035 H 0.58134 0.84462 0.42159 0.0
H1036 H 0.5836 0.81885 0.43811 0.0
H1037 H 0.53151 0.77467 0.46938 0.0
H1038 H 0.5396 0.70168 0.50759 0.0
H1039 H 0.542 0.72689 0.48329 0.0
H1040 H 0.59163 0.78226 0.49424 0.0
C1041 C 0.57273 0.82117 0.44442 0.0
C1042 C 0.54473 0.77654 0.47479 0.0
C1043 C 0.57139 0.83587 0.4349 0.0
C1044 C 0.54925 0.71564 0.51302 0.0
C1045 C 0.55056 0.73009 0.49915 0.0
C1046 C 0.57843 0.78047 0.48892 0.0
C1047 C 0.5599 0.80935 0.46148 0.0
C1048 C 0.56089 0.79347 0.47136 0.0
C1049 C 0.56246 0.74842 0.50597 0.0
C1050 C 0.56217 0.7637 0.49295 0.0
H1051 H 0.53354 0.82944 0.46583 0.0
H1052 H 0.53603 0.80409 0.48256 0.0
H1053 H 0.59049 0.80811 0.47589 0.0
H1054 H 0.58087 0.74067 0.55616 0.0
H1055 H 0.58287 0.76591 0.53223 0.0
C1056 C 0.34041 0.40876 0.01789 0.0
C1057 C 0.33839 0.41013 0.04273 0.0
C1058 C 0.3407 0.39344 0.00852 0.0
C1059 C 0.33546 0.34795 0.02586 0.0
H1060 H 0.38356 0.36792 0.99665 0.0
C1061 C 0.39078 0.33681 0.06179 0.0
C1062 C 0.40462 0.33745 0.04712 0.0
C1063 C 0.37596 0.33744 0.05164 0.0
C1064 C 0.36981 0.36177 0.00401 0.0
H1065 H 0.33383 0.39647 0.07708 0.0
H1066 H 0.33423 0.36979 0.06102 0.0
H1067 H 0.36792 0.38555 0.99562 0.0
H1068 H 0.41359 0.33818 0.01044 0.0
H1069 H 0.3878 0.34004 0.99244 0.0
H1070 H 0.33835 0.32502 0.03644 0.0
C1071 C 0.33536 0.3802 0.04852 0.0
C1072 C 0.36079 0.37192 0.00344 0.0
C1073 C 0.33529 0.39554 0.05783 0.0
C1074 C 0.40292 0.33756 0.02201 0.0
C1075 C 0.38823 0.33862 0.01177 0.0
C1076 C 0.34452 0.33783 0.02652 0.0
C1077 C 0.33887 0.3793 0.02393 0.0
C1078 C 0.34421 0.36575 0.01602 0.0
C1079 C 0.37493 0.33917 0.02659 0.0
C1080 C 0.3624 0.34534 0.01723 0.0
H1081 H 0.34293 0.42002 0.00604 0.0
H1082 H 0.34341 0.39312 0.98952 0.0
H1083 H 0.32246 0.34264 0.03518 0.0
H1084 H 0.39191 0.33676 0.08122 0.0
H1085 H 0.36617 0.33815 0.06361 0.0
C1086 C 0.05558 0.4284 0.53681 0.0
C1087 C 0.06832 0.42359 0.54528 0.0
C1088 C 0.03907 0.4152 0.52664 0.0
C1089 C 0.00567 0.36817 0.53559 0.0
H1090 H 0.97992 0.38007 0.48732 0.0
C1091 C 0.92766 0.33835 0.54094 0.0
C1092 C 0.92447 0.35313 0.5439 0.0
C1093 C 0.9444 0.34138 0.53143 0.0
C1094 C 0.98693 0.37627 0.50051 0.0
H1095 H 0.07434 0.40146 0.54874 0.0
H1096 H 0.04484 0.37796 0.5316 0.0
H1097 H 0.01346 0.39652 0.48771 0.0
H1098 H 0.93538 0.38219 0.53756 0.0
H1099 H 0.96422 0.38741 0.52064 0.0
H1100 H 0.97917 0.3491 0.54973 0.0
C1101 C 0.04787 0.39207 0.53252 0.0
C1102 C 0.0061 0.38567 0.50074 0.0
C1103 C 0.06469 0.40547 0.54228 0.0
C1104 C 0.93758 0.3706 0.5356 0.0
C1105 C 0.95402 0.37353 0.52566 0.0
C1106 C 0.98646 0.35875 0.53537 0.0
C1107 C 0.03476 0.39678 0.52507 0.0
C1108 C 0.01561 0.38259 0.51929 0.0
C1109 C 0.9579 0.35911 0.5242 0.0
C1110 C 0.97698 0.36364 0.51884 0.0
H1111 H 0.05812 0.44231 0.53878 0.0
H1112 H 0.02915 0.41923 0.52145 0.0
H1113 H 0.01263 0.36551 0.55012 0.0
H1114 H 0.91772 0.32476 0.54729 0.0
H1115 H 0.9471 0.33006 0.53057 0.0
C1116 C 0.58183 0.93033 0.01113 0.0
C1117 C 0.58339 0.92498 0.03448 0.0
C1118 C 0.59675 0.94561 0.0005 0.0
C1119 C 0.64527 0.98341 0.01324 0.0
H1120 H 0.62509 0.01396 0.99361 0.0
C1121 C 0.66144 0.04968 0.05637 0.0
C1122 C 0.66016 0.06338 0.04366 0.0
C1123 C 0.65986 0.03442 0.04435 0.0
C1124 C 0.63122 0.00569 -0.00171 0.0
H1125 H 0.60163 0.93021 0.06457 0.0
H1126 H 0.62739 0.95708 0.04672 0.0
H1127 H 0.60614 0.98098 0.99143 0.0
H1128 H 0.65756 0.0728 0.00841 0.0
H1129 H 0.65399 0.04551 0.98725 0.0
H1130 H 0.66968 0.00844 0.02273 0.0
C1131 C 0.61511 0.94944 0.03597 0.0
C1132 C 0.62029 0.98661 0.99704 0.0
C1133 C 0.6003 0.93408 0.04639 0.0
C1134 C 0.6587 0.06237 0.01848 0.0
C1135 C 0.65666 0.04681 0.00643 0.0
C1136 C 0.65611 0.00253 0.01482 0.0
C1137 C 0.61324 0.956 0.01339 0.0
C1138 C 0.62672 0.97523 0.0062 0.0
C1139 C 0.65649 0.03236 0.01944 0.0
C1140 C 0.64869 0.01374 0.00892 0.0
H1141 H 0.56879 0.92344 0.00175 0.0
H1142 H 0.59491 0.95 0.98291 0.0
H1143 H 0.6509 0.97507 0.01962 0.0
H1144 H 0.66254 0.05024 0.07583 0.0
H1145 H 0.65953 0.02343 0.05495 0.0
C1146 C 0.65264 0.5806 0.55107 0.0
C1147 C 0.64954 0.5747 0.57516 0.0
C1148 C 0.65038 0.59534 0.54379 0.0
C1149 C 0.647 0.63472 0.56692 0.0
H1150 H 0.60516 0.6189 0.52441 0.0
C1151 C 0.58857 0.64663 0.58666 0.0
C1152 C 0.57919 0.65018 0.56847 0.0
C1153 C 0.60327 0.6441 0.58104 0.0
C1154 C 0.61725 0.62389 0.53567 0.0
H1155 H 0.64282 0.58013 0.61075 0.0
H1156 H 0.63937 0.60595 0.5983 0.0
H1157 H 0.62123 0.60143 0.52602 0.0
H1158 H 0.57812 0.65452 0.53022 0.0
H1159 H 0.60371 0.64928 0.52013 0.0
H1160 H 0.64207 0.65624 0.5781 0.0
C1161 C 0.64338 0.59923 0.58494 0.0
C1162 C 0.62645 0.61388 0.5366 0.0
C1163 C 0.64516 0.58432 0.59204 0.0
C1164 C 0.58522 0.65183 0.54453 0.0
C1165 C 0.59978 0.64885 0.53879 0.0
C1166 C 0.63787 0.64473 0.56596 0.0
C1167 C 0.64559 0.60467 0.56071 0.0
C1168 C 0.64061 0.61854 0.55339 0.0
C1169 C 0.60877 0.64473 0.55703 0.0
C1170 C 0.62216 0.63867 0.55152 0.0
H1171 H 0.656 0.57334 0.53774 0.0
H1172 H 0.65201 0.59922 0.52498 0.0
H1173 H 0.65805 0.6387 0.5798 0.0
H1174 H 0.58426 0.64541 0.60528 0.0
H1175 H 0.6097 0.64064 0.59546 0.0
C1176 C 0.94209 0.5847 0.01873 0.0
C1177 C 0.92968 0.58716 0.03283 0.0
C1178 C 0.95707 0.59972 0.00813 0.0
C1179 C 0.98842 0.64535 0.0265 0.0
H1180 H 0.01544 0.64047 0.97324 0.0
C1181 C 0.06414 0.66932 0.03758 0.0
C1182 C 0.06533 0.65325 0.03683 0.0
C1183 C 0.04924 0.66965 0.02671 0.0
C1184 C 0.0081 0.64246 0.98788 0.0
H1185 H 0.92215 0.60685 0.04549 0.0
H1186 H 0.94894 0.63351 0.0275 0.0
H1187 H 0.98193 0.62442 0.97197 0.0
H1188 H 0.05324 0.6257 0.02244 0.0
H1189 H 0.02766 0.62634 0.00309 0.0
H1190 H 0.01444 0.66186 0.04349 0.0
C1191 C 0.94688 0.61989 0.02434 0.0
C1192 C 0.98892 0.63326 0.98717 0.0
C1193 C 0.93159 0.60469 0.03459 0.0
C1194 C 0.05251 0.63821 0.02331 0.0
C1195 C 0.03797 0.63868 0.01202 0.0
C1196 C 0.0076 0.65461 0.02717 0.0
C1197 C 0.96018 0.61761 0.01185 0.0
C1198 C 0.97891 0.63331 0.00742 0.0
C1199 C 0.03569 0.65408 0.01449 0.0
C1200 C 0.01748 0.65191 0.00878 0.0
H1201 H 0.94081 0.57126 0.01709 0.0
H1202 H 0.9671 0.59741 -0.00106 0.0
H1203 H 0.98115 0.64578 0.04236 0.0
H1204 H 0.0739 0.68106 0.04801 0.0
H1205 H 0.04774 0.68164 0.02899 0.0
C1206 C 0.41474 0.06755 0.52077 0.0
C1207 C 0.41192 0.07027 0.54492 0.0
C1208 C 0.40138 0.05214 0.50835 0.0
C1209 C 0.35469 0.01037 0.51451 0.0
H1210 H 0.38089 0.98516 0.49658 0.0
C1211 C 0.3349 0.93981 0.54766 0.0
C1212 C 0.34181 0.9296 0.53654 0.0
C1213 C 0.33733 0.9559 0.53697 0.0
C1214 C 0.37307 0.99187 0.50068 0.0
H1215 H 0.3928 0.06026 0.57464 0.0
H1216 H 0.36949 0.03343 0.55322 0.0
H1217 H 0.39719 0.01822 0.49859 0.0
H1218 H 0.35519 0.9269 0.50485 0.0
H1219 H 0.35903 0.95483 0.4856 0.0
H1220 H 0.3308 0.98376 0.51822 0.0
C1221 C 0.38171 0.04312 0.54352 0.0
C1222 C 0.38252 0.011 0.50185 0.0
C1223 C 0.39509 0.05841 0.55591 0.0
C1224 C 0.34969 0.93464 0.5136 0.0
C1225 C 0.35198 0.95067 0.50273 0.0
C1226 C 0.34517 0.99117 0.5132 0.0
C1227 C 0.3851 0.03928 0.52002 0.0
C1228 C 0.37374 0.02037 0.51039 0.0
C1229 C 0.34681 0.96207 0.51496 0.0
C1230 C 0.35459 0.98168 0.50794 0.0
H1231 H 0.42777 0.07654 0.51212 0.0
H1232 H 0.40432 0.04962 0.49022 0.0
H1233 H 0.34745 0.01726 0.52063 0.0
H1234 H 0.32897 0.93618 0.56552 0.0
H1235 H 0.33332 0.96432 0.54714 0.0
C1236 C 0.58292 0.65512 0.93578 0.0
C1237 C 0.57657 0.65155 0.91188 0.0
C1238 C 0.59773 0.65291 0.94283 0.0
C1239 C 0.63628 0.64833 0.9189 0.0
H1240 H 0.62073 0.60751 0.96313 0.0
C1241 C 0.64522 0.58792 0.90044 0.0
C1242 C 0.64952 0.57914 0.91865 0.0
C1243 C 0.64325 0.60301 0.90574 0.0
C1244 C 0.62566 0.61933 0.95137 0.0
H1245 H 0.5813 0.64409 0.87636 0.0
H1246 H 0.60721 0.64068 0.88841 0.0
H1247 H 0.60388 0.62421 0.96156 0.0
H1248 H 0.6557 0.57949 0.95658 0.0
H1249 H 0.65139 0.60573 0.96615 0.0
H1250 H 0.65699 0.64238 0.90714 0.0
C1251 C 0.6008 0.64504 0.90179 0.0
C1252 C 0.61601 0.62889 0.95047 0.0
C1253 C 0.58583 0.64678 0.89493 0.0
C1254 C 0.65239 0.58609 0.94224 0.0
C1255 C 0.64996 0.60104 0.9477 0.0
C1256 C 0.6459 0.63881 0.91981 0.0
C1257 C 0.60668 0.64769 0.92587 0.0
C1258 C 0.62051 0.64263 0.93307 0.0
C1259 C 0.6452 0.6095 0.92946 0.0
C1260 C 0.63988 0.62344 0.93489 0.0
H1261 H 0.57594 0.65879 0.94916 0.0
H1262 H 0.60195 0.65489 0.96153 0.0
H1263 H 0.64015 0.65906 0.90556 0.0
H1264 H 0.64307 0.58292 0.88208 0.0
H1265 H 0.63926 0.60904 0.89138 0.0
C1266 C 0.92921 0.58149 0.47996 0.0
C1267 C 0.9251 0.58321 0.45599 0.0
C1268 C 0.94527 0.59539 0.49062 0.0
C1269 C 0.98689 0.64148 0.47851 0.0
H1270 H 0.01254 0.61624 0.49902 0.0
C1271 C 0.05592 0.65751 0.44262 0.0
C1272 C 0.06727 0.65292 0.45572 0.0
C1273 C 0.03991 0.65554 0.45297 0.0
C1274 C 0.00569 0.62378 0.49408 0.0
H1275 H 0.93336 0.60094 0.42483 0.0
H1276 H 0.96137 0.62507 0.44304 0.0
H1277 H 0.97938 0.60011 0.49937 0.0
H1278 H 0.07182 0.64383 0.49013 0.0
H1279 H 0.04367 0.64032 0.50848 0.0
H1280 H 0.01342 0.6647 0.4713 0.0
C1281 C 0.95227 0.61337 0.45403 0.0
C1282 C 0.98653 0.61447 0.4943 0.0
C1283 C 0.93627 0.59951 0.44346 0.0
C1284 C 0.0632 0.64755 0.47984 0.0
C1285 C 0.04711 0.64549 0.49024 0.0
C1286 C 0.0061 0.65079 0.47823 0.0
C1287 C 0.95748 0.61106 0.47729 0.0
C1288 C 0.97691 0.62281 0.48501 0.0
C1289 C 0.03489 0.6487 0.47655 0.0
C1290 C 0.01564 0.64162 0.48454 0.0
H1291 H 0.92076 0.56888 0.48979 0.0
H1292 H 0.94876 0.59329 0.50865 0.0
H1293 H 0.97987 0.64844 0.47183 0.0
H1294 H 0.05882 0.66151 0.42388 0.0
H1295 H 0.03074 0.65788 0.44174 0.0
C1296 C 0.41495 0.0496 0.98212 0.0
C1297 C 0.4121 0.06246 0.9697 0.0
C1298 C 0.40028 0.03436 0.99284 0.0
C1299 C 0.35392 0.0035 0.97715 0.0
H1300 H 0.36009 0.97578 0.02844 0.0
C1301 C 0.32758 0.92741 0.96445 0.0
C1302 C 0.34322 0.92545 0.96414 0.0
C1303 C 0.32821 0.94259 0.97589 0.0
C1304 C 0.35778 0.98332 0.01437 0.0
H1305 H 0.39206 0.07041 0.96016 0.0
H1306 H 0.36599 0.04315 0.97827 0.0
H1307 H 0.37686 0.00929 0.02994 0.0
H1308 H 0.37099 0.93646 0.97738 0.0
H1309 H 0.37204 0.96254 -0.00239 0.0
H1310 H 0.33636 0.97766 0.96033 0.0
C1311 C 0.37968 0.04507 0.98004 0.0
C1312 C 0.36738 0.0025 0.01523 0.0
C1313 C 0.39454 0.06062 0.96971 0.0
C1314 C 0.3588 0.93778 0.97726 0.0
C1315 C 0.3593 0.95262 0.98907 0.0
C1316 C 0.34431 0.98432 0.97631 0.0
C1317 C 0.38233 0.03145 0.99092 0.0
C1318 C 0.36672 0.01273 0.99561 0.0
C1319 C 0.34433 0.95568 0.98762 0.0
C1320 C 0.3474 0.97415 0.99391 0.0
H1321 H 0.42841 0.05081 0.98244 0.0
H1322 H 0.40283 0.02406 0.00075 0.0
H1323 H 0.35304 0.01096 0.96179 0.0
H1324 H 0.3154 0.91803 0.95439 0.0
H1325 H 0.31651 0.94465 0.97443 0.0
C1326 C 0.36036 0.41517 0.47126 0.0
C1327 C 0.34479 0.41213 0.45829 0.0
C1328 C 0.36109 0.40055 0.48186 0.0
C1329 C 0.34695 0.35452 0.46578 0.0
H1330 H 0.37965 0.36086 0.51875 0.0
C1331 C 0.39762 0.32856 0.45752 0.0
C1332 C 0.41516 0.34428 0.45764 0.0
C1333 C 0.38267 0.32921 0.46766 0.0
C1334 C 0.37012 0.3585 0.50421 0.0
H1335 H 0.31722 0.39177 0.44753 0.0
H1336 H 0.31874 0.36579 0.46546 0.0
H1337 H 0.36239 0.37713 0.51914 0.0
H1338 H 0.43135 0.37231 0.47022 0.0
H1339 H 0.40561 0.37338 0.48831 0.0
H1340 H 0.35606 0.33735 0.44971 0.0
C1341 C 0.33024 0.37958 0.46774 0.0
C1342 C 0.36025 0.36781 0.50442 0.0
C1343 C 0.32937 0.39439 0.45753 0.0
C1344 C 0.4179 0.36006 0.4698 0.0
C1345 C 0.40316 0.36057 0.48039 0.0
C1346 C 0.35679 0.34516 0.4656 0.0
C1347 C 0.34639 0.38248 0.47929 0.0
C1348 C 0.3498 0.36709 0.48426 0.0
C1349 C 0.38527 0.34544 0.47859 0.0
C1350 C 0.36959 0.3483 0.48388 0.0
H1351 H 0.37237 0.42877 0.47215 0.0
H1352 H 0.37384 0.40329 0.49028 0.0
H1353 H 0.33897 0.35361 0.45 0.0
H1354 H 0.39523 0.31625 0.44816 0.0
H1355 H 0.36901 0.3174 0.46593 0.0
C1356 C 0.06258 0.40405 0.96955 0.0
C1357 C 0.06449 0.40495 0.94441 0.0
C1358 C 0.04707 0.38936 0.98023 0.0
C1359 C 0.00525 0.3443 0.9667 0.0
H1360 H 0.97904 0.36716 0.99362 0.0
C1361 C 0.94067 0.33569 0.92862 0.0
C1362 C 0.92767 0.33737 0.94244 0.0
C1363 C 0.95558 0.33576 0.93963 0.0
C1364 C 0.98609 0.36022 0.98699 0.0
H1365 H 0.05298 0.3908 0.91086 0.0
H1366 H 0.02631 0.3651 0.92924 0.0
H1367 H 0.01239 0.38362 0.99414 0.0
H1368 H 0.9192 0.33936 0.97857 0.0
H1369 H 0.946 0.34032 -0.00196 0.0
H1370 H 0.97889 0.32172 0.95721 0.0
C1371 C 0.03654 0.37554 0.94091 0.0
C1372 C 0.00529 0.36969 0.98729 0.0
C1373 C 0.0517 0.39034 0.93029 0.0
C1374 C 0.92911 0.33797 0.96764 0.0
C1375 C 0.94437 0.3385 0.97872 0.0
C1376 C 0.98606 0.33484 0.96639 0.0
C1377 C 0.03361 0.37525 0.96587 0.0
C1378 C 0.01498 0.36245 0.97529 0.0
C1379 C 0.95803 0.33796 0.96469 0.0
C1380 C 0.97641 0.34341 0.97468 0.0
H1381 H 0.07232 0.4153 0.9807 0.0
H1382 H 0.04509 0.38952 -0.00053 0.0
H1383 H 0.01242 0.33826 0.95777 0.0
H1384 H 0.93976 0.3352 0.90915 0.0
H1385 H 0.96598 0.33564 0.92823 0.0
C1386 C 0.56851 0.94215 0.46859 0.0
C1387 C 0.57234 0.92965 0.45698 0.0
C1388 C 0.58269 0.95858 0.47766 0.0
C1389 C 0.62835 0.99148 0.45946 0.0
H1390 H 0.62057 0.01984 0.50828 0.0
C1391 C 0.65581 0.06923 0.44896 0.0
C1392 C 0.64033 0.07138 0.44673 0.0
C1393 C 0.65407 0.05311 0.45896 0.0
C1394 C 0.6233 0.01212 0.49492 0.0
H1395 H 0.59376 0.92367 0.44734 0.0
H1396 H 0.6189 0.95288 0.46279 0.0
H1397 H 0.60517 0.98645 0.51185 0.0
H1398 H 0.6113 0.05918 0.45457 0.0
H1399 H 0.60835 0.03143 0.47252 0.0
H1400 H 0.64534 0.01709 0.44158 0.0
C1401 C 0.60486 0.94984 0.46503 0.0
C1402 C 0.61447 0.99302 0.49691 0.0
C1403 C 0.59051 0.93315 0.45628 0.0
C1404 C 0.62341 0.05777 0.45592 0.0
C1405 C 0.62178 0.042 0.46644 0.0
C1406 C 0.63733 0.01062 0.45759 0.0
C1407 C 0.6011 0.96302 0.47498 0.0
C1408 C 0.61577 0.98245 0.47823 0.0
C1409 C 0.63695 0.03929 0.46754 0.0
C1410 C 0.63378 0.02092 0.4744 0.0
H1411 H 0.55457 0.93969 0.46945 0.0
H1412 H 0.57925 0.96844 0.48489 0.0
H1413 H 0.62968 0.98377 0.44475 0.0
H1414 H 0.66901 0.07958 0.44194 0.0
H1415 H 0.6659 0.05122 0.45942 0.0
C1416 C 0.46604 0.60473 0.9113 0.0
C1417 C 0.48123 0.6192 0.92286 0.0
C1418 C 0.45052 0.59255 0.9245 0.0
C1419 C 0.42928 0.5845 0.9861 0.0
H1420 H 0.40669 0.53346 0.96659 0.0
C1421 C 0.39325 0.52104 0.04844 0.0
C1422 C 0.37596 0.50679 0.04106 0.0
C1423 C 0.40327 0.53636 0.03375 0.0
C1424 C 0.41269 0.5477 0.97203 0.0
H1425 H 0.492 0.63257 0.95716 0.0
H1426 H 0.46551 0.61087 0.98038 0.0
H1427 H 0.42971 0.55719 0.94089 0.0
H1428 H 0.35534 0.49758 0.01292 0.0
H1429 H 0.37328 0.52417 0.98677 0.0
H1430 H 0.41306 0.57451 0.01825 0.0
C1431 C 0.46511 0.60917 0.96104 0.0
C1432 C 0.42584 0.56138 0.95726 0.0
C1433 C 0.48043 0.62158 0.94774 0.0
C1434 C 0.3686 0.50841 0.01908 0.0
C1435 C 0.37884 0.52354 0.00412 0.0
C1436 C 0.41642 0.57074 0.00113 0.0
C1437 C 0.45003 0.59428 0.94968 0.0
C1438 C 0.43458 0.57997 0.96424 0.0
C1439 C 0.39635 0.53748 0.01122 0.0
C1440 C 0.40822 0.55224 0.99432 0.0
H1441 H 0.46622 0.60271 0.89207 0.0
H1442 H 0.43903 0.58159 0.91496 0.0
H1443 H 0.43531 0.59865 0.99189 0.0
H1444 H 0.3992 0.52015 0.06534 0.0
H1445 H 0.41683 0.5469 0.03946 0.0
C1446 C 0.84251 0.36642 0.53633 0.0
C1447 C 0.85425 0.37405 0.55625 0.0
C1448 C 0.83701 0.37697 0.523 0.0
C1449 C 0.84293 0.407 0.48786 0.0
H1450 H 0.83962 0.44781 0.51474 0.0
C1451 C 0.87189 0.47577 0.43981 0.0
C1452 C 0.86396 0.48689 0.44305 0.0
C1453 C 0.86487 0.45901 0.45177 0.0
C1454 C 0.84012 0.4363 0.50681 0.0
H1455 H 0.86822 0.39824 0.57891 0.0
H1456 H 0.85904 0.41664 0.55556 0.0
H1457 H 0.83623 0.42311 0.54099 0.0
H1458 H 0.84185 0.4887 0.46057 0.0
H1459 H 0.82948 0.45925 0.48145 0.0
H1460 H 0.84708 0.42031 0.45376 0.0
C1461 C 0.85384 0.4025 0.55024 0.0
C1462 C 0.83839 0.42223 0.52193 0.0
C1463 C 0.85928 0.39196 0.56356 0.0
C1464 C 0.84834 0.48049 0.45778 0.0
C1465 C 0.84129 0.46366 0.46981 0.0
C1466 C 0.84451 0.42099 0.47273 0.0
C1467 C 0.84316 0.39536 0.52932 0.0
C1468 C 0.84061 0.40785 0.5128 0.0
C1469 C 0.8497 0.45289 0.46726 0.0
C1470 C 0.84397 0.43622 0.48221 0.0
H1471 H 0.83824 0.35259 0.53035 0.0
H1472 H 0.82851 0.37095 0.50722 0.0
H1473 H 0.84477 0.3962 0.48014 0.0
H1474 H 0.8839 0.48022 0.42855 0.0
H1475 H 0.87191 0.45126 0.44967 0.0
C1476 C 0.39198 0.86891 0.93436 0.0
C1477 C 0.37384 0.86312 0.94141 0.0
C1478 C 0.40245 0.86293 0.94675 0.0
C1479 C 0.42168 0.8457 0.97239 0.0
H1480 H 0.41992 0.85207 0.04126 0.0
C1481 C 0.47962 0.85263 0.03484 0.0
C1482 C 0.48646 0.86804 0.05006 0.0
C1483 C 0.46273 0.84611 0.02315 0.0
C1484 C 0.42051 0.8501 0.02208 0.0
H1485 H 0.35199 0.84541 0.9659 0.0
H1486 H 0.37036 0.83488 0.98759 0.0
H1487 H 0.39579 0.85078 0.01568 0.0
H1488 H 0.48046 0.88807 0.06588 0.0
H1489 H 0.4513 0.87691 0.04541 0.0
H1490 H 0.44714 0.8464 0.97863 0.0
C1491 C 0.37651 0.84425 0.97261 0.0
C1492 C 0.40655 0.84913 0.00743 0.0
C1493 C 0.36598 0.85021 0.96011 0.0
C1494 C 0.47567 0.87623 0.05419 0.0
C1495 C 0.45881 0.8697 0.04261 0.0
C1496 C 0.43568 0.84672 0.98705 0.0
C1497 C 0.39505 0.851 0.96653 0.0
C1498 C 0.40739 0.8477 0.9823 0.0
C1499 C 0.4523 0.85479 0.02658 0.0
C1500 C 0.43564 0.84972 0.01194 0.0
H1501 H 0.39842 0.87875 0.91991 0.0
H1502 H 0.41672 0.86859 0.94171 0.0
H1503 H 0.42256 0.84427 0.95314 0.0
H1504 H 0.48757 0.84595 0.03136 0.0
H1505 H 0.458 0.8345 0.01105 0.0
C1506 C 0.52076 0.39398 0.43901 0.0
C1507 C 0.50905 0.37521 0.4438 0.0
C1508 C 0.53678 0.40418 0.45237 0.0
C1509 C 0.55523 0.40455 0.51218 0.0
H1510 H 0.59798 0.44752 0.48644 0.0
C1511 C 0.62648 0.47413 0.54492 0.0
C1512 C 0.619 0.47928 0.56399 0.0
C1513 C 0.61527 0.45868 0.53092 0.0
C1514 C 0.58635 0.4354 0.49397 0.0
H1515 H 0.5056 0.35219 0.4654 0.0
H1516 H 0.53379 0.37004 0.4886 0.0
H1517 H 0.57519 0.42517 0.45905 0.0
H1518 H 0.59401 0.4718 0.58388 0.0
H1519 H 0.57447 0.44523 0.55924 0.0
H1520 H 0.56634 0.41483 0.54711 0.0
C1521 C 0.53036 0.3769 0.47476 0.0
C1522 C 0.57315 0.42269 0.47824 0.0
C1523 C 0.51426 0.36665 0.46137 0.0
C1524 C 0.60023 0.46824 0.56934 0.0
C1525 C 0.58903 0.45287 0.55528 0.0
C1526 C 0.56849 0.4172 0.52792 0.0
C1527 C 0.54155 0.39589 0.47081 0.0
C1528 C 0.55712 0.40746 0.48717 0.0
C1529 C 0.59633 0.44809 0.53561 0.0
C1530 C 0.58388 0.43311 0.51902 0.0
H1531 H 0.51721 0.40101 0.42556 0.0
H1532 H 0.54491 0.41881 0.44901 0.0
H1533 H 0.54302 0.39303 0.51973 0.0
H1534 H 0.64092 0.48226 0.54044 0.0
H1535 H 0.62139 0.45523 0.51613 0.0
C1536 C 0.1321 0.51011 0.95582 0.0
C1537 C 0.11771 0.50216 0.93893 0.0
C1538 C 0.1352 0.5256 0.96902 0.0
C1539 C 0.10899 0.54565 0.99258 0.0
H1540 H 0.15578 0.58923 0.00634 0.0
C1541 C 0.11344 0.59614 0.06363 0.0
C1542 C 0.12074 0.61431 0.05552 0.0
C1543 C 0.11635 0.58364 0.05067 0.0
C1544 C 0.14266 0.5771 0.00261 0.0
H1545 H 0.09609 0.50499 0.92158 0.0
H1546 H 0.10145 0.53181 0.94465 0.0
H1547 H 0.15458 0.5655 0.9792 0.0
H1548 H 0.13814 0.63402 0.02854 0.0
H1549 H 0.14319 0.61198 0.00575 0.0
H1550 H 0.09697 0.55699 0.01578 0.0
C1551 C 0.11019 0.52596 0.94785 0.0
C1552 C 0.14199 0.56356 0.98722 0.0
C1553 C 0.10716 0.51061 0.93461 0.0
C1554 C 0.13227 0.62009 0.0352 0.0
C1555 C 0.1352 0.60751 0.02218 0.0
C1556 C 0.10969 0.55898 0.00809 0.0
C1557 C 0.12389 0.5333 0.96563 0.0
C1558 C 0.12509 0.54779 0.98194 0.0
C1559 C 0.12664 0.589 0.02931 0.0
C1560 C 0.12649 0.57485 0.01328 0.0
H1561 H 0.14054 0.504 0.95948 0.0
H1562 H 0.14583 0.53099 0.98268 0.0
H1563 H 0.09581 0.53354 0.98906 0.0
H1564 H 0.10473 0.5913 0.07942 0.0
H1565 H 0.10989 0.56952 0.0568 0.0
C1566 C 0.51514 0.14707 0.55211 0.0
C1567 C 0.5076 0.13026 0.56451 0.0
C1568 C 0.53228 0.15437 0.54085 0.0
C1569 C 0.5597 0.15709 0.50318 0.0
H1570 H 0.5973 0.14695 0.52616 0.0
C1571 C 0.6006 0.13766 0.44064 0.0
C1572 C 0.61823 0.14111 0.44696 0.0
C1573 C 0.59098 0.14316 0.45568 0.0
C1574 C 0.58723 0.15034 0.51958 0.0
H1575 H 0.5126 0.10841 0.57579 0.0
H1576 H 0.54205 0.12081 0.55585 0.0
H1577 H 0.57354 0.14424 0.55362 0.0
H1578 H 0.64015 0.15424 0.4732 0.0
H1579 H 0.62328 0.16397 0.49959 0.0
H1580 H 0.57322 0.1629 0.46903 0.0
C1581 C 0.53499 0.1286 0.55507 0.0
C1582 C 0.57343 0.14853 0.53527 0.0
C1583 C 0.51794 0.12136 0.56634 0.0
C1584 C 0.62654 0.15129 0.46791 0.0
C1585 C 0.61684 0.15678 0.48307 0.0
C1586 C 0.57358 0.15905 0.48755 0.0
C1587 C 0.54222 0.14499 0.54175 0.0
C1588 C 0.55901 0.15101 0.52694 0.0
C1589 C 0.59873 0.15228 0.47746 0.0
C1590 C 0.58698 0.15482 0.49525 0.0
H1591 H 0.5076 0.15436 0.55052 0.0
H1592 H 0.53755 0.16714 0.53099 0.0
H1593 H 0.54885 0.15913 0.49609 0.0
H1594 H 0.59384 0.12998 0.42453 0.0
H1595 H 0.577 0.13922 0.45086 0.0
C1596 C 0.50424 0.36955 0.02509 0.0
C1597 C 0.50157 0.37609 0.04714 0.0
C1598 C 0.51983 0.3805 0.01119 0.0
C1599 C 0.56672 0.41914 0.01202 0.0
H1600 H 0.55544 0.43197 0.94982 0.0
C1601 C 0.61904 0.48354 0.96007 0.0
C1602 C 0.6177 0.48399 0.93493 0.0
C1603 C 0.60623 0.46825 0.97311 0.0
C1604 C 0.55902 0.42827 0.96681 0.0
H1605 H 0.51353 0.39867 0.07258 0.0
H1606 H 0.54103 0.41757 0.04853 0.0
H1607 H 0.53089 0.40847 0.97408 0.0
H1608 H 0.60275 0.46841 0.90352 0.0
H1609 H 0.58102 0.44133 0.92604 0.0
H1610 H 0.59486 0.4387 0.00481 0.0
C1611 C 0.53096 0.40409 0.04195 0.0
C1612 C 0.54487 0.41483 0.98075 0.0
C1613 C 0.5152 0.39333 0.0556 0.0
C1614 C 0.60394 0.46851 0.92294 0.0
C1615 C 0.5914 0.45304 0.93592 0.0
C1616 C 0.58098 0.43232 -0.00214 0.0
C1617 C 0.53318 0.39794 0.01939 0.0
C1618 C 0.54855 0.41045 0.00365 0.0
C1619 C 0.59203 0.45288 0.96125 0.0
C1620 C 0.57727 0.4374 0.97527 0.0
H1621 H 0.49392 0.35634 0.0181 0.0
H1622 H 0.52129 0.37552 0.99382 0.0
H1623 H 0.56986 0.41587 0.02963 0.0
H1624 H 0.62946 0.49535 0.96978 0.0
H1625 H 0.60708 0.46887 0.99255 0.0
C1626 C 0.14089 0.62852 0.4698 0.0
C1627 C 0.13097 0.62117 0.44839 0.0
C1628 C 0.14698 0.61856 0.48332 0.0
C1629 C 0.15684 0.58078 0.48256 0.0
H1630 H 0.13362 0.56826 0.54529 0.0
C1631 C 0.14185 0.51489 0.53253 0.0
C1632 C 0.13882 0.51363 0.55746 0.0
C1633 C 0.14625 0.5311 0.52026 0.0
C1634 C 0.14075 0.57192 0.5282 0.0
H1635 H 0.12072 0.59825 0.42351 0.0
H1636 H 0.13175 0.58107 0.44689 0.0
H1637 H 0.13226 0.59162 0.52128 0.0
H1638 H 0.13974 0.52871 0.58951 0.0
H1639 H 0.14864 0.55738 0.56846 0.0
H1640 H 0.16542 0.56116 0.48936 0.0
C1641 C 0.13466 0.59444 0.45327 0.0
C1642 C 0.13984 0.58529 0.51437 0.0
C1643 C 0.12824 0.6042 0.44001 0.0
C1644 C 0.14177 0.52928 0.5702 0.0
C1645 C 0.14668 0.54565 0.55805 0.0
C1646 C 0.15813 0.56766 0.49663 0.0
C1647 C 0.14362 0.6013 0.47535 0.0
C1648 C 0.1474 0.58945 0.49119 0.0
C1649 C 0.14815 0.54654 0.53276 0.0
C1650 C 0.14957 0.5626 0.51935 0.0
H1651 H 0.14317 0.64155 0.47671 0.0
H1652 H 0.15385 0.62408 0.50033 0.0
H1653 H 0.16287 0.58388 0.46474 0.0
H1654 H 0.13954 0.50297 0.52225 0.0
H1655 H 0.14703 0.53103 0.50082 0.0
C1656 C 0.62466 0.1331 0.0371 0.0
C1657 C 0.61733 0.11779 0.05254 0.0
C1658 C 0.61314 0.13836 0.02575 0.0
C1659 C 0.56589 0.13152 0.02709 0.0
H1660 H 0.57287 0.13991 0.9583 0.0
C1661 C 0.51769 0.11694 0.94055 0.0
C1662 C 0.50576 0.12289 0.94894 0.0
C1663 C 0.53406 0.12187 0.95262 0.0
C1664 C 0.57081 0.13773 0.97753 0.0
H1665 H 0.59221 0.09636 0.06873 0.0
H1666 H 0.57218 0.10535 0.04877 0.0
H1667 H 0.59595 0.13748 0.98205 0.0
H1668 H 0.50225 0.13971 0.97565 0.0
H1669 H 0.53099 0.14837 0.99679 0.0
H1670 H 0.54021 0.13062 0.02235 0.0
C1671 C 0.58684 0.11347 0.04563 0.0
C1672 C 0.58412 0.13651 0.99119 0.0
C1673 C 0.59832 0.1082 0.05693 0.0
C1674 C 0.51111 0.13484 0.9688 0.0
C1675 C 0.52751 0.13971 0.98099 0.0
C1676 C 0.55258 0.13272 0.01343 0.0
C1677 C 0.59407 0.12846 0.02968 0.0
C1678 C 0.5815 0.13277 0.01599 0.0
C1679 C 0.5389 0.13284 0.97341 0.0
C1680 C 0.55459 0.13522 0.98837 0.0
H1681 H 0.63926 0.14085 0.03342 0.0
H1682 H 0.61915 0.15007 0.01373 0.0
H1683 H 0.56364 0.12895 0.04624 0.0
H1684 H 0.51405 0.10783 0.9252 0.0
H1685 H 0.54238 0.11616 0.94641 0.0
C1686 C 0.47833 0.62669 0.53465 0.0
C1687 C 0.4836 0.61976 0.55424 0.0
C1688 C 0.46256 0.61517 0.52135 0.0
C1689 C 0.43798 0.58511 0.4864 0.0
H1690 H 0.39606 0.54297 0.51514 0.0
C1691 C 0.39538 0.51771 0.43581 0.0
C1692 C 0.37672 0.50614 0.44135 0.0
C1693 C 0.40582 0.53417 0.44817 0.0
C1694 C 0.40743 0.55484 0.50675 0.0
H1695 H 0.47606 0.59542 0.5757 0.0
H1696 H 0.44899 0.57533 0.55226 0.0
H1697 H 0.41857 0.5672 0.54086 0.0
H1698 H 0.35412 0.50335 0.46331 0.0
H1699 H 0.37239 0.53234 0.4848 0.0
H1700 H 0.42687 0.57272 0.4523 0.0
C1701 C 0.45675 0.58972 0.54737 0.0
C1702 C 0.4205 0.56862 0.52155 0.0
C1703 C 0.47242 0.60123 0.56072 0.0
C1704 C 0.3685 0.5119 0.4587 0.0
C1705 C 0.37898 0.52846 0.4711 0.0
C1706 C 0.42483 0.5714 0.47161 0.0
C1707 C 0.45176 0.59645 0.52728 0.0
C1708 C 0.43629 0.58357 0.5116 0.0
C1709 C 0.39787 0.53957 0.46635 0.0
C1710 C 0.40978 0.55576 0.48164 0.0
H1711 H 0.48656 0.64094 0.5293 0.0
H1712 H 0.45898 0.62087 0.5062 0.0
H1713 H 0.44996 0.59637 0.47806 0.0
H1714 H 0.40217 0.51376 0.42249 0.0
H1715 H 0.42036 0.5422 0.44423 0.0
C1716 C 0.88626 0.40135 0.93203 0.0
C1717 C 0.87553 0.38238 0.93644 0.0
C1718 C 0.88346 0.41384 0.94523 0.0
C1719 C 0.85211 0.42027 0.98465 0.0
H1720 H 0.89746 0.45843 0.0129 0.0
C1721 C 0.8629 0.48707 0.03216 0.0
C1722 C 0.87453 0.49281 0.05239 0.0
C1723 C 0.85971 0.47142 0.01926 0.0
C1724 C 0.88465 0.44779 0.00531 0.0
H1725 H 0.85263 0.36162 0.95712 0.0
H1726 H 0.84775 0.38363 0.98024 0.0
H1727 H 0.89818 0.43584 0.98633 0.0
H1728 H 0.89044 0.48566 0.07629 0.0
H1729 H 0.88483 0.45848 0.05391 0.0
H1730 H 0.83867 0.43253 0.00371 0.0
C1731 C 0.85833 0.38871 0.96654 0.0
C1732 C 0.8851 0.43498 0.98988 0.0
C1733 C 0.8612 0.37615 0.95338 0.0
C1734 C 0.88167 0.48181 0.06056 0.0
C1735 C 0.87849 0.46625 0.04773 0.0
C1736 C 0.85169 0.43331 -3e-05 0.0
C1737 C 0.86982 0.40768 0.96306 0.0
C1738 C 0.86888 0.42113 0.97933 0.0
C1739 C 0.8681 0.46132 0.02644 0.0
C1740 C 0.86798 0.44713 0.01052 0.0
H1741 H 0.89729 0.40665 0.91895 0.0
H1742 H 0.89233 0.42839 0.94195 0.0
H1743 H 0.83942 0.4097 0.9767 0.0
H1744 H 0.85715 0.49523 0.02548 0.0
H1745 H 0.85165 0.4679 0.00289 0.0
C1746 C 0.47632 0.84933 0.46123 0.0
C1747 C 0.48002 0.86133 0.44171 0.0
C1748 C 0.46019 0.84312 0.47468 0.0
C1749 C 0.41544 0.84273 0.47644 0.0
H1750 H 0.4262 0.85164 0.54455 0.0
C1751 C 0.39501 0.8761 0.558 0.0
C1752 C 0.37599 0.86817 0.55444 0.0
C1753 C 0.40482 0.86898 0.54647 0.0
C1754 C 0.42291 0.84899 0.5256 0.0
H1755 H 0.46903 0.87497 0.41978 0.0
H1756 H 0.44131 0.86451 0.44324 0.0
H1757 H 0.44829 0.84997 0.51798 0.0
H1758 H 0.35217 0.84586 0.53699 0.0
H1759 H 0.36937 0.83331 0.51691 0.0
H1760 H 0.39077 0.8433 0.48376 0.0
C1761 C 0.45064 0.85969 0.44821 0.0
C1762 C 0.43548 0.84777 0.51038 0.0
C1763 C 0.46669 0.86587 0.43484 0.0
C1764 C 0.36685 0.85237 0.53998 0.0
C1765 C 0.3767 0.84522 0.52841 0.0
C1766 C 0.40294 0.8441 0.49164 0.0
C1767 C 0.44746 0.84875 0.46878 0.0
C1768 C 0.43227 0.84546 0.48544 0.0
C1769 C 0.39588 0.8537 0.53111 0.0
C1770 C 0.40693 0.84807 0.51622 0.0
H1771 H 0.48626 0.84547 0.46688 0.0
H1772 H 0.45802 0.83449 0.49022 0.0
H1773 H 0.41237 0.84056 0.45738 0.0
H1774 H 0.4025 0.88824 0.56908 0.0
H1775 H 0.4196 0.87608 0.5487 0.0
loop_
_geom_bond_atom_site_label_1
_geom_bond_atom_site_label_2
_geom_bond_distance
_geom_bond_site_symmetry_2
_ccdc_geom_bond_type
Zn0 O3 2.031 . S
Zn0 O5 2.049 . S
Zn0 O10 2.067 . S
Zn1 O2 1.962 . S
Zn1 O4 1.986 . S
Zn1 O6 1.996 . S
Zn1 O9 1.943 . S
O2 Zn1 1.962 . S
O2 C7 1.254 . S
O3 Zn0 2.031 . S
O3 C7 1.269 . S
O4 Zn1 1.986 . S
O4 C11 1.262 . S
O5 Zn0 2.049 . S
O5 C13 1.260 . S
O6 Zn1 1.996 . S
O6 C13 1.257 . S
C7 O2 1.254 . S
C7 O3 1.269 . S
C8 O9 1.249 . S
C8 O10 1.270 . S
O9 Zn1 1.943 . S
O9 C8 1.249 . S
O10 Zn0 2.067 . S
O10 C8 1.270 . S
C11 O4 1.262 . S
C11 O12 1.232 . S
O12 C11 1.232 . S
C13 O5 1.260 . S
C13 O6 1.257 . S
Zn14 O17 2.031 . S
Zn14 O19 2.049 . S
Zn14 O24 2.067 . S
Zn15 O16 1.962 . S
Zn15 O18 1.986 . S
Zn15 O20 1.996 . S
Zn15 O23 1.943 . S
O16 Zn15 1.962 . S
O16 C21 1.254 . S
O17 Zn14 2.031 . S
O17 C21 1.269 . S
O18 Zn15 1.986 . S
O18 C25 1.262 . S
O19 Zn14 2.049 . S
O19 C27 1.260 . S
O20 Zn15 1.996 . S
O20 C27 1.257 . S
C21 O16 1.254 . S
C21 O17 1.269 . S
C22 O23 1.249 . S
C22 O24 1.270 . S
O23 Zn15 1.943 . S
O23 C22 1.249 . S
O24 Zn14 2.067 . S
O24 C22 1.270 . S
C25 O18 1.262 . S
C25 O26 1.232 . S
O26 C25 1.232 . S
C27 O19 1.260 . S
C27 O20 1.257 . S
Zn28 O31 2.031 . S
Zn28 O33 2.049 . S
Zn28 O38 2.067 . S
Zn29 O30 1.962 . S
Zn29 O32 1.986 . S
Zn29 O34 1.996 . S
Zn29 O37 1.943 . S
O30 Zn29 1.962 . S
O30 C35 1.254 . S
O31 Zn28 2.031 . S
O31 C35 1.269 . S
O32 Zn29 1.986 . S
O32 C39 1.262 . S
O33 Zn28 2.049 . S
O33 C41 1.260 . S
O34 Zn29 1.996 . S
O34 C41 1.257 . S
C35 O30 1.254 . S
C35 O31 1.269 . S
C36 O37 1.249 . S
C36 O38 1.270 . S
O37 Zn29 1.943 . S
O37 C36 1.249 . S
O38 Zn28 2.067 . S
O38 C36 1.270 . S
C39 O32 1.262 . S
C39 O40 1.232 . S
O40 C39 1.232 . S
C41 O33 1.260 . S
C41 O34 1.257 . S
Zn42 O45 2.031 . S
Zn42 O47 2.049 . S
Zn42 O52 2.067 . S
Zn43 O44 1.962 . S
Zn43 O46 1.986 . S
Zn43 O48 1.996 . S
Zn43 O51 1.943 . S
O44 Zn43 1.962 . S
O44 C49 1.254 . S
O45 Zn42 2.031 . S
O45 C49 1.269 . S
O46 Zn43 1.986 . S
O46 C53 1.262 . S
O47 Zn42 2.049 . S
O47 C55 1.260 . S
O48 Zn43 1.996 . S
O48 C55 1.257 . S
C49 O44 1.254 . S
C49 O45 1.269 . S
C50 O51 1.249 . S
C50 O52 1.270 . S
O51 Zn43 1.943 . S
O51 C50 1.249 . S
O52 Zn42 2.067 . S
O52 C50 1.270 . S
C53 O46 1.262 . S
C53 O54 1.232 . S
O54 C53 1.232 . S
C55 O47 1.260 . S
C55 O48 1.257 . S
Zn56 O59 2.031 . S
Zn56 O61 2.049 . S
Zn56 O66 2.067 . S
Zn57 O58 1.962 . S
Zn57 O60 1.986 . S
Zn57 O62 1.996 . S
Zn57 O65 1.943 . S
O58 Zn57 1.962 . S
O58 C63 1.254 . S
O59 Zn56 2.031 . S
O59 C63 1.269 . S
O60 Zn57 1.986 . S
O60 C67 1.262 . S
O61 Zn56 2.049 . S
O61 C69 1.260 . S
O62 Zn57 1.996 . S
O62 C69 1.257 . S
C63 O58 1.254 . S
C63 O59 1.269 . S
C64 O65 1.249 . S
C64 O66 1.270 . S
O65 Zn57 1.943 . S
O65 C64 1.249 . S
O66 Zn56 2.067 . S
O66 C64 1.270 . S
C67 O60 1.262 . S
C67 O68 1.232 . S
O68 C67 1.232 . S
C69 O61 1.260 . S
C69 O62 1.257 . S
Zn70 O73 2.031 . S
Zn70 O75 2.049 . S
Zn70 O80 2.067 . S
Zn71 O72 1.962 . S
Zn71 O74 1.986 . S
Zn71 O76 1.996 . S
Zn71 O79 1.943 . S
O72 Zn71 1.962 . S
O72 C77 1.254 . S
O73 Zn70 2.031 . S
O73 C77 1.269 . S
O74 Zn71 1.986 . S
O74 C81 1.262 . S
O75 Zn70 2.049 . S
O75 C83 1.260 . S
O76 Zn71 1.996 . S
O76 C83 1.257 . S
C77 O72 1.254 . S
C77 O73 1.269 . S
C78 O79 1.249 . S
C78 O80 1.270 . S
O79 Zn71 1.943 . S
O79 C78 1.249 . S
O80 Zn70 2.067 . S
O80 C78 1.270 . S
C81 O74 1.262 . S
C81 O82 1.232 . S
O82 C81 1.232 . S
C83 O75 1.260 . S
C83 O76 1.257 . S
Zn84 O87 2.031 . S
Zn84 O89 2.049 . S
Zn84 O94 2.067 . S
Zn85 O86 1.962 . S
Zn85 O88 1.986 . S
Zn85 O90 1.996 . S
Zn85 O93 1.943 . S
O86 Zn85 1.962 . S
O86 C91 1.254 . S
O87 Zn84 2.031 . S
O87 C91 1.269 . S
O88 Zn85 1.986 . S
O88 C95 1.262 . S
O89 Zn84 2.049 . S
O89 C97 1.260 . S
O90 Zn85 1.996 . S
O90 C97 1.257 . S
C91 O86 1.254 . S
C91 O87 1.269 . S
C92 O93 1.249 . S
C92 O94 1.270 . S
O93 Zn85 1.943 . S
O93 C92 1.249 . S
O94 Zn84 2.067 . S
O94 C92 1.270 . S
C95 O88 1.262 . S
C95 O96 1.232 . S
O96 C95 1.232 . S
C97 O89 1.260 . S
C97 O90 1.257 . S
Zn98 O101 2.031 . S
Zn98 O103 2.049 . S
Zn98 O108 2.067 . S
Zn99 O100 1.962 . S
Zn99 O102 1.986 . S
Zn99 O104 1.996 . S
Zn99 O107 1.943 . S
O100 Zn99 1.962 . S
O100 C105 1.254 . S
O101 Zn98 2.031 . S
O101 C105 1.269 . S
O102 Zn99 1.986 . S
O102 C109 1.262 . S
O103 Zn98 2.049 . S
O103 C111 1.260 . S
O104 Zn99 1.996 . S
O104 C111 1.257 . S
C105 O100 1.254 . S
C105 O101 1.269 . S
C106 O107 1.249 . S
C106 O108 1.270 . S
O107 Zn99 1.943 . S
O107 C106 1.249 . S
O108 Zn98 2.067 . S
O108 C106 1.270 . S
C109 O102 1.262 . S
C109 O110 1.232 . S
O110 C109 1.232 . S
C111 O103 1.260 . S
C111 O104 1.257 . S
Zn112 O115 2.031 . S
Zn112 O117 2.049 . S
Zn112 O122 2.067 . S
Zn113 O114 1.962 . S
Zn113 O116 1.986 . S
Zn113 O118 1.996 . S
Zn113 O121 1.943 . S
O114 Zn113 1.962 . S
O114 C119 1.254 . S
O115 Zn112 2.031 . S
O115 C119 1.269 . S
O116 Zn113 1.986 . S
O116 C123 1.262 . S
O117 Zn112 2.049 . S
O117 C125 1.260 . S
O118 Zn113 1.996 . S
O118 C125 1.257 . S
C119 O114 1.254 . S
C119 O115 1.269 . S
C120 O121 1.249 . S
C120 O122 1.270 . S
O121 Zn113 1.943 . S
O121 C120 1.249 . S
O122 Zn112 2.067 . S
O122 C120 1.270 . S
C123 O116 1.262 . S
C123 O124 1.232 . S
O124 C123 1.232 . S
C125 O117 1.260 . S
C125 O118 1.257 . S
Zn126 O129 2.031 . S
Zn126 O131 2.049 . S
Zn126 O136 2.067 . S
Zn127 O128 1.962 . S
Zn127 O130 1.986 . S
Zn127 O132 1.996 . S
Zn127 O135 1.943 . S
O128 Zn127 1.962 . S
O128 C133 1.254 . S
O129 Zn126 2.031 . S
O129 C133 1.269 . S
O130 Zn127 1.986 . S
O130 C137 1.262 . S
O131 Zn126 2.049 . S
O131 C139 1.260 . S
O132 Zn127 1.996 . S
O132 C139 1.257 . S
C133 O128 1.254 . S
C133 O129 1.269 . S
C134 O135 1.249 . S
C134 O136 1.270 . S
O135 Zn127 1.943 . S
O135 C134 1.249 . S
O136 Zn126 2.067 . S
O136 C134 1.270 . S
C137 O130 1.262 . S
C137 O138 1.232 . S
O138 C137 1.232 . S
C139 O131 1.260 . S
C139 O132 1.257 . S
Zn140 O143 2.031 . S
Zn140 O145 2.049 . S
Zn140 O150 2.067 . S
Zn141 O142 1.962 . S
Zn141 O144 1.986 . S
Zn141 O146 1.996 . S
Zn141 O149 1.943 . S
O142 Zn141 1.962 . S
O142 C147 1.254 . S
O143 Zn140 2.031 . S
O143 C147 1.269 . S
O144 Zn141 1.986 . S
O144 C151 1.262 . S
O145 Zn140 2.049 . S
O145 C153 1.260 . S
O146 Zn141 1.996 . S
O146 C153 1.257 . S
C147 O142 1.254 . S
C147 O143 1.269 . S
C148 O149 1.249 . S
C148 O150 1.270 . S
O149 Zn141 1.943 . S
O149 C148 1.249 . S
O150 Zn140 2.067 . S
O150 C148 1.270 . S
C151 O144 1.262 . S
C151 O152 1.232 . S
O152 C151 1.232 . S
C153 O145 1.260 . S
C153 O146 1.257 . S
Zn154 O157 2.031 . S
Zn154 O159 2.049 . S
Zn154 O164 2.067 . S
Zn155 O156 1.962 . S
Zn155 O158 1.986 . S
Zn155 O160 1.996 . S
Zn155 O163 1.943 . S
O156 Zn155 1.962 . S
O156 C161 1.254 . S
O157 Zn154 2.031 . S
O157 C161 1.269 . S
O158 Zn155 1.986 . S
O158 C165 1.262 . S
O159 Zn154 2.049 . S
O159 C167 1.260 . S
O160 Zn155 1.996 . S
O160 C167 1.257 . S
C161 O156 1.254 . S
C161 O157 1.269 . S
C162 O163 1.249 . S
C162 O164 1.270 . S
O163 Zn155 1.943 . S
O163 C162 1.249 . S
O164 Zn154 2.067 . S
O164 C162 1.270 . S
C165 O158 1.262 . S
C165 O166 1.232 . S
O166 C165 1.232 . S
C167 O159 1.260 . S
C167 O160 1.257 . S
Zn168 O171 2.031 . S
Zn168 O173 2.049 . S
Zn168 O178 2.067 . S
Zn169 O170 1.962 . S
Zn169 O172 1.986 . S
Zn169 O174 1.996 . S
Zn169 O177 1.943 . S
O170 Zn169 1.962 . S
O170 C175 1.254 . S
O171 Zn168 2.031 . S
O171 C175 1.269 . S
O172 Zn169 1.986 . S
O172 C179 1.262 . S
O173 Zn168 2.049 . S
O173 C181 1.260 . S
O174 Zn169 1.996 . S
O174 C181 1.257 . S
C175 O170 1.254 . S
C175 O171 1.269 . S
C176 O177 1.249 . S
C176 O178 1.270 . S
O177 Zn169 1.943 . S
O177 C176 1.249 . S
O178 Zn168 2.067 . S
O178 C176 1.270 . S
C179 O172 1.262 . S
C179 O180 1.232 . S
O180 C179 1.232 . S
C181 O173 1.260 . S
C181 O174 1.257 . S
Zn182 O185 2.031 . S
Zn182 O187 2.049 . S
Zn182 O192 2.067 . S
Zn183 O184 1.962 . S
Zn183 O186 1.986 . S
Zn183 O188 1.996 . S
Zn183 O191 1.943 . S
O184 Zn183 1.962 . S
O184 C189 1.254 . S
O185 Zn182 2.031 . S
O185 C189 1.269 . S
O186 Zn183 1.986 . S
O186 C193 1.262 . S
O187 Zn182 2.049 . S
O187 C195 1.260 . S
O188 Zn183 1.996 . S
O188 C195 1.257 . S
C189 O184 1.254 . S
C189 O185 1.269 . S
C190 O191 1.249 . S
C190 O192 1.270 . S
O191 Zn183 1.943 . S
O191 C190 1.249 . S
O192 Zn182 2.067 . S
O192 C190 1.270 . S
C193 O186 1.262 . S
C193 O194 1.232 . S
O194 C193 1.232 . S
C195 O187 1.260 . S
C195 O188 1.257 . S
Zn196 O199 2.031 . S
Zn196 O201 2.049 . S
Zn196 O206 2.067 . S
Zn197 O198 1.962 . S
Zn197 O200 1.986 . S
Zn197 O202 1.996 . S
Zn197 O205 1.943 . S
O198 Zn197 1.962 . S
O198 C203 1.254 . S
O199 Zn196 2.031 . S
O199 C203 1.269 . S
O200 Zn197 1.986 . S
O200 C207 1.262 . S
O201 Zn196 2.049 . S
O201 C209 1.260 . S
O202 Zn197 1.996 . S
O202 C209 1.257 . S
C203 O198 1.254 . S
C203 O199 1.269 . S
C204 O205 1.249 . S
C204 O206 1.270 . S
O205 Zn197 1.943 . S
O205 C204 1.249 . S
O206 Zn196 2.067 . S
O206 C204 1.270 . S
C207 O200 1.262 . S
C207 O208 1.232 . S
O208 C207 1.232 . S
C209 O201 1.260 . S
C209 O202 1.257 . S
Zn210 O213 2.031 . S
Zn210 O215 2.049 . S
Zn210 O220 2.067 . S
Zn211 O212 1.962 . S
Zn211 O214 1.986 . S
Zn211 O216 1.996 . S
Zn211 O219 1.943 . S
O212 Zn211 1.962 . S
O212 C217 1.254 . S
O213 Zn210 2.031 . S
O213 C217 1.269 . S
O214 Zn211 1.986 . S
O214 C221 1.262 . S
O215 Zn210 2.049 . S
O215 C223 1.260 . S
O216 Zn211 1.996 . S
O216 C223 1.257 . S
C217 O212 1.254 . S
C217 O213 1.269 . S
C218 O219 1.249 . S
C218 O220 1.270 . S
O219 Zn211 1.943 . S
O219 C218 1.249 . S
O220 Zn210 2.067 . S
O220 C218 1.270 . S
C221 O214 1.262 . S
C221 O222 1.232 . S
O222 C221 1.232 . S
C223 O215 1.260 . S
C223 O216 1.257 . S
Zn224 O227 2.031 . S
Zn224 O229 2.049 . S
Zn224 O234 2.067 . S
Zn225 O226 1.962 . S
Zn225 O228 1.986 . S
Zn225 O230 1.996 . S
Zn225 O233 1.943 . S
O226 Zn225 1.962 . S
O226 C231 1.254 . S
O227 Zn224 2.031 . S
O227 C231 1.269 . S
O228 Zn225 1.986 . S
O228 C235 1.262 . S
O229 Zn224 2.049 . S
O229 C237 1.260 . S
O230 Zn225 1.996 . S
O230 C237 1.257 . S
C231 O226 1.254 . S
C231 O227 1.269 . S
C232 O233 1.249 . S
C232 O234 1.270 . S
O233 Zn225 1.943 . S
O233 C232 1.249 . S
O234 Zn224 2.067 . S
O234 C232 1.270 . S
C235 O228 1.262 . S
C235 O236 1.232 . S
O236 C235 1.232 . S
C237 O229 1.260 . S
C237 O230 1.257 . S
Zn238 O241 2.031 . S
Zn238 O243 2.049 . S
Zn238 O248 2.067 . S
Zn239 O240 1.962 . S
Zn239 O242 1.986 . S
Zn239 O244 1.996 . S
Zn239 O247 1.943 . S
O240 Zn239 1.962 . S
O240 C245 1.254 . S
O241 Zn238 2.031 . S
O241 C245 1.269 . S
O242 Zn239 1.986 . S
O242 C249 1.262 . S
O243 Zn238 2.049 . S
O243 C251 1.260 . S
O244 Zn239 1.996 . S
O244 C251 1.257 . S
C245 O240 1.254 . S
C245 O241 1.269 . S
C246 O247 1.249 . S
C246 O248 1.270 . S
O247 Zn239 1.943 . S
O247 C246 1.249 . S
O248 Zn238 2.067 . S
O248 C246 1.270 . S
C249 O242 1.262 . S
C249 O250 1.232 . S
O250 C249 1.232 . S
C251 O243 1.260 . S
C251 O244 1.257 . S
Zn252 O255 2.031 . S
Zn252 O257 2.049 . S
Zn252 O262 2.067 . S
Zn253 O254 1.962 . S
Zn253 O256 1.986 . S
Zn253 O258 1.996 . S
Zn253 O261 1.943 . S
O254 Zn253 1.962 . S
O254 C259 1.254 . S
O255 Zn252 2.031 . S
O255 C259 1.269 . S
O256 Zn253 1.986 . S
O256 C263 1.262 . S
O257 Zn252 2.049 . S
O257 C265 1.260 . S
O258 Zn253 1.996 . S
O258 C265 1.257 . S
C259 O254 1.254 . S
C259 O255 1.269 . S
C260 O261 1.249 . S
C260 O262 1.270 . S
O261 Zn253 1.943 . S
O261 C260 1.249 . S
O262 Zn252 2.067 . S
O262 C260 1.270 . S
C263 O256 1.262 . S
C263 O264 1.232 . S
O264 C263 1.232 . S
C265 O257 1.260 . S
C265 O258 1.257 . S
Zn266 O269 2.031 . S
Zn266 O271 2.049 . S
Zn266 O276 2.067 . S
Zn267 O268 1.962 . S
Zn267 O270 1.986 . S
Zn267 O272 1.996 . S
Zn267 O275 1.943 . S
O268 Zn267 1.962 . S
O268 C273 1.254 . S
O269 Zn266 2.031 . S
O269 C273 1.269 . S
O270 Zn267 1.986 . S
O270 C277 1.262 . S
O271 Zn266 2.049 . S
O271 C279 1.260 . S
O272 Zn267 1.996 . S
O272 C279 1.257 . S
C273 O268 1.254 . S
C273 O269 1.269 . S
C274 O275 1.249 . S
C274 O276 1.270 . S
O275 Zn267 1.943 . S
O275 C274 1.249 . S
O276 Zn266 2.067 . S
O276 C274 1.270 . S
C277 O270 1.262 . S
C277 O278 1.232 . S
O278 C277 1.232 . S
C279 O271 1.260 . S
C279 O272 1.257 . S
Zn280 O283 2.031 . S
Zn280 O285 2.049 . S
Zn280 O290 2.067 . S
Zn281 O282 1.962 . S
Zn281 O284 1.986 . S
Zn281 O286 1.996 . S
Zn281 O289 1.943 . S
O282 Zn281 1.962 . S
O282 C287 1.254 . S
O283 Zn280 2.031 . S
O283 C287 1.269 . S
O284 Zn281 1.986 . S
O284 C291 1.262 . S
O285 Zn280 2.049 . S
O285 C293 1.260 . S
O286 Zn281 1.996 . S
O286 C293 1.257 . S
C287 O282 1.254 . S
C287 O283 1.269 . S
C288 O289 1.249 . S
C288 O290 1.270 . S
O289 Zn281 1.943 . S
O289 C288 1.249 . S
O290 Zn280 2.067 . S
O290 C288 1.270 . S
C291 O284 1.262 . S
C291 O292 1.232 . S
O292 C291 1.232 . S
C293 O285 1.260 . S
C293 O286 1.257 . S
Zn294 O297 2.031 . S
Zn294 O299 2.049 . S
Zn294 O304 2.067 . S
Zn295 O296 1.962 . S
Zn295 O298 1.986 . S
Zn295 O300 1.996 . S
Zn295 O303 1.943 . S
O296 Zn295 1.962 . S
O296 C301 1.254 . S
O297 Zn294 2.031 . S
O297 C301 1.269 . S
O298 Zn295 1.986 . S
O298 C305 1.262 . S
O299 Zn294 2.049 . S
O299 C307 1.260 . S
O300 Zn295 1.996 . S
O300 C307 1.257 . S
C301 O296 1.254 . S
C301 O297 1.269 . S
C302 O303 1.249 . S
C302 O304 1.270 . S
O303 Zn295 1.943 . S
O303 C302 1.249 . S
O304 Zn294 2.067 . S
O304 C302 1.270 . S
C305 O298 1.262 . S
C305 O306 1.232 . S
O306 C305 1.232 . S
C307 O299 1.260 . S
C307 O300 1.257 . S
Zn308 O311 2.031 . S
Zn308 O313 2.049 . S
Zn308 O318 2.067 . S
Zn309 O310 1.962 . S
Zn309 O312 1.986 . S
Zn309 O314 1.996 . S
Zn309 O317 1.943 . S
O310 Zn309 1.962 . S
O310 C315 1.254 . S
O311 Zn308 2.031 . S
O311 C315 1.269 . S
O312 Zn309 1.986 . S
O312 C319 1.262 . S
O313 Zn308 2.049 . S
O313 C321 1.260 . S
O314 Zn309 1.996 . S
O314 C321 1.257 . S
C315 O310 1.254 . S
C315 O311 1.269 . S
C316 O317 1.249 . S
C316 O318 1.270 . S
O317 Zn309 1.943 . S
O317 C316 1.249 . S
O318 Zn308 2.067 . S
O318 C316 1.270 . S
C319 O312 1.262 . S
C319 O320 1.232 . S
O320 C319 1.232 . S
C321 O313 1.260 . S
C321 O314 1.257 . S
Zn322 O325 2.031 . S
Zn322 O327 2.049 . S
Zn322 O332 2.067 . S
Zn323 O324 1.962 . S
Zn323 O326 1.986 . S
Zn323 O328 1.996 . S
Zn323 O331 1.943 . S
O324 Zn323 1.962 . S
O324 C329 1.254 . S
O325 Zn322 2.031 . S
O325 C329 1.269 . S
O326 Zn323 1.986 . S
O326 C333 1.262 . S
O327 Zn322 2.049 . S
O327 C335 1.260 . S
O328 Zn323 1.996 . S
O328 C335 1.257 . S
C329 O324 1.254 . S
C329 O325 1.269 . S
C330 O331 1.249 . S
C330 O332 1.270 . S
O331 Zn323 1.943 . S
O331 C330 1.249 . S
O332 Zn322 2.067 . S
O332 C330 1.270 . S
C333 O326 1.262 . S
C333 O334 1.232 . S
O334 C333 1.232 . S
C335 O327 1.260 . S
C335 O328 1.257 . S
C336 C337 1.349 . S
C336 C338 1.327 . S
C336 H361 0.950 . S
C337 C336 1.349 . S
C337 C353 1.349 . S
C338 C336 1.327 . S
C338 C357 1.429 . S
C338 H362 0.950 . S
C339 C356 1.574 . S
C339 C358 1.368 . S
C339 H363 0.949 . S
H340 C344 0.949 . S
C341 C342 1.349 . S
C341 C343 1.327 . S
C341 H364 0.950 . S
C342 C341 1.349 . S
C342 C354 1.349 . S
C343 C341 1.327 . S
C343 C359 1.429 . S
C343 H365 0.950 . S
C344 H340 0.949 . S
C344 C352 1.574 . S
C344 C360 1.368 . S
H345 C353 0.950 . S
H346 C351 0.950 . S
H347 C352 0.949 . S
H348 C354 0.950 . S
H349 C355 0.950 . S
H350 C356 0.949 . S
C351 H346 0.950 . S
C351 C353 1.327 . S
C351 C357 1.429 . S
C352 C344 1.574 . S
C352 H347 0.949 . S
C352 C358 1.368 . S
C353 C337 1.349 . S
C353 H345 0.950 . S
C353 C351 1.327 . S
C354 C342 1.349 . S
C354 H348 0.950 . S
C354 C355 1.327 . S
C355 H349 0.950 . S
C355 C354 1.327 . S
C355 C359 1.429 . S
C356 C339 1.574 . S
C356 H350 0.949 . S
C356 C360 1.368 . S
C357 C338 1.429 . S
C357 C351 1.429 . S
C357 C358 1.523 . S
C358 C339 1.368 . S
C358 C352 1.368 . S
C358 C357 1.523 . S
C359 C343 1.429 . S
C359 C355 1.429 . S
C359 C360 1.523 . S
C360 C344 1.368 . S
C360 C356 1.368 . S
C360 C359 1.523 . S
H361 C336 0.950 . S
H362 C338 0.950 . S
H363 C339 0.949 . S
H364 C341 0.950 . S
H365 C343 0.950 . S
C366 C367 1.349 . S
C366 C368 1.327 . S
C366 H391 0.950 . S
C367 C366 1.349 . S
C367 C383 1.349 . S
C368 C366 1.327 . S
C368 C387 1.429 . S
C368 H392 0.950 . S
C369 C386 1.574 . S
C369 C388 1.368 . S
C369 H393 0.949 . S
H370 C374 0.949 . S
C371 C372 1.349 . S
C371 C373 1.327 . S
C371 H394 0.950 . S
C372 C371 1.349 . S
C372 C384 1.349 . S
C373 C371 1.327 . S
C373 C389 1.429 . S
C373 H395 0.950 . S
C374 H370 0.949 . S
C374 C382 1.574 . S
C374 C390 1.368 . S
H375 C383 0.950 . S
H376 C381 0.950 . S
H377 C382 0.949 . S
H378 C384 0.950 . S
H379 C385 0.950 . S
H380 C386 0.949 . S
C381 H376 0.950 . S
C381 C383 1.327 . S
C381 C387 1.429 . S
C382 C374 1.574 . S
C382 H377 0.949 . S
C382 C388 1.368 . S
C383 C367 1.349 . S
C383 H375 0.950 . S
C383 C381 1.327 . S
C384 C372 1.349 . S
C384 H378 0.950 . S
C384 C385 1.327 . S
C385 H379 0.950 . S
C385 C384 1.327 . S
C385 C389 1.429 . S
C386 C369 1.574 . S
C386 H380 0.949 . S
C386 C390 1.368 . S
C387 C368 1.429 . S
C387 C381 1.429 . S
C387 C388 1.523 . S
C388 C369 1.368 . S
C388 C382 1.368 . S
C388 C387 1.523 . S
C389 C373 1.429 . S
C389 C385 1.429 . S
C389 C390 1.523 . S
C390 C374 1.368 . S
C390 C386 1.368 . S
C390 C389 1.523 . S
H391 C366 0.950 . S
H392 C368 0.950 . S
H393 C369 0.949 . S
H394 C371 0.950 . S
H395 C373 0.950 . S
C396 C397 1.349 . S
C396 C398 1.327 . S
C396 H421 0.950 . S
C397 C396 1.349 . S
C397 C413 1.349 . S
C398 C396 1.327 . S
C398 C417 1.429 . S
C398 H422 0.950 . S
C399 C416 1.574 . S
C399 C418 1.368 . S
C399 H423 0.949 . S
H400 C404 0.949 . S
C401 C402 1.349 . S
C401 C403 1.327 . S
C401 H424 0.950 . S
C402 C401 1.349 . S
C402 C414 1.349 . S
C403 C401 1.327 . S
C403 C419 1.429 . S
C403 H425 0.950 . S
C404 H400 0.949 . S
C404 C412 1.574 . S
C404 C420 1.368 . S
H405 C413 0.950 . S
H406 C411 0.950 . S
H407 C412 0.949 . S
H408 C414 0.950 . S
H409 C415 0.950 . S
H410 C416 0.949 . S
C411 H406 0.950 . S
C411 C413 1.327 . S
C411 C417 1.429 . S
C412 C404 1.574 . S
C412 H407 0.949 . S
C412 C418 1.368 . S
C413 C397 1.349 . S
C413 H405 0.950 . S
C413 C411 1.327 . S
C414 C402 1.349 . S
C414 H408 0.950 . S
C414 C415 1.327 . S
C415 H409 0.950 . S
C415 C414 1.327 . S
C415 C419 1.429 . S
C416 C399 1.574 . S
C416 H410 0.949 . S
C416 C420 1.368 . S
C417 C398 1.429 . S
C417 C411 1.429 . S
C417 C418 1.523 . S
C418 C399 1.368 . S
C418 C412 1.368 . S
C418 C417 1.523 . S
C419 C403 1.429 . S
C419 C415 1.429 . S
C419 C420 1.523 . S
C420 C404 1.368 . S
C420 C416 1.368 . S
C420 C419 1.523 . S
H421 C396 0.950 . S
H422 C398 0.950 . S
H423 C399 0.949 . S
H424 C401 0.950 . S
H425 C403 0.950 . S
C426 C427 1.349 . S
C426 C428 1.327 . S
C426 H451 0.950 . S
C427 C426 1.349 . S
C427 C443 1.349 . S
C428 C426 1.327 . S
C428 C447 1.429 . S
C428 H452 0.950 . S
C429 C446 1.574 . S
C429 C448 1.368 . S
C429 H453 0.949 . S
H430 C434 0.949 . S
C431 C432 1.349 . S
C431 C433 1.327 . S
C431 H454 0.950 . S
C432 C431 1.349 . S
C432 C444 1.349 . S
C433 C431 1.327 . S
C433 C449 1.429 . S
C433 H455 0.950 . S
C434 H430 0.949 . S
C434 C442 1.574 . S
C434 C450 1.368 . S
H435 C443 0.950 . S
H436 C441 0.950 . S
H437 C442 0.949 . S
H438 C444 0.950 . S
H439 C445 0.950 . S
H440 C446 0.949 . S
C441 H436 0.950 . S
C441 C443 1.327 . S
C441 C447 1.429 . S
C442 C434 1.574 . S
C442 H437 0.949 . S
C442 C448 1.368 . S
C443 C427 1.349 . S
C443 H435 0.950 . S
C443 C441 1.327 . S
C444 C432 1.349 . S
C444 H438 0.950 . S
C444 C445 1.327 . S
C445 H439 0.950 . S
C445 C444 1.327 . S
C445 C449 1.429 . S
C446 C429 1.574 . S
C446 H440 0.949 . S
C446 C450 1.368 . S
C447 C428 1.429 . S
C447 C441 1.429 . S
C447 C448 1.523 . S
C448 C429 1.368 . S
C448 C442 1.368 . S
C448 C447 1.523 . S
C449 C433 1.429 . S
C449 C445 1.429 . S
C449 C450 1.523 . S
C450 C434 1.368 . S
C450 C446 1.368 . S
C450 C449 1.523 . S
H451 C426 0.950 . S
H452 C428 0.950 . S
H453 C429 0.949 . S
H454 C431 0.950 . S
H455 C433 0.950 . S
C456 C457 1.349 . S
C456 C458 1.327 . S
C456 H481 0.950 . S
C457 C456 1.349 . S
C457 C473 1.349 . S
C458 C456 1.327 . S
C458 C477 1.429 . S
C458 H482 0.950 . S
C459 C476 1.574 . S
C459 C478 1.368 . S
C459 H483 0.949 . S
H460 C464 0.949 . S
C461 C462 1.349 . S
C461 C463 1.327 . S
C461 H484 0.950 . S
C462 C461 1.349 . S
C462 C474 1.349 . S
C463 C461 1.327 . S
C463 C479 1.429 . S
C463 H485 0.950 . S
C464 H460 0.949 . S
C464 C472 1.574 . S
C464 C480 1.368 . S
H465 C473 0.950 . S
H466 C471 0.950 . S
H467 C472 0.949 . S
H468 C474 0.950 . S
H469 C475 0.950 . S
H470 C476 0.949 . S
C471 H466 0.950 . S
C471 C473 1.327 . S
C471 C477 1.429 . S
C472 C464 1.574 . S
C472 H467 0.949 . S
C472 C478 1.368 . S
C473 C457 1.349 . S
C473 H465 0.950 . S
C473 C471 1.327 . S
C474 C462 1.349 . S
C474 H468 0.950 . S
C474 C475 1.327 . S
C475 H469 0.950 . S
C475 C474 1.327 . S
C475 C479 1.429 . S
C476 C459 1.574 . S
C476 H470 0.949 . S
C476 C480 1.368 . S
C477 C458 1.429 . S
C477 C471 1.429 . S
C477 C478 1.523 . S
C478 C459 1.368 . S
C478 C472 1.368 . S
C478 C477 1.523 . S
C479 C463 1.429 . S
C479 C475 1.429 . S
C479 C480 1.523 . S
C480 C464 1.368 . S
C480 C476 1.368 . S
C480 C479 1.523 . S
H481 C456 0.950 . S
H482 C458 0.950 . S
H483 C459 0.949 . S
H484 C461 0.950 . S
H485 C463 0.950 . S
C486 C487 1.349 . S
C486 C488 1.327 . S
C486 H511 0.950 . S
C487 C486 1.349 . S
C487 C503 1.349 . S
C488 C486 1.327 . S
C488 C507 1.429 . S
C488 H512 0.950 . S
C489 C506 1.574 . S
C489 C508 1.368 . S
C489 H513 0.949 . S
H490 C494 0.949 . S
C491 C492 1.349 . S
C491 C493 1.327 . S
C491 H514 0.950 . S
C492 C491 1.349 . S
C492 C504 1.349 . S
C493 C491 1.327 . S
C493 C509 1.429 . S
C493 H515 0.950 . S
C494 H490 0.949 . S
C494 C502 1.574 . S
C494 C510 1.368 . S
H495 C503 0.950 . S
H496 C501 0.950 . S
H497 C502 0.949 . S
H498 C504 0.950 . S
H499 C505 0.950 . S
H500 C506 0.949 . S
C501 H496 0.950 . S
C501 C503 1.327 . S
C501 C507 1.429 . S
C502 C494 1.574 . S
C502 H497 0.949 . S
C502 C508 1.368 . S
C503 C487 1.349 . S
C503 H495 0.950 . S
C503 C501 1.327 . S
C504 C492 1.349 . S
C504 H498 0.950 . S
C504 C505 1.327 . S
C505 H499 0.950 . S
C505 C504 1.327 . S
C505 C509 1.429 . S
C506 C489 1.574 . S
C506 H500 0.949 . S
C506 C510 1.368 . S
C507 C488 1.429 . S
C507 C501 1.429 . S
C507 C508 1.523 . S
C508 C489 1.368 . S
C508 C502 1.368 . S
C508 C507 1.523 . S
C509 C493 1.429 . S
C509 C505 1.429 . S
C509 C510 1.523 . S
C510 C494 1.368 . S
C510 C506 1.368 . S
C510 C509 1.523 . S
H511 C486 0.950 . S
H512 C488 0.950 . S
H513 C489 0.949 . S
H514 C491 0.950 . S
H515 C493 0.950 . S
C516 C517 1.349 . S
C516 C518 1.327 . S
C516 H541 0.950 . S
C517 C516 1.349 . S
C517 C533 1.349 . S
C518 C516 1.327 . S
C518 C537 1.429 . S
C518 H542 0.950 . S
C519 C536 1.574 . S
C519 C538 1.368 . S
C519 H543 0.949 . S
H520 C524 0.949 . S
C521 C522 1.349 . S
C521 C523 1.327 . S
C521 H544 0.950 . S
C522 C521 1.349 . S
C522 C534 1.349 . S
C523 C521 1.327 . S
C523 C539 1.429 . S
C523 H545 0.950 . S
C524 H520 0.949 . S
C524 C532 1.574 . S
C524 C540 1.368 . S
H525 C533 0.950 . S
H526 C531 0.950 . S
H527 C532 0.949 . S
H528 C534 0.950 . S
H529 C535 0.950 . S
H530 C536 0.949 . S
C531 H526 0.950 . S
C531 C533 1.327 . S
C531 C537 1.429 . S
C532 C524 1.574 . S
C532 H527 0.949 . S
C532 C538 1.368 . S
C533 C517 1.349 . S
C533 H525 0.950 . S
C533 C531 1.327 . S
C534 C522 1.349 . S
C534 H528 0.950 . S
C534 C535 1.327 . S
C535 H529 0.950 . S
C535 C534 1.327 . S
C535 C539 1.429 . S
C536 C519 1.574 . S
C536 H530 0.949 . S
C536 C540 1.368 . S
C537 C518 1.429 . S
C537 C531 1.429 . S
C537 C538 1.523 . S
C538 C519 1.368 . S
C538 C532 1.368 . S
C538 C537 1.523 . S
C539 C523 1.429 . S
C539 C535 1.429 . S
C539 C540 1.523 . S
C540 C524 1.368 . S
C540 C536 1.368 . S
C540 C539 1.523 . S
H541 C516 0.950 . S
H542 C518 0.950 . S
H543 C519 0.949 . S
H544 C521 0.950 . S
H545 C523 0.950 . S
C546 C547 1.349 . S
C546 C548 1.327 . S
C546 H571 0.950 . S
C547 C546 1.349 . S
C547 C563 1.349 . S
C548 C546 1.327 . S
C548 C567 1.429 . S
C548 H572 0.950 . S
C549 C566 1.574 . S
C549 C568 1.368 . S
C549 H573 0.949 . S
H550 C554 0.949 . S
C551 C552 1.349 . S
C551 C553 1.327 . S
C551 H574 0.950 . S
C552 C551 1.349 . S
C552 C564 1.349 . S
C553 C551 1.327 . S
C553 C569 1.429 . S
C553 H575 0.950 . S
C554 H550 0.949 . S
C554 C562 1.574 . S
C554 C570 1.368 . S
H555 C563 0.950 . S
H556 C561 0.950 . S
H557 C562 0.949 . S
H558 C564 0.950 . S
H559 C565 0.950 . S
H560 C566 0.949 . S
C561 H556 0.950 . S
C561 C563 1.327 . S
C561 C567 1.429 . S
C562 C554 1.574 . S
C562 H557 0.949 . S
C562 C568 1.368 . S
C563 C547 1.349 . S
C563 H555 0.950 . S
C563 C561 1.327 . S
C564 C552 1.349 . S
C564 H558 0.950 . S
C564 C565 1.327 . S
C565 H559 0.950 . S
C565 C564 1.327 . S
C565 C569 1.429 . S
C566 C549 1.574 . S
C566 H560 0.949 . S
C566 C570 1.368 . S
C567 C548 1.429 . S
C567 C561 1.429 . S
C567 C568 1.523 . S
C568 C549 1.368 . S
C568 C562 1.368 . S
C568 C567 1.523 . S
C569 C553 1.429 . S
C569 C565 1.429 . S
C569 C570 1.523 . S
C570 C554 1.368 . S
C570 C566 1.368 . S
C570 C569 1.523 . S
H571 C546 0.950 . S
H572 C548 0.950 . S
H573 C549 0.949 . S
H574 C551 0.950 . S
H575 C553 0.950 . S
C576 C577 1.349 . S
C576 C578 1.327 . S
C576 H601 0.950 . S
C577 C576 1.349 . S
C577 C593 1.349 . S
C578 C576 1.327 . S
C578 C597 1.429 . S
C578 H602 0.950 . S
C579 C596 1.574 . S
C579 C598 1.368 . S
C579 H603 0.949 . S
H580 C584 0.949 . S
C581 C582 1.349 . S
C581 C583 1.327 . S
C581 H604 0.950 . S
C582 C581 1.349 . S
C582 C594 1.349 . S
C583 C581 1.327 . S
C583 C599 1.429 . S
C583 H605 0.950 . S
C584 H580 0.949 . S
C584 C592 1.574 . S
C584 C600 1.368 . S
H585 C593 0.950 . S
H586 C591 0.950 . S
H587 C592 0.949 . S
H588 C594 0.950 . S
H589 C595 0.950 . S
H590 C596 0.949 . S
C591 H586 0.950 . S
C591 C593 1.327 . S
C591 C597 1.429 . S
C592 C584 1.574 . S
C592 H587 0.949 . S
C592 C598 1.368 . S
C593 C577 1.349 . S
C593 H585 0.950 . S
C593 C591 1.327 . S
C594 C582 1.349 . S
C594 H588 0.950 . S
C594 C595 1.327 . S
C595 H589 0.950 . S
C595 C594 1.327 . S
C595 C599 1.429 . S
C596 C579 1.574 . S
C596 H590 0.949 . S
C596 C600 1.368 . S
C597 C578 1.429 . S
C597 C591 1.429 . S
C597 C598 1.523 . S
C598 C579 1.368 . S
C598 C592 1.368 . S
C598 C597 1.523 . S
C599 C583 1.429 . S
C599 C595 1.429 . S
C599 C600 1.523 . S
C600 C584 1.368 . S
C600 C596 1.368 . S
C600 C599 1.523 . S
H601 C576 0.950 . S
H602 C578 0.950 . S
H603 C579 0.949 . S
H604 C581 0.950 . S
H605 C583 0.950 . S
C606 C607 1.349 . S
C606 C608 1.327 . S
C606 H631 0.950 . S
C607 C606 1.349 . S
C607 C623 1.349 . S
C608 C606 1.327 . S
C608 C627 1.429 . S
C608 H632 0.950 . S
C609 C626 1.574 . S
C609 C628 1.368 . S
C609 H633 0.949 . S
H610 C614 0.949 . S
C611 C612 1.349 . S
C611 C613 1.327 . S
C611 H634 0.950 . S
C612 C611 1.349 . S
C612 C624 1.349 . S
C613 C611 1.327 . S
C613 C629 1.429 . S
C613 H635 0.950 . S
C614 H610 0.949 . S
C614 C622 1.574 . S
C614 C630 1.368 . S
H615 C623 0.950 . S
H616 C621 0.950 . S
H617 C622 0.949 . S
H618 C624 0.950 . S
H619 C625 0.950 . S
H620 C626 0.949 . S
C621 H616 0.950 . S
C621 C623 1.327 . S
C621 C627 1.429 . S
C622 C614 1.574 . S
C622 H617 0.949 . S
C622 C628 1.368 . S
C623 C607 1.349 . S
C623 H615 0.950 . S
C623 C621 1.327 . S
C624 C612 1.349 . S
C624 H618 0.950 . S
C624 C625 1.327 . S
C625 H619 0.950 . S
C625 C624 1.327 . S
C625 C629 1.429 . S
C626 C609 1.574 . S
C626 H620 0.949 . S
C626 C630 1.368 . S
C627 C608 1.429 . S
C627 C621 1.429 . S
C627 C628 1.523 . S
C628 C609 1.368 . S
C628 C622 1.368 . S
C628 C627 1.523 . S
C629 C613 1.429 . S
C629 C625 1.429 . S
C629 C630 1.523 . S
C630 C614 1.368 . S
C630 C626 1.368 . S
C630 C629 1.523 . S
H631 C606 0.950 . S
H632 C608 0.950 . S
H633 C609 0.949 . S
H634 C611 0.950 . S
H635 C613 0.950 . S
C636 C637 1.349 . S
C636 C638 1.327 . S
C636 H661 0.950 . S
C637 C636 1.349 . S
C637 C653 1.349 . S
C638 C636 1.327 . S
C638 C657 1.429 . S
C638 H662 0.950 . S
C639 C656 1.574 . S
C639 C658 1.368 . S
C639 H663 0.949 . S
H640 C644 0.949 . S
C641 C642 1.349 . S
C641 C643 1.327 . S
C641 H664 0.950 . S
C642 C641 1.349 . S
C642 C654 1.349 . S
C643 C641 1.327 . S
C643 C659 1.429 . S
C643 H665 0.950 . S
C644 H640 0.949 . S
C644 C652 1.574 . S
C644 C660 1.368 . S
H645 C653 0.950 . S
H646 C651 0.950 . S
H647 C652 0.949 . S
H648 C654 0.950 . S
H649 C655 0.950 . S
H650 C656 0.949 . S
C651 H646 0.950 . S
C651 C653 1.327 . S
C651 C657 1.429 . S
C652 C644 1.574 . S
C652 H647 0.949 . S
C652 C658 1.368 . S
C653 C637 1.349 . S
C653 H645 0.950 . S
C653 C651 1.327 . S
C654 C642 1.349 . S
C654 H648 0.950 . S
C654 C655 1.327 . S
C655 H649 0.950 . S
C655 C654 1.327 . S
C655 C659 1.429 . S
C656 C639 1.574 . S
C656 H650 0.949 . S
C656 C660 1.368 . S
C657 C638 1.429 . S
C657 C651 1.429 . S
C657 C658 1.523 . S
C658 C639 1.368 . S
C658 C652 1.368 . S
C658 C657 1.523 . S
C659 C643 1.429 . S
C659 C655 1.429 . S
C659 C660 1.523 . S
C660 C644 1.368 . S
C660 C656 1.368 . S
C660 C659 1.523 . S
H661 C636 0.950 . S
H662 C638 0.950 . S
H663 C639 0.949 . S
H664 C641 0.950 . S
H665 C643 0.950 . S
C666 C667 1.349 . S
C666 C668 1.327 . S
C666 H691 0.950 . S
C667 C666 1.349 . S
C667 C683 1.349 . S
C668 C666 1.327 . S
C668 C687 1.429 . S
C668 H692 0.950 . S
C669 C686 1.574 . S
C669 C688 1.368 . S
C669 H693 0.949 . S
H670 C674 0.949 . S
C671 C672 1.349 . S
C671 C673 1.327 . S
C671 H694 0.950 . S
C672 C671 1.349 . S
C672 C684 1.349 . S
C673 C671 1.327 . S
C673 C689 1.429 . S
C673 H695 0.950 . S
C674 H670 0.949 . S
C674 C682 1.574 . S
C674 C690 1.368 . S
H675 C683 0.950 . S
H676 C681 0.950 . S
H677 C682 0.949 . S
H678 C684 0.950 . S
H679 C685 0.950 . S
H680 C686 0.949 . S
C681 H676 0.950 . S
C681 C683 1.327 . S
C681 C687 1.429 . S
C682 C674 1.574 . S
C682 H677 0.949 . S
C682 C688 1.368 . S
C683 C667 1.349 . S
C683 H675 0.950 . S
C683 C681 1.327 . S
C684 C672 1.349 . S
C684 H678 0.950 . S
C684 C685 1.327 . S
C685 H679 0.950 . S
C685 C684 1.327 . S
C685 C689 1.429 . S
C686 C669 1.574 . S
C686 H680 0.949 . S
C686 C690 1.368 . S
C687 C668 1.429 . S
C687 C681 1.429 . S
C687 C688 1.523 . S
C688 C669 1.368 . S
C688 C682 1.368 . S
C688 C687 1.523 . S
C689 C673 1.429 . S
C689 C685 1.429 . S
C689 C690 1.523 . S
C690 C674 1.368 . S
C690 C686 1.368 . S
C690 C689 1.523 . S
H691 C666 0.950 . S
H692 C668 0.950 . S
H693 C669 0.949 . S
H694 C671 0.950 . S
H695 C673 0.950 . S
C696 C697 1.349 . S
C696 C698 1.327 . S
C696 H721 0.950 . S
C697 C696 1.349 . S
C697 C713 1.349 . S
C698 C696 1.327 . S
C698 C717 1.429 . S
C698 H722 0.950 . S
C699 C716 1.574 . S
C699 C718 1.368 . S
C699 H723 0.949 . S
H700 C704 0.949 . S
C701 C702 1.349 . S
C701 C703 1.327 . S
C701 H724 0.950 . S
C702 C701 1.349 . S
C702 C714 1.349 . S
C703 C701 1.327 . S
C703 C719 1.429 . S
C703 H725 0.950 . S
C704 H700 0.949 . S
C704 C712 1.574 . S
C704 C720 1.368 . S
H705 C713 0.950 . S
H706 C711 0.950 . S
H707 C712 0.949 . S
H708 C714 0.950 . S
H709 C715 0.950 . S
H710 C716 0.949 . S
C711 H706 0.950 . S
C711 C713 1.327 . S
C711 C717 1.429 . S
C712 C704 1.574 . S
C712 H707 0.949 . S
C712 C718 1.368 1_554 S
C713 C697 1.349 . S
C713 H705 0.950 . S
C713 C711 1.327 . S
C714 C702 1.349 . S
C714 H708 0.950 . S
C714 C715 1.327 . S
C715 H709 0.950 . S
C715 C714 1.327 . S
C715 C719 1.429 . S
C716 C699 1.574 . S
C716 H710 0.949 . S
C716 C720 1.368 1_556 S
C717 C698 1.429 . S
C717 C711 1.429 . S
C717 C718 1.523 . S
C718 C699 1.368 . S
C718 C712 1.368 1_556 S
C718 C717 1.523 . S
C719 C703 1.429 . S
C719 C715 1.429 . S
C719 C720 1.523 . S
C720 C704 1.368 . S
C720 C716 1.368 1_554 S
C720 C719 1.523 . S
H721 C696 0.950 . S
H722 C698 0.950 . S
H723 C699 0.949 . S
H724 C701 0.950 . S
H725 C703 0.950 . S
C726 C727 1.349 . S
C726 C728 1.327 . S
C726 H751 0.950 . S
C727 C726 1.349 . S
C727 C743 1.349 . S
C728 C726 1.327 . S
C728 C747 1.429 . S
C728 H752 0.950 . S
C729 C746 1.574 . S
C729 C748 1.368 . S
C729 H753 0.949 . S
H730 C734 0.949 . S
C731 C732 1.349 . S
C731 C733 1.327 . S
C731 H754 0.950 . S
C732 C731 1.349 . S
C732 C744 1.349 . S
C733 C731 1.327 . S
C733 C749 1.429 . S
C733 H755 0.950 . S
C734 H730 0.949 . S
C734 C742 1.574 . S
C734 C750 1.368 . S
H735 C743 0.950 . S
H736 C741 0.950 . S
H737 C742 0.949 . S
H738 C744 0.950 . S
H739 C745 0.950 . S
H740 C746 0.949 . S
C741 H736 0.950 . S
C741 C743 1.327 . S
C741 C747 1.429 . S
C742 C734 1.574 . S
C742 H737 0.949 . S
C742 C748 1.368 . S
C743 C727 1.349 . S
C743 H735 0.950 . S
C743 C741 1.327 . S
C744 C732 1.349 . S
C744 H738 0.950 . S
C744 C745 1.327 . S
C745 H739 0.950 . S
C745 C744 1.327 . S
C745 C749 1.429 . S
C746 C729 1.574 . S
C746 H740 0.949 . S
C746 C750 1.368 . S
C747 C728 1.429 . S
C747 C741 1.429 . S
C747 C748 1.523 . S
C748 C729 1.368 . S
C748 C742 1.368 . S
C748 C747 1.523 . S
C749 C733 1.429 . S
C749 C745 1.429 . S
C749 C750 1.523 . S
C750 C734 1.368 . S
C750 C746 1.368 . S
C750 C749 1.523 . S
H751 C726 0.950 . S
H752 C728 0.950 . S
H753 C729 0.949 . S
H754 C731 0.950 . S
H755 C733 0.950 . S
C756 C757 1.349 . S
C756 C758 1.327 . S
C756 H781 0.950 . S
C757 C756 1.349 . S
C757 C773 1.349 . S
C758 C756 1.327 . S
C758 C777 1.429 . S
C758 H782 0.950 . S
C759 C776 1.574 . S
C759 C778 1.368 1_556 S
C759 H783 0.949 . S
H760 C764 0.949 . S
C761 C762 1.349 . S
C761 C763 1.327 . S
C761 H784 0.950 . S
C762 C761 1.349 . S
C762 C774 1.349 . S
C763 C761 1.327 . S
C763 C779 1.429 . S
C763 H785 0.950 . S
C764 H760 0.949 . S
C764 C772 1.574 . S
C764 C780 1.368 1_554 S
H765 C773 0.950 . S
H766 C771 0.950 . S
H767 C772 0.949 . S
H768 C774 0.950 . S
H769 C775 0.950 . S
H770 C776 0.949 . S
C771 H766 0.950 . S
C771 C773 1.327 . S
C771 C777 1.429 . S
C772 C764 1.574 . S
C772 H767 0.949 . S
C772 C778 1.368 . S
C773 C757 1.349 . S
C773 H765 0.950 . S
C773 C771 1.327 . S
C774 C762 1.349 . S
C774 H768 0.950 . S
C774 C775 1.327 . S
C775 H769 0.950 . S
C775 C774 1.327 . S
C775 C779 1.429 . S
C776 C759 1.574 . S
C776 H770 0.949 . S
C776 C780 1.368 . S
C777 C758 1.429 . S
C777 C771 1.429 . S
C777 C778 1.523 . S
C778 C759 1.368 1_554 S
C778 C772 1.368 . S
C778 C777 1.523 . S
C779 C763 1.429 . S
C779 C775 1.429 . S
C779 C780 1.523 . S
C780 C764 1.368 1_556 S
C780 C776 1.368 . S
C780 C779 1.523 . S
H781 C756 0.950 . S
H782 C758 0.950 . S
H783 C759 0.949 . S
H784 C761 0.950 . S
H785 C763 0.950 . S
C786 C787 1.349 . S
C786 C788 1.327 . S
C786 H811 0.950 . S
C787 C786 1.349 . S
C787 C803 1.349 . S
C788 C786 1.327 . S
C788 C807 1.429 . S
C788 H812 0.950 . S
C789 C806 1.574 . S
C789 C808 1.368 . S
C789 H813 0.949 . S
H790 C794 0.949 . S
C791 C792 1.349 . S
C791 C793 1.327 . S
C791 H814 0.950 . S
C792 C791 1.349 . S
C792 C804 1.349 . S
C793 C791 1.327 . S
C793 C809 1.429 . S
C793 H815 0.950 . S
C794 H790 0.949 . S
C794 C802 1.574 . S
C794 C810 1.368 . S
H795 C803 0.950 . S
H796 C801 0.950 . S
H797 C802 0.949 . S
H798 C804 0.950 . S
H799 C805 0.950 . S
H800 C806 0.949 . S
C801 H796 0.950 . S
C801 C803 1.327 . S
C801 C807 1.429 . S
C802 C794 1.574 . S
C802 H797 0.949 . S
C802 C808 1.368 . S
C803 C787 1.349 . S
C803 H795 0.950 . S
C803 C801 1.327 . S
C804 C792 1.349 . S
C804 H798 0.950 . S
C804 C805 1.327 . S
C805 H799 0.950 . S
C805 C804 1.327 . S
C805 C809 1.429 . S
C806 C789 1.574 . S
C806 H800 0.949 . S
C806 C810 1.368 . S
C807 C788 1.429 . S
C807 C801 1.429 . S
C807 C808 1.523 . S
C808 C789 1.368 . S
C808 C802 1.368 . S
C808 C807 1.523 . S
C809 C793 1.429 . S
C809 C805 1.429 . S
C809 C810 1.523 . S
C810 C794 1.368 . S
C810 C806 1.368 . S
C810 C809 1.523 . S
H811 C786 0.950 . S
H812 C788 0.950 . S
H813 C789 0.949 . S
H814 C791 0.950 . S
H815 C793 0.950 . S
C816 C817 1.349 . S
C816 C818 1.327 . S
C816 H841 0.950 . S
C817 C816 1.349 . S
C817 C833 1.349 . S
C818 C816 1.327 . S
C818 C837 1.429 . S
C818 H842 0.950 1_556 S
C819 C836 1.574 . S
C819 C838 1.368 . S
C819 H843 0.949 . S
H820 C824 0.949 . S
C821 C822 1.349 . S
C821 C823 1.327 . S
C821 H844 0.950 . S
C822 C821 1.349 . S
C822 C834 1.349 . S
C823 C821 1.327 . S
C823 C839 1.429 . S
C823 H845 0.950 1_554 S
C824 H820 0.949 . S
C824 C832 1.574 . S
C824 C840 1.368 . S
H825 C833 0.950 . S
H826 C831 0.950 . S
H827 C832 0.949 . S
H828 C834 0.950 . S
H829 C835 0.950 . S
H830 C836 0.949 . S
C831 H826 0.950 . S
C831 C833 1.327 . S
C831 C837 1.429 . S
C832 C824 1.574 . S
C832 H827 0.949 . S
C832 C838 1.368 1_554 S
C833 C817 1.349 . S
C833 H825 0.950 . S
C833 C831 1.327 . S
C834 C822 1.349 . S
C834 H828 0.950 . S
C834 C835 1.327 . S
C835 H829 0.950 . S
C835 C834 1.327 . S
C835 C839 1.429 . S
C836 C819 1.574 . S
C836 H830 0.949 . S
C836 C840 1.368 1_556 S
C837 C818 1.429 . S
C837 C831 1.429 . S
C837 C838 1.523 . S
C838 C819 1.368 . S
C838 C832 1.368 1_556 S
C838 C837 1.523 . S
C839 C823 1.429 . S
C839 C835 1.429 . S
C839 C840 1.523 . S
C840 C824 1.368 . S
C840 C836 1.368 1_554 S
C840 C839 1.523 . S
H841 C816 0.950 . S
H842 C818 0.950 1_554 S
H843 C819 0.949 . S
H844 C821 0.950 . S
H845 C823 0.950 1_556 S
C846 C847 1.349 . S
C846 C848 1.327 . S
C846 H871 0.950 . S
C847 C846 1.349 . S
C847 C863 1.349 . S
C848 C846 1.327 . S
C848 C867 1.429 . S
C848 H872 0.950 . S
C849 C866 1.574 . S
C849 C868 1.368 . S
C849 H873 0.949 . S
H850 C854 0.949 . S
C851 C852 1.349 . S
C851 C853 1.327 . S
C851 H874 0.950 . S
C852 C851 1.349 . S
C852 C864 1.349 . S
C853 C851 1.327 . S
C853 C869 1.429 . S
C853 H875 0.950 . S
C854 H850 0.949 . S
C854 C862 1.574 . S
C854 C870 1.368 . S
H855 C863 0.950 . S
H856 C861 0.950 . S
H857 C862 0.949 . S
H858 C864 0.950 . S
H859 C865 0.950 . S
H860 C866 0.949 . S
C861 H856 0.950 . S
C861 C863 1.327 . S
C861 C867 1.429 . S
C862 C854 1.574 . S
C862 H857 0.949 . S
C862 C868 1.368 . S
C863 C847 1.349 . S
C863 H855 0.950 . S
C863 C861 1.327 . S
C864 C852 1.349 . S
C864 H858 0.950 . S
C864 C865 1.327 . S
C865 H859 0.950 . S
C865 C864 1.327 . S
C865 C869 1.429 . S
C866 C849 1.574 . S
C866 H860 0.949 . S
C866 C870 1.368 . S
C867 C848 1.429 . S
C867 C861 1.429 . S
C867 C868 1.523 . S
C868 C849 1.368 . S
C868 C862 1.368 . S
C868 C867 1.523 . S
C869 C853 1.429 . S
C869 C865 1.429 . S
C869 C870 1.523 . S
C870 C854 1.368 . S
C870 C866 1.368 . S
C870 C869 1.523 . S
H871 C846 0.950 . S
H872 C848 0.950 . S
H873 C849 0.949 . S
H874 C851 0.950 . S
H875 C853 0.950 . S
C876 C877 1.349 . S
C876 C878 1.327 . S
C876 H901 0.950 . S
C877 C876 1.349 . S
C877 C893 1.349 . S
C878 C876 1.327 . S
C878 C897 1.429 . S
C878 H902 0.950 . S
C879 C896 1.574 . S
C879 C898 1.368 . S
C879 H903 0.949 . S
H880 C884 0.949 . S
C881 C882 1.349 . S
C881 C883 1.327 . S
C881 H904 0.950 . S
C882 C881 1.349 . S
C882 C894 1.349 . S
C883 C881 1.327 . S
C883 C899 1.429 . S
C883 H905 0.950 . S
C884 H880 0.949 . S
C884 C892 1.574 . S
C884 C900 1.368 . S
H885 C893 0.950 . S
H886 C891 0.950 . S
H887 C892 0.949 . S
H888 C894 0.950 . S
H889 C895 0.950 . S
H890 C896 0.949 . S
C891 H886 0.950 . S
C891 C893 1.327 . S
C891 C897 1.429 . S
C892 C884 1.574 . S
C892 H887 0.949 . S
C892 C898 1.368 1_556 S
C893 C877 1.349 . S
C893 H885 0.950 . S
C893 C891 1.327 . S
C894 C882 1.349 . S
C894 H888 0.950 . S
C894 C895 1.327 . S
C895 H889 0.950 . S
C895 C894 1.327 . S
C895 C899 1.429 . S
C896 C879 1.574 . S
C896 H890 0.949 . S
C896 C900 1.368 1_554 S
C897 C878 1.429 . S
C897 C891 1.429 . S
C897 C898 1.523 . S
C898 C879 1.368 . S
C898 C892 1.368 1_554 S
C898 C897 1.523 . S
C899 C883 1.429 . S
C899 C895 1.429 . S
C899 C900 1.523 . S
C900 C884 1.368 . S
C900 C896 1.368 1_556 S
C900 C899 1.523 . S
H901 C876 0.950 . S
H902 C878 0.950 . S
H903 C879 0.949 . S
H904 C881 0.950 . S
H905 C883 0.950 . S
C906 C907 1.349 . S
C906 C908 1.327 . S
C906 H931 0.950 . S
C907 C906 1.349 . S
C907 C923 1.349 . S
C908 C906 1.327 . S
C908 C927 1.429 . S
C908 H932 0.950 . S
C909 C926 1.574 . S
C909 C928 1.368 . S
C909 H933 0.949 . S
H910 C914 0.949 . S
C911 C912 1.349 . S
C911 C913 1.327 . S
C911 H934 0.950 . S
C912 C911 1.349 . S
C912 C924 1.349 . S
C913 C911 1.327 . S
C913 C929 1.429 . S
C913 H935 0.950 . S
C914 H910 0.949 . S
C914 C922 1.574 . S
C914 C930 1.368 . S
H915 C923 0.950 . S
H916 C921 0.950 . S
H917 C922 0.949 . S
H918 C924 0.950 . S
H919 C925 0.950 . S
H920 C926 0.949 . S
C921 H916 0.950 . S
C921 C923 1.327 . S
C921 C927 1.429 . S
C922 C914 1.574 . S
C922 H917 0.949 . S
C922 C928 1.368 . S
C923 C907 1.349 . S
C923 H915 0.950 . S
C923 C921 1.327 . S
C924 C912 1.349 . S
C924 H918 0.950 . S
C924 C925 1.327 . S
C925 H919 0.950 . S
C925 C924 1.327 . S
C925 C929 1.429 . S
C926 C909 1.574 . S
C926 H920 0.949 . S
C926 C930 1.368 . S
C927 C908 1.429 . S
C927 C921 1.429 . S
C927 C928 1.523 . S
C928 C909 1.368 . S
C928 C922 1.368 . S
C928 C927 1.523 . S
C929 C913 1.429 . S
C929 C925 1.429 . S
C929 C930 1.523 . S
C930 C914 1.368 . S
C930 C926 1.368 . S
C930 C929 1.523 . S
H931 C906 0.950 . S
H932 C908 0.950 . S
H933 C909 0.949 . S
H934 C911 0.950 . S
H935 C913 0.950 . S
C936 C937 1.349 . S
C936 C938 1.327 . S
C936 H961 0.950 . S
C937 C936 1.349 . S
C937 C953 1.349 . S
C938 C936 1.327 . S
C938 C957 1.429 . S
C938 H962 0.950 . S
C939 C956 1.574 . S
C939 C958 1.368 1_554 S
C939 H963 0.949 . S
H940 C944 0.949 . S
C941 C942 1.349 . S
C941 C943 1.327 . S
C941 H964 0.950 . S
C942 C941 1.349 . S
C942 C954 1.349 . S
C943 C941 1.327 . S
C943 C959 1.429 . S
C943 H965 0.950 . S
C944 H940 0.949 . S
C944 C952 1.574 . S
C944 C960 1.368 1_556 S
H945 C953 0.950 . S
H946 C951 0.950 1_554 S
H947 C952 0.949 . S
H948 C954 0.950 . S
H949 C955 0.950 1_556 S
H950 C956 0.949 . S
C951 H946 0.950 1_556 S
C951 C953 1.327 . S
C951 C957 1.429 . S
C952 C944 1.574 . S
C952 H947 0.949 . S
C952 C958 1.368 . S
C953 C937 1.349 . S
C953 H945 0.950 . S
C953 C951 1.327 . S
C954 C942 1.349 . S
C954 H948 0.950 . S
C954 C955 1.327 . S
C955 H949 0.950 1_554 S
C955 C954 1.327 . S
C955 C959 1.429 . S
C956 C939 1.574 . S
C956 H950 0.949 . S
C956 C960 1.368 . S
C957 C938 1.429 . S
C957 C951 1.429 . S
C957 C958 1.523 . S
C958 C939 1.368 1_556 S
C958 C952 1.368 . S
C958 C957 1.523 . S
C959 C943 1.429 . S
C959 C955 1.429 . S
C959 C960 1.523 . S
C960 C944 1.368 1_554 S
C960 C956 1.368 . S
C960 C959 1.523 . S
H961 C936 0.950 . S
H962 C938 0.950 . S
H963 C939 0.949 . S
H964 C941 0.950 . S
H965 C943 0.950 . S
C966 C967 1.349 . S
C966 C968 1.327 . S
C966 H991 0.950 . S
C967 C966 1.349 . S
C967 C983 1.349 . S
C968 C966 1.327 . S
C968 C987 1.429 . S
C968 H992 0.950 . S
C969 C986 1.574 . S
C969 C988 1.368 . S
C969 H993 0.949 . S
H970 C974 0.949 . S
C971 C972 1.349 . S
C971 C973 1.327 . S
C971 H994 0.950 . S
C972 C971 1.349 . S
C972 C984 1.349 . S
C973 C971 1.327 . S
C973 C989 1.429 . S
C973 H995 0.950 . S
C974 H970 0.949 . S
C974 C982 1.574 . S
C974 C990 1.368 . S
H975 C983 0.950 . S
H976 C981 0.950 . S
H977 C982 0.949 . S
H978 C984 0.950 . S
H979 C985 0.950 . S
H980 C986 0.949 . S
C981 H976 0.950 . S
C981 C983 1.327 . S
C981 C987 1.429 . S
C982 C974 1.574 . S
C982 H977 0.949 . S
C982 C988 1.368 . S
C983 C967 1.349 . S
C983 H975 0.950 . S
C983 C981 1.327 . S
C984 C972 1.349 . S
C984 H978 0.950 . S
C984 C985 1.327 . S
C985 H979 0.950 . S
C985 C984 1.327 . S
C985 C989 1.429 . S
C986 C969 1.574 . S
C986 H980 0.949 . S
C986 C990 1.368 . S
C987 C968 1.429 . S
C987 C981 1.429 . S
C987 C988 1.523 . S
C988 C969 1.368 . S
C988 C982 1.368 . S
C988 C987 1.523 . S
C989 C973 1.429 . S
C989 C985 1.429 . S
C989 C990 1.523 . S
C990 C974 1.368 . S
C990 C986 1.368 . S
C990 C989 1.523 . S
H991 C966 0.950 . S
H992 C968 0.950 . S
H993 C969 0.949 . S
H994 C971 0.950 . S
H995 C973 0.950 . S
C996 C997 1.349 . S
C996 C998 1.327 . S
C996 H1021 0.950 . S
C997 C996 1.349 . S
C997 C1013 1.349 . S
C998 C996 1.327 . S
C998 C1017 1.429 . S
C998 H1022 0.950 1_556 S
C999 C1016 1.574 . S
C999 C1018 1.368 . S
C999 H1023 0.949 . S
H1000 C1004 0.949 . S
C1001 C1002 1.349 . S
C1001 C1003 1.327 . S
C1001 H1024 0.950 . S
C1002 C1001 1.349 . S
C1002 C1014 1.349 . S
C1003 C1001 1.327 . S
C1003 C1019 1.429 . S
C1003 H1025 0.950 1_554 S
C1004 H1000 0.949 . S
C1004 C1012 1.574 . S
C1004 C1020 1.368 . S
H1005 C1013 0.950 . S
H1006 C1011 0.950 . S
H1007 C1012 0.949 . S
H1008 C1014 0.950 . S
H1009 C1015 0.950 . S
H1010 C1016 0.949 . S
C1011 H1006 0.950 . S
C1011 C1013 1.327 . S
C1011 C1017 1.429 . S
C1012 C1004 1.574 . S
C1012 H1007 0.949 . S
C1012 C1018 1.368 1_554 S
C1013 C997 1.349 . S
C1013 H1005 0.950 . S
C1013 C1011 1.327 . S
C1014 C1002 1.349 . S
C1014 H1008 0.950 . S
C1014 C1015 1.327 . S
C1015 H1009 0.950 . S
C1015 C1014 1.327 . S
C1015 C1019 1.429 . S
C1016 C999 1.574 . S
C1016 H1010 0.949 . S
C1016 C1020 1.368 1_556 S
C1017 C998 1.429 . S
C1017 C1011 1.429 . S
C1017 C1018 1.523 . S
C1018 C999 1.368 . S
C1018 C1012 1.368 1_556 S
C1018 C1017 1.523 . S
C1019 C1003 1.429 . S
C1019 C1015 1.429 . S
C1019 C1020 1.523 . S
C1020 C1004 1.368 . S
C1020 C1016 1.368 1_554 S
C1020 C1019 1.523 . S
H1021 C996 0.950 . S
H1022 C998 0.950 1_554 S
H1023 C999 0.949 . S
H1024 C1001 0.950 . S
H1025 C1003 0.950 1_556 S
C1026 C1027 1.349 . S
C1026 C1028 1.327 . S
C1026 H1051 0.950 . S
C1027 C1026 1.349 . S
C1027 C1043 1.349 . S
C1028 C1026 1.327 . S
C1028 C1047 1.429 . S
C1028 H1052 0.950 . S
C1029 C1046 1.574 . S
C1029 C1048 1.368 . S
C1029 H1053 0.949 . S
H1030 C1034 0.949 . S
C1031 C1032 1.349 . S
C1031 C1033 1.327 . S
C1031 H1054 0.950 . S
C1032 C1031 1.349 . S
C1032 C1044 1.349 . S
C1033 C1031 1.327 . S
C1033 C1049 1.429 . S
C1033 H1055 0.950 . S
C1034 H1030 0.949 . S
C1034 C1042 1.574 . S
C1034 C1050 1.368 . S
H1035 C1043 0.950 . S
H1036 C1041 0.950 . S
H1037 C1042 0.949 . S
H1038 C1044 0.950 . S
H1039 C1045 0.950 . S
H1040 C1046 0.949 . S
C1041 H1036 0.950 . S
C1041 C1043 1.327 . S
C1041 C1047 1.429 . S
C1042 C1034 1.574 . S
C1042 H1037 0.949 . S
C1042 C1048 1.368 . S
C1043 C1027 1.349 . S
C1043 H1035 0.950 . S
C1043 C1041 1.327 . S
C1044 C1032 1.349 . S
C1044 H1038 0.950 . S
C1044 C1045 1.327 . S
C1045 H1039 0.950 . S
C1045 C1044 1.327 . S
C1045 C1049 1.429 . S
C1046 C1029 1.574 . S
C1046 H1040 0.949 . S
C1046 C1050 1.368 . S
C1047 C1028 1.429 . S
C1047 C1041 1.429 . S
C1047 C1048 1.523 . S
C1048 C1029 1.368 . S
C1048 C1042 1.368 . S
C1048 C1047 1.523 . S
C1049 C1033 1.429 . S
C1049 C1045 1.429 . S
C1049 C1050 1.523 . S
C1050 C1034 1.368 . S
C1050 C1046 1.368 . S
C1050 C1049 1.523 . S
H1051 C1026 0.950 . S
H1052 C1028 0.950 . S
H1053 C1029 0.949 . S
H1054 C1031 0.950 . S
H1055 C1033 0.950 . S
C1056 C1057 1.349 . S
C1056 C1058 1.327 . S
C1056 H1081 0.950 . S
C1057 C1056 1.349 . S
C1057 C1073 1.349 . S
C1058 C1056 1.327 . S
C1058 C1077 1.429 . S
C1058 H1082 0.950 . S
C1059 C1076 1.574 . S
C1059 C1078 1.368 . S
C1059 H1083 0.949 . S
H1060 C1064 0.949 . S
C1061 C1062 1.349 . S
C1061 C1063 1.327 . S
C1061 H1084 0.950 . S
C1062 C1061 1.349 . S
C1062 C1074 1.349 . S
C1063 C1061 1.327 . S
C1063 C1079 1.429 . S
C1063 H1085 0.950 . S
C1064 H1060 0.949 . S
C1064 C1072 1.574 . S
C1064 C1080 1.368 . S
H1065 C1073 0.950 . S
H1066 C1071 0.950 . S
H1067 C1072 0.949 . S
H1068 C1074 0.950 . S
H1069 C1075 0.950 . S
H1070 C1076 0.949 . S
C1071 H1066 0.950 . S
C1071 C1073 1.327 . S
C1071 C1077 1.429 . S
C1072 C1064 1.574 . S
C1072 H1067 0.949 . S
C1072 C1078 1.368 . S
C1073 C1057 1.349 . S
C1073 H1065 0.950 . S
C1073 C1071 1.327 . S
C1074 C1062 1.349 . S
C1074 H1068 0.950 . S
C1074 C1075 1.327 . S
C1075 H1069 0.950 . S
C1075 C1074 1.327 . S
C1075 C1079 1.429 . S
C1076 C1059 1.574 . S
C1076 H1070 0.949 . S
C1076 C1080 1.368 . S
C1077 C1058 1.429 . S
C1077 C1071 1.429 . S
C1077 C1078 1.523 . S
C1078 C1059 1.368 . S
C1078 C1072 1.368 . S
C1078 C1077 1.523 . S
C1079 C1063 1.429 . S
C1079 C1075 1.429 . S
C1079 C1080 1.523 . S
C1080 C1064 1.368 . S
C1080 C1076 1.368 . S
C1080 C1079 1.523 . S
H1081 C1056 0.950 . S
H1082 C1058 0.950 . S
H1083 C1059 0.949 . S
H1084 C1061 0.950 . S
H1085 C1063 0.950 . S
C1086 C1087 1.349 . S
C1086 C1088 1.327 . S
C1086 H1111 0.950 . S
C1087 C1086 1.349 . S
C1087 C1103 1.349 . S
C1088 C1086 1.327 . S
C1088 C1107 1.429 . S
C1088 H1112 0.950 . S
C1089 C1106 1.574 1_455 S
C1089 C1108 1.368 . S
C1089 H1113 0.949 . S
H1090 C1094 0.949 . S
C1091 C1092 1.349 . S
C1091 C1093 1.327 . S
C1091 H1114 0.950 . S
C1092 C1091 1.349 . S
C1092 C1104 1.349 . S
C1093 C1091 1.327 . S
C1093 C1109 1.429 . S
C1093 H1115 0.950 . S
C1094 H1090 0.949 . S
C1094 C1102 1.574 1_655 S
C1094 C1110 1.368 . S
H1095 C1103 0.950 . S
H1096 C1101 0.950 . S
H1097 C1102 0.949 . S
H1098 C1104 0.950 . S
H1099 C1105 0.950 . S
H1100 C1106 0.949 . S
C1101 H1096 0.950 . S
C1101 C1103 1.327 . S
C1101 C1107 1.429 . S
C1102 C1094 1.574 1_455 S
C1102 H1097 0.949 . S
C1102 C1108 1.368 . S
C1103 C1087 1.349 . S
C1103 H1095 0.950 . S
C1103 C1101 1.327 . S
C1104 C1092 1.349 . S
C1104 H1098 0.950 . S
C1104 C1105 1.327 . S
C1105 H1099 0.950 . S
C1105 C1104 1.327 . S
C1105 C1109 1.429 . S
C1106 C1089 1.574 1_655 S
C1106 H1100 0.949 . S
C1106 C1110 1.368 . S
C1107 C1088 1.429 . S
C1107 C1101 1.429 . S
C1107 C1108 1.523 . S
C1108 C1089 1.368 . S
C1108 C1102 1.368 . S
C1108 C1107 1.523 . S
C1109 C1093 1.429 . S
C1109 C1105 1.429 . S
C1109 C1110 1.523 . S
C1110 C1094 1.368 . S
C1110 C1106 1.368 . S
C1110 C1109 1.523 . S
H1111 C1086 0.950 . S
H1112 C1088 0.950 . S
H1113 C1089 0.949 . S
H1114 C1091 0.950 . S
H1115 C1093 0.950 . S
C1116 C1117 1.349 . S
C1116 C1118 1.327 . S
C1116 H1141 0.950 . S
C1117 C1116 1.349 . S
C1117 C1133 1.349 . S
C1118 C1116 1.327 . S
C1118 C1137 1.429 . S
C1118 H1142 0.950 . S
C1119 C1136 1.574 1_565 S
C1119 C1138 1.368 . S
C1119 H1143 0.949 . S
H1120 C1124 0.949 . S
C1121 C1122 1.349 . S
C1121 C1123 1.327 . S
C1121 H1144 0.950 . S
C1122 C1121 1.349 . S
C1122 C1134 1.349 . S
C1123 C1121 1.327 . S
C1123 C1139 1.429 . S
C1123 H1145 0.950 . S
C1124 H1120 0.949 . S
C1124 C1132 1.574 1_545 S
C1124 C1140 1.368 . S
H1125 C1133 0.950 . S
H1126 C1131 0.950 . S
H1127 C1132 0.949 . S
H1128 C1134 0.950 . S
H1129 C1135 0.950 . S
H1130 C1136 0.949 . S
C1131 H1126 0.950 . S
C1131 C1133 1.327 . S
C1131 C1137 1.429 . S
C1132 C1124 1.574 1_565 S
C1132 H1127 0.949 . S
C1132 C1138 1.368 . S
C1133 C1117 1.349 . S
C1133 H1125 0.950 . S
C1133 C1131 1.327 . S
C1134 C1122 1.349 . S
C1134 H1128 0.950 . S
C1134 C1135 1.327 . S
C1135 H1129 0.950 . S
C1135 C1134 1.327 . S
C1135 C1139 1.429 . S
C1136 C1119 1.574 1_545 S
C1136 H1130 0.949 . S
C1136 C1140 1.368 . S
C1137 C1118 1.429 . S
C1137 C1131 1.429 . S
C1137 C1138 1.523 . S
C1138 C1119 1.368 . S
C1138 C1132 1.368 . S
C1138 C1137 1.523 . S
C1139 C1123 1.429 . S
C1139 C1135 1.429 . S
C1139 C1140 1.523 . S
C1140 C1124 1.368 . S
C1140 C1136 1.368 . S
C1140 C1139 1.523 . S
H1141 C1116 0.950 . S
H1142 C1118 0.950 . S
H1143 C1119 0.949 . S
H1144 C1121 0.950 . S
H1145 C1123 0.950 . S
C1146 C1147 1.349 . S
C1146 C1148 1.327 . S
C1146 H1171 0.950 . S
C1147 C1146 1.349 . S
C1147 C1163 1.349 . S
C1148 C1146 1.327 . S
C1148 C1167 1.429 . S
C1148 H1172 0.950 . S
C1149 C1166 1.574 . S
C1149 C1168 1.368 . S
C1149 H1173 0.949 . S
H1150 C1154 0.949 . S
C1151 C1152 1.349 . S
C1151 C1153 1.327 . S
C1151 H1174 0.950 . S
C1152 C1151 1.349 . S
C1152 C1164 1.349 . S
C1153 C1151 1.327 . S
C1153 C1169 1.429 . S
C1153 H1175 0.950 . S
C1154 H1150 0.949 . S
C1154 C1162 1.574 . S
C1154 C1170 1.368 . S
H1155 C1163 0.950 . S
H1156 C1161 0.950 . S
H1157 C1162 0.949 . S
H1158 C1164 0.950 . S
H1159 C1165 0.950 . S
H1160 C1166 0.949 . S
C1161 H1156 0.950 . S
C1161 C1163 1.327 . S
C1161 C1167 1.429 . S
C1162 C1154 1.574 . S
C1162 H1157 0.949 . S
C1162 C1168 1.368 . S
C1163 C1147 1.349 . S
C1163 H1155 0.950 . S
C1163 C1161 1.327 . S
C1164 C1152 1.349 . S
C1164 H1158 0.950 . S
C1164 C1165 1.327 . S
C1165 H1159 0.950 . S
C1165 C1164 1.327 . S
C1165 C1169 1.429 . S
C1166 C1149 1.574 . S
C1166 H1160 0.949 . S
C1166 C1170 1.368 . S
C1167 C1148 1.429 . S
C1167 C1161 1.429 . S
C1167 C1168 1.523 . S
C1168 C1149 1.368 . S
C1168 C1162 1.368 . S
C1168 C1167 1.523 . S
C1169 C1153 1.429 . S
C1169 C1165 1.429 . S
C1169 C1170 1.523 . S
C1170 C1154 1.368 . S
C1170 C1166 1.368 . S
C1170 C1169 1.523 . S
H1171 C1146 0.950 . S
H1172 C1148 0.950 . S
H1173 C1149 0.949 . S
H1174 C1151 0.950 . S
H1175 C1153 0.950 . S
C1176 C1177 1.349 . S
C1176 C1178 1.327 . S
C1176 H1201 0.950 . S
C1177 C1176 1.349 . S
C1177 C1193 1.349 . S
C1178 C1176 1.327 . S
C1178 C1197 1.429 . S
C1178 H1202 0.950 . S
C1179 C1196 1.574 1_655 S
C1179 C1198 1.368 . S
C1179 H1203 0.949 . S
H1180 C1184 0.949 . S
C1181 C1182 1.349 . S
C1181 C1183 1.327 . S
C1181 H1204 0.950 . S
C1182 C1181 1.349 . S
C1182 C1194 1.349 . S
C1183 C1181 1.327 . S
C1183 C1199 1.429 . S
C1183 H1205 0.950 . S
C1184 H1180 0.949 . S
C1184 C1192 1.574 1_455 S
C1184 C1200 1.368 . S
H1185 C1193 0.950 . S
H1186 C1191 0.950 . S
H1187 C1192 0.949 . S
H1188 C1194 0.950 . S
H1189 C1195 0.950 . S
H1190 C1196 0.949 . S
C1191 H1186 0.950 . S
C1191 C1193 1.327 . S
C1191 C1197 1.429 . S
C1192 C1184 1.574 1_655 S
C1192 H1187 0.949 . S
C1192 C1198 1.368 . S
C1193 C1177 1.349 . S
C1193 H1185 0.950 . S
C1193 C1191 1.327 . S
C1194 C1182 1.349 . S
C1194 H1188 0.950 . S
C1194 C1195 1.327 . S
C1195 H1189 0.950 . S
C1195 C1194 1.327 . S
C1195 C1199 1.429 . S
C1196 C1179 1.574 1_455 S
C1196 H1190 0.949 . S
C1196 C1200 1.368 . S
C1197 C1178 1.429 . S
C1197 C1191 1.429 . S
C1197 C1198 1.523 . S
C1198 C1179 1.368 . S
C1198 C1192 1.368 . S
C1198 C1197 1.523 . S
C1199 C1183 1.429 . S
C1199 C1195 1.429 . S
C1199 C1200 1.523 . S
C1200 C1184 1.368 . S
C1200 C1196 1.368 . S
C1200 C1199 1.523 . S
H1201 C1176 0.950 . S
H1202 C1178 0.950 . S
H1203 C1179 0.949 . S
H1204 C1181 0.950 . S
H1205 C1183 0.950 . S
C1206 C1207 1.349 . S
C1206 C1208 1.327 . S
C1206 H1231 0.950 . S
C1207 C1206 1.349 . S
C1207 C1223 1.349 . S
C1208 C1206 1.327 . S
C1208 C1227 1.429 . S
C1208 H1232 0.950 . S
C1209 C1226 1.574 1_545 S
C1209 C1228 1.368 . S
C1209 H1233 0.949 . S
H1210 C1214 0.949 . S
C1211 C1212 1.349 . S
C1211 C1213 1.327 . S
C1211 H1234 0.950 . S
C1212 C1211 1.349 . S
C1212 C1224 1.349 . S
C1213 C1211 1.327 . S
C1213 C1229 1.429 . S
C1213 H1235 0.950 . S
C1214 H1210 0.949 . S
C1214 C1222 1.574 1_565 S
C1214 C1230 1.368 . S
H1215 C1223 0.950 . S
H1216 C1221 0.950 . S
H1217 C1222 0.949 . S
H1218 C1224 0.950 . S
H1219 C1225 0.950 . S
H1220 C1226 0.949 . S
C1221 H1216 0.950 . S
C1221 C1223 1.327 . S
C1221 C1227 1.429 . S
C1222 C1214 1.574 1_545 S
C1222 H1217 0.949 . S
C1222 C1228 1.368 . S
C1223 C1207 1.349 . S
C1223 H1215 0.950 . S
C1223 C1221 1.327 . S
C1224 C1212 1.349 . S
C1224 H1218 0.950 . S
C1224 C1225 1.327 . S
C1225 H1219 0.950 . S
C1225 C1224 1.327 . S
C1225 C1229 1.429 . S
C1226 C1209 1.574 1_565 S
C1226 H1220 0.949 . S
C1226 C1230 1.368 . S
C1227 C1208 1.429 . S
C1227 C1221 1.429 . S
C1227 C1228 1.523 . S
C1228 C1209 1.368 . S
C1228 C1222 1.368 . S
C1228 C1227 1.523 . S
C1229 C1213 1.429 . S
C1229 C1225 1.429 . S
C1229 C1230 1.523 . S
C1230 C1214 1.368 . S
C1230 C1226 1.368 . S
C1230 C1229 1.523 . S
H1231 C1206 0.950 . S
H1232 C1208 0.950 . S
H1233 C1209 0.949 . S
H1234 C1211 0.950 . S
H1235 C1213 0.950 . S
C1236 C1237 1.349 . S
C1236 C1238 1.327 . S
C1236 H1261 0.950 . S
C1237 C1236 1.349 . S
C1237 C1253 1.349 . S
C1238 C1236 1.327 . S
C1238 C1257 1.429 . S
C1238 H1262 0.950 . S
C1239 C1256 1.574 . S
C1239 C1258 1.368 . S
C1239 H1263 0.949 . S
H1240 C1244 0.949 . S
C1241 C1242 1.349 . S
C1241 C1243 1.327 . S
C1241 H1264 0.950 . S
C1242 C1241 1.349 . S
C1242 C1254 1.349 . S
C1243 C1241 1.327 . S
C1243 C1259 1.429 . S
C1243 H1265 0.950 . S
C1244 H1240 0.949 . S
C1244 C1252 1.574 . S
C1244 C1260 1.368 . S
H1245 C1253 0.950 . S
H1246 C1251 0.950 . S
H1247 C1252 0.949 . S
H1248 C1254 0.950 . S
H1249 C1255 0.950 . S
H1250 C1256 0.949 . S
C1251 H1246 0.950 . S
C1251 C1253 1.327 . S
C1251 C1257 1.429 . S
C1252 C1244 1.574 . S
C1252 H1247 0.949 . S
C1252 C1258 1.368 . S
C1253 C1237 1.349 . S
C1253 H1245 0.950 . S
C1253 C1251 1.327 . S
C1254 C1242 1.349 . S
C1254 H1248 0.950 . S
C1254 C1255 1.327 . S
C1255 H1249 0.950 . S
C1255 C1254 1.327 . S
C1255 C1259 1.429 . S
C1256 C1239 1.574 . S
C1256 H1250 0.949 . S
C1256 C1260 1.368 . S
C1257 C1238 1.429 . S
C1257 C1251 1.429 . S
C1257 C1258 1.523 . S
C1258 C1239 1.368 . S
C1258 C1252 1.368 . S
C1258 C1257 1.523 . S
C1259 C1243 1.429 . S
C1259 C1255 1.429 . S
C1259 C1260 1.523 . S
C1260 C1244 1.368 . S
C1260 C1256 1.368 . S
C1260 C1259 1.523 . S
H1261 C1236 0.950 . S
H1262 C1238 0.950 . S
H1263 C1239 0.949 . S
H1264 C1241 0.950 . S
H1265 C1243 0.950 . S
C1266 C1267 1.349 . S
C1266 C1268 1.327 . S
C1266 H1291 0.950 . S
C1267 C1266 1.349 . S
C1267 C1283 1.349 . S
C1268 C1266 1.327 . S
C1268 C1287 1.429 . S
C1268 H1292 0.950 . S
C1269 C1286 1.574 1_655 S
C1269 C1288 1.368 . S
C1269 H1293 0.949 . S
H1270 C1274 0.949 . S
C1271 C1272 1.349 . S
C1271 C1273 1.327 . S
C1271 H1294 0.950 . S
C1272 C1271 1.349 . S
C1272 C1284 1.349 . S
C1273 C1271 1.327 . S
C1273 C1289 1.429 . S
C1273 H1295 0.950 . S
C1274 H1270 0.949 . S
C1274 C1282 1.574 1_455 S
C1274 C1290 1.368 . S
H1275 C1283 0.950 . S
H1276 C1281 0.950 . S
H1277 C1282 0.949 . S
H1278 C1284 0.950 . S
H1279 C1285 0.950 . S
H1280 C1286 0.949 . S
C1281 H1276 0.950 . S
C1281 C1283 1.327 . S
C1281 C1287 1.429 . S
C1282 C1274 1.574 1_655 S
C1282 H1277 0.949 . S
C1282 C1288 1.368 . S
C1283 C1267 1.349 . S
C1283 H1275 0.950 . S
C1283 C1281 1.327 . S
C1284 C1272 1.349 . S
C1284 H1278 0.950 . S
C1284 C1285 1.327 . S
C1285 H1279 0.950 . S
C1285 C1284 1.327 . S
C1285 C1289 1.429 . S
C1286 C1269 1.574 1_455 S
C1286 H1280 0.949 . S
C1286 C1290 1.368 . S
C1287 C1268 1.429 . S
C1287 C1281 1.429 . S
C1287 C1288 1.523 . S
C1288 C1269 1.368 . S
C1288 C1282 1.368 . S
C1288 C1287 1.523 . S
C1289 C1273 1.429 . S
C1289 C1285 1.429 . S
C1289 C1290 1.523 . S
C1290 C1274 1.368 . S
C1290 C1286 1.368 . S
C1290 C1289 1.523 . S
H1291 C1266 0.950 . S
H1292 C1268 0.950 . S
H1293 C1269 0.949 . S
H1294 C1271 0.950 . S
H1295 C1273 0.950 . S
C1296 C1297 1.349 . S
C1296 C1298 1.327 . S
C1296 H1321 0.950 . S
C1297 C1296 1.349 . S
C1297 C1313 1.349 . S
C1298 C1296 1.327 . S
C1298 C1317 1.429 . S
C1298 H1322 0.950 . S
C1299 C1316 1.574 1_545 S
C1299 C1318 1.368 . S
C1299 H1323 0.949 . S
H1300 C1304 0.949 . S
C1301 C1302 1.349 . S
C1301 C1303 1.327 . S
C1301 H1324 0.950 . S
C1302 C1301 1.349 . S
C1302 C1314 1.349 . S
C1303 C1301 1.327 . S
C1303 C1319 1.429 . S
C1303 H1325 0.950 . S
C1304 H1300 0.949 . S
C1304 C1312 1.574 1_565 S
C1304 C1320 1.368 . S
H1305 C1313 0.950 . S
H1306 C1311 0.950 . S
H1307 C1312 0.949 . S
H1308 C1314 0.950 . S
H1309 C1315 0.950 . S
H1310 C1316 0.949 . S
C1311 H1306 0.950 . S
C1311 C1313 1.327 . S
C1311 C1317 1.429 . S
C1312 C1304 1.574 1_545 S
C1312 H1307 0.949 . S
C1312 C1318 1.368 . S
C1313 C1297 1.349 . S
C1313 H1305 0.950 . S
C1313 C1311 1.327 . S
C1314 C1302 1.349 . S
C1314 H1308 0.950 . S
C1314 C1315 1.327 . S
C1315 H1309 0.950 . S
C1315 C1314 1.327 . S
C1315 C1319 1.429 . S
C1316 C1299 1.574 1_565 S
C1316 H1310 0.949 . S
C1316 C1320 1.368 . S
C1317 C1298 1.429 . S
C1317 C1311 1.429 . S
C1317 C1318 1.523 . S
C1318 C1299 1.368 . S
C1318 C1312 1.368 . S
C1318 C1317 1.523 . S
C1319 C1303 1.429 . S
C1319 C1315 1.429 . S
C1319 C1320 1.523 . S
C1320 C1304 1.368 . S
C1320 C1316 1.368 . S
C1320 C1319 1.523 . S
H1321 C1296 0.950 . S
H1322 C1298 0.950 . S
H1323 C1299 0.949 . S
H1324 C1301 0.950 . S
H1325 C1303 0.950 . S
C1326 C1327 1.349 . S
C1326 C1328 1.327 . S
C1326 H1351 0.950 . S
C1327 C1326 1.349 . S
C1327 C1343 1.349 . S
C1328 C1326 1.327 . S
C1328 C1347 1.429 . S
C1328 H1352 0.950 . S
C1329 C1346 1.574 . S
C1329 C1348 1.368 . S
C1329 H1353 0.949 . S
H1330 C1334 0.949 . S
C1331 C1332 1.349 . S
C1331 C1333 1.327 . S
C1331 H1354 0.950 . S
C1332 C1331 1.349 . S
C1332 C1344 1.349 . S
C1333 C1331 1.327 . S
C1333 C1349 1.429 . S
C1333 H1355 0.950 . S
C1334 H1330 0.949 . S
C1334 C1342 1.574 . S
C1334 C1350 1.368 . S
H1335 C1343 0.950 . S
H1336 C1341 0.950 . S
H1337 C1342 0.949 . S
H1338 C1344 0.950 . S
H1339 C1345 0.950 . S
H1340 C1346 0.949 . S
C1341 H1336 0.950 . S
C1341 C1343 1.327 . S
C1341 C1347 1.429 . S
C1342 C1334 1.574 . S
C1342 H1337 0.949 . S
C1342 C1348 1.368 . S
C1343 C1327 1.349 . S
C1343 H1335 0.950 . S
C1343 C1341 1.327 . S
C1344 C1332 1.349 . S
C1344 H1338 0.950 . S
C1344 C1345 1.327 . S
C1345 H1339 0.950 . S
C1345 C1344 1.327 . S
C1345 C1349 1.429 . S
C1346 C1329 1.574 . S
C1346 H1340 0.949 . S
C1346 C1350 1.368 . S
C1347 C1328 1.429 . S
C1347 C1341 1.429 . S
C1347 C1348 1.523 . S
C1348 C1329 1.368 . S
C1348 C1342 1.368 . S
C1348 C1347 1.523 . S
C1349 C1333 1.429 . S
C1349 C1345 1.429 . S
C1349 C1350 1.523 . S
C1350 C1334 1.368 . S
C1350 C1346 1.368 . S
C1350 C1349 1.523 . S
H1351 C1326 0.950 . S
H1352 C1328 0.950 . S
H1353 C1329 0.949 . S
H1354 C1331 0.950 . S
H1355 C1333 0.950 . S
C1356 C1357 1.349 . S
C1356 C1358 1.327 . S
C1356 H1381 0.950 . S
C1357 C1356 1.349 . S
C1357 C1373 1.349 . S
C1358 C1356 1.327 . S
C1358 C1377 1.429 . S
C1358 H1382 0.950 . S
C1359 C1376 1.574 1_455 S
C1359 C1378 1.368 . S
C1359 H1383 0.949 . S
H1360 C1364 0.949 . S
C1361 C1362 1.349 . S
C1361 C1363 1.327 . S
C1361 H1384 0.950 . S
C1362 C1361 1.349 . S
C1362 C1374 1.349 . S
C1363 C1361 1.327 . S
C1363 C1379 1.429 . S
C1363 H1385 0.950 . S
C1364 H1360 0.949 . S
C1364 C1372 1.574 1_655 S
C1364 C1380 1.368 . S
H1365 C1373 0.950 . S
H1366 C1371 0.950 . S
H1367 C1372 0.949 . S
H1368 C1374 0.950 . S
H1369 C1375 0.950 . S
H1370 C1376 0.949 . S
C1371 H1366 0.950 . S
C1371 C1373 1.327 . S
C1371 C1377 1.429 . S
C1372 C1364 1.574 1_455 S
C1372 H1367 0.949 . S
C1372 C1378 1.368 . S
C1373 C1357 1.349 . S
C1373 H1365 0.950 . S
C1373 C1371 1.327 . S
C1374 C1362 1.349 . S
C1374 H1368 0.950 . S
C1374 C1375 1.327 . S
C1375 H1369 0.950 . S
C1375 C1374 1.327 . S
C1375 C1379 1.429 . S
C1376 C1359 1.574 1_655 S
C1376 H1370 0.949 . S
C1376 C1380 1.368 . S
C1377 C1358 1.429 . S
C1377 C1371 1.429 . S
C1377 C1378 1.523 . S
C1378 C1359 1.368 . S
C1378 C1372 1.368 . S
C1378 C1377 1.523 . S
C1379 C1363 1.429 . S
C1379 C1375 1.429 . S
C1379 C1380 1.523 . S
C1380 C1364 1.368 . S
C1380 C1376 1.368 . S
C1380 C1379 1.523 . S
H1381 C1356 0.950 . S
H1382 C1358 0.950 . S
H1383 C1359 0.949 . S
H1384 C1361 0.950 . S
H1385 C1363 0.950 . S
C1386 C1387 1.349 . S
C1386 C1388 1.327 . S
C1386 H1411 0.950 . S
C1387 C1386 1.349 . S
C1387 C1403 1.349 . S
C1388 C1386 1.327 . S
C1388 C1407 1.429 . S
C1388 H1412 0.950 . S
C1389 C1406 1.574 1_565 S
C1389 C1408 1.368 . S
C1389 H1413 0.949 . S
H1390 C1394 0.949 . S
C1391 C1392 1.349 . S
C1391 C1393 1.327 . S
C1391 H1414 0.950 . S
C1392 C1391 1.349 . S
C1392 C1404 1.349 . S
C1393 C1391 1.327 . S
C1393 C1409 1.429 . S
C1393 H1415 0.950 . S
C1394 H1390 0.949 . S
C1394 C1402 1.574 1_545 S
C1394 C1410 1.368 . S
H1395 C1403 0.950 . S
H1396 C1401 0.950 . S
H1397 C1402 0.949 . S
H1398 C1404 0.950 . S
H1399 C1405 0.950 . S
H1400 C1406 0.949 . S
C1401 H1396 0.950 . S
C1401 C1403 1.327 . S
C1401 C1407 1.429 . S
C1402 C1394 1.574 1_565 S
C1402 H1397 0.949 . S
C1402 C1408 1.368 . S
C1403 C1387 1.349 . S
C1403 H1395 0.950 . S
C1403 C1401 1.327 . S
C1404 C1392 1.349 . S
C1404 H1398 0.950 . S
C1404 C1405 1.327 . S
C1405 H1399 0.950 . S
C1405 C1404 1.327 . S
C1405 C1409 1.429 . S
C1406 C1389 1.574 1_545 S
C1406 H1400 0.949 . S
C1406 C1410 1.368 . S
C1407 C1388 1.429 . S
C1407 C1401 1.429 . S
C1407 C1408 1.523 . S
C1408 C1389 1.368 . S
C1408 C1402 1.368 . S
C1408 C1407 1.523 . S
C1409 C1393 1.429 . S
C1409 C1405 1.429 . S
C1409 C1410 1.523 . S
C1410 C1394 1.368 . S
C1410 C1406 1.368 . S
C1410 C1409 1.523 . S
H1411 C1386 0.950 . S
H1412 C1388 0.950 . S
H1413 C1389 0.949 . S
H1414 C1391 0.950 . S
H1415 C1393 0.950 . S
C1416 C1417 1.349 . S
C1416 C1418 1.327 . S
C1416 H1441 0.950 . S
C1417 C1416 1.349 . S
C1417 C1433 1.349 . S
C1418 C1416 1.327 . S
C1418 C1437 1.429 . S
C1418 H1442 0.950 . S
C1419 C1436 1.574 . S
C1419 C1438 1.368 1_554 S
C1419 H1443 0.949 . S
H1420 C1424 0.949 . S
C1421 C1422 1.349 . S
C1421 C1423 1.327 . S
C1421 H1444 0.950 . S
C1422 C1421 1.349 . S
C1422 C1434 1.349 . S
C1423 C1421 1.327 . S
C1423 C1439 1.429 . S
C1423 H1445 0.950 . S
C1424 H1420 0.949 . S
C1424 C1432 1.574 . S
C1424 C1440 1.368 1_556 S
H1425 C1433 0.950 . S
H1426 C1431 0.950 1_554 S
H1427 C1432 0.949 . S
H1428 C1434 0.950 . S
H1429 C1435 0.950 1_556 S
H1430 C1436 0.949 . S
C1431 H1426 0.950 1_556 S
C1431 C1433 1.327 . S
C1431 C1437 1.429 . S
C1432 C1424 1.574 . S
C1432 H1427 0.949 . S
C1432 C1438 1.368 . S
C1433 C1417 1.349 . S
C1433 H1425 0.950 . S
C1433 C1431 1.327 . S
C1434 C1422 1.349 . S
C1434 H1428 0.950 . S
C1434 C1435 1.327 . S
C1435 H1429 0.950 1_554 S
C1435 C1434 1.327 . S
C1435 C1439 1.429 . S
C1436 C1419 1.574 . S
C1436 H1430 0.949 . S
C1436 C1440 1.368 . S
C1437 C1418 1.429 . S
C1437 C1431 1.429 . S
C1437 C1438 1.523 . S
C1438 C1419 1.368 1_556 S
C1438 C1432 1.368 . S
C1438 C1437 1.523 . S
C1439 C1423 1.429 . S
C1439 C1435 1.429 . S
C1439 C1440 1.523 . S
C1440 C1424 1.368 1_554 S
C1440 C1436 1.368 . S
C1440 C1439 1.523 . S
H1441 C1416 0.950 . S
H1442 C1418 0.950 . S
H1443 C1419 0.949 . S
H1444 C1421 0.950 . S
H1445 C1423 0.950 . S
C1446 C1447 1.349 . S
C1446 C1448 1.327 . S
C1446 H1471 0.950 . S
C1447 C1446 1.349 . S
C1447 C1463 1.349 . S
C1448 C1446 1.327 . S
C1448 C1467 1.429 . S
C1448 H1472 0.950 . S
C1449 C1466 1.574 . S
C1449 C1468 1.368 . S
C1449 H1473 0.949 . S
H1450 C1454 0.949 . S
C1451 C1452 1.349 . S
C1451 C1453 1.327 . S
C1451 H1474 0.950 . S
C1452 C1451 1.349 . S
C1452 C1464 1.349 . S
C1453 C1451 1.327 . S
C1453 C1469 1.429 . S
C1453 H1475 0.950 . S
C1454 H1450 0.949 . S
C1454 C1462 1.574 . S
C1454 C1470 1.368 . S
H1455 C1463 0.950 . S
H1456 C1461 0.950 . S
H1457 C1462 0.949 . S
H1458 C1464 0.950 . S
H1459 C1465 0.950 . S
H1460 C1466 0.949 . S
C1461 H1456 0.950 . S
C1461 C1463 1.327 . S
C1461 C1467 1.429 . S
C1462 C1454 1.574 . S
C1462 H1457 0.949 . S
C1462 C1468 1.368 . S
C1463 C1447 1.349 . S
C1463 H1455 0.950 . S
C1463 C1461 1.327 . S
C1464 C1452 1.349 . S
C1464 H1458 0.950 . S
C1464 C1465 1.327 . S
C1465 H1459 0.950 . S
C1465 C1464 1.327 . S
C1465 C1469 1.429 . S
C1466 C1449 1.574 . S
C1466 H1460 0.949 . S
C1466 C1470 1.368 . S
C1467 C1448 1.429 . S
C1467 C1461 1.429 . S
C1467 C1468 1.523 . S
C1468 C1449 1.368 . S
C1468 C1462 1.368 . S
C1468 C1467 1.523 . S
C1469 C1453 1.429 . S
C1469 C1465 1.429 . S
C1469 C1470 1.523 . S
C1470 C1454 1.368 . S
C1470 C1466 1.368 . S
C1470 C1469 1.523 . S
H1471 C1446 0.950 . S
H1472 C1448 0.950 . S
H1473 C1449 0.949 . S
H1474 C1451 0.950 . S
H1475 C1453 0.950 . S
C1476 C1477 1.349 . S
C1476 C1478 1.327 . S
C1476 H1501 0.950 . S
C1477 C1476 1.349 . S
C1477 C1493 1.349 . S
C1478 C1476 1.327 . S
C1478 C1497 1.429 . S
C1478 H1502 0.950 . S
C1479 C1496 1.574 . S
C1479 C1498 1.368 . S
C1479 H1503 0.949 . S
H1480 C1484 0.949 . S
C1481 C1482 1.349 . S
C1481 C1483 1.327 . S
C1481 H1504 0.950 . S
C1482 C1481 1.349 . S
C1482 C1494 1.349 . S
C1483 C1481 1.327 . S
C1483 C1499 1.429 . S
C1483 H1505 0.950 . S
C1484 H1480 0.949 . S
C1484 C1492 1.574 . S
C1484 C1500 1.368 . S
H1485 C1493 0.950 . S
H1486 C1491 0.950 . S
H1487 C1492 0.949 . S
H1488 C1494 0.950 . S
H1489 C1495 0.950 . S
H1490 C1496 0.949 . S
C1491 H1486 0.950 . S
C1491 C1493 1.327 . S
C1491 C1497 1.429 . S
C1492 C1484 1.574 . S
C1492 H1487 0.949 . S
C1492 C1498 1.368 1_554 S
C1493 C1477 1.349 . S
C1493 H1485 0.950 . S
C1493 C1491 1.327 . S
C1494 C1482 1.349 . S
C1494 H1488 0.950 . S
C1494 C1495 1.327 . S
C1495 H1489 0.950 . S
C1495 C1494 1.327 . S
C1495 C1499 1.429 . S
C1496 C1479 1.574 . S
C1496 H1490 0.949 . S
C1496 C1500 1.368 1_556 S
C1497 C1478 1.429 . S
C1497 C1491 1.429 . S
C1497 C1498 1.523 . S
C1498 C1479 1.368 . S
C1498 C1492 1.368 1_556 S
C1498 C1497 1.523 . S
C1499 C1483 1.429 . S
C1499 C1495 1.429 . S
C1499 C1500 1.523 . S
C1500 C1484 1.368 . S
C1500 C1496 1.368 1_554 S
C1500 C1499 1.523 . S
H1501 C1476 0.950 . S
H1502 C1478 0.950 . S
H1503 C1479 0.949 . S
H1504 C1481 0.950 . S
H1505 C1483 0.950 . S
C1506 C1507 1.349 . S
C1506 C1508 1.327 . S
C1506 H1531 0.950 . S
C1507 C1506 1.349 . S
C1507 C1523 1.349 . S
C1508 C1506 1.327 . S
C1508 C1527 1.429 . S
C1508 H1532 0.950 . S
C1509 C1526 1.574 . S
C1509 C1528 1.368 . S
C1509 H1533 0.949 . S
H1510 C1514 0.949 . S
C1511 C1512 1.349 . S
C1511 C1513 1.327 . S
C1511 H1534 0.950 . S
C1512 C1511 1.349 . S
C1512 C1524 1.349 . S
C1513 C1511 1.327 . S
C1513 C1529 1.429 . S
C1513 H1535 0.950 . S
C1514 H1510 0.949 . S
C1514 C1522 1.574 . S
C1514 C1530 1.368 . S
H1515 C1523 0.950 . S
H1516 C1521 0.950 . S
H1517 C1522 0.949 . S
H1518 C1524 0.950 . S
H1519 C1525 0.950 . S
H1520 C1526 0.949 . S
C1521 H1516 0.950 . S
C1521 C1523 1.327 . S
C1521 C1527 1.429 . S
C1522 C1514 1.574 . S
C1522 H1517 0.949 . S
C1522 C1528 1.368 . S
C1523 C1507 1.349 . S
C1523 H1515 0.950 . S
C1523 C1521 1.327 . S
C1524 C1512 1.349 . S
C1524 H1518 0.950 . S
C1524 C1525 1.327 . S
C1525 H1519 0.950 . S
C1525 C1524 1.327 . S
C1525 C1529 1.429 . S
C1526 C1509 1.574 . S
C1526 H1520 0.949 . S
C1526 C1530 1.368 . S
C1527 C1508 1.429 . S
C1527 C1521 1.429 . S
C1527 C1528 1.523 . S
C1528 C1509 1.368 . S
C1528 C1522 1.368 . S
C1528 C1527 1.523 . S
C1529 C1513 1.429 . S
C1529 C1525 1.429 . S
C1529 C1530 1.523 . S
C1530 C1514 1.368 . S
C1530 C1526 1.368 . S
C1530 C1529 1.523 . S
H1531 C1506 0.950 . S
H1532 C1508 0.950 . S
H1533 C1509 0.949 . S
H1534 C1511 0.950 . S
H1535 C1513 0.950 . S
C1536 C1537 1.349 . S
C1536 C1538 1.327 . S
C1536 H1561 0.950 . S
C1537 C1536 1.349 . S
C1537 C1553 1.349 . S
C1538 C1536 1.327 . S
C1538 C1557 1.429 . S
C1538 H1562 0.950 1_556 S
C1539 C1556 1.574 . S
C1539 C1558 1.368 . S
C1539 H1563 0.949 . S
H1540 C1544 0.949 . S
C1541 C1542 1.349 . S
C1541 C1543 1.327 . S
C1541 H1564 0.950 . S
C1542 C1541 1.349 . S
C1542 C1554 1.349 . S
C1543 C1541 1.327 . S
C1543 C1559 1.429 . S
C1543 H1565 0.950 1_554 S
C1544 H1540 0.949 . S
C1544 C1552 1.574 . S
C1544 C1560 1.368 . S
H1545 C1553 0.950 . S
H1546 C1551 0.950 . S
H1547 C1552 0.949 . S
H1548 C1554 0.950 . S
H1549 C1555 0.950 . S
H1550 C1556 0.949 . S
C1551 H1546 0.950 . S
C1551 C1553 1.327 . S
C1551 C1557 1.429 . S
C1552 C1544 1.574 . S
C1552 H1547 0.949 . S
C1552 C1558 1.368 1_554 S
C1553 C1537 1.349 . S
C1553 H1545 0.950 . S
C1553 C1551 1.327 . S
C1554 C1542 1.349 . S
C1554 H1548 0.950 . S
C1554 C1555 1.327 . S
C1555 H1549 0.950 . S
C1555 C1554 1.327 . S
C1555 C1559 1.429 . S
C1556 C1539 1.574 . S
C1556 H1550 0.949 . S
C1556 C1560 1.368 1_556 S
C1557 C1538 1.429 . S
C1557 C1551 1.429 . S
C1557 C1558 1.523 . S
C1558 C1539 1.368 . S
C1558 C1552 1.368 1_556 S
C1558 C1557 1.523 . S
C1559 C1543 1.429 . S
C1559 C1555 1.429 . S
C1559 C1560 1.523 . S
C1560 C1544 1.368 . S
C1560 C1556 1.368 1_554 S
C1560 C1559 1.523 . S
H1561 C1536 0.950 . S
H1562 C1538 0.950 1_554 S
H1563 C1539 0.949 . S
H1564 C1541 0.950 . S
H1565 C1543 0.950 1_556 S
C1566 C1567 1.349 . S
C1566 C1568 1.327 . S
C1566 H1591 0.950 . S
C1567 C1566 1.349 . S
C1567 C1583 1.349 . S
C1568 C1566 1.327 . S
C1568 C1587 1.429 . S
C1568 H1592 0.950 . S
C1569 C1586 1.574 . S
C1569 C1588 1.368 . S
C1569 H1593 0.949 . S
H1570 C1574 0.949 . S
C1571 C1572 1.349 . S
C1571 C1573 1.327 . S
C1571 H1594 0.950 . S
C1572 C1571 1.349 . S
C1572 C1584 1.349 . S
C1573 C1571 1.327 . S
C1573 C1589 1.429 . S
C1573 H1595 0.950 . S
C1574 H1570 0.949 . S
C1574 C1582 1.574 . S
C1574 C1590 1.368 . S
H1575 C1583 0.950 . S
H1576 C1581 0.950 . S
H1577 C1582 0.949 . S
H1578 C1584 0.950 . S
H1579 C1585 0.950 . S
H1580 C1586 0.949 . S
C1581 H1576 0.950 . S
C1581 C1583 1.327 . S
C1581 C1587 1.429 . S
C1582 C1574 1.574 . S
C1582 H1577 0.949 . S
C1582 C1588 1.368 . S
C1583 C1567 1.349 . S
C1583 H1575 0.950 . S
C1583 C1581 1.327 . S
C1584 C1572 1.349 . S
C1584 H1578 0.950 . S
C1584 C1585 1.327 . S
C1585 H1579 0.950 . S
C1585 C1584 1.327 . S
C1585 C1589 1.429 . S
C1586 C1569 1.574 . S
C1586 H1580 0.949 . S
C1586 C1590 1.368 . S
C1587 C1568 1.429 . S
C1587 C1581 1.429 . S
C1587 C1588 1.523 . S
C1588 C1569 1.368 . S
C1588 C1582 1.368 . S
C1588 C1587 1.523 . S
C1589 C1573 1.429 . S
C1589 C1585 1.429 . S
C1589 C1590 1.523 . S
C1590 C1574 1.368 . S
C1590 C1586 1.368 . S
C1590 C1589 1.523 . S
H1591 C1566 0.950 . S
H1592 C1568 0.950 . S
H1593 C1569 0.949 . S
H1594 C1571 0.950 . S
H1595 C1573 0.950 . S
C1596 C1597 1.349 . S
C1596 C1598 1.327 . S
C1596 H1621 0.950 . S
C1597 C1596 1.349 . S
C1597 C1613 1.349 . S
C1598 C1596 1.327 . S
C1598 C1617 1.429 . S
C1598 H1622 0.950 1_554 S
C1599 C1616 1.574 . S
C1599 C1618 1.368 . S
C1599 H1623 0.949 . S
H1600 C1604 0.949 . S
C1601 C1602 1.349 . S
C1601 C1603 1.327 . S
C1601 H1624 0.950 . S
C1602 C1601 1.349 . S
C1602 C1614 1.349 . S
C1603 C1601 1.327 . S
C1603 C1619 1.429 . S
C1603 H1625 0.950 1_556 S
C1604 H1600 0.949 . S
C1604 C1612 1.574 . S
C1604 C1620 1.368 . S
H1605 C1613 0.950 . S
H1606 C1611 0.950 . S
H1607 C1612 0.949 . S
H1608 C1614 0.950 . S
H1609 C1615 0.950 . S
H1610 C1616 0.949 . S
C1611 H1606 0.950 . S
C1611 C1613 1.327 . S
C1611 C1617 1.429 . S
C1612 C1604 1.574 . S
C1612 H1607 0.949 . S
C1612 C1618 1.368 1_556 S
C1613 C1597 1.349 . S
C1613 H1605 0.950 . S
C1613 C1611 1.327 . S
C1614 C1602 1.349 . S
C1614 H1608 0.950 . S
C1614 C1615 1.327 . S
C1615 H1609 0.950 . S
C1615 C1614 1.327 . S
C1615 C1619 1.429 . S
C1616 C1599 1.574 . S
C1616 H1610 0.949 . S
C1616 C1620 1.368 1_554 S
C1617 C1598 1.429 . S
C1617 C1611 1.429 . S
C1617 C1618 1.523 . S
C1618 C1599 1.368 . S
C1618 C1612 1.368 1_554 S
C1618 C1617 1.523 . S
C1619 C1603 1.429 . S
C1619 C1615 1.429 . S
C1619 C1620 1.523 . S
C1620 C1604 1.368 . S
C1620 C1616 1.368 1_556 S
C1620 C1619 1.523 . S
H1621 C1596 0.950 . S
H1622 C1598 0.950 1_556 S
H1623 C1599 0.949 . S
H1624 C1601 0.950 . S
H1625 C1603 0.950 1_554 S
C1626 C1627 1.349 . S
C1626 C1628 1.327 . S
C1626 H1651 0.950 . S
C1627 C1626 1.349 . S
C1627 C1643 1.349 . S
C1628 C1626 1.327 . S
C1628 C1647 1.429 . S
C1628 H1652 0.950 . S
C1629 C1646 1.574 . S
C1629 C1648 1.368 . S
C1629 H1653 0.949 . S
H1630 C1634 0.949 . S
C1631 C1632 1.349 . S
C1631 C1633 1.327 . S
C1631 H1654 0.950 . S
C1632 C1631 1.349 . S
C1632 C1644 1.349 . S
C1633 C1631 1.327 . S
C1633 C1649 1.429 . S
C1633 H1655 0.950 . S
C1634 H1630 0.949 . S
C1634 C1642 1.574 . S
C1634 C1650 1.368 . S
H1635 C1643 0.950 . S
H1636 C1641 0.950 . S
H1637 C1642 0.949 . S
H1638 C1644 0.950 . S
H1639 C1645 0.950 . S
H1640 C1646 0.949 . S
C1641 H1636 0.950 . S
C1641 C1643 1.327 . S
C1641 C1647 1.429 . S
C1642 C1634 1.574 . S
C1642 H1637 0.949 . S
C1642 C1648 1.368 . S
C1643 C1627 1.349 . S
C1643 H1635 0.950 . S
C1643 C1641 1.327 . S
C1644 C1632 1.349 . S
C1644 H1638 0.950 . S
C1644 C1645 1.327 . S
C1645 H1639 0.950 . S
C1645 C1644 1.327 . S
C1645 C1649 1.429 . S
C1646 C1629 1.574 . S
C1646 H1640 0.949 . S
C1646 C1650 1.368 . S
C1647 C1628 1.429 . S
C1647 C1641 1.429 . S
C1647 C1648 1.523 . S
C1648 C1629 1.368 . S
C1648 C1642 1.368 . S
C1648 C1647 1.523 . S
C1649 C1633 1.429 . S
C1649 C1645 1.429 . S
C1649 C1650 1.523 . S
C1650 C1634 1.368 . S
C1650 C1646 1.368 . S
C1650 C1649 1.523 . S
H1651 C1626 0.950 . S
H1652 C1628 0.950 . S
H1653 C1629 0.949 . S
H1654 C1631 0.950 . S
H1655 C1633 0.950 . S
C1656 C1657 1.349 . S
C1656 C1658 1.327 . S
C1656 H1681 0.950 . S
C1657 C1656 1.349 . S
C1657 C1673 1.349 . S
C1658 C1656 1.327 . S
C1658 C1677 1.429 . S
C1658 H1682 0.950 . S
C1659 C1676 1.574 . S
C1659 C1678 1.368 . S
C1659 H1683 0.949 . S
H1660 C1664 0.949 . S
C1661 C1662 1.349 . S
C1661 C1663 1.327 . S
C1661 H1684 0.950 . S
C1662 C1661 1.349 . S
C1662 C1674 1.349 . S
C1663 C1661 1.327 . S
C1663 C1679 1.429 . S
C1663 H1685 0.950 . S
C1664 H1660 0.949 . S
C1664 C1672 1.574 . S
C1664 C1680 1.368 . S
H1665 C1673 0.950 . S
H1666 C1671 0.950 . S
H1667 C1672 0.949 . S
H1668 C1674 0.950 . S
H1669 C1675 0.950 . S
H1670 C1676 0.949 . S
C1671 H1666 0.950 . S
C1671 C1673 1.327 . S
C1671 C1677 1.429 . S
C1672 C1664 1.574 . S
C1672 H1667 0.949 . S
C1672 C1678 1.368 1_556 S
C1673 C1657 1.349 . S
C1673 H1665 0.950 . S
C1673 C1671 1.327 . S
C1674 C1662 1.349 . S
C1674 H1668 0.950 . S
C1674 C1675 1.327 . S
C1675 H1669 0.950 . S
C1675 C1674 1.327 . S
C1675 C1679 1.429 . S
C1676 C1659 1.574 . S
C1676 H1670 0.949 . S
C1676 C1680 1.368 1_554 S
C1677 C1658 1.429 . S
C1677 C1671 1.429 . S
C1677 C1678 1.523 . S
C1678 C1659 1.368 . S
C1678 C1672 1.368 1_554 S
C1678 C1677 1.523 . S
C1679 C1663 1.429 . S
C1679 C1675 1.429 . S
C1679 C1680 1.523 . S
C1680 C1664 1.368 . S
C1680 C1676 1.368 1_556 S
C1680 C1679 1.523 . S
H1681 C1656 0.950 . S
H1682 C1658 0.950 . S
H1683 C1659 0.949 . S
H1684 C1661 0.950 . S
H1685 C1663 0.950 . S
C1686 C1687 1.349 . S
C1686 C1688 1.327 . S
C1686 H1711 0.950 . S
C1687 C1686 1.349 . S
C1687 C1703 1.349 . S
C1688 C1686 1.327 . S
C1688 C1707 1.429 . S
C1688 H1712 0.950 . S
C1689 C1706 1.574 . S
C1689 C1708 1.368 . S
C1689 H1713 0.949 . S
H1690 C1694 0.949 . S
C1691 C1692 1.349 . S
C1691 C1693 1.327 . S
C1691 H1714 0.950 . S
C1692 C1691 1.349 . S
C1692 C1704 1.349 . S
C1693 C1691 1.327 . S
C1693 C1709 1.429 . S
C1693 H1715 0.950 . S
C1694 H1690 0.949 . S
C1694 C1702 1.574 . S
C1694 C1710 1.368 . S
H1695 C1703 0.950 . S
H1696 C1701 0.950 . S
H1697 C1702 0.949 . S
H1698 C1704 0.950 . S
H1699 C1705 0.950 . S
H1700 C1706 0.949 . S
C1701 H1696 0.950 . S
C1701 C1703 1.327 . S
C1701 C1707 1.429 . S
C1702 C1694 1.574 . S
C1702 H1697 0.949 . S
C1702 C1708 1.368 . S
C1703 C1687 1.349 . S
C1703 H1695 0.950 . S
C1703 C1701 1.327 . S
C1704 C1692 1.349 . S
C1704 H1698 0.950 . S
C1704 C1705 1.327 . S
C1705 H1699 0.950 . S
C1705 C1704 1.327 . S
C1705 C1709 1.429 . S
C1706 C1689 1.574 . S
C1706 H1700 0.949 . S
C1706 C1710 1.368 . S
C1707 C1688 1.429 . S
C1707 C1701 1.429 . S
C1707 C1708 1.523 . S
C1708 C1689 1.368 . S
C1708 C1702 1.368 . S
C1708 C1707 1.523 . S
C1709 C1693 1.429 . S
C1709 C1705 1.429 . S
C1709 C1710 1.523 . S
C1710 C1694 1.368 . S
C1710 C1706 1.368 . S
C1710 C1709 1.523 . S
H1711 C1686 0.950 . S
H1712 C1688 0.950 . S
H1713 C1689 0.949 . S
H1714 C1691 0.950 . S
H1715 C1693 0.950 . S
C1716 C1717 1.349 . S
C1716 C1718 1.327 . S
C1716 H1741 0.950 . S
C1717 C1716 1.349 . S
C1717 C1733 1.349 . S
C1718 C1716 1.327 . S
C1718 C1737 1.429 . S
C1718 H1742 0.950 1_556 S
C1719 C1736 1.574 . S
C1719 C1738 1.368 . S
C1719 H1743 0.949 . S
H1720 C1724 0.949 . S
C1721 C1722 1.349 . S
C1721 C1723 1.327 . S
C1721 H1744 0.950 . S
C1722 C1721 1.349 . S
C1722 C1734 1.349 . S
C1723 C1721 1.327 . S
C1723 C1739 1.429 . S
C1723 H1745 0.950 1_554 S
C1724 H1720 0.949 . S
C1724 C1732 1.574 . S
C1724 C1740 1.368 . S
H1725 C1733 0.950 . S
H1726 C1731 0.950 . S
H1727 C1732 0.949 . S
H1728 C1734 0.950 . S
H1729 C1735 0.950 . S
H1730 C1736 0.949 . S
C1731 H1726 0.950 . S
C1731 C1733 1.327 . S
C1731 C1737 1.429 . S
C1732 C1724 1.574 . S
C1732 H1727 0.949 . S
C1732 C1738 1.368 1_554 S
C1733 C1717 1.349 . S
C1733 H1725 0.950 . S
C1733 C1731 1.327 . S
C1734 C1722 1.349 . S
C1734 H1728 0.950 . S
C1734 C1735 1.327 . S
C1735 H1729 0.950 . S
C1735 C1734 1.327 . S
C1735 C1739 1.429 . S
C1736 C1719 1.574 . S
C1736 H1730 0.949 . S
C1736 C1740 1.368 1_556 S
C1737 C1718 1.429 . S
C1737 C1731 1.429 . S
C1737 C1738 1.523 . S
C1738 C1719 1.368 . S
C1738 C1732 1.368 1_556 S
C1738 C1737 1.523 . S
C1739 C1723 1.429 . S
C1739 C1735 1.429 . S
C1739 C1740 1.523 . S
C1740 C1724 1.368 . S
C1740 C1736 1.368 1_554 S
C1740 C1739 1.523 . S
H1741 C1716 0.950 . S
H1742 C1718 0.950 1_554 S
H1743 C1719 0.949 . S
H1744 C1721 0.950 . S
H1745 C1723 0.950 1_556 S
C1746 C1747 1.349 . S
C1746 C1748 1.327 . S
C1746 H1771 0.950 . S
C1747 C1746 1.349 . S
C1747 C1763 1.349 . S
C1748 C1746 1.327 . S
C1748 C1767 1.429 . S
C1748 H1772 0.950 . S
C1749 C1766 1.574 . S
C1749 C1768 1.368 . S
C1749 H1773 0.949 . S
H1750 C1754 0.949 . S
C1751 C1752 1.349 . S
C1751 C1753 1.327 . S
C1751 H1774 0.950 . S
C1752 C1751 1.349 . S
C1752 C1764 1.349 . S
C1753 C1751 1.327 . S
C1753 C1769 1.429 . S
C1753 H1775 0.950 . S
C1754 H1750 0.949 . S
C1754 C1762 1.574 . S
C1754 C1770 1.368 . S
H1755 C1763 0.950 . S
H1756 C1761 0.950 . S
H1757 C1762 0.949 . S
H1758 C1764 0.950 . S
H1759 C1765 0.950 . S
H1760 C1766 0.949 . S
C1761 H1756 0.950 . S
C1761 C1763 1.327 . S
C1761 C1767 1.429 . S
C1762 C1754 1.574 . S
C1762 H1757 0.949 . S
C1762 C1768 1.368 . S
C1763 C1747 1.349 . S
C1763 H1755 0.950 . S
C1763 C1761 1.327 . S
C1764 C1752 1.349 . S
C1764 H1758 0.950 . S
C1764 C1765 1.327 . S
C1765 H1759 0.950 . S
C1765 C1764 1.327 . S
C1765 C1769 1.429 . S
C1766 C1749 1.574 . S
C1766 H1760 0.949 . S
C1766 C1770 1.368 . S
C1767 C1748 1.429 . S
C1767 C1761 1.429 . S
C1767 C1768 1.523 . S
C1768 C1749 1.368 . S
C1768 C1762 1.368 . S
C1768 C1767 1.523 . S
C1769 C1753 1.429 . S
C1769 C1765 1.429 . S
C1769 C1770 1.523 . S
C1770 C1754 1.368 . S
C1770 C1766 1.368 . S
C1770 C1769 1.523 . S
H1771 C1746 0.950 . S
H1772 C1748 0.950 . S
H1773 C1749 0.949 . S
H1774 C1751 0.950 . S
H1775 C1753 0.950 . S
C337 C7 1.499 . S
C342 C217 1.499 . S
C367 C21 1.499 . S
C372 C231 1.499 . S
C397 C245 1.499 . S
C402 C35 1.499 . S
C427 C175 1.499 . S
C432 C49 1.499 . S
C457 C189 1.499 . S
C462 C63 1.499 . S
C487 C203 1.499 . S
C492 C77 1.499 . S
C517 C301 1.499 . S
C522 C91 1.499 . S
C547 C105 1.499 . S
C552 C315 1.499 . S
C577 C329 1.499 . S
C582 C119 1.499 . S
C607 C133 1.499 . S
C612 C259 1.499 . S
C637 C273 1.499 . S
C642 C147 1.499 . S
C667 C161 1.499 . S
C672 C287 1.499 . S
C697 C151 1.100 . S
C702 C11 1.100 . S
C727 C165 1.100 . S
C732 C25 1.100 . S
C757 C39 1.100 . S
C762 C95 1.100 . S
C787 C53 1.100 . S
C792 C109 1.100 . S
C817 C123 1.100 . S
C822 C67 1.100 . S
C847 C81 1.100 . S
C852 C137 1.100 . S
C877 C319 1.100 . S
C882 C179 1.100 . S
C907 C193 1.100 . S
C912 C333 1.100 . S
C937 C207 1.100 . S
C942 C263 1.100 . S
C967 C277 1.100 . S
C972 C221 1.100 . S
C997 C235 1.100 . S
C1002 C291 1.100 . S
C1027 C249 1.100 . S
C1032 C305 1.100 . S
C1057 C8 0.981 . S
C1062 C260 0.981 . S
C1087 C274 0.981 . S
C1092 C22 0.981 . S
C1117 C36 0.981 . S
C1122 C288 0.981 . S
C1147 C50 0.981 . S
C1152 C302 0.981 . S
C1177 C316 0.981 . S
C1182 C64 0.981 . S
C1207 C78 0.981 . S
C1212 C330 0.981 . S
C1237 C92 0.981 . S
C1242 C176 0.981 . S
C1267 C106 0.981 . S
C1272 C190 0.981 . S
C1297 C204 0.981 . S
C1302 C120 0.981 . S
C1327 C218 0.981 . S
C1332 C134 0.981 . S
C1357 C148 0.981 . S
C1362 C232 0.981 . S
C1387 C246 0.981 . S
C1392 C162 0.981 . S
C1417 C97 1.489 . S
C1422 C13 1.489 . S
C1447 C27 1.489 . S
C1452 C111 1.489 . S
C1477 C125 1.489 . S
C1482 C41 1.489 . S
C1507 C139 1.489 . S
C1512 C55 1.489 . S
C1537 C153 1.489 . S
C1542 C69 1.489 . S
C1567 C83 1.489 . S
C1572 C167 1.489 . S
C1597 C265 1.489 . S
C1602 C181 1.489 . S
C1627 C195 1.489 . S
C1632 C279 1.489 . S
C1657 C293 1.489 . S
C1662 C209 1.489 . S
C1687 C307 1.489 . S
C1692 C223 1.489 . S
C1717 C237 1.489 . S
C1722 C321 1.489 . S
C1747 C251 1.489 . S
C1752 C335 1.489 . S
