# Generated by pormake.
# Topology wjg, (4)-cn, num edge types: 1
# Building blocks:
#     Node 0, Type 0, BuildingBlock: CEKHIL_clean_sbu_0, # of connection points: 4
#     Node 1, Type 0, BuildingBlock: CEKHIL_clean_sbu_0, # of connection points: 4
#     Node 2, Type 0, BuildingBlock: CEKHIL_clean_sbu_0, # of connection points: 4
#     Node 3, Type 0, BuildingBlock: CEKHIL_clean_sbu_0, # of connection points: 4
#     Node 4, Type 0, BuildingBlock: CEKHIL_clean_sbu_0, # of connection points: 4
#     Node 5, Type 0, BuildingBlock: CEKHIL_clean_sbu_0, # of connection points: 4
#     Node 6, Type 0, BuildingBlock: CEKHIL_clean_sbu_0, # of connection points: 4
#     Node 7, Type 0, BuildingBlock: CEKHIL_clean_sbu_0, # of connection points: 4
#     Node 8, Type 0, BuildingBlock: CEKHIL_clean_sbu_0, # of connection points: 4
#     Node 9, Type 0, BuildingBlock: CEKHIL_clean_sbu_0, # of connection points: 4
#     Node 10, Type 0, BuildingBlock: CEKHIL_clean_sbu_0, # of connection points: 4
#     Node 11, Type 0, BuildingBlock: CEKHIL_clean_sbu_0, # of connection points: 4
#     Edge 12, Type (0, 0), BuildingBlock: EYOCIG_clean_linker_4, # of connection points: 2
#     Edge 13, Type (0, 0), BuildingBlock: EYOCIG_clean_linker_4, # of connection points: 2
#     Edge 14, Type (0, 0), BuildingBlock: EYOCIG_clean_linker_4, # of connection points: 2
#     Edge 15, Type (0, 0), BuildingBlock: EYOCIG_clean_linker_4, # of connection points: 2
#     Edge 16, Type (0, 0), BuildingBlock: EYOCIG_clean_linker_4, # of connection points: 2
#     Edge 17, Type (0, 0), BuildingBlock: EYOCIG_clean_linker_4, # of connection points: 2
#     Edge 18, Type (0, 0), BuildingBlock: EYOCIG_clean_linker_4, # of connection points: 2
#     Edge 19, Type (0, 0), BuildingBlock: EYOCIG_clean_linker_4, # of connection points: 2
#     Edge 20, Type (0, 0), BuildingBlock: EYOCIG_clean_linker_4, # of connection points: 2
#     Edge 21, Type (0, 0), BuildingBlock: EYOCIG_clean_linker_4, # of connection points: 2
#     Edge 22, Type (0, 0), BuildingBlock: EYOCIG_clean_linker_4, # of connection points: 2
#     Edge 23, Type (0, 0), BuildingBlock: EYOCIG_clean_linker_4, # of connection points: 2
#     Edge 24, Type (0, 0), BuildingBlock: EYOCIG_clean_linker_4, # of connection points: 2
#     Edge 25, Type (0, 0), BuildingBlock: EYOCIG_clean_linker_4, # of connection points: 2
#     Edge 26, Type (0, 0), BuildingBlock: EYOCIG_clean_linker_4, # of connection points: 2
#     Edge 27, Type (0, 0), BuildingBlock: EYOCIG_clean_linker_4, # of connection points: 2
#     Edge 28, Type (0, 0), BuildingBlock: EYOCIG_clean_linker_4, # of connection points: 2
#     Edge 29, Type (0, 0), BuildingBlock: EYOCIG_clean_linker_4, # of connection points: 2
#     Edge 30, Type (0, 0), BuildingBlock: EYOCIG_clean_linker_4, # of connection points: 2
#     Edge 31, Type (0, 0), BuildingBlock: EYOCIG_clean_linker_4, # of connection points: 2
#     Edge 32, Type (0, 0), BuildingBlock: EYOCIG_clean_linker_4, # of connection points: 2
#     Edge 33, Type (0, 0), BuildingBlock: EYOCIG_clean_linker_4, # of connection points: 2
#     Edge 34, Type (0, 0), BuildingBlock: EYOCIG_clean_linker_4, # of connection points: 2
#     Edge 35, Type (0, 0), BuildingBlock: EYOCIG_clean_linker_4, # of connection points: 2
# Relax obj value: 0.327
# Max RMSD: 0.122
# Mean RMSD: 0.112
data_MOF--net-wjg--node1-CEKHIL_clean_sbu_0--edge1-EYOCIG_clean_linker_4
_symmetry_space_group_name_H-M    P1
_symmetry_Int_Tables_number       1
_symmetry_cell_setting            triclinic
loop_
_symmetry_equiv_pos_as_xyz
'x, y, z'
_cell_length_a     24.638993
_cell_length_b     24.576098
_cell_length_c     31.142327
_cell_angle_alpha  89.9979
_cell_angle_beta   90.000435
_cell_angle_gamma 120.10478
loop_
_atom_site_label
_atom_site_type_symbol
_atom_site_fract_x
_atom_site_fract_y
_atom_site_fract_z
_atom_type_partial_charge
Co0 Co 0.15877 0.45193 0.32131 0.0
O1 O 0.13925 0.44205 0.261 0.0
O2 O 0.07395 0.38158 0.31175 0.0
C3 C 0.19953 0.55679 0.32283 0.0
O4 O 0.16646 0.45089 0.3872 0.0
Co5 Co 0.30169 0.53526 0.34576 0.0
O6 O 0.26787 0.51844 0.40488 0.0
C7 C 0.24643 0.39924 0.32781 0.0
C8 C 0.08493 0.39539 0.27108 0.0
C9 C 0.21142 0.47882 0.41489 0.0
O10 O 0.19296 0.39301 0.31816 0.0
O11 O 0.29521 0.45143 0.33746 0.0
O12 O 0.13926 0.5201 0.32516 0.0
O13 O 0.23165 0.52979 0.31488 0.0
Co14 Co 0.70385 0.15633 0.65492 0.0
O15 O 0.69401 0.13652 0.59463 0.0
O16 O 0.69846 0.07524 0.6449 0.0
C17 C 0.63141 0.18633 0.65794 0.0
O18 O 0.71437 0.16477 0.72067 0.0
Co19 Co 0.74983 0.29725 0.67992 0.0
O20 O 0.73878 0.26377 0.73901 0.0
C21 C 0.84136 0.25615 0.65983 0.0
C22 C 0.69268 0.08483 0.6044 0.0
C23 C 0.72816 0.20891 0.74858 0.0
O24 O 0.79785 0.2002 0.65033 0.0
O25 O 0.83197 0.3011 0.67014 0.0
O26 O 0.61382 0.12708 0.66025 0.0
O27 O 0.68965 0.22371 0.64928 0.0
Co28 Co 0.5452 0.70767 0.98806 0.0
O29 O 0.55398 0.69513 0.92807 0.0
O30 O 0.6113 0.68684 0.97957 0.0
C31 C 0.43996 0.6494 0.98987 0.0
O32 O 0.54658 0.71847 0.05381 0.0
Co33 Co 0.47037 0.77702 1.01044 0.0
O34 O 0.48387 0.75858 0.07001 0.0
C35 C 0.60671 0.84964 0.99212 0.0
C36 C 0.59802 0.68391 0.9388 0.0
C37 C 0.52049 0.73844 0.08084 0.0
O38 O 0.609 0.79972 0.98376 0.0
O39 O 0.55653 0.85047 1.00118 0.0
O40 O 0.47314 0.62204 0.99287 0.0
O41 O 0.47039 0.70845 0.98092 0.0
Co42 Co 0.80832 0.5243 0.32133 0.0
O43 O 0.82783 0.53419 0.26102 0.0
O44 O 0.89313 0.59465 0.31177 0.0
C45 C 0.76755 0.41944 0.32286 0.0
O46 O 0.80062 0.52534 0.38722 0.0
Co47 Co 0.6654 0.44098 0.34579 0.0
O48 O 0.69921 0.45779 0.40491 0.0
C49 C 0.72066 0.577 0.32784 0.0
C50 C 0.88215 0.58085 0.2711 0.0
C51 C 0.75566 0.49741 0.41491 0.0
O52 O 0.77412 0.58322 0.31818 0.0
O53 O 0.67188 0.52481 0.33749 0.0
O54 O 0.82782 0.45613 0.32519 0.0
O55 O 0.73543 0.44644 0.31491 0.0
Co56 Co 0.26321 0.81989 0.65492 0.0
O57 O 0.27305 0.83971 0.59464 0.0
O58 O 0.2686 0.90098 0.6449 0.0
C59 C 0.33565 0.78989 0.65794 0.0
O60 O 0.2527 0.81145 0.72067 0.0
Co61 Co 0.21723 0.67897 0.67993 0.0
O62 O 0.22829 0.71245 0.73902 0.0
C63 C 0.1257 0.72007 0.65984 0.0
C64 C 0.27437 0.89139 0.60441 0.0
C65 C 0.2389 0.76731 0.74859 0.0
O66 O 0.16921 0.77602 0.65034 0.0
O67 O 0.1351 0.67512 0.67015 0.0
O68 O 0.35324 0.84914 0.66025 0.0
O69 O 0.27741 0.75251 0.64929 0.0
Co70 Co 0.42187 0.26854 0.98805 0.0
O71 O 0.41309 0.28108 0.92806 0.0
O72 O 0.35577 0.28937 0.97956 0.0
C73 C 0.52711 0.32681 0.98985 0.0
O74 O 0.42049 0.25774 0.05379 0.0
Co75 Co 0.4967 0.19919 1.01042 0.0
O76 O 0.4832 0.21763 0.07 0.0
C77 C 0.36037 0.12657 0.99211 0.0
C78 C 0.36905 0.2923 0.93879 0.0
C79 C 0.44658 0.23777 0.08082 0.0
O80 O 0.35807 0.17649 0.98375 0.0
O81 O 0.41054 0.12574 1.00117 0.0
O82 O 0.49393 0.35417 0.99285 0.0
O83 O 0.49668 0.26776 0.9809 0.0
Co84 Co 0.54435 0.82701 0.38293 0.0
O85 O 0.55414 0.8478 0.44304 0.0
O86 O 0.61806 0.90989 0.39229 0.0
C87 C 0.44094 0.79274 0.3801 0.0
O88 O 0.54615 0.8177 0.31723 0.0
Co89 Co 0.45374 0.68456 0.35914 0.0
O90 O 0.47393 0.71736 0.29979 0.0
C91 C 0.58761 0.73142 0.37907 0.0
C92 C 0.60318 0.90043 0.43287 0.0
C93 C 0.51656 0.77277 0.2897 0.0
O94 O 0.59782 0.78681 0.38786 0.0
O95 O 0.53403 0.68475 0.36922 0.0
O96 O 0.48074 0.85249 0.37738 0.0
O97 O 0.46411 0.75745 0.38911 0.0
Co98 Co 0.69598 0.52254 0.71752 0.0
O99 O 0.68679 0.53263 0.77788 0.0
O100 O 0.6868 0.59604 0.72743 0.0
C101 C 0.62697 0.41866 0.71542 0.0
O102 O 0.70515 0.52406 0.65167 0.0
Co103 Co 0.74762 0.43254 0.69244 0.0
O104 O 0.73371 0.45262 0.6334 0.0
C105 C 0.83487 0.5672 0.71119 0.0
C106 C 0.68265 0.58142 0.76802 0.0
C107 C 0.72027 0.49484 0.62376 0.0
O108 O 0.78979 0.57682 0.72107 0.0
O109 O 0.82794 0.51365 0.70113 0.0
O110 O 0.60677 0.45818 0.7132 0.0
O111 O 0.68576 0.44242 0.72349 0.0
Co112 Co 0.14576 0.70503 0.05041 0.0
O113 O 0.12517 0.69321 0.11052 0.0
O114 O 0.05843 0.68268 0.05922 0.0
C115 C 0.19441 0.64838 0.04894 0.0
O116 O 0.15436 0.7148 0.98457 0.0
Co117 Co 0.28979 0.77652 0.02743 0.0
O118 O 0.25732 0.75654 0.96803 0.0
C119 C 0.22391 0.84714 0.04517 0.0
C120 C 0.06943 0.68073 0.09999 0.0
C121 C 0.20027 0.73515 0.95738 0.0
O122 O 0.17236 0.79673 0.054 0.0
O123 O 0.2754 0.84902 0.03604 0.0
O124 O 0.13377 0.61998 0.04624 0.0
O125 O 0.22221 0.70755 0.05743 0.0
Co126 Co 0.42272 0.14921 0.38292 0.0
O127 O 0.41293 0.12843 0.44304 0.0
O128 O 0.34901 0.06634 0.39229 0.0
C129 C 0.52613 0.18349 0.3801 0.0
O130 O 0.42093 0.15852 0.31722 0.0
Co131 Co 0.51334 0.29166 0.35913 0.0
O132 O 0.49315 0.25886 0.29977 0.0
C133 C 0.37946 0.24481 0.37906 0.0
C134 C 0.36389 0.07579 0.43287 0.0
C135 C 0.45052 0.20345 0.28969 0.0
O136 O 0.36926 0.18942 0.38785 0.0
O137 O 0.43304 0.29147 0.3692 0.0
O138 O 0.48633 0.12373 0.37738 0.0
O139 O 0.50297 0.21877 0.38911 0.0
Co140 Co 0.27108 0.45367 0.7175 0.0
O141 O 0.28027 0.44358 0.77786 0.0
O142 O 0.28027 0.38017 0.72742 0.0
C143 C 0.34009 0.55755 0.7154 0.0
O144 O 0.26192 0.45216 0.65164 0.0
Co145 Co 0.21945 0.54367 0.69242 0.0
O146 O 0.23336 0.52359 0.63338 0.0
C147 C 0.13219 0.40901 0.71116 0.0
C148 C 0.28441 0.39478 0.768 0.0
C149 C 0.2468 0.48138 0.62373 0.0
O150 O 0.17727 0.39939 0.72105 0.0
O151 O 0.13912 0.46256 0.70111 0.0
O152 O 0.3603 0.51803 0.71318 0.0
O153 O 0.2813 0.53379 0.72347 0.0
Co154 Co 0.82132 0.27118 0.0504 0.0
O155 O 0.84191 0.283 0.11051 0.0
O156 O 0.90865 0.29353 0.0592 0.0
C157 C 0.77266 0.32783 0.04893 0.0
O158 O 0.81271 0.2614 0.98456 0.0
Co159 Co 0.67728 0.19968 0.02742 0.0
O160 O 0.70975 0.21967 0.96803 0.0
C161 C 0.74316 0.12907 0.04516 0.0
C162 C 0.89764 0.29548 0.09997 0.0
C163 C 0.76679 0.24106 0.95737 0.0
O164 O 0.79472 0.17948 0.054 0.0
O165 O 0.69167 0.12719 0.03604 0.0
O166 O 0.8333 0.35622 0.04622 0.0
O167 O 0.74486 0.26866 0.05742 0.0
C168 C 0.26793 0.67476 0.34479 0.0
C169 C 0.23021 0.62144 0.33539 0.0
C170 C 0.32355 0.72942 0.35682 0.0
C171 C 0.37706 0.76544 0.36666 0.0
C172 C 0.57377 0.24604 0.68106 0.0
C173 C 0.59251 0.21103 0.67128 0.0
C174 C 0.57287 0.3007 0.69313 0.0
C175 C 0.58999 0.35433 0.70262 0.0
C176 C 0.32342 0.60602 1.01335 0.0
C177 C 0.37589 0.61976 1.00329 0.0
C178 C 0.26856 0.60595 0.02589 0.0
C179 C 0.22959 0.61942 0.03581 0.0
C180 C 0.64353 0.2468 0.35683 0.0
C181 C 0.59002 0.21079 0.36666 0.0
C182 C 0.69915 0.30147 0.3448 0.0
C183 C 0.73687 0.35479 0.33541 0.0
C184 C 0.39329 0.73018 0.68105 0.0
C185 C 0.37456 0.76519 0.67127 0.0
C186 C 0.3942 0.67552 0.69312 0.0
C187 C 0.37708 0.62189 0.70261 0.0
C188 C 0.69851 0.37025 0.02588 0.0
C189 C 0.73748 0.35679 0.0358 0.0
C190 C 0.64365 0.37019 1.01333 0.0
C191 C 0.59118 0.35645 1.00328 0.0
C192 C 0.26397 0.30557 0.34633 0.0
C193 C 0.24962 0.34381 0.33615 0.0
C194 C 0.29221 0.2721 0.362 0.0
C195 C 0.32681 0.25294 0.37168 0.0
C196 C 0.95686 0.28652 0.67726 0.0
C197 C 0.90297 0.26664 0.66754 0.0
C198 C 0.01868 0.31917 0.69284 0.0
C199 C 0.0719 0.35573 0.70286 0.0
C200 C 0.73233 0.02078 0.02661 0.0
C201 C 0.74503 0.07286 0.03714 0.0
C202 C 0.70246 0.95929 1.01018 0.0
C203 C 0.66416 0.9067 0.99982 0.0
C204 C 0.67487 0.70413 0.36202 0.0
C205 C 0.64027 0.72329 0.3717 0.0
C206 C 0.70311 0.67067 0.34635 0.0
C207 C 0.71747 0.63243 0.33617 0.0
C208 C 0.0102 0.6897 0.67727 0.0
C209 C 0.06409 0.70957 0.66756 0.0
C210 C 0.94838 0.65704 0.69286 0.0
C211 C 0.89516 0.62048 0.70288 0.0
C212 C 0.26461 0.01692 1.01017 0.0
C213 C 0.30291 0.06951 0.99981 0.0
C214 C 0.23474 0.95543 0.02661 0.0
C215 C 0.22205 0.90335 0.03714 0.0
C216 C 0.97552 0.32411 0.16553 0.0
C217 C 0.94422 0.31169 0.13316 0.0
C218 C 0.0089 0.34187 0.20507 0.0
C219 C 0.03958 0.36253 0.23756 0.0
C220 C 0.67403 0.00996 0.53825 0.0
C221 C 0.6829 0.04024 0.57084 0.0
C222 C 0.65788 0.97672 0.49862 0.0
C223 C 0.63715 0.94596 0.46613 0.0
C224 C 0.6478 0.65529 0.87358 0.0
C225 C 0.6288 0.66784 0.90583 0.0
C226 C 0.66303 0.63697 0.83412 0.0
C227 C 0.67204 0.61552 0.80163 0.0
C228 C -0.00844 0.65212 0.16555 0.0
C229 C 0.02286 0.66453 0.13317 0.0
C230 C 0.95819 0.63436 0.20508 0.0
C231 C 0.92751 0.6137 0.23758 0.0
C232 C 0.30918 -0.0005 0.49862 0.0
C233 C 0.32992 0.03027 0.46613 0.0
C234 C 0.29303 0.96626 0.53825 0.0
C235 C 0.28416 0.93599 0.57085 0.0
C236 C 0.31927 0.32092 0.87356 0.0
C237 C 0.33827 0.30837 0.90582 0.0
C238 C 0.30404 0.33924 0.8341 0.0
C239 C 0.29503 0.36068 0.80161 0.0
C240 C 0.20813 0.45576 0.49757 0.0
C241 C 0.20156 0.46114 0.45956 0.0
C242 C 0.22432 0.45614 0.54141 0.0
C243 C 0.23703 0.46231 0.57931 0.0
C244 C 0.7699 0.22354 0.87436 0.0
C245 C 0.77675 0.2351 0.91242 0.0
C246 C 0.75321 0.20759 0.83058 0.0
C247 C 0.73971 0.20062 0.79281 0.0
C248 C 0.54149 0.77383 0.20746 0.0
C249 C 0.53546 0.78104 0.24526 0.0
C250 C 0.54185 0.7575 0.16373 0.0
C251 C 0.53685 0.74543 0.12574 0.0
C252 C 0.75895 0.52047 0.4976 0.0
C253 C 0.76553 0.51509 0.45959 0.0
C254 C 0.74275 0.52008 0.54143 0.0
C255 C 0.73004 0.51391 0.57933 0.0
C256 C 0.19717 0.75267 0.87436 0.0
C257 C 0.19032 0.7411 0.91243 0.0
C258 C 0.21385 0.76862 0.83059 0.0
C259 C 0.22735 0.77559 0.79282 0.0
C260 C 0.42559 0.20239 0.20744 0.0
C261 C 0.43162 0.19518 0.24525 0.0
C262 C 0.42523 0.21871 0.16371 0.0
C263 C 0.43023 0.23078 0.12572 0.0
loop_
_geom_bond_atom_site_label_1
_geom_bond_atom_site_label_2
_geom_bond_distance
_geom_bond_site_symmetry_2
_ccdc_geom_bond_type
Co0 O1 2.216 . S
Co0 O2 2.091 . S
Co0 O4 2.004 . S
Co0 O10 2.021 . S
Co0 O12 2.137 . S
Co0 O13 2.244 . S
O1 Co0 2.216 . S
O1 C8 1.247 . S
O2 Co0 2.091 . S
O2 C8 1.261 . S
C3 O12 1.247 . S
C3 O13 1.272 . S
O4 Co0 2.004 . S
O4 C9 1.259 . S
Co5 O6 2.061 . S
Co5 O11 2.052 . S
Co5 O13 2.135 . S
O6 Co5 2.061 . S
O6 C9 1.235 . S
C7 O10 1.238 . S
C7 O11 1.241 . S
C8 O1 1.247 . S
C8 O2 1.261 . S
C9 O4 1.259 . S
C9 O6 1.235 . S
O10 Co0 2.021 . S
O10 C7 1.238 . S
O11 Co5 2.052 . S
O11 C7 1.241 . S
O12 Co0 2.137 . S
O12 C3 1.247 . S
O13 Co0 2.244 . S
O13 C3 1.272 . S
O13 Co5 2.135 . S
Co14 O15 2.216 . S
Co14 O16 2.091 . S
Co14 O18 2.004 . S
Co14 O24 2.021 . S
Co14 O26 2.137 . S
Co14 O27 2.244 . S
O15 Co14 2.216 . S
O15 C22 1.247 . S
O16 Co14 2.091 . S
O16 C22 1.261 . S
C17 O26 1.247 . S
C17 O27 1.272 . S
O18 Co14 2.004 . S
O18 C23 1.259 . S
Co19 O20 2.061 . S
Co19 O25 2.052 . S
Co19 O27 2.135 . S
O20 Co19 2.061 . S
O20 C23 1.235 . S
C21 O24 1.238 . S
C21 O25 1.241 . S
C22 O15 1.247 . S
C22 O16 1.261 . S
C23 O18 1.259 . S
C23 O20 1.235 . S
O24 Co14 2.021 . S
O24 C21 1.238 . S
O25 Co19 2.052 . S
O25 C21 1.241 . S
O26 Co14 2.137 . S
O26 C17 1.247 . S
O27 Co14 2.244 . S
O27 C17 1.272 . S
O27 Co19 2.135 . S
Co28 O29 2.216 . S
Co28 O30 2.091 . S
Co28 O32 2.004 1_556 S
Co28 O38 2.021 . S
Co28 O40 2.137 . S
Co28 O41 2.244 . S
O29 Co28 2.216 . S
O29 C36 1.247 . S
O30 Co28 2.091 . S
O30 C36 1.261 . S
C31 O40 1.247 . S
C31 O41 1.271 . S
O32 Co28 2.004 1_554 S
O32 C37 1.259 . S
Co33 O34 2.061 . S
Co33 O39 2.052 . S
Co33 O41 2.137 1_554 S
O34 Co33 2.061 . S
O34 C37 1.235 . S
C35 O38 1.238 . S
C35 O39 1.241 1_556 S
C36 O29 1.247 . S
C36 O30 1.261 . S
C37 O32 1.259 . S
C37 O34 1.235 . S
O38 Co28 2.021 . S
O38 C35 1.238 . S
O39 Co33 2.052 . S
O39 C35 1.241 1_554 S
O40 Co28 2.137 . S
O40 C31 1.247 . S
O41 Co28 2.244 . S
O41 C31 1.271 . S
O41 Co33 2.137 1_556 S
Co42 O43 2.216 . S
Co42 O44 2.091 . S
Co42 O46 2.004 . S
Co42 O52 2.021 . S
Co42 O54 2.137 . S
Co42 O55 2.244 . S
O43 Co42 2.216 . S
O43 C50 1.247 . S
O44 Co42 2.091 . S
O44 C50 1.261 . S
C45 O54 1.247 . S
C45 O55 1.272 . S
O46 Co42 2.004 . S
O46 C51 1.259 . S
Co47 O48 2.061 . S
Co47 O53 2.052 . S
Co47 O55 2.135 . S
O48 Co47 2.061 . S
O48 C51 1.235 . S
C49 O52 1.238 . S
C49 O53 1.241 . S
C50 O43 1.247 . S
C50 O44 1.261 . S
C51 O46 1.259 . S
C51 O48 1.235 . S
O52 Co42 2.021 . S
O52 C49 1.238 . S
O53 Co47 2.052 . S
O53 C49 1.241 . S
O54 Co42 2.137 . S
O54 C45 1.247 . S
O55 Co42 2.244 . S
O55 C45 1.272 . S
O55 Co47 2.135 . S
Co56 O57 2.216 . S
Co56 O58 2.091 . S
Co56 O60 2.004 . S
Co56 O66 2.021 . S
Co56 O68 2.137 . S
Co56 O69 2.244 . S
O57 Co56 2.216 . S
O57 C64 1.247 . S
O58 Co56 2.091 . S
O58 C64 1.261 . S
C59 O68 1.247 . S
C59 O69 1.272 . S
O60 Co56 2.004 . S
O60 C65 1.259 . S
Co61 O62 2.061 . S
Co61 O67 2.052 . S
Co61 O69 2.135 . S
O62 Co61 2.061 . S
O62 C65 1.235 . S
C63 O66 1.238 . S
C63 O67 1.241 . S
C64 O57 1.247 . S
C64 O58 1.261 . S
C65 O60 1.259 . S
C65 O62 1.235 . S
O66 Co56 2.021 . S
O66 C63 1.238 . S
O67 Co61 2.052 . S
O67 C63 1.241 . S
O68 Co56 2.137 . S
O68 C59 1.247 . S
O69 Co56 2.244 . S
O69 C59 1.272 . S
O69 Co61 2.135 . S
Co70 O71 2.216 . S
Co70 O72 2.091 . S
Co70 O74 2.004 1_556 S
Co70 O80 2.021 . S
Co70 O82 2.137 . S
Co70 O83 2.244 . S
O71 Co70 2.216 . S
O71 C78 1.247 . S
O72 Co70 2.091 . S
O72 C78 1.261 . S
C73 O82 1.247 . S
C73 O83 1.271 . S
O74 Co70 2.004 1_554 S
O74 C79 1.259 . S
Co75 O76 2.061 . S
Co75 O81 2.052 . S
Co75 O83 2.137 1_554 S
O76 Co75 2.061 . S
O76 C79 1.235 . S
C77 O80 1.238 . S
C77 O81 1.241 1_556 S
C78 O71 1.247 . S
C78 O72 1.261 . S
C79 O74 1.259 . S
C79 O76 1.235 . S
O80 Co70 2.021 . S
O80 C77 1.238 . S
O81 Co75 2.052 . S
O81 C77 1.241 1_554 S
O82 Co70 2.137 . S
O82 C73 1.247 . S
O83 Co70 2.244 . S
O83 C73 1.271 . S
O83 Co75 2.137 1_556 S
Co84 O85 2.216 . S
Co84 O86 2.091 . S
Co84 O88 2.004 . S
Co84 O94 2.021 . S
Co84 O96 2.137 . S
Co84 O97 2.244 . S
O85 Co84 2.216 . S
O85 C92 1.247 . S
O86 Co84 2.091 . S
O86 C92 1.261 . S
C87 O96 1.247 . S
C87 O97 1.272 . S
O88 Co84 2.004 . S
O88 C93 1.259 . S
Co89 O90 2.061 . S
Co89 O95 2.052 . S
Co89 O97 2.135 . S
O90 Co89 2.061 . S
O90 C93 1.235 . S
C91 O94 1.238 . S
C91 O95 1.241 . S
C92 O85 1.247 . S
C92 O86 1.261 . S
C93 O88 1.259 . S
C93 O90 1.235 . S
O94 Co84 2.021 . S
O94 C91 1.238 . S
O95 Co89 2.052 . S
O95 C91 1.241 . S
O96 Co84 2.137 . S
O96 C87 1.247 . S
O97 Co84 2.244 . S
O97 C87 1.272 . S
O97 Co89 2.135 . S
Co98 O99 2.216 . S
Co98 O100 2.091 . S
Co98 O102 2.004 . S
Co98 O108 2.021 . S
Co98 O110 2.137 . S
Co98 O111 2.244 . S
O99 Co98 2.216 . S
O99 C106 1.247 . S
O100 Co98 2.091 . S
O100 C106 1.261 . S
C101 O110 1.247 . S
C101 O111 1.272 . S
O102 Co98 2.004 . S
O102 C107 1.259 . S
Co103 O104 2.061 . S
Co103 O109 2.052 . S
Co103 O111 2.135 . S
O104 Co103 2.061 . S
O104 C107 1.235 . S
C105 O108 1.238 . S
C105 O109 1.241 . S
C106 O99 1.247 . S
C106 O100 1.261 . S
C107 O102 1.259 . S
C107 O104 1.235 . S
O108 Co98 2.021 . S
O108 C105 1.238 . S
O109 Co103 2.052 . S
O109 C105 1.241 . S
O110 Co98 2.137 . S
O110 C101 1.247 . S
O111 Co98 2.244 . S
O111 C101 1.272 . S
O111 Co103 2.135 . S
Co112 O113 2.216 . S
Co112 O114 2.091 . S
Co112 O116 2.004 1_554 S
Co112 O122 2.021 . S
Co112 O124 2.137 . S
Co112 O125 2.244 . S
O113 Co112 2.216 . S
O113 C120 1.247 . S
O114 Co112 2.091 . S
O114 C120 1.261 . S
C115 O124 1.247 . S
C115 O125 1.271 . S
O116 Co112 2.004 1_556 S
O116 C121 1.259 . S
Co117 O118 2.061 . S
Co117 O123 2.052 . S
Co117 O125 2.137 1_556 S
O118 Co117 2.061 . S
O118 C121 1.235 . S
C119 O122 1.238 . S
C119 O123 1.241 1_554 S
C120 O113 1.247 . S
C120 O114 1.261 . S
C121 O116 1.259 . S
C121 O118 1.235 . S
O122 Co112 2.021 . S
O122 C119 1.238 . S
O123 Co117 2.052 . S
O123 C119 1.241 1_556 S
O124 Co112 2.137 . S
O124 C115 1.247 . S
O125 Co112 2.244 . S
O125 C115 1.271 . S
O125 Co117 2.137 1_554 S
Co126 O127 2.216 . S
Co126 O128 2.091 . S
Co126 O130 2.004 . S
Co126 O136 2.021 . S
Co126 O138 2.137 . S
Co126 O139 2.244 . S
O127 Co126 2.216 . S
O127 C134 1.247 . S
O128 Co126 2.091 . S
O128 C134 1.261 . S
C129 O138 1.247 . S
C129 O139 1.272 . S
O130 Co126 2.004 . S
O130 C135 1.259 . S
Co131 O132 2.061 . S
Co131 O137 2.052 . S
Co131 O139 2.135 . S
O132 Co131 2.061 . S
O132 C135 1.235 . S
C133 O136 1.238 . S
C133 O137 1.241 . S
C134 O127 1.247 . S
C134 O128 1.261 . S
C135 O130 1.259 . S
C135 O132 1.235 . S
O136 Co126 2.021 . S
O136 C133 1.238 . S
O137 Co131 2.052 . S
O137 C133 1.241 . S
O138 Co126 2.137 . S
O138 C129 1.247 . S
O139 Co126 2.244 . S
O139 C129 1.272 . S
O139 Co131 2.135 . S
Co140 O141 2.216 . S
Co140 O142 2.091 . S
Co140 O144 2.004 . S
Co140 O150 2.021 . S
Co140 O152 2.137 . S
Co140 O153 2.244 . S
O141 Co140 2.216 . S
O141 C148 1.247 . S
O142 Co140 2.091 . S
O142 C148 1.261 . S
C143 O152 1.247 . S
C143 O153 1.272 . S
O144 Co140 2.004 . S
O144 C149 1.259 . S
Co145 O146 2.061 . S
Co145 O151 2.052 . S
Co145 O153 2.135 . S
O146 Co145 2.061 . S
O146 C149 1.235 . S
C147 O150 1.238 . S
C147 O151 1.241 . S
C148 O141 1.247 . S
C148 O142 1.261 . S
C149 O144 1.259 . S
C149 O146 1.235 . S
O150 Co140 2.021 . S
O150 C147 1.238 . S
O151 Co145 2.052 . S
O151 C147 1.241 . S
O152 Co140 2.137 . S
O152 C143 1.247 . S
O153 Co140 2.244 . S
O153 C143 1.272 . S
O153 Co145 2.135 . S
Co154 O155 2.216 . S
Co154 O156 2.091 . S
Co154 O158 2.004 1_554 S
Co154 O164 2.021 . S
Co154 O166 2.137 . S
Co154 O167 2.244 . S
O155 Co154 2.216 . S
O155 C162 1.247 . S
O156 Co154 2.091 . S
O156 C162 1.261 . S
C157 O166 1.247 . S
C157 O167 1.271 . S
O158 Co154 2.004 1_556 S
O158 C163 1.259 . S
Co159 O160 2.061 . S
Co159 O165 2.052 . S
Co159 O167 2.137 1_556 S
O160 Co159 2.061 . S
O160 C163 1.235 . S
C161 O164 1.238 . S
C161 O165 1.241 1_554 S
C162 O155 1.247 . S
C162 O156 1.261 . S
C163 O158 1.259 . S
C163 O160 1.235 . S
O164 Co154 2.021 . S
O164 C161 1.238 . S
O165 Co159 2.052 . S
O165 C161 1.241 1_556 S
O166 Co154 2.137 . S
O166 C157 1.247 . S
O167 Co154 2.244 . S
O167 C157 1.271 . S
O167 Co159 2.137 1_554 S
C168 C169 1.170 . S
C168 C170 1.380 . S
C169 C168 1.170 . S
C170 C168 1.380 . S
C170 C171 1.170 . S
C171 C170 1.170 . S
C172 C173 1.170 . S
C172 C174 1.380 . S
C173 C172 1.170 . S
C174 C172 1.380 . S
C174 C175 1.170 . S
C175 C174 1.170 . S
C176 C177 1.170 . S
C176 C178 1.380 . S
C177 C176 1.170 . S
C178 C176 1.380 . S
C178 C179 1.170 1_556 S
C179 C178 1.170 1_554 S
C180 C181 1.170 . S
C180 C182 1.380 . S
C181 C180 1.170 . S
C182 C180 1.380 . S
C182 C183 1.170 . S
C183 C182 1.170 . S
C184 C185 1.170 . S
C184 C186 1.380 . S
C185 C184 1.170 . S
C186 C184 1.380 . S
C186 C187 1.170 . S
C187 C186 1.170 . S
C188 C189 1.170 1_556 S
C188 C190 1.380 . S
C189 C188 1.170 1_554 S
C190 C188 1.380 . S
C190 C191 1.170 . S
C191 C190 1.170 . S
C192 C193 1.170 . S
C192 C194 1.380 . S
C193 C192 1.170 . S
C194 C192 1.380 . S
C194 C195 1.170 . S
C195 C194 1.170 . S
C196 C197 1.170 . S
C196 C198 1.380 1_655 S
C197 C196 1.170 . S
C198 C196 1.380 1_455 S
C198 C199 1.170 . S
C199 C198 1.170 . S
C200 C201 1.170 . S
C200 C202 1.379 1_544 S
C201 C200 1.170 . S
C202 C200 1.379 1_566 S
C202 C203 1.172 . S
C203 C202 1.172 . S
C204 C205 1.170 . S
C204 C206 1.380 . S
C205 C204 1.170 . S
C206 C204 1.380 . S
C206 C207 1.170 . S
C207 C206 1.170 . S
C208 C209 1.170 . S
C208 C210 1.380 1_455 S
C209 C208 1.170 . S
C210 C208 1.380 1_655 S
C210 C211 1.170 . S
C211 C210 1.170 . S
C212 C213 1.170 1_554 S
C212 C214 1.380 1_545 S
C213 C212 1.170 1_556 S
C214 C212 1.380 1_565 S
C214 C215 1.170 . S
C215 C214 1.170 . S
C216 C217 1.170 . S
C216 C218 1.380 1_655 S
C217 C216 1.170 . S
C218 C216 1.380 1_455 S
C218 C219 1.170 . S
C219 C218 1.170 . S
C220 C221 1.170 . S
C220 C222 1.380 1_545 S
C221 C220 1.170 . S
C222 C220 1.380 1_565 S
C222 C223 1.170 . S
C223 C222 1.170 . S
C224 C225 1.170 . S
C224 C226 1.380 . S
C225 C224 1.170 . S
C226 C224 1.380 . S
C226 C227 1.170 . S
C227 C226 1.170 . S
C228 C229 1.170 . S
C228 C230 1.380 1_455 S
C229 C228 1.170 . S
C230 C228 1.380 1_655 S
C230 C231 1.170 . S
C231 C230 1.170 . S
C232 C233 1.170 . S
C232 C234 1.380 1_545 S
C233 C232 1.170 . S
C234 C232 1.380 1_565 S
C234 C235 1.170 . S
C235 C234 1.170 . S
C236 C237 1.170 . S
C236 C238 1.380 . S
C237 C236 1.170 . S
C238 C236 1.380 . S
C238 C239 1.170 . S
C239 C238 1.170 . S
C240 C241 1.170 . S
C240 C242 1.380 . S
C241 C240 1.170 . S
C242 C240 1.380 . S
C242 C243 1.170 . S
C243 C242 1.170 . S
C244 C245 1.170 . S
C244 C246 1.380 . S
C245 C244 1.170 . S
C246 C244 1.380 . S
C246 C247 1.170 . S
C247 C246 1.170 . S
C248 C249 1.170 . S
C248 C250 1.380 . S
C249 C248 1.170 . S
C250 C248 1.380 . S
C250 C251 1.170 . S
C251 C250 1.170 . S
C252 C253 1.170 . S
C252 C254 1.380 . S
C253 C252 1.170 . S
C254 C252 1.380 . S
C254 C255 1.170 . S
C255 C254 1.170 . S
C256 C257 1.170 . S
C256 C258 1.380 . S
C257 C256 1.170 . S
C258 C256 1.380 . S
C258 C259 1.170 . S
C259 C258 1.170 . S
C260 C261 1.170 . S
C260 C262 1.380 . S
C261 C260 1.170 . S
C262 C260 1.380 . S
C262 C263 1.170 . S
C263 C262 1.170 . S
C169 C3 1.602 . S
C171 C87 1.603 . S
C173 C17 1.615 . S
C175 C101 1.616 . S
C177 C31 1.556 . S
C179 C115 1.539 . S
C181 C129 1.607 . S
C183 C45 1.612 . S
C185 C59 1.610 . S
C187 C143 1.597 . S
C189 C157 1.537 . S
C191 C73 1.554 . S
C193 C7 1.156 . S
C195 C133 1.146 . S
C197 C21 1.178 . S
C199 C147 1.164 . S
C201 C161 1.143 . S
C203 C35 1.123 . S
C205 C91 1.182 . S
C207 C49 1.177 . S
C209 C63 1.130 . S
C211 C105 1.116 . S
C213 C77 1.085 . S
C215 C119 1.107 . S
C217 C162 1.729 . S
C219 C8 1.694 . S
C221 C22 1.840 . S
C223 C92 1.863 . S
C225 C36 1.728 . S
C227 C106 1.694 . S
C229 C120 1.729 . S
C231 C50 1.695 . S
C233 C134 1.844 . S
C235 C64 1.857 . S
C237 C78 1.728 . S
C239 C148 1.694 . S
C241 C9 1.157 . S
C243 C149 1.163 . S
C245 C163 1.258 . S
C247 C23 1.235 . S
C249 C93 1.268 . S
C251 C37 1.226 . S
C253 C51 1.177 . S
C255 C107 1.117 . S
C257 C121 1.218 . S
C259 C65 1.291 . S
C261 C135 1.285 . S
C263 C79 1.212 . S
