# Generated by pormake.
# Topology mok, (4)-cn, num edge types: 1
# Building blocks:
#     Node 0, Type 0, BuildingBlock: KUFVIS_clean_sbu_0, # of connection points: 4
#     Node 1, Type 0, BuildingBlock: KUFVIS_clean_sbu_0, # of connection points: 4
#     Node 2, Type 0, BuildingBlock: KUFVIS_clean_sbu_0, # of connection points: 4
#     Node 3, Type 0, BuildingBlock: KUFVIS_clean_sbu_0, # of connection points: 4
#     Node 4, Type 0, BuildingBlock: KUFVIS_clean_sbu_0, # of connection points: 4
#     Node 5, Type 0, BuildingBlock: KUFVIS_clean_sbu_0, # of connection points: 4
#     Node 6, Type 0, BuildingBlock: KUFVIS_clean_sbu_0, # of connection points: 4
#     Node 7, Type 0, BuildingBlock: KUFVIS_clean_sbu_0, # of connection points: 4
#     Edge 8, Type (0, 0), BuildingBlock: FUNLAD_clean_linker_0, # of connection points: 2
#     Edge 9, Type (0, 0), BuildingBlock: FUNLAD_clean_linker_0, # of connection points: 2
#     Edge 10, Type (0, 0), BuildingBlock: FUNLAD_clean_linker_0, # of connection points: 2
#     Edge 11, Type (0, 0), BuildingBlock: FUNLAD_clean_linker_0, # of connection points: 2
#     Edge 12, Type (0, 0), BuildingBlock: FUNLAD_clean_linker_0, # of connection points: 2
#     Edge 13, Type (0, 0), BuildingBlock: FUNLAD_clean_linker_0, # of connection points: 2
#     Edge 14, Type (0, 0), BuildingBlock: FUNLAD_clean_linker_0, # of connection points: 2
#     Edge 15, Type (0, 0), BuildingBlock: FUNLAD_clean_linker_0, # of connection points: 2
#     Edge 16, Type (0, 0), BuildingBlock: FUNLAD_clean_linker_0, # of connection points: 2
#     Edge 17, Type (0, 0), BuildingBlock: FUNLAD_clean_linker_0, # of connection points: 2
#     Edge 18, Type (0, 0), BuildingBlock: FUNLAD_clean_linker_0, # of connection points: 2
#     Edge 19, Type (0, 0), BuildingBlock: FUNLAD_clean_linker_0, # of connection points: 2
#     Edge 20, Type (0, 0), BuildingBlock: FUNLAD_clean_linker_0, # of connection points: 2
#     Edge 21, Type (0, 0), BuildingBlock: FUNLAD_clean_linker_0, # of connection points: 2
#     Edge 22, Type (0, 0), BuildingBlock: FUNLAD_clean_linker_0, # of connection points: 2
#     Edge 23, Type (0, 0), BuildingBlock: FUNLAD_clean_linker_0, # of connection points: 2
# Relax obj value: 0.032
# Max RMSD: 0.055
# Mean RMSD: 0.055
data_MOF--net-mok--node1-KUFVIS_clean_sbu_0--edge1-FUNLAD_clean_linker_0
_symmetry_space_group_name_H-M    P1
_symmetry_Int_Tables_number       1
_symmetry_cell_setting            triclinic
loop_
_symmetry_equiv_pos_as_xyz
'x, y, z'
_cell_length_a     61.574392
_cell_length_b     19.17177
_cell_length_c     30.91783
_cell_angle_alpha  89.954185
_cell_angle_beta   90.028555
_cell_angle_gamma 89.859819
loop_
_atom_site_label
_atom_site_type_symbol
_atom_site_fract_x
_atom_site_fract_y
_atom_site_fract_z
_atom_type_partial_charge
Mn0 Mn 0.6209 0.29103 0.00284 0.0
Mn1 Mn 0.57698 0.39598 0.99344 0.0
C2 C 0.61171 0.3383 0.93644 0.0
C3 C 0.65776 0.27409 0.01752 0.0
C4 C 0.57407 0.23872 0.00405 0.0
O5 O 0.61467 0.32001 0.06503 0.0
O6 O 0.58767 0.39794 0.05402 0.0
C7 C 0.59754 0.53296 0.0097 0.0
N8 N 0.58573 0.49027 0.98358 0.0
C9 C 0.58167 0.58082 0.93019 0.0
C10 C 0.59365 0.6259 0.95668 0.0
C11 C 0.60167 0.60178 0.99654 0.0
C12 C 0.578 0.51286 0.94508 0.0
H13 H 0.6038 0.51458 0.0403 0.0
C14 C 0.60145 0.36673 0.07847 0.0
O15 O 0.64376 0.22407 0.02177 0.0
O16 O 0.65028 0.33445 0.0055 0.0
N17 N 0.56542 0.39946 0.93595 0.0
C18 C 0.55525 0.34825 0.91311 0.0
C19 C 0.54685 0.36324 0.87189 0.0
C20 C 0.54887 0.43073 0.85467 0.0
C21 C 0.55926 0.48269 0.87888 0.0
C22 C 0.56718 0.46483 0.91991 0.0
H23 H 0.55361 0.29629 0.92617 0.0
O24 O 0.62375 0.28267 0.93841 0.0
O25 O 0.60545 0.364 0.97315 0.0
O26 O 0.59444 0.227 0.00286 0.0
O27 O 0.56593 0.30003 0.00243 0.0
C28 C 0.5624 0.55119 0.8636 0.0
C29 C 0.57362 0.60018 0.88921 0.0
H30 H 0.59698 0.67891 0.94655 0.0
H31 H 0.61104 0.63615 0.01705 0.0
H32 H 0.53887 0.32283 0.85339 0.0
H33 H 0.54252 0.44194 0.82273 0.0
H34 H 0.55653 0.56643 0.83193 0.0
H35 H 0.57622 0.65236 0.87683 0.0
Mn36 Mn 0.39441 0.69334 0.00247 0.0
Mn37 Mn 0.44023 0.59783 0.99176 0.0
C38 C 0.40523 0.65384 0.93517 0.0
C39 C 0.35706 0.69917 0.01544 0.0
C40 C 0.44003 0.75414 0.00861 0.0
O41 O 0.40051 0.65944 0.06381 0.0
O42 O 0.42861 0.58632 0.05106 0.0
C43 C 0.42211 0.4555 0.00022 0.0
N44 N 0.43349 0.50349 0.97701 0.0
C45 C 0.44011 0.42073 0.91998 0.0
C46 C 0.42864 0.37025 0.94348 0.0
C47 C 0.41954 0.38781 0.9837 0.0
C48 C 0.4422 0.48727 0.93815 0.0
H49 H 0.41498 0.46884 0.03101 0.0
C50 C 0.41404 0.61253 0.07584 0.0
O51 O 0.3696 0.75244 0.02225 0.0
O52 O 0.3663 0.64238 0.0019 0.0
N53 N 0.45262 0.60379 0.93505 0.0
C54 C 0.46198 0.65964 0.91521 0.0
C55 C 0.4712 0.65149 0.87398 0.0
C56 C 0.47081 0.58601 0.85366 0.0
C57 C 0.46118 0.52921 0.87477 0.0
C58 C 0.45237 0.54035 0.91596 0.0
H59 H 0.46239 0.71008 0.93067 0.0
O60 O 0.39208 0.7067 0.93814 0.0
O61 O 0.41161 0.62689 0.97137 0.0
O62 O 0.41952 0.76289 0.00607 0.0
O63 O 0.44914 0.69435 0.00579 0.0
C64 C 0.45965 0.46229 0.85624 0.0
C65 C 0.44909 0.40811 0.8788 0.0
H66 H 0.42651 0.3181 0.93074 0.0
H67 H 0.41052 0.34928 0.00187 0.0
H68 H 0.47857 0.69561 0.85788 0.0
H69 H 0.4778 0.58006 0.82173 0.0
H70 H 0.46624 0.45219 0.82436 0.0
H71 H 0.4477 0.3572 0.8639 0.0
Mn72 Mn 0.61914 0.7003 0.52078 0.0
Mn73 Mn 0.57731 0.58772 0.53103 0.0
C74 C 0.61057 0.65372 0.58776 0.0
C75 C 0.65611 0.71941 0.50674 0.0
C76 C 0.57129 0.74417 0.51875 0.0
O77 O 0.61358 0.66871 0.45881 0.0
O78 O 0.58812 0.58636 0.47058 0.0
C79 C 0.60069 0.4547 0.51626 0.0
N80 N 0.58792 0.49556 0.54183 0.0
C81 C 0.58549 0.40553 0.5959 0.0
C82 C 0.59847 0.3623 0.56999 0.0
C83 C 0.60615 0.38709 0.53006 0.0
C84 C 0.58053 0.47235 0.5804 0.0
H85 H 0.60668 0.47362 0.48561 0.0
C86 C 0.60126 0.61939 0.44582 0.0
O87 O 0.64177 0.76858 0.50155 0.0
O88 O 0.64889 0.65924 0.51923 0.0
N89 N 0.56565 0.5833 0.58839 0.0
C90 C 0.55432 0.63285 0.61057 0.0
C91 C 0.54602 0.61705 0.65172 0.0
C92 C 0.54932 0.55044 0.66953 0.0
C93 C 0.56089 0.50015 0.64598 0.0
C94 C 0.56865 0.51872 0.60498 0.0
H95 H 0.55168 0.68409 0.59705 0.0
O96 O 0.62169 0.71101 0.58522 0.0
O97 O 0.60486 0.62607 0.55129 0.0
O98 O 0.5914 0.76057 0.51957 0.0
O99 O 0.56461 0.68121 0.52118 0.0
C100 C 0.56533 0.4327 0.66186 0.0
C101 C 0.57766 0.38547 0.63688 0.0
H102 H 0.60282 0.31025 0.5806 0.0
H103 H 0.61629 0.35418 0.51 0.0
H104 H 0.53712 0.65617 0.66971 0.0
H105 H 0.54304 0.53864 0.70142 0.0
H106 H 0.55962 0.41697 0.69353 0.0
H107 H 0.58125 0.33414 0.64973 0.0
Mn108 Mn 0.39626 0.30196 0.51975 0.0
Mn109 Mn 0.44057 0.40345 0.53165 0.0
C110 C 0.40674 0.33985 0.58772 0.0
C111 C 0.35871 0.29533 0.50702 0.0
C112 C 0.44277 0.2479 0.5118 0.0
O113 O 0.40181 0.33899 0.45893 0.0
O114 O 0.4284 0.41677 0.47291 0.0
C115 C 0.42026 0.54344 0.52686 0.0
N116 N 0.43249 0.49576 0.54872 0.0
C117 C 0.43827 0.576 0.60743 0.0
C118 C 0.4259 0.62616 0.58535 0.0
C119 C 0.4168 0.6097 0.54497 0.0
C120 C 0.44122 0.51091 0.58773 0.0
H121 H 0.41313 0.53091 0.49594 0.0
C122 C 0.41433 0.389 0.44771 0.0
O123 O 0.37144 0.24257 0.49929 0.0
O124 O 0.36785 0.35144 0.52142 0.0
N125 N 0.4534 0.3959 0.58793 0.0
C126 C 0.46374 0.34031 0.60626 0.0
C127 C 0.47312 0.34736 0.64744 0.0
C128 C 0.47189 0.41149 0.66924 0.0
C129 C 0.46127 0.46805 0.64966 0.0
C130 C 0.45233 0.45806 0.60847 0.0
H131 H 0.46482 0.29094 0.58965 0.0
O132 O 0.3942 0.28582 0.58397 0.0
O133 O 0.41269 0.36874 0.55188 0.0
O134 O 0.42244 0.23519 0.51485 0.0
O135 O 0.45072 0.30921 0.51525 0.0
C136 C 0.45887 0.53357 0.66974 0.0
C137 C 0.44735 0.58748 0.64866 0.0
H138 H 0.42309 0.67719 0.5993 0.0
H139 H 0.4071 0.64796 0.52787 0.0
H140 H 0.48128 0.30343 0.66235 0.0
H141 H 0.47902 0.41657 0.70112 0.0
H142 H 0.46553 0.54273 0.70166 0.0
H143 H 0.44531 0.63724 0.66473 0.0
Mn144 Mn 0.12049 0.80293 -0.00146 0.0
Mn145 Mn 0.07482 0.90027 0.99256 0.0
C146 C 0.10946 0.8492 0.933 0.0
C147 C 0.15782 0.79492 0.01123 0.0
C148 C 0.07475 0.74242 0.00276 0.0
O149 O 0.11463 0.82958 0.06122 0.0
O150 O 0.08655 0.90421 0.05234 0.0
C151 C 0.09326 0.04073 0.00744 0.0
N152 N 0.08176 0.99594 0.98212 0.0
C153 C 0.07538 0.08539 0.92891 0.0
C154 C 0.087 0.13261 0.9546 0.0
C155 C 0.09603 0.11011 0.99397 0.0
C156 C 0.07306 0.01699 0.94411 0.0
H157 H 0.10031 0.02359 0.03762 0.0
C158 C 0.10109 0.87446 0.07572 0.0
O159 O 0.14518 0.74128 0.0158 0.0
O160 O 0.14872 0.8532 -0.00015 0.0
N161 N 0.06223 0.90153 0.9359 0.0
C162 C 0.05263 0.8485 0.91373 0.0
C163 C 0.0434 0.86178 0.87299 0.0
C164 C 0.04404 0.92943 0.85556 0.0
C165 C 0.05389 0.98325 0.87909 0.0
C166 C 0.06267 0.96703 0.91967 0.0
H167 H 0.05206 0.7964 0.92693 0.0
O168 O 0.12257 0.79607 0.93392 0.0
O169 O 0.10331 0.87308 0.97023 0.0
O170 O 0.09524 0.73368 -0.00033 0.0
O171 O 0.06572 0.80251 0.00231 0.0
C172 C 0.05567 0.0521 0.86352 0.0
C173 C 0.06642 0.10311 0.88839 0.0
H174 H 0.08929 0.18607 0.9442 0.0
H175 H 0.10514 0.14614 0.01383 0.0
H176 H 0.03585 0.81993 0.85501 0.0
H177 H 0.03705 0.93933 0.82398 0.0
H178 H 0.04909 0.06612 0.83218 0.0
H179 H 0.06797 0.15559 0.87579 0.0
Mn180 Mn 0.89526 0.19787 0.00319 0.0
Mn181 Mn 0.93955 0.09716 0.98568 0.0
C182 C 0.90367 0.16117 0.93404 0.0
C183 C 0.85851 0.21147 0.02002 0.0
C184 C 0.94203 0.25294 0.00169 0.0
O185 O 0.90238 0.16106 0.06334 0.0
O186 O 0.93097 0.09174 0.04769 0.0
C187 C 0.91959 0.95916 0.00158 0.0
N188 N 0.93057 0.00336 0.97498 0.0
C189 C 0.93251 0.91644 0.91896 0.0
C190 C 0.92133 0.86985 0.94587 0.0
C191 C 0.91481 0.89137 0.98732 0.0
C192 C 0.93689 0.98324 0.93499 0.0
H193 H 0.91446 0.97557 0.03339 0.0
C194 C 0.91714 0.11756 0.0743 0.0
O195 O 0.87241 0.26115 0.02651 0.0
O196 O 0.86606 0.15316 0.00483 0.0
N197 N 0.9495 0.09682 0.927 0.0
C198 C 0.95933 0.14899 0.90437 0.0
C199 C 0.96647 0.13639 0.86194 0.0
C200 C 0.96358 0.07024 0.84333 0.0
C201 C 0.95368 0.01714 0.86742 0.0
C202 C 0.94707 0.03257 0.9097 0.0
H203 H 0.96159 0.19995 0.91848 0.0
O204 O 0.8915 0.21571 0.9399 0.0
O205 O 0.9105 0.12975 0.96874 0.0
O206 O 0.9216 0.26282 0.00508 0.0
O207 O 0.95047 0.19294 0.99515 0.0
C208 C 0.94976 0.94988 0.85087 0.0
C209 C 0.93913 0.89962 0.87658 0.0
H210 H 0.91752 0.81763 0.93493 0.0
H211 H 0.90609 0.85581 0.0082 0.0
H212 H 0.97411 0.17764 0.84357 0.0
H213 H 0.96891 0.06093 0.81044 0.0
H214 H 0.95456 0.93658 0.81819 0.0
H215 H 0.93593 0.84842 0.86328 0.0
Mn216 Mn 0.1206 0.20655 0.51798 0.0
Mn217 Mn 0.07693 0.10128 0.52615 0.0
C218 C 0.11017 0.16308 0.58473 0.0
C219 C 0.15813 0.21618 0.50586 0.0
C220 C 0.0737 0.25829 0.51164 0.0
O221 O 0.11533 0.17505 0.45591 0.0
O222 O 0.08895 0.09538 0.46676 0.0
C223 C 0.09831 0.96386 0.51557 0.0
N224 N 0.08575 0.00801 0.53937 0.0
C225 C 0.08077 0.92119 0.59473 0.0
C226 C 0.09352 0.87462 0.57065 0.0
C227 C 0.10238 0.89614 0.53096 0.0
C228 C 0.07722 0.98795 0.57769 0.0
H229 H 0.10522 0.98028 0.48514 0.0
C230 C 0.10279 0.12655 0.44259 0.0
O231 O 0.14516 0.26891 0.49966 0.0
O232 O 0.14923 0.15854 0.51843 0.0
N233 N 0.06406 0.10158 0.58253 0.0
C234 C 0.05319 0.15406 0.60296 0.0
C235 C 0.04389 0.14175 0.64371 0.0
C236 C 0.04573 0.07558 0.66293 0.0
C237 C 0.05686 0.02225 0.64117 0.0
C238 C 0.06567 0.03744 0.60049 0.0
H239 H 0.05165 0.20497 0.58833 0.0
O240 O 0.12243 0.21793 0.58252 0.0
O241 O 0.10454 0.13601 0.54807 0.0
O242 O 0.09398 0.27204 0.51475 0.0
O243 O 0.06613 0.19631 0.51363 0.0
C244 C 0.05987 0.95497 0.65858 0.0
C245 C 0.07185 0.90451 0.63541 0.0
H246 H 0.09679 0.82246 0.58251 0.0
H247 H 0.11234 0.86063 0.51232 0.0
H248 H 0.03534 0.1832 0.66032 0.0
H249 H 0.03868 0.06646 0.69452 0.0
H250 H 0.05333 0.9418 0.69005 0.0
H251 H 0.07434 0.85333 0.64944 0.0
Mn252 Mn 0.89442 0.79697 0.52112 0.0
Mn253 Mn 0.93573 0.91042 0.53537 0.0
C254 C 0.90338 0.83463 0.5899 0.0
C255 C 0.85745 0.77773 0.50712 0.0
C256 C 0.94261 0.75599 0.51721 0.0
O257 O 0.89927 0.83613 0.46066 0.0
O258 O 0.925 0.91642 0.47471 0.0
C259 C 0.91126 0.04253 0.52504 0.0
N260 N 0.92437 1.00053 0.54925 0.0
C261 C 0.92563 0.08501 0.60675 0.0
C262 C 0.91226 0.12934 0.5823 0.0
C263 C 0.90501 0.10793 0.54132 0.0
C264 C 0.93139 0.02055 0.58877 0.0
H265 H 0.90559 0.02617 0.49359 0.0
C266 C 0.91171 0.88594 0.449 0.0
O267 O 0.87197 0.73005 0.49929 0.0
O268 O 0.86449 0.83648 0.52227 0.0
N269 N 0.94749 0.91078 0.59274 0.0
C270 C 0.95947 0.86061 0.61302 0.0
C271 C 0.96758 0.87323 0.65475 0.0
C272 C 0.96343 0.93739 0.67507 0.0
C273 C 0.95127 0.98851 0.65338 0.0
C274 C 0.94377 0.97322 0.61168 0.0
H275 H 0.96273 0.8112 0.5976 0.0
O276 O 0.89245 0.77746 0.58464 0.0
O277 O 0.90854 0.86805 0.55485 0.0
O278 O 0.92255 0.73869 0.51662 0.0
O279 O 0.949 0.8188 0.52255 0.0
C280 C 0.94599 0.05356 0.67181 0.0
C281 C 0.93313 0.1017 0.64855 0.0
H282 H 0.90731 0.17968 0.59483 0.0
H283 H 0.8946 0.14172 0.52236 0.0
H284 H 0.97696 0.83351 0.67127 0.0
H285 H 0.96953 0.94666 0.70743 0.0
H286 H 0.95145 0.06667 0.7041 0.0
H287 H 0.9289 0.15111 0.66332 0.0
C288 C 0.81991 0.17076 0.01518 0.0
C289 C 0.83494 0.22234 0.02709 0.0
C290 C 0.79756 0.18316 0.01853 0.0
C291 C 0.78971 0.24742 0.03433 0.0
C292 C 0.80482 0.29836 0.0469 0.0
C293 C 0.82715 0.28601 0.04342 0.0
C294 C 0.7661 0.26521 0.03561 0.0
C295 C 0.75002 0.2176 0.03384 0.0
C296 C 0.72643 0.23559 0.03214 0.0
C297 C 0.7112 0.18324 0.04142 0.0
C298 C 0.68892 0.19618 0.03762 0.0
C299 C 0.6813 0.26188 0.02423 0.0
H300 H 0.72981 0.34315 0.01042 0.0
C301 C 0.69646 0.31469 0.01543 0.0
C302 C 0.71877 0.30172 0.01913 0.0
H303 H 0.69112 0.36572 0.00469 0.0
H304 H 0.82538 0.12135 0.00211 0.0
H305 H 0.78666 0.14297 0.0073 0.0
H306 H 0.79933 0.34846 0.05894 0.0
H307 H 0.83828 0.32695 0.0528 0.0
H308 H 0.762 0.32003 0.0388 0.0
H309 H 0.75408 0.16253 0.03438 0.0
H310 H 0.71655 0.13171 0.05122 0.0
H311 H 0.67768 0.15427 0.04457 0.0
C312 C 0.19131 0.72705 0.03109 0.0
C313 C 0.18164 0.78976 0.01744 0.0
C314 C 0.21391 0.72176 0.03535 0.0
C315 C 0.22736 0.77908 0.02558 0.0
C316 C 0.21754 0.84213 0.01296 0.0
C317 C 0.19499 0.84744 0.00887 0.0
C318 C 0.25155 0.77596 0.02809 0.0
C319 C 0.26316 0.71612 0.028 0.0
C320 C 0.28738 0.71319 0.02697 0.0
C321 C 0.29742 0.65112 0.01335 0.0
C322 C 0.32002 0.64628 0.01034 0.0
C323 C 0.3332 0.70343 0.02107 0.0
H324 H 0.29373 0.81789 0.05114 0.0
C325 C 0.32328 0.765 0.0359 0.0
C326 C 0.30063 0.76982 0.03905 0.0
H327 H 0.333 0.80974 0.04485 0.0
H328 H 0.18144 0.68186 0.03839 0.0
H329 H 0.22059 0.67281 0.04657 0.0
H330 H 0.22738 0.88738 0.00559 0.0
H331 H 0.18806 0.89664 -0.00156 0.0
H332 H 0.26003 0.82546 0.02709 0.0
H333 H 0.25473 0.66668 0.02563 0.0
H334 H 0.28773 0.60638 0.00424 0.0
H335 H 0.32713 0.59793 -0.00105 0.0
C336 C 0.81872 0.81755 0.51196 0.0
C337 C 0.83385 0.76551 0.50082 0.0
C338 C 0.79638 0.8055 0.50839 0.0
C339 C 0.78854 0.74104 0.49316 0.0
C340 C 0.80372 0.6893 0.48167 0.0
C341 C 0.82609 0.70136 0.48534 0.0
C342 C 0.76484 0.72418 0.4913 0.0
C343 C 0.74879 0.77249 0.49206 0.0
C344 C 0.72507 0.75577 0.49339 0.0
C345 C 0.70996 0.80902 0.48431 0.0
C346 C 0.68758 0.7971 0.48775 0.0
C347 C 0.67973 0.73153 0.50055 0.0
H348 H 0.72799 0.64766 0.51434 0.0
C349 C 0.69476 0.67795 0.50917 0.0
C350 C 0.71713 0.68987 0.50584 0.0
H351 H 0.68929 0.6269 0.51943 0.0
H352 H 0.82411 0.86744 0.52433 0.0
H353 H 0.78546 0.84633 0.51887 0.0
H354 H 0.79825 0.63894 0.47016 0.0
H355 H 0.83729 0.66006 0.4766 0.0
H356 H 0.76065 0.66944 0.48861 0.0
H357 H 0.753 0.82737 0.49113 0.0
H358 H 0.7155 0.86046 0.47495 0.0
H359 H 0.67646 0.83958 0.48097 0.0
C360 C 0.19222 0.28339 0.48814 0.0
C361 C 0.18205 0.22074 0.50017 0.0
C362 C 0.21493 0.28699 0.4845 0.0
C363 C 0.22798 0.22789 0.4931 0.0
C364 C 0.21765 0.16516 0.50416 0.0
C365 C 0.19506 0.16161 0.50776 0.0
C366 C 0.25227 0.22841 0.49106 0.0
C367 C 0.26454 0.28669 0.49189 0.0
C368 C 0.28883 0.28675 0.49381 0.0
C369 C 0.2993 0.348 0.50728 0.0
C370 C 0.32191 0.35068 0.51099 0.0
C371 C 0.33478 0.29216 0.5011 0.0
H372 H 0.29457 0.18075 0.47104 0.0
C373 C 0.32447 0.23117 0.4866 0.0
C374 C 0.30176 0.22846 0.48282 0.0
H375 H 0.33393 0.18538 0.47836 0.0
H376 H 0.18265 0.32974 0.48175 0.0
H377 H 0.22203 0.33601 0.47469 0.0
H378 H 0.22711 0.1186 0.51068 0.0
H379 H 0.18782 0.11233 0.51691 0.0
H380 H 0.26026 0.17795 0.49179 0.0
H381 H 0.25658 0.33707 0.49417 0.0
H382 H 0.28993 0.39395 0.51566 0.0
H383 H 0.32927 0.39871 0.52209 0.0
C384 C 0.59245 0.45156 0.13719 0.0
C385 C 0.60268 0.3893 0.1242 0.0
C386 C 0.59411 0.47501 0.17972 0.0
C387 C 0.60599 0.43663 0.21042 0.0
C388 C 0.61587 0.37376 0.19784 0.0
C389 C 0.61444 0.35061 0.15501 0.0
C390 C 0.6072 0.4592 0.25619 0.0
C391 C 0.60672 0.5268 0.26807 0.0
C392 C 0.60581 0.5492 0.31391 0.0
C393 C 0.61467 0.61376 0.32596 0.0
C394 C 0.61334 0.63687 0.36882 0.0
C395 C 0.60269 0.59635 0.4002 0.0
H396 H 0.58749 0.45988 0.33686 0.0
C397 C 0.59355 0.5322 0.38781 0.0
C398 C 0.59511 0.50886 0.34525 0.0
H399 H 0.58521 0.49953 0.41104 0.0
H400 H 0.58323 0.48277 0.11442 0.0
H401 H 0.5857 0.52254 0.1886 0.0
H402 H 0.62487 0.3428 0.2211 0.0
H403 H 0.62245 0.30234 0.14614 0.0
H404 H 0.60888 0.41885 0.28068 0.0
H405 H 0.60735 0.56732 0.24351 0.0
H406 H 0.62275 0.64619 0.30221 0.0
H407 H 0.62048 0.68662 0.37723 0.0
C408 C 0.39876 0.61368 0.15127 0.0
C409 C 0.41188 0.58213 0.1196 0.0
C410 C 0.39614 0.58219 0.19176 0.0
C411 C 0.40644 0.51828 0.20102 0.0
C412 C 0.41924 0.48645 0.16925 0.0
C413 C 0.42215 0.51829 0.1292 0.0
C414 C 0.40444 0.48349 0.24351 0.0
C415 C 0.40356 0.51944 0.28069 0.0
C416 C 0.4056 0.48487 0.32325 0.0
C417 C 0.41718 0.51891 0.35594 0.0
C418 C 0.42037 0.48687 0.39587 0.0
C419 C 0.41161 0.42052 0.40438 0.0
H420 H 0.38728 0.39179 0.30712 0.0
C421 C 0.39957 0.38693 0.3719 0.0
C422 C 0.39668 0.41869 0.33155 0.0
H423 H 0.39243 0.33616 0.37758 0.0
H424 H 0.39048 0.66248 0.14476 0.0
H425 H 0.38582 0.6073 0.21546 0.0
H426 H 0.42729 0.43717 0.17564 0.0
H427 H 0.4322 0.49199 0.10553 0.0
H428 H 0.40633 0.42711 0.24444 0.0
H429 H 0.40403 0.57611 0.27991 0.0
H430 H 0.42414 0.56998 0.3503 0.0
H431 H 0.42953 0.51475 0.42024 0.0
C432 C 0.41415 0.64227 0.85667 0.0
C433 C 0.40635 0.61331 0.89518 0.0
C434 C 0.41575 0.60092 0.81953 0.0
C435 C 0.40898 0.53064 0.82041 0.0
C436 C 0.40063 0.50294 0.85887 0.0
C437 C 0.39916 0.54403 0.8958 0.0
C438 C 0.41046 0.48411 0.78231 0.0
C439 C 0.4098 0.50783 0.74148 0.0
C440 C 0.40877 0.46131 0.70332 0.0
C441 C 0.39956 0.48792 0.66529 0.0
C442 C 0.39864 0.44725 0.62813 0.0
C443 C 0.40721 0.37949 0.62808 0.0
H444 H 0.42452 0.37047 0.73204 0.0
C445 C 0.41582 0.35137 0.6662 0.0
C446 C 0.41687 0.39236 0.7036 0.0
H447 H 0.42237 0.29888 0.66662 0.0
H448 H 0.41963 0.6959 0.85573 0.0
H449 H 0.42274 0.62371 0.79073 0.0
H450 H 0.39526 0.4492 0.86043 0.0
H451 H 0.39266 0.5213 0.92516 0.0
H452 H 0.41019 0.42832 0.78835 0.0
H453 H 0.40814 0.56344 0.73559 0.0
H454 H 0.39315 0.5406 0.66418 0.0
H455 H 0.39152 0.46924 0.59908 0.0
C456 C 0.60346 0.35125 0.85769 0.0
C457 C 0.61092 0.37981 0.89661 0.0
C458 C 0.60255 0.39251 0.82035 0.0
C459 C 0.60966 0.4624 0.82135 0.0
C460 C 0.61765 0.48978 0.86024 0.0
C461 C 0.61847 0.44869 0.8974 0.0
C462 C 0.60868 0.50892 0.78301 0.0
C463 C 0.60944 0.4852 0.74213 0.0
C464 C 0.6101 0.53166 0.70373 0.0
C465 C 0.61909 0.5054 0.66539 0.0
C466 C 0.61943 0.54594 0.62799 0.0
C467 C 0.61044 0.61315 0.62798 0.0
H468 H 0.59413 0.62181 0.73263 0.0
C469 C 0.60208 0.6409 0.66642 0.0
C470 C 0.60163 0.60012 0.704 0.0
H471 H 0.59529 0.69306 0.66698 0.0
H472 H 0.59778 0.29786 0.8565 0.0
H473 H 0.59582 0.36992 0.79125 0.0
H474 H 0.62327 0.54323 0.86195 0.0
H475 H 0.62481 0.47105 0.92699 0.0
H476 H 0.60892 0.56471 0.78898 0.0
H477 H 0.61116 0.4296 0.73634 0.0
H478 H 0.62578 0.45309 0.66423 0.0
H479 H 0.62647 0.52435 0.59879 0.0
C480 C 0.09247 0.95812 0.13525 0.0
C481 C 0.10286 0.89664 0.12142 0.0
C482 C 0.09468 0.98127 0.17774 0.0
C483 C 0.10725 0.94329 0.20753 0.0
C484 C 0.11728 0.88114 0.19413 0.0
C485 C 0.11532 0.85835 0.15133 0.0
C486 C 0.10899 0.9655 0.25326 0.0
C487 C 0.10858 0.03303 0.26524 0.0
C488 C 0.10788 0.0552 0.3111 0.0
C489 C 0.11673 0.11978 0.32308 0.0
C490 C 0.11535 0.14306 0.36588 0.0
C491 C 0.10462 0.10271 0.39724 0.0
H492 H 0.08963 0.96577 0.33414 0.0
C493 C 0.0956 0.03835 0.38498 0.0
C494 C 0.09723 0.01481 0.34249 0.0
H495 H 0.08722 0.00583 0.40824 0.0
H496 H 0.08272 0.98896 0.11318 0.0
H497 H 0.08615 0.02822 0.18734 0.0
H498 H 0.1268 0.85051 0.21672 0.0
H499 H 0.12346 0.81066 0.14177 0.0
H500 H 0.11093 0.92503 0.27759 0.0
H501 H 0.10895 0.07365 0.24071 0.0
H502 H 0.12478 0.15221 0.29929 0.0
H503 H 0.1224 0.19297 0.37423 0.0
C504 C 0.92507 0.96249 0.38884 0.0
C505 C 0.91038 0.91179 0.40377 0.0
C506 C 0.92354 0.98881 0.34681 0.0
C507 C 0.90727 0.96499 0.31853 0.0
C508 C 0.89245 0.91493 0.33348 0.0
C509 C 0.89406 0.88819 0.37551 0.0
C510 C 0.905 0.99293 0.27385 0.0
C511 C 0.92202 0.01665 0.25078 0.0
C512 C 0.92016 0.04327 0.2058 0.0
C513 C 0.93811 0.03675 0.17818 0.0
C514 C 0.93711 0.06111 0.13566 0.0
C515 C 0.91824 0.09392 0.11994 0.0
H516 H 0.88736 0.08434 0.21116 0.0
C517 C 0.9004 0.10204 0.1479 0.0
C518 C 0.9013 0.07673 0.19038 0.0
H519 H 0.88562 0.12713 0.13684 0.0
H520 H 0.93774 0.98248 0.40972 0.0
H521 H 0.93485 0.02892 0.337 0.0
H522 H 0.87964 0.89613 0.31249 0.0
H523 H 0.88233 0.84968 0.38596 0.0
H524 H 0.88907 0.99034 0.25883 0.0
H525 H 0.93827 0.0126 0.26426 0.0
H526 H 0.9529 0.01187 0.18937 0.0
H527 H 0.95122 0.05437 0.11515 0.0
C528 C 0.89542 0.93355 0.6389 0.0
C529 C 0.90449 0.8672 0.63278 0.0
C530 C 0.89596 0.96511 0.67953 0.0
C531 C 0.9056 0.93065 0.71491 0.0
C532 C 0.91381 0.8628 0.70899 0.0
C533 C 0.91311 0.83106 0.66827 0.0
C534 C 0.90645 0.96257 0.75867 0.0
C535 C 0.90557 0.032 0.76554 0.0
C536 C 0.90521 0.06395 0.80931 0.0
C537 C 0.91139 0.1341 0.81405 0.0
C538 C 0.91093 0.16615 0.85468 0.0
C539 C 0.90461 0.12814 0.89126 0.0
H540 H 0.89205 0.97415 0.8435 0.0
C541 C 0.89758 0.05912 0.88644 0.0
C542 C 0.89788 0.02718 0.84591 0.0
H543 H 0.89175 0.0299 0.9141 0.0
H544 H 0.88786 0.96101 0.61217 0.0
H545 H 0.88856 0.01601 0.68298 0.0
H546 H 0.92093 0.83452 0.73585 0.0
H547 H 0.91966 0.77896 0.6643 0.0
H548 H 0.90852 0.9274 0.7859 0.0
H549 H 0.90572 0.06744 0.73814 0.0
H550 H 0.9167 0.16406 0.7863 0.0
H551 H 0.91587 0.22013 0.85768 0.0
C552 C 0.10002 0.86231 0.85483 0.0
C553 C 0.10747 0.89134 0.89362 0.0
C554 C 0.09839 0.90376 0.81768 0.0
C555 C 0.10479 0.97437 0.81871 0.0
C556 C 0.11255 0.0025 0.85758 0.0
C557 C 0.11408 0.9612 0.89455 0.0
C558 C 0.10373 0.02047 0.78019 0.0
C559 C 0.10516 0.99633 0.73948 0.0
C560 C 0.10653 0.04219 0.70088 0.0
C561 C 0.1158 0.01463 0.66314 0.0
C562 C 0.11711 0.05475 0.62568 0.0
C563 C 0.10887 0.12291 0.62497 0.0
H564 H 0.09104 0.13427 0.72851 0.0
C565 C 0.10018 0.15184 0.66277 0.0
C566 C 0.09872 0.11147 0.70042 0.0
H567 H 0.09395 0.20473 0.66278 0.0
H568 H 0.09503 0.80821 0.85355 0.0
H569 H 0.09182 0.88057 0.78861 0.0
H570 H 0.1176 0.05652 0.85932 0.0
H571 H 0.12039 0.98401 0.92405 0.0
H572 H 0.10367 0.0763 0.78598 0.0
H573 H 0.10711 0.94071 0.73409 0.0
H574 H 0.122 0.96169 0.66253 0.0
H575 H 0.12437 0.03215 0.59698 0.0
C576 C 0.47682 0.80853 0.01755 0.0
C577 C 0.45419 0.81636 0.0135 0.0
C578 C 0.49035 0.8668 0.02018 0.0
C579 C 0.48161 0.9347 0.01838 0.0
C580 C 0.45896 0.94252 0.01557 0.0
C581 C 0.4454 0.88416 0.01302 0.0
C582 C 0.49547 0.99837 0.01989 0.0
C583 C 0.51664 0.99877 0.00853 0.0
C584 C 0.53073 0.06188 0.00901 0.0
C585 C 0.55336 0.05247 0.00907 0.0
C586 C 0.56737 0.10967 0.00801 0.0
C587 C 0.55911 0.17809 0.00652 0.0
H588 H 0.50512 0.14023 0.00625 0.0
C589 C 0.53643 0.18769 0.00643 0.0
C590 C 0.5224 0.13035 0.00758 0.0
H591 H 0.52946 0.23955 0.00492 0.0
H592 H 0.4842 0.75721 0.01855 0.0
H593 H 0.50759 0.85797 0.02407 0.0
H594 H 0.45172 0.99407 0.01462 0.0
H595 H 0.42805 0.89236 0.01011 0.0
H596 H 0.48766 0.04652 0.02984 0.0
H597 H 0.52432 0.95057 -0.00175 0.0
H598 H 0.56028 1.00047 0.00988 0.0
H599 H 0.5847 0.10001 0.00802 0.0
C600 C 0.56038 0.87084 0.51128 0.0
C601 C 0.55455 0.80033 0.51605 0.0
C602 C 0.54442 0.92319 0.50995 0.0
C603 C 0.5222 0.9062 0.51327 0.0
C604 C 0.51646 0.83586 0.51816 0.0
C605 C 0.53234 0.78367 0.51931 0.0
C606 C 0.50456 0.95989 0.51393 0.0
C607 C 0.50661 0.02468 0.49736 0.0
C608 C 0.48941 0.0797 0.49976 0.0
C609 C 0.49568 0.14953 0.49469 0.0
C610 C 0.48048 0.20348 0.49784 0.0
C611 C 0.45841 0.18927 0.50576 0.0
H612 H 0.46149 0.01192 0.50938 0.0
C613 C 0.45192 0.11922 0.50955 0.0
C614 C 0.46722 0.06498 0.50658 0.0
H615 H 0.43507 0.10622 0.51543 0.0
H616 H 0.57729 0.88579 0.509 0.0
H617 H 0.54969 0.9768 0.50743 0.0
H618 H 0.49956 0.82104 0.52117 0.0
H619 H 0.52712 0.73014 0.52328 0.0
H620 H 0.48933 0.94468 0.52877 0.0
H621 H 0.52184 0.0395 0.48233 0.0
H622 H 0.51254 0.16268 0.48899 0.0
H623 H 0.48618 0.25661 0.49444 0.0
C624 C 0.03798 0.68748 0.01124 0.0
C625 C 0.06058 0.67997 0.00623 0.0
C626 C 0.02451 0.629 0.01367 0.0
C627 C 0.03327 0.56121 0.01069 0.0
C628 C 0.05588 0.55375 0.00646 0.0
C629 C 0.06937 0.61227 0.00415 0.0
C630 C 0.01958 0.4971 0.01255 0.0
C631 C 0.998 0.49649 0.00478 0.0
C632 C 0.98432 0.43243 0.00572 0.0
C633 C 0.96177 0.43996 0.01081 0.0
C634 C 0.94812 0.38182 0.01023 0.0
C635 C 0.95665 0.31442 0.00415 0.0
H636 H 0.01009 0.3567 0.99442 0.0
C637 C 0.97925 0.30676 -0.00091 0.0
C638 C 0.99293 0.36498 -0.00024 0.0
H639 H 0.98643 0.2558 0.99393 0.0
H640 H 0.03061 0.7387 0.01341 0.0
H641 H 1.00733 0.6377 0.01846 0.0
H642 H 0.06315 0.50233 0.00447 0.0
H643 H 0.08669 0.60429 0.00043 0.0
H644 H 0.02787 0.44855 0.01998 0.0
H645 H 0.98965 0.54491 0.9974 0.0
H646 H 0.95464 0.4912 0.01516 0.0
H647 H 0.93082 0.38999 0.01411 0.0
C648 C 0.06386 0.38661 0.50965 0.0
C649 C 0.05769 0.31617 0.50652 0.0
C650 C 0.04828 0.44007 0.50646 0.0
C651 C 0.02614 0.42416 0.50008 0.0
C652 C 0.02017 0.35392 0.49599 0.0
C653 C 0.03562 0.30078 0.49935 0.0
C654 C 1.00866 0.47823 0.49699 0.0
C655 C 0.01048 0.54401 0.51203 0.0
C656 C 0.99255 0.59672 0.5108 0.0
C657 C 0.99792 0.66747 0.515 0.0
C658 C 0.98177 0.71879 0.5161 0.0
C659 C 0.95964 0.70088 0.51342 0.0
H660 H 0.96539 0.52463 0.50571 0.0
C661 C 0.95418 0.63003 0.50897 0.0
C662 C 0.9704 0.57852 0.50776 0.0
H663 H 0.93734 0.6141 0.50718 0.0
H664 H 0.08069 0.40053 0.51492 0.0
H665 H 0.05379 0.49344 0.5086 0.0
H666 H 1.00334 0.3398 0.49074 0.0
H667 H 0.03014 0.24735 0.49649 0.0
H668 H 0.99342 0.46184 0.48265 0.0
H669 H 0.02573 0.56078 0.52613 0.0
H670 H 0.01476 0.68327 0.5177 0.0
H671 H 0.98674 0.77263 0.51973 0.0
loop_
_geom_bond_atom_site_label_1
_geom_bond_atom_site_label_2
_geom_bond_distance
_geom_bond_site_symmetry_2
_ccdc_geom_bond_type
Mn0 O5 2.095 . S
Mn0 O15 2.162 . S
Mn0 O16 2.297 . S
Mn0 O24 2.385 1_554 S
Mn0 O25 2.209 1_554 S
Mn0 O26 2.094 . S
Mn1 O6 2.121 . S
Mn1 N8 2.257 1_554 S
Mn1 N17 2.282 1_554 S
Mn1 O25 2.215 1_554 S
Mn1 O27 2.117 . S
C2 O24 1.234 . S
C2 O25 1.283 . S
C3 O15 1.281 . S
C3 O16 1.236 . S
C4 O26 1.240 . S
C4 O27 1.264 . S
O5 Mn0 2.095 . S
O5 C14 1.250 . S
O6 Mn1 2.121 . S
O6 C14 1.258 . S
C7 N8 1.326 1_554 S
C7 C11 1.460 . S
C7 H13 0.929 . S
N8 Mn1 2.257 1_556 S
N8 C7 1.326 1_556 S
N8 C12 1.362 . S
C9 C10 1.258 . S
C9 C12 1.431 . S
C9 C29 1.449 . S
C10 C9 1.258 . S
C10 C11 1.477 1_556 S
C10 H30 0.931 . S
C11 C7 1.460 . S
C11 C10 1.477 1_554 S
C11 H31 0.930 . S
C12 N8 1.362 . S
C12 C9 1.431 . S
C12 C22 1.476 . S
H13 C7 0.929 . S
C14 O5 1.250 . S
C14 O6 1.258 . S
O15 Mn0 2.162 . S
O15 C3 1.281 . S
O16 Mn0 2.297 . S
O16 C3 1.236 . S
N17 Mn1 2.282 1_556 S
N17 C18 1.328 . S
N17 C22 1.318 . S
C18 N17 1.328 . S
C18 C19 1.457 . S
C18 H23 0.929 . S
C19 C18 1.457 . S
C19 C20 1.291 . S
C19 H32 0.931 . S
C20 C19 1.291 . S
C20 C21 1.373 . S
C20 H33 0.929 . S
C21 C20 1.373 . S
C21 C22 1.396 . S
C21 C28 1.403 . S
C22 C12 1.476 . S
C22 N17 1.318 . S
C22 C21 1.396 . S
H23 C18 0.929 . S
O24 Mn0 2.385 1_556 S
O24 C2 1.234 . S
O25 Mn0 2.209 1_556 S
O25 Mn1 2.215 1_556 S
O25 C2 1.283 . S
O26 Mn0 2.094 . S
O26 C4 1.240 . S
O27 Mn1 2.117 . S
O27 C4 1.264 . S
C28 C21 1.403 . S
C28 C29 1.399 . S
C28 H34 0.929 . S
C29 C9 1.449 . S
C29 C28 1.399 . S
C29 H35 0.930 . S
H30 C10 0.931 . S
H31 C11 0.930 . S
H32 C19 0.931 . S
H33 C20 0.929 . S
H34 C28 0.929 . S
H35 C29 0.930 . S
Mn36 O41 2.095 . S
Mn36 O51 2.162 . S
Mn36 O52 2.297 . S
Mn36 O60 2.385 1_554 S
Mn36 O61 2.209 1_554 S
Mn36 O62 2.094 . S
Mn37 O42 2.121 . S
Mn37 N44 2.257 1_554 S
Mn37 N53 2.282 1_554 S
Mn37 O61 2.215 1_554 S
Mn37 O63 2.117 . S
C38 O60 1.234 . S
C38 O61 1.283 . S
C39 O51 1.281 . S
C39 O52 1.236 . S
C40 O62 1.240 . S
C40 O63 1.264 . S
O41 Mn36 2.095 . S
O41 C50 1.250 . S
O42 Mn37 2.121 . S
O42 C50 1.258 . S
C43 N44 1.326 1_554 S
C43 C47 1.460 . S
C43 H49 0.929 . S
N44 Mn37 2.257 1_556 S
N44 C43 1.326 1_556 S
N44 C48 1.362 . S
C45 C46 1.258 . S
C45 C48 1.431 . S
C45 C65 1.449 . S
C46 C45 1.258 . S
C46 C47 1.477 1_556 S
C46 H66 0.931 . S
C47 C43 1.460 . S
C47 C46 1.477 1_554 S
C47 H67 0.930 . S
C48 N44 1.362 . S
C48 C45 1.431 . S
C48 C58 1.476 . S
H49 C43 0.929 . S
C50 O41 1.250 . S
C50 O42 1.258 . S
O51 Mn36 2.162 . S
O51 C39 1.281 . S
O52 Mn36 2.297 . S
O52 C39 1.236 . S
N53 Mn37 2.282 1_556 S
N53 C54 1.328 . S
N53 C58 1.318 . S
C54 N53 1.328 . S
C54 C55 1.457 . S
C54 H59 0.929 . S
C55 C54 1.457 . S
C55 C56 1.291 . S
C55 H68 0.931 . S
C56 C55 1.291 . S
C56 C57 1.373 . S
C56 H69 0.929 . S
C57 C56 1.373 . S
C57 C58 1.396 . S
C57 C64 1.403 . S
C58 C48 1.476 . S
C58 N53 1.318 . S
C58 C57 1.396 . S
H59 C54 0.929 . S
O60 Mn36 2.385 1_556 S
O60 C38 1.234 . S
O61 Mn36 2.209 1_556 S
O61 Mn37 2.215 1_556 S
O61 C38 1.283 . S
O62 Mn36 2.094 . S
O62 C40 1.240 . S
O63 Mn37 2.117 . S
O63 C40 1.264 . S
C64 C57 1.403 . S
C64 C65 1.399 . S
C64 H70 0.929 . S
C65 C45 1.449 . S
C65 C64 1.399 . S
C65 H71 0.930 . S
H66 C46 0.931 . S
H67 C47 0.930 . S
H68 C55 0.931 . S
H69 C56 0.929 . S
H70 C64 0.929 . S
H71 C65 0.930 . S
Mn72 O77 2.095 . S
Mn72 O87 2.162 . S
Mn72 O88 2.297 . S
Mn72 O96 2.385 . S
Mn72 O97 2.209 . S
Mn72 O98 2.094 . S
Mn73 O78 2.121 . S
Mn73 N80 2.257 . S
Mn73 N89 2.282 . S
Mn73 O97 2.215 . S
Mn73 O99 2.117 . S
C74 O96 1.234 . S
C74 O97 1.283 . S
C75 O87 1.281 . S
C75 O88 1.236 . S
C76 O98 1.240 . S
C76 O99 1.264 . S
O77 Mn72 2.095 . S
O77 C86 1.250 . S
O78 Mn73 2.121 . S
O78 C86 1.258 . S
C79 N80 1.326 . S
C79 C83 1.460 . S
C79 H85 0.929 . S
N80 Mn73 2.257 . S
N80 C79 1.326 . S
N80 C84 1.362 . S
C81 C82 1.258 . S
C81 C84 1.431 . S
C81 C101 1.449 . S
C82 C81 1.258 . S
C82 C83 1.477 . S
C82 H102 0.931 . S
C83 C79 1.460 . S
C83 C82 1.477 . S
C83 H103 0.930 . S
C84 N80 1.362 . S
C84 C81 1.431 . S
C84 C94 1.476 . S
H85 C79 0.929 . S
C86 O77 1.250 . S
C86 O78 1.258 . S
O87 Mn72 2.162 . S
O87 C75 1.281 . S
O88 Mn72 2.297 . S
O88 C75 1.236 . S
N89 Mn73 2.282 . S
N89 C90 1.328 . S
N89 C94 1.318 . S
C90 N89 1.328 . S
C90 C91 1.457 . S
C90 H95 0.929 . S
C91 C90 1.457 . S
C91 C92 1.291 . S
C91 H104 0.931 . S
C92 C91 1.291 . S
C92 C93 1.373 . S
C92 H105 0.929 . S
C93 C92 1.373 . S
C93 C94 1.396 . S
C93 C100 1.403 . S
C94 C84 1.476 . S
C94 N89 1.318 . S
C94 C93 1.396 . S
H95 C90 0.929 . S
O96 Mn72 2.385 . S
O96 C74 1.234 . S
O97 Mn72 2.209 . S
O97 Mn73 2.215 . S
O97 C74 1.283 . S
O98 Mn72 2.094 . S
O98 C76 1.240 . S
O99 Mn73 2.117 . S
O99 C76 1.264 . S
C100 C93 1.403 . S
C100 C101 1.399 . S
C100 H106 0.929 . S
C101 C81 1.449 . S
C101 C100 1.399 . S
C101 H107 0.930 . S
H102 C82 0.931 . S
H103 C83 0.930 . S
H104 C91 0.931 . S
H105 C92 0.929 . S
H106 C100 0.929 . S
H107 C101 0.930 . S
Mn108 O113 2.095 . S
Mn108 O123 2.162 . S
Mn108 O124 2.297 . S
Mn108 O132 2.385 . S
Mn108 O133 2.209 . S
Mn108 O134 2.094 . S
Mn109 O114 2.121 . S
Mn109 N116 2.257 . S
Mn109 N125 2.282 . S
Mn109 O133 2.215 . S
Mn109 O135 2.117 . S
C110 O132 1.234 . S
C110 O133 1.283 . S
C111 O123 1.281 . S
C111 O124 1.236 . S
C112 O134 1.240 . S
C112 O135 1.264 . S
O113 Mn108 2.095 . S
O113 C122 1.250 . S
O114 Mn109 2.121 . S
O114 C122 1.258 . S
C115 N116 1.326 . S
C115 C119 1.460 . S
C115 H121 0.929 . S
N116 Mn109 2.257 . S
N116 C115 1.326 . S
N116 C120 1.362 . S
C117 C118 1.258 . S
C117 C120 1.431 . S
C117 C137 1.449 . S
C118 C117 1.258 . S
C118 C119 1.477 . S
C118 H138 0.931 . S
C119 C115 1.460 . S
C119 C118 1.477 . S
C119 H139 0.930 . S
C120 N116 1.362 . S
C120 C117 1.431 . S
C120 C130 1.476 . S
H121 C115 0.929 . S
C122 O113 1.250 . S
C122 O114 1.258 . S
O123 Mn108 2.162 . S
O123 C111 1.281 . S
O124 Mn108 2.297 . S
O124 C111 1.236 . S
N125 Mn109 2.282 . S
N125 C126 1.328 . S
N125 C130 1.318 . S
C126 N125 1.328 . S
C126 C127 1.457 . S
C126 H131 0.929 . S
C127 C126 1.457 . S
C127 C128 1.291 . S
C127 H140 0.931 . S
C128 C127 1.291 . S
C128 C129 1.373 . S
C128 H141 0.929 . S
C129 C128 1.373 . S
C129 C130 1.396 . S
C129 C136 1.403 . S
C130 C120 1.476 . S
C130 N125 1.318 . S
C130 C129 1.396 . S
H131 C126 0.929 . S
O132 Mn108 2.385 . S
O132 C110 1.234 . S
O133 Mn108 2.209 . S
O133 Mn109 2.215 . S
O133 C110 1.283 . S
O134 Mn108 2.094 . S
O134 C112 1.240 . S
O135 Mn109 2.117 . S
O135 C112 1.264 . S
C136 C129 1.403 . S
C136 C137 1.399 . S
C136 H142 0.929 . S
C137 C117 1.449 . S
C137 C136 1.399 . S
C137 H143 0.930 . S
H138 C118 0.931 . S
H139 C119 0.930 . S
H140 C127 0.931 . S
H141 C128 0.929 . S
H142 C136 0.929 . S
H143 C137 0.930 . S
Mn144 O149 2.095 . S
Mn144 O159 2.162 . S
Mn144 O160 2.297 . S
Mn144 O168 2.385 1_554 S
Mn144 O169 2.209 1_554 S
Mn144 O170 2.094 . S
Mn145 O150 2.121 . S
Mn145 N152 2.257 1_564 S
Mn145 N161 2.282 1_554 S
Mn145 O169 2.215 1_554 S
Mn145 O171 2.117 . S
C146 O168 1.234 . S
C146 O169 1.283 . S
C147 O159 1.281 . S
C147 O160 1.236 . S
C148 O170 1.240 . S
C148 O171 1.264 . S
O149 Mn144 2.095 . S
O149 C158 1.250 . S
O150 Mn145 2.121 . S
O150 C158 1.258 . S
C151 N152 1.326 1_554 S
C151 C155 1.460 . S
C151 H157 0.929 . S
N152 Mn145 2.257 1_546 S
N152 C151 1.326 1_556 S
N152 C156 1.362 . S
C153 C154 1.258 . S
C153 C156 1.431 . S
C153 C173 1.449 . S
C154 C153 1.258 . S
C154 C155 1.477 1_556 S
C154 H174 0.931 . S
C155 C151 1.460 . S
C155 C154 1.477 1_554 S
C155 H175 0.930 . S
C156 N152 1.362 . S
C156 C153 1.431 . S
C156 C166 1.476 1_545 S
H157 C151 0.929 . S
C158 O149 1.250 . S
C158 O150 1.258 . S
O159 Mn144 2.162 . S
O159 C147 1.281 . S
O160 Mn144 2.297 . S
O160 C147 1.236 . S
N161 Mn145 2.282 1_556 S
N161 C162 1.328 . S
N161 C166 1.318 . S
C162 N161 1.328 . S
C162 C163 1.457 . S
C162 H167 0.929 . S
C163 C162 1.457 . S
C163 C164 1.291 . S
C163 H176 0.931 . S
C164 C163 1.291 . S
C164 C165 1.373 . S
C164 H177 0.929 . S
C165 C164 1.373 . S
C165 C166 1.396 . S
C165 C172 1.403 1_565 S
C166 C156 1.476 1_565 S
C166 N161 1.318 . S
C166 C165 1.396 . S
H167 C162 0.929 . S
O168 Mn144 2.385 1_556 S
O168 C146 1.234 . S
O169 Mn144 2.209 1_556 S
O169 Mn145 2.215 1_556 S
O169 C146 1.283 . S
O170 Mn144 2.094 . S
O170 C148 1.240 . S
O171 Mn145 2.117 . S
O171 C148 1.264 . S
C172 C165 1.403 1_545 S
C172 C173 1.399 . S
C172 H178 0.929 . S
C173 C153 1.449 . S
C173 C172 1.399 . S
C173 H179 0.930 . S
H174 C154 0.931 . S
H175 C155 0.930 . S
H176 C163 0.931 . S
H177 C164 0.929 . S
H178 C172 0.929 . S
H179 C173 0.930 . S
Mn180 O185 2.095 . S
Mn180 O195 2.162 . S
Mn180 O196 2.297 . S
Mn180 O204 2.385 1_554 S
Mn180 O205 2.209 1_554 S
Mn180 O206 2.094 . S
Mn181 O186 2.121 . S
Mn181 N188 2.257 1_544 S
Mn181 N197 2.282 1_554 S
Mn181 O205 2.215 1_554 S
Mn181 O207 2.117 . S
C182 O204 1.234 . S
C182 O205 1.283 . S
C183 O195 1.281 . S
C183 O196 1.236 . S
C184 O206 1.240 . S
C184 O207 1.264 . S
O185 Mn180 2.095 . S
O185 C194 1.250 . S
O186 Mn181 2.121 . S
O186 C194 1.258 . S
C187 N188 1.326 1_554 S
C187 C191 1.460 . S
C187 H193 0.929 . S
N188 Mn181 2.257 1_566 S
N188 C187 1.326 1_556 S
N188 C192 1.362 . S
C189 C190 1.258 . S
C189 C192 1.431 . S
C189 C209 1.449 . S
C190 C189 1.258 . S
C190 C191 1.477 1_556 S
C190 H210 0.931 . S
C191 C187 1.460 . S
C191 C190 1.477 1_554 S
C191 H211 0.930 . S
C192 N188 1.362 . S
C192 C189 1.431 . S
C192 C202 1.476 1_565 S
H193 C187 0.929 . S
C194 O185 1.250 . S
C194 O186 1.258 . S
O195 Mn180 2.162 . S
O195 C183 1.281 . S
O196 Mn180 2.297 . S
O196 C183 1.236 . S
N197 Mn181 2.282 1_556 S
N197 C198 1.328 . S
N197 C202 1.318 . S
C198 N197 1.328 . S
C198 C199 1.457 . S
C198 H203 0.929 . S
C199 C198 1.457 . S
C199 C200 1.291 . S
C199 H212 0.931 . S
C200 C199 1.291 . S
C200 C201 1.373 . S
C200 H213 0.929 . S
C201 C200 1.373 . S
C201 C202 1.396 . S
C201 C208 1.403 1_545 S
C202 C192 1.476 1_545 S
C202 N197 1.318 . S
C202 C201 1.396 . S
H203 C198 0.929 . S
O204 Mn180 2.385 1_556 S
O204 C182 1.234 . S
O205 Mn180 2.209 1_556 S
O205 Mn181 2.215 1_556 S
O205 C182 1.283 . S
O206 Mn180 2.094 . S
O206 C184 1.240 . S
O207 Mn181 2.117 . S
O207 C184 1.264 . S
C208 C201 1.403 1_565 S
C208 C209 1.399 . S
C208 H214 0.929 . S
C209 C189 1.449 . S
C209 C208 1.399 . S
C209 H215 0.930 . S
H210 C190 0.931 . S
H211 C191 0.930 . S
H212 C199 0.931 . S
H213 C200 0.929 . S
H214 C208 0.929 . S
H215 C209 0.930 . S
Mn216 O221 2.095 . S
Mn216 O231 2.162 . S
Mn216 O232 2.297 . S
Mn216 O240 2.385 . S
Mn216 O241 2.209 . S
Mn216 O242 2.094 . S
Mn217 O222 2.121 . S
Mn217 N224 2.257 1_545 S
Mn217 N233 2.282 . S
Mn217 O241 2.215 . S
Mn217 O243 2.117 . S
C218 O240 1.234 . S
C218 O241 1.283 . S
C219 O231 1.281 . S
C219 O232 1.236 . S
C220 O242 1.240 . S
C220 O243 1.264 . S
O221 Mn216 2.095 . S
O221 C230 1.250 . S
O222 Mn217 2.121 . S
O222 C230 1.258 . S
C223 N224 1.326 . S
C223 C227 1.460 . S
C223 H229 0.929 . S
N224 Mn217 2.257 1_565 S
N224 C223 1.326 . S
N224 C228 1.362 . S
C225 C226 1.258 . S
C225 C228 1.431 . S
C225 C245 1.449 . S
C226 C225 1.258 . S
C226 C227 1.477 . S
C226 H246 0.931 . S
C227 C223 1.460 . S
C227 C226 1.477 . S
C227 H247 0.930 . S
C228 N224 1.362 . S
C228 C225 1.431 . S
C228 C238 1.476 1_565 S
H229 C223 0.929 . S
C230 O221 1.250 . S
C230 O222 1.258 . S
O231 Mn216 2.162 . S
O231 C219 1.281 . S
O232 Mn216 2.297 . S
O232 C219 1.236 . S
N233 Mn217 2.282 . S
N233 C234 1.328 . S
N233 C238 1.318 . S
C234 N233 1.328 . S
C234 C235 1.457 . S
C234 H239 0.929 . S
C235 C234 1.457 . S
C235 C236 1.291 . S
C235 H248 0.931 . S
C236 C235 1.291 . S
C236 C237 1.373 . S
C236 H249 0.929 . S
C237 C236 1.373 . S
C237 C238 1.396 . S
C237 C244 1.403 1_545 S
C238 C228 1.476 1_545 S
C238 N233 1.318 . S
C238 C237 1.396 . S
H239 C234 0.929 . S
O240 Mn216 2.385 . S
O240 C218 1.234 . S
O241 Mn216 2.209 . S
O241 Mn217 2.215 . S
O241 C218 1.283 . S
O242 Mn216 2.094 . S
O242 C220 1.240 . S
O243 Mn217 2.117 . S
O243 C220 1.264 . S
C244 C237 1.403 1_565 S
C244 C245 1.399 . S
C244 H250 0.929 . S
C245 C225 1.449 . S
C245 C244 1.399 . S
C245 H251 0.930 . S
H246 C226 0.931 . S
H247 C227 0.930 . S
H248 C235 0.931 . S
H249 C236 0.929 . S
H250 C244 0.929 . S
H251 C245 0.930 . S
Mn252 O257 2.095 . S
Mn252 O267 2.162 . S
Mn252 O268 2.297 . S
Mn252 O276 2.385 . S
Mn252 O277 2.209 . S
Mn252 O278 2.094 . S
Mn253 O258 2.121 . S
Mn253 N260 2.257 1_565 S
Mn253 N269 2.282 . S
Mn253 O277 2.215 . S
Mn253 O279 2.117 . S
C254 O276 1.234 . S
C254 O277 1.283 . S
C255 O267 1.281 . S
C255 O268 1.236 . S
C256 O278 1.240 . S
C256 O279 1.264 . S
O257 Mn252 2.095 . S
O257 C266 1.250 . S
O258 Mn253 2.121 . S
O258 C266 1.258 . S
C259 N260 1.326 . S
C259 C263 1.460 . S
C259 H265 0.929 . S
N260 Mn253 2.257 1_545 S
N260 C259 1.326 . S
N260 C264 1.362 . S
C261 C262 1.258 . S
C261 C264 1.431 . S
C261 C281 1.449 . S
C262 C261 1.258 . S
C262 C263 1.477 . S
C262 H282 0.931 . S
C263 C259 1.460 . S
C263 C262 1.477 . S
C263 H283 0.930 . S
C264 N260 1.362 . S
C264 C261 1.431 . S
C264 C274 1.476 1_545 S
H265 C259 0.929 . S
C266 O257 1.250 . S
C266 O258 1.258 . S
O267 Mn252 2.162 . S
O267 C255 1.281 . S
O268 Mn252 2.297 . S
O268 C255 1.236 . S
N269 Mn253 2.282 . S
N269 C270 1.328 . S
N269 C274 1.318 . S
C270 N269 1.328 . S
C270 C271 1.457 . S
C270 H275 0.929 . S
C271 C270 1.457 . S
C271 C272 1.291 . S
C271 H284 0.931 . S
C272 C271 1.291 . S
C272 C273 1.373 . S
C272 H285 0.929 . S
C273 C272 1.373 . S
C273 C274 1.396 . S
C273 C280 1.403 1_565 S
C274 C264 1.476 1_565 S
C274 N269 1.318 . S
C274 C273 1.396 . S
H275 C270 0.929 . S
O276 Mn252 2.385 . S
O276 C254 1.234 . S
O277 Mn252 2.209 . S
O277 Mn253 2.215 . S
O277 C254 1.283 . S
O278 Mn252 2.094 . S
O278 C256 1.240 . S
O279 Mn253 2.117 . S
O279 C256 1.264 . S
C280 C273 1.403 1_545 S
C280 C281 1.399 . S
C280 H286 0.929 . S
C281 C261 1.449 . S
C281 C280 1.399 . S
C281 H287 0.930 . S
H282 C262 0.931 . S
H283 C263 0.930 . S
H284 C271 0.931 . S
H285 C272 0.929 . S
H286 C280 0.929 . S
H287 C281 0.930 . S
C288 C289 1.386 . S
C288 C290 1.383 . S
C288 H304 0.951 1_554 S
C289 C288 1.386 . S
C289 C293 1.383 . S
C290 C288 1.383 . S
C290 C291 1.402 . S
C290 H305 0.951 . S
C291 C290 1.402 . S
C291 C292 1.375 . S
C291 C294 1.481 . S
C292 C291 1.375 . S
C292 C293 1.367 . S
C292 H306 0.951 . S
C293 C289 1.383 . S
C293 C292 1.367 . S
C293 H307 0.950 . S
C294 C291 1.481 . S
C294 C295 1.297 . S
C294 H308 0.950 . S
C295 C294 1.297 . S
C295 C296 1.479 . S
C295 H309 0.950 . S
C296 C295 1.479 . S
C296 C297 1.375 . S
C296 C302 1.404 . S
C297 C296 1.375 . S
C297 C298 1.369 . S
C297 H310 0.950 . S
C298 C297 1.369 . S
C298 C299 1.392 . S
C298 H311 0.951 1_554 S
C299 C298 1.392 . S
C299 C301 1.384 . S
H300 C302 0.949 . S
C301 C299 1.384 . S
C301 C302 1.385 . S
C301 H303 0.950 . S
C302 C296 1.404 . S
C302 H300 0.949 . S
C302 C301 1.385 . S
H303 C301 0.950 . S
H304 C288 0.951 1_556 S
H305 C290 0.951 . S
H306 C292 0.951 . S
H307 C293 0.950 . S
H308 C294 0.950 . S
H309 C295 0.950 . S
H310 C297 0.950 . S
H311 C298 0.951 1_556 S
C312 C313 1.386 . S
C312 C314 1.383 . S
C312 H328 0.951 . S
C313 C312 1.386 . S
C313 C317 1.383 1_554 S
C314 C312 1.383 . S
C314 C315 1.402 1_554 S
C314 H329 0.951 . S
C315 C314 1.402 1_556 S
C315 C316 1.375 . S
C315 C318 1.481 . S
C316 C315 1.375 . S
C316 C317 1.367 . S
C316 H330 0.951 . S
C317 C313 1.383 1_556 S
C317 C316 1.367 . S
C317 H331 0.950 . S
C318 C315 1.481 . S
C318 C319 1.294 1_556 S
C318 H332 0.950 . S
C319 C318 1.294 1_554 S
C319 C320 1.479 1_554 S
C319 H333 0.954 . S
C320 C319 1.479 1_556 S
C320 C321 1.375 1_556 S
C320 C326 1.404 . S
C321 C320 1.375 1_554 S
C321 C322 1.369 . S
C321 H334 0.950 . S
C322 C321 1.369 . S
C322 C323 1.392 . S
C322 H335 0.951 . S
C323 C322 1.392 . S
C323 C325 1.384 1_554 S
H324 C326 0.949 . S
C325 C323 1.384 1_556 S
C325 C326 1.385 . S
C325 H327 0.950 . S
C326 C320 1.404 . S
C326 H324 0.949 . S
C326 C325 1.385 . S
H327 C325 0.950 . S
H328 C312 0.951 . S
H329 C314 0.951 . S
H330 C316 0.951 . S
H331 C317 0.950 . S
H332 C318 0.950 . S
H333 C319 0.954 . S
H334 C321 0.950 . S
H335 C322 0.951 . S
C336 C337 1.386 . S
C336 C338 1.383 . S
C336 H352 0.951 . S
C337 C336 1.386 . S
C337 C341 1.383 . S
C338 C336 1.383 . S
C338 C339 1.402 . S
C338 H353 0.951 . S
C339 C338 1.402 . S
C339 C340 1.375 . S
C339 C342 1.481 . S
C340 C339 1.375 . S
C340 C341 1.367 . S
C340 H354 0.951 . S
C341 C337 1.383 . S
C341 C340 1.367 . S
C341 H355 0.950 . S
C342 C339 1.481 . S
C342 C343 1.297 . S
C342 H356 0.950 . S
C343 C342 1.297 . S
C343 C344 1.479 . S
C343 H357 0.950 . S
C344 C343 1.479 . S
C344 C345 1.375 . S
C344 C350 1.404 . S
C345 C344 1.375 . S
C345 C346 1.369 . S
C345 H358 0.950 . S
C346 C345 1.369 . S
C346 C347 1.392 . S
C346 H359 0.951 . S
C347 C346 1.392 . S
C347 C349 1.384 . S
H348 C350 0.949 . S
C349 C347 1.384 . S
C349 C350 1.385 . S
C349 H351 0.950 . S
C350 C344 1.404 . S
C350 H348 0.949 . S
C350 C349 1.385 . S
H351 C349 0.950 . S
H352 C336 0.951 . S
H353 C338 0.951 . S
H354 C340 0.951 . S
H355 C341 0.950 . S
H356 C342 0.950 . S
H357 C343 0.950 . S
H358 C345 0.950 . S
H359 C346 0.951 . S
C360 C361 1.386 . S
C360 C362 1.383 . S
C360 H376 0.951 . S
C361 C360 1.386 . S
C361 C365 1.383 . S
C362 C360 1.383 . S
C362 C363 1.402 . S
C362 H377 0.951 . S
C363 C362 1.402 . S
C363 C364 1.375 . S
C363 C366 1.481 . S
C364 C363 1.375 . S
C364 C365 1.367 . S
C364 H378 0.951 . S
C365 C361 1.383 . S
C365 C364 1.367 . S
C365 H379 0.950 . S
C366 C363 1.481 . S
C366 C367 1.297 . S
C366 H380 0.950 . S
C367 C366 1.297 . S
C367 C368 1.479 . S
C367 H381 0.950 . S
C368 C367 1.479 . S
C368 C369 1.375 . S
C368 C374 1.404 . S
C369 C368 1.375 . S
C369 C370 1.369 . S
C369 H382 0.950 . S
C370 C369 1.369 . S
C370 C371 1.392 . S
C370 H383 0.951 . S
C371 C370 1.392 . S
C371 C373 1.384 . S
H372 C374 0.949 . S
C373 C371 1.384 . S
C373 C374 1.385 . S
C373 H375 0.950 . S
C374 C368 1.404 . S
C374 H372 0.949 . S
C374 C373 1.385 . S
H375 C373 0.950 . S
H376 C360 0.951 . S
H377 C362 0.951 . S
H378 C364 0.951 . S
H379 C365 0.950 . S
H380 C366 0.950 . S
H381 C367 0.950 . S
H382 C369 0.950 . S
H383 C370 0.951 . S
C384 C385 1.386 . S
C384 C386 1.383 . S
C384 H400 0.951 . S
C385 C384 1.386 . S
C385 C389 1.383 . S
C386 C384 1.383 . S
C386 C387 1.402 . S
C386 H401 0.951 . S
C387 C386 1.402 . S
C387 C388 1.375 . S
C387 C390 1.481 . S
C388 C387 1.375 . S
C388 C389 1.367 . S
C388 H402 0.951 . S
C389 C385 1.383 . S
C389 C388 1.367 . S
C389 H403 0.950 . S
C390 C387 1.481 . S
C390 C391 1.297 . S
C390 H404 0.950 . S
C391 C390 1.297 . S
C391 C392 1.479 . S
C391 H405 0.950 . S
C392 C391 1.479 . S
C392 C393 1.375 . S
C392 C398 1.404 . S
C393 C392 1.375 . S
C393 C394 1.369 . S
C393 H406 0.950 . S
C394 C393 1.369 . S
C394 C395 1.392 . S
C394 H407 0.951 . S
C395 C394 1.392 . S
C395 C397 1.384 . S
H396 C398 0.949 . S
C397 C395 1.384 . S
C397 C398 1.385 . S
C397 H399 0.950 . S
C398 C392 1.404 . S
C398 H396 0.949 . S
C398 C397 1.385 . S
H399 C397 0.950 . S
H400 C384 0.951 . S
H401 C386 0.951 . S
H402 C388 0.951 . S
H403 C389 0.950 . S
H404 C390 0.950 . S
H405 C391 0.950 . S
H406 C393 0.950 . S
H407 C394 0.951 . S
C408 C409 1.386 . S
C408 C410 1.383 . S
C408 H424 0.951 . S
C409 C408 1.386 . S
C409 C413 1.383 . S
C410 C408 1.383 . S
C410 C411 1.402 . S
C410 H425 0.951 . S
C411 C410 1.402 . S
C411 C412 1.375 . S
C411 C414 1.481 . S
C412 C411 1.375 . S
C412 C413 1.367 . S
C412 H426 0.951 . S
C413 C409 1.383 . S
C413 C412 1.367 . S
C413 H427 0.950 . S
C414 C411 1.481 . S
C414 C415 1.297 . S
C414 H428 0.950 . S
C415 C414 1.297 . S
C415 C416 1.479 . S
C415 H429 0.950 . S
C416 C415 1.479 . S
C416 C417 1.375 . S
C416 C422 1.404 . S
C417 C416 1.375 . S
C417 C418 1.369 . S
C417 H430 0.950 . S
C418 C417 1.369 . S
C418 C419 1.392 . S
C418 H431 0.951 . S
C419 C418 1.392 . S
C419 C421 1.384 . S
H420 C422 0.949 . S
C421 C419 1.384 . S
C421 C422 1.385 . S
C421 H423 0.950 . S
C422 C416 1.404 . S
C422 H420 0.949 . S
C422 C421 1.385 . S
H423 C421 0.950 . S
H424 C408 0.951 . S
H425 C410 0.951 . S
H426 C412 0.951 . S
H427 C413 0.950 . S
H428 C414 0.950 . S
H429 C415 0.950 . S
H430 C417 0.950 . S
H431 C418 0.951 . S
C432 C433 1.386 . S
C432 C434 1.383 . S
C432 H448 0.951 . S
C433 C432 1.386 . S
C433 C437 1.383 . S
C434 C432 1.383 . S
C434 C435 1.402 . S
C434 H449 0.951 . S
C435 C434 1.402 . S
C435 C436 1.375 . S
C435 C438 1.481 . S
C436 C435 1.375 . S
C436 C437 1.367 . S
C436 H450 0.951 . S
C437 C433 1.383 . S
C437 C436 1.367 . S
C437 H451 0.950 . S
C438 C435 1.481 . S
C438 C439 1.297 . S
C438 H452 0.950 . S
C439 C438 1.297 . S
C439 C440 1.479 . S
C439 H453 0.950 . S
C440 C439 1.479 . S
C440 C441 1.375 . S
C440 C446 1.404 . S
C441 C440 1.375 . S
C441 C442 1.369 . S
C441 H454 0.950 . S
C442 C441 1.369 . S
C442 C443 1.392 . S
C442 H455 0.951 . S
C443 C442 1.392 . S
C443 C445 1.384 . S
H444 C446 0.949 . S
C445 C443 1.384 . S
C445 C446 1.385 . S
C445 H447 0.950 . S
C446 C440 1.404 . S
C446 H444 0.949 . S
C446 C445 1.385 . S
H447 C445 0.950 . S
H448 C432 0.951 . S
H449 C434 0.951 . S
H450 C436 0.951 . S
H451 C437 0.950 . S
H452 C438 0.950 . S
H453 C439 0.950 . S
H454 C441 0.950 . S
H455 C442 0.951 . S
C456 C457 1.386 . S
C456 C458 1.383 . S
C456 H472 0.951 . S
C457 C456 1.386 . S
C457 C461 1.383 . S
C458 C456 1.383 . S
C458 C459 1.402 . S
C458 H473 0.951 . S
C459 C458 1.402 . S
C459 C460 1.375 . S
C459 C462 1.481 . S
C460 C459 1.375 . S
C460 C461 1.367 . S
C460 H474 0.951 . S
C461 C457 1.383 . S
C461 C460 1.367 . S
C461 H475 0.950 . S
C462 C459 1.481 . S
C462 C463 1.297 . S
C462 H476 0.950 . S
C463 C462 1.297 . S
C463 C464 1.479 . S
C463 H477 0.950 . S
C464 C463 1.479 . S
C464 C465 1.375 . S
C464 C470 1.404 . S
C465 C464 1.375 . S
C465 C466 1.369 . S
C465 H478 0.950 . S
C466 C465 1.369 . S
C466 C467 1.392 . S
C466 H479 0.951 . S
C467 C466 1.392 . S
C467 C469 1.384 . S
H468 C470 0.949 . S
C469 C467 1.384 . S
C469 C470 1.385 . S
C469 H471 0.950 . S
C470 C464 1.404 . S
C470 H468 0.949 . S
C470 C469 1.385 . S
H471 C469 0.950 . S
H472 C456 0.951 . S
H473 C458 0.951 . S
H474 C460 0.951 . S
H475 C461 0.950 . S
H476 C462 0.950 . S
H477 C463 0.950 . S
H478 C465 0.950 . S
H479 C466 0.951 . S
C480 C481 1.386 . S
C480 C482 1.383 . S
C480 H496 0.951 . S
C481 C480 1.386 . S
C481 C485 1.383 . S
C482 C480 1.383 . S
C482 C483 1.402 . S
C482 H497 0.951 1_565 S
C483 C482 1.402 . S
C483 C484 1.375 . S
C483 C486 1.481 . S
C484 C483 1.375 . S
C484 C485 1.367 . S
C484 H498 0.951 . S
C485 C481 1.383 . S
C485 C484 1.367 . S
C485 H499 0.950 . S
C486 C483 1.481 . S
C486 C487 1.287 1_565 S
C486 H500 0.950 . S
C487 C486 1.287 1_545 S
C487 C488 1.484 . S
C487 H501 0.956 . S
C488 C487 1.484 . S
C488 C489 1.375 . S
C488 C494 1.404 1_545 S
C489 C488 1.375 . S
C489 C490 1.369 . S
C489 H502 0.950 . S
C490 C489 1.369 . S
C490 C491 1.392 . S
C490 H503 0.951 . S
C491 C490 1.392 . S
C491 C493 1.384 . S
H492 C494 0.949 . S
C493 C491 1.384 . S
C493 C494 1.385 1_545 S
C493 H495 0.950 . S
C494 C488 1.404 1_565 S
C494 H492 0.949 . S
C494 C493 1.385 1_565 S
H495 C493 0.950 . S
H496 C480 0.951 . S
H497 C482 0.951 1_545 S
H498 C484 0.951 . S
H499 C485 0.950 . S
H500 C486 0.950 . S
H501 C487 0.956 . S
H502 C489 0.950 . S
H503 C490 0.951 . S
C504 C505 1.386 . S
C504 C506 1.383 . S
C504 H520 0.951 . S
C505 C504 1.386 . S
C505 C509 1.383 . S
C506 C504 1.383 . S
C506 C507 1.402 . S
C506 H521 0.951 . S
C507 C506 1.402 . S
C507 C508 1.375 . S
C507 C510 1.481 . S
C508 C507 1.375 . S
C508 C509 1.367 . S
C508 H522 0.951 . S
C509 C505 1.383 . S
C509 C508 1.367 . S
C509 H523 0.950 . S
C510 C507 1.481 . S
C510 C511 1.297 . S
C510 H524 0.950 . S
C511 C510 1.297 . S
C511 C512 1.479 1_565 S
C511 H525 0.950 . S
C512 C511 1.479 1_545 S
C512 C513 1.375 . S
C512 C518 1.406 . S
C513 C512 1.375 . S
C513 C514 1.369 . S
C513 H526 0.950 . S
C514 C513 1.369 . S
C514 C515 1.392 . S
C514 H527 0.951 . S
C515 C514 1.392 . S
C515 C517 1.384 . S
H516 C518 0.943 1_565 S
C517 C515 1.384 . S
C517 C518 1.389 . S
C517 H519 0.950 . S
C518 C512 1.406 . S
C518 H516 0.943 1_545 S
C518 C517 1.389 . S
H519 C517 0.950 . S
H520 C504 0.951 . S
H521 C506 0.951 . S
H522 C508 0.951 . S
H523 C509 0.950 . S
H524 C510 0.950 . S
H525 C511 0.950 . S
H526 C513 0.950 . S
H527 C514 0.951 . S
C528 C529 1.386 . S
C528 C530 1.383 . S
C528 H544 0.951 . S
C529 C528 1.386 . S
C529 C533 1.383 . S
C530 C528 1.383 . S
C530 C531 1.402 . S
C530 H545 0.951 1_565 S
C531 C530 1.402 . S
C531 C532 1.375 . S
C531 C534 1.481 . S
C532 C531 1.375 . S
C532 C533 1.367 . S
C532 H546 0.951 . S
C533 C529 1.383 . S
C533 C532 1.367 . S
C533 H547 0.950 . S
C534 C531 1.481 . S
C534 C535 1.297 . S
C534 H548 0.950 . S
C535 C534 1.297 . S
C535 C536 1.479 1_565 S
C535 H549 0.950 1_565 S
C536 C535 1.479 1_545 S
C536 C537 1.375 . S
C536 C542 1.404 1_545 S
C537 C536 1.375 . S
C537 C538 1.369 . S
C537 H550 0.950 . S
C538 C537 1.369 . S
C538 C539 1.392 . S
C538 H551 0.951 . S
C539 C538 1.392 . S
C539 C541 1.384 . S
H540 C542 0.949 . S
C541 C539 1.384 . S
C541 C542 1.385 1_545 S
C541 H543 0.950 . S
C542 C536 1.404 1_565 S
C542 H540 0.949 . S
C542 C541 1.385 1_565 S
H543 C541 0.950 . S
H544 C528 0.951 . S
H545 C530 0.951 1_545 S
H546 C532 0.951 . S
H547 C533 0.950 . S
H548 C534 0.950 . S
H549 C535 0.950 1_545 S
H550 C537 0.950 . S
H551 C538 0.951 . S
C552 C553 1.386 . S
C552 C554 1.383 . S
C552 H568 0.951 . S
C553 C552 1.386 . S
C553 C557 1.383 . S
C554 C552 1.383 . S
C554 C555 1.402 . S
C554 H569 0.951 . S
C555 C554 1.402 . S
C555 C556 1.375 1_565 S
C555 C558 1.481 1_565 S
C556 C555 1.375 1_545 S
C556 C557 1.367 1_545 S
C556 H570 0.951 . S
C557 C553 1.383 . S
C557 C556 1.367 1_565 S
C557 H571 0.950 . S
C558 C555 1.481 1_545 S
C558 C559 1.297 . S
C558 H572 0.950 . S
C559 C558 1.297 . S
C559 C560 1.479 . S
C559 H573 0.950 1_545 S
C560 C559 1.479 . S
C560 C561 1.375 . S
C560 C566 1.404 . S
C561 C560 1.375 . S
C561 C562 1.369 . S
C561 H574 0.950 1_545 S
C562 C561 1.369 . S
C562 C563 1.392 . S
C562 H575 0.951 . S
C563 C562 1.392 . S
C563 C565 1.384 . S
H564 C566 0.949 . S
C565 C563 1.384 . S
C565 C566 1.385 . S
C565 H567 0.950 . S
C566 C560 1.404 . S
C566 H564 0.949 . S
C566 C565 1.385 . S
H567 C565 0.950 . S
H568 C552 0.951 . S
H569 C554 0.951 . S
H570 C556 0.951 . S
H571 C557 0.950 . S
H572 C558 0.950 . S
H573 C559 0.950 1_565 S
H574 C561 0.950 1_565 S
H575 C562 0.951 . S
C576 C577 1.386 . S
C576 C578 1.383 1_554 S
C576 H592 0.949 1_554 S
C577 C576 1.386 . S
C577 C581 1.383 . S
C578 C576 1.383 1_556 S
C578 C579 1.402 1_556 S
C578 H593 0.951 . S
C579 C578 1.402 1_554 S
C579 C580 1.375 . S
C579 C582 1.480 1_564 S
C580 C579 1.375 . S
C580 C581 1.367 . S
C580 H594 0.951 1_565 S
C581 C577 1.383 . S
C581 C580 1.367 . S
C581 H595 0.950 . S
C582 C579 1.480 1_546 S
C582 C583 1.302 . S
C582 H596 0.946 1_556 S
C583 C582 1.302 . S
C583 C584 1.479 . S
C583 H597 0.950 1_545 S
C584 C583 1.479 . S
C584 C585 1.375 . S
C584 C590 1.404 . S
C585 C584 1.375 . S
C585 C586 1.369 . S
C585 H598 0.950 . S
C586 C585 1.369 . S
C586 C587 1.392 1_556 S
C586 H599 0.951 . S
C587 C586 1.392 1_554 S
C587 C589 1.384 . S
H588 C590 0.949 . S
C589 C587 1.384 . S
C589 C590 1.385 1_554 S
C589 H591 0.950 . S
C590 C584 1.404 . S
C590 H588 0.949 . S
C590 C589 1.385 1_556 S
H591 C589 0.950 . S
H592 C576 0.949 1_556 S
H593 C578 0.951 . S
H594 C580 0.951 1_545 S
H595 C581 0.950 . S
H596 C582 0.946 1_554 S
H597 C583 0.950 1_565 S
H598 C585 0.950 . S
H599 C586 0.951 . S
C600 C601 1.386 . S
C600 C602 1.383 . S
C600 H616 0.951 . S
C601 C600 1.386 . S
C601 C605 1.383 . S
C602 C600 1.383 . S
C602 C603 1.402 . S
C602 H617 0.951 . S
C603 C602 1.402 . S
C603 C604 1.375 . S
C603 C606 1.481 . S
C604 C603 1.375 . S
C604 C605 1.367 . S
C604 H618 0.951 . S
C605 C601 1.383 . S
C605 C604 1.367 . S
C605 H619 0.950 . S
C606 C603 1.481 . S
C606 C607 1.297 1_565 S
C606 H620 0.950 . S
C607 C606 1.297 1_545 S
C607 C608 1.479 . S
C607 H621 0.950 . S
C608 C607 1.479 . S
C608 C609 1.375 . S
C608 C614 1.404 . S
C609 C608 1.375 . S
C609 C610 1.369 . S
C609 H622 0.950 . S
C610 C609 1.369 . S
C610 C611 1.392 . S
C610 H623 0.951 . S
C611 C610 1.392 . S
C611 C613 1.384 . S
H612 C614 0.949 . S
C613 C611 1.384 . S
C613 C614 1.385 . S
C613 H615 0.950 . S
C614 C608 1.404 . S
C614 H612 0.949 . S
C614 C613 1.385 . S
H615 C613 0.950 . S
H616 C600 0.951 . S
H617 C602 0.951 . S
H618 C604 0.951 . S
H619 C605 0.950 . S
H620 C606 0.950 . S
H621 C607 0.950 . S
H622 C609 0.950 . S
H623 C610 0.951 . S
C624 C625 1.386 . S
C624 C626 1.383 . S
C624 H640 0.951 . S
C625 C624 1.386 . S
C625 C629 1.383 1_554 S
C626 C624 1.383 . S
C626 C627 1.402 1_554 S
C626 H641 0.951 . S
C627 C626 1.402 1_556 S
C627 C628 1.375 . S
C627 C630 1.481 . S
C628 C627 1.375 . S
C628 C629 1.367 . S
C628 H642 0.951 . S
C629 C625 1.383 1_556 S
C629 C628 1.367 . S
C629 H643 0.950 . S
C630 C627 1.481 . S
C630 C631 1.297 1_456 S
C630 H644 0.950 . S
C631 C630 1.297 1_654 S
C631 C632 1.479 . S
C631 H645 0.950 . S
C632 C631 1.479 . S
C632 C633 1.375 . S
C632 C638 1.404 1_554 S
C633 C632 1.375 . S
C633 C634 1.369 . S
C633 H646 0.950 . S
C634 C633 1.369 . S
C634 C635 1.392 . S
C634 H647 0.951 . S
C635 C634 1.392 . S
C635 C637 1.384 1_554 S
H636 C638 0.949 . S
C637 C635 1.384 1_556 S
C637 C638 1.385 . S
C637 H639 0.950 . S
C638 C632 1.404 1_556 S
C638 H636 0.949 . S
C638 C637 1.385 . S
H639 C637 0.950 . S
H640 C624 0.951 . S
H641 C626 0.951 . S
H642 C628 0.951 . S
H643 C629 0.950 . S
H644 C630 0.950 . S
H645 C631 0.950 . S
H646 C633 0.950 . S
H647 C634 0.951 . S
C648 C649 1.386 . S
C648 C650 1.383 . S
C648 H664 0.951 . S
C649 C648 1.386 . S
C649 C653 1.383 . S
C650 C648 1.383 . S
C650 C651 1.402 . S
C650 H665 0.951 . S
C651 C650 1.402 . S
C651 C652 1.375 . S
C651 C654 1.481 . S
C652 C651 1.375 . S
C652 C653 1.367 . S
C652 H666 0.951 . S
C653 C649 1.383 . S
C653 C652 1.367 . S
C653 H667 0.950 . S
C654 C651 1.481 . S
C654 C655 1.297 . S
C654 H668 0.950 1_455 S
C655 C654 1.297 . S
C655 C656 1.479 1_455 S
C655 H669 0.950 . S
C656 C655 1.479 1_655 S
C656 C657 1.375 . S
C656 C662 1.404 . S
C657 C656 1.375 . S
C657 C658 1.369 . S
C657 H670 0.950 . S
C658 C657 1.369 . S
C658 C659 1.392 . S
C658 H671 0.951 . S
C659 C658 1.392 . S
C659 C661 1.384 . S
H660 C662 0.949 . S
C661 C659 1.384 . S
C661 C662 1.385 . S
C661 H663 0.950 . S
C662 C656 1.404 . S
C662 H660 0.949 . S
C662 C661 1.385 . S
H663 C661 0.950 . S
H664 C648 0.951 . S
H665 C650 0.951 . S
H666 C652 0.951 . S
H667 C653 0.950 . S
H668 C654 0.950 1_655 S
H669 C655 0.950 . S
H670 C657 0.950 . S
H671 C658 0.951 . S
C289 C183 1.498 . S
C299 C3 1.487 . S
C313 C147 1.505 . S
C323 C39 1.496 . S
C337 C255 1.499 . S
C347 C75 1.486 . S
C361 C219 1.499 . S
C371 C111 1.501 . S
C385 C14 1.331 . S
C395 C86 1.308 . S
C409 C50 1.366 . S
C419 C122 1.374 . S
C433 C38 1.344 . S
C443 C110 1.308 . S
C457 C2 1.346 . S
C467 C74 1.347 . S
C481 C158 1.351 . S
C491 C230 1.309 . S
C505 C266 1.358 . S
C515 C194 1.317 . S
C529 C254 1.312 . S
C539 C182 1.331 . S
C553 C146 1.347 . S
C563 C218 1.318 . S
C577 C40 1.500 . S
C587 C4 1.483 . S
C601 C76 1.490 . S
C611 C112 1.499 . S
C625 C148 1.493 . S
C635 C184 1.496 . S
C649 C220 1.498 . S
C659 C256 1.485 . S
