# Generated by pormake.
# Topology mer, (4)-cn, num edge types: 1
# Building blocks:
#     Node 0, Type 0, BuildingBlock: CEKHIL_clean_sbu_0, # of connection points: 4
#     Node 1, Type 0, BuildingBlock: CEKHIL_clean_sbu_0, # of connection points: 4
#     Node 2, Type 0, BuildingBlock: CEKHIL_clean_sbu_0, # of connection points: 4
#     Node 3, Type 0, BuildingBlock: CEKHIL_clean_sbu_0, # of connection points: 4
#     Node 4, Type 0, BuildingBlock: CEKHIL_clean_sbu_0, # of connection points: 4
#     Node 5, Type 0, BuildingBlock: CEKHIL_clean_sbu_0, # of connection points: 4
#     Node 6, Type 0, BuildingBlock: CEKHIL_clean_sbu_0, # of connection points: 4
#     Node 7, Type 0, BuildingBlock: CEKHIL_clean_sbu_0, # of connection points: 4
#     Node 8, Type 0, BuildingBlock: CEKHIL_clean_sbu_0, # of connection points: 4
#     Node 9, Type 0, BuildingBlock: CEKHIL_clean_sbu_0, # of connection points: 4
#     Node 10, Type 0, BuildingBlock: CEKHIL_clean_sbu_0, # of connection points: 4
#     Node 11, Type 0, BuildingBlock: CEKHIL_clean_sbu_0, # of connection points: 4
#     Node 12, Type 0, BuildingBlock: CEKHIL_clean_sbu_0, # of connection points: 4
#     Node 13, Type 0, BuildingBlock: CEKHIL_clean_sbu_0, # of connection points: 4
#     Node 14, Type 0, BuildingBlock: CEKHIL_clean_sbu_0, # of connection points: 4
#     Node 15, Type 0, BuildingBlock: CEKHIL_clean_sbu_0, # of connection points: 4
#     Node 16, Type 0, BuildingBlock: CEKHIL_clean_sbu_0, # of connection points: 4
#     Node 17, Type 0, BuildingBlock: CEKHIL_clean_sbu_0, # of connection points: 4
#     Node 18, Type 0, BuildingBlock: CEKHIL_clean_sbu_0, # of connection points: 4
#     Node 19, Type 0, BuildingBlock: CEKHIL_clean_sbu_0, # of connection points: 4
#     Node 20, Type 0, BuildingBlock: CEKHIL_clean_sbu_0, # of connection points: 4
#     Node 21, Type 0, BuildingBlock: CEKHIL_clean_sbu_0, # of connection points: 4
#     Node 22, Type 0, BuildingBlock: CEKHIL_clean_sbu_0, # of connection points: 4
#     Node 23, Type 0, BuildingBlock: CEKHIL_clean_sbu_0, # of connection points: 4
#     Node 24, Type 0, BuildingBlock: CEKHIL_clean_sbu_0, # of connection points: 4
#     Node 25, Type 0, BuildingBlock: CEKHIL_clean_sbu_0, # of connection points: 4
#     Node 26, Type 0, BuildingBlock: CEKHIL_clean_sbu_0, # of connection points: 4
#     Node 27, Type 0, BuildingBlock: CEKHIL_clean_sbu_0, # of connection points: 4
#     Node 28, Type 0, BuildingBlock: CEKHIL_clean_sbu_0, # of connection points: 4
#     Node 29, Type 0, BuildingBlock: CEKHIL_clean_sbu_0, # of connection points: 4
#     Node 30, Type 0, BuildingBlock: CEKHIL_clean_sbu_0, # of connection points: 4
#     Node 31, Type 0, BuildingBlock: CEKHIL_clean_sbu_0, # of connection points: 4
#     Edge 32, Type (0, 0), BuildingBlock: OJICUG_clean_linker_0, # of connection points: 2
#     Edge 33, Type (0, 0), BuildingBlock: OJICUG_clean_linker_0, # of connection points: 2
#     Edge 34, Type (0, 0), BuildingBlock: OJICUG_clean_linker_0, # of connection points: 2
#     Edge 35, Type (0, 0), BuildingBlock: OJICUG_clean_linker_0, # of connection points: 2
#     Edge 36, Type (0, 0), BuildingBlock: OJICUG_clean_linker_0, # of connection points: 2
#     Edge 37, Type (0, 0), BuildingBlock: OJICUG_clean_linker_0, # of connection points: 2
#     Edge 38, Type (0, 0), BuildingBlock: OJICUG_clean_linker_0, # of connection points: 2
#     Edge 39, Type (0, 0), BuildingBlock: OJICUG_clean_linker_0, # of connection points: 2
#     Edge 40, Type (0, 0), BuildingBlock: OJICUG_clean_linker_0, # of connection points: 2
#     Edge 41, Type (0, 0), BuildingBlock: OJICUG_clean_linker_0, # of connection points: 2
#     Edge 42, Type (0, 0), BuildingBlock: OJICUG_clean_linker_0, # of connection points: 2
#     Edge 43, Type (0, 0), BuildingBlock: OJICUG_clean_linker_0, # of connection points: 2
#     Edge 44, Type (0, 0), BuildingBlock: OJICUG_clean_linker_0, # of connection points: 2
#     Edge 45, Type (0, 0), BuildingBlock: OJICUG_clean_linker_0, # of connection points: 2
#     Edge 46, Type (0, 0), BuildingBlock: OJICUG_clean_linker_0, # of connection points: 2
#     Edge 47, Type (0, 0), BuildingBlock: OJICUG_clean_linker_0, # of connection points: 2
#     Edge 48, Type (0, 0), BuildingBlock: OJICUG_clean_linker_0, # of connection points: 2
#     Edge 49, Type (0, 0), BuildingBlock: OJICUG_clean_linker_0, # of connection points: 2
#     Edge 50, Type (0, 0), BuildingBlock: OJICUG_clean_linker_0, # of connection points: 2
#     Edge 51, Type (0, 0), BuildingBlock: OJICUG_clean_linker_0, # of connection points: 2
#     Edge 52, Type (0, 0), BuildingBlock: OJICUG_clean_linker_0, # of connection points: 2
#     Edge 53, Type (0, 0), BuildingBlock: OJICUG_clean_linker_0, # of connection points: 2
#     Edge 54, Type (0, 0), BuildingBlock: OJICUG_clean_linker_0, # of connection points: 2
#     Edge 55, Type (0, 0), BuildingBlock: OJICUG_clean_linker_0, # of connection points: 2
#     Edge 56, Type (0, 0), BuildingBlock: OJICUG_clean_linker_0, # of connection points: 2
#     Edge 57, Type (0, 0), BuildingBlock: OJICUG_clean_linker_0, # of connection points: 2
#     Edge 58, Type (0, 0), BuildingBlock: OJICUG_clean_linker_0, # of connection points: 2
#     Edge 59, Type (0, 0), BuildingBlock: OJICUG_clean_linker_0, # of connection points: 2
#     Edge 60, Type (0, 0), BuildingBlock: OJICUG_clean_linker_0, # of connection points: 2
#     Edge 61, Type (0, 0), BuildingBlock: OJICUG_clean_linker_0, # of connection points: 2
#     Edge 62, Type (0, 0), BuildingBlock: OJICUG_clean_linker_0, # of connection points: 2
#     Edge 63, Type (0, 0), BuildingBlock: OJICUG_clean_linker_0, # of connection points: 2
#     Edge 64, Type (0, 0), BuildingBlock: OJICUG_clean_linker_0, # of connection points: 2
#     Edge 65, Type (0, 0), BuildingBlock: OJICUG_clean_linker_0, # of connection points: 2
#     Edge 66, Type (0, 0), BuildingBlock: OJICUG_clean_linker_0, # of connection points: 2
#     Edge 67, Type (0, 0), BuildingBlock: OJICUG_clean_linker_0, # of connection points: 2
#     Edge 68, Type (0, 0), BuildingBlock: OJICUG_clean_linker_0, # of connection points: 2
#     Edge 69, Type (0, 0), BuildingBlock: OJICUG_clean_linker_0, # of connection points: 2
#     Edge 70, Type (0, 0), BuildingBlock: OJICUG_clean_linker_0, # of connection points: 2
#     Edge 71, Type (0, 0), BuildingBlock: OJICUG_clean_linker_0, # of connection points: 2
#     Edge 72, Type (0, 0), BuildingBlock: OJICUG_clean_linker_0, # of connection points: 2
#     Edge 73, Type (0, 0), BuildingBlock: OJICUG_clean_linker_0, # of connection points: 2
#     Edge 74, Type (0, 0), BuildingBlock: OJICUG_clean_linker_0, # of connection points: 2
#     Edge 75, Type (0, 0), BuildingBlock: OJICUG_clean_linker_0, # of connection points: 2
#     Edge 76, Type (0, 0), BuildingBlock: OJICUG_clean_linker_0, # of connection points: 2
#     Edge 77, Type (0, 0), BuildingBlock: OJICUG_clean_linker_0, # of connection points: 2
#     Edge 78, Type (0, 0), BuildingBlock: OJICUG_clean_linker_0, # of connection points: 2
#     Edge 79, Type (0, 0), BuildingBlock: OJICUG_clean_linker_0, # of connection points: 2
#     Edge 80, Type (0, 0), BuildingBlock: OJICUG_clean_linker_0, # of connection points: 2
#     Edge 81, Type (0, 0), BuildingBlock: OJICUG_clean_linker_0, # of connection points: 2
#     Edge 82, Type (0, 0), BuildingBlock: OJICUG_clean_linker_0, # of connection points: 2
#     Edge 83, Type (0, 0), BuildingBlock: OJICUG_clean_linker_0, # of connection points: 2
#     Edge 84, Type (0, 0), BuildingBlock: OJICUG_clean_linker_0, # of connection points: 2
#     Edge 85, Type (0, 0), BuildingBlock: OJICUG_clean_linker_0, # of connection points: 2
#     Edge 86, Type (0, 0), BuildingBlock: OJICUG_clean_linker_0, # of connection points: 2
#     Edge 87, Type (0, 0), BuildingBlock: OJICUG_clean_linker_0, # of connection points: 2
#     Edge 88, Type (0, 0), BuildingBlock: OJICUG_clean_linker_0, # of connection points: 2
#     Edge 89, Type (0, 0), BuildingBlock: OJICUG_clean_linker_0, # of connection points: 2
#     Edge 90, Type (0, 0), BuildingBlock: OJICUG_clean_linker_0, # of connection points: 2
#     Edge 91, Type (0, 0), BuildingBlock: OJICUG_clean_linker_0, # of connection points: 2
#     Edge 92, Type (0, 0), BuildingBlock: OJICUG_clean_linker_0, # of connection points: 2
#     Edge 93, Type (0, 0), BuildingBlock: OJICUG_clean_linker_0, # of connection points: 2
#     Edge 94, Type (0, 0), BuildingBlock: OJICUG_clean_linker_0, # of connection points: 2
#     Edge 95, Type (0, 0), BuildingBlock: OJICUG_clean_linker_0, # of connection points: 2
# Relax obj value: 0.064
# Max RMSD: 0.120
# Mean RMSD: 0.120
data_MOF--net-mer--node1-CEKHIL_clean_sbu_0--edge1-OJICUG_clean_linker_0
_symmetry_space_group_name_H-M    P1
_symmetry_Int_Tables_number       1
_symmetry_cell_setting            triclinic
loop_
_symmetry_equiv_pos_as_xyz
'x, y, z'
_cell_length_a     45.399607
_cell_length_b     45.396317
_cell_length_c     38.556083
_cell_angle_alpha  89.999727
_cell_angle_beta   89.999166
_cell_angle_gamma 90.00626
loop_
_atom_site_label
_atom_site_type_symbol
_atom_site_fract_x
_atom_site_fract_y
_atom_site_fract_z
_atom_type_partial_charge
Co0 Co 0.1142 0.29163 0.35467 0.0
O1 O 0.07788 0.31274 0.35949 0.0
O2 O 0.08182 0.26426 0.36254 0.0
C3 C 0.1299 0.31642 0.30725 0.0
O4 O 0.14834 0.26241 0.34957 0.0
Co5 Co 0.17382 0.32547 0.3607 0.0
O6 O 0.189 0.28919 0.3384 0.0
C7 C 0.13916 0.31195 0.42382 0.0
C8 C 0.06498 0.28748 0.36335 0.0
C9 C 0.17546 0.26461 0.3399 0.0
O10 O 0.12154 0.29543 0.40625 0.0
O11 O 0.15964 0.32733 0.40985 0.0
O12 O 0.11158 0.29459 0.30401 0.0
O13 O 0.13584 0.32394 0.33869 0.0
Co14 Co 0.71171 0.11409 0.35455 0.0
O15 O 0.69059 0.07772 0.35866 0.0
O16 O 0.73903 0.08165 0.36229 0.0
C17 C 0.68728 0.13029 0.30709 0.0
O18 O 0.74089 0.14836 0.3502 0.0
Co19 Co 0.67751 0.17346 0.36137 0.0
O20 O 0.71395 0.1891 0.33985 0.0
C21 C 0.69049 0.13792 0.42387 0.0
C22 C 0.7158 0.0648 0.36269 0.0
C23 C 0.73858 0.17562 0.34112 0.0
O24 O 0.70752 0.12088 0.40619 0.0
O25 O 0.67494 0.15836 0.4101 0.0
O26 O 0.70913 0.112 0.30381 0.0
O27 O 0.6795 0.13584 0.33854 0.0
Co28 Co 0.88891 0.71147 0.35462 0.0
O29 O 0.92525 0.69033 0.3588 0.0
O30 O 0.92137 0.73879 0.36233 0.0
C31 C 0.87273 0.687 0.30719 0.0
O32 O 0.8547 0.74069 0.35017 0.0
Co33 Co 0.82945 0.67742 0.36137 0.0
O34 O 0.81396 0.71382 0.33962 0.0
C35 C 0.86488 0.69048 0.42395 0.0
C36 C 0.93819 0.71555 0.36276 0.0
C37 C 0.82748 0.73842 0.34093 0.0
O38 O 0.88206 0.70737 0.40626 0.0
O39 O 0.84439 0.675 0.41018 0.0
O40 O 0.89105 0.70883 0.30389 0.0
O41 O 0.86713 0.67926 0.33864 0.0
Co42 Co 0.29131 0.88918 0.35476 0.0
O43 O 0.31238 0.92559 0.3588 0.0
O44 O 0.26395 0.9216 0.36254 0.0
C45 C 0.31566 0.87295 0.30728 0.0
O46 O 0.26219 0.85486 0.35051 0.0
Co47 Co 0.32566 0.8299 0.36165 0.0
O48 O 0.28922 0.81417 0.34022 0.0
C49 C 0.31272 0.86552 0.42409 0.0
C50 C 0.28715 0.93847 0.36291 0.0
C51 C 0.26456 0.82759 0.34147 0.0
O52 O 0.29559 0.88246 0.40641 0.0
O53 O 0.32832 0.84511 0.41033 0.0
O54 O 0.2938 0.89123 0.30401 0.0
O55 O 0.32352 0.86747 0.33872 0.0
Co56 Co 0.11488 0.71159 0.64286 0.0
O57 O 0.07852 0.69047 0.63867 0.0
O58 O 0.08243 0.73892 0.63514 0.0
C59 C 0.13099 0.68707 0.69028 0.0
O60 O 0.14911 0.7408 0.6473 0.0
Co61 Co 0.17429 0.67748 0.63612 0.0
O62 O 0.1899 0.71395 0.65761 0.0
C63 C 0.13881 0.69049 0.57357 0.0
C64 C 0.06559 0.71569 0.6347 0.0
C65 C 0.17638 0.73855 0.65635 0.0
O66 O 0.12172 0.70748 0.59124 0.0
O67 O 0.15925 0.67495 0.58736 0.0
O68 O 0.11272 0.70894 0.69359 0.0
O69 O 0.13661 0.67936 0.65883 0.0
Co70 Co 0.29103 0.11493 0.64354 0.0
O71 O 0.31232 0.0787 0.63889 0.0
O72 O 0.26383 0.08238 0.63578 0.0
C73 C 0.31574 0.13088 0.69094 0.0
O74 O 0.26162 0.14893 0.64851 0.0
Co75 Co 0.32454 0.17472 0.63732 0.0
O76 O 0.28819 0.18975 0.6596 0.0
C77 C 0.31129 0.1398 0.5743 0.0
C78 C 0.28713 0.06566 0.63509 0.0
C79 C 0.26368 0.17607 0.65814 0.0
O80 O 0.29482 0.12216 0.59191 0.0
O81 O 0.32656 0.16038 0.58823 0.0
O82 O 0.29399 0.11247 0.69424 0.0
O83 O 0.32322 0.13679 0.65948 0.0
Co84 Co 0.88819 0.29142 0.64316 0.0
O85 O 0.92454 0.31255 0.63883 0.0
O86 O 0.92062 0.26409 0.63536 0.0
C87 C 0.87212 0.31596 0.69059 0.0
O88 O 0.85397 0.26221 0.6477 0.0
Co89 Co 0.82876 0.32552 0.63649 0.0
O90 O 0.81319 0.28907 0.65805 0.0
C91 C 0.86414 0.31244 0.57388 0.0
C92 C 0.93745 0.28733 0.6348 0.0
C93 C 0.82671 0.26447 0.65679 0.0
O94 O 0.88127 0.29549 0.59154 0.0
O95 O 0.8437 0.32798 0.58767 0.0
O96 O 0.89043 0.29412 0.69388 0.0
O97 O 0.86646 0.32365 0.65914 0.0
Co98 Co 0.71192 0.88826 0.64329 0.0
O99 O 0.69075 0.92457 0.63884 0.0
O100 O 0.73922 0.92073 0.6355 0.0
C101 C 0.68731 0.87228 0.69073 0.0
O102 O 0.74119 0.85412 0.648 0.0
Co103 Co 0.67803 0.82869 0.63688 0.0
O104 O 0.71443 0.81334 0.65874 0.0
C105 C 0.69119 0.86383 0.57405 0.0
C106 C 0.71597 0.93753 0.63491 0.0
C107 C 0.739 0.82691 0.65734 0.0
O108 O 0.70794 0.8812 0.59167 0.0
O109 O 0.67577 0.84334 0.58794 0.0
O110 O 0.70913 0.89061 0.69401 0.0
O111 O 0.6797 0.86651 0.65928 0.0
Co112 Co 0.88902 0.71157 0.64325 0.0
O113 O 0.92537 0.69044 0.63897 0.0
O114 O 0.92146 0.7389 0.63546 0.0
C115 C 0.87291 0.6871 0.69071 0.0
O116 O 0.85481 0.74078 0.64777 0.0
Co117 Co 0.82957 0.6775 0.63661 0.0
O118 O 0.81409 0.7139 0.65837 0.0
C119 C 0.86492 0.69055 0.57397 0.0
C120 C 0.93829 0.71567 0.63497 0.0
C121 C 0.8276 0.73851 0.65705 0.0
O122 O 0.8821 0.70747 0.59162 0.0
O123 O 0.84446 0.67505 0.58778 0.0
O124 O 0.89123 0.70892 0.69398 0.0
O125 O 0.86727 0.67936 0.65926 0.0
Co126 Co 0.2915 0.889 0.64342 0.0
O127 O 0.31257 0.92541 0.63953 0.0
O128 O 0.26414 0.92143 0.63571 0.0
C129 C 0.31581 0.87266 0.69089 0.0
O130 O 0.26237 0.85466 0.64752 0.0
Co131 Co 0.32585 0.82974 0.63637 0.0
O132 O 0.28939 0.81394 0.65767 0.0
C133 C 0.31288 0.86545 0.57402 0.0
C134 C 0.28735 0.93831 0.63545 0.0
C135 C 0.26473 0.82736 0.65644 0.0
O136 O 0.29579 0.88239 0.59176 0.0
O137 O 0.32847 0.84501 0.58771 0.0
O138 O 0.29394 0.89092 0.69418 0.0
O139 O 0.32369 0.86725 0.65944 0.0
Co140 Co 0.11394 0.29146 0.64307 0.0
O141 O 0.07765 0.31262 0.6382 0.0
O142 O 0.08154 0.26414 0.63514 0.0
C143 C 0.12961 0.31621 0.69053 0.0
O144 O 0.14802 0.26218 0.64823 0.0
Co145 Co 0.17364 0.3252 0.63721 0.0
O146 O 0.18869 0.2889 0.65958 0.0
C147 C 0.13904 0.3118 0.574 0.0
C148 C 0.06473 0.28738 0.63433 0.0
C149 C 0.17511 0.26434 0.65802 0.0
O150 O 0.12136 0.29528 0.59151 0.0
O151 O 0.15952 0.32713 0.58805 0.0
O152 O 0.11126 0.29441 0.69374 0.0
O153 O 0.13561 0.32373 0.65911 0.0
Co154 Co 0.7116 0.11412 0.64317 0.0
O155 O 0.69056 0.07771 0.63903 0.0
O156 O 0.739 0.08174 0.63544 0.0
C157 C 0.68713 0.13027 0.69061 0.0
O158 O 0.7407 0.14845 0.64755 0.0
Co159 Co 0.67728 0.17342 0.63632 0.0
O160 O 0.71368 0.18913 0.65785 0.0
C161 C 0.69039 0.13791 0.57383 0.0
C162 C 0.7158 0.06484 0.63501 0.0
C163 C 0.73833 0.17571 0.65662 0.0
O164 O 0.70743 0.1209 0.59153 0.0
O165 O 0.67478 0.15832 0.58758 0.0
O166 O 0.709 0.11202 0.69391 0.0
O167 O 0.67934 0.1358 0.65916 0.0
Co168 Co 0.88843 0.29134 0.35466 0.0
O169 O 0.92476 0.31251 0.35901 0.0
O170 O 0.92088 0.26404 0.3625 0.0
C171 C 0.87238 0.31585 0.3072 0.0
O172 O 0.85424 0.2621 0.35011 0.0
Co173 Co 0.82896 0.32538 0.36123 0.0
O174 O 0.81345 0.28891 0.33966 0.0
C175 C 0.86429 0.31238 0.42389 0.0
C176 C 0.93769 0.28729 0.36304 0.0
C177 C 0.82699 0.26432 0.34097 0.0
O178 O 0.88146 0.29543 0.40628 0.0
O179 O 0.84386 0.32789 0.41005 0.0
O180 O 0.8907 0.29402 0.30394 0.0
O181 O 0.86669 0.32355 0.33865 0.0
Co182 Co 0.7118 0.88819 0.35468 0.0
O183 O 0.69062 0.9245 0.35907 0.0
O184 O 0.73909 0.92067 0.36241 0.0
C185 C 0.68719 0.87215 0.30727 0.0
O186 O 0.74108 0.85404 0.35002 0.0
Co187 Co 0.67792 0.82861 0.36119 0.0
O188 O 0.71432 0.81326 0.33932 0.0
C189 C 0.69111 0.86381 0.42397 0.0
C190 C 0.71584 0.93747 0.36296 0.0
C191 C 0.73889 0.82683 0.3407 0.0
O192 O 0.70783 0.88118 0.40631 0.0
O193 O 0.6757 0.84329 0.41012 0.0
O194 O 0.70901 0.89047 0.30396 0.0
O195 O 0.67958 0.86641 0.33873 0.0
Co196 Co 0.1148 0.71166 0.35436 0.0
O197 O 0.07848 0.69047 0.35853 0.0
O198 O 0.08232 0.73893 0.36212 0.0
C199 C 0.13094 0.68719 0.30691 0.0
O200 O 0.14899 0.74092 0.34997 0.0
Co201 Co 0.17428 0.67764 0.36104 0.0
O202 O 0.18983 0.71416 0.33964 0.0
C203 C 0.13877 0.69054 0.42362 0.0
C204 C 0.06552 0.71567 0.36254 0.0
C205 C 0.17627 0.73874 0.34095 0.0
O206 O 0.12165 0.70751 0.40598 0.0
O207 O 0.15925 0.67505 0.40981 0.0
O208 O 0.11265 0.70903 0.30363 0.0
O209 O 0.13659 0.67947 0.33836 0.0
Co210 Co 0.29115 0.11505 0.35483 0.0
O211 O 0.31234 0.07876 0.35956 0.0
O212 O 0.26385 0.08259 0.36256 0.0
C213 C 0.31596 0.13091 0.30747 0.0
O214 O 0.26186 0.14913 0.34978 0.0
Co215 Co 0.32485 0.17473 0.36113 0.0
O216 O 0.28857 0.18988 0.33878 0.0
C217 C 0.31141 0.13985 0.42411 0.0
C218 C 0.28711 0.0658 0.36334 0.0
C219 C 0.26403 0.17627 0.34017 0.0
O220 O 0.29489 0.12228 0.40647 0.0
O221 O 0.32677 0.16038 0.41021 0.0
O222 O 0.29418 0.11256 0.30415 0.0
O223 O 0.32343 0.1368 0.33894 0.0
Co224 Co 0.61398 0.79158 0.85465 0.0
O225 O 0.57755 0.81259 0.85869 0.0
O226 O 0.5816 0.76416 0.86232 0.0
C227 C 0.63019 0.81604 0.80723 0.0
O228 O 0.64831 0.76249 0.85036 0.0
Co229 Co 0.67325 0.82592 0.86162 0.0
O230 O 0.689 0.78953 0.84012 0.0
C231 C 0.63765 0.81282 0.92404 0.0
C232 C 0.56469 0.78734 0.86269 0.0
C233 C 0.67558 0.76486 0.84133 0.0
O234 O 0.62067 0.79577 0.90631 0.0
O235 O 0.65808 0.82842 0.91033 0.0
O236 O 0.61196 0.79415 0.80391 0.0
O237 O 0.63568 0.82385 0.83869 0.0
Co238 Co 0.21116 0.61367 0.85442 0.0
O239 O 0.18997 0.57734 0.85869 0.0
O240 O 0.23842 0.58121 0.86237 0.0
C241 C 0.18683 0.62978 0.80688 0.0
O242 O 0.24043 0.64785 0.84998 0.0
Co243 Co 0.17714 0.67317 0.86088 0.0
O244 O 0.21364 0.68863 0.83934 0.0
C245 C 0.19004 0.63787 0.9236 0.0
C246 C 0.21517 0.5644 0.86284 0.0
C247 C 0.23823 0.67508 0.84076 0.0
O248 O 0.20695 0.62064 0.90601 0.0
O249 O 0.17459 0.65833 0.90972 0.0
O250 O 0.20862 0.61142 0.80368 0.0
O251 O 0.17903 0.63544 0.83829 0.0
Co252 Co 0.38888 0.21184 0.8548 0.0
O253 O 0.4252 0.19068 0.85927 0.0
O254 O 0.42135 0.23916 0.86245 0.0
C255 C 0.37282 0.18716 0.80745 0.0
O256 O 0.35473 0.24108 0.84999 0.0
Co257 Co 0.32936 0.17794 0.86149 0.0
O258 O 0.31403 0.2142 0.83928 0.0
C259 C 0.36459 0.19124 0.92418 0.0
C260 C 0.43815 0.21591 0.86309 0.0
C261 C 0.32756 0.2388 0.84052 0.0
O262 O 0.38188 0.208 0.90646 0.0
O263 O 0.3441 0.17575 0.91041 0.0
O264 O 0.39117 0.20895 0.8041 0.0
O265 O 0.36711 0.17957 0.83893 0.0
Co266 Co 0.79137 0.38903 0.85461 0.0
O267 O 0.81242 0.42543 0.85877 0.0
O268 O 0.76398 0.42142 0.86238 0.0
C269 C 0.81583 0.37292 0.80714 0.0
O270 O 0.76225 0.35473 0.85021 0.0
Co271 Co 0.82564 0.3297 0.86135 0.0
O272 O 0.78924 0.31404 0.83978 0.0
C273 C 0.81258 0.36514 0.92391 0.0
C274 C 0.78718 0.43831 0.8628 0.0
C275 C 0.76459 0.32748 0.84107 0.0
O276 O 0.79555 0.3822 0.90625 0.0
O277 O 0.82815 0.34473 0.91012 0.0
O278 O 0.79395 0.39117 0.80387 0.0
O279 O 0.82362 0.36735 0.83859 0.0
Co280 Co 0.61482 0.21175 0.14316 0.0
O281 O 0.57845 0.19066 0.13889 0.0
O282 O 0.58242 0.23912 0.13543 0.0
C283 C 0.63089 0.1872 0.19059 0.0
O284 O 0.64907 0.24092 0.14767 0.0
Co285 Co 0.67423 0.17761 0.13649 0.0
O286 O 0.68981 0.21402 0.15813 0.0
C287 C 0.63888 0.19076 0.07386 0.0
C288 C 0.56555 0.2159 0.13494 0.0
C289 C 0.67632 0.23864 0.15683 0.0
O290 O 0.62171 0.20767 0.09153 0.0
O291 O 0.65932 0.17523 0.08766 0.0
O292 O 0.61262 0.20906 0.19389 0.0
O293 O 0.63652 0.17949 0.15913 0.0
Co294 Co 0.79105 0.61477 0.14324 0.0
O295 O 0.81222 0.57845 0.13897 0.0
O296 O 0.76376 0.58229 0.13548 0.0
C297 C 0.81557 0.63086 0.19068 0.0
O298 O 0.76181 0.64896 0.14775 0.0
Co299 Co 0.82508 0.67426 0.13662 0.0
O300 O 0.78863 0.68975 0.15822 0.0
C301 C 0.81206 0.63888 0.07397 0.0
C302 C 0.78702 0.56549 0.135 0.0
C303 C 0.76404 0.67621 0.1569 0.0
O304 O 0.79514 0.62169 0.09161 0.0
O305 O 0.82754 0.65934 0.0878 0.0
O306 O 0.79374 0.61256 0.19397 0.0
O307 O 0.82326 0.63653 0.15923 0.0
Co308 Co 0.38788 0.79103 0.14344 0.0
O309 O 0.42419 0.81224 0.13929 0.0
O310 O 0.42041 0.76377 0.13581 0.0
C311 C 0.37165 0.81555 0.19082 0.0
O312 O 0.35371 0.76175 0.14784 0.0
Co313 Co 0.32841 0.825 0.13655 0.0
O314 O 0.31287 0.78854 0.15812 0.0
C315 C 0.36396 0.81197 0.07405 0.0
C316 C 0.43719 0.78705 0.13537 0.0
C317 C 0.32643 0.76396 0.15688 0.0
O318 O 0.3811 0.79508 0.09178 0.0
O319 O 0.34345 0.82746 0.08778 0.0
O320 O 0.38996 0.79373 0.19417 0.0
O321 O 0.36605 0.82323 0.15935 0.0
Co322 Co 0.21153 0.38807 0.14302 0.0
O323 O 0.19027 0.42427 0.13783 0.0
O324 O 0.23877 0.42052 0.13498 0.0
C325 C 0.18667 0.37257 0.19048 0.0
O326 O 0.24094 0.35412 0.14847 0.0
Co327 Co 0.17812 0.32816 0.13759 0.0
O328 O 0.21445 0.31337 0.16011 0.0
C329 C 0.19166 0.36236 0.07406 0.0
C330 C 0.21548 0.43726 0.13399 0.0
C331 C 0.23893 0.32706 0.15842 0.0
O332 O 0.20787 0.38037 0.09149 0.0
O333 O 0.17647 0.34183 0.08824 0.0
O334 O 0.20842 0.39099 0.19366 0.0
O335 O 0.1793 0.36636 0.15907 0.0
Co336 Co 0.389 0.21195 0.14358 0.0
O337 O 0.4253 0.19078 0.13904 0.0
O338 O 0.42145 0.23926 0.13586 0.0
C339 C 0.37298 0.18727 0.19096 0.0
O340 O 0.35486 0.24121 0.14842 0.0
Co341 Co 0.32944 0.17808 0.13699 0.0
O342 O 0.31414 0.21438 0.15917 0.0
C343 C 0.36463 0.19132 0.07425 0.0
C344 C 0.43825 0.21601 0.13517 0.0
C345 C 0.32769 0.23896 0.15789 0.0
O346 O 0.38194 0.20809 0.09193 0.0
O347 O 0.34415 0.17585 0.08807 0.0
O348 O 0.39134 0.20906 0.19428 0.0
O349 O 0.36723 0.1797 0.15948 0.0
Co350 Co 0.79151 0.38889 0.14325 0.0
O351 O 0.81254 0.42531 0.1391 0.0
O352 O 0.76409 0.42127 0.13553 0.0
C353 C 0.816 0.37276 0.19068 0.0
O354 O 0.76241 0.35457 0.14764 0.0
Co355 Co 0.8258 0.32959 0.13641 0.0
O356 O 0.78941 0.31389 0.15798 0.0
C357 C 0.81266 0.36506 0.07389 0.0
C358 C 0.78728 0.43817 0.1351 0.0
C359 C 0.76476 0.32732 0.15673 0.0
O360 O 0.79566 0.38211 0.0916 0.0
O361 O 0.82825 0.34464 0.08764 0.0
O362 O 0.79412 0.391 0.19398 0.0
O363 O 0.82378 0.36721 0.15922 0.0
Co364 Co 0.61383 0.79146 0.14336 0.0
O365 O 0.57743 0.81254 0.13934 0.0
O366 O 0.5814 0.7641 0.13567 0.0
C367 C 0.63006 0.81589 0.1908 0.0
O368 O 0.64811 0.76231 0.14763 0.0
Co369 Co 0.67317 0.8257 0.13647 0.0
O370 O 0.68884 0.78927 0.15798 0.0
C371 C 0.63757 0.81272 0.07401 0.0
C372 C 0.56453 0.7873 0.13534 0.0
C373 C 0.67537 0.76463 0.15671 0.0
O374 O 0.62054 0.79568 0.0917 0.0
O375 O 0.65802 0.82827 0.08776 0.0
O376 O 0.6118 0.79402 0.19411 0.0
O377 O 0.63557 0.82369 0.15935 0.0
Co378 Co 0.21115 0.6138 0.1428 0.0
O379 O 0.19007 0.57741 0.13848 0.0
O380 O 0.23851 0.58142 0.13488 0.0
C381 C 0.18673 0.62983 0.19032 0.0
O382 O 0.24031 0.64806 0.14733 0.0
Co383 Co 0.17695 0.6732 0.13629 0.0
O384 O 0.21338 0.68875 0.15791 0.0
C385 C 0.19 0.63793 0.0736 0.0
C386 C 0.2153 0.56455 0.13436 0.0
C387 C 0.23801 0.67529 0.15656 0.0
O388 O 0.20697 0.62078 0.0912 0.0
O389 O 0.17447 0.65834 0.08745 0.0
O390 O 0.20857 0.61153 0.19353 0.0
O391 O 0.17894 0.63548 0.15889 0.0
Co392 Co 0.38805 0.79082 0.85474 0.0
O393 O 0.42433 0.81208 0.85896 0.0
O394 O 0.42061 0.7636 0.86243 0.0
C395 C 0.37185 0.81532 0.80734 0.0
O396 O 0.35393 0.76149 0.85026 0.0
Co397 Co 0.32851 0.82469 0.8615 0.0
O398 O 0.31309 0.78823 0.83981 0.0
C399 C 0.36402 0.81178 0.92406 0.0
C400 C 0.43736 0.7869 0.86288 0.0
C401 C 0.32668 0.76367 0.84109 0.0
O402 O 0.38119 0.79487 0.90639 0.0
O403 O 0.34351 0.82723 0.91028 0.0
O404 O 0.3902 0.79353 0.80401 0.0
O405 O 0.3662 0.82298 0.8388 0.0
Co406 Co 0.2113 0.38787 0.85474 0.0
O407 O 0.19001 0.42408 0.85978 0.0
O408 O 0.23851 0.42036 0.86268 0.0
C409 C 0.18646 0.37226 0.80731 0.0
O410 O 0.24073 0.35393 0.84942 0.0
Co411 Co 0.17792 0.32796 0.86036 0.0
O412 O 0.21427 0.31313 0.83792 0.0
C413 C 0.19149 0.36227 0.92378 0.0
C414 C 0.21521 0.43709 0.86357 0.0
C415 C 0.23875 0.32684 0.83958 0.0
O416 O 0.20764 0.38029 0.90629 0.0
O417 O 0.17633 0.3417 0.90969 0.0
O418 O 0.20821 0.39067 0.80409 0.0
O419 O 0.17907 0.36611 0.83874 0.0
Co420 Co 0.61474 0.21179 0.85457 0.0
O421 O 0.57839 0.19066 0.85886 0.0
O422 O 0.5823 0.23912 0.86234 0.0
C423 C 0.6308 0.18726 0.80713 0.0
O424 O 0.64895 0.241 0.85005 0.0
Co425 Co 0.67419 0.17772 0.86118 0.0
O426 O 0.68972 0.21416 0.83956 0.0
C427 C 0.63885 0.1908 0.92384 0.0
C428 C 0.56547 0.21589 0.86285 0.0
C429 C 0.6762 0.23876 0.84088 0.0
O430 O 0.62166 0.2077 0.9062 0.0
O431 O 0.65931 0.1753 0.91002 0.0
O432 O 0.61251 0.2091 0.80384 0.0
O433 O 0.63647 0.17956 0.83858 0.0
Co434 Co 0.79117 0.61491 0.85465 0.0
O435 O 0.81228 0.57855 0.85891 0.0
O436 O 0.76383 0.58246 0.86237 0.0
C437 C 0.81573 0.63099 0.80724 0.0
O438 O 0.76199 0.64915 0.85016 0.0
Co439 Co 0.8253 0.67433 0.86136 0.0
O440 O 0.78887 0.68991 0.83979 0.0
C441 C 0.81216 0.63893 0.92397 0.0
C442 C 0.78706 0.56563 0.86287 0.0
C443 C 0.76426 0.67641 0.84107 0.0
O444 O 0.79524 0.62178 0.90629 0.0
O445 O 0.8277 0.65939 0.91018 0.0
O446 O 0.79387 0.61272 0.80393 0.0
O447 O 0.82342 0.63663 0.83869 0.0
C448 C 0.21148 0.19027 0.35316 0.0
C449 C 0.23732 0.19408 0.33352 0.0
H450 H 0.17097 0.20995 0.37051 0.0
C451 C 0.23942 0.2184 0.31115 0.0
H452 H 0.20932 0.17171 0.37063 0.0
C453 C 0.2177 0.24005 0.31107 0.0
C454 C 0.19333 0.23793 0.33337 0.0
H455 H 0.25883 0.22166 0.29525 0.0
H456 H 0.22095 0.25943 0.29512 0.0
C457 C 0.18955 0.21213 0.35309 0.0
C458 C 0.76292 0.21809 0.31251 0.0
C459 C 0.76518 0.19365 0.33467 0.0
H460 H 0.78121 0.25925 0.29664 0.0
C461 C 0.79108 0.18985 0.35419 0.0
H462 H 0.74345 0.22137 0.29671 0.0
C463 C 0.81295 0.21179 0.35415 0.0
C464 C 0.80904 0.23766 0.33458 0.0
H465 H 0.79337 0.1712 0.37151 0.0
H466 H 0.83163 0.20958 0.37144 0.0
C467 C 0.78457 0.23981 0.31247 0.0
C468 C 0.78517 0.76286 0.31213 0.0
C469 C 0.80953 0.76505 0.33441 0.0
H470 H 0.74408 0.7812 0.29614 0.0
C471 C 0.81331 0.79092 0.35402 0.0
H472 H 0.78193 0.74342 0.29626 0.0
C473 C 0.79139 0.8128 0.35395 0.0
C474 C 0.76557 0.80894 0.33427 0.0
H475 H 0.8319 0.79316 0.37143 0.0
H476 H 0.79355 0.83143 0.37131 0.0
C477 C 0.76347 0.78452 0.31206 0.0
C478 C 0.21875 0.76333 0.31265 0.0
C479 C 0.19421 0.76543 0.33468 0.0
H480 H 0.25986 0.78185 0.29703 0.0
C481 C 0.19022 0.79127 0.35428 0.0
H482 H 0.22216 0.74391 0.2968 0.0
C483 C 0.21206 0.81325 0.35442 0.0
C484 C 0.23801 0.8095 0.33496 0.0
H485 H 0.1715 0.79344 0.37151 0.0
H486 H 0.2097 0.83188 0.37175 0.0
C487 C 0.24036 0.78508 0.31279 0.0
C488 C 0.21886 0.76299 0.6848 0.0
C489 C 0.19435 0.7652 0.66275 0.0
H490 H 0.25997 0.78143 0.70059 0.0
C491 C 0.1904 0.79112 0.64329 0.0
H492 H 0.22225 0.74351 0.70056 0.0
C493 C 0.21225 0.81309 0.64331 0.0
C494 C 0.23817 0.80925 0.66279 0.0
H495 H 0.17169 0.79337 0.62605 0.0
H496 H 0.20991 0.83179 0.62609 0.0
C497 C 0.24048 0.78474 0.68482 0.0
C498 C 0.2112 0.19003 0.64482 0.0
C499 C 0.23692 0.1938 0.6647 0.0
H500 H 0.17079 0.20976 0.6272 0.0
C501 C 0.23887 0.21805 0.68718 0.0
H502 H 0.20915 0.17153 0.62725 0.0
C503 C 0.21714 0.23969 0.68716 0.0
C504 C 0.19292 0.23764 0.66464 0.0
H505 H 0.25819 0.22128 0.70325 0.0
H506 H 0.22029 0.25904 0.70321 0.0
C507 C 0.18927 0.21189 0.64479 0.0
C508 C 0.76256 0.21829 0.68514 0.0
C509 C 0.7649 0.19379 0.66308 0.0
H510 H 0.78078 0.25949 0.70094 0.0
C511 C 0.79086 0.18995 0.64366 0.0
H512 H 0.74305 0.22159 0.70086 0.0
C513 C 0.81271 0.2119 0.64371 0.0
C514 C 0.80874 0.23782 0.66318 0.0
H515 H 0.79321 0.17125 0.62643 0.0
H516 H 0.83144 0.20965 0.62651 0.0
C517 C 0.7842 0.24002 0.68518 0.0
C518 C 0.81342 0.79101 0.644 0.0
C519 C 0.80965 0.76513 0.66359 0.0
H520 H 0.79367 0.83153 0.62673 0.0
C521 C 0.78528 0.76293 0.68587 0.0
H522 H 0.83201 0.79326 0.62659 0.0
C523 C 0.76359 0.78459 0.68596 0.0
C524 C 0.76569 0.80902 0.66376 0.0
H525 H 0.78205 0.74348 0.70173 0.0
H526 H 0.74419 0.78127 0.70187 0.0
C527 C 0.7915 0.81289 0.64409 0.0
C528 C 0.68979 0.71233 0.85425 0.0
C529 C 0.69366 0.7383 0.83487 0.0
H530 H 0.70944 0.6717 0.87135 0.0
C531 C 0.71816 0.74064 0.81282 0.0
H532 H 0.67109 0.70997 0.87148 0.0
C533 C 0.73986 0.71898 0.81273 0.0
C534 C 0.73763 0.69441 0.8347 0.0
H535 H 0.72148 0.76016 0.79711 0.0
H536 H 0.75933 0.72239 0.79697 0.0
C537 C 0.71171 0.69044 0.85417 0.0
C538 C 0.29068 0.68924 0.85417 0.0
C539 C 0.2649 0.69302 0.83441 0.0
H540 H 0.33112 0.70898 0.87172 0.0
C541 C 0.26281 0.71741 0.81214 0.0
H542 H 0.29283 0.67064 0.87158 0.0
C543 C 0.28447 0.73911 0.81222 0.0
C544 C 0.3088 0.73699 0.83457 0.0
H545 H 0.24344 0.72066 0.79616 0.0
H546 H 0.28123 0.75852 0.79631 0.0
C547 C 0.31257 0.71116 0.85425 0.0
C548 C 0.2855 0.26318 0.81115 0.0
C549 C 0.30967 0.26541 0.83372 0.0
H550 H 0.24446 0.28141 0.79478 0.0
C551 C 0.31323 0.29127 0.85338 0.0
H552 H 0.28244 0.24374 0.79524 0.0
C553 C 0.29124 0.31308 0.85312 0.0
C554 C 0.26558 0.30916 0.83319 0.0
H555 H 0.33167 0.29354 0.87101 0.0
H556 H 0.29322 0.33168 0.87057 0.0
C557 C 0.26374 0.28478 0.81088 0.0
C558 C 0.69022 0.2913 0.85403 0.0
C559 C 0.69416 0.26542 0.8345 0.0
H560 H 0.70976 0.33191 0.87136 0.0
C561 C 0.71867 0.26324 0.81243 0.0
H562 H 0.67152 0.29353 0.87127 0.0
C563 C 0.74031 0.28496 0.81248 0.0
C564 C 0.73801 0.30943 0.8346 0.0
H565 H 0.72205 0.24379 0.79663 0.0
H566 H 0.7598 0.28168 0.79671 0.0
C567 C 0.71208 0.31325 0.85408 0.0
C568 C 0.69036 0.29119 0.14378 0.0
C569 C 0.69431 0.26527 0.16324 0.0
H570 H 0.70991 0.33183 0.12653 0.0
C571 C 0.71885 0.26304 0.18525 0.0
H572 H 0.67164 0.29346 0.12658 0.0
C573 C 0.7405 0.28475 0.18523 0.0
C574 C 0.73819 0.30926 0.16318 0.0
H575 H 0.72223 0.24356 0.20101 0.0
H576 H 0.76 0.28142 0.20096 0.0
C577 C 0.71224 0.31313 0.14376 0.0
C578 C 0.71152 0.69025 0.1437 0.0
C579 C 0.73738 0.69416 0.16328 0.0
H580 H 0.67094 0.70983 0.12633 0.0
C581 C 0.73954 0.71865 0.18538 0.0
H582 H 0.7093 0.67157 0.12643 0.0
C583 C 0.71784 0.7403 0.18532 0.0
C584 C 0.6934 0.73804 0.16316 0.0
H585 H 0.75897 0.72201 0.20122 0.0
H586 H 0.72111 0.75978 0.20112 0.0
C587 C 0.68959 0.71213 0.14365 0.0
C588 C 0.26235 0.71772 0.18526 0.0
C589 C 0.26461 0.6933 0.16306 0.0
H590 H 0.28064 0.75885 0.2012 0.0
C591 C 0.29052 0.68951 0.14354 0.0
H592 H 0.24288 0.72098 0.20106 0.0
C593 C 0.3124 0.71144 0.14363 0.0
C594 C 0.30849 0.73729 0.16324 0.0
H595 H 0.29281 0.67088 0.1262 0.0
H596 H 0.33108 0.70925 0.12635 0.0
C597 C 0.284 0.73943 0.18534 0.0
C598 C 0.29145 0.31324 0.14503 0.0
C599 C 0.26575 0.30937 0.16491 0.0
H600 H 0.33188 0.29365 0.12728 0.0
C601 C 0.26386 0.28504 0.18729 0.0
H602 H 0.29345 0.33181 0.12754 0.0
C603 C 0.28561 0.26343 0.18713 0.0
C604 C 0.30982 0.2656 0.1646 0.0
H605 H 0.24456 0.28172 0.20337 0.0
H606 H 0.28251 0.24402 0.20309 0.0
C607 C 0.31342 0.29142 0.14488 0.0
C608 C 0.98596 0.31227 0.37078 0.0
C609 C 0.97017 0.28591 0.36665 0.0
H610 H 0.02787 0.33326 0.37336 0.0
C611 C 0.98588 0.25927 0.36404 0.0
H612 H 0.97464 0.33318 0.37319 0.0
C613 C 0.01687 0.25931 0.36414 0.0
C614 C 0.0325 0.286 0.36685 0.0
H615 H 0.97429 0.23859 0.36086 0.0
H616 H 0.02853 0.23867 0.36101 0.0
C617 C 0.01662 0.31232 0.37088 0.0
C618 C 0.69082 0.01646 0.36979 0.0
C619 C 0.71721 0.03231 0.36615 0.0
H620 H 0.66988 0.97452 0.372 0.0
C621 C 0.7439 0.01664 0.36395 0.0
H622 H 0.66987 0.02774 0.37186 0.0
C623 C 0.74391 0.98564 0.36403 0.0
C624 C 0.71722 0.96997 0.36631 0.0
H625 H 0.76459 0.02827 0.36114 0.0
H626 H 0.76461 0.97402 0.36128 0.0
C627 C 0.69083 0.98581 0.36988 0.0
C628 C 0.01721 0.69061 0.36951 0.0
C629 C 0.03302 0.71702 0.36597 0.0
H630 H 0.9753 0.66961 0.37162 0.0
C631 C 0.01733 0.7437 0.36384 0.0
H632 H 0.02851 0.66966 0.37152 0.0
C633 C 0.98633 0.74367 0.3639 0.0
C634 C 0.97069 0.71696 0.36609 0.0
H635 H 0.02893 0.76442 0.36112 0.0
H636 H 0.97469 0.76437 0.36121 0.0
C637 C 0.98656 0.69058 0.36957 0.0
C638 C 0.31207 0.9868 0.37045 0.0
C639 C 0.28572 0.97096 0.36646 0.0
H640 H 0.33299 0.02874 0.37298 0.0
C641 C 0.25904 0.98662 0.36399 0.0
H642 H 0.333 0.97552 0.37275 0.0
C643 C 0.25903 0.01762 0.36412 0.0
C644 C 0.2857 0.0333 0.36673 0.0
H645 H 0.23837 0.975 0.36092 0.0
H646 H 0.23836 0.02924 0.36113 0.0
C647 C 0.31206 0.01746 0.37059 0.0
C648 C 0.01744 0.74377 0.63374 0.0
C649 C 0.0331 0.7171 0.63133 0.0
H650 H 0.97482 0.76445 0.63673 0.0
C651 C 0.01726 0.69072 0.62761 0.0
H652 H 0.02906 0.76446 0.63661 0.0
C653 C 0.98661 0.69071 0.62768 0.0
C654 C 0.97077 0.71708 0.63147 0.0
H655 H 0.02854 0.66977 0.62538 0.0
H656 H 0.97532 0.66976 0.6255 0.0
C657 C 0.98644 0.74377 0.63381 0.0
C658 C 0.2592 0.98643 0.63406 0.0
C659 C 0.28592 0.97081 0.63202 0.0
H660 H 0.23842 0.02902 0.63656 0.0
C661 C 0.3123 0.98669 0.62852 0.0
H662 H 0.23851 0.97478 0.63675 0.0
C663 C 0.31225 0.01735 0.62839 0.0
C664 C 0.28582 0.03315 0.63178 0.0
H665 H 0.33328 0.97544 0.62658 0.0
H666 H 0.33319 0.02866 0.62638 0.0
C667 C 0.25915 0.01743 0.63395 0.0
C668 C 0.01639 0.31228 0.62686 0.0
C669 C 0.03224 0.28594 0.63085 0.0
H670 H 0.97443 0.33319 0.62463 0.0
C671 C 0.01659 0.25927 0.63357 0.0
H672 H 0.02766 0.33321 0.62438 0.0
C673 C 0.9856 0.25926 0.63372 0.0
C674 C 0.96992 0.28591 0.63116 0.0
H675 H 0.02823 0.23861 0.63666 0.0
H676 H 0.97399 0.23859 0.6369 0.0
C677 C 0.98573 0.31227 0.62702 0.0
C678 C 0.69094 0.01648 0.6276 0.0
C679 C 0.71727 0.03235 0.63153 0.0
H680 H 0.67006 0.97452 0.62521 0.0
C681 C 0.74397 0.01672 0.63403 0.0
H682 H 0.66999 0.02774 0.62528 0.0
C683 C 0.744 0.98572 0.63399 0.0
C684 C 0.71735 0.97002 0.63145 0.0
H685 H 0.76462 0.02838 0.63706 0.0
H686 H 0.76469 0.97413 0.637 0.0
C687 C 0.69098 0.98583 0.62756 0.0
C688 C 0.51662 0.75909 0.86391 0.0
C689 C 0.5322 0.78583 0.86608 0.0
H690 H 0.47406 0.73824 0.86126 0.0
C691 C 0.51627 0.81217 0.86965 0.0
H692 H 0.52831 0.73842 0.86116 0.0
C693 C 0.48562 0.81207 0.86971 0.0
C694 C 0.46986 0.78562 0.8662 0.0
H695 H 0.52748 0.83317 0.87169 0.0
H696 H 0.47428 0.83299 0.8718 0.0
C697 C 0.48562 0.75898 0.86397 0.0
C698 C 0.19019 0.48543 0.87057 0.0
C699 C 0.21657 0.46959 0.86697 0.0
H700 H 0.16923 0.52739 0.87242 0.0
C701 C 0.24325 0.48527 0.86453 0.0
H702 H 0.16925 0.47415 0.8728 0.0
C703 C 0.24324 0.51626 0.86432 0.0
C704 C 0.21655 0.53193 0.86651 0.0
H705 H 0.26394 0.47364 0.86173 0.0
H706 H 0.26393 0.52787 0.86138 0.0
C707 C 0.19018 0.5161 0.87034 0.0
C708 C 0.48632 0.24399 0.86402 0.0
C709 C 0.47065 0.21731 0.86648 0.0
H710 H 0.52894 0.26467 0.86101 0.0
C711 C 0.48649 0.19094 0.87024 0.0
H712 H 0.4747 0.26468 0.86112 0.0
C713 C 0.51714 0.19093 0.87017 0.0
C714 C 0.53298 0.2173 0.86634 0.0
H715 H 0.4752 0.17 0.8725 0.0
H716 H 0.52842 0.16999 0.87238 0.0
C717 C 0.51732 0.24398 0.86396 0.0
C718 C 0.81206 0.48666 0.87012 0.0
C719 C 0.78571 0.4708 0.86626 0.0
H720 H 0.83296 0.52862 0.87245 0.0
C721 C 0.75902 0.48644 0.86379 0.0
H722 H 0.83301 0.4754 0.87241 0.0
C723 C 0.75899 0.51744 0.86381 0.0
C724 C 0.78565 0.53313 0.8663 0.0
H725 H 0.73836 0.47479 0.86081 0.0
H726 H 0.73831 0.52904 0.86084 0.0
C727 C 0.81203 0.51732 0.87015 0.0
C728 C 0.48643 0.24407 0.13417 0.0
C729 C 0.47074 0.21741 0.13165 0.0
H730 H 0.52907 0.2647 0.13714 0.0
C731 C 0.48654 0.19104 0.12767 0.0
H732 H 0.47483 0.26475 0.13724 0.0
C733 C 0.5172 0.19102 0.12761 0.0
C734 C 0.53306 0.21736 0.13152 0.0
H735 H 0.47524 0.17012 0.12533 0.0
H736 H 0.52846 0.17007 0.12523 0.0
C737 C 0.51743 0.24404 0.13411 0.0
C738 C 0.75901 0.51727 0.13404 0.0
C739 C 0.78566 0.53299 0.13158 0.0
H740 H 0.73843 0.4746 0.13703 0.0
C741 C 0.81206 0.51721 0.12777 0.0
H742 H 0.73831 0.52885 0.13698 0.0
C743 C 0.81212 0.48655 0.12781 0.0
C744 C 0.78579 0.47066 0.13165 0.0
H745 H 0.83297 0.52853 0.12549 0.0
H746 H 0.83309 0.47532 0.12555 0.0
C747 C 0.75908 0.48627 0.13407 0.0
C748 C 0.48548 0.81215 0.12853 0.0
C749 C 0.46969 0.78572 0.13203 0.0
H750 H 0.52737 0.8332 0.1265 0.0
C751 C 0.48541 0.75906 0.13418 0.0
H752 H 0.47417 0.83309 0.12651 0.0
C753 C 0.51641 0.75912 0.13417 0.0
C754 C 0.53203 0.78585 0.13201 0.0
H755 H 0.47383 0.73833 0.13688 0.0
H756 H 0.52808 0.73844 0.13686 0.0
C757 C 0.51614 0.81222 0.12853 0.0
C758 C 0.1905 0.48555 0.12637 0.0
C759 C 0.21686 0.46975 0.13042 0.0
H760 H 0.16952 0.52748 0.12409 0.0
C761 C 0.24349 0.48545 0.13317 0.0
H762 H 0.1696 0.47424 0.12387 0.0
C763 C 0.24345 0.51645 0.13329 0.0
C764 C 0.21677 0.53208 0.13069 0.0
H765 H 0.26417 0.47385 0.13631 0.0
H766 H 0.26409 0.52809 0.1365 0.0
C767 C 0.19046 0.51621 0.12651 0.0
C768 C 0.11855 0.29326 0.48065 0.0
C769 C 0.13679 0.31285 0.4622 0.0
H770 H 0.1048 0.27746 0.53062 0.0
C771 C 0.1541 0.333 0.48092 0.0
H772 H 0.10485 0.27752 0.46703 0.0
C773 C 0.15406 0.33296 0.51699 0.0
C774 C 0.13673 0.31278 0.53562 0.0
H775 H 0.16819 0.34868 0.46777 0.0
H776 H 0.16813 0.34862 0.53022 0.0
C777 C 0.11852 0.29323 0.51707 0.0
C778 C 0.71025 0.11843 0.51707 0.0
C779 C 0.68924 0.13499 0.53553 0.0
H780 H 0.72725 0.10625 0.46709 0.0
C781 C 0.66754 0.15034 0.51687 0.0
H782 H 0.7272 0.10625 0.53067 0.0
C783 C 0.66756 0.15034 0.48079 0.0
C784 C 0.68929 0.13499 0.46216 0.0
H785 H 0.6507 0.16296 0.5301 0.0
H786 H 0.65074 0.16297 0.46753 0.0
C787 C 0.71027 0.11843 0.48066 0.0
C788 C 0.852 0.66792 0.48094 0.0
C789 C 0.86772 0.68935 0.46227 0.0
H790 H 0.8391 0.65132 0.53027 0.0
C791 C 0.88461 0.71011 0.48073 0.0
H792 H 0.83909 0.65128 0.46772 0.0
C793 C 0.88461 0.71013 0.51715 0.0
C794 C 0.86774 0.68939 0.53565 0.0
H795 H 0.89707 0.72685 0.46713 0.0
H796 H 0.89709 0.72688 0.53072 0.0
C797 C 0.85201 0.66794 0.51702 0.0
C798 C 0.33587 0.85331 0.51705 0.0
C799 C 0.31406 0.86848 0.53574 0.0
H800 H 0.35273 0.84081 0.46769 0.0
C801 C 0.29293 0.88491 0.5173 0.0
H802 H 0.3528 0.84079 0.53027 0.0
C803 C 0.29289 0.88492 0.48089 0.0
C804 C 0.31397 0.8685 0.46237 0.0
H805 H 0.27589 0.89695 0.53092 0.0
H806 H 0.27581 0.89697 0.46734 0.0
C807 C 0.33583 0.85332 0.48097 0.0
C808 C 0.15144 0.66775 0.48054 0.0
C809 C 0.1359 0.68934 0.46191 0.0
H810 H 0.16421 0.651 0.52985 0.0
C811 C 0.11919 0.71021 0.4804 0.0
H812 H 0.16419 0.65102 0.46729 0.0
C813 C 0.1192 0.7102 0.51681 0.0
C814 C 0.13592 0.68932 0.53528 0.0
H815 H 0.10687 0.72707 0.46683 0.0
H816 H 0.10688 0.72706 0.53041 0.0
C817 C 0.15145 0.66774 0.51662 0.0
C818 C 0.33285 0.15427 0.4812 0.0
C819 C 0.31235 0.13737 0.46249 0.0
H820 H 0.34875 0.16802 0.53049 0.0
C821 C 0.29245 0.11948 0.48096 0.0
H822 H 0.34879 0.16805 0.46803 0.0
C823 C 0.29243 0.11946 0.51739 0.0
C824 C 0.3123 0.13733 0.53592 0.0
H825 H 0.27644 0.1061 0.46735 0.0
H826 H 0.27639 0.10607 0.53096 0.0
C827 C 0.33282 0.15425 0.51727 0.0
C828 C 0.85144 0.33507 0.48082 0.0
C829 C 0.86708 0.31354 0.4622 0.0
H830 H 0.83857 0.35178 0.53011 0.0
C831 C 0.88383 0.29272 0.48072 0.0
H832 H 0.83864 0.35176 0.46755 0.0
C833 C 0.88379 0.29273 0.51713 0.0
C834 C 0.86699 0.31357 0.53558 0.0
H835 H 0.89623 0.2759 0.46716 0.0
H836 H 0.89616 0.27592 0.53074 0.0
C837 C 0.8514 0.33508 0.51689 0.0
C838 C 0.71039 0.88388 0.5172 0.0
C839 C 0.6901 0.86648 0.53571 0.0
H840 H 0.72674 0.89683 0.46718 0.0
C841 C 0.66912 0.85013 0.51706 0.0
H842 H 0.72678 0.89683 0.53077 0.0
C843 C 0.66909 0.85013 0.48099 0.0
C844 C 0.69005 0.86647 0.46231 0.0
H845 H 0.65285 0.83677 0.5303 0.0
H846 H 0.65281 0.83676 0.46779 0.0
C847 C 0.71037 0.88388 0.48078 0.0
C848 C 0.61813 0.7929 0.0172 0.0
C849 C 0.63462 0.81393 0.03571 0.0
H850 H 0.60603 0.77593 0.96718 0.0
C851 C 0.64992 0.8357 0.0171 0.0
H852 H 0.60599 0.77589 0.03076 0.0
C853 C 0.64995 0.83573 0.98102 0.0
C854 C 0.63467 0.81398 0.96234 0.0
H855 H 0.6625 0.85256 0.03037 0.0
H856 H 0.66254 0.8526 0.9678 0.0
C857 C 0.61815 0.79292 0.98079 0.0
C858 C 0.20942 0.61803 0.98041 0.0
C859 C 0.18886 0.63512 0.96191 0.0
H860 H 0.22603 0.6054 0.03041 0.0
C861 C 0.16759 0.65109 0.98054 0.0
H862 H 0.22604 0.60537 0.96684 0.0
C863 C 0.16759 0.65111 0.01662 0.0
C864 C 0.18885 0.63515 0.03529 0.0
H865 H 0.15111 0.66417 0.9673 0.0
H866 H 0.1511 0.6642 0.02984 0.0
C867 C 0.20942 0.61805 0.01682 0.0
C868 C 0.35161 0.16882 0.01728 0.0
C869 C 0.36737 0.19025 0.03592 0.0
H870 H 0.33871 0.15215 0.96799 0.0
C871 C 0.38424 0.21099 0.0174 0.0
H872 H 0.33872 0.15219 0.03053 0.0
C873 C 0.38423 0.21097 0.98098 0.0
C874 C 0.36735 0.1902 0.96251 0.0
H875 H 0.39672 0.22774 0.03098 0.0
H876 H 0.3967 0.2277 0.96737 0.0
C877 C 0.35161 0.16879 0.9812 0.0
C878 C 0.83542 0.35252 0.01691 0.0
C879 C 0.8138 0.36797 0.03559 0.0
H880 H 0.85217 0.33985 0.96757 0.0
C881 C 0.79286 0.38463 0.01714 0.0
H882 H 0.85221 0.33981 0.03013 0.0
C883 C 0.79284 0.38465 0.98072 0.0
C884 C 0.81376 0.36801 0.96221 0.0
H885 H 0.77597 0.39689 0.03075 0.0
H886 H 0.77593 0.39692 0.96716 0.0
C887 C 0.8354 0.35254 0.98084 0.0
C888 C 0.65185 0.16824 0.01688 0.0
C889 C 0.63607 0.18963 0.03554 0.0
H890 H 0.66479 0.15166 0.96756 0.0
C891 C 0.61915 0.21035 0.01707 0.0
H892 H 0.6648 0.15164 0.0301 0.0
C893 C 0.61914 0.21036 0.98066 0.0
C894 C 0.63606 0.18966 0.96216 0.0
H895 H 0.60663 0.22706 0.03067 0.0
H896 H 0.60662 0.22708 0.96708 0.0
C897 C 0.65185 0.16825 0.9808 0.0
C898 C 0.7925 0.61919 0.01715 0.0
C899 C 0.81322 0.63608 0.03566 0.0
H900 H 0.77579 0.60674 0.96713 0.0
C901 C 0.83467 0.65182 0.01704 0.0
H902 H 0.77574 0.60671 0.03071 0.0
C903 C 0.8347 0.65184 0.98096 0.0
C904 C 0.81328 0.63611 0.96228 0.0
H905 H 0.85128 0.66473 0.03029 0.0
H906 H 0.85133 0.66475 0.96775 0.0
C907 C 0.79252 0.61921 0.98073 0.0
C908 C 0.35138 0.83461 0.98097 0.0
C909 C 0.36689 0.81298 0.96237 0.0
H910 H 0.33862 0.85142 0.03025 0.0
C911 C 0.38358 0.79212 0.9809 0.0
H912 H 0.33864 0.85134 0.9677 0.0
C913 C 0.38357 0.79217 0.01731 0.0
C914 C 0.36687 0.81308 0.03575 0.0
H915 H 0.39589 0.77523 0.96735 0.0
H916 H 0.39587 0.77531 0.03093 0.0
C917 C 0.35136 0.83465 0.01705 0.0
C918 C 0.17186 0.34564 0.98094 0.0
C919 C 0.19073 0.36432 0.9622 0.0
H920 H 0.15724 0.33054 0.03019 0.0
C921 C 0.20914 0.38375 0.98067 0.0
H922 H 0.15716 0.33051 0.96781 0.0
C923 C 0.20919 0.38376 0.01709 0.0
C924 C 0.19083 0.36435 0.03564 0.0
H925 H 0.22389 0.39851 0.96705 0.0
H926 H 0.22397 0.39854 0.03064 0.0
C927 C 0.17191 0.34565 0.01699 0.0
C928 C 0.15081 0.33633 0.21511 0.0
C929 C 0.17242 0.35808 0.22044 0.0
H930 H 0.1205 0.306 0.23836 0.0
C931 C 0.18007 0.36583 0.25449 0.0
H932 H 0.14443 0.32985 0.18914 0.0
C933 C 0.16622 0.35225 0.28267 0.0
C934 C 0.14457 0.33054 0.27734 0.0
H935 H 0.19663 0.38249 0.2594 0.0
H936 H 0.17249 0.35882 0.30864 0.0
C937 C 0.13708 0.32264 0.24328 0.0
C938 C 0.63804 0.18076 0.25455 0.0
C939 C 0.64562 0.17306 0.22045 0.0
H940 H 0.64518 0.17315 0.30866 0.0
C941 C 0.66732 0.15142 0.21503 0.0
H942 H 0.62142 0.19735 0.25954 0.0
C943 C 0.68108 0.13767 0.24314 0.0
C944 C 0.67326 0.14514 0.27724 0.0
H945 H 0.67368 0.14503 0.18902 0.0
H946 H 0.69764 0.12104 0.23815 0.0
C947 C 0.65166 0.16687 0.28266 0.0
C948 C 0.82213 0.63788 0.25464 0.0
C949 C 0.82977 0.64552 0.22055 0.0
H950 H 0.82985 0.6449 0.30876 0.0
C951 C 0.85142 0.66722 0.21513 0.0
H952 H 0.80554 0.62126 0.25963 0.0
C953 C 0.86524 0.6809 0.24324 0.0
C954 C 0.85783 0.67303 0.27733 0.0
H955 H 0.85777 0.67363 0.18913 0.0
H956 H 0.88188 0.69747 0.23825 0.0
C957 C 0.83609 0.65143 0.28276 0.0
C958 C 0.36468 0.82223 0.25477 0.0
C959 C 0.35698 0.82978 0.22066 0.0
H960 H 0.35777 0.8301 0.30887 0.0
C961 C 0.33525 0.85139 0.21522 0.0
H962 H 0.38133 0.80568 0.25978 0.0
C963 C 0.32161 0.86528 0.24332 0.0
C964 C 0.32956 0.85797 0.27742 0.0
H965 H 0.32879 0.85767 0.18921 0.0
H966 H 0.30502 0.88189 0.23832 0.0
C967 C 0.35118 0.83626 0.28287 0.0
C968 C 0.15141 0.6665 0.78237 0.0
C969 C 0.17295 0.6447 0.77698 0.0
H970 H 0.12136 0.69713 0.7592 0.0
C971 C 0.18085 0.63727 0.7429 0.0
H972 H 0.14486 0.67275 0.80835 0.0
C973 C 0.16724 0.65114 0.71476 0.0
C974 C 0.1456 0.67284 0.72015 0.0
H975 H 0.19738 0.62059 0.73795 0.0
H976 H 0.17366 0.64477 0.68877 0.0
C977 C 0.13794 0.6805 0.75423 0.0
C978 C 0.35157 0.16725 0.71539 0.0
C979 C 0.32997 0.14551 0.72082 0.0
H980 H 0.38198 0.19757 0.7385 0.0
C981 C 0.32236 0.13785 0.75492 0.0
H982 H 0.35791 0.17367 0.68939 0.0
C983 C 0.33629 0.15144 0.78304 0.0
C984 C 0.35798 0.17309 0.7776 0.0
H985 H 0.3058 0.1212 0.75992 0.0
H986 H 0.33007 0.14492 0.80904 0.0
C987 C 0.36538 0.18096 0.7435 0.0
C988 C 0.83567 0.35169 0.71506 0.0
C989 C 0.85743 0.33011 0.72047 0.0
H990 H 0.80532 0.38205 0.7382 0.0
C991 C 0.86509 0.32248 0.75456 0.0
H992 H 0.82924 0.35803 0.68906 0.0
C993 C 0.8515 0.33639 0.78268 0.0
C994 C 0.82984 0.35806 0.77727 0.0
H995 H 0.88176 0.30594 0.75954 0.0
H996 H 0.85805 0.33017 0.80868 0.0
C997 C 0.82194 0.36546 0.74319 0.0
C998 C 0.65154 0.83586 0.71518 0.0
C999 C 0.67311 0.85762 0.72061 0.0
H1000 H 0.62114 0.80552 0.73829 0.0
C1001 C 0.6807 0.8653 0.75471 0.0
H1002 H 0.64522 0.82941 0.68918 0.0
C1003 C 0.66676 0.85173 0.78282 0.0
C1004 C 0.64509 0.83006 0.77739 0.0
H1005 H 0.69724 0.88197 0.7597 0.0
H1006 H 0.67295 0.85828 0.80882 0.0
C1007 C 0.63773 0.82214 0.74329 0.0
C1008 C 0.83626 0.65155 0.71516 0.0
C1009 C 0.85802 0.67313 0.72058 0.0
H1010 H 0.80568 0.62141 0.73829 0.0
C1011 C 0.86545 0.68099 0.75467 0.0
H1012 H 0.83001 0.64503 0.68916 0.0
C1013 C 0.85162 0.66731 0.78279 0.0
C1014 C 0.82995 0.64565 0.77737 0.0
H1015 H 0.88211 0.69754 0.75965 0.0
H1016 H 0.85799 0.67371 0.80879 0.0
C1017 C 0.82229 0.63801 0.74328 0.0
C1018 C 0.36489 0.82199 0.74338 0.0
C1019 C 0.35717 0.82952 0.77748 0.0
H1020 H 0.35797 0.82986 0.68927 0.0
C1021 C 0.33539 0.85108 0.78293 0.0
H1022 H 0.38157 0.80546 0.73838 0.0
C1023 C 0.32174 0.86495 0.75482 0.0
C1024 C 0.32971 0.85767 0.72072 0.0
H1025 H 0.32892 0.85734 0.80893 0.0
H1026 H 0.30512 0.88153 0.75983 0.0
C1027 C 0.35137 0.836 0.71528 0.0
C1028 C 0.16597 0.35197 0.71514 0.0
C1029 C 0.1443 0.33029 0.72047 0.0
H1030 H 0.19642 0.38217 0.7384 0.0
C1031 C 0.13681 0.32237 0.75452 0.0
H1032 H 0.17224 0.35855 0.68917 0.0
C1033 C 0.15057 0.33603 0.78269 0.0
C1034 C 0.1722 0.35776 0.77737 0.0
H1035 H 0.12021 0.30574 0.75943 0.0
H1036 H 0.1442 0.32955 0.80866 0.0
C1037 C 0.17985 0.36552 0.74331 0.0
C1038 C 0.65148 0.16684 0.71504 0.0
C1039 C 0.67311 0.14513 0.72047 0.0
H1040 H 0.62125 0.19733 0.73817 0.0
C1041 C 0.68096 0.1377 0.75456 0.0
H1042 H 0.64498 0.17309 0.68904 0.0
C1043 C 0.66722 0.15148 0.78268 0.0
C1044 C 0.6455 0.1731 0.77725 0.0
H1045 H 0.69754 0.12108 0.75955 0.0
H1046 H 0.67361 0.14511 0.80868 0.0
C1047 C 0.63789 0.18076 0.74316 0.0
C1048 C 0.82219 0.36535 0.25462 0.0
C1049 C 0.83004 0.35791 0.22053 0.0
H1050 H 0.82955 0.35797 0.30874 0.0
C1051 C 0.85168 0.33621 0.21511 0.0
H1052 H 0.8056 0.38196 0.25961 0.0
C1053 C 0.86529 0.32232 0.24323 0.0
C1054 C 0.85767 0.32999 0.27732 0.0
H1055 H 0.85818 0.32996 0.18911 0.0
H1056 H 0.88193 0.30576 0.23825 0.0
C1057 C 0.83594 0.35159 0.28274 0.0
C1058 C 0.66664 0.85155 0.2152 0.0
C1059 C 0.64497 0.82989 0.22064 0.0
H1060 H 0.69713 0.8818 0.2383 0.0
C1061 C 0.63761 0.82199 0.25474 0.0
H1062 H 0.67283 0.8581 0.18919 0.0
C1063 C 0.65142 0.83571 0.28285 0.0
C1064 C 0.673 0.85746 0.27741 0.0
H1065 H 0.62102 0.80537 0.25975 0.0
H1066 H 0.6451 0.82927 0.30885 0.0
C1067 C 0.68059 0.86514 0.2433 0.0
C1068 C 0.13781 0.68054 0.24295 0.0
C1069 C 0.14554 0.67295 0.27703 0.0
H1070 H 0.14465 0.67271 0.18884 0.0
C1071 C 0.16723 0.6513 0.28242 0.0
H1072 H 0.12118 0.69712 0.23799 0.0
C1073 C 0.18082 0.63741 0.25428 0.0
C1074 C 0.17285 0.64476 0.22021 0.0
H1075 H 0.17371 0.64498 0.30841 0.0
H1076 H 0.19739 0.62077 0.25924 0.0
C1077 C 0.15126 0.66651 0.21482 0.0
C1078 C 0.32253 0.13796 0.2435 0.0
C1079 C 0.33021 0.14555 0.2776 0.0
H1080 H 0.33016 0.14511 0.18938 0.0
C1081 C 0.35187 0.16723 0.28303 0.0
H1082 H 0.30593 0.12136 0.2385 0.0
C1083 C 0.36566 0.18097 0.25492 0.0
C1084 C 0.35818 0.17318 0.22081 0.0
H1085 H 0.35826 0.17359 0.30903 0.0
H1086 H 0.3823 0.19754 0.25992 0.0
C1087 C 0.33644 0.15158 0.21538 0.0
loop_
_geom_bond_atom_site_label_1
_geom_bond_atom_site_label_2
_geom_bond_distance
_geom_bond_site_symmetry_2
_ccdc_geom_bond_type
Co0 O1 2.216 . S
Co0 O2 2.091 . S
Co0 O4 2.004 . S
Co0 O10 2.021 . S
Co0 O12 2.137 . S
Co0 O13 2.244 . S
O1 Co0 2.216 . S
O1 C8 1.247 . S
O2 Co0 2.091 . S
O2 C8 1.261 . S
C3 O12 1.247 . S
C3 O13 1.272 . S
O4 Co0 2.004 . S
O4 C9 1.259 . S
Co5 O6 2.061 . S
Co5 O11 2.052 . S
Co5 O13 2.135 . S
O6 Co5 2.061 . S
O6 C9 1.235 . S
C7 O10 1.238 . S
C7 O11 1.241 . S
C8 O1 1.247 . S
C8 O2 1.261 . S
C9 O4 1.259 . S
C9 O6 1.235 . S
O10 Co0 2.021 . S
O10 C7 1.238 . S
O11 Co5 2.052 . S
O11 C7 1.241 . S
O12 Co0 2.137 . S
O12 C3 1.247 . S
O13 Co0 2.244 . S
O13 C3 1.272 . S
O13 Co5 2.135 . S
Co14 O15 2.216 . S
Co14 O16 2.091 . S
Co14 O18 2.004 . S
Co14 O24 2.021 . S
Co14 O26 2.137 . S
Co14 O27 2.244 . S
O15 Co14 2.216 . S
O15 C22 1.247 . S
O16 Co14 2.091 . S
O16 C22 1.261 . S
C17 O26 1.247 . S
C17 O27 1.272 . S
O18 Co14 2.004 . S
O18 C23 1.259 . S
Co19 O20 2.061 . S
Co19 O25 2.052 . S
Co19 O27 2.135 . S
O20 Co19 2.061 . S
O20 C23 1.235 . S
C21 O24 1.238 . S
C21 O25 1.241 . S
C22 O15 1.247 . S
C22 O16 1.261 . S
C23 O18 1.259 . S
C23 O20 1.235 . S
O24 Co14 2.021 . S
O24 C21 1.238 . S
O25 Co19 2.052 . S
O25 C21 1.241 . S
O26 Co14 2.137 . S
O26 C17 1.247 . S
O27 Co14 2.244 . S
O27 C17 1.272 . S
O27 Co19 2.135 . S
Co28 O29 2.216 . S
Co28 O30 2.091 . S
Co28 O32 2.004 . S
Co28 O38 2.021 . S
Co28 O40 2.137 . S
Co28 O41 2.244 . S
O29 Co28 2.216 . S
O29 C36 1.247 . S
O30 Co28 2.091 . S
O30 C36 1.261 . S
C31 O40 1.247 . S
C31 O41 1.272 . S
O32 Co28 2.004 . S
O32 C37 1.259 . S
Co33 O34 2.061 . S
Co33 O39 2.052 . S
Co33 O41 2.135 . S
O34 Co33 2.061 . S
O34 C37 1.235 . S
C35 O38 1.238 . S
C35 O39 1.241 . S
C36 O29 1.247 . S
C36 O30 1.261 . S
C37 O32 1.259 . S
C37 O34 1.235 . S
O38 Co28 2.021 . S
O38 C35 1.238 . S
O39 Co33 2.052 . S
O39 C35 1.241 . S
O40 Co28 2.137 . S
O40 C31 1.247 . S
O41 Co28 2.244 . S
O41 C31 1.272 . S
O41 Co33 2.135 . S
Co42 O43 2.216 . S
Co42 O44 2.091 . S
Co42 O46 2.004 . S
Co42 O52 2.021 . S
Co42 O54 2.137 . S
Co42 O55 2.244 . S
O43 Co42 2.216 . S
O43 C50 1.247 . S
O44 Co42 2.091 . S
O44 C50 1.261 . S
C45 O54 1.247 . S
C45 O55 1.272 . S
O46 Co42 2.004 . S
O46 C51 1.259 . S
Co47 O48 2.061 . S
Co47 O53 2.052 . S
Co47 O55 2.135 . S
O48 Co47 2.061 . S
O48 C51 1.235 . S
C49 O52 1.238 . S
C49 O53 1.241 . S
C50 O43 1.247 . S
C50 O44 1.261 . S
C51 O46 1.259 . S
C51 O48 1.235 . S
O52 Co42 2.021 . S
O52 C49 1.238 . S
O53 Co47 2.052 . S
O53 C49 1.241 . S
O54 Co42 2.137 . S
O54 C45 1.247 . S
O55 Co42 2.244 . S
O55 C45 1.272 . S
O55 Co47 2.135 . S
Co56 O57 2.216 . S
Co56 O58 2.091 . S
Co56 O60 2.004 . S
Co56 O66 2.021 . S
Co56 O68 2.137 . S
Co56 O69 2.244 . S
O57 Co56 2.216 . S
O57 C64 1.247 . S
O58 Co56 2.091 . S
O58 C64 1.261 . S
C59 O68 1.247 . S
C59 O69 1.272 . S
O60 Co56 2.004 . S
O60 C65 1.259 . S
Co61 O62 2.061 . S
Co61 O67 2.052 . S
Co61 O69 2.135 . S
O62 Co61 2.061 . S
O62 C65 1.235 . S
C63 O66 1.238 . S
C63 O67 1.241 . S
C64 O57 1.247 . S
C64 O58 1.261 . S
C65 O60 1.259 . S
C65 O62 1.235 . S
O66 Co56 2.021 . S
O66 C63 1.238 . S
O67 Co61 2.052 . S
O67 C63 1.241 . S
O68 Co56 2.137 . S
O68 C59 1.247 . S
O69 Co56 2.244 . S
O69 C59 1.272 . S
O69 Co61 2.135 . S
Co70 O71 2.216 . S
Co70 O72 2.091 . S
Co70 O74 2.004 . S
Co70 O80 2.021 . S
Co70 O82 2.137 . S
Co70 O83 2.244 . S
O71 Co70 2.216 . S
O71 C78 1.247 . S
O72 Co70 2.091 . S
O72 C78 1.261 . S
C73 O82 1.247 . S
C73 O83 1.272 . S
O74 Co70 2.004 . S
O74 C79 1.259 . S
Co75 O76 2.061 . S
Co75 O81 2.052 . S
Co75 O83 2.135 . S
O76 Co75 2.061 . S
O76 C79 1.235 . S
C77 O80 1.238 . S
C77 O81 1.241 . S
C78 O71 1.247 . S
C78 O72 1.261 . S
C79 O74 1.259 . S
C79 O76 1.235 . S
O80 Co70 2.021 . S
O80 C77 1.238 . S
O81 Co75 2.052 . S
O81 C77 1.241 . S
O82 Co70 2.137 . S
O82 C73 1.247 . S
O83 Co70 2.244 . S
O83 C73 1.272 . S
O83 Co75 2.135 . S
Co84 O85 2.216 . S
Co84 O86 2.091 . S
Co84 O88 2.004 . S
Co84 O94 2.021 . S
Co84 O96 2.137 . S
Co84 O97 2.244 . S
O85 Co84 2.216 . S
O85 C92 1.247 . S
O86 Co84 2.091 . S
O86 C92 1.261 . S
C87 O96 1.247 . S
C87 O97 1.272 . S
O88 Co84 2.004 . S
O88 C93 1.259 . S
Co89 O90 2.061 . S
Co89 O95 2.052 . S
Co89 O97 2.135 . S
O90 Co89 2.061 . S
O90 C93 1.235 . S
C91 O94 1.238 . S
C91 O95 1.241 . S
C92 O85 1.247 . S
C92 O86 1.261 . S
C93 O88 1.259 . S
C93 O90 1.235 . S
O94 Co84 2.021 . S
O94 C91 1.238 . S
O95 Co89 2.052 . S
O95 C91 1.241 . S
O96 Co84 2.137 . S
O96 C87 1.247 . S
O97 Co84 2.244 . S
O97 C87 1.272 . S
O97 Co89 2.135 . S
Co98 O99 2.216 . S
Co98 O100 2.091 . S
Co98 O102 2.004 . S
Co98 O108 2.021 . S
Co98 O110 2.137 . S
Co98 O111 2.244 . S
O99 Co98 2.216 . S
O99 C106 1.247 . S
O100 Co98 2.091 . S
O100 C106 1.261 . S
C101 O110 1.247 . S
C101 O111 1.272 . S
O102 Co98 2.004 . S
O102 C107 1.259 . S
Co103 O104 2.061 . S
Co103 O109 2.052 . S
Co103 O111 2.135 . S
O104 Co103 2.061 . S
O104 C107 1.235 . S
C105 O108 1.238 . S
C105 O109 1.241 . S
C106 O99 1.247 . S
C106 O100 1.261 . S
C107 O102 1.259 . S
C107 O104 1.235 . S
O108 Co98 2.021 . S
O108 C105 1.238 . S
O109 Co103 2.052 . S
O109 C105 1.241 . S
O110 Co98 2.137 . S
O110 C101 1.247 . S
O111 Co98 2.244 . S
O111 C101 1.272 . S
O111 Co103 2.135 . S
Co112 O113 2.216 . S
Co112 O114 2.091 . S
Co112 O116 2.004 . S
Co112 O122 2.021 . S
Co112 O124 2.137 . S
Co112 O125 2.244 . S
O113 Co112 2.216 . S
O113 C120 1.247 . S
O114 Co112 2.091 . S
O114 C120 1.261 . S
C115 O124 1.247 . S
C115 O125 1.272 . S
O116 Co112 2.004 . S
O116 C121 1.259 . S
Co117 O118 2.061 . S
Co117 O123 2.052 . S
Co117 O125 2.135 . S
O118 Co117 2.061 . S
O118 C121 1.235 . S
C119 O122 1.238 . S
C119 O123 1.241 . S
C120 O113 1.247 . S
C120 O114 1.261 . S
C121 O116 1.259 . S
C121 O118 1.235 . S
O122 Co112 2.021 . S
O122 C119 1.238 . S
O123 Co117 2.052 . S
O123 C119 1.241 . S
O124 Co112 2.137 . S
O124 C115 1.247 . S
O125 Co112 2.244 . S
O125 C115 1.272 . S
O125 Co117 2.135 . S
Co126 O127 2.216 . S
Co126 O128 2.091 . S
Co126 O130 2.004 . S
Co126 O136 2.021 . S
Co126 O138 2.137 . S
Co126 O139 2.244 . S
O127 Co126 2.216 . S
O127 C134 1.247 . S
O128 Co126 2.091 . S
O128 C134 1.261 . S
C129 O138 1.247 . S
C129 O139 1.272 . S
O130 Co126 2.004 . S
O130 C135 1.259 . S
Co131 O132 2.061 . S
Co131 O137 2.052 . S
Co131 O139 2.135 . S
O132 Co131 2.061 . S
O132 C135 1.235 . S
C133 O136 1.238 . S
C133 O137 1.241 . S
C134 O127 1.247 . S
C134 O128 1.261 . S
C135 O130 1.259 . S
C135 O132 1.235 . S
O136 Co126 2.021 . S
O136 C133 1.238 . S
O137 Co131 2.052 . S
O137 C133 1.241 . S
O138 Co126 2.137 . S
O138 C129 1.247 . S
O139 Co126 2.244 . S
O139 C129 1.272 . S
O139 Co131 2.135 . S
Co140 O141 2.216 . S
Co140 O142 2.091 . S
Co140 O144 2.004 . S
Co140 O150 2.021 . S
Co140 O152 2.137 . S
Co140 O153 2.244 . S
O141 Co140 2.216 . S
O141 C148 1.247 . S
O142 Co140 2.091 . S
O142 C148 1.261 . S
C143 O152 1.247 . S
C143 O153 1.272 . S
O144 Co140 2.004 . S
O144 C149 1.259 . S
Co145 O146 2.061 . S
Co145 O151 2.052 . S
Co145 O153 2.135 . S
O146 Co145 2.061 . S
O146 C149 1.235 . S
C147 O150 1.238 . S
C147 O151 1.241 . S
C148 O141 1.247 . S
C148 O142 1.261 . S
C149 O144 1.259 . S
C149 O146 1.235 . S
O150 Co140 2.021 . S
O150 C147 1.238 . S
O151 Co145 2.052 . S
O151 C147 1.241 . S
O152 Co140 2.137 . S
O152 C143 1.247 . S
O153 Co140 2.244 . S
O153 C143 1.272 . S
O153 Co145 2.135 . S
Co154 O155 2.216 . S
Co154 O156 2.091 . S
Co154 O158 2.004 . S
Co154 O164 2.021 . S
Co154 O166 2.137 . S
Co154 O167 2.244 . S
O155 Co154 2.216 . S
O155 C162 1.247 . S
O156 Co154 2.091 . S
O156 C162 1.261 . S
C157 O166 1.247 . S
C157 O167 1.272 . S
O158 Co154 2.004 . S
O158 C163 1.259 . S
Co159 O160 2.061 . S
Co159 O165 2.052 . S
Co159 O167 2.135 . S
O160 Co159 2.061 . S
O160 C163 1.235 . S
C161 O164 1.238 . S
C161 O165 1.241 . S
C162 O155 1.247 . S
C162 O156 1.261 . S
C163 O158 1.259 . S
C163 O160 1.235 . S
O164 Co154 2.021 . S
O164 C161 1.238 . S
O165 Co159 2.052 . S
O165 C161 1.241 . S
O166 Co154 2.137 . S
O166 C157 1.247 . S
O167 Co154 2.244 . S
O167 C157 1.272 . S
O167 Co159 2.135 . S
Co168 O169 2.216 . S
Co168 O170 2.091 . S
Co168 O172 2.004 . S
Co168 O178 2.021 . S
Co168 O180 2.137 . S
Co168 O181 2.244 . S
O169 Co168 2.216 . S
O169 C176 1.247 . S
O170 Co168 2.091 . S
O170 C176 1.261 . S
C171 O180 1.247 . S
C171 O181 1.272 . S
O172 Co168 2.004 . S
O172 C177 1.259 . S
Co173 O174 2.061 . S
Co173 O179 2.052 . S
Co173 O181 2.135 . S
O174 Co173 2.061 . S
O174 C177 1.235 . S
C175 O178 1.238 . S
C175 O179 1.241 . S
C176 O169 1.247 . S
C176 O170 1.261 . S
C177 O172 1.259 . S
C177 O174 1.235 . S
O178 Co168 2.021 . S
O178 C175 1.238 . S
O179 Co173 2.052 . S
O179 C175 1.241 . S
O180 Co168 2.137 . S
O180 C171 1.247 . S
O181 Co168 2.244 . S
O181 C171 1.272 . S
O181 Co173 2.135 . S
Co182 O183 2.216 . S
Co182 O184 2.091 . S
Co182 O186 2.004 . S
Co182 O192 2.021 . S
Co182 O194 2.137 . S
Co182 O195 2.244 . S
O183 Co182 2.216 . S
O183 C190 1.247 . S
O184 Co182 2.091 . S
O184 C190 1.261 . S
C185 O194 1.247 . S
C185 O195 1.272 . S
O186 Co182 2.004 . S
O186 C191 1.259 . S
Co187 O188 2.061 . S
Co187 O193 2.052 . S
Co187 O195 2.135 . S
O188 Co187 2.061 . S
O188 C191 1.235 . S
C189 O192 1.238 . S
C189 O193 1.241 . S
C190 O183 1.247 . S
C190 O184 1.261 . S
C191 O186 1.259 . S
C191 O188 1.235 . S
O192 Co182 2.021 . S
O192 C189 1.238 . S
O193 Co187 2.052 . S
O193 C189 1.241 . S
O194 Co182 2.137 . S
O194 C185 1.247 . S
O195 Co182 2.244 . S
O195 C185 1.272 . S
O195 Co187 2.135 . S
Co196 O197 2.216 . S
Co196 O198 2.091 . S
Co196 O200 2.004 . S
Co196 O206 2.021 . S
Co196 O208 2.137 . S
Co196 O209 2.244 . S
O197 Co196 2.216 . S
O197 C204 1.247 . S
O198 Co196 2.091 . S
O198 C204 1.261 . S
C199 O208 1.247 . S
C199 O209 1.272 . S
O200 Co196 2.004 . S
O200 C205 1.259 . S
Co201 O202 2.061 . S
Co201 O207 2.052 . S
Co201 O209 2.135 . S
O202 Co201 2.061 . S
O202 C205 1.235 . S
C203 O206 1.238 . S
C203 O207 1.241 . S
C204 O197 1.247 . S
C204 O198 1.261 . S
C205 O200 1.259 . S
C205 O202 1.235 . S
O206 Co196 2.021 . S
O206 C203 1.238 . S
O207 Co201 2.052 . S
O207 C203 1.241 . S
O208 Co196 2.137 . S
O208 C199 1.247 . S
O209 Co196 2.244 . S
O209 C199 1.272 . S
O209 Co201 2.135 . S
Co210 O211 2.216 . S
Co210 O212 2.091 . S
Co210 O214 2.004 . S
Co210 O220 2.021 . S
Co210 O222 2.137 . S
Co210 O223 2.244 . S
O211 Co210 2.216 . S
O211 C218 1.247 . S
O212 Co210 2.091 . S
O212 C218 1.261 . S
C213 O222 1.247 . S
C213 O223 1.272 . S
O214 Co210 2.004 . S
O214 C219 1.259 . S
Co215 O216 2.061 . S
Co215 O221 2.052 . S
Co215 O223 2.135 . S
O216 Co215 2.061 . S
O216 C219 1.235 . S
C217 O220 1.238 . S
C217 O221 1.241 . S
C218 O211 1.247 . S
C218 O212 1.261 . S
C219 O214 1.259 . S
C219 O216 1.235 . S
O220 Co210 2.021 . S
O220 C217 1.238 . S
O221 Co215 2.052 . S
O221 C217 1.241 . S
O222 Co210 2.137 . S
O222 C213 1.247 . S
O223 Co210 2.244 . S
O223 C213 1.272 . S
O223 Co215 2.135 . S
Co224 O225 2.216 . S
Co224 O226 2.091 . S
Co224 O228 2.004 . S
Co224 O234 2.021 . S
Co224 O236 2.137 . S
Co224 O237 2.244 . S
O225 Co224 2.216 . S
O225 C232 1.247 . S
O226 Co224 2.091 . S
O226 C232 1.261 . S
C227 O236 1.247 . S
C227 O237 1.272 . S
O228 Co224 2.004 . S
O228 C233 1.259 . S
Co229 O230 2.061 . S
Co229 O235 2.052 . S
Co229 O237 2.135 . S
O230 Co229 2.061 . S
O230 C233 1.235 . S
C231 O234 1.238 . S
C231 O235 1.241 . S
C232 O225 1.247 . S
C232 O226 1.261 . S
C233 O228 1.259 . S
C233 O230 1.235 . S
O234 Co224 2.021 . S
O234 C231 1.238 . S
O235 Co229 2.052 . S
O235 C231 1.241 . S
O236 Co224 2.137 . S
O236 C227 1.247 . S
O237 Co224 2.244 . S
O237 C227 1.272 . S
O237 Co229 2.135 . S
Co238 O239 2.216 . S
Co238 O240 2.091 . S
Co238 O242 2.004 . S
Co238 O248 2.021 . S
Co238 O250 2.137 . S
Co238 O251 2.244 . S
O239 Co238 2.216 . S
O239 C246 1.247 . S
O240 Co238 2.091 . S
O240 C246 1.261 . S
C241 O250 1.247 . S
C241 O251 1.272 . S
O242 Co238 2.004 . S
O242 C247 1.259 . S
Co243 O244 2.061 . S
Co243 O249 2.052 . S
Co243 O251 2.135 . S
O244 Co243 2.061 . S
O244 C247 1.235 . S
C245 O248 1.238 . S
C245 O249 1.241 . S
C246 O239 1.247 . S
C246 O240 1.261 . S
C247 O242 1.259 . S
C247 O244 1.235 . S
O248 Co238 2.021 . S
O248 C245 1.238 . S
O249 Co243 2.052 . S
O249 C245 1.241 . S
O250 Co238 2.137 . S
O250 C241 1.247 . S
O251 Co238 2.244 . S
O251 C241 1.272 . S
O251 Co243 2.135 . S
Co252 O253 2.216 . S
Co252 O254 2.091 . S
Co252 O256 2.004 . S
Co252 O262 2.021 . S
Co252 O264 2.137 . S
Co252 O265 2.244 . S
O253 Co252 2.216 . S
O253 C260 1.247 . S
O254 Co252 2.091 . S
O254 C260 1.261 . S
C255 O264 1.247 . S
C255 O265 1.272 . S
O256 Co252 2.004 . S
O256 C261 1.259 . S
Co257 O258 2.061 . S
Co257 O263 2.052 . S
Co257 O265 2.135 . S
O258 Co257 2.061 . S
O258 C261 1.235 . S
C259 O262 1.238 . S
C259 O263 1.241 . S
C260 O253 1.247 . S
C260 O254 1.261 . S
C261 O256 1.259 . S
C261 O258 1.235 . S
O262 Co252 2.021 . S
O262 C259 1.238 . S
O263 Co257 2.052 . S
O263 C259 1.241 . S
O264 Co252 2.137 . S
O264 C255 1.247 . S
O265 Co252 2.244 . S
O265 C255 1.272 . S
O265 Co257 2.135 . S
Co266 O267 2.216 . S
Co266 O268 2.091 . S
Co266 O270 2.004 . S
Co266 O276 2.021 . S
Co266 O278 2.137 . S
Co266 O279 2.244 . S
O267 Co266 2.216 . S
O267 C274 1.247 . S
O268 Co266 2.091 . S
O268 C274 1.261 . S
C269 O278 1.247 . S
C269 O279 1.272 . S
O270 Co266 2.004 . S
O270 C275 1.259 . S
Co271 O272 2.061 . S
Co271 O277 2.052 . S
Co271 O279 2.135 . S
O272 Co271 2.061 . S
O272 C275 1.235 . S
C273 O276 1.238 . S
C273 O277 1.241 . S
C274 O267 1.247 . S
C274 O268 1.261 . S
C275 O270 1.259 . S
C275 O272 1.235 . S
O276 Co266 2.021 . S
O276 C273 1.238 . S
O277 Co271 2.052 . S
O277 C273 1.241 . S
O278 Co266 2.137 . S
O278 C269 1.247 . S
O279 Co266 2.244 . S
O279 C269 1.272 . S
O279 Co271 2.135 . S
Co280 O281 2.216 . S
Co280 O282 2.091 . S
Co280 O284 2.004 . S
Co280 O290 2.021 . S
Co280 O292 2.137 . S
Co280 O293 2.244 . S
O281 Co280 2.216 . S
O281 C288 1.247 . S
O282 Co280 2.091 . S
O282 C288 1.261 . S
C283 O292 1.247 . S
C283 O293 1.272 . S
O284 Co280 2.004 . S
O284 C289 1.259 . S
Co285 O286 2.061 . S
Co285 O291 2.052 . S
Co285 O293 2.135 . S
O286 Co285 2.061 . S
O286 C289 1.235 . S
C287 O290 1.238 . S
C287 O291 1.241 . S
C288 O281 1.247 . S
C288 O282 1.261 . S
C289 O284 1.259 . S
C289 O286 1.235 . S
O290 Co280 2.021 . S
O290 C287 1.238 . S
O291 Co285 2.052 . S
O291 C287 1.241 . S
O292 Co280 2.137 . S
O292 C283 1.247 . S
O293 Co280 2.244 . S
O293 C283 1.272 . S
O293 Co285 2.135 . S
Co294 O295 2.216 . S
Co294 O296 2.091 . S
Co294 O298 2.004 . S
Co294 O304 2.021 . S
Co294 O306 2.137 . S
Co294 O307 2.244 . S
O295 Co294 2.216 . S
O295 C302 1.247 . S
O296 Co294 2.091 . S
O296 C302 1.261 . S
C297 O306 1.247 . S
C297 O307 1.272 . S
O298 Co294 2.004 . S
O298 C303 1.259 . S
Co299 O300 2.061 . S
Co299 O305 2.052 . S
Co299 O307 2.135 . S
O300 Co299 2.061 . S
O300 C303 1.235 . S
C301 O304 1.238 . S
C301 O305 1.241 . S
C302 O295 1.247 . S
C302 O296 1.261 . S
C303 O298 1.259 . S
C303 O300 1.235 . S
O304 Co294 2.021 . S
O304 C301 1.238 . S
O305 Co299 2.052 . S
O305 C301 1.241 . S
O306 Co294 2.137 . S
O306 C297 1.247 . S
O307 Co294 2.244 . S
O307 C297 1.272 . S
O307 Co299 2.135 . S
Co308 O309 2.216 . S
Co308 O310 2.091 . S
Co308 O312 2.004 . S
Co308 O318 2.021 . S
Co308 O320 2.137 . S
Co308 O321 2.244 . S
O309 Co308 2.216 . S
O309 C316 1.247 . S
O310 Co308 2.091 . S
O310 C316 1.261 . S
C311 O320 1.247 . S
C311 O321 1.272 . S
O312 Co308 2.004 . S
O312 C317 1.259 . S
Co313 O314 2.061 . S
Co313 O319 2.052 . S
Co313 O321 2.135 . S
O314 Co313 2.061 . S
O314 C317 1.235 . S
C315 O318 1.238 . S
C315 O319 1.241 . S
C316 O309 1.247 . S
C316 O310 1.261 . S
C317 O312 1.259 . S
C317 O314 1.235 . S
O318 Co308 2.021 . S
O318 C315 1.238 . S
O319 Co313 2.052 . S
O319 C315 1.241 . S
O320 Co308 2.137 . S
O320 C311 1.247 . S
O321 Co308 2.244 . S
O321 C311 1.272 . S
O321 Co313 2.135 . S
Co322 O323 2.216 . S
Co322 O324 2.091 . S
Co322 O326 2.004 . S
Co322 O332 2.021 . S
Co322 O334 2.137 . S
Co322 O335 2.244 . S
O323 Co322 2.216 . S
O323 C330 1.247 . S
O324 Co322 2.091 . S
O324 C330 1.261 . S
C325 O334 1.247 . S
C325 O335 1.272 . S
O326 Co322 2.004 . S
O326 C331 1.259 . S
Co327 O328 2.061 . S
Co327 O333 2.052 . S
Co327 O335 2.135 . S
O328 Co327 2.061 . S
O328 C331 1.235 . S
C329 O332 1.238 . S
C329 O333 1.241 . S
C330 O323 1.247 . S
C330 O324 1.261 . S
C331 O326 1.259 . S
C331 O328 1.235 . S
O332 Co322 2.021 . S
O332 C329 1.238 . S
O333 Co327 2.052 . S
O333 C329 1.241 . S
O334 Co322 2.137 . S
O334 C325 1.247 . S
O335 Co322 2.244 . S
O335 C325 1.272 . S
O335 Co327 2.135 . S
Co336 O337 2.216 . S
Co336 O338 2.091 . S
Co336 O340 2.004 . S
Co336 O346 2.021 . S
Co336 O348 2.137 . S
Co336 O349 2.244 . S
O337 Co336 2.216 . S
O337 C344 1.247 . S
O338 Co336 2.091 . S
O338 C344 1.261 . S
C339 O348 1.247 . S
C339 O349 1.272 . S
O340 Co336 2.004 . S
O340 C345 1.259 . S
Co341 O342 2.061 . S
Co341 O347 2.052 . S
Co341 O349 2.135 . S
O342 Co341 2.061 . S
O342 C345 1.235 . S
C343 O346 1.238 . S
C343 O347 1.241 . S
C344 O337 1.247 . S
C344 O338 1.261 . S
C345 O340 1.259 . S
C345 O342 1.235 . S
O346 Co336 2.021 . S
O346 C343 1.238 . S
O347 Co341 2.052 . S
O347 C343 1.241 . S
O348 Co336 2.137 . S
O348 C339 1.247 . S
O349 Co336 2.244 . S
O349 C339 1.272 . S
O349 Co341 2.135 . S
Co350 O351 2.216 . S
Co350 O352 2.091 . S
Co350 O354 2.004 . S
Co350 O360 2.021 . S
Co350 O362 2.137 . S
Co350 O363 2.244 . S
O351 Co350 2.216 . S
O351 C358 1.247 . S
O352 Co350 2.091 . S
O352 C358 1.261 . S
C353 O362 1.247 . S
C353 O363 1.272 . S
O354 Co350 2.004 . S
O354 C359 1.259 . S
Co355 O356 2.061 . S
Co355 O361 2.052 . S
Co355 O363 2.135 . S
O356 Co355 2.061 . S
O356 C359 1.235 . S
C357 O360 1.238 . S
C357 O361 1.241 . S
C358 O351 1.247 . S
C358 O352 1.261 . S
C359 O354 1.259 . S
C359 O356 1.235 . S
O360 Co350 2.021 . S
O360 C357 1.238 . S
O361 Co355 2.052 . S
O361 C357 1.241 . S
O362 Co350 2.137 . S
O362 C353 1.247 . S
O363 Co350 2.244 . S
O363 C353 1.272 . S
O363 Co355 2.135 . S
Co364 O365 2.216 . S
Co364 O366 2.091 . S
Co364 O368 2.004 . S
Co364 O374 2.021 . S
Co364 O376 2.137 . S
Co364 O377 2.244 . S
O365 Co364 2.216 . S
O365 C372 1.247 . S
O366 Co364 2.091 . S
O366 C372 1.261 . S
C367 O376 1.247 . S
C367 O377 1.272 . S
O368 Co364 2.004 . S
O368 C373 1.259 . S
Co369 O370 2.061 . S
Co369 O375 2.052 . S
Co369 O377 2.135 . S
O370 Co369 2.061 . S
O370 C373 1.235 . S
C371 O374 1.238 . S
C371 O375 1.241 . S
C372 O365 1.247 . S
C372 O366 1.261 . S
C373 O368 1.259 . S
C373 O370 1.235 . S
O374 Co364 2.021 . S
O374 C371 1.238 . S
O375 Co369 2.052 . S
O375 C371 1.241 . S
O376 Co364 2.137 . S
O376 C367 1.247 . S
O377 Co364 2.244 . S
O377 C367 1.272 . S
O377 Co369 2.135 . S
Co378 O379 2.216 . S
Co378 O380 2.091 . S
Co378 O382 2.004 . S
Co378 O388 2.021 . S
Co378 O390 2.137 . S
Co378 O391 2.244 . S
O379 Co378 2.216 . S
O379 C386 1.247 . S
O380 Co378 2.091 . S
O380 C386 1.261 . S
C381 O390 1.247 . S
C381 O391 1.272 . S
O382 Co378 2.004 . S
O382 C387 1.259 . S
Co383 O384 2.061 . S
Co383 O389 2.052 . S
Co383 O391 2.135 . S
O384 Co383 2.061 . S
O384 C387 1.235 . S
C385 O388 1.238 . S
C385 O389 1.241 . S
C386 O379 1.247 . S
C386 O380 1.261 . S
C387 O382 1.259 . S
C387 O384 1.235 . S
O388 Co378 2.021 . S
O388 C385 1.238 . S
O389 Co383 2.052 . S
O389 C385 1.241 . S
O390 Co378 2.137 . S
O390 C381 1.247 . S
O391 Co378 2.244 . S
O391 C381 1.272 . S
O391 Co383 2.135 . S
Co392 O393 2.216 . S
Co392 O394 2.091 . S
Co392 O396 2.004 . S
Co392 O402 2.021 . S
Co392 O404 2.137 . S
Co392 O405 2.244 . S
O393 Co392 2.216 . S
O393 C400 1.247 . S
O394 Co392 2.091 . S
O394 C400 1.261 . S
C395 O404 1.247 . S
C395 O405 1.272 . S
O396 Co392 2.004 . S
O396 C401 1.259 . S
Co397 O398 2.061 . S
Co397 O403 2.052 . S
Co397 O405 2.135 . S
O398 Co397 2.061 . S
O398 C401 1.235 . S
C399 O402 1.238 . S
C399 O403 1.241 . S
C400 O393 1.247 . S
C400 O394 1.261 . S
C401 O396 1.259 . S
C401 O398 1.235 . S
O402 Co392 2.021 . S
O402 C399 1.238 . S
O403 Co397 2.052 . S
O403 C399 1.241 . S
O404 Co392 2.137 . S
O404 C395 1.247 . S
O405 Co392 2.244 . S
O405 C395 1.272 . S
O405 Co397 2.135 . S
Co406 O407 2.216 . S
Co406 O408 2.091 . S
Co406 O410 2.004 . S
Co406 O416 2.021 . S
Co406 O418 2.137 . S
Co406 O419 2.244 . S
O407 Co406 2.216 . S
O407 C414 1.247 . S
O408 Co406 2.091 . S
O408 C414 1.261 . S
C409 O418 1.247 . S
C409 O419 1.272 . S
O410 Co406 2.004 . S
O410 C415 1.259 . S
Co411 O412 2.061 . S
Co411 O417 2.052 . S
Co411 O419 2.135 . S
O412 Co411 2.061 . S
O412 C415 1.235 . S
C413 O416 1.238 . S
C413 O417 1.241 . S
C414 O407 1.247 . S
C414 O408 1.261 . S
C415 O410 1.259 . S
C415 O412 1.235 . S
O416 Co406 2.021 . S
O416 C413 1.238 . S
O417 Co411 2.052 . S
O417 C413 1.241 . S
O418 Co406 2.137 . S
O418 C409 1.247 . S
O419 Co406 2.244 . S
O419 C409 1.272 . S
O419 Co411 2.135 . S
Co420 O421 2.216 . S
Co420 O422 2.091 . S
Co420 O424 2.004 . S
Co420 O430 2.021 . S
Co420 O432 2.137 . S
Co420 O433 2.244 . S
O421 Co420 2.216 . S
O421 C428 1.247 . S
O422 Co420 2.091 . S
O422 C428 1.261 . S
C423 O432 1.247 . S
C423 O433 1.272 . S
O424 Co420 2.004 . S
O424 C429 1.259 . S
Co425 O426 2.061 . S
Co425 O431 2.052 . S
Co425 O433 2.135 . S
O426 Co425 2.061 . S
O426 C429 1.235 . S
C427 O430 1.238 . S
C427 O431 1.241 . S
C428 O421 1.247 . S
C428 O422 1.261 . S
C429 O424 1.259 . S
C429 O426 1.235 . S
O430 Co420 2.021 . S
O430 C427 1.238 . S
O431 Co425 2.052 . S
O431 C427 1.241 . S
O432 Co420 2.137 . S
O432 C423 1.247 . S
O433 Co420 2.244 . S
O433 C423 1.272 . S
O433 Co425 2.135 . S
Co434 O435 2.216 . S
Co434 O436 2.091 . S
Co434 O438 2.004 . S
Co434 O444 2.021 . S
Co434 O446 2.137 . S
Co434 O447 2.244 . S
O435 Co434 2.216 . S
O435 C442 1.247 . S
O436 Co434 2.091 . S
O436 C442 1.261 . S
C437 O446 1.247 . S
C437 O447 1.272 . S
O438 Co434 2.004 . S
O438 C443 1.259 . S
Co439 O440 2.061 . S
Co439 O445 2.052 . S
Co439 O447 2.135 . S
O440 Co439 2.061 . S
O440 C443 1.235 . S
C441 O444 1.238 . S
C441 O445 1.241 . S
C442 O435 1.247 . S
C442 O436 1.261 . S
C443 O438 1.259 . S
C443 O440 1.235 . S
O444 Co434 2.021 . S
O444 C441 1.238 . S
O445 Co439 2.052 . S
O445 C441 1.241 . S
O446 Co434 2.137 . S
O446 C437 1.247 . S
O447 Co434 2.244 . S
O447 C437 1.272 . S
O447 Co439 2.135 . S
C448 C449 1.387 . S
C448 H452 0.950 . S
C448 C457 1.390 . S
C449 C448 1.387 . S
C449 C451 1.387 . S
H450 C457 0.950 . S
C451 C449 1.387 . S
C451 C453 1.390 . S
C451 H455 0.950 . S
H452 C448 0.950 . S
C453 C451 1.390 . S
C453 C454 1.387 . S
C453 H456 0.950 . S
C454 C453 1.387 . S
C454 C457 1.387 . S
H455 C451 0.950 . S
H456 C453 0.950 . S
C457 C448 1.390 . S
C457 H450 0.950 . S
C457 C454 1.387 . S
C458 C459 1.387 . S
C458 H462 0.950 . S
C458 C467 1.390 . S
C459 C458 1.387 . S
C459 C461 1.387 . S
H460 C467 0.950 . S
C461 C459 1.387 . S
C461 C463 1.390 . S
C461 H465 0.950 . S
H462 C458 0.950 . S
C463 C461 1.390 . S
C463 C464 1.387 . S
C463 H466 0.950 . S
C464 C463 1.387 . S
C464 C467 1.387 . S
H465 C461 0.950 . S
H466 C463 0.950 . S
C467 C458 1.390 . S
C467 H460 0.950 . S
C467 C464 1.387 . S
C468 C469 1.387 . S
C468 H472 0.950 . S
C468 C477 1.390 . S
C469 C468 1.387 . S
C469 C471 1.387 . S
H470 C477 0.950 . S
C471 C469 1.387 . S
C471 C473 1.390 . S
C471 H475 0.950 . S
H472 C468 0.950 . S
C473 C471 1.390 . S
C473 C474 1.387 . S
C473 H476 0.950 . S
C474 C473 1.387 . S
C474 C477 1.387 . S
H475 C471 0.950 . S
H476 C473 0.950 . S
C477 C468 1.390 . S
C477 H470 0.950 . S
C477 C474 1.387 . S
C478 C479 1.387 . S
C478 H482 0.950 . S
C478 C487 1.390 . S
C479 C478 1.387 . S
C479 C481 1.387 . S
H480 C487 0.950 . S
C481 C479 1.387 . S
C481 C483 1.390 . S
C481 H485 0.950 . S
H482 C478 0.950 . S
C483 C481 1.390 . S
C483 C484 1.387 . S
C483 H486 0.950 . S
C484 C483 1.387 . S
C484 C487 1.387 . S
H485 C481 0.950 . S
H486 C483 0.950 . S
C487 C478 1.390 . S
C487 H480 0.950 . S
C487 C484 1.387 . S
C488 C489 1.387 . S
C488 H492 0.950 . S
C488 C497 1.390 . S
C489 C488 1.387 . S
C489 C491 1.387 . S
H490 C497 0.950 . S
C491 C489 1.387 . S
C491 C493 1.390 . S
C491 H495 0.950 . S
H492 C488 0.950 . S
C493 C491 1.390 . S
C493 C494 1.387 . S
C493 H496 0.950 . S
C494 C493 1.387 . S
C494 C497 1.387 . S
H495 C491 0.950 . S
H496 C493 0.950 . S
C497 C488 1.390 . S
C497 H490 0.950 . S
C497 C494 1.387 . S
C498 C499 1.387 . S
C498 H502 0.950 . S
C498 C507 1.390 . S
C499 C498 1.387 . S
C499 C501 1.387 . S
H500 C507 0.950 . S
C501 C499 1.387 . S
C501 C503 1.390 . S
C501 H505 0.950 . S
H502 C498 0.950 . S
C503 C501 1.390 . S
C503 C504 1.387 . S
C503 H506 0.950 . S
C504 C503 1.387 . S
C504 C507 1.387 . S
H505 C501 0.950 . S
H506 C503 0.950 . S
C507 C498 1.390 . S
C507 H500 0.950 . S
C507 C504 1.387 . S
C508 C509 1.387 . S
C508 H512 0.950 . S
C508 C517 1.390 . S
C509 C508 1.387 . S
C509 C511 1.387 . S
H510 C517 0.950 . S
C511 C509 1.387 . S
C511 C513 1.390 . S
C511 H515 0.950 . S
H512 C508 0.950 . S
C513 C511 1.390 . S
C513 C514 1.387 . S
C513 H516 0.950 . S
C514 C513 1.387 . S
C514 C517 1.387 . S
H515 C511 0.950 . S
H516 C513 0.950 . S
C517 C508 1.390 . S
C517 H510 0.950 . S
C517 C514 1.387 . S
C518 C519 1.387 . S
C518 H522 0.950 . S
C518 C527 1.390 . S
C519 C518 1.387 . S
C519 C521 1.387 . S
H520 C527 0.950 . S
C521 C519 1.387 . S
C521 C523 1.390 . S
C521 H525 0.950 . S
H522 C518 0.950 . S
C523 C521 1.390 . S
C523 C524 1.387 . S
C523 H526 0.950 . S
C524 C523 1.387 . S
C524 C527 1.387 . S
H525 C521 0.950 . S
H526 C523 0.950 . S
C527 C518 1.390 . S
C527 H520 0.950 . S
C527 C524 1.387 . S
C528 C529 1.387 . S
C528 H532 0.950 . S
C528 C537 1.390 . S
C529 C528 1.387 . S
C529 C531 1.387 . S
H530 C537 0.950 . S
C531 C529 1.387 . S
C531 C533 1.390 . S
C531 H535 0.950 . S
H532 C528 0.950 . S
C533 C531 1.390 . S
C533 C534 1.387 . S
C533 H536 0.950 . S
C534 C533 1.387 . S
C534 C537 1.387 . S
H535 C531 0.950 . S
H536 C533 0.950 . S
C537 C528 1.390 . S
C537 H530 0.950 . S
C537 C534 1.387 . S
C538 C539 1.387 . S
C538 H542 0.950 . S
C538 C547 1.390 . S
C539 C538 1.387 . S
C539 C541 1.387 . S
H540 C547 0.950 . S
C541 C539 1.387 . S
C541 C543 1.390 . S
C541 H545 0.950 . S
H542 C538 0.950 . S
C543 C541 1.390 . S
C543 C544 1.387 . S
C543 H546 0.950 . S
C544 C543 1.387 . S
C544 C547 1.387 . S
H545 C541 0.950 . S
H546 C543 0.950 . S
C547 C538 1.390 . S
C547 H540 0.950 . S
C547 C544 1.387 . S
C548 C549 1.387 . S
C548 H552 0.950 . S
C548 C557 1.390 . S
C549 C548 1.387 . S
C549 C551 1.387 . S
H550 C557 0.950 . S
C551 C549 1.387 . S
C551 C553 1.390 . S
C551 H555 0.950 . S
H552 C548 0.950 . S
C553 C551 1.390 . S
C553 C554 1.387 . S
C553 H556 0.950 . S
C554 C553 1.387 . S
C554 C557 1.387 . S
H555 C551 0.950 . S
H556 C553 0.950 . S
C557 C548 1.390 . S
C557 H550 0.950 . S
C557 C554 1.387 . S
C558 C559 1.387 . S
C558 H562 0.950 . S
C558 C567 1.390 . S
C559 C558 1.387 . S
C559 C561 1.387 . S
H560 C567 0.950 . S
C561 C559 1.387 . S
C561 C563 1.390 . S
C561 H565 0.950 . S
H562 C558 0.950 . S
C563 C561 1.390 . S
C563 C564 1.387 . S
C563 H566 0.950 . S
C564 C563 1.387 . S
C564 C567 1.387 . S
H565 C561 0.950 . S
H566 C563 0.950 . S
C567 C558 1.390 . S
C567 H560 0.950 . S
C567 C564 1.387 . S
C568 C569 1.387 . S
C568 H572 0.950 . S
C568 C577 1.390 . S
C569 C568 1.387 . S
C569 C571 1.387 . S
H570 C577 0.950 . S
C571 C569 1.387 . S
C571 C573 1.390 . S
C571 H575 0.950 . S
H572 C568 0.950 . S
C573 C571 1.390 . S
C573 C574 1.387 . S
C573 H576 0.950 . S
C574 C573 1.387 . S
C574 C577 1.387 . S
H575 C571 0.950 . S
H576 C573 0.950 . S
C577 C568 1.390 . S
C577 H570 0.950 . S
C577 C574 1.387 . S
C578 C579 1.387 . S
C578 H582 0.950 . S
C578 C587 1.390 . S
C579 C578 1.387 . S
C579 C581 1.387 . S
H580 C587 0.950 . S
C581 C579 1.387 . S
C581 C583 1.390 . S
C581 H585 0.950 . S
H582 C578 0.950 . S
C583 C581 1.390 . S
C583 C584 1.387 . S
C583 H586 0.950 . S
C584 C583 1.387 . S
C584 C587 1.387 . S
H585 C581 0.950 . S
H586 C583 0.950 . S
C587 C578 1.390 . S
C587 H580 0.950 . S
C587 C584 1.387 . S
C588 C589 1.387 . S
C588 H592 0.950 . S
C588 C597 1.390 . S
C589 C588 1.387 . S
C589 C591 1.387 . S
H590 C597 0.950 . S
C591 C589 1.387 . S
C591 C593 1.390 . S
C591 H595 0.950 . S
H592 C588 0.950 . S
C593 C591 1.390 . S
C593 C594 1.387 . S
C593 H596 0.950 . S
C594 C593 1.387 . S
C594 C597 1.387 . S
H595 C591 0.950 . S
H596 C593 0.950 . S
C597 C588 1.390 . S
C597 H590 0.950 . S
C597 C594 1.387 . S
C598 C599 1.387 . S
C598 H602 0.950 . S
C598 C607 1.390 . S
C599 C598 1.387 . S
C599 C601 1.387 . S
H600 C607 0.950 . S
C601 C599 1.387 . S
C601 C603 1.390 . S
C601 H605 0.950 . S
H602 C598 0.950 . S
C603 C601 1.390 . S
C603 C604 1.387 . S
C603 H606 0.950 . S
C604 C603 1.387 . S
C604 C607 1.387 . S
H605 C601 0.950 . S
H606 C603 0.950 . S
C607 C598 1.390 . S
C607 H600 0.950 . S
C607 C604 1.387 . S
C608 C609 1.387 . S
C608 H612 0.950 . S
C608 C617 1.390 1_655 S
C609 C608 1.387 . S
C609 C611 1.387 . S
H610 C617 0.950 . S
C611 C609 1.387 . S
C611 C613 1.390 1_655 S
C611 H615 0.950 . S
H612 C608 0.950 . S
C613 C611 1.390 1_455 S
C613 C614 1.387 . S
C613 H616 0.950 . S
C614 C613 1.387 . S
C614 C617 1.387 . S
H615 C611 0.950 . S
H616 C613 0.950 . S
C617 C608 1.390 1_455 S
C617 H610 0.950 . S
C617 C614 1.387 . S
C618 C619 1.387 . S
C618 H622 0.950 . S
C618 C627 1.390 1_545 S
C619 C618 1.387 . S
C619 C621 1.387 . S
H620 C627 0.950 . S
C621 C619 1.387 . S
C621 C623 1.390 1_545 S
C621 H625 0.950 . S
H622 C618 0.950 . S
C623 C621 1.390 1_565 S
C623 C624 1.387 . S
C623 H626 0.950 . S
C624 C623 1.387 . S
C624 C627 1.387 . S
H625 C621 0.950 . S
H626 C623 0.950 . S
C627 C618 1.390 1_565 S
C627 H620 0.950 . S
C627 C624 1.387 . S
C628 C629 1.387 . S
C628 H632 0.950 . S
C628 C637 1.390 1_455 S
C629 C628 1.387 . S
C629 C631 1.387 . S
H630 C637 0.950 . S
C631 C629 1.387 . S
C631 C633 1.390 1_455 S
C631 H635 0.950 . S
H632 C628 0.950 . S
C633 C631 1.390 1_655 S
C633 C634 1.387 . S
C633 H636 0.950 . S
C634 C633 1.387 . S
C634 C637 1.387 . S
H635 C631 0.950 . S
H636 C633 0.950 . S
C637 C628 1.390 1_655 S
C637 H630 0.950 . S
C637 C634 1.387 . S
C638 C639 1.387 . S
C638 H642 0.950 . S
C638 C647 1.390 1_565 S
C639 C638 1.387 . S
C639 C641 1.387 . S
H640 C647 0.950 . S
C641 C639 1.387 . S
C641 C643 1.390 1_565 S
C641 H645 0.950 . S
H642 C638 0.950 . S
C643 C641 1.390 1_545 S
C643 C644 1.387 . S
C643 H646 0.950 . S
C644 C643 1.387 . S
C644 C647 1.387 . S
H645 C641 0.950 . S
H646 C643 0.950 . S
C647 C638 1.390 1_545 S
C647 H640 0.950 . S
C647 C644 1.387 . S
C648 C649 1.387 . S
C648 H652 0.950 . S
C648 C657 1.390 1_455 S
C649 C648 1.387 . S
C649 C651 1.387 . S
H650 C657 0.950 . S
C651 C649 1.387 . S
C651 C653 1.390 1_455 S
C651 H655 0.950 . S
H652 C648 0.950 . S
C653 C651 1.390 1_655 S
C653 C654 1.387 . S
C653 H656 0.950 . S
C654 C653 1.387 . S
C654 C657 1.387 . S
H655 C651 0.950 . S
H656 C653 0.950 . S
C657 C648 1.390 1_655 S
C657 H650 0.950 . S
C657 C654 1.387 . S
C658 C659 1.387 . S
C658 H662 0.950 . S
C658 C667 1.390 1_565 S
C659 C658 1.387 . S
C659 C661 1.387 . S
H660 C667 0.950 . S
C661 C659 1.387 . S
C661 C663 1.390 1_565 S
C661 H665 0.950 . S
H662 C658 0.950 . S
C663 C661 1.390 1_545 S
C663 C664 1.387 . S
C663 H666 0.950 . S
C664 C663 1.387 . S
C664 C667 1.387 . S
H665 C661 0.950 . S
H666 C663 0.950 . S
C667 C658 1.390 1_545 S
C667 H660 0.950 . S
C667 C664 1.387 . S
C668 C669 1.387 . S
C668 H672 0.950 . S
C668 C677 1.390 1_455 S
C669 C668 1.387 . S
C669 C671 1.387 . S
H670 C677 0.950 . S
C671 C669 1.387 . S
C671 C673 1.390 1_455 S
C671 H675 0.950 . S
H672 C668 0.950 . S
C673 C671 1.390 1_655 S
C673 C674 1.387 . S
C673 H676 0.950 . S
C674 C673 1.387 . S
C674 C677 1.387 . S
H675 C671 0.950 . S
H676 C673 0.950 . S
C677 C668 1.390 1_655 S
C677 H670 0.950 . S
C677 C674 1.387 . S
C678 C679 1.387 . S
C678 H682 0.950 . S
C678 C687 1.390 1_545 S
C679 C678 1.387 . S
C679 C681 1.387 . S
H680 C687 0.950 . S
C681 C679 1.387 . S
C681 C683 1.390 1_545 S
C681 H685 0.950 . S
H682 C678 0.950 . S
C683 C681 1.390 1_565 S
C683 C684 1.387 . S
C683 H686 0.950 . S
C684 C683 1.387 . S
C684 C687 1.387 . S
H685 C681 0.950 . S
H686 C683 0.950 . S
C687 C678 1.390 1_565 S
C687 H680 0.950 . S
C687 C684 1.387 . S
C688 C689 1.387 . S
C688 H692 0.950 . S
C688 C697 1.390 . S
C689 C688 1.387 . S
C689 C691 1.387 . S
H690 C697 0.950 . S
C691 C689 1.387 . S
C691 C693 1.390 . S
C691 H695 0.950 . S
H692 C688 0.950 . S
C693 C691 1.390 . S
C693 C694 1.387 . S
C693 H696 0.950 . S
C694 C693 1.387 . S
C694 C697 1.387 . S
H695 C691 0.950 . S
H696 C693 0.950 . S
C697 C688 1.390 . S
C697 H690 0.950 . S
C697 C694 1.387 . S
C698 C699 1.387 . S
C698 H702 0.950 . S
C698 C707 1.390 . S
C699 C698 1.387 . S
C699 C701 1.387 . S
H700 C707 0.950 . S
C701 C699 1.387 . S
C701 C703 1.390 . S
C701 H705 0.950 . S
H702 C698 0.950 . S
C703 C701 1.390 . S
C703 C704 1.387 . S
C703 H706 0.950 . S
C704 C703 1.387 . S
C704 C707 1.387 . S
H705 C701 0.950 . S
H706 C703 0.950 . S
C707 C698 1.390 . S
C707 H700 0.950 . S
C707 C704 1.387 . S
C708 C709 1.387 . S
C708 H712 0.950 . S
C708 C717 1.390 . S
C709 C708 1.387 . S
C709 C711 1.387 . S
H710 C717 0.950 . S
C711 C709 1.387 . S
C711 C713 1.390 . S
C711 H715 0.950 . S
H712 C708 0.950 . S
C713 C711 1.390 . S
C713 C714 1.387 . S
C713 H716 0.950 . S
C714 C713 1.387 . S
C714 C717 1.387 . S
H715 C711 0.950 . S
H716 C713 0.950 . S
C717 C708 1.390 . S
C717 H710 0.950 . S
C717 C714 1.387 . S
C718 C719 1.387 . S
C718 H722 0.950 . S
C718 C727 1.390 . S
C719 C718 1.387 . S
C719 C721 1.387 . S
H720 C727 0.950 . S
C721 C719 1.387 . S
C721 C723 1.390 . S
C721 H725 0.950 . S
H722 C718 0.950 . S
C723 C721 1.390 . S
C723 C724 1.387 . S
C723 H726 0.950 . S
C724 C723 1.387 . S
C724 C727 1.387 . S
H725 C721 0.950 . S
H726 C723 0.950 . S
C727 C718 1.390 . S
C727 H720 0.950 . S
C727 C724 1.387 . S
C728 C729 1.387 . S
C728 H732 0.950 . S
C728 C737 1.390 . S
C729 C728 1.387 . S
C729 C731 1.387 . S
H730 C737 0.950 . S
C731 C729 1.387 . S
C731 C733 1.390 . S
C731 H735 0.950 . S
H732 C728 0.950 . S
C733 C731 1.390 . S
C733 C734 1.387 . S
C733 H736 0.950 . S
C734 C733 1.387 . S
C734 C737 1.387 . S
H735 C731 0.950 . S
H736 C733 0.950 . S
C737 C728 1.390 . S
C737 H730 0.950 . S
C737 C734 1.387 . S
C738 C739 1.387 . S
C738 H742 0.950 . S
C738 C747 1.390 . S
C739 C738 1.387 . S
C739 C741 1.387 . S
H740 C747 0.950 . S
C741 C739 1.387 . S
C741 C743 1.390 . S
C741 H745 0.950 . S
H742 C738 0.950 . S
C743 C741 1.390 . S
C743 C744 1.387 . S
C743 H746 0.950 . S
C744 C743 1.387 . S
C744 C747 1.387 . S
H745 C741 0.950 . S
H746 C743 0.950 . S
C747 C738 1.390 . S
C747 H740 0.950 . S
C747 C744 1.387 . S
C748 C749 1.387 . S
C748 H752 0.950 . S
C748 C757 1.390 . S
C749 C748 1.387 . S
C749 C751 1.387 . S
H750 C757 0.950 . S
C751 C749 1.387 . S
C751 C753 1.390 . S
C751 H755 0.950 . S
H752 C748 0.950 . S
C753 C751 1.390 . S
C753 C754 1.387 . S
C753 H756 0.950 . S
C754 C753 1.387 . S
C754 C757 1.387 . S
H755 C751 0.950 . S
H756 C753 0.950 . S
C757 C748 1.390 . S
C757 H750 0.950 . S
C757 C754 1.387 . S
C758 C759 1.387 . S
C758 H762 0.950 . S
C758 C767 1.390 . S
C759 C758 1.387 . S
C759 C761 1.387 . S
H760 C767 0.950 . S
C761 C759 1.387 . S
C761 C763 1.390 . S
C761 H765 0.950 . S
H762 C758 0.950 . S
C763 C761 1.390 . S
C763 C764 1.387 . S
C763 H766 0.950 . S
C764 C763 1.387 . S
C764 C767 1.387 . S
H765 C761 0.950 . S
H766 C763 0.950 . S
C767 C758 1.390 . S
C767 H760 0.950 . S
C767 C764 1.387 . S
C768 C769 1.387 . S
C768 H772 0.950 . S
C768 C777 1.390 . S
C769 C768 1.387 . S
C769 C771 1.387 . S
H770 C777 0.950 . S
C771 C769 1.387 . S
C771 C773 1.390 . S
C771 H775 0.950 . S
H772 C768 0.950 . S
C773 C771 1.390 . S
C773 C774 1.387 . S
C773 H776 0.950 . S
C774 C773 1.387 . S
C774 C777 1.387 . S
H775 C771 0.950 . S
H776 C773 0.950 . S
C777 C768 1.390 . S
C777 H770 0.950 . S
C777 C774 1.387 . S
C778 C779 1.387 . S
C778 H782 0.950 . S
C778 C787 1.390 . S
C779 C778 1.387 . S
C779 C781 1.387 . S
H780 C787 0.950 . S
C781 C779 1.387 . S
C781 C783 1.390 . S
C781 H785 0.950 . S
H782 C778 0.950 . S
C783 C781 1.390 . S
C783 C784 1.387 . S
C783 H786 0.950 . S
C784 C783 1.387 . S
C784 C787 1.387 . S
H785 C781 0.950 . S
H786 C783 0.950 . S
C787 C778 1.390 . S
C787 H780 0.950 . S
C787 C784 1.387 . S
C788 C789 1.387 . S
C788 H792 0.950 . S
C788 C797 1.390 . S
C789 C788 1.387 . S
C789 C791 1.387 . S
H790 C797 0.950 . S
C791 C789 1.387 . S
C791 C793 1.390 . S
C791 H795 0.950 . S
H792 C788 0.950 . S
C793 C791 1.390 . S
C793 C794 1.387 . S
C793 H796 0.950 . S
C794 C793 1.387 . S
C794 C797 1.387 . S
H795 C791 0.950 . S
H796 C793 0.950 . S
C797 C788 1.390 . S
C797 H790 0.950 . S
C797 C794 1.387 . S
C798 C799 1.387 . S
C798 H802 0.950 . S
C798 C807 1.390 . S
C799 C798 1.387 . S
C799 C801 1.387 . S
H800 C807 0.950 . S
C801 C799 1.387 . S
C801 C803 1.390 . S
C801 H805 0.950 . S
H802 C798 0.950 . S
C803 C801 1.390 . S
C803 C804 1.387 . S
C803 H806 0.950 . S
C804 C803 1.387 . S
C804 C807 1.387 . S
H805 C801 0.950 . S
H806 C803 0.950 . S
C807 C798 1.390 . S
C807 H800 0.950 . S
C807 C804 1.387 . S
C808 C809 1.387 . S
C808 H812 0.950 . S
C808 C817 1.390 . S
C809 C808 1.387 . S
C809 C811 1.387 . S
H810 C817 0.950 . S
C811 C809 1.387 . S
C811 C813 1.390 . S
C811 H815 0.950 . S
H812 C808 0.950 . S
C813 C811 1.390 . S
C813 C814 1.387 . S
C813 H816 0.950 . S
C814 C813 1.387 . S
C814 C817 1.387 . S
H815 C811 0.950 . S
H816 C813 0.950 . S
C817 C808 1.390 . S
C817 H810 0.950 . S
C817 C814 1.387 . S
C818 C819 1.387 . S
C818 H822 0.950 . S
C818 C827 1.390 . S
C819 C818 1.387 . S
C819 C821 1.387 . S
H820 C827 0.950 . S
C821 C819 1.387 . S
C821 C823 1.390 . S
C821 H825 0.950 . S
H822 C818 0.950 . S
C823 C821 1.390 . S
C823 C824 1.387 . S
C823 H826 0.950 . S
C824 C823 1.387 . S
C824 C827 1.387 . S
H825 C821 0.950 . S
H826 C823 0.950 . S
C827 C818 1.390 . S
C827 H820 0.950 . S
C827 C824 1.387 . S
C828 C829 1.387 . S
C828 H832 0.950 . S
C828 C837 1.390 . S
C829 C828 1.387 . S
C829 C831 1.387 . S
H830 C837 0.950 . S
C831 C829 1.387 . S
C831 C833 1.390 . S
C831 H835 0.950 . S
H832 C828 0.950 . S
C833 C831 1.390 . S
C833 C834 1.387 . S
C833 H836 0.950 . S
C834 C833 1.387 . S
C834 C837 1.387 . S
H835 C831 0.950 . S
H836 C833 0.950 . S
C837 C828 1.390 . S
C837 H830 0.950 . S
C837 C834 1.387 . S
C838 C839 1.387 . S
C838 H842 0.950 . S
C838 C847 1.390 . S
C839 C838 1.387 . S
C839 C841 1.387 . S
H840 C847 0.950 . S
C841 C839 1.387 . S
C841 C843 1.390 . S
C841 H845 0.950 . S
H842 C838 0.950 . S
C843 C841 1.390 . S
C843 C844 1.387 . S
C843 H846 0.950 . S
C844 C843 1.387 . S
C844 C847 1.387 . S
H845 C841 0.950 . S
H846 C843 0.950 . S
C847 C838 1.390 . S
C847 H840 0.950 . S
C847 C844 1.387 . S
C848 C849 1.387 . S
C848 H852 0.950 . S
C848 C857 1.390 1_554 S
C849 C848 1.387 . S
C849 C851 1.387 . S
H850 C857 0.950 . S
C851 C849 1.387 . S
C851 C853 1.390 1_554 S
C851 H855 0.950 . S
H852 C848 0.950 . S
C853 C851 1.390 1_556 S
C853 C854 1.387 . S
C853 H856 0.950 . S
C854 C853 1.387 . S
C854 C857 1.387 . S
H855 C851 0.950 . S
H856 C853 0.950 . S
C857 C848 1.390 1_556 S
C857 H850 0.950 . S
C857 C854 1.387 . S
C858 C859 1.387 . S
C858 H862 0.950 . S
C858 C867 1.390 1_556 S
C859 C858 1.387 . S
C859 C861 1.387 . S
H860 C867 0.950 . S
C861 C859 1.387 . S
C861 C863 1.390 1_556 S
C861 H865 0.950 . S
H862 C858 0.950 . S
C863 C861 1.390 1_554 S
C863 C864 1.387 . S
C863 H866 0.950 . S
C864 C863 1.387 . S
C864 C867 1.387 . S
H865 C861 0.950 . S
H866 C863 0.950 . S
C867 C858 1.390 1_554 S
C867 H860 0.950 . S
C867 C864 1.387 . S
C868 C869 1.387 . S
C868 H872 0.950 . S
C868 C877 1.390 1_554 S
C869 C868 1.387 . S
C869 C871 1.387 . S
H870 C877 0.950 . S
C871 C869 1.387 . S
C871 C873 1.390 1_554 S
C871 H875 0.950 . S
H872 C868 0.950 . S
C873 C871 1.390 1_556 S
C873 C874 1.387 . S
C873 H876 0.950 . S
C874 C873 1.387 . S
C874 C877 1.387 . S
H875 C871 0.950 . S
H876 C873 0.950 . S
C877 C868 1.390 1_556 S
C877 H870 0.950 . S
C877 C874 1.387 . S
C878 C879 1.387 . S
C878 H882 0.950 . S
C878 C887 1.390 1_554 S
C879 C878 1.387 . S
C879 C881 1.387 . S
H880 C887 0.950 . S
C881 C879 1.387 . S
C881 C883 1.390 1_554 S
C881 H885 0.950 . S
H882 C878 0.950 . S
C883 C881 1.390 1_556 S
C883 C884 1.387 . S
C883 H886 0.950 . S
C884 C883 1.387 . S
C884 C887 1.387 . S
H885 C881 0.950 . S
H886 C883 0.950 . S
C887 C878 1.390 1_556 S
C887 H880 0.950 . S
C887 C884 1.387 . S
C888 C889 1.387 . S
C888 H892 0.950 . S
C888 C897 1.390 1_554 S
C889 C888 1.387 . S
C889 C891 1.387 . S
H890 C897 0.950 . S
C891 C889 1.387 . S
C891 C893 1.390 1_554 S
C891 H895 0.950 . S
H892 C888 0.950 . S
C893 C891 1.390 1_556 S
C893 C894 1.387 . S
C893 H896 0.950 . S
C894 C893 1.387 . S
C894 C897 1.387 . S
H895 C891 0.950 . S
H896 C893 0.950 . S
C897 C888 1.390 1_556 S
C897 H890 0.950 . S
C897 C894 1.387 . S
C898 C899 1.387 . S
C898 H902 0.950 . S
C898 C907 1.390 1_554 S
C899 C898 1.387 . S
C899 C901 1.387 . S
H900 C907 0.950 . S
C901 C899 1.387 . S
C901 C903 1.390 1_554 S
C901 H905 0.950 . S
H902 C898 0.950 . S
C903 C901 1.390 1_556 S
C903 C904 1.387 . S
C903 H906 0.950 . S
C904 C903 1.387 . S
C904 C907 1.387 . S
H905 C901 0.950 . S
H906 C903 0.950 . S
C907 C898 1.390 1_556 S
C907 H900 0.950 . S
C907 C904 1.387 . S
C908 C909 1.387 . S
C908 H912 0.950 . S
C908 C917 1.390 1_556 S
C909 C908 1.387 . S
C909 C911 1.387 . S
H910 C917 0.950 . S
C911 C909 1.387 . S
C911 C913 1.390 1_556 S
C911 H915 0.950 . S
H912 C908 0.950 . S
C913 C911 1.390 1_554 S
C913 C914 1.387 . S
C913 H916 0.950 . S
C914 C913 1.387 . S
C914 C917 1.387 . S
H915 C911 0.950 . S
H916 C913 0.950 . S
C917 C908 1.390 1_554 S
C917 H910 0.950 . S
C917 C914 1.387 . S
C918 C919 1.387 . S
C918 H922 0.950 . S
C918 C927 1.390 1_556 S
C919 C918 1.387 . S
C919 C921 1.387 . S
H920 C927 0.950 . S
C921 C919 1.387 . S
C921 C923 1.390 1_556 S
C921 H925 0.950 . S
H922 C918 0.950 . S
C923 C921 1.390 1_554 S
C923 C924 1.387 . S
C923 H926 0.950 . S
C924 C923 1.387 . S
C924 C927 1.387 . S
H925 C921 0.950 . S
H926 C923 0.950 . S
C927 C918 1.390 1_554 S
C927 H920 0.950 . S
C927 C924 1.387 . S
C928 C929 1.387 . S
C928 H932 0.950 . S
C928 C937 1.390 . S
C929 C928 1.387 . S
C929 C931 1.387 . S
H930 C937 0.950 . S
C931 C929 1.387 . S
C931 C933 1.390 . S
C931 H935 0.950 . S
H932 C928 0.950 . S
C933 C931 1.390 . S
C933 C934 1.387 . S
C933 H936 0.950 . S
C934 C933 1.387 . S
C934 C937 1.387 . S
H935 C931 0.950 . S
H936 C933 0.950 . S
C937 C928 1.390 . S
C937 H930 0.950 . S
C937 C934 1.387 . S
C938 C939 1.387 . S
C938 H942 0.950 . S
C938 C947 1.390 . S
C939 C938 1.387 . S
C939 C941 1.387 . S
H940 C947 0.950 . S
C941 C939 1.387 . S
C941 C943 1.390 . S
C941 H945 0.950 . S
H942 C938 0.950 . S
C943 C941 1.390 . S
C943 C944 1.387 . S
C943 H946 0.950 . S
C944 C943 1.387 . S
C944 C947 1.387 . S
H945 C941 0.950 . S
H946 C943 0.950 . S
C947 C938 1.390 . S
C947 H940 0.950 . S
C947 C944 1.387 . S
C948 C949 1.387 . S
C948 H952 0.950 . S
C948 C957 1.390 . S
C949 C948 1.387 . S
C949 C951 1.387 . S
H950 C957 0.950 . S
C951 C949 1.387 . S
C951 C953 1.390 . S
C951 H955 0.950 . S
H952 C948 0.950 . S
C953 C951 1.390 . S
C953 C954 1.387 . S
C953 H956 0.950 . S
C954 C953 1.387 . S
C954 C957 1.387 . S
H955 C951 0.950 . S
H956 C953 0.950 . S
C957 C948 1.390 . S
C957 H950 0.950 . S
C957 C954 1.387 . S
C958 C959 1.387 . S
C958 H962 0.950 . S
C958 C967 1.390 . S
C959 C958 1.387 . S
C959 C961 1.387 . S
H960 C967 0.950 . S
C961 C959 1.387 . S
C961 C963 1.390 . S
C961 H965 0.950 . S
H962 C958 0.950 . S
C963 C961 1.390 . S
C963 C964 1.387 . S
C963 H966 0.950 . S
C964 C963 1.387 . S
C964 C967 1.387 . S
H965 C961 0.950 . S
H966 C963 0.950 . S
C967 C958 1.390 . S
C967 H960 0.950 . S
C967 C964 1.387 . S
C968 C969 1.387 . S
C968 H972 0.950 . S
C968 C977 1.390 . S
C969 C968 1.387 . S
C969 C971 1.387 . S
H970 C977 0.950 . S
C971 C969 1.387 . S
C971 C973 1.390 . S
C971 H975 0.950 . S
H972 C968 0.950 . S
C973 C971 1.390 . S
C973 C974 1.387 . S
C973 H976 0.950 . S
C974 C973 1.387 . S
C974 C977 1.387 . S
H975 C971 0.950 . S
H976 C973 0.950 . S
C977 C968 1.390 . S
C977 H970 0.950 . S
C977 C974 1.387 . S
C978 C979 1.387 . S
C978 H982 0.950 . S
C978 C987 1.390 . S
C979 C978 1.387 . S
C979 C981 1.387 . S
H980 C987 0.950 . S
C981 C979 1.387 . S
C981 C983 1.390 . S
C981 H985 0.950 . S
H982 C978 0.950 . S
C983 C981 1.390 . S
C983 C984 1.387 . S
C983 H986 0.950 . S
C984 C983 1.387 . S
C984 C987 1.387 . S
H985 C981 0.950 . S
H986 C983 0.950 . S
C987 C978 1.390 . S
C987 H980 0.950 . S
C987 C984 1.387 . S
C988 C989 1.387 . S
C988 H992 0.950 . S
C988 C997 1.390 . S
C989 C988 1.387 . S
C989 C991 1.387 . S
H990 C997 0.950 . S
C991 C989 1.387 . S
C991 C993 1.390 . S
C991 H995 0.950 . S
H992 C988 0.950 . S
C993 C991 1.390 . S
C993 C994 1.387 . S
C993 H996 0.950 . S
C994 C993 1.387 . S
C994 C997 1.387 . S
H995 C991 0.950 . S
H996 C993 0.950 . S
C997 C988 1.390 . S
C997 H990 0.950 . S
C997 C994 1.387 . S
C998 C999 1.387 . S
C998 H1002 0.950 . S
C998 C1007 1.390 . S
C999 C998 1.387 . S
C999 C1001 1.387 . S
H1000 C1007 0.950 . S
C1001 C999 1.387 . S
C1001 C1003 1.390 . S
C1001 H1005 0.950 . S
H1002 C998 0.950 . S
C1003 C1001 1.390 . S
C1003 C1004 1.387 . S
C1003 H1006 0.950 . S
C1004 C1003 1.387 . S
C1004 C1007 1.387 . S
H1005 C1001 0.950 . S
H1006 C1003 0.950 . S
C1007 C998 1.390 . S
C1007 H1000 0.950 . S
C1007 C1004 1.387 . S
C1008 C1009 1.387 . S
C1008 H1012 0.950 . S
C1008 C1017 1.390 . S
C1009 C1008 1.387 . S
C1009 C1011 1.387 . S
H1010 C1017 0.950 . S
C1011 C1009 1.387 . S
C1011 C1013 1.390 . S
C1011 H1015 0.950 . S
H1012 C1008 0.950 . S
C1013 C1011 1.390 . S
C1013 C1014 1.387 . S
C1013 H1016 0.950 . S
C1014 C1013 1.387 . S
C1014 C1017 1.387 . S
H1015 C1011 0.950 . S
H1016 C1013 0.950 . S
C1017 C1008 1.390 . S
C1017 H1010 0.950 . S
C1017 C1014 1.387 . S
C1018 C1019 1.387 . S
C1018 H1022 0.950 . S
C1018 C1027 1.390 . S
C1019 C1018 1.387 . S
C1019 C1021 1.387 . S
H1020 C1027 0.950 . S
C1021 C1019 1.387 . S
C1021 C1023 1.390 . S
C1021 H1025 0.950 . S
H1022 C1018 0.950 . S
C1023 C1021 1.390 . S
C1023 C1024 1.387 . S
C1023 H1026 0.950 . S
C1024 C1023 1.387 . S
C1024 C1027 1.387 . S
H1025 C1021 0.950 . S
H1026 C1023 0.950 . S
C1027 C1018 1.390 . S
C1027 H1020 0.950 . S
C1027 C1024 1.387 . S
C1028 C1029 1.387 . S
C1028 H1032 0.950 . S
C1028 C1037 1.390 . S
C1029 C1028 1.387 . S
C1029 C1031 1.387 . S
H1030 C1037 0.950 . S
C1031 C1029 1.387 . S
C1031 C1033 1.390 . S
C1031 H1035 0.950 . S
H1032 C1028 0.950 . S
C1033 C1031 1.390 . S
C1033 C1034 1.387 . S
C1033 H1036 0.950 . S
C1034 C1033 1.387 . S
C1034 C1037 1.387 . S
H1035 C1031 0.950 . S
H1036 C1033 0.950 . S
C1037 C1028 1.390 . S
C1037 H1030 0.950 . S
C1037 C1034 1.387 . S
C1038 C1039 1.387 . S
C1038 H1042 0.950 . S
C1038 C1047 1.390 . S
C1039 C1038 1.387 . S
C1039 C1041 1.387 . S
H1040 C1047 0.950 . S
C1041 C1039 1.387 . S
C1041 C1043 1.390 . S
C1041 H1045 0.950 . S
H1042 C1038 0.950 . S
C1043 C1041 1.390 . S
C1043 C1044 1.387 . S
C1043 H1046 0.950 . S
C1044 C1043 1.387 . S
C1044 C1047 1.387 . S
H1045 C1041 0.950 . S
H1046 C1043 0.950 . S
C1047 C1038 1.390 . S
C1047 H1040 0.950 . S
C1047 C1044 1.387 . S
C1048 C1049 1.387 . S
C1048 H1052 0.950 . S
C1048 C1057 1.390 . S
C1049 C1048 1.387 . S
C1049 C1051 1.387 . S
H1050 C1057 0.950 . S
C1051 C1049 1.387 . S
C1051 C1053 1.390 . S
C1051 H1055 0.950 . S
H1052 C1048 0.950 . S
C1053 C1051 1.390 . S
C1053 C1054 1.387 . S
C1053 H1056 0.950 . S
C1054 C1053 1.387 . S
C1054 C1057 1.387 . S
H1055 C1051 0.950 . S
H1056 C1053 0.950 . S
C1057 C1048 1.390 . S
C1057 H1050 0.950 . S
C1057 C1054 1.387 . S
C1058 C1059 1.387 . S
C1058 H1062 0.950 . S
C1058 C1067 1.390 . S
C1059 C1058 1.387 . S
C1059 C1061 1.387 . S
H1060 C1067 0.950 . S
C1061 C1059 1.387 . S
C1061 C1063 1.390 . S
C1061 H1065 0.950 . S
H1062 C1058 0.950 . S
C1063 C1061 1.390 . S
C1063 C1064 1.387 . S
C1063 H1066 0.950 . S
C1064 C1063 1.387 . S
C1064 C1067 1.387 . S
H1065 C1061 0.950 . S
H1066 C1063 0.950 . S
C1067 C1058 1.390 . S
C1067 H1060 0.950 . S
C1067 C1064 1.387 . S
C1068 C1069 1.387 . S
C1068 H1072 0.950 . S
C1068 C1077 1.390 . S
C1069 C1068 1.387 . S
C1069 C1071 1.387 . S
H1070 C1077 0.950 . S
C1071 C1069 1.387 . S
C1071 C1073 1.390 . S
C1071 H1075 0.950 . S
H1072 C1068 0.950 . S
C1073 C1071 1.390 . S
C1073 C1074 1.387 . S
C1073 H1076 0.950 . S
C1074 C1073 1.387 . S
C1074 C1077 1.387 . S
H1075 C1071 0.950 . S
H1076 C1073 0.950 . S
C1077 C1068 1.390 . S
C1077 H1070 0.950 . S
C1077 C1074 1.387 . S
C1078 C1079 1.387 . S
C1078 H1082 0.950 . S
C1078 C1087 1.390 . S
C1079 C1078 1.387 . S
C1079 C1081 1.387 . S
H1080 C1087 0.950 . S
C1081 C1079 1.387 . S
C1081 C1083 1.390 . S
C1081 H1085 0.950 . S
H1082 C1078 0.950 . S
C1083 C1081 1.390 . S
C1083 C1084 1.387 . S
C1083 H1086 0.950 . S
C1084 C1083 1.387 . S
C1084 C1087 1.387 . S
H1085 C1081 0.950 . S
H1086 C1083 0.950 . S
C1087 C1078 1.390 . S
C1087 H1080 0.950 . S
C1087 C1084 1.387 . S
C449 C219 1.476 . S
C454 C9 1.474 . S
C459 C23 1.476 . S
C464 C177 1.474 . S
C469 C37 1.476 . S
C474 C191 1.474 . S
C479 C205 1.474 . S
C484 C51 1.476 . S
C489 C65 1.476 . S
C494 C135 1.474 . S
C499 C79 1.474 . S
C504 C149 1.476 . S
C509 C163 1.474 . S
C514 C93 1.476 . S
C519 C121 1.476 . S
C524 C107 1.474 . S
C529 C233 1.474 . S
C534 C443 1.476 . S
C539 C247 1.474 . S
C544 C401 1.476 . S
C549 C261 1.476 . S
C554 C415 1.474 . S
C559 C429 1.476 . S
C564 C275 1.474 . S
C569 C289 1.474 . S
C574 C359 1.476 . S
C579 C303 1.474 . S
C584 C373 1.476 . S
C589 C387 1.474 . S
C594 C317 1.476 . S
C599 C331 1.474 . S
C604 C345 1.476 . S
C609 C176 1.459 . S
C614 C8 1.459 . S
C619 C22 1.459 . S
C624 C190 1.459 . S
C629 C204 1.459 . S
C634 C36 1.459 . S
C639 C50 1.459 . S
C644 C218 1.459 . S
C649 C64 1.459 . S
C654 C120 1.459 . S
C659 C134 1.459 . S
C664 C78 1.459 . S
C669 C148 1.459 . S
C674 C92 1.459 . S
C679 C162 1.459 . S
C684 C106 1.459 . S
C689 C232 1.459 . S
C694 C400 1.459 . S
C699 C414 1.459 . S
C704 C246 1.459 . S
C709 C260 1.459 . S
C714 C428 1.459 . S
C719 C274 1.459 . S
C724 C442 1.459 . S
C729 C344 1.459 . S
C734 C288 1.459 . S
C739 C302 1.459 . S
C744 C358 1.459 . S
C749 C316 1.459 . S
C754 C372 1.459 . S
C759 C330 1.459 . S
C764 C386 1.459 . S
C769 C7 1.369 . S
C774 C147 1.369 . S
C779 C161 1.368 . S
C784 C21 1.370 . S
C789 C35 1.368 . S
C794 C119 1.370 . S
C799 C133 1.370 . S
C804 C49 1.368 . S
C809 C203 1.370 . S
C814 C63 1.368 . S
C819 C217 1.369 . S
C824 C77 1.369 . S
C829 C175 1.370 . S
C834 C91 1.368 . S
C839 C105 1.370 . S
C844 C189 1.369 . S
C849 C371 1.368 . S
C854 C231 1.370 . S
C859 C245 1.370 . S
C864 C385 1.368 . S
C869 C343 1.370 . S
C874 C259 1.368 . S
C879 C357 1.370 . S
C884 C273 1.368 . S
C889 C287 1.368 . S
C894 C427 1.370 . S
C899 C301 1.370 . S
C904 C441 1.368 . S
C909 C399 1.370 . S
C914 C315 1.368 . S
C919 C413 1.369 . S
C924 C329 1.369 . S
C929 C325 1.307 . S
C934 C3 1.307 . S
C939 C283 1.306 . S
C944 C17 1.307 . S
C949 C297 1.304 . S
C954 C31 1.305 . S
C959 C311 1.305 . S
C964 C45 1.306 . S
C969 C241 1.307 . S
C974 C59 1.307 . S
C979 C73 1.307 . S
C984 C255 1.306 . S
C989 C87 1.307 . S
C994 C269 1.307 . S
C999 C101 1.307 . S
C1004 C227 1.306 . S
C1009 C115 1.306 . S
C1014 C437 1.307 . S
C1019 C395 1.307 . S
C1024 C129 1.307 . S
C1029 C143 1.306 . S
C1034 C409 1.307 . S
C1039 C157 1.304 . S
C1044 C423 1.305 . S
C1049 C353 1.307 . S
C1054 C171 1.306 . S
C1059 C367 1.306 . S
C1064 C185 1.307 . S
C1069 C199 1.307 . S
C1074 C381 1.307 . S
C1079 C213 1.304 . S
C1084 C339 1.304 . S
