# Generated by pormake.
# Topology snk, (6)-cn, num edge types: 1
# Building blocks:
#     Node 0, Type 0, BuildingBlock: GEDQOX_clean_sbu_0, # of connection points: 6
#     Node 1, Type 0, BuildingBlock: GEDQOX_clean_sbu_0, # of connection points: 6
#     Node 2, Type 0, BuildingBlock: GEDQOX_clean_sbu_0, # of connection points: 6
#     Node 3, Type 0, BuildingBlock: GEDQOX_clean_sbu_0, # of connection points: 6
#     Node 4, Type 0, BuildingBlock: GEDQOX_clean_sbu_0, # of connection points: 6
#     Node 5, Type 0, BuildingBlock: GEDQOX_clean_sbu_0, # of connection points: 6
#     Node 6, Type 0, BuildingBlock: GEDQOX_clean_sbu_0, # of connection points: 6
#     Node 7, Type 0, BuildingBlock: GEDQOX_clean_sbu_0, # of connection points: 6
#     Edge 8, Type (0, 0), None
#     Edge 9, Type (0, 0), None
#     Edge 10, Type (0, 0), None
#     Edge 11, Type (0, 0), None
#     Edge 12, Type (0, 0), None
#     Edge 13, Type (0, 0), None
#     Edge 14, Type (0, 0), None
#     Edge 15, Type (0, 0), None
#     Edge 16, Type (0, 0), None
#     Edge 17, Type (0, 0), None
#     Edge 18, Type (0, 0), None
#     Edge 19, Type (0, 0), None
#     Edge 20, Type (0, 0), None
#     Edge 21, Type (0, 0), None
#     Edge 22, Type (0, 0), None
#     Edge 23, Type (0, 0), None
#     Edge 24, Type (0, 0), None
#     Edge 25, Type (0, 0), None
#     Edge 26, Type (0, 0), None
#     Edge 27, Type (0, 0), None
#     Edge 28, Type (0, 0), None
#     Edge 29, Type (0, 0), None
#     Edge 30, Type (0, 0), None
#     Edge 31, Type (0, 0), None
# Relax obj value: 0.109
# Max RMSD: 0.199
# Mean RMSD: 0.199
data_MOF--net-snk--node1-GEDQOX_clean_sbu_0--edge1-none
_symmetry_space_group_name_H-M    P1
_symmetry_Int_Tables_number       1
_symmetry_cell_setting            triclinic
loop_
_symmetry_equiv_pos_as_xyz
'x, y, z'
_cell_length_a     33.11574
_cell_length_b     33.116629
_cell_length_c     6.9625976
_cell_angle_alpha  90.001332
_cell_angle_beta   89.997008
_cell_angle_gamma 89.999534
loop_
_atom_site_label
_atom_site_type_symbol
_atom_site_fract_x
_atom_site_fract_y
_atom_site_fract_z
_atom_type_partial_charge
Nd0 Nd 0.06124 0.07218 0.56607 0.0
Nd1 Nd 1.00817 0.99634 0.55504 0.0
C2 C 0.09646 0.14369 0.52392 0.0
C3 C 0.13622 0.16061 0.47102 0.0
C4 C 0.13822 0.19569 0.35812 0.0
C5 C 0.1756 0.21317 0.31327 0.0
C6 C 0.21158 0.19587 0.3815 0.0
C7 C 0.20954 0.16038 0.49192 0.0
C8 C 0.17224 0.1428 0.53562 0.0
C9 C 0.10396 1.00088 0.59548 0.0
C10 C 0.03505 1.03365 0.15547 0.0
C11 C 0.97277 0.92491 0.5974 0.0
C12 C 0.93295 0.9081 0.65006 0.0
C13 C 0.93082 0.87309 0.76347 0.0
C14 C 0.89339 0.85574 0.80822 0.0
C15 C 0.85748 0.87307 0.73937 0.0
C16 C 0.85964 0.90848 0.62843 0.0
C17 C 0.897 0.92595 0.58484 0.0
C18 C 0.9656 0.06779 0.52529 0.0
C19 C 1.03445 0.03479 0.96563 0.0
O20 O 0.07592 0.12602 0.38761 0.0
O21 O 0.09409 0.12452 0.6876 0.0
O22 O 0.11543 0.03453 0.67251 0.0
O23 O 0.07379 1.0066 0.48915 0.0
O24 O 0.0406 0.06749 0.25106 0.0
O25 O 1.03033 0.99882 0.2443 0.0
O26 O 0.99328 0.94259 0.73378 0.0
O27 O 0.97526 0.94402 0.43359 0.0
O28 O 0.95412 1.0342 0.4477 0.0
O29 O 0.99563 0.06185 0.63215 0.0
O30 O 1.0289 1.00096 0.86996 0.0
O31 O 0.03915 0.06963 0.87688 0.0
H32 H 0.1108 0.20989 0.30667 0.0
H33 H 0.17628 0.24058 0.22843 0.0
H34 H 0.2368 0.14636 0.54623 0.0
H35 H 0.17157 0.11558 0.62186 0.0
H36 H 0.95819 0.85887 0.81542 0.0
H37 H 0.89259 0.82838 0.89348 0.0
H38 H 0.83244 0.92252 0.57364 0.0
H39 H 0.89777 0.95311 0.49821 0.0
Nd40 Nd 0.24714 0.81108 0.81606 0.0
Nd41 Nd 0.32298 0.75801 0.80501 0.0
C42 C 0.17562 0.8463 0.77392 0.0
C43 C 0.15871 0.88606 0.72102 0.0
C44 C 0.12362 0.88806 0.60814 0.0
C45 C 0.10615 0.92544 0.56328 0.0
C46 C 0.12345 0.96142 0.63152 0.0
C47 C 0.15894 0.95938 0.74192 0.0
C48 C 0.17652 0.92208 0.78562 0.0
C49 C 0.31844 0.85379 0.84547 0.0
C50 C 0.28567 0.78489 0.40545 0.0
C51 C 0.39441 0.72261 0.84736 0.0
C52 C 0.41122 0.68279 0.90003 0.0
C53 C 0.44623 0.68066 1.01344 0.0
C54 C 0.46358 0.64323 1.05821 0.0
C55 C 0.44625 0.60732 0.98935 0.0
C56 C 0.41084 0.60948 0.87839 0.0
C57 C 0.39338 0.64684 0.8348 0.0
C58 C 0.25153 0.71544 0.77526 0.0
C59 C 0.28453 0.78429 0.21561 0.0
O60 O 0.19329 0.82576 0.6376 0.0
O61 O 0.19479 0.84393 0.9376 0.0
O62 O 0.28479 0.86527 0.92251 0.0
O63 O 0.31272 0.82362 0.73914 0.0
O64 O 0.25183 0.79044 0.50104 0.0
O65 O 0.3205 0.78017 0.49427 0.0
O66 O 0.37673 0.74312 0.98373 0.0
O67 O 0.3753 0.72509 0.68355 0.0
O68 O 0.28512 0.70396 0.69766 0.0
O69 O 0.25746 0.74547 0.88212 0.0
O70 O 0.31836 0.77873 0.11993 0.0
O71 O 0.24969 0.78899 0.12686 0.0
H72 H 0.10943 0.86064 0.55668 0.0
H73 H 0.07873 0.92613 0.47844 0.0
H74 H 0.17296 0.98664 0.79622 0.0
H75 H 0.20374 0.92141 0.87185 0.0
H76 H 0.46045 0.70803 0.0654 0.0
H77 H 0.49094 0.64243 0.14347 0.0
H78 H 0.3968 0.58228 0.8236 0.0
H79 H 0.36621 0.6476 0.74816 0.0
Nd80 Nd 0.50824 0.99698 0.06604 0.0
Nd81 Nd 0.56131 0.07282 1.055 0.0
C82 C 0.47302 0.92547 1.02389 0.0
C83 C 0.43326 0.90855 0.971 0.0
C84 C 0.43126 0.87346 0.85812 0.0
C85 C 0.39388 0.85599 0.81327 0.0
C86 C 0.3579 0.87329 0.8815 0.0
C87 C 0.35993 0.90878 0.99189 0.0
C88 C 0.39723 0.92636 1.03558 0.0
C89 C 0.46552 0.06829 0.09546 0.0
C90 C 0.53443 0.03551 0.65544 0.0
C91 C 0.59671 0.14425 0.09736 0.0
C92 C 0.63653 0.16106 0.15004 0.0
C93 C 0.63865 0.19607 0.26344 0.0
C94 C 0.67609 0.21343 0.30821 0.0
C95 C 0.712 0.19609 0.23937 0.0
C96 C 0.70984 0.16068 0.12842 0.0
C97 C 0.67248 0.14321 0.08483 0.0
C98 C 0.60387 1.00137 1.02524 0.0
C99 C 0.53503 1.03437 0.46559 0.0
O100 O 0.49356 0.94313 0.88758 0.0
O101 O 0.47538 0.94464 0.18757 0.0
O102 O 0.45404 0.03464 0.17249 0.0
O103 O 0.49569 0.06256 0.98913 0.0
O104 O 0.52888 1.00167 0.75102 0.0
O105 O 0.53915 0.07034 0.74427 0.0
O106 O 0.57619 0.12657 0.23373 0.0
O107 O 0.59423 0.12514 0.93355 0.0
O108 O 0.61536 0.03496 0.94765 0.0
O109 O 0.57384 1.00731 0.13211 0.0
O110 O 0.54058 0.0682 0.36993 0.0
O111 O 0.53033 0.99953 0.37684 0.0
H112 H 0.45868 0.85927 0.80667 0.0
H113 H 0.3932 0.82857 0.72844 0.0
H114 H 0.33267 0.9228 1.04619 0.0
H115 H 0.3979 0.95358 0.12181 0.0
H116 H 0.61128 0.21029 0.31539 0.0
H117 H 0.67688 0.24078 0.39346 0.0
H118 H 0.73704 0.14663 0.07364 0.0
H119 H 0.67171 0.11605 0.9982 0.0
Nd120 Nd 0.32234 0.25809 0.31604 0.0
Nd121 Nd 0.2465 0.31115 0.30502 0.0
C122 C 0.39386 0.22286 0.27387 0.0
C123 C 0.41077 0.1831 0.22099 0.0
C124 C 0.44586 0.1811 0.10811 0.0
C125 C 0.46333 0.14372 0.06326 0.0
C126 C 0.44603 0.10774 0.13149 0.0
C127 C 0.41054 0.10978 0.24189 0.0
C128 C 0.39296 0.14708 0.28558 0.0
C129 C 0.25103 0.21537 0.34549 0.0
C130 C 0.28381 0.28427 0.90544 0.0
C131 C 0.17507 0.34655 0.34739 0.0
C132 C 0.15826 0.38637 0.40005 0.0
C133 C 0.12325 0.3885 0.51346 0.0
C134 C 0.10589 0.42593 0.55821 0.0
C135 C 0.12323 0.46184 0.48934 0.0
C136 C 0.15863 0.45967 0.37839 0.0
C137 C 0.1761 0.42232 0.3348 0.0
C138 C 0.31795 0.35371 0.27525 0.0
C139 C 0.28495 0.28487 0.7156 0.0
O140 O 0.37618 0.2434 0.13756 0.0
O141 O 0.37469 0.22523 0.43756 0.0
O142 O 0.28469 0.20389 0.42249 0.0
O143 O 0.25675 0.24553 0.23915 0.0
O144 O 0.31765 0.27872 1.00102 0.0
O145 O 0.24898 0.28899 0.99429 0.0
O146 O 0.19275 0.32604 0.48377 0.0
O147 O 0.19417 0.34406 0.18357 0.0
O148 O 0.28435 0.3652 0.19766 0.0
O149 O 0.31201 0.32369 0.38212 0.0
O150 O 0.25112 0.29042 0.61994 0.0
O151 O 0.31979 0.28018 0.62684 0.0
H152 H 0.46006 0.20852 1.05666 0.0
H153 H 0.49075 0.14303 0.97843 0.0
H154 H 0.39651 0.08252 0.29619 0.0
H155 H 0.36573 0.14776 0.37181 0.0
H156 H 0.10903 0.36113 0.56542 0.0
H157 H 0.07853 0.42673 0.64347 0.0
H158 H 0.17268 0.48688 0.32359 0.0
H159 H 0.20327 0.42155 0.24817 0.0
Nd160 Nd 0.74714 0.31107 0.3161 0.0
Nd161 Nd 0.82298 0.25801 0.30505 0.0
C162 C 0.67562 0.3463 0.27395 0.0
C163 C 0.65871 0.38606 0.22105 0.0
C164 C 0.62363 0.38806 0.10813 0.0
C165 C 0.60616 0.42544 0.06327 0.0
C166 C 0.62345 0.46142 0.13152 0.0
C167 C 0.65893 0.45938 0.24196 0.0
C168 C 0.67652 0.42208 0.28566 0.0
C169 C 0.81844 0.35379 0.34551 0.0
C170 C 0.78567 0.28489 0.90549 0.0
C171 C 0.89441 0.22261 0.3474 0.0
C172 C 0.91122 0.18279 0.40006 0.0
C173 C 0.94623 0.18066 0.51344 0.0
C174 C 0.96359 0.14323 0.5582 0.0
C175 C 0.94625 0.10732 0.48937 0.0
C176 C 0.91084 0.10948 0.37844 0.0
C177 C 0.89337 0.14684 0.33485 0.0
C178 C 0.75153 0.21545 0.27527 0.0
C179 C 0.78453 0.28429 0.71565 0.0
O180 O 0.69329 0.32576 0.13764 0.0
O181 O 0.69479 0.34393 0.43763 0.0
O182 O 0.78479 0.36527 0.42255 0.0
O183 O 0.81272 0.32362 0.23918 0.0
O184 O 0.75183 0.29044 1.00108 0.0
O185 O 0.8205 0.28017 0.99431 0.0
O186 O 0.87673 0.24312 0.48377 0.0
O187 O 0.8753 0.22509 0.18359 0.0
O188 O 0.78512 0.20396 0.19769 0.0
O189 O 0.75746 0.24547 0.38215 0.0
O190 O 0.81836 0.27873 0.61997 0.0
O191 O 0.74969 0.28898 0.6269 0.0
H192 H 0.60943 0.36064 1.05667 0.0
H193 H 0.57874 0.42612 0.97842 0.0
H194 H 0.67295 0.48664 0.29628 0.0
H195 H 0.70373 0.42141 0.37192 0.0
H196 H 0.96045 0.20803 0.56538 0.0
H197 H 0.99095 0.14244 0.64344 0.0
H198 H 0.89679 0.08228 0.32368 0.0
H199 H 0.86621 0.14761 0.24824 0.0
Nd200 Nd 0.82234 0.75809 0.81608 0.0
Nd201 Nd 0.7465 0.81115 0.80507 0.0
C202 C 0.89386 0.72286 0.77392 0.0
C203 C 0.91077 0.6831 0.72103 0.0
C204 C 0.94585 0.6811 0.60812 0.0
C205 C 0.96332 0.64372 0.56327 0.0
C206 C 0.94602 0.60774 0.63153 0.0
C207 C 0.91054 0.60978 0.74197 0.0
C208 C 0.89296 0.64708 0.78566 0.0
C209 C 0.75104 0.71536 0.84552 0.0
C210 C 0.78381 0.78427 0.40549 0.0
C211 C 0.67507 0.84655 0.84743 0.0
C212 C 0.65826 0.88637 0.90007 0.0
C213 C 0.62324 0.8885 1.01345 0.0
C214 C 0.60589 0.92594 1.05819 0.0
C215 C 0.62323 0.96184 0.98934 0.0
C216 C 0.65864 0.95967 0.87841 0.0
C217 C 0.67611 0.92232 0.83484 0.0
C218 C 0.81795 0.85371 0.77527 0.0
C219 C 0.78495 0.78487 0.21565 0.0
O220 O 0.87619 0.7434 0.6376 0.0
O221 O 0.87469 0.72523 0.93761 0.0
O222 O 0.78469 0.70389 0.92254 0.0
O223 O 0.75676 0.74553 0.73918 0.0
O224 O 0.81765 0.77872 0.50106 0.0
O225 O 0.74898 0.78899 0.49433 0.0
O226 O 0.69275 0.82604 0.98382 0.0
O227 O 0.69417 0.84406 0.68361 0.0
O228 O 0.78436 0.8652 0.6977 0.0
O229 O 0.81201 0.82369 0.88215 0.0
O230 O 0.75112 0.79042 0.11999 0.0
O231 O 0.81979 0.78018 0.12689 0.0
H232 H 0.96005 0.70852 0.55665 0.0
H233 H 0.99074 0.64303 0.47842 0.0
H234 H 0.89652 0.58252 0.79629 0.0
H235 H 0.86574 0.64775 0.87191 0.0
H236 H 0.60902 0.86113 0.0654 0.0
H237 H 0.57852 0.92673 0.14343 0.0
H238 H 0.67269 0.98688 0.82363 0.0
H239 H 0.70327 0.92154 0.74823 0.0
Nd240 Nd 0.56124 0.57217 0.06606 0.0
Nd241 Nd 0.50817 0.49634 1.05503 0.0
C242 C 0.59646 0.64369 1.02391 0.0
C243 C 0.63622 0.66061 0.97103 0.0
C244 C 0.63822 0.69569 0.85814 0.0
C245 C 0.6756 0.71317 0.8133 0.0
C246 C 0.71158 0.69587 0.88155 0.0
C247 C 0.70954 0.66038 0.99196 0.0
C248 C 0.67224 0.6428 1.03564 0.0
C249 C 0.60396 0.50087 0.0955 0.0
C250 C 0.53505 0.53365 0.65546 0.0
C251 C 0.47277 0.42491 0.09739 0.0
C252 C 0.43295 0.4081 0.15004 0.0
C253 C 0.43082 0.37309 0.26343 0.0
C254 C 0.39339 0.35573 0.30818 0.0
C255 C 0.35748 0.37307 0.23933 0.0
C256 C 0.35964 0.40848 0.1284 0.0
C257 C 0.397 0.42594 0.08481 0.0
C258 C 0.46561 0.56779 1.02525 0.0
C259 C 0.53445 0.53479 0.46562 0.0
O260 O 0.57593 0.62602 0.88759 0.0
O261 O 0.59409 0.62452 0.1876 0.0
O262 O 0.61543 0.53452 0.17251 0.0
O263 O 0.57379 0.50659 0.98916 0.0
O264 O 0.5406 0.56749 0.75105 0.0
O265 O 0.53033 0.49882 0.74429 0.0
O266 O 0.49328 0.44259 0.23377 0.0
O267 O 0.47526 0.44401 0.93358 0.0
O268 O 0.45412 0.5342 0.94768 0.0
O269 O 0.49563 0.56185 0.13213 0.0
O270 O 0.5289 0.50096 0.36995 0.0
O271 O 0.53915 0.56963 0.37687 0.0
H272 H 0.6108 0.70989 0.80668 0.0
H273 H 0.67629 0.74058 0.72846 0.0
H274 H 0.7368 0.64636 1.04626 0.0
H275 H 0.67157 0.61558 0.12188 0.0
H276 H 0.45819 0.35887 0.31538 0.0
H277 H 0.39259 0.32837 0.39343 0.0
H278 H 0.33244 0.42252 0.07362 0.0
H279 H 0.39777 0.45311 0.9982 0.0
Nd280 Nd 1.00824 0.49698 0.56607 0.0
Nd281 Nd 0.06131 0.57282 0.55503 0.0
C282 C 0.97302 0.42546 0.52392 0.0
C283 C 0.93326 0.40855 0.47104 0.0
C284 C 0.93126 0.37346 0.35814 0.0
C285 C 0.89388 0.35599 0.3133 0.0
C286 C 0.8579 0.37329 0.38154 0.0
C287 C 0.85993 0.40878 0.49195 0.0
C288 C 0.89723 0.42636 0.53564 0.0
C289 C 0.96552 0.56828 0.59552 0.0
C290 C 1.03443 0.53551 0.15547 0.0
C291 C 0.0967 0.64425 0.59739 0.0
C292 C 0.13652 0.66106 0.65005 0.0
C293 C 0.13865 0.69607 0.76343 0.0
C294 C 0.17609 0.71343 0.80818 0.0
C295 C 0.212 0.69609 0.73934 0.0
C296 C 0.20983 0.66068 0.62841 0.0
C297 C 0.17248 0.64321 0.58483 0.0
C298 C 0.10387 0.50137 0.52524 0.0
C299 C 0.03503 0.53437 0.96563 0.0
O300 O 0.99356 0.44313 0.38761 0.0
O301 O 0.97538 0.44464 0.68761 0.0
O302 O 0.95404 0.53463 0.67253 0.0
O303 O 0.99569 0.56256 0.48918 0.0
O304 O 1.02887 0.50167 0.25105 0.0
O305 O 0.03915 0.57034 0.2443 0.0
O306 O 0.0762 0.62657 0.73377 0.0
O307 O 0.09422 0.62514 0.43358 0.0
O308 O 0.11536 0.53496 0.44767 0.0
O309 O 0.07384 0.50731 0.63212 0.0
O310 O 0.04058 0.5682 0.86996 0.0
O311 O 1.03033 0.49953 0.87687 0.0
H312 H 0.95868 0.35927 0.30668 0.0
H313 H 0.89319 0.32857 0.22845 0.0
H314 H 0.83267 0.4228 0.54626 0.0
H315 H 0.8979 0.45358 0.62188 0.0
H316 H 0.11128 0.7103 0.81537 0.0
H317 H 0.17688 0.74079 0.89342 0.0
H318 H 0.23704 0.64663 0.57364 0.0
H319 H 0.17171 0.61605 0.49822 0.0
loop_
_geom_bond_atom_site_label_1
_geom_bond_atom_site_label_2
_geom_bond_distance
_geom_bond_site_symmetry_2
_ccdc_geom_bond_type
Nd0 C2 2.836 . S
Nd0 O20 2.500 . S
Nd0 O21 2.492 . S
Nd0 O22 2.487 1_545 S
Nd0 O23 2.682 1_545 S
Nd0 O24 2.410 . S
Nd0 O29 2.414 1_455 S
Nd0 O31 2.424 . S
Nd1 C11 2.836 . S
Nd1 O23 2.414 1_655 S
Nd1 O25 2.424 . S
Nd1 O26 2.500 . S
Nd1 O27 2.492 . S
Nd1 O28 2.487 1_565 S
Nd1 O29 2.682 1_565 S
Nd1 O30 2.410 . S
C2 Nd0 2.836 . S
C2 C3 1.498 . S
C2 O20 1.258 . S
C2 O21 1.239 . S
C3 C2 1.498 . S
C3 C4 1.366 . S
C3 C8 1.407 . S
C4 C3 1.366 . S
C4 C5 1.392 . S
C4 H32 0.930 . S
C5 C4 1.392 . S
C5 C6 1.398 . S
C5 H33 0.929 1_554 S
C6 C5 1.398 . S
C6 C7 1.352 . S
C7 C6 1.352 . S
C7 C8 1.384 . S
C7 H34 0.930 . S
C8 C3 1.407 . S
C8 C7 1.384 . S
C8 H35 0.929 . S
C9 O22 1.241 . S
C9 O23 1.273 . S
C10 O24 1.251 . S
C10 O25 1.268 1_445 S
C11 Nd1 2.836 . S
C11 C12 1.498 . S
C11 O26 1.258 . S
C11 O27 1.239 . S
C12 C11 1.498 . S
C12 C13 1.366 . S
C12 C17 1.407 . S
C13 C12 1.366 . S
C13 C14 1.392 . S
C13 H36 0.930 . S
C14 C13 1.392 . S
C14 C15 1.398 . S
C14 H37 0.929 1_556 S
C15 C14 1.398 . S
C15 C16 1.352 . S
C16 C15 1.352 . S
C16 C17 1.384 . S
C16 H38 0.930 . S
C17 C12 1.407 . S
C17 C16 1.384 . S
C17 H39 0.929 . S
C18 O28 1.241 . S
C18 O29 1.273 . S
C19 O30 1.251 . S
C19 O31 1.268 1_665 S
O20 Nd0 2.500 . S
O20 C2 1.258 . S
O21 Nd0 2.492 . S
O21 C2 1.239 . S
O22 Nd0 2.487 1_565 S
O22 C9 1.241 . S
O23 Nd0 2.682 1_565 S
O23 Nd1 2.414 1_455 S
O23 C9 1.273 . S
O24 Nd0 2.410 . S
O24 C10 1.251 . S
O25 Nd1 2.424 . S
O25 C10 1.268 1_665 S
O26 Nd1 2.500 . S
O26 C11 1.258 . S
O27 Nd1 2.492 . S
O27 C11 1.239 . S
O28 Nd1 2.487 1_545 S
O28 C18 1.241 . S
O29 Nd0 2.414 1_655 S
O29 Nd1 2.682 1_545 S
O29 C18 1.273 . S
O30 Nd1 2.410 . S
O30 C19 1.251 . S
O31 Nd0 2.424 . S
O31 C19 1.268 1_445 S
H32 C4 0.930 . S
H33 C5 0.929 1_556 S
H34 C7 0.930 . S
H35 C8 0.929 . S
H36 C13 0.930 . S
H37 C14 0.929 1_554 S
H38 C16 0.930 . S
H39 C17 0.929 . S
Nd40 C42 2.836 . S
Nd40 O60 2.500 . S
Nd40 O61 2.492 . S
Nd40 O62 2.487 . S
Nd40 O63 2.682 . S
Nd40 O64 2.410 . S
Nd40 O69 2.414 . S
Nd40 O71 2.424 1_556 S
Nd41 C51 2.836 . S
Nd41 O63 2.414 . S
Nd41 O65 2.424 . S
Nd41 O66 2.500 . S
Nd41 O67 2.492 . S
Nd41 O68 2.487 . S
Nd41 O69 2.682 . S
Nd41 O70 2.410 . S
C42 Nd40 2.836 . S
C42 C43 1.498 . S
C42 O60 1.258 . S
C42 O61 1.239 . S
C43 C42 1.498 . S
C43 C44 1.366 . S
C43 C48 1.407 . S
C44 C43 1.366 . S
C44 C45 1.392 . S
C44 H72 0.930 . S
C45 C44 1.392 . S
C45 C46 1.398 . S
C45 H73 0.929 . S
C46 C45 1.398 . S
C46 C47 1.352 . S
C47 C46 1.352 . S
C47 C48 1.384 . S
C47 H74 0.930 . S
C48 C43 1.407 . S
C48 C47 1.384 . S
C48 H75 0.929 . S
C49 O62 1.241 . S
C49 O63 1.273 . S
C50 O64 1.251 . S
C50 O65 1.268 . S
C51 Nd41 2.836 . S
C51 C52 1.498 . S
C51 O66 1.258 . S
C51 O67 1.239 . S
C52 C51 1.498 . S
C52 C53 1.366 1_556 S
C52 C57 1.407 . S
C53 C52 1.366 1_554 S
C53 C54 1.392 . S
C53 H76 0.930 . S
C54 C53 1.392 . S
C54 C55 1.398 . S
C54 H77 0.929 . S
C55 C54 1.398 . S
C55 C56 1.352 . S
C56 C55 1.352 . S
C56 C57 1.384 1_554 S
C56 H78 0.930 . S
C57 C52 1.407 . S
C57 C56 1.384 1_556 S
C57 H79 0.929 . S
C58 O68 1.241 . S
C58 O69 1.273 . S
C59 O70 1.251 1_554 S
C59 O71 1.268 . S
O60 Nd40 2.500 . S
O60 C42 1.258 . S
O61 Nd40 2.492 . S
O61 C42 1.239 . S
O62 Nd40 2.487 . S
O62 C49 1.241 . S
O63 Nd40 2.682 . S
O63 Nd41 2.414 . S
O63 C49 1.273 . S
O64 Nd40 2.410 . S
O64 C50 1.251 . S
O65 Nd41 2.424 . S
O65 C50 1.268 . S
O66 Nd41 2.500 . S
O66 C51 1.258 . S
O67 Nd41 2.492 . S
O67 C51 1.239 . S
O68 Nd41 2.487 . S
O68 C58 1.241 . S
O69 Nd40 2.414 . S
O69 Nd41 2.682 . S
O69 C58 1.273 . S
O70 Nd41 2.410 . S
O70 C59 1.251 1_556 S
O71 Nd40 2.424 1_554 S
O71 C59 1.268 . S
H72 C44 0.930 . S
H73 C45 0.929 . S
H74 C47 0.930 . S
H75 C48 0.929 . S
H76 C53 0.930 . S
H77 C54 0.929 . S
H78 C56 0.930 . S
H79 C57 0.929 . S
Nd80 C82 2.836 1_554 S
Nd80 O100 2.500 1_554 S
Nd80 O101 2.492 1_554 S
Nd80 O102 2.487 1_565 S
Nd80 O103 2.682 1_565 S
Nd80 O104 2.410 1_554 S
Nd80 O109 2.414 1_554 S
Nd80 O111 2.424 . S
Nd81 C91 2.836 1_556 S
Nd81 O103 2.414 1_556 S
Nd81 O105 2.424 . S
Nd81 O106 2.500 1_556 S
Nd81 O107 2.492 1_556 S
Nd81 O108 2.487 1_545 S
Nd81 O109 2.682 1_545 S
Nd81 O110 2.410 1_556 S
C82 Nd80 2.836 1_556 S
C82 C83 1.498 . S
C82 O100 1.258 . S
C82 O101 1.239 . S
C83 C82 1.498 . S
C83 C84 1.366 . S
C83 C88 1.407 . S
C84 C83 1.366 . S
C84 C85 1.392 . S
C84 H112 0.930 . S
C85 C84 1.392 . S
C85 C86 1.398 . S
C85 H113 0.929 . S
C86 C85 1.398 . S
C86 C87 1.352 . S
C87 C86 1.352 . S
C87 C88 1.384 . S
C87 H114 0.930 . S
C88 C83 1.407 . S
C88 C87 1.384 . S
C88 H115 0.929 . S
C89 O102 1.241 . S
C89 O103 1.273 . S
C90 O104 1.251 . S
C90 O105 1.268 1_565 S
C91 Nd81 2.836 1_554 S
C91 C92 1.498 . S
C91 O106 1.258 . S
C91 O107 1.239 . S
C92 C91 1.498 . S
C92 C93 1.366 . S
C92 C97 1.407 . S
C93 C92 1.366 . S
C93 C94 1.392 . S
C93 H116 0.930 . S
C94 C93 1.392 . S
C94 C95 1.398 . S
C94 H117 0.929 . S
C95 C94 1.398 . S
C95 C96 1.352 . S
C96 C95 1.352 . S
C96 C97 1.384 . S
C96 H118 0.930 . S
C97 C92 1.407 . S
C97 C96 1.384 . S
C97 H119 0.929 . S
C98 O108 1.241 . S
C98 O109 1.273 . S
C99 O110 1.251 . S
C99 O111 1.268 1_545 S
O100 Nd80 2.500 1_556 S
O100 C82 1.258 . S
O101 Nd80 2.492 1_556 S
O101 C82 1.239 . S
O102 Nd80 2.487 1_545 S
O102 C89 1.241 . S
O103 Nd80 2.682 1_545 S
O103 Nd81 2.414 1_554 S
O103 C89 1.273 . S
O104 Nd80 2.410 1_556 S
O104 C90 1.251 . S
O105 Nd81 2.424 . S
O105 C90 1.268 1_545 S
O106 Nd81 2.500 1_554 S
O106 C91 1.258 . S
O107 Nd81 2.492 1_554 S
O107 C91 1.239 . S
O108 Nd81 2.487 1_565 S
O108 C98 1.241 . S
O109 Nd80 2.414 1_556 S
O109 Nd81 2.682 1_565 S
O109 C98 1.273 . S
O110 Nd81 2.410 1_554 S
O110 C99 1.251 . S
O111 Nd80 2.424 . S
O111 C99 1.268 1_565 S
H112 C84 0.930 . S
H113 C85 0.929 . S
H114 C87 0.930 . S
H115 C88 0.929 . S
H116 C93 0.930 . S
H117 C94 0.929 . S
H118 C96 0.930 . S
H119 C97 0.929 . S
Nd120 C122 2.836 . S
Nd120 O140 2.500 . S
Nd120 O141 2.492 . S
Nd120 O142 2.487 . S
Nd120 O143 2.682 . S
Nd120 O144 2.410 . S
Nd120 O149 2.414 . S
Nd120 O151 2.424 . S
Nd121 C131 2.836 . S
Nd121 O143 2.414 . S
Nd121 O145 2.424 1_554 S
Nd121 O146 2.500 . S
Nd121 O147 2.492 . S
Nd121 O148 2.487 . S
Nd121 O149 2.682 . S
Nd121 O150 2.410 . S
C122 Nd120 2.836 . S
C122 C123 1.498 . S
C122 O140 1.258 . S
C122 O141 1.239 . S
C123 C122 1.498 . S
C123 C124 1.366 1_554 S
C123 C128 1.407 . S
C124 C123 1.366 1_556 S
C124 C125 1.392 . S
C124 H152 0.930 . S
C125 C124 1.392 . S
C125 C126 1.398 . S
C125 H153 0.929 . S
C126 C125 1.398 . S
C126 C127 1.352 . S
C127 C126 1.352 . S
C127 C128 1.384 1_556 S
C127 H154 0.930 . S
C128 C123 1.407 . S
C128 C127 1.384 1_554 S
C128 H155 0.929 . S
C129 O142 1.241 . S
C129 O143 1.273 . S
C130 O144 1.251 1_556 S
C130 O145 1.268 . S
C131 Nd121 2.836 . S
C131 C132 1.498 . S
C131 O146 1.258 . S
C131 O147 1.239 . S
C132 C131 1.498 . S
C132 C133 1.366 . S
C132 C137 1.407 . S
C133 C132 1.366 . S
C133 C134 1.392 . S
C133 H156 0.930 . S
C134 C133 1.392 . S
C134 C135 1.398 . S
C134 H157 0.929 . S
C135 C134 1.398 . S
C135 C136 1.352 . S
C136 C135 1.352 . S
C136 C137 1.384 . S
C136 H158 0.930 . S
C137 C132 1.407 . S
C137 C136 1.384 . S
C137 H159 0.929 . S
C138 O148 1.241 . S
C138 O149 1.273 . S
C139 O150 1.251 . S
C139 O151 1.268 . S
O140 Nd120 2.500 . S
O140 C122 1.258 . S
O141 Nd120 2.492 . S
O141 C122 1.239 . S
O142 Nd120 2.487 . S
O142 C129 1.241 . S
O143 Nd120 2.682 . S
O143 Nd121 2.414 . S
O143 C129 1.273 . S
O144 Nd120 2.410 . S
O144 C130 1.251 1_554 S
O145 Nd121 2.424 1_556 S
O145 C130 1.268 . S
O146 Nd121 2.500 . S
O146 C131 1.258 . S
O147 Nd121 2.492 . S
O147 C131 1.239 . S
O148 Nd121 2.487 . S
O148 C138 1.241 . S
O149 Nd120 2.414 . S
O149 Nd121 2.682 . S
O149 C138 1.273 . S
O150 Nd121 2.410 . S
O150 C139 1.251 . S
O151 Nd120 2.424 . S
O151 C139 1.268 . S
H152 C124 0.930 . S
H153 C125 0.929 . S
H154 C127 0.930 . S
H155 C128 0.929 . S
H156 C133 0.930 . S
H157 C134 0.929 . S
H158 C136 0.930 . S
H159 C137 0.929 . S
Nd160 C162 2.836 . S
Nd160 O180 2.500 . S
Nd160 O181 2.492 . S
Nd160 O182 2.487 . S
Nd160 O183 2.682 . S
Nd160 O184 2.410 . S
Nd160 O189 2.414 . S
Nd160 O191 2.424 . S
Nd161 C171 2.836 . S
Nd161 O183 2.414 . S
Nd161 O185 2.424 1_554 S
Nd161 O186 2.500 . S
Nd161 O187 2.492 . S
Nd161 O188 2.487 . S
Nd161 O189 2.682 . S
Nd161 O190 2.410 . S
C162 Nd160 2.836 . S
C162 C163 1.498 . S
C162 O180 1.258 . S
C162 O181 1.239 . S
C163 C162 1.498 . S
C163 C164 1.366 1_554 S
C163 C168 1.407 . S
C164 C163 1.366 1_556 S
C164 C165 1.392 . S
C164 H192 0.930 . S
C165 C164 1.392 . S
C165 C166 1.398 . S
C165 H193 0.929 . S
C166 C165 1.398 . S
C166 C167 1.352 . S
C167 C166 1.352 . S
C167 C168 1.384 1_556 S
C167 H194 0.930 . S
C168 C163 1.407 . S
C168 C167 1.384 1_554 S
C168 H195 0.929 . S
C169 O182 1.241 . S
C169 O183 1.273 . S
C170 O184 1.251 1_556 S
C170 O185 1.268 . S
C171 Nd161 2.836 . S
C171 C172 1.498 . S
C171 O186 1.258 . S
C171 O187 1.239 . S
C172 C171 1.498 . S
C172 C173 1.366 . S
C172 C177 1.407 . S
C173 C172 1.366 . S
C173 C174 1.392 . S
C173 H196 0.930 . S
C174 C173 1.392 . S
C174 C175 1.398 . S
C174 H197 0.929 . S
C175 C174 1.398 . S
C175 C176 1.352 . S
C176 C175 1.352 . S
C176 C177 1.384 . S
C176 H198 0.930 . S
C177 C172 1.407 . S
C177 C176 1.384 . S
C177 H199 0.929 . S
C178 O188 1.241 . S
C178 O189 1.273 . S
C179 O190 1.251 . S
C179 O191 1.268 . S
O180 Nd160 2.500 . S
O180 C162 1.258 . S
O181 Nd160 2.492 . S
O181 C162 1.239 . S
O182 Nd160 2.487 . S
O182 C169 1.241 . S
O183 Nd160 2.682 . S
O183 Nd161 2.414 . S
O183 C169 1.273 . S
O184 Nd160 2.410 . S
O184 C170 1.251 1_554 S
O185 Nd161 2.424 1_556 S
O185 C170 1.268 . S
O186 Nd161 2.500 . S
O186 C171 1.258 . S
O187 Nd161 2.492 . S
O187 C171 1.239 . S
O188 Nd161 2.487 . S
O188 C178 1.241 . S
O189 Nd160 2.414 . S
O189 Nd161 2.682 . S
O189 C178 1.273 . S
O190 Nd161 2.410 . S
O190 C179 1.251 . S
O191 Nd160 2.424 . S
O191 C179 1.268 . S
H192 C164 0.930 . S
H193 C165 0.929 . S
H194 C167 0.930 . S
H195 C168 0.929 . S
H196 C173 0.930 . S
H197 C174 0.929 . S
H198 C176 0.930 . S
H199 C177 0.929 . S
Nd200 C202 2.836 . S
Nd200 O220 2.500 . S
Nd200 O221 2.492 . S
Nd200 O222 2.487 . S
Nd200 O223 2.682 . S
Nd200 O224 2.410 . S
Nd200 O229 2.414 . S
Nd200 O231 2.424 1_556 S
Nd201 C211 2.836 . S
Nd201 O223 2.414 . S
Nd201 O225 2.424 . S
Nd201 O226 2.500 . S
Nd201 O227 2.492 . S
Nd201 O228 2.487 . S
Nd201 O229 2.682 . S
Nd201 O230 2.410 . S
C202 Nd200 2.836 . S
C202 C203 1.498 . S
C202 O220 1.258 . S
C202 O221 1.239 . S
C203 C202 1.498 . S
C203 C204 1.366 . S
C203 C208 1.407 . S
C204 C203 1.366 . S
C204 C205 1.392 . S
C204 H232 0.930 . S
C205 C204 1.392 . S
C205 C206 1.398 . S
C205 H233 0.929 . S
C206 C205 1.398 . S
C206 C207 1.352 . S
C207 C206 1.352 . S
C207 C208 1.384 . S
C207 H234 0.930 . S
C208 C203 1.407 . S
C208 C207 1.384 . S
C208 H235 0.929 . S
C209 O222 1.241 . S
C209 O223 1.273 . S
C210 O224 1.251 . S
C210 O225 1.268 . S
C211 Nd201 2.836 . S
C211 C212 1.498 . S
C211 O226 1.258 . S
C211 O227 1.239 . S
C212 C211 1.498 . S
C212 C213 1.366 1_556 S
C212 C217 1.407 . S
C213 C212 1.366 1_554 S
C213 C214 1.392 . S
C213 H236 0.930 . S
C214 C213 1.392 . S
C214 C215 1.398 . S
C214 H237 0.929 . S
C215 C214 1.398 . S
C215 C216 1.352 . S
C216 C215 1.352 . S
C216 C217 1.384 1_554 S
C216 H238 0.930 . S
C217 C212 1.407 . S
C217 C216 1.384 1_556 S
C217 H239 0.929 . S
C218 O228 1.241 . S
C218 O229 1.273 . S
C219 O230 1.251 1_554 S
C219 O231 1.268 . S
O220 Nd200 2.500 . S
O220 C202 1.258 . S
O221 Nd200 2.492 . S
O221 C202 1.239 . S
O222 Nd200 2.487 . S
O222 C209 1.241 . S
O223 Nd200 2.682 . S
O223 Nd201 2.414 . S
O223 C209 1.273 . S
O224 Nd200 2.410 . S
O224 C210 1.251 . S
O225 Nd201 2.424 . S
O225 C210 1.268 . S
O226 Nd201 2.500 . S
O226 C211 1.258 . S
O227 Nd201 2.492 . S
O227 C211 1.239 . S
O228 Nd201 2.487 . S
O228 C218 1.241 . S
O229 Nd200 2.414 . S
O229 Nd201 2.682 . S
O229 C218 1.273 . S
O230 Nd201 2.410 . S
O230 C219 1.251 1_556 S
O231 Nd200 2.424 1_554 S
O231 C219 1.268 . S
H232 C204 0.930 . S
H233 C205 0.929 . S
H234 C207 0.930 . S
H235 C208 0.929 . S
H236 C213 0.930 . S
H237 C214 0.929 . S
H238 C216 0.930 . S
H239 C217 0.929 . S
Nd240 C242 2.836 1_554 S
Nd240 O260 2.500 1_554 S
Nd240 O261 2.492 1_554 S
Nd240 O262 2.487 . S
Nd240 O263 2.682 . S
Nd240 O264 2.410 1_554 S
Nd240 O269 2.414 1_554 S
Nd240 O271 2.424 . S
Nd241 C251 2.836 1_556 S
Nd241 O263 2.414 1_556 S
Nd241 O265 2.424 . S
Nd241 O266 2.500 1_556 S
Nd241 O267 2.492 1_556 S
Nd241 O268 2.487 . S
Nd241 O269 2.682 . S
Nd241 O270 2.410 1_556 S
C242 Nd240 2.836 1_556 S
C242 C243 1.498 . S
C242 O260 1.258 . S
C242 O261 1.239 . S
C243 C242 1.498 . S
C243 C244 1.366 . S
C243 C248 1.407 . S
C244 C243 1.366 . S
C244 C245 1.392 . S
C244 H272 0.930 . S
C245 C244 1.392 . S
C245 C246 1.398 . S
C245 H273 0.929 . S
C246 C245 1.398 . S
C246 C247 1.352 . S
C247 C246 1.352 . S
C247 C248 1.384 . S
C247 H274 0.930 . S
C248 C243 1.407 . S
C248 C247 1.384 . S
C248 H275 0.929 . S
C249 O262 1.241 . S
C249 O263 1.273 . S
C250 O264 1.251 . S
C250 O265 1.268 . S
C251 Nd241 2.836 1_554 S
C251 C252 1.498 . S
C251 O266 1.258 . S
C251 O267 1.239 . S
C252 C251 1.498 . S
C252 C253 1.366 . S
C252 C257 1.407 . S
C253 C252 1.366 . S
C253 C254 1.392 . S
C253 H276 0.930 . S
C254 C253 1.392 . S
C254 C255 1.398 . S
C254 H277 0.929 . S
C255 C254 1.398 . S
C255 C256 1.352 . S
C256 C255 1.352 . S
C256 C257 1.384 . S
C256 H278 0.930 . S
C257 C252 1.407 . S
C257 C256 1.384 . S
C257 H279 0.929 . S
C258 O268 1.241 . S
C258 O269 1.273 . S
C259 O270 1.251 . S
C259 O271 1.268 . S
O260 Nd240 2.500 1_556 S
O260 C242 1.258 . S
O261 Nd240 2.492 1_556 S
O261 C242 1.239 . S
O262 Nd240 2.487 . S
O262 C249 1.241 . S
O263 Nd240 2.682 . S
O263 Nd241 2.414 1_554 S
O263 C249 1.273 . S
O264 Nd240 2.410 1_556 S
O264 C250 1.251 . S
O265 Nd241 2.424 . S
O265 C250 1.268 . S
O266 Nd241 2.500 1_554 S
O266 C251 1.258 . S
O267 Nd241 2.492 1_554 S
O267 C251 1.239 . S
O268 Nd241 2.487 . S
O268 C258 1.241 . S
O269 Nd240 2.414 1_556 S
O269 Nd241 2.682 . S
O269 C258 1.273 . S
O270 Nd241 2.410 1_554 S
O270 C259 1.251 . S
O271 Nd240 2.424 . S
O271 C259 1.268 . S
H272 C244 0.930 . S
H273 C245 0.929 . S
H274 C247 0.930 . S
H275 C248 0.929 . S
H276 C253 0.930 . S
H277 C254 0.929 . S
H278 C256 0.930 . S
H279 C257 0.929 . S
Nd280 C282 2.836 . S
Nd280 O300 2.500 . S
Nd280 O301 2.492 . S
Nd280 O302 2.487 . S
Nd280 O303 2.682 . S
Nd280 O304 2.410 . S
Nd280 O309 2.414 1_655 S
Nd280 O311 2.424 . S
Nd281 C291 2.836 . S
Nd281 O303 2.414 1_455 S
Nd281 O305 2.424 . S
Nd281 O306 2.500 . S
Nd281 O307 2.492 . S
Nd281 O308 2.487 . S
Nd281 O309 2.682 . S
Nd281 O310 2.410 . S
C282 Nd280 2.836 . S
C282 C283 1.498 . S
C282 O300 1.258 . S
C282 O301 1.239 . S
C283 C282 1.498 . S
C283 C284 1.366 . S
C283 C288 1.407 . S
C284 C283 1.366 . S
C284 C285 1.392 . S
C284 H312 0.930 . S
C285 C284 1.392 . S
C285 C286 1.398 . S
C285 H313 0.929 1_554 S
C286 C285 1.398 . S
C286 C287 1.352 . S
C287 C286 1.352 . S
C287 C288 1.384 . S
C287 H314 0.930 . S
C288 C283 1.407 . S
C288 C287 1.384 . S
C288 H315 0.929 . S
C289 O302 1.241 . S
C289 O303 1.273 . S
C290 O304 1.251 . S
C290 O305 1.268 1_655 S
C291 Nd281 2.836 . S
C291 C292 1.498 . S
C291 O306 1.258 . S
C291 O307 1.239 . S
C292 C291 1.498 . S
C292 C293 1.366 . S
C292 C297 1.407 . S
C293 C292 1.366 . S
C293 C294 1.392 . S
C293 H316 0.930 . S
C294 C293 1.392 . S
C294 C295 1.398 . S
C294 H317 0.929 1_556 S
C295 C294 1.398 . S
C295 C296 1.352 . S
C296 C295 1.352 . S
C296 C297 1.384 . S
C296 H318 0.930 . S
C297 C292 1.407 . S
C297 C296 1.384 . S
C297 H319 0.929 . S
C298 O308 1.241 . S
C298 O309 1.273 . S
C299 O310 1.251 . S
C299 O311 1.268 1_455 S
O300 Nd280 2.500 . S
O300 C282 1.258 . S
O301 Nd280 2.492 . S
O301 C282 1.239 . S
O302 Nd280 2.487 . S
O302 C289 1.241 . S
O303 Nd280 2.682 . S
O303 Nd281 2.414 1_655 S
O303 C289 1.273 . S
O304 Nd280 2.410 . S
O304 C290 1.251 . S
O305 Nd281 2.424 . S
O305 C290 1.268 1_455 S
O306 Nd281 2.500 . S
O306 C291 1.258 . S
O307 Nd281 2.492 . S
O307 C291 1.239 . S
O308 Nd281 2.487 . S
O308 C298 1.241 . S
O309 Nd280 2.414 1_455 S
O309 Nd281 2.682 . S
O309 C298 1.273 . S
O310 Nd281 2.410 . S
O310 C299 1.251 . S
O311 Nd280 2.424 . S
O311 C299 1.268 1_655 S
H312 C284 0.930 . S
H313 C285 0.929 1_556 S
H314 C287 0.930 . S
H315 C288 0.929 . S
H316 C293 0.930 . S
H317 C294 0.929 1_554 S
H318 C296 0.930 . S
H319 C297 0.929 . S
C6 C129 2.650 . S
C9 C46 2.651 . S
C49 C86 2.650 . S
C89 C126 2.651 1_554 S
C15 C218 2.651 . S
C18 C175 2.650 . S
C178 C95 2.651 . S
C215 C98 2.650 1_554 S
C246 C209 2.650 . S
C166 C249 2.651 1_556 S
C286 C169 2.651 . S
C206 C289 2.651 . S
C138 C255 2.651 . S
C258 C55 2.650 1_556 S
C58 C295 2.651 . S
C135 C298 2.651 . S
C19 C10 2.710 1_666 S
C50 C59 2.710 . S
C90 C99 2.710 1_565 S
C130 C139 2.710 . S
C170 C179 2.710 . S
C210 C219 2.710 . S
C250 C259 2.710 . S
C299 C290 2.710 1_456 S
