# Generated by pormake.
# Topology wiv, (6)-cn, num edge types: 1
# Building blocks:
#     Node 0, Type 0, BuildingBlock: JUFBIX_clean_sbu_0, # of connection points: 6
#     Node 1, Type 0, BuildingBlock: JUFBIX_clean_sbu_0, # of connection points: 6
#     Node 2, Type 0, BuildingBlock: JUFBIX_clean_sbu_0, # of connection points: 6
#     Node 3, Type 0, BuildingBlock: JUFBIX_clean_sbu_0, # of connection points: 6
#     Node 4, Type 0, BuildingBlock: JUFBIX_clean_sbu_0, # of connection points: 6
#     Node 5, Type 0, BuildingBlock: JUFBIX_clean_sbu_0, # of connection points: 6
#     Node 6, Type 0, BuildingBlock: JUFBIX_clean_sbu_0, # of connection points: 6
#     Node 7, Type 0, BuildingBlock: JUFBIX_clean_sbu_0, # of connection points: 6
#     Node 8, Type 0, BuildingBlock: JUFBIX_clean_sbu_0, # of connection points: 6
#     Node 9, Type 0, BuildingBlock: JUFBIX_clean_sbu_0, # of connection points: 6
#     Node 10, Type 0, BuildingBlock: JUFBIX_clean_sbu_0, # of connection points: 6
#     Node 11, Type 0, BuildingBlock: JUFBIX_clean_sbu_0, # of connection points: 6
#     Node 12, Type 0, BuildingBlock: JUFBIX_clean_sbu_0, # of connection points: 6
#     Node 13, Type 0, BuildingBlock: JUFBIX_clean_sbu_0, # of connection points: 6
#     Node 14, Type 0, BuildingBlock: JUFBIX_clean_sbu_0, # of connection points: 6
#     Node 15, Type 0, BuildingBlock: JUFBIX_clean_sbu_0, # of connection points: 6
#     Edge 16, Type (0, 0), BuildingBlock: CIFDUS_clean_linker_0, # of connection points: 2
#     Edge 17, Type (0, 0), BuildingBlock: CIFDUS_clean_linker_0, # of connection points: 2
#     Edge 18, Type (0, 0), BuildingBlock: CIFDUS_clean_linker_0, # of connection points: 2
#     Edge 19, Type (0, 0), BuildingBlock: CIFDUS_clean_linker_0, # of connection points: 2
#     Edge 20, Type (0, 0), BuildingBlock: CIFDUS_clean_linker_0, # of connection points: 2
#     Edge 21, Type (0, 0), BuildingBlock: CIFDUS_clean_linker_0, # of connection points: 2
#     Edge 22, Type (0, 0), BuildingBlock: CIFDUS_clean_linker_0, # of connection points: 2
#     Edge 23, Type (0, 0), BuildingBlock: CIFDUS_clean_linker_0, # of connection points: 2
#     Edge 24, Type (0, 0), BuildingBlock: CIFDUS_clean_linker_0, # of connection points: 2
#     Edge 25, Type (0, 0), BuildingBlock: CIFDUS_clean_linker_0, # of connection points: 2
#     Edge 26, Type (0, 0), BuildingBlock: CIFDUS_clean_linker_0, # of connection points: 2
#     Edge 27, Type (0, 0), BuildingBlock: CIFDUS_clean_linker_0, # of connection points: 2
#     Edge 28, Type (0, 0), BuildingBlock: CIFDUS_clean_linker_0, # of connection points: 2
#     Edge 29, Type (0, 0), BuildingBlock: CIFDUS_clean_linker_0, # of connection points: 2
#     Edge 30, Type (0, 0), BuildingBlock: CIFDUS_clean_linker_0, # of connection points: 2
#     Edge 31, Type (0, 0), BuildingBlock: CIFDUS_clean_linker_0, # of connection points: 2
#     Edge 32, Type (0, 0), BuildingBlock: CIFDUS_clean_linker_0, # of connection points: 2
#     Edge 33, Type (0, 0), BuildingBlock: CIFDUS_clean_linker_0, # of connection points: 2
#     Edge 34, Type (0, 0), BuildingBlock: CIFDUS_clean_linker_0, # of connection points: 2
#     Edge 35, Type (0, 0), BuildingBlock: CIFDUS_clean_linker_0, # of connection points: 2
#     Edge 36, Type (0, 0), BuildingBlock: CIFDUS_clean_linker_0, # of connection points: 2
#     Edge 37, Type (0, 0), BuildingBlock: CIFDUS_clean_linker_0, # of connection points: 2
#     Edge 38, Type (0, 0), BuildingBlock: CIFDUS_clean_linker_0, # of connection points: 2
#     Edge 39, Type (0, 0), BuildingBlock: CIFDUS_clean_linker_0, # of connection points: 2
#     Edge 40, Type (0, 0), BuildingBlock: CIFDUS_clean_linker_0, # of connection points: 2
#     Edge 41, Type (0, 0), BuildingBlock: CIFDUS_clean_linker_0, # of connection points: 2
#     Edge 42, Type (0, 0), BuildingBlock: CIFDUS_clean_linker_0, # of connection points: 2
#     Edge 43, Type (0, 0), BuildingBlock: CIFDUS_clean_linker_0, # of connection points: 2
#     Edge 44, Type (0, 0), BuildingBlock: CIFDUS_clean_linker_0, # of connection points: 2
#     Edge 45, Type (0, 0), BuildingBlock: CIFDUS_clean_linker_0, # of connection points: 2
#     Edge 46, Type (0, 0), BuildingBlock: CIFDUS_clean_linker_0, # of connection points: 2
#     Edge 47, Type (0, 0), BuildingBlock: CIFDUS_clean_linker_0, # of connection points: 2
#     Edge 48, Type (0, 0), BuildingBlock: CIFDUS_clean_linker_0, # of connection points: 2
#     Edge 49, Type (0, 0), BuildingBlock: CIFDUS_clean_linker_0, # of connection points: 2
#     Edge 50, Type (0, 0), BuildingBlock: CIFDUS_clean_linker_0, # of connection points: 2
#     Edge 51, Type (0, 0), BuildingBlock: CIFDUS_clean_linker_0, # of connection points: 2
#     Edge 52, Type (0, 0), BuildingBlock: CIFDUS_clean_linker_0, # of connection points: 2
#     Edge 53, Type (0, 0), BuildingBlock: CIFDUS_clean_linker_0, # of connection points: 2
#     Edge 54, Type (0, 0), BuildingBlock: CIFDUS_clean_linker_0, # of connection points: 2
#     Edge 55, Type (0, 0), BuildingBlock: CIFDUS_clean_linker_0, # of connection points: 2
#     Edge 56, Type (0, 0), BuildingBlock: CIFDUS_clean_linker_0, # of connection points: 2
#     Edge 57, Type (0, 0), BuildingBlock: CIFDUS_clean_linker_0, # of connection points: 2
#     Edge 58, Type (0, 0), BuildingBlock: CIFDUS_clean_linker_0, # of connection points: 2
#     Edge 59, Type (0, 0), BuildingBlock: CIFDUS_clean_linker_0, # of connection points: 2
#     Edge 60, Type (0, 0), BuildingBlock: CIFDUS_clean_linker_0, # of connection points: 2
#     Edge 61, Type (0, 0), BuildingBlock: CIFDUS_clean_linker_0, # of connection points: 2
#     Edge 62, Type (0, 0), BuildingBlock: CIFDUS_clean_linker_0, # of connection points: 2
#     Edge 63, Type (0, 0), BuildingBlock: CIFDUS_clean_linker_0, # of connection points: 2
# Relax obj value: 0.262
# Max RMSD: 0.138
# Mean RMSD: 0.123
data_MOF--net-wiv--node1-JUFBIX_clean_sbu_0--edge1-CIFDUS_clean_linker_0
_symmetry_space_group_name_H-M    P1
_symmetry_Int_Tables_number       1
_symmetry_cell_setting            triclinic
loop_
_symmetry_equiv_pos_as_xyz
'x, y, z'
_cell_length_a     60.089107
_cell_length_b     53.065147
_cell_length_c     13.296646
_cell_angle_alpha  83.865089
_cell_angle_beta   89.852595
_cell_angle_gamma 89.960134
loop_
_atom_site_label
_atom_site_type_symbol
_atom_site_fract_x
_atom_site_fract_y
_atom_site_fract_z
_atom_type_partial_charge
Co0 Co 0.39598 0.15617 0.20033 0.0
C1 C 0.41145 0.10511 0.22559 0.0
Co2 Co 0.43311 0.15392 0.19071 0.0
C3 C 0.35064 0.16655 0.1268 0.0
C4 C 0.35101 0.14743 0.2765 0.0
N5 N 0.36459 0.15812 0.20324 0.0
N6 N 0.32893 0.16116 0.14843 0.0
C7 C 0.32926 0.14928 0.24345 0.0
H8 H 0.35647 0.17572 0.05512 0.0
H9 H 0.35662 0.13763 0.34742 0.0
C10 C 0.41714 0.20489 0.16845 0.0
N11 N 0.46473 0.151 0.184 0.0
C12 C 0.48199 0.16355 0.22297 0.0
C13 C 0.47475 0.13286 0.1363 0.0
N14 N 0.50218 0.15353 0.20224 0.0
C15 C 0.49743 0.13428 0.14754 0.0
C16 C 0.41211 0.1539 1.0011 0.0
O17 O 0.39835 0.19355 0.18095 0.0
O18 O 0.43474 0.19114 0.16903 0.0
O19 O 0.4311 0.15273 0.04429 0.0
O20 O 0.39487 0.15536 0.05599 0.0
O21 O 0.43028 0.11645 0.21496 0.0
H22 H 0.46604 0.11918 0.09619 0.0
H23 H 0.47978 0.17927 0.26762 0.0
O24 O 0.39394 0.11884 0.21973 0.0
O25 O 0.39807 0.15684 0.34698 0.0
O26 O 0.43452 0.15521 0.33458 0.0
C27 C 0.41717 0.15615 0.38972 0.0
H28 H 0.31501 0.14118 0.28485 0.0
H29 H 0.50958 0.12207 0.11692 0.0
Co30 Co 0.17704 0.63986 0.79856 0.0
C31 C 0.21821 0.66353 0.78632 0.0
Co32 Co 0.17313 0.68112 0.79733 0.0
C33 C 0.16473 0.59081 0.74611 0.0
C34 C 0.19036 0.58858 0.85851 0.0
N35 N 0.17818 0.6052 0.79765 0.0
N36 N 0.16773 0.5659 0.77395 0.0
C37 C 0.18385 0.56435 0.84453 0.0
H38 H 0.15209 0.59846 0.69347 0.0
H39 H 0.20248 0.59378 0.91264 0.0
C40 C 0.13198 0.65685 0.80193 0.0
N41 N 0.17151 0.716 0.80695 0.0
C42 C 0.1802 0.72752 0.8841 0.0
C43 C 0.15704 0.73297 0.7619 0.0
N44 N 0.17103 0.75048 0.89264 0.0
C45 C 0.15672 0.75412 0.8141 0.0
C46 C 0.17386 0.66584 0.60099 0.0
O47 O 0.14507 0.63789 0.80504 0.0
O48 O 0.14059 0.67886 0.79903 0.0
O49 O 0.17261 0.68547 0.64919 0.0
O50 O 0.17565 0.64418 0.65206 0.0
O51 O 0.20576 0.68289 0.79316 0.0
H52 H 0.14592 0.72926 0.70136 0.0
H53 H 0.19189 0.71829 0.93768 0.0
O54 O 0.209 0.64187 0.78954 0.0
O55 O 0.17845 0.63563 0.94674 0.0
O56 O 0.17333 0.67623 0.94433 0.0
C57 C 0.17601 0.65487 0.99543 0.0
H58 H 0.1901 0.54695 0.88455 0.0
H59 H 0.14533 0.76988 0.80003 0.0
Co60 Co 0.6556 0.89585 0.07307 0.0
C61 C 0.64725 0.94699 0.06416 0.0
Co62 Co 0.61948 0.90463 0.08774 0.0
C63 C 0.70087 0.89451 0.98831 0.0
C64 C 0.69788 0.87347 0.13414 0.0
N65 N 0.68609 0.88804 0.06422 0.0
N66 N 0.72139 0.88439 1.00798 0.0
C67 C 0.71939 0.87128 0.10036 0.0
H68 H 0.69648 0.90597 0.91901 0.0
H69 H 0.69122 0.8647 0.20503 0.0
C70 C 0.62869 0.85332 0.10479 0.0
N71 N 0.58893 0.91238 0.0948 0.0
C72 C 0.57312 0.90347 0.16273 0.0
C73 C 0.57781 0.9282 0.02635 0.0
N74 N 0.55261 0.91292 0.13825 0.0
C75 C 0.55564 0.92848 0.0524 0.0
C76 C 0.63425 0.90091 0.88518 0.0
O77 O 0.64858 0.86114 0.09124 0.0
O78 O 0.61282 0.86929 0.10246 0.0
O79 O 0.61758 0.90536 0.94054 0.0
O80 O 0.65289 0.89596 0.92818 0.0
O81 O 0.627 0.94001 0.07556 0.0
H82 H 0.58534 0.93879 0.96099 0.0
H83 H 0.57651 0.88991 0.22765 0.0
O84 O 0.66228 0.93042 0.05713 0.0
O85 O 0.65764 0.89594 0.21995 0.0
O86 O 0.62194 0.90373 0.23296 0.0
C87 C 0.64078 0.89963 0.27557 0.0
H88 H 0.73252 0.8608 0.14165 0.0
H89 H 0.54274 0.93955 1.0117 0.0
Co90 Co 0.89412 0.40986 0.99916 0.0
C91 C 0.91843 0.40022 0.82319 0.0
Co92 Co 0.87415 0.40071 0.8729 0.0
C93 C 0.9102 0.43177 0.17091 0.0
C94 C 0.9343 0.4073 0.11491 0.0
N95 N 0.91391 0.41733 0.09622 0.0
N96 N 0.92619 0.42905 0.24239 0.0
C97 C 0.942 0.41473 0.20416 0.0
H98 H 0.89411 0.44026 0.18243 0.0
H99 H 0.94204 0.39329 0.07279 0.0
C100 C 0.84872 0.4103 0.04111 0.0
N101 N 0.85447 0.39282 0.77654 0.0
C102 C 0.85842 0.37727 0.70591 0.0
C103 C 0.83445 0.40323 0.75297 0.0
N104 N 0.84336 0.38003 0.63051 0.0
C105 C 0.8274 0.39505 0.66385 0.0
C106 C 0.88557 0.35682 1.00739 0.0
O107 O 0.86704 0.41573 0.08301 0.0
O108 O 0.84955 0.40316 0.95423 0.0
O109 O 0.8765 0.36424 0.9224 0.0
O110 O 0.89423 0.37382 0.05592 0.0
O111 O 0.89929 0.39795 0.78502 0.0
H112 H 0.8267 0.41789 0.79164 0.0
H113 H 0.8744 0.3681 0.69927 0.0
O114 O 0.91957 0.40437 0.91525 0.0
O115 O 0.89453 0.44535 0.94635 0.0
O116 O 0.87216 0.4379 0.82414 0.0
C117 C 0.8836 0.4539 0.86841 0.0
H118 H 0.95595 0.40622 0.24667 0.0
H119 H 0.81405 0.40366 0.61753 0.0
Co120 Co 0.3906 0.41079 0.08065 0.0
C121 C 0.41043 0.4601 0.04264 0.0
Co122 Co 0.42769 0.40951 0.06379 0.0
C123 C 0.34679 0.40578 0.18115 0.0
C124 C 0.34499 0.42361 0.02941 0.0
N125 N 0.35951 0.41283 0.09829 0.0
N126 N 0.32498 0.41169 0.16632 0.0
C127 C 0.32392 0.42286 0.07051 0.0
H128 H 0.35344 0.39665 0.25137 0.0
H129 H 0.34948 0.43218 0.95466 0.0
C130 C 0.40683 0.36022 0.09966 0.0
N131 N 0.45911 0.40594 0.04199 0.0
C132 C 0.4788 0.41534 0.0736 0.0
C133 C 0.46557 0.38875 0.97982 0.0
N134 N 0.49688 0.40423 0.03369 0.0
C135 C 0.48823 0.38774 0.97439 0.0
C136 C 0.41404 0.41107 0.26631 0.0
O137 O 0.3892 0.37373 0.10027 0.0
O138 O 0.42539 0.37186 0.08584 0.0
O139 O 0.43131 0.4104 0.2097 0.0
O140 O 0.39489 0.41152 0.22477 0.0
O141 O 0.42861 0.44723 0.04126 0.0
H142 H 0.45441 0.37719 0.94064 0.0
H143 H 0.47988 0.42949 0.12626 0.0
O144 O 0.39226 0.44789 0.06048 0.0
O145 O 0.38712 0.40998 0.93436 0.0
O146 O 0.42331 0.4089 0.91935 0.0
C147 C 0.40427 0.40935 0.87763 0.0
H148 H 0.3091 0.43085 0.0336 0.0
H149 H 0.49768 0.37571 0.92912 0.0
Co150 Co 0.39662 0.65573 0.77117 0.0
C151 C 0.42503 0.66562 0.936 0.0
Co152 Co 0.3803 0.66599 0.90603 0.0
C153 C 0.40912 0.6312 0.59908 0.0
C154 C 0.43597 0.65272 0.64917 0.0
N155 N 0.41461 0.6462 0.66976 0.0
N156 N 0.42516 0.63023 0.52817 0.0
C157 C 0.44265 0.64245 0.56376 0.0
H158 H 0.39225 0.62463 0.59013 0.0
H159 H 0.44552 0.66598 0.6876 0.0
C160 C 0.35112 0.65651 0.7472 0.0
N161 N 0.36219 0.67585 1.00613 0.0
C162 C 0.36767 0.69118 0.07561 0.0
C163 C 0.34071 0.66971 0.02594 0.0
N164 N 0.35153 0.69266 0.14568 0.0
C165 C 0.33399 0.68046 0.11024 0.0
C166 C 0.39009 0.70893 0.76225 0.0
O167 O 0.36814 0.64979 0.69849 0.0
O168 O 0.3543 0.6641 0.83217 0.0
O169 O 0.38321 0.7019 0.85194 0.0
O170 O 0.39667 0.69156 0.70951 0.0
O171 O 0.40715 0.6682 0.98522 0.0
H172 H 0.33101 0.65667 0.98671 0.0
H173 H 0.38457 0.69767 0.08453 0.0
O174 O 0.42344 0.66143 0.84416 0.0
O175 O 0.39707 0.62057 0.82915 0.0
O176 O 0.37771 0.62924 0.95995 0.0
C177 C 0.38775 0.61269 0.91245 0.0
H178 H 0.45755 0.64785 0.52072 0.0
H179 H 0.31892 0.67552 0.1527 0.0
Co180 Co 0.6433 0.65579 0.31362 0.0
C181 C 0.62129 0.60962 0.31396 0.0
Co182 Co 0.60636 0.65905 0.2938 0.0
C183 C 0.68837 0.66041 0.39399 0.0
C184 C 0.68782 0.63954 0.26511 0.0
N185 N 0.67447 0.65218 0.3241 0.0
N186 N 0.70983 0.65335 0.38114 0.0
C187 C 0.70941 0.64026 0.29957 0.0
H188 H 0.6828 0.67129 0.45361 0.0
H189 H 0.68215 0.62988 0.20228 0.0
C190 C 0.62922 0.7052 0.2861 0.0
N191 N 0.575 0.66368 0.28828 0.0
C192 C 0.55842 0.65658 0.22752 0.0
C193 C 0.56443 0.67731 0.35407 0.0
N194 N 0.53809 0.66493 0.25515 0.0
C195 C 0.54205 0.67794 0.33465 0.0
C196 C 0.6221 0.65623 0.49931 0.0
O197 O 0.64629 0.69115 0.30022 0.0
O198 O 0.61006 0.69505 0.28389 0.0
O199 O 0.60508 0.65734 0.4417 0.0
O200 O 0.64123 0.65536 0.45865 0.0
O201 O 0.60366 0.62296 0.30013 0.0
H202 H 0.57253 0.68669 0.41233 0.0
H203 H 0.56115 0.64544 0.16498 0.0
O204 O 0.63992 0.6203 0.32535 0.0
O205 O 0.64466 0.65628 0.16626 0.0
O206 O 0.60842 0.66043 0.14846 0.0
C207 C 0.62759 0.65837 0.1084 0.0
H208 H 0.72356 0.63105 0.26872 0.0
H209 H 0.52962 0.68779 0.37474 0.0
Co210 Co 0.67326 0.41996 1.01938 0.0
C211 C 0.7168 0.3995 0.02713 0.0
Co212 Co 0.67397 0.37836 1.01897 0.0
C213 C 0.65897 0.46826 0.07816 0.0
C214 C 0.68306 0.47223 0.95837 0.0
N215 N 0.67234 0.45476 1.02195 0.0
N216 N 0.66067 0.49339 0.05064 0.0
C217 C 0.67578 0.496 0.97535 0.0
H218 H 0.64741 0.45981 0.13458 0.0
H219 H 0.6948 0.4679 0.90083 0.0
C220 C 0.63048 0.39816 1.01942 0.0
N221 N 0.67443 0.34338 1.00587 0.0
C222 C 0.68513 0.33345 0.92914 0.0
C223 C 0.6585 0.32623 0.03529 0.0
N224 N 0.67583 0.31167 0.90594 0.0
C225 C 0.65913 0.30695 0.97309 0.0
C226 C 0.67312 0.39319 0.21632 0.0
O227 O 0.64068 0.41925 1.01776 0.0
O228 O 0.64206 0.37809 1.01841 0.0
O229 O 0.67368 0.37357 0.16752 0.0
O230 O 0.67272 0.41503 0.16576 0.0
O231 O 0.70586 0.3791 1.0217 0.0
H232 H 0.64545 0.32914 0.08904 0.0
H233 H 0.69742 0.34381 0.88147 0.0
O234 O 0.70599 0.42032 1.02416 0.0
O235 O 0.67377 0.4246 0.87038 0.0
O236 O 0.67404 0.38361 0.87259 0.0
C237 C 0.67394 0.40517 0.82157 0.0
H238 H 0.68089 0.51382 0.93457 0.0
H239 H 0.64694 0.292 0.97108 0.0
Co240 Co 0.89355 0.65742 0.71249 0.0
C241 C 0.90816 0.60611 0.73737 0.0
Co242 Co 0.93069 0.6545 0.70287 0.0
C243 C 0.84789 0.66539 0.63749 0.0
C244 C 0.8486 0.65277 0.79536 0.0
N245 N 0.86208 0.66001 0.71625 0.0
N246 N 0.82623 0.66137 0.66366 0.0
C247 C 0.82674 0.65365 0.76361 0.0
H248 H 0.85337 0.6714 0.56126 0.0
H249 H 0.85429 0.64585 0.87036 0.0
C250 C 0.91561 0.7058 0.68134 0.0
N251 N 0.96222 0.65057 0.69518 0.0
C252 C 0.98003 0.66162 0.73661 0.0
C253 C 0.97143 0.6328 0.64282 0.0
N254 N 0.99978 0.65102 0.71268 0.0
C255 C 0.99416 0.63298 0.6534 0.0
C256 C 0.90955 0.65495 0.51312 0.0
O257 O 0.89662 0.6948 0.69267 0.0
O258 O 0.93303 0.69171 0.68245 0.0
O259 O 0.92851 0.65365 0.55636 0.0
O260 O 0.89232 0.65653 0.56802 0.0
O261 O 0.92712 0.61714 0.72584 0.0
H262 H 0.96213 0.62017 0.59993 0.0
H263 H 0.97851 0.67665 0.78519 0.0
O264 O 0.89084 0.62015 0.73249 0.0
O265 O 0.89591 0.65814 0.85901 0.0
O266 O 0.93231 0.65548 0.84693 0.0
C267 C 0.91499 0.65691 0.90191 0.0
H268 H 0.81247 0.64753 0.8097 0.0
H269 H 1.00573 0.62078 0.61909 0.0
Co270 Co 0.67864 0.14961 0.31268 0.0
C271 C 0.71975 0.17364 0.28523 0.0
Co272 Co 0.67471 0.19102 0.28267 0.0
C273 C 0.66718 0.09939 0.27401 0.0
C274 C 0.69646 0.09946 0.36559 0.0
N275 N 0.6805 0.11475 0.32164 0.0
N276 N 0.67432 0.07524 0.28533 0.0
C277 C 0.69278 0.0751 0.34258 0.0
H278 H 0.65316 0.10599 0.22737 0.0
H279 H 0.71029 0.10577 0.40836 0.0
C280 C 0.63361 0.16584 0.30146 0.0
N281 N 0.6725 0.22646 0.28074 0.0
C282 C 0.68034 0.23926 0.35633 0.0
C283 C 0.6571 0.24204 0.2343 0.0
N284 N 0.6694 0.26123 0.36434 0.0
C285 C 0.65516 0.26333 0.28527 0.0
C286 C 0.67599 0.17006 0.10323 0.0
O287 O 0.64683 0.14717 0.31951 0.0
O288 O 0.64205 0.18795 0.28363 0.0
O289 O 0.67467 0.19186 0.13583 0.0
O290 O 0.67736 0.15053 0.16766 0.0
O291 O 0.70735 0.19338 0.27913 0.0
H292 H 0.64614 0.23696 0.17528 0.0
H293 H 0.69188 0.231 0.41283 0.0
O294 O 0.71051 0.15207 0.30283 0.0
O295 O 0.67995 0.14879 0.45975 0.0
O296 O 0.67457 0.18939 0.42821 0.0
C297 C 0.67722 0.17025 0.49271 0.0
H298 H 0.70304 0.05865 0.36453 0.0
H299 H 0.64276 0.27802 0.27023 0.0
Co300 Co 0.14451 0.40434 0.53525 0.0
C301 C 0.1237 0.45115 0.51924 0.0
Co302 Co 0.1074 0.40245 0.52667 0.0
C303 C 0.19008 0.39965 0.46389 0.0
C304 C 0.18891 0.41849 0.59794 0.0
N305 N 0.17585 0.40673 0.53511 0.0
N306 N 0.21136 0.40688 0.47838 0.0
C307 C 0.21064 0.41857 0.56357 0.0
H308 H 0.18479 0.38988 0.40076 0.0
H309 H 0.18289 0.42751 0.66199 0.0
C310 C 0.12883 0.35554 0.54988 0.0
N311 N 0.07607 0.39962 0.52447 0.0
C312 C 0.06067 0.40622 0.59184 0.0
C313 C 0.06422 0.38769 0.45777 0.0
N314 N 0.03974 0.39878 0.57004 0.0
C315 C 0.04209 0.38719 0.48514 0.0
C316 C 0.12785 0.40476 0.33537 0.0
O317 O 0.14637 0.36894 0.54823 0.0
O318 O 0.10992 0.36635 0.5388 0.0
O319 O 0.10885 0.40381 0.37887 0.0
O320 O 0.14512 0.40519 0.3903 0.0
O321 O 0.10562 0.43863 0.51845 0.0
H322 H 0.07132 0.37897 0.39514 0.0
H323 H 0.06486 0.41591 0.6568 0.0
O324 O 0.14227 0.43967 0.52358 0.0
O325 O 0.14306 0.40358 0.68279 0.0
O326 O 0.1067 0.40118 0.67169 0.0
C327 C 0.12402 0.40221 0.72634 0.0
H328 H 0.22457 0.42777 0.59592 0.0
H329 H 0.02895 0.37793 0.44749 0.0
Co330 Co 0.39471 0.90741 0.48441 0.0
C331 C 0.42669 0.89968 0.33603 0.0
Co332 Co 0.38019 0.89926 0.34024 0.0
C333 C 0.39848 0.93707 0.64095 0.0
C334 C 0.42863 0.91631 0.63232 0.0
N335 N 0.40732 0.91725 0.60026 0.0
N336 N 0.41327 0.94943 0.69379 0.0
C337 C 0.43226 0.93592 0.691 0.0
H338 H 0.38166 0.94338 0.62519 0.0
H339 H 0.4412 0.90365 0.60809 0.0
C340 C 0.34749 0.9073 0.48243 0.0
N341 N 0.36701 0.89301 0.21787 0.0
C342 C 0.37417 0.90807 0.13689 0.0
C343 C 0.34478 0.89125 0.20296 0.0
N344 N 0.3573 0.91942 0.08319 0.0
C345 C 0.3387 0.90801 0.12108 0.0
C346 C 0.3878 0.85465 0.47981 0.0
O347 O 0.36393 0.91033 0.54068 0.0
O348 O 0.35159 0.90236 0.39387 0.0
O349 O 0.38074 0.86264 0.39076 0.0
O350 O 0.39479 0.87121 0.53582 0.0
O351 O 0.40936 0.89635 0.28458 0.0
H352 H 0.33319 0.88216 0.25772 0.0
H353 H 0.39124 0.91433 0.1289 0.0
O354 O 0.42428 0.90419 0.42749 0.0
O355 O 0.39523 0.94364 0.43354 0.0
O356 O 0.37989 0.93644 0.29277 0.0
C357 C 0.38808 0.95241 0.34737 0.0
H358 H 0.44779 0.94015 0.7266 0.0
H359 H 0.32189 0.91359 0.09967 0.0
Co360 Co 0.89037 0.91201 0.58332 0.0
C361 C 0.90967 0.96164 0.55957 0.0
Co362 Co 0.92755 0.91101 0.59317 0.0
C363 C 0.84384 0.90641 0.65042 0.0
C364 C 0.84685 0.92468 0.49968 0.0
N365 N 0.85902 0.91338 0.57675 0.0
N366 N 0.82279 0.91327 0.62285 0.0
C367 C 0.82474 0.92462 0.5275 0.0
H368 H 0.84826 0.89753 0.72474 0.0
H369 H 0.85368 0.93333 0.42893 0.0
C370 C 0.90713 0.86148 0.61382 0.0
N371 N 0.95926 0.90849 0.60513 0.0
C372 C 0.97699 0.91589 0.54455 0.0
C373 C 0.96851 0.89393 0.68351 0.0
N374 N 0.99665 0.90614 0.58253 0.0
C375 C 0.99111 0.89249 0.67009 0.0
C376 C 0.906 0.91279 0.78273 0.0
O377 O 0.88946 0.87494 0.60193 0.0
O378 O 0.92576 0.87322 0.61343 0.0
O379 O 0.92498 0.91241 0.73961 0.0
O380 O 0.88871 0.9128 0.72767 0.0
O381 O 0.92802 0.94899 0.57035 0.0
H382 H 0.95929 0.88405 0.74563 0.0
H383 H 0.97543 0.92722 0.47225 0.0
O384 O 0.89147 0.94912 0.56465 0.0
O385 O 0.89293 0.91123 0.43669 0.0
O386 O 0.92939 0.90977 0.44927 0.0
C387 C 0.912 0.91033 0.39401 0.0
H388 H 0.81121 0.93277 0.4813 0.0
H389 H 1.00263 0.88192 0.72097 0.0
Co390 Co 0.89654 0.15944 0.30317 0.0
C391 C 0.92132 0.16796 0.47886 0.0
Co392 Co 0.87703 0.16773 0.4323 0.0
C393 C 0.91279 0.13794 0.13047 0.0
C394 C 0.93652 0.16294 0.1852 0.0
N395 N 0.91622 0.15267 0.20434 0.0
N396 N 0.9289 0.14059 0.05912 0.0
C397 C 0.94447 0.15528 0.09661 0.0
H398 H 0.89684 0.12912 0.11961 0.0
H399 H 0.94407 0.1771 0.22694 0.0
C400 C 0.85121 0.15981 0.26345 0.0
N401 N 0.85741 0.17487 0.5304 0.0
C402 C 0.86107 0.1904 0.60127 0.0
C403 C 0.83742 0.16428 0.55347 0.0
N404 N 0.84576 0.18761 0.67598 0.0
C405 C 0.83005 0.1724 0.64234 0.0
C406 C 0.88784 0.21232 0.30036 0.0
O407 O 0.86935 0.15421 0.21989 0.0
O408 O 0.8523 0.16602 0.35167 0.0
O409 O 0.87925 0.20448 0.38619 0.0
O410 O 0.89637 0.19565 0.2496 0.0
O411 O 0.90233 0.16982 0.51959 0.0
H412 H 0.82982 0.14967 0.51416 0.0
H413 H 0.87696 0.19971 0.60824 0.0
O414 O 0.92208 0.16455 0.38595 0.0
O415 O 0.89722 0.12352 0.35306 0.0
O416 O 0.87515 0.13032 0.47756 0.0
C417 C 0.88656 0.11456 0.43151 0.0
H418 H 0.95844 0.16377 0.05391 0.0
H419 H 0.81659 0.16376 0.68815 0.0
Co420 Co 0.14728 0.16478 0.78043 0.0
C421 C 0.13642 0.11428 0.78544 0.0
Co422 Co 0.11076 0.15829 0.76616 0.0
C423 C 0.19213 0.16293 0.86756 0.0
C424 C 0.19091 0.18508 0.72364 0.0
N425 N 0.17811 0.17069 0.79049 0.0
N426 N 0.21313 0.17196 0.85165 0.0
C427 C 0.2123 0.18585 0.76061 0.0
H428 H 0.18695 0.15097 0.9345 0.0
H429 H 0.18496 0.19494 0.65342 0.0
C430 C 0.12234 0.20888 0.75026 0.0
N431 N 0.07988 0.1525 0.75903 0.0
C432 C 0.06466 0.16231 0.69034 0.0
C433 C 0.06787 0.13752 0.82725 0.0
N434 N 0.04367 0.15418 0.71375 0.0
C435 C 0.04576 0.13856 0.80002 0.0
C436 C 0.12567 0.16065 0.96869 0.0
O437 O 0.14187 0.1999 0.76364 0.0
O438 O 0.10578 0.19388 0.75276 0.0
O439 O 0.1088 0.15731 0.91336 0.0
O440 O 0.1445 0.16445 0.92558 0.0
O441 O 0.11654 0.12264 0.77622 0.0
H442 H 0.07475 0.12646 0.89293 0.0
H443 H 0.06888 0.17544 0.62511 0.0
O444 O 0.15229 0.12971 0.79433 0.0
O445 O 0.14939 0.165 0.63353 0.0
O446 O 0.11335 0.15941 0.62066 0.0
C447 C 0.13235 0.16241 0.57796 0.0
H448 H 0.22598 0.19657 0.7244 0.0
H449 H 0.03232 0.12817 0.83973 0.0
Co450 Co 0.16867 0.92378 0.45095 0.0
C451 C 0.21386 0.90744 0.46823 0.0
Co452 Co 0.17304 0.88241 0.48281 0.0
C453 C 0.15288 0.97176 0.49932 0.0
C454 C 0.17974 0.97612 0.39255 0.0
N455 N 0.16628 0.95861 0.44215 0.0
N456 N 0.15773 0.99663 0.48882 0.0
C457 C 0.17466 0.99956 0.42216 0.0
H458 H 0.14094 0.96303 0.55338 0.0
H459 H 0.19325 0.9719 0.34304 0.0
C460 C 0.1278 0.89911 0.4709 0.0
N461 N 0.17531 0.84702 0.4875 0.0
C462 C 0.18489 0.83511 0.41338 0.0
C463 C 0.16281 0.82896 0.53975 0.0
N464 N 0.17814 0.81089 0.41377 0.0
C465 C 0.16448 0.80673 0.49433 0.0
C466 C 0.17037 0.90342 0.66145 0.0
O467 O 0.13662 0.92091 0.45277 0.0
O468 O 0.14066 0.87985 0.4837 0.0
O469 O 0.17273 0.88173 0.62917 0.0
O470 O 0.16861 0.92285 0.59677 0.0
O471 O 0.20527 0.88541 0.48437 0.0
H472 H 0.15133 0.83244 0.59953 0.0
H473 H 0.19499 0.84467 0.35363 0.0
O474 O 0.20091 0.92643 0.45007 0.0
O475 O 0.16871 0.92467 0.30458 0.0
O476 O 0.17332 0.88387 0.33608 0.0
C477 C 0.17144 0.90324 0.27161 0.0
H478 H 0.18331 1.01719 0.40006 0.0
H479 H 0.15458 0.7898 0.51245 0.0
H480 H 0.4195 0.98733 0.39561 0.0
H481 H 0.36005 0.98189 0.21905 0.0
H482 H 0.36134 1.02774 0.16799 0.0
H483 H 0.37913 0.07043 0.17537 0.0
H484 H 0.44084 0.07443 0.33742 0.0
H485 H 0.43887 1.02893 0.39118 0.0
C486 C 0.40679 0.9961 0.34578 0.0
C487 C 0.38952 0.98071 0.31246 0.0
C488 C 0.40804 1.02265 0.3138 0.0
C489 C 0.37352 0.99283 0.24653 0.0
C490 C 0.37425 1.01926 0.21731 0.0
C491 C 0.39222 0.06137 0.22214 0.0
C492 C 0.41013 0.07643 0.25238 0.0
C493 C 0.39137 0.03455 0.25067 0.0
C494 C 0.42691 0.0638 0.31221 0.0
C495 C 0.42575 0.03758 0.3435 0.0
H496 H 0.0333 0.61766 0.75062 0.0
H497 H 1.01776 0.69708 0.74054 0.0
H498 H 0.05719 0.70647 0.77055 0.0
H499 H 0.09698 0.69192 0.7897 0.0
H500 H 0.11078 0.61174 0.80026 0.0
H501 H 0.07155 0.60309 0.77945 0.0
C502 C 0.03846 0.63707 0.75505 0.0
C503 C 0.02245 0.65664 0.74212 0.0
C504 C 0.06111 0.64226 0.77184 0.0
C505 C 0.02957 0.6816 0.75047 0.0
C506 C 0.05222 0.68697 0.76694 0.0
C507 C 0.09138 0.67255 0.78823 0.0
C508 C 0.10723 0.65259 0.79616 0.0
C509 C 0.0683 0.66746 0.77628 0.0
C510 C 0.09935 0.62763 0.79421 0.0
C511 C 0.07675 0.62256 0.78215 0.0
H512 H 0.62218 0.9849 0.1308 0.0
H513 H 0.6882 0.96776 0.02815 0.0
H514 H 0.70237 1.00664 0.08595 0.0
H515 H 0.69695 0.04314 0.18226 0.0
H516 H 0.63125 0.06156 0.28085 0.0
H517 H 0.61593 1.02456 0.20857 0.0
C518 C 0.63954 0.98998 0.11887 0.0
C519 C 0.65414 0.97323 0.07653 0.0
C520 C 0.64772 1.01232 0.15351 0.0
C521 C 0.67661 0.98016 0.06144 0.0
C522 C 0.6848 1.00233 0.09505 0.0
C523 C 0.67929 0.03896 0.18741 0.0
C524 C 0.66523 0.05448 0.23817 0.0
C525 C 0.67068 1.01806 0.14433 0.0
C526 C 0.64229 0.04953 0.24262 0.0
C527 C 0.63359 1.02848 0.20133 0.0
H528 H 0.9615 0.40471 0.88461 0.0
H529 H 0.92218 0.39367 0.62168 0.0
H530 H 0.95609 0.39301 0.51976 0.0
H531 H 0.99697 0.3956 0.50508 0.0
H532 H 0.03617 0.40587 0.7694 0.0
H533 H 1.0023 0.40724 0.86977 0.0
C534 C 0.96029 0.40205 0.80508 0.0
C535 C 0.93917 0.3991 0.7614 0.0
C536 C 0.97991 0.40174 0.74665 0.0
C537 C 0.93809 0.39585 0.65785 0.0
C538 C 0.95754 0.39553 0.59931 0.0
C539 C 0.99824 0.39796 0.58473 0.0
C540 C 1.01943 0.40059 0.6288 0.0
C541 C 0.97856 0.39842 0.6429 0.0
C542 C 1.02035 0.4041 0.73222 0.0
C543 C 1.00089 0.40469 0.79024 0.0
H544 H 0.37848 0.4952 0.09117 0.0
H545 H 0.44108 0.49067 0.93488 0.0
H546 H 0.43948 0.53622 0.88116 0.0
H547 H 0.41994 0.57778 0.87323 0.0
H548 H 0.359 0.58355 0.04064 0.0
H549 H 0.36039 0.53781 0.09475 0.0
C550 C 0.39191 0.50414 0.0459 0.0
C551 C 0.40993 0.48889 1.01729 0.0
C552 C 0.39112 0.53091 1.01655 0.0
C553 C 0.42706 0.50139 0.95901 0.0
C554 C 0.42609 0.52765 0.92766 0.0
C555 C 0.40693 0.56914 0.9219 0.0
C556 C 0.38919 0.58459 0.95152 0.0
C557 C 0.40815 0.54266 0.95511 0.0
C558 C 0.37282 0.57261 1.01596 0.0
C559 C 0.37361 0.54624 0.04688 0.0
H560 H 0.52746 0.66694 0.05626 0.0
H561 H 0.49934 0.65688 0.35604 0.0
H562 H 0.46182 0.65694 0.28583 0.0
H563 H 0.43649 0.66109 0.13823 0.0
H564 H 0.46487 0.67147 0.83831 0.0
H565 H 0.5022 0.67026 0.90872 0.0
C566 C 0.51312 0.66437 0.1059 0.0
C567 C 0.5163 0.6619 0.21131 0.0
C568 C 0.49139 0.66485 0.0648 0.0
C569 C 0.49742 0.65897 0.27464 0.0
C570 C 0.47589 0.65907 0.2345 0.0
C571 C 0.45083 0.66325 0.08833 0.0
C572 C 0.44764 0.66639 0.9827 0.0
C573 C 0.47257 0.66236 0.12956 0.0
C574 C 0.46659 0.66892 0.91969 0.0
C575 C 0.4881 0.6682 0.95996 0.0
H576 H 0.61275 0.59337 0.13542 0.0
H577 H 0.63375 0.56792 0.43849 0.0
H578 H 0.64539 0.52711 0.3844 0.0
H579 H 0.65468 0.50144 0.2448 0.0
H580 H 0.63855 0.53024 0.93882 0.0
H581 H 0.61996 0.56694 0.99864 0.0
C582 C 0.61905 0.57843 0.19012 0.0
C583 C 0.62183 0.58315 0.29115 0.0
C584 C 0.62712 0.5559 0.15686 0.0
C585 C 0.63095 0.56427 0.3609 0.0
C586 C 0.63788 0.54114 0.32958 0.0
C587 C 0.6467 0.5156 0.19204 0.0
C588 C 0.64793 0.51338 0.08782 0.0
C589 C 0.63684 0.53713 0.22696 0.0
C590 C 0.63787 0.53185 1.01928 0.0
C591 C 0.62723 0.55272 0.0535 0.0
H592 H 0.52838 0.3682 0.03717 0.0
H593 H 0.51949 0.44788 0.06045 0.0
H594 H 0.56023 0.45362 0.05889 0.0
H595 H 0.59877 0.43582 0.04084 0.0
H596 H 0.60556 0.35579 1.01251 0.0
H597 H 0.56551 0.35064 1.02365 0.0
C598 C 0.53525 0.38692 0.04172 0.0
C599 C 0.52069 0.40762 0.04777 0.0
C600 C 0.55852 0.39008 0.03839 0.0
C601 C 0.53014 0.43156 0.05627 0.0
C602 C 0.5535 0.43485 0.05429 0.0
C603 C 0.59147 0.41728 0.03685 0.0
C604 C 0.60551 0.39626 0.02505 0.0
C605 C 0.56793 0.41428 0.04352 0.0
C606 C 0.59551 0.37239 1.02105 0.0
C607 C 0.57246 0.36935 0.02771 0.0
H608 H 0.91743 0.48775 0.89365 0.0
H609 H 0.8525 0.48439 0.75937 0.0
H610 H 0.85376 0.53035 0.70933 0.0
H611 H 0.87324 0.57253 0.70621 0.0
H612 H 0.93961 0.57417 0.828 0.0
H613 H 0.9378 0.52863 0.87928 0.0
C614 C 0.9035 0.49696 0.85313 0.0
C615 C 0.88475 0.48213 0.83154 0.0
C616 C 0.9046 0.52353 0.82205 0.0
C617 C 0.86716 0.49485 0.77754 0.0
C618 C 0.86787 0.52135 0.74901 0.0
C619 C 0.88737 0.56295 0.74365 0.0
C620 C 0.90658 0.5774 0.7632 0.0
C621 C 0.88648 0.53607 0.77118 0.0
C622 C 0.92463 0.56408 0.81115 0.0
C623 C 0.92359 0.53781 0.84103 0.0
H624 H 0.59786 0.19981 0.27007 0.0
H625 H 0.61341 0.11989 0.31709 0.0
H626 H 0.57462 0.10942 0.29558 0.0
H627 H 0.53625 0.12208 0.25611 0.0
H628 H 0.51879 0.20112 0.21238 0.0
H629 H 0.5578 0.21266 0.24142 0.0
C630 C 0.59273 0.18013 0.2764 0.0
C631 C 0.60898 0.16077 0.29487 0.0
C632 C 0.56985 0.17396 0.26449 0.0
C633 C 0.60168 0.13537 0.30296 0.0
C634 C 0.57932 0.12924 0.29048 0.0
C635 C 0.54091 0.14187 0.25324 0.0
C636 C 0.52451 0.16067 0.23109 0.0
C637 C 0.5633 0.14827 0.27007 0.0
C638 C 0.53093 0.18622 0.22964 0.0
C639 C 0.55334 0.19279 0.24558 0.0
H640 H 0.15572 0.55959 0.58395 0.0
H641 H 0.15124 0.52628 0.89322 0.0
H642 H 0.13191 0.48946 0.83965 0.0
H643 H 0.12075 0.4646 0.704 0.0
H644 H 0.12978 0.49475 0.39321 0.0
H645 H 0.14214 0.53539 0.44688 0.0
C646 C 0.15015 0.54437 0.63916 0.0
C647 C 0.15499 0.54534 0.74205 0.0
C648 C 0.1397 0.52291 0.60722 0.0
C649 C 0.14794 0.52558 0.81354 0.0
C650 C 0.1368 0.50468 0.78299 0.0
C651 C 0.1246 0.4805 0.64828 0.0
C652 C 0.12383 0.47723 0.54516 0.0
C653 C 0.13312 0.50287 0.67998 0.0
C654 C 0.12969 0.49733 0.47294 0.0
C655 C 0.13707 0.52032 0.50379 0.0
H656 H 0.51211 0.9099 0.05411 0.0
H657 H 0.54573 0.90467 0.34119 0.0
H658 H 0.5098 0.8996 0.4296 0.0
H659 H 0.46833 0.89853 0.42455 0.0
H660 H 0.4356 0.90241 0.13455 0.0
H661 H 0.47144 0.90623 0.04879 0.0
C662 C 0.51159 0.90765 0.13606 0.0
C663 C 0.53163 0.90791 0.19083 0.0
C664 C 0.49091 0.90458 0.1861 0.0
C665 C 0.53062 0.90444 0.29711 0.0
C666 C 0.51003 0.90169 0.34764 0.0
C667 C 0.46906 0.90004 0.34264 0.0
C668 C 0.4491 0.90022 0.28651 0.0
C669 C 0.48998 0.90199 0.29295 0.0
C670 C 0.45052 0.9021 0.18024 0.0
C671 C 0.47109 0.90438 0.13076 0.0
H672 H 0.87586 0.99598 0.59291 0.0
H673 H 0.94217 0.99325 0.47017 0.0
H674 H 0.9408 0.03899 0.41902 0.0
H675 H 0.92052 0.08036 0.40433 0.0
H676 H 0.85562 0.08402 0.54047 0.0
H677 H 0.85675 0.03812 0.59048 0.0
C678 C 0.89014 1.00534 0.55554 0.0
C679 C 0.90916 0.99053 0.53563 0.0
C680 C 0.88944 1.0322 0.52798 0.0
C681 C 0.92736 1.0036 0.48751 0.0
C682 C 0.92652 1.02998 0.45762 0.0
C683 C 0.90657 0.07122 0.44521 0.0
C684 C 0.88782 0.08619 0.46722 0.0
C685 C 0.90762 0.04457 0.47663 0.0
C686 C 0.87024 0.07351 0.52178 0.0
C687 C 0.8709 0.04703 0.55041 0.0
H688 H 1.00178 0.15623 0.78888 0.0
H689 H 0.0394 0.16459 0.51072 0.0
H690 H 1.00491 0.1708 0.41392 0.0
H691 H 0.96395 0.17158 0.40741 0.0
H692 H 0.92613 0.16385 0.68536 0.0
H693 H 0.9607 0.15968 0.78282 0.0
C694 C 1.00244 0.15941 0.70707 0.0
C695 C 0.02328 0.15973 0.65729 0.0
C696 C 0.98245 0.16302 0.65174 0.0
C697 C 0.02374 0.16439 0.55121 0.0
C698 C 1.00396 0.1678 0.49573 0.0
C699 C 0.96322 0.16918 0.48937 0.0
C700 C 0.94234 0.16791 0.53868 0.0
C701 C 0.98321 0.16684 0.54503 0.0
C702 C 0.94186 0.16495 0.6451 0.0
C703 C 0.96167 0.16246 0.70098 0.0
H704 H 0.18161 1.02201 0.61291 0.0
H705 H 0.11528 1.01171 0.50418 0.0
H706 H 0.10147 0.04542 0.60151 0.0
H707 H 0.10947 0.08065 0.7029 0.0
H708 H 0.17614 0.08992 0.81386 0.0
H709 H 0.18854 0.05322 0.73341 0.0
C710 C 0.16414 1.0272 0.61144 0.0
C711 C 0.14946 1.01512 0.55045 0.0
C712 C 0.15642 0.04615 0.66862 0.0
C713 C 0.12677 1.02123 0.5501 0.0
C714 C 0.11894 0.04037 0.60575 0.0
C715 C 0.12656 0.07421 0.71201 0.0
C716 C 0.14191 0.08826 0.76317 0.0
C717 C 0.13374 0.05333 0.66366 0.0
C718 C 0.164 0.07961 0.7742 0.0
C719 C 0.17118 0.05873 0.72746 0.0
H720 H 0.09453 0.93526 0.4351 0.0
H721 H 0.10492 0.85628 0.53981 0.0
H722 H 0.06537 0.85134 0.57765 0.0
H723 H 0.02798 0.86957 0.5903 0.0
H724 H 1.01639 0.94791 0.48338 0.0
H725 H 0.05588 0.95284 0.43564 0.0
C726 C 0.08813 0.91689 0.46532 0.0
C727 C 0.10302 0.89619 0.48484 0.0
C728 C 0.06502 0.91405 0.48666 0.0
C729 C 0.09415 0.87259 0.52375 0.0
C730 C 0.07142 0.86972 0.54577 0.0
C731 C 0.03404 0.88772 0.55599 0.0
C732 C 1.01913 0.90842 0.54137 0.0
C733 C 0.05674 0.89034 0.52893 0.0
C734 C 0.02733 0.93165 0.49511 0.0
C735 C 0.05001 0.93448 0.46856 0.0
H736 H 0.38336 0.24117 0.1661 0.0
H737 H 0.45458 0.23466 0.13769 0.0
H738 H 0.45792 0.28083 0.11454 0.0
H739 H 0.44082 0.32401 0.10177 0.0
H740 H 0.36959 0.33034 0.13102 0.0
H741 H 0.36631 0.28422 0.15394 0.0
C742 C 0.39967 0.24974 0.15482 0.0
C743 C 0.41868 0.2338 0.15383 0.0
C744 C 0.40156 0.27677 0.14149 0.0
C745 C 0.43954 0.24589 0.13902 0.0
C746 C 0.4415 0.27255 0.12567 0.0
C747 C 0.42453 0.31539 0.11322 0.0
C748 C 0.40548 0.33129 0.11436 0.0
C749 C 0.42266 0.28834 0.12669 0.0
C750 C 0.38465 0.31916 0.12946 0.0
C751 C 0.38271 0.29252 0.1427 0.0
H752 H 0.32073 0.69308 0.75958 0.0
H753 H 0.32729 0.61734 0.67525 0.0
H754 H 0.28648 0.61266 0.67962 0.0
H755 H 0.24889 0.62896 0.7251 0.0
H756 H 0.24376 0.70483 0.8123 0.0
H757 H 0.28384 0.71036 0.79087 0.0
C758 C 0.31323 0.67577 0.73884 0.0
C759 C 0.32723 0.65575 0.71512 0.0
C760 C 0.28988 0.67299 0.7452 0.0
C761 C 0.31711 0.63332 0.69076 0.0
C762 C 0.2937 0.63052 0.69539 0.0
C763 C 0.25653 0.64673 0.73934 0.0
C764 C 0.24303 0.66638 0.77173 0.0
C765 C 0.27991 0.64997 0.72562 0.0
C766 C 0.25343 0.68932 0.78815 0.0
C767 C 0.27646 0.69255 0.7755 0.0
H768 H 0.6592 0.81787 0.16725 0.0
H769 H 0.58894 0.8277 0.10908 0.0
H770 H 0.58261 0.78272 0.16463 0.0
H771 H 0.59734 0.74055 0.22855 0.0
H772 H 0.66769 0.73201 0.28967 0.0
H773 H 0.67357 0.77674 0.23532 0.0
C774 C 0.64249 0.81019 0.1658 0.0
C775 C 0.6246 0.82602 0.13292 0.0
C776 C 0.63896 0.78462 0.19946 0.0
C777 C 0.60301 0.81584 0.13338 0.0
C778 C 0.59939 0.79017 0.16548 0.0
C779 C 0.61391 0.74854 0.23092 0.0
C780 C 0.63204 0.73289 0.26301 0.0
C781 C 0.61726 0.77438 0.19892 0.0
C782 C 0.65342 0.74355 0.26533 0.0
C783 C 0.65685 0.76914 0.23383 0.0
H784 H 0.81953 0.37231 0.06612 0.0
H785 H 0.82568 0.45187 0.09608 0.0
H786 H 0.78484 0.45602 0.09542 0.0
H787 H 0.74713 0.4375 0.06479 0.0
H788 H 0.74305 0.35793 1.02408 0.0
H789 H 0.7829 0.35355 0.04836 0.0
C790 C 0.81193 0.3904 0.07694 0.0
C791 C 0.82582 0.41157 0.0843 0.0
C792 C 0.78857 0.39283 0.07048 0.0
C793 C 0.81557 0.43503 0.09429 0.0
C794 C 0.79213 0.43748 0.09127 0.0
C795 C 0.75495 0.41921 0.06129 0.0
C796 C 0.74172 0.39814 0.0413 0.0
C797 C 0.77841 0.41666 0.07556 0.0
C798 C 0.75243 0.3746 0.03832 0.0
C799 C 0.77539 0.37197 0.05284 0.0
H800 H 0.88222 0.7427 0.66835 0.0
H801 H 0.95364 0.73502 0.66443 0.0
H802 H 0.95762 0.78115 0.64477 0.0
H803 H 0.941 0.82471 0.62818 0.0
H804 H 0.86951 0.83202 0.63034 0.0
H805 H 0.86567 0.786 0.65086 0.0
C806 C 0.89871 0.751 0.66318 0.0
C807 C 0.91758 0.73472 0.66813 0.0
C808 C 0.90098 0.77801 0.65142 0.0
C809 C 0.93869 0.74649 0.66097 0.0
C810 C 0.94102 0.77314 0.6497 0.0
C811 C 0.92454 0.81633 0.63322 0.0
C812 C 0.90559 0.83252 0.62749 0.0
C813 C 0.92232 0.78927 0.64479 0.0
C814 C 0.88452 0.82065 0.63418 0.0
C815 C 0.88225 0.79405 0.64605 0.0
H816 H 0.82296 0.19913 0.24131 0.0
H817 H 0.82704 0.11956 0.20699 0.0
H818 H 0.78619 0.11675 0.21012 0.0
H819 H 0.74936 0.13605 0.24481 0.0
H820 H 0.74618 0.21571 0.28341 0.0
H821 H 0.7864 0.21924 0.25814 0.0
C822 C 0.81488 0.18137 0.22986 0.0
C823 C 0.82823 0.15972 0.22087 0.0
C824 C 0.79143 0.17975 0.23655 0.0
C825 C 0.81739 0.13671 0.21007 0.0
C826 C 0.79395 0.13502 0.21445 0.0
C827 C 0.75744 0.15423 0.2475 0.0
C828 C 0.74452 0.17555 0.26779 0.0
C829 C 0.7808 0.15623 0.23157 0.0
C830 C 0.75545 0.19894 0.26908 0.0
C831 C 0.77855 0.201 0.25413 0.0
H832 H 0.09548 0.32215 0.60733 0.0
H833 H 0.16633 0.32689 0.55256 0.0
H834 H 0.17049 0.2823 0.6144 0.0
H835 H 0.15443 0.24244 0.68756 0.0
H836 H 0.08364 0.23652 0.74047 0.0
H837 H 0.07909 0.2813 0.67704 0.0
C838 C 0.11177 0.31332 0.6077 0.0
C839 C 0.13056 0.32785 0.5754 0.0
C840 C 0.11412 0.28764 0.64453 0.0
C841 C 0.15159 0.31618 0.57707 0.0
C842 C 0.15402 0.2907 0.61289 0.0
C843 C 0.138 0.25095 0.68631 0.0
C844 C 0.11943 0.23627 0.71983 0.0
C845 C 0.13547 0.27638 0.64802 0.0
C846 C 0.09822 0.2475 0.71585 0.0
C847 C 0.0956 0.27304 0.6791 0.0
H848 H 0.3154 0.93454 0.37989 0.0
H849 H 0.32539 0.88163 0.6445 0.0
H850 H 0.28484 0.87621 0.66314 0.0
H851 H 0.24623 0.8843 0.59483 0.0
H852 H 0.23721 0.93968 0.3363 0.0
H853 H 0.27741 0.94618 0.32409 0.0
C854 C 0.30869 0.92235 0.44347 0.0
C855 C 0.3235 0.9088 0.51161 0.0
C856 C 0.2854 0.91936 0.45329 0.0
C857 C 0.31447 0.89276 0.59244 0.0
C858 C 0.29123 0.88939 0.60204 0.0
C859 C 0.25311 0.8978 0.53602 0.0
C860 C 0.2386 0.91121 0.46541 0.0
C861 C 0.27648 0.90214 0.53142 0.0
C862 C 0.24786 0.929 0.3911 0.0
C863 C 0.27091 0.93278 0.38418 0.0
H864 H 0.25694 0.1758 0.80115 0.0
H865 H 0.2126 0.16118 0.05647 0.0
H866 H 0.24443 0.15697 0.17079 0.0
H867 H 0.28487 0.15805 0.19926 0.0
H868 H 0.32915 0.17198 0.94273 0.0
H869 H 0.29739 0.17658 0.82958 0.0
C870 C 0.25414 0.17186 0.88179 0.0
C871 C 0.23216 0.16883 0.91933 0.0
C872 C 0.27261 0.16957 0.94767 0.0
C873 C 0.22915 0.16331 1.02446 0.0
C874 C 0.24742 0.16107 0.0903 0.0
C875 C 0.28775 0.16192 0.11873 0.0
C876 C 0.30978 0.16466 0.08106 0.0
C877 C 0.26926 0.16419 0.05287 0.0
C878 C 0.3127 0.17006 0.97567 0.0
C879 C 0.29441 0.17252 0.91011 0.0
H880 H 0.18664 0.73532 0.08274 0.0
H881 H 0.15882 0.79964 0.89822 0.0
H882 H 0.15798 0.82356 0.04444 0.0
H883 H 0.16461 0.82632 0.22578 0.0
H884 H 0.19294 0.7629 0.4101 0.0
H885 H 0.19492 0.73881 0.26212 0.0
C886 C 0.18076 0.75469 0.07311 0.0
C887 C 0.17265 0.7654 0.97803 0.0
C888 C 0.18055 0.76861 0.15784 0.0
C889 C 0.16487 0.79057 0.96965 0.0
C890 C 0.16451 0.80442 0.05346 0.0
C891 C 0.17146 0.80732 0.23279 0.0
C892 C 0.17896 0.79645 0.32789 0.0
C893 C 0.17218 0.79362 0.14791 0.0
C894 C 0.18712 0.77156 0.33748 0.0
C895 C 0.18817 0.75785 0.25296 0.0
H896 H 0.73065 0.9197 0.84874 0.0
H897 H 0.75736 0.85297 1.02111 0.0
H898 H 0.79106 0.85633 0.91953 0.0
H899 H 0.81341 0.87791 0.78026 0.0
H900 H 0.78654 0.94403 0.60527 0.0
H901 H 0.7527 0.94082 0.70724 0.0
C902 C 0.74369 0.90574 0.86389 0.0
C903 C 0.7412 0.88626 0.94422 0.0
C904 C 0.76323 0.90756 0.80385 0.0
C905 C 0.75865 0.86853 0.96196 0.0
C906 C 0.77805 0.87031 0.90308 0.0
C907 C 0.80023 0.89171 0.7647 0.0
C908 C 0.8027 0.91113 0.68437 0.0
C909 C 0.78061 0.88978 0.824 0.0
C910 C 0.78516 0.92863 0.66517 0.0
C911 C 0.76575 0.92691 0.7241 0.0
H912 H 0.88751 0.33418 0.20707 0.0
H913 H 0.88485 0.31544 0.89984 0.0
H914 H 0.88628 0.27023 0.9603 0.0
H915 H 0.88812 0.23508 0.10114 0.0
H916 H 0.88711 0.25366 0.40878 0.0
H917 H 0.88727 0.29893 0.34831 0.0
C918 C 0.88729 0.32026 0.15306 0.0
C919 C 0.88626 0.32876 0.04794 0.0
C920 C 0.88745 0.29381 0.18894 0.0
C921 C 0.88566 0.30996 0.98059 0.0
C922 C 0.8865 0.28387 1.01541 0.0
C923 C 0.888 0.24898 0.15526 0.0
C924 C 0.88783 0.24043 0.26042 0.0
C925 C 0.8874 0.27541 0.1195 0.0
C926 C 0.8873 0.25919 0.32798 0.0
C927 C 0.88741 0.28531 0.29313 0.0
H928 H 0.2813 0.40647 0.12458 0.0
H929 H 0.32718 0.41011 0.37141 0.0
H930 H 0.29606 0.40802 0.49112 0.0
H931 H 0.25544 0.40697 0.5251 0.0
H932 H 0.20998 0.40406 0.27577 0.0
H933 H 0.24115 0.40402 0.1587 0.0
C934 C 0.28456 0.40689 0.20448 0.0
C935 C 0.30669 0.40865 0.23828 0.0
C936 C 0.26653 0.40583 0.27295 0.0
C937 C 0.31045 0.4086 0.34278 0.0
C938 C 0.29258 0.40758 0.4114 0.0
C939 C 0.25233 0.40635 0.4452 0.0
C940 C 0.23017 0.40551 0.41014 0.0
C941 C 0.2705 0.40648 0.37729 0.0
C942 C 0.22666 0.40437 0.30603 0.0
C943 C 0.24456 0.40453 0.23846 0.0
H944 H 0.38888 0.7324 0.56242 0.0
H945 H 0.39181 0.74971 0.87162 0.0
H946 H 0.39199 0.79501 0.81436 0.0
H947 H 0.39101 0.83071 0.67659 0.0
H948 H 0.38533 0.81389 0.36775 0.0
H949 H 0.38646 0.76841 0.42408 0.0
C950 C 0.38966 0.74603 0.61749 0.0
C951 C 0.3905 0.73704 0.72224 0.0
C952 C 0.38918 0.77263 0.58373 0.0
C953 C 0.39117 0.75552 0.79107 0.0
C954 C 0.39128 0.78168 0.75812 0.0
C955 C 0.39003 0.81718 0.6212 0.0
C956 C 0.38818 0.82634 0.51705 0.0
C957 C 0.39023 0.79063 0.65466 0.0
C958 C 0.38673 0.80796 0.44798 0.0
C959 C 0.38743 0.78169 0.48041 0.0
H960 H 0.75342 0.65399 0.32676 0.0
H961 H 0.70973 0.66149 0.57984 0.0
H962 H 0.74188 0.66583 0.68864 0.0
H963 H 0.78259 0.6659 0.7142 0.0
H964 H 0.82608 0.65717 0.46125 0.0
H965 H 0.79398 0.65508 0.35122 0.0
C966 C 0.75085 0.65647 0.40576 0.0
C967 C 0.72896 0.65726 0.44445 0.0
C968 C 0.7695 0.65877 0.46851 0.0
C969 C 0.7262 0.66101 0.54702 0.0
C970 C 0.74466 0.66334 0.60975 0.0
C971 C 0.78512 0.66348 0.63514 0.0
C972 C 0.80701 0.66168 0.5971 0.0
C973 C 0.76642 0.662 0.57167 0.0
C974 C 0.80969 0.65895 0.49348 0.0
C975 C 0.79122 0.65755 0.43016 0.0
H976 H 0.70156 0.26443 0.5063 0.0
H977 H 0.63415 0.2873 0.43062 0.0
H978 H 0.63019 0.3044 0.59214 0.0
H979 H 0.64505 0.31133 0.76012 0.0
H980 H 0.71248 0.28999 0.83572 0.0
H981 H 0.71711 0.27335 0.67115 0.0
C982 C 0.686 0.2732 0.52478 0.0
C983 C 0.66819 0.27431 0.45506 0.0
C984 C 0.68368 0.2829 0.61925 0.0
C985 C 0.64831 0.28623 0.48086 0.0
C986 C 0.64589 0.29583 0.57435 0.0
C987 C 0.66066 0.30281 0.74046 0.0
C988 C 0.67828 0.30131 0.8104 0.0
C989 C 0.66329 0.29391 0.64485 0.0
C990 C 0.69865 0.29096 0.78337 0.0
C991 C 0.70128 0.28158 0.68924 0.0
H992 H 0.38437 0.15608 0.53667 0.0
H993 H 0.45571 0.15565 0.49906 0.0
H994 H 0.46062 0.15464 0.68138 0.0
H995 H 0.44489 0.15383 0.85424 0.0
H996 H 0.37355 0.15442 0.89184 0.0
H997 H 0.36864 0.15536 0.70955 0.0
C998 C 0.401 0.15583 0.56814 0.0
C999 C 0.41959 0.15598 0.50263 0.0
C1000 C 0.40382 0.1552 0.67443 0.0
C1001 C 0.44099 0.15557 0.54626 0.0
C1002 C 0.44387 0.15496 0.65124 0.0
C1003 C 0.42826 0.15411 0.82276 0.0
C1004 C 0.40968 0.15401 0.88824 0.0
C1005 C 0.42544 0.15474 0.71648 0.0
C1006 C 0.38827 0.15446 0.84463 0.0
C1007 C 0.38539 0.15502 0.73967 0.0
H1008 H 0.18184 0.62859 0.47558 0.0
H1009 H 0.16409 0.70759 0.46703 0.0
H1010 H 0.16238 0.71083 0.28217 0.0
H1011 H 0.16733 0.69192 0.12095 0.0
H1012 H 0.18509 0.61295 0.12937 0.0
H1013 H 0.1859 0.60937 0.31441 0.0
C1014 C 0.17773 0.64663 0.43356 0.0
C1015 C 0.17321 0.66786 0.48677 0.0
C1016 C 0.17717 0.64855 0.32617 0.0
C1017 C 0.16784 0.69094 0.42954 0.0
C1018 C 0.16696 0.69286 0.32321 0.0
C1019 C 0.17143 0.67388 0.16297 0.0
C1020 C 0.17625 0.65274 0.10969 0.0
C1021 C 0.17183 0.6719 0.27037 0.0
C1022 C 0.18134 0.62958 0.16694 0.0
C1023 C 0.18182 0.62752 0.27335 0.0
H1024 H 0.60844 0.90717 0.41727 0.0
H1025 H 0.67844 0.89087 0.3905 0.0
H1026 H 0.68264 0.88983 0.57367 0.0
H1027 H 0.66659 0.89343 0.74343 0.0
H1028 H 0.59662 0.90987 0.77016 0.0
H1029 H 0.59242 0.91093 0.58697 0.0
C1030 C 0.62465 0.90339 0.45124 0.0
C1031 C 0.64309 0.89911 0.38868 0.0
C1032 C 0.62701 0.90281 0.55768 0.0
C1033 C 0.6639 0.89426 0.43547 0.0
C1034 C 0.66633 0.89364 0.54081 0.0
C1035 C 0.65038 0.89724 0.70945 0.0
C1036 C 0.63195 0.90152 0.77201 0.0
C1037 C 0.64803 0.89787 0.60299 0.0
C1038 C 0.61116 0.90647 0.72519 0.0
C1039 C 0.60872 0.90708 0.61984 0.0
H1040 H 0.92109 0.38378 0.34492 0.0
H1041 H 0.91224 0.46371 0.36176 0.0
H1042 H 0.87895 0.45509 0.46616 0.0
H1043 H 0.85052 0.42528 0.53174 0.0
H1044 H 0.8592 0.34525 0.51571 0.0
H1045 H 0.89299 0.35374 0.41411 0.0
C1046 C 0.91242 0.39922 0.37543 0.0
C1047 C 0.91859 0.42441 0.34405 0.0
C1048 C 0.89219 0.39426 0.42442 0.0
C1049 C 0.90763 0.44424 0.38525 0.0
C1050 C 0.88813 0.43936 0.44063 0.0
C1051 C 0.85926 0.40976 0.50223 0.0
C1052 C 0.85263 0.38463 0.53163 0.0
C1053 C 0.87967 0.41461 0.4549 0.0
C1054 C 0.864 0.36469 0.49285 0.0
C1055 C 0.88375 0.36949 0.43908 0.0
H1056 H 0.38037 0.41142 0.4081 0.0
H1057 H 0.45196 0.41022 0.38248 0.0
H1058 H 0.45521 0.40942 0.5662 0.0
H1059 H 0.43789 0.40899 0.7359 0.0
H1060 H 0.36633 0.41028 0.76157 0.0
H1061 H 0.36305 0.41105 0.57781 0.0
C1062 C 0.39675 0.41102 0.44233 0.0
C1063 C 0.41592 0.41091 0.3798 0.0
C1064 C 0.39854 0.41052 0.54908 0.0
C1065 C 0.43687 0.41034 0.42721 0.0
C1066 C 0.43876 0.40987 0.5329 0.0
C1067 C 0.42153 0.40942 0.70165 0.0
C1068 C 0.40236 0.40954 0.76417 0.0
C1069 C 0.41973 0.40993 0.5949 0.0
C1070 C 0.3814 0.41013 0.71681 0.0
C1071 C 0.37951 0.4106 0.6111 0.0
H1072 H 0.34743 0.64934 0.26524 0.0
H1073 H 0.37278 0.72541 0.25465 0.0
H1074 H 0.40587 0.70965 0.34816 0.0
H1075 H 0.42908 0.67383 0.40981 0.0
H1076 H 0.40386 0.59774 0.41861 0.0
H1077 H 0.37071 0.61356 0.32574 0.0
C1078 C 0.35979 0.66263 0.28688 0.0
C1079 C 0.35845 0.68831 0.24843 0.0
C1080 C 0.37975 0.6531 0.32731 0.0
C1081 C 0.37383 0.70547 0.28178 0.0
C1082 C 0.39319 0.69633 0.33022 0.0
C1083 C 0.41674 0.66056 0.38788 0.0
C1084 C 0.41812 0.63482 0.42568 0.0
C1085 C 0.39682 0.6701 0.34704 0.0
C1086 C 0.40278 0.61771 0.39191 0.0
C1087 C 0.3834 0.62687 0.34378 0.0
H1088 H 0.59487 0.65982 0.96226 0.0
H1089 H 0.66615 0.65568 0.99912 0.0
H1090 H 0.6708 0.65448 0.81713 0.0
H1091 H 0.65481 0.65465 0.64544 0.0
H1092 H 0.58353 0.6586 0.60868 0.0
H1093 H 0.57888 0.65977 0.79069 0.0
C1094 C 0.61146 0.65871 0.93071 0.0
C1095 C 0.63012 0.65794 0.99575 0.0
C1096 C 0.61408 0.65793 0.82495 0.0
C1097 C 0.65141 0.65637 0.95215 0.0
C1098 C 0.65412 0.65566 0.84748 0.0
C1099 C 0.63822 0.65571 0.67703 0.0
C1100 C 0.61956 0.65648 0.61201 0.0
C1101 C 0.6356 0.65641 0.78283 0.0
C1102 C 0.59826 0.65792 0.65566 0.0
C1103 C 0.59556 0.65862 0.76033 0.0
H1104 H 0.67412 0.3666 0.69754 0.0
H1105 H 0.67343 0.44818 0.68588 0.0
H1106 H 0.67298 0.45156 0.50082 0.0
H1107 H 0.6728 0.43155 0.34078 0.0
H1108 H 0.67358 0.34998 0.35198 0.0
H1109 H 0.67401 0.34656 0.5371 0.0
C1110 C 0.67389 0.38519 0.65484 0.0
C1111 C 0.67382 0.40716 0.70724 0.0
C1112 C 0.67363 0.38702 0.5474 0.0
C1113 C 0.6735 0.43093 0.64906 0.0
C1114 C 0.67324 0.43287 0.54264 0.0
C1115 C 0.67304 0.41295 0.38334 0.0
C1116 C 0.67316 0.39104 0.33075 0.0
C1117 C 0.67329 0.41108 0.49073 0.0
C1118 C 0.67348 0.36722 0.38885 0.0
C1119 C 0.67372 0.36524 0.49536 0.0
H1120 H 0.88213 0.65713 0.04829 0.0
H1121 H 0.95349 0.65613 1.01182 0.0
H1122 H 0.95827 0.6552 0.19425 0.0
H1123 H 0.94241 0.65463 0.36681 0.0
H1124 H 0.87105 0.65557 0.40319 0.0
H1125 H 0.86627 0.6565 0.22085 0.0
C1126 C 0.89874 0.65676 0.08003 0.0
C1127 C 0.91738 0.65674 1.01484 0.0
C1128 C 0.90148 0.65616 0.18634 0.0
C1129 C 0.93874 0.65618 0.0588 0.0
C1130 C 0.94154 0.65562 0.16383 0.0
C1131 C 0.9258 0.655 0.33506 0.0
C1132 C 0.90716 0.65505 0.40022 0.0
C1133 C 0.92306 0.65558 0.22875 0.0
C1134 C 0.8858 0.65556 0.35626 0.0
C1135 C 0.883 0.6561 0.25125 0.0
H1136 H 0.67975 0.13432 0.65999 0.0
H1137 H 0.67375 0.21489 0.57671 0.0
H1138 H 0.67296 0.22229 0.75391 0.0
H1139 H 0.67372 0.20615 0.93598 0.0
H1140 H 0.6791 0.1255 1.01916 0.0
H1141 H 0.68024 0.1182 0.84177 0.0
C1142 C 0.6783 0.15349 0.68048 0.0
C1143 C 0.67692 0.17391 0.60351 0.0
C1144 C 0.67764 0.15777 0.78408 0.0
C1145 C 0.67496 0.19862 0.63294 0.0
C1146 C 0.67445 0.20298 0.73509 0.0
C1147 C 0.67511 0.18698 0.91544 0.0
C1148 C 0.67632 0.16651 0.99236 0.0
C1149 C 0.67573 0.18272 0.81179 0.0
C1150 C 0.67813 0.1418 0.96287 0.0
C1151 C 0.67881 0.1375 0.86071 0.0
H1152 H 0.09544 0.40093 0.18986 0.0
H1153 H 0.16634 0.40924 0.22491 0.0
H1154 H 0.17164 0.40909 0.04328 0.0
H1155 H 0.15639 0.40645 0.87165 0.0
H1156 H 0.08549 0.39809 0.83667 0.0
H1157 H 0.08019 0.39842 1.0182 0.0
C1158 C 0.11205 0.40277 0.15789 0.0
C1159 C 0.13041 0.40509 0.2225 0.0
C1160 C 0.11511 0.40261 0.052 0.0
C1161 C 0.15179 0.40738 0.17837 0.0
C1162 C 0.15491 0.4073 0.07377 0.0
C1163 C 0.13978 0.40464 0.90361 0.0
C1164 C 0.12144 0.40217 0.83908 0.0
C1165 C 0.13672 0.40487 1.00946 0.0
C1166 C 0.10004 0.39997 0.88317 0.0
C1167 C 0.09693 0.40018 0.9877 0.0
H1168 H 0.38838 0.95568 0.09347 0.0
H1169 H 0.32982 0.93747 0.92934 0.0
H1170 H 0.3421 0.96633 0.78412 0.0
H1171 H 0.37563 0.97869 0.68786 0.0
H1172 H 0.43864 0.96965 0.83903 0.0
H1173 H 0.42041 0.97372 1.00015 0.0
C1174 C 0.37824 0.958 0.02594 0.0
C1175 C 0.35928 0.94275 1.01806 0.0
C1176 C 0.38722 0.9707 0.93841 0.0
C1177 C 0.34509 0.94803 0.9349 0.0
C1178 C 0.35224 0.96444 0.85184 0.0
C1179 C 0.38539 0.97741 0.75653 0.0
C1180 C 0.40779 0.96958 0.75456 0.0
C1181 C 0.37437 0.97308 0.84909 0.0
C1182 C 0.42087 0.9729 0.8396 0.0
C1183 C 0.41032 0.97473 0.93232 0.0
H1184 H 0.87906 0.91285 0.24795 0.0
H1185 H 0.95033 0.90796 0.28359 0.0
H1186 H 0.95493 0.90848 0.10107 0.0
H1187 H 0.93894 0.91034 0.92871 0.0
H1188 H 0.86767 0.91516 0.89309 0.0
H1189 H 0.86306 0.91468 0.0756 0.0
C1190 C 0.89561 0.91185 0.21602 0.0
C1191 C 0.91428 0.91032 0.28102 0.0
C1192 C 0.89824 0.91219 0.10967 0.0
C1193 C 0.93556 0.90911 0.23679 0.0
C1194 C 0.93826 0.90943 0.13171 0.0
C1195 C 0.92239 0.91134 0.96066 0.0
C1196 C 0.90372 0.91284 0.89568 0.0
C1197 C 0.91976 0.91099 0.067 0.0
C1198 C 0.88243 0.91403 0.9399 0.0
C1199 C 0.87973 0.91373 0.04497 0.0
H1200 H 0.92392 0.18542 0.95292 0.0
H1201 H 0.91532 0.10526 0.942 0.0
H1202 H 0.88151 0.11328 0.84139 0.0
H1203 H 0.85256 0.1427 0.77845 0.0
H1204 H 0.86095 0.22292 0.78958 0.0
H1205 H 0.89519 0.215 0.88745 0.0
C1206 C 0.91517 0.16978 0.92453 0.0
C1207 C 0.92148 0.14472 0.95721 0.0
C1208 C 0.89463 0.17442 0.8785 0.0
C1209 C 0.91052 0.12464 0.91796 0.0
C1210 C 0.89073 0.12918 0.86496 0.0
C1211 C 0.86136 0.15839 0.80614 0.0
C1212 C 0.85462 0.18342 0.77551 0.0
C1213 C 0.88204 0.15384 0.85085 0.0
C1214 C 0.86592 0.20356 0.81286 0.0
C1215 C 0.88594 0.19908 0.86426 0.0
H1216 H 0.15832 0.16656 0.11013 0.0
H1217 H 0.08776 0.15376 0.084 0.0
H1218 H 0.08355 0.15324 0.26708 0.0
H1219 H 0.09972 0.15644 0.43652 0.0
H1220 H 0.17029 0.16912 0.46273 0.0
H1221 H 0.17451 0.16964 0.27965 0.0
C1222 C 0.14198 0.16365 0.14422 0.0
C1223 C 0.12339 0.16023 0.08185 0.0
C1224 C 0.13962 0.16335 0.25062 0.0
C1225 C 0.10243 0.15646 0.12882 0.0
C1226 C 0.09998 0.15616 0.23411 0.0
C1227 C 0.11605 0.15934 0.40245 0.0
C1228 C 0.13465 0.16275 0.46483 0.0
C1229 C 0.11843 0.1596 0.29607 0.0
C1230 C 0.15562 0.16644 0.4179 0.0
C1231 C 0.15807 0.16674 0.31261 0.0
H1232 H 0.18223 0.86989 0.82683 0.0
H1233 H 0.15603 0.94506 0.7468 0.0
H1234 H 0.15409 0.95202 0.92482 0.0
H1235 H 0.15965 0.93694 0.10623 0.0
H1236 H 0.18748 0.8626 0.18501 0.0
H1237 H 0.18916 0.85552 1.00741 0.0
C1238 C 0.17604 0.88777 0.84823 0.0
C1239 C 0.16923 0.90681 0.77224 0.0
C1240 C 0.17521 0.89192 0.9519 0.0
C1241 C 0.16144 0.92994 0.8026 0.0
C1242 C 0.1603 0.93401 0.90502 0.0
C1243 C 0.16605 0.91918 0.08464 0.0
C1244 C 0.17295 0.90014 0.16054 0.0
C1245 C 0.16713 0.91518 0.98078 0.0
C1246 C 0.1814 0.87738 0.12973 0.0
C1247 C 0.18249 0.8733 0.0274 0.0
loop_
_geom_bond_atom_site_label_1
_geom_bond_atom_site_label_2
_geom_bond_distance
_geom_bond_site_symmetry_2
_ccdc_geom_bond_type
Co0 N5 2.057 . S
Co0 O17 2.021 . S
Co0 O20 2.062 1_554 S
Co0 O24 2.117 . S
Co0 O25 2.020 . S
C1 O21 1.259 . S
C1 O24 1.258 . S
Co2 N11 2.057 . S
Co2 O18 2.117 . S
Co2 O19 2.020 . S
Co2 O21 2.021 . S
Co2 O26 2.062 . S
C3 N5 1.316 . S
C3 N6 1.347 . S
C3 H8 0.931 . S
C4 N5 1.375 . S
C4 C7 1.350 . S
C4 H9 0.930 . S
N5 Co0 2.057 . S
N5 C3 1.316 . S
N5 C4 1.375 . S
N6 C3 1.347 . S
N6 C7 1.373 . S
C7 C4 1.350 . S
C7 N6 1.373 . S
C7 H28 0.931 . S
H8 C3 0.931 . S
H9 C4 0.930 . S
C10 O17 1.259 . S
C10 O18 1.258 . S
N11 Co2 2.057 . S
N11 C12 1.316 . S
N11 C13 1.375 . S
C12 N11 1.316 . S
C12 N14 1.347 . S
C12 H23 0.931 . S
C13 N11 1.375 . S
C13 C15 1.350 . S
C13 H22 0.930 . S
N14 C12 1.347 . S
N14 C15 1.373 . S
C15 C13 1.350 . S
C15 N14 1.373 . S
C15 H29 0.931 . S
C16 O19 1.256 1_556 S
C16 O20 1.255 . S
O17 Co0 2.021 . S
O17 C10 1.259 . S
O18 Co2 2.117 . S
O18 C10 1.258 . S
O19 Co2 2.020 . S
O19 C16 1.256 1_554 S
O20 Co0 2.062 1_556 S
O20 C16 1.255 . S
O21 C1 1.259 . S
O21 Co2 2.021 . S
H22 C13 0.930 . S
H23 C12 0.931 . S
O24 Co0 2.117 . S
O24 C1 1.258 . S
O25 Co0 2.020 . S
O25 C27 1.256 . S
O26 Co2 2.062 . S
O26 C27 1.255 . S
C27 O25 1.256 . S
C27 O26 1.255 . S
H28 C7 0.931 . S
H29 C15 0.931 . S
Co30 N35 2.057 . S
Co30 O47 2.021 . S
Co30 O50 2.062 . S
Co30 O54 2.117 . S
Co30 O55 2.020 1_556 S
C31 O51 1.259 . S
C31 O54 1.258 . S
Co32 N41 2.057 . S
Co32 O48 2.117 . S
Co32 O49 2.020 . S
Co32 O51 2.021 . S
Co32 O56 2.062 1_556 S
C33 N35 1.316 . S
C33 N36 1.347 . S
C33 H38 0.931 . S
C34 N35 1.375 . S
C34 C37 1.350 . S
C34 H39 0.930 . S
N35 Co30 2.057 . S
N35 C33 1.316 . S
N35 C34 1.375 . S
N36 C33 1.347 . S
N36 C37 1.373 . S
C37 C34 1.350 . S
C37 N36 1.373 . S
C37 H58 0.931 . S
H38 C33 0.931 . S
H39 C34 0.930 . S
C40 O47 1.259 . S
C40 O48 1.258 . S
N41 Co32 2.057 . S
N41 C42 1.316 . S
N41 C43 1.375 . S
C42 N41 1.316 . S
C42 N44 1.347 . S
C42 H53 0.931 . S
C43 N41 1.375 . S
C43 C45 1.350 . S
C43 H52 0.930 . S
N44 C42 1.347 . S
N44 C45 1.373 . S
C45 C43 1.350 . S
C45 N44 1.373 . S
C45 H59 0.931 . S
C46 O49 1.256 . S
C46 O50 1.255 . S
O47 Co30 2.021 . S
O47 C40 1.259 . S
O48 Co32 2.117 . S
O48 C40 1.258 . S
O49 Co32 2.020 . S
O49 C46 1.256 . S
O50 Co30 2.062 . S
O50 C46 1.255 . S
O51 C31 1.259 . S
O51 Co32 2.021 . S
H52 C43 0.930 . S
H53 C42 0.931 . S
O54 Co30 2.117 . S
O54 C31 1.258 . S
O55 Co30 2.020 1_554 S
O55 C57 1.256 . S
O56 Co32 2.062 1_554 S
O56 C57 1.255 . S
C57 O55 1.256 . S
C57 O56 1.255 . S
H58 C37 0.931 . S
H59 C45 0.931 . S
Co60 N65 2.057 . S
Co60 O77 2.021 . S
Co60 O80 2.062 1_554 S
Co60 O84 2.117 . S
Co60 O85 2.020 . S
C61 O81 1.259 . S
C61 O84 1.258 . S
Co62 N71 2.057 . S
Co62 O78 2.117 . S
Co62 O79 2.020 1_554 S
Co62 O81 2.021 . S
Co62 O86 2.062 . S
C63 N65 1.316 . S
C63 N66 1.347 . S
C63 H68 0.931 . S
C64 N65 1.375 . S
C64 C67 1.350 . S
C64 H69 0.930 . S
N65 Co60 2.057 . S
N65 C63 1.316 . S
N65 C64 1.375 . S
N66 C63 1.347 . S
N66 C67 1.373 . S
C67 C64 1.350 . S
C67 N66 1.373 . S
C67 H88 0.931 . S
H68 C63 0.931 . S
H69 C64 0.930 . S
C70 O77 1.259 . S
C70 O78 1.258 . S
N71 Co62 2.057 . S
N71 C72 1.316 . S
N71 C73 1.375 . S
C72 N71 1.316 . S
C72 N74 1.347 . S
C72 H83 0.931 . S
C73 N71 1.375 . S
C73 C75 1.350 . S
C73 H82 0.930 . S
N74 C72 1.347 . S
N74 C75 1.373 . S
C75 C73 1.350 . S
C75 N74 1.373 . S
C75 H89 0.931 . S
C76 O79 1.256 . S
C76 O80 1.255 . S
O77 Co60 2.021 . S
O77 C70 1.259 . S
O78 Co62 2.117 . S
O78 C70 1.258 . S
O79 Co62 2.020 1_556 S
O79 C76 1.256 . S
O80 Co60 2.062 1_556 S
O80 C76 1.255 . S
O81 C61 1.259 . S
O81 Co62 2.021 . S
H82 C73 0.930 . S
H83 C72 0.931 . S
O84 Co60 2.117 . S
O84 C61 1.258 . S
O85 Co60 2.020 . S
O85 C87 1.256 . S
O86 Co62 2.062 . S
O86 C87 1.255 . S
C87 O85 1.256 . S
C87 O86 1.255 . S
H88 C67 0.931 . S
H89 C75 0.931 . S
Co90 N95 2.057 1_556 S
Co90 O107 2.021 . S
Co90 O110 2.062 1_556 S
Co90 O114 2.117 . S
Co90 O115 2.020 . S
C91 O111 1.259 . S
C91 O114 1.258 . S
Co92 N101 2.057 . S
Co92 O108 2.117 . S
Co92 O109 2.020 . S
Co92 O111 2.021 . S
Co92 O116 2.062 . S
C93 N95 1.316 . S
C93 N96 1.347 . S
C93 H98 0.931 . S
C94 N95 1.375 . S
C94 C97 1.350 . S
C94 H99 0.930 . S
N95 Co90 2.057 1_554 S
N95 C93 1.316 . S
N95 C94 1.375 . S
N96 C93 1.347 . S
N96 C97 1.373 . S
C97 C94 1.350 . S
C97 N96 1.373 . S
C97 H118 0.931 . S
H98 C93 0.931 . S
H99 C94 0.930 . S
C100 O107 1.259 . S
C100 O108 1.258 . S
N101 Co92 2.057 . S
N101 C102 1.316 . S
N101 C103 1.375 . S
C102 N101 1.316 . S
C102 N104 1.347 . S
C102 H113 0.931 . S
C103 N101 1.375 . S
C103 C105 1.350 . S
C103 H112 0.930 . S
N104 C102 1.347 . S
N104 C105 1.373 . S
C105 C103 1.350 . S
C105 N104 1.373 . S
C105 H119 0.931 . S
C106 O109 1.256 . S
C106 O110 1.255 1_556 S
O107 Co90 2.021 . S
O107 C100 1.259 . S
O108 Co92 2.117 . S
O108 C100 1.258 . S
O109 Co92 2.020 . S
O109 C106 1.256 . S
O110 Co90 2.062 1_554 S
O110 C106 1.255 1_554 S
O111 C91 1.259 . S
O111 Co92 2.021 . S
H112 C103 0.930 . S
H113 C102 0.931 . S
O114 Co90 2.117 . S
O114 C91 1.258 . S
O115 Co90 2.020 . S
O115 C117 1.256 . S
O116 Co92 2.062 . S
O116 C117 1.255 . S
C117 O115 1.256 . S
C117 O116 1.255 . S
H118 C97 0.931 . S
H119 C105 0.931 . S
Co120 N125 2.057 . S
Co120 O137 2.021 . S
Co120 O140 2.062 . S
Co120 O144 2.117 . S
Co120 O145 2.020 1_554 S
C121 O141 1.259 . S
C121 O144 1.258 . S
Co122 N131 2.057 . S
Co122 O138 2.117 . S
Co122 O139 2.020 . S
Co122 O141 2.021 . S
Co122 O146 2.062 1_554 S
C123 N125 1.316 . S
C123 N126 1.347 . S
C123 H128 0.931 . S
C124 N125 1.375 . S
C124 C127 1.350 . S
C124 H129 0.930 . S
N125 Co120 2.057 . S
N125 C123 1.316 . S
N125 C124 1.375 . S
N126 C123 1.347 . S
N126 C127 1.373 . S
C127 C124 1.350 . S
C127 N126 1.373 . S
C127 H148 0.931 . S
H128 C123 0.931 . S
H129 C124 0.930 . S
C130 O137 1.259 . S
C130 O138 1.258 . S
N131 Co122 2.057 . S
N131 C132 1.316 . S
N131 C133 1.375 . S
C132 N131 1.316 . S
C132 N134 1.347 . S
C132 H143 0.931 . S
C133 N131 1.375 . S
C133 C135 1.350 . S
C133 H142 0.930 . S
N134 C132 1.347 . S
N134 C135 1.373 . S
C135 C133 1.350 . S
C135 N134 1.373 . S
C135 H149 0.931 . S
C136 O139 1.256 . S
C136 O140 1.255 . S
O137 Co120 2.021 . S
O137 C130 1.259 . S
O138 Co122 2.117 . S
O138 C130 1.258 . S
O139 Co122 2.020 . S
O139 C136 1.256 . S
O140 Co120 2.062 . S
O140 C136 1.255 . S
O141 C121 1.259 . S
O141 Co122 2.021 . S
H142 C133 0.930 . S
H143 C132 0.931 . S
O144 Co120 2.117 . S
O144 C121 1.258 . S
O145 Co120 2.020 1_556 S
O145 C147 1.256 . S
O146 Co122 2.062 1_556 S
O146 C147 1.255 . S
C147 O145 1.256 . S
C147 O146 1.255 . S
H148 C127 0.931 . S
H149 C135 0.931 . S
Co150 N155 2.057 . S
Co150 O167 2.021 . S
Co150 O170 2.062 . S
Co150 O174 2.117 . S
Co150 O175 2.020 . S
C151 O171 1.259 . S
C151 O174 1.258 . S
Co152 N161 2.057 1_556 S
Co152 O168 2.117 . S
Co152 O169 2.020 . S
Co152 O171 2.021 . S
Co152 O176 2.062 . S
C153 N155 1.316 . S
C153 N156 1.347 . S
C153 H158 0.931 . S
C154 N155 1.375 . S
C154 C157 1.350 . S
C154 H159 0.930 . S
N155 Co150 2.057 . S
N155 C153 1.316 . S
N155 C154 1.375 . S
N156 C153 1.347 . S
N156 C157 1.373 . S
C157 C154 1.350 . S
C157 N156 1.373 . S
C157 H178 0.931 . S
H158 C153 0.931 . S
H159 C154 0.930 . S
C160 O167 1.259 . S
C160 O168 1.258 . S
N161 Co152 2.057 1_554 S
N161 C162 1.316 . S
N161 C163 1.375 . S
C162 N161 1.316 . S
C162 N164 1.347 . S
C162 H173 0.931 . S
C163 N161 1.375 . S
C163 C165 1.350 . S
C163 H172 0.930 . S
N164 C162 1.347 . S
N164 C165 1.373 . S
C165 C163 1.350 . S
C165 N164 1.373 . S
C165 H179 0.931 . S
C166 O169 1.256 . S
C166 O170 1.255 . S
O167 Co150 2.021 . S
O167 C160 1.259 . S
O168 Co152 2.117 . S
O168 C160 1.258 . S
O169 Co152 2.020 . S
O169 C166 1.256 . S
O170 Co150 2.062 . S
O170 C166 1.255 . S
O171 C151 1.259 . S
O171 Co152 2.021 . S
H172 C163 0.930 . S
H173 C162 0.931 . S
O174 Co150 2.117 . S
O174 C151 1.258 . S
O175 Co150 2.020 . S
O175 C177 1.256 . S
O176 Co152 2.062 . S
O176 C177 1.255 . S
C177 O175 1.256 . S
C177 O176 1.255 . S
H178 C157 0.931 . S
H179 C165 0.931 . S
Co180 N185 2.057 . S
Co180 O197 2.021 . S
Co180 O200 2.062 . S
Co180 O204 2.117 . S
Co180 O205 2.020 1_554 S
C181 O201 1.259 . S
C181 O204 1.258 . S
Co182 N191 2.057 . S
Co182 O198 2.117 . S
Co182 O199 2.020 . S
Co182 O201 2.021 . S
Co182 O206 2.062 1_554 S
C183 N185 1.316 . S
C183 N186 1.347 . S
C183 H188 0.931 . S
C184 N185 1.375 . S
C184 C187 1.350 . S
C184 H189 0.930 . S
N185 Co180 2.057 . S
N185 C183 1.316 . S
N185 C184 1.375 . S
N186 C183 1.347 . S
N186 C187 1.373 . S
C187 C184 1.350 . S
C187 N186 1.373 . S
C187 H208 0.931 . S
H188 C183 0.931 . S
H189 C184 0.930 . S
C190 O197 1.259 . S
C190 O198 1.258 . S
N191 Co182 2.057 . S
N191 C192 1.316 . S
N191 C193 1.375 . S
C192 N191 1.316 . S
C192 N194 1.347 . S
C192 H203 0.931 . S
C193 N191 1.375 . S
C193 C195 1.350 . S
C193 H202 0.930 . S
N194 C192 1.347 . S
N194 C195 1.373 . S
C195 C193 1.350 . S
C195 N194 1.373 . S
C195 H209 0.931 . S
C196 O199 1.256 . S
C196 O200 1.255 . S
O197 Co180 2.021 . S
O197 C190 1.259 . S
O198 Co182 2.117 . S
O198 C190 1.258 . S
O199 Co182 2.020 . S
O199 C196 1.256 . S
O200 Co180 2.062 . S
O200 C196 1.255 . S
O201 C181 1.259 . S
O201 Co182 2.021 . S
H202 C193 0.930 . S
H203 C192 0.931 . S
O204 Co180 2.117 . S
O204 C181 1.258 . S
O205 Co180 2.020 1_556 S
O205 C207 1.256 . S
O206 Co182 2.062 1_556 S
O206 C207 1.255 . S
C207 O205 1.256 . S
C207 O206 1.255 . S
H208 C187 0.931 . S
H209 C195 0.931 . S
Co210 N215 2.057 . S
Co210 O227 2.021 . S
Co210 O230 2.062 1_556 S
Co210 O234 2.117 . S
Co210 O235 2.020 . S
C211 O231 1.259 . S
C211 O234 1.258 . S
Co212 N221 2.057 . S
Co212 O228 2.117 . S
Co212 O229 2.020 1_556 S
Co212 O231 2.021 . S
Co212 O236 2.062 . S
C213 N215 1.316 . S
C213 N216 1.347 . S
C213 H218 0.931 . S
C214 N215 1.375 . S
C214 C217 1.350 . S
C214 H219 0.930 . S
N215 Co210 2.057 . S
N215 C213 1.316 . S
N215 C214 1.375 . S
N216 C213 1.347 . S
N216 C217 1.373 . S
C217 C214 1.350 . S
C217 N216 1.373 . S
C217 H238 0.931 . S
H218 C213 0.931 . S
H219 C214 0.930 . S
C220 O227 1.259 . S
C220 O228 1.258 . S
N221 Co212 2.057 . S
N221 C222 1.316 . S
N221 C223 1.375 . S
C222 N221 1.316 . S
C222 N224 1.347 . S
C222 H233 0.931 . S
C223 N221 1.375 . S
C223 C225 1.350 . S
C223 H232 0.930 . S
N224 C222 1.347 . S
N224 C225 1.373 . S
C225 C223 1.350 . S
C225 N224 1.373 . S
C225 H239 0.931 . S
C226 O229 1.256 . S
C226 O230 1.255 . S
O227 Co210 2.021 . S
O227 C220 1.259 . S
O228 Co212 2.117 . S
O228 C220 1.258 . S
O229 Co212 2.020 1_554 S
O229 C226 1.256 . S
O230 Co210 2.062 1_554 S
O230 C226 1.255 . S
O231 C211 1.259 . S
O231 Co212 2.021 . S
H232 C223 0.930 . S
H233 C222 0.931 . S
O234 Co210 2.117 . S
O234 C211 1.258 . S
O235 Co210 2.020 . S
O235 C237 1.256 . S
O236 Co212 2.062 . S
O236 C237 1.255 . S
C237 O235 1.256 . S
C237 O236 1.255 . S
H238 C217 0.931 . S
H239 C225 0.931 . S
Co240 N245 2.057 . S
Co240 O257 2.021 . S
Co240 O260 2.062 . S
Co240 O264 2.117 . S
Co240 O265 2.020 . S
C241 O261 1.259 . S
C241 O264 1.258 . S
Co242 N251 2.057 . S
Co242 O258 2.117 . S
Co242 O259 2.020 . S
Co242 O261 2.021 . S
Co242 O266 2.062 . S
C243 N245 1.316 . S
C243 N246 1.347 . S
C243 H248 0.931 . S
C244 N245 1.375 . S
C244 C247 1.350 . S
C244 H249 0.930 . S
N245 Co240 2.057 . S
N245 C243 1.316 . S
N245 C244 1.375 . S
N246 C243 1.347 . S
N246 C247 1.373 . S
C247 C244 1.350 . S
C247 N246 1.373 . S
C247 H268 0.931 . S
H248 C243 0.931 . S
H249 C244 0.930 . S
C250 O257 1.259 . S
C250 O258 1.258 . S
N251 Co242 2.057 . S
N251 C252 1.316 . S
N251 C253 1.375 . S
C252 N251 1.316 . S
C252 N254 1.347 . S
C252 H263 0.931 . S
C253 N251 1.375 . S
C253 C255 1.350 . S
C253 H262 0.930 . S
N254 C252 1.347 . S
N254 C255 1.373 . S
C255 C253 1.350 . S
C255 N254 1.373 . S
C255 H269 0.931 . S
C256 O259 1.256 . S
C256 O260 1.255 . S
O257 Co240 2.021 . S
O257 C250 1.259 . S
O258 Co242 2.117 . S
O258 C250 1.258 . S
O259 Co242 2.020 . S
O259 C256 1.256 . S
O260 Co240 2.062 . S
O260 C256 1.255 . S
O261 C241 1.259 . S
O261 Co242 2.021 . S
H262 C253 0.930 . S
H263 C252 0.931 . S
O264 Co240 2.117 . S
O264 C241 1.258 . S
O265 Co240 2.020 . S
O265 C267 1.256 . S
O266 Co242 2.062 . S
O266 C267 1.255 . S
C267 O265 1.256 . S
C267 O266 1.255 . S
H268 C247 0.931 . S
H269 C255 0.931 . S
Co270 N275 2.057 . S
Co270 O287 2.021 . S
Co270 O290 2.062 . S
Co270 O294 2.117 . S
Co270 O295 2.020 . S
C271 O291 1.259 . S
C271 O294 1.258 . S
Co272 N281 2.057 . S
Co272 O288 2.117 . S
Co272 O289 2.020 . S
Co272 O291 2.021 . S
Co272 O296 2.062 . S
C273 N275 1.316 . S
C273 N276 1.347 . S
C273 H278 0.931 . S
C274 N275 1.375 . S
C274 C277 1.350 . S
C274 H279 0.930 . S
N275 Co270 2.057 . S
N275 C273 1.316 . S
N275 C274 1.375 . S
N276 C273 1.347 . S
N276 C277 1.373 . S
C277 C274 1.350 . S
C277 N276 1.373 . S
C277 H298 0.931 . S
H278 C273 0.931 . S
H279 C274 0.930 . S
C280 O287 1.259 . S
C280 O288 1.258 . S
N281 Co272 2.057 . S
N281 C282 1.316 . S
N281 C283 1.375 . S
C282 N281 1.316 . S
C282 N284 1.347 . S
C282 H293 0.931 . S
C283 N281 1.375 . S
C283 C285 1.350 . S
C283 H292 0.930 . S
N284 C282 1.347 . S
N284 C285 1.373 . S
C285 C283 1.350 . S
C285 N284 1.373 . S
C285 H299 0.931 . S
C286 O289 1.256 . S
C286 O290 1.255 . S
O287 Co270 2.021 . S
O287 C280 1.259 . S
O288 Co272 2.117 . S
O288 C280 1.258 . S
O289 Co272 2.020 . S
O289 C286 1.256 . S
O290 Co270 2.062 . S
O290 C286 1.255 . S
O291 C271 1.259 . S
O291 Co272 2.021 . S
H292 C283 0.930 . S
H293 C282 0.931 . S
O294 Co270 2.117 . S
O294 C271 1.258 . S
O295 Co270 2.020 . S
O295 C297 1.256 . S
O296 Co272 2.062 . S
O296 C297 1.255 . S
C297 O295 1.256 . S
C297 O296 1.255 . S
H298 C277 0.931 . S
H299 C285 0.931 . S
Co300 N305 2.057 . S
Co300 O317 2.021 . S
Co300 O320 2.062 . S
Co300 O324 2.117 . S
Co300 O325 2.020 . S
C301 O321 1.259 . S
C301 O324 1.258 . S
Co302 N311 2.057 . S
Co302 O318 2.117 . S
Co302 O319 2.020 . S
Co302 O321 2.021 . S
Co302 O326 2.062 . S
C303 N305 1.316 . S
C303 N306 1.347 . S
C303 H308 0.931 . S
C304 N305 1.375 . S
C304 C307 1.350 . S
C304 H309 0.930 . S
N305 Co300 2.057 . S
N305 C303 1.316 . S
N305 C304 1.375 . S
N306 C303 1.347 . S
N306 C307 1.373 . S
C307 C304 1.350 . S
C307 N306 1.373 . S
C307 H328 0.931 . S
H308 C303 0.931 . S
H309 C304 0.930 . S
C310 O317 1.259 . S
C310 O318 1.258 . S
N311 Co302 2.057 . S
N311 C312 1.316 . S
N311 C313 1.375 . S
C312 N311 1.316 . S
C312 N314 1.347 . S
C312 H323 0.931 . S
C313 N311 1.375 . S
C313 C315 1.350 . S
C313 H322 0.930 . S
N314 C312 1.347 . S
N314 C315 1.373 . S
C315 C313 1.350 . S
C315 N314 1.373 . S
C315 H329 0.931 . S
C316 O319 1.256 . S
C316 O320 1.255 . S
O317 Co300 2.021 . S
O317 C310 1.259 . S
O318 Co302 2.117 . S
O318 C310 1.258 . S
O319 Co302 2.020 . S
O319 C316 1.256 . S
O320 Co300 2.062 . S
O320 C316 1.255 . S
O321 C301 1.259 . S
O321 Co302 2.021 . S
H322 C313 0.930 . S
H323 C312 0.931 . S
O324 Co300 2.117 . S
O324 C301 1.258 . S
O325 Co300 2.020 . S
O325 C327 1.256 . S
O326 Co302 2.062 . S
O326 C327 1.255 . S
C327 O325 1.256 . S
C327 O326 1.255 . S
H328 C307 0.931 . S
H329 C315 0.931 . S
Co330 N335 2.057 . S
Co330 O347 2.021 . S
Co330 O350 2.062 . S
Co330 O354 2.117 . S
Co330 O355 2.020 . S
C331 O351 1.259 . S
C331 O354 1.258 . S
Co332 N341 2.057 . S
Co332 O348 2.117 . S
Co332 O349 2.020 . S
Co332 O351 2.021 . S
Co332 O356 2.062 . S
C333 N335 1.316 . S
C333 N336 1.347 . S
C333 H338 0.931 . S
C334 N335 1.375 . S
C334 C337 1.350 . S
C334 H339 0.930 . S
N335 Co330 2.057 . S
N335 C333 1.316 . S
N335 C334 1.375 . S
N336 C333 1.347 . S
N336 C337 1.373 . S
C337 C334 1.350 . S
C337 N336 1.373 . S
C337 H358 0.931 . S
H338 C333 0.931 . S
H339 C334 0.930 . S
C340 O347 1.259 . S
C340 O348 1.258 . S
N341 Co332 2.057 . S
N341 C342 1.316 . S
N341 C343 1.375 . S
C342 N341 1.316 . S
C342 N344 1.347 1_554 S
C342 H353 0.931 . S
C343 N341 1.375 . S
C343 C345 1.350 . S
C343 H352 0.930 . S
N344 C342 1.347 1_556 S
N344 C345 1.373 1_556 S
C345 C343 1.350 . S
C345 N344 1.373 1_554 S
C345 H359 0.931 1_554 S
C346 O349 1.256 . S
C346 O350 1.255 . S
O347 Co330 2.021 . S
O347 C340 1.259 . S
O348 Co332 2.117 . S
O348 C340 1.258 . S
O349 Co332 2.020 . S
O349 C346 1.256 . S
O350 Co330 2.062 . S
O350 C346 1.255 . S
O351 C331 1.259 . S
O351 Co332 2.021 . S
H352 C343 0.930 . S
H353 C342 0.931 . S
O354 Co330 2.117 . S
O354 C331 1.258 . S
O355 Co330 2.020 . S
O355 C357 1.256 . S
O356 Co332 2.062 . S
O356 C357 1.255 . S
C357 O355 1.256 . S
C357 O356 1.255 . S
H358 C337 0.931 . S
H359 C345 0.931 1_556 S
Co360 N365 2.057 . S
Co360 O377 2.021 . S
Co360 O380 2.062 . S
Co360 O384 2.117 . S
Co360 O385 2.020 . S
C361 O381 1.259 . S
C361 O384 1.258 . S
Co362 N371 2.057 . S
Co362 O378 2.117 . S
Co362 O379 2.020 . S
Co362 O381 2.021 . S
Co362 O386 2.062 . S
C363 N365 1.316 . S
C363 N366 1.347 . S
C363 H368 0.931 . S
C364 N365 1.375 . S
C364 C367 1.350 . S
C364 H369 0.930 . S
N365 Co360 2.057 . S
N365 C363 1.316 . S
N365 C364 1.375 . S
N366 C363 1.347 . S
N366 C367 1.373 . S
C367 C364 1.350 . S
C367 N366 1.373 . S
C367 H388 0.931 . S
H368 C363 0.931 . S
H369 C364 0.930 . S
C370 O377 1.259 . S
C370 O378 1.258 . S
N371 Co362 2.057 . S
N371 C372 1.316 . S
N371 C373 1.375 . S
C372 N371 1.316 . S
C372 N374 1.347 . S
C372 H383 0.931 . S
C373 N371 1.375 . S
C373 C375 1.350 . S
C373 H382 0.930 . S
N374 C372 1.347 . S
N374 C375 1.373 . S
C375 C373 1.350 . S
C375 N374 1.373 . S
C375 H389 0.931 . S
C376 O379 1.256 . S
C376 O380 1.255 . S
O377 Co360 2.021 . S
O377 C370 1.259 . S
O378 Co362 2.117 . S
O378 C370 1.258 . S
O379 Co362 2.020 . S
O379 C376 1.256 . S
O380 Co360 2.062 . S
O380 C376 1.255 . S
O381 C361 1.259 . S
O381 Co362 2.021 . S
H382 C373 0.930 . S
H383 C372 0.931 . S
O384 Co360 2.117 . S
O384 C361 1.258 . S
O385 Co360 2.020 . S
O385 C387 1.256 . S
O386 Co362 2.062 . S
O386 C387 1.255 . S
C387 O385 1.256 . S
C387 O386 1.255 . S
H388 C367 0.931 . S
H389 C375 0.931 . S
Co390 N395 2.057 . S
Co390 O407 2.021 . S
Co390 O410 2.062 . S
Co390 O414 2.117 . S
Co390 O415 2.020 . S
C391 O411 1.259 . S
C391 O414 1.258 . S
Co392 N401 2.057 . S
Co392 O408 2.117 . S
Co392 O409 2.020 . S
Co392 O411 2.021 . S
Co392 O416 2.062 . S
C393 N395 1.316 . S
C393 N396 1.347 1_554 S
C393 H398 0.931 . S
C394 N395 1.375 . S
C394 C397 1.350 1_554 S
C394 H399 0.930 . S
N395 Co390 2.057 . S
N395 C393 1.316 . S
N395 C394 1.375 . S
N396 C393 1.347 1_556 S
N396 C397 1.373 . S
C397 C394 1.350 1_556 S
C397 N396 1.373 . S
C397 H418 0.931 . S
H398 C393 0.931 . S
H399 C394 0.930 . S
C400 O407 1.259 . S
C400 O408 1.258 . S
N401 Co392 2.057 . S
N401 C402 1.316 . S
N401 C403 1.375 . S
C402 N401 1.316 . S
C402 N404 1.347 . S
C402 H413 0.931 . S
C403 N401 1.375 . S
C403 C405 1.350 . S
C403 H412 0.930 . S
N404 C402 1.347 . S
N404 C405 1.373 . S
C405 C403 1.350 . S
C405 N404 1.373 . S
C405 H419 0.931 . S
C406 O409 1.256 . S
C406 O410 1.255 . S
O407 Co390 2.021 . S
O407 C400 1.259 . S
O408 Co392 2.117 . S
O408 C400 1.258 . S
O409 Co392 2.020 . S
O409 C406 1.256 . S
O410 Co390 2.062 . S
O410 C406 1.255 . S
O411 C391 1.259 . S
O411 Co392 2.021 . S
H412 C403 0.930 . S
H413 C402 0.931 . S
O414 Co390 2.117 . S
O414 C391 1.258 . S
O415 Co390 2.020 . S
O415 C417 1.256 . S
O416 Co392 2.062 . S
O416 C417 1.255 . S
C417 O415 1.256 . S
C417 O416 1.255 . S
H418 C397 0.931 . S
H419 C405 0.931 . S
Co420 N425 2.057 . S
Co420 O437 2.021 . S
Co420 O440 2.062 . S
Co420 O444 2.117 . S
Co420 O445 2.020 . S
C421 O441 1.259 . S
C421 O444 1.258 . S
Co422 N431 2.057 . S
Co422 O438 2.117 . S
Co422 O439 2.020 . S
Co422 O441 2.021 . S
Co422 O446 2.062 . S
C423 N425 1.316 . S
C423 N426 1.347 . S
C423 H428 0.931 . S
C424 N425 1.375 . S
C424 C427 1.350 . S
C424 H429 0.930 . S
N425 Co420 2.057 . S
N425 C423 1.316 . S
N425 C424 1.375 . S
N426 C423 1.347 . S
N426 C427 1.373 . S
C427 C424 1.350 . S
C427 N426 1.373 . S
C427 H448 0.931 . S
H428 C423 0.931 . S
H429 C424 0.930 . S
C430 O437 1.259 . S
C430 O438 1.258 . S
N431 Co422 2.057 . S
N431 C432 1.316 . S
N431 C433 1.375 . S
C432 N431 1.316 . S
C432 N434 1.347 . S
C432 H443 0.931 . S
C433 N431 1.375 . S
C433 C435 1.350 . S
C433 H442 0.930 . S
N434 C432 1.347 . S
N434 C435 1.373 . S
C435 C433 1.350 . S
C435 N434 1.373 . S
C435 H449 0.931 . S
C436 O439 1.256 . S
C436 O440 1.255 . S
O437 Co420 2.021 . S
O437 C430 1.259 . S
O438 Co422 2.117 . S
O438 C430 1.258 . S
O439 Co422 2.020 . S
O439 C436 1.256 . S
O440 Co420 2.062 . S
O440 C436 1.255 . S
O441 C421 1.259 . S
O441 Co422 2.021 . S
H442 C433 0.930 . S
H443 C432 0.931 . S
O444 Co420 2.117 . S
O444 C421 1.258 . S
O445 Co420 2.020 . S
O445 C447 1.256 . S
O446 Co422 2.062 . S
O446 C447 1.255 . S
C447 O445 1.256 . S
C447 O446 1.255 . S
H448 C427 0.931 . S
H449 C435 0.931 . S
Co450 N455 2.057 . S
Co450 O467 2.021 . S
Co450 O470 2.062 . S
Co450 O474 2.117 . S
Co450 O475 2.020 . S
C451 O471 1.259 . S
C451 O474 1.258 . S
Co452 N461 2.057 . S
Co452 O468 2.117 . S
Co452 O469 2.020 . S
Co452 O471 2.021 . S
Co452 O476 2.062 . S
C453 N455 1.316 . S
C453 N456 1.347 . S
C453 H458 0.931 . S
C454 N455 1.375 . S
C454 C457 1.350 . S
C454 H459 0.930 . S
N455 Co450 2.057 . S
N455 C453 1.316 . S
N455 C454 1.375 . S
N456 C453 1.347 . S
N456 C457 1.373 . S
C457 C454 1.350 . S
C457 N456 1.373 . S
C457 H478 0.931 . S
H458 C453 0.931 . S
H459 C454 0.930 . S
C460 O467 1.259 . S
C460 O468 1.258 . S
N461 Co452 2.057 . S
N461 C462 1.316 . S
N461 C463 1.375 . S
C462 N461 1.316 . S
C462 N464 1.347 . S
C462 H473 0.931 . S
C463 N461 1.375 . S
C463 C465 1.350 . S
C463 H472 0.930 . S
N464 C462 1.347 . S
N464 C465 1.373 . S
C465 C463 1.350 . S
C465 N464 1.373 . S
C465 H479 0.931 . S
C466 O469 1.256 . S
C466 O470 1.255 . S
O467 Co450 2.021 . S
O467 C460 1.259 . S
O468 Co452 2.117 . S
O468 C460 1.258 . S
O469 Co452 2.020 . S
O469 C466 1.256 . S
O470 Co450 2.062 . S
O470 C466 1.255 . S
O471 C451 1.259 . S
O471 Co452 2.021 . S
H472 C463 0.930 . S
H473 C462 0.931 . S
O474 Co450 2.117 . S
O474 C451 1.258 . S
O475 Co450 2.020 . S
O475 C477 1.256 . S
O476 Co452 2.062 . S
O476 C477 1.255 . S
C477 O475 1.256 . S
C477 O476 1.255 . S
H478 C457 0.931 . S
H479 C465 0.931 . S
H480 C486 0.930 . S
H481 C489 0.930 . S
H482 C490 0.930 . S
H483 C491 0.930 . S
H484 C494 0.930 . S
H485 C495 0.930 . S
C486 H480 0.930 . S
C486 C487 1.355 . S
C486 C488 1.415 . S
C487 C486 1.355 . S
C487 C489 1.419 . S
C488 C486 1.415 . S
C488 C493 1.425 1_565 S
C488 C495 1.409 1_565 S
C489 H481 0.930 . S
C489 C487 1.419 . S
C489 C490 1.362 . S
C490 H482 0.930 . S
C490 C489 1.362 . S
C490 C493 1.409 1_565 S
C491 H483 0.930 . S
C491 C492 1.355 . S
C491 C493 1.415 . S
C492 C491 1.355 . S
C492 C494 1.419 . S
C493 C488 1.425 1_545 S
C493 C490 1.409 1_545 S
C493 C491 1.415 . S
C494 H484 0.930 . S
C494 C492 1.419 . S
C494 C495 1.362 . S
C495 H485 0.930 . S
C495 C488 1.409 1_545 S
C495 C494 1.362 . S
H496 C502 0.930 . S
H497 C505 0.930 1_655 S
H498 C506 0.930 . S
H499 C507 0.930 . S
H500 C510 0.930 . S
H501 C511 0.930 . S
C502 H496 0.930 . S
C502 C503 1.394 . S
C502 C504 1.415 . S
C503 C502 1.394 . S
C503 C505 1.426 . S
C504 C502 1.415 . S
C504 C509 1.425 . S
C504 C511 1.409 . S
C505 H497 0.930 1_455 S
C505 C503 1.426 . S
C505 C506 1.362 . S
C506 H498 0.930 . S
C506 C505 1.362 . S
C506 C509 1.409 . S
C507 H499 0.930 . S
C507 C508 1.355 . S
C507 C509 1.415 . S
C508 C507 1.355 . S
C508 C510 1.419 . S
C509 C504 1.425 . S
C509 C506 1.409 . S
C509 C507 1.415 . S
C510 H500 0.930 . S
C510 C508 1.419 . S
C510 C511 1.362 . S
C511 H501 0.930 . S
C511 C504 1.409 . S
C511 C510 1.362 . S
H512 C518 0.930 . S
H513 C521 0.930 . S
H514 C522 0.930 . S
H515 C523 0.930 . S
H516 C526 0.930 1_545 S
H517 C527 0.930 . S
C518 H512 0.930 . S
C518 C519 1.355 . S
C518 C520 1.415 . S
C519 C518 1.355 . S
C519 C521 1.419 . S
C520 C518 1.415 . S
C520 C525 1.425 . S
C520 C527 1.409 . S
C521 H513 0.930 . S
C521 C519 1.419 . S
C521 C522 1.362 . S
C522 H514 0.930 . S
C522 C521 1.362 . S
C522 C525 1.409 . S
C523 H515 0.930 . S
C523 C524 1.355 . S
C523 C525 1.415 . S
C524 C523 1.355 . S
C524 C526 1.419 . S
C525 C520 1.425 . S
C525 C522 1.409 . S
C525 C523 1.415 . S
C526 H516 0.930 1_565 S
C526 C524 1.419 . S
C526 C527 1.362 . S
C527 H517 0.930 . S
C527 C520 1.409 . S
C527 C526 1.362 . S
H528 C534 0.930 . S
H529 C537 0.930 . S
H530 C538 0.930 . S
H531 C539 0.930 . S
H532 C542 0.942 . S
H533 C543 0.930 . S
C534 H528 0.930 . S
C534 C535 1.355 . S
C534 C536 1.415 . S
C535 C534 1.355 . S
C535 C537 1.419 . S
C536 C534 1.415 . S
C536 C541 1.425 . S
C536 C543 1.409 . S
C537 H529 0.930 . S
C537 C535 1.419 . S
C537 C538 1.362 . S
C538 H530 0.930 . S
C538 C537 1.362 . S
C538 C541 1.409 . S
C539 H531 0.930 . S
C539 C540 1.355 1_655 S
C539 C541 1.415 . S
C540 C539 1.355 1_455 S
C540 C542 1.424 . S
C541 C536 1.425 . S
C541 C538 1.409 . S
C541 C539 1.415 . S
C542 H532 0.942 . S
C542 C540 1.424 . S
C542 C543 1.345 1_455 S
C543 H533 0.930 . S
C543 C536 1.409 . S
C543 C542 1.345 1_655 S
H544 C550 0.930 . S
H545 C553 0.930 . S
H546 C554 0.930 . S
H547 C555 0.930 . S
H548 C558 0.930 . S
H549 C559 0.930 . S
C550 H544 0.930 . S
C550 C551 1.355 1_556 S
C550 C552 1.415 . S
C551 C550 1.355 1_554 S
C551 C553 1.419 . S
C552 C550 1.415 . S
C552 C557 1.425 1_556 S
C552 C559 1.409 . S
C553 H545 0.930 . S
C553 C551 1.419 . S
C553 C554 1.362 . S
C554 H546 0.930 . S
C554 C553 1.362 . S
C554 C557 1.409 . S
C555 H547 0.930 . S
C555 C556 1.355 1_554 S
C555 C557 1.415 . S
C556 C555 1.355 1_556 S
C556 C558 1.419 . S
C557 C552 1.425 1_554 S
C557 C554 1.409 . S
C557 C555 1.415 . S
C558 H548 0.930 . S
C558 C556 1.419 . S
C558 C559 1.362 . S
C559 H549 0.930 . S
C559 C552 1.409 . S
C559 C558 1.362 . S
H560 C566 0.930 . S
H561 C569 0.930 . S
H562 C570 0.930 . S
H563 C571 0.930 1_554 S
H564 C574 0.930 . S
H565 C575 0.930 . S
C566 H560 0.930 . S
C566 C567 1.355 1_556 S
C566 C568 1.415 . S
C567 C566 1.355 1_554 S
C567 C569 1.419 . S
C568 C566 1.415 . S
C568 C573 1.425 . S
C568 C575 1.409 . S
C569 H561 0.930 . S
C569 C567 1.419 . S
C569 C570 1.362 . S
C570 H562 0.930 . S
C570 C569 1.362 . S
C570 C573 1.409 1_554 S
C571 H563 0.930 1_556 S
C571 C572 1.355 . S
C571 C573 1.415 . S
C572 C571 1.355 . S
C572 C574 1.419 . S
C573 C568 1.425 . S
C573 C570 1.409 1_556 S
C573 C571 1.415 . S
C574 H564 0.930 . S
C574 C572 1.419 . S
C574 C575 1.362 . S
C575 H565 0.930 . S
C575 C568 1.409 . S
C575 C574 1.362 . S
H576 C582 0.930 . S
H577 C585 0.930 . S
H578 C586 0.930 . S
H579 C587 0.930 . S
H580 C590 0.930 . S
H581 C591 0.930 . S
C582 H576 0.930 . S
C582 C583 1.355 . S
C582 C584 1.415 . S
C583 C582 1.355 . S
C583 C585 1.419 . S
C584 C582 1.415 . S
C584 C589 1.425 . S
C584 C591 1.409 1_554 S
C585 H577 0.930 . S
C585 C583 1.419 . S
C585 C586 1.362 . S
C586 H578 0.930 . S
C586 C585 1.362 . S
C586 C589 1.409 . S
C587 H579 0.930 . S
C587 C588 1.355 1_554 S
C587 C589 1.415 . S
C588 C587 1.355 1_556 S
C588 C590 1.419 . S
C589 C584 1.425 . S
C589 C586 1.409 . S
C589 C587 1.415 . S
C590 H580 0.930 . S
C590 C588 1.419 . S
C590 C591 1.362 . S
C591 H581 0.930 . S
C591 C584 1.409 1_556 S
C591 C590 1.362 . S
H592 C598 0.930 . S
H593 C601 0.930 . S
H594 C602 0.930 . S
H595 C603 0.930 . S
H596 C606 0.930 . S
H597 C607 0.930 . S
C598 H592 0.930 . S
C598 C599 1.355 . S
C598 C600 1.415 . S
C599 C598 1.355 . S
C599 C601 1.419 1_556 S
C600 C598 1.415 . S
C600 C605 1.425 . S
C600 C607 1.409 . S
C601 H593 0.930 . S
C601 C599 1.419 1_554 S
C601 C602 1.362 . S
C602 H594 0.930 . S
C602 C601 1.362 . S
C602 C605 1.409 1_554 S
C603 H595 0.930 . S
C603 C604 1.355 . S
C603 C605 1.415 . S
C604 C603 1.355 . S
C604 C606 1.419 . S
C605 C600 1.425 . S
C605 C602 1.409 1_556 S
C605 C603 1.415 . S
C606 H596 0.930 . S
C606 C604 1.419 . S
C606 C607 1.362 . S
C607 H597 0.930 . S
C607 C600 1.409 . S
C607 C606 1.362 . S
H608 C614 0.930 . S
H609 C617 0.930 . S
H610 C618 0.930 . S
H611 C619 0.930 . S
H612 C622 0.930 . S
H613 C623 0.930 . S
C614 H608 0.930 . S
C614 C615 1.355 . S
C614 C616 1.415 . S
C615 C614 1.355 . S
C615 C617 1.419 . S
C616 C614 1.415 . S
C616 C621 1.425 . S
C616 C623 1.409 . S
C617 H609 0.930 . S
C617 C615 1.419 . S
C617 C618 1.362 . S
C618 H610 0.930 . S
C618 C617 1.362 . S
C618 C621 1.409 . S
C619 H611 0.930 . S
C619 C620 1.355 . S
C619 C621 1.415 . S
C620 C619 1.355 . S
C620 C622 1.419 . S
C621 C616 1.425 . S
C621 C618 1.409 . S
C621 C619 1.415 . S
C622 H612 0.930 . S
C622 C620 1.419 . S
C622 C623 1.362 . S
C623 H613 0.930 . S
C623 C616 1.409 . S
C623 C622 1.362 . S
H624 C630 0.930 . S
H625 C633 0.930 . S
H626 C634 0.930 . S
H627 C635 0.930 . S
H628 C638 0.930 . S
H629 C639 0.930 . S
C630 H624 0.930 . S
C630 C631 1.355 . S
C630 C632 1.415 . S
C631 C630 1.355 . S
C631 C633 1.419 . S
C632 C630 1.415 . S
C632 C637 1.425 . S
C632 C639 1.409 . S
C633 H625 0.930 . S
C633 C631 1.419 . S
C633 C634 1.362 . S
C634 H626 0.930 . S
C634 C633 1.362 . S
C634 C637 1.409 . S
C635 H627 0.930 . S
C635 C636 1.355 . S
C635 C637 1.415 . S
C636 C635 1.355 . S
C636 C638 1.419 . S
C637 C632 1.425 . S
C637 C634 1.409 . S
C637 C635 1.415 . S
C638 H628 0.930 . S
C638 C636 1.419 . S
C638 C639 1.362 . S
C639 H629 0.930 . S
C639 C632 1.409 . S
C639 C638 1.362 . S
H640 C646 0.930 . S
H641 C649 0.930 . S
H642 C650 0.930 . S
H643 C651 0.930 . S
H644 C654 0.930 . S
H645 C655 0.930 . S
C646 H640 0.930 . S
C646 C647 1.355 . S
C646 C648 1.415 . S
C647 C646 1.355 . S
C647 C649 1.419 . S
C648 C646 1.415 . S
C648 C653 1.425 . S
C648 C655 1.409 . S
C649 H641 0.930 . S
C649 C647 1.419 . S
C649 C650 1.362 . S
C650 H642 0.930 . S
C650 C649 1.362 . S
C650 C653 1.409 . S
C651 H643 0.930 . S
C651 C652 1.355 . S
C651 C653 1.415 . S
C652 C651 1.355 . S
C652 C654 1.419 . S
C653 C648 1.425 . S
C653 C650 1.409 . S
C653 C651 1.415 . S
C654 H644 0.930 . S
C654 C652 1.419 . S
C654 C655 1.362 . S
C655 H645 0.930 . S
C655 C648 1.409 . S
C655 C654 1.362 . S
H656 C662 0.930 . S
H657 C665 0.930 . S
H658 C666 0.930 . S
H659 C667 0.930 . S
H660 C670 0.930 . S
H661 C671 0.930 . S
C662 H656 0.930 . S
C662 C663 1.355 . S
C662 C664 1.415 . S
C663 C662 1.355 . S
C663 C665 1.419 . S
C664 C662 1.415 . S
C664 C669 1.425 . S
C664 C671 1.409 . S
C665 H657 0.930 . S
C665 C663 1.419 . S
C665 C666 1.362 . S
C666 H658 0.930 . S
C666 C665 1.362 . S
C666 C669 1.409 . S
C667 H659 0.930 . S
C667 C668 1.355 . S
C667 C669 1.415 . S
C668 C667 1.355 . S
C668 C670 1.419 . S
C669 C664 1.425 . S
C669 C666 1.409 . S
C669 C667 1.415 . S
C670 H660 0.930 . S
C670 C668 1.419 . S
C670 C671 1.362 . S
C671 H661 0.930 . S
C671 C664 1.409 . S
C671 C670 1.362 . S
H672 C678 0.930 . S
H673 C681 0.930 . S
H674 C682 0.930 1_545 S
H675 C683 0.930 . S
H676 C686 0.930 . S
H677 C687 0.930 1_565 S
C678 H672 0.930 . S
C678 C679 1.355 . S
C678 C680 1.415 . S
C679 C678 1.355 . S
C679 C681 1.419 . S
C680 C678 1.415 . S
C680 C685 1.425 1_565 S
C680 C687 1.409 1_565 S
C681 H673 0.930 . S
C681 C679 1.419 . S
C681 C682 1.362 . S
C682 H674 0.930 1_565 S
C682 C681 1.362 . S
C682 C685 1.409 1_565 S
C683 H675 0.930 . S
C683 C684 1.355 . S
C683 C685 1.415 . S
C684 C683 1.355 . S
C684 C686 1.419 . S
C685 C680 1.425 1_545 S
C685 C682 1.409 1_545 S
C685 C683 1.415 . S
C686 H676 0.930 . S
C686 C684 1.419 . S
C686 C687 1.362 . S
C687 H677 0.930 1_545 S
C687 C680 1.409 1_545 S
C687 C686 1.362 . S
H688 C694 0.930 . S
H689 C697 0.930 . S
H690 C698 0.930 . S
H691 C699 0.930 . S
H692 C702 0.930 . S
H693 C703 0.930 . S
C694 H688 0.930 . S
C694 C695 1.355 1_655 S
C694 C696 1.415 . S
C695 C694 1.355 1_455 S
C695 C697 1.419 . S
C696 C694 1.415 . S
C696 C701 1.425 . S
C696 C703 1.409 . S
C697 H689 0.930 . S
C697 C695 1.419 . S
C697 C698 1.362 1_455 S
C698 H690 0.930 . S
C698 C697 1.362 1_655 S
C698 C701 1.409 . S
C699 H691 0.930 . S
C699 C700 1.355 . S
C699 C701 1.415 . S
C700 C699 1.355 . S
C700 C702 1.419 . S
C701 C696 1.425 . S
C701 C698 1.409 . S
C701 C699 1.415 . S
C702 H692 0.930 . S
C702 C700 1.419 . S
C702 C703 1.362 . S
C703 H693 0.930 . S
C703 C696 1.409 . S
C703 C702 1.362 . S
H704 C710 0.930 . S
H705 C713 0.966 . S
H706 C714 0.930 . S
H707 C715 0.930 . S
H708 C718 0.930 . S
H709 C719 0.930 . S
C710 H704 0.930 . S
C710 C711 1.355 . S
C710 C712 1.415 . S
C711 C710 1.355 . S
C711 C713 1.416 1_545 S
C712 C710 1.415 . S
C712 C717 1.425 . S
C712 C719 1.409 . S
C713 H705 0.966 . S
C713 C711 1.416 1_565 S
C713 C714 1.330 1_565 S
C714 H706 0.930 . S
C714 C713 1.330 1_545 S
C714 C717 1.409 . S
C715 H707 0.930 . S
C715 C716 1.355 . S
C715 C717 1.415 . S
C716 C715 1.355 . S
C716 C718 1.419 . S
C717 C712 1.425 . S
C717 C714 1.409 . S
C717 C715 1.415 . S
C718 H708 0.930 . S
C718 C716 1.419 . S
C718 C719 1.362 . S
C719 H709 0.930 . S
C719 C712 1.409 . S
C719 C718 1.362 . S
H720 C726 0.930 . S
H721 C729 0.930 . S
H722 C730 0.930 . S
H723 C731 0.930 . S
H724 C734 0.930 1_655 S
H725 C735 0.930 . S
C726 H720 0.930 . S
C726 C727 1.355 . S
C726 C728 1.415 . S
C727 C726 1.355 . S
C727 C729 1.419 . S
C728 C726 1.415 . S
C728 C733 1.425 . S
C728 C735 1.409 . S
C729 H721 0.930 . S
C729 C727 1.419 . S
C729 C730 1.362 . S
C730 H722 0.930 . S
C730 C729 1.362 . S
C730 C733 1.409 . S
C731 H723 0.930 . S
C731 C732 1.394 . S
C731 C733 1.415 . S
C732 C731 1.394 . S
C732 C734 1.426 . S
C733 C728 1.425 . S
C733 C730 1.409 . S
C733 C731 1.415 . S
C734 H724 0.930 1_455 S
C734 C732 1.426 . S
C734 C735 1.362 . S
C735 H725 0.930 . S
C735 C728 1.409 . S
C735 C734 1.362 . S
H736 C742 0.930 . S
H737 C745 0.930 1_556 S
H738 C746 0.930 1_556 S
H739 C747 0.930 . S
H740 C750 0.930 . S
H741 C751 0.930 . S
C742 H736 0.930 . S
C742 C743 1.355 . S
C742 C744 1.415 . S
C743 C742 1.355 . S
C743 C745 1.419 . S
C744 C742 1.415 . S
C744 C749 1.425 . S
C744 C751 1.409 . S
C745 H737 0.930 1_554 S
C745 C743 1.419 . S
C745 C746 1.362 . S
C746 H738 0.930 1_554 S
C746 C745 1.362 . S
C746 C749 1.409 . S
C747 H739 0.930 . S
C747 C748 1.355 . S
C747 C749 1.415 . S
C748 C747 1.355 . S
C748 C750 1.419 . S
C749 C744 1.425 . S
C749 C746 1.409 . S
C749 C747 1.415 . S
C750 H740 0.930 . S
C750 C748 1.419 . S
C750 C751 1.362 . S
C751 H741 0.930 . S
C751 C744 1.409 . S
C751 C750 1.362 . S
H752 C758 0.930 . S
H753 C761 0.930 . S
H754 C762 0.930 . S
H755 C763 0.930 . S
H756 C766 0.930 . S
H757 C767 0.930 . S
C758 H752 0.930 . S
C758 C759 1.355 . S
C758 C760 1.415 . S
C759 C758 1.355 . S
C759 C761 1.419 . S
C760 C758 1.415 . S
C760 C765 1.425 . S
C760 C767 1.409 . S
C761 H753 0.930 . S
C761 C759 1.419 . S
C761 C762 1.362 . S
C762 H754 0.930 . S
C762 C761 1.362 . S
C762 C765 1.409 . S
C763 H755 0.930 . S
C763 C764 1.355 . S
C763 C765 1.415 . S
C764 C763 1.355 . S
C764 C766 1.419 . S
C765 C760 1.425 . S
C765 C762 1.409 . S
C765 C763 1.415 . S
C766 H756 0.930 . S
C766 C764 1.419 . S
C766 C767 1.362 . S
C767 H757 0.930 . S
C767 C760 1.409 . S
C767 C766 1.362 . S
H768 C774 0.930 . S
H769 C777 0.930 . S
H770 C778 0.930 . S
H771 C779 0.930 . S
H772 C782 0.930 . S
H773 C783 0.930 . S
C774 H768 0.930 . S
C774 C775 1.355 . S
C774 C776 1.415 . S
C775 C774 1.355 . S
C775 C777 1.419 . S
C776 C774 1.415 . S
C776 C781 1.425 . S
C776 C783 1.409 . S
C777 H769 0.930 . S
C777 C775 1.419 . S
C777 C778 1.362 . S
C778 H770 0.930 . S
C778 C777 1.362 . S
C778 C781 1.409 . S
C779 H771 0.930 . S
C779 C780 1.355 . S
C779 C781 1.415 . S
C780 C779 1.355 . S
C780 C782 1.419 . S
C781 C776 1.425 . S
C781 C778 1.409 . S
C781 C779 1.415 . S
C782 H772 0.930 . S
C782 C780 1.419 . S
C782 C783 1.362 . S
C783 H773 0.930 . S
C783 C776 1.409 . S
C783 C782 1.362 . S
H784 C790 0.930 . S
H785 C793 0.930 . S
H786 C794 0.930 . S
H787 C795 0.930 1_554 S
H788 C798 0.930 . S
H789 C799 0.930 . S
C790 H784 0.930 . S
C790 C791 1.355 . S
C790 C792 1.415 . S
C791 C790 1.355 . S
C791 C793 1.419 1_556 S
C792 C790 1.415 . S
C792 C797 1.425 . S
C792 C799 1.409 . S
C793 H785 0.930 . S
C793 C791 1.419 1_554 S
C793 C794 1.362 . S
C794 H786 0.930 . S
C794 C793 1.362 . S
C794 C797 1.409 1_554 S
C795 H787 0.930 1_556 S
C795 C796 1.355 . S
C795 C797 1.415 . S
C796 C795 1.355 . S
C796 C798 1.419 . S
C797 C792 1.425 . S
C797 C794 1.409 1_556 S
C797 C795 1.415 . S
C798 H788 0.930 . S
C798 C796 1.419 . S
C798 C799 1.362 . S
C799 H789 0.930 . S
C799 C792 1.409 . S
C799 C798 1.362 . S
H800 C806 0.930 . S
H801 C809 0.930 . S
H802 C810 0.930 . S
H803 C811 0.930 . S
H804 C814 0.930 . S
H805 C815 0.930 . S
C806 H800 0.930 . S
C806 C807 1.355 . S
C806 C808 1.415 . S
C807 C806 1.355 . S
C807 C809 1.419 . S
C808 C806 1.415 . S
C808 C813 1.425 . S
C808 C815 1.409 . S
C809 H801 0.930 . S
C809 C807 1.419 . S
C809 C810 1.362 . S
C810 H802 0.930 . S
C810 C809 1.362 . S
C810 C813 1.409 . S
C811 H803 0.930 . S
C811 C812 1.355 . S
C811 C813 1.415 . S
C812 C811 1.355 . S
C812 C814 1.419 . S
C813 C808 1.425 . S
C813 C810 1.409 . S
C813 C811 1.415 . S
C814 H804 0.930 . S
C814 C812 1.419 . S
C814 C815 1.362 . S
C815 H805 0.930 . S
C815 C808 1.409 . S
C815 C814 1.362 . S
H816 C822 0.930 . S
H817 C825 0.930 . S
H818 C826 0.930 . S
H819 C827 0.930 . S
H820 C830 0.930 . S
H821 C831 0.930 . S
C822 H816 0.930 . S
C822 C823 1.355 . S
C822 C824 1.415 . S
C823 C822 1.355 . S
C823 C825 1.419 . S
C824 C822 1.415 . S
C824 C829 1.425 . S
C824 C831 1.409 . S
C825 H817 0.930 . S
C825 C823 1.419 . S
C825 C826 1.362 . S
C826 H818 0.930 . S
C826 C825 1.362 . S
C826 C829 1.409 . S
C827 H819 0.930 . S
C827 C828 1.355 . S
C827 C829 1.415 . S
C828 C827 1.355 . S
C828 C830 1.419 . S
C829 C824 1.425 . S
C829 C826 1.409 . S
C829 C827 1.415 . S
C830 H820 0.930 . S
C830 C828 1.419 . S
C830 C831 1.362 . S
C831 H821 0.930 . S
C831 C824 1.409 . S
C831 C830 1.362 . S
H832 C838 0.930 . S
H833 C841 0.930 . S
H834 C842 0.930 . S
H835 C843 0.930 . S
H836 C846 0.930 . S
H837 C847 0.930 . S
C838 H832 0.930 . S
C838 C839 1.355 . S
C838 C840 1.415 . S
C839 C838 1.355 . S
C839 C841 1.419 . S
C840 C838 1.415 . S
C840 C845 1.425 . S
C840 C847 1.409 . S
C841 H833 0.930 . S
C841 C839 1.419 . S
C841 C842 1.362 . S
C842 H834 0.930 . S
C842 C841 1.362 . S
C842 C845 1.409 . S
C843 H835 0.930 . S
C843 C844 1.355 . S
C843 C845 1.415 . S
C844 C843 1.355 . S
C844 C846 1.419 . S
C845 C840 1.425 . S
C845 C842 1.409 . S
C845 C843 1.415 . S
C846 H836 0.930 . S
C846 C844 1.419 . S
C846 C847 1.362 . S
C847 H837 0.930 . S
C847 C840 1.409 . S
C847 C846 1.362 . S
H848 C854 0.930 . S
H849 C857 0.930 . S
H850 C858 0.930 . S
H851 C859 0.930 . S
H852 C862 0.930 . S
H853 C863 0.930 . S
C854 H848 0.930 . S
C854 C855 1.355 . S
C854 C856 1.415 . S
C855 C854 1.355 . S
C855 C857 1.419 . S
C856 C854 1.415 . S
C856 C861 1.425 . S
C856 C863 1.409 . S
C857 H849 0.930 . S
C857 C855 1.419 . S
C857 C858 1.362 . S
C858 H850 0.930 . S
C858 C857 1.362 . S
C858 C861 1.409 . S
C859 H851 0.930 . S
C859 C860 1.355 . S
C859 C861 1.415 . S
C860 C859 1.355 . S
C860 C862 1.419 . S
C861 C856 1.425 . S
C861 C858 1.409 . S
C861 C859 1.415 . S
C862 H852 0.930 . S
C862 C860 1.419 . S
C862 C863 1.362 . S
C863 H853 0.930 . S
C863 C856 1.409 . S
C863 C862 1.362 . S
H864 C870 0.930 . S
H865 C873 0.930 . S
H866 C874 0.930 1_554 S
H867 C875 0.930 . S
H868 C878 0.930 . S
H869 C879 0.930 . S
C870 H864 0.930 . S
C870 C871 1.355 . S
C870 C872 1.415 . S
C871 C870 1.355 . S
C871 C873 1.419 . S
C872 C870 1.415 . S
C872 C877 1.425 . S
C872 C879 1.409 . S
C873 H865 0.930 . S
C873 C871 1.419 . S
C873 C874 1.362 . S
C874 H866 0.930 1_556 S
C874 C873 1.362 . S
C874 C877 1.409 . S
C875 H867 0.930 . S
C875 C876 1.355 1_554 S
C875 C877 1.415 1_554 S
C876 C875 1.355 1_556 S
C876 C878 1.419 . S
C877 C872 1.425 . S
C877 C874 1.409 . S
C877 C875 1.415 1_556 S
C878 H868 0.930 . S
C878 C876 1.419 . S
C878 C879 1.362 . S
C879 H869 0.930 . S
C879 C872 1.409 . S
C879 C878 1.362 . S
H880 C886 0.930 1_556 S
H881 C889 0.930 . S
H882 C890 0.930 . S
H883 C891 0.930 . S
H884 C894 0.930 . S
H885 C895 0.930 . S
C886 H880 0.930 1_554 S
C886 C887 1.355 1_554 S
C886 C888 1.415 . S
C887 C886 1.355 1_556 S
C887 C889 1.419 1_556 S
C888 C886 1.415 . S
C888 C893 1.425 . S
C888 C895 1.409 . S
C889 H881 0.930 . S
C889 C887 1.419 1_554 S
C889 C890 1.362 . S
C890 H882 0.930 . S
C890 C889 1.362 . S
C890 C893 1.409 . S
C891 H883 0.930 . S
C891 C892 1.355 . S
C891 C893 1.415 . S
C892 C891 1.355 . S
C892 C894 1.419 . S
C893 C888 1.425 . S
C893 C890 1.409 . S
C893 C891 1.415 . S
C894 H884 0.930 . S
C894 C892 1.419 . S
C894 C895 1.362 . S
C895 H885 0.930 . S
C895 C888 1.409 . S
C895 C894 1.362 . S
H896 C902 0.930 . S
H897 C905 0.930 . S
H898 C906 0.930 1_554 S
H899 C907 0.930 . S
H900 C910 0.930 . S
H901 C911 0.930 . S
C902 H896 0.930 . S
C902 C903 1.355 . S
C902 C904 1.415 . S
C903 C902 1.355 . S
C903 C905 1.419 1_556 S
C904 C902 1.415 . S
C904 C909 1.425 . S
C904 C911 1.409 . S
C905 H897 0.930 . S
C905 C903 1.419 1_554 S
C905 C906 1.362 1_554 S
C906 H898 0.930 1_556 S
C906 C905 1.362 1_556 S
C906 C909 1.409 . S
C907 H899 0.930 . S
C907 C908 1.355 . S
C907 C909 1.415 . S
C908 C907 1.355 . S
C908 C910 1.419 . S
C909 C904 1.425 . S
C909 C906 1.409 . S
C909 C907 1.415 . S
C910 H900 0.930 . S
C910 C908 1.419 . S
C910 C911 1.362 . S
C911 H901 0.930 . S
C911 C904 1.409 . S
C911 C910 1.362 . S
H912 C918 0.930 . S
H913 C921 0.930 . S
H914 C922 0.930 . S
H915 C923 0.930 . S
H916 C926 0.930 . S
H917 C927 0.930 . S
C918 H912 0.930 . S
C918 C919 1.355 . S
C918 C920 1.415 . S
C919 C918 1.355 . S
C919 C921 1.419 1_554 S
C920 C918 1.415 . S
C920 C925 1.425 . S
C920 C927 1.409 . S
C921 H913 0.930 . S
C921 C919 1.419 1_556 S
C921 C922 1.362 1_556 S
C922 H914 0.930 . S
C922 C921 1.362 1_554 S
C922 C925 1.409 . S
C923 H915 0.930 . S
C923 C924 1.355 . S
C923 C925 1.415 . S
C924 C923 1.355 . S
C924 C926 1.419 . S
C925 C920 1.425 . S
C925 C922 1.409 . S
C925 C923 1.415 . S
C926 H916 0.930 . S
C926 C924 1.419 . S
C926 C927 1.362 . S
C927 H917 0.930 . S
C927 C920 1.409 . S
C927 C926 1.362 . S
H928 C934 0.930 . S
H929 C937 0.930 . S
H930 C938 0.930 . S
H931 C939 0.930 . S
H932 C942 0.930 . S
H933 C943 0.930 . S
C934 H928 0.930 . S
C934 C935 1.355 . S
C934 C936 1.415 . S
C935 C934 1.355 . S
C935 C937 1.419 . S
C936 C934 1.415 . S
C936 C941 1.425 . S
C936 C943 1.409 . S
C937 H929 0.930 . S
C937 C935 1.419 . S
C937 C938 1.362 . S
C938 H930 0.930 . S
C938 C937 1.362 . S
C938 C941 1.409 . S
C939 H931 0.930 . S
C939 C940 1.355 . S
C939 C941 1.415 . S
C940 C939 1.355 . S
C940 C942 1.419 . S
C941 C936 1.425 . S
C941 C938 1.409 . S
C941 C939 1.415 . S
C942 H932 0.930 . S
C942 C940 1.419 . S
C942 C943 1.362 . S
C943 H933 0.930 . S
C943 C936 1.409 . S
C943 C942 1.362 . S
H944 C950 0.930 . S
H945 C953 0.930 . S
H946 C954 0.930 . S
H947 C955 0.930 . S
H948 C958 0.930 . S
H949 C959 0.930 . S
C950 H944 0.930 . S
C950 C951 1.355 . S
C950 C952 1.415 . S
C951 C950 1.355 . S
C951 C953 1.419 . S
C952 C950 1.415 . S
C952 C957 1.425 . S
C952 C959 1.409 . S
C953 H945 0.930 . S
C953 C951 1.419 . S
C953 C954 1.362 . S
C954 H946 0.930 . S
C954 C953 1.362 . S
C954 C957 1.409 . S
C955 H947 0.930 . S
C955 C956 1.355 . S
C955 C957 1.415 . S
C956 C955 1.355 . S
C956 C958 1.419 . S
C957 C952 1.425 . S
C957 C954 1.409 . S
C957 C955 1.415 . S
C958 H948 0.930 . S
C958 C956 1.419 . S
C958 C959 1.362 . S
C959 H949 0.930 . S
C959 C952 1.409 . S
C959 C958 1.362 . S
H960 C966 0.930 . S
H961 C969 0.930 . S
H962 C970 0.930 . S
H963 C971 0.930 . S
H964 C974 0.930 . S
H965 C975 0.930 . S
C966 H960 0.930 . S
C966 C967 1.355 . S
C966 C968 1.415 . S
C967 C966 1.355 . S
C967 C969 1.419 . S
C968 C966 1.415 . S
C968 C973 1.425 . S
C968 C975 1.409 . S
C969 H961 0.930 . S
C969 C967 1.419 . S
C969 C970 1.362 . S
C970 H962 0.930 . S
C970 C969 1.362 . S
C970 C973 1.409 . S
C971 H963 0.930 . S
C971 C972 1.355 . S
C971 C973 1.415 . S
C972 C971 1.355 . S
C972 C974 1.419 . S
C973 C968 1.425 . S
C973 C970 1.409 . S
C973 C971 1.415 . S
C974 H964 0.930 . S
C974 C972 1.419 . S
C974 C975 1.362 . S
C975 H965 0.930 . S
C975 C968 1.409 . S
C975 C974 1.362 . S
H976 C982 0.930 . S
H977 C985 0.930 . S
H978 C986 0.930 . S
H979 C987 0.930 . S
H980 C990 0.930 . S
H981 C991 0.930 . S
C982 H976 0.930 . S
C982 C983 1.355 . S
C982 C984 1.415 . S
C983 C982 1.355 . S
C983 C985 1.419 . S
C984 C982 1.415 . S
C984 C989 1.425 . S
C984 C991 1.409 . S
C985 H977 0.930 . S
C985 C983 1.419 . S
C985 C986 1.362 . S
C986 H978 0.930 . S
C986 C985 1.362 . S
C986 C989 1.409 . S
C987 H979 0.930 . S
C987 C988 1.355 . S
C987 C989 1.415 . S
C988 C987 1.355 . S
C988 C990 1.419 . S
C989 C984 1.425 . S
C989 C986 1.409 . S
C989 C987 1.415 . S
C990 H980 0.930 . S
C990 C988 1.419 . S
C990 C991 1.362 . S
C991 H981 0.930 . S
C991 C984 1.409 . S
C991 C990 1.362 . S
H992 C998 0.930 . S
H993 C1001 0.930 . S
H994 C1002 0.930 . S
H995 C1003 0.930 . S
H996 C1006 0.930 . S
H997 C1007 0.930 . S
C998 H992 0.930 . S
C998 C999 1.355 . S
C998 C1000 1.415 . S
C999 C998 1.355 . S
C999 C1001 1.419 . S
C1000 C998 1.415 . S
C1000 C1005 1.425 . S
C1000 C1007 1.409 . S
C1001 H993 0.930 . S
C1001 C999 1.419 . S
C1001 C1002 1.362 . S
C1002 H994 0.930 . S
C1002 C1001 1.362 . S
C1002 C1005 1.409 . S
C1003 H995 0.930 . S
C1003 C1004 1.355 . S
C1003 C1005 1.415 . S
C1004 C1003 1.355 . S
C1004 C1006 1.419 . S
C1005 C1000 1.425 . S
C1005 C1002 1.409 . S
C1005 C1003 1.415 . S
C1006 H996 0.930 . S
C1006 C1004 1.419 . S
C1006 C1007 1.362 . S
C1007 H997 0.930 . S
C1007 C1000 1.409 . S
C1007 C1006 1.362 . S
H1008 C1014 0.930 . S
H1009 C1017 0.930 . S
H1010 C1018 0.930 . S
H1011 C1019 0.930 . S
H1012 C1022 0.930 . S
H1013 C1023 0.930 . S
C1014 H1008 0.930 . S
C1014 C1015 1.355 . S
C1014 C1016 1.415 . S
C1015 C1014 1.355 . S
C1015 C1017 1.419 . S
C1016 C1014 1.415 . S
C1016 C1021 1.425 . S
C1016 C1023 1.409 . S
C1017 H1009 0.930 . S
C1017 C1015 1.419 . S
C1017 C1018 1.362 . S
C1018 H1010 0.930 . S
C1018 C1017 1.362 . S
C1018 C1021 1.409 . S
C1019 H1011 0.930 . S
C1019 C1020 1.355 . S
C1019 C1021 1.415 . S
C1020 C1019 1.355 . S
C1020 C1022 1.419 . S
C1021 C1016 1.425 . S
C1021 C1018 1.409 . S
C1021 C1019 1.415 . S
C1022 H1012 0.930 . S
C1022 C1020 1.419 . S
C1022 C1023 1.362 . S
C1023 H1013 0.930 . S
C1023 C1016 1.409 . S
C1023 C1022 1.362 . S
H1024 C1030 0.930 . S
H1025 C1033 0.930 . S
H1026 C1034 0.930 . S
H1027 C1035 0.930 . S
H1028 C1038 0.930 . S
H1029 C1039 0.930 . S
C1030 H1024 0.930 . S
C1030 C1031 1.355 . S
C1030 C1032 1.415 . S
C1031 C1030 1.355 . S
C1031 C1033 1.419 . S
C1032 C1030 1.415 . S
C1032 C1037 1.425 . S
C1032 C1039 1.409 . S
C1033 H1025 0.930 . S
C1033 C1031 1.419 . S
C1033 C1034 1.362 . S
C1034 H1026 0.930 . S
C1034 C1033 1.362 . S
C1034 C1037 1.409 . S
C1035 H1027 0.930 . S
C1035 C1036 1.355 . S
C1035 C1037 1.415 . S
C1036 C1035 1.355 . S
C1036 C1038 1.419 . S
C1037 C1032 1.425 . S
C1037 C1034 1.409 . S
C1037 C1035 1.415 . S
C1038 H1028 0.930 . S
C1038 C1036 1.419 . S
C1038 C1039 1.362 . S
C1039 H1029 0.930 . S
C1039 C1032 1.409 . S
C1039 C1038 1.362 . S
H1040 C1046 0.930 . S
H1041 C1049 0.930 . S
H1042 C1050 0.930 . S
H1043 C1051 0.930 . S
H1044 C1054 0.930 . S
H1045 C1055 0.930 . S
C1046 H1040 0.930 . S
C1046 C1047 1.355 . S
C1046 C1048 1.415 . S
C1047 C1046 1.355 . S
C1047 C1049 1.419 . S
C1048 C1046 1.415 . S
C1048 C1053 1.425 . S
C1048 C1055 1.409 . S
C1049 H1041 0.930 . S
C1049 C1047 1.419 . S
C1049 C1050 1.362 . S
C1050 H1042 0.930 . S
C1050 C1049 1.362 . S
C1050 C1053 1.409 . S
C1051 H1043 0.930 . S
C1051 C1052 1.355 . S
C1051 C1053 1.415 . S
C1052 C1051 1.355 . S
C1052 C1054 1.419 . S
C1053 C1048 1.425 . S
C1053 C1050 1.409 . S
C1053 C1051 1.415 . S
C1054 H1044 0.930 . S
C1054 C1052 1.419 . S
C1054 C1055 1.362 . S
C1055 H1045 0.930 . S
C1055 C1048 1.409 . S
C1055 C1054 1.362 . S
H1056 C1062 0.930 . S
H1057 C1065 0.930 . S
H1058 C1066 0.930 . S
H1059 C1067 0.930 . S
H1060 C1070 0.930 . S
H1061 C1071 0.930 . S
C1062 H1056 0.930 . S
C1062 C1063 1.355 . S
C1062 C1064 1.415 . S
C1063 C1062 1.355 . S
C1063 C1065 1.419 . S
C1064 C1062 1.415 . S
C1064 C1069 1.425 . S
C1064 C1071 1.409 . S
C1065 H1057 0.930 . S
C1065 C1063 1.419 . S
C1065 C1066 1.362 . S
C1066 H1058 0.930 . S
C1066 C1065 1.362 . S
C1066 C1069 1.409 . S
C1067 H1059 0.930 . S
C1067 C1068 1.355 . S
C1067 C1069 1.415 . S
C1068 C1067 1.355 . S
C1068 C1070 1.419 . S
C1069 C1064 1.425 . S
C1069 C1066 1.409 . S
C1069 C1067 1.415 . S
C1070 H1060 0.930 . S
C1070 C1068 1.419 . S
C1070 C1071 1.362 . S
C1071 H1061 0.930 . S
C1071 C1064 1.409 . S
C1071 C1070 1.362 . S
H1072 C1078 0.930 . S
H1073 C1081 0.930 . S
H1074 C1082 0.930 . S
H1075 C1083 0.930 . S
H1076 C1086 0.930 . S
H1077 C1087 0.930 . S
C1078 H1072 0.930 . S
C1078 C1079 1.355 . S
C1078 C1080 1.415 . S
C1079 C1078 1.355 . S
C1079 C1081 1.419 . S
C1080 C1078 1.415 . S
C1080 C1085 1.425 . S
C1080 C1087 1.409 . S
C1081 H1073 0.930 . S
C1081 C1079 1.419 . S
C1081 C1082 1.362 . S
C1082 H1074 0.930 . S
C1082 C1081 1.362 . S
C1082 C1085 1.409 . S
C1083 H1075 0.930 . S
C1083 C1084 1.355 . S
C1083 C1085 1.415 . S
C1084 C1083 1.355 . S
C1084 C1086 1.419 . S
C1085 C1080 1.425 . S
C1085 C1082 1.409 . S
C1085 C1083 1.415 . S
C1086 H1076 0.930 . S
C1086 C1084 1.419 . S
C1086 C1087 1.362 . S
C1087 H1077 0.930 . S
C1087 C1080 1.409 . S
C1087 C1086 1.362 . S
H1088 C1094 0.930 . S
H1089 C1097 0.930 . S
H1090 C1098 0.930 . S
H1091 C1099 0.930 . S
H1092 C1102 0.930 . S
H1093 C1103 0.930 . S
C1094 H1088 0.930 . S
C1094 C1095 1.355 . S
C1094 C1096 1.415 . S
C1095 C1094 1.355 . S
C1095 C1097 1.419 . S
C1096 C1094 1.415 . S
C1096 C1101 1.425 . S
C1096 C1103 1.409 . S
C1097 H1089 0.930 . S
C1097 C1095 1.419 . S
C1097 C1098 1.362 . S
C1098 H1090 0.930 . S
C1098 C1097 1.362 . S
C1098 C1101 1.409 . S
C1099 H1091 0.930 . S
C1099 C1100 1.355 . S
C1099 C1101 1.415 . S
C1100 C1099 1.355 . S
C1100 C1102 1.419 . S
C1101 C1096 1.425 . S
C1101 C1098 1.409 . S
C1101 C1099 1.415 . S
C1102 H1092 0.930 . S
C1102 C1100 1.419 . S
C1102 C1103 1.362 . S
C1103 H1093 0.930 . S
C1103 C1096 1.409 . S
C1103 C1102 1.362 . S
H1104 C1110 0.930 . S
H1105 C1113 0.930 . S
H1106 C1114 0.930 . S
H1107 C1115 0.930 . S
H1108 C1118 0.930 . S
H1109 C1119 0.930 . S
C1110 H1104 0.930 . S
C1110 C1111 1.355 . S
C1110 C1112 1.415 . S
C1111 C1110 1.355 . S
C1111 C1113 1.419 . S
C1112 C1110 1.415 . S
C1112 C1117 1.425 . S
C1112 C1119 1.409 . S
C1113 H1105 0.930 . S
C1113 C1111 1.419 . S
C1113 C1114 1.362 . S
C1114 H1106 0.930 . S
C1114 C1113 1.362 . S
C1114 C1117 1.409 . S
C1115 H1107 0.930 . S
C1115 C1116 1.355 . S
C1115 C1117 1.415 . S
C1116 C1115 1.355 . S
C1116 C1118 1.419 . S
C1117 C1112 1.425 . S
C1117 C1114 1.409 . S
C1117 C1115 1.415 . S
C1118 H1108 0.930 . S
C1118 C1116 1.419 . S
C1118 C1119 1.362 . S
C1119 H1109 0.930 . S
C1119 C1112 1.409 . S
C1119 C1118 1.362 . S
H1120 C1126 0.930 . S
H1121 C1129 0.930 . S
H1122 C1130 0.930 . S
H1123 C1131 0.930 . S
H1124 C1134 0.930 . S
H1125 C1135 0.930 . S
C1126 H1120 0.930 . S
C1126 C1127 1.355 1_554 S
C1126 C1128 1.415 . S
C1127 C1126 1.355 1_556 S
C1127 C1129 1.419 . S
C1128 C1126 1.415 . S
C1128 C1133 1.425 . S
C1128 C1135 1.409 . S
C1129 H1121 0.930 . S
C1129 C1127 1.419 . S
C1129 C1130 1.362 1_556 S
C1130 H1122 0.930 . S
C1130 C1129 1.362 1_554 S
C1130 C1133 1.409 . S
C1131 H1123 0.930 . S
C1131 C1132 1.355 . S
C1131 C1133 1.415 . S
C1132 C1131 1.355 . S
C1132 C1134 1.419 . S
C1133 C1128 1.425 . S
C1133 C1130 1.409 . S
C1133 C1131 1.415 . S
C1134 H1124 0.930 . S
C1134 C1132 1.419 . S
C1134 C1135 1.362 . S
C1135 H1125 0.930 . S
C1135 C1128 1.409 . S
C1135 C1134 1.362 . S
H1136 C1142 0.930 . S
H1137 C1145 0.930 . S
H1138 C1146 0.930 . S
H1139 C1147 0.930 . S
H1140 C1150 0.930 . S
H1141 C1151 0.930 . S
C1142 H1136 0.930 . S
C1142 C1143 1.355 . S
C1142 C1144 1.415 . S
C1143 C1142 1.355 . S
C1143 C1145 1.419 . S
C1144 C1142 1.415 . S
C1144 C1149 1.425 . S
C1144 C1151 1.409 . S
C1145 H1137 0.930 . S
C1145 C1143 1.419 . S
C1145 C1146 1.362 . S
C1146 H1138 0.930 . S
C1146 C1145 1.362 . S
C1146 C1149 1.409 . S
C1147 H1139 0.930 . S
C1147 C1148 1.355 1_556 S
C1147 C1149 1.415 . S
C1148 C1147 1.355 1_554 S
C1148 C1150 1.419 . S
C1149 C1144 1.425 . S
C1149 C1146 1.409 . S
C1149 C1147 1.415 . S
C1150 H1140 0.930 . S
C1150 C1148 1.419 . S
C1150 C1151 1.362 1_554 S
C1151 H1141 0.930 . S
C1151 C1144 1.409 . S
C1151 C1150 1.362 1_556 S
H1152 C1158 0.930 . S
H1153 C1161 0.930 . S
H1154 C1162 0.930 . S
H1155 C1163 0.930 1_556 S
H1156 C1166 0.930 . S
H1157 C1167 0.930 . S
C1158 H1152 0.930 . S
C1158 C1159 1.355 . S
C1158 C1160 1.415 . S
C1159 C1158 1.355 . S
C1159 C1161 1.419 . S
C1160 C1158 1.415 . S
C1160 C1165 1.425 . S
C1160 C1167 1.409 . S
C1161 H1153 0.930 . S
C1161 C1159 1.419 . S
C1161 C1162 1.362 . S
C1162 H1154 0.930 . S
C1162 C1161 1.362 . S
C1162 C1165 1.409 . S
C1163 H1155 0.930 1_554 S
C1163 C1164 1.355 1_554 S
C1163 C1165 1.415 . S
C1164 C1163 1.355 1_556 S
C1164 C1166 1.419 . S
C1165 C1160 1.425 . S
C1165 C1162 1.409 . S
C1165 C1163 1.415 . S
C1166 H1156 0.930 . S
C1166 C1164 1.419 . S
C1166 C1167 1.362 1_556 S
C1167 H1157 0.930 . S
C1167 C1160 1.409 . S
C1167 C1166 1.362 1_554 S
H1168 C1174 0.930 . S
H1169 C1177 0.930 1_554 S
H1170 C1178 0.930 . S
H1171 C1179 0.930 . S
H1172 C1182 0.930 . S
H1173 C1183 0.930 . S
C1174 H1168 0.930 . S
C1174 C1175 1.355 . S
C1174 C1176 1.415 1_554 S
C1175 C1174 1.355 . S
C1175 C1177 1.419 1_554 S
C1176 C1174 1.415 1_556 S
C1176 C1181 1.425 . S
C1176 C1183 1.409 . S
C1177 H1169 0.930 1_556 S
C1177 C1175 1.419 1_556 S
C1177 C1178 1.362 . S
C1178 H1170 0.930 . S
C1178 C1177 1.362 . S
C1178 C1181 1.409 . S
C1179 H1171 0.930 . S
C1179 C1180 1.355 . S
C1179 C1181 1.415 . S
C1180 C1179 1.355 . S
C1180 C1182 1.419 . S
C1181 C1176 1.425 . S
C1181 C1178 1.409 . S
C1181 C1179 1.415 . S
C1182 H1172 0.930 . S
C1182 C1180 1.419 . S
C1182 C1183 1.362 . S
C1183 H1173 0.930 . S
C1183 C1176 1.409 . S
C1183 C1182 1.362 . S
H1184 C1190 0.930 . S
H1185 C1193 0.930 . S
H1186 C1194 0.930 . S
H1187 C1195 0.930 . S
H1188 C1198 0.930 . S
H1189 C1199 0.930 . S
C1190 H1184 0.930 . S
C1190 C1191 1.355 . S
C1190 C1192 1.415 . S
C1191 C1190 1.355 . S
C1191 C1193 1.419 . S
C1192 C1190 1.415 . S
C1192 C1197 1.425 . S
C1192 C1199 1.409 . S
C1193 H1185 0.930 . S
C1193 C1191 1.419 . S
C1193 C1194 1.362 . S
C1194 H1186 0.930 . S
C1194 C1193 1.362 . S
C1194 C1197 1.409 . S
C1195 H1187 0.930 . S
C1195 C1196 1.355 . S
C1195 C1197 1.415 1_556 S
C1196 C1195 1.355 . S
C1196 C1198 1.419 . S
C1197 C1192 1.425 . S
C1197 C1194 1.409 . S
C1197 C1195 1.415 1_554 S
C1198 H1188 0.930 . S
C1198 C1196 1.419 . S
C1198 C1199 1.362 1_556 S
C1199 H1189 0.930 . S
C1199 C1192 1.409 . S
C1199 C1198 1.362 1_554 S
H1200 C1206 0.930 . S
H1201 C1209 0.930 . S
H1202 C1210 0.930 . S
H1203 C1211 0.930 . S
H1204 C1214 0.930 . S
H1205 C1215 0.930 . S
C1206 H1200 0.930 . S
C1206 C1207 1.355 1_556 S
C1206 C1208 1.415 . S
C1207 C1206 1.355 1_554 S
C1207 C1209 1.419 . S
C1208 C1206 1.415 . S
C1208 C1213 1.425 . S
C1208 C1215 1.409 . S
C1209 H1201 0.930 . S
C1209 C1207 1.419 . S
C1209 C1210 1.362 1_554 S
C1210 H1202 0.930 . S
C1210 C1209 1.362 1_556 S
C1210 C1213 1.409 . S
C1211 H1203 0.930 . S
C1211 C1212 1.355 . S
C1211 C1213 1.415 . S
C1212 C1211 1.355 . S
C1212 C1214 1.419 . S
C1213 C1208 1.425 . S
C1213 C1210 1.409 . S
C1213 C1211 1.415 . S
C1214 H1204 0.930 . S
C1214 C1212 1.419 . S
C1214 C1215 1.362 . S
C1215 H1205 0.930 . S
C1215 C1208 1.409 . S
C1215 C1214 1.362 . S
H1216 C1222 0.930 . S
H1217 C1225 0.930 . S
H1218 C1226 0.930 . S
H1219 C1227 0.930 . S
H1220 C1230 0.930 . S
H1221 C1231 0.930 . S
C1222 H1216 0.930 . S
C1222 C1223 1.355 . S
C1222 C1224 1.415 1_556 S
C1223 C1222 1.355 . S
C1223 C1225 1.419 . S
C1224 C1222 1.415 1_554 S
C1224 C1229 1.425 . S
C1224 C1231 1.409 . S
C1225 H1217 0.930 . S
C1225 C1223 1.419 . S
C1225 C1226 1.362 1_556 S
C1226 H1218 0.930 . S
C1226 C1225 1.362 1_554 S
C1226 C1229 1.409 . S
C1227 H1219 0.930 . S
C1227 C1228 1.355 . S
C1227 C1229 1.415 . S
C1228 C1227 1.355 . S
C1228 C1230 1.419 . S
C1229 C1224 1.425 . S
C1229 C1226 1.409 . S
C1229 C1227 1.415 . S
C1230 H1220 0.930 . S
C1230 C1228 1.419 . S
C1230 C1231 1.362 . S
C1231 H1221 0.930 . S
C1231 C1224 1.409 . S
C1231 C1230 1.362 . S
H1232 C1238 0.930 . S
H1233 C1241 0.930 . S
H1234 C1242 0.930 . S
H1235 C1243 0.932 . S
H1236 C1246 0.930 . S
H1237 C1247 0.930 . S
C1238 H1232 0.930 . S
C1238 C1239 1.355 . S
C1238 C1240 1.415 . S
C1239 C1238 1.355 . S
C1239 C1241 1.419 . S
C1240 C1238 1.415 . S
C1240 C1245 1.425 . S
C1240 C1247 1.409 . S
C1241 H1233 0.930 . S
C1241 C1239 1.419 . S
C1241 C1242 1.362 . S
C1242 H1234 0.930 . S
C1242 C1241 1.362 . S
C1242 C1245 1.409 . S
C1243 H1235 0.932 . S
C1243 C1244 1.355 1_556 S
C1243 C1245 1.415 . S
C1244 C1243 1.355 1_554 S
C1244 C1246 1.419 . S
C1245 C1240 1.425 . S
C1245 C1242 1.409 . S
C1245 C1243 1.415 . S
C1246 H1236 0.930 . S
C1246 C1244 1.419 . S
C1246 C1247 1.362 1_554 S
C1247 H1237 0.930 . S
C1247 C1240 1.409 . S
C1247 C1246 1.362 1_556 S
C487 C357 2.189 . S
C492 C1 2.182 . S
C503 N254 1.451 1_455 S
C508 C40 1.499 . S
C519 C61 1.051 . S
C524 N276 1.072 1_565 S
C535 C91 1.544 . S
C540 N314 1.528 . S
C551 C121 2.188 . S
C556 C177 2.186 . S
C567 N194 1.532 . S
C572 C151 1.562 . S
C583 C181 1.072 . S
C588 N216 1.046 . S
C599 N134 1.442 1_556 S
C604 C220 1.499 . S
C615 C117 2.185 . S
C620 C241 2.188 . S
C631 C280 1.499 . S
C636 N14 1.442 . S
C647 N36 1.069 . S
C652 C301 1.058 . S
C663 N74 1.543 . S
C668 C331 1.555 . S
C679 C361 2.185 . S
C684 C417 2.189 . S
C695 N434 1.551 . S
C700 C391 1.521 . S
C711 N456 1.075 1_545 S
C716 C421 1.030 . S
C727 C460 1.499 . S
C732 N374 1.451 1_455 S
C743 C10 1.976 . S
C748 C130 1.974 . S
C759 C160 1.794 . S
C764 C31 1.764 . S
C775 C70 0.871 . S
C780 C190 0.831 . S
C791 C100 1.805 . S
C796 C211 1.790 . S
C807 C250 1.974 . S
C812 C370 1.955 . S
C823 C400 1.796 . S
C828 C271 1.765 . S
C839 C310 0.845 . S
C844 C430 0.877 . S
C855 C340 1.813 . S
C860 C451 1.803 . S
C871 N426 1.542 . S
C876 N6 1.589 1_556 S
C887 N44 1.343 . S
C892 N464 1.356 . S
C903 N66 1.594 1_556 S
C908 N366 1.589 . S
C919 C106 2.454 1_554 S
C924 C406 2.451 . S
C935 N126 1.588 . S
C940 N306 1.543 . S
C951 C166 2.456 . S
C956 C346 2.455 . S
C967 N186 1.530 . S
C972 N246 1.614 . S
C983 N284 1.346 . S
C988 N224 1.403 . S
C999 C27 1.880 . S
C1004 C16 1.880 . S
C1015 C46 1.911 . S
C1020 C57 1.911 . S
C1031 C87 1.885 . S
C1036 C76 1.885 . S
C1047 N96 1.040 . S
C1052 N104 1.040 . S
C1063 C136 1.883 . S
C1068 C147 1.883 . S
C1079 N164 1.045 . S
C1084 N156 1.045 . S
C1095 C207 1.883 . S
C1100 C196 1.883 . S
C1111 C237 1.909 . S
C1116 C226 1.909 . S
C1127 C267 1.874 . S
C1132 C256 1.874 . S
C1143 C297 1.893 . S
C1148 C286 1.893 . S
C1159 C316 1.893 . S
C1164 C327 1.893 . S
C1175 N344 1.009 1_554 S
C1180 N336 1.009 . S
C1191 C387 1.871 . S
C1196 C376 1.871 . S
C1207 N396 1.011 1_554 S
C1212 N404 1.011 . S
C1223 C436 1.905 . S
C1228 C447 1.905 . S
C1239 C466 1.888 . S
C1244 C477 1.888 . S
