# Generated by pormake.
# Topology ukj, (4)-cn, num edge types: 1
# Building blocks:
#     Node 0, Type 0, BuildingBlock: QUQFOY_clean_sbu_1, # of connection points: 4
#     Node 1, Type 0, BuildingBlock: QUQFOY_clean_sbu_1, # of connection points: 4
#     Node 2, Type 0, BuildingBlock: QUQFOY_clean_sbu_1, # of connection points: 4
#     Node 3, Type 0, BuildingBlock: QUQFOY_clean_sbu_1, # of connection points: 4
#     Node 4, Type 0, BuildingBlock: QUQFOY_clean_sbu_1, # of connection points: 4
#     Node 5, Type 0, BuildingBlock: QUQFOY_clean_sbu_1, # of connection points: 4
#     Node 6, Type 0, BuildingBlock: QUQFOY_clean_sbu_1, # of connection points: 4
#     Node 7, Type 0, BuildingBlock: QUQFOY_clean_sbu_1, # of connection points: 4
#     Node 8, Type 0, BuildingBlock: QUQFOY_clean_sbu_1, # of connection points: 4
#     Node 9, Type 0, BuildingBlock: QUQFOY_clean_sbu_1, # of connection points: 4
#     Node 10, Type 0, BuildingBlock: QUQFOY_clean_sbu_1, # of connection points: 4
#     Node 11, Type 0, BuildingBlock: QUQFOY_clean_sbu_1, # of connection points: 4
#     Node 12, Type 0, BuildingBlock: QUQFOY_clean_sbu_1, # of connection points: 4
#     Node 13, Type 0, BuildingBlock: QUQFOY_clean_sbu_1, # of connection points: 4
#     Node 14, Type 0, BuildingBlock: QUQFOY_clean_sbu_1, # of connection points: 4
#     Node 15, Type 0, BuildingBlock: QUQFOY_clean_sbu_1, # of connection points: 4
#     Node 16, Type 0, BuildingBlock: QUQFOY_clean_sbu_1, # of connection points: 4
#     Node 17, Type 0, BuildingBlock: QUQFOY_clean_sbu_1, # of connection points: 4
#     Node 18, Type 0, BuildingBlock: QUQFOY_clean_sbu_1, # of connection points: 4
#     Node 19, Type 0, BuildingBlock: QUQFOY_clean_sbu_1, # of connection points: 4
#     Node 20, Type 0, BuildingBlock: QUQFOY_clean_sbu_1, # of connection points: 4
#     Node 21, Type 0, BuildingBlock: QUQFOY_clean_sbu_1, # of connection points: 4
#     Node 22, Type 0, BuildingBlock: QUQFOY_clean_sbu_1, # of connection points: 4
#     Node 23, Type 0, BuildingBlock: QUQFOY_clean_sbu_1, # of connection points: 4
#     Node 24, Type 0, BuildingBlock: QUQFOY_clean_sbu_1, # of connection points: 4
#     Node 25, Type 0, BuildingBlock: QUQFOY_clean_sbu_1, # of connection points: 4
#     Node 26, Type 0, BuildingBlock: QUQFOY_clean_sbu_1, # of connection points: 4
#     Node 27, Type 0, BuildingBlock: QUQFOY_clean_sbu_1, # of connection points: 4
#     Node 28, Type 0, BuildingBlock: QUQFOY_clean_sbu_1, # of connection points: 4
#     Node 29, Type 0, BuildingBlock: QUQFOY_clean_sbu_1, # of connection points: 4
#     Node 30, Type 0, BuildingBlock: QUQFOY_clean_sbu_1, # of connection points: 4
#     Node 31, Type 0, BuildingBlock: QUQFOY_clean_sbu_1, # of connection points: 4
#     Edge 32, Type (0, 0), BuildingBlock: OJICUG_clean_linker_0, # of connection points: 2
#     Edge 33, Type (0, 0), BuildingBlock: OJICUG_clean_linker_0, # of connection points: 2
#     Edge 34, Type (0, 0), BuildingBlock: OJICUG_clean_linker_0, # of connection points: 2
#     Edge 35, Type (0, 0), BuildingBlock: OJICUG_clean_linker_0, # of connection points: 2
#     Edge 36, Type (0, 0), BuildingBlock: OJICUG_clean_linker_0, # of connection points: 2
#     Edge 37, Type (0, 0), BuildingBlock: OJICUG_clean_linker_0, # of connection points: 2
#     Edge 38, Type (0, 0), BuildingBlock: OJICUG_clean_linker_0, # of connection points: 2
#     Edge 39, Type (0, 0), BuildingBlock: OJICUG_clean_linker_0, # of connection points: 2
#     Edge 40, Type (0, 0), BuildingBlock: OJICUG_clean_linker_0, # of connection points: 2
#     Edge 41, Type (0, 0), BuildingBlock: OJICUG_clean_linker_0, # of connection points: 2
#     Edge 42, Type (0, 0), BuildingBlock: OJICUG_clean_linker_0, # of connection points: 2
#     Edge 43, Type (0, 0), BuildingBlock: OJICUG_clean_linker_0, # of connection points: 2
#     Edge 44, Type (0, 0), BuildingBlock: OJICUG_clean_linker_0, # of connection points: 2
#     Edge 45, Type (0, 0), BuildingBlock: OJICUG_clean_linker_0, # of connection points: 2
#     Edge 46, Type (0, 0), BuildingBlock: OJICUG_clean_linker_0, # of connection points: 2
#     Edge 47, Type (0, 0), BuildingBlock: OJICUG_clean_linker_0, # of connection points: 2
#     Edge 48, Type (0, 0), BuildingBlock: OJICUG_clean_linker_0, # of connection points: 2
#     Edge 49, Type (0, 0), BuildingBlock: OJICUG_clean_linker_0, # of connection points: 2
#     Edge 50, Type (0, 0), BuildingBlock: OJICUG_clean_linker_0, # of connection points: 2
#     Edge 51, Type (0, 0), BuildingBlock: OJICUG_clean_linker_0, # of connection points: 2
#     Edge 52, Type (0, 0), BuildingBlock: OJICUG_clean_linker_0, # of connection points: 2
#     Edge 53, Type (0, 0), BuildingBlock: OJICUG_clean_linker_0, # of connection points: 2
#     Edge 54, Type (0, 0), BuildingBlock: OJICUG_clean_linker_0, # of connection points: 2
#     Edge 55, Type (0, 0), BuildingBlock: OJICUG_clean_linker_0, # of connection points: 2
#     Edge 56, Type (0, 0), BuildingBlock: OJICUG_clean_linker_0, # of connection points: 2
#     Edge 57, Type (0, 0), BuildingBlock: OJICUG_clean_linker_0, # of connection points: 2
#     Edge 58, Type (0, 0), BuildingBlock: OJICUG_clean_linker_0, # of connection points: 2
#     Edge 59, Type (0, 0), BuildingBlock: OJICUG_clean_linker_0, # of connection points: 2
#     Edge 60, Type (0, 0), BuildingBlock: OJICUG_clean_linker_0, # of connection points: 2
#     Edge 61, Type (0, 0), BuildingBlock: OJICUG_clean_linker_0, # of connection points: 2
#     Edge 62, Type (0, 0), BuildingBlock: OJICUG_clean_linker_0, # of connection points: 2
#     Edge 63, Type (0, 0), BuildingBlock: OJICUG_clean_linker_0, # of connection points: 2
#     Edge 64, Type (0, 0), BuildingBlock: OJICUG_clean_linker_0, # of connection points: 2
#     Edge 65, Type (0, 0), BuildingBlock: OJICUG_clean_linker_0, # of connection points: 2
#     Edge 66, Type (0, 0), BuildingBlock: OJICUG_clean_linker_0, # of connection points: 2
#     Edge 67, Type (0, 0), BuildingBlock: OJICUG_clean_linker_0, # of connection points: 2
#     Edge 68, Type (0, 0), BuildingBlock: OJICUG_clean_linker_0, # of connection points: 2
#     Edge 69, Type (0, 0), BuildingBlock: OJICUG_clean_linker_0, # of connection points: 2
#     Edge 70, Type (0, 0), BuildingBlock: OJICUG_clean_linker_0, # of connection points: 2
#     Edge 71, Type (0, 0), BuildingBlock: OJICUG_clean_linker_0, # of connection points: 2
#     Edge 72, Type (0, 0), BuildingBlock: OJICUG_clean_linker_0, # of connection points: 2
#     Edge 73, Type (0, 0), BuildingBlock: OJICUG_clean_linker_0, # of connection points: 2
#     Edge 74, Type (0, 0), BuildingBlock: OJICUG_clean_linker_0, # of connection points: 2
#     Edge 75, Type (0, 0), BuildingBlock: OJICUG_clean_linker_0, # of connection points: 2
#     Edge 76, Type (0, 0), BuildingBlock: OJICUG_clean_linker_0, # of connection points: 2
#     Edge 77, Type (0, 0), BuildingBlock: OJICUG_clean_linker_0, # of connection points: 2
#     Edge 78, Type (0, 0), BuildingBlock: OJICUG_clean_linker_0, # of connection points: 2
#     Edge 79, Type (0, 0), BuildingBlock: OJICUG_clean_linker_0, # of connection points: 2
#     Edge 80, Type (0, 0), BuildingBlock: OJICUG_clean_linker_0, # of connection points: 2
#     Edge 81, Type (0, 0), BuildingBlock: OJICUG_clean_linker_0, # of connection points: 2
#     Edge 82, Type (0, 0), BuildingBlock: OJICUG_clean_linker_0, # of connection points: 2
#     Edge 83, Type (0, 0), BuildingBlock: OJICUG_clean_linker_0, # of connection points: 2
#     Edge 84, Type (0, 0), BuildingBlock: OJICUG_clean_linker_0, # of connection points: 2
#     Edge 85, Type (0, 0), BuildingBlock: OJICUG_clean_linker_0, # of connection points: 2
#     Edge 86, Type (0, 0), BuildingBlock: OJICUG_clean_linker_0, # of connection points: 2
#     Edge 87, Type (0, 0), BuildingBlock: OJICUG_clean_linker_0, # of connection points: 2
#     Edge 88, Type (0, 0), BuildingBlock: OJICUG_clean_linker_0, # of connection points: 2
#     Edge 89, Type (0, 0), BuildingBlock: OJICUG_clean_linker_0, # of connection points: 2
#     Edge 90, Type (0, 0), BuildingBlock: OJICUG_clean_linker_0, # of connection points: 2
#     Edge 91, Type (0, 0), BuildingBlock: OJICUG_clean_linker_0, # of connection points: 2
#     Edge 92, Type (0, 0), BuildingBlock: OJICUG_clean_linker_0, # of connection points: 2
#     Edge 93, Type (0, 0), BuildingBlock: OJICUG_clean_linker_0, # of connection points: 2
#     Edge 94, Type (0, 0), BuildingBlock: OJICUG_clean_linker_0, # of connection points: 2
#     Edge 95, Type (0, 0), BuildingBlock: OJICUG_clean_linker_0, # of connection points: 2
# Relax obj value: 0.043
# Max RMSD: 0.114
# Mean RMSD: 0.110
data_MOF--net-ukj--node1-QUQFOY_clean_sbu_1--edge1-OJICUG_clean_linker_0
_symmetry_space_group_name_H-M    P1
_symmetry_Int_Tables_number       1
_symmetry_cell_setting            triclinic
loop_
_symmetry_equiv_pos_as_xyz
'x, y, z'
_cell_length_a     18.455486
_cell_length_b     61.63062
_cell_length_c     40.595307
_cell_angle_alpha  90.002834
_cell_angle_beta   89.99878
_cell_angle_gamma 90.025516
loop_
_atom_site_label
_atom_site_type_symbol
_atom_site_fract_x
_atom_site_fract_y
_atom_site_fract_z
_atom_type_partial_charge
O0 O 0.13167 0.37488 0.24451 0.0
Cd1 Cd 0.13125 0.36457 0.29231 0.0
Cd2 Cd 0.07612 0.4043 0.29814 0.0
O3 O 0.06093 0.40371 0.24735 0.0
O4 O 0.14162 0.33227 0.2869 0.0
O5 O 0.04216 0.34771 0.30591 0.0
C6 C 0.07472 0.33041 0.29571 0.0
C7 C -0.0025 0.40829 0.34241 0.0
C8 C 0.09745 0.39015 0.23046 0.0
C9 C 0.2278 0.39771 0.32202 0.0
O10 O 0.18038 0.41099 0.31168 0.0
O11 O 0.21589 0.37731 0.32062 0.0
O12 O 0.01401 0.42468 0.32394 0.0
O13 O 0.0185 0.38924 0.33301 0.0
O14 O 0.1013 0.95644 0.24145 0.0
Cd15 Cd 0.10708 0.96618 0.28948 0.0
Cd16 Cd 0.16253 0.92647 0.29282 0.0
O17 O 0.17381 0.92797 0.24184 0.0
O18 O 0.09783 0.99864 0.28553 0.0
O19 O 0.19825 0.98244 0.30183 0.0
C20 C 0.16559 1.00006 0.2931 0.0
C21 C 0.24356 0.92237 0.33611 0.0
C22 C 0.13482 0.94156 0.22614 0.0
C23 C 0.01331 0.93265 0.31978 0.0
O24 O 0.05937 0.91956 0.30774 0.0
O25 O 0.02544 0.95307 0.31918 0.0
O26 O 0.22676 0.90605 0.31754 0.0
O27 O 0.22159 0.94142 0.32719 0.0
O28 O 0.12918 0.95728 0.07176 0.0
Cd29 Cd 0.13038 0.96773 1.02403 0.0
Cd30 Cd 0.07514 0.92801 1.01751 0.0
O31 O 0.05884 0.92837 0.06822 0.0
O32 O 0.14096 0.99999 1.02975 0.0
O33 O 0.04189 0.98469 1.01002 0.0
C34 C 0.07435 1.00193 1.02055 0.0
C35 C -0.00292 0.92413 0.97299 0.0
C36 C 0.0947 0.94191 0.08544 0.0
C37 C 0.22751 0.93464 0.99452 0.0
O38 O 0.17965 0.92133 1.00436 0.0
O39 O 0.21576 0.95505 0.99614 0.0
O40 O 0.01338 0.90769 0.99139 0.0
O41 O 0.01806 0.94316 0.98254 0.0
O42 O 0.10369 0.3756 0.07468 0.0
Cd43 Cd 0.10784 0.3658 1.02666 0.0
Cd44 Cd 0.16354 0.40552 1.02282 0.0
O45 O 0.1759 0.40416 0.07376 0.0
O46 O 0.09802 0.33338 1.03089 0.0
O47 O 0.19831 0.34936 1.01388 0.0
C48 C 0.16555 0.33182 1.02297 0.0
C49 C 0.244 0.40959 0.97928 0.0
C50 C 0.13753 0.39054 0.08972 0.0
C51 C 0.01355 0.39934 0.99669 0.0
O52 O 0.06011 0.41244 1.00831 0.0
O53 O 0.02546 0.37892 0.9974 0.0
O54 O 0.22743 0.42592 0.99786 0.0
O55 O 0.22206 0.39055 0.98826 0.0
O56 O 0.85666 0.7083 0.82329 0.0
Cd57 Cd 0.85929 0.71816 0.77525 0.0
Cd58 Cd 0.91446 0.6784 0.77074 0.0
O59 O 0.92788 0.67954 0.82164 0.0
O60 O 0.84976 0.75056 0.77958 0.0
O61 O 0.94946 0.73458 0.76191 0.0
C62 C 0.91703 0.75211 0.77122 0.0
C63 C 0.99402 0.67398 0.7269 0.0
C64 C 0.89047 0.6932 0.83797 0.0
C65 C 0.76381 0.68476 0.74552 0.0
O66 O 0.81067 0.67159 0.75666 0.0
O67 O 0.7758 0.70517 0.74647 0.0
O68 O 0.9772 0.65777 0.74566 0.0
O69 O 0.9729 0.69312 0.73583 0.0
O70 O 0.88488 0.12621 0.82333 0.0
Cd71 Cd 0.88296 0.11602 0.77548 0.0
Cd72 Cd 0.82751 0.15574 0.77042 0.0
O73 O 0.8135 0.15492 0.82125 0.0
O74 O 0.89357 0.0837 0.78066 0.0
O75 O 0.79355 0.09917 0.76233 0.0
C76 C 0.82643 0.08186 0.77223 0.0
C77 C 0.74786 0.15935 0.72649 0.0
C78 C 0.85081 0.14135 0.83777 0.0
C79 C 0.97846 0.14932 0.74554 0.0
O80 O 0.9314 0.16254 0.75639 0.0
O81 O 0.96656 0.12891 0.74671 0.0
O82 O 0.76418 0.17586 0.74474 0.0
O83 O 0.76971 0.1404 0.73596 0.0
O84 O 0.85678 0.12634 0.99312 0.0
Cd85 Cd 0.8595 0.11624 0.041 0.0
Cd86 Cd 0.91509 0.15595 0.04569 0.0
O87 O 0.92853 0.15499 0.99482 0.0
O88 O 0.84904 0.0839 0.03602 0.0
O89 O 0.94922 0.09949 0.05396 0.0
C90 C 0.91632 0.08212 0.04426 0.0
C91 C 0.99507 0.1596 0.08948 0.0
C92 C 0.8908 0.14142 0.97849 0.0
C93 C 0.76447 0.14959 0.07102 0.0
O94 O 0.81137 0.16278 0.05992 0.0
O95 O 0.77635 0.12918 0.06998 0.0
O96 O 0.97877 0.17609 0.0712 0.0
O97 O 0.97303 0.14064 0.0801 0.0
O98 O 0.88453 0.70815 0.99331 0.0
Cd99 Cd 0.88285 0.71801 0.04135 0.0
Cd100 Cd 0.82776 0.67821 0.04611 0.0
O101 O 0.81355 0.67932 0.99526 0.0
O102 O 0.89249 0.75041 0.0369 0.0
O103 O 0.79299 0.73447 0.05496 0.0
C104 C 0.82535 0.75199 0.04546 0.0
C105 C 0.74869 0.67386 0.09016 0.0
C106 C 0.85053 0.69301 0.97879 0.0
C107 C 0.97881 0.68463 0.07083 0.0
O108 O 0.93175 0.67143 0.0599 0.0
O109 O 0.96683 0.70504 0.06985 0.0
O110 O 0.76525 0.65762 0.07141 0.0
O111 O 0.76982 0.69298 0.08114 0.0
O112 O 0.1414 0.87592 0.74154 0.0
Cd113 Cd 0.13533 0.86616 0.78955 0.0
Cd114 Cd 0.08017 0.9059 0.79284 0.0
O115 O 0.06903 0.90442 0.74185 0.0
O116 O 0.1446 0.83371 0.78556 0.0
O117 O 0.04412 0.84989 0.80182 0.0
C118 C 0.07683 0.83228 0.79309 0.0
C119 C -0.00091 0.91003 0.8361 0.0
C120 C 0.10805 0.89082 0.72619 0.0
C121 C 0.22924 0.89962 0.8199 0.0
O122 O 0.18335 0.91274 0.80781 0.0
O123 O 0.21693 0.87922 0.81933 0.0
O124 O 0.01601 0.92635 0.81755 0.0
O125 O 0.02096 0.89097 0.82717 0.0
O126 O 0.11147 0.45731 0.74456 0.0
Cd127 Cd 0.11184 0.46758 0.79239 0.0
Cd128 Cd 0.16712 0.42787 0.79815 0.0
O129 O 0.18226 0.42848 0.74737 0.0
O130 O 0.10147 0.49989 0.78707 0.0
O131 O 0.20093 0.48442 0.80603 0.0
C132 C 0.16836 0.50174 0.79589 0.0
C133 C 0.24577 0.42387 0.84241 0.0
C134 C 0.1457 0.44205 0.73049 0.0
C135 C 0.01541 0.43438 0.82204 0.0
O136 O 0.0629 0.42113 0.8117 0.0
O137 O 0.02723 0.45479 0.82067 0.0
O138 O 0.22931 0.40748 0.82392 0.0
O139 O 0.22471 0.44292 0.83304 0.0
O140 O 0.13952 0.45653 0.57472 0.0
Cd141 Cd 0.13552 0.46631 0.52668 0.0
Cd142 Cd 0.07972 0.42658 0.52285 0.0
O143 O 0.0673 0.42798 0.57378 0.0
O144 O 0.14538 0.49873 0.53087 0.0
O145 O 0.04512 0.48275 0.51383 0.0
C146 C 0.07788 0.50029 0.52292 0.0
C147 C -0.00072 0.42253 0.47929 0.0
C148 C 0.10564 0.4416 0.58975 0.0
C149 C 0.22977 0.43272 0.49676 0.0
O150 O 0.18314 0.41963 0.50837 0.0
O151 O 0.21794 0.45314 0.49747 0.0
O152 O 0.01577 0.4062 0.49788 0.0
O153 O 0.0213 0.44157 0.48828 0.0
O154 O 0.11432 0.87505 0.57189 0.0
Cd155 Cd 0.11307 0.86452 0.52419 0.0
Cd156 Cd 0.16782 0.90431 0.51755 0.0
O157 O 0.18421 0.90405 0.56824 0.0
O158 O 0.10249 0.83228 0.53009 0.0
O159 O 0.20149 0.84752 0.51019 0.0
C160 C 0.16904 0.8303 0.52084 0.0
C161 C 0.24578 0.90825 0.47301 0.0
C162 C 0.14859 0.89048 0.58551 0.0
C163 C 0.01549 0.89746 0.49462 0.0
O164 O 0.0632 0.91085 0.5044 0.0
O165 O 0.02749 0.87708 0.49631 0.0
O166 O 0.22925 0.92468 0.49138 0.0
O167 O 0.2251 0.8892 0.48259 0.0
O168 O 0.8572 0.20594 0.32304 0.0
Cd169 Cd 0.85966 0.2161 0.27519 0.0
Cd170 Cd 0.91539 0.17642 0.27031 0.0
O171 O 0.92894 0.17731 0.32117 0.0
O172 O 0.84925 0.24843 0.28022 0.0
O173 O 0.94934 0.23286 0.26218 0.0
C174 C 0.91649 0.25022 0.27193 0.0
C175 C 0.99526 0.17279 0.22648 0.0
C176 C 0.89127 0.19085 0.33759 0.0
C177 C 0.76461 0.18272 0.24516 0.0
O178 O 0.81167 0.16954 0.25614 0.0
O179 O 0.77637 0.20314 0.24628 0.0
O180 O 0.97898 0.15629 0.24476 0.0
O181 O 0.97329 0.19174 0.23588 0.0
O182 O 0.88601 0.62437 0.32325 0.0
Cd183 Cd 0.88295 0.61444 0.27526 0.0
Cd184 Cd 0.82826 0.65425 0.27076 0.0
O185 O 0.81498 0.65317 0.32167 0.0
O186 O 0.89249 0.58205 0.27977 0.0
O187 O 0.7927 0.59798 0.26212 0.0
C188 C 0.82518 0.58047 0.2715 0.0
C189 C 0.74875 0.65869 0.22693 0.0
C190 C 0.85242 0.6395 0.33796 0.0
C191 C 0.97871 0.64769 0.24541 0.0
O192 O 0.9321 0.66093 0.25661 0.0
O193 O 0.96643 0.6273 0.24635 0.0
O194 O 0.76573 0.67491 0.24565 0.0
O195 O 0.76964 0.63954 0.23591 0.0
O196 O 0.85941 0.62443 0.49323 0.0
Cd197 Cd 0.86121 0.61447 0.54122 0.0
Cd198 Cd 0.91579 0.65433 0.54608 0.0
O199 O 0.92998 0.65334 0.49523 0.0
O200 O 0.8515 0.5821 0.53654 0.0
O201 O 0.95103 0.59794 0.55473 0.0
C202 C 0.91862 0.58047 0.5451 0.0
C203 C 0.99475 0.65876 0.59014 0.0
C204 C 0.89315 0.63962 0.47873 0.0
C205 C 0.76484 0.64769 0.5708 0.0
O206 O 0.81171 0.66096 0.5599 0.0
O207 O 0.77709 0.6273 0.56977 0.0
O208 O 0.97795 0.67499 0.57142 0.0
O209 O 0.97396 0.63961 0.58108 0.0
O210 O 0.88518 0.20572 0.49285 0.0
Cd211 Cd 0.88313 0.21578 0.54075 0.0
Cd212 Cd 0.82735 0.17606 0.54553 0.0
O213 O 0.81352 0.17704 0.49469 0.0
O214 O 0.89365 0.24813 0.53583 0.0
O215 O 0.79361 0.23255 0.55394 0.0
C216 C 0.82647 0.24992 0.54421 0.0
C217 C 0.74767 0.17246 0.58945 0.0
C218 C 0.85102 0.19063 0.47829 0.0
C219 C 0.97826 0.18233 0.57055 0.0
O220 O 0.93112 0.16917 0.55957 0.0
O221 O 0.96654 0.20276 0.56951 0.0
O222 O 0.76374 0.15595 0.57114 0.0
O223 O 0.76975 0.1914 0.58003 0.0
O224 O 0.64016 0.37532 0.74207 0.0
Cd225 Cd 0.63568 0.36556 0.7901 0.0
Cd226 Cd 0.57999 0.40527 0.79382 0.0
O227 O 0.56789 0.40385 0.74287 0.0
O228 O 0.64537 0.33313 0.78599 0.0
O229 O 0.54507 0.34915 0.80284 0.0
C230 C 0.5778 0.3316 0.79385 0.0
C231 C 0.49941 0.40939 0.8373 0.0
C232 C 0.60638 0.39024 0.72696 0.0
C233 C 0.72982 0.39914 0.82013 0.0
O234 O 0.68335 0.41222 0.80841 0.0
O235 O 0.71791 0.37872 0.81945 0.0
O236 O 0.51607 0.4257 0.81868 0.0
O237 O 0.52131 0.39034 0.82838 0.0
O238 O 0.6124 0.95699 0.74512 0.0
Cd239 Cd 0.61229 0.96743 0.79286 0.0
Cd240 Cd 0.6671 0.92768 0.79905 0.0
O241 O 0.68264 0.92806 0.7483 0.0
O242 O 0.60181 0.9997 0.78716 0.0
O243 O 0.70113 0.98438 0.80654 0.0
C244 C 0.66857 1.00163 0.79614 0.0
C245 C 0.74558 0.92376 0.84338 0.0
C246 C 0.6465 0.94163 0.73125 0.0
C247 C 0.51524 0.93444 0.82262 0.0
O248 O 0.5627 0.92109 0.81251 0.0
O249 O 0.52729 0.95483 0.82105 0.0
O250 O 0.72895 0.90733 0.82502 0.0
O251 O 0.72473 0.9428 0.83386 0.0
O252 O 0.63966 0.95596 0.57535 0.0
Cd253 Cd 0.63484 0.9657 0.52731 0.0
Cd254 Cd 0.57962 0.92591 0.52378 0.0
O255 O 0.56765 0.92736 0.57472 0.0
O256 O 0.64445 0.99813 0.53141 0.0
O257 O 0.54413 0.98206 0.51465 0.0
C258 C 0.57685 0.99964 0.5236 0.0
C259 C 0.49896 0.9219 0.48032 0.0
C260 C 0.60612 0.94102 0.59054 0.0
C261 C 0.72922 0.9322 0.49728 0.0
O262 O 0.683 0.91907 0.50911 0.0
O263 O 0.71702 0.95261 0.4979 0.0
O264 O 0.51557 0.90554 0.49883 0.0
O265 O 0.52097 0.94093 0.48935 0.0
O266 O 0.6121 0.3746 0.57224 0.0
Cd267 Cd 0.61199 0.36431 0.52442 0.0
Cd268 Cd 0.66731 0.40404 0.5185 0.0
O269 O 0.68279 0.40346 0.56926 0.0
O270 O 0.60155 0.33201 0.52981 0.0
O271 O 0.70089 0.34745 0.51063 0.0
C272 C 0.66836 0.33015 0.52086 0.0
C273 C 0.74575 0.40807 0.47415 0.0
C274 C 0.64643 0.38988 0.58622 0.0
C275 C 0.51539 0.39749 0.49487 0.0
O276 O 0.56301 0.41076 0.50509 0.0
O277 O 0.52715 0.37708 0.49628 0.0
O278 O 0.72935 0.42444 0.49267 0.0
O279 O 0.72473 0.38901 0.48353 0.0
O280 O 0.3563 0.70582 0.32353 0.0
Cd281 Cd 0.35948 0.71595 0.27567 0.0
Cd282 Cd 0.415 0.67626 0.27102 0.0
O283 O 0.42814 0.67721 0.32191 0.0
O284 O 0.34913 0.74829 0.28063 0.0
O285 O 0.44939 0.73268 0.26286 0.0
C286 C 0.41648 0.75006 0.2725 0.0
C287 C 0.49511 0.67259 0.22729 0.0
C288 C 0.39023 0.69075 0.33821 0.0
C289 C 0.26458 0.68262 0.2455 0.0
O290 O 0.31135 0.66943 0.25668 0.0
O291 O 0.27652 0.70304 0.24654 0.0
O292 O 0.47868 0.6561 0.24557 0.0
O293 O 0.47317 0.69156 0.23666 0.0
O294 O 0.38665 0.1239 0.32332 0.0
Cd295 Cd 0.38365 0.1141 0.27526 0.0
Cd296 Cd 0.32854 0.15386 0.27095 0.0
O297 O 0.31531 0.15263 0.32186 0.0
O298 O 0.39304 0.08168 0.27948 0.0
O299 O 0.29329 0.09773 0.26202 0.0
C300 C 0.32569 0.08017 0.27123 0.0
C301 C 0.24891 0.15826 0.22714 0.0
C302 C 0.35286 0.13897 0.33809 0.0
C303 C 0.47902 0.14751 0.24552 0.0
O304 O 0.43229 0.16068 0.2568 0.0
O305 O 0.46696 0.1271 0.24639 0.0
O306 O 0.26566 0.17448 0.24591 0.0
O307 O 0.27012 0.13913 0.23606 0.0
O308 O 0.35881 0.12375 0.49334 0.0
Cd309 Cd 0.36013 0.11383 0.54135 0.0
Cd310 Cd 0.41525 0.15362 0.54632 0.0
O311 O 0.42963 0.15261 0.49547 0.0
O312 O 0.35035 0.08144 0.53678 0.0
O313 O 0.44979 0.0973 0.55505 0.0
C314 C 0.4174 0.07982 0.54544 0.0
C315 C 0.49425 0.15797 0.5904 0.0
C316 C 0.39281 0.13892 0.47891 0.0
C317 C 0.26404 0.14717 0.57084 0.0
O318 O 0.31121 0.16038 0.56005 0.0
O319 O 0.27597 0.12676 0.56976 0.0
O320 O 0.47764 0.17422 0.57166 0.0
O321 O 0.4732 0.13885 0.58135 0.0
O322 O 0.38448 0.70573 0.49331 0.0
Cd323 Cd 0.38307 0.71589 0.54118 0.0
Cd324 Cd 0.32746 0.67615 0.5463 0.0
O325 O 0.31314 0.67699 0.49549 0.0
O326 O 0.39382 0.7482 0.536 0.0
O327 O 0.29388 0.73275 0.55451 0.0
C328 C 0.32676 0.75007 0.54455 0.0
C329 C 0.24794 0.67256 0.59029 0.0
C330 C 0.35028 0.69058 0.47892 0.0
C331 C 0.47863 0.68254 0.57096 0.0
O332 O 0.4314 0.66933 0.56021 0.0
O333 O 0.46683 0.70296 0.56979 0.0
O334 O 0.26411 0.65605 0.57203 0.0
O335 O 0.2699 0.69151 0.58082 0.0
O336 O 0.63064 0.87483 0.24513 0.0
Cd337 Cd 0.63087 0.86444 0.2929 0.0
Cd338 Cd 0.57566 0.90415 0.29903 0.0
O339 O 0.56007 0.90369 0.24828 0.0
O340 O 0.64137 0.83216 0.28734 0.0
O341 O 0.54204 0.84752 0.30665 0.0
C342 C 0.57459 0.83025 0.29631 0.0
C343 C 0.4972 0.908 0.34339 0.0
C344 C 0.59633 0.89014 0.23124 0.0
C345 C 0.72763 0.89757 0.32255 0.0
O346 O 0.68001 0.91086 0.31244 0.0
O347 O 0.7158 0.87716 0.32104 0.0
O348 O 0.51358 0.92444 0.32501 0.0
O349 O 0.51829 0.88898 0.33387 0.0
O350 O 0.60326 0.45655 0.24207 0.0
Cd351 Cd 0.60783 0.46634 0.2901 0.0
Cd352 Cd 0.66335 0.42662 0.29382 0.0
O353 O 0.67545 0.42801 0.24287 0.0
O354 O 0.59817 0.49876 0.28594 0.0
O355 O 0.69848 0.48275 0.30278 0.0
C356 C 0.66575 0.5003 0.29378 0.0
C357 C 0.74392 0.42247 0.3373 0.0
C358 C 0.63697 0.44162 0.22697 0.0
C359 C 0.51356 0.43281 0.32015 0.0
O360 O 0.55996 0.41971 0.30843 0.0
O361 O 0.52559 0.45323 0.31947 0.0
O362 O 0.72719 0.40617 0.31869 0.0
O363 O 0.7221 0.44154 0.32837 0.0
O364 O 0.63111 0.45725 0.07226 0.0
Cd365 Cd 0.63112 0.46758 1.02446 0.0
Cd366 Cd 0.57593 0.42784 1.0185 0.0
O367 O 0.56045 0.42839 0.06927 0.0
O368 O 0.64153 0.49987 1.02994 0.0
O369 O 0.54218 0.48445 1.01074 0.0
C370 C 0.57472 0.50174 1.02102 0.0
C371 C 0.4975 0.42379 0.97416 0.0
C372 C 0.59682 0.44196 0.08623 0.0
C373 C 0.7278 0.43445 0.99484 0.0
O374 O 0.68025 0.42116 1.00507 0.0
O375 O 0.71595 0.45485 0.99627 0.0
O376 O 0.51397 0.40742 0.99266 0.0
O377 O 0.51844 0.44286 0.98355 0.0
O378 O 0.6027 0.87576 0.07535 0.0
Cd379 Cd 0.60747 0.86602 1.02731 0.0
Cd380 Cd 0.66302 0.90577 1.02374 0.0
O381 O 0.67497 0.90431 0.07469 0.0
O382 O 0.59794 0.83358 1.03136 0.0
O383 O 0.69823 0.84969 1.01465 0.0
C384 C 0.66556 0.8321 1.02357 0.0
C385 C 0.74372 0.90977 0.98029 0.0
C386 C 0.6364 0.89068 0.09052 0.0
C387 C 0.51336 0.89958 0.99725 0.0
O388 O 0.5597 0.91268 1.00907 0.0
O389 O 0.52537 0.87917 0.99789 0.0
O390 O 0.72718 0.92613 0.99883 0.0
O391 O 0.72162 0.89075 0.98929 0.0
O392 O 0.35791 0.20753 0.82362 0.0
Cd393 Cd 0.36064 0.21742 0.7756 0.0
Cd394 Cd 0.41516 0.17758 0.77109 0.0
O395 O 0.42871 0.17868 0.82199 0.0
O396 O 0.35109 0.24981 0.7801 0.0
O397 O 0.45079 0.23389 0.76233 0.0
C398 C 0.41835 0.2514 0.77175 0.0
C399 C 0.49447 0.17313 0.72718 0.0
C400 C 0.3915 0.19239 0.8383 0.0
C401 C 0.26462 0.18417 0.74589 0.0
O402 O 0.31123 0.17092 0.75705 0.0
O403 O 0.27696 0.20456 0.74681 0.0
O404 O 0.47755 0.15691 0.74592 0.0
O405 O 0.47363 0.19229 0.73619 0.0
O406 O 0.38653 0.62617 0.82356 0.0
Cd407 Cd 0.38355 0.61608 0.77567 0.0
Cd408 Cd 0.32777 0.65575 0.77107 0.0
O409 O 0.31459 0.65476 0.82196 0.0
O410 O 0.39391 0.58372 0.78054 0.0
O411 O 0.29369 0.59935 0.76278 0.0
C412 C 0.32658 0.58197 0.77237 0.0
C413 C 0.24775 0.6594 0.72731 0.0
C414 C 0.35252 0.64122 0.83824 0.0
C415 C 0.47831 0.6495 0.74562 0.0
O416 O 0.43139 0.66265 0.75678 0.0
O417 O 0.46653 0.62908 0.74663 0.0
O418 O 0.26402 0.67589 0.74562 0.0
O419 O 0.26978 0.64045 0.73667 0.0
O420 O 0.35856 0.62622 0.99335 0.0
Cd421 Cd 0.36007 0.61609 0.04123 0.0
Cd422 Cd 0.41583 0.65581 0.04629 0.0
O423 O 0.43003 0.65493 0.99547 0.0
O424 O 0.34949 0.58375 0.03614 0.0
O425 O 0.4494 0.59927 0.05453 0.0
C426 C 0.41659 0.58193 0.04464 0.0
C427 C 0.49534 0.6594 0.09028 0.0
C428 C 0.39278 0.64135 0.97894 0.0
C429 C 0.26465 0.64949 0.07099 0.0
O430 O 0.31194 0.66267 0.06021 0.0
O431 O 0.27635 0.62906 0.06985 0.0
O432 O 0.47924 0.67592 0.072 0.0
O433 O 0.47334 0.64046 0.08083 0.0
O434 O 0.38447 0.20768 0.9936 0.0
Cd435 Cd 0.38232 0.21768 0.04157 0.0
Cd436 Cd 0.32764 0.17785 0.04641 0.0
O437 O 0.31373 0.17881 0.99554 0.0
O438 O 0.39199 0.25005 0.03688 0.0
O439 O 0.29238 0.23419 0.05494 0.0
C440 C 0.32482 0.25167 0.04535 0.0
C441 C 0.24847 0.17344 0.0904 0.0
C442 C 0.35075 0.19249 0.97907 0.0
C443 C 0.47847 0.18447 0.07129 0.0
O444 O 0.43164 0.17121 0.06034 0.0
O445 O 0.46625 0.20487 0.07024 0.0
O446 O 0.26534 0.1572 0.07169 0.0
O447 O 0.26931 0.19258 0.08134 0.0
C448 C 0.11316 0.41103 0.1775 0.0
C449 C 0.10219 0.39133 0.19426 0.0
H450 H 0.13578 0.42633 0.13084 0.0
C451 C 0.10484 0.37181 0.17655 0.0
H452 H 0.11264 0.42626 0.19081 0.0
C453 C 0.11798 0.37183 0.14286 0.0
C454 C 0.13002 0.39136 0.12592 0.0
H455 H 0.09716 0.35638 0.18889 0.0
H456 H 0.11908 0.35642 0.13002 0.0
C457 C 0.12772 0.41104 0.14347 0.0
C458 C 0.11281 0.92105 0.13818 0.0
C459 C 0.09829 0.94062 0.12163 0.0
H460 H 0.13848 0.90595 0.18465 0.0
C461 C 0.09711 0.96005 0.13954 0.0
H462 H 0.11536 0.90591 0.12468 0.0
C463 C 0.11025 0.9601 0.17323 0.0
C464 C 0.12612 0.94074 0.18997 0.0
H465 H 0.08676 0.97538 0.12731 0.0
H466 H 0.10863 0.97547 0.18618 0.0
C467 C 0.12735 0.92113 0.17221 0.0
C468 C 0.8786 0.67246 0.89137 0.0
C469 C 0.88393 0.69222 0.87419 0.0
H470 H 0.86092 0.65707 0.9384 0.0
C471 C 0.87524 0.71176 0.8915 0.0
H472 H 0.88398 0.65718 0.87843 0.0
C473 C 0.86218 0.71169 0.92521 0.0
C474 C 0.85623 0.69208 0.94256 0.0
H475 H 0.87864 0.72723 0.87891 0.0
H476 H 0.85686 0.72711 0.93781 0.0
C477 C 0.86409 0.67239 0.92541 0.0
C478 C 0.8761 0.1228 0.92504 0.0
C479 C 0.88442 0.14237 0.94229 0.0
H480 H 0.85786 0.10734 0.87882 0.0
C481 C 0.87871 0.1621 0.92507 0.0
H482 H 0.8798 0.10735 0.93768 0.0
C483 C 0.86415 0.16211 0.89104 0.0
C484 C 0.85662 0.14237 0.87397 0.0
H485 H 0.88378 0.17741 0.93798 0.0
H486 H 0.86066 0.1774 0.878 0.0
C487 C 0.86295 0.1228 0.89136 0.0
C488 C 0.13363 0.87233 0.67332 0.0
C489 C 0.11702 0.89165 0.69002 0.0
H490 H 0.15775 0.85708 0.62744 0.0
C491 C 0.11522 0.91124 0.67223 0.0
H492 H 0.1357 0.85697 0.68629 0.0
C493 C 0.12984 0.91134 0.63821 0.0
C494 C 0.14506 0.8918 0.6217 0.0
H495 H 0.10351 0.9264 0.68463 0.0
H496 H 0.12678 0.92646 0.62468 0.0
C497 C 0.14688 0.87239 0.63964 0.0
C498 C 0.11562 0.42112 0.6435 0.0
C499 C 0.11307 0.4408 0.62595 0.0
H500 H 0.13092 0.40592 0.69084 0.0
C501 C 0.12482 0.46034 0.64289 0.0
H502 H 0.10778 0.40582 0.63087 0.0
C503 C 0.13796 0.46038 0.67658 0.0
C504 C 0.1409 0.44087 0.69429 0.0
H505 H 0.12353 0.47575 0.63005 0.0
H506 H 0.14544 0.47582 0.68892 0.0
C507 C 0.13018 0.42115 0.67753 0.0
C508 C 0.87876 0.17005 0.39088 0.0
C509 C 0.88497 0.18982 0.37378 0.0
H510 H 0.86021 0.15467 0.43785 0.0
C511 C 0.87712 0.20936 0.39114 0.0
H512 H 0.88346 0.15477 0.37788 0.0
C513 C 0.86389 0.2093 0.42481 0.0
C514 C 0.85701 0.1897 0.44209 0.0
H515 H 0.8812 0.22484 0.37859 0.0
H516 H 0.85913 0.22473 0.43744 0.0
C517 C 0.86412 0.16999 0.4249 0.0
C518 C 0.86823 0.62094 0.39145 0.0
C519 C 0.8592 0.64047 0.37418 0.0
H520 H 0.8871 0.60556 0.43769 0.0
C521 C 0.86442 0.66023 0.39139 0.0
H522 H 0.86492 0.60547 0.37884 0.0
C523 C 0.87913 0.66029 0.42541 0.0
C524 C 0.88732 0.64059 0.44251 0.0
H525 H 0.85879 0.67551 0.37848 0.0
H526 H 0.88218 0.6756 0.43843 0.0
C527 C 0.88152 0.62099 0.42513 0.0
C528 C 0.63025 0.41075 0.63915 0.0
C529 C 0.64197 0.39107 0.62243 0.0
H530 H 0.60698 0.426 0.68578 0.0
C531 C 0.64014 0.37156 0.64017 0.0
H532 H 0.6301 0.42597 0.6258 0.0
C533 C 0.62702 0.37157 0.67386 0.0
C534 C 0.61416 0.39106 0.69077 0.0
H535 H 0.64838 0.35616 0.62784 0.0
H536 H 0.6265 0.35615 0.68672 0.0
C537 C 0.6157 0.41073 0.67318 0.0
C538 C 0.64075 0.95982 0.67721 0.0
C539 C 0.6421 0.94035 0.69505 0.0
H540 H 0.62735 0.97515 0.6306 0.0
C541 C 0.62984 0.92066 0.67844 0.0
H542 H 0.6494 0.97524 0.68945 0.0
C543 C 0.61522 0.92063 0.64442 0.0
C544 C 0.61413 0.94026 0.62673 0.0
H545 H 0.62931 0.90547 0.69187 0.0
H546 H 0.60606 0.90535 0.63191 0.0
C547 C 0.62754 0.95976 0.64353 0.0
C548 C 0.37884 0.66999 0.3916 0.0
C549 C 0.38349 0.68976 0.37439 0.0
H550 H 0.36172 0.6546 0.43868 0.0
C551 C 0.37405 0.70928 0.39165 0.0
H552 H 0.38482 0.65472 0.37869 0.0
C553 C 0.36091 0.7092 0.42534 0.0
C554 C 0.35571 0.6896 0.44272 0.0
H555 H 0.37696 0.72476 0.37904 0.0
H556 H 0.35504 0.72462 0.4379 0.0
C557 C 0.36429 0.66991 0.42564 0.0
C558 C 0.37899 0.15964 0.42564 0.0
C559 C 0.38726 0.13992 0.44268 0.0
H560 H 0.35875 0.17491 0.37874 0.0
C561 C 0.38176 0.12034 0.42523 0.0
H562 H 0.38181 0.17493 0.43871 0.0
C563 C 0.3687 0.12033 0.39153 0.0
C564 C 0.35955 0.13988 0.37431 0.0
H565 H 0.38739 0.1049 0.43776 0.0
H566 H 0.3656 0.10487 0.37886 0.0
C567 C 0.36448 0.15961 0.3916 0.0
C568 C 0.61281 0.91108 0.17841 0.0
C569 C 0.60065 0.89139 0.19505 0.0
H570 H 0.63644 0.92637 0.13185 0.0
C571 C 0.60202 0.87191 0.17723 0.0
H572 H 0.61332 0.92627 0.19182 0.0
C573 C 0.61515 0.87195 0.14353 0.0
C574 C 0.62847 0.89145 0.12671 0.0
H575 H 0.59345 0.8565 0.18949 0.0
H576 H 0.61535 0.85656 0.13062 0.0
C577 C 0.62735 0.91109 0.14438 0.0
C578 C 0.61309 0.4211 0.13916 0.0
C579 C 0.60128 0.44077 0.12244 0.0
H580 H 0.63644 0.40586 0.18578 0.0
C581 C 0.60304 0.46028 0.14018 0.0
H582 H 0.61328 0.40588 0.12581 0.0
C583 C 0.6162 0.46028 0.17387 0.0
C584 C 0.62915 0.44079 0.19077 0.0
H585 H 0.59474 0.47568 0.12786 0.0
H586 H 0.61667 0.47569 0.18673 0.0
C587 C 0.62766 0.42112 0.17319 0.0
C588 C 0.37886 0.17174 0.89175 0.0
C589 C 0.38498 0.19146 0.87452 0.0
H590 H 0.36031 0.15645 0.93879 0.0
C591 C 0.37694 0.21104 0.89178 0.0
H592 H 0.38371 0.15642 0.87884 0.0
C593 C 0.36366 0.21105 0.92546 0.0
C594 C 0.35687 0.19149 0.94286 0.0
H595 H 0.38096 0.22649 0.87915 0.0
H596 H 0.35877 0.22651 0.938 0.0
C597 C 0.36415 0.17175 0.92577 0.0
C598 C 0.36851 0.62267 0.89168 0.0
C599 C 0.35923 0.6422 0.87443 0.0
H600 H 0.38749 0.60731 0.93791 0.0
C601 C 0.36415 0.66196 0.89164 0.0
H602 H 0.36541 0.6072 0.87906 0.0
C603 C 0.37878 0.66203 0.92566 0.0
C604 C 0.3872 0.64233 0.94274 0.0
H605 H 0.35831 0.67724 0.87873 0.0
H606 H 0.38157 0.67734 0.93871 0.0
C607 C 0.38173 0.62273 0.92536 0.0
C608 C 0.03119 0.27236 0.27039 0.0
C609 C 0.95638 0.27102 0.27672 0.0
H610 H 0.12726 0.29189 0.27188 0.0
C611 C 0.92134 0.28922 0.29031 0.0
H612 H 0.06017 0.25862 0.26025 0.0
C613 C 0.96002 0.30827 0.29734 0.0
C614 C 0.03483 0.30961 0.29099 0.0
H615 H 0.86394 0.28874 0.29582 0.0
H616 H 0.93105 0.32201 0.30747 0.0
C617 C 0.06987 0.29141 0.27741 0.0
C618 C 0.17109 1.03936 0.27625 0.0
C619 C 0.20605 1.0208 0.28873 0.0
H620 H 0.18125 0.07243 0.26044 0.0
C621 C 0.28117 1.0218 0.29443 0.0
H622 H 0.11346 1.03915 0.27124 0.0
C623 C 0.32023 1.04085 0.28791 0.0
C624 C 0.28527 0.05941 0.27544 0.0
H625 H 0.31008 1.00778 0.30372 0.0
H626 H 0.37786 0.04106 0.29293 0.0
C627 C 0.21016 0.05841 0.26971 0.0
C628 C 0.06953 1.04092 0.03898 0.0
C629 C 0.03455 1.02274 1.02523 0.0
H630 H 0.05983 0.07368 0.05623 0.0
C631 C 0.95983 1.02412 1.0187 0.0
H632 H 0.12685 1.0404 0.04464 0.0
C633 C 0.92117 0.04316 1.02572 0.0
C634 C 0.95616 0.06133 0.03947 0.0
H635 H 0.93089 1.0104 1.00845 0.0
H636 H 0.86385 0.04367 1.02007 0.0
C637 C 0.03089 0.05996 0.04597 0.0
C638 C 0.3196 0.29088 1.02808 0.0
C639 C 0.2846 0.27244 0.04097 0.0
H640 H 0.30967 0.32385 1.01182 0.0
C641 C 0.20962 0.27356 0.04697 0.0
H642 H 0.37713 0.29057 1.02284 0.0
C643 C 0.17072 0.29261 0.04029 0.0
C644 C 0.20573 0.31105 1.02741 0.0
H645 H 0.18067 0.25964 0.05656 0.0
H646 H 0.11319 0.29292 0.04553 0.0
C647 C 0.28072 0.30993 1.02142 0.0
C648 C 0.03244 0.77393 0.76964 0.0
C649 C 0.95736 0.77289 0.77543 0.0
H650 H 0.12906 0.79322 0.77115 0.0
C651 C 0.92235 0.79144 0.78793 0.0
H652 H 0.0614 0.75992 0.76034 0.0
C653 C 0.96133 0.8105 0.79445 0.0
C654 C 0.03643 0.81153 0.78871 0.0
H655 H 0.86473 0.7912 0.79298 0.0
H656 H 0.93238 0.8245 0.80376 0.0
C657 C 0.07144 0.79299 0.77619 0.0
C658 C 0.78309 1.02385 0.79786 0.0
C659 C 0.70837 1.02243 0.79137 0.0
H660 H 0.87903 0.04344 0.79644 0.0
C661 C 0.67333 1.04058 0.77759 0.0
H662 H 0.81206 1.01015 0.80814 0.0
C663 C 0.71194 0.05963 0.77054 0.0
C664 C 0.78666 0.06105 0.77703 0.0
H665 H 0.61601 1.04004 0.77194 0.0
H666 H 0.68296 0.07333 0.76026 0.0
C667 C 0.8217 0.0429 0.7908 0.0
C668 C 0.67101 0.79286 0.04069 0.0
C669 C 0.70591 0.81136 1.02793 0.0
H670 H 0.68117 0.75984 0.05675 0.0
C671 C 0.78091 0.8103 1.02196 0.0
H672 H 0.61347 0.79312 0.04592 0.0
C673 C 0.81992 0.79125 1.0285 0.0
C674 C 0.78503 0.77275 0.04125 0.0
H675 H 0.80977 0.82427 1.01246 0.0
H676 H 0.87745 0.791 1.02326 0.0
C677 C 0.71003 0.77381 0.04726 0.0
C678 C 0.32176 0.54293 0.79058 0.0
C679 C 0.28668 0.56117 0.77711 0.0
H680 H 0.31208 0.51011 0.80759 0.0
C681 C 0.21185 0.55984 0.77084 0.0
H682 H 0.37917 0.5434 0.79606 0.0
C683 C 0.17318 0.54079 0.77778 0.0
C684 C 0.20825 0.52255 0.79125 0.0
H685 H 0.18284 0.57361 0.76079 0.0
H686 H 0.11577 0.54031 0.7723 0.0
C687 C 0.28307 0.52388 0.79755 0.0
C688 C 0.92386 0.54125 0.52787 0.0
C689 C 0.95883 0.55969 0.54078 0.0
H690 H 0.93381 0.50827 0.51164 0.0
C691 C 0.03379 0.55856 0.54685 0.0
H692 H 0.86636 0.54156 0.52258 0.0
C693 C 0.07268 0.5395 0.54021 0.0
C694 C 0.0377 0.52106 0.52731 0.0
H695 H 0.06271 0.57249 0.55646 0.0
H696 H 0.13019 0.53919 0.5455 0.0
C697 C 0.96275 0.52219 0.52126 0.0
C698 C 0.32201 0.789 0.52586 0.0
C699 C 0.28705 0.77088 0.5398 0.0
H700 H 0.31231 0.82172 0.50844 0.0
C701 C 0.21243 0.77232 0.5465 0.0
H702 H 0.37925 0.78843 0.52006 0.0
C703 C 0.17384 0.79138 0.5395 0.0
C704 C 0.20879 0.80949 0.52556 0.0
H705 H 0.18352 0.75865 0.55691 0.0
H706 H 0.1166 0.79194 0.54531 0.0
C707 C 0.28341 0.80805 0.51884 0.0
C708 C 0.70985 0.55861 0.27002 0.0
C709 C 0.7849 0.55971 0.27587 0.0
H710 H 0.61335 0.53926 0.27155 0.0
C711 C 0.81994 0.54123 0.28858 0.0
H712 H 0.68088 0.57256 0.26057 0.0
C713 C 0.78104 0.52216 0.29521 0.0
C714 C 0.70599 0.52107 0.28937 0.0
H715 H 0.87753 0.54151 0.2937 0.0
H716 H 0.81002 0.50821 0.30467 0.0
C717 C 0.67094 0.53955 0.27667 0.0
C718 C 0.67322 0.29112 0.53908 0.0
C719 C 0.70822 0.30934 0.52547 0.0
H720 H 0.68292 0.25832 0.55615 0.0
C721 C 0.78296 0.30799 0.519 0.0
H722 H 0.61587 0.29161 0.5447 0.0
C723 C 0.82163 0.28894 0.52593 0.0
C724 C 0.78663 0.27072 0.53954 0.0
H725 H 0.81191 0.32174 0.50886 0.0
H726 H 0.87898 0.28845 0.52032 0.0
C727 C 0.71187 0.27207 0.54599 0.0
C728 C 0.42362 0.29065 0.78879 0.0
C729 C 0.45863 0.27217 0.77607 0.0
H730 H 0.43357 0.32367 0.80485 0.0
C731 C 0.53366 0.27327 0.77015 0.0
H732 H 0.36605 0.29037 0.79395 0.0
C733 C 0.57258 0.29234 0.77676 0.0
C734 C 0.53756 0.31082 0.78948 0.0
H735 H 0.56261 0.25932 0.76069 0.0
H736 H 0.63015 0.29263 0.7716 0.0
C737 C 0.46254 0.30972 0.79538 0.0
C738 C 0.42269 1.04056 0.52844 0.0
C739 C 0.45762 0.05904 0.54124 0.0
H740 H 0.43272 1.00755 0.51236 0.0
C741 C 0.53258 0.05793 0.54732 0.0
H742 H 0.36518 1.04085 0.52315 0.0
C743 C 0.57152 1.03887 0.54077 0.0
C744 C 0.53658 1.0204 0.52795 0.0
H745 H 0.56148 0.07188 0.55686 0.0
H746 H 0.62904 1.03858 0.54605 0.0
C747 C 0.46161 1.02149 0.52191 0.0
C748 C 0.56982 0.79125 0.27801 0.0
C749 C 0.53475 0.80945 0.29161 0.0
H750 H 0.56016 0.75846 0.26085 0.0
C751 C 0.45996 0.80809 0.29796 0.0
H752 H 0.62721 0.79174 0.27248 0.0
C753 C 0.4213 0.78904 0.29092 0.0
C754 C 0.45636 0.77084 0.27732 0.0
H755 H 0.43096 0.82183 0.3081 0.0
H756 H 0.3639 0.78855 0.29644 0.0
C757 C 0.53117 0.7722 0.271 0.0
C758 C 0.46012 0.5239 1.01921 0.0
C759 C 0.53485 0.52254 1.02571 0.0
H760 H 0.36412 0.54345 1.02055 0.0
C761 C 0.56982 0.54073 0.03943 0.0
H762 H 0.4312 0.51017 1.00898 0.0
C763 C 0.53115 0.55977 0.04641 0.0
C764 C 0.45642 0.56113 0.03992 0.0
H765 H 0.62714 0.54022 0.04508 0.0
H766 H 0.56008 0.5735 0.05665 0.0
C767 C 0.42144 0.54294 1.0262 0.0
C768 C 0.96603 0.43652 0.42334 0.0
C769 C 0.97144 0.41897 0.44535 0.0
H770 H 0.96787 0.44689 0.37304 0.0
C771 C 0.96621 0.39778 0.43265 0.0
H772 H 0.96877 0.45307 0.43225 0.0
C773 C 0.96599 0.39422 0.39857 0.0
C774 C 0.97068 0.41179 0.37654 0.0
H775 H 0.96916 0.38386 0.44887 0.0
H776 H 0.96873 0.37768 0.38964 0.0
C777 C 0.96552 0.43296 0.38927 0.0
C778 C 0.27734 0.93636 0.39198 0.0
C779 C 0.27159 0.91879 0.37001 0.0
H780 H 0.27581 0.94678 0.44226 0.0
C781 C 0.27652 0.89761 0.38275 0.0
H782 H 0.27484 0.9529 0.38305 0.0
C783 C 0.27677 0.89408 0.41684 0.0
C784 C 0.27241 0.91167 0.43883 0.0
H785 H 0.27328 0.88368 0.36655 0.0
H786 H 0.2738 0.87755 0.4258 0.0
C787 C 0.27787 0.93283 0.42606 0.0
C788 C 0.96526 0.89605 0.89197 0.0
C789 C 0.97109 0.91361 0.87001 0.0
H790 H 0.96679 0.88561 0.94224 0.0
C791 C 0.96627 0.93479 0.88275 0.0
H792 H 0.96767 0.8795 0.88303 0.0
C793 C 0.96608 0.93832 0.91685 0.0
C794 C 0.97037 0.92072 0.93883 0.0
H795 H 0.96957 0.94873 0.86656 0.0
H796 H 0.96915 0.95484 0.92582 0.0
C797 C 0.96478 0.89957 0.92605 0.0
C798 C 0.27779 0.39919 0.88924 0.0
C799 C 0.27261 0.42037 0.87654 0.0
H800 H 0.27455 0.37907 0.9322 0.0
C801 C 0.27729 0.43793 0.89858 0.0
H802 H 0.27545 0.38526 0.873 0.0
C803 C 0.27708 0.43436 0.93266 0.0
C804 C 0.27186 0.41316 0.94534 0.0
H805 H 0.27455 0.45447 0.88966 0.0
H806 H 0.27412 0.44828 0.94889 0.0
C807 C 0.27729 0.39562 0.92332 0.0
C808 C 0.02638 0.64893 0.68055 0.0
C809 C 0.02129 0.6702 0.69291 0.0
H810 H 0.02365 0.62851 0.63788 0.0
C811 C 0.0265 0.68759 0.6706 0.0
H812 H 0.02359 0.63512 0.697 0.0
C813 C 0.0268 0.68379 0.63658 0.0
C814 C 0.02164 0.66252 0.6242 0.0
H815 H 0.02382 0.7042 0.67924 0.0
H816 H 0.02434 0.6976 0.62012 0.0
C817 C 0.02642 0.64512 0.64652 0.0
C818 C 0.71515 0.14485 0.67076 0.0
C819 C 0.72032 0.16259 0.69244 0.0
H820 H 0.71755 0.13407 0.62066 0.0
C821 C 0.71508 0.18367 0.67934 0.0
H822 H 0.71789 0.12838 0.67999 0.0
C823 C 0.71517 0.18695 0.6452 0.0
C824 C 0.72019 0.16921 0.62352 0.0
H825 H 0.71778 0.19773 0.6953 0.0
H826 H 0.71793 0.20342 0.63598 0.0
C827 C 0.71493 0.14813 0.63662 0.0
C828 C 0.02792 0.18725 0.17072 0.0
C829 C 0.02281 0.16953 0.19242 0.0
H830 H 0.02534 0.198 0.12061 0.0
C831 C 0.02804 0.14844 0.17936 0.0
H832 H 0.02519 0.20373 0.17993 0.0
C833 C 0.02784 0.14514 0.14522 0.0
C834 C 0.02272 0.16287 0.12352 0.0
H835 H 0.02538 0.13439 0.19534 0.0
H836 H 0.02505 0.12867 0.13602 0.0
C837 C 0.02803 0.18395 0.13658 0.0
C838 C 0.71684 0.68753 0.1465 0.0
C839 C 0.72164 0.67012 0.1242 0.0
H840 H 0.71948 0.69756 0.19696 0.0
C841 C 0.71631 0.64885 0.13659 0.0
H842 H 0.71972 0.70413 0.13784 0.0
C843 C 0.71643 0.64507 0.17062 0.0
C844 C 0.72161 0.66247 0.19291 0.0
H845 H 0.71878 0.63503 0.12015 0.0
H846 H 0.71899 0.62846 0.17927 0.0
C847 C 0.71669 0.68374 0.18053 0.0
C848 C 0.46546 0.39909 0.92735 0.0
C849 C 0.47076 0.42028 0.94002 0.0
H850 H 0.46861 0.37893 0.88443 0.0
C851 C 0.46623 0.43781 0.91794 0.0
H852 H 0.46767 0.38517 0.94362 0.0
C853 C 0.46646 0.43421 0.88386 0.0
C854 C 0.47155 0.41301 0.87123 0.0
H855 H 0.46907 0.45436 0.92683 0.0
H856 H 0.46954 0.44812 0.86761 0.0
C857 C 0.46598 0.39549 0.89328 0.0
C858 C 0.7771 0.89569 0.92442 0.0
C859 C 0.77166 0.91329 0.94636 0.0
H860 H 0.77526 0.88523 0.87417 0.0
C861 C 0.77688 0.93445 0.93358 0.0
H862 H 0.77439 0.87916 0.93339 0.0
C863 C 0.77708 0.93795 0.89948 0.0
C864 C 0.7724 0.92034 0.87753 0.0
H865 H 0.77389 0.9484 0.94974 0.0
H866 H 0.77432 0.95447 0.89048 0.0
C867 C 0.77759 0.89919 0.89034 0.0
C868 C 0.46553 0.936 0.42447 0.0
C869 C 0.47104 0.9184 0.44638 0.0
H870 H 0.46732 0.9465 0.37423 0.0
C871 C 0.46593 0.89724 0.43357 0.0
H872 H 0.46816 0.95253 0.43346 0.0
C873 C 0.46576 0.89377 0.39946 0.0
C874 C 0.47036 0.91139 0.37753 0.0
H875 H 0.46898 0.88328 0.44971 0.0
H876 H 0.4686 0.87725 0.39044 0.0
C877 C 0.46506 0.93253 0.39038 0.0
C878 C 0.77784 0.43278 0.42735 0.0
C879 C 0.77251 0.41159 0.44002 0.0
H880 H 0.77473 0.45294 0.38444 0.0
C881 C 0.77703 0.39405 0.41794 0.0
H882 H 0.77564 0.44669 0.44362 0.0
C883 C 0.77683 0.39765 0.38386 0.0
C884 C 0.77177 0.41886 0.37123 0.0
H885 H 0.77417 0.3775 0.42682 0.0
H886 H 0.77374 0.38375 0.3676 0.0
C887 C 0.77735 0.43638 0.39329 0.0
C888 C 0.52784 0.64822 0.18019 0.0
C889 C 0.52276 0.66931 0.19326 0.0
H890 H 0.52481 0.62845 0.13686 0.0
C891 C 0.52808 0.68703 0.17156 0.0
H892 H 0.525 0.63418 0.19618 0.0
C893 C 0.52826 0.68373 0.13742 0.0
C894 C 0.52282 0.66265 0.12435 0.0
H895 H 0.52547 0.70351 0.18076 0.0
H896 H 0.52577 0.69778 0.12144 0.0
C897 C 0.52771 0.64492 0.14606 0.0
C898 C 0.21652 0.14463 0.17085 0.0
C899 C 0.22165 0.16203 0.19315 0.0
H900 H 0.21882 0.1346 0.12038 0.0
C901 C 0.21654 0.1833 0.18077 0.0
H902 H 0.21921 0.12802 0.1795 0.0
C903 C 0.21658 0.18709 0.14674 0.0
C904 C 0.22146 0.16968 0.12444 0.0
H905 H 0.21928 0.19711 0.19721 0.0
H906 H 0.21934 0.20369 0.13809 0.0
C907 C 0.21628 0.14842 0.13683 0.0
C908 C 0.5264 0.14809 0.68075 0.0
C909 C 0.52149 0.16936 0.69315 0.0
H910 H 0.52329 0.1277 0.63807 0.0
C911 C 0.5266 0.18676 0.67085 0.0
H912 H 0.52367 0.13427 0.6972 0.0
C913 C 0.52665 0.18297 0.63683 0.0
C914 C 0.52132 0.16171 0.62443 0.0
H915 H 0.52405 0.20336 0.67951 0.0
H916 H 0.52413 0.19679 0.62039 0.0
C917 C 0.52618 0.1443 0.64673 0.0
C918 C 0.21518 0.68377 0.68019 0.0
C919 C 0.22021 0.66268 0.69326 0.0
H920 H 0.21837 0.70354 0.63684 0.0
C921 C 0.21496 0.64496 0.67156 0.0
H922 H 0.21798 0.69782 0.69617 0.0
C923 C 0.2149 0.64825 0.63742 0.0
C924 C 0.22039 0.66933 0.62435 0.0
H925 H 0.21753 0.62848 0.68077 0.0
H926 H 0.21743 0.6342 0.62145 0.0
C927 C 0.21543 0.68706 0.64605 0.0
C928 C 0.31132 0.42896 0.33283 0.0
C929 C 0.3004 0.40636 0.3307 0.0
H930 H 0.38755 0.45519 0.3316 0.0
C931 C 0.36101 0.39265 0.33172 0.0
H932 H 0.26572 0.44002 0.33262 0.0
C933 C 0.43095 0.4014 0.33125 0.0
C934 C 0.44171 0.42404 0.32976 0.0
H935 H 0.35465 0.37519 0.33043 0.0
H936 H 0.47647 0.39035 0.32982 0.0
C937 C 0.38127 0.43772 0.33237 0.0
C938 C 0.8113 0.92881 0.33319 0.0
C939 C 0.80034 0.9062 0.33105 0.0
H940 H 0.88752 0.95503 0.33174 0.0
C941 C 0.86096 0.89249 0.33185 0.0
H942 H 0.7657 0.93987 0.33315 0.0
C943 C 0.93089 0.90124 0.33114 0.0
C944 C 0.94163 0.92388 0.32965 0.0
H945 H 0.85458 0.87504 0.33054 0.0
H946 H 0.97639 0.8902 0.32954 0.0
C947 C 0.88125 0.93756 0.33251 0.0
C948 C 0.31126 0.90342 0.98399 0.0
C949 C 0.30031 0.92602 0.98615 0.0
H950 H 0.38746 0.87721 0.98537 0.0
C951 C 0.36095 0.93974 0.98543 0.0
H952 H 0.26565 0.89235 0.98397 0.0
C953 C 0.43087 0.931 0.98612 0.0
C954 C 0.44161 0.90837 0.98753 0.0
H955 H 0.35458 0.95719 0.98677 0.0
H956 H 0.47637 0.94206 0.98775 0.0
C957 C 0.3812 0.89468 0.98466 0.0
C958 C 0.93098 0.43076 0.9857 0.0
C959 C 0.94169 0.40813 0.98714 0.0
H960 H 0.85476 0.45697 0.98655 0.0
C961 C 0.8812 0.39445 0.98452 0.0
H962 H 0.97654 0.44181 0.98714 0.0
C963 C 0.81128 0.4032 0.98406 0.0
C964 C 0.80042 0.42581 0.98621 0.0
H965 H 0.88743 0.37698 0.98525 0.0
H966 H 0.76565 0.39214 0.98424 0.0
C967 C 0.86107 0.43952 0.98523 0.0
C968 C 0.68093 0.65341 0.73445 0.0
C969 C 0.69162 0.67603 0.73635 0.0
H970 H 0.60486 0.62715 0.73542 0.0
C971 C 0.63098 0.6897 0.73462 0.0
H972 H 0.72659 0.64238 0.73519 0.0
C973 C 0.56109 0.68091 0.73465 0.0
C974 C 0.55041 0.65827 0.73638 0.0
H975 H 0.63719 0.70716 0.73573 0.0
H976 H 0.51544 0.69193 0.73556 0.0
C977 C 0.61104 0.64461 0.73445 0.0
C978 C 0.11123 0.14425 0.73466 0.0
C979 C 0.05081 0.158 0.7365 0.0
H980 H 0.22672 0.14184 0.73554 0.0
C981 C 0.06187 0.18062 0.73481 0.0
H982 H 0.10475 0.12679 0.73559 0.0
C983 C 0.13191 0.18931 0.73489 0.0
C984 C 0.19231 0.17555 0.73667 0.0
H985 H 0.0164 0.19171 0.73566 0.0
H986 H 0.1384 0.20676 0.73602 0.0
C987 C 0.18126 0.15294 0.73475 0.0
C988 C 0.56183 0.15326 0.08237 0.0
C989 C 0.55086 0.17586 0.08037 0.0
H990 H 0.63822 0.1271 0.08145 0.0
C991 C 0.61134 0.18962 0.08192 0.0
H992 H 0.51631 0.14217 0.08177 0.0
C993 C 0.68134 0.18092 0.08184 0.0
C994 C 0.69228 0.15829 0.08023 0.0
H995 H 0.60491 0.20707 0.08073 0.0
H996 H 0.72685 0.192 0.08082 0.0
C997 C 0.63183 0.14456 0.08232 0.0
C998 C 0.13176 0.64454 0.08179 0.0
C999 C 0.19238 0.65823 0.07998 0.0
H1000 H 0.01623 0.64225 0.08095 0.0
C1001 C 0.18162 0.68086 0.08168 0.0
H1002 H 0.13801 0.62708 0.08083 0.0
C1003 C 0.11169 0.68962 0.08164 0.0
C1004 C 0.05109 0.67592 0.07988 0.0
H1005 H 0.22724 0.69191 0.08086 0.0
H1006 H 0.10544 0.70708 0.08057 0.0
C1007 C 0.06185 0.6533 0.08173 0.0
C1008 C 0.38198 0.93965 0.83192 0.0
C1009 C 0.44245 0.92588 0.83116 0.0
H1010 H 0.26658 0.94206 0.82959 0.0
C1011 C 0.43125 0.90329 0.83336 0.0
H1012 H 0.38855 0.9571 0.83056 0.0
C1013 C 0.36121 0.8946 0.8327 0.0
C1014 C 0.30098 0.90834 0.82979 0.0
H1015 H 0.47673 0.89218 0.83336 0.0
H1016 H 0.35475 0.87714 0.83197 0.0
C1017 C 0.31196 0.93097 0.83123 0.0
C1018 C 0.81227 0.43059 0.83123 0.0
C1019 C 0.80163 0.40795 0.82974 0.0
H1020 H 0.88842 0.45684 0.83042 0.0
C1021 C 0.86215 0.3943 0.83236 0.0
H1022 H 0.76668 0.44162 0.8298 0.0
C1023 C 0.93204 0.40309 0.83283 0.0
C1024 C 0.94284 0.4257 0.83071 0.0
H1025 H 0.85596 0.37683 0.83159 0.0
H1026 H 0.9777 0.39205 0.83263 0.0
C1027 C 0.88216 0.43938 0.83172 0.0
C1028 C 0.36214 0.43756 0.4846 0.0
C1029 C 0.3016 0.4239 0.48722 0.0
H1030 H 0.4777 0.43982 0.48431 0.0
C1031 C 0.31221 0.40126 0.48578 0.0
H1032 H 0.35598 0.45503 0.48534 0.0
C1033 C 0.38208 0.39248 0.48529 0.0
C1034 C 0.44279 0.40616 0.48626 0.0
H1035 H 0.2666 0.39023 0.48721 0.0
H1036 H 0.38832 0.37502 0.4866 0.0
C1037 C 0.43203 0.42877 0.48413 0.0
C1038 C 0.88212 0.8922 0.48558 0.0
C1039 C 0.94259 0.90599 0.48623 0.0
H1040 H 0.76673 0.88975 0.48792 0.0
C1041 C 0.93134 0.92858 0.48399 0.0
H1042 H 0.88872 0.87476 0.48698 0.0
C1043 C 0.8613 0.93724 0.48464 0.0
C1044 C 0.80107 0.92348 0.48757 0.0
H1045 H 0.97681 0.9397 0.48392 0.0
H1046 H 0.85481 0.9547 0.48528 0.0
C1047 C 0.81209 0.90086 0.48625 0.0
C1048 C 0.61173 0.14256 0.23436 0.0
C1049 C 0.55115 0.15624 0.23625 0.0
H1050 H 0.72728 0.14031 0.23504 0.0
C1051 C 0.56187 0.17887 0.23441 0.0
H1052 H 0.60549 0.1251 0.23542 0.0
C1053 C 0.63178 0.18765 0.23429 0.0
C1054 C 0.69239 0.17397 0.23605 0.0
H1055 H 0.51624 0.1899 0.23527 0.0
H1056 H 0.63801 0.20511 0.23531 0.0
C1057 C 0.68165 0.15134 0.23426 0.0
C1058 C 0.11145 0.64259 0.2345 0.0
C1059 C 0.05099 0.65633 0.23618 0.0
H1060 H 0.22696 0.64023 0.23549 0.0
C1061 C 0.06196 0.67894 0.23423 0.0
H1062 H 0.10502 0.62513 0.23565 0.0
C1063 C 0.13196 0.68765 0.23423 0.0
C1064 C 0.1924 0.67392 0.23623 0.0
H1065 H 0.01644 0.69002 0.23493 0.0
H1066 H 0.13836 0.70511 0.23517 0.0
C1067 C 0.18145 0.6513 0.23453 0.0
C1068 C 0.63199 0.64254 0.58151 0.0
C1069 C 0.69244 0.6563 0.57987 0.0
H1070 H 0.51648 0.64013 0.58061 0.0
C1071 C 0.68143 0.6789 0.58184 0.0
H1072 H 0.63845 0.62508 0.58034 0.0
C1073 C 0.61141 0.68759 0.58189 0.0
C1074 C 0.55097 0.67384 0.57995 0.0
H1075 H 0.72693 0.69 0.58116 0.0
H1076 H 0.60498 0.70505 0.58103 0.0
C1077 C 0.56197 0.65122 0.58154 0.0
C1078 C 0.06115 0.15094 0.58131 0.0
C1079 C 0.05043 0.17357 0.57966 0.0
H1080 H 0.1373 0.12472 0.58025 0.0
C1081 C 0.11104 0.18726 0.58166 0.0
H1082 H 0.01552 0.1399 0.58034 0.0
C1083 C 0.18094 0.17849 0.58171 0.0
C1084 C 0.19169 0.15587 0.5798 0.0
H1085 H 0.10482 0.20472 0.58075 0.0
H1086 H 0.22658 0.18954 0.58107 0.0
C1087 C 0.13106 0.14218 0.58138 0.0
loop_
_geom_bond_atom_site_label_1
_geom_bond_atom_site_label_2
_geom_bond_distance
_geom_bond_site_symmetry_2
_ccdc_geom_bond_type
O0 Cd1 2.223 . S
O0 C8 1.315 . S
Cd1 O0 2.223 . S
Cd1 O4 2.297 . S
Cd1 O5 2.439 . S
Cd1 O11 2.240 . S
Cd2 O3 2.240 . S
Cd2 O10 2.223 . S
Cd2 O12 2.297 . S
Cd2 O13 2.439 . S
O3 Cd2 2.240 . S
O3 C8 1.279 . S
O4 Cd1 2.297 . S
O4 C6 1.247 . S
O5 Cd1 2.439 . S
O5 C6 1.208 . S
C6 O4 1.247 . S
C6 O5 1.208 . S
C7 O12 1.247 . S
C7 O13 1.208 . S
C8 O0 1.315 . S
C8 O3 1.279 . S
C9 O10 1.315 . S
C9 O11 1.279 . S
O10 Cd2 2.223 . S
O10 C9 1.315 . S
O11 Cd1 2.240 . S
O11 C9 1.279 . S
O12 Cd2 2.297 . S
O12 C7 1.247 . S
O13 Cd2 2.439 . S
O13 C7 1.208 . S
O14 Cd15 2.223 . S
O14 C22 1.315 . S
Cd15 O14 2.223 . S
Cd15 O18 2.297 . S
Cd15 O19 2.439 . S
Cd15 O25 2.240 . S
Cd16 O17 2.240 . S
Cd16 O24 2.223 . S
Cd16 O26 2.297 . S
Cd16 O27 2.439 . S
O17 Cd16 2.240 . S
O17 C22 1.279 . S
O18 Cd15 2.297 . S
O18 C20 1.247 . S
O19 Cd15 2.439 . S
O19 C20 1.208 . S
C20 O18 1.247 . S
C20 O19 1.208 . S
C21 O26 1.247 . S
C21 O27 1.208 . S
C22 O14 1.315 . S
C22 O17 1.279 . S
C23 O24 1.315 . S
C23 O25 1.279 . S
O24 Cd16 2.223 . S
O24 C23 1.315 . S
O25 Cd15 2.240 . S
O25 C23 1.279 . S
O26 Cd16 2.297 . S
O26 C21 1.247 . S
O27 Cd16 2.439 . S
O27 C21 1.208 . S
O28 Cd29 2.223 . S
O28 C36 1.315 . S
Cd29 O28 2.223 . S
Cd29 O32 2.297 . S
Cd29 O33 2.439 1_554 S
Cd29 O39 2.240 1_554 S
Cd30 O31 2.240 1_556 S
Cd30 O38 2.223 1_556 S
Cd30 O40 2.297 . S
Cd30 O41 2.439 . S
O31 Cd30 2.240 1_554 S
O31 C36 1.279 . S
O32 Cd29 2.297 . S
O32 C34 1.247 . S
O33 Cd29 2.439 1_556 S
O33 C34 1.208 1_556 S
C34 O32 1.247 . S
C34 O33 1.208 1_554 S
C35 O40 1.247 . S
C35 O41 1.208 . S
C36 O28 1.315 . S
C36 O31 1.279 . S
C37 O38 1.315 . S
C37 O39 1.279 1_554 S
O38 Cd30 2.223 1_554 S
O38 C37 1.315 . S
O39 Cd29 2.240 1_556 S
O39 C37 1.279 1_556 S
O40 Cd30 2.297 . S
O40 C35 1.247 . S
O41 Cd30 2.439 . S
O41 C35 1.208 . S
O42 Cd43 2.223 . S
O42 C50 1.315 . S
Cd43 O42 2.223 . S
Cd43 O46 2.297 . S
Cd43 O47 2.439 1_554 S
Cd43 O53 2.240 1_554 S
Cd44 O45 2.240 1_556 S
Cd44 O52 2.223 1_556 S
Cd44 O54 2.297 . S
Cd44 O55 2.439 . S
O45 Cd44 2.240 1_554 S
O45 C50 1.279 . S
O46 Cd43 2.297 . S
O46 C48 1.247 . S
O47 Cd43 2.439 1_556 S
O47 C48 1.208 1_556 S
C48 O46 1.247 . S
C48 O47 1.208 1_554 S
C49 O54 1.247 . S
C49 O55 1.208 . S
C50 O42 1.315 . S
C50 O45 1.279 . S
C51 O52 1.315 . S
C51 O53 1.279 1_554 S
O52 Cd44 2.223 1_554 S
O52 C51 1.315 . S
O53 Cd43 2.240 1_556 S
O53 C51 1.279 1_556 S
O54 Cd44 2.297 . S
O54 C49 1.247 . S
O55 Cd44 2.439 . S
O55 C49 1.208 . S
O56 Cd57 2.223 . S
O56 C64 1.315 . S
Cd57 O56 2.223 . S
Cd57 O60 2.297 . S
Cd57 O61 2.439 . S
Cd57 O67 2.240 . S
Cd58 O59 2.240 . S
Cd58 O66 2.223 . S
Cd58 O68 2.297 . S
Cd58 O69 2.439 . S
O59 Cd58 2.240 . S
O59 C64 1.279 . S
O60 Cd57 2.297 . S
O60 C62 1.247 . S
O61 Cd57 2.439 . S
O61 C62 1.208 . S
C62 O60 1.247 . S
C62 O61 1.208 . S
C63 O68 1.247 . S
C63 O69 1.208 . S
C64 O56 1.315 . S
C64 O59 1.279 . S
C65 O66 1.315 . S
C65 O67 1.279 . S
O66 Cd58 2.223 . S
O66 C65 1.315 . S
O67 Cd57 2.240 . S
O67 C65 1.279 . S
O68 Cd58 2.297 . S
O68 C63 1.247 . S
O69 Cd58 2.439 . S
O69 C63 1.208 . S
O70 Cd71 2.223 . S
O70 C78 1.315 . S
Cd71 O70 2.223 . S
Cd71 O74 2.297 . S
Cd71 O75 2.439 . S
Cd71 O81 2.240 . S
Cd72 O73 2.240 . S
Cd72 O80 2.223 . S
Cd72 O82 2.297 . S
Cd72 O83 2.439 . S
O73 Cd72 2.240 . S
O73 C78 1.279 . S
O74 Cd71 2.297 . S
O74 C76 1.247 . S
O75 Cd71 2.439 . S
O75 C76 1.208 . S
C76 O74 1.247 . S
C76 O75 1.208 . S
C77 O82 1.247 . S
C77 O83 1.208 . S
C78 O70 1.315 . S
C78 O73 1.279 . S
C79 O80 1.315 . S
C79 O81 1.279 . S
O80 Cd72 2.223 . S
O80 C79 1.315 . S
O81 Cd71 2.240 . S
O81 C79 1.279 . S
O82 Cd72 2.297 . S
O82 C77 1.247 . S
O83 Cd72 2.439 . S
O83 C77 1.208 . S
O84 Cd85 2.223 . S
O84 C92 1.315 . S
Cd85 O84 2.223 . S
Cd85 O88 2.297 . S
Cd85 O89 2.439 1_556 S
Cd85 O95 2.240 1_556 S
Cd86 O87 2.240 1_554 S
Cd86 O94 2.223 1_554 S
Cd86 O96 2.297 . S
Cd86 O97 2.439 . S
O87 Cd86 2.240 1_556 S
O87 C92 1.279 . S
O88 Cd85 2.297 . S
O88 C90 1.247 . S
O89 Cd85 2.439 1_554 S
O89 C90 1.208 1_554 S
C90 O88 1.247 . S
C90 O89 1.208 1_556 S
C91 O96 1.247 . S
C91 O97 1.208 . S
C92 O84 1.315 . S
C92 O87 1.279 . S
C93 O94 1.315 . S
C93 O95 1.279 1_556 S
O94 Cd86 2.223 1_556 S
O94 C93 1.315 . S
O95 Cd85 2.240 1_554 S
O95 C93 1.279 1_554 S
O96 Cd86 2.297 . S
O96 C91 1.247 . S
O97 Cd86 2.439 . S
O97 C91 1.208 . S
O98 Cd99 2.223 . S
O98 C106 1.315 . S
Cd99 O98 2.223 . S
Cd99 O102 2.297 . S
Cd99 O103 2.439 1_556 S
Cd99 O109 2.240 1_556 S
Cd100 O101 2.240 1_554 S
Cd100 O108 2.223 1_554 S
Cd100 O110 2.297 . S
Cd100 O111 2.439 . S
O101 Cd100 2.240 1_556 S
O101 C106 1.279 . S
O102 Cd99 2.297 . S
O102 C104 1.247 . S
O103 Cd99 2.439 1_554 S
O103 C104 1.208 1_554 S
C104 O102 1.247 . S
C104 O103 1.208 1_556 S
C105 O110 1.247 . S
C105 O111 1.208 . S
C106 O98 1.315 . S
C106 O101 1.279 . S
C107 O108 1.315 . S
C107 O109 1.279 1_556 S
O108 Cd100 2.223 1_556 S
O108 C107 1.315 . S
O109 Cd99 2.240 1_554 S
O109 C107 1.279 1_554 S
O110 Cd100 2.297 . S
O110 C105 1.247 . S
O111 Cd100 2.439 . S
O111 C105 1.208 . S
O112 Cd113 2.223 . S
O112 C120 1.315 . S
Cd113 O112 2.223 . S
Cd113 O116 2.297 . S
Cd113 O117 2.439 . S
Cd113 O123 2.240 . S
Cd114 O115 2.240 . S
Cd114 O122 2.223 . S
Cd114 O124 2.297 . S
Cd114 O125 2.439 . S
O115 Cd114 2.240 . S
O115 C120 1.279 . S
O116 Cd113 2.297 . S
O116 C118 1.247 . S
O117 Cd113 2.439 . S
O117 C118 1.208 . S
C118 O116 1.247 . S
C118 O117 1.208 . S
C119 O124 1.247 . S
C119 O125 1.208 . S
C120 O112 1.315 . S
C120 O115 1.279 . S
C121 O122 1.315 . S
C121 O123 1.279 . S
O122 Cd114 2.223 . S
O122 C121 1.315 . S
O123 Cd113 2.240 . S
O123 C121 1.279 . S
O124 Cd114 2.297 . S
O124 C119 1.247 . S
O125 Cd114 2.439 . S
O125 C119 1.208 . S
O126 Cd127 2.223 . S
O126 C134 1.315 . S
Cd127 O126 2.223 . S
Cd127 O130 2.297 . S
Cd127 O131 2.439 . S
Cd127 O137 2.240 . S
Cd128 O129 2.240 . S
Cd128 O136 2.223 . S
Cd128 O138 2.297 . S
Cd128 O139 2.439 . S
O129 Cd128 2.240 . S
O129 C134 1.279 . S
O130 Cd127 2.297 . S
O130 C132 1.247 . S
O131 Cd127 2.439 . S
O131 C132 1.208 . S
C132 O130 1.247 . S
C132 O131 1.208 . S
C133 O138 1.247 . S
C133 O139 1.208 . S
C134 O126 1.315 . S
C134 O129 1.279 . S
C135 O136 1.315 . S
C135 O137 1.279 . S
O136 Cd128 2.223 . S
O136 C135 1.315 . S
O137 Cd127 2.240 . S
O137 C135 1.279 . S
O138 Cd128 2.297 . S
O138 C133 1.247 . S
O139 Cd128 2.439 . S
O139 C133 1.208 . S
O140 Cd141 2.223 . S
O140 C148 1.315 . S
Cd141 O140 2.223 . S
Cd141 O144 2.297 . S
Cd141 O145 2.439 . S
Cd141 O151 2.240 . S
Cd142 O143 2.240 . S
Cd142 O150 2.223 . S
Cd142 O152 2.297 . S
Cd142 O153 2.439 . S
O143 Cd142 2.240 . S
O143 C148 1.279 . S
O144 Cd141 2.297 . S
O144 C146 1.247 . S
O145 Cd141 2.439 . S
O145 C146 1.208 . S
C146 O144 1.247 . S
C146 O145 1.208 . S
C147 O152 1.247 . S
C147 O153 1.208 . S
C148 O140 1.315 . S
C148 O143 1.279 . S
C149 O150 1.315 . S
C149 O151 1.279 . S
O150 Cd142 2.223 . S
O150 C149 1.315 . S
O151 Cd141 2.240 . S
O151 C149 1.279 . S
O152 Cd142 2.297 . S
O152 C147 1.247 . S
O153 Cd142 2.439 . S
O153 C147 1.208 . S
O154 Cd155 2.223 . S
O154 C162 1.315 . S
Cd155 O154 2.223 . S
Cd155 O158 2.297 . S
Cd155 O159 2.439 . S
Cd155 O165 2.240 . S
Cd156 O157 2.240 . S
Cd156 O164 2.223 . S
Cd156 O166 2.297 . S
Cd156 O167 2.439 . S
O157 Cd156 2.240 . S
O157 C162 1.279 . S
O158 Cd155 2.297 . S
O158 C160 1.247 . S
O159 Cd155 2.439 . S
O159 C160 1.208 . S
C160 O158 1.247 . S
C160 O159 1.208 . S
C161 O166 1.247 . S
C161 O167 1.208 . S
C162 O154 1.315 . S
C162 O157 1.279 . S
C163 O164 1.315 . S
C163 O165 1.279 . S
O164 Cd156 2.223 . S
O164 C163 1.315 . S
O165 Cd155 2.240 . S
O165 C163 1.279 . S
O166 Cd156 2.297 . S
O166 C161 1.247 . S
O167 Cd156 2.439 . S
O167 C161 1.208 . S
O168 Cd169 2.223 . S
O168 C176 1.315 . S
Cd169 O168 2.223 . S
Cd169 O172 2.297 . S
Cd169 O173 2.439 . S
Cd169 O179 2.240 . S
Cd170 O171 2.240 . S
Cd170 O178 2.223 . S
Cd170 O180 2.297 . S
Cd170 O181 2.439 . S
O171 Cd170 2.240 . S
O171 C176 1.279 . S
O172 Cd169 2.297 . S
O172 C174 1.247 . S
O173 Cd169 2.439 . S
O173 C174 1.208 . S
C174 O172 1.247 . S
C174 O173 1.208 . S
C175 O180 1.247 . S
C175 O181 1.208 . S
C176 O168 1.315 . S
C176 O171 1.279 . S
C177 O178 1.315 . S
C177 O179 1.279 . S
O178 Cd170 2.223 . S
O178 C177 1.315 . S
O179 Cd169 2.240 . S
O179 C177 1.279 . S
O180 Cd170 2.297 . S
O180 C175 1.247 . S
O181 Cd170 2.439 . S
O181 C175 1.208 . S
O182 Cd183 2.223 . S
O182 C190 1.315 . S
Cd183 O182 2.223 . S
Cd183 O186 2.297 . S
Cd183 O187 2.439 . S
Cd183 O193 2.240 . S
Cd184 O185 2.240 . S
Cd184 O192 2.223 . S
Cd184 O194 2.297 . S
Cd184 O195 2.439 . S
O185 Cd184 2.240 . S
O185 C190 1.279 . S
O186 Cd183 2.297 . S
O186 C188 1.247 . S
O187 Cd183 2.439 . S
O187 C188 1.208 . S
C188 O186 1.247 . S
C188 O187 1.208 . S
C189 O194 1.247 . S
C189 O195 1.208 . S
C190 O182 1.315 . S
C190 O185 1.279 . S
C191 O192 1.315 . S
C191 O193 1.279 . S
O192 Cd184 2.223 . S
O192 C191 1.315 . S
O193 Cd183 2.240 . S
O193 C191 1.279 . S
O194 Cd184 2.297 . S
O194 C189 1.247 . S
O195 Cd184 2.439 . S
O195 C189 1.208 . S
O196 Cd197 2.223 . S
O196 C204 1.315 . S
Cd197 O196 2.223 . S
Cd197 O200 2.297 . S
Cd197 O201 2.439 . S
Cd197 O207 2.240 . S
Cd198 O199 2.240 . S
Cd198 O206 2.223 . S
Cd198 O208 2.297 . S
Cd198 O209 2.439 . S
O199 Cd198 2.240 . S
O199 C204 1.279 . S
O200 Cd197 2.297 . S
O200 C202 1.247 . S
O201 Cd197 2.439 . S
O201 C202 1.208 . S
C202 O200 1.247 . S
C202 O201 1.208 . S
C203 O208 1.247 . S
C203 O209 1.208 . S
C204 O196 1.315 . S
C204 O199 1.279 . S
C205 O206 1.315 . S
C205 O207 1.279 . S
O206 Cd198 2.223 . S
O206 C205 1.315 . S
O207 Cd197 2.240 . S
O207 C205 1.279 . S
O208 Cd198 2.297 . S
O208 C203 1.247 . S
O209 Cd198 2.439 . S
O209 C203 1.208 . S
O210 Cd211 2.223 . S
O210 C218 1.315 . S
Cd211 O210 2.223 . S
Cd211 O214 2.297 . S
Cd211 O215 2.439 . S
Cd211 O221 2.240 . S
Cd212 O213 2.240 . S
Cd212 O220 2.223 . S
Cd212 O222 2.297 . S
Cd212 O223 2.439 . S
O213 Cd212 2.240 . S
O213 C218 1.279 . S
O214 Cd211 2.297 . S
O214 C216 1.247 . S
O215 Cd211 2.439 . S
O215 C216 1.208 . S
C216 O214 1.247 . S
C216 O215 1.208 . S
C217 O222 1.247 . S
C217 O223 1.208 . S
C218 O210 1.315 . S
C218 O213 1.279 . S
C219 O220 1.315 . S
C219 O221 1.279 . S
O220 Cd212 2.223 . S
O220 C219 1.315 . S
O221 Cd211 2.240 . S
O221 C219 1.279 . S
O222 Cd212 2.297 . S
O222 C217 1.247 . S
O223 Cd212 2.439 . S
O223 C217 1.208 . S
O224 Cd225 2.223 . S
O224 C232 1.315 . S
Cd225 O224 2.223 . S
Cd225 O228 2.297 . S
Cd225 O229 2.439 . S
Cd225 O235 2.240 . S
Cd226 O227 2.240 . S
Cd226 O234 2.223 . S
Cd226 O236 2.297 . S
Cd226 O237 2.439 . S
O227 Cd226 2.240 . S
O227 C232 1.279 . S
O228 Cd225 2.297 . S
O228 C230 1.247 . S
O229 Cd225 2.439 . S
O229 C230 1.208 . S
C230 O228 1.247 . S
C230 O229 1.208 . S
C231 O236 1.247 . S
C231 O237 1.208 . S
C232 O224 1.315 . S
C232 O227 1.279 . S
C233 O234 1.315 . S
C233 O235 1.279 . S
O234 Cd226 2.223 . S
O234 C233 1.315 . S
O235 Cd225 2.240 . S
O235 C233 1.279 . S
O236 Cd226 2.297 . S
O236 C231 1.247 . S
O237 Cd226 2.439 . S
O237 C231 1.208 . S
O238 Cd239 2.223 . S
O238 C246 1.315 . S
Cd239 O238 2.223 . S
Cd239 O242 2.297 . S
Cd239 O243 2.439 . S
Cd239 O249 2.240 . S
Cd240 O241 2.240 . S
Cd240 O248 2.223 . S
Cd240 O250 2.297 . S
Cd240 O251 2.439 . S
O241 Cd240 2.240 . S
O241 C246 1.279 . S
O242 Cd239 2.297 . S
O242 C244 1.247 . S
O243 Cd239 2.439 . S
O243 C244 1.208 . S
C244 O242 1.247 . S
C244 O243 1.208 . S
C245 O250 1.247 . S
C245 O251 1.208 . S
C246 O238 1.315 . S
C246 O241 1.279 . S
C247 O248 1.315 . S
C247 O249 1.279 . S
O248 Cd240 2.223 . S
O248 C247 1.315 . S
O249 Cd239 2.240 . S
O249 C247 1.279 . S
O250 Cd240 2.297 . S
O250 C245 1.247 . S
O251 Cd240 2.439 . S
O251 C245 1.208 . S
O252 Cd253 2.223 . S
O252 C260 1.315 . S
Cd253 O252 2.223 . S
Cd253 O256 2.297 . S
Cd253 O257 2.439 . S
Cd253 O263 2.240 . S
Cd254 O255 2.240 . S
Cd254 O262 2.223 . S
Cd254 O264 2.297 . S
Cd254 O265 2.439 . S
O255 Cd254 2.240 . S
O255 C260 1.279 . S
O256 Cd253 2.297 . S
O256 C258 1.247 . S
O257 Cd253 2.439 . S
O257 C258 1.208 . S
C258 O256 1.247 . S
C258 O257 1.208 . S
C259 O264 1.247 . S
C259 O265 1.208 . S
C260 O252 1.315 . S
C260 O255 1.279 . S
C261 O262 1.315 . S
C261 O263 1.279 . S
O262 Cd254 2.223 . S
O262 C261 1.315 . S
O263 Cd253 2.240 . S
O263 C261 1.279 . S
O264 Cd254 2.297 . S
O264 C259 1.247 . S
O265 Cd254 2.439 . S
O265 C259 1.208 . S
O266 Cd267 2.223 . S
O266 C274 1.315 . S
Cd267 O266 2.223 . S
Cd267 O270 2.297 . S
Cd267 O271 2.439 . S
Cd267 O277 2.240 . S
Cd268 O269 2.240 . S
Cd268 O276 2.223 . S
Cd268 O278 2.297 . S
Cd268 O279 2.439 . S
O269 Cd268 2.240 . S
O269 C274 1.279 . S
O270 Cd267 2.297 . S
O270 C272 1.247 . S
O271 Cd267 2.439 . S
O271 C272 1.208 . S
C272 O270 1.247 . S
C272 O271 1.208 . S
C273 O278 1.247 . S
C273 O279 1.208 . S
C274 O266 1.315 . S
C274 O269 1.279 . S
C275 O276 1.315 . S
C275 O277 1.279 . S
O276 Cd268 2.223 . S
O276 C275 1.315 . S
O277 Cd267 2.240 . S
O277 C275 1.279 . S
O278 Cd268 2.297 . S
O278 C273 1.247 . S
O279 Cd268 2.439 . S
O279 C273 1.208 . S
O280 Cd281 2.223 . S
O280 C288 1.315 . S
Cd281 O280 2.223 . S
Cd281 O284 2.297 . S
Cd281 O285 2.439 . S
Cd281 O291 2.240 . S
Cd282 O283 2.240 . S
Cd282 O290 2.223 . S
Cd282 O292 2.297 . S
Cd282 O293 2.439 . S
O283 Cd282 2.240 . S
O283 C288 1.279 . S
O284 Cd281 2.297 . S
O284 C286 1.247 . S
O285 Cd281 2.439 . S
O285 C286 1.208 . S
C286 O284 1.247 . S
C286 O285 1.208 . S
C287 O292 1.247 . S
C287 O293 1.208 . S
C288 O280 1.315 . S
C288 O283 1.279 . S
C289 O290 1.315 . S
C289 O291 1.279 . S
O290 Cd282 2.223 . S
O290 C289 1.315 . S
O291 Cd281 2.240 . S
O291 C289 1.279 . S
O292 Cd282 2.297 . S
O292 C287 1.247 . S
O293 Cd282 2.439 . S
O293 C287 1.208 . S
O294 Cd295 2.223 . S
O294 C302 1.315 . S
Cd295 O294 2.223 . S
Cd295 O298 2.297 . S
Cd295 O299 2.439 . S
Cd295 O305 2.240 . S
Cd296 O297 2.240 . S
Cd296 O304 2.223 . S
Cd296 O306 2.297 . S
Cd296 O307 2.439 . S
O297 Cd296 2.240 . S
O297 C302 1.279 . S
O298 Cd295 2.297 . S
O298 C300 1.247 . S
O299 Cd295 2.439 . S
O299 C300 1.208 . S
C300 O298 1.247 . S
C300 O299 1.208 . S
C301 O306 1.247 . S
C301 O307 1.208 . S
C302 O294 1.315 . S
C302 O297 1.279 . S
C303 O304 1.315 . S
C303 O305 1.279 . S
O304 Cd296 2.223 . S
O304 C303 1.315 . S
O305 Cd295 2.240 . S
O305 C303 1.279 . S
O306 Cd296 2.297 . S
O306 C301 1.247 . S
O307 Cd296 2.439 . S
O307 C301 1.208 . S
O308 Cd309 2.223 . S
O308 C316 1.315 . S
Cd309 O308 2.223 . S
Cd309 O312 2.297 . S
Cd309 O313 2.439 . S
Cd309 O319 2.240 . S
Cd310 O311 2.240 . S
Cd310 O318 2.223 . S
Cd310 O320 2.297 . S
Cd310 O321 2.439 . S
O311 Cd310 2.240 . S
O311 C316 1.279 . S
O312 Cd309 2.297 . S
O312 C314 1.247 . S
O313 Cd309 2.439 . S
O313 C314 1.208 . S
C314 O312 1.247 . S
C314 O313 1.208 . S
C315 O320 1.247 . S
C315 O321 1.208 . S
C316 O308 1.315 . S
C316 O311 1.279 . S
C317 O318 1.315 . S
C317 O319 1.279 . S
O318 Cd310 2.223 . S
O318 C317 1.315 . S
O319 Cd309 2.240 . S
O319 C317 1.279 . S
O320 Cd310 2.297 . S
O320 C315 1.247 . S
O321 Cd310 2.439 . S
O321 C315 1.208 . S
O322 Cd323 2.223 . S
O322 C330 1.315 . S
Cd323 O322 2.223 . S
Cd323 O326 2.297 . S
Cd323 O327 2.439 . S
Cd323 O333 2.240 . S
Cd324 O325 2.240 . S
Cd324 O332 2.223 . S
Cd324 O334 2.297 . S
Cd324 O335 2.439 . S
O325 Cd324 2.240 . S
O325 C330 1.279 . S
O326 Cd323 2.297 . S
O326 C328 1.247 . S
O327 Cd323 2.439 . S
O327 C328 1.208 . S
C328 O326 1.247 . S
C328 O327 1.208 . S
C329 O334 1.247 . S
C329 O335 1.208 . S
C330 O322 1.315 . S
C330 O325 1.279 . S
C331 O332 1.315 . S
C331 O333 1.279 . S
O332 Cd324 2.223 . S
O332 C331 1.315 . S
O333 Cd323 2.240 . S
O333 C331 1.279 . S
O334 Cd324 2.297 . S
O334 C329 1.247 . S
O335 Cd324 2.439 . S
O335 C329 1.208 . S
O336 Cd337 2.223 . S
O336 C344 1.315 . S
Cd337 O336 2.223 . S
Cd337 O340 2.297 . S
Cd337 O341 2.439 . S
Cd337 O347 2.240 . S
Cd338 O339 2.240 . S
Cd338 O346 2.223 . S
Cd338 O348 2.297 . S
Cd338 O349 2.439 . S
O339 Cd338 2.240 . S
O339 C344 1.279 . S
O340 Cd337 2.297 . S
O340 C342 1.247 . S
O341 Cd337 2.439 . S
O341 C342 1.208 . S
C342 O340 1.247 . S
C342 O341 1.208 . S
C343 O348 1.247 . S
C343 O349 1.208 . S
C344 O336 1.315 . S
C344 O339 1.279 . S
C345 O346 1.315 . S
C345 O347 1.279 . S
O346 Cd338 2.223 . S
O346 C345 1.315 . S
O347 Cd337 2.240 . S
O347 C345 1.279 . S
O348 Cd338 2.297 . S
O348 C343 1.247 . S
O349 Cd338 2.439 . S
O349 C343 1.208 . S
O350 Cd351 2.223 . S
O350 C358 1.315 . S
Cd351 O350 2.223 . S
Cd351 O354 2.297 . S
Cd351 O355 2.439 . S
Cd351 O361 2.240 . S
Cd352 O353 2.240 . S
Cd352 O360 2.223 . S
Cd352 O362 2.297 . S
Cd352 O363 2.439 . S
O353 Cd352 2.240 . S
O353 C358 1.279 . S
O354 Cd351 2.297 . S
O354 C356 1.247 . S
O355 Cd351 2.439 . S
O355 C356 1.208 . S
C356 O354 1.247 . S
C356 O355 1.208 . S
C357 O362 1.247 . S
C357 O363 1.208 . S
C358 O350 1.315 . S
C358 O353 1.279 . S
C359 O360 1.315 . S
C359 O361 1.279 . S
O360 Cd352 2.223 . S
O360 C359 1.315 . S
O361 Cd351 2.240 . S
O361 C359 1.279 . S
O362 Cd352 2.297 . S
O362 C357 1.247 . S
O363 Cd352 2.439 . S
O363 C357 1.208 . S
O364 Cd365 2.223 . S
O364 C372 1.315 . S
Cd365 O364 2.223 . S
Cd365 O368 2.297 . S
Cd365 O369 2.439 1_554 S
Cd365 O375 2.240 1_554 S
Cd366 O367 2.240 1_556 S
Cd366 O374 2.223 1_556 S
Cd366 O376 2.297 . S
Cd366 O377 2.439 . S
O367 Cd366 2.240 1_554 S
O367 C372 1.279 . S
O368 Cd365 2.297 . S
O368 C370 1.247 . S
O369 Cd365 2.439 1_556 S
O369 C370 1.208 1_556 S
C370 O368 1.247 . S
C370 O369 1.208 1_554 S
C371 O376 1.247 . S
C371 O377 1.208 . S
C372 O364 1.315 . S
C372 O367 1.279 . S
C373 O374 1.315 . S
C373 O375 1.279 1_554 S
O374 Cd366 2.223 1_554 S
O374 C373 1.315 . S
O375 Cd365 2.240 1_556 S
O375 C373 1.279 1_556 S
O376 Cd366 2.297 . S
O376 C371 1.247 . S
O377 Cd366 2.439 . S
O377 C371 1.208 . S
O378 Cd379 2.223 . S
O378 C386 1.315 . S
Cd379 O378 2.223 . S
Cd379 O382 2.297 . S
Cd379 O383 2.439 1_554 S
Cd379 O389 2.240 1_554 S
Cd380 O381 2.240 1_556 S
Cd380 O388 2.223 1_556 S
Cd380 O390 2.297 . S
Cd380 O391 2.439 . S
O381 Cd380 2.240 1_554 S
O381 C386 1.279 . S
O382 Cd379 2.297 . S
O382 C384 1.247 . S
O383 Cd379 2.439 1_556 S
O383 C384 1.208 1_556 S
C384 O382 1.247 . S
C384 O383 1.208 1_554 S
C385 O390 1.247 . S
C385 O391 1.208 . S
C386 O378 1.315 . S
C386 O381 1.279 . S
C387 O388 1.315 . S
C387 O389 1.279 1_554 S
O388 Cd380 2.223 1_554 S
O388 C387 1.315 . S
O389 Cd379 2.240 1_556 S
O389 C387 1.279 1_556 S
O390 Cd380 2.297 . S
O390 C385 1.247 . S
O391 Cd380 2.439 . S
O391 C385 1.208 . S
O392 Cd393 2.223 . S
O392 C400 1.315 . S
Cd393 O392 2.223 . S
Cd393 O396 2.297 . S
Cd393 O397 2.439 . S
Cd393 O403 2.240 . S
Cd394 O395 2.240 . S
Cd394 O402 2.223 . S
Cd394 O404 2.297 . S
Cd394 O405 2.439 . S
O395 Cd394 2.240 . S
O395 C400 1.279 . S
O396 Cd393 2.297 . S
O396 C398 1.247 . S
O397 Cd393 2.439 . S
O397 C398 1.208 . S
C398 O396 1.247 . S
C398 O397 1.208 . S
C399 O404 1.247 . S
C399 O405 1.208 . S
C400 O392 1.315 . S
C400 O395 1.279 . S
C401 O402 1.315 . S
C401 O403 1.279 . S
O402 Cd394 2.223 . S
O402 C401 1.315 . S
O403 Cd393 2.240 . S
O403 C401 1.279 . S
O404 Cd394 2.297 . S
O404 C399 1.247 . S
O405 Cd394 2.439 . S
O405 C399 1.208 . S
O406 Cd407 2.223 . S
O406 C414 1.315 . S
Cd407 O406 2.223 . S
Cd407 O410 2.297 . S
Cd407 O411 2.439 . S
Cd407 O417 2.240 . S
Cd408 O409 2.240 . S
Cd408 O416 2.223 . S
Cd408 O418 2.297 . S
Cd408 O419 2.439 . S
O409 Cd408 2.240 . S
O409 C414 1.279 . S
O410 Cd407 2.297 . S
O410 C412 1.247 . S
O411 Cd407 2.439 . S
O411 C412 1.208 . S
C412 O410 1.247 . S
C412 O411 1.208 . S
C413 O418 1.247 . S
C413 O419 1.208 . S
C414 O406 1.315 . S
C414 O409 1.279 . S
C415 O416 1.315 . S
C415 O417 1.279 . S
O416 Cd408 2.223 . S
O416 C415 1.315 . S
O417 Cd407 2.240 . S
O417 C415 1.279 . S
O418 Cd408 2.297 . S
O418 C413 1.247 . S
O419 Cd408 2.439 . S
O419 C413 1.208 . S
O420 Cd421 2.223 . S
O420 C428 1.315 . S
Cd421 O420 2.223 . S
Cd421 O424 2.297 . S
Cd421 O425 2.439 1_556 S
Cd421 O431 2.240 1_556 S
Cd422 O423 2.240 1_554 S
Cd422 O430 2.223 1_554 S
Cd422 O432 2.297 . S
Cd422 O433 2.439 . S
O423 Cd422 2.240 1_556 S
O423 C428 1.279 . S
O424 Cd421 2.297 . S
O424 C426 1.247 . S
O425 Cd421 2.439 1_554 S
O425 C426 1.208 1_554 S
C426 O424 1.247 . S
C426 O425 1.208 1_556 S
C427 O432 1.247 . S
C427 O433 1.208 . S
C428 O420 1.315 . S
C428 O423 1.279 . S
C429 O430 1.315 . S
C429 O431 1.279 1_556 S
O430 Cd422 2.223 1_556 S
O430 C429 1.315 . S
O431 Cd421 2.240 1_554 S
O431 C429 1.279 1_554 S
O432 Cd422 2.297 . S
O432 C427 1.247 . S
O433 Cd422 2.439 . S
O433 C427 1.208 . S
O434 Cd435 2.223 . S
O434 C442 1.315 . S
Cd435 O434 2.223 . S
Cd435 O438 2.297 . S
Cd435 O439 2.439 1_556 S
Cd435 O445 2.240 1_556 S
Cd436 O437 2.240 1_554 S
Cd436 O444 2.223 1_554 S
Cd436 O446 2.297 . S
Cd436 O447 2.439 . S
O437 Cd436 2.240 1_556 S
O437 C442 1.279 . S
O438 Cd435 2.297 . S
O438 C440 1.247 . S
O439 Cd435 2.439 1_554 S
O439 C440 1.208 1_554 S
C440 O438 1.247 . S
C440 O439 1.208 1_556 S
C441 O446 1.247 . S
C441 O447 1.208 . S
C442 O434 1.315 . S
C442 O437 1.279 . S
C443 O444 1.315 . S
C443 O445 1.279 1_556 S
O444 Cd436 2.223 1_556 S
O444 C443 1.315 . S
O445 Cd435 2.240 1_554 S
O445 C443 1.279 1_554 S
O446 Cd436 2.297 . S
O446 C441 1.247 . S
O447 Cd436 2.439 . S
O447 C441 1.208 . S
C448 C449 1.387 . S
C448 H452 0.950 . S
C448 C457 1.390 . S
C449 C448 1.387 . S
C449 C451 1.387 . S
H450 C457 0.950 . S
C451 C449 1.387 . S
C451 C453 1.390 . S
C451 H455 0.950 . S
H452 C448 0.950 . S
C453 C451 1.390 . S
C453 C454 1.387 . S
C453 H456 0.950 . S
C454 C453 1.387 . S
C454 C457 1.387 . S
H455 C451 0.950 . S
H456 C453 0.950 . S
C457 C448 1.390 . S
C457 H450 0.950 . S
C457 C454 1.387 . S
C458 C459 1.387 . S
C458 H462 0.950 . S
C458 C467 1.390 . S
C459 C458 1.387 . S
C459 C461 1.387 . S
H460 C467 0.950 . S
C461 C459 1.387 . S
C461 C463 1.390 . S
C461 H465 0.950 . S
H462 C458 0.950 . S
C463 C461 1.390 . S
C463 C464 1.387 . S
C463 H466 0.950 . S
C464 C463 1.387 . S
C464 C467 1.387 . S
H465 C461 0.950 . S
H466 C463 0.950 . S
C467 C458 1.390 . S
C467 H460 0.950 . S
C467 C464 1.387 . S
C468 C469 1.387 . S
C468 H472 0.950 . S
C468 C477 1.390 . S
C469 C468 1.387 . S
C469 C471 1.387 . S
H470 C477 0.950 . S
C471 C469 1.387 . S
C471 C473 1.390 . S
C471 H475 0.950 . S
H472 C468 0.950 . S
C473 C471 1.390 . S
C473 C474 1.387 . S
C473 H476 0.950 . S
C474 C473 1.387 . S
C474 C477 1.387 . S
H475 C471 0.950 . S
H476 C473 0.950 . S
C477 C468 1.390 . S
C477 H470 0.950 . S
C477 C474 1.387 . S
C478 C479 1.387 . S
C478 H482 0.950 . S
C478 C487 1.390 . S
C479 C478 1.387 . S
C479 C481 1.387 . S
H480 C487 0.950 . S
C481 C479 1.387 . S
C481 C483 1.390 . S
C481 H485 0.950 . S
H482 C478 0.950 . S
C483 C481 1.390 . S
C483 C484 1.387 . S
C483 H486 0.950 . S
C484 C483 1.387 . S
C484 C487 1.387 . S
H485 C481 0.950 . S
H486 C483 0.950 . S
C487 C478 1.390 . S
C487 H480 0.950 . S
C487 C484 1.387 . S
C488 C489 1.387 . S
C488 H492 0.950 . S
C488 C497 1.390 . S
C489 C488 1.387 . S
C489 C491 1.387 . S
H490 C497 0.950 . S
C491 C489 1.387 . S
C491 C493 1.390 . S
C491 H495 0.950 . S
H492 C488 0.950 . S
C493 C491 1.390 . S
C493 C494 1.387 . S
C493 H496 0.950 . S
C494 C493 1.387 . S
C494 C497 1.387 . S
H495 C491 0.950 . S
H496 C493 0.950 . S
C497 C488 1.390 . S
C497 H490 0.950 . S
C497 C494 1.387 . S
C498 C499 1.387 . S
C498 H502 0.950 . S
C498 C507 1.390 . S
C499 C498 1.387 . S
C499 C501 1.387 . S
H500 C507 0.950 . S
C501 C499 1.387 . S
C501 C503 1.390 . S
C501 H505 0.950 . S
H502 C498 0.950 . S
C503 C501 1.390 . S
C503 C504 1.387 . S
C503 H506 0.950 . S
C504 C503 1.387 . S
C504 C507 1.387 . S
H505 C501 0.950 . S
H506 C503 0.950 . S
C507 C498 1.390 . S
C507 H500 0.950 . S
C507 C504 1.387 . S
C508 C509 1.387 . S
C508 H512 0.950 . S
C508 C517 1.390 . S
C509 C508 1.387 . S
C509 C511 1.387 . S
H510 C517 0.950 . S
C511 C509 1.387 . S
C511 C513 1.390 . S
C511 H515 0.950 . S
H512 C508 0.950 . S
C513 C511 1.390 . S
C513 C514 1.387 . S
C513 H516 0.950 . S
C514 C513 1.387 . S
C514 C517 1.387 . S
H515 C511 0.950 . S
H516 C513 0.950 . S
C517 C508 1.390 . S
C517 H510 0.950 . S
C517 C514 1.387 . S
C518 C519 1.387 . S
C518 H522 0.950 . S
C518 C527 1.390 . S
C519 C518 1.387 . S
C519 C521 1.387 . S
H520 C527 0.950 . S
C521 C519 1.387 . S
C521 C523 1.390 . S
C521 H525 0.950 . S
H522 C518 0.950 . S
C523 C521 1.390 . S
C523 C524 1.387 . S
C523 H526 0.950 . S
C524 C523 1.387 . S
C524 C527 1.387 . S
H525 C521 0.950 . S
H526 C523 0.950 . S
C527 C518 1.390 . S
C527 H520 0.950 . S
C527 C524 1.387 . S
C528 C529 1.387 . S
C528 H532 0.950 . S
C528 C537 1.390 . S
C529 C528 1.387 . S
C529 C531 1.387 . S
H530 C537 0.950 . S
C531 C529 1.387 . S
C531 C533 1.390 . S
C531 H535 0.950 . S
H532 C528 0.950 . S
C533 C531 1.390 . S
C533 C534 1.387 . S
C533 H536 0.950 . S
C534 C533 1.387 . S
C534 C537 1.387 . S
H535 C531 0.950 . S
H536 C533 0.950 . S
C537 C528 1.390 . S
C537 H530 0.950 . S
C537 C534 1.387 . S
C538 C539 1.387 . S
C538 H542 0.950 . S
C538 C547 1.390 . S
C539 C538 1.387 . S
C539 C541 1.387 . S
H540 C547 0.950 . S
C541 C539 1.387 . S
C541 C543 1.390 . S
C541 H545 0.950 . S
H542 C538 0.950 . S
C543 C541 1.390 . S
C543 C544 1.387 . S
C543 H546 0.950 . S
C544 C543 1.387 . S
C544 C547 1.387 . S
H545 C541 0.950 . S
H546 C543 0.950 . S
C547 C538 1.390 . S
C547 H540 0.950 . S
C547 C544 1.387 . S
C548 C549 1.387 . S
C548 H552 0.950 . S
C548 C557 1.390 . S
C549 C548 1.387 . S
C549 C551 1.387 . S
H550 C557 0.950 . S
C551 C549 1.387 . S
C551 C553 1.390 . S
C551 H555 0.950 . S
H552 C548 0.950 . S
C553 C551 1.390 . S
C553 C554 1.387 . S
C553 H556 0.950 . S
C554 C553 1.387 . S
C554 C557 1.387 . S
H555 C551 0.950 . S
H556 C553 0.950 . S
C557 C548 1.390 . S
C557 H550 0.950 . S
C557 C554 1.387 . S
C558 C559 1.387 . S
C558 H562 0.950 . S
C558 C567 1.390 . S
C559 C558 1.387 . S
C559 C561 1.387 . S
H560 C567 0.950 . S
C561 C559 1.387 . S
C561 C563 1.390 . S
C561 H565 0.950 . S
H562 C558 0.950 . S
C563 C561 1.390 . S
C563 C564 1.387 . S
C563 H566 0.950 . S
C564 C563 1.387 . S
C564 C567 1.387 . S
H565 C561 0.950 . S
H566 C563 0.950 . S
C567 C558 1.390 . S
C567 H560 0.950 . S
C567 C564 1.387 . S
C568 C569 1.387 . S
C568 H572 0.950 . S
C568 C577 1.390 . S
C569 C568 1.387 . S
C569 C571 1.387 . S
H570 C577 0.950 . S
C571 C569 1.387 . S
C571 C573 1.390 . S
C571 H575 0.950 . S
H572 C568 0.950 . S
C573 C571 1.390 . S
C573 C574 1.387 . S
C573 H576 0.950 . S
C574 C573 1.387 . S
C574 C577 1.387 . S
H575 C571 0.950 . S
H576 C573 0.950 . S
C577 C568 1.390 . S
C577 H570 0.950 . S
C577 C574 1.387 . S
C578 C579 1.387 . S
C578 H582 0.950 . S
C578 C587 1.390 . S
C579 C578 1.387 . S
C579 C581 1.387 . S
H580 C587 0.950 . S
C581 C579 1.387 . S
C581 C583 1.390 . S
C581 H585 0.950 . S
H582 C578 0.950 . S
C583 C581 1.390 . S
C583 C584 1.387 . S
C583 H586 0.950 . S
C584 C583 1.387 . S
C584 C587 1.387 . S
H585 C581 0.950 . S
H586 C583 0.950 . S
C587 C578 1.390 . S
C587 H580 0.950 . S
C587 C584 1.387 . S
C588 C589 1.387 . S
C588 H592 0.950 . S
C588 C597 1.390 . S
C589 C588 1.387 . S
C589 C591 1.387 . S
H590 C597 0.950 . S
C591 C589 1.387 . S
C591 C593 1.390 . S
C591 H595 0.950 . S
H592 C588 0.950 . S
C593 C591 1.390 . S
C593 C594 1.387 . S
C593 H596 0.950 . S
C594 C593 1.387 . S
C594 C597 1.387 . S
H595 C591 0.950 . S
H596 C593 0.950 . S
C597 C588 1.390 . S
C597 H590 0.950 . S
C597 C594 1.387 . S
C598 C599 1.387 . S
C598 H602 0.950 . S
C598 C607 1.390 . S
C599 C598 1.387 . S
C599 C601 1.387 . S
H600 C607 0.950 . S
C601 C599 1.387 . S
C601 C603 1.390 . S
C601 H605 0.950 . S
H602 C598 0.950 . S
C603 C601 1.390 . S
C603 C604 1.387 . S
C603 H606 0.950 . S
C604 C603 1.387 . S
C604 C607 1.387 . S
H605 C601 0.950 . S
H606 C603 0.950 . S
C607 C598 1.390 . S
C607 H600 0.950 . S
C607 C604 1.387 . S
C608 C609 1.387 1_455 S
C608 H612 0.950 . S
C608 C617 1.390 . S
C609 C608 1.387 1_655 S
C609 C611 1.387 . S
H610 C617 0.950 . S
C611 C609 1.387 . S
C611 C613 1.390 . S
C611 H615 0.950 . S
H612 C608 0.950 . S
C613 C611 1.390 . S
C613 C614 1.387 1_655 S
C613 H616 0.950 . S
C614 C613 1.387 1_455 S
C614 C617 1.387 . S
H615 C611 0.950 . S
H616 C613 0.950 . S
C617 C608 1.390 . S
C617 H610 0.950 . S
C617 C614 1.387 . S
C618 C619 1.387 . S
C618 H622 0.950 . S
C618 C627 1.390 1_565 S
C619 C618 1.387 . S
C619 C621 1.387 . S
H620 C627 0.950 . S
C621 C619 1.387 . S
C621 C623 1.390 1_565 S
C621 H625 0.950 . S
H622 C618 0.950 . S
C623 C621 1.390 1_545 S
C623 C624 1.387 . S
C623 H626 0.950 . S
C624 C623 1.387 . S
C624 C627 1.387 . S
H625 C621 0.950 . S
H626 C623 0.950 . S
C627 C618 1.390 1_545 S
C627 H620 0.950 . S
C627 C624 1.387 . S
C628 C629 1.387 . S
C628 H632 0.950 . S
C628 C637 1.390 1_465 S
C629 C628 1.387 . S
C629 C631 1.387 1_554 S
H630 C637 0.950 . S
C631 C629 1.387 1_556 S
C631 C633 1.390 1_465 S
C631 H635 0.950 . S
H632 C628 0.950 . S
C633 C631 1.390 1_645 S
C633 C634 1.387 . S
C633 H636 0.950 . S
C634 C633 1.387 . S
C634 C637 1.387 1_556 S
H635 C631 0.950 . S
H636 C633 0.950 . S
C637 C628 1.390 1_645 S
C637 H630 0.950 . S
C637 C634 1.387 1_554 S
C638 C639 1.387 . S
C638 H642 0.950 . S
C638 C647 1.390 . S
C639 C638 1.387 . S
C639 C641 1.387 1_556 S
H640 C647 0.950 . S
C641 C639 1.387 1_554 S
C641 C643 1.390 . S
C641 H645 0.950 . S
H642 C638 0.950 . S
C643 C641 1.390 . S
C643 C644 1.387 . S
C643 H646 0.950 . S
C644 C643 1.387 . S
C644 C647 1.387 1_554 S
H645 C641 0.950 . S
H646 C643 0.950 . S
C647 C638 1.390 . S
C647 H640 0.950 . S
C647 C644 1.387 1_556 S
C648 C649 1.387 1_455 S
C648 H652 0.950 . S
C648 C657 1.390 . S
C649 C648 1.387 1_655 S
C649 C651 1.387 . S
H650 C657 0.950 . S
C651 C649 1.387 . S
C651 C653 1.390 . S
C651 H655 0.950 . S
H652 C648 0.950 . S
C653 C651 1.390 . S
C653 C654 1.387 1_655 S
C653 H656 0.950 . S
C654 C653 1.387 1_455 S
C654 C657 1.387 . S
H655 C651 0.950 . S
H656 C653 0.950 . S
C657 C648 1.390 . S
C657 H650 0.950 . S
C657 C654 1.387 . S
C658 C659 1.387 . S
C658 H662 0.950 . S
C658 C667 1.390 1_565 S
C659 C658 1.387 . S
C659 C661 1.387 . S
H660 C667 0.950 . S
C661 C659 1.387 . S
C661 C663 1.390 1_565 S
C661 H665 0.950 . S
H662 C658 0.950 . S
C663 C661 1.390 1_545 S
C663 C664 1.387 . S
C663 H666 0.950 . S
C664 C663 1.387 . S
C664 C667 1.387 . S
H665 C661 0.950 . S
H666 C663 0.950 . S
C667 C658 1.390 1_545 S
C667 H660 0.950 . S
C667 C664 1.387 . S
C668 C669 1.387 . S
C668 H672 0.950 . S
C668 C677 1.390 . S
C669 C668 1.387 . S
C669 C671 1.387 1_554 S
H670 C677 0.950 . S
C671 C669 1.387 1_556 S
C671 C673 1.390 . S
C671 H675 0.950 . S
H672 C668 0.950 . S
C673 C671 1.390 . S
C673 C674 1.387 . S
C673 H676 0.950 . S
C674 C673 1.387 . S
C674 C677 1.387 1_556 S
H675 C671 0.950 . S
H676 C673 0.950 . S
C677 C668 1.390 . S
C677 H670 0.950 . S
C677 C674 1.387 1_554 S
C678 C679 1.387 . S
C678 H682 0.950 . S
C678 C687 1.390 . S
C679 C678 1.387 . S
C679 C681 1.387 . S
H680 C687 0.950 . S
C681 C679 1.387 . S
C681 C683 1.390 . S
C681 H685 0.950 . S
H682 C678 0.950 . S
C683 C681 1.390 . S
C683 C684 1.387 . S
C683 H686 0.950 . S
C684 C683 1.387 . S
C684 C687 1.387 . S
H685 C681 0.950 . S
H686 C683 0.950 . S
C687 C678 1.390 . S
C687 H680 0.950 . S
C687 C684 1.387 . S
C688 C689 1.387 1_455 S
C688 H692 0.950 . S
C688 C697 1.390 . S
C689 C688 1.387 1_655 S
C689 C691 1.387 . S
H690 C697 0.950 . S
C691 C689 1.387 . S
C691 C693 1.390 . S
C691 H695 0.950 . S
H692 C688 0.950 . S
C693 C691 1.390 . S
C693 C694 1.387 1_655 S
C693 H696 0.950 . S
C694 C693 1.387 1_455 S
C694 C697 1.387 . S
H695 C691 0.950 . S
H696 C693 0.950 . S
C697 C688 1.390 . S
C697 H690 0.950 . S
C697 C694 1.387 . S
C698 C699 1.387 . S
C698 H702 0.950 . S
C698 C707 1.390 . S
C699 C698 1.387 . S
C699 C701 1.387 . S
H700 C707 0.950 . S
C701 C699 1.387 . S
C701 C703 1.390 . S
C701 H705 0.950 . S
H702 C698 0.950 . S
C703 C701 1.390 . S
C703 C704 1.387 . S
C703 H706 0.950 . S
C704 C703 1.387 . S
C704 C707 1.387 . S
H705 C701 0.950 . S
H706 C703 0.950 . S
C707 C698 1.390 . S
C707 H700 0.950 . S
C707 C704 1.387 . S
C708 C709 1.387 . S
C708 H712 0.950 . S
C708 C717 1.390 . S
C709 C708 1.387 . S
C709 C711 1.387 . S
H710 C717 0.950 . S
C711 C709 1.387 . S
C711 C713 1.390 . S
C711 H715 0.950 . S
H712 C708 0.950 . S
C713 C711 1.390 . S
C713 C714 1.387 . S
C713 H716 0.950 . S
C714 C713 1.387 . S
C714 C717 1.387 . S
H715 C711 0.950 . S
H716 C713 0.950 . S
C717 C708 1.390 . S
C717 H710 0.950 . S
C717 C714 1.387 . S
C718 C719 1.387 . S
C718 H722 0.950 . S
C718 C727 1.390 . S
C719 C718 1.387 . S
C719 C721 1.387 . S
H720 C727 0.950 . S
C721 C719 1.387 . S
C721 C723 1.390 . S
C721 H725 0.950 . S
H722 C718 0.950 . S
C723 C721 1.390 . S
C723 C724 1.387 . S
C723 H726 0.950 . S
C724 C723 1.387 . S
C724 C727 1.387 . S
H725 C721 0.950 . S
H726 C723 0.950 . S
C727 C718 1.390 . S
C727 H720 0.950 . S
C727 C724 1.387 . S
C728 C729 1.387 . S
C728 H732 0.950 . S
C728 C737 1.390 . S
C729 C728 1.387 . S
C729 C731 1.387 . S
H730 C737 0.950 . S
C731 C729 1.387 . S
C731 C733 1.390 . S
C731 H735 0.950 . S
H732 C728 0.950 . S
C733 C731 1.390 . S
C733 C734 1.387 . S
C733 H736 0.950 . S
C734 C733 1.387 . S
C734 C737 1.387 . S
H735 C731 0.950 . S
H736 C733 0.950 . S
C737 C728 1.390 . S
C737 H730 0.950 . S
C737 C734 1.387 . S
C738 C739 1.387 . S
C738 H742 0.950 . S
C738 C747 1.390 1_545 S
C739 C738 1.387 . S
C739 C741 1.387 . S
H740 C747 0.950 . S
C741 C739 1.387 . S
C741 C743 1.390 1_545 S
C741 H745 0.950 . S
H742 C738 0.950 . S
C743 C741 1.390 1_565 S
C743 C744 1.387 . S
C743 H746 0.950 . S
C744 C743 1.387 . S
C744 C747 1.387 . S
H745 C741 0.950 . S
H746 C743 0.950 . S
C747 C738 1.390 1_565 S
C747 H740 0.950 . S
C747 C744 1.387 . S
C748 C749 1.387 . S
C748 H752 0.950 . S
C748 C757 1.390 . S
C749 C748 1.387 . S
C749 C751 1.387 . S
H750 C757 0.950 . S
C751 C749 1.387 . S
C751 C753 1.390 . S
C751 H755 0.950 . S
H752 C748 0.950 . S
C753 C751 1.390 . S
C753 C754 1.387 . S
C753 H756 0.950 . S
C754 C753 1.387 . S
C754 C757 1.387 . S
H755 C751 0.950 . S
H756 C753 0.950 . S
C757 C748 1.390 . S
C757 H750 0.950 . S
C757 C754 1.387 . S
C758 C759 1.387 1_556 S
C758 H762 0.950 . S
C758 C767 1.390 . S
C759 C758 1.387 1_554 S
C759 C761 1.387 . S
H760 C767 0.950 . S
C761 C759 1.387 . S
C761 C763 1.390 . S
C761 H765 0.950 . S
H762 C758 0.950 . S
C763 C761 1.390 . S
C763 C764 1.387 1_554 S
C763 H766 0.950 . S
C764 C763 1.387 1_556 S
C764 C767 1.387 . S
H765 C761 0.950 . S
H766 C763 0.950 . S
C767 C758 1.390 . S
C767 H760 0.950 . S
C767 C764 1.387 . S
C768 C769 1.387 . S
C768 H772 0.950 . S
C768 C777 1.390 . S
C769 C768 1.387 . S
C769 C771 1.387 1_455 S
H770 C777 0.950 . S
C771 C769 1.387 1_655 S
C771 C773 1.390 . S
C771 H775 0.950 . S
H772 C768 0.950 . S
C773 C771 1.390 . S
C773 C774 1.387 1_655 S
C773 H776 0.950 . S
C774 C773 1.387 1_455 S
C774 C777 1.387 . S
H775 C771 0.950 . S
H776 C773 0.950 . S
C777 C768 1.390 . S
C777 H770 0.950 . S
C777 C774 1.387 . S
C778 C779 1.387 . S
C778 H782 0.950 . S
C778 C787 1.390 . S
C779 C778 1.387 . S
C779 C781 1.387 . S
H780 C787 0.950 . S
C781 C779 1.387 . S
C781 C783 1.390 . S
C781 H785 0.950 . S
H782 C778 0.950 . S
C783 C781 1.390 . S
C783 C784 1.387 . S
C783 H786 0.950 . S
C784 C783 1.387 . S
C784 C787 1.387 . S
H785 C781 0.950 . S
H786 C783 0.950 . S
C787 C778 1.390 . S
C787 H780 0.950 . S
C787 C784 1.387 . S
C788 C789 1.387 . S
C788 H792 0.950 . S
C788 C797 1.390 . S
C789 C788 1.387 . S
C789 C791 1.387 . S
H790 C797 0.950 . S
C791 C789 1.387 . S
C791 C793 1.390 . S
C791 H795 0.950 . S
H792 C788 0.950 . S
C793 C791 1.390 . S
C793 C794 1.387 . S
C793 H796 0.950 . S
C794 C793 1.387 . S
C794 C797 1.387 . S
H795 C791 0.950 . S
H796 C793 0.950 . S
C797 C788 1.390 . S
C797 H790 0.950 . S
C797 C794 1.387 . S
C798 C799 1.387 . S
C798 H802 0.950 . S
C798 C807 1.390 . S
C799 C798 1.387 . S
C799 C801 1.387 . S
H800 C807 0.950 . S
C801 C799 1.387 . S
C801 C803 1.390 . S
C801 H805 0.950 . S
H802 C798 0.950 . S
C803 C801 1.390 . S
C803 C804 1.387 . S
C803 H806 0.950 . S
C804 C803 1.387 . S
C804 C807 1.387 . S
H805 C801 0.950 . S
H806 C803 0.950 . S
C807 C798 1.390 . S
C807 H800 0.950 . S
C807 C804 1.387 . S
C808 C809 1.387 . S
C808 H812 0.950 1_655 S
C808 C817 1.390 . S
C809 C808 1.387 . S
C809 C811 1.387 . S
H810 C817 0.950 1_455 S
C811 C809 1.387 . S
C811 C813 1.390 . S
C811 H815 0.950 . S
H812 C808 0.950 1_455 S
C813 C811 1.390 . S
C813 C814 1.387 . S
C813 H816 0.950 . S
C814 C813 1.387 . S
C814 C817 1.387 . S
H815 C811 0.950 . S
H816 C813 0.950 . S
C817 C808 1.390 . S
C817 H810 0.950 1_655 S
C817 C814 1.387 . S
C818 C819 1.387 . S
C818 H822 0.950 . S
C818 C827 1.390 . S
C819 C818 1.387 . S
C819 C821 1.387 . S
H820 C827 0.950 . S
C821 C819 1.387 . S
C821 C823 1.390 . S
C821 H825 0.950 . S
H822 C818 0.950 . S
C823 C821 1.390 . S
C823 C824 1.387 . S
C823 H826 0.950 . S
C824 C823 1.387 . S
C824 C827 1.387 . S
H825 C821 0.950 . S
H826 C823 0.950 . S
C827 C818 1.390 . S
C827 H820 0.950 . S
C827 C824 1.387 . S
C828 C829 1.387 1_455 S
C828 H832 0.950 . S
C828 C837 1.390 . S
C829 C828 1.387 1_655 S
C829 C831 1.387 . S
H830 C837 0.950 . S
C831 C829 1.387 . S
C831 C833 1.390 . S
C831 H835 0.950 . S
H832 C828 0.950 . S
C833 C831 1.390 . S
C833 C834 1.387 . S
C833 H836 0.950 . S
C834 C833 1.387 . S
C834 C837 1.387 1_655 S
H835 C831 0.950 . S
H836 C833 0.950 . S
C837 C828 1.390 . S
C837 H830 0.950 . S
C837 C834 1.387 1_455 S
C838 C839 1.387 . S
C838 H842 0.950 . S
C838 C847 1.390 . S
C839 C838 1.387 . S
C839 C841 1.387 . S
H840 C847 0.950 . S
C841 C839 1.387 . S
C841 C843 1.390 . S
C841 H845 0.950 . S
H842 C838 0.950 . S
C843 C841 1.390 . S
C843 C844 1.387 . S
C843 H846 0.950 . S
C844 C843 1.387 . S
C844 C847 1.387 . S
H845 C841 0.950 . S
H846 C843 0.950 . S
C847 C838 1.390 . S
C847 H840 0.950 . S
C847 C844 1.387 . S
C848 C849 1.387 . S
C848 H852 0.950 . S
C848 C857 1.390 . S
C849 C848 1.387 . S
C849 C851 1.387 . S
H850 C857 0.950 . S
C851 C849 1.387 . S
C851 C853 1.390 . S
C851 H855 0.950 . S
H852 C848 0.950 . S
C853 C851 1.390 . S
C853 C854 1.387 . S
C853 H856 0.950 . S
C854 C853 1.387 . S
C854 C857 1.387 . S
H855 C851 0.950 . S
H856 C853 0.950 . S
C857 C848 1.390 . S
C857 H850 0.950 . S
C857 C854 1.387 . S
C858 C859 1.387 . S
C858 H862 0.950 . S
C858 C867 1.390 . S
C859 C858 1.387 . S
C859 C861 1.387 . S
H860 C867 0.950 . S
C861 C859 1.387 . S
C861 C863 1.390 . S
C861 H865 0.950 . S
H862 C858 0.950 . S
C863 C861 1.390 . S
C863 C864 1.387 . S
C863 H866 0.950 . S
C864 C863 1.387 . S
C864 C867 1.387 . S
H865 C861 0.950 . S
H866 C863 0.950 . S
C867 C858 1.390 . S
C867 H860 0.950 . S
C867 C864 1.387 . S
C868 C869 1.387 . S
C868 H872 0.950 . S
C868 C877 1.390 . S
C869 C868 1.387 . S
C869 C871 1.387 . S
H870 C877 0.950 . S
C871 C869 1.387 . S
C871 C873 1.390 . S
C871 H875 0.950 . S
H872 C868 0.950 . S
C873 C871 1.390 . S
C873 C874 1.387 . S
C873 H876 0.950 . S
C874 C873 1.387 . S
C874 C877 1.387 . S
H875 C871 0.950 . S
H876 C873 0.950 . S
C877 C868 1.390 . S
C877 H870 0.950 . S
C877 C874 1.387 . S
C878 C879 1.387 . S
C878 H882 0.950 . S
C878 C887 1.390 . S
C879 C878 1.387 . S
C879 C881 1.387 . S
H880 C887 0.950 . S
C881 C879 1.387 . S
C881 C883 1.390 . S
C881 H885 0.950 . S
H882 C878 0.950 . S
C883 C881 1.390 . S
C883 C884 1.387 . S
C883 H886 0.950 . S
C884 C883 1.387 . S
C884 C887 1.387 . S
H885 C881 0.950 . S
H886 C883 0.950 . S
C887 C878 1.390 . S
C887 H880 0.950 . S
C887 C884 1.387 . S
C888 C889 1.387 . S
C888 H892 0.950 . S
C888 C897 1.390 . S
C889 C888 1.387 . S
C889 C891 1.387 . S
H890 C897 0.950 . S
C891 C889 1.387 . S
C891 C893 1.390 . S
C891 H895 0.950 . S
H892 C888 0.950 . S
C893 C891 1.390 . S
C893 C894 1.387 . S
C893 H896 0.950 . S
C894 C893 1.387 . S
C894 C897 1.387 . S
H895 C891 0.950 . S
H896 C893 0.950 . S
C897 C888 1.390 . S
C897 H890 0.950 . S
C897 C894 1.387 . S
C898 C899 1.387 . S
C898 H902 0.950 . S
C898 C907 1.390 . S
C899 C898 1.387 . S
C899 C901 1.387 . S
H900 C907 0.950 . S
C901 C899 1.387 . S
C901 C903 1.390 . S
C901 H905 0.950 . S
H902 C898 0.950 . S
C903 C901 1.390 . S
C903 C904 1.387 . S
C903 H906 0.950 . S
C904 C903 1.387 . S
C904 C907 1.387 . S
H905 C901 0.950 . S
H906 C903 0.950 . S
C907 C898 1.390 . S
C907 H900 0.950 . S
C907 C904 1.387 . S
C908 C909 1.387 . S
C908 H912 0.950 . S
C908 C917 1.390 . S
C909 C908 1.387 . S
C909 C911 1.387 . S
H910 C917 0.950 . S
C911 C909 1.387 . S
C911 C913 1.390 . S
C911 H915 0.950 . S
H912 C908 0.950 . S
C913 C911 1.390 . S
C913 C914 1.387 . S
C913 H916 0.950 . S
C914 C913 1.387 . S
C914 C917 1.387 . S
H915 C911 0.950 . S
H916 C913 0.950 . S
C917 C908 1.390 . S
C917 H910 0.950 . S
C917 C914 1.387 . S
C918 C919 1.387 . S
C918 H922 0.950 . S
C918 C927 1.390 . S
C919 C918 1.387 . S
C919 C921 1.387 . S
H920 C927 0.950 . S
C921 C919 1.387 . S
C921 C923 1.390 . S
C921 H925 0.950 . S
H922 C918 0.950 . S
C923 C921 1.390 . S
C923 C924 1.387 . S
C923 H926 0.950 . S
C924 C923 1.387 . S
C924 C927 1.387 . S
H925 C921 0.950 . S
H926 C923 0.950 . S
C927 C918 1.390 . S
C927 H920 0.950 . S
C927 C924 1.387 . S
C928 C929 1.387 . S
C928 H932 0.950 . S
C928 C937 1.390 . S
C929 C928 1.387 . S
C929 C931 1.387 . S
H930 C937 0.950 . S
C931 C929 1.387 . S
C931 C933 1.390 . S
C931 H935 0.950 . S
H932 C928 0.950 . S
C933 C931 1.390 . S
C933 C934 1.387 . S
C933 H936 0.950 . S
C934 C933 1.387 . S
C934 C937 1.387 . S
H935 C931 0.950 . S
H936 C933 0.950 . S
C937 C928 1.390 . S
C937 H930 0.950 . S
C937 C934 1.387 . S
C938 C939 1.387 . S
C938 H942 0.950 . S
C938 C947 1.390 . S
C939 C938 1.387 . S
C939 C941 1.387 . S
H940 C947 0.950 . S
C941 C939 1.387 . S
C941 C943 1.390 . S
C941 H945 0.950 . S
H942 C938 0.950 . S
C943 C941 1.390 . S
C943 C944 1.387 . S
C943 H946 0.950 . S
C944 C943 1.387 . S
C944 C947 1.387 . S
H945 C941 0.950 . S
H946 C943 0.950 . S
C947 C938 1.390 . S
C947 H940 0.950 . S
C947 C944 1.387 . S
C948 C949 1.387 1_556 S
C948 H952 0.950 . S
C948 C957 1.390 . S
C949 C948 1.387 1_554 S
C949 C951 1.387 . S
H950 C957 0.950 . S
C951 C949 1.387 . S
C951 C953 1.390 . S
C951 H955 0.950 . S
H952 C948 0.950 . S
C953 C951 1.390 . S
C953 C954 1.387 . S
C953 H956 0.950 . S
C954 C953 1.387 . S
C954 C957 1.387 1_554 S
H955 C951 0.950 . S
H956 C953 0.950 . S
C957 C948 1.390 . S
C957 H950 0.950 . S
C957 C954 1.387 1_556 S
C958 C959 1.387 . S
C958 H962 0.950 . S
C958 C967 1.390 . S
C959 C958 1.387 . S
C959 C961 1.387 1_554 S
H960 C967 0.950 . S
C961 C959 1.387 1_556 S
C961 C963 1.390 . S
C961 H965 0.950 . S
H962 C958 0.950 . S
C963 C961 1.390 . S
C963 C964 1.387 1_556 S
C963 H966 0.950 . S
C964 C963 1.387 1_554 S
C964 C967 1.387 . S
H965 C961 0.950 . S
H966 C963 0.950 . S
C967 C958 1.390 . S
C967 H960 0.950 . S
C967 C964 1.387 . S
C968 C969 1.387 . S
C968 H972 0.950 . S
C968 C977 1.390 . S
C969 C968 1.387 . S
C969 C971 1.387 . S
H970 C977 0.950 . S
C971 C969 1.387 . S
C971 C973 1.390 . S
C971 H975 0.950 . S
H972 C968 0.950 . S
C973 C971 1.390 . S
C973 C974 1.387 . S
C973 H976 0.950 . S
C974 C973 1.387 . S
C974 C977 1.387 . S
H975 C971 0.950 . S
H976 C973 0.950 . S
C977 C968 1.390 . S
C977 H970 0.950 . S
C977 C974 1.387 . S
C978 C979 1.387 . S
C978 H982 0.950 . S
C978 C987 1.390 . S
C979 C978 1.387 . S
C979 C981 1.387 . S
H980 C987 0.950 . S
C981 C979 1.387 . S
C981 C983 1.390 . S
C981 H985 0.950 . S
H982 C978 0.950 . S
C983 C981 1.390 . S
C983 C984 1.387 . S
C983 H986 0.950 . S
C984 C983 1.387 . S
C984 C987 1.387 . S
H985 C981 0.950 . S
H986 C983 0.950 . S
C987 C978 1.390 . S
C987 H980 0.950 . S
C987 C984 1.387 . S
C988 C989 1.387 1_554 S
C988 H992 0.950 . S
C988 C997 1.390 . S
C989 C988 1.387 1_556 S
C989 C991 1.387 . S
H990 C997 0.950 . S
C991 C989 1.387 . S
C991 C993 1.390 . S
C991 H995 0.950 . S
H992 C988 0.950 . S
C993 C991 1.390 . S
C993 C994 1.387 . S
C993 H996 0.950 . S
C994 C993 1.387 . S
C994 C997 1.387 1_556 S
H995 C991 0.950 . S
H996 C993 0.950 . S
C997 C988 1.390 . S
C997 H990 0.950 . S
C997 C994 1.387 1_554 S
C998 C999 1.387 . S
C998 H1002 0.950 . S
C998 C1007 1.390 . S
C999 C998 1.387 . S
C999 C1001 1.387 1_556 S
H1000 C1007 0.950 . S
C1001 C999 1.387 1_554 S
C1001 C1003 1.390 . S
C1001 H1005 0.950 . S
H1002 C998 0.950 . S
C1003 C1001 1.390 . S
C1003 C1004 1.387 1_554 S
C1003 H1006 0.950 . S
C1004 C1003 1.387 1_556 S
C1004 C1007 1.387 . S
H1005 C1001 0.950 . S
H1006 C1003 0.950 . S
C1007 C998 1.390 . S
C1007 H1000 0.950 . S
C1007 C1004 1.387 . S
C1008 C1009 1.387 . S
C1008 H1012 0.950 . S
C1008 C1017 1.390 . S
C1009 C1008 1.387 . S
C1009 C1011 1.387 . S
H1010 C1017 0.950 . S
C1011 C1009 1.387 . S
C1011 C1013 1.390 . S
C1011 H1015 0.950 . S
H1012 C1008 0.950 . S
C1013 C1011 1.390 . S
C1013 C1014 1.387 . S
C1013 H1016 0.950 . S
C1014 C1013 1.387 . S
C1014 C1017 1.387 . S
H1015 C1011 0.950 . S
H1016 C1013 0.950 . S
C1017 C1008 1.390 . S
C1017 H1010 0.950 . S
C1017 C1014 1.387 . S
C1018 C1019 1.387 . S
C1018 H1022 0.950 . S
C1018 C1027 1.390 . S
C1019 C1018 1.387 . S
C1019 C1021 1.387 . S
H1020 C1027 0.950 . S
C1021 C1019 1.387 . S
C1021 C1023 1.390 . S
C1021 H1025 0.950 . S
H1022 C1018 0.950 . S
C1023 C1021 1.390 . S
C1023 C1024 1.387 . S
C1023 H1026 0.950 . S
C1024 C1023 1.387 . S
C1024 C1027 1.387 . S
H1025 C1021 0.950 . S
H1026 C1023 0.950 . S
C1027 C1018 1.390 . S
C1027 H1020 0.950 . S
C1027 C1024 1.387 . S
C1028 C1029 1.387 . S
C1028 H1032 0.950 . S
C1028 C1037 1.390 . S
C1029 C1028 1.387 . S
C1029 C1031 1.387 . S
H1030 C1037 0.950 . S
C1031 C1029 1.387 . S
C1031 C1033 1.390 . S
C1031 H1035 0.950 . S
H1032 C1028 0.950 . S
C1033 C1031 1.390 . S
C1033 C1034 1.387 . S
C1033 H1036 0.950 . S
C1034 C1033 1.387 . S
C1034 C1037 1.387 . S
H1035 C1031 0.950 . S
H1036 C1033 0.950 . S
C1037 C1028 1.390 . S
C1037 H1030 0.950 . S
C1037 C1034 1.387 . S
C1038 C1039 1.387 . S
C1038 H1042 0.950 . S
C1038 C1047 1.390 . S
C1039 C1038 1.387 . S
C1039 C1041 1.387 . S
H1040 C1047 0.950 . S
C1041 C1039 1.387 . S
C1041 C1043 1.390 . S
C1041 H1045 0.950 . S
H1042 C1038 0.950 . S
C1043 C1041 1.390 . S
C1043 C1044 1.387 . S
C1043 H1046 0.950 . S
C1044 C1043 1.387 . S
C1044 C1047 1.387 . S
H1045 C1041 0.950 . S
H1046 C1043 0.950 . S
C1047 C1038 1.390 . S
C1047 H1040 0.950 . S
C1047 C1044 1.387 . S
C1048 C1049 1.387 . S
C1048 H1052 0.950 . S
C1048 C1057 1.390 . S
C1049 C1048 1.387 . S
C1049 C1051 1.387 . S
H1050 C1057 0.950 . S
C1051 C1049 1.387 . S
C1051 C1053 1.390 . S
C1051 H1055 0.950 . S
H1052 C1048 0.950 . S
C1053 C1051 1.390 . S
C1053 C1054 1.387 . S
C1053 H1056 0.950 . S
C1054 C1053 1.387 . S
C1054 C1057 1.387 . S
H1055 C1051 0.950 . S
H1056 C1053 0.950 . S
C1057 C1048 1.390 . S
C1057 H1050 0.950 . S
C1057 C1054 1.387 . S
C1058 C1059 1.387 . S
C1058 H1062 0.950 . S
C1058 C1067 1.390 . S
C1059 C1058 1.387 . S
C1059 C1061 1.387 . S
H1060 C1067 0.950 . S
C1061 C1059 1.387 . S
C1061 C1063 1.390 . S
C1061 H1065 0.950 . S
H1062 C1058 0.950 . S
C1063 C1061 1.390 . S
C1063 C1064 1.387 . S
C1063 H1066 0.950 . S
C1064 C1063 1.387 . S
C1064 C1067 1.387 . S
H1065 C1061 0.950 . S
H1066 C1063 0.950 . S
C1067 C1058 1.390 . S
C1067 H1060 0.950 . S
C1067 C1064 1.387 . S
C1068 C1069 1.387 . S
C1068 H1072 0.950 . S
C1068 C1077 1.390 . S
C1069 C1068 1.387 . S
C1069 C1071 1.387 . S
H1070 C1077 0.950 . S
C1071 C1069 1.387 . S
C1071 C1073 1.390 . S
C1071 H1075 0.950 . S
H1072 C1068 0.950 . S
C1073 C1071 1.390 . S
C1073 C1074 1.387 . S
C1073 H1076 0.950 . S
C1074 C1073 1.387 . S
C1074 C1077 1.387 . S
H1075 C1071 0.950 . S
H1076 C1073 0.950 . S
C1077 C1068 1.390 . S
C1077 H1070 0.950 . S
C1077 C1074 1.387 . S
C1078 C1079 1.387 . S
C1078 H1082 0.950 . S
C1078 C1087 1.390 . S
C1079 C1078 1.387 . S
C1079 C1081 1.387 . S
H1080 C1087 0.950 . S
C1081 C1079 1.387 . S
C1081 C1083 1.390 . S
C1081 H1085 0.950 . S
H1082 C1078 0.950 . S
C1083 C1081 1.390 . S
C1083 C1084 1.387 . S
C1083 H1086 0.950 . S
C1084 C1083 1.387 . S
C1084 C1087 1.387 . S
H1085 C1081 0.950 . S
H1086 C1083 0.950 . S
C1087 C1078 1.390 . S
C1087 H1080 0.950 . S
C1087 C1084 1.387 . S
C449 C8 1.447 . S
C454 C50 1.453 . S
C459 C36 1.449 . S
C464 C22 1.451 . S
C469 C64 1.444 . S
C474 C106 1.450 . S
C479 C92 1.449 . S
C484 C78 1.451 . S
C489 C120 1.378 . S
C494 C162 1.377 . S
C499 C148 1.380 . S
C504 C134 1.381 . S
C509 C176 1.378 . S
C514 C218 1.377 . S
C519 C190 1.381 . S
C524 C204 1.380 . S
C529 C274 1.380 . S
C534 C232 1.381 . S
C539 C246 1.378 . S
C544 C260 1.377 . S
C549 C288 1.378 . S
C554 C330 1.377 . S
C559 C316 1.377 . S
C564 C302 1.378 . S
C569 C344 1.447 . S
C574 C386 1.453 . S
C579 C372 1.449 . S
C584 C358 1.451 . S
C589 C400 1.444 . S
C594 C442 1.450 . S
C599 C414 1.447 . S
C604 C428 1.453 . S
C609 C174 1.584 . S
C614 C6 1.584 . S
C619 C20 1.582 . S
C624 C300 1.582 . S
C629 C34 1.498 . S
C634 C90 1.497 . S
C639 C440 1.495 . S
C644 C48 1.494 . S
C649 C62 1.582 . S
C654 C118 1.582 . S
C659 C244 1.581 . S
C664 C76 1.581 . S
C669 C384 1.498 . S
C674 C104 1.497 . S
C679 C412 1.581 . S
C684 C132 1.581 . S
C689 C202 1.520 . S
C694 C146 1.520 . S
C699 C328 1.520 . S
C704 C160 1.520 . S
C709 C188 1.584 . S
C714 C356 1.584 . S
C719 C272 1.522 . S
C724 C216 1.522 . S
C729 C398 1.581 . S
C734 C230 1.581 . S
C739 C314 1.520 . S
C744 C258 1.520 . S
C749 C342 1.583 . S
C754 C286 1.584 . S
C759 C370 1.495 . S
C764 C426 1.494 . S
C769 C147 1.496 . S
C774 C7 1.495 . S
C779 C21 1.495 . S
C784 C161 1.496 . S
C789 C119 1.425 . S
C794 C35 1.421 . S
C799 C133 1.425 . S
C804 C49 1.421 . S
C809 C63 1.495 . S
C814 C203 1.496 . S
C819 C77 1.495 . S
C824 C217 1.496 . S
C829 C175 1.425 . S
C834 C91 1.421 . S
C839 C105 1.425 . S
C844 C189 1.421 . S
C849 C371 1.425 . S
C854 C231 1.421 . S
C859 C385 1.426 . S
C864 C245 1.420 . S
C869 C259 1.496 . S
C874 C343 1.495 . S
C879 C273 1.496 . S
C884 C357 1.495 . S
C889 C287 1.425 . S
C894 C427 1.421 . S
C899 C301 1.425 . S
C904 C441 1.421 . S
C909 C399 1.495 . S
C914 C315 1.496 . S
C919 C413 1.495 . S
C924 C329 1.496 . S
C929 C9 1.552 . S
C934 C359 1.552 . S
C939 C345 1.552 . S
C944 C23 1.552 1_655 S
C949 C37 1.509 . S
C954 C387 1.509 . S
C959 C51 1.511 1_655 S
C964 C373 1.511 . S
C969 C65 1.552 . S
C974 C415 1.552 . S
C979 C79 1.554 1_455 S
C984 C401 1.554 . S
C989 C443 1.511 . S
C994 C93 1.511 . S
C999 C429 1.509 . S
C1004 C107 1.509 1_455 S
C1009 C247 1.552 . S
C1014 C121 1.552 . S
C1019 C233 1.552 . S
C1024 C135 1.552 1_655 S
C1029 C149 1.520 . S
C1034 C275 1.520 . S
C1039 C163 1.522 1_655 S
C1044 C261 1.522 . S
C1049 C303 1.552 . S
C1054 C177 1.552 . S
C1059 C191 1.550 1_455 S
C1064 C289 1.550 . S
C1069 C205 1.520 . S
C1074 C331 1.520 . S
C1079 C219 1.522 1_455 S
C1084 C317 1.522 . S
