# Generated by pormake.
# Topology uou, (4)-cn, num edge types: 1
# Building blocks:
#     Node 0, Type 0, BuildingBlock: NAHDIM_clean_sbu_0, # of connection points: 4
#     Node 1, Type 0, BuildingBlock: NAHDIM_clean_sbu_0, # of connection points: 4
#     Node 2, Type 0, BuildingBlock: NAHDIM_clean_sbu_0, # of connection points: 4
#     Node 3, Type 0, BuildingBlock: NAHDIM_clean_sbu_0, # of connection points: 4
#     Node 4, Type 0, BuildingBlock: NAHDIM_clean_sbu_0, # of connection points: 4
#     Node 5, Type 0, BuildingBlock: NAHDIM_clean_sbu_0, # of connection points: 4
#     Node 6, Type 0, BuildingBlock: NAHDIM_clean_sbu_0, # of connection points: 4
#     Node 7, Type 0, BuildingBlock: NAHDIM_clean_sbu_0, # of connection points: 4
#     Node 8, Type 0, BuildingBlock: NAHDIM_clean_sbu_0, # of connection points: 4
#     Node 9, Type 0, BuildingBlock: NAHDIM_clean_sbu_0, # of connection points: 4
#     Node 10, Type 0, BuildingBlock: NAHDIM_clean_sbu_0, # of connection points: 4
#     Node 11, Type 0, BuildingBlock: NAHDIM_clean_sbu_0, # of connection points: 4
#     Node 12, Type 0, BuildingBlock: NAHDIM_clean_sbu_0, # of connection points: 4
#     Node 13, Type 0, BuildingBlock: NAHDIM_clean_sbu_0, # of connection points: 4
#     Node 14, Type 0, BuildingBlock: NAHDIM_clean_sbu_0, # of connection points: 4
#     Node 15, Type 0, BuildingBlock: NAHDIM_clean_sbu_0, # of connection points: 4
#     Edge 16, Type (0, 0), BuildingBlock: MIFKUJ_clean_linker_0, # of connection points: 2
#     Edge 17, Type (0, 0), BuildingBlock: MIFKUJ_clean_linker_0, # of connection points: 2
#     Edge 18, Type (0, 0), BuildingBlock: MIFKUJ_clean_linker_0, # of connection points: 2
#     Edge 19, Type (0, 0), BuildingBlock: MIFKUJ_clean_linker_0, # of connection points: 2
#     Edge 20, Type (0, 0), BuildingBlock: MIFKUJ_clean_linker_0, # of connection points: 2
#     Edge 21, Type (0, 0), BuildingBlock: MIFKUJ_clean_linker_0, # of connection points: 2
#     Edge 22, Type (0, 0), BuildingBlock: MIFKUJ_clean_linker_0, # of connection points: 2
#     Edge 23, Type (0, 0), BuildingBlock: MIFKUJ_clean_linker_0, # of connection points: 2
#     Edge 24, Type (0, 0), BuildingBlock: MIFKUJ_clean_linker_0, # of connection points: 2
#     Edge 25, Type (0, 0), BuildingBlock: MIFKUJ_clean_linker_0, # of connection points: 2
#     Edge 26, Type (0, 0), BuildingBlock: MIFKUJ_clean_linker_0, # of connection points: 2
#     Edge 27, Type (0, 0), BuildingBlock: MIFKUJ_clean_linker_0, # of connection points: 2
#     Edge 28, Type (0, 0), BuildingBlock: MIFKUJ_clean_linker_0, # of connection points: 2
#     Edge 29, Type (0, 0), BuildingBlock: MIFKUJ_clean_linker_0, # of connection points: 2
#     Edge 30, Type (0, 0), BuildingBlock: MIFKUJ_clean_linker_0, # of connection points: 2
#     Edge 31, Type (0, 0), BuildingBlock: MIFKUJ_clean_linker_0, # of connection points: 2
#     Edge 32, Type (0, 0), BuildingBlock: MIFKUJ_clean_linker_0, # of connection points: 2
#     Edge 33, Type (0, 0), BuildingBlock: MIFKUJ_clean_linker_0, # of connection points: 2
#     Edge 34, Type (0, 0), BuildingBlock: MIFKUJ_clean_linker_0, # of connection points: 2
#     Edge 35, Type (0, 0), BuildingBlock: MIFKUJ_clean_linker_0, # of connection points: 2
#     Edge 36, Type (0, 0), BuildingBlock: MIFKUJ_clean_linker_0, # of connection points: 2
#     Edge 37, Type (0, 0), BuildingBlock: MIFKUJ_clean_linker_0, # of connection points: 2
#     Edge 38, Type (0, 0), BuildingBlock: MIFKUJ_clean_linker_0, # of connection points: 2
#     Edge 39, Type (0, 0), BuildingBlock: MIFKUJ_clean_linker_0, # of connection points: 2
#     Edge 40, Type (0, 0), BuildingBlock: MIFKUJ_clean_linker_0, # of connection points: 2
#     Edge 41, Type (0, 0), BuildingBlock: MIFKUJ_clean_linker_0, # of connection points: 2
#     Edge 42, Type (0, 0), BuildingBlock: MIFKUJ_clean_linker_0, # of connection points: 2
#     Edge 43, Type (0, 0), BuildingBlock: MIFKUJ_clean_linker_0, # of connection points: 2
#     Edge 44, Type (0, 0), BuildingBlock: MIFKUJ_clean_linker_0, # of connection points: 2
#     Edge 45, Type (0, 0), BuildingBlock: MIFKUJ_clean_linker_0, # of connection points: 2
#     Edge 46, Type (0, 0), BuildingBlock: MIFKUJ_clean_linker_0, # of connection points: 2
#     Edge 47, Type (0, 0), BuildingBlock: MIFKUJ_clean_linker_0, # of connection points: 2
# Relax obj value: 0.110
# Max RMSD: 0.150
# Mean RMSD: 0.150
data_MOF--net-uou--node1-NAHDIM_clean_sbu_0--edge1-MIFKUJ_clean_linker_0
_symmetry_space_group_name_H-M    P1
_symmetry_Int_Tables_number       1
_symmetry_cell_setting            triclinic
loop_
_symmetry_equiv_pos_as_xyz
'x, y, z'
_cell_length_a     51.535995
_cell_length_b     51.078154
_cell_length_c     65.701686
_cell_angle_alpha  89.993641
_cell_angle_beta   90.02349
_cell_angle_gamma 90.003824
loop_
_atom_site_label
_atom_site_type_symbol
_atom_site_fract_x
_atom_site_fract_y
_atom_site_fract_z
_atom_type_partial_charge
C0 C 0.12486 0.03534 0.11813 0.0
O1 O 0.1072 0.01731 0.12159 0.0
O2 O 0.06989 0.04929 0.14826 0.0
Zn3 Zn 0.07971 0.06435 0.12111 0.0
O4 O 0.06198 0.0447 0.09874 0.0
C5 C 0.06723 0.11633 0.13545 0.0
O6 O 0.07314 0.1063 0.15328 0.0
O7 O 0.11786 0.05917 0.11729 0.0
C8 C 0.04023 0.05163 0.09143 0.0
O9 O 0.02836 0.07222 0.09897 0.0
C10 C 0.04841 0.03784 0.15148 0.0
O11 O 0.03153 0.0357 0.13659 0.0
O12 O 0.06945 0.10225 0.11961 0.0
C13 C 0.38959 0.95247 0.10773 0.0
O14 O 0.40841 0.96934 0.10458 0.0
O15 O 0.441 0.94082 0.14715 0.0
Zn16 Zn 0.43264 0.92315 0.12078 0.0
O17 O 0.45444 0.93862 0.09875 0.0
C18 C 0.44207 0.87278 0.13966 0.0
O19 O 0.43643 0.88544 0.15649 0.0
O20 O 0.39516 0.92985 0.1145 0.0
C21 C 0.45656 0.92701 0.08176 0.0
O22 O 0.44472 0.9045 0.07905 0.0
C23 C 0.4501 0.96389 0.14843 0.0
O24 O 0.45486 0.97722 0.13175 0.0
O25 O 0.4408 0.88475 0.12273 0.0
C26 C 0.61119 0.92688 0.35127 0.0
O27 O 0.59949 0.92515 0.33356 0.0
O28 O 0.54341 0.93387 0.34394 0.0
Zn29 Zn 0.56007 0.91631 0.36774 0.0
O30 O 0.54621 0.93359 0.39261 0.0
C31 C 0.52712 0.87229 0.36655 0.0
O32 O 0.50994 0.89125 0.36543 0.0
O33 O 0.59838 0.92255 0.36744 0.0
C34 C 0.54825 0.92376 0.41027 0.0
O35 O 0.55918 0.9007 0.41251 0.0
C36 C 0.54698 0.95805 0.34035 0.0
O37 O 0.56252 0.97166 0.35215 0.0
O38 O 0.55103 0.87813 0.36776 0.0
C39 C 0.85632 0.05253 0.37992 0.0
O40 O 0.86547 0.05414 0.39854 0.0
O41 O 0.92753 0.03919 0.34664 0.0
Zn42 Zn 0.90999 0.05929 0.36896 0.0
O43 O 0.92004 0.04472 0.3962 0.0
C44 C 0.93817 0.10577 0.35642 0.0
O45 O 0.94896 0.08974 0.34329 0.0
O46 O 0.87171 0.0552 0.36498 0.0
C47 C 0.93989 0.05342 0.40545 0.0
O48 O 0.9542 0.07152 0.39674 0.0
C49 C 0.94937 0.02786 0.34836 0.0
O50 O 0.96175 0.02865 0.36581 0.0
O51 O 0.92046 0.09728 0.36816 0.0
C52 C 0.88155 0.96043 0.87173 0.0
O53 O 0.90002 0.97659 0.87744 0.0
O54 O 0.94324 0.95238 0.84921 0.0
Zn55 Zn 0.92542 0.92939 0.86961 0.0
O56 O 0.93622 0.93913 0.89793 0.0
C57 C 0.95609 0.88561 0.85742 0.0
O58 O 0.97304 0.90439 0.85434 0.0
O59 O 0.88751 0.93698 0.86726 0.0
C60 C 0.95455 0.92855 0.9079 0.0
O61 O 0.96818 0.90968 0.89955 0.0
C62 C 0.96422 0.96489 0.85214 0.0
O63 O 0.97614 0.96308 0.86976 0.0
O64 O 0.93355 0.89148 0.86385 0.0
C65 C 0.61661 0.04474 0.86195 0.0
O66 O 0.59883 0.02662 0.85927 0.0
O67 O 0.5544 0.05491 0.84453 0.0
Zn68 Zn 0.57106 0.07253 0.86836 0.0
O69 O 0.55967 0.05456 0.89375 0.0
C70 C 0.5372 0.11561 0.87403 0.0
O71 O 0.52191 0.09645 0.87988 0.0
O72 O 0.60948 0.06795 0.86608 0.0
C73 C 0.56342 0.0642 0.9113 0.0
O74 O 0.57481 0.08711 0.91302 0.0
C75 C 0.53325 0.04226 0.84585 0.0
O76 O 0.52119 0.04081 0.86342 0.0
O77 O 0.56027 0.11031 0.86856 0.0
C78 C 0.38033 0.04288 0.60644 0.0
O79 O 0.3991 0.02549 0.60719 0.0
O80 O 0.42913 0.05467 0.6441 0.0
Zn81 Zn 0.42266 0.073 0.61767 0.0
O82 O 0.44484 0.0574 0.59593 0.0
C83 C 0.45448 0.11693 0.62439 0.0
O84 O 0.47152 0.09794 0.62615 0.0
O85 O 0.38559 0.06669 0.61024 0.0
C86 C 0.44801 0.06912 0.57909 0.0
O87 O 0.43711 0.09208 0.57627 0.0
C88 C 0.44909 0.04071 0.64735 0.0
O89 O 0.46669 0.03821 0.63302 0.0
O90 O 0.43097 0.11118 0.62065 0.0
C91 C 0.11455 0.96635 0.6137 0.0
O92 O 0.09727 0.98517 0.61509 0.0
O93 O 0.0638 0.95655 0.6502 0.0
Zn94 Zn 0.06984 0.93866 0.62343 0.0
O95 O 0.04981 0.95603 0.60105 0.0
C96 C 0.04253 0.89236 0.63678 0.0
O97 O 0.0311 0.909 0.6491 0.0
O98 O 0.1074 0.94287 0.61673 0.0
C99 C 0.02678 0.95002 0.596 0.0
O100 O 0.01439 0.93177 0.60619 0.0
C101 C 0.0442 0.97078 0.65407 0.0
O102 O 0.02619 0.974 0.64015 0.0
O103 O 0.06009 0.90056 0.62479 0.0
C104 C 0.62442 0.54148 0.12938 0.0
O105 O 0.60519 0.52466 0.13057 0.0
O106 O 0.56172 0.55528 0.14456 0.0
Zn107 Zn 0.58154 0.57346 0.12244 0.0
O108 O 0.57043 0.55908 0.09548 0.0
C109 C 0.56899 0.62266 0.14095 0.0
O110 O 0.57148 0.60878 0.15767 0.0
O111 O 0.61931 0.56544 0.12602 0.0
C112 C 0.55261 0.56949 0.08486 0.0
O113 O 0.54098 0.5907 0.09152 0.0
C114 C 0.53713 0.55376 0.14442 0.0
O115 O 0.52414 0.56397 0.12916 0.0
O116 O 0.57367 0.61195 0.12388 0.0
C117 C 0.88735 0.45112 0.12073 0.0
O118 O 0.90376 0.46637 0.11106 0.0
O119 O 0.95339 0.43895 0.14846 0.0
Zn120 Zn 0.9337 0.42222 0.12544 0.0
O121 O 0.94544 0.43631 0.09851 0.0
C122 C 0.96529 0.37783 0.12785 0.0
O123 O 0.98236 0.39687 0.12906 0.0
O124 O 0.89556 0.42984 0.12846 0.0
C125 C 0.96646 0.44871 0.09563 0.0
O126 O 0.98246 0.45242 0.11092 0.0
C127 C 0.94961 0.46165 0.1558 0.0
O128 O 0.93148 0.47668 0.14802 0.0
O129 O 0.94139 0.38362 0.1261 0.0
C130 C 0.108 0.44049 0.39487 0.0
O131 O 0.0895 0.4577 0.39802 0.0
O132 O 0.05719 0.42704 0.35383 0.0
Zn133 Zn 0.06468 0.41125 0.38122 0.0
O134 O 0.04262 0.42821 0.40256 0.0
C135 C 0.04465 0.36093 0.3939 0.0
O136 O 0.03738 0.37409 0.4101 0.0
O137 O 0.10209 0.41804 0.38791 0.0
C138 C 0.01916 0.43514 0.40015 0.0
O139 O 0.00759 0.43092 0.38263 0.0
C140 C 0.05216 0.45114 0.35101 0.0
O141 O 0.05142 0.46713 0.36665 0.0
O142 O 0.05715 0.37262 0.37992 0.0
C143 C 0.37103 0.52725 0.38422 0.0
O144 O 0.39017 0.51038 0.38255 0.0
O145 O 0.42041 0.54455 0.34703 0.0
Zn146 Zn 0.41268 0.55927 0.37456 0.0
O147 O 0.43485 0.54261 0.39591 0.0
C148 C 0.44417 0.60383 0.37301 0.0
O149 O 0.46153 0.585 0.37262 0.0
O150 O 0.37566 0.55139 0.38133 0.0
C151 C 0.43234 0.55114 0.41394 0.0
O152 O 0.41594 0.57032 0.41743 0.0
C153 C 0.44077 0.53157 0.34295 0.0
O154 O 0.45768 0.5268 0.35745 0.0
O155 O 0.42028 0.59779 0.37399 0.0
C156 C 0.3767 0.45923 0.87893 0.0
O157 O 0.39586 0.47621 0.87929 0.0
O158 O 0.43349 0.44644 0.85102 0.0
Zn159 Zn 0.41997 0.42756 0.87564 0.0
O160 O 0.43608 0.4421 0.90097 0.0
C161 C 0.44725 0.38135 0.8635 0.0
O162 O 0.46219 0.39891 0.85477 0.0
O163 O 0.38198 0.43502 0.87734 0.0
C164 C 0.45777 0.43502 0.90829 0.0
O165 O 0.47121 0.41666 0.89908 0.0
C166 C 0.45171 0.46321 0.85139 0.0
O167 O 0.46305 0.46893 0.86873 0.0
O168 O 0.42736 0.38893 0.87332 0.0
C169 C 0.11192 0.54441 0.87727 0.0
O170 O 0.09378 0.52632 0.87723 0.0
O171 O 0.05881 0.55366 0.84468 0.0
Zn172 Zn 0.06724 0.57277 0.87052 0.0
O173 O 0.05015 0.55778 0.89536 0.0
C174 C 0.03647 0.61671 0.85902 0.0
O175 O 0.02117 0.59794 0.85249 0.0
O176 O 0.10536 0.56816 0.87465 0.0
C177 C 0.02621 0.55698 0.89988 0.0
O178 O 0.00888 0.56619 0.8871 0.0
C179 C 0.0414 0.53664 0.84121 0.0
O180 O 0.02545 0.52956 0.85578 0.0
O181 O 0.05793 0.61075 0.86736 0.0
C182 C 0.88097 0.54877 0.62075 0.0
O183 O 0.90067 0.53266 0.62285 0.0
O184 O 0.94097 0.56466 0.6397 0.0
Zn185 Zn 0.92313 0.58203 0.61627 0.0
O186 O 0.93617 0.56756 0.58994 0.0
C187 C 0.95035 0.62946 0.60956 0.0
O188 O 0.96578 0.61306 0.60004 0.0
O189 O 0.88542 0.57297 0.61792 0.0
C190 C 0.9234 0.57217 0.57379 0.0
O191 O 0.9024 0.5867 0.57482 0.0
C192 C 0.96428 0.55664 0.6394 0.0
O193 O 0.97836 0.56 0.62295 0.0
O194 O 0.92973 0.62077 0.61774 0.0
C195 C 0.6192 0.45535 0.61592 0.0
O196 O 0.60112 0.47283 0.61216 0.0
O197 O 0.56408 0.44702 0.65154 0.0
Zn198 Zn 0.57437 0.42766 0.62629 0.0
O199 O 0.5557 0.44238 0.60221 0.0
C200 C 0.54085 0.38421 0.6281 0.0
O201 O 0.52411 0.4033 0.6255 0.0
O202 O 0.61251 0.43284 0.62226 0.0
C203 C 0.5601 0.43292 0.58469 0.0
O204 O 0.57669 0.41353 0.58283 0.0
C205 C 0.5426 0.45898 0.65332 0.0
O206 O 0.52607 0.45889 0.6381 0.0
O207 O 0.56488 0.38967 0.62911 0.0
H208 H 0.37167 0.00021 0.09553 0.0
H209 H 0.32666 0.01497 0.0941 0.0
H210 H 0.30075 0.93831 0.11267 0.0
H211 H 0.34579 0.92324 0.11403 0.0
H212 H 0.27014 0.95988 0.08221 0.0
H213 H 0.30578 0.98527 0.14725 0.0
H214 H 0.33766 0.00654 0.16985 0.0
H215 H 0.32106 0.081 0.14243 0.0
H216 H 0.28934 0.06008 0.11945 0.0
H217 H 0.14574 0.98653 0.12131 0.0
H218 H 0.19083 0.97372 0.11634 0.0
H219 H 0.21104 0.05382 0.10277 0.0
H220 H 0.16585 0.06696 0.10811 0.0
H221 H 0.2451 0.03253 0.12837 0.0
H222 H 0.20717 0.00804 0.06491 0.0
H223 H 0.17533 0.98702 0.04216 0.0
H224 H 0.19605 0.91154 0.0659 0.0
H225 H 0.22778 0.93214 0.08902 0.0
C226 C 0.35641 0.98638 0.09913 0.0
C227 C 0.3623 0.96061 0.10509 0.0
C228 C 0.33072 0.99489 0.09834 0.0
C229 C 0.31047 0.97782 0.10355 0.0
C230 C 0.31616 0.95177 0.10865 0.0
C231 C 0.34189 0.94323 0.10947 0.0
C232 C 0.28347 0.98747 0.10466 0.0
C233 C 0.26455 0.9756 0.09241 0.0
C234 C 0.27646 0.00845 0.1176 0.0
C235 C 0.2954 0.02107 0.13149 0.0
C236 C 0.30908 0.00614 0.14593 0.0
C237 C 0.3271 0.01814 0.15883 0.0
C238 C 0.33144 0.04509 0.15754 0.0
C239 C 0.31771 0.06012 0.14339 0.0
C240 C 0.2997 0.04821 0.13043 0.0
C241 C 0.15972 0.00146 0.11722 0.0
C242 C 0.15222 0.02777 0.11506 0.0
C243 C 0.18548 0.99406 0.11426 0.0
C244 C 0.2042 0.01275 0.10886 0.0
C245 C 0.19684 0.03908 0.10683 0.0
C246 C 0.17104 0.04654 0.10988 0.0
C247 C 0.23159 0.00481 0.10603 0.0
C248 C 0.25063 0.01698 0.11799 0.0
C249 C 0.2387 0.98417 0.09277 0.0
C250 C 0.21972 0.97167 0.07882 0.0
C251 C 0.20481 0.98698 0.06539 0.0
C252 C 0.1868 0.97513 0.05241 0.0
C253 C 0.18363 0.94797 0.05261 0.0
C254 C 0.19852 0.93258 0.06577 0.0
C255 C 0.21654 0.94433 0.0788 0.0
H256 H 0.16968 0.93883 0.04255 0.0
H257 H 0.34539 0.05435 0.16754 0.0
H258 H 0.64174 0.94584 0.32053 0.0
H259 H 0.68332 0.96854 0.32395 0.0
H260 H 0.68203 0.95512 0.38878 0.0
H261 H 0.64046 0.93269 0.38556 0.0
H262 H 0.69172 0.00586 0.37974 0.0
H263 H 0.72299 0.92123 0.35822 0.0
H264 H 0.72572 0.88288 0.33552 0.0
H265 H 0.75028 0.93233 0.28631 0.0
H266 H 0.74737 0.97104 0.30866 0.0
H267 H 0.82074 0.03634 0.40804 0.0
H268 H 0.77812 0.01733 0.40148 0.0
H269 H 0.78797 0.03089 0.33712 0.0
H270 H 0.83091 0.04942 0.3435 0.0
H271 H 0.77302 0.98228 0.34379 0.0
H272 H 0.74425 0.0666 0.36537 0.0
H273 H 0.7415 0.10528 0.38771 0.0
H274 H 0.71191 0.0574 0.43615 0.0
H275 H 0.71482 0.01835 0.41419 0.0
C276 C 0.6505 0.94738 0.33547 0.0
C277 C 0.63776 0.93756 0.35278 0.0
C278 C 0.67425 0.96036 0.33739 0.0
C279 C 0.6857 0.96352 0.35663 0.0
C280 C 0.67342 0.953 0.37382 0.0
C281 C 0.64972 0.94009 0.37192 0.0
C282 C 0.70991 0.97876 0.35907 0.0
C283 C 0.7096 0.00056 0.37207 0.0
C284 C 0.73292 0.97232 0.3485 0.0
C285 C 0.73468 0.94906 0.33506 0.0
C286 C 0.72875 0.92395 0.34251 0.0
C287 C 0.73038 0.90215 0.32972 0.0
C288 C 0.7381 0.90518 0.30947 0.0
C289 C 0.74427 0.93002 0.30199 0.0
C290 C 0.74265 0.95189 0.31472 0.0
C291 C 0.8137 0.03566 0.39252 0.0
C292 C 0.82925 0.04426 0.37628 0.0
C293 C 0.78927 0.02486 0.3888 0.0
C294 C 0.77982 0.02281 0.36881 0.0
C295 C 0.79494 0.03223 0.35264 0.0
C296 C 0.81943 0.04288 0.35634 0.0
C297 C 0.75497 0.00923 0.36471 0.0
C298 C 0.75512 0.98774 0.35137 0.0
C299 C 0.73177 0.01604 0.37491 0.0
C300 C 0.72996 0.0395 0.38817 0.0
C301 C 0.73735 0.06428 0.38084 0.0
C302 C 0.73572 0.08628 0.39343 0.0
C303 C 0.72659 0.08379 0.41335 0.0
C304 C 0.719 0.0593 0.42072 0.0
C305 C 0.7206 0.03723 0.40819 0.0
H306 H 0.72534 0.10085 0.42307 0.0
H307 H 0.73935 0.88827 0.29959 0.0
H308 H 0.83923 0.93352 0.85771 0.0
H309 H 0.7946 0.94946 0.85498 0.0
H310 H 0.81815 0.0241 0.87955 0.0
H311 H 0.86272 0.00832 0.88248 0.0
H312 H 0.77387 0.00621 0.89713 0.0
H313 H 0.80707 0.01835 0.82971 0.0
H314 H 0.82844 0.00525 0.79772 0.0
H315 H 0.76895 0.94801 0.78703 0.0
H316 H 0.74741 0.96052 0.81913 0.0
H317 H 0.6583 0.07504 0.87252 0.0
H318 H 0.70402 0.06203 0.87302 0.0
H319 H 0.68323 0.98566 0.85021 0.0
H320 H 0.63759 0.99846 0.84959 0.0
H321 H 0.72659 0.00594 0.8313 0.0
H322 H 0.69437 0.99281 0.8993 0.0
H323 H 0.67301 0.00587 0.9313 0.0
H324 H 0.73087 0.06511 0.94085 0.0
H325 H 0.75237 0.05264 0.90872 0.0
C326 C 0.8349 0.95331 0.86255 0.0
C327 C 0.85449 0.96969 0.87026 0.0
C328 C 0.80944 0.96242 0.86089 0.0
C329 C 0.8032 0.98804 0.86688 0.0
C330 C 0.82263 0.00429 0.87482 0.0
C331 C 0.84808 0.99524 0.87643 0.0
C332 C 0.77631 0.99784 0.86505 0.0
C333 C 0.76365 0.00652 0.88269 0.0
C334 C 0.7629 0.99775 0.84626 0.0
C335 C 0.77577 0.9902 0.82693 0.0
C336 C 0.79866 0.00282 0.82063 0.0
C337 C 0.81078 0.99552 0.80246 0.0
C338 C 0.80009 0.97576 0.79038 0.0
C339 C 0.77722 0.96329 0.79642 0.0
C340 C 0.76504 0.97049 0.81459 0.0
C341 C 0.66349 0.05555 0.86747 0.0
C342 C 0.64436 0.03771 0.86115 0.0
C343 C 0.68957 0.04814 0.86782 0.0
C344 C 0.69688 0.02281 0.86184 0.0
C345 C 0.67793 0.00528 0.85491 0.0
C346 C 0.65187 0.01261 0.85465 0.0
C347 C 0.72418 0.01423 0.86339 0.0
C348 C 0.73689 0.00574 0.84571 0.0
C349 C 0.73765 0.01451 0.88214 0.0
C350 C 0.72481 0.02199 0.90149 0.0
C351 C 0.70241 0.00877 0.90813 0.0
C352 C 0.6903 0.01604 0.9263 0.0
C353 C 0.70053 0.03636 0.93807 0.0
C354 C 0.72294 0.04941 0.9317 0.0
C355 C 0.73511 0.04224 0.91351 0.0
H356 H 0.69113 0.04196 0.95214 0.0
H357 H 0.8095 0.97015 0.77632 0.0
H358 H 0.13583 0.01465 0.60809 0.0
H359 H 0.18139 0.02538 0.60263 0.0
H360 H 0.20087 0.94323 0.60379 0.0
H361 H 0.15524 0.9323 0.60964 0.0
H362 H 0.23244 0.9707 0.62764 0.0
H363 H 0.20237 0.97777 0.55924 0.0
H364 H 0.17383 0.99235 0.53134 0.0
H365 H 0.19389 0.07242 0.54352 0.0
H366 H 0.22229 0.05836 0.5717 0.0
H367 H 0.36293 0.99312 0.60021 0.0
H368 H 0.31799 0.97849 0.59733 0.0
H369 H 0.2917 0.05845 0.60183 0.0
H370 H 0.3367 0.07337 0.60462 0.0
H371 H 0.26443 0.0293 0.57286 0.0
H372 H 0.29137 0.02188 0.64303 0.0
H373 H 0.31988 0.00716 0.67093 0.0
H374 H 0.30539 0.92698 0.65489 0.0
H375 H 0.27707 0.94126 0.6267 0.0
C376 C 0.14975 -0.00118 0.60704 0.0
C377 C 0.14195 0.97262 0.60934 0.0
C378 C 0.17577 0.00499 0.60378 0.0
C379 C 0.19445 0.98508 0.60256 0.0
C380 C 0.18671 0.95887 0.60462 0.0
C381 C 0.16066 0.95267 0.60794 0.0
C382 C 0.22224 0.99182 0.60039 0.0
C383 C 0.23952 0.98307 0.61541 0.0
C384 C 0.23133 0.00845 0.58469 0.0
C385 C 0.21431 0.01701 0.5677 0.0
C386 C 0.20055 0.99851 0.55608 0.0
C387 C 0.18442 0.00667 0.54019 0.0
C388 C 0.18201 0.0333 0.53569 0.0
C389 C 0.19577 0.0518 0.54704 0.0
C390 C 0.21191 0.04374 0.56296 0.0
C391 C 0.34764 0.00766 0.60039 0.0
C392 C 0.35334 0.03439 0.60286 0.0
C393 C 0.32198 -0.00076 0.59876 0.0
C394 C 0.30161 0.01738 0.59963 0.0
C395 C 0.30723 0.04418 0.60116 0.0
C396 C 0.33292 0.05264 0.60284 0.0
C397 C 0.27441 0.00829 0.60016 0.0
C398 C 0.2573 0.01666 0.58489 0.0
C399 C 0.26544 0.99126 0.6156 0.0
C400 C 0.28234 0.98264 0.63262 0.0
C401 C 0.29444 0.00112 0.64535 0.0
C402 C 0.31053 0.99285 0.66123 0.0
C403 C 0.31451 0.96615 0.66464 0.0
C404 C 0.30233 0.94766 0.65221 0.0
C405 C 0.28625 0.95582 0.63628 0.0
H406 H 0.32697 0.95979 0.67695 0.0
H407 H 0.16951 0.03958 0.52338 0.0
H408 H 0.86647 0.49858 0.11149 0.0
H409 H 0.82154 0.5126 0.11555 0.0
H410 H 0.80139 0.43655 0.13929 0.0
H411 H 0.84655 0.42225 0.13533 0.0
H412 H 0.76712 0.45534 0.10921 0.0
H413 H 0.80581 0.48485 0.17147 0.0
H414 H 0.83849 0.50745 0.1925 0.0
H415 H 0.8194 0.58054 0.16391 0.0
H416 H 0.78685 0.55831 0.14246 0.0
H417 H 0.64112 0.49265 0.13977 0.0
H418 H 0.68567 0.47654 0.14056 0.0
H419 H 0.7135 0.5529 0.12287 0.0
H420 H 0.66892 0.56937 0.12246 0.0
H421 H 0.74376 0.53217 0.15168 0.0
H422 H 0.70776 0.50354 0.08811 0.0
H423 H 0.6759 0.48188 0.06572 0.0
H424 H 0.69072 0.40834 0.09519 0.0
H425 H 0.72243 0.42965 0.11795 0.0
C426 C 0.85253 0.48478 0.11758 0.0
C427 C 0.86005 0.4593 0.12312 0.0
C428 C 0.8269 0.49289 0.11998 0.0
C429 C 0.80829 0.47568 0.1279 0.0
C430 C 0.81558 0.45011 0.13322 0.0
C431 C 0.84134 0.44202 0.13099 0.0
C432 C 0.78113 0.48443 0.13022 0.0
C433 C 0.76187 0.47182 0.11878 0.0
C434 C 0.77457 0.50639 0.14227 0.0
C435 C 0.79403 0.51986 0.15523 0.0
C436 C 0.80872 0.50571 0.16954 0.0
C437 C 0.8272 0.51846 0.18156 0.0
C438 C 0.83106 0.5454 0.17951 0.0
C439 C 0.8164 0.55967 0.16547 0.0
C440 C 0.79791 0.547 0.15339 0.0
C441 C 0.65671 0.50608 0.13614 0.0
C442 C 0.6515 0.53225 0.1309 0.0
C443 C 0.68216 0.4968 0.13653 0.0
C444 C 0.70284 0.51341 0.13144 0.0
C445 C 0.69778 0.53975 0.12679 0.0
C446 C 0.67231 0.54911 0.12652 0.0
C447 C 0.7297 0.50318 0.13057 0.0
C448 C 0.74892 0.51554 0.14224 0.0
C449 C 0.73628 0.48112 0.11857 0.0
C450 C 0.71726 0.46825 0.10488 0.0
C451 C 0.70407 0.48279 0.08993 0.0
C452 C 0.68607 0.47057 0.07715 0.0
C453 C 0.68123 0.44377 0.07907 0.0
C454 C 0.69445 0.42911 0.09374 0.0
C455 C 0.71245 0.44125 0.10658 0.0
H456 H 0.66729 0.43434 0.06916 0.0
H457 H 0.84538 0.55524 0.18883 0.0
H458 H 0.35508 0.47683 0.38948 0.0
H459 H 0.3109 0.46111 0.3949 0.0
H460 H 0.28272 0.54062 0.39434 0.0
H461 H 0.327 0.55663 0.38901 0.0
H462 H 0.25998 0.50974 0.42474 0.0
H463 H 0.27723 0.50552 0.35263 0.0
H464 H 0.30212 0.49266 0.32218 0.0
H465 H 0.29209 0.41154 0.33745 0.0
H466 H 0.26744 0.42395 0.36816 0.0
H467 H 0.12724 0.48928 0.40222 0.0
H468 H 0.17262 0.50241 0.4041 0.0
H469 H 0.19621 0.42192 0.39649 0.0
H470 H 0.1507 0.40872 0.3939 0.0
H471 H 0.22232 0.45171 0.37184 0.0
H472 H 0.20263 0.45531 0.44285 0.0
H473 H 0.17789 0.46786 0.47344 0.0
H474 H 0.19252 0.54906 0.46102 0.0
H475 H 0.21704 0.53703 0.43018 0.0
C476 C 0.33954 0.49102 0.39062 0.0
C477 C 0.34448 0.51797 0.38862 0.0
C478 C 0.31432 0.48199 0.39371 0.0
C479 C 0.29359 0.49971 0.39479 0.0
C480 C 0.29852 0.52666 0.39352 0.0
C481 C 0.32378 0.53575 0.39038 0.0
C482 C 0.26665 0.48999 0.39628 0.0
C483 C 0.25158 0.49724 0.41312 0.0
C484 C 0.25607 0.47317 0.38134 0.0
C485 C 0.27073 0.46568 0.3628 0.0
C486 C 0.28051 0.48495 0.34958 0.0
C487 C 0.29454 0.47774 0.33226 0.0
C488 C 0.29875 0.4513 0.32791 0.0
C489 C 0.28886 0.43201 0.34085 0.0
C490 C 0.27484 0.43912 0.3582 0.0
C491 C 0.14205 0.4743 0.40117 0.0
C492 C 0.1354 0.44796 0.39784 0.0
C493 C 0.16802 0.48183 0.40238 0.0
C494 C 0.18784 0.46311 0.40068 0.0
C495 C 0.18122 0.43669 0.39786 0.0
C496 C 0.15523 0.42917 0.39641 0.0
C497 C 0.2154 0.47139 0.40036 0.0
C498 C 0.23066 0.46396 0.38364 0.0
C499 C 0.22613 0.48794 0.41548 0.0
C500 C 0.21151 0.49526 0.4341 0.0
C501 C 0.20042 0.47586 0.44655 0.0
C502 C 0.18646 0.48288 0.46396 0.0
C503 C 0.18359 0.50925 0.46915 0.0
C504 C 0.19474 0.52865 0.45697 0.0
C505 C 0.2087 0.52173 0.43954 0.0
H506 H 0.17276 0.51464 0.48262 0.0
H507 H 0.30961 0.44575 0.31449 0.0
H508 H 0.13154 0.49526 0.88179 0.0
H509 H 0.17697 0.48244 0.88421 0.0
H510 H 0.20003 0.56352 0.88066 0.0
H511 H 0.15445 0.57657 0.87787 0.0
H512 H 0.22804 0.53368 0.85539 0.0
H513 H 0.20382 0.53026 0.9255 0.0
H514 H 0.17717 0.51777 0.9551 0.0
H515 H 0.19265 0.43655 0.94343 0.0
H516 H 0.21911 0.44853 0.91356 0.0
H517 H 0.35963 0.50969 0.88037 0.0
H518 H 0.31484 0.52507 0.88179 0.0
H519 H 0.28762 0.4452 0.88162 0.0
H520 H 0.3325 0.42954 0.88032 0.0
H521 H 0.26238 0.47609 0.90995 0.0
H522 H 0.28492 0.47983 0.83893 0.0
H523 H 0.31159 0.49253 0.80939 0.0
H524 H 0.29923 0.57375 0.82318 0.0
H525 H 0.27277 0.56152 0.85299 0.0
C526 C 0.14623 0.51042 0.88165 0.0
C527 C 0.13941 0.53694 0.87963 0.0
C528 C 0.1722 0.50305 0.88314 0.0
C529 C 0.19183 0.52205 0.88286 0.0
C530 C 0.18512 0.54857 0.88097 0.0
C531 C 0.1591 0.55598 0.87941 0.0
C532 C 0.2194 0.51402 0.88361 0.0
C533 C 0.23568 0.52148 0.86752 0.0
C534 C 0.22913 0.49759 0.89919 0.0
C535 C 0.21328 0.4903 0.91718 0.0
C536 C 0.20138 0.50972 0.92914 0.0
C537 C 0.18633 0.50273 0.94599 0.0
C538 C 0.18317 0.47638 0.95112 0.0
C539 C 0.1951 0.45696 0.93943 0.0
C540 C 0.21015 0.46384 0.92255 0.0
C541 C 0.34415 0.49535 0.88066 0.0
C542 C 0.34958 0.46838 0.88013 0.0
C543 C 0.31858 0.5042 0.88143 0.0
C544 C 0.29799 0.48626 0.88161 0.0
C545 C 0.30331 0.45932 0.88146 0.0
C546 C 0.32892 0.45043 0.88064 0.0
C547 C 0.27088 0.49566 0.88171 0.0
C548 C 0.25473 0.48843 0.89793 0.0
C549 C 0.26126 0.51236 0.86628 0.0
C550 C 0.27709 0.51975 0.84832 0.0
C551 C 0.28807 0.5004 0.83577 0.0
C552 C 0.30311 0.50751 0.81895 0.0
C553 C 0.30716 0.53393 0.81444 0.0
C554 C 0.29611 0.55329 0.82671 0.0
C555 C 0.28107 0.54628 0.84356 0.0
H556 H 0.31881 0.5394 0.80141 0.0
H557 H 0.17152 0.47101 0.96417 0.0
H558 H 0.66156 0.42624 0.62688 0.0
H559 H 0.70706 0.43993 0.62635 0.0
H560 H 0.68477 0.5143 0.60061 0.0
H561 H 0.63933 0.50076 0.60092 0.0
H562 H 0.7289 0.49431 0.58281 0.0
H563 H 0.69537 0.50971 0.65042 0.0
H564 H 0.67411 0.49714 0.68259 0.0
H565 H 0.73364 0.44009 0.69374 0.0
H566 H 0.75507 0.45208 0.66147 0.0
H567 H 0.83676 0.5738 0.6085 0.0
H568 H 0.79289 0.55553 0.60673 0.0
H569 H 0.82101 0.48234 0.63094 0.0
H570 H 0.86491 0.50035 0.63269 0.0
H571 H 0.77505 0.49927 0.64904 0.0
H572 H 0.81017 0.48522 0.58285 0.0
H573 H 0.83216 0.49766 0.55102 0.0
H574 H 0.77039 0.55111 0.53695 0.0
H575 H 0.74828 0.53941 0.569 0.0
C576 C 0.66637 0.4454 0.62092 0.0
C577 C 0.64685 0.46253 0.61412 0.0
C578 C 0.69234 0.45321 0.62068 0.0
C579 C 0.69916 0.47823 0.61367 0.0
C580 C 0.67985 0.49493 0.6061 0.0
C581 C 0.6539 0.48719 0.60639 0.0
C582 C 0.72624 0.4876 0.61512 0.0
C583 C 0.73894 0.49563 0.59729 0.0
C584 C 0.73944 0.48872 0.63398 0.0
C585 C 0.72666 0.48159 0.65343 0.0
C586 C 0.70381 0.49434 0.65966 0.0
C587 C 0.69175 0.48734 0.67792 0.0
C588 C 0.70247 0.46777 0.69017 0.0
C589 C 0.72533 0.45521 0.68422 0.0
C590 C 0.73745 0.46211 0.66595 0.0
C591 C 0.83356 0.55388 0.61356 0.0
C592 C 0.85425 0.53847 0.62066 0.0
C593 C 0.80856 0.54345 0.61245 0.0
C594 C 0.80387 0.51755 0.61854 0.0
C595 C 0.82433 0.50236 0.62614 0.0
C596 C 0.84936 0.51267 0.62706 0.0
C597 C 0.77761 0.50621 0.61677 0.0
C598 C 0.76507 0.49782 0.63454 0.0
C599 C 0.76462 0.50468 0.59785 0.0
C600 C 0.7777 0.51163 0.57845 0.0
C601 C 0.80138 0.49981 0.57307 0.0
C602 C 0.81385 0.5067 0.55496 0.0
C603 C 0.8027 0.52519 0.54196 0.0
C604 C 0.77902 0.53681 0.54705 0.0
C605 C 0.76651 0.53006 0.5652 0.0
H606 H 0.81239 0.53048 0.52794 0.0
H607 H 0.69311 0.46239 0.70431 0.0
H608 H 0.00081 0.01674 0.3431 0.0
H609 H 0.02268 0.00739 0.31084 0.0
H610 H 0.94879 0.00623 0.28002 0.0
H611 H 0.92678 0.01568 0.3121 0.0
H612 H 0.98568 0.96915 0.26442 0.0
H613 H 0.97732 0.06141 0.28147 0.0
H614 H 0.9828 0.09937 0.30423 0.0
H615 H 0.06525 0.08714 0.30489 0.0
H616 H 0.06016 0.04884 0.28228 0.0
H617 H 0.0019 0.01907 0.16506 0.0
H618 H 0.99043 0.00712 0.19986 0.0
H619 H 0.06898 0.02259 0.21922 0.0
H620 H 0.08047 0.03518 0.18451 0.0
H621 H 0.03601 0.04712 0.24265 0.0
H622 H 0.04389 0.95956 0.21871 0.0
H623 H 0.0369 0.92213 0.19566 0.0
H624 H 0.95498 0.92523 0.20728 0.0
H625 H 0.96141 0.96293 0.23018 0.0
C626 C 0.98917 0.01383 0.32955 0.0
C627 C 0.96214 0.01738 0.33001 0.0
C628 C 0.00169 0.00845 0.31118 0.0
C629 C 0.98731 0.00638 0.29311 0.0
C630 C 0.96017 0.00772 0.29385 0.0
C631 C 0.94767 0.01334 0.31215 0.0
C632 C 0.00043 0.00691 0.27316 0.0
C633 C 0.99676 0.98609 0.25956 0.0
C634 C 0.01517 0.0289 0.26711 0.0
C635 C 0.01834 0.05212 0.28042 0.0
C636 C 0.9966 0.06672 0.2866 0.0
C637 C -0.00037 0.0883 0.29945 0.0
C638 C 0.02435 0.09562 0.30608 0.0
C639 C 0.04611 0.08142 0.29978 0.0
C640 C 0.04316 0.05978 0.28694 0.0
C641 C 0.01683 0.01961 0.17666 0.0
C642 C 0.04203 0.02828 0.17208 0.0
C643 C 0.01029 0.01256 0.19653 0.0
C644 C 0.02892 0.0137 0.21211 0.0
C645 C 0.05432 0.02152 0.20742 0.0
C646 C 0.06083 0.02875 0.18759 0.0
C647 C 0.02118 0.00939 0.23356 0.0
C648 C 0.02565 0.02971 0.24749 0.0
C649 C 0.00712 0.98695 0.23981 0.0
C650 C 0.00314 0.9642 0.22608 0.0
C651 C 0.02436 0.95239 0.21624 0.0
C652 C 0.0205 0.9311 0.20322 0.0
C653 C 0.99551 0.92133 0.19999 0.0
C654 C 0.97433 0.93281 0.2098 0.0
C655 C 0.97808 0.95412 0.22283 0.0
H656 H 0.99256 0.90485 0.18989 0.0
H657 H 0.02666 0.11233 0.31605 0.0
H658 H 0.47614 0.00941 0.15712 0.0
H659 H 0.48945 0.02519 0.19081 0.0
H660 H 0.45133 0.95908 0.21871 0.0
H661 H 0.43787 0.9434 0.1854 0.0
H662 H 0.44472 0.00391 0.24099 0.0
H663 H 0.51555 0.95666 0.20643 0.0
H664 H 0.5471 0.95106 0.17853 0.0
H665 H 0.57813 0.02759 0.19042 0.0
H666 H 0.54653 0.0337 0.21828 0.0
H667 H 0.50603 0.93914 0.31892 0.0
H668 H 0.48674 0.95732 0.28822 0.0
H669 H 0.53965 0.02271 0.29077 0.0
H670 H 0.55918 0.00453 0.32182 0.0
H671 H 0.53945 0.99781 0.25363 0.0
H672 H 0.47712 0.03587 0.2967 0.0
H673 H 0.4463 0.03881 0.32529 0.0
H674 H 0.39925 0.97876 0.29829 0.0
H675 H 0.42996 0.97514 0.26969 0.0
C676 C 0.47031 0.99847 0.17048 0.0
C677 C 0.45626 0.97497 0.16861 0.0
C678 C 0.47789 0.00753 0.18968 0.0
C679 C 0.47148 0.99321 0.2072 0.0
C680 C 0.45637 0.9705 0.20538 0.0
C681 C 0.44889 0.96143 0.18629 0.0
C682 C 0.48246 -0.00016 0.22734 0.0
C683 C 0.46543 0.00287 0.24382 0.0
C684 C 0.50954 -0.0005 0.23087 0.0
C685 C 0.52851 0.99577 0.2142 0.0
C686 C 0.529 0.97235 0.20298 0.0
C687 C 0.54689 0.96907 0.1872 0.0
C688 C 0.56455 0.989 0.18265 0.0
C689 C 0.56439 0.01221 0.19392 0.0
C690 C 0.5465 0.01559 0.2097 0.0
C691 C 0.51341 0.95755 0.31313 0.0
C692 C 0.53422 0.97033 0.32268 0.0
C693 C 0.50218 0.96807 0.29569 0.0
C694 C 0.51155 0.99155 0.2874 0.0
C695 C 0.53201 0.00471 0.29709 0.0
C696 C 0.54313 0.99429 0.31476 0.0
C697 C 0.50159 0.00024 0.26742 0.0
C698 C 0.5188 0.00011 0.2509 0.0
C699 C 0.47467 0.00311 0.2639 0.0
C700 C 0.45592 0.00525 0.28101 0.0
C701 C 0.46028 0.02319 0.2969 0.0
C702 C 0.44281 0.02498 0.31311 0.0
C703 C 0.42083 0.00899 0.3136 0.0
C704 C 0.41626 0.99118 0.29786 0.0
C705 C 0.43367 0.98929 0.28162 0.0
H706 H 0.40734 0.0104 0.32617 0.0
H707 H 0.57839 0.98643 0.17043 0.0
H708 H 0.08136 0.97794 0.68306 0.0
H709 H 0.0748 0.99043 0.7186 0.0
H710 H 0.99277 -0.00052 0.70736 0.0
H711 H -0.00064 0.98794 0.67165 0.0
H712 H 0.00871 0.03457 0.73481 0.0
H713 H 0.01843 0.94111 0.72422 0.0
H714 H 0.04123 0.90139 0.71256 0.0
H715 H 0.10543 0.91933 0.75185 0.0
H716 H 0.08312 0.95937 0.76353 0.0
H717 H 0.94074 0.98181 0.81754 0.0
H718 H 0.96172 0.9969 0.78647 0.0
H719 H 0.03632 0.99332 0.81617 0.0
H720 H 0.01533 0.97818 0.84752 0.0
H721 H 0.03346 0.96306 0.7821 0.0
H722 H 0.01533 0.05139 0.79886 0.0
H723 H 0.98917 0.08885 0.81061 0.0
H724 H 0.93709 0.0786 0.76022 0.0
H725 H 0.96269 0.04083 0.74831 0.0
C726 C 0.062 0.98302 0.68811 0.0
C727 C 0.04077 0.98153 0.67471 0.0
C728 C 0.05829 0.99019 0.70839 0.0
C729 C 0.03323 0.99535 0.71571 0.0
C730 C 0.01228 0.99554 0.70204 0.0
C731 C 0.01604 0.98879 0.68166 0.0
C732 C 0.02826 0.99752 0.73784 0.0
C733 C 0.01412 0.01901 0.74521 0.0
C734 C 0.03591 0.97748 0.75148 0.0
C735 C 0.04928 0.95338 0.74453 0.0
C736 C 0.0375 0.93667 0.73025 0.0
C737 C 0.05031 0.91409 0.72366 0.0
C738 C 0.07481 0.90788 0.73141 0.0
C739 C 0.08649 0.9242 0.74582 0.0
C740 C 0.07378 0.94684 0.75243 0.0
C741 C 0.96155 0.98481 0.81762 0.0
C742 C 0.97646 0.97849 0.83484 0.0
C743 C 0.9735 0.99369 0.7999 0.0
C744 C 0.00056 0.99634 0.79905 0.0
C745 C 0.01538 0.99154 0.8166 0.0
C746 C 0.00337 0.98289 0.83446 0.0
C747 C 0.01322 -0.00024 0.77904 0.0
C748 C 0.02875 0.97916 0.77196 0.0
C749 C 0.00641 0.02037 0.76569 0.0
C750 C 0.99093 0.04317 0.77273 0.0
C751 C -0.0018 0.057 0.79035 0.0
C752 C 0.98348 0.07831 0.79703 0.0
C753 C 0.96147 0.08608 0.78618 0.0
C754 C 0.95416 0.07257 0.7686 0.0
C755 C 0.9688 0.05123 0.76186 0.0
H756 H 0.9501 0.10259 0.79138 0.0
H757 H 0.0847 0.89039 0.72629 0.0
H758 H 0.49473 0.02372 0.66367 0.0
H759 H 0.50272 0.01111 0.6989 0.0
H760 H 0.421 0.01876 0.7121 0.0
H761 H 0.41307 0.03238 0.677 0.0
H762 H 0.44694 0.04572 0.73773 0.0
H763 H 0.45367 0.9581 0.71488 0.0
H764 H 0.4676 0.92141 0.69311 0.0
H765 H 0.54703 0.93531 0.70961 0.0
H766 H 0.53365 0.97234 0.73125 0.0
H767 H 0.48327 0.02563 0.84033 0.0
H768 H 0.46307 0.01227 0.80819 0.0
H769 H 0.53683 0.01973 0.77773 0.0
H770 H 0.55711 0.03311 0.80963 0.0
H771 H 0.50648 0.97697 0.76351 0.0
H772 H 0.49917 0.07071 0.77811 0.0
H773 H 0.48588 0.10821 0.79935 0.0
H774 H 0.40683 0.08168 0.79771 0.0
H775 H 0.41976 0.04384 0.77663 0.0
C776 C 0.4784 0.02222 0.67398 0.0
C777 C 0.45335 0.02935 0.66769 0.0
C778 C 0.48294 0.01477 0.6941 0.0
C779 C 0.46241 0.01376 0.70815 0.0
C780 C 0.43713 0.01942 0.70154 0.0
C781 C 0.43264 0.02726 0.68151 0.0
C782 C 0.46795 0.01048 0.73014 0.0
C783 C 0.45929 0.03015 0.74343 0.0
C784 C 0.48443 0.99046 0.7376 0.0
C785 C 0.49263 0.96811 0.72465 0.0
C786 C 0.47413 0.95346 0.71378 0.0
C787 C 0.48193 0.93257 0.70147 0.0
C788 C 0.50818 0.92605 0.69996 0.0
C789 C 0.5267 0.94037 0.7108 0.0
C790 C 0.51901 0.96128 0.72313 0.0
C791 C 0.49526 0.02392 0.82686 0.0
C792 C 0.52165 0.03083 0.82737 0.0
C793 C 0.48372 0.01623 0.80857 0.0
C794 C 0.49849 0.0152 0.79065 0.0
C795 C 0.52517 0.02033 0.79144 0.0
C796 C 0.53665 0.02823 0.80963 0.0
C797 C 0.48586 0.01243 0.77061 0.0
C798 C 0.49334 0.99184 0.75778 0.0
C799 C 0.46824 0.03153 0.76348 0.0
C800 C 0.46046 0.05431 0.77604 0.0
C801 C 0.479 0.07278 0.78242 0.0
C802 C 0.47153 0.09411 0.7944 0.0
C803 C 0.44554 0.09728 0.79994 0.0
C804 C 0.42696 0.07917 0.79345 0.0
C805 C 0.43434 0.05779 0.78149 0.0
H806 H 0.4398 0.11381 0.80921 0.0
H807 H 0.51418 0.90987 0.69042 0.0
H808 H 0.55837 0.53029 0.17778 0.0
H809 H 0.5363 0.51761 0.20906 0.0
H810 H 0.46281 0.54009 0.18288 0.0
H811 H 0.48483 0.55314 0.15149 0.0
H812 H 0.47138 0.56346 0.21887 0.0
H813 H 0.47528 0.47612 0.19348 0.0
H814 H 0.49572 0.43709 0.17834 0.0
H815 H 0.54746 0.43132 0.22938 0.0
H816 H 0.52759 0.47055 0.24471 0.0
H817 H 0.40811 0.53433 0.31035 0.0
H818 H 0.41941 0.52926 0.27449 0.0
H819 H 0.4978 0.50896 0.29129 0.0
H820 H 0.48656 0.51353 0.32727 0.0
H821 H 0.48123 0.48105 0.25813 0.0
H822 H 0.48323 0.57116 0.28025 0.0
H823 H 0.46528 0.61137 0.29554 0.0
H824 H 0.40492 0.61277 0.25048 0.0
H825 H 0.42235 0.57234 0.23508 0.0
C826 C 0.53746 0.53216 0.17853 0.0
C827 C 0.52336 0.54297 0.16224 0.0
C828 C 0.52484 0.52469 0.19638 0.0
C829 C 0.4979 0.52775 0.19823 0.0
C830 C 0.48362 0.53752 0.1817 0.0
C831 C 0.49623 0.54496 0.1638 0.0
C832 C 0.48529 0.52368 0.2182 0.0
C833 C 0.47293 0.5452 0.22723 0.0
C834 C 0.48806 0.50011 0.22932 0.0
C835 C 0.50002 0.47641 0.22019 0.0
C836 C 0.49114 0.46666 0.20141 0.0
C837 C 0.50261 0.44446 0.19281 0.0
C838 C 0.5229 0.43175 0.20287 0.0
C839 C 0.53174 0.44118 0.2216 0.0
C840 C 0.52035 0.46338 0.23027 0.0
C841 C 0.42766 0.52838 0.30644 0.0
C842 C 0.44659 0.52476 0.32161 0.0
C843 C 0.43405 0.52548 0.28595 0.0
C844 C 0.45954 0.51923 0.28027 0.0
C845 C 0.47803 0.51387 0.29539 0.0
C846 C 0.4716 0.5166 0.31593 0.0
C847 C 0.46757 0.52087 0.25871 0.0
C848 C 0.47919 0.49904 0.24951 0.0
C849 C 0.46441 0.54426 0.24743 0.0
C850 C 0.4539 0.56856 0.25667 0.0
C851 C 0.466 0.57992 0.27371 0.0
C852 C 0.45595 0.60277 0.28238 0.0
C853 C 0.43392 0.61457 0.27403 0.0
C854 C 0.42195 0.60358 0.25696 0.0
C855 C 0.43191 0.5807 0.24825 0.0
H856 H 0.42618 0.63227 0.28075 0.0
H857 H 0.53175 0.41458 0.19618 0.0
H858 H 0.03074 0.49821 0.34019 0.0
H859 H 0.01759 0.51221 0.30601 0.0
H860 H 0.04659 0.43972 0.28119 0.0
H861 H 0.05971 0.4256 0.31513 0.0
H862 H 0.05829 0.4834 0.25697 0.0
H863 H 0.98435 0.44472 0.29289 0.0
H864 H 0.95295 0.44268 0.32118 0.0
H865 H 0.92797 0.52107 0.30795 0.0
H866 H 0.95951 0.52367 0.27974 0.0
H867 H 0.99023 0.43649 0.17365 0.0
H868 H 0.01174 0.44753 0.20544 0.0
H869 H 0.96433 0.51681 0.21098 0.0
H870 H 0.94225 0.5056 0.17909 0.0
H871 H 0.96336 0.48894 0.24506 0.0
H872 H 0.02971 0.52281 0.20336 0.0
H873 H 0.06066 0.52452 0.1748 0.0
H874 H 0.10014 0.45689 0.19819 0.0
H875 H 0.06921 0.45449 0.22674 0.0
C876 C 0.03459 0.48541 0.32741 0.0
C877 C 0.04602 0.46069 0.33035 0.0
C878 C 0.02708 0.49344 0.30793 0.0
C879 C 0.03106 0.47693 0.29115 0.0
C880 C 0.04346 0.45277 0.29396 0.0
C881 C 0.05076 0.44465 0.31339 0.0
C882 C 0.02049 0.48347 0.27086 0.0
C883 C 0.03756 0.48473 0.25428 0.0
C884 C 0.99351 0.48617 0.26756 0.0
C885 C 0.97449 0.48452 0.28441 0.0
C886 C 0.9723 0.46159 0.29613 0.0
C887 C 0.95446 0.46032 0.31213 0.0
C888 C 0.93854 0.48176 0.31641 0.0
C889 C 0.94037 0.5045 0.30465 0.0
C890 C 0.95821 0.50588 0.28866 0.0
C891 C 0.98455 0.45428 0.18144 0.0
C892 C 0.9644 0.47008 0.17392 0.0
C893 C -0.00294 0.46071 0.19956 0.0
C894 C 0.98987 0.48318 0.21047 0.0
C895 C 0.97027 0.49946 0.20272 0.0
C896 C 0.95771 0.49303 0.18451 0.0
C897 C 0.0011 0.48777 0.23092 0.0
C898 C 0.98416 0.48856 0.24762 0.0
C899 C 0.02822 0.48708 0.23429 0.0
C900 C 0.04704 0.48844 0.21719 0.0
C901 C 0.04489 0.50819 0.20236 0.0
C902 C 0.06245 0.5093 0.18617 0.0
C903 C 0.08234 0.49082 0.18467 0.0
C904 C 0.08473 0.47121 0.19938 0.0
C905 C 0.06722 0.47 0.2156 0.0
H906 H 0.09591 0.4917 0.17212 0.0
H907 H 0.92474 0.48074 0.3288 0.0
H908 H 0.49408 0.47079 0.6671 0.0
H909 H 0.482 0.4841 0.70145 0.0
H910 H 0.56292 0.48765 0.7183 0.0
H911 H 0.57504 0.47325 0.68414 0.0
H912 H 0.53898 0.45976 0.74417 0.0
H913 H 0.52254 0.5438 0.71657 0.0
H914 H 0.50536 0.57663 0.6926 0.0
H915 H 0.42746 0.55367 0.70734 0.0
H916 H 0.44415 0.52042 0.7312 0.0
H917 H 0.49828 0.48724 0.8445 0.0
H918 H 0.51656 0.49952 0.81143 0.0
H919 H 0.44536 0.47654 0.7819 0.0
H920 H 0.42702 0.46405 0.81477 0.0
H921 H 0.47009 0.52237 0.76451 0.0
H922 H 0.48882 0.43254 0.78588 0.0
H923 H 0.50612 0.40006 0.81014 0.0
H924 H 0.58128 0.43612 0.80681 0.0
H925 H 0.56427 0.46909 0.78277 0.0
C926 C 0.50931 0.47488 0.67802 0.0
C927 C 0.53547 0.47071 0.67304 0.0
C928 C 0.50239 0.48272 0.69764 0.0
C929 C 0.52156 0.48711 0.71247 0.0
C930 C 0.54779 0.48433 0.70714 0.0
C931 C 0.55469 0.47607 0.68763 0.0
C932 C 0.51409 0.49119 0.73405 0.0
C933 C 0.52446 0.47403 0.74864 0.0
C934 C 0.49483 0.50947 0.73994 0.0
C935 C 0.48463 0.52949 0.72562 0.0
C936 C 0.50175 0.54561 0.71461 0.0
C937 C 0.49209 0.56432 0.70105 0.0
C938 C 0.46534 0.56721 0.69843 0.0
C939 C 0.44818 0.55142 0.70939 0.0
C940 C 0.45773 0.53266 0.72296 0.0
C941 C 0.48633 0.48533 0.83101 0.0
C942 C 0.46139 0.47429 0.83213 0.0
C943 C 0.49678 0.49242 0.81218 0.0
C944 C 0.48231 0.48877 0.79431 0.0
C945 C 0.45675 0.47958 0.79557 0.0
C946 C 0.44641 0.47222 0.81432 0.0
C947 C 0.49478 0.49076 0.77416 0.0
C948 C 0.48521 0.50881 0.75994 0.0
C949 C 0.51492 0.47346 0.76854 0.0
C950 C 0.52522 0.45344 0.78275 0.0
C951 C 0.50899 0.43365 0.79045 0.0
C952 C 0.51874 0.41514 0.80414 0.0
C953 C 0.54477 0.41607 0.81006 0.0
C954 C 0.56111 0.43546 0.80225 0.0
C955 C 0.55143 0.45406 0.78859 0.0
H956 H 0.55229 0.40173 0.82066 0.0
H957 H 0.45791 0.58171 0.68792 0.0
H958 H -0.00286 0.51757 0.82371 0.0
H959 H 0.98976 0.50986 0.78744 0.0
H960 H 0.07041 0.52635 0.77516 0.0
H961 H 0.07762 0.53496 0.81125 0.0
H962 H 0.04187 0.55574 0.75288 0.0
H963 H 0.04291 0.46454 0.76651 0.0
H964 H 0.03182 0.42339 0.78407 0.0
H965 H 0.95184 0.43299 0.76737 0.0
H966 H 0.96235 0.47442 0.74995 0.0
H967 H 0.01552 0.54683 0.64752 0.0
H968 H 0.03417 0.53245 0.67997 0.0
H969 H 0.95734 0.52611 0.70553 0.0
H970 H 0.93858 0.5403 0.67329 0.0
H971 H 0.99054 0.48626 0.7188 0.0
H972 H 0.98964 0.58135 0.7116 0.0
H973 H 0.00075 0.62296 0.69462 0.0
H974 H 0.08185 0.60485 0.69979 0.0
H975 H 0.07118 0.56298 0.7166 0.0
C976 C 0.01339 0.51894 0.81332 0.0
C977 C 0.03784 0.52721 0.8202 0.0
C978 C 0.00922 0.51437 0.79259 0.0
C979 C 0.02956 0.51749 0.77854 0.0
C980 C 0.05441 0.52396 0.78569 0.0
C981 C 0.05848 0.52891 0.8063 0.0
C982 C 0.02417 0.5177 0.75637 0.0
C983 C 0.03127 0.54014 0.74535 0.0
C984 C 0.00988 0.49766 0.74658 0.0
C985 C 0.00342 0.47271 0.75702 0.0
C986 C 0.02292 0.458 0.76671 0.0
C987 C 0.01674 0.43459 0.77662 0.0
C988 C 0.99114 0.4256 0.77686 0.0
C989 C 0.97166 0.43998 0.76716 0.0
C990 C 0.97773 0.46341 0.75724 0.0
C991 C 0.0026 0.54195 0.65995 0.0
C992 C 0.97563 0.54509 0.65798 0.0
C993 C 0.01327 0.53371 0.67844 0.0
C994 C -0.0029 0.52846 0.69514 0.0
C995 C 0.97012 0.53003 0.6928 0.0
C996 C 0.95947 0.53838 0.67441 0.0
C997 C 0.00806 0.5243 0.71568 0.0
C998 C 0.00181 0.50135 0.72634 0.0
C999 C 0.02323 0.54379 0.72523 0.0
C1000 C 0.02961 0.56893 0.7151 0.0
C1001 C 0.00983 0.58616 0.70895 0.0
C1002 C 0.01604 0.6098 0.69939 0.0
C1003 C 0.04199 0.6165 0.69606 0.0
C1004 C 0.06177 0.5996 0.70234 0.0
C1005 C 0.05565 0.57593 0.71188 0.0
H1006 H 0.0468 0.6348 0.68868 0.0
H1007 H 0.98639 0.40748 0.78454 0.0
H1008 H 0.06157 0.15241 0.1659 0.0
H1009 H 0.04222 0.19598 0.16347 0.0
H1010 H 0.02854 0.18409 0.09934 0.0
H1011 H 0.04833 0.14075 0.10154 0.0
H1012 H 0.04663 0.23138 0.10554 0.0
H1013 H 0.97904 0.17914 0.13401 0.0
H1014 H 0.95906 0.14815 0.15815 0.0
H1015 H 0.97334 0.20153 0.20738 0.0
H1016 H 0.99374 0.2327 0.18357 0.0
H1017 H 0.93588 0.33336 0.12361 0.0
H1018 H 0.9512 0.28792 0.12354 0.0
H1019 H 0.02956 0.31472 0.13351 0.0
H1020 H 0.01459 0.35996 0.13328 0.0
H1021 H 0.97523 0.25842 0.15164 0.0
H1022 H 0.07142 0.27658 0.10778 0.0
H1023 H 0.08846 0.30634 0.08139 0.0
H1024 H 0.01133 0.31849 0.05853 0.0
H1025 H 0.99388 0.28853 0.08458 0.0
C1026 C 0.05453 0.15909 0.15126 0.0
C1027 C 0.05646 0.14309 0.13392 0.0
C1028 C 0.04333 0.18395 0.14992 0.0
C1029 C 0.03359 0.19314 0.13128 0.0
C1030 C 0.03588 0.17737 0.11389 0.0
C1031 C 0.04719 0.15259 0.11518 0.0
C1032 C 0.02126 0.21931 0.12985 0.0
C1033 C 0.031 0.23727 0.1156 0.0
C1034 C 0.00046 0.22681 0.14267 0.0
C1035 C 0.98812 0.20816 0.15703 0.0
C1036 C 0.97809 0.18419 0.15001 0.0
C1037 C 0.96666 0.1666 0.16363 0.0
C1038 C 0.96498 0.17284 0.18429 0.0
C1039 C 0.97468 0.19671 0.19137 0.0
C1040 C 0.98615 0.21436 0.17782 0.0
C1041 C 0.95637 0.32955 0.12578 0.0
C1042 C 0.97405 0.35027 0.12831 0.0
C1043 C 0.96507 0.3036 0.12579 0.0
C1044 C 0.99155 0.29799 0.12824 0.0
C1045 C 0.0091 0.31863 0.13121 0.0
C1046 C 0.00047 0.3445 0.13114 0.0
C1047 C 0.00104 0.27061 0.12768 0.0
C1048 C 0.99079 0.25246 0.14154 0.0
C1049 C 0.02097 0.26272 0.11419 0.0
C1050 C 0.03134 0.28048 0.09826 0.0
C1051 C 0.05812 0.28551 0.09706 0.0
C1052 C 0.06784 0.30243 0.08217 0.0
C1053 C 0.05098 0.31436 0.06833 0.0
C1054 C 0.02436 0.30931 0.0693 0.0
C1055 C 0.01454 0.29239 0.08414 0.0
H1056 H 0.05854 0.32747 0.05683 0.0
H1057 H 0.95613 0.1592 0.19481 0.0
H1058 H 0.45002 0.8423 0.17337 0.0
H1059 H 0.47043 0.79911 0.17477 0.0
H1060 H 0.47821 0.7992 0.10939 0.0
H1061 H 0.45752 0.84214 0.10781 0.0
H1062 H 0.46305 0.75192 0.12317 0.0
H1063 H 0.52918 0.81528 0.13987 0.0
H1064 H 0.54812 0.85193 0.15928 0.0
H1065 H 0.54366 0.80669 0.21426 0.0
H1066 H 0.52436 0.76988 0.19521 0.0
H1067 H 0.55883 0.65552 0.10907 0.0
H1068 H 0.53666 0.69774 0.1102 0.0
H1069 H 0.53119 0.6922 0.17557 0.0
H1070 H 0.55369 0.65006 0.17464 0.0
H1071 H 0.54387 0.74138 0.16347 0.0
H1072 H 0.47956 0.67729 0.14666 0.0
H1073 H 0.46084 0.64047 0.12733 0.0
H1074 H 0.46162 0.68684 0.07281 0.0
H1075 H 0.48073 0.72383 0.09176 0.0
C1076 C 0.45585 0.83303 0.15927 0.0
C1077 C 0.45231 0.84575 0.14049 0.0
C1078 C 0.46761 0.8084 0.16011 0.0
C1079 C 0.47619 0.79615 0.14221 0.0
C1080 C 0.4718 0.80836 0.1234 0.0
C1081 C 0.46001 0.83294 0.12253 0.0
C1082 C 0.49044 0.77096 0.14303 0.0
C1083 C 0.48086 0.74968 0.13182 0.0
C1084 C 0.51333 0.76789 0.15471 0.0
C1085 C 0.52508 0.78994 0.16615 0.0
C1086 C 0.53206 0.81323 0.15613 0.0
C1087 C 0.54289 0.83402 0.16706 0.0
C1088 C 0.54702 0.83167 0.188 0.0
C1089 C 0.54041 0.8085 0.19804 0.0
C1090 C 0.52954 0.78766 0.18719 0.0
C1091 C 0.55316 0.66337 0.12372 0.0
C1092 C 0.55788 0.64934 0.14176 0.0
C1093 C 0.54036 0.68745 0.12432 0.0
C1094 C 0.53188 0.69786 0.14294 0.0
C1095 C 0.53747 0.68443 0.16104 0.0
C1096 C 0.55031 0.66034 0.16046 0.0
C1097 C 0.51664 0.72244 0.14342 0.0
C1098 C 0.526 0.74358 0.1549 0.0
C1099 C 0.49352 0.72538 0.13201 0.0
C1100 C 0.4818 0.70325 0.1206 0.0
C1101 C 0.47592 0.67958 0.13052 0.0
C1102 C 0.46521 0.65868 0.11963 0.0
C1103 C 0.4601 0.66129 0.09885 0.0
C1104 C 0.46562 0.68484 0.08891 0.0
C1105 C 0.47637 0.70578 0.09972 0.0
H1106 H 0.45182 0.64509 0.09044 0.0
H1107 H 0.5554 0.84779 0.19643 0.0
H1108 H 0.4136 0.64753 0.3701 0.0
H1109 H 0.42787 0.6932 0.36843 0.0
H1110 H 0.50768 0.66826 0.37235 0.0
H1111 H 0.49365 0.62265 0.3741 0.0
H1112 H 0.49726 0.70929 0.39773 0.0
H1113 H 0.48387 0.68669 0.32778 0.0
H1114 H 0.45929 0.66953 0.29848 0.0
H1115 H 0.40164 0.7293 0.30664 0.0
H1116 H 0.42568 0.74657 0.33623 0.0
H1117 H 0.55746 0.82845 0.36916 0.0
H1118 H 0.54318 0.78282 0.36965 0.0
H1119 H 0.4635 0.80787 0.3646 0.0
H1120 H 0.4776 0.85355 0.36385 0.0
H1121 H 0.47382 0.7667 0.33961 0.0
H1122 H 0.4875 0.78889 0.40996 0.0
H1123 H 0.51233 0.8055 0.43934 0.0
H1124 H 0.56999 0.74599 0.43015 0.0
H1125 H 0.54567 0.72924 0.40053 0.0
C1126 C 0.43418 0.65178 0.37062 0.0
C1127 C 0.4525 0.63148 0.37219 0.0
C1128 C 0.4423 0.67785 0.36959 0.0
C1129 C 0.46883 0.68404 0.37011 0.0
C1130 C 0.48712 0.66386 0.37192 0.0
C1131 C 0.47905 0.63781 0.37286 0.0
C1132 C 0.47758 0.71159 0.36886 0.0
C1133 C 0.49242 0.72177 0.38491 0.0
C1134 C 0.47082 0.72791 0.35229 0.0
C1135 C 0.45645 0.71776 0.33436 0.0
C1136 C 0.46584 0.69605 0.32344 0.0
C1137 C 0.45202 0.68632 0.30676 0.0
C1138 C 0.42888 0.69827 0.30074 0.0
C1139 C 0.41955 0.72004 0.31135 0.0
C1140 C 0.43328 0.72982 0.32807 0.0
C1141 C 0.5369 0.82427 0.36812 0.0
C1142 C 0.51865 0.84463 0.36657 0.0
C1143 C 0.52877 0.79819 0.36845 0.0
C1144 C 0.50226 0.792 0.36737 0.0
C1145 C 0.48405 0.81224 0.36546 0.0
C1146 C 0.49215 0.83833 0.36512 0.0
C1147 C 0.4935 0.76442 0.3685 0.0
C1148 C 0.47865 0.75422 0.35243 0.0
C1149 C 0.50032 0.74803 0.38503 0.0
C1150 C 0.51489 0.75798 0.40291 0.0
C1151 C 0.50557 0.77947 0.41411 0.0
C1152 C 0.51954 0.78889 0.43083 0.0
C1153 C 0.54275 0.77685 0.43658 0.0
C1154 C 0.55202 0.75532 0.42566 0.0
C1155 C 0.53815 0.74584 0.40892 0.0
H1156 H 0.55354 0.78417 0.44952 0.0
H1157 H 0.4182 0.69071 0.28782 0.0
H1158 H 0.05994 0.32671 0.36423 0.0
H1159 H 0.04361 0.28249 0.35815 0.0
H1160 H 0.99385 0.28906 0.4107 0.0
H1161 H 0.01059 0.333 0.41722 0.0
H1162 H 0.01405 0.24148 0.40879 0.0
H1163 H 0.97072 0.29919 0.36208 0.0
H1164 H 0.96789 0.33277 0.3352 0.0
H1165 H 0.00947 0.28258 0.29416 0.0
H1166 H 0.01286 0.24883 0.32091 0.0
H1167 H 0.92342 0.14224 0.38458 0.0
H1168 H 0.94295 0.18508 0.39077 0.0
H1169 H 0.99603 0.17263 0.34096 0.0
H1170 H 0.97655 0.12977 0.33456 0.0
H1171 H 0.97531 0.22238 0.34123 0.0
H1172 H 0.01648 0.16364 0.38841 0.0
H1173 H 0.01727 0.13014 0.41543 0.0
H1174 H 0.97766 0.18258 0.45594 0.0
H1175 H 0.97625 0.21629 0.42904 0.0
C1176 C 0.04568 0.31866 0.3746 0.0
C1177 C 0.03639 0.33345 0.39111 0.0
C1178 C 0.03629 0.29343 0.37105 0.0
C1179 C 0.01714 0.28267 0.38374 0.0
C1180 C 0.00855 0.297 0.40067 0.0
C1181 C 0.01811 0.32215 0.40435 0.0
C1182 C 0.00539 0.25687 0.37901 0.0
C1183 C 0.00534 0.2374 0.39409 0.0
C1184 C 0.9944 0.25139 0.35971 0.0
C1185 C 0.99228 0.2716 0.34357 0.0
C1186 C 0.97943 0.2954 0.34737 0.0
C1187 C 0.9777 0.31445 0.33215 0.0
C1188 C 0.98856 0.30984 0.313 0.0
C1189 C 0.00111 0.28614 0.30902 0.0
C1190 C 0.00292 0.26704 0.32419 0.0
C1191 C 0.9391 0.14867 0.37482 0.0
C1192 C 0.9485 0.13254 0.35911 0.0
C1193 C 0.95032 0.1731 0.37845 0.0
C1194 C 0.97116 0.18181 0.3665 0.0
C1195 C 0.98002 0.16618 0.35039 0.0
C1196 C 0.96886 0.14169 0.34677 0.0
C1197 C 0.98392 0.2071 0.37101 0.0
C1198 C 0.98413 0.22646 0.35589 0.0
C1199 C 0.99485 0.21251 0.39032 0.0
C1200 C 0.99605 0.19242 0.40663 0.0
C1201 C 0.00777 0.16798 0.40303 0.0
C1202 C 0.00835 0.14896 0.41833 0.0
C1203 C -0.00253 0.1542 0.43737 0.0
C1204 C 0.98606 0.17853 0.44117 0.0
C1205 C 0.98538 0.19761 0.42591 0.0
H1206 H -0.00209 0.13944 0.44919 0.0
H1207 H 0.9872 0.32461 0.30124 0.0
H1208 H 0.06687 0.66031 0.86223 0.0
H1209 H 0.05317 0.70601 0.85995 0.0
H1210 H 0.97404 0.68119 0.85031 0.0
H1211 H 0.98782 0.63547 0.85173 0.0
H1212 H 0.98378 0.72031 0.82655 0.0
H1213 H 0.99668 0.70389 0.89756 0.0
H1214 H 0.0204 0.68958 0.92822 0.0
H1215 H 0.07895 0.74768 0.91715 0.0
H1216 H 0.05574 0.7621 0.88627 0.0
H1217 H 0.92494 0.84217 0.85682 0.0
H1218 H 0.9387 0.79629 0.85485 0.0
H1219 H 0.01864 0.82079 0.85131 0.0
H1220 H 0.00514 0.86659 0.85301 0.0
H1221 H 0.00805 0.78227 0.88151 0.0
H1222 H 0.99256 0.79889 0.81029 0.0
H1223 H 0.96664 0.81298 0.7807 0.0
H1224 H 0.90969 0.75405 0.794 0.0
H1225 H 0.93511 0.73984 0.82386 0.0
C1226 C 0.04657 0.66462 0.85958 0.0
C1227 C 0.02839 0.64434 0.85728 0.0
C1228 C 0.03873 0.69074 0.85837 0.0
C1229 C 0.01247 0.69707 0.85535 0.0
C1230 C 0.99438 0.67681 0.85269 0.0
C1231 C 0.00228 0.65068 0.85355 0.0
C1232 C 0.00381 0.72479 0.85517 0.0
C1233 C 0.98882 0.73375 0.83871 0.0
C1234 C 0.01064 0.74247 0.87089 0.0
C1235 C 0.0246 0.7339 0.8895 0.0
C1236 C 0.01471 0.71349 0.90159 0.0
C1237 C 0.02805 0.70538 0.91902 0.0
C1238 C 0.0512 0.71767 0.9246 0.0
C1239 C 0.06103 0.73815 0.91279 0.0
C1240 C 0.04778 0.74632 0.89534 0.0
C1241 C 0.94542 0.83777 0.85546 0.0
C1242 C 0.96396 0.85797 0.85511 0.0
C1243 C 0.95323 0.8116 0.85428 0.0
C1244 C 0.97966 0.80527 0.8529 0.0
C1245 C -0.00185 0.82536 0.85236 0.0
C1246 C 0.99037 0.8515 0.85327 0.0
C1247 C 0.98818 0.77765 0.85292 0.0
C1248 C 0.00307 0.76875 0.86938 0.0
C1249 C 0.9809 0.75998 0.83739 0.0
C1250 C 0.96561 0.76849 0.81944 0.0
C1251 C 0.97439 0.7891 0.80702 0.0
C1252 C 0.95982 0.79707 0.79018 0.0
C1253 C 0.9365 0.78447 0.78551 0.0
C1254 C 0.92774 0.76382 0.79765 0.0
C1255 C 0.94223 0.75579 0.81453 0.0
H1256 H 0.92525 0.79066 0.77245 0.0
H1257 H 0.0615 0.71136 0.9381 0.0
H1258 H 0.42032 0.33974 0.87912 0.0
H1259 H 0.43375 0.29384 0.87984 0.0
H1260 H 0.50418 0.31383 0.84793 0.0
H1261 H 0.49067 0.35962 0.84675 0.0
H1262 H 0.48418 0.26916 0.83353 0.0
H1263 H 0.50368 0.30504 0.89962 0.0
H1264 H 0.49368 0.32776 0.93179 0.0
H1265 H 0.43734 0.26881 0.94656 0.0
H1266 H 0.44676 0.24592 0.91433 0.0
H1267 H 0.56149 0.15879 0.8584 0.0
H1268 H 0.54425 0.20328 0.85584 0.0
H1269 H 0.47331 0.17827 0.88472 0.0
H1270 H 0.49038 0.13374 0.8874 0.0
H1271 H 0.49177 0.22455 0.90038 0.0
H1272 H 0.47372 0.18758 0.83495 0.0
H1273 H 0.48412 0.16463 0.80296 0.0
H1274 H 0.538 0.2254 0.78703 0.0
H1275 H 0.52822 0.24851 0.8191 0.0
C1276 C 0.43859 0.33434 0.87214 0.0
C1277 C 0.45452 0.35336 0.86301 0.0
C1278 C 0.44628 0.30812 0.87263 0.0
C1279 C 0.47016 0.30049 0.86422 0.0
C1280 C 0.48571 0.31929 0.85455 0.0
C1281 C 0.47798 0.34548 0.85396 0.0
C1282 C 0.47933 0.27307 0.86596 0.0
C1283 C 0.4861 0.2595 0.84816 0.0
C1284 C 0.48129 0.26027 0.88502 0.0
C1285 C 0.47574 0.27392 0.90447 0.0
C1286 C 0.48902 0.29702 0.90966 0.0
C1287 C 0.48348 0.30992 0.92792 0.0
C1288 C 0.46484 0.29977 0.94119 0.0
C1289 C 0.45175 0.27667 0.93626 0.0
C1290 C 0.45719 0.26372 0.918 0.0
C1291 C 0.54225 0.16276 0.86426 0.0
C1292 C 0.52727 0.14273 0.87306 0.0
C1293 C 0.53239 0.18815 0.8627 0.0
C1294 C 0.50741 0.19395 0.8699 0.0
C1295 C 0.49261 0.17414 0.87903 0.0
C1296 C 0.50239 0.14871 0.88051 0.0
C1297 C 0.49677 0.22076 0.86798 0.0
C1298 C 0.48974 0.2342 0.88575 0.0
C1299 C 0.49461 0.23342 0.8489 0.0
C1300 C 0.50041 0.21965 0.82953 0.0
C1301 C 0.48794 0.19595 0.82471 0.0
C1302 C 0.4937 0.18292 0.80655 0.0
C1303 C 0.51175 0.19352 0.793 0.0
C1304 C 0.52404 0.2172 0.79756 0.0
C1305 C 0.51838 0.23028 0.81572 0.0
H1306 H 0.51619 0.18342 0.77894 0.0
H1307 H 0.46057 0.30979 0.95531 0.0
H1308 H 0.42432 0.16093 0.62189 0.0
H1309 H 0.43855 0.20652 0.62407 0.0
H1310 H 0.51752 0.18094 0.63297 0.0
H1311 H 0.50345 0.13535 0.63114 0.0
H1312 H 0.5055 0.22053 0.65835 0.0
H1313 H 0.49726 0.20253 0.58681 0.0
H1314 H 0.47476 0.18786 0.5557 0.0
H1315 H 0.41685 0.24731 0.5641 0.0
H1316 H 0.43882 0.26211 0.59543 0.0
H1317 H 0.56997 0.33988 0.63366 0.0
H1318 H 0.55457 0.29458 0.63466 0.0
H1319 H 0.47587 0.32132 0.62638 0.0
H1320 H 0.49105 0.36656 0.62518 0.0
H1321 H 0.48722 0.28133 0.60121 0.0
H1322 H 0.49619 0.30007 0.67238 0.0
H1323 H 0.51878 0.31464 0.70346 0.0
H1324 H 0.57555 0.25393 0.69571 0.0
H1325 H 0.55348 0.23921 0.66441 0.0
C1326 C 0.44471 0.165 0.62437 0.0
C1327 C 0.46278 0.14453 0.62622 0.0
C1328 C 0.45281 0.19106 0.62556 0.0
C1329 C 0.47914 0.19709 0.62843 0.0
C1330 C 0.49712 0.1767 0.63072 0.0
C1331 C 0.48904 0.15065 0.62959 0.0
C1332 C 0.48805 0.22466 0.62872 0.0
C1333 C 0.50178 0.23376 0.64576 0.0
C1334 C 0.48271 0.24203 0.61246 0.0
C1335 C 0.46954 0.23325 0.59357 0.0
C1336 C 0.47962 0.21234 0.5821 0.0
C1337 C 0.46698 0.20403 0.56442 0.0
C1338 C 0.44435 0.2166 0.55796 0.0
C1339 C 0.43436 0.23757 0.56914 0.0
C1340 C 0.4469 0.24594 0.58685 0.0
C1341 C 0.54937 0.33613 0.63214 0.0
C1342 C 0.53173 0.35681 0.62933 0.0
C1343 C 0.5406 0.31025 0.6328 0.0
C1344 C 0.51405 0.30464 0.63075 0.0
C1345 C 0.49643 0.32525 0.628 0.0
C1346 C 0.50516 0.35109 0.62736 0.0
C1347 C 0.50468 0.27723 0.63084 0.0
C1348 C 0.49089 0.26814 0.61383 0.0
C1349 C 0.51001 0.25989 0.64711 0.0
C1350 C 0.52332 0.26871 0.66593 0.0
C1351 C 0.51362 0.28997 0.6772 0.0
C1352 C 0.5263 0.29823 0.69488 0.0
C1353 C 0.54863 0.28527 0.70153 0.0
C1354 C 0.55828 0.26398 0.69053 0.0
C1355 C 0.54567 0.25565 0.67283 0.0
H1356 H 0.55842 0.29169 0.71522 0.0
H1357 H 0.43459 0.21013 0.54426 0.0
H1358 H 0.06172 0.85319 0.61279 0.0
H1359 H 0.04477 0.80884 0.60895 0.0
H1360 H 0.98573 0.82511 0.65372 0.0
H1361 H 0.00281 0.86947 0.65791 0.0
H1362 H 0.00633 0.77663 0.65882 0.0
H1363 H 0.97103 0.82694 0.60374 0.0
H1364 H 0.97297 0.85681 0.57428 0.0
H1365 H 0.02044 0.80165 0.54198 0.0
H1366 H 0.01912 0.7716 0.57136 0.0
H1367 H 0.92738 0.667 0.63323 0.0
H1368 H 0.94169 0.71227 0.6382 0.0
H1369 H 0.00449 0.6999 0.5959 0.0
H1370 H 0.99035 0.65473 0.59081 0.0
H1371 H 0.97978 0.74712 0.58991 0.0
H1372 H 0.01635 0.69767 0.64514 0.0
H1373 H 0.01489 0.66768 0.67449 0.0
H1374 H 0.96531 0.72121 0.70649 0.0
H1375 H 0.96605 0.75134 0.67712 0.0
C1376 C 0.04524 0.84732 0.62194 0.0
C1377 C 0.03348 0.86493 0.63554 0.0
C1378 C 0.03551 0.82199 0.61966 0.0
C1379 C 0.01371 0.81386 0.63079 0.0
C1380 C 0.00249 0.83105 0.64492 0.0
C1381 C 0.01226 0.85641 0.64725 0.0
C1382 C 0.00232 0.7876 0.62731 0.0
C1383 C 0.00014 0.77031 0.64382 0.0
C1384 C 0.99467 0.77925 0.60766 0.0
C1385 C 0.99516 0.79712 0.58983 0.0
C1386 C 0.98202 0.82125 0.5904 0.0
C1387 C 0.98299 0.83821 0.57371 0.0
C1388 C 0.99687 0.83116 0.55629 0.0
C1389 C 0.00972 0.80709 0.55549 0.0
C1390 C 0.00885 0.79008 0.57215 0.0
C1391 C 0.94412 0.67398 0.62487 0.0
C1392 C 0.95782 0.65726 0.6117 0.0
C1393 C 0.95231 0.69979 0.62779 0.0
C1394 C 0.97428 0.7093 0.61755 0.0
C1395 C 0.9875 0.6929 0.60395 0.0
C1396 C 0.97943 0.66708 0.60112 0.0
C1397 C 0.98397 0.73613 0.62138 0.0
C1398 C 0.98581 0.75353 0.60493 0.0
C1399 C 0.9913 0.74457 0.64108 0.0
C1400 C 0.99101 0.72662 0.65884 0.0
C1401 C 0.00495 0.70295 0.65837 0.0
C1402 C 0.00428 0.68594 0.67502 0.0
C1403 C 0.98998 0.69249 0.69234 0.0
C1404 C 0.97635 0.71613 0.69305 0.0
C1405 C 0.97688 0.73319 0.6764 0.0
H1406 H 0.9895 0.67929 0.70522 0.0
H1407 H -0.00234 0.84434 0.54341 0.0
H1408 H 0.92679 0.96295 0.93093 0.0
H1409 H 0.93869 0.98139 0.96388 0.0
H1410 H 0.00901 0.93554 0.964 0.0
H1411 H 0.99696 0.91649 0.93114 0.0
H1412 H 0.98672 0.93658 0.00129 0.0
H1413 H 0.01013 -0.00064 0.94985 0.0
H1414 H 0.00231 0.02787 0.92018 0.0
H1415 H 0.94403 0.06985 0.95356 0.0
H1416 H 0.95125 0.04133 0.98336 0.0
H1417 H 0.06156 0.01041 0.07103 0.0
H1418 H 0.04388 0.98742 0.04163 0.0
H1419 H 0.97552 0.03613 0.04365 0.0
H1420 H 0.99334 0.05967 0.07292 0.0
H1421 H 0.99465 0.03322 0.00605 0.0
H1422 H 0.97341 0.97165 0.05846 0.0
H1423 H 0.98198 0.94315 0.08801 0.0
H1424 H 0.03695 0.899 0.05291 0.0
H1425 H 0.02898 0.92746 0.02323 0.0
C1426 C 0.94473 0.95665 0.938 0.0
C1427 C 0.96109 0.93846 0.92836 0.0
C1428 C 0.95151 0.96725 0.95681 0.0
C1429 C 0.97492 0.96015 0.96618 0.0
C1430 C 0.99087 0.94131 0.95696 0.0
C1431 C 0.98401 0.93052 0.93818 0.0
C1432 C 0.98322 0.97315 0.98521 0.0
C1433 C 0.98871 0.95768 0.00231 0.0
C1434 C 0.98525 0.00073 0.98659 0.0
C1435 C 0.98105 0.01805 0.96876 0.0
C1436 C 0.99552 0.01455 0.95081 0.0
C1437 C 0.99121 0.03073 0.93398 0.0
C1438 C 0.97264 0.05061 0.93497 0.0
C1439 C 0.95838 0.05441 0.95281 0.0
C1440 C 0.96259 0.03827 0.96968 0.0
C1441 C 0.04267 0.01615 0.06534 0.0
C1442 C 0.02885 0.03691 0.07428 0.0
C1443 C 0.03253 0.00286 0.0486 0.0
C1444 C 0.00825 0.00986 0.04062 0.0
C1445 C 0.99427 0.03039 0.04963 0.0
C1446 C 0.00446 0.0438 0.06635 0.0
C1447 C -0.00182 0.99668 0.0222 0.0
C1448 C 0.99244 0.01212 0.00513 0.0
C1449 C 0.99603 0.9691 0.02087 0.0
C1450 C 0.00074 0.95183 0.03867 0.0
C1451 C 0.98746 0.95598 0.05709 0.0
C1452 C 0.99219 0.93981 0.07385 0.0
C1453 C 0.01004 0.91931 0.07235 0.0
C1454 C 0.02315 0.9149 0.05406 0.0
C1455 C 0.01851 0.93102 0.03725 0.0
H1456 H 0.01368 0.90682 0.08535 0.0
H1457 H 0.96932 0.06311 0.92192 0.0
H1458 H 0.54541 0.01414 0.91282 0.0
H1459 H 0.52993 0.99025 0.94253 0.0
H1460 H 0.5459 0.05727 0.9805 0.0
H1461 H 0.56206 0.08125 0.9508 0.0
H1462 H 0.5606 0.01225 -0.00125 0.0
H1463 H 0.48444 0.04429 0.96493 0.0
H1464 H 0.4551 0.0514 0.9358 0.0
H1465 H 0.44544 0.96835 0.92908 0.0
H1466 H 0.47503 0.96073 0.95802 0.0
H1467 H 0.48051 0.97467 0.08199 0.0
H1468 H 0.50155 0.99674 0.0535 0.0
H1469 H 0.48615 0.93001 0.01507 0.0
H1470 H 0.46466 0.9079 0.04345 0.0
H1471 H 0.4717 0.97497 -0.00273 0.0
H1472 H 0.54745 0.94317 0.03189 0.0
H1473 H 0.57656 0.93658 0.06124 0.0
H1474 H 0.5865 0.01973 0.0669 0.0
H1475 H 0.55716 0.02684 0.03774 0.0
C1476 C 0.54569 0.02384 0.92749 0.0
C1477 C 0.55475 0.04967 0.92946 0.0
C1478 C 0.53678 0.01015 0.94443 0.0
C1479 C 0.53638 0.02216 0.96362 0.0
C1480 C 0.54599 0.04772 0.96578 0.0
C1481 C 0.55512 0.0614 0.94881 0.0
C1482 C 0.52543 0.00809 0.98132 0.0
C1483 C 0.54105 0.00437 -0.00143 0.0
C1484 C 0.50011 0.9974 0.98084 0.0
C1485 C 0.48214 0.00194 0.96353 0.0
C1486 C 0.4762 0.02754 0.95715 0.0
C1487 C 0.45951 0.03166 0.94069 0.0
C1488 C 0.44846 0.01034 0.93057 0.0
C1489 C 0.45403 0.98485 0.93693 0.0
C1490 C 0.47075 0.98062 0.95337 0.0
C1491 C 0.48179 0.96456 0.06753 0.0
C1492 C 0.47085 0.93956 0.06493 0.0
C1493 C 0.49394 0.97717 0.05129 0.0
C1494 C 0.49558 0.96491 0.03224 0.0
C1495 C 0.48508 0.93977 0.02969 0.0
C1496 C 0.47286 0.92716 0.04591 0.0
C1497 C 0.50691 0.97893 0.01468 0.0
C1498 C 0.49129 0.98274 -0.00255 0.0
C1499 C 0.53217 0.98977 0.01525 0.0
C1500 C 0.54991 0.98554 0.03274 0.0
C1501 C 0.55568 0.96006 0.03949 0.0
C1502 C 0.57225 0.95623 0.05608 0.0
C1503 C 0.58332 0.97773 0.06596 0.0
C1504 C 0.57789 0.0031 0.05924 0.0
C1505 C 0.56131 0.00703 0.04267 0.0
H1506 H 0.59615 0.97472 0.0788 0.0
H1507 H 0.43554 0.01357 0.91782 0.0
H1508 H 0.47042 0.02073 0.57969 0.0
H1509 H 0.49029 0.99746 0.5513 0.0
H1510 H 0.47748 0.06431 0.51242 0.0
H1511 H 0.45712 0.08767 0.54071 0.0
H1512 H 0.46058 0.01996 0.49515 0.0
H1513 H 0.53841 0.04821 0.5285 0.0
H1514 H 0.56844 0.05397 0.55738 0.0
H1515 H 0.57422 0.97057 0.5642 0.0
H1516 H 0.54393 0.9643 0.53553 0.0
H1517 H 0.53134 0.97425 0.41085 0.0
H1518 H 0.5167 -0.00048 0.44009 0.0
H1519 H 0.52968 0.9329 0.47918 0.0
H1520 H 0.54502 0.9075 0.44992 0.0
H1521 H 0.54715 0.97746 0.49638 0.0
H1522 H 0.46856 0.9492 0.46382 0.0
H1523 H 0.43833 0.94321 0.43509 0.0
H1524 H 0.4337 0.02652 0.42712 0.0
H1525 H 0.46418 0.033 0.45565 0.0
C1526 C 0.47206 0.03063 0.56516 0.0
C1527 C 0.46208 0.05601 0.5624 0.0
C1528 C 0.48355 0.01732 0.54898 0.0
C1529 C 0.48551 0.02924 0.52981 0.0
C1530 C 0.47614 0.0548 0.52712 0.0
C1531 C 0.46457 0.06812 0.5433 0.0
C1532 C 0.4958 0.01436 0.51228 0.0
C1533 C 0.47969 0.01104 0.49527 0.0
C1534 C 0.5204 0.00208 0.51276 0.0
C1535 C 0.53871 0.00579 0.52997 0.0
C1536 C 0.54592 0.03109 0.53625 0.0
C1537 C 0.56302 0.03445 0.55257 0.0
C1538 C 0.57318 0.01265 0.56265 0.0
C1539 C 0.56631 0.98744 0.55639 0.0
C1540 C 0.5492 0.98397 0.5401 0.0
C1541 C 0.53105 0.96489 0.42564 0.0
C1542 C 0.53917 0.9388 0.42807 0.0
C1543 C 0.52262 0.97937 0.44233 0.0
C1544 C 0.52175 0.96795 0.46173 0.0
C1545 C 0.53016 0.94202 0.4643 0.0
C1546 C 0.53881 0.92753 0.44758 0.0
C1547 C 0.51194 0.98317 0.47926 0.0
C1548 C 0.52808 0.98648 0.49627 0.0
C1549 C 0.48732 0.99542 0.47882 0.0
C1550 C 0.46884 0.99157 0.46175 0.0
C1551 C 0.46123 0.96624 0.45585 0.0
C1552 C 0.44403 0.96275 0.43962 0.0
C1553 C 0.43415 0.98447 0.42925 0.0
C1554 C 0.44139 0.00972 0.43515 0.0
C1555 C 0.45861 0.01331 0.45136 0.0
H1556 H 0.42084 0.98173 0.41669 0.0
H1557 H 0.58642 0.01529 0.57528 0.0
H1558 H 0.97753 0.94315 0.58123 0.0
H1559 H 0.95885 0.96245 0.55043 0.0
H1560 H 0.03032 0.00416 0.53948 0.0
H1561 H 0.04886 0.98555 0.57037 0.0
H1562 H 0.98968 0.03464 0.53158 0.0
H1563 H 0.01616 0.94616 0.51526 0.0
H1564 H 0.01642 0.89816 0.51947 0.0
H1565 H 0.93435 0.89567 0.50836 0.0
H1566 H 0.93354 0.94371 0.50438 0.0
H1567 H 0.98459 0.06195 0.42666 0.0
H1568 H 0.99591 0.04529 0.46033 0.0
H1569 H 0.92189 0.00605 0.46409 0.0
H1570 H 0.91073 0.02201 0.43011 0.0
H1571 H 0.95946 0.97494 0.47691 0.0
H1572 H 0.93387 0.06353 0.49037 0.0
H1573 H 0.93447 0.11131 0.485 0.0
H1574 H 0.01526 0.11369 0.50086 0.0
H1575 H 0.01524 0.06585 0.50608 0.0
C1576 C 0.98918 0.95659 0.57234 0.0
C1577 C 0.01473 0.96266 0.57814 0.0
C1578 C 0.97851 0.96753 0.55473 0.0
C1579 C 0.99334 0.98445 0.54254 0.0
C1580 C 0.01854 0.99115 0.54866 0.0
C1581 C 0.02914 0.98039 0.56629 0.0
C1582 C 0.98319 0.99447 0.52296 0.0
C1583 C 0.9832 0.0216 0.51957 0.0
C1584 C 0.97421 0.97745 0.50748 0.0
C1585 C 0.97474 0.94855 0.50975 0.0
C1586 C -0.00186 0.93539 0.51387 0.0
C1587 C -0.00161 0.90818 0.51619 0.0
C1588 C 0.9754 0.89389 0.51424 0.0
C1589 C 0.95213 0.90677 0.50991 0.0
C1590 C 0.95176 0.93398 0.50761 0.0
C1591 C 0.97071 0.04979 0.43466 0.0
C1592 C 0.94675 0.04334 0.42578 0.0
C1593 C 0.97714 0.0404 0.45394 0.0
C1594 C 0.95954 0.02481 0.46486 0.0
C1595 C 0.93571 0.01813 0.45595 0.0
C1596 C 0.92936 0.02729 0.43656 0.0
C1597 C 0.96626 0.0151 0.48542 0.0
C1598 C 0.96561 0.98802 0.48899 0.0
C1599 C 0.97469 0.03217 0.50105 0.0
C1600 C 0.97458 0.06106 0.49849 0.0
C1601 C 0.95179 0.07422 0.49264 0.0
C1602 C 0.95203 0.10132 0.48962 0.0
C1603 C 0.9749 0.11552 0.49255 0.0
C1604 C -0.00244 0.10266 0.4986 0.0
C1605 C -0.00257 0.07556 0.50162 0.0
H1606 H 0.97506 0.13648 0.49014 0.0
H1607 H 0.97563 0.87283 0.516 0.0
H1608 H 0.50927 0.58021 0.06239 0.0
H1609 H 0.49422 0.55738 0.03184 0.0
H1610 H 0.56182 0.50765 0.03361 0.0
H1611 H 0.577 0.53026 0.06417 0.0
H1612 H 0.54974 0.5263 0.9944 0.0
H1613 H 0.50804 0.48392 0.05102 0.0
H1614 H 0.48198 0.48225 0.08246 0.0
H1615 H 0.41682 0.51503 0.05067 0.0
H1616 H 0.44263 0.51727 0.01909 0.0
H1617 H 0.50445 0.4269 0.92723 0.0
H1618 H 0.52155 0.44999 0.95701 0.0
H1619 H 0.4517 0.49639 0.96007 0.0
H1620 H 0.43437 0.47332 0.93057 0.0
H1621 H 0.46565 0.47902 0.99703 0.0
H1622 H 0.50659 0.52192 0.94062 0.0
H1623 H 0.53224 0.52461 0.90903 0.0
H1624 H 0.59823 0.49213 0.93994 0.0
H1625 H 0.57282 0.48888 0.97168 0.0
C1626 C 0.52103 0.56455 0.0562 0.0
C1627 C 0.54423 0.55691 0.06574 0.0
C1628 C 0.51237 0.5515 0.0388 0.0
C1629 C 0.52684 0.53073 0.03065 0.0
C1630 C 0.55041 0.52363 0.03974 0.0
C1631 C 0.55897 0.5365 0.05722 0.0
C1632 C 0.51696 0.51584 0.01302 0.0
C1633 C 0.53152 0.51567 0.995 0.0
C1634 C 0.49297 0.50247 0.01381 0.0
C1635 C 0.47736 0.50102 0.03275 0.0
C1636 C 0.48822 0.49098 0.05077 0.0
C1637 C 0.47349 0.4899 0.06861 0.0
C1638 C 0.44778 0.4986 0.06858 0.0
C1639 C 0.43675 0.50834 0.05069 0.0
C1640 C 0.45141 0.50951 0.03281 0.0
C1641 C 0.49272 0.44197 0.93428 0.0
C1642 C 0.46809 0.44833 0.92652 0.0
C1643 C 0.50255 0.45521 0.95122 0.0
C1644 C 0.48797 0.47505 0.96058 0.0
C1645 C 0.46325 0.48114 0.95304 0.0
C1646 C 0.45342 0.46796 0.93615 0.0
C1647 C 0.49835 0.48954 0.97829 0.0
C1648 C 0.48389 0.48961 0.99638 0.0
C1649 C 0.52237 0.50293 0.97751 0.0
C1650 C 0.53771 0.50489 0.95846 0.0
C1651 C 0.5265 0.51514 0.94064 0.0
C1652 C 0.54101 0.5168 0.92271 0.0
C1653 C 0.56683 0.50847 0.92246 0.0
C1654 C 0.57821 0.49853 0.94015 0.0
C1655 C 0.56377 0.49679 0.95812 0.0
H1656 H 0.57803 0.50978 0.90857 0.0
H1657 H 0.4364 0.49773 0.0824 0.0
H1658 H 0.93498 0.44871 0.06225 0.0
H1659 H 0.94391 0.46733 0.02883 0.0
H1660 H 0.01975 0.49162 0.04931 0.0
H1661 H 0.01075 0.47346 0.08305 0.0
H1662 H 0.99658 0.52981 0.02858 0.0
H1663 H 0.01211 0.4384 0.01827 0.0
H1664 H 0.00214 0.3912 0.01918 0.0
H1665 H 0.93684 0.40353 0.97972 0.0
H1666 H 0.9462 0.45089 0.97881 0.0
H1667 H 0.05689 0.54883 0.93294 0.0
H1668 H 0.04428 0.53117 0.96599 0.0
H1669 H 0.96542 0.52273 0.94501 0.0
H1670 H 0.97782 0.54084 0.91177 0.0
H1671 H 0.98808 0.4772 0.96541 0.0
H1672 H 0.97477 0.56935 0.97514 0.0
H1673 H 0.98686 0.61602 0.97396 0.0
H1674 H 0.0507 0.60133 0.0144 0.0
H1675 H 0.03922 0.55446 0.01557 0.0
C1676 C 0.95363 0.45792 0.05966 0.0
C1677 C 0.97223 0.45953 0.07528 0.0
C1678 C 0.95871 0.46848 0.04051 0.0
C1679 C 0.98261 0.48057 0.03651 0.0
C1680 C 0.00119 0.48233 0.05209 0.0
C1681 C 0.99606 0.47188 0.07132 0.0
C1682 C 0.98801 0.49173 0.01616 0.0
C1683 C 0.99502 0.51821 0.0148 0.0
C1684 C 0.98538 0.47672 -0.00185 0.0
C1685 C 0.9797 0.44824 -0.00135 0.0
C1686 C 0.99549 0.43109 0.00993 0.0
C1687 C 0.98998 0.4043 0.01042 0.0
C1688 C 0.96883 0.39439 -0.00043 0.0
C1689 C 0.95319 0.41124 0.98815 0.0
C1690 C 0.9586 0.43806 0.98763 0.0
C1691 C 0.03684 0.54324 0.93531 0.0
C1692 C 0.01831 0.54623 0.91977 0.0
C1693 C 0.02969 0.53324 0.95421 0.0
C1694 C 0.00394 0.52583 0.95788 0.0
C1695 C 0.98539 0.52844 0.94239 0.0
C1696 C 0.99247 0.53884 0.92349 0.0
C1697 C 0.99672 0.51513 0.97795 0.0
C1698 C 0.98944 0.48875 0.97923 0.0
C1699 C -0.00063 0.53014 0.9959 0.0
C1700 C 0.00628 0.55834 0.99528 0.0
C1701 C 0.99153 0.57602 0.98363 0.0
C1702 C -0.00175 0.60252 0.983 0.0
C1703 C 0.01958 0.61163 0.99406 0.0
C1704 C 0.0342 0.59425 0.00582 0.0
C1705 C 0.02758 0.56771 0.00649 0.0
H1706 H 0.02474 0.63216 0.99355 0.0
H1707 H 0.96459 0.37364 -4e-05 0.0
H1708 H 0.89973 0.57665 0.53664 0.0
H1709 H 0.9131 0.55639 0.50455 0.0
H1710 H 0.97869 0.52112 0.53481 0.0
H1711 H 0.96573 0.5415 0.56678 0.0
H1712 H 0.99217 0.54261 0.49874 0.0
H1713 H 0.92338 0.48643 0.52458 0.0
H1714 H 0.8788 0.47721 0.53624 0.0
H1715 H 0.84862 0.50306 0.47873 0.0
H1716 H 0.89302 0.51277 0.46683 0.0
H1717 H 0.03442 0.439 0.4396 0.0
H1718 H 0.01469 0.465 0.4665 0.0
H1719 H 0.95446 0.4899 0.42518 0.0
H1720 H 0.97391 0.46328 0.39808 0.0
H1721 H 0.93527 0.47922 0.46286 0.0
H1722 H 0.00381 0.53073 0.43546 0.0
H1723 H 0.04816 0.53971 0.42326 0.0
H1724 H 0.07846 0.52394 0.4829 0.0
H1725 H 0.03433 0.51447 0.49539 0.0
C1726 C 0.91705 0.56465 0.53643 0.0
C1727 C 0.93165 0.56061 0.55425 0.0
C1728 C 0.92459 0.55303 0.51811 0.0
C1729 C 0.94674 0.53709 0.51738 0.0
C1730 C 0.96153 0.53337 0.53507 0.0
C1731 C 0.95405 0.54498 0.55334 0.0
C1732 C 0.95468 0.524 0.4983 0.0
C1733 C 0.9798 0.52865 0.49095 0.0
C1734 C 0.93813 0.50655 0.48775 0.0
C1735 C 0.91148 0.50059 0.4949 0.0
C1736 C 0.90722 0.49034 0.51449 0.0
C1737 C 0.88199 0.485 0.52112 0.0
C1738 C 0.86089 0.48961 0.50824 0.0
C1739 C 0.86498 0.49954 0.48869 0.0
C1740 C 0.89016 0.50495 0.48199 0.0
C1741 C 0.0169 0.44987 0.43621 0.0
C1742 C 0.00585 0.44933 0.41667 0.0
C1743 C 0.0057 0.4648 0.45159 0.0
C1744 C 0.98348 0.47983 0.44768 0.0
C1745 C 0.97174 0.47856 0.42842 0.0
C1746 C 0.98286 0.46339 0.41299 0.0
C1747 C 0.97308 0.49716 0.46376 0.0
C1748 C 0.94751 0.49346 0.47047 0.0
C1749 C 0.98916 0.51565 0.4737 0.0
C1750 C 0.01574 0.52174 0.46633 0.0
C1751 C 0.01994 0.52904 0.44595 0.0
C1752 C 0.04505 0.53422 0.43898 0.0
C1753 C 0.06612 0.53236 0.45229 0.0
C1754 C 0.06212 0.52538 0.47261 0.0
C1755 C 0.03705 0.52013 0.47965 0.0
H1756 H 0.08555 0.53635 0.44686 0.0
H1757 H 0.84138 0.4854 0.51337 0.0
H1758 H 0.56571 0.41809 0.54493 0.0
H1759 H 0.54451 0.43718 0.51511 0.0
H1760 H 0.50423 0.49201 0.55378 0.0
H1761 H 0.52503 0.47289 0.58367 0.0
H1762 H 0.4722 0.47067 0.52586 0.0
H1763 H 0.55664 0.51102 0.52663 0.0
H1764 H 0.60448 0.51153 0.52722 0.0
H1765 H 0.60643 0.4693 0.47073 0.0
H1766 H 0.55857 0.46822 0.46996 0.0
H1767 H 0.43027 0.56399 0.4542 0.0
H1768 H 0.45285 0.5427 0.48237 0.0
H1769 H 0.48951 0.48949 0.44027 0.0
H1770 H 0.46719 0.51086 0.41191 0.0
H1771 H 0.52348 0.50797 0.46888 0.0
H1772 H 0.43895 0.46896 0.46754 0.0
H1773 H 0.39111 0.4688 0.46689 0.0
H1774 H 0.38932 0.50855 0.52446 0.0
H1775 H 0.43718 0.50929 0.52531 0.0
C1776 C 0.55231 0.43419 0.54709 0.0
C1777 C 0.5471 0.44404 0.56664 0.0
C1778 C 0.5403 0.44512 0.53004 0.0
C1779 C 0.52302 0.46616 0.53226 0.0
C1780 C 0.51753 0.47579 0.55177 0.0
C1781 C 0.52949 0.46487 0.56881 0.0
C1782 C 0.51058 0.47823 0.51428 0.0
C1783 C 0.4834 0.47908 0.5135 0.0
C1784 C 0.52525 0.48857 0.49796 0.0
C1785 C 0.55403 0.4893 0.49835 0.0
C1786 C 0.56727 0.50166 0.51442 0.0
C1787 C 0.59439 0.50208 0.51477 0.0
C1788 C 0.60849 0.49039 0.49905 0.0
C1789 C 0.59549 0.47831 0.48291 0.0
C1790 C 0.56836 0.4778 0.4825 0.0
C1791 C 0.4432 0.54782 0.4509 0.0
C1792 C 0.44682 0.53898 0.43085 0.0
C1793 C 0.45601 0.53564 0.46702 0.0
C1794 C 0.47254 0.51432 0.46339 0.0
C1795 C 0.47675 0.50587 0.44336 0.0
C1796 C 0.46393 0.51806 0.4272 0.0
C1797 C 0.48512 0.50066 0.48059 0.0
C1798 C 0.51229 0.49945 0.4812 0.0
C1799 C 0.47045 0.48998 0.49678 0.0
C1800 C 0.44166 0.48938 0.49639 0.0
C1801 C 0.42836 0.47784 0.47999 0.0
C1802 C 0.40124 0.47762 0.4796 0.0
C1803 C 0.38719 0.48871 0.4956 0.0
C1804 C 0.40023 0.49999 0.51206 0.0
C1805 C 0.42735 0.50029 0.51251 0.0
H1806 H 0.36619 0.48852 0.49527 0.0
H1807 H 0.62948 0.49074 0.49935 0.0
loop_
_geom_bond_atom_site_label_1
_geom_bond_atom_site_label_2
_geom_bond_distance
_geom_bond_site_symmetry_2
_ccdc_geom_bond_type
C0 O1 1.160 . S
C0 O7 1.185 . S
O1 C0 1.160 . S
O2 Zn3 1.899 . S
O2 C10 1.284 . S
Zn3 O2 1.899 . S
Zn3 O4 2.032 . S
Zn3 O7 2.086 . S
Zn3 O12 1.977 . S
O4 Zn3 2.032 . S
O4 C8 1.278 . S
C5 O6 1.203 . S
C5 O12 1.267 . S
O6 C5 1.203 . S
O7 C0 1.185 . S
O7 Zn3 2.086 . S
C8 O4 1.278 . S
C8 O9 1.211 . S
O9 C8 1.211 . S
C10 O2 1.284 . S
C10 O11 1.273 . S
O11 C10 1.273 . S
O12 Zn3 1.977 . S
O12 C5 1.267 . S
C13 O14 1.160 . S
C13 O20 1.185 . S
O14 C13 1.160 . S
O15 Zn16 1.899 . S
O15 C23 1.284 . S
Zn16 O15 1.899 . S
Zn16 O17 2.032 . S
Zn16 O20 2.086 . S
Zn16 O25 1.977 . S
O17 Zn16 2.032 . S
O17 C21 1.278 . S
C18 O19 1.203 . S
C18 O25 1.267 . S
O19 C18 1.203 . S
O20 C13 1.185 . S
O20 Zn16 2.086 . S
C21 O17 1.278 . S
C21 O22 1.211 . S
O22 C21 1.211 . S
C23 O15 1.284 . S
C23 O24 1.273 . S
O24 C23 1.273 . S
O25 Zn16 1.977 . S
O25 C18 1.267 . S
C26 O27 1.160 . S
C26 O33 1.185 . S
O27 C26 1.160 . S
O28 Zn29 1.899 . S
O28 C36 1.284 . S
Zn29 O28 1.899 . S
Zn29 O30 2.032 . S
Zn29 O33 2.086 . S
Zn29 O38 1.977 . S
O30 Zn29 2.032 . S
O30 C34 1.278 . S
C31 O32 1.203 . S
C31 O38 1.267 . S
O32 C31 1.203 . S
O33 C26 1.185 . S
O33 Zn29 2.086 . S
C34 O30 1.278 . S
C34 O35 1.211 . S
O35 C34 1.211 . S
C36 O28 1.284 . S
C36 O37 1.273 . S
O37 C36 1.273 . S
O38 Zn29 1.977 . S
O38 C31 1.267 . S
C39 O40 1.160 . S
C39 O46 1.185 . S
O40 C39 1.160 . S
O41 Zn42 1.899 . S
O41 C49 1.284 . S
Zn42 O41 1.899 . S
Zn42 O43 2.032 . S
Zn42 O46 2.086 . S
Zn42 O51 1.977 . S
O43 Zn42 2.032 . S
O43 C47 1.278 . S
C44 O45 1.203 . S
C44 O51 1.267 . S
O45 C44 1.203 . S
O46 C39 1.185 . S
O46 Zn42 2.086 . S
C47 O43 1.278 . S
C47 O48 1.211 . S
O48 C47 1.211 . S
C49 O41 1.284 . S
C49 O50 1.273 . S
O50 C49 1.273 . S
O51 Zn42 1.977 . S
O51 C44 1.267 . S
C52 O53 1.160 . S
C52 O59 1.185 . S
O53 C52 1.160 . S
O54 Zn55 1.899 . S
O54 C62 1.284 . S
Zn55 O54 1.899 . S
Zn55 O56 2.032 . S
Zn55 O59 2.086 . S
Zn55 O64 1.977 . S
O56 Zn55 2.032 . S
O56 C60 1.278 . S
C57 O58 1.203 . S
C57 O64 1.267 . S
O58 C57 1.203 . S
O59 C52 1.185 . S
O59 Zn55 2.086 . S
C60 O56 1.278 . S
C60 O61 1.211 . S
O61 C60 1.211 . S
C62 O54 1.284 . S
C62 O63 1.273 . S
O63 C62 1.273 . S
O64 Zn55 1.977 . S
O64 C57 1.267 . S
C65 O66 1.160 . S
C65 O72 1.185 . S
O66 C65 1.160 . S
O67 Zn68 1.899 . S
O67 C75 1.284 . S
Zn68 O67 1.899 . S
Zn68 O69 2.032 . S
Zn68 O72 2.086 . S
Zn68 O77 1.977 . S
O69 Zn68 2.032 . S
O69 C73 1.278 . S
C70 O71 1.203 . S
C70 O77 1.267 . S
O71 C70 1.203 . S
O72 C65 1.185 . S
O72 Zn68 2.086 . S
C73 O69 1.278 . S
C73 O74 1.211 . S
O74 C73 1.211 . S
C75 O67 1.284 . S
C75 O76 1.273 . S
O76 C75 1.273 . S
O77 Zn68 1.977 . S
O77 C70 1.267 . S
C78 O79 1.160 . S
C78 O85 1.185 . S
O79 C78 1.160 . S
O80 Zn81 1.899 . S
O80 C88 1.284 . S
Zn81 O80 1.899 . S
Zn81 O82 2.032 . S
Zn81 O85 2.086 . S
Zn81 O90 1.977 . S
O82 Zn81 2.032 . S
O82 C86 1.278 . S
C83 O84 1.203 . S
C83 O90 1.267 . S
O84 C83 1.203 . S
O85 C78 1.185 . S
O85 Zn81 2.086 . S
C86 O82 1.278 . S
C86 O87 1.211 . S
O87 C86 1.211 . S
C88 O80 1.284 . S
C88 O89 1.273 . S
O89 C88 1.273 . S
O90 Zn81 1.977 . S
O90 C83 1.267 . S
C91 O92 1.160 . S
C91 O98 1.185 . S
O92 C91 1.160 . S
O93 Zn94 1.899 . S
O93 C101 1.284 . S
Zn94 O93 1.899 . S
Zn94 O95 2.032 . S
Zn94 O98 2.086 . S
Zn94 O103 1.977 . S
O95 Zn94 2.032 . S
O95 C99 1.278 . S
C96 O97 1.203 . S
C96 O103 1.267 . S
O97 C96 1.203 . S
O98 C91 1.185 . S
O98 Zn94 2.086 . S
C99 O95 1.278 . S
C99 O100 1.211 . S
O100 C99 1.211 . S
C101 O93 1.284 . S
C101 O102 1.273 . S
O102 C101 1.273 . S
O103 Zn94 1.977 . S
O103 C96 1.267 . S
C104 O105 1.160 . S
C104 O111 1.185 . S
O105 C104 1.160 . S
O106 Zn107 1.899 . S
O106 C114 1.284 . S
Zn107 O106 1.899 . S
Zn107 O108 2.032 . S
Zn107 O111 2.086 . S
Zn107 O116 1.977 . S
O108 Zn107 2.032 . S
O108 C112 1.278 . S
C109 O110 1.203 . S
C109 O116 1.267 . S
O110 C109 1.203 . S
O111 C104 1.185 . S
O111 Zn107 2.086 . S
C112 O108 1.278 . S
C112 O113 1.211 . S
O113 C112 1.211 . S
C114 O106 1.284 . S
C114 O115 1.273 . S
O115 C114 1.273 . S
O116 Zn107 1.977 . S
O116 C109 1.267 . S
C117 O118 1.160 . S
C117 O124 1.185 . S
O118 C117 1.160 . S
O119 Zn120 1.899 . S
O119 C127 1.284 . S
Zn120 O119 1.899 . S
Zn120 O121 2.032 . S
Zn120 O124 2.086 . S
Zn120 O129 1.977 . S
O121 Zn120 2.032 . S
O121 C125 1.278 . S
C122 O123 1.203 . S
C122 O129 1.267 . S
O123 C122 1.203 . S
O124 C117 1.185 . S
O124 Zn120 2.086 . S
C125 O121 1.278 . S
C125 O126 1.211 . S
O126 C125 1.211 . S
C127 O119 1.284 . S
C127 O128 1.273 . S
O128 C127 1.273 . S
O129 Zn120 1.977 . S
O129 C122 1.267 . S
C130 O131 1.160 . S
C130 O137 1.185 . S
O131 C130 1.160 . S
O132 Zn133 1.899 . S
O132 C140 1.284 . S
Zn133 O132 1.899 . S
Zn133 O134 2.032 . S
Zn133 O137 2.086 . S
Zn133 O142 1.977 . S
O134 Zn133 2.032 . S
O134 C138 1.278 . S
C135 O136 1.203 . S
C135 O142 1.267 . S
O136 C135 1.203 . S
O137 C130 1.185 . S
O137 Zn133 2.086 . S
C138 O134 1.278 . S
C138 O139 1.211 . S
O139 C138 1.211 . S
C140 O132 1.284 . S
C140 O141 1.273 . S
O141 C140 1.273 . S
O142 Zn133 1.977 . S
O142 C135 1.267 . S
C143 O144 1.160 . S
C143 O150 1.185 . S
O144 C143 1.160 . S
O145 Zn146 1.899 . S
O145 C153 1.284 . S
Zn146 O145 1.899 . S
Zn146 O147 2.032 . S
Zn146 O150 2.086 . S
Zn146 O155 1.977 . S
O147 Zn146 2.032 . S
O147 C151 1.278 . S
C148 O149 1.203 . S
C148 O155 1.267 . S
O149 C148 1.203 . S
O150 C143 1.185 . S
O150 Zn146 2.086 . S
C151 O147 1.278 . S
C151 O152 1.211 . S
O152 C151 1.211 . S
C153 O145 1.284 . S
C153 O154 1.273 . S
O154 C153 1.273 . S
O155 Zn146 1.977 . S
O155 C148 1.267 . S
C156 O157 1.160 . S
C156 O163 1.185 . S
O157 C156 1.160 . S
O158 Zn159 1.899 . S
O158 C166 1.284 . S
Zn159 O158 1.899 . S
Zn159 O160 2.032 . S
Zn159 O163 2.086 . S
Zn159 O168 1.977 . S
O160 Zn159 2.032 . S
O160 C164 1.278 . S
C161 O162 1.203 . S
C161 O168 1.267 . S
O162 C161 1.203 . S
O163 C156 1.185 . S
O163 Zn159 2.086 . S
C164 O160 1.278 . S
C164 O165 1.211 . S
O165 C164 1.211 . S
C166 O158 1.284 . S
C166 O167 1.273 . S
O167 C166 1.273 . S
O168 Zn159 1.977 . S
O168 C161 1.267 . S
C169 O170 1.160 . S
C169 O176 1.185 . S
O170 C169 1.160 . S
O171 Zn172 1.899 . S
O171 C179 1.284 . S
Zn172 O171 1.899 . S
Zn172 O173 2.032 . S
Zn172 O176 2.086 . S
Zn172 O181 1.977 . S
O173 Zn172 2.032 . S
O173 C177 1.278 . S
C174 O175 1.203 . S
C174 O181 1.267 . S
O175 C174 1.203 . S
O176 C169 1.185 . S
O176 Zn172 2.086 . S
C177 O173 1.278 . S
C177 O178 1.211 . S
O178 C177 1.211 . S
C179 O171 1.284 . S
C179 O180 1.273 . S
O180 C179 1.273 . S
O181 Zn172 1.977 . S
O181 C174 1.267 . S
C182 O183 1.160 . S
C182 O189 1.185 . S
O183 C182 1.160 . S
O184 Zn185 1.899 . S
O184 C192 1.284 . S
Zn185 O184 1.899 . S
Zn185 O186 2.032 . S
Zn185 O189 2.086 . S
Zn185 O194 1.977 . S
O186 Zn185 2.032 . S
O186 C190 1.278 . S
C187 O188 1.203 . S
C187 O194 1.267 . S
O188 C187 1.203 . S
O189 C182 1.185 . S
O189 Zn185 2.086 . S
C190 O186 1.278 . S
C190 O191 1.211 . S
O191 C190 1.211 . S
C192 O184 1.284 . S
C192 O193 1.273 . S
O193 C192 1.273 . S
O194 Zn185 1.977 . S
O194 C187 1.267 . S
C195 O196 1.160 . S
C195 O202 1.185 . S
O196 C195 1.160 . S
O197 Zn198 1.899 . S
O197 C205 1.284 . S
Zn198 O197 1.899 . S
Zn198 O199 2.032 . S
Zn198 O202 2.086 . S
Zn198 O207 1.977 . S
O199 Zn198 2.032 . S
O199 C203 1.278 . S
C200 O201 1.203 . S
C200 O207 1.267 . S
O201 C200 1.203 . S
O202 C195 1.185 . S
O202 Zn198 2.086 . S
C203 O199 1.278 . S
C203 O204 1.211 . S
O204 C203 1.211 . S
C205 O197 1.284 . S
C205 O206 1.273 . S
O206 C205 1.273 . S
O207 Zn198 1.977 . S
O207 C200 1.267 . S
H208 C226 0.951 . S
H209 C228 0.951 1_545 S
H210 C230 0.950 . S
H211 C231 0.950 . S
H212 C233 0.950 . S
H213 C236 0.950 . S
H214 C237 0.950 . S
H215 C239 0.950 . S
H216 C240 0.950 . S
H217 C241 0.951 . S
H218 C243 0.951 1_565 S
H219 C245 0.950 . S
H220 C246 0.950 . S
H221 C248 0.950 . S
H222 C251 0.950 . S
H223 C252 0.950 . S
H224 C254 0.950 . S
H225 C255 0.950 . S
C226 H208 0.951 . S
C226 C227 1.366 . S
C226 C228 1.388 . S
C227 C226 1.366 . S
C227 C231 1.385 . S
C228 H209 0.951 1_565 S
C228 C226 1.388 . S
C228 C229 1.366 . S
C229 C228 1.366 . S
C229 C230 1.414 . S
C229 C232 1.499 . S
C230 H210 0.950 . S
C230 C229 1.414 . S
C230 C231 1.374 . S
C231 H211 0.950 . S
C231 C227 1.385 . S
C231 C230 1.374 . S
C232 C229 1.499 . S
C232 C233 1.373 . S
C232 C234 1.389 1_565 S
C233 H212 0.950 . S
C233 C232 1.373 . S
C233 C249 1.377 . S
C234 C232 1.389 1_545 S
C234 C235 1.524 . S
C234 C248 1.377 . S
C235 C234 1.524 . S
C235 C236 1.397 . S
C235 C240 1.363 . S
C236 H213 0.950 . S
C236 C235 1.397 . S
C236 C237 1.334 . S
C237 H214 0.950 . S
C237 C236 1.334 . S
C237 C238 1.287 . S
C238 C237 1.287 . S
C238 C239 1.524 . S
C238 H257 0.913 . S
C239 H215 0.950 . S
C239 C238 1.524 . S
C239 C240 1.415 . S
C240 H216 0.950 . S
C240 C235 1.363 . S
C240 C239 1.415 . S
C241 H217 0.951 . S
C241 C242 1.366 . S
C241 C243 1.388 . S
C242 C241 1.366 . S
C242 C246 1.385 . S
C243 H218 0.951 1_545 S
C243 C241 1.388 . S
C243 C244 1.366 . S
C244 C243 1.366 . S
C244 C245 1.414 . S
C244 C247 1.499 . S
C245 H219 0.950 . S
C245 C244 1.414 . S
C245 C246 1.374 . S
C246 H220 0.950 . S
C246 C242 1.385 . S
C246 C245 1.374 . S
C247 C244 1.499 . S
C247 C248 1.373 . S
C247 C249 1.389 1_545 S
C248 H221 0.950 . S
C248 C234 1.377 . S
C248 C247 1.373 . S
C249 C233 1.377 . S
C249 C247 1.389 1_565 S
C249 C250 1.524 . S
C250 C249 1.524 . S
C250 C251 1.397 . S
C250 C255 1.363 . S
C251 H222 0.950 . S
C251 C250 1.397 . S
C251 C252 1.334 . S
C252 H223 0.950 . S
C252 C251 1.334 . S
C252 C253 1.287 . S
C253 C252 1.287 . S
C253 C254 1.524 . S
C253 H256 0.999 . S
C254 H224 0.950 . S
C254 C253 1.524 . S
C254 C255 1.415 . S
C255 H225 0.950 . S
C255 C250 1.363 . S
C255 C254 1.415 . S
H256 C253 0.999 . S
H257 C238 0.913 . S
H258 C276 0.951 . S
H259 C278 0.951 . S
H260 C280 0.950 . S
H261 C281 0.950 . S
H262 C283 0.950 . S
H263 C286 0.950 . S
H264 C287 0.950 . S
H265 C289 0.950 . S
H266 C290 0.950 . S
H267 C291 0.951 . S
H268 C293 0.951 . S
H269 C295 0.950 . S
H270 C296 0.950 . S
H271 C298 0.950 . S
H272 C301 0.950 . S
H273 C302 0.950 . S
H274 C304 0.950 . S
H275 C305 0.950 . S
C276 H258 0.951 . S
C276 C277 1.366 . S
C276 C278 1.388 . S
C277 C276 1.366 . S
C277 C281 1.385 . S
C278 H259 0.951 . S
C278 C276 1.388 . S
C278 C279 1.366 . S
C279 C278 1.366 . S
C279 C280 1.414 . S
C279 C282 1.499 . S
C280 H260 0.950 . S
C280 C279 1.414 . S
C280 C281 1.374 . S
C281 H261 0.950 . S
C281 C277 1.385 . S
C281 C280 1.374 . S
C282 C279 1.499 . S
C282 C283 1.373 1_565 S
C282 C284 1.389 . S
C283 H262 0.950 . S
C283 C282 1.373 1_545 S
C283 C299 1.377 . S
C284 C282 1.389 . S
C284 C285 1.524 . S
C284 C298 1.377 . S
C285 C284 1.524 . S
C285 C286 1.397 . S
C285 C290 1.363 . S
C286 H263 0.950 . S
C286 C285 1.397 . S
C286 C287 1.334 . S
C287 H264 0.950 . S
C287 C286 1.334 . S
C287 C288 1.287 . S
C288 C287 1.287 . S
C288 C289 1.524 . S
C288 H307 0.913 . S
C289 H265 0.950 . S
C289 C288 1.524 . S
C289 C290 1.415 . S
C290 H266 0.950 . S
C290 C285 1.363 . S
C290 C289 1.415 . S
C291 H267 0.951 . S
C291 C292 1.366 . S
C291 C293 1.388 . S
C292 C291 1.366 . S
C292 C296 1.385 . S
C293 H268 0.951 . S
C293 C291 1.388 . S
C293 C294 1.366 . S
C294 C293 1.366 . S
C294 C295 1.414 . S
C294 C297 1.499 . S
C295 H269 0.950 . S
C295 C294 1.414 . S
C295 C296 1.374 . S
C296 H270 0.950 . S
C296 C292 1.385 . S
C296 C295 1.374 . S
C297 C294 1.499 . S
C297 C298 1.373 1_545 S
C297 C299 1.389 . S
C298 H271 0.950 . S
C298 C284 1.377 . S
C298 C297 1.373 1_565 S
C299 C283 1.377 . S
C299 C297 1.389 . S
C299 C300 1.524 . S
C300 C299 1.524 . S
C300 C301 1.397 . S
C300 C305 1.363 . S
C301 H272 0.950 . S
C301 C300 1.397 . S
C301 C302 1.334 . S
C302 H273 0.950 . S
C302 C301 1.334 . S
C302 C303 1.287 . S
C303 C302 1.287 . S
C303 C304 1.524 . S
C303 H306 0.999 . S
C304 H274 0.950 . S
C304 C303 1.524 . S
C304 C305 1.415 . S
C305 H275 0.950 . S
C305 C300 1.363 . S
C305 C304 1.415 . S
H306 C303 0.999 . S
H307 C288 0.913 . S
H308 C326 0.951 . S
H309 C328 0.951 . S
H310 C330 0.950 . S
H311 C331 0.950 . S
H312 C333 0.950 . S
H313 C336 0.950 . S
H314 C337 0.950 . S
H315 C339 0.950 . S
H316 C340 0.950 . S
H317 C341 0.951 . S
H318 C343 0.951 . S
H319 C345 0.950 . S
H320 C346 0.950 . S
H321 C348 0.950 . S
H322 C351 0.950 . S
H323 C352 0.950 . S
H324 C354 0.950 . S
H325 C355 0.950 . S
C326 H308 0.951 . S
C326 C327 1.366 . S
C326 C328 1.388 . S
C327 C326 1.366 . S
C327 C331 1.385 . S
C328 H309 0.951 . S
C328 C326 1.388 . S
C328 C329 1.366 . S
C329 C328 1.366 . S
C329 C330 1.414 . S
C329 C332 1.499 . S
C330 H310 0.950 . S
C330 C329 1.414 . S
C330 C331 1.374 . S
C331 H311 0.950 . S
C331 C327 1.385 . S
C331 C330 1.374 . S
C332 C329 1.499 . S
C332 C333 1.373 . S
C332 C334 1.389 1_565 S
C333 H312 0.950 . S
C333 C332 1.373 . S
C333 C349 1.377 . S
C334 C332 1.389 1_545 S
C334 C335 1.524 . S
C334 C348 1.377 . S
C335 C334 1.524 . S
C335 C336 1.397 . S
C335 C340 1.363 . S
C336 H313 0.950 . S
C336 C335 1.397 . S
C336 C337 1.334 . S
C337 H314 0.950 . S
C337 C336 1.334 . S
C337 C338 1.287 . S
C338 C337 1.287 . S
C338 C339 1.524 . S
C338 H357 0.913 . S
C339 H315 0.950 . S
C339 C338 1.524 . S
C339 C340 1.415 . S
C340 H316 0.950 . S
C340 C335 1.363 . S
C340 C339 1.415 . S
C341 H317 0.951 . S
C341 C342 1.366 . S
C341 C343 1.388 . S
C342 C341 1.366 . S
C342 C346 1.385 . S
C343 H318 0.951 . S
C343 C341 1.388 . S
C343 C344 1.366 . S
C344 C343 1.366 . S
C344 C345 1.414 . S
C344 C347 1.499 . S
C345 H319 0.950 . S
C345 C344 1.414 . S
C345 C346 1.374 . S
C346 H320 0.950 . S
C346 C342 1.385 . S
C346 C345 1.374 . S
C347 C344 1.499 . S
C347 C348 1.373 . S
C347 C349 1.389 1_545 S
C348 H321 0.950 . S
C348 C334 1.377 . S
C348 C347 1.373 . S
C349 C333 1.377 . S
C349 C347 1.389 1_565 S
C349 C350 1.524 . S
C350 C349 1.524 . S
C350 C351 1.397 . S
C350 C355 1.363 . S
C351 H322 0.950 . S
C351 C350 1.397 . S
C351 C352 1.334 . S
C352 H323 0.950 . S
C352 C351 1.334 . S
C352 C353 1.287 . S
C353 C352 1.287 . S
C353 C354 1.524 . S
C353 H356 0.999 . S
C354 H324 0.950 . S
C354 C353 1.524 . S
C354 C355 1.415 . S
C355 H325 0.950 . S
C355 C350 1.363 . S
C355 C354 1.415 . S
H356 C353 0.999 . S
H357 C338 0.913 . S
H358 C376 0.951 . S
H359 C378 0.951 1_545 S
H360 C380 0.950 . S
H361 C381 0.950 . S
H362 C383 0.950 . S
H363 C386 0.950 . S
H364 C387 0.950 . S
H365 C389 0.950 . S
H366 C390 0.950 . S
H367 C391 0.951 . S
H368 C393 0.951 1_565 S
H369 C395 0.950 . S
H370 C396 0.950 . S
H371 C398 0.950 . S
H372 C401 0.950 . S
H373 C402 0.950 . S
H374 C404 0.950 . S
H375 C405 0.950 . S
C376 H358 0.951 . S
C376 C377 1.366 . S
C376 C378 1.388 . S
C377 C376 1.366 . S
C377 C381 1.385 . S
C378 H359 0.951 1_565 S
C378 C376 1.388 . S
C378 C379 1.366 . S
C379 C378 1.366 . S
C379 C380 1.414 . S
C379 C382 1.499 . S
C380 H360 0.950 . S
C380 C379 1.414 . S
C380 C381 1.374 . S
C381 H361 0.950 . S
C381 C377 1.385 . S
C381 C380 1.374 . S
C382 C379 1.499 . S
C382 C383 1.373 . S
C382 C384 1.389 1_565 S
C383 H362 0.950 . S
C383 C382 1.373 . S
C383 C399 1.377 . S
C384 C382 1.389 1_545 S
C384 C385 1.524 . S
C384 C398 1.377 . S
C385 C384 1.524 . S
C385 C386 1.397 1_545 S
C385 C390 1.363 . S
C386 H363 0.950 . S
C386 C385 1.397 1_565 S
C386 C387 1.334 . S
C387 H364 0.950 . S
C387 C386 1.334 . S
C387 C388 1.287 1_565 S
C388 C387 1.287 1_545 S
C388 C389 1.524 . S
C388 H407 0.913 . S
C389 H365 0.950 . S
C389 C388 1.524 . S
C389 C390 1.415 . S
C390 H366 0.950 . S
C390 C385 1.363 . S
C390 C389 1.415 . S
C391 H367 0.951 . S
C391 C392 1.366 . S
C391 C393 1.388 . S
C392 C391 1.366 . S
C392 C396 1.385 . S
C393 H368 0.951 1_545 S
C393 C391 1.388 . S
C393 C394 1.366 . S
C394 C393 1.366 . S
C394 C395 1.414 . S
C394 C397 1.499 . S
C395 H369 0.950 . S
C395 C394 1.414 . S
C395 C396 1.374 . S
C396 H370 0.950 . S
C396 C392 1.385 . S
C396 C395 1.374 . S
C397 C394 1.499 . S
C397 C398 1.373 . S
C397 C399 1.389 1_545 S
C398 H371 0.950 . S
C398 C384 1.377 . S
C398 C397 1.373 . S
C399 C383 1.377 . S
C399 C397 1.389 1_565 S
C399 C400 1.524 . S
C400 C399 1.524 . S
C400 C401 1.397 1_565 S
C400 C405 1.363 . S
C401 H372 0.950 . S
C401 C400 1.397 1_545 S
C401 C402 1.334 . S
C402 H373 0.950 . S
C402 C401 1.334 . S
C402 C403 1.287 1_545 S
C403 C402 1.287 1_565 S
C403 C404 1.524 . S
C403 H406 0.999 . S
C404 H374 0.950 . S
C404 C403 1.524 . S
C404 C405 1.415 . S
C405 H375 0.950 . S
C405 C400 1.363 . S
C405 C404 1.415 . S
H406 C403 0.999 . S
H407 C388 0.913 . S
H408 C426 0.951 . S
H409 C428 0.951 . S
H410 C430 0.950 . S
H411 C431 0.950 . S
H412 C433 0.950 . S
H413 C436 0.950 . S
H414 C437 0.950 . S
H415 C439 0.950 . S
H416 C440 0.950 . S
H417 C441 0.951 . S
H418 C443 0.951 . S
H419 C445 0.950 . S
H420 C446 0.950 . S
H421 C448 0.950 . S
H422 C451 0.950 . S
H423 C452 0.950 . S
H424 C454 0.950 . S
H425 C455 0.950 . S
C426 H408 0.951 . S
C426 C427 1.366 . S
C426 C428 1.388 . S
C427 C426 1.366 . S
C427 C431 1.385 . S
C428 H409 0.951 . S
C428 C426 1.388 . S
C428 C429 1.366 . S
C429 C428 1.366 . S
C429 C430 1.414 . S
C429 C432 1.499 . S
C430 H410 0.950 . S
C430 C429 1.414 . S
C430 C431 1.374 . S
C431 H411 0.950 . S
C431 C427 1.385 . S
C431 C430 1.374 . S
C432 C429 1.499 . S
C432 C433 1.373 . S
C432 C434 1.389 . S
C433 H412 0.950 . S
C433 C432 1.373 . S
C433 C449 1.377 . S
C434 C432 1.389 . S
C434 C435 1.524 . S
C434 C448 1.377 . S
C435 C434 1.524 . S
C435 C436 1.397 . S
C435 C440 1.363 . S
C436 H413 0.950 . S
C436 C435 1.397 . S
C436 C437 1.334 . S
C437 H414 0.950 . S
C437 C436 1.334 . S
C437 C438 1.287 . S
C438 C437 1.287 . S
C438 C439 1.524 . S
C438 H457 0.913 . S
C439 H415 0.950 . S
C439 C438 1.524 . S
C439 C440 1.415 . S
C440 H416 0.950 . S
C440 C435 1.363 . S
C440 C439 1.415 . S
C441 H417 0.951 . S
C441 C442 1.366 . S
C441 C443 1.388 . S
C442 C441 1.366 . S
C442 C446 1.385 . S
C443 H418 0.951 . S
C443 C441 1.388 . S
C443 C444 1.366 . S
C444 C443 1.366 . S
C444 C445 1.414 . S
C444 C447 1.499 . S
C445 H419 0.950 . S
C445 C444 1.414 . S
C445 C446 1.374 . S
C446 H420 0.950 . S
C446 C442 1.385 . S
C446 C445 1.374 . S
C447 C444 1.499 . S
C447 C448 1.373 . S
C447 C449 1.389 . S
C448 H421 0.950 . S
C448 C434 1.377 . S
C448 C447 1.373 . S
C449 C433 1.377 . S
C449 C447 1.389 . S
C449 C450 1.524 . S
C450 C449 1.524 . S
C450 C451 1.397 . S
C450 C455 1.363 . S
C451 H422 0.950 . S
C451 C450 1.397 . S
C451 C452 1.334 . S
C452 H423 0.950 . S
C452 C451 1.334 . S
C452 C453 1.287 . S
C453 C452 1.287 . S
C453 C454 1.524 . S
C453 H456 0.999 . S
C454 H424 0.950 . S
C454 C453 1.524 . S
C454 C455 1.415 . S
C455 H425 0.950 . S
C455 C450 1.363 . S
C455 C454 1.415 . S
H456 C453 0.999 . S
H457 C438 0.913 . S
H458 C476 0.951 . S
H459 C478 0.951 . S
H460 C480 0.950 . S
H461 C481 0.950 . S
H462 C483 0.950 . S
H463 C486 0.950 . S
H464 C487 0.950 . S
H465 C489 0.950 . S
H466 C490 0.950 . S
H467 C491 0.951 . S
H468 C493 0.951 . S
H469 C495 0.950 . S
H470 C496 0.950 . S
H471 C498 0.950 . S
H472 C501 0.950 . S
H473 C502 0.950 . S
H474 C504 0.950 . S
H475 C505 0.950 . S
C476 H458 0.951 . S
C476 C477 1.366 . S
C476 C478 1.388 . S
C477 C476 1.366 . S
C477 C481 1.385 . S
C478 H459 0.951 . S
C478 C476 1.388 . S
C478 C479 1.366 . S
C479 C478 1.366 . S
C479 C480 1.414 . S
C479 C482 1.499 . S
C480 H460 0.950 . S
C480 C479 1.414 . S
C480 C481 1.374 . S
C481 H461 0.950 . S
C481 C477 1.385 . S
C481 C480 1.374 . S
C482 C479 1.499 . S
C482 C483 1.373 . S
C482 C484 1.389 . S
C483 H462 0.950 . S
C483 C482 1.373 . S
C483 C499 1.377 . S
C484 C482 1.389 . S
C484 C485 1.524 . S
C484 C498 1.377 . S
C485 C484 1.524 . S
C485 C486 1.397 . S
C485 C490 1.363 . S
C486 H463 0.950 . S
C486 C485 1.397 . S
C486 C487 1.334 . S
C487 H464 0.950 . S
C487 C486 1.334 . S
C487 C488 1.287 . S
C488 C487 1.287 . S
C488 C489 1.524 . S
C488 H507 0.913 . S
C489 H465 0.950 . S
C489 C488 1.524 . S
C489 C490 1.415 . S
C490 H466 0.950 . S
C490 C485 1.363 . S
C490 C489 1.415 . S
C491 H467 0.951 . S
C491 C492 1.366 . S
C491 C493 1.388 . S
C492 C491 1.366 . S
C492 C496 1.385 . S
C493 H468 0.951 . S
C493 C491 1.388 . S
C493 C494 1.366 . S
C494 C493 1.366 . S
C494 C495 1.414 . S
C494 C497 1.499 . S
C495 H469 0.950 . S
C495 C494 1.414 . S
C495 C496 1.374 . S
C496 H470 0.950 . S
C496 C492 1.385 . S
C496 C495 1.374 . S
C497 C494 1.499 . S
C497 C498 1.373 . S
C497 C499 1.389 . S
C498 H471 0.950 . S
C498 C484 1.377 . S
C498 C497 1.373 . S
C499 C483 1.377 . S
C499 C497 1.389 . S
C499 C500 1.524 . S
C500 C499 1.524 . S
C500 C501 1.397 . S
C500 C505 1.363 . S
C501 H472 0.950 . S
C501 C500 1.397 . S
C501 C502 1.334 . S
C502 H473 0.950 . S
C502 C501 1.334 . S
C502 C503 1.287 . S
C503 C502 1.287 . S
C503 C504 1.524 . S
C503 H506 0.999 . S
C504 H474 0.950 . S
C504 C503 1.524 . S
C504 C505 1.415 . S
C505 H475 0.950 . S
C505 C500 1.363 . S
C505 C504 1.415 . S
H506 C503 0.999 . S
H507 C488 0.913 . S
H508 C526 0.951 . S
H509 C528 0.951 . S
H510 C530 0.950 . S
H511 C531 0.950 . S
H512 C533 0.950 . S
H513 C536 0.950 . S
H514 C537 0.950 . S
H515 C539 0.950 . S
H516 C540 0.950 . S
H517 C541 0.951 . S
H518 C543 0.951 . S
H519 C545 0.950 . S
H520 C546 0.950 . S
H521 C548 0.950 . S
H522 C551 0.950 . S
H523 C552 0.950 . S
H524 C554 0.950 . S
H525 C555 0.950 . S
C526 H508 0.951 . S
C526 C527 1.366 . S
C526 C528 1.388 . S
C527 C526 1.366 . S
C527 C531 1.385 . S
C528 H509 0.951 . S
C528 C526 1.388 . S
C528 C529 1.366 . S
C529 C528 1.366 . S
C529 C530 1.414 . S
C529 C532 1.499 . S
C530 H510 0.950 . S
C530 C529 1.414 . S
C530 C531 1.374 . S
C531 H511 0.950 . S
C531 C527 1.385 . S
C531 C530 1.374 . S
C532 C529 1.499 . S
C532 C533 1.373 . S
C532 C534 1.389 . S
C533 H512 0.950 . S
C533 C532 1.373 . S
C533 C549 1.377 . S
C534 C532 1.389 . S
C534 C535 1.524 . S
C534 C548 1.377 . S
C535 C534 1.524 . S
C535 C536 1.397 . S
C535 C540 1.363 . S
C536 H513 0.950 . S
C536 C535 1.397 . S
C536 C537 1.334 . S
C537 H514 0.950 . S
C537 C536 1.334 . S
C537 C538 1.287 . S
C538 C537 1.287 . S
C538 C539 1.524 . S
C538 H557 0.913 . S
C539 H515 0.950 . S
C539 C538 1.524 . S
C539 C540 1.415 . S
C540 H516 0.950 . S
C540 C535 1.363 . S
C540 C539 1.415 . S
C541 H517 0.951 . S
C541 C542 1.366 . S
C541 C543 1.388 . S
C542 C541 1.366 . S
C542 C546 1.385 . S
C543 H518 0.951 . S
C543 C541 1.388 . S
C543 C544 1.366 . S
C544 C543 1.366 . S
C544 C545 1.414 . S
C544 C547 1.499 . S
C545 H519 0.950 . S
C545 C544 1.414 . S
C545 C546 1.374 . S
C546 H520 0.950 . S
C546 C542 1.385 . S
C546 C545 1.374 . S
C547 C544 1.499 . S
C547 C548 1.373 . S
C547 C549 1.389 . S
C548 H521 0.950 . S
C548 C534 1.377 . S
C548 C547 1.373 . S
C549 C533 1.377 . S
C549 C547 1.389 . S
C549 C550 1.524 . S
C550 C549 1.524 . S
C550 C551 1.397 . S
C550 C555 1.363 . S
C551 H522 0.950 . S
C551 C550 1.397 . S
C551 C552 1.334 . S
C552 H523 0.950 . S
C552 C551 1.334 . S
C552 C553 1.287 . S
C553 C552 1.287 . S
C553 C554 1.524 . S
C553 H556 0.999 . S
C554 H524 0.950 . S
C554 C553 1.524 . S
C554 C555 1.415 . S
C555 H525 0.950 . S
C555 C550 1.363 . S
C555 C554 1.415 . S
H556 C553 0.999 . S
H557 C538 0.913 . S
H558 C576 0.951 . S
H559 C578 0.951 . S
H560 C580 0.950 . S
H561 C581 0.950 . S
H562 C583 0.950 . S
H563 C586 0.950 . S
H564 C587 0.950 . S
H565 C589 0.950 . S
H566 C590 0.950 . S
H567 C591 0.951 . S
H568 C593 0.951 . S
H569 C595 0.950 . S
H570 C596 0.950 . S
H571 C598 0.950 . S
H572 C601 0.950 . S
H573 C602 0.950 . S
H574 C604 0.950 . S
H575 C605 0.950 . S
C576 H558 0.951 . S
C576 C577 1.366 . S
C576 C578 1.388 . S
C577 C576 1.366 . S
C577 C581 1.385 . S
C578 H559 0.951 . S
C578 C576 1.388 . S
C578 C579 1.366 . S
C579 C578 1.366 . S
C579 C580 1.414 . S
C579 C582 1.499 . S
C580 H560 0.950 . S
C580 C579 1.414 . S
C580 C581 1.374 . S
C581 H561 0.950 . S
C581 C577 1.385 . S
C581 C580 1.374 . S
C582 C579 1.499 . S
C582 C583 1.373 . S
C582 C584 1.389 . S
C583 H562 0.950 . S
C583 C582 1.373 . S
C583 C599 1.377 . S
C584 C582 1.389 . S
C584 C585 1.524 . S
C584 C598 1.377 . S
C585 C584 1.524 . S
C585 C586 1.397 . S
C585 C590 1.363 . S
C586 H563 0.950 . S
C586 C585 1.397 . S
C586 C587 1.334 . S
C587 H564 0.950 . S
C587 C586 1.334 . S
C587 C588 1.287 . S
C588 C587 1.287 . S
C588 C589 1.524 . S
C588 H607 0.913 . S
C589 H565 0.950 . S
C589 C588 1.524 . S
C589 C590 1.415 . S
C590 H566 0.950 . S
C590 C585 1.363 . S
C590 C589 1.415 . S
C591 H567 0.951 . S
C591 C592 1.366 . S
C591 C593 1.388 . S
C592 C591 1.366 . S
C592 C596 1.385 . S
C593 H568 0.951 . S
C593 C591 1.388 . S
C593 C594 1.366 . S
C594 C593 1.366 . S
C594 C595 1.414 . S
C594 C597 1.499 . S
C595 H569 0.950 . S
C595 C594 1.414 . S
C595 C596 1.374 . S
C596 H570 0.950 . S
C596 C592 1.385 . S
C596 C595 1.374 . S
C597 C594 1.499 . S
C597 C598 1.373 . S
C597 C599 1.389 . S
C598 H571 0.950 . S
C598 C584 1.377 . S
C598 C597 1.373 . S
C599 C583 1.377 . S
C599 C597 1.389 . S
C599 C600 1.524 . S
C600 C599 1.524 . S
C600 C601 1.397 . S
C600 C605 1.363 . S
C601 H572 0.950 . S
C601 C600 1.397 . S
C601 C602 1.334 . S
C602 H573 0.950 . S
C602 C601 1.334 . S
C602 C603 1.287 . S
C603 C602 1.287 . S
C603 C604 1.524 . S
C603 H606 0.999 . S
C604 H574 0.950 . S
C604 C603 1.524 . S
C604 C605 1.415 . S
C605 H575 0.950 . S
C605 C600 1.363 . S
C605 C604 1.415 . S
H606 C603 0.999 . S
H607 C588 0.913 . S
H608 C626 0.951 1_455 S
H609 C628 0.910 1_455 S
H610 C630 0.950 . S
H611 C631 0.950 . S
H612 C633 0.950 . S
H613 C636 0.950 . S
H614 C637 0.950 . S
H615 C639 0.950 . S
H616 C640 0.950 . S
H617 C641 0.951 1_655 S
H618 C643 0.910 1_655 S
H619 C645 0.950 . S
H620 C646 0.950 . S
H621 C648 0.950 . S
H622 C651 0.950 . S
H623 C652 0.950 . S
H624 C654 0.950 . S
H625 C655 0.950 . S
C626 H608 0.951 1_655 S
C626 C627 1.366 . S
C626 C628 1.401 . S
C627 C626 1.366 . S
C627 C631 1.385 . S
C628 H609 0.910 1_655 S
C628 C626 1.401 . S
C628 C629 1.394 . S
C629 C628 1.394 . S
C629 C630 1.414 . S
C629 C632 1.499 . S
C630 H610 0.950 . S
C630 C629 1.414 . S
C630 C631 1.374 . S
C631 H611 0.950 . S
C631 C627 1.385 . S
C631 C630 1.374 . S
C632 C629 1.499 . S
C632 C633 1.373 . S
C632 C634 1.389 1_655 S
C633 H612 0.950 . S
C633 C632 1.373 . S
C633 C649 1.377 . S
C634 C632 1.389 1_455 S
C634 C635 1.524 . S
C634 C648 1.377 . S
C635 C634 1.524 . S
C635 C636 1.397 1_455 S
C635 C640 1.363 . S
C636 H613 0.950 . S
C636 C635 1.397 1_655 S
C636 C637 1.334 . S
C637 H614 0.950 . S
C637 C636 1.334 . S
C637 C638 1.287 1_655 S
C638 C637 1.287 1_455 S
C638 C639 1.524 . S
C638 H657 0.913 . S
C639 H615 0.950 . S
C639 C638 1.524 . S
C639 C640 1.415 . S
C640 H616 0.950 . S
C640 C635 1.363 . S
C640 C639 1.415 . S
C641 H617 0.951 1_455 S
C641 C642 1.366 . S
C641 C643 1.401 . S
C642 C641 1.366 . S
C642 C646 1.385 . S
C643 H618 0.910 1_455 S
C643 C641 1.401 . S
C643 C644 1.394 . S
C644 C643 1.394 . S
C644 C645 1.414 . S
C644 C647 1.499 . S
C645 H619 0.950 . S
C645 C644 1.414 . S
C645 C646 1.374 . S
C646 H620 0.950 . S
C646 C642 1.385 . S
C646 C645 1.374 . S
C647 C644 1.499 . S
C647 C648 1.373 . S
C647 C649 1.389 1_455 S
C648 H621 0.950 . S
C648 C634 1.377 . S
C648 C647 1.373 . S
C649 C633 1.377 . S
C649 C647 1.389 1_655 S
C649 C650 1.524 . S
C650 C649 1.524 . S
C650 C651 1.397 1_645 S
C650 C655 1.363 1_545 S
C651 H622 0.950 . S
C651 C650 1.397 1_465 S
C651 C652 1.334 . S
C652 H623 0.950 . S
C652 C651 1.334 . S
C652 C653 1.287 1_455 S
C653 C652 1.287 1_655 S
C653 C654 1.524 . S
C653 H656 0.999 . S
C654 H624 0.950 . S
C654 C653 1.524 . S
C654 C655 1.415 . S
C655 H625 0.950 . S
C655 C650 1.363 1_565 S
C655 C654 1.415 . S
H656 C653 0.999 . S
H657 C638 0.913 . S
H658 C676 0.951 . S
H659 C678 0.951 . S
H660 C680 0.950 . S
H661 C681 0.950 . S
H662 C683 0.950 . S
H663 C686 0.950 . S
H664 C687 0.950 . S
H665 C689 0.950 . S
H666 C690 0.950 . S
H667 C691 0.951 . S
H668 C693 0.951 . S
H669 C695 0.950 . S
H670 C696 0.950 . S
H671 C698 0.950 . S
H672 C701 0.950 . S
H673 C702 0.950 . S
H674 C704 0.950 . S
H675 C705 0.950 . S
C676 H658 0.951 . S
C676 C677 1.366 . S
C676 C678 1.388 . S
C677 C676 1.366 . S
C677 C681 1.385 . S
C678 H659 0.951 . S
C678 C676 1.388 . S
C678 C679 1.366 . S
C679 C678 1.366 . S
C679 C680 1.414 . S
C679 C682 1.499 . S
C680 H660 0.950 . S
C680 C679 1.414 . S
C680 C681 1.374 . S
C681 H661 0.950 . S
C681 C677 1.385 . S
C681 C680 1.374 . S
C682 C679 1.499 . S
C682 C683 1.373 . S
C682 C684 1.389 . S
C683 H662 0.950 . S
C683 C682 1.373 . S
C683 C699 1.377 . S
C684 C682 1.389 . S
C684 C685 1.524 . S
C684 C698 1.377 . S
C685 C684 1.524 . S
C685 C686 1.397 . S
C685 C690 1.363 . S
C686 H663 0.950 . S
C686 C685 1.397 . S
C686 C687 1.334 . S
C687 H664 0.950 . S
C687 C686 1.334 . S
C687 C688 1.287 . S
C688 C687 1.287 . S
C688 C689 1.524 . S
C688 H707 0.913 . S
C689 H665 0.950 . S
C689 C688 1.524 . S
C689 C690 1.415 . S
C690 H666 0.950 . S
C690 C685 1.363 . S
C690 C689 1.415 . S
C691 H667 0.951 . S
C691 C692 1.366 . S
C691 C693 1.388 . S
C692 C691 1.366 . S
C692 C696 1.385 . S
C693 H668 0.951 . S
C693 C691 1.388 . S
C693 C694 1.366 . S
C694 C693 1.366 . S
C694 C695 1.414 . S
C694 C697 1.499 . S
C695 H669 0.950 . S
C695 C694 1.414 . S
C695 C696 1.374 . S
C696 H670 0.950 . S
C696 C692 1.385 . S
C696 C695 1.374 . S
C697 C694 1.499 . S
C697 C698 1.373 . S
C697 C699 1.389 . S
C698 H671 0.950 . S
C698 C684 1.377 . S
C698 C697 1.373 . S
C699 C683 1.377 . S
C699 C697 1.389 . S
C699 C700 1.524 . S
C700 C699 1.524 . S
C700 C701 1.397 . S
C700 C705 1.363 . S
C701 H672 0.950 . S
C701 C700 1.397 . S
C701 C702 1.334 . S
C702 H673 0.950 . S
C702 C701 1.334 . S
C702 C703 1.287 . S
C703 C702 1.287 . S
C703 C704 1.524 . S
C703 H706 0.999 . S
C704 H674 0.950 . S
C704 C703 1.524 . S
C704 C705 1.415 . S
C705 H675 0.950 . S
C705 C700 1.363 . S
C705 C704 1.415 . S
H706 C703 0.999 . S
H707 C688 0.913 . S
H708 C726 0.951 . S
H709 C728 0.951 . S
H710 C730 0.929 1_655 S
H711 C731 0.950 1_655 S
H712 C733 0.950 . S
H713 C736 0.950 1_655 S
H714 C737 0.968 . S
H715 C739 0.950 . S
H716 C740 0.950 . S
H717 C741 0.951 . S
H718 C743 0.951 . S
H719 C745 0.929 1_455 S
H720 C746 0.950 1_455 S
H721 C748 0.950 . S
H722 C751 0.927 1_465 S
H723 C752 0.968 . S
H724 C754 0.950 . S
H725 C755 0.950 . S
C726 H708 0.951 . S
C726 C727 1.366 . S
C726 C728 1.388 . S
C727 C726 1.366 . S
C727 C731 1.385 . S
C728 H709 0.951 . S
C728 C726 1.388 . S
C728 C729 1.366 . S
C729 C728 1.366 . S
C729 C730 1.428 . S
C729 C732 1.499 . S
C730 H710 0.929 1_455 S
C730 C729 1.428 . S
C730 C731 1.382 . S
C731 H711 0.950 1_455 S
C731 C727 1.385 . S
C731 C730 1.382 . S
C732 C729 1.499 . S
C732 C733 1.373 1_455 S
C732 C734 1.389 . S
C733 H712 0.950 . S
C733 C732 1.373 1_655 S
C733 C749 1.377 . S
C734 C732 1.389 . S
C734 C735 1.524 . S
C734 C748 1.377 . S
C735 C734 1.524 . S
C735 C736 1.397 . S
C735 C740 1.363 . S
C736 H713 0.950 1_455 S
C736 C735 1.397 . S
C736 C737 1.334 . S
C737 H714 0.968 . S
C737 C736 1.334 . S
C737 C738 1.287 . S
C738 C737 1.287 . S
C738 C739 1.524 . S
C738 H757 0.913 . S
C739 H715 0.950 . S
C739 C738 1.524 . S
C739 C740 1.415 . S
C740 H716 0.950 . S
C740 C735 1.363 . S
C740 C739 1.415 . S
C741 H717 0.951 . S
C741 C742 1.366 . S
C741 C743 1.388 . S
C742 C741 1.366 . S
C742 C746 1.385 . S
C743 H718 0.951 . S
C743 C741 1.388 . S
C743 C744 1.366 . S
C744 C743 1.366 . S
C744 C745 1.428 . S
C744 C747 1.499 . S
C745 H719 0.929 1_655 S
C745 C744 1.428 . S
C745 C746 1.382 . S
C746 H720 0.950 1_655 S
C746 C742 1.385 . S
C746 C745 1.382 . S
C747 C744 1.499 . S
C747 C748 1.373 1_655 S
C747 C749 1.389 . S
C748 H721 0.950 . S
C748 C734 1.377 . S
C748 C747 1.373 1_455 S
C749 C733 1.377 . S
C749 C747 1.389 . S
C749 C750 1.565 . S
C750 C749 1.565 . S
C750 C751 1.381 1_565 S
C750 C755 1.339 1_565 S
C751 H722 0.927 1_645 S
C751 C750 1.381 1_545 S
C751 C752 1.334 . S
C752 H723 0.968 . S
C752 C751 1.334 . S
C752 C753 1.287 . S
C753 C752 1.287 . S
C753 C754 1.524 . S
C753 H756 0.999 . S
C754 H724 0.950 . S
C754 C753 1.524 . S
C754 C755 1.415 . S
C755 H725 0.950 . S
C755 C750 1.339 1_545 S
C755 C754 1.415 . S
H756 C753 0.999 . S
H757 C738 0.913 . S
H758 C776 0.951 . S
H759 C778 0.951 . S
H760 C780 0.950 . S
H761 C781 0.950 . S
H762 C783 0.950 . S
H763 C786 0.950 . S
H764 C787 0.950 1_565 S
H765 C789 0.950 . S
H766 C790 0.950 . S
H767 C791 0.951 . S
H768 C793 0.951 . S
H769 C795 0.950 . S
H770 C796 0.950 . S
H771 C798 0.950 . S
H772 C801 0.950 . S
H773 C802 0.950 . S
H774 C804 0.950 . S
H775 C805 0.950 . S
C776 H758 0.951 . S
C776 C777 1.366 . S
C776 C778 1.388 . S
C777 C776 1.366 . S
C777 C781 1.385 . S
C778 H759 0.951 . S
C778 C776 1.388 . S
C778 C779 1.366 . S
C779 C778 1.366 . S
C779 C780 1.414 . S
C779 C782 1.499 . S
C780 H760 0.950 . S
C780 C779 1.414 . S
C780 C781 1.374 . S
C781 H761 0.950 . S
C781 C777 1.385 . S
C781 C780 1.374 . S
C782 C779 1.499 . S
C782 C783 1.373 . S
C782 C784 1.389 . S
C783 H762 0.950 . S
C783 C782 1.373 . S
C783 C799 1.377 . S
C784 C782 1.389 . S
C784 C785 1.524 . S
C784 C798 1.377 . S
C785 C784 1.524 . S
C785 C786 1.397 . S
C785 C790 1.363 . S
C786 H763 0.950 . S
C786 C785 1.397 . S
C786 C787 1.334 . S
C787 H764 0.950 1_545 S
C787 C786 1.334 . S
C787 C788 1.287 . S
C788 C787 1.287 . S
C788 C789 1.524 . S
C788 H807 0.913 . S
C789 H765 0.950 . S
C789 C788 1.524 . S
C789 C790 1.415 . S
C790 H766 0.950 . S
C790 C785 1.363 . S
C790 C789 1.415 . S
C791 H767 0.951 . S
C791 C792 1.366 . S
C791 C793 1.388 . S
C792 C791 1.366 . S
C792 C796 1.385 . S
C793 H768 0.951 . S
C793 C791 1.388 . S
C793 C794 1.366 . S
C794 C793 1.366 . S
C794 C795 1.414 . S
C794 C797 1.499 . S
C795 H769 0.950 . S
C795 C794 1.414 . S
C795 C796 1.374 . S
C796 H770 0.950 . S
C796 C792 1.385 . S
C796 C795 1.374 . S
C797 C794 1.499 . S
C797 C798 1.373 . S
C797 C799 1.389 . S
C798 H771 0.950 . S
C798 C784 1.377 . S
C798 C797 1.373 . S
C799 C783 1.377 . S
C799 C797 1.389 . S
C799 C800 1.524 . S
C800 C799 1.524 . S
C800 C801 1.397 . S
C800 C805 1.363 . S
C801 H772 0.950 . S
C801 C800 1.397 . S
C801 C802 1.334 . S
C802 H773 0.950 . S
C802 C801 1.334 . S
C802 C803 1.287 . S
C803 C802 1.287 . S
C803 C804 1.524 . S
C803 H806 0.999 . S
C804 H774 0.950 . S
C804 C803 1.524 . S
C804 C805 1.415 . S
C805 H775 0.950 . S
C805 C800 1.363 . S
C805 C804 1.415 . S
H806 C803 0.999 . S
H807 C788 0.913 . S
H808 C826 0.951 . S
H809 C828 0.951 . S
H810 C830 0.950 . S
H811 C831 0.950 . S
H812 C833 0.950 . S
H813 C836 0.950 . S
H814 C837 0.950 . S
H815 C839 0.950 . S
H816 C840 0.950 . S
H817 C841 0.951 . S
H818 C843 0.951 . S
H819 C845 0.950 . S
H820 C846 0.950 . S
H821 C848 0.950 . S
H822 C851 0.950 . S
H823 C852 0.950 . S
H824 C854 0.950 . S
H825 C855 0.950 . S
C826 H808 0.951 . S
C826 C827 1.366 . S
C826 C828 1.388 . S
C827 C826 1.366 . S
C827 C831 1.385 . S
C828 H809 0.951 . S
C828 C826 1.388 . S
C828 C829 1.366 . S
C829 C828 1.366 . S
C829 C830 1.414 . S
C829 C832 1.499 . S
C830 H810 0.950 . S
C830 C829 1.414 . S
C830 C831 1.374 . S
C831 H811 0.950 . S
C831 C827 1.385 . S
C831 C830 1.374 . S
C832 C829 1.499 . S
C832 C833 1.373 . S
C832 C834 1.389 . S
C833 H812 0.950 . S
C833 C832 1.373 . S
C833 C849 1.377 . S
C834 C832 1.389 . S
C834 C835 1.524 . S
C834 C848 1.377 . S
C835 C834 1.524 . S
C835 C836 1.397 . S
C835 C840 1.363 . S
C836 H813 0.950 . S
C836 C835 1.397 . S
C836 C837 1.334 . S
C837 H814 0.950 . S
C837 C836 1.334 . S
C837 C838 1.287 . S
C838 C837 1.287 . S
C838 C839 1.524 . S
C838 H857 0.913 . S
C839 H815 0.950 . S
C839 C838 1.524 . S
C839 C840 1.415 . S
C840 H816 0.950 . S
C840 C835 1.363 . S
C840 C839 1.415 . S
C841 H817 0.951 . S
C841 C842 1.366 . S
C841 C843 1.388 . S
C842 C841 1.366 . S
C842 C846 1.385 . S
C843 H818 0.951 . S
C843 C841 1.388 . S
C843 C844 1.366 . S
C844 C843 1.366 . S
C844 C845 1.414 . S
C844 C847 1.499 . S
C845 H819 0.950 . S
C845 C844 1.414 . S
C845 C846 1.374 . S
C846 H820 0.950 . S
C846 C842 1.385 . S
C846 C845 1.374 . S
C847 C844 1.499 . S
C847 C848 1.373 . S
C847 C849 1.389 . S
C848 H821 0.950 . S
C848 C834 1.377 . S
C848 C847 1.373 . S
C849 C833 1.377 . S
C849 C847 1.389 . S
C849 C850 1.524 . S
C850 C849 1.524 . S
C850 C851 1.397 . S
C850 C855 1.363 . S
C851 H822 0.950 . S
C851 C850 1.397 . S
C851 C852 1.334 . S
C852 H823 0.950 . S
C852 C851 1.334 . S
C852 C853 1.287 . S
C853 C852 1.287 . S
C853 C854 1.524 . S
C853 H856 0.999 . S
C854 H824 0.950 . S
C854 C853 1.524 . S
C854 C855 1.415 . S
C855 H825 0.950 . S
C855 C850 1.363 . S
C855 C854 1.415 . S
H856 C853 0.999 . S
H857 C838 0.913 . S
H858 C876 0.951 . S
H859 C878 0.963 . S
H860 C880 0.950 . S
H861 C881 0.950 . S
H862 C883 0.950 . S
H863 C886 0.950 . S
H864 C887 0.950 . S
H865 C889 0.950 . S
H866 C890 0.950 . S
H867 C891 0.951 . S
H868 C893 0.963 . S
H869 C895 0.950 . S
H870 C896 0.950 . S
H871 C898 0.950 . S
H872 C901 0.950 . S
H873 C902 0.950 . S
H874 C904 0.950 . S
H875 C905 0.950 . S
C876 H858 0.951 . S
C876 C877 1.366 . S
C876 C878 1.388 . S
C877 C876 1.366 . S
C877 C881 1.385 . S
C878 H859 0.963 . S
C878 C876 1.388 . S
C878 C879 1.366 . S
C879 C878 1.366 . S
C879 C880 1.414 . S
C879 C882 1.499 . S
C880 H860 0.950 . S
C880 C879 1.414 . S
C880 C881 1.374 . S
C881 H861 0.950 . S
C881 C877 1.385 . S
C881 C880 1.374 . S
C882 C879 1.499 . S
C882 C883 1.373 . S
C882 C884 1.389 1_455 S
C883 H862 0.950 . S
C883 C882 1.373 . S
C883 C899 1.377 . S
C884 C882 1.389 1_655 S
C884 C885 1.524 . S
C884 C898 1.377 . S
C885 C884 1.524 . S
C885 C886 1.397 . S
C885 C890 1.363 . S
C886 H863 0.950 . S
C886 C885 1.397 . S
C886 C887 1.334 . S
C887 H864 0.950 . S
C887 C886 1.334 . S
C887 C888 1.287 . S
C888 C887 1.287 . S
C888 C889 1.524 . S
C888 H907 0.913 . S
C889 H865 0.950 . S
C889 C888 1.524 . S
C889 C890 1.415 . S
C890 H866 0.950 . S
C890 C885 1.363 . S
C890 C889 1.415 . S
C891 H867 0.951 . S
C891 C892 1.366 . S
C891 C893 1.388 . S
C892 C891 1.366 . S
C892 C896 1.385 . S
C893 H868 0.963 . S
C893 C891 1.388 . S
C893 C894 1.366 . S
C894 C893 1.366 . S
C894 C895 1.414 . S
C894 C897 1.499 . S
C895 H869 0.950 . S
C895 C894 1.414 . S
C895 C896 1.374 . S
C896 H870 0.950 . S
C896 C892 1.385 . S
C896 C895 1.374 . S
C897 C894 1.499 . S
C897 C898 1.373 . S
C897 C899 1.389 1_655 S
C898 H871 0.950 . S
C898 C884 1.377 . S
C898 C897 1.373 . S
C899 C883 1.377 . S
C899 C897 1.389 1_455 S
C899 C900 1.524 . S
C900 C899 1.524 . S
C900 C901 1.397 . S
C900 C905 1.363 . S
C901 H872 0.950 . S
C901 C900 1.397 . S
C901 C902 1.334 . S
C902 H873 0.950 . S
C902 C901 1.334 . S
C902 C903 1.287 . S
C903 C902 1.287 . S
C903 C904 1.524 . S
C903 H906 0.999 . S
C904 H874 0.950 . S
C904 C903 1.524 . S
C904 C905 1.415 . S
C905 H875 0.950 . S
C905 C900 1.363 . S
C905 C904 1.415 . S
H906 C903 0.999 . S
H907 C888 0.913 . S
H908 C926 0.951 . S
H909 C928 0.951 . S
H910 C930 0.950 . S
H911 C931 0.950 . S
H912 C933 0.950 . S
H913 C936 0.950 . S
H914 C937 0.950 . S
H915 C939 0.950 . S
H916 C940 0.950 . S
H917 C941 0.951 . S
H918 C943 0.951 . S
H919 C945 0.950 . S
H920 C946 0.950 . S
H921 C948 0.950 . S
H922 C951 0.950 . S
H923 C952 0.950 . S
H924 C954 0.950 . S
H925 C955 0.950 . S
C926 H908 0.951 . S
C926 C927 1.366 . S
C926 C928 1.388 . S
C927 C926 1.366 . S
C927 C931 1.385 . S
C928 H909 0.951 . S
C928 C926 1.388 . S
C928 C929 1.366 . S
C929 C928 1.366 . S
C929 C930 1.414 . S
C929 C932 1.499 . S
C930 H910 0.950 . S
C930 C929 1.414 . S
C930 C931 1.374 . S
C931 H911 0.950 . S
C931 C927 1.385 . S
C931 C930 1.374 . S
C932 C929 1.499 . S
C932 C933 1.373 . S
C932 C934 1.389 . S
C933 H912 0.950 . S
C933 C932 1.373 . S
C933 C949 1.377 . S
C934 C932 1.389 . S
C934 C935 1.524 . S
C934 C948 1.377 . S
C935 C934 1.524 . S
C935 C936 1.397 . S
C935 C940 1.363 . S
C936 H913 0.950 . S
C936 C935 1.397 . S
C936 C937 1.334 . S
C937 H914 0.950 . S
C937 C936 1.334 . S
C937 C938 1.287 . S
C938 C937 1.287 . S
C938 C939 1.524 . S
C938 H957 0.913 . S
C939 H915 0.950 . S
C939 C938 1.524 . S
C939 C940 1.415 . S
C940 H916 0.950 . S
C940 C935 1.363 . S
C940 C939 1.415 . S
C941 H917 0.951 . S
C941 C942 1.366 . S
C941 C943 1.388 . S
C942 C941 1.366 . S
C942 C946 1.385 . S
C943 H918 0.951 . S
C943 C941 1.388 . S
C943 C944 1.366 . S
C944 C943 1.366 . S
C944 C945 1.414 . S
C944 C947 1.499 . S
C945 H919 0.950 . S
C945 C944 1.414 . S
C945 C946 1.374 . S
C946 H920 0.950 . S
C946 C942 1.385 . S
C946 C945 1.374 . S
C947 C944 1.499 . S
C947 C948 1.373 . S
C947 C949 1.389 . S
C948 H921 0.950 . S
C948 C934 1.377 . S
C948 C947 1.373 . S
C949 C933 1.377 . S
C949 C947 1.389 . S
C949 C950 1.524 . S
C950 C949 1.524 . S
C950 C951 1.397 . S
C950 C955 1.363 . S
C951 H922 0.950 . S
C951 C950 1.397 . S
C951 C952 1.334 . S
C952 H923 0.950 . S
C952 C951 1.334 . S
C952 C953 1.287 . S
C953 C952 1.287 . S
C953 C954 1.524 . S
C953 H956 0.999 . S
C954 H924 0.950 . S
C954 C953 1.524 . S
C954 C955 1.415 . S
C955 H925 0.950 . S
C955 C950 1.363 . S
C955 C954 1.415 . S
H956 C953 0.999 . S
H957 C938 0.913 . S
H958 C976 0.951 1_655 S
H959 C978 0.948 . S
H960 C980 0.950 . S
H961 C981 0.950 . S
H962 C983 0.950 . S
H963 C986 0.950 . S
H964 C987 0.983 . S
H965 C989 0.950 . S
H966 C990 0.950 . S
H967 C991 0.951 1_455 S
H968 C993 0.948 . S
H969 C995 0.950 . S
H970 C996 0.950 . S
H971 C998 0.950 . S
H972 C1001 0.950 . S
H973 C1002 0.983 . S
H974 C1004 0.950 . S
H975 C1005 0.950 . S
C976 H958 0.951 1_455 S
C976 C977 1.366 . S
C976 C978 1.389 1_455 S
C977 C976 1.366 . S
C977 C981 1.385 . S
C978 H959 0.948 . S
C978 C976 1.389 1_655 S
C978 C979 1.368 1_655 S
C979 C978 1.368 1_455 S
C979 C980 1.414 . S
C979 C982 1.499 . S
C980 H960 0.950 . S
C980 C979 1.414 . S
C980 C981 1.374 . S
C981 H961 0.950 . S
C981 C977 1.385 . S
C981 C980 1.374 . S
C982 C979 1.499 . S
C982 C983 1.373 . S
C982 C984 1.389 1_455 S
C983 H962 0.950 . S
C983 C982 1.373 . S
C983 C999 1.377 . S
C984 C982 1.389 1_655 S
C984 C985 1.524 . S
C984 C998 1.377 . S
C985 C984 1.524 . S
C985 C986 1.397 1_655 S
C985 C990 1.363 . S
C986 H963 0.950 . S
C986 C985 1.397 1_455 S
C986 C987 1.342 . S
C987 H964 0.983 . S
C987 C986 1.342 . S
C987 C988 1.246 1_455 S
C988 C987 1.246 1_655 S
C988 C989 1.524 . S
C988 H1007 0.913 . S
C989 H965 0.950 . S
C989 C988 1.524 . S
C989 C990 1.415 . S
C990 H966 0.950 . S
C990 C985 1.363 . S
C990 C989 1.415 . S
C991 H967 0.951 1_655 S
C991 C992 1.366 . S
C991 C993 1.389 1_655 S
C992 C991 1.366 . S
C992 C996 1.385 . S
C993 H968 0.948 . S
C993 C991 1.389 1_455 S
C993 C994 1.368 1_455 S
C994 C993 1.368 1_655 S
C994 C995 1.414 . S
C994 C997 1.499 . S
C995 H969 0.950 . S
C995 C994 1.414 . S
C995 C996 1.374 . S
C996 H970 0.950 . S
C996 C992 1.385 . S
C996 C995 1.374 . S
C997 C994 1.499 . S
C997 C998 1.373 . S
C997 C999 1.389 1_655 S
C998 H971 0.950 . S
C998 C984 1.377 . S
C998 C997 1.373 . S
C999 C983 1.377 . S
C999 C997 1.389 1_455 S
C999 C1000 1.524 . S
C1000 C999 1.524 . S
C1000 C1001 1.397 1_455 S
C1000 C1005 1.363 . S
C1001 H972 0.950 . S
C1001 C1000 1.397 1_655 S
C1001 C1002 1.342 . S
C1002 H973 0.983 . S
C1002 C1001 1.342 . S
C1002 C1003 1.246 1_655 S
C1003 C1002 1.246 1_455 S
C1003 C1004 1.524 . S
C1003 H1006 0.999 . S
C1004 H974 0.950 . S
C1004 C1003 1.524 . S
C1004 C1005 1.415 . S
C1005 H975 0.950 . S
C1005 C1000 1.363 . S
C1005 C1004 1.415 . S
H1006 C1003 0.999 . S
H1007 C988 0.913 . S
H1008 C1026 0.951 . S
H1009 C1028 0.951 . S
H1010 C1030 0.950 . S
H1011 C1031 0.950 . S
H1012 C1033 0.950 . S
H1013 C1036 0.950 . S
H1014 C1037 0.950 . S
H1015 C1039 0.950 . S
H1016 C1040 0.950 . S
H1017 C1041 0.951 . S
H1018 C1043 0.951 . S
H1019 C1045 0.950 . S
H1020 C1046 0.950 . S
H1021 C1048 0.950 . S
H1022 C1051 0.950 . S
H1023 C1052 0.950 . S
H1024 C1054 0.950 . S
H1025 C1055 0.950 . S
C1026 H1008 0.951 . S
C1026 C1027 1.366 . S
C1026 C1028 1.388 . S
C1027 C1026 1.366 . S
C1027 C1031 1.385 . S
C1028 H1009 0.951 . S
C1028 C1026 1.388 . S
C1028 C1029 1.366 . S
C1029 C1028 1.366 . S
C1029 C1030 1.414 . S
C1029 C1032 1.499 . S
C1030 H1010 0.950 . S
C1030 C1029 1.414 . S
C1030 C1031 1.374 . S
C1031 H1011 0.950 . S
C1031 C1027 1.385 . S
C1031 C1030 1.374 . S
C1032 C1029 1.499 . S
C1032 C1033 1.373 . S
C1032 C1034 1.389 1_455 S
C1033 H1012 0.950 . S
C1033 C1032 1.373 . S
C1033 C1049 1.377 . S
C1034 C1032 1.389 1_655 S
C1034 C1035 1.524 . S
C1034 C1048 1.377 . S
C1035 C1034 1.524 . S
C1035 C1036 1.397 . S
C1035 C1040 1.363 . S
C1036 H1013 0.950 . S
C1036 C1035 1.397 . S
C1036 C1037 1.334 . S
C1037 H1014 0.950 . S
C1037 C1036 1.334 . S
C1037 C1038 1.287 . S
C1038 C1037 1.287 . S
C1038 C1039 1.524 . S
C1038 H1057 0.913 . S
C1039 H1015 0.950 . S
C1039 C1038 1.524 . S
C1039 C1040 1.415 . S
C1040 H1016 0.950 . S
C1040 C1035 1.363 . S
C1040 C1039 1.415 . S
C1041 H1017 0.951 . S
C1041 C1042 1.366 . S
C1041 C1043 1.388 . S
C1042 C1041 1.366 . S
C1042 C1046 1.385 . S
C1043 H1018 0.951 . S
C1043 C1041 1.388 . S
C1043 C1044 1.366 . S
C1044 C1043 1.366 . S
C1044 C1045 1.414 . S
C1044 C1047 1.499 . S
C1045 H1019 0.950 . S
C1045 C1044 1.414 . S
C1045 C1046 1.374 . S
C1046 H1020 0.950 . S
C1046 C1042 1.385 . S
C1046 C1045 1.374 . S
C1047 C1044 1.499 . S
C1047 C1048 1.373 . S
C1047 C1049 1.389 1_655 S
C1048 H1021 0.950 . S
C1048 C1034 1.377 . S
C1048 C1047 1.373 . S
C1049 C1033 1.377 . S
C1049 C1047 1.389 1_455 S
C1049 C1050 1.524 . S
C1050 C1049 1.524 . S
C1050 C1051 1.397 . S
C1050 C1055 1.363 . S
C1051 H1022 0.950 . S
C1051 C1050 1.397 . S
C1051 C1052 1.334 . S
C1052 H1023 0.950 . S
C1052 C1051 1.334 . S
C1052 C1053 1.287 . S
C1053 C1052 1.287 . S
C1053 C1054 1.524 . S
C1053 H1056 0.999 . S
C1054 H1024 0.950 . S
C1054 C1053 1.524 . S
C1054 C1055 1.415 . S
C1055 H1025 0.950 . S
C1055 C1050 1.363 . S
C1055 C1054 1.415 . S
H1056 C1053 0.999 . S
H1057 C1038 0.913 . S
H1058 C1076 0.951 . S
H1059 C1078 0.951 . S
H1060 C1080 0.950 . S
H1061 C1081 0.950 . S
H1062 C1083 0.950 . S
H1063 C1086 0.950 . S
H1064 C1087 0.950 . S
H1065 C1089 0.950 . S
H1066 C1090 0.950 . S
H1067 C1091 0.951 . S
H1068 C1093 0.951 . S
H1069 C1095 0.950 . S
H1070 C1096 0.950 . S
H1071 C1098 0.950 . S
H1072 C1101 0.950 . S
H1073 C1102 0.950 . S
H1074 C1104 0.950 . S
H1075 C1105 0.950 . S
C1076 H1058 0.951 . S
C1076 C1077 1.366 . S
C1076 C1078 1.388 . S
C1077 C1076 1.366 . S
C1077 C1081 1.385 . S
C1078 H1059 0.951 . S
C1078 C1076 1.388 . S
C1078 C1079 1.366 . S
C1079 C1078 1.366 . S
C1079 C1080 1.414 . S
C1079 C1082 1.499 . S
C1080 H1060 0.950 . S
C1080 C1079 1.414 . S
C1080 C1081 1.374 . S
C1081 H1061 0.950 . S
C1081 C1077 1.385 . S
C1081 C1080 1.374 . S
C1082 C1079 1.499 . S
C1082 C1083 1.373 . S
C1082 C1084 1.389 . S
C1083 H1062 0.950 . S
C1083 C1082 1.373 . S
C1083 C1099 1.377 . S
C1084 C1082 1.389 . S
C1084 C1085 1.524 . S
C1084 C1098 1.377 . S
C1085 C1084 1.524 . S
C1085 C1086 1.397 . S
C1085 C1090 1.363 . S
C1086 H1063 0.950 . S
C1086 C1085 1.397 . S
C1086 C1087 1.334 . S
C1087 H1064 0.950 . S
C1087 C1086 1.334 . S
C1087 C1088 1.287 . S
C1088 C1087 1.287 . S
C1088 C1089 1.524 . S
C1088 H1107 0.913 . S
C1089 H1065 0.950 . S
C1089 C1088 1.524 . S
C1089 C1090 1.415 . S
C1090 H1066 0.950 . S
C1090 C1085 1.363 . S
C1090 C1089 1.415 . S
C1091 H1067 0.951 . S
C1091 C1092 1.366 . S
C1091 C1093 1.388 . S
C1092 C1091 1.366 . S
C1092 C1096 1.385 . S
C1093 H1068 0.951 . S
C1093 C1091 1.388 . S
C1093 C1094 1.366 . S
C1094 C1093 1.366 . S
C1094 C1095 1.414 . S
C1094 C1097 1.499 . S
C1095 H1069 0.950 . S
C1095 C1094 1.414 . S
C1095 C1096 1.374 . S
C1096 H1070 0.950 . S
C1096 C1092 1.385 . S
C1096 C1095 1.374 . S
C1097 C1094 1.499 . S
C1097 C1098 1.373 . S
C1097 C1099 1.389 . S
C1098 H1071 0.950 . S
C1098 C1084 1.377 . S
C1098 C1097 1.373 . S
C1099 C1083 1.377 . S
C1099 C1097 1.389 . S
C1099 C1100 1.524 . S
C1100 C1099 1.524 . S
C1100 C1101 1.397 . S
C1100 C1105 1.363 . S
C1101 H1072 0.950 . S
C1101 C1100 1.397 . S
C1101 C1102 1.334 . S
C1102 H1073 0.950 . S
C1102 C1101 1.334 . S
C1102 C1103 1.287 . S
C1103 C1102 1.287 . S
C1103 C1104 1.524 . S
C1103 H1106 0.999 . S
C1104 H1074 0.950 . S
C1104 C1103 1.524 . S
C1104 C1105 1.415 . S
C1105 H1075 0.950 . S
C1105 C1100 1.363 . S
C1105 C1104 1.415 . S
H1106 C1103 0.999 . S
H1107 C1088 0.913 . S
H1108 C1126 0.951 . S
H1109 C1128 0.951 . S
H1110 C1130 0.950 . S
H1111 C1131 0.950 . S
H1112 C1133 0.950 . S
H1113 C1136 0.950 . S
H1114 C1137 0.950 . S
H1115 C1139 0.950 . S
H1116 C1140 0.950 . S
H1117 C1141 0.951 . S
H1118 C1143 0.951 . S
H1119 C1145 0.950 . S
H1120 C1146 0.950 . S
H1121 C1148 0.950 . S
H1122 C1151 0.950 . S
H1123 C1152 0.950 . S
H1124 C1154 0.950 . S
H1125 C1155 0.950 . S
C1126 H1108 0.951 . S
C1126 C1127 1.366 . S
C1126 C1128 1.388 . S
C1127 C1126 1.366 . S
C1127 C1131 1.385 . S
C1128 H1109 0.951 . S
C1128 C1126 1.388 . S
C1128 C1129 1.366 . S
C1129 C1128 1.366 . S
C1129 C1130 1.414 . S
C1129 C1132 1.499 . S
C1130 H1110 0.950 . S
C1130 C1129 1.414 . S
C1130 C1131 1.374 . S
C1131 H1111 0.950 . S
C1131 C1127 1.385 . S
C1131 C1130 1.374 . S
C1132 C1129 1.499 . S
C1132 C1133 1.373 . S
C1132 C1134 1.389 . S
C1133 H1112 0.950 . S
C1133 C1132 1.373 . S
C1133 C1149 1.377 . S
C1134 C1132 1.389 . S
C1134 C1135 1.524 . S
C1134 C1148 1.377 . S
C1135 C1134 1.524 . S
C1135 C1136 1.397 . S
C1135 C1140 1.363 . S
C1136 H1113 0.950 . S
C1136 C1135 1.397 . S
C1136 C1137 1.334 . S
C1137 H1114 0.950 . S
C1137 C1136 1.334 . S
C1137 C1138 1.287 . S
C1138 C1137 1.287 . S
C1138 C1139 1.524 . S
C1138 H1157 0.913 . S
C1139 H1115 0.950 . S
C1139 C1138 1.524 . S
C1139 C1140 1.415 . S
C1140 H1116 0.950 . S
C1140 C1135 1.363 . S
C1140 C1139 1.415 . S
C1141 H1117 0.951 . S
C1141 C1142 1.366 . S
C1141 C1143 1.388 . S
C1142 C1141 1.366 . S
C1142 C1146 1.385 . S
C1143 H1118 0.951 . S
C1143 C1141 1.388 . S
C1143 C1144 1.366 . S
C1144 C1143 1.366 . S
C1144 C1145 1.414 . S
C1144 C1147 1.499 . S
C1145 H1119 0.950 . S
C1145 C1144 1.414 . S
C1145 C1146 1.374 . S
C1146 H1120 0.950 . S
C1146 C1142 1.385 . S
C1146 C1145 1.374 . S
C1147 C1144 1.499 . S
C1147 C1148 1.373 . S
C1147 C1149 1.389 . S
C1148 H1121 0.950 . S
C1148 C1134 1.377 . S
C1148 C1147 1.373 . S
C1149 C1133 1.377 . S
C1149 C1147 1.389 . S
C1149 C1150 1.524 . S
C1150 C1149 1.524 . S
C1150 C1151 1.397 . S
C1150 C1155 1.363 . S
C1151 H1122 0.950 . S
C1151 C1150 1.397 . S
C1151 C1152 1.334 . S
C1152 H1123 0.950 . S
C1152 C1151 1.334 . S
C1152 C1153 1.287 . S
C1153 C1152 1.287 . S
C1153 C1154 1.524 . S
C1153 H1156 0.999 . S
C1154 H1124 0.950 . S
C1154 C1153 1.524 . S
C1154 C1155 1.415 . S
C1155 H1125 0.950 . S
C1155 C1150 1.363 . S
C1155 C1154 1.415 . S
H1156 C1153 0.999 . S
H1157 C1138 0.913 . S
H1158 C1176 0.951 . S
H1159 C1178 0.951 . S
H1160 C1180 0.950 1_655 S
H1161 C1181 0.950 . S
H1162 C1183 0.950 . S
H1163 C1186 0.950 . S
H1164 C1187 0.950 . S
H1165 C1189 0.950 . S
H1166 C1190 0.950 . S
H1167 C1191 0.951 . S
H1168 C1193 0.951 . S
H1169 C1195 0.950 1_455 S
H1170 C1196 0.950 . S
H1171 C1198 0.950 . S
H1172 C1201 0.950 . S
H1173 C1202 0.950 . S
H1174 C1204 0.950 . S
H1175 C1205 0.950 . S
C1176 H1158 0.951 . S
C1176 C1177 1.366 . S
C1176 C1178 1.388 . S
C1177 C1176 1.366 . S
C1177 C1181 1.385 . S
C1178 H1159 0.951 . S
C1178 C1176 1.388 . S
C1178 C1179 1.366 . S
C1179 C1178 1.366 . S
C1179 C1180 1.414 . S
C1179 C1182 1.499 . S
C1180 H1160 0.950 1_455 S
C1180 C1179 1.414 . S
C1180 C1181 1.374 . S
C1181 H1161 0.950 . S
C1181 C1177 1.385 . S
C1181 C1180 1.374 . S
C1182 C1179 1.499 . S
C1182 C1183 1.373 . S
C1182 C1184 1.389 . S
C1183 H1162 0.950 . S
C1183 C1182 1.373 . S
C1183 C1199 1.377 1_455 S
C1184 C1182 1.389 . S
C1184 C1185 1.524 . S
C1184 C1198 1.377 1_455 S
C1185 C1184 1.524 . S
C1185 C1186 1.397 1_455 S
C1185 C1190 1.363 . S
C1186 H1163 0.950 . S
C1186 C1185 1.397 1_655 S
C1186 C1187 1.334 . S
C1187 H1164 0.950 . S
C1187 C1186 1.334 . S
C1187 C1188 1.287 . S
C1188 C1187 1.287 . S
C1188 C1189 1.524 1_655 S
C1188 H1207 0.913 . S
C1189 H1165 0.950 . S
C1189 C1188 1.524 1_455 S
C1189 C1190 1.415 . S
C1190 H1166 0.950 . S
C1190 C1185 1.363 . S
C1190 C1189 1.415 . S
C1191 H1167 0.951 . S
C1191 C1192 1.366 . S
C1191 C1193 1.388 . S
C1192 C1191 1.366 . S
C1192 C1196 1.385 . S
C1193 H1168 0.951 . S
C1193 C1191 1.388 . S
C1193 C1194 1.366 . S
C1194 C1193 1.366 . S
C1194 C1195 1.414 . S
C1194 C1197 1.499 . S
C1195 H1169 0.950 1_655 S
C1195 C1194 1.414 . S
C1195 C1196 1.374 . S
C1196 H1170 0.950 . S
C1196 C1192 1.385 . S
C1196 C1195 1.374 . S
C1197 C1194 1.499 . S
C1197 C1198 1.373 . S
C1197 C1199 1.389 . S
C1198 H1171 0.950 . S
C1198 C1184 1.377 1_655 S
C1198 C1197 1.373 . S
C1199 C1183 1.377 1_655 S
C1199 C1197 1.389 . S
C1199 C1200 1.524 . S
C1200 C1199 1.524 . S
C1200 C1201 1.397 1_655 S
C1200 C1205 1.363 . S
C1201 H1172 0.950 . S
C1201 C1200 1.397 1_455 S
C1201 C1202 1.334 . S
C1202 H1173 0.950 . S
C1202 C1201 1.334 . S
C1202 C1203 1.287 . S
C1203 C1202 1.287 . S
C1203 C1204 1.524 1_455 S
C1203 H1206 0.999 . S
C1204 H1174 0.950 . S
C1204 C1203 1.524 1_655 S
C1204 C1205 1.415 . S
C1205 H1175 0.950 . S
C1205 C1200 1.363 . S
C1205 C1204 1.415 . S
H1206 C1203 0.999 . S
H1207 C1188 0.913 . S
H1208 C1226 0.951 . S
H1209 C1228 0.951 . S
H1210 C1230 0.950 1_655 S
H1211 C1231 0.950 . S
H1212 C1233 0.950 . S
H1213 C1236 0.950 . S
H1214 C1237 0.950 . S
H1215 C1239 0.950 . S
H1216 C1240 0.950 . S
H1217 C1241 0.951 . S
H1218 C1243 0.951 . S
H1219 C1245 0.950 1_455 S
H1220 C1246 0.950 . S
H1221 C1248 0.950 . S
H1222 C1251 0.950 . S
H1223 C1252 0.950 . S
H1224 C1254 0.950 . S
H1225 C1255 0.950 . S
C1226 H1208 0.951 . S
C1226 C1227 1.366 . S
C1226 C1228 1.388 . S
C1227 C1226 1.366 . S
C1227 C1231 1.385 . S
C1228 H1209 0.951 . S
C1228 C1226 1.388 . S
C1228 C1229 1.366 . S
C1229 C1228 1.366 . S
C1229 C1230 1.414 . S
C1229 C1232 1.499 . S
C1230 H1210 0.950 1_455 S
C1230 C1229 1.414 . S
C1230 C1231 1.374 . S
C1231 H1211 0.950 . S
C1231 C1227 1.385 . S
C1231 C1230 1.374 . S
C1232 C1229 1.499 . S
C1232 C1233 1.373 1_455 S
C1232 C1234 1.389 . S
C1233 H1212 0.950 . S
C1233 C1232 1.373 1_655 S
C1233 C1249 1.377 . S
C1234 C1232 1.389 . S
C1234 C1235 1.524 . S
C1234 C1248 1.377 . S
C1235 C1234 1.524 . S
C1235 C1236 1.397 . S
C1235 C1240 1.363 . S
C1236 H1213 0.950 . S
C1236 C1235 1.397 . S
C1236 C1237 1.334 . S
C1237 H1214 0.950 . S
C1237 C1236 1.334 . S
C1237 C1238 1.287 . S
C1238 C1237 1.287 . S
C1238 C1239 1.524 . S
C1238 H1257 0.913 . S
C1239 H1215 0.950 . S
C1239 C1238 1.524 . S
C1239 C1240 1.415 . S
C1240 H1216 0.950 . S
C1240 C1235 1.363 . S
C1240 C1239 1.415 . S
C1241 H1217 0.951 . S
C1241 C1242 1.366 . S
C1241 C1243 1.388 . S
C1242 C1241 1.366 . S
C1242 C1246 1.385 . S
C1243 H1218 0.951 . S
C1243 C1241 1.388 . S
C1243 C1244 1.366 . S
C1244 C1243 1.366 . S
C1244 C1245 1.414 . S
C1244 C1247 1.499 . S
C1245 H1219 0.950 1_655 S
C1245 C1244 1.414 . S
C1245 C1246 1.374 . S
C1246 H1220 0.950 . S
C1246 C1242 1.385 . S
C1246 C1245 1.374 . S
C1247 C1244 1.499 . S
C1247 C1248 1.373 1_655 S
C1247 C1249 1.389 . S
C1248 H1221 0.950 . S
C1248 C1234 1.377 . S
C1248 C1247 1.373 1_455 S
C1249 C1233 1.377 . S
C1249 C1247 1.389 . S
C1249 C1250 1.524 . S
C1250 C1249 1.524 . S
C1250 C1251 1.397 . S
C1250 C1255 1.363 . S
C1251 H1222 0.950 . S
C1251 C1250 1.397 . S
C1251 C1252 1.334 . S
C1252 H1223 0.950 . S
C1252 C1251 1.334 . S
C1252 C1253 1.287 . S
C1253 C1252 1.287 . S
C1253 C1254 1.524 . S
C1253 H1256 0.999 . S
C1254 H1224 0.950 . S
C1254 C1253 1.524 . S
C1254 C1255 1.415 . S
C1255 H1225 0.950 . S
C1255 C1250 1.363 . S
C1255 C1254 1.415 . S
H1256 C1253 0.999 . S
H1257 C1238 0.913 . S
H1258 C1276 0.951 . S
H1259 C1278 0.951 . S
H1260 C1280 0.950 . S
H1261 C1281 0.950 . S
H1262 C1283 0.950 . S
H1263 C1286 0.950 . S
H1264 C1287 0.950 . S
H1265 C1289 0.950 . S
H1266 C1290 0.950 . S
H1267 C1291 0.951 . S
H1268 C1293 0.951 . S
H1269 C1295 0.950 . S
H1270 C1296 0.950 . S
H1271 C1298 0.950 . S
H1272 C1301 0.950 . S
H1273 C1302 0.950 . S
H1274 C1304 0.950 . S
H1275 C1305 0.950 . S
C1276 H1258 0.951 . S
C1276 C1277 1.366 . S
C1276 C1278 1.388 . S
C1277 C1276 1.366 . S
C1277 C1281 1.385 . S
C1278 H1259 0.951 . S
C1278 C1276 1.388 . S
C1278 C1279 1.366 . S
C1279 C1278 1.366 . S
C1279 C1280 1.414 . S
C1279 C1282 1.499 . S
C1280 H1260 0.950 . S
C1280 C1279 1.414 . S
C1280 C1281 1.374 . S
C1281 H1261 0.950 . S
C1281 C1277 1.385 . S
C1281 C1280 1.374 . S
C1282 C1279 1.499 . S
C1282 C1283 1.373 . S
C1282 C1284 1.389 . S
C1283 H1262 0.950 . S
C1283 C1282 1.373 . S
C1283 C1299 1.377 . S
C1284 C1282 1.389 . S
C1284 C1285 1.524 . S
C1284 C1298 1.377 . S
C1285 C1284 1.524 . S
C1285 C1286 1.397 . S
C1285 C1290 1.363 . S
C1286 H1263 0.950 . S
C1286 C1285 1.397 . S
C1286 C1287 1.334 . S
C1287 H1264 0.950 . S
C1287 C1286 1.334 . S
C1287 C1288 1.287 . S
C1288 C1287 1.287 . S
C1288 C1289 1.524 . S
C1288 H1307 0.913 . S
C1289 H1265 0.950 . S
C1289 C1288 1.524 . S
C1289 C1290 1.415 . S
C1290 H1266 0.950 . S
C1290 C1285 1.363 . S
C1290 C1289 1.415 . S
C1291 H1267 0.951 . S
C1291 C1292 1.366 . S
C1291 C1293 1.388 . S
C1292 C1291 1.366 . S
C1292 C1296 1.385 . S
C1293 H1268 0.951 . S
C1293 C1291 1.388 . S
C1293 C1294 1.366 . S
C1294 C1293 1.366 . S
C1294 C1295 1.414 . S
C1294 C1297 1.499 . S
C1295 H1269 0.950 . S
C1295 C1294 1.414 . S
C1295 C1296 1.374 . S
C1296 H1270 0.950 . S
C1296 C1292 1.385 . S
C1296 C1295 1.374 . S
C1297 C1294 1.499 . S
C1297 C1298 1.373 . S
C1297 C1299 1.389 . S
C1298 H1271 0.950 . S
C1298 C1284 1.377 . S
C1298 C1297 1.373 . S
C1299 C1283 1.377 . S
C1299 C1297 1.389 . S
C1299 C1300 1.524 . S
C1300 C1299 1.524 . S
C1300 C1301 1.397 . S
C1300 C1305 1.363 . S
C1301 H1272 0.950 . S
C1301 C1300 1.397 . S
C1301 C1302 1.334 . S
C1302 H1273 0.950 . S
C1302 C1301 1.334 . S
C1302 C1303 1.287 . S
C1303 C1302 1.287 . S
C1303 C1304 1.524 . S
C1303 H1306 0.999 . S
C1304 H1274 0.950 . S
C1304 C1303 1.524 . S
C1304 C1305 1.415 . S
C1305 H1275 0.950 . S
C1305 C1300 1.363 . S
C1305 C1304 1.415 . S
H1306 C1303 0.999 . S
H1307 C1288 0.913 . S
H1308 C1326 0.951 . S
H1309 C1328 0.951 . S
H1310 C1330 0.950 . S
H1311 C1331 0.950 . S
H1312 C1333 0.950 . S
H1313 C1336 0.950 . S
H1314 C1337 0.950 . S
H1315 C1339 0.950 . S
H1316 C1340 0.950 . S
H1317 C1341 0.951 . S
H1318 C1343 0.951 . S
H1319 C1345 0.950 . S
H1320 C1346 0.950 . S
H1321 C1348 0.950 . S
H1322 C1351 0.950 . S
H1323 C1352 0.950 . S
H1324 C1354 0.950 . S
H1325 C1355 0.950 . S
C1326 H1308 0.951 . S
C1326 C1327 1.366 . S
C1326 C1328 1.388 . S
C1327 C1326 1.366 . S
C1327 C1331 1.385 . S
C1328 H1309 0.951 . S
C1328 C1326 1.388 . S
C1328 C1329 1.366 . S
C1329 C1328 1.366 . S
C1329 C1330 1.414 . S
C1329 C1332 1.499 . S
C1330 H1310 0.950 . S
C1330 C1329 1.414 . S
C1330 C1331 1.374 . S
C1331 H1311 0.950 . S
C1331 C1327 1.385 . S
C1331 C1330 1.374 . S
C1332 C1329 1.499 . S
C1332 C1333 1.373 . S
C1332 C1334 1.389 . S
C1333 H1312 0.950 . S
C1333 C1332 1.373 . S
C1333 C1349 1.377 . S
C1334 C1332 1.389 . S
C1334 C1335 1.524 . S
C1334 C1348 1.377 . S
C1335 C1334 1.524 . S
C1335 C1336 1.397 . S
C1335 C1340 1.363 . S
C1336 H1313 0.950 . S
C1336 C1335 1.397 . S
C1336 C1337 1.334 . S
C1337 H1314 0.950 . S
C1337 C1336 1.334 . S
C1337 C1338 1.287 . S
C1338 C1337 1.287 . S
C1338 C1339 1.524 . S
C1338 H1357 0.913 . S
C1339 H1315 0.950 . S
C1339 C1338 1.524 . S
C1339 C1340 1.415 . S
C1340 H1316 0.950 . S
C1340 C1335 1.363 . S
C1340 C1339 1.415 . S
C1341 H1317 0.951 . S
C1341 C1342 1.366 . S
C1341 C1343 1.388 . S
C1342 C1341 1.366 . S
C1342 C1346 1.385 . S
C1343 H1318 0.951 . S
C1343 C1341 1.388 . S
C1343 C1344 1.366 . S
C1344 C1343 1.366 . S
C1344 C1345 1.414 . S
C1344 C1347 1.499 . S
C1345 H1319 0.950 . S
C1345 C1344 1.414 . S
C1345 C1346 1.374 . S
C1346 H1320 0.950 . S
C1346 C1342 1.385 . S
C1346 C1345 1.374 . S
C1347 C1344 1.499 . S
C1347 C1348 1.373 . S
C1347 C1349 1.389 . S
C1348 H1321 0.950 . S
C1348 C1334 1.377 . S
C1348 C1347 1.373 . S
C1349 C1333 1.377 . S
C1349 C1347 1.389 . S
C1349 C1350 1.524 . S
C1350 C1349 1.524 . S
C1350 C1351 1.397 . S
C1350 C1355 1.363 . S
C1351 H1322 0.950 . S
C1351 C1350 1.397 . S
C1351 C1352 1.334 . S
C1352 H1323 0.950 . S
C1352 C1351 1.334 . S
C1352 C1353 1.287 . S
C1353 C1352 1.287 . S
C1353 C1354 1.524 . S
C1353 H1356 0.999 . S
C1354 H1324 0.950 . S
C1354 C1353 1.524 . S
C1354 C1355 1.415 . S
C1355 H1325 0.950 . S
C1355 C1350 1.363 . S
C1355 C1354 1.415 . S
H1356 C1353 0.999 . S
H1357 C1338 0.913 . S
H1358 C1376 0.951 . S
H1359 C1378 0.951 . S
H1360 C1380 0.950 1_655 S
H1361 C1381 0.950 . S
H1362 C1383 0.950 . S
H1363 C1386 0.950 . S
H1364 C1387 0.950 . S
H1365 C1389 0.950 . S
H1366 C1390 0.950 . S
H1367 C1391 0.951 . S
H1368 C1393 0.951 . S
H1369 C1395 0.950 1_455 S
H1370 C1396 0.950 . S
H1371 C1398 0.950 . S
H1372 C1401 0.950 . S
H1373 C1402 0.950 . S
H1374 C1404 0.950 . S
H1375 C1405 0.950 . S
C1376 H1358 0.951 . S
C1376 C1377 1.366 . S
C1376 C1378 1.388 . S
C1377 C1376 1.366 . S
C1377 C1381 1.385 . S
C1378 H1359 0.951 . S
C1378 C1376 1.388 . S
C1378 C1379 1.366 . S
C1379 C1378 1.366 . S
C1379 C1380 1.414 . S
C1379 C1382 1.499 . S
C1380 H1360 0.950 1_455 S
C1380 C1379 1.414 . S
C1380 C1381 1.374 . S
C1381 H1361 0.950 . S
C1381 C1377 1.385 . S
C1381 C1380 1.374 . S
C1382 C1379 1.499 . S
C1382 C1383 1.373 . S
C1382 C1384 1.389 . S
C1383 H1362 0.950 . S
C1383 C1382 1.373 . S
C1383 C1399 1.377 1_455 S
C1384 C1382 1.389 . S
C1384 C1385 1.524 . S
C1384 C1398 1.377 1_455 S
C1385 C1384 1.524 . S
C1385 C1386 1.397 1_455 S
C1385 C1390 1.363 . S
C1386 H1363 0.950 . S
C1386 C1385 1.397 1_655 S
C1386 C1387 1.334 . S
C1387 H1364 0.950 . S
C1387 C1386 1.334 . S
C1387 C1388 1.287 1_655 S
C1388 C1387 1.287 1_455 S
C1388 C1389 1.524 . S
C1388 H1407 0.913 . S
C1389 H1365 0.950 . S
C1389 C1388 1.524 . S
C1389 C1390 1.415 . S
C1390 H1366 0.950 . S
C1390 C1385 1.363 . S
C1390 C1389 1.415 . S
C1391 H1367 0.951 . S
C1391 C1392 1.366 . S
C1391 C1393 1.388 . S
C1392 C1391 1.366 . S
C1392 C1396 1.385 . S
C1393 H1368 0.951 . S
C1393 C1391 1.388 . S
C1393 C1394 1.366 . S
C1394 C1393 1.366 . S
C1394 C1395 1.414 . S
C1394 C1397 1.499 . S
C1395 H1369 0.950 1_655 S
C1395 C1394 1.414 . S
C1395 C1396 1.374 . S
C1396 H1370 0.950 . S
C1396 C1392 1.385 . S
C1396 C1395 1.374 . S
C1397 C1394 1.499 . S
C1397 C1398 1.373 . S
C1397 C1399 1.389 . S
C1398 H1371 0.950 . S
C1398 C1384 1.377 1_655 S
C1398 C1397 1.373 . S
C1399 C1383 1.377 1_655 S
C1399 C1397 1.389 . S
C1399 C1400 1.524 . S
C1400 C1399 1.524 . S
C1400 C1401 1.397 1_655 S
C1400 C1405 1.363 . S
C1401 H1372 0.950 . S
C1401 C1400 1.397 1_455 S
C1401 C1402 1.334 . S
C1402 H1373 0.950 . S
C1402 C1401 1.334 . S
C1402 C1403 1.287 1_455 S
C1403 C1402 1.287 1_655 S
C1403 C1404 1.524 . S
C1403 H1406 0.999 . S
C1404 H1374 0.950 . S
C1404 C1403 1.524 . S
C1404 C1405 1.415 . S
C1405 H1375 0.950 . S
C1405 C1400 1.363 . S
C1405 C1404 1.415 . S
H1406 C1403 0.999 . S
H1407 C1388 0.913 . S
H1408 C1426 0.951 . S
H1409 C1428 0.951 . S
H1410 C1430 0.950 1_455 S
H1411 C1431 0.950 1_455 S
H1412 C1433 0.950 . S
H1413 C1436 0.950 . S
H1414 C1437 0.950 . S
H1415 C1439 0.950 . S
H1416 C1440 0.950 1_554 S
H1417 C1441 0.951 . S
H1418 C1443 0.951 . S
H1419 C1445 0.950 1_655 S
H1420 C1446 0.950 1_655 S
H1421 C1448 0.950 . S
H1422 C1451 0.950 . S
H1423 C1452 0.950 . S
H1424 C1454 0.950 . S
H1425 C1455 0.950 1_556 S
C1426 H1408 0.951 . S
C1426 C1427 1.366 . S
C1426 C1428 1.388 . S
C1427 C1426 1.366 . S
C1427 C1431 1.385 . S
C1428 H1409 0.951 . S
C1428 C1426 1.388 . S
C1428 C1429 1.366 . S
C1429 C1428 1.366 . S
C1429 C1430 1.414 . S
C1429 C1432 1.499 . S
C1430 H1410 0.950 1_655 S
C1430 C1429 1.414 . S
C1430 C1431 1.374 . S
C1431 H1411 0.950 1_655 S
C1431 C1427 1.385 . S
C1431 C1430 1.374 . S
C1432 C1429 1.499 . S
C1432 C1433 1.373 1_655 S
C1432 C1434 1.389 1_565 S
C1433 H1412 0.950 . S
C1433 C1432 1.373 1_455 S
C1433 C1449 1.377 1_556 S
C1434 C1432 1.389 1_545 S
C1434 C1435 1.524 . S
C1434 C1448 1.377 1_556 S
C1435 C1434 1.524 . S
C1435 C1436 1.397 . S
C1435 C1440 1.363 . S
C1436 H1413 0.950 . S
C1436 C1435 1.397 . S
C1436 C1437 1.334 . S
C1437 H1414 0.950 . S
C1437 C1436 1.334 . S
C1437 C1438 1.287 . S
C1438 C1437 1.287 . S
C1438 C1439 1.524 . S
C1438 H1457 0.913 . S
C1439 H1415 0.950 . S
C1439 C1438 1.524 . S
C1439 C1440 1.415 . S
C1440 H1416 0.950 1_556 S
C1440 C1435 1.363 . S
C1440 C1439 1.415 . S
C1441 H1417 0.951 . S
C1441 C1442 1.366 . S
C1441 C1443 1.388 . S
C1442 C1441 1.366 . S
C1442 C1446 1.385 . S
C1443 H1418 0.951 . S
C1443 C1441 1.388 . S
C1443 C1444 1.366 . S
C1444 C1443 1.366 . S
C1444 C1445 1.414 . S
C1444 C1447 1.499 . S
C1445 H1419 0.950 1_455 S
C1445 C1444 1.414 . S
C1445 C1446 1.374 . S
C1446 H1420 0.950 1_455 S
C1446 C1442 1.385 . S
C1446 C1445 1.374 . S
C1447 C1444 1.499 . S
C1447 C1448 1.373 1_455 S
C1447 C1449 1.389 1_545 S
C1448 H1421 0.950 . S
C1448 C1434 1.377 1_554 S
C1448 C1447 1.373 1_655 S
C1449 C1433 1.377 1_554 S
C1449 C1447 1.389 1_565 S
C1449 C1450 1.524 . S
C1450 C1449 1.524 . S
C1450 C1451 1.397 . S
C1450 C1455 1.363 . S
C1451 H1422 0.950 . S
C1451 C1450 1.397 . S
C1451 C1452 1.334 . S
C1452 H1423 0.950 . S
C1452 C1451 1.334 . S
C1452 C1453 1.287 . S
C1453 C1452 1.287 . S
C1453 C1454 1.524 . S
C1453 H1456 0.999 . S
C1454 H1424 0.950 . S
C1454 C1453 1.524 . S
C1454 C1455 1.415 . S
C1455 H1425 0.950 1_554 S
C1455 C1450 1.363 . S
C1455 C1454 1.415 . S
H1456 C1453 0.999 . S
H1457 C1438 0.913 . S
H1458 C1476 0.951 1_565 S
H1459 C1478 0.964 . S
H1460 C1480 0.950 . S
H1461 C1481 0.950 . S
H1462 C1483 0.950 . S
H1463 C1486 0.978 . S
H1464 C1487 0.950 1_545 S
H1465 C1489 0.950 . S
H1466 C1490 0.950 . S
H1467 C1491 0.951 1_545 S
H1468 C1493 0.964 . S
H1469 C1495 0.950 . S
H1470 C1496 0.950 . S
H1471 C1498 0.950 . S
H1472 C1501 0.978 . S
H1473 C1502 0.950 1_565 S
H1474 C1504 0.950 . S
H1475 C1505 0.950 . S
C1476 H1458 0.951 1_545 S
C1476 C1477 1.366 . S
C1476 C1478 1.384 1_545 S
C1477 C1476 1.366 . S
C1477 C1481 1.385 . S
C1478 H1459 0.964 . S
C1478 C1476 1.384 1_565 S
C1478 C1479 1.357 1_565 S
C1479 C1478 1.357 1_545 S
C1479 C1480 1.414 . S
C1479 C1482 1.499 . S
C1480 H1460 0.950 . S
C1480 C1479 1.414 . S
C1480 C1481 1.374 . S
C1481 H1461 0.950 . S
C1481 C1477 1.385 . S
C1481 C1480 1.374 . S
C1482 C1479 1.499 . S
C1482 C1483 1.373 . S
C1482 C1484 1.389 1_545 S
C1483 H1462 0.950 . S
C1483 C1482 1.373 . S
C1483 C1499 1.377 1_556 S
C1484 C1482 1.389 1_565 S
C1484 C1485 1.524 . S
C1484 C1498 1.377 1_556 S
C1485 C1484 1.524 . S
C1485 C1486 1.376 1_565 S
C1485 C1490 1.363 . S
C1486 H1463 0.978 . S
C1486 C1485 1.376 1_545 S
C1486 C1487 1.327 1_545 S
C1487 H1464 0.950 1_565 S
C1487 C1486 1.327 1_565 S
C1487 C1488 1.287 . S
C1488 C1487 1.287 . S
C1488 C1489 1.524 . S
C1488 H1507 0.913 . S
C1489 H1465 0.950 . S
C1489 C1488 1.524 . S
C1489 C1490 1.415 . S
C1490 H1466 0.950 . S
C1490 C1485 1.363 . S
C1490 C1489 1.415 . S
C1491 H1467 0.951 1_565 S
C1491 C1492 1.366 . S
C1491 C1493 1.384 1_565 S
C1492 C1491 1.366 . S
C1492 C1496 1.385 . S
C1493 H1468 0.964 . S
C1493 C1491 1.384 1_545 S
C1493 C1494 1.357 1_545 S
C1494 C1493 1.357 1_565 S
C1494 C1495 1.414 . S
C1494 C1497 1.499 . S
C1495 H1469 0.950 . S
C1495 C1494 1.414 . S
C1495 C1496 1.374 . S
C1496 H1470 0.950 . S
C1496 C1492 1.385 . S
C1496 C1495 1.374 . S
C1497 C1494 1.499 . S
C1497 C1498 1.373 . S
C1497 C1499 1.389 1_565 S
C1498 H1471 0.950 . S
C1498 C1484 1.377 1_554 S
C1498 C1497 1.373 . S
C1499 C1483 1.377 1_554 S
C1499 C1497 1.389 1_545 S
C1499 C1500 1.524 . S
C1500 C1499 1.524 . S
C1500 C1501 1.376 1_545 S
C1500 C1505 1.363 . S
C1501 H1472 0.978 . S
C1501 C1500 1.376 1_565 S
C1501 C1502 1.327 1_565 S
C1502 H1473 0.950 1_545 S
C1502 C1501 1.327 1_545 S
C1502 C1503 1.287 . S
C1503 C1502 1.287 . S
C1503 C1504 1.524 . S
C1503 H1506 0.999 . S
C1504 H1474 0.950 . S
C1504 C1503 1.524 . S
C1504 C1505 1.415 . S
C1505 H1475 0.950 . S
C1505 C1500 1.363 . S
C1505 C1504 1.415 . S
H1506 C1503 0.999 . S
H1507 C1488 0.913 . S
H1508 C1526 0.951 1_565 S
H1509 C1528 0.963 . S
H1510 C1530 0.950 . S
H1511 C1531 0.950 . S
H1512 C1533 0.950 . S
H1513 C1536 0.950 1_545 S
H1514 C1537 0.950 . S
H1515 C1539 0.950 . S
H1516 C1540 0.950 . S
H1517 C1541 0.951 1_545 S
H1518 C1543 0.963 . S
H1519 C1545 0.950 . S
H1520 C1546 0.950 . S
H1521 C1548 0.950 . S
H1522 C1551 0.950 1_565 S
H1523 C1552 0.950 . S
H1524 C1554 0.950 . S
H1525 C1555 0.950 . S
C1526 H1508 0.951 1_545 S
C1526 C1527 1.366 . S
C1526 C1528 1.384 1_545 S
C1527 C1526 1.366 . S
C1527 C1531 1.385 . S
C1528 H1509 0.963 . S
C1528 C1526 1.384 1_565 S
C1528 C1529 1.357 1_565 S
C1529 C1528 1.357 1_545 S
C1529 C1530 1.414 . S
C1529 C1532 1.499 . S
C1530 H1510 0.950 . S
C1530 C1529 1.414 . S
C1530 C1531 1.374 . S
C1531 H1511 0.950 . S
C1531 C1527 1.385 . S
C1531 C1530 1.374 . S
C1532 C1529 1.499 . S
C1532 C1533 1.373 . S
C1532 C1534 1.389 1_545 S
C1533 H1512 0.950 . S
C1533 C1532 1.373 . S
C1533 C1549 1.377 . S
C1534 C1532 1.389 1_565 S
C1534 C1535 1.524 . S
C1534 C1548 1.377 . S
C1535 C1534 1.524 . S
C1535 C1536 1.397 . S
C1535 C1540 1.363 . S
C1536 H1513 0.950 1_565 S
C1536 C1535 1.397 . S
C1536 C1537 1.334 . S
C1537 H1514 0.950 . S
C1537 C1536 1.334 . S
C1537 C1538 1.287 . S
C1538 C1537 1.287 . S
C1538 C1539 1.524 . S
C1538 H1557 0.913 . S
C1539 H1515 0.950 . S
C1539 C1538 1.524 . S
C1539 C1540 1.415 . S
C1540 H1516 0.950 . S
C1540 C1535 1.363 . S
C1540 C1539 1.415 . S
C1541 H1517 0.951 1_565 S
C1541 C1542 1.366 . S
C1541 C1543 1.384 1_565 S
C1542 C1541 1.366 . S
C1542 C1546 1.385 . S
C1543 H1518 0.963 . S
C1543 C1541 1.384 1_545 S
C1543 C1544 1.357 1_545 S
C1544 C1543 1.357 1_565 S
C1544 C1545 1.414 . S
C1544 C1547 1.499 . S
C1545 H1519 0.950 . S
C1545 C1544 1.414 . S
C1545 C1546 1.374 . S
C1546 H1520 0.950 . S
C1546 C1542 1.385 . S
C1546 C1545 1.374 . S
C1547 C1544 1.499 . S
C1547 C1548 1.373 . S
C1547 C1549 1.389 1_565 S
C1548 H1521 0.950 . S
C1548 C1534 1.377 . S
C1548 C1547 1.373 . S
C1549 C1533 1.377 . S
C1549 C1547 1.389 1_545 S
C1549 C1550 1.524 . S
C1550 C1549 1.524 . S
C1550 C1551 1.397 . S
C1550 C1555 1.363 . S
C1551 H1522 0.950 1_545 S
C1551 C1550 1.397 . S
C1551 C1552 1.334 . S
C1552 H1523 0.950 . S
C1552 C1551 1.334 . S
C1552 C1553 1.287 . S
C1553 C1552 1.287 . S
C1553 C1554 1.524 . S
C1553 H1556 0.999 . S
C1554 H1524 0.950 . S
C1554 C1553 1.524 . S
C1554 C1555 1.415 . S
C1555 H1525 0.950 . S
C1555 C1550 1.363 . S
C1555 C1554 1.415 . S
H1556 C1553 0.999 . S
H1557 C1538 0.913 . S
H1558 C1576 0.951 . S
H1559 C1578 0.951 1_655 S
H1560 C1580 0.950 . S
H1561 C1581 0.950 . S
H1562 C1583 0.950 . S
H1563 C1586 0.950 . S
H1564 C1587 0.950 . S
H1565 C1589 0.950 . S
H1566 C1590 0.950 . S
H1567 C1591 0.951 . S
H1568 C1593 0.951 1_455 S
H1569 C1595 0.950 . S
H1570 C1596 0.950 . S
H1571 C1598 0.950 . S
H1572 C1601 0.950 . S
H1573 C1602 0.950 . S
H1574 C1604 0.950 . S
H1575 C1605 0.950 . S
C1576 H1558 0.951 . S
C1576 C1577 1.366 . S
C1576 C1578 1.388 . S
C1577 C1576 1.366 . S
C1577 C1581 1.385 . S
C1578 H1559 0.951 1_455 S
C1578 C1576 1.388 . S
C1578 C1579 1.366 . S
C1579 C1578 1.366 . S
C1579 C1580 1.414 . S
C1579 C1582 1.499 . S
C1580 H1560 0.950 . S
C1580 C1579 1.414 . S
C1580 C1581 1.374 . S
C1581 H1561 0.950 . S
C1581 C1577 1.385 . S
C1581 C1580 1.374 . S
C1582 C1579 1.499 . S
C1582 C1583 1.373 1_565 S
C1582 C1584 1.389 1_455 S
C1583 H1562 0.950 . S
C1583 C1582 1.373 1_545 S
C1583 C1599 1.377 . S
C1584 C1582 1.389 1_655 S
C1584 C1585 1.524 . S
C1584 C1598 1.377 . S
C1585 C1584 1.524 . S
C1585 C1586 1.397 . S
C1585 C1590 1.363 . S
C1586 H1563 0.950 . S
C1586 C1585 1.397 . S
C1586 C1587 1.334 . S
C1587 H1564 0.950 . S
C1587 C1586 1.334 . S
C1587 C1588 1.287 . S
C1588 C1587 1.287 . S
C1588 C1589 1.524 . S
C1588 H1607 0.913 . S
C1589 H1565 0.950 . S
C1589 C1588 1.524 . S
C1589 C1590 1.415 . S
C1590 H1566 0.950 . S
C1590 C1585 1.363 . S
C1590 C1589 1.415 . S
C1591 H1567 0.951 . S
C1591 C1592 1.366 . S
C1591 C1593 1.388 . S
C1592 C1591 1.366 . S
C1592 C1596 1.385 . S
C1593 H1568 0.951 1_655 S
C1593 C1591 1.388 . S
C1593 C1594 1.366 . S
C1594 C1593 1.366 . S
C1594 C1595 1.414 . S
C1594 C1597 1.499 . S
C1595 H1569 0.950 . S
C1595 C1594 1.414 . S
C1595 C1596 1.374 . S
C1596 H1570 0.950 . S
C1596 C1592 1.385 . S
C1596 C1595 1.374 . S
C1597 C1594 1.499 . S
C1597 C1598 1.373 1_545 S
C1597 C1599 1.389 1_655 S
C1598 H1571 0.950 . S
C1598 C1584 1.377 . S
C1598 C1597 1.373 1_565 S
C1599 C1583 1.377 . S
C1599 C1597 1.389 1_455 S
C1599 C1600 1.524 . S
C1600 C1599 1.524 . S
C1600 C1601 1.397 . S
C1600 C1605 1.363 . S
C1601 H1572 0.950 . S
C1601 C1600 1.397 . S
C1601 C1602 1.334 . S
C1602 H1573 0.950 . S
C1602 C1601 1.334 . S
C1602 C1603 1.287 . S
C1603 C1602 1.287 . S
C1603 C1604 1.524 . S
C1603 H1606 0.999 . S
C1604 H1574 0.950 . S
C1604 C1603 1.524 . S
C1604 C1605 1.415 . S
C1605 H1575 0.950 . S
C1605 C1600 1.363 . S
C1605 C1604 1.415 . S
H1606 C1603 0.999 . S
H1607 C1588 0.913 . S
H1608 C1626 0.951 . S
H1609 C1628 0.951 . S
H1610 C1630 0.950 . S
H1611 C1631 0.950 . S
H1612 C1633 0.950 . S
H1613 C1636 0.950 . S
H1614 C1637 0.950 . S
H1615 C1639 0.950 . S
H1616 C1640 0.950 . S
H1617 C1641 0.951 . S
H1618 C1643 0.951 . S
H1619 C1645 0.950 . S
H1620 C1646 0.950 . S
H1621 C1648 0.950 . S
H1622 C1651 0.950 . S
H1623 C1652 0.950 . S
H1624 C1654 0.950 . S
H1625 C1655 0.950 . S
C1626 H1608 0.951 . S
C1626 C1627 1.366 . S
C1626 C1628 1.388 . S
C1627 C1626 1.366 . S
C1627 C1631 1.385 . S
C1628 H1609 0.951 . S
C1628 C1626 1.388 . S
C1628 C1629 1.366 . S
C1629 C1628 1.366 . S
C1629 C1630 1.414 . S
C1629 C1632 1.499 . S
C1630 H1610 0.950 . S
C1630 C1629 1.414 . S
C1630 C1631 1.374 . S
C1631 H1611 0.950 . S
C1631 C1627 1.385 . S
C1631 C1630 1.374 . S
C1632 C1629 1.499 . S
C1632 C1633 1.373 . S
C1632 C1634 1.389 . S
C1633 H1612 0.950 . S
C1633 C1632 1.373 . S
C1633 C1649 1.377 1_554 S
C1634 C1632 1.389 . S
C1634 C1635 1.524 . S
C1634 C1648 1.377 1_554 S
C1635 C1634 1.524 . S
C1635 C1636 1.397 . S
C1635 C1640 1.363 . S
C1636 H1613 0.950 . S
C1636 C1635 1.397 . S
C1636 C1637 1.334 . S
C1637 H1614 0.950 . S
C1637 C1636 1.334 . S
C1637 C1638 1.287 . S
C1638 C1637 1.287 . S
C1638 C1639 1.524 . S
C1638 H1657 0.913 . S
C1639 H1615 0.950 . S
C1639 C1638 1.524 . S
C1639 C1640 1.415 . S
C1640 H1616 0.950 . S
C1640 C1635 1.363 . S
C1640 C1639 1.415 . S
C1641 H1617 0.951 . S
C1641 C1642 1.366 . S
C1641 C1643 1.388 . S
C1642 C1641 1.366 . S
C1642 C1646 1.385 . S
C1643 H1618 0.951 . S
C1643 C1641 1.388 . S
C1643 C1644 1.366 . S
C1644 C1643 1.366 . S
C1644 C1645 1.414 . S
C1644 C1647 1.499 . S
C1645 H1619 0.950 . S
C1645 C1644 1.414 . S
C1645 C1646 1.374 . S
C1646 H1620 0.950 . S
C1646 C1642 1.385 . S
C1646 C1645 1.374 . S
C1647 C1644 1.499 . S
C1647 C1648 1.373 . S
C1647 C1649 1.389 . S
C1648 H1621 0.950 . S
C1648 C1634 1.377 1_556 S
C1648 C1647 1.373 . S
C1649 C1633 1.377 1_556 S
C1649 C1647 1.389 . S
C1649 C1650 1.524 . S
C1650 C1649 1.524 . S
C1650 C1651 1.397 . S
C1650 C1655 1.363 . S
C1651 H1622 0.950 . S
C1651 C1650 1.397 . S
C1651 C1652 1.334 . S
C1652 H1623 0.950 . S
C1652 C1651 1.334 . S
C1652 C1653 1.287 . S
C1653 C1652 1.287 . S
C1653 C1654 1.524 . S
C1653 H1656 0.999 . S
C1654 H1624 0.950 . S
C1654 C1653 1.524 . S
C1654 C1655 1.415 . S
C1655 H1625 0.950 . S
C1655 C1650 1.363 . S
C1655 C1654 1.415 . S
H1656 C1653 0.999 . S
H1657 C1638 0.913 . S
H1658 C1676 0.951 . S
H1659 C1678 0.951 . S
H1660 C1680 0.950 1_455 S
H1661 C1681 0.950 . S
H1662 C1683 0.950 . S
H1663 C1686 0.950 . S
H1664 C1687 0.950 . S
H1665 C1689 0.947 1_655 S
H1666 C1690 0.950 . S
H1667 C1691 0.951 . S
H1668 C1693 0.951 . S
H1669 C1695 0.950 1_655 S
H1670 C1696 0.950 . S
H1671 C1698 0.950 . S
H1672 C1701 0.950 . S
H1673 C1702 0.950 . S
H1674 C1704 0.947 1_455 S
H1675 C1705 0.950 . S
C1676 H1658 0.951 . S
C1676 C1677 1.366 . S
C1676 C1678 1.388 . S
C1677 C1676 1.366 . S
C1677 C1681 1.385 . S
C1678 H1659 0.951 . S
C1678 C1676 1.388 . S
C1678 C1679 1.366 . S
C1679 C1678 1.366 . S
C1679 C1680 1.414 . S
C1679 C1682 1.499 . S
C1680 H1660 0.950 1_655 S
C1680 C1679 1.414 . S
C1680 C1681 1.374 . S
C1681 H1661 0.950 . S
C1681 C1677 1.385 . S
C1681 C1680 1.374 . S
C1682 C1679 1.499 . S
C1682 C1683 1.373 . S
C1682 C1684 1.389 1_655 S
C1683 H1662 0.950 . S
C1683 C1682 1.373 . S
C1683 C1699 1.377 1_554 S
C1684 C1682 1.389 1_455 S
C1684 C1685 1.524 . S
C1684 C1698 1.377 1_554 S
C1685 C1684 1.524 . S
C1685 C1686 1.397 . S
C1685 C1690 1.363 1_454 S
C1686 H1663 0.950 . S
C1686 C1685 1.397 . S
C1686 C1687 1.334 . S
C1687 H1664 0.950 . S
C1687 C1686 1.334 . S
C1687 C1688 1.287 . S
C1688 C1687 1.287 . S
C1688 C1689 1.528 1_554 S
C1688 H1707 0.913 . S
C1689 H1665 0.947 1_455 S
C1689 C1688 1.528 1_556 S
C1689 C1690 1.414 1_455 S
C1690 H1666 0.950 . S
C1690 C1685 1.363 1_656 S
C1690 C1689 1.414 1_655 S
C1691 H1667 0.951 . S
C1691 C1692 1.366 . S
C1691 C1693 1.388 . S
C1692 C1691 1.366 . S
C1692 C1696 1.385 . S
C1693 H1668 0.951 . S
C1693 C1691 1.388 . S
C1693 C1694 1.366 . S
C1694 C1693 1.366 . S
C1694 C1695 1.414 . S
C1694 C1697 1.499 . S
C1695 H1669 0.950 1_455 S
C1695 C1694 1.414 . S
C1695 C1696 1.374 . S
C1696 H1670 0.950 . S
C1696 C1692 1.385 . S
C1696 C1695 1.374 . S
C1697 C1694 1.499 . S
C1697 C1698 1.373 . S
C1697 C1699 1.389 1_455 S
C1698 H1671 0.950 . S
C1698 C1684 1.377 1_556 S
C1698 C1697 1.373 . S
C1699 C1683 1.377 1_556 S
C1699 C1697 1.389 1_655 S
C1699 C1700 1.524 . S
C1700 C1699 1.524 . S
C1700 C1701 1.397 . S
C1700 C1705 1.363 1_656 S
C1701 H1672 0.950 . S
C1701 C1700 1.397 . S
C1701 C1702 1.334 . S
C1702 H1673 0.950 . S
C1702 C1701 1.334 . S
C1702 C1703 1.287 . S
C1703 C1702 1.287 . S
C1703 C1704 1.528 1_556 S
C1703 H1706 0.999 . S
C1704 H1674 0.947 1_655 S
C1704 C1703 1.528 1_554 S
C1704 C1705 1.414 1_655 S
C1705 H1675 0.950 . S
C1705 C1700 1.363 1_454 S
C1705 C1704 1.414 1_455 S
H1706 C1703 0.999 . S
H1707 C1688 0.913 . S
H1708 C1726 0.951 . S
H1709 C1728 0.951 . S
H1710 C1730 0.950 . S
H1711 C1731 0.950 . S
H1712 C1733 0.950 . S
H1713 C1736 0.950 . S
H1714 C1737 0.950 . S
H1715 C1739 0.950 . S
H1716 C1740 0.950 . S
H1717 C1741 0.951 . S
H1718 C1743 0.951 . S
H1719 C1745 0.950 . S
H1720 C1746 0.950 . S
H1721 C1748 0.950 . S
H1722 C1751 0.950 . S
H1723 C1752 0.950 . S
H1724 C1754 0.950 . S
H1725 C1755 0.950 . S
C1726 H1708 0.951 . S
C1726 C1727 1.366 . S
C1726 C1728 1.388 . S
C1727 C1726 1.366 . S
C1727 C1731 1.385 . S
C1728 H1709 0.951 . S
C1728 C1726 1.388 . S
C1728 C1729 1.366 . S
C1729 C1728 1.366 . S
C1729 C1730 1.414 . S
C1729 C1732 1.499 . S
C1730 H1710 0.950 . S
C1730 C1729 1.414 . S
C1730 C1731 1.374 . S
C1731 H1711 0.950 . S
C1731 C1727 1.385 . S
C1731 C1730 1.374 . S
C1732 C1729 1.499 . S
C1732 C1733 1.373 1_655 S
C1732 C1734 1.389 . S
C1733 H1712 0.950 . S
C1733 C1732 1.373 1_455 S
C1733 C1749 1.377 . S
C1734 C1732 1.389 . S
C1734 C1735 1.524 . S
C1734 C1748 1.377 . S
C1735 C1734 1.524 . S
C1735 C1736 1.397 . S
C1735 C1740 1.363 . S
C1736 H1713 0.950 . S
C1736 C1735 1.397 . S
C1736 C1737 1.334 . S
C1737 H1714 0.950 . S
C1737 C1736 1.334 . S
C1737 C1738 1.287 . S
C1738 C1737 1.287 . S
C1738 C1739 1.524 . S
C1738 H1757 0.913 . S
C1739 H1715 0.950 . S
C1739 C1738 1.524 . S
C1739 C1740 1.415 . S
C1740 H1716 0.950 . S
C1740 C1735 1.363 . S
C1740 C1739 1.415 . S
C1741 H1717 0.951 . S
C1741 C1742 1.366 . S
C1741 C1743 1.388 . S
C1742 C1741 1.366 . S
C1742 C1746 1.385 . S
C1743 H1718 0.951 . S
C1743 C1741 1.388 . S
C1743 C1744 1.366 . S
C1744 C1743 1.366 . S
C1744 C1745 1.414 . S
C1744 C1747 1.499 . S
C1745 H1719 0.950 . S
C1745 C1744 1.414 . S
C1745 C1746 1.374 . S
C1746 H1720 0.950 . S
C1746 C1742 1.385 . S
C1746 C1745 1.374 . S
C1747 C1744 1.499 . S
C1747 C1748 1.373 1_455 S
C1747 C1749 1.389 . S
C1748 H1721 0.950 . S
C1748 C1734 1.377 . S
C1748 C1747 1.373 1_655 S
C1749 C1733 1.377 . S
C1749 C1747 1.389 . S
C1749 C1750 1.524 . S
C1750 C1749 1.524 . S
C1750 C1751 1.397 . S
C1750 C1755 1.363 . S
C1751 H1722 0.950 . S
C1751 C1750 1.397 . S
C1751 C1752 1.334 . S
C1752 H1723 0.950 . S
C1752 C1751 1.334 . S
C1752 C1753 1.287 . S
C1753 C1752 1.287 . S
C1753 C1754 1.524 . S
C1753 H1756 0.999 . S
C1754 H1724 0.950 . S
C1754 C1753 1.524 . S
C1754 C1755 1.415 . S
C1755 H1725 0.950 . S
C1755 C1750 1.363 . S
C1755 C1754 1.415 . S
H1756 C1753 0.999 . S
H1757 C1738 0.913 . S
H1758 C1776 0.951 . S
H1759 C1778 0.951 . S
H1760 C1780 0.950 . S
H1761 C1781 0.950 . S
H1762 C1783 0.950 . S
H1763 C1786 0.950 . S
H1764 C1787 0.950 . S
H1765 C1789 0.950 . S
H1766 C1790 0.950 . S
H1767 C1791 0.951 . S
H1768 C1793 0.951 . S
H1769 C1795 0.950 . S
H1770 C1796 0.950 . S
H1771 C1798 0.950 . S
H1772 C1801 0.950 . S
H1773 C1802 0.950 . S
H1774 C1804 0.950 . S
H1775 C1805 0.950 . S
C1776 H1758 0.951 . S
C1776 C1777 1.366 . S
C1776 C1778 1.388 . S
C1777 C1776 1.366 . S
C1777 C1781 1.385 . S
C1778 H1759 0.951 . S
C1778 C1776 1.388 . S
C1778 C1779 1.366 . S
C1779 C1778 1.366 . S
C1779 C1780 1.414 . S
C1779 C1782 1.499 . S
C1780 H1760 0.950 . S
C1780 C1779 1.414 . S
C1780 C1781 1.374 . S
C1781 H1761 0.950 . S
C1781 C1777 1.385 . S
C1781 C1780 1.374 . S
C1782 C1779 1.499 . S
C1782 C1783 1.373 . S
C1782 C1784 1.389 . S
C1783 H1762 0.950 . S
C1783 C1782 1.373 . S
C1783 C1799 1.377 . S
C1784 C1782 1.389 . S
C1784 C1785 1.524 . S
C1784 C1798 1.377 . S
C1785 C1784 1.524 . S
C1785 C1786 1.397 . S
C1785 C1790 1.363 . S
C1786 H1763 0.950 . S
C1786 C1785 1.397 . S
C1786 C1787 1.334 . S
C1787 H1764 0.950 . S
C1787 C1786 1.334 . S
C1787 C1788 1.287 . S
C1788 C1787 1.287 . S
C1788 C1789 1.524 . S
C1788 H1807 0.913 . S
C1789 H1765 0.950 . S
C1789 C1788 1.524 . S
C1789 C1790 1.415 . S
C1790 H1766 0.950 . S
C1790 C1785 1.363 . S
C1790 C1789 1.415 . S
C1791 H1767 0.951 . S
C1791 C1792 1.366 . S
C1791 C1793 1.388 . S
C1792 C1791 1.366 . S
C1792 C1796 1.385 . S
C1793 H1768 0.951 . S
C1793 C1791 1.388 . S
C1793 C1794 1.366 . S
C1794 C1793 1.366 . S
C1794 C1795 1.414 . S
C1794 C1797 1.499 . S
C1795 H1769 0.950 . S
C1795 C1794 1.414 . S
C1795 C1796 1.374 . S
C1796 H1770 0.950 . S
C1796 C1792 1.385 . S
C1796 C1795 1.374 . S
C1797 C1794 1.499 . S
C1797 C1798 1.373 . S
C1797 C1799 1.389 . S
C1798 H1771 0.950 . S
C1798 C1784 1.377 . S
C1798 C1797 1.373 . S
C1799 C1783 1.377 . S
C1799 C1797 1.389 . S
C1799 C1800 1.524 . S
C1800 C1799 1.524 . S
C1800 C1801 1.397 . S
C1800 C1805 1.363 . S
C1801 H1772 0.950 . S
C1801 C1800 1.397 . S
C1801 C1802 1.334 . S
C1802 H1773 0.950 . S
C1802 C1801 1.334 . S
C1802 C1803 1.287 . S
C1803 C1802 1.287 . S
C1803 C1804 1.524 . S
C1803 H1806 0.999 . S
C1804 H1774 0.950 . S
C1804 C1803 1.524 . S
C1804 C1805 1.415 . S
C1805 H1775 0.950 . S
C1805 C1800 1.363 . S
C1805 C1804 1.415 . S
H1806 C1803 0.999 . S
H1807 C1788 0.913 . S
C227 C13 1.446 . S
C242 C0 1.446 . S
C277 C26 1.446 . S
C292 C39 1.446 . S
C327 C52 1.446 . S
C342 C65 1.446 . S
C377 C91 1.446 . S
C392 C78 1.446 . S
C427 C117 1.446 . S
C442 C104 1.446 . S
C477 C143 1.446 . S
C492 C130 1.446 . S
C527 C169 1.446 . S
C542 C156 1.446 . S
C577 C195 1.446 . S
C592 C182 1.446 . S
C627 C49 1.090 . S
C642 C10 1.090 . S
C677 C23 1.090 . S
C692 C36 1.090 . S
C727 C101 1.090 . S
C742 C62 1.090 . S
C777 C88 1.090 . S
C792 C75 1.090 . S
C827 C114 1.090 . S
C842 C153 1.090 . S
C877 C140 1.090 . S
C892 C127 1.090 . S
C927 C205 1.090 . S
C942 C166 1.090 . S
C977 C179 1.090 . S
C992 C192 1.090 . S
C1027 C5 1.447 . S
C1042 C122 1.446 . S
C1077 C18 1.447 . S
C1092 C109 1.446 . S
C1127 C148 1.446 . S
C1142 C31 1.445 . S
C1177 C135 1.447 . S
C1192 C44 1.446 . S
C1227 C174 1.445 . S
C1242 C57 1.446 . S
C1277 C161 1.446 . S
C1292 C70 1.446 . S
C1327 C83 1.446 . S
C1342 C200 1.446 . S
C1377 C96 1.446 . S
C1392 C187 1.446 . S
C1427 C60 0.889 . S
C1442 C8 0.889 . S
C1477 C73 0.889 . S
C1492 C21 0.889 . S
C1527 C86 0.889 . S
C1542 C34 0.889 . S
C1577 C99 0.890 . S
C1592 C47 0.890 . S
C1627 C112 0.888 . S
C1642 C164 0.888 . S
C1677 C125 0.890 . S
C1692 C177 0.890 . S
C1727 C190 0.889 . S
C1742 C138 0.889 . S
C1777 C203 0.889 . S
C1792 C151 0.889 . S
