# Generated by pormake.
# Topology gsi, (4)-cn, num edge types: 1
# Building blocks:
#     Node 0, Type 0, BuildingBlock: GALJAG_clean_sbu_0, # of connection points: 4
#     Node 1, Type 0, BuildingBlock: GALJAG_clean_sbu_0, # of connection points: 4
#     Node 2, Type 0, BuildingBlock: GALJAG_clean_sbu_0, # of connection points: 4
#     Node 3, Type 0, BuildingBlock: GALJAG_clean_sbu_0, # of connection points: 4
#     Node 4, Type 0, BuildingBlock: GALJAG_clean_sbu_0, # of connection points: 4
#     Node 5, Type 0, BuildingBlock: GALJAG_clean_sbu_0, # of connection points: 4
#     Node 6, Type 0, BuildingBlock: GALJAG_clean_sbu_0, # of connection points: 4
#     Node 7, Type 0, BuildingBlock: GALJAG_clean_sbu_0, # of connection points: 4
#     Node 8, Type 0, BuildingBlock: GALJAG_clean_sbu_0, # of connection points: 4
#     Node 9, Type 0, BuildingBlock: GALJAG_clean_sbu_0, # of connection points: 4
#     Node 10, Type 0, BuildingBlock: GALJAG_clean_sbu_0, # of connection points: 4
#     Node 11, Type 0, BuildingBlock: GALJAG_clean_sbu_0, # of connection points: 4
#     Node 12, Type 0, BuildingBlock: GALJAG_clean_sbu_0, # of connection points: 4
#     Node 13, Type 0, BuildingBlock: GALJAG_clean_sbu_0, # of connection points: 4
#     Node 14, Type 0, BuildingBlock: GALJAG_clean_sbu_0, # of connection points: 4
#     Node 15, Type 0, BuildingBlock: GALJAG_clean_sbu_0, # of connection points: 4
#     Edge 16, Type (0, 0), BuildingBlock: OJICUG_clean_linker_0, # of connection points: 2
#     Edge 17, Type (0, 0), BuildingBlock: OJICUG_clean_linker_0, # of connection points: 2
#     Edge 18, Type (0, 0), BuildingBlock: OJICUG_clean_linker_0, # of connection points: 2
#     Edge 19, Type (0, 0), BuildingBlock: OJICUG_clean_linker_0, # of connection points: 2
#     Edge 20, Type (0, 0), BuildingBlock: OJICUG_clean_linker_0, # of connection points: 2
#     Edge 21, Type (0, 0), BuildingBlock: OJICUG_clean_linker_0, # of connection points: 2
#     Edge 22, Type (0, 0), BuildingBlock: OJICUG_clean_linker_0, # of connection points: 2
#     Edge 23, Type (0, 0), BuildingBlock: OJICUG_clean_linker_0, # of connection points: 2
#     Edge 24, Type (0, 0), BuildingBlock: OJICUG_clean_linker_0, # of connection points: 2
#     Edge 25, Type (0, 0), BuildingBlock: OJICUG_clean_linker_0, # of connection points: 2
#     Edge 26, Type (0, 0), BuildingBlock: OJICUG_clean_linker_0, # of connection points: 2
#     Edge 27, Type (0, 0), BuildingBlock: OJICUG_clean_linker_0, # of connection points: 2
#     Edge 28, Type (0, 0), BuildingBlock: OJICUG_clean_linker_0, # of connection points: 2
#     Edge 29, Type (0, 0), BuildingBlock: OJICUG_clean_linker_0, # of connection points: 2
#     Edge 30, Type (0, 0), BuildingBlock: OJICUG_clean_linker_0, # of connection points: 2
#     Edge 31, Type (0, 0), BuildingBlock: OJICUG_clean_linker_0, # of connection points: 2
#     Edge 32, Type (0, 0), BuildingBlock: OJICUG_clean_linker_0, # of connection points: 2
#     Edge 33, Type (0, 0), BuildingBlock: OJICUG_clean_linker_0, # of connection points: 2
#     Edge 34, Type (0, 0), BuildingBlock: OJICUG_clean_linker_0, # of connection points: 2
#     Edge 35, Type (0, 0), BuildingBlock: OJICUG_clean_linker_0, # of connection points: 2
#     Edge 36, Type (0, 0), BuildingBlock: OJICUG_clean_linker_0, # of connection points: 2
#     Edge 37, Type (0, 0), BuildingBlock: OJICUG_clean_linker_0, # of connection points: 2
#     Edge 38, Type (0, 0), BuildingBlock: OJICUG_clean_linker_0, # of connection points: 2
#     Edge 39, Type (0, 0), BuildingBlock: OJICUG_clean_linker_0, # of connection points: 2
#     Edge 40, Type (0, 0), BuildingBlock: OJICUG_clean_linker_0, # of connection points: 2
#     Edge 41, Type (0, 0), BuildingBlock: OJICUG_clean_linker_0, # of connection points: 2
#     Edge 42, Type (0, 0), BuildingBlock: OJICUG_clean_linker_0, # of connection points: 2
#     Edge 43, Type (0, 0), BuildingBlock: OJICUG_clean_linker_0, # of connection points: 2
#     Edge 44, Type (0, 0), BuildingBlock: OJICUG_clean_linker_0, # of connection points: 2
#     Edge 45, Type (0, 0), BuildingBlock: OJICUG_clean_linker_0, # of connection points: 2
#     Edge 46, Type (0, 0), BuildingBlock: OJICUG_clean_linker_0, # of connection points: 2
#     Edge 47, Type (0, 0), BuildingBlock: OJICUG_clean_linker_0, # of connection points: 2
# Relax obj value: 0.227
# Max RMSD: 0.210
# Mean RMSD: 0.172
data_MOF--net-gsi--node1-GALJAG_clean_sbu_0--edge1-OJICUG_clean_linker_0
_symmetry_space_group_name_H-M    P1
_symmetry_Int_Tables_number       1
_symmetry_cell_setting            triclinic
loop_
_symmetry_equiv_pos_as_xyz
'x, y, z'
_cell_length_a     29.76341
_cell_length_b     29.222858
_cell_length_c     32.790181
_cell_angle_alpha  90.136048
_cell_angle_beta   90.065576
_cell_angle_gamma 103.46483
loop_
_atom_site_label
_atom_site_type_symbol
_atom_site_fract_x
_atom_site_fract_y
_atom_site_fract_z
_atom_type_partial_charge
In0 In 0.13302 0.13489 0.13716 0.0
O1 O 0.19281 0.15784 0.09381 0.0
O2 O 0.13784 0.1014 0.07423 0.0
C3 C 0.18683 0.18033 0.19724 0.0
C4 C 0.06846 0.18304 0.11717 0.0
C5 C 0.11935 0.05351 0.17961 0.0
O6 O 0.20319 0.16772 0.16476 0.0
O7 O 0.14339 0.17206 0.19852 0.0
O8 O 0.09764 0.08471 0.1874 0.0
O9 O 0.14368 0.0611 0.14785 0.0
C10 C 0.17725 0.12757 0.06664 0.0
O11 O 0.05875 0.13864 0.12009 0.0
O12 O 0.11046 0.20229 0.12288 0.0
In13 In 0.86519 0.34125 0.13319 0.0
O14 O 0.94036 0.3376 0.12062 0.0
O15 O 0.88817 0.27419 0.11796 0.0
C16 C 0.86876 0.41999 0.17755 0.0
C17 C 0.82776 0.3586 0.06172 0.0
C18 C 0.81292 0.29005 0.1908 0.0
O19 O 0.90113 0.39864 0.17881 0.0
O20 O 0.83814 0.40428 0.15134 0.0
O21 O 0.79886 0.29198 0.15464 0.0
O22 O 0.85423 0.31152 0.1971 0.0
C23 C 0.93062 0.29343 0.1155 0.0
O24 O 0.80711 0.32895 0.08735 0.0
O25 O 0.86898 0.37858 0.07105 0.0
In26 In 0.17076 0.85636 0.35198 0.0
O27 O 0.11142 0.80407 0.32339 0.0
O28 O 0.09896 0.8336 0.38061 0.0
C29 C 0.21965 0.79709 0.32278 0.0
C30 C 0.15905 0.92538 0.30084 0.0
C31 C 0.21454 0.87392 0.42483 0.0
O32 O 0.18078 0.7831 0.33945 0.0
O33 O 0.23441 0.8412 0.32148 0.0
O34 O 0.23074 0.89555 0.39287 0.0
O35 O 0.17537 0.84659 0.42032 0.0
C36 C 0.08321 0.80567 0.35173 0.0
O37 O 0.14592 0.92387 0.33755 0.0
O38 O 0.18036 0.89447 0.29139 0.0
In39 In 0.81901 0.62083 0.34487 0.0
O40 O 0.88495 0.66228 0.31613 0.0
O41 O 0.87875 0.66734 0.3805 0.0
C42 C 0.77986 0.67921 0.30171 0.0
C43 C 0.83067 0.54441 0.30332 0.0
C44 C 0.7685 0.59777 0.41363 0.0
O45 O 0.79809 0.69045 0.33612 0.0
O46 O 0.78066 0.63844 0.28969 0.0
O47 O 0.75067 0.60345 0.37976 0.0
O48 O 0.81142 0.60056 0.41233 0.0
C49 C 0.90293 0.67993 0.34909 0.0
O50 O 0.79416 0.55913 0.30198 0.0
O51 O 0.86008 0.56546 0.32884 0.0
In52 In 0.36504 0.84382 0.63839 0.0
O53 O 0.44003 0.84112 0.62237 0.0
O54 O 0.38886 0.77718 0.62321 0.0
C55 C 0.37486 0.92459 0.68197 0.0
C56 C 0.32143 0.8562 0.56863 0.0
C57 C 0.31086 0.79255 0.69516 0.0
O58 O 0.3982 0.89472 0.68954 0.0
O59 O 0.35016 0.91576 0.65044 0.0
O60 O 0.29685 0.79732 0.65946 0.0
O61 O 0.35258 0.81233 0.70174 0.0
C62 C 0.43086 0.79684 0.61852 0.0
O63 O 0.3036 0.82769 0.59622 0.0
O64 O 0.36282 0.8781 0.57537 0.0
In65 In 0.8614 0.84282 0.87032 0.0
O66 O 0.90065 0.90761 0.8337 0.0
O67 O 0.8277 0.89461 0.83885 0.0
C68 C 0.92755 0.79558 0.88709 0.0
C69 C 0.82313 0.8639 0.94058 0.0
C70 C 0.81337 0.78449 0.81454 0.0
O71 O 0.93706 0.83927 0.87966 0.0
O72 O 0.88496 0.77656 0.88762 0.0
O73 O 0.80043 0.78482 0.85121 0.0
O74 O 0.8518 0.81191 0.80661 0.0
C75 C 0.86389 0.91935 0.82339 0.0
O76 O 0.80134 0.83717 0.91344 0.0
O77 O 0.86566 0.87944 0.93334 0.0
In78 In 0.13688 0.64265 0.87575 0.0
O79 O 0.17736 0.66903 0.93308 0.0
O80 O 0.14335 0.59666 0.93172 0.0
C81 C 0.19086 0.69745 0.82121 0.0
C82 C 0.13628 0.56661 0.82856 0.0
C83 C 0.06761 0.68742 0.88762 0.0
O84 O 0.20565 0.68877 0.85579 0.0
O85 O 0.14858 0.67967 0.81482 0.0
O86 O 0.10966 0.70793 0.88551 0.0
O87 O 0.05961 0.64302 0.88444 0.0
C88 C 0.1691 0.63005 0.95116 0.0
O89 O 0.099 0.57741 0.83886 0.0
O90 O 0.17223 0.59205 0.84422 0.0
In91 In 0.83548 0.12801 0.6538 0.0
O92 O 0.87971 0.19694 0.63151 0.0
O93 O 0.90568 0.13578 0.62255 0.0
C94 C 0.80848 0.17603 0.7154 0.0
C95 C 0.7744 0.11714 0.59121 0.0
C96 C 0.84947 0.0556 0.69952 0.0
O97 O 0.8472 0.18913 0.69831 0.0
O98 O 0.78355 0.13805 0.70194 0.0
O99 O 0.81228 0.0541 0.68041 0.0
O100 O 0.88044 0.09251 0.69379 0.0
C101 C 0.91244 0.17998 0.61909 0.0
O102 O 0.80211 0.09054 0.59502 0.0
O103 O 0.77734 0.1475 0.61891 0.0
In104 In 0.16712 0.35621 0.65974 0.0
O105 O 0.20016 0.39377 0.60101 0.0
O106 O 0.22226 0.33423 0.62242 0.0
C107 C 0.15276 0.42887 0.70561 0.0
C108 C 0.09048 0.30289 0.62515 0.0
C109 C 0.19757 0.31012 0.72074 0.0
O110 O 0.12169 0.39215 0.69914 0.0
O111 O 0.19026 0.43007 0.68719 0.0
O112 O 0.15739 0.29727 0.7062 0.0
O113 O 0.22213 0.34696 0.70515 0.0
C114 C 0.22577 0.36533 0.59545 0.0
O115 O 0.12193 0.28625 0.64072 0.0
O116 O 0.09787 0.34732 0.62619 0.0
In117 In 0.63848 0.14519 0.37109 0.0
O118 O 0.60414 0.07281 0.34293 0.0
O119 O 0.67563 0.10221 0.33251 0.0
C120 C 0.56476 0.18383 0.38185 0.0
C121 C 0.67052 0.12923 0.44526 0.0
C122 C 0.6921 0.20677 0.32057 0.0
O123 O 0.56585 0.15354 0.35459 0.0
O124 O 0.59926 0.1922 0.40525 0.0
O125 O 0.70729 0.19382 0.35346 0.0
O126 O 0.64952 0.19088 0.31465 0.0
C127 C 0.64094 0.0694 0.32491 0.0
O128 O 0.67867 0.16917 0.42864 0.0
O129 O 0.64495 0.09646 0.42484 0.0
In130 In 0.63536 0.63939 0.63314 0.0
O131 O 0.56014 0.64329 0.62065 0.0
O132 O 0.61214 0.70673 0.61909 0.0
C133 C 0.62685 0.55892 0.67634 0.0
C134 C 0.67342 0.62181 0.56206 0.0
C135 C 0.69099 0.69109 0.68886 0.0
O136 O 0.602 0.58761 0.68342 0.0
O137 O 0.65208 0.56859 0.6453 0.0
O138 O 0.70191 0.69158 0.65163 0.0
O139 O 0.65151 0.66638 0.69727 0.0
C140 C 0.56973 0.6875 0.61628 0.0
O141 O 0.69606 0.64556 0.59065 0.0
O142 O 0.63047 0.6077 0.56857 0.0
In143 In 0.68398 0.36026 0.84459 0.0
O144 O 0.61733 0.32078 0.81502 0.0
O145 O 0.62274 0.3158 0.87948 0.0
C146 C 0.73062 0.29948 0.814 0.0
C147 C 0.67056 0.43049 0.79553 0.0
C148 C 0.73052 0.38578 0.91518 0.0
O149 O 0.69294 0.2862 0.83272 0.0
O150 O 0.74515 0.34346 0.81118 0.0
O151 O 0.75041 0.38882 0.88109 0.0
O152 O 0.68704 0.37385 0.91321 0.0
C153 C 0.59854 0.3039 0.84785 0.0
O154 O 0.69304 0.40084 0.78527 0.0
O155 O 0.65686 0.42704 0.83209 0.0
In156 In 0.32894 0.13073 0.84916 0.0
O157 O 0.38952 0.18071 0.82005 0.0
O158 O 0.40058 0.15328 0.87843 0.0
C159 C 0.28065 0.18972 0.81823 0.0
C160 C 0.33916 0.0593 0.79975 0.0
C161 C 0.28537 0.1157 0.92219 0.0
O162 O 0.32013 0.20369 0.83387 0.0
O163 O 0.26498 0.14571 0.81858 0.0
O164 O 0.27083 0.09074 0.8913 0.0
O165 O 0.32285 0.14548 0.91665 0.0
C166 C 0.41717 0.17987 0.84906 0.0
O167 O 0.35341 0.06263 0.8362 0.0
O168 O 0.31775 0.0899 0.78963 0.0
In169 In 0.35845 0.33804 0.37255 0.0
O170 O 0.32076 0.31203 0.4309 0.0
O171 O 0.34865 0.38592 0.42595 0.0
C172 C 0.30274 0.27077 0.3278 0.0
C173 C 0.3572 0.41307 0.32488 0.0
C174 C 0.43507 0.30339 0.38034 0.0
O175 O 0.28758 0.29162 0.35658 0.0
O176 O 0.34587 0.28203 0.32343 0.0
O177 O 0.42459 0.32144 0.34788 0.0
O178 O 0.40914 0.30629 0.41013 0.0
C179 C 0.32585 0.35221 0.44701 0.0
O180 O 0.39272 0.41101 0.34551 0.0
O181 O 0.32316 0.37895 0.33004 0.0
In182 In 0.33103 0.63035 0.16265 0.0
O183 O 0.37636 0.69886 0.1405 0.0
O184 O 0.40245 0.63753 0.13373 0.0
C185 C 0.30109 0.67685 0.22371 0.0
C186 C 0.27157 0.62047 0.09881 0.0
C187 C 0.34451 0.55742 0.20795 0.0
O188 O 0.34017 0.69086 0.20746 0.0
O189 O 0.27711 0.63871 0.20957 0.0
O190 O 0.30997 0.55412 0.18473 0.0
O191 O 0.37301 0.59673 0.20694 0.0
C192 C 0.40949 0.68164 0.12964 0.0
O193 O 0.29835 0.59307 0.10361 0.0
O194 O 0.27451 0.65123 0.12618 0.0
In195 In 0.66989 0.86142 0.15297 0.0
O196 O 0.73992 0.88202 0.12061 0.0
O197 O 0.67995 0.88209 0.08587 0.0
C198 C 0.65511 0.93078 0.20237 0.0
C199 C 0.58876 0.80509 0.12966 0.0
C200 C 0.70856 0.80626 0.20049 0.0
O201 O 0.68896 0.93648 0.17815 0.0
O202 O 0.62787 0.89074 0.20055 0.0
O203 O 0.70243 0.84525 0.21277 0.0
O204 O 0.696 0.79579 0.1643 0.0
C205 C 0.72316 0.88693 0.08607 0.0
O206 O 0.62206 0.78979 0.14318 0.0
O207 O 0.59622 0.84943 0.12754 0.0
C208 C 0.19634 0.21551 0.26704 0.0
C209 C 0.2161 0.20114 0.23178 0.0
H210 H 0.20847 0.24833 0.32576 0.0
C211 C 0.26405 0.20591 0.23007 0.0
H212 H 0.15934 0.21169 0.26929 0.0
C213 C 0.29199 0.22621 0.26251 0.0
C214 C 0.27248 0.24231 0.29713 0.0
H215 H 0.2801 0.19457 0.20345 0.0
H216 H 0.32904 0.23073 0.25983 0.0
C217 C 0.22435 0.23604 0.29948 0.0
C218 C 0.79983 0.26585 0.26351 0.0
C219 C 0.78221 0.26849 0.22405 0.0
H220 H 0.78479 0.24464 0.32543 0.0
C221 C 0.73455 0.25314 0.21717 0.0
H222 H 0.83645 0.27792 0.26969 0.0
C223 C 0.705 0.235 0.24914 0.0
C224 C 0.72266 0.2315 0.28845 0.0
H225 H 0.72 0.25535 0.18714 0.0
H226 H 0.66843 0.22269 0.24279 0.0
C227 C 0.77028 0.24728 0.29545 0.0
C228 C 0.30739 0.75184 0.26181 0.0
C229 C 0.28318 0.70538 0.25382 0.0
H230 H 0.30607 0.81755 0.29015 0.0
C231 C 0.24007 0.68796 0.27219 0.0
H232 H 0.34079 0.7661 0.24809 0.0
C233 C 0.22043 0.71728 0.29655 0.0
C234 C 0.24343 0.76456 0.3025 0.0
H235 H 0.22083 0.65218 0.26666 0.0
H236 H 0.18636 0.70347 0.30917 0.0
C237 C 0.28755 0.78129 0.28582 0.0
C238 C 0.74449 0.69809 0.2371 0.0
C239 C 0.76085 0.71169 0.27648 0.0
H240 H 0.71545 0.71765 0.1821 0.0
C241 C 0.76008 0.7568 0.29086 0.0
H242 H 0.74479 0.66354 0.22522 0.0
C243 C 0.74318 0.78786 0.26611 0.0
C244 C 0.72711 0.77425 0.22663 0.0
H245 H 0.77263 0.76813 0.32111 0.0
H246 H 0.74283 0.82247 0.27782 0.0
C247 C 0.72788 0.72914 0.21236 0.0
C248 C 0.29758 0.76416 0.76673 0.0
C249 C 0.2803 0.76792 0.72732 0.0
H250 H 0.28254 0.73907 0.82761 0.0
C251 C 0.23325 0.7494 0.71928 0.0
H252 H 0.33371 0.77839 0.77378 0.0
C253 C 0.20396 0.72729 0.75012 0.0
C254 C 0.22129 0.72323 0.78946 0.0
H255 H 0.21901 0.75209 0.6892 0.0
H256 H 0.16786 0.71297 0.74301 0.0
C257 C 0.2683 0.7419 0.79756 0.0
C258 C 0.70922 0.71 0.76184 0.0
C259 C 0.72271 0.71492 0.72075 0.0
H260 H 0.72777 0.72762 0.82386 0.0
C261 C 0.7671 0.74109 0.71081 0.0
H262 H 0.67529 0.68965 0.7704 0.0
C263 C 0.79729 0.7626 0.74151 0.0
C264 C 0.7835 0.75816 0.78256 0.0
H265 H 0.77843 0.74509 0.67936 0.0
H266 H 0.83109 0.78332 0.73304 0.0
C267 C 0.73936 0.7314 0.79247 0.0
C268 C 0.79704 0.28248 0.77562 0.0
C269 C 0.75355 0.26628 0.79369 0.0
H270 H 0.84897 0.26606 0.73702 0.0
C271 C 0.73047 0.21881 0.78933 0.0
H272 H 0.81563 0.31889 0.77875 0.0
C273 C 0.74933 0.18868 0.76518 0.0
C274 C 0.79174 0.2055 0.74545 0.0
H275 H 0.69691 0.20543 0.80307 0.0
H276 H 0.72998 0.15271 0.76086 0.0
C277 C 0.81612 0.25223 0.75185 0.0
C278 C 0.26007 0.29846 0.76734 0.0
C279 C 0.21605 0.28149 0.75034 0.0
H280 H 0.31482 0.28263 0.80275 0.0
C281 C 0.19158 0.23535 0.75901 0.0
H282 H 0.27957 0.33395 0.76124 0.0
C283 C 0.21192 0.2058 0.78243 0.0
C284 C 0.25679 0.22214 0.79787 0.0
H285 H 0.15753 0.22142 0.74627 0.0
H286 H 0.19308 0.1698 0.78741 0.0
C287 C 0.28019 0.26909 0.7911 0.0
C288 C 0.11898 0.98843 0.27951 0.0
C289 C 0.14745 0.95772 0.26999 0.0
H290 H 0.08668 0.04224 0.25795 0.0
C291 C 0.16316 0.95617 0.2297 0.0
H292 H 0.10589 0.98997 0.31016 0.0
C293 C 0.15177 0.98549 0.19982 0.0
C294 C 0.12428 0.01707 0.20944 0.0
H295 H 0.18476 0.93253 0.22123 0.0
H296 H 0.16562 0.98433 0.1694 0.0
C297 C 0.10747 0.01784 0.24947 0.0
C298 C 0.89285 0.46802 0.24123 0.0
C299 C 0.8617 0.45427 0.20876 0.0
H300 H 0.90733 0.5072 0.2972 0.0
C301 C 0.82018 0.46935 0.20856 0.0
H302 H 0.92484 0.45643 0.24246 0.0
C303 C 0.80969 0.49705 0.24013 0.0
C304 C 0.84066 0.51099 0.2726 0.0
H305 H 0.79512 0.45901 0.18428 0.0
H306 H 0.77741 0.50809 0.23871 0.0
C307 C 0.88254 0.49647 0.2728 0.0
C308 C 0.27635 0.14646 0.99185 0.0
C309 C 0.25847 0.1149 0.96026 0.0
H310 H 0.26467 0.17538 0.04963 0.0
C311 C 0.21358 0.08632 0.9642 0.0
H312 H 0.3107 0.16912 0.98976 0.0
C313 C 0.18689 0.09001 0.99882 0.0
C314 C 0.20461 0.12251 0.02989 0.0
H315 H 0.19876 0.0619 0.94021 0.0
H316 H 0.15229 0.06793 1.00102 0.0
C317 C 0.24977 0.15028 0.02613 0.0
C318 C 0.82828 0.39154 0.99078 0.0
C319 C 0.80382 0.37018 0.025 0.0
H320 H 0.82407 0.41348 0.92869 0.0
C321 C 0.75529 0.35905 0.02407 0.0
H322 H 0.8657 0.40076 0.99083 0.0
C323 C 0.73159 0.36738 0.9892 0.0
C324 C 0.75584 0.38626 0.95409 0.0
H325 H 0.73548 0.34318 0.05023 0.0
H326 H 0.6942 0.35688 0.98916 0.0
C327 C 0.80445 0.39907 0.9554 0.0
C328 C 0.24733 0.84146 0.53012 0.0
C329 C 0.29447 0.86381 0.53232 0.0
H330 H 0.18518 0.8281 0.49506 0.0
C331 C 0.31461 0.89294 0.49997 0.0
H332 H 0.23057 0.81915 0.55467 0.0
C333 C 0.28827 0.89819 0.46546 0.0
C334 C 0.24138 0.87458 0.46296 0.0
H335 H 0.35081 0.91085 0.50096 0.0
H336 H 0.30489 0.91955 0.44033 0.0
C337 C 0.22114 0.84686 0.49599 0.0
C338 C 0.74442 0.61514 0.52469 0.0
C339 C 0.69639 0.61079 0.5246 0.0
H340 H 0.80461 0.61292 0.48992 0.0
C341 C 0.67144 0.59715 0.48847 0.0
H342 H 0.76449 0.62507 0.55224 0.0
C343 C 0.69461 0.5906 0.4525 0.0
C344 C 0.74293 0.59664 0.45237 0.0
H345 H 0.63437 0.59332 0.48763 0.0
H346 H 0.67491 0.58219 0.42458 0.0
C347 C 0.76738 0.60773 0.48908 0.0
C348 C 0.95281 0.21604 0.10888 0.0
C349 C 0.96604 0.2655 0.11084 0.0
H350 H 0.97473 0.15109 0.10912 0.0
C351 C 0.0133 0.28749 0.1114 0.0
H352 H 0.91663 0.19798 0.10837 0.0
C353 C 0.04654 0.26057 0.11172 0.0
C354 C 0.03327 0.21107 0.11157 0.0
H355 H 0.02462 0.32547 0.11287 0.0
H356 H 0.08267 0.27862 0.11342 0.0
C357 C 0.98607 0.1891 0.10928 0.0
C358 C 0.9757 0.72044 0.31485 0.0
C359 C 0.94856 0.71295 0.35025 0.0
H360 H 0.03948 0.75572 0.28772 0.0
C361 C 0.96534 0.7374 0.38616 0.0
H362 H 0.96361 0.70217 0.28671 0.0
C363 C 0.00882 0.76865 0.38662 0.0
C364 C 0.03619 0.77537 0.3513 0.0
H365 H 0.94493 0.73239 0.41381 0.0
H366 H 0.02132 0.78681 0.4147 0.0
C367 C 0.01914 0.75114 0.31543 0.0
C368 C 0.48699 0.6931 0.6116 0.0
C369 C 0.53418 0.71535 0.61195 0.0
H370 H 0.41743 0.70144 0.61297 0.0
C371 C 0.54714 0.76486 0.6111 0.0
H372 H 0.47587 0.65508 0.6122 0.0
C373 C 0.51364 0.79154 0.61164 0.0
C374 C 0.46646 0.76926 0.61294 0.0
H375 H 0.58326 0.78312 0.61131 0.0
H376 H 0.52473 0.82956 0.6123 0.0
C377 C 0.45352 0.71975 0.61204 0.0
C378 C 0.81513 0.98676 0.74317 0.0
C379 C 0.85445 0.01958 0.72969 0.0
H380 H 0.78738 0.93037 0.78377 0.0
C381 C 0.89756 0.01961 0.74746 0.0
H382 H 0.7814 0.98608 0.73038 0.0
C383 C 0.90114 0.98721 0.77812 0.0
C384 C 0.86151 0.95497 0.792 0.0
H385 H 0.92844 0.04477 0.73777 0.0
H386 H 0.93469 0.98764 0.79116 0.0
C387 C 0.81856 0.95513 0.77412 0.0
C388 C 0.1825 0.53028 0.7802 0.0
C389 C 0.13928 0.53063 0.79738 0.0
H390 H 0.22035 0.49881 0.73731 0.0
C391 C 0.09992 0.4981 0.78309 0.0
H392 H 0.2135 0.5552 0.79017 0.0
C393 C 0.10399 0.46533 0.75273 0.0
C394 C 0.14736 0.46517 0.73565 0.0
H395 H 0.06616 0.49775 0.79556 0.0
H396 H 0.07327 0.44006 0.74272 0.0
C397 C 0.18643 0.49823 0.74956 0.0
C398 C 0.7273 0.87882 0.01072 0.0
C399 C 0.75038 0.88923 0.04813 0.0
H400 H 0.73237 0.86211 0.94768 0.0
C401 C 0.79873 0.89551 0.0493 0.0
H402 H 0.69011 0.87361 0.00879 0.0
C403 C 0.82319 0.88944 0.01391 0.0
C404 C 0.79944 0.87602 0.97718 0.0
H405 H 0.81739 0.90347 0.07779 0.0
H406 H 0.86019 0.89306 0.01572 0.0
C407 C 0.75149 0.87185 0.97576 0.0
C408 C 0.20371 0.58285 1.00115 0.0
C409 C 0.19043 0.62453 0.99093 0.0
H410 H 0.241 0.54897 0.04327 0.0
C411 C 0.2016 0.66319 0.01748 0.0
H412 H 0.19573 0.55268 0.98092 0.0
C413 C 0.22644 0.6608 0.05315 0.0
C414 C 0.24176 0.62008 0.06262 0.0
H415 H 0.19175 0.6957 0.01032 0.0
H416 H 0.23509 0.69164 0.07259 0.0
C417 C 0.22978 0.58084 0.03656 0.0
C418 C 0.70735 0.0814 0.49285 0.0
C419 C 0.69156 0.12222 0.48475 0.0
H420 H 0.74717 0.04789 0.53295 0.0
C421 C 0.70035 0.15919 0.51309 0.0
H422 H 0.70122 0.05258 0.47118 0.0
C423 C 0.72558 0.15621 0.54837 0.0
C424 C 0.74367 0.11665 0.55568 0.0
H425 H 0.68848 0.19099 0.50754 0.0
H426 H 0.73246 0.18591 0.56915 0.0
C427 C 0.7338 0.07886 0.52793 0.0
C428 C 0.27035 0.32413 0.54994 0.0
C429 C 0.25479 0.3649 0.5589 0.0
H430 H 0.30468 0.28831 0.50751 0.0
C431 C 0.26565 0.40321 0.53194 0.0
H432 H 0.26258 0.29395 0.57004 0.0
C433 C 0.29088 0.40024 0.49624 0.0
C434 C 0.30455 0.35852 0.48665 0.0
H435 H 0.2542 0.43509 0.53819 0.0
H436 H 0.29807 0.42975 0.47541 0.0
C437 C 0.29447 0.32081 0.51407 0.0
C438 C 0.04391 0.764 0.89105 0.0
C439 C 0.03131 0.71446 0.89105 0.0
H440 H 0.02119 0.82839 0.88993 0.0
C441 C 0.98423 0.69187 0.89241 0.0
H442 H 0.07991 0.78258 0.89009 0.0
C443 C 0.9505 0.71833 0.89261 0.0
C444 C 0.96319 0.76787 0.8912 0.0
H445 H 0.97344 0.65382 0.89249 0.0
H446 H 0.91443 0.69992 0.89271 0.0
C447 C 0.01028 0.79037 0.891 0.0
C448 C 0.0066 0.29012 0.60837 0.0
C449 C 0.04599 0.27197 0.61277 0.0
H450 H 0.93275 0.27464 0.60633 0.0
C451 C 0.04126 0.22297 0.61122 0.0
H452 H 0.00926 0.32772 0.60924 0.0
C453 C 0.99752 0.19255 0.60931 0.0
C454 C 0.95785 0.2107 0.60923 0.0
H455 H 0.07118 0.20803 0.61412 0.0
H456 H 0.99476 0.15499 0.61109 0.0
C457 C 0.96281 0.25969 0.60674 0.0
C458 C 0.50808 0.22057 0.34614 0.0
C459 C 0.52983 0.21245 0.38253 0.0
H460 H 0.46248 0.25708 0.31682 0.0
C461 C 0.52105 0.23541 0.41838 0.0
H462 H 0.51471 0.2039 0.31795 0.0
C463 C 0.49046 0.26538 0.41789 0.0
C464 C 0.4695 0.27418 0.38124 0.0
H465 H 0.53771 0.23003 0.44678 0.0
H466 H 0.48353 0.28199 0.44601 0.0
C467 C 0.47874 0.25158 0.3454 0.0
C468 C 0.61524 0.52124 0.7456 0.0
C469 C 0.63338 0.52278 0.70587 0.0
H470 H 0.61334 0.49131 0.80559 0.0
C471 C 0.66327 0.49364 0.69614 0.0
H472 H 0.59259 0.54377 0.75415 0.0
C473 C 0.67553 0.4643 0.72553 0.0
C474 C 0.65828 0.46333 0.76548 0.0
H475 H 0.6782 0.49429 0.66597 0.0
H476 H 0.6989 0.44254 0.7169 0.0
C477 C 0.62762 0.49175 0.77518 0.0
C478 C 0.33204 0.02411 0.72993 0.0
C479 C 0.34937 0.02498 0.7699 0.0
H480 H 0.32732 -0.0075 0.67073 0.0
C481 C 0.37799 -0.00539 0.78 0.0
H482 H 0.31024 0.04735 0.72102 0.0
C483 C 0.38828 0.96338 0.75083 0.0
C484 C 0.37005 0.96194 0.71111 0.0
H485 H 0.39226 -0.00516 0.81042 0.0
H486 H 0.40943 0.9395 0.75971 0.0
C487 C 0.34219 -0.00704 0.70094 0.0
C488 C 0.48209 0.23344 0.81312 0.0
C489 C 0.4644 0.20982 0.84896 0.0
H490 H 0.53836 0.2816 0.78477 0.0
C491 C 0.49133 0.21693 0.88463 0.0
H492 H 0.46209 0.22861 0.78515 0.0
C493 C 0.535 0.24782 0.88451 0.0
C494 C 0.55245 0.27162 0.84863 0.0
H495 H 0.47836 0.19929 0.91272 0.0
H496 H 0.55506 0.25302 0.91243 0.0
C497 C 0.52573 0.26385 0.81291 0.0
C498 C 0.31311 0.47975 0.24099 0.0
C499 C 0.34931 0.51979 0.23658 0.0
H500 H 0.28716 0.41526 0.27255 0.0
C501 C 0.38878 0.52468 0.26145 0.0
H502 H 0.28218 0.47506 0.22249 0.0
C503 C 0.39176 0.49018 0.29034 0.0
C504 C 0.35514 0.45047 0.29505 0.0
H505 H 0.4172 0.55533 0.25882 0.0
H506 H 0.42247 0.49472 0.3091 0.0
C507 C 0.31592 0.44562 0.26994 0.0
C508 C 0.6834 0.03854 0.26989 0.0
C509 C 0.64359 0.03288 0.29423 0.0
H510 H 0.71778 0.0114 0.2215 0.0
C511 C 0.60676 -0.00622 0.28745 0.0
H512 H 0.71229 0.06853 0.27402 0.0
C513 C 0.61011 0.96068 0.2572 0.0
C514 C 0.65004 0.96659 0.23289 0.0
H515 H 0.57558 0.98869 0.30556 0.0
H516 H 0.58152 0.93047 0.25287 0.0
C517 C 0.68647 0.00599 0.23948 0.0
C518 C 0.53858 0.7243 0.12215 0.0
C519 C 0.54343 0.77332 0.12121 0.0
H520 H 0.49197 0.65643 0.12464 0.0
C521 C 0.50397 0.79129 0.11641 0.0
H522 H 0.56852 0.70947 0.12544 0.0
C523 C 0.46015 0.76089 0.11603 0.0
C524 C 0.45515 0.71206 0.12017 0.0
H525 H 0.50674 0.82889 0.11537 0.0
H526 H 0.43011 0.77584 0.11477 0.0
C527 C 0.49478 0.69388 0.12147 0.0
loop_
_geom_bond_atom_site_label_1
_geom_bond_atom_site_label_2
_geom_bond_distance
_geom_bond_site_symmetry_2
_ccdc_geom_bond_type
In0 O1 2.294 . S
In0 O2 2.326 . S
In0 O6 2.266 . S
In0 O7 2.326 . S
In0 O8 2.266 . S
In0 O9 2.326 . S
In0 O11 2.294 . S
In0 O12 2.326 . S
O1 In0 2.294 . S
O1 C10 1.240 . S
O2 In0 2.326 . S
O2 C10 1.252 . S
C3 O6 1.252 . S
C3 O7 1.260 . S
C4 O11 1.240 . S
C4 O12 1.252 . S
C5 O8 1.252 . S
C5 O9 1.260 . S
O6 In0 2.266 . S
O6 C3 1.252 . S
O7 In0 2.326 . S
O7 C3 1.260 . S
O8 In0 2.266 . S
O8 C5 1.252 . S
O9 In0 2.326 . S
O9 C5 1.260 . S
C10 O1 1.240 . S
C10 O2 1.252 . S
O11 In0 2.294 . S
O11 C4 1.240 . S
O12 In0 2.326 . S
O12 C4 1.252 . S
In13 O14 2.294 . S
In13 O15 2.326 . S
In13 O19 2.266 . S
In13 O20 2.326 . S
In13 O21 2.266 . S
In13 O22 2.326 . S
In13 O24 2.294 . S
In13 O25 2.326 . S
O14 In13 2.294 . S
O14 C23 1.240 . S
O15 In13 2.326 . S
O15 C23 1.252 . S
C16 O19 1.252 . S
C16 O20 1.260 . S
C17 O24 1.240 . S
C17 O25 1.252 . S
C18 O21 1.252 . S
C18 O22 1.260 . S
O19 In13 2.266 . S
O19 C16 1.252 . S
O20 In13 2.326 . S
O20 C16 1.260 . S
O21 In13 2.266 . S
O21 C18 1.252 . S
O22 In13 2.326 . S
O22 C18 1.260 . S
C23 O14 1.240 . S
C23 O15 1.252 . S
O24 In13 2.294 . S
O24 C17 1.240 . S
O25 In13 2.326 . S
O25 C17 1.252 . S
In26 O27 2.294 . S
In26 O28 2.326 . S
In26 O32 2.266 . S
In26 O33 2.326 . S
In26 O34 2.266 . S
In26 O35 2.326 . S
In26 O37 2.294 . S
In26 O38 2.326 . S
O27 In26 2.294 . S
O27 C36 1.240 . S
O28 In26 2.326 . S
O28 C36 1.252 . S
C29 O32 1.252 . S
C29 O33 1.260 . S
C30 O37 1.240 . S
C30 O38 1.252 . S
C31 O34 1.252 . S
C31 O35 1.260 . S
O32 In26 2.266 . S
O32 C29 1.252 . S
O33 In26 2.326 . S
O33 C29 1.260 . S
O34 In26 2.266 . S
O34 C31 1.252 . S
O35 In26 2.326 . S
O35 C31 1.260 . S
C36 O27 1.240 . S
C36 O28 1.252 . S
O37 In26 2.294 . S
O37 C30 1.240 . S
O38 In26 2.326 . S
O38 C30 1.252 . S
In39 O40 2.294 . S
In39 O41 2.326 . S
In39 O45 2.266 . S
In39 O46 2.326 . S
In39 O47 2.266 . S
In39 O48 2.326 . S
In39 O50 2.294 . S
In39 O51 2.326 . S
O40 In39 2.294 . S
O40 C49 1.240 . S
O41 In39 2.326 . S
O41 C49 1.252 . S
C42 O45 1.252 . S
C42 O46 1.260 . S
C43 O50 1.240 . S
C43 O51 1.252 . S
C44 O47 1.252 . S
C44 O48 1.260 . S
O45 In39 2.266 . S
O45 C42 1.252 . S
O46 In39 2.326 . S
O46 C42 1.260 . S
O47 In39 2.266 . S
O47 C44 1.252 . S
O48 In39 2.326 . S
O48 C44 1.260 . S
C49 O40 1.240 . S
C49 O41 1.252 . S
O50 In39 2.294 . S
O50 C43 1.240 . S
O51 In39 2.326 . S
O51 C43 1.252 . S
In52 O53 2.294 . S
In52 O54 2.326 . S
In52 O58 2.266 . S
In52 O59 2.326 . S
In52 O60 2.266 . S
In52 O61 2.326 . S
In52 O63 2.294 . S
In52 O64 2.326 . S
O53 In52 2.294 . S
O53 C62 1.240 . S
O54 In52 2.326 . S
O54 C62 1.252 . S
C55 O58 1.252 . S
C55 O59 1.260 . S
C56 O63 1.240 . S
C56 O64 1.252 . S
C57 O60 1.252 . S
C57 O61 1.260 . S
O58 In52 2.266 . S
O58 C55 1.252 . S
O59 In52 2.326 . S
O59 C55 1.260 . S
O60 In52 2.266 . S
O60 C57 1.252 . S
O61 In52 2.326 . S
O61 C57 1.260 . S
C62 O53 1.240 . S
C62 O54 1.252 . S
O63 In52 2.294 . S
O63 C56 1.240 . S
O64 In52 2.326 . S
O64 C56 1.252 . S
In65 O66 2.294 . S
In65 O67 2.326 . S
In65 O71 2.266 . S
In65 O72 2.326 . S
In65 O73 2.266 . S
In65 O74 2.326 . S
In65 O76 2.294 . S
In65 O77 2.326 . S
O66 In65 2.294 . S
O66 C75 1.240 . S
O67 In65 2.326 . S
O67 C75 1.252 . S
C68 O71 1.252 . S
C68 O72 1.260 . S
C69 O76 1.240 . S
C69 O77 1.252 . S
C70 O73 1.252 . S
C70 O74 1.260 . S
O71 In65 2.266 . S
O71 C68 1.252 . S
O72 In65 2.326 . S
O72 C68 1.260 . S
O73 In65 2.266 . S
O73 C70 1.252 . S
O74 In65 2.326 . S
O74 C70 1.260 . S
C75 O66 1.240 . S
C75 O67 1.252 . S
O76 In65 2.294 . S
O76 C69 1.240 . S
O77 In65 2.326 . S
O77 C69 1.252 . S
In78 O79 2.294 . S
In78 O80 2.326 . S
In78 O84 2.266 . S
In78 O85 2.326 . S
In78 O86 2.266 . S
In78 O87 2.326 . S
In78 O89 2.294 . S
In78 O90 2.326 . S
O79 In78 2.294 . S
O79 C88 1.240 . S
O80 In78 2.326 . S
O80 C88 1.252 . S
C81 O84 1.252 . S
C81 O85 1.260 . S
C82 O89 1.240 . S
C82 O90 1.252 . S
C83 O86 1.252 . S
C83 O87 1.260 . S
O84 In78 2.266 . S
O84 C81 1.252 . S
O85 In78 2.326 . S
O85 C81 1.260 . S
O86 In78 2.266 . S
O86 C83 1.252 . S
O87 In78 2.326 . S
O87 C83 1.260 . S
C88 O79 1.240 . S
C88 O80 1.252 . S
O89 In78 2.294 . S
O89 C82 1.240 . S
O90 In78 2.326 . S
O90 C82 1.252 . S
In91 O92 2.294 . S
In91 O93 2.326 . S
In91 O97 2.266 . S
In91 O98 2.326 . S
In91 O99 2.266 . S
In91 O100 2.326 . S
In91 O102 2.294 . S
In91 O103 2.326 . S
O92 In91 2.294 . S
O92 C101 1.240 . S
O93 In91 2.326 . S
O93 C101 1.252 . S
C94 O97 1.252 . S
C94 O98 1.260 . S
C95 O102 1.240 . S
C95 O103 1.252 . S
C96 O99 1.252 . S
C96 O100 1.260 . S
O97 In91 2.266 . S
O97 C94 1.252 . S
O98 In91 2.326 . S
O98 C94 1.260 . S
O99 In91 2.266 . S
O99 C96 1.252 . S
O100 In91 2.326 . S
O100 C96 1.260 . S
C101 O92 1.240 . S
C101 O93 1.252 . S
O102 In91 2.294 . S
O102 C95 1.240 . S
O103 In91 2.326 . S
O103 C95 1.252 . S
In104 O105 2.294 . S
In104 O106 2.326 . S
In104 O110 2.266 . S
In104 O111 2.326 . S
In104 O112 2.266 . S
In104 O113 2.326 . S
In104 O115 2.294 . S
In104 O116 2.326 . S
O105 In104 2.294 . S
O105 C114 1.240 . S
O106 In104 2.326 . S
O106 C114 1.252 . S
C107 O110 1.252 . S
C107 O111 1.260 . S
C108 O115 1.240 . S
C108 O116 1.252 . S
C109 O112 1.252 . S
C109 O113 1.260 . S
O110 In104 2.266 . S
O110 C107 1.252 . S
O111 In104 2.326 . S
O111 C107 1.260 . S
O112 In104 2.266 . S
O112 C109 1.252 . S
O113 In104 2.326 . S
O113 C109 1.260 . S
C114 O105 1.240 . S
C114 O106 1.252 . S
O115 In104 2.294 . S
O115 C108 1.240 . S
O116 In104 2.326 . S
O116 C108 1.252 . S
In117 O118 2.294 . S
In117 O119 2.326 . S
In117 O123 2.266 . S
In117 O124 2.326 . S
In117 O125 2.266 . S
In117 O126 2.326 . S
In117 O128 2.294 . S
In117 O129 2.326 . S
O118 In117 2.294 . S
O118 C127 1.240 . S
O119 In117 2.326 . S
O119 C127 1.252 . S
C120 O123 1.252 . S
C120 O124 1.260 . S
C121 O128 1.240 . S
C121 O129 1.252 . S
C122 O125 1.252 . S
C122 O126 1.260 . S
O123 In117 2.266 . S
O123 C120 1.252 . S
O124 In117 2.326 . S
O124 C120 1.260 . S
O125 In117 2.266 . S
O125 C122 1.252 . S
O126 In117 2.326 . S
O126 C122 1.260 . S
C127 O118 1.240 . S
C127 O119 1.252 . S
O128 In117 2.294 . S
O128 C121 1.240 . S
O129 In117 2.326 . S
O129 C121 1.252 . S
In130 O131 2.294 . S
In130 O132 2.326 . S
In130 O136 2.266 . S
In130 O137 2.326 . S
In130 O138 2.266 . S
In130 O139 2.326 . S
In130 O141 2.294 . S
In130 O142 2.326 . S
O131 In130 2.294 . S
O131 C140 1.240 . S
O132 In130 2.326 . S
O132 C140 1.252 . S
C133 O136 1.252 . S
C133 O137 1.260 . S
C134 O141 1.240 . S
C134 O142 1.252 . S
C135 O138 1.252 . S
C135 O139 1.260 . S
O136 In130 2.266 . S
O136 C133 1.252 . S
O137 In130 2.326 . S
O137 C133 1.260 . S
O138 In130 2.266 . S
O138 C135 1.252 . S
O139 In130 2.326 . S
O139 C135 1.260 . S
C140 O131 1.240 . S
C140 O132 1.252 . S
O141 In130 2.294 . S
O141 C134 1.240 . S
O142 In130 2.326 . S
O142 C134 1.252 . S
In143 O144 2.294 . S
In143 O145 2.326 . S
In143 O149 2.266 . S
In143 O150 2.326 . S
In143 O151 2.266 . S
In143 O152 2.326 . S
In143 O154 2.294 . S
In143 O155 2.326 . S
O144 In143 2.294 . S
O144 C153 1.240 . S
O145 In143 2.326 . S
O145 C153 1.252 . S
C146 O149 1.252 . S
C146 O150 1.260 . S
C147 O154 1.240 . S
C147 O155 1.252 . S
C148 O151 1.252 . S
C148 O152 1.260 . S
O149 In143 2.266 . S
O149 C146 1.252 . S
O150 In143 2.326 . S
O150 C146 1.260 . S
O151 In143 2.266 . S
O151 C148 1.252 . S
O152 In143 2.326 . S
O152 C148 1.260 . S
C153 O144 1.240 . S
C153 O145 1.252 . S
O154 In143 2.294 . S
O154 C147 1.240 . S
O155 In143 2.326 . S
O155 C147 1.252 . S
In156 O157 2.294 . S
In156 O158 2.326 . S
In156 O162 2.266 . S
In156 O163 2.326 . S
In156 O164 2.266 . S
In156 O165 2.326 . S
In156 O167 2.294 . S
In156 O168 2.326 . S
O157 In156 2.294 . S
O157 C166 1.240 . S
O158 In156 2.326 . S
O158 C166 1.252 . S
C159 O162 1.252 . S
C159 O163 1.260 . S
C160 O167 1.240 . S
C160 O168 1.252 . S
C161 O164 1.252 . S
C161 O165 1.260 . S
O162 In156 2.266 . S
O162 C159 1.252 . S
O163 In156 2.326 . S
O163 C159 1.260 . S
O164 In156 2.266 . S
O164 C161 1.252 . S
O165 In156 2.326 . S
O165 C161 1.260 . S
C166 O157 1.240 . S
C166 O158 1.252 . S
O167 In156 2.294 . S
O167 C160 1.240 . S
O168 In156 2.326 . S
O168 C160 1.252 . S
In169 O170 2.294 . S
In169 O171 2.326 . S
In169 O175 2.266 . S
In169 O176 2.326 . S
In169 O177 2.266 . S
In169 O178 2.326 . S
In169 O180 2.294 . S
In169 O181 2.326 . S
O170 In169 2.294 . S
O170 C179 1.240 . S
O171 In169 2.326 . S
O171 C179 1.252 . S
C172 O175 1.252 . S
C172 O176 1.260 . S
C173 O180 1.240 . S
C173 O181 1.252 . S
C174 O177 1.252 . S
C174 O178 1.260 . S
O175 In169 2.266 . S
O175 C172 1.252 . S
O176 In169 2.326 . S
O176 C172 1.260 . S
O177 In169 2.266 . S
O177 C174 1.252 . S
O178 In169 2.326 . S
O178 C174 1.260 . S
C179 O170 1.240 . S
C179 O171 1.252 . S
O180 In169 2.294 . S
O180 C173 1.240 . S
O181 In169 2.326 . S
O181 C173 1.252 . S
In182 O183 2.294 . S
In182 O184 2.326 . S
In182 O188 2.266 . S
In182 O189 2.326 . S
In182 O190 2.266 . S
In182 O191 2.326 . S
In182 O193 2.294 . S
In182 O194 2.326 . S
O183 In182 2.294 . S
O183 C192 1.240 . S
O184 In182 2.326 . S
O184 C192 1.252 . S
C185 O188 1.252 . S
C185 O189 1.260 . S
C186 O193 1.240 . S
C186 O194 1.252 . S
C187 O190 1.252 . S
C187 O191 1.260 . S
O188 In182 2.266 . S
O188 C185 1.252 . S
O189 In182 2.326 . S
O189 C185 1.260 . S
O190 In182 2.266 . S
O190 C187 1.252 . S
O191 In182 2.326 . S
O191 C187 1.260 . S
C192 O183 1.240 . S
C192 O184 1.252 . S
O193 In182 2.294 . S
O193 C186 1.240 . S
O194 In182 2.326 . S
O194 C186 1.252 . S
In195 O196 2.294 . S
In195 O197 2.326 . S
In195 O201 2.266 . S
In195 O202 2.326 . S
In195 O203 2.266 . S
In195 O204 2.326 . S
In195 O206 2.294 . S
In195 O207 2.326 . S
O196 In195 2.294 . S
O196 C205 1.240 . S
O197 In195 2.326 . S
O197 C205 1.252 . S
C198 O201 1.252 . S
C198 O202 1.260 . S
C199 O206 1.240 . S
C199 O207 1.252 . S
C200 O203 1.252 . S
C200 O204 1.260 . S
O201 In195 2.266 . S
O201 C198 1.252 . S
O202 In195 2.326 . S
O202 C198 1.260 . S
O203 In195 2.266 . S
O203 C200 1.252 . S
O204 In195 2.326 . S
O204 C200 1.260 . S
C205 O196 1.240 . S
C205 O197 1.252 . S
O206 In195 2.294 . S
O206 C199 1.240 . S
O207 In195 2.326 . S
O207 C199 1.252 . S
C208 C209 1.387 . S
C208 H212 0.950 . S
C208 C217 1.390 . S
C209 C208 1.387 . S
C209 C211 1.387 . S
H210 C217 0.950 . S
C211 C209 1.387 . S
C211 C213 1.390 . S
C211 H215 0.950 . S
H212 C208 0.950 . S
C213 C211 1.390 . S
C213 C214 1.387 . S
C213 H216 0.950 . S
C214 C213 1.387 . S
C214 C217 1.387 . S
H215 C211 0.950 . S
H216 C213 0.950 . S
C217 C208 1.390 . S
C217 H210 0.950 . S
C217 C214 1.387 . S
C218 C219 1.387 . S
C218 H222 0.950 . S
C218 C227 1.390 . S
C219 C218 1.387 . S
C219 C221 1.387 . S
H220 C227 0.950 . S
C221 C219 1.387 . S
C221 C223 1.390 . S
C221 H225 0.950 . S
H222 C218 0.950 . S
C223 C221 1.390 . S
C223 C224 1.387 . S
C223 H226 0.950 . S
C224 C223 1.387 . S
C224 C227 1.387 . S
H225 C221 0.950 . S
H226 C223 0.950 . S
C227 C218 1.390 . S
C227 H220 0.950 . S
C227 C224 1.387 . S
C228 C229 1.387 . S
C228 H232 0.950 . S
C228 C237 1.390 . S
C229 C228 1.387 . S
C229 C231 1.387 . S
H230 C237 0.950 . S
C231 C229 1.387 . S
C231 C233 1.390 . S
C231 H235 0.950 . S
H232 C228 0.950 . S
C233 C231 1.390 . S
C233 C234 1.387 . S
C233 H236 0.950 . S
C234 C233 1.387 . S
C234 C237 1.387 . S
H235 C231 0.950 . S
H236 C233 0.950 . S
C237 C228 1.390 . S
C237 H230 0.950 . S
C237 C234 1.387 . S
C238 C239 1.387 . S
C238 H242 0.950 . S
C238 C247 1.390 . S
C239 C238 1.387 . S
C239 C241 1.387 . S
H240 C247 0.950 . S
C241 C239 1.387 . S
C241 C243 1.390 . S
C241 H245 0.950 . S
H242 C238 0.950 . S
C243 C241 1.390 . S
C243 C244 1.387 . S
C243 H246 0.950 . S
C244 C243 1.387 . S
C244 C247 1.387 . S
H245 C241 0.950 . S
H246 C243 0.950 . S
C247 C238 1.390 . S
C247 H240 0.950 . S
C247 C244 1.387 . S
C248 C249 1.387 . S
C248 H252 0.950 . S
C248 C257 1.390 . S
C249 C248 1.387 . S
C249 C251 1.387 . S
H250 C257 0.950 . S
C251 C249 1.387 . S
C251 C253 1.390 . S
C251 H255 0.950 . S
H252 C248 0.950 . S
C253 C251 1.390 . S
C253 C254 1.387 . S
C253 H256 0.950 . S
C254 C253 1.387 . S
C254 C257 1.387 . S
H255 C251 0.950 . S
H256 C253 0.950 . S
C257 C248 1.390 . S
C257 H250 0.950 . S
C257 C254 1.387 . S
C258 C259 1.387 . S
C258 H262 0.950 . S
C258 C267 1.390 . S
C259 C258 1.387 . S
C259 C261 1.387 . S
H260 C267 0.950 . S
C261 C259 1.387 . S
C261 C263 1.390 . S
C261 H265 0.950 . S
H262 C258 0.950 . S
C263 C261 1.390 . S
C263 C264 1.387 . S
C263 H266 0.950 . S
C264 C263 1.387 . S
C264 C267 1.387 . S
H265 C261 0.950 . S
H266 C263 0.950 . S
C267 C258 1.390 . S
C267 H260 0.950 . S
C267 C264 1.387 . S
C268 C269 1.387 . S
C268 H272 0.950 . S
C268 C277 1.390 . S
C269 C268 1.387 . S
C269 C271 1.387 . S
H270 C277 0.950 . S
C271 C269 1.387 . S
C271 C273 1.390 . S
C271 H275 0.950 . S
H272 C268 0.950 . S
C273 C271 1.390 . S
C273 C274 1.387 . S
C273 H276 0.950 . S
C274 C273 1.387 . S
C274 C277 1.387 . S
H275 C271 0.950 . S
H276 C273 0.950 . S
C277 C268 1.390 . S
C277 H270 0.950 . S
C277 C274 1.387 . S
C278 C279 1.387 . S
C278 H282 0.950 . S
C278 C287 1.390 . S
C279 C278 1.387 . S
C279 C281 1.387 . S
H280 C287 0.950 . S
C281 C279 1.387 . S
C281 C283 1.390 . S
C281 H285 0.950 . S
H282 C278 0.950 . S
C283 C281 1.390 . S
C283 C284 1.387 . S
C283 H286 0.950 . S
C284 C283 1.387 . S
C284 C287 1.387 . S
H285 C281 0.950 . S
H286 C283 0.950 . S
C287 C278 1.390 . S
C287 H280 0.950 . S
C287 C284 1.387 . S
C288 C289 1.387 . S
C288 H292 0.950 . S
C288 C297 1.389 . S
C289 C288 1.387 . S
C289 C291 1.387 . S
H290 C297 0.951 1_545 S
C291 C289 1.387 . S
C291 C293 1.390 . S
C291 H295 0.950 . S
H292 C288 0.950 . S
C293 C291 1.390 . S
C293 C294 1.387 1_565 S
C293 H296 0.950 . S
C294 C293 1.387 1_545 S
C294 C297 1.387 1_545 S
H295 C291 0.950 . S
H296 C293 0.950 . S
C297 C288 1.389 . S
C297 H290 0.951 1_565 S
C297 C294 1.387 1_565 S
C298 C299 1.387 . S
C298 H302 0.950 . S
C298 C307 1.390 . S
C299 C298 1.387 . S
C299 C301 1.387 . S
H300 C307 0.950 . S
C301 C299 1.387 . S
C301 C303 1.390 . S
C301 H305 0.950 . S
H302 C298 0.950 . S
C303 C301 1.390 . S
C303 C304 1.387 . S
C303 H306 0.950 . S
C304 C303 1.387 . S
C304 C307 1.387 . S
H305 C301 0.950 . S
H306 C303 0.950 . S
C307 C298 1.390 . S
C307 H300 0.950 . S
C307 C304 1.387 . S
C308 C309 1.387 . S
C308 H312 0.950 . S
C308 C317 1.390 1_556 S
C309 C308 1.387 . S
C309 C311 1.387 . S
H310 C317 0.950 . S
C311 C309 1.387 . S
C311 C313 1.390 . S
C311 H315 0.950 . S
H312 C308 0.950 . S
C313 C311 1.390 . S
C313 C314 1.387 1_556 S
C313 H316 0.950 . S
C314 C313 1.387 1_554 S
C314 C317 1.387 . S
H315 C311 0.950 . S
H316 C313 0.950 . S
C317 C308 1.390 1_554 S
C317 H310 0.950 . S
C317 C314 1.387 . S
C318 C319 1.387 . S
C318 H322 0.950 . S
C318 C327 1.390 1_554 S
C319 C318 1.387 . S
C319 C321 1.387 1_554 S
H320 C327 0.950 . S
C321 C319 1.387 1_556 S
C321 C323 1.390 . S
C321 H325 0.950 . S
H322 C318 0.950 . S
C323 C321 1.390 . S
C323 C324 1.387 . S
C323 H326 0.950 . S
C324 C323 1.387 . S
C324 C327 1.387 . S
H325 C321 0.950 . S
H326 C323 0.950 . S
C327 C318 1.390 1_556 S
C327 H320 0.950 . S
C327 C324 1.387 . S
C328 C329 1.387 . S
C328 H332 0.950 . S
C328 C337 1.390 . S
C329 C328 1.387 . S
C329 C331 1.387 . S
H330 C337 0.950 . S
C331 C329 1.387 . S
C331 C333 1.390 . S
C331 H335 0.950 . S
H332 C328 0.950 . S
C333 C331 1.390 . S
C333 C334 1.387 . S
C333 H336 0.950 . S
C334 C333 1.387 . S
C334 C337 1.387 . S
H335 C331 0.950 . S
H336 C333 0.950 . S
C337 C328 1.390 . S
C337 H330 0.950 . S
C337 C334 1.387 . S
C338 C339 1.387 . S
C338 H342 0.950 . S
C338 C347 1.390 . S
C339 C338 1.387 . S
C339 C341 1.387 . S
H340 C347 0.950 . S
C341 C339 1.387 . S
C341 C343 1.390 . S
C341 H345 0.950 . S
H342 C338 0.950 . S
C343 C341 1.390 . S
C343 C344 1.387 . S
C343 H346 0.950 . S
C344 C343 1.387 . S
C344 C347 1.387 . S
H345 C341 0.950 . S
H346 C343 0.950 . S
C347 C338 1.390 . S
C347 H340 0.950 . S
C347 C344 1.387 . S
C348 C349 1.387 . S
C348 H352 0.950 . S
C348 C357 1.390 1_655 S
C349 C348 1.387 . S
C349 C351 1.387 . S
H350 C357 0.950 . S
C351 C349 1.387 . S
C351 C353 1.390 1_655 S
C351 H355 0.950 . S
H352 C348 0.950 . S
C353 C351 1.390 1_455 S
C353 C354 1.387 . S
C353 H356 0.950 . S
C354 C353 1.387 . S
C354 C357 1.387 . S
H355 C351 0.950 . S
H356 C353 0.950 . S
C357 C348 1.390 1_455 S
C357 H350 0.950 . S
C357 C354 1.387 . S
C358 C359 1.387 . S
C358 H362 0.950 . S
C358 C367 1.390 1_655 S
C359 C358 1.387 . S
C359 C361 1.387 . S
H360 C367 0.950 . S
C361 C359 1.387 . S
C361 C363 1.390 1_655 S
C361 H365 0.950 . S
H362 C358 0.950 . S
C363 C361 1.390 1_455 S
C363 C364 1.387 . S
C363 H366 0.950 . S
C364 C363 1.387 . S
C364 C367 1.387 . S
H365 C361 0.950 . S
H366 C363 0.950 . S
C367 C358 1.390 1_455 S
C367 H360 0.950 . S
C367 C364 1.387 . S
C368 C369 1.387 . S
C368 H372 0.950 . S
C368 C377 1.390 . S
C369 C368 1.387 . S
C369 C371 1.387 . S
H370 C377 0.950 . S
C371 C369 1.387 . S
C371 C373 1.390 . S
C371 H375 0.950 . S
H372 C368 0.950 . S
C373 C371 1.390 . S
C373 C374 1.387 . S
C373 H376 0.950 . S
C374 C373 1.387 . S
C374 C377 1.387 . S
H375 C371 0.950 . S
H376 C373 0.950 . S
C377 C368 1.390 . S
C377 H370 0.950 . S
C377 C374 1.387 . S
C378 C379 1.387 1_565 S
C378 H382 0.950 . S
C378 C387 1.390 . S
C379 C378 1.387 1_545 S
C379 C381 1.387 . S
H380 C387 0.950 . S
C381 C379 1.387 . S
C381 C383 1.390 . S
C381 H385 0.950 . S
H382 C378 0.950 . S
C383 C381 1.390 . S
C383 C384 1.387 1_545 S
C383 H386 0.950 . S
C384 C383 1.387 1_565 S
C384 C387 1.387 . S
H385 C381 0.950 . S
H386 C383 0.950 . S
C387 C378 1.390 . S
C387 H380 0.950 . S
C387 C384 1.387 . S
C388 C389 1.387 . S
C388 H392 0.950 . S
C388 C397 1.390 . S
C389 C388 1.387 . S
C389 C391 1.387 . S
H390 C397 0.950 . S
C391 C389 1.387 . S
C391 C393 1.390 . S
C391 H395 0.950 . S
H392 C388 0.950 . S
C393 C391 1.390 . S
C393 C394 1.387 . S
C393 H396 0.950 . S
C394 C393 1.387 . S
C394 C397 1.387 . S
H395 C391 0.950 . S
H396 C393 0.950 . S
C397 C388 1.390 . S
C397 H390 0.950 . S
C397 C394 1.387 . S
C398 C399 1.387 . S
C398 H402 0.950 . S
C398 C407 1.390 1_554 S
C399 C398 1.387 . S
C399 C401 1.387 . S
H400 C407 0.950 . S
C401 C399 1.387 . S
C401 C403 1.375 1_554 S
C401 H405 0.950 . S
H402 C398 0.950 . S
C403 C401 1.375 1_556 S
C403 C404 1.395 . S
C403 H406 0.957 . S
C404 C403 1.395 . S
C404 C407 1.387 . S
H405 C401 0.950 . S
H406 C403 0.957 . S
C407 C398 1.390 1_556 S
C407 H400 0.950 . S
C407 C404 1.387 . S
C408 C409 1.391 . S
C408 H412 0.953 . S
C408 C417 1.384 1_556 S
C409 C408 1.391 . S
C409 C411 1.387 . S
H410 C417 0.950 . S
C411 C409 1.387 . S
C411 C413 1.390 1_556 S
C411 H415 0.950 . S
H412 C408 0.953 . S
C413 C411 1.390 1_554 S
C413 C414 1.387 . S
C413 H416 0.950 . S
C414 C413 1.387 . S
C414 C417 1.387 . S
H415 C411 0.950 . S
H416 C413 0.950 . S
C417 C408 1.384 1_554 S
C417 H410 0.950 . S
C417 C414 1.387 . S
C418 C419 1.387 . S
C418 H422 0.950 . S
C418 C427 1.390 . S
C419 C418 1.387 . S
C419 C421 1.387 . S
H420 C427 0.950 . S
C421 C419 1.387 . S
C421 C423 1.390 . S
C421 H425 0.950 . S
H422 C418 0.950 . S
C423 C421 1.390 . S
C423 C424 1.387 . S
C423 H426 0.950 . S
C424 C423 1.387 . S
C424 C427 1.387 . S
H425 C421 0.950 . S
H426 C423 0.950 . S
C427 C418 1.390 . S
C427 H420 0.950 . S
C427 C424 1.387 . S
C428 C429 1.387 . S
C428 H432 0.950 . S
C428 C437 1.390 . S
C429 C428 1.387 . S
C429 C431 1.387 . S
H430 C437 0.950 . S
C431 C429 1.387 . S
C431 C433 1.390 . S
C431 H435 0.950 . S
H432 C428 0.950 . S
C433 C431 1.390 . S
C433 C434 1.387 . S
C433 H436 0.950 . S
C434 C433 1.387 . S
C434 C437 1.387 . S
H435 C431 0.950 . S
H436 C433 0.950 . S
C437 C428 1.390 . S
C437 H430 0.950 . S
C437 C434 1.387 . S
C438 C439 1.387 . S
C438 H442 0.950 . S
C438 C447 1.390 1_455 S
C439 C438 1.387 . S
C439 C441 1.387 . S
H440 C447 0.950 . S
C441 C439 1.387 . S
C441 C443 1.390 1_455 S
C441 H445 0.950 . S
H442 C438 0.950 . S
C443 C441 1.390 1_655 S
C443 C444 1.387 . S
C443 H446 0.950 . S
C444 C443 1.387 . S
C444 C447 1.387 . S
H445 C441 0.950 . S
H446 C443 0.950 . S
C447 C438 1.390 1_655 S
C447 H440 0.950 . S
C447 C444 1.387 . S
C448 C449 1.387 . S
C448 H452 0.950 . S
C448 C457 1.390 1_455 S
C449 C448 1.387 . S
C449 C451 1.387 . S
H450 C457 0.950 . S
C451 C449 1.387 . S
C451 C453 1.390 1_455 S
C451 H455 0.950 . S
H452 C448 0.950 . S
C453 C451 1.390 1_655 S
C453 C454 1.387 . S
C453 H456 0.950 . S
C454 C453 1.387 . S
C454 C457 1.387 . S
H455 C451 0.950 . S
H456 C453 0.950 . S
C457 C448 1.390 1_655 S
C457 H450 0.950 . S
C457 C454 1.387 . S
C458 C459 1.387 . S
C458 H462 0.950 . S
C458 C467 1.390 . S
C459 C458 1.387 . S
C459 C461 1.387 . S
H460 C467 0.950 . S
C461 C459 1.387 . S
C461 C463 1.390 . S
C461 H465 0.950 . S
H462 C458 0.950 . S
C463 C461 1.390 . S
C463 C464 1.387 . S
C463 H466 0.950 . S
C464 C463 1.387 . S
C464 C467 1.387 . S
H465 C461 0.950 . S
H466 C463 0.950 . S
C467 C458 1.390 . S
C467 H460 0.950 . S
C467 C464 1.387 . S
C468 C469 1.387 . S
C468 H472 0.950 . S
C468 C477 1.390 . S
C469 C468 1.387 . S
C469 C471 1.387 . S
H470 C477 0.950 . S
C471 C469 1.387 . S
C471 C473 1.390 . S
C471 H475 0.950 . S
H472 C468 0.950 . S
C473 C471 1.390 . S
C473 C474 1.387 . S
C473 H476 0.950 . S
C474 C473 1.387 . S
C474 C477 1.387 . S
H475 C471 0.950 . S
H476 C473 0.950 . S
C477 C468 1.390 . S
C477 H470 0.950 . S
C477 C474 1.387 . S
C478 C479 1.387 . S
C478 H482 0.950 . S
C478 C487 1.390 . S
C479 C478 1.387 . S
C479 C481 1.387 . S
H480 C487 0.950 . S
C481 C479 1.387 . S
C481 C483 1.390 . S
C481 H485 0.950 . S
H482 C478 0.950 . S
C483 C481 1.390 . S
C483 C484 1.387 1_545 S
C483 H486 0.950 1_545 S
C484 C483 1.387 1_565 S
C484 C487 1.387 1_565 S
H485 C481 0.950 . S
H486 C483 0.950 1_565 S
C487 C478 1.390 . S
C487 H480 0.950 . S
C487 C484 1.387 1_545 S
C488 C489 1.387 . S
C488 H492 0.950 . S
C488 C497 1.390 . S
C489 C488 1.387 . S
C489 C491 1.387 . S
H490 C497 0.950 . S
C491 C489 1.387 . S
C491 C493 1.390 . S
C491 H495 0.950 . S
H492 C488 0.950 . S
C493 C491 1.390 . S
C493 C494 1.387 . S
C493 H496 0.950 . S
C494 C493 1.387 . S
C494 C497 1.387 . S
H495 C491 0.950 . S
H496 C493 0.950 . S
C497 C488 1.390 . S
C497 H490 0.950 . S
C497 C494 1.387 . S
C498 C499 1.387 . S
C498 H502 0.950 . S
C498 C507 1.390 . S
C499 C498 1.387 . S
C499 C501 1.387 . S
H500 C507 0.950 . S
C501 C499 1.387 . S
C501 C503 1.390 . S
C501 H505 0.950 . S
H502 C498 0.950 . S
C503 C501 1.390 . S
C503 C504 1.387 . S
C503 H506 0.950 . S
C504 C503 1.387 . S
C504 C507 1.387 . S
H505 C501 0.950 . S
H506 C503 0.950 . S
C507 C498 1.390 . S
C507 H500 0.950 . S
C507 C504 1.387 . S
C508 C509 1.387 . S
C508 H512 0.950 . S
C508 C517 1.390 . S
C509 C508 1.387 . S
C509 C511 1.387 1_545 S
H510 C517 0.950 . S
C511 C509 1.387 1_565 S
C511 C513 1.390 . S
C511 H515 0.950 . S
H512 C508 0.950 . S
C513 C511 1.390 . S
C513 C514 1.387 . S
C513 H516 0.950 . S
C514 C513 1.387 . S
C514 C517 1.387 1_565 S
H515 C511 0.950 . S
H516 C513 0.950 . S
C517 C508 1.390 . S
C517 H510 0.950 . S
C517 C514 1.387 1_545 S
C518 C519 1.387 . S
C518 H522 0.950 . S
C518 C527 1.390 . S
C519 C518 1.387 . S
C519 C521 1.387 . S
H520 C527 0.950 . S
C521 C519 1.387 . S
C521 C523 1.390 . S
C521 H525 0.950 . S
H522 C518 0.950 . S
C523 C521 1.390 . S
C523 C524 1.387 . S
C523 H526 0.950 . S
C524 C523 1.387 . S
C524 C527 1.387 . S
H525 C521 0.950 . S
H526 C523 0.950 . S
C527 C518 1.390 . S
C527 H520 0.950 . S
C527 C524 1.387 . S
C209 C3 1.335 . S
C214 C172 1.318 . S
C219 C18 1.334 . S
C224 C122 1.318 . S
C229 C185 1.122 . S
C234 C29 1.129 . S
C239 C42 1.129 . S
C244 C200 1.120 . S
C249 C57 1.335 . S
C254 C81 1.319 . S
C259 C135 1.335 . S
C264 C70 1.318 . S
C269 C146 1.129 . S
C274 C94 1.121 . S
C279 C109 1.120 . S
C284 C159 1.129 . S
C289 C30 1.787 . S
C294 C5 1.764 . S
C299 C16 1.764 . S
C304 C43 1.787 . S
C309 C161 1.666 . S
C314 C10 1.627 . S
C319 C17 1.625 . S
C324 C148 1.665 . S
C329 C56 1.627 . S
C334 C31 1.666 . S
C339 C134 1.626 . S
C344 C44 1.665 . S
C349 C23 1.978 . S
C354 C4 1.978 . S
C359 C49 1.213 . S
C364 C36 1.213 . S
C369 C140 1.979 . S
C374 C62 1.979 . S
C379 C96 1.637 . S
C384 C75 1.601 . S
C389 C82 1.601 . S
C394 C107 1.637 . S
C399 C205 1.717 . S
C404 C69 1.697 . S
C409 C88 1.699 . S
C414 C186 1.719 . S
C419 C121 1.699 . S
C424 C95 1.719 . S
C429 C114 1.717 . S
C434 C179 1.697 . S
C439 C83 1.966 . S
C444 C68 1.966 . S
C449 C108 1.322 . S
C454 C101 1.322 . S
C459 C120 1.966 . S
C464 C174 1.966 . S
C469 C133 1.764 . S
C474 C147 1.787 . S
C479 C160 1.787 . S
C484 C55 1.765 . S
C489 C166 1.213 . S
C494 C153 1.213 . S
C499 C187 1.637 . S
C504 C173 1.601 . S
C509 C127 1.602 . S
C514 C198 1.637 . S
C519 C199 1.318 . S
C524 C192 1.318 . S
