# Generated by pormake.
# Topology yff, (5)-cn, num edge types: 1
# Building blocks:
#     Node 0, Type 0, BuildingBlock: BEQFEK_clean_sbu_0, # of connection points: 5
#     Node 1, Type 0, BuildingBlock: BEQFEK_clean_sbu_0, # of connection points: 5
#     Node 2, Type 0, BuildingBlock: BEQFEK_clean_sbu_0, # of connection points: 5
#     Node 3, Type 0, BuildingBlock: BEQFEK_clean_sbu_0, # of connection points: 5
#     Node 4, Type 0, BuildingBlock: BEQFEK_clean_sbu_0, # of connection points: 5
#     Node 5, Type 0, BuildingBlock: BEQFEK_clean_sbu_0, # of connection points: 5
#     Node 6, Type 0, BuildingBlock: BEQFEK_clean_sbu_0, # of connection points: 5
#     Node 7, Type 0, BuildingBlock: BEQFEK_clean_sbu_0, # of connection points: 5
#     Node 8, Type 0, BuildingBlock: BEQFEK_clean_sbu_0, # of connection points: 5
#     Node 9, Type 0, BuildingBlock: BEQFEK_clean_sbu_0, # of connection points: 5
#     Node 10, Type 0, BuildingBlock: BEQFEK_clean_sbu_0, # of connection points: 5
#     Node 11, Type 0, BuildingBlock: BEQFEK_clean_sbu_0, # of connection points: 5
#     Node 12, Type 0, BuildingBlock: BEQFEK_clean_sbu_0, # of connection points: 5
#     Node 13, Type 0, BuildingBlock: BEQFEK_clean_sbu_0, # of connection points: 5
#     Node 14, Type 0, BuildingBlock: BEQFEK_clean_sbu_0, # of connection points: 5
#     Node 15, Type 0, BuildingBlock: BEQFEK_clean_sbu_0, # of connection points: 5
#     Edge 16, Type (0, 0), BuildingBlock: TEMPAE_clean_linker_10, # of connection points: 2
#     Edge 17, Type (0, 0), BuildingBlock: TEMPAE_clean_linker_10, # of connection points: 2
#     Edge 18, Type (0, 0), BuildingBlock: TEMPAE_clean_linker_10, # of connection points: 2
#     Edge 19, Type (0, 0), BuildingBlock: TEMPAE_clean_linker_10, # of connection points: 2
#     Edge 20, Type (0, 0), BuildingBlock: TEMPAE_clean_linker_10, # of connection points: 2
#     Edge 21, Type (0, 0), BuildingBlock: TEMPAE_clean_linker_10, # of connection points: 2
#     Edge 22, Type (0, 0), BuildingBlock: TEMPAE_clean_linker_10, # of connection points: 2
#     Edge 23, Type (0, 0), BuildingBlock: TEMPAE_clean_linker_10, # of connection points: 2
#     Edge 24, Type (0, 0), BuildingBlock: TEMPAE_clean_linker_10, # of connection points: 2
#     Edge 25, Type (0, 0), BuildingBlock: TEMPAE_clean_linker_10, # of connection points: 2
#     Edge 26, Type (0, 0), BuildingBlock: TEMPAE_clean_linker_10, # of connection points: 2
#     Edge 27, Type (0, 0), BuildingBlock: TEMPAE_clean_linker_10, # of connection points: 2
#     Edge 28, Type (0, 0), BuildingBlock: TEMPAE_clean_linker_10, # of connection points: 2
#     Edge 29, Type (0, 0), BuildingBlock: TEMPAE_clean_linker_10, # of connection points: 2
#     Edge 30, Type (0, 0), BuildingBlock: TEMPAE_clean_linker_10, # of connection points: 2
#     Edge 31, Type (0, 0), BuildingBlock: TEMPAE_clean_linker_10, # of connection points: 2
#     Edge 32, Type (0, 0), BuildingBlock: TEMPAE_clean_linker_10, # of connection points: 2
#     Edge 33, Type (0, 0), BuildingBlock: TEMPAE_clean_linker_10, # of connection points: 2
#     Edge 34, Type (0, 0), BuildingBlock: TEMPAE_clean_linker_10, # of connection points: 2
#     Edge 35, Type (0, 0), BuildingBlock: TEMPAE_clean_linker_10, # of connection points: 2
#     Edge 36, Type (0, 0), BuildingBlock: TEMPAE_clean_linker_10, # of connection points: 2
#     Edge 37, Type (0, 0), BuildingBlock: TEMPAE_clean_linker_10, # of connection points: 2
#     Edge 38, Type (0, 0), BuildingBlock: TEMPAE_clean_linker_10, # of connection points: 2
#     Edge 39, Type (0, 0), BuildingBlock: TEMPAE_clean_linker_10, # of connection points: 2
#     Edge 40, Type (0, 0), BuildingBlock: TEMPAE_clean_linker_10, # of connection points: 2
#     Edge 41, Type (0, 0), BuildingBlock: TEMPAE_clean_linker_10, # of connection points: 2
#     Edge 42, Type (0, 0), BuildingBlock: TEMPAE_clean_linker_10, # of connection points: 2
#     Edge 43, Type (0, 0), BuildingBlock: TEMPAE_clean_linker_10, # of connection points: 2
#     Edge 44, Type (0, 0), BuildingBlock: TEMPAE_clean_linker_10, # of connection points: 2
#     Edge 45, Type (0, 0), BuildingBlock: TEMPAE_clean_linker_10, # of connection points: 2
#     Edge 46, Type (0, 0), BuildingBlock: TEMPAE_clean_linker_10, # of connection points: 2
#     Edge 47, Type (0, 0), BuildingBlock: TEMPAE_clean_linker_10, # of connection points: 2
#     Edge 48, Type (0, 0), BuildingBlock: TEMPAE_clean_linker_10, # of connection points: 2
#     Edge 49, Type (0, 0), BuildingBlock: TEMPAE_clean_linker_10, # of connection points: 2
#     Edge 50, Type (0, 0), BuildingBlock: TEMPAE_clean_linker_10, # of connection points: 2
#     Edge 51, Type (0, 0), BuildingBlock: TEMPAE_clean_linker_10, # of connection points: 2
#     Edge 52, Type (0, 0), BuildingBlock: TEMPAE_clean_linker_10, # of connection points: 2
#     Edge 53, Type (0, 0), BuildingBlock: TEMPAE_clean_linker_10, # of connection points: 2
#     Edge 54, Type (0, 0), BuildingBlock: TEMPAE_clean_linker_10, # of connection points: 2
#     Edge 55, Type (0, 0), BuildingBlock: TEMPAE_clean_linker_10, # of connection points: 2
# Relax obj value: 0.527
# Max RMSD: 0.289
# Mean RMSD: 0.277
data_MOF--net-yff--node1-BEQFEK_clean_sbu_0--edge1-TEMPAE_clean_linker_10
_symmetry_space_group_name_H-M    P1
_symmetry_Int_Tables_number       1
_symmetry_cell_setting            triclinic
loop_
_symmetry_equiv_pos_as_xyz
'x, y, z'
_cell_length_a     68.833349
_cell_length_b     66.740046
_cell_length_c     27.994248
_cell_angle_alpha  89.47865
_cell_angle_beta   89.407135
_cell_angle_gamma 88.902901
loop_
_atom_site_label
_atom_site_type_symbol
_atom_site_fract_x
_atom_site_fract_y
_atom_site_fract_z
_atom_type_partial_charge
Co0 Co 0.06712 0.03512 0.29723 0.0
Co1 Co 0.11101 0.03124 0.26775 0.0
C2 C 0.08577 0.9966 0.25834 0.0
O3 O 0.07168 0.00791 0.2717 0.0
O4 O 0.10309 0.00297 0.25651 0.0
C5 C 0.03031 0.02027 0.33186 0.0
O6 O 0.03347 0.00536 0.3023 0.0
C7 C 0.15374 0.02287 0.26431 0.0
C8 C 0.16344 0.05069 0.22866 0.0
C9 C 0.17016 0.03275 0.24805 0.0
N10 N 0.13805 0.03461 0.25508 0.0
N11 N 0.14402 0.05114 0.23368 0.0
C12 C 0.1529 0.00226 0.28562 0.0
H13 H 0.13801 0.99635 0.28385 0.0
H14 H 0.15721 0.00267 0.32361 0.0
H15 H 0.16327 0.99206 0.26672 0.0
C16 C 0.08403 0.04738 0.38724 0.0
N17 N 0.0862 0.04133 0.34191 0.0
N18 N 0.10482 0.03929 0.3316 0.0
C19 C 0.11511 0.04378 0.37099 0.0
C20 C 0.10213 0.04874 0.40757 0.0
C21 C 0.06491 0.05242 0.41046 0.0
H22 H 0.05557 0.06086 0.38497 0.0
H23 H 0.0577 0.0383 0.42097 0.0
H24 H 0.06669 0.06167 0.44279 0.0
O25 O 0.06707 0.05509 0.24595 0.0
O26 O 0.09746 0.04967 0.22068 0.0
H27 H 0.1433 0.05085 0.34342 0.0
H28 H 0.14185 0.04926 0.40801 0.0
C29 C 0.13675 0.04274 0.37414 0.0
H30 H 0.14162 0.02685 0.37254 0.0
H31 H 0.13481 0.06286 0.22273 0.0
O32 O 0.04188 0.03488 0.33162 0.0
C33 C 0.08093 0.05851 0.21686 0.0
Co34 Co 0.45993 0.0652 0.81321 0.0
Co35 Co 0.45817 0.11147 0.79573 0.0
C36 C 0.4957 0.08912 0.79104 0.0
O37 O 0.4864 0.07336 0.80075 0.0
O38 O 0.48701 0.10605 0.78603 0.0
C39 C 0.47698 0.02705 0.83464 0.0
O40 O 0.49073 0.03274 0.80486 0.0
C41 C 0.4638 0.15501 0.80241 0.0
C42 C 0.43531 0.16641 0.77719 0.0
C43 C 0.4532 0.17254 0.79324 0.0
N44 N 0.45264 0.13937 0.79199 0.0
N45 N 0.43565 0.14629 0.77695 0.0
C46 C 0.48363 0.15293 0.82346 0.0
H47 H 0.48499 0.13861 0.84375 0.0
H48 H 0.48658 0.16568 0.84735 0.0
H49 H 0.49462 0.15272 0.79418 0.0
C50 C 0.44285 0.0768 0.90503 0.0
N51 N 0.44944 0.08163 0.86123 0.0
N52 N 0.44911 0.10123 0.85579 0.0
C53 C 0.44199 0.10954 0.89641 0.0
C54 C 0.43764 0.09425 0.92864 0.0
C55 C 0.44358 0.05596 0.92546 0.0
H56 H 0.4588 0.05025 0.9241 0.0
H57 H 0.43856 0.05524 0.96314 0.0
H58 H 0.43454 0.04607 0.90352 0.0
O59 O 0.44448 0.06654 0.7551 0.0
O60 O 0.44281 0.0995 0.74309 0.0
H61 H 0.42942 0.13784 0.87625 0.0
H62 H 0.43303 0.13481 0.93985 0.0
C63 C 0.43926 0.13157 0.90395 0.0
H64 H 0.45346 0.139 0.8999 0.0
H65 H 0.42427 0.13723 0.76659 0.0
O66 O 0.46151 0.03763 0.83821 0.0
C67 C 0.43858 0.08173 0.73127 0.0
Co68 Co 0.41979 0.45118 0.34296 0.0
Co69 Co 0.37884 0.46205 0.30342 0.0
C70 C 0.40726 0.49285 0.30232 0.0
O71 O 0.41864 0.47907 0.31776 0.0
O72 O 0.38935 0.48948 0.29611 0.0
C73 C 0.43817 0.46543 0.41879 0.0
O74 O 0.42178 0.47576 0.41567 0.0
C75 C 0.33729 0.47365 0.28927 0.0
C76 C 0.32668 0.44524 0.26024 0.0
C77 C 0.32054 0.4641 0.27502 0.0
N78 N 0.35245 0.46077 0.28404 0.0
N79 N 0.346 0.44398 0.26594 0.0
C80 C 0.339 0.49475 0.30616 0.0
H81 H 0.35334 0.50078 0.29589 0.0
H82 H 0.3377 0.49511 0.3456 0.0
H83 H 0.32728 0.50442 0.29086 0.0
C84 C 0.39676 0.43606 0.42237 0.0
N85 N 0.39773 0.4445 0.37883 0.0
N86 N 0.3807 0.45223 0.36758 0.0
C87 C 0.36867 0.4502 0.40585 0.0
C88 C 0.37859 0.43987 0.44178 0.0
C89 C 0.41345 0.4258 0.44707 0.0
H90 H 0.42467 0.4208 0.42083 0.0
H91 H 0.41991 0.43617 0.47294 0.0
H92 H 0.40818 0.41265 0.46765 0.0
O93 O 0.42214 0.43284 0.28985 0.0
O94 O 0.3938 0.4431 0.2592 0.0
H95 H 0.33996 0.45476 0.37888 0.0
H96 H 0.34139 0.45457 0.44339 0.0
C97 C 0.34875 0.45929 0.40976 0.0
H98 H 0.34986 0.47584 0.40922 0.0
H99 H 0.35472 0.43134 0.25911 0.0
O100 O 0.44188 0.45198 0.38778 0.0
C101 C 0.40943 0.43237 0.25718 0.0
Co102 Co 0.0083 0.36812 0.81806 0.0
Co103 Co 0.0467 0.35669 0.87184 0.0
C104 C 0.01735 0.32597 0.8381 0.0
O105 O 0.00533 0.33885 0.82115 0.0
O106 O 0.03314 0.33132 0.85732 0.0
C107 C 0.97043 0.37632 0.76925 0.0
O108 O 0.96844 0.35717 0.7604 0.0
C109 C 0.06285 0.34562 0.96351 0.0
C110 C 0.09364 0.35361 0.95556 0.0
C111 C 0.07984 0.34784 0.98926 0.0
N112 N 0.06633 0.35057 0.91765 0.0
N113 N 0.08492 0.35476 0.91274 0.0
C114 C 0.04335 0.33933 0.98187 0.0
H115 H 0.0362 0.32997 0.9549 0.0
H116 H 0.0339 0.35272 0.98782 0.0
H117 H 0.04476 0.33081 0.01594 0.0
C118 C 0.0023 0.39283 0.90418 0.0
N119 N 0.01242 0.37891 0.87919 0.0
N120 N 0.02959 0.37624 0.8985 0.0
C121 C 0.03142 0.38935 0.93449 0.0
C122 C 0.01402 0.39991 0.94006 0.0
C123 C 0.98201 0.39963 0.89306 0.0
H124 H 0.97367 0.38707 0.8784 0.0
H125 H 0.97451 0.40544 0.92554 0.0
H126 H 0.98254 0.41186 0.86608 0.0
O127 O 0.03063 0.37486 0.77478 0.0
O128 O 0.05817 0.36774 0.81275 0.0
H129 H 0.06275 0.38947 0.93398 0.0
H130 H 0.05118 0.41105 0.96136 0.0
C131 C 0.05035 0.3946 0.95656 0.0
H132 H 0.05139 0.38758 0.99231 0.0
H133 H 0.0913 0.35983 0.881 0.0
O134 O 0.98533 0.38221 0.79111 0.0
C135 C 0.04918 0.37441 0.77618 0.0
Co136 Co 0.57677 0.9526 0.66753 0.0
Co137 Co 0.61908 0.96249 0.6996 0.0
C138 C 0.58989 0.99482 0.69322 0.0
O139 O 0.57812 0.98146 0.68047 0.0
O140 O 0.6075 0.99026 0.70284 0.0
C141 C 0.53747 0.96027 0.63835 0.0
O142 O 0.5368 0.97198 0.67582 0.0
C143 C 0.66086 0.97407 0.70528 0.0
C144 C 0.67225 0.94791 0.74588 0.0
C145 C 0.67779 0.96561 0.72409 0.0
N146 N 0.64606 0.96172 0.7153 0.0
N147 N 0.65304 0.94622 0.73981 0.0
C148 C 0.65867 0.9939 0.68036 0.0
H149 H 0.64321 0.99881 0.67949 0.0
H150 H 0.66414 0.99269 0.64314 0.0
H151 H 0.66745 0.00527 0.69858 0.0
C152 C 0.59784 0.93618 0.58597 0.0
N153 N 0.598 0.94441 0.62942 0.0
N154 N 0.61549 0.95094 0.63824 0.0
C155 C 0.62673 0.94796 0.59892 0.0
C156 C 0.61584 0.93848 0.56457 0.0
C157 C 0.58003 0.9286 0.56252 0.0
H158 H 0.57043 0.92134 0.58931 0.0
H159 H 0.57212 0.94138 0.54551 0.0
H160 H 0.58402 0.91758 0.53452 0.0
O161 O 0.57645 0.93776 0.72769 0.0
O162 O 0.60652 0.94492 0.74979 0.0
H163 H 0.656 0.95105 0.62217 0.0
H164 H 0.6533 0.9508 0.55793 0.0
C165 C 0.64667 0.95599 0.59209 0.0
H166 H 0.64575 0.97258 0.59179 0.0
H167 H 0.64469 0.93427 0.75188 0.0
O168 O 0.55262 0.94957 0.63068 0.0
C169 C 0.59038 0.93622 0.757 0.0
Co170 Co 0.53166 0.56836 0.17747 0.0
Co171 Co 0.53384 0.61379 0.20265 0.0
C172 C 0.49655 0.59252 0.21079 0.0
O173 O 0.50552 0.57685 0.19669 0.0
O174 O 0.50534 0.60897 0.21657 0.0
C175 C 0.51453 0.53131 0.15918 0.0
O176 O 0.50428 0.53596 0.19741 0.0
C177 C 0.52924 0.6578 0.20057 0.0
C178 C 0.55796 0.66654 0.22723 0.0
C179 C 0.54045 0.6743 0.21068 0.0
N180 N 0.53976 0.64115 0.21063 0.0
N181 N 0.55684 0.64649 0.22677 0.0
C182 C 0.50956 0.65763 0.17842 0.0
H183 H 0.50752 0.64339 0.15909 0.0
H184 H 0.50763 0.67054 0.15354 0.0
H185 H 0.49832 0.65875 0.20702 0.0
C186 C 0.54702 0.58286 0.08635 0.0
N187 N 0.54068 0.58633 0.131 0.0
N188 N 0.5414 0.60562 0.13993 0.0
C189 C 0.54866 0.61507 0.1009 0.0
C190 C 0.55258 0.60086 0.06598 0.0
C191 C 0.5466 0.56276 0.06292 0.0
H192 H 0.55614 0.55205 0.0827 0.0
H193 H 0.53157 0.55708 0.06442 0.0
H194 H 0.55123 0.56333 0.02494 0.0
O195 O 0.54913 0.56678 0.23252 0.0
O196 O 0.55067 0.59921 0.24936 0.0
H197 H 0.56254 0.64107 0.12719 0.0
H198 H 0.55943 0.6411 0.06312 0.0
C199 C 0.55268 0.63698 0.09792 0.0
H200 H 0.53888 0.64561 0.10261 0.0
H201 H 0.56788 0.63641 0.23675 0.0
O202 O 0.52888 0.54202 0.14759 0.0
C203 C 0.55564 0.58102 0.25728 0.0
Co204 Co 0.91718 0.53677 0.63683 0.0
Co205 Co 0.8755 0.53417 0.68021 0.0
C206 C 0.89765 0.49755 0.66928 0.0
O207 O 0.91121 0.50857 0.65368 0.0
O208 O 0.88133 0.50509 0.6819 0.0
C209 C 0.93416 0.5216 0.55725 0.0
O210 O 0.91632 0.51493 0.55698 0.0
C211 C 0.83374 0.52841 0.69686 0.0
C212 C 0.82534 0.55727 0.73 0.0
C213 C 0.81791 0.53934 0.71446 0.0
N214 N 0.84972 0.53946 0.70172 0.0
N215 N 0.84462 0.55659 0.72197 0.0
C216 C 0.83355 0.5087 0.67182 0.0
H217 H 0.84645 0.50696 0.64813 0.0
H218 H 0.82012 0.50735 0.65057 0.0
H219 H 0.83394 0.49643 0.69883 0.0
C220 C 0.89657 0.55897 0.56288 0.0
N221 N 0.8965 0.54969 0.60547 0.0
N222 N 0.87862 0.54529 0.61761 0.0
C223 C 0.86691 0.55016 0.58057 0.0
C224 C 0.87802 0.55892 0.54445 0.0
C225 C 0.9145 0.5659 0.5375 0.0
H226 H 0.92639 0.56823 0.56317 0.0
H227 H 0.91917 0.55463 0.51072 0.0
H228 H 0.91128 0.58013 0.51809 0.0
O229 O 0.92286 0.55126 0.69491 0.0
O230 O 0.89328 0.54763 0.72671 0.0
H231 H 0.83801 0.55054 0.60932 0.0
H232 H 0.83929 0.55111 0.5447 0.0
C233 C 0.846 0.54478 0.57758 0.0
H234 H 0.84482 0.52824 0.57736 0.0
H235 H 0.85426 0.56805 0.72911 0.0
O236 O 0.93906 0.53318 0.59084 0.0
C237 C 0.91074 0.55378 0.72912 0.0
Co238 Co 0.98036 0.91648 0.16909 0.0
Co239 Co 0.97332 0.87081 0.18813 0.0
C240 C 0.01191 0.88754 0.2027 0.0
O241 O 0.00447 0.90441 0.19169 0.0
O242 O 0.00196 0.87167 0.20266 0.0
C243 C 0.00232 0.93892 0.10918 0.0
O244 O 0.00879 0.92048 0.10276 0.0
C245 C 0.97491 0.82684 0.18286 0.0
C246 C 0.94497 0.81916 0.20438 0.0
C247 C 0.96266 0.81079 0.19013 0.0
N248 N 0.96491 0.84385 0.19249 0.0
N249 N 0.94706 0.83915 0.20552 0.0
C250 C 0.99527 0.82629 0.16365 0.0
H251 H 0.99822 0.8402 0.14301 0.0
H252 H 0.99778 0.81304 0.14055 0.0
H253 H 0.00552 0.82539 0.19395 0.0
C254 C 0.961 0.90697 0.07951 0.0
N255 N 0.96908 0.9011 0.12097 0.0
N256 N 0.96708 0.88165 0.12669 0.0
C257 C 0.95794 0.87444 0.08809 0.0
C258 C 0.95372 0.89032 0.05721 0.0
C259 C 0.9599 0.92829 0.06215 0.0
H260 H 0.95821 0.93861 0.09276 0.0
H261 H 0.97349 0.93176 0.04244 0.0
H262 H 0.94774 0.93105 0.03728 0.0
O263 O 0.96222 0.91903 0.2235 0.0
O264 O 0.95781 0.8864 0.23698 0.0
H265 H 0.94028 0.84994 0.10951 0.0
H266 H 0.94617 0.85047 0.0465 0.0
C267 C 0.95183 0.85322 0.08279 0.0
H268 H 0.96436 0.84297 0.08982 0.0
H269 H 0.93623 0.84962 0.2147 0.0
O270 O 0.98888 0.94204 0.13998 0.0
C271 C 0.95439 0.90479 0.24703 0.0
Co272 Co 0.92464 0.97026 0.66595 0.0
Co273 Co 0.87987 0.9656 0.68564 0.0
C274 C 0.8976 0.00554 0.68601 0.0
O275 O 0.91368 0.99683 0.67671 0.0
O276 O 0.8821 0.99568 0.69221 0.0
C277 C 0.95816 0.9915 0.63633 0.0
O278 O 0.95023 0.0059 0.66187 0.0
C279 C 0.83723 0.96943 0.68042 0.0
C280 C 0.82839 0.93996 0.70886 0.0
C281 C 0.82105 0.95809 0.69166 0.0
N282 N 0.85328 0.9585 0.69087 0.0
N283 N 0.84788 0.94091 0.7078 0.0
C284 C 0.83767 0.98975 0.6575 0.0
H285 H 0.851 0.99122 0.63521 0.0
H286 H 0.82465 0.99243 0.63511 0.0
H287 H 0.83793 0.00128 0.68577 0.0
C288 C 0.91471 0.94989 0.57783 0.0
N289 N 0.90945 0.95775 0.62009 0.0
N290 N 0.89058 0.95611 0.62644 0.0
C291 C 0.88323 0.94679 0.58809 0.0
C292 C 0.89838 0.94238 0.55637 0.0
C293 C 0.93483 0.951 0.55702 0.0
H294 H 0.93901 0.96693 0.55427 0.0
H295 H 0.93599 0.9445 0.52082 0.0
H296 H 0.94522 0.94312 0.5811 0.0
O297 O 0.92523 0.95472 0.72596 0.0
O298 O 0.89349 0.95119 0.73921 0.0
H299 H 0.85817 0.93109 0.6121 0.0
H300 H 0.85963 0.93441 0.548 0.0
C301 C 0.86234 0.94154 0.5829 0.0
H302 H 0.85316 0.9553 0.58635 0.0
H303 H 0.85752 0.92956 0.71877 0.0
O304 O 0.95095 0.97413 0.63817 0.0
C305 C 0.91116 0.948 0.75089 0.0
Co306 Co 0.53393 0.92757 0.17821 0.0
Co307 Co 0.5334 0.88283 0.21045 0.0
C308 C 0.49772 0.90722 0.21652 0.0
O309 O 0.50774 0.92208 0.20317 0.0
O310 O 0.50523 0.88969 0.21914 0.0
C311 C 0.51643 0.96423 0.14382 0.0
O312 O 0.50448 0.96282 0.18047 0.0
C313 C 0.52677 0.83942 0.21493 0.0
C314 C 0.55317 0.82885 0.25267 0.0
C315 C 0.53624 0.82232 0.23206 0.0
N316 N 0.53776 0.85529 0.22472 0.0
N317 N 0.55344 0.84887 0.24743 0.0
C318 C 0.50714 0.84103 0.19252 0.0
H319 H 0.5086 0.84699 0.15557 0.0
H320 H 0.49975 0.82642 0.1921 0.0
H321 H 0.49793 0.85184 0.21286 0.0
C322 C 0.55114 0.90986 0.09236 0.0
N323 N 0.54263 0.90775 0.1354 0.0
N324 N 0.54239 0.88867 0.1474 0.0
C325 C 0.55073 0.8779 0.11165 0.0
C326 C 0.55663 0.89108 0.07585 0.0
C327 C 0.5542 0.9297 0.06809 0.0
H328 H 0.53992 0.93658 0.05951 0.0
H329 H 0.56257 0.92843 0.03431 0.0
H330 H 0.5618 0.93982 0.0926 0.0
O331 O 0.55256 0.92933 0.23017 0.0
O332 O 0.54937 0.89799 0.25709 0.0
H333 H 0.56281 0.85178 0.14572 0.0
H334 H 0.56248 0.85052 0.08115 0.0
C335 C 0.55438 0.85576 0.11332 0.0
H336 H 0.54031 0.84799 0.1157 0.0
H337 H 0.56441 0.85817 0.25909 0.0
O338 O 0.53112 0.95251 0.14096 0.0
C339 C 0.55654 0.91544 0.26013 0.0
Co340 Co 0.57238 0.52404 0.67287 0.0
Co341 Co 0.61575 0.52586 0.70423 0.0
C342 C 0.59377 0.48795 0.71185 0.0
O343 O 0.5791 0.49716 0.69475 0.0
O344 O 0.60967 0.49687 0.7193 0.0
C345 C 0.53433 0.51055 0.65912 0.0
O346 O 0.53695 0.50291 0.70197 0.0
C347 C 0.6586 0.52059 0.70717 0.0
C348 C 0.66607 0.54677 0.75074 0.0
C349 C 0.67408 0.53027 0.72773 0.0
N350 N 0.64219 0.53098 0.71778 0.0
N351 N 0.64682 0.54661 0.74368 0.0
C352 C 0.65918 0.50124 0.68059 0.0
H353 H 0.64452 0.49469 0.6793 0.0
H354 H 0.66424 0.50398 0.64342 0.0
H355 H 0.66958 0.49053 0.69765 0.0
C356 C 0.58869 0.53938 0.58388 0.0
N357 N 0.59112 0.53249 0.62854 0.0
N358 N 0.60954 0.53351 0.6402 0.0
C359 C 0.61942 0.54171 0.60307 0.0
C360 C 0.60642 0.54573 0.56637 0.0
C361 C 0.56962 0.53965 0.55852 0.0
H362 H 0.55927 0.5499 0.57726 0.0
H363 H 0.56354 0.52439 0.5594 0.0
H364 H 0.57109 0.54443 0.5207 0.0
O365 O 0.56985 0.54261 0.7269 0.0
O366 O 0.60087 0.54389 0.7477 0.0
H367 H 0.64337 0.55542 0.63738 0.0
H368 H 0.64446 0.55639 0.57263 0.0
C369 C 0.64038 0.54713 0.60417 0.0
H370 H 0.64942 0.53322 0.60437 0.0
H371 H 0.63679 0.55714 0.75694 0.0
O372 O 0.5473 0.52161 0.64101 0.0
C373 C 0.58318 0.54937 0.75303 0.0
Co374 Co 0.96888 0.55417 0.1784 0.0
Co375 Co 0.97007 0.60066 0.18908 0.0
C376 C 0.00211 0.57658 0.22534 0.0
O377 O 0.99225 0.56133 0.21473 0.0
O378 O 0.99639 0.59429 0.21455 0.0
C379 C 0.98998 0.52148 0.14227 0.0
O380 O 0.00334 0.53528 0.14119 0.0
C381 C 0.97593 0.64474 0.18517 0.0
C382 C 0.94557 0.65527 0.19636 0.0
C383 C 0.96436 0.66186 0.19033 0.0
N384 N 0.96439 0.62871 0.18826 0.0
N385 N 0.94628 0.63517 0.19451 0.0
C386 C 0.99759 0.64349 0.1813 0.0
H387 H 0.00228 0.62911 0.1648 0.0
H388 H 0.00329 0.65624 0.16009 0.0
H389 H 0.00379 0.64418 0.21767 0.0
C390 C 0.96228 0.56552 0.07825 0.0
N391 N 0.96605 0.5704 0.1236 0.0
N392 N 0.96722 0.58996 0.12694 0.0
C393 C 0.96469 0.59821 0.08318 0.0
C394 C 0.96156 0.58293 0.05076 0.0
C395 C 0.95728 0.54479 0.06295 0.0
H396 H 0.95004 0.53666 0.09266 0.0
H397 H 0.97082 0.53649 0.05298 0.0
H398 H 0.94746 0.54518 0.03175 0.0
O399 O 0.94585 0.55707 0.21926 0.0
O400 O 0.94996 0.58942 0.23378 0.0
H401 H 0.95197 0.6276 0.08607 0.0
H402 H 0.96721 0.62325 0.03399 0.0
C403 C 0.96553 0.6202 0.07283 0.0
H404 H 0.97791 0.62668 0.09199 0.0
H405 H 0.93441 0.62578 0.19844 0.0
O406 O 0.97316 0.52602 0.15851 0.0
C407 C 0.94103 0.57308 0.24095 0.0
Co408 Co 0.41544 0.01169 0.32381 0.0
Co409 Co 0.37204 0.02072 0.29538 0.0
C410 C 0.38919 0.98024 0.28389 0.0
O411 O 0.405 0.98702 0.29918 0.0
O412 O 0.37406 0.99135 0.27959 0.0
C413 C 0.43851 0.98776 0.3827 0.0
O414 O 0.42189 0.97842 0.38453 0.0
C415 C 0.32944 0.02021 0.29209 0.0
C416 C 0.32256 0.05095 0.26664 0.0
C417 C 0.3141 0.03309 0.28031 0.0
N418 N 0.34612 0.03004 0.28548 0.0
N419 N 0.34192 0.04838 0.27014 0.0
C420 C 0.32841 0.99947 0.31251 0.0
H421 H 0.34118 0.99628 0.33545 0.0
H422 H 0.31482 0.99757 0.33362 0.0
H423 H 0.32866 0.98854 0.28287 0.0
C424 C 0.40204 0.03098 0.41195 0.0
N425 N 0.39826 0.02319 0.36906 0.0
N426 N 0.37985 0.02648 0.35878 0.0
C427 C 0.37128 0.03652 0.39535 0.0
C428 C 0.38514 0.03972 0.42998 0.0
C429 C 0.42177 0.03079 0.4342 0.0
H430 H 0.43291 0.03475 0.407 0.0
H431 H 0.42509 0.01551 0.448 0.0
H432 H 0.42264 0.04121 0.46458 0.0
O433 O 0.41967 0.03054 0.26984 0.0
O434 O 0.38868 0.03652 0.25086 0.0
H435 H 0.3496 0.05639 0.36676 0.0
H436 H 0.3468 0.05133 0.42996 0.0
C437 C 0.35092 0.04469 0.395 0.0
H438 H 0.34079 0.03253 0.38653 0.0
H439 H 0.35228 0.05918 0.26235 0.0
O440 O 0.43985 0.00338 0.35648 0.0
C441 C 0.4068 0.03936 0.24432 0.0
Co442 Co 0.44951 0.4224 0.84109 0.0
Co443 Co 0.4579 0.3794 0.80311 0.0
C444 C 0.48946 0.40757 0.80441 0.0
O445 O 0.47702 0.42046 0.81941 0.0
O446 O 0.4847 0.38955 0.79706 0.0
C447 C 0.45918 0.46105 0.87803 0.0
O448 O 0.46795 0.46434 0.83691 0.0
C449 C 0.46908 0.33641 0.79118 0.0
C450 C 0.44369 0.32614 0.75108 0.0
C451 C 0.46102 0.31959 0.77104 0.0
N452 N 0.45688 0.35214 0.7838 0.0
N453 N 0.44184 0.34586 0.7595 0.0
C454 C 0.4884 0.33765 0.81493 0.0
H455 H 0.49315 0.35337 0.81686 0.0
H456 H 0.48741 0.33154 0.85175 0.0
H457 H 0.49939 0.32847 0.79519 0.0
C458 C 0.43507 0.4001 0.92313 0.0
N459 N 0.4426 0.4003 0.87881 0.0
N460 N 0.44819 0.38207 0.86695 0.0
C461 C 0.44532 0.36984 0.90518 0.0
C462 C 0.43694 0.381 0.94193 0.0
C463 C 0.42703 0.41813 0.94852 0.0
H464 H 0.42035 0.42883 0.92269 0.0
H465 H 0.43887 0.42557 0.96764 0.0
H466 H 0.4159 0.41364 0.9753 0.0
O467 O 0.43219 0.42467 0.78698 0.0
O468 O 0.44032 0.39476 0.75736 0.0
H469 H 0.44716 0.34032 0.87608 0.0
H470 H 0.44592 0.34102 0.9407 0.0
C471 C 0.45188 0.34842 0.90818 0.0
H472 H 0.46796 0.34779 0.90958 0.0
H473 H 0.43014 0.35503 0.7492 0.0
O474 O 0.44891 0.44561 0.88359 0.0
C475 C 0.43087 0.41143 0.75488 0.0
Co476 Co 0.07686 0.44776 0.35281 0.0
Co477 Co 0.12206 0.45007 0.34619 0.0
C478 C 0.09829 0.48368 0.31205 0.0
O479 O 0.08361 0.47298 0.32085 0.0
O480 O 0.11539 0.47775 0.3227 0.0
C481 C 0.03785 0.46258 0.34672 0.0
O482 O 0.0441 0.47067 0.30661 0.0
C483 C 0.16354 0.46006 0.35111 0.0
C484 C 0.17708 0.42983 0.34691 0.0
C485 C 0.18142 0.45001 0.34903 0.0
N486 N 0.14945 0.4464 0.34968 0.0
N487 N 0.15765 0.42839 0.34748 0.0
C488 C 0.15969 0.48205 0.35671 0.0
H489 H 0.1461 0.4846 0.37765 0.0
H490 H 0.17194 0.48928 0.37487 0.0
H491 H 0.15777 0.48902 0.32089 0.0
C492 C 0.08549 0.43935 0.45324 0.0
N493 N 0.0913 0.44422 0.40878 0.0
N494 N 0.11038 0.44477 0.40695 0.0
C495 C 0.11736 0.44 0.45062 0.0
C496 C 0.10176 0.4366 0.48134 0.0
C497 C 0.06479 0.43566 0.4672 0.0
H498 H 0.05656 0.45012 0.4667 0.0
H499 H 0.06353 0.42879 0.50332 0.0
H500 H 0.05814 0.42566 0.44074 0.0
O501 O 0.08175 0.42527 0.30958 0.0
O502 O 0.11342 0.42998 0.29827 0.0
H503 H 0.1446 0.42445 0.44407 0.0
H504 H 0.14066 0.43629 0.50127 0.0
C505 C 0.13845 0.43789 0.46218 0.0
H506 H 0.14629 0.45117 0.44853 0.0
H507 H 0.14994 0.41511 0.34555 0.0
O508 O 0.0491 0.45086 0.37008 0.0
C509 C 0.0978 0.42086 0.28898 0.0
Co510 Co 0.0342 0.0757 0.80095 0.0
Co511 Co 0.02628 0.12029 0.77037 0.0
C512 C 0.99487 0.09184 0.7645 0.0
O513 O 0.00738 0.07862 0.77716 0.0
O514 O 0.99943 0.1102 0.761 0.0
C515 C 0.01975 0.04546 0.85961 0.0
O516 O 0.00468 0.05779 0.85803 0.0
C517 C 0.01442 0.16333 0.76665 0.0
C518 C 0.04197 0.17645 0.74145 0.0
C519 C 0.0233 0.18145 0.75658 0.0
N520 N 0.02745 0.1484 0.75857 0.0
N521 N 0.04377 0.15638 0.74297 0.0
C522 C 0.99373 0.16017 0.78145 0.0
H523 H 0.98803 0.14679 0.76359 0.0
H524 H 0.99288 0.15754 0.82054 0.0
H525 H 0.98447 0.17341 0.77218 0.0
C526 C 0.04621 0.09455 0.88877 0.0
N527 N 0.03959 0.096 0.84401 0.0
N528 N 0.03507 0.1148 0.83406 0.0
C529 C 0.03814 0.12585 0.87359 0.0
C530 C 0.04514 0.11321 0.90944 0.0
C531 C 0.05344 0.07558 0.91197 0.0
H532 H 0.06061 0.06574 0.88515 0.0
H533 H 0.04101 0.06773 0.92863 0.0
H534 H 0.06399 0.07887 0.94041 0.0
O535 O 0.0527 0.07671 0.74788 0.0
O536 O 0.04463 0.10741 0.72205 0.0
H537 H 0.04118 0.15602 0.84862 0.0
H538 H 0.03848 0.15358 0.91279 0.0
C539 C 0.03373 0.14777 0.87784 0.0
H540 H 0.01788 0.15042 0.87432 0.0
H541 H 0.05636 0.14812 0.73463 0.0
O542 O 0.03505 0.04969 0.83601 0.0
C543 C 0.05444 0.09103 0.71796 0.0
C544 C 0.95886 0.00857 0.55824 0.0
C545 C 0.96868 0.99709 0.59275 0.0
C546 C 0.96756 0.01279 0.51401 0.0
C547 C 0.98678 0.00587 0.50494 0.0
C548 C 0.99695 0.99465 0.54035 0.0
C549 C 0.98756 0.99001 0.58373 0.0
C550 C 0.95605 0.02422 0.4767 0.0
C551 C 0.01768 0.98759 0.53236 0.0
C552 C 0.00599 0.00034 0.37819 0.0
C553 C 0.01652 0.018 0.37237 0.0
C554 C 0.99567 0.99649 0.42068 0.0
C555 C 0.99626 0.01043 0.45842 0.0
C556 C 0.00617 0.02864 0.45199 0.0
C557 C 0.01574 0.03241 0.40858 0.0
C558 C 0.98461 0.97725 0.42572 0.0
C559 C 0.00746 0.04371 0.49175 0.0
H560 H 0.94406 0.01369 0.56536 0.0
H561 H 0.99497 0.98102 0.61063 0.0
H562 H 0.96365 0.03811 0.46623 0.0
H563 H 0.95484 0.01501 0.4441 0.0
H564 H 0.94118 0.02836 0.48946 0.0
H565 H 0.02377 0.97979 0.56425 0.0
H566 H 0.01849 0.97719 0.50169 0.0
H567 H 0.02694 0.00055 0.52332 0.0
H568 H 0.0063 0.98922 0.3502 0.0
H569 H 0.02337 0.04633 0.40394 0.0
H570 H 0.96921 0.98062 0.43526 0.0
H571 H 0.99078 0.96794 0.45508 0.0
H572 H 0.98508 0.96832 0.39242 0.0
H573 H 0.99271 0.04862 0.50348 0.0
H574 H 0.01577 0.05714 0.4809 0.0
H575 H 0.01467 0.03663 0.5231 0.0
C576 C 0.50106 0.0079 0.88376 0.0
C577 C 0.48163 0.01292 0.87391 0.0
C578 C 0.50616 0.99885 0.92733 0.0
C579 C 0.49146 0.9947 0.96155 0.0
C580 C 0.47172 0.99839 0.95039 0.0
C581 C 0.46703 0.00734 0.90647 0.0
C582 C 0.52737 0.99481 0.93782 0.0
C583 C 0.45563 0.99394 0.9858 0.0
C584 C 0.50468 0.95916 0.0623 0.0
C585 C 0.50904 0.97249 0.09883 0.0
C586 C 0.4987 0.96618 0.01755 0.0
C587 C 0.49683 0.98705 0.00953 0.0
C588 C 0.50048 0.0006 0.04705 0.0
C589 C 0.50654 0.99309 0.09163 0.0
C590 C 0.49471 0.95128 0.97871 0.0
C591 C 0.49838 0.02297 0.03971 0.0
H592 H 0.51242 0.01213 0.85876 0.0
H593 H 0.45196 0.01096 0.89875 0.0
H594 H 0.53193 0.00438 0.96773 0.0
H595 H 0.52968 0.97898 0.94919 0.0
H596 H 0.53689 0.99786 0.90639 0.0
H597 H 0.441 0.99583 0.9698 0.0
H598 H 0.4572 0.97841 -0.0001 0.0
H599 H 0.45657 0.0042 0.01662 0.0
H600 H 0.50607 0.94316 0.06881 0.0
H601 H 0.50973 0.00326 0.12037 0.0
H602 H 0.50505 0.95341 0.94851 0.0
H603 H 0.47986 0.9538 0.96457 0.0
H604 H 0.49608 0.93552 0.99156 0.0
H605 H 0.50858 0.02795 0.01125 0.0
H606 H 0.50133 0.03142 0.07279 0.0
H607 H 0.48346 0.02689 0.02768 0.0
C608 C 0.51467 0.51339 0.58517 0.0
C609 C 0.51829 0.5038 0.62901 0.0
C610 C 0.50106 0.5059 0.55348 0.0
C611 C 0.49091 0.48831 0.56583 0.0
C612 C 0.49415 0.4788 0.6105 0.0
C613 C 0.50778 0.48673 0.64174 0.0
C614 C 0.49776 0.51665 0.50643 0.0
C615 C 0.48363 0.45997 0.62471 0.0
C616 C 0.4448 0.48158 0.49637 0.0
C617 C 0.45133 0.46931 0.45879 0.0
C618 C 0.45732 0.4871 0.5328 0.0
C619 C 0.47683 0.48014 0.53171 0.0
C620 C 0.48326 0.46688 0.49532 0.0
C621 C 0.47038 0.46159 0.45914 0.0
C622 C 0.44989 0.50114 0.57118 0.0
C623 C 0.50395 0.45901 0.49342 0.0
H624 H 0.52272 0.52662 0.57522 0.0
H625 H 0.51064 0.47916 0.67542 0.0
H626 H 0.50146 0.50648 0.4764 0.0
H627 H 0.4822 0.52102 0.50301 0.0
H628 H 0.50662 0.53033 0.50268 0.0
H629 H 0.48727 0.45485 0.66148 0.0
H630 H 0.46768 0.46249 0.6226 0.0
H631 H 0.4875 0.44778 0.59944 0.0
H632 H 0.42995 0.48728 0.49687 0.0
H633 H 0.47541 0.45197 0.43041 0.0
H634 H 0.45763 0.51555 0.56851 0.0
H635 H 0.45286 0.49469 0.60707 0.0
H636 H 0.43404 0.5043 0.56834 0.0
H637 H 0.50611 0.4473 0.46581 0.0
H638 H 0.5082 0.45264 0.52863 0.0
H639 H 0.51388 0.47151 0.48524 0.0
C640 C 0.01234 0.49744 0.10026 0.0
C641 C 0.99392 0.50181 0.11984 0.0
C642 C 0.01584 0.47985 0.0743 0.0
C643 C 0.00056 0.46627 0.06797 0.0
C644 C 0.98221 0.4701 0.08964 0.0
C645 C 0.97908 0.48788 0.11525 0.0
C646 C 0.03564 0.47624 0.05191 0.0
C647 C 0.96569 0.45575 0.08436 0.0
C648 C 0.00258 0.43493 0.95575 0.0
C649 C 0.00996 0.41663 0.97311 0.0
C650 C 0.99926 0.45113 0.98645 0.0
C651 C 0.00339 0.44889 0.03571 0.0
C652 C 0.01065 0.43032 0.05352 0.0
C653 C 0.01402 0.41442 0.02182 0.0
C654 C 0.99168 0.47076 0.96602 0.0
C655 C 0.01521 0.42732 0.10577 0.0
H656 H 0.02396 0.50804 0.10401 0.0
H657 H 0.96484 0.49109 0.13054 0.0
H658 H 0.04136 0.46116 0.06199 0.0
H659 H 0.03444 0.47668 0.01241 0.0
H660 H 0.04629 0.4876 0.06279 0.0
H661 H 0.95284 0.46008 0.10656 0.0
H662 H 0.96121 0.45533 0.04643 0.0
H663 H 0.97049 0.44035 0.09463 0.0
H664 H -0.00016 0.43673 0.91789 0.0
H665 H 0.01974 0.40021 0.03513 0.0
H666 H 0.00235 0.4827 0.97205 0.0
H667 H 0.97798 0.47531 0.9845 0.0
H668 H 0.98886 0.46989 0.92709 0.0
H669 H 0.02868 0.43533 0.11435 0.0
H670 H 0.0174 0.41123 0.11513 0.0
H671 H 0.00336 0.43361 0.12862 0.0
C672 C 0.52461 0.95186 0.5578 0.0
C673 C 0.52225 0.9619 0.6014 0.0
C674 C 0.51156 0.9551 0.52024 0.0
C675 C 0.49556 0.96846 0.52668 0.0
C676 C 0.49269 0.97812 0.57112 0.0
C677 C 0.50612 0.97479 0.60788 0.0
C678 C 0.5152 0.94464 0.47326 0.0
C679 C 0.47563 0.99226 0.57953 0.0
C680 C 0.47092 0.99324 0.42001 0.0
C681 C 0.45417 0.98176 0.41601 0.0
C682 C 0.48482 0.98873 0.45508 0.0
C683 C 0.48182 0.97244 0.48695 0.0
C684 C 0.46528 0.96042 0.48203 0.0
C685 C 0.4517 0.96518 0.44652 0.0
C686 C 0.50244 0.00173 0.45892 0.0
C687 C 0.46157 0.94294 0.51532 0.0
H688 H 0.53695 0.9418 0.55246 0.0
H689 H 0.50416 0.9826 0.64141 0.0
H690 H 0.50224 0.93612 0.463 0.0
H691 H 0.51781 0.95593 0.44467 0.0
H692 H 0.52793 0.93417 0.47464 0.0
H693 H 0.47514 0.9981 0.61658 0.0
H694 H 0.47641 0.00516 0.55434 0.0
H695 H 0.46183 0.98453 0.57255 0.0
H696 H 0.47295 0.00605 0.39653 0.0
H697 H 0.43886 0.95615 0.44355 0.0
H698 H 0.5159 0.99233 0.45814 0.0
H699 H 0.50204 0.00969 0.49355 0.0
H700 H 0.50324 0.01304 0.42963 0.0
H701 H 0.47426 0.93245 0.5153 0.0
H702 H 0.44846 0.93453 0.50534 0.0
H703 H 0.45958 0.94843 0.55238 0.0
C704 C 0.48639 0.51484 0.12196 0.0
C705 C 0.50647 0.51794 0.1231 0.0
C706 C 0.47792 0.50546 0.08295 0.0
C707 C 0.48991 0.49864 0.04484 0.0
C708 C 0.5103 0.50078 0.04703 0.0
C709 C 0.51833 0.51062 0.08596 0.0
C710 C 0.45609 0.50373 0.08148 0.0
C711 C 0.5236 0.49311 0.00773 0.0
C712 C 0.46999 0.45978 0.96202 0.0
C713 C 0.46576 0.47127 0.92111 0.0
C714 C 0.47781 0.46851 0.00255 0.0
C715 C 0.48114 0.48933 0.00248 0.0
C716 C 0.47657 0.50112 0.96155 0.0
C717 C 0.46921 0.49184 0.92085 0.0
C718 C 0.48296 0.45534 0.04493 0.0
C719 C 0.47963 0.52346 0.96065 0.0
H720 H 0.47713 0.52072 0.15029 0.0
H721 H 0.53386 0.51302 0.08679 0.0
H722 H 0.45031 0.513 0.05154 0.0
H723 H 0.452 0.48802 0.07481 0.0
H724 H 0.44895 0.50875 0.11518 0.0
H725 H 0.53919 0.4947 0.01654 0.0
H726 H 0.5208 0.47707 0.00088 0.0
H727 H 0.52065 0.50149 0.97411 0.0
H728 H 0.46795 0.44373 0.96164 0.0
H729 H 0.46608 0.50063 0.88899 0.0
H730 H 0.47412 0.45987 0.07651 0.0
H731 H 0.49845 0.45718 0.05427 0.0
H732 H 0.48048 0.43923 0.03799 0.0
H733 H 0.47207 0.53053 0.99159 0.0
H734 H 0.47421 0.53063 0.92726 0.0
H735 H 0.49532 0.52659 0.9639 0.0
C736 C 0.94176 0.50243 0.48329 0.0
C737 C 0.94799 0.51519 0.51943 0.0
C738 C 0.95488 0.49443 0.44968 0.0
C739 C 0.97471 0.49936 0.4522 0.0
C740 C 0.98092 0.51314 0.48684 0.0
C741 C 0.96746 0.52088 0.52023 0.0
C742 C 0.94767 0.47984 0.41325 0.0
C743 C 0.00194 0.51901 0.48997 0.0
C744 C 0.01344 0.46184 0.41311 0.0
C745 C 0.01972 0.47013 0.36957 0.0
C746 C 0.9983 0.47085 0.43946 0.0
C747 C 0.98928 0.48865 0.42193 0.0
C748 C 0.99481 0.49651 0.37679 0.0
C749 C 0.00991 0.48705 0.35093 0.0
C750 C 0.99252 0.46178 0.48705 0.0
C751 C 0.98539 0.51538 0.35683 0.0
H752 H 0.92666 0.49814 0.48201 0.0
H753 H 0.97231 0.5309 0.54773 0.0
H754 H 0.95347 0.48347 0.37716 0.0
H755 H 0.95293 0.4645 0.42262 0.0
H756 H 0.93155 0.47978 0.41172 0.0
H757 H 0.00406 0.5313 0.5158 0.0
H758 H 0.01089 0.50584 0.50137 0.0
H759 H 0.00745 0.52386 0.4544 0.0
H760 H 0.0208 0.44864 0.4275 0.0
H761 H 0.01455 0.49344 0.31708 0.0
H762 H 0.97662 0.45937 0.48839 0.0
H763 H 0.99598 0.47226 0.51618 0.0
H764 H 0.00014 0.44725 0.49414 0.0
H765 H 0.96935 0.51409 0.35701 0.0
H766 H 0.99038 0.51872 0.31978 0.0
H767 H 0.98889 0.52827 0.37976 0.0
C768 C 0.01549 0.94921 0.03005 0.0
C769 C 0.0081 0.9547 0.07505 0.0
C770 C 0.01904 0.96364 0.99465 0.0
C771 C 0.01558 0.9841 0.00493 0.0
C772 C 0.00914 0.98984 0.05115 0.0
C773 C 0.00521 0.975 0.08561 0.0
C774 C 0.02545 0.95688 0.94549 0.0
C775 C 0.00577 0.0116 0.06365 0.0
C776 C 0.03606 0.02266 0.91854 0.0
C777 C 0.01938 0.02843 0.89326 0.0
C778 C 0.03504 0.00839 0.95557 0.0
C779 C 0.01708 0.99925 0.96609 0.0
C780 C 0.00041 0.00441 0.93911 0.0
C781 C 0.00171 0.0192 0.90351 0.0
C782 C 0.05299 0.00354 0.98433 0.0
C783 C 0.98115 0.9945 0.94819 0.0
H784 H 0.01764 0.9335 0.0216 0.0
H785 H 0.99966 0.97926 0.12054 0.0
H786 H 0.01379 0.96039 0.91946 0.0
H787 H 0.03854 0.96506 0.93361 0.0
H788 H 0.02876 0.94053 0.94431 0.0
H789 H 0.0029 0.01368 0.10243 0.0
H790 H 0.01857 0.02054 0.05307 0.0
H791 H 0.99313 0.01769 0.04358 0.0
H792 H 0.04969 0.02993 0.91082 0.0
H793 H 0.98884 0.02364 0.88373 0.0
H794 H 0.05651 0.98728 0.98256 0.0
H795 H 0.05024 0.00716 0.02245 0.0
H796 H 0.06582 0.012 0.97158 0.0
H797 H 0.98291 0.97798 0.94562 0.0
H798 H 0.96985 -0.00043 0.92249 0.0
H799 H 0.9759 0.99787 0.98489 0.0
C800 C 0.08298 0.06639 0.13025 0.0
C801 C 0.07735 0.07219 0.17626 0.0
C802 C 0.07744 0.07787 0.09032 0.0
C803 C 0.06667 0.096 0.09688 0.0
C804 C 0.06217 0.10262 0.14366 0.0
C805 C 0.06717 0.09035 0.18287 0.0
C806 C 0.08191 0.06978 0.0411 0.0
C807 C 0.05143 0.1222 0.15225 0.0
C808 C 0.06423 0.12403 0.97915 0.0
C809 C 0.04701 0.11647 0.96108 0.0
C810 C 0.06989 0.11944 0.02619 0.0
C811 C 0.05831 0.10649 0.05451 0.0
C812 C 0.03992 0.1007 0.03782 0.0
C813 C 0.03437 0.1061 0.99147 0.0
C814 C 0.08917 0.12665 0.04359 0.0
C815 C 0.02722 0.08661 0.06618 0.0
H816 H 0.09072 0.05224 0.12531 0.0
H817 H 0.06299 0.09488 0.2187 0.0
H818 H 0.06816 0.06542 0.02399 0.0
H819 H 0.08865 0.08141 0.01818 0.0
H820 H 0.0918 0.05644 0.04221 0.0
H821 H 0.0526 0.12707 0.18994 0.0
H822 H 0.05713 0.13416 0.12845 0.0
H823 H 0.03583 0.12049 0.14408 0.0
H824 H 0.07405 0.13192 0.95536 0.0
H825 H 0.02112 0.10015 0.977 0.0
H826 H 0.10027 0.11448 0.0397 0.0
H827 H 0.08826 0.13063 0.08197 0.0
H828 H 0.09414 0.13987 0.02274 0.0
H829 H 0.03406 0.07141 0.06647 0.0
H830 H 0.01247 0.08553 0.05075 0.0
H831 H 0.02573 0.0915 0.10377 0.0
C832 C 0.43183 0.06247 0.65831 0.0
C833 C 0.42696 0.07846 0.68833 0.0
C834 C 0.42122 0.059 0.61695 0.0
C835 C 0.40488 0.07145 0.60626 0.0
C836 C 0.39956 0.08734 0.63721 0.0
C837 C 0.41094 0.09091 0.67758 0.0
C838 C 0.42787 0.04231 0.58409 0.0
C839 C 0.38185 0.1004 0.62785 0.0
C840 C 0.39506 0.06946 0.47469 0.0
C841 C 0.38386 0.05222 0.47296 0.0
C842 C 0.40058 0.07734 0.51857 0.0
C843 C 0.39415 0.06803 0.56139 0.0
C844 C 0.38045 0.05247 0.55943 0.0
C845 C 0.37564 0.0445 0.51492 0.0
C846 C 0.41539 0.09373 0.51872 0.0
C847 C 0.37264 0.04271 0.60428 0.0
H848 H 0.44431 0.05295 0.66661 0.0
H849 H 0.40708 0.10315 0.70129 0.0
H850 H 0.41595 0.03165 0.57862 0.0
H851 H 0.43183 0.04868 0.54865 0.0
H852 H 0.44066 0.03383 0.59816 0.0
H853 H 0.37923 0.11158 0.6565 0.0
H854 H 0.38353 0.10849 0.59333 0.0
H855 H 0.36883 0.09096 0.62496 0.0
H856 H 0.40132 0.07535 0.44185 0.0
H857 H 0.36689 0.03118 0.5133 0.0
H858 H 0.42993 0.08702 0.52621 0.0
H859 H 0.41208 0.10482 0.54704 0.0
H860 H 0.41615 0.10171 0.48376 0.0
H861 H 0.38365 0.03189 0.61838 0.0
H862 H 0.35912 0.03444 0.59728 0.0
H863 H 0.36963 0.05403 0.63233 0.0
C864 C 0.4226 0.40099 0.21976 0.0
C865 C 0.41312 0.41968 0.21513 0.0
C866 C 0.42683 0.38923 0.17942 0.0
C867 C 0.42218 0.3968 0.13347 0.0
C868 C 0.41241 0.41562 0.12887 0.0
C869 C 0.40768 0.42664 0.16986 0.0
C870 C 0.43661 0.36897 0.18589 0.0
C871 C 0.40772 0.42461 0.08052 0.0
C872 C 0.45077 0.38576 0.02128 0.0
C873 C 0.43653 0.37686 0.99362 0.0
C874 C 0.44699 0.39075 0.06898 0.0
C875 C 0.42873 0.38612 0.08961 0.0
C876 C 0.41547 0.37455 0.06366 0.0
C877 C 0.41939 0.37033 0.01537 0.0
C878 C 0.46146 0.40338 0.09477 0.0
C879 C 0.39621 0.36858 0.08509 0.0
H880 H 0.42662 0.39553 0.25496 0.0
H881 H 0.40046 0.44115 0.16633 0.0
H882 H 0.42936 0.35758 0.16399 0.0
H883 H 0.45194 0.36965 0.17355 0.0
H884 H 0.43645 0.36395 0.22384 0.0
H885 H 0.39967 0.43914 0.08326 0.0
H886 H 0.42141 0.42711 0.06018 0.0
H887 H 0.39887 0.41416 0.05968 0.0
H888 H 0.46391 0.39103 0.00395 0.0
H889 H 0.40833 0.36363 0.99368 0.0
H890 H 0.46318 0.39826 0.13228 0.0
H891 H 0.45605 0.41915 0.09553 0.0
H892 H 0.47594 0.40303 0.0769 0.0
H893 H 0.39785 0.36409 0.12313 0.0
H894 H 0.38978 0.35603 0.06525 0.0
H895 H 0.38591 0.38156 0.08363 0.0
C896 C 0.1054 0.4078 0.53728 0.0
C897 C 0.10174 0.42829 0.53018 0.0
C898 C 0.09999 0.39837 0.5803 0.0
C899 C 0.09084 0.40984 0.6168 0.0
C900 C 0.08876 0.43089 0.6111 0.0
C901 C 0.09406 0.43984 0.56751 0.0
C902 C 0.10238 0.37592 0.58479 0.0
C903 C 0.07935 0.44371 0.64933 0.0
C904 C 0.05101 0.38614 0.69129 0.0
C905 C 0.06033 0.38239 0.73485 0.0
C906 C 0.06097 0.39459 0.65239 0.0
C907 C 0.08074 0.39965 0.65719 0.0
C908 C 0.09038 0.39562 0.70074 0.0
C909 C 0.08008 0.38693 0.73904 0.0
C910 C 0.0502 0.39845 0.60633 0.0
C911 C 0.11139 0.40098 0.70725 0.0
H912 H 0.1111 0.39891 0.50788 0.0
H913 H 0.09107 0.45567 0.56147 0.0
H914 H 0.10791 0.37161 0.62058 0.0
H915 H 0.08801 0.36889 0.58069 0.0
H916 H 0.11243 0.36971 0.55712 0.0
H917 H 0.08163 0.45993 0.64267 0.0
H918 H 0.06348 0.44107 0.6503 0.0
H919 H 0.08516 0.43966 0.68502 0.0
H920 H 0.03581 0.38255 0.68758 0.0
H921 H 0.08739 0.38415 0.77263 0.0
H922 H 0.05806 0.39121 0.5761 0.0
H923 H 0.04949 0.41478 0.59862 0.0
H924 H 0.03514 0.39276 0.60772 0.0
H925 H 0.12052 0.39428 0.67846 0.0
H926 H 0.11709 0.39582 0.74234 0.0
H927 H 0.11289 0.41748 0.7046 0.0
C928 C 0.59798 0.90747 0.81152 0.0
C929 C 0.58732 0.92507 0.80171 0.0
C930 C 0.59487 0.89673 0.85428 0.0
C931 C 0.58138 0.90435 0.88844 0.0
C932 C 0.57065 0.92224 0.87836 0.0
C933 C 0.57354 0.93217 0.83467 0.0
C934 C 0.60598 0.87736 0.86296 0.0
C935 C 0.55657 0.93131 0.91429 0.0
C936 C 0.55665 0.87887 0.99241 0.0
C937 C 0.5668 0.88711 0.03026 0.0
C938 C 0.56278 0.8822 0.94502 0.0
C939 C 0.57898 0.89452 0.93595 0.0
C940 C 0.59057 0.90066 0.97446 0.0
C941 C 0.58451 0.89645 0.02134 0.0
C942 C 0.55061 0.87451 0.90486 0.0
C943 C 0.60774 0.9141 0.96681 0.0
H944 H 0.60852 0.90199 0.78545 0.0
H945 H 0.5654 0.94586 0.82672 0.0
H946 H 0.61629 0.87919 0.89271 0.0
H947 H 0.59585 0.86535 0.87371 0.0
H948 H 0.61432 0.87243 0.83083 0.0
H949 H 0.54906 0.94499 0.90028 0.0
H950 H 0.54542 0.9203 0.92487 0.0
H951 H 0.56452 0.93536 0.94698 0.0
H952 H 0.54301 0.8715 -0.00047 0.0
H953 H 0.59232 0.90271 0.051 0.0
H954 H 0.5599 0.86982 0.87416 0.0
H955 H 0.54064 0.88665 0.89223 0.0
H956 H 0.5417 0.86165 0.91669 0.0
H957 H 0.61684 0.90905 0.93617 0.0
H958 H 0.61699 0.91471 -0.00096 0.0
H959 H 0.60238 0.92953 0.95853 0.0
C960 C 0.58485 0.58817 0.3058 0.0
C961 C 0.56864 0.57636 0.29734 0.0
C962 C 0.59659 0.58457 0.34582 0.0
C963 C 0.59132 0.5695 0.37916 0.0
C964 C 0.5752 0.55722 0.36987 0.0
C965 C 0.56429 0.56058 0.32853 0.0
C966 C 0.61413 0.59737 0.3531 0.0
C967 C 0.56852 0.54147 0.40516 0.0
C968 C 0.61866 0.5465 0.48257 0.0
C969 C 0.60926 0.55626 0.52051 0.0
C970 C 0.61486 0.55239 0.43519 0.0
C971 C 0.60093 0.56786 0.42635 0.0
C972 C 0.59336 0.57927 0.46489 0.0
C973 C 0.59795 0.57351 0.51166 0.0
C974 C 0.62406 0.54064 0.39484 0.0
C975 C 0.57839 0.59581 0.45735 0.0
H976 H 0.58831 0.60025 0.28115 0.0
H977 H 0.55167 0.55157 0.32193 0.0
H978 H 0.61023 0.6099 0.37731 0.0
H979 H 0.62619 0.58859 0.36964 0.0
H980 H 0.61937 0.60392 0.31879 0.0
H981 H 0.55716 0.53181 0.39014 0.0
H982 H 0.58085 0.53176 0.41683 0.0
H983 H 0.56237 0.54899 0.43726 0.0
H984 H 0.6275 0.5332 0.48966 0.0
H985 H 0.5908 0.58103 0.5414 0.0
H986 H 0.62766 0.55067 0.3643 0.0
H987 H 0.61366 0.52944 0.38204 0.0
H988 H 0.63747 0.53255 0.40647 0.0
H989 H 0.58314 0.60624 0.42872 0.0
H990 H 0.57556 0.60453 0.4904 0.0
H991 H 0.56453 0.58919 0.44595 0.0
C992 C 0.94221 0.59744 0.98304 0.0
C993 C 0.95683 0.58429 -0.0006 0.0
C994 C 0.93527 0.59611 0.93618 0.0
C995 C 0.94277 0.58089 0.90584 0.0
C996 C 0.95838 0.56843 0.9214 0.0
C997 C 0.96544 0.57056 0.96775 0.0
C998 C 0.91911 0.61014 0.92024 0.0
C999 C 0.96664 0.5518 0.89057 0.0
C1000 C 0.90956 0.55635 0.8177 0.0
C1001 C 0.91745 0.5627 0.77394 0.0
C1002 C 0.91731 0.5627 0.86098 0.0
C1003 C 0.93293 0.57623 0.8604 0.0
C1004 C 0.94014 0.58368 0.8163 0.0
C1005 C 0.93253 0.57653 0.77347 0.0
C1006 C 0.90949 0.55404 0.90722 0.0
C1007 C 0.95629 0.59865 0.81433 0.0
H1008 H 0.93547 0.60804 0.00753 0.0
H1009 H 0.97702 0.56065 0.98022 0.0
H1010 H 0.92175 0.61549 0.88313 0.0
H1011 H 0.90517 0.60207 0.92064 0.0
H1012 H 0.91753 0.62333 0.94402 0.0
H1013 H 0.97951 0.54426 0.9069 0.0
H1014 H 0.95536 0.54041 0.88499 0.0
H1015 H 0.97089 0.55771 0.85492 0.0
H1016 H 0.89796 0.54558 0.81814 0.0
H1017 H 0.93851 0.58162 0.73958 0.0
H1018 H 0.90481 0.56625 0.93162 0.0
H1019 H 0.92113 0.54525 0.92547 0.0
H1020 H 0.89697 0.54411 0.90152 0.0
H1021 H 0.95335 0.61096 0.83995 0.0
H1022 H 0.95818 0.6052 0.77799 0.0
H1023 H 0.97016 0.59122 0.82483 0.0
C1024 C 0.92579 0.89735 0.29966 0.0
C1025 C 0.94151 0.90961 0.28799 0.0
C1026 C 0.91411 0.90125 0.34012 0.0
C1027 C 0.9188 0.91725 0.37049 0.0
C1028 C 0.93438 0.92995 0.35806 0.0
C1029 C 0.94536 0.92613 0.31656 0.0
C1030 C 0.89714 0.8879 0.35101 0.0
C1031 C 0.94021 0.94692 0.38994 0.0
C1032 C 0.88907 0.94058 0.47065 0.0
C1033 C 0.89827 0.93188 0.51025 0.0
C1034 C 0.89408 0.93439 0.42417 0.0
C1035 C 0.90898 0.91967 0.41773 0.0
C1036 C 0.91678 0.9095 0.45801 0.0
C1037 C 0.91102 0.91552 0.50385 0.0
C1038 C 0.88477 0.94491 0.38209 0.0
C1039 C 0.93286 0.89392 0.45308 0.0
H1040 H 0.92265 0.88471 0.27716 0.0
H1041 H 0.95755 0.93556 0.30766 0.0
H1042 H 0.90088 0.87757 0.3809 0.0
H1043 H 0.88424 0.89696 0.36232 0.0
H1044 H 0.89322 0.87877 0.31968 0.0
H1045 H 0.95139 0.95647 0.37285 0.0
H1046 H 0.92745 0.95654 0.39929 0.0
H1047 H 0.94615 0.94068 0.42379 0.0
H1048 H 0.87914 0.95321 0.47576 0.0
H1049 H 0.918 0.90879 0.5348 0.0
H1050 H 0.88209 0.93419 0.35291 0.0
H1051 H 0.89469 0.95649 0.36789 0.0
H1052 H 0.87081 0.9524 0.39234 0.0
H1053 H 0.92918 0.88267 0.42592 0.0
H1054 H 0.93586 0.886 0.48738 0.0
H1055 H 0.94638 0.9013 0.44091 0.0
C1056 C 0.92551 0.90192 0.00964 0.0
C1057 C 0.94278 0.89058 0.01224 0.0
C1058 C 0.9183 0.90849 0.96547 0.0
C1059 C 0.92828 0.90288 0.92303 0.0
C1060 C 0.94426 0.8892 0.92548 0.0
C1061 C 0.95153 0.8834 0.97035 0.0
C1062 C 0.90147 0.92334 0.96481 0.0
C1063 C 0.95478 0.88217 0.88098 0.0
C1064 C 0.90487 0.91914 0.80601 0.0
C1065 C 0.9155 0.93626 0.79445 0.0
C1066 C 0.90927 0.90763 0.84692 0.0
C1067 C 0.92411 0.91389 0.87775 0.0
C1068 C 0.9347 0.93135 0.86637 0.0
C1069 C 0.93051 0.94209 0.82434 0.0
C1070 C 0.89818 0.88873 0.85698 0.0
C1071 C 0.95025 0.93894 0.89903 0.0
H1072 H 0.91878 0.90735 0.04238 0.0
H1073 H 0.96486 0.87452 0.97259 0.0
H1074 H 0.90703 0.93851 0.95667 0.0
H1075 H 0.89098 0.91965 0.9366 0.0
H1076 H 0.89365 0.92388 -0.00029 0.0
H1077 H 0.96394 0.8686 0.88808 0.0
H1078 H 0.94432 0.8788 0.85237 0.0
H1079 H 0.96435 0.89421 0.86751 0.0
H1080 H 0.8934 0.91454 0.78247 0.0
H1081 H 0.93864 0.95539 0.81543 0.0
H1082 H 0.89008 0.89008 0.89127 0.0
H1083 H 0.90847 0.87582 0.86073 0.0
H1084 H 0.88771 0.88544 0.82828 0.0
H1085 H 0.9441 0.94144 0.93535 0.0
H1086 H 0.95657 0.95318 0.88588 0.0
H1087 H 0.96214 0.92758 0.90238 0.0
C1088 C 0.62329 0.92097 0.48883 0.0
C1089 C 0.61846 0.93877 0.5124 0.0
C1090 C 0.61753 0.91809 0.44145 0.0
C1091 C 0.60611 0.93312 0.41838 0.0
C1092 C 0.60318 0.95196 0.44043 0.0
C1093 C 0.60972 0.95465 0.48708 0.0
C1094 C 0.62168 0.89811 0.41834 0.0
C1095 C 0.59076 0.96828 0.41785 0.0
C1096 C 0.5875 0.92862 0.29156 0.0
C1097 C 0.56954 0.91962 0.29988 0.0
C1098 C 0.60005 0.93241 0.32958 0.0
C1099 C 0.59401 0.92785 0.37686 0.0
C1100 C 0.57573 0.9189 0.38515 0.0
C1101 C 0.56391 0.91452 0.34639 0.0
C1102 C 0.61969 0.94124 0.31927 0.0
C1103 C 0.56836 0.91441 0.43503 0.0
H1104 H 0.62989 0.90865 0.50876 0.0
H1105 H 0.60577 0.9683 0.50588 0.0
H1106 H 0.60874 0.88854 0.42222 0.0
H1107 H 0.62478 0.9 0.3796 0.0
H1108 H 0.63419 0.89017 0.43531 0.0
H1109 H 0.59277 0.98298 0.43526 0.0
H1110 H 0.59405 0.96989 0.3792 0.0
H1111 H 0.57523 0.96427 0.42156 0.0
H1112 H 0.59185 0.93233 0.25526 0.0
H1113 H 0.54994 0.90764 0.35252 0.0
H1114 H 0.63126 0.93176 0.3358 0.0
H1115 H 0.6205 0.95632 0.33531 0.0
H1116 H 0.62272 0.94259 0.28033 0.0
H1117 H 0.57848 0.90381 0.45327 0.0
H1118 H 0.55368 0.90778 0.43519 0.0
H1119 H 0.56767 0.92842 0.45609 0.0
C1120 C 0.5777 0.59131 0.00682 0.0
C1121 C 0.56139 0.60319 0.01822 0.0
C1122 C 0.58229 0.58691 0.95927 0.0
C1123 C 0.57068 0.59532 0.92248 0.0
C1124 C 0.55602 0.60975 0.93379 0.0
C1125 C 0.55128 0.61331 0.98196 0.0
C1126 C 0.59796 0.57133 0.94906 0.0
C1127 C 0.54415 0.61995 0.89533 0.0
C1128 C 0.58949 0.57982 0.80062 0.0
C1129 C 0.5781 0.56308 0.7921 0.0
C1130 C 0.58605 0.59178 0.84091 0.0
C1131 C 0.57159 0.58614 0.87442 0.0
C1132 C 0.55957 0.56964 0.86479 0.0
C1133 C 0.56275 0.55855 0.82311 0.0
C1134 C 0.59854 0.60979 0.84857 0.0
C1135 C 0.54433 0.56271 0.90019 0.0
H1136 H 0.58555 0.58369 0.0353 0.0
H1137 H 0.53875 0.62266 0.99104 0.0
H1138 H 0.59118 0.55743 0.93624 0.0
H1139 H 0.60794 0.57662 0.92055 0.0
H1140 H 0.60665 0.56753 0.98124 0.0
H1141 H 0.53694 0.63389 0.9086 0.0
H1142 H 0.55338 0.62366 0.86385 0.0
H1143 H 0.53271 0.60971 0.88332 0.0
H1144 H 0.60125 0.5834 0.77609 0.0
H1145 H 0.55404 0.54551 0.81636 0.0
H1146 H 0.61083 0.60556 0.8721 0.0
H1147 H 0.59014 0.62211 0.86605 0.0
H1148 H 0.60468 0.61545 0.81428 0.0
H1149 H 0.5515 0.55742 0.93346 0.0
H1150 H 0.53558 0.55029 0.88612 0.0
H1151 H 0.53434 0.57528 0.90986 0.0
C1152 C 0.93096 0.57887 0.32445 0.0
C1153 C 0.92624 0.57225 0.27897 0.0
C1154 C 0.91812 0.57638 0.36298 0.0
C1155 C 0.89973 0.56778 0.35535 0.0
C1156 C 0.8944 0.56223 0.30862 0.0
C1157 C 0.908 0.56402 0.27103 0.0
C1158 C 0.92491 0.58173 0.41229 0.0
C1159 C 0.87465 0.55392 0.29851 0.0
C1160 C 0.88281 0.54207 0.46782 0.0
C1161 C 0.87483 0.55845 0.49258 0.0
C1162 C 0.88959 0.54429 0.42081 0.0
C1163 C 0.88717 0.56306 0.39736 0.0
C1164 C 0.87606 0.5785 0.4197 0.0
C1165 C 0.87046 0.57622 0.46784 0.0
C1166 C 0.90186 0.52757 0.39945 0.0
C1167 C 0.87219 0.59828 0.39481 0.0
H1168 H 0.94519 0.58505 0.33037 0.0
H1169 H 0.90437 0.55906 0.23549 0.0
H1170 H 0.91391 0.59122 0.43097 0.0
H1171 H 0.927 0.56775 0.43347 0.0
H1172 H 0.93888 0.58979 0.41141 0.0
H1173 H 0.87118 0.55486 0.25987 0.0
H1174 H 0.87429 0.53795 0.30964 0.0
H1175 H 0.86316 0.56209 0.31902 0.0
H1176 H 0.88631 0.52839 0.48743 0.0
H1177 H 0.86434 0.5889 0.48715 0.0
H1178 H 0.91744 0.53143 0.40192 0.0
H1179 H 0.89854 0.52552 0.3612 0.0
H1180 H 0.89972 0.5131 0.41855 0.0
H1181 H 0.88522 0.60774 0.3972 0.0
H1182 H 0.85974 0.60653 0.41153 0.0
H1183 H 0.86912 0.59603 0.35639 0.0
C1184 C 0.41352 0.08404 0.98941 0.0
C1185 C 0.42993 0.0952 0.97789 0.0
C1186 C 0.40953 0.07843 0.03672 0.0
C1187 C 0.42191 0.08484 0.07345 0.0
C1188 C 0.43707 0.09825 0.06248 0.0
C1189 C 0.44111 0.10309 0.01444 0.0
C1190 C 0.39337 0.0639 0.0465 0.0
C1191 C 0.44997 0.10618 0.1009 0.0
C1192 C 0.40259 0.07063 0.19605 0.0
C1193 C 0.41276 0.05259 0.20466 0.0
C1194 C 0.4066 0.0823 0.1553 0.0
C1195 C 0.42045 0.07523 0.12145 0.0
C1196 C 0.43127 0.05735 0.13098 0.0
C1197 C 0.42752 0.04643 0.17305 0.0
C1198 C 0.39537 0.10168 0.14748 0.0
C1199 C 0.44584 0.04899 0.09527 0.0
H1200 H 0.40493 0.07801 0.96081 0.0
H1201 H 0.45381 0.11175 0.00534 0.0
H1202 H 0.39971 0.0492 0.05771 0.0
H1203 H 0.38388 0.06931 0.07608 0.0
H1204 H 0.38425 0.06157 0.01459 0.0
H1205 H 0.45792 0.11962 0.08845 0.0
H1206 H 0.44137 0.11008 0.13336 0.0
H1207 H 0.46082 0.09445 0.11113 0.0
H1208 H 0.39129 0.07545 0.2209 0.0
H1209 H 0.43529 0.03241 0.17973 0.0
H1210 H 0.38398 0.09946 0.12043 0.0
H1211 H 0.40509 0.11354 0.13369 0.0
H1212 H 0.3882 0.10701 0.18088 0.0
H1213 H 0.43828 0.04499 0.06193 0.0
H1214 H 0.45363 0.03542 0.10902 0.0
H1215 H 0.45672 0.06043 0.08571 0.0
C1216 C 0.42475 0.40964 0.66773 0.0
C1217 C 0.41856 0.41572 0.71315 0.0
C1218 C 0.41402 0.41493 0.6271 0.0
C1219 C 0.39631 0.42594 0.63229 0.0
C1220 C 0.38957 0.43137 0.67839 0.0
C1221 C 0.40099 0.42652 0.71831 0.0
C1222 C 0.42211 0.40943 0.57847 0.0
C1223 C 0.37051 0.44256 0.68541 0.0
C1224 C 0.38486 0.45481 0.51955 0.0
C1225 C 0.3752 0.44023 0.49368 0.0
C1226 C 0.39052 0.45109 0.56674 0.0
C1227 C 0.38568 0.43266 0.58886 0.0
C1228 C 0.37349 0.41921 0.56495 0.0
C1229 C 0.36868 0.42299 0.51702 0.0
C1230 C 0.40392 0.46567 0.59005 0.0
C1231 C 0.36738 0.39979 0.58801 0.0
H1232 H 0.43842 0.40144 0.66379 0.0
H1233 H 0.39615 0.43107 0.75363 0.0
H1234 H 0.41136 0.40075 0.5584 0.0
H1235 H 0.42504 0.42329 0.55764 0.0
H1236 H 0.43581 0.40043 0.58075 0.0
H1237 H 0.36639 0.44383 0.72375 0.0
H1238 H 0.37154 0.45787 0.66997 0.0
H1239 H 0.35875 0.4349 0.66634 0.0
H1240 H 0.39018 0.46797 0.50092 0.0
H1241 H 0.36142 0.41165 0.49666 0.0
H1242 H 0.41911 0.45989 0.58702 0.0
H1243 H 0.40044 0.46738 0.62855 0.0
H1244 H 0.40316 0.48068 0.57259 0.0
H1245 H 0.37961 0.38875 0.58619 0.0
H1246 H 0.35473 0.39335 0.56961 0.0
H1247 H 0.36358 0.40201 0.62624 0.0
C1248 C 0.06713 0.36112 0.06696 0.0
C1249 C 0.08191 0.35107 0.04132 0.0
C1250 C 0.07066 0.36948 0.11161 0.0
C1251 C 0.08925 0.36707 0.13216 0.0
C1252 C 0.1036 0.35507 0.10896 0.0
C1253 C 0.0999 0.34756 0.06325 0.0
C1254 C 0.05503 0.38262 0.13421 0.0
C1255 C 0.12328 0.35129 0.13085 0.0
C1256 C 0.10434 0.41155 0.20496 0.0
C1257 C 0.09795 0.406 0.25065 0.0
C1258 C 0.10221 0.39865 0.16623 0.0
C1259 C 0.09426 0.37944 0.17398 0.0
C1260 C 0.08909 0.37326 0.22087 0.0
C1261 C 0.09053 0.38687 0.25861 0.0
C1262 C 0.10734 0.40611 0.11664 0.0
C1263 C 0.08138 0.35261 0.23085 0.0
H1264 H 0.05321 0.36407 0.05083 0.0
H1265 H 0.11136 0.33968 0.0438 0.0
H1266 H 0.05317 0.37894 0.17264 0.0
H1267 H 0.05936 0.39853 0.13154 0.0
H1268 H 0.04078 0.38112 0.11646 0.0
H1269 H 0.13096 0.33828 0.11422 0.0
H1270 H 0.13237 0.36469 0.12555 0.0
H1271 H 0.12191 0.34852 0.16988 0.0
H1272 H 0.10996 0.42645 0.19908 0.0
H1273 H 0.08575 0.38262 0.29426 0.0
H1274 H 0.0941 0.40668 0.09432 0.0
H1275 H 0.11788 0.39566 0.09927 0.0
H1276 H 0.1137 0.42128 0.11694 0.0
H1277 H 0.06626 0.35172 0.2178 0.0
H1278 H 0.08135 0.34893 0.26963 0.0
H1279 H 0.09021 0.34111 0.21162 0.0
C1280 C 0.09604 0.04052 0.49212 0.0
C1281 C 0.10541 0.05273 0.45851 0.0
C1282 C 0.09169 0.04752 0.53801 0.0
C1283 C 0.09754 0.06694 0.551 0.0
C1284 C 0.10935 0.07817 0.51921 0.0
C1285 C 0.11292 0.07104 0.47273 0.0
C1286 C 0.0788 0.0351 0.57018 0.0
C1287 C 0.11664 0.09851 0.53261 0.0
C1288 C 0.06032 0.09309 0.63039 0.0
C1289 C 0.06709 0.08788 0.67583 0.0
C1290 C 0.07064 0.08716 0.58926 0.0
C1291 C 0.08853 0.07644 0.59392 0.0
C1292 C 0.09619 0.07264 0.6399 0.0
C1293 C 0.08513 0.07799 0.68043 0.0
C1294 C 0.06158 0.09098 0.54102 0.0
C1295 C 0.11556 0.06204 0.64639 0.0
H1296 H 0.09024 0.02636 0.48074 0.0
H1297 H 0.12011 0.08048 0.44654 0.0
H1298 H 0.08476 0.03413 0.60677 0.0
H1299 H 0.06419 0.04237 0.57277 0.0
H1300 H 0.07707 0.01965 0.5566 0.0
H1301 H 0.12898 0.10309 0.50933 0.0
H1302 H 0.10474 0.10983 0.52864 0.0
H1303 H 0.12133 0.0986 0.57042 0.0
H1304 H 0.04629 0.10061 0.62695 0.0
H1305 H 0.09044 0.07414 0.71575 0.0
H1306 H 0.05729 0.07651 0.52543 0.0
H1307 H 0.07217 0.09791 0.51609 0.0
H1308 H 0.04847 0.10092 0.54333 0.0
H1309 H 0.11391 0.04574 0.64076 0.0
H1310 H 0.12133 0.06421 0.68286 0.0
H1311 H 0.12636 0.06748 0.61982 0.0
C1312 C 0.04577 0.89196 0.17902 0.0
C1313 C 0.03247 0.88775 0.21583 0.0
C1314 C 0.06088 0.90544 0.18621 0.0
C1315 C 0.06248 0.91476 0.23117 0.0
C1316 C 0.05161 0.90729 0.27051 0.0
C1317 C 0.03665 0.89375 0.26231 0.0
C1318 C 0.07273 0.91224 0.14369 0.0
C1319 C 0.05339 0.91617 0.31956 0.0
C1320 C 0.09468 0.95981 0.25324 0.0
C1321 C 0.08132 0.97566 0.24594 0.0
C1322 C 0.08916 0.93974 0.24708 0.0
C1323 C 0.06989 0.9356 0.23327 0.0
C1324 C 0.05676 0.95172 0.22344 0.0
C1325 C 0.06263 0.97143 0.22999 0.0
C1326 C 0.10369 0.92313 0.25747 0.0
C1327 C 0.03617 0.94825 0.20745 0.0
H1328 H 0.04259 0.88728 0.14296 0.0
H1329 H 0.02639 0.89049 0.29088 0.0
H1330 H 0.06563 0.9257 0.12748 0.0
H1331 H 0.0876 0.91633 0.15441 0.0
H1332 H 0.07374 0.90042 0.11604 0.0
H1333 H 0.04736 0.90611 0.34762 0.0
H1334 H 0.06878 0.91917 0.32778 0.0
H1335 H 0.04518 0.93065 0.32077 0.0
H1336 H 0.10915 0.963 0.26565 0.0
H1337 H 0.05236 0.98364 0.22343 0.0
H1338 H 0.10163 0.91006 0.23396 0.0
H1339 H 0.10176 0.918 0.295 0.0
H1340 H 0.11884 0.92837 0.25313 0.0
H1341 H 0.03629 0.93898 0.17479 0.0
H1342 H 0.02811 0.96245 0.19958 0.0
H1343 H 0.02809 0.93999 0.23566 0.0
C1344 C 0.59235 0.03041 0.72289 0.0
C1345 C 0.5819 0.01545 0.70006 0.0
C1346 C 0.58318 0.04864 0.73615 0.0
C1347 C 0.56304 0.0516 0.72765 0.0
C1348 C 0.55294 0.03717 0.70122 0.0
C1349 C 0.56258 0.01958 0.68706 0.0
C1350 C 0.59488 0.06405 0.76164 0.0
C1351 C 0.53141 0.03936 0.69138 0.0
C1352 C 0.52631 0.07221 0.81356 0.0
C1353 C 0.51687 0.08643 0.78436 0.0
C1354 C 0.54334 0.0624 0.79825 0.0
C1355 C 0.55137 0.06733 0.75299 0.0
C1356 C 0.54385 0.08421 0.72756 0.0
C1357 C 0.52636 0.09346 0.74319 0.0
C1358 C 0.55087 0.04473 0.82721 0.0
C1359 C 0.55298 0.09096 0.68113 0.0
H1360 H 0.60742 0.0276 0.73218 0.0
H1361 H 0.55449 0.00847 0.66801 0.0
H1362 H 0.58827 0.0793 0.75863 0.0
H1363 H 0.59589 0.05993 0.80002 0.0
H1364 H 0.60994 0.06436 0.747 0.0
H1365 H 0.52585 0.0268 0.66996 0.0
H1366 H 0.52313 0.03989 0.72561 0.0
H1367 H 0.52833 0.05354 0.67177 0.0
H1368 H 0.51913 0.06709 0.84602 0.0
H1369 H 0.51925 0.10468 0.72084 0.0
H1370 H 0.56686 0.04535 0.83075 0.0
H1371 H 0.54746 0.0306 0.80867 0.0
H1372 H 0.54425 0.04416 0.86356 0.0
H1373 H 0.56898 0.08857 0.68157 0.0
H1374 H 0.54964 0.10705 0.67392 0.0
H1375 H 0.5471 0.08216 0.65132 0.0
C1376 C 0.43598 0.51426 0.28929 0.0
C1377 C 0.4157 0.51268 0.29096 0.0
C1378 C 0.44486 0.53229 0.27746 0.0
C1379 C 0.43327 0.54956 0.26742 0.0
C1380 C 0.41275 0.54836 0.27029 0.0
C1381 C 0.40415 0.52985 0.28179 0.0
C1382 C 0.46677 0.53258 0.27402 0.0
C1383 C 0.39993 0.56658 0.26159 0.0
C1384 C 0.4689 0.59138 0.26868 0.0
C1385 C 0.4757 0.59025 0.22147 0.0
C1386 C 0.45255 0.58045 0.2834 0.0
C1387 C 0.44322 0.56799 0.25019 0.0
C1388 C 0.4483 0.56944 0.20115 0.0
C1389 C 0.4645 0.58059 0.18743 0.0
C1390 C 0.44707 0.58 0.33566 0.0
C1391 C 0.43882 0.55659 0.16424 0.0
H1392 H 0.44511 0.50117 0.29627 0.0
H1393 H 0.38847 0.52883 0.28369 0.0
H1394 H 0.47117 0.53741 0.23762 0.0
H1395 H 0.47256 0.5435 0.2996 0.0
H1396 H 0.47363 0.51769 0.28148 0.0
H1397 H 0.3843 0.56279 0.26056 0.0
H1398 H 0.40206 0.57752 0.2906 0.0
H1399 H 0.40398 0.57411 0.22754 0.0
H1400 H 0.47757 0.59881 0.29511 0.0
H1401 H 0.46979 0.57976 0.15084 0.0
H1402 H 0.45432 0.56692 0.35312 0.0
H1403 H 0.43115 0.57844 0.34052 0.0
H1404 H 0.45175 0.59377 0.35396 0.0
H1405 H 0.44459 0.541 0.16752 0.0
H1406 H 0.44184 0.56203 0.12732 0.0
H1407 H 0.42288 0.5562 0.16996 0.0
C1408 C 0.91646 0.46687 0.64709 0.0
C1409 C 0.90194 0.47592 0.67548 0.0
C1410 C 0.92409 0.44787 0.65863 0.0
C1411 C 0.91718 0.43779 0.69995 0.0
C1412 C 0.90117 0.44598 0.72593 0.0
C1413 C 0.89364 0.465 0.71321 0.0
C1414 C 0.94091 0.43958 0.62937 0.0
C1415 C 0.89328 0.43563 0.76995 0.0
C1416 C 0.93985 0.38628 0.7254 0.0
C1417 C 0.95571 0.39145 0.75361 0.0
C1418 C 0.92661 0.40106 0.70886 0.0
C1419 C 0.92931 0.42137 0.72105 0.0
C1420 C 0.9449 0.42649 0.75086 0.0
C1421 C 0.95791 0.41154 0.76639 0.0
C1422 C 0.91018 0.39506 0.67705 0.0
C1423 C 0.94832 0.44794 0.76509 0.0
H1424 H 0.92265 0.47513 0.61724 0.0
H1425 H 0.88231 0.47192 0.73505 0.0
H1426 H 0.95461 0.44146 0.64926 0.0
H1427 H 0.93922 0.42334 0.62304 0.0
H1428 H 0.94233 0.4474 0.59432 0.0
H1429 H 0.87863 0.44157 0.78006 0.0
H1430 H 0.89244 0.41923 0.76444 0.0
H1431 H 0.90322 0.43805 0.80023 0.0
H1432 H 0.93802 0.37079 0.71538 0.0
H1433 H 0.97009 0.41578 0.78797 0.0
H1434 H 0.91319 0.4002 0.63995 0.0
H1435 H 0.89632 0.40234 0.68869 0.0
H1436 H 0.90832 0.37857 0.67676 0.0
H1437 H 0.95202 0.45699 0.73295 0.0
H1438 H 0.96031 0.44917 0.79112 0.0
H1439 H 0.93493 0.45461 0.78118 0.0
C1440 C 0.97046 0.06489 0.76286 0.0
C1441 C 0.9748 0.08512 0.7551 0.0
C1442 C 0.95224 0.05734 0.75233 0.0
C1443 C 0.93757 0.07036 0.73381 0.0
C1444 C 0.94137 0.09111 0.72859 0.0
C1445 C 0.96004 0.09823 0.7389 0.0
C1446 C 0.94902 0.03522 0.761 0.0
C1447 C 0.92609 0.10588 0.71141 0.0
C1448 C 0.90897 0.03774 0.65545 0.0
C1449 C 0.8983 0.02748 0.69052 0.0
C1450 C 0.91991 0.05442 0.66725 0.0
C1451 C 0.91959 0.06126 0.71499 0.0
C1452 C 0.90554 0.0536 0.7474 0.0
C1453 C 0.89523 0.03638 0.73512 0.0
C1454 C 0.93428 0.06229 0.63089 0.0
C1455 C 0.90341 0.06179 0.79717 0.0
H1456 H 0.98149 0.05463 0.77655 0.0
H1457 H 0.96308 0.11398 0.73369 0.0
H1458 H 0.94095 0.03324 0.79515 0.0
H1459 H 0.94034 0.02853 0.73241 0.0
H1460 H 0.96294 0.02659 0.76373 0.0
H1461 H 0.92677 0.11998 0.73206 0.0
H1462 H 0.92907 0.10979 0.67346 0.0
H1463 H 0.91117 0.09996 0.71453 0.0
H1464 H 0.91109 0.03094 0.62066 0.0
H1465 H 0.88677 0.02865 0.76221 0.0
H1466 H 0.94916 0.05702 0.64043 0.0
H1467 H 0.93411 0.07889 0.63075 0.0
H1468 H 0.93115 0.05706 0.59424 0.0
H1469 H 0.91376 0.05385 0.82119 0.0
H1470 H 0.8885 0.05945 0.81145 0.0
H1471 H 0.90661 0.07804 0.79777 0.0
C1472 C 0.47173 0.92998 0.24666 0.0
C1473 C 0.47709 0.91109 0.22907 0.0
C1474 C 0.45226 0.93541 0.2541 0.0
C1475 C 0.43753 0.92161 0.24338 0.0
C1476 C 0.44283 0.9021 0.22762 0.0
C1477 C 0.46264 0.89702 0.2207 0.0
C1478 C 0.44754 0.95625 0.27225 0.0
C1479 C 0.42772 0.88687 0.21605 0.0
C1480 C 0.39455 0.94483 0.30305 0.0
C1481 C 0.38998 0.95934 0.26824 0.0
C1482 C 0.40797 0.92931 0.293 0.0
C1483 C 0.41688 0.92859 0.24726 0.0
C1484 C 0.40904 0.94051 0.20974 0.0
C1485 C 0.39554 0.95588 0.22077 0.0
C1486 C 0.41518 0.91624 0.33356 0.0
C1487 C 0.41746 0.93958 0.15988 0.0
H1488 H 0.48289 0.94076 0.25401 0.0
H1489 H 0.46675 0.88239 0.20699 0.0
H1490 H 0.43894 0.96478 0.24532 0.0
H1491 H 0.43868 0.95535 0.30546 0.0
H1492 H 0.46077 0.96487 0.28006 0.0
H1493 H 0.43369 0.87135 0.21948 0.0
H1494 H 0.41468 0.88844 0.23947 0.0
H1495 H 0.42303 0.88915 0.17856 0.0
H1496 H 0.39011 0.94742 0.33982 0.0
H1497 H 0.39191 0.96703 0.19371 0.0
H1498 H 0.42791 0.92333 0.35003 0.0
H1499 H 0.41981 0.9012 0.3207 0.0
H1500 H 0.40379 0.91451 0.36164 0.0
H1501 H 0.43108 0.94823 0.15839 0.0
H1502 H 0.40725 0.94615 0.13325 0.0
H1503 H 0.42107 0.9239 0.1499 0.0
C1504 C 0.5818 0.45466 0.69233 0.0
C1505 C 0.59078 0.4669 0.72561 0.0
C1506 C 0.56953 0.43927 0.70736 0.0
C1507 C 0.56631 0.43614 0.75686 0.0
C1508 C 0.57816 0.44601 0.79008 0.0
C1509 C 0.59023 0.46154 0.77404 0.0
C1510 C 0.55756 0.42891 0.67046 0.0
C1511 C 0.57595 0.44227 0.84301 0.0
C1512 C 0.51281 0.43478 0.78852 0.0
C1513 C 0.50951 0.41426 0.79426 0.0
C1514 C 0.53129 0.44188 0.77753 0.0
C1515 C 0.54719 0.4282 0.77289 0.0
C1516 C 0.54417 0.40744 0.78019 0.0
C1517 C 0.52526 0.40066 0.79013 0.0
C1518 C 0.5336 0.46411 0.76926 0.0
C1519 C 0.56066 0.39231 0.77657 0.0
H1520 H 0.58234 0.4588 0.65477 0.0
H1521 H 0.5972 0.47097 0.79986 0.0
H1522 H 0.55575 0.41288 0.67986 0.0
H1523 H 0.54288 0.43609 0.66917 0.0
H1524 H 0.56426 0.42999 0.63427 0.0
H1525 H 0.5891 0.4468 0.86256 0.0
H1526 H 0.56336 0.45117 0.85685 0.0
H1527 H 0.57318 0.42621 0.85055 0.0
H1528 H 0.50076 0.44541 0.79137 0.0
H1529 H 0.52284 0.38476 0.79487 0.0
H1530 H 0.53976 0.46673 0.73306 0.0
H1531 H 0.54386 0.4702 0.79548 0.0
H1532 H 0.51961 0.47262 0.77233 0.0
H1533 H 0.56232 0.38749 0.73891 0.0
H1534 H 0.55768 0.37877 0.79863 0.0
H1535 H 0.57463 0.39869 0.78794 0.0
C1536 C 0.03822 0.5791 0.22547 0.0
C1537 C 0.02107 0.57266 0.24764 0.0
C1538 C 0.05618 0.56978 0.23644 0.0
C1539 C 0.05674 0.5538 0.2701 0.0
C1540 C 0.03977 0.54922 0.29684 0.0
C1541 C 0.02211 0.5586 0.28491 0.0
C1542 C 0.07405 0.57563 0.20844 0.0
C1543 C 0.03974 0.53271 0.33416 0.0
C1544 C 0.08218 0.50444 0.25094 0.0
C1545 C 0.09433 0.5035 0.29065 0.0
C1546 C 0.07152 0.52191 0.24006 0.0
C1547 C 0.07305 0.53883 0.26996 0.0
C1548 C 0.08729 0.53878 0.30621 0.0
C1549 C 0.09778 0.52094 0.3164 0.0
C1550 C 0.05672 0.52121 0.20062 0.0
C1551 C 0.08993 0.55669 0.33771 0.0
H1552 H 0.03739 0.59 0.19656 0.0
H1553 H 0.0088 0.55379 0.30226 0.0
H1554 H 0.08732 0.57396 0.23039 0.0
H1555 H 0.07578 0.56569 0.17706 0.0
H1556 H 0.0728 0.59133 0.19517 0.0
H1557 H 0.02597 0.53253 0.35515 0.0
H1558 H 0.04175 0.51799 0.31651 0.0
H1559 H 0.05194 0.53447 0.35921 0.0
H1560 H 0.07957 0.49087 0.23113 0.0
H1561 H 0.10713 0.52016 0.34732 0.0
H1562 H 0.05705 0.53508 0.17857 0.0
H1563 H 0.04193 0.5201 0.21655 0.0
H1564 H 0.05921 0.50814 0.17687 0.0
H1565 H 0.08692 0.57093 0.31812 0.0
H1566 H 0.10491 0.55694 0.35208 0.0
H1567 H 0.07967 0.55586 0.36847 0.0
C1568 C 0.19836 0.01914 0.29492 0.0
C1569 C 0.19092 0.02704 0.25217 0.0
C1570 C 0.2185 0.01702 0.30154 0.0
C1571 C 0.23138 0.02306 0.26461 0.0
C1572 C 0.22387 0.02998 0.22044 0.0
C1573 C 0.20372 0.03198 0.21489 0.0
C1574 C 0.22597 0.00959 0.34914 0.0
C1575 C 0.2371 0.03647 0.18002 0.0
C1576 C 0.28009 0.04501 0.29372 0.0
C1577 C 0.29298 0.02943 0.281 0.0
C1578 C 0.25996 0.04276 0.29052 0.0
C1579 C 0.25254 0.02452 0.27369 0.0
C1580 C 0.26545 0.00849 0.2621 0.0
C1581 C 0.28558 0.01116 0.26575 0.0
C1582 C 0.24668 0.06021 0.30345 0.0
C1583 C 0.25806 0.98887 0.24385 0.0
H1584 H 0.18858 0.01581 0.32433 0.0
H1585 H 0.19797 0.03809 0.18179 0.0
H1586 H 0.23785 0.99832 0.34405 0.0
H1587 H 0.23205 0.02231 0.36898 0.0
H1588 H 0.21431 0.00282 0.37139 0.0
H1589 H 0.22902 0.03946 0.14646 0.0
H1590 H 0.24458 0.05037 0.19013 0.0
H1591 H 0.24846 0.02483 0.17304 0.0
H1592 H 0.2858 0.05914 0.30558 0.0
H1593 H 0.29547 0.99924 0.25466 0.0
H1594 H 0.23542 0.05535 0.32949 0.0
H1595 H 0.23905 0.06577 0.27107 0.0
H1596 H 0.2547 0.07283 0.31904 0.0
H1597 H 0.24626 0.98326 0.26742 0.0
H1598 H 0.26975 0.9772 0.24151 0.0
H1599 H 0.25184 0.99119 0.20777 0.0
C1600 C 0.4446 0.20809 0.80928 0.0
C1601 C 0.45888 0.19369 0.79749 0.0
C1602 C 0.44859 0.22855 0.80752 0.0
C1603 C 0.46737 0.23481 0.79361 0.0
C1604 C 0.48215 0.22035 0.7839 0.0
C1605 C 0.47768 0.19989 0.78555 0.0
C1606 C 0.43238 0.24349 0.81824 0.0
C1607 C 0.50238 0.22647 0.7694 0.0
C1608 C 0.46407 0.28584 0.73525 0.0
C1609 C 0.46731 0.29836 0.77409 0.0
C1610 C 0.46574 0.26498 0.74004 0.0
C1611 C 0.47063 0.25648 0.78495 0.0
C1612 C 0.47544 0.26909 0.82325 0.0
C1613 C 0.47359 0.28996 0.81746 0.0
C1614 C 0.46059 0.25206 0.69818 0.0
C1615 C 0.48088 0.26059 0.87153 0.0
H1616 H 0.43007 0.20334 0.8187 0.0
H1617 H 0.48867 0.18891 0.77519 0.0
H1618 H 0.43703 0.25428 0.84554 0.0
H1619 H 0.42881 0.2522 0.78542 0.0
H1620 H 0.41897 0.23613 0.83134 0.0
H1621 H 0.5129 0.21366 0.77086 0.0
H1622 H 0.50218 0.23248 0.73232 0.0
H1623 H 0.50756 0.23854 0.79281 0.0
H1624 H 0.45924 0.29235 0.70167 0.0
H1625 H 0.47561 0.29947 0.84802 0.0
H1626 H 0.44635 0.24502 0.7052 0.0
H1627 H 0.47153 0.23982 0.69335 0.0
H1628 H 0.45957 0.26085 0.66437 0.0
H1629 H 0.46762 0.25529 0.8902 0.0
H1630 H 0.48777 0.27197 0.89426 0.0
H1631 H 0.49099 0.24754 0.86771 0.0
C1632 C 0.29349 0.4804 0.32249 0.0
C1633 C 0.29984 0.46993 0.28179 0.0
C1634 C 0.27365 0.48182 0.33444 0.0
C1635 C 0.25998 0.47208 0.30572 0.0
C1636 C 0.26619 0.46277 0.26282 0.0
C1637 C 0.28603 0.46191 0.25131 0.0
C1638 C 0.26753 0.49233 0.37983 0.0
C1639 C 0.25212 0.45212 0.2312 0.0
C1640 C 0.21693 0.44626 0.36182 0.0
C1641 C 0.20132 0.45794 0.34479 0.0
C1642 C 0.23616 0.45136 0.35149 0.0
C1643 C 0.23991 0.46873 0.32373 0.0
C1644 C 0.22429 0.48133 0.30903 0.0
C1645 C 0.20512 0.47564 0.31914 0.0
C1646 C 0.2524 0.43742 0.36772 0.0
C1647 C 0.22773 0.50018 0.28024 0.0
H1648 H 0.30397 0.48623 0.34702 0.0
H1649 H 0.29086 0.45386 0.21973 0.0
H1650 H 0.25383 0.50107 0.37458 0.0
H1651 H 0.26484 0.48102 0.40831 0.0
H1652 H 0.27892 0.50256 0.39239 0.0
H1653 H 0.25894 0.44739 0.19686 0.0
H1654 H 0.24673 0.43859 0.25006 0.0
H1655 H 0.23934 0.46191 0.22332 0.0
H1656 H 0.21409 0.43261 0.38177 0.0
H1657 H 0.19323 0.48449 0.30455 0.0
H1658 H 0.26352 0.44587 0.3871 0.0
H1659 H 0.25965 0.43054 0.33612 0.0
H1660 H 0.2471 0.42522 0.39145 0.0
H1661 H 0.24012 0.50853 0.29471 0.0
H1662 H 0.21466 0.51021 0.27983 0.0
H1663 H 0.23145 0.49617 0.24285 0.0
C1664 C 0.9975 0.29772 0.80733 0.0
C1665 C 0.01383 0.30429 0.832 0.0
C1666 C 0.99543 0.27739 0.79622 0.0
C1667 C 0.01009 0.26338 0.8098 0.0
C1668 C 0.02605 0.26976 0.8369 0.0
C1669 C 0.02768 0.29009 0.84782 0.0
C1670 C 0.97805 0.27106 0.76804 0.0
C1671 C 0.04201 0.25529 0.85218 0.0
C1672 C 0.00578 0.20685 0.80747 0.0
C1673 C 0.0164 0.20218 0.76589 0.0
C1674 C 0.00232 0.22687 0.82066 0.0
C1675 C 0.00999 0.24247 0.792 0.0
C1676 C 0.01979 0.23782 0.74868 0.0
C1677 C 0.02289 0.21773 0.73621 0.0
C1678 C 0.99166 0.23122 0.86689 0.0
C1679 C 0.02821 0.25401 0.71707 0.0
H1680 H 0.98663 0.30854 0.79528 0.0
H1681 H 0.04025 0.29494 0.8673 0.0
H1682 H 0.98272 0.26713 0.7312 0.0
H1683 H 0.97152 0.25751 0.78432 0.0
H1684 H 0.96672 0.28311 0.76588 0.0
H1685 H 0.0527 0.26238 0.87584 0.0
H1686 H 0.03576 0.24224 0.87128 0.0
H1687 H 0.04983 0.24949 0.82015 0.0
H1688 H 0.00119 0.19494 0.83133 0.0
H1689 H 0.03112 0.21415 0.70408 0.0
H1690 H 0.98116 0.2439 0.86227 0.0
H1691 H 0.00222 0.23562 0.89437 0.0
H1692 H 0.98372 0.21796 0.88045 0.0
H1693 H 0.0171 0.26584 0.70957 0.0
H1694 H 0.0338 0.24804 0.68254 0.0
H1695 H 0.04036 0.26119 0.73574 0.0
C1696 C 0.70566 0.97819 0.67467 0.0
C1697 C 0.69821 0.97183 0.71894 0.0
C1698 C 0.7258 0.97977 0.66717 0.0
C1699 C 0.73867 0.97465 0.7047 0.0
C1700 C 0.7311 0.96962 0.75037 0.0
C1701 C 0.71096 0.96821 0.75684 0.0
C1702 C 0.73331 0.98536 0.6181 0.0
C1703 C 0.74427 0.96414 0.79147 0.0
C1704 C 0.78683 0.94851 0.67876 0.0
C1705 C 0.80013 0.96347 0.68885 0.0
C1706 C 0.76677 0.9523 0.68151 0.0
C1707 C 0.75979 0.97156 0.69491 0.0
C1708 C 0.77312 0.98702 0.7032 0.0
C1709 C 0.79318 0.98275 0.70039 0.0
C1710 C 0.75307 0.93538 0.67228 0.0
C1711 C 0.76623 0.00774 0.71739 0.0
H1712 H 0.69597 0.9805 0.64486 0.0
H1713 H 0.70521 0.96331 0.79112 0.0
H1714 H 0.74551 0.99591 0.62059 0.0
H1715 H 0.73892 0.9717 0.5999 0.0
H1716 H 0.72174 0.9923 0.59565 0.0
H1717 H 0.73617 0.96291 0.82586 0.0
H1718 H 0.75163 0.94952 0.78425 0.0
H1719 H 0.75573 0.97545 0.79531 0.0
H1720 H 0.79214 0.9336 0.66976 0.0
H1721 H 0.80333 0.99426 0.70953 0.0
H1722 H 0.74204 0.94008 0.64562 0.0
H1723 H 0.7452 0.93147 0.70578 0.0
H1724 H 0.76078 0.92172 0.65905 0.0
H1725 H 0.75423 0.01305 0.69403 0.0
H1726 H 0.77813 0.01875 0.71554 0.0
H1727 H 0.76048 0.00732 0.75454 0.0
C1728 C 0.51742 0.70383 0.2168 0.0
C1729 C 0.53587 0.69591 0.20532 0.0
C1730 C 0.51403 0.72465 0.2176 0.0
C1731 C 0.52952 0.73769 0.20719 0.0
C1732 C 0.5479 0.7297 0.19338 0.0
C1733 C 0.55084 0.70892 0.19271 0.0
C1734 C 0.49421 0.73267 0.23213 0.0
C1735 C 0.56482 0.74308 0.18186 0.0
C1736 C 0.52486 0.79354 0.18384 0.0
C1737 C 0.53101 0.80112 0.22757 0.0
C1738 C 0.52287 0.77284 0.17751 0.0
C1739 C 0.52744 0.75955 0.21563 0.0
C1740 C 0.53267 0.76726 0.26056 0.0
C1741 C 0.53447 0.78797 0.26588 0.0
C1742 C 0.51718 0.76517 0.12918 0.0
C1743 C 0.53766 0.75358 0.30213 0.0
H1744 H 0.50591 0.69388 0.22756 0.0
H1745 H 0.56509 0.70281 0.18351 0.0
H1746 H 0.49488 0.73885 0.26873 0.0
H1747 H 0.48953 0.74506 0.20793 0.0
H1748 H 0.48307 0.72084 0.2319 0.0
H1749 H 0.57768 0.73452 0.16819 0.0
H1750 H 0.56059 0.75454 0.15477 0.0
H1751 H 0.5691 0.75114 0.2145 0.0
H1752 H 0.52268 0.80365 0.15377 0.0
H1753 H 0.53926 0.79387 0.29966 0.0
H1754 H 0.5064 0.7531 0.13298 0.0
H1755 H 0.53018 0.7587 0.11086 0.0
H1756 H 0.51097 0.77729 0.10615 0.0
H1757 H 0.52618 0.74235 0.30775 0.0
H1758 H 0.53948 0.76198 0.33583 0.0
H1759 H 0.55142 0.74528 0.2942 0.0
C1760 C 0.7906 0.51513 0.72318 0.0
C1761 C 0.79707 0.53454 0.71327 0.0
C1762 C 0.77067 0.51098 0.72401 0.0
C1763 C 0.75702 0.52666 0.71505 0.0
C1764 C 0.76355 0.54619 0.7042 0.0
C1765 C 0.78349 0.54988 0.70366 0.0
C1766 C 0.7642 0.49003 0.73596 0.0
C1767 C 0.74946 0.56333 0.69434 0.0
C1768 C 0.70425 0.51989 0.68311 0.0
C1769 C 0.69504 0.5253 0.72605 0.0
C1770 C 0.72462 0.51881 0.67972 0.0
C1771 C 0.73585 0.52331 0.72019 0.0
C1772 C 0.72653 0.52744 0.7644 0.0
C1773 C 0.70622 0.5285 0.76668 0.0
C1774 C 0.73406 0.51435 0.63199 0.0
C1775 C 0.73797 0.53219 0.80849 0.0
H1776 H 0.80104 0.50333 0.73178 0.0
H1777 H 0.78847 0.56488 0.6958 0.0
H1778 H 0.75666 0.48998 0.77116 0.0
H1779 H 0.75368 0.48489 0.70915 0.0
H1780 H 0.7766 0.47915 0.7374 0.0
H1781 H 0.75696 0.57734 0.68406 0.0
H1782 H 0.73948 0.55934 0.6652 0.0
H1783 H 0.74042 0.56632 0.72664 0.0
H1784 H 0.69569 0.51783 0.65138 0.0
H1785 H 0.69906 0.5326 0.79997 0.0
H1786 H 0.74641 0.50359 0.63622 0.0
H1787 H 0.73994 0.52837 0.6165 0.0
H1788 H 0.7236 0.50812 0.60633 0.0
H1789 H 0.74989 0.52099 0.8138 0.0
H1790 H 0.72869 0.53253 0.84118 0.0
H1791 H 0.74472 0.54706 0.80397 0.0
C1792 C 0.97906 0.69208 0.15241 0.0
C1793 C 0.96989 0.68305 0.19168 0.0
C1794 C 0.98098 0.71301 0.15003 0.0
C1795 C 0.9736 0.72496 0.18792 0.0
C1796 C 0.96541 0.71567 0.22889 0.0
C1797 C 0.96347 0.69483 0.23001 0.0
C1798 C 0.98969 0.72237 0.10568 0.0
C1799 C 0.95757 0.72782 0.27033 0.0
C1800 C 0.98413 0.78033 0.20082 0.0
C1801 C 0.96672 0.78911 0.18457 0.0
C1802 C 0.98705 0.75943 0.20013 0.0
C1803 C 0.97219 0.74714 0.18279 0.0
C1804 C 0.95492 0.75605 0.16458 0.0
C1805 C 0.95235 0.77691 0.16607 0.0
C1806 C 0.00557 0.75048 0.2202 0.0
C1807 C 0.93877 0.7435 0.14537 0.0
H1808 H 0.98363 0.68295 0.12235 0.0
H1809 H 0.95632 0.68774 0.26027 0.0
H1810 H 0.97801 0.72983 0.08463 0.0
H1811 H 0.00022 0.73402 0.11524 0.0
H1812 H 0.99716 0.71107 0.08269 0.0
H1813 H 0.95368 0.71824 0.30153 0.0
H1814 H 0.9684 0.73886 0.28171 0.0
H1815 H 0.94437 0.73634 0.25906 0.0
H1816 H 0.99511 0.78968 0.21612 0.0
H1817 H 0.9389 0.7837 0.15337 0.0
H1818 H 0.01187 0.73912 0.19552 0.0
H1819 H 0.00231 0.74272 0.2545 0.0
H1820 H 0.0166 0.76204 0.22678 0.0
H1821 H 0.94459 0.73282 0.11842 0.0
H1822 H 0.92708 0.7528 0.12871 0.0
H1823 H 0.93228 0.73455 0.17485 0.0
loop_
_geom_bond_atom_site_label_1
_geom_bond_atom_site_label_2
_geom_bond_distance
_geom_bond_site_symmetry_2
_ccdc_geom_bond_type
Co0 O3 1.970 1_545 S
Co0 N17 1.989 . S
Co0 O25 1.967 . S
Co0 O32 1.920 . S
Co1 O4 1.966 . S
Co1 N10 2.022 . S
Co1 N18 1.993 . S
Co1 O26 1.941 . S
C2 O3 1.258 . S
C2 O4 1.263 1_565 S
O3 Co0 1.970 1_565 S
O3 C2 1.258 . S
O4 Co1 1.966 . S
O4 C2 1.263 1_545 S
C5 O6 1.262 . S
C5 O32 1.289 . S
O6 C5 1.262 . S
C7 C9 1.400 . S
C7 N10 1.351 . S
C7 C12 1.501 1_545 S
C8 C9 1.387 . S
C8 N11 1.341 . S
C9 C7 1.400 . S
C9 C8 1.387 . S
N10 Co1 2.022 . S
N10 C7 1.351 . S
N10 N11 1.365 . S
N11 C8 1.341 . S
N11 N10 1.365 . S
N11 H31 0.862 . S
C12 C7 1.501 1_565 S
C12 H13 0.961 . S
C12 H14 0.961 . S
C12 H15 0.960 . S
H13 C12 0.961 . S
H14 C12 0.961 . S
H15 C12 0.960 . S
C16 N17 1.342 . S
C16 C20 1.401 . S
C16 C21 1.499 . S
N17 Co0 1.989 . S
N17 C16 1.342 . S
N17 N18 1.388 . S
N18 Co1 1.993 . S
N18 N17 1.388 . S
N18 C19 1.346 . S
C19 N18 1.346 . S
C19 C20 1.396 . S
C19 C29 1.510 . S
C20 C16 1.401 . S
C20 C19 1.396 . S
C21 C16 1.499 . S
C21 H22 0.959 . S
C21 H23 0.960 . S
C21 H24 0.961 . S
H22 C21 0.959 . S
H23 C21 0.960 . S
H24 C21 0.961 . S
O25 Co0 1.967 . S
O25 C33 1.258 . S
O26 Co1 1.941 . S
O26 C33 1.266 . S
H27 C29 0.959 . S
H28 C29 0.961 . S
C29 C19 1.510 . S
C29 H27 0.959 . S
C29 H28 0.961 . S
C29 H30 0.960 . S
H30 C29 0.960 . S
H31 N11 0.862 . S
O32 Co0 1.920 . S
O32 C5 1.289 . S
C33 O25 1.258 . S
C33 O26 1.266 . S
Co34 O37 1.970 . S
Co34 N51 1.989 . S
Co34 O59 1.967 . S
Co34 O66 1.920 . S
Co35 O38 1.966 . S
Co35 N44 2.022 . S
Co35 N52 1.993 . S
Co35 O60 1.941 . S
C36 O37 1.258 . S
C36 O38 1.263 . S
O37 Co34 1.970 . S
O37 C36 1.258 . S
O38 Co35 1.966 . S
O38 C36 1.263 . S
C39 O40 1.235 . S
C39 O66 1.289 . S
O40 C39 1.235 . S
C41 C43 1.400 . S
C41 N44 1.351 . S
C41 C46 1.501 . S
C42 C43 1.387 . S
C42 N45 1.341 . S
C43 C41 1.400 . S
C43 C42 1.387 . S
N44 Co35 2.022 . S
N44 C41 1.351 . S
N44 N45 1.365 . S
N45 C42 1.341 . S
N45 N44 1.365 . S
N45 H65 0.862 . S
C46 C41 1.501 . S
C46 H47 0.961 . S
C46 H48 0.961 . S
C46 H49 0.960 . S
H47 C46 0.961 . S
H48 C46 0.961 . S
H49 C46 0.960 . S
C50 N51 1.342 . S
C50 C54 1.401 1_556 S
C50 C55 1.499 1_556 S
N51 Co34 1.989 . S
N51 C50 1.342 . S
N51 N52 1.388 . S
N52 Co35 1.993 . S
N52 N51 1.388 . S
N52 C53 1.346 . S
C53 N52 1.346 . S
C53 C54 1.396 1_556 S
C53 C63 1.510 . S
C54 C50 1.401 1_554 S
C54 C53 1.396 1_554 S
C55 C50 1.499 1_554 S
C55 H56 0.959 1_554 S
C55 H57 0.960 . S
C55 H58 0.961 . S
H56 C55 0.959 1_556 S
H57 C55 0.960 . S
H58 C55 0.961 . S
O59 Co34 1.967 . S
O59 C67 1.258 . S
O60 Co35 1.941 . S
O60 C67 1.266 . S
H61 C63 0.959 . S
H62 C63 0.961 1_554 S
C63 C53 1.510 . S
C63 H61 0.959 . S
C63 H62 0.961 1_556 S
C63 H64 0.960 . S
H64 C63 0.960 . S
H65 N45 0.862 . S
O66 Co34 1.920 . S
O66 C39 1.289 . S
C67 O59 1.258 . S
C67 O60 1.266 . S
Co68 O71 1.970 . S
Co68 N85 1.989 . S
Co68 O93 1.967 . S
Co68 O100 1.920 . S
Co69 O72 1.966 . S
Co69 N78 2.022 . S
Co69 N86 1.993 . S
Co69 O94 1.941 . S
C70 O71 1.258 . S
C70 O72 1.263 . S
O71 Co68 1.970 . S
O71 C70 1.258 . S
O72 Co69 1.966 . S
O72 C70 1.263 . S
C73 O74 1.235 . S
C73 O100 1.289 . S
O74 C73 1.235 . S
C75 C77 1.400 . S
C75 N78 1.351 . S
C75 C80 1.501 . S
C76 C77 1.387 . S
C76 N79 1.341 . S
C77 C75 1.400 . S
C77 C76 1.387 . S
N78 Co69 2.022 . S
N78 C75 1.351 . S
N78 N79 1.365 . S
N79 C76 1.341 . S
N79 N78 1.365 . S
N79 H99 0.862 . S
C80 C75 1.501 . S
C80 H81 0.961 . S
C80 H82 0.961 . S
C80 H83 0.960 . S
H81 C80 0.961 . S
H82 C80 0.961 . S
H83 C80 0.960 . S
C84 N85 1.342 . S
C84 C88 1.401 . S
C84 C89 1.499 . S
N85 Co68 1.989 . S
N85 C84 1.342 . S
N85 N86 1.388 . S
N86 Co69 1.993 . S
N86 N85 1.388 . S
N86 C87 1.346 . S
C87 N86 1.346 . S
C87 C88 1.396 . S
C87 C97 1.510 . S
C88 C84 1.401 . S
C88 C87 1.396 . S
C89 C84 1.499 . S
C89 H90 0.959 . S
C89 H91 0.960 . S
C89 H92 0.961 . S
H90 C89 0.959 . S
H91 C89 0.960 . S
H92 C89 0.961 . S
O93 Co68 1.967 . S
O93 C101 1.258 . S
O94 Co69 1.941 . S
O94 C101 1.266 . S
H95 C97 0.959 . S
H96 C97 0.961 . S
C97 C87 1.510 . S
C97 H95 0.959 . S
C97 H96 0.961 . S
C97 H98 0.960 . S
H98 C97 0.960 . S
H99 N79 0.862 . S
O100 Co68 1.920 . S
O100 C73 1.289 . S
C101 O93 1.258 . S
C101 O94 1.266 . S
Co102 O105 1.970 . S
Co102 N119 1.989 . S
Co102 O127 1.967 . S
Co102 O134 1.920 1_455 S
Co103 O106 1.966 . S
Co103 N112 2.022 . S
Co103 N120 1.993 . S
Co103 O128 1.941 . S
C104 O105 1.258 . S
C104 O106 1.263 . S
O105 Co102 1.970 . S
O105 C104 1.258 . S
O106 Co103 1.966 . S
O106 C104 1.263 . S
C107 O108 1.235 . S
C107 O134 1.289 . S
O108 C107 1.235 . S
C109 C111 1.400 . S
C109 N112 1.351 1_554 S
C109 C114 1.501 . S
C110 C111 1.387 . S
C110 N113 1.341 1_554 S
C111 C109 1.400 . S
C111 C110 1.387 . S
N112 Co103 2.022 . S
N112 C109 1.351 1_556 S
N112 N113 1.365 . S
N113 C110 1.341 1_556 S
N113 N112 1.365 . S
N113 H133 0.862 . S
C114 C109 1.501 . S
C114 H115 0.961 1_554 S
C114 H116 0.961 . S
C114 H117 0.960 . S
H115 C114 0.961 1_556 S
H116 C114 0.961 . S
H117 C114 0.960 . S
C118 N119 1.342 1_655 S
C118 C122 1.401 1_655 S
C118 C123 1.499 . S
N119 Co102 1.989 . S
N119 C118 1.342 1_455 S
N119 N120 1.388 . S
N120 Co103 1.993 . S
N120 N119 1.388 . S
N120 C121 1.346 . S
C121 N120 1.346 . S
C121 C122 1.396 . S
C121 C131 1.510 1_556 S
C122 C118 1.401 1_455 S
C122 C121 1.396 . S
C123 C118 1.499 . S
C123 H124 0.959 . S
C123 H125 0.960 . S
C123 H126 0.961 . S
H124 C123 0.959 . S
H125 C123 0.960 . S
H126 C123 0.961 . S
O127 Co102 1.967 . S
O127 C135 1.258 . S
O128 Co103 1.941 . S
O128 C135 1.266 . S
H129 C131 0.959 . S
H130 C131 0.961 . S
C131 C121 1.510 1_554 S
C131 H129 0.959 . S
C131 H130 0.961 . S
C131 H132 0.960 . S
H132 C131 0.960 . S
H133 N113 0.862 . S
O134 Co102 1.920 1_655 S
O134 C107 1.289 . S
C135 O127 1.258 . S
C135 O128 1.266 . S
Co136 O139 1.986 . S
Co136 N153 1.989 . S
Co136 O161 1.967 . S
Co136 O168 1.920 . S
Co137 O140 1.966 . S
Co137 N146 2.022 . S
Co137 N154 1.993 . S
Co137 O162 1.941 . S
C138 O139 1.254 1_545 S
C138 O140 1.263 1_545 S
O139 Co136 1.986 . S
O139 C138 1.254 1_565 S
O140 Co137 1.966 . S
O140 C138 1.263 1_565 S
C141 O142 1.235 . S
C141 O168 1.289 . S
O142 C141 1.235 . S
C143 C145 1.400 . S
C143 N146 1.351 . S
C143 C148 1.501 1_565 S
C144 C145 1.387 . S
C144 N147 1.341 . S
C145 C143 1.400 . S
C145 C144 1.387 . S
N146 Co137 2.022 . S
N146 C143 1.351 . S
N146 N147 1.365 . S
N147 C144 1.341 . S
N147 N146 1.365 . S
N147 H167 0.862 . S
C148 C143 1.501 1_545 S
C148 H149 0.961 . S
C148 H150 0.961 . S
C148 H151 0.960 . S
H149 C148 0.961 . S
H150 C148 0.961 . S
H151 C148 0.960 . S
C152 N153 1.342 . S
C152 C156 1.401 . S
C152 C157 1.499 . S
N153 Co136 1.989 . S
N153 C152 1.342 . S
N153 N154 1.388 . S
N154 Co137 1.993 . S
N154 N153 1.388 . S
N154 C155 1.346 . S
C155 N154 1.346 . S
C155 C156 1.396 . S
C155 C165 1.510 . S
C156 C152 1.401 . S
C156 C155 1.396 . S
C157 C152 1.499 . S
C157 H158 0.959 . S
C157 H159 0.960 . S
C157 H160 0.961 . S
H158 C157 0.959 . S
H159 C157 0.960 . S
H160 C157 0.961 . S
O161 Co136 1.967 . S
O161 C169 1.258 . S
O162 Co137 1.941 . S
O162 C169 1.266 . S
H163 C165 0.959 . S
H164 C165 0.961 . S
C165 C155 1.510 . S
C165 H163 0.959 . S
C165 H164 0.961 . S
C165 H166 0.960 . S
H166 C165 0.960 . S
H167 N147 0.862 . S
O168 Co136 1.920 . S
O168 C141 1.289 . S
C169 O161 1.258 . S
C169 O162 1.266 . S
Co170 O173 1.970 . S
Co170 N187 1.989 . S
Co170 O195 1.967 . S
Co170 O202 1.920 . S
Co171 O174 1.966 . S
Co171 N180 2.022 . S
Co171 N188 1.993 . S
Co171 O196 1.941 . S
C172 O173 1.258 . S
C172 O174 1.263 . S
O173 Co170 1.970 . S
O173 C172 1.258 . S
O174 Co171 1.966 . S
O174 C172 1.263 . S
C175 O176 1.235 . S
C175 O202 1.289 . S
O176 C175 1.235 . S
C177 C179 1.400 . S
C177 N180 1.351 . S
C177 C182 1.501 . S
C178 C179 1.387 . S
C178 N181 1.341 . S
C179 C177 1.400 . S
C179 C178 1.387 . S
N180 Co171 2.022 . S
N180 C177 1.351 . S
N180 N181 1.365 . S
N181 C178 1.341 . S
N181 N180 1.365 . S
N181 H201 0.862 . S
C182 C177 1.501 . S
C182 H183 0.961 . S
C182 H184 0.961 . S
C182 H185 0.960 . S
H183 C182 0.961 . S
H184 C182 0.961 . S
H185 C182 0.960 . S
C186 N187 1.342 . S
C186 C190 1.401 1_554 S
C186 C191 1.499 1_554 S
N187 Co170 1.989 . S
N187 C186 1.342 . S
N187 N188 1.388 . S
N188 Co171 1.993 . S
N188 N187 1.388 . S
N188 C189 1.346 . S
C189 N188 1.346 . S
C189 C190 1.396 1_554 S
C189 C199 1.510 . S
C190 C186 1.401 1_556 S
C190 C189 1.396 1_556 S
C191 C186 1.499 1_556 S
C191 H192 0.959 1_556 S
C191 H193 0.960 . S
C191 H194 0.961 . S
H192 C191 0.959 1_554 S
H193 C191 0.960 . S
H194 C191 0.961 . S
O195 Co170 1.967 . S
O195 C203 1.258 . S
O196 Co171 1.941 . S
O196 C203 1.266 . S
H197 C199 0.959 . S
H198 C199 0.961 1_556 S
C199 C189 1.510 . S
C199 H197 0.959 . S
C199 H198 0.961 1_554 S
C199 H200 0.960 . S
H200 C199 0.960 . S
H201 N181 0.862 . S
O202 Co170 1.920 . S
O202 C175 1.289 . S
C203 O195 1.258 . S
C203 O196 1.266 . S
Co204 O207 1.970 . S
Co204 N221 1.989 . S
Co204 O229 1.967 . S
Co204 O236 1.920 . S
Co205 O208 1.966 . S
Co205 N214 2.022 . S
Co205 N222 1.993 . S
Co205 O230 1.941 . S
C206 O207 1.258 . S
C206 O208 1.263 . S
O207 Co204 1.970 . S
O207 C206 1.258 . S
O208 Co205 1.966 . S
O208 C206 1.263 . S
C209 O210 1.235 . S
C209 O236 1.289 . S
O210 C209 1.235 . S
C211 C213 1.400 . S
C211 N214 1.351 . S
C211 C216 1.501 . S
C212 C213 1.387 . S
C212 N215 1.341 . S
C213 C211 1.400 . S
C213 C212 1.387 . S
N214 Co205 2.022 . S
N214 C211 1.351 . S
N214 N215 1.365 . S
N215 C212 1.341 . S
N215 N214 1.365 . S
N215 H235 0.862 . S
C216 C211 1.501 . S
C216 H217 0.961 . S
C216 H218 0.961 . S
C216 H219 0.960 . S
H217 C216 0.961 . S
H218 C216 0.961 . S
H219 C216 0.960 . S
C220 N221 1.342 . S
C220 C224 1.401 . S
C220 C225 1.499 . S
N221 Co204 1.989 . S
N221 C220 1.342 . S
N221 N222 1.388 . S
N222 Co205 1.993 . S
N222 N221 1.388 . S
N222 C223 1.346 . S
C223 N222 1.346 . S
C223 C224 1.396 . S
C223 C233 1.510 . S
C224 C220 1.401 . S
C224 C223 1.396 . S
C225 C220 1.499 . S
C225 H226 0.959 . S
C225 H227 0.960 . S
C225 H228 0.961 . S
H226 C225 0.959 . S
H227 C225 0.960 . S
H228 C225 0.961 . S
O229 Co204 1.967 . S
O229 C237 1.258 . S
O230 Co205 1.941 . S
O230 C237 1.266 . S
H231 C233 0.959 . S
H232 C233 0.961 . S
C233 C223 1.510 . S
C233 H231 0.959 . S
C233 H232 0.961 . S
C233 H234 0.960 . S
H234 C233 0.960 . S
H235 N215 0.862 . S
O236 Co204 1.920 . S
O236 C209 1.289 . S
C237 O229 1.258 . S
C237 O230 1.266 . S
Co238 O241 1.970 1_655 S
Co238 N255 1.989 . S
Co238 O263 1.967 . S
Co238 O270 1.920 . S
Co239 O242 2.013 . S
Co239 N248 2.022 . S
Co239 N256 1.993 . S
Co239 O264 1.941 . S
C240 O241 1.258 . S
C240 O242 1.236 1_455 S
O241 Co238 1.970 1_455 S
O241 C240 1.258 . S
O242 Co239 2.013 . S
O242 C240 1.236 1_655 S
C243 O244 1.234 1_655 S
C243 O270 1.289 . S
O244 C243 1.234 1_455 S
C245 C247 1.400 . S
C245 N248 1.351 . S
C245 C250 1.501 1_655 S
C246 C247 1.387 . S
C246 N249 1.341 . S
C247 C245 1.400 . S
C247 C246 1.387 . S
N248 Co239 2.022 . S
N248 C245 1.351 . S
N248 N249 1.365 . S
N249 C246 1.341 . S
N249 N248 1.365 . S
N249 H269 0.862 . S
C250 C245 1.501 1_455 S
C250 H251 0.961 . S
C250 H252 0.961 . S
C250 H253 0.960 . S
H251 C250 0.961 . S
H252 C250 0.961 . S
H253 C250 0.960 . S
C254 N255 1.342 1_556 S
C254 C258 1.401 . S
C254 C259 1.499 . S
N255 Co238 1.989 . S
N255 C254 1.342 1_554 S
N255 N256 1.388 . S
N256 Co239 1.993 . S
N256 N255 1.388 . S
N256 C257 1.346 . S
C257 N256 1.346 . S
C257 C258 1.396 1_554 S
C257 C267 1.510 . S
C258 C254 1.401 . S
C258 C257 1.396 1_556 S
C259 C254 1.499 . S
C259 H260 0.967 . S
C259 H261 0.960 . S
C259 H262 0.961 . S
H260 C259 0.967 . S
H261 C259 0.960 . S
H262 C259 0.961 . S
O263 Co238 1.967 . S
O263 C271 1.258 . S
O264 Co239 1.941 . S
O264 C271 1.266 . S
H265 C267 0.959 . S
H266 C267 0.961 1_556 S
C267 C257 1.510 . S
C267 H265 0.959 . S
C267 H266 0.961 1_554 S
C267 H268 0.960 . S
H268 C267 0.960 . S
H269 N249 0.862 . S
O270 Co238 1.920 . S
O270 C243 1.289 . S
C271 O263 1.258 . S
C271 O264 1.266 . S
Co272 O275 1.970 1_565 S
Co272 N289 1.989 . S
Co272 O297 1.967 . S
Co272 O304 1.920 . S
Co273 O276 1.966 . S
Co273 N282 2.022 . S
Co273 N290 1.993 . S
Co273 O298 1.941 . S
C274 O275 1.258 . S
C274 O276 1.263 1_545 S
O275 Co272 1.970 1_545 S
O275 C274 1.258 . S
O276 Co273 1.966 . S
O276 C274 1.263 1_565 S
C277 O278 1.262 . S
C277 O304 1.289 . S
O278 C277 1.262 . S
C279 C281 1.400 . S
C279 N282 1.351 . S
C279 C284 1.501 1_565 S
C280 C281 1.387 . S
C280 N283 1.341 . S
C281 C279 1.400 . S
C281 C280 1.387 . S
N282 Co273 2.022 . S
N282 C279 1.351 . S
N282 N283 1.365 . S
N283 C280 1.341 . S
N283 N282 1.365 . S
N283 H303 0.862 . S
C284 C279 1.501 1_545 S
C284 H285 0.961 . S
C284 H286 0.961 . S
C284 H287 0.960 . S
H285 C284 0.961 . S
H286 C284 0.961 . S
H287 C284 0.960 . S
C288 N289 1.342 . S
C288 C292 1.401 . S
C288 C293 1.499 . S
N289 Co272 1.989 . S
N289 C288 1.342 . S
N289 N290 1.388 . S
N290 Co273 1.993 . S
N290 N289 1.388 . S
N290 C291 1.346 . S
C291 N290 1.346 . S
C291 C292 1.396 . S
C291 C301 1.510 . S
C292 C288 1.401 . S
C292 C291 1.396 . S
C293 C288 1.499 . S
C293 H294 0.959 . S
C293 H295 0.960 . S
C293 H296 0.961 . S
H294 C293 0.959 . S
H295 C293 0.960 . S
H296 C293 0.961 . S
O297 Co272 1.967 . S
O297 C305 1.258 . S
O298 Co273 1.941 . S
O298 C305 1.266 . S
H299 C301 0.959 . S
H300 C301 0.961 . S
C301 C291 1.510 . S
C301 H299 0.959 . S
C301 H300 0.961 . S
C301 H302 0.960 . S
H302 C301 0.960 . S
H303 N283 0.862 . S
O304 Co272 1.920 . S
O304 C277 1.289 . S
C305 O297 1.258 . S
C305 O298 1.266 . S
Co306 O309 1.970 . S
Co306 N323 1.989 . S
Co306 O331 1.967 . S
Co306 O338 1.920 . S
Co307 O310 1.966 . S
Co307 N316 2.022 . S
Co307 N324 1.993 . S
Co307 O332 1.941 . S
C308 O309 1.258 . S
C308 O310 1.263 . S
O309 Co306 1.970 . S
O309 C308 1.258 . S
O310 Co307 1.966 . S
O310 C308 1.263 . S
C311 O312 1.235 . S
C311 O338 1.289 . S
O312 C311 1.235 . S
C313 C315 1.400 . S
C313 N316 1.351 . S
C313 C318 1.501 . S
C314 C315 1.387 . S
C314 N317 1.341 . S
C315 C313 1.400 . S
C315 C314 1.387 . S
N316 Co307 2.022 . S
N316 C313 1.351 . S
N316 N317 1.365 . S
N317 C314 1.341 . S
N317 N316 1.365 . S
N317 H337 0.862 . S
C318 C313 1.501 . S
C318 H319 0.961 . S
C318 H320 0.961 . S
C318 H321 0.960 . S
H319 C318 0.961 . S
H320 C318 0.961 . S
H321 C318 0.960 . S
C322 N323 1.342 . S
C322 C326 1.401 1_554 S
C322 C327 1.499 1_554 S
N323 Co306 1.989 . S
N323 C322 1.342 . S
N323 N324 1.388 . S
N324 Co307 1.993 . S
N324 N323 1.388 . S
N324 C325 1.346 . S
C325 N324 1.346 . S
C325 C326 1.396 1_554 S
C325 C335 1.510 . S
C326 C322 1.401 1_556 S
C326 C325 1.396 1_556 S
C327 C322 1.499 1_556 S
C327 H328 0.959 1_556 S
C327 H329 0.960 . S
C327 H330 0.961 . S
H328 C327 0.959 1_554 S
H329 C327 0.960 . S
H330 C327 0.961 . S
O331 Co306 1.967 . S
O331 C339 1.258 . S
O332 Co307 1.941 . S
O332 C339 1.266 . S
H333 C335 0.959 . S
H334 C335 0.961 1_556 S
C335 C325 1.510 . S
C335 H333 0.959 . S
C335 H334 0.961 1_554 S
C335 H336 0.960 . S
H336 C335 0.960 . S
H337 N317 0.862 . S
O338 Co306 1.920 . S
O338 C311 1.289 . S
C339 O331 1.258 . S
C339 O332 1.266 . S
Co340 O343 1.970 . S
Co340 N357 1.989 . S
Co340 O365 1.967 . S
Co340 O372 1.920 . S
Co341 O344 1.966 . S
Co341 N350 2.022 . S
Co341 N358 1.993 . S
Co341 O366 1.941 . S
C342 O343 1.258 . S
C342 O344 1.263 . S
O343 Co340 1.970 . S
O343 C342 1.258 . S
O344 Co341 1.966 . S
O344 C342 1.263 . S
C345 O346 1.235 . S
C345 O372 1.289 . S
O346 C345 1.235 . S
C347 C349 1.400 . S
C347 N350 1.351 . S
C347 C352 1.501 . S
C348 C349 1.387 . S
C348 N351 1.341 . S
C349 C347 1.400 . S
C349 C348 1.387 . S
N350 Co341 2.022 . S
N350 C347 1.351 . S
N350 N351 1.365 . S
N351 C348 1.341 . S
N351 N350 1.365 . S
N351 H371 0.862 . S
C352 C347 1.501 . S
C352 H353 0.961 . S
C352 H354 0.961 . S
C352 H355 0.960 . S
H353 C352 0.961 . S
H354 C352 0.961 . S
H355 C352 0.960 . S
C356 N357 1.342 . S
C356 C360 1.401 . S
C356 C361 1.499 . S
N357 Co340 1.989 . S
N357 C356 1.342 . S
N357 N358 1.388 . S
N358 Co341 1.993 . S
N358 N357 1.388 . S
N358 C359 1.346 . S
C359 N358 1.346 . S
C359 C360 1.396 . S
C359 C369 1.510 . S
C360 C356 1.401 . S
C360 C359 1.396 . S
C361 C356 1.499 . S
C361 H362 0.959 . S
C361 H363 0.960 . S
C361 H364 0.961 . S
H362 C361 0.959 . S
H363 C361 0.960 . S
H364 C361 0.961 . S
O365 Co340 1.967 . S
O365 C373 1.258 . S
O366 Co341 1.941 . S
O366 C373 1.266 . S
H367 C369 0.959 . S
H368 C369 0.961 . S
C369 C359 1.510 . S
C369 H367 0.959 . S
C369 H368 0.961 . S
C369 H370 0.960 . S
H370 C369 0.960 . S
H371 N351 0.862 . S
O372 Co340 1.920 . S
O372 C345 1.289 . S
C373 O365 1.258 . S
C373 O366 1.266 . S
Co374 O377 2.016 . S
Co374 N391 1.989 . S
Co374 O399 1.967 . S
Co374 O406 1.920 . S
Co375 O378 1.966 . S
Co375 N384 2.022 . S
Co375 N392 1.993 . S
Co375 O400 1.941 . S
C376 O377 1.246 1_455 S
C376 O378 1.263 1_455 S
O377 Co374 2.016 . S
O377 C376 1.246 1_655 S
O378 Co375 1.966 . S
O378 C376 1.263 1_655 S
C379 O380 1.235 . S
C379 O406 1.289 . S
O380 C379 1.235 . S
C381 C383 1.400 . S
C381 N384 1.351 . S
C381 C386 1.501 1_655 S
C382 C383 1.387 . S
C382 N385 1.341 . S
C383 C381 1.400 . S
C383 C382 1.387 . S
N384 Co375 2.022 . S
N384 C381 1.351 . S
N384 N385 1.365 . S
N385 C382 1.341 . S
N385 N384 1.365 . S
N385 H405 0.862 . S
C386 C381 1.501 1_455 S
C386 H387 0.961 . S
C386 H388 0.961 . S
C386 H389 0.960 . S
H387 C386 0.961 . S
H388 C386 0.961 . S
H389 C386 0.960 . S
C390 N391 1.342 . S
C390 C394 1.401 1_554 S
C390 C395 1.499 1_554 S
N391 Co374 1.989 . S
N391 C390 1.342 . S
N391 N392 1.388 . S
N392 Co375 1.993 . S
N392 N391 1.388 . S
N392 C393 1.346 . S
C393 N392 1.346 . S
C393 C394 1.396 1_554 S
C393 C403 1.510 . S
C394 C390 1.401 1_556 S
C394 C393 1.396 1_556 S
C395 C390 1.499 1_556 S
C395 H396 0.959 1_556 S
C395 H397 0.960 . S
C395 H398 0.961 . S
H396 C395 0.959 1_554 S
H397 C395 0.960 . S
H398 C395 0.961 . S
O399 Co374 1.967 . S
O399 C407 1.258 . S
O400 Co375 1.941 . S
O400 C407 1.266 . S
H401 C403 0.959 . S
H402 C403 0.961 1_556 S
C403 C393 1.510 . S
C403 H401 0.959 . S
C403 H402 0.961 1_554 S
C403 H404 0.960 . S
H404 C403 0.960 . S
H405 N385 0.862 . S
O406 Co374 1.920 . S
O406 C379 1.289 . S
C407 O399 1.258 . S
C407 O400 1.266 . S
Co408 O411 1.970 1_545 S
Co408 N425 1.989 . S
Co408 O433 1.967 . S
Co408 O440 1.920 . S
Co409 O412 1.966 1_545 S
Co409 N418 2.022 . S
Co409 N426 1.993 . S
Co409 O434 1.941 . S
C410 O411 1.258 . S
C410 O412 1.263 . S
O411 Co408 1.970 1_565 S
O411 C410 1.258 . S
O412 Co409 1.966 1_565 S
O412 C410 1.263 . S
C413 O414 1.235 1_545 S
C413 O440 1.289 . S
O414 C413 1.235 1_565 S
C415 C417 1.400 . S
C415 N418 1.351 . S
C415 C420 1.501 1_545 S
C416 C417 1.387 . S
C416 N419 1.341 . S
C417 C415 1.400 . S
C417 C416 1.387 . S
N418 Co409 2.022 . S
N418 C415 1.351 . S
N418 N419 1.365 . S
N419 C416 1.341 . S
N419 N418 1.365 . S
N419 H439 0.862 . S
C420 C415 1.501 1_565 S
C420 H421 0.961 . S
C420 H422 0.961 . S
C420 H423 0.960 . S
H421 C420 0.961 . S
H422 C420 0.961 . S
H423 C420 0.960 . S
C424 N425 1.342 . S
C424 C428 1.401 . S
C424 C429 1.499 . S
N425 Co408 1.989 . S
N425 C424 1.342 . S
N425 N426 1.388 . S
N426 Co409 1.993 . S
N426 N425 1.388 . S
N426 C427 1.346 . S
C427 N426 1.346 . S
C427 C428 1.396 . S
C427 C437 1.510 . S
C428 C424 1.401 . S
C428 C427 1.396 . S
C429 C424 1.499 . S
C429 H430 0.959 . S
C429 H431 0.960 . S
C429 H432 0.961 . S
H430 C429 0.959 . S
H431 C429 0.960 . S
H432 C429 0.961 . S
O433 Co408 1.967 . S
O433 C441 1.258 . S
O434 Co409 1.941 . S
O434 C441 1.266 . S
H435 C437 0.959 . S
H436 C437 0.961 . S
C437 C427 1.510 . S
C437 H435 0.959 . S
C437 H436 0.961 . S
C437 H438 0.960 . S
H438 C437 0.960 . S
H439 N419 0.862 . S
O440 Co408 1.920 . S
O440 C413 1.289 . S
C441 O433 1.258 . S
C441 O434 1.266 . S
Co442 O445 1.970 . S
Co442 N459 1.989 . S
Co442 O467 1.967 . S
Co442 O474 1.920 . S
Co443 O446 1.966 . S
Co443 N452 2.022 . S
Co443 N460 1.993 . S
Co443 O468 1.941 . S
C444 O445 1.258 . S
C444 O446 1.263 . S
O445 Co442 1.970 . S
O445 C444 1.258 . S
O446 Co443 1.966 . S
O446 C444 1.263 . S
C447 O448 1.235 . S
C447 O474 1.289 . S
O448 C447 1.235 . S
C449 C451 1.400 . S
C449 N452 1.351 . S
C449 C454 1.501 . S
C450 C451 1.387 . S
C450 N453 1.341 . S
C451 C449 1.400 . S
C451 C450 1.387 . S
N452 Co443 2.022 . S
N452 C449 1.351 . S
N452 N453 1.365 . S
N453 C450 1.341 . S
N453 N452 1.365 . S
N453 H473 0.862 . S
C454 C449 1.501 . S
C454 H455 0.961 . S
C454 H456 0.961 . S
C454 H457 0.960 . S
H455 C454 0.961 . S
H456 C454 0.961 . S
H457 C454 0.960 . S
C458 N459 1.342 1_554 S
C458 C462 1.401 . S
C458 C463 1.499 . S
N459 Co442 1.989 . S
N459 C458 1.342 1_556 S
N459 N460 1.388 . S
N460 Co443 1.993 . S
N460 N459 1.388 . S
N460 C461 1.346 . S
C461 N460 1.346 . S
C461 C462 1.396 1_556 S
C461 C471 1.510 . S
C462 C458 1.401 . S
C462 C461 1.396 1_554 S
C463 C458 1.499 . S
C463 H464 0.959 . S
C463 H465 0.960 . S
C463 H466 0.961 . S
H464 C463 0.959 . S
H465 C463 0.960 . S
H466 C463 0.961 . S
O467 Co442 1.967 . S
O467 C475 1.258 . S
O468 Co443 1.941 . S
O468 C475 1.266 . S
H469 C471 0.959 1_554 S
H470 C471 0.961 1_554 S
C471 C461 1.510 . S
C471 H469 0.959 1_556 S
C471 H470 0.961 1_556 S
C471 H472 0.960 . S
H472 C471 0.960 . S
H473 N453 0.862 . S
O474 Co442 1.920 . S
O474 C447 1.289 . S
C475 O467 1.258 . S
C475 O468 1.266 . S
Co476 O479 1.970 . S
Co476 N493 1.989 . S
Co476 O501 1.967 . S
Co476 O508 1.920 . S
Co477 O480 1.966 . S
Co477 N486 2.022 . S
Co477 N494 1.993 . S
Co477 O502 1.941 . S
C478 O479 1.258 . S
C478 O480 1.263 . S
O479 Co476 1.970 . S
O479 C478 1.258 . S
O480 Co477 1.966 . S
O480 C478 1.263 . S
C481 O482 1.235 . S
C481 O508 1.289 . S
O482 C481 1.235 . S
C483 C485 1.400 . S
C483 N486 1.351 . S
C483 C488 1.501 . S
C484 C485 1.387 . S
C484 N487 1.341 . S
C485 C483 1.400 . S
C485 C484 1.387 . S
N486 Co477 2.022 . S
N486 C483 1.351 . S
N486 N487 1.365 . S
N487 C484 1.341 . S
N487 N486 1.365 . S
N487 H507 0.862 . S
C488 C483 1.501 . S
C488 H489 0.961 . S
C488 H490 0.961 . S
C488 H491 0.960 . S
H489 C488 0.961 . S
H490 C488 0.961 . S
H491 C488 0.960 . S
C492 N493 1.342 . S
C492 C496 1.401 . S
C492 C497 1.499 . S
N493 Co476 1.989 . S
N493 C492 1.342 . S
N493 N494 1.388 . S
N494 Co477 1.993 . S
N494 N493 1.388 . S
N494 C495 1.346 . S
C495 N494 1.346 . S
C495 C496 1.396 . S
C495 C505 1.510 . S
C496 C492 1.401 . S
C496 C495 1.396 . S
C497 C492 1.499 . S
C497 H498 0.959 . S
C497 H499 0.960 . S
C497 H500 0.961 . S
H498 C497 0.959 . S
H499 C497 0.960 . S
H500 C497 0.961 . S
O501 Co476 1.967 . S
O501 C509 1.258 . S
O502 Co477 1.941 . S
O502 C509 1.266 . S
H503 C505 0.959 . S
H504 C505 0.961 . S
C505 C495 1.510 . S
C505 H503 0.959 . S
C505 H504 0.961 . S
C505 H506 0.960 . S
H506 C505 0.960 . S
H507 N487 0.862 . S
O508 Co476 1.920 . S
O508 C481 1.289 . S
C509 O501 1.258 . S
C509 O502 1.266 . S
Co510 O513 1.970 1_455 S
Co510 N527 1.989 . S
Co510 O535 1.967 . S
Co510 O542 1.920 . S
Co511 O514 1.966 1_455 S
Co511 N520 2.022 . S
Co511 N528 1.993 . S
Co511 O536 1.941 . S
C512 O513 1.258 . S
C512 O514 1.263 . S
O513 Co510 1.970 1_655 S
O513 C512 1.258 . S
O514 Co511 1.966 1_655 S
O514 C512 1.263 . S
C515 O516 1.235 1_455 S
C515 O542 1.289 . S
O516 C515 1.235 1_655 S
C517 C519 1.400 . S
C517 N520 1.351 . S
C517 C522 1.501 1_455 S
C518 C519 1.387 . S
C518 N521 1.341 . S
C519 C517 1.400 . S
C519 C518 1.387 . S
N520 Co511 2.022 . S
N520 C517 1.351 . S
N520 N521 1.365 . S
N521 C518 1.341 . S
N521 N520 1.365 . S
N521 H541 0.862 . S
C522 C517 1.501 1_655 S
C522 H523 0.961 . S
C522 H524 0.961 . S
C522 H525 0.960 . S
H523 C522 0.961 . S
H524 C522 0.961 . S
H525 C522 0.960 . S
C526 N527 1.342 . S
C526 C530 1.401 1_556 S
C526 C531 1.497 1_556 S
N527 Co510 1.989 . S
N527 C526 1.342 . S
N527 N528 1.388 . S
N528 Co511 1.993 . S
N528 N527 1.388 . S
N528 C529 1.346 . S
C529 N528 1.346 . S
C529 C530 1.396 1_556 S
C529 C539 1.510 . S
C530 C526 1.401 1_554 S
C530 C529 1.396 1_554 S
C531 C526 1.497 1_554 S
C531 H532 0.953 1_554 S
C531 H533 0.966 . S
C531 H534 0.962 . S
H532 C531 0.953 1_556 S
H533 C531 0.966 . S
H534 C531 0.962 . S
O535 Co510 1.967 . S
O535 C543 1.258 . S
O536 Co511 1.941 . S
O536 C543 1.266 . S
H537 C539 0.959 . S
H538 C539 0.980 . S
C539 C529 1.510 . S
C539 H537 0.959 . S
C539 H538 0.980 . S
C539 H540 0.960 . S
H540 C539 0.960 . S
H541 N521 0.862 . S
O542 Co510 1.920 . S
O542 C515 1.289 . S
C543 O535 1.258 . S
C543 O536 1.266 . S
C544 C545 1.391 . S
C544 C546 1.394 . S
C544 H560 0.931 . S
C545 C544 1.391 . S
C545 C549 1.376 . S
C546 C544 1.394 . S
C546 C547 1.364 1_565 S
C546 C550 1.531 1_565 S
C547 C546 1.364 1_545 S
C547 C548 1.403 1_545 S
C547 C555 1.513 1_655 S
C548 C547 1.403 1_565 S
C548 C549 1.392 . S
C548 C551 1.511 1_655 S
C549 C545 1.376 . S
C549 C548 1.392 . S
C549 H561 0.929 . S
C550 C546 1.531 1_545 S
C550 H562 0.960 . S
C550 H563 0.962 1_545 S
C550 H564 0.960 . S
C551 C548 1.511 1_455 S
C551 H565 0.961 . S
C551 H566 0.961 . S
C551 H567 0.961 1_565 S
C552 C553 1.358 1_565 S
C552 C554 1.367 . S
C552 H568 0.939 . S
C553 C552 1.358 1_545 S
C553 C557 1.408 . S
C554 C552 1.367 . S
C554 C555 1.370 1_565 S
C554 C558 1.524 . S
C555 C547 1.513 1_455 S
C555 C554 1.370 1_545 S
C555 C556 1.403 . S
C556 C555 1.403 . S
C556 C557 1.404 . S
C556 C559 1.539 1_455 S
C557 C553 1.408 . S
C557 C556 1.404 . S
C557 H569 0.930 . S
C558 C554 1.524 . S
C558 H570 0.956 1_455 S
C558 H571 0.961 . S
C558 H572 0.961 . S
C559 C556 1.539 1_655 S
C559 H573 0.958 . S
C559 H574 0.961 1_655 S
C559 H575 0.960 . S
H560 C544 0.931 . S
H561 C549 0.929 . S
H562 C550 0.960 . S
H563 C550 0.962 1_565 S
H564 C550 0.960 . S
H565 C551 0.961 . S
H566 C551 0.961 . S
H567 C551 0.961 1_545 S
H568 C552 0.939 . S
H569 C557 0.930 . S
H570 C558 0.956 1_655 S
H571 C558 0.961 . S
H572 C558 0.961 . S
H573 C559 0.958 . S
H574 C559 0.961 1_455 S
H575 C559 0.960 . S
C576 C577 1.391 . S
C576 C578 1.394 . S
C576 H592 0.931 . S
C577 C576 1.391 . S
C577 C581 1.376 . S
C578 C576 1.394 . S
C578 C579 1.369 . S
C578 C582 1.531 . S
C579 C578 1.369 . S
C579 C580 1.410 . S
C579 C587 1.503 1_546 S
C580 C579 1.410 . S
C580 C581 1.392 . S
C580 C583 1.511 1_546 S
C581 C577 1.376 . S
C581 C580 1.392 . S
C581 H593 0.929 . S
C582 C578 1.531 . S
C582 H594 0.960 . S
C582 H595 0.962 . S
C582 H596 0.960 . S
C583 C580 1.511 1_564 S
C583 H597 0.961 . S
C583 H598 0.961 . S
C583 H599 0.961 1_565 S
C584 C585 1.370 . S
C584 C586 1.363 . S
C584 H600 0.931 . S
C585 C584 1.370 . S
C585 C589 1.408 . S
C586 C584 1.363 . S
C586 C587 1.370 . S
C586 C590 1.524 1_554 S
C587 C579 1.503 1_564 S
C587 C586 1.370 . S
C587 C588 1.403 . S
C588 C587 1.403 . S
C588 C589 1.404 . S
C588 C591 1.539 1_565 S
C589 C585 1.408 . S
C589 C588 1.404 . S
C589 H601 0.930 . S
C590 C586 1.524 1_556 S
C590 H602 0.956 . S
C590 H603 0.961 . S
C590 H604 0.961 . S
C591 C588 1.539 1_545 S
C591 H605 0.958 . S
C591 H606 0.961 . S
C591 H607 0.960 . S
H592 C576 0.931 . S
H593 C581 0.929 . S
H594 C582 0.960 . S
H595 C582 0.962 . S
H596 C582 0.960 . S
H597 C583 0.961 . S
H598 C583 0.961 . S
H599 C583 0.961 1_545 S
H600 C584 0.931 . S
H601 C589 0.930 . S
H602 C590 0.956 . S
H603 C590 0.961 . S
H604 C590 0.961 . S
H605 C591 0.958 . S
H606 C591 0.961 . S
H607 C591 0.960 . S
C608 C609 1.391 . S
C608 C610 1.394 . S
C608 H624 0.931 . S
C609 C608 1.391 . S
C609 C613 1.376 . S
C610 C608 1.394 . S
C610 C611 1.369 . S
C610 C614 1.531 . S
C611 C610 1.369 . S
C611 C612 1.410 . S
C611 C619 1.503 . S
C612 C611 1.410 . S
C612 C613 1.392 . S
C612 C615 1.511 . S
C613 C609 1.376 . S
C613 C612 1.392 . S
C613 H625 0.929 . S
C614 C610 1.531 . S
C614 H626 0.960 . S
C614 H627 0.962 . S
C614 H628 0.960 . S
C615 C612 1.511 . S
C615 H629 0.961 . S
C615 H630 0.961 . S
C615 H631 0.961 . S
C616 C617 1.370 . S
C616 C618 1.363 . S
C616 H632 0.931 . S
C617 C616 1.370 . S
C617 C621 1.408 . S
C618 C616 1.363 . S
C618 C619 1.370 . S
C618 C622 1.524 . S
C619 C611 1.503 . S
C619 C618 1.370 . S
C619 C620 1.403 . S
C620 C619 1.403 . S
C620 C621 1.404 . S
C620 C623 1.539 . S
C621 C617 1.408 . S
C621 C620 1.404 . S
C621 H633 0.930 . S
C622 C618 1.524 . S
C622 H634 0.956 . S
C622 H635 0.961 . S
C622 H636 0.961 . S
C623 C620 1.539 . S
C623 H637 0.958 . S
C623 H638 0.961 . S
C623 H639 0.960 . S
H624 C608 0.931 . S
H625 C613 0.929 . S
H626 C614 0.960 . S
H627 C614 0.962 . S
H628 C614 0.960 . S
H629 C615 0.961 . S
H630 C615 0.961 . S
H631 C615 0.961 . S
H632 C616 0.931 . S
H633 C621 0.930 . S
H634 C622 0.956 . S
H635 C622 0.961 . S
H636 C622 0.961 . S
H637 C623 0.958 . S
H638 C623 0.961 . S
H639 C623 0.960 . S
C640 C641 1.391 . S
C640 C642 1.394 1_655 S
C640 H656 0.931 1_655 S
C641 C640 1.391 . S
C641 C645 1.376 . S
C642 C640 1.394 1_455 S
C642 C643 1.369 1_455 S
C642 C646 1.531 . S
C643 C642 1.369 1_655 S
C643 C644 1.410 . S
C643 C651 1.503 . S
C644 C643 1.410 . S
C644 C645 1.392 . S
C644 C647 1.511 . S
C645 C641 1.376 . S
C645 C644 1.392 . S
C645 H657 0.929 . S
C646 C642 1.531 . S
C646 H658 0.960 . S
C646 H659 0.962 . S
C646 H660 0.960 . S
C647 C644 1.511 . S
C647 H661 0.961 . S
C647 H662 0.961 . S
C647 H663 0.961 . S
C648 C649 1.363 1_655 S
C648 C650 1.376 . S
C648 H664 0.929 1_655 S
C649 C648 1.363 1_455 S
C649 C653 1.408 1_556 S
C650 C648 1.376 . S
C650 C651 1.370 1_556 S
C650 C654 1.524 . S
C651 C643 1.503 . S
C651 C650 1.370 1_554 S
C651 C652 1.403 . S
C652 C651 1.403 . S
C652 C653 1.404 1_655 S
C652 C655 1.539 . S
C653 C649 1.408 1_554 S
C653 C652 1.404 1_455 S
C653 H665 0.930 . S
C654 C650 1.524 . S
C654 H666 0.951 1_655 S
C654 H667 0.961 . S
C654 H668 0.961 . S
C655 C652 1.539 . S
C655 H669 0.958 1_655 S
C655 H670 0.961 . S
C655 H671 0.960 . S
H656 C640 0.931 1_455 S
H657 C645 0.929 . S
H658 C646 0.960 . S
H659 C646 0.962 . S
H660 C646 0.960 . S
H661 C647 0.961 . S
H662 C647 0.961 . S
H663 C647 0.961 . S
H664 C648 0.929 1_455 S
H665 C653 0.930 . S
H666 C654 0.951 1_455 S
H667 C654 0.961 . S
H668 C654 0.961 . S
H669 C655 0.958 1_455 S
H670 C655 0.961 . S
H671 C655 0.960 . S
C672 C673 1.391 . S
C672 C674 1.394 . S
C672 H688 0.931 . S
C673 C672 1.391 . S
C673 C677 1.376 . S
C674 C672 1.394 . S
C674 C675 1.369 . S
C674 C678 1.531 . S
C675 C674 1.369 . S
C675 C676 1.410 . S
C675 C683 1.503 . S
C676 C675 1.410 . S
C676 C677 1.392 . S
C676 C679 1.511 . S
C677 C673 1.376 . S
C677 C676 1.392 . S
C677 H689 0.929 . S
C678 C674 1.531 . S
C678 H690 0.960 . S
C678 H691 0.962 . S
C678 H692 0.960 . S
C679 C676 1.511 . S
C679 H693 0.961 . S
C679 H694 0.961 . S
C679 H695 0.961 . S
C680 C681 1.370 . S
C680 C682 1.363 . S
C680 H696 0.931 . S
C681 C680 1.370 . S
C681 C685 1.408 1_545 S
C682 C680 1.363 . S
C682 C683 1.370 1_545 S
C682 C686 1.524 . S
C683 C675 1.503 . S
C683 C682 1.370 1_565 S
C683 C684 1.403 . S
C684 C683 1.403 . S
C684 C685 1.404 . S
C684 C687 1.539 . S
C685 C681 1.408 1_565 S
C685 C684 1.404 . S
C685 H697 0.930 . S
C686 C682 1.524 . S
C686 H698 0.956 . S
C686 H699 0.961 . S
C686 H700 0.961 . S
C687 C684 1.539 . S
C687 H701 0.958 . S
C687 H702 0.961 . S
C687 H703 0.960 . S
H688 C672 0.931 . S
H689 C677 0.929 . S
H690 C678 0.960 . S
H691 C678 0.962 . S
H692 C678 0.960 . S
H693 C679 0.961 . S
H694 C679 0.961 . S
H695 C679 0.961 . S
H696 C680 0.931 . S
H697 C685 0.930 . S
H698 C686 0.956 . S
H699 C686 0.961 . S
H700 C686 0.961 . S
H701 C687 0.958 . S
H702 C687 0.961 . S
H703 C687 0.960 . S
C704 C705 1.391 . S
C704 C706 1.394 . S
C704 H720 0.931 . S
C705 C704 1.391 . S
C705 C709 1.376 . S
C706 C704 1.394 . S
C706 C707 1.369 . S
C706 C710 1.531 . S
C707 C706 1.369 . S
C707 C708 1.410 . S
C707 C715 1.503 1_554 S
C708 C707 1.410 . S
C708 C709 1.392 . S
C708 C711 1.511 1_554 S
C709 C705 1.376 . S
C709 C708 1.392 . S
C709 H721 0.929 . S
C710 C706 1.531 . S
C710 H722 0.960 1_554 S
C710 H723 0.962 . S
C710 H724 0.960 . S
C711 C708 1.511 1_556 S
C711 H725 0.961 1_556 S
C711 H726 0.961 . S
C711 H727 0.961 . S
C712 C713 1.370 . S
C712 C714 1.363 1_556 S
C712 H728 0.931 . S
C713 C712 1.370 . S
C713 C717 1.408 . S
C714 C712 1.363 1_554 S
C714 C715 1.370 1_554 S
C714 C718 1.524 . S
C715 C707 1.503 1_556 S
C715 C714 1.370 1_556 S
C715 C716 1.403 . S
C716 C715 1.403 . S
C716 C717 1.404 . S
C716 C719 1.539 . S
C717 C713 1.408 . S
C717 C716 1.404 . S
C717 H729 0.930 . S
C718 C714 1.524 . S
C718 H730 0.956 . S
C718 H731 0.961 . S
C718 H732 0.961 . S
C719 C716 1.539 . S
C719 H733 0.958 . S
C719 H734 0.961 . S
C719 H735 0.960 . S
H720 C704 0.931 . S
H721 C709 0.929 . S
H722 C710 0.960 1_556 S
H723 C710 0.962 . S
H724 C710 0.960 . S
H725 C711 0.961 1_554 S
H726 C711 0.961 . S
H727 C711 0.961 . S
H728 C712 0.931 . S
H729 C717 0.930 . S
H730 C718 0.956 . S
H731 C718 0.961 . S
H732 C718 0.961 . S
H733 C719 0.958 . S
H734 C719 0.961 . S
H735 C719 0.960 . S
C736 C737 1.391 . S
C736 C738 1.394 . S
C736 H752 0.931 . S
C737 C736 1.391 . S
C737 C741 1.376 . S
C738 C736 1.394 . S
C738 C739 1.369 . S
C738 C742 1.531 . S
C739 C738 1.369 . S
C739 C740 1.410 . S
C739 C747 1.503 1_655 S
C740 C739 1.410 . S
C740 C741 1.392 . S
C740 C743 1.511 1_655 S
C741 C737 1.376 . S
C741 C740 1.392 . S
C741 H753 0.929 . S
C742 C738 1.531 . S
C742 H754 0.960 . S
C742 H755 0.962 . S
C742 H756 0.960 . S
C743 C740 1.511 1_455 S
C743 H757 0.961 . S
C743 H758 0.961 . S
C743 H759 0.961 . S
C744 C745 1.370 . S
C744 C746 1.363 . S
C744 H760 0.931 . S
C745 C744 1.370 . S
C745 C749 1.408 . S
C746 C744 1.363 . S
C746 C747 1.370 . S
C746 C750 1.524 . S
C747 C739 1.503 1_455 S
C747 C746 1.370 . S
C747 C748 1.403 . S
C748 C747 1.403 . S
C748 C749 1.404 . S
C748 C751 1.539 . S
C749 C745 1.408 . S
C749 C748 1.404 . S
C749 H761 0.930 . S
C750 C746 1.524 . S
C750 H762 0.956 1_455 S
C750 H763 0.961 . S
C750 H764 0.961 . S
C751 C748 1.539 . S
C751 H765 0.958 1_455 S
C751 H766 0.961 . S
C751 H767 0.960 1_455 S
H752 C736 0.931 . S
H753 C741 0.929 . S
H754 C742 0.960 . S
H755 C742 0.962 . S
H756 C742 0.960 . S
H757 C743 0.961 . S
H758 C743 0.961 . S
H759 C743 0.961 . S
H760 C744 0.931 . S
H761 C749 0.930 . S
H762 C750 0.956 1_655 S
H763 C750 0.961 . S
H764 C750 0.961 . S
H765 C751 0.958 1_655 S
H766 C751 0.961 . S
H767 C751 0.960 1_655 S
C768 C769 1.412 . S
C768 C770 1.388 1_654 S
C768 H784 0.916 1_655 S
C769 C768 1.412 . S
C769 C773 1.376 . S
C770 C768 1.388 1_456 S
C770 C771 1.369 1_455 S
C770 C774 1.531 . S
C771 C770 1.369 1_655 S
C771 C772 1.410 1_556 S
C771 C779 1.503 1_565 S
C772 C771 1.410 1_554 S
C772 C773 1.392 . S
C772 C775 1.511 1_565 S
C773 C769 1.376 . S
C773 C772 1.392 . S
C773 H785 0.929 . S
C774 C770 1.531 . S
C774 H786 0.960 . S
C774 H787 0.962 . S
C774 H788 0.960 . S
C775 C772 1.511 1_545 S
C775 H789 0.961 . S
C775 H790 0.961 . S
C775 H791 0.961 1_554 S
C776 C777 1.370 . S
C776 C778 1.363 . S
C776 H792 0.931 . S
C777 C776 1.370 . S
C777 C781 1.408 1_455 S
C778 C776 1.363 . S
C778 C779 1.370 1_455 S
C778 C782 1.524 1_556 S
C779 C771 1.503 1_545 S
C779 C778 1.370 1_655 S
C779 C780 1.403 . S
C780 C779 1.403 . S
C780 C781 1.404 . S
C780 C783 1.539 1_545 S
C781 C777 1.408 1_655 S
C781 C780 1.404 . S
C781 H793 0.930 . S
C782 C778 1.524 1_554 S
C782 H794 0.956 . S
C782 H795 0.961 . S
C782 H796 0.961 . S
C783 C780 1.539 1_565 S
C783 H797 0.958 . S
C783 H798 0.961 1_565 S
C783 H799 0.960 . S
H784 C768 0.916 1_455 S
H785 C773 0.929 . S
H786 C774 0.960 . S
H787 C774 0.962 . S
H788 C774 0.960 . S
H789 C775 0.961 . S
H790 C775 0.961 . S
H791 C775 0.961 1_556 S
H792 C776 0.931 . S
H793 C781 0.930 . S
H794 C782 0.956 . S
H795 C782 0.961 . S
H796 C782 0.961 . S
H797 C783 0.958 . S
H798 C783 0.961 1_545 S
H799 C783 0.960 . S
C800 C801 1.391 . S
C800 C802 1.394 . S
C800 H816 0.931 . S
C801 C800 1.391 . S
C801 C805 1.376 . S
C802 C800 1.394 . S
C802 C803 1.369 . S
C802 C806 1.531 . S
C803 C802 1.369 . S
C803 C804 1.410 . S
C803 C811 1.503 . S
C804 C803 1.410 . S
C804 C805 1.392 . S
C804 C807 1.511 . S
C805 C801 1.376 . S
C805 C804 1.392 . S
C805 H817 0.929 . S
C806 C802 1.531 . S
C806 H818 0.960 . S
C806 H819 0.962 . S
C806 H820 0.960 . S
C807 C804 1.511 . S
C807 H821 0.961 . S
C807 H822 0.961 . S
C807 H823 0.961 . S
C808 C809 1.370 . S
C808 C810 1.363 . S
C808 H824 0.931 . S
C809 C808 1.370 . S
C809 C813 1.408 . S
C810 C808 1.363 . S
C810 C811 1.370 . S
C810 C814 1.524 . S
C811 C803 1.503 . S
C811 C810 1.370 . S
C811 C812 1.403 . S
C812 C811 1.403 . S
C812 C813 1.404 . S
C812 C815 1.539 . S
C813 C809 1.408 . S
C813 C812 1.404 . S
C813 H825 0.930 . S
C814 C810 1.524 . S
C814 H826 0.956 . S
C814 H827 0.961 . S
C814 H828 0.961 . S
C815 C812 1.539 . S
C815 H829 0.958 . S
C815 H830 0.961 . S
C815 H831 0.960 . S
H816 C800 0.931 . S
H817 C805 0.929 . S
H818 C806 0.960 . S
H819 C806 0.962 . S
H820 C806 0.960 . S
H821 C807 0.961 . S
H822 C807 0.961 . S
H823 C807 0.961 . S
H824 C808 0.931 . S
H825 C813 0.930 . S
H826 C814 0.956 . S
H827 C814 0.961 . S
H828 C814 0.961 . S
H829 C815 0.958 . S
H830 C815 0.961 . S
H831 C815 0.960 . S
C832 C833 1.391 . S
C832 C834 1.394 . S
C832 H848 0.931 . S
C833 C832 1.391 . S
C833 C837 1.376 . S
C834 C832 1.394 . S
C834 C835 1.369 . S
C834 C838 1.531 . S
C835 C834 1.369 . S
C835 C836 1.410 . S
C835 C843 1.503 . S
C836 C835 1.410 . S
C836 C837 1.392 . S
C836 C839 1.511 . S
C837 C833 1.376 . S
C837 C836 1.392 . S
C837 H849 0.929 . S
C838 C834 1.531 . S
C838 H850 0.960 . S
C838 H851 0.962 . S
C838 H852 0.960 . S
C839 C836 1.511 . S
C839 H853 0.961 . S
C839 H854 0.961 . S
C839 H855 0.961 . S
C840 C841 1.370 . S
C840 C842 1.363 . S
C840 H856 0.931 . S
C841 C840 1.370 . S
C841 C845 1.408 . S
C842 C840 1.363 . S
C842 C843 1.370 . S
C842 C846 1.524 . S
C843 C835 1.503 . S
C843 C842 1.370 . S
C843 C844 1.403 . S
C844 C843 1.403 . S
C844 C845 1.404 . S
C844 C847 1.539 . S
C845 C841 1.408 . S
C845 C844 1.404 . S
C845 H857 0.930 . S
C846 C842 1.524 . S
C846 H858 0.956 . S
C846 H859 0.961 . S
C846 H860 0.961 . S
C847 C844 1.539 . S
C847 H861 0.958 . S
C847 H862 0.961 . S
C847 H863 0.960 . S
H848 C832 0.931 . S
H849 C837 0.929 . S
H850 C838 0.960 . S
H851 C838 0.962 . S
H852 C838 0.960 . S
H853 C839 0.961 . S
H854 C839 0.961 . S
H855 C839 0.961 . S
H856 C840 0.931 . S
H857 C845 0.930 . S
H858 C846 0.956 . S
H859 C846 0.961 . S
H860 C846 0.961 . S
H861 C847 0.958 . S
H862 C847 0.961 . S
H863 C847 0.960 . S
C864 C865 1.391 . S
C864 C866 1.394 . S
C864 H880 0.931 . S
C865 C864 1.391 . S
C865 C869 1.376 . S
C866 C864 1.394 . S
C866 C867 1.369 . S
C866 C870 1.531 . S
C867 C866 1.369 . S
C867 C868 1.410 . S
C867 C875 1.503 . S
C868 C867 1.410 . S
C868 C869 1.392 . S
C868 C871 1.511 . S
C869 C865 1.376 . S
C869 C868 1.392 . S
C869 H881 0.929 . S
C870 C866 1.531 . S
C870 H882 0.960 . S
C870 H883 0.962 . S
C870 H884 0.960 . S
C871 C868 1.511 . S
C871 H885 0.961 . S
C871 H886 0.961 . S
C871 H887 0.961 . S
C872 C873 1.370 . S
C872 C874 1.363 . S
C872 H888 0.931 . S
C873 C872 1.370 . S
C873 C877 1.408 . S
C874 C872 1.363 . S
C874 C875 1.370 . S
C874 C878 1.524 . S
C875 C867 1.503 . S
C875 C874 1.370 . S
C875 C876 1.403 . S
C876 C875 1.403 . S
C876 C877 1.404 . S
C876 C879 1.539 . S
C877 C873 1.408 . S
C877 C876 1.404 . S
C877 H889 0.930 . S
C878 C874 1.524 . S
C878 H890 0.956 . S
C878 H891 0.961 . S
C878 H892 0.961 . S
C879 C876 1.539 . S
C879 H893 0.958 . S
C879 H894 0.961 . S
C879 H895 0.960 . S
H880 C864 0.931 . S
H881 C869 0.929 . S
H882 C870 0.960 . S
H883 C870 0.962 . S
H884 C870 0.960 . S
H885 C871 0.961 . S
H886 C871 0.961 . S
H887 C871 0.961 . S
H888 C872 0.931 . S
H889 C877 0.930 . S
H890 C878 0.956 . S
H891 C878 0.961 . S
H892 C878 0.961 . S
H893 C879 0.958 . S
H894 C879 0.961 . S
H895 C879 0.960 . S
C896 C897 1.391 . S
C896 C898 1.394 . S
C896 H912 0.931 . S
C897 C896 1.391 . S
C897 C901 1.376 . S
C898 C896 1.394 . S
C898 C899 1.369 . S
C898 C902 1.531 . S
C899 C898 1.369 . S
C899 C900 1.410 . S
C899 C907 1.503 . S
C900 C899 1.410 . S
C900 C901 1.392 . S
C900 C903 1.511 . S
C901 C897 1.376 . S
C901 C900 1.392 . S
C901 H913 0.929 . S
C902 C898 1.531 . S
C902 H914 0.960 . S
C902 H915 0.962 . S
C902 H916 0.960 . S
C903 C900 1.511 . S
C903 H917 0.961 . S
C903 H918 0.961 . S
C903 H919 0.961 . S
C904 C905 1.370 . S
C904 C906 1.363 . S
C904 H920 0.931 . S
C905 C904 1.370 . S
C905 C909 1.408 . S
C906 C904 1.363 . S
C906 C907 1.370 . S
C906 C910 1.524 . S
C907 C899 1.503 . S
C907 C906 1.370 . S
C907 C908 1.403 . S
C908 C907 1.403 . S
C908 C909 1.404 . S
C908 C911 1.539 . S
C909 C905 1.408 . S
C909 C908 1.404 . S
C909 H921 0.930 . S
C910 C906 1.524 . S
C910 H922 0.956 . S
C910 H923 0.961 . S
C910 H924 0.961 . S
C911 C908 1.539 . S
C911 H925 0.958 . S
C911 H926 0.961 . S
C911 H927 0.960 . S
H912 C896 0.931 . S
H913 C901 0.929 . S
H914 C902 0.960 . S
H915 C902 0.962 . S
H916 C902 0.960 . S
H917 C903 0.961 . S
H918 C903 0.961 . S
H919 C903 0.961 . S
H920 C904 0.931 . S
H921 C909 0.930 . S
H922 C910 0.956 . S
H923 C910 0.961 . S
H924 C910 0.961 . S
H925 C911 0.958 . S
H926 C911 0.961 . S
H927 C911 0.960 . S
C928 C929 1.391 . S
C928 C930 1.394 . S
C928 H944 0.931 . S
C929 C928 1.391 . S
C929 C933 1.376 . S
C930 C928 1.394 . S
C930 C931 1.369 . S
C930 C934 1.531 . S
C931 C930 1.369 . S
C931 C932 1.410 . S
C931 C939 1.503 . S
C932 C931 1.410 . S
C932 C933 1.392 . S
C932 C935 1.511 . S
C933 C929 1.376 . S
C933 C932 1.392 . S
C933 H945 0.929 . S
C934 C930 1.531 . S
C934 H946 0.960 . S
C934 H947 0.962 . S
C934 H948 0.960 . S
C935 C932 1.511 . S
C935 H949 0.961 . S
C935 H950 0.961 . S
C935 H951 0.961 . S
C936 C937 1.370 . S
C936 C938 1.363 . S
C936 H952 0.931 . S
C937 C936 1.370 . S
C937 C941 1.408 . S
C938 C936 1.363 . S
C938 C939 1.370 . S
C938 C942 1.524 . S
C939 C931 1.503 . S
C939 C938 1.370 . S
C939 C940 1.403 . S
C940 C939 1.403 . S
C940 C941 1.404 . S
C940 C943 1.539 . S
C941 C937 1.408 . S
C941 C940 1.404 . S
C941 H953 0.930 . S
C942 C938 1.524 . S
C942 H954 0.956 . S
C942 H955 0.961 . S
C942 H956 0.961 . S
C943 C940 1.539 . S
C943 H957 0.958 . S
C943 H958 0.961 . S
C943 H959 0.960 . S
H944 C928 0.931 . S
H945 C933 0.929 . S
H946 C934 0.960 . S
H947 C934 0.962 . S
H948 C934 0.960 . S
H949 C935 0.961 . S
H950 C935 0.961 . S
H951 C935 0.961 . S
H952 C936 0.931 . S
H953 C941 0.930 . S
H954 C942 0.956 . S
H955 C942 0.961 . S
H956 C942 0.961 . S
H957 C943 0.958 . S
H958 C943 0.961 . S
H959 C943 0.960 . S
C960 C961 1.391 . S
C960 C962 1.394 . S
C960 H976 0.931 . S
C961 C960 1.391 . S
C961 C965 1.376 . S
C962 C960 1.394 . S
C962 C963 1.369 . S
C962 C966 1.531 . S
C963 C962 1.369 . S
C963 C964 1.410 . S
C963 C971 1.503 . S
C964 C963 1.410 . S
C964 C965 1.392 . S
C964 C967 1.511 . S
C965 C961 1.376 . S
C965 C964 1.392 . S
C965 H977 0.929 . S
C966 C962 1.531 . S
C966 H978 0.960 . S
C966 H979 0.962 . S
C966 H980 0.960 . S
C967 C964 1.511 . S
C967 H981 0.961 . S
C967 H982 0.961 . S
C967 H983 0.961 . S
C968 C969 1.370 . S
C968 C970 1.363 . S
C968 H984 0.931 . S
C969 C968 1.370 . S
C969 C973 1.408 . S
C970 C968 1.363 . S
C970 C971 1.370 . S
C970 C974 1.524 . S
C971 C963 1.503 . S
C971 C970 1.370 . S
C971 C972 1.403 . S
C972 C971 1.403 . S
C972 C973 1.404 . S
C972 C975 1.539 . S
C973 C969 1.408 . S
C973 C972 1.404 . S
C973 H985 0.930 . S
C974 C970 1.524 . S
C974 H986 0.956 . S
C974 H987 0.961 . S
C974 H988 0.961 . S
C975 C972 1.539 . S
C975 H989 0.958 . S
C975 H990 0.961 . S
C975 H991 0.960 . S
H976 C960 0.931 . S
H977 C965 0.929 . S
H978 C966 0.960 . S
H979 C966 0.962 . S
H980 C966 0.960 . S
H981 C967 0.961 . S
H982 C967 0.961 . S
H983 C967 0.961 . S
H984 C968 0.931 . S
H985 C973 0.930 . S
H986 C974 0.956 . S
H987 C974 0.961 . S
H988 C974 0.961 . S
H989 C975 0.958 . S
H990 C975 0.961 . S
H991 C975 0.960 . S
C992 C993 1.391 . S
C992 C994 1.394 . S
C992 H1008 0.931 . S
C993 C992 1.391 . S
C993 C997 1.376 . S
C994 C992 1.394 . S
C994 C995 1.369 . S
C994 C998 1.531 . S
C995 C994 1.369 . S
C995 C996 1.410 . S
C995 C1003 1.503 . S
C996 C995 1.410 . S
C996 C997 1.392 . S
C996 C999 1.511 . S
C997 C993 1.376 . S
C997 C996 1.392 . S
C997 H1009 0.929 . S
C998 C994 1.531 . S
C998 H1010 0.960 . S
C998 H1011 0.962 . S
C998 H1012 0.960 . S
C999 C996 1.511 . S
C999 H1013 0.961 . S
C999 H1014 0.961 . S
C999 H1015 0.961 . S
C1000 C1001 1.370 . S
C1000 C1002 1.363 . S
C1000 H1016 0.931 . S
C1001 C1000 1.370 . S
C1001 C1005 1.408 . S
C1002 C1000 1.363 . S
C1002 C1003 1.370 . S
C1002 C1006 1.524 . S
C1003 C995 1.503 . S
C1003 C1002 1.370 . S
C1003 C1004 1.403 . S
C1004 C1003 1.403 . S
C1004 C1005 1.404 . S
C1004 C1007 1.539 . S
C1005 C1001 1.408 . S
C1005 C1004 1.404 . S
C1005 H1017 0.930 . S
C1006 C1002 1.524 . S
C1006 H1018 0.956 . S
C1006 H1019 0.961 . S
C1006 H1020 0.961 . S
C1007 C1004 1.539 . S
C1007 H1021 0.958 . S
C1007 H1022 0.961 . S
C1007 H1023 0.960 . S
H1008 C992 0.931 . S
H1009 C997 0.929 . S
H1010 C998 0.960 . S
H1011 C998 0.962 . S
H1012 C998 0.960 . S
H1013 C999 0.961 . S
H1014 C999 0.961 . S
H1015 C999 0.961 . S
H1016 C1000 0.931 . S
H1017 C1005 0.930 . S
H1018 C1006 0.956 . S
H1019 C1006 0.961 . S
H1020 C1006 0.961 . S
H1021 C1007 0.958 . S
H1022 C1007 0.961 . S
H1023 C1007 0.960 . S
C1024 C1025 1.391 . S
C1024 C1026 1.394 . S
C1024 H1040 0.931 . S
C1025 C1024 1.391 . S
C1025 C1029 1.376 . S
C1026 C1024 1.394 . S
C1026 C1027 1.369 . S
C1026 C1030 1.531 . S
C1027 C1026 1.369 . S
C1027 C1028 1.410 . S
C1027 C1035 1.503 . S
C1028 C1027 1.410 . S
C1028 C1029 1.392 . S
C1028 C1031 1.511 . S
C1029 C1025 1.376 . S
C1029 C1028 1.392 . S
C1029 H1041 0.929 . S
C1030 C1026 1.531 . S
C1030 H1042 0.960 . S
C1030 H1043 0.962 . S
C1030 H1044 0.960 . S
C1031 C1028 1.511 . S
C1031 H1045 0.961 . S
C1031 H1046 0.961 . S
C1031 H1047 0.961 . S
C1032 C1033 1.370 . S
C1032 C1034 1.363 . S
C1032 H1048 0.931 . S
C1033 C1032 1.370 . S
C1033 C1037 1.408 . S
C1034 C1032 1.363 . S
C1034 C1035 1.370 . S
C1034 C1038 1.524 . S
C1035 C1027 1.503 . S
C1035 C1034 1.370 . S
C1035 C1036 1.403 . S
C1036 C1035 1.403 . S
C1036 C1037 1.404 . S
C1036 C1039 1.539 . S
C1037 C1033 1.408 . S
C1037 C1036 1.404 . S
C1037 H1049 0.930 . S
C1038 C1034 1.524 . S
C1038 H1050 0.956 . S
C1038 H1051 0.961 . S
C1038 H1052 0.961 . S
C1039 C1036 1.539 . S
C1039 H1053 0.958 . S
C1039 H1054 0.961 . S
C1039 H1055 0.960 . S
H1040 C1024 0.931 . S
H1041 C1029 0.929 . S
H1042 C1030 0.960 . S
H1043 C1030 0.962 . S
H1044 C1030 0.960 . S
H1045 C1031 0.961 . S
H1046 C1031 0.961 . S
H1047 C1031 0.961 . S
H1048 C1032 0.931 . S
H1049 C1037 0.930 . S
H1050 C1038 0.956 . S
H1051 C1038 0.961 . S
H1052 C1038 0.961 . S
H1053 C1039 0.958 . S
H1054 C1039 0.961 . S
H1055 C1039 0.960 . S
C1056 C1057 1.391 . S
C1056 C1058 1.394 . S
C1056 H1072 0.931 . S
C1057 C1056 1.391 . S
C1057 C1061 1.376 . S
C1058 C1056 1.394 . S
C1058 C1059 1.369 . S
C1058 C1062 1.531 . S
C1059 C1058 1.369 . S
C1059 C1060 1.410 . S
C1059 C1067 1.503 . S
C1060 C1059 1.410 . S
C1060 C1061 1.392 . S
C1060 C1063 1.511 . S
C1061 C1057 1.376 . S
C1061 C1060 1.392 . S
C1061 H1073 0.929 . S
C1062 C1058 1.531 . S
C1062 H1074 0.960 . S
C1062 H1075 0.962 . S
C1062 H1076 0.960 . S
C1063 C1060 1.511 . S
C1063 H1077 0.961 . S
C1063 H1078 0.961 . S
C1063 H1079 0.961 . S
C1064 C1065 1.370 . S
C1064 C1066 1.363 . S
C1064 H1080 0.931 . S
C1065 C1064 1.370 . S
C1065 C1069 1.408 . S
C1066 C1064 1.363 . S
C1066 C1067 1.370 . S
C1066 C1070 1.524 . S
C1067 C1059 1.503 . S
C1067 C1066 1.370 . S
C1067 C1068 1.403 . S
C1068 C1067 1.403 . S
C1068 C1069 1.404 . S
C1068 C1071 1.539 . S
C1069 C1065 1.408 . S
C1069 C1068 1.404 . S
C1069 H1081 0.930 . S
C1070 C1066 1.524 . S
C1070 H1082 0.956 . S
C1070 H1083 0.961 . S
C1070 H1084 0.961 . S
C1071 C1068 1.539 . S
C1071 H1085 0.958 . S
C1071 H1086 0.961 . S
C1071 H1087 0.960 . S
H1072 C1056 0.931 . S
H1073 C1061 0.929 . S
H1074 C1062 0.960 . S
H1075 C1062 0.962 . S
H1076 C1062 0.960 . S
H1077 C1063 0.961 . S
H1078 C1063 0.961 . S
H1079 C1063 0.961 . S
H1080 C1064 0.931 . S
H1081 C1069 0.930 . S
H1082 C1070 0.956 . S
H1083 C1070 0.961 . S
H1084 C1070 0.961 . S
H1085 C1071 0.958 . S
H1086 C1071 0.961 . S
H1087 C1071 0.960 . S
C1088 C1089 1.391 . S
C1088 C1090 1.394 . S
C1088 H1104 0.931 . S
C1089 C1088 1.391 . S
C1089 C1093 1.376 . S
C1090 C1088 1.394 . S
C1090 C1091 1.369 . S
C1090 C1094 1.531 . S
C1091 C1090 1.369 . S
C1091 C1092 1.410 . S
C1091 C1099 1.503 . S
C1092 C1091 1.410 . S
C1092 C1093 1.392 . S
C1092 C1095 1.511 . S
C1093 C1089 1.376 . S
C1093 C1092 1.392 . S
C1093 H1105 0.929 . S
C1094 C1090 1.531 . S
C1094 H1106 0.960 . S
C1094 H1107 0.962 . S
C1094 H1108 0.960 . S
C1095 C1092 1.511 . S
C1095 H1109 0.961 . S
C1095 H1110 0.961 . S
C1095 H1111 0.961 . S
C1096 C1097 1.370 . S
C1096 C1098 1.363 . S
C1096 H1112 0.931 . S
C1097 C1096 1.370 . S
C1097 C1101 1.408 . S
C1098 C1096 1.363 . S
C1098 C1099 1.370 . S
C1098 C1102 1.524 . S
C1099 C1091 1.503 . S
C1099 C1098 1.370 . S
C1099 C1100 1.403 . S
C1100 C1099 1.403 . S
C1100 C1101 1.404 . S
C1100 C1103 1.539 . S
C1101 C1097 1.408 . S
C1101 C1100 1.404 . S
C1101 H1113 0.930 . S
C1102 C1098 1.524 . S
C1102 H1114 0.956 . S
C1102 H1115 0.961 . S
C1102 H1116 0.961 . S
C1103 C1100 1.539 . S
C1103 H1117 0.958 . S
C1103 H1118 0.961 . S
C1103 H1119 0.960 . S
H1104 C1088 0.931 . S
H1105 C1093 0.929 . S
H1106 C1094 0.960 . S
H1107 C1094 0.962 . S
H1108 C1094 0.960 . S
H1109 C1095 0.961 . S
H1110 C1095 0.961 . S
H1111 C1095 0.961 . S
H1112 C1096 0.931 . S
H1113 C1101 0.930 . S
H1114 C1102 0.956 . S
H1115 C1102 0.961 . S
H1116 C1102 0.961 . S
H1117 C1103 0.958 . S
H1118 C1103 0.961 . S
H1119 C1103 0.960 . S
C1120 C1121 1.391 . S
C1120 C1122 1.394 . S
C1120 H1136 0.931 . S
C1121 C1120 1.391 . S
C1121 C1125 1.376 . S
C1122 C1120 1.394 . S
C1122 C1123 1.369 . S
C1122 C1126 1.531 . S
C1123 C1122 1.369 . S
C1123 C1124 1.410 . S
C1123 C1131 1.503 . S
C1124 C1123 1.410 . S
C1124 C1125 1.392 . S
C1124 C1127 1.511 . S
C1125 C1121 1.376 . S
C1125 C1124 1.392 . S
C1125 H1137 0.929 . S
C1126 C1122 1.531 . S
C1126 H1138 0.960 . S
C1126 H1139 0.962 . S
C1126 H1140 0.960 . S
C1127 C1124 1.511 . S
C1127 H1141 0.961 . S
C1127 H1142 0.961 . S
C1127 H1143 0.961 . S
C1128 C1129 1.370 . S
C1128 C1130 1.363 . S
C1128 H1144 0.931 . S
C1129 C1128 1.370 . S
C1129 C1133 1.408 . S
C1130 C1128 1.363 . S
C1130 C1131 1.370 . S
C1130 C1134 1.524 . S
C1131 C1123 1.503 . S
C1131 C1130 1.370 . S
C1131 C1132 1.403 . S
C1132 C1131 1.403 . S
C1132 C1133 1.404 . S
C1132 C1135 1.539 . S
C1133 C1129 1.408 . S
C1133 C1132 1.404 . S
C1133 H1145 0.930 . S
C1134 C1130 1.524 . S
C1134 H1146 0.956 . S
C1134 H1147 0.961 . S
C1134 H1148 0.961 . S
C1135 C1132 1.539 . S
C1135 H1149 0.958 . S
C1135 H1150 0.961 . S
C1135 H1151 0.960 . S
H1136 C1120 0.931 . S
H1137 C1125 0.929 . S
H1138 C1126 0.960 . S
H1139 C1126 0.962 . S
H1140 C1126 0.960 . S
H1141 C1127 0.961 . S
H1142 C1127 0.961 . S
H1143 C1127 0.961 . S
H1144 C1128 0.931 . S
H1145 C1133 0.930 . S
H1146 C1134 0.956 . S
H1147 C1134 0.961 . S
H1148 C1134 0.961 . S
H1149 C1135 0.958 . S
H1150 C1135 0.961 . S
H1151 C1135 0.960 . S
C1152 C1153 1.391 . S
C1152 C1154 1.394 . S
C1152 H1168 0.931 . S
C1153 C1152 1.391 . S
C1153 C1157 1.376 . S
C1154 C1152 1.394 . S
C1154 C1155 1.369 . S
C1154 C1158 1.531 . S
C1155 C1154 1.369 . S
C1155 C1156 1.410 . S
C1155 C1163 1.503 . S
C1156 C1155 1.410 . S
C1156 C1157 1.392 . S
C1156 C1159 1.511 . S
C1157 C1153 1.376 . S
C1157 C1156 1.392 . S
C1157 H1169 0.929 . S
C1158 C1154 1.531 . S
C1158 H1170 0.960 . S
C1158 H1171 0.962 . S
C1158 H1172 0.960 . S
C1159 C1156 1.511 . S
C1159 H1173 0.961 . S
C1159 H1174 0.961 . S
C1159 H1175 0.961 . S
C1160 C1161 1.370 . S
C1160 C1162 1.363 . S
C1160 H1176 0.931 . S
C1161 C1160 1.370 . S
C1161 C1165 1.408 . S
C1162 C1160 1.363 . S
C1162 C1163 1.370 . S
C1162 C1166 1.524 . S
C1163 C1155 1.503 . S
C1163 C1162 1.370 . S
C1163 C1164 1.403 . S
C1164 C1163 1.403 . S
C1164 C1165 1.404 . S
C1164 C1167 1.539 . S
C1165 C1161 1.408 . S
C1165 C1164 1.404 . S
C1165 H1177 0.930 . S
C1166 C1162 1.524 . S
C1166 H1178 0.956 . S
C1166 H1179 0.961 . S
C1166 H1180 0.961 . S
C1167 C1164 1.539 . S
C1167 H1181 0.958 . S
C1167 H1182 0.961 . S
C1167 H1183 0.960 . S
H1168 C1152 0.931 . S
H1169 C1157 0.929 . S
H1170 C1158 0.960 . S
H1171 C1158 0.962 . S
H1172 C1158 0.960 . S
H1173 C1159 0.961 . S
H1174 C1159 0.961 . S
H1175 C1159 0.961 . S
H1176 C1160 0.931 . S
H1177 C1165 0.930 . S
H1178 C1166 0.956 . S
H1179 C1166 0.961 . S
H1180 C1166 0.961 . S
H1181 C1167 0.958 . S
H1182 C1167 0.961 . S
H1183 C1167 0.960 . S
C1184 C1185 1.391 . S
C1184 C1186 1.394 . S
C1184 H1200 0.931 . S
C1185 C1184 1.391 . S
C1185 C1189 1.376 . S
C1186 C1184 1.394 . S
C1186 C1187 1.369 . S
C1186 C1190 1.531 . S
C1187 C1186 1.369 . S
C1187 C1188 1.410 . S
C1187 C1195 1.503 . S
C1188 C1187 1.410 . S
C1188 C1189 1.392 . S
C1188 C1191 1.511 . S
C1189 C1185 1.376 . S
C1189 C1188 1.392 . S
C1189 H1201 0.929 . S
C1190 C1186 1.531 . S
C1190 H1202 0.960 . S
C1190 H1203 0.962 . S
C1190 H1204 0.960 . S
C1191 C1188 1.511 . S
C1191 H1205 0.961 . S
C1191 H1206 0.961 . S
C1191 H1207 0.961 . S
C1192 C1193 1.370 . S
C1192 C1194 1.363 . S
C1192 H1208 0.931 . S
C1193 C1192 1.370 . S
C1193 C1197 1.408 . S
C1194 C1192 1.363 . S
C1194 C1195 1.370 . S
C1194 C1198 1.524 . S
C1195 C1187 1.503 . S
C1195 C1194 1.370 . S
C1195 C1196 1.403 . S
C1196 C1195 1.403 . S
C1196 C1197 1.404 . S
C1196 C1199 1.539 . S
C1197 C1193 1.408 . S
C1197 C1196 1.404 . S
C1197 H1209 0.930 . S
C1198 C1194 1.524 . S
C1198 H1210 0.956 . S
C1198 H1211 0.961 . S
C1198 H1212 0.961 . S
C1199 C1196 1.539 . S
C1199 H1213 0.958 . S
C1199 H1214 0.961 . S
C1199 H1215 0.960 . S
H1200 C1184 0.931 . S
H1201 C1189 0.929 . S
H1202 C1190 0.960 . S
H1203 C1190 0.962 . S
H1204 C1190 0.960 . S
H1205 C1191 0.961 . S
H1206 C1191 0.961 . S
H1207 C1191 0.961 . S
H1208 C1192 0.931 . S
H1209 C1197 0.930 . S
H1210 C1198 0.956 . S
H1211 C1198 0.961 . S
H1212 C1198 0.961 . S
H1213 C1199 0.958 . S
H1214 C1199 0.961 . S
H1215 C1199 0.960 . S
C1216 C1217 1.391 . S
C1216 C1218 1.394 . S
C1216 H1232 0.931 . S
C1217 C1216 1.391 . S
C1217 C1221 1.376 . S
C1218 C1216 1.394 . S
C1218 C1219 1.369 . S
C1218 C1222 1.531 . S
C1219 C1218 1.369 . S
C1219 C1220 1.410 . S
C1219 C1227 1.503 . S
C1220 C1219 1.410 . S
C1220 C1221 1.392 . S
C1220 C1223 1.511 . S
C1221 C1217 1.376 . S
C1221 C1220 1.392 . S
C1221 H1233 0.929 . S
C1222 C1218 1.531 . S
C1222 H1234 0.960 . S
C1222 H1235 0.962 . S
C1222 H1236 0.960 . S
C1223 C1220 1.511 . S
C1223 H1237 0.961 . S
C1223 H1238 0.961 . S
C1223 H1239 0.961 . S
C1224 C1225 1.370 . S
C1224 C1226 1.363 . S
C1224 H1240 0.931 . S
C1225 C1224 1.370 . S
C1225 C1229 1.408 . S
C1226 C1224 1.363 . S
C1226 C1227 1.370 . S
C1226 C1230 1.524 . S
C1227 C1219 1.503 . S
C1227 C1226 1.370 . S
C1227 C1228 1.403 . S
C1228 C1227 1.403 . S
C1228 C1229 1.404 . S
C1228 C1231 1.539 . S
C1229 C1225 1.408 . S
C1229 C1228 1.404 . S
C1229 H1241 0.930 . S
C1230 C1226 1.524 . S
C1230 H1242 0.956 . S
C1230 H1243 0.961 . S
C1230 H1244 0.961 . S
C1231 C1228 1.539 . S
C1231 H1245 0.958 . S
C1231 H1246 0.961 . S
C1231 H1247 0.960 . S
H1232 C1216 0.931 . S
H1233 C1221 0.929 . S
H1234 C1222 0.960 . S
H1235 C1222 0.962 . S
H1236 C1222 0.960 . S
H1237 C1223 0.961 . S
H1238 C1223 0.961 . S
H1239 C1223 0.961 . S
H1240 C1224 0.931 . S
H1241 C1229 0.930 . S
H1242 C1230 0.956 . S
H1243 C1230 0.961 . S
H1244 C1230 0.961 . S
H1245 C1231 0.958 . S
H1246 C1231 0.961 . S
H1247 C1231 0.960 . S
C1248 C1249 1.391 . S
C1248 C1250 1.394 . S
C1248 H1264 0.931 . S
C1249 C1248 1.391 . S
C1249 C1253 1.376 . S
C1250 C1248 1.394 . S
C1250 C1251 1.369 . S
C1250 C1254 1.531 . S
C1251 C1250 1.369 . S
C1251 C1252 1.410 . S
C1251 C1259 1.503 . S
C1252 C1251 1.410 . S
C1252 C1253 1.392 . S
C1252 C1255 1.511 . S
C1253 C1249 1.376 . S
C1253 C1252 1.392 . S
C1253 H1265 0.929 . S
C1254 C1250 1.531 . S
C1254 H1266 0.960 . S
C1254 H1267 0.962 . S
C1254 H1268 0.960 . S
C1255 C1252 1.511 . S
C1255 H1269 0.961 . S
C1255 H1270 0.961 . S
C1255 H1271 0.961 . S
C1256 C1257 1.370 . S
C1256 C1258 1.363 . S
C1256 H1272 0.931 . S
C1257 C1256 1.370 . S
C1257 C1261 1.408 . S
C1258 C1256 1.363 . S
C1258 C1259 1.370 . S
C1258 C1262 1.524 . S
C1259 C1251 1.503 . S
C1259 C1258 1.370 . S
C1259 C1260 1.403 . S
C1260 C1259 1.403 . S
C1260 C1261 1.404 . S
C1260 C1263 1.539 . S
C1261 C1257 1.408 . S
C1261 C1260 1.404 . S
C1261 H1273 0.930 . S
C1262 C1258 1.524 . S
C1262 H1274 0.956 . S
C1262 H1275 0.961 . S
C1262 H1276 0.961 . S
C1263 C1260 1.539 . S
C1263 H1277 0.958 . S
C1263 H1278 0.961 . S
C1263 H1279 0.960 . S
H1264 C1248 0.931 . S
H1265 C1253 0.929 . S
H1266 C1254 0.960 . S
H1267 C1254 0.962 . S
H1268 C1254 0.960 . S
H1269 C1255 0.961 . S
H1270 C1255 0.961 . S
H1271 C1255 0.961 . S
H1272 C1256 0.931 . S
H1273 C1261 0.930 . S
H1274 C1262 0.956 . S
H1275 C1262 0.961 . S
H1276 C1262 0.961 . S
H1277 C1263 0.958 . S
H1278 C1263 0.961 . S
H1279 C1263 0.960 . S
C1280 C1281 1.391 . S
C1280 C1282 1.394 . S
C1280 H1296 0.931 . S
C1281 C1280 1.391 . S
C1281 C1285 1.376 . S
C1282 C1280 1.394 . S
C1282 C1283 1.369 . S
C1282 C1286 1.531 . S
C1283 C1282 1.369 . S
C1283 C1284 1.410 . S
C1283 C1291 1.503 . S
C1284 C1283 1.410 . S
C1284 C1285 1.392 . S
C1284 C1287 1.511 . S
C1285 C1281 1.376 . S
C1285 C1284 1.392 . S
C1285 H1297 0.929 . S
C1286 C1282 1.531 . S
C1286 H1298 0.960 . S
C1286 H1299 0.962 . S
C1286 H1300 0.960 . S
C1287 C1284 1.511 . S
C1287 H1301 0.961 . S
C1287 H1302 0.961 . S
C1287 H1303 0.961 . S
C1288 C1289 1.370 . S
C1288 C1290 1.363 . S
C1288 H1304 0.931 . S
C1289 C1288 1.370 . S
C1289 C1293 1.408 . S
C1290 C1288 1.363 . S
C1290 C1291 1.370 . S
C1290 C1294 1.524 . S
C1291 C1283 1.503 . S
C1291 C1290 1.370 . S
C1291 C1292 1.403 . S
C1292 C1291 1.403 . S
C1292 C1293 1.404 . S
C1292 C1295 1.539 . S
C1293 C1289 1.408 . S
C1293 C1292 1.404 . S
C1293 H1305 0.930 . S
C1294 C1290 1.524 . S
C1294 H1306 0.956 . S
C1294 H1307 0.961 . S
C1294 H1308 0.961 . S
C1295 C1292 1.539 . S
C1295 H1309 0.958 . S
C1295 H1310 0.961 . S
C1295 H1311 0.960 . S
H1296 C1280 0.931 . S
H1297 C1285 0.929 . S
H1298 C1286 0.960 . S
H1299 C1286 0.962 . S
H1300 C1286 0.960 . S
H1301 C1287 0.961 . S
H1302 C1287 0.961 . S
H1303 C1287 0.961 . S
H1304 C1288 0.931 . S
H1305 C1293 0.930 . S
H1306 C1294 0.956 . S
H1307 C1294 0.961 . S
H1308 C1294 0.961 . S
H1309 C1295 0.958 . S
H1310 C1295 0.961 . S
H1311 C1295 0.960 . S
C1312 C1313 1.391 . S
C1312 C1314 1.394 . S
C1312 H1328 0.931 . S
C1313 C1312 1.391 . S
C1313 C1317 1.376 . S
C1314 C1312 1.394 . S
C1314 C1315 1.369 . S
C1314 C1318 1.531 . S
C1315 C1314 1.369 . S
C1315 C1316 1.410 . S
C1315 C1323 1.503 . S
C1316 C1315 1.410 . S
C1316 C1317 1.392 . S
C1316 C1319 1.511 . S
C1317 C1313 1.376 . S
C1317 C1316 1.392 . S
C1317 H1329 0.929 . S
C1318 C1314 1.531 . S
C1318 H1330 0.960 . S
C1318 H1331 0.962 . S
C1318 H1332 0.960 . S
C1319 C1316 1.511 . S
C1319 H1333 0.961 . S
C1319 H1334 0.961 . S
C1319 H1335 0.961 . S
C1320 C1321 1.370 . S
C1320 C1322 1.363 . S
C1320 H1336 0.931 . S
C1321 C1320 1.370 . S
C1321 C1325 1.408 . S
C1322 C1320 1.363 . S
C1322 C1323 1.370 . S
C1322 C1326 1.524 . S
C1323 C1315 1.503 . S
C1323 C1322 1.370 . S
C1323 C1324 1.403 . S
C1324 C1323 1.403 . S
C1324 C1325 1.404 . S
C1324 C1327 1.539 . S
C1325 C1321 1.408 . S
C1325 C1324 1.404 . S
C1325 H1337 0.930 . S
C1326 C1322 1.524 . S
C1326 H1338 0.956 . S
C1326 H1339 0.961 . S
C1326 H1340 0.961 . S
C1327 C1324 1.539 . S
C1327 H1341 0.958 . S
C1327 H1342 0.961 . S
C1327 H1343 0.960 . S
H1328 C1312 0.931 . S
H1329 C1317 0.929 . S
H1330 C1318 0.960 . S
H1331 C1318 0.962 . S
H1332 C1318 0.960 . S
H1333 C1319 0.961 . S
H1334 C1319 0.961 . S
H1335 C1319 0.961 . S
H1336 C1320 0.931 . S
H1337 C1325 0.930 . S
H1338 C1326 0.956 . S
H1339 C1326 0.961 . S
H1340 C1326 0.961 . S
H1341 C1327 0.958 . S
H1342 C1327 0.961 . S
H1343 C1327 0.960 . S
C1344 C1345 1.391 . S
C1344 C1346 1.394 . S
C1344 H1360 0.931 . S
C1345 C1344 1.391 . S
C1345 C1349 1.376 . S
C1346 C1344 1.394 . S
C1346 C1347 1.369 . S
C1346 C1350 1.531 . S
C1347 C1346 1.369 . S
C1347 C1348 1.410 . S
C1347 C1355 1.503 . S
C1348 C1347 1.410 . S
C1348 C1349 1.392 . S
C1348 C1351 1.511 . S
C1349 C1345 1.376 . S
C1349 C1348 1.392 . S
C1349 H1361 0.929 . S
C1350 C1346 1.531 . S
C1350 H1362 0.960 . S
C1350 H1363 0.962 . S
C1350 H1364 0.960 . S
C1351 C1348 1.511 . S
C1351 H1365 0.961 . S
C1351 H1366 0.961 . S
C1351 H1367 0.961 . S
C1352 C1353 1.370 . S
C1352 C1354 1.363 . S
C1352 H1368 0.931 . S
C1353 C1352 1.370 . S
C1353 C1357 1.408 . S
C1354 C1352 1.363 . S
C1354 C1355 1.370 . S
C1354 C1358 1.524 . S
C1355 C1347 1.503 . S
C1355 C1354 1.370 . S
C1355 C1356 1.403 . S
C1356 C1355 1.403 . S
C1356 C1357 1.404 . S
C1356 C1359 1.539 . S
C1357 C1353 1.408 . S
C1357 C1356 1.404 . S
C1357 H1369 0.930 . S
C1358 C1354 1.524 . S
C1358 H1370 0.956 . S
C1358 H1371 0.961 . S
C1358 H1372 0.961 . S
C1359 C1356 1.539 . S
C1359 H1373 0.958 . S
C1359 H1374 0.961 . S
C1359 H1375 0.960 . S
H1360 C1344 0.931 . S
H1361 C1349 0.929 . S
H1362 C1350 0.960 . S
H1363 C1350 0.962 . S
H1364 C1350 0.960 . S
H1365 C1351 0.961 . S
H1366 C1351 0.961 . S
H1367 C1351 0.961 . S
H1368 C1352 0.931 . S
H1369 C1357 0.930 . S
H1370 C1358 0.956 . S
H1371 C1358 0.961 . S
H1372 C1358 0.961 . S
H1373 C1359 0.958 . S
H1374 C1359 0.961 . S
H1375 C1359 0.960 . S
C1376 C1377 1.391 . S
C1376 C1378 1.394 . S
C1376 H1392 0.931 . S
C1377 C1376 1.391 . S
C1377 C1381 1.376 . S
C1378 C1376 1.394 . S
C1378 C1379 1.369 . S
C1378 C1382 1.531 . S
C1379 C1378 1.369 . S
C1379 C1380 1.410 . S
C1379 C1387 1.503 . S
C1380 C1379 1.410 . S
C1380 C1381 1.392 . S
C1380 C1383 1.511 . S
C1381 C1377 1.376 . S
C1381 C1380 1.392 . S
C1381 H1393 0.929 . S
C1382 C1378 1.531 . S
C1382 H1394 0.960 . S
C1382 H1395 0.962 . S
C1382 H1396 0.960 . S
C1383 C1380 1.511 . S
C1383 H1397 0.961 . S
C1383 H1398 0.961 . S
C1383 H1399 0.961 . S
C1384 C1385 1.370 . S
C1384 C1386 1.363 . S
C1384 H1400 0.931 . S
C1385 C1384 1.370 . S
C1385 C1389 1.408 . S
C1386 C1384 1.363 . S
C1386 C1387 1.370 . S
C1386 C1390 1.524 . S
C1387 C1379 1.503 . S
C1387 C1386 1.370 . S
C1387 C1388 1.403 . S
C1388 C1387 1.403 . S
C1388 C1389 1.404 . S
C1388 C1391 1.539 . S
C1389 C1385 1.408 . S
C1389 C1388 1.404 . S
C1389 H1401 0.930 . S
C1390 C1386 1.524 . S
C1390 H1402 0.956 . S
C1390 H1403 0.961 . S
C1390 H1404 0.961 . S
C1391 C1388 1.539 . S
C1391 H1405 0.958 . S
C1391 H1406 0.961 . S
C1391 H1407 0.960 . S
H1392 C1376 0.931 . S
H1393 C1381 0.929 . S
H1394 C1382 0.960 . S
H1395 C1382 0.962 . S
H1396 C1382 0.960 . S
H1397 C1383 0.961 . S
H1398 C1383 0.961 . S
H1399 C1383 0.961 . S
H1400 C1384 0.931 . S
H1401 C1389 0.930 . S
H1402 C1390 0.956 . S
H1403 C1390 0.961 . S
H1404 C1390 0.961 . S
H1405 C1391 0.958 . S
H1406 C1391 0.961 . S
H1407 C1391 0.960 . S
C1408 C1409 1.391 . S
C1408 C1410 1.394 . S
C1408 H1424 0.931 . S
C1409 C1408 1.391 . S
C1409 C1413 1.376 . S
C1410 C1408 1.394 . S
C1410 C1411 1.369 . S
C1410 C1414 1.531 . S
C1411 C1410 1.369 . S
C1411 C1412 1.410 . S
C1411 C1419 1.503 . S
C1412 C1411 1.410 . S
C1412 C1413 1.392 . S
C1412 C1415 1.511 . S
C1413 C1409 1.376 . S
C1413 C1412 1.392 . S
C1413 H1425 0.929 . S
C1414 C1410 1.531 . S
C1414 H1426 0.960 . S
C1414 H1427 0.962 . S
C1414 H1428 0.960 . S
C1415 C1412 1.511 . S
C1415 H1429 0.961 . S
C1415 H1430 0.961 . S
C1415 H1431 0.961 . S
C1416 C1417 1.370 . S
C1416 C1418 1.363 . S
C1416 H1432 0.931 . S
C1417 C1416 1.370 . S
C1417 C1421 1.408 . S
C1418 C1416 1.363 . S
C1418 C1419 1.370 . S
C1418 C1422 1.524 . S
C1419 C1411 1.503 . S
C1419 C1418 1.370 . S
C1419 C1420 1.403 . S
C1420 C1419 1.403 . S
C1420 C1421 1.404 . S
C1420 C1423 1.539 . S
C1421 C1417 1.408 . S
C1421 C1420 1.404 . S
C1421 H1433 0.930 . S
C1422 C1418 1.524 . S
C1422 H1434 0.956 . S
C1422 H1435 0.961 . S
C1422 H1436 0.961 . S
C1423 C1420 1.539 . S
C1423 H1437 0.958 . S
C1423 H1438 0.961 . S
C1423 H1439 0.960 . S
H1424 C1408 0.931 . S
H1425 C1413 0.929 . S
H1426 C1414 0.960 . S
H1427 C1414 0.962 . S
H1428 C1414 0.960 . S
H1429 C1415 0.961 . S
H1430 C1415 0.961 . S
H1431 C1415 0.961 . S
H1432 C1416 0.931 . S
H1433 C1421 0.930 . S
H1434 C1422 0.956 . S
H1435 C1422 0.961 . S
H1436 C1422 0.961 . S
H1437 C1423 0.958 . S
H1438 C1423 0.961 . S
H1439 C1423 0.960 . S
C1440 C1441 1.391 . S
C1440 C1442 1.394 . S
C1440 H1456 0.931 . S
C1441 C1440 1.391 . S
C1441 C1445 1.376 . S
C1442 C1440 1.394 . S
C1442 C1443 1.369 . S
C1442 C1446 1.531 . S
C1443 C1442 1.369 . S
C1443 C1444 1.410 . S
C1443 C1451 1.503 . S
C1444 C1443 1.410 . S
C1444 C1445 1.392 . S
C1444 C1447 1.511 . S
C1445 C1441 1.376 . S
C1445 C1444 1.392 . S
C1445 H1457 0.929 . S
C1446 C1442 1.531 . S
C1446 H1458 0.960 . S
C1446 H1459 0.962 . S
C1446 H1460 0.960 . S
C1447 C1444 1.511 . S
C1447 H1461 0.961 . S
C1447 H1462 0.961 . S
C1447 H1463 0.961 . S
C1448 C1449 1.370 . S
C1448 C1450 1.363 . S
C1448 H1464 0.931 . S
C1449 C1448 1.370 . S
C1449 C1453 1.408 . S
C1450 C1448 1.363 . S
C1450 C1451 1.370 . S
C1450 C1454 1.524 . S
C1451 C1443 1.503 . S
C1451 C1450 1.370 . S
C1451 C1452 1.403 . S
C1452 C1451 1.403 . S
C1452 C1453 1.404 . S
C1452 C1455 1.539 . S
C1453 C1449 1.408 . S
C1453 C1452 1.404 . S
C1453 H1465 0.930 . S
C1454 C1450 1.524 . S
C1454 H1466 0.956 . S
C1454 H1467 0.961 . S
C1454 H1468 0.961 . S
C1455 C1452 1.539 . S
C1455 H1469 0.958 . S
C1455 H1470 0.961 . S
C1455 H1471 0.960 . S
H1456 C1440 0.931 . S
H1457 C1445 0.929 . S
H1458 C1446 0.960 . S
H1459 C1446 0.962 . S
H1460 C1446 0.960 . S
H1461 C1447 0.961 . S
H1462 C1447 0.961 . S
H1463 C1447 0.961 . S
H1464 C1448 0.931 . S
H1465 C1453 0.930 . S
H1466 C1454 0.956 . S
H1467 C1454 0.961 . S
H1468 C1454 0.961 . S
H1469 C1455 0.958 . S
H1470 C1455 0.961 . S
H1471 C1455 0.960 . S
C1472 C1473 1.391 . S
C1472 C1474 1.394 . S
C1472 H1488 0.931 . S
C1473 C1472 1.391 . S
C1473 C1477 1.376 . S
C1474 C1472 1.394 . S
C1474 C1475 1.369 . S
C1474 C1478 1.531 . S
C1475 C1474 1.369 . S
C1475 C1476 1.410 . S
C1475 C1483 1.503 . S
C1476 C1475 1.410 . S
C1476 C1477 1.392 . S
C1476 C1479 1.511 . S
C1477 C1473 1.376 . S
C1477 C1476 1.392 . S
C1477 H1489 0.929 . S
C1478 C1474 1.531 . S
C1478 H1490 0.960 . S
C1478 H1491 0.962 . S
C1478 H1492 0.960 . S
C1479 C1476 1.511 . S
C1479 H1493 0.961 . S
C1479 H1494 0.961 . S
C1479 H1495 0.961 . S
C1480 C1481 1.370 . S
C1480 C1482 1.363 . S
C1480 H1496 0.931 . S
C1481 C1480 1.370 . S
C1481 C1485 1.408 . S
C1482 C1480 1.363 . S
C1482 C1483 1.370 . S
C1482 C1486 1.524 . S
C1483 C1475 1.503 . S
C1483 C1482 1.370 . S
C1483 C1484 1.403 . S
C1484 C1483 1.403 . S
C1484 C1485 1.404 . S
C1484 C1487 1.539 . S
C1485 C1481 1.408 . S
C1485 C1484 1.404 . S
C1485 H1497 0.930 . S
C1486 C1482 1.524 . S
C1486 H1498 0.956 . S
C1486 H1499 0.961 . S
C1486 H1500 0.961 . S
C1487 C1484 1.539 . S
C1487 H1501 0.958 . S
C1487 H1502 0.961 . S
C1487 H1503 0.960 . S
H1488 C1472 0.931 . S
H1489 C1477 0.929 . S
H1490 C1478 0.960 . S
H1491 C1478 0.962 . S
H1492 C1478 0.960 . S
H1493 C1479 0.961 . S
H1494 C1479 0.961 . S
H1495 C1479 0.961 . S
H1496 C1480 0.931 . S
H1497 C1485 0.930 . S
H1498 C1486 0.956 . S
H1499 C1486 0.961 . S
H1500 C1486 0.961 . S
H1501 C1487 0.958 . S
H1502 C1487 0.961 . S
H1503 C1487 0.960 . S
C1504 C1505 1.391 . S
C1504 C1506 1.394 . S
C1504 H1520 0.931 . S
C1505 C1504 1.391 . S
C1505 C1509 1.376 . S
C1506 C1504 1.394 . S
C1506 C1507 1.369 . S
C1506 C1510 1.531 . S
C1507 C1506 1.369 . S
C1507 C1508 1.410 . S
C1507 C1515 1.503 . S
C1508 C1507 1.410 . S
C1508 C1509 1.392 . S
C1508 C1511 1.511 . S
C1509 C1505 1.376 . S
C1509 C1508 1.392 . S
C1509 H1521 0.929 . S
C1510 C1506 1.531 . S
C1510 H1522 0.960 . S
C1510 H1523 0.962 . S
C1510 H1524 0.960 . S
C1511 C1508 1.511 . S
C1511 H1525 0.961 . S
C1511 H1526 0.961 . S
C1511 H1527 0.961 . S
C1512 C1513 1.370 . S
C1512 C1514 1.363 . S
C1512 H1528 0.931 . S
C1513 C1512 1.370 . S
C1513 C1517 1.408 . S
C1514 C1512 1.363 . S
C1514 C1515 1.370 . S
C1514 C1518 1.524 . S
C1515 C1507 1.503 . S
C1515 C1514 1.370 . S
C1515 C1516 1.403 . S
C1516 C1515 1.403 . S
C1516 C1517 1.404 . S
C1516 C1519 1.539 . S
C1517 C1513 1.408 . S
C1517 C1516 1.404 . S
C1517 H1529 0.930 . S
C1518 C1514 1.524 . S
C1518 H1530 0.956 . S
C1518 H1531 0.961 . S
C1518 H1532 0.961 . S
C1519 C1516 1.539 . S
C1519 H1533 0.958 . S
C1519 H1534 0.961 . S
C1519 H1535 0.960 . S
H1520 C1504 0.931 . S
H1521 C1509 0.929 . S
H1522 C1510 0.960 . S
H1523 C1510 0.962 . S
H1524 C1510 0.960 . S
H1525 C1511 0.961 . S
H1526 C1511 0.961 . S
H1527 C1511 0.961 . S
H1528 C1512 0.931 . S
H1529 C1517 0.930 . S
H1530 C1518 0.956 . S
H1531 C1518 0.961 . S
H1532 C1518 0.961 . S
H1533 C1519 0.958 . S
H1534 C1519 0.961 . S
H1535 C1519 0.960 . S
C1536 C1537 1.391 . S
C1536 C1538 1.394 . S
C1536 H1552 0.931 . S
C1537 C1536 1.391 . S
C1537 C1541 1.376 . S
C1538 C1536 1.394 . S
C1538 C1539 1.369 . S
C1538 C1542 1.531 . S
C1539 C1538 1.369 . S
C1539 C1540 1.410 . S
C1539 C1547 1.503 . S
C1540 C1539 1.410 . S
C1540 C1541 1.392 . S
C1540 C1543 1.511 . S
C1541 C1537 1.376 . S
C1541 C1540 1.392 . S
C1541 H1553 0.929 . S
C1542 C1538 1.531 . S
C1542 H1554 0.960 . S
C1542 H1555 0.962 . S
C1542 H1556 0.960 . S
C1543 C1540 1.511 . S
C1543 H1557 0.961 . S
C1543 H1558 0.961 . S
C1543 H1559 0.961 . S
C1544 C1545 1.370 . S
C1544 C1546 1.363 . S
C1544 H1560 0.931 . S
C1545 C1544 1.370 . S
C1545 C1549 1.408 . S
C1546 C1544 1.363 . S
C1546 C1547 1.370 . S
C1546 C1550 1.524 . S
C1547 C1539 1.503 . S
C1547 C1546 1.370 . S
C1547 C1548 1.403 . S
C1548 C1547 1.403 . S
C1548 C1549 1.404 . S
C1548 C1551 1.539 . S
C1549 C1545 1.408 . S
C1549 C1548 1.404 . S
C1549 H1561 0.930 . S
C1550 C1546 1.524 . S
C1550 H1562 0.956 . S
C1550 H1563 0.961 . S
C1550 H1564 0.961 . S
C1551 C1548 1.539 . S
C1551 H1565 0.958 . S
C1551 H1566 0.961 . S
C1551 H1567 0.960 . S
H1552 C1536 0.931 . S
H1553 C1541 0.929 . S
H1554 C1542 0.960 . S
H1555 C1542 0.962 . S
H1556 C1542 0.960 . S
H1557 C1543 0.961 . S
H1558 C1543 0.961 . S
H1559 C1543 0.961 . S
H1560 C1544 0.931 . S
H1561 C1549 0.930 . S
H1562 C1550 0.956 . S
H1563 C1550 0.961 . S
H1564 C1550 0.961 . S
H1565 C1551 0.958 . S
H1566 C1551 0.961 . S
H1567 C1551 0.960 . S
C1568 C1569 1.391 . S
C1568 C1570 1.391 1_545 S
C1568 H1584 0.931 1_545 S
C1569 C1568 1.391 . S
C1569 C1573 1.376 . S
C1570 C1568 1.391 1_565 S
C1570 C1571 1.339 1_565 S
C1570 C1574 1.566 . S
C1571 C1570 1.339 1_545 S
C1571 C1572 1.410 . S
C1571 C1579 1.503 . S
C1572 C1571 1.410 . S
C1572 C1573 1.392 . S
C1572 C1575 1.511 . S
C1573 C1569 1.376 . S
C1573 C1572 1.392 . S
C1573 H1585 0.929 . S
C1574 C1570 1.566 . S
C1574 H1586 0.960 . S
C1574 H1587 0.962 . S
C1574 H1588 0.960 . S
C1575 C1572 1.511 . S
C1575 H1589 0.961 . S
C1575 H1590 0.961 . S
C1575 H1591 0.961 . S
C1576 C1577 1.370 . S
C1576 C1578 1.363 . S
C1576 H1592 0.931 . S
C1577 C1576 1.370 . S
C1577 C1581 1.408 1_545 S
C1578 C1576 1.363 . S
C1578 C1579 1.370 . S
C1578 C1582 1.524 . S
C1579 C1571 1.503 . S
C1579 C1578 1.370 . S
C1579 C1580 1.403 1_545 S
C1580 C1579 1.403 1_565 S
C1580 C1581 1.404 . S
C1580 C1583 1.539 . S
C1581 C1577 1.408 1_565 S
C1581 C1580 1.404 . S
C1581 H1593 0.930 . S
C1582 C1578 1.524 . S
C1582 H1594 0.956 . S
C1582 H1595 0.961 . S
C1582 H1596 0.961 . S
C1583 C1580 1.539 . S
C1583 H1597 0.958 . S
C1583 H1598 0.961 . S
C1583 H1599 0.960 . S
H1584 C1568 0.931 1_565 S
H1585 C1573 0.929 . S
H1586 C1574 0.960 . S
H1587 C1574 0.962 . S
H1588 C1574 0.960 . S
H1589 C1575 0.961 . S
H1590 C1575 0.961 . S
H1591 C1575 0.961 . S
H1592 C1576 0.931 . S
H1593 C1581 0.930 . S
H1594 C1582 0.956 . S
H1595 C1582 0.961 . S
H1596 C1582 0.961 . S
H1597 C1583 0.958 . S
H1598 C1583 0.961 . S
H1599 C1583 0.960 . S
C1600 C1601 1.391 . S
C1600 C1602 1.394 . S
C1600 H1616 0.931 . S
C1601 C1600 1.391 . S
C1601 C1605 1.376 . S
C1602 C1600 1.394 . S
C1602 C1603 1.369 . S
C1602 C1606 1.531 . S
C1603 C1602 1.369 . S
C1603 C1604 1.410 . S
C1603 C1611 1.503 . S
C1604 C1603 1.410 . S
C1604 C1605 1.392 . S
C1604 C1607 1.511 . S
C1605 C1601 1.376 . S
C1605 C1604 1.392 . S
C1605 H1617 0.929 . S
C1606 C1602 1.531 . S
C1606 H1618 0.960 . S
C1606 H1619 0.962 . S
C1606 H1620 0.960 . S
C1607 C1604 1.511 . S
C1607 H1621 0.961 . S
C1607 H1622 0.961 . S
C1607 H1623 0.961 . S
C1608 C1609 1.370 . S
C1608 C1610 1.363 . S
C1608 H1624 0.931 . S
C1609 C1608 1.370 . S
C1609 C1613 1.408 . S
C1610 C1608 1.363 . S
C1610 C1611 1.370 . S
C1610 C1614 1.524 . S
C1611 C1603 1.503 . S
C1611 C1610 1.370 . S
C1611 C1612 1.403 . S
C1612 C1611 1.403 . S
C1612 C1613 1.404 . S
C1612 C1615 1.539 . S
C1613 C1609 1.408 . S
C1613 C1612 1.404 . S
C1613 H1625 0.930 . S
C1614 C1610 1.524 . S
C1614 H1626 0.956 . S
C1614 H1627 0.961 . S
C1614 H1628 0.961 . S
C1615 C1612 1.539 . S
C1615 H1629 0.958 1_556 S
C1615 H1630 0.961 1_556 S
C1615 H1631 0.960 . S
H1616 C1600 0.931 . S
H1617 C1605 0.929 . S
H1618 C1606 0.960 . S
H1619 C1606 0.962 . S
H1620 C1606 0.960 . S
H1621 C1607 0.961 . S
H1622 C1607 0.961 . S
H1623 C1607 0.961 . S
H1624 C1608 0.931 . S
H1625 C1613 0.930 . S
H1626 C1614 0.956 . S
H1627 C1614 0.961 . S
H1628 C1614 0.961 . S
H1629 C1615 0.958 1_554 S
H1630 C1615 0.961 1_554 S
H1631 C1615 0.960 . S
C1632 C1633 1.391 . S
C1632 C1634 1.394 . S
C1632 H1648 0.931 . S
C1633 C1632 1.391 . S
C1633 C1637 1.376 . S
C1634 C1632 1.394 . S
C1634 C1635 1.369 . S
C1634 C1638 1.531 . S
C1635 C1634 1.369 . S
C1635 C1636 1.410 . S
C1635 C1643 1.503 . S
C1636 C1635 1.410 . S
C1636 C1637 1.392 . S
C1636 C1639 1.511 . S
C1637 C1633 1.376 . S
C1637 C1636 1.392 . S
C1637 H1649 0.929 . S
C1638 C1634 1.531 . S
C1638 H1650 0.960 . S
C1638 H1651 0.962 . S
C1638 H1652 0.960 . S
C1639 C1636 1.511 . S
C1639 H1653 0.961 . S
C1639 H1654 0.961 . S
C1639 H1655 0.961 . S
C1640 C1641 1.370 . S
C1640 C1642 1.363 . S
C1640 H1656 0.931 . S
C1641 C1640 1.370 . S
C1641 C1645 1.408 . S
C1642 C1640 1.363 . S
C1642 C1643 1.370 . S
C1642 C1646 1.524 . S
C1643 C1635 1.503 . S
C1643 C1642 1.370 . S
C1643 C1644 1.403 . S
C1644 C1643 1.403 . S
C1644 C1645 1.404 . S
C1644 C1647 1.539 . S
C1645 C1641 1.408 . S
C1645 C1644 1.404 . S
C1645 H1657 0.930 . S
C1646 C1642 1.524 . S
C1646 H1658 0.956 . S
C1646 H1659 0.961 . S
C1646 H1660 0.961 . S
C1647 C1644 1.539 . S
C1647 H1661 0.958 . S
C1647 H1662 0.961 . S
C1647 H1663 0.960 . S
H1648 C1632 0.931 . S
H1649 C1637 0.929 . S
H1650 C1638 0.960 . S
H1651 C1638 0.962 . S
H1652 C1638 0.960 . S
H1653 C1639 0.961 . S
H1654 C1639 0.961 . S
H1655 C1639 0.961 . S
H1656 C1640 0.931 . S
H1657 C1645 0.930 . S
H1658 C1646 0.956 . S
H1659 C1646 0.961 . S
H1660 C1646 0.961 . S
H1661 C1647 0.958 . S
H1662 C1647 0.961 . S
H1663 C1647 0.960 . S
C1664 C1665 1.391 1_655 S
C1664 C1666 1.394 . S
C1664 H1680 0.931 . S
C1665 C1664 1.391 1_455 S
C1665 C1669 1.376 . S
C1666 C1664 1.394 . S
C1666 C1667 1.369 1_655 S
C1666 C1670 1.531 . S
C1667 C1666 1.369 1_455 S
C1667 C1668 1.410 . S
C1667 C1675 1.503 . S
C1668 C1667 1.410 . S
C1668 C1669 1.392 . S
C1668 C1671 1.511 . S
C1669 C1665 1.376 . S
C1669 C1668 1.392 . S
C1669 H1681 0.929 . S
C1670 C1666 1.531 . S
C1670 H1682 0.960 . S
C1670 H1683 0.962 . S
C1670 H1684 0.960 . S
C1671 C1668 1.511 . S
C1671 H1685 0.961 . S
C1671 H1686 0.961 . S
C1671 H1687 0.961 . S
C1672 C1673 1.370 . S
C1672 C1674 1.363 . S
C1672 H1688 0.931 1_455 S
C1673 C1672 1.370 . S
C1673 C1677 1.408 . S
C1674 C1672 1.363 . S
C1674 C1675 1.370 . S
C1674 C1678 1.524 1_455 S
C1675 C1667 1.503 . S
C1675 C1674 1.370 . S
C1675 C1676 1.403 . S
C1676 C1675 1.403 . S
C1676 C1677 1.404 . S
C1676 C1679 1.539 . S
C1677 C1673 1.408 . S
C1677 C1676 1.404 . S
C1677 H1689 0.930 . S
C1678 C1674 1.524 1_655 S
C1678 H1690 0.956 . S
C1678 H1691 0.961 1_655 S
C1678 H1692 0.961 . S
C1679 C1676 1.539 . S
C1679 H1693 0.958 . S
C1679 H1694 0.961 . S
C1679 H1695 0.960 . S
H1680 C1664 0.931 . S
H1681 C1669 0.929 . S
H1682 C1670 0.960 . S
H1683 C1670 0.962 . S
H1684 C1670 0.960 . S
H1685 C1671 0.961 . S
H1686 C1671 0.961 . S
H1687 C1671 0.961 . S
H1688 C1672 0.931 1_655 S
H1689 C1677 0.930 . S
H1690 C1678 0.956 . S
H1691 C1678 0.961 1_455 S
H1692 C1678 0.961 . S
H1693 C1679 0.958 . S
H1694 C1679 0.961 . S
H1695 C1679 0.960 . S
C1696 C1697 1.391 . S
C1696 C1698 1.394 . S
C1696 H1712 0.931 1_565 S
C1697 C1696 1.391 . S
C1697 C1701 1.376 . S
C1698 C1696 1.394 . S
C1698 C1699 1.369 . S
C1698 C1702 1.531 1_565 S
C1699 C1698 1.369 . S
C1699 C1700 1.410 . S
C1699 C1707 1.503 . S
C1700 C1699 1.410 . S
C1700 C1701 1.392 . S
C1700 C1703 1.511 . S
C1701 C1697 1.376 . S
C1701 C1700 1.392 . S
C1701 H1713 0.929 . S
C1702 C1698 1.531 1_545 S
C1702 H1714 0.960 . S
C1702 H1715 0.962 . S
C1702 H1716 0.960 . S
C1703 C1700 1.511 . S
C1703 H1717 0.961 . S
C1703 H1718 0.961 . S
C1703 H1719 0.961 . S
C1704 C1705 1.370 . S
C1704 C1706 1.363 . S
C1704 H1720 0.931 . S
C1705 C1704 1.370 . S
C1705 C1709 1.408 . S
C1706 C1704 1.363 . S
C1706 C1707 1.370 . S
C1706 C1710 1.524 . S
C1707 C1699 1.503 . S
C1707 C1706 1.370 . S
C1707 C1708 1.403 . S
C1708 C1707 1.403 . S
C1708 C1709 1.404 . S
C1708 C1711 1.539 . S
C1709 C1705 1.408 . S
C1709 C1708 1.404 . S
C1709 H1721 0.930 . S
C1710 C1706 1.524 . S
C1710 H1722 0.956 . S
C1710 H1723 0.961 . S
C1710 H1724 0.961 . S
C1711 C1708 1.539 . S
C1711 H1725 0.958 1_565 S
C1711 H1726 0.961 . S
C1711 H1727 0.960 . S
H1712 C1696 0.931 1_545 S
H1713 C1701 0.929 . S
H1714 C1702 0.960 . S
H1715 C1702 0.962 . S
H1716 C1702 0.960 . S
H1717 C1703 0.961 . S
H1718 C1703 0.961 . S
H1719 C1703 0.961 . S
H1720 C1704 0.931 . S
H1721 C1709 0.930 . S
H1722 C1710 0.956 . S
H1723 C1710 0.961 . S
H1724 C1710 0.961 . S
H1725 C1711 0.958 1_545 S
H1726 C1711 0.961 . S
H1727 C1711 0.960 . S
C1728 C1729 1.391 . S
C1728 C1730 1.394 . S
C1728 H1744 0.931 . S
C1729 C1728 1.391 . S
C1729 C1733 1.376 . S
C1730 C1728 1.394 . S
C1730 C1731 1.369 . S
C1730 C1734 1.531 . S
C1731 C1730 1.369 . S
C1731 C1732 1.410 . S
C1731 C1739 1.503 . S
C1732 C1731 1.410 . S
C1732 C1733 1.392 . S
C1732 C1735 1.511 . S
C1733 C1729 1.376 . S
C1733 C1732 1.392 . S
C1733 H1745 0.929 . S
C1734 C1730 1.531 . S
C1734 H1746 0.960 . S
C1734 H1747 0.962 . S
C1734 H1748 0.960 . S
C1735 C1732 1.511 . S
C1735 H1749 0.961 . S
C1735 H1750 0.961 . S
C1735 H1751 0.961 . S
C1736 C1737 1.370 . S
C1736 C1738 1.363 . S
C1736 H1752 0.931 . S
C1737 C1736 1.370 . S
C1737 C1741 1.408 . S
C1738 C1736 1.363 . S
C1738 C1739 1.370 . S
C1738 C1742 1.524 . S
C1739 C1731 1.503 . S
C1739 C1738 1.370 . S
C1739 C1740 1.403 . S
C1740 C1739 1.403 . S
C1740 C1741 1.404 . S
C1740 C1743 1.539 . S
C1741 C1737 1.408 . S
C1741 C1740 1.404 . S
C1741 H1753 0.930 . S
C1742 C1738 1.524 . S
C1742 H1754 0.956 . S
C1742 H1755 0.961 . S
C1742 H1756 0.961 . S
C1743 C1740 1.539 . S
C1743 H1757 0.958 . S
C1743 H1758 0.961 . S
C1743 H1759 0.960 . S
H1744 C1728 0.931 . S
H1745 C1733 0.929 . S
H1746 C1734 0.960 . S
H1747 C1734 0.962 . S
H1748 C1734 0.960 . S
H1749 C1735 0.961 . S
H1750 C1735 0.961 . S
H1751 C1735 0.961 . S
H1752 C1736 0.931 . S
H1753 C1741 0.930 . S
H1754 C1742 0.956 . S
H1755 C1742 0.961 . S
H1756 C1742 0.961 . S
H1757 C1743 0.958 . S
H1758 C1743 0.961 . S
H1759 C1743 0.960 . S
C1760 C1761 1.391 . S
C1760 C1762 1.394 . S
C1760 H1776 0.931 . S
C1761 C1760 1.391 . S
C1761 C1765 1.376 . S
C1762 C1760 1.394 . S
C1762 C1763 1.369 . S
C1762 C1766 1.531 . S
C1763 C1762 1.369 . S
C1763 C1764 1.410 . S
C1763 C1771 1.503 . S
C1764 C1763 1.410 . S
C1764 C1765 1.392 . S
C1764 C1767 1.511 . S
C1765 C1761 1.376 . S
C1765 C1764 1.392 . S
C1765 H1777 0.929 . S
C1766 C1762 1.531 . S
C1766 H1778 0.960 . S
C1766 H1779 0.962 . S
C1766 H1780 0.960 . S
C1767 C1764 1.511 . S
C1767 H1781 0.961 . S
C1767 H1782 0.961 . S
C1767 H1783 0.961 . S
C1768 C1769 1.370 . S
C1768 C1770 1.363 . S
C1768 H1784 0.931 . S
C1769 C1768 1.370 . S
C1769 C1773 1.408 . S
C1770 C1768 1.363 . S
C1770 C1771 1.370 . S
C1770 C1774 1.524 . S
C1771 C1763 1.503 . S
C1771 C1770 1.370 . S
C1771 C1772 1.403 . S
C1772 C1771 1.403 . S
C1772 C1773 1.404 . S
C1772 C1775 1.539 . S
C1773 C1769 1.408 . S
C1773 C1772 1.404 . S
C1773 H1785 0.930 . S
C1774 C1770 1.524 . S
C1774 H1786 0.956 . S
C1774 H1787 0.961 . S
C1774 H1788 0.961 . S
C1775 C1772 1.539 . S
C1775 H1789 0.958 . S
C1775 H1790 0.961 . S
C1775 H1791 0.960 . S
H1776 C1760 0.931 . S
H1777 C1765 0.929 . S
H1778 C1766 0.960 . S
H1779 C1766 0.962 . S
H1780 C1766 0.960 . S
H1781 C1767 0.961 . S
H1782 C1767 0.961 . S
H1783 C1767 0.961 . S
H1784 C1768 0.931 . S
H1785 C1773 0.930 . S
H1786 C1774 0.956 . S
H1787 C1774 0.961 . S
H1788 C1774 0.961 . S
H1789 C1775 0.958 . S
H1790 C1775 0.961 . S
H1791 C1775 0.960 . S
C1792 C1793 1.391 . S
C1792 C1794 1.394 . S
C1792 H1808 0.931 . S
C1793 C1792 1.391 . S
C1793 C1797 1.376 . S
C1794 C1792 1.394 . S
C1794 C1795 1.369 . S
C1794 C1798 1.531 . S
C1795 C1794 1.369 . S
C1795 C1796 1.410 . S
C1795 C1803 1.503 . S
C1796 C1795 1.410 . S
C1796 C1797 1.392 . S
C1796 C1799 1.511 . S
C1797 C1793 1.376 . S
C1797 C1796 1.392 . S
C1797 H1809 0.929 . S
C1798 C1794 1.531 . S
C1798 H1810 0.960 . S
C1798 H1811 0.962 . S
C1798 H1812 0.960 1_554 S
C1799 C1796 1.511 . S
C1799 H1813 0.961 . S
C1799 H1814 0.961 . S
C1799 H1815 0.961 . S
C1800 C1801 1.364 1_455 S
C1800 C1802 1.362 1_455 S
C1800 H1816 0.939 . S
C1801 C1800 1.364 1_655 S
C1801 C1805 1.408 . S
C1802 C1800 1.362 1_655 S
C1802 C1803 1.370 . S
C1802 C1806 1.524 1_655 S
C1803 C1795 1.503 . S
C1803 C1802 1.370 . S
C1803 C1804 1.403 . S
C1804 C1803 1.403 . S
C1804 C1805 1.404 . S
C1804 C1807 1.539 . S
C1805 C1801 1.408 . S
C1805 C1804 1.404 . S
C1805 H1817 0.930 . S
C1806 C1802 1.524 1_455 S
C1806 H1818 0.956 . S
C1806 H1819 0.961 . S
C1806 H1820 0.961 . S
C1807 C1804 1.539 . S
C1807 H1821 0.958 . S
C1807 H1822 0.961 . S
C1807 H1823 0.960 . S
H1808 C1792 0.931 . S
H1809 C1797 0.929 . S
H1810 C1798 0.960 . S
H1811 C1798 0.962 . S
H1812 C1798 0.960 1_556 S
H1813 C1799 0.961 . S
H1814 C1799 0.961 . S
H1815 C1799 0.961 . S
H1816 C1800 0.939 . S
H1817 C1805 0.930 . S
H1818 C1806 0.956 . S
H1819 C1806 0.961 . S
H1820 C1806 0.961 . S
H1821 C1807 0.958 . S
H1822 C1807 0.961 . S
H1823 C1807 0.960 . S
C545 C277 0.490 . S
C553 C5 0.561 . S
C577 C39 0.557 . S
C585 C311 0.664 . S
C609 C345 0.445 . S
C617 C73 0.545 . S
C641 C379 0.448 . S
C649 C122 0.128 . S
C673 C141 0.599 . S
C681 C413 0.469 . S
C705 C175 0.569 . S
C713 C447 0.656 . S
C737 C209 0.499 . S
C745 C481 0.494 . S
C769 C243 0.417 . S
C777 C515 0.474 . S
C801 C33 1.704 . S
C809 C530 1.620 . S
C833 C67 1.566 . S
C841 C428 1.496 . S
C865 C101 1.616 . S
C873 C462 1.549 . S
C897 C496 1.478 . S
C905 C135 1.531 . S
C929 C169 1.520 . S
C937 C326 1.456 . S
C961 C203 1.527 . S
C969 C360 1.460 . S
C993 C394 1.699 . S
C1001 C237 1.730 . S
C1025 C271 1.607 . S
C1033 C292 1.533 . S
C1057 C258 1.474 . S
C1065 C305 1.583 . S
C1089 C156 1.463 . S
C1097 C339 1.560 . S
C1121 C190 1.447 . S
C1129 C373 1.546 . S
C1153 C407 1.262 . S
C1161 C224 1.213 . S
C1185 C54 1.420 . S
C1193 C441 1.519 . S
C1217 C475 1.536 . S
C1225 C88 1.479 . S
C1249 C111 1.093 . S
C1257 C509 1.132 . S
C1281 C20 1.551 . S
C1289 C543 1.626 . S
C1313 C240 1.778 . S
C1321 C2 1.813 . S
C1345 C138 1.766 . S
C1353 C36 1.787 . S
C1377 C70 1.757 . S
C1385 C172 1.785 . S
C1409 C206 1.266 . S
C1417 C107 1.293 . S
C1441 C512 1.924 . S
C1449 C274 1.950 . S
C1473 C308 1.761 . S
C1481 C410 1.760 . S
C1505 C342 1.775 . S
C1513 C444 1.764 . S
C1537 C376 2.026 . S
C1545 C478 2.005 . S
C1569 C9 1.240 . S
C1577 C417 1.205 . S
C1601 C43 0.947 . S
C1609 C451 0.935 . S
C1633 C77 1.123 . S
C1641 C485 1.170 . S
C1665 C104 1.379 . S
C1673 C519 1.310 . S
C1697 C145 1.207 . S
C1705 C281 1.213 . S
C1729 C179 0.924 . S
C1737 C315 0.953 . S
C1761 C213 1.087 . S
C1769 C349 1.112 . S
C1793 C383 1.423 . S
C1801 C247 1.418 . S
