# Generated by pormake.
# Topology lcy-e, (6)-cn, num edge types: 1
# Building blocks:
#     Node 0, Type 0, BuildingBlock: PAMTUU_clean_sbu_0, # of connection points: 6
#     Node 1, Type 0, BuildingBlock: PAMTUU_clean_sbu_0, # of connection points: 6
#     Node 2, Type 0, BuildingBlock: PAMTUU_clean_sbu_0, # of connection points: 6
#     Node 3, Type 0, BuildingBlock: PAMTUU_clean_sbu_0, # of connection points: 6
#     Node 4, Type 0, BuildingBlock: PAMTUU_clean_sbu_0, # of connection points: 6
#     Node 5, Type 0, BuildingBlock: PAMTUU_clean_sbu_0, # of connection points: 6
#     Node 6, Type 0, BuildingBlock: PAMTUU_clean_sbu_0, # of connection points: 6
#     Node 7, Type 0, BuildingBlock: PAMTUU_clean_sbu_0, # of connection points: 6
#     Node 8, Type 0, BuildingBlock: PAMTUU_clean_sbu_0, # of connection points: 6
#     Node 9, Type 0, BuildingBlock: PAMTUU_clean_sbu_0, # of connection points: 6
#     Node 10, Type 0, BuildingBlock: PAMTUU_clean_sbu_0, # of connection points: 6
#     Node 11, Type 0, BuildingBlock: PAMTUU_clean_sbu_0, # of connection points: 6
#     Edge 12, Type (0, 0), BuildingBlock: CIFDUS_clean_linker_0, # of connection points: 2
#     Edge 13, Type (0, 0), BuildingBlock: CIFDUS_clean_linker_0, # of connection points: 2
#     Edge 14, Type (0, 0), BuildingBlock: CIFDUS_clean_linker_0, # of connection points: 2
#     Edge 15, Type (0, 0), BuildingBlock: CIFDUS_clean_linker_0, # of connection points: 2
#     Edge 16, Type (0, 0), BuildingBlock: CIFDUS_clean_linker_0, # of connection points: 2
#     Edge 17, Type (0, 0), BuildingBlock: CIFDUS_clean_linker_0, # of connection points: 2
#     Edge 18, Type (0, 0), BuildingBlock: CIFDUS_clean_linker_0, # of connection points: 2
#     Edge 19, Type (0, 0), BuildingBlock: CIFDUS_clean_linker_0, # of connection points: 2
#     Edge 20, Type (0, 0), BuildingBlock: CIFDUS_clean_linker_0, # of connection points: 2
#     Edge 21, Type (0, 0), BuildingBlock: CIFDUS_clean_linker_0, # of connection points: 2
#     Edge 22, Type (0, 0), BuildingBlock: CIFDUS_clean_linker_0, # of connection points: 2
#     Edge 23, Type (0, 0), BuildingBlock: CIFDUS_clean_linker_0, # of connection points: 2
#     Edge 24, Type (0, 0), BuildingBlock: CIFDUS_clean_linker_0, # of connection points: 2
#     Edge 25, Type (0, 0), BuildingBlock: CIFDUS_clean_linker_0, # of connection points: 2
#     Edge 26, Type (0, 0), BuildingBlock: CIFDUS_clean_linker_0, # of connection points: 2
#     Edge 27, Type (0, 0), BuildingBlock: CIFDUS_clean_linker_0, # of connection points: 2
#     Edge 28, Type (0, 0), BuildingBlock: CIFDUS_clean_linker_0, # of connection points: 2
#     Edge 29, Type (0, 0), BuildingBlock: CIFDUS_clean_linker_0, # of connection points: 2
#     Edge 30, Type (0, 0), BuildingBlock: CIFDUS_clean_linker_0, # of connection points: 2
#     Edge 31, Type (0, 0), BuildingBlock: CIFDUS_clean_linker_0, # of connection points: 2
#     Edge 32, Type (0, 0), BuildingBlock: CIFDUS_clean_linker_0, # of connection points: 2
#     Edge 33, Type (0, 0), BuildingBlock: CIFDUS_clean_linker_0, # of connection points: 2
#     Edge 34, Type (0, 0), BuildingBlock: CIFDUS_clean_linker_0, # of connection points: 2
#     Edge 35, Type (0, 0), BuildingBlock: CIFDUS_clean_linker_0, # of connection points: 2
#     Edge 36, Type (0, 0), BuildingBlock: CIFDUS_clean_linker_0, # of connection points: 2
#     Edge 37, Type (0, 0), BuildingBlock: CIFDUS_clean_linker_0, # of connection points: 2
#     Edge 38, Type (0, 0), BuildingBlock: CIFDUS_clean_linker_0, # of connection points: 2
#     Edge 39, Type (0, 0), BuildingBlock: CIFDUS_clean_linker_0, # of connection points: 2
#     Edge 40, Type (0, 0), BuildingBlock: CIFDUS_clean_linker_0, # of connection points: 2
#     Edge 41, Type (0, 0), BuildingBlock: CIFDUS_clean_linker_0, # of connection points: 2
#     Edge 42, Type (0, 0), BuildingBlock: CIFDUS_clean_linker_0, # of connection points: 2
#     Edge 43, Type (0, 0), BuildingBlock: CIFDUS_clean_linker_0, # of connection points: 2
#     Edge 44, Type (0, 0), BuildingBlock: CIFDUS_clean_linker_0, # of connection points: 2
#     Edge 45, Type (0, 0), BuildingBlock: CIFDUS_clean_linker_0, # of connection points: 2
#     Edge 46, Type (0, 0), BuildingBlock: CIFDUS_clean_linker_0, # of connection points: 2
#     Edge 47, Type (0, 0), BuildingBlock: CIFDUS_clean_linker_0, # of connection points: 2
# Relax obj value: 0.147
# Max RMSD: 0.301
# Mean RMSD: 0.288
data_MOF--net-lcy-e--node1-PAMTUU_clean_sbu_0--edge1-CIFDUS_clean_linker_0
_symmetry_space_group_name_H-M    P1
_symmetry_Int_Tables_number       1
_symmetry_cell_setting            triclinic
loop_
_symmetry_equiv_pos_as_xyz
'x, y, z'
_cell_length_a     39.93552
_cell_length_b     39.832156
_cell_length_c     39.843548
_cell_angle_alpha  89.870853
_cell_angle_beta   90.146403
_cell_angle_gamma 89.755247
loop_
_atom_site_label
_atom_site_type_symbol
_atom_site_fract_x
_atom_site_fract_y
_atom_site_fract_z
_atom_type_partial_charge
Tb0 Tb 0.10234 0.29835 0.48144 0.0
Tb1 Tb 0.12875 0.24346 0.53783 0.0
C2 C 0.07279 0.29482 0.55566 0.0
C3 C 0.10274 0.34941 0.40339 0.0
C4 C 0.13558 0.37494 0.34597 0.0
C5 C 0.11189 0.39454 0.36334 0.0
C6 C 0.09561 0.38186 0.39169 0.0
C7 C 0.12644 0.32972 0.38619 0.0
C8 C 0.14254 0.34229 0.35761 0.0
C9 C 0.08548 0.33662 0.43356 0.0
O10 O 0.14701 0.32032 0.50234 0.0
O11 O 0.1499 0.29187 0.55281 0.0
O12 O 0.16954 0.25177 0.50364 0.0
O13 O 0.13733 0.26313 0.45777 0.0
O14 O 0.13757 0.22766 0.58746 0.0
O15 O 0.14964 0.1956 0.54555 0.0
O16 O 0.09428 0.21858 0.50298 0.0
O17 O 0.06175 0.26394 0.48999 0.0
O18 O 0.07963 0.31377 0.52925 0.0
O19 O 0.08294 0.26354 0.55822 0.0
C20 C 0.1567 0.31812 0.53375 0.0
O21 O 0.07953 0.30447 0.43432 0.0
O22 O 0.09654 0.34744 0.46237 0.0
C23 C 0.16572 0.25282 0.47109 0.0
C24 C 0.13157 0.16939 0.5955 0.0
C25 C 0.10158 0.11604 0.63105 0.0
C26 C 0.13264 0.12915 0.6413 0.0
C27 C 0.14745 0.15553 0.62369 0.0
C28 C 0.10077 0.1562 0.58477 0.0
C29 C 0.08596 0.1296 0.60234 0.0
C30 C 0.14731 0.19786 0.57811 0.0
C31 C 0.0659 0.23144 0.49202 0.0
H32 H 0.1057 0.41966 0.35481 0.0
H33 H 0.07744 0.39746 0.40454 0.0
H34 H 0.13261 0.30465 0.39489 0.0
H35 H 0.16088 0.32672 0.345 0.0
H36 H 0.14554 0.11899 0.66303 0.0
H37 H 0.17125 0.16532 0.63226 0.0
H38 H 0.08806 0.16669 0.56307 0.0
H39 H 0.06192 0.12023 0.594 0.0
Tb40 Tb 0.02558 0.91839 0.78495 0.0
Tb41 Tb 0.96842 0.89532 0.72984 0.0
C42 C 0.95242 0.95059 0.78202 0.0
C43 C 0.09967 0.91482 0.842 0.0
C44 C 0.15139 0.88091 0.87704 0.0
C45 C 0.11822 0.86926 0.87846 0.0
C46 C 0.09263 0.88593 0.86101 0.0
C47 C 0.13284 0.92616 0.84009 0.0
C48 C 0.15849 0.90931 0.85731 0.0
C49 C 0.0729 0.93353 0.82422 0.0
O50 O 1.00397 0.87381 0.80637 0.0
O51 O 0.95343 0.87293 0.77801 0.0
O52 O 1.00009 0.85222 0.7378 0.0
O53 O 0.04764 0.88096 0.75102 0.0
O54 O 0.91872 0.88871 0.71403 0.0
O55 O 0.96002 0.87631 0.68133 0.0
O56 O 1.00479 0.92824 0.70506 0.0
O57 O 0.01948 0.95962 0.75041 0.0
O58 O 0.97834 0.94182 0.8008 0.0
O59 O 0.9497 0.94167 0.75049 0.0
C60 C 0.97253 0.86472 0.80397 0.0
O61 O 0.07522 0.9347 0.7916 0.0
O62 O 0.04219 0.92826 0.83394 0.0
C63 C 0.03263 0.85345 0.74086 0.0
C64 C 0.91156 0.89913 0.65561 0.0
C65 C 0.87943 0.93242 0.60159 0.0
C66 C 0.89964 0.90406 0.5958 0.0
C67 C 0.91541 0.8875 0.62258 0.0
C68 C 0.8921 0.92805 0.66132 0.0
C69 C 0.87612 0.94442 0.6346 0.0
C70 C 0.92772 0.88067 0.68361 0.0
C71 C 0.01718 0.95592 0.71793 0.0
H72 H 0.11203 0.84724 0.89315 0.0
H73 H 0.06734 0.87634 0.86264 0.0
H74 H 0.13886 0.94832 0.82552 0.0
H75 H 0.18373 0.91906 0.85597 0.0
H76 H 0.9024 0.89404 0.57071 0.0
H77 H 0.93033 0.8653 0.61754 0.0
H78 H 0.8889 0.93789 0.68643 0.0
H79 H 0.86097 0.96642 0.6398 0.0
Tb80 Tb 0.37816 0.76109 0.97992 0.0
Tb81 Tb 0.3498 0.81543 0.03476 0.0
C82 C 0.40572 0.76389 0.05495 0.0
C83 C 0.37858 0.71016 0.902 0.0
C84 C 0.34608 0.68405 0.84444 0.0
C85 C 0.35462 0.66304 0.87166 0.0
C86 C 0.37082 0.67591 0.89996 0.0
C87 C 0.36973 0.73135 0.87501 0.0
C88 C 0.35368 0.71842 0.84657 0.0
C89 C 0.39572 0.72329 0.9323 0.0
O90 O 0.33382 0.73781 1.00038 0.0
O91 O 0.32792 0.76731 0.0499 0.0
O92 O 0.30957 0.80608 0.99983 0.0
O93 O 0.34344 0.79609 0.95524 0.0
O94 O 0.34257 0.83399 0.08364 0.0
O95 O 0.32592 0.86207 0.04031 0.0
O96 O 0.38507 0.84034 1.00082 0.0
O97 O 0.41864 0.79553 0.98951 0.0
O98 O 0.40054 0.74556 0.02783 0.0
O99 O 0.39417 0.79464 0.0581 0.0
C100 C 0.32261 0.74046 0.03123 0.0
O101 O 0.40155 0.75546 0.93316 0.0
O102 O 0.38508 0.7122 0.96118 0.0
C103 C 0.31431 0.80531 0.96743 0.0
C104 C 0.34713 0.89294 0.08594 0.0
C105 C 0.37829 0.95052 0.11269 0.0
C106 C 0.34971 0.9368 0.12803 0.0
C107 C 0.33428 0.90831 0.11475 0.0
C108 C 0.37551 0.90662 0.07032 0.0
C109 C 0.39086 0.9353 0.08348 0.0
C110 C 0.3309 0.86258 0.07265 0.0
C111 C 0.41412 0.82798 0.99138 0.0
H112 H 0.34863 0.63656 0.87124 0.0
H113 H 0.37722 0.659 0.92035 0.0
H114 H 0.37533 0.75791 0.87569 0.0
H115 H 0.34781 0.73527 0.82599 0.0
H116 H 0.33921 0.94816 0.15035 0.0
H117 H 0.31238 0.89818 0.12709 0.0
H118 H 0.38593 0.895 0.04809 0.0
H119 H 0.413 0.94508 0.07129 0.0
Tb120 Tb 0.45032 0.13656 0.29221 0.0
Tb121 Tb 0.5012 0.16002 0.23204 0.0
C122 C 0.52484 0.10793 0.28516 0.0
C123 C 0.3798 0.13648 0.35303 0.0
C124 C 0.32734 0.16851 0.38792 0.0
C125 C 0.34155 0.13848 0.40015 0.0
C126 C 0.36752 0.12264 0.38284 0.0
C127 C 0.36559 0.1663 0.34045 0.0
C128 C 0.33941 0.18212 0.3577 0.0
C129 C 0.40768 0.11975 0.33574 0.0
O130 O 0.47083 0.1834 0.30924 0.0
O131 O 0.51952 0.18388 0.27836 0.0
O132 O 0.46714 0.20104 0.2409 0.0
O133 O 0.42271 0.16965 0.25755 0.0
O134 O 0.5489 0.16805 0.21135 0.0
O135 O 0.50399 0.17989 0.18335 0.0
O136 O 0.46636 0.1225 0.21162 0.0
O137 O 0.45747 0.09382 0.26023 0.0
O138 O 0.49978 0.11583 0.30532 0.0
O139 O 0.52516 0.11629 0.25329 0.0
C140 C 0.50205 0.19251 0.30515 0.0
O141 O 0.40386 0.11502 0.30357 0.0
O142 O 0.43754 0.13068 0.34301 0.0
C143 C 0.43488 0.19744 0.24463 0.0
C144 C 0.55071 0.1608 0.15268 0.0
C145 C 0.57948 0.12986 0.09596 0.0
C146 C 0.59183 0.16062 0.108 0.0
C147 C 0.57756 0.17591 0.13606 0.0
C148 C 0.53796 0.13025 0.14067 0.0
C149 C 0.55215 0.11497 0.11239 0.0
C150 C 0.53653 0.17729 0.18245 0.0
C151 C 0.45686 0.09516 0.22751 0.0
H152 H 0.3325 0.12715 0.42312 0.0
H153 H 0.37816 0.09962 0.39285 0.0
H154 H 0.37491 0.17744 0.31748 0.0
H155 H 0.32915 0.20535 0.34782 0.0
H156 H 0.61256 0.17294 0.09563 0.0
H157 H 0.58761 0.19954 0.14489 0.0
H158 H 0.51723 0.11816 0.15328 0.0
H159 H 0.54228 0.09117 0.10385 0.0
Tb160 Tb 0.60514 0.25407 0.55405 0.0
Tb161 Tb 0.62695 0.31277 0.50038 0.0
C162 C 0.57547 0.2578 0.47949 0.0
C163 C 0.60915 0.1963 0.62788 0.0
C164 C 0.64137 0.16372 0.68225 0.0
C165 C 0.6522 0.15835 0.64912 0.0
C166 C 0.63634 0.17451 0.62223 0.0
C167 C 0.59873 0.20217 0.66101 0.0
C168 C 0.61478 0.18618 0.68796 0.0
C169 C 0.59098 0.21247 0.59969 0.0
O170 O 0.6515 0.23639 0.53286 0.0
O171 O 0.6516 0.26641 0.48327 0.0
O172 O 0.66854 0.30556 0.5343 0.0
O173 O 0.63717 0.29084 0.57943 0.0
O174 O 0.63217 0.3332 0.45188 0.0
O175 O 0.64693 0.36115 0.49583 0.0
O176 O 0.58885 0.33337 0.53446 0.0
O177 O 0.56146 0.28462 0.54581 0.0
O178 O 0.58322 0.23896 0.50579 0.0
O179 O 0.58429 0.28941 0.47693 0.0
C180 C 0.66038 0.23994 0.5014 0.0
O181 O 0.58582 0.24473 0.60222 0.0
O182 O 0.59972 0.20396 0.56932 0.0
C183 C 0.66496 0.30299 0.56676 0.0
C184 C 0.62337 0.39216 0.45044 0.0
C185 C 0.59167 0.45028 0.42404 0.0
C186 C 0.59373 0.44514 0.45893 0.0
C187 C 0.60936 0.41638 0.472 0.0
C188 C 0.62078 0.39696 0.41566 0.0
C189 C 0.60499 0.42554 0.40261 0.0
C190 C 0.6414 0.36229 0.46357 0.0
C191 C 0.56176 0.31734 0.54403 0.0
H192 H 0.67285 0.14142 0.64398 0.0
H193 H 0.64519 0.16957 0.59703 0.0
H194 H 0.5778 0.21879 0.66604 0.0
H195 H 0.60566 0.19054 0.71316 0.0
H196 H 0.58399 0.46371 0.47619 0.0
H197 H 0.61081 0.4134 0.49899 0.0
H198 H 0.6312 0.37864 0.3985 0.0
H199 H 0.60324 0.42822 0.37561 0.0
Tb200 Tb 1.0097 0.39363 0.80536 0.0
Tb201 Tb 0.95511 0.41573 0.74684 0.0
C202 C 1.00693 0.3598 0.73296 0.0
C203 C 0.06527 0.39762 0.88114 0.0
C204 C 0.1 0.43008 0.93385 0.0
C205 C 0.10287 0.44151 0.90053 0.0
C206 C 0.08562 0.42556 0.87447 0.0
C207 C 0.06175 0.38667 0.91448 0.0
C208 C 0.0788 0.4028 0.9406 0.0
C209 C 0.04818 0.37915 0.85383 0.0
O210 O 0.03146 0.43736 0.78232 0.0
O211 O 1.0036 0.43681 0.73141 0.0
O212 O 0.96248 0.4594 0.77761 0.0
O213 O 0.97516 0.43138 0.82607 0.0
O214 O 0.94034 0.42147 0.69655 0.0
O215 O 0.90661 0.43421 0.73691 0.0
O216 O 0.93014 0.38353 0.78388 0.0
O217 O 0.97544 0.35238 0.79992 0.0
O218 O 0.0258 0.36914 0.75858 0.0
O219 O 0.97531 0.36835 0.73058 0.0
C220 C 0.02948 0.44523 0.75038 0.0
O221 O 0.01562 0.37775 0.85548 0.0
O222 O 0.05842 0.38453 0.82322 0.0
C223 C 0.9648 0.45859 0.81031 0.0
C224 C 0.88226 0.41083 0.68793 0.0
C225 C 0.82937 0.37786 0.65408 0.0
C226 C 0.8227 0.40477 0.67587 0.0
C227 C 0.8489 0.42117 0.69248 0.0
C228 C 0.88888 0.38335 0.66682 0.0
C229 C 0.86273 0.36713 0.65004 0.0
C230 C 0.90969 0.42946 0.70467 0.0
C231 C 0.94302 0.356 0.79702 0.0
H232 H 0.1187 0.46271 0.89455 0.0
H233 H 0.08859 0.43485 0.84908 0.0
H234 H 0.04617 0.36523 0.92026 0.0
H235 H 0.07629 0.39319 0.96591 0.0
H236 H 0.79734 0.41386 0.67926 0.0
H237 H 0.84311 0.44231 0.70854 0.0
H238 H 0.91426 0.37454 0.6629 0.0
H239 H 0.86866 0.34624 0.63371 0.0
Tb240 Tb 0.85547 0.74051 0.99936 0.0
Tb241 Tb 0.88343 0.7948 0.05465 0.0
C242 C 0.82728 0.8153 1.00383 0.0
C243 C 0.85419 0.66352 0.94713 0.0
C244 C 0.88603 0.60531 0.92192 0.0
C245 C 0.90194 0.63671 0.92022 0.0
C246 C 0.88628 0.66551 0.93285 0.0
C247 C 0.83836 0.6322 0.94903 0.0
C248 C 0.85414 0.60335 0.93666 0.0
C249 C 0.83734 0.69347 0.96112 0.0
O250 O 0.89996 0.76119 0.97675 0.0
O251 O 0.90475 0.81065 1.00658 0.0
O252 O 0.92375 0.7603 0.04444 0.0
O253 O 0.89027 0.71555 0.03407 0.0
O254 O 0.89098 0.84351 0.07342 0.0
O255 O 0.90709 0.79985 0.1014 0.0
O256 O 0.84828 0.76052 0.0791 0.0
O257 O 0.81514 0.74988 0.03387 0.0
O258 O 0.83297 0.78875 0.98478 0.0
O259 O 0.83857 0.81774 0.0347 0.0
C260 C 0.9106 0.7922 0.97969 0.0
O261 O 0.83299 0.69324 0.99353 0.0
O262 O 0.84733 0.72274 0.95041 0.0
C263 C 0.91928 0.7279 0.04335 0.0
C264 C 0.88601 0.84552 0.13225 0.0
C265 C 0.85427 0.87245 0.18941 0.0
C266 C 0.88416 0.88648 0.17715 0.0
C267 C 0.89987 0.8731 0.14885 0.0
C268 C 0.85637 0.83113 0.14452 0.0
C269 C 0.84072 0.84438 0.17301 0.0
C270 C 0.9024 0.83226 0.102 0.0
C271 C 0.81938 0.75134 0.06635 0.0
H272 H 0.92665 0.63898 0.90932 0.0
H273 H 0.89932 0.68926 0.93149 0.0
H274 H 0.81371 0.63005 0.96012 0.0
H275 H 0.84109 0.5796 0.93803 0.0
H276 H 0.8954 0.90789 0.18947 0.0
H277 H 0.92275 0.88445 0.13979 0.0
H278 H 0.8452 0.80986 0.13191 0.0
H279 H 0.81758 0.83326 0.18166 0.0
Tb280 Tb 0.53048 0.64397 0.24744 0.0
Tb281 Tb 0.47435 0.6638 0.30461 0.0
C282 C 0.45911 0.60873 0.25242 0.0
C283 C 0.60298 0.6462 0.18809 0.0
C284 C 0.65474 0.6779 0.15216 0.0
C285 C 0.63895 0.64916 0.13926 0.0
C286 C 0.61336 0.63348 0.15709 0.0
C287 C 0.61858 0.67491 0.2012 0.0
C288 C 0.64443 0.69055 0.18342 0.0
C289 C 0.57604 0.62893 0.20621 0.0
O290 O 0.50622 0.68819 0.22776 0.0
O291 O 0.45638 0.68552 0.25686 0.0
O292 O 0.50421 0.70779 0.29607 0.0
O293 O 0.55281 0.68176 0.28083 0.0
O294 O 0.4251 0.66595 0.32307 0.0
O295 O 0.46653 0.6854 0.3519 0.0
O296 O 0.5125 0.63186 0.32855 0.0
O297 O 0.52782 0.60252 0.28191 0.0
O298 O 0.48361 0.61916 0.23285 0.0
O299 O 0.45753 0.61674 0.28426 0.0
C300 C 0.47424 0.69518 0.23063 0.0
O301 O 0.57933 0.62667 0.23871 0.0
O302 O 0.54554 0.63677 0.19743 0.0
C303 C 0.53678 0.70796 0.29306 0.0
C304 C 0.42214 0.66131 0.38204 0.0
C305 C 0.39697 0.62981 0.4402 0.0
C306 C 0.38492 0.66152 0.43001 0.0
C307 C 0.39738 0.67706 0.40122 0.0
C308 C 0.43475 0.62991 0.39224 0.0
C309 C 0.42233 0.6143 0.42121 0.0
C310 C 0.43472 0.67826 0.35181 0.0
C311 C 0.52702 0.6058 0.31447 0.0
H312 H 0.64663 0.63857 0.11546 0.0
H313 H 0.60167 0.61131 0.14665 0.0
H314 H 0.61077 0.68521 0.22509 0.0
H315 H 0.65597 0.71279 0.19383 0.0
H316 H 0.36578 0.67437 0.44436 0.0
H317 H 0.38759 0.70142 0.39388 0.0
H318 H 0.454 0.61744 0.3777 0.0
H319 H 0.43195 0.58982 0.42828 0.0
Tb320 Tb 0.25993 0.49091 0.13336 0.0
Tb321 Tb 0.20734 0.54944 0.15775 0.0
C322 C 0.25732 0.56409 0.10054 0.0
C323 C 0.31383 0.4138 0.13216 0.0
C324 C 0.34831 0.3599 0.16304 0.0
C325 C 0.35924 0.37316 0.1322 0.0
C326 C 0.34216 0.3998 0.11696 0.0
C327 C 0.30241 0.40046 0.16275 0.0
C328 C 0.31944 0.37355 0.17799 0.0
C329 C 0.29691 0.44241 0.11575 0.0
O330 O 0.28415 0.51265 0.17651 0.0
O331 O 0.25636 0.56363 0.17839 0.0
O332 O 0.21573 0.5179 0.20077 0.0
O333 O 0.22692 0.46959 0.17221 0.0
O334 O 0.19365 0.59972 0.16536 0.0
O335 O 0.15949 0.55952 0.17735 0.0
O336 O 0.18066 0.51327 0.126 0.0
O337 O 0.22453 0.49816 0.09301 0.0
O338 O 0.27601 0.5379 0.10899 0.0
O339 O 0.22617 0.56704 0.11033 0.0
C340 C 0.28233 0.54422 0.1857 0.0
O341 O 0.26428 0.44173 0.11507 0.0
O342 O 0.30817 0.47213 0.12325 0.0
C343 C 0.21738 0.48518 0.19974 0.0
C344 C 0.13592 0.60903 0.15464 0.0
C345 C 0.08357 0.64191 0.11978 0.0
C346 C 0.0772 0.62495 0.15006 0.0
C347 C 0.1032 0.60878 0.16739 0.0
C348 C 0.14218 0.62536 0.12398 0.0
C349 C 0.11628 0.64178 0.10684 0.0
C350 C 0.16299 0.59182 0.17332 0.0
C351 C 0.19231 0.50111 0.09766 0.0
H352 H 0.38114 0.36293 0.11984 0.0
H353 H 0.35126 0.40966 0.09332 0.0
H354 H 0.28057 0.41102 0.17496 0.0
H355 H 0.31059 0.36403 0.20184 0.0
H356 H 0.0523 0.62491 0.16077 0.0
H357 H 0.09778 0.59622 0.1909 0.0
H358 H 0.16708 0.62561 0.11327 0.0
H359 H 0.12184 0.65438 0.0834 0.0
Tb360 Tb 0.7636 0.06748 0.91005 0.0
Tb361 Tb 0.70563 1.01259 0.88806 0.0
C362 C 0.76033 0.99315 0.93995 0.0
C363 C 0.82246 0.14063 0.90982 0.0
C364 C 0.85738 0.1941 0.87934 0.0
C365 C 0.86865 0.18 0.90978 0.0
C366 C 0.85137 0.15357 0.92482 0.0
C367 C 0.81071 0.15478 0.87964 0.0
C368 C 0.82797 0.18145 0.86458 0.0
C369 C 0.8053 0.11231 0.92609 0.0
O370 O 0.78047 0.04759 0.86285 0.0
O371 O 0.7524 0.99711 0.86317 0.0
O372 O 0.71079 0.04711 0.84674 0.0
O373 O 0.72719 0.09271 0.87716 0.0
O374 O 0.68896 0.96346 0.87934 0.0
O375 O 0.6559 1.00587 0.87181 0.0
O376 O 0.68399 0.04736 0.92499 0.0
O377 O 0.73213 0.05997 0.95305 0.0
O378 O 0.77927 0.01873 0.93088 0.0
O379 O 0.72838 0.99154 0.93246 0.0
C380 C 0.77779 0.01613 0.85374 0.0
O381 O 0.773 0.11527 0.92996 0.0
O382 O 0.81372 0.08239 0.91587 0.0
C383 C 0.71407 0.0796 0.84987 0.0
C384 C 0.63113 0.95561 0.89159 0.0
C385 C 0.57871 0.9198 0.92305 0.0
C386 C 0.57186 0.94225 0.8966 0.0
C387 C 0.59782 0.95984 0.88097 0.0
C388 C 0.63795 0.93389 0.91865 0.0
C389 C 0.61203 0.91611 0.93412 0.0
C390 C 0.65827 0.97325 0.87348 0.0
C391 C 0.69948 0.0586 0.95189 0.0
H392 H 0.89092 0.18946 0.92205 0.0
H393 H 0.86072 0.14308 0.94817 0.0
H394 H 0.7884 0.14504 0.86765 0.0
H395 H 0.81881 0.19161 0.84103 0.0
H396 H 0.54655 0.94541 0.88724 0.0
H397 H 0.59192 0.97639 0.86014 0.0
H398 H 0.66333 0.93025 0.92765 0.0
H399 H 0.61809 0.8993 0.95468 0.0
Tb400 Tb 0.72842 0.99319 0.39611 0.0
Tb401 Tb 0.78031 0.05304 0.37381 0.0
C402 C 0.72855 0.06583 0.42978 0.0
C403 C 0.67864 0.91395 0.3947 0.0
C404 C 0.6516 0.85668 0.36312 0.0
C405 C 0.63773 0.86911 0.39309 0.0
C406 C 0.65113 0.89742 0.40869 0.0
C407 C 0.69282 0.90164 0.36488 0.0
C408 C 0.6795 0.87311 0.34929 0.0
C409 C 0.69225 0.94367 0.41182 0.0
O410 O 0.7057 0.01524 0.35214 0.0
O411 O 0.73119 0.06713 0.35295 0.0
O412 O 0.77378 0.02146 0.33075 0.0
O413 O 0.764 0.97284 0.35919 0.0
O414 O 0.79333 0.10359 0.36723 0.0
O415 O 0.82822 0.06389 0.35495 0.0
O416 O 0.80676 0.0172 0.40655 0.0
O417 O 0.76199 1.00091 0.43771 0.0
O418 O 0.71063 0.03951 0.42063 0.0
O419 O 0.75988 0.06943 0.42088 0.0
C420 C 0.70615 0.04726 0.34444 0.0
O421 O 0.72468 0.94441 0.41561 0.0
O422 O 0.68033 0.97271 0.40236 0.0
C423 C 0.77418 0.98873 0.33208 0.0
C424 C 0.85097 0.11324 0.37844 0.0
C425 C 0.90279 0.14634 0.41346 0.0
C426 C 0.91 0.12687 0.38499 0.0
C427 C 0.8843 0.11061 0.36757 0.0
C428 C 0.84383 0.13213 0.40734 0.0
C429 C 0.86947 0.14861 0.42457 0.0
C430 C 0.82419 0.09608 0.35946 0.0
C431 C 0.79428 1.00454 0.43432 0.0
H432 H 0.61655 0.85678 0.40465 0.0
H433 H 0.63998 0.90643 0.43177 0.0
H434 H 0.71409 0.91413 0.35364 0.0
H435 H 0.69056 0.8643 0.32611 0.0
H436 H 0.93538 0.12494 0.37565 0.0
H437 H 0.89043 0.09615 0.3454 0.0
H438 H 0.81844 0.13439 0.4166 0.0
H439 H 0.86321 0.16318 0.44662 0.0
Tb440 Tb 0.2784 0.51014 0.65184 0.0
Tb441 Tb 0.22161 0.56743 0.63405 0.0
C442 C 0.20635 0.51215 0.68639 0.0
C443 C 0.3553 0.45667 0.64757 0.0
C444 C 0.41264 0.43037 0.61567 0.0
C445 C 0.39727 0.41286 0.64216 0.0
C446 C 0.36891 0.42592 0.65795 0.0
C447 C 0.37043 0.47433 0.62108 0.0
C448 C 0.39902 0.46134 0.60536 0.0
C449 C 0.32586 0.47015 0.66521 0.0
O450 O 0.25424 0.49178 0.60725 0.0
O451 O 0.20402 0.5205 0.61079 0.0
O452 O 0.25129 0.56004 0.58981 0.0
O453 O 0.30014 0.54586 0.61579 0.0
O454 O 0.17252 0.58658 0.63268 0.0
O455 O 0.21395 0.61535 0.61325 0.0
O456 O 0.25963 0.58991 0.66702 0.0
O457 O 0.27319 0.54192 0.69493 0.0
O458 O 0.23169 0.49346 0.67587 0.0
O459 O 0.2041 0.54432 0.67961 0.0
C460 C 0.22218 0.4946 0.60056 0.0
O461 O 0.32637 0.50219 0.67176 0.0
O462 O 0.29665 0.46052 0.65427 0.0
C463 C 0.28393 0.55837 0.58978 0.0
C464 C 0.17046 0.64603 0.63887 0.0
C465 C 0.14712 0.70493 0.67069 0.0
C466 C 0.16158 0.7065 0.63861 0.0
C467 C 0.173 0.67732 0.62284 0.0
C468 C 0.15675 0.64445 0.67129 0.0
C469 C 0.14506 0.67362 0.68697 0.0
C470 C 0.18234 0.61565 0.62125 0.0
C471 C 0.27334 0.57457 0.69291 0.0
H472 H 0.40741 0.38915 0.65096 0.0
H473 H 0.35768 0.41205 0.67843 0.0
H474 H 0.3602 0.49813 0.61264 0.0
H475 H 0.41016 0.47524 0.58487 0.0
H476 H 0.16316 0.73016 0.62526 0.0
H477 H 0.18357 0.67914 0.59788 0.0
H478 H 0.15481 0.62071 0.68443 0.0
H479 H 0.1343 0.67168 0.71183 0.0
H480 H 0.14255 0.38323 0.52109 0.0
H481 H 0.20692 0.3191 0.58038 0.0
H482 H 0.23347 0.3686 0.60525 0.0
H483 H 0.23785 0.42974 0.61033 0.0
H484 H 0.17011 0.49415 0.5553 0.0
H485 H 0.14501 0.44473 0.52845 0.0
C486 C 0.16261 0.38016 0.53926 0.0
C487 C 0.17328 0.34765 0.54856 0.0
C488 C 0.17688 0.40866 0.55418 0.0
C489 C 0.19856 0.34389 0.57275 0.0
C490 C 0.21366 0.37214 0.58692 0.0
C491 C 0.21773 0.43299 0.59224 0.0
C492 C 0.20615 0.46551 0.58426 0.0
C493 C 0.20299 0.40458 0.57781 0.0
C494 C 0.17949 0.46936 0.5616 0.0
C495 C 0.16525 0.44115 0.54628 0.0
H496 H 0.8428 0.03088 0.86301 0.0
H497 H 0.77736 0.96743 0.8051 0.0
H498 H 0.82606 0.94318 0.77626 0.0
H499 H 0.8872 0.93952 0.76854 0.0
H500 H 0.95259 0.99883 0.83079 0.0
H501 H 0.90379 0.02552 0.85706 0.0
C502 C 0.83917 1.01194 0.84383 0.0
C503 C 0.80654 1.00127 0.83571 0.0
C504 C 0.86723 0.99748 0.82831 0.0
C505 C 0.80222 0.97611 0.81155 0.0
C506 C 0.83003 0.96232 0.79512 0.0
C507 C 0.89074 0.95857 0.78763 0.0
C508 C 0.9234 0.96771 0.79741 0.0
C509 C 0.86263 0.9728 0.80337 0.0
C510 C 0.9277 0.99165 0.82277 0.0
C511 C 0.89983 1.00683 0.83774 0.0
H512 H 0.33598 0.67502 0.0189 0.0
H513 H 0.27164 0.7397 0.077 0.0
H514 H 0.24459 0.69042 0.10185 0.0
H515 H 0.24032 0.62925 0.108 0.0
H516 H 0.30828 0.56445 0.05428 0.0
H517 H 0.33301 0.61358 0.02661 0.0
C518 C 0.31579 0.6783 0.03677 0.0
C519 C 0.30542 0.71095 0.04579 0.0
C520 C 0.3012 0.64988 0.05172 0.0
C521 C 0.27988 0.71486 0.06958 0.0
C522 C 0.26446 0.6867 0.08375 0.0
C523 C 0.26033 0.6258 0.08995 0.0
C524 C 0.27215 0.59317 0.08276 0.0
C525 C 0.27503 0.65414 0.0751 0.0
C526 C 0.29866 0.58923 0.06004 0.0
C527 C 0.31275 0.61731 0.04427 0.0
H528 H 0.58854 0.1221 0.26844 0.0
H529 H 0.52959 0.05929 0.33359 0.0
H530 H 0.58097 0.03384 0.35634 0.0
H531 H 0.64248 0.03016 0.35799 0.0
H532 H 0.70148 0.09706 0.2971 0.0
H533 H 0.65011 0.12045 0.27218 0.0
C534 C 0.58698 0.10261 0.28744 0.0
C535 C 0.5554 0.09208 0.29901 0.0
C536 C 0.61655 0.08904 0.30108 0.0
C537 C 0.55364 0.06756 0.32423 0.0
C538 C 0.58297 0.05307 0.33716 0.0
C539 C 0.64407 0.04968 0.33902 0.0
C540 C 0.67565 0.06156 0.32887 0.0
C541 C 0.61451 0.06365 0.32578 0.0
C542 C 0.67743 0.08745 0.30505 0.0
C543 C 0.6481 0.10075 0.29087 0.0
H544 H 0.64928 0.17443 0.51368 0.0
H545 H 0.70872 0.24092 0.45272 0.0
H546 H 0.73599 0.19233 0.42639 0.0
H547 H 0.74218 0.13125 0.42046 0.0
H548 H 0.67889 0.06474 0.47733 0.0
H549 H 0.65354 0.11325 0.50571 0.0
C550 C 0.66845 0.17827 0.49481 0.0
C551 C 0.67751 0.21117 0.48548 0.0
C552 C 0.68306 0.15031 0.47912 0.0
C553 C 0.7016 0.21585 0.46041 0.0
C554 C 0.71711 0.1881 0.44541 0.0
C555 C 0.723 0.12734 0.43928 0.0
C556 C 0.71273 0.09446 0.44729 0.0
C557 C 0.70798 0.15527 0.45458 0.0
C558 C 0.68727 0.08978 0.47098 0.0
C559 C 0.67287 0.11749 0.48715 0.0
H560 H 0.09433 0.43268 0.76488 0.0
H561 H 0.03081 0.49347 0.70134 0.0
H562 H 0.08038 0.52045 0.67715 0.0
H563 H 0.14161 0.52646 0.67416 0.0
H564 H 0.20532 0.46172 0.73342 0.0
H565 H 0.15573 0.43632 0.7594 0.0
C566 C 0.09137 0.45201 0.74585 0.0
C567 C 0.059 0.46156 0.73521 0.0
C568 C 0.11995 0.46653 0.73141 0.0
C569 C 0.05546 0.48592 0.70999 0.0
C570 C 0.08377 0.50131 0.69624 0.0
C571 C 0.14462 0.50694 0.69298 0.0
C572 C 0.17702 0.49633 0.70243 0.0
C573 C 0.11609 0.49183 0.70682 0.0
C574 C 0.18064 0.4704 0.72603 0.0
C575 C 0.15231 0.45595 0.74082 0.0
H576 H 0.74312 0.92845 0.93076 0.0
H577 H 0.81242 0.99133 0.98469 0.0
H578 H 0.83799 0.94142 1.0105 0.0
H579 H 0.8411 0.88007 0.01672 0.0
H580 H 0.77551 0.81698 0.95857 0.0
H581 H 0.74779 0.86698 0.93519 0.0
C582 C 0.76364 0.93123 0.94843 0.0
C583 C 0.77562 0.9635 0.9563 0.0
C584 C 0.7788 0.90246 0.96219 0.0
C585 C 0.80273 0.96675 0.97847 0.0
C586 C 0.81728 0.93826 0.99317 0.0
C587 C 0.82051 0.87728 0.99914 0.0
C588 C 0.80992 0.84495 0.98969 0.0
C589 C 0.80556 0.90602 0.98512 0.0
C590 C 0.78389 0.84162 0.96627 0.0
C591 C 0.7681 0.87017 0.95298 0.0
H592 H 0.39445 0.61892 0.26843 0.0
H593 H 0.45804 0.56166 0.20238 0.0
H594 H 0.40852 0.53532 0.17718 0.0
H595 H 0.34717 0.52972 0.17334 0.0
H596 H 0.28369 0.59153 0.23532 0.0
H597 H 0.33324 0.61519 0.26289 0.0
C598 C 0.39747 0.60036 0.24876 0.0
C599 C 0.42981 0.59167 0.23763 0.0
C600 C 0.36894 0.58641 0.23368 0.0
C601 C 0.43339 0.56843 0.21149 0.0
C602 C 0.40511 0.55347 0.19712 0.0
C603 C 0.34423 0.54819 0.1931 0.0
C604 C 0.31188 0.5586 0.20271 0.0
C605 C 0.37279 0.56238 0.20795 0.0
C606 C 0.30834 0.58311 0.22767 0.0
C607 C 0.33663 0.59655 0.2434 0.0
H608 H 0.49015 0.18128 0.3706 0.0
H609 H 0.55169 0.24001 0.30405 0.0
H610 H 0.57881 0.26644 0.35264 0.0
H611 H 0.58514 0.27215 0.41397 0.0
H612 H 0.52718 0.20934 0.48006 0.0
H613 H 0.49832 0.18497 0.43154 0.0
C614 C 0.5093 0.20013 0.36671 0.0
C615 C 0.51855 0.20922 0.33382 0.0
C616 C 0.52536 0.21426 0.39463 0.0
C617 C 0.54403 0.23287 0.32912 0.0
C618 C 0.55947 0.24791 0.35687 0.0
C619 C 0.566 0.25328 0.41773 0.0
C620 C 0.55787 0.24282 0.45053 0.0
C621 C 0.55033 0.23876 0.38971 0.0
C622 C 0.53369 0.21781 0.45507 0.0
C623 C 0.51722 0.20396 0.42736 0.0
H624 H 0.08626 0.28135 0.62058 0.0
H625 H 0.02239 0.34173 0.55699 0.0
H626 H 0.9952 0.3656 0.60678 0.0
H627 H 0.99043 0.3697 0.66813 0.0
H628 H 0.05809 0.3136 0.73172 0.0
H629 H 0.0832 0.28739 0.68199 0.0
C630 C 0.06617 0.29955 0.61763 0.0
C631 C 0.05587 0.30944 0.5852 0.0
C632 C 0.05154 0.31382 0.64629 0.0
C633 C 0.03052 0.33366 0.58169 0.0
C634 C 0.01504 0.34722 0.61012 0.0
C635 C 1.01047 0.35146 0.67114 0.0
C636 C 0.02207 0.34305 0.70356 0.0
C637 C 0.02539 0.33749 0.6425 0.0
C638 C 0.04864 0.32019 0.70705 0.0
C639 C 0.06294 0.30528 0.67865 0.0
H640 H 0.99 0.87203 0.86887 0.0
H641 H 0.92219 0.8181 0.8043 0.0
H642 H 0.89858 0.78931 0.85331 0.0
H643 H 0.89668 0.78055 0.91451 0.0
H644 H 0.96081 0.83865 0.97919 0.0
H645 H 0.98672 0.86484 0.92997 0.0
C646 C 0.97022 0.85374 0.86548 0.0
C647 C 0.95809 0.84679 0.833 0.0
C648 C 0.95623 0.83818 0.89374 0.0
C649 C 0.93196 0.82371 0.82904 0.0
C650 C 0.91854 0.80728 0.85702 0.0
C651 C 0.91659 0.79871 0.91778 0.0
C652 C 0.92727 0.80737 0.95035 0.0
C653 C 0.93045 0.81441 0.88947 0.0
C654 C 0.9524 0.83152 0.95435 0.0
C655 C 0.96714 0.84645 0.92625 0.0
H656 H 0.49036 0.68764 0.1655 0.0
H657 H 0.42096 0.73901 0.23056 0.0
H658 H 0.39479 0.76608 0.18158 0.0
H659 H 0.39161 0.77455 0.1203 0.0
H660 H 0.45778 0.71901 0.05527 0.0
H661 H 0.48553 0.69404 0.10437 0.0
C662 C 0.46965 0.70499 0.169 0.0
C663 C 0.45788 0.7118 0.20163 0.0
C664 C 0.45428 0.71957 0.14078 0.0
C665 C 0.43051 0.73357 0.20573 0.0
C666 C 0.41563 0.74902 0.17775 0.0
C667 C 0.41233 0.75718 0.11692 0.0
C668 C 0.42308 0.74898 0.08426 0.0
C669 C 0.42735 0.7422 0.14519 0.0
C670 C 0.44927 0.72581 0.08015 0.0
C671 C 0.46508 0.71158 0.10819 0.0
H672 H 0.16356 0.43641 0.33992 0.0
H673 H 0.14743 0.3447 0.28517 0.0
H674 H 0.17365 0.3694 0.23533 0.0
H675 H 0.19814 0.41893 0.2062 0.0
H676 H 0.21322 0.51012 0.26264 0.0
H677 H 0.19058 0.48381 0.31254 0.0
C678 C 0.16569 0.42183 0.31705 0.0
C679 C 0.15318 0.38895 0.31616 0.0
C680 C 0.18061 0.43618 0.28861 0.0
C681 C 0.15688 0.37011 0.28654 0.0
C682 C 0.17175 0.38428 0.25799 0.0
C683 C 0.19682 0.43282 0.22953 0.0
C684 C 0.20702 0.46664 0.23038 0.0
C685 C 0.18335 0.41753 0.25855 0.0
C686 C 0.20515 0.48425 0.26094 0.0
C687 C 0.1922 0.46923 0.28966 0.0
H688 H 0.90134 0.94931 0.53865 0.0
H689 H 0.81383 0.95049 0.602 0.0
H690 H 0.78053 0.97407 0.55629 0.0
H691 H 0.77553 0.99236 0.49819 0.0
H692 H 0.86221 0.99226 0.43378 0.0
H693 H 0.89665 0.97041 0.4801 0.0
C694 C 0.87498 0.95477 0.54235 0.0
C695 C 0.86009 0.94815 0.57372 0.0
C696 C 0.85586 0.96845 0.51583 0.0
C697 C 0.826 0.95568 0.57829 0.0
C698 C 0.80688 0.969 0.5521 0.0
C699 C 0.80198 0.98762 0.49415 0.0
C700 C 0.81619 0.99361 0.46243 0.0
C701 C 0.82147 0.97521 0.52076 0.0
C702 C 0.85062 0.98781 0.45792 0.0
C703 C 0.87028 0.97521 0.48438 0.0
H704 H 0.26194 0.6386 0.71663 0.0
H705 H 0.32551 0.5515 0.7292 0.0
H706 H 0.35418 0.57811 0.77578 0.0
H707 H 0.36045 0.62482 0.81424 0.0
H708 H 0.29585 0.71144 0.80527 0.0
H709 H 0.26895 0.68674 0.7559 0.0
C710 C 0.28225 0.62571 0.72945 0.0
C711 C 0.29138 0.59304 0.71955 0.0
C712 C 0.29849 0.64101 0.75697 0.0
C713 C 0.31767 0.57651 0.7365 0.0
C714 C 0.3342 0.59171 0.76317 0.0
C715 C 0.34024 0.63824 0.80179 0.0
C716 C 0.33005 0.6698 0.81378 0.0
C717 C 0.32453 0.62369 0.77393 0.0
C718 C 0.30441 0.68715 0.79656 0.0
C719 C 0.28886 0.67295 0.76839 0.0
H720 H 0.64584 0.12159 0.0864 0.0
H721 H 0.55027 0.10023 0.04094 0.0
H722 H 0.57855 0.07519 0.99236 0.0
H723 H 0.63113 0.0614 0.96186 0.0
H724 H 0.72594 0.08377 1.00926 0.0
H725 H 0.69725 0.1065 0.05758 0.0
C726 C 0.63116 0.11164 0.06577 0.0
C727 C 0.59607 0.11314 0.06708 0.0
C728 C 0.64749 0.0975 0.03809 0.0
C729 C 0.57738 0.09935 0.04053 0.0
C730 C 0.59354 0.08518 0.0127 0.0
C731 C 0.64544 0.07114 0.98281 0.0
C732 C 0.68072 0.07095 0.98158 0.0
C733 C 0.62869 0.08439 1.01103 0.0
C734 C 0.69883 0.08358 1.00916 0.0
C735 C 0.68245 0.09668 0.037 0.0
H736 H 0.66122 0.18657 0.74397 0.0
H737 H 0.65476 0.09689 0.68374 0.0
H738 H 0.67748 0.06358 0.72988 0.0
H739 H 0.6976 0.05941 0.78734 0.0
H740 H 0.70511 0.14823 0.8487 0.0
H741 H 0.68361 0.18245 0.80205 0.0
C742 C 0.66479 0.15974 0.74106 0.0
C743 C 0.65637 0.14424 0.71041 0.0
C744 C 0.67797 0.14061 0.76783 0.0
C745 C 0.66143 0.1095 0.70685 0.0
C746 C 0.67424 0.09039 0.7333 0.0
C747 C 0.69457 0.08627 0.79068 0.0
C748 C 0.70265 0.10117 0.82165 0.0
C749 C 0.68239 0.10564 0.76389 0.0
C750 C 0.69898 0.13609 0.82519 0.0
C751 C 0.68662 0.15564 0.79854 0.0
H752 H 0.20886 0.48707 0.03338 0.0
H753 H 0.12432 0.49019 0.10053 0.0
H754 H 0.08798 0.46892 0.0557 0.0
H755 H 0.08078 0.44785 0.99752 0.0
H756 H 0.16609 0.44583 0.93126 0.0
H757 H 0.20147 0.46841 0.97564 0.0
C758 C 0.18247 0.48315 0.03835 0.0
C759 C 0.16943 0.48996 0.07044 0.0
C760 C 0.16183 0.4711 1.01253 0.0
C761 C 0.13506 0.48511 0.07612 0.0
C762 C 0.11429 0.47287 0.0505 0.0
C763 C 0.10712 0.45237 0.99287 0.0
C764 C 0.12072 0.44518 0.96102 0.0
C765 C 0.12747 0.46548 0.01864 0.0
C766 C 0.15484 0.4515 0.95531 0.0
C767 C 0.17517 0.46424 0.98076 0.0
H768 H 0.7815 0.9204 0.32262 0.0
H769 H 0.79789 0.01645 0.27472 0.0
H770 H 0.82319 0.98898 0.22699 0.0
H771 H 0.84215 0.9384 0.19878 0.0
H772 H 0.82655 0.84162 0.24453 0.0
H773 H 0.79923 0.86852 0.29266 0.0
C774 C 0.79051 0.93524 0.30168 0.0
C775 C 0.78789 0.97052 0.30262 0.0
C776 C 0.80526 0.9192 0.27378 0.0
C777 C 0.79957 0.98931 0.27505 0.0
C778 C 0.81415 0.97364 0.24755 0.0
C779 C 0.83299 0.92317 0.2194 0.0
C780 C 0.83675 0.88816 0.2183 0.0
C781 C 0.81743 0.93873 0.24677 0.0
C782 C 0.82396 0.86869 0.2448 0.0
C783 C 0.80845 0.88408 0.27237 0.0
H784 H 0.35176 0.55805 0.57534 0.0
H785 H 0.25525 0.58851 0.53593 0.0
H786 H 0.28159 0.61184 0.4867 0.0
H787 H 0.33131 0.62493 0.45465 0.0
H788 H 0.42868 0.59596 0.49179 0.0
H789 H 0.40278 0.57036 0.54145 0.0
C790 C 0.33658 0.56975 0.55594 0.0
C791 C 0.30151 0.5715 0.55969 0.0
C792 C 0.35197 0.5834 0.52708 0.0
C793 C 0.28225 0.58666 0.53408 0.0
C794 C 0.29726 0.60014 0.5057 0.0
C795 C 0.34696 0.61325 0.47372 0.0
C796 C 0.38185 0.61277 0.46974 0.0
C797 C 0.332 0.59888 0.50204 0.0
C798 C 0.40168 0.59667 0.49425 0.0
C799 C 0.38689 0.58218 0.52273 0.0
H800 H 0.22637 0.23056 0.49199 0.0
H801 H 0.16777 0.24721 0.40223 0.0
H802 H 0.21324 0.22383 0.36819 0.0
H803 H 0.2689 0.19623 0.36446 0.0
H804 H 0.32613 0.17975 0.45511 0.0
H805 H 0.28172 0.20537 0.48827 0.0
C806 C 0.22341 0.22926 0.46495 0.0
C807 C 0.19354 0.24048 0.44975 0.0
C808 C 0.24938 0.21559 0.4457 0.0
C809 C 0.19043 0.23868 0.41464 0.0
C810 C 0.21642 0.22526 0.39516 0.0
C811 C 0.27172 0.19859 0.39143 0.0
C812 C 0.30066 0.18579 0.40733 0.0
C813 C 0.2459 0.21331 0.41048 0.0
C814 C 0.30388 0.18884 0.44232 0.0
C815 C 0.27858 0.20363 0.4613 0.0
H816 H 0.07053 0.05888 0.60879 0.0
H817 H 0.09577 0.11328 0.69889 0.0
H818 H 0.07144 0.069 0.73315 0.0
H819 H 0.04435 0.01473 0.73791 0.0
H820 H 0.01869 0.95894 0.6488 0.0
H821 H 0.04154 1.00403 0.61377 0.0
C822 C 0.07041 0.0611 0.63591 0.0
C823 C 0.08527 0.08925 0.65125 0.0
C824 C 0.05638 0.03533 0.65563 0.0
C825 C 0.08508 0.09167 0.68644 0.0
C826 C 0.07101 0.06642 0.70608 0.0
C827 C 0.04359 1.01228 0.71082 0.0
C828 C 0.02988 0.98332 0.69608 0.0
C829 C 0.05688 0.03807 0.69098 0.0
C830 C 0.02915 0.98087 0.66087 0.0
C831 C 0.04224 1.00666 0.64083 0.0
H832 H 0.21487 0.8638 0.85762 0.0
H833 H 0.14791 0.86146 0.94241 0.0
H834 H 0.19192 0.83674 0.97723 0.0
H835 H 0.24974 0.81777 0.98431 0.0
H836 H 0.31732 0.81926 0.89997 0.0
H837 H 0.27275 0.84223 0.86426 0.0
C838 C 0.20999 0.85787 0.88373 0.0
C839 C 0.17814 0.86451 0.8974 0.0
C840 C 0.2355 0.84357 0.90369 0.0
C841 C 0.17205 0.85631 0.93116 0.0
C842 C 0.19727 0.84233 0.95115 0.0
C843 C 0.2548 0.82301 0.95809 0.0
C844 C 0.28697 0.81707 0.94495 0.0
C845 C 0.22912 0.83611 0.93777 0.0
C846 C 0.29285 0.82367 0.9108 0.0
C847 C 0.26738 0.83689 0.89037 0.0
H848 H 0.44717 0.08624 0.15935 0.0
H849 H 0.43757 0.03616 0.25524 0.0
H850 H 0.41345 0.98764 0.22819 0.0
H851 H 0.39339 0.95935 0.17813 0.0
H852 H 0.40215 1.00728 0.08152 0.0
H853 H 0.42853 0.05617 0.10786 0.0
C854 C 0.43993 0.06465 0.17424 0.0
C855 C 0.44404 0.06524 0.20939 0.0
C856 C 0.42582 0.03628 0.15844 0.0
C857 C 0.43464 0.03682 0.22821 0.0
C858 C 0.42075 1.00885 0.21279 0.0
C859 C 0.40086 0.98059 0.16283 0.0
C860 C 0.39543 0.97985 0.12802 0.0
C861 C 0.41588 1.00842 0.17807 0.0
C862 C 0.40607 1.00722 0.10843 0.0
C863 C 0.42103 0.03524 0.1235 0.0
H864 H 0.76703 0.35858 0.67531 0.0
H865 H 0.83014 0.36258 0.58762 0.0
H866 H 0.78535 0.33896 0.55353 0.0
H867 H 0.72807 0.31876 0.548 0.0
H868 H 0.6641 0.31379 0.63497 0.0
H869 H 0.7094 0.33614 0.66994 0.0
C870 C 0.7709 0.35429 0.64873 0.0
C871 C 0.80198 0.36232 0.63407 0.0
C872 C 0.7449 0.34059 0.62913 0.0
C873 C 0.8067 0.35627 0.59966 0.0
C874 C 0.78101 0.34294 0.58007 0.0
C875 C 0.72391 0.3225 0.57462 0.0
C876 C 0.69257 0.31484 0.58875 0.0
C877 C 0.74999 0.33521 0.59448 0.0
C878 C 0.68792 0.31951 0.62339 0.0
C879 C 0.71381 0.33238 0.64339 0.0
H880 H 0.94141 0.46354 0.87483 0.0
H881 H 0.96544 0.52243 0.78714 0.0
H882 H 0.94482 0.57298 0.81448 0.0
H883 H 0.917 0.6002 0.86172 0.0
H884 H 0.89069 0.54211 0.9491 0.0
H885 H 0.91486 0.49168 0.92352 0.0
C886 C 0.94246 0.48753 0.86195 0.0
C887 C 0.95482 0.48915 0.82895 0.0
C888 C 0.92983 0.51665 0.87763 0.0
C889 C 0.95579 0.52039 0.81245 0.0
C890 C 0.944 0.54938 0.82805 0.0
C891 C 0.91697 0.57661 0.87538 0.0
C892 C 0.90208 0.57494 0.90725 0.0
C893 C 0.93052 0.54775 0.8604 0.0
C894 C 0.90173 0.544 0.92437 0.0
C895 C 0.91566 0.51519 0.90981 0.0
H896 H 0.75649 0.73573 0.04687 0.0
H897 H 0.81886 0.74405 0.13508 0.0
H898 H 0.77267 0.72375 0.16998 0.0
H899 H 0.71532 0.7006 0.17467 0.0
H900 H 0.65422 0.69253 0.08556 0.0
H901 H 0.69933 0.71573 0.05174 0.0
C902 C 0.76012 0.73324 0.07375 0.0
C903 C 0.79126 0.74109 0.08826 0.0
C904 C 0.73369 0.72142 0.09348 0.0
C905 C 0.79522 0.73802 0.12321 0.0
C906 C 0.76882 0.72637 0.14316 0.0
C907 C 0.71181 0.70434 0.14792 0.0
C908 C 0.68158 0.69451 0.13258 0.0
C909 C 0.73805 0.71759 0.12848 0.0
C910 C 0.67743 0.69933 0.09786 0.0
C911 C 0.70316 0.71271 0.07852 0.0
H912 H 0.61368 0.48647 0.37079 0.0
H913 H 0.53582 0.48493 0.44562 0.0
H914 H 0.51044 0.53519 0.4206 0.0
H915 H 0.50843 0.57775 0.3747 0.0
H916 H 0.58493 0.57544 0.29847 0.0
H917 H 0.61251 0.52858 0.32659 0.0
C918 C 0.59096 0.49684 0.38153 0.0
C919 C 0.57655 0.48158 0.40983 0.0
C920 C 0.57617 0.52521 0.36666 0.0
C921 C 0.54762 0.49615 0.4239 0.0
C922 C 0.53296 0.52484 0.40949 0.0
C923 C 0.53137 0.56719 0.36465 0.0
C924 C 0.54461 0.57994 0.33455 0.0
C925 C 0.54679 0.5394 0.38057 0.0
C926 C 0.57416 0.56588 0.32151 0.0
C927 C 0.58996 0.53906 0.33754 0.0
H928 H 0.3257 0.30192 0.19276 0.0
H929 H 0.41564 0.35769 0.17138 0.0
H930 H 0.44965 0.31297 0.1957 0.0
H931 H 0.45436 0.25779 0.22091 0.0
H932 H 0.36571 0.20018 0.24269 0.0
H933 H 0.33064 0.24606 0.2207 0.0
C934 C 0.35271 0.30432 0.19375 0.0
C935 C 0.36813 0.33297 0.17988 0.0
C936 C 0.37233 0.27823 0.20773 0.0
C937 C 0.40318 0.33569 0.18127 0.0
C938 C 0.42266 0.31019 0.19532 0.0
C939 C 0.42735 0.25507 0.22102 0.0
C940 C 0.41276 0.22535 0.23324 0.0
C941 C 0.40756 0.28124 0.2082 0.0
C942 C 0.37766 0.22268 0.23333 0.0
C943 C 0.35761 0.24891 0.22071 0.0
H944 H 0.96311 0.29587 0.82175 0.0
H945 H 0.87404 0.35382 0.80011 0.0
H946 H 0.83934 0.30834 0.82251 0.0
H947 H 0.8347 0.25254 0.85019 0.0
H948 H 0.92482 0.19595 0.87112 0.0
H949 H 0.95864 0.24061 0.84711 0.0
C950 C 0.93609 0.29874 0.8218 0.0
C951 C 0.92128 0.32843 0.80939 0.0
C952 C 0.91645 0.27269 0.83475 0.0
C953 C 0.88617 0.33133 0.80957 0.0
C954 C 0.86631 0.30532 0.8224 0.0
C955 C 0.86171 0.24992 0.84918 0.0
C956 C 0.8772 0.22104 0.86281 0.0
C957 C 0.88121 0.27592 0.8353 0.0
C958 C 0.91226 0.21811 0.86142 0.0
C959 C 0.93165 0.24358 0.84754 0.0
H960 H 0.01983 0.6215 0.10573 0.0
H961 H 0.08689 0.70554 0.09544 0.0
H962 H 0.04241 0.73871 0.06931 0.0
H963 H 0.9842 0.74479 0.05171 0.0
H964 H 0.91634 0.66131 0.06116 0.0
H965 H 0.96148 0.62683 0.08509 0.0
C966 C 0.0246 0.64708 0.09773 0.0
C967 C 0.05657 0.66109 0.10258 0.0
C968 C 0.99885 0.66606 0.08262 0.0
C969 C 0.0626 0.69409 0.09172 0.0
C970 C 0.03715 0.71313 0.07693 0.0
C971 C 0.97921 0.719 0.05888 0.0
C972 C 0.94685 0.70575 0.05498 0.0
C973 C 1.00514 0.69948 0.07257 0.0
C974 C 0.94102 0.67214 0.06395 0.0
C975 C 0.96678 0.65248 0.07775 0.0
H976 H 0.58576 0.84577 0.35247 0.0
H977 H 0.68291 0.80158 0.33551 0.0
H978 H 0.6565 0.75185 0.31079 0.0
H979 H 0.60497 0.71969 0.29656 0.0
H980 H 0.50856 0.76592 0.31481 0.0
H981 H 0.53552 0.81557 0.33653 0.0
C982 C 0.60121 0.8252 0.34352 0.0
C983 C 0.63619 0.82721 0.34623 0.0
C984 C 0.58593 0.79681 0.32963 0.0
C985 C 0.65586 0.80067 0.3337 0.0
C986 C 0.64076 0.77216 0.31972 0.0
C987 C 0.58993 0.7407 0.30513 0.0
C988 C 0.5547 0.73865 0.30423 0.0
C989 C 0.60569 0.76973 0.3179 0.0
C990 C 0.53567 0.76634 0.31533 0.0
C991 C 0.55105 0.79498 0.32783 0.0
H992 H 0.55269 0.385 0.55579 0.0
H993 H 0.5006 0.2901 0.55411 0.0
H994 H 0.45006 0.31701 0.57427 0.0
H995 H 0.42091 0.36638 0.59511 0.0
H996 H 0.47127 0.46179 0.59825 0.0
H997 H 0.52175 0.43602 0.57433 0.0
C998 C 0.5302 0.37033 0.55962 0.0
C999 C 0.53077 0.33546 0.55382 0.0
C1000 C 0.50079 0.38601 0.57155 0.0
C1001 C 0.50125 0.31688 0.55875 0.0
C1002 C 0.47215 0.33223 0.57026 0.0
C1003 C 0.44296 0.38155 0.59064 0.0
C1004 C 0.4425 0.41579 0.59884 0.0
C1005 C 0.47178 0.36658 0.57727 0.0
C1006 C 0.471 0.43531 0.59212 0.0
C1007 C 0.49991 0.42055 0.57862 0.0
H1008 H 0.08678 0.71061 0.70083 0.0
H1009 H 0.17413 0.76806 0.67448 0.0
H1010 H 0.14758 0.81917 0.69614 0.0
H1011 H 0.09782 0.84806 0.71982 0.0
H1012 H 1.01023 0.78961 0.74371 0.0
H1013 H 0.03873 0.73849 0.72631 0.0
C1014 C 0.10026 0.7342 0.70035 0.0
C1015 C 0.13236 0.73553 0.68612 0.0
C1016 C 0.08469 0.76343 0.71232 0.0
C1017 C 0.14924 0.76645 0.68509 0.0
C1018 C 0.1341 0.79565 0.69753 0.0
C1019 C 0.08521 0.82406 0.72154 0.0
C1020 C 0.05189 0.82271 0.73281 0.0
C1021 C 0.10158 0.79456 0.71079 0.0
C1022 C 0.03576 0.79144 0.73475 0.0
C1023 C 0.05203 0.76212 0.72486 0.0
H1024 H 0.47833 0.81042 0.97736 0.0
H1025 H 0.41231 0.89635 0.98209 0.0
H1026 H 0.45747 0.93255 0.96201 0.0
H1027 H 0.5155 0.93941 0.94141 0.0
H1028 H 0.58085 0.85295 0.93736 0.0
H1029 H 0.53623 0.81749 0.95909 0.0
C1030 C 0.47371 0.83708 0.97409 0.0
C1031 C 0.4418 0.85053 0.98098 0.0
C1032 C 0.49975 0.85771 0.96264 0.0
C1033 C 0.43655 0.88524 0.9769 0.0
C1034 C 0.46237 0.90597 0.96535 0.0
C1035 C 0.51991 0.9128 0.94527 0.0
C1036 C 0.55155 0.8989 0.93775 0.0
C1037 C 0.49402 0.89242 0.95782 0.0
C1038 C 0.55696 0.86443 0.94329 0.0
C1039 C 0.53136 0.84405 0.95554 0.0
H1040 H 0.96533 0.12472 0.43185 0.0
H1041 H 0.90037 0.21157 0.43307 0.0
H1042 H 0.94457 0.2448 0.4589 0.0
H1043 H 1.00198 0.24998 0.47896 0.0
H1044 H 0.06782 0.16379 0.47852 0.0
H1045 H 0.02289 0.12943 0.45473 0.0
C1046 C 0.96094 0.15093 0.43779 0.0
C1047 C 0.92961 0.16567 0.43051 0.0
C1048 C 0.98656 0.16998 0.45273 0.0
C1049 C 0.9241 0.19953 0.43872 0.0
C1050 C 0.94942 0.21861 0.45333 0.0
C1051 C 1.0066 0.22364 0.47378 0.0
C1052 C 0.03837 0.20958 0.4802 0.0
C1053 C 0.98079 0.20418 0.46016 0.0
C1054 C 0.04365 0.17529 0.47374 0.0
C1055 C 0.01799 0.15567 0.46003 0.0
loop_
_geom_bond_atom_site_label_1
_geom_bond_atom_site_label_2
_geom_bond_distance
_geom_bond_site_symmetry_2
_ccdc_geom_bond_type
Tb0 C9 2.764 . S
Tb0 O10 2.325 . S
Tb0 O13 2.303 . S
Tb0 O17 2.322 . S
Tb0 O18 2.349 . S
Tb0 O21 2.415 . S
Tb0 O22 2.399 . S
Tb1 O11 2.322 . S
Tb1 O12 2.349 . S
Tb1 O14 2.415 . S
Tb1 O15 2.399 . S
Tb1 O16 2.325 . S
Tb1 O19 2.303 . S
Tb1 C30 2.764 . S
C2 O18 1.261 . S
C2 O19 1.257 . S
C3 C6 1.358 . S
C3 C7 1.332 . S
C3 C9 1.504 . S
C4 C5 1.373 . S
C4 C8 1.308 . S
C5 C4 1.373 . S
C5 C6 1.429 . S
C5 H32 0.932 . S
C6 C3 1.358 . S
C6 C5 1.429 . S
C6 H33 0.930 . S
C7 C3 1.332 . S
C7 C8 1.394 . S
C7 H34 0.932 . S
C8 C4 1.308 . S
C8 C7 1.394 . S
C8 H35 0.929 . S
C9 Tb0 2.764 . S
C9 C3 1.504 . S
C9 O21 1.239 . S
C9 O22 1.263 . S
O10 Tb0 2.325 . S
O10 C20 1.236 . S
O11 Tb1 2.322 . S
O11 C20 1.257 . S
O12 Tb1 2.349 . S
O12 C23 1.261 . S
O13 Tb0 2.303 . S
O13 C23 1.257 . S
O14 Tb1 2.415 . S
O14 C30 1.239 . S
O15 Tb1 2.399 . S
O15 C30 1.263 . S
O16 Tb1 2.325 . S
O16 C31 1.236 . S
O17 Tb0 2.322 . S
O17 C31 1.257 . S
O18 Tb0 2.349 . S
O18 C2 1.261 . S
O19 Tb1 2.303 . S
O19 C2 1.257 . S
C20 O10 1.236 . S
C20 O11 1.257 . S
O21 Tb0 2.415 . S
O21 C9 1.239 . S
O22 Tb0 2.399 . S
O22 C9 1.263 . S
C23 O12 1.261 . S
C23 O13 1.257 . S
C24 C27 1.358 . S
C24 C28 1.332 . S
C24 C30 1.504 . S
C25 C26 1.373 . S
C25 C29 1.308 . S
C26 C25 1.373 . S
C26 C27 1.429 . S
C26 H36 0.932 . S
C27 C24 1.358 . S
C27 C26 1.429 . S
C27 H37 0.930 . S
C28 C24 1.332 . S
C28 C29 1.394 . S
C28 H38 0.932 . S
C29 C25 1.308 . S
C29 C28 1.394 . S
C29 H39 0.929 . S
C30 Tb1 2.764 . S
C30 O14 1.239 . S
C30 O15 1.263 . S
C30 C24 1.504 . S
C31 O16 1.236 . S
C31 O17 1.257 . S
H32 C5 0.932 . S
H33 C6 0.930 . S
H34 C7 0.932 . S
H35 C8 0.929 . S
H36 C26 0.932 . S
H37 C27 0.930 . S
H38 C28 0.932 . S
H39 C29 0.929 . S
Tb40 C49 2.764 . S
Tb40 O50 2.325 . S
Tb40 O53 2.303 . S
Tb40 O57 2.322 . S
Tb40 O58 2.349 . S
Tb40 O61 2.415 . S
Tb40 O62 2.399 . S
Tb41 O51 2.322 . S
Tb41 O52 2.349 1_655 S
Tb41 O54 2.415 . S
Tb41 O55 2.399 . S
Tb41 O56 2.325 1_655 S
Tb41 O59 2.303 . S
Tb41 C70 2.764 . S
C42 O58 1.261 1_655 S
C42 O59 1.257 . S
C43 C46 1.358 . S
C43 C47 1.332 . S
C43 C49 1.504 . S
C44 C45 1.373 . S
C44 C48 1.308 . S
C45 C44 1.373 . S
C45 C46 1.429 . S
C45 H72 0.932 . S
C46 C43 1.358 . S
C46 C45 1.429 . S
C46 H73 0.930 . S
C47 C43 1.332 . S
C47 C48 1.394 . S
C47 H74 0.932 . S
C48 C44 1.308 . S
C48 C47 1.394 . S
C48 H75 0.929 . S
C49 Tb40 2.764 . S
C49 C43 1.504 . S
C49 O61 1.239 . S
C49 O62 1.263 . S
O50 Tb40 2.325 . S
O50 C60 1.236 1_455 S
O51 Tb41 2.322 . S
O51 C60 1.257 . S
O52 Tb41 2.349 1_455 S
O52 C63 1.261 . S
O53 Tb40 2.303 . S
O53 C63 1.257 . S
O54 Tb41 2.415 . S
O54 C70 1.239 . S
O55 Tb41 2.399 . S
O55 C70 1.263 . S
O56 Tb41 2.325 1_455 S
O56 C71 1.236 . S
O57 Tb40 2.322 . S
O57 C71 1.257 . S
O58 Tb40 2.349 . S
O58 C42 1.261 1_455 S
O59 Tb41 2.303 . S
O59 C42 1.257 . S
C60 O50 1.236 1_655 S
C60 O51 1.257 . S
O61 Tb40 2.415 . S
O61 C49 1.239 . S
O62 Tb40 2.399 . S
O62 C49 1.263 . S
C63 O52 1.261 . S
C63 O53 1.257 . S
C64 C67 1.358 . S
C64 C68 1.332 . S
C64 C70 1.504 . S
C65 C66 1.373 . S
C65 C69 1.308 . S
C66 C65 1.373 . S
C66 C67 1.429 . S
C66 H76 0.932 . S
C67 C64 1.358 . S
C67 C66 1.429 . S
C67 H77 0.930 . S
C68 C64 1.332 . S
C68 C69 1.394 . S
C68 H78 0.932 . S
C69 C65 1.308 . S
C69 C68 1.394 . S
C69 H79 0.929 . S
C70 Tb41 2.764 . S
C70 O54 1.239 . S
C70 O55 1.263 . S
C70 C64 1.504 . S
C71 O56 1.236 . S
C71 O57 1.257 . S
H72 C45 0.932 . S
H73 C46 0.930 . S
H74 C47 0.932 . S
H75 C48 0.929 . S
H76 C66 0.932 . S
H77 C67 0.930 . S
H78 C68 0.932 . S
H79 C69 0.929 . S
Tb80 C89 2.764 . S
Tb80 O90 2.325 . S
Tb80 O93 2.303 . S
Tb80 O97 2.322 . S
Tb80 O98 2.349 1_556 S
Tb80 O101 2.415 . S
Tb80 O102 2.399 . S
Tb81 O91 2.322 . S
Tb81 O92 2.349 1_554 S
Tb81 O94 2.415 . S
Tb81 O95 2.399 . S
Tb81 O96 2.325 . S
Tb81 O99 2.303 . S
Tb81 C110 2.764 . S
C82 O98 1.261 . S
C82 O99 1.257 . S
C83 C86 1.358 . S
C83 C87 1.332 . S
C83 C89 1.504 . S
C84 C85 1.373 . S
C84 C88 1.308 . S
C85 C84 1.373 . S
C85 C86 1.429 . S
C85 H112 0.932 . S
C86 C83 1.358 . S
C86 C85 1.429 . S
C86 H113 0.930 . S
C87 C83 1.332 . S
C87 C88 1.394 . S
C87 H114 0.932 . S
C88 C84 1.308 . S
C88 C87 1.394 . S
C88 H115 0.929 . S
C89 Tb80 2.764 . S
C89 C83 1.504 . S
C89 O101 1.239 . S
C89 O102 1.263 . S
O90 Tb80 2.325 . S
O90 C100 1.236 1_556 S
O91 Tb81 2.322 . S
O91 C100 1.257 . S
O92 Tb81 2.349 1_556 S
O92 C103 1.261 . S
O93 Tb80 2.303 . S
O93 C103 1.257 . S
O94 Tb81 2.415 . S
O94 C110 1.239 . S
O95 Tb81 2.399 . S
O95 C110 1.263 . S
O96 Tb81 2.325 . S
O96 C111 1.236 1_554 S
O97 Tb80 2.322 . S
O97 C111 1.257 . S
O98 Tb80 2.349 1_554 S
O98 C82 1.261 . S
O99 Tb81 2.303 . S
O99 C82 1.257 . S
C100 O90 1.236 1_554 S
C100 O91 1.257 . S
O101 Tb80 2.415 . S
O101 C89 1.239 . S
O102 Tb80 2.399 . S
O102 C89 1.263 . S
C103 O92 1.261 . S
C103 O93 1.257 . S
C104 C107 1.358 . S
C104 C108 1.332 . S
C104 C110 1.504 . S
C105 C106 1.373 . S
C105 C109 1.308 . S
C106 C105 1.373 . S
C106 C107 1.429 . S
C106 H116 0.932 . S
C107 C104 1.358 . S
C107 C106 1.429 . S
C107 H117 0.930 . S
C108 C104 1.332 . S
C108 C109 1.394 . S
C108 H118 0.932 . S
C109 C105 1.308 . S
C109 C108 1.394 . S
C109 H119 0.929 . S
C110 Tb81 2.764 . S
C110 O94 1.239 . S
C110 O95 1.263 . S
C110 C104 1.504 . S
C111 O96 1.236 1_556 S
C111 O97 1.257 . S
H112 C85 0.932 . S
H113 C86 0.930 . S
H114 C87 0.932 . S
H115 C88 0.929 . S
H116 C106 0.932 . S
H117 C107 0.930 . S
H118 C108 0.932 . S
H119 C109 0.929 . S
Tb120 C129 2.764 . S
Tb120 O130 2.325 . S
Tb120 O133 2.303 . S
Tb120 O137 2.322 . S
Tb120 O138 2.349 . S
Tb120 O141 2.415 . S
Tb120 O142 2.399 . S
Tb121 O131 2.322 . S
Tb121 O132 2.349 . S
Tb121 O134 2.415 . S
Tb121 O135 2.399 . S
Tb121 O136 2.325 . S
Tb121 O139 2.303 . S
Tb121 C150 2.764 . S
C122 O138 1.261 . S
C122 O139 1.257 . S
C123 C126 1.358 . S
C123 C127 1.332 . S
C123 C129 1.504 . S
C124 C125 1.373 . S
C124 C128 1.308 . S
C125 C124 1.373 . S
C125 C126 1.429 . S
C125 H152 0.932 . S
C126 C123 1.358 . S
C126 C125 1.429 . S
C126 H153 0.930 . S
C127 C123 1.332 . S
C127 C128 1.394 . S
C127 H154 0.932 . S
C128 C124 1.308 . S
C128 C127 1.394 . S
C128 H155 0.929 . S
C129 Tb120 2.764 . S
C129 C123 1.504 . S
C129 O141 1.239 . S
C129 O142 1.263 . S
O130 Tb120 2.325 . S
O130 C140 1.236 . S
O131 Tb121 2.322 . S
O131 C140 1.257 . S
O132 Tb121 2.349 . S
O132 C143 1.261 . S
O133 Tb120 2.303 . S
O133 C143 1.257 . S
O134 Tb121 2.415 . S
O134 C150 1.239 . S
O135 Tb121 2.399 . S
O135 C150 1.263 . S
O136 Tb121 2.325 . S
O136 C151 1.236 . S
O137 Tb120 2.322 . S
O137 C151 1.257 . S
O138 Tb120 2.349 . S
O138 C122 1.261 . S
O139 Tb121 2.303 . S
O139 C122 1.257 . S
C140 O130 1.236 . S
C140 O131 1.257 . S
O141 Tb120 2.415 . S
O141 C129 1.239 . S
O142 Tb120 2.399 . S
O142 C129 1.263 . S
C143 O132 1.261 . S
C143 O133 1.257 . S
C144 C147 1.358 . S
C144 C148 1.332 . S
C144 C150 1.504 . S
C145 C146 1.373 . S
C145 C149 1.308 . S
C146 C145 1.373 . S
C146 C147 1.429 . S
C146 H156 0.932 . S
C147 C144 1.358 . S
C147 C146 1.429 . S
C147 H157 0.930 . S
C148 C144 1.332 . S
C148 C149 1.394 . S
C148 H158 0.932 . S
C149 C145 1.308 . S
C149 C148 1.394 . S
C149 H159 0.929 . S
C150 Tb121 2.764 . S
C150 O134 1.239 . S
C150 O135 1.263 . S
C150 C144 1.504 . S
C151 O136 1.236 . S
C151 O137 1.257 . S
H152 C125 0.932 . S
H153 C126 0.930 . S
H154 C127 0.932 . S
H155 C128 0.929 . S
H156 C146 0.932 . S
H157 C147 0.930 . S
H158 C148 0.932 . S
H159 C149 0.929 . S
Tb160 C169 2.764 . S
Tb160 O170 2.325 . S
Tb160 O173 2.303 . S
Tb160 O177 2.322 . S
Tb160 O178 2.349 . S
Tb160 O181 2.415 . S
Tb160 O182 2.399 . S
Tb161 O171 2.322 . S
Tb161 O172 2.349 . S
Tb161 O174 2.415 . S
Tb161 O175 2.399 . S
Tb161 O176 2.325 . S
Tb161 O179 2.303 . S
Tb161 C190 2.764 . S
C162 O178 1.261 . S
C162 O179 1.257 . S
C163 C166 1.358 . S
C163 C167 1.332 . S
C163 C169 1.504 . S
C164 C165 1.373 . S
C164 C168 1.308 . S
C165 C164 1.373 . S
C165 C166 1.429 . S
C165 H192 0.932 . S
C166 C163 1.358 . S
C166 C165 1.429 . S
C166 H193 0.930 . S
C167 C163 1.332 . S
C167 C168 1.394 . S
C167 H194 0.932 . S
C168 C164 1.308 . S
C168 C167 1.394 . S
C168 H195 0.929 . S
C169 Tb160 2.764 . S
C169 C163 1.504 . S
C169 O181 1.239 . S
C169 O182 1.263 . S
O170 Tb160 2.325 . S
O170 C180 1.236 . S
O171 Tb161 2.322 . S
O171 C180 1.257 . S
O172 Tb161 2.349 . S
O172 C183 1.261 . S
O173 Tb160 2.303 . S
O173 C183 1.257 . S
O174 Tb161 2.415 . S
O174 C190 1.239 . S
O175 Tb161 2.399 . S
O175 C190 1.263 . S
O176 Tb161 2.325 . S
O176 C191 1.236 . S
O177 Tb160 2.322 . S
O177 C191 1.257 . S
O178 Tb160 2.349 . S
O178 C162 1.261 . S
O179 Tb161 2.303 . S
O179 C162 1.257 . S
C180 O170 1.236 . S
C180 O171 1.257 . S
O181 Tb160 2.415 . S
O181 C169 1.239 . S
O182 Tb160 2.399 . S
O182 C169 1.263 . S
C183 O172 1.261 . S
C183 O173 1.257 . S
C184 C187 1.358 . S
C184 C188 1.332 . S
C184 C190 1.504 . S
C185 C186 1.373 . S
C185 C189 1.308 . S
C186 C185 1.373 . S
C186 C187 1.429 . S
C186 H196 0.932 . S
C187 C184 1.358 . S
C187 C186 1.429 . S
C187 H197 0.930 . S
C188 C184 1.332 . S
C188 C189 1.394 . S
C188 H198 0.932 . S
C189 C185 1.308 . S
C189 C188 1.394 . S
C189 H199 0.929 . S
C190 Tb161 2.764 . S
C190 O174 1.239 . S
C190 O175 1.263 . S
C190 C184 1.504 . S
C191 O176 1.236 . S
C191 O177 1.257 . S
H192 C165 0.932 . S
H193 C166 0.930 . S
H194 C167 0.932 . S
H195 C168 0.929 . S
H196 C186 0.932 . S
H197 C187 0.930 . S
H198 C188 0.932 . S
H199 C189 0.929 . S
Tb200 C209 2.764 . S
Tb200 O210 2.325 . S
Tb200 O213 2.303 1_455 S
Tb200 O217 2.322 1_455 S
Tb200 O218 2.349 . S
Tb200 O221 2.415 . S
Tb200 O222 2.399 . S
Tb201 O211 2.322 . S
Tb201 O212 2.349 . S
Tb201 O214 2.415 . S
Tb201 O215 2.399 . S
Tb201 O216 2.325 . S
Tb201 O219 2.303 . S
Tb201 C230 2.764 . S
C202 O218 1.261 . S
C202 O219 1.257 1_455 S
C203 C206 1.358 . S
C203 C207 1.332 . S
C203 C209 1.504 . S
C204 C205 1.373 . S
C204 C208 1.308 . S
C205 C204 1.373 . S
C205 C206 1.429 . S
C205 H232 0.932 . S
C206 C203 1.358 . S
C206 C205 1.429 . S
C206 H233 0.930 . S
C207 C203 1.332 . S
C207 C208 1.394 . S
C207 H234 0.932 . S
C208 C204 1.308 . S
C208 C207 1.394 . S
C208 H235 0.929 . S
C209 Tb200 2.764 . S
C209 C203 1.504 . S
C209 O221 1.239 . S
C209 O222 1.263 . S
O210 Tb200 2.325 . S
O210 C220 1.236 . S
O211 Tb201 2.322 . S
O211 C220 1.257 1_655 S
O212 Tb201 2.349 . S
O212 C223 1.261 . S
O213 Tb200 2.303 1_655 S
O213 C223 1.257 . S
O214 Tb201 2.415 . S
O214 C230 1.239 . S
O215 Tb201 2.399 . S
O215 C230 1.263 . S
O216 Tb201 2.325 . S
O216 C231 1.236 . S
O217 Tb200 2.322 1_655 S
O217 C231 1.257 . S
O218 Tb200 2.349 . S
O218 C202 1.261 . S
O219 Tb201 2.303 . S
O219 C202 1.257 1_655 S
C220 O210 1.236 . S
C220 O211 1.257 1_455 S
O221 Tb200 2.415 . S
O221 C209 1.239 . S
O222 Tb200 2.399 . S
O222 C209 1.263 . S
C223 O212 1.261 . S
C223 O213 1.257 . S
C224 C227 1.358 . S
C224 C228 1.332 . S
C224 C230 1.504 . S
C225 C226 1.373 . S
C225 C229 1.308 . S
C226 C225 1.373 . S
C226 C227 1.429 . S
C226 H236 0.932 . S
C227 C224 1.358 . S
C227 C226 1.429 . S
C227 H237 0.930 . S
C228 C224 1.332 . S
C228 C229 1.394 . S
C228 H238 0.932 . S
C229 C225 1.308 . S
C229 C228 1.394 . S
C229 H239 0.929 . S
C230 Tb201 2.764 . S
C230 O214 1.239 . S
C230 O215 1.263 . S
C230 C224 1.504 . S
C231 O216 1.236 . S
C231 O217 1.257 . S
H232 C205 0.932 . S
H233 C206 0.930 . S
H234 C207 0.932 . S
H235 C208 0.929 . S
H236 C226 0.932 . S
H237 C227 0.930 . S
H238 C228 0.932 . S
H239 C229 0.929 . S
Tb240 C249 2.764 . S
Tb240 O250 2.325 . S
Tb240 O253 2.303 1_556 S
Tb240 O257 2.322 1_556 S
Tb240 O258 2.349 . S
Tb240 O261 2.415 . S
Tb240 O262 2.399 . S
Tb241 O251 2.322 1_554 S
Tb241 O252 2.349 . S
Tb241 O254 2.415 . S
Tb241 O255 2.399 . S
Tb241 O256 2.325 . S
Tb241 O259 2.303 1_554 S
Tb241 C270 2.764 . S
C242 O258 1.261 . S
C242 O259 1.257 . S
C243 C246 1.358 . S
C243 C247 1.332 . S
C243 C249 1.504 . S
C244 C245 1.373 . S
C244 C248 1.308 . S
C245 C244 1.373 . S
C245 C246 1.429 . S
C245 H272 0.932 . S
C246 C243 1.358 . S
C246 C245 1.429 . S
C246 H273 0.930 . S
C247 C243 1.332 . S
C247 C248 1.394 . S
C247 H274 0.932 . S
C248 C244 1.308 . S
C248 C247 1.394 . S
C248 H275 0.929 . S
C249 Tb240 2.764 . S
C249 C243 1.504 . S
C249 O261 1.239 . S
C249 O262 1.263 . S
O250 Tb240 2.325 . S
O250 C260 1.236 . S
O251 Tb241 2.322 1_556 S
O251 C260 1.257 . S
O252 Tb241 2.349 . S
O252 C263 1.261 . S
O253 Tb240 2.303 1_554 S
O253 C263 1.257 . S
O254 Tb241 2.415 . S
O254 C270 1.239 . S
O255 Tb241 2.399 . S
O255 C270 1.263 . S
O256 Tb241 2.325 . S
O256 C271 1.236 . S
O257 Tb240 2.322 1_554 S
O257 C271 1.257 . S
O258 Tb240 2.349 . S
O258 C242 1.261 . S
O259 Tb241 2.303 1_556 S
O259 C242 1.257 . S
C260 O250 1.236 . S
C260 O251 1.257 . S
O261 Tb240 2.415 . S
O261 C249 1.239 . S
O262 Tb240 2.399 . S
O262 C249 1.263 . S
C263 O252 1.261 . S
C263 O253 1.257 . S
C264 C267 1.358 . S
C264 C268 1.332 . S
C264 C270 1.504 . S
C265 C266 1.373 . S
C265 C269 1.308 . S
C266 C265 1.373 . S
C266 C267 1.429 . S
C266 H276 0.932 . S
C267 C264 1.358 . S
C267 C266 1.429 . S
C267 H277 0.930 . S
C268 C264 1.332 . S
C268 C269 1.394 . S
C268 H278 0.932 . S
C269 C265 1.308 . S
C269 C268 1.394 . S
C269 H279 0.929 . S
C270 Tb241 2.764 . S
C270 O254 1.239 . S
C270 O255 1.263 . S
C270 C264 1.504 . S
C271 O256 1.236 . S
C271 O257 1.257 . S
H272 C245 0.932 . S
H273 C246 0.930 . S
H274 C247 0.932 . S
H275 C248 0.929 . S
H276 C266 0.932 . S
H277 C267 0.930 . S
H278 C268 0.932 . S
H279 C269 0.929 . S
Tb280 C289 2.764 . S
Tb280 O290 2.325 . S
Tb280 O293 2.303 . S
Tb280 O297 2.322 . S
Tb280 O298 2.349 . S
Tb280 O301 2.415 . S
Tb280 O302 2.399 . S
Tb281 O291 2.322 . S
Tb281 O292 2.349 . S
Tb281 O294 2.415 . S
Tb281 O295 2.399 . S
Tb281 O296 2.325 . S
Tb281 O299 2.303 . S
Tb281 C310 2.764 . S
C282 O298 1.261 . S
C282 O299 1.257 . S
C283 C286 1.358 . S
C283 C287 1.332 . S
C283 C289 1.504 . S
C284 C285 1.373 . S
C284 C288 1.308 . S
C285 C284 1.373 . S
C285 C286 1.429 . S
C285 H312 0.932 . S
C286 C283 1.358 . S
C286 C285 1.429 . S
C286 H313 0.930 . S
C287 C283 1.332 . S
C287 C288 1.394 . S
C287 H314 0.932 . S
C288 C284 1.308 . S
C288 C287 1.394 . S
C288 H315 0.929 . S
C289 Tb280 2.764 . S
C289 C283 1.504 . S
C289 O301 1.239 . S
C289 O302 1.263 . S
O290 Tb280 2.325 . S
O290 C300 1.236 . S
O291 Tb281 2.322 . S
O291 C300 1.257 . S
O292 Tb281 2.349 . S
O292 C303 1.261 . S
O293 Tb280 2.303 . S
O293 C303 1.257 . S
O294 Tb281 2.415 . S
O294 C310 1.239 . S
O295 Tb281 2.399 . S
O295 C310 1.263 . S
O296 Tb281 2.325 . S
O296 C311 1.236 . S
O297 Tb280 2.322 . S
O297 C311 1.257 . S
O298 Tb280 2.349 . S
O298 C282 1.261 . S
O299 Tb281 2.303 . S
O299 C282 1.257 . S
C300 O290 1.236 . S
C300 O291 1.257 . S
O301 Tb280 2.415 . S
O301 C289 1.239 . S
O302 Tb280 2.399 . S
O302 C289 1.263 . S
C303 O292 1.261 . S
C303 O293 1.257 . S
C304 C307 1.358 . S
C304 C308 1.332 . S
C304 C310 1.504 . S
C305 C306 1.373 . S
C305 C309 1.308 . S
C306 C305 1.373 . S
C306 C307 1.429 . S
C306 H316 0.932 . S
C307 C304 1.358 . S
C307 C306 1.429 . S
C307 H317 0.930 . S
C308 C304 1.332 . S
C308 C309 1.394 . S
C308 H318 0.932 . S
C309 C305 1.308 . S
C309 C308 1.394 . S
C309 H319 0.929 . S
C310 Tb281 2.764 . S
C310 O294 1.239 . S
C310 O295 1.263 . S
C310 C304 1.504 . S
C311 O296 1.236 . S
C311 O297 1.257 . S
H312 C285 0.932 . S
H313 C286 0.930 . S
H314 C287 0.932 . S
H315 C288 0.929 . S
H316 C306 0.932 . S
H317 C307 0.930 . S
H318 C308 0.932 . S
H319 C309 0.929 . S
Tb320 C329 2.764 . S
Tb320 O330 2.325 . S
Tb320 O333 2.303 . S
Tb320 O337 2.322 . S
Tb320 O338 2.349 . S
Tb320 O341 2.415 . S
Tb320 O342 2.399 . S
Tb321 O331 2.322 . S
Tb321 O332 2.349 . S
Tb321 O334 2.415 . S
Tb321 O335 2.399 . S
Tb321 O336 2.325 . S
Tb321 O339 2.303 . S
Tb321 C350 2.764 . S
C322 O338 1.261 . S
C322 O339 1.257 . S
C323 C326 1.358 . S
C323 C327 1.332 . S
C323 C329 1.504 . S
C324 C325 1.373 . S
C324 C328 1.308 . S
C325 C324 1.373 . S
C325 C326 1.429 . S
C325 H352 0.932 . S
C326 C323 1.358 . S
C326 C325 1.429 . S
C326 H353 0.930 . S
C327 C323 1.332 . S
C327 C328 1.394 . S
C327 H354 0.932 . S
C328 C324 1.308 . S
C328 C327 1.394 . S
C328 H355 0.929 . S
C329 Tb320 2.764 . S
C329 C323 1.504 . S
C329 O341 1.239 . S
C329 O342 1.263 . S
O330 Tb320 2.325 . S
O330 C340 1.236 . S
O331 Tb321 2.322 . S
O331 C340 1.257 . S
O332 Tb321 2.349 . S
O332 C343 1.261 . S
O333 Tb320 2.303 . S
O333 C343 1.257 . S
O334 Tb321 2.415 . S
O334 C350 1.239 . S
O335 Tb321 2.399 . S
O335 C350 1.263 . S
O336 Tb321 2.325 . S
O336 C351 1.236 . S
O337 Tb320 2.322 . S
O337 C351 1.257 . S
O338 Tb320 2.349 . S
O338 C322 1.261 . S
O339 Tb321 2.303 . S
O339 C322 1.257 . S
C340 O330 1.236 . S
C340 O331 1.257 . S
O341 Tb320 2.415 . S
O341 C329 1.239 . S
O342 Tb320 2.399 . S
O342 C329 1.263 . S
C343 O332 1.261 . S
C343 O333 1.257 . S
C344 C347 1.358 . S
C344 C348 1.332 . S
C344 C350 1.504 . S
C345 C346 1.373 . S
C345 C349 1.308 . S
C346 C345 1.373 . S
C346 C347 1.429 . S
C346 H356 0.932 . S
C347 C344 1.358 . S
C347 C346 1.429 . S
C347 H357 0.930 . S
C348 C344 1.332 . S
C348 C349 1.394 . S
C348 H358 0.932 . S
C349 C345 1.308 . S
C349 C348 1.394 . S
C349 H359 0.929 . S
C350 Tb321 2.764 . S
C350 O334 1.239 . S
C350 O335 1.263 . S
C350 C344 1.504 . S
C351 O336 1.236 . S
C351 O337 1.257 . S
H352 C325 0.932 . S
H353 C326 0.930 . S
H354 C327 0.932 . S
H355 C328 0.929 . S
H356 C346 0.932 . S
H357 C347 0.930 . S
H358 C348 0.932 . S
H359 C349 0.929 . S
Tb360 C369 2.764 . S
Tb360 O370 2.325 . S
Tb360 O373 2.303 . S
Tb360 O377 2.322 . S
Tb360 O378 2.349 . S
Tb360 O381 2.415 . S
Tb360 O382 2.399 . S
Tb361 O371 2.322 . S
Tb361 O372 2.349 1_565 S
Tb361 O374 2.415 . S
Tb361 O375 2.399 . S
Tb361 O376 2.325 1_565 S
Tb361 O379 2.303 . S
Tb361 C390 2.764 . S
C362 O378 1.261 1_565 S
C362 O379 1.257 . S
C363 C366 1.358 . S
C363 C367 1.332 . S
C363 C369 1.504 . S
C364 C365 1.373 . S
C364 C368 1.308 . S
C365 C364 1.373 . S
C365 C366 1.429 . S
C365 H392 0.932 . S
C366 C363 1.358 . S
C366 C365 1.429 . S
C366 H393 0.930 . S
C367 C363 1.332 . S
C367 C368 1.394 . S
C367 H394 0.932 . S
C368 C364 1.308 . S
C368 C367 1.394 . S
C368 H395 0.929 . S
C369 Tb360 2.764 . S
C369 C363 1.504 . S
C369 O381 1.239 . S
C369 O382 1.263 . S
O370 Tb360 2.325 . S
O370 C380 1.236 . S
O371 Tb361 2.322 . S
O371 C380 1.257 1_565 S
O372 Tb361 2.349 1_545 S
O372 C383 1.261 . S
O373 Tb360 2.303 . S
O373 C383 1.257 . S
O374 Tb361 2.415 . S
O374 C390 1.239 . S
O375 Tb361 2.399 . S
O375 C390 1.263 . S
O376 Tb361 2.325 1_545 S
O376 C391 1.236 . S
O377 Tb360 2.322 . S
O377 C391 1.257 . S
O378 Tb360 2.349 . S
O378 C362 1.261 1_545 S
O379 Tb361 2.303 . S
O379 C362 1.257 . S
C380 O370 1.236 . S
C380 O371 1.257 1_545 S
O381 Tb360 2.415 . S
O381 C369 1.239 . S
O382 Tb360 2.399 . S
O382 C369 1.263 . S
C383 O372 1.261 . S
C383 O373 1.257 . S
C384 C387 1.358 . S
C384 C388 1.332 . S
C384 C390 1.504 . S
C385 C386 1.373 . S
C385 C389 1.308 . S
C386 C385 1.373 . S
C386 C387 1.429 . S
C386 H396 0.932 . S
C387 C384 1.358 . S
C387 C386 1.429 . S
C387 H397 0.930 . S
C388 C384 1.332 . S
C388 C389 1.394 . S
C388 H398 0.932 . S
C389 C385 1.308 . S
C389 C388 1.394 . S
C389 H399 0.929 . S
C390 Tb361 2.764 . S
C390 O374 1.239 . S
C390 O375 1.263 . S
C390 C384 1.504 . S
C391 O376 1.236 . S
C391 O377 1.257 . S
H392 C365 0.932 . S
H393 C366 0.930 . S
H394 C367 0.932 . S
H395 C368 0.929 . S
H396 C386 0.932 . S
H397 C387 0.930 . S
H398 C388 0.932 . S
H399 C389 0.929 . S
Tb400 C409 2.764 . S
Tb400 O410 2.325 . S
Tb400 O413 2.303 . S
Tb400 O417 2.322 . S
Tb400 O418 2.349 . S
Tb400 O421 2.415 . S
Tb400 O422 2.399 . S
Tb401 O411 2.322 . S
Tb401 O412 2.349 1_545 S
Tb401 O414 2.415 . S
Tb401 O415 2.399 . S
Tb401 O416 2.325 1_545 S
Tb401 O419 2.303 . S
Tb401 C430 2.764 . S
C402 O418 1.261 1_545 S
C402 O419 1.257 . S
C403 C406 1.358 . S
C403 C407 1.332 . S
C403 C409 1.504 . S
C404 C405 1.373 . S
C404 C408 1.308 . S
C405 C404 1.373 . S
C405 C406 1.429 . S
C405 H432 0.932 . S
C406 C403 1.358 . S
C406 C405 1.429 . S
C406 H433 0.930 . S
C407 C403 1.332 . S
C407 C408 1.394 . S
C407 H434 0.932 . S
C408 C404 1.308 . S
C408 C407 1.394 . S
C408 H435 0.929 . S
C409 Tb400 2.764 . S
C409 C403 1.504 . S
C409 O421 1.239 . S
C409 O422 1.263 . S
O410 Tb400 2.325 . S
O410 C420 1.236 1_565 S
O411 Tb401 2.322 . S
O411 C420 1.257 . S
O412 Tb401 2.349 1_565 S
O412 C423 1.261 . S
O413 Tb400 2.303 . S
O413 C423 1.257 . S
O414 Tb401 2.415 . S
O414 C430 1.239 . S
O415 Tb401 2.399 . S
O415 C430 1.263 . S
O416 Tb401 2.325 1_565 S
O416 C431 1.236 . S
O417 Tb400 2.322 . S
O417 C431 1.257 . S
O418 Tb400 2.349 . S
O418 C402 1.261 1_565 S
O419 Tb401 2.303 . S
O419 C402 1.257 . S
C420 O410 1.236 1_545 S
C420 O411 1.257 . S
O421 Tb400 2.415 . S
O421 C409 1.239 . S
O422 Tb400 2.399 . S
O422 C409 1.263 . S
C423 O412 1.261 . S
C423 O413 1.257 . S
C424 C427 1.358 . S
C424 C428 1.332 . S
C424 C430 1.504 . S
C425 C426 1.373 . S
C425 C429 1.308 . S
C426 C425 1.373 . S
C426 C427 1.429 . S
C426 H436 0.932 . S
C427 C424 1.358 . S
C427 C426 1.429 . S
C427 H437 0.930 . S
C428 C424 1.332 . S
C428 C429 1.394 . S
C428 H438 0.932 . S
C429 C425 1.308 . S
C429 C428 1.394 . S
C429 H439 0.929 . S
C430 Tb401 2.764 . S
C430 O414 1.239 . S
C430 O415 1.263 . S
C430 C424 1.504 . S
C431 O416 1.236 . S
C431 O417 1.257 . S
H432 C405 0.932 . S
H433 C406 0.930 . S
H434 C407 0.932 . S
H435 C408 0.929 . S
H436 C426 0.932 . S
H437 C427 0.930 . S
H438 C428 0.932 . S
H439 C429 0.929 . S
Tb440 C449 2.764 . S
Tb440 O450 2.325 . S
Tb440 O453 2.303 . S
Tb440 O457 2.322 . S
Tb440 O458 2.349 . S
Tb440 O461 2.415 . S
Tb440 O462 2.399 . S
Tb441 O451 2.322 . S
Tb441 O452 2.349 . S
Tb441 O454 2.415 . S
Tb441 O455 2.399 . S
Tb441 O456 2.325 . S
Tb441 O459 2.303 . S
Tb441 C470 2.764 . S
C442 O458 1.261 . S
C442 O459 1.257 . S
C443 C446 1.358 . S
C443 C447 1.332 . S
C443 C449 1.504 . S
C444 C445 1.373 . S
C444 C448 1.308 . S
C445 C444 1.373 . S
C445 C446 1.429 . S
C445 H472 0.932 . S
C446 C443 1.358 . S
C446 C445 1.429 . S
C446 H473 0.930 . S
C447 C443 1.332 . S
C447 C448 1.394 . S
C447 H474 0.932 . S
C448 C444 1.308 . S
C448 C447 1.394 . S
C448 H475 0.929 . S
C449 Tb440 2.764 . S
C449 C443 1.504 . S
C449 O461 1.239 . S
C449 O462 1.263 . S
O450 Tb440 2.325 . S
O450 C460 1.236 . S
O451 Tb441 2.322 . S
O451 C460 1.257 . S
O452 Tb441 2.349 . S
O452 C463 1.261 . S
O453 Tb440 2.303 . S
O453 C463 1.257 . S
O454 Tb441 2.415 . S
O454 C470 1.239 . S
O455 Tb441 2.399 . S
O455 C470 1.263 . S
O456 Tb441 2.325 . S
O456 C471 1.236 . S
O457 Tb440 2.322 . S
O457 C471 1.257 . S
O458 Tb440 2.349 . S
O458 C442 1.261 . S
O459 Tb441 2.303 . S
O459 C442 1.257 . S
C460 O450 1.236 . S
C460 O451 1.257 . S
O461 Tb440 2.415 . S
O461 C449 1.239 . S
O462 Tb440 2.399 . S
O462 C449 1.263 . S
C463 O452 1.261 . S
C463 O453 1.257 . S
C464 C467 1.358 . S
C464 C468 1.332 . S
C464 C470 1.504 . S
C465 C466 1.373 . S
C465 C469 1.308 . S
C466 C465 1.373 . S
C466 C467 1.429 . S
C466 H476 0.932 . S
C467 C464 1.358 . S
C467 C466 1.429 . S
C467 H477 0.930 . S
C468 C464 1.332 . S
C468 C469 1.394 . S
C468 H478 0.932 . S
C469 C465 1.308 . S
C469 C468 1.394 . S
C469 H479 0.929 . S
C470 Tb441 2.764 . S
C470 O454 1.239 . S
C470 O455 1.263 . S
C470 C464 1.504 . S
C471 O456 1.236 . S
C471 O457 1.257 . S
H472 C445 0.932 . S
H473 C446 0.930 . S
H474 C447 0.932 . S
H475 C448 0.929 . S
H476 C466 0.932 . S
H477 C467 0.930 . S
H478 C468 0.932 . S
H479 C469 0.929 . S
H480 C486 0.930 . S
H481 C489 0.930 . S
H482 C490 0.930 . S
H483 C491 0.930 . S
H484 C494 0.930 . S
H485 C495 0.930 . S
C486 H480 0.930 . S
C486 C487 1.355 . S
C486 C488 1.415 . S
C487 C486 1.355 . S
C487 C489 1.419 . S
C488 C486 1.415 . S
C488 C493 1.425 . S
C488 C495 1.409 . S
C489 H481 0.930 . S
C489 C487 1.419 . S
C489 C490 1.362 . S
C490 H482 0.930 . S
C490 C489 1.362 . S
C490 C493 1.409 . S
C491 H483 0.930 . S
C491 C492 1.355 . S
C491 C493 1.415 . S
C492 C491 1.355 . S
C492 C494 1.419 . S
C493 C488 1.425 . S
C493 C490 1.409 . S
C493 C491 1.415 . S
C494 H484 0.930 . S
C494 C492 1.419 . S
C494 C495 1.362 . S
C495 H485 0.930 . S
C495 C488 1.409 . S
C495 C494 1.362 . S
H496 C502 0.930 . S
H497 C505 0.930 . S
H498 C506 0.930 . S
H499 C507 0.930 1_545 S
H500 C510 0.930 . S
H501 C511 0.930 . S
C502 H496 0.930 . S
C502 C503 1.355 . S
C502 C504 1.415 . S
C503 C502 1.355 . S
C503 C505 1.419 1_565 S
C504 C502 1.415 . S
C504 C509 1.425 . S
C504 C511 1.409 . S
C505 H497 0.930 . S
C505 C503 1.419 1_545 S
C505 C506 1.362 . S
C506 H498 0.930 . S
C506 C505 1.362 . S
C506 C509 1.409 1_545 S
C507 H499 0.930 1_565 S
C507 C508 1.355 . S
C507 C509 1.415 . S
C508 C507 1.355 . S
C508 C510 1.419 . S
C509 C504 1.425 . S
C509 C506 1.409 1_565 S
C509 C507 1.415 . S
C510 H500 0.930 . S
C510 C508 1.419 . S
C510 C511 1.362 . S
C511 H501 0.930 . S
C511 C504 1.409 . S
C511 C510 1.362 . S
H512 C518 0.930 . S
H513 C521 0.930 . S
H514 C522 0.930 . S
H515 C523 0.930 . S
H516 C526 0.930 . S
H517 C527 0.930 . S
C518 H512 0.930 . S
C518 C519 1.355 . S
C518 C520 1.415 . S
C519 C518 1.355 . S
C519 C521 1.419 1_554 S
C520 C518 1.415 . S
C520 C525 1.425 . S
C520 C527 1.409 . S
C521 H513 0.930 . S
C521 C519 1.419 1_556 S
C521 C522 1.362 . S
C522 H514 0.930 . S
C522 C521 1.362 . S
C522 C525 1.409 1_556 S
C523 H515 0.930 . S
C523 C524 1.355 . S
C523 C525 1.415 . S
C524 C523 1.355 . S
C524 C526 1.419 . S
C525 C520 1.425 . S
C525 C522 1.409 1_554 S
C525 C523 1.415 . S
C526 H516 0.930 . S
C526 C524 1.419 . S
C526 C527 1.362 . S
C527 H517 0.930 . S
C527 C520 1.409 . S
C527 C526 1.362 . S
H528 C534 0.930 . S
H529 C537 0.930 . S
H530 C538 0.930 . S
H531 C539 0.930 . S
H532 C542 0.930 . S
H533 C543 0.930 . S
C534 H528 0.930 . S
C534 C535 1.355 . S
C534 C536 1.415 . S
C535 C534 1.355 . S
C535 C537 1.419 . S
C536 C534 1.415 . S
C536 C541 1.425 . S
C536 C543 1.409 1_545 S
C537 H529 0.930 . S
C537 C535 1.419 . S
C537 C538 1.362 . S
C538 H530 0.930 . S
C538 C537 1.362 . S
C538 C541 1.409 . S
C539 H531 0.930 . S
C539 C540 1.355 . S
C539 C541 1.415 . S
C540 C539 1.355 . S
C540 C542 1.419 1_545 S
C541 C536 1.425 . S
C541 C538 1.409 . S
C541 C539 1.415 . S
C542 H532 0.930 . S
C542 C540 1.419 1_565 S
C542 C543 1.362 . S
C543 H533 0.930 . S
C543 C536 1.409 1_565 S
C543 C542 1.362 . S
H544 C550 0.930 . S
H545 C553 0.930 . S
H546 C554 0.930 . S
H547 C555 0.930 . S
H548 C558 0.930 . S
H549 C559 0.930 . S
C550 H544 0.930 . S
C550 C551 1.355 . S
C550 C552 1.415 . S
C551 C550 1.355 . S
C551 C553 1.419 . S
C552 C550 1.415 . S
C552 C557 1.425 . S
C552 C559 1.409 . S
C553 H545 0.930 . S
C553 C551 1.419 . S
C553 C554 1.362 . S
C554 H546 0.930 . S
C554 C553 1.362 . S
C554 C557 1.409 . S
C555 H547 0.930 . S
C555 C556 1.355 . S
C555 C557 1.415 . S
C556 C555 1.355 . S
C556 C558 1.419 . S
C557 C552 1.425 . S
C557 C554 1.409 . S
C557 C555 1.415 . S
C558 H548 0.930 . S
C558 C556 1.419 . S
C558 C559 1.362 . S
C559 H549 0.930 . S
C559 C552 1.409 . S
C559 C558 1.362 . S
H560 C566 0.930 . S
H561 C569 0.930 . S
H562 C570 0.930 . S
H563 C571 0.930 . S
H564 C574 0.930 . S
H565 C575 0.930 . S
C566 H560 0.930 . S
C566 C567 1.355 . S
C566 C568 1.415 . S
C567 C566 1.355 . S
C567 C569 1.419 . S
C568 C566 1.415 . S
C568 C573 1.425 . S
C568 C575 1.409 . S
C569 H561 0.930 . S
C569 C567 1.419 . S
C569 C570 1.362 . S
C570 H562 0.930 . S
C570 C569 1.362 . S
C570 C573 1.409 . S
C571 H563 0.930 . S
C571 C572 1.355 . S
C571 C573 1.415 . S
C572 C571 1.355 . S
C572 C574 1.419 . S
C573 C568 1.425 . S
C573 C570 1.409 . S
C573 C571 1.415 . S
C574 H564 0.930 . S
C574 C572 1.419 . S
C574 C575 1.362 . S
C575 H565 0.930 . S
C575 C568 1.409 . S
C575 C574 1.362 . S
H576 C582 0.930 . S
H577 C585 0.930 . S
H578 C586 0.930 . S
H579 C587 0.930 . S
H580 C590 0.930 1_554 S
H581 C591 0.930 . S
C582 H576 0.930 . S
C582 C583 1.355 . S
C582 C584 1.415 . S
C583 C582 1.355 . S
C583 C585 1.419 . S
C584 C582 1.415 . S
C584 C589 1.425 . S
C584 C591 1.409 . S
C585 H577 0.930 . S
C585 C583 1.419 . S
C585 C586 1.362 . S
C586 H578 0.930 . S
C586 C585 1.362 . S
C586 C589 1.409 . S
C587 H579 0.930 . S
C587 C588 1.355 . S
C587 C589 1.415 . S
C588 C587 1.355 . S
C588 C590 1.419 . S
C589 C584 1.425 . S
C589 C586 1.409 . S
C589 C587 1.415 . S
C590 H580 0.930 1_556 S
C590 C588 1.419 . S
C590 C591 1.362 . S
C591 H581 0.930 . S
C591 C584 1.409 . S
C591 C590 1.362 . S
H592 C598 0.930 . S
H593 C601 0.930 . S
H594 C602 0.930 . S
H595 C603 0.930 . S
H596 C606 0.930 . S
H597 C607 0.930 . S
C598 H592 0.930 . S
C598 C599 1.355 . S
C598 C600 1.415 . S
C599 C598 1.355 . S
C599 C601 1.419 . S
C600 C598 1.415 . S
C600 C605 1.425 . S
C600 C607 1.409 . S
C601 H593 0.930 . S
C601 C599 1.419 . S
C601 C602 1.362 . S
C602 H594 0.930 . S
C602 C601 1.362 . S
C602 C605 1.409 . S
C603 H595 0.930 . S
C603 C604 1.355 . S
C603 C605 1.415 . S
C604 C603 1.355 . S
C604 C606 1.419 . S
C605 C600 1.425 . S
C605 C602 1.409 . S
C605 C603 1.415 . S
C606 H596 0.930 . S
C606 C604 1.419 . S
C606 C607 1.362 . S
C607 H597 0.930 . S
C607 C600 1.409 . S
C607 C606 1.362 . S
H608 C614 0.930 . S
H609 C617 0.930 . S
H610 C618 0.930 . S
H611 C619 0.930 . S
H612 C622 0.930 . S
H613 C623 0.930 . S
C614 H608 0.930 . S
C614 C615 1.355 . S
C614 C616 1.415 . S
C615 C614 1.355 . S
C615 C617 1.419 . S
C616 C614 1.415 . S
C616 C621 1.425 . S
C616 C623 1.409 . S
C617 H609 0.930 . S
C617 C615 1.419 . S
C617 C618 1.362 . S
C618 H610 0.930 . S
C618 C617 1.362 . S
C618 C621 1.409 . S
C619 H611 0.930 . S
C619 C620 1.355 . S
C619 C621 1.415 . S
C620 C619 1.355 . S
C620 C622 1.419 . S
C621 C616 1.425 . S
C621 C618 1.409 . S
C621 C619 1.415 . S
C622 H612 0.930 . S
C622 C620 1.419 . S
C622 C623 1.362 . S
C623 H613 0.930 . S
C623 C616 1.409 . S
C623 C622 1.362 . S
H624 C630 0.930 . S
H625 C633 0.930 . S
H626 C634 0.930 . S
H627 C635 0.930 . S
H628 C638 0.930 . S
H629 C639 0.930 . S
C630 H624 0.930 . S
C630 C631 1.355 . S
C630 C632 1.415 . S
C631 C630 1.355 . S
C631 C633 1.419 . S
C632 C630 1.415 . S
C632 C637 1.425 . S
C632 C639 1.409 1_455 S
C633 H625 0.930 . S
C633 C631 1.419 . S
C633 C634 1.362 . S
C634 H626 0.930 . S
C634 C633 1.362 . S
C634 C637 1.409 . S
C635 H627 0.930 . S
C635 C636 1.355 . S
C635 C637 1.415 . S
C636 C635 1.355 . S
C636 C638 1.419 1_455 S
C637 C632 1.425 . S
C637 C634 1.409 . S
C637 C635 1.415 . S
C638 H628 0.930 . S
C638 C636 1.419 1_655 S
C638 C639 1.362 . S
C639 H629 0.930 . S
C639 C632 1.409 1_655 S
C639 C638 1.362 . S
H640 C646 0.930 . S
H641 C649 0.930 . S
H642 C650 0.930 . S
H643 C651 0.930 . S
H644 C654 0.930 . S
H645 C655 0.930 . S
C646 H640 0.930 . S
C646 C647 1.355 . S
C646 C648 1.415 . S
C647 C646 1.355 . S
C647 C649 1.419 . S
C648 C646 1.415 . S
C648 C653 1.425 . S
C648 C655 1.409 . S
C649 H641 0.930 . S
C649 C647 1.419 . S
C649 C650 1.362 . S
C650 H642 0.930 . S
C650 C649 1.362 . S
C650 C653 1.409 . S
C651 H643 0.930 . S
C651 C652 1.355 . S
C651 C653 1.415 . S
C652 C651 1.355 . S
C652 C654 1.419 . S
C653 C648 1.425 . S
C653 C650 1.409 . S
C653 C651 1.415 . S
C654 H644 0.930 . S
C654 C652 1.419 . S
C654 C655 1.362 . S
C655 H645 0.930 . S
C655 C648 1.409 . S
C655 C654 1.362 . S
H656 C662 0.930 . S
H657 C665 0.930 . S
H658 C666 0.930 . S
H659 C667 0.930 . S
H660 C670 0.930 . S
H661 C671 0.930 . S
C662 H656 0.930 . S
C662 C663 1.355 . S
C662 C664 1.415 . S
C663 C662 1.355 . S
C663 C665 1.419 . S
C664 C662 1.415 . S
C664 C669 1.425 . S
C664 C671 1.409 . S
C665 H657 0.930 . S
C665 C663 1.419 . S
C665 C666 1.362 . S
C666 H658 0.930 . S
C666 C665 1.362 . S
C666 C669 1.409 . S
C667 H659 0.930 . S
C667 C668 1.355 . S
C667 C669 1.415 . S
C668 C667 1.355 . S
C668 C670 1.419 . S
C669 C664 1.425 . S
C669 C666 1.409 . S
C669 C667 1.415 . S
C670 H660 0.930 . S
C670 C668 1.419 . S
C670 C671 1.362 . S
C671 H661 0.930 . S
C671 C664 1.409 . S
C671 C670 1.362 . S
H672 C678 0.930 . S
H673 C681 0.930 . S
H674 C682 0.930 . S
H675 C683 0.930 . S
H676 C686 0.930 . S
H677 C687 0.930 . S
C678 H672 0.930 . S
C678 C679 1.355 . S
C678 C680 1.415 . S
C679 C678 1.355 . S
C679 C681 1.419 . S
C680 C678 1.415 . S
C680 C685 1.425 . S
C680 C687 1.409 . S
C681 H673 0.930 . S
C681 C679 1.419 . S
C681 C682 1.362 . S
C682 H674 0.930 . S
C682 C681 1.362 . S
C682 C685 1.409 . S
C683 H675 0.930 . S
C683 C684 1.355 . S
C683 C685 1.415 . S
C684 C683 1.355 . S
C684 C686 1.419 . S
C685 C680 1.425 . S
C685 C682 1.409 . S
C685 C683 1.415 . S
C686 H676 0.930 . S
C686 C684 1.419 . S
C686 C687 1.362 . S
C687 H677 0.930 . S
C687 C680 1.409 . S
C687 C686 1.362 . S
H688 C694 0.930 . S
H689 C697 0.930 . S
H690 C698 0.930 1_545 S
H691 C699 0.930 . S
H692 C702 0.930 . S
H693 C703 0.930 . S
C694 H688 0.930 . S
C694 C695 1.355 . S
C694 C696 1.415 . S
C695 C694 1.355 . S
C695 C697 1.419 . S
C696 C694 1.415 . S
C696 C701 1.425 . S
C696 C703 1.409 . S
C697 H689 0.930 . S
C697 C695 1.419 . S
C697 C698 1.362 . S
C698 H690 0.930 1_565 S
C698 C697 1.362 . S
C698 C701 1.409 . S
C699 H691 0.930 . S
C699 C700 1.355 . S
C699 C701 1.415 . S
C700 C699 1.355 . S
C700 C702 1.419 . S
C701 C696 1.425 . S
C701 C698 1.409 . S
C701 C699 1.415 . S
C702 H692 0.930 . S
C702 C700 1.419 . S
C702 C703 1.362 . S
C703 H693 0.930 . S
C703 C696 1.409 . S
C703 C702 1.362 . S
H704 C710 0.930 . S
H705 C713 0.930 . S
H706 C714 0.930 . S
H707 C715 0.930 . S
H708 C718 0.930 . S
H709 C719 0.930 . S
C710 H704 0.930 . S
C710 C711 1.355 . S
C710 C712 1.415 . S
C711 C710 1.355 . S
C711 C713 1.419 . S
C712 C710 1.415 . S
C712 C717 1.425 . S
C712 C719 1.409 . S
C713 H705 0.930 . S
C713 C711 1.419 . S
C713 C714 1.362 . S
C714 H706 0.930 . S
C714 C713 1.362 . S
C714 C717 1.409 . S
C715 H707 0.930 . S
C715 C716 1.355 . S
C715 C717 1.415 . S
C716 C715 1.355 . S
C716 C718 1.419 . S
C717 C712 1.425 . S
C717 C714 1.409 . S
C717 C715 1.415 . S
C718 H708 0.930 . S
C718 C716 1.419 . S
C718 C719 1.362 . S
C719 H709 0.930 . S
C719 C712 1.409 . S
C719 C718 1.362 . S
H720 C726 0.930 . S
H721 C729 0.930 . S
H722 C730 0.930 . S
H723 C731 0.930 . S
H724 C734 0.930 . S
H725 C735 0.930 . S
C726 H720 0.930 . S
C726 C727 1.355 . S
C726 C728 1.415 . S
C727 C726 1.355 . S
C727 C729 1.419 . S
C728 C726 1.415 . S
C728 C733 1.425 . S
C728 C735 1.408 . S
C729 H721 0.930 . S
C729 C727 1.419 . S
C729 C730 1.362 . S
C730 H722 0.930 . S
C730 C729 1.362 . S
C730 C733 1.409 . S
C731 H723 0.930 . S
C731 C732 1.355 . S
C731 C733 1.415 1_556 S
C732 C731 1.355 . S
C732 C734 1.419 . S
C733 C728 1.425 . S
C733 C730 1.409 . S
C733 C731 1.415 1_554 S
C734 H724 0.930 . S
C734 C732 1.419 . S
C734 C735 1.364 1_556 S
C735 H725 0.930 . S
C735 C728 1.408 . S
C735 C734 1.364 1_554 S
H736 C742 0.930 . S
H737 C745 0.930 . S
H738 C746 0.930 . S
H739 C747 0.930 . S
H740 C750 0.930 . S
H741 C751 0.930 . S
C742 H736 0.930 . S
C742 C743 1.355 . S
C742 C744 1.415 . S
C743 C742 1.355 . S
C743 C745 1.419 . S
C744 C742 1.415 . S
C744 C749 1.425 . S
C744 C751 1.409 . S
C745 H737 0.930 . S
C745 C743 1.419 . S
C745 C746 1.362 . S
C746 H738 0.930 . S
C746 C745 1.362 . S
C746 C749 1.409 . S
C747 H739 0.930 . S
C747 C748 1.355 . S
C747 C749 1.415 . S
C748 C747 1.355 . S
C748 C750 1.419 . S
C749 C744 1.425 . S
C749 C746 1.409 . S
C749 C747 1.415 . S
C750 H740 0.930 . S
C750 C748 1.419 . S
C750 C751 1.362 . S
C751 H741 0.930 . S
C751 C744 1.409 . S
C751 C750 1.362 . S
H752 C758 0.930 . S
H753 C761 0.930 1_554 S
H754 C762 0.930 . S
H755 C763 0.930 . S
H756 C766 0.930 . S
H757 C767 0.930 . S
C758 H752 0.930 . S
C758 C759 1.355 . S
C758 C760 1.415 1_554 S
C759 C758 1.355 . S
C759 C761 1.419 1_554 S
C760 C758 1.415 1_556 S
C760 C765 1.425 . S
C760 C767 1.409 . S
C761 H753 0.930 1_556 S
C761 C759 1.419 1_556 S
C761 C762 1.362 . S
C762 H754 0.930 . S
C762 C761 1.362 . S
C762 C765 1.409 . S
C763 H755 0.930 . S
C763 C764 1.355 . S
C763 C765 1.415 . S
C764 C763 1.355 . S
C764 C766 1.419 . S
C765 C760 1.425 . S
C765 C762 1.409 . S
C765 C763 1.415 . S
C766 H756 0.930 . S
C766 C764 1.419 . S
C766 C767 1.362 . S
C767 H757 0.930 . S
C767 C760 1.409 . S
C767 C766 1.362 . S
H768 C774 0.930 . S
H769 C777 0.930 . S
H770 C778 0.930 . S
H771 C779 0.930 . S
H772 C782 0.930 . S
H773 C783 0.930 . S
C774 H768 0.930 . S
C774 C775 1.355 . S
C774 C776 1.415 . S
C775 C774 1.355 . S
C775 C777 1.419 . S
C776 C774 1.415 . S
C776 C781 1.425 . S
C776 C783 1.409 . S
C777 H769 0.930 . S
C777 C775 1.419 . S
C777 C778 1.362 . S
C778 H770 0.930 . S
C778 C777 1.362 . S
C778 C781 1.409 . S
C779 H771 0.930 . S
C779 C780 1.355 . S
C779 C781 1.415 . S
C780 C779 1.355 . S
C780 C782 1.419 . S
C781 C776 1.425 . S
C781 C778 1.409 . S
C781 C779 1.415 . S
C782 H772 0.930 . S
C782 C780 1.419 . S
C782 C783 1.362 . S
C783 H773 0.930 . S
C783 C776 1.409 . S
C783 C782 1.362 . S
H784 C790 0.930 . S
H785 C793 0.930 . S
H786 C794 0.930 . S
H787 C795 0.930 . S
H788 C798 0.930 . S
H789 C799 0.930 . S
C790 H784 0.930 . S
C790 C791 1.355 . S
C790 C792 1.415 . S
C791 C790 1.355 . S
C791 C793 1.419 . S
C792 C790 1.415 . S
C792 C797 1.425 . S
C792 C799 1.409 . S
C793 H785 0.930 . S
C793 C791 1.419 . S
C793 C794 1.362 . S
C794 H786 0.930 . S
C794 C793 1.362 . S
C794 C797 1.409 . S
C795 H787 0.930 . S
C795 C796 1.355 . S
C795 C797 1.415 . S
C796 C795 1.355 . S
C796 C798 1.419 . S
C797 C792 1.425 . S
C797 C794 1.409 . S
C797 C795 1.415 . S
C798 H788 0.930 . S
C798 C796 1.419 . S
C798 C799 1.362 . S
C799 H789 0.930 . S
C799 C792 1.409 . S
C799 C798 1.362 . S
H800 C806 0.930 . S
H801 C809 0.930 . S
H802 C810 0.930 . S
H803 C811 0.930 . S
H804 C814 0.930 . S
H805 C815 0.930 . S
C806 H800 0.930 . S
C806 C807 1.355 . S
C806 C808 1.415 . S
C807 C806 1.355 . S
C807 C809 1.419 . S
C808 C806 1.415 . S
C808 C813 1.425 . S
C808 C815 1.409 . S
C809 H801 0.930 . S
C809 C807 1.419 . S
C809 C810 1.362 . S
C810 H802 0.930 . S
C810 C809 1.362 . S
C810 C813 1.409 . S
C811 H803 0.930 . S
C811 C812 1.355 . S
C811 C813 1.415 . S
C812 C811 1.355 . S
C812 C814 1.419 . S
C813 C808 1.425 . S
C813 C810 1.409 . S
C813 C811 1.415 . S
C814 H804 0.930 . S
C814 C812 1.419 . S
C814 C815 1.362 . S
C815 H805 0.930 . S
C815 C808 1.409 . S
C815 C814 1.362 . S
H816 C822 0.930 . S
H817 C825 0.930 . S
H818 C826 0.930 . S
H819 C827 0.923 1_565 S
H820 C830 0.930 1_655 S
H821 C831 0.930 1_655 S
C822 H816 0.930 . S
C822 C823 1.355 . S
C822 C824 1.415 . S
C823 C822 1.355 . S
C823 C825 1.419 . S
C824 C822 1.415 . S
C824 C829 1.425 . S
C824 C831 1.409 . S
C825 H817 0.930 . S
C825 C823 1.419 . S
C825 C826 1.362 . S
C826 H818 0.930 . S
C826 C825 1.362 . S
C826 C829 1.409 . S
C827 H819 0.923 1_545 S
C827 C828 1.339 1_545 S
C827 C829 1.437 . S
C828 C827 1.339 1_565 S
C828 C830 1.419 . S
C829 C824 1.425 . S
C829 C826 1.409 . S
C829 C827 1.437 . S
C830 H820 0.930 1_455 S
C830 C828 1.419 . S
C830 C831 1.362 1_565 S
C831 H821 0.930 1_455 S
C831 C824 1.409 . S
C831 C830 1.362 1_545 S
H832 C838 0.930 . S
H833 C841 0.930 . S
H834 C842 0.930 . S
H835 C843 0.930 . S
H836 C846 0.930 . S
H837 C847 0.930 . S
C838 H832 0.930 . S
C838 C839 1.355 . S
C838 C840 1.415 . S
C839 C838 1.355 . S
C839 C841 1.419 . S
C840 C838 1.415 . S
C840 C845 1.425 . S
C840 C847 1.409 . S
C841 H833 0.930 . S
C841 C839 1.419 . S
C841 C842 1.362 . S
C842 H834 0.930 . S
C842 C841 1.362 . S
C842 C845 1.409 . S
C843 H835 0.930 . S
C843 C844 1.355 . S
C843 C845 1.415 . S
C844 C843 1.355 . S
C844 C846 1.419 . S
C845 C840 1.425 . S
C845 C842 1.409 . S
C845 C843 1.415 . S
C846 H836 0.930 . S
C846 C844 1.419 . S
C846 C847 1.362 . S
C847 H837 0.930 . S
C847 C840 1.409 . S
C847 C846 1.362 . S
H848 C854 0.930 . S
H849 C857 0.930 . S
H850 C858 0.930 . S
H851 C859 0.930 . S
H852 C862 0.930 . S
H853 C863 0.930 . S
C854 H848 0.930 . S
C854 C855 1.355 . S
C854 C856 1.415 . S
C855 C854 1.355 . S
C855 C857 1.419 . S
C856 C854 1.415 . S
C856 C861 1.425 . S
C856 C863 1.409 1_545 S
C857 H849 0.930 . S
C857 C855 1.419 . S
C857 C858 1.362 . S
C858 H850 0.930 . S
C858 C857 1.362 . S
C858 C861 1.409 . S
C859 H851 0.930 . S
C859 C860 1.355 . S
C859 C861 1.415 1_565 S
C860 C859 1.355 . S
C860 C862 1.419 . S
C861 C856 1.425 . S
C861 C858 1.409 . S
C861 C859 1.415 1_545 S
C862 H852 0.930 . S
C862 C860 1.419 . S
C862 C863 1.362 . S
C863 H853 0.930 . S
C863 C856 1.409 1_565 S
C863 C862 1.362 . S
H864 C870 0.930 . S
H865 C873 0.930 . S
H866 C874 0.930 . S
H867 C875 0.930 . S
H868 C878 0.930 . S
H869 C879 0.930 . S
C870 H864 0.930 . S
C870 C871 1.355 . S
C870 C872 1.415 . S
C871 C870 1.355 . S
C871 C873 1.419 . S
C872 C870 1.415 . S
C872 C877 1.425 . S
C872 C879 1.409 . S
C873 H865 0.930 . S
C873 C871 1.419 . S
C873 C874 1.362 . S
C874 H866 0.930 . S
C874 C873 1.362 . S
C874 C877 1.409 . S
C875 H867 0.930 . S
C875 C876 1.355 . S
C875 C877 1.415 . S
C876 C875 1.355 . S
C876 C878 1.419 . S
C877 C872 1.425 . S
C877 C874 1.409 . S
C877 C875 1.415 . S
C878 H868 0.930 . S
C878 C876 1.419 . S
C878 C879 1.362 . S
C879 H869 0.930 . S
C879 C872 1.409 . S
C879 C878 1.362 . S
H880 C886 0.930 . S
H881 C889 0.930 . S
H882 C890 0.930 . S
H883 C891 0.930 . S
H884 C894 0.930 . S
H885 C895 0.930 . S
C886 H880 0.930 . S
C886 C887 1.355 . S
C886 C888 1.415 . S
C887 C886 1.355 . S
C887 C889 1.419 . S
C888 C886 1.415 . S
C888 C893 1.425 . S
C888 C895 1.409 . S
C889 H881 0.930 . S
C889 C887 1.419 . S
C889 C890 1.362 . S
C890 H882 0.930 . S
C890 C889 1.362 . S
C890 C893 1.409 . S
C891 H883 0.930 . S
C891 C892 1.355 . S
C891 C893 1.415 . S
C892 C891 1.355 . S
C892 C894 1.419 . S
C893 C888 1.425 . S
C893 C890 1.409 . S
C893 C891 1.415 . S
C894 H884 0.930 . S
C894 C892 1.419 . S
C894 C895 1.362 . S
C895 H885 0.930 . S
C895 C888 1.409 . S
C895 C894 1.362 . S
H896 C902 0.930 . S
H897 C905 0.930 . S
H898 C906 0.930 . S
H899 C907 0.930 . S
H900 C910 0.930 . S
H901 C911 0.930 . S
C902 H896 0.930 . S
C902 C903 1.355 . S
C902 C904 1.415 . S
C903 C902 1.355 . S
C903 C905 1.419 . S
C904 C902 1.415 . S
C904 C909 1.425 . S
C904 C911 1.409 . S
C905 H897 0.930 . S
C905 C903 1.419 . S
C905 C906 1.362 . S
C906 H898 0.930 . S
C906 C905 1.362 . S
C906 C909 1.409 . S
C907 H899 0.930 . S
C907 C908 1.355 . S
C907 C909 1.415 . S
C908 C907 1.355 . S
C908 C910 1.419 . S
C909 C904 1.425 . S
C909 C906 1.409 . S
C909 C907 1.415 . S
C910 H900 0.930 . S
C910 C908 1.419 . S
C910 C911 1.362 . S
C911 H901 0.930 . S
C911 C904 1.409 . S
C911 C910 1.362 . S
H912 C918 0.930 . S
H913 C921 0.930 . S
H914 C922 0.930 . S
H915 C923 0.930 . S
H916 C926 0.930 . S
H917 C927 0.930 . S
C918 H912 0.930 . S
C918 C919 1.355 . S
C918 C920 1.415 . S
C919 C918 1.355 . S
C919 C921 1.419 . S
C920 C918 1.415 . S
C920 C925 1.425 . S
C920 C927 1.409 . S
C921 H913 0.930 . S
C921 C919 1.419 . S
C921 C922 1.362 . S
C922 H914 0.930 . S
C922 C921 1.362 . S
C922 C925 1.409 . S
C923 H915 0.930 . S
C923 C924 1.355 . S
C923 C925 1.415 . S
C924 C923 1.355 . S
C924 C926 1.419 . S
C925 C920 1.425 . S
C925 C922 1.409 . S
C925 C923 1.415 . S
C926 H916 0.930 . S
C926 C924 1.419 . S
C926 C927 1.362 . S
C927 H917 0.930 . S
C927 C920 1.409 . S
C927 C926 1.362 . S
H928 C934 0.930 . S
H929 C937 0.930 . S
H930 C938 0.930 . S
H931 C939 0.930 . S
H932 C942 0.930 . S
H933 C943 0.930 . S
C934 H928 0.930 . S
C934 C935 1.355 . S
C934 C936 1.415 . S
C935 C934 1.355 . S
C935 C937 1.419 . S
C936 C934 1.415 . S
C936 C941 1.425 . S
C936 C943 1.409 . S
C937 H929 0.930 . S
C937 C935 1.419 . S
C937 C938 1.362 . S
C938 H930 0.930 . S
C938 C937 1.362 . S
C938 C941 1.409 . S
C939 H931 0.930 . S
C939 C940 1.355 . S
C939 C941 1.415 . S
C940 C939 1.355 . S
C940 C942 1.419 . S
C941 C936 1.425 . S
C941 C938 1.409 . S
C941 C939 1.415 . S
C942 H932 0.930 . S
C942 C940 1.419 . S
C942 C943 1.362 . S
C943 H933 0.930 . S
C943 C936 1.409 . S
C943 C942 1.362 . S
H944 C950 0.930 . S
H945 C953 0.930 . S
H946 C954 0.930 . S
H947 C955 0.930 . S
H948 C958 0.930 . S
H949 C959 0.930 . S
C950 H944 0.930 . S
C950 C951 1.355 . S
C950 C952 1.415 . S
C951 C950 1.355 . S
C951 C953 1.419 . S
C952 C950 1.415 . S
C952 C957 1.425 . S
C952 C959 1.409 . S
C953 H945 0.930 . S
C953 C951 1.419 . S
C953 C954 1.362 . S
C954 H946 0.930 . S
C954 C953 1.362 . S
C954 C957 1.409 . S
C955 H947 0.930 . S
C955 C956 1.355 . S
C955 C957 1.415 . S
C956 C955 1.355 . S
C956 C958 1.419 . S
C957 C952 1.425 . S
C957 C954 1.409 . S
C957 C955 1.415 . S
C958 H948 0.930 . S
C958 C956 1.419 . S
C958 C959 1.362 . S
C959 H949 0.930 . S
C959 C952 1.409 . S
C959 C958 1.362 . S
H960 C966 0.930 . S
H961 C969 0.930 . S
H962 C970 0.930 . S
H963 C971 0.930 . S
H964 C974 0.930 . S
H965 C975 0.930 . S
C966 H960 0.930 . S
C966 C967 1.355 . S
C966 C968 1.415 1_455 S
C967 C966 1.355 . S
C967 C969 1.419 . S
C968 C966 1.415 1_655 S
C968 C973 1.425 . S
C968 C975 1.409 . S
C969 H961 0.930 . S
C969 C967 1.419 . S
C969 C970 1.362 . S
C970 H962 0.930 . S
C970 C969 1.362 . S
C970 C973 1.409 1_455 S
C971 H963 0.930 . S
C971 C972 1.355 . S
C971 C973 1.415 . S
C972 C971 1.355 . S
C972 C974 1.419 . S
C973 C968 1.425 . S
C973 C970 1.409 1_655 S
C973 C971 1.415 . S
C974 H964 0.930 . S
C974 C972 1.419 . S
C974 C975 1.362 . S
C975 H965 0.930 . S
C975 C968 1.409 . S
C975 C974 1.362 . S
H976 C982 0.930 . S
H977 C985 0.930 . S
H978 C986 0.930 . S
H979 C987 0.930 . S
H980 C990 0.930 . S
H981 C991 0.930 . S
C982 H976 0.930 . S
C982 C983 1.355 . S
C982 C984 1.415 . S
C983 C982 1.355 . S
C983 C985 1.419 . S
C984 C982 1.415 . S
C984 C989 1.425 . S
C984 C991 1.409 . S
C985 H977 0.930 . S
C985 C983 1.419 . S
C985 C986 1.362 . S
C986 H978 0.930 . S
C986 C985 1.362 . S
C986 C989 1.409 . S
C987 H979 0.930 . S
C987 C988 1.355 . S
C987 C989 1.415 . S
C988 C987 1.355 . S
C988 C990 1.419 . S
C989 C984 1.425 . S
C989 C986 1.409 . S
C989 C987 1.415 . S
C990 H980 0.930 . S
C990 C988 1.419 . S
C990 C991 1.362 . S
C991 H981 0.930 . S
C991 C984 1.409 . S
C991 C990 1.362 . S
H992 C998 0.930 . S
H993 C1001 0.930 . S
H994 C1002 0.930 . S
H995 C1003 0.930 . S
H996 C1006 0.930 . S
H997 C1007 0.930 . S
C998 H992 0.930 . S
C998 C999 1.355 . S
C998 C1000 1.415 . S
C999 C998 1.355 . S
C999 C1001 1.419 . S
C1000 C998 1.415 . S
C1000 C1005 1.425 . S
C1000 C1007 1.409 . S
C1001 H993 0.930 . S
C1001 C999 1.419 . S
C1001 C1002 1.362 . S
C1002 H994 0.930 . S
C1002 C1001 1.362 . S
C1002 C1005 1.409 . S
C1003 H995 0.930 . S
C1003 C1004 1.355 . S
C1003 C1005 1.415 . S
C1004 C1003 1.355 . S
C1004 C1006 1.419 . S
C1005 C1000 1.425 . S
C1005 C1002 1.409 . S
C1005 C1003 1.415 . S
C1006 H996 0.930 . S
C1006 C1004 1.419 . S
C1006 C1007 1.362 . S
C1007 H997 0.930 . S
C1007 C1000 1.409 . S
C1007 C1006 1.362 . S
H1008 C1014 0.930 . S
H1009 C1017 0.930 . S
H1010 C1018 0.930 . S
H1011 C1019 0.930 . S
H1012 C1022 0.930 . S
H1013 C1023 0.930 . S
C1014 H1008 0.930 . S
C1014 C1015 1.355 . S
C1014 C1016 1.415 . S
C1015 C1014 1.355 . S
C1015 C1017 1.419 . S
C1016 C1014 1.415 . S
C1016 C1021 1.425 . S
C1016 C1023 1.409 . S
C1017 H1009 0.930 . S
C1017 C1015 1.419 . S
C1017 C1018 1.362 . S
C1018 H1010 0.930 . S
C1018 C1017 1.362 . S
C1018 C1021 1.409 . S
C1019 H1011 0.930 . S
C1019 C1020 1.355 . S
C1019 C1021 1.415 . S
C1020 C1019 1.355 . S
C1020 C1022 1.419 . S
C1021 C1016 1.425 . S
C1021 C1018 1.409 . S
C1021 C1019 1.415 . S
C1022 H1012 0.930 . S
C1022 C1020 1.419 . S
C1022 C1023 1.362 . S
C1023 H1013 0.930 . S
C1023 C1016 1.409 . S
C1023 C1022 1.362 . S
H1024 C1030 0.930 . S
H1025 C1033 0.930 . S
H1026 C1034 0.930 . S
H1027 C1035 0.930 . S
H1028 C1038 0.930 . S
H1029 C1039 0.930 . S
C1030 H1024 0.930 . S
C1030 C1031 1.355 . S
C1030 C1032 1.415 . S
C1031 C1030 1.355 . S
C1031 C1033 1.419 . S
C1032 C1030 1.415 . S
C1032 C1037 1.425 . S
C1032 C1039 1.409 . S
C1033 H1025 0.930 . S
C1033 C1031 1.419 . S
C1033 C1034 1.362 . S
C1034 H1026 0.930 . S
C1034 C1033 1.362 . S
C1034 C1037 1.409 . S
C1035 H1027 0.930 . S
C1035 C1036 1.355 . S
C1035 C1037 1.415 . S
C1036 C1035 1.355 . S
C1036 C1038 1.419 . S
C1037 C1032 1.425 . S
C1037 C1034 1.409 . S
C1037 C1035 1.415 . S
C1038 H1028 0.930 . S
C1038 C1036 1.419 . S
C1038 C1039 1.362 . S
C1039 H1029 0.930 . S
C1039 C1032 1.409 . S
C1039 C1038 1.362 . S
H1040 C1046 0.930 . S
H1041 C1049 0.930 . S
H1042 C1050 0.930 . S
H1043 C1051 0.930 . S
H1044 C1054 0.930 . S
H1045 C1055 0.930 . S
C1046 H1040 0.930 . S
C1046 C1047 1.355 . S
C1046 C1048 1.415 . S
C1047 C1046 1.355 . S
C1047 C1049 1.419 . S
C1048 C1046 1.415 . S
C1048 C1053 1.425 . S
C1048 C1055 1.409 1_655 S
C1049 H1041 0.930 . S
C1049 C1047 1.419 . S
C1049 C1050 1.362 . S
C1050 H1042 0.930 . S
C1050 C1049 1.362 . S
C1050 C1053 1.409 . S
C1051 H1043 0.930 . S
C1051 C1052 1.355 1_655 S
C1051 C1053 1.415 . S
C1052 C1051 1.355 1_455 S
C1052 C1054 1.419 . S
C1053 C1048 1.425 . S
C1053 C1050 1.409 . S
C1053 C1051 1.415 . S
C1054 H1044 0.930 . S
C1054 C1052 1.419 . S
C1054 C1055 1.362 . S
C1055 H1045 0.930 . S
C1055 C1048 1.409 1_455 S
C1055 C1054 1.362 . S
C487 C20 1.637 . S
C492 C460 1.597 . S
C503 C380 1.736 1_565 S
C508 C42 1.830 . S
C519 C100 1.525 . S
C524 C322 1.595 . S
C535 C122 1.727 . S
C540 C420 1.714 . S
C551 C180 1.731 . S
C556 C402 1.769 . S
C567 C220 1.571 . S
C572 C442 1.588 . S
C583 C362 1.679 . S
C588 C242 1.707 . S
C599 C282 1.515 . S
C604 C340 1.531 . S
C615 C140 1.668 . S
C620 C162 1.680 . S
C631 C2 1.596 . S
C636 C202 1.647 . S
C647 C60 1.630 . S
C652 C260 1.687 . S
C663 C300 1.698 . S
C668 C82 1.729 . S
C679 C4 1.879 . S
C684 C343 1.851 . S
C695 C65 1.208 . S
C700 C431 1.210 . S
C711 C471 1.944 . S
C716 C84 1.858 . S
C727 C145 1.619 . S
C732 C391 1.629 . S
C743 C164 1.613 . S
C748 C383 1.594 . S
C759 C351 2.103 . S
C764 C204 1.991 . S
C775 C423 1.658 . S
C780 C265 1.715 . S
C791 C463 1.162 . S
C796 C305 1.206 . S
C807 C23 1.695 . S
C812 C124 1.714 . S
C823 C25 1.289 . S
C828 C71 1.289 . S
C839 C44 1.593 . S
C844 C103 1.577 . S
C855 C151 1.230 . S
C860 C105 1.228 . S
C871 C225 1.866 . S
C876 C183 1.794 . S
C887 C223 1.730 . S
C892 C244 1.732 . S
C903 C271 2.007 . S
C908 C284 1.951 . S
C919 C185 1.773 . S
C924 C311 1.780 . S
C935 C324 2.087 . S
C940 C143 2.079 . S
C951 C231 2.256 . S
C956 C364 2.183 . S
C967 C345 1.525 . S
C972 C263 1.483 . S
C983 C404 1.433 . S
C988 C303 1.409 . S
C999 C191 1.432 . S
C1004 C444 1.358 . S
C1015 C465 1.373 . S
C1020 C63 1.303 . S
C1031 C111 1.471 . S
C1036 C385 1.469 . S
C1047 C425 1.655 . S
C1052 C31 1.658 . S
