# Generated by pormake.
# Topology atn, (4)-cn, num edge types: 1
# Building blocks:
#     Node 0, Type 0, BuildingBlock: ICAMEG_clean_sbu_1, # of connection points: 4
#     Node 1, Type 0, BuildingBlock: ICAMEG_clean_sbu_1, # of connection points: 4
#     Node 2, Type 0, BuildingBlock: ICAMEG_clean_sbu_1, # of connection points: 4
#     Node 3, Type 0, BuildingBlock: ICAMEG_clean_sbu_1, # of connection points: 4
#     Node 4, Type 0, BuildingBlock: ICAMEG_clean_sbu_1, # of connection points: 4
#     Node 5, Type 0, BuildingBlock: ICAMEG_clean_sbu_1, # of connection points: 4
#     Node 6, Type 0, BuildingBlock: ICAMEG_clean_sbu_1, # of connection points: 4
#     Node 7, Type 0, BuildingBlock: ICAMEG_clean_sbu_1, # of connection points: 4
#     Node 8, Type 0, BuildingBlock: ICAMEG_clean_sbu_1, # of connection points: 4
#     Node 9, Type 0, BuildingBlock: ICAMEG_clean_sbu_1, # of connection points: 4
#     Node 10, Type 0, BuildingBlock: ICAMEG_clean_sbu_1, # of connection points: 4
#     Node 11, Type 0, BuildingBlock: ICAMEG_clean_sbu_1, # of connection points: 4
#     Node 12, Type 0, BuildingBlock: ICAMEG_clean_sbu_1, # of connection points: 4
#     Node 13, Type 0, BuildingBlock: ICAMEG_clean_sbu_1, # of connection points: 4
#     Node 14, Type 0, BuildingBlock: ICAMEG_clean_sbu_1, # of connection points: 4
#     Node 15, Type 0, BuildingBlock: ICAMEG_clean_sbu_1, # of connection points: 4
#     Edge 16, Type (0, 0), BuildingBlock: MIFKUJ_clean_linker_0, # of connection points: 2
#     Edge 17, Type (0, 0), BuildingBlock: MIFKUJ_clean_linker_0, # of connection points: 2
#     Edge 18, Type (0, 0), BuildingBlock: MIFKUJ_clean_linker_0, # of connection points: 2
#     Edge 19, Type (0, 0), BuildingBlock: MIFKUJ_clean_linker_0, # of connection points: 2
#     Edge 20, Type (0, 0), BuildingBlock: MIFKUJ_clean_linker_0, # of connection points: 2
#     Edge 21, Type (0, 0), BuildingBlock: MIFKUJ_clean_linker_0, # of connection points: 2
#     Edge 22, Type (0, 0), BuildingBlock: MIFKUJ_clean_linker_0, # of connection points: 2
#     Edge 23, Type (0, 0), BuildingBlock: MIFKUJ_clean_linker_0, # of connection points: 2
#     Edge 24, Type (0, 0), BuildingBlock: MIFKUJ_clean_linker_0, # of connection points: 2
#     Edge 25, Type (0, 0), BuildingBlock: MIFKUJ_clean_linker_0, # of connection points: 2
#     Edge 26, Type (0, 0), BuildingBlock: MIFKUJ_clean_linker_0, # of connection points: 2
#     Edge 27, Type (0, 0), BuildingBlock: MIFKUJ_clean_linker_0, # of connection points: 2
#     Edge 28, Type (0, 0), BuildingBlock: MIFKUJ_clean_linker_0, # of connection points: 2
#     Edge 29, Type (0, 0), BuildingBlock: MIFKUJ_clean_linker_0, # of connection points: 2
#     Edge 30, Type (0, 0), BuildingBlock: MIFKUJ_clean_linker_0, # of connection points: 2
#     Edge 31, Type (0, 0), BuildingBlock: MIFKUJ_clean_linker_0, # of connection points: 2
#     Edge 32, Type (0, 0), BuildingBlock: MIFKUJ_clean_linker_0, # of connection points: 2
#     Edge 33, Type (0, 0), BuildingBlock: MIFKUJ_clean_linker_0, # of connection points: 2
#     Edge 34, Type (0, 0), BuildingBlock: MIFKUJ_clean_linker_0, # of connection points: 2
#     Edge 35, Type (0, 0), BuildingBlock: MIFKUJ_clean_linker_0, # of connection points: 2
#     Edge 36, Type (0, 0), BuildingBlock: MIFKUJ_clean_linker_0, # of connection points: 2
#     Edge 37, Type (0, 0), BuildingBlock: MIFKUJ_clean_linker_0, # of connection points: 2
#     Edge 38, Type (0, 0), BuildingBlock: MIFKUJ_clean_linker_0, # of connection points: 2
#     Edge 39, Type (0, 0), BuildingBlock: MIFKUJ_clean_linker_0, # of connection points: 2
#     Edge 40, Type (0, 0), BuildingBlock: MIFKUJ_clean_linker_0, # of connection points: 2
#     Edge 41, Type (0, 0), BuildingBlock: MIFKUJ_clean_linker_0, # of connection points: 2
#     Edge 42, Type (0, 0), BuildingBlock: MIFKUJ_clean_linker_0, # of connection points: 2
#     Edge 43, Type (0, 0), BuildingBlock: MIFKUJ_clean_linker_0, # of connection points: 2
#     Edge 44, Type (0, 0), BuildingBlock: MIFKUJ_clean_linker_0, # of connection points: 2
#     Edge 45, Type (0, 0), BuildingBlock: MIFKUJ_clean_linker_0, # of connection points: 2
#     Edge 46, Type (0, 0), BuildingBlock: MIFKUJ_clean_linker_0, # of connection points: 2
#     Edge 47, Type (0, 0), BuildingBlock: MIFKUJ_clean_linker_0, # of connection points: 2
# Relax obj value: 0.021
# Max RMSD: 0.061
# Mean RMSD: 0.061
data_MOF--net-atn--node1-ICAMEG_clean_sbu_1--edge1-MIFKUJ_clean_linker_0
_symmetry_space_group_name_H-M    P1
_symmetry_Int_Tables_number       1
_symmetry_cell_setting            triclinic
loop_
_symmetry_equiv_pos_as_xyz
'x, y, z'
_cell_length_a     79.364301
_cell_length_b     79.339046
_cell_length_c     38.545133
_cell_angle_alpha  89.986256
_cell_angle_beta   90.012589
_cell_angle_gamma 90.051146
loop_
_atom_site_label
_atom_site_type_symbol
_atom_site_fract_x
_atom_site_fract_y
_atom_site_fract_z
_atom_type_partial_charge
Co0 Co 0.18174 0.35397 0.01588 0.0
Co1 Co 0.21458 0.37975 0.04119 0.0
O2 O 0.19542 0.37437 0.01102 0.0
C3 C 0.19211 0.3529 0.94214 0.0
O4 O 0.20735 0.3573 0.95187 0.0
C5 C 0.19357 0.41108 0.04313 0.0
O6 O 0.18016 0.40171 0.04831 0.0
O7 O 0.20066 0.3759 0.08388 0.0
O8 O 0.18264 0.35563 0.06732 0.0
H9 H 0.2538 0.37068 0.14175 0.0
H10 H 0.16968 0.38187 0.97137 0.0
O11 O 0.18034 0.35155 0.96437 0.0
H12 H 0.12601 0.37484 0.0612 0.0
H13 H 0.13405 0.31484 0.985 0.0
H14 H 0.18324 0.32375 0.06102 0.0
H15 H 0.15098 0.35639 0.06029 0.0
H16 H 0.1512 0.34066 0.97992 0.0
O17 O 0.20804 0.40423 0.04067 0.0
H18 H 0.22993 0.3639 0.10317 0.0
H19 H 0.23972 0.40775 0.04322 0.0
H20 H 0.16635 0.29781 0.06719 0.0
H21 H 0.14482 0.40052 0.9711 0.0
H22 H 0.14156 0.29322 0.02898 0.0
H23 H 0.1228 0.39709 0.01634 0.0
O24 O 0.20225 0.33954 0.01596 0.0
H25 H 0.2258 0.40267 0.92183 0.0
H26 H 0.24883 0.36889 0.01808 0.0
H27 H 0.26554 0.37246 0.96469 0.0
H28 H 0.25405 0.38951 0.91609 0.0
H29 H 0.20939 0.3985 0.97547 0.0
H30 H 0.2636 0.41508 0.08131 0.0
H31 H 0.27082 0.39644 0.13091 0.0
O32 O 0.22202 0.35555 0.04155 0.0
C33 C 0.18934 0.36489 0.09052 0.0
C34 C 0.25081 0.37888 0.12017 0.0
C35 C 0.25629 0.40381 0.08628 0.0
N36 N 0.2335 0.38536 0.07088 0.0
C37 C 0.23733 0.37508 0.09819 0.0
C38 C 0.24273 0.39962 0.06486 0.0
C39 C 0.26034 0.39334 0.11409 0.0
C40 C 0.16007 0.38021 0.99093 0.0
N41 N 0.16176 0.36803 0.01575 0.0
C42 C 0.14606 0.39084 0.99074 0.0
C43 C 0.13372 0.38893 0.01616 0.0
C44 C 0.13552 0.37646 0.04135 0.0
C45 C 0.14971 0.36608 0.04077 0.0
C46 C 0.1448 0.31671 1.00184 0.0
C47 C 0.17241 0.32189 0.04445 0.0
C48 C 0.15458 0.33129 0.99904 0.0
N49 N 0.16814 0.33376 0.02033 0.0
C50 C 0.16292 0.30716 0.048 0.0
C51 C 0.14902 0.30458 0.02653 0.0
C52 C 0.21689 0.34155 0.02896 0.0
C53 C 0.23095 0.39523 0.94284 0.0
C54 C 0.24368 0.37618 0.99697 0.0
C55 C 0.25324 0.37825 0.96685 0.0
C56 C 0.24679 0.38782 0.93961 0.0
N57 N 0.22812 0.38341 0.99989 0.0
C58 C 0.22175 0.39288 0.97334 0.0
Co59 Co 0.65265 0.17888 0.01401 0.0
Co60 Co 0.62633 0.20994 0.04535 0.0
O61 O 0.63164 0.19184 0.01224 0.0
C62 C 0.65186 0.1903 0.94071 0.0
O63 O 0.6473 0.20531 0.9515 0.0
C64 C 0.59546 0.18824 0.04284 0.0
O65 O 0.60515 0.17495 0.03976 0.0
O66 O 0.63115 0.19482 0.0856 0.0
O67 O 0.6524 0.17892 0.06578 0.0
H68 H 0.63646 0.2462 0.15015 0.0
H69 H 0.62474 0.16583 0.97068 0.0
O70 O 0.65382 0.17831 0.96224 0.0
H71 H 0.63534 0.12158 0.05783 0.0
H72 H 0.6928 0.13333 0.97616 0.0
H73 H 0.68396 0.1812 0.05566 0.0
H74 H 0.65234 0.1476 0.05727 0.0
H75 H 0.6662 0.14937 0.97494 0.0
O76 O 0.60192 0.20286 0.04618 0.0
H77 H 0.64298 0.22371 0.10807 0.0
H78 H 0.59787 0.23425 0.0529 0.0
H79 H 0.7107 0.16541 0.05796 0.0
H80 H 0.6076 0.13988 0.96993 0.0
H81 H 0.71525 0.14129 0.01799 0.0
H82 H 0.61281 0.11757 0.01386 0.0
O83 O 0.66607 0.20001 0.01369 0.0
H84 H 0.60045 0.22495 0.93041 0.0
H85 H 0.63649 0.24499 0.02616 0.0
H86 H 0.63091 0.2637 0.97644 0.0
H87 H 0.61278 0.25372 0.92809 0.0
H88 H 0.60641 0.2066 0.98058 0.0
H89 H 0.59079 0.25675 0.09453 0.0
H90 H 0.61019 0.2629 0.1435 0.0
O91 O 0.65039 0.21796 0.04502 0.0
C92 C 0.64308 0.18429 0.09031 0.0
C93 C 0.62793 0.24368 0.12886 0.0
C94 C 0.60228 0.24958 0.09768 0.0
N95 N 0.62088 0.22775 0.07793 0.0
C96 C 0.63158 0.23099 0.10491 0.0
C97 C 0.60634 0.2368 0.07423 0.0
C98 C 0.61318 0.25303 0.12514 0.0
C99 C 0.6272 0.1561 0.98962 0.0
N100 N 0.63951 0.15824 0.01401 0.0
C101 C 0.6174 0.14147 0.98918 0.0
C102 C 0.62031 0.12897 0.01388 0.0
C103 C 0.63293 0.13122 0.03859 0.0
C104 C 0.64247 0.14603 0.03826 0.0
C105 C 0.69096 0.1438 0.99375 0.0
C106 C 0.68581 0.17065 0.03833 0.0
C107 C 0.67594 0.15295 0.99314 0.0
N108 N 0.67349 0.16613 0.01539 0.0
C109 C 0.70099 0.16179 0.03969 0.0
C110 C 0.70355 0.14826 0.01724 0.0
C111 C 0.66401 0.21401 0.02931 0.0
C112 C 0.60835 0.22946 0.95135 0.0
C113 C 0.62863 0.24051 0.00519 0.0
C114 C 0.62549 0.25119 0.97712 0.0
C115 C 0.61529 0.24559 0.95003 0.0
N116 N 0.62171 0.22473 0.00638 0.0
C117 C 0.61172 0.21915 0.97989 0.0
Co118 Co 0.82486 0.65182 0.01742 0.0
Co119 Co 0.79234 0.62739 0.04811 0.0
O120 O 0.81069 0.63173 0.01542 0.0
C121 C 0.81319 0.65292 0.94415 0.0
O122 O 0.79762 0.65182 0.95545 0.0
C123 C 0.81224 0.59544 0.04843 0.0
O124 O 0.82596 0.60451 0.05246 0.0
O125 O 0.80775 0.6309 0.08854 0.0
O126 O 0.82482 0.65147 0.06935 0.0
H127 H 0.75682 0.63847 0.1535 0.0
H128 H 0.83566 0.62257 0.97522 0.0
O129 O 0.82545 0.65267 0.96547 0.0
H130 H 0.88104 0.63117 0.06084 0.0
H131 H 0.8723 0.68938 0.97789 0.0
H132 H 0.82494 0.68304 0.05969 0.0
H133 H 0.85632 0.64997 0.05979 0.0
H134 H 0.85475 0.66371 0.97732 0.0
O135 O 0.7979 0.60264 0.04722 0.0
H136 H 0.77969 0.64408 0.11174 0.0
H137 H 0.76618 0.60051 0.05406 0.0
H138 H 0.84232 0.70882 0.0615 0.0
H139 H 0.86024 0.60355 0.97514 0.0
H140 H 0.86618 0.71212 0.02033 0.0
H141 H 0.88312 0.60777 0.01825 0.0
O142 O 0.80462 0.66661 0.01748 0.0
H143 H 0.77607 0.60434 0.93135 0.0
H144 H 0.75815 0.64015 0.02914 0.0
H145 H 0.73956 0.63708 0.97829 0.0
H146 H 0.74846 0.61902 0.92896 0.0
H147 H 0.79442 0.60801 0.98244 0.0
H148 H 0.74324 0.59435 0.09533 0.0
H149 H 0.7384 0.61344 0.14541 0.0
O150 O 0.78593 0.65189 0.04903 0.0
C151 C 0.81894 0.64223 0.09363 0.0
C152 C 0.75877 0.63008 0.13173 0.0
C153 C 0.75116 0.60531 0.09911 0.0
N154 N 0.7742 0.6227 0.08039 0.0
C155 C 0.77168 0.63322 0.10796 0.0
C156 C 0.7642 0.60884 0.07587 0.0
C157 C 0.74845 0.61603 0.12719 0.0
C158 C 0.84564 0.62457 0.99386 0.0
N159 N 0.84457 0.63738 0.01744 0.0
C160 C 0.8595 0.61373 0.99377 0.0
C161 C 0.87232 0.61609 0.01801 0.0
C162 C 0.87115 0.6292 0.04193 0.0
C163 C 0.8571 0.63978 0.04129 0.0
C164 C 0.86197 0.68807 0.99602 0.0
C165 C 0.83539 0.68432 0.04191 0.0
C166 C 0.85197 0.67358 0.99577 0.0
N167 N 0.83892 0.67183 0.01864 0.0
C168 C 0.84515 0.69897 0.04297 0.0
C169 C 0.85853 0.70082 0.01984 0.0
C170 C 0.7906 0.66533 0.03348 0.0
C171 C 0.77203 0.61221 0.95272 0.0
C172 C 0.76216 0.63233 0.00773 0.0
C173 C 0.75155 0.6306 0.97904 0.0
C174 C 0.75655 0.62046 0.95138 0.0
N175 N 0.77734 0.62421 0.00884 0.0
C176 C 0.78233 0.61427 0.9818 0.0
Co177 Co 0.35424 0.82667 0.00866 0.0
Co178 Co 0.38113 0.7967 0.04124 0.0
O179 O 0.37572 0.81441 0.00723 0.0
C180 C 0.3569 0.8167 0.93451 0.0
O181 O 0.36245 0.80184 0.94421 0.0
C182 C 0.4124 0.81784 0.03528 0.0
O183 O 0.40296 0.83111 0.02969 0.0
O184 O 0.37675 0.81265 0.08017 0.0
O185 O 0.3537 0.82587 0.0606 0.0
H186 H 0.37146 0.76294 0.14967 0.0
H187 H 0.38195 0.84167 0.96746 0.0
O188 O 0.3537 0.82802 0.9569 0.0
H189 H 0.36858 0.88389 0.05717 0.0
H190 H 0.31289 0.87124 0.9712 0.0
H191 H 0.32239 0.8224 0.04787 0.0
H192 H 0.35284 0.85713 0.05425 0.0
H193 H 0.34011 0.85628 0.97069 0.0
O194 O 0.40567 0.80352 0.04108 0.0
H195 H 0.36478 0.78441 0.1055 0.0
H196 H 0.40934 0.77213 0.05 0.0
H197 H 0.29503 0.83709 0.04943 0.0
H198 H 0.3978 0.86842 0.96903 0.0
H199 H 0.29014 0.86171 0.01088 0.0
H200 H 0.3912 0.88971 0.01427 0.0
O201 O 0.34181 0.80508 0.00619 0.0
H202 H 0.40602 0.77957 0.9267 0.0
H203 H 0.37072 0.76136 0.02509 0.0
H204 H 0.37582 0.74177 0.97662 0.0
H205 H 0.39357 0.75083 0.92693 0.0
H206 H 0.40054 0.7988 0.97567 0.0
H207 H 0.41652 0.75054 0.09361 0.0
H208 H 0.39749 0.74581 0.14385 0.0
O209 O 0.3569 0.78874 0.04207 0.0
C210 C 0.36384 0.82191 0.08494 0.0
C211 C 0.37982 0.76483 0.12783 0.0
C212 C 0.40513 0.7579 0.09639 0.0
N213 N 0.38659 0.77944 0.07508 0.0
C214 C 0.37608 0.77695 0.1027 0.0
C215 C 0.401 0.77016 0.07181 0.0
C216 C 0.39444 0.75524 0.12457 0.0
C217 C 0.37888 0.85096 0.98696 0.0
N218 N 0.36652 0.84781 0.01076 0.0
C219 C 0.38795 0.86604 0.98784 0.0
C220 C 0.38427 0.87797 0.01327 0.0
C221 C 0.3716 0.8747 0.03738 0.0
C222 C 0.3628 0.85947 0.03572 0.0
C223 C 0.31489 0.86057 0.9882 0.0
C224 C 0.32041 0.83318 0.03122 0.0
C225 C 0.33027 0.85203 0.98801 0.0
N226 N 0.3329 0.83858 0.00952 0.0
C227 C 0.30487 0.84141 0.03213 0.0
C228 C 0.30213 0.85521 0.01047 0.0
C229 C 0.34373 0.79166 0.02388 0.0
C230 C 0.39829 0.77546 0.94823 0.0
C231 C 0.37842 0.76544 0.00353 0.0
C232 C 0.38128 0.75427 0.97618 0.0
C233 C 0.39127 0.75935 0.94834 0.0
N234 N 0.3854 0.7812 0.0033 0.0
C235 C 0.3952 0.78627 0.9761 0.0
Co236 Co 0.18323 0.64794 0.01623 0.0
Co237 Co 0.21487 0.62218 0.986 0.0
O238 O 0.19658 0.62724 0.01862 0.0
C239 C 0.19441 0.64751 0.0896 0.0
O240 O 0.20951 0.64315 0.07899 0.0
C241 C 0.19372 0.59098 0.98591 0.0
O242 O 0.18029 0.60052 0.98282 0.0
O243 O 0.19974 0.62628 0.94539 0.0
O244 O 0.18341 0.64738 0.96449 0.0
H245 H 0.25101 0.63196 0.88091 0.0
H246 H 0.17115 0.61932 0.05868 0.0
O247 O 0.18245 0.64931 0.06793 0.0
H248 H 0.12626 0.62944 0.97271 0.0
H249 H 0.13695 0.68758 0.0527 0.0
H250 H 0.18505 0.67899 0.9737 0.0
H251 H 0.15171 0.64727 0.97373 0.0
H252 H 0.15342 0.66123 0.05474 0.0
O253 O 0.20832 0.59767 0.98662 0.0
H254 H 0.22834 0.63845 0.92258 0.0
H255 H 0.23991 0.59428 0.9801 0.0
H256 H 0.16885 0.70546 0.97057 0.0
H257 H 0.14582 0.60127 0.05888 0.0
H258 H 0.14461 0.70989 0.01029 0.0
H259 H 0.12318 0.60625 0.01557 0.0
O260 O 0.20411 0.6618 0.01661 0.0
H261 H 0.23011 0.59798 0.10235 0.0
H262 H 0.24951 0.63357 0.00531 0.0
H263 H 0.26804 0.62932 0.0559 0.0
H264 H 0.25838 0.61139 0.10487 0.0
H265 H 0.21191 0.60271 0.05143 0.0
H266 H 0.26261 0.58723 0.9389 0.0
H267 H 0.26832 0.60618 0.88895 0.0
O268 O 0.2223 0.64643 0.98521 0.0
C269 C 0.18896 0.63796 0.94029 0.0
C270 C 0.24867 0.62363 0.90263 0.0
C271 C 0.25517 0.59851 0.93515 0.0
N272 N 0.23288 0.61682 0.95385 0.0
C273 C 0.23589 0.62726 0.92635 0.0
C274 C 0.24227 0.60255 0.95834 0.0
C275 C 0.25837 0.60915 0.90713 0.0
C276 C 0.16128 0.62165 0.03995 0.0
N277 N 0.16291 0.63433 0.0162 0.0
C278 C 0.147 0.61135 0.04011 0.0
C279 C 0.13432 0.61413 0.01576 0.0
C280 C 0.13604 0.62713 0.99169 0.0
C281 C 0.15052 0.63714 0.99228 0.0
C282 C 0.14747 0.68578 0.03521 0.0
C283 C 0.17445 0.68078 0.99092 0.0
C284 C 0.15686 0.67091 0.0363 0.0
N285 N 0.1701 0.66853 0.01419 0.0
C286 C 0.16536 0.69582 0.98909 0.0
C287 C 0.15177 0.69829 0.0114 0.0
C288 C 0.21812 0.65999 1.00089 0.0
C289 C 0.23448 0.60578 0.08113 0.0
C290 C 0.24518 0.62579 0.02656 0.0
C291 C 0.25575 0.6234 0.0551 0.0
C292 C 0.25033 0.61333 0.08255 0.0
N293 N 0.22965 0.61834 0.02534 0.0
C294 C 0.22426 0.60844 0.05215 0.0
Co295 Co 0.35768 0.18003 0.01077 0.0
Co296 Co 0.38448 0.21226 0.9847 0.0
O297 O 0.37824 0.1936 0.01584 0.0
C298 C 0.35535 0.19261 0.08324 0.0
O299 O 0.36103 0.20728 0.07264 0.0
C300 C 0.41512 0.19012 0.98827 0.0
O301 O 0.40533 0.17695 0.99224 0.0
O302 O 0.37991 0.19828 0.94244 0.0
O303 O 0.3608 0.17916 0.95963 0.0
H304 H 0.3764 0.25118 0.88325 0.0
H305 H 0.38368 0.16893 0.06089 0.0
O306 O 0.35376 0.18043 0.06203 0.0
H307 H 0.37859 0.12242 0.97671 0.0
H308 H 0.31673 0.13414 0.0434 0.0
H309 H 0.32899 0.18033 0.96158 0.0
H310 H 0.36091 0.14781 0.97118 0.0
H311 H 0.34265 0.15107 0.04949 0.0
O312 O 0.40878 0.20475 0.98422 0.0
H313 H 0.36888 0.22788 0.92273 0.0
H314 H 0.41354 0.23615 0.98105 0.0
H315 H 0.30304 0.16359 0.95429 0.0
H316 H 0.40145 0.14365 0.06773 0.0
H317 H 0.29676 0.14031 0.99543 0.0
H318 H 0.39902 0.12021 0.02533 0.0
O319 O 0.34358 0.20063 0.00616 0.0
H320 H 0.40855 0.2234 0.10312 0.0
H321 H 0.37526 0.24713 0.00683 0.0
H322 H 0.38012 0.2642 0.05931 0.0
H323 H 0.39691 0.25235 0.10792 0.0
H324 H 0.4032 0.20669 0.05032 0.0
H325 H 0.42161 0.25945 0.94204 0.0
H326 H 0.40294 0.26714 0.89281 0.0
O327 O 0.36063 0.22068 0.98468 0.0
C328 C 0.36971 0.18618 0.93627 0.0
C329 C 0.38461 0.24798 0.90467 0.0
C330 C 0.41 0.2526 0.93764 0.0
N331 N 0.3907 0.23073 0.95428 0.0
C332 C 0.3804 0.23483 0.92716 0.0
C333 C 0.40539 0.23937 0.95958 0.0
C334 C 0.39951 0.25692 0.91003 0.0
C335 C 0.38243 0.1587 0.04256 0.0
N336 N 0.3713 0.15987 0.01562 0.0
C337 C 0.39258 0.14446 0.04647 0.0
C338 C 0.39123 0.13132 0.02263 0.0
C339 C 0.37979 0.13257 0.99531 0.0
C340 C 0.36987 0.14702 0.99219 0.0
C341 C 0.31934 0.14423 0.02528 0.0
C342 C 0.32641 0.17015 0.97944 0.0
C343 C 0.33398 0.15389 0.02865 0.0
N344 N 0.33739 0.1666 0.00576 0.0
C345 C 0.31166 0.16075 0.97525 0.0
C346 C 0.30814 0.1477 0.99835 0.0
C347 C 0.34619 0.21546 0.99459 0.0
C348 C 0.40125 0.22872 0.08208 0.0
C349 C 0.38249 0.24185 0.02792 0.0
C350 C 0.38526 0.2516 0.05754 0.0
C351 C 0.39469 0.24495 0.08479 0.0
N352 N 0.38895 0.22593 0.02545 0.0
C353 C 0.39823 0.21934 0.05205 0.0
Co354 Co 0.82267 0.35933 0.01611 0.0
Co355 Co 0.79077 0.38425 0.98496 0.0
O356 O 0.80918 0.37989 0.01759 0.0
C357 C 0.812 0.35975 0.08976 0.0
O358 O 0.79642 0.36161 0.07896 0.0
C359 C 0.81114 0.41595 0.98375 0.0
O360 O 0.82474 0.40669 0.98027 0.0
O361 O 0.80607 0.38023 0.94463 0.0
O362 O 0.82179 0.35877 0.96426 0.0
H363 H 0.75495 0.37293 0.88003 0.0
H364 H 0.83534 0.38873 0.05568 0.0
O365 O 0.82407 0.35923 0.06799 0.0
H366 H 0.87856 0.37753 0.96672 0.0
H367 H 0.86978 0.32105 0.05409 0.0
H368 H 0.82068 0.3273 0.97673 0.0
H369 H 0.85329 0.35956 0.97104 0.0
H370 H 0.85304 0.34724 0.05436 0.0
O371 O 0.79669 0.40893 0.98502 0.0
H372 H 0.77777 0.36728 0.9219 0.0
H373 H 0.76503 0.41145 0.97829 0.0
H374 H 0.83712 0.30094 0.97549 0.0
H375 H 0.86052 0.40692 0.05254 0.0
H376 H 0.86188 0.2977 0.01436 0.0
H377 H 0.88232 0.4014 0.00772 0.0
O378 O 0.80195 0.34533 0.01845 0.0
H379 H 0.77507 0.40841 0.10102 0.0
H380 H 0.75635 0.37224 0.00435 0.0
H381 H 0.73775 0.37623 0.05491 0.0
H382 H 0.74707 0.39445 0.10368 0.0
H383 H 0.79334 0.40395 0.05011 0.0
H384 H 0.74216 0.41766 0.93688 0.0
H385 H 0.73696 0.39829 0.8874 0.0
O386 O 0.78394 0.35978 0.98478 0.0
C387 C 0.81643 0.36815 0.93975 0.0
C388 C 0.75706 0.38145 0.90154 0.0
C389 C 0.7499 0.40656 0.93342 0.0
N390 N 0.77265 0.38896 0.95262 0.0
C391 C 0.76993 0.37828 0.92537 0.0
C392 C 0.76289 0.403 0.95673 0.0
C393 C 0.74698 0.39568 0.90568 0.0
C394 C 0.84486 0.38615 0.03635 0.0
N395 N 0.84287 0.37307 0.01365 0.0
C396 C 0.85905 0.39653 0.0346 0.0
C397 C 0.87126 0.39344 0.00941 0.0
C398 C 0.86916 0.38006 0.98638 0.0
C399 C 0.85479 0.36996 0.98889 0.0
C400 C 0.85905 0.32233 0.03696 0.0
C401 C 0.8315 0.32602 0.99357 0.0
C402 C 0.84951 0.33712 0.03703 0.0
N403 N 0.83599 0.33885 0.01535 0.0
C404 C 0.84073 0.31105 0.99282 0.0
C405 C 0.85461 0.30923 0.01466 0.0
C406 C 0.7881 0.34662 1.0019 0.0
C407 C 0.77085 0.40048 0.07988 0.0
C408 C 0.76052 0.38016 0.0255 0.0
C409 C 0.74992 0.3824 0.05403 0.0
C410 C 0.75515 0.39263 0.08138 0.0
N411 N 0.77589 0.38793 0.02419 0.0
C412 C 0.78111 0.39796 0.05092 0.0
Co413 Co 0.64966 0.82751 0.00932 0.0
Co414 Co 0.62391 0.79518 0.98066 0.0
O415 O 0.62914 0.81382 0.01245 0.0
C416 C 0.65041 0.81584 0.08243 0.0
O417 O 0.64646 0.80065 0.07158 0.0
C418 C 0.59293 0.81666 0.98161 0.0
O419 O 0.6026 0.83005 0.98325 0.0
O420 O 0.62851 0.80963 0.9392 0.0
O421 O 0.64841 0.82761 0.95769 0.0
H422 H 0.63416 0.75733 0.87839 0.0
H423 H 0.62186 0.83916 0.05457 0.0
O424 O 0.65165 0.82797 0.06097 0.0
H425 H 0.62957 0.88434 0.96814 0.0
H426 H 0.68885 0.87434 0.04516 0.0
H427 H 0.68019 0.82662 0.96513 0.0
H428 H 0.64759 0.85905 0.96707 0.0
H429 H 0.66287 0.85732 0.048 0.0
O430 O 0.59944 0.80201 0.97952 0.0
H431 H 0.64058 0.78054 0.91889 0.0
H432 H 0.59566 0.77044 0.97509 0.0
H433 H 0.7063 0.8434 0.96117 0.0
H434 H 0.60371 0.86435 0.05692 0.0
H435 H 0.71077 0.86745 1.0014 0.0
H436 H 0.60747 0.88713 0.01338 0.0
O437 O 0.66395 0.80692 0.00821 0.0
H438 H 0.59858 0.78217 0.09712 0.0
H439 H 0.63439 0.76062 1.00251 0.0
H440 H 0.62942 0.74295 0.05414 0.0
H441 H 0.61136 0.75369 0.10187 0.0
H442 H 0.60407 0.79951 0.04524 0.0
H443 H 0.58869 0.74721 0.93506 0.0
H444 H 0.60805 0.74048 0.88636 0.0
O445 O 0.64802 0.78746 0.98144 0.0
C446 C 0.63947 0.82112 0.93371 0.0
C447 C 0.62565 0.76011 0.89957 0.0
C448 C 0.60012 0.75444 0.93135 0.0
N449 N 0.61857 0.77676 0.94944 0.0
C450 C 0.62924 0.7732 0.92263 0.0
C451 C 0.60411 0.76764 0.95388 0.0
C452 C 0.61099 0.75067 0.90404 0.0
C453 C 0.62369 0.8491 0.03576 0.0
N454 N 0.63576 0.84761 0.01068 0.0
C455 C 0.61332 0.8633 0.03712 0.0
C456 C 0.61541 0.87606 0.01264 0.0
C457 C 0.6278 0.87449 0.98722 0.0
C458 C 0.63791 0.86009 0.98663 0.0
C459 C 0.68705 0.86391 0.02744 0.0
C460 C 0.682 0.83713 0.98258 0.0
C461 C 0.67237 0.8542 0.02898 0.0
N462 N 0.66997 0.84106 0.0066 0.0
C463 C 0.69683 0.84656 0.98028 0.0
C464 C 0.69933 0.86004 1.00288 0.0
C465 C 0.66194 0.79238 0.9947 0.0
C466 C 0.60644 0.77733 0.07645 0.0
C467 C 0.62658 0.76542 0.02323 0.0
C468 C 0.62377 0.75534 0.05236 0.0
C469 C 0.61363 0.76136 0.07912 0.0
N470 N 0.61947 0.78106 0.02077 0.0
C471 C 0.60953 0.78706 0.04693 0.0
Co472 Co 0.68144 0.85514 0.51049 0.0
Co473 Co 0.71356 0.88163 0.53694 0.0
O474 O 0.69461 0.87598 0.5063 0.0
C475 C 0.69183 0.85501 0.43659 0.0
O476 O 0.70676 0.86046 0.44604 0.0
C477 C 0.69196 0.91269 0.53812 0.0
O478 O 0.67848 0.90316 0.54039 0.0
O479 O 0.6996 0.87716 0.57928 0.0
O480 O 0.68217 0.85653 0.56199 0.0
H481 H 0.75269 0.87248 0.63763 0.0
H482 H 0.66858 0.8827 0.46603 0.0
O483 O 0.68024 0.85285 0.45894 0.0
H484 H 0.62509 0.8743 0.55574 0.0
H485 H 0.63491 0.81491 0.47811 0.0
H486 H 0.68365 0.8247 0.55492 0.0
H487 H 0.65066 0.85667 0.55498 0.0
H488 H 0.65135 0.84122 0.47389 0.0
O489 O 0.70654 0.906 0.53737 0.0
H490 H 0.72906 0.86558 0.59854 0.0
H491 H 0.7381 0.91017 0.54042 0.0
H492 H 0.66747 0.79827 0.56021 0.0
H493 H 0.6431 0.9005 0.46558 0.0
H494 H 0.64291 0.79324 0.52161 0.0
H495 H 0.62117 0.89638 0.51076 0.0
O496 O 0.70228 0.84124 0.5105 0.0
H497 H 0.72471 0.90621 0.41898 0.0
H498 H 0.74819 0.87191 0.51401 0.0
H499 H 0.76516 0.87682 0.46142 0.0
H500 H 0.75344 0.89412 0.41344 0.0
H501 H 0.70809 0.90077 0.47186 0.0
H502 H 0.76172 0.91764 0.57909 0.0
H503 H 0.76919 0.89868 0.62802 0.0
O504 O 0.72158 0.85762 0.5366 0.0
C505 C 0.68859 0.86579 0.58552 0.0
C506 C 0.74958 0.88082 0.61635 0.0
C507 C 0.75463 0.90618 0.58353 0.0
N508 N 0.73226 0.88741 0.56712 0.0
C509 C 0.73624 0.87696 0.59408 0.0
C510 C 0.74121 0.90191 0.56178 0.0
C511 C 0.75882 0.89553 0.61097 0.0
C512 C 0.65901 0.88073 0.48555 0.0
N513 N 0.66108 0.86864 0.51042 0.0
C514 C 0.64465 0.89089 0.48526 0.0
C515 C 0.63236 0.88859 0.51066 0.0
C516 C 0.63456 0.87621 0.53592 0.0
C517 C 0.64909 0.86631 0.53542 0.0
C518 C 0.64556 0.81697 0.49513 0.0
C519 C 0.6729 0.82265 0.53819 0.0
C520 C 0.65493 0.83184 0.49283 0.0
N521 N 0.66836 0.83456 0.51434 0.0
C522 C 0.66382 0.80764 0.54123 0.0
C523 C 0.65005 0.80482 0.51955 0.0
C524 C 0.71681 0.84354 0.52378 0.0
C525 C 0.72996 0.89866 0.43972 0.0
C526 C 0.74294 0.8793 0.49315 0.0
C527 C 0.75264 0.88212 0.46349 0.0
C528 C 0.74607 0.89185 0.4366 0.0
N529 N 0.72714 0.88599 0.496 0.0
C530 C 0.72063 0.89559 0.46978 0.0
Co531 Co 0.15708 0.67906 0.51881 0.0
Co532 Co 0.12682 0.70857 0.54004 0.0
O533 O 0.13524 0.68986 0.51188 0.0
C534 C 0.15803 0.68902 0.4449 0.0
O535 O 0.15191 0.70373 0.45405 0.0
C536 C 0.09335 0.69488 0.56202 0.0
O537 O 0.09801 0.69696 0.59444 0.0
O538 O 0.13193 0.69595 0.58398 0.0
O539 O 0.15436 0.68016 0.56994 0.0
H540 H 0.12801 0.74984 0.63883 0.0
H541 H 0.13177 0.66298 0.47301 0.0
O542 O 0.1605 0.67761 0.46754 0.0
H543 H 0.14325 0.62127 0.5649 0.0
H544 H 0.20269 0.63688 0.49253 0.0
H545 H 0.18595 0.68484 0.56617 0.0
H546 H 0.15803 0.64861 0.56435 0.0
H547 H 0.17495 0.65038 0.48494 0.0
O548 O 0.10365 0.69816 0.5375 0.0
H549 H 0.13886 0.72668 0.60246 0.0
H550 H 0.09583 0.72997 0.53729 0.0
H551 H 0.21376 0.67163 0.57483 0.0
H552 H 0.11686 0.63568 0.47229 0.0
H553 H 0.22229 0.64746 0.53784 0.0
H554 H 0.12254 0.61462 0.51853 0.0
O555 O 0.16863 0.70128 0.51918 0.0
H556 H 0.10475 0.71453 0.41838 0.0
H557 H 0.13309 0.74368 0.5151 0.0
H558 H 0.12796 0.75895 0.46042 0.0
H559 H 0.11365 0.74437 0.41158 0.0
H560 H 0.11036 0.69967 0.47335 0.0
H561 H 0.08446 0.75308 0.57308 0.0
H562 H 0.10061 0.76318 0.62423 0.0
O563 O 0.14977 0.71944 0.54154 0.0
C564 C 0.14403 0.68606 0.59207 0.0
C565 C 0.12087 0.74556 0.61658 0.0
C566 C 0.09642 0.74738 0.57969 0.0
N567 N 0.11802 0.72701 0.56776 0.0
C568 C 0.12696 0.73248 0.59587 0.0
C569 C 0.10292 0.73428 0.55954 0.0
C570 C 0.10549 0.75304 0.60838 0.0
C571 C 0.1344 0.65382 0.49307 0.0
N572 N 0.1458 0.65736 0.51861 0.0
C573 C 0.12588 0.63841 0.49259 0.0
C574 C 0.12906 0.62661 0.51857 0.0
C575 C 0.14068 0.63033 0.5446 0.0
C576 C 0.14896 0.64587 0.54422 0.0
C577 C 0.19911 0.64738 0.50885 0.0
C578 C 0.18954 0.67427 0.55012 0.0
C579 C 0.18343 0.65509 0.50463 0.0
N580 N 0.1788 0.66831 0.52527 0.0
C581 C 0.20531 0.66686 0.55508 0.0
C582 C 0.2101 0.65332 0.53429 0.0
C583 C 0.16457 0.71578 0.53075 0.0
C584 C 0.11098 0.72103 0.43949 0.0
C585 C 0.12701 0.7372 0.49389 0.0
C586 C 0.12405 0.74594 0.46303 0.0
C587 C 0.116 0.73776 0.43566 0.0
N588 N 0.12208 0.72079 0.49745 0.0
C589 C 0.11413 0.7127 0.47074 0.0
Co590 Co 0.32668 0.15385 0.51292 0.0
Co591 Co 0.29462 0.12779 0.5401 0.0
O592 O 0.31335 0.13318 0.50883 0.0
C593 C 0.31628 0.15431 0.43916 0.0
O594 O 0.30104 0.15017 0.44931 0.0
C595 C 0.31548 0.09639 0.54006 0.0
O596 O 0.32898 0.10574 0.54438 0.0
O597 O 0.30928 0.13132 0.58169 0.0
O598 O 0.32569 0.1528 0.56461 0.0
H599 H 0.2572 0.13642 0.64367 0.0
H600 H 0.33957 0.12584 0.46971 0.0
O601 O 0.32814 0.1557 0.46121 0.0
H602 H 0.38255 0.13451 0.56043 0.0
H603 H 0.37377 0.19345 0.48072 0.0
H604 H 0.32445 0.18459 0.55639 0.0
H605 H 0.35722 0.15244 0.55818 0.0
H606 H 0.35709 0.16728 0.47671 0.0
O607 O 0.30099 0.10326 0.5386 0.0
H608 H 0.28045 0.14331 0.60363 0.0
H609 H 0.2693 0.09999 0.54308 0.0
H610 H 0.34086 0.21089 0.56148 0.0
H611 H 0.36484 0.10774 0.47072 0.0
H612 H 0.36572 0.21545 0.52345 0.0
H613 H 0.38651 0.11199 0.51642 0.0
O614 O 0.3059 0.16778 0.51205 0.0
H615 H 0.2809 0.10537 0.42146 0.0
H616 H 0.26029 0.13955 0.51946 0.0
H617 H 0.24255 0.13628 0.4674 0.0
H618 H 0.25282 0.11906 0.41794 0.0
H619 H 0.29835 0.10917 0.47384 0.0
H620 H 0.24602 0.09255 0.58262 0.0
H621 H 0.2398 0.11087 0.63327 0.0
O622 O 0.28733 0.15205 0.54173 0.0
C623 C 0.31987 0.14306 0.58803 0.0
C624 C 0.25976 0.12836 0.62164 0.0
C625 C 0.2535 0.10373 0.5874 0.0
N626 N 0.27616 0.12212 0.57095 0.0
C627 C 0.27288 0.13222 0.59884 0.0
C628 C 0.26672 0.10798 0.56515 0.0
C629 C 0.25001 0.11402 0.61581 0.0
C630 C 0.34904 0.12787 0.48944 0.0
N631 N 0.34695 0.1402 0.51377 0.0
C632 C 0.36328 0.11754 0.48998 0.0
C633 C 0.37542 0.11991 0.51566 0.0
C634 C 0.3732 0.13254 0.54037 0.0
C635 C 0.3588 0.14262 0.53903 0.0
C636 C 0.36298 0.1916 0.49748 0.0
C637 C 0.33531 0.18644 0.5399 0.0
C638 C 0.35347 0.17682 0.49529 0.0
N639 N 0.33989 0.17436 0.51649 0.0
C640 C 0.34453 0.20138 0.54283 0.0
C641 C 0.35846 0.20393 0.52147 0.0
C642 C 0.29174 0.16583 0.52714 0.0
C643 C 0.27627 0.11287 0.44288 0.0
C644 C 0.2649 0.13209 0.49801 0.0
C645 C 0.25476 0.13025 0.46863 0.0
C646 C 0.26053 0.12057 0.4409 0.0
N647 N 0.28034 0.12452 0.49975 0.0
C648 C 0.28606 0.11499 0.47268 0.0
Co649 Co 0.85343 0.32999 0.5187 0.0
Co650 Co 0.88101 0.29818 0.54139 0.0
O651 O 0.87412 0.31713 0.51231 0.0
C652 C 0.8498 0.31865 0.44558 0.0
O653 O 0.85204 0.30306 0.45603 0.0
C654 C 0.91532 0.30938 0.56324 0.0
O655 O 0.91042 0.30747 0.59556 0.0
O656 O 0.87693 0.3116 0.58476 0.0
O657 O 0.85646 0.32978 0.56992 0.0
H658 H 0.87637 0.25799 0.64166 0.0
H659 H 0.88028 0.34228 0.47167 0.0
O660 O 0.8501 0.33074 0.46727 0.0
H661 H 0.87221 0.38769 0.55739 0.0
H662 H 0.81142 0.37537 0.48929 0.0
H663 H 0.82474 0.32811 0.56775 0.0
H664 H 0.855 0.36183 0.55994 0.0
H665 H 0.83771 0.35917 0.48201 0.0
O666 O 0.90494 0.30672 0.53852 0.0
H667 H 0.86756 0.28176 0.60459 0.0
H668 H 0.91003 0.27422 0.53941 0.0
H669 H 0.79844 0.34411 0.57625 0.0
H670 H 0.89767 0.368 0.46789 0.0
H671 H 0.79163 0.36792 0.53681 0.0
H672 H 0.89371 0.39092 0.51102 0.0
O673 O 0.8398 0.30889 0.52149 0.0
H674 H 0.90178 0.28933 0.41954 0.0
H675 H 0.87151 0.26357 0.51784 0.0
H676 H 0.87469 0.24759 0.4634 0.0
H677 H 0.88996 0.26047 0.41376 0.0
H678 H 0.89806 0.30496 0.47427 0.0
H679 H 0.91933 0.2504 0.57582 0.0
H680 H 0.90244 0.24213 0.62734 0.0
O681 O 0.85732 0.28934 0.54346 0.0
C682 C 0.86613 0.32298 0.5923 0.0
C683 C 0.88383 0.26146 0.61926 0.0
C684 C 0.90795 0.2572 0.58232 0.0
N685 N 0.88826 0.27935 0.56987 0.0
C686 C 0.8789 0.27489 0.59817 0.0
C687 C 0.90263 0.27071 0.56183 0.0
C688 C 0.89846 0.25257 0.61122 0.0
C689 C 0.87844 0.35222 0.49047 0.0
N690 N 0.86667 0.35053 0.51609 0.0
C691 C 0.88834 0.36675 0.48822 0.0
C692 C 0.88613 0.37959 0.51245 0.0
C693 C 0.87408 0.37778 0.53849 0.0
C694 C 0.86443 0.36307 0.53993 0.0
C695 C 0.81426 0.36503 0.50667 0.0
C696 C 0.82192 0.33853 0.55063 0.0
C697 C 0.8291 0.35578 0.5026 0.0
N698 N 0.83281 0.34279 0.52459 0.0
C699 C 0.80698 0.34751 0.5555 0.0
C700 C 0.80316 0.36085 0.53335 0.0
C701 C 0.84275 0.29415 0.53334 0.0
C702 C 0.89513 0.28357 0.44101 0.0
C703 C 0.87808 0.2693 0.49633 0.0
C704 C 0.87991 0.26016 0.4656 0.0
C705 C 0.88848 0.26738 0.43777 0.0
N706 N 0.8846 0.28519 0.49931 0.0
C707 C 0.89305 0.29233 0.47214 0.0
Co708 Co 0.68316 0.1504 0.51276 0.0
Co709 Co 0.71594 0.12417 0.48886 0.0
O710 O 0.69679 0.13003 0.51864 0.0
C711 C 0.69396 0.15243 0.58629 0.0
O712 O 0.70902 0.14744 0.57674 0.0
C713 C 0.69439 0.09314 0.48696 0.0
O714 O 0.68118 0.10269 0.48123 0.0
O715 O 0.70227 0.12797 0.44583 0.0
O716 O 0.68368 0.14786 0.46146 0.0
H717 H 0.75554 0.13209 0.38852 0.0
H718 H 0.67137 0.12325 0.55953 0.0
O719 O 0.68214 0.15372 0.56413 0.0
H720 H 0.62697 0.12897 0.4708 0.0
H721 H 0.63591 0.19021 0.54233 0.0
H722 H 0.68442 0.17979 0.46535 0.0
H723 H 0.65203 0.14735 0.46959 0.0
H724 H 0.65298 0.16442 0.54874 0.0
O725 O 0.70896 0.09978 0.48978 0.0
H726 H 0.73177 0.1395 0.42682 0.0
H727 H 0.74055 0.09571 0.4876 0.0
H728 H 0.66761 0.20567 0.45785 0.0
H729 H 0.64643 0.10469 0.56192 0.0
H730 H 0.64316 0.21101 0.49653 0.0
H731 H 0.62404 0.10746 0.51725 0.0
O732 O 0.7037 0.16479 0.51106 0.0
H733 H 0.72643 0.10147 0.60865 0.0
H734 H 0.75035 0.13449 0.51213 0.0
H735 H 0.76697 0.13058 0.56556 0.0
H736 H 0.75502 0.11393 0.61429 0.0
H737 H 0.71017 0.10589 0.5549 0.0
H738 H 0.76432 0.08776 0.4498 0.0
H739 H 0.77199 0.10605 0.39992 0.0
O740 O 0.7238 0.14827 0.48811 0.0
C741 C 0.69068 0.13858 0.43869 0.0
C742 C 0.75235 0.12405 0.41024 0.0
C743 C 0.75726 0.09915 0.4446 0.0
N744 N 0.73485 0.11811 0.45954 0.0
C745 C 0.73894 0.1282 0.43207 0.0
C746 C 0.74376 0.1037 0.46586 0.0
C747 C 0.76157 0.10942 0.41663 0.0
C748 C 0.6616 0.12462 0.54019 0.0
N749 N 0.66313 0.13639 0.51451 0.0
C750 C 0.64755 0.11404 0.54159 0.0
C751 C 0.635 0.11558 0.5165 0.0
C752 C 0.63664 0.12764 0.49041 0.0
C753 C 0.65089 0.13798 0.48979 0.0
C754 C 0.64651 0.188 0.52527 0.0
C755 C 0.67373 0.18198 0.48213 0.0
C756 C 0.65624 0.17344 0.52882 0.0
N757 N 0.6696 0.17055 0.50726 0.0
C758 C 0.66429 0.19668 0.47783 0.0
C759 C 0.65058 0.19967 0.49956 0.0
C760 C 0.71851 0.16252 0.49906 0.0
C761 C 0.73178 0.10874 0.58759 0.0
C762 C 0.74501 0.12736 0.5333 0.0
C763 C 0.75451 0.12511 0.56344 0.0
C764 C 0.74781 0.11575 0.59076 0.0
N765 N 0.72928 0.12049 0.5304 0.0
C766 C 0.72265 0.11124 0.55703 0.0
Co767 Co 0.85824 0.68107 0.5174 0.0
Co768 Co 0.88355 0.71376 0.4896 0.0
O769 O 0.87858 0.69489 0.52069 0.0
C770 C 0.85683 0.69241 0.59069 0.0
O771 O 0.85872 0.70793 0.57951 0.0
C772 C 0.91499 0.6929 0.48833 0.0
O773 O 0.90567 0.67933 0.48468 0.0
O774 O 0.87933 0.69939 0.44774 0.0
O775 O 0.85915 0.68154 0.46563 0.0
H776 H 0.87326 0.75189 0.38775 0.0
H777 H 0.88674 0.6694 0.56087 0.0
O778 O 0.85681 0.68017 0.5693 0.0
H779 H 0.8787 0.62507 0.47273 0.0
H780 H 0.8197 0.63383 0.55377 0.0
H781 H 0.82745 0.68176 0.47382 0.0
H782 H 0.86023 0.65003 0.47384 0.0
H783 H 0.84558 0.65103 0.55598 0.0
O784 O 0.90808 0.70738 0.48949 0.0
H785 H 0.86699 0.72842 0.4277 0.0
H786 H 0.91142 0.73899 0.48518 0.0
H787 H 0.80145 0.66477 0.47044 0.0
H788 H 0.9054 0.64454 0.56095 0.0
H789 H 0.79744 0.64062 0.51066 0.0
H790 H 0.90147 0.62219 0.51656 0.0
O791 O 0.84366 0.70149 0.51708 0.0
H792 H 0.90738 0.72622 0.60766 0.0
H793 H 0.87305 0.74834 0.51132 0.0
H794 H 0.87734 0.76576 0.56352 0.0
H795 H 0.89465 0.75472 0.61216 0.0
H796 H 0.90258 0.70915 0.55512 0.0
H797 H 0.91825 0.76249 0.44569 0.0
H798 H 0.89906 0.76911 0.39664 0.0
O799 O 0.85933 0.72105 0.4899 0.0
C800 C 0.86817 0.68812 0.44181 0.0
C801 C 0.8817 0.74916 0.40908 0.0
C802 C 0.90696 0.75509 0.44157 0.0
N803 N 0.88877 0.7324 0.45885 0.0
C804 C 0.87819 0.73591 0.43183 0.0
C805 C 0.90305 0.74174 0.46379 0.0
C806 C 0.89618 0.7588 0.41406 0.0
C807 C 0.88485 0.65964 0.54169 0.0
N808 N 0.87239 0.66115 0.51744 0.0
C809 C 0.8955 0.64563 0.54178 0.0
C810 C 0.8933 0.63311 0.51683 0.0
C811 C 0.88054 0.63472 0.49221 0.0
C812 C 0.87015 0.64891 0.4929 0.0
C813 C 0.82132 0.64429 0.53605 0.0
C814 C 0.82586 0.67118 0.4912 0.0
C815 C 0.83593 0.6541 0.53722 0.0
N816 N 0.83808 0.6673 0.51486 0.0
C817 C 0.81109 0.66164 0.48925 0.0
C818 C 0.80884 0.64811 0.51185 0.0
C819 C 0.84547 0.71599 0.50322 0.0
C820 C 0.89982 0.73117 0.58663 0.0
C821 C 0.88047 0.74339 0.53245 0.0
C822 C 0.88293 0.75335 0.5619 0.0
C823 C 0.89266 0.74716 0.58916 0.0
N824 N 0.88752 0.72772 0.53015 0.0
C825 C 0.8971 0.72158 0.55677 0.0
Co826 Co 0.3247 0.85828 0.50539 0.0
Co827 Co 0.2926 0.88529 0.48354 0.0
O828 O 0.31215 0.87928 0.51189 0.0
C829 C 0.31707 0.85807 0.58041 0.0
O830 O 0.30153 0.86216 0.5723 0.0
C831 C 0.31386 0.91651 0.48201 0.0
O832 O 0.32711 0.90714 0.47542 0.0
O833 O 0.306 0.882 0.44011 0.0
O834 O 0.3216 0.85934 0.45399 0.0
H835 H 0.25202 0.87823 0.38457 0.0
H836 H 0.34004 0.88588 0.54641 0.0
O837 O 0.32812 0.85643 0.55672 0.0
H838 H 0.37904 0.87621 0.44885 0.0
H839 H 0.3717 0.81741 0.53011 0.0
H840 H 0.31999 0.82764 0.46237 0.0
H841 H 0.35331 0.85903 0.45511 0.0
H842 H 0.356 0.84405 0.53659 0.0
O843 O 0.2994 0.90971 0.48523 0.0
H844 H 0.27629 0.87062 0.42136 0.0
H845 H 0.2677 0.91349 0.48489 0.0
H846 H 0.33537 0.80089 0.45487 0.0
H847 H 0.36573 0.90325 0.54133 0.0
H848 H 0.36142 0.79564 0.48891 0.0
H849 H 0.3854 0.89849 0.4922 0.0
O850 O 0.30368 0.84488 0.50945 0.0
H851 H 0.28327 0.90635 0.60498 0.0
H852 H 0.25854 0.87435 0.50791 0.0
H853 H 0.24263 0.87716 0.56251 0.0
H854 H 0.25498 0.89331 0.61152 0.0
H855 H 0.29888 0.90292 0.55011 0.0
H856 H 0.24342 0.92164 0.44865 0.0
H857 H 0.2354 0.90391 0.39815 0.0
O858 O 0.28477 0.86111 0.48193 0.0
C859 C 0.3156 0.86971 0.43198 0.0
C860 C 0.25536 0.88603 0.40656 0.0
C861 C 0.25055 0.91041 0.44249 0.0
N862 N 0.27335 0.89154 0.45534 0.0
C863 C 0.26907 0.88177 0.42752 0.0
C864 C 0.26434 0.90576 0.46286 0.0
C865 C 0.24606 0.90045 0.41417 0.0
C866 C 0.34864 0.88363 0.52516 0.0
N867 N 0.34522 0.87141 0.50119 0.0
C868 C 0.36312 0.89355 0.52234 0.0
C869 C 0.37414 0.89089 0.49473 0.0
C870 C 0.37057 0.8784 0.47038 0.0
C871 C 0.35596 0.86874 0.47402 0.0
C872 C 0.36038 0.81957 0.51507 0.0
C873 C 0.33138 0.8255 0.47708 0.0
C874 C 0.35143 0.83461 0.51867 0.0
N875 N 0.33717 0.83745 0.49966 0.0
C876 C 0.34001 0.81031 0.47281 0.0
C877 C 0.35461 0.80736 0.49195 0.0
C878 C 0.28924 0.84716 0.49575 0.0
C879 C 0.27774 0.8993 0.58379 0.0
C880 C 0.26406 0.88126 0.52918 0.0
C881 C 0.25495 0.88289 0.55999 0.0
C882 C 0.26188 0.89196 0.58747 0.0
N883 N 0.27966 0.8884 0.52582 0.0
C884 C 0.28649 0.89738 0.5526 0.0
Co885 Co 0.15014 0.32756 0.51447 0.0
Co886 Co 0.12479 0.29525 0.48506 0.0
O887 O 0.12987 0.31355 0.51767 0.0
C888 C 0.15145 0.31535 0.58704 0.0
O889 O 0.14727 0.30031 0.57576 0.0
C890 C 0.09318 0.31573 0.48657 0.0
O891 O 0.10241 0.32942 0.48395 0.0
O892 O 0.12827 0.31052 0.4444 0.0
O893 O 0.14868 0.32791 0.46286 0.0
H894 H 0.1344 0.25963 0.3792 0.0
H895 H 0.12215 0.33834 0.56002 0.0
O896 O 0.15244 0.32772 0.5661 0.0
H897 H 0.12884 0.38415 0.47463 0.0
H898 H 0.1887 0.37485 0.55063 0.0
H899 H 0.1805 0.3274 0.46972 0.0
H900 H 0.14745 0.35929 0.47303 0.0
H901 H 0.16303 0.35735 0.55362 0.0
O902 O 0.10019 0.30128 0.48647 0.0
H903 H 0.14077 0.28231 0.42093 0.0
H904 H 0.09738 0.26956 0.47991 0.0
H905 H 0.2063 0.34466 0.46562 0.0
H906 H 0.10335 0.36306 0.56279 0.0
H907 H 0.21052 0.36858 0.50629 0.0
H908 H 0.10661 0.38616 0.51979 0.0
O909 O 0.1647 0.30721 0.5126 0.0
H910 H 0.10165 0.27942 0.60199 0.0
H911 H 0.13693 0.2608 0.50395 0.0
H912 H 0.13345 0.2422 0.55468 0.0
H913 H 0.11566 0.25145 0.60413 0.0
H914 H 0.10573 0.29776 0.55103 0.0
H915 H 0.09049 0.24679 0.43871 0.0
H916 H 0.10909 0.24167 0.38798 0.0
O917 O 0.14911 0.28832 0.48346 0.0
C918 C 0.13936 0.32189 0.43897 0.0
C919 C 0.12622 0.2617 0.40126 0.0
C920 C 0.10156 0.25451 0.43463 0.0
N921 N 0.11952 0.27719 0.45293 0.0
C922 C 0.12978 0.2745 0.42502 0.0
C923 C 0.10551 0.26745 0.45783 0.0
C924 C 0.11201 0.25164 0.40618 0.0
C925 C 0.12374 0.34843 0.54144 0.0
N926 N 0.1359 0.3474 0.51646 0.0
C927 C 0.11302 0.36236 0.54304 0.0
C928 C 0.11484 0.3753 0.51887 0.0
C929 C 0.1273 0.37417 0.4935 0.0
C930 C 0.13777 0.36004 0.49266 0.0
C931 C 0.18699 0.36448 0.53272 0.0
C932 C 0.18221 0.33785 0.48736 0.0
C933 C 0.17249 0.35451 0.53432 0.0
N934 N 0.17022 0.34145 0.51168 0.0
C935 C 0.19686 0.34755 0.48498 0.0
C936 C 0.19922 0.36096 0.50783 0.0
C937 C 0.16293 0.29306 0.49737 0.0
C938 C 0.10941 0.27523 0.58057 0.0
C939 C 0.12926 0.26497 0.52543 0.0
C940 C 0.12728 0.25435 0.55405 0.0
C941 C 0.11729 0.25955 0.58177 0.0
N942 N 0.12151 0.28035 0.52445 0.0
C943 C 0.1117 0.28553 0.55156 0.0
H944 H 0.21904 0.5677 0.9893 0.0
H945 H 0.21669 0.53735 0.9979 0.0
H946 H 0.16254 0.54149 1.00116 0.0
H947 H 0.16478 0.57209 0.99283 0.0
H948 H 0.17441 0.52077 0.05253 0.0
H949 H 0.18154 0.52571 0.92986 0.0
H950 H 0.19487 0.53556 0.87575 0.0
H951 H 0.241 0.51093 0.90423 0.0
H952 H 0.22802 0.50112 0.95877 0.0
H953 H 0.16482 0.43054 0.04246 0.0
H954 H 0.16272 0.46096 0.03194 0.0
H955 H 0.21677 0.46398 0.02217 0.0
H956 H 0.21896 0.43374 0.0322 0.0
H957 H 0.20212 0.48102 0.97128 0.0
H958 H 0.19584 0.47781 0.09538 0.0
H959 H 0.18294 0.46817 0.1501 0.0
H960 H 0.13555 0.48956 0.11933 0.0
H961 H 0.14813 0.49913 0.06417 0.0
C962 C 0.20659 0.56221 0.99168 0.0
C963 C 0.19209 0.57239 0.99013 0.0
C964 C 0.20527 0.54479 0.99652 0.0
C965 C 0.18943 0.53705 0.99979 0.0
C966 C 0.17491 0.54716 0.9986 0.0
C967 C 0.17621 0.56464 0.99365 0.0
C968 C 0.18821 0.51842 0.00468 0.0
C969 C 0.1802 0.51205 0.03443 0.0
C970 C 0.19602 0.50701 0.98145 0.0
C971 C 0.20384 0.51279 0.94854 0.0
C972 C 0.19457 0.52249 0.9247 0.0
C973 C 0.20205 0.52805 0.89393 0.0
C974 C 0.21878 0.52391 0.88659 0.0
C975 C 0.22805 0.51415 0.90996 0.0
C976 C 0.22062 0.50856 0.94079 0.0
C977 C 0.17626 0.4377 0.03828 0.0
C978 C 0.19206 0.42964 0.03828 0.0
C979 C 0.17505 0.45512 0.03233 0.0
C980 C 0.1896 0.46485 0.02642 0.0
C981 C 0.20535 0.4568 0.02655 0.0
C982 C 0.20657 0.43946 0.03245 0.0
C983 C 0.1886 0.48334 0.01947 0.0
C984 C 0.19618 0.4897 0.98924 0.0
C985 C 0.18044 0.49471 0.04232 0.0
C986 C 0.17287 0.48901 0.07548 0.0
C987 C 0.18263 0.48033 0.10015 0.0
C988 C 0.17539 0.4749 0.13127 0.0
C989 C 0.15842 0.4782 0.13814 0.0
C990 C 0.14868 0.48698 0.11394 0.0
C991 C 0.15586 0.49242 0.08276 0.0
H992 H 0.15283 0.47399 0.16224 0.0
H993 H 0.22456 0.52823 0.86275 0.0
H994 H 0.43933 0.20782 0.95373 0.0
H995 H 0.46991 0.20575 0.96033 0.0
H996 H 0.46313 0.16787 0.03968 0.0
H997 H 0.43265 0.16896 0.03077 0.0
H998 H 0.49014 0.21301 0.00472 0.0
H999 H 0.4965 0.14349 0.05223 0.0
H1000 H 0.48302 0.11589 0.04214 0.0
H1001 H 0.46594 0.13254 0.94215 0.0
H1002 H 0.4795 0.16015 0.95144 0.0
H1003 H 0.57115 0.2066 0.0754 0.0
H1004 H 0.54068 0.20527 0.06647 0.0
H1005 H 0.54768 0.16603 0.99017 0.0
H1006 H 0.57805 0.16646 1.00133 0.0
H1007 H 0.52103 0.15919 0.01927 0.0
H1008 H 0.54033 0.21055 0.97045 0.0
H1009 H 0.55513 0.23788 0.96842 0.0
H1010 H 0.52271 0.25713 0.04828 0.0
H1011 H 0.50789 0.22981 0.05118 0.0
C1012 C 0.44444 0.19884 0.97211 0.0
C1013 C 0.43365 0.18839 0.99139 0.0
C1014 C 0.46195 0.19773 0.97612 0.0
C1015 C 0.46911 0.18647 1.00024 0.0
C1016 C 0.45819 0.17625 0.01999 0.0
C1017 C 0.4407 0.17694 0.01508 0.0
C1018 C 0.48785 0.18592 0.0055 0.0
C1019 C 0.49683 0.20118 0.00771 0.0
C1020 C 0.49694 0.17058 0.00864 0.0
C1021 C 0.48888 0.15395 1.00271 0.0
C1022 C 0.48993 0.14124 0.02804 0.0
C1023 C 0.48226 0.12559 0.02247 0.0
C1024 C 0.47358 0.12248 0.99157 0.0
C1025 C 0.47261 0.13499 0.96612 0.0
C1026 C 0.48027 0.15064 0.97154 0.0
C1027 C 0.56612 0.19756 0.05705 0.0
C1028 C 0.57695 0.18665 0.03902 0.0
C1029 C 0.54868 0.19691 0.05162 0.0
C1030 C 0.54171 0.1859 0.0268 0.0
C1031 C 0.55257 0.1747 0.00941 0.0
C1032 C 0.56997 0.17495 0.01574 0.0
C1033 C 0.52323 0.18626 0.01859 0.0
C1034 C 0.51432 0.17098 0.016 0.0
C1035 C 0.51436 0.20155 0.01313 0.0
C1036 C 0.5231 0.21808 0.01124 0.0
C1037 C 0.53642 0.22058 0.98771 0.0
C1038 C 0.54481 0.23607 0.9864 0.0
C1039 C 0.53989 0.24922 0.00826 0.0
C1040 C 0.52653 0.24692 0.0314 0.0
C1041 C 0.51812 0.23144 0.03287 0.0
H1042 H 0.5464 0.2612 0.00722 0.0
H1043 H 0.46764 0.11037 0.98733 0.0
H1044 H 0.83974 0.43534 0.98991 0.0
H1045 H 0.8415 0.46582 0.9997 0.0
H1046 H 0.78727 0.46909 0.99809 0.0
H1047 H 0.78541 0.43879 0.98798 0.0
H1048 H 0.80091 0.49451 0.96189 0.0
H1049 H 0.80936 0.46958 0.07436 0.0
H1050 H 0.82314 0.45093 0.11694 0.0
H1051 H 0.87013 0.47666 0.10102 0.0
H1052 H 0.85667 0.49532 0.05794 0.0
H1053 H 0.78623 0.57311 0.04068 0.0
H1054 H 0.78777 0.54294 0.02909 0.0
H1055 H 0.84204 0.5453 0.03184 0.0
H1056 H 0.84062 0.57563 0.04394 0.0
H1057 H 0.83044 0.51734 0.0652 0.0
H1058 H 0.82136 0.54342 0.95492 0.0
H1059 H 0.8072 0.56229 0.91329 0.0
H1060 H 0.76117 0.53442 0.92532 0.0
H1061 H 0.77498 0.51554 0.96747 0.0
C1062 C 0.82819 0.44256 0.99142 0.0
C1063 C 0.81243 0.43455 0.98818 0.0
C1064 C 0.82922 0.46 0.99722 0.0
C1065 C 0.81451 0.46979 1.00001 0.0
C1066 C 0.7988 0.46186 0.99606 0.0
C1067 C 0.79776 0.44447 0.99036 0.0
C1068 C 0.81536 0.48826 0.00739 0.0
C1069 C 0.80724 0.49947 0.98466 0.0
C1070 C 0.82396 0.49485 0.03663 0.0
C1071 C 0.83205 0.48372 0.06265 0.0
C1072 C 0.82267 0.47117 0.07974 0.0
C1073 C 0.83041 0.46061 0.10399 0.0
C1074 C 0.84752 0.46257 0.1116 0.0
C1075 C 0.85689 0.47513 0.09505 0.0
C1076 C 0.84921 0.48571 0.07072 0.0
C1077 C 0.79853 0.56726 0.039 0.0
C1078 C 0.81331 0.57688 0.04313 0.0
C1079 C 0.79938 0.54997 0.0322 0.0
C1080 C 0.81502 0.54183 0.02902 0.0
C1081 C 0.82982 0.55128 0.03405 0.0
C1082 C 0.82898 0.56864 0.04092 0.0
C1083 C 0.81581 0.52355 0.01993 0.0
C1084 C 0.82422 0.51239 0.04229 0.0
C1085 C 0.80746 0.51698 0.99035 0.0
C1086 C 0.79918 0.52815 0.96458 0.0
C1087 C 0.80819 0.54138 0.94886 0.0
C1088 C 0.80023 0.55207 0.92515 0.0
C1089 C 0.78328 0.54958 0.91672 0.0
C1090 C 0.77429 0.53635 0.9319 0.0
C1091 C 0.78218 0.52563 0.95568 0.0
H1092 H 0.77714 0.55788 0.89839 0.0
H1093 H 0.85349 0.45439 0.13039 0.0
H1094 H 0.57554 0.83988 0.01967 0.0
H1095 H 0.54519 0.8407 0.03079 0.0
H1096 H 0.53811 0.79858 0.96133 0.0
H1097 H 0.56856 0.79696 0.95251 0.0
H1098 H 0.51863 0.84645 1.00038 0.0
H1099 H 0.50513 0.77481 0.98052 0.0
H1100 H 0.51978 0.74765 0.98832 0.0
H1101 H 0.55215 0.76997 0.06487 0.0
H1102 H 0.53754 0.79718 0.05793 0.0
H1103 H 0.43033 0.83692 0.98949 0.0
H1104 H 0.46081 0.83727 0.9807 0.0
H1105 H 0.46693 0.80251 0.06607 0.0
H1106 H 0.43629 0.80105 0.07264 0.0
H1107 H 0.48738 0.79351 0.02362 0.0
H1108 H 0.4769 0.84838 0.06755 0.0
H1109 H 0.46348 0.87633 0.07187 0.0
H1110 H 0.48097 0.88881 0.96962 0.0
H1111 H 0.49432 0.86084 0.96451 0.0
C1112 C 0.56746 0.83083 0.00676 0.0
C1113 C 0.57441 0.81828 0.98544 0.0
C1114 C 0.55006 0.83131 0.01307 0.0
C1115 C 0.53918 0.81946 0.9976 0.0
C1116 C 0.54613 0.8075 0.97473 0.0
C1117 C 0.56356 0.80667 0.96935 0.0
C1118 C 0.52068 0.81949 0.00569 0.0
C1119 C 0.51185 0.83485 0.00556 0.0
C1120 C 0.51169 0.8045 0.01361 0.0
C1121 C 0.52034 0.78808 0.01842 0.0
C1122 C 0.51532 0.7739 0.99914 0.0
C1123 C 0.52362 0.7585 0.0034 0.0
C1124 C 0.53692 0.7571 0.02699 0.0
C1125 C 0.54189 0.77108 0.04653 0.0
C1126 C 0.5336 0.7865 0.04244 0.0
C1127 C 0.43823 0.82945 0.00649 0.0
C1128 C 0.43097 0.81906 0.03192 0.0
C1129 C 0.45573 0.82974 1.00165 0.0
C1130 C 0.46647 0.82022 0.02317 0.0
C1131 C 0.45911 0.80998 0.04893 0.0
C1132 C 0.44157 0.80922 0.0529 0.0
C1133 C 0.48525 0.82048 0.01818 0.0
C1134 C 0.49415 0.80515 0.01872 0.0
C1135 C 0.49444 0.83561 0.01258 0.0
C1136 C 0.48648 0.85246 0.01554 0.0
C1137 C 0.47779 0.85705 0.0459 0.0
C1138 C 0.47021 0.87289 0.0485 0.0
C1139 C 0.47134 0.88432 0.021 0.0
C1140 C 0.48009 0.87993 0.99088 0.0
C1141 C 0.48768 0.86409 0.98813 0.0
H1142 H 0.46546 0.89658 0.02306 0.0
H1143 H 0.54335 0.74518 0.03019 0.0
H1144 H 0.71912 0.07029 0.50179 0.0
H1145 H 0.71646 0.03994 0.50946 0.0
H1146 H 0.66308 0.04316 0.48972 0.0
H1147 H 0.66558 0.07382 0.48254 0.0
H1148 H 0.66948 0.02209 0.54349 0.0
H1149 H 0.69002 0.02821 0.4275 0.0
H1150 H 0.70886 0.03881 0.38153 0.0
H1151 H 0.75107 0.01482 0.43065 0.0
H1152 H 0.73252 0.00427 0.47719 0.0
H1153 H 0.66338 0.93171 0.52734 0.0
H1154 H 0.66167 0.96222 0.51766 0.0
H1155 H 0.7155 0.96628 0.53085 0.0
H1156 H 0.71733 0.93595 0.53981 0.0
H1157 H 0.70633 0.9836 0.47633 0.0
H1158 H 0.6864 0.97915 0.59419 0.0
H1159 H 0.66786 0.96879 0.64091 0.0
H1160 H 0.6248 0.98959 0.58879 0.0
H1161 H 0.64308 0.99989 0.5415 0.0
C1162 C 0.70678 0.06462 0.49893 0.0
C1163 C 0.69258 0.07456 0.49122 0.0
C1164 C 0.70529 0.04718 0.50325 0.0
C1165 C 0.68961 0.03914 0.49964 0.0
C1166 C 0.67533 0.04903 0.49249 0.0
C1167 C 0.6768 0.06656 0.48824 0.0
C1168 C 0.6883 0.02044 0.50339 0.0
C1169 C 0.67733 0.01365 0.52838 0.0
C1170 C 0.69872 0.00937 0.48413 0.0
C1171 C 0.70989 0.01555 0.45597 0.0
C1172 C 0.70334 0.02528 0.42861 0.0
C1173 C 0.71396 0.03127 0.40244 0.0
C1174 C 0.73116 0.02752 0.40321 0.0
C1175 C 0.73775 0.01773 0.4301 0.0
C1176 C 0.72718 0.01172 0.45636 0.0
C1177 C 0.67483 0.93913 0.52845 0.0
C1178 C 0.69049 0.93132 0.53437 0.0
C1179 C 0.67383 0.95661 0.52298 0.0
C1180 C 0.68845 0.96666 0.52368 0.0
C1181 C 0.70403 0.95887 0.53 0.0
C1182 C 0.70505 0.94146 0.53525 0.0
C1183 C 0.68779 0.98522 0.51699 0.0
C1184 C 0.69838 0.992 0.4913 0.0
C1185 C 0.67706 0.99624 0.53567 0.0
C1186 C 0.66608 0.99012 0.56413 0.0
C1187 C 0.67296 0.9814 0.59256 0.0
C1188 C 0.6625 0.97556 0.61917 0.0
C1189 C 0.64516 0.97848 0.61777 0.0
C1190 C 0.63824 0.9873 0.58981 0.0
C1191 C 0.64864 0.99315 0.56311 0.0
H1192 H 0.63708 0.97395 0.63839 0.0
H1193 H 0.73937 0.03218 0.38293 0.0
H1194 H 0.93773 0.71862 0.49434 0.0
H1195 H 0.96788 0.71681 0.5056 0.0
H1196 H 0.96465 0.66255 0.50665 0.0
H1197 H 0.93434 0.66425 0.4948 0.0
H1198 H 0.98467 0.70537 0.55868 0.0
H1199 H 1.00258 0.64609 0.47909 0.0
H1200 H 0.99348 0.63117 0.42611 0.0
H1201 H 0.97332 0.67726 0.38509 0.0
H1202 H 0.98249 0.69248 0.43758 0.0
H1203 H 0.06815 0.68459 0.60604 0.0
H1204 H 0.03812 0.68157 0.59292 0.0
H1205 H 0.04772 0.69487 0.48621 0.0
H1206 H 0.07774 0.69734 0.49885 0.0
H1207 H 0.02444 0.67194 0.48724 0.0
H1208 H 0.03329 0.72404 0.5479 0.0
H1209 H 0.04312 0.74202 0.59603 0.0
H1210 H 0.01047 0.71574 0.66655 0.0
H1211 H 1.00064 0.69743 0.61891 0.0
C1212 C 0.94339 0.70626 0.4967 0.0
C1213 C 0.93354 0.69157 0.49352 0.0
C1214 C 0.96068 0.70526 0.50333 0.0
C1215 C 0.96865 0.68956 0.50692 0.0
C1216 C 0.95889 0.67483 0.50358 0.0
C1217 C 0.94153 0.67582 0.49684 0.0
C1218 C 0.98708 0.68878 0.51473 0.0
C1219 C 0.99333 0.69798 0.54311 0.0
C1220 C 0.99852 0.67938 0.49421 0.0
C1221 C 0.99304 0.67036 0.46246 0.0
C1222 C 0.99623 0.65304 0.45873 0.0
C1223 C 0.99107 0.64453 0.42878 0.0
C1224 C 0.98277 0.65325 0.40231 0.0
C1225 C 0.97968 0.67051 0.40567 0.0
C1226 C 0.98484 0.67907 0.43554 0.0
C1227 C 0.0639 0.68666 0.57968 0.0
C1228 C 0.07539 0.69131 0.55358 0.0
C1229 C 0.04668 0.68501 0.57223 0.0
C1230 C 0.04051 0.68831 0.53867 0.0
C1231 C 0.05207 0.69227 0.51231 0.0
C1232 C 0.0693 0.69372 0.51963 0.0
C1233 C 0.02201 0.68847 0.5313 0.0
C1234 C 0.01575 0.67917 0.50303 0.0
C1235 C 0.01059 0.69817 0.55131 0.0
C1236 C 0.01636 0.70926 0.57993 0.0
C1237 C 0.02829 0.72203 0.57372 0.0
C1238 C 0.03385 0.73229 0.6009 0.0
C1239 C 0.02745 0.73 0.63434 0.0
C1240 C 0.01544 0.71748 0.64065 0.0
C1241 C 0.00986 0.70716 0.61357 0.0
H1242 H 0.03177 0.73795 0.65536 0.0
H1243 H 0.97877 0.64664 0.37916 0.0
H1244 H 0.28988 0.07352 0.53383 0.0
H1245 H 0.29189 0.04316 0.52528 0.0
H1246 H 0.34612 0.04645 0.52729 0.0
H1247 H 0.34423 0.07707 0.53558 0.0
H1248 H 0.33503 0.02593 0.47476 0.0
H1249 H 0.32516 0.03098 0.59671 0.0
H1250 H 0.3107 0.04105 0.64937 0.0
H1251 H 0.26491 0.0171 0.61619 0.0
H1252 H 0.27904 0.00707 0.56307 0.0
H1253 H 0.34285 0.93564 0.48428 0.0
H1254 H 0.34523 0.966 0.4952 0.0
H1255 H 0.29111 0.96963 0.50223 0.0
H1256 H 0.28865 0.93943 0.492 0.0
H1257 H 0.3049 0.98659 0.55329 0.0
H1258 H 0.31377 0.98339 0.42986 0.0
H1259 H 0.32763 0.97367 0.37623 0.0
H1260 H 0.3747 0.99425 0.41134 0.0
H1261 H 0.36115 1.0039 0.46543 0.0
C1262 C 0.30228 0.06785 0.53261 0.0
C1263 C 0.3169 0.0778 0.53564 0.0
C1264 C 0.3034 0.05042 0.5278 0.0
C1265 C 0.31916 0.04242 0.52605 0.0
C1266 C 0.33381 0.0523 0.52867 0.0
C1267 C 0.33271 0.06981 0.53358 0.0
C1268 C 0.32015 0.02378 0.52126 0.0
C1269 C 0.3287 0.01729 0.49228 0.0
C1270 C 0.31164 0.01249 0.5437 0.0
C1271 C 0.30313 0.01838 0.57577 0.0
C1272 C 0.31198 0.02795 0.60052 0.0
C1273 C 0.30384 0.03364 0.63047 0.0
C1274 C 0.28689 0.02975 0.63609 0.0
C1275 C 0.27804 0.02011 0.6118 0.0
C1276 C 0.28611 0.01441 0.58178 0.0
C1277 C 0.33145 0.94293 0.48796 0.0
C1278 C 0.31556 0.93504 0.48718 0.0
C1279 C 0.33283 0.96032 0.49412 0.0
C1280 C 0.31834 0.97022 0.49934 0.0
C1281 C 0.3025 0.96233 0.49841 0.0
C1282 C 0.30111 0.94501 0.49241 0.0
C1283 C 0.3195 0.98871 0.50639 0.0
C1284 C 0.31137 0.99518 0.53589 0.0
C1285 C 0.32834 0.99996 0.48434 0.0
C1286 C 0.33649 0.99419 0.45185 0.0
C1287 C 0.32711 0.98572 0.42627 0.0
C1288 C 0.3349 0.98025 0.39577 0.0
C1289 C 0.35205 0.9833 0.39043 0.0
C1290 C 0.36143 0.99187 0.41555 0.0
C1291 C 0.3537 0.99735 0.44612 0.0
H1292 H 0.35806 0.97906 0.36679 0.0
H1293 H 0.28061 0.03417 0.65929 0.0
H1294 H 0.074 0.34398 0.499 0.0
H1295 H 0.0438 0.34517 0.51234 0.0
H1296 H 0.04025 0.2913 0.4994 0.0
H1297 H 0.07031 0.28996 0.48674 0.0
H1298 H 0.01524 0.33715 0.47893 0.0
H1299 H 0.01336 0.27485 0.55766 0.0
H1300 H 0.03257 0.25761 0.59335 0.0
H1301 H 0.06185 0.30159 0.61763 0.0
H1302 H 0.04267 0.31913 0.5826 0.0
H1303 H 0.93099 0.30859 0.49986 0.0
H1304 H 0.96097 0.31194 0.48744 0.0
H1305 H 0.97067 0.32116 0.59592 0.0
H1306 H 0.94071 0.31738 0.60867 0.0
H1307 H 0.99315 0.30042 0.57272 0.0
H1308 H 0.97191 0.35326 0.5332 0.0
H1309 H 0.95323 0.3723 0.50039 0.0
H1310 H 0.97085 0.35113 0.40454 0.0
H1311 H 0.98946 0.33178 0.4368 0.0
C1312 C 0.06676 0.3324 0.49877 0.0
C1313 C 0.07466 0.31686 0.49204 0.0
C1314 C 0.04948 0.33311 0.50636 0.0
C1315 C 0.03975 0.3183 0.50745 0.0
C1316 C 0.0475 0.30287 0.49943 0.0
C1317 C 0.06474 0.30214 0.49206 0.0
C1318 C 0.02163 0.31878 0.51787 0.0
C1319 C 0.01041 0.32914 0.49946 0.0
C1320 C 0.01532 0.30864 0.54522 0.0
C1321 C 0.02664 0.29827 0.56724 0.0
C1322 C 0.02383 0.28086 0.57081 0.0
C1323 C 0.03473 0.27103 0.59089 0.0
C1324 C 0.04845 0.27849 0.60765 0.0
C1325 C 0.05125 0.29582 0.60455 0.0
C1326 C 0.04037 0.3057 0.58458 0.0
C1327 C 0.93945 0.3115 0.52108 0.0
C1328 C 0.93337 0.31275 0.5553 0.0
C1329 C 0.95664 0.31348 0.5139 0.0
C1330 C 0.96817 0.31699 0.54065 0.0
C1331 C 0.96209 0.31845 0.57478 0.0
C1332 C 0.94491 0.31635 0.58203 0.0
C1333 C 0.98661 0.31851 0.53324 0.0
C1334 C 0.99793 0.3085 0.55225 0.0
C1335 C 0.99304 0.32925 0.50696 0.0
C1336 C 0.98198 0.34098 0.48744 0.0
C1337 C 0.97172 0.35259 0.50513 0.0
C1338 C 0.96115 0.36345 0.48663 0.0
C1339 C 0.96083 0.3629 0.45041 0.0
C1340 C 0.97111 0.35153 0.4326 0.0
C1341 C 0.98168 0.34063 0.45098 0.0
H1342 H 0.95263 0.37131 0.43613 0.0
H1343 H 0.0569 0.27086 0.6231 0.0
H1344 H 0.25071 0.34192 0.04373 0.0
H1345 H 0.27099 0.31911 0.03615 0.0
H1346 H 0.23095 0.28553 0.00576 0.0
H1347 H 0.21049 0.3085 0.01187 0.0
H1348 H 0.25978 0.2746 0.06151 0.0
H1349 H 0.2478 0.29434 0.94411 0.0
H1350 H 0.24423 0.31705 0.90106 0.0
H1351 H 0.29501 0.33355 0.91921 0.0
H1352 H 0.29875 0.31114 0.96298 0.0
H1353 H 0.31258 0.20863 0.00395 0.0
H1354 H 0.28935 0.22871 0.00744 0.0
H1355 H 0.32397 0.26971 0.98916 0.0
H1356 H 0.34711 0.24968 0.98398 0.0
H1357 H 0.29631 0.27631 0.95703 0.0
H1358 H 0.30955 0.25826 0.07225 0.0
H1359 H 0.31457 0.2374 0.11852 0.0
H1360 H 0.26354 0.21994 0.10949 0.0
H1361 H 0.25831 0.24046 0.06259 0.0
C1362 C 0.24612 0.32974 0.03537 0.0
C1363 C 0.22894 0.3272 0.02782 0.0
C1364 C 0.25776 0.31668 0.03123 0.0
C1365 C 0.25245 0.30071 0.02023 0.0
C1366 C 0.23526 0.29782 0.01423 0.0
C1367 C 0.22361 0.31098 0.01765 0.0
C1368 C 0.26508 0.28735 0.0135 0.0
C1369 C 0.26758 0.27473 0.0384 0.0
C1370 C 0.27559 0.28795 0.98393 0.0
C1371 C 0.2735 0.30117 0.95706 0.0
C1372 C 0.25815 0.3029 0.93915 0.0
C1373 C 0.25611 0.3157 0.91456 0.0
C1374 C 0.26938 0.32675 0.90742 0.0
C1375 C 0.28474 0.32499 0.92479 0.0
C1376 C 0.28683 0.31224 0.94948 0.0
C1377 C 0.31527 0.22191 1.00042 0.0
C1378 C 0.33183 0.22751 0.99423 0.0
C1379 C 0.30194 0.23341 1.0026 0.0
C1380 C 0.30491 0.25082 0.99943 0.0
C1381 C 0.32132 0.25638 0.99192 0.0
C1382 C 0.3346 0.24487 0.98917 0.0
C1383 C 0.29108 0.26327 0.00497 0.0
C1384 C 0.28842 0.27591 0.97998 0.0
C1385 C 0.28062 0.26285 0.03485 0.0
C1386 C 0.2836 0.25078 0.06364 0.0
C1387 C 0.29943 0.24991 0.07999 0.0
C1388 C 0.30231 0.23814 0.10632 0.0
C1389 C 0.28939 0.22732 0.11688 0.0
C1390 C 0.27354 0.2283 0.10123 0.0
C1391 C 0.27061 0.24 0.07475 0.0
H1392 H 0.29166 0.21819 0.13724 0.0
H1393 H 0.26777 0.33665 0.88838 0.0
H1394 H 0.78681 0.32111 0.04955 0.0
H1395 H 0.7662 0.29835 0.05346 0.0
H1396 H 0.74163 0.31675 0.96102 0.0
H1397 H 0.76177 0.34003 0.95793 0.0
H1398 H 0.71879 0.30827 0.00351 0.0
H1399 H 0.7681 0.28059 0.96248 0.0
H1400 H 0.79808 0.27248 0.96205 0.0
H1401 H 0.79219 0.24838 0.06107 0.0
H1402 H 0.76222 0.25658 0.06235 0.0
H1403 H 0.69218 0.21364 0.98817 0.0
H1404 H 0.71362 0.23556 0.98243 0.0
H1405 H 0.68891 0.26477 0.06191 0.0
H1406 H 0.66711 0.24318 0.067 0.0
H1407 H 0.73648 0.24893 0.02137 0.0
H1408 H 0.69219 0.30593 0.04626 0.0
H1409 H 0.66224 0.31333 0.03818 0.0
H1410 H 0.6584 0.27758 0.95491 0.0
H1411 H 0.68832 0.27009 0.9623 0.0
C1412 C 0.77709 0.32026 0.02991 0.0
C1413 C 0.77603 0.33234 0.00328 0.0
C1414 C 0.76531 0.30717 0.0321 0.0
C1415 C 0.75245 0.30558 0.00721 0.0
C1416 C 0.75139 0.31765 0.98058 0.0
C1417 C 0.76298 0.33093 0.97874 0.0
C1418 C 0.73998 0.29151 0.00925 0.0
C1419 C 0.72271 0.29531 0.0074 0.0
C1420 C 0.74497 0.27447 0.01349 0.0
C1421 C 0.76294 0.26933 0.01264 0.0
C1422 C 0.77322 0.27365 0.98426 0.0
C1423 C 0.79021 0.26903 0.98386 0.0
C1424 C 0.79705 0.25995 0.01155 0.0
C1425 C 0.78688 0.25543 0.03966 0.0
C1426 C 0.76989 0.26005 0.04022 0.0
C1427 C 0.69133 0.22469 0.00459 0.0
C1428 C 0.67781 0.22667 0.02787 0.0
C1429 C 0.70365 0.23722 1.00131 0.0
C1430 C 0.70278 0.25199 0.0213 0.0
C1431 C 0.68967 0.25369 0.04557 0.0
C1432 C 0.67724 0.24126 0.04859 0.0
C1433 C 0.71535 0.26577 0.01622 0.0
C1434 C 0.73261 0.26191 0.0175 0.0
C1435 C 0.71038 0.28266 0.01012 0.0
C1436 C 0.69245 0.28735 0.00508 0.0
C1437 C 0.68496 0.29971 0.02614 0.0
C1438 C 0.66798 0.30389 0.02172 0.0
C1439 C 0.6584 0.29587 0.99616 0.0
C1440 C 0.66579 0.28372 0.97484 0.0
C1441 C 0.68276 0.27948 0.97916 0.0
H1442 H 0.64525 0.29911 0.99281 0.0
H1443 H 0.81021 0.2564 0.0112 0.0
H1444 H 0.76063 0.66869 0.06822 0.0
H1445 H 0.73973 0.69106 0.062 0.0
H1446 H 0.77232 0.71704 0.99019 0.0
H1447 H 0.79329 0.69466 0.99598 0.0
H1448 H 0.73934 0.72481 0.07352 0.0
H1449 H 0.74755 0.73334 0.92532 0.0
H1450 H 0.75723 0.71665 0.87511 0.0
H1451 H 0.74308 0.67092 0.92717 0.0
H1452 H 0.73303 0.68734 0.97735 0.0
H1453 H 0.69354 0.79722 0.02216 0.0
H1454 H 0.71613 0.77653 0.02818 0.0
H1455 H 0.68534 0.7392 0.97713 0.0
H1456 H 0.66282 0.75986 0.97031 0.0
H1457 H 0.71692 0.73644 0.95571 0.0
H1458 H 0.689 0.74088 0.06528 0.0
H1459 H 0.67785 0.75536 0.11698 0.0
H1460 H 0.72787 0.77095 0.14492 0.0
H1461 H 0.73926 0.75696 0.09286 0.0
C1462 C 0.76346 0.67922 0.05129 0.0
C1463 C 0.77864 0.67975 0.03238 0.0
C1464 C 0.75149 0.69205 0.04789 0.0
C1465 C 0.75435 0.70564 0.02534 0.0
C1466 C 0.76974 0.70657 0.00743 0.0
C1467 C 0.78176 0.69377 0.01089 0.0
C1468 C 0.74091 0.71841 0.01936 0.0
C1469 C 0.73451 0.72743 0.04775 0.0
C1470 C 0.73428 0.72153 0.98586 0.0
C1471 C 0.73971 0.71158 0.95524 0.0
C1472 C 0.7464 0.71973 0.92594 0.0
C1473 C 0.75197 0.71032 0.8975 0.0
C1474 C 0.75083 0.69274 0.898 0.0
C1475 C 0.74401 0.68454 0.92684 0.0
C1476 C 0.73838 0.69389 0.95529 0.0
C1477 C 0.69158 0.78466 0.01193 0.0
C1478 C 0.67622 0.78022 0.99604 0.0
C1479 C 0.70452 0.7728 0.01553 0.0
C1480 C 0.70237 0.7562 0.00362 0.0
C1481 C 0.68731 0.7519 0.98664 0.0
C1482 C 0.67438 0.76376 0.9829 0.0
C1483 C 0.71556 0.74316 0.00982 0.0
C1484 C 0.72186 0.73399 0.98147 0.0
C1485 C 0.72181 0.73962 0.04352 0.0
C1486 C 0.71497 0.74803 0.07492 0.0
C1487 C 0.6976 0.74754 0.08224 0.0
C1488 C 0.69123 0.75567 0.11162 0.0
C1489 C 0.70213 0.76414 0.13415 0.0
C1490 C 0.71943 0.76446 0.12738 0.0
C1491 C 0.72584 0.75645 0.09791 0.0
H1492 H 0.69718 0.77041 0.15691 0.0
H1493 H 0.75521 0.68548 0.87601 0.0
H1494 H 0.21882 0.68681 0.04551 0.0
H1495 H 0.23989 0.70916 0.04907 0.0
H1496 H 0.2663 0.68768 0.96181 0.0
H1497 H 0.24563 0.66486 0.95906 0.0
H1498 H 0.28827 0.69682 0.00612 0.0
H1499 H 0.24093 0.72425 0.95565 0.0
H1500 H 0.21121 0.73294 0.95049 0.0
H1501 H 0.21487 0.75981 0.0469 0.0
H1502 H 0.24455 0.75106 0.0529 0.0
H1503 H 0.31657 0.7905 0.98015 0.0
H1504 H 0.29521 0.7685 0.97555 0.0
H1505 H 0.31829 0.74174 0.06062 0.0
H1506 H 0.3401 0.76343 0.0646 0.0
H1507 H 0.27159 0.75694 0.01394 0.0
H1508 H 0.31394 0.70016 0.05155 0.0
H1509 H 0.34381 0.69177 0.04739 0.0
H1510 H 0.35031 0.72421 0.95918 0.0
H1511 H 0.32049 0.7327 0.96271 0.0
C1512 C 0.22904 0.68689 0.02689 0.0
C1513 C 0.23045 0.67408 1.00183 0.0
C1514 C 0.24109 0.69974 0.02891 0.0
C1515 C 0.25462 0.70034 0.00538 0.0
C1516 C 0.25603 0.68755 0.98031 0.0
C1517 C 0.24413 0.67453 0.97864 0.0
C1518 C 0.26738 0.71416 0.00717 0.0
C1519 C 0.28458 0.70995 0.00784 0.0
C1520 C 0.26272 0.7314 0.00858 0.0
C1521 C 0.24493 0.73687 0.00487 0.0
C1522 C 0.23537 0.73193 0.97586 0.0
C1523 C 0.21853 0.73687 0.97277 0.0
C1524 C 0.21115 0.74689 0.99839 0.0
C1525 C 0.2206 0.75203 0.02709 0.0
C1526 C 0.23744 0.7471 0.03034 0.0
C1527 C 0.31712 0.77996 0.998 0.0
C1528 C 0.33017 0.77872 0.02263 0.0
C1529 C 0.30483 0.76738 0.99537 0.0
C1530 C 0.30519 0.75328 0.01738 0.0
C1531 C 0.3179 0.75228 0.04277 0.0
C1532 C 0.33034 0.76476 0.04515 0.0
C1533 C 0.29244 0.73957 0.01336 0.0
C1534 C 0.27526 0.7438 0.0123 0.0
C1535 C 0.29714 0.72241 0.01019 0.0
C1536 C 0.31503 0.71718 0.00764 0.0
C1537 C 0.32174 0.70546 0.03122 0.0
C1538 C 0.33867 0.70071 0.02901 0.0
C1539 C 0.34898 0.70752 0.00316 0.0
C1540 C 0.34236 0.71903 0.97935 0.0
C1541 C 0.32545 0.72383 0.98148 0.0
H1542 H 0.36209 0.70384 1.0015 0.0
H1543 H 0.19811 0.75069 0.99597 0.0
H1544 H 0.81242 0.70943 0.52007 0.0
H1545 H 0.7891 0.72966 0.5238 0.0
H1546 H 0.82252 0.76976 0.49299 0.0
H1547 H 0.84566 0.74972 0.48774 0.0
H1548 H 0.79929 0.7719 0.56222 0.0
H1549 H 0.80162 0.76379 0.43586 0.0
H1550 H 0.80125 0.74573 0.38381 0.0
H1551 H 0.75305 0.72586 0.41378 0.0
H1552 H 0.75329 0.74365 0.46633 0.0
H1553 H 0.75069 0.84456 0.53745 0.0
H1554 H 0.7709 0.82165 0.53418 0.0
H1555 H 0.73089 0.78693 0.5087 0.0
H1556 H 0.71063 0.81014 0.50978 0.0
H1557 H 0.75596 0.77954 0.47073 0.0
H1558 H 0.75078 0.78883 0.59202 0.0
H1559 H 0.75003 0.80506 0.64654 0.0
H1560 H 0.80152 0.82001 0.63149 0.0
H1561 H 0.80252 0.80406 0.5766 0.0
C1562 C 0.81481 0.72253 0.51385 0.0
C1563 C 0.83103 0.72793 0.50394 0.0
C1564 C 0.80146 0.73405 0.51602 0.0
C1565 C 0.80417 0.75117 0.50884 0.0
C1566 C 0.82024 0.75659 0.49877 0.0
C1567 C 0.83347 0.74507 0.49584 0.0
C1568 C 0.79035 0.76359 0.51242 0.0
C1569 C 0.78985 0.77372 0.54219 0.0
C1570 C 0.77776 0.76545 0.48685 0.0
C1571 C 0.77758 0.75486 0.45522 0.0
C1572 C 0.79104 0.75543 0.43155 0.0
C1573 C 0.79083 0.74528 0.40191 0.0
C1574 C 0.77716 0.7346 0.39555 0.0
C1575 C 0.76365 0.7341 0.41877 0.0
C1576 C 0.76381 0.74422 0.44847 0.0
C1577 C 0.74612 0.8321 0.53101 0.0
C1578 C 0.72898 0.82929 0.52367 0.0
C1579 C 0.75773 0.81889 0.52952 0.0
C1580 C 0.75247 0.80239 0.52184 0.0
C1581 C 0.73533 0.7995 0.51472 0.0
C1582 C 0.72373 0.8128 0.51547 0.0
C1583 C 0.76495 0.78832 0.52043 0.0
C1584 C 0.76522 0.77777 0.4911 0.0
C1585 C 0.77716 0.78585 0.54686 0.0
C1586 C 0.77668 0.79534 0.58004 0.0
C1587 C 0.76192 0.79566 0.60022 0.0
C1588 C 0.76145 0.8048 0.6312 0.0
C1589 C 0.77571 0.81359 0.64243 0.0
C1590 C 0.79048 0.81321 0.62275 0.0
C1591 C 0.79101 0.8041 0.59172 0.0
H1592 H 0.77531 0.82067 0.66642 0.0
H1593 H 0.77702 0.72675 0.37259 0.0
H1594 H 0.25555 0.84805 0.4795 0.0
H1595 H 0.23486 0.82544 0.4859 0.0
H1596 H 0.27404 0.79148 0.51896 0.0
H1597 H 0.29484 0.81417 0.5139 0.0
H1598 H 0.24822 0.7793 0.46442 0.0
H1599 H 0.25388 0.80443 0.57923 0.0
H1600 H 0.25434 0.82906 0.61823 0.0
H1601 H 0.20368 0.84139 0.58846 0.0
H1602 H 0.20304 0.81697 0.5488 0.0
H1603 H 0.19872 0.71199 0.52472 0.0
H1604 H 0.22006 0.73398 0.51996 0.0
H1605 H 0.18151 0.77203 0.52926 0.0
H1606 H 0.16023 0.75007 0.53618 0.0
H1607 H 0.20725 0.78272 0.56145 0.0
H1608 H 0.19971 0.75953 0.44862 0.0
H1609 H 0.19783 0.73725 0.4042 0.0
H1610 H 0.24943 0.72377 0.42288 0.0
H1611 H 0.25154 0.74581 0.46784 0.0
C1612 C 0.25983 0.83582 0.48824 0.0
C1613 C 0.27687 0.83307 0.49677 0.0
C1614 C 0.24797 0.82289 0.49172 0.0
C1615 C 0.25293 0.80685 0.50307 0.0
C1616 C 0.26998 0.8038 0.5102 0.0
C1617 C 0.28183 0.81682 0.5074 0.0
C1618 C 0.24017 0.79349 0.5089 0.0
C1619 C 0.23939 0.77985 0.48588 0.0
C1620 C 0.2283 0.79464 0.53613 0.0
C1621 C 0.22847 0.80897 0.56083 0.0
C1622 C 0.24288 0.81245 0.58084 0.0
C1623 C 0.24317 0.82637 0.60307 0.0
C1624 C 0.22906 0.83681 0.60575 0.0
C1625 C 0.21461 0.8333 0.58633 0.0
C1626 C 0.21427 0.81942 0.56399 0.0
C1627 C 0.19476 0.72503 0.52597 0.0
C1628 C 0.17766 0.72921 0.53024 0.0
C1629 C 0.207 0.73764 0.52299 0.0
C1630 C 0.20241 0.75475 0.52318 0.0
C1631 C 0.18542 0.75896 0.52872 0.0
C1632 C 0.17321 0.74635 0.53248 0.0
C1633 C 0.21527 0.76819 0.51709 0.0
C1634 C 0.21605 0.78197 0.53998 0.0
C1635 C 0.22689 0.76738 0.48912 0.0
C1636 C 0.22574 0.75422 0.46185 0.0
C1637 C 0.21063 0.75175 0.44342 0.0
C1638 C 0.20952 0.73917 0.41813 0.0
C1639 C 0.22349 0.72908 0.41078 0.0
C1640 C 0.23861 0.73158 0.42864 0.0
C1641 C 0.23978 0.74413 0.45402 0.0
H1642 H 0.22261 0.71934 0.3912 0.0
H1643 H 0.22932 0.84761 0.62291 0.0
H1644 H 0.26051 0.16719 0.55758 0.0
H1645 H 0.23946 0.18947 0.55245 0.0
H1646 H 0.27391 0.21889 0.4906 0.0
H1647 H 0.29501 0.19659 0.49517 0.0
H1648 H 0.23808 0.22222 0.57055 0.0
H1649 H 0.2514 0.23865 0.42673 0.0
H1650 H 0.26279 0.22486 0.37437 0.0
H1651 H 0.24747 0.17654 0.41345 0.0
H1652 H 0.23573 0.19005 0.46571 0.0
H1653 H 0.19386 0.29685 0.52838 0.0
H1654 H 0.21646 0.27606 0.53251 0.0
H1655 H 0.18724 0.24118 0.47128 0.0
H1656 H 0.16467 0.26193 0.46651 0.0
H1657 H 0.21984 0.23995 0.45289 0.0
H1658 H 0.18808 0.23778 0.55832 0.0
H1659 H 0.17469 0.24969 0.61056 0.0
H1660 H 0.22306 0.2655 0.64853 0.0
H1661 H 0.23671 0.25393 0.59618 0.0
C1662 C 0.2637 0.17842 0.54301 0.0
C1663 C 0.27945 0.17997 0.5265 0.0
C1664 C 0.25164 0.1912 0.54024 0.0
C1665 C 0.25501 0.20577 0.5208 0.0
C1666 C 0.27093 0.20765 0.50533 0.0
C1667 C 0.28301 0.19488 0.50808 0.0
C1668 C 0.24166 0.2187 0.51564 0.0
C1669 C 0.23416 0.22615 0.54483 0.0
C1670 C 0.23624 0.22358 0.48208 0.0
C1671 C 0.24286 0.21537 0.4503 0.0
C1672 C 0.25038 0.22509 0.42405 0.0
C1673 C 0.25691 0.21732 0.39439 0.0
C1674 C 0.25591 0.19983 0.39064 0.0
C1675 C 0.24829 0.19008 0.41643 0.0
C1676 C 0.2417 0.19779 0.44608 0.0
C1677 C 0.19227 0.28483 0.51547 0.0
C1678 C 0.17731 0.28106 0.49739 0.0
C1679 C 0.20521 0.27292 0.51798 0.0
C1680 C 0.20346 0.25695 0.50263 0.0
C1681 C 0.18886 0.25339 0.48341 0.0
C1682 C 0.17592 0.26528 0.48085 0.0
C1683 C 0.2165 0.24372 0.5078 0.0
C1684 C 0.22389 0.23615 0.47861 0.0
C1685 C 0.22152 0.23844 0.54136 0.0
C1686 C 0.2134 0.24513 0.57317 0.0
C1687 C 0.19585 0.24389 0.57771 0.0
C1688 C 0.18821 0.25057 0.60734 0.0
C1689 C 0.19802 0.25838 0.63281 0.0
C1690 C 0.21548 0.25947 0.62875 0.0
C1691 C 0.22318 0.25284 0.59911 0.0
H1692 H 0.19208 0.26357 0.65573 0.0
H1693 H 0.26101 0.19384 0.36771 0.0
H1694 H 0.84476 0.26011 0.54519 0.0
H1695 H 0.82246 0.23913 0.53913 0.0
H1696 H 0.7866 0.27841 0.51691 0.0
H1697 H 0.80899 0.29961 0.52178 0.0
H1698 H 0.77658 0.2497 0.56801 0.0
H1699 H 0.79778 0.26138 0.45203 0.0
H1700 H 0.82109 0.26496 0.41036 0.0
H1701 H 0.83707 0.21406 0.42907 0.0
H1702 H 0.81402 0.2103 0.47137 0.0
H1703 H 0.71143 0.196 0.50962 0.0
H1704 H 0.73133 0.2194 0.5139 0.0
H1705 H 0.77259 0.18523 0.49503 0.0
H1706 H 0.75273 0.16202 0.48865 0.0
H1707 H 0.77948 0.21269 0.46436 0.0
H1708 H 0.76048 0.19971 0.57887 0.0
H1709 H 0.73931 0.19466 0.62448 0.0
H1710 H 0.72175 0.24561 0.61452 0.0
H1711 H 0.74258 0.25086 0.56823 0.0
C1712 C 0.83217 0.26439 0.53909 0.0
C1713 C 0.82879 0.2816 0.53341 0.0
C1714 C 0.8194 0.25234 0.53578 0.0
C1715 C 0.80293 0.25722 0.52741 0.0
C1716 C 0.79926 0.27441 0.5234 0.0
C1717 C 0.8121 0.28649 0.52606 0.0
C1718 C 0.78985 0.24423 0.52073 0.0
C1719 C 0.77699 0.24176 0.54512 0.0
C1720 C 0.79079 0.23356 0.49143 0.0
C1721 C 0.80427 0.23561 0.46507 0.0
C1722 C 0.80633 0.25099 0.44741 0.0
C1723 C 0.81949 0.25305 0.42367 0.0
C1724 C 0.83058 0.23976 0.41713 0.0
C1725 C 0.82847 0.22435 0.43419 0.0
C1726 C 0.81536 0.22224 0.45803 0.0
C1727 C 0.72473 0.19346 0.50613 0.0
C1728 C 0.73045 0.17699 0.49938 0.0
C1729 C 0.73614 0.20688 0.50881 0.0
C1730 C 0.75358 0.20409 0.50576 0.0
C1731 C 0.75925 0.18778 0.49776 0.0
C1732 C 0.74783 0.17443 0.49435 0.0
C1733 C 0.76596 0.21802 0.51167 0.0
C1734 C 0.77883 0.22065 0.48719 0.0
C1735 C 0.76523 0.22859 0.54137 0.0
C1736 C 0.75297 0.22562 0.56981 0.0
C1737 C 0.75204 0.20981 0.58627 0.0
C1738 C 0.7401 0.20691 0.61223 0.0
C1739 C 0.72916 0.2198 0.62235 0.0
C1740 C 0.73021 0.23563 0.60661 0.0
C1741 C 0.74208 0.23858 0.58048 0.0
H1742 H 0.71989 0.21752 0.64241 0.0
H1743 H 0.84078 0.24138 0.39881 0.0
H1744 H 0.12486 0.31094 0.37795 0.0
H1745 H 0.13205 0.31979 0.31885 0.0
H1746 H 0.16829 0.35515 0.35962 0.0
H1747 H 0.16105 0.34673 0.41837 0.0
H1748 H 0.15197 0.3688 0.30616 0.0
H1749 H 0.18037 0.31644 0.32969 0.0
H1750 H 0.18185 0.28659 0.34733 0.0
H1751 H 0.14964 0.27284 0.26239 0.0
H1752 H 0.14775 0.30266 0.24455 0.0
H1753 H 0.20111 0.37966 0.15085 0.0
H1754 H 0.19192 0.37371 0.21044 0.0
H1755 H 0.15547 0.33801 0.1717 0.0
H1756 H 0.16462 0.34355 0.11282 0.0
H1757 H 0.17206 0.32487 0.22454 0.0
H1758 H 0.14388 0.37735 0.2007 0.0
H1759 H 0.14225 0.40726 0.18359 0.0
H1760 H 0.17423 0.42083 0.26903 0.0
H1761 H 0.17623 0.39095 0.28637 0.0
C1762 C 0.13421 0.32075 0.37437 0.0
C1763 C 0.14242 0.32802 0.40305 0.0
C1764 C 0.13837 0.32574 0.34054 0.0
C1765 C 0.1509 0.33798 0.33476 0.0
C1766 C 0.15861 0.34569 0.36336 0.0
C1767 C 0.15446 0.34077 0.39705 0.0
C1768 C 0.15662 0.34227 0.29906 0.0
C1769 C 0.15651 0.35921 0.28841 0.0
C1770 C 0.1624 0.32977 0.27573 0.0
C1771 C 0.16379 0.3118 0.28599 0.0
C1772 C 0.17353 0.30706 0.31489 0.0
C1773 C 0.17444 0.29015 0.32492 0.0
C1774 C 0.1658 0.27784 0.30605 0.0
C1775 C 0.1563 0.2824 0.27702 0.0
C1776 C 0.15531 0.2993 0.26692 0.0
C1777 C 0.19108 0.37062 0.15504 0.0
C1778 C 0.18362 0.36216 0.12685 0.0
C1779 C 0.1858 0.36725 0.18912 0.0
C1780 C 0.17292 0.35545 0.19557 0.0
C1781 C 0.16545 0.34711 0.16747 0.0
C1782 C 0.1707 0.3504 0.13364 0.0
C1783 C 0.16729 0.3514 0.23146 0.0
C1784 C 0.16749 0.33447 0.24222 0.0
C1785 C 0.16163 0.36392 0.25485 0.0
C1786 C 0.16034 0.3819 0.24461 0.0
C1787 C 0.15066 0.3867 0.21569 0.0
C1788 C 0.14966 0.40364 0.20597 0.0
C1789 C 0.15817 0.41593 0.22516 0.0
C1790 C 0.16766 0.4113 0.25416 0.0
C1791 C 0.16873 0.39436 0.26396 0.0
H1792 H 0.15738 0.42905 0.21759 0.0
H1793 H 0.16651 0.26475 0.31389 0.0
H1794 H 0.70368 0.12425 0.37913 0.0
H1795 H 0.69504 0.12983 0.31906 0.0
H1796 H 0.65671 0.16396 0.35568 0.0
H1797 H 0.66501 0.15844 0.41517 0.0
H1798 H 0.64466 0.14489 0.30421 0.0
H1799 H 0.69434 0.17844 0.32535 0.0
H1800 H 0.72398 0.18299 0.34214 0.0
H1801 H 0.74026 0.15079 0.25916 0.0
H1802 H 0.71068 0.14585 0.24219 0.0
H1803 H 0.62839 0.19373 0.15217 0.0
H1804 H 0.63594 0.1842 0.21062 0.0
H1805 H 0.674 0.15157 0.16753 0.0
H1806 H 0.66681 0.16111 0.10946 0.0
H1807 H 0.68635 0.1683 0.22128 0.0
H1808 H 0.63654 0.13588 0.19829 0.0
H1809 H 0.60685 0.13143 0.18177 0.0
H1810 H 0.59073 0.16154 0.26814 0.0
H1811 H 0.62035 0.16637 0.2849 0.0
C1812 C 0.69331 0.13281 0.37439 0.0
C1813 C 0.6851 0.14089 0.40215 0.0
C1814 C 0.68843 0.13605 0.34003 0.0
C1815 C 0.6753 0.14744 0.33283 0.0
C1816 C 0.66683 0.15511 0.36051 0.0
C1817 C 0.67168 0.15193 0.39466 0.0
C1818 C 0.67061 0.15195 0.29662 0.0
C1819 C 0.65375 0.15012 0.28615 0.0
C1820 C 0.68251 0.15852 0.27282 0.0
C1821 C 0.7003 0.16163 0.28275 0.0
C1822 C 0.70424 0.17223 0.31084 0.0
C1823 C 0.72103 0.17489 0.32037 0.0
C1824 C 0.734 0.16714 0.3018 0.0
C1825 C 0.7302 0.15676 0.27357 0.0
C1826 C 0.71343 0.15403 0.26397 0.0
C1827 C 0.63828 0.18444 0.1551 0.0
C1828 C 0.6469 0.17817 0.12594 0.0
C1829 C 0.64257 0.17897 0.18856 0.0
C1830 C 0.65547 0.16706 0.1935 0.0
C1831 C 0.66403 0.16078 0.16445 0.0
C1832 C 0.6598 0.16623 0.13114 0.0
C1833 C 0.66036 0.16131 0.22887 0.0
C1834 C 0.67726 0.16295 0.23921 0.0
C1835 C 0.6485 0.15458 0.25256 0.0
C1836 C 0.63067 0.15161 0.24266 0.0
C1837 C 0.62667 0.14165 0.21361 0.0
C1838 C 0.60986 0.13905 0.20423 0.0
C1839 C 0.59692 0.14623 0.22384 0.0
C1840 C 0.60077 0.156 0.25294 0.0
C1841 C 0.61757 0.15867 0.26242 0.0
H1842 H 0.58391 0.14419 0.21653 0.0
H1843 H 0.74699 0.16921 0.30922 0.0
H1844 H 0.84631 0.66365 0.41996 0.0
H1845 H 0.83956 0.65535 0.36092 0.0
H1846 H 0.87537 0.6915 0.32153 0.0
H1847 H 0.88212 0.70018 0.38105 0.0
H1848 H 0.84597 0.69292 0.28616 0.0
H1849 H 0.88395 0.64917 0.32054 0.0
H1850 H 0.89494 0.62679 0.35872 0.0
H1851 H 0.84894 0.59887 0.34659 0.0
H1852 H 0.83756 0.62121 0.30874 0.0
H1853 H 0.84398 0.66388 0.11361 0.0
H1854 H 0.85338 0.67053 0.17206 0.0
H1855 H 0.81751 0.63515 0.21406 0.0
H1856 H 0.80809 0.62812 0.15517 0.0
H1857 H 0.84767 0.63324 0.2477 0.0
H1858 H 0.80937 0.67713 0.21507 0.0
H1859 H 0.79805 0.69947 0.1772 0.0
H1860 H 0.84438 0.7271 0.18652 0.0
H1861 H 0.85608 0.70479 0.22405 0.0
C1862 C 0.85292 0.66982 0.39892 0.0
C1863 C 0.86488 0.68257 0.4055 0.0
C1864 C 0.84904 0.66497 0.36501 0.0
C1865 C 0.85709 0.67262 0.33667 0.0
C1866 C 0.86904 0.68536 0.34299 0.0
C1867 C 0.87295 0.69025 0.37705 0.0
C1868 C 0.85258 0.66755 0.30058 0.0
C1869 C 0.84664 0.67991 0.27758 0.0
C1870 C 0.85296 0.6505 0.28959 0.0
C1871 C 0.85985 0.63694 0.31202 0.0
C1872 C 0.87613 0.63831 0.32619 0.0
C1873 C 0.88243 0.62563 0.34776 0.0
C1874 C 0.87263 0.61144 0.35514 0.0
C1875 C 0.85651 0.60988 0.34087 0.0
C1876 C 0.85014 0.62254 0.31933 0.0
C1877 C 0.83809 0.65737 0.13511 0.0
C1878 C 0.82518 0.64547 0.12948 0.0
C1879 C 0.84347 0.66128 0.16866 0.0
C1880 C 0.83599 0.65357 0.19757 0.0
C1881 C 0.82344 0.64132 0.19215 0.0
C1882 C 0.81805 0.63733 0.15845 0.0
C1883 C 0.84108 0.65861 0.23333 0.0
C1884 C 0.8471 0.64626 0.25626 0.0
C1885 C 0.84073 0.67566 0.24431 0.0
C1886 C 0.83366 0.68921 0.22211 0.0
C1887 C 0.81719 0.68792 0.20885 0.0
C1888 C 0.8107 0.70058 0.18747 0.0
C1889 C 0.82051 0.71468 0.17939 0.0
C1890 C 0.83681 0.71616 0.19277 0.0
C1891 C 0.84337 0.70352 0.21412 0.0
H1892 H 0.81546 0.72446 0.16281 0.0
H1893 H 0.87753 0.60164 0.37185 0.0
H1894 H 0.32722 0.89197 0.38314 0.0
H1895 H 0.33668 0.88526 0.32407 0.0
H1896 H 0.3217 0.83341 0.33922 0.0
H1897 H 0.31344 0.83993 0.39865 0.0
H1898 H 0.34896 0.83233 0.30887 0.0
H1899 H 0.2989 0.86439 0.28736 0.0
H1900 H 0.27986 0.88887 0.29137 0.0
H1901 H 0.3173 0.92024 0.24336 0.0
H1902 H 0.33666 0.89599 0.23949 0.0
H1903 H 0.3334 0.83263 0.10896 0.0
H1904 H 0.32612 0.84186 0.16719 0.0
H1905 H 0.37779 0.83513 0.19934 0.0
H1906 H 0.38499 0.825 0.14115 0.0
H1907 H 0.33325 0.86631 0.2059 0.0
H1908 H 0.37996 0.82495 0.28435 0.0
H1909 H 0.3947 0.79771 0.2786 0.0
H1910 H 0.3559 0.77977 0.21026 0.0
H1911 H 0.34079 0.80677 0.21608 0.0
C1912 C 0.32584 0.87922 0.37353 0.0
C1913 C 0.31956 0.86647 0.39521 0.0
C1914 C 0.3312 0.87535 0.33977 0.0
C1915 C 0.3298 0.8588 0.32675 0.0
C1916 C 0.32311 0.84622 0.34845 0.0
C1917 C 0.31825 0.84998 0.38236 0.0
C1918 C 0.33552 0.85432 0.29096 0.0
C1919 C 0.34549 0.83981 0.28642 0.0
C1920 C 0.33091 0.86383 0.26132 0.0
C1921 C 0.31929 0.87842 0.26348 0.0
C1922 C 0.30311 0.87654 0.27787 0.0
C1923 C 0.29226 0.89036 0.28009 0.0
C1924 C 0.29738 0.90611 0.26771 0.0
C1925 C 0.31336 0.90805 0.25299 0.0
C1926 C 0.32427 0.89426 0.25076 0.0
C1927 C 0.34326 0.83307 0.12837 0.0
C1928 C 0.35978 0.82794 0.12041 0.0
C1929 C 0.33907 0.83846 0.16174 0.0
C1930 C 0.35132 0.83908 0.18799 0.0
C1931 C 0.36798 0.83444 0.17985 0.0
C1932 C 0.37212 0.82869 0.14653 0.0
C1933 C 0.3464 0.84421 0.22386 0.0
C1934 C 0.33673 0.85888 0.22841 0.0
C1935 C 0.35058 0.8344 0.25335 0.0
C1936 C 0.35937 0.81797 0.25033 0.0
C1937 C 0.37454 0.81516 0.26823 0.0
C1938 C 0.38296 0.79977 0.26495 0.0
C1939 C 0.37627 0.78704 0.24397 0.0
C1940 C 0.36109 0.78965 0.22641 0.0
C1941 C 0.3526 0.805 0.22969 0.0
H1942 H 0.38283 0.77516 0.24139 0.0
H1943 H 0.28896 0.9168 0.26945 0.0
H1944 H 0.16793 0.6646 0.61713 0.0
H1945 H 0.17314 0.65632 0.67662 0.0
H1946 H 0.13203 0.68762 0.71103 0.0
H1947 H 0.12664 0.69624 0.65071 0.0
H1948 H 0.16102 0.69106 0.75163 0.0
H1949 H 0.12684 0.64587 0.70884 0.0
H1950 H 0.11851 0.62394 0.66689 0.0
H1951 H 0.16581 0.59875 0.68205 0.0
H1952 H 0.17454 0.62069 0.72371 0.0
H1953 H 0.16327 0.6589 0.92124 0.0
H1954 H 0.15385 0.66605 0.86321 0.0
H1955 H 0.19135 0.63295 0.8196 0.0
H1956 H 0.20061 0.62516 0.87821 0.0
H1957 H 0.1623 0.63055 0.78435 0.0
H1958 H 0.1974 0.67592 0.82355 0.0
H1959 H 0.20676 0.69789 0.86451 0.0
H1960 H 0.15897 0.7228 0.85499 0.0
H1961 H 0.14923 0.70082 0.81435 0.0
C1962 C 0.15983 0.66974 0.63708 0.0
C1963 C 0.14671 0.68103 0.62885 0.0
C1964 C 0.16285 0.66491 0.67125 0.0
C1965 C 0.15283 0.67113 0.69826 0.0
C1966 C 0.13985 0.68258 0.69049 0.0
C1967 C 0.13675 0.68744 0.65602 0.0
C1968 C 0.1563 0.66568 0.73447 0.0
C1969 C 0.16097 0.67786 0.75902 0.0
C1970 C 0.15674 0.6484 0.74377 0.0
C1971 C 0.15138 0.63499 0.71925 0.0
C1972 C 0.1355 0.63571 0.7031 0.0
C1973 C 0.13071 0.62327 0.67937 0.0
C1974 C 0.14163 0.60998 0.67176 0.0
C1975 C 0.15736 0.60906 0.68796 0.0
C1976 C 0.16223 0.62148 0.71167 0.0
C1977 C 0.16947 0.65292 0.89948 0.0
C1978 C 0.18277 0.64142 0.90458 0.0
C1979 C 0.1641 0.65716 0.86617 0.0
C1980 C 0.17209 0.65032 0.83696 0.0
C1981 C 0.18504 0.63845 0.84178 0.0
C1982 C 0.19033 0.63403 0.8753 0.0
C1983 C 0.16711 0.65592 0.80154 0.0
C1984 C 0.16221 0.64376 0.7771 0.0
C1985 C 0.16658 0.67321 0.79225 0.0
C1986 C 0.17253 0.68664 0.81615 0.0
C1987 C 0.18885 0.68603 0.83034 0.0
C1988 C 0.19423 0.69849 0.85349 0.0
C1989 C 0.18345 0.71171 0.86242 0.0
C1990 C 0.1673 0.71254 0.84809 0.0
C1991 C 0.16185 0.70009 0.82497 0.0
H1992 H 0.18763 0.72132 0.88039 0.0
H1993 H 0.13791 0.60037 0.65335 0.0
H1994 H 0.34152 0.16746 0.61066 0.0
H1995 H 0.35075 0.1732 0.66947 0.0
H1996 H 0.32093 0.13156 0.70706 0.0
H1997 H 0.31121 0.12584 0.64773 0.0
H1998 H 0.31747 0.15888 0.74814 0.0
H1999 H 0.36387 0.12847 0.69993 0.0
H2000 H 0.38557 0.12204 0.65613 0.0
H2001 H 0.40812 0.17062 0.6723 0.0
H2002 H 0.38638 0.17746 0.7158 0.0
H2003 H 0.35252 0.15824 0.91474 0.0
H2004 H 0.34577 0.14978 0.85586 0.0
H2005 H 0.37359 0.19227 0.81596 0.0
H2006 H 0.38082 0.20076 0.87539 0.0
H2007 H 0.37832 0.16367 0.77644 0.0
H2008 H 0.33134 0.19432 0.82318 0.0
H2009 H 0.30983 0.20062 0.86747 0.0
H2010 H 0.28847 0.1513 0.85415 0.0
H2011 H 0.31003 0.1446 0.81014 0.0
C2012 C 0.3369 0.1594 0.63123 0.0
C2013 C 0.32566 0.14606 0.62422 0.0
C2014 C 0.34229 0.16269 0.66499 0.0
C2015 C 0.33678 0.15266 0.6927 0.0
C2016 C 0.32543 0.13942 0.68604 0.0
C2017 C 0.31993 0.13612 0.65209 0.0
C2018 C 0.34275 0.1563 0.72856 0.0
C2019 C 0.33077 0.15964 0.75444 0.0
C2020 C 0.36012 0.15772 0.73665 0.0
C2021 C 0.37341 0.15353 0.71095 0.0
C2022 C 0.37339 0.13782 0.694 0.0
C2023 C 0.3857 0.1341 0.66923 0.0
C2024 C 0.39819 0.14592 0.66139 0.0
C2025 C 0.39843 0.16148 0.67839 0.0
C2026 C 0.38612 0.16528 0.70313 0.0
C2027 C 0.35745 0.16575 0.89362 0.0
C2028 C 0.36718 0.18029 0.90001 0.0
C2029 C 0.35348 0.16089 0.85983 0.0
C2030 C 0.35888 0.17056 0.83149 0.0
C2031 C 0.36921 0.18466 0.83749 0.0
C2032 C 0.37333 0.18951 0.87148 0.0
C2033 C 0.35304 0.16625 0.79589 0.0
C2034 C 0.36502 0.16283 0.7701 0.0
C2035 C 0.33567 0.16474 0.78785 0.0
C2036 C 0.32239 0.16891 0.81356 0.0
C2037 C 0.3221 0.18479 0.82981 0.0
C2038 C 0.3099 0.18843 0.85487 0.0
C2039 C 0.29782 0.17635 0.86369 0.0
C2040 C 0.29786 0.16064 0.84732 0.0
C2041 C 0.31005 0.15692 0.82229 0.0
H2042 H 0.28841 0.17918 0.88315 0.0
H2043 H 0.4077 0.14302 0.64218 0.0
H2044 H 0.83681 0.34219 0.91954 0.0
H2045 H 0.84625 0.3351 0.86144 0.0
H2046 H 0.81942 0.37792 0.82027 0.0
H2047 H 0.80945 0.38497 0.87874 0.0
H2048 H 0.81465 0.35077 0.78042 0.0
H2049 H 0.86281 0.37805 0.83049 0.0
H2050 H 0.88451 0.38282 0.87523 0.0
H2051 H 0.90339 0.33268 0.85984 0.0
H2052 H 0.88162 0.3275 0.8154 0.0
H2053 H 0.85019 0.3512 0.61561 0.0
H2054 H 0.84384 0.35913 0.67487 0.0
H2055 H 0.86977 0.31496 0.71224 0.0
H2056 H 0.87679 0.30712 0.65224 0.0
H2057 H 0.8753 0.3423 0.75429 0.0
H2058 H 0.82708 0.31504 0.70436 0.0
H2059 H 0.80567 0.31045 0.65896 0.0
H2060 H 0.78698 0.36068 0.67403 0.0
H2061 H 0.80847 0.36568 0.71916 0.0
C2062 C 0.8329 0.35022 0.89829 0.0
C2063 C 0.8224 0.36426 0.90404 0.0
C2064 C 0.83841 0.34614 0.86496 0.0
C2065 C 0.83381 0.35612 0.83645 0.0
C2066 C 0.82322 0.37007 0.8419 0.0
C2067 C 0.81757 0.37413 0.87537 0.0
C2068 C 0.83986 0.35173 0.80099 0.0
C2069 C 0.82793 0.34917 0.77463 0.0
C2070 C 0.85718 0.34915 0.79355 0.0
C2071 C 0.87049 0.35234 0.81981 0.0
C2072 C 0.87153 0.36801 0.83679 0.0
C2073 C 0.88384 0.37079 0.86209 0.0
C2074 C 0.8953 0.35805 0.87042 0.0
C2075 C 0.8945 0.34253 0.85338 0.0
C2076 C 0.88218 0.33967 0.82811 0.0
C2077 C 0.85481 0.34321 0.63624 0.0
C2078 C 0.86394 0.32842 0.62894 0.0
C2079 C 0.85106 0.34775 0.67028 0.0
C2080 C 0.85595 0.33745 0.69803 0.0
C2081 C 0.86575 0.32306 0.69118 0.0
C2082 C 0.86974 0.31858 0.65689 0.0
C2083 C 0.85009 0.34147 0.73378 0.0
C2084 C 0.86203 0.3439 0.76016 0.0
C2085 C 0.83278 0.34393 0.7413 0.0
C2086 C 0.81947 0.34077 0.71499 0.0
C2087 C 0.81845 0.32513 0.69791 0.0
C2088 C 0.8063 0.32246 0.67221 0.0
C2089 C 0.795 0.33528 0.66356 0.0
C2090 C 0.79576 0.35077 0.68074 0.0
C2091 C 0.8079 0.35352 0.70642 0.0
H2092 H 0.78563 0.3332 0.64359 0.0
H2093 H 0.90481 0.36023 0.89004 0.0
H2094 H 0.62737 0.80788 0.87246 0.0
H2095 H 0.63472 0.81659 0.81332 0.0
H2096 H 0.66636 0.85607 0.85425 0.0
H2097 H 0.65918 0.84757 0.91304 0.0
H2098 H 0.64817 0.86704 0.79852 0.0
H2099 H 0.68366 0.82014 0.82796 0.0
H2100 H 0.68957 0.79123 0.84801 0.0
H2101 H 0.66136 0.77113 0.76239 0.0
H2102 H 0.65505 0.79996 0.74213 0.0
H2103 H 0.6981 0.88219 0.64572 0.0
H2104 H 0.68905 0.87572 0.70519 0.0
H2105 H 0.65756 0.83556 0.66661 0.0
H2106 H 0.66641 0.84179 0.60774 0.0
H2107 H 0.67585 0.82529 0.72159 0.0
H2108 H 0.64043 0.87222 0.69194 0.0
H2109 H 0.63439 0.90114 0.67212 0.0
H2110 H 0.66248 0.92121 0.75793 0.0
H2111 H 0.66891 0.89237 0.77799 0.0
C2112 C 0.63574 0.81853 0.86889 0.0
C2113 C 0.64267 0.82697 0.89766 0.0
C2114 C 0.63998 0.82346 0.83507 0.0
C2115 C 0.6512 0.83691 0.82938 0.0
C2116 C 0.65766 0.84569 0.85798 0.0
C2117 C 0.65354 0.84074 0.89167 0.0
C2118 C 0.65687 0.84143 0.7938 0.0
C2119 C 0.65437 0.85797 0.78181 0.0
C2120 C 0.66479 0.82955 0.77185 0.0
C2121 C 0.66873 0.8122 0.78374 0.0
C2122 C 0.67861 0.80956 0.81355 0.0
C2123 C 0.68204 0.79319 0.82494 0.0
C2124 C 0.6758 0.77935 0.80654 0.0
C2125 C 0.66615 0.78186 0.77665 0.0
C2126 C 0.66265 0.79821 0.76519 0.0
C2127 C 0.68919 0.87205 0.6499 0.0
C2128 C 0.683 0.86258 0.62177 0.0
C2129 C 0.68401 0.86837 0.6839 0.0
C2130 C 0.67258 0.85517 0.69033 0.0
C2131 C 0.66642 0.84575 0.66233 0.0
C2132 C 0.67149 0.84943 0.62854 0.0
C2133 C 0.66705 0.85088 0.72614 0.0
C2134 C 0.66963 0.83438 0.73825 0.0
C2135 C 0.65921 0.8628 0.74815 0.0
C2136 C 0.65531 0.88014 0.73624 0.0
C2137 C 0.64545 0.8828 0.70642 0.0
C2138 C 0.64193 0.89918 0.69517 0.0
C2139 C 0.64809 0.913 0.7137 0.0
C2140 C 0.65775 0.91048 0.74357 0.0
C2141 C 0.66132 0.89413 0.75491 0.0
H2142 H 0.64535 0.92567 0.70495 0.0
H2143 H 0.67847 0.76669 0.8154 0.0
H2144 H 0.85686 0.66195 0.62364 0.0
H2145 H 0.84906 0.65595 0.6836 0.0
H2146 H 0.84063 0.70894 0.70167 0.0
H2147 H 0.84891 0.71511 0.64179 0.0
H2148 H 0.85523 0.69555 0.75622 0.0
H2149 H 0.80759 0.68141 0.68639 0.0
H2150 H 0.79276 0.66764 0.63782 0.0
H2151 H 0.80582 0.619 0.67856 0.0
H2152 H 0.82096 0.63249 0.7271 0.0
H2153 H 0.79087 0.66131 0.89249 0.0
H2154 H 0.79752 0.66865 0.83224 0.0
H2155 H 0.85003 0.65807 0.85127 0.0
H2156 H 0.84359 0.65112 0.91142 0.0
H2157 H 0.81092 0.65265 0.77813 0.0
H2158 H 0.87453 0.68563 0.80862 0.0
H2159 H 0.88785 0.70093 0.85715 0.0
H2160 H 0.83913 0.71557 0.89498 0.0
H2161 H 0.82554 0.70059 0.84639 0.0
C2162 C 0.85346 0.67236 0.6404 0.0
C2163 C 0.85337 0.68901 0.62783 0.0
C2164 C 0.84891 0.66889 0.67467 0.0
C2165 C 0.84389 0.68194 0.697 0.0
C2166 C 0.84436 0.69864 0.6849 0.0
C2167 C 0.84909 0.70216 0.65064 0.0
C2168 C 0.83787 0.67807 0.73271 0.0
C2169 C 0.84553 0.68619 0.76096 0.0
C2170 C 0.82492 0.66613 0.73901 0.0
C2171 C 0.81552 0.65797 0.71025 0.0
C2172 C 0.80737 0.66778 0.6849 0.0
C2173 C 0.79891 0.66003 0.65737 0.0
C2174 C 0.79838 0.64246 0.65507 0.0
C2175 C 0.80625 0.63261 0.68036 0.0
C2176 C 0.81476 0.6403 0.70791 0.0
C2177 C 0.80381 0.66042 0.88374 0.0
C2178 C 0.81672 0.65579 0.90686 0.0
C2179 C 0.80759 0.66462 0.84929 0.0
C2180 C 0.82432 0.66422 0.83737 0.0
C2181 C 0.83708 0.65885 0.86004 0.0
C2182 C 0.83336 0.65481 0.89444 0.0
C2183 C 0.8286 0.6698 0.80159 0.0
C2184 C 0.82058 0.66204 0.77334 0.0
C2185 C 0.84094 0.68236 0.79527 0.0
C2186 C 0.84902 0.69186 0.824 0.0
C2187 C 0.86667 0.69221 0.82716 0.0
C2188 C 0.87426 0.70081 0.85471 0.0
C2189 C 0.86434 0.70917 0.87919 0.0
C2190 C 0.8468 0.70904 0.87606 0.0
C2191 C 0.83915 0.70049 0.84853 0.0
H2192 H 0.87024 0.71577 0.90056 0.0
H2193 H 0.79184 0.63648 0.6337 0.0
H2194 H 0.34533 0.84217 0.60391 0.0
H2195 H 0.35253 0.83506 0.66378 0.0
H2196 H 0.30671 0.85856 0.69933 0.0
H2197 H 0.29925 0.86559 0.63927 0.0
H2198 H 0.33693 0.86725 0.73786 0.0
H2199 H 0.30683 0.81832 0.69574 0.0
H2200 H 0.30149 0.79521 0.65441 0.0
H2201 H 0.35102 0.77549 0.67325 0.0
H2202 H 0.35675 0.79865 0.71433 0.0
H2203 H 0.33375 0.83855 0.90918 0.0
H2204 H 0.3276 0.8451 0.84884 0.0
H2205 H 0.36611 0.81018 0.81591 0.0
H2206 H 0.37167 0.80286 0.87678 0.0
H2207 H 0.34091 0.80742 0.7746 0.0
H2208 H 0.37173 0.85484 0.8165 0.0
H2209 H 0.37876 0.87809 0.8564 0.0
H2210 H 0.33079 0.9011 0.83627 0.0
H2211 H 0.32336 0.87785 0.79662 0.0
C2212 C 0.33679 0.84591 0.62443 0.0
C2213 C 0.32168 0.85442 0.61684 0.0
C2214 C 0.34092 0.84178 0.65861 0.0
C2215 C 0.3301 0.8462 0.68587 0.0
C2216 C 0.3152 0.85503 0.67856 0.0
C2217 C 0.31094 0.85899 0.64427 0.0
C2218 C 0.3343 0.8414 0.722 0.0
C2219 C 0.3376 0.85419 0.74611 0.0
C2220 C 0.33578 0.82435 0.73223 0.0
C2221 C 0.33227 0.81031 0.70784 0.0
C2222 C 0.31663 0.80914 0.69086 0.0
C2223 C 0.31353 0.79601 0.66751 0.0
C2224 C 0.32593 0.78391 0.66114 0.0
C2225 C 0.34144 0.78488 0.67818 0.0
C2226 C 0.34461 0.798 0.70152 0.0
C2227 C 0.34095 0.83227 0.88911 0.0
C2228 C 0.35333 0.82032 0.89765 0.0
C2229 C 0.33748 0.8361 0.85455 0.0
C2230 C 0.34671 0.82852 0.82769 0.0
C2231 C 0.35889 0.81631 0.83614 0.0
C2232 C 0.3621 0.81215 0.87087 0.0
C2233 C 0.34343 0.8333 0.79093 0.0
C2234 C 0.34033 0.82051 0.76654 0.0
C2235 C 0.34243 0.85039 0.78027 0.0
C2236 C 0.34694 0.86452 0.80378 0.0
C2237 C 0.36264 0.86481 0.82073 0.0
C2238 C 0.3667 0.87799 0.84329 0.0
C2239 C 0.35522 0.89105 0.84892 0.0
C2240 C 0.33967 0.89097 0.8319 0.0
C2241 C 0.33553 0.8778 0.80935 0.0
H2242 H 0.35838 0.90124 0.86642 0.0
H2243 H 0.3235 0.77376 0.64305 0.0
H2244 H 0.14233 0.29646 0.64361 0.0
H2245 H 0.14988 0.30168 0.70457 0.0
H2246 H 0.17903 0.34505 0.67377 0.0
H2247 H 0.17128 0.34022 0.61324 0.0
H2248 H 0.19518 0.32115 0.72388 0.0
H2249 H 0.14424 0.35386 0.70306 0.0
H2250 H 0.11467 0.35702 0.68448 0.0
H2251 H 0.09915 0.32094 0.76117 0.0
H2252 H 0.12868 0.31738 0.77984 0.0
H2253 H 0.20926 0.36291 0.88397 0.0
H2254 H 0.20276 0.35572 0.82362 0.0
H2255 H 0.16095 0.32514 0.85809 0.0
H2256 H 0.16685 0.33298 0.91796 0.0
H2257 H 0.15124 0.34124 0.80552 0.0
H2258 H 0.2002 0.30813 0.82882 0.0
H2259 H 0.22929 0.30285 0.84848 0.0
H2260 H 0.24821 0.33605 0.76957 0.0
H2261 H 0.2192 0.34163 0.74959 0.0
C2262 C 0.15037 0.30707 0.6499 0.0
C2263 C 0.1561 0.31801 0.62375 0.0
C2264 C 0.15467 0.31002 0.68462 0.0
C2265 C 0.16502 0.32373 0.6935 0.0
C2266 C 0.17108 0.33438 0.66735 0.0
C2267 C 0.16653 0.33166 0.63285 0.0
C2268 C 0.169 0.32749 0.73018 0.0
C2269 C 0.18564 0.32566 0.74178 0.0
C2270 C 0.15644 0.33294 0.75355 0.0
C2271 C 0.13868 0.33521 0.74256 0.0
C2272 C 0.13454 0.34649 0.71574 0.0
C2273 C 0.11778 0.34838 0.70524 0.0
C2274 C 0.10504 0.33915 0.72156 0.0
C2275 C 0.10903 0.32806 0.7485 0.0
C2276 C 0.12577 0.3261 0.75906 0.0
C2277 C 0.1987 0.35466 0.87856 0.0
C2278 C 0.18856 0.34853 0.90562 0.0
C2279 C 0.19504 0.35045 0.84409 0.0
C2280 C 0.18149 0.33964 0.8362 0.0
C2281 C 0.17142 0.33352 0.86336 0.0
C2282 C 0.17484 0.33801 0.89763 0.0
C2283 C 0.17754 0.3349 0.79971 0.0
C2284 C 0.16085 0.33661 0.78795 0.0
C2285 C 0.19003 0.32897 0.77644 0.0
C2286 C 0.20752 0.32542 0.78792 0.0
C2287 C 0.21056 0.31437 0.81577 0.0
C2288 C 0.22703 0.31131 0.82696 0.0
C2289 C 0.24059 0.31917 0.8104 0.0
C2290 C 0.2377 0.33 0.78243 0.0
C2291 C 0.22124 0.33309 0.7711 0.0
H2292 H 0.25333 0.31683 0.81919 0.0
H2293 H 0.09208 0.34063 0.7134 0.0
H2294 H 0.64282 0.2092 0.88396 0.0
H2295 H 0.65027 0.20388 0.82302 0.0
H2296 H 0.67809 0.15966 0.85367 0.0
H2297 H 0.67055 0.16466 0.91412 0.0
H2298 H 0.69562 0.18184 0.8068 0.0
H2299 H 0.64201 0.1534 0.82056 0.0
H2300 H 0.61187 0.15196 0.83576 0.0
H2301 H 0.60071 0.18967 0.7592 0.0
H2302 H 0.63085 0.19151 0.74391 0.0
H2303 H 0.7097 0.14121 0.64515 0.0
H2304 H 0.70293 0.14863 0.70524 0.0
H2305 H 0.66441 0.18276 0.66889 0.0
H2306 H 0.67049 0.17464 0.60923 0.0
H2307 H 0.65229 0.16698 0.71925 0.0
H2308 H 0.70489 0.19618 0.7043 0.0
H2309 H 0.735 0.19954 0.68997 0.0
H2310 H 0.7481 0.16294 0.76737 0.0
H2311 H 0.71807 0.15937 0.78229 0.0
C2312 C 0.6505 0.19835 0.87764 0.0
C2313 C 0.65602 0.18731 0.90381 0.0
C2314 C 0.65473 0.19533 0.8429 0.0
C2315 C 0.66473 0.18138 0.83397 0.0
C2316 C 0.6704 0.1705 0.86008 0.0
C2317 C 0.66597 0.17334 0.89459 0.0
C2318 C 0.66919 0.17789 0.79738 0.0
C2319 C 0.6862 0.17848 0.7876 0.0
C2320 C 0.65683 0.17391 0.77233 0.0
C2321 C 0.6387 0.17273 0.78138 0.0
C2322 C 0.63315 0.1615 0.8072 0.0
C2323 C 0.61606 0.16059 0.81578 0.0
C2324 C 0.60438 0.17076 0.79854 0.0
C2325 C 0.60977 0.18182 0.77259 0.0
C2326 C 0.62685 0.1828 0.76394 0.0
C2327 C 0.69985 0.15033 0.65011 0.0
C2328 C 0.69059 0.1573 0.6226 0.0
C2329 C 0.69605 0.15468 0.68444 0.0
C2330 C 0.68329 0.16648 0.69178 0.0
C2331 C 0.67425 0.1736 0.6641 0.0
C2332 C 0.67776 0.16896 0.62995 0.0
C2333 C 0.67885 0.17099 0.72818 0.0
C2334 C 0.6618 0.17051 0.73811 0.0
C2335 C 0.69118 0.17534 0.75324 0.0
C2336 C 0.70923 0.1774 0.74418 0.0
C2337 C 0.71418 0.18877 0.7181 0.0
C2338 C 0.73123 0.19073 0.7099 0.0
C2339 C 0.74344 0.18139 0.72757 0.0
C2340 C 0.73863 0.17014 0.75365 0.0
C2341 C 0.72161 0.16818 0.76208 0.0
H2342 H 0.75662 0.18292 0.72113 0.0
H2343 H 0.59116 0.17003 0.80521 0.0
H2344 H 0.84037 0.29679 0.39389 0.0
H2345 H 0.83363 0.30375 0.33353 0.0
H2346 H 0.8454 0.35599 0.35344 0.0
H2347 H 0.85157 0.34923 0.41378 0.0
H2348 H 0.8182 0.35471 0.31747 0.0
H2349 H 0.87261 0.32879 0.3085 0.0
H2350 H 0.89369 0.30635 0.31706 0.0
H2351 H 0.86328 0.27205 0.25779 0.0
H2352 H 0.84189 0.29423 0.24929 0.0
H2353 H 0.84281 0.35846 0.12115 0.0
H2354 H 0.84906 0.35181 0.18158 0.0
H2355 H 0.7959 0.3469 0.20281 0.0
H2356 H 0.78951 0.35396 0.14243 0.0
H2357 H 0.84397 0.3246 0.21804 0.0
H2358 H 0.78798 0.35757 0.28655 0.0
H2359 H 0.76956 0.38228 0.27826 0.0
H2360 H 0.80814 0.40672 0.21845 0.0
H2361 H 0.82686 0.38226 0.22678 0.0
C2362 C 0.84159 0.30973 0.38531 0.0
C2363 C 0.8465 0.32245 0.4086 0.0
C2364 C 0.83777 0.3137 0.35078 0.0
C2365 C 0.83912 0.3304 0.33879 0.0
C2366 C 0.84416 0.34304 0.36204 0.0
C2367 C 0.84776 0.33914 0.39655 0.0
C2368 C 0.83517 0.33486 0.30217 0.0
C2369 C 0.82382 0.34808 0.29575 0.0
C2370 C 0.84268 0.32644 0.27372 0.0
C2371 C 0.85558 0.31312 0.27855 0.0
C2372 C 0.87037 0.31643 0.29749 0.0
C2373 C 0.88238 0.30376 0.30231 0.0
C2374 C 0.87981 0.28778 0.28806 0.0
C2375 C 0.86524 0.28444 0.26886 0.0
C2376 C 0.85318 0.29705 0.26401 0.0
C2377 C 0.83242 0.35612 0.13871 0.0
C2378 C 0.81565 0.35679 0.12696 0.0
C2379 C 0.83603 0.35222 0.17325 0.0
C2380 C 0.82297 0.34889 0.19684 0.0
C2381 C 0.80619 0.34964 0.18524 0.0
C2382 C 0.80256 0.35368 0.15069 0.0
C2383 C 0.827 0.34444 0.2334 0.0
C2384 C 0.83831 0.33117 0.23978 0.0
C2385 C 0.81984 0.35315 0.26183 0.0
C2386 C 0.80874 0.368 0.25698 0.0
C2387 C 0.79255 0.36824 0.27173 0.0
C2388 C 0.78205 0.3822 0.26701 0.0
C2389 C 0.78765 0.39603 0.24774 0.0
C2390 C 0.80379 0.39597 0.23325 0.0
C2391 C 0.81434 0.38205 0.23793 0.0
H2392 H 0.7795 0.40682 0.24409 0.0
H2393 H 0.88912 0.27798 0.29182 0.0
H2394 H 0.66553 0.84362 0.10988 0.0
H2395 H 0.67289 0.8489 0.17028 0.0
H2396 H 0.65181 0.80084 0.19941 0.0
H2397 H 0.64448 0.79528 0.13851 0.0
H2398 H 0.64191 0.82991 0.24196 0.0
H2399 H 0.69165 0.80311 0.19531 0.0
H2400 H 0.71454 0.80007 0.15258 0.0
H2401 H 0.73276 0.84951 0.1778 0.0
H2402 H 0.70971 0.85307 0.22007 0.0
H2403 H 0.6709 0.83043 0.41376 0.0
H2404 H 0.66463 0.82262 0.35402 0.0
H2405 H 0.69813 0.86169 0.31739 0.0
H2406 H 0.70527 0.86882 0.37762 0.0
H2407 H 0.70163 0.8364 0.27786 0.0
H2408 H 0.653 0.86543 0.31914 0.0
H2409 H 0.62952 0.87181 0.35892 0.0
H2410 H 0.60868 0.82259 0.34125 0.0
H2411 H 0.63217 0.81583 0.30172 0.0
C2412 C 0.66238 0.83414 0.12903 0.0
C2413 C 0.65441 0.819 0.11936 0.0
C2414 C 0.66667 0.83718 0.16355 0.0
C2415 C 0.66299 0.82521 0.18917 0.0
C2416 C 0.65477 0.8102 0.17988 0.0
C2417 C 0.65064 0.80703 0.14514 0.0
C2418 C 0.66778 0.82854 0.22565 0.0
C2419 C 0.65496 0.83105 0.25008 0.0
C2420 C 0.68479 0.8307 0.23565 0.0
C2421 C 0.69885 0.82841 0.21069 0.0
C2422 C 0.70045 0.8134 0.19157 0.0
C2423 C 0.71347 0.81156 0.16745 0.0
C2424 C 0.7251 0.82457 0.16249 0.0
C2425 C 0.72374 0.83944 0.18167 0.0
C2426 C 0.7107 0.84138 0.2057 0.0
C2427 C 0.67694 0.83735 0.39294 0.0
C2428 C 0.68843 0.85035 0.40022 0.0
C2429 C 0.67327 0.83294 0.35876 0.0
C2430 C 0.68051 0.84186 0.33102 0.0
C2431 C 0.69229 0.85466 0.33828 0.0
C2432 C 0.69634 0.85877 0.37263 0.0
C2433 C 0.67574 0.83779 0.29459 0.0
C2434 C 0.68855 0.83519 0.27003 0.0
C2435 C 0.65867 0.836 0.2842 0.0
C2436 C 0.64443 0.84007 0.30772 0.0
C2437 C 0.64347 0.85593 0.3239 0.0
C2438 C 0.63015 0.85962 0.34639 0.0
C2439 C 0.61764 0.8476 0.35268 0.0
C2440 C 0.61839 0.83188 0.33639 0.0
C2441 C 0.63169 0.82812 0.31392 0.0
H2442 H 0.60735 0.85047 0.37011 0.0
H2443 H 0.73517 0.82311 0.1438 0.0
H2444 H 0.14664 0.70518 0.38663 0.0
H2445 H 0.15349 0.69845 0.32605 0.0
H2446 H 0.1864 0.65858 0.36043 0.0
H2447 H 0.17946 0.665 0.42076 0.0
H2448 H 0.20009 0.68047 0.30673 0.0
H2449 H 0.15065 0.64714 0.33403 0.0
H2450 H 0.12151 0.64326 0.35474 0.0
H2451 H 0.10344 0.67636 0.27484 0.0
H2452 H 0.13253 0.68065 0.254 0.0
H2453 H 0.21259 0.63765 0.14664 0.0
H2454 H 0.20694 0.64471 0.20746 0.0
H2455 H 0.16396 0.6743 0.1759 0.0
H2456 H 0.16906 0.66668 0.1157 0.0
H2457 H 0.15556 0.65782 0.2293 0.0
H2458 H 0.20349 0.69191 0.20098 0.0
H2459 H 0.23224 0.69781 0.17995 0.0
H2460 H 0.2528 0.66633 0.26008 0.0
H2461 H 0.22414 0.66006 0.28131 0.0
C2462 C 0.15539 0.69504 0.38123 0.0
C2463 C 0.16243 0.68555 0.40837 0.0
C2464 C 0.15926 0.69121 0.3467 0.0
C2465 C 0.17042 0.678 0.33891 0.0
C2466 C 0.17779 0.66883 0.36598 0.0
C2467 C 0.17372 0.67246 0.40039 0.0
C2468 C 0.17401 0.67333 0.30251 0.0
C2469 C 0.19043 0.67537 0.28978 0.0
C2470 C 0.16128 0.66705 0.28038 0.0
C2471 C 0.14378 0.66435 0.2927 0.0
C2472 C 0.14048 0.65371 0.32107 0.0
C2473 C 0.12397 0.65141 0.3328 0.0
C2474 C 0.11063 0.6596 0.31618 0.0
C2475 C 0.11378 0.67005 0.28773 0.0
C2476 C 0.13028 0.67241 0.27593 0.0
C2477 C 0.20194 0.64563 0.1528 0.0
C2478 C 0.19126 0.65158 0.12644 0.0
C2479 C 0.19876 0.64975 0.18752 0.0
C2480 C 0.18514 0.66026 0.19634 0.0
C2481 C 0.1745 0.66615 0.16991 0.0
C2482 C 0.17746 0.66178 0.13542 0.0
C2483 C 0.18172 0.66505 0.233 0.0
C2484 C 0.1653 0.66298 0.24597 0.0
C2485 C 0.19441 0.67159 0.25513 0.0
C2486 C 0.21166 0.67538 0.24251 0.0
C2487 C 0.21413 0.68615 0.21396 0.0
C2488 C 0.23041 0.68957 0.20203 0.0
C2489 C 0.24433 0.68241 0.21861 0.0
C2490 C 0.242 0.67185 0.24723 0.0
C2491 C 0.22574 0.66836 0.25924 0.0
H2492 H 0.25693 0.68508 0.20934 0.0
H2493 H 0.09786 0.6578 0.32529 0.0
H2494 H 0.29758 0.1457 0.38201 0.0
H2495 H 0.30348 0.15288 0.3212 0.0
H2496 H 0.34813 0.1798 0.35277 0.0
H2497 H 0.34257 0.17246 0.41326 0.0
H2498 H 0.3261 0.19753 0.30407 0.0
H2499 H 0.35442 0.1441 0.32077 0.0
H2500 H 0.35576 0.11413 0.33751 0.0
H2501 H 0.31828 0.10207 0.26105 0.0
H2502 H 0.31653 0.13204 0.24423 0.0
H2503 H 0.36659 0.20941 0.14094 0.0
H2504 H 0.35921 0.20365 0.20152 0.0
H2505 H 0.32482 0.1647 0.16806 0.0
H2506 H 0.33282 0.16982 0.10795 0.0
H2507 H 0.34099 0.1532 0.21872 0.0
H2508 H 0.31167 0.20543 0.20111 0.0
H2509 H 0.30815 0.23533 0.18511 0.0
H2510 H 0.3447 0.24966 0.26172 0.0
H2511 H 0.34844 0.21985 0.27826 0.0
C2512 C 0.30866 0.15313 0.37594 0.0
C2513 C 0.31966 0.15843 0.40238 0.0
C2514 C 0.312 0.15721 0.34127 0.0
C2515 C 0.32624 0.16687 0.33261 0.0
C2516 C 0.33707 0.17237 0.35898 0.0
C2517 C 0.33391 0.16806 0.39349 0.0
C2518 C 0.33007 0.171 0.29598 0.0
C2519 C 0.3295 0.1879 0.28536 0.0
C2520 C 0.33409 0.15836 0.27157 0.0
C2521 C 0.33521 0.14034 0.28152 0.0
C2522 C 0.34635 0.13509 0.30776 0.0
C2523 C 0.3472 0.1181 0.31721 0.0
C2524 C 0.33707 0.10621 0.30042 0.0
C2525 C 0.3261 0.1113 0.27407 0.0
C2526 C 0.32518 0.12828 0.26456 0.0
C2527 C 0.3574 0.1997 0.14662 0.0
C2528 C 0.35035 0.19002 0.11978 0.0
C2529 C 0.35308 0.19647 0.18124 0.0
C2530 C 0.34127 0.18384 0.18954 0.0
C2531 C 0.33401 0.17444 0.16253 0.0
C2532 C 0.33859 0.1774 0.12811 0.0
C2533 C 0.33692 0.17986 0.22627 0.0
C2534 C 0.33747 0.16293 0.23711 0.0
C2535 C 0.3326 0.19248 0.25071 0.0
C2536 C 0.33045 0.2104 0.24068 0.0
C2537 C 0.31904 0.21494 0.21437 0.0
C2538 C 0.317 0.23187 0.20524 0.0
C2539 C 0.32627 0.24437 0.22222 0.0
C2540 C 0.33755 0.23997 0.24853 0.0
C2541 C 0.33961 0.22306 0.25787 0.0
H2542 H 0.32467 0.25746 0.21507 0.0
H2543 H 0.33776 0.09307 0.30777 0.0
loop_
_geom_bond_atom_site_label_1
_geom_bond_atom_site_label_2
_geom_bond_distance
_geom_bond_site_symmetry_2
_ccdc_geom_bond_type
Co0 O2 2.140 1_554 S
Co0 O8 2.106 . S
Co0 O11 2.060 1_554 S
Co0 O24 2.095 1_554 S
Co0 N41 2.153 . S
Co0 N49 2.218 . S
Co1 O2 2.160 1_554 S
Co1 O7 2.058 . S
Co1 O17 2.057 . S
Co1 O32 2.037 . S
Co1 N36 2.145 . S
Co1 N57 2.257 1_554 S
O2 Co0 2.140 1_556 S
O2 Co1 2.160 1_556 S
C3 O4 1.278 . S
C3 O11 1.224 . S
O4 C3 1.278 . S
C5 O6 1.245 . S
C5 O17 1.232 . S
O6 C5 1.245 . S
O7 Co1 2.058 . S
O7 C33 1.269 . S
O8 Co0 2.106 . S
O8 C33 1.257 . S
H9 C34 0.930 . S
H10 C40 0.930 . S
O11 Co0 2.060 1_556 S
O11 C3 1.224 . S
H12 C44 0.929 . S
H13 C46 0.943 . S
H14 C47 0.930 . S
H15 C45 0.929 . S
H16 C48 0.928 . S
O17 Co1 2.057 . S
O17 C5 1.232 . S
H18 C37 0.929 . S
H19 C38 0.929 . S
H20 C50 0.931 . S
H21 C42 0.929 . S
H22 C51 0.930 . S
H23 C43 0.931 . S
O24 Co0 2.095 1_556 S
O24 C52 1.214 1_556 S
H25 C53 0.929 . S
H26 C54 0.929 1_554 S
H27 C55 0.930 . S
H28 C56 0.929 . S
H29 C58 0.930 . S
H30 C35 0.930 . S
H31 C39 0.930 . S
O32 Co1 2.037 . S
O32 C52 1.234 . S
C33 O7 1.269 . S
C33 O8 1.257 . S
C34 H9 0.930 . S
C34 C37 1.388 . S
C34 C39 1.418 . S
C35 H30 0.930 . S
C35 C38 1.404 . S
C35 C39 1.353 . S
N36 Co1 2.145 . S
N36 C37 1.397 . S
N36 C38 1.334 . S
C37 H18 0.929 . S
C37 C34 1.388 . S
C37 N36 1.397 . S
C38 H19 0.929 . S
C38 C35 1.404 . S
C38 N36 1.334 . S
C39 H31 0.930 . S
C39 C34 1.418 . S
C39 C35 1.353 . S
C40 H10 0.930 . S
C40 N41 1.330 1_556 S
C40 C42 1.446 . S
N41 Co0 2.153 . S
N41 C40 1.330 1_554 S
N41 C45 1.418 . S
C42 H21 0.929 . S
C42 C40 1.446 . S
C42 C43 1.332 1_556 S
C43 H23 0.931 . S
C43 C42 1.332 1_554 S
C43 C44 1.267 . S
C44 H12 0.929 . S
C44 C43 1.267 . S
C44 C45 1.251 . S
C45 H15 0.929 . S
C45 N41 1.418 . S
C45 C44 1.251 . S
C46 H13 0.943 . S
C46 C48 1.411 . S
C46 C51 1.242 1_556 S
C47 H14 0.930 . S
C47 N49 1.325 . S
C47 C50 1.357 . S
C48 H16 0.928 . S
C48 C46 1.411 . S
C48 N49 1.261 1_556 S
N49 Co0 2.218 . S
N49 C47 1.325 . S
N49 C48 1.261 1_554 S
C50 H20 0.931 . S
C50 C47 1.357 . S
C50 C51 1.312 . S
C51 H22 0.930 . S
C51 C46 1.242 1_554 S
C51 C50 1.312 . S
C52 O24 1.214 1_554 S
C52 O32 1.234 . S
C53 H25 0.929 . S
C53 C56 1.391 . S
C53 C58 1.391 . S
C54 H26 0.929 1_556 S
C54 C55 1.390 . S
C54 N57 1.391 . S
C55 H27 0.930 . S
C55 C54 1.390 . S
C55 C56 1.392 . S
C56 H28 0.929 . S
C56 C53 1.391 . S
C56 C55 1.392 . S
N57 Co1 2.257 1_556 S
N57 C54 1.391 . S
N57 C58 1.388 . S
C58 H29 0.930 . S
C58 C53 1.391 . S
C58 N57 1.388 . S
Co59 O61 2.140 1_554 S
Co59 O67 2.106 . S
Co59 O70 2.060 1_554 S
Co59 O83 2.095 1_554 S
Co59 N100 2.153 . S
Co59 N108 2.218 . S
Co60 O61 2.160 1_554 S
Co60 O66 2.058 . S
Co60 O76 2.057 . S
Co60 O91 2.037 . S
Co60 N95 2.145 . S
Co60 N116 2.257 1_554 S
O61 Co59 2.140 1_556 S
O61 Co60 2.160 1_556 S
C62 O63 1.278 . S
C62 O70 1.224 . S
O63 C62 1.278 . S
C64 O65 1.245 . S
C64 O76 1.232 . S
O65 C64 1.245 . S
O66 Co60 2.058 . S
O66 C92 1.269 . S
O67 Co59 2.106 . S
O67 C92 1.257 . S
H68 C93 0.930 . S
H69 C99 0.930 . S
O70 Co59 2.060 1_556 S
O70 C62 1.224 . S
H71 C103 0.929 . S
H72 C105 0.943 . S
H73 C106 0.930 . S
H74 C104 0.929 . S
H75 C107 0.928 . S
O76 Co60 2.057 . S
O76 C64 1.232 . S
H77 C96 0.929 . S
H78 C97 0.929 . S
H79 C109 0.931 . S
H80 C101 0.929 . S
H81 C110 0.930 . S
H82 C102 0.931 . S
O83 Co59 2.095 1_556 S
O83 C111 1.214 1_556 S
H84 C112 0.929 . S
H85 C113 0.929 1_554 S
H86 C114 0.930 . S
H87 C115 0.929 . S
H88 C117 0.930 . S
H89 C94 0.930 . S
H90 C98 0.930 . S
O91 Co60 2.037 . S
O91 C111 1.234 . S
C92 O66 1.269 . S
C92 O67 1.257 . S
C93 H68 0.930 . S
C93 C96 1.388 . S
C93 C98 1.418 . S
C94 H89 0.930 . S
C94 C97 1.404 . S
C94 C98 1.353 . S
N95 Co60 2.145 . S
N95 C96 1.397 . S
N95 C97 1.334 . S
C96 H77 0.929 . S
C96 C93 1.388 . S
C96 N95 1.397 . S
C97 H78 0.929 . S
C97 C94 1.404 . S
C97 N95 1.334 . S
C98 H90 0.930 . S
C98 C93 1.418 . S
C98 C94 1.353 . S
C99 H69 0.930 . S
C99 N100 1.330 1_556 S
C99 C101 1.446 . S
N100 Co59 2.153 . S
N100 C99 1.330 1_554 S
N100 C104 1.418 . S
C101 H80 0.929 . S
C101 C99 1.446 . S
C101 C102 1.332 1_556 S
C102 H82 0.931 . S
C102 C101 1.332 1_554 S
C102 C103 1.267 . S
C103 H71 0.929 . S
C103 C102 1.267 . S
C103 C104 1.251 . S
C104 H74 0.929 . S
C104 N100 1.418 . S
C104 C103 1.251 . S
C105 H72 0.943 . S
C105 C107 1.411 . S
C105 C110 1.242 1_556 S
C106 H73 0.930 . S
C106 N108 1.325 . S
C106 C109 1.357 . S
C107 H75 0.928 . S
C107 C105 1.411 . S
C107 N108 1.261 1_556 S
N108 Co59 2.218 . S
N108 C106 1.325 . S
N108 C107 1.261 1_554 S
C109 H79 0.931 . S
C109 C106 1.357 . S
C109 C110 1.312 . S
C110 H81 0.930 . S
C110 C105 1.242 1_554 S
C110 C109 1.312 . S
C111 O83 1.214 1_554 S
C111 O91 1.234 . S
C112 H84 0.929 . S
C112 C115 1.391 . S
C112 C117 1.391 . S
C113 H85 0.929 1_556 S
C113 C114 1.390 . S
C113 N116 1.391 . S
C114 H86 0.930 . S
C114 C113 1.390 . S
C114 C115 1.392 . S
C115 H87 0.929 . S
C115 C112 1.391 . S
C115 C114 1.392 . S
N116 Co60 2.257 1_556 S
N116 C113 1.391 . S
N116 C117 1.388 . S
C117 H88 0.930 . S
C117 C112 1.391 . S
C117 N116 1.388 . S
Co118 O120 2.140 1_554 S
Co118 O126 2.106 . S
Co118 O129 2.060 1_554 S
Co118 O142 2.095 1_554 S
Co118 N159 2.153 . S
Co118 N167 2.218 . S
Co119 O120 2.160 1_554 S
Co119 O125 2.058 . S
Co119 O135 2.057 . S
Co119 O150 2.037 . S
Co119 N154 2.145 . S
Co119 N175 2.257 1_554 S
O120 Co118 2.140 1_556 S
O120 Co119 2.160 1_556 S
C121 O122 1.278 . S
C121 O129 1.224 . S
O122 C121 1.278 . S
C123 O124 1.245 . S
C123 O135 1.232 . S
O124 C123 1.245 . S
O125 Co119 2.058 . S
O125 C151 1.269 . S
O126 Co118 2.106 . S
O126 C151 1.257 . S
H127 C152 0.930 . S
H128 C158 0.930 . S
O129 Co118 2.060 1_556 S
O129 C121 1.224 . S
H130 C162 0.929 . S
H131 C164 0.943 . S
H132 C165 0.930 . S
H133 C163 0.929 . S
H134 C166 0.928 . S
O135 Co119 2.057 . S
O135 C123 1.232 . S
H136 C155 0.929 . S
H137 C156 0.929 . S
H138 C168 0.931 . S
H139 C160 0.929 . S
H140 C169 0.930 . S
H141 C161 0.931 . S
O142 Co118 2.095 1_556 S
O142 C170 1.214 1_556 S
H143 C171 0.929 . S
H144 C172 0.929 1_554 S
H145 C173 0.930 . S
H146 C174 0.929 . S
H147 C176 0.930 . S
H148 C153 0.930 . S
H149 C157 0.930 . S
O150 Co119 2.037 . S
O150 C170 1.234 . S
C151 O125 1.269 . S
C151 O126 1.257 . S
C152 H127 0.930 . S
C152 C155 1.388 . S
C152 C157 1.418 . S
C153 H148 0.930 . S
C153 C156 1.404 . S
C153 C157 1.353 . S
N154 Co119 2.145 . S
N154 C155 1.397 . S
N154 C156 1.334 . S
C155 H136 0.929 . S
C155 C152 1.388 . S
C155 N154 1.397 . S
C156 H137 0.929 . S
C156 C153 1.404 . S
C156 N154 1.334 . S
C157 H149 0.930 . S
C157 C152 1.418 . S
C157 C153 1.353 . S
C158 H128 0.930 . S
C158 N159 1.330 1_556 S
C158 C160 1.446 . S
N159 Co118 2.153 . S
N159 C158 1.330 1_554 S
N159 C163 1.418 . S
C160 H139 0.929 . S
C160 C158 1.446 . S
C160 C161 1.332 1_556 S
C161 H141 0.931 . S
C161 C160 1.332 1_554 S
C161 C162 1.267 . S
C162 H130 0.929 . S
C162 C161 1.267 . S
C162 C163 1.251 . S
C163 H133 0.929 . S
C163 N159 1.418 . S
C163 C162 1.251 . S
C164 H131 0.943 . S
C164 C166 1.411 . S
C164 C169 1.242 1_556 S
C165 H132 0.930 . S
C165 N167 1.325 . S
C165 C168 1.357 . S
C166 H134 0.928 . S
C166 C164 1.411 . S
C166 N167 1.261 1_556 S
N167 Co118 2.218 . S
N167 C165 1.325 . S
N167 C166 1.261 1_554 S
C168 H138 0.931 . S
C168 C165 1.357 . S
C168 C169 1.312 . S
C169 H140 0.930 . S
C169 C164 1.242 1_554 S
C169 C168 1.312 . S
C170 O142 1.214 1_554 S
C170 O150 1.234 . S
C171 H143 0.929 . S
C171 C174 1.391 . S
C171 C176 1.391 . S
C172 H144 0.929 1_556 S
C172 C173 1.390 . S
C172 N175 1.391 . S
C173 H145 0.930 . S
C173 C172 1.390 . S
C173 C174 1.392 . S
C174 H146 0.929 . S
C174 C171 1.391 . S
C174 C173 1.392 . S
N175 Co119 2.257 1_556 S
N175 C172 1.391 . S
N175 C176 1.388 . S
C176 H147 0.930 . S
C176 C171 1.391 . S
C176 N175 1.388 . S
Co177 O179 2.140 1_554 S
Co177 O185 2.106 . S
Co177 O188 2.060 1_554 S
Co177 O201 2.095 1_554 S
Co177 N218 2.153 . S
Co177 N226 2.218 . S
Co178 O179 2.160 1_554 S
Co178 O184 2.058 . S
Co178 O194 2.057 . S
Co178 O209 2.037 . S
Co178 N213 2.145 . S
Co178 N234 2.257 1_554 S
O179 Co177 2.140 1_556 S
O179 Co178 2.160 1_556 S
C180 O181 1.278 . S
C180 O188 1.224 . S
O181 C180 1.278 . S
C182 O183 1.245 . S
C182 O194 1.232 . S
O183 C182 1.245 . S
O184 Co178 2.058 . S
O184 C210 1.269 . S
O185 Co177 2.106 . S
O185 C210 1.257 . S
H186 C211 0.930 . S
H187 C217 0.930 . S
O188 Co177 2.060 1_556 S
O188 C180 1.224 . S
H189 C221 0.929 . S
H190 C223 0.943 . S
H191 C224 0.930 . S
H192 C222 0.929 . S
H193 C225 0.928 . S
O194 Co178 2.057 . S
O194 C182 1.232 . S
H195 C214 0.929 . S
H196 C215 0.929 . S
H197 C227 0.931 . S
H198 C219 0.929 . S
H199 C228 0.930 . S
H200 C220 0.931 . S
O201 Co177 2.095 1_556 S
O201 C229 1.214 1_556 S
H202 C230 0.929 . S
H203 C231 0.929 1_554 S
H204 C232 0.930 . S
H205 C233 0.929 . S
H206 C235 0.930 . S
H207 C212 0.930 . S
H208 C216 0.930 . S
O209 Co178 2.037 . S
O209 C229 1.234 . S
C210 O184 1.269 . S
C210 O185 1.257 . S
C211 H186 0.930 . S
C211 C214 1.388 . S
C211 C216 1.418 . S
C212 H207 0.930 . S
C212 C215 1.404 . S
C212 C216 1.353 . S
N213 Co178 2.145 . S
N213 C214 1.397 . S
N213 C215 1.334 . S
C214 H195 0.929 . S
C214 C211 1.388 . S
C214 N213 1.397 . S
C215 H196 0.929 . S
C215 C212 1.404 . S
C215 N213 1.334 . S
C216 H208 0.930 . S
C216 C211 1.418 . S
C216 C212 1.353 . S
C217 H187 0.930 . S
C217 N218 1.330 1_556 S
C217 C219 1.446 . S
N218 Co177 2.153 . S
N218 C217 1.330 1_554 S
N218 C222 1.418 . S
C219 H198 0.929 . S
C219 C217 1.446 . S
C219 C220 1.332 1_556 S
C220 H200 0.931 . S
C220 C219 1.332 1_554 S
C220 C221 1.267 . S
C221 H189 0.929 . S
C221 C220 1.267 . S
C221 C222 1.251 . S
C222 H192 0.929 . S
C222 N218 1.418 . S
C222 C221 1.251 . S
C223 H190 0.943 . S
C223 C225 1.411 . S
C223 C228 1.242 1_556 S
C224 H191 0.930 . S
C224 N226 1.325 . S
C224 C227 1.357 . S
C225 H193 0.928 . S
C225 C223 1.411 . S
C225 N226 1.261 1_556 S
N226 Co177 2.218 . S
N226 C224 1.325 . S
N226 C225 1.261 1_554 S
C227 H197 0.931 . S
C227 C224 1.357 . S
C227 C228 1.312 . S
C228 H199 0.930 . S
C228 C223 1.242 1_554 S
C228 C227 1.312 . S
C229 O201 1.214 1_554 S
C229 O209 1.234 . S
C230 H202 0.929 . S
C230 C233 1.391 . S
C230 C235 1.391 . S
C231 H203 0.929 1_556 S
C231 C232 1.390 . S
C231 N234 1.391 . S
C232 H204 0.930 . S
C232 C231 1.390 . S
C232 C233 1.392 . S
C233 H205 0.929 . S
C233 C230 1.391 . S
C233 C232 1.392 . S
N234 Co178 2.257 1_556 S
N234 C231 1.391 . S
N234 C235 1.388 . S
C235 H206 0.930 . S
C235 C230 1.391 . S
C235 N234 1.388 . S
Co236 O238 2.143 . S
Co236 O244 2.074 1_554 S
Co236 O247 2.093 . S
Co236 O260 2.097 . S
Co236 N277 2.151 . S
Co236 N285 2.214 . S
Co237 O238 2.160 1_556 S
Co237 O243 2.058 . S
Co237 O253 2.057 . S
Co237 O268 2.037 . S
Co237 N272 2.145 . S
Co237 N293 2.257 1_556 S
O238 Co236 2.143 . S
O238 Co237 2.160 1_554 S
C239 O240 1.278 . S
C239 O247 1.224 . S
O240 C239 1.278 . S
C241 O242 1.245 . S
C241 O253 1.232 1_554 S
O242 C241 1.245 . S
O243 Co237 2.058 . S
O243 C269 1.269 . S
O244 Co236 2.074 1_556 S
O244 C269 1.257 . S
H245 C270 0.930 . S
H246 C276 0.930 . S
O247 Co236 2.093 . S
O247 C239 1.224 . S
H248 C280 0.929 . S
H249 C282 0.930 . S
H250 C283 0.930 . S
H251 C281 0.929 . S
H252 C284 0.928 . S
O253 Co237 2.057 . S
O253 C241 1.232 1_556 S
H254 C273 0.929 . S
H255 C274 0.929 . S
H256 C286 0.931 . S
H257 C278 0.929 . S
H258 C287 0.930 . S
H259 C279 0.931 . S
O260 Co236 2.097 . S
O260 C288 1.214 . S
H261 C289 0.929 . S
H262 C290 0.929 . S
H263 C291 0.930 . S
H264 C292 0.929 . S
H265 C294 0.930 . S
H266 C271 0.930 . S
H267 C275 0.930 . S
O268 Co237 2.037 . S
O268 C288 1.234 1_556 S
C269 O243 1.269 . S
C269 O244 1.257 . S
C270 H245 0.930 . S
C270 C273 1.388 . S
C270 C275 1.418 . S
C271 H266 0.930 . S
C271 C274 1.404 . S
C271 C275 1.353 . S
N272 Co237 2.145 . S
N272 C273 1.397 . S
N272 C274 1.334 . S
C273 H254 0.929 . S
C273 C270 1.388 . S
C273 N272 1.397 . S
C274 H255 0.929 . S
C274 C271 1.404 . S
C274 N272 1.334 . S
C275 H267 0.930 . S
C275 C270 1.418 . S
C275 C271 1.353 . S
C276 H246 0.930 . S
C276 N277 1.330 . S
C276 C278 1.446 . S
N277 Co236 2.151 . S
N277 C276 1.330 . S
N277 C281 1.418 1_554 S
C278 H257 0.929 . S
C278 C276 1.446 . S
C278 C279 1.332 . S
C279 H259 0.931 . S
C279 C278 1.332 . S
C279 C280 1.267 1_554 S
C280 H248 0.929 . S
C280 C279 1.267 1_556 S
C280 C281 1.251 . S
C281 H251 0.929 . S
C281 N277 1.418 1_556 S
C281 C280 1.251 . S
C282 H249 0.930 . S
C282 C284 1.406 . S
C282 C287 1.262 1_554 S
C283 H250 0.930 . S
C283 N285 1.325 1_556 S
C283 C286 1.357 . S
C284 H252 0.928 . S
C284 C282 1.406 . S
C284 N285 1.261 . S
N285 Co236 2.214 . S
N285 C283 1.325 1_554 S
N285 C284 1.261 . S
C286 H256 0.931 . S
C286 C283 1.357 . S
C286 C287 1.312 . S
C287 H258 0.930 . S
C287 C282 1.262 1_556 S
C287 C286 1.312 . S
C288 O260 1.214 . S
C288 O268 1.234 1_554 S
C289 H261 0.929 . S
C289 C292 1.391 . S
C289 C294 1.391 . S
C290 H262 0.929 . S
C290 C291 1.390 . S
C290 N293 1.391 . S
C291 H263 0.930 . S
C291 C290 1.390 . S
C291 C292 1.392 . S
C292 H264 0.929 . S
C292 C289 1.391 . S
C292 C291 1.392 . S
N293 Co237 2.257 1_554 S
N293 C290 1.391 . S
N293 C294 1.388 . S
C294 H265 0.930 . S
C294 C289 1.391 . S
C294 N293 1.388 . S
Co295 O297 2.143 . S
Co295 O303 2.074 1_554 S
Co295 O306 2.093 . S
Co295 O319 2.097 . S
Co295 N336 2.151 . S
Co295 N344 2.214 . S
Co296 O297 2.160 1_556 S
Co296 O302 2.058 . S
Co296 O312 2.057 . S
Co296 O327 2.037 . S
Co296 N331 2.145 . S
Co296 N352 2.257 1_556 S
O297 Co295 2.143 . S
O297 Co296 2.160 1_554 S
C298 O299 1.278 . S
C298 O306 1.224 . S
O299 C298 1.278 . S
C300 O301 1.245 . S
C300 O312 1.232 1_554 S
O301 C300 1.245 . S
O302 Co296 2.058 . S
O302 C328 1.269 . S
O303 Co295 2.074 1_556 S
O303 C328 1.257 . S
H304 C329 0.930 . S
H305 C335 0.930 . S
O306 Co295 2.093 . S
O306 C298 1.224 . S
H307 C339 0.929 . S
H308 C341 0.930 . S
H309 C342 0.930 . S
H310 C340 0.929 . S
H311 C343 0.928 . S
O312 Co296 2.057 . S
O312 C300 1.232 1_556 S
H313 C332 0.929 . S
H314 C333 0.929 . S
H315 C345 0.931 . S
H316 C337 0.929 . S
H317 C346 0.930 . S
H318 C338 0.931 . S
O319 Co295 2.097 . S
O319 C347 1.214 . S
H320 C348 0.929 . S
H321 C349 0.929 . S
H322 C350 0.930 . S
H323 C351 0.929 . S
H324 C353 0.930 . S
H325 C330 0.930 . S
H326 C334 0.930 . S
O327 Co296 2.037 . S
O327 C347 1.234 1_556 S
C328 O302 1.269 . S
C328 O303 1.257 . S
C329 H304 0.930 . S
C329 C332 1.388 . S
C329 C334 1.418 . S
C330 H325 0.930 . S
C330 C333 1.404 . S
C330 C334 1.353 . S
N331 Co296 2.145 . S
N331 C332 1.397 . S
N331 C333 1.334 . S
C332 H313 0.929 . S
C332 C329 1.388 . S
C332 N331 1.397 . S
C333 H314 0.929 . S
C333 C330 1.404 . S
C333 N331 1.334 . S
C334 H326 0.930 . S
C334 C329 1.418 . S
C334 C330 1.353 . S
C335 H305 0.930 . S
C335 N336 1.330 . S
C335 C337 1.446 . S
N336 Co295 2.151 . S
N336 C335 1.330 . S
N336 C340 1.418 1_554 S
C337 H316 0.929 . S
C337 C335 1.446 . S
C337 C338 1.332 . S
C338 H318 0.931 . S
C338 C337 1.332 . S
C338 C339 1.267 1_554 S
C339 H307 0.929 . S
C339 C338 1.267 1_556 S
C339 C340 1.251 . S
C340 H310 0.929 . S
C340 N336 1.418 1_556 S
C340 C339 1.251 . S
C341 H308 0.930 . S
C341 C343 1.406 . S
C341 C346 1.262 1_554 S
C342 H309 0.930 . S
C342 N344 1.325 1_556 S
C342 C345 1.357 . S
C343 H311 0.928 . S
C343 C341 1.406 . S
C343 N344 1.261 . S
N344 Co295 2.214 . S
N344 C342 1.325 1_554 S
N344 C343 1.261 . S
C345 H315 0.931 . S
C345 C342 1.357 . S
C345 C346 1.312 . S
C346 H317 0.930 . S
C346 C341 1.262 1_556 S
C346 C345 1.312 . S
C347 O319 1.214 . S
C347 O327 1.234 1_554 S
C348 H320 0.929 . S
C348 C351 1.391 . S
C348 C353 1.391 . S
C349 H321 0.929 . S
C349 C350 1.390 . S
C349 N352 1.391 . S
C350 H322 0.930 . S
C350 C349 1.390 . S
C350 C351 1.392 . S
C351 H323 0.929 . S
C351 C348 1.391 . S
C351 C350 1.392 . S
N352 Co296 2.257 1_554 S
N352 C349 1.391 . S
N352 C353 1.388 . S
C353 H324 0.930 . S
C353 C348 1.391 . S
C353 N352 1.388 . S
Co354 O356 2.143 . S
Co354 O362 2.074 1_554 S
Co354 O365 2.093 . S
Co354 O378 2.097 . S
Co354 N395 2.151 . S
Co354 N403 2.214 . S
Co355 O356 2.160 1_556 S
Co355 O361 2.058 . S
Co355 O371 2.057 . S
Co355 O386 2.037 . S
Co355 N390 2.145 . S
Co355 N411 2.257 1_556 S
O356 Co354 2.143 . S
O356 Co355 2.160 1_554 S
C357 O358 1.278 . S
C357 O365 1.224 . S
O358 C357 1.278 . S
C359 O360 1.245 . S
C359 O371 1.232 1_554 S
O360 C359 1.245 . S
O361 Co355 2.058 . S
O361 C387 1.269 . S
O362 Co354 2.074 1_556 S
O362 C387 1.257 . S
H363 C388 0.930 . S
H364 C394 0.930 . S
O365 Co354 2.093 . S
O365 C357 1.224 . S
H366 C398 0.929 . S
H367 C400 0.930 . S
H368 C401 0.930 . S
H369 C399 0.929 . S
H370 C402 0.928 . S
O371 Co355 2.057 . S
O371 C359 1.232 1_556 S
H372 C391 0.929 . S
H373 C392 0.929 . S
H374 C404 0.931 . S
H375 C396 0.929 . S
H376 C405 0.930 . S
H377 C397 0.931 . S
O378 Co354 2.097 . S
O378 C406 1.214 . S
H379 C407 0.929 . S
H380 C408 0.929 . S
H381 C409 0.930 . S
H382 C410 0.929 . S
H383 C412 0.930 . S
H384 C389 0.930 . S
H385 C393 0.930 . S
O386 Co355 2.037 . S
O386 C406 1.234 1_556 S
C387 O361 1.269 . S
C387 O362 1.257 . S
C388 H363 0.930 . S
C388 C391 1.388 . S
C388 C393 1.418 . S
C389 H384 0.930 . S
C389 C392 1.404 . S
C389 C393 1.353 . S
N390 Co355 2.145 . S
N390 C391 1.397 . S
N390 C392 1.334 . S
C391 H372 0.929 . S
C391 C388 1.388 . S
C391 N390 1.397 . S
C392 H373 0.929 . S
C392 C389 1.404 . S
C392 N390 1.334 . S
C393 H385 0.930 . S
C393 C388 1.418 . S
C393 C389 1.353 . S
C394 H364 0.930 . S
C394 N395 1.330 . S
C394 C396 1.446 . S
N395 Co354 2.151 . S
N395 C394 1.330 . S
N395 C399 1.418 1_554 S
C396 H375 0.929 . S
C396 C394 1.446 . S
C396 C397 1.332 . S
C397 H377 0.931 . S
C397 C396 1.332 . S
C397 C398 1.267 1_554 S
C398 H366 0.929 . S
C398 C397 1.267 1_556 S
C398 C399 1.251 . S
C399 H369 0.929 . S
C399 N395 1.418 1_556 S
C399 C398 1.251 . S
C400 H367 0.930 . S
C400 C402 1.406 . S
C400 C405 1.262 1_554 S
C401 H368 0.930 . S
C401 N403 1.325 1_556 S
C401 C404 1.357 . S
C402 H370 0.928 . S
C402 C400 1.406 . S
C402 N403 1.261 . S
N403 Co354 2.214 . S
N403 C401 1.325 1_554 S
N403 C402 1.261 . S
C404 H374 0.931 . S
C404 C401 1.357 . S
C404 C405 1.312 . S
C405 H376 0.930 . S
C405 C400 1.262 1_556 S
C405 C404 1.312 . S
C406 O378 1.214 . S
C406 O386 1.234 1_554 S
C407 H379 0.929 . S
C407 C410 1.391 . S
C407 C412 1.391 . S
C408 H380 0.929 . S
C408 C409 1.390 . S
C408 N411 1.391 . S
C409 H381 0.930 . S
C409 C408 1.390 . S
C409 C410 1.392 . S
C410 H382 0.929 . S
C410 C407 1.391 . S
C410 C409 1.392 . S
N411 Co355 2.257 1_554 S
N411 C408 1.391 . S
N411 C412 1.388 . S
C412 H383 0.930 . S
C412 C407 1.391 . S
C412 N411 1.388 . S
Co413 O415 2.143 . S
Co413 O421 2.074 1_554 S
Co413 O424 2.093 . S
Co413 O437 2.097 . S
Co413 N454 2.151 . S
Co413 N462 2.214 . S
Co414 O415 2.160 1_556 S
Co414 O420 2.058 . S
Co414 O430 2.057 . S
Co414 O445 2.037 . S
Co414 N449 2.145 . S
Co414 N470 2.257 1_556 S
O415 Co413 2.143 . S
O415 Co414 2.160 1_554 S
C416 O417 1.278 . S
C416 O424 1.224 . S
O417 C416 1.278 . S
C418 O419 1.245 . S
C418 O430 1.232 1_554 S
O419 C418 1.245 . S
O420 Co414 2.058 . S
O420 C446 1.269 . S
O421 Co413 2.074 1_556 S
O421 C446 1.257 . S
H422 C447 0.930 . S
H423 C453 0.930 . S
O424 Co413 2.093 . S
O424 C416 1.224 . S
H425 C457 0.929 . S
H426 C459 0.930 . S
H427 C460 0.930 . S
H428 C458 0.929 . S
H429 C461 0.928 . S
O430 Co414 2.057 . S
O430 C418 1.232 1_556 S
H431 C450 0.929 . S
H432 C451 0.929 . S
H433 C463 0.931 . S
H434 C455 0.929 . S
H435 C464 0.930 . S
H436 C456 0.931 . S
O437 Co413 2.097 . S
O437 C465 1.214 . S
H438 C466 0.929 . S
H439 C467 0.929 . S
H440 C468 0.930 . S
H441 C469 0.929 . S
H442 C471 0.930 . S
H443 C448 0.930 . S
H444 C452 0.930 . S
O445 Co414 2.037 . S
O445 C465 1.234 1_556 S
C446 O420 1.269 . S
C446 O421 1.257 . S
C447 H422 0.930 . S
C447 C450 1.388 . S
C447 C452 1.418 . S
C448 H443 0.930 . S
C448 C451 1.404 . S
C448 C452 1.353 . S
N449 Co414 2.145 . S
N449 C450 1.397 . S
N449 C451 1.334 . S
C450 H431 0.929 . S
C450 C447 1.388 . S
C450 N449 1.397 . S
C451 H432 0.929 . S
C451 C448 1.404 . S
C451 N449 1.334 . S
C452 H444 0.930 . S
C452 C447 1.418 . S
C452 C448 1.353 . S
C453 H423 0.930 . S
C453 N454 1.330 . S
C453 C455 1.446 . S
N454 Co413 2.151 . S
N454 C453 1.330 . S
N454 C458 1.418 1_554 S
C455 H434 0.929 . S
C455 C453 1.446 . S
C455 C456 1.332 . S
C456 H436 0.931 . S
C456 C455 1.332 . S
C456 C457 1.267 1_554 S
C457 H425 0.929 . S
C457 C456 1.267 1_556 S
C457 C458 1.251 . S
C458 H428 0.929 . S
C458 N454 1.418 1_556 S
C458 C457 1.251 . S
C459 H426 0.930 . S
C459 C461 1.406 . S
C459 C464 1.262 1_554 S
C460 H427 0.930 . S
C460 N462 1.325 1_556 S
C460 C463 1.357 . S
C461 H429 0.928 . S
C461 C459 1.406 . S
C461 N462 1.261 . S
N462 Co413 2.214 . S
N462 C460 1.325 1_554 S
N462 C461 1.261 . S
C463 H433 0.931 . S
C463 C460 1.357 . S
C463 C464 1.312 . S
C464 H435 0.930 . S
C464 C459 1.262 1_556 S
C464 C463 1.312 . S
C465 O437 1.214 . S
C465 O445 1.234 1_554 S
C466 H438 0.929 . S
C466 C469 1.391 . S
C466 C471 1.391 . S
C467 H439 0.929 . S
C467 C468 1.390 . S
C467 N470 1.391 . S
C468 H440 0.930 . S
C468 C467 1.390 . S
C468 C469 1.392 . S
C469 H441 0.929 . S
C469 C466 1.391 . S
C469 C468 1.392 . S
N470 Co414 2.257 1_554 S
N470 C467 1.391 . S
N470 C471 1.388 . S
C471 H442 0.930 . S
C471 C466 1.391 . S
C471 N470 1.388 . S
Co472 O474 2.143 . S
Co472 O480 2.074 . S
Co472 O483 2.093 . S
Co472 O496 2.097 . S
Co472 N513 2.151 . S
Co472 N521 2.214 . S
Co473 O474 2.160 . S
Co473 O479 2.058 . S
Co473 O489 2.057 . S
Co473 O504 2.037 . S
Co473 N508 2.145 . S
Co473 N529 2.257 . S
O474 Co472 2.143 . S
O474 Co473 2.160 . S
C475 O476 1.278 . S
C475 O483 1.224 . S
O476 C475 1.278 . S
C477 O478 1.245 . S
C477 O489 1.232 . S
O478 C477 1.245 . S
O479 Co473 2.058 . S
O479 C505 1.269 . S
O480 Co472 2.074 . S
O480 C505 1.257 . S
H481 C506 0.930 . S
H482 C512 0.930 . S
O483 Co472 2.093 . S
O483 C475 1.224 . S
H484 C516 0.929 . S
H485 C518 0.930 . S
H486 C519 0.930 . S
H487 C517 0.929 . S
H488 C520 0.928 . S
O489 Co473 2.057 . S
O489 C477 1.232 . S
H490 C509 0.929 . S
H491 C510 0.929 . S
H492 C522 0.931 . S
H493 C514 0.929 . S
H494 C523 0.930 . S
H495 C515 0.931 . S
O496 Co472 2.097 . S
O496 C524 1.214 . S
H497 C525 0.929 . S
H498 C526 0.929 . S
H499 C527 0.930 . S
H500 C528 0.929 . S
H501 C530 0.930 . S
H502 C507 0.930 . S
H503 C511 0.930 . S
O504 Co473 2.037 . S
O504 C524 1.234 . S
C505 O479 1.269 . S
C505 O480 1.257 . S
C506 H481 0.930 . S
C506 C509 1.388 . S
C506 C511 1.418 . S
C507 H502 0.930 . S
C507 C510 1.404 . S
C507 C511 1.353 . S
N508 Co473 2.145 . S
N508 C509 1.397 . S
N508 C510 1.334 . S
C509 H490 0.929 . S
C509 C506 1.388 . S
C509 N508 1.397 . S
C510 H491 0.929 . S
C510 C507 1.404 . S
C510 N508 1.334 . S
C511 H503 0.930 . S
C511 C506 1.418 . S
C511 C507 1.353 . S
C512 H482 0.930 . S
C512 N513 1.330 . S
C512 C514 1.446 . S
N513 Co472 2.151 . S
N513 C512 1.330 . S
N513 C517 1.418 . S
C514 H493 0.929 . S
C514 C512 1.446 . S
C514 C515 1.332 . S
C515 H495 0.931 . S
C515 C514 1.332 . S
C515 C516 1.267 . S
C516 H484 0.929 . S
C516 C515 1.267 . S
C516 C517 1.251 . S
C517 H487 0.929 . S
C517 N513 1.418 . S
C517 C516 1.251 . S
C518 H485 0.930 . S
C518 C520 1.406 . S
C518 C523 1.261 . S
C519 H486 0.930 . S
C519 N521 1.325 . S
C519 C522 1.357 . S
C520 H488 0.928 . S
C520 C518 1.406 . S
C520 N521 1.261 . S
N521 Co472 2.214 . S
N521 C519 1.325 . S
N521 C520 1.261 . S
C522 H492 0.931 . S
C522 C519 1.357 . S
C522 C523 1.312 . S
C523 H494 0.930 . S
C523 C518 1.261 . S
C523 C522 1.312 . S
C524 O496 1.214 . S
C524 O504 1.234 . S
C525 H497 0.929 . S
C525 C528 1.391 . S
C525 C530 1.391 . S
C526 H498 0.929 . S
C526 C527 1.390 . S
C526 N529 1.391 . S
C527 H499 0.930 . S
C527 C526 1.390 . S
C527 C528 1.392 . S
C528 H500 0.929 . S
C528 C525 1.391 . S
C528 C527 1.392 . S
N529 Co473 2.257 . S
N529 C526 1.391 . S
N529 C530 1.388 . S
C530 H501 0.930 . S
C530 C525 1.391 . S
C530 N529 1.388 . S
Co531 O533 2.143 . S
Co531 O539 2.074 . S
Co531 O542 2.093 . S
Co531 O555 2.097 . S
Co531 N572 2.151 . S
Co531 N580 2.214 . S
Co532 O533 2.160 . S
Co532 O538 2.058 . S
Co532 O548 2.057 . S
Co532 O563 2.037 . S
Co532 N567 2.145 . S
Co532 N588 2.257 . S
O533 Co531 2.143 . S
O533 Co532 2.160 . S
C534 O535 1.278 . S
C534 O542 1.224 . S
O535 C534 1.278 . S
C536 O537 1.245 . S
C536 O548 1.232 . S
O537 C536 1.245 . S
O538 Co532 2.058 . S
O538 C564 1.269 . S
O539 Co531 2.074 . S
O539 C564 1.257 . S
H540 C565 0.930 . S
H541 C571 0.930 . S
O542 Co531 2.093 . S
O542 C534 1.224 . S
H543 C575 0.929 . S
H544 C577 0.930 . S
H545 C578 0.930 . S
H546 C576 0.929 . S
H547 C579 0.928 . S
O548 Co532 2.057 . S
O548 C536 1.232 . S
H549 C568 0.929 . S
H550 C569 0.929 . S
H551 C581 0.931 . S
H552 C573 0.929 . S
H553 C582 0.930 . S
H554 C574 0.931 . S
O555 Co531 2.097 . S
O555 C583 1.214 . S
H556 C584 0.929 . S
H557 C585 0.929 . S
H558 C586 0.930 . S
H559 C587 0.929 . S
H560 C589 0.930 . S
H561 C566 0.930 . S
H562 C570 0.930 . S
O563 Co532 2.037 . S
O563 C583 1.234 . S
C564 O538 1.269 . S
C564 O539 1.257 . S
C565 H540 0.930 . S
C565 C568 1.388 . S
C565 C570 1.418 . S
C566 H561 0.930 . S
C566 C569 1.404 . S
C566 C570 1.353 . S
N567 Co532 2.145 . S
N567 C568 1.397 . S
N567 C569 1.334 . S
C568 H549 0.929 . S
C568 C565 1.388 . S
C568 N567 1.397 . S
C569 H550 0.929 . S
C569 C566 1.404 . S
C569 N567 1.334 . S
C570 H562 0.930 . S
C570 C565 1.418 . S
C570 C566 1.353 . S
C571 H541 0.930 . S
C571 N572 1.330 . S
C571 C573 1.446 . S
N572 Co531 2.151 . S
N572 C571 1.330 . S
N572 C576 1.418 . S
C573 H552 0.929 . S
C573 C571 1.446 . S
C573 C574 1.332 . S
C574 H554 0.931 . S
C574 C573 1.332 . S
C574 C575 1.267 . S
C575 H543 0.929 . S
C575 C574 1.267 . S
C575 C576 1.251 . S
C576 H546 0.929 . S
C576 N572 1.418 . S
C576 C575 1.251 . S
C577 H544 0.930 . S
C577 C579 1.406 . S
C577 C582 1.261 . S
C578 H545 0.930 . S
C578 N580 1.325 . S
C578 C581 1.357 . S
C579 H547 0.928 . S
C579 C577 1.406 . S
C579 N580 1.261 . S
N580 Co531 2.214 . S
N580 C578 1.325 . S
N580 C579 1.261 . S
C581 H551 0.931 . S
C581 C578 1.357 . S
C581 C582 1.312 . S
C582 H553 0.930 . S
C582 C577 1.261 . S
C582 C581 1.312 . S
C583 O555 1.214 . S
C583 O563 1.234 . S
C584 H556 0.929 . S
C584 C587 1.391 . S
C584 C589 1.391 . S
C585 H557 0.929 . S
C585 C586 1.390 . S
C585 N588 1.391 . S
C586 H558 0.930 . S
C586 C585 1.390 . S
C586 C587 1.392 . S
C587 H559 0.929 . S
C587 C584 1.391 . S
C587 C586 1.392 . S
N588 Co532 2.257 . S
N588 C585 1.391 . S
N588 C589 1.388 . S
C589 H560 0.930 . S
C589 C584 1.391 . S
C589 N588 1.388 . S
Co590 O592 2.143 . S
Co590 O598 2.074 . S
Co590 O601 2.093 . S
Co590 O614 2.097 . S
Co590 N631 2.151 . S
Co590 N639 2.214 . S
Co591 O592 2.160 . S
Co591 O597 2.058 . S
Co591 O607 2.057 . S
Co591 O622 2.037 . S
Co591 N626 2.145 . S
Co591 N647 2.257 . S
O592 Co590 2.143 . S
O592 Co591 2.160 . S
C593 O594 1.278 . S
C593 O601 1.224 . S
O594 C593 1.278 . S
C595 O596 1.245 . S
C595 O607 1.232 . S
O596 C595 1.245 . S
O597 Co591 2.058 . S
O597 C623 1.269 . S
O598 Co590 2.074 . S
O598 C623 1.257 . S
H599 C624 0.930 . S
H600 C630 0.930 . S
O601 Co590 2.093 . S
O601 C593 1.224 . S
H602 C634 0.929 . S
H603 C636 0.930 . S
H604 C637 0.930 . S
H605 C635 0.929 . S
H606 C638 0.928 . S
O607 Co591 2.057 . S
O607 C595 1.232 . S
H608 C627 0.929 . S
H609 C628 0.929 . S
H610 C640 0.931 . S
H611 C632 0.929 . S
H612 C641 0.930 . S
H613 C633 0.931 . S
O614 Co590 2.097 . S
O614 C642 1.214 . S
H615 C643 0.929 . S
H616 C644 0.929 . S
H617 C645 0.930 . S
H618 C646 0.929 . S
H619 C648 0.930 . S
H620 C625 0.930 . S
H621 C629 0.930 . S
O622 Co591 2.037 . S
O622 C642 1.234 . S
C623 O597 1.269 . S
C623 O598 1.257 . S
C624 H599 0.930 . S
C624 C627 1.388 . S
C624 C629 1.418 . S
C625 H620 0.930 . S
C625 C628 1.404 . S
C625 C629 1.353 . S
N626 Co591 2.145 . S
N626 C627 1.397 . S
N626 C628 1.334 . S
C627 H608 0.929 . S
C627 C624 1.388 . S
C627 N626 1.397 . S
C628 H609 0.929 . S
C628 C625 1.404 . S
C628 N626 1.334 . S
C629 H621 0.930 . S
C629 C624 1.418 . S
C629 C625 1.353 . S
C630 H600 0.930 . S
C630 N631 1.330 . S
C630 C632 1.446 . S
N631 Co590 2.151 . S
N631 C630 1.330 . S
N631 C635 1.418 . S
C632 H611 0.929 . S
C632 C630 1.446 . S
C632 C633 1.332 . S
C633 H613 0.931 . S
C633 C632 1.332 . S
C633 C634 1.267 . S
C634 H602 0.929 . S
C634 C633 1.267 . S
C634 C635 1.251 . S
C635 H605 0.929 . S
C635 N631 1.418 . S
C635 C634 1.251 . S
C636 H603 0.930 . S
C636 C638 1.406 . S
C636 C641 1.261 . S
C637 H604 0.930 . S
C637 N639 1.325 . S
C637 C640 1.357 . S
C638 H606 0.928 . S
C638 C636 1.406 . S
C638 N639 1.261 . S
N639 Co590 2.214 . S
N639 C637 1.325 . S
N639 C638 1.261 . S
C640 H610 0.931 . S
C640 C637 1.357 . S
C640 C641 1.312 . S
C641 H612 0.930 . S
C641 C636 1.261 . S
C641 C640 1.312 . S
C642 O614 1.214 . S
C642 O622 1.234 . S
C643 H615 0.929 . S
C643 C646 1.391 . S
C643 C648 1.391 . S
C644 H616 0.929 . S
C644 C645 1.390 . S
C644 N647 1.391 . S
C645 H617 0.930 . S
C645 C644 1.390 . S
C645 C646 1.392 . S
C646 H618 0.929 . S
C646 C643 1.391 . S
C646 C645 1.392 . S
N647 Co591 2.257 . S
N647 C644 1.391 . S
N647 C648 1.388 . S
C648 H619 0.930 . S
C648 C643 1.391 . S
C648 N647 1.388 . S
Co649 O651 2.143 . S
Co649 O657 2.074 . S
Co649 O660 2.093 . S
Co649 O673 2.097 . S
Co649 N690 2.151 . S
Co649 N698 2.214 . S
Co650 O651 2.160 . S
Co650 O656 2.058 . S
Co650 O666 2.057 . S
Co650 O681 2.037 . S
Co650 N685 2.145 . S
Co650 N706 2.257 . S
O651 Co649 2.143 . S
O651 Co650 2.160 . S
C652 O653 1.278 . S
C652 O660 1.224 . S
O653 C652 1.278 . S
C654 O655 1.245 . S
C654 O666 1.232 . S
O655 C654 1.245 . S
O656 Co650 2.058 . S
O656 C682 1.269 . S
O657 Co649 2.074 . S
O657 C682 1.257 . S
H658 C683 0.930 . S
H659 C689 0.930 . S
O660 Co649 2.093 . S
O660 C652 1.224 . S
H661 C693 0.929 . S
H662 C695 0.930 . S
H663 C696 0.930 . S
H664 C694 0.929 . S
H665 C697 0.928 . S
O666 Co650 2.057 . S
O666 C654 1.232 . S
H667 C686 0.929 . S
H668 C687 0.929 . S
H669 C699 0.931 . S
H670 C691 0.929 . S
H671 C700 0.930 . S
H672 C692 0.931 . S
O673 Co649 2.097 . S
O673 C701 1.214 . S
H674 C702 0.929 . S
H675 C703 0.929 . S
H676 C704 0.930 . S
H677 C705 0.929 . S
H678 C707 0.930 . S
H679 C684 0.930 . S
H680 C688 0.930 . S
O681 Co650 2.037 . S
O681 C701 1.234 . S
C682 O656 1.269 . S
C682 O657 1.257 . S
C683 H658 0.930 . S
C683 C686 1.388 . S
C683 C688 1.418 . S
C684 H679 0.930 . S
C684 C687 1.404 . S
C684 C688 1.353 . S
N685 Co650 2.145 . S
N685 C686 1.397 . S
N685 C687 1.334 . S
C686 H667 0.929 . S
C686 C683 1.388 . S
C686 N685 1.397 . S
C687 H668 0.929 . S
C687 C684 1.404 . S
C687 N685 1.334 . S
C688 H680 0.930 . S
C688 C683 1.418 . S
C688 C684 1.353 . S
C689 H659 0.930 . S
C689 N690 1.330 . S
C689 C691 1.446 . S
N690 Co649 2.151 . S
N690 C689 1.330 . S
N690 C694 1.418 . S
C691 H670 0.929 . S
C691 C689 1.446 . S
C691 C692 1.332 . S
C692 H672 0.931 . S
C692 C691 1.332 . S
C692 C693 1.267 . S
C693 H661 0.929 . S
C693 C692 1.267 . S
C693 C694 1.251 . S
C694 H664 0.929 . S
C694 N690 1.418 . S
C694 C693 1.251 . S
C695 H662 0.930 . S
C695 C697 1.406 . S
C695 C700 1.261 . S
C696 H663 0.930 . S
C696 N698 1.325 . S
C696 C699 1.357 . S
C697 H665 0.928 . S
C697 C695 1.406 . S
C697 N698 1.261 . S
N698 Co649 2.214 . S
N698 C696 1.325 . S
N698 C697 1.261 . S
C699 H669 0.931 . S
C699 C696 1.357 . S
C699 C700 1.312 . S
C700 H671 0.930 . S
C700 C695 1.261 . S
C700 C699 1.312 . S
C701 O673 1.214 . S
C701 O681 1.234 . S
C702 H674 0.929 . S
C702 C705 1.391 . S
C702 C707 1.391 . S
C703 H675 0.929 . S
C703 C704 1.390 . S
C703 N706 1.391 . S
C704 H676 0.930 . S
C704 C703 1.390 . S
C704 C705 1.392 . S
C705 H677 0.929 . S
C705 C702 1.391 . S
C705 C704 1.392 . S
N706 Co650 2.257 . S
N706 C703 1.391 . S
N706 C707 1.388 . S
C707 H678 0.930 . S
C707 C702 1.391 . S
C707 N706 1.388 . S
Co708 O710 2.143 . S
Co708 O716 2.074 . S
Co708 O719 2.093 . S
Co708 O732 2.097 . S
Co708 N749 2.151 . S
Co708 N757 2.214 . S
Co709 O710 2.160 . S
Co709 O715 2.058 . S
Co709 O725 2.057 . S
Co709 O740 2.037 . S
Co709 N744 2.145 . S
Co709 N765 2.257 . S
O710 Co708 2.143 . S
O710 Co709 2.160 . S
C711 O712 1.278 . S
C711 O719 1.224 . S
O712 C711 1.278 . S
C713 O714 1.245 . S
C713 O725 1.232 . S
O714 C713 1.245 . S
O715 Co709 2.058 . S
O715 C741 1.269 . S
O716 Co708 2.074 . S
O716 C741 1.257 . S
H717 C742 0.930 . S
H718 C748 0.930 . S
O719 Co708 2.093 . S
O719 C711 1.224 . S
H720 C752 0.929 . S
H721 C754 0.930 . S
H722 C755 0.930 . S
H723 C753 0.929 . S
H724 C756 0.928 . S
O725 Co709 2.057 . S
O725 C713 1.232 . S
H726 C745 0.929 . S
H727 C746 0.929 . S
H728 C758 0.931 . S
H729 C750 0.929 . S
H730 C759 0.930 . S
H731 C751 0.931 . S
O732 Co708 2.097 . S
O732 C760 1.214 . S
H733 C761 0.929 . S
H734 C762 0.929 . S
H735 C763 0.930 . S
H736 C764 0.929 . S
H737 C766 0.930 . S
H738 C743 0.930 . S
H739 C747 0.930 . S
O740 Co709 2.037 . S
O740 C760 1.234 . S
C741 O715 1.269 . S
C741 O716 1.257 . S
C742 H717 0.930 . S
C742 C745 1.388 . S
C742 C747 1.418 . S
C743 H738 0.930 . S
C743 C746 1.404 . S
C743 C747 1.353 . S
N744 Co709 2.145 . S
N744 C745 1.397 . S
N744 C746 1.334 . S
C745 H726 0.929 . S
C745 C742 1.388 . S
C745 N744 1.397 . S
C746 H727 0.929 . S
C746 C743 1.404 . S
C746 N744 1.334 . S
C747 H739 0.930 . S
C747 C742 1.418 . S
C747 C743 1.353 . S
C748 H718 0.930 . S
C748 N749 1.330 . S
C748 C750 1.446 . S
N749 Co708 2.151 . S
N749 C748 1.330 . S
N749 C753 1.418 . S
C750 H729 0.929 . S
C750 C748 1.446 . S
C750 C751 1.332 . S
C751 H731 0.931 . S
C751 C750 1.332 . S
C751 C752 1.267 . S
C752 H720 0.929 . S
C752 C751 1.267 . S
C752 C753 1.251 . S
C753 H723 0.929 . S
C753 N749 1.418 . S
C753 C752 1.251 . S
C754 H721 0.930 . S
C754 C756 1.406 . S
C754 C759 1.261 . S
C755 H722 0.930 . S
C755 N757 1.325 . S
C755 C758 1.357 . S
C756 H724 0.928 . S
C756 C754 1.406 . S
C756 N757 1.261 . S
N757 Co708 2.214 . S
N757 C755 1.325 . S
N757 C756 1.261 . S
C758 H728 0.931 . S
C758 C755 1.357 . S
C758 C759 1.312 . S
C759 H730 0.930 . S
C759 C754 1.261 . S
C759 C758 1.312 . S
C760 O732 1.214 . S
C760 O740 1.234 . S
C761 H733 0.929 . S
C761 C764 1.391 . S
C761 C766 1.391 . S
C762 H734 0.929 . S
C762 C763 1.390 . S
C762 N765 1.391 . S
C763 H735 0.930 . S
C763 C762 1.390 . S
C763 C764 1.392 . S
C764 H736 0.929 . S
C764 C761 1.391 . S
C764 C763 1.392 . S
N765 Co709 2.257 . S
N765 C762 1.391 . S
N765 C766 1.388 . S
C766 H737 0.930 . S
C766 C761 1.391 . S
C766 N765 1.388 . S
Co767 O769 2.143 . S
Co767 O775 2.074 . S
Co767 O778 2.093 . S
Co767 O791 2.097 . S
Co767 N808 2.151 . S
Co767 N816 2.214 . S
Co768 O769 2.160 . S
Co768 O774 2.058 . S
Co768 O784 2.057 . S
Co768 O799 2.037 . S
Co768 N803 2.145 . S
Co768 N824 2.257 . S
O769 Co767 2.143 . S
O769 Co768 2.160 . S
C770 O771 1.278 . S
C770 O778 1.224 . S
O771 C770 1.278 . S
C772 O773 1.245 . S
C772 O784 1.232 . S
O773 C772 1.245 . S
O774 Co768 2.058 . S
O774 C800 1.269 . S
O775 Co767 2.074 . S
O775 C800 1.257 . S
H776 C801 0.930 . S
H777 C807 0.930 . S
O778 Co767 2.093 . S
O778 C770 1.224 . S
H779 C811 0.929 . S
H780 C813 0.930 . S
H781 C814 0.930 . S
H782 C812 0.929 . S
H783 C815 0.928 . S
O784 Co768 2.057 . S
O784 C772 1.232 . S
H785 C804 0.929 . S
H786 C805 0.929 . S
H787 C817 0.931 . S
H788 C809 0.929 . S
H789 C818 0.930 . S
H790 C810 0.931 . S
O791 Co767 2.097 . S
O791 C819 1.214 . S
H792 C820 0.929 . S
H793 C821 0.929 . S
H794 C822 0.930 . S
H795 C823 0.929 . S
H796 C825 0.930 . S
H797 C802 0.930 . S
H798 C806 0.930 . S
O799 Co768 2.037 . S
O799 C819 1.234 . S
C800 O774 1.269 . S
C800 O775 1.257 . S
C801 H776 0.930 . S
C801 C804 1.388 . S
C801 C806 1.418 . S
C802 H797 0.930 . S
C802 C805 1.404 . S
C802 C806 1.353 . S
N803 Co768 2.145 . S
N803 C804 1.397 . S
N803 C805 1.334 . S
C804 H785 0.929 . S
C804 C801 1.388 . S
C804 N803 1.397 . S
C805 H786 0.929 . S
C805 C802 1.404 . S
C805 N803 1.334 . S
C806 H798 0.930 . S
C806 C801 1.418 . S
C806 C802 1.353 . S
C807 H777 0.930 . S
C807 N808 1.330 . S
C807 C809 1.446 . S
N808 Co767 2.151 . S
N808 C807 1.330 . S
N808 C812 1.418 . S
C809 H788 0.929 . S
C809 C807 1.446 . S
C809 C810 1.332 . S
C810 H790 0.931 . S
C810 C809 1.332 . S
C810 C811 1.267 . S
C811 H779 0.929 . S
C811 C810 1.267 . S
C811 C812 1.251 . S
C812 H782 0.929 . S
C812 N808 1.418 . S
C812 C811 1.251 . S
C813 H780 0.930 . S
C813 C815 1.406 . S
C813 C818 1.261 . S
C814 H781 0.930 . S
C814 N816 1.325 . S
C814 C817 1.357 . S
C815 H783 0.928 . S
C815 C813 1.406 . S
C815 N816 1.261 . S
N816 Co767 2.214 . S
N816 C814 1.325 . S
N816 C815 1.261 . S
C817 H787 0.931 . S
C817 C814 1.357 . S
C817 C818 1.312 . S
C818 H789 0.930 . S
C818 C813 1.261 . S
C818 C817 1.312 . S
C819 O791 1.214 . S
C819 O799 1.234 . S
C820 H792 0.929 . S
C820 C823 1.391 . S
C820 C825 1.391 . S
C821 H793 0.929 . S
C821 C822 1.390 . S
C821 N824 1.391 . S
C822 H794 0.930 . S
C822 C821 1.390 . S
C822 C823 1.392 . S
C823 H795 0.929 . S
C823 C820 1.391 . S
C823 C822 1.392 . S
N824 Co768 2.257 . S
N824 C821 1.391 . S
N824 C825 1.388 . S
C825 H796 0.930 . S
C825 C820 1.391 . S
C825 N824 1.388 . S
Co826 O828 2.143 . S
Co826 O834 2.074 . S
Co826 O837 2.093 . S
Co826 O850 2.097 . S
Co826 N867 2.151 . S
Co826 N875 2.214 . S
Co827 O828 2.160 . S
Co827 O833 2.058 . S
Co827 O843 2.057 . S
Co827 O858 2.037 . S
Co827 N862 2.145 . S
Co827 N883 2.257 . S
O828 Co826 2.143 . S
O828 Co827 2.160 . S
C829 O830 1.278 . S
C829 O837 1.224 . S
O830 C829 1.278 . S
C831 O832 1.245 . S
C831 O843 1.232 . S
O832 C831 1.245 . S
O833 Co827 2.058 . S
O833 C859 1.269 . S
O834 Co826 2.074 . S
O834 C859 1.257 . S
H835 C860 0.930 . S
H836 C866 0.930 . S
O837 Co826 2.093 . S
O837 C829 1.224 . S
H838 C870 0.929 . S
H839 C872 0.930 . S
H840 C873 0.930 . S
H841 C871 0.929 . S
H842 C874 0.928 . S
O843 Co827 2.057 . S
O843 C831 1.232 . S
H844 C863 0.929 . S
H845 C864 0.929 . S
H846 C876 0.931 . S
H847 C868 0.929 . S
H848 C877 0.930 . S
H849 C869 0.931 . S
O850 Co826 2.097 . S
O850 C878 1.214 . S
H851 C879 0.929 . S
H852 C880 0.929 . S
H853 C881 0.930 . S
H854 C882 0.929 . S
H855 C884 0.930 . S
H856 C861 0.930 . S
H857 C865 0.930 . S
O858 Co827 2.037 . S
O858 C878 1.234 . S
C859 O833 1.269 . S
C859 O834 1.257 . S
C860 H835 0.930 . S
C860 C863 1.388 . S
C860 C865 1.418 . S
C861 H856 0.930 . S
C861 C864 1.404 . S
C861 C865 1.353 . S
N862 Co827 2.145 . S
N862 C863 1.397 . S
N862 C864 1.334 . S
C863 H844 0.929 . S
C863 C860 1.388 . S
C863 N862 1.397 . S
C864 H845 0.929 . S
C864 C861 1.404 . S
C864 N862 1.334 . S
C865 H857 0.930 . S
C865 C860 1.418 . S
C865 C861 1.353 . S
C866 H836 0.930 . S
C866 N867 1.330 . S
C866 C868 1.446 . S
N867 Co826 2.151 . S
N867 C866 1.330 . S
N867 C871 1.418 . S
C868 H847 0.929 . S
C868 C866 1.446 . S
C868 C869 1.332 . S
C869 H849 0.931 . S
C869 C868 1.332 . S
C869 C870 1.267 . S
C870 H838 0.929 . S
C870 C869 1.267 . S
C870 C871 1.251 . S
C871 H841 0.929 . S
C871 N867 1.418 . S
C871 C870 1.251 . S
C872 H839 0.930 . S
C872 C874 1.406 . S
C872 C877 1.261 . S
C873 H840 0.930 . S
C873 N875 1.325 . S
C873 C876 1.357 . S
C874 H842 0.928 . S
C874 C872 1.406 . S
C874 N875 1.261 . S
N875 Co826 2.214 . S
N875 C873 1.325 . S
N875 C874 1.261 . S
C876 H846 0.931 . S
C876 C873 1.357 . S
C876 C877 1.312 . S
C877 H848 0.930 . S
C877 C872 1.261 . S
C877 C876 1.312 . S
C878 O850 1.214 . S
C878 O858 1.234 . S
C879 H851 0.929 . S
C879 C882 1.391 . S
C879 C884 1.391 . S
C880 H852 0.929 . S
C880 C881 1.390 . S
C880 N883 1.391 . S
C881 H853 0.930 . S
C881 C880 1.390 . S
C881 C882 1.392 . S
C882 H854 0.929 . S
C882 C879 1.391 . S
C882 C881 1.392 . S
N883 Co827 2.257 . S
N883 C880 1.391 . S
N883 C884 1.388 . S
C884 H855 0.930 . S
C884 C879 1.391 . S
C884 N883 1.388 . S
Co885 O887 2.143 . S
Co885 O893 2.074 . S
Co885 O896 2.093 . S
Co885 O909 2.097 . S
Co885 N926 2.151 . S
Co885 N934 2.214 . S
Co886 O887 2.160 . S
Co886 O892 2.058 . S
Co886 O902 2.057 . S
Co886 O917 2.037 . S
Co886 N921 2.145 . S
Co886 N942 2.257 . S
O887 Co885 2.143 . S
O887 Co886 2.160 . S
C888 O889 1.278 . S
C888 O896 1.224 . S
O889 C888 1.278 . S
C890 O891 1.245 . S
C890 O902 1.232 . S
O891 C890 1.245 . S
O892 Co886 2.058 . S
O892 C918 1.269 . S
O893 Co885 2.074 . S
O893 C918 1.257 . S
H894 C919 0.930 . S
H895 C925 0.930 . S
O896 Co885 2.093 . S
O896 C888 1.224 . S
H897 C929 0.929 . S
H898 C931 0.930 . S
H899 C932 0.930 . S
H900 C930 0.929 . S
H901 C933 0.928 . S
O902 Co886 2.057 . S
O902 C890 1.232 . S
H903 C922 0.929 . S
H904 C923 0.929 . S
H905 C935 0.931 . S
H906 C927 0.929 . S
H907 C936 0.930 . S
H908 C928 0.931 . S
O909 Co885 2.097 . S
O909 C937 1.214 . S
H910 C938 0.929 . S
H911 C939 0.929 . S
H912 C940 0.930 . S
H913 C941 0.929 . S
H914 C943 0.930 . S
H915 C920 0.930 . S
H916 C924 0.930 . S
O917 Co886 2.037 . S
O917 C937 1.234 . S
C918 O892 1.269 . S
C918 O893 1.257 . S
C919 H894 0.930 . S
C919 C922 1.388 . S
C919 C924 1.418 . S
C920 H915 0.930 . S
C920 C923 1.404 . S
C920 C924 1.353 . S
N921 Co886 2.145 . S
N921 C922 1.397 . S
N921 C923 1.334 . S
C922 H903 0.929 . S
C922 C919 1.388 . S
C922 N921 1.397 . S
C923 H904 0.929 . S
C923 C920 1.404 . S
C923 N921 1.334 . S
C924 H916 0.930 . S
C924 C919 1.418 . S
C924 C920 1.353 . S
C925 H895 0.930 . S
C925 N926 1.330 . S
C925 C927 1.446 . S
N926 Co885 2.151 . S
N926 C925 1.330 . S
N926 C930 1.418 . S
C927 H906 0.929 . S
C927 C925 1.446 . S
C927 C928 1.332 . S
C928 H908 0.931 . S
C928 C927 1.332 . S
C928 C929 1.267 . S
C929 H897 0.929 . S
C929 C928 1.267 . S
C929 C930 1.251 . S
C930 H900 0.929 . S
C930 N926 1.418 . S
C930 C929 1.251 . S
C931 H898 0.930 . S
C931 C933 1.406 . S
C931 C936 1.261 . S
C932 H899 0.930 . S
C932 N934 1.325 . S
C932 C935 1.357 . S
C933 H901 0.928 . S
C933 C931 1.406 . S
C933 N934 1.261 . S
N934 Co885 2.214 . S
N934 C932 1.325 . S
N934 C933 1.261 . S
C935 H905 0.931 . S
C935 C932 1.357 . S
C935 C936 1.312 . S
C936 H907 0.930 . S
C936 C931 1.261 . S
C936 C935 1.312 . S
C937 O909 1.214 . S
C937 O917 1.234 . S
C938 H910 0.929 . S
C938 C941 1.391 . S
C938 C943 1.391 . S
C939 H911 0.929 . S
C939 C940 1.390 . S
C939 N942 1.391 . S
C940 H912 0.930 . S
C940 C939 1.390 . S
C940 C941 1.392 . S
C941 H913 0.929 . S
C941 C938 1.391 . S
C941 C940 1.392 . S
N942 Co886 2.257 . S
N942 C939 1.391 . S
N942 C943 1.388 . S
C943 H914 0.930 . S
C943 C938 1.391 . S
C943 N942 1.388 . S
H944 C962 0.951 . S
H945 C964 0.951 . S
H946 C966 0.950 . S
H947 C967 0.950 . S
H948 C969 0.950 . S
H949 C972 0.950 . S
H950 C973 0.950 . S
H951 C975 0.950 . S
H952 C976 0.950 . S
H953 C977 0.951 . S
H954 C979 0.951 . S
H955 C981 0.950 . S
H956 C982 0.950 . S
H957 C984 0.950 . S
H958 C987 0.950 . S
H959 C988 0.950 . S
H960 C990 0.950 . S
H961 C991 0.950 . S
C962 H944 0.951 . S
C962 C963 1.366 1_556 S
C962 C964 1.388 . S
C963 C962 1.366 1_554 S
C963 C967 1.385 . S
C964 H945 0.951 . S
C964 C962 1.388 . S
C964 C965 1.366 1_556 S
C965 C964 1.366 1_554 S
C965 C966 1.414 . S
C965 C968 1.499 . S
C966 H946 0.950 . S
C966 C965 1.414 . S
C966 C967 1.374 . S
C967 H947 0.950 . S
C967 C963 1.385 . S
C967 C966 1.374 . S
C968 C965 1.499 . S
C968 C969 1.373 . S
C968 C970 1.389 1_554 S
C969 H948 0.950 . S
C969 C968 1.373 . S
C969 C985 1.377 . S
C970 C968 1.389 1_556 S
C970 C971 1.524 . S
C970 C984 1.377 . S
C971 C970 1.524 . S
C971 C972 1.397 . S
C971 C976 1.363 . S
C972 H949 0.950 . S
C972 C971 1.397 . S
C972 C973 1.334 . S
C973 H950 0.950 . S
C973 C972 1.334 . S
C973 C974 1.287 . S
C974 C973 1.287 . S
C974 C975 1.524 . S
C974 H993 0.913 . S
C975 H951 0.950 . S
C975 C974 1.524 . S
C975 C976 1.415 . S
C976 H952 0.950 . S
C976 C971 1.363 . S
C976 C975 1.415 . S
C977 H953 0.951 . S
C977 C978 1.366 . S
C977 C979 1.388 . S
C978 C977 1.366 . S
C978 C982 1.385 1_554 S
C979 H954 0.951 . S
C979 C977 1.388 . S
C979 C980 1.366 . S
C980 C979 1.366 . S
C980 C981 1.414 1_554 S
C980 C983 1.499 . S
C981 H955 0.950 . S
C981 C980 1.414 1_556 S
C981 C982 1.374 . S
C982 H956 0.950 . S
C982 C978 1.385 1_556 S
C982 C981 1.374 . S
C983 C980 1.499 . S
C983 C984 1.373 1_554 S
C983 C985 1.389 . S
C984 H957 0.950 . S
C984 C970 1.377 . S
C984 C983 1.373 1_556 S
C985 C969 1.377 . S
C985 C983 1.389 . S
C985 C986 1.524 . S
C986 C985 1.524 . S
C986 C987 1.397 . S
C986 C991 1.363 . S
C987 H958 0.950 . S
C987 C986 1.397 . S
C987 C988 1.334 . S
C988 H959 0.950 . S
C988 C987 1.334 . S
C988 C989 1.287 . S
C989 C988 1.287 . S
C989 C990 1.524 . S
C989 H992 0.999 . S
C990 H960 0.950 . S
C990 C989 1.524 . S
C990 C991 1.415 . S
C991 H961 0.950 . S
C991 C986 1.363 . S
C991 C990 1.415 . S
H992 C989 0.999 . S
H993 C974 0.913 . S
H994 C1012 0.951 . S
H995 C1014 0.951 . S
H996 C1016 0.950 . S
H997 C1017 0.950 . S
H998 C1019 0.950 . S
H999 C1022 0.950 1_554 S
H1000 C1023 0.950 . S
H1001 C1025 0.950 . S
H1002 C1026 0.950 . S
H1003 C1027 0.951 . S
H1004 C1029 0.951 . S
H1005 C1031 0.950 . S
H1006 C1032 0.950 . S
H1007 C1034 0.950 . S
H1008 C1037 0.950 . S
H1009 C1038 0.950 . S
H1010 C1040 0.950 . S
H1011 C1041 0.950 . S
C1012 H994 0.951 . S
C1012 C1013 1.366 1_556 S
C1012 C1014 1.388 . S
C1013 C1012 1.366 1_554 S
C1013 C1017 1.385 . S
C1014 H995 0.951 . S
C1014 C1012 1.388 . S
C1014 C1015 1.366 1_556 S
C1015 C1014 1.366 1_554 S
C1015 C1016 1.414 . S
C1015 C1018 1.499 . S
C1016 H996 0.950 . S
C1016 C1015 1.414 . S
C1016 C1017 1.374 . S
C1017 H997 0.950 . S
C1017 C1013 1.385 . S
C1017 C1016 1.374 . S
C1018 C1015 1.499 . S
C1018 C1019 1.373 . S
C1018 C1020 1.389 1_554 S
C1019 H998 0.950 . S
C1019 C1018 1.373 . S
C1019 C1035 1.377 . S
C1020 C1018 1.389 1_556 S
C1020 C1021 1.524 . S
C1020 C1034 1.377 . S
C1021 C1020 1.524 . S
C1021 C1022 1.397 . S
C1021 C1026 1.363 . S
C1022 H999 0.950 1_556 S
C1022 C1021 1.397 . S
C1022 C1023 1.334 . S
C1023 H1000 0.950 . S
C1023 C1022 1.334 . S
C1023 C1024 1.287 . S
C1024 C1023 1.287 . S
C1024 C1025 1.524 . S
C1024 H1043 0.913 . S
C1025 H1001 0.950 . S
C1025 C1024 1.524 . S
C1025 C1026 1.415 . S
C1026 H1002 0.950 . S
C1026 C1021 1.363 . S
C1026 C1025 1.415 . S
C1027 H1003 0.951 . S
C1027 C1028 1.366 . S
C1027 C1029 1.388 . S
C1028 C1027 1.366 . S
C1028 C1032 1.385 1_554 S
C1029 H1004 0.951 . S
C1029 C1027 1.388 . S
C1029 C1030 1.366 . S
C1030 C1029 1.366 . S
C1030 C1031 1.414 1_554 S
C1030 C1033 1.499 . S
C1031 H1005 0.950 . S
C1031 C1030 1.414 1_556 S
C1031 C1032 1.374 . S
C1032 H1006 0.950 . S
C1032 C1028 1.385 1_556 S
C1032 C1031 1.374 . S
C1033 C1030 1.499 . S
C1033 C1034 1.373 1_554 S
C1033 C1035 1.389 . S
C1034 H1007 0.950 . S
C1034 C1020 1.377 . S
C1034 C1033 1.373 1_556 S
C1035 C1019 1.377 . S
C1035 C1033 1.389 . S
C1035 C1036 1.524 . S
C1036 C1035 1.524 . S
C1036 C1037 1.397 . S
C1036 C1041 1.363 . S
C1037 H1008 0.950 . S
C1037 C1036 1.397 . S
C1037 C1038 1.334 . S
C1038 H1009 0.950 . S
C1038 C1037 1.334 . S
C1038 C1039 1.287 . S
C1039 C1038 1.287 . S
C1039 C1040 1.524 . S
C1039 H1042 0.999 . S
C1040 H1010 0.950 . S
C1040 C1039 1.524 . S
C1040 C1041 1.415 . S
C1041 H1011 0.950 . S
C1041 C1036 1.363 . S
C1041 C1040 1.415 . S
H1042 C1039 0.999 . S
H1043 C1024 0.913 . S
H1044 C1062 0.951 . S
H1045 C1064 0.951 . S
H1046 C1066 0.950 . S
H1047 C1067 0.950 . S
H1048 C1069 0.950 . S
H1049 C1072 0.950 . S
H1050 C1073 0.950 . S
H1051 C1075 0.950 . S
H1052 C1076 0.950 . S
H1053 C1077 0.959 . S
H1054 C1079 0.951 . S
H1055 C1081 0.950 . S
H1056 C1082 0.950 . S
H1057 C1084 0.950 . S
H1058 C1087 0.950 . S
H1059 C1088 0.950 . S
H1060 C1090 0.950 . S
H1061 C1091 0.950 . S
C1062 H1044 0.951 . S
C1062 C1063 1.366 . S
C1062 C1064 1.388 . S
C1063 C1062 1.366 . S
C1063 C1067 1.385 1_554 S
C1064 H1045 0.951 . S
C1064 C1062 1.388 . S
C1064 C1065 1.366 . S
C1065 C1064 1.366 . S
C1065 C1066 1.414 1_554 S
C1065 C1068 1.499 . S
C1066 H1046 0.950 . S
C1066 C1065 1.414 1_556 S
C1066 C1067 1.374 . S
C1067 H1047 0.950 . S
C1067 C1063 1.385 1_556 S
C1067 C1066 1.374 . S
C1068 C1065 1.499 . S
C1068 C1069 1.373 1_554 S
C1068 C1070 1.389 . S
C1069 H1048 0.950 . S
C1069 C1068 1.373 1_556 S
C1069 C1085 1.377 . S
C1070 C1068 1.389 . S
C1070 C1071 1.524 . S
C1070 C1084 1.377 . S
C1071 C1070 1.524 . S
C1071 C1072 1.397 . S
C1071 C1076 1.363 . S
C1072 H1049 0.950 . S
C1072 C1071 1.397 . S
C1072 C1073 1.334 . S
C1073 H1050 0.950 . S
C1073 C1072 1.334 . S
C1073 C1074 1.287 . S
C1074 C1073 1.287 . S
C1074 C1075 1.524 . S
C1074 H1093 0.913 . S
C1075 H1051 0.950 . S
C1075 C1074 1.524 . S
C1075 C1076 1.415 . S
C1076 H1052 0.950 . S
C1076 C1071 1.363 . S
C1076 C1075 1.415 . S
C1077 H1053 0.959 . S
C1077 C1078 1.357 1_556 S
C1077 C1079 1.389 . S
C1078 C1077 1.357 1_554 S
C1078 C1082 1.385 . S
C1079 H1054 0.951 . S
C1079 C1077 1.389 . S
C1079 C1080 1.366 1_556 S
C1080 C1079 1.366 1_554 S
C1080 C1081 1.414 . S
C1080 C1083 1.499 . S
C1081 H1055 0.950 . S
C1081 C1080 1.414 . S
C1081 C1082 1.374 . S
C1082 H1056 0.950 . S
C1082 C1078 1.385 . S
C1082 C1081 1.374 . S
C1083 C1080 1.499 . S
C1083 C1084 1.373 . S
C1083 C1085 1.389 1_554 S
C1084 H1057 0.950 . S
C1084 C1070 1.377 . S
C1084 C1083 1.373 . S
C1085 C1069 1.377 . S
C1085 C1083 1.389 1_556 S
C1085 C1086 1.524 . S
C1086 C1085 1.524 . S
C1086 C1087 1.397 . S
C1086 C1091 1.363 . S
C1087 H1058 0.950 . S
C1087 C1086 1.397 . S
C1087 C1088 1.334 . S
C1088 H1059 0.950 . S
C1088 C1087 1.334 . S
C1088 C1089 1.287 . S
C1089 C1088 1.287 . S
C1089 C1090 1.524 . S
C1089 H1092 0.999 . S
C1090 H1060 0.950 . S
C1090 C1089 1.524 . S
C1090 C1091 1.415 . S
C1091 H1061 0.950 . S
C1091 C1086 1.363 . S
C1091 C1090 1.415 . S
H1092 C1089 0.999 . S
H1093 C1074 0.913 . S
H1094 C1112 0.951 . S
H1095 C1114 0.951 . S
H1096 C1116 0.950 . S
H1097 C1117 0.950 . S
H1098 C1119 0.950 . S
H1099 C1122 0.950 1_556 S
H1100 C1123 0.950 . S
H1101 C1125 0.950 . S
H1102 C1126 0.950 . S
H1103 C1127 0.951 . S
H1104 C1129 0.951 . S
H1105 C1131 0.950 . S
H1106 C1132 0.950 . S
H1107 C1134 0.950 . S
H1108 C1137 0.950 . S
H1109 C1138 0.950 . S
H1110 C1140 0.950 . S
H1111 C1141 0.950 . S
C1112 H1094 0.951 . S
C1112 C1113 1.366 . S
C1112 C1114 1.388 . S
C1113 C1112 1.366 . S
C1113 C1117 1.385 1_554 S
C1114 H1095 0.951 . S
C1114 C1112 1.388 . S
C1114 C1115 1.366 . S
C1115 C1114 1.366 . S
C1115 C1116 1.414 1_554 S
C1115 C1118 1.499 . S
C1116 H1096 0.950 . S
C1116 C1115 1.414 1_556 S
C1116 C1117 1.374 . S
C1117 H1097 0.950 . S
C1117 C1113 1.385 1_556 S
C1117 C1116 1.374 . S
C1118 C1115 1.499 . S
C1118 C1119 1.373 1_554 S
C1118 C1120 1.389 . S
C1119 H1098 0.950 . S
C1119 C1118 1.373 1_556 S
C1119 C1135 1.377 . S
C1120 C1118 1.389 . S
C1120 C1121 1.524 . S
C1120 C1134 1.377 . S
C1121 C1120 1.524 . S
C1121 C1122 1.397 . S
C1121 C1126 1.363 . S
C1122 H1099 0.950 1_554 S
C1122 C1121 1.397 . S
C1122 C1123 1.334 . S
C1123 H1100 0.950 . S
C1123 C1122 1.334 . S
C1123 C1124 1.287 . S
C1124 C1123 1.287 . S
C1124 C1125 1.524 . S
C1124 H1143 0.913 . S
C1125 H1101 0.950 . S
C1125 C1124 1.524 . S
C1125 C1126 1.415 . S
C1126 H1102 0.950 . S
C1126 C1121 1.363 . S
C1126 C1125 1.415 . S
C1127 H1103 0.951 . S
C1127 C1128 1.366 1_556 S
C1127 C1129 1.388 . S
C1128 C1127 1.366 1_554 S
C1128 C1132 1.385 . S
C1129 H1104 0.951 . S
C1129 C1127 1.388 . S
C1129 C1130 1.366 1_556 S
C1130 C1129 1.366 1_554 S
C1130 C1131 1.414 . S
C1130 C1133 1.499 . S
C1131 H1105 0.950 . S
C1131 C1130 1.414 . S
C1131 C1132 1.374 . S
C1132 H1106 0.950 . S
C1132 C1128 1.385 . S
C1132 C1131 1.374 . S
C1133 C1130 1.499 . S
C1133 C1134 1.373 . S
C1133 C1135 1.389 1_554 S
C1134 H1107 0.950 . S
C1134 C1120 1.377 . S
C1134 C1133 1.373 . S
C1135 C1119 1.377 . S
C1135 C1133 1.389 1_556 S
C1135 C1136 1.524 . S
C1136 C1135 1.524 . S
C1136 C1137 1.397 1_556 S
C1136 C1141 1.363 . S
C1137 H1108 0.950 . S
C1137 C1136 1.397 1_554 S
C1137 C1138 1.334 . S
C1138 H1109 0.950 . S
C1138 C1137 1.334 . S
C1138 C1139 1.287 1_554 S
C1139 C1138 1.287 1_556 S
C1139 C1140 1.524 . S
C1139 H1142 0.999 . S
C1140 H1110 0.950 . S
C1140 C1139 1.524 . S
C1140 C1141 1.415 . S
C1141 H1111 0.950 . S
C1141 C1136 1.363 . S
C1141 C1140 1.415 . S
H1142 C1139 0.999 . S
H1143 C1124 0.913 . S
H1144 C1162 0.951 . S
H1145 C1164 0.951 . S
H1146 C1166 0.950 . S
H1147 C1167 0.950 . S
H1148 C1169 0.950 . S
H1149 C1172 0.950 . S
H1150 C1173 0.950 . S
H1151 C1175 0.950 . S
H1152 C1176 0.950 . S
H1153 C1177 0.951 . S
H1154 C1179 0.951 . S
H1155 C1181 0.950 . S
H1156 C1182 0.950 . S
H1157 C1184 0.950 . S
H1158 C1187 0.950 . S
H1159 C1188 0.950 . S
H1160 C1190 0.950 . S
H1161 C1191 0.950 . S
C1162 H1144 0.951 . S
C1162 C1163 1.366 . S
C1162 C1164 1.388 . S
C1163 C1162 1.366 . S
C1163 C1167 1.385 . S
C1164 H1145 0.951 . S
C1164 C1162 1.388 . S
C1164 C1165 1.366 . S
C1165 C1164 1.366 . S
C1165 C1166 1.414 . S
C1165 C1168 1.499 . S
C1166 H1146 0.950 . S
C1166 C1165 1.414 . S
C1166 C1167 1.374 . S
C1167 H1147 0.950 . S
C1167 C1163 1.385 . S
C1167 C1166 1.374 . S
C1168 C1165 1.499 . S
C1168 C1169 1.373 . S
C1168 C1170 1.389 . S
C1169 H1148 0.950 . S
C1169 C1168 1.373 . S
C1169 C1185 1.377 1_545 S
C1170 C1168 1.389 . S
C1170 C1171 1.524 . S
C1170 C1184 1.377 1_545 S
C1171 C1170 1.524 . S
C1171 C1172 1.397 . S
C1171 C1176 1.363 . S
C1172 H1149 0.950 . S
C1172 C1171 1.397 . S
C1172 C1173 1.334 . S
C1173 H1150 0.950 . S
C1173 C1172 1.334 . S
C1173 C1174 1.287 . S
C1174 C1173 1.287 . S
C1174 C1175 1.524 . S
C1174 H1193 0.913 . S
C1175 H1151 0.950 . S
C1175 C1174 1.524 . S
C1175 C1176 1.415 . S
C1176 H1152 0.950 . S
C1176 C1171 1.363 . S
C1176 C1175 1.415 . S
C1177 H1153 0.951 . S
C1177 C1178 1.366 . S
C1177 C1179 1.388 . S
C1178 C1177 1.366 . S
C1178 C1182 1.385 . S
C1179 H1154 0.951 . S
C1179 C1177 1.388 . S
C1179 C1180 1.366 . S
C1180 C1179 1.366 . S
C1180 C1181 1.414 . S
C1180 C1183 1.499 . S
C1181 H1155 0.950 . S
C1181 C1180 1.414 . S
C1181 C1182 1.374 . S
C1182 H1156 0.950 . S
C1182 C1178 1.385 . S
C1182 C1181 1.374 . S
C1183 C1180 1.499 . S
C1183 C1184 1.373 . S
C1183 C1185 1.389 . S
C1184 H1157 0.950 . S
C1184 C1170 1.377 1_565 S
C1184 C1183 1.373 . S
C1185 C1169 1.377 1_565 S
C1185 C1183 1.389 . S
C1185 C1186 1.524 . S
C1186 C1185 1.524 . S
C1186 C1187 1.397 . S
C1186 C1191 1.363 . S
C1187 H1158 0.950 . S
C1187 C1186 1.397 . S
C1187 C1188 1.334 . S
C1188 H1159 0.950 . S
C1188 C1187 1.334 . S
C1188 C1189 1.287 . S
C1189 C1188 1.287 . S
C1189 C1190 1.524 . S
C1189 H1192 0.999 . S
C1190 H1160 0.950 . S
C1190 C1189 1.524 . S
C1190 C1191 1.415 . S
C1191 H1161 0.950 . S
C1191 C1186 1.363 . S
C1191 C1190 1.415 . S
H1192 C1189 0.999 . S
H1193 C1174 0.913 . S
H1194 C1212 0.951 . S
H1195 C1214 0.951 . S
H1196 C1216 0.950 . S
H1197 C1217 0.950 . S
H1198 C1219 0.950 . S
H1199 C1222 0.950 . S
H1200 C1223 0.950 . S
H1201 C1225 0.950 . S
H1202 C1226 0.950 . S
H1203 C1227 0.951 . S
H1204 C1229 0.951 . S
H1205 C1231 0.950 . S
H1206 C1232 0.950 . S
H1207 C1234 0.950 . S
H1208 C1237 0.950 . S
H1209 C1238 0.950 . S
H1210 C1240 0.950 . S
H1211 C1241 0.950 . S
C1212 H1194 0.951 . S
C1212 C1213 1.366 . S
C1212 C1214 1.388 . S
C1213 C1212 1.366 . S
C1213 C1217 1.385 . S
C1214 H1195 0.951 . S
C1214 C1212 1.388 . S
C1214 C1215 1.366 . S
C1215 C1214 1.366 . S
C1215 C1216 1.414 . S
C1215 C1218 1.499 . S
C1216 H1196 0.950 . S
C1216 C1215 1.414 . S
C1216 C1217 1.374 . S
C1217 H1197 0.950 . S
C1217 C1213 1.385 . S
C1217 C1216 1.374 . S
C1218 C1215 1.499 . S
C1218 C1219 1.373 . S
C1218 C1220 1.389 . S
C1219 H1198 0.950 . S
C1219 C1218 1.373 . S
C1219 C1235 1.377 1_655 S
C1220 C1218 1.389 . S
C1220 C1221 1.524 . S
C1220 C1234 1.377 1_655 S
C1221 C1220 1.524 . S
C1221 C1222 1.397 . S
C1221 C1226 1.363 . S
C1222 H1199 0.950 . S
C1222 C1221 1.397 . S
C1222 C1223 1.334 . S
C1223 H1200 0.950 . S
C1223 C1222 1.334 . S
C1223 C1224 1.287 . S
C1224 C1223 1.287 . S
C1224 C1225 1.524 . S
C1224 H1243 0.913 . S
C1225 H1201 0.950 . S
C1225 C1224 1.524 . S
C1225 C1226 1.415 . S
C1226 H1202 0.950 . S
C1226 C1221 1.363 . S
C1226 C1225 1.415 . S
C1227 H1203 0.951 . S
C1227 C1228 1.366 . S
C1227 C1229 1.388 . S
C1228 C1227 1.366 . S
C1228 C1232 1.385 . S
C1229 H1204 0.951 . S
C1229 C1227 1.388 . S
C1229 C1230 1.366 . S
C1230 C1229 1.366 . S
C1230 C1231 1.414 . S
C1230 C1233 1.499 . S
C1231 H1205 0.950 . S
C1231 C1230 1.414 . S
C1231 C1232 1.374 . S
C1232 H1206 0.950 . S
C1232 C1228 1.385 . S
C1232 C1231 1.374 . S
C1233 C1230 1.499 . S
C1233 C1234 1.373 . S
C1233 C1235 1.389 . S
C1234 H1207 0.950 . S
C1234 C1220 1.377 1_455 S
C1234 C1233 1.373 . S
C1235 C1219 1.377 1_455 S
C1235 C1233 1.389 . S
C1235 C1236 1.524 . S
C1236 C1235 1.524 . S
C1236 C1237 1.397 . S
C1236 C1241 1.363 . S
C1237 H1208 0.950 . S
C1237 C1236 1.397 . S
C1237 C1238 1.334 . S
C1238 H1209 0.950 . S
C1238 C1237 1.334 . S
C1238 C1239 1.287 . S
C1239 C1238 1.287 . S
C1239 C1240 1.524 . S
C1239 H1242 0.999 . S
C1240 H1210 0.950 . S
C1240 C1239 1.524 . S
C1240 C1241 1.415 . S
C1241 H1211 0.950 . S
C1241 C1236 1.363 . S
C1241 C1240 1.415 . S
H1242 C1239 0.999 . S
H1243 C1224 0.913 . S
H1244 C1262 0.951 . S
H1245 C1264 0.951 . S
H1246 C1266 0.950 . S
H1247 C1267 0.950 . S
H1248 C1269 0.950 . S
H1249 C1272 0.950 . S
H1250 C1273 0.950 . S
H1251 C1275 0.950 . S
H1252 C1276 0.950 . S
H1253 C1277 0.951 . S
H1254 C1279 0.951 . S
H1255 C1281 0.950 . S
H1256 C1282 0.950 . S
H1257 C1284 0.950 . S
H1258 C1287 0.950 . S
H1259 C1288 0.950 . S
H1260 C1290 0.950 . S
H1261 C1291 0.950 . S
C1262 H1244 0.951 . S
C1262 C1263 1.366 . S
C1262 C1264 1.388 . S
C1263 C1262 1.366 . S
C1263 C1267 1.385 . S
C1264 H1245 0.951 . S
C1264 C1262 1.388 . S
C1264 C1265 1.366 . S
C1265 C1264 1.366 . S
C1265 C1266 1.414 . S
C1265 C1268 1.499 . S
C1266 H1246 0.950 . S
C1266 C1265 1.414 . S
C1266 C1267 1.374 . S
C1267 H1247 0.950 . S
C1267 C1263 1.385 . S
C1267 C1266 1.374 . S
C1268 C1265 1.499 . S
C1268 C1269 1.373 . S
C1268 C1270 1.389 . S
C1269 H1248 0.950 . S
C1269 C1268 1.373 . S
C1269 C1285 1.377 1_545 S
C1270 C1268 1.389 . S
C1270 C1271 1.524 . S
C1270 C1284 1.377 1_545 S
C1271 C1270 1.524 . S
C1271 C1272 1.397 . S
C1271 C1276 1.363 . S
C1272 H1249 0.950 . S
C1272 C1271 1.397 . S
C1272 C1273 1.334 . S
C1273 H1250 0.950 . S
C1273 C1272 1.334 . S
C1273 C1274 1.287 . S
C1274 C1273 1.287 . S
C1274 C1275 1.524 . S
C1274 H1293 0.913 . S
C1275 H1251 0.950 . S
C1275 C1274 1.524 . S
C1275 C1276 1.415 . S
C1276 H1252 0.950 . S
C1276 C1271 1.363 . S
C1276 C1275 1.415 . S
C1277 H1253 0.951 . S
C1277 C1278 1.366 . S
C1277 C1279 1.388 . S
C1278 C1277 1.366 . S
C1278 C1282 1.385 . S
C1279 H1254 0.951 . S
C1279 C1277 1.388 . S
C1279 C1280 1.366 . S
C1280 C1279 1.366 . S
C1280 C1281 1.414 . S
C1280 C1283 1.499 . S
C1281 H1255 0.950 . S
C1281 C1280 1.414 . S
C1281 C1282 1.374 . S
C1282 H1256 0.950 . S
C1282 C1278 1.385 . S
C1282 C1281 1.374 . S
C1283 C1280 1.499 . S
C1283 C1284 1.373 . S
C1283 C1285 1.389 . S
C1284 H1257 0.950 . S
C1284 C1270 1.377 1_565 S
C1284 C1283 1.373 . S
C1285 C1269 1.377 1_565 S
C1285 C1283 1.389 . S
C1285 C1286 1.524 . S
C1286 C1285 1.524 . S
C1286 C1287 1.397 . S
C1286 C1291 1.363 . S
C1287 H1258 0.950 . S
C1287 C1286 1.397 . S
C1287 C1288 1.334 . S
C1288 H1259 0.950 . S
C1288 C1287 1.334 . S
C1288 C1289 1.287 . S
C1289 C1288 1.287 . S
C1289 C1290 1.524 . S
C1289 H1292 0.999 . S
C1290 H1260 0.950 . S
C1290 C1289 1.524 . S
C1290 C1291 1.415 . S
C1291 H1261 0.950 . S
C1291 C1286 1.363 . S
C1291 C1290 1.415 . S
H1292 C1289 0.999 . S
H1293 C1274 0.913 . S
H1294 C1312 0.951 . S
H1295 C1314 0.951 . S
H1296 C1316 0.950 . S
H1297 C1317 0.950 . S
H1298 C1319 0.950 . S
H1299 C1322 0.950 . S
H1300 C1323 0.950 . S
H1301 C1325 0.950 . S
H1302 C1326 0.950 . S
H1303 C1327 0.951 . S
H1304 C1329 0.951 . S
H1305 C1331 0.950 . S
H1306 C1332 0.950 . S
H1307 C1334 0.950 . S
H1308 C1337 0.950 . S
H1309 C1338 0.950 . S
H1310 C1340 0.950 . S
H1311 C1341 0.950 . S
C1312 H1294 0.951 . S
C1312 C1313 1.366 . S
C1312 C1314 1.388 . S
C1313 C1312 1.366 . S
C1313 C1317 1.385 . S
C1314 H1295 0.951 . S
C1314 C1312 1.388 . S
C1314 C1315 1.366 . S
C1315 C1314 1.366 . S
C1315 C1316 1.414 . S
C1315 C1318 1.499 . S
C1316 H1296 0.950 . S
C1316 C1315 1.414 . S
C1316 C1317 1.374 . S
C1317 H1297 0.950 . S
C1317 C1313 1.385 . S
C1317 C1316 1.374 . S
C1318 C1315 1.499 . S
C1318 C1319 1.373 . S
C1318 C1320 1.389 . S
C1319 H1298 0.950 . S
C1319 C1318 1.373 . S
C1319 C1335 1.377 1_455 S
C1320 C1318 1.389 . S
C1320 C1321 1.524 . S
C1320 C1334 1.377 1_455 S
C1321 C1320 1.524 . S
C1321 C1322 1.397 . S
C1321 C1326 1.363 . S
C1322 H1299 0.950 . S
C1322 C1321 1.397 . S
C1322 C1323 1.334 . S
C1323 H1300 0.950 . S
C1323 C1322 1.334 . S
C1323 C1324 1.287 . S
C1324 C1323 1.287 . S
C1324 C1325 1.524 . S
C1324 H1343 0.913 . S
C1325 H1301 0.950 . S
C1325 C1324 1.524 . S
C1325 C1326 1.415 . S
C1326 H1302 0.950 . S
C1326 C1321 1.363 . S
C1326 C1325 1.415 . S
C1327 H1303 0.951 . S
C1327 C1328 1.366 . S
C1327 C1329 1.388 . S
C1328 C1327 1.366 . S
C1328 C1332 1.385 . S
C1329 H1304 0.951 . S
C1329 C1327 1.388 . S
C1329 C1330 1.366 . S
C1330 C1329 1.366 . S
C1330 C1331 1.414 . S
C1330 C1333 1.499 . S
C1331 H1305 0.950 . S
C1331 C1330 1.414 . S
C1331 C1332 1.374 . S
C1332 H1306 0.950 . S
C1332 C1328 1.385 . S
C1332 C1331 1.374 . S
C1333 C1330 1.499 . S
C1333 C1334 1.373 . S
C1333 C1335 1.389 . S
C1334 H1307 0.950 . S
C1334 C1320 1.377 1_655 S
C1334 C1333 1.373 . S
C1335 C1319 1.377 1_655 S
C1335 C1333 1.389 . S
C1335 C1336 1.524 . S
C1336 C1335 1.524 . S
C1336 C1337 1.397 . S
C1336 C1341 1.363 . S
C1337 H1308 0.950 . S
C1337 C1336 1.397 . S
C1337 C1338 1.334 . S
C1338 H1309 0.950 . S
C1338 C1337 1.334 . S
C1338 C1339 1.287 . S
C1339 C1338 1.287 . S
C1339 C1340 1.524 . S
C1339 H1342 0.999 . S
C1340 H1310 0.950 . S
C1340 C1339 1.524 . S
C1340 C1341 1.415 . S
C1341 H1311 0.950 . S
C1341 C1336 1.363 . S
C1341 C1340 1.415 . S
H1342 C1339 0.999 . S
H1343 C1324 0.913 . S
H1344 C1362 0.951 . S
H1345 C1364 0.951 . S
H1346 C1366 0.950 . S
H1347 C1367 0.950 . S
H1348 C1369 0.950 . S
H1349 C1372 0.950 . S
H1350 C1373 0.950 . S
H1351 C1375 0.950 . S
H1352 C1376 0.950 . S
H1353 C1377 0.951 . S
H1354 C1379 0.951 . S
H1355 C1381 0.950 . S
H1356 C1382 0.950 . S
H1357 C1384 0.950 . S
H1358 C1387 0.950 . S
H1359 C1388 0.950 . S
H1360 C1390 0.950 1_556 S
H1361 C1391 0.950 1_556 S
C1362 H1344 0.951 . S
C1362 C1363 1.366 . S
C1362 C1364 1.388 . S
C1363 C1362 1.366 . S
C1363 C1367 1.385 1_554 S
C1364 H1345 0.951 . S
C1364 C1362 1.388 . S
C1364 C1365 1.366 . S
C1365 C1364 1.366 . S
C1365 C1366 1.414 1_554 S
C1365 C1368 1.499 . S
C1366 H1346 0.950 . S
C1366 C1365 1.414 1_556 S
C1366 C1367 1.374 . S
C1367 H1347 0.950 . S
C1367 C1363 1.385 1_556 S
C1367 C1366 1.374 . S
C1368 C1365 1.499 . S
C1368 C1369 1.373 . S
C1368 C1370 1.389 . S
C1369 H1348 0.950 . S
C1369 C1368 1.373 . S
C1369 C1385 1.377 . S
C1370 C1368 1.389 . S
C1370 C1371 1.524 . S
C1370 C1384 1.377 . S
C1371 C1370 1.524 . S
C1371 C1372 1.398 1_554 S
C1371 C1376 1.362 . S
C1372 H1349 0.950 . S
C1372 C1371 1.398 1_556 S
C1372 C1373 1.334 . S
C1373 H1350 0.950 . S
C1373 C1372 1.334 . S
C1373 C1374 1.287 . S
C1374 C1373 1.287 . S
C1374 C1375 1.524 1_556 S
C1374 H1393 0.913 . S
C1375 H1351 0.950 . S
C1375 C1374 1.524 1_554 S
C1375 C1376 1.415 . S
C1376 H1352 0.950 . S
C1376 C1371 1.362 . S
C1376 C1375 1.415 . S
C1377 H1353 0.951 . S
C1377 C1378 1.366 1_556 S
C1377 C1379 1.388 . S
C1378 C1377 1.366 1_554 S
C1378 C1382 1.385 . S
C1379 H1354 0.951 . S
C1379 C1377 1.388 . S
C1379 C1380 1.366 1_556 S
C1380 C1379 1.366 1_554 S
C1380 C1381 1.414 . S
C1380 C1383 1.499 . S
C1381 H1355 0.950 . S
C1381 C1380 1.414 . S
C1381 C1382 1.374 . S
C1382 H1356 0.950 . S
C1382 C1378 1.385 . S
C1382 C1381 1.374 . S
C1383 C1380 1.499 . S
C1383 C1384 1.373 . S
C1383 C1385 1.389 . S
C1384 H1357 0.950 . S
C1384 C1370 1.377 . S
C1384 C1383 1.373 . S
C1385 C1369 1.377 . S
C1385 C1383 1.389 . S
C1385 C1386 1.524 . S
C1386 C1385 1.524 . S
C1386 C1387 1.397 . S
C1386 C1391 1.363 . S
C1387 H1358 0.950 . S
C1387 C1386 1.397 . S
C1387 C1388 1.334 . S
C1388 H1359 0.950 . S
C1388 C1387 1.334 . S
C1388 C1389 1.287 . S
C1389 C1388 1.287 . S
C1389 C1390 1.524 . S
C1389 H1392 0.999 . S
C1390 H1360 0.950 1_554 S
C1390 C1389 1.524 . S
C1390 C1391 1.415 . S
C1391 H1361 0.950 1_554 S
C1391 C1386 1.363 . S
C1391 C1390 1.415 . S
H1392 C1389 0.999 . S
H1393 C1374 0.913 . S
H1394 C1412 0.951 . S
H1395 C1414 0.951 . S
H1396 C1416 0.950 . S
H1397 C1417 0.950 . S
H1398 C1419 0.950 . S
H1399 C1422 0.950 . S
H1400 C1423 0.950 . S
H1401 C1425 0.950 . S
H1402 C1426 0.950 . S
H1403 C1427 0.951 . S
H1404 C1429 0.951 . S
H1405 C1431 0.950 . S
H1406 C1432 0.950 . S
H1407 C1434 0.950 . S
H1408 C1437 0.950 1_554 S
H1409 C1438 0.950 . S
H1410 C1440 0.950 . S
H1411 C1441 0.950 . S
C1412 H1394 0.951 . S
C1412 C1413 1.366 . S
C1412 C1414 1.388 . S
C1413 C1412 1.366 . S
C1413 C1417 1.385 1_554 S
C1414 H1395 0.951 . S
C1414 C1412 1.388 . S
C1414 C1415 1.366 . S
C1415 C1414 1.366 . S
C1415 C1416 1.414 1_554 S
C1415 C1418 1.499 . S
C1416 H1396 0.950 . S
C1416 C1415 1.414 1_556 S
C1416 C1417 1.374 . S
C1417 H1397 0.950 . S
C1417 C1413 1.385 1_556 S
C1417 C1416 1.374 . S
C1418 C1415 1.499 . S
C1418 C1419 1.373 1_554 S
C1418 C1420 1.389 . S
C1419 H1398 0.950 . S
C1419 C1418 1.373 1_556 S
C1419 C1435 1.377 . S
C1420 C1418 1.389 . S
C1420 C1421 1.524 . S
C1420 C1434 1.377 . S
C1421 C1420 1.524 . S
C1421 C1422 1.397 . S
C1421 C1426 1.363 . S
C1422 H1399 0.950 . S
C1422 C1421 1.397 . S
C1422 C1423 1.334 . S
C1423 H1400 0.950 . S
C1423 C1422 1.334 . S
C1423 C1424 1.287 . S
C1424 C1423 1.287 . S
C1424 C1425 1.524 . S
C1424 H1443 0.913 . S
C1425 H1401 0.950 . S
C1425 C1424 1.524 . S
C1425 C1426 1.415 . S
C1426 H1402 0.950 . S
C1426 C1421 1.363 . S
C1426 C1425 1.415 . S
C1427 H1403 0.951 . S
C1427 C1428 1.366 1_556 S
C1427 C1429 1.388 . S
C1428 C1427 1.366 1_554 S
C1428 C1432 1.385 . S
C1429 H1404 0.951 . S
C1429 C1427 1.388 . S
C1429 C1430 1.366 1_556 S
C1430 C1429 1.366 1_554 S
C1430 C1431 1.414 . S
C1430 C1433 1.499 . S
C1431 H1405 0.950 . S
C1431 C1430 1.414 . S
C1431 C1432 1.374 . S
C1432 H1406 0.950 . S
C1432 C1428 1.385 . S
C1432 C1431 1.374 . S
C1433 C1430 1.499 . S
C1433 C1434 1.373 . S
C1433 C1435 1.389 1_554 S
C1434 H1407 0.950 . S
C1434 C1420 1.377 . S
C1434 C1433 1.373 . S
C1435 C1419 1.377 . S
C1435 C1433 1.389 1_556 S
C1435 C1436 1.524 . S
C1436 C1435 1.524 . S
C1436 C1437 1.397 . S
C1436 C1441 1.363 . S
C1437 H1408 0.950 1_556 S
C1437 C1436 1.397 . S
C1437 C1438 1.334 . S
C1438 H1409 0.950 . S
C1438 C1437 1.334 . S
C1438 C1439 1.287 . S
C1439 C1438 1.287 . S
C1439 C1440 1.524 . S
C1439 H1442 0.999 . S
C1440 H1410 0.950 . S
C1440 C1439 1.524 . S
C1440 C1441 1.415 . S
C1441 H1411 0.950 . S
C1441 C1436 1.363 . S
C1441 C1440 1.415 . S
H1442 C1439 0.999 . S
H1443 C1424 0.913 . S
H1444 C1462 0.951 . S
H1445 C1464 0.951 . S
H1446 C1466 0.950 . S
H1447 C1467 0.950 . S
H1448 C1469 0.950 . S
H1449 C1472 0.950 . S
H1450 C1473 0.950 . S
H1451 C1475 0.950 . S
H1452 C1476 0.950 . S
H1453 C1477 0.951 . S
H1454 C1479 0.951 . S
H1455 C1481 0.950 . S
H1456 C1482 0.950 . S
H1457 C1484 0.950 . S
H1458 C1487 0.950 . S
H1459 C1488 0.950 . S
H1460 C1490 0.950 . S
H1461 C1491 0.950 . S
C1462 H1444 0.951 . S
C1462 C1463 1.366 . S
C1462 C1464 1.388 . S
C1463 C1462 1.366 . S
C1463 C1467 1.385 . S
C1464 H1445 0.951 . S
C1464 C1462 1.388 . S
C1464 C1465 1.366 . S
C1465 C1464 1.366 . S
C1465 C1466 1.414 . S
C1465 C1468 1.499 . S
C1466 H1446 0.950 . S
C1466 C1465 1.414 . S
C1466 C1467 1.374 . S
C1467 H1447 0.950 . S
C1467 C1463 1.385 . S
C1467 C1466 1.374 . S
C1468 C1465 1.499 . S
C1468 C1469 1.373 . S
C1468 C1470 1.389 1_554 S
C1469 H1448 0.950 . S
C1469 C1468 1.373 . S
C1469 C1485 1.377 . S
C1470 C1468 1.389 1_556 S
C1470 C1471 1.524 . S
C1470 C1484 1.377 . S
C1471 C1470 1.524 . S
C1471 C1472 1.397 . S
C1471 C1476 1.363 . S
C1472 H1449 0.950 . S
C1472 C1471 1.397 . S
C1472 C1473 1.334 . S
C1473 H1450 0.950 . S
C1473 C1472 1.334 . S
C1473 C1474 1.287 . S
C1474 C1473 1.287 . S
C1474 C1475 1.524 . S
C1474 H1493 0.913 . S
C1475 H1451 0.950 . S
C1475 C1474 1.524 . S
C1475 C1476 1.415 . S
C1476 H1452 0.950 . S
C1476 C1471 1.363 . S
C1476 C1475 1.415 . S
C1477 H1453 0.951 . S
C1477 C1478 1.366 . S
C1477 C1479 1.388 . S
C1478 C1477 1.366 . S
C1478 C1482 1.385 . S
C1479 H1454 0.951 . S
C1479 C1477 1.388 . S
C1479 C1480 1.366 . S
C1480 C1479 1.366 . S
C1480 C1481 1.414 . S
C1480 C1483 1.499 . S
C1481 H1455 0.950 . S
C1481 C1480 1.414 . S
C1481 C1482 1.374 . S
C1482 H1456 0.950 . S
C1482 C1478 1.385 . S
C1482 C1481 1.374 . S
C1483 C1480 1.499 . S
C1483 C1484 1.373 1_554 S
C1483 C1485 1.389 . S
C1484 H1457 0.950 . S
C1484 C1470 1.377 . S
C1484 C1483 1.373 1_556 S
C1485 C1469 1.377 . S
C1485 C1483 1.389 . S
C1485 C1486 1.524 . S
C1486 C1485 1.524 . S
C1486 C1487 1.397 . S
C1486 C1491 1.363 . S
C1487 H1458 0.950 . S
C1487 C1486 1.397 . S
C1487 C1488 1.334 . S
C1488 H1459 0.950 . S
C1488 C1487 1.334 . S
C1488 C1489 1.287 . S
C1489 C1488 1.287 . S
C1489 C1490 1.524 . S
C1489 H1492 0.999 . S
C1490 H1460 0.950 . S
C1490 C1489 1.524 . S
C1490 C1491 1.415 . S
C1491 H1461 0.950 . S
C1491 C1486 1.363 . S
C1491 C1490 1.415 . S
H1492 C1489 0.999 . S
H1493 C1474 0.913 . S
H1494 C1512 0.951 . S
H1495 C1514 0.951 . S
H1496 C1516 0.950 . S
H1497 C1517 0.950 . S
H1498 C1519 0.950 . S
H1499 C1522 0.950 . S
H1500 C1523 0.950 . S
H1501 C1525 0.950 . S
H1502 C1526 0.950 . S
H1503 C1527 0.951 . S
H1504 C1529 0.951 . S
H1505 C1531 0.950 . S
H1506 C1532 0.950 . S
H1507 C1534 0.950 . S
H1508 C1537 0.950 1_554 S
H1509 C1538 0.950 . S
H1510 C1540 0.950 . S
H1511 C1541 0.950 . S
C1512 H1494 0.951 . S
C1512 C1513 1.366 . S
C1512 C1514 1.388 . S
C1513 C1512 1.366 . S
C1513 C1517 1.385 1_554 S
C1514 H1495 0.951 . S
C1514 C1512 1.388 . S
C1514 C1515 1.366 . S
C1515 C1514 1.366 . S
C1515 C1516 1.414 1_554 S
C1515 C1518 1.499 . S
C1516 H1496 0.950 . S
C1516 C1515 1.414 1_556 S
C1516 C1517 1.374 . S
C1517 H1497 0.950 . S
C1517 C1513 1.385 1_556 S
C1517 C1516 1.374 . S
C1518 C1515 1.499 . S
C1518 C1519 1.373 1_554 S
C1518 C1520 1.389 . S
C1519 H1498 0.950 . S
C1519 C1518 1.373 1_556 S
C1519 C1535 1.377 . S
C1520 C1518 1.389 . S
C1520 C1521 1.524 . S
C1520 C1534 1.377 . S
C1521 C1520 1.524 . S
C1521 C1522 1.397 . S
C1521 C1526 1.363 . S
C1522 H1499 0.950 . S
C1522 C1521 1.397 . S
C1522 C1523 1.334 . S
C1523 H1500 0.950 . S
C1523 C1522 1.334 . S
C1523 C1524 1.287 . S
C1524 C1523 1.287 . S
C1524 C1525 1.524 . S
C1524 H1543 0.913 . S
C1525 H1501 0.950 . S
C1525 C1524 1.524 . S
C1525 C1526 1.415 . S
C1526 H1502 0.950 . S
C1526 C1521 1.363 . S
C1526 C1525 1.415 . S
C1527 H1503 0.951 . S
C1527 C1528 1.366 1_556 S
C1527 C1529 1.388 . S
C1528 C1527 1.366 1_554 S
C1528 C1532 1.385 . S
C1529 H1504 0.951 . S
C1529 C1527 1.388 . S
C1529 C1530 1.366 1_556 S
C1530 C1529 1.366 1_554 S
C1530 C1531 1.414 . S
C1530 C1533 1.499 . S
C1531 H1505 0.950 . S
C1531 C1530 1.414 . S
C1531 C1532 1.374 . S
C1532 H1506 0.950 . S
C1532 C1528 1.385 . S
C1532 C1531 1.374 . S
C1533 C1530 1.499 . S
C1533 C1534 1.373 . S
C1533 C1535 1.389 1_554 S
C1534 H1507 0.950 . S
C1534 C1520 1.377 . S
C1534 C1533 1.373 . S
C1535 C1519 1.377 . S
C1535 C1533 1.389 1_556 S
C1535 C1536 1.524 . S
C1536 C1535 1.524 . S
C1536 C1537 1.397 . S
C1536 C1541 1.363 . S
C1537 H1508 0.950 1_556 S
C1537 C1536 1.397 . S
C1537 C1538 1.334 . S
C1538 H1509 0.950 . S
C1538 C1537 1.334 . S
C1538 C1539 1.287 . S
C1539 C1538 1.287 . S
C1539 C1540 1.524 . S
C1539 H1542 0.999 . S
C1540 H1510 0.950 . S
C1540 C1539 1.524 . S
C1540 C1541 1.415 . S
C1541 H1511 0.950 . S
C1541 C1536 1.363 . S
C1541 C1540 1.415 . S
H1542 C1539 0.999 . S
H1543 C1524 0.913 . S
H1544 C1562 0.951 . S
H1545 C1564 0.951 . S
H1546 C1566 0.950 . S
H1547 C1567 0.950 . S
H1548 C1569 0.950 . S
H1549 C1572 0.950 . S
H1550 C1573 0.950 . S
H1551 C1575 0.950 . S
H1552 C1576 0.950 . S
H1553 C1577 0.951 . S
H1554 C1579 0.951 . S
H1555 C1581 0.950 . S
H1556 C1582 0.950 . S
H1557 C1584 0.950 . S
H1558 C1587 0.950 . S
H1559 C1588 0.950 . S
H1560 C1590 0.950 . S
H1561 C1591 0.950 . S
C1562 H1544 0.951 . S
C1562 C1563 1.366 . S
C1562 C1564 1.388 . S
C1563 C1562 1.366 . S
C1563 C1567 1.385 . S
C1564 H1545 0.951 . S
C1564 C1562 1.388 . S
C1564 C1565 1.366 . S
C1565 C1564 1.366 . S
C1565 C1566 1.414 . S
C1565 C1568 1.499 . S
C1566 H1546 0.950 . S
C1566 C1565 1.414 . S
C1566 C1567 1.374 . S
C1567 H1547 0.950 . S
C1567 C1563 1.385 . S
C1567 C1566 1.374 . S
C1568 C1565 1.499 . S
C1568 C1569 1.373 . S
C1568 C1570 1.389 . S
C1569 H1548 0.950 . S
C1569 C1568 1.373 . S
C1569 C1585 1.377 . S
C1570 C1568 1.389 . S
C1570 C1571 1.524 . S
C1570 C1584 1.377 . S
C1571 C1570 1.524 . S
C1571 C1572 1.397 . S
C1571 C1576 1.363 . S
C1572 H1549 0.950 . S
C1572 C1571 1.397 . S
C1572 C1573 1.334 . S
C1573 H1550 0.950 . S
C1573 C1572 1.334 . S
C1573 C1574 1.287 . S
C1574 C1573 1.287 . S
C1574 C1575 1.524 . S
C1574 H1593 0.913 . S
C1575 H1551 0.950 . S
C1575 C1574 1.524 . S
C1575 C1576 1.415 . S
C1576 H1552 0.950 . S
C1576 C1571 1.363 . S
C1576 C1575 1.415 . S
C1577 H1553 0.951 . S
C1577 C1578 1.366 . S
C1577 C1579 1.388 . S
C1578 C1577 1.366 . S
C1578 C1582 1.385 . S
C1579 H1554 0.951 . S
C1579 C1577 1.388 . S
C1579 C1580 1.366 . S
C1580 C1579 1.366 . S
C1580 C1581 1.414 . S
C1580 C1583 1.499 . S
C1581 H1555 0.950 . S
C1581 C1580 1.414 . S
C1581 C1582 1.374 . S
C1582 H1556 0.950 . S
C1582 C1578 1.385 . S
C1582 C1581 1.374 . S
C1583 C1580 1.499 . S
C1583 C1584 1.373 . S
C1583 C1585 1.389 . S
C1584 H1557 0.950 . S
C1584 C1570 1.377 . S
C1584 C1583 1.373 . S
C1585 C1569 1.377 . S
C1585 C1583 1.389 . S
C1585 C1586 1.524 . S
C1586 C1585 1.524 . S
C1586 C1587 1.397 . S
C1586 C1591 1.363 . S
C1587 H1558 0.950 . S
C1587 C1586 1.397 . S
C1587 C1588 1.334 . S
C1588 H1559 0.950 . S
C1588 C1587 1.334 . S
C1588 C1589 1.287 . S
C1589 C1588 1.287 . S
C1589 C1590 1.524 . S
C1589 H1592 0.999 . S
C1590 H1560 0.950 . S
C1590 C1589 1.524 . S
C1590 C1591 1.415 . S
C1591 H1561 0.950 . S
C1591 C1586 1.363 . S
C1591 C1590 1.415 . S
H1592 C1589 0.999 . S
H1593 C1574 0.913 . S
H1594 C1612 0.951 . S
H1595 C1614 0.951 . S
H1596 C1616 0.950 . S
H1597 C1617 0.950 . S
H1598 C1619 0.950 . S
H1599 C1622 0.950 . S
H1600 C1623 0.950 . S
H1601 C1625 0.950 . S
H1602 C1626 0.950 . S
H1603 C1627 0.951 . S
H1604 C1629 0.951 . S
H1605 C1631 0.950 . S
H1606 C1632 0.950 . S
H1607 C1634 0.950 . S
H1608 C1637 0.950 . S
H1609 C1638 0.950 . S
H1610 C1640 0.950 . S
H1611 C1641 0.950 . S
C1612 H1594 0.951 . S
C1612 C1613 1.366 . S
C1612 C1614 1.388 . S
C1613 C1612 1.366 . S
C1613 C1617 1.385 . S
C1614 H1595 0.951 . S
C1614 C1612 1.388 . S
C1614 C1615 1.366 . S
C1615 C1614 1.366 . S
C1615 C1616 1.414 . S
C1615 C1618 1.499 . S
C1616 H1596 0.950 . S
C1616 C1615 1.414 . S
C1616 C1617 1.374 . S
C1617 H1597 0.950 . S
C1617 C1613 1.385 . S
C1617 C1616 1.374 . S
C1618 C1615 1.499 . S
C1618 C1619 1.373 . S
C1618 C1620 1.389 . S
C1619 H1598 0.950 . S
C1619 C1618 1.373 . S
C1619 C1635 1.377 . S
C1620 C1618 1.389 . S
C1620 C1621 1.524 . S
C1620 C1634 1.377 . S
C1621 C1620 1.524 . S
C1621 C1622 1.397 . S
C1621 C1626 1.363 . S
C1622 H1599 0.950 . S
C1622 C1621 1.397 . S
C1622 C1623 1.334 . S
C1623 H1600 0.950 . S
C1623 C1622 1.334 . S
C1623 C1624 1.287 . S
C1624 C1623 1.287 . S
C1624 C1625 1.524 . S
C1624 H1643 0.913 . S
C1625 H1601 0.950 . S
C1625 C1624 1.524 . S
C1625 C1626 1.415 . S
C1626 H1602 0.950 . S
C1626 C1621 1.363 . S
C1626 C1625 1.415 . S
C1627 H1603 0.951 . S
C1627 C1628 1.366 . S
C1627 C1629 1.388 . S
C1628 C1627 1.366 . S
C1628 C1632 1.385 . S
C1629 H1604 0.951 . S
C1629 C1627 1.388 . S
C1629 C1630 1.366 . S
C1630 C1629 1.366 . S
C1630 C1631 1.414 . S
C1630 C1633 1.499 . S
C1631 H1605 0.950 . S
C1631 C1630 1.414 . S
C1631 C1632 1.374 . S
C1632 H1606 0.950 . S
C1632 C1628 1.385 . S
C1632 C1631 1.374 . S
C1633 C1630 1.499 . S
C1633 C1634 1.373 . S
C1633 C1635 1.389 . S
C1634 H1607 0.950 . S
C1634 C1620 1.377 . S
C1634 C1633 1.373 . S
C1635 C1619 1.377 . S
C1635 C1633 1.389 . S
C1635 C1636 1.524 . S
C1636 C1635 1.524 . S
C1636 C1637 1.397 . S
C1636 C1641 1.363 . S
C1637 H1608 0.950 . S
C1637 C1636 1.397 . S
C1637 C1638 1.334 . S
C1638 H1609 0.950 . S
C1638 C1637 1.334 . S
C1638 C1639 1.287 . S
C1639 C1638 1.287 . S
C1639 C1640 1.524 . S
C1639 H1642 0.999 . S
C1640 H1610 0.950 . S
C1640 C1639 1.524 . S
C1640 C1641 1.415 . S
C1641 H1611 0.950 . S
C1641 C1636 1.363 . S
C1641 C1640 1.415 . S
H1642 C1639 0.999 . S
H1643 C1624 0.913 . S
H1644 C1662 0.951 . S
H1645 C1664 0.951 . S
H1646 C1666 0.950 . S
H1647 C1667 0.950 . S
H1648 C1669 0.950 . S
H1649 C1672 0.950 . S
H1650 C1673 0.950 . S
H1651 C1675 0.950 . S
H1652 C1676 0.950 . S
H1653 C1677 0.951 . S
H1654 C1679 0.951 . S
H1655 C1681 0.950 . S
H1656 C1682 0.950 . S
H1657 C1684 0.950 . S
H1658 C1687 0.950 . S
H1659 C1688 0.950 . S
H1660 C1690 0.950 . S
H1661 C1691 0.950 . S
C1662 H1644 0.951 . S
C1662 C1663 1.366 . S
C1662 C1664 1.388 . S
C1663 C1662 1.366 . S
C1663 C1667 1.385 . S
C1664 H1645 0.951 . S
C1664 C1662 1.388 . S
C1664 C1665 1.366 . S
C1665 C1664 1.366 . S
C1665 C1666 1.414 . S
C1665 C1668 1.499 . S
C1666 H1646 0.950 . S
C1666 C1665 1.414 . S
C1666 C1667 1.374 . S
C1667 H1647 0.950 . S
C1667 C1663 1.385 . S
C1667 C1666 1.374 . S
C1668 C1665 1.499 . S
C1668 C1669 1.373 . S
C1668 C1670 1.389 . S
C1669 H1648 0.950 . S
C1669 C1668 1.373 . S
C1669 C1685 1.377 . S
C1670 C1668 1.389 . S
C1670 C1671 1.524 . S
C1670 C1684 1.377 . S
C1671 C1670 1.524 . S
C1671 C1672 1.397 . S
C1671 C1676 1.363 . S
C1672 H1649 0.950 . S
C1672 C1671 1.397 . S
C1672 C1673 1.334 . S
C1673 H1650 0.950 . S
C1673 C1672 1.334 . S
C1673 C1674 1.287 . S
C1674 C1673 1.287 . S
C1674 C1675 1.524 . S
C1674 H1693 0.913 . S
C1675 H1651 0.950 . S
C1675 C1674 1.524 . S
C1675 C1676 1.415 . S
C1676 H1652 0.950 . S
C1676 C1671 1.363 . S
C1676 C1675 1.415 . S
C1677 H1653 0.951 . S
C1677 C1678 1.366 . S
C1677 C1679 1.388 . S
C1678 C1677 1.366 . S
C1678 C1682 1.385 . S
C1679 H1654 0.951 . S
C1679 C1677 1.388 . S
C1679 C1680 1.366 . S
C1680 C1679 1.366 . S
C1680 C1681 1.414 . S
C1680 C1683 1.499 . S
C1681 H1655 0.950 . S
C1681 C1680 1.414 . S
C1681 C1682 1.374 . S
C1682 H1656 0.950 . S
C1682 C1678 1.385 . S
C1682 C1681 1.374 . S
C1683 C1680 1.499 . S
C1683 C1684 1.373 . S
C1683 C1685 1.389 . S
C1684 H1657 0.950 . S
C1684 C1670 1.377 . S
C1684 C1683 1.373 . S
C1685 C1669 1.377 . S
C1685 C1683 1.389 . S
C1685 C1686 1.524 . S
C1686 C1685 1.524 . S
C1686 C1687 1.397 . S
C1686 C1691 1.363 . S
C1687 H1658 0.950 . S
C1687 C1686 1.397 . S
C1687 C1688 1.334 . S
C1688 H1659 0.950 . S
C1688 C1687 1.334 . S
C1688 C1689 1.287 . S
C1689 C1688 1.287 . S
C1689 C1690 1.524 . S
C1689 H1692 0.999 . S
C1690 H1660 0.950 . S
C1690 C1689 1.524 . S
C1690 C1691 1.415 . S
C1691 H1661 0.950 . S
C1691 C1686 1.363 . S
C1691 C1690 1.415 . S
H1692 C1689 0.999 . S
H1693 C1674 0.913 . S
H1694 C1712 0.951 . S
H1695 C1714 0.951 . S
H1696 C1716 0.950 . S
H1697 C1717 0.950 . S
H1698 C1719 0.950 . S
H1699 C1722 0.950 . S
H1700 C1723 0.950 . S
H1701 C1725 0.950 . S
H1702 C1726 0.950 . S
H1703 C1727 0.951 . S
H1704 C1729 0.951 . S
H1705 C1731 0.950 . S
H1706 C1732 0.950 . S
H1707 C1734 0.950 . S
H1708 C1737 0.950 . S
H1709 C1738 0.950 . S
H1710 C1740 0.950 . S
H1711 C1741 0.950 . S
C1712 H1694 0.951 . S
C1712 C1713 1.366 . S
C1712 C1714 1.388 . S
C1713 C1712 1.366 . S
C1713 C1717 1.385 . S
C1714 H1695 0.951 . S
C1714 C1712 1.388 . S
C1714 C1715 1.366 . S
C1715 C1714 1.366 . S
C1715 C1716 1.414 . S
C1715 C1718 1.499 . S
C1716 H1696 0.950 . S
C1716 C1715 1.414 . S
C1716 C1717 1.374 . S
C1717 H1697 0.950 . S
C1717 C1713 1.385 . S
C1717 C1716 1.374 . S
C1718 C1715 1.499 . S
C1718 C1719 1.373 . S
C1718 C1720 1.389 . S
C1719 H1698 0.950 . S
C1719 C1718 1.373 . S
C1719 C1735 1.377 . S
C1720 C1718 1.389 . S
C1720 C1721 1.524 . S
C1720 C1734 1.377 . S
C1721 C1720 1.524 . S
C1721 C1722 1.397 . S
C1721 C1726 1.363 . S
C1722 H1699 0.950 . S
C1722 C1721 1.397 . S
C1722 C1723 1.334 . S
C1723 H1700 0.950 . S
C1723 C1722 1.334 . S
C1723 C1724 1.287 . S
C1724 C1723 1.287 . S
C1724 C1725 1.524 . S
C1724 H1743 0.913 . S
C1725 H1701 0.950 . S
C1725 C1724 1.524 . S
C1725 C1726 1.415 . S
C1726 H1702 0.950 . S
C1726 C1721 1.363 . S
C1726 C1725 1.415 . S
C1727 H1703 0.951 . S
C1727 C1728 1.366 . S
C1727 C1729 1.388 . S
C1728 C1727 1.366 . S
C1728 C1732 1.385 . S
C1729 H1704 0.951 . S
C1729 C1727 1.388 . S
C1729 C1730 1.366 . S
C1730 C1729 1.366 . S
C1730 C1731 1.414 . S
C1730 C1733 1.499 . S
C1731 H1705 0.950 . S
C1731 C1730 1.414 . S
C1731 C1732 1.374 . S
C1732 H1706 0.950 . S
C1732 C1728 1.385 . S
C1732 C1731 1.374 . S
C1733 C1730 1.499 . S
C1733 C1734 1.373 . S
C1733 C1735 1.389 . S
C1734 H1707 0.950 . S
C1734 C1720 1.377 . S
C1734 C1733 1.373 . S
C1735 C1719 1.377 . S
C1735 C1733 1.389 . S
C1735 C1736 1.524 . S
C1736 C1735 1.524 . S
C1736 C1737 1.397 . S
C1736 C1741 1.363 . S
C1737 H1708 0.950 . S
C1737 C1736 1.397 . S
C1737 C1738 1.334 . S
C1738 H1709 0.950 . S
C1738 C1737 1.334 . S
C1738 C1739 1.287 . S
C1739 C1738 1.287 . S
C1739 C1740 1.524 . S
C1739 H1742 0.999 . S
C1740 H1710 0.950 . S
C1740 C1739 1.524 . S
C1740 C1741 1.415 . S
C1741 H1711 0.950 . S
C1741 C1736 1.363 . S
C1741 C1740 1.415 . S
H1742 C1739 0.999 . S
H1743 C1724 0.913 . S
H1744 C1762 0.951 . S
H1745 C1764 0.951 . S
H1746 C1766 0.950 . S
H1747 C1767 0.950 . S
H1748 C1769 0.950 . S
H1749 C1772 0.950 . S
H1750 C1773 0.950 . S
H1751 C1775 0.950 . S
H1752 C1776 0.950 . S
H1753 C1777 0.951 . S
H1754 C1779 0.951 . S
H1755 C1781 0.950 . S
H1756 C1782 0.950 . S
H1757 C1784 0.950 . S
H1758 C1787 0.950 . S
H1759 C1788 0.950 . S
H1760 C1790 0.950 . S
H1761 C1791 0.950 . S
C1762 H1744 0.951 . S
C1762 C1763 1.366 . S
C1762 C1764 1.388 . S
C1763 C1762 1.366 . S
C1763 C1767 1.385 . S
C1764 H1745 0.951 . S
C1764 C1762 1.388 . S
C1764 C1765 1.366 . S
C1765 C1764 1.366 . S
C1765 C1766 1.414 . S
C1765 C1768 1.499 . S
C1766 H1746 0.950 . S
C1766 C1765 1.414 . S
C1766 C1767 1.374 . S
C1767 H1747 0.950 . S
C1767 C1763 1.385 . S
C1767 C1766 1.374 . S
C1768 C1765 1.499 . S
C1768 C1769 1.373 . S
C1768 C1770 1.389 . S
C1769 H1748 0.950 . S
C1769 C1768 1.373 . S
C1769 C1785 1.377 . S
C1770 C1768 1.389 . S
C1770 C1771 1.524 . S
C1770 C1784 1.377 . S
C1771 C1770 1.524 . S
C1771 C1772 1.397 . S
C1771 C1776 1.363 . S
C1772 H1749 0.950 . S
C1772 C1771 1.397 . S
C1772 C1773 1.334 . S
C1773 H1750 0.950 . S
C1773 C1772 1.334 . S
C1773 C1774 1.287 . S
C1774 C1773 1.287 . S
C1774 C1775 1.524 . S
C1774 H1793 0.913 . S
C1775 H1751 0.950 . S
C1775 C1774 1.524 . S
C1775 C1776 1.415 . S
C1776 H1752 0.950 . S
C1776 C1771 1.363 . S
C1776 C1775 1.415 . S
C1777 H1753 0.951 . S
C1777 C1778 1.366 . S
C1777 C1779 1.388 . S
C1778 C1777 1.366 . S
C1778 C1782 1.385 . S
C1779 H1754 0.951 . S
C1779 C1777 1.388 . S
C1779 C1780 1.366 . S
C1780 C1779 1.366 . S
C1780 C1781 1.414 . S
C1780 C1783 1.499 . S
C1781 H1755 0.950 . S
C1781 C1780 1.414 . S
C1781 C1782 1.374 . S
C1782 H1756 0.950 . S
C1782 C1778 1.385 . S
C1782 C1781 1.374 . S
C1783 C1780 1.499 . S
C1783 C1784 1.373 . S
C1783 C1785 1.389 . S
C1784 H1757 0.950 . S
C1784 C1770 1.377 . S
C1784 C1783 1.373 . S
C1785 C1769 1.377 . S
C1785 C1783 1.389 . S
C1785 C1786 1.524 . S
C1786 C1785 1.524 . S
C1786 C1787 1.397 . S
C1786 C1791 1.363 . S
C1787 H1758 0.950 . S
C1787 C1786 1.397 . S
C1787 C1788 1.334 . S
C1788 H1759 0.950 . S
C1788 C1787 1.334 . S
C1788 C1789 1.287 . S
C1789 C1788 1.287 . S
C1789 C1790 1.524 . S
C1789 H1792 0.999 . S
C1790 H1760 0.950 . S
C1790 C1789 1.524 . S
C1790 C1791 1.415 . S
C1791 H1761 0.950 . S
C1791 C1786 1.363 . S
C1791 C1790 1.415 . S
H1792 C1789 0.999 . S
H1793 C1774 0.913 . S
H1794 C1812 0.951 . S
H1795 C1814 0.951 . S
H1796 C1816 0.950 . S
H1797 C1817 0.950 . S
H1798 C1819 0.950 . S
H1799 C1822 0.950 . S
H1800 C1823 0.950 . S
H1801 C1825 0.950 . S
H1802 C1826 0.950 . S
H1803 C1827 0.951 . S
H1804 C1829 0.951 . S
H1805 C1831 0.950 . S
H1806 C1832 0.950 . S
H1807 C1834 0.950 . S
H1808 C1837 0.950 . S
H1809 C1838 0.950 . S
H1810 C1840 0.950 . S
H1811 C1841 0.950 . S
C1812 H1794 0.951 . S
C1812 C1813 1.366 . S
C1812 C1814 1.388 . S
C1813 C1812 1.366 . S
C1813 C1817 1.385 . S
C1814 H1795 0.951 . S
C1814 C1812 1.388 . S
C1814 C1815 1.366 . S
C1815 C1814 1.366 . S
C1815 C1816 1.414 . S
C1815 C1818 1.499 . S
C1816 H1796 0.950 . S
C1816 C1815 1.414 . S
C1816 C1817 1.374 . S
C1817 H1797 0.950 . S
C1817 C1813 1.385 . S
C1817 C1816 1.374 . S
C1818 C1815 1.499 . S
C1818 C1819 1.373 . S
C1818 C1820 1.389 . S
C1819 H1798 0.950 . S
C1819 C1818 1.373 . S
C1819 C1835 1.377 . S
C1820 C1818 1.389 . S
C1820 C1821 1.524 . S
C1820 C1834 1.377 . S
C1821 C1820 1.524 . S
C1821 C1822 1.397 . S
C1821 C1826 1.363 . S
C1822 H1799 0.950 . S
C1822 C1821 1.397 . S
C1822 C1823 1.334 . S
C1823 H1800 0.950 . S
C1823 C1822 1.334 . S
C1823 C1824 1.287 . S
C1824 C1823 1.287 . S
C1824 C1825 1.524 . S
C1824 H1843 0.913 . S
C1825 H1801 0.950 . S
C1825 C1824 1.524 . S
C1825 C1826 1.415 . S
C1826 H1802 0.950 . S
C1826 C1821 1.363 . S
C1826 C1825 1.415 . S
C1827 H1803 0.951 . S
C1827 C1828 1.366 . S
C1827 C1829 1.388 . S
C1828 C1827 1.366 . S
C1828 C1832 1.385 . S
C1829 H1804 0.951 . S
C1829 C1827 1.388 . S
C1829 C1830 1.366 . S
C1830 C1829 1.366 . S
C1830 C1831 1.414 . S
C1830 C1833 1.499 . S
C1831 H1805 0.950 . S
C1831 C1830 1.414 . S
C1831 C1832 1.374 . S
C1832 H1806 0.950 . S
C1832 C1828 1.385 . S
C1832 C1831 1.374 . S
C1833 C1830 1.499 . S
C1833 C1834 1.373 . S
C1833 C1835 1.389 . S
C1834 H1807 0.950 . S
C1834 C1820 1.377 . S
C1834 C1833 1.373 . S
C1835 C1819 1.377 . S
C1835 C1833 1.389 . S
C1835 C1836 1.524 . S
C1836 C1835 1.524 . S
C1836 C1837 1.397 . S
C1836 C1841 1.363 . S
C1837 H1808 0.950 . S
C1837 C1836 1.397 . S
C1837 C1838 1.334 . S
C1838 H1809 0.950 . S
C1838 C1837 1.334 . S
C1838 C1839 1.287 . S
C1839 C1838 1.287 . S
C1839 C1840 1.524 . S
C1839 H1842 0.999 . S
C1840 H1810 0.950 . S
C1840 C1839 1.524 . S
C1840 C1841 1.415 . S
C1841 H1811 0.950 . S
C1841 C1836 1.363 . S
C1841 C1840 1.415 . S
H1842 C1839 0.999 . S
H1843 C1824 0.913 . S
H1844 C1862 0.951 . S
H1845 C1864 0.951 . S
H1846 C1866 0.950 . S
H1847 C1867 0.950 . S
H1848 C1869 0.950 . S
H1849 C1872 0.950 . S
H1850 C1873 0.950 . S
H1851 C1875 0.950 . S
H1852 C1876 0.950 . S
H1853 C1877 0.951 . S
H1854 C1879 0.951 . S
H1855 C1881 0.950 . S
H1856 C1882 0.950 . S
H1857 C1884 0.950 . S
H1858 C1887 0.950 . S
H1859 C1888 0.950 . S
H1860 C1890 0.950 . S
H1861 C1891 0.950 . S
C1862 H1844 0.951 . S
C1862 C1863 1.366 . S
C1862 C1864 1.388 . S
C1863 C1862 1.366 . S
C1863 C1867 1.385 . S
C1864 H1845 0.951 . S
C1864 C1862 1.388 . S
C1864 C1865 1.366 . S
C1865 C1864 1.366 . S
C1865 C1866 1.414 . S
C1865 C1868 1.499 . S
C1866 H1846 0.950 . S
C1866 C1865 1.414 . S
C1866 C1867 1.374 . S
C1867 H1847 0.950 . S
C1867 C1863 1.385 . S
C1867 C1866 1.374 . S
C1868 C1865 1.499 . S
C1868 C1869 1.373 . S
C1868 C1870 1.389 . S
C1869 H1848 0.950 . S
C1869 C1868 1.373 . S
C1869 C1885 1.377 . S
C1870 C1868 1.389 . S
C1870 C1871 1.524 . S
C1870 C1884 1.377 . S
C1871 C1870 1.524 . S
C1871 C1872 1.397 . S
C1871 C1876 1.363 . S
C1872 H1849 0.950 . S
C1872 C1871 1.397 . S
C1872 C1873 1.334 . S
C1873 H1850 0.950 . S
C1873 C1872 1.334 . S
C1873 C1874 1.287 . S
C1874 C1873 1.287 . S
C1874 C1875 1.524 . S
C1874 H1893 0.913 . S
C1875 H1851 0.950 . S
C1875 C1874 1.524 . S
C1875 C1876 1.415 . S
C1876 H1852 0.950 . S
C1876 C1871 1.363 . S
C1876 C1875 1.415 . S
C1877 H1853 0.951 . S
C1877 C1878 1.366 . S
C1877 C1879 1.388 . S
C1878 C1877 1.366 . S
C1878 C1882 1.385 . S
C1879 H1854 0.951 . S
C1879 C1877 1.388 . S
C1879 C1880 1.366 . S
C1880 C1879 1.366 . S
C1880 C1881 1.414 . S
C1880 C1883 1.499 . S
C1881 H1855 0.950 . S
C1881 C1880 1.414 . S
C1881 C1882 1.374 . S
C1882 H1856 0.950 . S
C1882 C1878 1.385 . S
C1882 C1881 1.374 . S
C1883 C1880 1.499 . S
C1883 C1884 1.373 . S
C1883 C1885 1.389 . S
C1884 H1857 0.950 . S
C1884 C1870 1.377 . S
C1884 C1883 1.373 . S
C1885 C1869 1.377 . S
C1885 C1883 1.389 . S
C1885 C1886 1.524 . S
C1886 C1885 1.524 . S
C1886 C1887 1.397 . S
C1886 C1891 1.363 . S
C1887 H1858 0.950 . S
C1887 C1886 1.397 . S
C1887 C1888 1.334 . S
C1888 H1859 0.950 . S
C1888 C1887 1.334 . S
C1888 C1889 1.287 . S
C1889 C1888 1.287 . S
C1889 C1890 1.524 . S
C1889 H1892 0.999 . S
C1890 H1860 0.950 . S
C1890 C1889 1.524 . S
C1890 C1891 1.415 . S
C1891 H1861 0.950 . S
C1891 C1886 1.363 . S
C1891 C1890 1.415 . S
H1892 C1889 0.999 . S
H1893 C1874 0.913 . S
H1894 C1912 0.951 . S
H1895 C1914 0.951 . S
H1896 C1916 0.950 . S
H1897 C1917 0.950 . S
H1898 C1919 0.950 . S
H1899 C1922 0.950 . S
H1900 C1923 0.950 . S
H1901 C1925 0.950 . S
H1902 C1926 0.950 . S
H1903 C1927 0.951 . S
H1904 C1929 0.951 . S
H1905 C1931 0.950 . S
H1906 C1932 0.950 . S
H1907 C1934 0.950 . S
H1908 C1937 0.950 . S
H1909 C1938 0.950 . S
H1910 C1940 0.950 . S
H1911 C1941 0.950 . S
C1912 H1894 0.951 . S
C1912 C1913 1.366 . S
C1912 C1914 1.388 . S
C1913 C1912 1.366 . S
C1913 C1917 1.385 . S
C1914 H1895 0.951 . S
C1914 C1912 1.388 . S
C1914 C1915 1.366 . S
C1915 C1914 1.366 . S
C1915 C1916 1.414 . S
C1915 C1918 1.499 . S
C1916 H1896 0.950 . S
C1916 C1915 1.414 . S
C1916 C1917 1.374 . S
C1917 H1897 0.950 . S
C1917 C1913 1.385 . S
C1917 C1916 1.374 . S
C1918 C1915 1.499 . S
C1918 C1919 1.373 . S
C1918 C1920 1.389 . S
C1919 H1898 0.950 . S
C1919 C1918 1.373 . S
C1919 C1935 1.377 . S
C1920 C1918 1.389 . S
C1920 C1921 1.524 . S
C1920 C1934 1.377 . S
C1921 C1920 1.524 . S
C1921 C1922 1.397 . S
C1921 C1926 1.363 . S
C1922 H1899 0.950 . S
C1922 C1921 1.397 . S
C1922 C1923 1.334 . S
C1923 H1900 0.950 . S
C1923 C1922 1.334 . S
C1923 C1924 1.287 . S
C1924 C1923 1.287 . S
C1924 C1925 1.524 . S
C1924 H1943 0.913 . S
C1925 H1901 0.950 . S
C1925 C1924 1.524 . S
C1925 C1926 1.415 . S
C1926 H1902 0.950 . S
C1926 C1921 1.363 . S
C1926 C1925 1.415 . S
C1927 H1903 0.951 . S
C1927 C1928 1.366 . S
C1927 C1929 1.388 . S
C1928 C1927 1.366 . S
C1928 C1932 1.385 . S
C1929 H1904 0.951 . S
C1929 C1927 1.388 . S
C1929 C1930 1.366 . S
C1930 C1929 1.366 . S
C1930 C1931 1.414 . S
C1930 C1933 1.499 . S
C1931 H1905 0.950 . S
C1931 C1930 1.414 . S
C1931 C1932 1.374 . S
C1932 H1906 0.950 . S
C1932 C1928 1.385 . S
C1932 C1931 1.374 . S
C1933 C1930 1.499 . S
C1933 C1934 1.373 . S
C1933 C1935 1.389 . S
C1934 H1907 0.950 . S
C1934 C1920 1.377 . S
C1934 C1933 1.373 . S
C1935 C1919 1.377 . S
C1935 C1933 1.389 . S
C1935 C1936 1.524 . S
C1936 C1935 1.524 . S
C1936 C1937 1.397 . S
C1936 C1941 1.363 . S
C1937 H1908 0.950 . S
C1937 C1936 1.397 . S
C1937 C1938 1.334 . S
C1938 H1909 0.950 . S
C1938 C1937 1.334 . S
C1938 C1939 1.287 . S
C1939 C1938 1.287 . S
C1939 C1940 1.524 . S
C1939 H1942 0.999 . S
C1940 H1910 0.950 . S
C1940 C1939 1.524 . S
C1940 C1941 1.415 . S
C1941 H1911 0.950 . S
C1941 C1936 1.363 . S
C1941 C1940 1.415 . S
H1942 C1939 0.999 . S
H1943 C1924 0.913 . S
H1944 C1962 0.951 . S
H1945 C1964 0.951 . S
H1946 C1966 0.950 . S
H1947 C1967 0.950 . S
H1948 C1969 0.950 . S
H1949 C1972 0.950 . S
H1950 C1973 0.950 . S
H1951 C1975 0.950 . S
H1952 C1976 0.950 . S
H1953 C1977 0.951 . S
H1954 C1979 0.951 . S
H1955 C1981 0.950 . S
H1956 C1982 0.950 . S
H1957 C1984 0.950 . S
H1958 C1987 0.950 . S
H1959 C1988 0.950 . S
H1960 C1990 0.950 . S
H1961 C1991 0.950 . S
C1962 H1944 0.951 . S
C1962 C1963 1.366 . S
C1962 C1964 1.388 . S
C1963 C1962 1.366 . S
C1963 C1967 1.385 . S
C1964 H1945 0.951 . S
C1964 C1962 1.388 . S
C1964 C1965 1.366 . S
C1965 C1964 1.366 . S
C1965 C1966 1.414 . S
C1965 C1968 1.499 . S
C1966 H1946 0.950 . S
C1966 C1965 1.414 . S
C1966 C1967 1.374 . S
C1967 H1947 0.950 . S
C1967 C1963 1.385 . S
C1967 C1966 1.374 . S
C1968 C1965 1.499 . S
C1968 C1969 1.373 . S
C1968 C1970 1.389 . S
C1969 H1948 0.950 . S
C1969 C1968 1.373 . S
C1969 C1985 1.377 . S
C1970 C1968 1.389 . S
C1970 C1971 1.524 . S
C1970 C1984 1.377 . S
C1971 C1970 1.524 . S
C1971 C1972 1.397 . S
C1971 C1976 1.363 . S
C1972 H1949 0.950 . S
C1972 C1971 1.397 . S
C1972 C1973 1.334 . S
C1973 H1950 0.950 . S
C1973 C1972 1.334 . S
C1973 C1974 1.287 . S
C1974 C1973 1.287 . S
C1974 C1975 1.524 . S
C1974 H1993 0.913 . S
C1975 H1951 0.950 . S
C1975 C1974 1.524 . S
C1975 C1976 1.415 . S
C1976 H1952 0.950 . S
C1976 C1971 1.363 . S
C1976 C1975 1.415 . S
C1977 H1953 0.951 . S
C1977 C1978 1.366 . S
C1977 C1979 1.388 . S
C1978 C1977 1.366 . S
C1978 C1982 1.385 . S
C1979 H1954 0.951 . S
C1979 C1977 1.388 . S
C1979 C1980 1.366 . S
C1980 C1979 1.366 . S
C1980 C1981 1.414 . S
C1980 C1983 1.499 . S
C1981 H1955 0.950 . S
C1981 C1980 1.414 . S
C1981 C1982 1.374 . S
C1982 H1956 0.950 . S
C1982 C1978 1.385 . S
C1982 C1981 1.374 . S
C1983 C1980 1.499 . S
C1983 C1984 1.373 . S
C1983 C1985 1.389 . S
C1984 H1957 0.950 . S
C1984 C1970 1.377 . S
C1984 C1983 1.373 . S
C1985 C1969 1.377 . S
C1985 C1983 1.389 . S
C1985 C1986 1.524 . S
C1986 C1985 1.524 . S
C1986 C1987 1.397 . S
C1986 C1991 1.363 . S
C1987 H1958 0.950 . S
C1987 C1986 1.397 . S
C1987 C1988 1.334 . S
C1988 H1959 0.950 . S
C1988 C1987 1.334 . S
C1988 C1989 1.287 . S
C1989 C1988 1.287 . S
C1989 C1990 1.524 . S
C1989 H1992 0.999 . S
C1990 H1960 0.950 . S
C1990 C1989 1.524 . S
C1990 C1991 1.415 . S
C1991 H1961 0.950 . S
C1991 C1986 1.363 . S
C1991 C1990 1.415 . S
H1992 C1989 0.999 . S
H1993 C1974 0.913 . S
H1994 C2012 0.951 . S
H1995 C2014 0.951 . S
H1996 C2016 0.950 . S
H1997 C2017 0.950 . S
H1998 C2019 0.950 . S
H1999 C2022 0.950 . S
H2000 C2023 0.950 . S
H2001 C2025 0.950 . S
H2002 C2026 0.950 . S
H2003 C2027 0.951 . S
H2004 C2029 0.951 . S
H2005 C2031 0.950 . S
H2006 C2032 0.950 . S
H2007 C2034 0.950 . S
H2008 C2037 0.950 . S
H2009 C2038 0.950 . S
H2010 C2040 0.950 . S
H2011 C2041 0.950 . S
C2012 H1994 0.951 . S
C2012 C2013 1.366 . S
C2012 C2014 1.388 . S
C2013 C2012 1.366 . S
C2013 C2017 1.385 . S
C2014 H1995 0.951 . S
C2014 C2012 1.388 . S
C2014 C2015 1.366 . S
C2015 C2014 1.366 . S
C2015 C2016 1.414 . S
C2015 C2018 1.499 . S
C2016 H1996 0.950 . S
C2016 C2015 1.414 . S
C2016 C2017 1.374 . S
C2017 H1997 0.950 . S
C2017 C2013 1.385 . S
C2017 C2016 1.374 . S
C2018 C2015 1.499 . S
C2018 C2019 1.373 . S
C2018 C2020 1.389 . S
C2019 H1998 0.950 . S
C2019 C2018 1.373 . S
C2019 C2035 1.377 . S
C2020 C2018 1.389 . S
C2020 C2021 1.524 . S
C2020 C2034 1.377 . S
C2021 C2020 1.524 . S
C2021 C2022 1.397 . S
C2021 C2026 1.363 . S
C2022 H1999 0.950 . S
C2022 C2021 1.397 . S
C2022 C2023 1.334 . S
C2023 H2000 0.950 . S
C2023 C2022 1.334 . S
C2023 C2024 1.287 . S
C2024 C2023 1.287 . S
C2024 C2025 1.524 . S
C2024 H2043 0.913 . S
C2025 H2001 0.950 . S
C2025 C2024 1.524 . S
C2025 C2026 1.415 . S
C2026 H2002 0.950 . S
C2026 C2021 1.363 . S
C2026 C2025 1.415 . S
C2027 H2003 0.951 . S
C2027 C2028 1.366 . S
C2027 C2029 1.388 . S
C2028 C2027 1.366 . S
C2028 C2032 1.385 . S
C2029 H2004 0.951 . S
C2029 C2027 1.388 . S
C2029 C2030 1.366 . S
C2030 C2029 1.366 . S
C2030 C2031 1.414 . S
C2030 C2033 1.499 . S
C2031 H2005 0.950 . S
C2031 C2030 1.414 . S
C2031 C2032 1.374 . S
C2032 H2006 0.950 . S
C2032 C2028 1.385 . S
C2032 C2031 1.374 . S
C2033 C2030 1.499 . S
C2033 C2034 1.373 . S
C2033 C2035 1.389 . S
C2034 H2007 0.950 . S
C2034 C2020 1.377 . S
C2034 C2033 1.373 . S
C2035 C2019 1.377 . S
C2035 C2033 1.389 . S
C2035 C2036 1.524 . S
C2036 C2035 1.524 . S
C2036 C2037 1.397 . S
C2036 C2041 1.363 . S
C2037 H2008 0.950 . S
C2037 C2036 1.397 . S
C2037 C2038 1.334 . S
C2038 H2009 0.950 . S
C2038 C2037 1.334 . S
C2038 C2039 1.287 . S
C2039 C2038 1.287 . S
C2039 C2040 1.524 . S
C2039 H2042 0.999 . S
C2040 H2010 0.950 . S
C2040 C2039 1.524 . S
C2040 C2041 1.415 . S
C2041 H2011 0.950 . S
C2041 C2036 1.363 . S
C2041 C2040 1.415 . S
H2042 C2039 0.999 . S
H2043 C2024 0.913 . S
H2044 C2062 0.951 . S
H2045 C2064 0.951 . S
H2046 C2066 0.950 . S
H2047 C2067 0.950 . S
H2048 C2069 0.950 . S
H2049 C2072 0.950 . S
H2050 C2073 0.950 . S
H2051 C2075 0.950 . S
H2052 C2076 0.950 . S
H2053 C2077 0.951 . S
H2054 C2079 0.951 . S
H2055 C2081 0.950 . S
H2056 C2082 0.950 . S
H2057 C2084 0.950 . S
H2058 C2087 0.950 . S
H2059 C2088 0.950 . S
H2060 C2090 0.950 . S
H2061 C2091 0.950 . S
C2062 H2044 0.951 . S
C2062 C2063 1.366 . S
C2062 C2064 1.388 . S
C2063 C2062 1.366 . S
C2063 C2067 1.385 . S
C2064 H2045 0.951 . S
C2064 C2062 1.388 . S
C2064 C2065 1.366 . S
C2065 C2064 1.366 . S
C2065 C2066 1.414 . S
C2065 C2068 1.499 . S
C2066 H2046 0.950 . S
C2066 C2065 1.414 . S
C2066 C2067 1.374 . S
C2067 H2047 0.950 . S
C2067 C2063 1.385 . S
C2067 C2066 1.374 . S
C2068 C2065 1.499 . S
C2068 C2069 1.373 . S
C2068 C2070 1.389 . S
C2069 H2048 0.950 . S
C2069 C2068 1.373 . S
C2069 C2085 1.377 . S
C2070 C2068 1.389 . S
C2070 C2071 1.524 . S
C2070 C2084 1.377 . S
C2071 C2070 1.524 . S
C2071 C2072 1.397 . S
C2071 C2076 1.363 . S
C2072 H2049 0.950 . S
C2072 C2071 1.397 . S
C2072 C2073 1.334 . S
C2073 H2050 0.950 . S
C2073 C2072 1.334 . S
C2073 C2074 1.287 . S
C2074 C2073 1.287 . S
C2074 C2075 1.524 . S
C2074 H2093 0.913 . S
C2075 H2051 0.950 . S
C2075 C2074 1.524 . S
C2075 C2076 1.415 . S
C2076 H2052 0.950 . S
C2076 C2071 1.363 . S
C2076 C2075 1.415 . S
C2077 H2053 0.951 . S
C2077 C2078 1.366 . S
C2077 C2079 1.388 . S
C2078 C2077 1.366 . S
C2078 C2082 1.385 . S
C2079 H2054 0.951 . S
C2079 C2077 1.388 . S
C2079 C2080 1.366 . S
C2080 C2079 1.366 . S
C2080 C2081 1.414 . S
C2080 C2083 1.499 . S
C2081 H2055 0.950 . S
C2081 C2080 1.414 . S
C2081 C2082 1.374 . S
C2082 H2056 0.950 . S
C2082 C2078 1.385 . S
C2082 C2081 1.374 . S
C2083 C2080 1.499 . S
C2083 C2084 1.373 . S
C2083 C2085 1.389 . S
C2084 H2057 0.950 . S
C2084 C2070 1.377 . S
C2084 C2083 1.373 . S
C2085 C2069 1.377 . S
C2085 C2083 1.389 . S
C2085 C2086 1.524 . S
C2086 C2085 1.524 . S
C2086 C2087 1.397 . S
C2086 C2091 1.363 . S
C2087 H2058 0.950 . S
C2087 C2086 1.397 . S
C2087 C2088 1.334 . S
C2088 H2059 0.950 . S
C2088 C2087 1.334 . S
C2088 C2089 1.287 . S
C2089 C2088 1.287 . S
C2089 C2090 1.524 . S
C2089 H2092 0.999 . S
C2090 H2060 0.950 . S
C2090 C2089 1.524 . S
C2090 C2091 1.415 . S
C2091 H2061 0.950 . S
C2091 C2086 1.363 . S
C2091 C2090 1.415 . S
H2092 C2089 0.999 . S
H2093 C2074 0.913 . S
H2094 C2112 0.951 . S
H2095 C2114 0.951 . S
H2096 C2116 0.950 . S
H2097 C2117 0.950 . S
H2098 C2119 0.950 . S
H2099 C2122 0.950 . S
H2100 C2123 0.950 . S
H2101 C2125 0.950 . S
H2102 C2126 0.950 . S
H2103 C2127 0.951 . S
H2104 C2129 0.951 . S
H2105 C2131 0.950 . S
H2106 C2132 0.950 . S
H2107 C2134 0.950 . S
H2108 C2137 0.950 . S
H2109 C2138 0.950 . S
H2110 C2140 0.950 . S
H2111 C2141 0.950 . S
C2112 H2094 0.951 . S
C2112 C2113 1.366 . S
C2112 C2114 1.388 . S
C2113 C2112 1.366 . S
C2113 C2117 1.385 . S
C2114 H2095 0.951 . S
C2114 C2112 1.388 . S
C2114 C2115 1.366 . S
C2115 C2114 1.366 . S
C2115 C2116 1.414 . S
C2115 C2118 1.499 . S
C2116 H2096 0.950 . S
C2116 C2115 1.414 . S
C2116 C2117 1.374 . S
C2117 H2097 0.950 . S
C2117 C2113 1.385 . S
C2117 C2116 1.374 . S
C2118 C2115 1.499 . S
C2118 C2119 1.373 . S
C2118 C2120 1.389 . S
C2119 H2098 0.950 . S
C2119 C2118 1.373 . S
C2119 C2135 1.377 . S
C2120 C2118 1.389 . S
C2120 C2121 1.524 . S
C2120 C2134 1.377 . S
C2121 C2120 1.524 . S
C2121 C2122 1.397 . S
C2121 C2126 1.363 . S
C2122 H2099 0.950 . S
C2122 C2121 1.397 . S
C2122 C2123 1.334 . S
C2123 H2100 0.950 . S
C2123 C2122 1.334 . S
C2123 C2124 1.287 . S
C2124 C2123 1.287 . S
C2124 C2125 1.524 . S
C2124 H2143 0.913 . S
C2125 H2101 0.950 . S
C2125 C2124 1.524 . S
C2125 C2126 1.415 . S
C2126 H2102 0.950 . S
C2126 C2121 1.363 . S
C2126 C2125 1.415 . S
C2127 H2103 0.951 . S
C2127 C2128 1.366 . S
C2127 C2129 1.388 . S
C2128 C2127 1.366 . S
C2128 C2132 1.385 . S
C2129 H2104 0.951 . S
C2129 C2127 1.388 . S
C2129 C2130 1.366 . S
C2130 C2129 1.366 . S
C2130 C2131 1.414 . S
C2130 C2133 1.499 . S
C2131 H2105 0.950 . S
C2131 C2130 1.414 . S
C2131 C2132 1.374 . S
C2132 H2106 0.950 . S
C2132 C2128 1.385 . S
C2132 C2131 1.374 . S
C2133 C2130 1.499 . S
C2133 C2134 1.373 . S
C2133 C2135 1.389 . S
C2134 H2107 0.950 . S
C2134 C2120 1.377 . S
C2134 C2133 1.373 . S
C2135 C2119 1.377 . S
C2135 C2133 1.389 . S
C2135 C2136 1.524 . S
C2136 C2135 1.524 . S
C2136 C2137 1.397 . S
C2136 C2141 1.363 . S
C2137 H2108 0.950 . S
C2137 C2136 1.397 . S
C2137 C2138 1.334 . S
C2138 H2109 0.950 . S
C2138 C2137 1.334 . S
C2138 C2139 1.287 . S
C2139 C2138 1.287 . S
C2139 C2140 1.524 . S
C2139 H2142 0.999 . S
C2140 H2110 0.950 . S
C2140 C2139 1.524 . S
C2140 C2141 1.415 . S
C2141 H2111 0.950 . S
C2141 C2136 1.363 . S
C2141 C2140 1.415 . S
H2142 C2139 0.999 . S
H2143 C2124 0.913 . S
H2144 C2162 0.951 . S
H2145 C2164 0.951 . S
H2146 C2166 0.950 . S
H2147 C2167 0.950 . S
H2148 C2169 0.950 . S
H2149 C2172 0.950 . S
H2150 C2173 0.950 . S
H2151 C2175 0.950 . S
H2152 C2176 0.950 . S
H2153 C2177 0.951 . S
H2154 C2179 0.951 . S
H2155 C2181 0.950 . S
H2156 C2182 0.950 . S
H2157 C2184 0.950 . S
H2158 C2187 0.950 . S
H2159 C2188 0.950 . S
H2160 C2190 0.950 . S
H2161 C2191 0.950 . S
C2162 H2144 0.951 . S
C2162 C2163 1.366 . S
C2162 C2164 1.388 . S
C2163 C2162 1.366 . S
C2163 C2167 1.385 . S
C2164 H2145 0.951 . S
C2164 C2162 1.388 . S
C2164 C2165 1.366 . S
C2165 C2164 1.366 . S
C2165 C2166 1.414 . S
C2165 C2168 1.499 . S
C2166 H2146 0.950 . S
C2166 C2165 1.414 . S
C2166 C2167 1.374 . S
C2167 H2147 0.950 . S
C2167 C2163 1.385 . S
C2167 C2166 1.374 . S
C2168 C2165 1.499 . S
C2168 C2169 1.373 . S
C2168 C2170 1.389 . S
C2169 H2148 0.950 . S
C2169 C2168 1.373 . S
C2169 C2185 1.377 . S
C2170 C2168 1.389 . S
C2170 C2171 1.524 . S
C2170 C2184 1.377 . S
C2171 C2170 1.524 . S
C2171 C2172 1.397 . S
C2171 C2176 1.363 . S
C2172 H2149 0.950 . S
C2172 C2171 1.397 . S
C2172 C2173 1.334 . S
C2173 H2150 0.950 . S
C2173 C2172 1.334 . S
C2173 C2174 1.287 . S
C2174 C2173 1.287 . S
C2174 C2175 1.524 . S
C2174 H2193 0.913 . S
C2175 H2151 0.950 . S
C2175 C2174 1.524 . S
C2175 C2176 1.415 . S
C2176 H2152 0.950 . S
C2176 C2171 1.363 . S
C2176 C2175 1.415 . S
C2177 H2153 0.951 . S
C2177 C2178 1.366 . S
C2177 C2179 1.388 . S
C2178 C2177 1.366 . S
C2178 C2182 1.385 . S
C2179 H2154 0.951 . S
C2179 C2177 1.388 . S
C2179 C2180 1.366 . S
C2180 C2179 1.366 . S
C2180 C2181 1.414 . S
C2180 C2183 1.499 . S
C2181 H2155 0.950 . S
C2181 C2180 1.414 . S
C2181 C2182 1.374 . S
C2182 H2156 0.950 . S
C2182 C2178 1.385 . S
C2182 C2181 1.374 . S
C2183 C2180 1.499 . S
C2183 C2184 1.373 . S
C2183 C2185 1.389 . S
C2184 H2157 0.950 . S
C2184 C2170 1.377 . S
C2184 C2183 1.373 . S
C2185 C2169 1.377 . S
C2185 C2183 1.389 . S
C2185 C2186 1.524 . S
C2186 C2185 1.524 . S
C2186 C2187 1.397 . S
C2186 C2191 1.363 . S
C2187 H2158 0.950 . S
C2187 C2186 1.397 . S
C2187 C2188 1.334 . S
C2188 H2159 0.950 . S
C2188 C2187 1.334 . S
C2188 C2189 1.287 . S
C2189 C2188 1.287 . S
C2189 C2190 1.524 . S
C2189 H2192 0.999 . S
C2190 H2160 0.950 . S
C2190 C2189 1.524 . S
C2190 C2191 1.415 . S
C2191 H2161 0.950 . S
C2191 C2186 1.363 . S
C2191 C2190 1.415 . S
H2192 C2189 0.999 . S
H2193 C2174 0.913 . S
H2194 C2212 0.951 . S
H2195 C2214 0.951 . S
H2196 C2216 0.950 . S
H2197 C2217 0.950 . S
H2198 C2219 0.950 . S
H2199 C2222 0.950 . S
H2200 C2223 0.950 . S
H2201 C2225 0.950 . S
H2202 C2226 0.950 . S
H2203 C2227 0.951 . S
H2204 C2229 0.951 . S
H2205 C2231 0.950 . S
H2206 C2232 0.950 . S
H2207 C2234 0.950 . S
H2208 C2237 0.950 . S
H2209 C2238 0.950 . S
H2210 C2240 0.950 . S
H2211 C2241 0.950 . S
C2212 H2194 0.951 . S
C2212 C2213 1.366 . S
C2212 C2214 1.388 . S
C2213 C2212 1.366 . S
C2213 C2217 1.385 . S
C2214 H2195 0.951 . S
C2214 C2212 1.388 . S
C2214 C2215 1.366 . S
C2215 C2214 1.366 . S
C2215 C2216 1.414 . S
C2215 C2218 1.499 . S
C2216 H2196 0.950 . S
C2216 C2215 1.414 . S
C2216 C2217 1.374 . S
C2217 H2197 0.950 . S
C2217 C2213 1.385 . S
C2217 C2216 1.374 . S
C2218 C2215 1.499 . S
C2218 C2219 1.373 . S
C2218 C2220 1.389 . S
C2219 H2198 0.950 . S
C2219 C2218 1.373 . S
C2219 C2235 1.377 . S
C2220 C2218 1.389 . S
C2220 C2221 1.524 . S
C2220 C2234 1.377 . S
C2221 C2220 1.524 . S
C2221 C2222 1.397 . S
C2221 C2226 1.363 . S
C2222 H2199 0.950 . S
C2222 C2221 1.397 . S
C2222 C2223 1.334 . S
C2223 H2200 0.950 . S
C2223 C2222 1.334 . S
C2223 C2224 1.287 . S
C2224 C2223 1.287 . S
C2224 C2225 1.524 . S
C2224 H2243 0.913 . S
C2225 H2201 0.950 . S
C2225 C2224 1.524 . S
C2225 C2226 1.415 . S
C2226 H2202 0.950 . S
C2226 C2221 1.363 . S
C2226 C2225 1.415 . S
C2227 H2203 0.951 . S
C2227 C2228 1.366 . S
C2227 C2229 1.388 . S
C2228 C2227 1.366 . S
C2228 C2232 1.385 . S
C2229 H2204 0.951 . S
C2229 C2227 1.388 . S
C2229 C2230 1.366 . S
C2230 C2229 1.366 . S
C2230 C2231 1.414 . S
C2230 C2233 1.499 . S
C2231 H2205 0.950 . S
C2231 C2230 1.414 . S
C2231 C2232 1.374 . S
C2232 H2206 0.950 . S
C2232 C2228 1.385 . S
C2232 C2231 1.374 . S
C2233 C2230 1.499 . S
C2233 C2234 1.373 . S
C2233 C2235 1.389 . S
C2234 H2207 0.950 . S
C2234 C2220 1.377 . S
C2234 C2233 1.373 . S
C2235 C2219 1.377 . S
C2235 C2233 1.389 . S
C2235 C2236 1.524 . S
C2236 C2235 1.524 . S
C2236 C2237 1.397 . S
C2236 C2241 1.363 . S
C2237 H2208 0.950 . S
C2237 C2236 1.397 . S
C2237 C2238 1.334 . S
C2238 H2209 0.950 . S
C2238 C2237 1.334 . S
C2238 C2239 1.287 . S
C2239 C2238 1.287 . S
C2239 C2240 1.524 . S
C2239 H2242 0.999 . S
C2240 H2210 0.950 . S
C2240 C2239 1.524 . S
C2240 C2241 1.415 . S
C2241 H2211 0.950 . S
C2241 C2236 1.363 . S
C2241 C2240 1.415 . S
H2242 C2239 0.999 . S
H2243 C2224 0.913 . S
H2244 C2262 0.951 . S
H2245 C2264 0.951 . S
H2246 C2266 0.950 . S
H2247 C2267 0.950 . S
H2248 C2269 0.950 . S
H2249 C2272 0.950 . S
H2250 C2273 0.950 . S
H2251 C2275 0.950 . S
H2252 C2276 0.950 . S
H2253 C2277 0.951 . S
H2254 C2279 0.951 . S
H2255 C2281 0.950 . S
H2256 C2282 0.950 . S
H2257 C2284 0.950 . S
H2258 C2287 0.950 . S
H2259 C2288 0.950 . S
H2260 C2290 0.950 . S
H2261 C2291 0.950 . S
C2262 H2244 0.951 . S
C2262 C2263 1.366 . S
C2262 C2264 1.388 . S
C2263 C2262 1.366 . S
C2263 C2267 1.385 . S
C2264 H2245 0.951 . S
C2264 C2262 1.388 . S
C2264 C2265 1.366 . S
C2265 C2264 1.366 . S
C2265 C2266 1.414 . S
C2265 C2268 1.499 . S
C2266 H2246 0.950 . S
C2266 C2265 1.414 . S
C2266 C2267 1.374 . S
C2267 H2247 0.950 . S
C2267 C2263 1.385 . S
C2267 C2266 1.374 . S
C2268 C2265 1.499 . S
C2268 C2269 1.373 . S
C2268 C2270 1.389 . S
C2269 H2248 0.950 . S
C2269 C2268 1.373 . S
C2269 C2285 1.377 . S
C2270 C2268 1.389 . S
C2270 C2271 1.524 . S
C2270 C2284 1.377 . S
C2271 C2270 1.524 . S
C2271 C2272 1.397 . S
C2271 C2276 1.363 . S
C2272 H2249 0.950 . S
C2272 C2271 1.397 . S
C2272 C2273 1.334 . S
C2273 H2250 0.950 . S
C2273 C2272 1.334 . S
C2273 C2274 1.287 . S
C2274 C2273 1.287 . S
C2274 C2275 1.524 . S
C2274 H2293 0.913 . S
C2275 H2251 0.950 . S
C2275 C2274 1.524 . S
C2275 C2276 1.415 . S
C2276 H2252 0.950 . S
C2276 C2271 1.363 . S
C2276 C2275 1.415 . S
C2277 H2253 0.951 . S
C2277 C2278 1.366 . S
C2277 C2279 1.388 . S
C2278 C2277 1.366 . S
C2278 C2282 1.385 . S
C2279 H2254 0.951 . S
C2279 C2277 1.388 . S
C2279 C2280 1.366 . S
C2280 C2279 1.366 . S
C2280 C2281 1.414 . S
C2280 C2283 1.499 . S
C2281 H2255 0.950 . S
C2281 C2280 1.414 . S
C2281 C2282 1.374 . S
C2282 H2256 0.950 . S
C2282 C2278 1.385 . S
C2282 C2281 1.374 . S
C2283 C2280 1.499 . S
C2283 C2284 1.373 . S
C2283 C2285 1.389 . S
C2284 H2257 0.950 . S
C2284 C2270 1.377 . S
C2284 C2283 1.373 . S
C2285 C2269 1.377 . S
C2285 C2283 1.389 . S
C2285 C2286 1.524 . S
C2286 C2285 1.524 . S
C2286 C2287 1.397 . S
C2286 C2291 1.363 . S
C2287 H2258 0.950 . S
C2287 C2286 1.397 . S
C2287 C2288 1.334 . S
C2288 H2259 0.950 . S
C2288 C2287 1.334 . S
C2288 C2289 1.287 . S
C2289 C2288 1.287 . S
C2289 C2290 1.524 . S
C2289 H2292 0.999 . S
C2290 H2260 0.950 . S
C2290 C2289 1.524 . S
C2290 C2291 1.415 . S
C2291 H2261 0.950 . S
C2291 C2286 1.363 . S
C2291 C2290 1.415 . S
H2292 C2289 0.999 . S
H2293 C2274 0.913 . S
H2294 C2312 0.951 . S
H2295 C2314 0.951 . S
H2296 C2316 0.950 . S
H2297 C2317 0.950 . S
H2298 C2319 0.950 . S
H2299 C2322 0.950 . S
H2300 C2323 0.950 . S
H2301 C2325 0.950 . S
H2302 C2326 0.950 . S
H2303 C2327 0.951 . S
H2304 C2329 0.951 . S
H2305 C2331 0.950 . S
H2306 C2332 0.950 . S
H2307 C2334 0.950 . S
H2308 C2337 0.950 . S
H2309 C2338 0.950 . S
H2310 C2340 0.950 . S
H2311 C2341 0.950 . S
C2312 H2294 0.951 . S
C2312 C2313 1.366 . S
C2312 C2314 1.388 . S
C2313 C2312 1.366 . S
C2313 C2317 1.385 . S
C2314 H2295 0.951 . S
C2314 C2312 1.388 . S
C2314 C2315 1.366 . S
C2315 C2314 1.366 . S
C2315 C2316 1.414 . S
C2315 C2318 1.499 . S
C2316 H2296 0.950 . S
C2316 C2315 1.414 . S
C2316 C2317 1.374 . S
C2317 H2297 0.950 . S
C2317 C2313 1.385 . S
C2317 C2316 1.374 . S
C2318 C2315 1.499 . S
C2318 C2319 1.373 . S
C2318 C2320 1.389 . S
C2319 H2298 0.950 . S
C2319 C2318 1.373 . S
C2319 C2335 1.377 . S
C2320 C2318 1.389 . S
C2320 C2321 1.524 . S
C2320 C2334 1.377 . S
C2321 C2320 1.524 . S
C2321 C2322 1.397 . S
C2321 C2326 1.363 . S
C2322 H2299 0.950 . S
C2322 C2321 1.397 . S
C2322 C2323 1.334 . S
C2323 H2300 0.950 . S
C2323 C2322 1.334 . S
C2323 C2324 1.287 . S
C2324 C2323 1.287 . S
C2324 C2325 1.524 . S
C2324 H2343 0.913 . S
C2325 H2301 0.950 . S
C2325 C2324 1.524 . S
C2325 C2326 1.415 . S
C2326 H2302 0.950 . S
C2326 C2321 1.363 . S
C2326 C2325 1.415 . S
C2327 H2303 0.951 . S
C2327 C2328 1.366 . S
C2327 C2329 1.388 . S
C2328 C2327 1.366 . S
C2328 C2332 1.385 . S
C2329 H2304 0.951 . S
C2329 C2327 1.388 . S
C2329 C2330 1.366 . S
C2330 C2329 1.366 . S
C2330 C2331 1.414 . S
C2330 C2333 1.499 . S
C2331 H2305 0.950 . S
C2331 C2330 1.414 . S
C2331 C2332 1.374 . S
C2332 H2306 0.950 . S
C2332 C2328 1.385 . S
C2332 C2331 1.374 . S
C2333 C2330 1.499 . S
C2333 C2334 1.373 . S
C2333 C2335 1.389 . S
C2334 H2307 0.950 . S
C2334 C2320 1.377 . S
C2334 C2333 1.373 . S
C2335 C2319 1.377 . S
C2335 C2333 1.389 . S
C2335 C2336 1.524 . S
C2336 C2335 1.524 . S
C2336 C2337 1.397 . S
C2336 C2341 1.363 . S
C2337 H2308 0.950 . S
C2337 C2336 1.397 . S
C2337 C2338 1.334 . S
C2338 H2309 0.950 . S
C2338 C2337 1.334 . S
C2338 C2339 1.287 . S
C2339 C2338 1.287 . S
C2339 C2340 1.524 . S
C2339 H2342 0.999 . S
C2340 H2310 0.950 . S
C2340 C2339 1.524 . S
C2340 C2341 1.415 . S
C2341 H2311 0.950 . S
C2341 C2336 1.363 . S
C2341 C2340 1.415 . S
H2342 C2339 0.999 . S
H2343 C2324 0.913 . S
H2344 C2362 0.951 . S
H2345 C2364 0.951 . S
H2346 C2366 0.950 . S
H2347 C2367 0.950 . S
H2348 C2369 0.950 . S
H2349 C2372 0.950 . S
H2350 C2373 0.950 . S
H2351 C2375 0.950 . S
H2352 C2376 0.950 . S
H2353 C2377 0.951 . S
H2354 C2379 0.951 . S
H2355 C2381 0.950 . S
H2356 C2382 0.950 . S
H2357 C2384 0.950 . S
H2358 C2387 0.950 . S
H2359 C2388 0.950 . S
H2360 C2390 0.950 . S
H2361 C2391 0.950 . S
C2362 H2344 0.951 . S
C2362 C2363 1.366 . S
C2362 C2364 1.388 . S
C2363 C2362 1.366 . S
C2363 C2367 1.385 . S
C2364 H2345 0.951 . S
C2364 C2362 1.388 . S
C2364 C2365 1.366 . S
C2365 C2364 1.366 . S
C2365 C2366 1.414 . S
C2365 C2368 1.499 . S
C2366 H2346 0.950 . S
C2366 C2365 1.414 . S
C2366 C2367 1.374 . S
C2367 H2347 0.950 . S
C2367 C2363 1.385 . S
C2367 C2366 1.374 . S
C2368 C2365 1.499 . S
C2368 C2369 1.373 . S
C2368 C2370 1.389 . S
C2369 H2348 0.950 . S
C2369 C2368 1.373 . S
C2369 C2385 1.377 . S
C2370 C2368 1.389 . S
C2370 C2371 1.524 . S
C2370 C2384 1.377 . S
C2371 C2370 1.524 . S
C2371 C2372 1.397 . S
C2371 C2376 1.363 . S
C2372 H2349 0.950 . S
C2372 C2371 1.397 . S
C2372 C2373 1.334 . S
C2373 H2350 0.950 . S
C2373 C2372 1.334 . S
C2373 C2374 1.287 . S
C2374 C2373 1.287 . S
C2374 C2375 1.524 . S
C2374 H2393 0.913 . S
C2375 H2351 0.950 . S
C2375 C2374 1.524 . S
C2375 C2376 1.415 . S
C2376 H2352 0.950 . S
C2376 C2371 1.363 . S
C2376 C2375 1.415 . S
C2377 H2353 0.951 . S
C2377 C2378 1.366 . S
C2377 C2379 1.388 . S
C2378 C2377 1.366 . S
C2378 C2382 1.385 . S
C2379 H2354 0.951 . S
C2379 C2377 1.388 . S
C2379 C2380 1.366 . S
C2380 C2379 1.366 . S
C2380 C2381 1.414 . S
C2380 C2383 1.499 . S
C2381 H2355 0.950 . S
C2381 C2380 1.414 . S
C2381 C2382 1.374 . S
C2382 H2356 0.950 . S
C2382 C2378 1.385 . S
C2382 C2381 1.374 . S
C2383 C2380 1.499 . S
C2383 C2384 1.373 . S
C2383 C2385 1.389 . S
C2384 H2357 0.950 . S
C2384 C2370 1.377 . S
C2384 C2383 1.373 . S
C2385 C2369 1.377 . S
C2385 C2383 1.389 . S
C2385 C2386 1.524 . S
C2386 C2385 1.524 . S
C2386 C2387 1.397 . S
C2386 C2391 1.363 . S
C2387 H2358 0.950 . S
C2387 C2386 1.397 . S
C2387 C2388 1.334 . S
C2388 H2359 0.950 . S
C2388 C2387 1.334 . S
C2388 C2389 1.287 . S
C2389 C2388 1.287 . S
C2389 C2390 1.524 . S
C2389 H2392 0.999 . S
C2390 H2360 0.950 . S
C2390 C2389 1.524 . S
C2390 C2391 1.415 . S
C2391 H2361 0.950 . S
C2391 C2386 1.363 . S
C2391 C2390 1.415 . S
H2392 C2389 0.999 . S
H2393 C2374 0.913 . S
H2394 C2412 0.951 . S
H2395 C2414 0.951 . S
H2396 C2416 0.950 . S
H2397 C2417 0.950 . S
H2398 C2419 0.950 . S
H2399 C2422 0.950 . S
H2400 C2423 0.950 . S
H2401 C2425 0.950 . S
H2402 C2426 0.950 . S
H2403 C2427 0.951 . S
H2404 C2429 0.951 . S
H2405 C2431 0.950 . S
H2406 C2432 0.950 . S
H2407 C2434 0.950 . S
H2408 C2437 0.950 . S
H2409 C2438 0.950 . S
H2410 C2440 0.950 . S
H2411 C2441 0.950 . S
C2412 H2394 0.951 . S
C2412 C2413 1.366 . S
C2412 C2414 1.388 . S
C2413 C2412 1.366 . S
C2413 C2417 1.385 . S
C2414 H2395 0.951 . S
C2414 C2412 1.388 . S
C2414 C2415 1.366 . S
C2415 C2414 1.366 . S
C2415 C2416 1.414 . S
C2415 C2418 1.499 . S
C2416 H2396 0.950 . S
C2416 C2415 1.414 . S
C2416 C2417 1.374 . S
C2417 H2397 0.950 . S
C2417 C2413 1.385 . S
C2417 C2416 1.374 . S
C2418 C2415 1.499 . S
C2418 C2419 1.373 . S
C2418 C2420 1.389 . S
C2419 H2398 0.950 . S
C2419 C2418 1.373 . S
C2419 C2435 1.377 . S
C2420 C2418 1.389 . S
C2420 C2421 1.524 . S
C2420 C2434 1.377 . S
C2421 C2420 1.524 . S
C2421 C2422 1.397 . S
C2421 C2426 1.363 . S
C2422 H2399 0.950 . S
C2422 C2421 1.397 . S
C2422 C2423 1.334 . S
C2423 H2400 0.950 . S
C2423 C2422 1.334 . S
C2423 C2424 1.287 . S
C2424 C2423 1.287 . S
C2424 C2425 1.524 . S
C2424 H2443 0.913 . S
C2425 H2401 0.950 . S
C2425 C2424 1.524 . S
C2425 C2426 1.415 . S
C2426 H2402 0.950 . S
C2426 C2421 1.363 . S
C2426 C2425 1.415 . S
C2427 H2403 0.951 . S
C2427 C2428 1.366 . S
C2427 C2429 1.388 . S
C2428 C2427 1.366 . S
C2428 C2432 1.385 . S
C2429 H2404 0.951 . S
C2429 C2427 1.388 . S
C2429 C2430 1.366 . S
C2430 C2429 1.366 . S
C2430 C2431 1.414 . S
C2430 C2433 1.499 . S
C2431 H2405 0.950 . S
C2431 C2430 1.414 . S
C2431 C2432 1.374 . S
C2432 H2406 0.950 . S
C2432 C2428 1.385 . S
C2432 C2431 1.374 . S
C2433 C2430 1.499 . S
C2433 C2434 1.373 . S
C2433 C2435 1.389 . S
C2434 H2407 0.950 . S
C2434 C2420 1.377 . S
C2434 C2433 1.373 . S
C2435 C2419 1.377 . S
C2435 C2433 1.389 . S
C2435 C2436 1.524 . S
C2436 C2435 1.524 . S
C2436 C2437 1.397 . S
C2436 C2441 1.363 . S
C2437 H2408 0.950 . S
C2437 C2436 1.397 . S
C2437 C2438 1.334 . S
C2438 H2409 0.950 . S
C2438 C2437 1.334 . S
C2438 C2439 1.287 . S
C2439 C2438 1.287 . S
C2439 C2440 1.524 . S
C2439 H2442 0.999 . S
C2440 H2410 0.950 . S
C2440 C2439 1.524 . S
C2440 C2441 1.415 . S
C2441 H2411 0.950 . S
C2441 C2436 1.363 . S
C2441 C2440 1.415 . S
H2442 C2439 0.999 . S
H2443 C2424 0.913 . S
H2444 C2462 0.951 . S
H2445 C2464 0.951 . S
H2446 C2466 0.950 . S
H2447 C2467 0.950 . S
H2448 C2469 0.950 . S
H2449 C2472 0.950 . S
H2450 C2473 0.950 . S
H2451 C2475 0.950 . S
H2452 C2476 0.950 . S
H2453 C2477 0.951 . S
H2454 C2479 0.951 . S
H2455 C2481 0.950 . S
H2456 C2482 0.950 . S
H2457 C2484 0.950 . S
H2458 C2487 0.950 . S
H2459 C2488 0.950 . S
H2460 C2490 0.950 . S
H2461 C2491 0.950 . S
C2462 H2444 0.951 . S
C2462 C2463 1.366 . S
C2462 C2464 1.388 . S
C2463 C2462 1.366 . S
C2463 C2467 1.385 . S
C2464 H2445 0.951 . S
C2464 C2462 1.388 . S
C2464 C2465 1.366 . S
C2465 C2464 1.366 . S
C2465 C2466 1.414 . S
C2465 C2468 1.499 . S
C2466 H2446 0.950 . S
C2466 C2465 1.414 . S
C2466 C2467 1.374 . S
C2467 H2447 0.950 . S
C2467 C2463 1.385 . S
C2467 C2466 1.374 . S
C2468 C2465 1.499 . S
C2468 C2469 1.373 . S
C2468 C2470 1.389 . S
C2469 H2448 0.950 . S
C2469 C2468 1.373 . S
C2469 C2485 1.377 . S
C2470 C2468 1.389 . S
C2470 C2471 1.524 . S
C2470 C2484 1.377 . S
C2471 C2470 1.524 . S
C2471 C2472 1.397 . S
C2471 C2476 1.363 . S
C2472 H2449 0.950 . S
C2472 C2471 1.397 . S
C2472 C2473 1.334 . S
C2473 H2450 0.950 . S
C2473 C2472 1.334 . S
C2473 C2474 1.287 . S
C2474 C2473 1.287 . S
C2474 C2475 1.524 . S
C2474 H2493 0.913 . S
C2475 H2451 0.950 . S
C2475 C2474 1.524 . S
C2475 C2476 1.415 . S
C2476 H2452 0.950 . S
C2476 C2471 1.363 . S
C2476 C2475 1.415 . S
C2477 H2453 0.951 . S
C2477 C2478 1.366 . S
C2477 C2479 1.388 . S
C2478 C2477 1.366 . S
C2478 C2482 1.385 . S
C2479 H2454 0.951 . S
C2479 C2477 1.388 . S
C2479 C2480 1.366 . S
C2480 C2479 1.366 . S
C2480 C2481 1.414 . S
C2480 C2483 1.499 . S
C2481 H2455 0.950 . S
C2481 C2480 1.414 . S
C2481 C2482 1.374 . S
C2482 H2456 0.950 . S
C2482 C2478 1.385 . S
C2482 C2481 1.374 . S
C2483 C2480 1.499 . S
C2483 C2484 1.373 . S
C2483 C2485 1.389 . S
C2484 H2457 0.950 . S
C2484 C2470 1.377 . S
C2484 C2483 1.373 . S
C2485 C2469 1.377 . S
C2485 C2483 1.389 . S
C2485 C2486 1.524 . S
C2486 C2485 1.524 . S
C2486 C2487 1.397 . S
C2486 C2491 1.363 . S
C2487 H2458 0.950 . S
C2487 C2486 1.397 . S
C2487 C2488 1.334 . S
C2488 H2459 0.950 . S
C2488 C2487 1.334 . S
C2488 C2489 1.287 . S
C2489 C2488 1.287 . S
C2489 C2490 1.524 . S
C2489 H2492 0.999 . S
C2490 H2460 0.950 . S
C2490 C2489 1.524 . S
C2490 C2491 1.415 . S
C2491 H2461 0.950 . S
C2491 C2486 1.363 . S
C2491 C2490 1.415 . S
H2492 C2489 0.999 . S
H2493 C2474 0.913 . S
H2494 C2512 0.951 . S
H2495 C2514 0.951 . S
H2496 C2516 0.950 . S
H2497 C2517 0.950 . S
H2498 C2519 0.950 . S
H2499 C2522 0.950 . S
H2500 C2523 0.950 . S
H2501 C2525 0.950 . S
H2502 C2526 0.950 . S
H2503 C2527 0.951 . S
H2504 C2529 0.951 . S
H2505 C2531 0.950 . S
H2506 C2532 0.950 . S
H2507 C2534 0.950 . S
H2508 C2537 0.950 . S
H2509 C2538 0.950 . S
H2510 C2540 0.950 . S
H2511 C2541 0.950 . S
C2512 H2494 0.951 . S
C2512 C2513 1.366 . S
C2512 C2514 1.388 . S
C2513 C2512 1.366 . S
C2513 C2517 1.385 . S
C2514 H2495 0.951 . S
C2514 C2512 1.388 . S
C2514 C2515 1.366 . S
C2515 C2514 1.366 . S
C2515 C2516 1.414 . S
C2515 C2518 1.499 . S
C2516 H2496 0.950 . S
C2516 C2515 1.414 . S
C2516 C2517 1.374 . S
C2517 H2497 0.950 . S
C2517 C2513 1.385 . S
C2517 C2516 1.374 . S
C2518 C2515 1.499 . S
C2518 C2519 1.373 . S
C2518 C2520 1.389 . S
C2519 H2498 0.950 . S
C2519 C2518 1.373 . S
C2519 C2535 1.377 . S
C2520 C2518 1.389 . S
C2520 C2521 1.524 . S
C2520 C2534 1.377 . S
C2521 C2520 1.524 . S
C2521 C2522 1.397 . S
C2521 C2526 1.363 . S
C2522 H2499 0.950 . S
C2522 C2521 1.397 . S
C2522 C2523 1.334 . S
C2523 H2500 0.950 . S
C2523 C2522 1.334 . S
C2523 C2524 1.287 . S
C2524 C2523 1.287 . S
C2524 C2525 1.524 . S
C2524 H2543 0.913 . S
C2525 H2501 0.950 . S
C2525 C2524 1.524 . S
C2525 C2526 1.415 . S
C2526 H2502 0.950 . S
C2526 C2521 1.363 . S
C2526 C2525 1.415 . S
C2527 H2503 0.951 . S
C2527 C2528 1.366 . S
C2527 C2529 1.388 . S
C2528 C2527 1.366 . S
C2528 C2532 1.385 . S
C2529 H2504 0.951 . S
C2529 C2527 1.388 . S
C2529 C2530 1.366 . S
C2530 C2529 1.366 . S
C2530 C2531 1.414 . S
C2530 C2533 1.499 . S
C2531 H2505 0.950 . S
C2531 C2530 1.414 . S
C2531 C2532 1.374 . S
C2532 H2506 0.950 . S
C2532 C2528 1.385 . S
C2532 C2531 1.374 . S
C2533 C2530 1.499 . S
C2533 C2534 1.373 . S
C2533 C2535 1.389 . S
C2534 H2507 0.950 . S
C2534 C2520 1.377 . S
C2534 C2533 1.373 . S
C2535 C2519 1.377 . S
C2535 C2533 1.389 . S
C2535 C2536 1.524 . S
C2536 C2535 1.524 . S
C2536 C2537 1.397 . S
C2536 C2541 1.363 . S
C2537 H2508 0.950 . S
C2537 C2536 1.397 . S
C2537 C2538 1.334 . S
C2538 H2509 0.950 . S
C2538 C2537 1.334 . S
C2538 C2539 1.287 . S
C2539 C2538 1.287 . S
C2539 C2540 1.524 . S
C2539 H2542 0.999 . S
C2540 H2510 0.950 . S
C2540 C2539 1.524 . S
C2540 C2541 1.415 . S
C2541 H2511 0.950 . S
C2541 C2536 1.363 . S
C2541 C2540 1.415 . S
H2542 C2539 0.999 . S
H2543 C2524 0.913 . S
C963 C241 1.575 . S
C978 C5 1.575 . S
C1013 C300 1.575 . S
C1028 C64 1.575 . S
C1063 C359 1.575 . S
C1078 C123 1.575 . S
C1113 C418 1.575 . S
C1128 C182 1.575 . S
C1163 C713 1.575 . S
C1178 C477 1.575 . S
C1213 C772 1.575 . S
C1228 C536 1.575 . S
C1263 C595 1.575 . S
C1278 C831 1.575 . S
C1313 C890 1.575 . S
C1328 C654 1.575 . S
C1363 C52 1.620 . S
C1378 C347 1.620 . S
C1413 C406 1.620 . S
C1428 C111 1.620 . S
C1463 C170 1.620 . S
C1478 C465 1.620 . S
C1513 C288 1.620 . S
C1528 C229 1.620 . S
C1563 C819 1.620 . S
C1578 C524 1.620 . S
C1613 C878 1.620 . S
C1628 C583 1.620 . S
C1663 C642 1.620 . S
C1678 C937 1.620 . S
C1713 C701 1.620 . S
C1728 C760 1.620 . S
C1763 C918 1.816 . S
C1778 C33 1.816 . S
C1813 C741 1.816 . S
C1828 C92 1.816 . S
C1863 C800 1.816 . S
C1878 C151 1.816 . S
C1913 C859 1.816 . S
C1928 C210 1.816 . S
C1963 C564 1.816 . S
C1978 C269 1.816 . S
C2013 C623 1.816 . S
C2028 C328 1.816 . S
C2063 C387 1.816 . S
C2078 C682 1.816 . S
C2113 C446 1.816 . S
C2128 C505 1.816 . S
C2163 C770 1.039 . S
C2178 C121 1.039 . S
C2213 C829 1.039 . S
C2228 C180 1.039 . S
C2263 C888 1.038 . S
C2278 C3 1.039 . S
C2313 C62 1.039 . S
C2328 C711 1.039 . S
C2363 C652 1.039 . S
C2378 C357 1.039 . S
C2413 C416 1.039 . S
C2428 C475 1.039 . S
C2463 C534 1.038 . S
C2478 C239 1.039 . S
C2513 C593 1.038 . S
C2528 C298 1.039 . S
