# Generated by pormake.
# Topology fst, (5)-cn, num edge types: 1
# Building blocks:
#     Node 0, Type 0, BuildingBlock: XOMCOT_clean_sbu_1, # of connection points: 5
#     Node 1, Type 0, BuildingBlock: XOMCOT_clean_sbu_1, # of connection points: 5
#     Node 2, Type 0, BuildingBlock: XOMCOT_clean_sbu_1, # of connection points: 5
#     Node 3, Type 0, BuildingBlock: XOMCOT_clean_sbu_1, # of connection points: 5
#     Node 4, Type 0, BuildingBlock: XOMCOT_clean_sbu_1, # of connection points: 5
#     Node 5, Type 0, BuildingBlock: XOMCOT_clean_sbu_1, # of connection points: 5
#     Node 6, Type 0, BuildingBlock: XOMCOT_clean_sbu_1, # of connection points: 5
#     Node 7, Type 0, BuildingBlock: XOMCOT_clean_sbu_1, # of connection points: 5
#     Node 8, Type 0, BuildingBlock: XOMCOT_clean_sbu_1, # of connection points: 5
#     Node 9, Type 0, BuildingBlock: XOMCOT_clean_sbu_1, # of connection points: 5
#     Node 10, Type 0, BuildingBlock: XOMCOT_clean_sbu_1, # of connection points: 5
#     Node 11, Type 0, BuildingBlock: XOMCOT_clean_sbu_1, # of connection points: 5
#     Edge 12, Type (0, 0), BuildingBlock: MIFKUJ_clean_linker_0, # of connection points: 2
#     Edge 13, Type (0, 0), BuildingBlock: MIFKUJ_clean_linker_0, # of connection points: 2
#     Edge 14, Type (0, 0), BuildingBlock: MIFKUJ_clean_linker_0, # of connection points: 2
#     Edge 15, Type (0, 0), BuildingBlock: MIFKUJ_clean_linker_0, # of connection points: 2
#     Edge 16, Type (0, 0), BuildingBlock: MIFKUJ_clean_linker_0, # of connection points: 2
#     Edge 17, Type (0, 0), BuildingBlock: MIFKUJ_clean_linker_0, # of connection points: 2
#     Edge 18, Type (0, 0), BuildingBlock: MIFKUJ_clean_linker_0, # of connection points: 2
#     Edge 19, Type (0, 0), BuildingBlock: MIFKUJ_clean_linker_0, # of connection points: 2
#     Edge 20, Type (0, 0), BuildingBlock: MIFKUJ_clean_linker_0, # of connection points: 2
#     Edge 21, Type (0, 0), BuildingBlock: MIFKUJ_clean_linker_0, # of connection points: 2
#     Edge 22, Type (0, 0), BuildingBlock: MIFKUJ_clean_linker_0, # of connection points: 2
#     Edge 23, Type (0, 0), BuildingBlock: MIFKUJ_clean_linker_0, # of connection points: 2
#     Edge 24, Type (0, 0), BuildingBlock: MIFKUJ_clean_linker_0, # of connection points: 2
#     Edge 25, Type (0, 0), BuildingBlock: MIFKUJ_clean_linker_0, # of connection points: 2
#     Edge 26, Type (0, 0), BuildingBlock: MIFKUJ_clean_linker_0, # of connection points: 2
#     Edge 27, Type (0, 0), BuildingBlock: MIFKUJ_clean_linker_0, # of connection points: 2
#     Edge 28, Type (0, 0), BuildingBlock: MIFKUJ_clean_linker_0, # of connection points: 2
#     Edge 29, Type (0, 0), BuildingBlock: MIFKUJ_clean_linker_0, # of connection points: 2
#     Edge 30, Type (0, 0), BuildingBlock: MIFKUJ_clean_linker_0, # of connection points: 2
#     Edge 31, Type (0, 0), BuildingBlock: MIFKUJ_clean_linker_0, # of connection points: 2
#     Edge 32, Type (0, 0), BuildingBlock: MIFKUJ_clean_linker_0, # of connection points: 2
#     Edge 33, Type (0, 0), BuildingBlock: MIFKUJ_clean_linker_0, # of connection points: 2
#     Edge 34, Type (0, 0), BuildingBlock: MIFKUJ_clean_linker_0, # of connection points: 2
#     Edge 35, Type (0, 0), BuildingBlock: MIFKUJ_clean_linker_0, # of connection points: 2
#     Edge 36, Type (0, 0), BuildingBlock: MIFKUJ_clean_linker_0, # of connection points: 2
#     Edge 37, Type (0, 0), BuildingBlock: MIFKUJ_clean_linker_0, # of connection points: 2
#     Edge 38, Type (0, 0), BuildingBlock: MIFKUJ_clean_linker_0, # of connection points: 2
#     Edge 39, Type (0, 0), BuildingBlock: MIFKUJ_clean_linker_0, # of connection points: 2
#     Edge 40, Type (0, 0), BuildingBlock: MIFKUJ_clean_linker_0, # of connection points: 2
#     Edge 41, Type (0, 0), BuildingBlock: MIFKUJ_clean_linker_0, # of connection points: 2
# Relax obj value: 0.142
# Max RMSD: 0.125
# Mean RMSD: 0.125
data_MOF--net-fst--node1-XOMCOT_clean_sbu_1--edge1-MIFKUJ_clean_linker_0
_symmetry_space_group_name_H-M    P1
_symmetry_Int_Tables_number       1
_symmetry_cell_setting            triclinic
loop_
_symmetry_equiv_pos_as_xyz
'x, y, z'
_cell_length_a     94.711456
_cell_length_b     94.731777
_cell_length_c     22.146372
_cell_angle_alpha  89.94576
_cell_angle_beta   90.067578
_cell_angle_gamma 119.96737
loop_
_atom_site_label
_atom_site_type_symbol
_atom_site_fract_x
_atom_site_fract_y
_atom_site_fract_z
_atom_type_partial_charge
C0 C 0.14376 0.45881 0.96104 0.0
C1 C 0.14686 0.45912 0.90033 0.0
N2 N 0.13402 0.44633 0.87371 0.0
N3 N 0.129 0.44595 0.97327 0.0
C4 C 0.12341 0.43841 0.91937 0.0
H5 H 0.15159 0.46765 0.99418 0.0
Co6 Co 0.12004 0.44164 0.05113 0.0
C7 C 0.08459 0.42484 1.00856 0.0
O8 O 0.08374 0.4381 0.01646 0.0
N9 N 0.11146 0.43713 0.13151 0.0
C10 C 0.09516 0.43184 0.2111 0.0
C11 C 0.09661 0.43415 0.14985 0.0
C12 C 0.11887 0.43674 0.18365 0.0
N13 N 0.10915 0.43343 0.23268 0.0
O14 O 0.12616 0.42511 0.0582 0.0
H15 H 0.08743 0.43424 0.12171 0.0
H16 H 0.13119 0.43892 0.18599 0.0
O17 O 0.09793 0.42488 0.01996 0.0
C18 C 0.14093 0.43126 0.07579 0.0
O19 O 0.14884 0.44669 0.0917 0.0
N20 N 0.11607 0.45958 0.04371 0.0
C21 C 0.11425 0.48817 0.03349 0.0
C22 C 0.11068 0.47771 0.98416 0.0
C23 C 0.11209 0.46378 0.98968 0.0
C24 C 0.12039 0.47015 0.0913 0.0
C25 C 0.11938 0.48438 0.08741 0.0
H26 H 0.10935 0.45606 0.95056 0.0
H27 H 0.12504 0.46785 0.13245 0.0
H28 H 0.11169 0.42752 0.9137 0.0
H29 H 0.15756 0.46847 0.87754 0.0
H30 H 0.08475 0.42976 0.23799 0.0
H31 H 0.10713 0.48042 0.9411 0.0
H32 H 0.12263 0.49235 0.12625 0.0
C33 C 0.68588 0.13992 0.9488 0.0
C34 C 0.68734 0.14288 0.88777 0.0
N35 N 0.68921 0.13124 0.86048 0.0
N36 N 0.68634 0.12617 0.96073 0.0
C37 C 0.689 0.12154 0.90583 0.0
H38 H 0.68522 0.14784 0.98216 0.0
Co39 Co 0.68677 0.11835 0.0393 0.0
C40 C 0.67012 0.08663 0.96974 0.0
O41 O 0.66128 0.09128 0.93893 0.0
N42 N 0.68785 0.11124 0.11738 0.0
C43 C 0.69201 0.09852 0.19374 0.0
C44 C 0.69208 0.10002 0.132 0.0
C45 C 0.68556 0.11662 0.17114 0.0
N46 N 0.68794 0.10898 0.21849 0.0
O47 O 0.70949 0.1256 0.02686 0.0
H48 H 0.69547 0.09365 0.09999 0.0
H49 H 0.68228 0.126 0.1754 0.0
O50 O 0.68052 0.09638 1.00826 0.0
C51 C 0.71891 0.13905 0.05332 0.0
O52 O 0.71239 0.14538 0.0887 0.0
N53 N 0.66474 0.11255 0.05356 0.0
C54 C 0.63345 0.10846 0.06427 0.0
C55 C 0.63572 0.09489 0.0619 0.0
C56 C 0.65153 0.09721 0.05839 0.0
C57 C 0.66284 0.12566 0.06403 0.0
C58 C 0.64738 0.12396 0.06843 0.0
H59 H 0.65298 0.08663 0.05917 0.0
H60 H 0.67344 0.1376 0.06892 0.0
H61 H 0.69135 0.11159 0.89923 0.0
H62 H 0.68706 0.1529 0.86539 0.0
H63 H 0.69526 0.0907 0.21856 0.0
H64 H 0.62543 0.0826 0.06126 0.0
H65 H 0.64638 0.13477 0.07478 0.0
C66 C 0.54831 0.6904 0.97247 0.0
C67 C 0.54768 0.69243 0.91123 0.0
N68 N 0.55724 0.68761 0.88376 0.0
N69 N 0.55833 0.68446 0.98388 0.0
C70 C 0.56355 0.6828 0.92885 0.0
H71 H 0.54178 0.693 1.00663 0.0
Co72 Co 0.56273 0.68012 0.06159 0.0
C73 C 0.59544 0.68404 0.04788 0.0
O74 O 0.60095 0.69638 0.08556 0.0
N75 N 0.5669 0.67554 0.14064 0.0
C76 C 0.57226 0.66323 0.21542 0.0
C77 C 0.57123 0.66431 0.15403 0.0
C78 C 0.56505 0.68088 0.19525 0.0
N79 N 0.56827 0.67357 0.24174 0.0
O80 O 0.57737 0.70327 0.07197 0.0
H81 H 0.57317 0.65701 0.12121 0.0
H82 H 0.56085 0.68949 0.20102 0.0
O83 O 0.58046 0.67688 0.03179 0.0
C84 C 0.57149 0.71158 0.09494 0.0
O85 O 0.55644 0.70397 0.11508 0.0
N86 N 0.54729 0.65801 0.05098 0.0
C87 C 0.52056 0.6268 0.03315 0.0
C88 C 0.53525 0.63191 1.00194 0.0
C89 C 0.54847 0.64764 1.01114 0.0
C90 C 0.53329 0.65316 0.08259 0.0
C91 C 0.51981 0.63762 0.07458 0.0
H92 H 0.55934 0.65162 0.98452 0.0
H93 H 0.53245 0.66161 0.11318 0.0
H94 H 0.57186 0.67824 0.92185 0.0
H95 H 0.54044 0.69677 0.88858 0.0
H96 H 0.57562 0.65528 0.23857 0.0
H97 H 0.53631 0.62408 0.96884 0.0
H98 H 0.50882 0.63419 0.10012 0.0
C99 C 0.86132 0.54441 0.9696 0.0
C100 C 0.85872 0.54373 0.90838 0.0
N101 N 0.87142 0.55679 0.88275 0.0
N102 N 0.8757 0.55772 0.9828 0.0
C103 C 0.8815 0.56525 0.92895 0.0
H104 H 0.85354 0.53541 1.00239 0.0
Co105 Co 0.88428 0.56157 0.06121 0.0
C106 C 0.91998 0.57914 0.02124 0.0
O107 O 0.92122 0.56604 0.02677 0.0
N108 N 0.89258 0.5655 0.14193 0.0
C109 C 0.90773 0.56766 0.2224 0.0
C110 C 0.90662 0.56644 0.16072 0.0
C111 C 0.88545 0.56637 0.19399 0.0
N112 N 0.89441 0.5676 0.24345 0.0
O113 O 0.87802 0.57798 0.0696 0.0
H114 H 0.9152 0.56531 0.13242 0.0
H115 H 0.87357 0.56532 0.19627 0.0
O116 O 0.90641 0.57863 0.03246 0.0
C117 C 0.86323 0.57174 0.08697 0.0
O118 O 0.85527 0.55622 0.1016 0.0
N119 N 0.88831 0.54374 0.05249 0.0
C120 C 0.88982 0.51502 0.04101 0.0
C121 C 0.89438 0.5261 0.99311 0.0
C122 C 0.89307 0.54008 0.99909 0.0
C123 C 0.88297 0.53256 0.09831 0.0
C124 C 0.88383 0.51827 0.09386 0.0
H125 H 0.89633 0.5482 0.96088 0.0
H126 H 0.87766 0.53448 0.13842 0.0
H127 H 0.89325 0.57612 0.9232 0.0
H128 H 0.84845 0.53415 0.88428 0.0
H129 H 0.91742 0.56813 0.24991 0.0
H130 H 0.89857 0.52379 0.95075 0.0
H131 H 0.87978 0.50982 0.13143 0.0
C132 C 0.32906 0.87176 0.94581 0.0
C133 C 0.32595 0.8679 0.88573 0.0
N134 N 0.31731 0.87456 0.86418 0.0
N135 N 0.32268 0.8811 0.96272 0.0
C136 C 0.31512 0.88214 0.91214 0.0
H137 H 0.33565 0.86798 0.97528 0.0
Co138 Co 0.32407 0.88854 0.0431 0.0
C139 C 0.33146 0.91986 0.97288 0.0
O140 O 0.33444 0.9156 0.92012 0.0
N141 N 0.32546 0.8955 0.12406 0.0
C142 C 0.33464 0.9116 0.20474 0.0
C143 C 0.33612 0.91068 0.14347 0.0
C144 C 0.31781 0.88729 0.1751 0.0
N145 N 0.32312 0.8969 0.22496 0.0
O146 O 0.30078 0.87956 0.04349 0.0
H147 H 0.34491 0.9204 0.11513 0.0
H148 H 0.30868 0.8745 0.1759 0.0
O149 O 0.32764 0.91014 0.01793 0.0
C150 C 0.29413 0.86449 0.05729 0.0
O151 O 0.30371 0.85848 0.06898 0.0
N152 N 0.34658 0.89573 0.04459 0.0
C153 C 0.37773 0.89938 0.04412 0.0
C154 C 0.37453 0.91028 1.01225 0.0
C155 C 0.3588 0.90818 1.01268 0.0
C156 C 0.34974 0.88557 0.07831 0.0
C157 C 0.36518 0.88712 0.07851 0.0
H158 H 0.35655 0.91624 0.98563 0.0
H159 H 0.33994 0.87569 0.10304 0.0
H160 H 0.30817 0.88838 0.91036 0.0
H161 H 0.33018 0.86111 0.85944 0.0
H162 H 0.34201 0.92216 0.23259 0.0
H163 H 0.38389 0.91987 0.9849 0.0
H164 H 0.36717 0.87854 0.10431 0.0
C165 C 0.4584 0.31619 0.94761 0.0
C166 C 0.45848 0.31335 0.88688 0.0
N167 N 0.44526 0.31279 0.86133 0.0
N168 N 0.44527 0.31755 0.96095 0.0
C169 C 0.43736 0.31526 0.90764 0.0
H170 H 0.46763 0.31773 0.97992 0.0
Co171 Co 0.44142 0.32248 0.03905 0.0
C172 C 0.42413 0.34069 0.99655 0.0
O173 O 0.43741 0.35491 1.00111 0.0
N174 N 0.43737 0.32696 0.11933 0.0
C175 C 0.43266 0.33862 0.19826 0.0
C176 C 0.43496 0.33925 0.13703 0.0
C177 C 0.43669 0.31916 0.17173 0.0
N178 N 0.43373 0.32597 0.22033 0.0
O179 O 0.42513 0.29978 0.04857 0.0
H180 H 0.43545 0.34862 0.10829 0.0
H181 H 0.43838 0.30871 0.17458 0.0
O182 O 0.42433 0.32755 1.00937 0.0
C183 C 0.43226 0.29205 0.06598 0.0
O184 O 0.44793 0.3005 0.07815 0.0
N185 N 0.45924 0.34431 0.02982 0.0
C186 C 0.48839 0.37406 0.01716 0.0
C187 C 0.47746 0.36743 0.96891 0.0
C188 C 0.46324 0.35237 0.97558 0.0
C189 C 0.47019 0.35035 0.07636 0.0
C190 C 0.4847 0.36525 0.07126 0.0
H191 H 0.45526 0.3474 0.93704 0.0
H192 H 0.46803 0.3434 0.11741 0.0
H193 H 0.42625 0.31574 0.90282 0.0
H194 H 0.46799 0.31246 0.86323 0.0
H195 H 0.43093 0.34723 0.2248 0.0
H196 H 0.48008 0.37362 0.92573 0.0
H197 H 0.49302 0.36978 0.10924 0.0
C198 C 0.5466 0.86597 0.08974 0.0
C199 C 0.54541 0.86186 0.14978 0.0
N200 N 0.56056 0.86803 0.1724 0.0
N201 N 0.56243 0.87501 0.07403 0.0
C202 C 0.57065 0.87556 0.12509 0.0
H203 H 0.53646 0.86265 0.05943 0.0
Co204 Co 0.56923 0.88259 0.9942 0.0
C205 C 0.59244 0.91411 0.06606 0.0
O206 O 0.58617 0.90911 0.11995 0.0
N207 N 0.5756 0.88961 0.91327 0.0
C208 C 0.58317 0.90566 0.83216 0.0
C209 C 0.58077 0.90491 0.89345 0.0
C210 C 0.57462 0.88117 0.86229 0.0
N211 N 0.57928 0.89073 0.81221 0.0
O212 O 0.58403 0.87424 0.99845 0.0
H213 H 0.58194 0.9148 0.92126 0.0
H214 H 0.57025 0.86823 0.86152 0.0
O215 O 0.58651 0.90454 0.0206 0.0
C216 C 0.57714 0.85932 0.98245 0.0
O217 O 0.56206 0.85232 0.96255 0.0
N218 N 0.5537 0.88955 0.98936 0.0
C219 C 0.52713 0.89483 0.98464 0.0
C220 C 0.53963 0.90294 0.02718 0.0
C221 C 0.55275 0.90009 0.02897 0.0
C222 C 0.5418 0.88174 0.94706 0.0
C223 C 0.52851 0.8843 0.94355 0.0
H224 H 0.56155 0.90568 0.06445 0.0
H225 H 0.54237 0.87306 0.91694 0.0
H226 H 0.5838 0.88137 0.12764 0.0
H227 H 0.53422 0.85527 0.17528 0.0
H228 H 0.58672 0.91626 0.80401 0.0
H229 H 0.53894 0.91085 0.06088 0.0
H230 H 0.51925 0.87783 0.90959 0.0
C231 C 0.68547 0.54769 0.07513 0.0
C232 C 0.6839 0.54548 0.13656 0.0
N233 N 0.68602 0.55933 0.16199 0.0
N234 N 0.68836 0.56278 0.06165 0.0
C235 C 0.68883 0.56969 0.11554 0.0
H236 H 0.68465 0.53889 0.04223 0.0
Co237 Co 0.69143 0.57082 0.9835 0.0
C238 C 0.67444 0.5895 0.9741 0.0
O239 O 0.66878 0.58172 0.92278 0.0
N240 N 0.69528 0.57927 0.90343 0.0
C241 C 0.70532 0.59816 0.83116 0.0
C242 C 0.70406 0.59544 0.89223 0.0
C243 C 0.69162 0.57241 0.8477 0.0
N244 N 0.69751 0.58365 0.8029 0.0
O245 O 0.7139 0.58608 1.0036 0.0
H246 H 0.70914 0.60477 0.92665 0.0
H247 H 0.68508 0.55948 0.8395 0.0
O248 O 0.68412 0.58669 1.00615 0.0
C249 C 0.72363 0.58188 0.98071 0.0
O250 O 0.71769 0.56915 0.94485 0.0
N251 N 0.66977 0.55426 0.96578 0.0
C252 C 0.63964 0.52548 0.95597 0.0
C253 C 0.64125 0.53855 0.99072 0.0
C254 C 0.65648 0.55259 0.9966 0.0
C255 C 0.66848 0.54144 0.93331 0.0
C256 C 0.65351 0.52705 0.92697 0.0
H257 H 0.65768 0.56161 0.02905 0.0
H258 H 0.67933 0.54194 0.91544 0.0
H259 H 0.69111 0.58202 0.12062 0.0
H260 H 0.68174 0.53465 0.16079 0.0
H261 H 0.71137 0.60997 0.80951 0.0
H262 H 0.63105 0.53753 0.01635 0.0
H263 H 0.65292 0.51705 0.90124 0.0
C264 C 0.13314 0.67772 0.07728 0.0
C265 C 0.13357 0.6764 0.13876 0.0
N266 N 0.12522 0.68297 0.16397 0.0
N267 N 0.1243 0.68483 0.06299 0.0
C268 C 0.11965 0.68795 0.11678 0.0
H269 H 0.1393 0.6741 0.04512 0.0
Co270 Co 0.12194 0.6906 0.98437 0.0
C271 C 0.08716 0.67946 0.9665 0.0
O272 O 0.08886 0.67458 0.91288 0.0
N273 N 0.12014 0.69714 0.90473 0.0
C274 C 0.11533 0.71082 0.83325 0.0
C275 C 0.11641 0.70897 0.89422 0.0
C276 C 0.12152 0.69219 0.84859 0.0
N277 N 0.1185 0.70023 0.80451 0.0
O278 O 0.1314 0.71303 1.00983 0.0
H279 H 0.11412 0.7156 0.92891 0.0
H280 H 0.12409 0.68252 0.83945 0.0
O281 O 0.09943 0.68603 1.0026 0.0
C282 C 0.14686 0.71964 0.01407 0.0
O283 O 0.15358 0.71069 1.00287 0.0
N284 N 0.11445 0.66879 0.96066 0.0
C285 C 0.11138 0.63787 0.95271 0.0
C286 C 0.09926 0.63996 0.98067 0.0
C287 C 0.10118 0.65557 0.9853 0.0
C288 C 0.12611 0.66684 0.932 0.0
C289 C 0.12471 0.65151 0.92675 0.0
H290 H 0.09274 0.65706 0.01347 0.0
H291 H 0.13726 0.67747 0.91748 0.0
H292 H 0.11292 0.69435 0.12112 0.0
H293 H 0.13976 0.67112 0.1628 0.0
H294 H 0.1124 0.71931 0.81177 0.0
H295 H 0.08905 0.62986 1.00308 0.0
H296 H 0.13444 0.6505 0.90534 0.0
C297 C 0.46274 0.13852 0.12187 0.0
C298 C 0.46382 0.14244 0.18197 0.0
N299 N 0.44864 0.13657 0.20376 0.0
N300 N 0.44694 0.1299 0.10519 0.0
C301 C 0.43863 0.12935 0.15594 0.0
H302 H 0.47294 0.14177 0.092 0.0
Co303 Co 0.44068 0.1231 0.02413 0.0
C304 C 0.41566 0.09139 0.09116 0.0
O305 O 0.42128 0.09554 0.14633 0.0
N306 N 0.43489 0.11683 0.94275 0.0
C307 C 0.42763 0.1014 0.86022 0.0
C308 C 0.43013 0.10177 0.92131 0.0
C309 C 0.43554 0.12556 0.89307 0.0
N310 N 0.43104 0.11635 0.84213 0.0
O311 O 0.42652 0.13235 0.02628 0.0
H312 H 0.42923 0.0918 0.94803 0.0
H313 H 0.43945 0.13842 0.8941 0.0
O314 O 0.42257 0.10135 0.04742 0.0
C315 C 0.43471 0.1479 0.02522 0.0
O316 O 0.45065 0.15506 0.0206 0.0
N317 N 0.45557 0.11527 0.02098 0.0
C318 C 0.48178 0.10932 0.02045 0.0
C319 C 0.46903 0.10161 0.06246 0.0
C320 C 0.45605 0.10472 0.06189 0.0
C321 C 0.46765 0.12262 0.97908 0.0
C322 C 0.48067 0.11963 0.97738 0.0
H323 H 0.44701 0.09942 0.09684 0.0
H324 H 0.46746 0.13131 0.94782 0.0
H325 H 0.42551 0.12393 0.15773 0.0
H326 H 0.47495 0.14879 0.20803 0.0
H327 H 0.42427 0.09107 0.83084 0.0
H328 H 0.46941 0.09385 0.09756 0.0
H329 H 0.48996 0.12569 0.94324 0.0
C330 C 0.32033 0.45807 0.04441 0.0
C331 C 0.32208 0.46066 0.10559 0.0
N332 N 0.32155 0.44757 0.13203 0.0
N333 N 0.31875 0.44347 0.0319 0.0
C334 C 0.31945 0.43725 0.08608 0.0
H335 H 0.31996 0.46621 1.01096 0.0
Co336 Co 0.31535 0.4354 0.95399 0.0
C337 C 0.32676 0.41174 0.94649 0.0
O338 O 0.33328 0.41859 0.89454 0.0
N339 N 0.31116 0.42716 0.87354 0.0
C340 C 0.29918 0.40913 0.79936 0.0
C341 C 0.29992 0.41156 0.86056 0.0
C342 C 0.31697 0.43399 0.81867 0.0
N343 N 0.30995 0.42324 0.77278 0.0
O344 O 0.29229 0.42231 0.97217 0.0
H345 H 0.29269 0.4024 0.89378 0.0
H346 H 0.32628 0.44649 0.81198 0.0
O347 O 0.31936 0.41738 0.97841 0.0
C348 C 0.28317 0.42696 0.94687 0.0
O349 O 0.28969 0.43913 0.90835 0.0
N350 N 0.33778 0.44981 0.93854 0.0
C351 C 0.36948 0.47684 0.93564 0.0
C352 C 0.36608 0.46263 0.96728 0.0
C353 C 0.35014 0.4494 0.96915 0.0
C354 C 0.34085 0.46358 0.90815 0.0
C355 C 0.35659 0.47703 0.90489 0.0
H356 H 0.34767 0.43944 0.99907 0.0
H357 H 0.33082 0.4645 0.88904 0.0
H358 H 0.3184 0.42542 0.09167 0.0
H359 H 0.32316 0.4712 0.12879 0.0
H360 H 0.29107 0.39786 0.77637 0.0
H361 H 0.3754 0.46208 0.99379 0.0
H362 H 0.35849 0.48771 0.88021 0.0
C363 C 0.86083 0.30507 0.0366 0.0
C364 C 0.85812 0.30388 0.09782 0.0
N365 N 0.87232 0.30825 0.1264 0.0
N366 N 0.87662 0.31006 0.02602 0.0
C367 C 0.88335 0.31192 0.08151 0.0
H368 H 0.85183 0.30244 1.00182 0.0
Co369 Co 0.88532 0.3132 0.94848 0.0
C370 C 0.91482 0.31106 0.98385 0.0
O371 O 0.90805 0.29569 0.96785 0.0
N372 N 0.89402 0.3165 0.86958 0.0
C373 C 0.91163 0.32661 0.79333 0.0
C374 C 0.90978 0.32663 0.85475 0.0
C375 C 0.88646 0.31077 0.81572 0.0
N376 N 0.89697 0.31664 0.76864 0.0
O377 O 0.87802 0.29023 0.9448 0.0
H378 H 0.91934 0.33409 0.88621 0.0
H379 H 0.87351 0.30266 0.81073 0.0
O380 O 0.90668 0.31847 0.98047 0.0
C381 C 0.86378 0.28151 0.92255 0.0
O382 O 0.85616 0.28875 0.90051 0.0
N383 N 0.89079 0.33508 0.95198 0.0
C384 C 0.89315 0.36558 0.96072 0.0
C385 C 0.90362 0.36204 0.99404 0.0
C386 C 0.9021 0.3466 0.98969 0.0
C387 C 0.8808 0.33844 0.91823 0.0
C388 C 0.88175 0.35361 0.92193 0.0
H389 H 0.90954 0.34377 0.01857 0.0
H390 H 0.87165 0.32905 0.8897 0.0
H391 H 0.89613 0.31614 0.08882 0.0
H392 H 0.84648 0.29988 0.11927 0.0
H393 H 0.92283 0.3339 0.76856 0.0
H394 H 0.91239 0.37087 0.02528 0.0
H395 H 0.87347 0.35586 0.89534 0.0
H396 H 0.08562 0.60702 0.93344 0.0
H397 H 0.08525 0.5811 0.9454 0.0
H398 H 0.13603 0.60719 0.99628 0.0
H399 H 0.13652 0.633 0.98321 0.0
H400 H 0.13128 0.58365 0.92514 0.0
H401 H 0.10417 0.58773 0.10139 0.0
H402 H 0.08365 0.59106 0.15818 0.0
H403 H 0.04532 0.54791 0.0752 0.0
H404 H 0.06562 0.54444 0.01727 0.0
H405 H 0.13659 0.51916 0.06846 0.0
H406 H 0.13521 0.5441 0.0536 0.0
H407 H 0.08796 0.51607 0.97034 0.0
H408 H 0.0893 0.4911 0.98486 0.0
H409 H 0.09014 0.53978 0.05552 0.0
H410 H 0.11856 0.53587 0.88181 0.0
H411 H 0.13992 0.53283 0.82996 0.0
H412 H 0.1769 0.57643 0.91525 0.0
H413 H 0.15575 0.57958 0.96835 0.0
C414 C 0.0967 0.60719 0.94699 0.0
C415 C 0.11112 0.62206 0.957 0.0
C416 C 0.09647 0.59237 0.95408 0.0
C417 C 0.11057 0.59213 0.97254 0.0
C418 C 0.12501 0.607 0.9818 0.0
C419 C 0.12528 0.62178 0.97409 0.0
C420 C 0.1104 0.57647 0.98253 0.0
C421 C 0.12237 0.57417 0.95424 0.0
C422 C 0.09864 0.5639 0.01967 0.0
C423 C 0.08641 0.56593 0.05451 0.0
C424 C 0.09136 0.57902 0.0949 0.0
C425 C 0.07977 0.58093 0.12735 0.0
C426 C 0.06319 0.56973 0.12017 0.0
C427 C 0.05816 0.55659 0.08064 0.0
C428 C 0.06971 0.55464 0.04801 0.0
C429 C 0.12584 0.5183 0.04757 0.0
C430 C 0.11308 0.50319 0.02765 0.0
C431 C 0.1251 0.53255 0.03882 0.0
C432 C 0.11153 0.53194 1.01051 0.0
C433 C 0.09856 0.51681 0.99219 0.0
C434 C 0.09938 0.50259 1.0002 0.0
C435 C 0.11107 0.54713 0.99858 0.0
C436 C 0.09899 0.54931 0.0264 0.0
C437 C 0.12284 0.55969 0.9617 0.0
C438 C 0.13557 0.55787 0.92951 0.0
C439 C 0.13125 0.54473 0.8899 0.0
C440 C 0.14332 0.543 0.86022 0.0
C441 C 0.15976 0.55441 0.86943 0.0
C442 C 0.16416 0.56759 0.90823 0.0
C443 C 0.15214 0.56936 0.93809 0.0
H444 H 0.16908 0.55305 0.8464 0.0
H445 H 0.05423 0.57123 0.14534 0.0
H446 H 0.62462 0.12853 1.00751 0.0
H447 H 0.59798 0.12652 1.00483 0.0
H448 H 0.57763 0.08215 0.10865 0.0
H449 H 0.60452 0.08429 0.1134 0.0
H450 H 0.55809 0.08121 1.0067 0.0
H451 H 0.58447 0.11451 0.18012 0.0
H452 H 0.6071 0.13724 0.23468 0.0
H453 H 0.60426 0.17156 0.1157 0.0
H454 H 0.58177 0.14901 0.05983 0.0
H455 H 0.48391 0.08238 0.05495 0.0
H456 H 0.50846 0.08034 0.06684 0.0
H457 H 0.53773 0.12973 1.00301 0.0
H458 H 0.51354 0.1323 0.99548 0.0
H459 H 0.55203 0.12612 0.09383 0.0
H460 H 0.52779 0.09402 0.91522 0.0
H461 H 0.50608 0.07197 0.85489 0.0
H462 H 0.50556 0.03631 0.97608 0.0
H463 H 0.52714 0.05817 0.03759 0.0
C464 C 0.6146 0.11843 0.03065 0.0
C465 C 0.61688 0.10672 0.06153 0.0
C466 C 0.59931 0.11725 0.02859 0.0
C467 C 0.58586 0.10428 0.05702 0.0
C468 C 0.58787 0.09226 0.08642 0.0
C469 C 0.60326 0.0935 0.08893 0.0
C470 C 0.56986 0.10366 0.05675 0.0
C471 C 0.55662 0.09086 0.02661 0.0
C472 C 0.5681 0.11645 0.08154 0.0
C473 C 0.58151 0.13005 0.11552 0.0
C474 C 0.58874 0.1269 0.16533 0.0
C475 C 0.60154 0.13975 0.19653 0.0
C476 C 0.60713 0.15584 0.1786 0.0
C477 C 0.59992 0.1591 0.12952 0.0
C478 C 0.58713 0.14628 0.09811 0.0
C479 C 0.49556 0.09288 0.0439 0.0
C480 C 0.49658 0.1075 0.02398 0.0
C481 C 0.50962 0.09161 0.04995 0.0
C482 C 0.52502 0.10481 0.0351 0.0
C483 C 0.52604 0.11933 0.01471 0.0
C484 C 0.51207 0.1207 1.00955 0.0
C485 C 0.54019 0.10383 0.04236 0.0
C486 C 0.55334 0.11636 0.07412 0.0
C487 C 0.54189 0.09088 0.01832 0.0
C488 C 0.52894 0.07773 0.98137 0.0
C489 C 0.52295 0.08148 0.92926 0.0
C490 C 0.51069 0.06902 0.89481 0.0
C491 C 0.50441 0.05275 0.91175 0.0
C492 C 0.51042 0.04891 0.96308 0.0
C493 C 0.52267 0.06133 0.99773 0.0
H494 H 0.49492 0.04312 0.88501 0.0
H495 H 0.61704 0.16577 0.2028 0.0
H496 H 0.39965 0.47907 0.93655 0.0
H497 H 0.42636 0.50361 0.94851 0.0
H498 H 0.40338 0.53303 0.95513 0.0
H499 H 0.37671 0.50867 0.94445 0.0
H500 H 0.43039 0.54694 0.88404 0.0
H501 H 0.41599 0.52303 0.08315 0.0
H502 H 0.40791 0.50096 0.15773 0.0
H503 H 0.4515 0.49925 0.12029 0.0
H504 H 0.45973 0.52117 0.04482 0.0
H505 H 0.48909 0.62004 0.01982 0.0
H506 H 0.46489 0.59381 0.99878 0.0
H507 H 0.49429 0.57077 0.99527 0.0
H508 H 0.51866 0.59708 0.01746 0.0
H509 H 0.46571 0.5526 0.05875 0.0
H510 H 0.4813 0.57768 0.86577 0.0
H511 H 0.48974 0.59973 0.79114 0.0
H512 H 0.4444 0.59903 0.81495 0.0
H513 H 0.43579 0.57712 0.89063 0.0
C514 C 0.40025 0.49075 0.94073 0.0
C515 C 0.38593 0.49181 0.93933 0.0
C516 C 0.41556 0.50479 0.94745 0.0
C517 C 0.4169 0.52019 0.95312 0.0
C518 C 0.40269 0.52131 0.95052 0.0
C519 C 0.38741 0.50732 0.94403 0.0
C520 C 0.43299 0.53515 0.963 0.0
C521 C 0.43804 0.54822 0.92252 0.0
C522 C 0.44325 0.53668 1.0122 0.0
C523 C 0.43838 0.5236 0.05787 0.0
C524 C 0.42379 0.51786 0.09049 0.0
C525 C 0.41919 0.50539 0.13297 0.0
C526 C 0.42916 0.49867 0.1436 0.0
C527 C 0.44378 0.50444 0.11192 0.0
C528 C 0.44842 0.51689 0.06931 0.0
C529 C 0.49043 0.60939 0.01518 0.0
C530 C 0.50585 0.61068 0.02053 0.0
C531 C 0.47658 0.5944 1.00259 0.0
C532 C 0.47777 0.58032 0.99485 0.0
C533 C 0.49308 0.58148 1.00089 0.0
C534 C 0.50701 0.59654 1.01316 0.0
C535 C 0.46295 0.56448 0.98038 0.0
C536 C 0.45814 0.55126 0.01994 0.0
C537 C 0.45293 0.56277 0.93017 0.0
C538 C 0.45796 0.57585 0.88428 0.0
C539 C 0.47317 0.58231 0.85545 0.0
C540 C 0.47798 0.59478 0.81288 0.0
C541 C 0.46762 0.60082 0.79835 0.0
C542 C 0.45241 0.59436 0.82628 0.0
C543 C 0.44756 0.5819 0.86899 0.0
H544 H 0.47137 0.61048 0.76538 0.0
H545 H 0.42558 0.48902 0.1765 0.0
H546 H 0.9196 0.39644 0.95956 0.0
H547 H 0.91982 0.42223 0.97279 0.0
H548 H 0.86758 0.39579 0.99594 0.0
H549 H 0.86731 0.37012 0.98047 0.0
H550 H 0.87481 0.4204 0.92932 0.0
H551 H 0.89598 0.41373 0.11714 0.0
H552 H 0.91439 0.4094 0.18361 0.0
H553 H 0.95536 0.45337 0.117 0.0
H554 H 0.93721 0.45785 0.04951 0.0
H555 H 0.86641 0.48378 0.06798 0.0
H556 H 0.86781 0.45881 0.05429 0.0
H557 H 0.91688 0.48722 0.9868 0.0
H558 H 0.9155 0.51223 0.99985 0.0
H559 H 0.91197 0.46243 0.07477 0.0
H560 H 0.88927 0.46872 0.88843 0.0
H561 H 0.86978 0.47266 0.82698 0.0
H562 H 0.83014 0.42845 0.89855 0.0
H563 H 0.84939 0.42438 0.96116 0.0
C564 C 0.9082 0.39618 0.96756 0.0
C565 C 0.89344 0.38129 0.96885 0.0
C566 C 0.90832 0.41092 0.97542 0.0
C567 C 0.89374 0.41102 0.9863 0.0
C568 C 0.879 0.39611 0.98747 0.0
C569 C 0.87885 0.38143 0.9786 0.0
C570 C 0.8937 0.42661 0.9957 0.0
C571 C 0.88281 0.42945 0.96176 0.0
C572 C 0.90432 0.43866 0.03718 0.0
C573 C 0.91526 0.43603 0.07782 0.0
C574 C 0.90893 0.42241 0.11635 0.0
C575 C 0.91931 0.41994 0.15425 0.0
C576 C 0.93604 0.43108 0.1544 0.0
C577 C 0.9424 0.44474 0.11676 0.0
C578 C 0.93207 0.44726 0.07871 0.0
C579 C 0.87753 0.4847 0.05067 0.0
C580 C 0.89084 0.49994 0.03487 0.0
C581 C 0.87829 0.47045 0.04263 0.0
C582 C 0.89242 0.47118 0.01931 0.0
C583 C 0.90586 0.4864 1.00483 0.0
C584 C 0.90503 0.50064 1.01199 0.0
C585 C 0.89302 0.45601 1.00884 0.0
C586 C 0.90401 0.4533 0.04244 0.0
C587 C 0.88234 0.44396 0.96781 0.0
C588 C 0.87076 0.44634 0.92993 0.0
C589 C 0.87639 0.45992 0.89147 0.0
C590 C 0.86538 0.46216 0.85635 0.0
C591 C 0.84873 0.45083 0.85898 0.0
C592 C 0.84304 0.43722 0.89662 0.0
C593 C 0.854 0.43494 0.9319 0.0
H594 H 0.84023 0.45259 0.83175 0.0
H595 H 0.94406 0.42914 0.18378 0.0
H596 H 0.40844 0.92608 0.05257 0.0
H597 H 0.43458 0.92677 0.04299 0.0
H598 H 0.40901 0.87489 1.01108 0.0
H599 H 0.383 0.87411 0.02235 0.0
H600 H 0.43276 0.88202 0.08467 0.0
H601 H 0.42803 0.90469 0.89539 0.0
H602 H 0.42461 0.92406 0.83111 0.0
H603 H 0.46794 0.9639 0.90709 0.0
H604 H 0.4715 0.94478 0.97239 0.0
H605 H 0.49536 0.87104 0.96639 0.0
H606 H 0.47093 0.87336 0.97466 0.0
H607 H 0.5005 0.9244 0.01742 0.0
H608 H 0.52514 0.92237 1.00662 0.0
H609 H 0.47586 0.91927 0.94276 0.0
H610 H 0.48108 0.89622 0.12873 0.0
H611 H 0.4845 0.87669 0.19199 0.0
H612 H 0.44 0.83729 0.12109 0.0
H613 H 0.43643 0.85656 0.05676 0.0
C614 C 0.40845 0.91485 0.04341 0.0
C615 C 0.39369 0.90003 0.03849 0.0
C616 C 0.42338 0.91526 0.0377 0.0
C617 C 0.42382 0.90091 0.02557 0.0
C618 C 0.40905 0.88613 0.02066 0.0
C619 C 0.39417 0.88568 0.0272 0.0
C620 C 0.43957 0.90107 0.01869 0.0
C621 C 0.44208 0.89005 0.05306 0.0
C622 C 0.452 0.91185 0.97878 0.0
C623 C 0.44994 0.92333 0.93918 0.0
C624 C 0.43677 0.9176 0.89865 0.0
C625 C 0.43481 0.92853 0.862 0.0
C626 C 0.44603 0.9452 0.86513 0.0
C627 C 0.45925 0.95098 0.90478 0.0
C628 C 0.46125 0.94011 0.94158 0.0
C629 C 0.49675 0.88286 0.97638 0.0
C630 C 0.51229 0.89651 0.98602 0.0
C631 C 0.48272 0.88411 0.98184 0.0
C632 C 0.48384 0.89899 0.99779 0.0
C633 C 0.49932 0.91277 1.0055 0.0
C634 C 0.51339 0.91155 0.9998 0.0
C635 C 0.46883 0.89999 1.00783 0.0
C636 C 0.46652 0.91127 0.97437 0.0
C637 C 0.45653 0.88942 0.04844 0.0
C638 C 0.45856 0.87782 0.08758 0.0
C639 C 0.47208 0.88338 0.12635 0.0
C640 C 0.47403 0.87236 0.16243 0.0
C641 C 0.46249 0.85576 0.16047 0.0
C642 C 0.44894 0.85015 0.12253 0.0
C643 C 0.44693 0.86112 0.0863 0.0
H644 H 0.46403 0.84724 0.18842 0.0
H645 H 0.44449 0.95365 0.83675 0.0
H646 H 0.63485 0.49485 0.97334 0.0
H647 H 0.60897 0.46929 0.97966 0.0
H648 H 0.58304 0.49508 0.94342 0.0
H649 H 0.60898 0.5208 0.9387 0.0
H650 H 0.56872 0.47494 0.0309 0.0
H651 H 0.58703 0.46977 0.83607 0.0
H652 H 0.60614 0.46982 0.76045 0.0
H653 H 0.60731 0.43073 0.85424 0.0
H654 H 0.58838 0.43059 0.93094 0.0
H655 H 0.49242 0.40256 0.97079 0.0
H656 H 0.518 0.4284 0.95765 0.0
H657 H 0.54474 0.40675 0.03324 0.0
H658 H 0.51919 0.38093 0.04699 0.0
H659 H 0.55796 0.42468 0.9227 0.0
H660 H 0.53948 0.4309 0.11862 0.0
H661 H 0.51958 0.43094 0.19018 0.0
H662 H 0.51779 0.46842 0.087 0.0
H663 H 0.53752 0.46843 0.01427 0.0
C664 C 0.62364 0.49503 0.96575 0.0
C665 C 0.62395 0.50981 0.95507 0.0
C666 C 0.60883 0.4804 0.96935 0.0
C667 C 0.59399 0.48016 0.96118 0.0
C668 C 0.59429 0.49491 0.9499 0.0
C669 C 0.60911 0.50959 0.94708 0.0
C670 C 0.57817 0.46463 0.96674 0.0
C671 C 0.56631 0.46405 1.00638 0.0
C672 C 0.57503 0.45027 0.93567 0.0
C673 C 0.5864 0.45028 0.88957 0.0
C674 C 0.59146 0.46127 0.84083 0.0
C675 C 0.60224 0.46129 0.79773 0.0
C676 C 0.60797 0.45031 0.80262 0.0
C677 C 0.60288 0.43924 0.85055 0.0
C678 C 0.59211 0.43917 0.89382 0.0
C679 C 0.50377 0.40334 0.98457 0.0
C680 C 0.50383 0.38977 1.01011 0.0
C681 C 0.51833 0.41809 0.97722 0.0
C682 C 0.53323 0.41948 0.99462 0.0
C683 C 0.53336 0.40592 0.01956 0.0
C684 C 0.51877 0.39123 0.02777 0.0
C685 C 0.5487 0.43509 0.98679 0.0
C686 C 0.56044 0.43565 0.94682 0.0
C687 C 0.55165 0.44948 0.01684 0.0
C688 C 0.53984 0.44953 0.06065 0.0
C689 C 0.53473 0.43904 0.11087 0.0
C690 C 0.5235 0.43908 0.15171 0.0
C691 C 0.51739 0.44964 0.14304 0.0
C692 C 0.52252 0.46022 0.0936 0.0
C693 C 0.53373 0.46022 0.05258 0.0
H694 H 0.5087 0.44965 0.17472 0.0
H695 H 0.61632 0.45035 0.7692 0.0
H696 H 0.26974 0.42366 0.05851 0.0
H697 H 0.2421 0.41803 0.081 0.0
H698 H 0.22967 0.40871 0.89186 0.0
H699 H 0.25769 0.41564 0.86934 0.0
H700 H 0.21899 0.42609 0.92412 0.0
H701 H 0.21303 0.37803 0.01491 0.0
H702 H 0.21983 0.36103 0.07943 0.0
H703 H 0.21684 0.38572 0.23717 0.0
H704 H 0.21024 0.40303 0.17355 0.0
H705 H 0.13876 0.40992 0.98754 0.0
H706 H 0.1592 0.40181 0.96589 0.0
H707 H 0.18511 0.42586 0.12851 0.0
H708 H 0.16493 0.43408 0.14976 0.0
H709 H 0.18583 0.39667 0.10299 0.0
H710 H 0.19481 0.44657 1.00154 0.0
H711 H 0.18603 0.46133 0.93323 0.0
H712 H 0.18104 0.42913 0.78805 0.0
H713 H 0.18952 0.41401 0.85586 0.0
C714 C 0.26093 0.41997 0.02215 0.0
C715 C 0.26575 0.4199 0.96232 0.0
C716 C 0.24505 0.41669 0.03493 0.0
C717 C 0.23349 0.41272 0.98833 0.0
C718 C 0.23821 0.41182 0.92885 0.0
C719 C 0.2542 0.41561 0.91594 0.0
C720 C 0.2171 0.41102 1.00049 0.0
C721 C 0.21165 0.41927 0.96252 0.0
C722 C 0.20731 0.40231 0.0508 0.0
C723 C 0.21126 0.39192 0.08935 0.0
C724 C 0.21393 0.37991 0.06332 0.0
C725 C 0.21773 0.37021 0.09974 0.0
C726 C 0.2188 0.37232 0.16234 0.0
C727 C 0.21602 0.38411 0.18867 0.0
C728 C 0.21223 0.39386 0.15245 0.0
C729 C 0.14849 0.41294 0.01969 0.0
C730 C 0.15028 0.42263 0.07034 0.0
C731 C 0.16023 0.40841 1.0071 0.0
C732 C 0.1738 0.41337 0.04531 0.0
C733 C 0.17478 0.42186 0.09843 0.0
C734 C 0.16323 0.42658 0.11049 0.0
C735 C 0.18806 0.41174 0.02686 0.0
C736 C 0.19313 0.40307 0.06389 0.0
C737 C 0.19732 0.4197 0.9749 0.0
C738 C 0.19265 0.42908 0.93388 0.0
C739 C 0.19176 0.4426 0.95514 0.0
C740 C 0.18683 0.45102 0.91653 0.0
C741 C 0.18296 0.44616 0.85638 0.0
C742 C 0.18403 0.43287 0.83467 0.0
C743 C 0.18889 0.42437 0.87316 0.0
H744 H 0.1792 0.45272 0.82653 0.0
H745 H 0.22175 0.36479 0.19046 0.0
H746 H 0.85581 0.26522 0.02901 0.0
H747 H 0.83407 0.23717 0.04556 0.0
H748 H 0.82821 0.22969 0.85266 0.0
H749 H 0.8491 0.25821 0.83675 0.0
H750 H 0.80068 0.21869 0.89246 0.0
H751 H 0.84293 0.20918 0.95721 0.0
H752 H 0.86752 0.21382 1.01232 0.0
H753 H 0.84302 0.20809 0.18126 0.0
H754 H 0.81834 0.20363 0.12722 0.0
H755 H 0.73501 0.13862 0.95059 0.0
H756 H 0.76313 0.15867 0.92209 0.0
H757 H 0.7705 0.18174 0.09609 0.0
H758 H 0.74259 0.16189 0.12453 0.0
H759 H 0.79842 0.18133 0.05399 0.0
H760 H 0.75771 0.19496 0.98026 0.0
H761 H 0.73302 0.18822 0.92119 0.0
H762 H 0.75593 0.18391 0.76057 0.0
H763 H 0.78067 0.19038 0.81895 0.0
C764 C 0.85024 0.25737 0.99029 0.0
C765 C 0.8543 0.26372 0.93162 0.0
C766 C 0.83777 0.24126 0.99965 0.0
C767 C 0.82944 0.231 0.95042 0.0
C768 C 0.83428 0.23721 0.89161 0.0
C769 C 0.84638 0.25346 0.88238 0.0
C770 C 0.81468 0.21456 0.96023 0.0
C771 C 0.80045 0.21041 0.92681 0.0
C772 C 0.81401 0.20356 1.00527 0.0
C773 C 0.8288 0.20617 0.03809 0.0
C774 C 0.84281 0.20901 1.00612 0.0
C775 C 0.85676 0.21159 0.03718 0.0
C776 C 0.85684 0.21128 0.10025 0.0
C777 C 0.84294 0.20834 0.1324 0.0
C778 C 0.82896 0.20575 0.10157 0.0
C779 C 0.74279 0.14769 0.98327 0.0
C780 C 0.73657 0.14876 0.03964 0.0
C781 C 0.75883 0.15919 0.96687 0.0
C782 C 0.76888 0.17183 1.00677 0.0
C783 C 0.76301 0.17212 0.06457 0.0
C784 C 0.74701 0.1608 0.08067 0.0
C785 C 0.78473 0.18584 0.98684 0.0
C786 C 0.799 0.18954 0.01864 0.0
C787 C 0.78558 0.19625 0.93944 0.0
C788 C 0.77096 0.19301 0.90403 0.0
C789 C 0.75745 0.19253 0.93238 0.0
C790 C 0.74345 0.18874 0.89904 0.0
C791 C 0.74288 0.18558 0.83719 0.0
C792 C 0.75637 0.18632 0.80849 0.0
C793 C 0.77039 0.19006 0.84166 0.0
H794 H 0.73202 0.1826 0.81149 0.0
H795 H 0.86766 0.21329 0.12421 0.0
H796 H 0.58207 0.72922 0.99156 0.0
H797 H 0.58934 0.75764 0.97757 0.0
H798 H 0.58672 0.76279 0.17044 0.0
H799 H 0.57804 0.7339 0.18332 0.0
H800 H 0.57257 0.77573 0.12738 0.0
H801 H 0.62437 0.78331 0.07652 0.0
H802 H 0.64476 0.77829 0.02712 0.0
H803 H 0.63047 0.7872 0.85361 0.0
H804 H 0.60983 0.79207 0.90186 0.0
H805 H 0.59477 0.85888 0.07997 0.0
H806 H 0.6011 0.8373 0.10482 0.0
H807 H 0.58217 0.81476 0.93207 0.0
H808 H 0.57547 0.83596 0.90792 0.0
H809 H 0.61163 0.81388 0.97625 0.0
H810 H 0.55666 0.80198 0.03861 0.0
H811 H 0.53919 0.8099 0.09467 0.0
H812 H 0.56425 0.81214 0.25926 0.0
H813 H 0.58202 0.80444 0.20388 0.0
C814 C 0.58354 0.7366 0.031 0.0
C815 C 0.57978 0.72949 0.0886 0.0
C816 C 0.58776 0.75293 0.02311 0.0
C817 C 0.58889 0.76271 0.07296 0.0
C818 C 0.58592 0.75568 0.13097 0.0
C819 C 0.58115 0.7392 0.13855 0.0
C820 C 0.59156 0.77961 0.06411 0.0
C821 C 0.58145 0.78412 0.09533 0.0
C822 C 0.60305 0.79085 0.02223 0.0
C823 C 0.61546 0.78795 0.99285 0.0
C824 C 0.62549 0.7841 0.02779 0.0
C825 C 0.63711 0.78129 0.99999 0.0
C826 C 0.63889 0.7824 0.93726 0.0
C827 C 0.62907 0.78634 0.9022 0.0
C828 C 0.61743 0.78915 0.92977 0.0
C829 C 0.5925 0.84962 0.04661 0.0
C830 C 0.58468 0.84908 0.99196 0.0
C831 C 0.59604 0.83727 0.06091 0.0
C832 C 0.59207 0.82439 0.02029 0.0
C833 C 0.58542 0.8246 0.96389 0.0
C834 C 0.58158 0.8367 0.9502 0.0
C835 C 0.5926 0.80956 0.03897 0.0
C836 C 0.60314 0.80547 1.00927 0.0
C837 C 0.58191 0.79891 0.08352 0.0
C838 C 0.57072 0.80276 0.1171 0.0
C839 C 0.55846 0.8042 0.08673 0.0
C840 C 0.54851 0.80865 0.11836 0.0
C841 C 0.55063 0.81156 0.18047 0.0
C842 C 0.56263 0.8099 0.21114 0.0
C843 C 0.57263 0.80547 0.17968 0.0
H844 H 0.54297 0.81507 0.20484 0.0
H845 H 0.64789 0.78022 0.91583 0.0
H846 H 0.7497 0.5972 0.90667 0.0
H847 H 0.77751 0.60309 0.92771 0.0
H848 H 0.76389 0.5874 0.11209 0.0
H849 H 0.73632 0.58252 0.09164 0.0
H850 H 0.79451 0.60945 0.11139 0.0
H851 H 0.76221 0.56107 0.99451 0.0
H852 H 0.74507 0.545 0.90881 0.0
H853 H 0.78416 0.57351 0.78585 0.0
H854 H 0.80147 0.5899 0.87082 0.0
H855 H 0.83995 0.56901 0.16455 0.0
H856 H 0.82036 0.57834 0.14925 0.0
H857 H 0.84504 0.60257 0.98511 0.0
H858 H 0.86498 0.59345 1.00106 0.0
H859 H 0.8115 0.57993 0.97084 0.0
H860 H 0.84508 0.62527 0.09787 0.0
H861 H 0.8612 0.6389 0.18875 0.0
H862 H 0.8185 0.61303 0.29903 0.0
H863 H 0.80216 0.59905 0.20892 0.0
C864 C 0.75288 0.59567 0.95226 0.0
C865 C 0.74098 0.5896 0.99772 0.0
C866 C 0.76871 0.5988 0.96414 0.0
C867 C 0.77276 0.5952 0.02106 0.0
C868 C 0.76114 0.59023 0.06772 0.0
C869 C 0.74539 0.58751 0.05617 0.0
C870 C 0.78837 0.59506 0.03019 0.0
C871 C 0.79816 0.60293 0.08075 0.0
C872 C 0.79339 0.58673 0.99 0.0
C873 C 0.78305 0.57683 0.9389 0.0
C874 C 0.76711 0.56397 0.94914 0.0
C875 C 0.75737 0.5548 0.90072 0.0
C876 C 0.76351 0.55826 0.84191 0.0
C877 C 0.77942 0.57087 0.83142 0.0
C878 C 0.7892 0.5801 0.87968 0.0
C879 C 0.84152 0.57677 0.1262 0.0
C880 C 0.85405 0.5806 0.08422 0.0
C881 C 0.8303 0.5821 0.1175 0.0
C882 C 0.83121 0.59119 0.06608 0.0
C883 C 0.84415 0.59565 0.02529 0.0
C884 C 0.85561 0.59056 0.03466 0.0
C885 C 0.81756 0.59426 0.052 0.0
C886 C 0.80803 0.58675 1.00075 0.0
C887 C 0.81264 0.60259 0.09229 0.0
C888 C 0.82241 0.61103 0.1466 0.0
C889 C 0.83914 0.62239 0.14154 0.0
C890 C 0.84832 0.6302 0.19293 0.0
C891 C 0.84089 0.62681 0.24964 0.0
C892 C 0.82425 0.61563 0.25507 0.0
C893 C 0.81502 0.60778 0.20383 0.0
H894 H 0.84801 0.63287 0.28937 0.0
H895 H 0.75595 0.55115 0.80447 0.0
H896 H 0.14393 0.74615 0.98126 0.0
H897 H 0.16478 0.77511 0.99394 0.0
H898 H 0.19484 0.7609 0.0937 0.0
H899 H 0.17438 0.73229 0.08038 0.0
H900 H 0.19491 0.78808 0.14355 0.0
H901 H 0.20065 0.76792 0.94643 0.0
H902 H 0.19061 0.75643 0.84514 0.0
H903 H 0.18382 0.79685 0.80191 0.0
H904 H 0.19362 0.80846 0.90337 0.0
H905 H 0.27816 0.83548 0.11464 0.0
H906 H 0.24931 0.81555 0.1125 0.0
H907 H 0.24018 0.84789 1.00331 0.0
H908 H 0.26957 0.86817 1.00486 0.0
H909 H 0.22487 0.81672 0.95796 0.0
H910 H 0.22624 0.8403 0.14695 0.0
H911 H 0.23674 0.85181 0.24773 0.0
H912 H 0.22989 0.80568 0.30748 0.0
H913 H 0.21959 0.79394 0.20681 0.0
C914 C 0.15484 0.7493 1.00705 0.0
C915 C 0.15758 0.73701 0.02979 0.0
C916 C 0.16677 0.76581 0.01396 0.0
C917 C 0.18143 0.77018 0.04453 0.0
C918 C 0.18365 0.75787 0.0701 0.0
C919 C 0.17195 0.7415 0.06232 0.0
C920 C 0.19521 0.78729 0.04654 0.0
C921 C 0.20142 0.79442 0.10302 0.0
C922 C 0.20341 0.79585 0.9936 0.0
C923 C 0.19764 0.78893 0.93264 0.0
C924 C 0.19688 0.77428 0.91547 0.0
C925 C 0.19126 0.76776 0.85803 0.0
C926 C 0.18652 0.77587 0.81719 0.0
C927 C 0.18745 0.79055 0.83365 0.0
C928 C 0.19304 0.79711 0.8911 0.0
C929 C 0.27007 0.83853 0.09056 0.0
C930 C 0.2762 0.85345 0.05987 0.0
C931 C 0.25349 0.8271 0.08974 0.0
C932 C 0.24246 0.83024 0.05843 0.0
C933 C 0.24844 0.84523 0.02815 0.0
C934 C 0.26519 0.85684 0.02932 0.0
C935 C 0.22498 0.81721 0.05524 0.0
C936 C 0.2181 0.81077 0.99857 0.0
C937 C 0.2161 0.80932 0.10811 0.0
C938 C 0.22215 0.81624 0.16913 0.0
C939 C 0.22704 0.83262 0.18145 0.0
C940 C 0.23296 0.83919 0.2386 0.0
C941 C 0.23399 0.82949 0.28397 0.0
C942 C 0.22907 0.81318 0.27231 0.0
C943 C 0.22316 0.80655 0.21522 0.0
H944 H 0.23858 0.8346 0.32817 0.0
H945 H 0.18217 0.77081 0.77273 0.0
H946 H 0.40696 0.14531 0.97369 0.0
H947 H 0.39766 0.16542 0.98097 0.0
H948 H 0.4366 0.1937 0.10624 0.0
H949 H 0.44605 0.17407 0.09789 0.0
H950 H 0.40581 0.19079 0.13855 0.0
H951 H 0.44252 0.20369 0.96444 0.0
H952 H 0.4497 0.19697 0.86572 0.0
H953 H 0.40502 0.19033 0.78998 0.0
H954 H 0.39748 0.1968 0.8886 0.0
H955 H 0.43967 0.2744 0.14163 0.0
H956 H 0.43103 0.24561 0.13546 0.0
H957 H 0.39837 0.23981 0.98937 0.0
H958 H 0.40729 0.2691 0.99516 0.0
H959 H 0.41644 0.22643 0.96012 0.0
H960 H 0.38305 0.2205 0.12546 0.0
H961 H 0.3748 0.22661 0.22303 0.0
H962 H 0.41024 0.21872 0.31465 0.0
H963 H 0.41892 0.21282 0.21754 0.0
C964 C 0.41327 0.15567 1.00355 0.0
C965 C 0.42722 0.15818 0.03516 0.0
C966 C 0.40802 0.16717 1.00752 0.0
C967 C 0.41646 0.1811 0.04413 0.0
C968 C 0.42986 0.18306 0.07793 0.0
C969 C 0.43528 0.17185 0.07295 0.0
C970 C 0.41245 0.19444 0.04468 0.0
C971 C 0.40803 0.19856 0.09955 0.0
C972 C 0.41471 0.20422 0.9932 0.0
C973 C 0.41934 0.20051 0.93397 0.0
C974 C 0.43417 0.20067 0.92684 0.0
C975 C 0.43831 0.19693 0.87091 0.0
C976 C 0.42779 0.19317 0.82166 0.0
C977 C 0.41313 0.1932 0.8282 0.0
C978 C 0.40892 0.1969 0.88408 0.0
C979 C 0.43035 0.26696 0.10905 0.0
C980 C 0.42412 0.27402 0.06902 0.0
C981 C 0.42534 0.25041 0.10572 0.0
C982 C 0.4139 0.24038 0.06231 0.0
C983 C 0.40714 0.24725 0.0235 0.0
C984 C 0.41211 0.26394 0.02717 0.0
C985 C 0.41046 0.22325 0.05492 0.0
C986 C 0.4136 0.21843 0.99883 0.0
C987 C 0.40677 0.21269 0.10518 0.0
C988 C 0.40166 0.21625 0.16401 0.0
C989 C 0.38917 0.22017 0.16634 0.0
C990 C 0.38441 0.22359 0.2216 0.0
C991 C 0.39198 0.22304 0.27499 0.0
C992 C 0.40436 0.21911 0.27324 0.0
C993 C 0.40919 0.2157 0.21808 0.0
H994 H 0.38824 0.22565 0.31772 0.0
H995 H 0.43102 0.19027 0.7784 0.0
H996 H 0.08773 0.41543 0.32004 0.0
H997 H 0.09289 0.41624 0.42819 0.0
H998 H 0.14386 0.45015 0.39799 0.0
H999 H 0.13872 0.44945 0.28887 0.0
H1000 H 0.13895 0.42719 0.48662 0.0
H1001 H 0.11966 0.46425 0.44326 0.0
H1002 H 0.10097 0.47265 0.40017 0.0
H1003 H 0.06182 0.43682 0.50831 0.0
H1004 H 0.08023 0.42803 0.5514 0.0
H1005 H 0.15752 0.4574 0.78689 0.0
H1006 H 0.15374 0.45368 0.67843 0.0
H1007 H 0.10189 0.42339 0.7039 0.0
H1008 H 0.10549 0.42764 0.8129 0.0
H1009 H 0.10769 0.44446 0.61685 0.0
H1010 H 0.12726 0.40779 0.66264 0.0
H1011 H 0.1462 0.39989 0.70704 0.0
H1012 H 0.18494 0.43506 0.59571 0.0
H1013 H 0.1663 0.44336 0.55131 0.0
C1014 C 0.10006 0.42307 0.3362 0.0
C1015 C 0.11276 0.43259 0.29569 0.0
C1016 C 0.103 0.42348 0.39818 0.0
C1017 C 0.11871 0.43349 0.42153 0.0
C1018 C 0.13162 0.44238 0.38109 0.0
C1019 C 0.12868 0.44195 0.31869 0.0
C1020 C 0.12131 0.43519 0.48822 0.0
C1021 C 0.13227 0.43115 0.51507 0.0
C1022 C 0.11237 0.44006 0.52566 0.0
C1023 C 0.10129 0.44538 0.50012 0.0
C1024 C 0.10704 0.45808 0.45751 0.0
C1025 C 0.09649 0.46292 0.43314 0.0
C1026 C 0.08021 0.45525 0.45138 0.0
C1027 C 0.07444 0.44274 0.49416 0.0
C1028 C 0.08492 0.43783 0.51861 0.0
C1029 C 0.14527 0.44994 0.7699 0.0
C1030 C 0.13182 0.44289 0.80945 0.0
C1031 C 0.14315 0.44767 0.70744 0.0
C1032 C 0.12754 0.43809 0.68259 0.0
C1033 C 0.11409 0.43081 0.72181 0.0
C1034 C 0.11619 0.43314 0.78445 0.0
C1035 C 0.12522 0.4363 0.61569 0.0
C1036 C 0.11433 0.4404 0.58864 0.0
C1037 C 0.13424 0.4315 0.57827 0.0
C1038 C 0.1454 0.42629 0.60399 0.0
C1039 C 0.13984 0.41391 0.64785 0.0
C1040 C 0.15053 0.40935 0.67302 0.0
C1041 C 0.16677 0.41699 0.6543 0.0
C1042 C 0.17236 0.42916 0.6102 0.0
C1043 C 0.16173 0.43379 0.58498 0.0
H1044 H 0.17503 0.41346 0.67389 0.0
H1045 H 0.07206 0.45901 0.43246 0.0
H1046 H 0.67892 0.08663 0.30772 0.0
H1047 H 0.67922 0.09128 0.41633 0.0
H1048 H 0.69545 0.142 0.38366 0.0
H1049 H 0.69528 0.1374 0.27435 0.0
H1050 H 0.71333 0.13751 0.47399 0.0
H1051 H 0.6573 0.11761 0.42664 0.0
H1052 H 0.63038 0.09878 0.38279 0.0
H1053 H 0.62668 0.06002 0.49458 0.0
H1054 H 0.65371 0.07856 0.5385 0.0
H1055 H 0.70089 0.15509 0.77535 0.0
H1056 H 0.70069 0.15172 0.66614 0.0
H1057 H 0.68062 0.09996 0.6893 0.0
H1058 H 0.68025 0.10321 0.79892 0.0
H1059 H 0.66461 0.10579 0.60275 0.0
H1060 H 0.72086 0.12555 0.64904 0.0
H1061 H 0.74776 0.14437 0.69307 0.0
H1062 H 0.75116 0.18335 0.58346 0.0
H1063 H 0.72414 0.16482 0.53943 0.0
C1064 C 0.68254 0.09878 0.32358 0.0
C1065 C 0.68711 0.11165 0.28233 0.0
C1066 C 0.68262 0.10141 0.38573 0.0
C1067 C 0.68729 0.11698 0.40832 0.0
C1068 C 0.69178 0.12988 0.36732 0.0
C1069 C 0.69155 0.12721 0.30487 0.0
C1070 C 0.68774 0.11972 0.47478 0.0
C1071 C 0.70262 0.13077 0.50207 0.0
C1072 C 0.67388 0.11064 0.51169 0.0
C1073 C 0.65761 0.09944 0.48545 0.0
C1074 C 0.65081 0.10503 0.44151 0.0
C1075 C 0.63552 0.09442 0.41671 0.0
C1076 C 0.62685 0.0782 0.43578 0.0
C1077 C 0.63343 0.07258 0.4798 0.0
C1078 C 0.64873 0.08314 0.50471 0.0
C1079 C 0.69639 0.14297 0.75738 0.0
C1080 C 0.69051 0.12941 0.79618 0.0
C1081 C 0.69644 0.14108 0.69473 0.0
C1082 C 0.69075 0.12559 0.66918 0.0
C1083 C 0.68508 0.11205 0.70779 0.0
C1084 C 0.68503 0.11393 0.77058 0.0
C1085 C 0.69024 0.1235 0.60222 0.0
C1086 C 0.67534 0.11256 0.57477 0.0
C1087 C 0.7041 0.13267 0.56523 0.0
C1088 C 0.7204 0.14382 0.59132 0.0
C1089 C 0.72729 0.13816 0.63464 0.0
C1090 C 0.74256 0.14877 0.65956 0.0
C1091 C 0.75115 0.16505 0.64113 0.0
C1092 C 0.74448 0.17074 0.59771 0.0
C1093 C 0.72919 0.16019 0.57272 0.0
H1094 H 0.76299 0.17324 0.66041 0.0
H1095 H 0.61501 0.07 0.41653 0.0
H1096 H 0.56849 0.69919 0.29928 0.0
H1097 H 0.56659 0.70244 0.40802 0.0
H1098 H 0.56403 0.65628 0.43951 0.0
H1099 H 0.56503 0.65253 0.33162 0.0
H1100 H 0.54307 0.65818 0.50838 0.0
H1101 H 0.59972 0.69424 0.46305 0.0
H1102 H 0.62297 0.71685 0.41045 0.0
H1103 H 0.60841 0.75034 0.47562 0.0
H1104 H 0.58494 0.72788 0.528 0.0
H1105 H 0.56219 0.66579 0.82168 0.0
H1106 H 0.56444 0.66429 0.71177 0.0
H1107 H 0.55975 0.70701 0.69035 0.0
H1108 H 0.55757 0.70858 0.80002 0.0
H1109 H 0.58399 0.70764 0.61689 0.0
H1110 H 0.5277 0.67127 0.66442 0.0
H1111 H 0.50459 0.64847 0.71682 0.0
H1112 H 0.51904 0.61526 0.6476 0.0
H1113 H 0.54239 0.63792 0.59545 0.0
C1114 C 0.56736 0.68964 0.32918 0.0
C1115 C 0.56706 0.67565 0.30604 0.0
C1116 C 0.56646 0.69161 0.3916 0.0
C1117 C 0.56542 0.67972 0.43235 0.0
C1118 C 0.56489 0.66568 0.40928 0.0
C1119 C 0.56566 0.66364 0.34715 0.0
C1120 C 0.56474 0.68167 0.49899 0.0
C1121 C 0.55216 0.66892 0.53204 0.0
C1122 C 0.57635 0.69583 0.53014 0.0
C1123 C 0.59048 0.70936 0.49889 0.0
C1124 C 0.60141 0.70641 0.46579 0.0
C1125 C 0.61464 0.7192 0.43608 0.0
C1126 C 0.61714 0.73501 0.43955 0.0
C1127 C 0.60644 0.73808 0.47289 0.0
C1128 C 0.59318 0.72533 0.50263 0.0
C1129 C 0.56184 0.67496 0.79357 0.0
C1130 C 0.55961 0.68725 0.8195 0.0
C1131 C 0.56301 0.67404 0.73078 0.0
C1132 C 0.56211 0.68546 0.69277 0.0
C1133 C 0.56043 0.69805 0.71871 0.0
C1134 C 0.55907 0.69886 0.78136 0.0
C1135 C 0.56249 0.68405 0.62594 0.0
C1136 C 0.57494 0.69691 0.59301 0.0
C1137 C 0.55085 0.66995 0.59487 0.0
C1138 C 0.53689 0.65632 0.62652 0.0
C1139 C 0.52605 0.65914 0.66085 0.0
C1140 C 0.51289 0.64623 0.6904 0.0
C1141 C 0.51038 0.63043 0.68562 0.0
C1142 C 0.52102 0.62751 0.6513 0.0
C1143 C 0.53421 0.64037 0.6217 0.0
H1144 H 0.50015 0.62046 0.70828 0.0
H1145 H 0.62739 0.7449 0.41652 0.0
H1146 H 0.89852 0.55057 0.33232 0.0
H1147 H 0.89327 0.55119 0.44027 0.0
H1148 H 0.87632 0.58504 0.40588 0.0
H1149 H 0.88119 0.5841 0.29679 0.0
H1150 H 0.9059 0.58889 0.51124 0.0
H1151 H 0.84872 0.56113 0.44278 0.0
H1152 H 0.82609 0.54016 0.38219 0.0
H1153 H 0.83216 0.50281 0.46759 0.0
H1154 H 0.85502 0.52363 0.52792 0.0
H1155 H 0.88332 0.5856 0.82355 0.0
H1156 H 0.88614 0.58983 0.71362 0.0
H1157 H 0.86921 0.53862 0.68838 0.0
H1158 H 0.8657 0.5344 0.79724 0.0
H1159 H 0.85539 0.54637 0.60943 0.0
H1160 H 0.91127 0.57125 0.67512 0.0
H1161 H 0.93565 0.59028 0.73336 0.0
H1162 H 0.93441 0.63094 0.65318 0.0
H1163 H 0.90989 0.61212 0.595 0.0
C1164 C 0.8936 0.55809 0.34773 0.0
C1165 C 0.89028 0.56731 0.30628 0.0
C1166 C 0.89061 0.55843 0.40933 0.0
C1167 C 0.88445 0.56817 0.43103 0.0
C1168 C 0.88104 0.5774 0.38991 0.0
C1169 C 0.88373 0.5768 0.32779 0.0
C1170 C 0.8818 0.56859 0.49694 0.0
C1171 C 0.89473 0.57987 0.53292 0.0
C1172 C 0.86749 0.55645 0.52506 0.0
C1173 C 0.85369 0.54394 0.48924 0.0
C1174 C 0.84534 0.54847 0.4481 0.0
C1175 C 0.83245 0.53661 0.41394 0.0
C1176 C 0.82772 0.52017 0.42089 0.0
C1177 C 0.83585 0.51555 0.46216 0.0
C1178 C 0.84877 0.52737 0.49636 0.0
C1179 C 0.88032 0.57534 0.79423 0.0
C1180 C 0.87423 0.55968 0.81875 0.0
C1181 C 0.88196 0.57773 0.73141 0.0
C1182 C 0.878 0.56456 0.69208 0.0
C1183 C 0.87221 0.54899 0.71714 0.0
C1184 C 0.87025 0.54657 0.7795 0.0
C1185 C 0.87957 0.5667 0.62491 0.0
C1186 C 0.86649 0.55573 0.58839 0.0
C1187 C 0.89391 0.57897 0.59645 0.0
C1188 C 0.90864 0.59028 0.6313 0.0
C1189 C 0.91613 0.58425 0.67027 0.0
C1190 C 0.92999 0.59499 0.7032 0.0
C1191 C 0.93655 0.61181 0.69713 0.0
C1192 C 0.9293 0.61791 0.65795 0.0
C1193 C 0.91543 0.60721 0.62497 0.0
H1194 H 0.94727 0.62011 0.72266 0.0
H1195 H 0.81773 0.511 0.39442 0.0
H1196 H 0.31723 0.89942 0.80332 0.0
H1197 H 0.31462 0.90132 0.69385 0.0
H1198 H 0.30579 0.85227 0.67306 0.0
H1199 H 0.30878 0.85056 0.78203 0.0
H1200 H 0.32734 0.87051 0.59525 0.0
H1201 H 0.27536 0.86344 0.65107 0.0
H1202 H 0.25628 0.86929 0.70638 0.0
H1203 H 0.27949 0.91758 0.63175 0.0
H1204 H 0.29886 0.91209 0.57659 0.0
H1205 H 0.31213 0.86732 0.2789 0.0
H1206 H 0.30721 0.86122 0.38716 0.0
H1207 H 0.3193 0.91082 0.42152 0.0
H1208 H 0.32378 0.91681 0.31385 0.0
H1209 H 0.29434 0.89055 0.49121 0.0
H1210 H 0.34734 0.89812 0.44199 0.0
H1211 H 0.36656 0.89241 0.38691 0.0
H1212 H 0.34113 0.84294 0.45001 0.0
H1213 H 0.32162 0.84831 0.50485 0.0
C1214 C 0.31437 0.88893 0.77548 0.0
C1215 C 0.31325 0.87485 0.80138 0.0
C1216 C 0.31288 0.89001 0.71274 0.0
C1217 C 0.30994 0.87691 0.67463 0.0
C1218 C 0.30817 0.86261 0.701 0.0
C1219 C 0.30984 0.86161 0.76343 0.0
C1220 C 0.30974 0.87838 0.60727 0.0
C1221 C 0.31986 0.8746 0.57263 0.0
C1222 C 0.30031 0.88407 0.57718 0.0
C1223 C 0.28865 0.88739 0.61011 0.0
C1224 C 0.27647 0.87534 0.64679 0.0
C1225 C 0.26559 0.87859 0.67806 0.0
C1226 C 0.2667 0.89381 0.6727 0.0
C1227 C 0.27866 0.9058 0.63591 0.0
C1228 C 0.28958 0.90262 0.60458 0.0
C1229 C 0.31347 0.87683 0.30939 0.0
C1230 C 0.31857 0.89262 0.2876 0.0
C1231 C 0.31078 0.87338 0.37143 0.0
C1232 C 0.31314 0.88563 0.41295 0.0
C1233 C 0.31747 0.90116 0.39077 0.0
C1234 C 0.32018 0.90461 0.32905 0.0
C1235 C 0.31191 0.88267 0.47961 0.0
C1236 C 0.30163 0.88626 0.51403 0.0
C1237 C 0.32116 0.87678 0.50962 0.0
C1238 C 0.33292 0.87356 0.47694 0.0
C1239 C 0.34578 0.88599 0.44375 0.0
C1240 C 0.35674 0.88283 0.41264 0.0
C1241 C 0.35504 0.86731 0.41481 0.0
C1242 C 0.34241 0.85494 0.44827 0.0
C1243 C 0.33141 0.85804 0.47939 0.0
H1244 H 0.36353 0.86488 0.3907 0.0
H1245 H 0.25827 0.8963 0.69695 0.0
H1246 H 0.44955 0.31245 0.27786 0.0
H1247 H 0.44968 0.30775 0.38684 0.0
H1248 H 0.41563 0.32483 0.41442 0.0
H1249 H 0.41558 0.32962 0.30622 0.0
H1250 H 0.44014 0.33929 0.49094 0.0
H1251 H 0.40478 0.28365 0.42622 0.0
H1252 H 0.39768 0.25898 0.36658 0.0
H1253 H 0.43819 0.25684 0.44357 0.0
H1254 H 0.44567 0.28161 0.50301 0.0
H1255 H 0.42557 0.32164 0.8018 0.0
H1256 H 0.42124 0.32115 0.69295 0.0
H1257 H 0.45272 0.301 0.66544 0.0
H1258 H 0.45631 0.30052 0.77397 0.0
H1259 H 0.42926 0.28768 0.58853 0.0
H1260 H 0.46593 0.34289 0.64759 0.0
H1261 H 0.47503 0.36818 0.70578 0.0
H1262 H 0.43462 0.37202 0.63759 0.0
H1263 H 0.42515 0.34662 0.5796 0.0
C1264 C 0.4419 0.31493 0.3071 0.0
C1265 C 0.43266 0.32154 0.28335 0.0
C1266 C 0.44198 0.31225 0.36946 0.0
C1267 C 0.43264 0.31591 0.40914 0.0
C1268 C 0.42304 0.32202 0.38505 0.0
C1269 C 0.42304 0.32478 0.32307 0.0
C1270 C 0.43339 0.31423 0.47596 0.0
C1271 C 0.4375 0.32791 0.51226 0.0
C1272 C 0.4305 0.29957 0.50397 0.0
C1273 C 0.42587 0.28457 0.46867 0.0
C1274 C 0.41224 0.27798 0.43012 0.0
C1275 C 0.40813 0.26397 0.3964 0.0
C1276 C 0.41751 0.25639 0.4012 0.0
C1277 C 0.43096 0.26275 0.43986 0.0
C1278 C 0.43513 0.27676 0.47361 0.0
C1279 C 0.43136 0.31683 0.77291 0.0
C1280 C 0.44154 0.31137 0.79729 0.0
C1281 C 0.42901 0.31673 0.71032 0.0
C1282 C 0.43697 0.31141 0.67047 0.0
C1283 C 0.44654 0.30531 0.69485 0.0
C1284 C 0.44874 0.30523 0.7573 0.0
C1285 C 0.43586 0.31272 0.60352 0.0
C1286 C 0.43178 0.29902 0.56722 0.0
C1287 C 0.43902 0.32744 0.57525 0.0
C1288 C 0.44474 0.34277 0.60977 0.0
C1289 C 0.45892 0.34907 0.64533 0.0
C1290 C 0.46416 0.36343 0.67823 0.0
C1291 C 0.45539 0.37168 0.67552 0.0
C1292 C 0.44139 0.36561 0.63974 0.0
C1293 C 0.43609 0.35123 0.60681 0.0
H1294 H 0.45946 0.38279 0.70103 0.0
H1295 H 0.41435 0.24556 0.37508 0.0
H1296 H 0.58629 0.89192 0.23357 0.0
H1297 H 0.59074 0.89358 0.34296 0.0
H1298 H 0.54831 0.84596 0.3642 0.0
H1299 H 0.54373 0.84443 0.25511 0.0
H1300 H 0.54682 0.86545 0.4426 0.0
H1301 H 0.58857 0.85376 0.38575 0.0
H1302 H 0.61259 0.85733 0.32951 0.0
H1303 H 0.64128 0.90547 0.40277 0.0
H1304 H 0.61737 0.90228 0.45882 0.0
H1305 H 0.55893 0.86149 0.75893 0.0
H1306 H 0.55694 0.85515 0.65067 0.0
H1307 H 0.59677 0.90352 0.61476 0.0
H1308 H 0.599 0.90975 0.72246 0.0
H1309 H 0.59936 0.88173 0.545 0.0
H1310 H 0.55698 0.89387 0.59531 0.0
H1311 H 0.53291 0.89032 0.65117 0.0
H1312 H 0.50535 0.84083 0.58943 0.0
H1313 H 0.52936 0.84404 0.53382 0.0
C1314 C 0.57813 0.88167 0.26143 0.0
C1315 C 0.56462 0.86807 0.23551 0.0
C1316 C 0.58066 0.88262 0.32417 0.0
C1317 C 0.5699 0.86987 0.36243 0.0
C1318 C 0.55675 0.85603 0.33615 0.0
C1319 C 0.55415 0.85515 0.27363 0.0
C1320 C 0.57173 0.8713 0.42981 0.0
C1321 C 0.55826 0.86871 0.46488 0.0
C1322 C 0.58669 0.8759 0.45947 0.0
C1323 C 0.60113 0.87783 0.42609 0.0
C1324 C 0.59997 0.86515 0.38954 0.0
C1325 C 0.61357 0.8671 0.35774 0.0
C1326 C 0.62844 0.88163 0.36246 0.0
C1327 C 0.62975 0.89423 0.39912 0.0
C1328 C 0.61618 0.89235 0.43096 0.0
C1329 C 0.56743 0.87067 0.72809 0.0
C1330 C 0.57902 0.8862 0.74951 0.0
C1331 C 0.56621 0.86708 0.66604 0.0
C1332 C 0.57655 0.87894 0.62407 0.0
C1333 C 0.58859 0.89417 0.64584 0.0
C1334 C 0.58977 0.89776 0.70758 0.0
C1335 C 0.57447 0.87589 0.55741 0.0
C1336 C 0.58789 0.87827 0.52256 0.0
C1337 C 0.55946 0.87105 0.52786 0.0
C1338 C 0.54501 0.86914 0.561 0.0
C1339 C 0.54582 0.8822 0.59403 0.0
C1340 C 0.53219 0.88025 0.62558 0.0
C1341 C 0.51762 0.86534 0.624 0.0
C1342 C 0.51665 0.85236 0.59071 0.0
C1343 C 0.53026 0.85424 0.55915 0.0
H1344 H 0.50708 0.86386 0.64845 0.0
H1345 H 0.63896 0.88311 0.3378 0.0
H1346 H 0.67453 0.55677 0.74318 0.0
H1347 H 0.67177 0.55255 0.63393 0.0
H1348 H 0.71364 0.60017 0.60619 0.0
H1349 H 0.71677 0.60436 0.71494 0.0
H1350 H 0.68787 0.59431 0.53117 0.0
H1351 H 0.71752 0.56742 0.59119 0.0
H1352 H 0.72207 0.548 0.65048 0.0
H1353 H 0.67758 0.5082 0.58137 0.0
H1354 H 0.67265 0.52743 0.52229 0.0
H1355 H 0.70441 0.58774 0.22174 0.0
H1356 H 0.70543 0.59199 0.33115 0.0
H1357 H 0.66797 0.54181 0.35562 0.0
H1358 H 0.66726 0.53749 0.24666 0.0
H1359 H 0.69076 0.54873 0.43346 0.0
H1360 H 0.66086 0.57475 0.37209 0.0
H1361 H 0.65539 0.5937 0.31383 0.0
H1362 H 0.69871 0.63438 0.38591 0.0
H1363 H 0.70457 0.61566 0.444 0.0
C1364 C 0.68329 0.56628 0.71406 0.0
C1365 C 0.69588 0.58093 0.73835 0.0
C1366 C 0.68163 0.56387 0.65149 0.0
C1367 C 0.69252 0.57604 0.61192 0.0
C1368 C 0.70503 0.59066 0.63587 0.0
C1369 C 0.70676 0.59305 0.69828 0.0
C1370 C 0.691 0.57356 0.5455 0.0
C1371 C 0.68866 0.58445 0.50962 0.0
C1372 C 0.69162 0.56046 0.51765 0.0
C1373 C 0.69463 0.54888 0.55281 0.0
C1374 C 0.70864 0.55454 0.58901 0.0
C1375 C 0.7113 0.54357 0.62251 0.0
C1376 C 0.7001 0.52688 0.61982 0.0
C1377 C 0.68623 0.52113 0.58348 0.0
C1378 C 0.68351 0.53206 0.54994 0.0
C1379 C 0.69626 0.57771 0.2505 0.0
C1380 C 0.68579 0.56228 0.22572 0.0
C1381 C 0.69682 0.58013 0.31304 0.0
C1382 C 0.68668 0.56725 0.35187 0.0
C1383 C 0.67599 0.55192 0.32685 0.0
C1384 C 0.67558 0.54946 0.26455 0.0
C1385 C 0.68759 0.56949 0.41863 0.0
C1386 C 0.68986 0.55856 0.45473 0.0
C1387 C 0.68674 0.58248 0.44669 0.0
C1388 C 0.68323 0.59378 0.41195 0.0
C1389 C 0.66929 0.58773 0.37517 0.0
C1390 C 0.6661 0.59843 0.34223 0.0
C1391 C 0.67672 0.61523 0.34604 0.0
C1392 C 0.69051 0.62137 0.38294 0.0
C1393 C 0.69376 0.61071 0.41592 0.0
H1394 H 0.67423 0.6235 0.3205 0.0
H1395 H 0.70218 0.51841 0.64579 0.0
H1396 H 0.14476 0.6831 0.25423 0.0
H1397 H 0.14155 0.6852 0.36196 0.0
H1398 H 0.09943 0.69025 0.32906 0.0
H1399 H 0.10225 0.68767 0.22006 0.0
H1400 H 0.12187 0.71285 0.41435 0.0
H1401 H 0.0931 0.65521 0.37913 0.0
H1402 H 0.08952 0.62932 0.33935 0.0
H1403 H 0.1298 0.635 0.44681 0.0
H1404 H 0.13378 0.66105 0.48658 0.0
H1405 H 0.09927 0.70387 0.72292 0.0
H1406 H 0.09906 0.70047 0.61363 0.0
H1407 H 0.13661 0.68756 0.63022 0.0
H1408 H 0.13666 0.69073 0.74007 0.0
H1409 H 0.11461 0.66825 0.55158 0.0
H1410 H 0.14486 0.72604 0.58233 0.0
H1411 H 0.14987 0.75254 0.6211 0.0
H1412 H 0.10863 0.74744 0.52162 0.0
H1413 H 0.10324 0.72078 0.4829 0.0
C1414 C 0.13463 0.68441 0.26937 0.0
C1415 C 0.12361 0.68495 0.22794 0.0
C1416 C 0.13289 0.68571 0.3313 0.0
C1417 C 0.12013 0.68765 0.3536 0.0
C1418 C 0.10933 0.68869 0.3127 0.0
C1419 C 0.111 0.68726 0.25039 0.0
C1420 C 0.11824 0.68858 0.4198 0.0
C1421 C 0.11997 0.703 0.44439 0.0
C1422 C 0.11625 0.67589 0.45896 0.0
C1423 C 0.11381 0.66016 0.43547 0.0
C1424 C 0.10127 0.651 0.39394 0.0
C1425 C 0.09916 0.63628 0.37145 0.0
C1426 C 0.10945 0.63053 0.39044 0.0
C1427 C 0.12185 0.63947 0.4321 0.0
C1428 C 0.12402 0.65421 0.45469 0.0
C1429 C 0.10756 0.70041 0.70329 0.0
C1430 C 0.1181 0.69772 0.74013 0.0
C1431 C 0.10743 0.69846 0.64073 0.0
C1432 C 0.11803 0.69405 0.61339 0.0
C1433 C 0.12833 0.69101 0.65018 0.0
C1434 C 0.12835 0.6928 0.71296 0.0
C1435 C 0.11837 0.69261 0.5465 0.0
C1436 C 0.11638 0.67809 0.52171 0.0
C1437 C 0.1203 0.70528 0.50719 0.0
C1438 C 0.12354 0.72133 0.53023 0.0
C1439 C 0.13678 0.73051 0.56909 0.0
C1440 C 0.1397 0.74557 0.591 0.0
C1441 C 0.12955 0.75165 0.57397 0.0
C1442 C 0.11647 0.7427 0.53485 0.0
C1443 C 0.11348 0.72762 0.51287 0.0
H1444 H 0.13183 0.76331 0.59098 0.0
H1445 H 0.1078 0.61914 0.37297 0.0
H1446 H 0.46557 0.16048 0.285 0.0
H1447 H 0.46108 0.15943 0.39391 0.0
H1448 H 0.41815 0.1121 0.37492 0.0
H1449 H 0.42253 0.11326 0.26526 0.0
H1450 H 0.41332 0.1294 0.46017 0.0
H1451 H 0.45523 0.11644 0.41769 0.0
H1452 H 0.48106 0.12085 0.37393 0.0
H1453 H 0.50758 0.16497 0.47634 0.0
H1454 H 0.48187 0.16094 0.52008 0.0
H1455 H 0.4102 0.09792 0.75427 0.0
H1456 H 0.41197 0.10415 0.64667 0.0
H1457 H 0.45345 0.1517 0.68022 0.0
H1458 H 0.45181 0.14535 0.78867 0.0
H1459 H 0.45926 0.13617 0.58866 0.0
H1460 H 0.41682 0.14748 0.63763 0.0
H1461 H 0.39074 0.14216 0.68184 0.0
H1462 H 0.36488 0.10011 0.56839 0.0
H1463 H 0.39084 0.10504 0.52407 0.0
C1464 C 0.45509 0.14991 0.30392 0.0
C1465 C 0.44451 0.13687 0.26647 0.0
C1466 C 0.45254 0.1493 0.36633 0.0
C1467 C 0.43949 0.13551 0.3932 0.0
C1468 C 0.42837 0.12284 0.35553 0.0
C1469 C 0.43084 0.12353 0.29276 0.0
C1470 C 0.438 0.13402 0.46052 0.0
C1471 C 0.42332 0.13072 0.48817 0.0
C1472 C 0.45113 0.13608 0.49761 0.0
C1473 C 0.46662 0.13848 0.47166 0.0
C1474 C 0.46656 0.12715 0.43054 0.0
C1475 C 0.48118 0.12957 0.40579 0.0
C1476 C 0.49595 0.1432 0.42222 0.0
C1477 C 0.49613 0.15443 0.46358 0.0
C1478 C 0.48154 0.15208 0.48839 0.0
C1479 C 0.41961 0.10978 0.73889 0.0
C1480 C 0.43091 0.12111 0.78009 0.0
C1481 C 0.42054 0.11338 0.67726 0.0
C1482 C 0.43279 0.12844 0.65498 0.0
C1483 C 0.44386 0.14 0.6962 0.0
C1484 C 0.44285 0.13643 0.75824 0.0
C1485 C 0.43458 0.13153 0.5884 0.0
C1486 C 0.44931 0.13503 0.56079 0.0
C1487 C 0.42146 0.12953 0.55147 0.0
C1488 C 0.4058 0.12656 0.57786 0.0
C1489 C 0.40559 0.13702 0.62242 0.0
C1490 C 0.39082 0.13409 0.64745 0.0
C1491 C 0.37616 0.12079 0.62802 0.0
C1492 C 0.37625 0.11041 0.58342 0.0
C1493 C 0.39098 0.11327 0.55827 0.0
H1494 H 0.36474 0.11854 0.64746 0.0
H1495 H 0.50725 0.14506 0.40301 0.0
H1496 H 0.32318 0.45233 0.71341 0.0
H1497 H 0.32714 0.45678 0.60472 0.0
H1498 H 0.30694 0.40517 0.57692 0.0
H1499 H 0.30372 0.4007 0.68548 0.0
H1500 H 0.33168 0.4211 0.50402 0.0
H1501 H 0.28417 0.42439 0.55471 0.0
H1502 H 0.26831 0.43445 0.60963 0.0
H1503 H 0.30035 0.48289 0.54442 0.0
H1504 H 0.31654 0.47315 0.48972 0.0
H1505 H 0.30974 0.41868 0.19188 0.0
H1506 H 0.30964 0.41477 0.30116 0.0
H1507 H 0.33464 0.4668 0.32739 0.0
H1508 H 0.33513 0.47085 0.21864 0.0
H1509 H 0.30785 0.45083 0.40052 0.0
H1510 H 0.35471 0.44654 0.34616 0.0
H1511 H 0.3695 0.43556 0.28952 0.0
H1512 H 0.33725 0.38777 0.35987 0.0
H1513 H 0.32211 0.39842 0.41627 0.0
C1514 C 0.31979 0.44193 0.68446 0.0
C1515 C 0.31294 0.42611 0.70865 0.0
C1516 C 0.32191 0.44449 0.62206 0.0
C1517 C 0.31705 0.43127 0.58236 0.0
C1518 C 0.31069 0.41556 0.60645 0.0
C1519 C 0.30868 0.41301 0.66876 0.0
C1520 C 0.31821 0.43372 0.51572 0.0
C1521 C 0.32631 0.42745 0.48137 0.0
C1522 C 0.31141 0.44219 0.486 0.0
C1523 C 0.30167 0.44807 0.51864 0.0
C1524 C 0.28791 0.43721 0.55245 0.0
C1525 C 0.27885 0.44285 0.58348 0.0
C1526 C 0.28335 0.45931 0.58065 0.0
C1527 C 0.2969 0.47015 0.54664 0.0
C1528 C 0.30601 0.46458 0.51558 0.0
C1529 C 0.31545 0.42931 0.2207 0.0
C1530 C 0.32232 0.44509 0.19613 0.0
C1531 C 0.31534 0.42704 0.28326 0.0
C1532 C 0.32212 0.4405 0.32245 0.0
C1533 C 0.32923 0.45624 0.29806 0.0
C1534 C 0.32942 0.45852 0.2357 0.0
C1535 C 0.32134 0.43826 0.38901 0.0
C1536 C 0.31326 0.44453 0.42327 0.0
C1537 C 0.32801 0.42966 0.41847 0.0
C1538 C 0.33718 0.42325 0.38497 0.0
C1539 C 0.35069 0.43366 0.34918 0.0
C1540 C 0.35915 0.4275 0.31718 0.0
C1541 C 0.35429 0.41097 0.32096 0.0
C1542 C 0.34099 0.40057 0.35691 0.0
C1543 C 0.33247 0.40666 0.38895 0.0
H1544 H 0.36086 0.40622 0.29613 0.0
H1545 H 0.27632 0.46365 0.60471 0.0
H1546 H 0.91681 0.31612 0.68224 0.0
H1547 H 0.91216 0.31375 0.57337 0.0
H1548 H 0.86476 0.30872 0.60053 0.0
H1549 H 0.86932 0.31086 0.7101 0.0
H1550 H 0.86322 0.28862 0.514 0.0
H1551 H 0.89806 0.34532 0.55553 0.0
H1552 H 0.92208 0.36955 0.59725 0.0
H1553 H 0.95364 0.3596 0.48867 0.0
H1554 H 0.92981 0.33516 0.44692 0.0
H1555 H 0.85284 0.30917 0.21502 0.0
H1556 H 0.85676 0.30936 0.3236 0.0
H1557 H 0.90184 0.30948 0.29563 0.0
H1558 H 0.89787 0.30888 0.18636 0.0
H1559 H 0.90448 0.3319 0.38193 0.0
H1560 H 0.86885 0.27517 0.33922 0.0
H1561 H 0.84441 0.25147 0.29703 0.0
H1562 H 0.81379 0.26229 0.40746 0.0
H1563 H 0.83805 0.28622 0.44969 0.0
C1564 C 0.90539 0.31451 0.66506 0.0
C1565 C 0.89351 0.31387 0.70482 0.0
C1566 C 0.90275 0.31318 0.60272 0.0
C1567 C 0.88826 0.31143 0.57839 0.0
C1568 C 0.87608 0.31015 0.61809 0.0
C1569 C 0.87867 0.31133 0.68073 0.0
C1570 C 0.88602 0.31126 0.51162 0.0
C1571 C 0.87214 0.29821 0.48528 0.0
C1572 C 0.89779 0.32359 0.47369 0.0
C1573 C 0.91215 0.33832 0.49854 0.0
C1574 C 0.91013 0.34823 0.54088 0.0
C1575 C 0.92371 0.36201 0.56449 0.0
C1576 C 0.93938 0.36609 0.54574 0.0
C1577 C 0.9415 0.35641 0.50322 0.0
C1578 C 0.92796 0.3426 0.47953 0.0
C1579 C 0.86351 0.30901 0.23143 0.0
C1580 C 0.87494 0.30884 0.19112 0.0
C1581 C 0.86575 0.30919 0.2939 0.0
C1582 C 0.87949 0.30924 0.31789 0.0
C1583 C 0.89112 0.30941 0.27813 0.0
C1584 C 0.88884 0.30913 0.21547 0.0
C1585 C 0.88172 0.30926 0.38448 0.0
C1586 C 0.89559 0.32231 0.41073 0.0
C1587 C 0.86988 0.29701 0.4223 0.0
C1588 C 0.85527 0.28258 0.39719 0.0
C1589 C 0.8569 0.27258 0.35415 0.0
C1590 C 0.84308 0.25909 0.33029 0.0
C1591 C 0.82755 0.2554 0.34944 0.0
C1592 C 0.82582 0.26518 0.39261 0.0
C1593 C 0.8396 0.2787 0.41656 0.0
H1594 H 0.81687 0.24495 0.33092 0.0
H1595 H 0.94988 0.37676 0.56407 0.0
H1596 H 0.0753 0.39308 0.04086 0.0
H1597 H 0.04715 0.36976 0.04112 0.0
H1598 H 0.03044 0.39946 0.95403 0.0
H1599 H 0.05817 0.42238 0.95234 0.0
H1600 H 0.01576 0.38433 0.07436 0.0
H1601 H 0.02932 0.37291 0.8735 0.0
H1602 H 0.04518 0.36578 0.80428 0.0
H1603 H 0.03097 0.32186 0.90445 0.0
H1604 H 0.01521 0.32886 0.97482 0.0
H1605 H 0.93438 0.34419 0.9871 0.0
H1606 H 0.96382 0.35987 0.99687 0.0
H1607 H 0.96555 0.3155 0.01898 0.0
H1608 H 0.93586 0.29956 1.00652 0.0
H1609 H 0.98906 0.33447 0.94812 0.0
H1610 H 0.97263 0.34279 0.14019 0.0
H1611 H 0.9571 0.34902 0.21427 0.0
H1612 H 0.97733 0.39736 0.14199 0.0
H1613 H 0.99281 0.39136 0.06688 0.0
C1614 C 0.06568 0.39442 0.02001 0.0
C1615 C 0.06895 0.40962 0.99698 0.0
C1616 C 0.04961 0.38115 0.02062 0.0
C1617 C 0.0367 0.38299 0.9983 0.0
C1618 C 0.04018 0.39782 0.97196 0.0
C1619 C 0.05609 0.41091 0.97092 0.0
C1620 C 0.01935 0.37022 1.00639 0.0
C1621 C 0.00988 0.3734 0.04681 0.0
C1622 C 0.01184 0.35569 0.97224 0.0
C1623 C 0.02129 0.35152 0.92988 0.0
C1624 C 0.02973 0.36182 0.88117 0.0
C1625 C 0.03866 0.35778 0.84162 0.0
C1626 C 0.03913 0.34341 0.85009 0.0
C1627 C 0.03063 0.33301 0.89802 0.0
C1628 C 0.02169 0.33701 0.93772 0.0
C1629 C 0.94091 0.33769 0.99491 0.0
C1630 C 0.93264 0.32056 0.99643 0.0
C1631 C 0.95785 0.34673 1.00073 0.0
C1632 C 0.96703 0.33897 1.00987 0.0
C1633 C 0.95881 0.32184 1.01217 0.0
C1634 C 0.9418 0.31273 1.00538 0.0
C1635 C 0.98521 0.34885 0.0146 0.0
C1636 C 0.99487 0.34517 0.97679 0.0
C1637 C 0.99299 0.36282 0.05214 0.0
C1638 C 0.98383 0.36658 0.09766 0.0
C1639 C 0.9737 0.35472 0.13987 0.0
C1640 C 0.96491 0.35821 0.18207 0.0
C1641 C 0.96621 0.37357 0.18279 0.0
C1642 C 0.97634 0.38547 0.14139 0.0
C1643 C 0.98515 0.38204 0.09905 0.0
H1644 H 0.95938 0.37625 0.21547 0.0
H1645 H 0.04605 0.3403 0.81942 0.0
H1646 H 0.6092 0.92964 0.96255 0.0
H1647 H 0.62487 0.95901 0.94392 0.0
H1648 H 0.6179 0.96812 0.1292 0.0
H1649 H 0.60181 0.93888 0.14758 0.0
H1650 H 0.61107 0.98596 0.05824 0.0
H1651 H 0.65532 0.97534 0.07499 0.0
H1652 H 0.67099 0.96166 0.05149 0.0
H1653 H 0.67607 0.97773 0.86737 0.0
H1654 H 0.66023 0.99133 0.88959 0.0
H1655 H 0.68517 0.07195 0.02766 0.0
H1656 H 0.67467 0.04268 0.04039 0.0
H1657 H 0.63405 0.03233 0.92436 0.0
H1658 H 0.64431 0.06145 0.91188 0.0
H1659 H 0.66598 0.01569 0.96502 0.0
H1660 H 0.59976 0.00226 0.99276 0.0
H1661 H 0.58535 0.01688 0.02204 0.0
H1662 H 0.62617 0.04975 0.13108 0.0
H1663 H 0.64066 0.03513 0.10348 0.0
C1664 C 0.611 0.93788 0.99936 0.0
C1665 C 0.60395 0.93181 0.05628 0.0
C1666 C 0.62012 0.95471 0.98878 0.0
C1667 C 0.62258 0.96587 0.03511 0.0
C1668 C 0.6161 0.95982 0.09254 0.0
C1669 C 0.60695 0.94303 0.10307 0.0
C1670 C 0.63113 0.98379 0.02331 0.0
C1671 C 0.62307 0.9924 0.03785 0.0
C1672 C 0.6469 0.99236 0.9973 0.0
C1673 C 0.65646 0.98422 0.98384 0.0
C1674 C 0.65967 0.97585 0.02938 0.0
C1675 C 0.6686 0.96813 0.01631 0.0
C1676 C 0.67449 0.96879 0.95794 0.0
C1677 C 0.67149 0.97721 0.91255 0.0
C1678 C 0.66254 0.98494 0.92537 0.0
C1679 C 0.67411 0.06347 1.00428 0.0
C1680 C 0.66546 0.06911 0.96961 0.0
C1681 C 0.66818 0.04672 1.0113 0.0
C1682 C 0.65344 0.0353 0.98408 0.0
C1683 C 0.64534 0.04091 0.94641 0.0
C1684 C 0.65127 0.05761 0.93923 0.0
C1685 C 0.64576 0.01765 0.99908 0.0
C1686 C 0.65396 0.00915 0.98522 0.0
C1687 C 0.63023 0.00919 0.02672 0.0
C1688 C 0.62135 0.01769 0.04549 0.0
C1689 C 0.6056 0.01254 0.02331 0.0
C1690 C 0.59743 0.02083 0.0396 0.0
C1691 C 0.60486 0.03427 0.07823 0.0
C1692 C 0.62044 0.03937 0.10103 0.0
C1693 C 0.62864 0.03108 0.08509 0.0
H1694 H 0.59854 0.04071 0.09058 0.0
H1695 H 0.68141 0.9628 0.94791 0.0
H1696 H 0.64362 0.58314 0.95997 0.0
H1697 H 0.63275 0.60125 0.97733 0.0
H1698 H 0.67892 0.63745 0.05163 0.0
H1699 H 0.6899 0.61895 0.03512 0.0
H1700 H 0.65181 0.63593 0.11187 0.0
H1701 H 0.67088 0.6412 0.90858 0.0
H1702 H 0.67366 0.63111 0.80922 0.0
H1703 H 0.62203 0.60872 0.78093 0.0
H1704 H 0.61889 0.61845 0.88056 0.0
H1705 H 0.62737 0.6955 0.07854 0.0
H1706 H 0.64309 0.68158 0.06849 0.0
H1707 H 0.60235 0.64139 0.97938 0.0
H1708 H 0.58665 0.65536 0.98827 0.0
H1709 H 0.63016 0.64787 0.92637 0.0
H1710 H 0.61064 0.64046 0.13128 0.0
H1711 H 0.60721 0.64974 0.23135 0.0
H1712 H 0.65909 0.67561 0.2571 0.0
H1713 H 0.66284 0.6667 0.15667 0.0
C1714 C 0.65144 0.59487 0.98085 0.0
C1715 C 0.66768 0.59973 0.99553 0.0
C1716 C 0.64521 0.60524 0.99059 0.0
C1717 C 0.65512 0.6209 0.01426 0.0
C1718 C 0.67108 0.62546 0.03278 0.0
C1719 C 0.67734 0.6149 0.02356 0.0
C1720 C 0.64884 0.63253 0.01569 0.0
C1721 C 0.64738 0.63882 0.07119 0.0
C1722 C 0.64277 0.6361 0.96273 0.0
C1723 C 0.64465 0.63048 0.90223 0.0
C1724 C 0.6601 0.63405 0.88131 0.0
C1725 C 0.66174 0.6284 0.82493 0.0
C1726 C 0.64802 0.61927 0.78882 0.0
C1727 C 0.63264 0.6158 0.80895 0.0
C1728 C 0.63093 0.6214 0.86534 0.0
C1729 C 0.62179 0.68378 0.05611 0.0
C1730 C 0.60565 0.67653 0.03459 0.0
C1731 C 0.63078 0.67577 0.05078 0.0
C1732 C 0.62383 0.66025 0.02429 0.0
C1733 C 0.60799 0.65331 1.00032 0.0
C1734 C 0.599 0.66134 1.00542 0.0
C1735 C 0.63281 0.65104 0.02272 0.0
C1736 C 0.63478 0.64518 0.96703 0.0
C1737 C 0.63929 0.64787 0.07552 0.0
C1738 C 0.63703 0.65306 0.13619 0.0
C1739 C 0.62132 0.64822 0.1581 0.0
C1740 C 0.61932 0.65341 0.2149 0.0
C1741 C 0.63292 0.66329 0.2505 0.0
C1742 C 0.64856 0.66797 0.22943 0.0
C1743 C 0.65064 0.66286 0.17258 0.0
H1744 H 0.63135 0.66729 0.29446 0.0
H1745 H 0.64932 0.61489 0.7452 0.0
H1746 H 0.06272 0.67551 0.89276 0.0
H1747 H 0.03414 0.66455 0.91755 0.0
H1748 H 0.04491 0.6632 0.10612 0.0
H1749 H 0.07387 0.67412 0.081 0.0
H1750 H 0.02058 0.63472 0.07198 0.0
H1751 H 0.0307 0.68856 0.05514 0.0
H1752 H 0.04162 0.71605 1.01192 0.0
H1753 H 0.01238 0.69561 0.85302 0.0
H1754 H 1.00146 0.66797 0.89481 0.0
H1755 H 0.92966 0.60944 0.07003 0.0
H1756 H 0.9579 0.63246 0.07402 0.0
H1757 H 0.97325 0.60629 0.95714 0.0
H1758 H 0.94539 0.58353 0.95299 0.0
H1759 H 0.98375 0.65261 0.9847 0.0
H1760 H 0.00412 0.60515 0.03046 0.0
H1761 H 0.99281 0.57788 0.07629 0.0
H1762 H 0.96122 0.58713 0.18769 0.0
H1763 H 0.97258 0.61456 0.14344 0.0
C1764 C 0.05911 0.67319 0.93976 0.0
C1765 C 0.07056 0.67561 0.9849 0.0
C1766 C 0.04272 0.66703 0.95397 0.0
C1767 C 0.03728 0.66314 0.01381 0.0
C1768 C 0.0488 0.66618 0.0596 0.0
C1769 C 0.06536 0.67249 0.04533 0.0
C1770 C 0.01939 0.65419 0.02632 0.0
C1771 C 0.01259 0.63881 0.0538 0.0
C1772 C 0.00883 0.65954 1.00356 0.0
C1773 C 0.01529 0.67616 0.97813 0.0
C1774 C 0.02666 0.68991 1.01082 0.0
C1775 C 0.03285 0.70553 0.98658 0.0
C1776 C 0.0277 0.70758 0.92974 0.0
C1777 C 0.01634 0.69401 0.89707 0.0
C1778 C 0.01012 0.67836 0.92108 0.0
C1779 C 0.93898 0.60891 0.04349 0.0
C1780 C 0.93536 0.59467 1.01143 0.0
C1781 C 0.95511 0.622 0.0461 0.0
C1782 C 0.96771 0.62093 0.01679 0.0
C1783 C 0.96377 0.60729 0.98077 0.0
C1784 C 0.94781 0.59431 0.97827 0.0
C1785 C 0.98519 0.63301 0.02764 0.0
C1786 C 0.99184 0.64882 1.0043 0.0
C1787 C 0.99566 0.6282 0.05502 0.0
C1788 C 0.98915 0.61189 0.08332 0.0
C1789 C 0.99486 0.60143 0.06509 0.0
C1790 C 0.98842 0.58593 0.09074 0.0
C1791 C 0.97628 0.58077 0.13478 0.0
C1792 C 0.9706 0.59112 0.15348 0.0
C1793 C 0.97703 0.60665 0.12811 0.0
H1794 H 0.97129 0.56875 0.15446 0.0
H1795 H 0.03251 0.71968 0.91105 0.0
H1796 H 0.34168 0.94424 0.88886 0.0
H1797 H 0.35257 0.97326 0.90674 0.0
H1798 H 0.34288 0.96398 0.09721 0.0
H1799 H 0.33121 0.9348 0.07923 0.0
H1800 H 0.33776 0.98765 0.06604 0.0
H1801 H 0.38128 0.97672 0.03525 0.0
H1802 H 0.39687 0.96601 0.98245 0.0
H1803 H 0.40382 0.9972 0.83111 0.0
H1804 H 0.38804 0.00792 0.88266 0.0
H1805 H 0.40109 0.06601 0.17133 0.0
H1806 H 0.3834 0.03709 0.14865 0.0
H1807 H 0.38462 0.04841 0.95956 0.0
H1808 H 0.40177 0.07742 0.98199 0.0
H1809 H 0.39355 0.02414 0.98802 0.0
H1810 H 0.35079 0.03618 0.02801 0.0
H1811 H 0.33622 0.04684 0.08778 0.0
H1812 H 0.32951 0.01358 0.23141 0.0
H1813 H 0.34427 0.00287 0.17283 0.0
C1814 C 0.34164 0.9483 0.93453 0.0
C1815 C 0.33592 0.93714 0.98283 0.0
C1816 C 0.34799 0.96496 0.94475 0.0
C1817 C 0.34904 0.97095 1.00363 0.0
C1818 C 0.34241 0.95975 0.05144 0.0
C1819 C 0.33584 0.94302 0.04112 0.0
C1820 C 0.35778 0.98886 0.01558 0.0
C1821 C 0.35001 0.99558 0.0494 0.0
C1822 C 0.37375 0.99934 0.99358 0.0
C1823 C 0.38333 0.99299 0.96255 0.0
C1824 C 0.38603 0.98121 0.99052 0.0
C1825 C 0.39491 0.97515 0.96085 0.0
C1826 C 0.40129 0.98089 0.9034 0.0
C1827 C 0.39884 0.99274 0.87557 0.0
C1828 C 0.38993 0.99882 0.905 0.0
C1829 C 0.39742 0.06243 0.12495 0.0
C1830 C 0.40323 0.07411 0.0783 0.0
C1831 C 0.38728 0.04586 0.11211 0.0
C1832 C 0.38279 0.04057 0.05236 0.0
C1833 C 0.38805 0.05221 1.00595 0.0
C1834 C 0.39796 0.06881 0.01887 0.0
C1835 C 0.37349 0.02287 0.03803 0.0
C1836 C 0.38124 0.01619 1.0041 0.0
C1837 C 0.35767 0.01243 0.06098 0.0
C1838 C 0.34878 0.01883 0.09625 0.0
C1839 C 0.34635 0.03124 0.07257 0.0
C1840 C 0.33802 0.03727 0.10619 0.0
C1841 C 0.33198 0.03092 0.16342 0.0
C1842 C 0.33422 0.0185 0.1871 0.0
C1843 C 0.34255 0.01243 0.15368 0.0
H1844 H 0.32554 0.03561 0.18937 0.0
H1845 H 0.40817 0.97618 0.8805 0.0
H1846 H 0.33549 0.40677 0.0598 0.0
H1847 H 0.34672 0.38891 0.08396 0.0
H1848 H 0.33592 0.36956 0.90295 0.0
H1849 H 0.32487 0.38727 0.87899 0.0
H1850 H 0.33284 0.34612 0.98408 0.0
H1851 H 0.37171 0.40267 0.93208 0.0
H1852 H 0.38446 0.43232 0.9482 0.0
H1853 H 0.39889 0.42705 0.12689 0.0
H1854 H 0.38597 0.39731 0.11209 0.0
H1855 H 0.4194 0.35958 0.91789 0.0
H1856 H 0.3979 0.36659 0.9208 0.0
H1857 H 0.37329 0.33078 0.06045 0.0
H1858 H 0.39497 0.3236 0.0572 0.0
H1859 H 0.39238 0.38006 0.0183 0.0
H1860 H 0.33154 0.32085 0.05255 0.0
H1861 H 0.31854 0.29156 0.02824 0.0
H1862 H 0.34886 0.30265 0.87126 0.0
H1863 H 0.36188 0.33199 0.89422 0.0
C1864 C 0.33498 0.39825 0.02612 0.0
C1865 C 0.32941 0.39843 0.96748 0.0
C1866 C 0.34146 0.38811 0.03976 0.0
C1867 C 0.34234 0.378 0.99499 0.0
C1868 C 0.33537 0.37718 0.93827 0.0
C1869 C 0.32912 0.38737 0.92454 0.0
C1870 C 0.35263 0.37029 1.00279 0.0
C1871 C 0.34582 0.35347 0.99266 0.0
C1872 C 0.36962 0.37988 1.0129 0.0
C1873 C 0.37774 0.39778 0.02125 0.0
C1874 C 0.37754 0.40784 0.97489 0.0
C1875 C 0.38479 0.42465 0.98379 0.0
C1876 C 0.39245 0.43156 0.03859 0.0
C1877 C 0.39293 0.42168 0.08451 0.0
C1878 C 0.38564 0.40484 0.07591 0.0
C1879 C 0.40913 0.35281 0.94787 0.0
C1880 C 0.40881 0.34098 0.98703 0.0
C1881 C 0.39693 0.35695 0.94997 0.0
C1882 C 0.38408 0.34942 0.99146 0.0
C1883 C 0.38307 0.33676 0.02796 0.0
C1884 C 0.39535 0.33253 0.02566 0.0
C1885 C 0.37266 0.35587 0.99872 0.0
C1886 C 0.37933 0.37254 1.01153 0.0
C1887 C 0.35562 0.34616 0.99023 0.0
C1888 C 0.34782 0.32858 0.97562 0.0
C1889 C 0.33541 0.31702 1.01282 0.0
C1890 C 0.32803 0.30042 0.99926 0.0
C1891 C 0.33292 0.29524 0.94838 0.0
C1892 C 0.34514 0.30666 0.91082 0.0
C1893 C 0.35254 0.32328 0.92415 0.0
H1894 H 0.32719 0.28238 0.93797 0.0
H1895 H 0.39804 0.44458 0.04542 0.0
loop_
_geom_bond_atom_site_label_1
_geom_bond_atom_site_label_2
_geom_bond_distance
_geom_bond_site_symmetry_2
_ccdc_geom_bond_type
C0 C1 1.351 . S
C0 N3 1.368 . S
C0 H5 0.931 . S
C1 C0 1.351 . S
C1 N2 1.373 . S
C1 H29 0.930 . S
N2 C1 1.373 . S
N2 C4 1.340 . S
N3 C0 1.368 . S
N3 C4 1.321 . S
N3 Co6 2.135 1_556 S
C4 N2 1.340 . S
C4 N3 1.321 . S
C4 H28 0.930 . S
H5 C0 0.931 . S
Co6 N3 2.135 1_554 S
Co6 N9 2.121 . S
Co6 O14 2.055 . S
Co6 O17 2.039 1_554 S
Co6 N20 2.140 1_554 S
C7 O8 1.227 . S
C7 O17 1.265 . S
O8 C7 1.227 . S
N9 Co6 2.121 . S
N9 C11 1.375 . S
N9 C12 1.313 . S
C10 C11 1.338 . S
C10 N13 1.377 . S
C10 H30 0.930 . S
C11 N9 1.375 . S
C11 C10 1.338 . S
C11 H15 0.931 . S
C12 N9 1.313 . S
C12 N13 1.344 . S
C12 H16 0.930 . S
N13 C10 1.377 . S
N13 C12 1.344 . S
O14 Co6 2.055 . S
O14 C18 1.253 . S
H15 C11 0.931 . S
H16 C12 0.930 . S
O17 Co6 2.039 1_556 S
O17 C7 1.265 . S
C18 O14 1.253 . S
C18 O19 1.227 . S
O19 C18 1.227 . S
N20 Co6 2.140 1_556 S
N20 C23 1.349 . S
N20 C24 1.342 1_556 S
C21 C22 1.387 . S
C21 C25 1.391 1_556 S
C22 C21 1.387 . S
C22 C23 1.369 . S
C22 H31 0.929 . S
C23 N20 1.349 . S
C23 C22 1.369 . S
C23 H26 0.928 . S
C24 N20 1.342 1_554 S
C24 C25 1.371 . S
C24 H27 0.931 . S
C25 C21 1.391 1_554 S
C25 C24 1.371 . S
C25 H32 0.930 . S
H26 C23 0.928 . S
H27 C24 0.931 . S
H28 C4 0.930 . S
H29 C1 0.930 . S
H30 C10 0.930 . S
H31 C22 0.929 . S
H32 C25 0.930 . S
C33 C34 1.351 . S
C33 N36 1.368 . S
C33 H38 0.931 . S
C34 C33 1.351 . S
C34 N35 1.373 . S
C34 H62 0.930 . S
N35 C34 1.373 . S
N35 C37 1.340 . S
N36 C33 1.368 . S
N36 C37 1.321 . S
N36 Co39 2.135 1_556 S
C37 N35 1.340 . S
C37 N36 1.321 . S
C37 H61 0.930 . S
H38 C33 0.931 . S
Co39 N36 2.135 1_554 S
Co39 N42 2.121 . S
Co39 O47 2.055 . S
Co39 O50 2.039 1_554 S
Co39 N53 2.140 1_554 S
C40 O41 1.227 . S
C40 O50 1.265 . S
O41 C40 1.227 . S
N42 Co39 2.121 . S
N42 C44 1.375 . S
N42 C45 1.313 . S
C43 C44 1.338 . S
C43 N46 1.377 . S
C43 H63 0.930 . S
C44 N42 1.375 . S
C44 C43 1.338 . S
C44 H48 0.931 . S
C45 N42 1.313 . S
C45 N46 1.344 . S
C45 H49 0.930 . S
N46 C43 1.377 . S
N46 C45 1.344 . S
O47 Co39 2.055 . S
O47 C51 1.253 . S
H48 C44 0.931 . S
H49 C45 0.930 . S
O50 Co39 2.039 1_556 S
O50 C40 1.265 . S
C51 O47 1.253 . S
C51 O52 1.227 . S
O52 C51 1.227 . S
N53 Co39 2.140 1_556 S
N53 C56 1.348 . S
N53 C57 1.343 1_556 S
C54 C55 1.387 . S
C54 C58 1.391 1_556 S
C55 C54 1.387 . S
C55 C56 1.369 . S
C55 H64 0.929 . S
C56 N53 1.348 . S
C56 C55 1.369 . S
C56 H59 0.928 . S
C57 N53 1.343 1_554 S
C57 C58 1.371 . S
C57 H60 0.931 . S
C58 C54 1.391 1_554 S
C58 C57 1.371 . S
C58 H65 0.930 . S
H59 C56 0.928 . S
H60 C57 0.931 . S
H61 C37 0.930 . S
H62 C34 0.930 . S
H63 C43 0.930 . S
H64 C55 0.929 . S
H65 C58 0.930 . S
C66 C67 1.351 . S
C66 N69 1.368 . S
C66 H71 0.931 . S
C67 C66 1.351 . S
C67 N68 1.373 . S
C67 H95 0.930 . S
N68 C67 1.373 . S
N68 C70 1.340 . S
N69 C66 1.368 . S
N69 C70 1.321 . S
N69 Co72 2.135 1_556 S
C70 N68 1.340 . S
C70 N69 1.321 . S
C70 H94 0.930 . S
H71 C66 0.931 . S
Co72 N69 2.135 1_554 S
Co72 N75 2.121 . S
Co72 O80 2.055 . S
Co72 O83 2.039 1_554 S
Co72 N86 2.140 1_554 S
C73 O74 1.227 . S
C73 O83 1.265 . S
O74 C73 1.227 . S
N75 Co72 2.121 . S
N75 C77 1.375 . S
N75 C78 1.313 . S
C76 C77 1.338 . S
C76 N79 1.377 . S
C76 H96 0.930 . S
C77 N75 1.375 . S
C77 C76 1.338 . S
C77 H81 0.931 . S
C78 N75 1.313 . S
C78 N79 1.344 . S
C78 H82 0.930 . S
N79 C76 1.377 . S
N79 C78 1.344 . S
O80 Co72 2.055 . S
O80 C84 1.253 . S
H81 C77 0.931 . S
H82 C78 0.930 . S
O83 Co72 2.039 1_556 S
O83 C73 1.265 . S
C84 O80 1.253 . S
C84 O85 1.227 . S
O85 C84 1.227 . S
N86 Co72 2.140 1_556 S
N86 C89 1.348 . S
N86 C90 1.343 1_556 S
C87 C88 1.387 . S
C87 C91 1.391 1_556 S
C88 C87 1.387 . S
C88 C89 1.369 . S
C88 H97 0.929 . S
C89 N86 1.348 . S
C89 C88 1.369 . S
C89 H92 0.928 . S
C90 N86 1.343 1_554 S
C90 C91 1.371 . S
C90 H93 0.931 . S
C91 C87 1.391 1_554 S
C91 C90 1.371 . S
C91 H98 0.930 . S
H92 C89 0.928 . S
H93 C90 0.931 . S
H94 C70 0.930 . S
H95 C67 0.930 . S
H96 C76 0.930 . S
H97 C88 0.929 . S
H98 C91 0.930 . S
C99 C100 1.351 . S
C99 N102 1.368 . S
C99 H104 0.931 . S
C100 C99 1.351 . S
C100 N101 1.373 . S
C100 H128 0.930 . S
N101 C100 1.373 . S
N101 C103 1.340 . S
N102 C99 1.368 . S
N102 C103 1.321 . S
N102 Co105 2.135 1_556 S
C103 N101 1.340 . S
C103 N102 1.321 . S
C103 H127 0.930 . S
H104 C99 0.931 . S
Co105 N102 2.135 1_554 S
Co105 N108 2.121 . S
Co105 O113 2.055 . S
Co105 O116 2.039 1_554 S
Co105 N119 2.140 1_554 S
C106 O107 1.227 . S
C106 O116 1.265 . S
O107 C106 1.227 . S
N108 Co105 2.121 . S
N108 C110 1.375 . S
N108 C111 1.313 . S
C109 C110 1.338 . S
C109 N112 1.377 . S
C109 H129 0.930 . S
C110 N108 1.375 . S
C110 C109 1.338 . S
C110 H114 0.931 . S
C111 N108 1.313 . S
C111 N112 1.344 . S
C111 H115 0.930 . S
N112 C109 1.377 . S
N112 C111 1.344 . S
O113 Co105 2.055 . S
O113 C117 1.253 . S
H114 C110 0.931 . S
H115 C111 0.930 . S
O116 Co105 2.039 1_556 S
O116 C106 1.265 . S
C117 O113 1.253 . S
C117 O118 1.227 . S
O118 C117 1.227 . S
N119 Co105 2.140 1_556 S
N119 C122 1.349 . S
N119 C123 1.342 1_556 S
C120 C121 1.387 . S
C120 C124 1.391 1_556 S
C121 C120 1.387 . S
C121 C122 1.369 . S
C121 H130 0.929 . S
C122 N119 1.349 . S
C122 C121 1.369 . S
C122 H125 0.928 . S
C123 N119 1.342 1_554 S
C123 C124 1.371 . S
C123 H126 0.931 . S
C124 C120 1.391 1_554 S
C124 C123 1.371 . S
C124 H131 0.930 . S
H125 C122 0.928 . S
H126 C123 0.931 . S
H127 C103 0.930 . S
H128 C100 0.930 . S
H129 C109 0.930 . S
H130 C121 0.929 . S
H131 C124 0.930 . S
C132 C133 1.351 . S
C132 N135 1.368 . S
C132 H137 0.931 . S
C133 C132 1.351 . S
C133 N134 1.373 . S
C133 H161 0.930 . S
N134 C133 1.373 . S
N134 C136 1.340 . S
N135 C132 1.368 . S
N135 C136 1.321 . S
N135 Co138 2.135 1_556 S
C136 N134 1.340 . S
C136 N135 1.321 . S
C136 H160 0.930 . S
H137 C132 0.931 . S
Co138 N135 2.135 1_554 S
Co138 N141 2.121 . S
Co138 O146 2.055 . S
Co138 O149 2.039 1_554 S
Co138 N152 2.140 1_554 S
C139 O140 1.227 . S
C139 O149 1.265 . S
O140 C139 1.227 . S
N141 Co138 2.121 . S
N141 C143 1.375 . S
N141 C144 1.313 . S
C142 C143 1.338 . S
C142 N145 1.377 . S
C142 H162 0.930 . S
C143 N141 1.375 . S
C143 C142 1.338 . S
C143 H147 0.931 . S
C144 N141 1.313 . S
C144 N145 1.344 . S
C144 H148 0.930 . S
N145 C142 1.377 . S
N145 C144 1.344 . S
O146 Co138 2.055 . S
O146 C150 1.253 . S
H147 C143 0.931 . S
H148 C144 0.930 . S
O149 Co138 2.039 1_556 S
O149 C139 1.265 . S
C150 O146 1.253 . S
C150 O151 1.227 . S
O151 C150 1.227 . S
N152 Co138 2.140 1_556 S
N152 C155 1.348 . S
N152 C156 1.343 1_556 S
C153 C154 1.387 . S
C153 C157 1.391 1_556 S
C154 C153 1.387 . S
C154 C155 1.369 . S
C154 H163 0.929 . S
C155 N152 1.348 . S
C155 C154 1.369 . S
C155 H158 0.928 . S
C156 N152 1.343 1_554 S
C156 C157 1.371 . S
C156 H159 0.931 . S
C157 C153 1.391 1_554 S
C157 C156 1.371 . S
C157 H164 0.930 . S
H158 C155 0.928 . S
H159 C156 0.931 . S
H160 C136 0.930 . S
H161 C133 0.930 . S
H162 C142 0.930 . S
H163 C154 0.929 . S
H164 C157 0.930 . S
C165 C166 1.351 . S
C165 N168 1.368 . S
C165 H170 0.931 . S
C166 C165 1.351 . S
C166 N167 1.373 . S
C166 H194 0.930 . S
N167 C166 1.373 . S
N167 C169 1.340 . S
N168 C165 1.368 . S
N168 C169 1.321 . S
N168 Co171 2.135 1_556 S
C169 N167 1.340 . S
C169 N168 1.321 . S
C169 H193 0.930 . S
H170 C165 0.931 . S
Co171 N168 2.135 1_554 S
Co171 N174 2.121 . S
Co171 O179 2.055 . S
Co171 O182 2.039 1_554 S
Co171 N185 2.140 1_554 S
C172 O173 1.227 . S
C172 O182 1.265 . S
O173 C172 1.227 . S
N174 Co171 2.121 . S
N174 C176 1.375 . S
N174 C177 1.313 . S
C175 C176 1.338 . S
C175 N178 1.377 . S
C175 H195 0.930 . S
C176 N174 1.375 . S
C176 C175 1.338 . S
C176 H180 0.931 . S
C177 N174 1.313 . S
C177 N178 1.344 . S
C177 H181 0.930 . S
N178 C175 1.377 . S
N178 C177 1.344 . S
O179 Co171 2.055 . S
O179 C183 1.253 . S
H180 C176 0.931 . S
H181 C177 0.930 . S
O182 Co171 2.039 1_556 S
O182 C172 1.265 . S
C183 O179 1.253 . S
C183 O184 1.227 . S
O184 C183 1.227 . S
N185 Co171 2.140 1_556 S
N185 C188 1.348 . S
N185 C189 1.343 1_556 S
C186 C187 1.387 . S
C186 C190 1.391 1_556 S
C187 C186 1.387 . S
C187 C188 1.369 . S
C187 H196 0.929 . S
C188 N185 1.348 . S
C188 C187 1.369 . S
C188 H191 0.928 . S
C189 N185 1.343 1_554 S
C189 C190 1.371 . S
C189 H192 0.931 . S
C190 C186 1.391 1_554 S
C190 C189 1.371 . S
C190 H197 0.930 . S
H191 C188 0.928 . S
H192 C189 0.931 . S
H193 C169 0.930 . S
H194 C166 0.930 . S
H195 C175 0.930 . S
H196 C187 0.929 . S
H197 C190 0.930 . S
C198 C199 1.351 . S
C198 N201 1.368 . S
C198 H203 0.931 . S
C199 C198 1.351 . S
C199 N200 1.373 . S
C199 H227 0.930 . S
N200 C199 1.373 . S
N200 C202 1.340 . S
N201 C198 1.368 . S
N201 C202 1.321 . S
N201 Co204 2.135 . S
C202 N200 1.340 . S
C202 N201 1.321 . S
C202 H226 0.930 . S
H203 C198 0.931 . S
Co204 N201 2.135 . S
Co204 N207 2.121 1_554 S
Co204 O212 2.055 1_554 S
Co204 O215 2.039 . S
Co204 N218 2.140 . S
C205 O206 1.227 . S
C205 O215 1.265 . S
O206 C205 1.227 . S
N207 Co204 2.121 1_556 S
N207 C209 1.375 . S
N207 C210 1.313 . S
C208 C209 1.338 . S
C208 N211 1.377 . S
C208 H228 0.930 . S
C209 N207 1.375 . S
C209 C208 1.338 . S
C209 H213 0.931 . S
C210 N207 1.313 . S
C210 N211 1.344 . S
C210 H214 0.930 . S
N211 C208 1.377 . S
N211 C210 1.344 . S
O212 Co204 2.055 1_556 S
O212 C216 1.253 . S
H213 C209 0.931 . S
H214 C210 0.930 . S
O215 Co204 2.039 . S
O215 C205 1.265 . S
C216 O212 1.253 . S
C216 O217 1.227 . S
O217 C216 1.227 . S
N218 Co204 2.140 . S
N218 C221 1.346 . S
N218 C222 1.345 1_554 S
C219 C220 1.387 . S
C219 C223 1.391 1_554 S
C220 C219 1.387 . S
C220 C221 1.369 . S
C220 H229 0.929 . S
C221 N218 1.346 . S
C221 C220 1.369 . S
C221 H224 0.928 . S
C222 N218 1.345 1_556 S
C222 C223 1.371 . S
C222 H225 0.931 . S
C223 C219 1.391 1_556 S
C223 C222 1.371 . S
C223 H230 0.930 . S
H224 C221 0.928 . S
H225 C222 0.931 . S
H226 C202 0.930 . S
H227 C199 0.930 . S
H228 C208 0.930 . S
H229 C220 0.929 . S
H230 C223 0.930 . S
C231 C232 1.351 . S
C231 N234 1.368 . S
C231 H236 0.931 . S
C232 C231 1.351 . S
C232 N233 1.373 . S
C232 H260 0.930 . S
N233 C232 1.373 . S
N233 C235 1.340 . S
N234 C231 1.368 . S
N234 C235 1.321 . S
N234 Co237 2.135 . S
C235 N233 1.340 . S
C235 N234 1.321 . S
C235 H259 0.930 . S
H236 C231 0.931 . S
Co237 N234 2.135 . S
Co237 N240 2.121 1_554 S
Co237 O245 2.055 1_554 S
Co237 O248 2.039 . S
Co237 N251 2.140 . S
C238 O239 1.227 . S
C238 O248 1.265 . S
O239 C238 1.227 . S
N240 Co237 2.121 1_556 S
N240 C242 1.375 . S
N240 C243 1.313 . S
C241 C242 1.338 . S
C241 N244 1.377 . S
C241 H261 0.930 . S
C242 N240 1.375 . S
C242 C241 1.338 . S
C242 H246 0.931 . S
C243 N240 1.313 . S
C243 N244 1.344 . S
C243 H247 0.930 . S
N244 C241 1.377 . S
N244 C243 1.344 . S
O245 Co237 2.055 1_556 S
O245 C249 1.253 . S
H246 C242 0.931 . S
H247 C243 0.930 . S
O248 Co237 2.039 . S
O248 C238 1.265 . S
C249 O245 1.253 . S
C249 O250 1.227 . S
O250 C249 1.227 . S
N251 Co237 2.140 . S
N251 C254 1.346 . S
N251 C255 1.345 1_554 S
C252 C253 1.387 . S
C252 C256 1.391 1_554 S
C253 C252 1.387 . S
C253 C254 1.369 . S
C253 H262 0.929 . S
C254 N251 1.346 . S
C254 C253 1.369 . S
C254 H257 0.928 . S
C255 N251 1.345 1_556 S
C255 C256 1.371 . S
C255 H258 0.931 . S
C256 C252 1.391 1_556 S
C256 C255 1.371 . S
C256 H263 0.930 . S
H257 C254 0.928 . S
H258 C255 0.931 . S
H259 C235 0.930 . S
H260 C232 0.930 . S
H261 C241 0.930 . S
H262 C253 0.929 . S
H263 C256 0.930 . S
C264 C265 1.351 . S
C264 N267 1.368 . S
C264 H269 0.931 . S
C265 C264 1.351 . S
C265 N266 1.373 . S
C265 H293 0.930 . S
N266 C265 1.373 . S
N266 C268 1.340 . S
N267 C264 1.368 . S
N267 C268 1.321 . S
N267 Co270 2.135 . S
C268 N266 1.340 . S
C268 N267 1.321 . S
C268 H292 0.930 . S
H269 C264 0.931 . S
Co270 N267 2.135 . S
Co270 N273 2.121 1_554 S
Co270 O278 2.055 1_554 S
Co270 O281 2.039 . S
Co270 N284 2.140 . S
C271 O272 1.227 . S
C271 O281 1.265 . S
O272 C271 1.227 . S
N273 Co270 2.121 1_556 S
N273 C275 1.375 . S
N273 C276 1.313 . S
C274 C275 1.338 . S
C274 N277 1.377 . S
C274 H294 0.930 . S
C275 N273 1.375 . S
C275 C274 1.338 . S
C275 H279 0.931 . S
C276 N273 1.313 . S
C276 N277 1.344 . S
C276 H280 0.930 . S
N277 C274 1.377 . S
N277 C276 1.344 . S
O278 Co270 2.055 1_556 S
O278 C282 1.253 . S
H279 C275 0.931 . S
H280 C276 0.930 . S
O281 Co270 2.039 . S
O281 C271 1.265 . S
C282 O278 1.253 . S
C282 O283 1.227 . S
O283 C282 1.227 . S
N284 Co270 2.140 . S
N284 C287 1.346 . S
N284 C288 1.345 1_554 S
C285 C286 1.387 . S
C285 C289 1.391 1_554 S
C286 C285 1.387 . S
C286 C287 1.369 . S
C286 H295 0.929 . S
C287 N284 1.346 . S
C287 C286 1.369 . S
C287 H290 0.928 . S
C288 N284 1.345 1_556 S
C288 C289 1.371 . S
C288 H291 0.931 . S
C289 C285 1.391 1_556 S
C289 C288 1.371 . S
C289 H296 0.930 . S
H290 C287 0.928 . S
H291 C288 0.931 . S
H292 C268 0.930 . S
H293 C265 0.930 . S
H294 C274 0.930 . S
H295 C286 0.929 . S
H296 C289 0.930 . S
C297 C298 1.351 . S
C297 N300 1.368 . S
C297 H302 0.931 . S
C298 C297 1.351 . S
C298 N299 1.373 . S
C298 H326 0.930 . S
N299 C298 1.373 . S
N299 C301 1.340 . S
N300 C297 1.368 . S
N300 C301 1.321 . S
N300 Co303 2.135 . S
C301 N299 1.340 . S
C301 N300 1.321 . S
C301 H325 0.930 . S
H302 C297 0.931 . S
Co303 N300 2.135 . S
Co303 N306 2.121 1_554 S
Co303 O311 2.055 1_554 S
Co303 O314 2.039 . S
Co303 N317 2.140 . S
C304 O305 1.227 . S
C304 O314 1.265 . S
O305 C304 1.227 . S
N306 Co303 2.121 1_556 S
N306 C308 1.375 . S
N306 C309 1.313 . S
C307 C308 1.338 . S
C307 N310 1.377 . S
C307 H327 0.930 . S
C308 N306 1.375 . S
C308 C307 1.338 . S
C308 H312 0.931 . S
C309 N306 1.313 . S
C309 N310 1.344 . S
C309 H313 0.930 . S
N310 C307 1.377 . S
N310 C309 1.344 . S
O311 Co303 2.055 1_556 S
O311 C315 1.253 . S
H312 C308 0.931 . S
H313 C309 0.930 . S
O314 Co303 2.039 . S
O314 C304 1.265 . S
C315 O311 1.253 . S
C315 O316 1.227 . S
O316 C315 1.227 . S
N317 Co303 2.140 . S
N317 C320 1.346 . S
N317 C321 1.345 1_554 S
C318 C319 1.387 . S
C318 C322 1.391 1_554 S
C319 C318 1.387 . S
C319 C320 1.369 . S
C319 H328 0.929 . S
C320 N317 1.346 . S
C320 C319 1.369 . S
C320 H323 0.928 . S
C321 N317 1.345 1_556 S
C321 C322 1.371 . S
C321 H324 0.931 . S
C322 C318 1.391 1_556 S
C322 C321 1.371 . S
C322 H329 0.930 . S
H323 C320 0.928 . S
H324 C321 0.931 . S
H325 C301 0.930 . S
H326 C298 0.930 . S
H327 C307 0.930 . S
H328 C319 0.929 . S
H329 C322 0.930 . S
C330 C331 1.351 . S
C330 N333 1.368 . S
C330 H335 0.931 . S
C331 C330 1.351 . S
C331 N332 1.373 . S
C331 H359 0.930 . S
N332 C331 1.373 . S
N332 C334 1.340 . S
N333 C330 1.368 . S
N333 C334 1.321 . S
N333 Co336 2.135 . S
C334 N332 1.340 . S
C334 N333 1.321 . S
C334 H358 0.930 . S
H335 C330 0.931 . S
Co336 N333 2.135 . S
Co336 N339 2.121 1_554 S
Co336 O344 2.055 1_554 S
Co336 O347 2.039 . S
Co336 N350 2.140 . S
C337 O338 1.227 . S
C337 O347 1.265 . S
O338 C337 1.227 . S
N339 Co336 2.121 1_556 S
N339 C341 1.375 . S
N339 C342 1.313 . S
C340 C341 1.338 . S
C340 N343 1.377 . S
C340 H360 0.930 . S
C341 N339 1.375 . S
C341 C340 1.338 . S
C341 H345 0.931 . S
C342 N339 1.313 . S
C342 N343 1.344 . S
C342 H346 0.930 . S
N343 C340 1.377 . S
N343 C342 1.344 . S
O344 Co336 2.055 1_556 S
O344 C348 1.253 . S
H345 C341 0.931 . S
H346 C342 0.930 . S
O347 Co336 2.039 . S
O347 C337 1.265 . S
C348 O344 1.253 . S
C348 O349 1.227 . S
O349 C348 1.227 . S
N350 Co336 2.140 . S
N350 C353 1.346 . S
N350 C354 1.345 1_554 S
C351 C352 1.387 . S
C351 C355 1.391 1_554 S
C352 C351 1.387 . S
C352 C353 1.369 . S
C352 H361 0.929 . S
C353 N350 1.346 . S
C353 C352 1.369 . S
C353 H356 0.928 . S
C354 N350 1.345 1_556 S
C354 C355 1.371 . S
C354 H357 0.931 . S
C355 C351 1.391 1_556 S
C355 C354 1.371 . S
C355 H362 0.930 . S
H356 C353 0.928 . S
H357 C354 0.931 . S
H358 C334 0.930 . S
H359 C331 0.930 . S
H360 C340 0.930 . S
H361 C352 0.929 . S
H362 C355 0.930 . S
C363 C364 1.351 . S
C363 N366 1.368 . S
C363 H368 0.931 . S
C364 C363 1.351 . S
C364 N365 1.373 . S
C364 H392 0.930 . S
N365 C364 1.373 . S
N365 C367 1.340 . S
N366 C363 1.368 . S
N366 C367 1.321 . S
N366 Co369 2.135 . S
C367 N365 1.340 . S
C367 N366 1.321 . S
C367 H391 0.930 . S
H368 C363 0.931 . S
Co369 N366 2.135 . S
Co369 N372 2.121 1_554 S
Co369 O377 2.055 1_554 S
Co369 O380 2.039 . S
Co369 N383 2.140 . S
C370 O371 1.227 . S
C370 O380 1.265 . S
O371 C370 1.227 . S
N372 Co369 2.121 1_556 S
N372 C374 1.375 . S
N372 C375 1.313 . S
C373 C374 1.338 . S
C373 N376 1.377 . S
C373 H393 0.930 . S
C374 N372 1.375 . S
C374 C373 1.338 . S
C374 H378 0.931 . S
C375 N372 1.313 . S
C375 N376 1.344 . S
C375 H379 0.930 . S
N376 C373 1.377 . S
N376 C375 1.344 . S
O377 Co369 2.055 1_556 S
O377 C381 1.253 . S
H378 C374 0.931 . S
H379 C375 0.930 . S
O380 Co369 2.039 . S
O380 C370 1.265 . S
C381 O377 1.253 . S
C381 O382 1.227 . S
O382 C381 1.227 . S
N383 Co369 2.140 . S
N383 C386 1.346 . S
N383 C387 1.345 1_554 S
C384 C385 1.387 . S
C384 C388 1.391 1_554 S
C385 C384 1.387 . S
C385 C386 1.369 . S
C385 H394 0.929 . S
C386 N383 1.346 . S
C386 C385 1.369 . S
C386 H389 0.928 . S
C387 N383 1.345 1_556 S
C387 C388 1.371 . S
C387 H390 0.931 . S
C388 C384 1.391 1_556 S
C388 C387 1.371 . S
C388 H395 0.930 . S
H389 C386 0.928 . S
H390 C387 0.931 . S
H391 C367 0.930 . S
H392 C364 0.930 . S
H393 C373 0.930 . S
H394 C385 0.929 . S
H395 C388 0.930 . S
H396 C414 0.951 . S
H397 C416 0.951 . S
H398 C418 0.950 . S
H399 C419 0.950 . S
H400 C421 0.950 . S
H401 C424 0.950 . S
H402 C425 0.950 . S
H403 C427 0.950 . S
H404 C428 0.950 . S
H405 C429 0.951 . S
H406 C431 0.951 . S
H407 C433 0.950 . S
H408 C434 0.950 . S
H409 C436 0.950 . S
H410 C439 0.950 . S
H411 C440 0.950 . S
H412 C442 0.950 . S
H413 C443 0.950 . S
C414 H396 0.951 . S
C414 C415 1.366 . S
C414 C416 1.388 . S
C415 C414 1.366 . S
C415 C419 1.385 1_554 S
C416 H397 0.951 . S
C416 C414 1.388 . S
C416 C417 1.366 . S
C417 C416 1.366 . S
C417 C418 1.414 1_554 S
C417 C420 1.499 . S
C418 H398 0.950 . S
C418 C417 1.414 1_556 S
C418 C419 1.374 . S
C419 H399 0.950 . S
C419 C415 1.385 1_556 S
C419 C418 1.374 . S
C420 C417 1.499 . S
C420 C421 1.373 1_554 S
C420 C422 1.389 . S
C421 H400 0.950 . S
C421 C420 1.373 1_556 S
C421 C437 1.377 . S
C422 C420 1.389 . S
C422 C423 1.524 . S
C422 C436 1.377 . S
C423 C422 1.524 . S
C423 C424 1.397 . S
C423 C428 1.363 . S
C424 H401 0.950 . S
C424 C423 1.397 . S
C424 C425 1.334 . S
C425 H402 0.950 . S
C425 C424 1.334 . S
C425 C426 1.287 . S
C426 C425 1.287 . S
C426 C427 1.524 . S
C426 H445 0.913 . S
C427 H403 0.950 . S
C427 C426 1.524 . S
C427 C428 1.415 . S
C428 H404 0.950 . S
C428 C423 1.363 . S
C428 C427 1.415 . S
C429 H405 0.951 . S
C429 C430 1.366 . S
C429 C431 1.388 . S
C430 C429 1.366 . S
C430 C434 1.385 1_556 S
C431 H406 0.951 . S
C431 C429 1.388 . S
C431 C432 1.366 . S
C432 C431 1.366 . S
C432 C433 1.414 1_556 S
C432 C435 1.499 . S
C433 H407 0.950 . S
C433 C432 1.414 1_554 S
C433 C434 1.374 . S
C434 H408 0.950 . S
C434 C430 1.385 1_554 S
C434 C433 1.374 . S
C435 C432 1.499 . S
C435 C436 1.373 1_556 S
C435 C437 1.389 . S
C436 H409 0.950 . S
C436 C422 1.377 . S
C436 C435 1.373 1_554 S
C437 C421 1.377 . S
C437 C435 1.389 . S
C437 C438 1.524 . S
C438 C437 1.524 . S
C438 C439 1.397 . S
C438 C443 1.363 . S
C439 H410 0.950 . S
C439 C438 1.397 . S
C439 C440 1.334 . S
C440 H411 0.950 . S
C440 C439 1.334 . S
C440 C441 1.287 . S
C441 C440 1.287 . S
C441 C442 1.524 . S
C441 H444 0.999 . S
C442 H412 0.950 . S
C442 C441 1.524 . S
C442 C443 1.415 . S
C443 H413 0.950 . S
C443 C438 1.363 . S
C443 C442 1.415 . S
H444 C441 0.999 . S
H445 C426 0.913 . S
H446 C464 0.951 . S
H447 C466 0.951 . S
H448 C468 0.950 . S
H449 C469 0.950 . S
H450 C471 0.950 . S
H451 C474 0.950 . S
H452 C475 0.950 . S
H453 C477 0.950 . S
H454 C478 0.950 . S
H455 C479 0.951 . S
H456 C481 0.951 . S
H457 C483 0.950 . S
H458 C484 0.950 . S
H459 C486 0.950 . S
H460 C489 0.950 . S
H461 C490 0.950 . S
H462 C492 0.950 . S
H463 C493 0.950 . S
C464 H446 0.951 . S
C464 C465 1.366 1_554 S
C464 C466 1.388 . S
C465 C464 1.366 1_556 S
C465 C469 1.385 . S
C466 H447 0.951 . S
C466 C464 1.388 . S
C466 C467 1.366 . S
C467 C466 1.366 . S
C467 C468 1.414 1_554 S
C467 C470 1.499 . S
C468 H448 0.950 . S
C468 C467 1.414 1_556 S
C468 C469 1.374 . S
C469 H449 0.950 . S
C469 C465 1.385 . S
C469 C468 1.374 . S
C470 C467 1.499 . S
C470 C471 1.373 1_554 S
C470 C472 1.389 . S
C471 H450 0.950 . S
C471 C470 1.373 1_556 S
C471 C487 1.377 . S
C472 C470 1.389 . S
C472 C473 1.524 . S
C472 C486 1.377 . S
C473 C472 1.524 . S
C473 C474 1.397 . S
C473 C478 1.363 . S
C474 H451 0.950 . S
C474 C473 1.397 . S
C474 C475 1.334 . S
C475 H452 0.950 . S
C475 C474 1.334 . S
C475 C476 1.287 . S
C476 C475 1.287 . S
C476 C477 1.524 . S
C476 H495 0.913 . S
C477 H453 0.950 . S
C477 C476 1.524 . S
C477 C478 1.415 . S
C478 H454 0.950 . S
C478 C473 1.363 . S
C478 C477 1.415 . S
C479 H455 0.951 . S
C479 C480 1.366 1_556 S
C479 C481 1.388 . S
C480 C479 1.366 1_554 S
C480 C484 1.385 . S
C481 H456 0.951 . S
C481 C479 1.388 . S
C481 C482 1.367 . S
C482 C481 1.367 . S
C482 C483 1.413 1_556 S
C482 C485 1.499 . S
C483 H457 0.950 . S
C483 C482 1.413 1_554 S
C483 C484 1.374 . S
C484 H458 0.950 . S
C484 C480 1.385 . S
C484 C483 1.374 . S
C485 C482 1.499 . S
C485 C486 1.361 1_556 S
C485 C487 1.401 . S
C486 H459 0.950 . S
C486 C472 1.377 . S
C486 C485 1.361 1_554 S
C487 C471 1.377 . S
C487 C485 1.401 . S
C487 C488 1.524 . S
C488 C487 1.524 . S
C488 C489 1.397 . S
C488 C493 1.363 . S
C489 H460 0.950 . S
C489 C488 1.397 . S
C489 C490 1.334 . S
C490 H461 0.950 . S
C490 C489 1.334 . S
C490 C491 1.287 . S
C491 C490 1.287 . S
C491 C492 1.524 . S
C491 H494 0.999 . S
C492 H462 0.950 . S
C492 C491 1.524 . S
C492 C493 1.415 . S
C493 H463 0.950 . S
C493 C488 1.363 . S
C493 C492 1.415 . S
H494 C491 0.999 . S
H495 C476 0.913 . S
H496 C514 0.951 . S
H497 C516 0.951 . S
H498 C518 0.950 . S
H499 C519 0.950 . S
H500 C521 0.950 . S
H501 C524 0.950 . S
H502 C525 0.950 . S
H503 C527 0.950 . S
H504 C528 0.950 . S
H505 C529 0.951 . S
H506 C531 0.951 . S
H507 C533 0.950 . S
H508 C534 0.950 . S
H509 C536 0.950 . S
H510 C539 0.950 . S
H511 C540 0.950 . S
H512 C542 0.950 . S
H513 C543 0.950 . S
C514 H496 0.951 . S
C514 C515 1.366 . S
C514 C516 1.388 . S
C515 C514 1.366 . S
C515 C519 1.385 1_554 S
C516 H497 0.951 . S
C516 C514 1.388 . S
C516 C517 1.366 . S
C517 C516 1.366 . S
C517 C518 1.414 1_554 S
C517 C520 1.499 . S
C518 H498 0.950 . S
C518 C517 1.414 1_556 S
C518 C519 1.374 . S
C519 H499 0.950 . S
C519 C515 1.385 1_556 S
C519 C518 1.374 . S
C520 C517 1.499 . S
C520 C521 1.373 1_554 S
C520 C522 1.389 . S
C521 H500 0.950 . S
C521 C520 1.373 1_556 S
C521 C537 1.377 . S
C522 C520 1.389 . S
C522 C523 1.524 . S
C522 C536 1.377 . S
C523 C522 1.524 . S
C523 C524 1.397 . S
C523 C528 1.363 . S
C524 H501 0.950 . S
C524 C523 1.397 . S
C524 C525 1.334 . S
C525 H502 0.950 . S
C525 C524 1.334 . S
C525 C526 1.287 . S
C526 C525 1.287 . S
C526 C527 1.524 . S
C526 H545 0.913 . S
C527 H503 0.950 . S
C527 C526 1.524 . S
C527 C528 1.415 . S
C528 H504 0.950 . S
C528 C523 1.363 . S
C528 C527 1.415 . S
C529 H505 0.951 . S
C529 C530 1.366 . S
C529 C531 1.388 . S
C530 C529 1.366 . S
C530 C534 1.385 1_556 S
C531 H506 0.951 . S
C531 C529 1.388 . S
C531 C532 1.366 . S
C532 C531 1.366 . S
C532 C533 1.414 1_556 S
C532 C535 1.499 . S
C533 H507 0.950 . S
C533 C532 1.414 1_554 S
C533 C534 1.374 . S
C534 H508 0.950 . S
C534 C530 1.385 1_554 S
C534 C533 1.374 . S
C535 C532 1.499 . S
C535 C536 1.373 1_556 S
C535 C537 1.390 . S
C536 H509 0.950 . S
C536 C522 1.377 . S
C536 C535 1.373 1_554 S
C537 C521 1.377 . S
C537 C535 1.390 . S
C537 C538 1.524 . S
C538 C537 1.524 . S
C538 C539 1.397 . S
C538 C543 1.363 . S
C539 H510 0.950 . S
C539 C538 1.397 . S
C539 C540 1.334 . S
C540 H511 0.950 . S
C540 C539 1.334 . S
C540 C541 1.287 . S
C541 C540 1.287 . S
C541 C542 1.524 . S
C541 H544 0.999 . S
C542 H512 0.950 . S
C542 C541 1.524 . S
C542 C543 1.415 . S
C543 H513 0.950 . S
C543 C538 1.363 . S
C543 C542 1.415 . S
H544 C541 0.999 . S
H545 C526 0.913 . S
H546 C564 0.951 . S
H547 C566 0.951 . S
H548 C568 0.950 . S
H549 C569 0.950 . S
H550 C571 0.950 . S
H551 C574 0.950 . S
H552 C575 0.950 . S
H553 C577 0.950 . S
H554 C578 0.950 1_556 S
H555 C579 0.951 . S
H556 C581 0.951 . S
H557 C583 0.950 . S
H558 C584 0.950 . S
H559 C586 0.950 . S
H560 C589 0.950 . S
H561 C590 0.950 . S
H562 C592 0.950 . S
H563 C593 0.950 1_554 S
C564 H546 0.951 . S
C564 C565 1.366 1_556 S
C564 C566 1.388 . S
C565 C564 1.366 1_554 S
C565 C569 1.385 . S
C566 H547 0.951 . S
C566 C564 1.388 . S
C566 C567 1.366 1_556 S
C567 C566 1.366 1_554 S
C567 C568 1.414 . S
C567 C570 1.499 . S
C568 H548 0.950 . S
C568 C567 1.414 . S
C568 C569 1.374 . S
C569 H549 0.950 . S
C569 C565 1.385 . S
C569 C568 1.374 . S
C570 C567 1.499 . S
C570 C571 1.373 1_554 S
C570 C572 1.389 . S
C571 H550 0.950 . S
C571 C570 1.373 1_556 S
C571 C587 1.377 . S
C572 C570 1.389 . S
C572 C573 1.524 . S
C572 C586 1.377 . S
C573 C572 1.524 . S
C573 C574 1.397 . S
C573 C578 1.363 . S
C574 H551 0.950 . S
C574 C573 1.397 . S
C574 C575 1.334 . S
C575 H552 0.950 . S
C575 C574 1.334 . S
C575 C576 1.287 . S
C576 C575 1.287 . S
C576 C577 1.524 . S
C576 H595 0.913 . S
C577 H553 0.950 . S
C577 C576 1.524 . S
C577 C578 1.415 . S
C578 H554 0.950 1_554 S
C578 C573 1.363 . S
C578 C577 1.415 . S
C579 H555 0.951 . S
C579 C580 1.366 1_554 S
C579 C581 1.388 . S
C580 C579 1.366 1_556 S
C580 C584 1.385 . S
C581 H556 0.951 . S
C581 C579 1.388 . S
C581 C582 1.366 1_554 S
C582 C581 1.366 1_556 S
C582 C583 1.414 . S
C582 C585 1.499 . S
C583 H557 0.950 . S
C583 C582 1.414 . S
C583 C584 1.374 . S
C584 H558 0.950 . S
C584 C580 1.385 . S
C584 C583 1.374 . S
C585 C582 1.499 . S
C585 C586 1.373 1_556 S
C585 C587 1.389 . S
C586 H559 0.950 . S
C586 C572 1.377 . S
C586 C585 1.373 1_554 S
C587 C571 1.377 . S
C587 C585 1.389 . S
C587 C588 1.524 . S
C588 C587 1.524 . S
C588 C589 1.397 . S
C588 C593 1.363 . S
C589 H560 0.950 . S
C589 C588 1.397 . S
C589 C590 1.334 . S
C590 H561 0.950 . S
C590 C589 1.334 . S
C590 C591 1.287 . S
C591 C590 1.287 . S
C591 C592 1.524 . S
C591 H594 0.999 . S
C592 H562 0.950 . S
C592 C591 1.524 . S
C592 C593 1.415 . S
C593 H563 0.950 1_556 S
C593 C588 1.363 . S
C593 C592 1.415 . S
H594 C591 0.999 . S
H595 C576 0.913 . S
H596 C614 0.951 . S
H597 C616 0.951 . S
H598 C618 0.950 . S
H599 C619 0.950 . S
H600 C621 0.950 . S
H601 C624 0.950 . S
H602 C625 0.950 . S
H603 C627 0.950 . S
H604 C628 0.950 . S
H605 C629 0.951 . S
H606 C631 0.951 . S
H607 C633 0.950 . S
H608 C634 0.950 . S
H609 C636 0.950 . S
H610 C639 0.950 . S
H611 C640 0.950 . S
H612 C642 0.950 . S
H613 C643 0.950 . S
C614 H596 0.951 . S
C614 C615 1.366 1_554 S
C614 C616 1.388 . S
C615 C614 1.366 1_556 S
C615 C619 1.385 . S
C616 H597 0.951 . S
C616 C614 1.388 . S
C616 C617 1.366 1_554 S
C617 C616 1.366 1_556 S
C617 C618 1.414 . S
C617 C620 1.499 . S
C618 H598 0.950 . S
C618 C617 1.414 . S
C618 C619 1.374 . S
C619 H599 0.950 . S
C619 C615 1.385 . S
C619 C618 1.374 . S
C620 C617 1.499 . S
C620 C621 1.373 . S
C620 C622 1.390 . S
C621 H600 0.950 . S
C621 C620 1.373 . S
C621 C637 1.377 1_556 S
C622 C620 1.390 . S
C622 C623 1.525 . S
C622 C636 1.376 1_556 S
C623 C622 1.525 . S
C623 C624 1.397 . S
C623 C628 1.363 1_556 S
C624 H601 0.950 . S
C624 C623 1.397 . S
C624 C625 1.334 . S
C625 H602 0.950 . S
C625 C624 1.334 . S
C625 C626 1.287 . S
C626 C625 1.287 . S
C626 C627 1.524 1_556 S
C626 H645 0.913 . S
C627 H603 0.950 . S
C627 C626 1.524 1_554 S
C627 C628 1.415 . S
C628 H604 0.950 . S
C628 C623 1.363 1_554 S
C628 C627 1.415 . S
C629 H605 0.951 . S
C629 C630 1.366 1_556 S
C629 C631 1.388 . S
C630 C629 1.366 1_554 S
C630 C634 1.385 . S
C631 H606 0.951 . S
C631 C629 1.388 . S
C631 C632 1.366 1_556 S
C632 C631 1.366 1_554 S
C632 C633 1.414 . S
C632 C635 1.499 . S
C633 H607 0.950 . S
C633 C632 1.414 . S
C633 C634 1.374 . S
C634 H608 0.950 . S
C634 C630 1.385 . S
C634 C633 1.374 . S
C635 C632 1.499 . S
C635 C636 1.373 . S
C635 C637 1.389 . S
C636 H609 0.950 . S
C636 C622 1.376 1_554 S
C636 C635 1.373 . S
C637 C621 1.377 1_554 S
C637 C635 1.389 . S
C637 C638 1.524 . S
C638 C637 1.524 . S
C638 C639 1.397 . S
C638 C643 1.363 1_554 S
C639 H610 0.950 . S
C639 C638 1.397 . S
C639 C640 1.334 . S
C640 H611 0.950 . S
C640 C639 1.334 . S
C640 C641 1.287 . S
C641 C640 1.287 . S
C641 C642 1.524 1_554 S
C641 H644 0.999 . S
C642 H612 0.950 . S
C642 C641 1.524 1_556 S
C642 C643 1.415 . S
C643 H613 0.950 . S
C643 C638 1.363 1_556 S
C643 C642 1.415 . S
H644 C641 0.999 . S
H645 C626 0.913 . S
H646 C664 0.951 . S
H647 C666 0.951 . S
H648 C668 0.950 . S
H649 C669 0.950 . S
H650 C671 0.950 . S
H651 C674 0.950 . S
H652 C675 0.950 . S
H653 C677 0.950 . S
H654 C678 0.950 . S
H655 C679 0.951 . S
H656 C681 0.951 . S
H657 C683 0.950 . S
H658 C684 0.950 . S
H659 C686 0.950 . S
H660 C689 0.950 . S
H661 C690 0.950 . S
H662 C692 0.950 . S
H663 C693 0.950 . S
C664 H646 0.951 . S
C664 C665 1.366 1_556 S
C664 C666 1.388 . S
C665 C664 1.366 1_554 S
C665 C669 1.385 . S
C666 H647 0.951 . S
C666 C664 1.388 . S
C666 C667 1.367 . S
C667 C666 1.367 . S
C667 C668 1.413 1_556 S
C667 C670 1.499 . S
C668 H648 0.950 . S
C668 C667 1.413 1_554 S
C668 C669 1.374 . S
C669 H649 0.950 . S
C669 C665 1.385 . S
C669 C668 1.374 . S
C670 C667 1.499 . S
C670 C671 1.360 1_556 S
C670 C672 1.402 . S
C671 H650 0.950 . S
C671 C670 1.360 1_554 S
C671 C687 1.377 . S
C672 C670 1.402 . S
C672 C673 1.524 . S
C672 C686 1.377 . S
C673 C672 1.524 . S
C673 C674 1.397 . S
C673 C678 1.363 . S
C674 H651 0.950 . S
C674 C673 1.397 . S
C674 C675 1.334 . S
C675 H652 0.950 . S
C675 C674 1.334 . S
C675 C676 1.287 . S
C676 C675 1.287 . S
C676 C677 1.524 . S
C676 H695 0.913 . S
C677 H653 0.950 . S
C677 C676 1.524 . S
C677 C678 1.415 . S
C678 H654 0.950 . S
C678 C673 1.363 . S
C678 C677 1.415 . S
C679 H655 0.951 . S
C679 C680 1.366 1_554 S
C679 C681 1.388 . S
C680 C679 1.366 1_556 S
C680 C684 1.385 . S
C681 H656 0.951 . S
C681 C679 1.388 . S
C681 C682 1.366 . S
C682 C681 1.366 . S
C682 C683 1.414 1_554 S
C682 C685 1.499 . S
C683 H657 0.950 . S
C683 C682 1.414 1_556 S
C683 C684 1.374 . S
C684 H658 0.950 . S
C684 C680 1.385 . S
C684 C683 1.374 . S
C685 C682 1.499 . S
C685 C686 1.373 1_554 S
C685 C687 1.389 . S
C686 H659 0.950 . S
C686 C672 1.377 . S
C686 C685 1.373 1_556 S
C687 C671 1.377 . S
C687 C685 1.389 . S
C687 C688 1.524 . S
C688 C687 1.524 . S
C688 C689 1.397 . S
C688 C693 1.363 . S
C689 H660 0.950 . S
C689 C688 1.397 . S
C689 C690 1.334 . S
C690 H661 0.950 . S
C690 C689 1.334 . S
C690 C691 1.287 . S
C691 C690 1.287 . S
C691 C692 1.524 . S
C691 H694 0.999 . S
C692 H662 0.950 . S
C692 C691 1.524 . S
C692 C693 1.415 . S
C693 H663 0.950 . S
C693 C688 1.363 . S
C693 C692 1.415 . S
H694 C691 0.999 . S
H695 C676 0.913 . S
H696 C714 0.951 . S
H697 C716 0.951 . S
H698 C718 0.950 . S
H699 C719 0.950 . S
H700 C721 0.950 . S
H701 C724 0.950 . S
H702 C725 0.950 . S
H703 C727 0.950 . S
H704 C728 0.950 . S
H705 C729 0.951 . S
H706 C731 0.951 . S
H707 C733 0.950 . S
H708 C734 0.950 . S
H709 C736 0.950 . S
H710 C739 0.950 . S
H711 C740 0.950 . S
H712 C742 0.950 . S
H713 C743 0.950 . S
C714 H696 0.951 . S
C714 C715 1.366 1_554 S
C714 C716 1.388 . S
C715 C714 1.366 1_556 S
C715 C719 1.385 . S
C716 H697 0.951 . S
C716 C714 1.388 . S
C716 C717 1.366 1_554 S
C717 C716 1.366 1_556 S
C717 C718 1.414 . S
C717 C720 1.499 . S
C718 H698 0.950 . S
C718 C717 1.414 . S
C718 C719 1.374 . S
C719 H699 0.950 . S
C719 C715 1.385 . S
C719 C718 1.374 . S
C720 C717 1.499 . S
C720 C721 1.373 . S
C720 C722 1.389 1_556 S
C721 H700 0.950 . S
C721 C720 1.373 . S
C721 C737 1.377 . S
C722 C720 1.389 1_554 S
C722 C723 1.524 . S
C722 C736 1.377 . S
C723 C722 1.524 . S
C723 C724 1.397 . S
C723 C728 1.363 . S
C724 H701 0.950 . S
C724 C723 1.397 . S
C724 C725 1.334 . S
C725 H702 0.950 . S
C725 C724 1.334 . S
C725 C726 1.287 . S
C726 C725 1.287 . S
C726 C727 1.524 . S
C726 H745 0.913 . S
C727 H703 0.950 . S
C727 C726 1.524 . S
C727 C728 1.415 . S
C728 H704 0.950 . S
C728 C723 1.363 . S
C728 C727 1.415 . S
C729 H705 0.951 . S
C729 C730 1.366 1_556 S
C729 C731 1.388 . S
C730 C729 1.366 1_554 S
C730 C734 1.385 . S
C731 H706 0.951 . S
C731 C729 1.388 . S
C731 C732 1.366 1_556 S
C732 C731 1.366 1_554 S
C732 C733 1.414 . S
C732 C735 1.499 . S
C733 H707 0.950 . S
C733 C732 1.414 . S
C733 C734 1.374 . S
C734 H708 0.950 . S
C734 C730 1.385 . S
C734 C733 1.374 . S
C735 C732 1.499 . S
C735 C736 1.373 . S
C735 C737 1.389 1_554 S
C736 H709 0.950 . S
C736 C722 1.377 . S
C736 C735 1.373 . S
C737 C721 1.377 . S
C737 C735 1.389 1_556 S
C737 C738 1.524 . S
C738 C737 1.524 . S
C738 C739 1.397 . S
C738 C743 1.363 . S
C739 H710 0.950 . S
C739 C738 1.397 . S
C739 C740 1.334 . S
C740 H711 0.950 . S
C740 C739 1.334 . S
C740 C741 1.287 . S
C741 C740 1.287 . S
C741 C742 1.524 . S
C741 H744 0.999 . S
C742 H712 0.950 . S
C742 C741 1.524 . S
C742 C743 1.415 . S
C743 H713 0.950 . S
C743 C738 1.363 . S
C743 C742 1.415 . S
H744 C741 0.999 . S
H745 C726 0.913 . S
H746 C764 0.951 . S
H747 C766 0.951 . S
H748 C768 0.950 . S
H749 C769 0.950 . S
H750 C771 0.950 . S
H751 C774 0.950 . S
H752 C775 0.950 . S
H753 C777 0.950 . S
H754 C778 0.950 . S
H755 C779 0.951 . S
H756 C781 0.951 . S
H757 C783 0.950 . S
H758 C784 0.950 . S
H759 C786 0.950 . S
H760 C789 0.950 . S
H761 C790 0.950 . S
H762 C792 0.950 . S
H763 C793 0.950 . S
C764 H746 0.951 . S
C764 C765 1.366 1_554 S
C764 C766 1.388 . S
C765 C764 1.366 1_556 S
C765 C769 1.385 . S
C766 H747 0.951 . S
C766 C764 1.388 . S
C766 C767 1.366 1_554 S
C767 C766 1.366 1_556 S
C767 C768 1.414 . S
C767 C770 1.499 . S
C768 H748 0.950 . S
C768 C767 1.414 . S
C768 C769 1.374 . S
C769 H749 0.950 . S
C769 C765 1.385 . S
C769 C768 1.374 . S
C770 C767 1.499 . S
C770 C771 1.373 . S
C770 C772 1.389 1_556 S
C771 H750 0.950 . S
C771 C770 1.373 . S
C771 C787 1.377 . S
C772 C770 1.389 1_554 S
C772 C773 1.524 . S
C772 C786 1.377 . S
C773 C772 1.524 . S
C773 C774 1.397 1_554 S
C773 C778 1.363 . S
C774 H751 0.950 . S
C774 C773 1.397 1_556 S
C774 C775 1.334 . S
C775 H752 0.950 . S
C775 C774 1.334 . S
C775 C776 1.287 1_556 S
C776 C775 1.287 1_554 S
C776 C777 1.524 . S
C776 H795 0.913 . S
C777 H753 0.950 . S
C777 C776 1.524 . S
C777 C778 1.415 . S
C778 H754 0.950 . S
C778 C773 1.363 . S
C778 C777 1.415 . S
C779 H755 0.951 . S
C779 C780 1.366 1_556 S
C779 C781 1.388 . S
C780 C779 1.366 1_554 S
C780 C784 1.385 . S
C781 H756 0.951 . S
C781 C779 1.388 . S
C781 C782 1.366 1_556 S
C782 C781 1.366 1_554 S
C782 C783 1.414 . S
C782 C785 1.499 . S
C783 H757 0.950 . S
C783 C782 1.414 . S
C783 C784 1.374 . S
C784 H758 0.950 . S
C784 C780 1.385 . S
C784 C783 1.374 . S
C785 C782 1.499 . S
C785 C786 1.373 . S
C785 C787 1.389 1_554 S
C786 H759 0.950 . S
C786 C772 1.377 . S
C786 C785 1.373 . S
C787 C771 1.377 . S
C787 C785 1.389 1_556 S
C787 C788 1.524 . S
C788 C787 1.524 . S
C788 C789 1.397 1_556 S
C788 C793 1.363 . S
C789 H760 0.950 . S
C789 C788 1.397 1_554 S
C789 C790 1.334 . S
C790 H761 0.950 . S
C790 C789 1.334 . S
C790 C791 1.287 1_554 S
C791 C790 1.287 1_556 S
C791 C792 1.524 . S
C791 H794 0.999 . S
C792 H762 0.950 . S
C792 C791 1.524 . S
C792 C793 1.415 . S
C793 H763 0.950 . S
C793 C788 1.363 . S
C793 C792 1.415 . S
H794 C791 0.999 . S
H795 C776 0.913 . S
H796 C814 0.951 . S
H797 C816 0.951 . S
H798 C818 0.950 . S
H799 C819 0.950 . S
H800 C821 0.950 . S
H801 C824 0.950 . S
H802 C825 0.950 . S
H803 C827 0.950 . S
H804 C828 0.950 . S
H805 C829 0.951 . S
H806 C831 0.951 . S
H807 C833 0.950 . S
H808 C834 0.950 . S
H809 C836 0.950 . S
H810 C839 0.950 . S
H811 C840 0.950 . S
H812 C842 0.950 . S
H813 C843 0.950 . S
C814 H796 0.951 . S
C814 C815 1.366 1_556 S
C814 C816 1.388 . S
C815 C814 1.366 1_554 S
C815 C819 1.385 . S
C816 H797 0.951 . S
C816 C814 1.388 . S
C816 C817 1.366 1_556 S
C817 C816 1.366 1_554 S
C817 C818 1.414 . S
C817 C820 1.499 . S
C818 H798 0.950 . S
C818 C817 1.414 . S
C818 C819 1.374 . S
C819 H799 0.950 . S
C819 C815 1.385 . S
C819 C818 1.374 . S
C820 C817 1.499 . S
C820 C821 1.373 . S
C820 C822 1.389 . S
C821 H800 0.950 . S
C821 C820 1.373 . S
C821 C837 1.375 1_554 S
C822 C820 1.389 . S
C822 C823 1.524 . S
C822 C836 1.377 1_554 S
C823 C822 1.524 . S
C823 C824 1.397 . S
C823 C828 1.363 1_554 S
C824 H801 0.950 . S
C824 C823 1.397 . S
C824 C825 1.334 . S
C825 H802 0.950 . S
C825 C824 1.334 . S
C825 C826 1.287 . S
C826 C825 1.287 . S
C826 C827 1.524 1_554 S
C826 H845 0.913 . S
C827 H803 0.950 . S
C827 C826 1.524 1_556 S
C827 C828 1.415 . S
C828 H804 0.950 . S
C828 C823 1.363 1_556 S
C828 C827 1.415 . S
C829 H805 0.951 . S
C829 C830 1.366 1_554 S
C829 C831 1.388 . S
C830 C829 1.366 1_556 S
C830 C834 1.385 . S
C831 H806 0.951 . S
C831 C829 1.388 . S
C831 C832 1.366 1_554 S
C832 C831 1.366 1_556 S
C832 C833 1.414 . S
C832 C835 1.499 . S
C833 H807 0.950 . S
C833 C832 1.414 . S
C833 C834 1.374 . S
C834 H808 0.950 . S
C834 C830 1.385 . S
C834 C833 1.374 . S
C835 C832 1.499 . S
C835 C836 1.373 . S
C835 C837 1.390 . S
C836 H809 0.950 . S
C836 C822 1.377 1_556 S
C836 C835 1.373 . S
C837 C821 1.375 1_556 S
C837 C835 1.390 . S
C837 C838 1.525 . S
C838 C837 1.525 . S
C838 C839 1.397 . S
C838 C843 1.363 1_556 S
C839 H810 0.950 . S
C839 C838 1.397 . S
C839 C840 1.334 . S
C840 H811 0.950 . S
C840 C839 1.334 . S
C840 C841 1.287 . S
C841 C840 1.287 . S
C841 C842 1.524 1_556 S
C841 H844 0.999 . S
C842 H812 0.950 . S
C842 C841 1.524 1_554 S
C842 C843 1.415 . S
C843 H813 0.950 . S
C843 C838 1.363 1_554 S
C843 C842 1.415 . S
H844 C841 0.999 . S
H845 C826 0.913 . S
H846 C864 0.951 . S
H847 C866 0.951 . S
H848 C868 0.950 . S
H849 C869 0.950 . S
H850 C871 0.950 . S
H851 C874 0.950 . S
H852 C875 0.950 . S
H853 C877 0.950 . S
H854 C878 0.950 . S
H855 C879 0.951 . S
H856 C881 0.951 . S
H857 C883 0.950 . S
H858 C884 0.950 . S
H859 C886 0.950 . S
H860 C889 0.950 . S
H861 C890 0.950 . S
H862 C892 0.950 . S
H863 C893 0.950 . S
C864 H846 0.951 . S
C864 C865 1.366 . S
C864 C866 1.388 . S
C865 C864 1.366 . S
C865 C869 1.385 1_556 S
C866 H847 0.951 . S
C866 C864 1.388 . S
C866 C867 1.366 . S
C867 C866 1.366 . S
C867 C868 1.414 1_556 S
C867 C870 1.499 . S
C868 H848 0.950 . S
C868 C867 1.414 1_554 S
C868 C869 1.374 . S
C869 H849 0.950 . S
C869 C865 1.385 1_554 S
C869 C868 1.374 . S
C870 C867 1.499 . S
C870 C871 1.373 1_556 S
C870 C872 1.389 . S
C871 H850 0.950 . S
C871 C870 1.373 1_554 S
C871 C887 1.377 . S
C872 C870 1.389 . S
C872 C873 1.524 . S
C872 C886 1.377 . S
C873 C872 1.524 . S
C873 C874 1.397 . S
C873 C878 1.363 . S
C874 H851 0.950 . S
C874 C873 1.397 . S
C874 C875 1.334 . S
C875 H852 0.950 . S
C875 C874 1.334 . S
C875 C876 1.287 . S
C876 C875 1.287 . S
C876 C877 1.524 . S
C876 H895 0.913 . S
C877 H853 0.950 . S
C877 C876 1.524 . S
C877 C878 1.415 . S
C878 H854 0.950 . S
C878 C873 1.363 . S
C878 C877 1.415 . S
C879 H855 0.951 . S
C879 C880 1.366 . S
C879 C881 1.388 . S
C880 C879 1.366 . S
C880 C884 1.385 1_554 S
C881 H856 0.951 . S
C881 C879 1.388 . S
C881 C882 1.366 . S
C882 C881 1.366 . S
C882 C883 1.414 1_554 S
C882 C885 1.499 . S
C883 H857 0.950 . S
C883 C882 1.414 1_556 S
C883 C884 1.374 . S
C884 H858 0.950 . S
C884 C880 1.385 1_556 S
C884 C883 1.374 . S
C885 C882 1.499 . S
C885 C886 1.373 1_554 S
C885 C887 1.389 . S
C886 H859 0.950 . S
C886 C872 1.377 . S
C886 C885 1.373 1_556 S
C887 C871 1.377 . S
C887 C885 1.389 . S
C887 C888 1.524 . S
C888 C887 1.524 . S
C888 C889 1.397 . S
C888 C893 1.363 . S
C889 H860 0.950 . S
C889 C888 1.397 . S
C889 C890 1.334 . S
C890 H861 0.950 . S
C890 C889 1.334 . S
C890 C891 1.287 . S
C891 C890 1.287 . S
C891 C892 1.524 . S
C891 H894 0.999 . S
C892 H862 0.950 . S
C892 C891 1.524 . S
C892 C893 1.415 . S
C893 H863 0.950 . S
C893 C888 1.363 . S
C893 C892 1.415 . S
H894 C891 0.999 . S
H895 C876 0.913 . S
H896 C914 0.951 . S
H897 C916 0.951 . S
H898 C918 0.952 . S
H899 C919 0.950 1_554 S
H900 C921 0.950 . S
H901 C924 0.950 . S
H902 C925 0.950 . S
H903 C927 0.950 . S
H904 C928 0.950 . S
H905 C929 0.951 . S
H906 C931 0.951 . S
H907 C933 0.950 1_556 S
H908 C934 0.948 1_556 S
H909 C936 0.950 . S
H910 C939 0.950 . S
H911 C940 0.950 . S
H912 C942 0.950 . S
H913 C943 0.950 . S
C914 H896 0.951 . S
C914 C915 1.366 . S
C914 C916 1.388 . S
C915 C914 1.366 . S
C915 C919 1.385 . S
C916 H897 0.951 . S
C916 C914 1.388 . S
C916 C917 1.366 . S
C917 C916 1.366 . S
C917 C918 1.412 1_556 S
C917 C920 1.499 . S
C918 H898 0.952 . S
C918 C917 1.412 1_554 S
C918 C919 1.373 1_554 S
C919 H899 0.950 1_556 S
C919 C915 1.385 . S
C919 C918 1.373 1_556 S
C920 C917 1.499 . S
C920 C921 1.373 1_556 S
C920 C922 1.389 . S
C921 H900 0.950 . S
C921 C920 1.373 1_554 S
C921 C937 1.377 . S
C922 C920 1.389 . S
C922 C923 1.524 . S
C922 C936 1.377 . S
C923 C922 1.524 . S
C923 C924 1.397 . S
C923 C928 1.363 . S
C924 H901 0.950 . S
C924 C923 1.397 . S
C924 C925 1.334 . S
C925 H902 0.950 . S
C925 C924 1.334 . S
C925 C926 1.287 . S
C926 C925 1.287 . S
C926 C927 1.524 . S
C926 H945 0.913 . S
C927 H903 0.950 . S
C927 C926 1.524 . S
C927 C928 1.415 . S
C928 H904 0.950 . S
C928 C923 1.363 . S
C928 C927 1.415 . S
C929 H905 0.951 . S
C929 C930 1.366 . S
C929 C931 1.388 . S
C930 C929 1.366 . S
C930 C934 1.385 . S
C931 H906 0.951 . S
C931 C929 1.388 . S
C931 C932 1.366 . S
C932 C931 1.366 . S
C932 C933 1.414 . S
C932 C935 1.499 . S
C933 H907 0.950 1_554 S
C933 C932 1.414 . S
C933 C934 1.374 . S
C934 H908 0.948 1_554 S
C934 C930 1.385 . S
C934 C933 1.374 . S
C935 C932 1.499 . S
C935 C936 1.373 1_554 S
C935 C937 1.389 . S
C936 H909 0.950 . S
C936 C922 1.377 . S
C936 C935 1.373 1_556 S
C937 C921 1.377 . S
C937 C935 1.389 . S
C937 C938 1.524 . S
C938 C937 1.524 . S
C938 C939 1.397 . S
C938 C943 1.363 . S
C939 H910 0.950 . S
C939 C938 1.397 . S
C939 C940 1.334 . S
C940 H911 0.950 . S
C940 C939 1.334 . S
C940 C941 1.287 . S
C941 C940 1.287 . S
C941 C942 1.524 . S
C941 H944 0.999 . S
C942 H912 0.950 . S
C942 C941 1.524 . S
C942 C943 1.415 . S
C943 H913 0.950 . S
C943 C938 1.363 . S
C943 C942 1.415 . S
H944 C941 0.999 . S
H945 C926 0.913 . S
H946 C964 0.951 . S
H947 C966 0.951 . S
H948 C968 0.950 . S
H949 C969 0.950 . S
H950 C971 0.950 . S
H951 C974 0.950 . S
H952 C975 0.950 . S
H953 C977 0.950 . S
H954 C978 0.950 . S
H955 C979 0.951 . S
H956 C981 0.951 . S
H957 C983 0.950 . S
H958 C984 0.950 . S
H959 C986 0.950 . S
H960 C989 0.950 . S
H961 C990 0.950 . S
H962 C992 0.950 . S
H963 C993 0.950 . S
C964 H946 0.951 . S
C964 C965 1.366 . S
C964 C966 1.388 . S
C965 C964 1.366 . S
C965 C969 1.385 1_556 S
C966 H947 0.951 . S
C966 C964 1.388 . S
C966 C967 1.366 . S
C967 C966 1.366 . S
C967 C968 1.414 1_556 S
C967 C970 1.499 . S
C968 H948 0.950 . S
C968 C967 1.414 1_554 S
C968 C969 1.374 . S
C969 H949 0.950 . S
C969 C965 1.385 1_554 S
C969 C968 1.374 . S
C970 C967 1.499 . S
C970 C971 1.373 1_556 S
C970 C972 1.389 . S
C971 H950 0.950 . S
C971 C970 1.373 1_554 S
C971 C987 1.377 . S
C972 C970 1.389 . S
C972 C973 1.524 . S
C972 C986 1.377 . S
C973 C972 1.524 . S
C973 C974 1.397 . S
C973 C978 1.363 . S
C974 H951 0.950 . S
C974 C973 1.397 . S
C974 C975 1.334 . S
C975 H952 0.950 . S
C975 C974 1.334 . S
C975 C976 1.287 . S
C976 C975 1.287 . S
C976 C977 1.524 . S
C976 H995 0.913 . S
C977 H953 0.950 . S
C977 C976 1.524 . S
C977 C978 1.415 . S
C978 H954 0.950 . S
C978 C973 1.363 . S
C978 C977 1.415 . S
C979 H955 0.951 . S
C979 C980 1.366 . S
C979 C981 1.388 . S
C980 C979 1.366 . S
C980 C984 1.385 1_554 S
C981 H956 0.951 . S
C981 C979 1.388 . S
C981 C982 1.366 . S
C982 C981 1.366 . S
C982 C983 1.414 1_554 S
C982 C985 1.499 . S
C983 H957 0.950 . S
C983 C982 1.414 1_556 S
C983 C984 1.374 . S
C984 H958 0.950 . S
C984 C980 1.385 1_556 S
C984 C983 1.374 . S
C985 C982 1.499 . S
C985 C986 1.373 1_554 S
C985 C987 1.389 . S
C986 H959 0.950 . S
C986 C972 1.377 . S
C986 C985 1.373 1_556 S
C987 C971 1.377 . S
C987 C985 1.389 . S
C987 C988 1.524 . S
C988 C987 1.524 . S
C988 C989 1.397 . S
C988 C993 1.363 . S
C989 H960 0.950 . S
C989 C988 1.397 . S
C989 C990 1.334 . S
C990 H961 0.950 . S
C990 C989 1.334 . S
C990 C991 1.287 . S
C991 C990 1.287 . S
C991 C992 1.524 . S
C991 H994 0.999 . S
C992 H962 0.950 . S
C992 C991 1.524 . S
C992 C993 1.415 . S
C993 H963 0.950 . S
C993 C988 1.363 . S
C993 C992 1.415 . S
H994 C991 0.999 . S
H995 C976 0.913 . S
H996 C1014 0.951 . S
H997 C1016 0.951 . S
H998 C1018 0.950 . S
H999 C1019 0.950 . S
H1000 C1021 0.950 . S
H1001 C1024 0.950 . S
H1002 C1025 0.950 . S
H1003 C1027 0.950 . S
H1004 C1028 0.950 . S
H1005 C1029 0.951 . S
H1006 C1031 0.951 . S
H1007 C1033 0.950 . S
H1008 C1034 0.950 . S
H1009 C1036 0.950 . S
H1010 C1039 0.950 . S
H1011 C1040 0.950 . S
H1012 C1042 0.950 . S
H1013 C1043 0.950 . S
C1014 H996 0.951 . S
C1014 C1015 1.366 . S
C1014 C1016 1.388 . S
C1015 C1014 1.366 . S
C1015 C1019 1.385 . S
C1016 H997 0.951 . S
C1016 C1014 1.388 . S
C1016 C1017 1.366 . S
C1017 C1016 1.366 . S
C1017 C1018 1.414 . S
C1017 C1020 1.499 . S
C1018 H998 0.950 . S
C1018 C1017 1.414 . S
C1018 C1019 1.374 . S
C1019 H999 0.950 . S
C1019 C1015 1.385 . S
C1019 C1018 1.374 . S
C1020 C1017 1.499 . S
C1020 C1021 1.373 . S
C1020 C1022 1.389 . S
C1021 H1000 0.950 . S
C1021 C1020 1.373 . S
C1021 C1037 1.377 . S
C1022 C1020 1.389 . S
C1022 C1023 1.524 . S
C1022 C1036 1.377 . S
C1023 C1022 1.524 . S
C1023 C1024 1.397 . S
C1023 C1028 1.363 . S
C1024 H1001 0.950 . S
C1024 C1023 1.397 . S
C1024 C1025 1.334 . S
C1025 H1002 0.950 . S
C1025 C1024 1.334 . S
C1025 C1026 1.287 . S
C1026 C1025 1.287 . S
C1026 C1027 1.524 . S
C1026 H1045 0.913 . S
C1027 H1003 0.950 . S
C1027 C1026 1.524 . S
C1027 C1028 1.415 . S
C1028 H1004 0.950 . S
C1028 C1023 1.363 . S
C1028 C1027 1.415 . S
C1029 H1005 0.951 . S
C1029 C1030 1.366 . S
C1029 C1031 1.388 . S
C1030 C1029 1.366 . S
C1030 C1034 1.385 . S
C1031 H1006 0.951 . S
C1031 C1029 1.388 . S
C1031 C1032 1.366 . S
C1032 C1031 1.366 . S
C1032 C1033 1.414 . S
C1032 C1035 1.499 . S
C1033 H1007 0.950 . S
C1033 C1032 1.414 . S
C1033 C1034 1.374 . S
C1034 H1008 0.950 . S
C1034 C1030 1.385 . S
C1034 C1033 1.374 . S
C1035 C1032 1.499 . S
C1035 C1036 1.373 . S
C1035 C1037 1.389 . S
C1036 H1009 0.950 . S
C1036 C1022 1.377 . S
C1036 C1035 1.373 . S
C1037 C1021 1.377 . S
C1037 C1035 1.389 . S
C1037 C1038 1.524 . S
C1038 C1037 1.524 . S
C1038 C1039 1.397 . S
C1038 C1043 1.363 . S
C1039 H1010 0.950 . S
C1039 C1038 1.397 . S
C1039 C1040 1.334 . S
C1040 H1011 0.950 . S
C1040 C1039 1.334 . S
C1040 C1041 1.287 . S
C1041 C1040 1.287 . S
C1041 C1042 1.524 . S
C1041 H1044 0.999 . S
C1042 H1012 0.950 . S
C1042 C1041 1.524 . S
C1042 C1043 1.415 . S
C1043 H1013 0.950 . S
C1043 C1038 1.363 . S
C1043 C1042 1.415 . S
H1044 C1041 0.999 . S
H1045 C1026 0.913 . S
H1046 C1064 0.951 . S
H1047 C1066 0.951 . S
H1048 C1068 0.950 . S
H1049 C1069 0.950 . S
H1050 C1071 0.950 . S
H1051 C1074 0.950 . S
H1052 C1075 0.950 . S
H1053 C1077 0.950 . S
H1054 C1078 0.950 . S
H1055 C1079 0.951 . S
H1056 C1081 0.951 . S
H1057 C1083 0.950 . S
H1058 C1084 0.950 . S
H1059 C1086 0.950 . S
H1060 C1089 0.950 . S
H1061 C1090 0.950 . S
H1062 C1092 0.950 . S
H1063 C1093 0.950 . S
C1064 H1046 0.951 . S
C1064 C1065 1.366 . S
C1064 C1066 1.388 . S
C1065 C1064 1.366 . S
C1065 C1069 1.385 . S
C1066 H1047 0.951 . S
C1066 C1064 1.388 . S
C1066 C1067 1.366 . S
C1067 C1066 1.366 . S
C1067 C1068 1.414 . S
C1067 C1070 1.499 . S
C1068 H1048 0.950 . S
C1068 C1067 1.414 . S
C1068 C1069 1.374 . S
C1069 H1049 0.950 . S
C1069 C1065 1.385 . S
C1069 C1068 1.374 . S
C1070 C1067 1.499 . S
C1070 C1071 1.373 . S
C1070 C1072 1.389 . S
C1071 H1050 0.950 . S
C1071 C1070 1.373 . S
C1071 C1087 1.377 . S
C1072 C1070 1.389 . S
C1072 C1073 1.524 . S
C1072 C1086 1.377 . S
C1073 C1072 1.524 . S
C1073 C1074 1.397 . S
C1073 C1078 1.363 . S
C1074 H1051 0.950 . S
C1074 C1073 1.397 . S
C1074 C1075 1.334 . S
C1075 H1052 0.950 . S
C1075 C1074 1.334 . S
C1075 C1076 1.287 . S
C1076 C1075 1.287 . S
C1076 C1077 1.524 . S
C1076 H1095 0.913 . S
C1077 H1053 0.950 . S
C1077 C1076 1.524 . S
C1077 C1078 1.415 . S
C1078 H1054 0.950 . S
C1078 C1073 1.363 . S
C1078 C1077 1.415 . S
C1079 H1055 0.951 . S
C1079 C1080 1.366 . S
C1079 C1081 1.388 . S
C1080 C1079 1.366 . S
C1080 C1084 1.385 . S
C1081 H1056 0.951 . S
C1081 C1079 1.388 . S
C1081 C1082 1.366 . S
C1082 C1081 1.366 . S
C1082 C1083 1.414 . S
C1082 C1085 1.499 . S
C1083 H1057 0.950 . S
C1083 C1082 1.414 . S
C1083 C1084 1.374 . S
C1084 H1058 0.950 . S
C1084 C1080 1.385 . S
C1084 C1083 1.374 . S
C1085 C1082 1.499 . S
C1085 C1086 1.373 . S
C1085 C1087 1.389 . S
C1086 H1059 0.950 . S
C1086 C1072 1.377 . S
C1086 C1085 1.373 . S
C1087 C1071 1.377 . S
C1087 C1085 1.389 . S
C1087 C1088 1.524 . S
C1088 C1087 1.524 . S
C1088 C1089 1.397 . S
C1088 C1093 1.363 . S
C1089 H1060 0.950 . S
C1089 C1088 1.397 . S
C1089 C1090 1.334 . S
C1090 H1061 0.950 . S
C1090 C1089 1.334 . S
C1090 C1091 1.287 . S
C1091 C1090 1.287 . S
C1091 C1092 1.524 . S
C1091 H1094 0.999 . S
C1092 H1062 0.950 . S
C1092 C1091 1.524 . S
C1092 C1093 1.415 . S
C1093 H1063 0.950 . S
C1093 C1088 1.363 . S
C1093 C1092 1.415 . S
H1094 C1091 0.999 . S
H1095 C1076 0.913 . S
H1096 C1114 0.951 . S
H1097 C1116 0.951 . S
H1098 C1118 0.950 . S
H1099 C1119 0.950 . S
H1100 C1121 0.950 . S
H1101 C1124 0.950 . S
H1102 C1125 0.950 . S
H1103 C1127 0.950 . S
H1104 C1128 0.950 . S
H1105 C1129 0.951 . S
H1106 C1131 0.951 . S
H1107 C1133 0.950 . S
H1108 C1134 0.950 . S
H1109 C1136 0.950 . S
H1110 C1139 0.950 . S
H1111 C1140 0.950 . S
H1112 C1142 0.950 . S
H1113 C1143 0.950 . S
C1114 H1096 0.951 . S
C1114 C1115 1.366 . S
C1114 C1116 1.388 . S
C1115 C1114 1.366 . S
C1115 C1119 1.385 . S
C1116 H1097 0.951 . S
C1116 C1114 1.388 . S
C1116 C1117 1.366 . S
C1117 C1116 1.366 . S
C1117 C1118 1.414 . S
C1117 C1120 1.499 . S
C1118 H1098 0.950 . S
C1118 C1117 1.414 . S
C1118 C1119 1.374 . S
C1119 H1099 0.950 . S
C1119 C1115 1.385 . S
C1119 C1118 1.374 . S
C1120 C1117 1.499 . S
C1120 C1121 1.373 . S
C1120 C1122 1.389 . S
C1121 H1100 0.950 . S
C1121 C1120 1.373 . S
C1121 C1137 1.377 . S
C1122 C1120 1.389 . S
C1122 C1123 1.524 . S
C1122 C1136 1.377 . S
C1123 C1122 1.524 . S
C1123 C1124 1.397 . S
C1123 C1128 1.363 . S
C1124 H1101 0.950 . S
C1124 C1123 1.397 . S
C1124 C1125 1.334 . S
C1125 H1102 0.950 . S
C1125 C1124 1.334 . S
C1125 C1126 1.287 . S
C1126 C1125 1.287 . S
C1126 C1127 1.524 . S
C1126 H1145 0.913 . S
C1127 H1103 0.950 . S
C1127 C1126 1.524 . S
C1127 C1128 1.415 . S
C1128 H1104 0.950 . S
C1128 C1123 1.363 . S
C1128 C1127 1.415 . S
C1129 H1105 0.951 . S
C1129 C1130 1.366 . S
C1129 C1131 1.388 . S
C1130 C1129 1.366 . S
C1130 C1134 1.385 . S
C1131 H1106 0.951 . S
C1131 C1129 1.388 . S
C1131 C1132 1.366 . S
C1132 C1131 1.366 . S
C1132 C1133 1.414 . S
C1132 C1135 1.499 . S
C1133 H1107 0.950 . S
C1133 C1132 1.414 . S
C1133 C1134 1.374 . S
C1134 H1108 0.950 . S
C1134 C1130 1.385 . S
C1134 C1133 1.374 . S
C1135 C1132 1.499 . S
C1135 C1136 1.373 . S
C1135 C1137 1.389 . S
C1136 H1109 0.950 . S
C1136 C1122 1.377 . S
C1136 C1135 1.373 . S
C1137 C1121 1.377 . S
C1137 C1135 1.389 . S
C1137 C1138 1.524 . S
C1138 C1137 1.524 . S
C1138 C1139 1.397 . S
C1138 C1143 1.363 . S
C1139 H1110 0.950 . S
C1139 C1138 1.397 . S
C1139 C1140 1.334 . S
C1140 H1111 0.950 . S
C1140 C1139 1.334 . S
C1140 C1141 1.287 . S
C1141 C1140 1.287 . S
C1141 C1142 1.524 . S
C1141 H1144 0.999 . S
C1142 H1112 0.950 . S
C1142 C1141 1.524 . S
C1142 C1143 1.415 . S
C1143 H1113 0.950 . S
C1143 C1138 1.363 . S
C1143 C1142 1.415 . S
H1144 C1141 0.999 . S
H1145 C1126 0.913 . S
H1146 C1164 0.951 . S
H1147 C1166 0.951 . S
H1148 C1168 0.950 . S
H1149 C1169 0.950 . S
H1150 C1171 0.950 . S
H1151 C1174 0.950 . S
H1152 C1175 0.950 . S
H1153 C1177 0.950 . S
H1154 C1178 0.950 . S
H1155 C1179 0.951 . S
H1156 C1181 0.951 . S
H1157 C1183 0.950 . S
H1158 C1184 0.950 . S
H1159 C1186 0.950 . S
H1160 C1189 0.950 . S
H1161 C1190 0.950 . S
H1162 C1192 0.950 . S
H1163 C1193 0.950 . S
C1164 H1146 0.951 . S
C1164 C1165 1.366 . S
C1164 C1166 1.388 . S
C1165 C1164 1.366 . S
C1165 C1169 1.385 . S
C1166 H1147 0.951 . S
C1166 C1164 1.388 . S
C1166 C1167 1.366 . S
C1167 C1166 1.366 . S
C1167 C1168 1.414 . S
C1167 C1170 1.499 . S
C1168 H1148 0.950 . S
C1168 C1167 1.414 . S
C1168 C1169 1.374 . S
C1169 H1149 0.950 . S
C1169 C1165 1.385 . S
C1169 C1168 1.374 . S
C1170 C1167 1.499 . S
C1170 C1171 1.373 . S
C1170 C1172 1.389 . S
C1171 H1150 0.950 . S
C1171 C1170 1.373 . S
C1171 C1187 1.377 . S
C1172 C1170 1.389 . S
C1172 C1173 1.524 . S
C1172 C1186 1.377 . S
C1173 C1172 1.524 . S
C1173 C1174 1.397 . S
C1173 C1178 1.363 . S
C1174 H1151 0.950 . S
C1174 C1173 1.397 . S
C1174 C1175 1.334 . S
C1175 H1152 0.950 . S
C1175 C1174 1.334 . S
C1175 C1176 1.287 . S
C1176 C1175 1.287 . S
C1176 C1177 1.524 . S
C1176 H1195 0.913 . S
C1177 H1153 0.950 . S
C1177 C1176 1.524 . S
C1177 C1178 1.415 . S
C1178 H1154 0.950 . S
C1178 C1173 1.363 . S
C1178 C1177 1.415 . S
C1179 H1155 0.951 . S
C1179 C1180 1.366 . S
C1179 C1181 1.388 . S
C1180 C1179 1.366 . S
C1180 C1184 1.385 . S
C1181 H1156 0.951 . S
C1181 C1179 1.388 . S
C1181 C1182 1.366 . S
C1182 C1181 1.366 . S
C1182 C1183 1.414 . S
C1182 C1185 1.499 . S
C1183 H1157 0.950 . S
C1183 C1182 1.414 . S
C1183 C1184 1.374 . S
C1184 H1158 0.950 . S
C1184 C1180 1.385 . S
C1184 C1183 1.374 . S
C1185 C1182 1.499 . S
C1185 C1186 1.373 . S
C1185 C1187 1.389 . S
C1186 H1159 0.950 . S
C1186 C1172 1.377 . S
C1186 C1185 1.373 . S
C1187 C1171 1.377 . S
C1187 C1185 1.389 . S
C1187 C1188 1.524 . S
C1188 C1187 1.524 . S
C1188 C1189 1.397 . S
C1188 C1193 1.363 . S
C1189 H1160 0.950 . S
C1189 C1188 1.397 . S
C1189 C1190 1.334 . S
C1190 H1161 0.950 . S
C1190 C1189 1.334 . S
C1190 C1191 1.287 . S
C1191 C1190 1.287 . S
C1191 C1192 1.524 . S
C1191 H1194 0.999 . S
C1192 H1162 0.950 . S
C1192 C1191 1.524 . S
C1192 C1193 1.415 . S
C1193 H1163 0.950 . S
C1193 C1188 1.363 . S
C1193 C1192 1.415 . S
H1194 C1191 0.999 . S
H1195 C1176 0.913 . S
H1196 C1214 0.951 . S
H1197 C1216 0.951 . S
H1198 C1218 0.950 . S
H1199 C1219 0.950 . S
H1200 C1221 0.950 . S
H1201 C1224 0.950 . S
H1202 C1225 0.950 . S
H1203 C1227 0.950 . S
H1204 C1228 0.950 . S
H1205 C1229 0.951 . S
H1206 C1231 0.951 . S
H1207 C1233 0.950 . S
H1208 C1234 0.950 . S
H1209 C1236 0.950 . S
H1210 C1239 0.950 . S
H1211 C1240 0.950 . S
H1212 C1242 0.950 . S
H1213 C1243 0.950 . S
C1214 H1196 0.951 . S
C1214 C1215 1.366 . S
C1214 C1216 1.388 . S
C1215 C1214 1.366 . S
C1215 C1219 1.385 . S
C1216 H1197 0.951 . S
C1216 C1214 1.388 . S
C1216 C1217 1.366 . S
C1217 C1216 1.366 . S
C1217 C1218 1.414 . S
C1217 C1220 1.499 . S
C1218 H1198 0.950 . S
C1218 C1217 1.414 . S
C1218 C1219 1.374 . S
C1219 H1199 0.950 . S
C1219 C1215 1.385 . S
C1219 C1218 1.374 . S
C1220 C1217 1.499 . S
C1220 C1221 1.373 . S
C1220 C1222 1.389 . S
C1221 H1200 0.950 . S
C1221 C1220 1.373 . S
C1221 C1237 1.377 . S
C1222 C1220 1.389 . S
C1222 C1223 1.524 . S
C1222 C1236 1.377 . S
C1223 C1222 1.524 . S
C1223 C1224 1.397 . S
C1223 C1228 1.363 . S
C1224 H1201 0.950 . S
C1224 C1223 1.397 . S
C1224 C1225 1.334 . S
C1225 H1202 0.950 . S
C1225 C1224 1.334 . S
C1225 C1226 1.287 . S
C1226 C1225 1.287 . S
C1226 C1227 1.524 . S
C1226 H1245 0.913 . S
C1227 H1203 0.950 . S
C1227 C1226 1.524 . S
C1227 C1228 1.415 . S
C1228 H1204 0.950 . S
C1228 C1223 1.363 . S
C1228 C1227 1.415 . S
C1229 H1205 0.951 . S
C1229 C1230 1.366 . S
C1229 C1231 1.388 . S
C1230 C1229 1.366 . S
C1230 C1234 1.385 . S
C1231 H1206 0.951 . S
C1231 C1229 1.388 . S
C1231 C1232 1.366 . S
C1232 C1231 1.366 . S
C1232 C1233 1.414 . S
C1232 C1235 1.499 . S
C1233 H1207 0.950 . S
C1233 C1232 1.414 . S
C1233 C1234 1.374 . S
C1234 H1208 0.950 . S
C1234 C1230 1.385 . S
C1234 C1233 1.374 . S
C1235 C1232 1.499 . S
C1235 C1236 1.373 . S
C1235 C1237 1.389 . S
C1236 H1209 0.950 . S
C1236 C1222 1.377 . S
C1236 C1235 1.373 . S
C1237 C1221 1.377 . S
C1237 C1235 1.389 . S
C1237 C1238 1.524 . S
C1238 C1237 1.524 . S
C1238 C1239 1.397 . S
C1238 C1243 1.363 . S
C1239 H1210 0.950 . S
C1239 C1238 1.397 . S
C1239 C1240 1.334 . S
C1240 H1211 0.950 . S
C1240 C1239 1.334 . S
C1240 C1241 1.287 . S
C1241 C1240 1.287 . S
C1241 C1242 1.524 . S
C1241 H1244 0.999 . S
C1242 H1212 0.950 . S
C1242 C1241 1.524 . S
C1242 C1243 1.415 . S
C1243 H1213 0.950 . S
C1243 C1238 1.363 . S
C1243 C1242 1.415 . S
H1244 C1241 0.999 . S
H1245 C1226 0.913 . S
H1246 C1264 0.951 . S
H1247 C1266 0.951 . S
H1248 C1268 0.950 . S
H1249 C1269 0.950 . S
H1250 C1271 0.950 . S
H1251 C1274 0.950 . S
H1252 C1275 0.950 . S
H1253 C1277 0.950 . S
H1254 C1278 0.950 . S
H1255 C1279 0.951 . S
H1256 C1281 0.951 . S
H1257 C1283 0.950 . S
H1258 C1284 0.950 . S
H1259 C1286 0.950 . S
H1260 C1289 0.950 . S
H1261 C1290 0.950 . S
H1262 C1292 0.950 . S
H1263 C1293 0.950 . S
C1264 H1246 0.951 . S
C1264 C1265 1.366 . S
C1264 C1266 1.388 . S
C1265 C1264 1.366 . S
C1265 C1269 1.385 . S
C1266 H1247 0.951 . S
C1266 C1264 1.388 . S
C1266 C1267 1.366 . S
C1267 C1266 1.366 . S
C1267 C1268 1.414 . S
C1267 C1270 1.499 . S
C1268 H1248 0.950 . S
C1268 C1267 1.414 . S
C1268 C1269 1.374 . S
C1269 H1249 0.950 . S
C1269 C1265 1.385 . S
C1269 C1268 1.374 . S
C1270 C1267 1.499 . S
C1270 C1271 1.373 . S
C1270 C1272 1.389 . S
C1271 H1250 0.950 . S
C1271 C1270 1.373 . S
C1271 C1287 1.377 . S
C1272 C1270 1.389 . S
C1272 C1273 1.524 . S
C1272 C1286 1.377 . S
C1273 C1272 1.524 . S
C1273 C1274 1.397 . S
C1273 C1278 1.363 . S
C1274 H1251 0.950 . S
C1274 C1273 1.397 . S
C1274 C1275 1.334 . S
C1275 H1252 0.950 . S
C1275 C1274 1.334 . S
C1275 C1276 1.287 . S
C1276 C1275 1.287 . S
C1276 C1277 1.524 . S
C1276 H1295 0.913 . S
C1277 H1253 0.950 . S
C1277 C1276 1.524 . S
C1277 C1278 1.415 . S
C1278 H1254 0.950 . S
C1278 C1273 1.363 . S
C1278 C1277 1.415 . S
C1279 H1255 0.951 . S
C1279 C1280 1.366 . S
C1279 C1281 1.388 . S
C1280 C1279 1.366 . S
C1280 C1284 1.385 . S
C1281 H1256 0.951 . S
C1281 C1279 1.388 . S
C1281 C1282 1.366 . S
C1282 C1281 1.366 . S
C1282 C1283 1.414 . S
C1282 C1285 1.499 . S
C1283 H1257 0.950 . S
C1283 C1282 1.414 . S
C1283 C1284 1.374 . S
C1284 H1258 0.950 . S
C1284 C1280 1.385 . S
C1284 C1283 1.374 . S
C1285 C1282 1.499 . S
C1285 C1286 1.373 . S
C1285 C1287 1.389 . S
C1286 H1259 0.950 . S
C1286 C1272 1.377 . S
C1286 C1285 1.373 . S
C1287 C1271 1.377 . S
C1287 C1285 1.389 . S
C1287 C1288 1.524 . S
C1288 C1287 1.524 . S
C1288 C1289 1.397 . S
C1288 C1293 1.363 . S
C1289 H1260 0.950 . S
C1289 C1288 1.397 . S
C1289 C1290 1.334 . S
C1290 H1261 0.950 . S
C1290 C1289 1.334 . S
C1290 C1291 1.287 . S
C1291 C1290 1.287 . S
C1291 C1292 1.524 . S
C1291 H1294 0.999 . S
C1292 H1262 0.950 . S
C1292 C1291 1.524 . S
C1292 C1293 1.415 . S
C1293 H1263 0.950 . S
C1293 C1288 1.363 . S
C1293 C1292 1.415 . S
H1294 C1291 0.999 . S
H1295 C1276 0.913 . S
H1296 C1314 0.951 . S
H1297 C1316 0.951 . S
H1298 C1318 0.950 . S
H1299 C1319 0.950 . S
H1300 C1321 0.950 . S
H1301 C1324 0.950 . S
H1302 C1325 0.950 . S
H1303 C1327 0.950 . S
H1304 C1328 0.950 . S
H1305 C1329 0.951 . S
H1306 C1331 0.951 . S
H1307 C1333 0.950 . S
H1308 C1334 0.950 . S
H1309 C1336 0.950 . S
H1310 C1339 0.950 . S
H1311 C1340 0.950 . S
H1312 C1342 0.950 . S
H1313 C1343 0.950 . S
C1314 H1296 0.951 . S
C1314 C1315 1.366 . S
C1314 C1316 1.388 . S
C1315 C1314 1.366 . S
C1315 C1319 1.385 . S
C1316 H1297 0.951 . S
C1316 C1314 1.388 . S
C1316 C1317 1.366 . S
C1317 C1316 1.366 . S
C1317 C1318 1.414 . S
C1317 C1320 1.499 . S
C1318 H1298 0.950 . S
C1318 C1317 1.414 . S
C1318 C1319 1.374 . S
C1319 H1299 0.950 . S
C1319 C1315 1.385 . S
C1319 C1318 1.374 . S
C1320 C1317 1.499 . S
C1320 C1321 1.373 . S
C1320 C1322 1.389 . S
C1321 H1300 0.950 . S
C1321 C1320 1.373 . S
C1321 C1337 1.377 . S
C1322 C1320 1.389 . S
C1322 C1323 1.524 . S
C1322 C1336 1.377 . S
C1323 C1322 1.524 . S
C1323 C1324 1.397 . S
C1323 C1328 1.363 . S
C1324 H1301 0.950 . S
C1324 C1323 1.397 . S
C1324 C1325 1.334 . S
C1325 H1302 0.950 . S
C1325 C1324 1.334 . S
C1325 C1326 1.287 . S
C1326 C1325 1.287 . S
C1326 C1327 1.524 . S
C1326 H1345 0.913 . S
C1327 H1303 0.950 . S
C1327 C1326 1.524 . S
C1327 C1328 1.415 . S
C1328 H1304 0.950 . S
C1328 C1323 1.363 . S
C1328 C1327 1.415 . S
C1329 H1305 0.951 . S
C1329 C1330 1.366 . S
C1329 C1331 1.388 . S
C1330 C1329 1.366 . S
C1330 C1334 1.385 . S
C1331 H1306 0.951 . S
C1331 C1329 1.388 . S
C1331 C1332 1.366 . S
C1332 C1331 1.366 . S
C1332 C1333 1.414 . S
C1332 C1335 1.499 . S
C1333 H1307 0.950 . S
C1333 C1332 1.414 . S
C1333 C1334 1.374 . S
C1334 H1308 0.950 . S
C1334 C1330 1.385 . S
C1334 C1333 1.374 . S
C1335 C1332 1.499 . S
C1335 C1336 1.373 . S
C1335 C1337 1.389 . S
C1336 H1309 0.950 . S
C1336 C1322 1.377 . S
C1336 C1335 1.373 . S
C1337 C1321 1.377 . S
C1337 C1335 1.389 . S
C1337 C1338 1.524 . S
C1338 C1337 1.524 . S
C1338 C1339 1.397 . S
C1338 C1343 1.363 . S
C1339 H1310 0.950 . S
C1339 C1338 1.397 . S
C1339 C1340 1.334 . S
C1340 H1311 0.950 . S
C1340 C1339 1.334 . S
C1340 C1341 1.287 . S
C1341 C1340 1.287 . S
C1341 C1342 1.524 . S
C1341 H1344 0.999 . S
C1342 H1312 0.950 . S
C1342 C1341 1.524 . S
C1342 C1343 1.415 . S
C1343 H1313 0.950 . S
C1343 C1338 1.363 . S
C1343 C1342 1.415 . S
H1344 C1341 0.999 . S
H1345 C1326 0.913 . S
H1346 C1364 0.951 . S
H1347 C1366 0.951 . S
H1348 C1368 0.950 . S
H1349 C1369 0.950 . S
H1350 C1371 0.950 . S
H1351 C1374 0.950 . S
H1352 C1375 0.950 . S
H1353 C1377 0.950 . S
H1354 C1378 0.950 . S
H1355 C1379 0.951 . S
H1356 C1381 0.951 . S
H1357 C1383 0.950 . S
H1358 C1384 0.950 . S
H1359 C1386 0.950 . S
H1360 C1389 0.950 . S
H1361 C1390 0.950 . S
H1362 C1392 0.950 . S
H1363 C1393 0.950 . S
C1364 H1346 0.951 . S
C1364 C1365 1.366 . S
C1364 C1366 1.388 . S
C1365 C1364 1.366 . S
C1365 C1369 1.385 . S
C1366 H1347 0.951 . S
C1366 C1364 1.388 . S
C1366 C1367 1.366 . S
C1367 C1366 1.366 . S
C1367 C1368 1.414 . S
C1367 C1370 1.499 . S
C1368 H1348 0.950 . S
C1368 C1367 1.414 . S
C1368 C1369 1.374 . S
C1369 H1349 0.950 . S
C1369 C1365 1.385 . S
C1369 C1368 1.374 . S
C1370 C1367 1.499 . S
C1370 C1371 1.373 . S
C1370 C1372 1.389 . S
C1371 H1350 0.950 . S
C1371 C1370 1.373 . S
C1371 C1387 1.377 . S
C1372 C1370 1.389 . S
C1372 C1373 1.524 . S
C1372 C1386 1.377 . S
C1373 C1372 1.524 . S
C1373 C1374 1.397 . S
C1373 C1378 1.363 . S
C1374 H1351 0.950 . S
C1374 C1373 1.397 . S
C1374 C1375 1.334 . S
C1375 H1352 0.950 . S
C1375 C1374 1.334 . S
C1375 C1376 1.287 . S
C1376 C1375 1.287 . S
C1376 C1377 1.524 . S
C1376 H1395 0.913 . S
C1377 H1353 0.950 . S
C1377 C1376 1.524 . S
C1377 C1378 1.415 . S
C1378 H1354 0.950 . S
C1378 C1373 1.363 . S
C1378 C1377 1.415 . S
C1379 H1355 0.951 . S
C1379 C1380 1.366 . S
C1379 C1381 1.388 . S
C1380 C1379 1.366 . S
C1380 C1384 1.385 . S
C1381 H1356 0.951 . S
C1381 C1379 1.388 . S
C1381 C1382 1.366 . S
C1382 C1381 1.366 . S
C1382 C1383 1.414 . S
C1382 C1385 1.499 . S
C1383 H1357 0.950 . S
C1383 C1382 1.414 . S
C1383 C1384 1.374 . S
C1384 H1358 0.950 . S
C1384 C1380 1.385 . S
C1384 C1383 1.374 . S
C1385 C1382 1.499 . S
C1385 C1386 1.373 . S
C1385 C1387 1.389 . S
C1386 H1359 0.950 . S
C1386 C1372 1.377 . S
C1386 C1385 1.373 . S
C1387 C1371 1.377 . S
C1387 C1385 1.389 . S
C1387 C1388 1.524 . S
C1388 C1387 1.524 . S
C1388 C1389 1.397 . S
C1388 C1393 1.363 . S
C1389 H1360 0.950 . S
C1389 C1388 1.397 . S
C1389 C1390 1.334 . S
C1390 H1361 0.950 . S
C1390 C1389 1.334 . S
C1390 C1391 1.287 . S
C1391 C1390 1.287 . S
C1391 C1392 1.524 . S
C1391 H1394 0.999 . S
C1392 H1362 0.950 . S
C1392 C1391 1.524 . S
C1392 C1393 1.415 . S
C1393 H1363 0.950 . S
C1393 C1388 1.363 . S
C1393 C1392 1.415 . S
H1394 C1391 0.999 . S
H1395 C1376 0.913 . S
H1396 C1414 0.951 . S
H1397 C1416 0.951 . S
H1398 C1418 0.950 . S
H1399 C1419 0.950 . S
H1400 C1421 0.950 . S
H1401 C1424 0.950 . S
H1402 C1425 0.950 . S
H1403 C1427 0.950 . S
H1404 C1428 0.950 . S
H1405 C1429 0.951 . S
H1406 C1431 0.951 . S
H1407 C1433 0.950 . S
H1408 C1434 0.950 . S
H1409 C1436 0.950 . S
H1410 C1439 0.950 . S
H1411 C1440 0.950 . S
H1412 C1442 0.950 . S
H1413 C1443 0.950 . S
C1414 H1396 0.951 . S
C1414 C1415 1.366 . S
C1414 C1416 1.388 . S
C1415 C1414 1.366 . S
C1415 C1419 1.385 . S
C1416 H1397 0.951 . S
C1416 C1414 1.388 . S
C1416 C1417 1.366 . S
C1417 C1416 1.366 . S
C1417 C1418 1.414 . S
C1417 C1420 1.499 . S
C1418 H1398 0.950 . S
C1418 C1417 1.414 . S
C1418 C1419 1.374 . S
C1419 H1399 0.950 . S
C1419 C1415 1.385 . S
C1419 C1418 1.374 . S
C1420 C1417 1.499 . S
C1420 C1421 1.373 . S
C1420 C1422 1.389 . S
C1421 H1400 0.950 . S
C1421 C1420 1.373 . S
C1421 C1437 1.377 . S
C1422 C1420 1.389 . S
C1422 C1423 1.524 . S
C1422 C1436 1.377 . S
C1423 C1422 1.524 . S
C1423 C1424 1.397 . S
C1423 C1428 1.363 . S
C1424 H1401 0.950 . S
C1424 C1423 1.397 . S
C1424 C1425 1.334 . S
C1425 H1402 0.950 . S
C1425 C1424 1.334 . S
C1425 C1426 1.287 . S
C1426 C1425 1.287 . S
C1426 C1427 1.524 . S
C1426 H1445 0.913 . S
C1427 H1403 0.950 . S
C1427 C1426 1.524 . S
C1427 C1428 1.415 . S
C1428 H1404 0.950 . S
C1428 C1423 1.363 . S
C1428 C1427 1.415 . S
C1429 H1405 0.951 . S
C1429 C1430 1.366 . S
C1429 C1431 1.388 . S
C1430 C1429 1.366 . S
C1430 C1434 1.385 . S
C1431 H1406 0.951 . S
C1431 C1429 1.388 . S
C1431 C1432 1.366 . S
C1432 C1431 1.366 . S
C1432 C1433 1.414 . S
C1432 C1435 1.499 . S
C1433 H1407 0.950 . S
C1433 C1432 1.414 . S
C1433 C1434 1.374 . S
C1434 H1408 0.950 . S
C1434 C1430 1.385 . S
C1434 C1433 1.374 . S
C1435 C1432 1.499 . S
C1435 C1436 1.373 . S
C1435 C1437 1.389 . S
C1436 H1409 0.950 . S
C1436 C1422 1.377 . S
C1436 C1435 1.373 . S
C1437 C1421 1.377 . S
C1437 C1435 1.389 . S
C1437 C1438 1.524 . S
C1438 C1437 1.524 . S
C1438 C1439 1.397 . S
C1438 C1443 1.363 . S
C1439 H1410 0.950 . S
C1439 C1438 1.397 . S
C1439 C1440 1.334 . S
C1440 H1411 0.950 . S
C1440 C1439 1.334 . S
C1440 C1441 1.287 . S
C1441 C1440 1.287 . S
C1441 C1442 1.524 . S
C1441 H1444 0.999 . S
C1442 H1412 0.950 . S
C1442 C1441 1.524 . S
C1442 C1443 1.415 . S
C1443 H1413 0.950 . S
C1443 C1438 1.363 . S
C1443 C1442 1.415 . S
H1444 C1441 0.999 . S
H1445 C1426 0.913 . S
H1446 C1464 0.951 . S
H1447 C1466 0.951 . S
H1448 C1468 0.950 . S
H1449 C1469 0.950 . S
H1450 C1471 0.950 . S
H1451 C1474 0.950 . S
H1452 C1475 0.950 . S
H1453 C1477 0.950 . S
H1454 C1478 0.950 . S
H1455 C1479 0.951 . S
H1456 C1481 0.951 . S
H1457 C1483 0.950 . S
H1458 C1484 0.950 . S
H1459 C1486 0.950 . S
H1460 C1489 0.950 . S
H1461 C1490 0.950 . S
H1462 C1492 0.950 . S
H1463 C1493 0.950 . S
C1464 H1446 0.951 . S
C1464 C1465 1.366 . S
C1464 C1466 1.388 . S
C1465 C1464 1.366 . S
C1465 C1469 1.385 . S
C1466 H1447 0.951 . S
C1466 C1464 1.388 . S
C1466 C1467 1.366 . S
C1467 C1466 1.366 . S
C1467 C1468 1.414 . S
C1467 C1470 1.499 . S
C1468 H1448 0.950 . S
C1468 C1467 1.414 . S
C1468 C1469 1.374 . S
C1469 H1449 0.950 . S
C1469 C1465 1.385 . S
C1469 C1468 1.374 . S
C1470 C1467 1.499 . S
C1470 C1471 1.373 . S
C1470 C1472 1.389 . S
C1471 H1450 0.950 . S
C1471 C1470 1.373 . S
C1471 C1487 1.377 . S
C1472 C1470 1.389 . S
C1472 C1473 1.524 . S
C1472 C1486 1.377 . S
C1473 C1472 1.524 . S
C1473 C1474 1.397 . S
C1473 C1478 1.363 . S
C1474 H1451 0.950 . S
C1474 C1473 1.397 . S
C1474 C1475 1.334 . S
C1475 H1452 0.950 . S
C1475 C1474 1.334 . S
C1475 C1476 1.287 . S
C1476 C1475 1.287 . S
C1476 C1477 1.524 . S
C1476 H1495 0.913 . S
C1477 H1453 0.950 . S
C1477 C1476 1.524 . S
C1477 C1478 1.415 . S
C1478 H1454 0.950 . S
C1478 C1473 1.363 . S
C1478 C1477 1.415 . S
C1479 H1455 0.951 . S
C1479 C1480 1.366 . S
C1479 C1481 1.388 . S
C1480 C1479 1.366 . S
C1480 C1484 1.385 . S
C1481 H1456 0.951 . S
C1481 C1479 1.388 . S
C1481 C1482 1.366 . S
C1482 C1481 1.366 . S
C1482 C1483 1.414 . S
C1482 C1485 1.499 . S
C1483 H1457 0.950 . S
C1483 C1482 1.414 . S
C1483 C1484 1.374 . S
C1484 H1458 0.950 . S
C1484 C1480 1.385 . S
C1484 C1483 1.374 . S
C1485 C1482 1.499 . S
C1485 C1486 1.373 . S
C1485 C1487 1.389 . S
C1486 H1459 0.950 . S
C1486 C1472 1.377 . S
C1486 C1485 1.373 . S
C1487 C1471 1.377 . S
C1487 C1485 1.389 . S
C1487 C1488 1.524 . S
C1488 C1487 1.524 . S
C1488 C1489 1.397 . S
C1488 C1493 1.363 . S
C1489 H1460 0.950 . S
C1489 C1488 1.397 . S
C1489 C1490 1.334 . S
C1490 H1461 0.950 . S
C1490 C1489 1.334 . S
C1490 C1491 1.287 . S
C1491 C1490 1.287 . S
C1491 C1492 1.524 . S
C1491 H1494 0.999 . S
C1492 H1462 0.950 . S
C1492 C1491 1.524 . S
C1492 C1493 1.415 . S
C1493 H1463 0.950 . S
C1493 C1488 1.363 . S
C1493 C1492 1.415 . S
H1494 C1491 0.999 . S
H1495 C1476 0.913 . S
H1496 C1514 0.951 . S
H1497 C1516 0.951 . S
H1498 C1518 0.950 . S
H1499 C1519 0.950 . S
H1500 C1521 0.950 . S
H1501 C1524 0.950 . S
H1502 C1525 0.950 . S
H1503 C1527 0.950 . S
H1504 C1528 0.950 . S
H1505 C1529 0.951 . S
H1506 C1531 0.951 . S
H1507 C1533 0.950 . S
H1508 C1534 0.950 . S
H1509 C1536 0.950 . S
H1510 C1539 0.950 . S
H1511 C1540 0.950 . S
H1512 C1542 0.950 . S
H1513 C1543 0.950 . S
C1514 H1496 0.951 . S
C1514 C1515 1.366 . S
C1514 C1516 1.388 . S
C1515 C1514 1.366 . S
C1515 C1519 1.385 . S
C1516 H1497 0.951 . S
C1516 C1514 1.388 . S
C1516 C1517 1.366 . S
C1517 C1516 1.366 . S
C1517 C1518 1.414 . S
C1517 C1520 1.499 . S
C1518 H1498 0.950 . S
C1518 C1517 1.414 . S
C1518 C1519 1.374 . S
C1519 H1499 0.950 . S
C1519 C1515 1.385 . S
C1519 C1518 1.374 . S
C1520 C1517 1.499 . S
C1520 C1521 1.373 . S
C1520 C1522 1.389 . S
C1521 H1500 0.950 . S
C1521 C1520 1.373 . S
C1521 C1537 1.377 . S
C1522 C1520 1.389 . S
C1522 C1523 1.524 . S
C1522 C1536 1.377 . S
C1523 C1522 1.524 . S
C1523 C1524 1.397 . S
C1523 C1528 1.363 . S
C1524 H1501 0.950 . S
C1524 C1523 1.397 . S
C1524 C1525 1.334 . S
C1525 H1502 0.950 . S
C1525 C1524 1.334 . S
C1525 C1526 1.287 . S
C1526 C1525 1.287 . S
C1526 C1527 1.524 . S
C1526 H1545 0.913 . S
C1527 H1503 0.950 . S
C1527 C1526 1.524 . S
C1527 C1528 1.415 . S
C1528 H1504 0.950 . S
C1528 C1523 1.363 . S
C1528 C1527 1.415 . S
C1529 H1505 0.951 . S
C1529 C1530 1.366 . S
C1529 C1531 1.388 . S
C1530 C1529 1.366 . S
C1530 C1534 1.385 . S
C1531 H1506 0.951 . S
C1531 C1529 1.388 . S
C1531 C1532 1.366 . S
C1532 C1531 1.366 . S
C1532 C1533 1.414 . S
C1532 C1535 1.499 . S
C1533 H1507 0.950 . S
C1533 C1532 1.414 . S
C1533 C1534 1.374 . S
C1534 H1508 0.950 . S
C1534 C1530 1.385 . S
C1534 C1533 1.374 . S
C1535 C1532 1.499 . S
C1535 C1536 1.373 . S
C1535 C1537 1.389 . S
C1536 H1509 0.950 . S
C1536 C1522 1.377 . S
C1536 C1535 1.373 . S
C1537 C1521 1.377 . S
C1537 C1535 1.389 . S
C1537 C1538 1.524 . S
C1538 C1537 1.524 . S
C1538 C1539 1.397 . S
C1538 C1543 1.363 . S
C1539 H1510 0.950 . S
C1539 C1538 1.397 . S
C1539 C1540 1.334 . S
C1540 H1511 0.950 . S
C1540 C1539 1.334 . S
C1540 C1541 1.287 . S
C1541 C1540 1.287 . S
C1541 C1542 1.524 . S
C1541 H1544 0.999 . S
C1542 H1512 0.950 . S
C1542 C1541 1.524 . S
C1542 C1543 1.415 . S
C1543 H1513 0.950 . S
C1543 C1538 1.363 . S
C1543 C1542 1.415 . S
H1544 C1541 0.999 . S
H1545 C1526 0.913 . S
H1546 C1564 0.951 . S
H1547 C1566 0.951 . S
H1548 C1568 0.950 . S
H1549 C1569 0.950 . S
H1550 C1571 0.950 . S
H1551 C1574 0.950 . S
H1552 C1575 0.950 . S
H1553 C1577 0.950 . S
H1554 C1578 0.950 . S
H1555 C1579 0.951 . S
H1556 C1581 0.951 . S
H1557 C1583 0.950 . S
H1558 C1584 0.950 . S
H1559 C1586 0.950 . S
H1560 C1589 0.950 . S
H1561 C1590 0.950 . S
H1562 C1592 0.950 . S
H1563 C1593 0.950 . S
C1564 H1546 0.951 . S
C1564 C1565 1.366 . S
C1564 C1566 1.388 . S
C1565 C1564 1.366 . S
C1565 C1569 1.385 . S
C1566 H1547 0.951 . S
C1566 C1564 1.388 . S
C1566 C1567 1.366 . S
C1567 C1566 1.366 . S
C1567 C1568 1.414 . S
C1567 C1570 1.499 . S
C1568 H1548 0.950 . S
C1568 C1567 1.414 . S
C1568 C1569 1.374 . S
C1569 H1549 0.950 . S
C1569 C1565 1.385 . S
C1569 C1568 1.374 . S
C1570 C1567 1.499 . S
C1570 C1571 1.373 . S
C1570 C1572 1.389 . S
C1571 H1550 0.950 . S
C1571 C1570 1.373 . S
C1571 C1587 1.377 . S
C1572 C1570 1.389 . S
C1572 C1573 1.524 . S
C1572 C1586 1.377 . S
C1573 C1572 1.524 . S
C1573 C1574 1.397 . S
C1573 C1578 1.363 . S
C1574 H1551 0.950 . S
C1574 C1573 1.397 . S
C1574 C1575 1.334 . S
C1575 H1552 0.950 . S
C1575 C1574 1.334 . S
C1575 C1576 1.287 . S
C1576 C1575 1.287 . S
C1576 C1577 1.524 . S
C1576 H1595 0.913 . S
C1577 H1553 0.950 . S
C1577 C1576 1.524 . S
C1577 C1578 1.415 . S
C1578 H1554 0.950 . S
C1578 C1573 1.363 . S
C1578 C1577 1.415 . S
C1579 H1555 0.951 . S
C1579 C1580 1.366 . S
C1579 C1581 1.388 . S
C1580 C1579 1.366 . S
C1580 C1584 1.385 . S
C1581 H1556 0.951 . S
C1581 C1579 1.388 . S
C1581 C1582 1.366 . S
C1582 C1581 1.366 . S
C1582 C1583 1.414 . S
C1582 C1585 1.499 . S
C1583 H1557 0.950 . S
C1583 C1582 1.414 . S
C1583 C1584 1.374 . S
C1584 H1558 0.950 . S
C1584 C1580 1.385 . S
C1584 C1583 1.374 . S
C1585 C1582 1.499 . S
C1585 C1586 1.373 . S
C1585 C1587 1.389 . S
C1586 H1559 0.950 . S
C1586 C1572 1.377 . S
C1586 C1585 1.373 . S
C1587 C1571 1.377 . S
C1587 C1585 1.389 . S
C1587 C1588 1.524 . S
C1588 C1587 1.524 . S
C1588 C1589 1.397 . S
C1588 C1593 1.363 . S
C1589 H1560 0.950 . S
C1589 C1588 1.397 . S
C1589 C1590 1.334 . S
C1590 H1561 0.950 . S
C1590 C1589 1.334 . S
C1590 C1591 1.287 . S
C1591 C1590 1.287 . S
C1591 C1592 1.524 . S
C1591 H1594 0.999 . S
C1592 H1562 0.950 . S
C1592 C1591 1.524 . S
C1592 C1593 1.415 . S
C1593 H1563 0.950 . S
C1593 C1588 1.363 . S
C1593 C1592 1.415 . S
H1594 C1591 0.999 . S
H1595 C1576 0.913 . S
H1596 C1614 0.951 . S
H1597 C1616 0.951 . S
H1598 C1618 0.950 . S
H1599 C1619 0.950 . S
H1600 C1621 0.950 . S
H1601 C1624 0.950 . S
H1602 C1625 0.950 . S
H1603 C1627 0.950 . S
H1604 C1628 0.950 . S
H1605 C1629 0.951 . S
H1606 C1631 0.951 . S
H1607 C1633 0.950 . S
H1608 C1634 0.950 . S
H1609 C1636 0.950 . S
H1610 C1639 0.950 . S
H1611 C1640 0.950 . S
H1612 C1642 0.950 . S
H1613 C1643 0.950 . S
C1614 H1596 0.951 . S
C1614 C1615 1.366 1_554 S
C1614 C1616 1.388 . S
C1615 C1614 1.366 1_556 S
C1615 C1619 1.385 . S
C1616 H1597 0.951 . S
C1616 C1614 1.388 . S
C1616 C1617 1.366 1_554 S
C1617 C1616 1.366 1_556 S
C1617 C1618 1.414 . S
C1617 C1620 1.499 . S
C1618 H1598 0.950 . S
C1618 C1617 1.414 . S
C1618 C1619 1.374 . S
C1619 H1599 0.950 . S
C1619 C1615 1.385 . S
C1619 C1618 1.374 . S
C1620 C1617 1.499 . S
C1620 C1621 1.373 1_556 S
C1620 C1622 1.389 . S
C1621 H1600 0.950 . S
C1621 C1620 1.373 1_554 S
C1621 C1637 1.377 1_455 S
C1622 C1620 1.389 . S
C1622 C1623 1.524 . S
C1622 C1636 1.377 1_455 S
C1623 C1622 1.524 . S
C1623 C1624 1.397 . S
C1623 C1628 1.363 . S
C1624 H1601 0.950 . S
C1624 C1623 1.397 . S
C1624 C1625 1.334 . S
C1625 H1602 0.950 . S
C1625 C1624 1.334 . S
C1625 C1626 1.287 . S
C1626 C1625 1.287 . S
C1626 C1627 1.524 . S
C1626 H1645 0.913 . S
C1627 H1603 0.950 . S
C1627 C1626 1.524 . S
C1627 C1628 1.415 . S
C1628 H1604 0.950 . S
C1628 C1623 1.363 . S
C1628 C1627 1.415 . S
C1629 H1605 0.951 . S
C1629 C1630 1.366 1_556 S
C1629 C1631 1.388 . S
C1630 C1629 1.366 1_554 S
C1630 C1634 1.385 . S
C1631 H1606 0.951 . S
C1631 C1629 1.388 . S
C1631 C1632 1.366 1_556 S
C1632 C1631 1.366 1_554 S
C1632 C1633 1.414 . S
C1632 C1635 1.499 . S
C1633 H1607 0.950 . S
C1633 C1632 1.414 . S
C1633 C1634 1.374 . S
C1634 H1608 0.950 . S
C1634 C1630 1.385 . S
C1634 C1633 1.374 . S
C1635 C1632 1.499 . S
C1635 C1636 1.373 1_554 S
C1635 C1637 1.389 . S
C1636 H1609 0.950 . S
C1636 C1622 1.377 1_655 S
C1636 C1635 1.373 1_556 S
C1637 C1621 1.377 1_655 S
C1637 C1635 1.389 . S
C1637 C1638 1.524 . S
C1638 C1637 1.524 . S
C1638 C1639 1.397 . S
C1638 C1643 1.363 . S
C1639 H1610 0.950 . S
C1639 C1638 1.397 . S
C1639 C1640 1.334 . S
C1640 H1611 0.950 . S
C1640 C1639 1.334 . S
C1640 C1641 1.287 . S
C1641 C1640 1.287 . S
C1641 C1642 1.524 . S
C1641 H1644 0.999 . S
C1642 H1612 0.950 . S
C1642 C1641 1.524 . S
C1642 C1643 1.415 . S
C1643 H1613 0.950 . S
C1643 C1638 1.363 . S
C1643 C1642 1.415 . S
H1644 C1641 0.999 . S
H1645 C1626 0.913 . S
H1646 C1664 0.951 . S
H1647 C1666 0.951 . S
H1648 C1668 0.950 . S
H1649 C1669 0.950 . S
H1650 C1671 0.950 . S
H1651 C1674 0.950 . S
H1652 C1675 0.950 . S
H1653 C1677 0.950 1_556 S
H1654 C1678 0.950 . S
H1655 C1679 0.951 . S
H1656 C1681 0.951 . S
H1657 C1683 0.950 . S
H1658 C1684 0.950 . S
H1659 C1686 0.950 . S
H1660 C1689 0.950 . S
H1661 C1690 0.950 . S
H1662 C1692 0.950 1_554 S
H1663 C1693 0.950 . S
C1664 H1646 0.951 . S
C1664 C1665 1.366 1_556 S
C1664 C1666 1.388 . S
C1665 C1664 1.366 1_554 S
C1665 C1669 1.385 . S
C1666 H1647 0.951 . S
C1666 C1664 1.388 . S
C1666 C1667 1.366 1_556 S
C1667 C1666 1.366 1_554 S
C1667 C1668 1.414 . S
C1667 C1670 1.499 . S
C1668 H1648 0.950 . S
C1668 C1667 1.414 . S
C1668 C1669 1.374 . S
C1669 H1649 0.950 . S
C1669 C1665 1.385 . S
C1669 C1668 1.374 . S
C1670 C1667 1.499 . S
C1670 C1671 1.373 1_554 S
C1670 C1672 1.389 . S
C1671 H1650 0.950 . S
C1671 C1670 1.373 1_556 S
C1671 C1687 1.377 1_565 S
C1672 C1670 1.389 . S
C1672 C1673 1.524 . S
C1672 C1686 1.377 1_565 S
C1673 C1672 1.524 . S
C1673 C1674 1.397 . S
C1673 C1678 1.363 1_554 S
C1674 H1651 0.950 . S
C1674 C1673 1.397 . S
C1674 C1675 1.334 . S
C1675 H1652 0.950 . S
C1675 C1674 1.334 . S
C1675 C1676 1.287 . S
C1676 C1675 1.287 . S
C1676 C1677 1.524 . S
C1676 H1695 0.913 . S
C1677 H1653 0.950 1_554 S
C1677 C1676 1.524 . S
C1677 C1678 1.415 1_554 S
C1678 H1654 0.950 . S
C1678 C1673 1.363 1_556 S
C1678 C1677 1.415 1_556 S
C1679 H1655 0.951 . S
C1679 C1680 1.366 1_554 S
C1679 C1681 1.388 . S
C1680 C1679 1.366 1_556 S
C1680 C1684 1.385 . S
C1681 H1656 0.951 . S
C1681 C1679 1.388 . S
C1681 C1682 1.366 1_554 S
C1682 C1681 1.366 1_556 S
C1682 C1683 1.414 . S
C1682 C1685 1.499 . S
C1683 H1657 0.950 . S
C1683 C1682 1.414 . S
C1683 C1684 1.374 . S
C1684 H1658 0.950 . S
C1684 C1680 1.385 . S
C1684 C1683 1.374 . S
C1685 C1682 1.499 . S
C1685 C1686 1.373 1_556 S
C1685 C1687 1.389 . S
C1686 H1659 0.950 . S
C1686 C1672 1.377 1_545 S
C1686 C1685 1.373 1_554 S
C1687 C1671 1.377 1_545 S
C1687 C1685 1.389 . S
C1687 C1688 1.524 . S
C1688 C1687 1.524 . S
C1688 C1689 1.397 . S
C1688 C1693 1.363 1_556 S
C1689 H1660 0.950 . S
C1689 C1688 1.397 . S
C1689 C1690 1.334 . S
C1690 H1661 0.950 . S
C1690 C1689 1.334 . S
C1690 C1691 1.287 . S
C1691 C1690 1.287 . S
C1691 C1692 1.524 . S
C1691 H1694 0.999 . S
C1692 H1662 0.950 1_556 S
C1692 C1691 1.524 . S
C1692 C1693 1.415 1_556 S
C1693 H1663 0.950 . S
C1693 C1688 1.363 1_554 S
C1693 C1692 1.415 1_554 S
H1694 C1691 0.999 . S
H1695 C1676 0.913 . S
H1696 C1714 0.951 . S
H1697 C1716 0.951 . S
H1698 C1718 0.950 . S
H1699 C1719 0.950 . S
H1700 C1721 0.950 . S
H1701 C1724 0.950 . S
H1702 C1725 0.950 . S
H1703 C1727 0.950 . S
H1704 C1728 0.950 . S
H1705 C1729 0.951 . S
H1706 C1731 0.951 . S
H1707 C1733 0.950 . S
H1708 C1734 0.950 . S
H1709 C1736 0.950 . S
H1710 C1739 0.950 . S
H1711 C1740 0.950 . S
H1712 C1742 0.950 . S
H1713 C1743 0.950 . S
C1714 H1696 0.951 . S
C1714 C1715 1.366 . S
C1714 C1716 1.388 . S
C1715 C1714 1.366 . S
C1715 C1719 1.385 1_554 S
C1716 H1697 0.951 . S
C1716 C1714 1.388 . S
C1716 C1717 1.366 . S
C1717 C1716 1.366 . S
C1717 C1718 1.414 1_554 S
C1717 C1720 1.499 . S
C1718 H1698 0.950 . S
C1718 C1717 1.414 1_556 S
C1718 C1719 1.374 . S
C1719 H1699 0.950 . S
C1719 C1715 1.385 1_556 S
C1719 C1718 1.374 . S
C1720 C1717 1.499 . S
C1720 C1721 1.373 . S
C1720 C1722 1.389 1_554 S
C1721 H1700 0.950 . S
C1721 C1720 1.373 . S
C1721 C1737 1.377 . S
C1722 C1720 1.389 1_556 S
C1722 C1723 1.524 . S
C1722 C1736 1.377 . S
C1723 C1722 1.524 . S
C1723 C1724 1.397 . S
C1723 C1728 1.363 . S
C1724 H1701 0.950 . S
C1724 C1723 1.397 . S
C1724 C1725 1.334 . S
C1725 H1702 0.950 . S
C1725 C1724 1.334 . S
C1725 C1726 1.287 . S
C1726 C1725 1.287 . S
C1726 C1727 1.524 . S
C1726 H1745 0.913 . S
C1727 H1703 0.950 . S
C1727 C1726 1.524 . S
C1727 C1728 1.415 . S
C1728 H1704 0.950 . S
C1728 C1723 1.363 . S
C1728 C1727 1.415 . S
C1729 H1705 0.951 . S
C1729 C1730 1.366 . S
C1729 C1731 1.388 . S
C1730 C1729 1.366 . S
C1730 C1734 1.385 1_556 S
C1731 H1706 0.951 . S
C1731 C1729 1.388 . S
C1731 C1732 1.366 . S
C1732 C1731 1.366 . S
C1732 C1733 1.414 1_556 S
C1732 C1735 1.499 1_556 S
C1733 H1707 0.950 . S
C1733 C1732 1.414 1_554 S
C1733 C1734 1.374 . S
C1734 H1708 0.950 . S
C1734 C1730 1.385 1_554 S
C1734 C1733 1.374 . S
C1735 C1732 1.499 1_554 S
C1735 C1736 1.373 1_554 S
C1735 C1737 1.389 . S
C1736 H1709 0.950 . S
C1736 C1722 1.377 . S
C1736 C1735 1.373 1_556 S
C1737 C1721 1.377 . S
C1737 C1735 1.389 . S
C1737 C1738 1.524 . S
C1738 C1737 1.524 . S
C1738 C1739 1.397 . S
C1738 C1743 1.363 . S
C1739 H1710 0.950 . S
C1739 C1738 1.397 . S
C1739 C1740 1.334 . S
C1740 H1711 0.950 . S
C1740 C1739 1.334 . S
C1740 C1741 1.287 . S
C1741 C1740 1.287 . S
C1741 C1742 1.524 . S
C1741 H1744 0.999 . S
C1742 H1712 0.950 . S
C1742 C1741 1.524 . S
C1742 C1743 1.415 . S
C1743 H1713 0.950 . S
C1743 C1738 1.363 . S
C1743 C1742 1.415 . S
H1744 C1741 0.999 . S
H1745 C1726 0.913 . S
H1746 C1764 0.951 . S
H1747 C1766 0.951 . S
H1748 C1768 0.950 . S
H1749 C1769 0.950 . S
H1750 C1771 0.950 . S
H1751 C1774 0.950 . S
H1752 C1775 0.950 . S
H1753 C1777 0.950 . S
H1754 C1778 0.950 . S
H1755 C1779 0.951 . S
H1756 C1781 0.951 . S
H1757 C1783 0.950 . S
H1758 C1784 0.950 . S
H1759 C1786 0.950 . S
H1760 C1789 0.950 . S
H1761 C1790 0.950 . S
H1762 C1792 0.950 . S
H1763 C1793 0.950 . S
C1764 H1746 0.951 . S
C1764 C1765 1.366 1_556 S
C1764 C1766 1.388 . S
C1765 C1764 1.366 1_554 S
C1765 C1769 1.385 . S
C1766 H1747 0.951 . S
C1766 C1764 1.388 . S
C1766 C1767 1.366 1_556 S
C1767 C1766 1.366 1_554 S
C1767 C1768 1.414 . S
C1767 C1770 1.499 . S
C1768 H1748 0.950 . S
C1768 C1767 1.414 . S
C1768 C1769 1.374 . S
C1769 H1749 0.950 . S
C1769 C1765 1.385 . S
C1769 C1768 1.374 . S
C1770 C1767 1.499 . S
C1770 C1771 1.373 . S
C1770 C1772 1.389 1_554 S
C1771 H1750 0.950 . S
C1771 C1770 1.373 . S
C1771 C1787 1.377 1_455 S
C1772 C1770 1.389 1_556 S
C1772 C1773 1.525 . S
C1772 C1786 1.377 1_455 S
C1773 C1772 1.525 . S
C1773 C1774 1.387 1_556 S
C1773 C1778 1.372 . S
C1774 H1751 0.950 . S
C1774 C1773 1.387 1_554 S
C1774 C1775 1.334 . S
C1775 H1752 0.950 . S
C1775 C1774 1.334 . S
C1775 C1776 1.287 . S
C1776 C1775 1.287 . S
C1776 C1777 1.524 1_554 S
C1776 H1795 0.913 . S
C1777 H1753 0.950 . S
C1777 C1776 1.524 1_556 S
C1777 C1778 1.415 . S
C1778 H1754 0.950 . S
C1778 C1773 1.372 . S
C1778 C1777 1.415 . S
C1779 H1755 0.951 . S
C1779 C1780 1.366 1_554 S
C1779 C1781 1.388 . S
C1780 C1779 1.366 1_556 S
C1780 C1784 1.385 . S
C1781 H1756 0.951 . S
C1781 C1779 1.388 . S
C1781 C1782 1.366 1_554 S
C1782 C1781 1.366 1_556 S
C1782 C1783 1.414 . S
C1782 C1785 1.499 . S
C1783 H1757 0.950 . S
C1783 C1782 1.414 . S
C1783 C1784 1.374 . S
C1784 H1758 0.950 . S
C1784 C1780 1.385 . S
C1784 C1783 1.374 . S
C1785 C1782 1.499 . S
C1785 C1786 1.373 . S
C1785 C1787 1.389 1_556 S
C1786 H1759 0.950 . S
C1786 C1772 1.377 1_655 S
C1786 C1785 1.373 . S
C1787 C1771 1.377 1_655 S
C1787 C1785 1.389 1_554 S
C1787 C1788 1.524 . S
C1788 C1787 1.524 . S
C1788 C1789 1.397 1_554 S
C1788 C1793 1.363 . S
C1789 H1760 0.950 . S
C1789 C1788 1.397 1_556 S
C1789 C1790 1.334 . S
C1790 H1761 0.950 . S
C1790 C1789 1.334 . S
C1790 C1791 1.287 . S
C1791 C1790 1.287 . S
C1791 C1792 1.524 1_556 S
C1791 H1794 0.999 . S
C1792 H1762 0.950 . S
C1792 C1791 1.524 1_554 S
C1792 C1793 1.415 . S
C1793 H1763 0.950 . S
C1793 C1788 1.363 . S
C1793 C1792 1.415 . S
H1794 C1791 0.999 . S
H1795 C1776 0.913 . S
H1796 C1814 0.951 . S
H1797 C1816 0.951 . S
H1798 C1818 0.950 . S
H1799 C1819 0.950 . S
H1800 C1821 0.950 . S
H1801 C1824 0.950 . S
H1802 C1825 0.950 . S
H1803 C1827 0.950 . S
H1804 C1828 0.950 . S
H1805 C1829 0.951 . S
H1806 C1831 0.951 . S
H1807 C1833 0.950 . S
H1808 C1834 0.950 . S
H1809 C1836 0.950 . S
H1810 C1839 0.950 . S
H1811 C1840 0.950 . S
H1812 C1842 0.950 . S
H1813 C1843 0.950 . S
C1814 H1796 0.951 . S
C1814 C1815 1.366 . S
C1814 C1816 1.388 . S
C1815 C1814 1.366 . S
C1815 C1819 1.385 1_556 S
C1816 H1797 0.951 . S
C1816 C1814 1.388 . S
C1816 C1817 1.366 . S
C1817 C1816 1.366 . S
C1817 C1818 1.414 1_556 S
C1817 C1820 1.499 . S
C1818 H1798 0.950 . S
C1818 C1817 1.414 1_554 S
C1818 C1819 1.374 . S
C1819 H1799 0.950 . S
C1819 C1815 1.385 1_554 S
C1819 C1818 1.374 . S
C1820 C1817 1.499 . S
C1820 C1821 1.373 1_556 S
C1820 C1822 1.389 . S
C1821 H1800 0.950 . S
C1821 C1820 1.373 1_554 S
C1821 C1837 1.377 1_565 S
C1822 C1820 1.389 . S
C1822 C1823 1.524 . S
C1822 C1836 1.377 1_565 S
C1823 C1822 1.524 . S
C1823 C1824 1.397 . S
C1823 C1828 1.363 . S
C1824 H1801 0.950 . S
C1824 C1823 1.397 . S
C1824 C1825 1.334 . S
C1825 H1802 0.950 . S
C1825 C1824 1.334 . S
C1825 C1826 1.287 . S
C1826 C1825 1.287 . S
C1826 C1827 1.524 . S
C1826 H1845 0.913 . S
C1827 H1803 0.950 . S
C1827 C1826 1.524 . S
C1827 C1828 1.415 . S
C1828 H1804 0.950 . S
C1828 C1823 1.363 . S
C1828 C1827 1.415 . S
C1829 H1805 0.951 . S
C1829 C1830 1.366 . S
C1829 C1831 1.388 . S
C1830 C1829 1.366 . S
C1830 C1834 1.385 1_554 S
C1831 H1806 0.951 . S
C1831 C1829 1.388 . S
C1831 C1832 1.366 . S
C1832 C1831 1.366 . S
C1832 C1833 1.414 1_554 S
C1832 C1835 1.499 . S
C1833 H1807 0.950 . S
C1833 C1832 1.414 1_556 S
C1833 C1834 1.374 . S
C1834 H1808 0.950 . S
C1834 C1830 1.385 1_556 S
C1834 C1833 1.374 . S
C1835 C1832 1.499 . S
C1835 C1836 1.373 1_554 S
C1835 C1837 1.389 . S
C1836 H1809 0.950 . S
C1836 C1822 1.377 1_545 S
C1836 C1835 1.373 1_556 S
C1837 C1821 1.377 1_545 S
C1837 C1835 1.389 . S
C1837 C1838 1.524 . S
C1838 C1837 1.524 . S
C1838 C1839 1.397 . S
C1838 C1843 1.363 . S
C1839 H1810 0.950 . S
C1839 C1838 1.397 . S
C1839 C1840 1.334 . S
C1840 H1811 0.950 . S
C1840 C1839 1.334 . S
C1840 C1841 1.287 . S
C1841 C1840 1.287 . S
C1841 C1842 1.524 . S
C1841 H1844 0.999 . S
C1842 H1812 0.950 . S
C1842 C1841 1.524 . S
C1842 C1843 1.415 . S
C1843 H1813 0.950 . S
C1843 C1838 1.363 . S
C1843 C1842 1.415 . S
H1844 C1841 0.999 . S
H1845 C1826 0.913 . S
H1846 C1864 0.951 . S
H1847 C1866 0.951 . S
H1848 C1868 0.950 . S
H1849 C1869 0.950 . S
H1850 C1871 0.950 . S
H1851 C1874 0.950 . S
H1852 C1875 0.950 . S
H1853 C1877 0.950 . S
H1854 C1878 0.950 . S
H1855 C1879 0.951 . S
H1856 C1881 0.951 . S
H1857 C1883 0.950 . S
H1858 C1884 0.950 . S
H1859 C1886 0.950 . S
H1860 C1889 0.950 . S
H1861 C1890 0.950 . S
H1862 C1892 0.950 . S
H1863 C1893 0.950 . S
C1864 H1846 0.951 . S
C1864 C1865 1.366 . S
C1864 C1866 1.388 . S
C1865 C1864 1.366 . S
C1865 C1869 1.385 1_554 S
C1866 H1847 0.951 . S
C1866 C1864 1.388 . S
C1866 C1867 1.366 . S
C1867 C1866 1.366 . S
C1867 C1868 1.414 1_554 S
C1867 C1870 1.499 . S
C1868 H1848 0.950 . S
C1868 C1867 1.414 1_556 S
C1868 C1869 1.374 . S
C1869 H1849 0.950 . S
C1869 C1865 1.385 1_556 S
C1869 C1868 1.374 . S
C1870 C1867 1.499 . S
C1870 C1871 1.373 . S
C1870 C1872 1.389 1_554 S
C1871 H1850 0.950 . S
C1871 C1870 1.373 . S
C1871 C1887 1.377 . S
C1872 C1870 1.389 1_556 S
C1872 C1873 1.526 . S
C1872 C1886 1.376 1_556 S
C1873 C1872 1.526 . S
C1873 C1874 1.397 . S
C1873 C1878 1.363 1_556 S
C1874 H1851 0.950 . S
C1874 C1873 1.397 . S
C1874 C1875 1.334 . S
C1875 H1852 0.950 . S
C1875 C1874 1.334 . S
C1875 C1876 1.287 . S
C1876 C1875 1.287 . S
C1876 C1877 1.524 1_556 S
C1876 H1895 0.913 . S
C1877 H1853 0.950 . S
C1877 C1876 1.524 1_554 S
C1877 C1878 1.415 . S
C1878 H1854 0.950 . S
C1878 C1873 1.363 1_554 S
C1878 C1877 1.415 . S
C1879 H1855 0.951 . S
C1879 C1880 1.366 . S
C1879 C1881 1.388 . S
C1880 C1879 1.366 . S
C1880 C1884 1.385 1_556 S
C1881 H1856 0.951 . S
C1881 C1879 1.388 . S
C1881 C1882 1.366 . S
C1882 C1881 1.366 . S
C1882 C1883 1.414 1_556 S
C1882 C1885 1.499 1_556 S
C1883 H1857 0.950 . S
C1883 C1882 1.414 1_554 S
C1883 C1884 1.374 . S
C1884 H1858 0.950 . S
C1884 C1880 1.385 1_554 S
C1884 C1883 1.374 . S
C1885 C1882 1.499 1_554 S
C1885 C1886 1.374 . S
C1885 C1887 1.389 . S
C1886 H1859 0.950 . S
C1886 C1872 1.376 1_554 S
C1886 C1885 1.374 . S
C1887 C1871 1.377 . S
C1887 C1885 1.389 . S
C1887 C1888 1.524 . S
C1888 C1887 1.524 . S
C1888 C1889 1.397 . S
C1888 C1893 1.363 1_554 S
C1889 H1860 0.950 . S
C1889 C1888 1.397 . S
C1889 C1890 1.334 . S
C1890 H1861 0.950 . S
C1890 C1889 1.334 . S
C1890 C1891 1.287 . S
C1891 C1890 1.287 . S
C1891 C1892 1.524 1_554 S
C1891 H1894 0.999 . S
C1892 H1862 0.950 . S
C1892 C1891 1.524 1_556 S
C1892 C1893 1.415 . S
C1893 H1863 0.950 . S
C1893 C1888 1.363 1_556 S
C1893 C1892 1.415 . S
H1894 C1891 0.999 . S
H1895 C1876 0.913 . S
C415 C285 1.590 . S
C430 C21 1.590 . S
C465 C54 1.590 . S
C480 C318 1.590 . S
C515 C351 1.590 . S
C530 C87 1.591 . S
C565 C384 1.591 . S
C580 C120 1.590 . S
C615 C153 1.590 . S
C630 C219 1.590 . S
C665 C252 1.590 . S
C680 C186 1.591 . S
C715 C348 1.118 . S
C730 C18 1.118 . S
C765 C381 1.117 . S
C780 C51 1.118 . S
C815 C84 1.117 . S
C830 C216 1.118 . S
C865 C249 1.118 . S
C880 C117 1.117 . S
C915 C282 1.118 . S
C930 C150 1.118 . S
C965 C315 1.118 . S
C980 C183 1.118 . S
C1015 N13 1.448 . S
C1030 N2 1.444 . S
C1065 N46 1.447 . S
C1080 N35 1.444 . S
C1115 N79 1.447 . S
C1130 N68 1.444 . S
C1165 N112 1.447 . S
C1180 N101 1.443 . S
C1215 N134 1.444 . S
C1230 N145 1.448 . S
C1265 N178 1.447 . S
C1280 N167 1.443 . S
C1315 N200 1.444 . S
C1330 N211 1.447 . S
C1365 N244 1.447 . S
C1380 N233 1.443 . S
C1415 N266 1.444 . S
C1430 N277 1.447 . S
C1465 N299 1.444 . S
C1480 N310 1.447 . S
C1515 N343 1.447 . S
C1530 N332 1.443 . S
C1565 N376 1.448 . S
C1580 N365 1.445 . S
C1615 C7 1.117 . S
C1630 C370 1.117 . S
C1665 C205 1.116 . S
C1680 C40 1.117 . S
C1715 C238 1.117 . S
C1730 C73 1.117 . S
C1765 C271 1.116 . S
C1780 C106 1.117 . S
C1815 C139 1.117 . S
C1830 C304 1.116 . S
C1865 C337 1.117 . S
C1880 C172 1.116 . S
