# Generated by pormake.
# Topology atn, (4)-cn, num edge types: 1
# Building blocks:
#     Node 0, Type 0, BuildingBlock: AZAVOO_clean_sbu_0, # of connection points: 4
#     Node 1, Type 0, BuildingBlock: AZAVOO_clean_sbu_0, # of connection points: 4
#     Node 2, Type 0, BuildingBlock: AZAVOO_clean_sbu_0, # of connection points: 4
#     Node 3, Type 0, BuildingBlock: AZAVOO_clean_sbu_0, # of connection points: 4
#     Node 4, Type 0, BuildingBlock: AZAVOO_clean_sbu_0, # of connection points: 4
#     Node 5, Type 0, BuildingBlock: AZAVOO_clean_sbu_0, # of connection points: 4
#     Node 6, Type 0, BuildingBlock: AZAVOO_clean_sbu_0, # of connection points: 4
#     Node 7, Type 0, BuildingBlock: AZAVOO_clean_sbu_0, # of connection points: 4
#     Node 8, Type 0, BuildingBlock: AZAVOO_clean_sbu_0, # of connection points: 4
#     Node 9, Type 0, BuildingBlock: AZAVOO_clean_sbu_0, # of connection points: 4
#     Node 10, Type 0, BuildingBlock: AZAVOO_clean_sbu_0, # of connection points: 4
#     Node 11, Type 0, BuildingBlock: AZAVOO_clean_sbu_0, # of connection points: 4
#     Node 12, Type 0, BuildingBlock: AZAVOO_clean_sbu_0, # of connection points: 4
#     Node 13, Type 0, BuildingBlock: AZAVOO_clean_sbu_0, # of connection points: 4
#     Node 14, Type 0, BuildingBlock: AZAVOO_clean_sbu_0, # of connection points: 4
#     Node 15, Type 0, BuildingBlock: AZAVOO_clean_sbu_0, # of connection points: 4
#     Edge 16, Type (0, 0), BuildingBlock: UVAHIK_clean_linker_0, # of connection points: 2
#     Edge 17, Type (0, 0), BuildingBlock: UVAHIK_clean_linker_0, # of connection points: 2
#     Edge 18, Type (0, 0), BuildingBlock: UVAHIK_clean_linker_0, # of connection points: 2
#     Edge 19, Type (0, 0), BuildingBlock: UVAHIK_clean_linker_0, # of connection points: 2
#     Edge 20, Type (0, 0), BuildingBlock: UVAHIK_clean_linker_0, # of connection points: 2
#     Edge 21, Type (0, 0), BuildingBlock: UVAHIK_clean_linker_0, # of connection points: 2
#     Edge 22, Type (0, 0), BuildingBlock: UVAHIK_clean_linker_0, # of connection points: 2
#     Edge 23, Type (0, 0), BuildingBlock: UVAHIK_clean_linker_0, # of connection points: 2
#     Edge 24, Type (0, 0), BuildingBlock: UVAHIK_clean_linker_0, # of connection points: 2
#     Edge 25, Type (0, 0), BuildingBlock: UVAHIK_clean_linker_0, # of connection points: 2
#     Edge 26, Type (0, 0), BuildingBlock: UVAHIK_clean_linker_0, # of connection points: 2
#     Edge 27, Type (0, 0), BuildingBlock: UVAHIK_clean_linker_0, # of connection points: 2
#     Edge 28, Type (0, 0), BuildingBlock: UVAHIK_clean_linker_0, # of connection points: 2
#     Edge 29, Type (0, 0), BuildingBlock: UVAHIK_clean_linker_0, # of connection points: 2
#     Edge 30, Type (0, 0), BuildingBlock: UVAHIK_clean_linker_0, # of connection points: 2
#     Edge 31, Type (0, 0), BuildingBlock: UVAHIK_clean_linker_0, # of connection points: 2
#     Edge 32, Type (0, 0), BuildingBlock: UVAHIK_clean_linker_0, # of connection points: 2
#     Edge 33, Type (0, 0), BuildingBlock: UVAHIK_clean_linker_0, # of connection points: 2
#     Edge 34, Type (0, 0), BuildingBlock: UVAHIK_clean_linker_0, # of connection points: 2
#     Edge 35, Type (0, 0), BuildingBlock: UVAHIK_clean_linker_0, # of connection points: 2
#     Edge 36, Type (0, 0), BuildingBlock: UVAHIK_clean_linker_0, # of connection points: 2
#     Edge 37, Type (0, 0), BuildingBlock: UVAHIK_clean_linker_0, # of connection points: 2
#     Edge 38, Type (0, 0), BuildingBlock: UVAHIK_clean_linker_0, # of connection points: 2
#     Edge 39, Type (0, 0), BuildingBlock: UVAHIK_clean_linker_0, # of connection points: 2
#     Edge 40, Type (0, 0), BuildingBlock: UVAHIK_clean_linker_0, # of connection points: 2
#     Edge 41, Type (0, 0), BuildingBlock: UVAHIK_clean_linker_0, # of connection points: 2
#     Edge 42, Type (0, 0), BuildingBlock: UVAHIK_clean_linker_0, # of connection points: 2
#     Edge 43, Type (0, 0), BuildingBlock: UVAHIK_clean_linker_0, # of connection points: 2
#     Edge 44, Type (0, 0), BuildingBlock: UVAHIK_clean_linker_0, # of connection points: 2
#     Edge 45, Type (0, 0), BuildingBlock: UVAHIK_clean_linker_0, # of connection points: 2
#     Edge 46, Type (0, 0), BuildingBlock: UVAHIK_clean_linker_0, # of connection points: 2
#     Edge 47, Type (0, 0), BuildingBlock: UVAHIK_clean_linker_0, # of connection points: 2
# Relax obj value: 0.127
# Max RMSD: 0.133
# Mean RMSD: 0.133
data_MOF--net-atn--node1-AZAVOO_clean_sbu_0--edge1-UVAHIK_clean_linker_0
_symmetry_space_group_name_H-M    P1
_symmetry_Int_Tables_number       1
_symmetry_cell_setting            triclinic
loop_
_symmetry_equiv_pos_as_xyz
'x, y, z'
_cell_length_a     78.157716
_cell_length_b     78.150017
_cell_length_c     33.779366
_cell_angle_alpha  90.002195
_cell_angle_beta   89.99817
_cell_angle_gamma 89.967455
loop_
_atom_site_label
_atom_site_type_symbol
_atom_site_fract_x
_atom_site_fract_y
_atom_site_fract_z
_atom_type_partial_charge
Mg0 Mg 0.19924 0.3824 0.98659 0.0
O1 O 0.21879 0.36105 0.97663 0.0
O2 O 0.22821 0.36221 0.91431 0.0
Mg3 Mg 0.21475 0.38463 0.88416 0.0
C4 C 0.22818 0.3554 0.94863 0.0
C5 C 0.18701 0.38166 0.07309 0.0
O6 O 0.17582 0.39202 0.05669 0.0
O7 O 0.22092 0.40205 0.98981 0.0
O8 O 0.22829 0.40334 0.92586 0.0
O9 O 0.17822 0.36568 0.96424 0.0
O10 O 0.19354 0.38297 0.92657 0.0
C11 C 0.22988 0.40838 0.96167 0.0
C12 C 0.18183 0.37148 0.92933 0.0
O13 O 0.19953 0.37636 0.05245 0.0
Mg14 Mg 0.61025 0.20672 0.99628 0.0
O15 O 0.63003 0.22806 0.98809 0.0
O16 O 0.62724 0.23905 0.92739 0.0
Mg17 Mg 0.60457 0.22584 0.89786 0.0
C18 C 0.63471 0.23841 0.96095 0.0
C19 C 0.63289 0.20243 0.07022 0.0
O20 O 0.64429 0.20348 0.04176 0.0
O21 O 0.58937 0.2267 0.00628 0.0
O22 O 0.58656 0.23708 0.94482 0.0
O23 O 0.62802 0.18815 0.96772 0.0
O24 O 0.60866 0.20338 0.93545 0.0
C25 C 0.58225 0.23675 0.98132 0.0
C26 C 0.62117 0.19271 0.93447 0.0
O27 O 0.61715 0.20442 0.06171 0.0
Mg28 Mg 0.79237 0.60925 0.99145 0.0
O29 O 0.77156 0.62991 0.98871 0.0
O30 O 0.76055 0.6299 0.92765 0.0
Mg31 Mg 0.77369 0.60901 0.89177 0.0
C32 C 0.76123 0.63583 0.96281 0.0
C33 C 0.80979 0.61258 0.0704 0.0
O34 O 0.82192 0.60846 0.04518 0.0
O35 O 0.77186 0.58845 0.99518 0.0
O36 O 0.76245 0.58853 0.93264 0.0
O37 O 0.81161 0.62786 0.96874 0.0
O38 O 0.79606 0.61099 0.93059 0.0
C39 C 0.76229 0.58244 0.96775 0.0
C40 C 0.80705 0.62317 0.93356 0.0
O41 O 0.79442 0.61296 0.05814 0.0
Mg42 Mg 0.38526 0.79309 0.99089 0.0
O43 O 0.36463 0.77258 0.98151 0.0
O44 O 0.36819 0.76084 0.92177 0.0
Mg45 Mg 0.39171 0.77295 0.8936 0.0
C46 C 0.36012 0.7621 0.95446 0.0
C47 C 0.36142 0.80016 0.06031 0.0
O48 O 0.35145 0.80086 0.02902 0.0
O49 O 0.40496 0.77219 0.00342 0.0
O50 O 0.40853 0.76148 0.94248 0.0
O51 O 0.36925 0.81259 0.96041 0.0
O52 O 0.38786 0.79599 0.92969 0.0
C53 C 0.41218 0.7618 0.97936 0.0
C54 C 0.37606 0.80744 0.92761 0.0
O55 O 0.37704 0.79602 0.05561 0.0
Mg56 Mg 0.20329 0.60732 0.01609 0.0
O57 O 0.22492 0.62712 0.01714 0.0
O58 O 0.23834 0.62484 0.07535 0.0
Mg59 Mg 0.22606 0.60327 0.11079 0.0
C60 C 0.23644 0.6319 0.04156 0.0
C61 C 0.18288 0.61763 0.94496 0.0
O62 O 0.17208 0.61691 0.97468 0.0
O63 O 0.22267 0.58601 0.00417 0.0
O64 O 0.23444 0.58362 0.06433 0.0
O65 O 0.1861 0.62596 0.04593 0.0
O66 O 0.20228 0.60741 0.07798 0.0
C67 C 0.2329 0.57869 0.02843 0.0
C68 C 0.19184 0.62014 0.07917 0.0
O69 O 0.19831 0.61306 0.95074 0.0
Mg70 Mg 0.38597 0.20125 0.99412 0.0
O71 O 0.36515 0.22175 0.0018 0.0
O72 O 0.36691 0.23256 0.06287 0.0
Mg73 Mg 0.38966 0.22007 0.09345 0.0
C74 C 0.3598 0.23179 0.02892 0.0
C75 C 0.3641 0.19676 0.91963 0.0
O76 O 0.35272 0.19711 0.94825 0.0
O77 O 0.40602 0.2222 0.98609 0.0
O78 O 0.40775 0.23225 0.04804 0.0
O79 O 0.36887 0.18159 0.02049 0.0
O80 O 0.38674 0.19757 0.05517 0.0
C81 C 0.41246 0.23235 0.0118 0.0
C82 C 0.37474 0.1863 0.05461 0.0
O83 O 0.37977 0.19916 0.92818 0.0
Mg84 Mg 0.80017 0.38426 0.00404 0.0
O85 O 0.77879 0.36457 0.0126 0.0
O86 O 0.76833 0.36695 0.07388 0.0
Mg87 Mg 0.78253 0.38878 0.10439 0.0
C88 C 0.76853 0.35985 0.03987 0.0
C89 C 0.80321 0.36225 0.9293 0.0
O90 O 0.80253 0.35087 0.95787 0.0
O91 O 0.7799 0.40517 -0.00307 0.0
O92 O 0.77123 0.40773 0.05982 0.0
O93 O 0.81933 0.36625 0.02975 0.0
O94 O 0.8044 0.38483 0.06486 0.0
C95 C 0.77075 0.41239 0.02356 0.0
C96 C 0.81517 0.37239 0.06399 0.0
O97 O 0.8015 0.37801 0.93801 0.0
Mg98 Mg 0.6092 0.79372 0.00871 0.0
O99 O 0.62879 0.77244 0.01967 0.0
O100 O 0.62551 0.76219 0.08092 0.0
Mg101 Mg 0.60256 0.77587 0.10814 0.0
C102 C 0.63324 0.7624 0.04765 0.0
C103 C 0.63281 0.79674 0.93609 0.0
O104 O 0.64379 0.79605 0.96548 0.0
O105 O 0.58844 0.77358 -0.00104 0.0
O106 O 0.58517 0.76393 0.06094 0.0
O107 O 0.62673 0.81256 0.03693 0.0
O108 O 0.60698 0.79784 0.06919 0.0
C109 C 0.5812 0.76377 0.02423 0.0
C110 C 0.61957 0.80841 0.07011 0.0
O111 O 0.61694 0.79505 0.94357 0.0
Mg112 Mg 0.69948 0.88483 0.49504 0.0
O113 O 0.72013 0.86461 0.48394 0.0
O114 O 0.72881 0.86665 0.42109 0.0
Mg115 Mg 0.71456 0.889 0.39263 0.0
C116 C 0.7294 0.85956 0.45509 0.0
C117 C 0.68444 0.87861 0.5749 0.0
O118 O 0.67191 0.88392 0.55205 0.0
O119 O 0.72008 0.90552 0.49951 0.0
O120 O 0.72754 0.90757 0.43572 0.0
O121 O 0.67978 0.86687 0.47172 0.0
O122 O 0.6937 0.88574 0.43511 0.0
C123 C 0.72891 0.91235 0.47177 0.0
C124 C 0.68303 0.87327 0.43722 0.0
O125 O 0.69953 0.87841 0.56081 0.0
Mg126 Mg 0.11244 0.70218 0.50026 0.0
O127 O 0.13186 0.72427 0.49725 0.0
O128 O 0.13013 0.73551 0.43649 0.0
Mg129 Mg 0.10924 0.7219 0.40187 0.0
C130 C 0.13676 0.73498 0.47099 0.0
C131 C 0.1212 0.68373 0.57469 0.0
O132 O 0.12068 0.67228 0.54626 0.0
O133 O 0.09052 0.72127 0.5073 0.0
O134 O 0.08921 0.73184 0.44579 0.0
O135 O 0.1319 0.6846 0.47493 0.0
O136 O 0.11349 0.6993 0.43883 0.0
C137 C 0.08375 0.73111 0.48141 0.0
C138 C 0.12645 0.68915 0.44038 0.0
O139 O 0.11709 0.6991 0.56667 0.0
Mg140 Mg 0.29167 0.11066 0.48083 0.0
O141 O 0.27124 0.13158 0.47703 0.0
O142 O 0.25878 0.12993 0.41763 0.0
Mg143 Mg 0.27106 0.10791 0.38345 0.0
C144 C 0.26037 0.13688 0.45162 0.0
C145 C 0.31057 0.11646 0.55736 0.0
O146 O 0.32237 0.11219 0.53147 0.0
O147 O 0.2709 0.09046 0.48984 0.0
O148 O 0.26062 0.08847 0.42816 0.0
O149 O 0.31086 0.12807 0.4534 0.0
O150 O 0.29423 0.11055 0.41949 0.0
C151 C 0.26103 0.08354 0.46422 0.0
C152 C 0.30562 0.12243 0.41949 0.0
O153 O 0.29498 0.11615 0.54659 0.0
Mg154 Mg 0.88761 0.28706 0.49089 0.0
O155 O 0.86611 0.26715 0.48768 0.0
O156 O 0.8672 0.25455 0.42837 0.0
Mg157 Mg 0.88967 0.26577 0.39417 0.0
C158 C 0.86039 0.25643 0.46242 0.0
C159 C 0.88204 0.30644 0.56703 0.0
O160 O 0.88645 0.3181 0.54091 0.0
O161 O 0.90727 0.26585 0.50036 0.0
O162 O 0.90838 0.25449 0.43957 0.0
O163 O 0.87073 0.30654 0.46305 0.0
O164 O 0.88778 0.28928 0.42943 0.0
C165 C 0.91345 0.25514 0.47551 0.0
C166 C 0.87621 0.301 0.42924 0.0
O167 O 0.88218 0.29081 0.55659 0.0
Mg168 Mg 0.69649 0.11099 0.51002 0.0
O169 O 0.71808 0.13024 0.51997 0.0
O170 O 0.72735 0.12768 0.58227 0.0
Mg171 Mg 0.71221 0.10614 0.61172 0.0
C172 C 0.72791 0.13478 0.54826 0.0
C173 C 0.68112 0.11737 0.43053 0.0
O174 O 0.66855 0.11263 0.45393 0.0
O175 O 0.71621 0.0895 0.50475 0.0
O176 O 0.72382 0.08677 0.56835 0.0
O177 O 0.67781 0.12988 0.53392 0.0
O178 O 0.69119 0.11049 0.57022 0.0
C179 C 0.72473 0.08207 0.53216 0.0
C180 C 0.68112 0.12347 0.56839 0.0
O181 O 0.69628 0.11718 0.44418 0.0
Mg182 Mg 0.88395 0.70136 0.5056 0.0
O183 O 0.86384 0.72275 0.50906 0.0
O184 O 0.86646 0.73603 0.56731 0.0
Mg185 Mg 0.88896 0.72413 0.6001 0.0
C186 C 0.85906 0.73408 0.53396 0.0
C187 C 0.86165 0.69426 0.4327 0.0
O188 O 0.85036 0.69574 0.4613 0.0
O189 O 0.90468 0.72112 0.49236 0.0
O190 O 0.90724 0.73357 0.55174 0.0
O191 O 0.86639 0.68352 0.53678 0.0
O192 O 0.88499 0.70025 0.56721 0.0
C193 C 0.91171 0.73198 0.51553 0.0
C194 C 0.87264 0.68942 0.56952 0.0
O195 O 0.87738 0.69679 0.44055 0.0
Mg196 Mg 0.29593 0.88693 0.50414 0.0
O197 O 0.27582 0.86631 0.51656 0.0
O198 O 0.26719 0.86842 0.5794 0.0
Mg199 Mg 0.28133 0.89096 0.60704 0.0
C200 C 0.26665 0.86121 0.54553 0.0
C201 C 0.30723 0.88513 0.41693 0.0
O202 O 0.3185 0.8958 0.43185 0.0
O203 O 0.27473 0.90712 0.5003 0.0
O204 O 0.26772 0.90918 0.56434 0.0
O205 O 0.31649 0.86971 0.52665 0.0
O206 O 0.30214 0.88797 0.56396 0.0
C207 C 0.26597 0.91384 0.52831 0.0
C208 C 0.31324 0.87586 0.56142 0.0
O209 O 0.29499 0.88004 0.4387 0.0
Mg210 Mg 0.10613 0.29266 0.50061 0.0
O211 O 0.1279 0.27346 0.51098 0.0
O212 O 0.12491 0.26167 0.57079 0.0
Mg213 Mg 0.10053 0.27244 0.59808 0.0
C214 C 0.13298 0.26335 0.5382 0.0
C215 C 0.13016 0.30066 0.43232 0.0
O216 O 0.13969 0.30208 0.46419 0.0
O217 O 0.08784 0.27054 0.48787 0.0
O218 O 0.08476 0.25977 0.54889 0.0
O219 O 0.12072 0.31318 0.5313 0.0
O220 O 0.10297 0.29557 0.56167 0.0
C221 C 0.08125 0.25976 0.51193 0.0
C222 C 0.11402 0.30773 0.56395 0.0
O223 O 0.11471 0.29577 0.4362 0.0
C224 C 0.24762 0.55145 0.04597 0.0
C225 C 0.24178 0.56278 0.01659 0.0
C226 C 0.2534 0.53516 0.03601 0.0
C227 C 0.24767 0.50358 0.95579 0.0
H228 H 0.27422 0.47541 0.02776 0.0
C229 C 0.2493 0.43145 0.93714 0.0
C230 C 0.24067 0.42365 0.969 0.0
C231 C 0.25592 0.44792 0.94088 0.0
C232 C 0.26697 0.48319 0.00719 0.0
H233 H 0.239 0.56648 0.95337 0.0
H234 H 0.24998 0.53827 0.93561 0.0
H235 H 0.27479 0.50653 0.03469 0.0
H236 H 0.23408 0.4263 0.03111 0.0
H237 H 0.24593 0.45512 0.03765 0.0
H238 H 0.23994 0.48019 0.92836 0.0
C239 C 0.24934 0.54169 0.96662 0.0
C240 C 0.26714 0.50101 0.01126 0.0
C241 C 0.24316 0.55793 0.9767 0.0
C242 C 0.2405 0.43197 0.00591 0.0
C243 C 0.24734 0.44844 0.00973 0.0
C244 C 0.24788 0.48587 0.95114 0.0
C245 C 0.25386 0.52981 0.99628 0.0
C246 C 0.25687 0.51141 0.9867 0.0
C247 C 0.25433 0.45681 0.97669 0.0
C248 C 0.25702 0.4755 0.97765 0.0
H249 H 0.24676 0.55474 0.07706 0.0
H250 H 0.25646 0.52647 0.05993 0.0
H251 H 0.23938 0.51094 0.9366 0.0
H252 H 0.24994 0.42534 0.9084 0.0
H253 H 0.26138 0.45412 0.91511 0.0
C254 C 0.43821 0.23816 0.96999 0.0
C255 C 0.42745 0.24295 0.00136 0.0
C256 C 0.45449 0.24537 0.96641 0.0
C257 C 0.48707 0.26284 0.03279 0.0
H258 H 0.51355 0.26354 0.9359 0.0
C259 C 0.56109 0.26007 0.9688 0.0
C260 C 0.56692 0.24661 0.99294 0.0
C261 C 0.54457 0.26657 0.97335 0.0
C262 C 0.50639 0.26385 0.96334 0.0
H263 H 0.42443 0.26051 0.05063 0.0
H264 H 0.45263 0.27339 0.04372 0.0
H265 H 0.48252 0.26321 0.93239 0.0
H266 H 0.56065 0.23061 0.04329 0.0
H267 H 0.53175 0.24159 0.05069 0.0
H268 H 0.51095 0.26316 0.06373 0.0
C269 C 0.44877 0.26366 0.02273 0.0
C270 C 0.48856 0.26342 0.96125 0.0
C271 C 0.43257 0.25633 0.02654 0.0
C272 C 0.55653 0.24095 0.02419 0.0
C273 C 0.53992 0.24733 0.02848 0.0
C274 C 0.5049 0.2634 0.03489 0.0
C275 C 0.46025 0.25764 0.99389 0.0
C276 C 0.47871 0.26213 0.9959 0.0
C277 C 0.53348 0.25963 0.00187 0.0
C278 C 0.51479 0.26313 0.00018 0.0
H279 H 0.43464 0.22789 0.95009 0.0
H280 H 0.46299 0.24032 0.94394 0.0
H281 H 0.47995 0.26178 0.06017 0.0
H282 H 0.56894 0.2649 0.94486 0.0
H283 H 0.54017 0.27636 0.95307 0.0
C284 C 0.75754 0.43256 0.97416 0.0
C285 C 0.76056 0.42776 0.0136 0.0
C286 C 0.74993 0.44835 0.96551 0.0
C287 C 0.73079 0.48752 0.01401 0.0
H288 H 0.75449 0.51061 0.92864 0.0
C289 C 0.7537 0.55765 0.01075 0.0
C290 C 0.75247 0.56651 0.97463 0.0
C291 C 0.74766 0.54085 0.01383 0.0
C292 C 0.74749 0.50428 0.95214 0.0
H293 H 0.75701 0.43534 0.07493 0.0
H294 H 0.7448 0.46287 0.06011 0.0
H295 H 0.75699 0.47987 0.93504 0.0
H296 H 0.74222 0.5653 0.91482 0.0
H297 H 0.73218 0.53594 0.92018 0.0
H298 H 0.72274 0.5125 0.03297 0.0
C299 C 0.74769 0.45445 0.03555 0.0
C300 C 0.74881 0.48656 0.95574 0.0
C301 C 0.75493 0.43861 0.04414 0.0
C302 C 0.74364 0.5588 0.94295 0.0
C303 C 0.73783 0.54199 0.94591 0.0
C304 C 0.72982 0.50534 0.01092 0.0
C305 C 0.74555 0.45981 0.99613 0.0
C306 C 0.741 0.47797 0.98757 0.0
C307 C 0.74044 0.53266 0.9808 0.0
C308 C 0.73857 0.51386 0.98056 0.0
H309 H 0.76149 0.42435 0.94997 0.0
H310 H 0.74807 0.45179 0.93477 0.0
H311 H 0.72414 0.48135 0.03822 0.0
H312 H 0.76028 0.56324 0.03582 0.0
H313 H 0.74988 0.53385 0.04103 0.0
C314 C 0.56056 0.74005 0.03699 0.0
C315 C 0.56622 0.75343 0.01245 0.0
C316 C 0.54434 0.73294 0.03177 0.0
C317 C 0.50551 0.7338 0.96722 0.0
H318 H 0.48162 0.73408 0.06788 0.0
C319 C 0.437 0.75705 0.0247 0.0
C320 C 0.42703 0.75157 0.99256 0.0
C321 C 0.45341 0.75039 0.03041 0.0
C322 C 0.48809 0.73382 0.03954 0.0
H323 H 0.56001 0.76874 0.96092 0.0
H324 H 0.53159 0.75668 0.95231 0.0
H325 H 0.51267 0.73513 0.06678 0.0
H326 H 0.42545 0.73327 0.9444 0.0
H327 H 0.45388 0.72134 0.95504 0.0
H328 H 0.4809 0.73398 0.93993 0.0
C329 C 0.53969 0.75146 0.97535 0.0
C330 C 0.50595 0.7342 0.03884 0.0
C331 C 0.556 0.75846 0.98033 0.0
C332 C 0.43299 0.73798 0.96901 0.0
C333 C 0.44931 0.7312 0.97496 0.0
C334 C 0.48765 0.73355 0.96791 0.0
C335 C 0.53338 0.73918 0.00215 0.0
C336 C 0.51485 0.73491 0.00264 0.0
C337 C 0.46006 0.73799 0.00434 0.0
C338 C 0.47872 0.73427 0.00408 0.0
H339 H 0.5683 0.7357 0.06163 0.0
H340 H 0.54005 0.72319 0.05228 0.0
H341 H 0.51197 0.73402 0.93885 0.0
H342 H 0.43276 0.76749 0.04339 0.0
H343 H 0.46132 0.75601 0.05328 0.0
C344 C 0.73921 0.05523 0.55382 0.0
C345 C 0.73464 0.06642 0.52301 0.0
C346 C 0.74614 0.0392 0.54558 0.0
C347 C 0.74583 0.00763 0.46461 0.0
H348 H 0.76958 0.98043 0.54347 0.0
C349 C 0.74859 0.93552 0.44899 0.0
C350 C 0.73935 0.92777 0.47996 0.0
C351 C 0.75498 0.95207 0.45315 0.0
C352 C 0.76315 0.98794 0.52099 0.0
H353 H 0.7353 0.07022 0.45948 0.0
H354 H 0.74818 0.04246 0.445 0.0
H355 H 0.76884 0.01157 0.54997 0.0
H356 H 0.7314 0.93057 0.54117 0.0
H357 H 0.74271 0.95954 0.54843 0.0
H358 H 0.74006 0.98398 0.43589 0.0
C359 C 0.74572 0.04578 0.47559 0.0
C360 C 0.76257 0.00575 0.52478 0.0
C361 C 0.73842 0.06176 0.48383 0.0
C362 C 0.7383 0.93621 0.51663 0.0
C363 C 0.74485 0.95277 0.52087 0.0
C364 C 0.74676 0.98992 0.46039 0.0
C365 C 0.74902 0.03401 0.50629 0.0
C366 C 0.7532 0.01577 0.49761 0.0
C367 C 0.75246 0.96112 0.4885 0.0
C368 C 0.75483 0.97987 0.48932 0.0
H369 H 0.73651 0.05839 0.58442 0.0
H370 H 0.7482 0.03055 0.57014 0.0
H371 H 0.73828 0.01471 0.44331 0.0
H372 H 0.74993 0.92928 0.42052 0.0
H373 H 0.76096 0.9582 0.42793 0.0
C374 C 0.93317 0.75528 0.52481 0.0
C375 C 0.92714 0.74134 0.50248 0.0
C376 C 0.94975 0.76145 0.51928 0.0
C377 C 0.98906 0.75693 0.45736 0.0
H378 H 0.012 0.75857 0.55915 0.0
C379 C 0.05725 0.73509 0.52204 0.0
C380 C 0.0678 0.74046 0.49079 0.0
C381 C 0.04053 0.74129 0.52522 0.0
C382 C 0.0058 0.75826 0.53049 0.0
H383 H 0.93312 0.7241 0.45416 0.0
H384 H 0.96212 0.73459 0.44497 0.0
H385 H 0.98093 0.75846 0.55653 0.0
H386 H 0.06979 0.75792 0.44102 0.0
H387 H 0.04076 0.76894 0.44708 0.0
H388 H 0.01393 0.75541 0.43149 0.0
C389 C 0.95405 0.7409 0.46657 0.0
C390 C 0.98795 0.75842 0.52889 0.0
C391 C 0.9374 0.73482 0.47189 0.0
C392 C 0.06185 0.7533 0.46505 0.0
C393 C 0.0452 0.75957 0.46838 0.0
C394 C 0.00691 0.7567 0.45897 0.0
C395 C 0.96067 0.75373 0.49151 0.0
C396 C 0.97937 0.75714 0.49237 0.0
C397 C 0.0341 0.75307 0.49739 0.0
C398 C 0.01547 0.75674 0.49564 0.0
H399 H 0.92543 0.76078 0.54819 0.0
H400 H 0.95432 0.77164 0.53826 0.0
H401 H 0.98284 0.75618 0.42876 0.0
H402 H 0.06145 0.72523 0.54236 0.0
H403 H 0.03231 0.73591 0.54781 0.0
C404 C 0.2492 0.06294 0.51439 0.0
C405 C 0.25149 0.06784 0.47477 0.0
C406 C 0.24287 0.04667 0.52358 0.0
C407 C 0.22706 0.00566 0.47653 0.0
H408 H 0.25318 0.98543 0.56204 0.0
C409 C 0.25545 0.93731 0.48355 0.0
C410 C 0.25503 0.92895 0.52039 0.0
C411 C 0.24822 0.9536 0.47933 0.0
C412 C 0.24554 0.99092 0.53849 0.0
H413 H 0.24779 0.05995 0.41372 0.0
H414 H 0.23786 0.03161 0.42941 0.0
H415 H 0.25292 0.01618 0.55432 0.0
H416 H 0.24495 0.93032 0.58034 0.0
H417 H 0.23279 0.95878 0.57297 0.0
H418 H 0.22115 0.97991 0.4589 0.0
C419 C 0.24034 0.04026 0.45374 0.0
C420 C 0.24526 0.00865 0.53414 0.0
C421 C 0.24624 0.05661 0.44464 0.0
C422 C 0.24581 0.93649 0.5517 0.0
C423 C 0.23876 0.95278 0.54756 0.0
C424 C 0.22772 0.98784 0.48036 0.0
C425 C 0.23916 0.03479 0.49332 0.0
C426 C 0.23647 0.01629 0.50235 0.0
C427 C 0.24056 0.96175 0.51191 0.0
C428 C 0.2373 0.98036 0.51085 0.0
H429 H 0.25286 0.07143 0.53828 0.0
H430 H 0.24162 0.04317 0.55445 0.0
H431 H 0.21973 0.01103 0.45234 0.0
H432 H 0.26233 0.93182 0.45877 0.0
H433 H 0.2498 0.96034 0.45155 0.0
C434 C 0.06229 0.23445 0.52187 0.0
C435 C 0.06715 0.24856 0.49864 0.0
C436 C 0.0464 0.22666 0.51626 0.0
C437 C 0.00682 0.22758 0.4539 0.0
H438 H 0.98415 0.22612 0.556 0.0
C439 C 0.93916 0.24995 0.51793 0.0
C440 C 0.92866 0.24489 0.48632 0.0
C441 C 0.95564 0.24321 0.52179 0.0
C442 C 0.99028 0.22633 0.52725 0.0
H443 H 0.06004 0.26438 0.44858 0.0
H444 H 0.03222 0.25114 0.43933 0.0
H445 H 0.01516 0.22736 0.55303 0.0
H446 H 0.92634 0.22724 0.43698 0.0
H447 H 0.95493 0.21525 0.44428 0.0
H448 H 0.98188 0.22808 0.42825 0.0
C449 C 0.04066 0.24589 0.46166 0.0
C450 C 0.00812 0.22682 0.52545 0.0
C451 C 0.05664 0.25356 0.467 0.0
C452 C 0.93426 0.23164 0.46125 0.0
C453 C 0.95068 0.22482 0.46529 0.0
C454 C 0.98897 0.22722 0.45571 0.0
C455 C 0.035 0.23295 0.48759 0.0
C456 C 0.01658 0.22821 0.48879 0.0
C457 C 0.96187 0.23116 0.49432 0.0
C458 C 0.98049 0.22736 0.49248 0.0
H459 H 0.07028 0.23012 0.54608 0.0
H460 H 0.04264 0.21642 0.53602 0.0
H461 H 0.01294 0.22833 0.42518 0.0
H462 H 0.93522 0.26009 0.53782 0.0
H463 H 0.9639 0.24849 0.54443 0.0
C464 C 0.24283 0.33544 0.99576 0.0
C465 C 0.23992 0.34094 0.9567 0.0
C466 C 0.25475 0.32257 0.00368 0.0
C467 C 0.2784 0.28674 0.95936 0.0
H468 H 0.31164 0.29624 0.04168 0.0
C469 C 0.33916 0.24558 0.98181 0.0
C470 C 0.34499 0.24305 0.02074 0.0
C471 C 0.32558 0.25675 0.97414 0.0
C472 C 0.30231 0.29321 0.01904 0.0
H473 H 0.24686 0.33678 0.8952 0.0
H474 H 0.26759 0.31422 0.90915 0.0
H475 H 0.28896 0.31678 0.02837 0.0
H476 H 0.34071 0.24979 0.08228 0.0
H477 H 0.31681 0.26884 0.06905 0.0
H478 H 0.29164 0.26309 0.95023 0.0
C479 C 0.26063 0.31991 0.93357 0.0
C480 C 0.28933 0.30502 0.01138 0.0
C481 C 0.24883 0.33291 0.92564 0.0
C482 C 0.33668 0.2516 0.05188 0.0
C483 C 0.32302 0.26261 0.04427 0.0
C484 C 0.2913 0.27482 0.96728 0.0
C485 C 0.26389 0.31481 0.97271 0.0
C486 C 0.27729 0.30194 0.98139 0.0
C487 C 0.31742 0.2655 0.00527 0.0
C488 C 0.30345 0.27794 -0.00285 0.0
H489 H 0.23618 0.34132 0.0204 0.0
H490 H 0.25688 0.31874 0.03411 0.0
H491 H 0.26918 0.28399 0.93628 0.0
H492 H 0.3453 0.23921 0.95712 0.0
H493 H 0.32176 0.25881 0.9437 0.0
C494 C 0.75317 0.34064 0.99229 0.0
C495 C 0.75613 0.34602 0.03143 0.0
C496 C 0.74083 0.32822 0.98414 0.0
C497 C 0.71651 0.29292 0.02803 0.0
H498 H 0.68306 0.30321 0.94667 0.0
C499 C 0.65539 0.25252 0.00729 0.0
C500 C 0.64928 0.25002 0.96859 0.0
C501 C 0.66897 0.26371 0.0145 0.0
C502 C 0.69244 0.29997 0.96903 0.0
H503 H 0.74882 0.34216 0.09279 0.0
H504 H 0.7274 0.32032 0.07844 0.0
H505 H 0.70619 0.3233 0.95963 0.0
H506 H 0.65295 0.25697 0.90698 0.0
H507 H 0.6769 0.27606 0.91939 0.0
H508 H 0.70297 0.26948 0.03716 0.0
C509 C 0.73461 0.32579 0.05416 0.0
C510 C 0.70566 0.31152 0.9765 0.0
C511 C 0.7468 0.33837 0.0623 0.0
C512 C 0.65722 0.25875 0.93721 0.0
C513 C 0.67091 0.26978 0.94436 0.0
C514 C 0.70339 0.28125 0.02027 0.0
C515 C 0.73137 0.32076 0.01497 0.0
C516 C 0.71776 0.30816 0.00621 0.0
C517 C 0.67689 0.27251 0.98313 0.0
C518 C 0.69112 0.28468 0.99082 0.0
H519 H 0.76014 0.34626 0.96782 0.0
H520 H 0.73867 0.32444 0.95369 0.0
H521 H 0.72579 0.28996 0.05086 0.0
H522 H 0.64951 0.24604 0.03217 0.0
H523 H 0.67304 0.26568 0.0448 0.0
C524 C 0.74092 0.65925 0.94424 0.0
C525 C 0.74958 0.64998 0.97378 0.0
C526 C 0.72966 0.67239 0.95438 0.0
C527 C 0.70156 0.68675 0.03361 0.0
H528 H 0.70212 0.73002 0.9774 0.0
C529 C 0.65485 0.74134 0.07288 0.0
C530 C 0.64773 0.75054 0.04113 0.0
C531 C 0.66833 0.72992 0.06656 0.0
C532 C 0.70167 0.71794 0.9931 0.0
H533 H 0.75324 0.64734 0.03718 0.0
H534 H 0.73332 0.67022 0.05485 0.0
H535 H 0.7238 0.70846 0.9628 0.0
H536 H 0.64927 0.75498 0.9778 0.0
H537 H 0.67242 0.73477 0.96663 0.0
H538 H 0.67914 0.69591 0.06301 0.0
C539 C 0.73534 0.66727 0.02386 0.0
C540 C 0.71413 0.70564 0.98483 0.0
C541 C 0.74679 0.65423 0.01372 0.0
C542 C 0.65449 0.74816 0.00297 0.0
C543 C 0.66787 0.73663 0.9966 0.0
C544 C 0.68899 0.69898 0.04162 0.0
C545 C 0.72666 0.67644 0.99427 0.0
C546 C 0.7141 0.68988 0.00476 0.0
C547 C 0.67492 0.72733 0.02829 0.0
C548 C 0.68879 0.71467 0.0212 0.0
H549 H 0.74282 0.65635 0.91319 0.0
H550 H 0.723 0.67914 0.93099 0.0
H551 H 0.70113 0.67461 0.04907 0.0
H552 H 0.65004 0.74297 0.10272 0.0
H553 H 0.67363 0.72318 0.09175 0.0
C554 C 0.24932 0.65168 0.99122 0.0
C555 C 0.24782 0.64628 0.03078 0.0
C556 C 0.26024 0.66517 0.98125 0.0
C557 C 0.2815 0.70302 0.02206 0.0
H558 H 0.31468 0.69609 0.93826 0.0
C559 C 0.33932 0.74783 0.00022 0.0
C560 C 0.34542 0.7506 0.96162 0.0
C561 C 0.32621 0.73606 0.00718 0.0
C562 C 0.3053 0.69842 0.96123 0.0
H563 H 0.25635 0.65103 0.09095 0.0
H564 H 0.27523 0.67467 0.07349 0.0
H565 H 0.29377 0.67384 0.9526 0.0
H566 H 0.34201 0.74379 0.89986 0.0
H567 H 0.31881 0.72371 0.91183 0.0
H568 H 0.29284 0.72764 0.03059 0.0
C569 C 0.26799 0.66843 0.05027 0.0
C570 C 0.29337 0.68562 0.9695 0.0
C571 C 0.25727 0.65481 0.06017 0.0
C572 C 0.33774 0.74179 0.93002 0.0
C573 C 0.32449 0.73019 0.93692 0.0
C574 C 0.2933 0.71593 0.0135 0.0
C575 C 0.26964 0.67368 0.01072 0.0
C576 C 0.28151 0.68771 0.00031 0.0
C577 C 0.31875 0.72696 0.97565 0.0
C578 C 0.3055 0.7137 0.9833 0.0
H579 H 0.24221 0.64537 0.96789 0.0
H580 H 0.26125 0.66904 0.95055 0.0
H581 H 0.27234 0.70502 0.04569 0.0
H582 H 0.34501 0.75437 0.02524 0.0
H583 H 0.32231 0.73375 0.03746 0.0
C584 C 0.83657 0.75521 0.55362 0.0
C585 C 0.84447 0.74535 0.52399 0.0
C586 C 0.82298 0.76608 0.54435 0.0
C587 C 0.80503 0.79106 0.46363 0.0
H588 H 0.76449 0.79283 0.52974 0.0
C589 C 0.74915 0.83693 0.42902 0.0
C590 C 0.74138 0.84514 0.46139 0.0
C591 C 0.76072 0.82354 0.43503 0.0
C592 C 0.7758 0.79263 0.51121 0.0
H593 H 0.84419 0.73908 0.46139 0.0
H594 H 0.82055 0.75835 0.44517 0.0
H595 H 0.78662 0.77161 0.54329 0.0
H596 H 0.73965 0.8457 0.52549 0.0
H597 H 0.76016 0.82275 0.53601 0.0
H598 H 0.7946 0.81243 0.43238 0.0
C599 C 0.82491 0.75758 0.47555 0.0
C600 C 0.78842 0.78042 0.5189 0.0
C601 C 0.83839 0.74652 0.48489 0.0
C602 C 0.74533 0.83959 0.49988 0.0
C603 C 0.75702 0.82633 0.5059 0.0
C604 C 0.79249 0.80339 0.45618 0.0
C605 C 0.81711 0.76747 0.50521 0.0
C606 C 0.80322 0.77963 0.49542 0.0
C607 C 0.76491 0.81817 0.47356 0.0
C608 C 0.77779 0.80445 0.48013 0.0
H609 H 0.84087 0.75457 0.58406 0.0
H610 H 0.8173 0.7737 0.56772 0.0
H611 H 0.81641 0.79084 0.44536 0.0
H612 H 0.74626 0.84079 0.39896 0.0
H613 H 0.76631 0.81737 0.40942 0.0
C614 C 0.25094 0.84107 0.50077 0.0
C615 C 0.25453 0.84692 0.53924 0.0
C616 C 0.23871 0.82834 0.49458 0.0
C617 C 0.21548 0.7932 0.54241 0.0
H618 H 0.18151 0.80199 0.46125 0.0
C619 C 0.15598 0.74996 0.51955 0.0
C620 C 0.15069 0.74715 0.48032 0.0
C621 C 0.1689 0.76182 0.52791 0.0
C622 C 0.19102 0.79919 0.48365 0.0
H623 H 0.24848 0.84354 0.60149 0.0
H624 H 0.22719 0.82118 0.59053 0.0
H625 H 0.20404 0.82282 0.47315 0.0
H626 H 0.15521 0.75418 0.41902 0.0
H627 H 0.17789 0.77439 0.43344 0.0
H628 H 0.20261 0.76941 0.5525 0.0
C629 C 0.23385 0.82652 0.56526 0.0
C630 C 0.2039 0.81116 0.4905 0.0
C631 C 0.24597 0.83938 0.57146 0.0
C632 C 0.1588 0.75618 0.44964 0.0
C633 C 0.17177 0.76787 0.45794 0.0
C634 C 0.20265 0.78111 0.53531 0.0
C635 C 0.22993 0.82106 0.52672 0.0
C636 C 0.2163 0.80826 0.5198 0.0
C637 C 0.17687 0.77099 0.49717 0.0
C638 C 0.19032 0.78393 0.50567 0.0
H639 H 0.25731 0.84656 0.47528 0.0
H640 H 0.23607 0.82421 0.46458 0.0
H641 H 0.22495 0.79062 0.56505 0.0
H642 H 0.14996 0.74322 0.54386 0.0
H643 H 0.1724 0.76403 0.55851 0.0
C644 C 0.23989 0.16009 0.43234 0.0
C645 C 0.24914 0.15146 0.46195 0.0
C646 C 0.22898 0.1736 0.44213 0.0
C647 C 0.20275 0.18973 0.52279 0.0
H648 H 0.20211 0.23198 0.46261 0.0
C649 C 0.15631 0.24412 0.56278 0.0
C650 C 0.14832 0.25266 0.53119 0.0
C651 C 0.1701 0.23314 0.55589 0.0
C652 C 0.20199 0.2202 0.47947 0.0
H653 H 0.25429 0.15037 0.52505 0.0
H654 H 0.23499 0.17384 0.54211 0.0
H655 H 0.22335 0.21004 0.4473 0.0
H656 H 0.14877 0.25667 0.46764 0.0
H657 H 0.17242 0.23712 0.45545 0.0
H658 H 0.18106 0.19943 0.55398 0.0
C659 C 0.23627 0.17013 0.51135 0.0
C660 C 0.2142 0.20768 0.47077 0.0
C661 C 0.24735 0.15675 0.50153 0.0
C662 C 0.15468 0.25032 0.49266 0.0
C663 C 0.16833 0.23917 0.48571 0.0
C664 C 0.19042 0.20213 0.5312 0.0
C665 C 0.22694 0.17863 0.48175 0.0
C666 C 0.21462 0.19229 0.4922 0.0
C667 C 0.17608 0.23027 0.51719 0.0
C668 C 0.1898 0.21749 0.50948 0.0
H669 H 0.24103 0.15639 0.40155 0.0
H670 H 0.22182 0.17984 0.41877 0.0
H671 H 0.20265 0.17787 0.53942 0.0
H672 H 0.15185 0.24581 0.59289 0.0
H673 H 0.17598 0.22682 0.58096 0.0
C674 C 0.83671 0.2365 0.4435 0.0
C675 C 0.84553 0.24563 0.47299 0.0
C676 C 0.82299 0.22592 0.4534 0.0
C677 C 0.80599 0.20034 0.53439 0.0
H678 H 0.76415 0.20051 0.47268 0.0
C679 C 0.74919 0.15626 0.57307 0.0
C680 C 0.74047 0.14863 0.54125 0.0
C681 C 0.76119 0.16918 0.56634 0.0
C682 C 0.77582 0.20016 0.48996 0.0
H683 H 0.84675 0.2509 0.53602 0.0
H684 H 0.82285 0.23216 0.55331 0.0
H685 H 0.78662 0.22119 0.45789 0.0
H686 H 0.73754 0.1486 0.47736 0.0
H687 H 0.75875 0.17075 0.46556 0.0
H688 H 0.79553 0.17899 0.56565 0.0
C689 C 0.82661 0.23328 0.52255 0.0
C690 C 0.78864 0.21206 0.48156 0.0
C691 C 0.84022 0.24405 0.51259 0.0
C692 C 0.74395 0.15427 0.50258 0.0
C693 C 0.75606 0.16707 0.49583 0.0
C694 C 0.79324 0.18832 0.54255 0.0
C695 C 0.81791 0.22408 0.49304 0.0
C696 C 0.8039 0.21216 0.50348 0.0
C697 C 0.76485 0.17467 0.52761 0.0
C698 C 0.77806 0.18799 0.5202 0.0
H699 H 0.84043 0.23748 0.41269 0.0
H700 H 0.81661 0.21884 0.43011 0.0
H701 H 0.81773 0.20001 0.55144 0.0
H702 H 0.7467 0.15232 0.60327 0.0
H703 H 0.76751 0.17494 0.59156 0.0
C704 C 0.12708 0.30554 0.359 0.0
C705 C 0.13693 0.30656 0.39371 0.0
C706 C 0.13318 0.31252 0.32349 0.0
C707 C 0.17276 0.32937 0.27518 0.0
H708 H 0.14029 0.35357 0.20897 0.0
C709 C 0.1917 0.35895 0.12432 0.0
C710 C 0.18342 0.37406 0.11235 0.0
C711 C 0.18663 0.35046 0.15881 0.0
C712 C 0.14959 0.34706 0.22734 0.0
H713 H 0.16109 0.31536 0.41807 0.0
H714 H 0.17142 0.32781 0.35695 0.0
H715 H 0.13025 0.33868 0.26765 0.0
H716 H 0.16397 0.3926 0.1283 0.0
H717 H 0.15558 0.37819 0.18919 0.0
H718 H 0.1922 0.33839 0.23587 0.0
C719 C 0.15916 0.32136 0.35663 0.0
C720 C 0.14377 0.33822 0.26069 0.0
C721 C 0.15315 0.31429 0.3919 0.0
C722 C 0.17052 0.38091 0.13656 0.0
C723 C 0.16558 0.37254 0.17128 0.0
C724 C 0.17861 0.33835 0.24205 0.0
C725 C 0.1492 0.32075 0.32202 0.0
C726 C 0.15528 0.32933 0.2852 0.0
C727 C 0.17329 0.35698 0.18241 0.0
C728 C 0.16712 0.34739 0.21778 0.0
H729 H 0.11457 0.2996 0.35938 0.0
H730 H 0.12527 0.31155 0.29727 0.0
H731 H 0.18199 0.32248 0.29299 0.0
H732 H 0.20162 0.35326 0.10618 0.0
H733 H 0.19277 0.33845 0.16612 0.0
C734 C 0.66014 0.12579 0.37837 0.0
C735 C 0.67722 0.1247 0.39113 0.0
C736 C 0.65599 0.13416 0.34319 0.0
C737 C 0.67244 0.16664 0.27352 0.0
H738 H 0.63536 0.15014 0.20749 0.0
C739 C 0.65559 0.19469 0.11931 0.0
C740 C 0.63814 0.19636 0.10992 0.0
C741 C 0.66068 0.18683 0.15455 0.0
C742 C 0.64562 0.15502 0.22588 0.0
H743 H 0.70343 0.13109 0.3762 0.0
H744 H 0.6962 0.14544 0.31406 0.0
H745 H 0.64423 0.13355 0.26493 0.0
H746 H 0.61233 0.19179 0.13108 0.0
H747 H 0.62125 0.17807 0.19265 0.0
H748 H 0.6739 0.18802 0.2339 0.0
C749 C 0.68598 0.14009 0.3318 0.0
C750 C 0.65073 0.14549 0.25879 0.0
C751 C 0.69014 0.13173 0.36721 0.0
C752 C 0.62588 0.19067 0.13736 0.0
C753 C 0.63098 0.18269 0.17247 0.0
C754 C 0.66739 0.17611 0.24037 0.0
C755 C 0.66881 0.14158 0.31963 0.0
C756 C 0.6641 0.15125 0.28326 0.0
C757 C 0.64843 0.18037 0.18104 0.0
C758 C 0.65383 0.17047 0.21641 0.0
H759 H 0.64983 0.12057 0.39609 0.0
H760 H 0.64262 0.13525 0.33512 0.0
H761 H 0.68262 0.17158 0.29202 0.0
H762 H 0.66536 0.19899 0.09886 0.0
H763 H 0.67422 0.18518 0.16026 0.0
C764 C 0.86831 0.68208 0.36567 0.0
C765 C 0.85622 0.68776 0.39351 0.0
C766 C 0.86299 0.67424 0.33053 0.0
C767 C 0.82585 0.65135 0.28761 0.0
H768 H 0.85006 0.65822 0.18874 0.0
C769 C 0.80192 0.62576 0.13585 0.0
C770 C 0.81441 0.61904 0.11022 0.0
C771 C 0.80672 0.63367 0.17135 0.0
C772 C 0.84327 0.65604 0.21624 0.0
H773 H 0.82906 0.69038 0.40547 0.0
H774 H 0.81983 0.67709 0.34393 0.0
H775 H 0.85898 0.67388 0.24759 0.0
H776 H 0.84166 0.61469 0.10268 0.0
H777 H 0.84993 0.62836 0.16447 0.0
H778 H 0.81004 0.6336 0.25597 0.0
C779 C 0.83341 0.67827 0.34962 0.0
C780 C 0.84839 0.66501 0.24998 0.0
C781 C 0.83872 0.68601 0.38479 0.0
C782 C 0.8317 0.61982 0.12157 0.0
C783 C 0.83647 0.62777 0.15687 0.0
C784 C 0.82067 0.64244 0.25377 0.0
C785 C 0.84547 0.67199 0.32236 0.0
C786 C 0.83979 0.66274 0.28615 0.0
C787 C 0.82408 0.63508 0.18179 0.0
C788 C 0.82939 0.64462 0.21777 0.0
H789 H 0.88188 0.68317 0.37157 0.0
H790 H 0.87264 0.66943 0.31039 0.0
H791 H 0.81911 0.64906 0.31511 0.0
H792 H 0.7885 0.62538 0.12795 0.0
H793 H 0.79687 0.63923 0.18992 0.0
C794 C 0.30234 0.86155 0.36792 0.0
C795 C 0.31046 0.87698 0.37807 0.0
C796 C 0.30714 0.85261 0.33382 0.0
C797 C 0.34337 0.84886 0.26297 0.0
H798 H 0.31072 0.82251 0.2019 0.0
C799 C 0.36524 0.80602 0.13305 0.0
C800 C 0.3549 0.80624 0.09903 0.0
C801 C 0.3594 0.8133 0.16847 0.0
C802 C 0.32002 0.82989 0.21841 0.0
H803 H 0.32933 0.8956 0.35927 0.0
H804 H 0.33724 0.88041 0.29904 0.0
H805 H 0.3009 0.8391 0.25835 0.0
H806 H 0.33014 0.81389 0.07589 0.0
H807 H 0.32023 0.82689 0.1368 0.0
H808 H 0.36236 0.84029 0.22197 0.0
C809 C 0.32758 0.87485 0.31809 0.0
C810 C 0.3144 0.83927 0.25118 0.0
C811 C 0.32292 0.88367 0.35243 0.0
C812 C 0.33845 0.81344 0.10153 0.0
C813 C 0.33269 0.82083 0.13669 0.0
C814 C 0.34896 0.83962 0.22996 0.0
C815 C 0.32005 0.85899 0.30878 0.0
C816 C 0.32598 0.84896 0.27381 0.0
C817 C 0.34315 0.82107 0.17054 0.0
C818 C 0.33735 0.83009 0.20708 0.0
H819 H 0.29277 0.85598 0.3872 0.0
H820 H 0.30116 0.84038 0.32795 0.0
H821 H 0.35275 0.85587 0.28007 0.0
H822 H 0.37794 0.80049 0.13216 0.0
H823 H 0.3677 0.81296 0.19413 0.0
C824 C 0.13883 0.66449 0.61674 0.0
C825 C 0.12798 0.67879 0.61384 0.0
C826 C 0.14546 0.65947 0.65322 0.0
C827 C 0.1361 0.65806 0.75662 0.0
H828 H 0.18484 0.65114 0.77142 0.0
C829 C 0.16298 0.63609 0.90657 0.0
C830 C 0.17728 0.62521 0.90707 0.0
C831 C 0.15752 0.64367 0.87142 0.0
C832 C 0.17117 0.65273 0.76768 0.0
H833 H 0.11552 0.69905 0.64681 0.0
H834 H 0.12671 0.68977 0.71146 0.0
H835 H 0.17424 0.66289 0.70911 0.0
H836 H 0.1971 0.61365 0.87114 0.0
H837 H 0.18707 0.62619 0.80902 0.0
H838 H 0.13274 0.64709 0.81389 0.0
C839 C 0.13021 0.68269 0.6851 0.0
C840 C 0.16515 0.65964 0.73214 0.0
C841 C 0.12386 0.68799 0.64827 0.0
C842 C 0.18604 0.62202 0.87158 0.0
C843 C 0.18035 0.62934 0.83607 0.0
C844 C 0.14206 0.65084 0.79184 0.0
C845 C 0.14111 0.66842 0.68773 0.0
C846 C 0.14758 0.66233 0.72634 0.0
C847 C 0.16599 0.64029 0.83554 0.0
C848 C 0.15969 0.64806 0.79791 0.0
H849 H 0.14235 0.65721 0.59068 0.0
H850 H 0.15373 0.64835 0.65459 0.0
H851 H 0.12246 0.65977 0.75249 0.0
H852 H 0.15611 0.63903 0.93359 0.0
H853 H 0.14673 0.65235 0.87263 0.0
C854 C 0.33308 0.12475 0.60623 0.0
C855 C 0.31566 0.12348 0.59634 0.0
C856 C 0.33819 0.13282 0.64112 0.0
C857 C 0.32331 0.1643 0.71502 0.0
H858 H 0.36183 0.14729 0.7758 0.0
C859 C 0.34138 0.18966 0.87026 0.0
C860 C 0.35885 0.19128 0.87949 0.0
C861 C 0.33623 0.18244 0.83438 0.0
C862 C 0.3512 0.15233 0.75884 0.0
H863 H 0.28989 0.12924 0.61607 0.0
H864 H 0.29881 0.14309 0.67753 0.0
H865 H 0.35215 0.13155 0.71773 0.0
H866 H 0.38461 0.18726 0.85753 0.0
H867 H 0.37558 0.17468 0.79467 0.0
H868 H 0.32227 0.18499 0.75656 0.0
C869 C 0.30854 0.1381 0.65782 0.0
C870 C 0.34562 0.14329 0.72559 0.0
C871 C 0.30341 0.13003 0.62278 0.0
C872 C 0.37106 0.18617 0.85133 0.0
C873 C 0.36589 0.17884 0.81549 0.0
C874 C 0.32885 0.17331 0.7484 0.0
C875 C 0.32601 0.13979 0.66714 0.0
C876 C 0.33162 0.14916 0.70323 0.0
C877 C 0.34842 0.1766 0.80697 0.0
C878 C 0.34287 0.16744 0.77065 0.0
H879 H 0.34287 0.11988 0.58651 0.0
H880 H 0.35175 0.13405 0.64706 0.0
H881 H 0.31268 0.16936 0.69809 0.0
H882 H 0.33164 0.19352 0.89126 0.0
H883 H 0.32268 0.18081 0.82884 0.0
C884 C 0.80954 0.33935 0.87979 0.0
C885 C 0.8084 0.35685 0.88905 0.0
C886 C 0.81657 0.334 0.84384 0.0
C887 C 0.84695 0.34823 0.76806 0.0
H888 H 0.82913 0.30997 0.70773 0.0
C889 C 0.87411 0.32924 0.61556 0.0
C890 C 0.87509 0.31177 0.60592 0.0
C891 C 0.86612 0.3346 0.65038 0.0
C892 C 0.8344 0.32052 0.72454 0.0
H893 H 0.81303 0.3825 0.86701 0.0
H894 H 0.82525 0.37313 0.80403 0.0
H895 H 0.81372 0.31998 0.76616 0.0
H896 H 0.86887 0.28616 0.626 0.0
H897 H 0.85515 0.29551 0.68731 0.0
H898 H 0.86771 0.34868 0.72685 0.0
C899 C 0.82089 0.36356 0.82489 0.0
C900 C 0.82552 0.32631 0.7579 0.0
C901 C 0.81376 0.36892 0.86081 0.0
C902 C 0.86831 0.29972 0.63252 0.0
C903 C 0.86031 0.30509 0.66748 0.0
C904 C 0.85585 0.34241 0.73482 0.0
C905 C 0.82268 0.34602 0.81637 0.0
C906 C 0.83169 0.34024 0.78002 0.0
C907 C 0.85893 0.32262 0.67656 0.0
C908 C 0.84969 0.32849 0.71261 0.0
H909 H 0.80549 0.32971 0.90084 0.0
H910 H 0.81785 0.32041 0.83831 0.0
H911 H 0.85222 0.35877 0.78491 0.0
H912 H 0.87916 0.33889 0.59572 0.0
H913 H 0.86513 0.34819 0.65614 0.0
C914 C 0.62701 0.80736 0.86732 0.0
C915 C 0.63873 0.80188 0.89619 0.0
C916 C 0.63279 0.81435 0.83164 0.0
C917 C 0.67078 0.8357 0.78876 0.0
H918 H 0.64604 0.82976 0.69028 0.0
C919 C 0.69332 0.86336 0.63727 0.0
C920 C 0.68048 0.8709 0.6139 0.0
C921 C 0.68904 0.85456 0.67205 0.0
C922 C 0.65302 0.83162 0.71765 0.0
H923 H 0.66569 0.79854 0.90933 0.0
H924 H 0.67575 0.8103 0.84676 0.0
H925 H 0.6371 0.81393 0.7489 0.0
H926 H 0.65316 0.87566 0.60955 0.0
H927 H 0.64581 0.86042 0.6699 0.0
H928 H 0.68672 0.85337 0.7572 0.0
C929 C 0.6621 0.80966 0.85208 0.0
C930 C 0.64789 0.82257 0.75127 0.0
C931 C 0.65632 0.80278 0.88784 0.0
C932 C 0.66339 0.86993 0.62668 0.0
C933 C 0.65913 0.86108 0.66114 0.0
C934 C 0.67599 0.84467 0.75501 0.0
C935 C 0.65042 0.81589 0.82388 0.0
C936 C 0.65656 0.82465 0.7874 0.0
C937 C 0.67185 0.85305 0.68386 0.0
C938 C 0.66701 0.8429 0.71925 0.0
H939 H 0.61337 0.80691 0.8729 0.0
H940 H 0.62341 0.81916 0.81083 0.0
H941 H 0.67761 0.83784 0.8162 0.0
H942 H 0.7066 0.86386 0.62822 0.0
H943 H 0.69912 0.84848 0.68899 0.0
C944 C 0.8511 0.67366 0.61023 0.0
C945 C 0.86526 0.68466 0.60816 0.0
C946 C 0.84434 0.66892 0.64686 0.0
C947 C 0.8559 0.66589 0.75258 0.0
H948 H 0.80703 0.6594 0.76563 0.0
C949 C 0.80844 0.62641 0.8602 0.0
C950 C 0.81337 0.63208 0.89797 0.0
C951 C 0.81427 0.63474 0.82638 0.0
C952 C 0.8207 0.66119 0.76234 0.0
H953 H 0.88351 0.69923 0.64293 0.0
H954 H 0.87138 0.69145 0.70661 0.0
H955 H 0.81806 0.67064 0.70329 0.0
H956 H 0.82856 0.65078 0.92991 0.0
H957 H 0.83907 0.66519 0.8703 0.0
H958 H 0.85845 0.65639 0.81177 0.0
C959 C 0.86563 0.68628 0.68001 0.0
C960 C 0.82703 0.66753 0.72664 0.0
C961 C 0.87247 0.69089 0.64342 0.0
C962 C 0.82448 0.64616 0.9012 0.0
C963 C 0.8305 0.65439 0.8672 0.0
C964 C 0.84954 0.65971 0.78843 0.0
C965 C 0.85155 0.67515 0.68218 0.0
C966 C 0.84472 0.66965 0.72109 0.0
C967 C 0.82536 0.64877 0.82954 0.0
C968 C 0.83192 0.65701 0.7933 0.0
H969 H 0.84531 0.66857 0.58358 0.0
H970 H 0.83368 0.66008 0.64748 0.0
H971 H 0.86961 0.66716 0.74913 0.0
H972 H 0.80023 0.61539 0.85655 0.0
H973 H 0.81039 0.62996 0.79764 0.0
C974 C 0.31723 0.87564 0.63461 0.0
C975 C 0.32075 0.86833 0.59749 0.0
C976 C 0.32348 0.86817 0.66909 0.0
C977 C 0.35719 0.84168 0.70916 0.0
H978 H 0.3249 0.83293 0.79402 0.0
C979 C 0.37717 0.80783 0.85363 0.0
C980 C 0.36983 0.81373 0.88905 0.0
C981 C 0.37119 0.81369 0.81716 0.0
C982 C 0.33413 0.83549 0.77086 0.0
H983 H 0.3342 0.84785 0.56726 0.0
H984 H 0.34549 0.83493 0.62802 0.0
H985 H 0.31475 0.84477 0.73156 0.0
H986 H 0.35074 0.83074 0.91409 0.0
H987 H 0.34069 0.84142 0.85056 0.0
H988 H 0.37668 0.833 0.74874 0.0
C989 C 0.33766 0.84634 0.63011 0.0
C990 C 0.32829 0.84216 0.73507 0.0
C991 C 0.33119 0.85371 0.59547 0.0
C992 C 0.35656 0.82582 0.8873 0.0
C993 C 0.35071 0.83184 0.85084 0.0
C994 C 0.36309 0.8352 0.74519 0.0
C995 C 0.33361 0.85339 0.66718 0.0
C996 C 0.33978 0.84543 0.70408 0.0
C997 C 0.3579 0.82578 0.81532 0.0
C998 C 0.35163 0.83215 0.77657 0.0
H999 H 0.30962 0.88715 0.6372 0.0
H1000 H 0.32047 0.87401 0.69735 0.0
H1001 H 0.36629 0.84425 0.68572 0.0
H1002 H 0.38757 0.79871 0.85389 0.0
H1003 H 0.3769 0.80861 0.79042 0.0
C1004 C 0.13247 0.32698 0.60472 0.0
C1005 C 0.11965 0.31443 0.60263 0.0
C1006 C 0.13783 0.33328 0.64133 0.0
C1007 C 0.14069 0.32209 0.74576 0.0
H1008 H 0.14583 0.37098 0.76132 0.0
C1009 C 0.16165 0.35122 0.89568 0.0
C1010 C 0.17346 0.36473 0.89346 0.0
C1011 C 0.15373 0.34509 0.86137 0.0
C1012 C 0.14462 0.35728 0.75734 0.0
H1013 H 0.10208 0.29898 0.63728 0.0
H1014 H 0.11176 0.30971 0.70118 0.0
H1015 H 0.13485 0.36023 0.69855 0.0
H1016 H 0.18597 0.3826 0.85367 0.0
H1017 H 0.17276 0.37157 0.79415 0.0
H1018 H 0.15094 0.31907 0.80406 0.0
C1019 C 0.1177 0.31456 0.67446 0.0
C1020 C 0.1383 0.35116 0.72145 0.0
C1021 C 0.11221 0.3084 0.63785 0.0
C1022 C 0.17712 0.37203 0.85644 0.0
C1023 C 0.16933 0.36586 0.82227 0.0
C1024 C 0.14718 0.3282 0.78158 0.0
C1025 C 0.13055 0.32705 0.6765 0.0
C1026 C 0.13646 0.33352 0.7152 0.0
C1027 C 0.1575 0.35237 0.82429 0.0
C1028 C 0.14943 0.34586 0.78754 0.0
H1029 H 0.13842 0.33192 0.57811 0.0
H1030 H 0.14786 0.34283 0.64218 0.0
H1031 H 0.13948 0.30841 0.7415 0.0
H1032 H 0.1585 0.34541 0.92386 0.0
H1033 H 0.14454 0.33479 0.86394 0.0
C1034 C 0.6173 0.18708 0.86264 0.0
C1035 C 0.62783 0.18657 0.89632 0.0
C1036 C 0.62323 0.18088 0.82649 0.0
C1037 C 0.66047 0.17403 0.76677 0.0
H1038 H 0.63534 0.13668 0.71821 0.0
C1039 C 0.67003 0.14874 0.60586 0.0
C1040 C 0.67466 0.13138 0.60492 0.0
C1041 C 0.66445 0.15619 0.6412 0.0
C1042 C 0.64238 0.14716 0.73147 0.0
H1043 H 0.6529 0.17963 0.91862 0.0
H1044 H 0.66347 0.16915 0.85462 0.0
H1045 H 0.62546 0.1487 0.78124 0.0
H1046 H 0.67686 0.10811 0.63954 0.0
H1047 H 0.66652 0.12104 0.70093 0.0
H1048 H 0.67722 0.17265 0.7165 0.0
C1049 C 0.65059 0.1742 0.85662 0.0
C1050 C 0.63676 0.154 0.76728 0.0
C1051 C 0.64452 0.18008 0.89309 0.0
C1052 C 0.6734 0.12154 0.63956 0.0
C1053 C 0.66747 0.12887 0.67455 0.0
C1054 C 0.66589 0.16742 0.73045 0.0
C1055 C 0.63989 0.1744 0.82326 0.0
C1056 C 0.64584 0.16739 0.78528 0.0
C1057 C 0.66306 0.14625 0.67563 0.0
C1058 C 0.65694 0.15386 0.71282 0.0
H1059 H 0.60435 0.19198 0.86436 0.0
H1060 H 0.61482 0.18116 0.80099 0.0
H1061 H 0.66757 0.18442 0.78024 0.0
H1062 H 0.67099 0.1566 0.57954 0.0
H1063 H 0.66104 0.16962 0.64159 0.0
C1064 C 0.85652 0.32037 0.39182 0.0
C1065 C 0.86911 0.30753 0.39169 0.0
C1066 C 0.85037 0.32704 0.35621 0.0
C1067 C 0.84576 0.31768 0.25064 0.0
H1068 H 0.84457 0.367 0.23855 0.0
C1069 C 0.83194 0.35005 0.10034 0.0
C1070 C 0.8216 0.36475 0.10104 0.0
C1071 C 0.83785 0.34285 0.13566 0.0
C1072 C 0.84459 0.35321 0.24159 0.0
H1073 H 0.88514 0.29168 0.3541 0.0
H1074 H 0.87414 0.30309 0.29212 0.0
H1075 H 0.85386 0.35459 0.30112 0.0
H1076 H 0.80968 0.38364 0.13925 0.0
H1077 H 0.81935 0.37077 0.20054 0.0
H1078 H 0.83623 0.31623 0.1914 0.0
C1079 C 0.86898 0.30789 0.31975 0.0
C1080 C 0.84993 0.34613 0.2774 0.0
C1081 C 0.87527 0.30136 0.3553 0.0
C1082 C 0.8174 0.37217 0.13763 0.0
C1083 C 0.82316 0.36491 0.17285 0.0
C1084 C 0.84024 0.32475 0.21491 0.0
C1085 C 0.8566 0.32088 0.3199 0.0
C1086 C 0.85057 0.32831 0.28222 0.0
C1087 C 0.83348 0.3502 0.17232 0.0
C1088 C 0.83959 0.34261 0.20999 0.0
H1089 H 0.85155 0.32541 0.41938 0.0
H1090 H 0.84073 0.33699 0.35704 0.0
H1091 H 0.84603 0.30388 0.2538 0.0
H1092 H 0.83548 0.3441 0.07256 0.0
H1093 H 0.846 0.33166 0.13421 0.0
C1094 C 0.64309 0.82039 0.11189 0.0
C1095 C 0.62616 0.81461 0.10824 0.0
C1096 C 0.64923 0.82595 0.14854 0.0
C1097 C 0.63607 0.84613 0.23872 0.0
H1098 H 0.67577 0.82533 0.28835 0.0
C1099 C 0.6746 0.87604 0.36668 0.0
C1100 C 0.67581 0.86591 0.40088 0.0
C1101 C 0.66802 0.86922 0.33178 0.0
C1102 C 0.66464 0.83115 0.27475 0.0
H1103 H 0.60231 0.81028 0.13952 0.0
H1104 H 0.61294 0.82055 0.20325 0.0
H1105 H 0.66558 0.81455 0.22418 0.0
H1106 H 0.67132 0.84071 0.42559 0.0
H1107 H 0.66022 0.82855 0.36363 0.0
H1108 H 0.63543 0.86307 0.28859 0.0
C1109 C 0.62146 0.82052 0.17794 0.0
C1110 C 0.65892 0.8251 0.23817 0.0
C1111 C 0.61544 0.81462 0.1416 0.0
C1112 C 0.67041 0.84878 0.39961 0.0
C1113 C 0.66418 0.84183 0.36433 0.0
C1114 C 0.642 0.8524 0.27483 0.0
C1115 C 0.6384 0.82615 0.18166 0.0
C1116 C 0.64459 0.83255 0.22002 0.0
C1117 C 0.66289 0.85205 0.33031 0.0
C1118 C 0.65629 0.84494 0.29305 0.0
H1119 H 0.65162 0.82041 0.0866 0.0
H1120 H 0.66234 0.83035 0.15091 0.0
H1121 H 0.62501 0.85204 0.22506 0.0
H1122 H 0.67863 0.88931 0.36697 0.0
H1123 H 0.66717 0.87726 0.30573 0.0
C1124 C 0.12925 0.68848 0.36672 0.0
C1125 C 0.13529 0.6835 0.40415 0.0
C1126 C 0.13733 0.68271 0.33245 0.0
C1127 C 0.16203 0.64702 0.29507 0.0
H1128 H 0.17243 0.67729 0.20732 0.0
C1129 C 0.19356 0.62194 0.15291 0.0
C1130 C 0.18723 0.62836 0.11696 0.0
C1131 C 0.1889 0.62951 0.18869 0.0
C1132 C 0.16945 0.66866 0.23143 0.0
H1133 H 0.15457 0.66861 0.43508 0.0
H1134 H 0.16852 0.6583 0.37495 0.0
H1135 H 0.16115 0.68916 0.2689 0.0
H1136 H 0.17101 0.64771 0.09023 0.0
H1137 H 0.16243 0.66057 0.15274 0.0
H1138 H 0.16966 0.62644 0.25746 0.0
C1139 C 0.15759 0.66675 0.37232 0.0
C1140 C 0.16308 0.67547 0.26665 0.0
C1141 C 0.14962 0.67268 0.40664 0.0
C1142 C 0.17617 0.64252 0.11746 0.0
C1143 C 0.17137 0.64999 0.15328 0.0
C1144 C 0.16823 0.64019 0.25976 0.0
C1145 C 0.15145 0.67167 0.33497 0.0
C1146 C 0.15921 0.66468 0.29861 0.0
C1147 C 0.17762 0.64351 0.18931 0.0
C1148 C 0.17188 0.65092 0.22743 0.0
H1149 H 0.11811 0.69658 0.36373 0.0
H1150 H 0.13222 0.68647 0.30393 0.0
H1151 H 0.15891 0.63842 0.31917 0.0
H1152 H 0.20196 0.61095 0.15363 0.0
H1153 H 0.19412 0.62434 0.21589 0.0
C1154 C 0.30626 0.12317 0.34564 0.0
C1155 C 0.31197 0.12973 0.38202 0.0
C1156 C 0.31249 0.12973 0.31011 0.0
C1157 C 0.33515 0.16688 0.26712 0.0
H1158 H 0.34454 0.13506 0.18163 0.0
C1159 C 0.37404 0.18483 0.12844 0.0
C1160 C 0.36717 0.17989 0.09175 0.0
C1161 C 0.36681 0.17899 0.16364 0.0
C1162 C 0.34181 0.14409 0.20513 0.0
H1163 H 0.32882 0.14824 0.40972 0.0
H1164 H 0.3401 0.1594 0.34757 0.0
H1165 H 0.33309 0.1244 0.24402 0.0
H1166 H 0.34752 0.16468 0.06313 0.0
H1167 H 0.335 0.15427 0.1249 0.0
H1168 H 0.3443 0.18649 0.22827 0.0
C1169 C 0.33047 0.14946 0.34652 0.0
C1170 C 0.33522 0.13802 0.24083 0.0
C1171 C 0.32409 0.14299 0.38214 0.0
C1172 C 0.35307 0.16875 0.09095 0.0
C1173 C 0.34594 0.16276 0.12623 0.0
C1174 C 0.34189 0.17292 0.23152 0.0
C1175 C 0.32477 0.14284 0.31011 0.0
C1176 C 0.33179 0.14935 0.27222 0.0
C1177 C 0.35271 0.16791 0.16285 0.0
C1178 C 0.34527 0.16157 0.20024 0.0
H1179 H 0.29708 0.11284 0.34442 0.0
H1180 H 0.30764 0.12451 0.28261 0.0
H1181 H 0.3324 0.17597 0.29046 0.0
H1182 H 0.3851 0.19312 0.13012 0.0
H1183 H 0.37244 0.18292 0.19151 0.0
loop_
_geom_bond_atom_site_label_1
_geom_bond_atom_site_label_2
_geom_bond_distance
_geom_bond_site_symmetry_2
_ccdc_geom_bond_type
Mg0 O1 2.028 . S
Mg0 O7 1.986 . S
Mg0 O9 2.114 1_554 S
Mg0 O10 2.251 1_554 S
Mg0 O13 2.010 . S
O1 Mg0 2.028 . S
O1 C4 1.250 1_554 S
O2 Mg3 2.028 . S
O2 C4 1.248 . S
Mg3 O2 2.028 . S
Mg3 O8 2.032 . S
Mg3 O10 2.079 . S
C4 O1 1.250 1_556 S
C4 O2 1.248 . S
C5 O6 1.264 . S
C5 O13 1.249 . S
O6 C5 1.264 . S
O7 Mg0 1.986 . S
O7 C11 1.246 1_554 S
O8 Mg3 2.032 . S
O8 C11 1.259 . S
O9 Mg0 2.114 1_556 S
O9 C12 1.252 . S
O10 Mg0 2.251 1_556 S
O10 Mg3 2.079 . S
O10 C12 1.273 . S
C11 O7 1.246 1_556 S
C11 O8 1.259 . S
C12 O9 1.252 . S
C12 O10 1.273 . S
O13 Mg0 2.010 . S
O13 C5 1.249 . S
Mg14 O15 2.028 . S
Mg14 O21 1.986 . S
Mg14 O23 2.114 1_554 S
Mg14 O24 2.251 1_554 S
Mg14 O27 2.010 . S
O15 Mg14 2.028 . S
O15 C18 1.250 1_554 S
O16 Mg17 2.028 . S
O16 C18 1.248 . S
Mg17 O16 2.028 . S
Mg17 O22 2.032 . S
Mg17 O24 2.079 . S
C18 O15 1.250 1_556 S
C18 O16 1.248 . S
C19 O20 1.264 . S
C19 O27 1.249 . S
O20 C19 1.264 . S
O21 Mg14 1.986 . S
O21 C25 1.246 1_554 S
O22 Mg17 2.032 . S
O22 C25 1.259 . S
O23 Mg14 2.114 1_556 S
O23 C26 1.252 . S
O24 Mg14 2.251 1_556 S
O24 Mg17 2.079 . S
O24 C26 1.273 . S
C25 O21 1.246 1_556 S
C25 O22 1.259 . S
C26 O23 1.252 . S
C26 O24 1.273 . S
O27 Mg14 2.010 . S
O27 C19 1.249 . S
Mg28 O29 2.028 . S
Mg28 O35 1.986 . S
Mg28 O37 2.114 1_554 S
Mg28 O38 2.251 1_554 S
Mg28 O41 2.010 . S
O29 Mg28 2.028 . S
O29 C32 1.250 1_554 S
O30 Mg31 2.028 . S
O30 C32 1.248 . S
Mg31 O30 2.028 . S
Mg31 O36 2.032 . S
Mg31 O38 2.079 . S
C32 O29 1.250 1_556 S
C32 O30 1.248 . S
C33 O34 1.264 . S
C33 O41 1.249 . S
O34 C33 1.264 . S
O35 Mg28 1.986 . S
O35 C39 1.246 1_554 S
O36 Mg31 2.032 . S
O36 C39 1.259 . S
O37 Mg28 2.114 1_556 S
O37 C40 1.252 . S
O38 Mg28 2.251 1_556 S
O38 Mg31 2.079 . S
O38 C40 1.273 . S
C39 O35 1.246 1_556 S
C39 O36 1.259 . S
C40 O37 1.252 . S
C40 O38 1.273 . S
O41 Mg28 2.010 . S
O41 C33 1.249 . S
Mg42 O43 2.028 . S
Mg42 O49 1.986 . S
Mg42 O51 2.114 1_554 S
Mg42 O52 2.251 1_554 S
Mg42 O55 2.010 . S
O43 Mg42 2.028 . S
O43 C46 1.250 1_554 S
O44 Mg45 2.028 . S
O44 C46 1.248 . S
Mg45 O44 2.028 . S
Mg45 O50 2.032 . S
Mg45 O52 2.079 . S
C46 O43 1.250 1_556 S
C46 O44 1.248 . S
C47 O48 1.264 . S
C47 O55 1.249 . S
O48 C47 1.264 . S
O49 Mg42 1.986 . S
O49 C53 1.246 1_554 S
O50 Mg45 2.032 . S
O50 C53 1.259 . S
O51 Mg42 2.114 1_556 S
O51 C54 1.252 . S
O52 Mg42 2.251 1_556 S
O52 Mg45 2.079 . S
O52 C54 1.273 . S
C53 O49 1.246 1_556 S
C53 O50 1.259 . S
C54 O51 1.252 . S
C54 O52 1.273 . S
O55 Mg42 2.010 . S
O55 C47 1.249 . S
Mg56 O57 2.028 1_554 S
Mg56 O63 1.986 1_554 S
Mg56 O65 2.114 . S
Mg56 O66 2.251 . S
Mg56 O69 2.010 1_554 S
O57 Mg56 2.028 1_556 S
O57 C60 1.250 1_556 S
O58 Mg59 2.028 . S
O58 C60 1.248 . S
Mg59 O58 2.028 . S
Mg59 O64 2.032 . S
Mg59 O66 2.079 . S
C60 O57 1.250 1_554 S
C60 O58 1.248 . S
C61 O62 1.264 . S
C61 O69 1.249 . S
O62 C61 1.264 . S
O63 Mg56 1.986 1_556 S
O63 C67 1.246 1_556 S
O64 Mg59 2.032 . S
O64 C67 1.259 . S
O65 Mg56 2.114 . S
O65 C68 1.252 . S
O66 Mg56 2.251 . S
O66 Mg59 2.079 . S
O66 C68 1.273 . S
C67 O63 1.246 1_554 S
C67 O64 1.259 . S
C68 O65 1.252 . S
C68 O66 1.273 . S
O69 Mg56 2.010 1_556 S
O69 C61 1.249 . S
Mg70 O71 2.028 1_554 S
Mg70 O77 1.986 1_554 S
Mg70 O79 2.114 . S
Mg70 O80 2.251 . S
Mg70 O83 2.010 1_554 S
O71 Mg70 2.028 1_556 S
O71 C74 1.250 1_556 S
O72 Mg73 2.028 . S
O72 C74 1.248 . S
Mg73 O72 2.028 . S
Mg73 O78 2.032 . S
Mg73 O80 2.079 . S
C74 O71 1.250 1_554 S
C74 O72 1.248 . S
C75 O76 1.264 . S
C75 O83 1.249 . S
O76 C75 1.264 . S
O77 Mg70 1.986 1_556 S
O77 C81 1.246 1_556 S
O78 Mg73 2.032 . S
O78 C81 1.259 . S
O79 Mg70 2.114 . S
O79 C82 1.252 . S
O80 Mg70 2.251 . S
O80 Mg73 2.079 . S
O80 C82 1.273 . S
C81 O77 1.246 1_554 S
C81 O78 1.259 . S
C82 O79 1.252 . S
C82 O80 1.273 . S
O83 Mg70 2.010 1_556 S
O83 C75 1.249 . S
Mg84 O85 2.028 1_554 S
Mg84 O91 1.986 1_554 S
Mg84 O93 2.114 . S
Mg84 O94 2.251 . S
Mg84 O97 2.010 1_554 S
O85 Mg84 2.028 1_556 S
O85 C88 1.250 1_556 S
O86 Mg87 2.028 . S
O86 C88 1.248 . S
Mg87 O86 2.028 . S
Mg87 O92 2.032 . S
Mg87 O94 2.079 . S
C88 O85 1.250 1_554 S
C88 O86 1.248 . S
C89 O90 1.264 . S
C89 O97 1.249 . S
O90 C89 1.264 . S
O91 Mg84 1.986 1_556 S
O91 C95 1.246 1_556 S
O92 Mg87 2.032 . S
O92 C95 1.259 . S
O93 Mg84 2.114 . S
O93 C96 1.252 . S
O94 Mg84 2.251 . S
O94 Mg87 2.079 . S
O94 C96 1.273 . S
C95 O91 1.246 1_554 S
C95 O92 1.259 . S
C96 O93 1.252 . S
C96 O94 1.273 . S
O97 Mg84 2.010 1_556 S
O97 C89 1.249 . S
Mg98 O99 2.028 1_554 S
Mg98 O105 1.986 1_554 S
Mg98 O107 2.114 . S
Mg98 O108 2.251 . S
Mg98 O111 2.010 1_554 S
O99 Mg98 2.028 1_556 S
O99 C102 1.250 1_556 S
O100 Mg101 2.028 . S
O100 C102 1.248 . S
Mg101 O100 2.028 . S
Mg101 O106 2.032 . S
Mg101 O108 2.079 . S
C102 O99 1.250 1_554 S
C102 O100 1.248 . S
C103 O104 1.264 . S
C103 O111 1.249 . S
O104 C103 1.264 . S
O105 Mg98 1.986 1_556 S
O105 C109 1.246 1_556 S
O106 Mg101 2.032 . S
O106 C109 1.259 . S
O107 Mg98 2.114 . S
O107 C110 1.252 . S
O108 Mg98 2.251 . S
O108 Mg101 2.079 . S
O108 C110 1.273 . S
C109 O105 1.246 1_554 S
C109 O106 1.259 . S
C110 O107 1.252 . S
C110 O108 1.273 . S
O111 Mg98 2.010 1_556 S
O111 C103 1.249 . S
Mg112 O113 2.028 . S
Mg112 O119 1.986 . S
Mg112 O121 2.114 . S
Mg112 O122 2.251 . S
Mg112 O125 2.010 . S
O113 Mg112 2.028 . S
O113 C116 1.250 . S
O114 Mg115 2.028 . S
O114 C116 1.248 . S
Mg115 O114 2.028 . S
Mg115 O120 2.032 . S
Mg115 O122 2.079 . S
C116 O113 1.250 . S
C116 O114 1.248 . S
C117 O118 1.264 . S
C117 O125 1.249 . S
O118 C117 1.264 . S
O119 Mg112 1.986 . S
O119 C123 1.246 . S
O120 Mg115 2.032 . S
O120 C123 1.259 . S
O121 Mg112 2.114 . S
O121 C124 1.252 . S
O122 Mg112 2.251 . S
O122 Mg115 2.079 . S
O122 C124 1.273 . S
C123 O119 1.246 . S
C123 O120 1.259 . S
C124 O121 1.252 . S
C124 O122 1.273 . S
O125 Mg112 2.010 . S
O125 C117 1.249 . S
Mg126 O127 2.028 . S
Mg126 O133 1.986 . S
Mg126 O135 2.114 . S
Mg126 O136 2.251 . S
Mg126 O139 2.010 . S
O127 Mg126 2.028 . S
O127 C130 1.250 . S
O128 Mg129 2.028 . S
O128 C130 1.248 . S
Mg129 O128 2.028 . S
Mg129 O134 2.032 . S
Mg129 O136 2.079 . S
C130 O127 1.250 . S
C130 O128 1.248 . S
C131 O132 1.264 . S
C131 O139 1.249 . S
O132 C131 1.264 . S
O133 Mg126 1.986 . S
O133 C137 1.246 . S
O134 Mg129 2.032 . S
O134 C137 1.259 . S
O135 Mg126 2.114 . S
O135 C138 1.252 . S
O136 Mg126 2.251 . S
O136 Mg129 2.079 . S
O136 C138 1.273 . S
C137 O133 1.246 . S
C137 O134 1.259 . S
C138 O135 1.252 . S
C138 O136 1.273 . S
O139 Mg126 2.010 . S
O139 C131 1.249 . S
Mg140 O141 2.028 . S
Mg140 O147 1.986 . S
Mg140 O149 2.114 . S
Mg140 O150 2.251 . S
Mg140 O153 2.010 . S
O141 Mg140 2.028 . S
O141 C144 1.250 . S
O142 Mg143 2.028 . S
O142 C144 1.248 . S
Mg143 O142 2.028 . S
Mg143 O148 2.032 . S
Mg143 O150 2.079 . S
C144 O141 1.250 . S
C144 O142 1.248 . S
C145 O146 1.264 . S
C145 O153 1.249 . S
O146 C145 1.264 . S
O147 Mg140 1.986 . S
O147 C151 1.246 . S
O148 Mg143 2.032 . S
O148 C151 1.259 . S
O149 Mg140 2.114 . S
O149 C152 1.252 . S
O150 Mg140 2.251 . S
O150 Mg143 2.079 . S
O150 C152 1.273 . S
C151 O147 1.246 . S
C151 O148 1.259 . S
C152 O149 1.252 . S
C152 O150 1.273 . S
O153 Mg140 2.010 . S
O153 C145 1.249 . S
Mg154 O155 2.028 . S
Mg154 O161 1.986 . S
Mg154 O163 2.114 . S
Mg154 O164 2.251 . S
Mg154 O167 2.010 . S
O155 Mg154 2.028 . S
O155 C158 1.250 . S
O156 Mg157 2.028 . S
O156 C158 1.248 . S
Mg157 O156 2.028 . S
Mg157 O162 2.032 . S
Mg157 O164 2.079 . S
C158 O155 1.250 . S
C158 O156 1.248 . S
C159 O160 1.264 . S
C159 O167 1.249 . S
O160 C159 1.264 . S
O161 Mg154 1.986 . S
O161 C165 1.246 . S
O162 Mg157 2.032 . S
O162 C165 1.259 . S
O163 Mg154 2.114 . S
O163 C166 1.252 . S
O164 Mg154 2.251 . S
O164 Mg157 2.079 . S
O164 C166 1.273 . S
C165 O161 1.246 . S
C165 O162 1.259 . S
C166 O163 1.252 . S
C166 O164 1.273 . S
O167 Mg154 2.010 . S
O167 C159 1.249 . S
Mg168 O169 2.028 . S
Mg168 O175 1.986 . S
Mg168 O177 2.114 . S
Mg168 O178 2.251 . S
Mg168 O181 2.010 . S
O169 Mg168 2.028 . S
O169 C172 1.250 . S
O170 Mg171 2.028 . S
O170 C172 1.248 . S
Mg171 O170 2.028 . S
Mg171 O176 2.032 . S
Mg171 O178 2.079 . S
C172 O169 1.250 . S
C172 O170 1.248 . S
C173 O174 1.264 . S
C173 O181 1.249 . S
O174 C173 1.264 . S
O175 Mg168 1.986 . S
O175 C179 1.246 . S
O176 Mg171 2.032 . S
O176 C179 1.259 . S
O177 Mg168 2.114 . S
O177 C180 1.252 . S
O178 Mg168 2.251 . S
O178 Mg171 2.079 . S
O178 C180 1.273 . S
C179 O175 1.246 . S
C179 O176 1.259 . S
C180 O177 1.252 . S
C180 O178 1.273 . S
O181 Mg168 2.010 . S
O181 C173 1.249 . S
Mg182 O183 2.028 . S
Mg182 O189 1.986 . S
Mg182 O191 2.114 . S
Mg182 O192 2.251 . S
Mg182 O195 2.010 . S
O183 Mg182 2.028 . S
O183 C186 1.250 . S
O184 Mg185 2.028 . S
O184 C186 1.248 . S
Mg185 O184 2.028 . S
Mg185 O190 2.032 . S
Mg185 O192 2.079 . S
C186 O183 1.250 . S
C186 O184 1.248 . S
C187 O188 1.264 . S
C187 O195 1.249 . S
O188 C187 1.264 . S
O189 Mg182 1.986 . S
O189 C193 1.246 . S
O190 Mg185 2.032 . S
O190 C193 1.259 . S
O191 Mg182 2.114 . S
O191 C194 1.252 . S
O192 Mg182 2.251 . S
O192 Mg185 2.079 . S
O192 C194 1.273 . S
C193 O189 1.246 . S
C193 O190 1.259 . S
C194 O191 1.252 . S
C194 O192 1.273 . S
O195 Mg182 2.010 . S
O195 C187 1.249 . S
Mg196 O197 2.028 . S
Mg196 O203 1.986 . S
Mg196 O205 2.114 . S
Mg196 O206 2.251 . S
Mg196 O209 2.010 . S
O197 Mg196 2.028 . S
O197 C200 1.250 . S
O198 Mg199 2.028 . S
O198 C200 1.248 . S
Mg199 O198 2.028 . S
Mg199 O204 2.032 . S
Mg199 O206 2.079 . S
C200 O197 1.250 . S
C200 O198 1.248 . S
C201 O202 1.264 . S
C201 O209 1.249 . S
O202 C201 1.264 . S
O203 Mg196 1.986 . S
O203 C207 1.246 . S
O204 Mg199 2.032 . S
O204 C207 1.259 . S
O205 Mg196 2.114 . S
O205 C208 1.252 . S
O206 Mg196 2.251 . S
O206 Mg199 2.079 . S
O206 C208 1.273 . S
C207 O203 1.246 . S
C207 O204 1.259 . S
C208 O205 1.252 . S
C208 O206 1.273 . S
O209 Mg196 2.010 . S
O209 C201 1.249 . S
Mg210 O211 2.028 . S
Mg210 O217 1.986 . S
Mg210 O219 2.114 . S
Mg210 O220 2.251 . S
Mg210 O223 2.010 . S
O211 Mg210 2.028 . S
O211 C214 1.250 . S
O212 Mg213 2.028 . S
O212 C214 1.248 . S
Mg213 O212 2.028 . S
Mg213 O218 2.032 . S
Mg213 O220 2.079 . S
C214 O211 1.250 . S
C214 O212 1.248 . S
C215 O216 1.264 . S
C215 O223 1.249 . S
O216 C215 1.264 . S
O217 Mg210 1.986 . S
O217 C221 1.246 . S
O218 Mg213 2.032 . S
O218 C221 1.259 . S
O219 Mg210 2.114 . S
O219 C222 1.252 . S
O220 Mg210 2.251 . S
O220 Mg213 2.079 . S
O220 C222 1.273 . S
C221 O217 1.246 . S
C221 O218 1.259 . S
C222 O219 1.252 . S
C222 O220 1.273 . S
O223 Mg210 2.010 . S
O223 C215 1.249 . S
C224 C225 1.349 . S
C224 C226 1.327 . S
C224 H249 0.950 . S
C225 C224 1.349 . S
C225 C241 1.349 1_554 S
C226 C224 1.327 . S
C226 C245 1.429 . S
C226 H250 0.950 . S
C227 C244 1.574 . S
C227 C246 1.368 1_556 S
C227 H251 0.949 . S
H228 C232 0.949 . S
C229 C230 1.349 . S
C229 C231 1.327 . S
C229 H252 0.950 . S
C230 C229 1.349 . S
C230 C242 1.349 1_556 S
C231 C229 1.327 . S
C231 C247 1.429 1_556 S
C231 H253 0.950 . S
C232 H228 0.949 . S
C232 C240 1.574 . S
C232 C248 1.368 . S
H233 C241 0.950 . S
H234 C239 0.950 . S
H235 C240 0.949 . S
H236 C242 0.950 . S
H237 C243 0.950 . S
H238 C244 0.949 . S
C239 H234 0.950 . S
C239 C241 1.327 . S
C239 C245 1.429 1_556 S
C240 C232 1.574 . S
C240 H235 0.949 . S
C240 C246 1.368 . S
C241 C225 1.349 1_556 S
C241 H233 0.950 . S
C241 C239 1.327 . S
C242 C230 1.349 1_554 S
C242 H236 0.950 . S
C242 C243 1.327 . S
C243 H237 0.950 . S
C243 C242 1.327 . S
C243 C247 1.428 . S
C244 C227 1.574 . S
C244 H238 0.949 . S
C244 C248 1.368 1_556 S
C245 C226 1.429 . S
C245 C239 1.429 1_554 S
C245 C246 1.523 . S
C246 C227 1.368 1_554 S
C246 C240 1.368 . S
C246 C245 1.523 . S
C247 C231 1.429 1_554 S
C247 C243 1.428 . S
C247 C248 1.523 . S
C248 C232 1.368 . S
C248 C244 1.368 1_554 S
C248 C247 1.523 . S
H249 C224 0.950 . S
H250 C226 0.950 . S
H251 C227 0.949 . S
H252 C229 0.950 . S
H253 C231 0.950 . S
C254 C255 1.349 1_556 S
C254 C256 1.327 . S
C254 H279 0.950 . S
C255 C254 1.349 1_554 S
C255 C271 1.349 . S
C256 C254 1.327 . S
C256 C275 1.429 1_556 S
C256 H280 0.950 . S
C257 C274 1.574 . S
C257 C276 1.368 . S
C257 H281 0.949 . S
H258 C262 0.949 . S
C259 C260 1.349 1_554 S
C259 C261 1.327 . S
C259 H282 0.950 . S
C260 C259 1.349 1_556 S
C260 C272 1.349 . S
C261 C259 1.327 . S
C261 C277 1.428 . S
C261 H283 0.950 . S
C262 H258 0.949 . S
C262 C270 1.574 . S
C262 C278 1.368 1_556 S
H263 C271 0.950 . S
H264 C269 0.950 . S
H265 C270 0.949 . S
H266 C272 0.950 . S
H267 C273 0.950 . S
H268 C274 0.949 . S
C269 H264 0.950 . S
C269 C271 1.327 . S
C269 C275 1.429 . S
C270 C262 1.574 . S
C270 H265 0.949 . S
C270 C276 1.368 1_556 S
C271 C255 1.349 . S
C271 H263 0.950 . S
C271 C269 1.327 . S
C272 C260 1.349 . S
C272 H266 0.950 . S
C272 C273 1.327 . S
C273 H267 0.950 . S
C273 C272 1.327 . S
C273 C277 1.429 1_556 S
C274 C257 1.574 . S
C274 H268 0.949 . S
C274 C278 1.368 . S
C275 C256 1.429 1_554 S
C275 C269 1.429 . S
C275 C276 1.523 . S
C276 C257 1.368 . S
C276 C270 1.368 1_554 S
C276 C275 1.523 . S
C277 C261 1.428 . S
C277 C273 1.429 1_554 S
C277 C278 1.523 . S
C278 C262 1.368 1_554 S
C278 C274 1.368 . S
C278 C277 1.523 . S
H279 C254 0.950 . S
H280 C256 0.950 . S
H281 C257 0.949 . S
H282 C259 0.950 . S
H283 C261 0.950 . S
C284 C285 1.349 1_556 S
C284 C286 1.327 . S
C284 H309 0.950 . S
C285 C284 1.349 1_554 S
C285 C301 1.349 . S
C286 C284 1.327 . S
C286 C305 1.429 1_556 S
C286 H310 0.950 . S
C287 C304 1.574 . S
C287 C306 1.368 . S
C287 H311 0.949 . S
H288 C292 0.949 . S
C289 C290 1.349 1_554 S
C289 C291 1.327 . S
C289 H312 0.950 . S
C290 C289 1.349 1_556 S
C290 C302 1.349 . S
C291 C289 1.327 . S
C291 C307 1.428 . S
C291 H313 0.950 . S
C292 H288 0.949 . S
C292 C300 1.574 . S
C292 C308 1.368 1_556 S
H293 C301 0.950 . S
H294 C299 0.950 . S
H295 C300 0.949 . S
H296 C302 0.950 . S
H297 C303 0.950 . S
H298 C304 0.949 . S
C299 H294 0.950 . S
C299 C301 1.327 . S
C299 C305 1.429 . S
C300 C292 1.574 . S
C300 H295 0.949 . S
C300 C306 1.368 1_556 S
C301 C285 1.349 . S
C301 H293 0.950 . S
C301 C299 1.327 . S
C302 C290 1.349 . S
C302 H296 0.950 . S
C302 C303 1.327 . S
C303 H297 0.950 . S
C303 C302 1.327 . S
C303 C307 1.429 1_556 S
C304 C287 1.574 . S
C304 H298 0.949 . S
C304 C308 1.368 . S
C305 C286 1.429 1_554 S
C305 C299 1.429 . S
C305 C306 1.523 . S
C306 C287 1.368 . S
C306 C300 1.368 1_554 S
C306 C305 1.523 . S
C307 C291 1.428 . S
C307 C303 1.429 1_554 S
C307 C308 1.523 . S
C308 C292 1.368 1_554 S
C308 C304 1.368 . S
C308 C307 1.523 . S
H309 C284 0.950 . S
H310 C286 0.950 . S
H311 C287 0.949 . S
H312 C289 0.950 . S
H313 C291 0.950 . S
C314 C315 1.349 . S
C314 C316 1.327 . S
C314 H339 0.950 . S
C315 C314 1.349 . S
C315 C331 1.349 1_554 S
C316 C314 1.327 . S
C316 C335 1.429 . S
C316 H340 0.950 . S
C317 C334 1.574 . S
C317 C336 1.368 1_556 S
C317 H341 0.949 . S
H318 C322 0.949 . S
C319 C320 1.349 . S
C319 C321 1.327 . S
C319 H342 0.950 . S
C320 C319 1.349 . S
C320 C332 1.349 1_556 S
C321 C319 1.327 . S
C321 C337 1.429 1_556 S
C321 H343 0.950 . S
C322 H318 0.949 . S
C322 C330 1.574 . S
C322 C338 1.368 . S
H323 C331 0.950 . S
H324 C329 0.950 . S
H325 C330 0.949 . S
H326 C332 0.950 . S
H327 C333 0.950 . S
H328 C334 0.949 . S
C329 H324 0.950 . S
C329 C331 1.327 . S
C329 C335 1.429 1_556 S
C330 C322 1.574 . S
C330 H325 0.949 . S
C330 C336 1.368 . S
C331 C315 1.349 1_556 S
C331 H323 0.950 . S
C331 C329 1.327 . S
C332 C320 1.349 1_554 S
C332 H326 0.950 . S
C332 C333 1.327 . S
C333 H327 0.950 . S
C333 C332 1.327 . S
C333 C337 1.428 . S
C334 C317 1.574 . S
C334 H328 0.949 . S
C334 C338 1.368 1_556 S
C335 C316 1.429 . S
C335 C329 1.429 1_554 S
C335 C336 1.523 . S
C336 C317 1.368 1_554 S
C336 C330 1.368 . S
C336 C335 1.523 . S
C337 C321 1.429 1_554 S
C337 C333 1.428 . S
C337 C338 1.523 . S
C338 C322 1.368 . S
C338 C334 1.368 1_554 S
C338 C337 1.523 . S
H339 C314 0.950 . S
H340 C316 0.950 . S
H341 C317 0.949 . S
H342 C319 0.950 . S
H343 C321 0.950 . S
C344 C345 1.349 . S
C344 C346 1.327 . S
C344 H369 0.950 . S
C345 C344 1.349 . S
C345 C361 1.349 . S
C346 C344 1.327 . S
C346 C365 1.429 . S
C346 H370 0.950 . S
C347 C364 1.574 1_545 S
C347 C366 1.368 . S
C347 H371 0.949 . S
H348 C352 0.949 . S
C349 C350 1.349 . S
C349 C351 1.327 . S
C349 H372 0.950 . S
C350 C349 1.349 . S
C350 C362 1.349 . S
C351 C349 1.327 . S
C351 C367 1.429 . S
C351 H373 0.950 . S
C352 H348 0.949 . S
C352 C360 1.574 1_565 S
C352 C368 1.368 . S
H353 C361 0.950 . S
H354 C359 0.950 . S
H355 C360 0.949 . S
H356 C362 0.950 . S
H357 C363 0.950 . S
H358 C364 0.949 . S
C359 H354 0.950 . S
C359 C361 1.327 . S
C359 C365 1.429 . S
C360 C352 1.574 1_545 S
C360 H355 0.949 . S
C360 C366 1.368 . S
C361 C345 1.349 . S
C361 H353 0.950 . S
C361 C359 1.327 . S
C362 C350 1.349 . S
C362 H356 0.950 . S
C362 C363 1.327 . S
C363 H357 0.950 . S
C363 C362 1.327 . S
C363 C367 1.429 . S
C364 C347 1.574 1_565 S
C364 H358 0.949 . S
C364 C368 1.368 . S
C365 C346 1.429 . S
C365 C359 1.429 . S
C365 C366 1.523 . S
C366 C347 1.368 . S
C366 C360 1.368 . S
C366 C365 1.523 . S
C367 C351 1.429 . S
C367 C363 1.429 . S
C367 C368 1.523 . S
C368 C352 1.368 . S
C368 C364 1.368 . S
C368 C367 1.523 . S
H369 C344 0.950 . S
H370 C346 0.950 . S
H371 C347 0.949 . S
H372 C349 0.950 . S
H373 C351 0.950 . S
C374 C375 1.349 . S
C374 C376 1.327 . S
C374 H399 0.950 . S
C375 C374 1.349 . S
C375 C391 1.349 . S
C376 C374 1.327 . S
C376 C395 1.429 . S
C376 H400 0.950 . S
C377 C394 1.574 1_655 S
C377 C396 1.368 . S
C377 H401 0.949 . S
H378 C382 0.949 . S
C379 C380 1.349 . S
C379 C381 1.327 . S
C379 H402 0.950 . S
C380 C379 1.349 . S
C380 C392 1.349 . S
C381 C379 1.327 . S
C381 C397 1.429 . S
C381 H403 0.950 . S
C382 H378 0.949 . S
C382 C390 1.574 1_455 S
C382 C398 1.368 . S
H383 C391 0.950 . S
H384 C389 0.950 . S
H385 C390 0.949 . S
H386 C392 0.950 . S
H387 C393 0.950 . S
H388 C394 0.949 . S
C389 H384 0.950 . S
C389 C391 1.327 . S
C389 C395 1.429 . S
C390 C382 1.574 1_655 S
C390 H385 0.949 . S
C390 C396 1.368 . S
C391 C375 1.349 . S
C391 H383 0.950 . S
C391 C389 1.327 . S
C392 C380 1.349 . S
C392 H386 0.950 . S
C392 C393 1.327 . S
C393 H387 0.950 . S
C393 C392 1.327 . S
C393 C397 1.429 . S
C394 C377 1.574 1_455 S
C394 H388 0.949 . S
C394 C398 1.368 . S
C395 C376 1.429 . S
C395 C389 1.429 . S
C395 C396 1.523 . S
C396 C377 1.368 . S
C396 C390 1.368 . S
C396 C395 1.523 . S
C397 C381 1.429 . S
C397 C393 1.429 . S
C397 C398 1.523 . S
C398 C382 1.368 . S
C398 C394 1.368 . S
C398 C397 1.523 . S
H399 C374 0.950 . S
H400 C376 0.950 . S
H401 C377 0.949 . S
H402 C379 0.950 . S
H403 C381 0.950 . S
C404 C405 1.349 . S
C404 C406 1.327 . S
C404 H429 0.950 . S
C405 C404 1.349 . S
C405 C421 1.349 . S
C406 C404 1.327 . S
C406 C425 1.429 . S
C406 H430 0.950 . S
C407 C424 1.574 1_545 S
C407 C426 1.368 . S
C407 H431 0.949 . S
H408 C412 0.949 . S
C409 C410 1.349 . S
C409 C411 1.327 . S
C409 H432 0.950 . S
C410 C409 1.349 . S
C410 C422 1.349 . S
C411 C409 1.327 . S
C411 C427 1.429 . S
C411 H433 0.950 . S
C412 H408 0.949 . S
C412 C420 1.574 1_565 S
C412 C428 1.368 . S
H413 C421 0.950 . S
H414 C419 0.950 . S
H415 C420 0.949 . S
H416 C422 0.950 . S
H417 C423 0.950 . S
H418 C424 0.949 . S
C419 H414 0.950 . S
C419 C421 1.327 . S
C419 C425 1.429 . S
C420 C412 1.574 1_545 S
C420 H415 0.949 . S
C420 C426 1.368 . S
C421 C405 1.349 . S
C421 H413 0.950 . S
C421 C419 1.327 . S
C422 C410 1.349 . S
C422 H416 0.950 . S
C422 C423 1.327 . S
C423 H417 0.950 . S
C423 C422 1.327 . S
C423 C427 1.429 . S
C424 C407 1.574 1_565 S
C424 H418 0.949 . S
C424 C428 1.368 . S
C425 C406 1.429 . S
C425 C419 1.429 . S
C425 C426 1.523 . S
C426 C407 1.368 . S
C426 C420 1.368 . S
C426 C425 1.523 . S
C427 C411 1.429 . S
C427 C423 1.429 . S
C427 C428 1.523 . S
C428 C412 1.368 . S
C428 C424 1.368 . S
C428 C427 1.523 . S
H429 C404 0.950 . S
H430 C406 0.950 . S
H431 C407 0.949 . S
H432 C409 0.950 . S
H433 C411 0.950 . S
C434 C435 1.349 . S
C434 C436 1.327 . S
C434 H459 0.950 . S
C435 C434 1.349 . S
C435 C451 1.349 . S
C436 C434 1.327 . S
C436 C455 1.429 . S
C436 H460 0.950 . S
C437 C454 1.574 1_455 S
C437 C456 1.368 . S
C437 H461 0.949 . S
H438 C442 0.949 . S
C439 C440 1.349 . S
C439 C441 1.327 . S
C439 H462 0.950 . S
C440 C439 1.349 . S
C440 C452 1.349 . S
C441 C439 1.327 . S
C441 C457 1.429 . S
C441 H463 0.950 . S
C442 H438 0.949 . S
C442 C450 1.574 1_655 S
C442 C458 1.368 . S
H443 C451 0.950 . S
H444 C449 0.950 . S
H445 C450 0.949 . S
H446 C452 0.950 . S
H447 C453 0.950 . S
H448 C454 0.949 . S
C449 H444 0.950 . S
C449 C451 1.327 . S
C449 C455 1.429 . S
C450 C442 1.574 1_455 S
C450 H445 0.949 . S
C450 C456 1.368 . S
C451 C435 1.349 . S
C451 H443 0.950 . S
C451 C449 1.327 . S
C452 C440 1.349 . S
C452 H446 0.950 . S
C452 C453 1.327 . S
C453 H447 0.950 . S
C453 C452 1.327 . S
C453 C457 1.429 . S
C454 C437 1.574 1_655 S
C454 H448 0.949 . S
C454 C458 1.368 . S
C455 C436 1.429 . S
C455 C449 1.429 . S
C455 C456 1.523 . S
C456 C437 1.368 . S
C456 C450 1.368 . S
C456 C455 1.523 . S
C457 C441 1.429 . S
C457 C453 1.429 . S
C457 C458 1.523 . S
C458 C442 1.368 . S
C458 C454 1.368 . S
C458 C457 1.523 . S
H459 C434 0.950 . S
H460 C436 0.950 . S
H461 C437 0.949 . S
H462 C439 0.950 . S
H463 C441 0.950 . S
C464 C465 1.349 . S
C464 C466 1.327 . S
C464 H489 0.950 . S
C465 C464 1.349 . S
C465 C481 1.349 1_554 S
C466 C464 1.327 . S
C466 C485 1.429 . S
C466 H490 0.950 . S
C467 C484 1.574 . S
C467 C486 1.368 1_556 S
C467 H491 0.949 . S
H468 C472 0.949 . S
C469 C470 1.349 1_556 S
C469 C471 1.327 . S
C469 H492 0.950 . S
C470 C469 1.349 1_554 S
C470 C482 1.349 . S
C471 C469 1.327 . S
C471 C487 1.429 1_556 S
C471 H493 0.950 . S
C472 H468 0.949 . S
C472 C480 1.574 . S
C472 C488 1.368 . S
H473 C481 0.950 . S
H474 C479 0.950 . S
H475 C480 0.949 . S
H476 C482 0.950 . S
H477 C483 0.950 . S
H478 C484 0.949 . S
C479 H474 0.950 . S
C479 C481 1.327 . S
C479 C485 1.429 1_556 S
C480 C472 1.574 . S
C480 H475 0.949 . S
C480 C486 1.368 . S
C481 C465 1.349 1_556 S
C481 H473 0.950 . S
C481 C479 1.327 . S
C482 C470 1.349 . S
C482 H476 0.950 . S
C482 C483 1.327 . S
C483 H477 0.950 . S
C483 C482 1.327 . S
C483 C487 1.429 . S
C484 C467 1.574 . S
C484 H478 0.949 . S
C484 C488 1.368 1_556 S
C485 C466 1.429 . S
C485 C479 1.429 1_554 S
C485 C486 1.523 . S
C486 C467 1.368 1_554 S
C486 C480 1.368 . S
C486 C485 1.523 . S
C487 C471 1.429 1_554 S
C487 C483 1.429 . S
C487 C488 1.523 . S
C488 C472 1.368 . S
C488 C484 1.368 1_554 S
C488 C487 1.523 . S
H489 C464 0.950 . S
H490 C466 0.950 . S
H491 C467 0.949 . S
H492 C469 0.950 . S
H493 C471 0.950 . S
C494 C495 1.349 1_556 S
C494 C496 1.327 . S
C494 H519 0.950 . S
C495 C494 1.349 1_554 S
C495 C511 1.349 . S
C496 C494 1.327 . S
C496 C515 1.429 1_556 S
C496 H520 0.950 . S
C497 C514 1.574 . S
C497 C516 1.368 . S
C497 H521 0.949 . S
H498 C502 0.949 . S
C499 C500 1.349 . S
C499 C501 1.327 . S
C499 H522 0.950 . S
C500 C499 1.349 . S
C500 C512 1.349 1_554 S
C501 C499 1.327 . S
C501 C517 1.429 . S
C501 H523 0.950 . S
C502 H498 0.949 . S
C502 C510 1.574 . S
C502 C518 1.368 1_556 S
H503 C511 0.950 . S
H504 C509 0.950 . S
H505 C510 0.949 . S
H506 C512 0.950 . S
H507 C513 0.950 . S
H508 C514 0.949 . S
C509 H504 0.950 . S
C509 C511 1.327 . S
C509 C515 1.429 . S
C510 C502 1.574 . S
C510 H505 0.949 . S
C510 C516 1.368 1_556 S
C511 C495 1.349 . S
C511 H503 0.950 . S
C511 C509 1.327 . S
C512 C500 1.349 1_556 S
C512 H506 0.950 . S
C512 C513 1.327 . S
C513 H507 0.950 . S
C513 C512 1.327 . S
C513 C517 1.429 1_556 S
C514 C497 1.574 . S
C514 H508 0.949 . S
C514 C518 1.368 . S
C515 C496 1.429 1_554 S
C515 C509 1.429 . S
C515 C516 1.523 . S
C516 C497 1.368 . S
C516 C510 1.368 1_554 S
C516 C515 1.523 . S
C517 C501 1.429 . S
C517 C513 1.429 1_554 S
C517 C518 1.523 . S
C518 C502 1.368 1_554 S
C518 C514 1.368 . S
C518 C517 1.523 . S
H519 C494 0.950 . S
H520 C496 0.950 . S
H521 C497 0.949 . S
H522 C499 0.950 . S
H523 C501 0.950 . S
C524 C525 1.349 1_556 S
C524 C526 1.327 . S
C524 H549 0.950 . S
C525 C524 1.349 1_554 S
C525 C541 1.349 . S
C526 C524 1.327 . S
C526 C545 1.429 1_556 S
C526 H550 0.950 . S
C527 C544 1.574 . S
C527 C546 1.368 . S
C527 H551 0.949 . S
H528 C532 0.949 . S
C529 C530 1.349 . S
C529 C531 1.327 . S
C529 H552 0.950 . S
C530 C529 1.349 . S
C530 C542 1.349 1_554 S
C531 C529 1.327 . S
C531 C547 1.429 . S
C531 H553 0.950 . S
C532 H528 0.949 . S
C532 C540 1.574 . S
C532 C548 1.368 1_556 S
H533 C541 0.950 . S
H534 C539 0.950 . S
H535 C540 0.949 . S
H536 C542 0.950 . S
H537 C543 0.950 . S
H538 C544 0.949 . S
C539 H534 0.950 . S
C539 C541 1.327 . S
C539 C545 1.429 . S
C540 C532 1.574 . S
C540 H535 0.949 . S
C540 C546 1.368 1_556 S
C541 C525 1.349 . S
C541 H533 0.950 . S
C541 C539 1.327 . S
C542 C530 1.349 1_556 S
C542 H536 0.950 . S
C542 C543 1.327 . S
C543 H537 0.950 . S
C543 C542 1.327 . S
C543 C547 1.429 1_556 S
C544 C527 1.574 . S
C544 H538 0.949 . S
C544 C548 1.368 . S
C545 C526 1.429 1_554 S
C545 C539 1.429 . S
C545 C546 1.523 . S
C546 C527 1.368 . S
C546 C540 1.368 1_554 S
C546 C545 1.523 . S
C547 C531 1.429 . S
C547 C543 1.429 1_554 S
C547 C548 1.523 . S
C548 C532 1.368 1_554 S
C548 C544 1.368 . S
C548 C547 1.523 . S
H549 C524 0.950 . S
H550 C526 0.950 . S
H551 C527 0.949 . S
H552 C529 0.950 . S
H553 C531 0.950 . S
C554 C555 1.349 1_556 S
C554 C556 1.327 . S
C554 H579 0.950 . S
C555 C554 1.349 1_554 S
C555 C571 1.349 . S
C556 C554 1.327 . S
C556 C575 1.429 1_556 S
C556 H580 0.950 . S
C557 C574 1.574 . S
C557 C576 1.368 . S
C557 H581 0.949 . S
H558 C562 0.949 . S
C559 C560 1.349 . S
C559 C561 1.327 . S
C559 H582 0.950 . S
C560 C559 1.349 . S
C560 C572 1.349 1_554 S
C561 C559 1.327 . S
C561 C577 1.429 . S
C561 H583 0.950 . S
C562 H558 0.949 . S
C562 C570 1.574 . S
C562 C578 1.368 1_556 S
H563 C571 0.950 . S
H564 C569 0.950 . S
H565 C570 0.949 . S
H566 C572 0.950 . S
H567 C573 0.950 . S
H568 C574 0.949 . S
C569 H564 0.950 . S
C569 C571 1.327 . S
C569 C575 1.429 . S
C570 C562 1.574 . S
C570 H565 0.949 . S
C570 C576 1.368 1_556 S
C571 C555 1.349 . S
C571 H563 0.950 . S
C571 C569 1.327 . S
C572 C560 1.349 1_556 S
C572 H566 0.950 . S
C572 C573 1.327 . S
C573 H567 0.950 . S
C573 C572 1.327 . S
C573 C577 1.429 1_556 S
C574 C557 1.574 . S
C574 H568 0.949 . S
C574 C578 1.368 . S
C575 C556 1.429 1_554 S
C575 C569 1.429 . S
C575 C576 1.523 . S
C576 C557 1.368 . S
C576 C570 1.368 1_554 S
C576 C575 1.523 . S
C577 C561 1.429 . S
C577 C573 1.429 1_554 S
C577 C578 1.523 . S
C578 C562 1.368 1_554 S
C578 C574 1.368 . S
C578 C577 1.523 . S
H579 C554 0.950 . S
H580 C556 0.950 . S
H581 C557 0.949 . S
H582 C559 0.950 . S
H583 C561 0.950 . S
C584 C585 1.349 . S
C584 C586 1.327 . S
C584 H609 0.950 . S
C585 C584 1.349 . S
C585 C601 1.349 . S
C586 C584 1.327 . S
C586 C605 1.429 . S
C586 H610 0.950 . S
C587 C604 1.574 . S
C587 C606 1.368 . S
C587 H611 0.949 . S
H588 C592 0.949 . S
C589 C590 1.349 . S
C589 C591 1.327 . S
C589 H612 0.950 . S
C590 C589 1.349 . S
C590 C602 1.349 . S
C591 C589 1.327 . S
C591 C607 1.429 . S
C591 H613 0.950 . S
C592 H588 0.949 . S
C592 C600 1.574 . S
C592 C608 1.368 . S
H593 C601 0.950 . S
H594 C599 0.950 . S
H595 C600 0.949 . S
H596 C602 0.950 . S
H597 C603 0.950 . S
H598 C604 0.949 . S
C599 H594 0.950 . S
C599 C601 1.327 . S
C599 C605 1.429 . S
C600 C592 1.574 . S
C600 H595 0.949 . S
C600 C606 1.368 . S
C601 C585 1.349 . S
C601 H593 0.950 . S
C601 C599 1.327 . S
C602 C590 1.349 . S
C602 H596 0.950 . S
C602 C603 1.327 . S
C603 H597 0.950 . S
C603 C602 1.327 . S
C603 C607 1.429 . S
C604 C587 1.574 . S
C604 H598 0.949 . S
C604 C608 1.368 . S
C605 C586 1.429 . S
C605 C599 1.429 . S
C605 C606 1.523 . S
C606 C587 1.368 . S
C606 C600 1.368 . S
C606 C605 1.523 . S
C607 C591 1.429 . S
C607 C603 1.429 . S
C607 C608 1.523 . S
C608 C592 1.368 . S
C608 C604 1.368 . S
C608 C607 1.523 . S
H609 C584 0.950 . S
H610 C586 0.950 . S
H611 C587 0.949 . S
H612 C589 0.950 . S
H613 C591 0.950 . S
C614 C615 1.349 . S
C614 C616 1.327 . S
C614 H639 0.950 . S
C615 C614 1.349 . S
C615 C631 1.349 . S
C616 C614 1.327 . S
C616 C635 1.429 . S
C616 H640 0.950 . S
C617 C634 1.574 . S
C617 C636 1.368 . S
C617 H641 0.949 . S
H618 C622 0.949 . S
C619 C620 1.349 . S
C619 C621 1.327 . S
C619 H642 0.950 . S
C620 C619 1.349 . S
C620 C632 1.349 . S
C621 C619 1.327 . S
C621 C637 1.429 . S
C621 H643 0.950 . S
C622 H618 0.949 . S
C622 C630 1.574 . S
C622 C638 1.368 . S
H623 C631 0.950 . S
H624 C629 0.950 . S
H625 C630 0.949 . S
H626 C632 0.950 . S
H627 C633 0.950 . S
H628 C634 0.949 . S
C629 H624 0.950 . S
C629 C631 1.327 . S
C629 C635 1.429 . S
C630 C622 1.574 . S
C630 H625 0.949 . S
C630 C636 1.368 . S
C631 C615 1.349 . S
C631 H623 0.950 . S
C631 C629 1.327 . S
C632 C620 1.349 . S
C632 H626 0.950 . S
C632 C633 1.327 . S
C633 H627 0.950 . S
C633 C632 1.327 . S
C633 C637 1.429 . S
C634 C617 1.574 . S
C634 H628 0.949 . S
C634 C638 1.368 . S
C635 C616 1.429 . S
C635 C629 1.429 . S
C635 C636 1.523 . S
C636 C617 1.368 . S
C636 C630 1.368 . S
C636 C635 1.523 . S
C637 C621 1.429 . S
C637 C633 1.429 . S
C637 C638 1.523 . S
C638 C622 1.368 . S
C638 C634 1.368 . S
C638 C637 1.523 . S
H639 C614 0.950 . S
H640 C616 0.950 . S
H641 C617 0.949 . S
H642 C619 0.950 . S
H643 C621 0.950 . S
C644 C645 1.349 . S
C644 C646 1.327 . S
C644 H669 0.950 . S
C645 C644 1.349 . S
C645 C661 1.349 . S
C646 C644 1.327 . S
C646 C665 1.429 . S
C646 H670 0.950 . S
C647 C664 1.574 . S
C647 C666 1.368 . S
C647 H671 0.949 . S
H648 C652 0.949 . S
C649 C650 1.349 . S
C649 C651 1.327 . S
C649 H672 0.950 . S
C650 C649 1.349 . S
C650 C662 1.349 . S
C651 C649 1.327 . S
C651 C667 1.429 . S
C651 H673 0.950 . S
C652 H648 0.949 . S
C652 C660 1.574 . S
C652 C668 1.368 . S
H653 C661 0.950 . S
H654 C659 0.950 . S
H655 C660 0.949 . S
H656 C662 0.950 . S
H657 C663 0.950 . S
H658 C664 0.949 . S
C659 H654 0.950 . S
C659 C661 1.327 . S
C659 C665 1.429 . S
C660 C652 1.574 . S
C660 H655 0.949 . S
C660 C666 1.368 . S
C661 C645 1.349 . S
C661 H653 0.950 . S
C661 C659 1.327 . S
C662 C650 1.349 . S
C662 H656 0.950 . S
C662 C663 1.327 . S
C663 H657 0.950 . S
C663 C662 1.327 . S
C663 C667 1.429 . S
C664 C647 1.574 . S
C664 H658 0.949 . S
C664 C668 1.368 . S
C665 C646 1.429 . S
C665 C659 1.429 . S
C665 C666 1.523 . S
C666 C647 1.368 . S
C666 C660 1.368 . S
C666 C665 1.523 . S
C667 C651 1.429 . S
C667 C663 1.429 . S
C667 C668 1.523 . S
C668 C652 1.368 . S
C668 C664 1.368 . S
C668 C667 1.523 . S
H669 C644 0.950 . S
H670 C646 0.950 . S
H671 C647 0.949 . S
H672 C649 0.950 . S
H673 C651 0.950 . S
C674 C675 1.349 . S
C674 C676 1.327 . S
C674 H699 0.950 . S
C675 C674 1.349 . S
C675 C691 1.349 . S
C676 C674 1.327 . S
C676 C695 1.429 . S
C676 H700 0.950 . S
C677 C694 1.574 . S
C677 C696 1.368 . S
C677 H701 0.949 . S
H678 C682 0.949 . S
C679 C680 1.349 . S
C679 C681 1.327 . S
C679 H702 0.950 . S
C680 C679 1.349 . S
C680 C692 1.349 . S
C681 C679 1.327 . S
C681 C697 1.429 . S
C681 H703 0.950 . S
C682 H678 0.949 . S
C682 C690 1.574 . S
C682 C698 1.368 . S
H683 C691 0.950 . S
H684 C689 0.950 . S
H685 C690 0.949 . S
H686 C692 0.950 . S
H687 C693 0.950 . S
H688 C694 0.949 . S
C689 H684 0.950 . S
C689 C691 1.327 . S
C689 C695 1.429 . S
C690 C682 1.574 . S
C690 H685 0.949 . S
C690 C696 1.368 . S
C691 C675 1.349 . S
C691 H683 0.950 . S
C691 C689 1.327 . S
C692 C680 1.349 . S
C692 H686 0.950 . S
C692 C693 1.327 . S
C693 H687 0.950 . S
C693 C692 1.327 . S
C693 C697 1.429 . S
C694 C677 1.574 . S
C694 H688 0.949 . S
C694 C698 1.368 . S
C695 C676 1.429 . S
C695 C689 1.429 . S
C695 C696 1.523 . S
C696 C677 1.368 . S
C696 C690 1.368 . S
C696 C695 1.523 . S
C697 C681 1.429 . S
C697 C693 1.429 . S
C697 C698 1.523 . S
C698 C682 1.368 . S
C698 C694 1.368 . S
C698 C697 1.523 . S
H699 C674 0.950 . S
H700 C676 0.950 . S
H701 C677 0.949 . S
H702 C679 0.950 . S
H703 C681 0.950 . S
C704 C705 1.349 . S
C704 C706 1.327 . S
C704 H729 0.950 . S
C705 C704 1.349 . S
C705 C721 1.349 . S
C706 C704 1.327 . S
C706 C725 1.429 . S
C706 H730 0.950 . S
C707 C724 1.574 . S
C707 C726 1.368 . S
C707 H731 0.949 . S
H708 C712 0.949 . S
C709 C710 1.349 . S
C709 C711 1.327 . S
C709 H732 0.950 . S
C710 C709 1.349 . S
C710 C722 1.349 . S
C711 C709 1.327 . S
C711 C727 1.429 . S
C711 H733 0.950 . S
C712 H708 0.949 . S
C712 C720 1.574 . S
C712 C728 1.368 . S
H713 C721 0.950 . S
H714 C719 0.950 . S
H715 C720 0.949 . S
H716 C722 0.950 . S
H717 C723 0.950 . S
H718 C724 0.949 . S
C719 H714 0.950 . S
C719 C721 1.327 . S
C719 C725 1.429 . S
C720 C712 1.574 . S
C720 H715 0.949 . S
C720 C726 1.368 . S
C721 C705 1.349 . S
C721 H713 0.950 . S
C721 C719 1.327 . S
C722 C710 1.349 . S
C722 H716 0.950 . S
C722 C723 1.327 . S
C723 H717 0.950 . S
C723 C722 1.327 . S
C723 C727 1.429 . S
C724 C707 1.574 . S
C724 H718 0.949 . S
C724 C728 1.368 . S
C725 C706 1.429 . S
C725 C719 1.429 . S
C725 C726 1.523 . S
C726 C707 1.368 . S
C726 C720 1.368 . S
C726 C725 1.523 . S
C727 C711 1.429 . S
C727 C723 1.429 . S
C727 C728 1.523 . S
C728 C712 1.368 . S
C728 C724 1.368 . S
C728 C727 1.523 . S
H729 C704 0.950 . S
H730 C706 0.950 . S
H731 C707 0.949 . S
H732 C709 0.950 . S
H733 C711 0.950 . S
C734 C735 1.349 . S
C734 C736 1.327 . S
C734 H759 0.950 . S
C735 C734 1.349 . S
C735 C751 1.349 . S
C736 C734 1.327 . S
C736 C755 1.429 . S
C736 H760 0.950 . S
C737 C754 1.574 . S
C737 C756 1.368 . S
C737 H761 0.949 . S
H738 C742 0.949 . S
C739 C740 1.349 . S
C739 C741 1.327 . S
C739 H762 0.950 . S
C740 C739 1.349 . S
C740 C752 1.349 . S
C741 C739 1.327 . S
C741 C757 1.429 . S
C741 H763 0.950 . S
C742 H738 0.949 . S
C742 C750 1.574 . S
C742 C758 1.368 . S
H743 C751 0.950 . S
H744 C749 0.950 . S
H745 C750 0.949 . S
H746 C752 0.950 . S
H747 C753 0.950 . S
H748 C754 0.949 . S
C749 H744 0.950 . S
C749 C751 1.327 . S
C749 C755 1.429 . S
C750 C742 1.574 . S
C750 H745 0.949 . S
C750 C756 1.368 . S
C751 C735 1.349 . S
C751 H743 0.950 . S
C751 C749 1.327 . S
C752 C740 1.349 . S
C752 H746 0.950 . S
C752 C753 1.327 . S
C753 H747 0.950 . S
C753 C752 1.327 . S
C753 C757 1.429 . S
C754 C737 1.574 . S
C754 H748 0.949 . S
C754 C758 1.368 . S
C755 C736 1.429 . S
C755 C749 1.429 . S
C755 C756 1.523 . S
C756 C737 1.368 . S
C756 C750 1.368 . S
C756 C755 1.523 . S
C757 C741 1.429 . S
C757 C753 1.429 . S
C757 C758 1.523 . S
C758 C742 1.368 . S
C758 C754 1.368 . S
C758 C757 1.523 . S
H759 C734 0.950 . S
H760 C736 0.950 . S
H761 C737 0.949 . S
H762 C739 0.950 . S
H763 C741 0.950 . S
C764 C765 1.349 . S
C764 C766 1.327 . S
C764 H789 0.950 . S
C765 C764 1.349 . S
C765 C781 1.349 . S
C766 C764 1.327 . S
C766 C785 1.429 . S
C766 H790 0.950 . S
C767 C784 1.574 . S
C767 C786 1.368 . S
C767 H791 0.949 . S
H768 C772 0.949 . S
C769 C770 1.349 . S
C769 C771 1.327 . S
C769 H792 0.950 . S
C770 C769 1.349 . S
C770 C782 1.349 . S
C771 C769 1.327 . S
C771 C787 1.429 . S
C771 H793 0.950 . S
C772 H768 0.949 . S
C772 C780 1.574 . S
C772 C788 1.368 . S
H773 C781 0.950 . S
H774 C779 0.950 . S
H775 C780 0.949 . S
H776 C782 0.950 . S
H777 C783 0.950 . S
H778 C784 0.949 . S
C779 H774 0.950 . S
C779 C781 1.327 . S
C779 C785 1.429 . S
C780 C772 1.574 . S
C780 H775 0.949 . S
C780 C786 1.368 . S
C781 C765 1.349 . S
C781 H773 0.950 . S
C781 C779 1.327 . S
C782 C770 1.349 . S
C782 H776 0.950 . S
C782 C783 1.327 . S
C783 H777 0.950 . S
C783 C782 1.327 . S
C783 C787 1.429 . S
C784 C767 1.574 . S
C784 H778 0.949 . S
C784 C788 1.368 . S
C785 C766 1.429 . S
C785 C779 1.429 . S
C785 C786 1.523 . S
C786 C767 1.368 . S
C786 C780 1.368 . S
C786 C785 1.523 . S
C787 C771 1.429 . S
C787 C783 1.429 . S
C787 C788 1.523 . S
C788 C772 1.368 . S
C788 C784 1.368 . S
C788 C787 1.523 . S
H789 C764 0.950 . S
H790 C766 0.950 . S
H791 C767 0.949 . S
H792 C769 0.950 . S
H793 C771 0.950 . S
C794 C795 1.349 . S
C794 C796 1.327 . S
C794 H819 0.950 . S
C795 C794 1.349 . S
C795 C811 1.349 . S
C796 C794 1.327 . S
C796 C815 1.429 . S
C796 H820 0.950 . S
C797 C814 1.574 . S
C797 C816 1.368 . S
C797 H821 0.949 . S
H798 C802 0.949 . S
C799 C800 1.349 . S
C799 C801 1.327 . S
C799 H822 0.950 . S
C800 C799 1.349 . S
C800 C812 1.349 . S
C801 C799 1.327 . S
C801 C817 1.429 . S
C801 H823 0.950 . S
C802 H798 0.949 . S
C802 C810 1.574 . S
C802 C818 1.368 . S
H803 C811 0.950 . S
H804 C809 0.950 . S
H805 C810 0.949 . S
H806 C812 0.950 . S
H807 C813 0.950 . S
H808 C814 0.949 . S
C809 H804 0.950 . S
C809 C811 1.327 . S
C809 C815 1.429 . S
C810 C802 1.574 . S
C810 H805 0.949 . S
C810 C816 1.368 . S
C811 C795 1.349 . S
C811 H803 0.950 . S
C811 C809 1.327 . S
C812 C800 1.349 . S
C812 H806 0.950 . S
C812 C813 1.327 . S
C813 H807 0.950 . S
C813 C812 1.327 . S
C813 C817 1.429 . S
C814 C797 1.574 . S
C814 H808 0.949 . S
C814 C818 1.368 . S
C815 C796 1.429 . S
C815 C809 1.429 . S
C815 C816 1.523 . S
C816 C797 1.368 . S
C816 C810 1.368 . S
C816 C815 1.523 . S
C817 C801 1.429 . S
C817 C813 1.429 . S
C817 C818 1.523 . S
C818 C802 1.368 . S
C818 C814 1.368 . S
C818 C817 1.523 . S
H819 C794 0.950 . S
H820 C796 0.950 . S
H821 C797 0.949 . S
H822 C799 0.950 . S
H823 C801 0.950 . S
C824 C825 1.349 . S
C824 C826 1.327 . S
C824 H849 0.950 . S
C825 C824 1.349 . S
C825 C841 1.349 . S
C826 C824 1.327 . S
C826 C845 1.429 . S
C826 H850 0.950 . S
C827 C844 1.574 . S
C827 C846 1.368 . S
C827 H851 0.949 . S
H828 C832 0.949 . S
C829 C830 1.349 . S
C829 C831 1.327 . S
C829 H852 0.950 . S
C830 C829 1.349 . S
C830 C842 1.349 . S
C831 C829 1.327 . S
C831 C847 1.429 . S
C831 H853 0.950 . S
C832 H828 0.949 . S
C832 C840 1.574 . S
C832 C848 1.368 . S
H833 C841 0.950 . S
H834 C839 0.950 . S
H835 C840 0.949 . S
H836 C842 0.950 . S
H837 C843 0.950 . S
H838 C844 0.949 . S
C839 H834 0.950 . S
C839 C841 1.327 . S
C839 C845 1.429 . S
C840 C832 1.574 . S
C840 H835 0.949 . S
C840 C846 1.368 . S
C841 C825 1.349 . S
C841 H833 0.950 . S
C841 C839 1.327 . S
C842 C830 1.349 . S
C842 H836 0.950 . S
C842 C843 1.327 . S
C843 H837 0.950 . S
C843 C842 1.327 . S
C843 C847 1.429 . S
C844 C827 1.574 . S
C844 H838 0.949 . S
C844 C848 1.368 . S
C845 C826 1.429 . S
C845 C839 1.429 . S
C845 C846 1.523 . S
C846 C827 1.368 . S
C846 C840 1.368 . S
C846 C845 1.523 . S
C847 C831 1.429 . S
C847 C843 1.429 . S
C847 C848 1.523 . S
C848 C832 1.368 . S
C848 C844 1.368 . S
C848 C847 1.523 . S
H849 C824 0.950 . S
H850 C826 0.950 . S
H851 C827 0.949 . S
H852 C829 0.950 . S
H853 C831 0.950 . S
C854 C855 1.349 . S
C854 C856 1.327 . S
C854 H879 0.950 . S
C855 C854 1.349 . S
C855 C871 1.349 . S
C856 C854 1.327 . S
C856 C875 1.429 . S
C856 H880 0.950 . S
C857 C874 1.574 . S
C857 C876 1.368 . S
C857 H881 0.949 . S
H858 C862 0.949 . S
C859 C860 1.349 . S
C859 C861 1.327 . S
C859 H882 0.950 . S
C860 C859 1.349 . S
C860 C872 1.349 . S
C861 C859 1.327 . S
C861 C877 1.429 . S
C861 H883 0.950 . S
C862 H858 0.949 . S
C862 C870 1.574 . S
C862 C878 1.368 . S
H863 C871 0.950 . S
H864 C869 0.950 . S
H865 C870 0.949 . S
H866 C872 0.950 . S
H867 C873 0.950 . S
H868 C874 0.949 . S
C869 H864 0.950 . S
C869 C871 1.327 . S
C869 C875 1.429 . S
C870 C862 1.574 . S
C870 H865 0.949 . S
C870 C876 1.368 . S
C871 C855 1.349 . S
C871 H863 0.950 . S
C871 C869 1.327 . S
C872 C860 1.349 . S
C872 H866 0.950 . S
C872 C873 1.327 . S
C873 H867 0.950 . S
C873 C872 1.327 . S
C873 C877 1.429 . S
C874 C857 1.574 . S
C874 H868 0.949 . S
C874 C878 1.368 . S
C875 C856 1.429 . S
C875 C869 1.429 . S
C875 C876 1.523 . S
C876 C857 1.368 . S
C876 C870 1.368 . S
C876 C875 1.523 . S
C877 C861 1.429 . S
C877 C873 1.429 . S
C877 C878 1.523 . S
C878 C862 1.368 . S
C878 C874 1.368 . S
C878 C877 1.523 . S
H879 C854 0.950 . S
H880 C856 0.950 . S
H881 C857 0.949 . S
H882 C859 0.950 . S
H883 C861 0.950 . S
C884 C885 1.349 . S
C884 C886 1.327 . S
C884 H909 0.950 . S
C885 C884 1.349 . S
C885 C901 1.349 . S
C886 C884 1.327 . S
C886 C905 1.429 . S
C886 H910 0.950 . S
C887 C904 1.574 . S
C887 C906 1.368 . S
C887 H911 0.949 . S
H888 C892 0.949 . S
C889 C890 1.349 . S
C889 C891 1.327 . S
C889 H912 0.950 . S
C890 C889 1.349 . S
C890 C902 1.349 . S
C891 C889 1.327 . S
C891 C907 1.429 . S
C891 H913 0.950 . S
C892 H888 0.949 . S
C892 C900 1.574 . S
C892 C908 1.368 . S
H893 C901 0.950 . S
H894 C899 0.950 . S
H895 C900 0.949 . S
H896 C902 0.950 . S
H897 C903 0.950 . S
H898 C904 0.949 . S
C899 H894 0.950 . S
C899 C901 1.327 . S
C899 C905 1.429 . S
C900 C892 1.574 . S
C900 H895 0.949 . S
C900 C906 1.368 . S
C901 C885 1.349 . S
C901 H893 0.950 . S
C901 C899 1.327 . S
C902 C890 1.349 . S
C902 H896 0.950 . S
C902 C903 1.327 . S
C903 H897 0.950 . S
C903 C902 1.327 . S
C903 C907 1.429 . S
C904 C887 1.574 . S
C904 H898 0.949 . S
C904 C908 1.368 . S
C905 C886 1.429 . S
C905 C899 1.429 . S
C905 C906 1.523 . S
C906 C887 1.368 . S
C906 C900 1.368 . S
C906 C905 1.523 . S
C907 C891 1.429 . S
C907 C903 1.429 . S
C907 C908 1.523 . S
C908 C892 1.368 . S
C908 C904 1.368 . S
C908 C907 1.523 . S
H909 C884 0.950 . S
H910 C886 0.950 . S
H911 C887 0.949 . S
H912 C889 0.950 . S
H913 C891 0.950 . S
C914 C915 1.349 . S
C914 C916 1.327 . S
C914 H939 0.950 . S
C915 C914 1.349 . S
C915 C931 1.349 . S
C916 C914 1.327 . S
C916 C935 1.429 . S
C916 H940 0.950 . S
C917 C934 1.574 . S
C917 C936 1.368 . S
C917 H941 0.949 . S
H918 C922 0.949 . S
C919 C920 1.349 . S
C919 C921 1.327 . S
C919 H942 0.950 . S
C920 C919 1.349 . S
C920 C932 1.349 . S
C921 C919 1.327 . S
C921 C937 1.429 . S
C921 H943 0.950 . S
C922 H918 0.949 . S
C922 C930 1.574 . S
C922 C938 1.368 . S
H923 C931 0.950 . S
H924 C929 0.950 . S
H925 C930 0.949 . S
H926 C932 0.950 . S
H927 C933 0.950 . S
H928 C934 0.949 . S
C929 H924 0.950 . S
C929 C931 1.327 . S
C929 C935 1.429 . S
C930 C922 1.574 . S
C930 H925 0.949 . S
C930 C936 1.368 . S
C931 C915 1.349 . S
C931 H923 0.950 . S
C931 C929 1.327 . S
C932 C920 1.349 . S
C932 H926 0.950 . S
C932 C933 1.327 . S
C933 H927 0.950 . S
C933 C932 1.327 . S
C933 C937 1.429 . S
C934 C917 1.574 . S
C934 H928 0.949 . S
C934 C938 1.368 . S
C935 C916 1.429 . S
C935 C929 1.429 . S
C935 C936 1.523 . S
C936 C917 1.368 . S
C936 C930 1.368 . S
C936 C935 1.523 . S
C937 C921 1.429 . S
C937 C933 1.429 . S
C937 C938 1.523 . S
C938 C922 1.368 . S
C938 C934 1.368 . S
C938 C937 1.523 . S
H939 C914 0.950 . S
H940 C916 0.950 . S
H941 C917 0.949 . S
H942 C919 0.950 . S
H943 C921 0.950 . S
C944 C945 1.349 . S
C944 C946 1.327 . S
C944 H969 0.950 . S
C945 C944 1.349 . S
C945 C961 1.349 . S
C946 C944 1.327 . S
C946 C965 1.429 . S
C946 H970 0.950 . S
C947 C964 1.574 . S
C947 C966 1.368 . S
C947 H971 0.949 . S
H948 C952 0.949 . S
C949 C950 1.349 . S
C949 C951 1.327 . S
C949 H972 0.950 . S
C950 C949 1.349 . S
C950 C962 1.349 . S
C951 C949 1.327 . S
C951 C967 1.429 . S
C951 H973 0.950 . S
C952 H948 0.949 . S
C952 C960 1.574 . S
C952 C968 1.368 . S
H953 C961 0.950 . S
H954 C959 0.950 . S
H955 C960 0.949 . S
H956 C962 0.950 . S
H957 C963 0.950 . S
H958 C964 0.949 . S
C959 H954 0.950 . S
C959 C961 1.327 . S
C959 C965 1.429 . S
C960 C952 1.574 . S
C960 H955 0.949 . S
C960 C966 1.368 . S
C961 C945 1.349 . S
C961 H953 0.950 . S
C961 C959 1.327 . S
C962 C950 1.349 . S
C962 H956 0.950 . S
C962 C963 1.327 . S
C963 H957 0.950 . S
C963 C962 1.327 . S
C963 C967 1.429 . S
C964 C947 1.574 . S
C964 H958 0.949 . S
C964 C968 1.368 . S
C965 C946 1.429 . S
C965 C959 1.429 . S
C965 C966 1.523 . S
C966 C947 1.368 . S
C966 C960 1.368 . S
C966 C965 1.523 . S
C967 C951 1.429 . S
C967 C963 1.429 . S
C967 C968 1.523 . S
C968 C952 1.368 . S
C968 C964 1.368 . S
C968 C967 1.523 . S
H969 C944 0.950 . S
H970 C946 0.950 . S
H971 C947 0.949 . S
H972 C949 0.950 . S
H973 C951 0.950 . S
C974 C975 1.349 . S
C974 C976 1.327 . S
C974 H999 0.950 . S
C975 C974 1.349 . S
C975 C991 1.349 . S
C976 C974 1.327 . S
C976 C995 1.429 . S
C976 H1000 0.950 . S
C977 C994 1.574 . S
C977 C996 1.368 . S
C977 H1001 0.949 . S
H978 C982 0.949 . S
C979 C980 1.349 . S
C979 C981 1.327 . S
C979 H1002 0.950 . S
C980 C979 1.349 . S
C980 C992 1.349 . S
C981 C979 1.327 . S
C981 C997 1.429 . S
C981 H1003 0.950 . S
C982 H978 0.949 . S
C982 C990 1.574 . S
C982 C998 1.368 . S
H983 C991 0.950 . S
H984 C989 0.950 . S
H985 C990 0.949 . S
H986 C992 0.950 . S
H987 C993 0.950 . S
H988 C994 0.949 . S
C989 H984 0.950 . S
C989 C991 1.327 . S
C989 C995 1.429 . S
C990 C982 1.574 . S
C990 H985 0.949 . S
C990 C996 1.368 . S
C991 C975 1.349 . S
C991 H983 0.950 . S
C991 C989 1.327 . S
C992 C980 1.349 . S
C992 H986 0.950 . S
C992 C993 1.327 . S
C993 H987 0.950 . S
C993 C992 1.327 . S
C993 C997 1.429 . S
C994 C977 1.574 . S
C994 H988 0.949 . S
C994 C998 1.368 . S
C995 C976 1.429 . S
C995 C989 1.429 . S
C995 C996 1.523 . S
C996 C977 1.368 . S
C996 C990 1.368 . S
C996 C995 1.523 . S
C997 C981 1.429 . S
C997 C993 1.429 . S
C997 C998 1.523 . S
C998 C982 1.368 . S
C998 C994 1.368 . S
C998 C997 1.523 . S
H999 C974 0.950 . S
H1000 C976 0.950 . S
H1001 C977 0.949 . S
H1002 C979 0.950 . S
H1003 C981 0.950 . S
C1004 C1005 1.349 . S
C1004 C1006 1.327 . S
C1004 H1029 0.950 . S
C1005 C1004 1.349 . S
C1005 C1021 1.349 . S
C1006 C1004 1.327 . S
C1006 C1025 1.429 . S
C1006 H1030 0.950 . S
C1007 C1024 1.574 . S
C1007 C1026 1.368 . S
C1007 H1031 0.949 . S
H1008 C1012 0.949 . S
C1009 C1010 1.349 . S
C1009 C1011 1.327 . S
C1009 H1032 0.950 . S
C1010 C1009 1.349 . S
C1010 C1022 1.349 . S
C1011 C1009 1.327 . S
C1011 C1027 1.429 . S
C1011 H1033 0.950 . S
C1012 H1008 0.949 . S
C1012 C1020 1.574 . S
C1012 C1028 1.368 . S
H1013 C1021 0.950 . S
H1014 C1019 0.950 . S
H1015 C1020 0.949 . S
H1016 C1022 0.950 . S
H1017 C1023 0.950 . S
H1018 C1024 0.949 . S
C1019 H1014 0.950 . S
C1019 C1021 1.327 . S
C1019 C1025 1.429 . S
C1020 C1012 1.574 . S
C1020 H1015 0.949 . S
C1020 C1026 1.368 . S
C1021 C1005 1.349 . S
C1021 H1013 0.950 . S
C1021 C1019 1.327 . S
C1022 C1010 1.349 . S
C1022 H1016 0.950 . S
C1022 C1023 1.327 . S
C1023 H1017 0.950 . S
C1023 C1022 1.327 . S
C1023 C1027 1.429 . S
C1024 C1007 1.574 . S
C1024 H1018 0.949 . S
C1024 C1028 1.368 . S
C1025 C1006 1.429 . S
C1025 C1019 1.429 . S
C1025 C1026 1.523 . S
C1026 C1007 1.368 . S
C1026 C1020 1.368 . S
C1026 C1025 1.523 . S
C1027 C1011 1.429 . S
C1027 C1023 1.429 . S
C1027 C1028 1.523 . S
C1028 C1012 1.368 . S
C1028 C1024 1.368 . S
C1028 C1027 1.523 . S
H1029 C1004 0.950 . S
H1030 C1006 0.950 . S
H1031 C1007 0.949 . S
H1032 C1009 0.950 . S
H1033 C1011 0.950 . S
C1034 C1035 1.349 . S
C1034 C1036 1.327 . S
C1034 H1059 0.950 . S
C1035 C1034 1.349 . S
C1035 C1051 1.349 . S
C1036 C1034 1.327 . S
C1036 C1055 1.429 . S
C1036 H1060 0.950 . S
C1037 C1054 1.574 . S
C1037 C1056 1.368 . S
C1037 H1061 0.949 . S
H1038 C1042 0.949 . S
C1039 C1040 1.349 . S
C1039 C1041 1.327 . S
C1039 H1062 0.950 . S
C1040 C1039 1.349 . S
C1040 C1052 1.349 . S
C1041 C1039 1.327 . S
C1041 C1057 1.429 . S
C1041 H1063 0.950 . S
C1042 H1038 0.949 . S
C1042 C1050 1.574 . S
C1042 C1058 1.368 . S
H1043 C1051 0.950 . S
H1044 C1049 0.950 . S
H1045 C1050 0.949 . S
H1046 C1052 0.950 . S
H1047 C1053 0.950 . S
H1048 C1054 0.949 . S
C1049 H1044 0.950 . S
C1049 C1051 1.327 . S
C1049 C1055 1.429 . S
C1050 C1042 1.574 . S
C1050 H1045 0.949 . S
C1050 C1056 1.368 . S
C1051 C1035 1.349 . S
C1051 H1043 0.950 . S
C1051 C1049 1.327 . S
C1052 C1040 1.349 . S
C1052 H1046 0.950 . S
C1052 C1053 1.327 . S
C1053 H1047 0.950 . S
C1053 C1052 1.327 . S
C1053 C1057 1.429 . S
C1054 C1037 1.574 . S
C1054 H1048 0.949 . S
C1054 C1058 1.368 . S
C1055 C1036 1.429 . S
C1055 C1049 1.429 . S
C1055 C1056 1.523 . S
C1056 C1037 1.368 . S
C1056 C1050 1.368 . S
C1056 C1055 1.523 . S
C1057 C1041 1.429 . S
C1057 C1053 1.429 . S
C1057 C1058 1.523 . S
C1058 C1042 1.368 . S
C1058 C1054 1.368 . S
C1058 C1057 1.523 . S
H1059 C1034 0.950 . S
H1060 C1036 0.950 . S
H1061 C1037 0.949 . S
H1062 C1039 0.950 . S
H1063 C1041 0.950 . S
C1064 C1065 1.349 . S
C1064 C1066 1.327 . S
C1064 H1089 0.950 . S
C1065 C1064 1.349 . S
C1065 C1081 1.349 . S
C1066 C1064 1.327 . S
C1066 C1085 1.429 . S
C1066 H1090 0.950 . S
C1067 C1084 1.574 . S
C1067 C1086 1.368 . S
C1067 H1091 0.949 . S
H1068 C1072 0.949 . S
C1069 C1070 1.349 . S
C1069 C1071 1.327 . S
C1069 H1092 0.950 . S
C1070 C1069 1.349 . S
C1070 C1082 1.349 . S
C1071 C1069 1.327 . S
C1071 C1087 1.429 . S
C1071 H1093 0.950 . S
C1072 H1068 0.949 . S
C1072 C1080 1.574 . S
C1072 C1088 1.368 . S
H1073 C1081 0.950 . S
H1074 C1079 0.950 . S
H1075 C1080 0.949 . S
H1076 C1082 0.950 . S
H1077 C1083 0.950 . S
H1078 C1084 0.949 . S
C1079 H1074 0.950 . S
C1079 C1081 1.327 . S
C1079 C1085 1.429 . S
C1080 C1072 1.574 . S
C1080 H1075 0.949 . S
C1080 C1086 1.368 . S
C1081 C1065 1.349 . S
C1081 H1073 0.950 . S
C1081 C1079 1.327 . S
C1082 C1070 1.349 . S
C1082 H1076 0.950 . S
C1082 C1083 1.327 . S
C1083 H1077 0.950 . S
C1083 C1082 1.327 . S
C1083 C1087 1.429 . S
C1084 C1067 1.574 . S
C1084 H1078 0.949 . S
C1084 C1088 1.368 . S
C1085 C1066 1.429 . S
C1085 C1079 1.429 . S
C1085 C1086 1.523 . S
C1086 C1067 1.368 . S
C1086 C1080 1.368 . S
C1086 C1085 1.523 . S
C1087 C1071 1.429 . S
C1087 C1083 1.429 . S
C1087 C1088 1.523 . S
C1088 C1072 1.368 . S
C1088 C1084 1.368 . S
C1088 C1087 1.523 . S
H1089 C1064 0.950 . S
H1090 C1066 0.950 . S
H1091 C1067 0.949 . S
H1092 C1069 0.950 . S
H1093 C1071 0.950 . S
C1094 C1095 1.349 . S
C1094 C1096 1.327 . S
C1094 H1119 0.950 . S
C1095 C1094 1.349 . S
C1095 C1111 1.349 . S
C1096 C1094 1.327 . S
C1096 C1115 1.429 . S
C1096 H1120 0.950 . S
C1097 C1114 1.574 . S
C1097 C1116 1.368 . S
C1097 H1121 0.949 . S
H1098 C1102 0.949 . S
C1099 C1100 1.349 . S
C1099 C1101 1.327 . S
C1099 H1122 0.950 . S
C1100 C1099 1.349 . S
C1100 C1112 1.349 . S
C1101 C1099 1.327 . S
C1101 C1117 1.429 . S
C1101 H1123 0.950 . S
C1102 H1098 0.949 . S
C1102 C1110 1.574 . S
C1102 C1118 1.368 . S
H1103 C1111 0.950 . S
H1104 C1109 0.950 . S
H1105 C1110 0.949 . S
H1106 C1112 0.950 . S
H1107 C1113 0.950 . S
H1108 C1114 0.949 . S
C1109 H1104 0.950 . S
C1109 C1111 1.327 . S
C1109 C1115 1.429 . S
C1110 C1102 1.574 . S
C1110 H1105 0.949 . S
C1110 C1116 1.368 . S
C1111 C1095 1.349 . S
C1111 H1103 0.950 . S
C1111 C1109 1.327 . S
C1112 C1100 1.349 . S
C1112 H1106 0.950 . S
C1112 C1113 1.327 . S
C1113 H1107 0.950 . S
C1113 C1112 1.327 . S
C1113 C1117 1.429 . S
C1114 C1097 1.574 . S
C1114 H1108 0.949 . S
C1114 C1118 1.368 . S
C1115 C1096 1.429 . S
C1115 C1109 1.429 . S
C1115 C1116 1.523 . S
C1116 C1097 1.368 . S
C1116 C1110 1.368 . S
C1116 C1115 1.523 . S
C1117 C1101 1.429 . S
C1117 C1113 1.429 . S
C1117 C1118 1.523 . S
C1118 C1102 1.368 . S
C1118 C1114 1.368 . S
C1118 C1117 1.523 . S
H1119 C1094 0.950 . S
H1120 C1096 0.950 . S
H1121 C1097 0.949 . S
H1122 C1099 0.950 . S
H1123 C1101 0.950 . S
C1124 C1125 1.349 . S
C1124 C1126 1.327 . S
C1124 H1149 0.950 . S
C1125 C1124 1.349 . S
C1125 C1141 1.349 . S
C1126 C1124 1.327 . S
C1126 C1145 1.429 . S
C1126 H1150 0.950 . S
C1127 C1144 1.574 . S
C1127 C1146 1.368 . S
C1127 H1151 0.949 . S
H1128 C1132 0.949 . S
C1129 C1130 1.349 . S
C1129 C1131 1.327 . S
C1129 H1152 0.950 . S
C1130 C1129 1.349 . S
C1130 C1142 1.349 . S
C1131 C1129 1.327 . S
C1131 C1147 1.429 . S
C1131 H1153 0.950 . S
C1132 H1128 0.949 . S
C1132 C1140 1.574 . S
C1132 C1148 1.368 . S
H1133 C1141 0.950 . S
H1134 C1139 0.950 . S
H1135 C1140 0.949 . S
H1136 C1142 0.950 . S
H1137 C1143 0.950 . S
H1138 C1144 0.949 . S
C1139 H1134 0.950 . S
C1139 C1141 1.327 . S
C1139 C1145 1.429 . S
C1140 C1132 1.574 . S
C1140 H1135 0.949 . S
C1140 C1146 1.368 . S
C1141 C1125 1.349 . S
C1141 H1133 0.950 . S
C1141 C1139 1.327 . S
C1142 C1130 1.349 . S
C1142 H1136 0.950 . S
C1142 C1143 1.327 . S
C1143 H1137 0.950 . S
C1143 C1142 1.327 . S
C1143 C1147 1.429 . S
C1144 C1127 1.574 . S
C1144 H1138 0.949 . S
C1144 C1148 1.368 . S
C1145 C1126 1.429 . S
C1145 C1139 1.429 . S
C1145 C1146 1.523 . S
C1146 C1127 1.368 . S
C1146 C1140 1.368 . S
C1146 C1145 1.523 . S
C1147 C1131 1.429 . S
C1147 C1143 1.429 . S
C1147 C1148 1.523 . S
C1148 C1132 1.368 . S
C1148 C1144 1.368 . S
C1148 C1147 1.523 . S
H1149 C1124 0.950 . S
H1150 C1126 0.950 . S
H1151 C1127 0.949 . S
H1152 C1129 0.950 . S
H1153 C1131 0.950 . S
C1154 C1155 1.349 . S
C1154 C1156 1.327 . S
C1154 H1179 0.950 . S
C1155 C1154 1.349 . S
C1155 C1171 1.349 . S
C1156 C1154 1.327 . S
C1156 C1175 1.429 . S
C1156 H1180 0.950 . S
C1157 C1174 1.574 . S
C1157 C1176 1.368 . S
C1157 H1181 0.949 . S
H1158 C1162 0.949 . S
C1159 C1160 1.349 . S
C1159 C1161 1.327 . S
C1159 H1182 0.950 . S
C1160 C1159 1.349 . S
C1160 C1172 1.349 . S
C1161 C1159 1.327 . S
C1161 C1177 1.429 . S
C1161 H1183 0.950 . S
C1162 H1158 0.949 . S
C1162 C1170 1.574 . S
C1162 C1178 1.368 . S
H1163 C1171 0.950 . S
H1164 C1169 0.950 . S
H1165 C1170 0.949 . S
H1166 C1172 0.950 . S
H1167 C1173 0.950 . S
H1168 C1174 0.949 . S
C1169 H1164 0.950 . S
C1169 C1171 1.327 . S
C1169 C1175 1.429 . S
C1170 C1162 1.574 . S
C1170 H1165 0.949 . S
C1170 C1176 1.368 . S
C1171 C1155 1.349 . S
C1171 H1163 0.950 . S
C1171 C1169 1.327 . S
C1172 C1160 1.349 . S
C1172 H1166 0.950 . S
C1172 C1173 1.327 . S
C1173 H1167 0.950 . S
C1173 C1172 1.327 . S
C1173 C1177 1.429 . S
C1174 C1157 1.574 . S
C1174 H1168 0.949 . S
C1174 C1178 1.368 . S
C1175 C1156 1.429 . S
C1175 C1169 1.429 . S
C1175 C1176 1.523 . S
C1176 C1157 1.368 . S
C1176 C1170 1.368 . S
C1176 C1175 1.523 . S
C1177 C1161 1.429 . S
C1177 C1173 1.429 . S
C1177 C1178 1.523 . S
C1178 C1162 1.368 . S
C1178 C1174 1.368 . S
C1178 C1177 1.523 . S
H1179 C1154 0.950 . S
H1180 C1156 0.950 . S
H1181 C1157 0.949 . S
H1182 C1159 0.950 . S
H1183 C1161 0.950 . S
C225 C67 1.070 . S
C230 C11 1.070 . S
C255 C81 1.070 . S
C260 C25 1.070 . S
C285 C95 1.070 . S
C290 C39 1.070 . S
C315 C109 1.070 . S
C320 C53 1.070 . S
C345 C179 1.070 . S
C350 C123 1.070 . S
C375 C193 1.070 . S
C380 C137 1.070 . S
C405 C151 1.070 . S
C410 C207 1.070 . S
C435 C221 1.070 . S
C440 C165 1.070 . S
C465 C4 0.980 1_554 S
C470 C74 0.980 . S
C495 C88 0.980 . S
C500 C18 0.980 1_554 S
C525 C32 0.980 1_554 S
C530 C102 0.980 . S
C555 C60 0.980 . S
C560 C46 0.980 1_554 S
C585 C186 0.980 . S
C590 C116 0.980 . S
C615 C200 0.980 . S
C620 C130 0.980 . S
C645 C144 0.980 . S
C650 C214 0.980 . S
C675 C158 0.980 . S
C680 C172 0.980 . S
C705 C215 1.181 . S
C710 C5 1.181 . S
C735 C173 1.181 . S
C740 C19 1.181 . S
C765 C187 1.181 . S
C770 C33 1.181 . S
C795 C201 1.181 . S
C800 C47 1.181 . S
C825 C131 1.181 . S
C830 C61 1.181 . S
C855 C145 1.181 . S
C860 C75 1.181 . S
C885 C89 1.181 . S
C890 C159 1.181 . S
C915 C103 1.181 . S
C920 C117 1.181 . S
C945 C194 1.703 . S
C950 C40 1.703 . S
C975 C208 1.703 . S
C980 C54 1.703 . S
C1005 C222 1.703 . S
C1010 C12 1.703 . S
C1035 C26 1.703 . S
C1040 C180 1.703 . S
C1065 C166 1.703 . S
C1070 C96 1.703 . S
C1095 C110 1.703 . S
C1100 C124 1.703 . S
C1125 C138 1.703 . S
C1130 C68 1.703 . S
C1155 C152 1.703 . S
C1160 C82 1.703 . S
