# Generated by pormake.
# Topology upa, (4)-cn, num edge types: 1
# Building blocks:
#     Node 0, Type 0, BuildingBlock: QUQFOY_clean_sbu_1, # of connection points: 4
#     Node 1, Type 0, BuildingBlock: QUQFOY_clean_sbu_1, # of connection points: 4
#     Node 2, Type 0, BuildingBlock: QUQFOY_clean_sbu_1, # of connection points: 4
#     Node 3, Type 0, BuildingBlock: QUQFOY_clean_sbu_1, # of connection points: 4
#     Node 4, Type 0, BuildingBlock: QUQFOY_clean_sbu_1, # of connection points: 4
#     Node 5, Type 0, BuildingBlock: QUQFOY_clean_sbu_1, # of connection points: 4
#     Node 6, Type 0, BuildingBlock: QUQFOY_clean_sbu_1, # of connection points: 4
#     Node 7, Type 0, BuildingBlock: QUQFOY_clean_sbu_1, # of connection points: 4
#     Edge 8, Type (0, 0), BuildingBlock: AJUNOK_clean_linker_0, # of connection points: 2
#     Edge 9, Type (0, 0), BuildingBlock: AJUNOK_clean_linker_0, # of connection points: 2
#     Edge 10, Type (0, 0), BuildingBlock: AJUNOK_clean_linker_0, # of connection points: 2
#     Edge 11, Type (0, 0), BuildingBlock: AJUNOK_clean_linker_0, # of connection points: 2
#     Edge 12, Type (0, 0), BuildingBlock: AJUNOK_clean_linker_0, # of connection points: 2
#     Edge 13, Type (0, 0), BuildingBlock: AJUNOK_clean_linker_0, # of connection points: 2
#     Edge 14, Type (0, 0), BuildingBlock: AJUNOK_clean_linker_0, # of connection points: 2
#     Edge 15, Type (0, 0), BuildingBlock: AJUNOK_clean_linker_0, # of connection points: 2
#     Edge 16, Type (0, 0), BuildingBlock: AJUNOK_clean_linker_0, # of connection points: 2
#     Edge 17, Type (0, 0), BuildingBlock: AJUNOK_clean_linker_0, # of connection points: 2
#     Edge 18, Type (0, 0), BuildingBlock: AJUNOK_clean_linker_0, # of connection points: 2
#     Edge 19, Type (0, 0), BuildingBlock: AJUNOK_clean_linker_0, # of connection points: 2
#     Edge 20, Type (0, 0), BuildingBlock: AJUNOK_clean_linker_0, # of connection points: 2
#     Edge 21, Type (0, 0), BuildingBlock: AJUNOK_clean_linker_0, # of connection points: 2
#     Edge 22, Type (0, 0), BuildingBlock: AJUNOK_clean_linker_0, # of connection points: 2
#     Edge 23, Type (0, 0), BuildingBlock: AJUNOK_clean_linker_0, # of connection points: 2
# Relax obj value: 0.105
# Max RMSD: 0.082
# Mean RMSD: 0.082
data_MOF--net-upa--node1-QUQFOY_clean_sbu_1--edge1-AJUNOK_clean_linker_0
_symmetry_space_group_name_H-M    P1
_symmetry_Int_Tables_number       1
_symmetry_cell_setting            triclinic
loop_
_symmetry_equiv_pos_as_xyz
'x, y, z'
_cell_length_a     22.309804
_cell_length_b     22.337375
_cell_length_c     31.055431
_cell_angle_alpha  90.182405
_cell_angle_beta   89.957326
_cell_angle_gamma 90.484791
loop_
_atom_site_label
_atom_site_type_symbol
_atom_site_fract_x
_atom_site_fract_y
_atom_site_fract_z
_atom_type_partial_charge
O0 O 0.22075 0.17264 0.39224 0.0
Cd1 Cd 0.21254 0.15442 0.327 0.0
Cd2 Cd 0.10134 0.23001 0.34753 0.0
O3 O 0.14834 0.23766 0.40497 0.0
O4 O 0.29283 0.12306 0.30898 0.0
O5 O 0.25396 0.20626 0.28315 0.0
C6 C 0.29775 0.16874 0.28391 0.0
C7 C 0.02026 0.29157 0.33004 0.0
C8 C 0.19335 0.20775 0.41779 0.0
C9 C 0.09227 0.09982 0.31226 0.0
O10 O 0.07195 0.14747 0.32857 0.0
O11 O 0.14835 0.09277 0.30741 0.0
O12 O 0.02008 0.25882 0.36395 0.0
O13 O 0.07009 0.29603 0.30905 0.0
O14 O 0.32733 0.71877 0.89684 0.0
Cd15 Cd 0.35028 0.70765 0.83252 0.0
Cd16 Cd 0.27236 0.60053 0.85203 0.0
O17 O 0.25724 0.64962 0.90768 0.0
O18 O 0.38923 0.78562 0.81605 0.0
O19 O 0.30593 0.75174 0.78604 0.0
C20 C 0.34637 0.79335 0.78891 0.0
C21 C 0.21101 0.52276 0.82622 0.0
C22 C 0.28842 0.69395 0.92116 0.0
C23 C 0.40429 0.58652 0.82645 0.0
O24 O 0.35617 0.56767 0.84334 0.0
O25 O 0.41095 0.64145 0.81686 0.0
O26 O 0.23482 0.52089 0.86388 0.0
O27 O 0.21464 0.57275 0.80555 0.0
O28 O 0.80117 0.83263 0.3934 0.0
Cd29 Cd 0.80316 0.84821 0.32769 0.0
Cd30 Cd 0.92008 0.77478 0.34698 0.0
O31 O 0.87345 0.76677 0.40464 0.0
O32 O 0.7239 0.88562 0.31344 0.0
O33 O 0.75044 0.79597 0.29023 0.0
C34 C 0.71068 0.83759 0.29234 0.0
C35 C 1.00565 0.71821 0.33019 0.0
C36 C 0.82935 0.79753 0.41835 0.0
C37 C 0.92253 0.90447 0.31059 0.0
O38 O 0.94462 0.85845 0.32788 0.0
O39 O 0.86639 0.90848 0.3045 0.0
O40 O 1.00316 0.75161 0.36386 0.0
O41 O 0.9564 0.70999 0.30909 0.0
O42 O 0.68561 0.29258 0.89586 0.0
Cd43 Cd 0.66054 0.30113 0.83204 0.0
Cd44 Cd 0.7349 0.41401 0.84877 0.0
O45 O 0.75012 0.36746 0.90537 0.0
O46 O 0.62799 0.22034 0.8153 0.0
O47 O 0.70713 0.26205 0.78436 0.0
C48 C 0.67031 0.21722 0.78712 0.0
C49 C 0.79418 0.49618 0.82714 0.0
C50 C 0.7225 0.32136 0.91957 0.0
C51 C 0.60034 0.41871 0.82421 0.0
O52 O 0.64945 0.44119 0.83708 0.0
O53 O 0.59494 0.36266 0.8181 0.0
O54 O 0.76589 0.49576 0.86316 0.0
O55 O 0.79541 0.44665 0.80563 0.0
O56 O 0.72741 0.33244 0.12872 0.0
Cd57 Cd 0.71785 0.35728 0.19249 0.0
Cd58 Cd 0.60388 0.28517 0.17454 0.0
O59 O 0.65095 0.27029 0.11783 0.0
O60 O 0.79882 0.38841 0.21 0.0
O61 O 0.75523 0.30999 0.2403 0.0
C62 C 0.80077 0.34602 0.238 0.0
C63 C 0.52056 0.22642 0.19505 0.0
C64 C 0.69813 0.2969 0.1043 0.0
C65 C 0.60151 0.41975 0.19969 0.0
O66 O 0.57817 0.3709 0.18709 0.0
O67 O 0.65767 0.42441 0.20567 0.0
O68 O 0.52164 0.25579 0.15957 0.0
O69 O 0.56989 0.2241 0.21666 0.0
O70 O 0.19001 0.21441 0.62701 0.0
Cd71 Cd 0.1671 0.21109 0.69171 0.0
Cd72 Cd 0.24482 0.09643 0.6762 0.0
O73 O 0.25358 0.13961 0.61744 0.0
O74 O 0.13054 0.29115 0.70437 0.0
O75 O 0.21207 0.25857 0.73671 0.0
C76 C 0.17285 0.30029 0.73189 0.0
C77 C 0.3043 0.01478 0.69623 0.0
C78 C 0.22501 0.18442 0.60287 0.0
C79 C 0.11232 0.09136 0.70809 0.0
O80 O 0.16124 0.07012 0.69464 0.0
O81 O 0.1046 0.14757 0.71044 0.0
O82 O 0.27149 0.01342 0.66226 0.0
O83 O 0.30986 0.06552 0.71591 0.0
O84 O 0.29826 0.68815 0.12881 0.0
Cd85 Cd 0.3131 0.66988 0.19344 0.0
Cd86 Cd 0.41296 0.74242 0.17037 0.0
O87 O 0.36047 0.76401 0.11793 0.0
O88 O 0.23649 0.6312 0.21371 0.0
O89 O 0.27082 0.71712 0.2395 0.0
C90 C 0.22969 0.67601 0.23946 0.0
C91 C 0.48163 0.80123 0.20805 0.0
C92 C 0.31862 0.7295 0.10459 0.0
C93 C 0.43456 0.61558 0.19227 0.0
O94 O 0.44958 0.65948 0.16881 0.0
O95 O 0.3827 0.613 0.20926 0.0
O96 O 0.48767 0.79225 0.1673 0.0
O97 O 0.43224 0.78405 0.22616 0.0
O98 O 0.83765 0.7962 0.62786 0.0
Cd99 Cd 0.85856 0.80279 0.6927 0.0
Cd100 Cd 0.7837 0.9154 0.67587 0.0
O101 O 0.77361 0.87024 0.61786 0.0
O102 O 0.89037 0.72216 0.70895 0.0
O103 O 0.80906 0.76137 0.73792 0.0
C104 C 0.84636 0.71749 0.73568 0.0
C105 C 0.72306 0.99693 0.69514 0.0
C106 C 0.80229 0.82521 0.60358 0.0
C107 C 0.91624 0.92168 0.70662 0.0
O108 O 0.86775 0.94325 0.69264 0.0
O109 O 0.92226 0.8655 0.71077 0.0
O110 O 0.75512 0.99715 0.6608 0.0
O111 O 0.71914 0.94711 0.71596 0.0
C112 C 0.06812 0.99139 0.30181 0.0
C113 C 0.04906 0.05104 0.30238 0.0
C114 C 0.02648 0.94422 0.30133 0.0
C115 C 0.96416 0.95483 0.30129 0.0
H116 H 0.11531 0.9809 0.30438 0.0
H117 H 0.04347 0.89899 0.30316 0.0
S118 S 0.89157 0.1032 0.29413 0.0
N119 N 0.96403 0.11844 0.29626 0.0
N120 N 0.88589 0.02949 0.29582 0.0
C121 C 0.94466 0.01419 0.29783 0.0
C122 C 0.9871 0.06236 0.29836 0.0
C123 C 0.51286 0.56299 0.818 0.0
C124 C 0.45313 0.54316 0.8197 0.0
C125 C 0.55996 0.52206 0.81757 0.0
C126 C 0.54916 0.45969 0.81852 0.0
H127 H 0.52351 0.61038 0.81892 0.0
H128 H 0.60535 0.53972 0.81775 0.0
S129 S 0.40012 0.38485 0.81679 0.0
N130 N 0.38517 0.45709 0.81757 0.0
N131 N 0.47394 0.38029 0.81696 0.0
C132 C 0.48952 0.43926 0.81738 0.0
C133 C 0.44146 0.48096 0.818 0.0
C134 C 0.49936 0.46176 0.20935 0.0
C135 C 0.56152 0.47175 0.20443 0.0
C136 C 0.45859 0.50885 0.20716 0.0
C137 C 0.47839 0.56754 0.19934 0.0
H138 H 0.48174 0.41682 0.21369 0.0
H139 H 0.41114 0.49875 0.20976 0.0
S140 S 0.63667 0.61896 0.18966 0.0
N141 N 0.64116 0.54572 0.19569 0.0
N142 N 0.56447 0.63439 0.19101 0.0
C143 C 0.54058 0.57878 0.19673 0.0
C144 C 0.58219 0.53085 0.19954 0.0
C145 C 1.00313 0.06773 0.71355 0.0
C146 C 0.06269 0.04878 0.71676 0.0
C147 C 0.95594 0.02615 0.71274 0.0
C148 C 0.96644 0.96397 0.71516 0.0
H149 H 0.99295 0.11464 0.70912 0.0
H150 H 0.91101 0.04307 0.70829 0.0
S151 S 0.1139 0.89229 0.73225 0.0
N152 N 0.12935 0.9645 0.72877 0.0
N153 N 0.04048 0.88635 0.72678 0.0
C154 C 0.02542 0.94481 0.72207 0.0
C155 C 0.07358 0.98722 0.72296 0.0
C156 C 0.17554 0.24242 0.49369 0.0
C157 C 0.20987 0.20883 0.46438 0.0
C158 C 0.18344 0.23695 0.53829 0.0
C159 C 0.22589 0.19743 0.55576 0.0
H160 H 0.14033 0.27144 0.48229 0.0
H161 H 0.1538 0.26196 0.55917 0.0
S162 S 0.33399 0.10626 0.49311 0.0
N163 N 0.29322 0.13987 0.4562 0.0
N164 N 0.30767 0.12942 0.53991 0.0
C165 C 0.26349 0.16674 0.52685 0.0
C166 C 0.2556 0.17247 0.4813 0.0
C167 C 0.32883 0.75282 0.98385 0.0
C168 C 0.2859 0.71203 0.96745 0.0
C169 C 0.33604 0.76182 0.02828 0.0
C170 C 0.30061 0.73047 0.05835 0.0
H171 H 0.35966 0.77568 0.9624 0.0
H172 H 0.37219 0.79088 0.03901 0.0
S173 S 0.1734 0.62815 0.03227 0.0
N174 N 0.20134 0.64696 0.98493 0.0
N175 N 0.21466 0.66401 0.06829 0.0
C176 C 0.25381 0.69383 0.04236 0.0
C177 C 0.24652 0.68459 0.99702 0.0
C178 C 0.84472 0.77292 0.53894 0.0
C179 C 0.80086 0.81083 0.55667 0.0
C180 C 0.8515 0.7664 0.49428 0.0
C181 C 0.81461 0.79731 0.46524 0.0
H182 H 0.87622 0.75015 0.5596 0.0
H183 H 0.88779 0.73883 0.48258 0.0
S184 S 0.68625 0.8943 0.495 0.0
N185 N 0.71524 0.87409 0.54156 0.0
N186 N 0.72755 0.86164 0.45775 0.0
C187 C 0.76766 0.83192 0.48253 0.0
C188 C 0.76092 0.83872 0.52812 0.0
C189 C 0.68274 0.2674 0.98436 0.0
C190 C 0.72617 0.30596 0.96616 0.0
C191 C 0.67673 0.2614 0.02908 0.0
C192 C 0.71406 0.29345 0.05768 0.0
H193 H 0.65059 0.24415 0.96408 0.0
H194 H 0.64031 0.23384 0.04119 0.0
S195 S 0.84285 0.39092 0.02647 0.0
N196 N 0.81279 0.36989 0.98024 0.0
N197 N 0.80204 0.35833 0.06419 0.0
C198 C 0.76128 0.32784 0.03987 0.0
C199 C 0.76716 0.3342 0.99421 0.0
C200 C 0.46183 0.16792 0.25008 0.0
C201 C 0.46264 0.20472 0.21337 0.0
C202 C 0.40798 0.15466 0.27174 0.0
C203 C 0.35301 0.17874 0.25811 0.0
H204 H 0.50329 0.15049 0.2629 0.0
H205 H 0.40988 0.12724 0.30041 0.0
S206 S 0.32955 0.2741 0.16215 0.0
N207 N 0.40239 0.26185 0.1628 0.0
N208 N 0.30208 0.23795 0.20412 0.0
C209 C 0.35281 0.21385 0.22069 0.0
C210 C 0.40733 0.22648 0.19815 0.0
C211 C 0.30366 0.85089 0.72725 0.0
C212 C 0.34246 0.84898 0.76285 0.0
C213 C 0.29513 0.90393 0.70414 0.0
C214 C 0.32425 0.95777 0.71601 0.0
H215 H 0.27853 0.81136 0.71761 0.0
H216 H 0.26294 0.90316 0.67804 0.0
S217 S 0.43426 0.97605 0.80465 0.0
N218 N 0.41379 0.90491 0.80703 0.0
N219 N 0.39648 1.00489 0.76409 0.0
C220 C 0.36503 0.95606 0.75045 0.0
C221 C 0.37446 0.90166 0.77369 0.0
C222 C 0.62665 0.87436 0.24603 0.0
C223 C 0.65075 0.82974 0.27271 0.0
C224 C 0.57045 0.86639 0.22609 0.0
C225 C 0.53543 0.81498 0.23403 0.0
H226 H 0.65234 0.91465 0.23935 0.0
H227 H 0.55465 0.90016 0.20396 0.0
S228 S 0.57724 0.6865 0.30281 0.0
N229 N 0.63516 0.73284 0.30623 0.0
N230 N 0.52838 0.71947 0.27097 0.0
C231 C 0.55823 0.77121 0.26187 0.0
C232 C 0.61619 0.77821 0.28071 0.0
C233 C 0.65495 0.10716 0.77449 0.0
C234 C 0.67771 0.16269 0.76021 0.0
C235 C 0.66671 0.05389 0.75192 0.0
C236 C 0.70082 0.05415 0.71377 0.0
H237 H 0.63003 0.10436 0.80438 0.0
H238 H 0.65079 0.012 0.76539 0.0
S239 S 0.76393 0.18924 0.65982 0.0
N240 N 0.7314 0.21545 0.70365 0.0
N241 N 0.75251 0.11616 0.6607 0.0
C242 C 0.7205 0.11007 0.69772 0.0
C243 C 0.70932 0.16406 0.7211 0.0
C244 C 0.96334 0.35044 0.27501 0.0
C245 C 0.96292 0.31371 0.31174 0.0
C246 C 0.91031 0.36259 0.2524 0.0
C247 C 0.85486 0.33767 0.26517 0.0
H248 H 1.00524 0.36826 0.26266 0.0
H249 H 0.91333 0.3897 0.22361 0.0
S250 S 0.82803 0.24307 0.36135 0.0
N251 N 0.90089 0.25638 0.36176 0.0
N252 N 0.80202 0.27838 0.31877 0.0
C253 C 0.8533 0.30311 0.30287 0.0
C254 C 0.90706 0.29146 0.3263 0.0
C255 C 0.20797 0.35823 0.79625 0.0
C256 C 0.17662 0.35693 0.75704 0.0
C257 C 0.21498 0.41151 0.81974 0.0
C258 C 0.19203 0.4662 0.80462 0.0
H259 H 0.22801 0.31783 0.80875 0.0
H260 H 0.24126 0.41011 0.84903 0.0
S261 S 0.10383 0.48669 0.70464 0.0
N262 N 0.11955 0.41456 0.70509 0.0
N263 N 0.1344 0.51511 0.7487 0.0
C264 C 0.15912 0.46531 0.76603 0.0
C265 C 0.15098 0.41065 0.74242 0.0
C266 C 0.12146 0.65171 0.25413 0.0
C267 C 0.17484 0.68132 0.26643 0.0
C268 C 0.06736 0.66111 0.27634 0.0
C269 C 0.06469 0.69957 0.31227 0.0
H270 H 0.12078 0.62305 0.22593 0.0
H271 H 0.02698 0.63964 0.26431 0.0
S272 S 0.19367 0.78258 0.36042 0.0
N273 N 0.22263 0.74713 0.31871 0.0
N274 N 0.12195 0.76389 0.36104 0.0
C275 C 0.1187 0.72662 0.3264 0.0
C276 C 0.17343 0.71783 0.30331 0.0
C277 C 0.84919 0.55397 0.76982 0.0
C278 C 0.81527 0.55373 0.80806 0.0
C279 C 0.86092 0.60744 0.74745 0.0
C280 C 0.83812 0.66258 0.76195 0.0
H281 H 0.86534 0.51234 0.75631 0.0
H282 H 0.88603 0.60512 0.71763 0.0
S283 S 0.75102 0.68763 0.86205 0.0
N284 N 0.76279 0.6148 0.86103 0.0
N285 N 0.78375 0.71439 0.81842 0.0
C286 C 0.80615 0.6634 0.80091 0.0
C287 C 0.79512 0.60927 0.82412 0.0
loop_
_geom_bond_atom_site_label_1
_geom_bond_atom_site_label_2
_geom_bond_distance
_geom_bond_site_symmetry_2
_ccdc_geom_bond_type
O0 Cd1 2.223 . S
O0 C8 1.315 . S
Cd1 O0 2.223 . S
Cd1 O4 2.297 . S
Cd1 O5 2.439 . S
Cd1 O11 2.240 . S
Cd2 O3 2.240 . S
Cd2 O10 2.221 1_455 S
Cd2 O12 2.297 1_455 S
Cd2 O13 2.439 . S
O3 Cd2 2.240 . S
O3 C8 1.279 . S
O4 Cd1 2.297 . S
O4 C6 1.247 . S
O5 Cd1 2.439 . S
O5 C6 1.208 . S
C6 O4 1.247 . S
C6 O5 1.208 . S
C7 O12 1.247 . S
C7 O13 1.208 1_655 S
C8 O0 1.315 . S
C8 O3 1.279 . S
C9 O10 1.308 1_455 S
C9 O11 1.279 . S
O10 Cd2 2.221 1_655 S
O10 C9 1.308 1_655 S
O11 Cd1 2.240 . S
O11 C9 1.279 . S
O12 Cd2 2.297 1_655 S
O12 C7 1.247 . S
O13 Cd2 2.439 . S
O13 C7 1.208 1_455 S
O14 Cd15 2.223 . S
O14 C22 1.315 . S
Cd15 O14 2.223 . S
Cd15 O18 2.297 . S
Cd15 O19 2.439 . S
Cd15 O25 2.240 . S
Cd16 O17 2.240 . S
Cd16 O24 2.223 . S
Cd16 O26 2.297 . S
Cd16 O27 2.439 . S
O17 Cd16 2.240 . S
O17 C22 1.279 . S
O18 Cd15 2.297 . S
O18 C20 1.247 . S
O19 Cd15 2.439 . S
O19 C20 1.208 . S
C20 O18 1.247 . S
C20 O19 1.208 . S
C21 O26 1.247 . S
C21 O27 1.208 . S
C22 O14 1.315 . S
C22 O17 1.279 . S
C23 O24 1.315 . S
C23 O25 1.279 . S
O24 Cd16 2.223 . S
O24 C23 1.315 . S
O25 Cd15 2.240 . S
O25 C23 1.279 . S
O26 Cd16 2.297 . S
O26 C21 1.247 . S
O27 Cd16 2.439 . S
O27 C21 1.208 . S
O28 Cd29 2.223 . S
O28 C36 1.315 . S
Cd29 O28 2.223 . S
Cd29 O32 2.297 . S
Cd29 O33 2.439 . S
Cd29 O39 2.240 . S
Cd30 O31 2.240 . S
Cd30 O38 2.221 1_655 S
Cd30 O40 2.297 1_655 S
Cd30 O41 2.439 . S
O31 Cd30 2.240 . S
O31 C36 1.279 . S
O32 Cd29 2.297 . S
O32 C34 1.247 . S
O33 Cd29 2.439 . S
O33 C34 1.208 . S
C34 O32 1.247 . S
C34 O33 1.208 . S
C35 O40 1.247 . S
C35 O41 1.208 1_455 S
C36 O28 1.315 . S
C36 O31 1.279 . S
C37 O38 1.308 1_655 S
C37 O39 1.279 . S
O38 Cd30 2.221 1_455 S
O38 C37 1.308 1_455 S
O39 Cd29 2.240 . S
O39 C37 1.279 . S
O40 Cd30 2.297 1_455 S
O40 C35 1.247 . S
O41 Cd30 2.439 . S
O41 C35 1.208 1_655 S
O42 Cd43 2.223 . S
O42 C50 1.315 . S
Cd43 O42 2.223 . S
Cd43 O46 2.297 . S
Cd43 O47 2.439 . S
Cd43 O53 2.240 . S
Cd44 O45 2.240 . S
Cd44 O52 2.223 . S
Cd44 O54 2.297 . S
Cd44 O55 2.439 . S
O45 Cd44 2.240 . S
O45 C50 1.279 . S
O46 Cd43 2.297 . S
O46 C48 1.247 . S
O47 Cd43 2.439 . S
O47 C48 1.208 . S
C48 O46 1.247 . S
C48 O47 1.208 . S
C49 O54 1.247 . S
C49 O55 1.208 . S
C50 O42 1.315 . S
C50 O45 1.279 . S
C51 O52 1.315 . S
C51 O53 1.279 . S
O52 Cd44 2.223 . S
O52 C51 1.315 . S
O53 Cd43 2.240 . S
O53 C51 1.279 . S
O54 Cd44 2.297 . S
O54 C49 1.247 . S
O55 Cd44 2.439 . S
O55 C49 1.208 . S
O56 Cd57 2.223 . S
O56 C64 1.315 . S
Cd57 O56 2.223 . S
Cd57 O60 2.297 . S
Cd57 O61 2.439 . S
Cd57 O67 2.240 . S
Cd58 O59 2.240 . S
Cd58 O66 2.223 . S
Cd58 O68 2.297 . S
Cd58 O69 2.439 . S
O59 Cd58 2.240 . S
O59 C64 1.279 . S
O60 Cd57 2.297 . S
O60 C62 1.247 . S
O61 Cd57 2.439 . S
O61 C62 1.208 . S
C62 O60 1.247 . S
C62 O61 1.208 . S
C63 O68 1.247 . S
C63 O69 1.208 . S
C64 O56 1.315 . S
C64 O59 1.279 . S
C65 O66 1.315 . S
C65 O67 1.279 . S
O66 Cd58 2.223 . S
O66 C65 1.315 . S
O67 Cd57 2.240 . S
O67 C65 1.279 . S
O68 Cd58 2.297 . S
O68 C63 1.247 . S
O69 Cd58 2.439 . S
O69 C63 1.208 . S
O70 Cd71 2.223 . S
O70 C78 1.315 . S
Cd71 O70 2.223 . S
Cd71 O74 2.297 . S
Cd71 O75 2.439 . S
Cd71 O81 2.240 . S
Cd72 O73 2.240 . S
Cd72 O80 2.221 1_545 S
Cd72 O82 2.297 1_545 S
Cd72 O83 2.439 . S
O73 Cd72 2.240 . S
O73 C78 1.279 . S
O74 Cd71 2.297 . S
O74 C76 1.247 . S
O75 Cd71 2.439 . S
O75 C76 1.208 . S
C76 O74 1.247 . S
C76 O75 1.208 . S
C77 O82 1.247 . S
C77 O83 1.208 1_565 S
C78 O70 1.315 . S
C78 O73 1.279 . S
C79 O80 1.308 1_545 S
C79 O81 1.279 . S
O80 Cd72 2.221 1_565 S
O80 C79 1.308 1_565 S
O81 Cd71 2.240 . S
O81 C79 1.279 . S
O82 Cd72 2.297 1_565 S
O82 C77 1.247 . S
O83 Cd72 2.439 . S
O83 C77 1.208 1_545 S
O84 Cd85 2.223 . S
O84 C92 1.315 . S
Cd85 O84 2.223 . S
Cd85 O88 2.297 . S
Cd85 O89 2.439 . S
Cd85 O95 2.240 . S
Cd86 O87 2.240 . S
Cd86 O94 2.223 . S
Cd86 O96 2.297 . S
Cd86 O97 2.439 . S
O87 Cd86 2.240 . S
O87 C92 1.279 . S
O88 Cd85 2.297 . S
O88 C90 1.247 . S
O89 Cd85 2.439 . S
O89 C90 1.208 . S
C90 O88 1.247 . S
C90 O89 1.208 . S
C91 O96 1.247 . S
C91 O97 1.208 . S
C92 O84 1.315 . S
C92 O87 1.279 . S
C93 O94 1.315 . S
C93 O95 1.279 . S
O94 Cd86 2.223 . S
O94 C93 1.315 . S
O95 Cd85 2.240 . S
O95 C93 1.279 . S
O96 Cd86 2.297 . S
O96 C91 1.247 . S
O97 Cd86 2.439 . S
O97 C91 1.208 . S
O98 Cd99 2.223 . S
O98 C106 1.315 . S
Cd99 O98 2.223 . S
Cd99 O102 2.297 . S
Cd99 O103 2.439 . S
Cd99 O109 2.240 . S
Cd100 O101 2.240 . S
Cd100 O108 2.221 1_565 S
Cd100 O110 2.297 1_565 S
Cd100 O111 2.439 . S
O101 Cd100 2.240 . S
O101 C106 1.279 . S
O102 Cd99 2.297 . S
O102 C104 1.247 . S
O103 Cd99 2.439 . S
O103 C104 1.208 . S
C104 O102 1.247 . S
C104 O103 1.208 . S
C105 O110 1.247 . S
C105 O111 1.208 1_545 S
C106 O98 1.315 . S
C106 O101 1.279 . S
C107 O108 1.308 1_565 S
C107 O109 1.279 . S
O108 Cd100 2.221 1_545 S
O108 C107 1.308 1_545 S
O109 Cd99 2.240 . S
O109 C107 1.279 . S
O110 Cd100 2.297 1_545 S
O110 C105 1.247 . S
O111 Cd100 2.439 . S
O111 C105 1.208 1_565 S
C112 C113 1.369 . S
C112 C114 1.419 1_545 S
C112 H116 0.930 . S
C113 C112 1.369 . S
C113 C122 1.429 1_455 S
C114 C112 1.419 1_565 S
C114 C115 1.363 1_455 S
C114 H117 0.929 . S
C115 C114 1.363 1_655 S
C115 C121 1.428 . S
H116 C112 0.930 . S
H117 C114 0.929 . S
S118 N119 1.613 . S
S118 N120 1.610 1_545 S
N119 S118 1.613 . S
N119 C122 1.350 . S
N120 S118 1.610 1_565 S
N120 C121 1.351 . S
C121 C115 1.428 . S
C121 N120 1.351 . S
C121 C122 1.434 1_565 S
C122 C113 1.429 1_655 S
C122 N119 1.350 . S
C122 C121 1.434 1_545 S
C123 C124 1.369 . S
C123 C125 1.419 . S
C123 H127 0.930 . S
C124 C123 1.369 . S
C124 C133 1.429 . S
C125 C123 1.419 . S
C125 C126 1.363 . S
C125 H128 0.929 . S
C126 C125 1.363 . S
C126 C132 1.428 . S
H127 C123 0.930 . S
H128 C125 0.929 . S
S129 N130 1.613 . S
S129 N131 1.610 . S
N130 S129 1.613 . S
N130 C133 1.350 . S
N131 S129 1.610 . S
N131 C132 1.351 . S
C132 C126 1.428 . S
C132 N131 1.351 . S
C132 C133 1.434 . S
C133 C124 1.429 . S
C133 N130 1.350 . S
C133 C132 1.434 . S
C134 C135 1.369 . S
C134 C136 1.419 . S
C134 H138 0.930 . S
C135 C134 1.369 . S
C135 C144 1.429 . S
C136 C134 1.419 . S
C136 C137 1.363 . S
C136 H139 0.929 . S
C137 C136 1.363 . S
C137 C143 1.428 . S
H138 C134 0.930 . S
H139 C136 0.929 . S
S140 N141 1.613 . S
S140 N142 1.610 . S
N141 S140 1.613 . S
N141 C144 1.350 . S
N142 S140 1.610 . S
N142 C143 1.351 . S
C143 C137 1.428 . S
C143 N142 1.351 . S
C143 C144 1.434 . S
C144 C135 1.429 . S
C144 N141 1.350 . S
C144 C143 1.434 . S
C145 C146 1.369 . S
C145 C147 1.419 1_455 S
C145 H149 0.930 . S
C146 C145 1.369 . S
C146 C155 1.429 1_545 S
C147 C145 1.419 1_655 S
C147 C148 1.363 1_545 S
C147 H150 0.929 . S
C148 C147 1.363 1_565 S
C148 C154 1.428 . S
H149 C145 0.930 . S
H150 C147 0.929 . S
S151 N152 1.613 . S
S151 N153 1.610 1_455 S
N152 S151 1.613 . S
N152 C155 1.350 . S
N153 S151 1.610 1_655 S
N153 C154 1.351 . S
C154 C148 1.428 . S
C154 N153 1.351 . S
C154 C155 1.434 1_655 S
C155 C146 1.429 1_565 S
C155 N152 1.350 . S
C155 C154 1.434 1_455 S
C156 C157 1.369 . S
C156 C158 1.419 . S
C156 H160 0.930 . S
C157 C156 1.369 . S
C157 C166 1.429 . S
C158 C156 1.419 . S
C158 C159 1.363 . S
C158 H161 0.929 . S
C159 C158 1.363 . S
C159 C165 1.428 . S
H160 C156 0.930 . S
H161 C158 0.929 . S
S162 N163 1.613 . S
S162 N164 1.610 . S
N163 S162 1.613 . S
N163 C166 1.350 . S
N164 S162 1.610 . S
N164 C165 1.351 . S
C165 C159 1.428 . S
C165 N164 1.351 . S
C165 C166 1.434 . S
C166 C157 1.429 . S
C166 N163 1.350 . S
C166 C165 1.434 . S
C167 C168 1.369 . S
C167 C169 1.419 1_556 S
C167 H171 0.930 . S
C168 C167 1.369 . S
C168 C177 1.429 . S
C169 C167 1.419 1_554 S
C169 C170 1.363 . S
C169 H172 0.929 . S
C170 C169 1.363 . S
C170 C176 1.428 . S
H171 C167 0.930 . S
H172 C169 0.929 . S
S173 N174 1.613 1_554 S
S173 N175 1.610 . S
N174 S173 1.613 1_556 S
N174 C177 1.350 . S
N175 S173 1.610 . S
N175 C176 1.351 . S
C176 C170 1.428 . S
C176 N175 1.351 . S
C176 C177 1.434 1_554 S
C177 C168 1.429 . S
C177 N174 1.350 . S
C177 C176 1.434 1_556 S
C178 C179 1.369 . S
C178 C180 1.419 . S
C178 H182 0.930 . S
C179 C178 1.369 . S
C179 C188 1.429 . S
C180 C178 1.419 . S
C180 C181 1.363 . S
C180 H183 0.929 . S
C181 C180 1.363 . S
C181 C187 1.428 . S
H182 C178 0.930 . S
H183 C180 0.929 . S
S184 N185 1.613 . S
S184 N186 1.610 . S
N185 S184 1.613 . S
N185 C188 1.350 . S
N186 S184 1.610 . S
N186 C187 1.351 . S
C187 C181 1.428 . S
C187 N186 1.351 . S
C187 C188 1.434 . S
C188 C179 1.429 . S
C188 N185 1.350 . S
C188 C187 1.434 . S
C189 C190 1.369 . S
C189 C191 1.419 1_556 S
C189 H193 0.930 . S
C190 C189 1.369 . S
C190 C199 1.429 . S
C191 C189 1.419 1_554 S
C191 C192 1.363 . S
C191 H194 0.929 . S
C192 C191 1.363 . S
C192 C198 1.428 . S
H193 C189 0.930 . S
H194 C191 0.929 . S
S195 N196 1.613 1_554 S
S195 N197 1.610 . S
N196 S195 1.613 1_556 S
N196 C199 1.350 . S
N197 S195 1.610 . S
N197 C198 1.351 . S
C198 C192 1.428 . S
C198 N197 1.351 . S
C198 C199 1.434 1_554 S
C199 C190 1.429 . S
C199 N196 1.350 . S
C199 C198 1.434 1_556 S
C200 C201 1.369 . S
C200 C202 1.419 . S
C200 H204 0.930 . S
C201 C200 1.369 . S
C201 C210 1.429 . S
C202 C200 1.419 . S
C202 C203 1.363 . S
C202 H205 0.929 . S
C203 C202 1.363 . S
C203 C209 1.428 . S
H204 C200 0.930 . S
H205 C202 0.929 . S
S206 N207 1.613 . S
S206 N208 1.610 . S
N207 S206 1.613 . S
N207 C210 1.350 . S
N208 S206 1.610 . S
N208 C209 1.351 . S
C209 C203 1.428 . S
C209 N208 1.351 . S
C209 C210 1.434 . S
C210 C201 1.429 . S
C210 N207 1.350 . S
C210 C209 1.434 . S
C211 C212 1.369 . S
C211 C213 1.419 . S
C211 H215 0.930 . S
C212 C211 1.369 . S
C212 C221 1.429 . S
C213 C211 1.419 . S
C213 C214 1.363 . S
C213 H216 0.929 . S
C214 C213 1.363 . S
C214 C220 1.428 . S
H215 C211 0.930 . S
H216 C213 0.929 . S
S217 N218 1.613 . S
S217 N219 1.610 . S
N218 S217 1.613 . S
N218 C221 1.350 . S
N219 S217 1.610 . S
N219 C220 1.351 . S
C220 C214 1.428 . S
C220 N219 1.351 . S
C220 C221 1.434 . S
C221 C212 1.429 . S
C221 N218 1.350 . S
C221 C220 1.434 . S
C222 C223 1.369 . S
C222 C224 1.419 . S
C222 H226 0.930 . S
C223 C222 1.369 . S
C223 C232 1.429 . S
C224 C222 1.419 . S
C224 C225 1.363 . S
C224 H227 0.929 . S
C225 C224 1.363 . S
C225 C231 1.428 . S
H226 C222 0.930 . S
H227 C224 0.929 . S
S228 N229 1.613 . S
S228 N230 1.610 . S
N229 S228 1.613 . S
N229 C232 1.350 . S
N230 S228 1.610 . S
N230 C231 1.351 . S
C231 C225 1.428 . S
C231 N230 1.351 . S
C231 C232 1.434 . S
C232 C223 1.429 . S
C232 N229 1.350 . S
C232 C231 1.434 . S
C233 C234 1.369 . S
C233 C235 1.419 . S
C233 H237 0.930 . S
C234 C233 1.369 . S
C234 C243 1.429 . S
C235 C233 1.419 . S
C235 C236 1.363 . S
C235 H238 0.929 . S
C236 C235 1.363 . S
C236 C242 1.428 . S
H237 C233 0.930 . S
H238 C235 0.929 . S
S239 N240 1.613 . S
S239 N241 1.610 . S
N240 S239 1.613 . S
N240 C243 1.350 . S
N241 S239 1.610 . S
N241 C242 1.351 . S
C242 C236 1.428 . S
C242 N241 1.351 . S
C242 C243 1.434 . S
C243 C234 1.429 . S
C243 N240 1.350 . S
C243 C242 1.434 . S
C244 C245 1.369 . S
C244 C246 1.419 . S
C244 H248 0.930 . S
C245 C244 1.369 . S
C245 C254 1.429 . S
C246 C244 1.419 . S
C246 C247 1.363 . S
C246 H249 0.929 . S
C247 C246 1.363 . S
C247 C253 1.428 . S
H248 C244 0.930 . S
H249 C246 0.929 . S
S250 N251 1.613 . S
S250 N252 1.610 . S
N251 S250 1.613 . S
N251 C254 1.350 . S
N252 S250 1.610 . S
N252 C253 1.351 . S
C253 C247 1.428 . S
C253 N252 1.351 . S
C253 C254 1.434 . S
C254 C245 1.429 . S
C254 N251 1.350 . S
C254 C253 1.434 . S
C255 C256 1.369 . S
C255 C257 1.419 . S
C255 H259 0.930 . S
C256 C255 1.369 . S
C256 C265 1.429 . S
C257 C255 1.419 . S
C257 C258 1.363 . S
C257 H260 0.929 . S
C258 C257 1.363 . S
C258 C264 1.428 . S
H259 C255 0.930 . S
H260 C257 0.929 . S
S261 N262 1.613 . S
S261 N263 1.610 . S
N262 S261 1.613 . S
N262 C265 1.350 . S
N263 S261 1.610 . S
N263 C264 1.351 . S
C264 C258 1.428 . S
C264 N263 1.351 . S
C264 C265 1.434 . S
C265 C256 1.429 . S
C265 N262 1.350 . S
C265 C264 1.434 . S
C266 C267 1.369 . S
C266 C268 1.419 . S
C266 H270 0.930 . S
C267 C266 1.369 . S
C267 C276 1.429 . S
C268 C266 1.419 . S
C268 C269 1.363 . S
C268 H271 0.929 . S
C269 C268 1.363 . S
C269 C275 1.428 . S
H270 C266 0.930 . S
H271 C268 0.929 . S
S272 N273 1.613 . S
S272 N274 1.610 . S
N273 S272 1.613 . S
N273 C276 1.350 . S
N274 S272 1.610 . S
N274 C275 1.351 . S
C275 C269 1.428 . S
C275 N274 1.351 . S
C275 C276 1.434 . S
C276 C267 1.429 . S
C276 N273 1.350 . S
C276 C275 1.434 . S
C277 C278 1.369 . S
C277 C279 1.419 . S
C277 H281 0.930 . S
C278 C277 1.369 . S
C278 C287 1.429 . S
C279 C277 1.419 . S
C279 C280 1.363 . S
C279 H282 0.929 . S
C280 C279 1.363 . S
C280 C286 1.428 . S
H281 C277 0.930 . S
H282 C279 0.929 . S
S283 N284 1.613 . S
S283 N285 1.610 . S
N284 S283 1.613 . S
N284 C287 1.350 . S
N285 S283 1.610 . S
N285 C286 1.351 . S
C286 C280 1.428 . S
C286 N285 1.351 . S
C286 C287 1.434 . S
C287 C278 1.429 . S
C287 N284 1.350 . S
C287 C286 1.434 . S
C113 C9 1.058 . S
C115 C37 1.062 . S
C124 C23 1.060 . S
C126 C51 1.060 . S
C135 C65 1.063 . S
C137 C93 1.057 . S
C146 C79 1.057 . S
C148 C107 1.062 . S
C157 C8 1.391 . S
C159 C78 1.395 . S
C168 C22 1.393 . S
C170 C92 1.394 . S
C179 C106 1.397 . S
C181 C36 1.390 . S
C190 C50 1.394 . S
C192 C64 1.393 . S
C201 C63 1.742 . S
C203 C6 1.669 . S
C212 C20 1.667 . S
C214 C77 1.749 . S
C223 C34 1.672 . S
C225 C91 1.744 . S
C234 C48 1.671 . S
C236 C105 1.743 . S
C245 C7 1.745 . S
C247 C62 1.665 . S
C256 C76 1.672 . S
C258 C21 1.746 . S
C267 C90 1.673 . S
C269 C35 1.744 . S
C278 C49 1.746 . S
C280 C104 1.664 . S
