# Generated by pormake.
# Topology sod-f, (3)-cn, num edge types: 1
# Building blocks:
#     Node 0, Type 0, BuildingBlock: OLANEW_clean_sbu_2, # of connection points: 3
#     Node 1, Type 0, BuildingBlock: OLANEW_clean_sbu_2, # of connection points: 3
#     Node 2, Type 0, BuildingBlock: OLANEW_clean_sbu_2, # of connection points: 3
#     Node 3, Type 0, BuildingBlock: OLANEW_clean_sbu_2, # of connection points: 3
#     Node 4, Type 0, BuildingBlock: OLANEW_clean_sbu_2, # of connection points: 3
#     Node 5, Type 0, BuildingBlock: OLANEW_clean_sbu_2, # of connection points: 3
#     Node 6, Type 0, BuildingBlock: OLANEW_clean_sbu_2, # of connection points: 3
#     Node 7, Type 0, BuildingBlock: OLANEW_clean_sbu_2, # of connection points: 3
#     Node 8, Type 0, BuildingBlock: OLANEW_clean_sbu_2, # of connection points: 3
#     Node 9, Type 0, BuildingBlock: OLANEW_clean_sbu_2, # of connection points: 3
#     Node 10, Type 0, BuildingBlock: OLANEW_clean_sbu_2, # of connection points: 3
#     Node 11, Type 0, BuildingBlock: OLANEW_clean_sbu_2, # of connection points: 3
#     Node 12, Type 0, BuildingBlock: OLANEW_clean_sbu_2, # of connection points: 3
#     Node 13, Type 0, BuildingBlock: OLANEW_clean_sbu_2, # of connection points: 3
#     Node 14, Type 0, BuildingBlock: OLANEW_clean_sbu_2, # of connection points: 3
#     Node 15, Type 0, BuildingBlock: OLANEW_clean_sbu_2, # of connection points: 3
#     Node 16, Type 0, BuildingBlock: OLANEW_clean_sbu_2, # of connection points: 3
#     Node 17, Type 0, BuildingBlock: OLANEW_clean_sbu_2, # of connection points: 3
#     Node 18, Type 0, BuildingBlock: OLANEW_clean_sbu_2, # of connection points: 3
#     Node 19, Type 0, BuildingBlock: OLANEW_clean_sbu_2, # of connection points: 3
#     Node 20, Type 0, BuildingBlock: OLANEW_clean_sbu_2, # of connection points: 3
#     Node 21, Type 0, BuildingBlock: OLANEW_clean_sbu_2, # of connection points: 3
#     Node 22, Type 0, BuildingBlock: OLANEW_clean_sbu_2, # of connection points: 3
#     Node 23, Type 0, BuildingBlock: OLANEW_clean_sbu_2, # of connection points: 3
#     Node 24, Type 0, BuildingBlock: OLANEW_clean_sbu_2, # of connection points: 3
#     Node 25, Type 0, BuildingBlock: OLANEW_clean_sbu_2, # of connection points: 3
#     Node 26, Type 0, BuildingBlock: OLANEW_clean_sbu_2, # of connection points: 3
#     Node 27, Type 0, BuildingBlock: OLANEW_clean_sbu_2, # of connection points: 3
#     Node 28, Type 0, BuildingBlock: OLANEW_clean_sbu_2, # of connection points: 3
#     Node 29, Type 0, BuildingBlock: OLANEW_clean_sbu_2, # of connection points: 3
#     Node 30, Type 0, BuildingBlock: OLANEW_clean_sbu_2, # of connection points: 3
#     Node 31, Type 0, BuildingBlock: OLANEW_clean_sbu_2, # of connection points: 3
#     Node 32, Type 0, BuildingBlock: OLANEW_clean_sbu_2, # of connection points: 3
#     Node 33, Type 0, BuildingBlock: OLANEW_clean_sbu_2, # of connection points: 3
#     Node 34, Type 0, BuildingBlock: OLANEW_clean_sbu_2, # of connection points: 3
#     Node 35, Type 0, BuildingBlock: OLANEW_clean_sbu_2, # of connection points: 3
#     Node 36, Type 0, BuildingBlock: OLANEW_clean_sbu_2, # of connection points: 3
#     Node 37, Type 0, BuildingBlock: OLANEW_clean_sbu_2, # of connection points: 3
#     Node 38, Type 0, BuildingBlock: OLANEW_clean_sbu_2, # of connection points: 3
#     Node 39, Type 0, BuildingBlock: OLANEW_clean_sbu_2, # of connection points: 3
#     Node 40, Type 0, BuildingBlock: OLANEW_clean_sbu_2, # of connection points: 3
#     Node 41, Type 0, BuildingBlock: OLANEW_clean_sbu_2, # of connection points: 3
#     Node 42, Type 0, BuildingBlock: OLANEW_clean_sbu_2, # of connection points: 3
#     Node 43, Type 0, BuildingBlock: OLANEW_clean_sbu_2, # of connection points: 3
#     Node 44, Type 0, BuildingBlock: OLANEW_clean_sbu_2, # of connection points: 3
#     Node 45, Type 0, BuildingBlock: OLANEW_clean_sbu_2, # of connection points: 3
#     Node 46, Type 0, BuildingBlock: OLANEW_clean_sbu_2, # of connection points: 3
#     Node 47, Type 0, BuildingBlock: OLANEW_clean_sbu_2, # of connection points: 3
#     Edge 48, Type (0, 0), None
#     Edge 49, Type (0, 0), None
#     Edge 50, Type (0, 0), None
#     Edge 51, Type (0, 0), None
#     Edge 52, Type (0, 0), None
#     Edge 53, Type (0, 0), None
#     Edge 54, Type (0, 0), None
#     Edge 55, Type (0, 0), None
#     Edge 56, Type (0, 0), None
#     Edge 57, Type (0, 0), None
#     Edge 58, Type (0, 0), None
#     Edge 59, Type (0, 0), None
#     Edge 60, Type (0, 0), None
#     Edge 61, Type (0, 0), None
#     Edge 62, Type (0, 0), None
#     Edge 63, Type (0, 0), None
#     Edge 64, Type (0, 0), None
#     Edge 65, Type (0, 0), None
#     Edge 66, Type (0, 0), None
#     Edge 67, Type (0, 0), None
#     Edge 68, Type (0, 0), None
#     Edge 69, Type (0, 0), None
#     Edge 70, Type (0, 0), None
#     Edge 71, Type (0, 0), None
#     Edge 72, Type (0, 0), None
#     Edge 73, Type (0, 0), None
#     Edge 74, Type (0, 0), None
#     Edge 75, Type (0, 0), None
#     Edge 76, Type (0, 0), None
#     Edge 77, Type (0, 0), None
#     Edge 78, Type (0, 0), None
#     Edge 79, Type (0, 0), None
#     Edge 80, Type (0, 0), None
#     Edge 81, Type (0, 0), None
#     Edge 82, Type (0, 0), None
#     Edge 83, Type (0, 0), None
#     Edge 84, Type (0, 0), None
#     Edge 85, Type (0, 0), None
#     Edge 86, Type (0, 0), None
#     Edge 87, Type (0, 0), None
#     Edge 88, Type (0, 0), None
#     Edge 89, Type (0, 0), None
#     Edge 90, Type (0, 0), None
#     Edge 91, Type (0, 0), None
#     Edge 92, Type (0, 0), None
#     Edge 93, Type (0, 0), None
#     Edge 94, Type (0, 0), None
#     Edge 95, Type (0, 0), None
#     Edge 96, Type (0, 0), None
#     Edge 97, Type (0, 0), None
#     Edge 98, Type (0, 0), None
#     Edge 99, Type (0, 0), None
#     Edge 100, Type (0, 0), None
#     Edge 101, Type (0, 0), None
#     Edge 102, Type (0, 0), None
#     Edge 103, Type (0, 0), None
#     Edge 104, Type (0, 0), None
#     Edge 105, Type (0, 0), None
#     Edge 106, Type (0, 0), None
#     Edge 107, Type (0, 0), None
#     Edge 108, Type (0, 0), None
#     Edge 109, Type (0, 0), None
#     Edge 110, Type (0, 0), None
#     Edge 111, Type (0, 0), None
#     Edge 112, Type (0, 0), None
#     Edge 113, Type (0, 0), None
#     Edge 114, Type (0, 0), None
#     Edge 115, Type (0, 0), None
#     Edge 116, Type (0, 0), None
#     Edge 117, Type (0, 0), None
#     Edge 118, Type (0, 0), None
#     Edge 119, Type (0, 0), None
# Relax obj value: 0.026
# Max RMSD: 0.088
# Mean RMSD: 0.057
data_MOF--net-sod-f--node1-OLANEW_clean_sbu_2--edge1-none
_symmetry_space_group_name_H-M    P1
_symmetry_Int_Tables_number       1
_symmetry_cell_setting            triclinic
loop_
_symmetry_equiv_pos_as_xyz
'x, y, z'
_cell_length_a     50.206813
_cell_length_b     45.87984
_cell_length_c     45.953809
_cell_angle_alpha  87.659811
_cell_angle_beta   94.229929
_cell_angle_gamma 97.609469
loop_
_atom_site_label
_atom_site_type_symbol
_atom_site_fract_x
_atom_site_fract_y
_atom_site_fract_z
_atom_type_partial_charge
O0 O 0.10072 0.29638 0.43448 0.0
Cd1 Cd 0.08356 0.2833 0.38486 0.0
O2 O 0.06996 0.26047 0.44678 0.0
Cd3 Cd 0.04491 0.23668 0.47914 0.0
O4 O 0.01754 0.23254 0.51414 0.0
C5 C 0.00264 0.25281 0.51451 0.0
O6 O 0.00421 0.27375 0.49411 0.0
C7 C 0.08856 0.28094 0.45423 0.0
C8 C 0.08819 0.32914 0.34319 0.0
O9 O 0.06933 0.32651 0.36079 0.0
O10 O 0.10522 0.31056 0.34557 0.0
O11 O 0.76557 0.04733 0.43207 0.0
Cd12 Cd 0.74455 0.01841 0.39102 0.0
O13 O 0.76713 0.00473 0.45486 0.0
Cd14 Cd 0.7748 0.97304 0.49038 0.0
O15 O 0.77522 0.93116 0.51496 0.0
C16 C 0.79476 0.92624 0.53283 0.0
O17 O 0.81527 0.94687 0.53712 0.0
C18 C 0.77178 0.03266 0.45506 0.0
C19 C 0.70823 0.0456 0.35389 0.0
O20 O 0.70128 0.03365 0.37833 0.0
O21 O 0.73252 0.04541 0.34716 0.0
O22 O 0.09891 0.78952 0.38821 0.0
Cd23 Cd 0.08063 0.79142 0.33738 0.0
O24 O 0.0564 0.77931 0.39719 0.0
Cd25 Cd 0.02366 0.77156 0.42658 0.0
O26 O 0.99876 0.76792 0.46385 0.0
C27 C 0.98105 0.78498 0.46576 0.0
O28 O 0.97714 0.80448 0.44469 0.0
C29 C 0.08102 0.78432 0.40655 0.0
C30 C 0.06664 0.73688 0.31203 0.0
O31 O 0.08871 0.75294 0.30663 0.0
O32 O 0.05138 0.74623 0.32972 0.0
O33 O 0.26542 0.05413 0.41843 0.0
Cd34 Cd 0.27796 0.08537 0.37618 0.0
O35 O 0.25391 0.09129 0.44103 0.0
Cd36 Cd 0.24006 0.11198 0.4781 0.0
O37 O 0.22995 0.13635 0.51466 0.0
C38 C 0.24944 0.14578 0.53241 0.0
O39 O 0.27378 0.14059 0.52759 0.0
C40 C 0.25777 0.06446 0.44117 0.0
C41 C 0.3336 0.09899 0.38324 0.0
O42 O 0.31815 0.11638 0.3921 0.0
O43 O 0.32286 0.07585 0.37001 0.0
O44 O 0.06501 0.80717 0.58001 0.0
Cd45 Cd 0.03557 0.80886 0.61988 0.0
O46 O 0.0597 0.8524 0.56482 0.0
Cd47 Cd 0.02677 0.85437 0.59295 0.0
O48 O 0.98694 0.84195 0.60949 0.0
C49 C 0.96855 0.83106 0.59109 0.0
O50 O 0.9743 0.82884 0.56393 0.0
C51 C 0.0709 0.82931 0.56298 0.0
C52 C 0.04953 0.77662 0.67002 0.0
O53 O 0.06203 0.80223 0.66461 0.0
O54 O 0.03071 0.76595 0.65161 0.0
O55 O 0.26146 0.98012 0.62022 0.0
Cd56 Cd 0.27804 0.01126 0.66143 0.0
O57 O 0.28332 0.01418 0.59322 0.0
Cd58 Cd 0.30489 0.03217 0.55564 0.0
O59 O 0.33607 0.05822 0.53124 0.0
C60 C 0.3411 0.08603 0.53304 0.0
O61 O 0.36086 0.10033 0.51891 0.0
C62 C 0.26905 0.98926 0.59533 0.0
C63 C 0.33259 0.03139 0.657 0.0
O64 O 0.32504 0.00631 0.66911 0.0
O65 O 0.31452 0.04728 0.64736 0.0
O66 O 0.1091 0.32598 0.64561 0.0
Cd67 Cd 0.09982 0.31984 0.69717 0.0
O68 O 0.06518 0.32065 0.64031 0.0
Cd69 Cd 0.02473 0.3155 0.61842 0.0
O70 O 0.98078 0.30648 0.61326 0.0
C71 C 0.96725 0.31396 0.63339 0.0
O72 O 0.97995 0.32749 0.65603 0.0
C73 C 0.08771 0.32404 0.62885 0.0
C74 C 0.07587 0.36589 0.71729 0.0
O75 O 0.10078 0.36382 0.72398 0.0
O76 O 0.06226 0.34644 0.70105 0.0
O77 O 0.75538 0.09505 0.59651 0.0
Cd78 Cd 0.71458 0.06153 0.60573 0.0
O79 O 0.77829 0.05735 0.59649 0.0
Cd80 Cd 0.81841 0.04342 0.59743 0.0
O81 O 0.86204 0.04279 0.60359 0.0
C82 C 0.87341 0.01982 0.60194 0.0
O83 O 0.89972 0.02166 0.60618 0.0
C84 C 0.77735 0.08487 0.59379 0.0
C85 C 0.71595 0.03674 0.66207 0.0
O86 O 0.72508 0.02421 0.64118 0.0
O87 O 0.70627 0.06099 0.65648 0.0
O88 O 0.44643 0.13321 0.36979 0.0
Cd89 Cd 0.41736 0.11178 0.40741 0.0
O90 O 0.45431 0.08854 0.36156 0.0
Cd91 Cd 0.47397 0.05596 0.34078 0.0
O92 O 0.49919 0.02818 0.32097 0.0
C93 C 0.49837 0.00062 0.32584 0.0
O94 O 0.48117 0.98685 0.34353 0.0
C95 C 0.45862 0.1161 0.35608 0.0
C96 C 0.36277 0.10428 0.38999 0.0
O97 O 0.37365 0.12771 0.40266 0.0
O98 O 0.37769 0.08468 0.38505 0.0
O99 O 0.12979 0.42986 0.27456 0.0
Cd100 Cd 0.08943 0.39366 0.27411 0.0
O101 O 0.10647 0.46271 0.25271 0.0
Cd102 Cd 0.10276 0.5035 0.22699 0.0
O103 O 0.10317 0.54127 0.1962 0.0
C104 C 0.08212 0.55065 0.18428 0.0
O105 O 0.05822 0.5378 0.19067 0.0
C106 C 0.12889 0.45549 0.2633 0.0
C107 C 0.08947 0.35205 0.31997 0.0
O108 O 0.1027 0.34973 0.29759 0.0
O109 O 0.07649 0.37418 0.32102 0.0
O110 O 0.61908 0.02583 0.28228 0.0
Cd111 Cd 0.64761 0.07198 0.29289 0.0
O112 O 0.59462 0.0374 0.24266 0.0
Cd113 Cd 0.60859 0.0844 0.24457 0.0
O114 O 0.60003 0.12971 0.24684 0.0
C115 C 0.5787 0.13367 0.2586 0.0
O116 O 0.56345 0.11091 0.26938 0.0
C117 C 0.60138 0.01848 0.26179 0.0
C118 C 0.68821 0.05707 0.33321 0.0
O119 O 0.66529 0.06142 0.34147 0.0
O120 O 0.69246 0.0609 0.30609 0.0
O121 O 0.07585 0.62199 0.27824 0.0
Cd122 Cd 0.04264 0.65621 0.26919 0.0
O123 O 0.04679 0.58151 0.27971 0.0
Cd124 Cd 0.01092 0.6026 0.26793 0.0
O125 O 0.97924 0.5958 0.23289 0.0
C126 C 0.9878 0.58631 0.2102 0.0
O127 O 0.01341 0.58319 0.21018 0.0
C128 C 0.07089 0.59421 0.28137 0.0
C129 C 0.05865 0.70885 0.29762 0.0
O130 O 0.04112 0.68918 0.30818 0.0
O131 O 0.06862 0.70375 0.27376 0.0
O132 O 0.44405 0.07601 0.68586 0.0
Cd133 Cd 0.41522 0.05829 0.64314 0.0
O134 O 0.47853 0.06863 0.66163 0.0
Cd135 Cd 0.52198 0.0705 0.65678 0.0
O136 O 0.5645 0.08495 0.64983 0.0
C137 C 0.58496 0.07492 0.66246 0.0
O138 O 0.60911 0.08662 0.65571 0.0
C139 C 0.46934 0.07675 0.68464 0.0
C140 C 0.36121 0.04111 0.65324 0.0
O141 O 0.37875 0.02337 0.65865 0.0
O142 O 0.36912 0.06717 0.64357 0.0
O143 O 0.06592 0.48244 0.74468 0.0
Cd144 Cd 0.03853 0.43458 0.74983 0.0
O145 O 0.08797 0.47371 0.78666 0.0
Cd146 Cd 0.05417 0.443 0.80087 0.0
O147 O 0.01951 0.45805 0.81902 0.0
C148 C 0.01804 0.48512 0.81304 0.0
O149 O 0.03577 0.49991 0.79658 0.0
C150 C 0.08533 0.48951 0.76349 0.0
C151 C 0.0631 0.38972 0.72832 0.0
O152 O 0.04306 0.39933 0.71391 0.0
O153 O 0.07155 0.40118 0.75278 0.0
O154 O 0.67515 0.9646 0.75442 0.0
Cd155 Cd 0.71658 0.99793 0.74769 0.0
O156 O 0.65507 0.00258 0.76336 0.0
Cd157 Cd 0.62114 0.02306 0.77625 0.0
O158 O 0.58817 0.04854 0.78095 0.0
C159 C 0.59311 0.07625 0.78331 0.0
O160 O 0.61814 0.08902 0.78388 0.0
C161 C 0.65401 0.97508 0.76011 0.0
C162 C 0.71636 0.02348 0.69165 0.0
O163 O 0.72593 0.99917 0.6972 0.0
O164 O 0.70698 0.03584 0.71248 0.0
O165 O 0.0843 0.68514 0.74712 0.0
Cd166 Cd 0.06641 0.73182 0.75064 0.0
O167 O 0.0496 0.6676 0.77154 0.0
Cd168 Cd 0.02244 0.63439 0.79436 0.0
O169 O 0.99232 0.6124 0.82291 0.0
C170 C 0.97798 0.62861 0.835 0.0
O171 O 0.98164 0.65715 0.82964 0.0
C172 C 0.07057 0.66335 0.75922 0.0
C173 C 0.05588 0.76045 0.69726 0.0
O174 O 0.07768 0.76808 0.71292 0.0
O175 O 0.03925 0.73906 0.70649 0.0
O176 O 0.27589 0.377 0.04107 0.0
Cd177 Cd 0.2738 0.32998 0.06833 0.0
O178 O 0.31218 0.3933 0.06812 0.0
Cd179 Cd 0.34395 0.42783 0.08245 0.0
O180 O 0.3691 0.46874 0.09351 0.0
C181 C 0.35751 0.49153 0.09508 0.0
O182 O 0.33124 0.48951 0.0903 0.0
C183 C 0.29446 0.39769 0.04776 0.0
C184 C 0.32293 0.31894 0.09589 0.0
O185 O 0.31529 0.30905 0.07054 0.0
O186 O 0.30764 0.33433 0.10808 0.0
O187 O 0.30808 0.62807 0.10304 0.0
Cd188 Cd 0.35139 0.65681 0.09396 0.0
O189 O 0.31782 0.59846 0.07021 0.0
Cd190 Cd 0.30619 0.5611 0.04162 0.0
O191 O 0.28984 0.53435 0.0044 0.0
C192 C 0.28374 0.54844 0.98102 0.0
O193 O 0.28771 0.57733 0.98053 0.0
C194 C 0.30206 0.60475 0.08875 0.0
C195 C 0.35896 0.71221 0.11786 0.0
O196 O 0.34965 0.70879 0.09133 0.0
O197 O 0.36436 0.68952 0.1332 0.0
O198 O 0.43666 0.32009 0.12697 0.0
Cd199 Cd 0.39361 0.29513 0.14235 0.0
O200 O 0.42409 0.30656 0.08227 0.0
Cd201 Cd 0.43161 0.30257 0.03639 0.0
O202 O 0.44992 0.30229 0.99479 0.0
C203 C 0.46613 0.28379 0.99174 0.0
O204 O 0.47078 0.2649 0.01317 0.0
C205 C 0.44189 0.3191 0.10043 0.0
C206 C 0.34799 0.3117 0.11122 0.0
O207 O 0.35692 0.32381 0.13526 0.0
O208 O 0.36084 0.29223 0.1015 0.0
O209 O 0.76382 0.44218 0.07553 0.0
Cd210 Cd 0.7591 0.41196 0.03226 0.0
O211 O 0.76074 0.47957 0.04499 0.0
Cd212 Cd 0.7575 0.52469 0.0294 0.0
O213 O 0.75498 0.55646 0.99284 0.0
C214 C 0.75523 0.5455 0.96793 0.0
O215 O 0.75659 0.51721 0.96639 0.0
C216 C 0.76429 0.46974 0.07104 0.0
C217 C 0.70653 0.38827 0.01547 0.0
O218 O 0.72185 0.37341 0.03198 0.0
O219 O 0.7158 0.41444 0.00726 0.0
O220 O 0.58777 0.76776 0.00464 0.0
Cd221 Cd 0.59866 0.77197 0.0572 0.0
O222 O 0.60755 0.81194 0.99268 0.0
Cd223 Cd 0.61357 0.82301 0.0388 0.0
O224 O 0.6118 0.82662 0.08601 0.0
C225 C 0.58908 0.82443 0.097 0.0
O226 O 0.56691 0.82078 0.0798 0.0
C227 C 0.59499 0.78716 0.98522 0.0
C228 C 0.64318 0.74377 0.07532 0.0
O229 O 0.61923 0.73021 0.07618 0.0
O230 O 0.6462 0.77065 0.06609 0.0
O231 O 0.72197 0.6711 0.05987 0.0
Cd232 Cd 0.71107 0.69957 0.10024 0.0
O233 O 0.76369 0.66914 0.07751 0.0
Cd234 Cd 0.80286 0.65367 0.07437 0.0
O235 O 0.83093 0.62989 0.0535 0.0
C236 C 0.82471 0.60238 0.05037 0.0
O237 O 0.80251 0.58908 0.06088 0.0
C238 C 0.74489 0.66278 0.05778 0.0
C239 C 0.66661 0.72872 0.0843 0.0
O240 O 0.69058 0.74148 0.08132 0.0
O241 O 0.66356 0.70234 0.09496 0.0
O242 O 0.42482 0.81299 0.15329 0.0
Cd243 Cd 0.37639 0.79722 0.15316 0.0
O244 O 0.42518 0.79199 0.11131 0.0
Cd245 Cd 0.4455 0.77941 0.07425 0.0
O246 O 0.47047 0.77472 0.03836 0.0
C247 C 0.48468 0.75382 0.0381 0.0
O248 O 0.48411 0.73405 0.05961 0.0
C249 C 0.4378 0.8062 0.13239 0.0
C250 C 0.36415 0.74154 0.13015 0.0
O251 O 0.37136 0.74467 0.15728 0.0
O252 O 0.36233 0.76463 0.11387 0.0
O253 O 0.59598 0.34975 0.02411 0.0
Cd254 Cd 0.62767 0.35054 0.98612 0.0
O255 O 0.59653 0.30253 0.03465 0.0
Cd256 Cd 0.61618 0.29648 0.9948 0.0
O257 O 0.6119 0.29231 0.94734 0.0
C258 C 0.58772 0.28486 0.93757 0.0
O259 O 0.56887 0.2798 0.95614 0.0
C260 C 0.58899 0.32704 0.03996 0.0
C261 C 0.67921 0.37537 0.00567 0.0
O262 O 0.66295 0.39106 0.99161 0.0
O263 O 0.67123 0.34803 0.0105 0.0
O264 O 0.60064 0.79627 0.93446 0.0
Cd265 Cd 0.58348 0.78317 0.88485 0.0
O266 O 0.56989 0.76038 0.94679 0.0
Cd267 Cd 0.54483 0.73661 0.97915 0.0
O268 O 0.51746 0.7325 0.01415 0.0
C269 C 0.50258 0.75279 0.01451 0.0
O270 O 0.50417 0.77372 0.9941 0.0
C271 C 0.58848 0.78085 0.95422 0.0
C272 C 0.58813 0.82899 0.84316 0.0
O273 O 0.56926 0.82637 0.86076 0.0
O274 O 0.60515 0.81041 0.84555 0.0
O275 O 0.26564 0.54777 0.93186 0.0
Cd276 Cd 0.2447 0.51889 0.89074 0.0
O277 O 0.26728 0.50512 0.95453 0.0
Cd278 Cd 0.275 0.47335 0.98996 0.0
O279 O 0.27545 0.43139 0.01439 0.0
C280 C 0.29496 0.42645 0.0323 0.0
O281 O 0.31543 0.4471 0.03671 0.0
C282 C 0.27187 0.53305 0.95481 0.0
C283 C 0.20824 0.54598 0.85371 0.0
O284 O 0.20135 0.53396 0.87814 0.0
O285 O 0.23254 0.54591 0.84694 0.0
O286 O 0.59835 0.28916 0.88774 0.0
Cd287 Cd 0.58021 0.29114 0.83685 0.0
O288 O 0.55583 0.27869 0.89657 0.0
Cd289 Cd 0.52301 0.27071 0.92584 0.0
O290 O 0.49791 0.26692 0.96295 0.0
C291 C 0.48092 0.28473 0.96532 0.0
O292 O 0.4779 0.30506 0.94483 0.0
C293 C 0.58042 0.28381 0.90601 0.0
C294 C 0.56636 0.23665 0.81137 0.0
O295 O 0.58844 0.25275 0.80608 0.0
O296 O 0.55102 0.24593 0.82903 0.0
O297 O 0.76549 0.55401 0.91874 0.0
Cd298 Cd 0.77797 0.58519 0.87643 0.0
O299 O 0.75395 0.59119 0.94128 0.0
Cd300 Cd 0.74009 0.61192 0.97832 0.0
O301 O 0.72996 0.63634 0.01484 0.0
C302 C 0.74945 0.64581 0.03257 0.0
O303 O 0.77379 0.64063 0.02777 0.0
C304 C 0.75784 0.56437 0.94146 0.0
C305 C 0.8336 0.5989 0.88341 0.0
O306 O 0.81814 0.61628 0.89226 0.0
O307 O 0.82288 0.57572 0.87023 0.0
O308 O 0.56428 0.3064 0.07967 0.0
Cd309 Cd 0.53474 0.30792 0.11948 0.0
O310 O 0.55988 0.35209 0.06532 0.0
Cd311 Cd 0.52697 0.3542 0.09345 0.0
O312 O 0.48705 0.34186 0.10976 0.0
C313 C 0.46873 0.33101 0.09126 0.0
O314 O 0.47462 0.32882 0.06414 0.0
C315 C 0.57063 0.32876 0.06307 0.0
C316 C 0.54897 0.27601 0.16974 0.0
O317 O 0.56129 0.30169 0.16423 0.0
O318 O 0.5302 0.26513 0.15138 0.0
O319 O 0.76146 0.48034 0.12066 0.0
Cd320 Cd 0.77798 0.51155 0.16183 0.0
O321 O 0.78334 0.51435 0.09363 0.0
Cd322 Cd 0.80495 0.53227 0.05604 0.0
O323 O 0.83613 0.55828 0.03162 0.0
C324 C 0.84115 0.58609 0.03336 0.0
O325 O 0.86092 0.60037 0.01922 0.0
C326 C 0.76908 0.48943 0.09577 0.0
C327 C 0.83254 0.53168 0.15743 0.0
O328 O 0.82498 0.50662 0.16957 0.0
O329 O 0.81447 0.54756 0.14775 0.0
O330 O 0.60904 0.82594 0.14557 0.0
Cd331 Cd 0.59976 0.81979 0.19713 0.0
O332 O 0.56512 0.82066 0.14027 0.0
Cd333 Cd 0.52468 0.81554 0.11838 0.0
O334 O 0.48072 0.80655 0.11322 0.0
C335 C 0.46719 0.81404 0.13334 0.0
O336 O 0.47989 0.82759 0.15598 0.0
C337 C 0.58766 0.82403 0.12882 0.0
C338 C 0.57582 0.86585 0.21726 0.0
O339 O 0.60073 0.86377 0.22396 0.0
O340 O 0.56221 0.8464 0.20101 0.0
O341 O 0.2554 0.59513 0.09644 0.0
Cd342 Cd 0.2146 0.56159 0.10563 0.0
O343 O 0.2783 0.55743 0.09636 0.0
Cd344 Cd 0.31841 0.54349 0.09729 0.0
O345 O 0.36204 0.54284 0.10355 0.0
C346 C 0.37341 0.51988 0.10186 0.0
O347 O 0.39972 0.52172 0.10617 0.0
C348 C 0.27737 0.58494 0.0937 0.0
C349 C 0.21595 0.53686 0.162 0.0
O350 O 0.22509 0.52432 0.14113 0.0
O351 O 0.20626 0.5611 0.15637 0.0
O352 O 0.9464 0.6333 0.86981 0.0
Cd353 Cd 0.91738 0.61185 0.90747 0.0
O354 O 0.95427 0.58863 0.86154 0.0
Cd355 Cd 0.97391 0.55606 0.84072 0.0
O356 O 0.99908 0.52826 0.82086 0.0
C357 C 0.99831 0.50071 0.82581 0.0
O358 O 0.98118 0.48697 0.84361 0.0
C359 C 0.95857 0.61619 0.85607 0.0
C360 C 0.86278 0.60424 0.89012 0.0
O361 O 0.87364 0.6277 0.90275 0.0
O362 O 0.87772 0.58467 0.88518 0.0
O363 O 0.62976 0.92968 0.77452 0.0
Cd364 Cd 0.58939 0.89349 0.77406 0.0
O365 O 0.60646 0.96252 0.75259 0.0
Cd366 Cd 0.60278 0.00328 0.72681 0.0
O367 O 0.60321 0.04101 0.69598 0.0
C368 C 0.58216 0.05037 0.68402 0.0
O369 O 0.55826 0.03754 0.6904 0.0
C370 C 0.62887 0.9553 0.76323 0.0
C371 C 0.58941 0.85189 0.81993 0.0
O372 O 0.60265 0.84956 0.79755 0.0
O373 O 0.57643 0.87402 0.82097 0.0
O374 O 0.11899 0.52599 0.78227 0.0
Cd375 Cd 0.14745 0.57219 0.79284 0.0
O376 O 0.09455 0.53748 0.7426 0.0
Cd377 Cd 0.10847 0.58449 0.74449 0.0
O378 O 0.09995 0.62981 0.7468 0.0
C379 C 0.07862 0.63378 0.75856 0.0
O380 O 0.06335 0.61102 0.76931 0.0
C381 C 0.10132 0.51859 0.76176 0.0
C382 C 0.18816 0.55739 0.83307 0.0
O383 O 0.16524 0.56166 0.84138 0.0
O384 O 0.19236 0.56126 0.80594 0.0
O385 O 0.57581 0.12186 0.77747 0.0
Cd386 Cd 0.54259 0.15605 0.76833 0.0
O387 O 0.54676 0.0814 0.77934 0.0
Cd388 Cd 0.51089 0.10245 0.7675 0.0
O389 O 0.47924 0.0956 0.73243 0.0
C390 C 0.48781 0.08608 0.70978 0.0
O391 O 0.51342 0.08295 0.70979 0.0
C392 C 0.57086 0.09409 0.78083 0.0
C393 C 0.55845 0.20864 0.79689 0.0
O394 O 0.5409 0.18894 0.80736 0.0
O395 O 0.56851 0.20361 0.77308 0.0
O396 O 0.94402 0.57625 0.18632 0.0
Cd397 Cd 0.91518 0.55856 0.1436 0.0
O398 O 0.97848 0.56891 0.16204 0.0
Cd399 Cd 0.02192 0.57081 0.15714 0.0
O400 O 0.06444 0.58526 0.15015 0.0
C401 C 0.0849 0.57521 0.16274 0.0
O402 O 0.10905 0.58693 0.15598 0.0
C403 C 0.96931 0.57701 0.18507 0.0
C404 C 0.86116 0.5414 0.15369 0.0
O405 O 0.8787 0.52365 0.15911 0.0
O406 O 0.86908 0.56746 0.14401 0.0
O407 O 0.56593 0.9824 0.24469 0.0
Cd408 Cd 0.5385 0.93456 0.2498 0.0
O409 O 0.58801 0.97358 0.28663 0.0
Cd410 Cd 0.55419 0.94289 0.30083 0.0
O411 O 0.51953 0.95794 0.31897 0.0
C412 C 0.51812 0.98504 0.31309 0.0
O413 O 0.53592 0.99986 0.29673 0.0
C414 C 0.58537 0.98941 0.26349 0.0
C415 C 0.56305 0.88969 0.22829 0.0
O416 O 0.54303 0.89931 0.21387 0.0
O417 O 0.5715 0.90112 0.25276 0.0
O418 O 0.17515 0.46481 0.25442 0.0
Cd419 Cd 0.21656 0.49816 0.24766 0.0
O420 O 0.15509 0.50277 0.26346 0.0
Cd421 Cd 0.12117 0.52323 0.27644 0.0
O422 O 0.08819 0.54868 0.28123 0.0
C423 C 0.09313 0.57636 0.2838 0.0
O424 O 0.11817 0.58913 0.28455 0.0
C425 C 0.15402 0.47528 0.26017 0.0
C426 C 0.21634 0.52364 0.19159 0.0
O427 O 0.22593 0.49934 0.19718 0.0
O428 O 0.20695 0.53601 0.2124 0.0
O429 O 0.58431 0.18502 0.24708 0.0
Cd430 Cd 0.56629 0.23164 0.25049 0.0
O431 O 0.54963 0.16746 0.27152 0.0
Cd432 Cd 0.5225 0.13426 0.29439 0.0
O433 O 0.49238 0.11229 0.32294 0.0
C434 C 0.47805 0.12851 0.33502 0.0
O435 O 0.48171 0.15704 0.32965 0.0
C436 C 0.57061 0.16322 0.25921 0.0
C437 C 0.55547 0.26 0.19704 0.0
O438 O 0.57729 0.2678 0.2126 0.0
O439 O 0.53896 0.23857 0.2064 0.0
O440 O 0.77565 0.87685 0.54182 0.0
Cd441 Cd 0.77361 0.82993 0.56924 0.0
O442 O 0.81203 0.89318 0.56871 0.0
Cd443 Cd 0.84388 0.92771 0.58284 0.0
O444 O 0.86907 0.96865 0.59372 0.0
C445 C 0.85749 0.99145 0.59526 0.0
O446 O 0.83121 0.98942 0.59056 0.0
C447 C 0.79427 0.89754 0.54839 0.0
C448 C 0.82284 0.81891 0.59658 0.0
O449 O 0.81506 0.80893 0.57129 0.0
O450 O 0.80764 0.83436 0.60881 0.0
O451 O 0.80805 0.12803 0.60303 0.0
Cd452 Cd 0.85134 0.15677 0.59388 0.0
O453 O 0.8178 0.09834 0.57028 0.0
Cd454 Cd 0.80617 0.06091 0.54178 0.0
O455 O 0.78977 0.03407 0.50464 0.0
C456 C 0.78369 0.04811 0.48122 0.0
O457 O 0.78771 0.07699 0.48065 0.0
C458 C 0.80204 0.10467 0.5888 0.0
C459 C 0.85897 0.21214 0.61784 0.0
O460 O 0.84961 0.20875 0.59132 0.0
O461 O 0.86439 0.18944 0.63314 0.0
O462 O 0.93667 0.82018 0.62701 0.0
Cd463 Cd 0.89373 0.79522 0.64268 0.0
O464 O 0.9239 0.8065 0.5824 0.0
Cd465 Cd 0.93121 0.80237 0.53648 0.0
O466 O 0.94939 0.80191 0.49483 0.0
C467 C 0.96637 0.78414 0.49224 0.0
O468 O 0.97185 0.76613 0.51417 0.0
C469 C 0.94177 0.81912 0.60044 0.0
C470 C 0.84796 0.8117 0.61179 0.0
O471 O 0.85701 0.82388 0.63576 0.0
O472 O 0.86075 0.7922 0.60202 0.0
O473 O 0.26374 0.94205 0.57499 0.0
Cd474 Cd 0.25895 0.91192 0.53166 0.0
O475 O 0.26065 0.9795 0.54454 0.0
Cd476 Cd 0.25742 0.02466 0.52905 0.0
O477 O 0.25491 0.05648 0.49254 0.0
C478 C 0.25514 0.04556 0.4676 0.0
O479 O 0.25646 0.01727 0.46602 0.0
C480 C 0.26423 0.96962 0.57057 0.0
C481 C 0.20634 0.8884 0.51485 0.0
O482 O 0.22162 0.87346 0.5313 0.0
O483 O 0.21565 0.91457 0.5067 0.0
O484 O 0.08785 0.26782 0.50464 0.0
Cd485 Cd 0.09875 0.27199 0.55721 0.0
O486 O 0.10762 0.31201 0.49271 0.0
Cd487 Cd 0.11364 0.32305 0.53884 0.0
O488 O 0.11186 0.32665 0.58605 0.0
C489 C 0.08914 0.32444 0.59704 0.0
O490 O 0.06696 0.32077 0.57984 0.0
C491 C 0.09507 0.28723 0.48524 0.0
C492 C 0.14324 0.24375 0.5753 0.0
O493 O 0.11929 0.23021 0.57615 0.0
O494 O 0.14627 0.27064 0.56609 0.0
O495 O 0.22198 0.17105 0.55975 0.0
Cd496 Cd 0.2111 0.19947 0.60016 0.0
O497 O 0.2637 0.16903 0.57738 0.0
Cd498 Cd 0.30285 0.15354 0.57421 0.0
O499 O 0.33091 0.12979 0.55328 0.0
C500 C 0.32467 0.10229 0.5501 0.0
O501 O 0.30248 0.08897 0.5606 0.0
C502 C 0.24489 0.16271 0.55765 0.0
C503 C 0.16666 0.22867 0.58426 0.0
O504 O 0.19064 0.24143 0.5813 0.0
O505 O 0.1636 0.20229 0.59489 0.0
O506 O 0.92488 0.31287 0.65335 0.0
Cd507 Cd 0.87645 0.2971 0.65324 0.0
O508 O 0.92524 0.2919 0.61135 0.0
Cd509 Cd 0.94555 0.27936 0.57428 0.0
O510 O 0.97052 0.27471 0.53838 0.0
C511 C 0.98474 0.25382 0.53811 0.0
O512 O 0.98419 0.23405 0.55961 0.0
C513 C 0.93786 0.30611 0.63245 0.0
C514 C 0.86419 0.24146 0.63017 0.0
O515 O 0.87142 0.24455 0.6573 0.0
O516 O 0.86236 0.26457 0.61392 0.0
O517 O 0.09577 0.85011 0.52359 0.0
Cd518 Cd 0.12738 0.85095 0.48551 0.0
O519 O 0.09729 0.80319 0.53501 0.0
Cd520 Cd 0.117 0.79698 0.49524 0.0
O521 O 0.11263 0.79273 0.44779 0.0
C522 C 0.0884 0.78542 0.43809 0.0
O523 O 0.0696 0.78054 0.45672 0.0
C524 C 0.08926 0.82758 0.53987 0.0
C525 C 0.17898 0.87559 0.50504 0.0
O526 O 0.16275 0.89136 0.49107 0.0
O527 O 0.17096 0.84825 0.5098 0.0
loop_
_geom_bond_atom_site_label_1
_geom_bond_atom_site_label_2
_geom_bond_distance
_geom_bond_site_symmetry_2
_ccdc_geom_bond_type
O0 Cd1 2.300 . S
O0 C7 1.275 . S
Cd1 O0 2.300 . S
Cd1 O9 2.381 . S
Cd1 O10 2.378 . S
O2 Cd3 2.385 . S
O2 C7 1.255 . S
Cd3 O2 2.385 . S
Cd3 O4 2.317 . S
O4 Cd3 2.317 . S
O4 C5 1.232 . S
C5 O4 1.232 . S
C5 O6 1.218 . S
O6 C5 1.218 . S
C7 O0 1.275 . S
C7 O2 1.255 . S
C8 O9 1.258 . S
C8 O10 1.256 . S
O9 Cd1 2.381 . S
O9 C8 1.258 . S
O10 Cd1 2.378 . S
O10 C8 1.256 . S
O11 Cd12 2.300 . S
O11 C18 1.275 . S
Cd12 O11 2.300 . S
Cd12 O20 2.381 . S
Cd12 O21 2.378 . S
O13 Cd14 2.385 . S
O13 C18 1.255 . S
Cd14 O13 2.385 . S
Cd14 O15 2.317 1_545 S
O15 Cd14 2.317 1_565 S
O15 C16 1.232 . S
C16 O15 1.232 . S
C16 O17 1.218 . S
O17 C16 1.218 . S
C18 O11 1.275 . S
C18 O13 1.255 . S
C19 O20 1.258 . S
C19 O21 1.256 . S
O20 Cd12 2.381 . S
O20 C19 1.258 . S
O21 Cd12 2.378 . S
O21 C19 1.256 . S
O22 Cd23 2.300 . S
O22 C29 1.275 . S
Cd23 O22 2.300 . S
Cd23 O31 2.381 . S
Cd23 O32 2.378 . S
O24 Cd25 2.385 . S
O24 C29 1.255 . S
Cd25 O24 2.385 . S
Cd25 O26 2.317 1_455 S
O26 Cd25 2.317 1_655 S
O26 C27 1.232 . S
C27 O26 1.232 . S
C27 O28 1.218 . S
O28 C27 1.218 . S
C29 O22 1.275 . S
C29 O24 1.255 . S
C30 O31 1.258 . S
C30 O32 1.256 . S
O31 Cd23 2.381 . S
O31 C30 1.258 . S
O32 Cd23 2.378 . S
O32 C30 1.256 . S
O33 Cd34 2.300 . S
O33 C40 1.275 . S
Cd34 O33 2.300 . S
Cd34 O42 2.381 . S
Cd34 O43 2.378 . S
O35 Cd36 2.385 . S
O35 C40 1.255 . S
Cd36 O35 2.385 . S
Cd36 O37 2.317 . S
O37 Cd36 2.317 . S
O37 C38 1.232 . S
C38 O37 1.232 . S
C38 O39 1.218 . S
O39 C38 1.218 . S
C40 O33 1.275 . S
C40 O35 1.255 . S
C41 O42 1.258 . S
C41 O43 1.256 . S
O42 Cd34 2.381 . S
O42 C41 1.258 . S
O43 Cd34 2.378 . S
O43 C41 1.256 . S
O44 Cd45 2.300 . S
O44 C51 1.275 . S
Cd45 O44 2.300 . S
Cd45 O53 2.381 . S
Cd45 O54 2.378 . S
O46 Cd47 2.385 . S
O46 C51 1.255 . S
Cd47 O46 2.385 . S
Cd47 O48 2.336 . S
O48 Cd47 2.336 . S
O48 C49 1.227 1_455 S
C49 O48 1.227 1_655 S
C49 O50 1.218 1_655 S
O50 C49 1.218 1_455 S
C51 O44 1.275 . S
C51 O46 1.255 . S
C52 O53 1.258 . S
C52 O54 1.256 . S
O53 Cd45 2.381 . S
O53 C52 1.258 . S
O54 Cd45 2.378 . S
O54 C52 1.256 . S
O55 Cd56 2.281 1_565 S
O55 C62 1.262 1_565 S
Cd56 O55 2.281 1_545 S
Cd56 O64 2.381 . S
Cd56 O65 2.378 . S
O57 Cd58 2.385 . S
O57 C62 1.255 . S
Cd58 O57 2.385 . S
Cd58 O59 2.317 . S
O59 Cd58 2.317 . S
O59 C60 1.232 . S
C60 O59 1.232 . S
C60 O61 1.218 . S
O61 C60 1.218 . S
C62 O55 1.262 1_545 S
C62 O57 1.255 . S
C63 O64 1.258 . S
C63 O65 1.256 . S
O64 Cd56 2.381 . S
O64 C63 1.258 . S
O65 Cd56 2.378 . S
O65 C63 1.256 . S
O66 Cd67 2.300 . S
O66 C73 1.275 . S
Cd67 O66 2.300 . S
Cd67 O75 2.381 . S
Cd67 O76 2.378 . S
O68 Cd69 2.385 . S
O68 C73 1.255 . S
Cd69 O68 2.385 . S
Cd69 O70 2.317 1_455 S
O70 Cd69 2.317 1_655 S
O70 C71 1.232 . S
C71 O70 1.232 . S
C71 O72 1.218 . S
O72 C71 1.218 . S
C73 O66 1.275 . S
C73 O68 1.255 . S
C74 O75 1.258 . S
C74 O76 1.256 . S
O75 Cd67 2.381 . S
O75 C74 1.258 . S
O76 Cd67 2.378 . S
O76 C74 1.256 . S
O77 Cd78 2.300 . S
O77 C84 1.275 . S
Cd78 O77 2.300 . S
Cd78 O86 2.381 . S
Cd78 O87 2.378 . S
O79 Cd80 2.385 . S
O79 C84 1.255 . S
Cd80 O79 2.385 . S
Cd80 O81 2.317 1_545 S
O81 Cd80 2.317 1_565 S
O81 C82 1.232 . S
C82 O81 1.232 . S
C82 O83 1.218 . S
O83 C82 1.218 . S
C84 O77 1.275 . S
C84 O79 1.255 . S
C85 O86 1.258 . S
C85 O87 1.256 . S
O86 Cd78 2.381 . S
O86 C85 1.258 . S
O87 Cd78 2.378 . S
O87 C85 1.256 . S
O88 Cd89 2.300 . S
O88 C95 1.275 . S
Cd89 O88 2.300 . S
Cd89 O97 2.381 . S
Cd89 O98 2.378 . S
O90 Cd91 2.385 . S
O90 C95 1.255 . S
Cd91 O90 2.385 . S
Cd91 O92 2.317 . S
O92 Cd91 2.317 . S
O92 C93 1.232 . S
C93 O92 1.232 . S
C93 O94 1.218 . S
O94 C93 1.218 . S
C95 O88 1.275 . S
C95 O90 1.255 . S
C96 O97 1.258 . S
C96 O98 1.256 . S
O97 Cd89 2.381 . S
O97 C96 1.258 . S
O98 Cd89 2.378 . S
O98 C96 1.256 . S
O99 Cd100 2.300 . S
O99 C106 1.275 . S
Cd100 O99 2.300 . S
Cd100 O108 2.381 . S
Cd100 O109 2.378 . S
O101 Cd102 2.385 . S
O101 C106 1.255 . S
Cd102 O101 2.385 . S
Cd102 O103 2.317 . S
O103 Cd102 2.317 . S
O103 C104 1.232 . S
C104 O103 1.232 . S
C104 O105 1.218 . S
O105 C104 1.218 . S
C106 O99 1.275 . S
C106 O101 1.255 . S
C107 O108 1.258 . S
C107 O109 1.256 . S
O108 Cd100 2.381 . S
O108 C107 1.258 . S
O109 Cd100 2.378 . S
O109 C107 1.256 . S
O110 Cd111 2.300 . S
O110 C117 1.275 . S
Cd111 O110 2.300 . S
Cd111 O119 2.381 . S
Cd111 O120 2.378 . S
O112 Cd113 2.385 . S
O112 C117 1.255 . S
Cd113 O112 2.385 . S
Cd113 O114 2.317 . S
O114 Cd113 2.317 . S
O114 C115 1.232 . S
C115 O114 1.232 . S
C115 O116 1.218 . S
O116 C115 1.218 . S
C117 O110 1.275 . S
C117 O112 1.255 . S
C118 O119 1.258 . S
C118 O120 1.256 . S
O119 Cd111 2.381 . S
O119 C118 1.258 . S
O120 Cd111 2.378 . S
O120 C118 1.256 . S
O121 Cd122 2.300 . S
O121 C128 1.275 . S
Cd122 O121 2.300 . S
Cd122 O130 2.381 . S
Cd122 O131 2.378 . S
O123 Cd124 2.385 . S
O123 C128 1.255 . S
Cd124 O123 2.385 . S
Cd124 O125 2.317 . S
O125 Cd124 2.317 . S
O125 C126 1.232 . S
C126 O125 1.232 . S
C126 O127 1.218 . S
O127 C126 1.218 . S
C128 O121 1.275 . S
C128 O123 1.255 . S
C129 O130 1.258 . S
C129 O131 1.256 . S
O130 Cd122 2.381 . S
O130 C129 1.258 . S
O131 Cd122 2.378 . S
O131 C129 1.256 . S
O132 Cd133 2.300 . S
O132 C139 1.275 . S
Cd133 O132 2.300 . S
Cd133 O141 2.381 . S
Cd133 O142 2.378 . S
O134 Cd135 2.385 . S
O134 C139 1.255 . S
Cd135 O134 2.385 . S
Cd135 O136 2.317 1_545 S
O136 Cd135 2.317 1_565 S
O136 C137 1.232 . S
C137 O136 1.232 . S
C137 O138 1.218 . S
O138 C137 1.218 . S
C139 O132 1.275 . S
C139 O134 1.255 . S
C140 O141 1.258 . S
C140 O142 1.256 . S
O141 Cd133 2.381 . S
O141 C140 1.258 . S
O142 Cd133 2.378 . S
O142 C140 1.256 . S
O143 Cd144 2.300 . S
O143 C150 1.275 . S
Cd144 O143 2.300 . S
Cd144 O152 2.381 . S
Cd144 O153 2.378 . S
O145 Cd146 2.385 . S
O145 C150 1.255 . S
Cd146 O145 2.385 . S
Cd146 O147 2.317 1_455 S
O147 Cd146 2.317 1_655 S
O147 C148 1.232 . S
C148 O147 1.232 . S
C148 O149 1.218 . S
O149 C148 1.218 . S
C150 O143 1.275 . S
C150 O145 1.255 . S
C151 O152 1.258 . S
C151 O153 1.256 . S
O152 Cd144 2.381 . S
O152 C151 1.258 . S
O153 Cd144 2.378 . S
O153 C151 1.256 . S
O154 Cd155 2.300 1_565 S
O154 C161 1.275 . S
Cd155 O154 2.300 1_545 S
Cd155 O163 2.381 . S
Cd155 O164 2.378 . S
O156 Cd157 2.385 . S
O156 C161 1.255 1_545 S
Cd157 O156 2.385 . S
Cd157 O158 2.317 . S
O158 Cd157 2.317 . S
O158 C159 1.232 . S
C159 O158 1.232 . S
C159 O160 1.218 . S
O160 C159 1.218 . S
C161 O154 1.275 . S
C161 O156 1.255 1_565 S
C162 O163 1.258 . S
C162 O164 1.256 . S
O163 Cd155 2.381 . S
O163 C162 1.258 . S
O164 Cd155 2.378 . S
O164 C162 1.256 . S
O165 Cd166 2.300 . S
O165 C172 1.275 . S
Cd166 O165 2.300 . S
Cd166 O174 2.381 . S
Cd166 O175 2.378 . S
O167 Cd168 2.385 . S
O167 C172 1.255 . S
Cd168 O167 2.385 . S
Cd168 O169 2.317 1_455 S
O169 Cd168 2.317 1_655 S
O169 C170 1.232 . S
C170 O169 1.232 . S
C170 O171 1.218 . S
O171 C170 1.218 . S
C172 O165 1.275 . S
C172 O167 1.255 . S
C173 O174 1.258 . S
C173 O175 1.256 . S
O174 Cd166 2.381 . S
O174 C173 1.258 . S
O175 Cd166 2.378 . S
O175 C173 1.256 . S
O176 Cd177 2.300 1_556 S
O176 C183 1.275 . S
Cd177 O176 2.300 1_554 S
Cd177 O185 2.381 . S
Cd177 O186 2.378 . S
O178 Cd179 2.385 . S
O178 C183 1.255 1_554 S
Cd179 O178 2.385 . S
Cd179 O180 2.317 . S
O180 Cd179 2.317 . S
O180 C181 1.232 . S
C181 O180 1.232 . S
C181 O182 1.218 . S
O182 C181 1.218 . S
C183 O176 1.275 . S
C183 O178 1.255 1_556 S
C184 O185 1.258 . S
C184 O186 1.256 . S
O185 Cd177 2.381 . S
O185 C184 1.258 . S
O186 Cd177 2.378 . S
O186 C184 1.256 . S
O187 Cd188 2.300 . S
O187 C194 1.275 . S
Cd188 O187 2.300 . S
Cd188 O196 2.381 . S
Cd188 O197 2.378 . S
O189 Cd190 2.385 . S
O189 C194 1.255 . S
Cd190 O189 2.385 . S
Cd190 O191 2.317 . S
O191 Cd190 2.317 . S
O191 C192 1.232 . S
C192 O191 1.232 . S
C192 O193 1.221 . S
O193 C192 1.221 . S
C194 O187 1.275 . S
C194 O189 1.255 . S
C195 O196 1.258 . S
C195 O197 1.256 . S
O196 Cd188 2.381 . S
O196 C195 1.258 . S
O197 Cd188 2.378 . S
O197 C195 1.256 . S
O198 Cd199 2.300 . S
O198 C205 1.275 . S
Cd199 O198 2.300 . S
Cd199 O207 2.381 . S
Cd199 O208 2.378 1_554 S
O200 Cd201 2.385 1_554 S
O200 C205 1.255 . S
Cd201 O200 2.385 1_556 S
Cd201 O202 2.317 . S
O202 Cd201 2.317 . S
O202 C203 1.232 . S
C203 O202 1.232 . S
C203 O204 1.218 . S
O204 C203 1.218 . S
C205 O198 1.275 . S
C205 O200 1.255 . S
C206 O207 1.258 . S
C206 O208 1.256 1_554 S
O207 Cd199 2.381 . S
O207 C206 1.258 . S
O208 Cd199 2.378 1_556 S
O208 C206 1.256 1_556 S
O209 Cd210 2.300 . S
O209 C216 1.275 . S
Cd210 O209 2.300 . S
Cd210 O218 2.381 . S
Cd210 O219 2.378 . S
O211 Cd212 2.385 . S
O211 C216 1.255 . S
Cd212 O211 2.385 . S
Cd212 O213 2.317 1_554 S
O213 Cd212 2.317 1_556 S
O213 C214 1.232 . S
C214 O213 1.232 . S
C214 O215 1.218 1_556 S
O215 C214 1.218 1_554 S
C216 O209 1.275 . S
C216 O211 1.255 . S
C217 O218 1.258 . S
C217 O219 1.256 . S
O218 Cd210 2.381 . S
O218 C217 1.258 . S
O219 Cd210 2.378 . S
O219 C217 1.256 . S
O220 Cd221 2.300 . S
O220 C227 1.275 . S
Cd221 O220 2.300 . S
Cd221 O229 2.381 . S
Cd221 O230 2.378 . S
O222 Cd223 2.385 . S
O222 C227 1.255 . S
Cd223 O222 2.385 . S
Cd223 O224 2.317 . S
O224 Cd223 2.317 . S
O224 C225 1.232 . S
C225 O224 1.232 . S
C225 O226 1.218 . S
O226 C225 1.218 . S
C227 O220 1.275 . S
C227 O222 1.255 . S
C228 O229 1.258 . S
C228 O230 1.256 . S
O229 Cd221 2.381 . S
O229 C228 1.258 . S
O230 Cd221 2.378 . S
O230 C228 1.256 . S
O231 Cd232 2.300 . S
O231 C238 1.275 . S
Cd232 O231 2.300 . S
Cd232 O240 2.381 . S
Cd232 O241 2.378 . S
O233 Cd234 2.385 . S
O233 C238 1.255 . S
Cd234 O233 2.385 . S
Cd234 O235 2.317 . S
O235 Cd234 2.317 . S
O235 C236 1.232 . S
C236 O235 1.232 . S
C236 O237 1.218 . S
O237 C236 1.218 . S
C238 O231 1.275 . S
C238 O233 1.255 . S
C239 O240 1.258 . S
C239 O241 1.256 . S
O240 Cd232 2.381 . S
O240 C239 1.258 . S
O241 Cd232 2.378 . S
O241 C239 1.256 . S
O242 Cd243 2.300 . S
O242 C249 1.275 . S
Cd243 O242 2.300 . S
Cd243 O251 2.381 . S
Cd243 O252 2.378 . S
O244 Cd245 2.385 . S
O244 C249 1.255 . S
Cd245 O244 2.385 . S
Cd245 O246 2.317 . S
O246 Cd245 2.317 . S
O246 C247 1.228 1_554 S
C247 O246 1.228 1_556 S
C247 O248 1.207 1_556 S
O248 C247 1.207 1_554 S
C249 O242 1.275 . S
C249 O244 1.255 . S
C250 O251 1.258 . S
C250 O252 1.256 . S
O251 Cd243 2.381 . S
O251 C250 1.258 . S
O252 Cd243 2.378 . S
O252 C250 1.256 . S
O253 Cd254 2.300 . S
O253 C260 1.275 . S
Cd254 O253 2.300 . S
Cd254 O262 2.381 . S
Cd254 O263 2.378 . S
O255 Cd256 2.385 . S
O255 C260 1.255 . S
Cd256 O255 2.385 . S
Cd256 O257 2.317 1_554 S
O257 Cd256 2.317 1_556 S
O257 C258 1.232 . S
C258 O257 1.232 . S
C258 O259 1.218 . S
O259 C258 1.218 . S
C260 O253 1.275 . S
C260 O255 1.255 . S
C261 O262 1.258 . S
C261 O263 1.256 . S
O262 Cd254 2.381 . S
O262 C261 1.258 . S
O263 Cd254 2.378 . S
O263 C261 1.256 . S
O264 Cd265 2.300 . S
O264 C271 1.275 . S
Cd265 O264 2.300 . S
Cd265 O273 2.381 . S
Cd265 O274 2.378 . S
O266 Cd267 2.385 . S
O266 C271 1.255 . S
Cd267 O266 2.385 . S
Cd267 O268 2.317 . S
O268 Cd267 2.317 . S
O268 C269 1.232 . S
C269 O268 1.232 . S
C269 O270 1.218 1_556 S
O270 C269 1.218 1_554 S
C271 O264 1.275 . S
C271 O266 1.255 . S
C272 O273 1.258 . S
C272 O274 1.256 . S
O273 Cd265 2.381 . S
O273 C272 1.258 . S
O274 Cd265 2.378 . S
O274 C272 1.256 . S
O275 Cd276 2.300 . S
O275 C282 1.275 . S
Cd276 O275 2.300 . S
Cd276 O284 2.381 . S
Cd276 O285 2.378 . S
O277 Cd278 2.385 . S
O277 C282 1.255 . S
Cd278 O277 2.385 . S
Cd278 O279 2.317 . S
O279 Cd278 2.317 . S
O279 C280 1.232 . S
C280 O279 1.232 . S
C280 O281 1.218 . S
O281 C280 1.218 . S
C282 O275 1.275 . S
C282 O277 1.255 . S
C283 O284 1.258 . S
C283 O285 1.256 . S
O284 Cd276 2.381 . S
O284 C283 1.258 . S
O285 Cd276 2.378 . S
O285 C283 1.256 . S
O286 Cd287 2.300 . S
O286 C293 1.275 . S
Cd287 O286 2.300 . S
Cd287 O295 2.381 . S
Cd287 O296 2.378 . S
O288 Cd289 2.385 . S
O288 C293 1.255 . S
Cd289 O288 2.385 . S
Cd289 O290 2.317 . S
O290 Cd289 2.317 . S
O290 C291 1.232 . S
C291 O290 1.232 . S
C291 O292 1.218 . S
O292 C291 1.218 . S
C293 O286 1.275 . S
C293 O288 1.255 . S
C294 O295 1.258 . S
C294 O296 1.256 . S
O295 Cd287 2.381 . S
O295 C294 1.258 . S
O296 Cd287 2.378 . S
O296 C294 1.256 . S
O297 Cd298 2.300 . S
O297 C304 1.275 . S
Cd298 O297 2.300 . S
Cd298 O306 2.381 . S
Cd298 O307 2.378 . S
O299 Cd300 2.385 . S
O299 C304 1.255 . S
Cd300 O299 2.385 . S
Cd300 O301 2.317 . S
O301 Cd300 2.317 . S
O301 C302 1.232 . S
C302 O301 1.232 . S
C302 O303 1.218 . S
O303 C302 1.218 . S
C304 O297 1.275 . S
C304 O299 1.255 . S
C305 O306 1.258 . S
C305 O307 1.256 . S
O306 Cd298 2.381 . S
O306 C305 1.258 . S
O307 Cd298 2.378 . S
O307 C305 1.256 . S
O308 Cd309 2.300 . S
O308 C315 1.275 . S
Cd309 O308 2.300 . S
Cd309 O317 2.381 . S
Cd309 O318 2.378 . S
O310 Cd311 2.385 . S
O310 C315 1.255 . S
Cd311 O310 2.385 . S
Cd311 O312 2.317 . S
O312 Cd311 2.317 . S
O312 C313 1.232 . S
C313 O312 1.232 . S
C313 O314 1.218 . S
O314 C313 1.218 . S
C315 O308 1.275 . S
C315 O310 1.255 . S
C316 O317 1.258 . S
C316 O318 1.256 . S
O317 Cd309 2.381 . S
O317 C316 1.258 . S
O318 Cd309 2.378 . S
O318 C316 1.256 . S
O319 Cd320 2.300 . S
O319 C326 1.275 . S
Cd320 O319 2.300 . S
Cd320 O328 2.381 . S
Cd320 O329 2.378 . S
O321 Cd322 2.385 . S
O321 C326 1.255 . S
Cd322 O321 2.385 . S
Cd322 O323 2.317 . S
O323 Cd322 2.317 . S
O323 C324 1.232 . S
C324 O323 1.232 . S
C324 O325 1.218 . S
O325 C324 1.218 . S
C326 O319 1.275 . S
C326 O321 1.255 . S
C327 O328 1.258 . S
C327 O329 1.256 . S
O328 Cd320 2.381 . S
O328 C327 1.258 . S
O329 Cd320 2.378 . S
O329 C327 1.256 . S
O330 Cd331 2.300 . S
O330 C337 1.275 . S
Cd331 O330 2.300 . S
Cd331 O339 2.381 . S
Cd331 O340 2.378 . S
O332 Cd333 2.385 . S
O332 C337 1.255 . S
Cd333 O332 2.385 . S
Cd333 O334 2.317 . S
O334 Cd333 2.317 . S
O334 C335 1.232 . S
C335 O334 1.232 . S
C335 O336 1.218 . S
O336 C335 1.218 . S
C337 O330 1.275 . S
C337 O332 1.255 . S
C338 O339 1.258 . S
C338 O340 1.256 . S
O339 Cd331 2.381 . S
O339 C338 1.258 . S
O340 Cd331 2.378 . S
O340 C338 1.256 . S
O341 Cd342 2.300 . S
O341 C348 1.275 . S
Cd342 O341 2.300 . S
Cd342 O350 2.381 . S
Cd342 O351 2.378 . S
O343 Cd344 2.385 . S
O343 C348 1.255 . S
Cd344 O343 2.385 . S
Cd344 O345 2.317 . S
O345 Cd344 2.317 . S
O345 C346 1.232 . S
C346 O345 1.232 . S
C346 O347 1.218 . S
O347 C346 1.218 . S
C348 O341 1.275 . S
C348 O343 1.255 . S
C349 O350 1.258 . S
C349 O351 1.256 . S
O350 Cd342 2.381 . S
O350 C349 1.258 . S
O351 Cd342 2.378 . S
O351 C349 1.256 . S
O352 Cd353 2.300 . S
O352 C359 1.275 . S
Cd353 O352 2.300 . S
Cd353 O361 2.381 . S
Cd353 O362 2.378 . S
O354 Cd355 2.385 . S
O354 C359 1.255 . S
Cd355 O354 2.385 . S
Cd355 O356 2.317 . S
O356 Cd355 2.317 . S
O356 C357 1.232 . S
C357 O356 1.232 . S
C357 O358 1.218 . S
O358 C357 1.218 . S
C359 O352 1.275 . S
C359 O354 1.255 . S
C360 O361 1.258 . S
C360 O362 1.256 . S
O361 Cd353 2.381 . S
O361 C360 1.258 . S
O362 Cd353 2.378 . S
O362 C360 1.256 . S
O363 Cd364 2.300 . S
O363 C370 1.275 . S
Cd364 O363 2.300 . S
Cd364 O372 2.381 . S
Cd364 O373 2.378 . S
O365 Cd366 2.385 . S
O365 C370 1.255 . S
Cd366 O365 2.385 . S
Cd366 O367 2.317 . S
O367 Cd366 2.317 . S
O367 C368 1.232 . S
C368 O367 1.232 . S
C368 O369 1.213 1_565 S
O369 C368 1.213 1_545 S
C370 O363 1.275 . S
C370 O365 1.255 . S
C371 O372 1.258 . S
C371 O373 1.256 . S
O372 Cd364 2.381 . S
O372 C371 1.258 . S
O373 Cd364 2.378 . S
O373 C371 1.256 . S
O374 Cd375 2.300 . S
O374 C381 1.275 . S
Cd375 O374 2.300 . S
Cd375 O383 2.381 . S
Cd375 O384 2.378 . S
O376 Cd377 2.385 . S
O376 C381 1.255 . S
Cd377 O376 2.385 . S
Cd377 O378 2.317 . S
O378 Cd377 2.317 . S
O378 C379 1.232 . S
C379 O378 1.232 . S
C379 O380 1.218 . S
O380 C379 1.218 . S
C381 O374 1.275 . S
C381 O376 1.255 . S
C382 O383 1.258 . S
C382 O384 1.256 . S
O383 Cd375 2.381 . S
O383 C382 1.258 . S
O384 Cd375 2.378 . S
O384 C382 1.256 . S
O385 Cd386 2.300 . S
O385 C392 1.275 . S
Cd386 O385 2.300 . S
Cd386 O394 2.381 . S
Cd386 O395 2.378 . S
O387 Cd388 2.385 . S
O387 C392 1.255 . S
Cd388 O387 2.385 . S
Cd388 O389 2.317 . S
O389 Cd388 2.317 . S
O389 C390 1.232 . S
C390 O389 1.232 . S
C390 O391 1.218 . S
O391 C390 1.218 . S
C392 O385 1.275 . S
C392 O387 1.255 . S
C393 O394 1.258 . S
C393 O395 1.256 . S
O394 Cd386 2.381 . S
O394 C393 1.258 . S
O395 Cd386 2.378 . S
O395 C393 1.256 . S
O396 Cd397 2.300 . S
O396 C403 1.275 1_655 S
Cd397 O396 2.300 . S
Cd397 O405 2.381 . S
Cd397 O406 2.378 . S
O398 Cd399 2.385 . S
O398 C403 1.255 . S
Cd399 O398 2.385 . S
Cd399 O400 2.317 . S
O400 Cd399 2.317 . S
O400 C401 1.232 . S
C401 O400 1.232 . S
C401 O402 1.218 . S
O402 C401 1.218 . S
C403 O396 1.275 1_455 S
C403 O398 1.255 . S
C404 O405 1.258 . S
C404 O406 1.256 . S
O405 Cd397 2.381 . S
O405 C404 1.258 . S
O406 Cd397 2.378 . S
O406 C404 1.256 . S
O407 Cd408 2.300 . S
O407 C414 1.275 . S
Cd408 O407 2.300 . S
Cd408 O416 2.381 . S
Cd408 O417 2.378 . S
O409 Cd410 2.385 . S
O409 C414 1.255 . S
Cd410 O409 2.385 . S
Cd410 O411 2.317 . S
O411 Cd410 2.317 . S
O411 C412 1.232 . S
C412 O411 1.232 . S
C412 O413 1.218 1_565 S
O413 C412 1.218 1_545 S
C414 O407 1.275 . S
C414 O409 1.255 . S
C415 O416 1.258 . S
C415 O417 1.256 . S
O416 Cd408 2.381 . S
O416 C415 1.258 . S
O417 Cd408 2.378 . S
O417 C415 1.256 . S
O418 Cd419 2.300 . S
O418 C425 1.275 . S
Cd419 O418 2.300 . S
Cd419 O427 2.381 . S
Cd419 O428 2.378 . S
O420 Cd421 2.385 . S
O420 C425 1.255 . S
Cd421 O420 2.385 . S
Cd421 O422 2.317 . S
O422 Cd421 2.317 . S
O422 C423 1.232 . S
C423 O422 1.232 . S
C423 O424 1.218 . S
O424 C423 1.218 . S
C425 O418 1.275 . S
C425 O420 1.255 . S
C426 O427 1.258 . S
C426 O428 1.256 . S
O427 Cd419 2.381 . S
O427 C426 1.258 . S
O428 Cd419 2.378 . S
O428 C426 1.256 . S
O429 Cd430 2.300 . S
O429 C436 1.275 . S
Cd430 O429 2.300 . S
Cd430 O438 2.381 . S
Cd430 O439 2.378 . S
O431 Cd432 2.385 . S
O431 C436 1.255 . S
Cd432 O431 2.385 . S
Cd432 O433 2.317 . S
O433 Cd432 2.317 . S
O433 C434 1.232 . S
C434 O433 1.232 . S
C434 O435 1.218 . S
O435 C434 1.218 . S
C436 O429 1.275 . S
C436 O431 1.255 . S
C437 O438 1.258 . S
C437 O439 1.256 . S
O438 Cd430 2.381 . S
O438 C437 1.258 . S
O439 Cd430 2.378 . S
O439 C437 1.256 . S
O440 Cd441 2.300 . S
O440 C447 1.275 . S
Cd441 O440 2.300 . S
Cd441 O449 2.381 . S
Cd441 O450 2.378 . S
O442 Cd443 2.385 . S
O442 C447 1.255 . S
Cd443 O442 2.385 . S
Cd443 O444 2.317 . S
O444 Cd443 2.317 . S
O444 C445 1.232 . S
C445 O444 1.232 . S
C445 O446 1.218 . S
O446 C445 1.218 . S
C447 O440 1.275 . S
C447 O442 1.255 . S
C448 O449 1.258 . S
C448 O450 1.256 . S
O449 Cd441 2.381 . S
O449 C448 1.258 . S
O450 Cd441 2.378 . S
O450 C448 1.256 . S
O451 Cd452 2.300 . S
O451 C458 1.275 . S
Cd452 O451 2.300 . S
Cd452 O460 2.381 . S
Cd452 O461 2.378 . S
O453 Cd454 2.385 . S
O453 C458 1.255 . S
Cd454 O453 2.385 . S
Cd454 O455 2.317 . S
O455 Cd454 2.317 . S
O455 C456 1.232 . S
C456 O455 1.232 . S
C456 O457 1.218 . S
O457 C456 1.218 . S
C458 O451 1.275 . S
C458 O453 1.255 . S
C459 O460 1.258 . S
C459 O461 1.256 . S
O460 Cd452 2.381 . S
O460 C459 1.258 . S
O461 Cd452 2.378 . S
O461 C459 1.256 . S
O462 Cd463 2.300 . S
O462 C469 1.275 . S
Cd463 O462 2.300 . S
Cd463 O471 2.381 . S
Cd463 O472 2.378 . S
O464 Cd465 2.401 . S
O464 C469 1.255 . S
Cd465 O464 2.401 . S
Cd465 O466 2.335 . S
O466 Cd465 2.335 . S
O466 C467 1.232 . S
C467 O466 1.232 . S
C467 O468 1.218 1_655 S
O468 C467 1.218 1_455 S
C469 O462 1.275 . S
C469 O464 1.255 . S
C470 O471 1.258 . S
C470 O472 1.256 . S
O471 Cd463 2.381 . S
O471 C470 1.258 . S
O472 Cd463 2.378 . S
O472 C470 1.256 . S
O473 Cd474 2.300 . S
O473 C480 1.275 . S
Cd474 O473 2.300 . S
Cd474 O482 2.381 . S
Cd474 O483 2.378 . S
O475 Cd476 2.385 . S
O475 C480 1.255 1_545 S
Cd476 O475 2.385 . S
Cd476 O477 2.317 . S
O477 Cd476 2.317 . S
O477 C478 1.232 . S
C478 O477 1.232 . S
C478 O479 1.218 . S
O479 C478 1.218 . S
C480 O473 1.275 . S
C480 O475 1.255 1_565 S
C481 O482 1.258 . S
C481 O483 1.256 . S
O482 Cd474 2.381 . S
O482 C481 1.258 . S
O483 Cd474 2.378 . S
O483 C481 1.256 . S
O484 Cd485 2.300 . S
O484 C491 1.275 . S
Cd485 O484 2.300 . S
Cd485 O493 2.381 . S
Cd485 O494 2.378 . S
O486 Cd487 2.385 . S
O486 C491 1.255 . S
Cd487 O486 2.385 . S
Cd487 O488 2.317 . S
O488 Cd487 2.317 . S
O488 C489 1.232 . S
C489 O488 1.232 . S
C489 O490 1.218 . S
O490 C489 1.218 . S
C491 O484 1.275 . S
C491 O486 1.255 . S
C492 O493 1.258 . S
C492 O494 1.256 . S
O493 Cd485 2.381 . S
O493 C492 1.258 . S
O494 Cd485 2.378 . S
O494 C492 1.256 . S
O495 Cd496 2.300 . S
O495 C502 1.275 . S
Cd496 O495 2.300 . S
Cd496 O504 2.381 . S
Cd496 O505 2.378 . S
O497 Cd498 2.385 . S
O497 C502 1.255 . S
Cd498 O497 2.385 . S
Cd498 O499 2.317 . S
O499 Cd498 2.317 . S
O499 C500 1.232 . S
C500 O499 1.232 . S
C500 O501 1.218 . S
O501 C500 1.218 . S
C502 O495 1.275 . S
C502 O497 1.255 . S
C503 O504 1.258 . S
C503 O505 1.256 . S
O504 Cd496 2.381 . S
O504 C503 1.258 . S
O505 Cd496 2.378 . S
O505 C503 1.256 . S
O506 Cd507 2.300 . S
O506 C513 1.275 . S
Cd507 O506 2.300 . S
Cd507 O515 2.381 . S
Cd507 O516 2.378 . S
O508 Cd509 2.385 . S
O508 C513 1.255 . S
Cd509 O508 2.385 . S
Cd509 O510 2.317 . S
O510 Cd509 2.317 . S
O510 C511 1.232 . S
C511 O510 1.232 . S
C511 O512 1.218 . S
O512 C511 1.218 . S
C513 O506 1.275 . S
C513 O508 1.255 . S
C514 O515 1.258 . S
C514 O516 1.256 . S
O515 Cd507 2.381 . S
O515 C514 1.258 . S
O516 Cd507 2.378 . S
O516 C514 1.256 . S
O517 Cd518 2.300 . S
O517 C524 1.275 . S
Cd518 O517 2.300 . S
Cd518 O526 2.381 . S
Cd518 O527 2.378 . S
O519 Cd520 2.385 . S
O519 C524 1.255 . S
Cd520 O519 2.385 . S
Cd520 O521 2.317 . S
O521 Cd520 2.317 . S
O521 C522 1.232 . S
C522 O521 1.232 . S
C522 O523 1.218 . S
O523 C522 1.218 . S
C524 O517 1.275 . S
C524 O519 1.255 . S
C525 O526 1.258 . S
C525 O527 1.256 . S
O526 Cd518 2.381 . S
O526 C525 1.258 . S
O527 Cd518 2.378 . S
O527 C525 1.256 . S
C491 C7 2.202 . S
C456 C18 1.775 . S
C27 C467 0.475 . S
C40 C478 1.757 . S
C524 C51 2.503 . S
C500 C60 0.824 . S
C71 C513 1.348 . S
C445 C82 0.825 . S
C434 C95 1.459 . S
C104 C401 1.180 . S
C414 C117 2.280 1_565 S
C128 C423 1.742 . S
C368 C137 1.180 . S
C150 C381 2.279 . S
C159 C392 1.742 . S
C170 C359 1.459 . S
C181 C346 0.825 . S
C192 C282 1.768 1_554 S
C203 C291 0.475 . S
C304 C214 1.757 . S
C271 C227 2.201 1_556 S
C324 C236 0.824 . S
C249 C335 1.349 . S
C260 C315 2.503 . S
C49 C469 1.952 . S
C480 C62 1.619 1_565 S
C73 C489 2.307 . S
C84 C458 1.709 . S
C511 C5 2.435 1_655 S
C16 C447 1.590 . S
C29 C522 2.201 . S
C38 C502 1.855 . S
C161 C370 1.800 . S
C172 C379 2.264 . S
C390 C139 1.281 . S
C148 C357 2.271 . S
C115 C436 2.264 . S
C126 C403 1.281 . S
C412 C93 2.272 1_565 S
C425 C106 1.800 . S
C238 C302 1.855 1_554 S
C326 C216 1.619 . S
C225 C337 2.307 . S
C348 C194 1.709 . S
C205 C313 1.952 . S
C183 C280 1.591 . S
C258 C293 2.201 . S
C269 C247 2.442 . S
C8 C107 1.604 . S
C19 C118 1.739 . S
C129 C30 1.516 . S
C96 C41 1.749 . S
C173 C52 1.803 . S
C140 C63 2.226 . S
C74 C151 1.707 . S
C85 C162 1.682 . S
C206 C184 1.579 . S
C195 C250 1.555 . S
C261 C217 1.882 . S
C228 C239 1.764 . S
C371 C272 1.604 . S
C283 C382 1.739 . S
C294 C393 1.515 . S
C305 C360 1.749 . S
C437 C316 1.803 . S
C404 C327 2.226 . S
C415 C338 1.707 . S
C349 C426 1.682 . S
C470 C448 1.580 . S
C514 C459 1.555 . S
C481 C525 1.882 . S
C503 C492 1.764 . S
