# Generated by pormake.
# Topology whz, (6)-cn, num edge types: 1
# Building blocks:
#     Node 0, Type 0, BuildingBlock: OJICUG_clean_sbu_0, # of connection points: 6
#     Node 1, Type 0, BuildingBlock: OJICUG_clean_sbu_0, # of connection points: 6
#     Node 2, Type 0, BuildingBlock: OJICUG_clean_sbu_0, # of connection points: 6
#     Node 3, Type 0, BuildingBlock: OJICUG_clean_sbu_0, # of connection points: 6
#     Node 4, Type 0, BuildingBlock: OJICUG_clean_sbu_0, # of connection points: 6
#     Node 5, Type 0, BuildingBlock: OJICUG_clean_sbu_0, # of connection points: 6
#     Node 6, Type 0, BuildingBlock: OJICUG_clean_sbu_0, # of connection points: 6
#     Node 7, Type 0, BuildingBlock: OJICUG_clean_sbu_0, # of connection points: 6
#     Node 8, Type 0, BuildingBlock: OJICUG_clean_sbu_0, # of connection points: 6
#     Node 9, Type 0, BuildingBlock: OJICUG_clean_sbu_0, # of connection points: 6
#     Node 10, Type 0, BuildingBlock: OJICUG_clean_sbu_0, # of connection points: 6
#     Node 11, Type 0, BuildingBlock: OJICUG_clean_sbu_0, # of connection points: 6
#     Node 12, Type 0, BuildingBlock: OJICUG_clean_sbu_0, # of connection points: 6
#     Node 13, Type 0, BuildingBlock: OJICUG_clean_sbu_0, # of connection points: 6
#     Node 14, Type 0, BuildingBlock: OJICUG_clean_sbu_0, # of connection points: 6
#     Node 15, Type 0, BuildingBlock: OJICUG_clean_sbu_0, # of connection points: 6
#     Edge 16, Type (0, 0), BuildingBlock: UVAHIK_clean_linker_0, # of connection points: 2
#     Edge 17, Type (0, 0), BuildingBlock: UVAHIK_clean_linker_0, # of connection points: 2
#     Edge 18, Type (0, 0), BuildingBlock: UVAHIK_clean_linker_0, # of connection points: 2
#     Edge 19, Type (0, 0), BuildingBlock: UVAHIK_clean_linker_0, # of connection points: 2
#     Edge 20, Type (0, 0), BuildingBlock: UVAHIK_clean_linker_0, # of connection points: 2
#     Edge 21, Type (0, 0), BuildingBlock: UVAHIK_clean_linker_0, # of connection points: 2
#     Edge 22, Type (0, 0), BuildingBlock: UVAHIK_clean_linker_0, # of connection points: 2
#     Edge 23, Type (0, 0), BuildingBlock: UVAHIK_clean_linker_0, # of connection points: 2
#     Edge 24, Type (0, 0), BuildingBlock: UVAHIK_clean_linker_0, # of connection points: 2
#     Edge 25, Type (0, 0), BuildingBlock: UVAHIK_clean_linker_0, # of connection points: 2
#     Edge 26, Type (0, 0), BuildingBlock: UVAHIK_clean_linker_0, # of connection points: 2
#     Edge 27, Type (0, 0), BuildingBlock: UVAHIK_clean_linker_0, # of connection points: 2
#     Edge 28, Type (0, 0), BuildingBlock: UVAHIK_clean_linker_0, # of connection points: 2
#     Edge 29, Type (0, 0), BuildingBlock: UVAHIK_clean_linker_0, # of connection points: 2
#     Edge 30, Type (0, 0), BuildingBlock: UVAHIK_clean_linker_0, # of connection points: 2
#     Edge 31, Type (0, 0), BuildingBlock: UVAHIK_clean_linker_0, # of connection points: 2
#     Edge 32, Type (0, 0), BuildingBlock: UVAHIK_clean_linker_0, # of connection points: 2
#     Edge 33, Type (0, 0), BuildingBlock: UVAHIK_clean_linker_0, # of connection points: 2
#     Edge 34, Type (0, 0), BuildingBlock: UVAHIK_clean_linker_0, # of connection points: 2
#     Edge 35, Type (0, 0), BuildingBlock: UVAHIK_clean_linker_0, # of connection points: 2
#     Edge 36, Type (0, 0), BuildingBlock: UVAHIK_clean_linker_0, # of connection points: 2
#     Edge 37, Type (0, 0), BuildingBlock: UVAHIK_clean_linker_0, # of connection points: 2
#     Edge 38, Type (0, 0), BuildingBlock: UVAHIK_clean_linker_0, # of connection points: 2
#     Edge 39, Type (0, 0), BuildingBlock: UVAHIK_clean_linker_0, # of connection points: 2
#     Edge 40, Type (0, 0), BuildingBlock: UVAHIK_clean_linker_0, # of connection points: 2
#     Edge 41, Type (0, 0), BuildingBlock: UVAHIK_clean_linker_0, # of connection points: 2
#     Edge 42, Type (0, 0), BuildingBlock: UVAHIK_clean_linker_0, # of connection points: 2
#     Edge 43, Type (0, 0), BuildingBlock: UVAHIK_clean_linker_0, # of connection points: 2
#     Edge 44, Type (0, 0), BuildingBlock: UVAHIK_clean_linker_0, # of connection points: 2
#     Edge 45, Type (0, 0), BuildingBlock: UVAHIK_clean_linker_0, # of connection points: 2
#     Edge 46, Type (0, 0), BuildingBlock: UVAHIK_clean_linker_0, # of connection points: 2
#     Edge 47, Type (0, 0), BuildingBlock: UVAHIK_clean_linker_0, # of connection points: 2
#     Edge 48, Type (0, 0), BuildingBlock: UVAHIK_clean_linker_0, # of connection points: 2
#     Edge 49, Type (0, 0), BuildingBlock: UVAHIK_clean_linker_0, # of connection points: 2
#     Edge 50, Type (0, 0), BuildingBlock: UVAHIK_clean_linker_0, # of connection points: 2
#     Edge 51, Type (0, 0), BuildingBlock: UVAHIK_clean_linker_0, # of connection points: 2
#     Edge 52, Type (0, 0), BuildingBlock: UVAHIK_clean_linker_0, # of connection points: 2
#     Edge 53, Type (0, 0), BuildingBlock: UVAHIK_clean_linker_0, # of connection points: 2
#     Edge 54, Type (0, 0), BuildingBlock: UVAHIK_clean_linker_0, # of connection points: 2
#     Edge 55, Type (0, 0), BuildingBlock: UVAHIK_clean_linker_0, # of connection points: 2
#     Edge 56, Type (0, 0), BuildingBlock: UVAHIK_clean_linker_0, # of connection points: 2
#     Edge 57, Type (0, 0), BuildingBlock: UVAHIK_clean_linker_0, # of connection points: 2
#     Edge 58, Type (0, 0), BuildingBlock: UVAHIK_clean_linker_0, # of connection points: 2
#     Edge 59, Type (0, 0), BuildingBlock: UVAHIK_clean_linker_0, # of connection points: 2
#     Edge 60, Type (0, 0), BuildingBlock: UVAHIK_clean_linker_0, # of connection points: 2
#     Edge 61, Type (0, 0), BuildingBlock: UVAHIK_clean_linker_0, # of connection points: 2
#     Edge 62, Type (0, 0), BuildingBlock: UVAHIK_clean_linker_0, # of connection points: 2
#     Edge 63, Type (0, 0), BuildingBlock: UVAHIK_clean_linker_0, # of connection points: 2
# Relax obj value: 0.452
# Max RMSD: 0.271
# Mean RMSD: 0.271
data_MOF--net-whz--node1-OJICUG_clean_sbu_0--edge1-UVAHIK_clean_linker_0
_symmetry_space_group_name_H-M    P1
_symmetry_Int_Tables_number       1
_symmetry_cell_setting            triclinic
loop_
_symmetry_equiv_pos_as_xyz
'x, y, z'
_cell_length_a     42.608862
_cell_length_b     42.595078
_cell_length_c     69.508664
_cell_angle_alpha  89.994883
_cell_angle_beta   89.991764
_cell_angle_gamma 89.967122
loop_
_atom_site_label
_atom_site_type_symbol
_atom_site_fract_x
_atom_site_fract_y
_atom_site_fract_z
_atom_type_partial_charge
Sc0 Sc 0.34551 0.18264 0.12615 0.0
Sc1 Sc 0.26617 0.17028 0.11504 0.0
Sc2 Sc 0.32319 0.11593 0.09924 0.0
O3 O 0.31159 0.15626 0.11349 0.0
C4 C 0.37672 0.16365 0.08627 0.0
C5 C 0.3005 0.23573 0.10891 0.0
C6 C 0.27082 0.14479 0.07172 0.0
C7 C 0.29138 0.187 0.15734 0.0
C8 C 0.36757 0.11264 0.13608 0.0
C9 C 0.26036 0.09633 0.12125 0.0
O10 O 0.3731 0.18194 0.10049 0.0
O11 O 0.277 0.21769 0.10682 0.0
O12 O 0.29492 0.12784 0.07464 0.0
O13 O 0.32026 0.18658 0.15277 0.0
O14 O 0.35203 0.09957 0.12269 0.0
O15 O 0.25083 0.12435 0.12361 0.0
O16 O 0.36863 0.14224 0.13825 0.0
O17 O 0.2695 0.18227 0.14521 0.0
O18 O 0.28543 0.08957 0.11221 0.0
O19 O 0.32629 0.22656 0.11618 0.0
O20 O 0.36185 0.13802 0.08421 0.0
O21 O 0.25761 0.16053 0.08501 0.0
Sc22 Sc 0.56343 0.59805 0.37659 0.0
Sc23 Sc 0.57795 0.5196 0.36429 0.0
Sc24 Sc 0.63107 0.57851 0.34985 0.0
O25 O 0.59087 0.56534 0.36359 0.0
C26 C 0.58209 0.6311 0.33725 0.0
C27 C 0.51226 0.55251 0.35784 0.0
C28 C 0.60495 0.52633 0.32135 0.0
C29 C 0.55902 0.54294 0.40682 0.0
C30 C 0.63266 0.62141 0.38735 0.0
C31 C 0.65156 0.51546 0.3715 0.0
O32 O 0.56337 0.62611 0.35111 0.0
O33 O 0.53112 0.52996 0.35475 0.0
O34 O 0.62023 0.55138 0.32462 0.0
O35 O 0.5603 0.57202 0.40286 0.0
O36 O 0.64629 0.60641 0.37393 0.0
O37 O 0.62372 0.50542 0.3739 0.0
O38 O 0.60298 0.62215 0.38911 0.0
O39 O 0.56356 0.52162 0.39426 0.0
O40 O 0.65785 0.54053 0.36232 0.0
O41 O 0.52014 0.57755 0.36652 0.0
O42 O 0.60851 0.61756 0.33545 0.0
O43 O 0.58997 0.51176 0.33443 0.0
Sc44 Sc 0.1698 0.87443 0.5999 0.0
Sc45 Sc 0.22631 0.81762 0.61325 0.0
Sc46 Sc 0.14808 0.80766 0.62714 0.0
O47 O 0.18143 0.83332 0.61343 0.0
C48 C 0.12782 0.87787 0.63784 0.0
C49 C 0.23455 0.89124 0.62036 0.0
C50 C 0.20472 0.80147 0.65638 0.0
C51 C 0.21913 0.84492 0.57052 0.0
C52 C 0.11466 0.82768 0.58805 0.0
C53 C 0.18968 0.75339 0.60812 0.0
O54 O 0.14255 0.89085 0.62408 0.0
O55 O 0.24351 0.86285 0.62167 0.0
O56 O 0.17548 0.80293 0.65287 0.0
O57 O 0.1965 0.86327 0.57447 0.0
O58 O 0.11882 0.80957 0.60233 0.0
O59 O 0.2134 0.77076 0.60512 0.0
O60 O 0.12969 0.85321 0.58564 0.0
O61 O 0.23221 0.82745 0.583 0.0
O62 O 0.16507 0.76324 0.61648 0.0
O63 O 0.209 0.89948 0.61234 0.0
O64 O 0.1268 0.8483 0.64005 0.0
O65 O 0.22553 0.80535 0.64345 0.0
Sc66 Sc 0.86624 0.41801 0.85023 0.0
Sc67 Sc 0.91965 0.4768 0.86477 0.0
Sc68 Sc 0.93548 0.3981 0.87571 0.0
O69 O 0.90707 0.43099 0.86358 0.0
C70 C 0.86691 0.37402 0.88748 0.0
C71 C 0.8459 0.48012 0.87267 0.0
C72 C 0.94005 0.45277 0.90668 0.0
C73 C 0.89207 0.47115 0.82204 0.0
C74 C 0.91477 0.36589 0.83633 0.0
C75 C 0.98556 0.44426 0.85679 0.0
O76 O 0.85256 0.38796 0.87388 0.0
O77 O 0.87366 0.49082 0.87402 0.0
O78 O 0.94104 0.42396 0.90199 0.0
O79 O 0.87508 0.44723 0.82539 0.0
O80 O 0.9334 0.36975 0.85036 0.0
O81 O 0.96673 0.46728 0.85564 0.0
O82 O 0.88892 0.38047 0.8345 0.0
O83 O 0.90877 0.48431 0.83486 0.0
O84 O 0.97809 0.41804 0.8642 0.0
O85 O 0.83939 0.45455 0.86411 0.0
O86 O 0.89658 0.37481 0.88928 0.0
O87 O 0.93307 0.47442 0.89479 0.0
Sc88 Sc 0.67052 0.872 0.90157 0.0
Sc89 Sc 0.72846 0.81588 0.88946 0.0
Sc90 Sc 0.65052 0.80413 0.87508 0.0
O91 O 0.68321 0.83073 0.8887 0.0
C92 C 0.61542 0.82531 0.91339 0.0
C93 C 0.71968 0.84407 0.93184 0.0
C94 C 0.69227 0.75134 0.89532 0.0
C95 C 0.73597 0.88941 0.88196 0.0
C96 C 0.63006 0.87364 0.86294 0.0
C97 C 0.70811 0.79795 0.84637 0.0
O98 O 0.63032 0.85091 0.91574 0.0
O99 O 0.73353 0.82667 0.91962 0.0
O100 O 0.66745 0.76059 0.88694 0.0
O101 O 0.70956 0.89721 0.88906 0.0
O102 O 0.62962 0.84399 0.86106 0.0
O103 O 0.72871 0.80317 0.85926 0.0
O104 O 0.64374 0.88724 0.87688 0.0
O105 O 0.74553 0.86117 0.88127 0.0
O106 O 0.67884 0.79835 0.84985 0.0
O107 O 0.6966 0.86163 0.92744 0.0
O108 O 0.62012 0.80689 0.89934 0.0
O109 O 0.71598 0.76896 0.89776 0.0
Sc110 Sc 0.3688 0.41861 0.65039 0.0
Sc111 Sc 0.4192 0.48041 0.6364 0.0
Sc112 Sc 0.43737 0.40315 0.62343 0.0
O113 O 0.40838 0.43409 0.63673 0.0
C114 C 0.41992 0.36744 0.6622 0.0
C115 C 0.39273 0.47136 0.67931 0.0
C116 C 0.48619 0.44998 0.64318 0.0
C117 C 0.34548 0.48136 0.62936 0.0
C118 C 0.3693 0.37694 0.61231 0.0
C119 C 0.4396 0.45942 0.59377 0.0
O120 O 0.39311 0.38008 0.66443 0.0
O121 O 0.40707 0.48675 0.66633 0.0
O122 O 0.4795 0.42454 0.63455 0.0
O123 O 0.34019 0.45575 0.63825 0.0
O124 O 0.3989 0.37855 0.61027 0.0
O125 O 0.43341 0.4802 0.60639 0.0
O126 O 0.35488 0.3902 0.62612 0.0
O127 O 0.37285 0.49262 0.6271 0.0
O128 O 0.44028 0.43031 0.59761 0.0
O129 O 0.37845 0.44576 0.67588 0.0
O130 O 0.4379 0.37366 0.64817 0.0
O131 O 0.46646 0.47197 0.64572 0.0
Sc132 Sc 0.84955 0.19243 0.37652 0.0
Sc133 Sc 0.76993 0.18435 0.38885 0.0
Sc134 Sc 0.82395 0.12544 0.40211 0.0
O135 O 0.81445 0.16739 0.38915 0.0
C136 C 0.86715 0.1221 0.36457 0.0
C137 C 0.79402 0.2018 0.34644 0.0
C138 C 0.75933 0.11129 0.38079 0.0
C139 C 0.8091 0.24697 0.39594 0.0
C140 C 0.88078 0.16856 0.41556 0.0
C141 C 0.7742 0.1556 0.43124 0.0
O142 O 0.86869 0.15168 0.36246 0.0
O143 O 0.77236 0.19672 0.35868 0.0
O144 O 0.78516 0.10221 0.38809 0.0
O145 O 0.83433 0.23661 0.38852 0.0
O146 O 0.86319 0.14478 0.4178 0.0
O147 O 0.76235 0.17425 0.41893 0.0
O148 O 0.87889 0.18718 0.40134 0.0
O149 O 0.78431 0.23058 0.39729 0.0
O150 O 0.79614 0.13651 0.42712 0.0
O151 O 0.823 0.20064 0.35072 0.0
O152 O 0.85243 0.1093 0.37841 0.0
O153 O 0.7509 0.1399 0.38038 0.0
Sc154 Sc 0.05927 0.59597 0.12289 0.0
Sc155 Sc 0.07181 0.51853 0.13772 0.0
Sc156 Sc 0.12571 0.57754 0.15105 0.0
O157 O 0.08571 0.56397 0.1372 0.0
C158 C 0.129 0.61849 0.1128 0.0
C159 C 0.05477 0.53881 0.09429 0.0
C160 C 0.14543 0.51264 0.13109 0.0
C161 C 0.00673 0.55299 0.14248 0.0
C162 C 0.07666 0.6314 0.1617 0.0
C163 C 0.0984 0.52749 0.18058 0.0
O164 O 0.09945 0.61895 0.11046 0.0
O165 O 0.05802 0.51847 0.1076 0.0
O166 O 0.15223 0.53825 0.13962 0.0
O167 O 0.01527 0.57686 0.13284 0.0
O168 O 0.10297 0.61783 0.16426 0.0
O169 O 0.08323 0.51247 0.16779 0.0
O170 O 0.05877 0.62566 0.14754 0.0
O171 O 0.02512 0.53056 0.1467 0.0
O172 O 0.11411 0.55207 0.1768 0.0
O173 O 0.05695 0.56812 0.09734 0.0
O174 O 0.14206 0.60406 0.12665 0.0
O175 O 0.11742 0.50302 0.12887 0.0
Sc176 Sc 0.85094 0.69029 0.62518 0.0
Sc177 Sc 0.77189 0.67762 0.61395 0.0
Sc178 Sc 0.82835 0.62091 0.60086 0.0
O179 O 0.81705 0.6629 0.61332 0.0
C180 C 0.88284 0.66639 0.58649 0.0
C181 C 0.80719 0.74138 0.60486 0.0
C182 C 0.77677 0.64704 0.57186 0.0
C183 C 0.79643 0.69904 0.65563 0.0
C184 C 0.87139 0.62115 0.63838 0.0
C185 C 0.76519 0.60501 0.62359 0.0
O186 O 0.87903 0.68636 0.59983 0.0
O187 O 0.78372 0.72324 0.6031 0.0
O188 O 0.80108 0.63074 0.57546 0.0
O189 O 0.82537 0.69735 0.65139 0.0
O190 O 0.85634 0.60672 0.62529 0.0
O191 O 0.7564 0.63341 0.62501 0.0
O192 O 0.87285 0.65093 0.6392 0.0
O193 O 0.77478 0.69372 0.64344 0.0
O194 O 0.78961 0.59655 0.61441 0.0
O195 O 0.83241 0.73333 0.6133 0.0
O196 O 0.86779 0.64071 0.58542 0.0
O197 O 0.7632 0.66377 0.58453 0.0
Sc198 Sc 0.0552 0.09658 0.87766 0.0
Sc199 Sc 0.06427 0.0183 0.86354 0.0
Sc200 Sc 0.12163 0.07419 0.85048 0.0
O201 O 0.0805 0.06296 0.86393 0.0
C202 C 0.07546 0.12994 0.83867 0.0
C203 C 0.00099 0.05601 0.85815 0.0
C204 C 0.09223 0.02503 0.82094 0.0
C205 C 0.04791 0.0402 0.90677 0.0
C206 C 0.12554 0.11623 0.88826 0.0
C207 C 0.13751 0.0085 0.87065 0.0
O208 O 0.05688 0.12552 0.85269 0.0
O209 O 0.01821 0.03245 0.85446 0.0
O210 O 0.10982 0.04831 0.82477 0.0
O211 O 0.05087 0.06938 0.90344 0.0
O212 O 0.13848 0.10071 0.87482 0.0
O213 O 0.10898 0.00011 0.87221 0.0
O214 O 0.09598 0.11802 0.8902 0.0
O215 O 0.05075 0.01942 0.89368 0.0
O216 O 0.14586 0.0342 0.86278 0.0
O217 O 0.01054 0.07971 0.86752 0.0
O218 O 0.10117 0.11506 0.83653 0.0
O219 O 0.07536 0.01163 0.83358 0.0
Sc220 Sc 0.66878 0.37165 0.0995 0.0
Sc221 Sc 0.72345 0.31232 0.11137 0.0
Sc222 Sc 0.64576 0.30597 0.12731 0.0
O223 O 0.67938 0.33008 0.11275 0.0
C224 C 0.62899 0.37693 0.1383 0.0
C225 C 0.73572 0.38555 0.11812 0.0
C226 C 0.70399 0.29741 0.15516 0.0
C227 C 0.71525 0.34012 0.06894 0.0
C228 C 0.61111 0.32732 0.08882 0.0
C229 C 0.68321 0.25014 0.10719 0.0
O230 O 0.64298 0.38915 0.124 0.0
O231 O 0.74377 0.3568 0.11867 0.0
O232 O 0.67466 0.29996 0.15225 0.0
O233 O 0.69412 0.35985 0.07353 0.0
O234 O 0.61498 0.30935 0.10321 0.0
O235 O 0.70751 0.26629 0.10362 0.0
O236 O 0.6274 0.35191 0.08584 0.0
O237 O 0.72771 0.3215 0.08102 0.0
O238 O 0.6598 0.26073 0.11642 0.0
O239 O 0.70935 0.39479 0.11163 0.0
O240 O 0.62735 0.34746 0.14078 0.0
O241 O 0.72423 0.30046 0.14178 0.0
Sc242 Sc 0.37241 0.92087 0.35078 0.0
Sc243 Sc 0.42732 0.97977 0.36311 0.0
Sc244 Sc 0.44028 0.90233 0.37775 0.0
O245 O 0.41322 0.93437 0.3639 0.0
C246 C 0.37102 0.88026 0.38933 0.0
C247 C 0.3537 0.98612 0.37048 0.0
C248 C 0.4456 0.95991 0.4063 0.0
C249 C 0.39946 0.97062 0.32068 0.0
C250 C 0.42053 0.86673 0.33933 0.0
C251 C 0.49221 0.94468 0.35738 0.0
O252 O 0.35716 0.89378 0.37541 0.0
O253 O 0.38181 0.99595 0.37168 0.0
O254 O 0.44465 0.93058 0.40309 0.0
O255 O 0.38266 0.94687 0.32479 0.0
O256 O 0.43887 0.87209 0.35334 0.0
O257 O 0.47405 0.96771 0.35414 0.0
O258 O 0.39447 0.88085 0.33697 0.0
O259 O 0.41594 0.9849 0.33314 0.0
O260 O 0.48381 0.92039 0.36661 0.0
O261 O 0.34646 0.95982 0.36297 0.0
O262 O 0.40064 0.8805 0.39125 0.0
O263 O 0.4409 0.98029 0.39319 0.0
Sc264 Sc 0.1716 0.37212 0.40133 0.0
Sc265 Sc 0.22502 0.31159 0.38964 0.0
Sc266 Sc 0.1473 0.30688 0.37358 0.0
O267 O 0.18137 0.33031 0.38814 0.0
C268 C 0.1134 0.32861 0.41222 0.0
C269 C 0.21731 0.3397 0.43195 0.0
C270 C 0.18373 0.25009 0.39345 0.0
C271 C 0.23891 0.38457 0.38283 0.0
C272 C 0.13138 0.37814 0.36279 0.0
C273 C 0.20537 0.2973 0.34582 0.0
O274 O 0.13 0.35303 0.4151 0.0
O275 O 0.2293 0.32063 0.41997 0.0
O276 O 0.16066 0.2612 0.38414 0.0
O277 O 0.2126 0.39444 0.3891 0.0
O278 O 0.12926 0.34871 0.36031 0.0
O279 O 0.22557 0.29971 0.35927 0.0
O280 O 0.14589 0.39012 0.37695 0.0
O281 O 0.24635 0.35566 0.38244 0.0
O282 O 0.17609 0.3007 0.34861 0.0
O283 O 0.19679 0.35997 0.42725 0.0
O284 O 0.11686 0.31057 0.39782 0.0
O285 O 0.20817 0.26584 0.39732 0.0
Sc286 Sc 0.86798 0.92195 0.15299 0.0
Sc287 Sc 0.9252 0.97746 0.13921 0.0
Sc288 Sc 0.93506 0.89803 0.1269 0.0
O289 O 0.90941 0.93251 0.1397 0.0
C290 C 0.91256 0.86589 0.16595 0.0
C291 C 0.89733 0.97246 0.18185 0.0
C292 C 0.98889 0.93983 0.14598 0.0
C293 C 0.85177 0.98625 0.13172 0.0
C294 C 0.86495 0.87899 0.11534 0.0
C295 C 0.94293 0.95372 0.09677 0.0
O296 O 0.88831 0.88279 0.16833 0.0
O297 O 0.91512 0.98493 0.16931 0.0
O298 O 0.97901 0.91438 0.1386 0.0
O299 O 0.84359 0.9604 0.13937 0.0
O300 O 0.89453 0.87794 0.11312 0.0
O301 O 0.93753 0.97529 0.10902 0.0
O302 O 0.85203 0.89346 0.12924 0.0
O303 O 0.88015 0.99531 0.13082 0.0
O304 O 0.94225 0.92472 0.10105 0.0
O305 O 0.87901 0.94976 0.17801 0.0
O306 O 0.93103 0.86851 0.15172 0.0
O307 O 0.97189 0.96422 0.14751 0.0
Sc308 Sc 0.35085 0.68752 0.87503 0.0
Sc309 Sc 0.2719 0.6793 0.88802 0.0
Sc310 Sc 0.32625 0.62085 0.90128 0.0
O311 O 0.31632 0.6625 0.8881 0.0
C312 C 0.36874 0.61688 0.86365 0.0
C313 C 0.29563 0.69706 0.84543 0.0
C314 C 0.26169 0.60667 0.87961 0.0
C315 C 0.31005 0.74183 0.8947 0.0
C316 C 0.38264 0.66527 0.91409 0.0
C317 C 0.27678 0.65016 0.93043 0.0
O318 O 0.37165 0.64646 0.86211 0.0
O319 O 0.27452 0.69435 0.8583 0.0
O320 O 0.28608 0.59761 0.88862 0.0
O321 O 0.33396 0.73227 0.88545 0.0
O322 O 0.36685 0.64011 0.91579 0.0
O323 O 0.2634 0.66689 0.9177 0.0
O324 O 0.37919 0.68464 0.90037 0.0
O325 O 0.28634 0.72466 0.89812 0.0
O326 O 0.30036 0.63291 0.92678 0.0
O327 O 0.32463 0.69314 0.84894 0.0
O328 O 0.35279 0.60412 0.87697 0.0
O329 O 0.25404 0.63537 0.8778 0.0
Sc330 Sc 0.5613 0.09991 0.62647 0.0
Sc331 Sc 0.57434 0.02056 0.63683 0.0
Sc332 Sc 0.62941 0.07696 0.65203 0.0
O333 O 0.58838 0.06583 0.63845 0.0
C334 C 0.63087 0.12189 0.61534 0.0
C335 C 0.55428 0.04658 0.59518 0.0
C336 C 0.64735 0.01511 0.6284 0.0
C337 C 0.50982 0.05466 0.64523 0.0
C338 C 0.5825 0.13056 0.66609 0.0
C339 C 0.60294 0.02362 0.67955 0.0
O340 O 0.60116 0.12327 0.61378 0.0
O341 O 0.55897 0.02461 0.60725 0.0
O342 O 0.65496 0.03895 0.63842 0.0
O343 O 0.51783 0.08014 0.63705 0.0
O344 O 0.60832 0.11577 0.66751 0.0
O345 O 0.5873 0.01042 0.66623 0.0
O346 O 0.5633 0.12694 0.65232 0.0
O347 O 0.52832 0.0315 0.64729 0.0
O348 O 0.61868 0.04857 0.67682 0.0
O349 O 0.55612 0.07541 0.59968 0.0
O350 O 0.64449 0.10599 0.62838 0.0
O351 O 0.61915 0.00624 0.62606 0.0
C352 C 0.30642 0.19931 0.19143 0.0
C353 C 0.28293 0.19534 0.1774 0.0
C354 C 0.29879 0.20989 0.20987 0.0
C355 C 0.23857 0.25536 0.23535 0.0
H356 H 0.27605 0.22009 0.28138 0.0
C357 C 0.19402 0.2855 0.31122 0.0
C358 C 0.216 0.28861 0.32621 0.0
C359 C 0.20335 0.27521 0.29305 0.0
C360 C 0.26574 0.23051 0.26864 0.0
H361 H 0.23281 0.19839 0.17207 0.0
H362 H 0.21958 0.21669 0.20428 0.0
H363 H 0.28955 0.19839 0.24993 0.0
H364 H 0.2653 0.28406 0.33357 0.0
H365 H 0.28164 0.26645 0.30168 0.0
H366 H 0.21485 0.28754 0.25396 0.0
C367 C 0.24395 0.212 0.20088 0.0
C368 C 0.27339 0.21799 0.25065 0.0
C369 C 0.25153 0.20127 0.18246 0.0
C370 C 0.24772 0.28186 0.3224 0.0
C371 C 0.25706 0.27155 0.30416 0.0
C372 C 0.23102 0.26793 0.25331 0.0
C373 C 0.26755 0.21687 0.21468 0.0
C374 C 0.25968 0.23013 0.23383 0.0
C375 C 0.23491 0.26782 0.28934 0.0
C376 C 0.24431 0.25551 0.27018 0.0
H377 H 0.33085 0.19488 0.18808 0.0
H378 H 0.31751 0.21357 0.22016 0.0
H379 H 0.22812 0.26564 0.22262 0.0
H380 H 0.16938 0.29044 0.31357 0.0
H381 H 0.1856 0.27223 0.28205 0.0
C382 C 0.45261 0.44661 0.55951 0.0
C383 C 0.44831 0.46929 0.574 0.0
C384 C 0.46364 0.4552 0.54136 0.0
C385 C 0.50943 0.51668 0.5171 0.0
H386 H 0.47759 0.47767 0.47063 0.0
C387 C 0.54557 0.55694 0.44088 0.0
C388 C 0.54976 0.53382 0.42664 0.0
C389 C 0.53401 0.549 0.45904 0.0
C390 C 0.48702 0.48846 0.4835 0.0
H391 H 0.4513 0.51904 0.58044 0.0
H392 H 0.47034 0.53406 0.5486 0.0
H393 H 0.45378 0.46506 0.50157 0.0
H394 H 0.54602 0.48395 0.42066 0.0
H395 H 0.52616 0.47008 0.45247 0.0
H396 H 0.54274 0.54002 0.49902 0.0
C397 C 0.46554 0.50954 0.55146 0.0
C398 C 0.4733 0.48132 0.50122 0.0
C399 C 0.45438 0.50096 0.56966 0.0
C400 C 0.54302 0.50239 0.43124 0.0
C401 C 0.53138 0.49446 0.44942 0.0
C402 C 0.52317 0.52381 0.49937 0.0
C403 C 0.47069 0.48668 0.53719 0.0
C404 C 0.48439 0.49528 0.51824 0.0
C405 C 0.52632 0.51775 0.46344 0.0
C406 C 0.51217 0.50973 0.48236 0.0
H407 H 0.4481 0.422 0.56228 0.0
H408 H 0.4676 0.43695 0.53078 0.0
H409 H 0.51889 0.52742 0.52998 0.0
H410 H 0.55054 0.5814 0.43791 0.0
H411 H 0.53016 0.56755 0.46942 0.0
C412 C 0.19246 0.78939 0.69089 0.0
C413 C 0.21482 0.79354 0.67621 0.0
C414 C 0.20167 0.77996 0.70928 0.0
C415 C 0.2654 0.73884 0.73453 0.0
H416 H 0.22681 0.7741 0.78021 0.0
C417 C 0.30898 0.71065 0.81128 0.0
C418 C 0.28621 0.70641 0.82571 0.0
C419 C 0.30038 0.72109 0.79298 0.0
C420 C 0.23753 0.76375 0.76758 0.0
H421 H 0.26461 0.79181 0.66962 0.0
H422 H 0.28064 0.77558 0.70179 0.0
H423 H 0.21213 0.79406 0.74858 0.0
H424 H 0.23635 0.70916 0.83196 0.0
H425 H 0.22139 0.72702 0.79995 0.0
H426 H 0.29071 0.70844 0.75351 0.0
C427 C 0.25591 0.77922 0.69893 0.0
C428 C 0.22917 0.77524 0.74947 0.0
C429 C 0.24672 0.78873 0.68053 0.0
C430 C 0.25455 0.71229 0.82125 0.0
C431 C 0.24597 0.72275 0.80294 0.0
C432 C 0.27375 0.72733 0.75264 0.0
C433 C 0.23345 0.77442 0.71345 0.0
C434 C 0.24297 0.76287 0.73274 0.0
C435 C 0.26882 0.72752 0.78864 0.0
C436 C 0.25986 0.73961 0.76937 0.0
H437 H 0.16768 0.7929 0.68813 0.0
H438 H 0.18376 0.77618 0.72009 0.0
H439 H 0.27607 0.72845 0.7219 0.0
H440 H 0.3336 0.70639 0.81416 0.0
H441 H 0.3186 0.72482 0.78235 0.0
C442 C 0.95458 0.49294 0.9316 0.0
C443 C 0.94923 0.46142 0.92657 0.0
C444 C 0.96593 0.5007 0.94987 0.0
C445 C 0.97464 0.47083 0.99947 0.0
H446 H 0.04255 0.53122 0.00223 0.0
C447 C 0.04021 0.49654 0.0706 0.0
C448 C 0.04624 0.52834 0.07461 0.0
C449 C 0.02965 0.48735 0.05237 0.0
C450 C 0.0234 0.51453 0.00174 0.0
H451 H 0.95057 0.41344 0.93715 0.0
H452 H 0.97031 0.42705 0.96893 0.0
H453 H 0.01977 0.51802 0.97111 0.0
H454 H 0.04668 0.57525 0.06232 0.0
H455 H 0.02806 0.5593 0.03085 0.0
H456 H 0.97805 0.46755 0.03013 0.0
C457 C 0.9657 0.44575 0.95875 0.0
C458 C 0.01032 0.50701 0.9839 0.0
C459 C 0.95452 0.43797 0.94047 0.0
C460 C 0.0423 0.55054 0.05981 0.0
C461 C 0.03176 0.54137 0.04166 0.0
C462 C 0.98766 0.47843 0.01733 0.0
C463 C 0.972 0.47715 0.96355 0.0
C464 C 0.9857 0.48519 0.98257 0.0
C465 C 0.02496 0.50974 0.03776 0.0
C466 C 0.0121 0.50049 0.01869 0.0
H467 H 0.95073 0.51162 0.9213 0.0
H468 H 0.97012 0.52516 0.95325 0.0
H469 H 0.9555 0.45413 0.99892 0.0
H470 H 0.04306 0.47878 0.08161 0.0
H471 H 0.02506 0.46272 0.04975 0.0
C472 C 0.75038 0.78649 0.82206 0.0
C473 C 0.71839 0.79013 0.82655 0.0
C474 C 0.75967 0.77766 0.80353 0.0
C475 C 0.73183 0.77412 0.75311 0.0
H476 H 0.79602 0.7102 0.74752 0.0
C477 C 0.7561 0.71292 0.68061 0.0
C478 C 0.78772 0.70844 0.67547 0.0
C479 C 0.74811 0.72301 0.69911 0.0
C480 C 0.7783 0.72831 0.74883 0.0
H481 H 0.67115 0.78784 0.81484 0.0
H482 H 0.68736 0.77226 0.78275 0.0
H483 H 0.78182 0.72882 0.77955 0.0
H484 H 0.83569 0.71061 0.68599 0.0
H485 H 0.82169 0.72836 0.71813 0.0
H486 H 0.72817 0.7735 0.72241 0.0
C487 C 0.7053 0.77651 0.79348 0.0
C488 C 0.77021 0.73903 0.76718 0.0
C489 C 0.69601 0.78527 0.81196 0.0
C490 C 0.81108 0.71382 0.6894 0.0
C491 C 0.80308 0.72385 0.70789 0.0
C492 C 0.7399 0.76339 0.73478 0.0
C493 C 0.7372 0.77238 0.78906 0.0
C494 C 0.74676 0.76194 0.76953 0.0
C495 C 0.77153 0.72878 0.71292 0.0
C496 C 0.76311 0.74026 0.73243 0.0
H497 H 0.76826 0.79011 0.83291 0.0
H498 H 0.78447 0.77503 0.80051 0.0
H499 H 0.71402 0.79215 0.75441 0.0
H500 H 0.73747 0.7089 0.67031 0.0
H501 H 0.72355 0.72615 0.70263 0.0
C502 C 0.74653 0.28395 0.17896 0.0
C503 C 0.71463 0.28931 0.17489 0.0
C504 C 0.75598 0.27457 0.19739 0.0
C505 C 0.72529 0.23641 0.24118 0.0
H506 H 0.79901 0.2715 0.26575 0.0
C507 C 0.75364 0.21482 0.3213 0.0
C508 C 0.78524 0.21022 0.32642 0.0
C509 C 0.74558 0.22387 0.3026 0.0
C510 C 0.77859 0.26116 0.25899 0.0
H511 H 0.6678 0.28984 0.18729 0.0
H512 H 0.68432 0.27379 0.21924 0.0
H513 H 0.78434 0.28896 0.23353 0.0
H514 H 0.8331 0.21099 0.31565 0.0
H515 H 0.81896 0.22632 0.28307 0.0
H516 H 0.7195 0.20859 0.26655 0.0
C517 C 0.70198 0.27631 0.20813 0.0
C518 C 0.77018 0.2712 0.24054 0.0
C519 C 0.69255 0.28572 0.18979 0.0
C520 C 0.80852 0.21449 0.31229 0.0
C521 C 0.80045 0.22348 0.2936 0.0
C522 C 0.73372 0.22633 0.25959 0.0
C523 C 0.73372 0.27027 0.2121 0.0
C524 C 0.7433 0.2591 0.23148 0.0
C525 C 0.7689 0.22846 0.28856 0.0
C526 C 0.76036 0.23871 0.26877 0.0
H527 H 0.76419 0.28647 0.16786 0.0
H528 H 0.78061 0.26994 0.19998 0.0
H529 H 0.70477 0.2262 0.23445 0.0
H530 H 0.73507 0.21185 0.33179 0.0
H531 H 0.72108 0.22787 0.29927 0.0
C532 C 0.95615 0.93936 0.0627 0.0
C533 C 0.95166 0.96261 0.07682 0.0
C534 C 0.96611 0.94742 0.0442 0.0
C535 C 0.97235 0.01421 0.01036 0.0
H536 H 0.03549 0.96216 0.98584 0.0
C537 C 0.03554 0.05293 0.94117 0.0
C538 C 0.03929 0.03035 0.92657 0.0
C539 C 0.02534 0.0442 0.95949 0.0
C540 C 0.01763 0.97675 0.99241 0.0
H541 H 0.95368 0.01272 0.08234 0.0
H542 H 0.97136 0.02671 0.05013 0.0
H543 H 0.01588 0.94806 0.01766 0.0
H544 H 0.03594 0.98062 0.92007 0.0
H545 H 0.01805 0.96542 0.9521 0.0
H546 H 0.97424 0.04299 0.98516 0.0
C547 C 0.96683 0.00224 0.05333 0.0
C548 C 0.00634 0.96866 0.01064 0.0
C549 C 0.9568 0.99419 0.07184 0.0
C550 C 0.03334 -0.00135 0.93093 0.0
C551 C 0.02317 0.98991 0.94932 0.0
C552 C 0.98368 0.02233 0.99217 0.0
C553 C 0.97189 0.97891 0.03934 0.0
C554 C 0.9836 0.98733 0.01985 0.0
C555 C 0.01867 0.01266 0.96372 0.0
C556 C 0.00652 0.00375 0.983 0.0
H557 H 0.95223 0.9148 0.06594 0.0
H558 H 0.96923 0.92892 0.03368 0.0
H559 H 0.95448 0.02882 0.0169 0.0
H560 H 0.04008 0.07755 0.93843 0.0
H561 H 0.02267 0.06222 0.97036 0.0
C562 C 0.45882 0.00245 0.43009 0.0
C563 C 0.45387 0.97049 0.42599 0.0
C564 C 0.46859 0.0119 0.44842 0.0
C565 C 0.47334 0.98506 0.49907 0.0
H566 H 0.53998 0.0467 0.50302 0.0
C567 C 0.5393 0.00689 0.5701 0.0
C568 C 0.54479 0.03833 0.57527 0.0
C569 C 0.52829 -0.00064 0.55174 0.0
C570 C 0.52114 0.02969 0.50216 0.0
H571 H 0.45466 0.92353 0.4382 0.0
H572 H 0.47188 0.93998 0.4699 0.0
H573 H 0.51906 0.03287 0.47145 0.0
H574 H 0.54376 0.08643 0.56489 0.0
H575 H 0.52447 0.0732 0.53293 0.0
H576 H 0.47558 0.98167 0.52975 0.0
C577 C 0.46795 0.9578 0.45905 0.0
C578 C 0.5091 0.02183 0.48408 0.0
C579 C 0.45824 0.94835 0.44078 0.0
C580 C 0.53976 0.06196 0.56145 0.0
C581 C 0.52883 0.05439 0.54307 0.0
C582 C 0.48542 0.99287 0.51712 0.0
C583 C 0.47351 0.98963 0.46306 0.0
C584 C 0.48521 -0.00075 0.48232 0.0
C585 C 0.52259 0.02305 0.53809 0.0
C586 C 0.5096 0.01511 0.51887 0.0
H587 H 0.45562 0.02016 0.41908 0.0
H588 H 0.4723 0.03666 0.45113 0.0
H589 H 0.45458 0.96796 0.49825 0.0
H590 H 0.54302 0.98805 0.58031 0.0
H591 H 0.52419 0.97492 0.54822 0.0
C592 C 0.13229 0.15064 0.91713 0.0
C593 C 0.14526 0.12939 0.90385 0.0
C594 C 0.14832 0.15821 0.93402 0.0
C595 C 0.22463 0.15088 0.95979 0.0
H596 H 0.17089 0.14632 0.00475 0.0
C597 C 0.27204 0.13009 0.03671 0.0
C598 C 0.2578 0.14658 0.05194 0.0
C599 C 0.25974 0.13173 0.0181 0.0
C600 C 0.18621 0.14816 0.99236 0.0
H601 H 0.18627 0.10111 0.89731 0.0
H602 H 0.21403 0.11397 0.92691 0.0
H603 H 0.14774 0.14422 0.97285 0.0
H604 H 0.21967 0.17821 0.05933 0.0
H605 H 0.19835 0.18108 0.02688 0.0
H606 H 0.2632 0.15403 0.97949 0.0
C607 C 0.19158 0.12504 0.9242 0.0
C608 C 0.17293 0.14704 0.97403 0.0
C609 C 0.17563 0.11763 0.9072 0.0
C610 C 0.23115 0.16501 0.04802 0.0
C611 C 0.21885 0.1666 0.02941 0.0
C612 C 0.23795 0.15194 0.97818 0.0
C613 C 0.17759 0.14452 0.93812 0.0
C614 C 0.19195 0.14816 0.9575 0.0
C615 C 0.23289 0.14985 0.01426 0.0
C616 C 0.21889 0.15033 0.99467 0.0
H617 H 0.10911 0.16044 0.91488 0.0
H618 H 0.13723 0.17395 0.9442 0.0
H619 H 0.23992 0.15211 0.94736 0.0
H620 H 0.29263 0.11571 0.03915 0.0
H621 H 0.27088 0.11823 0.00679 0.0
C622 C 0.58926 0.48525 0.29721 0.0
C623 C 0.60416 0.51392 0.30138 0.0
C624 C 0.58841 0.47371 0.27838 0.0
C625 C 0.62916 0.48034 0.23163 0.0
H626 H 0.55589 0.43637 0.21245 0.0
C627 C 0.62699 0.42916 0.15506 0.0
C628 C 0.61757 0.39755 0.15404 0.0
C629 C 0.62125 0.44687 0.17165 0.0
C630 C 0.57654 0.44856 0.21761 0.0
H631 H 0.62944 0.55313 0.2888 0.0
H632 H 0.62765 0.53316 0.25602 0.0
H633 H 0.55457 0.46018 0.24439 0.0
H634 H 0.59269 0.36057 0.16918 0.0
H635 H 0.58275 0.39138 0.19798 0.0
H636 H 0.65131 0.46832 0.20501 0.0
C637 C 0.61704 0.51934 0.26737 0.0
C638 C 0.57584 0.4621 0.23594 0.0
C639 C 0.61797 0.53085 0.2862 0.0
C640 C 0.60043 0.38479 0.16947 0.0
C641 C 0.59458 0.40253 0.18599 0.0
C642 C 0.62983 0.46689 0.2133 0.0
C643 C 0.60236 0.49058 0.26323 0.0
C644 C 0.60231 0.47778 0.24329 0.0
C645 C 0.60578 0.43345 0.18752 0.0
C646 C 0.60369 0.45046 0.20617 0.0
H647 H 0.57838 0.47154 0.30851 0.0
H648 H 0.57731 0.45125 0.27577 0.0
H649 H 0.65013 0.49184 0.2369 0.0
H650 H 0.64021 0.43981 0.14346 0.0
H651 H 0.62974 0.47081 0.17228 0.0
C652 C 0.22846 0.87015 0.53849 0.0
C653 C 0.23071 0.84372 0.55047 0.0
C654 C 0.24026 0.86929 0.51973 0.0
C655 C 0.25547 0.85996 0.47771 0.0
H656 H 0.33038 0.81071 0.46839 0.0
C657 C 0.31917 0.8656 0.4044 0.0
C658 C 0.35212 0.86684 0.4053 0.0
C659 C 0.30157 0.85715 0.42063 0.0
C660 C 0.30959 0.82482 0.47072 0.0
H661 H 0.2458 0.7952 0.55197 0.0
H662 H 0.26496 0.79307 0.51901 0.0
H663 H 0.3056 0.80882 0.49967 0.0
H664 H 0.39233 0.85892 0.42392 0.0
H665 H 0.36203 0.84547 0.45201 0.0
H666 H 0.26101 0.87787 0.4492 0.0
C667 C 0.25532 0.81499 0.52423 0.0
C668 C 0.29495 0.82331 0.48867 0.0
C669 C 0.24418 0.81611 0.54314 0.0
C670 C 0.36701 0.85813 0.42256 0.0
C671 C 0.3495 0.85014 0.43877 0.0
C672 C 0.27051 0.86196 0.45986 0.0
C673 C 0.25396 0.8417 0.51231 0.0
C674 C 0.26797 0.8413 0.49258 0.0
C675 C 0.31651 0.85008 0.4382 0.0
C676 C 0.29818 0.84491 0.45624 0.0
H677 H 0.21834 0.89183 0.5438 0.0
H678 H 0.23929 0.89059 0.51126 0.0
H679 H 0.23431 0.87357 0.47991 0.0
H680 H 0.30691 0.87201 0.39132 0.0
H681 H 0.27623 0.85677 0.41949 0.0
C682 C 0.89128 0.61871 0.6722 0.0
C683 C 0.88369 0.60301 0.65502 0.0
C684 C 0.89706 0.60196 0.68909 0.0
C685 C 0.88077 0.52425 0.71125 0.0
H686 H 0.93065 0.55974 0.75243 0.0
C687 C 0.9213 0.49768 0.79547 0.0
C688 C 0.89357 0.48367 0.8022 0.0
C689 C 0.92316 0.50935 0.77672 0.0
C690 C 0.917 0.54899 0.74108 0.0
H691 H 0.87846 0.55712 0.64191 0.0
H692 H 0.89007 0.52777 0.6712 0.0
H693 H 0.93198 0.58365 0.72091 0.0
H694 H 0.84598 0.47091 0.79462 0.0
H695 H 0.84843 0.49289 0.76228 0.0
H696 H 0.86695 0.4887 0.73122 0.0
C697 C 0.89036 0.55316 0.67179 0.0
C698 C 0.91734 0.56315 0.72295 0.0
C699 C 0.88405 0.57 0.6549 0.0
C700 C 0.8677 0.48151 0.78978 0.0
C701 C 0.86928 0.4939 0.77114 0.0
C702 C 0.88094 0.50966 0.7293 0.0
C703 C 0.89601 0.56894 0.68928 0.0
C704 C 0.89865 0.55149 0.70788 0.0
C705 C 0.89705 0.50805 0.76432 0.0
C706 C 0.89854 0.52219 0.74462 0.0
H707 H 0.89101 0.64411 0.67297 0.0
H708 H 0.90076 0.61517 0.70219 0.0
H709 H 0.86578 0.51461 0.70016 0.0
H710 H 0.94183 0.49917 0.80463 0.0
H711 H 0.94525 0.51921 0.77198 0.0
C712 C 0.85816 0.84881 0.08461 0.0
C713 C 0.84485 0.86637 0.09969 0.0
C714 C 0.84071 0.84181 0.06813 0.0
C715 C 0.77635 0.87468 0.03985 0.0
H716 H 0.7831 0.79732 0.01077 0.0
C717 C 0.71398 0.85914 0.96666 0.0
C718 C 0.73099 0.84384 0.95206 0.0
C719 C 0.72486 0.85913 0.98565 0.0
C720 C 0.78117 0.81918 0.01863 0.0
H721 H 0.80198 0.88864 0.10968 0.0
H722 H 0.7716 0.87631 0.08093 0.0
H723 H 0.80691 0.80085 0.04264 0.0
H724 H 0.77281 0.81635 0.94614 0.0
H725 H 0.79207 0.81698 0.97905 0.0
H726 H 0.7516 0.89346 0.0157 0.0
C727 C 0.79568 0.86829 0.08181 0.0
C728 C 0.79471 0.82113 0.03693 0.0
C729 C 0.81306 0.87511 0.09837 0.0
C730 C 0.75901 0.82831 0.95698 0.0
C731 C 0.76997 0.82846 0.97594 0.0
C732 C 0.76299 0.87281 0.02152 0.0
C733 C 0.80959 0.85234 0.06629 0.0
C734 C 0.79276 0.84903 0.04765 0.0
C735 C 0.75312 0.84396 0.99052 0.0
C736 C 0.76556 0.84517 0.01056 0.0
H737 H 0.88253 0.8416 0.08513 0.0
H738 H 0.85218 0.82962 0.05639 0.0
H739 H 0.77487 0.89669 0.04759 0.0
H740 H 0.69216 0.8711 0.96346 0.0
H741 H 0.71101 0.87091 0.99654 0.0
C742 C 0.3973 0.6104 0.83229 0.0
C743 C 0.38068 0.5969 0.84771 0.0
C744 C 0.40316 0.5932 0.81554 0.0
C745 C 0.36849 0.52866 0.78798 0.0
H746 H 0.44273 0.53752 0.7562 0.0
C747 C 0.38009 0.46602 0.71452 0.0
C748 C 0.39328 0.48349 0.69936 0.0
C749 C 0.38105 0.47728 0.73342 0.0
C750 C 0.42173 0.535 0.76484 0.0
H751 H 0.35924 0.55382 0.85803 0.0
H752 H 0.36977 0.52383 0.82887 0.0
H753 H 0.44172 0.56085 0.78828 0.0
H754 H 0.41788 0.52663 0.69234 0.0
H755 H 0.41901 0.54643 0.72515 0.0
H756 H 0.34814 0.50356 0.76444 0.0
C757 C 0.37775 0.54794 0.82965 0.0
C758 C 0.42121 0.54828 0.78325 0.0
C759 C 0.37197 0.56509 0.84644 0.0
C760 C 0.40751 0.51247 0.70361 0.0
C761 C 0.4084 0.52375 0.72249 0.0
C762 C 0.36897 0.51546 0.76957 0.0
C763 C 0.39252 0.5621 0.81378 0.0
C764 C 0.39444 0.54557 0.79495 0.0
C765 C 0.39517 0.50632 0.73764 0.0
C766 C 0.39544 0.5188 0.75767 0.0
H767 H 0.40447 0.63478 0.83274 0.0
H768 H 0.41447 0.60489 0.80357 0.0
H769 H 0.34727 0.5266 0.79647 0.0
H770 H 0.36913 0.4435 0.71185 0.0
H771 H 0.37097 0.46306 0.74475 0.0
C772 C 0.73415 0.17205 0.45583 0.0
C773 C 0.7622 0.15631 0.45129 0.0
C774 C 0.72273 0.1723 0.4747 0.0
C775 C 0.72935 0.1288 0.52073 0.0
H776 H 0.68507 0.20088 0.54139 0.0
C777 C 0.6822 0.12781 0.59799 0.0
C778 C 0.6502 0.13554 0.59963 0.0
C779 C 0.69886 0.13493 0.58122 0.0
C780 C 0.69738 0.18059 0.53579 0.0
H781 H 0.80073 0.12926 0.46324 0.0
H782 H 0.78124 0.13026 0.49611 0.0
H783 H 0.70834 0.20378 0.5093 0.0
H784 H 0.61142 0.15919 0.58544 0.0
H785 H 0.64055 0.17168 0.55629 0.0
H786 H 0.71827 0.10556 0.54714 0.0
C787 C 0.76758 0.14177 0.48503 0.0
C788 C 0.71058 0.18216 0.51737 0.0
C789 C 0.77884 0.14129 0.46614 0.0
C790 C 0.63597 0.15271 0.58468 0.0
C791 C 0.65271 0.15999 0.56795 0.0
C792 C 0.71639 0.12733 0.53916 0.0
C793 C 0.73922 0.15703 0.48955 0.0
C794 C 0.72646 0.15614 0.50951 0.0
C795 C 0.68399 0.15016 0.56576 0.0
C796 C 0.69998 0.15307 0.54684 0.0
H797 H 0.72068 0.18382 0.44474 0.0
H798 H 0.70059 0.18389 0.47755 0.0
H799 H 0.74084 0.10808 0.51508 0.0
H800 H 0.69403 0.11471 0.60921 0.0
H801 H 0.72311 0.12753 0.58007 0.0
C802 C 0.12895 0.43058 0.34628 0.0
C803 C 0.11948 0.39899 0.3473 0.0
C804 C 0.12224 0.44862 0.32996 0.0
C805 C 0.07443 0.45131 0.28523 0.0
H806 H 0.14677 0.49464 0.26426 0.0
C807 C 0.08277 0.48747 0.20537 0.0
C808 C 0.09776 0.51589 0.20073 0.0
C809 C 0.08264 0.47634 0.2243 0.0
C810 C 0.12613 0.48316 0.27002 0.0
H811 H 0.09362 0.36234 0.33249 0.0
H812 H 0.08201 0.39371 0.30416 0.0
H813 H 0.15004 0.47076 0.29599 0.0
H814 H 0.12377 0.55523 0.21258 0.0
H815 H 0.12323 0.53595 0.24555 0.0
H816 H 0.05072 0.46325 0.25907 0.0
C817 C 0.0946 0.40459 0.31593 0.0
C818 C 0.128 0.46948 0.28826 0.0
C819 C 0.10143 0.38653 0.33217 0.0
C820 C 0.11222 0.53311 0.21556 0.0
C821 C 0.11201 0.522 0.23449 0.0
C822 C 0.07253 0.46507 0.26699 0.0
C823 C 0.10572 0.43554 0.31438 0.0
C824 C 0.10235 0.45297 0.29596 0.0
C825 C 0.09741 0.49337 0.23908 0.0
C826 C 0.09853 0.48073 0.25903 0.0
H827 H 0.14285 0.44099 0.35765 0.0
H828 H 0.13072 0.47256 0.32931 0.0
H829 H 0.05413 0.43908 0.29086 0.0
H830 H 0.07141 0.47355 0.19436 0.0
H831 H 0.07157 0.45397 0.22725 0.0
C832 C 0.73532 0.66177 0.54776 0.0
C833 C 0.76422 0.6473 0.55192 0.0
C834 C 0.72381 0.66258 0.52893 0.0
C835 C 0.73205 0.62317 0.4817 0.0
H836 H 0.68597 0.69571 0.46321 0.0
C837 C 0.68413 0.62698 0.40458 0.0
C838 C 0.652 0.63438 0.40325 0.0
C839 C 0.70084 0.6331 0.42148 0.0
C840 C 0.69877 0.67528 0.46819 0.0
H841 H 0.80385 0.62268 0.53934 0.0
H842 H 0.78401 0.62452 0.50653 0.0
H843 H 0.70909 0.69656 0.49536 0.0
H844 H 0.61305 0.65644 0.4182 0.0
H845 H 0.64224 0.66716 0.44756 0.0
H846 H 0.72153 0.6018 0.45462 0.0
C847 C 0.76993 0.63474 0.51789 0.0
C848 C 0.7119 0.67568 0.48664 0.0
C849 C 0.78136 0.63376 0.53674 0.0
C850 C 0.6377 0.65027 0.4187 0.0
C851 C 0.65447 0.65652 0.43556 0.0
C852 C 0.71911 0.62285 0.46323 0.0
C853 C 0.74097 0.64911 0.51373 0.0
C854 C 0.72838 0.64946 0.49373 0.0
C855 C 0.6859 0.64695 0.43739 0.0
C856 C 0.70201 0.64875 0.45633 0.0
H857 H 0.72142 0.67237 0.55908 0.0
H858 H 0.70117 0.67336 0.52636 0.0
H859 H 0.74412 0.60235 0.48674 0.0
H860 H 0.69602 0.61485 0.39298 0.0
H861 H 0.72521 0.62596 0.42234 0.0
C862 C 0.10903 0.02696 0.78621 0.0
C863 C 0.09143 0.01269 0.80095 0.0
C864 C 0.10874 0.01468 0.76752 0.0
C865 C 0.09463 0.94076 0.74169 0.0
H866 H 0.09209 0.99339 0.69618 0.0
C867 C 0.09393 0.88478 0.66696 0.0
C868 C 0.11476 0.89771 0.65344 0.0
C869 C 0.08636 0.90113 0.68375 0.0
C870 C 0.093 0.97838 0.70875 0.0
H871 H 0.05909 0.97469 0.80734 0.0
H872 H 0.05862 0.95347 0.77488 0.0
H873 H 0.0889 0.01743 0.72809 0.0
H874 H 0.14241 0.9389 0.64641 0.0
H875 H 0.12967 0.96719 0.67585 0.0
H876 H 0.09955 0.90183 0.72262 0.0
C877 C 0.07293 0.97393 0.77782 0.0
C878 C 0.09119 0.99217 0.72702 0.0
C879 C 0.07313 0.98621 0.79644 0.0
C880 C 0.1262 0.92828 0.65649 0.0
C881 C 0.11885 0.94455 0.6734 0.0
C882 C 0.09657 0.92704 0.72351 0.0
C883 C 0.09094 0.98781 0.76318 0.0
C884 C 0.09207 0.97348 0.74369 0.0
C885 C 0.0997 0.93069 0.68754 0.0
C886 C 0.09584 0.94562 0.70678 0.0
H887 H 0.12332 0.04743 0.78911 0.0
H888 H 0.12309 0.02575 0.7566 0.0
H889 H 0.09598 0.92573 0.75424 0.0
H890 H 0.0844 0.86143 0.66495 0.0
H891 H 0.07084 0.89011 0.69407 0.0
C892 C 0.72444 0.36542 0.03684 0.0
C893 C 0.72613 0.3388 0.04872 0.0
C894 C 0.73634 0.36453 0.01808 0.0
C895 C 0.75197 0.35515 0.97602 0.0
H896 H 0.82648 0.30506 0.96708 0.0
C897 C 0.81536 0.35873 0.90263 0.0
C898 C 0.84833 0.36001 0.90342 0.0
C899 C 0.79788 0.35061 0.91897 0.0
C900 C 0.8058 0.31938 0.96929 0.0
H901 H 0.74019 0.28994 0.04995 0.0
H902 H 0.75958 0.28789 0.01706 0.0
H903 H 0.8013 0.3036 0.99828 0.0
H904 H 0.88868 0.3522 0.92191 0.0
H905 H 0.85855 0.33914 0.95021 0.0
H906 H 0.75791 0.37269 0.94745 0.0
C907 C 0.75029 0.3099 0.02236 0.0
C908 C 0.79094 0.31815 0.9872 0.0
C909 C 0.73899 0.31099 0.04123 0.0
C910 C 0.86336 0.35139 0.92065 0.0
C911 C 0.84594 0.34368 0.93698 0.0
C912 C 0.76717 0.3568 0.9582 0.0
C913 C 0.74966 0.33681 0.01059 0.0
C914 C 0.76406 0.33638 0.99096 0.0
C915 C 0.81293 0.34387 0.93654 0.0
C916 C 0.79465 0.33935 0.95469 0.0
H917 H 0.71482 0.38725 0.04224 0.0
H918 H 0.73587 0.38594 0.0097 0.0
H919 H 0.73096 0.36903 0.97813 0.0
H920 H 0.80298 0.36505 0.88959 0.0
H921 H 0.77253 0.35034 0.91791 0.0
C922 C 0.40178 0.1059 0.16508 0.0
C923 C 0.38101 0.09283 0.15158 0.0
C924 C 0.40903 0.08982 0.18203 0.0
C925 C 0.40099 0.01339 0.20788 0.0
H926 H 0.39644 0.0676 0.25261 0.0
C927 C 0.3828 0.96751 0.28591 0.0
C928 C 0.40015 0.98236 0.30055 0.0
C929 C 0.38336 0.97913 0.26706 0.0
C930 C 0.3982 0.05213 0.24029 0.0
H931 H 0.35337 0.05155 0.14469 0.0
H932 H 0.36559 0.02378 0.17437 0.0
H933 H 0.39432 0.09044 0.22066 0.0
H934 H 0.43228 0.02072 0.30657 0.0
H935 H 0.43322 0.04071 0.27387 0.0
H936 H 0.40409 0.97499 0.22778 0.0
C937 C 0.37656 0.04632 0.17181 0.0
C938 C 0.39712 0.06525 0.22191 0.0
C939 C 0.36953 0.0623 0.15475 0.0
C940 C 0.41839 0.00876 0.29578 0.0
C941 C 0.41888 0.02035 0.277 0.0
C942 C 0.40196 0.00022 0.22634 0.0
C943 C 0.39543 0.06043 0.18598 0.0
C944 C 0.39847 0.0461 0.20545 0.0
C945 C 0.40118 0.00588 0.26245 0.0
C946 C 0.40054 0.01948 0.24275 0.0
H947 H 0.41134 0.12921 0.16299 0.0
H948 H 0.42436 0.10101 0.19239 0.0
H949 H 0.40231 -0.00203 0.19552 0.0
H950 H 0.36858 0.94707 0.28903 0.0
H951 H 0.36926 0.9676 0.25619 0.0
C952 C 0.36565 0.35411 0.57922 0.0
C953 C 0.35078 0.36242 0.59655 0.0
C954 C 0.34808 0.34559 0.56311 0.0
C955 C 0.26874 0.35645 0.5426 0.0
H956 H 0.30319 0.3035 0.50249 0.0
C957 C 0.24068 0.31042 0.4597 0.0
C958 C 0.22803 0.33831 0.45218 0.0
C959 C 0.25186 0.3093 0.47859 0.0
C960 C 0.29276 0.31795 0.5136 0.0
H961 H 0.30566 0.36607 0.61085 0.0
H962 H 0.27499 0.35008 0.58289 0.0
H963 H 0.32878 0.30561 0.53358 0.0
H964 H 0.21688 0.38682 0.45862 0.0
H965 H 0.23765 0.38541 0.49121 0.0
H966 H 0.23216 0.36805 0.52279 0.0
C967 C 0.30029 0.35115 0.58159 0.0
C968 C 0.30781 0.31954 0.53142 0.0
C969 C 0.31791 0.36005 0.5977 0.0
C970 C 0.22636 0.36493 0.46404 0.0
C971 C 0.23809 0.364 0.48282 0.0
C972 C 0.25337 0.35447 0.52487 0.0
C973 C 0.31511 0.3447 0.56391 0.0
C974 C 0.29655 0.3395 0.54599 0.0
C975 C 0.25124 0.33622 0.49033 0.0
C976 C 0.26562 0.33583 0.50992 0.0
H977 H 0.3909 0.35573 0.5777 0.0
H978 H 0.36046 0.34129 0.54977 0.0
H979 H 0.25939 0.37229 0.55335 0.0
H980 H 0.24187 0.28936 0.45099 0.0
H981 H 0.26109 0.28728 0.48393 0.0
C982 C 0.91387 0.0129 0.20616 0.0
C983 C 0.89808 0.98478 0.20184 0.0
C984 C 0.9142 0.02468 0.22494 0.0
C985 C 0.87083 0.01954 0.27102 0.0
H986 H 0.94341 0.06356 0.29113 0.0
C987 C 0.89666 0.11513 0.33359 0.0
C988 C 0.87944 0.10191 0.34885 0.0
C989 C 0.90325 0.0976 0.31707 0.0
C990 C 0.92297 0.05135 0.28569 0.0
H991 H 0.87094 0.9466 0.2141 0.0
H992 H 0.872 0.96681 0.24683 0.0
H993 H 0.94605 0.03917 0.25937 0.0
H994 H 0.85743 0.05908 0.35911 0.0
H995 H 0.86907 0.02857 0.3303 0.0
H996 H 0.84768 0.03192 0.29725 0.0
C997 C 0.88356 0.98016 0.23563 0.0
C998 C 0.9244 0.03749 0.26746 0.0
C999 C 0.88305 0.9685 0.21684 0.0
C1000 C 0.87068 0.07011 0.34766 0.0
C1001 C 0.87711 0.05266 0.33107 0.0
C1002 C 0.86948 0.03321 0.28927 0.0
C1003 C 0.89893 0.00854 0.23992 0.0
C1004 C 0.8982 0.02175 0.25978 0.0
C1005 C 0.89265 0.06649 0.31538 0.0
C1006 C 0.89538 0.0496 0.29673 0.0
H1007 H 0.92565 0.02612 0.19498 0.0
H1008 H 0.92586 0.04683 0.22761 0.0
H1009 H 0.85001 0.00812 0.26549 0.0
H1010 H 0.90389 0.1395 0.33401 0.0
H1011 H 0.91515 0.109 0.30521 0.0
C1012 C 0.13532 0.64842 0.08196 0.0
C1013 C 0.14898 0.63179 0.09733 0.0
C1014 C 0.15288 0.65573 0.06559 0.0
C1015 C 0.21878 0.62397 0.0384 0.0
H1016 H 0.20956 0.69931 0.00761 0.0
C1017 C 0.28193 0.63752 0.96555 0.0
C1018 C 0.26468 0.6511 0.95044 0.0
C1019 C 0.2706 0.63838 0.98441 0.0
C1020 C 0.21219 0.67802 0.01597 0.0
H1021 H 0.19254 0.61187 0.10802 0.0
H1022 H 0.22312 0.62477 0.07945 0.0
H1023 H 0.18553 0.69676 0.03949 0.0
H1024 H 0.222 0.67646 0.94341 0.0
H1025 H 0.2019 0.67724 0.97619 0.0
H1026 H 0.24442 0.60471 0.01478 0.0
C1027 C 0.19868 0.63173 0.08002 0.0
C1028 C 0.19854 0.67664 0.03426 0.0
C1029 C 0.18118 0.62456 0.09645 0.0
C1030 C 0.23594 0.6658 0.95469 0.0
C1031 C 0.22451 0.66647 0.97354 0.0
C1032 C 0.23224 0.62527 0.02011 0.0
C1033 C 0.18445 0.64648 0.06417 0.0
C1034 C 0.20141 0.64946 0.04559 0.0
C1035 C 0.24164 0.65265 0.98863 0.0
C1036 C 0.22883 0.65216 0.00856 0.0
H1037 H 0.11064 0.65452 0.08216 0.0
H1038 H 0.14119 0.667 0.05359 0.0
H1039 H 0.22093 0.60246 0.04661 0.0
H1040 H 0.30433 0.62631 0.96287 0.0
H1041 H 0.28467 0.62795 0.99571 0.0
C1042 C 0.61768 0.02425 0.71461 0.0
C1043 C 0.60233 0.00955 0.69911 0.0
C1044 C 0.61682 0.01105 0.73304 0.0
C1045 C 0.6049 0.93559 0.75782 0.0
H1046 H 0.59453 0.98729 0.80332 0.0
C1047 C 0.59917 0.87893 0.83244 0.0
C1048 C 0.6178 0.89285 0.84679 0.0
C1049 C 0.5927 0.8949 0.81534 0.0
C1050 C 0.59763 0.97255 0.79076 0.0
H1051 H 0.57371 0.96948 0.69103 0.0
H1052 H 0.57225 0.94662 0.72311 0.0
H1053 H 0.59318 0.01157 0.77146 0.0
H1054 H 0.64263 0.93534 0.85483 0.0
H1055 H 0.63171 0.96301 0.8249 0.0
H1056 H 0.61005 0.89672 0.77696 0.0
C1057 C 0.58521 0.9682 0.72095 0.0
C1058 C 0.59689 0.98647 0.77251 0.0
C1059 C 0.58598 0.98141 0.70255 0.0
C1060 C 0.62809 0.92393 0.84413 0.0
C1061 C 0.6218 0.93984 0.82693 0.0
C1062 C 0.60574 0.92173 0.77602 0.0
C1063 C 0.60069 0.9828 0.73641 0.0
C1064 C 0.60065 0.96814 0.75584 0.0
C1065 C 0.60491 0.9251 0.81207 0.0
C1066 C 0.60221 0.94 0.79274 0.0
H1067 H 0.63045 0.04597 0.71253 0.0
H1068 H 0.62929 0.0227 0.74458 0.0
H1069 H 0.60841 0.92086 0.7453 0.0
H1070 H 0.59057 0.85515 0.83408 0.0
H1071 H 0.57892 0.88315 0.80441 0.0
C1072 C 0.38479 0.20091 0.05969 0.0
C1073 C 0.39606 0.17545 0.07047 0.0
C1074 C 0.40529 0.21877 0.04852 0.0
C1075 C 0.4575 0.26643 0.04928 0.0
H1076 H 0.53631 0.23913 0.02713 0.0
C1077 C 0.58829 0.28414 0.0699 0.0
C1078 C 0.58898 0.31634 0.07406 0.0
C1079 C 0.56505 0.27172 0.05818 0.0
C1080 C 0.51425 0.24734 0.03303 0.0
H1081 H 0.43653 0.14688 0.07709 0.0
H1082 H 0.47275 0.1782 0.05768 0.0
H1083 H 0.49124 0.20372 0.02691 0.0
H1084 H 0.56783 0.36142 0.06791 0.0
H1085 H 0.52608 0.33947 0.04746 0.0
H1086 H 0.48109 0.30853 0.05734 0.0
C1087 C 0.44803 0.18415 0.05747 0.0
C1088 C 0.48849 0.22706 0.03287 0.0
C1089 C 0.42744 0.16624 0.06865 0.0
C1090 C 0.56745 0.33644 0.06503 0.0
C1091 C 0.54369 0.32386 0.05336 0.0
C1092 C 0.48333 0.28651 0.04967 0.0
C1093 C 0.43744 0.21159 0.04816 0.0
C1094 C 0.46052 0.23568 0.04214 0.0
C1095 C 0.54162 0.29115 0.0504 0.0
C1096 C 0.51261 0.27622 0.04286 0.0
H1097 H 0.36057 0.20838 0.06105 0.0
H1098 H 0.39646 0.23961 0.0414 0.0
H1099 H 0.43626 0.27385 0.05655 0.0
H1100 H 0.60508 0.26822 0.07641 0.0
H1101 H 0.56416 0.24645 0.05654 0.0
C1102 C 0.5445 0.63979 0.3109 0.0
C1103 C 0.57024 0.65066 0.32156 0.0
C1104 C 0.52726 0.66042 0.29947 0.0
C1105 C 0.48063 0.71328 0.29925 0.0
H1106 H 0.50987 0.79199 0.27794 0.0
C1107 C 0.46426 0.84361 0.32083 0.0
C1108 C 0.43193 0.84471 0.32457 0.0
C1109 C 0.47674 0.82053 0.30898 0.0
C1110 C 0.50112 0.76996 0.28357 0.0
H1111 H 0.6 0.69046 0.32766 0.0
H1112 H 0.56951 0.72704 0.308 0.0
H1113 H 0.54454 0.74632 0.27782 0.0
H1114 H 0.38678 0.82452 0.31748 0.0
H1115 H 0.40882 0.78312 0.29683 0.0
H1116 H 0.43863 0.73741 0.30688 0.0
C1117 C 0.56291 0.70249 0.30803 0.0
C1118 C 0.521 0.74385 0.2835 0.0
C1119 C 0.58032 0.6817 0.31938 0.0
C1120 C 0.41186 0.82382 0.31498 0.0
C1121 C 0.42448 0.80026 0.30317 0.0
C1122 C 0.46094 0.73941 0.29951 0.0
C1123 C 0.53522 0.69238 0.29881 0.0
C1124 C 0.51167 0.7159 0.29254 0.0
C1125 C 0.45722 0.79771 0.30064 0.0
C1126 C 0.47192 0.76863 0.29303 0.0
H1127 H 0.53648 0.61577 0.31245 0.0
H1128 H 0.50631 0.65189 0.29236 0.0
H1129 H 0.47261 0.69209 0.30633 0.0
H1130 H 0.48022 0.85993 0.32771 0.0
H1131 H 0.50203 0.81925 0.30766 0.0
C1132 C 0.89123 0.70005 0.55821 0.0
C1133 C 0.90249 0.67624 0.57033 0.0
C1134 C 0.91188 0.71678 0.5465 0.0
C1135 C 0.96362 0.76507 0.5465 0.0
H1136 H 0.04338 0.73661 0.52627 0.0
C1137 C 0.09327 0.78382 0.56902 0.0
C1138 C 0.09348 0.81613 0.57291 0.0
C1139 C 0.07075 0.77092 0.55697 0.0
C1140 C 0.02107 0.74514 0.53163 0.0
H1141 H 0.9431 0.64922 0.57881 0.0
H1142 H 0.97955 0.67852 0.55839 0.0
H1143 H -0.00148 0.70095 0.52643 0.0
H1144 H 0.07239 0.86089 0.56583 0.0
H1145 H 0.032 0.83811 0.54474 0.0
H1146 H 0.9867 0.80777 0.55383 0.0
C1147 C 0.95476 0.68402 0.55759 0.0
C1148 C 0.99542 0.72471 0.53166 0.0
C1149 C 0.93403 0.66728 0.56934 0.0
C1150 C 0.07235 0.83582 0.56321 0.0
C1151 C 0.04935 0.82277 0.55117 0.0
C1152 C 0.98935 0.78527 0.54677 0.0
C1153 C 0.94413 0.71007 0.5469 0.0
C1154 C 0.96709 0.73384 0.5403 0.0
C1155 C 0.04759 0.78996 0.54854 0.0
C1156 C 0.01897 0.77462 0.54074 0.0
H1157 H 0.86688 0.70733 0.55893 0.0
H1158 H 0.90306 0.7366 0.53835 0.0
H1159 H 0.94206 0.77288 0.55325 0.0
H1160 H 0.1098 0.76818 0.57601 0.0
H1161 H 0.07013 0.7456 0.55561 0.0
C1162 C 0.95196 0.35728 0.80976 0.0
C1163 C 0.92629 0.34642 0.8205 0.0
C1164 C 0.96935 0.33655 0.79847 0.0
C1165 C 0.01607 0.28358 0.79885 0.0
H1166 H 0.98741 0.20518 0.77683 0.0
C1167 C 0.03245 0.15249 0.81935 0.0
C1168 C 0.06461 0.15171 0.82363 0.0
C1169 C 0.02019 0.17576 0.80756 0.0
C1170 C 0.996 0.22711 0.7827 0.0
H1171 H 0.89684 0.30651 0.82689 0.0
H1172 H 0.92744 0.26984 0.80734 0.0
H1173 H 0.95263 0.25078 0.77679 0.0
H1174 H 0.10979 0.17261 0.81749 0.0
H1175 H 0.08816 0.21425 0.79685 0.0
H1176 H 0.05794 0.25939 0.80668 0.0
C1177 C 0.93389 0.29443 0.80725 0.0
C1178 C 0.97607 0.25318 0.78265 0.0
C1179 C 0.9164 0.31528 0.81851 0.0
C1180 C 0.08483 0.17305 0.81454 0.0
C1181 C 0.07243 0.19678 0.80277 0.0
C1182 C 0.03579 0.25745 0.79913 0.0
C1183 C 0.96154 0.30454 0.79798 0.0
C1184 C 0.9852 0.28103 0.79187 0.0
C1185 C 0.03975 0.19909 0.7998 0.0
C1186 C 0.02503 0.22831 0.79237 0.0
H1187 H 0.95992 0.38133 0.81122 0.0
H1188 H 0.99033 0.34504 0.79136 0.0
H1189 H 0.0239 0.3047 0.80608 0.0
H1190 H 0.01642 0.13585 0.82588 0.0
H1191 H 0.99494 0.17678 0.80589 0.0
C1192 C 0.59314 0.78188 0.93241 0.0
C1193 C 0.59375 0.81412 0.92838 0.0
C1194 C 0.57033 0.76936 0.94441 0.0
C1195 C 0.52015 0.74441 0.96964 0.0
H1196 H 0.44178 0.7723 0.94725 0.0
C1197 C 0.39084 0.69928 0.94222 0.0
C1198 C 0.40232 0.67558 0.9301 0.0
C1199 C 0.4113 0.71612 0.95399 0.0
C1200 C 0.46314 0.76448 0.95421 0.0
H1201 H 0.57302 0.85919 0.93513 0.0
H1202 H 0.53208 0.83709 0.95611 0.0
H1203 H 0.4866 0.807 0.94691 0.0
H1204 H 0.44317 0.64889 0.92164 0.0
H1205 H 0.47929 0.67833 0.94221 0.0
H1206 H 0.49729 0.70036 0.97476 0.0
C1207 C 0.54937 0.8215 0.94985 0.0
C1208 C 0.48898 0.78456 0.95409 0.0
C1209 C 0.57267 0.83416 0.93786 0.0
C1210 C 0.43393 0.66688 0.9311 0.0
C1211 C 0.45446 0.68367 0.94294 0.0
C1212 C 0.49442 0.7241 0.96945 0.0
C1213 C 0.54726 0.78875 0.95264 0.0
C1214 C 0.5184 0.77379 0.96038 0.0
C1215 C 0.44358 0.70955 0.95368 0.0
C1216 C 0.46636 0.73328 0.96052 0.0
H1217 H 0.60963 0.76598 0.92561 0.0
H1218 H 0.56944 0.74408 0.9459 0.0
H1219 H 0.54229 0.73582 0.97521 0.0
H1220 H 0.36642 0.70635 0.94149 0.0
H1221 H 0.40231 0.73585 0.96214 0.0
C1222 C 0.46483 0.345 0.68006 0.0
C1223 C 0.43232 0.34575 0.67688 0.0
C1224 C 0.47811 0.32219 0.69179 0.0
C1225 C 0.50408 0.27265 0.71745 0.0
H1226 H 0.47515 0.19332 0.69691 0.0
C1227 C 0.54686 0.14056 0.69328 0.0
C1228 C 0.57209 0.15068 0.68191 0.0
C1229 C 0.53 0.16204 0.70436 0.0
C1230 C 0.4833 0.21496 0.70337 0.0
H1231 H 0.38776 0.32509 0.68486 0.0
H1232 H 0.41119 0.28429 0.70535 0.0
H1233 H 0.44104 0.23855 0.6956 0.0
H1234 H 0.60136 0.19007 0.67416 0.0
H1235 H 0.57173 0.22799 0.69331 0.0
H1236 H 0.54769 0.24944 0.72335 0.0
C1237 C 0.42637 0.30146 0.69862 0.0
C1238 C 0.46355 0.24105 0.70266 0.0
C1239 C 0.41295 0.32472 0.68692 0.0
C1240 C 0.58217 0.18186 0.68306 0.0
C1241 C 0.56521 0.20345 0.6941 0.0
C1242 C 0.524 0.24659 0.71797 0.0
C1243 C 0.45924 0.29931 0.70061 0.0
C1244 C 0.47458 0.27067 0.70839 0.0
C1245 C 0.53788 0.19404 0.70397 0.0
C1246 C 0.51447 0.21803 0.70977 0.0
H1247 H 0.4803 0.36139 0.67282 0.0
H1248 H 0.50346 0.3212 0.69268 0.0
H1249 H 0.51291 0.29502 0.72251 0.0
H1250 H 0.53872 0.11649 0.69245 0.0
H1251 H 0.50928 0.15406 0.71196 0.0
C1252 C 0.091 0.28545 0.43133 0.0
C1253 C 0.0917 0.31767 0.42725 0.0
C1254 C 0.06837 0.2731 0.44351 0.0
C1255 C 0.01916 0.2486 0.46956 0.0
H1256 H 0.93996 0.27552 0.44781 0.0
C1257 C 0.8895 0.20147 0.44413 0.0
C1258 C 0.90091 0.17854 0.43144 0.0
C1259 C 0.91022 0.21861 0.45559 0.0
C1260 C 0.96159 0.26802 0.4546 0.0
H1261 H 0.07124 0.36285 0.43398 0.0
H1262 H 0.0305 0.34101 0.45526 0.0
H1263 H 0.98463 0.31052 0.44671 0.0
H1264 H 0.942 0.15356 0.42159 0.0
H1265 H 0.97848 0.18318 0.4418 0.0
H1266 H 0.99675 0.20447 0.47517 0.0
C1267 C 0.04764 0.32533 0.44893 0.0
C1268 C 0.98732 0.28824 0.45403 0.0
C1269 C 0.07081 0.33784 0.43678 0.0
C1270 C 0.93282 0.17086 0.43154 0.0
C1271 C 0.95356 0.18777 0.44316 0.0
C1272 C 0.99356 0.22812 0.46978 0.0
C1273 C 0.04556 0.29262 0.45188 0.0
C1274 C 0.01699 0.27775 0.46008 0.0
C1275 C 0.94262 0.21292 0.45449 0.0
C1276 C 0.96521 0.23697 0.46108 0.0
H1277 H 0.10734 0.26946 0.42445 0.0
H1278 H 0.06745 0.24782 0.44508 0.0
H1279 H 0.04152 0.24023 0.47494 0.0
H1280 H 0.86487 0.20788 0.44402 0.0
H1281 H 0.90125 0.2379 0.46413 0.0
C1282 C 0.03187 0.65362 0.17966 0.0
C1283 C 0.06435 0.65308 0.1764 0.0
C1284 C 0.01858 0.67613 0.19158 0.0
C1285 C 0.99237 0.72471 0.21764 0.0
H1286 H 0.01999 0.80475 0.19741 0.0
C1287 C 0.94645 0.8559 0.19396 0.0
C1288 C 0.92284 0.84523 0.18151 0.0
C1289 C 0.96353 0.83459 0.20504 0.0
C1290 C 0.01225 0.78287 0.20378 0.0
H1291 H 0.10888 0.67384 0.18432 0.0
H1292 H 0.08538 0.71425 0.20513 0.0
H1293 H 0.05499 0.76008 0.19606 0.0
H1294 H 0.89666 0.80486 0.17175 0.0
H1295 H 0.92634 0.76735 0.1912 0.0
H1296 H 0.94819 0.74703 0.22324 0.0
C1297 C 0.07025 0.69709 0.19835 0.0
C1298 C 0.03248 0.75714 0.20306 0.0
C1299 C 0.0837 0.67408 0.18646 0.0
C1300 C 0.91451 0.81348 0.1815 0.0
C1301 C 0.93146 0.79213 0.1927 0.0
C1302 C 0.97194 0.75037 0.21808 0.0
C1303 C 0.03738 0.69895 0.20051 0.0
C1304 C 0.02186 0.72726 0.2086 0.0
C1305 C 0.95723 0.80232 0.20376 0.0
C1306 C 0.98105 0.7791 0.20995 0.0
H1307 H 0.01644 0.63723 0.17241 0.0
H1308 H 0.99322 0.67692 0.19256 0.0
H1309 H 0.98387 0.70215 0.22259 0.0
H1310 H 0.95332 0.8804 0.19395 0.0
H1311 H 0.98321 0.84304 0.21345 0.0
C1312 C 0.31771 0.29189 0.11156 0.0
C1313 C 0.29657 0.26944 0.10431 0.0
C1314 C 0.31111 0.32395 0.10996 0.0
C1315 C 0.25791 0.38197 0.0868 0.0
H1316 H 0.25774 0.42137 0.13709 0.0
C1317 C 0.16405 0.46835 0.11056 0.0
C1318 C 0.17102 0.4925 0.12365 0.0
C1319 C 0.18722 0.44737 0.10469 0.0
C1320 C 0.25834 0.41121 0.12281 0.0
H1321 H 0.25333 0.26315 0.08827 0.0
H1322 H 0.24185 0.31883 0.08556 0.0
H1323 H 0.28559 0.37211 0.13244 0.0
H1324 H 0.20827 0.51453 0.14008 0.0
H1325 H 0.24893 0.47744 0.12987 0.0
H1326 H 0.22923 0.42033 0.07745 0.0
C1327 C 0.26351 0.31177 0.09247 0.0
C1328 C 0.27432 0.38291 0.12014 0.0
C1329 C 0.26996 0.27979 0.09419 0.0
C1330 C 0.20212 0.49606 0.13006 0.0
C1331 C 0.22537 0.47482 0.12426 0.0
C1332 C 0.24199 0.41031 0.08946 0.0
C1333 C 0.28346 0.33416 0.1009 0.0
C1334 C 0.27309 0.36732 0.10233 0.0
C1335 C 0.21798 0.4499 0.11177 0.0
C1336 C 0.24085 0.42447 0.10772 0.0
H1337 H 0.33853 0.28475 0.11935 0.0
H1338 H 0.32705 0.3407 0.11643 0.0
H1339 H 0.25704 0.37075 0.07282 0.0
H1340 H 0.14043 0.46509 0.10516 0.0
H1341 H 0.18057 0.42821 0.09529 0.0
C1342 C 0.25384 0.43823 0.37065 0.0
C1343 C 0.26235 0.40743 0.37577 0.0
C1344 C 0.27645 0.45922 0.36365 0.0
C1345 C 0.35797 0.46059 0.34406 0.0
H1346 H 0.35915 0.54612 0.36293 0.0
C1347 C 0.45578 0.55629 0.36644 0.0
C1348 C 0.47896 0.54762 0.35314 0.0
C1349 C 0.42497 0.54578 0.36419 0.0
C1350 C 0.3593 0.52226 0.35756 0.0
H1351 H 0.30135 0.37481 0.37799 0.0
H1352 H 0.3405 0.41129 0.36657 0.0
H1353 H 0.31395 0.51292 0.36952 0.0
H1354 H 0.48781 0.52434 0.32602 0.0
H1355 H 0.4336 0.50785 0.32126 0.0
H1356 H 0.40418 0.46843 0.33372 0.0
C1357 C 0.31634 0.41914 0.3672 0.0
C1358 C 0.33308 0.50335 0.36111 0.0
C1359 C 0.29385 0.39821 0.37394 0.0
C1360 C 0.47033 0.53087 0.33662 0.0
C1361 C 0.4393 0.5212 0.33403 0.0
C1362 C 0.38435 0.47917 0.34088 0.0
C1363 C 0.30798 0.44983 0.36179 0.0
C1364 C 0.33272 0.47186 0.35507 0.0
C1365 C 0.41654 0.52699 0.34832 0.0
C1366 C 0.38595 0.50992 0.34822 0.0
H1367 H 0.2297 0.44598 0.37181 0.0
H1368 H 0.26919 0.48266 0.35956 0.0
H1369 H 0.35807 0.43675 0.33864 0.0
H1370 H 0.46193 0.56911 0.37936 0.0
H1371 H 0.4085 0.5506 0.37567 0.0
C1372 C 0.17105 0.69774 0.61119 0.0
C1373 C 0.19211 0.71964 0.60325 0.0
C1374 C 0.17663 0.66553 0.60935 0.0
C1375 C 0.22717 0.60622 0.58498 0.0
H1376 H 0.2311 0.5683 0.63564 0.0
C1377 C 0.32422 0.52321 0.6079 0.0
C1378 C 0.31876 0.49967 0.62167 0.0
C1379 C 0.30001 0.54294 0.60198 0.0
C1380 C 0.2294 0.578 0.62127 0.0
H1381 H 0.23389 0.72484 0.58568 0.0
H1382 H 0.24369 0.66893 0.58261 0.0
H1383 H 0.20278 0.61728 0.63123 0.0
H1384 H 0.28312 0.47719 0.63918 0.0
H1385 H 0.24064 0.51214 0.62891 0.0
H1386 H 0.25546 0.56778 0.57531 0.0
C1387 C 0.22285 0.6765 0.59024 0.0
C1388 C 0.21314 0.60616 0.61873 0.0
C1389 C 0.2174 0.70864 0.59217 0.0
C1390 C 0.2881 0.49523 0.62863 0.0
C1391 C 0.26381 0.51524 0.62279 0.0
C1392 C 0.24341 0.57803 0.58752 0.0
C1393 C 0.20319 0.65462 0.5994 0.0
C1394 C 0.21315 0.62132 0.60077 0.0
C1395 C 0.26972 0.53975 0.60972 0.0
C1396 C 0.24599 0.56447 0.60589 0.0
H1397 H 0.15119 0.70541 0.61971 0.0
H1398 H 0.16091 0.64918 0.6164 0.0
H1399 H 0.22707 0.61709 0.57089 0.0
H1400 H 0.34749 0.52704 0.60207 0.0
H1401 H 0.30552 0.56181 0.5921 0.0
C1402 C 0.04316 0.43618 0.86127 0.0
C1403 C 0.01831 0.4497 0.8509 0.0
C1404 C 0.07382 0.44708 0.85869 0.0
C1405 C 0.11019 0.52147 0.84566 0.0
H1406 H 0.18839 0.47726 0.85467 0.0
C1407 C 0.2225 0.5911 0.85489 0.0
C1408 C 0.24068 0.58305 0.87099 0.0
C1409 C 0.19984 0.5705 0.84791 0.0
C1410 C 0.16671 0.48987 0.85213 0.0
H1411 H 0.00625 0.48221 0.82809 0.0
H1412 H 0.05981 0.5004 0.82306 0.0
H1413 H 0.13992 0.44741 0.84958 0.0
H1414 H 0.2509 0.54642 0.8917 0.0
H1415 H 0.21025 0.51072 0.87995 0.0
H1416 H 0.13616 0.56377 0.84896 0.0
C1417 C 0.0556 0.48232 0.83372 0.0
C1418 C 0.13901 0.47281 0.84919 0.0
C1419 C 0.02497 0.47185 0.83653 0.0
C1420 C 0.23707 0.55322 0.8793 0.0
C1421 C 0.21394 0.53272 0.87248 0.0
C1422 C 0.13766 0.5384 0.84858 0.0
C1423 C 0.08007 0.47136 0.84552 0.0
C1424 C 0.11037 0.4885 0.84617 0.0
C1425 C 0.19439 0.54163 0.8571 0.0
C1426 C 0.16619 0.52289 0.8521 0.0
H1427 H 0.03861 0.41903 0.87244 0.0
H1428 H 0.09209 0.43819 0.86805 0.0
H1429 H 0.08849 0.53443 0.84394 0.0
H1430 H 0.22529 0.6137 0.84793 0.0
H1431 H 0.18576 0.57772 0.83571 0.0
C1432 C 0.72107 0.70745 0.91143 0.0
C1433 C 0.69487 0.71793 0.90097 0.0
C1434 C 0.72646 0.67544 0.91398 0.0
C1435 C 0.71352 0.60373 0.88735 0.0
H1436 H 0.76175 0.56805 0.9293 0.0
C1437 C 0.78869 0.49354 0.8759 0.0
C1438 C 0.82012 0.49885 0.88114 0.0
C1439 C 0.76492 0.51342 0.88259 0.0
C1440 C 0.74801 0.57753 0.91754 0.0
H1441 H 0.65227 0.70301 0.88646 0.0
H1442 H 0.66186 0.64699 0.89088 0.0
H1443 H 0.73321 0.61715 0.93419 0.0
H1444 H 0.85093 0.52782 0.89855 0.0
H1445 H 0.80979 0.56244 0.90998 0.0
H1446 H 0.72985 0.56529 0.87034 0.0
C1447 C 0.67837 0.66363 0.8969 0.0
C1448 C 0.7317 0.6056 0.92034 0.0
C1449 C 0.67288 0.69574 0.89442 0.0
C1450 C 0.82703 0.52328 0.89404 0.0
C1451 C 0.80333 0.54291 0.90081 0.0
C1452 C 0.72981 0.57566 0.88457 0.0
C1453 C 0.70581 0.65315 0.9061 0.0
C1454 C 0.71561 0.61979 0.90498 0.0
C1455 C 0.77214 0.53871 0.8948 0.0
C1456 C 0.74851 0.56316 0.89934 0.0
H1457 H 0.73829 0.72389 0.91688 0.0
H1458 H 0.74799 0.66821 0.92098 0.0
H1459 H 0.70154 0.61411 0.87517 0.0
H1460 H 0.78257 0.47478 0.86607 0.0
H1461 H 0.74105 0.50956 0.87779 0.0
C1462 C 0.74061 0.55163 0.62408 0.0
C1463 C 0.74523 0.58105 0.63271 0.0
C1464 C 0.71739 0.53139 0.63106 0.0
C1465 C 0.64203 0.53927 0.65542 0.0
H1466 H 0.63987 0.44843 0.65235 0.0
C1467 C 0.52553 0.47718 0.66382 0.0
C1468 C 0.51891 0.45554 0.64916 0.0
C1469 C 0.55634 0.4866 0.66731 0.0
C1470 C 0.64017 0.4738 0.65332 0.0
H1471 H 0.73198 0.61103 0.65656 0.0
H1472 H 0.69229 0.57544 0.66909 0.0
H1473 H 0.68984 0.47611 0.64833 0.0
H1474 H 0.53941 0.42492 0.62763 0.0
H1475 H 0.5931 0.44232 0.63314 0.0
H1476 H 0.59259 0.53753 0.65941 0.0
C1477 C 0.70562 0.56837 0.65654 0.0
C1478 C 0.66875 0.48961 0.65102 0.0
C1479 C 0.72835 0.58873 0.6494 0.0
C1480 C 0.54386 0.44173 0.639 0.0
C1481 C 0.57468 0.45158 0.64226 0.0
C1482 C 0.61366 0.5236 0.65766 0.0
C1483 C 0.69881 0.54019 0.64692 0.0
C1484 C 0.66982 0.52258 0.65172 0.0
C1485 C 0.58108 0.47509 0.65591 0.0
C1486 C 0.61221 0.49073 0.65629 0.0
H1487 H 0.75345 0.54517 0.61121 0.0
H1488 H 0.71263 0.50989 0.62327 0.0
H1489 H 0.64178 0.5647 0.65558 0.0
H1490 H 0.50677 0.48773 0.67214 0.0
H1491 H 0.56059 0.50411 0.6783 0.0
C1492 C 0.78162 0.29115 0.41245 0.0
C1493 C 0.8072 0.28043 0.40152 0.0
C1494 C 0.77606 0.3232 0.41457 0.0
C1495 C 0.78632 0.39333 0.386 0.0
H1496 H 0.73882 0.43047 0.42779 0.0
C1497 C 0.70888 0.50198 0.37368 0.0
C1498 C 0.67771 0.4967 0.37953 0.0
C1499 C 0.73306 0.48246 0.38019 0.0
C1500 C 0.75233 0.42057 0.41606 0.0
H1501 H 0.84875 0.29493 0.3858 0.0
H1502 H 0.83892 0.35112 0.38949 0.0
H1503 H 0.76889 0.38251 0.43343 0.0
H1504 H 0.64785 0.468 0.39772 0.0
H1505 H 0.68977 0.434 0.40888 0.0
H1506 H 0.76832 0.43025 0.36834 0.0
C1507 C 0.82299 0.33463 0.39621 0.0
C1508 C 0.76954 0.39316 0.41928 0.0
C1509 C 0.82866 0.30245 0.39417 0.0
C1510 C 0.67151 0.47254 0.39276 0.0
C1511 C 0.69565 0.45326 0.39936 0.0
C1512 C 0.76918 0.42077 0.38279 0.0
C1513 C 0.79592 0.34529 0.40577 0.0
C1514 C 0.78539 0.37838 0.40403 0.0
C1515 C 0.72657 0.45756 0.39285 0.0
C1516 C 0.75076 0.43375 0.39755 0.0
H1517 H 0.76487 0.2748 0.41853 0.0
H1518 H 0.75485 0.33052 0.4219 0.0
H1519 H 0.79805 0.38247 0.37388 0.0
H1520 H 0.71448 0.52052 0.36358 0.0
H1521 H 0.7567 0.48637 0.375 0.0
C1522 C 0.78985 0.40019 0.12821 0.0
C1523 C 0.75843 0.40897 0.12537 0.0
C1524 C 0.81163 0.42171 0.13512 0.0
C1525 C 0.82733 0.50622 0.13932 0.0
H1526 H 0.89702 0.47372 0.16908 0.0
C1527 C 0.95051 0.55696 0.13333 0.0
C1528 C 0.97327 0.54928 0.14711 0.0
C1529 C 0.91947 0.54735 0.13579 0.0
C1530 C 0.87755 0.48384 0.16124 0.0
H1531 H 0.72514 0.44735 0.12775 0.0
H1532 H 0.76339 0.4851 0.14022 0.0
H1533 H 0.85109 0.44168 0.16441 0.0
H1534 H 0.98118 0.52894 0.17522 0.0
H1535 H 0.92656 0.51408 0.18026 0.0
H1536 H 0.85361 0.5487 0.13648 0.0
C1537 C 0.77113 0.46152 0.13682 0.0
C1538 C 0.85129 0.46503 0.15824 0.0
C1539 C 0.74924 0.43991 0.1297 0.0
C1540 C 0.96402 0.53462 0.16425 0.0
C1541 C 0.93276 0.52589 0.16701 0.0
C1542 C 0.85341 0.52539 0.14268 0.0
C1543 C 0.80259 0.45258 0.13965 0.0
C1544 C 0.82668 0.47529 0.14635 0.0
C1545 C 0.9104 0.53051 0.15234 0.0
C1546 C 0.87962 0.51382 0.15282 0.0
H1547 H 0.79788 0.37669 0.12484 0.0
H1548 H 0.8358 0.41419 0.13652 0.0
H1549 H 0.80865 0.51501 0.13024 0.0
H1550 H 0.95716 0.5682 0.11995 0.0
H1551 H 0.90331 0.55119 0.12402 0.0
C1552 C 0.81654 0.7987 0.60952 0.0
C1553 C 0.80327 0.77424 0.5987 0.0
C1554 C 0.80672 0.82966 0.60665 0.0
C1555 C 0.73448 0.86809 0.59112 0.0
H1556 H 0.77912 0.94456 0.60397 0.0
C1557 C 0.66556 0.98021 0.60204 0.0
C1558 C 0.67208 0.99605 0.61928 0.0
C1559 C 0.68679 0.9585 0.59462 0.0
C1560 C 0.76641 0.92338 0.6003 0.0
H1561 H 0.7725 0.76313 0.57485 0.0
H1562 H 0.75635 0.81725 0.56926 0.0
H1563 H 0.8085 0.89583 0.59871 0.0
H1564 H 0.70679 0.00344 0.64158 0.0
H1565 H 0.74359 0.96436 0.62902 0.0
H1566 H 0.69245 0.89479 0.59346 0.0
C1567 C 0.7733 0.81252 0.5805 0.0
C1568 C 0.7832 0.89552 0.59728 0.0
C1569 C 0.78263 0.78155 0.58362 0.0
C1570 C 0.7012 0.9914 0.62829 0.0
C1571 C 0.72232 0.96917 0.62102 0.0
C1572 C 0.71783 0.89575 0.59408 0.0
C1573 C 0.7838 0.83666 0.59272 0.0
C1574 C 0.76731 0.86741 0.59301 0.0
C1575 C 0.71474 0.95164 0.60449 0.0
C1576 C 0.73346 0.92361 0.59905 0.0
H1577 H 0.83253 0.79366 0.62124 0.0
H1578 H 0.81525 0.8476 0.61636 0.0
H1579 H 0.72127 0.84684 0.58839 0.0
H1580 H 0.64353 0.98389 0.59457 0.0
H1581 H 0.68064 0.94601 0.58158 0.0
C1582 C 0.74617 0.94471 0.87067 0.0
C1583 C 0.75687 0.91394 0.87406 0.0
C1584 C 0.76645 0.96738 0.86298 0.0
C1585 C 0.84412 0.97465 0.83861 0.0
H1586 H 0.84783 0.05577 0.86362 0.0
C1587 C 0.94486 0.0613 0.86699 0.0
C1588 C 0.96759 0.05406 0.85312 0.0
C1589 C 0.91353 0.05321 0.86394 0.0
C1590 C 0.84725 0.03319 0.8565 0.0
H1591 H 0.79732 0.88302 0.87218 0.0
H1592 H 0.83243 0.92224 0.8595 0.0
H1593 H 0.80332 0.02139 0.86957 0.0
H1594 H 0.97544 0.03637 0.82436 0.0
H1595 H 0.92037 0.02445 0.81828 0.0
H1596 H 0.88922 0.98436 0.82721 0.0
C1597 C 0.80826 0.92888 0.8621 0.0
C1598 C 0.82138 0.01366 0.85968 0.0
C1599 C 0.78812 0.90636 0.86961 0.0
C1600 C 0.95822 0.04161 0.83538 0.0
C1601 C 0.92669 0.03455 0.83203 0.0
C1602 C 0.87024 0.99372 0.83581 0.0
C1603 C 0.79774 0.95963 0.85859 0.0
C1604 C 0.82044 0.98346 0.85158 0.0
C1605 C 0.90418 0.03845 0.84671 0.0
C1606 C 0.873 0.02258 0.84553 0.0
H1607 H 0.72215 0.95124 0.87385 0.0
H1608 H 0.75763 0.99086 0.86044 0.0
H1609 H 0.84355 0.95195 0.83159 0.0
H1610 H 0.95166 0.07088 0.88082 0.0
H1611 H 0.89734 0.05644 0.87576 0.0
C1612 C 0.79647 0.99649 0.12059 0.0
C1613 C 0.82737 0.00709 0.12357 0.0
C1614 C 0.77368 0.01671 0.11302 0.0
C1615 C 0.76539 0.09428 0.08855 0.0
H1616 H 0.68468 0.09706 0.11411 0.0
C1617 C 0.6775 0.19427 0.11651 0.0
C1618 C 0.68414 0.21664 0.10232 0.0
C1619 C 0.68589 0.16292 0.11373 0.0
C1620 C 0.70713 0.09672 0.10682 0.0
H1621 H 0.85846 0.04723 0.12092 0.0
H1622 H 0.81895 0.08237 0.10845 0.0
H1623 H 0.71991 0.0532 0.12005 0.0
H1624 H 0.70089 0.22376 0.07328 0.0
H1625 H 0.71326 0.16862 0.0677 0.0
H1626 H 0.75459 0.13902 0.07693 0.0
C1627 C 0.8123 0.05829 0.11132 0.0
C1628 C 0.72717 0.07123 0.11001 0.0
C1629 C 0.835 0.03814 0.11869 0.0
C1630 C 0.69604 0.20682 0.08452 0.0
C1631 C 0.7034 0.17527 0.08146 0.0
C1632 C 0.74578 0.12002 0.08572 0.0
C1633 C 0.78135 0.0479 0.10836 0.0
C1634 C 0.7572 0.07058 0.10166 0.0
C1635 C 0.70038 0.15323 0.09648 0.0
C1636 C 0.71699 0.1224 0.09556 0.0
H1637 H 0.7899 0.97259 0.12408 0.0
H1638 H 0.7501 0.00793 0.11084 0.0
H1639 H 0.78794 0.09397 0.08134 0.0
H1640 H 0.66841 0.20145 0.1304 0.0
H1641 H 0.68328 0.14706 0.12578 0.0
C1642 C 0.53373 0.96211 0.33451 0.0
C1643 C 0.52536 0.94792 0.35196 0.0
C1644 C 0.56496 0.97014 0.33091 0.0
C1645 C 0.64552 0.97038 0.35387 0.0
H1646 H 0.64752 0.05347 0.33128 0.0
C1647 C 0.74772 0.05707 0.36824 0.0
C1648 C 0.73772 0.08779 0.37246 0.0
C1649 C 0.72675 0.03524 0.36039 0.0
C1650 C 0.64742 0.03028 0.33768 0.0
H1651 H 0.54283 0.92913 0.37882 0.0
H1652 H 0.59661 0.94512 0.37338 0.0
H1653 H 0.60163 0.02127 0.32709 0.0
H1654 H 0.69786 0.11956 0.37184 0.0
H1655 H 0.66146 0.08168 0.35896 0.0
H1656 H 0.6902 0.98124 0.36622 0.0
C1657 C 0.57984 0.94904 0.36195 0.0
C1658 C 0.62116 0.01136 0.33496 0.0
C1659 C 0.54883 0.94004 0.36522 0.0
C1660 C 0.70649 0.09622 0.36862 0.0
C1661 C 0.68561 0.07447 0.36099 0.0
C1662 C 0.67153 0.98973 0.35701 0.0
C1663 C 0.58817 0.96541 0.34507 0.0
C1664 C 0.61911 0.9817 0.34382 0.0
C1665 C 0.69539 0.04372 0.35672 0.0
C1666 C 0.67197 0.02052 0.34977 0.0
H1667 H 0.51596 0.96789 0.32393 0.0
H1668 H 0.57049 0.98154 0.31741 0.0
H1669 H 0.64546 0.94724 0.3603 0.0
H1670 H 0.77173 0.04994 0.37092 0.0
H1671 H 0.73508 0.01179 0.3572 0.0
C1672 C 0.17852 0.1946 0.38324 0.0
C1673 C 0.18425 0.21641 0.3979 0.0
C1674 C 0.1867 0.16313 0.38576 0.0
C1675 C 0.20737 0.09657 0.39218 0.0
H1676 H 0.28598 0.09222 0.42002 0.0
C1677 C 0.29743 0.99609 0.37996 0.0
C1678 C 0.32855 0.00671 0.37806 0.0
C1679 C 0.27403 0.01619 0.38699 0.0
C1680 C 0.26405 0.09297 0.41215 0.0
H1681 H 0.19921 0.22239 0.42739 0.0
H1682 H 0.21108 0.16701 0.43248 0.0
H1683 H 0.25265 0.13735 0.42406 0.0
H1684 H 0.35934 0.04683 0.38201 0.0
H1685 H 0.31892 0.08165 0.39356 0.0
H1686 H 0.22093 0.05341 0.37875 0.0
C1687 C 0.20215 0.1742 0.41859 0.0
C1688 C 0.24441 0.11877 0.41475 0.0
C1689 C 0.19503 0.20588 0.41581 0.0
C1690 C 0.33574 0.03767 0.38341 0.0
C1691 C 0.31249 0.05765 0.39027 0.0
C1692 C 0.22747 0.07102 0.38924 0.0
C1693 C 0.20006 0.15273 0.4032 0.0
C1694 C 0.21646 0.12175 0.40409 0.0
C1695 C 0.28134 0.04725 0.3922 0.0
C1696 C 0.25678 0.06982 0.39848 0.0
H1697 H 0.17033 0.20234 0.36926 0.0
H1698 H 0.18483 0.14775 0.37343 0.0
H1699 H 0.18553 0.09733 0.38424 0.0
H1700 H 0.29114 0.9723 0.37605 0.0
H1701 H 0.25028 0.00742 0.38836 0.0
C1702 C 0.03298 0.96852 0.16182 0.0
C1703 C 0.02242 0.94246 0.15126 0.0
C1704 C 0.06499 0.97448 0.16373 0.0
C1705 C 0.13534 0.96386 0.13534 0.0
H1706 H 0.17261 0.01133 0.17707 0.0
C1707 C 0.24553 0.03929 0.1233 0.0
C1708 C 0.24094 0.07057 0.12916 0.0
C1709 C 0.22535 0.01558 0.12969 0.0
C1710 C 0.16265 -0.00214 0.16535 0.0
H1711 H 0.03728 0.90063 0.13591 0.0
H1712 H 0.09335 0.91118 0.13923 0.0
H1713 H 0.12423 0.98197 0.18265 0.0
H1714 H 0.2127 0.10109 0.14725 0.0
H1715 H 0.17758 0.06001 0.15818 0.0
H1716 H 0.17265 0.98117 0.11775 0.0
C1717 C 0.07675 0.92715 0.14583 0.0
C1718 C 0.135 0.98106 0.16854 0.0
C1719 C 0.04463 0.92107 0.14401 0.0
C1720 C 0.21674 0.07733 0.14227 0.0
C1721 C 0.19681 0.05367 0.14875 0.0
C1722 C 0.163 0.98063 0.13216 0.0
C1723 C 0.08721 0.95456 0.15509 0.0
C1724 C 0.12026 0.96512 0.15332 0.0
C1725 C 0.20045 0.02266 0.14224 0.0
C1726 C 0.17609 -0.001 0.14689 0.0
H1727 H 0.01651 0.98527 0.16779 0.0
H1728 H 0.07217 0.99595 0.17082 0.0
H1729 H 0.12448 0.95206 0.12325 0.0
H1730 H 0.26407 0.03327 0.11329 0.0
H1731 H 0.22878 0.99185 0.12451 0.0
C1732 C 0.19296 0.99665 0.88102 0.0
C1733 C 0.16181 0.98681 0.87808 0.0
C1734 C 0.21552 0.97558 0.88802 0.0
C1735 C 0.22241 0.89672 0.9112 0.0
H1736 H 0.30411 0.89469 0.88683 0.0
C1737 C 0.29385 0.78505 0.91672 0.0
C1738 C 0.30748 0.77539 0.89936 0.0
C1739 C 0.28508 0.81636 0.91935 0.0
C1740 C 0.28136 0.89477 0.89375 0.0
H1741 H 0.13011 0.94704 0.88 0.0
H1742 H 0.16916 0.9105 0.89142 0.0
H1743 H 0.26904 0.93866 0.88078 0.0
H1744 H 0.3246 0.79079 0.87162 0.0
H1745 H 0.30745 0.84466 0.87547 0.0
H1746 H 0.23287 0.85172 0.9226 0.0
C1747 C 0.17621 0.93461 0.88904 0.0
C1748 C 0.2614 0.92033 0.8905 0.0
C1749 C 0.15376 0.95559 0.88228 0.0
C1750 C 0.31425 0.79781 0.8852 0.0
C1751 C 0.3045 0.82888 0.88752 0.0
C1752 C 0.24195 0.87092 0.91407 0.0
C1753 C 0.20736 0.94426 0.8921 0.0
C1754 C 0.23111 0.92087 0.89851 0.0
C1755 C 0.28847 0.83832 0.90431 0.0
C1756 C 0.27122 0.86888 0.90474 0.0
H1757 H 0.19987 0.02062 0.87802 0.0
H1758 H 0.23926 0.98385 0.89029 0.0
H1759 H 0.19967 0.89686 0.91815 0.0
H1760 H 0.28881 0.76812 0.92794 0.0
H1761 H 0.27404 0.82284 0.9328 0.0
C1762 C 0.27309 0.90805 0.64506 0.0
C1763 C 0.25516 0.91539 0.62874 0.0
C1764 C 0.29547 0.92904 0.65192 0.0
C1765 C 0.32838 0.00966 0.64684 0.0
H1766 H 0.4063 0.9657 0.65705 0.0
C1767 C 0.45255 0.06309 0.63954 0.0
C1768 C 0.47673 0.04994 0.65068 0.0
C1769 C 0.4217 0.05239 0.64161 0.0
C1770 C 0.38466 0.9785 0.65475 0.0
H1771 H 0.24505 0.95111 0.60745 0.0
H1772 H 0.28536 0.98753 0.61895 0.0
H1773 H 0.35903 0.936 0.6515 0.0
H1774 H 0.48726 0.01844 0.67429 0.0
H1775 H 0.43336 0.00063 0.67839 0.0
H1776 H 0.35493 0.0523 0.64932 0.0
C1777 C 0.28164 0.9658 0.62671 0.0
C1778 C 0.35741 0.96138 0.65152 0.0
C1779 C 0.25872 0.94491 0.62004 0.0
C1780 C 0.46911 0.02852 0.66528 0.0
C1781 C 0.43828 0.01825 0.66756 0.0
C1782 C 0.35588 0.02693 0.65006 0.0
C1783 C 0.30097 0.95758 0.64235 0.0
C1784 C 0.32898 0.97664 0.64734 0.0
C1785 C 0.41459 0.0287 0.65501 0.0
C1786 C 0.38439 0.01144 0.65385 0.0
H1787 H 0.27029 0.88569 0.65231 0.0
H1788 H 0.3093 0.92237 0.66434 0.0
H1789 H 0.30678 0.0221 0.64378 0.0
H1790 H 0.45782 0.07966 0.62817 0.0
H1791 H 0.40404 0.0609 0.63169 0.0
loop_
_geom_bond_atom_site_label_1
_geom_bond_atom_site_label_2
_geom_bond_distance
_geom_bond_site_symmetry_2
_ccdc_geom_bond_type
Sc0 O3 2.025 . S
Sc0 O10 2.105 . S
Sc0 O13 2.105 . S
Sc0 O16 2.105 . S
Sc0 O19 2.105 . S
Sc1 O3 2.025 . S
Sc1 O11 2.105 . S
Sc1 O15 2.105 . S
Sc1 O17 2.105 . S
Sc1 O21 2.105 . S
Sc2 O3 2.025 . S
Sc2 O12 2.105 . S
Sc2 O14 2.105 . S
Sc2 O18 2.105 . S
Sc2 O20 2.105 . S
O3 Sc0 2.025 . S
O3 Sc1 2.025 . S
O3 Sc2 2.025 . S
C4 O10 1.268 . S
C4 O20 1.268 . S
C5 O11 1.268 . S
C5 O19 1.268 . S
C6 O12 1.268 . S
C6 O21 1.268 . S
C7 O13 1.268 . S
C7 O17 1.268 . S
C8 O14 1.268 . S
C8 O16 1.268 . S
C9 O15 1.268 . S
C9 O18 1.268 . S
O10 Sc0 2.105 . S
O10 C4 1.268 . S
O11 Sc1 2.105 . S
O11 C5 1.268 . S
O12 Sc2 2.105 . S
O12 C6 1.268 . S
O13 Sc0 2.105 . S
O13 C7 1.268 . S
O14 Sc2 2.105 . S
O14 C8 1.268 . S
O15 Sc1 2.105 . S
O15 C9 1.268 . S
O16 Sc0 2.105 . S
O16 C8 1.268 . S
O17 Sc1 2.105 . S
O17 C7 1.268 . S
O18 Sc2 2.105 . S
O18 C9 1.268 . S
O19 Sc0 2.105 . S
O19 C5 1.268 . S
O20 Sc2 2.105 . S
O20 C4 1.268 . S
O21 Sc1 2.105 . S
O21 C6 1.268 . S
Sc22 O25 2.025 . S
Sc22 O32 2.105 . S
Sc22 O35 2.105 . S
Sc22 O38 2.105 . S
Sc22 O41 2.105 . S
Sc23 O25 2.025 . S
Sc23 O33 2.105 . S
Sc23 O37 2.105 . S
Sc23 O39 2.105 . S
Sc23 O43 2.105 . S
Sc24 O25 2.025 . S
Sc24 O34 2.105 . S
Sc24 O36 2.105 . S
Sc24 O40 2.105 . S
Sc24 O42 2.105 . S
O25 Sc22 2.025 . S
O25 Sc23 2.025 . S
O25 Sc24 2.025 . S
C26 O32 1.268 . S
C26 O42 1.268 . S
C27 O33 1.268 . S
C27 O41 1.268 . S
C28 O34 1.268 . S
C28 O43 1.268 . S
C29 O35 1.268 . S
C29 O39 1.268 . S
C30 O36 1.268 . S
C30 O38 1.268 . S
C31 O37 1.268 . S
C31 O40 1.268 . S
O32 Sc22 2.105 . S
O32 C26 1.268 . S
O33 Sc23 2.105 . S
O33 C27 1.268 . S
O34 Sc24 2.105 . S
O34 C28 1.268 . S
O35 Sc22 2.105 . S
O35 C29 1.268 . S
O36 Sc24 2.105 . S
O36 C30 1.268 . S
O37 Sc23 2.105 . S
O37 C31 1.268 . S
O38 Sc22 2.105 . S
O38 C30 1.268 . S
O39 Sc23 2.105 . S
O39 C29 1.268 . S
O40 Sc24 2.105 . S
O40 C31 1.268 . S
O41 Sc22 2.105 . S
O41 C27 1.268 . S
O42 Sc24 2.105 . S
O42 C26 1.268 . S
O43 Sc23 2.105 . S
O43 C28 1.268 . S
Sc44 O47 2.025 . S
Sc44 O54 2.105 . S
Sc44 O57 2.105 . S
Sc44 O60 2.105 . S
Sc44 O63 2.105 . S
Sc45 O47 2.025 . S
Sc45 O55 2.105 . S
Sc45 O59 2.105 . S
Sc45 O61 2.105 . S
Sc45 O65 2.105 . S
Sc46 O47 2.025 . S
Sc46 O56 2.105 . S
Sc46 O58 2.105 . S
Sc46 O62 2.105 . S
Sc46 O64 2.105 . S
O47 Sc44 2.025 . S
O47 Sc45 2.025 . S
O47 Sc46 2.025 . S
C48 O54 1.268 . S
C48 O64 1.268 . S
C49 O55 1.268 . S
C49 O63 1.268 . S
C50 O56 1.268 . S
C50 O65 1.268 . S
C51 O57 1.268 . S
C51 O61 1.268 . S
C52 O58 1.268 . S
C52 O60 1.268 . S
C53 O59 1.268 . S
C53 O62 1.268 . S
O54 Sc44 2.105 . S
O54 C48 1.268 . S
O55 Sc45 2.105 . S
O55 C49 1.268 . S
O56 Sc46 2.105 . S
O56 C50 1.268 . S
O57 Sc44 2.105 . S
O57 C51 1.268 . S
O58 Sc46 2.105 . S
O58 C52 1.268 . S
O59 Sc45 2.105 . S
O59 C53 1.268 . S
O60 Sc44 2.105 . S
O60 C52 1.268 . S
O61 Sc45 2.105 . S
O61 C51 1.268 . S
O62 Sc46 2.105 . S
O62 C53 1.268 . S
O63 Sc44 2.105 . S
O63 C49 1.268 . S
O64 Sc46 2.105 . S
O64 C48 1.268 . S
O65 Sc45 2.105 . S
O65 C50 1.268 . S
Sc66 O69 2.025 . S
Sc66 O76 2.105 . S
Sc66 O79 2.105 . S
Sc66 O82 2.105 . S
Sc66 O85 2.105 . S
Sc67 O69 2.025 . S
Sc67 O77 2.105 . S
Sc67 O81 2.105 . S
Sc67 O83 2.105 . S
Sc67 O87 2.105 . S
Sc68 O69 2.025 . S
Sc68 O78 2.105 . S
Sc68 O80 2.105 . S
Sc68 O84 2.105 . S
Sc68 O86 2.105 . S
O69 Sc66 2.025 . S
O69 Sc67 2.025 . S
O69 Sc68 2.025 . S
C70 O76 1.268 . S
C70 O86 1.268 . S
C71 O77 1.268 . S
C71 O85 1.268 . S
C72 O78 1.268 . S
C72 O87 1.268 . S
C73 O79 1.268 . S
C73 O83 1.268 . S
C74 O80 1.268 . S
C74 O82 1.268 . S
C75 O81 1.268 . S
C75 O84 1.268 . S
O76 Sc66 2.105 . S
O76 C70 1.268 . S
O77 Sc67 2.105 . S
O77 C71 1.268 . S
O78 Sc68 2.105 . S
O78 C72 1.268 . S
O79 Sc66 2.105 . S
O79 C73 1.268 . S
O80 Sc68 2.105 . S
O80 C74 1.268 . S
O81 Sc67 2.105 . S
O81 C75 1.268 . S
O82 Sc66 2.105 . S
O82 C74 1.268 . S
O83 Sc67 2.105 . S
O83 C73 1.268 . S
O84 Sc68 2.105 . S
O84 C75 1.268 . S
O85 Sc66 2.105 . S
O85 C71 1.268 . S
O86 Sc68 2.105 . S
O86 C70 1.268 . S
O87 Sc67 2.105 . S
O87 C72 1.268 . S
Sc88 O91 2.025 . S
Sc88 O98 2.105 . S
Sc88 O101 2.105 . S
Sc88 O104 2.105 . S
Sc88 O107 2.105 . S
Sc89 O91 2.025 . S
Sc89 O99 2.105 . S
Sc89 O103 2.105 . S
Sc89 O105 2.105 . S
Sc89 O109 2.105 . S
Sc90 O91 2.025 . S
Sc90 O100 2.105 . S
Sc90 O102 2.105 . S
Sc90 O106 2.105 . S
Sc90 O108 2.105 . S
O91 Sc88 2.025 . S
O91 Sc89 2.025 . S
O91 Sc90 2.025 . S
C92 O98 1.268 . S
C92 O108 1.268 . S
C93 O99 1.268 . S
C93 O107 1.268 . S
C94 O100 1.268 . S
C94 O109 1.268 . S
C95 O101 1.268 . S
C95 O105 1.268 . S
C96 O102 1.268 . S
C96 O104 1.268 . S
C97 O103 1.268 . S
C97 O106 1.268 . S
O98 Sc88 2.105 . S
O98 C92 1.268 . S
O99 Sc89 2.105 . S
O99 C93 1.268 . S
O100 Sc90 2.105 . S
O100 C94 1.268 . S
O101 Sc88 2.105 . S
O101 C95 1.268 . S
O102 Sc90 2.105 . S
O102 C96 1.268 . S
O103 Sc89 2.105 . S
O103 C97 1.268 . S
O104 Sc88 2.105 . S
O104 C96 1.268 . S
O105 Sc89 2.105 . S
O105 C95 1.268 . S
O106 Sc90 2.105 . S
O106 C97 1.268 . S
O107 Sc88 2.105 . S
O107 C93 1.268 . S
O108 Sc90 2.105 . S
O108 C92 1.268 . S
O109 Sc89 2.105 . S
O109 C94 1.268 . S
Sc110 O113 2.025 . S
Sc110 O120 2.105 . S
Sc110 O123 2.105 . S
Sc110 O126 2.105 . S
Sc110 O129 2.105 . S
Sc111 O113 2.025 . S
Sc111 O121 2.105 . S
Sc111 O125 2.105 . S
Sc111 O127 2.105 . S
Sc111 O131 2.105 . S
Sc112 O113 2.025 . S
Sc112 O122 2.105 . S
Sc112 O124 2.105 . S
Sc112 O128 2.105 . S
Sc112 O130 2.105 . S
O113 Sc110 2.025 . S
O113 Sc111 2.025 . S
O113 Sc112 2.025 . S
C114 O120 1.268 . S
C114 O130 1.268 . S
C115 O121 1.268 . S
C115 O129 1.268 . S
C116 O122 1.268 . S
C116 O131 1.268 . S
C117 O123 1.268 . S
C117 O127 1.268 . S
C118 O124 1.268 . S
C118 O126 1.268 . S
C119 O125 1.268 . S
C119 O128 1.268 . S
O120 Sc110 2.105 . S
O120 C114 1.268 . S
O121 Sc111 2.105 . S
O121 C115 1.268 . S
O122 Sc112 2.105 . S
O122 C116 1.268 . S
O123 Sc110 2.105 . S
O123 C117 1.268 . S
O124 Sc112 2.105 . S
O124 C118 1.268 . S
O125 Sc111 2.105 . S
O125 C119 1.268 . S
O126 Sc110 2.105 . S
O126 C118 1.268 . S
O127 Sc111 2.105 . S
O127 C117 1.268 . S
O128 Sc112 2.105 . S
O128 C119 1.268 . S
O129 Sc110 2.105 . S
O129 C115 1.268 . S
O130 Sc112 2.105 . S
O130 C114 1.268 . S
O131 Sc111 2.105 . S
O131 C116 1.268 . S
Sc132 O135 2.025 . S
Sc132 O142 2.105 . S
Sc132 O145 2.105 . S
Sc132 O148 2.105 . S
Sc132 O151 2.105 . S
Sc133 O135 2.025 . S
Sc133 O143 2.105 . S
Sc133 O147 2.105 . S
Sc133 O149 2.105 . S
Sc133 O153 2.105 . S
Sc134 O135 2.025 . S
Sc134 O144 2.105 . S
Sc134 O146 2.105 . S
Sc134 O150 2.105 . S
Sc134 O152 2.105 . S
O135 Sc132 2.025 . S
O135 Sc133 2.025 . S
O135 Sc134 2.025 . S
C136 O142 1.268 . S
C136 O152 1.268 . S
C137 O143 1.268 . S
C137 O151 1.268 . S
C138 O144 1.268 . S
C138 O153 1.268 . S
C139 O145 1.268 . S
C139 O149 1.268 . S
C140 O146 1.268 . S
C140 O148 1.268 . S
C141 O147 1.268 . S
C141 O150 1.268 . S
O142 Sc132 2.105 . S
O142 C136 1.268 . S
O143 Sc133 2.105 . S
O143 C137 1.268 . S
O144 Sc134 2.105 . S
O144 C138 1.268 . S
O145 Sc132 2.105 . S
O145 C139 1.268 . S
O146 Sc134 2.105 . S
O146 C140 1.268 . S
O147 Sc133 2.105 . S
O147 C141 1.268 . S
O148 Sc132 2.105 . S
O148 C140 1.268 . S
O149 Sc133 2.105 . S
O149 C139 1.268 . S
O150 Sc134 2.105 . S
O150 C141 1.268 . S
O151 Sc132 2.105 . S
O151 C137 1.268 . S
O152 Sc134 2.105 . S
O152 C136 1.268 . S
O153 Sc133 2.105 . S
O153 C138 1.268 . S
Sc154 O157 2.025 . S
Sc154 O164 2.105 . S
Sc154 O167 2.105 . S
Sc154 O170 2.105 . S
Sc154 O173 2.105 . S
Sc155 O157 2.025 . S
Sc155 O165 2.105 . S
Sc155 O169 2.105 . S
Sc155 O171 2.105 . S
Sc155 O175 2.105 . S
Sc156 O157 2.025 . S
Sc156 O166 2.105 . S
Sc156 O168 2.105 . S
Sc156 O172 2.105 . S
Sc156 O174 2.105 . S
O157 Sc154 2.025 . S
O157 Sc155 2.025 . S
O157 Sc156 2.025 . S
C158 O164 1.268 . S
C158 O174 1.268 . S
C159 O165 1.268 . S
C159 O173 1.268 . S
C160 O166 1.268 . S
C160 O175 1.268 . S
C161 O167 1.268 . S
C161 O171 1.268 . S
C162 O168 1.268 . S
C162 O170 1.268 . S
C163 O169 1.268 . S
C163 O172 1.268 . S
O164 Sc154 2.105 . S
O164 C158 1.268 . S
O165 Sc155 2.105 . S
O165 C159 1.268 . S
O166 Sc156 2.105 . S
O166 C160 1.268 . S
O167 Sc154 2.105 . S
O167 C161 1.268 . S
O168 Sc156 2.105 . S
O168 C162 1.268 . S
O169 Sc155 2.105 . S
O169 C163 1.268 . S
O170 Sc154 2.105 . S
O170 C162 1.268 . S
O171 Sc155 2.105 . S
O171 C161 1.268 . S
O172 Sc156 2.105 . S
O172 C163 1.268 . S
O173 Sc154 2.105 . S
O173 C159 1.268 . S
O174 Sc156 2.105 . S
O174 C158 1.268 . S
O175 Sc155 2.105 . S
O175 C160 1.268 . S
Sc176 O179 2.025 . S
Sc176 O186 2.105 . S
Sc176 O189 2.105 . S
Sc176 O192 2.105 . S
Sc176 O195 2.105 . S
Sc177 O179 2.025 . S
Sc177 O187 2.105 . S
Sc177 O191 2.105 . S
Sc177 O193 2.105 . S
Sc177 O197 2.105 . S
Sc178 O179 2.025 . S
Sc178 O188 2.105 . S
Sc178 O190 2.105 . S
Sc178 O194 2.105 . S
Sc178 O196 2.105 . S
O179 Sc176 2.025 . S
O179 Sc177 2.025 . S
O179 Sc178 2.025 . S
C180 O186 1.268 . S
C180 O196 1.268 . S
C181 O187 1.268 . S
C181 O195 1.268 . S
C182 O188 1.268 . S
C182 O197 1.268 . S
C183 O189 1.268 . S
C183 O193 1.268 . S
C184 O190 1.268 . S
C184 O192 1.268 . S
C185 O191 1.268 . S
C185 O194 1.268 . S
O186 Sc176 2.105 . S
O186 C180 1.268 . S
O187 Sc177 2.105 . S
O187 C181 1.268 . S
O188 Sc178 2.105 . S
O188 C182 1.268 . S
O189 Sc176 2.105 . S
O189 C183 1.268 . S
O190 Sc178 2.105 . S
O190 C184 1.268 . S
O191 Sc177 2.105 . S
O191 C185 1.268 . S
O192 Sc176 2.105 . S
O192 C184 1.268 . S
O193 Sc177 2.105 . S
O193 C183 1.268 . S
O194 Sc178 2.105 . S
O194 C185 1.268 . S
O195 Sc176 2.105 . S
O195 C181 1.268 . S
O196 Sc178 2.105 . S
O196 C180 1.268 . S
O197 Sc177 2.105 . S
O197 C182 1.268 . S
Sc198 O201 2.025 . S
Sc198 O208 2.105 . S
Sc198 O211 2.105 . S
Sc198 O214 2.105 . S
Sc198 O217 2.105 . S
Sc199 O201 2.025 . S
Sc199 O209 2.105 . S
Sc199 O213 2.105 . S
Sc199 O215 2.105 . S
Sc199 O219 2.105 . S
Sc200 O201 2.025 . S
Sc200 O210 2.105 . S
Sc200 O212 2.105 . S
Sc200 O216 2.105 . S
Sc200 O218 2.105 . S
O201 Sc198 2.025 . S
O201 Sc199 2.025 . S
O201 Sc200 2.025 . S
C202 O208 1.268 . S
C202 O218 1.268 . S
C203 O209 1.268 . S
C203 O217 1.268 . S
C204 O210 1.268 . S
C204 O219 1.268 . S
C205 O211 1.268 . S
C205 O215 1.268 . S
C206 O212 1.268 . S
C206 O214 1.268 . S
C207 O213 1.268 . S
C207 O216 1.268 . S
O208 Sc198 2.105 . S
O208 C202 1.268 . S
O209 Sc199 2.105 . S
O209 C203 1.268 . S
O210 Sc200 2.105 . S
O210 C204 1.268 . S
O211 Sc198 2.105 . S
O211 C205 1.268 . S
O212 Sc200 2.105 . S
O212 C206 1.268 . S
O213 Sc199 2.105 . S
O213 C207 1.268 . S
O214 Sc198 2.105 . S
O214 C206 1.268 . S
O215 Sc199 2.105 . S
O215 C205 1.268 . S
O216 Sc200 2.105 . S
O216 C207 1.268 . S
O217 Sc198 2.105 . S
O217 C203 1.268 . S
O218 Sc200 2.105 . S
O218 C202 1.268 . S
O219 Sc199 2.105 . S
O219 C204 1.268 . S
Sc220 O223 2.025 . S
Sc220 O230 2.105 . S
Sc220 O233 2.105 . S
Sc220 O236 2.105 . S
Sc220 O239 2.105 . S
Sc221 O223 2.025 . S
Sc221 O231 2.105 . S
Sc221 O235 2.105 . S
Sc221 O237 2.105 . S
Sc221 O241 2.105 . S
Sc222 O223 2.025 . S
Sc222 O232 2.105 . S
Sc222 O234 2.105 . S
Sc222 O238 2.105 . S
Sc222 O240 2.105 . S
O223 Sc220 2.025 . S
O223 Sc221 2.025 . S
O223 Sc222 2.025 . S
C224 O230 1.268 . S
C224 O240 1.268 . S
C225 O231 1.268 . S
C225 O239 1.268 . S
C226 O232 1.268 . S
C226 O241 1.268 . S
C227 O233 1.268 . S
C227 O237 1.268 . S
C228 O234 1.268 . S
C228 O236 1.268 . S
C229 O235 1.268 . S
C229 O238 1.268 . S
O230 Sc220 2.105 . S
O230 C224 1.268 . S
O231 Sc221 2.105 . S
O231 C225 1.268 . S
O232 Sc222 2.105 . S
O232 C226 1.268 . S
O233 Sc220 2.105 . S
O233 C227 1.268 . S
O234 Sc222 2.105 . S
O234 C228 1.268 . S
O235 Sc221 2.105 . S
O235 C229 1.268 . S
O236 Sc220 2.105 . S
O236 C228 1.268 . S
O237 Sc221 2.105 . S
O237 C227 1.268 . S
O238 Sc222 2.105 . S
O238 C229 1.268 . S
O239 Sc220 2.105 . S
O239 C225 1.268 . S
O240 Sc222 2.105 . S
O240 C224 1.268 . S
O241 Sc221 2.105 . S
O241 C226 1.268 . S
Sc242 O245 2.025 . S
Sc242 O252 2.105 . S
Sc242 O255 2.105 . S
Sc242 O258 2.105 . S
Sc242 O261 2.105 . S
Sc243 O245 2.025 . S
Sc243 O253 2.105 . S
Sc243 O257 2.105 . S
Sc243 O259 2.105 . S
Sc243 O263 2.105 . S
Sc244 O245 2.025 . S
Sc244 O254 2.105 . S
Sc244 O256 2.105 . S
Sc244 O260 2.105 . S
Sc244 O262 2.105 . S
O245 Sc242 2.025 . S
O245 Sc243 2.025 . S
O245 Sc244 2.025 . S
C246 O252 1.268 . S
C246 O262 1.268 . S
C247 O253 1.268 . S
C247 O261 1.268 . S
C248 O254 1.268 . S
C248 O263 1.268 . S
C249 O255 1.268 . S
C249 O259 1.268 . S
C250 O256 1.268 . S
C250 O258 1.268 . S
C251 O257 1.268 . S
C251 O260 1.268 . S
O252 Sc242 2.105 . S
O252 C246 1.268 . S
O253 Sc243 2.105 . S
O253 C247 1.268 . S
O254 Sc244 2.105 . S
O254 C248 1.268 . S
O255 Sc242 2.105 . S
O255 C249 1.268 . S
O256 Sc244 2.105 . S
O256 C250 1.268 . S
O257 Sc243 2.105 . S
O257 C251 1.268 . S
O258 Sc242 2.105 . S
O258 C250 1.268 . S
O259 Sc243 2.105 . S
O259 C249 1.268 . S
O260 Sc244 2.105 . S
O260 C251 1.268 . S
O261 Sc242 2.105 . S
O261 C247 1.268 . S
O262 Sc244 2.105 . S
O262 C246 1.268 . S
O263 Sc243 2.105 . S
O263 C248 1.268 . S
Sc264 O267 2.025 . S
Sc264 O274 2.105 . S
Sc264 O277 2.105 . S
Sc264 O280 2.105 . S
Sc264 O283 2.105 . S
Sc265 O267 2.025 . S
Sc265 O275 2.105 . S
Sc265 O279 2.105 . S
Sc265 O281 2.105 . S
Sc265 O285 2.105 . S
Sc266 O267 2.025 . S
Sc266 O276 2.105 . S
Sc266 O278 2.105 . S
Sc266 O282 2.105 . S
Sc266 O284 2.105 . S
O267 Sc264 2.025 . S
O267 Sc265 2.025 . S
O267 Sc266 2.025 . S
C268 O274 1.268 . S
C268 O284 1.268 . S
C269 O275 1.268 . S
C269 O283 1.268 . S
C270 O276 1.268 . S
C270 O285 1.268 . S
C271 O277 1.268 . S
C271 O281 1.268 . S
C272 O278 1.268 . S
C272 O280 1.268 . S
C273 O279 1.268 . S
C273 O282 1.268 . S
O274 Sc264 2.105 . S
O274 C268 1.268 . S
O275 Sc265 2.105 . S
O275 C269 1.268 . S
O276 Sc266 2.105 . S
O276 C270 1.268 . S
O277 Sc264 2.105 . S
O277 C271 1.268 . S
O278 Sc266 2.105 . S
O278 C272 1.268 . S
O279 Sc265 2.105 . S
O279 C273 1.268 . S
O280 Sc264 2.105 . S
O280 C272 1.268 . S
O281 Sc265 2.105 . S
O281 C271 1.268 . S
O282 Sc266 2.105 . S
O282 C273 1.268 . S
O283 Sc264 2.105 . S
O283 C269 1.268 . S
O284 Sc266 2.105 . S
O284 C268 1.268 . S
O285 Sc265 2.105 . S
O285 C270 1.268 . S
Sc286 O289 2.025 . S
Sc286 O296 2.105 . S
Sc286 O299 2.105 . S
Sc286 O302 2.105 . S
Sc286 O305 2.105 . S
Sc287 O289 2.025 . S
Sc287 O297 2.105 . S
Sc287 O301 2.105 . S
Sc287 O303 2.105 . S
Sc287 O307 2.105 . S
Sc288 O289 2.025 . S
Sc288 O298 2.105 . S
Sc288 O300 2.105 . S
Sc288 O304 2.105 . S
Sc288 O306 2.105 . S
O289 Sc286 2.025 . S
O289 Sc287 2.025 . S
O289 Sc288 2.025 . S
C290 O296 1.268 . S
C290 O306 1.268 . S
C291 O297 1.268 . S
C291 O305 1.268 . S
C292 O298 1.268 . S
C292 O307 1.268 . S
C293 O299 1.268 . S
C293 O303 1.268 . S
C294 O300 1.268 . S
C294 O302 1.268 . S
C295 O301 1.268 . S
C295 O304 1.268 . S
O296 Sc286 2.105 . S
O296 C290 1.268 . S
O297 Sc287 2.105 . S
O297 C291 1.268 . S
O298 Sc288 2.105 . S
O298 C292 1.268 . S
O299 Sc286 2.105 . S
O299 C293 1.268 . S
O300 Sc288 2.105 . S
O300 C294 1.268 . S
O301 Sc287 2.105 . S
O301 C295 1.268 . S
O302 Sc286 2.105 . S
O302 C294 1.268 . S
O303 Sc287 2.105 . S
O303 C293 1.268 . S
O304 Sc288 2.105 . S
O304 C295 1.268 . S
O305 Sc286 2.105 . S
O305 C291 1.268 . S
O306 Sc288 2.105 . S
O306 C290 1.268 . S
O307 Sc287 2.105 . S
O307 C292 1.268 . S
Sc308 O311 2.025 . S
Sc308 O318 2.105 . S
Sc308 O321 2.105 . S
Sc308 O324 2.105 . S
Sc308 O327 2.105 . S
Sc309 O311 2.025 . S
Sc309 O319 2.105 . S
Sc309 O323 2.105 . S
Sc309 O325 2.105 . S
Sc309 O329 2.105 . S
Sc310 O311 2.025 . S
Sc310 O320 2.105 . S
Sc310 O322 2.105 . S
Sc310 O326 2.105 . S
Sc310 O328 2.105 . S
O311 Sc308 2.025 . S
O311 Sc309 2.025 . S
O311 Sc310 2.025 . S
C312 O318 1.268 . S
C312 O328 1.268 . S
C313 O319 1.268 . S
C313 O327 1.268 . S
C314 O320 1.268 . S
C314 O329 1.268 . S
C315 O321 1.268 . S
C315 O325 1.268 . S
C316 O322 1.268 . S
C316 O324 1.268 . S
C317 O323 1.268 . S
C317 O326 1.268 . S
O318 Sc308 2.105 . S
O318 C312 1.268 . S
O319 Sc309 2.105 . S
O319 C313 1.268 . S
O320 Sc310 2.105 . S
O320 C314 1.268 . S
O321 Sc308 2.105 . S
O321 C315 1.268 . S
O322 Sc310 2.105 . S
O322 C316 1.268 . S
O323 Sc309 2.105 . S
O323 C317 1.268 . S
O324 Sc308 2.105 . S
O324 C316 1.268 . S
O325 Sc309 2.105 . S
O325 C315 1.268 . S
O326 Sc310 2.105 . S
O326 C317 1.268 . S
O327 Sc308 2.105 . S
O327 C313 1.268 . S
O328 Sc310 2.105 . S
O328 C312 1.268 . S
O329 Sc309 2.105 . S
O329 C314 1.268 . S
Sc330 O333 2.025 . S
Sc330 O340 2.105 . S
Sc330 O343 2.105 . S
Sc330 O346 2.105 . S
Sc330 O349 2.105 . S
Sc331 O333 2.025 . S
Sc331 O341 2.105 . S
Sc331 O345 2.105 . S
Sc331 O347 2.105 . S
Sc331 O351 2.105 . S
Sc332 O333 2.025 . S
Sc332 O342 2.105 . S
Sc332 O344 2.105 . S
Sc332 O348 2.105 . S
Sc332 O350 2.105 . S
O333 Sc330 2.025 . S
O333 Sc331 2.025 . S
O333 Sc332 2.025 . S
C334 O340 1.268 . S
C334 O350 1.268 . S
C335 O341 1.268 . S
C335 O349 1.268 . S
C336 O342 1.268 . S
C336 O351 1.268 . S
C337 O343 1.268 . S
C337 O347 1.268 . S
C338 O344 1.268 . S
C338 O346 1.268 . S
C339 O345 1.268 . S
C339 O348 1.268 . S
O340 Sc330 2.105 . S
O340 C334 1.268 . S
O341 Sc331 2.105 . S
O341 C335 1.268 . S
O342 Sc332 2.105 . S
O342 C336 1.268 . S
O343 Sc330 2.105 . S
O343 C337 1.268 . S
O344 Sc332 2.105 . S
O344 C338 1.268 . S
O345 Sc331 2.105 . S
O345 C339 1.268 . S
O346 Sc330 2.105 . S
O346 C338 1.268 . S
O347 Sc331 2.105 . S
O347 C337 1.268 . S
O348 Sc332 2.105 . S
O348 C339 1.268 . S
O349 Sc330 2.105 . S
O349 C335 1.268 . S
O350 Sc332 2.105 . S
O350 C334 1.268 . S
O351 Sc331 2.105 . S
O351 C336 1.268 . S
C352 C353 1.349 . S
C352 C354 1.327 . S
C352 H377 0.950 . S
C353 C352 1.349 . S
C353 C369 1.349 . S
C354 C352 1.327 . S
C354 C373 1.429 . S
C354 H378 0.950 . S
C355 C372 1.574 . S
C355 C374 1.368 . S
C355 H379 0.949 . S
H356 C360 0.949 . S
C357 C358 1.349 . S
C357 C359 1.327 . S
C357 H380 0.950 . S
C358 C357 1.349 . S
C358 C370 1.349 . S
C359 C357 1.327 . S
C359 C375 1.429 . S
C359 H381 0.950 . S
C360 H356 0.949 . S
C360 C368 1.574 . S
C360 C376 1.368 . S
H361 C369 0.950 . S
H362 C367 0.950 . S
H363 C368 0.949 . S
H364 C370 0.950 . S
H365 C371 0.950 . S
H366 C372 0.949 . S
C367 H362 0.950 . S
C367 C369 1.327 . S
C367 C373 1.429 . S
C368 C360 1.574 . S
C368 H363 0.949 . S
C368 C374 1.368 . S
C369 C353 1.349 . S
C369 H361 0.950 . S
C369 C367 1.327 . S
C370 C358 1.349 . S
C370 H364 0.950 . S
C370 C371 1.327 . S
C371 H365 0.950 . S
C371 C370 1.327 . S
C371 C375 1.429 . S
C372 C355 1.574 . S
C372 H366 0.949 . S
C372 C376 1.368 . S
C373 C354 1.429 . S
C373 C367 1.429 . S
C373 C374 1.523 . S
C374 C355 1.368 . S
C374 C368 1.368 . S
C374 C373 1.523 . S
C375 C359 1.429 . S
C375 C371 1.429 . S
C375 C376 1.523 . S
C376 C360 1.368 . S
C376 C372 1.368 . S
C376 C375 1.523 . S
H377 C352 0.950 . S
H378 C354 0.950 . S
H379 C355 0.949 . S
H380 C357 0.950 . S
H381 C359 0.950 . S
C382 C383 1.349 . S
C382 C384 1.327 . S
C382 H407 0.950 . S
C383 C382 1.349 . S
C383 C399 1.349 . S
C384 C382 1.327 . S
C384 C403 1.429 . S
C384 H408 0.950 . S
C385 C402 1.574 . S
C385 C404 1.368 . S
C385 H409 0.949 . S
H386 C390 0.949 . S
C387 C388 1.349 . S
C387 C389 1.327 . S
C387 H410 0.950 . S
C388 C387 1.349 . S
C388 C400 1.349 . S
C389 C387 1.327 . S
C389 C405 1.429 . S
C389 H411 0.950 . S
C390 H386 0.949 . S
C390 C398 1.574 . S
C390 C406 1.368 . S
H391 C399 0.950 . S
H392 C397 0.950 . S
H393 C398 0.949 . S
H394 C400 0.950 . S
H395 C401 0.950 . S
H396 C402 0.949 . S
C397 H392 0.950 . S
C397 C399 1.327 . S
C397 C403 1.429 . S
C398 C390 1.574 . S
C398 H393 0.949 . S
C398 C404 1.368 . S
C399 C383 1.349 . S
C399 H391 0.950 . S
C399 C397 1.327 . S
C400 C388 1.349 . S
C400 H394 0.950 . S
C400 C401 1.327 . S
C401 H395 0.950 . S
C401 C400 1.327 . S
C401 C405 1.429 . S
C402 C385 1.574 . S
C402 H396 0.949 . S
C402 C406 1.368 . S
C403 C384 1.429 . S
C403 C397 1.429 . S
C403 C404 1.523 . S
C404 C385 1.368 . S
C404 C398 1.368 . S
C404 C403 1.523 . S
C405 C389 1.429 . S
C405 C401 1.429 . S
C405 C406 1.523 . S
C406 C390 1.368 . S
C406 C402 1.368 . S
C406 C405 1.523 . S
H407 C382 0.950 . S
H408 C384 0.950 . S
H409 C385 0.949 . S
H410 C387 0.950 . S
H411 C389 0.950 . S
C412 C413 1.349 . S
C412 C414 1.327 . S
C412 H437 0.950 . S
C413 C412 1.349 . S
C413 C429 1.349 . S
C414 C412 1.327 . S
C414 C433 1.429 . S
C414 H438 0.950 . S
C415 C432 1.574 . S
C415 C434 1.368 . S
C415 H439 0.949 . S
H416 C420 0.949 . S
C417 C418 1.349 . S
C417 C419 1.327 . S
C417 H440 0.950 . S
C418 C417 1.349 . S
C418 C430 1.349 . S
C419 C417 1.327 . S
C419 C435 1.429 . S
C419 H441 0.950 . S
C420 H416 0.949 . S
C420 C428 1.574 . S
C420 C436 1.368 . S
H421 C429 0.950 . S
H422 C427 0.950 . S
H423 C428 0.949 . S
H424 C430 0.950 . S
H425 C431 0.950 . S
H426 C432 0.949 . S
C427 H422 0.950 . S
C427 C429 1.327 . S
C427 C433 1.429 . S
C428 C420 1.574 . S
C428 H423 0.949 . S
C428 C434 1.368 . S
C429 C413 1.349 . S
C429 H421 0.950 . S
C429 C427 1.327 . S
C430 C418 1.349 . S
C430 H424 0.950 . S
C430 C431 1.327 . S
C431 H425 0.950 . S
C431 C430 1.327 . S
C431 C435 1.429 . S
C432 C415 1.574 . S
C432 H426 0.949 . S
C432 C436 1.368 . S
C433 C414 1.429 . S
C433 C427 1.429 . S
C433 C434 1.523 . S
C434 C415 1.368 . S
C434 C428 1.368 . S
C434 C433 1.523 . S
C435 C419 1.429 . S
C435 C431 1.429 . S
C435 C436 1.523 . S
C436 C420 1.368 . S
C436 C432 1.368 . S
C436 C435 1.523 . S
H437 C412 0.950 . S
H438 C414 0.950 . S
H439 C415 0.949 . S
H440 C417 0.950 . S
H441 C419 0.950 . S
C442 C443 1.349 . S
C442 C444 1.327 . S
C442 H467 0.950 . S
C443 C442 1.349 . S
C443 C459 1.349 . S
C444 C442 1.327 . S
C444 C463 1.429 . S
C444 H468 0.950 . S
C445 C462 1.574 1_556 S
C445 C464 1.368 1_455 S
C445 H469 0.949 . S
H446 C450 0.949 . S
C447 C448 1.349 . S
C447 C449 1.327 . S
C447 H470 0.950 . S
C448 C447 1.349 . S
C448 C460 1.349 . S
C449 C447 1.327 . S
C449 C465 1.429 . S
C449 H471 0.950 . S
C450 H446 0.949 . S
C450 C458 1.574 1_554 S
C450 C466 1.368 1_655 S
H451 C459 0.950 . S
H452 C457 0.950 . S
H453 C458 0.949 . S
H454 C460 0.950 . S
H455 C461 0.950 . S
H456 C462 0.949 . S
C457 H452 0.950 . S
C457 C459 1.327 . S
C457 C463 1.429 . S
C458 C450 1.574 1_556 S
C458 H453 0.949 . S
C458 C464 1.368 . S
C459 C443 1.349 . S
C459 H451 0.950 . S
C459 C457 1.327 . S
C460 C448 1.349 . S
C460 H454 0.950 . S
C460 C461 1.327 . S
C461 H455 0.950 . S
C461 C460 1.327 . S
C461 C465 1.429 . S
C462 C445 1.574 1_554 S
C462 H456 0.949 . S
C462 C466 1.368 . S
C463 C444 1.429 . S
C463 C457 1.429 . S
C463 C464 1.523 . S
C464 C445 1.368 1_655 S
C464 C458 1.368 . S
C464 C463 1.523 . S
C465 C449 1.429 . S
C465 C461 1.429 . S
C465 C466 1.523 . S
C466 C450 1.368 1_455 S
C466 C462 1.368 . S
C466 C465 1.523 . S
H467 C442 0.950 . S
H468 C444 0.950 . S
H469 C445 0.949 . S
H470 C447 0.950 . S
H471 C449 0.950 . S
C472 C473 1.349 . S
C472 C474 1.327 . S
C472 H497 0.950 . S
C473 C472 1.349 . S
C473 C489 1.349 . S
C474 C472 1.327 . S
C474 C493 1.429 . S
C474 H498 0.950 . S
C475 C492 1.574 . S
C475 C494 1.368 . S
C475 H499 0.949 . S
H476 C480 0.949 . S
C477 C478 1.349 . S
C477 C479 1.327 . S
C477 H500 0.950 . S
C478 C477 1.349 . S
C478 C490 1.349 . S
C479 C477 1.327 . S
C479 C495 1.429 . S
C479 H501 0.950 . S
C480 H476 0.949 . S
C480 C488 1.574 . S
C480 C496 1.368 . S
H481 C489 0.950 . S
H482 C487 0.950 . S
H483 C488 0.949 . S
H484 C490 0.950 . S
H485 C491 0.950 . S
H486 C492 0.949 . S
C487 H482 0.950 . S
C487 C489 1.327 . S
C487 C493 1.429 . S
C488 C480 1.574 . S
C488 H483 0.949 . S
C488 C494 1.368 . S
C489 C473 1.349 . S
C489 H481 0.950 . S
C489 C487 1.327 . S
C490 C478 1.349 . S
C490 H484 0.950 . S
C490 C491 1.327 . S
C491 H485 0.950 . S
C491 C490 1.327 . S
C491 C495 1.429 . S
C492 C475 1.574 . S
C492 H486 0.949 . S
C492 C496 1.368 . S
C493 C474 1.429 . S
C493 C487 1.429 . S
C493 C494 1.523 . S
C494 C475 1.368 . S
C494 C488 1.368 . S
C494 C493 1.523 . S
C495 C479 1.429 . S
C495 C491 1.429 . S
C495 C496 1.523 . S
C496 C480 1.368 . S
C496 C492 1.368 . S
C496 C495 1.523 . S
H497 C472 0.950 . S
H498 C474 0.950 . S
H499 C475 0.949 . S
H500 C477 0.950 . S
H501 C479 0.950 . S
C502 C503 1.349 . S
C502 C504 1.327 . S
C502 H527 0.950 . S
C503 C502 1.349 . S
C503 C519 1.349 . S
C504 C502 1.327 . S
C504 C523 1.429 . S
C504 H528 0.950 . S
C505 C522 1.574 . S
C505 C524 1.368 . S
C505 H529 0.949 . S
H506 C510 0.949 . S
C507 C508 1.349 . S
C507 C509 1.327 . S
C507 H530 0.950 . S
C508 C507 1.349 . S
C508 C520 1.349 . S
C509 C507 1.327 . S
C509 C525 1.429 . S
C509 H531 0.950 . S
C510 H506 0.949 . S
C510 C518 1.574 . S
C510 C526 1.368 . S
H511 C519 0.950 . S
H512 C517 0.950 . S
H513 C518 0.949 . S
H514 C520 0.950 . S
H515 C521 0.950 . S
H516 C522 0.949 . S
C517 H512 0.950 . S
C517 C519 1.327 . S
C517 C523 1.429 . S
C518 C510 1.574 . S
C518 H513 0.949 . S
C518 C524 1.368 . S
C519 C503 1.349 . S
C519 H511 0.950 . S
C519 C517 1.327 . S
C520 C508 1.349 . S
C520 H514 0.950 . S
C520 C521 1.327 . S
C521 H515 0.950 . S
C521 C520 1.327 . S
C521 C525 1.429 . S
C522 C505 1.574 . S
C522 H516 0.949 . S
C522 C526 1.368 . S
C523 C504 1.429 . S
C523 C517 1.429 . S
C523 C524 1.523 . S
C524 C505 1.368 . S
C524 C518 1.368 . S
C524 C523 1.523 . S
C525 C509 1.429 . S
C525 C521 1.429 . S
C525 C526 1.523 . S
C526 C510 1.368 . S
C526 C522 1.368 . S
C526 C525 1.523 . S
H527 C502 0.950 . S
H528 C504 0.950 . S
H529 C505 0.949 . S
H530 C507 0.950 . S
H531 C509 0.950 . S
C532 C533 1.349 . S
C532 C534 1.327 . S
C532 H557 0.950 . S
C533 C532 1.349 . S
C533 C549 1.346 1_565 S
C534 C532 1.327 . S
C534 C553 1.429 . S
C534 H558 0.950 . S
C535 C552 1.574 1_554 S
C535 C554 1.368 1_445 S
C535 H559 0.949 . S
H536 C540 0.949 . S
C537 C538 1.349 . S
C537 C539 1.327 . S
C537 H560 0.950 . S
C538 C537 1.349 . S
C538 C550 1.346 1_545 S
C539 C537 1.327 . S
C539 C555 1.429 . S
C539 H561 0.950 . S
C540 H536 0.949 . S
C540 C548 1.574 1_556 S
C540 C556 1.368 1_665 S
H541 C549 0.952 . S
H542 C547 0.950 . S
H543 C548 0.949 . S
H544 C550 0.952 . S
H545 C551 0.950 . S
H546 C552 0.949 . S
C547 H542 0.950 . S
C547 C549 1.328 . S
C547 C553 1.429 1_545 S
C548 C540 1.574 1_554 S
C548 H543 0.949 . S
C548 C554 1.368 . S
C549 C533 1.346 1_545 S
C549 H541 0.952 . S
C549 C547 1.328 . S
C550 C538 1.346 1_565 S
C550 H544 0.952 . S
C550 C551 1.328 . S
C551 H545 0.950 . S
C551 C550 1.328 . S
C551 C555 1.429 1_565 S
C552 C535 1.574 1_556 S
C552 H546 0.949 . S
C552 C556 1.368 . S
C553 C534 1.429 . S
C553 C547 1.429 1_565 S
C553 C554 1.523 . S
C554 C535 1.368 1_665 S
C554 C548 1.368 . S
C554 C553 1.523 . S
C555 C539 1.429 . S
C555 C551 1.429 1_545 S
C555 C556 1.523 . S
C556 C540 1.368 1_445 S
C556 C552 1.368 . S
C556 C555 1.523 . S
H557 C532 0.950 . S
H558 C534 0.950 . S
H559 C535 0.949 . S
H560 C537 0.950 . S
H561 C539 0.950 . S
C562 C563 1.352 . S
C562 C564 1.326 1_565 S
C562 H587 0.948 1_565 S
C563 C562 1.352 . S
C563 C579 1.349 . S
C564 C562 1.326 1_545 S
C564 C583 1.429 1_545 S
C564 H588 0.950 . S
C565 C582 1.574 . S
C565 C584 1.368 . S
C565 H589 0.949 . S
H566 C570 0.949 . S
C567 C568 1.352 . S
C567 C569 1.326 1_545 S
C567 H590 0.948 1_545 S
C568 C567 1.352 . S
C568 C580 1.349 . S
C569 C567 1.326 1_565 S
C569 C585 1.429 1_565 S
C569 H591 0.950 . S
C570 H566 0.949 . S
C570 C578 1.574 . S
C570 C586 1.368 . S
H571 C579 0.950 . S
H572 C577 0.950 . S
H573 C578 0.949 . S
H574 C580 0.950 . S
H575 C581 0.950 . S
H576 C582 0.949 . S
C577 H572 0.950 . S
C577 C579 1.327 . S
C577 C583 1.429 . S
C578 C570 1.574 . S
C578 H573 0.949 . S
C578 C584 1.368 1_545 S
C579 C563 1.349 . S
C579 H571 0.950 . S
C579 C577 1.327 . S
C580 C568 1.349 . S
C580 H574 0.950 . S
C580 C581 1.327 . S
C581 H575 0.950 . S
C581 C580 1.327 . S
C581 C585 1.429 . S
C582 C565 1.574 . S
C582 H576 0.949 . S
C582 C586 1.368 1_565 S
C583 C564 1.429 1_565 S
C583 C577 1.429 . S
C583 C584 1.523 . S
C584 C565 1.368 . S
C584 C578 1.368 1_565 S
C584 C583 1.523 . S
C585 C569 1.429 1_545 S
C585 C581 1.429 . S
C585 C586 1.523 . S
C586 C570 1.368 . S
C586 C582 1.368 1_545 S
C586 C585 1.523 . S
H587 C562 0.948 1_545 S
H588 C564 0.950 . S
H589 C565 0.949 . S
H590 C567 0.948 1_565 S
H591 C569 0.950 . S
C592 C593 1.349 . S
C592 C594 1.327 . S
C592 H617 0.950 . S
C593 C592 1.349 . S
C593 C609 1.349 . S
C594 C592 1.327 . S
C594 C613 1.429 . S
C594 H618 0.950 . S
C595 C612 1.574 . S
C595 C614 1.368 . S
C595 H619 0.949 . S
H596 C600 0.949 . S
C597 C598 1.349 . S
C597 C599 1.327 . S
C597 H620 0.950 . S
C598 C597 1.349 . S
C598 C610 1.349 . S
C599 C597 1.327 . S
C599 C615 1.429 . S
C599 H621 0.950 . S
C600 H596 0.949 . S
C600 C608 1.574 1_554 S
C600 C616 1.368 . S
H601 C609 0.950 . S
H602 C607 0.950 . S
H603 C608 0.949 . S
H604 C610 0.950 . S
H605 C611 0.950 . S
H606 C612 0.949 . S
C607 H602 0.950 . S
C607 C609 1.327 . S
C607 C613 1.429 . S
C608 C600 1.574 1_556 S
C608 H603 0.949 . S
C608 C614 1.368 . S
C609 C593 1.349 . S
C609 H601 0.950 . S
C609 C607 1.327 . S
C610 C598 1.349 . S
C610 H604 0.950 . S
C610 C611 1.327 . S
C611 H605 0.950 . S
C611 C610 1.327 . S
C611 C615 1.429 . S
C612 C595 1.574 . S
C612 H606 0.949 . S
C612 C616 1.368 1_556 S
C613 C594 1.429 . S
C613 C607 1.429 . S
C613 C614 1.523 . S
C614 C595 1.368 . S
C614 C608 1.368 . S
C614 C613 1.523 . S
C615 C599 1.429 . S
C615 C611 1.429 . S
C615 C616 1.523 . S
C616 C600 1.368 . S
C616 C612 1.368 1_554 S
C616 C615 1.523 . S
H617 C592 0.950 . S
H618 C594 0.950 . S
H619 C595 0.949 . S
H620 C597 0.950 . S
H621 C599 0.950 . S
C622 C623 1.349 . S
C622 C624 1.327 . S
C622 H647 0.950 . S
C623 C622 1.349 . S
C623 C639 1.349 . S
C624 C622 1.327 . S
C624 C643 1.429 . S
C624 H648 0.950 . S
C625 C642 1.574 . S
C625 C644 1.368 . S
C625 H649 0.949 . S
H626 C630 0.949 . S
C627 C628 1.349 . S
C627 C629 1.327 . S
C627 H650 0.950 . S
C628 C627 1.349 . S
C628 C640 1.349 . S
C629 C627 1.327 . S
C629 C645 1.429 . S
C629 H651 0.950 . S
C630 H626 0.949 . S
C630 C638 1.574 . S
C630 C646 1.368 . S
H631 C639 0.950 . S
H632 C637 0.950 . S
H633 C638 0.949 . S
H634 C640 0.950 . S
H635 C641 0.950 . S
H636 C642 0.949 . S
C637 H632 0.950 . S
C637 C639 1.327 . S
C637 C643 1.429 . S
C638 C630 1.574 . S
C638 H633 0.949 . S
C638 C644 1.368 . S
C639 C623 1.349 . S
C639 H631 0.950 . S
C639 C637 1.327 . S
C640 C628 1.349 . S
C640 H634 0.950 . S
C640 C641 1.327 . S
C641 H635 0.950 . S
C641 C640 1.327 . S
C641 C645 1.429 . S
C642 C625 1.574 . S
C642 H636 0.949 . S
C642 C646 1.368 . S
C643 C624 1.429 . S
C643 C637 1.429 . S
C643 C644 1.523 . S
C644 C625 1.368 . S
C644 C638 1.368 . S
C644 C643 1.523 . S
C645 C629 1.429 . S
C645 C641 1.429 . S
C645 C646 1.523 . S
C646 C630 1.368 . S
C646 C642 1.368 . S
C646 C645 1.523 . S
H647 C622 0.950 . S
H648 C624 0.950 . S
H649 C625 0.949 . S
H650 C627 0.950 . S
H651 C629 0.950 . S
C652 C653 1.349 . S
C652 C654 1.327 . S
C652 H677 0.950 . S
C653 C652 1.349 . S
C653 C669 1.349 . S
C654 C652 1.327 . S
C654 C673 1.429 . S
C654 H678 0.950 . S
C655 C672 1.574 . S
C655 C674 1.368 . S
C655 H679 0.949 . S
H656 C660 0.949 . S
C657 C658 1.349 . S
C657 C659 1.327 . S
C657 H680 0.950 . S
C658 C657 1.349 . S
C658 C670 1.349 . S
C659 C657 1.327 . S
C659 C675 1.429 . S
C659 H681 0.950 . S
C660 H656 0.949 . S
C660 C668 1.574 . S
C660 C676 1.368 . S
H661 C669 0.950 . S
H662 C667 0.950 . S
H663 C668 0.949 . S
H664 C670 0.950 . S
H665 C671 0.950 . S
H666 C672 0.949 . S
C667 H662 0.950 . S
C667 C669 1.327 . S
C667 C673 1.429 . S
C668 C660 1.574 . S
C668 H663 0.949 . S
C668 C674 1.368 . S
C669 C653 1.349 . S
C669 H661 0.950 . S
C669 C667 1.327 . S
C670 C658 1.349 . S
C670 H664 0.950 . S
C670 C671 1.327 . S
C671 H665 0.950 . S
C671 C670 1.327 . S
C671 C675 1.429 . S
C672 C655 1.574 . S
C672 H666 0.949 . S
C672 C676 1.368 . S
C673 C654 1.429 . S
C673 C667 1.429 . S
C673 C674 1.523 . S
C674 C655 1.368 . S
C674 C668 1.368 . S
C674 C673 1.523 . S
C675 C659 1.429 . S
C675 C671 1.429 . S
C675 C676 1.523 . S
C676 C660 1.368 . S
C676 C672 1.368 . S
C676 C675 1.523 . S
H677 C652 0.950 . S
H678 C654 0.950 . S
H679 C655 0.949 . S
H680 C657 0.950 . S
H681 C659 0.950 . S
C682 C683 1.349 . S
C682 C684 1.327 . S
C682 H707 0.950 . S
C683 C682 1.349 . S
C683 C699 1.349 . S
C684 C682 1.327 . S
C684 C703 1.429 . S
C684 H708 0.950 . S
C685 C702 1.574 . S
C685 C704 1.368 . S
C685 H709 0.949 . S
H686 C690 0.949 . S
C687 C688 1.349 . S
C687 C689 1.327 . S
C687 H710 0.950 . S
C688 C687 1.349 . S
C688 C700 1.349 . S
C689 C687 1.327 . S
C689 C705 1.429 . S
C689 H711 0.950 . S
C690 H686 0.949 . S
C690 C698 1.574 . S
C690 C706 1.368 . S
H691 C699 0.950 . S
H692 C697 0.950 . S
H693 C698 0.949 . S
H694 C700 0.950 . S
H695 C701 0.950 . S
H696 C702 0.949 . S
C697 H692 0.950 . S
C697 C699 1.327 . S
C697 C703 1.429 . S
C698 C690 1.574 . S
C698 H693 0.949 . S
C698 C704 1.368 . S
C699 C683 1.349 . S
C699 H691 0.950 . S
C699 C697 1.327 . S
C700 C688 1.349 . S
C700 H694 0.950 . S
C700 C701 1.327 . S
C701 H695 0.950 . S
C701 C700 1.327 . S
C701 C705 1.429 . S
C702 C685 1.574 . S
C702 H696 0.949 . S
C702 C706 1.368 . S
C703 C684 1.429 . S
C703 C697 1.429 . S
C703 C704 1.523 . S
C704 C685 1.368 . S
C704 C698 1.368 . S
C704 C703 1.523 . S
C705 C689 1.429 . S
C705 C701 1.429 . S
C705 C706 1.523 . S
C706 C690 1.368 . S
C706 C702 1.368 . S
C706 C705 1.523 . S
H707 C682 0.950 . S
H708 C684 0.950 . S
H709 C685 0.949 . S
H710 C687 0.950 . S
H711 C689 0.950 . S
C712 C713 1.349 . S
C712 C714 1.327 . S
C712 H737 0.950 . S
C713 C712 1.349 . S
C713 C729 1.349 . S
C714 C712 1.327 . S
C714 C733 1.429 . S
C714 H738 0.950 . S
C715 C732 1.574 1_554 S
C715 C734 1.368 . S
C715 H739 0.949 . S
H716 C720 0.949 1_556 S
C717 C718 1.349 . S
C717 C719 1.327 . S
C717 H740 0.950 . S
C718 C717 1.349 . S
C718 C730 1.349 . S
C719 C717 1.327 . S
C719 C735 1.429 . S
C719 H741 0.950 . S
C720 H716 0.949 1_554 S
C720 C728 1.574 . S
C720 C736 1.368 1_554 S
H721 C729 0.950 . S
H722 C727 0.950 . S
H723 C728 0.949 . S
H724 C730 0.950 . S
H725 C731 0.950 . S
H726 C732 0.949 . S
C727 H722 0.950 . S
C727 C729 1.327 . S
C727 C733 1.429 . S
C728 C720 1.574 . S
C728 H723 0.949 . S
C728 C734 1.368 . S
C729 C713 1.349 . S
C729 H721 0.950 . S
C729 C727 1.327 . S
C730 C718 1.349 . S
C730 H724 0.950 . S
C730 C731 1.327 . S
C731 H725 0.950 . S
C731 C730 1.327 . S
C731 C735 1.429 . S
C732 C715 1.574 1_556 S
C732 H726 0.949 . S
C732 C736 1.368 . S
C733 C714 1.429 . S
C733 C727 1.429 . S
C733 C734 1.523 . S
C734 C715 1.368 . S
C734 C728 1.368 . S
C734 C733 1.523 . S
C735 C719 1.429 . S
C735 C731 1.429 . S
C735 C736 1.523 . S
C736 C720 1.368 1_556 S
C736 C732 1.368 . S
C736 C735 1.523 . S
H737 C712 0.950 . S
H738 C714 0.950 . S
H739 C715 0.949 . S
H740 C717 0.950 . S
H741 C719 0.950 . S
C742 C743 1.349 . S
C742 C744 1.327 . S
C742 H767 0.950 . S
C743 C742 1.349 . S
C743 C759 1.349 . S
C744 C742 1.327 . S
C744 C763 1.429 . S
C744 H768 0.950 . S
C745 C762 1.574 . S
C745 C764 1.368 . S
C745 H769 0.949 . S
H746 C750 0.949 . S
C747 C748 1.349 . S
C747 C749 1.327 . S
C747 H770 0.950 . S
C748 C747 1.349 . S
C748 C760 1.349 . S
C749 C747 1.327 . S
C749 C765 1.429 . S
C749 H771 0.950 . S
C750 H746 0.949 . S
C750 C758 1.574 . S
C750 C766 1.368 . S
H751 C759 0.950 . S
H752 C757 0.950 . S
H753 C758 0.949 . S
H754 C760 0.950 . S
H755 C761 0.950 . S
H756 C762 0.949 . S
C757 H752 0.950 . S
C757 C759 1.327 . S
C757 C763 1.429 . S
C758 C750 1.574 . S
C758 H753 0.949 . S
C758 C764 1.368 . S
C759 C743 1.349 . S
C759 H751 0.950 . S
C759 C757 1.327 . S
C760 C748 1.349 . S
C760 H754 0.950 . S
C760 C761 1.327 . S
C761 H755 0.950 . S
C761 C760 1.327 . S
C761 C765 1.429 . S
C762 C745 1.574 . S
C762 H756 0.949 . S
C762 C766 1.368 . S
C763 C744 1.429 . S
C763 C757 1.429 . S
C763 C764 1.523 . S
C764 C745 1.368 . S
C764 C758 1.368 . S
C764 C763 1.523 . S
C765 C749 1.429 . S
C765 C761 1.429 . S
C765 C766 1.523 . S
C766 C750 1.368 . S
C766 C762 1.368 . S
C766 C765 1.523 . S
H767 C742 0.950 . S
H768 C744 0.950 . S
H769 C745 0.949 . S
H770 C747 0.950 . S
H771 C749 0.950 . S
C772 C773 1.349 . S
C772 C774 1.327 . S
C772 H797 0.950 . S
C773 C772 1.349 . S
C773 C789 1.349 . S
C774 C772 1.327 . S
C774 C793 1.429 . S
C774 H798 0.950 . S
C775 C792 1.574 . S
C775 C794 1.368 . S
C775 H799 0.949 . S
H776 C780 0.949 . S
C777 C778 1.349 . S
C777 C779 1.327 . S
C777 H800 0.950 . S
C778 C777 1.349 . S
C778 C790 1.349 . S
C779 C777 1.327 . S
C779 C795 1.429 . S
C779 H801 0.950 . S
C780 H776 0.949 . S
C780 C788 1.574 . S
C780 C796 1.368 . S
H781 C789 0.950 . S
H782 C787 0.950 . S
H783 C788 0.949 . S
H784 C790 0.950 . S
H785 C791 0.950 . S
H786 C792 0.949 . S
C787 H782 0.950 . S
C787 C789 1.327 . S
C787 C793 1.429 . S
C788 C780 1.574 . S
C788 H783 0.949 . S
C788 C794 1.368 . S
C789 C773 1.349 . S
C789 H781 0.950 . S
C789 C787 1.327 . S
C790 C778 1.349 . S
C790 H784 0.950 . S
C790 C791 1.327 . S
C791 H785 0.950 . S
C791 C790 1.327 . S
C791 C795 1.429 . S
C792 C775 1.574 . S
C792 H786 0.949 . S
C792 C796 1.368 . S
C793 C774 1.429 . S
C793 C787 1.429 . S
C793 C794 1.523 . S
C794 C775 1.368 . S
C794 C788 1.368 . S
C794 C793 1.523 . S
C795 C779 1.429 . S
C795 C791 1.429 . S
C795 C796 1.523 . S
C796 C780 1.368 . S
C796 C792 1.368 . S
C796 C795 1.523 . S
H797 C772 0.950 . S
H798 C774 0.950 . S
H799 C775 0.949 . S
H800 C777 0.950 . S
H801 C779 0.950 . S
C802 C803 1.349 . S
C802 C804 1.327 . S
C802 H827 0.950 . S
C803 C802 1.349 . S
C803 C819 1.349 . S
C804 C802 1.327 . S
C804 C823 1.429 . S
C804 H828 0.950 . S
C805 C822 1.574 . S
C805 C824 1.368 . S
C805 H829 0.949 . S
H806 C810 0.949 . S
C807 C808 1.349 . S
C807 C809 1.327 . S
C807 H830 0.950 . S
C808 C807 1.349 . S
C808 C820 1.349 . S
C809 C807 1.327 . S
C809 C825 1.429 . S
C809 H831 0.950 . S
C810 H806 0.949 . S
C810 C818 1.574 . S
C810 C826 1.368 . S
H811 C819 0.950 . S
H812 C817 0.950 . S
H813 C818 0.949 . S
H814 C820 0.950 . S
H815 C821 0.950 . S
H816 C822 0.949 . S
C817 H812 0.950 . S
C817 C819 1.327 . S
C817 C823 1.429 . S
C818 C810 1.574 . S
C818 H813 0.949 . S
C818 C824 1.368 . S
C819 C803 1.349 . S
C819 H811 0.950 . S
C819 C817 1.327 . S
C820 C808 1.349 . S
C820 H814 0.950 . S
C820 C821 1.327 . S
C821 H815 0.950 . S
C821 C820 1.327 . S
C821 C825 1.429 . S
C822 C805 1.574 . S
C822 H816 0.949 . S
C822 C826 1.368 . S
C823 C804 1.429 . S
C823 C817 1.429 . S
C823 C824 1.523 . S
C824 C805 1.368 . S
C824 C818 1.368 . S
C824 C823 1.523 . S
C825 C809 1.429 . S
C825 C821 1.429 . S
C825 C826 1.523 . S
C826 C810 1.368 . S
C826 C822 1.368 . S
C826 C825 1.523 . S
H827 C802 0.950 . S
H828 C804 0.950 . S
H829 C805 0.949 . S
H830 C807 0.950 . S
H831 C809 0.950 . S
C832 C833 1.349 . S
C832 C834 1.327 . S
C832 H857 0.950 . S
C833 C832 1.349 . S
C833 C849 1.349 . S
C834 C832 1.327 . S
C834 C853 1.429 . S
C834 H858 0.950 . S
C835 C852 1.574 . S
C835 C854 1.368 . S
C835 H859 0.949 . S
H836 C840 0.949 . S
C837 C838 1.349 . S
C837 C839 1.327 . S
C837 H860 0.950 . S
C838 C837 1.349 . S
C838 C850 1.349 . S
C839 C837 1.327 . S
C839 C855 1.429 . S
C839 H861 0.950 . S
C840 H836 0.949 . S
C840 C848 1.574 . S
C840 C856 1.368 . S
H841 C849 0.950 . S
H842 C847 0.950 . S
H843 C848 0.949 . S
H844 C850 0.950 . S
H845 C851 0.950 . S
H846 C852 0.949 . S
C847 H842 0.950 . S
C847 C849 1.327 . S
C847 C853 1.429 . S
C848 C840 1.574 . S
C848 H843 0.949 . S
C848 C854 1.368 . S
C849 C833 1.349 . S
C849 H841 0.950 . S
C849 C847 1.327 . S
C850 C838 1.349 . S
C850 H844 0.950 . S
C850 C851 1.327 . S
C851 H845 0.950 . S
C851 C850 1.327 . S
C851 C855 1.429 . S
C852 C835 1.574 . S
C852 H846 0.949 . S
C852 C856 1.368 . S
C853 C834 1.429 . S
C853 C847 1.429 . S
C853 C854 1.523 . S
C854 C835 1.368 . S
C854 C848 1.368 . S
C854 C853 1.523 . S
C855 C839 1.429 . S
C855 C851 1.429 . S
C855 C856 1.523 . S
C856 C840 1.368 . S
C856 C852 1.368 . S
C856 C855 1.523 . S
H857 C832 0.950 . S
H858 C834 0.950 . S
H859 C835 0.949 . S
H860 C837 0.950 . S
H861 C839 0.950 . S
C862 C863 1.349 . S
C862 C864 1.327 . S
C862 H887 0.950 . S
C863 C862 1.349 . S
C863 C879 1.349 . S
C864 C862 1.327 . S
C864 C883 1.429 . S
C864 H888 0.950 . S
C865 C882 1.574 . S
C865 C884 1.368 . S
C865 H889 0.949 . S
H866 C870 0.949 . S
C867 C868 1.349 . S
C867 C869 1.327 . S
C867 H890 0.950 . S
C868 C867 1.349 . S
C868 C880 1.349 . S
C869 C867 1.327 . S
C869 C885 1.429 . S
C869 H891 0.950 . S
C870 H866 0.949 . S
C870 C878 1.574 1_565 S
C870 C886 1.368 . S
H871 C879 0.950 . S
H872 C877 0.950 . S
H873 C878 0.949 . S
H874 C880 0.950 . S
H875 C881 0.950 . S
H876 C882 0.949 . S
C877 H872 0.950 . S
C877 C879 1.327 1_565 S
C877 C883 1.429 1_565 S
C878 C870 1.574 1_545 S
C878 H873 0.949 . S
C878 C884 1.368 1_545 S
C879 C863 1.349 . S
C879 H871 0.950 . S
C879 C877 1.327 1_545 S
C880 C868 1.349 . S
C880 H874 0.950 . S
C880 C881 1.327 . S
C881 H875 0.950 . S
C881 C880 1.327 . S
C881 C885 1.429 . S
C882 C865 1.574 . S
C882 H876 0.949 . S
C882 C886 1.368 . S
C883 C864 1.429 . S
C883 C877 1.429 1_545 S
C883 C884 1.523 1_545 S
C884 C865 1.368 . S
C884 C878 1.368 1_565 S
C884 C883 1.523 1_565 S
C885 C869 1.429 . S
C885 C881 1.429 . S
C885 C886 1.523 . S
C886 C870 1.368 . S
C886 C882 1.368 . S
C886 C885 1.523 . S
H887 C862 0.950 . S
H888 C864 0.950 . S
H889 C865 0.949 . S
H890 C867 0.950 . S
H891 C869 0.950 . S
C892 C893 1.349 . S
C892 C894 1.327 . S
C892 H917 0.950 . S
C893 C892 1.349 . S
C893 C909 1.349 . S
C894 C892 1.327 . S
C894 C913 1.429 . S
C894 H918 0.950 . S
C895 C912 1.574 . S
C895 C914 1.368 1_556 S
C895 H919 0.949 . S
H896 C900 0.949 . S
C897 C898 1.349 . S
C897 C899 1.327 . S
C897 H920 0.950 . S
C898 C897 1.349 . S
C898 C910 1.349 . S
C899 C897 1.327 . S
C899 C915 1.429 . S
C899 H921 0.950 . S
C900 H896 0.949 . S
C900 C908 1.574 1_556 S
C900 C916 1.368 . S
H901 C909 0.950 . S
H902 C907 0.950 . S
H903 C908 0.949 . S
H904 C910 0.950 . S
H905 C911 0.950 . S
H906 C912 0.949 . S
C907 H902 0.950 . S
C907 C909 1.327 . S
C907 C913 1.429 . S
C908 C900 1.574 1_554 S
C908 H903 0.949 . S
C908 C914 1.368 . S
C909 C893 1.349 . S
C909 H901 0.950 . S
C909 C907 1.327 . S
C910 C898 1.349 . S
C910 H904 0.950 . S
C910 C911 1.327 . S
C911 H905 0.950 . S
C911 C910 1.327 . S
C911 C915 1.429 . S
C912 C895 1.574 . S
C912 H906 0.949 . S
C912 C916 1.368 . S
C913 C894 1.429 . S
C913 C907 1.429 . S
C913 C914 1.523 . S
C914 C895 1.368 1_554 S
C914 C908 1.368 . S
C914 C913 1.523 . S
C915 C899 1.429 . S
C915 C911 1.429 . S
C915 C916 1.523 . S
C916 C900 1.368 . S
C916 C912 1.368 . S
C916 C915 1.523 . S
H917 C892 0.950 . S
H918 C894 0.950 . S
H919 C895 0.949 . S
H920 C897 0.950 . S
H921 C899 0.950 . S
C922 C923 1.349 . S
C922 C924 1.327 . S
C922 H947 0.950 . S
C923 C922 1.349 . S
C923 C939 1.349 . S
C924 C922 1.327 . S
C924 C943 1.429 . S
C924 H948 0.950 . S
C925 C942 1.574 1_545 S
C925 C944 1.368 . S
C925 H949 0.949 . S
H926 C930 0.949 . S
C927 C928 1.349 . S
C927 C929 1.327 . S
C927 H950 0.950 . S
C928 C927 1.349 . S
C928 C940 1.349 . S
C929 C927 1.327 . S
C929 C945 1.429 . S
C929 H951 0.950 . S
C930 H926 0.949 . S
C930 C938 1.574 . S
C930 C946 1.368 . S
H931 C939 0.950 . S
H932 C937 0.950 . S
H933 C938 0.949 . S
H934 C940 0.950 . S
H935 C941 0.950 . S
H936 C942 0.949 . S
C937 H932 0.950 . S
C937 C939 1.327 . S
C937 C943 1.429 . S
C938 C930 1.574 . S
C938 H933 0.949 . S
C938 C944 1.368 . S
C939 C923 1.349 . S
C939 H931 0.950 . S
C939 C937 1.327 . S
C940 C928 1.349 . S
C940 H934 0.950 . S
C940 C941 1.327 1_565 S
C941 H935 0.950 . S
C941 C940 1.327 1_545 S
C941 C945 1.429 1_545 S
C942 C925 1.574 1_565 S
C942 H936 0.949 . S
C942 C946 1.368 1_565 S
C943 C924 1.429 . S
C943 C937 1.429 . S
C943 C944 1.523 . S
C944 C925 1.368 . S
C944 C938 1.368 . S
C944 C943 1.523 . S
C945 C929 1.429 . S
C945 C941 1.429 1_565 S
C945 C946 1.523 1_565 S
C946 C930 1.368 . S
C946 C942 1.368 1_545 S
C946 C945 1.523 1_545 S
H947 C922 0.950 . S
H948 C924 0.950 . S
H949 C925 0.949 . S
H950 C927 0.950 . S
H951 C929 0.950 . S
C952 C953 1.349 . S
C952 C954 1.327 . S
C952 H977 0.950 . S
C953 C952 1.349 . S
C953 C969 1.349 . S
C954 C952 1.327 . S
C954 C973 1.429 . S
C954 H978 0.950 . S
C955 C972 1.574 . S
C955 C974 1.368 . S
C955 H979 0.949 . S
H956 C960 0.949 . S
C957 C958 1.349 . S
C957 C959 1.327 . S
C957 H980 0.950 . S
C958 C957 1.349 . S
C958 C970 1.349 . S
C959 C957 1.327 . S
C959 C975 1.429 . S
C959 H981 0.950 . S
C960 H956 0.949 . S
C960 C968 1.574 . S
C960 C976 1.368 . S
H961 C969 0.950 . S
H962 C967 0.950 . S
H963 C968 0.949 . S
H964 C970 0.950 . S
H965 C971 0.950 . S
H966 C972 0.949 . S
C967 H962 0.950 . S
C967 C969 1.327 . S
C967 C973 1.429 . S
C968 C960 1.574 . S
C968 H963 0.949 . S
C968 C974 1.368 . S
C969 C953 1.349 . S
C969 H961 0.950 . S
C969 C967 1.327 . S
C970 C958 1.349 . S
C970 H964 0.950 . S
C970 C971 1.327 . S
C971 H965 0.950 . S
C971 C970 1.327 . S
C971 C975 1.429 . S
C972 C955 1.574 . S
C972 H966 0.949 . S
C972 C976 1.368 . S
C973 C954 1.429 . S
C973 C967 1.429 . S
C973 C974 1.523 . S
C974 C955 1.368 . S
C974 C968 1.368 . S
C974 C973 1.523 . S
C975 C959 1.429 . S
C975 C971 1.429 . S
C975 C976 1.523 . S
C976 C960 1.368 . S
C976 C972 1.368 . S
C976 C975 1.523 . S
H977 C952 0.950 . S
H978 C954 0.950 . S
H979 C955 0.949 . S
H980 C957 0.950 . S
H981 C959 0.950 . S
C982 C983 1.349 . S
C982 C984 1.327 . S
C982 H1007 0.950 . S
C983 C982 1.349 . S
C983 C999 1.349 . S
C984 C982 1.327 . S
C984 C1003 1.429 . S
C984 H1008 0.950 . S
C985 C1002 1.574 . S
C985 C1004 1.368 . S
C985 H1009 0.949 . S
H986 C990 0.949 . S
C987 C988 1.349 . S
C987 C989 1.327 . S
C987 H1010 0.950 . S
C988 C987 1.349 . S
C988 C1000 1.349 . S
C989 C987 1.327 . S
C989 C1005 1.429 . S
C989 H1011 0.950 . S
C990 H986 0.949 . S
C990 C998 1.574 1_545 S
C990 C1006 1.368 . S
H991 C999 0.950 . S
H992 C997 0.965 . S
H993 C998 0.949 . S
H994 C1000 0.950 . S
H995 C1001 0.950 . S
H996 C1002 0.949 . S
C997 H992 0.965 . S
C997 C999 1.317 1_545 S
C997 C1003 1.424 1_545 S
C998 C990 1.574 1_565 S
C998 H993 0.949 . S
C998 C1004 1.368 1_565 S
C999 C983 1.349 . S
C999 H991 0.950 . S
C999 C997 1.317 1_565 S
C1000 C988 1.349 . S
C1000 H994 0.950 . S
C1000 C1001 1.327 . S
C1001 H995 0.950 . S
C1001 C1000 1.327 . S
C1001 C1005 1.429 . S
C1002 C985 1.574 . S
C1002 H996 0.949 . S
C1002 C1006 1.368 . S
C1003 C984 1.429 . S
C1003 C997 1.424 1_565 S
C1003 C1004 1.523 1_565 S
C1004 C985 1.368 . S
C1004 C998 1.368 1_545 S
C1004 C1003 1.523 1_545 S
C1005 C989 1.429 . S
C1005 C1001 1.429 . S
C1005 C1006 1.523 . S
C1006 C990 1.368 . S
C1006 C1002 1.368 . S
C1006 C1005 1.523 . S
H1007 C982 0.950 . S
H1008 C984 0.950 . S
H1009 C985 0.949 . S
H1010 C987 0.950 . S
H1011 C989 0.950 . S
C1012 C1013 1.349 . S
C1012 C1014 1.327 . S
C1012 H1037 0.950 . S
C1013 C1012 1.349 . S
C1013 C1029 1.349 . S
C1014 C1012 1.327 . S
C1014 C1033 1.429 . S
C1014 H1038 0.950 . S
C1015 C1032 1.574 1_554 S
C1015 C1034 1.368 . S
C1015 H1039 0.949 . S
H1016 C1020 0.949 1_556 S
C1017 C1018 1.349 . S
C1017 C1019 1.327 . S
C1017 H1040 0.950 . S
C1018 C1017 1.349 . S
C1018 C1030 1.349 . S
C1019 C1017 1.327 . S
C1019 C1035 1.429 . S
C1019 H1041 0.950 . S
C1020 H1016 0.949 1_554 S
C1020 C1028 1.574 . S
C1020 C1036 1.368 1_554 S
H1021 C1029 0.950 . S
H1022 C1027 0.950 . S
H1023 C1028 0.949 . S
H1024 C1030 0.950 . S
H1025 C1031 0.950 . S
H1026 C1032 0.949 . S
C1027 H1022 0.950 . S
C1027 C1029 1.327 . S
C1027 C1033 1.429 . S
C1028 C1020 1.574 . S
C1028 H1023 0.949 . S
C1028 C1034 1.368 . S
C1029 C1013 1.349 . S
C1029 H1021 0.950 . S
C1029 C1027 1.327 . S
C1030 C1018 1.349 . S
C1030 H1024 0.950 . S
C1030 C1031 1.327 . S
C1031 H1025 0.950 . S
C1031 C1030 1.327 . S
C1031 C1035 1.429 . S
C1032 C1015 1.574 1_556 S
C1032 H1026 0.949 . S
C1032 C1036 1.368 . S
C1033 C1014 1.429 . S
C1033 C1027 1.429 . S
C1033 C1034 1.523 . S
C1034 C1015 1.368 . S
C1034 C1028 1.368 . S
C1034 C1033 1.523 . S
C1035 C1019 1.429 . S
C1035 C1031 1.429 . S
C1035 C1036 1.523 . S
C1036 C1020 1.368 1_556 S
C1036 C1032 1.368 . S
C1036 C1035 1.523 . S
H1037 C1012 0.950 . S
H1038 C1014 0.950 . S
H1039 C1015 0.949 . S
H1040 C1017 0.950 . S
H1041 C1019 0.950 . S
C1042 C1043 1.349 . S
C1042 C1044 1.327 . S
C1042 H1067 0.950 . S
C1043 C1042 1.349 . S
C1043 C1059 1.349 . S
C1044 C1042 1.327 . S
C1044 C1063 1.429 . S
C1044 H1068 0.950 . S
C1045 C1062 1.574 . S
C1045 C1064 1.368 . S
C1045 H1069 0.949 . S
H1046 C1050 0.949 . S
C1047 C1048 1.349 . S
C1047 C1049 1.327 . S
C1047 H1070 0.950 . S
C1048 C1047 1.349 . S
C1048 C1060 1.349 . S
C1049 C1047 1.327 . S
C1049 C1065 1.429 . S
C1049 H1071 0.950 . S
C1050 H1046 0.949 . S
C1050 C1058 1.574 1_565 S
C1050 C1066 1.368 . S
H1051 C1059 0.950 . S
H1052 C1057 0.950 . S
H1053 C1058 0.949 . S
H1054 C1060 0.950 . S
H1055 C1061 0.950 . S
H1056 C1062 0.949 . S
C1057 H1052 0.950 . S
C1057 C1059 1.327 1_565 S
C1057 C1063 1.429 1_565 S
C1058 C1050 1.574 1_545 S
C1058 H1053 0.949 . S
C1058 C1064 1.368 1_545 S
C1059 C1043 1.349 . S
C1059 H1051 0.950 . S
C1059 C1057 1.327 1_545 S
C1060 C1048 1.349 . S
C1060 H1054 0.950 . S
C1060 C1061 1.327 . S
C1061 H1055 0.950 . S
C1061 C1060 1.327 . S
C1061 C1065 1.429 . S
C1062 C1045 1.574 . S
C1062 H1056 0.949 . S
C1062 C1066 1.368 . S
C1063 C1044 1.429 . S
C1063 C1057 1.429 1_545 S
C1063 C1064 1.523 1_545 S
C1064 C1045 1.368 . S
C1064 C1058 1.368 1_565 S
C1064 C1063 1.523 1_565 S
C1065 C1049 1.429 . S
C1065 C1061 1.429 . S
C1065 C1066 1.523 . S
C1066 C1050 1.368 . S
C1066 C1062 1.368 . S
C1066 C1065 1.523 . S
H1067 C1042 0.950 . S
H1068 C1044 0.950 . S
H1069 C1045 0.949 . S
H1070 C1047 0.950 . S
H1071 C1049 0.950 . S
C1072 C1073 1.349 . S
C1072 C1074 1.327 . S
C1072 H1097 0.950 . S
C1073 C1072 1.349 . S
C1073 C1089 1.349 . S
C1074 C1072 1.327 . S
C1074 C1093 1.429 . S
C1074 H1098 0.950 . S
C1075 C1092 1.574 . S
C1075 C1094 1.368 . S
C1075 H1099 0.949 . S
H1076 C1080 0.949 . S
C1077 C1078 1.349 . S
C1077 C1079 1.327 . S
C1077 H1100 0.950 . S
C1078 C1077 1.349 . S
C1078 C1090 1.349 . S
C1079 C1077 1.327 . S
C1079 C1095 1.429 . S
C1079 H1101 0.950 . S
C1080 H1076 0.949 . S
C1080 C1088 1.574 . S
C1080 C1096 1.368 . S
H1081 C1089 0.950 . S
H1082 C1087 0.950 . S
H1083 C1088 0.949 . S
H1084 C1090 0.950 . S
H1085 C1091 0.950 . S
H1086 C1092 0.949 . S
C1087 H1082 0.950 . S
C1087 C1089 1.327 . S
C1087 C1093 1.429 . S
C1088 C1080 1.574 . S
C1088 H1083 0.949 . S
C1088 C1094 1.368 . S
C1089 C1073 1.349 . S
C1089 H1081 0.950 . S
C1089 C1087 1.327 . S
C1090 C1078 1.349 . S
C1090 H1084 0.950 . S
C1090 C1091 1.327 . S
C1091 H1085 0.950 . S
C1091 C1090 1.327 . S
C1091 C1095 1.429 . S
C1092 C1075 1.574 . S
C1092 H1086 0.949 . S
C1092 C1096 1.368 . S
C1093 C1074 1.429 . S
C1093 C1087 1.429 . S
C1093 C1094 1.523 . S
C1094 C1075 1.368 . S
C1094 C1088 1.368 . S
C1094 C1093 1.523 . S
C1095 C1079 1.429 . S
C1095 C1091 1.429 . S
C1095 C1096 1.523 . S
C1096 C1080 1.368 . S
C1096 C1092 1.368 . S
C1096 C1095 1.523 . S
H1097 C1072 0.950 . S
H1098 C1074 0.950 . S
H1099 C1075 0.949 . S
H1100 C1077 0.950 . S
H1101 C1079 0.950 . S
C1102 C1103 1.349 . S
C1102 C1104 1.327 . S
C1102 H1127 0.950 . S
C1103 C1102 1.349 . S
C1103 C1119 1.349 . S
C1104 C1102 1.327 . S
C1104 C1123 1.429 . S
C1104 H1128 0.950 . S
C1105 C1122 1.574 . S
C1105 C1124 1.368 . S
C1105 H1129 0.949 . S
H1106 C1110 0.949 . S
C1107 C1108 1.349 . S
C1107 C1109 1.327 . S
C1107 H1130 0.950 . S
C1108 C1107 1.349 . S
C1108 C1120 1.349 . S
C1109 C1107 1.327 . S
C1109 C1125 1.429 . S
C1109 H1131 0.950 . S
C1110 H1106 0.949 . S
C1110 C1118 1.574 . S
C1110 C1126 1.368 . S
H1111 C1119 0.950 . S
H1112 C1117 0.950 . S
H1113 C1118 0.949 . S
H1114 C1120 0.950 . S
H1115 C1121 0.950 . S
H1116 C1122 0.949 . S
C1117 H1112 0.950 . S
C1117 C1119 1.327 . S
C1117 C1123 1.429 . S
C1118 C1110 1.574 . S
C1118 H1113 0.949 . S
C1118 C1124 1.368 . S
C1119 C1103 1.349 . S
C1119 H1111 0.950 . S
C1119 C1117 1.327 . S
C1120 C1108 1.349 . S
C1120 H1114 0.950 . S
C1120 C1121 1.327 . S
C1121 H1115 0.950 . S
C1121 C1120 1.327 . S
C1121 C1125 1.429 . S
C1122 C1105 1.574 . S
C1122 H1116 0.949 . S
C1122 C1126 1.368 . S
C1123 C1104 1.429 . S
C1123 C1117 1.429 . S
C1123 C1124 1.523 . S
C1124 C1105 1.368 . S
C1124 C1118 1.368 . S
C1124 C1123 1.523 . S
C1125 C1109 1.429 . S
C1125 C1121 1.429 . S
C1125 C1126 1.523 . S
C1126 C1110 1.368 . S
C1126 C1122 1.368 . S
C1126 C1125 1.523 . S
H1127 C1102 0.950 . S
H1128 C1104 0.950 . S
H1129 C1105 0.949 . S
H1130 C1107 0.950 . S
H1131 C1109 0.950 . S
C1132 C1133 1.349 . S
C1132 C1134 1.327 . S
C1132 H1157 0.950 . S
C1133 C1132 1.349 . S
C1133 C1149 1.349 . S
C1134 C1132 1.327 . S
C1134 C1153 1.429 . S
C1134 H1158 0.950 . S
C1135 C1152 1.574 1_655 S
C1135 C1154 1.368 . S
C1135 H1159 0.949 . S
H1136 C1140 0.949 . S
C1137 C1138 1.349 . S
C1137 C1139 1.327 . S
C1137 H1160 0.950 . S
C1138 C1137 1.349 . S
C1138 C1150 1.349 . S
C1139 C1137 1.327 . S
C1139 C1155 1.429 . S
C1139 H1161 0.950 . S
C1140 H1136 0.949 . S
C1140 C1148 1.574 1_455 S
C1140 C1156 1.368 . S
H1141 C1149 0.950 . S
H1142 C1147 0.950 . S
H1143 C1148 0.949 . S
H1144 C1150 0.950 . S
H1145 C1151 0.950 . S
H1146 C1152 0.949 . S
C1147 H1142 0.950 . S
C1147 C1149 1.327 . S
C1147 C1153 1.429 . S
C1148 C1140 1.574 1_655 S
C1148 H1143 0.949 . S
C1148 C1154 1.368 . S
C1149 C1133 1.349 . S
C1149 H1141 0.950 . S
C1149 C1147 1.327 . S
C1150 C1138 1.349 . S
C1150 H1144 0.950 . S
C1150 C1151 1.327 . S
C1151 H1145 0.950 . S
C1151 C1150 1.327 . S
C1151 C1155 1.429 . S
C1152 C1135 1.574 1_455 S
C1152 H1146 0.949 . S
C1152 C1156 1.368 . S
C1153 C1134 1.429 . S
C1153 C1147 1.429 . S
C1153 C1154 1.523 . S
C1154 C1135 1.368 . S
C1154 C1148 1.368 . S
C1154 C1153 1.523 . S
C1155 C1139 1.429 . S
C1155 C1151 1.429 . S
C1155 C1156 1.523 . S
C1156 C1140 1.368 . S
C1156 C1152 1.368 . S
C1156 C1155 1.523 . S
H1157 C1132 0.950 . S
H1158 C1134 0.950 . S
H1159 C1135 0.949 . S
H1160 C1137 0.950 . S
H1161 C1139 0.950 . S
C1162 C1163 1.349 . S
C1162 C1164 1.327 . S
C1162 H1187 0.950 . S
C1163 C1162 1.349 . S
C1163 C1179 1.349 . S
C1164 C1162 1.327 . S
C1164 C1183 1.429 . S
C1164 H1188 0.950 . S
C1165 C1182 1.574 . S
C1165 C1184 1.368 . S
C1165 H1189 0.949 . S
H1166 C1170 0.949 . S
C1167 C1168 1.349 . S
C1167 C1169 1.327 . S
C1167 H1190 0.950 . S
C1168 C1167 1.349 . S
C1168 C1180 1.349 . S
C1169 C1167 1.327 . S
C1169 C1185 1.429 . S
C1169 H1191 0.950 . S
C1170 H1166 0.949 . S
C1170 C1178 1.574 . S
C1170 C1186 1.368 . S
H1171 C1179 0.950 . S
H1172 C1177 0.950 . S
H1173 C1178 0.949 . S
H1174 C1180 0.950 . S
H1175 C1181 0.950 . S
H1176 C1182 0.949 . S
C1177 H1172 0.950 . S
C1177 C1179 1.327 . S
C1177 C1183 1.429 . S
C1178 C1170 1.574 . S
C1178 H1173 0.949 . S
C1178 C1184 1.368 1_455 S
C1179 C1163 1.349 . S
C1179 H1171 0.950 . S
C1179 C1177 1.327 . S
C1180 C1168 1.349 . S
C1180 H1174 0.950 . S
C1180 C1181 1.327 . S
C1181 H1175 0.950 . S
C1181 C1180 1.327 . S
C1181 C1185 1.429 . S
C1182 C1165 1.574 . S
C1182 H1176 0.949 . S
C1182 C1186 1.368 1_655 S
C1183 C1164 1.429 . S
C1183 C1177 1.429 . S
C1183 C1184 1.523 . S
C1184 C1165 1.368 . S
C1184 C1178 1.368 1_655 S
C1184 C1183 1.523 . S
C1185 C1169 1.429 . S
C1185 C1181 1.429 . S
C1185 C1186 1.523 . S
C1186 C1170 1.368 . S
C1186 C1182 1.368 1_455 S
C1186 C1185 1.523 . S
H1187 C1162 0.950 . S
H1188 C1164 0.950 . S
H1189 C1165 0.949 . S
H1190 C1167 0.950 . S
H1191 C1169 0.950 . S
C1192 C1193 1.349 . S
C1192 C1194 1.327 . S
C1192 H1217 0.950 . S
C1193 C1192 1.349 . S
C1193 C1209 1.349 . S
C1194 C1192 1.327 . S
C1194 C1213 1.429 . S
C1194 H1218 0.950 . S
C1195 C1212 1.574 . S
C1195 C1214 1.368 . S
C1195 H1219 0.949 . S
H1196 C1200 0.949 . S
C1197 C1198 1.349 . S
C1197 C1199 1.327 . S
C1197 H1220 0.950 . S
C1198 C1197 1.349 . S
C1198 C1210 1.349 . S
C1199 C1197 1.327 . S
C1199 C1215 1.429 . S
C1199 H1221 0.950 . S
C1200 H1196 0.949 . S
C1200 C1208 1.574 . S
C1200 C1216 1.368 . S
H1201 C1209 0.950 . S
H1202 C1207 0.950 . S
H1203 C1208 0.949 . S
H1204 C1210 0.950 . S
H1205 C1211 0.950 . S
H1206 C1212 0.949 . S
C1207 H1202 0.950 . S
C1207 C1209 1.327 . S
C1207 C1213 1.429 . S
C1208 C1200 1.574 . S
C1208 H1203 0.949 . S
C1208 C1214 1.368 . S
C1209 C1193 1.349 . S
C1209 H1201 0.950 . S
C1209 C1207 1.327 . S
C1210 C1198 1.349 . S
C1210 H1204 0.950 . S
C1210 C1211 1.327 . S
C1211 H1205 0.950 . S
C1211 C1210 1.327 . S
C1211 C1215 1.429 . S
C1212 C1195 1.574 . S
C1212 H1206 0.949 . S
C1212 C1216 1.368 . S
C1213 C1194 1.429 . S
C1213 C1207 1.429 . S
C1213 C1214 1.523 . S
C1214 C1195 1.368 . S
C1214 C1208 1.368 . S
C1214 C1213 1.523 . S
C1215 C1199 1.429 . S
C1215 C1211 1.429 . S
C1215 C1216 1.523 . S
C1216 C1200 1.368 . S
C1216 C1212 1.368 . S
C1216 C1215 1.523 . S
H1217 C1192 0.950 . S
H1218 C1194 0.950 . S
H1219 C1195 0.949 . S
H1220 C1197 0.950 . S
H1221 C1199 0.950 . S
C1222 C1223 1.349 . S
C1222 C1224 1.327 . S
C1222 H1247 0.950 . S
C1223 C1222 1.349 . S
C1223 C1239 1.349 . S
C1224 C1222 1.327 . S
C1224 C1243 1.429 . S
C1224 H1248 0.950 . S
C1225 C1242 1.574 . S
C1225 C1244 1.368 . S
C1225 H1249 0.949 . S
H1226 C1230 0.949 . S
C1227 C1228 1.349 . S
C1227 C1229 1.327 . S
C1227 H1250 0.950 . S
C1228 C1227 1.349 . S
C1228 C1240 1.349 . S
C1229 C1227 1.327 . S
C1229 C1245 1.429 . S
C1229 H1251 0.950 . S
C1230 H1226 0.949 . S
C1230 C1238 1.574 . S
C1230 C1246 1.368 . S
H1231 C1239 0.950 . S
H1232 C1237 0.950 . S
H1233 C1238 0.949 . S
H1234 C1240 0.950 . S
H1235 C1241 0.950 . S
H1236 C1242 0.949 . S
C1237 H1232 0.950 . S
C1237 C1239 1.327 . S
C1237 C1243 1.429 . S
C1238 C1230 1.574 . S
C1238 H1233 0.949 . S
C1238 C1244 1.368 . S
C1239 C1223 1.349 . S
C1239 H1231 0.950 . S
C1239 C1237 1.327 . S
C1240 C1228 1.349 . S
C1240 H1234 0.950 . S
C1240 C1241 1.327 . S
C1241 H1235 0.950 . S
C1241 C1240 1.327 . S
C1241 C1245 1.429 . S
C1242 C1225 1.574 . S
C1242 H1236 0.949 . S
C1242 C1246 1.368 . S
C1243 C1224 1.429 . S
C1243 C1237 1.429 . S
C1243 C1244 1.523 . S
C1244 C1225 1.368 . S
C1244 C1238 1.368 . S
C1244 C1243 1.523 . S
C1245 C1229 1.429 . S
C1245 C1241 1.429 . S
C1245 C1246 1.523 . S
C1246 C1230 1.368 . S
C1246 C1242 1.368 . S
C1246 C1245 1.523 . S
H1247 C1222 0.950 . S
H1248 C1224 0.950 . S
H1249 C1225 0.949 . S
H1250 C1227 0.950 . S
H1251 C1229 0.950 . S
C1252 C1253 1.349 . S
C1252 C1254 1.327 . S
C1252 H1277 0.950 . S
C1253 C1252 1.349 . S
C1253 C1269 1.349 . S
C1254 C1252 1.327 . S
C1254 C1273 1.429 . S
C1254 H1278 0.950 . S
C1255 C1272 1.574 1_455 S
C1255 C1274 1.368 . S
C1255 H1279 0.949 . S
H1256 C1260 0.949 . S
C1257 C1258 1.349 . S
C1257 C1259 1.327 . S
C1257 H1280 0.950 . S
C1258 C1257 1.349 . S
C1258 C1270 1.349 . S
C1259 C1257 1.327 . S
C1259 C1275 1.429 . S
C1259 H1281 0.950 . S
C1260 H1256 0.949 . S
C1260 C1268 1.574 1_655 S
C1260 C1276 1.368 . S
H1261 C1269 0.950 . S
H1262 C1267 0.950 . S
H1263 C1268 0.949 . S
H1264 C1270 0.950 . S
H1265 C1271 0.950 . S
H1266 C1272 0.949 . S
C1267 H1262 0.950 . S
C1267 C1269 1.327 . S
C1267 C1273 1.429 . S
C1268 C1260 1.574 1_455 S
C1268 H1263 0.949 . S
C1268 C1274 1.368 . S
C1269 C1253 1.349 . S
C1269 H1261 0.950 . S
C1269 C1267 1.327 . S
C1270 C1258 1.349 . S
C1270 H1264 0.950 . S
C1270 C1271 1.327 . S
C1271 H1265 0.950 . S
C1271 C1270 1.327 . S
C1271 C1275 1.429 . S
C1272 C1255 1.574 1_655 S
C1272 H1266 0.949 . S
C1272 C1276 1.368 . S
C1273 C1254 1.429 . S
C1273 C1267 1.429 . S
C1273 C1274 1.523 . S
C1274 C1255 1.368 . S
C1274 C1268 1.368 . S
C1274 C1273 1.523 . S
C1275 C1259 1.429 . S
C1275 C1271 1.429 . S
C1275 C1276 1.523 . S
C1276 C1260 1.368 . S
C1276 C1272 1.368 . S
C1276 C1275 1.523 . S
H1277 C1252 0.950 . S
H1278 C1254 0.950 . S
H1279 C1255 0.949 . S
H1280 C1257 0.950 . S
H1281 C1259 0.950 . S
C1282 C1283 1.349 . S
C1282 C1284 1.327 . S
C1282 H1307 0.950 . S
C1283 C1282 1.349 . S
C1283 C1299 1.349 . S
C1284 C1282 1.327 . S
C1284 C1303 1.429 . S
C1284 H1308 0.950 . S
C1285 C1302 1.574 . S
C1285 C1304 1.368 . S
C1285 H1309 0.949 . S
H1286 C1290 0.949 . S
C1287 C1288 1.349 . S
C1287 C1289 1.327 . S
C1287 H1310 0.950 . S
C1288 C1287 1.349 . S
C1288 C1300 1.349 . S
C1289 C1287 1.327 . S
C1289 C1305 1.429 . S
C1289 H1311 0.950 . S
C1290 H1286 0.949 . S
C1290 C1298 1.574 . S
C1290 C1306 1.368 . S
H1291 C1299 0.950 . S
H1292 C1297 0.950 . S
H1293 C1298 0.949 . S
H1294 C1300 0.950 . S
H1295 C1301 0.950 . S
H1296 C1302 0.949 . S
C1297 H1292 0.950 . S
C1297 C1299 1.327 . S
C1297 C1303 1.429 . S
C1298 C1290 1.574 . S
C1298 H1293 0.949 . S
C1298 C1304 1.368 1_655 S
C1299 C1283 1.349 . S
C1299 H1291 0.950 . S
C1299 C1297 1.327 . S
C1300 C1288 1.349 . S
C1300 H1294 0.950 . S
C1300 C1301 1.327 . S
C1301 H1295 0.950 . S
C1301 C1300 1.327 . S
C1301 C1305 1.429 . S
C1302 C1285 1.574 . S
C1302 H1296 0.949 . S
C1302 C1306 1.368 1_455 S
C1303 C1284 1.429 . S
C1303 C1297 1.429 . S
C1303 C1304 1.523 . S
C1304 C1285 1.368 . S
C1304 C1298 1.368 1_455 S
C1304 C1303 1.523 . S
C1305 C1289 1.429 . S
C1305 C1301 1.429 . S
C1305 C1306 1.523 . S
C1306 C1290 1.368 . S
C1306 C1302 1.368 1_655 S
C1306 C1305 1.523 . S
H1307 C1282 0.950 . S
H1308 C1284 0.950 . S
H1309 C1285 0.949 . S
H1310 C1287 0.950 . S
H1311 C1289 0.950 . S
C1312 C1313 1.349 . S
C1312 C1314 1.327 . S
C1312 H1337 0.950 . S
C1313 C1312 1.349 . S
C1313 C1329 1.349 . S
C1314 C1312 1.327 . S
C1314 C1333 1.429 . S
C1314 H1338 0.950 . S
C1315 C1332 1.574 . S
C1315 C1334 1.368 . S
C1315 H1339 0.949 . S
H1316 C1320 0.949 . S
C1317 C1318 1.349 . S
C1317 C1319 1.327 . S
C1317 H1340 0.950 . S
C1318 C1317 1.349 . S
C1318 C1330 1.349 . S
C1319 C1317 1.327 . S
C1319 C1335 1.429 . S
C1319 H1341 0.950 . S
C1320 H1316 0.949 . S
C1320 C1328 1.574 . S
C1320 C1336 1.368 . S
H1321 C1329 0.950 . S
H1322 C1327 0.950 . S
H1323 C1328 0.949 . S
H1324 C1330 0.950 . S
H1325 C1331 0.950 . S
H1326 C1332 0.949 . S
C1327 H1322 0.950 . S
C1327 C1329 1.327 . S
C1327 C1333 1.429 . S
C1328 C1320 1.574 . S
C1328 H1323 0.949 . S
C1328 C1334 1.368 . S
C1329 C1313 1.349 . S
C1329 H1321 0.950 . S
C1329 C1327 1.327 . S
C1330 C1318 1.349 . S
C1330 H1324 0.950 . S
C1330 C1331 1.327 . S
C1331 H1325 0.950 . S
C1331 C1330 1.327 . S
C1331 C1335 1.429 . S
C1332 C1315 1.574 . S
C1332 H1326 0.949 . S
C1332 C1336 1.368 . S
C1333 C1314 1.429 . S
C1333 C1327 1.429 . S
C1333 C1334 1.523 . S
C1334 C1315 1.368 . S
C1334 C1328 1.368 . S
C1334 C1333 1.523 . S
C1335 C1319 1.429 . S
C1335 C1331 1.429 . S
C1335 C1336 1.523 . S
C1336 C1320 1.368 . S
C1336 C1332 1.368 . S
C1336 C1335 1.523 . S
H1337 C1312 0.950 . S
H1338 C1314 0.950 . S
H1339 C1315 0.949 . S
H1340 C1317 0.950 . S
H1341 C1319 0.950 . S
C1342 C1343 1.349 . S
C1342 C1344 1.327 . S
C1342 H1367 0.950 . S
C1343 C1342 1.349 . S
C1343 C1359 1.349 . S
C1344 C1342 1.327 . S
C1344 C1363 1.429 . S
C1344 H1368 0.950 . S
C1345 C1362 1.574 . S
C1345 C1364 1.368 . S
C1345 H1369 0.949 . S
H1346 C1350 0.949 . S
C1347 C1348 1.349 . S
C1347 C1349 1.327 . S
C1347 H1370 0.950 . S
C1348 C1347 1.349 . S
C1348 C1360 1.349 . S
C1349 C1347 1.327 . S
C1349 C1365 1.429 . S
C1349 H1371 0.950 . S
C1350 H1346 0.949 . S
C1350 C1358 1.574 . S
C1350 C1366 1.368 . S
H1351 C1359 0.950 . S
H1352 C1357 0.950 . S
H1353 C1358 0.949 . S
H1354 C1360 0.950 . S
H1355 C1361 0.950 . S
H1356 C1362 0.949 . S
C1357 H1352 0.950 . S
C1357 C1359 1.327 . S
C1357 C1363 1.429 . S
C1358 C1350 1.574 . S
C1358 H1353 0.949 . S
C1358 C1364 1.368 . S
C1359 C1343 1.349 . S
C1359 H1351 0.950 . S
C1359 C1357 1.327 . S
C1360 C1348 1.349 . S
C1360 H1354 0.950 . S
C1360 C1361 1.327 . S
C1361 H1355 0.950 . S
C1361 C1360 1.327 . S
C1361 C1365 1.429 . S
C1362 C1345 1.574 . S
C1362 H1356 0.949 . S
C1362 C1366 1.368 . S
C1363 C1344 1.429 . S
C1363 C1357 1.429 . S
C1363 C1364 1.523 . S
C1364 C1345 1.368 . S
C1364 C1358 1.368 . S
C1364 C1363 1.523 . S
C1365 C1349 1.429 . S
C1365 C1361 1.429 . S
C1365 C1366 1.523 . S
C1366 C1350 1.368 . S
C1366 C1362 1.368 . S
C1366 C1365 1.523 . S
H1367 C1342 0.950 . S
H1368 C1344 0.950 . S
H1369 C1345 0.949 . S
H1370 C1347 0.950 . S
H1371 C1349 0.950 . S
C1372 C1373 1.349 . S
C1372 C1374 1.327 . S
C1372 H1397 0.950 . S
C1373 C1372 1.349 . S
C1373 C1389 1.349 . S
C1374 C1372 1.327 . S
C1374 C1393 1.429 . S
C1374 H1398 0.950 . S
C1375 C1392 1.574 . S
C1375 C1394 1.368 . S
C1375 H1399 0.949 . S
H1376 C1380 0.949 . S
C1377 C1378 1.349 . S
C1377 C1379 1.327 . S
C1377 H1400 0.950 . S
C1378 C1377 1.349 . S
C1378 C1390 1.349 . S
C1379 C1377 1.327 . S
C1379 C1395 1.429 . S
C1379 H1401 0.950 . S
C1380 H1376 0.949 . S
C1380 C1388 1.574 . S
C1380 C1396 1.368 . S
H1381 C1389 0.950 . S
H1382 C1387 0.950 . S
H1383 C1388 0.949 . S
H1384 C1390 0.950 . S
H1385 C1391 0.950 . S
H1386 C1392 0.949 . S
C1387 H1382 0.950 . S
C1387 C1389 1.327 . S
C1387 C1393 1.429 . S
C1388 C1380 1.574 . S
C1388 H1383 0.949 . S
C1388 C1394 1.368 . S
C1389 C1373 1.349 . S
C1389 H1381 0.950 . S
C1389 C1387 1.327 . S
C1390 C1378 1.349 . S
C1390 H1384 0.950 . S
C1390 C1391 1.327 . S
C1391 H1385 0.950 . S
C1391 C1390 1.327 . S
C1391 C1395 1.429 . S
C1392 C1375 1.574 . S
C1392 H1386 0.949 . S
C1392 C1396 1.368 . S
C1393 C1374 1.429 . S
C1393 C1387 1.429 . S
C1393 C1394 1.523 . S
C1394 C1375 1.368 . S
C1394 C1388 1.368 . S
C1394 C1393 1.523 . S
C1395 C1379 1.429 . S
C1395 C1391 1.429 . S
C1395 C1396 1.523 . S
C1396 C1380 1.368 . S
C1396 C1392 1.368 . S
C1396 C1395 1.523 . S
H1397 C1372 0.950 . S
H1398 C1374 0.950 . S
H1399 C1375 0.949 . S
H1400 C1377 0.950 . S
H1401 C1379 0.950 . S
C1402 C1403 1.349 . S
C1402 C1404 1.327 . S
C1402 H1427 0.950 . S
C1403 C1402 1.349 . S
C1403 C1419 1.349 . S
C1404 C1402 1.327 . S
C1404 C1423 1.429 . S
C1404 H1428 0.950 . S
C1405 C1422 1.574 . S
C1405 C1424 1.368 . S
C1405 H1429 0.949 . S
H1406 C1410 0.949 . S
C1407 C1408 1.349 . S
C1407 C1409 1.327 . S
C1407 H1430 0.950 . S
C1408 C1407 1.349 . S
C1408 C1420 1.349 . S
C1409 C1407 1.327 . S
C1409 C1425 1.429 . S
C1409 H1431 0.950 . S
C1410 H1406 0.949 . S
C1410 C1418 1.574 . S
C1410 C1426 1.368 . S
H1411 C1419 0.950 . S
H1412 C1417 0.950 . S
H1413 C1418 0.949 . S
H1414 C1420 0.950 . S
H1415 C1421 0.950 . S
H1416 C1422 0.949 . S
C1417 H1412 0.950 . S
C1417 C1419 1.327 . S
C1417 C1423 1.429 . S
C1418 C1410 1.574 . S
C1418 H1413 0.949 . S
C1418 C1424 1.368 . S
C1419 C1403 1.349 . S
C1419 H1411 0.950 . S
C1419 C1417 1.327 . S
C1420 C1408 1.349 . S
C1420 H1414 0.950 . S
C1420 C1421 1.327 . S
C1421 H1415 0.950 . S
C1421 C1420 1.327 . S
C1421 C1425 1.429 . S
C1422 C1405 1.574 . S
C1422 H1416 0.949 . S
C1422 C1426 1.368 . S
C1423 C1404 1.429 . S
C1423 C1417 1.429 . S
C1423 C1424 1.523 . S
C1424 C1405 1.368 . S
C1424 C1418 1.368 . S
C1424 C1423 1.523 . S
C1425 C1409 1.429 . S
C1425 C1421 1.429 . S
C1425 C1426 1.523 . S
C1426 C1410 1.368 . S
C1426 C1422 1.368 . S
C1426 C1425 1.523 . S
H1427 C1402 0.950 . S
H1428 C1404 0.950 . S
H1429 C1405 0.949 . S
H1430 C1407 0.950 . S
H1431 C1409 0.950 . S
C1432 C1433 1.349 . S
C1432 C1434 1.327 . S
C1432 H1457 0.950 . S
C1433 C1432 1.349 . S
C1433 C1449 1.349 . S
C1434 C1432 1.327 . S
C1434 C1453 1.429 . S
C1434 H1458 0.950 . S
C1435 C1452 1.574 . S
C1435 C1454 1.368 . S
C1435 H1459 0.949 . S
H1436 C1440 0.949 . S
C1437 C1438 1.349 . S
C1437 C1439 1.327 . S
C1437 H1460 0.950 . S
C1438 C1437 1.349 . S
C1438 C1450 1.349 . S
C1439 C1437 1.327 . S
C1439 C1455 1.429 . S
C1439 H1461 0.950 . S
C1440 H1436 0.949 . S
C1440 C1448 1.574 . S
C1440 C1456 1.368 . S
H1441 C1449 0.950 . S
H1442 C1447 0.950 . S
H1443 C1448 0.949 . S
H1444 C1450 0.950 . S
H1445 C1451 0.950 . S
H1446 C1452 0.949 . S
C1447 H1442 0.950 . S
C1447 C1449 1.327 . S
C1447 C1453 1.429 . S
C1448 C1440 1.574 . S
C1448 H1443 0.949 . S
C1448 C1454 1.368 . S
C1449 C1433 1.349 . S
C1449 H1441 0.950 . S
C1449 C1447 1.327 . S
C1450 C1438 1.349 . S
C1450 H1444 0.950 . S
C1450 C1451 1.327 . S
C1451 H1445 0.950 . S
C1451 C1450 1.327 . S
C1451 C1455 1.429 . S
C1452 C1435 1.574 . S
C1452 H1446 0.949 . S
C1452 C1456 1.368 . S
C1453 C1434 1.429 . S
C1453 C1447 1.429 . S
C1453 C1454 1.523 . S
C1454 C1435 1.368 . S
C1454 C1448 1.368 . S
C1454 C1453 1.523 . S
C1455 C1439 1.429 . S
C1455 C1451 1.429 . S
C1455 C1456 1.523 . S
C1456 C1440 1.368 . S
C1456 C1452 1.368 . S
C1456 C1455 1.523 . S
H1457 C1432 0.950 . S
H1458 C1434 0.950 . S
H1459 C1435 0.949 . S
H1460 C1437 0.950 . S
H1461 C1439 0.950 . S
C1462 C1463 1.349 . S
C1462 C1464 1.327 . S
C1462 H1487 0.950 . S
C1463 C1462 1.349 . S
C1463 C1479 1.349 . S
C1464 C1462 1.327 . S
C1464 C1483 1.429 . S
C1464 H1488 0.950 . S
C1465 C1482 1.574 . S
C1465 C1484 1.368 . S
C1465 H1489 0.949 . S
H1466 C1470 0.949 . S
C1467 C1468 1.349 . S
C1467 C1469 1.327 . S
C1467 H1490 0.950 . S
C1468 C1467 1.349 . S
C1468 C1480 1.349 . S
C1469 C1467 1.327 . S
C1469 C1485 1.429 . S
C1469 H1491 0.950 . S
C1470 H1466 0.949 . S
C1470 C1478 1.574 . S
C1470 C1486 1.368 . S
H1471 C1479 0.950 . S
H1472 C1477 0.950 . S
H1473 C1478 0.949 . S
H1474 C1480 0.950 . S
H1475 C1481 0.950 . S
H1476 C1482 0.949 . S
C1477 H1472 0.950 . S
C1477 C1479 1.327 . S
C1477 C1483 1.429 . S
C1478 C1470 1.574 . S
C1478 H1473 0.949 . S
C1478 C1484 1.368 . S
C1479 C1463 1.349 . S
C1479 H1471 0.950 . S
C1479 C1477 1.327 . S
C1480 C1468 1.349 . S
C1480 H1474 0.950 . S
C1480 C1481 1.327 . S
C1481 H1475 0.950 . S
C1481 C1480 1.327 . S
C1481 C1485 1.429 . S
C1482 C1465 1.574 . S
C1482 H1476 0.949 . S
C1482 C1486 1.368 . S
C1483 C1464 1.429 . S
C1483 C1477 1.429 . S
C1483 C1484 1.523 . S
C1484 C1465 1.368 . S
C1484 C1478 1.368 . S
C1484 C1483 1.523 . S
C1485 C1469 1.429 . S
C1485 C1481 1.429 . S
C1485 C1486 1.523 . S
C1486 C1470 1.368 . S
C1486 C1482 1.368 . S
C1486 C1485 1.523 . S
H1487 C1462 0.950 . S
H1488 C1464 0.950 . S
H1489 C1465 0.949 . S
H1490 C1467 0.950 . S
H1491 C1469 0.950 . S
C1492 C1493 1.349 . S
C1492 C1494 1.327 . S
C1492 H1517 0.950 . S
C1493 C1492 1.349 . S
C1493 C1509 1.349 . S
C1494 C1492 1.327 . S
C1494 C1513 1.429 . S
C1494 H1518 0.950 . S
C1495 C1512 1.574 . S
C1495 C1514 1.368 . S
C1495 H1519 0.949 . S
H1496 C1500 0.949 . S
C1497 C1498 1.349 . S
C1497 C1499 1.327 . S
C1497 H1520 0.950 . S
C1498 C1497 1.349 . S
C1498 C1510 1.349 . S
C1499 C1497 1.327 . S
C1499 C1515 1.429 . S
C1499 H1521 0.950 . S
C1500 H1496 0.949 . S
C1500 C1508 1.574 . S
C1500 C1516 1.368 . S
H1501 C1509 0.950 . S
H1502 C1507 0.950 . S
H1503 C1508 0.949 . S
H1504 C1510 0.950 . S
H1505 C1511 0.950 . S
H1506 C1512 0.949 . S
C1507 H1502 0.950 . S
C1507 C1509 1.327 . S
C1507 C1513 1.429 . S
C1508 C1500 1.574 . S
C1508 H1503 0.949 . S
C1508 C1514 1.368 . S
C1509 C1493 1.349 . S
C1509 H1501 0.950 . S
C1509 C1507 1.327 . S
C1510 C1498 1.349 . S
C1510 H1504 0.950 . S
C1510 C1511 1.327 . S
C1511 H1505 0.950 . S
C1511 C1510 1.327 . S
C1511 C1515 1.429 . S
C1512 C1495 1.574 . S
C1512 H1506 0.949 . S
C1512 C1516 1.368 . S
C1513 C1494 1.429 . S
C1513 C1507 1.429 . S
C1513 C1514 1.523 . S
C1514 C1495 1.368 . S
C1514 C1508 1.368 . S
C1514 C1513 1.523 . S
C1515 C1499 1.429 . S
C1515 C1511 1.429 . S
C1515 C1516 1.523 . S
C1516 C1500 1.368 . S
C1516 C1512 1.368 . S
C1516 C1515 1.523 . S
H1517 C1492 0.950 . S
H1518 C1494 0.950 . S
H1519 C1495 0.949 . S
H1520 C1497 0.950 . S
H1521 C1499 0.950 . S
C1522 C1523 1.349 . S
C1522 C1524 1.327 . S
C1522 H1547 0.950 . S
C1523 C1522 1.349 . S
C1523 C1539 1.349 . S
C1524 C1522 1.327 . S
C1524 C1543 1.429 . S
C1524 H1548 0.950 . S
C1525 C1542 1.574 . S
C1525 C1544 1.368 . S
C1525 H1549 0.949 . S
H1526 C1530 0.949 . S
C1527 C1528 1.349 . S
C1527 C1529 1.327 . S
C1527 H1550 0.950 . S
C1528 C1527 1.349 . S
C1528 C1540 1.349 . S
C1529 C1527 1.327 . S
C1529 C1545 1.429 . S
C1529 H1551 0.950 . S
C1530 H1526 0.949 . S
C1530 C1538 1.574 . S
C1530 C1546 1.368 . S
H1531 C1539 0.950 . S
H1532 C1537 0.950 . S
H1533 C1538 0.949 . S
H1534 C1540 0.950 . S
H1535 C1541 0.950 . S
H1536 C1542 0.949 . S
C1537 H1532 0.950 . S
C1537 C1539 1.327 . S
C1537 C1543 1.429 . S
C1538 C1530 1.574 . S
C1538 H1533 0.949 . S
C1538 C1544 1.368 . S
C1539 C1523 1.349 . S
C1539 H1531 0.950 . S
C1539 C1537 1.327 . S
C1540 C1528 1.349 . S
C1540 H1534 0.950 . S
C1540 C1541 1.327 . S
C1541 H1535 0.950 . S
C1541 C1540 1.327 . S
C1541 C1545 1.429 . S
C1542 C1525 1.574 . S
C1542 H1536 0.949 . S
C1542 C1546 1.368 . S
C1543 C1524 1.429 . S
C1543 C1537 1.429 . S
C1543 C1544 1.523 . S
C1544 C1525 1.368 . S
C1544 C1538 1.368 . S
C1544 C1543 1.523 . S
C1545 C1529 1.429 . S
C1545 C1541 1.429 . S
C1545 C1546 1.523 . S
C1546 C1530 1.368 . S
C1546 C1542 1.368 . S
C1546 C1545 1.523 . S
H1547 C1522 0.950 . S
H1548 C1524 0.950 . S
H1549 C1525 0.949 . S
H1550 C1527 0.950 . S
H1551 C1529 0.950 . S
C1552 C1553 1.349 . S
C1552 C1554 1.327 . S
C1552 H1577 0.950 . S
C1553 C1552 1.349 . S
C1553 C1569 1.349 . S
C1554 C1552 1.327 . S
C1554 C1573 1.429 . S
C1554 H1578 0.950 . S
C1555 C1572 1.574 . S
C1555 C1574 1.368 . S
C1555 H1579 0.949 . S
H1556 C1560 0.949 . S
C1557 C1558 1.349 . S
C1557 C1559 1.327 . S
C1557 H1580 0.950 . S
C1558 C1557 1.349 . S
C1558 C1570 1.349 . S
C1559 C1557 1.327 . S
C1559 C1575 1.429 . S
C1559 H1581 0.950 . S
C1560 H1556 0.949 . S
C1560 C1568 1.574 . S
C1560 C1576 1.368 . S
H1561 C1569 0.950 . S
H1562 C1567 0.950 . S
H1563 C1568 0.949 . S
H1564 C1570 0.950 1_545 S
H1565 C1571 0.950 . S
H1566 C1572 0.949 . S
C1567 H1562 0.950 . S
C1567 C1569 1.327 . S
C1567 C1573 1.429 . S
C1568 C1560 1.574 . S
C1568 H1563 0.949 . S
C1568 C1574 1.368 . S
C1569 C1553 1.349 . S
C1569 H1561 0.950 . S
C1569 C1567 1.327 . S
C1570 C1558 1.349 . S
C1570 H1564 0.950 1_565 S
C1570 C1571 1.327 . S
C1571 H1565 0.950 . S
C1571 C1570 1.327 . S
C1571 C1575 1.429 . S
C1572 C1555 1.574 . S
C1572 H1566 0.949 . S
C1572 C1576 1.368 . S
C1573 C1554 1.429 . S
C1573 C1567 1.429 . S
C1573 C1574 1.523 . S
C1574 C1555 1.368 . S
C1574 C1568 1.368 . S
C1574 C1573 1.523 . S
C1575 C1559 1.429 . S
C1575 C1571 1.429 . S
C1575 C1576 1.523 . S
C1576 C1560 1.368 . S
C1576 C1572 1.368 . S
C1576 C1575 1.523 . S
H1577 C1552 0.950 . S
H1578 C1554 0.950 . S
H1579 C1555 0.949 . S
H1580 C1557 0.950 . S
H1581 C1559 0.950 . S
C1582 C1583 1.349 . S
C1582 C1584 1.327 . S
C1582 H1607 0.950 . S
C1583 C1582 1.349 . S
C1583 C1599 1.349 . S
C1584 C1582 1.327 . S
C1584 C1603 1.429 . S
C1584 H1608 0.950 . S
C1585 C1602 1.574 . S
C1585 C1604 1.368 . S
C1585 H1609 0.949 . S
H1586 C1590 0.949 . S
C1587 C1588 1.349 . S
C1587 C1589 1.327 . S
C1587 H1610 0.950 . S
C1588 C1587 1.349 . S
C1588 C1600 1.349 . S
C1589 C1587 1.327 . S
C1589 C1605 1.429 . S
C1589 H1611 0.966 . S
C1590 H1586 0.949 . S
C1590 C1598 1.574 1_545 S
C1590 C1606 1.368 . S
H1591 C1599 0.950 . S
H1592 C1597 0.950 . S
H1593 C1598 0.946 1_545 S
H1594 C1600 0.950 . S
H1595 C1601 0.950 . S
H1596 C1602 0.949 . S
C1597 H1592 0.950 . S
C1597 C1599 1.327 . S
C1597 C1603 1.429 . S
C1598 C1590 1.574 1_565 S
C1598 H1593 0.946 1_565 S
C1598 C1604 1.368 . S
C1599 C1583 1.349 . S
C1599 H1591 0.950 . S
C1599 C1597 1.327 . S
C1600 C1588 1.349 . S
C1600 H1594 0.950 . S
C1600 C1601 1.327 . S
C1601 H1595 0.950 . S
C1601 C1600 1.327 . S
C1601 C1605 1.429 . S
C1602 C1585 1.574 . S
C1602 H1596 0.949 . S
C1602 C1606 1.368 1_565 S
C1603 C1584 1.429 . S
C1603 C1597 1.429 . S
C1603 C1604 1.523 . S
C1604 C1585 1.368 . S
C1604 C1598 1.368 . S
C1604 C1603 1.523 . S
C1605 C1589 1.429 . S
C1605 C1601 1.429 . S
C1605 C1606 1.523 . S
C1606 C1590 1.368 . S
C1606 C1602 1.368 1_545 S
C1606 C1605 1.523 . S
H1607 C1582 0.950 . S
H1608 C1584 0.950 . S
H1609 C1585 0.949 . S
H1610 C1587 0.950 . S
H1611 C1589 0.966 . S
C1612 C1613 1.349 . S
C1612 C1614 1.327 . S
C1612 H1637 0.950 1_545 S
C1613 C1612 1.349 . S
C1613 C1629 1.349 . S
C1614 C1612 1.327 . S
C1614 C1633 1.429 . S
C1614 H1638 0.950 . S
C1615 C1632 1.574 . S
C1615 C1634 1.368 . S
C1615 H1639 0.949 . S
H1616 C1620 0.949 . S
C1617 C1618 1.349 . S
C1617 C1619 1.327 . S
C1617 H1640 0.950 . S
C1618 C1617 1.349 . S
C1618 C1630 1.349 . S
C1619 C1617 1.327 . S
C1619 C1635 1.429 . S
C1619 H1641 0.950 . S
C1620 H1616 0.949 . S
C1620 C1628 1.574 . S
C1620 C1636 1.368 . S
H1621 C1629 0.950 . S
H1622 C1627 0.950 . S
H1623 C1628 0.949 . S
H1624 C1630 0.950 . S
H1625 C1631 0.950 . S
H1626 C1632 0.949 . S
C1627 H1622 0.950 . S
C1627 C1629 1.327 . S
C1627 C1633 1.429 . S
C1628 C1620 1.574 . S
C1628 H1623 0.949 . S
C1628 C1634 1.368 . S
C1629 C1613 1.349 . S
C1629 H1621 0.950 . S
C1629 C1627 1.327 . S
C1630 C1618 1.349 . S
C1630 H1624 0.950 . S
C1630 C1631 1.327 . S
C1631 H1625 0.950 . S
C1631 C1630 1.327 . S
C1631 C1635 1.429 . S
C1632 C1615 1.574 . S
C1632 H1626 0.949 . S
C1632 C1636 1.368 . S
C1633 C1614 1.429 . S
C1633 C1627 1.429 . S
C1633 C1634 1.523 . S
C1634 C1615 1.368 . S
C1634 C1628 1.368 . S
C1634 C1633 1.523 . S
C1635 C1619 1.429 . S
C1635 C1631 1.429 . S
C1635 C1636 1.523 . S
C1636 C1620 1.368 . S
C1636 C1632 1.368 . S
C1636 C1635 1.523 . S
H1637 C1612 0.950 1_565 S
H1638 C1614 0.950 . S
H1639 C1615 0.949 . S
H1640 C1617 0.950 . S
H1641 C1619 0.950 . S
C1642 C1643 1.349 . S
C1642 C1644 1.327 . S
C1642 H1667 0.950 . S
C1643 C1642 1.349 . S
C1643 C1659 1.349 . S
C1644 C1642 1.327 . S
C1644 C1663 1.429 . S
C1644 H1668 0.950 . S
C1645 C1662 1.574 1_565 S
C1645 C1664 1.368 . S
C1645 H1669 0.949 . S
H1646 C1650 0.949 . S
C1647 C1648 1.349 . S
C1647 C1649 1.327 . S
C1647 H1670 0.950 . S
C1648 C1647 1.349 . S
C1648 C1660 1.349 . S
C1649 C1647 1.327 . S
C1649 C1665 1.429 . S
C1649 H1671 0.950 . S
C1650 H1646 0.949 . S
C1650 C1658 1.574 . S
C1650 C1666 1.368 . S
H1651 C1659 0.950 . S
H1652 C1657 0.950 . S
H1653 C1658 0.949 . S
H1654 C1660 0.950 . S
H1655 C1661 0.950 . S
H1656 C1662 0.949 . S
C1657 H1652 0.950 . S
C1657 C1659 1.327 . S
C1657 C1663 1.429 . S
C1658 C1650 1.574 . S
C1658 H1653 0.949 . S
C1658 C1664 1.368 1_545 S
C1659 C1643 1.349 . S
C1659 H1651 0.950 . S
C1659 C1657 1.327 . S
C1660 C1648 1.349 . S
C1660 H1654 0.950 . S
C1660 C1661 1.327 . S
C1661 H1655 0.950 . S
C1661 C1660 1.327 . S
C1661 C1665 1.429 . S
C1662 C1645 1.574 1_545 S
C1662 H1656 0.949 . S
C1662 C1666 1.368 . S
C1663 C1644 1.429 . S
C1663 C1657 1.429 . S
C1663 C1664 1.523 . S
C1664 C1645 1.368 . S
C1664 C1658 1.368 1_565 S
C1664 C1663 1.523 . S
C1665 C1649 1.429 . S
C1665 C1661 1.429 . S
C1665 C1666 1.523 . S
C1666 C1650 1.368 . S
C1666 C1662 1.368 . S
C1666 C1665 1.523 . S
H1667 C1642 0.950 . S
H1668 C1644 0.950 . S
H1669 C1645 0.949 . S
H1670 C1647 0.950 . S
H1671 C1649 0.950 . S
C1672 C1673 1.349 . S
C1672 C1674 1.327 . S
C1672 H1697 0.950 . S
C1673 C1672 1.349 . S
C1673 C1689 1.349 . S
C1674 C1672 1.327 . S
C1674 C1693 1.429 . S
C1674 H1698 0.950 . S
C1675 C1692 1.574 . S
C1675 C1694 1.368 . S
C1675 H1699 0.949 . S
H1676 C1680 0.949 . S
C1677 C1678 1.349 . S
C1677 C1679 1.327 . S
C1677 H1700 0.950 1_545 S
C1678 C1677 1.349 . S
C1678 C1690 1.349 . S
C1679 C1677 1.327 . S
C1679 C1695 1.429 . S
C1679 H1701 0.950 . S
C1680 H1676 0.949 . S
C1680 C1688 1.574 . S
C1680 C1696 1.368 . S
H1681 C1689 0.950 . S
H1682 C1687 0.950 . S
H1683 C1688 0.949 . S
H1684 C1690 0.950 . S
H1685 C1691 0.950 . S
H1686 C1692 0.949 . S
C1687 H1682 0.950 . S
C1687 C1689 1.327 . S
C1687 C1693 1.429 . S
C1688 C1680 1.574 . S
C1688 H1683 0.949 . S
C1688 C1694 1.368 . S
C1689 C1673 1.349 . S
C1689 H1681 0.950 . S
C1689 C1687 1.327 . S
C1690 C1678 1.349 . S
C1690 H1684 0.950 . S
C1690 C1691 1.327 . S
C1691 H1685 0.950 . S
C1691 C1690 1.327 . S
C1691 C1695 1.429 . S
C1692 C1675 1.574 . S
C1692 H1686 0.949 . S
C1692 C1696 1.368 . S
C1693 C1674 1.429 . S
C1693 C1687 1.429 . S
C1693 C1694 1.523 . S
C1694 C1675 1.368 . S
C1694 C1688 1.368 . S
C1694 C1693 1.523 . S
C1695 C1679 1.429 . S
C1695 C1691 1.429 . S
C1695 C1696 1.523 . S
C1696 C1680 1.368 . S
C1696 C1692 1.368 . S
C1696 C1695 1.523 . S
H1697 C1672 0.950 . S
H1698 C1674 0.950 . S
H1699 C1675 0.949 . S
H1700 C1677 0.950 1_565 S
H1701 C1679 0.950 . S
C1702 C1703 1.349 . S
C1702 C1704 1.327 . S
C1702 H1727 0.950 . S
C1703 C1702 1.349 . S
C1703 C1719 1.349 . S
C1704 C1702 1.327 . S
C1704 C1723 1.429 . S
C1704 H1728 0.950 . S
C1705 C1722 1.574 . S
C1705 C1724 1.368 1_545 S
C1705 H1729 0.949 . S
H1706 C1710 0.949 . S
C1707 C1708 1.349 . S
C1707 C1709 1.327 . S
C1707 H1730 0.950 . S
C1708 C1707 1.349 . S
C1708 C1720 1.349 . S
C1709 C1707 1.327 . S
C1709 C1725 1.429 . S
C1709 H1731 0.950 . S
C1710 H1706 0.949 . S
C1710 C1718 1.574 1_545 S
C1710 C1726 1.368 . S
H1711 C1719 0.950 . S
H1712 C1717 0.950 . S
H1713 C1718 0.949 . S
H1714 C1720 0.950 . S
H1715 C1721 0.950 . S
H1716 C1722 0.949 . S
C1717 H1712 0.950 . S
C1717 C1719 1.327 . S
C1717 C1723 1.429 . S
C1718 C1710 1.574 1_565 S
C1718 H1713 0.949 . S
C1718 C1724 1.368 . S
C1719 C1703 1.349 . S
C1719 H1711 0.950 . S
C1719 C1717 1.327 . S
C1720 C1708 1.349 . S
C1720 H1714 0.950 . S
C1720 C1721 1.327 . S
C1721 H1715 0.950 . S
C1721 C1720 1.327 . S
C1721 C1725 1.429 . S
C1722 C1705 1.574 . S
C1722 H1716 0.949 . S
C1722 C1726 1.368 . S
C1723 C1704 1.429 . S
C1723 C1717 1.429 . S
C1723 C1724 1.523 . S
C1724 C1705 1.368 1_565 S
C1724 C1718 1.368 . S
C1724 C1723 1.523 . S
C1725 C1709 1.429 . S
C1725 C1721 1.429 . S
C1725 C1726 1.523 . S
C1726 C1710 1.368 . S
C1726 C1722 1.368 . S
C1726 C1725 1.523 . S
H1727 C1702 0.950 . S
H1728 C1704 0.950 . S
H1729 C1705 0.949 . S
H1730 C1707 0.950 . S
H1731 C1709 0.950 . S
C1732 C1733 1.349 . S
C1732 C1734 1.327 . S
C1732 H1757 0.950 1_565 S
C1733 C1732 1.349 . S
C1733 C1749 1.349 . S
C1734 C1732 1.327 . S
C1734 C1753 1.429 . S
C1734 H1758 0.950 . S
C1735 C1752 1.574 . S
C1735 C1754 1.368 . S
C1735 H1759 0.949 . S
H1736 C1740 0.949 . S
C1737 C1738 1.349 . S
C1737 C1739 1.327 . S
C1737 H1760 0.950 . S
C1738 C1737 1.349 . S
C1738 C1750 1.349 . S
C1739 C1737 1.327 . S
C1739 C1755 1.429 . S
C1739 H1761 0.950 . S
C1740 H1736 0.949 . S
C1740 C1748 1.574 . S
C1740 C1756 1.368 . S
H1741 C1749 0.950 . S
H1742 C1747 0.950 . S
H1743 C1748 0.949 . S
H1744 C1750 0.950 . S
H1745 C1751 0.950 . S
H1746 C1752 0.949 . S
C1747 H1742 0.950 . S
C1747 C1749 1.327 . S
C1747 C1753 1.429 . S
C1748 C1740 1.574 . S
C1748 H1743 0.949 . S
C1748 C1754 1.368 . S
C1749 C1733 1.349 . S
C1749 H1741 0.950 . S
C1749 C1747 1.327 . S
C1750 C1738 1.349 . S
C1750 H1744 0.950 . S
C1750 C1751 1.327 . S
C1751 H1745 0.950 . S
C1751 C1750 1.327 . S
C1751 C1755 1.429 . S
C1752 C1735 1.574 . S
C1752 H1746 0.949 . S
C1752 C1756 1.368 . S
C1753 C1734 1.429 . S
C1753 C1747 1.429 . S
C1753 C1754 1.523 . S
C1754 C1735 1.368 . S
C1754 C1748 1.368 . S
C1754 C1753 1.523 . S
C1755 C1739 1.429 . S
C1755 C1751 1.429 . S
C1755 C1756 1.523 . S
C1756 C1740 1.368 . S
C1756 C1752 1.368 . S
C1756 C1755 1.523 . S
H1757 C1732 0.950 1_545 S
H1758 C1734 0.950 . S
H1759 C1735 0.949 . S
H1760 C1737 0.950 . S
H1761 C1739 0.950 . S
C1762 C1763 1.349 . S
C1762 C1764 1.327 . S
C1762 H1787 0.950 . S
C1763 C1762 1.349 . S
C1763 C1779 1.349 . S
C1764 C1762 1.327 . S
C1764 C1783 1.429 . S
C1764 H1788 0.950 . S
C1765 C1782 1.574 1_565 S
C1765 C1784 1.368 . S
C1765 H1789 0.952 . S
H1766 C1770 0.949 . S
C1767 C1768 1.349 . S
C1767 C1769 1.327 . S
C1767 H1790 0.950 . S
C1768 C1767 1.349 . S
C1768 C1780 1.349 . S
C1769 C1767 1.327 . S
C1769 C1785 1.429 . S
C1769 H1791 0.950 . S
C1770 H1766 0.949 . S
C1770 C1778 1.574 . S
C1770 C1786 1.368 1_565 S
H1771 C1779 0.950 . S
H1772 C1777 0.950 . S
H1773 C1778 0.949 . S
H1774 C1780 0.950 . S
H1775 C1781 0.950 . S
H1776 C1782 0.949 . S
C1777 H1772 0.950 . S
C1777 C1779 1.327 . S
C1777 C1783 1.429 . S
C1778 C1770 1.574 . S
C1778 H1773 0.949 . S
C1778 C1784 1.368 . S
C1779 C1763 1.349 . S
C1779 H1771 0.950 . S
C1779 C1777 1.327 . S
C1780 C1768 1.349 . S
C1780 H1774 0.950 . S
C1780 C1781 1.327 . S
C1781 H1775 0.950 . S
C1781 C1780 1.327 . S
C1781 C1785 1.429 . S
C1782 C1765 1.574 1_545 S
C1782 H1776 0.949 . S
C1782 C1786 1.368 . S
C1783 C1764 1.429 . S
C1783 C1777 1.429 . S
C1783 C1784 1.523 . S
C1784 C1765 1.368 . S
C1784 C1778 1.368 . S
C1784 C1783 1.523 . S
C1785 C1769 1.429 . S
C1785 C1781 1.429 . S
C1785 C1786 1.523 . S
C1786 C1770 1.368 1_545 S
C1786 C1782 1.368 . S
C1786 C1785 1.523 . S
H1787 C1762 0.950 . S
H1788 C1764 0.950 . S
H1789 C1765 0.952 . S
H1790 C1767 0.950 . S
H1791 C1769 0.950 . S
C353 C7 1.091 . S
C358 C273 1.091 . S
C383 C119 1.091 . S
C388 C29 1.091 . S
C413 C50 1.091 . S
C418 C313 1.091 . S
C443 C72 1.091 . S
C448 C159 1.091 . S
C473 C97 1.091 . S
C478 C183 1.091 . S
C503 C226 1.091 . S
C508 C137 1.091 . S
C533 C295 1.091 . S
C538 C205 1.091 . S
C563 C248 1.091 . S
C568 C335 1.091 . S
C593 C206 1.562 . S
C598 C6 1.486 . S
C623 C28 1.486 . S
C628 C224 1.562 . S
C653 C51 1.486 . S
C658 C246 1.562 . S
C683 C184 1.562 . S
C688 C73 1.486 . S
C713 C294 1.562 . S
C718 C93 1.486 . S
C743 C312 1.562 . S
C748 C115 1.486 . S
C773 C141 1.486 . S
C778 C334 1.562 . S
C803 C272 1.562 . S
C808 C163 1.486 . S
C833 C182 1.486 . S
C838 C30 1.562 . S
C863 C204 1.486 . S
C868 C48 1.562 . S
C893 C227 1.486 . S
C898 C70 1.562 . S
C923 C8 1.562 . S
C928 C249 1.486 . S
C953 C118 1.562 . S
C958 C269 1.486 . S
C983 C291 1.486 . S
C988 C136 1.562 . S
C1013 C158 1.562 . S
C1018 C317 1.486 . S
C1043 C339 1.486 . S
C1048 C96 1.562 . S
C1073 C4 0.466 . S
C1078 C228 0.466 . S
C1103 C26 0.466 . S
C1108 C250 0.466 . S
C1133 C180 0.466 . S
C1138 C52 0.466 . S
C1163 C74 0.466 . S
C1168 C202 0.466 . S
C1193 C92 0.466 . S
C1198 C316 0.466 . S
C1223 C114 0.466 . S
C1228 C338 0.466 . S
C1253 C268 0.466 . S
C1258 C140 0.466 . S
C1283 C162 0.466 . S
C1288 C290 0.466 . S
C1313 C5 1.424 . S
C1318 C160 1.487 . S
C1343 C271 1.487 . S
C1348 C27 1.424 . S
C1373 C53 1.424 . S
C1378 C117 1.487 . S
C1403 C75 1.424 1_455 S
C1408 C314 1.487 . S
C1433 C94 1.424 . S
C1438 C71 1.487 . S
C1463 C185 1.487 . S
C1468 C116 1.424 . S
C1493 C139 1.424 . S
C1498 C31 1.487 . S
C1523 C225 1.487 . S
C1528 C161 1.424 1_655 S
C1553 C181 1.424 . S
C1558 C336 1.487 1_565 S
C1583 C95 1.487 . S
C1588 C203 1.424 1_655 S
C1613 C293 1.487 1_545 S
C1618 C229 1.424 . S
C1643 C251 1.424 . S
C1648 C138 1.487 . S
C1673 C270 1.424 . S
C1678 C247 1.487 1_545 S
C1703 C292 1.424 1_455 S
C1708 C9 1.487 . S
C1733 C207 1.487 1_565 S
C1738 C315 1.424 . S
C1763 C49 1.487 . S
C1768 C337 1.424 . S
