# Generated by pormake.
# Topology fce, (5)-cn, num edge types: 1
# Building blocks:
#     Node 0, Type 0, BuildingBlock: BEQFEK_clean_sbu_0, # of connection points: 5
#     Node 1, Type 0, BuildingBlock: BEQFEK_clean_sbu_0, # of connection points: 5
#     Node 2, Type 0, BuildingBlock: BEQFEK_clean_sbu_0, # of connection points: 5
#     Node 3, Type 0, BuildingBlock: BEQFEK_clean_sbu_0, # of connection points: 5
#     Node 4, Type 0, BuildingBlock: BEQFEK_clean_sbu_0, # of connection points: 5
#     Node 5, Type 0, BuildingBlock: BEQFEK_clean_sbu_0, # of connection points: 5
#     Node 6, Type 0, BuildingBlock: BEQFEK_clean_sbu_0, # of connection points: 5
#     Node 7, Type 0, BuildingBlock: BEQFEK_clean_sbu_0, # of connection points: 5
#     Node 8, Type 0, BuildingBlock: BEQFEK_clean_sbu_0, # of connection points: 5
#     Node 9, Type 0, BuildingBlock: BEQFEK_clean_sbu_0, # of connection points: 5
#     Node 10, Type 0, BuildingBlock: BEQFEK_clean_sbu_0, # of connection points: 5
#     Node 11, Type 0, BuildingBlock: BEQFEK_clean_sbu_0, # of connection points: 5
#     Node 12, Type 0, BuildingBlock: BEQFEK_clean_sbu_0, # of connection points: 5
#     Node 13, Type 0, BuildingBlock: BEQFEK_clean_sbu_0, # of connection points: 5
#     Node 14, Type 0, BuildingBlock: BEQFEK_clean_sbu_0, # of connection points: 5
#     Node 15, Type 0, BuildingBlock: BEQFEK_clean_sbu_0, # of connection points: 5
#     Node 16, Type 0, BuildingBlock: BEQFEK_clean_sbu_0, # of connection points: 5
#     Node 17, Type 0, BuildingBlock: BEQFEK_clean_sbu_0, # of connection points: 5
#     Node 18, Type 0, BuildingBlock: BEQFEK_clean_sbu_0, # of connection points: 5
#     Node 19, Type 0, BuildingBlock: BEQFEK_clean_sbu_0, # of connection points: 5
#     Node 20, Type 0, BuildingBlock: BEQFEK_clean_sbu_0, # of connection points: 5
#     Node 21, Type 0, BuildingBlock: BEQFEK_clean_sbu_0, # of connection points: 5
#     Node 22, Type 0, BuildingBlock: BEQFEK_clean_sbu_0, # of connection points: 5
#     Node 23, Type 0, BuildingBlock: BEQFEK_clean_sbu_0, # of connection points: 5
#     Edge 24, Type (0, 0), BuildingBlock: XUDNAN_clean_linker_2, # of connection points: 2
#     Edge 25, Type (0, 0), BuildingBlock: XUDNAN_clean_linker_2, # of connection points: 2
#     Edge 26, Type (0, 0), BuildingBlock: XUDNAN_clean_linker_2, # of connection points: 2
#     Edge 27, Type (0, 0), BuildingBlock: XUDNAN_clean_linker_2, # of connection points: 2
#     Edge 28, Type (0, 0), BuildingBlock: XUDNAN_clean_linker_2, # of connection points: 2
#     Edge 29, Type (0, 0), BuildingBlock: XUDNAN_clean_linker_2, # of connection points: 2
#     Edge 30, Type (0, 0), BuildingBlock: XUDNAN_clean_linker_2, # of connection points: 2
#     Edge 31, Type (0, 0), BuildingBlock: XUDNAN_clean_linker_2, # of connection points: 2
#     Edge 32, Type (0, 0), BuildingBlock: XUDNAN_clean_linker_2, # of connection points: 2
#     Edge 33, Type (0, 0), BuildingBlock: XUDNAN_clean_linker_2, # of connection points: 2
#     Edge 34, Type (0, 0), BuildingBlock: XUDNAN_clean_linker_2, # of connection points: 2
#     Edge 35, Type (0, 0), BuildingBlock: XUDNAN_clean_linker_2, # of connection points: 2
#     Edge 36, Type (0, 0), BuildingBlock: XUDNAN_clean_linker_2, # of connection points: 2
#     Edge 37, Type (0, 0), BuildingBlock: XUDNAN_clean_linker_2, # of connection points: 2
#     Edge 38, Type (0, 0), BuildingBlock: XUDNAN_clean_linker_2, # of connection points: 2
#     Edge 39, Type (0, 0), BuildingBlock: XUDNAN_clean_linker_2, # of connection points: 2
#     Edge 40, Type (0, 0), BuildingBlock: XUDNAN_clean_linker_2, # of connection points: 2
#     Edge 41, Type (0, 0), BuildingBlock: XUDNAN_clean_linker_2, # of connection points: 2
#     Edge 42, Type (0, 0), BuildingBlock: XUDNAN_clean_linker_2, # of connection points: 2
#     Edge 43, Type (0, 0), BuildingBlock: XUDNAN_clean_linker_2, # of connection points: 2
#     Edge 44, Type (0, 0), BuildingBlock: XUDNAN_clean_linker_2, # of connection points: 2
#     Edge 45, Type (0, 0), BuildingBlock: XUDNAN_clean_linker_2, # of connection points: 2
#     Edge 46, Type (0, 0), BuildingBlock: XUDNAN_clean_linker_2, # of connection points: 2
#     Edge 47, Type (0, 0), BuildingBlock: XUDNAN_clean_linker_2, # of connection points: 2
#     Edge 48, Type (0, 0), BuildingBlock: XUDNAN_clean_linker_2, # of connection points: 2
#     Edge 49, Type (0, 0), BuildingBlock: XUDNAN_clean_linker_2, # of connection points: 2
#     Edge 50, Type (0, 0), BuildingBlock: XUDNAN_clean_linker_2, # of connection points: 2
#     Edge 51, Type (0, 0), BuildingBlock: XUDNAN_clean_linker_2, # of connection points: 2
#     Edge 52, Type (0, 0), BuildingBlock: XUDNAN_clean_linker_2, # of connection points: 2
#     Edge 53, Type (0, 0), BuildingBlock: XUDNAN_clean_linker_2, # of connection points: 2
#     Edge 54, Type (0, 0), BuildingBlock: XUDNAN_clean_linker_2, # of connection points: 2
#     Edge 55, Type (0, 0), BuildingBlock: XUDNAN_clean_linker_2, # of connection points: 2
#     Edge 56, Type (0, 0), BuildingBlock: XUDNAN_clean_linker_2, # of connection points: 2
#     Edge 57, Type (0, 0), BuildingBlock: XUDNAN_clean_linker_2, # of connection points: 2
#     Edge 58, Type (0, 0), BuildingBlock: XUDNAN_clean_linker_2, # of connection points: 2
#     Edge 59, Type (0, 0), BuildingBlock: XUDNAN_clean_linker_2, # of connection points: 2
#     Edge 60, Type (0, 0), BuildingBlock: XUDNAN_clean_linker_2, # of connection points: 2
#     Edge 61, Type (0, 0), BuildingBlock: XUDNAN_clean_linker_2, # of connection points: 2
#     Edge 62, Type (0, 0), BuildingBlock: XUDNAN_clean_linker_2, # of connection points: 2
#     Edge 63, Type (0, 0), BuildingBlock: XUDNAN_clean_linker_2, # of connection points: 2
#     Edge 64, Type (0, 0), BuildingBlock: XUDNAN_clean_linker_2, # of connection points: 2
#     Edge 65, Type (0, 0), BuildingBlock: XUDNAN_clean_linker_2, # of connection points: 2
#     Edge 66, Type (0, 0), BuildingBlock: XUDNAN_clean_linker_2, # of connection points: 2
#     Edge 67, Type (0, 0), BuildingBlock: XUDNAN_clean_linker_2, # of connection points: 2
#     Edge 68, Type (0, 0), BuildingBlock: XUDNAN_clean_linker_2, # of connection points: 2
#     Edge 69, Type (0, 0), BuildingBlock: XUDNAN_clean_linker_2, # of connection points: 2
#     Edge 70, Type (0, 0), BuildingBlock: XUDNAN_clean_linker_2, # of connection points: 2
#     Edge 71, Type (0, 0), BuildingBlock: XUDNAN_clean_linker_2, # of connection points: 2
#     Edge 72, Type (0, 0), BuildingBlock: XUDNAN_clean_linker_2, # of connection points: 2
#     Edge 73, Type (0, 0), BuildingBlock: XUDNAN_clean_linker_2, # of connection points: 2
#     Edge 74, Type (0, 0), BuildingBlock: XUDNAN_clean_linker_2, # of connection points: 2
#     Edge 75, Type (0, 0), BuildingBlock: XUDNAN_clean_linker_2, # of connection points: 2
#     Edge 76, Type (0, 0), BuildingBlock: XUDNAN_clean_linker_2, # of connection points: 2
#     Edge 77, Type (0, 0), BuildingBlock: XUDNAN_clean_linker_2, # of connection points: 2
#     Edge 78, Type (0, 0), BuildingBlock: XUDNAN_clean_linker_2, # of connection points: 2
#     Edge 79, Type (0, 0), BuildingBlock: XUDNAN_clean_linker_2, # of connection points: 2
#     Edge 80, Type (0, 0), BuildingBlock: XUDNAN_clean_linker_2, # of connection points: 2
#     Edge 81, Type (0, 0), BuildingBlock: XUDNAN_clean_linker_2, # of connection points: 2
#     Edge 82, Type (0, 0), BuildingBlock: XUDNAN_clean_linker_2, # of connection points: 2
#     Edge 83, Type (0, 0), BuildingBlock: XUDNAN_clean_linker_2, # of connection points: 2
# Relax obj value: 0.912
# Max RMSD: 0.236
# Mean RMSD: 0.236
data_MOF--net-fce--node1-BEQFEK_clean_sbu_0--edge1-XUDNAN_clean_linker_2
_symmetry_space_group_name_H-M    P1
_symmetry_Int_Tables_number       1
_symmetry_cell_setting            triclinic
loop_
_symmetry_equiv_pos_as_xyz
'x, y, z'
_cell_length_a     48.605384
_cell_length_b     48.585834
_cell_length_c     48.61814
_cell_angle_alpha  90.053551
_cell_angle_beta   89.998319
_cell_angle_gamma 89.933922
loop_
_atom_site_label
_atom_site_type_symbol
_atom_site_fract_x
_atom_site_fract_y
_atom_site_fract_z
_atom_type_partial_charge
Co0 Co 0.11831 0.4079 0.24672 0.0
Co1 Co 0.1476 0.38406 0.29805 0.0
C2 C 0.12598 0.43864 0.30126 0.0
O3 O 0.12176 0.43739 0.27543 0.0
O4 O 0.1325 0.41739 0.31501 0.0
C5 C 0.08988 0.44759 0.21516 0.0
O6 O 0.10703 0.46422 0.22778 0.0
C7 C 0.16821 0.37076 0.35224 0.0
C8 C 0.17196 0.32558 0.3504 0.0
C9 C 0.1714 0.34752 0.36876 0.0
N10 N 0.1652 0.36263 0.32601 0.0
N11 N 0.16867 0.33571 0.32484 0.0
C12 C 0.16967 0.40044 0.36046 0.0
H13 H 0.178 0.41289 0.34323 0.0
H14 H 0.14874 0.40816 0.3653 0.0
H15 H 0.18316 0.40315 0.37868 0.0
C16 C 0.08182 0.3609 0.25559 0.0
N17 N 0.10499 0.37496 0.26104 0.0
N18 N 0.11725 0.36435 0.28266 0.0
C19 C 0.10148 0.34364 0.29235 0.0
C20 C 0.07888 0.34048 0.27514 0.0
C21 C 0.06167 0.36856 0.23361 0.0
H22 H 0.07272 0.3719 0.21394 0.0
H23 H 0.05134 0.38813 0.23936 0.0
H24 H 0.04588 0.35232 0.23073 0.0
O25 O 0.15451 0.40165 0.23147 0.0
O26 O 0.17522 0.4003 0.27184 0.0
H27 H 0.11762 0.31266 0.31902 0.0
H28 H 0.08421 0.32484 0.32883 0.0
C29 C 0.10443 0.33124 0.3204 0.0
H30 H 0.11384 0.34624 0.33476 0.0
H31 H 0.16642 0.32401 0.30697 0.0
O32 O 0.09237 0.42183 0.21873 0.0
C33 C 0.1754 0.40657 0.24636 0.0
Co34 Co 0.58631 0.11947 0.24031 0.0
Co35 Co 0.61467 0.14341 0.29234 0.0
C36 C 0.55684 0.13168 0.2946 0.0
O37 O 0.55712 0.12757 0.26868 0.0
O38 O 0.57885 0.13487 0.30834 0.0
C39 C 0.54467 0.09128 0.20977 0.0
O40 O 0.52872 0.10088 0.22935 0.0
C41 C 0.63447 0.1558 0.34751 0.0
C42 C 0.67318 0.17832 0.33973 0.0
C43 C 0.65614 0.1689 0.36051 0.0
N44 N 0.63818 0.15774 0.32021 0.0
N45 N 0.66132 0.17128 0.31565 0.0
C46 C 0.61178 0.1397 0.36078 0.0
H47 H 0.59303 0.15271 0.36189 0.0
H48 H 0.60696 0.12116 0.34845 0.0
H49 H 0.61744 0.13306 0.38186 0.0
C50 C 0.62309 0.07326 0.25226 0.0
N51 N 0.61575 0.0997 0.25568 0.0
N52 N 0.62859 0.10992 0.27716 0.0
C53 C 0.64408 0.08983 0.28859 0.0
C54 C 0.6407 0.06568 0.27343 0.0
C55 C 0.6109 0.0547 0.23092 0.0
H56 H 0.61242 0.06473 0.2105 0.0
H57 H 0.58881 0.05128 0.23556 0.0
H58 H 0.62171 0.03458 0.23012 0.0
O59 O 0.60014 0.15427 0.22655 0.0
O60 O 0.60315 0.17393 0.26704 0.0
H61 H 0.66712 0.11233 0.31877 0.0
H62 H 0.67248 0.0757 0.3199 0.0
C63 C 0.65699 0.09207 0.31646 0.0
H64 H 0.64082 0.09009 0.3324 0.0
H65 H 0.66914 0.17548 0.29611 0.0
O66 O 0.57002 0.09761 0.20984 0.0
C67 C 0.59622 0.17507 0.24183 0.0
Co68 Co 0.88513 0.56111 0.2666 0.0
Co69 Co 0.84093 0.59582 0.29822 0.0
C70 C 0.85753 0.53729 0.31424 0.0
O71 O 0.87644 0.53528 0.29629 0.0
O72 O 0.8433 0.55919 0.31651 0.0
C73 C 0.91183 0.52687 0.2262 0.0
O74 O 0.88711 0.51691 0.22174 0.0
C75 C 0.83173 0.62399 0.34907 0.0
C76 C 0.78956 0.64055 0.34587 0.0
C77 C 0.81187 0.63827 0.36348 0.0
N78 N 0.82201 0.61839 0.32387 0.0
N79 N 0.79681 0.62848 0.3219 0.0
C80 C 0.8583 0.613 0.3602 0.0
H81 H 0.85439 0.60156 0.37956 0.0
H82 H 0.86854 0.59927 0.34512 0.0
H83 H 0.87227 0.63033 0.3652 0.0
C84 C 0.9182 0.61017 0.27574 0.0
N85 N 0.89486 0.59589 0.27922 0.0
N86 N 0.87604 0.61175 0.29045 0.0
C87 C 0.88683 0.63712 0.294 0.0
C88 C 0.91384 0.63689 0.28466 0.0
C89 C 0.94435 0.59797 0.26487 0.0
H90 H 0.94681 0.57664 0.2726 0.0
H91 H 0.96255 0.61022 0.27116 0.0
H92 H 0.94338 0.59727 0.24208 0.0
O93 O 0.85229 0.56404 0.24367 0.0
O94 O 0.81946 0.58868 0.26417 0.0
H95 H 0.87926 0.6808 0.29467 0.0
H96 H 0.87369 0.6634 0.32671 0.0
C97 C 0.87117 0.66165 0.30412 0.0
H98 H 0.84899 0.65952 0.29929 0.0
H99 H 0.78426 0.62629 0.30462 0.0
O100 O 0.91511 0.54558 0.24417 0.0
C101 C 0.82828 0.57451 0.2439 0.0
Co102 Co 0.4298 0.8945 0.23027 0.0
Co103 Co 0.40476 0.86152 0.28073 0.0
C104 C 0.46575 0.87065 0.27416 0.0
O105 O 0.46252 0.8835 0.25157 0.0
O106 O 0.4452 0.86198 0.28796 0.0
C107 C 0.46506 0.91966 0.19129 0.0
O108 O 0.48155 0.89992 0.19941 0.0
C109 C 0.39178 0.85985 0.33836 0.0
C110 C 0.35561 0.83246 0.3405 0.0
C111 C 0.3719 0.84992 0.35614 0.0
N112 N 0.38736 0.849 0.31336 0.0
N113 N 0.36606 0.83218 0.31481 0.0
C114 C 0.4121 0.88236 0.34383 0.0
H115 H 0.41816 0.89265 0.3244 0.0
H116 H 0.40341 0.89783 0.35823 0.0
H117 H 0.43079 0.87334 0.35335 0.0
C118 C 0.39435 0.93789 0.253 0.0
N119 N 0.40435 0.91208 0.25341 0.0
N120 N 0.39139 0.89768 0.27228 0.0
C121 C 0.37175 0.91376 0.28369 0.0
C122 C 0.37312 0.93981 0.27197 0.0
C123 C 0.40665 0.96066 0.23639 0.0
H124 H 0.42935 0.95839 0.23599 0.0
H125 H 0.40153 0.98117 0.24504 0.0
H126 H 0.39881 0.95939 0.21499 0.0
O127 O 0.41192 0.86104 0.21554 0.0
O128 O 0.39987 0.8351 0.24981 0.0
H129 H 0.34563 0.8821 0.30001 0.0
H130 H 0.33154 0.91636 0.30236 0.0
C131 C 0.35068 0.90398 0.30389 0.0
H132 H 0.35886 0.90617 0.32506 0.0
H133 H 0.35768 0.82184 0.29796 0.0
O134 O 0.44076 0.92038 0.2008 0.0
C135 C 0.41466 0.83844 0.22845 0.0
Co136 Co 0.13924 0.58316 0.73414 0.0
Co137 Co 0.17381 0.60687 0.68592 0.0
C138 C 0.15458 0.55019 0.68345 0.0
O139 O 0.14639 0.55236 0.7082 0.0
O140 O 0.16303 0.57105 0.67017 0.0
C141 C 0.09312 0.55539 0.75101 0.0
O142 O 0.09083 0.55405 0.72413 0.0
C143 C 0.18158 0.6271 0.63106 0.0
C144 C 0.21154 0.66079 0.63618 0.0
C145 C 0.19381 0.6488 0.61729 0.0
N146 N 0.19132 0.62648 0.6569 0.0
N147 N 0.20995 0.64608 0.65964 0.0
C148 C 0.15731 0.61051 0.62161 0.0
H149 H 0.14259 0.60758 0.63877 0.0
H150 H 0.14637 0.62039 0.60421 0.0
H151 H 0.16461 0.58994 0.61487 0.0
C152 C 0.10141 0.62857 0.71742 0.0
N153 N 0.12561 0.61496 0.7165 0.0
N154 N 0.14174 0.62667 0.69821 0.0
C155 C 0.12825 0.64841 0.68735 0.0
C156 C 0.10198 0.64979 0.69838 0.0
C157 C 0.07696 0.61953 0.73373 0.0
H158 H 0.08357 0.61146 0.75396 0.0
H159 H 0.06604 0.60318 0.72218 0.0
H160 H 0.06238 0.63672 0.7372 0.0
O161 O 0.174 0.59242 0.75183 0.0
O162 O 0.20014 0.59415 0.71482 0.0
H163 H 0.16166 0.67115 0.66962 0.0
H164 H 0.12853 0.68761 0.66676 0.0
C165 C 0.13948 0.66755 0.66604 0.0
H166 H 0.13633 0.65875 0.64529 0.0
H167 H 0.21969 0.65095 0.67814 0.0
O168 O 0.11315 0.56835 0.76156 0.0
C169 C 0.19674 0.58739 0.73993 0.0
Co170 Co 0.4189 0.13712 0.73334 0.0
Co171 Co 0.39353 0.18619 0.70008 0.0
C172 C 0.45182 0.16753 0.6916 0.0
O173 O 0.44918 0.14888 0.70969 0.0
O174 O 0.43165 0.18287 0.68483 0.0
C175 C 0.45356 0.10958 0.76886 0.0
O176 O 0.46362 0.13465 0.77009 0.0
C177 C 0.37182 0.20583 0.64864 0.0
C178 C 0.33935 0.235 0.66116 0.0
C179 C 0.35009 0.22129 0.63852 0.0
N180 N 0.3737 0.20998 0.67588 0.0
N181 N 0.35483 0.22819 0.68317 0.0
C182 C 0.38719 0.18363 0.63366 0.0
H183 H 0.40511 0.19296 0.62305 0.0
H184 H 0.39482 0.16783 0.64822 0.0
H185 H 0.37404 0.17366 0.61788 0.0
C186 C 0.3727 0.10698 0.70898 0.0
N187 N 0.38697 0.13024 0.71358 0.0
N188 N 0.37462 0.15117 0.70168 0.0
C189 C 0.35121 0.14182 0.68998 0.0
C190 C 0.34948 0.11353 0.69377 0.0
C191 C 0.38261 0.07892 0.71699 0.0
H192 H 0.37541 0.07428 0.73814 0.0
H193 H 0.40541 0.07826 0.71686 0.0
H194 H 0.37459 0.0629 0.70284 0.0
O195 O 0.41283 0.16629 0.7599 0.0
O196 O 0.39931 0.20343 0.73693 0.0
H197 H 0.3094 0.14959 0.67741 0.0
H198 H 0.33536 0.16233 0.65457 0.0
C199 C 0.32995 0.15949 0.67649 0.0
H200 H 0.32881 0.17976 0.68682 0.0
H201 H 0.35091 0.23401 0.70346 0.0
O202 O 0.43247 0.10511 0.75402 0.0
C203 C 0.40718 0.19181 0.7591 0.0
Co204 Co 0.89029 0.42637 0.75948 0.0
Co205 Co 0.84813 0.39419 0.72177 0.0
C206 C 0.85558 0.45462 0.71603 0.0
O207 O 0.87216 0.4551 0.73632 0.0
O208 O 0.84578 0.43207 0.70702 0.0
C209 C 0.92199 0.4692 0.78319 0.0
O210 O 0.90235 0.48438 0.77258 0.0
C211 C 0.82959 0.37399 0.6692 0.0
C212 C 0.8079 0.33536 0.67916 0.0
C213 C 0.81631 0.35182 0.65749 0.0
N214 N 0.82896 0.37111 0.69664 0.0
N215 N 0.81559 0.34818 0.70257 0.0
C216 C 0.84565 0.39577 0.6545 0.0
H217 H 0.86415 0.40144 0.6666 0.0
H218 H 0.852 0.38878 0.63371 0.0
H219 H 0.83254 0.41432 0.6522 0.0
C220 C 0.92956 0.38806 0.73469 0.0
N221 N 0.90413 0.39873 0.73689 0.0
N222 N 0.8864 0.38302 0.72369 0.0
C223 C 0.9003 0.36159 0.71263 0.0
C224 C 0.92802 0.36416 0.71924 0.0
C225 C 0.95412 0.39915 0.74961 0.0
H226 H 0.95048 0.39772 0.77209 0.0
H227 H 0.9568 0.42123 0.74443 0.0
H228 H 0.97319 0.38771 0.74451 0.0
O229 O 0.86388 0.40619 0.78202 0.0
O230 O 0.82769 0.39769 0.75769 0.0
H231 H 0.86933 0.33089 0.70663 0.0
H232 H 0.90213 0.32246 0.69114 0.0
C233 C 0.88744 0.33933 0.69567 0.0
H234 H 0.8804 0.34813 0.67587 0.0
H235 H 0.81282 0.34067 0.72248 0.0
O236 O 0.92035 0.44316 0.78139 0.0
C237 C 0.83878 0.41115 0.77723 0.0
Co238 Co 0.57522 0.89898 0.75873 0.0
Co239 Co 0.58922 0.85747 0.71164 0.0
C240 C 0.54404 0.89447 0.70363 0.0
O241 O 0.54781 0.90291 0.72815 0.0
O242 O 0.56051 0.87757 0.69236 0.0
C243 C 0.54247 0.93463 0.78749 0.0
O244 O 0.525 0.91574 0.77926 0.0
C245 C 0.60067 0.82735 0.6604 0.0
C246 C 0.63903 0.80534 0.67085 0.0
C247 C 0.62123 0.81095 0.64932 0.0
N248 N 0.60599 0.83121 0.6873 0.0
N249 N 0.62865 0.81749 0.69352 0.0
C250 C 0.57875 0.84247 0.64491 0.0
H251 H 0.58297 0.86488 0.64581 0.0
H252 H 0.57767 0.83617 0.62304 0.0
H253 H 0.55857 0.83859 0.65478 0.0
C254 C 0.63126 0.91683 0.74939 0.0
N255 N 0.61095 0.89861 0.7455 0.0
N256 N 0.61627 0.88329 0.72393 0.0
C257 C 0.63942 0.89273 0.71196 0.0
C258 C 0.64996 0.91438 0.72782 0.0
C259 C 0.63168 0.93667 0.77298 0.0
H260 H 0.62333 0.92657 0.79166 0.0
H261 H 0.61823 0.9545 0.76819 0.0
H262 H 0.65289 0.944 0.77719 0.0
O263 O 0.56734 0.8651 0.77773 0.0
O264 O 0.56671 0.83822 0.74088 0.0
H265 H 0.66371 0.86884 0.68403 0.0
H266 H 0.65583 0.90303 0.67186 0.0
C267 C 0.64763 0.88505 0.68323 0.0
H268 H 0.62971 0.87703 0.67171 0.0
H269 H 0.63802 0.81791 0.71283 0.0
O270 O 0.56791 0.93106 0.78263 0.0
C271 C 0.55929 0.84342 0.76555 0.0
Co272 Co 0.25044 0.14398 0.41388 0.0
Co273 Co 0.30399 0.1779 0.39732 0.0
C274 C 0.29556 0.16099 0.45471 0.0
O275 O 0.2725 0.15046 0.44799 0.0
O276 O 0.31119 0.17186 0.43679 0.0
C277 C 0.23342 0.09501 0.43369 0.0
O278 O 0.26041 0.09377 0.43447 0.0
C279 C 0.36186 0.19053 0.38854 0.0
C280 C 0.36206 0.20197 0.34467 0.0
C281 C 0.37931 0.19442 0.36615 0.0
N282 N 0.33572 0.19363 0.38007 0.0
N283 N 0.33603 0.20166 0.35414 0.0
C284 C 0.36953 0.18406 0.41763 0.0
H285 H 0.35686 0.19674 0.43174 0.0
H286 H 0.36523 0.16205 0.42196 0.0
H287 H 0.3915 0.18869 0.42172 0.0
C288 C 0.27071 0.10735 0.36977 0.0
N289 N 0.27292 0.12994 0.38573 0.0
N290 N 0.2959 0.14303 0.37966 0.0
C291 C 0.3097 0.12792 0.36074 0.0
C292 C 0.294 0.10523 0.35383 0.0
C293 C 0.24626 0.08875 0.36839 0.0
H294 H 0.2274 0.09963 0.37516 0.0
H295 H 0.24995 0.07058 0.38162 0.0
H296 H 0.24332 0.08111 0.34706 0.0
O297 O 0.23647 0.17898 0.39955 0.0
O298 O 0.27253 0.20505 0.39637 0.0
H299 H 0.33765 0.1501 0.33532 0.0
H300 H 0.34751 0.11501 0.34112 0.0
C301 C 0.33827 0.1335 0.35089 0.0
H302 H 0.35137 0.13983 0.36839 0.0
H303 H 0.3184 0.20432 0.34216 0.0
O304 O 0.22199 0.11674 0.42464 0.0
C305 C 0.24951 0.20002 0.40789 0.0
Co306 Co 0.88657 0.24585 0.4407 0.0
Co307 Co 0.84301 0.28267 0.40992 0.0
C308 C 0.85502 0.29084 0.4694 0.0
O309 O 0.87066 0.26979 0.47014 0.0
O310 O 0.84472 0.2993 0.44688 0.0
C311 C 0.91922 0.21953 0.48156 0.0
O312 O 0.90223 0.2324 0.49814 0.0
C313 C 0.83254 0.33505 0.38507 0.0
C314 C 0.7916 0.33108 0.36583 0.0
C315 C 0.81286 0.34948 0.37055 0.0
N316 N 0.82373 0.30912 0.38851 0.0
N317 N 0.79924 0.30674 0.3769 0.0
C318 C 0.85804 0.34658 0.39802 0.0
H319 H 0.85268 0.36503 0.41042 0.0
H320 H 0.86833 0.33115 0.41125 0.0
H321 H 0.87264 0.35323 0.38183 0.0
C322 C 0.92322 0.26673 0.39857 0.0
N323 N 0.89894 0.26704 0.41168 0.0
N324 N 0.87998 0.27808 0.39574 0.0
C325 C 0.89186 0.28505 0.37162 0.0
C326 C 0.91955 0.278 0.37267 0.0
C327 C 0.949 0.25471 0.41039 0.0
H328 H 0.94969 0.25839 0.4329 0.0
H329 H 0.96754 0.26381 0.40067 0.0
H330 H 0.94912 0.23215 0.40678 0.0
O331 O 0.85837 0.22445 0.42138 0.0
O332 O 0.82106 0.24831 0.41815 0.0
H333 H 0.88595 0.28728 0.32779 0.0
H334 H 0.87808 0.31822 0.34624 0.0
C335 C 0.87663 0.29547 0.34698 0.0
H336 H 0.85467 0.28942 0.34794 0.0
H337 H 0.78747 0.28879 0.37716 0.0
O338 O 0.91648 0.22224 0.4557 0.0
C339 C 0.83383 0.22821 0.42907 0.0
Co340 Co 0.72876 0.85846 0.4304 0.0
Co341 Co 0.69167 0.81511 0.39919 0.0
C342 C 0.68242 0.82736 0.45825 0.0
O343 O 0.70365 0.84272 0.45852 0.0
O344 O 0.67363 0.81658 0.43598 0.0
C345 C 0.74807 0.8954 0.47089 0.0
O346 O 0.7298 0.88212 0.48564 0.0
C347 C 0.64173 0.8004 0.37056 0.0
C348 C 0.65677 0.77306 0.33754 0.0
C349 C 0.63364 0.78718 0.34658 0.0
N350 N 0.66839 0.79476 0.37512 0.0
N351 N 0.67707 0.77764 0.35584 0.0
C352 C 0.6259 0.82179 0.38623 0.0
H353 H 0.63996 0.83509 0.3983 0.0
H354 H 0.61344 0.83477 0.37218 0.0
H355 H 0.6116 0.81133 0.4006 0.0
C356 C 0.70513 0.89604 0.38958 0.0
N357 N 0.70822 0.8709 0.40068 0.0
N358 N 0.69624 0.8523 0.38502 0.0
C359 C 0.6858 0.86528 0.36275 0.0
C360 C 0.69071 0.89336 0.36513 0.0
C361 C 0.71454 0.92207 0.40311 0.0
H362 H 0.7365 0.92559 0.39796 0.0
H363 H 0.71273 0.92019 0.42577 0.0
H364 H 0.70233 0.94004 0.39609 0.0
O365 O 0.75156 0.82978 0.41423 0.0
O366 O 0.72616 0.79389 0.40743 0.0
H367 H 0.68207 0.83041 0.33575 0.0
H368 H 0.67702 0.86334 0.31938 0.0
C369 C 0.67324 0.85125 0.33838 0.0
H370 H 0.65069 0.84975 0.34115 0.0
H371 H 0.6974 0.77103 0.35385 0.0
O372 O 0.75176 0.8884 0.44598 0.0
C373 C 0.74554 0.80533 0.42077 0.0
Co374 Co 0.11207 0.75827 0.4066 0.0
Co375 Co 0.14079 0.70313 0.39012 0.0
C376 C 0.11548 0.70595 0.44263 0.0
O377 O 0.11173 0.7313 0.43728 0.0
O378 O 0.12364 0.68944 0.42404 0.0
C379 C 0.06076 0.77365 0.42111 0.0
O380 O 0.0586 0.74746 0.41468 0.0
C381 C 0.15942 0.64686 0.38076 0.0
C382 C 0.16478 0.6462 0.33577 0.0
C383 C 0.16257 0.62896 0.35846 0.0
N384 N 0.15809 0.67284 0.37133 0.0
N385 N 0.16242 0.67239 0.34453 0.0
C386 C 0.15908 0.64015 0.41077 0.0
H387 H 0.16718 0.65781 0.42278 0.0
H388 H 0.13763 0.63616 0.41744 0.0
H389 H 0.17202 0.62183 0.41512 0.0
C390 C 0.08343 0.74955 0.35431 0.0
N391 N 0.10319 0.74296 0.37251 0.0
N392 N 0.11302 0.71845 0.36673 0.0
C393 C 0.0982 0.70784 0.34575 0.0
C394 C 0.07929 0.72743 0.33699 0.0
C395 C 0.06708 0.77568 0.35458 0.0
H396 H 0.07843 0.7922 0.36547 0.0
H397 H 0.04701 0.77211 0.36482 0.0
H398 H 0.06267 0.78226 0.33316 0.0
O399 O 0.14938 0.77181 0.40601 0.0
O400 O 0.1685 0.73016 0.40589 0.0
H401 H 0.11119 0.67499 0.31957 0.0
H402 H 0.07696 0.6711 0.33255 0.0
C403 C 0.09803 0.678 0.33797 0.0
H404 H 0.10587 0.66517 0.3551 0.0
H405 H 0.16132 0.6897 0.33189 0.0
O406 O 0.08397 0.78541 0.4184 0.0
C407 C 0.16945 0.75587 0.41161 0.0
Co408 Co 0.23754 0.90392 0.55734 0.0
Co409 Co 0.28751 0.88052 0.59061 0.0
C410 C 0.29438 0.90093 0.53334 0.0
O411 O 0.2689 0.90654 0.53137 0.0
O412 O 0.30451 0.89155 0.55553 0.0
C413 C 0.20433 0.92079 0.5136 0.0
O414 O 0.21773 0.90064 0.50146 0.0
C415 C 0.34106 0.8847 0.61628 0.0
C416 C 0.34199 0.84974 0.64527 0.0
C417 C 0.35705 0.87208 0.63606 0.0
N418 N 0.31731 0.87078 0.61405 0.0
N419 N 0.318 0.84976 0.63129 0.0
C420 C 0.34861 0.90902 0.59894 0.0
H421 H 0.36022 0.90165 0.58072 0.0
H422 H 0.3299 0.91993 0.59176 0.0
H423 H 0.36199 0.92355 0.61031 0.0
C424 C 0.23814 0.94463 0.60133 0.0
N425 N 0.24608 0.92009 0.59134 0.0
N426 N 0.26672 0.91056 0.60599 0.0
C427 C 0.2723 0.92898 0.62613 0.0
C428 C 0.25515 0.9518 0.62313 0.0
C429 C 0.21692 0.9625 0.58789 0.0
H430 H 0.19771 0.95055 0.58495 0.0
H431 H 0.22438 0.969 0.56732 0.0
H432 H 0.21233 0.98099 0.60052 0.0
O433 O 0.22864 0.86505 0.56056 0.0
O434 O 0.26548 0.84703 0.58089 0.0
H435 H 0.30047 0.90489 0.65028 0.0
H436 H 0.29111 0.93698 0.66551 0.0
C437 C 0.29593 0.92671 0.64576 0.0
H438 H 0.31427 0.93694 0.63693 0.0
H439 H 0.30203 0.83564 0.63372 0.0
O440 O 0.20734 0.92415 0.53931 0.0
C441 C 0.2424 0.84428 0.56866 0.0
Co442 Co 0.12819 0.23317 0.58934 0.0
Co443 Co 0.16334 0.28192 0.61285 0.0
C444 C 0.13869 0.28428 0.55697 0.0
O445 O 0.12936 0.25993 0.55866 0.0
O446 O 0.15095 0.29574 0.57695 0.0
C447 C 0.09788 0.19871 0.55352 0.0
O448 O 0.11543 0.20833 0.53539 0.0
C449 C 0.1724 0.33907 0.62627 0.0
C450 C 0.2063 0.33865 0.65646 0.0
C451 C 0.18868 0.35596 0.64223 0.0
N452 N 0.18008 0.31284 0.6304 0.0
N453 N 0.20044 0.31265 0.64847 0.0
C454 C 0.1484 0.34773 0.60897 0.0
H455 H 0.13213 0.33175 0.60937 0.0
H456 H 0.13961 0.3675 0.61636 0.0
H457 H 0.1554 0.35057 0.58744 0.0
C458 C 0.09329 0.24806 0.63623 0.0
N459 N 0.11727 0.24981 0.62251 0.0
N460 N 0.13252 0.26927 0.63344 0.0
C461 C 0.11876 0.28032 0.65489 0.0
C462 C 0.09335 0.26742 0.65725 0.0
C463 C 0.06929 0.23152 0.62619 0.0
H464 H 0.0744 0.20931 0.6276 0.0
H465 H 0.06538 0.2364 0.60424 0.0
H466 H 0.05027 0.23561 0.63806 0.0
O467 O 0.16493 0.21705 0.59146 0.0
O468 O 0.19088 0.25322 0.60189 0.0
H469 H 0.11733 0.30561 0.69139 0.0
H470 H 0.12534 0.32353 0.66002 0.0
C471 C 0.12868 0.30419 0.67162 0.0
H472 H 0.15096 0.30195 0.6759 0.0
H473 H 0.21015 0.29483 0.6555 0.0
O474 O 0.10097 0.20502 0.57868 0.0
C475 C 0.18839 0.22866 0.5928 0.0
Co476 Co 0.76267 0.11951 0.58081 0.0
Co477 Co 0.71501 0.15152 0.61036 0.0
C478 C 0.71142 0.14155 0.5516 0.0
O479 O 0.7352 0.13059 0.55228 0.0
O480 O 0.69957 0.14948 0.57345 0.0
C481 C 0.76812 0.07089 0.55621 0.0
O482 O 0.74193 0.07339 0.56245 0.0
C483 C 0.66144 0.17207 0.62918 0.0
C484 C 0.66915 0.18181 0.67287 0.0
C485 C 0.64883 0.18149 0.65291 0.0
N486 N 0.68818 0.16743 0.6346 0.0
N487 N 0.69271 0.1735 0.66073 0.0
C488 C 0.64761 0.16443 0.60275 0.0
H489 H 0.65409 0.17912 0.58656 0.0
H490 H 0.65397 0.14339 0.59656 0.0
H491 H 0.62488 0.16483 0.60445 0.0
C492 C 0.75341 0.08149 0.62591 0.0
N493 N 0.74743 0.10504 0.61289 0.0
N494 N 0.72476 0.11562 0.62287 0.0
C495 C 0.71381 0.09749 0.64081 0.0
C496 C 0.73175 0.07497 0.64342 0.0
C497 C 0.78096 0.06768 0.62383 0.0
H498 H 0.79694 0.08296 0.61814 0.0
H499 H 0.78061 0.05165 0.60765 0.0
H500 H 0.78656 0.05784 0.64365 0.0
O501 O 0.78262 0.1519 0.59039 0.0
O502 O 0.74767 0.17732 0.60607 0.0
H503 H 0.6866 0.10906 0.67339 0.0
H504 H 0.67481 0.08024 0.65307 0.0
C505 C 0.68537 0.10045 0.65228 0.0
H506 H 0.673 0.1146 0.6394 0.0
H507 H 0.71168 0.17112 0.6705 0.0
O508 O 0.7845 0.09029 0.56247 0.0
C509 C 0.77283 0.17479 0.59862 0.0
Co510 Co 0.87734 0.75279 0.57241 0.0
Co511 Co 0.84579 0.71028 0.60965 0.0
C512 C 0.85626 0.6997 0.54978 0.0
O513 O 0.86984 0.72189 0.54702 0.0
O514 O 0.84613 0.6928 0.57288 0.0
C515 C 0.8975 0.78179 0.52653 0.0
O516 O 0.87623 0.76991 0.51483 0.0
C517 C 0.83324 0.6562 0.63248 0.0
C518 C 0.81601 0.666 0.67337 0.0
C519 C 0.82298 0.64434 0.65619 0.0
N520 N 0.83222 0.6837 0.63526 0.0
N521 N 0.82166 0.68946 0.65967 0.0
C522 C 0.84621 0.64157 0.60863 0.0
H523 H 0.86458 0.65302 0.60148 0.0
H524 H 0.85238 0.6203 0.61418 0.0
H525 H 0.8312 0.64058 0.59148 0.0
C526 C 0.92094 0.74214 0.61193 0.0
N527 N 0.89439 0.74031 0.60456 0.0
N528 N 0.88193 0.72203 0.6201 0.0
C529 C 0.90054 0.71149 0.63787 0.0
C530 C 0.92595 0.72373 0.6331 0.0
C531 C 0.94207 0.75784 0.59595 0.0
H532 H 0.93526 0.77951 0.59363 0.0
H533 H 0.94406 0.74874 0.57509 0.0
H534 H 0.96241 0.75746 0.60632 0.0
O535 O 0.842 0.77025 0.57952 0.0
O536 O 0.81846 0.74066 0.60515 0.0
H537 H 0.87716 0.69054 0.66867 0.0
H538 H 0.91338 0.68236 0.66903 0.0
C539 C 0.89547 0.68686 0.65561 0.0
H540 H 0.89141 0.66871 0.64241 0.0
H541 H 0.819 0.70938 0.66726 0.0
O542 O 0.90139 0.77853 0.55217 0.0
C543 C 0.81982 0.76296 0.59136 0.0
Co544 Co 0.43434 0.2506 0.11891 0.0
Co545 Co 0.4036 0.29792 0.1497 0.0
C546 C 0.46028 0.30594 0.12872 0.0
O547 O 0.46133 0.2812 0.12009 0.0
O548 O 0.43856 0.31576 0.13956 0.0
C549 C 0.47414 0.21268 0.0996 0.0
O550 O 0.48865 0.22296 0.11993 0.0
C551 C 0.37894 0.35205 0.15611 0.0
C552 C 0.34153 0.34308 0.1802 0.0
C553 C 0.35493 0.36378 0.16593 0.0
N554 N 0.37974 0.32558 0.1641 0.0
N555 N 0.35768 0.32053 0.17917 0.0
C556 C 0.39886 0.36469 0.13628 0.0
H557 H 0.41798 0.36999 0.14753 0.0
H558 H 0.40424 0.34977 0.11987 0.0
H559 H 0.39051 0.38368 0.12676 0.0
C560 C 0.38872 0.25609 0.08096 0.0
N561 N 0.40025 0.26162 0.10542 0.0
N562 N 0.38684 0.28172 0.11757 0.0
C563 C 0.36627 0.28987 0.10062 0.0
C564 C 0.36716 0.27423 0.07662 0.0
C565 C 0.40062 0.2364 0.06042 0.0
H566 H 0.40356 0.21602 0.07025 0.0
H567 H 0.42103 0.24398 0.05355 0.0
H568 H 0.38697 0.23394 0.04227 0.0
O569 O 0.43143 0.23634 0.15564 0.0
O570 O 0.415 0.27147 0.17974 0.0
H571 H 0.34065 0.31496 0.12624 0.0
H572 H 0.33129 0.31551 0.09046 0.0
C573 C 0.34884 0.31489 0.10502 0.0
H574 H 0.36141 0.3336 0.10183 0.0
H575 H 0.35263 0.30117 0.18694 0.0
O576 O 0.4499 0.22152 0.09561 0.0
C577 C 0.42604 0.24762 0.17858 0.0
Co578 Co 0.40449 0.74376 0.88585 0.0
Co579 Co 0.38446 0.69762 0.84544 0.0
C580 C 0.43845 0.69377 0.87404 0.0
O581 O 0.43389 0.71591 0.88707 0.0
O582 O 0.42107 0.68438 0.85703 0.0
C583 C 0.41889 0.75716 0.93842 0.0
O584 O 0.41204 0.73108 0.94044 0.0
C585 C 0.36936 0.64139 0.83696 0.0
C586 C 0.35354 0.63981 0.79441 0.0
C587 C 0.35938 0.62366 0.81716 0.0
N588 N 0.36923 0.66698 0.82667 0.0
N589 N 0.35969 0.66604 0.80122 0.0
C590 C 0.38174 0.63385 0.86418 0.0
H591 H 0.40257 0.62513 0.86071 0.0
H592 H 0.38351 0.65223 0.87761 0.0
H593 H 0.36926 0.61801 0.87476 0.0
C594 C 0.34992 0.73446 0.91032 0.0
N595 N 0.3693 0.72901 0.89134 0.0
N596 N 0.36117 0.70841 0.87572 0.0
C597 C 0.33673 0.69934 0.88544 0.0
C598 C 0.32893 0.7155 0.9077 0.0
C599 C 0.35193 0.75653 0.93175 0.0
H600 H 0.36494 0.77369 0.92439 0.0
H601 H 0.36072 0.74775 0.95089 0.0
H602 H 0.33126 0.7648 0.93678 0.0
O603 O 0.40562 0.76094 0.84982 0.0
O604 O 0.39193 0.72892 0.81979 0.0
H605 H 0.3217 0.67517 0.85168 0.0
H606 H 0.29942 0.67572 0.88148 0.0
C607 C 0.32115 0.67519 0.87446 0.0
H608 H 0.33066 0.65593 0.88211 0.0
H609 H 0.35809 0.6831 0.7883 0.0
O610 O 0.41589 0.76926 0.91545 0.0
C611 C 0.4005 0.75314 0.82531 0.0
Co612 Co 0.25726 0.41435 0.87602 0.0
Co613 Co 0.29169 0.3798 0.83382 0.0
C614 C 0.31084 0.43445 0.85785 0.0
O615 O 0.29073 0.43639 0.87442 0.0
O616 O 0.3131 0.414 0.84159 0.0
C617 C 0.22997 0.45772 0.90051 0.0
O618 O 0.24137 0.46987 0.87923 0.0
C619 C 0.34265 0.35143 0.82361 0.0
C620 C 0.33167 0.31987 0.79283 0.0
C621 C 0.35291 0.3288 0.80966 0.0
N622 N 0.31657 0.35565 0.81554 0.0
N623 N 0.31028 0.33719 0.79658 0.0
C624 C 0.35565 0.36591 0.84755 0.0
H625 H 0.33967 0.37277 0.86234 0.0
H626 H 0.37054 0.35241 0.85839 0.0
H627 H 0.36677 0.38432 0.83994 0.0
C628 C 0.26695 0.36613 0.90992 0.0
N629 N 0.26587 0.37812 0.88503 0.0
N630 N 0.27839 0.36254 0.86682 0.0
C631 C 0.28636 0.33915 0.87947 0.0
C632 C 0.28051 0.34105 0.90742 0.0
C633 C 0.2605 0.38137 0.93594 0.0
H634 H 0.23803 0.38537 0.93684 0.0
H635 H 0.27101 0.40164 0.9357 0.0
H636 H 0.26674 0.36984 0.95458 0.0
O637 O 0.2404 0.41859 0.83962 0.0
O638 O 0.26242 0.39298 0.80882 0.0
H639 H 0.29418 0.31346 0.84434 0.0
H640 H 0.29763 0.2964 0.8772 0.0
C641 C 0.3013 0.31587 0.86585 0.0
H642 H 0.32372 0.31977 0.86602 0.0
H643 H 0.29087 0.33524 0.78764 0.0
O644 O 0.23308 0.43192 0.9035 0.0
C645 C 0.24399 0.41065 0.81491 0.0
Co646 Co 0.57318 0.21671 0.89026 0.0
Co647 Co 0.59132 0.26505 0.85053 0.0
C648 C 0.53247 0.25779 0.86762 0.0
O649 O 0.53831 0.23611 0.88117 0.0
O650 O 0.55106 0.27154 0.85526 0.0
C651 C 0.54236 0.18006 0.92428 0.0
O652 O 0.52217 0.18655 0.90754 0.0
C653 C 0.6004 0.32267 0.83861 0.0
C654 C 0.63538 0.32174 0.80961 0.0
C655 C 0.61866 0.33941 0.82456 0.0
N656 N 0.60614 0.29636 0.8324 0.0
N657 N 0.62667 0.2959 0.81459 0.0
C658 C 0.58045 0.33114 0.86054 0.0
H659 H 0.57725 0.31413 0.87539 0.0
H660 H 0.58787 0.34964 0.87169 0.0
H661 H 0.56041 0.33616 0.85081 0.0
C662 C 0.61068 0.2452 0.92798 0.0
N663 N 0.59836 0.24263 0.90335 0.0
N664 N 0.60837 0.26104 0.88616 0.0
C665 C 0.62809 0.27549 0.8994 0.0
C666 C 0.62992 0.26602 0.92625 0.0
C667 C 0.6047 0.22735 0.95232 0.0
H668 H 0.61105 0.20593 0.9476 0.0
H669 H 0.58223 0.2273 0.95637 0.0
H670 H 0.6158 0.23442 0.97097 0.0
O671 O 0.59088 0.20048 0.8576 0.0
O672 O 0.59455 0.23176 0.82624 0.0
H673 H 0.65021 0.2932 0.86561 0.0
H674 H 0.66347 0.3025 0.89903 0.0
C675 C 0.6445 0.2984 0.88704 0.0
H676 H 0.63198 0.31746 0.88704 0.0
H677 H 0.63574 0.27792 0.80707 0.0
O678 O 0.56633 0.18916 0.91935 0.0
C679 C 0.58362 0.20933 0.83415 0.0
Co680 Co 0.7391 0.55005 0.88638 0.0
Co681 Co 0.6954 0.58292 0.8522 0.0
C682 C 0.68796 0.5231 0.869 0.0
O683 O 0.71063 0.52168 0.88198 0.0
O684 O 0.68026 0.54524 0.85731 0.0
C685 C 0.77768 0.51157 0.90946 0.0
O686 O 0.76675 0.49382 0.89224 0.0
C687 C 0.64108 0.60578 0.85357 0.0
C688 C 0.63904 0.63377 0.81788 0.0
C689 C 0.62419 0.62447 0.84038 0.0
N690 N 0.66496 0.60422 0.83983 0.0
N691 N 0.66361 0.62075 0.81829 0.0
C692 C 0.6345 0.58893 0.87853 0.0
H693 H 0.62197 0.57096 0.87214 0.0
H694 H 0.6536 0.58132 0.88841 0.0
H695 H 0.62233 0.60082 0.89369 0.0
C696 C 0.7301 0.59512 0.92539 0.0
N697 N 0.72527 0.58275 0.90113 0.0
N698 N 0.7087 0.59808 0.88623 0.0
C699 C 0.70305 0.62132 0.9005 0.0
C700 C 0.71616 0.61998 0.92589 0.0
C701 C 0.74821 0.58338 0.94737 0.0
H702 H 0.76954 0.58178 0.93941 0.0
H703 H 0.74116 0.56231 0.95259 0.0
H704 H 0.74842 0.59635 0.96615 0.0
O705 O 0.75481 0.55709 0.85036 0.0
O706 O 0.72509 0.57967 0.82378 0.0
H707 H 0.68488 0.64538 0.86813 0.0
H708 H 0.68985 0.66381 0.89991 0.0
C709 C 0.68421 0.64368 0.89083 0.0
H710 H 0.66297 0.63885 0.89748 0.0
H711 H 0.67963 0.62366 0.8043 0.0
O712 O 0.7688 0.53614 0.91002 0.0
C713 C 0.7484 0.56819 0.82758 0.0
Co714 Co 0.57652 0.73563 0.12224 0.0
Co715 Co 0.60918 0.70088 0.1658 0.0
C716 C 0.5527 0.68496 0.14731 0.0
O717 O 0.55166 0.70529 0.13094 0.0
O718 O 0.57406 0.67999 0.16163 0.0
C719 C 0.53351 0.76262 0.09686 0.0
O720 O 0.52185 0.75464 0.11989 0.0
C721 C 0.63793 0.65099 0.18069 0.0
C722 C 0.66996 0.66541 0.20947 0.0
C723 C 0.66099 0.64241 0.19511 0.0
N724 N 0.63357 0.67776 0.18611 0.0
N725 N 0.65237 0.68615 0.20387 0.0
C726 C 0.62284 0.63533 0.15881 0.0
H727 H 0.60581 0.62364 0.16849 0.0
H728 H 0.61397 0.64963 0.14341 0.0
H729 H 0.63663 0.6205 0.14823 0.0
C730 C 0.62443 0.72443 0.0884 0.0
N731 N 0.61123 0.72321 0.11261 0.0
N732 N 0.62588 0.70917 0.13052 0.0
C733 C 0.64943 0.70121 0.1179 0.0
C734 C 0.64917 0.71057 0.0909 0.0
C735 C 0.61176 0.7358 0.06272 0.0
H736 H 0.60956 0.75843 0.06488 0.0
H737 H 0.59085 0.72705 0.06006 0.0
H738 H 0.62419 0.73116 0.04417 0.0
O739 O 0.57788 0.75832 0.15468 0.0
O740 O 0.59826 0.73451 0.18787 0.0
H741 H 0.67498 0.69111 0.15244 0.0
H742 H 0.69145 0.68698 0.11941 0.0
C743 C 0.67184 0.68455 0.13087 0.0
H744 H 0.66615 0.66249 0.1304 0.0
H745 H 0.65431 0.70643 0.21067 0.0
O746 O 0.55879 0.75729 0.09289 0.0
C747 C 0.58523 0.75583 0.17962 0.0
Co748 Co 0.23976 0.58246 0.11307 0.0
Co749 Co 0.29174 0.5996 0.14721 0.0
C750 C 0.29199 0.54757 0.11773 0.0
O751 O 0.26744 0.55261 0.11034 0.0
O752 O 0.30568 0.56511 0.13136 0.0
C753 C 0.22608 0.57039 0.0604 0.0
O754 O 0.25184 0.57846 0.05884 0.0
C755 C 0.34826 0.61196 0.16289 0.0
C756 C 0.34341 0.6445 0.19427 0.0
C757 C 0.36285 0.6291 0.18022 0.0
N758 N 0.32127 0.61652 0.16674 0.0
N759 N 0.31846 0.63586 0.18571 0.0
C760 C 0.35989 0.5934 0.14117 0.0
H761 H 0.34737 0.59477 0.12216 0.0
H762 H 0.38151 0.59877 0.13622 0.0
H763 H 0.35931 0.57186 0.14869 0.0
C764 C 0.24805 0.63742 0.08932 0.0
N765 N 0.25439 0.61778 0.10772 0.0
N766 N 0.27779 0.62396 0.11975 0.0
C767 C 0.28796 0.64687 0.10787 0.0
C768 C 0.26942 0.65613 0.08811 0.0
C769 C 0.22343 0.63684 0.07082 0.0
H770 H 0.20701 0.62373 0.07962 0.0
H771 H 0.2295 0.62902 0.05025 0.0
H772 H 0.21529 0.658 0.06799 0.0
O773 O 0.22484 0.57906 0.14983 0.0
O774 O 0.26306 0.58657 0.17395 0.0
H775 H 0.31797 0.66414 0.13494 0.0
H776 H 0.32067 0.676 0.09985 0.0
C777 C 0.3162 0.65793 0.11307 0.0
H778 H 0.33163 0.64157 0.10914 0.0
H779 H 0.29955 0.64362 0.1923 0.0
O780 O 0.21386 0.57171 0.08351 0.0
C781 C 0.23799 0.57873 0.17252 0.0
Co782 Co 0.76702 0.41808 0.11598 0.0
Co783 Co 0.71821 0.40096 0.15538 0.0
C784 C 0.72921 0.46002 0.14174 0.0
O785 O 0.7507 0.45363 0.12812 0.0
O786 O 0.71376 0.44162 0.15225 0.0
C787 C 0.80688 0.44797 0.08463 0.0
O788 O 0.80178 0.46723 0.10286 0.0
C789 C 0.66024 0.39295 0.16381 0.0
C790 C 0.65838 0.35931 0.19427 0.0
C791 C 0.64219 0.37553 0.17725 0.0
N792 N 0.68586 0.38726 0.17235 0.0
N793 N 0.68466 0.36753 0.191 0.0
C794 C 0.65386 0.41186 0.14033 0.0
H795 H 0.67253 0.41582 0.12785 0.0
H796 H 0.63757 0.403 0.12701 0.0
H797 H 0.6463 0.43176 0.14863 0.0
C798 C 0.73692 0.38359 0.07711 0.0
N799 N 0.73938 0.3957 0.10181 0.0
N800 N 0.72148 0.385 0.11908 0.0
C801 C 0.70735 0.36508 0.10574 0.0
C802 C 0.71674 0.36357 0.07877 0.0
C803 C 0.75335 0.39157 0.05238 0.0
H804 H 0.75618 0.41422 0.05207 0.0
H805 H 0.74305 0.38512 0.03306 0.0
H806 H 0.7739 0.38166 0.05351 0.0
O807 O 0.78079 0.3961 0.14704 0.0
O808 O 0.75109 0.39657 0.18012 0.0
H809 H 0.68602 0.32619 0.10807 0.0
H810 H 0.66619 0.35577 0.11803 0.0
C811 C 0.68691 0.34626 0.11897 0.0
H812 H 0.69247 0.34264 0.14075 0.0
H813 H 0.70186 0.35857 0.20023 0.0
O814 O 0.79527 0.42468 0.0872 0.0
C815 C 0.77447 0.40407 0.17106 0.0
H816 H 0.93366 0.32405 0.3443 0.0
H817 H 0.95256 0.23734 0.35279 0.0
H818 H 0.9924 0.24276 0.32172 0.0
H819 H 0.95791 0.33133 0.27041 0.0
H820 H 0.9717 0.36509 0.27723 0.0
H821 H 0.94169 0.3533 0.29556 0.0
H822 H 0.96624 0.36294 0.34185 0.0
H823 H 0.99628 0.37456 0.32378 0.0
H824 H -0.00084 0.34715 0.34858 0.0
H825 H 0.03426 0.25904 0.29758 0.0
H826 H 0.07452 0.28502 0.28029 0.0
H827 H 0.02808 0.36089 0.28609 0.0
C828 C 0.94566 0.3061 0.3387 0.0
C829 C 0.9403 0.28032 0.35076 0.0
C830 C 0.95664 0.25728 0.34375 0.0
C831 C 0.97912 0.26014 0.32599 0.0
C832 C 0.98464 0.2861 0.31522 0.0
C833 C 0.96819 0.30865 0.321 0.0
C834 C 0.98038 0.33482 0.30939 0.0
C835 C 0.96181 0.34684 0.2868 0.0
C836 C 0.98585 0.35609 0.33227 0.0
C837 C 0.00691 0.32368 0.29746 0.0
C838 C 0.00879 0.29546 0.30065 0.0
C839 C 0.03273 0.28099 0.29415 0.0
C840 C 0.05545 0.29581 0.28445 0.0
C841 C 0.05389 0.32465 0.28132 0.0
C842 C 0.02925 0.33867 0.28743 0.0
H843 H 0.71765 0.93824 0.34384 0.0
H844 H 0.63773 0.89892 0.34858 0.0
H845 H 0.6171 0.93747 0.32282 0.0
H846 H 0.69399 0.00609 0.35474 0.0
H847 H 0.71766 0.02214 0.33116 0.0
H848 H 0.72687 0.99033 0.34778 0.0
H849 H 0.73551 0.96765 0.30029 0.0
H850 H 0.72646 -0.00054 0.2835 0.0
H851 H 0.70867 0.96813 0.2747 0.0
H852 H 0.60429 0.98171 0.30125 0.0
H853 H 0.60015 0.02854 0.28245 0.0
H854 H 0.68845 0.03942 0.28941 0.0
C855 C 0.69588 0.93771 0.33911 0.0
C856 C 0.67924 0.91559 0.3479 0.0
C857 C 0.65086 0.91546 0.34153 0.0
C858 C 0.63895 0.93732 0.32707 0.0
C859 C 0.65578 0.95904 0.31903 0.0
C860 C 0.68366 0.95939 0.32457 0.0
C861 C 0.69678 0.98583 0.31448 0.0
C862 C 0.70957 0.00205 0.33847 0.0
C863 C 0.71812 0.9799 0.2919 0.0
C864 C 0.67178 0.0005 0.30293 0.0
C865 C 0.6484 0.98458 0.30581 0.0
C866 C 0.6225 0.99415 0.29831 0.0
C867 C 0.62039 0.02071 0.28752 0.0
C868 C 0.64406 0.03731 0.28397 0.0
C869 C 0.6701 0.02702 0.2917 0.0
H870 H 0.02885 0.72115 0.35906 0.0
H871 H 0.07315 0.71907 0.28188 0.0
H872 H 0.03057 0.70437 0.25786 0.0
H873 H 0.99516 0.66099 0.34927 0.0
H874 H 0.96346 0.67082 0.36587 0.0
H875 H 0.99508 0.68727 0.37549 0.0
H876 H 0.9738 0.73492 0.36474 0.0
H877 H 0.94196 0.71858 0.355 0.0
H878 H 0.95913 0.74132 0.33129 0.0
H879 H 0.98601 0.68384 0.24391 0.0
H880 H 0.94454 0.65461 0.24151 0.0
H881 H 0.92972 0.6681 0.3283 0.0
C882 C 0.02914 0.71858 0.33692 0.0
C883 C 0.05373 0.72181 0.32195 0.0
C884 C 0.05413 0.71714 0.29333 0.0
C885 C 0.03009 0.70899 0.27963 0.0
C886 C 0.00607 0.70556 0.29503 0.0
C887 C 0.00547 0.71011 0.32311 0.0
C888 C 0.97856 0.70078 0.33567 0.0
C889 C 0.98337 0.67865 0.35786 0.0
C890 C 0.9624 0.72537 0.34735 0.0
C891 C 0.96457 0.68898 0.31049 0.0
C892 C 0.98045 0.6927 0.28713 0.0
C893 C 0.97318 0.68123 0.2619 0.0
C894 C 0.9497 0.66463 0.26073 0.0
C895 C 0.93416 0.65934 0.28472 0.0
C896 C 0.94103 0.67247 0.30961 0.0
H897 H 0.35971 0.95896 0.32316 0.0
H898 H 0.34962 0.97627 0.23626 0.0
H899 H 0.32622 0.02001 0.2477 0.0
H900 H 0.29219 0.98775 0.34439 0.0
H901 H 0.30585 0.00084 0.37627 0.0
H902 H 0.32029 0.9702 0.36108 0.0
H903 H 0.3686 0.99271 0.36176 0.0
H904 H 0.35433 0.02347 0.37668 0.0
H905 H 0.37365 0.02546 0.3451 0.0
H906 H 0.30852 0.06386 0.26863 0.0
H907 H 0.29402 0.10316 0.29797 0.0
H908 H 0.31233 0.05551 0.37092 0.0
C909 C 0.35192 0.9716 0.30657 0.0
C910 C 0.35661 0.96444 0.27883 0.0
C911 C 0.3466 0.98171 0.25765 0.0
C912 C 0.33315 0.00645 0.26394 0.0
C913 C 0.32939 0.01324 0.29152 0.0
C914 C 0.33803 0.9961 0.31251 0.0
C915 C 0.33208 0.0085 0.34045 0.0
C916 C 0.31137 0.99077 0.35649 0.0
C917 C 0.35876 0.01279 0.35695 0.0
C918 C 0.31949 0.03565 0.33188 0.0
C919 C 0.31812 0.03802 0.30357 0.0
C920 C 0.30898 0.06207 0.29081 0.0
C921 C 0.30092 0.08422 0.30748 0.0
C922 C 0.30192 0.08189 0.33639 0.0
C923 C 0.31111 0.05737 0.34875 0.0
H924 H 0.95549 0.7241 0.68137 0.0
H925 H 0.95658 0.69486 0.59711 0.0
H926 H 0.00243 0.67429 0.60456 0.0
H927 H 0.02782 0.74141 0.68532 0.0
H928 H 0.0319 0.72992 0.72033 0.0
H929 H -0.00098 0.74248 0.70866 0.0
H930 H 0.97601 0.69686 0.72388 0.0
H931 H 0.0088 0.68422 0.7357 0.0
H932 H 0.98922 0.66462 0.71106 0.0
H933 H 0.04695 0.65653 0.6207 0.0
H934 H 0.08843 0.64108 0.64527 0.0
H935 H 0.06048 0.68273 0.71917 0.0
C936 C 0.96553 0.7133 0.66465 0.0
C937 C 0.95289 0.71106 0.63864 0.0
C938 C 0.96627 0.69681 0.61709 0.0
C939 C 0.99221 0.68512 0.62112 0.0
C940 C 0.0044 0.68788 0.64686 0.0
C941 C 0.99161 0.70149 0.66834 0.0
C942 C 0.00944 0.70113 0.69396 0.0
C943 C 0.01752 0.73048 0.70257 0.0
C944 C 0.995 0.68579 0.71754 0.0
C945 C 0.03413 0.68514 0.68345 0.0
C946 C 0.03065 0.67779 0.6562 0.0
C947 C 0.05009 0.66236 0.64195 0.0
C948 C 0.07367 0.6539 0.65601 0.0
C949 C 0.07773 0.66106 0.68394 0.0
C950 C 0.05781 0.67706 0.69779 0.0
H951 H 0.32209 0.06924 0.71584 0.0
H952 H 0.33559 0.1138 0.63976 0.0
H953 H 0.30733 0.08004 0.6148 0.0
H954 H 0.32918 0.00368 0.68741 0.0
H955 H 0.3031 0.98735 0.70807 0.0
H956 H 0.32096 0.01709 0.72102 0.0
H957 H 0.27442 0.04209 0.72855 0.0
H958 H 0.25638 0.01234 0.71568 0.0
H959 H 0.25076 0.04558 0.70021 0.0
H960 H 0.28421 0.03895 0.59701 0.0
H961 H 0.26598 0.99295 0.58719 0.0
H962 H 0.26417 0.97469 0.67454 0.0
C963 C 0.31859 0.07205 0.69402 0.0
C964 C 0.33057 0.09433 0.67975 0.0
C965 C 0.32596 0.0973 0.65118 0.0
C966 C 0.31005 0.07815 0.63681 0.0
C967 C 0.29884 0.05619 0.65133 0.0
C968 C 0.3027 0.05303 0.67931 0.0
C969 C 0.29012 0.02631 0.68939 0.0
C970 C 0.31215 0.0075 0.70222 0.0
C971 C 0.26651 0.03192 0.70966 0.0
C972 C 0.27944 0.01459 0.66252 0.0
C973 C 0.2846 0.03235 0.64093 0.0
C974 C 0.27924 0.02519 0.61378 0.0
C975 C 0.26864 0.99904 0.60844 0.0
C976 C 0.26304 0.98042 0.63014 0.0
C977 C 0.26809 0.98853 0.65758 0.0
H978 H 0.9747 0.37522 0.6906 0.0
H979 H 0.93226 0.31031 0.73435 0.0
H980 H 0.97138 0.27866 0.72552 0.0
H981 H 0.00347 0.3324 0.63781 0.0
H982 H 0.03533 0.35126 0.63605 0.0
H983 H 0.00422 0.36849 0.64646 0.0
H984 H 0.02807 0.38411 0.69155 0.0
H985 H 0.05918 0.36664 0.6814 0.0
H986 H 0.04323 0.35868 0.7139 0.0
H987 H 0.01526 0.25429 0.71153 0.0
H988 H 0.05919 0.23826 0.69098 0.0
H989 H 0.07215 0.31923 0.65607 0.0
C990 C 0.97377 0.35431 0.69826 0.0
C991 C 0.95069 0.34497 0.71304 0.0
C992 C 0.94985 0.31758 0.72279 0.0
C993 C 0.97198 0.29962 0.71803 0.0
C994 C 0.99466 0.3095 0.70352 0.0
C995 C 0.99561 0.33617 0.69363 0.0
C996 C 0.02195 0.34154 0.67798 0.0
C997 C 0.01587 0.34884 0.64779 0.0
C998 C 0.03912 0.36408 0.69205 0.0
C999 C 0.03564 0.31369 0.68043 0.0
C1000 C 0.01972 0.29552 0.69542 0.0
C1001 C 0.02793 0.26836 0.69985 0.0
C1002 C 0.05283 0.25945 0.68821 0.0
C1003 C 0.06898 0.27762 0.67228 0.0
C1004 C 0.06041 0.30511 0.66867 0.0
H1005 H 0.649 0.97069 0.73466 0.0
H1006 H 0.69862 0.90445 0.70087 0.0
H1007 H 0.72823 0.93889 0.67816 0.0
H1008 H 0.64941 0.015 0.68365 0.0
H1009 H 0.65432 0.04626 0.70301 0.0
H1010 H 0.6386 0.01696 0.71909 0.0
H1011 H 0.67535 0.01707 0.75761 0.0
H1012 H 0.69081 0.04707 0.74224 0.0
H1013 H 0.71134 0.01682 0.74863 0.0
H1014 H 0.74236 0.97951 0.64982 0.0
H1015 H 0.74944 0.02362 0.62714 0.0
H1016 H 0.70175 0.06447 0.69079 0.0
C1017 C 0.66693 0.9631 0.72401 0.0
C1018 C 0.67119 0.93467 0.71939 0.0
C1019 C 0.69445 0.9261 0.70409 0.0
C1020 C 0.71155 0.94549 0.69137 0.0
C1021 C 0.70603 0.97333 0.69558 0.0
C1022 C 0.68513 0.98211 0.71265 0.0
C1023 C 0.68329 0.01323 0.71347 0.0
C1024 C 0.65472 0.02342 0.70425 0.0
C1025 C 0.69065 0.0242 0.7422 0.0
C1026 C 0.7052 0.02052 0.69265 0.0
C1027 C 0.71772 0.99715 0.68227 0.0
C1028 C 0.73429 0.99813 0.65903 0.0
C1029 C 0.73851 0.02362 0.64643 0.0
C1030 C 0.72739 0.04821 0.65773 0.0
C1031 C 0.71085 0.04643 0.68152 0.0
H1032 H 0.31432 0.27803 0.05602 0.0
H1033 H 0.40009 0.29224 0.03593 0.0
H1034 H 0.38692 0.30746 0.9895 0.0
H1035 H 0.29271 0.25398 0.98828 0.0
H1036 H 0.26004 0.27156 0.98921 0.0
H1037 H 0.27593 0.26029 0.02076 0.0
H1038 H 0.27365 0.31003 0.03994 0.0
H1039 H 0.25761 0.3214 0.00853 0.0
H1040 H 0.28868 0.33774 0.02043 0.0
H1041 H 0.36542 0.32276 0.94681 0.0
H1042 H 0.33599 0.33971 0.90945 0.0
H1043 H 0.26322 0.31592 0.9553 0.0
C1044 C 0.33017 0.28426 0.04167 0.0
C1045 C 0.35821 0.28356 0.04918 0.0
C1046 C 0.37854 0.29216 0.03023 0.0
C1047 C 0.37128 0.30086 0.00388 0.0
C1048 C 0.34356 0.30106 0.99689 0.0
C1049 C 0.32322 0.29324 0.01514 0.0
C1050 C 0.2949 0.29678 0.00243 0.0
C1051 C 0.28002 0.26899 3e-05 0.0
C1052 C 0.2777 0.31773 0.01881 0.0
C1053 C 0.30266 0.30793 0.97432 0.0
C1054 C 0.33089 0.31002 0.9717 0.0
C1055 C 0.3433 0.32083 0.94835 0.0
C1056 C 0.3264 0.33013 0.92711 0.0
C1057 C 0.29741 0.32833 0.92922 0.0
C1058 C 0.28536 0.31695 0.95306 0.0
H1059 H 0.30669 0.64179 0.04975 0.0
H1060 H 0.24515 0.70327 0.06927 0.0
H1061 H 0.25046 0.72338 0.02259 0.0
H1062 H 0.35098 0.68485 0.00813 0.0
H1063 H 0.35874 0.65731 0.9845 0.0
H1064 H 0.35062 0.64963 0.01977 0.0
H1065 H 0.31183 0.61695 0.003 0.0
H1066 H 0.31923 0.62532 0.96768 0.0
H1067 H 0.285 0.63022 0.9811 0.0
H1068 H 0.26293 0.73629 0.97354 0.0
H1069 H 0.2843 0.7433 0.92771 0.0
H1070 H 0.33539 0.6714 0.94039 0.0
C1071 C 0.29494 0.65998 0.04438 0.0
C1072 C 0.27605 0.67158 0.06302 0.0
C1073 C 0.26017 0.69466 0.05522 0.0
C1074 C 0.26285 0.70593 0.02876 0.0
C1075 C 0.28117 0.69347 0.01048 0.0
C1076 C 0.29709 0.67113 0.01808 0.0
C1077 C 0.31495 0.66118 0.99468 0.0
C1078 C 0.34563 0.66339 0.00222 0.0
C1079 C 0.30728 0.63167 0.98612 0.0
C1080 C 0.307 0.68168 0.97274 0.0
C1081 C 0.28736 0.70006 0.98211 0.0
C1082 C 0.27807 0.72184 0.96589 0.0
C1083 C 0.29007 0.72556 0.93989 0.0
C1084 C 0.31092 0.70752 0.9306 0.0
C1085 C 0.31882 0.6849 0.94683 0.0
H1086 H 0.61379 0.29405 0.97185 0.0
H1087 H 0.68549 0.26165 0.92995 0.0
H1088 H 0.71547 0.2801 0.96688 0.0
H1089 H 0.64426 0.3568 0.99259 0.0
H1090 H 0.62696 0.35842 0.02535 0.0
H1091 H 0.61117 0.34064 0.99697 0.0
H1092 H 0.60738 0.2965 0.02663 0.0
H1093 H 0.62327 0.31415 0.05511 0.0
H1094 H 0.63785 0.28245 0.04246 0.0
H1095 H 0.7374 0.30339 0.00709 0.0
H1096 H 0.7505 0.33241 0.04672 0.0
H1097 H 0.66457 0.35122 0.06167 0.0
C1098 C 0.6358 0.29066 0.97078 0.0
C1099 C 0.64761 0.27648 0.94841 0.0
C1100 C 0.67635 0.27254 0.94713 0.0
C1101 C 0.69339 0.28279 0.968 0.0
C1102 C 0.6812 0.29688 0.98983 0.0
C1103 C 0.65307 0.30094 0.99133 0.0
C1104 C 0.64538 0.31827 0.01608 0.0
C1105 C 0.63111 0.34512 0.0072 0.0
C1106 C 0.62741 0.30186 0.03626 0.0
C1107 C 0.67361 0.32374 0.02799 0.0
C1108 C 0.69393 0.3109 0.01273 0.0
C1109 C 0.7217 0.31352 0.01921 0.0
C1110 C 0.72893 0.33012 0.04161 0.0
C1111 C 0.70852 0.34411 0.05696 0.0
C1112 C 0.68051 0.34049 0.05036 0.0
H1113 H 0.65824 0.65834 0.07355 0.0
H1114 H 0.67836 0.74331 0.05604 0.0
H1115 H 0.70194 0.72886 0.01314 0.0
H1116 H 0.72141 0.6265 0.04348 0.0
H1117 H 0.70223 0.59779 0.02994 0.0
H1118 H 0.6911 0.6145 0.06115 0.0
H1119 H 0.64307 0.62269 0.03949 0.0
H1120 H 0.65409 0.60637 0.00815 0.0
H1121 H 0.6405 0.64089 0.00728 0.0
H1122 H 0.7188 0.70548 0.96992 0.0
H1123 H 0.72802 0.67491 0.93006 0.0
H1124 H 0.69499 0.60574 0.97542 0.0
C1125 C 0.66852 0.6737 0.06112 0.0
C1126 C 0.66708 0.70181 0.06807 0.0
C1127 C 0.67976 0.72162 0.05101 0.0
C1128 C 0.69311 0.7136 0.0267 0.0
C1129 C 0.69349 0.6857 0.0199 0.0
C1130 C 0.68167 0.66604 0.03673 0.0
C1131 C 0.68251 0.63782 0.02358 0.0
C1132 C 0.70039 0.61798 0.04055 0.0
C1133 C 0.65331 0.62629 0.01938 0.0
C1134 C 0.69599 0.64475 0.99644 0.0
C1135 C 0.7025 0.67239 0.99479 0.0
C1136 C 0.71403 0.68376 0.9711 0.0
C1137 C 0.71897 0.66639 0.94853 0.0
C1138 C 0.7121 0.63817 0.94985 0.0
C1139 C 0.70067 0.62725 0.97413 0.0
H1140 H 0.19242 0.54684 0.16961 0.0
H1141 H 0.26072 0.56709 0.22343 0.0
H1142 H 0.25268 0.524 0.24934 0.0
H1143 H 0.14907 0.506 0.21765 0.0
H1144 H 0.14111 0.48304 0.18954 0.0
H1145 H 0.14799 0.51874 0.18284 0.0
H1146 H 0.18513 0.50179 0.14785 0.0
H1147 H 0.17981 0.46639 0.15716 0.0
H1148 H 0.21359 0.48138 0.16013 0.0
H1149 H 0.23988 0.47501 0.26556 0.0
H1150 H 0.22086 0.42826 0.27287 0.0
H1151 H 0.16805 0.43931 0.20164 0.0
C1152 C 0.20508 0.54303 0.18754 0.0
C1153 C 0.22726 0.56044 0.19437 0.0
C1154 C 0.24344 0.5542 0.21786 0.0
C1155 C 0.23924 0.52957 0.23249 0.0
C1156 C 0.21905 0.51144 0.2231 0.0
C1157 C 0.20209 0.51818 0.20131 0.0
C1158 C 0.1846 0.49419 0.19238 0.0
C1159 C 0.15387 0.50089 0.19587 0.0
C1160 C 0.1912 0.48545 0.16263 0.0
C1161 C 0.19415 0.47278 0.21263 0.0
C1162 C 0.21374 0.48298 0.23049 0.0
C1163 C 0.22459 0.46683 0.25159 0.0
C1164 C 0.21397 0.44015 0.25534 0.0
C1165 C 0.19308 0.42984 0.23774 0.0
C1166 C 0.18423 0.44612 0.21536 0.0
H1167 H 0.44666 0.19625 0.1834 0.0
H1168 H 0.44324 0.27488 0.22541 0.0
H1169 H 0.48656 0.26356 0.24957 0.0
H1170 H 0.48952 0.15283 0.23366 0.0
H1171 H 0.50487 0.13912 0.20288 0.0
H1172 H 0.46975 0.15048 0.20232 0.0
H1173 H 0.4873 0.17967 0.15928 0.0
H1174 H 0.52246 0.17022 0.16559 0.0
H1175 H 0.51286 0.20598 0.16534 0.0
H1176 H 0.53543 0.24715 0.26176 0.0
H1177 H 0.58138 0.22495 0.26466 0.0
H1178 H 0.55412 0.16217 0.20724 0.0
C1179 C 0.45415 0.21052 0.19881 0.0
C1180 C 0.44159 0.2365 0.20234 0.0
C1181 C 0.45229 0.25471 0.22247 0.0
C1182 C 0.47721 0.24862 0.23595 0.0
C1183 C 0.49105 0.22442 0.22888 0.0
C1184 C 0.47958 0.20549 0.21099 0.0
C1185 C 0.50012 0.18376 0.20243 0.0
C1186 C 0.49046 0.15488 0.21093 0.0
C1187 C 0.50597 0.18501 0.17131 0.0
C1188 C 0.52489 0.19302 0.21859 0.0
C1189 C 0.51944 0.21636 0.2339 0.0
C1190 C 0.53979 0.22878 0.24993 0.0
C1191 C 0.56594 0.21632 0.25112 0.0
C1192 C 0.57165 0.19212 0.23581 0.0
C1193 C 0.55086 0.18094 0.21885 0.0
H1194 H 0.75707 0.43708 0.21449 0.0
H1195 H 0.8145 0.43434 0.14611 0.0
H1196 H 0.82366 0.48371 0.15188 0.0
H1197 H 0.73051 0.5063 0.20801 0.0
H1198 H 0.73282 0.51388 0.24412 0.0
H1199 H 0.72758 0.47892 0.23274 0.0
H1200 H 0.77127 0.46339 0.25971 0.0
H1201 H 0.77563 0.49821 0.27146 0.0
H1202 H 0.80334 0.48103 0.25376 0.0
H1203 H 0.82412 0.53318 0.16166 0.0
H1204 H 0.83487 0.57449 0.18884 0.0
H1205 H 0.78228 0.54523 0.25444 0.0
C1206 C 0.77138 0.44693 0.20056 0.0
C1207 C 0.78369 0.43217 0.17863 0.0
C1208 C 0.80367 0.44545 0.1621 0.0
C1209 C 0.80883 0.47357 0.16501 0.0
C1210 C 0.79456 0.48801 0.18513 0.0
C1211 C 0.77759 0.47494 0.20374 0.0
C1212 C 0.76951 0.4943 0.22688 0.0
C1213 C 0.73824 0.49857 0.228 0.0
C1214 C 0.78061 0.48361 0.25457 0.0
C1215 C 0.78417 0.52038 0.21783 0.0
C1216 C 0.7975 0.51642 0.19305 0.0
C1217 C 0.81392 0.53661 0.18115 0.0
C1218 C 0.81945 0.56031 0.19646 0.0
C1219 C 0.80935 0.56293 0.22359 0.0
C1220 C 0.78959 0.54402 0.23342 0.0
H1221 H 0.4554 0.84469 0.19003 0.0
H1222 H 0.43729 0.80318 0.26697 0.0
H1223 H 0.48471 0.7849 0.26818 0.0
H1224 H 0.4938 0.78725 0.16418 0.0
H1225 H 0.51647 0.80873 0.14422 0.0
H1226 H 0.48204 0.82004 0.15149 0.0
H1227 H 0.50338 0.86408 0.17011 0.0
H1228 H 0.53815 0.85224 0.16718 0.0
H1229 H 0.52546 0.8632 0.20015 0.0
H1230 H 0.53317 0.76734 0.25842 0.0
H1231 H 0.57384 0.74755 0.23488 0.0
H1232 H 0.56163 0.8045 0.16738 0.0
C1233 C 0.46148 0.83214 0.20741 0.0
C1234 C 0.44268 0.82599 0.22871 0.0
C1235 C 0.45129 0.8085 0.25049 0.0
C1236 C 0.4783 0.79819 0.25151 0.0
C1237 C 0.49649 0.80529 0.23051 0.0
C1238 C 0.48824 0.82159 0.20866 0.0
C1239 C 0.51023 0.82292 0.1867 0.0
C1240 C 0.50004 0.80889 0.16011 0.0
C1241 C 0.51982 0.85242 0.18083 0.0
C1242 C 0.53266 0.80625 0.20027 0.0
C1243 C 0.52438 0.79571 0.22529 0.0
C1244 C 0.54006 0.7759 0.23907 0.0
C1245 C 0.56348 0.76505 0.22577 0.0
C1246 C 0.57095 0.7744 0.1992 0.0
C1247 C 0.5567 0.79703 0.18779 0.0
H1248 H 0.20128 0.44648 0.81953 0.0
H1249 H 0.26488 0.41921 0.7631 0.0
H1250 H 0.26134 0.46328 0.73814 0.0
H1251 H 0.16134 0.49031 0.76982 0.0
H1252 H 0.15464 0.51515 0.79652 0.0
H1253 H 0.15814 0.47926 0.80506 0.0
H1254 H 0.19606 0.4926 0.84029 0.0
H1255 H 0.19386 0.52826 0.83065 0.0
H1256 H 0.22634 0.51046 0.82851 0.0
H1257 H 0.25541 0.51337 0.72371 0.0
H1258 H 0.24126 0.56159 0.71577 0.0
H1259 H 0.18537 0.55625 0.78531 0.0
C1260 C 0.21354 0.44917 0.80112 0.0
C1261 C 0.23343 0.4294 0.7934 0.0
C1262 C 0.2493 0.43389 0.76934 0.0
C1263 C 0.2478 0.45912 0.75531 0.0
C1264 C 0.23011 0.47935 0.76544 0.0
C1265 C 0.21268 0.4743 0.78732 0.0
C1266 C 0.1971 0.49988 0.79573 0.0
C1267 C 0.16597 0.49592 0.79151 0.0
C1268 C 0.20376 0.50827 0.82555 0.0
C1269 C 0.20879 0.52029 0.77547 0.0
C1270 C 0.22761 0.50814 0.75799 0.0
C1271 C 0.24054 0.52304 0.7372 0.0
C1272 C 0.23267 0.55058 0.73312 0.0
C1273 C 0.2121 0.5629 0.74983 0.0
C1274 C 0.20124 0.54776 0.77216 0.0
H1275 H 0.5548 0.23215 0.79076 0.0
H1276 H 0.54619 0.17553 0.85925 0.0
H1277 H 0.49598 0.17532 0.85275 0.0
H1278 H 0.49483 0.2714 0.79776 0.0
H1279 H 0.48531 0.27157 0.76193 0.0
H1280 H 0.52095 0.26852 0.77175 0.0
H1281 H 0.52597 0.22341 0.74462 0.0
H1282 H 0.49088 0.22634 0.73342 0.0
H1283 H 0.50225 0.19553 0.75062 0.0
H1284 H 0.44684 0.18366 0.84133 0.0
H1285 H 0.404 0.18399 0.81433 0.0
H1286 H 0.44412 0.23233 0.75127 0.0
C1287 C 0.54236 0.21976 0.80445 0.0
C1288 C 0.55432 0.20518 0.82662 0.0
C1289 C 0.53743 0.18791 0.84296 0.0
C1290 C 0.50886 0.18772 0.83951 0.0
C1291 C 0.49755 0.20411 0.81897 0.0
C1292 C 0.51381 0.21858 0.80076 0.0
C1293 C 0.49665 0.23113 0.77798 0.0
C1294 C 0.49961 0.26255 0.77731 0.0
C1295 C 0.50437 0.21831 0.75003 0.0
C1296 C 0.46804 0.22252 0.78704 0.0
C1297 C 0.4691 0.20733 0.81103 0.0
C1298 C 0.44573 0.19532 0.82241 0.0
C1299 C 0.42122 0.19626 0.80732 0.0
C1300 C 0.4209 0.2079 0.78064 0.0
C1301 C 0.44363 0.22372 0.77182 0.0
H1302 H 0.73653 0.5369 0.78329 0.0
H1303 H 0.80202 0.58115 0.82398 0.0
H1304 H 0.8353 0.54658 0.8083 0.0
H1305 H 0.7505 0.47757 0.80223 0.0
H1306 H 0.74514 0.45696 0.77187 0.0
H1307 H 0.72792 0.48944 0.77527 0.0
H1308 H 0.74873 0.50698 0.72966 0.0
H1309 H 0.76539 0.47409 0.725 0.0
H1310 H 0.78538 0.5053 0.72429 0.0
H1311 H 0.8551 0.50085 0.8068 0.0
H1312 H 0.86629 0.45173 0.80459 0.0
H1313 H 0.79056 0.43631 0.75983 0.0
C1314 C 0.75826 0.5406 0.78654 0.0
C1315 C 0.76686 0.56159 0.80471 0.0
C1316 C 0.79522 0.56539 0.80974 0.0
C1317 C 0.8142 0.54553 0.80128 0.0
C1318 C 0.8046 0.52291 0.78653 0.0
C1319 C 0.77759 0.52099 0.77772 0.0
C1320 C 0.77196 0.49272 0.76548 0.0
C1321 C 0.74745 0.47836 0.77958 0.0
C1322 C 0.76761 0.49489 0.73425 0.0
C1323 C 0.79884 0.47827 0.77189 0.0
C1324 C 0.81741 0.49622 0.78373 0.0
C1325 C 0.84154 0.48692 0.79595 0.0
C1326 C 0.84756 0.45882 0.79485 0.0
C1327 C 0.82995 0.4402 0.78093 0.0
C1328 C 0.80499 0.45012 0.76969 0.0
H1329 H 0.43468 0.73932 0.78327 0.0
H1330 H 0.3919 0.80767 0.82133 0.0
H1331 H 0.4278 0.83922 0.80527 0.0
H1332 H 0.49533 0.75267 0.80147 0.0
H1333 H 0.51536 0.74594 0.77099 0.0
H1334 H 0.48266 0.72937 0.7755 0.0
H1335 H 0.46436 0.74897 0.72957 0.0
H1336 H 0.49765 0.76428 0.7238 0.0
H1337 H 0.46711 0.78533 0.72275 0.0
H1338 H 0.4743 0.85646 0.80535 0.0
H1339 H 0.52284 0.86763 0.80019 0.0
H1340 H 0.53586 0.79236 0.75359 0.0
C1341 C 0.43178 0.76124 0.78609 0.0
C1342 C 0.41073 0.77124 0.80354 0.0
C1343 C 0.40784 0.79983 0.80783 0.0
C1344 C 0.42833 0.81783 0.79905 0.0
C1345 C 0.4508 0.8069 0.78506 0.0
C1346 C 0.45197 0.77967 0.77685 0.0
C1347 C 0.47992 0.77308 0.76425 0.0
C1348 C 0.49412 0.74884 0.77895 0.0
C1349 C 0.47709 0.7676 0.73324 0.0
C1350 C 0.49495 0.7999 0.76957 0.0
C1351 C 0.47767 0.81882 0.78192 0.0
C1352 C 0.48761 0.84277 0.79385 0.0
C1353 C 0.51548 0.8487 0.79113 0.0
C1354 C 0.53308 0.83151 0.77537 0.0
C1355 C 0.52278 0.80631 0.76504 0.0
H1356 H 0.21098 0.18035 0.44377 0.0
H1357 H 0.28249 0.23369 0.43992 0.0
H1358 H 0.28007 0.24017 0.49039 0.0
H1359 H 0.1759 0.21956 0.49373 0.0
H1360 H 0.16044 0.1898 0.5094 0.0
H1361 H 0.16956 0.18905 0.47363 0.0
H1362 H 0.20094 0.14509 0.48248 0.0
H1363 H 0.18825 0.14682 0.51726 0.0
H1364 H 0.2245 0.14624 0.51111 0.0
H1365 H 0.26724 0.24326 0.54124 0.0
H1366 H 0.24161 0.24749 0.58501 0.0
H1367 H 0.18232 0.1877 0.55522 0.0
C1368 C 0.2264 0.1932 0.45343 0.0
C1369 C 0.24723 0.20611 0.4378 0.0
C1370 C 0.26645 0.22337 0.45139 0.0
C1371 C 0.26541 0.22696 0.4801 0.0
C1372 C 0.24519 0.21299 0.49492 0.0
C1373 C 0.226 0.19653 0.48191 0.0
C1374 C 0.20473 0.18574 0.50179 0.0
C1375 C 0.17598 0.19672 0.49419 0.0
C1376 C 0.20468 0.15412 0.50315 0.0
C1377 C 0.21515 0.19832 0.52825 0.0
C1378 C 0.23839 0.21413 0.52401 0.0
C1379 C 0.24925 0.23066 0.54485 0.0
C1380 C 0.23475 0.23267 0.56984 0.0
C1381 C 0.20981 0.21804 0.57373 0.0
C1382 C 0.20142 0.199 0.55336 0.0
H1383 H 0.75334 0.21878 0.57036 0.0
H1384 H 0.8277 0.18287 0.60373 0.0
H1385 H 0.85317 0.19734 0.5627 0.0
H1386 H 0.75717 0.1982 0.50934 0.0
H1387 H 0.74701 0.22795 0.48968 0.0
H1388 H 0.73596 0.22453 0.52473 0.0
H1389 H 0.75769 0.27137 0.53762 0.0
H1390 H 0.76798 0.27587 0.50224 0.0
H1391 H 0.79318 0.27799 0.52933 0.0
H1392 H 0.86234 0.19439 0.5136 0.0
H1393 H 0.86545 0.19746 0.46348 0.0
H1394 H 0.78875 0.24336 0.46129 0.0
C1395 C 0.77548 0.21628 0.57017 0.0
C1396 C 0.7885 0.19898 0.58965 0.0
C1397 C 0.8174 0.19583 0.58879 0.0
C1398 C 0.8319 0.20344 0.56522 0.0
C1399 C 0.81749 0.2163 0.54408 0.0
C1400 C 0.79045 0.22464 0.54698 0.0
C1401 C 0.77943 0.23607 0.51998 0.0
C1402 C 0.75337 0.22075 0.51041 0.0
C1403 C 0.77426 0.26718 0.52243 0.0
C1404 C 0.80354 0.23016 0.50109 0.0
C1405 C 0.82501 0.21841 0.51553 0.0
C1406 C 0.84686 0.20569 0.50225 0.0
C1407 C 0.84822 0.20727 0.47365 0.0
C1408 C 0.8283 0.22224 0.45847 0.0
C1409 C 0.80508 0.23303 0.47238 0.0
H1410 H 0.81446 0.81279 0.56693 0.0
H1411 H 0.76876 0.73921 0.58768 0.0
H1412 H 0.73843 0.74688 0.54794 0.0
H1413 H 0.75646 0.85287 0.52849 0.0
H1414 H 0.78286 0.8642 0.50497 0.0
H1415 H 0.79103 0.85866 0.54059 0.0
H1416 H 0.83056 0.82672 0.5229 0.0
H1417 H 0.81974 0.83027 0.48784 0.0
H1418 H 0.82181 0.79655 0.50311 0.0
H1419 H 0.72323 0.75381 0.49924 0.0
H1420 H 0.71966 0.76369 0.44955 0.0
H1421 H 0.77773 0.83086 0.45913 0.0
C1422 C 0.79692 0.79934 0.56418 0.0
C1423 C 0.79429 0.77522 0.58014 0.0
C1424 C 0.77126 0.75789 0.57581 0.0
C1425 C 0.7541 0.76188 0.55293 0.0
C1426 C 0.75988 0.78365 0.53514 0.0
C1427 C 0.78028 0.80261 0.54099 0.0
C1428 C 0.78611 0.82092 0.51652 0.0
C1429 C 0.7786 0.85094 0.52303 0.0
C1430 C 0.81632 0.81843 0.50707 0.0
C1431 C 0.76675 0.80852 0.49558 0.0
C1432 C 0.75143 0.78736 0.50676 0.0
C1433 C 0.73453 0.77085 0.49046 0.0
C1434 C 0.73294 0.77638 0.46215 0.0
C1435 C 0.74831 0.79817 0.45035 0.0
C1436 C 0.76541 0.81429 0.46748 0.0
H1437 H 0.19144 0.82746 0.55455 0.0
H1438 H 0.27712 0.80328 0.55138 0.0
H1439 H 0.26709 0.7727 0.51206 0.0
H1440 H 0.16073 0.76057 0.52546 0.0
H1441 H 0.13564 0.78034 0.50659 0.0
H1442 H 0.1475 0.79218 0.53968 0.0
H1443 H 0.16104 0.83871 0.51767 0.0
H1444 H 0.15044 0.82708 0.48431 0.0
H1445 H 0.18512 0.83914 0.48946 0.0
H1446 H 0.24909 0.75266 0.46638 0.0
H1447 H 0.22394 0.74255 0.42282 0.0
H1448 H 0.15261 0.78548 0.45499 0.0
C1449 C 0.20773 0.81441 0.54666 0.0
C1450 C 0.23495 0.81767 0.55602 0.0
C1451 C 0.25596 0.80077 0.54485 0.0
C1452 C 0.2505 0.78355 0.52221 0.0
C1453 C 0.2239 0.78326 0.51141 0.0
C1454 C 0.2027 0.79779 0.52383 0.0
C1455 C 0.17712 0.79794 0.50625 0.0
C1456 C 0.15387 0.78179 0.52033 0.0
C1457 C 0.16794 0.82746 0.49901 0.0
C1458 C 0.18767 0.7829 0.48127 0.0
C1459 C 0.21433 0.77372 0.48468 0.0
C1460 C 0.22812 0.75963 0.46365 0.0
C1461 C 0.21393 0.75433 0.43888 0.0
C1462 C 0.18676 0.76414 0.43513 0.0
C1463 C 0.17375 0.77859 0.45671 0.0
H1464 H 0.15651 0.26295 0.5087 0.0
H1465 H 0.12395 0.33714 0.54602 0.0
H1466 H 0.13027 0.36205 0.50204 0.0
H1467 H 0.20964 0.29706 0.47049 0.0
H1468 H 0.20736 0.2744 0.4412 0.0
H1469 H 0.19854 0.26198 0.47493 0.0
H1470 H 0.15029 0.24738 0.45708 0.0
H1471 H 0.15936 0.25952 0.42331 0.0
H1472 H 0.12886 0.27241 0.44006 0.0
H1473 H 0.13822 0.3778 0.45417 0.0
H1474 H 0.14837 0.38485 0.40591 0.0
H1475 H 0.1822 0.30211 0.40042 0.0
C1476 C 0.15019 0.28426 0.50727 0.0
C1477 C 0.13915 0.29815 0.53026 0.0
C1478 C 0.13202 0.32626 0.52832 0.0
C1479 C 0.13566 0.34049 0.50355 0.0
C1480 C 0.14709 0.32637 0.48133 0.0
C1481 C 0.15444 0.29895 0.48295 0.0
C1482 C 0.1675 0.28905 0.45639 0.0
C1483 C 0.19753 0.28011 0.46104 0.0
C1484 C 0.15048 0.26571 0.44345 0.0
C1485 C 0.16588 0.31516 0.43942 0.0
C1486 C 0.15393 0.33629 0.45423 0.0
C1487 C 0.14838 0.36173 0.44254 0.0
C1488 C 0.15487 0.3657 0.41483 0.0
C1489 C 0.1676 0.34462 0.39905 0.0
C1490 C 0.17326 0.31904 0.41185 0.0
H1491 H 0.70374 0.15858 0.3885 0.0
H1492 H 0.61894 0.18413 0.39945 0.0
H1493 H 0.62442 0.18114 0.44984 0.0
H1494 H 0.70545 0.10955 0.44018 0.0
H1495 H 0.73978 0.11687 0.45213 0.0
H1496 H 0.73053 0.124 0.41701 0.0
H1497 H 0.74546 0.17478 0.42301 0.0
H1498 H 0.75498 0.16797 0.45819 0.0
H1499 H 0.73086 0.19507 0.45042 0.0
H1500 H 0.6373 0.17057 0.49805 0.0
H1501 H 0.65818 0.1572 0.54218 0.0
H1502 H 0.73517 0.13939 0.50041 0.0
C1503 C 0.68662 0.16419 0.40161 0.0
C1504 C 0.66081 0.17116 0.39033 0.0
C1505 C 0.63871 0.17823 0.40789 0.0
C1506 C 0.64166 0.17672 0.43646 0.0
C1507 C 0.66699 0.16853 0.44701 0.0
C1508 C 0.68926 0.16285 0.43024 0.0
C1509 C 0.71384 0.1534 0.44693 0.0
C1510 C 0.72291 0.12422 0.43856 0.0
C1511 C 0.73769 0.17403 0.4445 0.0
C1512 C 0.70151 0.15373 0.47553 0.0
C1513 C 0.67456 0.16273 0.47509 0.0
C1514 C 0.65854 0.16392 0.49878 0.0
C1515 C 0.67057 0.1562 0.52375 0.0
C1516 C 0.69834 0.14739 0.52483 0.0
C1517 C 0.71387 0.14595 0.50029 0.0
H1518 H 0.87847 0.70371 0.49799 0.0
H1519 H 0.81544 0.66133 0.545 0.0
H1520 H 0.79685 0.64156 0.5022 0.0
H1521 H 0.83745 0.72179 0.44183 0.0
H1522 H 0.86338 0.7159 0.41597 0.0
H1523 H 0.87338 0.72525 0.45038 0.0
H1524 H 0.9038 0.68168 0.45398 0.0
H1525 H 0.89438 0.67237 0.41937 0.0
H1526 H 0.88898 0.64837 0.44709 0.0
H1527 H 0.78202 0.63043 0.45404 0.0
H1528 H 0.77664 0.62259 0.40393 0.0
H1529 H 0.8502 0.67047 0.38858 0.0
C1530 C 0.86113 0.6898 0.49936 0.0
C1531 C 0.84845 0.68405 0.52489 0.0
C1532 C 0.82569 0.66586 0.52576 0.0
C1533 C 0.81481 0.65469 0.50152 0.0
C1534 C 0.82716 0.66159 0.47664 0.0
C1535 C 0.8502 0.6782 0.47541 0.0
C1536 C 0.85945 0.68254 0.44599 0.0
C1537 C 0.85833 0.71318 0.43809 0.0
C1538 C 0.88836 0.67051 0.44134 0.0
C1539 C 0.83773 0.6661 0.43088 0.0
C1540 C 0.81913 0.65442 0.44891 0.0
C1541 C 0.79665 0.63915 0.43972 0.0
C1542 C 0.79358 0.63502 0.41133 0.0
C1543 C 0.81309 0.64583 0.39273 0.0
C1544 C 0.8352 0.66181 0.40258 0.0
H1545 H 0.27712 0.8995 0.47987 0.0
H1546 H 0.3506 0.90076 0.53056 0.0
H1547 H 0.37899 0.89118 0.48959 0.0
H1548 H 0.29518 0.84342 0.44166 0.0
H1549 H 0.28106 0.85506 0.40942 0.0
H1550 H 0.26678 0.86732 0.44128 0.0
H1551 H 0.27516 0.91778 0.4265 0.0
H1552 H 0.28907 0.90586 0.39425 0.0
H1553 H 0.30908 0.92834 0.41591 0.0
H1554 H 0.39865 0.87568 0.44465 0.0
H1555 H 0.40842 0.85738 0.39816 0.0
H1556 H 0.322 0.86451 0.37722 0.0
C1557 C 0.29927 0.89878 0.48221 0.0
C1558 C 0.3117 0.90108 0.50838 0.0
C1559 C 0.34068 0.89921 0.51069 0.0
C1560 C 0.35698 0.89377 0.48753 0.0
C1561 C 0.34395 0.89029 0.46225 0.0
C1562 C 0.31578 0.89302 0.45937 0.0
C1563 C 0.30658 0.88567 0.43052 0.0
C1564 C 0.28621 0.86143 0.43076 0.0
C1565 C 0.29426 0.91092 0.41594 0.0
C1566 C 0.33387 0.87744 0.41793 0.0
C1567 C 0.35521 0.88067 0.43643 0.0
C1568 C 0.38219 0.87349 0.42983 0.0
C1569 C 0.38754 0.86308 0.40347 0.0
C1570 C 0.36598 0.85975 0.38422 0.0
C1571 C 0.33882 0.86682 0.39165 0.0
H1572 H 0.13664 0.65809 0.46431 0.0
H1573 H 0.10009 0.73639 0.48738 0.0
H1574 H 0.11627 0.72987 0.53486 0.0
H1575 H 0.12386 0.62264 0.53178 0.0
H1576 H 0.15611 0.60444 0.52957 0.0
H1577 H 0.13767 0.61327 0.49864 0.0
H1578 H 0.18119 0.63798 0.48045 0.0
H1579 H 0.19952 0.63014 0.51165 0.0
H1580 H 0.19628 0.66536 0.50045 0.0
H1581 H 0.14322 0.71915 0.57724 0.0
H1582 H 0.17073 0.6995 0.61528 0.0
H1583 H 0.18924 0.62796 0.56525 0.0
C1584 C 0.13117 0.67343 0.47948 0.0
C1585 C 0.11728 0.69786 0.47193 0.0
C1586 C 0.11073 0.71749 0.49255 0.0
C1587 C 0.12002 0.71409 0.51959 0.0
C1588 C 0.13556 0.69084 0.52576 0.0
C1589 C 0.14035 0.67039 0.50658 0.0
C1590 C 0.15863 0.64798 0.51826 0.0
C1591 C 0.14314 0.62045 0.51965 0.0
C1592 C 0.18549 0.64522 0.50171 0.0
C1593 C 0.16401 0.65948 0.54671 0.0
C1594 C 0.15063 0.68431 0.55053 0.0
C1595 C 0.15342 0.6995 0.57469 0.0
C1596 C 0.16939 0.68843 0.59597 0.0
C1597 C 0.18213 0.66242 0.59292 0.0
C1598 C 0.17978 0.64799 0.56786 0.0
H1599 H 0.36734 0.22978 0.58569 0.0
H1600 H 0.30008 0.1972 0.63419 0.0
H1601 H 0.27979 0.1765 0.59236 0.0
H1602 H 0.32319 0.24616 0.5246 0.0
H1603 H 0.35044 0.23807 0.50077 0.0
H1604 H 0.35857 0.2516 0.53432 0.0
H1605 H 0.39011 0.20951 0.54323 0.0
H1606 H 0.38161 0.19542 0.51004 0.0
H1607 H 0.37601 0.17529 0.54066 0.0
H1608 H 0.27147 0.15317 0.54695 0.0
H1609 H 0.26829 0.13875 0.4983 0.0
H1610 H 0.33726 0.19149 0.47817 0.0
C1611 C 0.34791 0.21899 0.58722 0.0
C1612 C 0.33514 0.21502 0.61294 0.0
C1613 C 0.30994 0.20058 0.61451 0.0
C1614 C 0.29845 0.18855 0.59096 0.0
C1615 C 0.31214 0.19181 0.56601 0.0
C1616 C 0.33572 0.20755 0.56376 0.0
C1617 C 0.34591 0.20835 0.53432 0.0
C1618 C 0.34443 0.23779 0.52282 0.0
C1619 C 0.37515 0.19643 0.53195 0.0
C1620 C 0.325 0.18979 0.52062 0.0
C1621 C 0.30596 0.18014 0.53935 0.0
C1622 C 0.28573 0.16129 0.53193 0.0
C1623 C 0.28402 0.15327 0.50429 0.0
C1624 C 0.30178 0.16473 0.48429 0.0
C1625 C 0.3231 0.18257 0.49282 0.0
H1626 H 0.87067 0.27766 0.5222 0.0
H1627 H 0.81997 0.33456 0.47542 0.0
H1628 H 0.8034 0.35532 0.51859 0.0
H1629 H 0.82389 0.26623 0.57716 0.0
H1630 H 0.85004 0.26536 0.60339 0.0
H1631 H 0.85851 0.25548 0.56871 0.0
H1632 H 0.89755 0.29153 0.56772 0.0
H1633 H 0.88918 0.30153 0.60242 0.0
H1634 H 0.88974 0.32698 0.57549 0.0
H1635 H 0.79231 0.37011 0.56677 0.0
H1636 H 0.7885 0.37828 0.61701 0.0
H1637 H 0.8452 0.31121 0.63227 0.0
C1638 C 0.85631 0.29467 0.52098 0.0
C1639 C 0.84674 0.30452 0.49534 0.0
C1640 C 0.82775 0.32669 0.49475 0.0
C1641 C 0.81813 0.33862 0.51918 0.0
C1642 C 0.82777 0.32824 0.54405 0.0
C1643 C 0.84658 0.30693 0.54516 0.0
C1644 C 0.85375 0.29977 0.57461 0.0
C1645 C 0.84606 0.26991 0.58135 0.0
C1646 C 0.88437 0.30529 0.5804 0.0
C1647 C 0.83551 0.31989 0.58985 0.0
C1648 C 0.82087 0.33632 0.57184 0.0
C1649 C 0.80345 0.3572 0.58108 0.0
C1650 C 0.80126 0.36159 0.6095 0.0
C1651 C 0.816 0.34486 0.62814 0.0
C1652 C 0.83314 0.32366 0.61825 0.0
H1653 H 0.70059 0.84012 0.50998 0.0
H1654 H 0.63393 0.79939 0.46662 0.0
H1655 H 0.61217 0.78809 0.51121 0.0
H1656 H 0.70468 0.79342 0.56695 0.0
H1657 H 0.71157 0.82003 0.59185 0.0
H1658 H 0.72221 0.82449 0.55669 0.0
H1659 H 0.69523 0.87012 0.55351 0.0
H1660 H 0.68466 0.86629 0.58878 0.0
H1661 H 0.65917 0.87067 0.56221 0.0
H1662 H 0.59691 0.78283 0.56081 0.0
H1663 H 0.58912 0.78498 0.61123 0.0
H1664 H 0.66603 0.82877 0.62133 0.0
C1665 C 0.68133 0.82895 0.50972 0.0
C1666 C 0.66884 0.82085 0.48472 0.0
C1667 C 0.64384 0.8059 0.48548 0.0
C1668 C 0.63137 0.79934 0.5107 0.0
C1669 C 0.64425 0.80774 0.53493 0.0
C1670 C 0.66867 0.82226 0.53459 0.0
C1671 C 0.67802 0.82961 0.56336 0.0
C1672 C 0.70578 0.81606 0.5701 0.0
C1673 C 0.67933 0.86103 0.56718 0.0
C1674 C 0.65498 0.81706 0.58002 0.0
C1675 C 0.63569 0.80448 0.56331 0.0
C1676 C 0.61199 0.79242 0.57408 0.0
C1677 C 0.60775 0.79367 0.60263 0.0
C1678 C 0.62712 0.80681 0.61989 0.0
C1679 C 0.65119 0.8182 0.60849 0.0
H1680 H 0.41613 0.20955 0.32638 0.0
H1681 H 0.40564 0.1523 0.39413 0.0
H1682 H 0.45055 0.13222 0.38448 0.0
H1683 H 0.44303 0.15902 0.28154 0.0
H1684 H 0.46641 0.18213 0.2645 0.0
H1685 H 0.43529 0.1953 0.27944 0.0
H1686 H 0.46414 0.22986 0.30787 0.0
H1687 H 0.4954 0.21635 0.29321 0.0
H1688 H 0.49115 0.21729 0.33 0.0
H1689 H 0.49648 0.11735 0.36733 0.0
H1690 H 0.53904 0.10682 0.34128 0.0
H1691 H 0.51678 0.168 0.28034 0.0
C1692 C 0.42362 0.19332 0.33968 0.0
C1693 C 0.40781 0.18397 0.36224 0.0
C1694 C 0.41788 0.16167 0.3782 0.0
C1695 C 0.44334 0.14954 0.37248 0.0
C1696 C 0.45824 0.1592 0.35012 0.0
C1697 C 0.4487 0.18037 0.33374 0.0
C1698 C 0.46748 0.1849 0.30929 0.0
C1699 C 0.4521 0.18001 0.2821 0.0
C1700 C 0.4803 0.21382 0.31017 0.0
C1701 C 0.4889 0.16279 0.31446 0.0
C1702 C 0.48341 0.14856 0.33843 0.0
C1703 C 0.50089 0.12807 0.34833 0.0
C1704 C 0.52485 0.12214 0.33345 0.0
C1705 C 0.53055 0.13611 0.30865 0.0
C1706 C 0.51229 0.15651 0.2989 0.0
H1707 H 0.88167 0.48621 0.31346 0.0
H1708 H 0.81282 0.53154 0.34816 0.0
H1709 H 0.79346 0.4882 0.36601 0.0
H1710 H 0.84403 0.42933 0.29086 0.0
H1711 H 0.86994 0.40408 0.29916 0.0
H1712 H 0.87988 0.43883 0.29109 0.0
H1713 H 0.90561 0.44291 0.33761 0.0
H1714 H 0.89624 0.40796 0.3456 0.0
H1715 H 0.88761 0.43533 0.36913 0.0
H1716 H 0.77925 0.43922 0.37614 0.0
H1717 H 0.77483 0.38881 0.38322 0.0
H1718 H 0.85306 0.37618 0.34239 0.0
C1719 C 0.86286 0.48718 0.32536 0.0
C1720 C 0.84882 0.51235 0.32939 0.0
C1721 C 0.82409 0.51258 0.34489 0.0
C1722 C 0.81281 0.48802 0.35499 0.0
C1723 C 0.82662 0.46347 0.34965 0.0
C1724 C 0.85138 0.46293 0.33567 0.0
C1725 C 0.86182 0.43379 0.33212 0.0
C1726 C 0.86404 0.42607 0.30149 0.0
C1727 C 0.88946 0.42977 0.34701 0.0
C1728 C 0.83898 0.41802 0.34611 0.0
C1729 C 0.81872 0.43543 0.35591 0.0
C1730 C 0.79515 0.4254 0.36885 0.0
C1731 C 0.79266 0.39685 0.37256 0.0
C1732 C 0.81375 0.37893 0.3636 0.0
C1733 C 0.83691 0.38962 0.34984 0.0
H1734 H 0.57908 0.78883 0.36064 0.0
H1735 H 0.63589 0.80548 0.29398 0.0
H1736 H 0.59878 0.82851 0.26802 0.0
H1737 H 0.51763 0.77721 0.31513 0.0
H1738 H 0.4947 0.79287 0.33973 0.0
H1739 H 0.52498 0.77489 0.35141 0.0
H1740 H 0.54015 0.81863 0.37795 0.0
H1741 H 0.51036 0.83699 0.36582 0.0
H1742 H 0.54429 0.85056 0.35955 0.0
H1743 H 0.55797 0.85581 0.25289 0.0
H1744 H 0.51319 0.87818 0.24504 0.0
H1745 H 0.48167 0.84163 0.32015 0.0
C1746 C 0.58338 0.79667 0.34025 0.0
C1747 C 0.61019 0.79539 0.32919 0.0
C1748 C 0.61534 0.80599 0.30258 0.0
C1749 C 0.59448 0.81931 0.28782 0.0
C1750 C 0.56855 0.8214 0.29983 0.0
C1751 C 0.56267 0.80969 0.32505 0.0
C1752 C 0.53321 0.81539 0.3335 0.0
C1753 C 0.51665 0.78849 0.33502 0.0
C1754 C 0.53195 0.83134 0.36082 0.0
C1755 C 0.52384 0.83306 0.30963 0.0
C1756 C 0.54459 0.83633 0.29051 0.0
C1757 C 0.54137 0.85295 0.26744 0.0
C1758 C 0.51588 0.86572 0.26326 0.0
C1759 C 0.49375 0.86141 0.28175 0.0
C1760 C 0.49808 0.84526 0.30553 0.0
H1761 H 0.1452 0.48616 0.27881 0.0
H1762 H 0.11226 0.45168 0.3542 0.0
H1763 H 0.11933 0.4964 0.37765 0.0
H1764 H 0.19879 0.52474 0.31159 0.0
H1765 H 0.19675 0.55319 0.28789 0.0
H1766 H 0.18739 0.5191 0.27677 0.0
H1767 H 0.13961 0.53702 0.26157 0.0
H1768 H 0.14883 0.57117 0.27259 0.0
H1769 H 0.11824 0.55507 0.28597 0.0
H1770 H 0.12793 0.54507 0.39184 0.0
H1771 H 0.13891 0.59346 0.3972 0.0
H1772 H 0.17234 0.59526 0.31423 0.0
C1773 C 0.13896 0.48823 0.30011 0.0
C1774 C 0.12759 0.46578 0.31465 0.0
C1775 C 0.12061 0.46884 0.34272 0.0
C1776 C 0.12465 0.49407 0.35616 0.0
C1777 C 0.13627 0.51571 0.34135 0.0
C1778 C 0.14352 0.51301 0.31402 0.0
C1779 C 0.15679 0.53907 0.3032 0.0
C1780 C 0.18671 0.5337 0.29436 0.0
C1781 C 0.13984 0.5513 0.27944 0.0
C1782 C 0.15543 0.55706 0.32868 0.0
C1783 C 0.14339 0.54318 0.35031 0.0
C1784 C 0.13813 0.55596 0.37532 0.0
C1785 C 0.14507 0.58376 0.37832 0.0
C1786 C 0.15794 0.59858 0.35668 0.0
C1787 C 0.16325 0.58466 0.33157 0.0
H1788 H 0.40559 0.84424 0.63477 0.0
H1789 H 0.36811 0.9207 0.66133 0.0
H1790 H 0.4133 0.93711 0.6783 0.0
H1791 H 0.45208 0.83726 0.69144 0.0
H1792 H 0.47949 0.82316 0.67082 0.0
H1793 H 0.44427 0.8181 0.66065 0.0
H1794 H 0.45522 0.83959 0.61302 0.0
H1795 H 0.4904 0.84513 0.62331 0.0
H1796 H 0.46987 0.87363 0.61132 0.0
H1797 H 0.46198 0.94352 0.69517 0.0
H1798 H 0.51046 0.93939 0.71038 0.0
H1799 H 0.51621 0.86011 0.66971 0.0
C1800 C 0.40706 0.86442 0.64413 0.0
C1801 C 0.38375 0.88142 0.64663 0.0
C1802 C 0.38606 0.90766 0.65903 0.0
C1803 C 0.41154 0.9171 0.66867 0.0
C1804 C 0.43439 0.90004 0.66552 0.0
C1805 C 0.43238 0.87427 0.65353 0.0
C1806 C 0.45989 0.85976 0.65307 0.0
C1807 C 0.45886 0.833 0.67 0.0
C1808 C 0.4694 0.85421 0.62341 0.0
C1809 C 0.47764 0.88128 0.66682 0.0
C1810 C 0.46259 0.90433 0.67402 0.0
C1811 C 0.47414 0.92585 0.68912 0.0
C1812 C 0.50166 0.9234 0.69757 0.0
C1813 C 0.51727 0.89982 0.6905 0.0
C1814 C 0.50517 0.87888 0.67445 0.0
H1815 H 0.15451 0.50087 0.7105 0.0
H1816 H 0.1631 0.537 0.62927 0.0
H1817 H 0.17393 0.4911 0.61016 0.0
H1818 H 0.21008 0.4548 0.70492 0.0
H1819 H 0.19383 0.42713 0.72349 0.0
H1820 H 0.18441 0.46225 0.73064 0.0
H1821 H 0.13338 0.4517 0.72079 0.0
H1822 H 0.1422 0.4163 0.71412 0.0
H1823 H 0.12388 0.43597 0.68856 0.0
H1824 H 0.18462 0.44166 0.60013 0.0
H1825 H 0.19301 0.39143 0.59955 0.0
H1826 H 0.17951 0.38795 0.68757 0.0
C1827 C 0.1581 0.4991 0.68858 0.0
C1828 C 0.1577 0.52249 0.67129 0.0
C1829 C 0.16314 0.51934 0.64285 0.0
C1830 C 0.16938 0.49339 0.63184 0.0
C1831 C 0.17025 0.4709 0.64959 0.0
C1832 C 0.1646 0.47345 0.67731 0.0
C1833 C 0.16771 0.44618 0.69208 0.0
C1834 C 0.19038 0.44767 0.71407 0.0
C1835 C 0.14015 0.437 0.70461 0.0
C1836 C 0.17612 0.42786 0.66833 0.0
C1837 C 0.17733 0.44253 0.64398 0.0
C1838 C 0.18384 0.42998 0.61906 0.0
C1839 C 0.18865 0.40156 0.61892 0.0
C1840 C 0.18713 0.38616 0.64354 0.0
C1841 C 0.18126 0.3995 0.66861 0.0
H1842 H 0.50042 0.14662 0.71053 0.0
H1843 H 0.46657 0.20233 0.64941 0.0
H1844 H 0.51381 0.21432 0.63465 0.0
H1845 H 0.55895 0.18866 0.72958 0.0
H1846 H 0.58071 0.15907 0.73434 0.0
H1847 H 0.54416 0.15623 0.7398 0.0
H1848 H 0.54327 0.11575 0.70449 0.0
H1849 H 0.57966 0.11953 0.69879 0.0
H1850 H 0.55615 0.12137 0.67018 0.0
H1851 H 0.5649 0.21934 0.6261 0.0
H1852 H 0.61568 0.21562 0.62328 0.0
H1853 H 0.61544 0.15767 0.69095 0.0
C1854 C 0.5028 0.16118 0.69384 0.0
C1855 C 0.47973 0.17337 0.68094 0.0
C1856 C 0.48391 0.19261 0.65948 0.0
C1857 C 0.51065 0.19965 0.65108 0.0
C1858 C 0.5329 0.18747 0.66454 0.0
C1859 C 0.5292 0.16862 0.68545 0.0
C1860 C 0.5564 0.15814 0.69643 0.0
C1861 C 0.56025 0.166 0.72684 0.0
C1862 C 0.55902 0.12685 0.6922 0.0
C1863 C 0.5761 0.17378 0.67818 0.0
C1864 C 0.56217 0.19068 0.65998 0.0
C1865 C 0.576 0.20633 0.64036 0.0
C1866 C 0.60474 0.20414 0.63892 0.0
C1867 C 0.61921 0.18647 0.65698 0.0
C1868 C 0.60477 0.17162 0.67721 0.0
H1869 H 0.84702 0.61802 0.69942 0.0
H1870 H 0.79726 0.6044 0.62675 0.0
H1871 H 0.79855 0.55412 0.63517 0.0
H1872 H 0.89133 0.56096 0.68851 0.0
H1873 H 0.89503 0.55263 0.72444 0.0
H1874 H 0.88808 0.58755 0.7142 0.0
H1875 H 0.84497 0.58855 0.74555 0.0
H1876 H 0.85206 0.55369 0.75593 0.0
H1877 H 0.81895 0.56246 0.74149 0.0
H1878 H 0.80693 0.5055 0.65048 0.0
H1879 H 0.82225 0.46172 0.67106 0.0
H1880 H 0.868 0.50713 0.73297 0.0
C1881 C 0.83596 0.60439 0.68568 0.0
C1882 C 0.82176 0.61479 0.66265 0.0
C1883 C 0.80807 0.59656 0.64459 0.0
C1884 C 0.80871 0.56809 0.64922 0.0
C1885 C 0.82334 0.55832 0.67185 0.0
C1886 C 0.8368 0.57589 0.68974 0.0
C1887 C 0.85247 0.56001 0.71147 0.0
C1888 C 0.88356 0.56563 0.70952 0.0
C1889 C 0.84142 0.56657 0.74033 0.0
C1890 C 0.84571 0.5308 0.70304 0.0
C1891 C 0.8288 0.53027 0.68021 0.0
C1892 C 0.82015 0.50564 0.66838 0.0
C1893 C 0.82905 0.48086 0.68019 0.0
C1894 C 0.84657 0.4809 0.70349 0.0
C1895 C 0.85482 0.5063 0.71505 0.0
H1896 H 0.37152 0.41676 0.17467 0.0
H1897 H 0.31043 0.36722 0.13276 0.0
H1898 H 0.29141 0.40907 0.11078 0.0
H1899 H 0.32611 0.47326 0.18954 0.0
H1900 H 0.35229 0.49911 0.18504 0.0
H1901 H 0.36171 0.46501 0.19599 0.0
H1902 H 0.39559 0.46153 0.1549 0.0
H1903 H 0.38574 0.49544 0.14352 0.0
H1904 H 0.38298 0.46656 0.12039 0.0
H1905 H 0.2789 0.45591 0.09392 0.0
H1906 H 0.26889 0.50532 0.0886 0.0
H1907 H 0.33736 0.52484 0.14261 0.0
C1908 C 0.35404 0.41493 0.16098 0.0
C1909 C 0.34218 0.38907 0.15539 0.0
C1910 C 0.31942 0.38708 0.13742 0.0
C1911 C 0.30877 0.41062 0.12464 0.0
C1912 C 0.32109 0.43589 0.13024 0.0
C1913 C 0.34291 0.43829 0.14834 0.0
C1914 C 0.35108 0.4681 0.15226 0.0
C1915 C 0.34757 0.47688 0.18249 0.0
C1916 C 0.3806 0.4732 0.14216 0.0
C1917 C 0.33022 0.4821 0.1338 0.0
C1918 C 0.31348 0.46308 0.12091 0.0
C1919 C 0.29191 0.47103 0.10382 0.0
C1920 C 0.28647 0.49918 0.10085 0.0
C1921 C 0.30232 0.51903 0.11518 0.0
C1922 C 0.32509 0.51029 0.13104 0.0
H1923 H 0.32957 0.59551 0.85495 0.0
H1924 H 0.38303 0.58462 0.78449 0.0
H1925 H 0.38128 0.53395 0.79093 0.0
H1926 H 0.357 0.54019 0.8967 0.0
H1927 H 0.32376 0.5304 0.90991 0.0
H1928 H 0.33018 0.56561 0.90026 0.0
H1929 H 0.28839 0.56453 0.86705 0.0
H1930 H 0.28166 0.52958 0.8771 0.0
H1931 H 0.28636 0.53789 0.84129 0.0
H1932 H 0.37267 0.48462 0.80482 0.0
H1933 H 0.35319 0.44059 0.82091 0.0
H1934 H 0.3061 0.48459 0.88291 0.0
C1935 C 0.3411 0.58238 0.84109 0.0
C1936 C 0.35678 0.59364 0.81951 0.0
C1937 C 0.37099 0.57609 0.80117 0.0
C1938 C 0.37031 0.54744 0.80486 0.0
C1939 C 0.35522 0.53692 0.82689 0.0
C1940 C 0.34056 0.55388 0.84445 0.0
C1941 C 0.32455 0.5375 0.86546 0.0
C1942 C 0.33449 0.5438 0.89482 0.0
C1943 C 0.29341 0.54267 0.86252 0.0
C1944 C 0.33225 0.5086 0.85684 0.0
C1945 C 0.35019 0.50864 0.83477 0.0
C1946 C 0.35879 0.48431 0.82222 0.0
C1947 C 0.34772 0.45937 0.83162 0.0
C1948 C 0.32812 0.45906 0.85321 0.0
C1949 C 0.32128 0.48397 0.86661 0.0
H1950 H 0.40598 0.34717 0.81165 0.0
H1951 H 0.35506 0.27536 0.82564 0.0
H1952 H 0.39521 0.25054 0.84483 0.0
H1953 H 0.46478 0.31068 0.78957 0.0
H1954 H 0.49042 0.33184 0.80613 0.0
H1955 H 0.45815 0.34658 0.79536 0.0
H1956 H 0.44633 0.36397 0.84343 0.0
H1957 H 0.4792 0.35169 0.85544 0.0
H1958 H 0.44803 0.34089 0.87237 0.0
H1959 H 0.43918 0.23598 0.86737 0.0
H1960 H 0.4873 0.22676 0.88011 0.0
H1961 H 0.51119 0.30631 0.84721 0.0
C1962 C 0.40349 0.32611 0.8185 0.0
C1963 C 0.37763 0.31303 0.81726 0.0
C1964 C 0.37488 0.28551 0.82628 0.0
C1965 C 0.39742 0.27144 0.83749 0.0
C1966 C 0.42251 0.28519 0.83923 0.0
C1967 C 0.42588 0.31164 0.82938 0.0
C1968 C 0.4554 0.32115 0.83243 0.0
C1969 C 0.46798 0.32793 0.80422 0.0
C1970 C 0.45734 0.34589 0.85209 0.0
C1971 C 0.46819 0.29569 0.84516 0.0
C1972 C 0.4486 0.27564 0.84978 0.0
C1973 C 0.45491 0.25112 0.86309 0.0
C1974 C 0.48232 0.24617 0.8704 0.0
C1975 C 0.50321 0.26541 0.86386 0.0
C1976 C 0.49582 0.29089 0.85187 0.0
H1977 H 0.70701 0.47038 0.86684 0.0
H1978 H 0.63258 0.51923 0.85976 0.0
H1979 H 0.60635 0.47732 0.84756 0.0
H1980 H 0.69369 0.42851 0.80881 0.0
H1981 H 0.7083 0.39774 0.82349 0.0
H1982 H 0.7207 0.43101 0.83408 0.0
H1983 H 0.71011 0.41927 0.885 0.0
H1984 H 0.69803 0.3858 0.87464 0.0
H1985 H 0.67601 0.40817 0.89443 0.0
H1986 H 0.58853 0.43 0.83559 0.0
H1987 H 0.58066 0.38089 0.82418 0.0
H1988 H 0.66743 0.3641 0.83619 0.0
C1989 C 0.68507 0.47215 0.86333 0.0
C1990 C 0.67166 0.4979 0.86466 0.0
C1991 C 0.64312 0.49959 0.85908 0.0
C1992 C 0.62811 0.47595 0.8521 0.0
C1993 C 0.64208 0.45093 0.85042 0.0
C1994 C 0.66993 0.44891 0.85581 0.0
C1995 C 0.68041 0.41996 0.8511 0.0
C1996 C 0.70205 0.41928 0.828 0.0
C1997 C 0.6918 0.40757 0.87789 0.0
C1998 C 0.65406 0.40592 0.84236 0.0
C1999 C 0.63213 0.42407 0.84226 0.0
C2000 C 0.60556 0.41562 0.83552 0.0
C2001 C 0.60127 0.3878 0.82907 0.0
C2002 C 0.62348 0.36898 0.82919 0.0
C2003 C 0.6502 0.37825 0.83557 0.0
H2004 H 0.46446 0.66197 0.83556 0.0
H2005 H 0.47477 0.69803 0.91663 0.0
H2006 H 0.52317 0.68255 0.91725 0.0
H2007 H 0.51048 0.60231 0.84517 0.0
H2008 H 0.52364 0.60449 0.81058 0.0
H2009 H 0.48902 0.61553 0.81796 0.0
H2010 H 0.49987 0.66323 0.79681 0.0
H2011 H 0.53465 0.65256 0.78976 0.0
H2012 H 0.52831 0.68298 0.81006 0.0
H2013 H 0.5709 0.66683 0.90764 0.0
H2014 H 0.61507 0.64983 0.88921 0.0
H2015 H 0.57448 0.62478 0.81388 0.0
C2016 C 0.47668 0.6659 0.85377 0.0
C2017 C 0.46584 0.6809 0.87621 0.0
C2018 C 0.48268 0.68639 0.89933 0.0
C2019 C 0.51016 0.67772 0.89984 0.0
C2020 C 0.52046 0.66376 0.87702 0.0
C2021 C 0.50426 0.65773 0.85446 0.0
C2022 C 0.52093 0.64414 0.83185 0.0
C2023 C 0.51039 0.61487 0.82606 0.0
C2024 C 0.52094 0.66178 0.80557 0.0
C2025 C 0.54908 0.64363 0.84518 0.0
C2026 C 0.54826 0.65496 0.87127 0.0
C2027 C 0.57174 0.65751 0.88744 0.0
C2028 C 0.59667 0.64774 0.87685 0.0
C2029 C 0.59787 0.63551 0.85047 0.0
C2030 C 0.5739 0.63383 0.83424 0.0
H2031 H 0.68157 0.48292 0.16213 0.0
H2032 H 0.76382 0.50373 0.13419 0.0
H2033 H 0.75633 0.55191 0.14812 0.0
H2034 H 0.64936 0.54578 0.13816 0.0
H2035 H 0.62606 0.54779 0.16693 0.0
H2036 H 0.63825 0.51479 0.15523 0.0
H2037 H 0.65623 0.50414 0.20438 0.0
H2038 H 0.64424 0.53725 0.21605 0.0
H2039 H 0.67978 0.52772 0.22064 0.0
H2040 H 0.7406 0.59751 0.16656 0.0
H2041 H 0.71521 0.63888 0.18206 0.0
H2042 H 0.64247 0.5892 0.19574 0.0
C2043 C 0.69793 0.49765 0.15873 0.0
C2044 C 0.72343 0.48942 0.1474 0.0
C2045 C 0.74418 0.50943 0.14302 0.0
C2046 C 0.74017 0.53687 0.15095 0.0
C2047 C 0.71506 0.54415 0.16267 0.0
C2048 C 0.69407 0.52528 0.16601 0.0
C2049 C 0.66873 0.53869 0.17829 0.0
C2050 C 0.64415 0.53665 0.15846 0.0
C2051 C 0.66185 0.5262 0.20651 0.0
C2052 C 0.6787 0.56808 0.18111 0.0
C2053 C 0.70566 0.57066 0.17247 0.0
C2054 C 0.71944 0.59579 0.17327 0.0
C2055 C 0.70497 0.61909 0.1823 0.0
C2056 C 0.67698 0.61708 0.19 0.0
C2057 C 0.66387 0.59118 0.18988 0.0
H2058 H 0.39113 0.67563 0.16835 0.0
H2059 H 0.40156 0.59026 0.19164 0.0
H2060 H 0.45216 0.59496 0.18686 0.0
H2061 H 0.44073 0.67522 0.11605 0.0
H2062 H 0.45287 0.70971 0.12229 0.0
H2063 H 0.41803 0.7006 0.13084 0.0
H2064 H 0.42576 0.71652 0.18121 0.0
H2065 H 0.46051 0.72608 0.17265 0.0
H2066 H 0.45415 0.70255 0.20056 0.0
H2067 H 0.50183 0.60926 0.17835 0.0
H2068 H 0.54594 0.63162 0.16543 0.0
H2069 H 0.50129 0.70594 0.144 0.0
C2070 C 0.40422 0.65821 0.1731 0.0
C2071 C 0.39284 0.63274 0.18078 0.0
C2072 C 0.41024 0.61 0.18606 0.0
C2073 C 0.43887 0.61249 0.18334 0.0
C2074 C 0.44955 0.63777 0.17504 0.0
C2075 C 0.43271 0.66021 0.16997 0.0
C2076 C 0.44898 0.6845 0.15947 0.0
C2077 C 0.43959 0.69298 0.13044 0.0
C2078 C 0.44725 0.70884 0.17968 0.0
C2079 C 0.4775 0.67211 0.15903 0.0
C2080 C 0.47762 0.64533 0.1685 0.0
C2081 C 0.50196 0.63017 0.17071 0.0
C2082 C 0.52684 0.64292 0.16326 0.0
C2083 C 0.52689 0.67022 0.15317 0.0
C2084 C 0.50184 0.68477 0.15094 0.0
H2085 H 0.51243 0.28613 0.13371 0.0
H2086 H 0.46553 0.36203 0.12954 0.0
H2087 H 0.5075 0.38851 0.14073 0.0
H2088 H 0.55055 0.30416 0.19152 0.0
H2089 H 0.58198 0.28767 0.18074 0.0
H2090 H 0.54938 0.27485 0.16879 0.0
H2091 H 0.56509 0.28035 0.11812 0.0
H2092 H 0.598 0.29264 0.1299 0.0
H2093 H 0.57788 0.31315 0.10646 0.0
H2094 H 0.55389 0.40628 0.15534 0.0
H2095 H 0.60176 0.41414 0.1709 0.0
H2096 H 0.61734 0.32633 0.16758 0.0
C2097 C 0.51117 0.30839 0.13427 0.0
C2098 C 0.48585 0.32213 0.13042 0.0
C2099 C 0.4848 0.35119 0.13225 0.0
C2100 C 0.5085 0.36636 0.13863 0.0
C2101 C 0.53294 0.35208 0.14329 0.0
C2102 C 0.53447 0.32375 0.14104 0.0
C2103 C 0.56267 0.31317 0.14897 0.0
C2104 C 0.56103 0.29383 0.17398 0.0
C2105 C 0.57674 0.299 0.12439 0.0
C2106 C 0.57672 0.33995 0.15625 0.0
C2107 C 0.55932 0.36219 0.15264 0.0
C2108 C 0.56776 0.38906 0.15807 0.0
C2109 C 0.59488 0.39333 0.1669 0.0
C2110 C 0.61305 0.37084 0.17036 0.0
C2111 C 0.6037 0.34384 0.16534 0.0
H2112 H 0.07031 0.49996 0.21914 0.0
H2113 H 0.05073 0.41947 0.18588 0.0
H2114 H 0.00341 0.43511 0.17624 0.0
H2115 H 0.01378 0.5064 0.25636 0.0
H2116 H 0.00847 0.54285 0.25189 0.0
H2117 H 0.0424 0.52869 0.24864 0.0
H2118 H 0.04692 0.54927 0.19972 0.0
H2119 H 0.01298 0.56395 0.20295 0.0
H2120 H 0.02103 0.54189 0.17422 0.0
H2121 H 0.9565 0.4558 0.17944 0.0
H2122 H 0.91444 0.47962 0.19527 0.0
H2123 H 0.96449 0.54601 0.22776 0.0
C2124 C 0.05646 0.48601 0.20867 0.0
C2125 C 0.06423 0.45857 0.20312 0.0
C2126 C 0.04526 0.44067 0.19014 0.0
C2127 C 0.01834 0.44941 0.1845 0.0
C2128 C 0.01081 0.47614 0.19178 0.0
C2129 C 0.02947 0.49431 0.20329 0.0
C2130 C 0.01539 0.52022 0.21338 0.0
C2131 C 0.02029 0.52476 0.24439 0.0
C2132 C 0.02463 0.54532 0.19655 0.0
C2133 C 0.98573 0.51303 0.20741 0.0
C2134 C 0.98351 0.48791 0.19423 0.0
C2135 C 0.958 0.47579 0.18915 0.0
C2136 C 0.93421 0.48943 0.1983 0.0
C2137 C 0.93622 0.51464 0.21278 0.0
C2138 C 0.96228 0.52685 0.21659 0.0
H2139 H 0.49162 0.07449 0.20325 0.0
H2140 H 0.57492 0.05712 0.17648 0.0
H2141 H 0.55949 0.01307 0.15683 0.0
H2142 H 0.47732 0.01416 0.22825 0.0
H2143 H 0.4419 0.01164 0.21754 0.0
H2144 H 0.45737 0.04479 0.22167 0.0
H2145 H 0.44459 0.05717 0.1714 0.0
H2146 H 0.42897 0.02377 0.16722 0.0
H2147 H 0.45534 0.03494 0.14369 0.0
H2148 H 0.53889 0.96675 0.15347 0.0
H2149 H 0.51424 0.92376 0.16423 0.0
H2150 H 0.44299 0.97122 0.18932 0.0
C2151 C 0.50635 0.06194 0.19218 0.0
C2152 C 0.53448 0.06905 0.19167 0.0
C2153 C 0.55326 0.05207 0.17722 0.0
C2154 C 0.54462 0.02702 0.16583 0.0
C2155 C 0.51702 0.01965 0.16835 0.0
C2156 C 0.49796 0.037 0.18053 0.0
C2157 C 0.47055 0.02274 0.18438 0.0
C2158 C 0.4613 0.02336 0.21475 0.0
C2159 C 0.44856 0.03541 0.16554 0.0
C2160 C 0.47798 0.99393 0.1751 0.0
C2161 C 0.50466 0.99269 0.16523 0.0
C2162 C 0.51766 0.96757 0.16013 0.0
C2163 C 0.50354 0.94321 0.16641 0.0
C2164 C 0.4767 0.94418 0.17763 0.0
C2165 C 0.46332 0.96981 0.18043 0.0
H2166 H 0.04006 0.57103 0.75009 0.0
H2167 H 0.09653 0.51399 0.7886 0.0
H2168 H 0.05711 0.48931 0.80964 0.0
H2169 H 0.98655 0.57065 0.80785 0.0
H2170 H 0.95914 0.57333 0.78301 0.0
H2171 H 0.99185 0.5895 0.77637 0.0
H2172 H 0.99532 0.56318 0.73011 0.0
H2173 H 0.96291 0.54687 0.73665 0.0
H2174 H 0.99298 0.52613 0.73005 0.0
H2175 H 0.01188 0.46521 0.8164 0.0
H2176 H 0.96513 0.44582 0.8113 0.0
H2177 H 0.9384 0.5212 0.77172 0.0
C2178 C 0.04408 0.55405 0.76391 0.0
C2179 C 0.07101 0.54439 0.76812 0.0
C2180 C 0.07584 0.52178 0.78568 0.0
C2181 C 0.05362 0.50774 0.79765 0.0
C2182 C 0.027 0.51721 0.79234 0.0
C2183 C 0.02225 0.54033 0.77641 0.0
C2184 C 0.99192 0.54474 0.77125 0.0
C2185 C 0.98177 0.57112 0.78548 0.0
C2186 C 0.98543 0.54522 0.74019 0.0
C2187 C 0.9804 0.51941 0.78501 0.0
C2188 C 0.00082 0.5039 0.7974 0.0
C2189 C 0.99557 0.47762 0.80768 0.0
C2190 C 0.96901 0.46672 0.80461 0.0
C2191 C 0.94811 0.48218 0.79145 0.0
C2192 C 0.95374 0.50918 0.78254 0.0
H2193 H 0.48975 0.95282 0.78447 0.0
H2194 H 0.57192 0.97822 0.80826 0.0
H2195 H 0.55523 0.02599 0.81405 0.0
H2196 H 0.4781 0.0061 0.74216 0.0
H2197 H 0.4419 0.00994 0.74927 0.0
H2198 H 0.4582 0.97709 0.75384 0.0
H2199 H 0.44174 0.97552 0.80454 0.0
H2200 H 0.42504 0.00836 0.80006 0.0
H2201 H 0.44973 0.00369 0.82733 0.0
H2202 H 0.53153 0.07163 0.80983 0.0
H2203 H 0.50364 0.11122 0.79456 0.0
H2204 H 0.43772 0.05569 0.77128 0.0
C2205 C 0.50405 0.96816 0.79197 0.0
C2206 C 0.53206 0.96179 0.79622 0.0
C2207 C 0.55029 0.98265 0.80517 0.0
C2208 C 0.54097 0.0098 0.80858 0.0
C2209 C 0.51341 0.01561 0.80299 0.0
C2210 C 0.49519 0.99529 0.79499 0.0
C2211 C 0.46784 0.00725 0.78615 0.0
C2212 C 0.46115 -0.00035 0.75609 0.0
C2213 C 0.44472 0.99817 0.80569 0.0
C2214 C 0.47386 0.03758 0.78923 0.0
C2215 C 0.49998 0.04202 0.79962 0.0
C2216 C 0.51088 0.06841 0.80217 0.0
C2217 C 0.49489 0.09076 0.79337 0.0
C2218 C 0.46851 0.0865 0.78173 0.0
C2219 C 0.45771 0.05961 0.78031 0.0
H2220 H 0.22524 0.93789 0.46519 0.0
H2221 H 0.1644 0.95829 0.52701 0.0
H2222 H 0.15794 0.00404 0.5056 0.0
H2223 H 0.25879 0.99653 0.47131 0.0
H2224 H 0.26902 0.00027 0.43587 0.0
H2225 H 0.26212 0.96671 0.44946 0.0
H2226 H 0.22593 0.95822 0.41131 0.0
H2227 H 0.23294 0.99185 0.39733 0.0
H2228 H 0.19825 0.98248 0.40647 0.0
H2229 H 0.16441 0.05017 0.48282 0.0
H2230 H 0.18578 0.09249 0.46379 0.0
H2231 H 0.24626 0.04241 0.42154 0.0
C2232 C 0.20942 0.95139 0.47326 0.0
C2233 C 0.19474 0.9444 0.49724 0.0
C2234 C 0.17534 0.96315 0.50822 0.0
C2235 C 0.17156 0.98913 0.49616 0.0
C2236 C 0.18758 0.99608 0.47338 0.0
C2237 C 0.20618 0.97763 0.46207 0.0
C2238 C 0.22505 0.99152 0.44164 0.0
C2239 C 0.25551 0.98859 0.45011 0.0
C2240 C 0.22023 0.98036 0.41245 0.0
C2241 C 0.21516 0.02089 0.44425 0.0
C2242 C 0.19285 0.02307 0.46176 0.0
C2243 C 0.18154 0.04863 0.46867 0.0
C2244 C 0.19374 0.07251 0.45784 0.0
C2245 C 0.21745 0.07049 0.44116 0.0
C2246 C 0.22787 0.04441 0.43396 0.0
H2247 H 0.07698 0.19868 0.50141 0.0
H2248 H 0.058 0.175 0.58529 0.0
H2249 H 0.00957 0.16795 0.57227 0.0
H2250 H 0.02381 0.23943 0.49258 0.0
H2251 H 0.01632 0.2316 0.45711 0.0
H2252 H 0.05048 0.22665 0.47014 0.0
H2253 H 0.0496 0.17557 0.45494 0.0
H2254 H 0.01541 0.18044 0.44136 0.0
H2255 H 0.02191 0.15358 0.46608 0.0
H2256 H 0.9629 0.17544 0.55416 0.0
H2257 H 0.92161 0.19418 0.53132 0.0
H2258 H 0.96995 0.21224 0.45864 0.0
C2259 C 0.06292 0.19069 0.51671 0.0
C2260 C 0.07125 0.18731 0.54433 0.0
C2261 C 0.05209 0.1776 0.56397 0.0
C2262 C 0.02452 0.17345 0.55672 0.0
C2263 C 0.01653 0.17874 0.5297 0.0
C2264 C 0.03527 0.18665 0.50981 0.0
C2265 C 0.02087 0.19523 0.48352 0.0
C2266 C 0.02831 0.22498 0.4754 0.0
C2267 C 0.02733 0.17499 0.46009 0.0
C2268 C 0.99113 0.19292 0.49244 0.0
C2269 C 0.98907 0.18277 0.51895 0.0
C2270 C 0.96412 0.18251 0.53309 0.0
C2271 C 0.94083 0.19337 0.52006 0.0
C2272 C 0.94267 0.20429 0.49317 0.0
C2273 C 0.96791 0.20326 0.47892 0.0
H2274 H 0.75244 0.02043 0.57194 0.0
H2275 H 0.80386 0.06314 0.5132 0.0
H2276 H 0.811 0.01934 0.48776 0.0
H2277 H 0.79071 0.95211 0.56938 0.0
H2278 H 0.75881 0.93358 0.57303 0.0
H2279 H 0.76298 0.9667 0.58928 0.0
H2280 H 0.71911 0.98416 0.5646 0.0
H2281 H 0.71495 0.95143 0.54803 0.0
H2282 H 0.71712 0.98229 0.5276 0.0
H2283 H 0.80378 0.97348 0.464 0.0
H2284 H 0.78577 0.92944 0.44587 0.0
H2285 H 0.74091 0.91688 0.52198 0.0
C2286 C 0.76604 0.02027 0.55428 0.0
C2287 C 0.77774 0.04483 0.54442 0.0
C2288 C 0.79511 0.04426 0.52114 0.0
C2289 C 0.7992 0.01953 0.50664 0.0
C2290 C 0.78632 0.9957 0.51627 0.0
C2291 C 0.77062 0.99584 0.54001 0.0
C2292 C 0.75662 0.96852 0.54473 0.0
C2293 C 0.76797 0.95439 0.57064 0.0
C2294 C 0.7251 0.97182 0.5463 0.0
C2295 C 0.76533 0.95346 0.519 0.0
C2296 C 0.78278 0.9692 0.50297 0.0
C2297 C 0.79079 0.96068 0.47674 0.0
C2298 C 0.78036 0.93571 0.46656 0.0
C2299 C 0.76202 0.91972 0.48257 0.0
C2300 C 0.75515 0.92845 0.50936 0.0
H2301 H 0.90948 0.7685 0.47367 0.0
H2302 H 0.93674 0.81912 0.54182 0.0
H2303 H 0.97887 0.83109 0.516 0.0
H2304 H 0.9699 0.73765 0.46385 0.0
H2305 H 0.96817 0.73484 0.42691 0.0
H2306 H 0.93705 0.73684 0.44662 0.0
H2307 H 0.92142 0.77916 0.41828 0.0
H2308 H 0.95262 0.77719 0.39831 0.0
H2309 H 0.94361 0.80875 0.41565 0.0
H2310 H 0.02115 0.83089 0.48678 0.0
H2311 H 0.06095 0.81535 0.45903 0.0
H2312 H 0.00709 0.76246 0.41161 0.0
C2313 C 0.92371 0.78313 0.4826 0.0
C2314 C 0.91971 0.79335 0.50946 0.0
C2315 C 0.93933 0.81143 0.52106 0.0
C2316 C 0.96323 0.81843 0.50648 0.0
C2317 C 0.96719 0.80705 0.48042 0.0
C2318 C 0.9479 0.78975 0.46858 0.0
C2319 C 0.95904 0.77619 0.44284 0.0
C2320 C 0.95852 0.74453 0.44524 0.0
C2321 C 0.94323 0.78592 0.41725 0.0
C2322 C 0.9881 0.78726 0.44296 0.0
C2323 C 0.99217 0.80581 0.46416 0.0
C2324 C 0.01808 0.81685 0.46977 0.0
C2325 C 0.04056 0.80798 0.45391 0.0
C2326 C 0.03692 0.7878 0.43327 0.0
C2327 C 0.01028 0.77809 0.42719 0.0
H2328 H 0.49178 0.17245 0.94702 0.0
H2329 H 0.57894 0.16507 0.96449 0.0
H2330 H 0.56863 0.16071 0.01386 0.0
H2331 H 0.47801 0.21673 0.99466 0.0
H2332 H 0.4445 0.20459 0.00486 0.0
H2333 H 0.45709 0.19719 0.97105 0.0
H2334 H 0.45043 0.14494 0.97924 0.0
H2335 H 0.43732 0.15222 0.01319 0.0
H2336 H 0.46584 0.12885 0.00889 0.0
H2337 H 0.55077 0.17055 0.06043 0.0
H2338 H 0.5268 0.19228 0.09957 0.0
H2339 H 0.45111 0.19339 0.05234 0.0
C2340 C 0.50859 0.16848 0.96108 0.0
C2341 C 0.53613 0.16917 0.95195 0.0
C2342 C 0.55765 0.16457 0.97103 0.0
C2343 C 0.55196 0.16194 -0.00084 0.0
C2344 C 0.52465 0.16353 0.0078 0.0
C2345 C 0.50321 0.16614 0.98921 0.0
C2346 C 0.47636 0.17244 0.00369 0.0
C2347 C 0.46328 0.19933 0.99294 0.0
C2348 C 0.45631 0.14816 0.0011 0.0
C2349 C 0.48649 0.17549 0.03293 0.0
C2350 C 0.5142 0.16938 0.0351 0.0
C2351 C 0.5289 0.17455 0.05921 0.0
C2352 C 0.51515 0.18707 0.08131 0.0
C2353 C 0.48712 0.19457 0.07893 0.0
C2354 C 0.47246 0.18758 0.05488 0.0
H2355 H 0.48019 0.75021 0.0868 0.0
H2356 H 0.54907 0.79701 0.05514 0.0
H2357 H 0.52175 0.80918 0.01391 0.0
H2358 H 0.46612 0.71876 0.02667 0.0
H2359 H 0.42927 0.71751 0.03069 0.0
H2360 H 0.45096 0.71879 0.06053 0.0
H2361 H 0.4253 0.76228 0.07764 0.0
H2362 H 0.40338 0.76116 0.04774 0.0
H2363 H 0.42257 0.79192 0.05552 0.0
H2364 H 0.48964 0.81077 0.97369 0.0
H2365 H 0.45846 0.79699 0.93592 0.0
H2366 H 0.41245 0.74594 0.99264 0.0
C2367 C 0.48909 0.76395 0.07169 0.0
C2368 C 0.51644 0.77319 0.07424 0.0
C2369 C 0.52796 0.79007 0.05357 0.0
C2370 C 0.51253 0.79721 0.03024 0.0
C2371 C 0.4858 0.78704 0.02788 0.0
C2372 C 0.47426 0.77059 0.04803 0.0
C2373 C 0.44735 0.75816 0.03859 0.0
C2374 C 0.44853 0.72644 0.03913 0.0
C2375 C 0.42322 0.76905 0.0559 0.0
C2376 C 0.44616 0.76912 0.00952 0.0
C2377 C 0.46795 0.78655 0.00402 0.0
C2378 C 0.47225 0.79753 0.97787 0.0
C2379 C 0.45442 0.78968 0.95657 0.0
C2380 C 0.43314 0.77049 0.96154 0.0
C2381 C 0.42848 0.76084 0.98846 0.0
H2382 H 0.24072 0.51132 0.91187 0.0
H2383 H 0.19366 0.44116 0.94029 0.0
H2384 H 0.1791 0.46768 0.98126 0.0
H2385 H 0.26891 0.52569 0.97341 0.0
H2386 H 0.26932 0.56262 0.96978 0.0
H2387 H 0.27 0.54117 0.93973 0.0
H2388 H 0.22663 0.56584 0.92097 0.0
H2389 H 0.22582 0.58749 0.95111 0.0
H2390 H 0.19598 0.56756 0.94179 0.0
H2391 H 0.17544 0.499 0.02204 0.0
H2392 H 0.18698 0.5299 0.06081 0.0
H2393 H 0.23881 0.57817 0.00671 0.0
C2394 C 0.22646 0.50192 0.92617 0.0
C2395 C 0.21789 0.4744 0.92278 0.0
C2396 C 0.20017 0.46236 0.94244 0.0
C2397 C 0.19167 0.47733 0.96565 0.0
C2398 C 0.20123 0.50422 0.96888 0.0
C2399 C 0.21834 0.51635 0.94965 0.0
C2400 C 0.22959 0.54349 0.95993 0.0
C2401 C 0.26131 0.54319 0.96078 0.0
C2402 C 0.21885 0.56752 0.9424 0.0
C2403 C 0.21728 0.54408 0.98849 0.0
C2404 C 0.20021 0.52178 0.99297 0.0
C2405 C 0.18833 0.51681 0.01863 0.0
C2406 C 0.19491 0.5345 0.04051 0.0
C2407 C 0.21368 0.55637 0.0366 0.0
C2408 C 0.22417 0.56171 0.0101 0.0
H2409 H 0.80416 0.42022 0.03586 0.0
H2410 H 0.83715 0.49393 0.07363 0.0
H2411 H 0.84568 0.51352 0.02781 0.0
H2412 H 0.84585 0.42451 0.96707 0.0
H2413 H 0.81595 0.41282 0.9485 0.0
H2414 H 0.82275 0.40008 0.98268 0.0
H2415 H 0.77416 0.41548 0.99761 0.0
H2416 H 0.76724 0.42889 0.96407 0.0
H2417 H 0.76422 0.45105 0.9937 0.0
H2418 H 0.837 0.53071 0.98157 0.0
H2419 H 0.81304 0.54352 0.93888 0.0
H2420 H 0.78419 0.45965 0.92972 0.0
C2421 C 0.81439 0.4399 0.03444 0.0
C2422 C 0.8198 0.45564 0.05824 0.0
C2423 C 0.83283 0.48151 0.05563 0.0
C2424 C 0.83789 0.49275 0.02962 0.0
C2425 C 0.82997 0.47777 0.00645 0.0
C2426 C 0.81892 0.45161 0.00857 0.0
C2427 C 0.80684 0.44219 0.98139 0.0
C2428 C 0.82388 0.4185 0.96918 0.0
C2429 C 0.77633 0.43398 0.9844 0.0
C2430 C 0.81021 0.46817 0.96457 0.0
C2431 C 0.8246 0.48805 0.97904 0.0
C2432 C 0.82657 0.51507 0.96964 0.0
C2433 C 0.81272 0.52222 0.94546 0.0
C2434 C 0.79695 0.50248 0.93102 0.0
C2435 C 0.79671 0.47491 0.94004 0.0
loop_
_geom_bond_atom_site_label_1
_geom_bond_atom_site_label_2
_geom_bond_distance
_geom_bond_site_symmetry_2
_ccdc_geom_bond_type
Co0 O3 1.970 . S
Co0 N17 1.989 . S
Co0 O25 1.967 . S
Co0 O32 1.920 . S
Co1 O4 1.966 . S
Co1 N10 2.022 . S
Co1 N18 1.993 . S
Co1 O26 1.941 . S
C2 O3 1.258 . S
C2 O4 1.263 . S
O3 Co0 1.970 . S
O3 C2 1.258 . S
O4 Co1 1.966 . S
O4 C2 1.263 . S
C5 O6 1.235 . S
C5 O32 1.289 . S
O6 C5 1.235 . S
C7 C9 1.400 . S
C7 N10 1.351 . S
C7 C12 1.501 . S
C8 C9 1.387 . S
C8 N11 1.341 . S
C9 C7 1.400 . S
C9 C8 1.387 . S
N10 Co1 2.022 . S
N10 C7 1.351 . S
N10 N11 1.365 . S
N11 C8 1.341 . S
N11 N10 1.365 . S
N11 H31 0.862 . S
C12 C7 1.501 . S
C12 H13 0.961 . S
C12 H14 0.961 . S
C12 H15 0.960 . S
H13 C12 0.961 . S
H14 C12 0.961 . S
H15 C12 0.960 . S
C16 N17 1.342 . S
C16 C20 1.401 . S
C16 C21 1.499 . S
N17 Co0 1.989 . S
N17 C16 1.342 . S
N17 N18 1.388 . S
N18 Co1 1.993 . S
N18 N17 1.388 . S
N18 C19 1.346 . S
C19 N18 1.346 . S
C19 C20 1.396 . S
C19 C29 1.510 . S
C20 C16 1.401 . S
C20 C19 1.396 . S
C21 C16 1.499 . S
C21 H22 0.959 . S
C21 H23 0.960 . S
C21 H24 0.961 . S
H22 C21 0.959 . S
H23 C21 0.960 . S
H24 C21 0.961 . S
O25 Co0 1.967 . S
O25 C33 1.258 . S
O26 Co1 1.941 . S
O26 C33 1.266 . S
H27 C29 0.959 . S
H28 C29 0.961 . S
C29 C19 1.510 . S
C29 H27 0.959 . S
C29 H28 0.961 . S
C29 H30 0.960 . S
H30 C29 0.960 . S
H31 N11 0.862 . S
O32 Co0 1.920 . S
O32 C5 1.289 . S
C33 O25 1.258 . S
C33 O26 1.266 . S
Co34 O37 1.970 . S
Co34 N51 1.989 . S
Co34 O59 1.967 . S
Co34 O66 1.920 . S
Co35 O38 1.966 . S
Co35 N44 2.022 . S
Co35 N52 1.993 . S
Co35 O60 1.941 . S
C36 O37 1.258 . S
C36 O38 1.263 . S
O37 Co34 1.970 . S
O37 C36 1.258 . S
O38 Co35 1.966 . S
O38 C36 1.263 . S
C39 O40 1.235 . S
C39 O66 1.289 . S
O40 C39 1.235 . S
C41 C43 1.400 . S
C41 N44 1.351 . S
C41 C46 1.501 . S
C42 C43 1.387 . S
C42 N45 1.341 . S
C43 C41 1.400 . S
C43 C42 1.387 . S
N44 Co35 2.022 . S
N44 C41 1.351 . S
N44 N45 1.365 . S
N45 C42 1.341 . S
N45 N44 1.365 . S
N45 H65 0.862 . S
C46 C41 1.501 . S
C46 H47 0.961 . S
C46 H48 0.961 . S
C46 H49 0.960 . S
H47 C46 0.961 . S
H48 C46 0.961 . S
H49 C46 0.960 . S
C50 N51 1.342 . S
C50 C54 1.401 . S
C50 C55 1.499 . S
N51 Co34 1.989 . S
N51 C50 1.342 . S
N51 N52 1.388 . S
N52 Co35 1.993 . S
N52 N51 1.388 . S
N52 C53 1.346 . S
C53 N52 1.346 . S
C53 C54 1.396 . S
C53 C63 1.510 . S
C54 C50 1.401 . S
C54 C53 1.396 . S
C55 C50 1.499 . S
C55 H56 0.959 . S
C55 H57 0.960 . S
C55 H58 0.961 . S
H56 C55 0.959 . S
H57 C55 0.960 . S
H58 C55 0.961 . S
O59 Co34 1.967 . S
O59 C67 1.258 . S
O60 Co35 1.941 . S
O60 C67 1.266 . S
H61 C63 0.959 . S
H62 C63 0.961 . S
C63 C53 1.510 . S
C63 H61 0.959 . S
C63 H62 0.961 . S
C63 H64 0.960 . S
H64 C63 0.960 . S
H65 N45 0.862 . S
O66 Co34 1.920 . S
O66 C39 1.289 . S
C67 O59 1.258 . S
C67 O60 1.266 . S
Co68 O71 1.970 . S
Co68 N85 1.989 . S
Co68 O93 1.967 . S
Co68 O100 1.920 . S
Co69 O72 1.966 . S
Co69 N78 2.022 . S
Co69 N86 1.993 . S
Co69 O94 1.941 . S
C70 O71 1.258 . S
C70 O72 1.263 . S
O71 Co68 1.970 . S
O71 C70 1.258 . S
O72 Co69 1.966 . S
O72 C70 1.263 . S
C73 O74 1.235 . S
C73 O100 1.289 . S
O74 C73 1.235 . S
C75 C77 1.400 . S
C75 N78 1.351 . S
C75 C80 1.501 . S
C76 C77 1.387 . S
C76 N79 1.341 . S
C77 C75 1.400 . S
C77 C76 1.387 . S
N78 Co69 2.022 . S
N78 C75 1.351 . S
N78 N79 1.365 . S
N79 C76 1.341 . S
N79 N78 1.365 . S
N79 H99 0.862 . S
C80 C75 1.501 . S
C80 H81 0.961 . S
C80 H82 0.961 . S
C80 H83 0.960 . S
H81 C80 0.961 . S
H82 C80 0.961 . S
H83 C80 0.960 . S
C84 N85 1.342 . S
C84 C88 1.401 . S
C84 C89 1.499 . S
N85 Co68 1.989 . S
N85 C84 1.342 . S
N85 N86 1.388 . S
N86 Co69 1.993 . S
N86 N85 1.388 . S
N86 C87 1.346 . S
C87 N86 1.346 . S
C87 C88 1.396 . S
C87 C97 1.510 . S
C88 C84 1.401 . S
C88 C87 1.396 . S
C89 C84 1.499 . S
C89 H90 0.959 . S
C89 H91 0.960 . S
C89 H92 0.961 . S
H90 C89 0.959 . S
H91 C89 0.960 . S
H92 C89 0.961 . S
O93 Co68 1.967 . S
O93 C101 1.258 . S
O94 Co69 1.941 . S
O94 C101 1.266 . S
H95 C97 0.959 . S
H96 C97 0.961 . S
C97 C87 1.510 . S
C97 H95 0.959 . S
C97 H96 0.961 . S
C97 H98 0.960 . S
H98 C97 0.960 . S
H99 N79 0.862 . S
O100 Co68 1.920 . S
O100 C73 1.289 . S
C101 O93 1.258 . S
C101 O94 1.266 . S
Co102 O105 1.970 . S
Co102 N119 1.989 . S
Co102 O127 1.967 . S
Co102 O134 1.920 . S
Co103 O106 1.966 . S
Co103 N112 2.022 . S
Co103 N120 1.993 . S
Co103 O128 1.941 . S
C104 O105 1.258 . S
C104 O106 1.263 . S
O105 Co102 1.970 . S
O105 C104 1.258 . S
O106 Co103 1.966 . S
O106 C104 1.263 . S
C107 O108 1.235 . S
C107 O134 1.289 . S
O108 C107 1.235 . S
C109 C111 1.400 . S
C109 N112 1.351 . S
C109 C114 1.501 . S
C110 C111 1.387 . S
C110 N113 1.341 . S
C111 C109 1.400 . S
C111 C110 1.387 . S
N112 Co103 2.022 . S
N112 C109 1.351 . S
N112 N113 1.365 . S
N113 C110 1.341 . S
N113 N112 1.365 . S
N113 H133 0.862 . S
C114 C109 1.501 . S
C114 H115 0.961 . S
C114 H116 0.961 . S
C114 H117 0.960 . S
H115 C114 0.961 . S
H116 C114 0.961 . S
H117 C114 0.960 . S
C118 N119 1.342 . S
C118 C122 1.401 . S
C118 C123 1.499 . S
N119 Co102 1.989 . S
N119 C118 1.342 . S
N119 N120 1.388 . S
N120 Co103 1.993 . S
N120 N119 1.388 . S
N120 C121 1.346 . S
C121 N120 1.346 . S
C121 C122 1.396 . S
C121 C131 1.510 . S
C122 C118 1.401 . S
C122 C121 1.396 . S
C123 C118 1.499 . S
C123 H124 0.959 . S
C123 H125 0.960 . S
C123 H126 0.961 . S
H124 C123 0.959 . S
H125 C123 0.960 . S
H126 C123 0.961 . S
O127 Co102 1.967 . S
O127 C135 1.258 . S
O128 Co103 1.941 . S
O128 C135 1.266 . S
H129 C131 0.959 . S
H130 C131 0.961 . S
C131 C121 1.510 . S
C131 H129 0.959 . S
C131 H130 0.961 . S
C131 H132 0.960 . S
H132 C131 0.960 . S
H133 N113 0.862 . S
O134 Co102 1.920 . S
O134 C107 1.289 . S
C135 O127 1.258 . S
C135 O128 1.266 . S
Co136 O139 1.970 . S
Co136 N153 1.989 . S
Co136 O161 1.967 . S
Co136 O168 1.920 . S
Co137 O140 1.966 . S
Co137 N146 2.022 . S
Co137 N154 1.993 . S
Co137 O162 1.941 . S
C138 O139 1.258 . S
C138 O140 1.263 . S
O139 Co136 1.970 . S
O139 C138 1.258 . S
O140 Co137 1.966 . S
O140 C138 1.263 . S
C141 O142 1.235 . S
C141 O168 1.289 . S
O142 C141 1.235 . S
C143 C145 1.400 . S
C143 N146 1.351 . S
C143 C148 1.501 . S
C144 C145 1.387 . S
C144 N147 1.341 . S
C145 C143 1.400 . S
C145 C144 1.387 . S
N146 Co137 2.022 . S
N146 C143 1.351 . S
N146 N147 1.365 . S
N147 C144 1.341 . S
N147 N146 1.365 . S
N147 H167 0.862 . S
C148 C143 1.501 . S
C148 H149 0.961 . S
C148 H150 0.961 . S
C148 H151 0.960 . S
H149 C148 0.961 . S
H150 C148 0.961 . S
H151 C148 0.960 . S
C152 N153 1.342 . S
C152 C156 1.401 . S
C152 C157 1.499 . S
N153 Co136 1.989 . S
N153 C152 1.342 . S
N153 N154 1.388 . S
N154 Co137 1.993 . S
N154 N153 1.388 . S
N154 C155 1.346 . S
C155 N154 1.346 . S
C155 C156 1.396 . S
C155 C165 1.510 . S
C156 C152 1.401 . S
C156 C155 1.396 . S
C157 C152 1.499 . S
C157 H158 0.959 . S
C157 H159 0.960 . S
C157 H160 0.961 . S
H158 C157 0.959 . S
H159 C157 0.960 . S
H160 C157 0.961 . S
O161 Co136 1.967 . S
O161 C169 1.258 . S
O162 Co137 1.941 . S
O162 C169 1.266 . S
H163 C165 0.959 . S
H164 C165 0.961 . S
C165 C155 1.510 . S
C165 H163 0.959 . S
C165 H164 0.961 . S
C165 H166 0.960 . S
H166 C165 0.960 . S
H167 N147 0.862 . S
O168 Co136 1.920 . S
O168 C141 1.289 . S
C169 O161 1.258 . S
C169 O162 1.266 . S
Co170 O173 1.970 . S
Co170 N187 1.989 . S
Co170 O195 1.967 . S
Co170 O202 1.920 . S
Co171 O174 1.966 . S
Co171 N180 2.022 . S
Co171 N188 1.993 . S
Co171 O196 1.941 . S
C172 O173 1.258 . S
C172 O174 1.263 . S
O173 Co170 1.970 . S
O173 C172 1.258 . S
O174 Co171 1.966 . S
O174 C172 1.263 . S
C175 O176 1.235 . S
C175 O202 1.289 . S
O176 C175 1.235 . S
C177 C179 1.400 . S
C177 N180 1.351 . S
C177 C182 1.501 . S
C178 C179 1.387 . S
C178 N181 1.341 . S
C179 C177 1.400 . S
C179 C178 1.387 . S
N180 Co171 2.022 . S
N180 C177 1.351 . S
N180 N181 1.365 . S
N181 C178 1.341 . S
N181 N180 1.365 . S
N181 H201 0.862 . S
C182 C177 1.501 . S
C182 H183 0.961 . S
C182 H184 0.961 . S
C182 H185 0.960 . S
H183 C182 0.961 . S
H184 C182 0.961 . S
H185 C182 0.960 . S
C186 N187 1.342 . S
C186 C190 1.401 . S
C186 C191 1.499 . S
N187 Co170 1.989 . S
N187 C186 1.342 . S
N187 N188 1.388 . S
N188 Co171 1.993 . S
N188 N187 1.388 . S
N188 C189 1.346 . S
C189 N188 1.346 . S
C189 C190 1.396 . S
C189 C199 1.510 . S
C190 C186 1.401 . S
C190 C189 1.396 . S
C191 C186 1.499 . S
C191 H192 0.959 . S
C191 H193 0.960 . S
C191 H194 0.961 . S
H192 C191 0.959 . S
H193 C191 0.960 . S
H194 C191 0.961 . S
O195 Co170 1.967 . S
O195 C203 1.258 . S
O196 Co171 1.941 . S
O196 C203 1.266 . S
H197 C199 0.959 . S
H198 C199 0.961 . S
C199 C189 1.510 . S
C199 H197 0.959 . S
C199 H198 0.961 . S
C199 H200 0.960 . S
H200 C199 0.960 . S
H201 N181 0.862 . S
O202 Co170 1.920 . S
O202 C175 1.289 . S
C203 O195 1.258 . S
C203 O196 1.266 . S
Co204 O207 1.970 . S
Co204 N221 1.989 . S
Co204 O229 1.967 . S
Co204 O236 1.920 . S
Co205 O208 1.966 . S
Co205 N214 2.022 . S
Co205 N222 1.993 . S
Co205 O230 1.941 . S
C206 O207 1.258 . S
C206 O208 1.263 . S
O207 Co204 1.970 . S
O207 C206 1.258 . S
O208 Co205 1.966 . S
O208 C206 1.263 . S
C209 O210 1.235 . S
C209 O236 1.289 . S
O210 C209 1.235 . S
C211 C213 1.400 . S
C211 N214 1.351 . S
C211 C216 1.501 . S
C212 C213 1.387 . S
C212 N215 1.341 . S
C213 C211 1.400 . S
C213 C212 1.387 . S
N214 Co205 2.022 . S
N214 C211 1.351 . S
N214 N215 1.365 . S
N215 C212 1.341 . S
N215 N214 1.365 . S
N215 H235 0.862 . S
C216 C211 1.501 . S
C216 H217 0.961 . S
C216 H218 0.961 . S
C216 H219 0.960 . S
H217 C216 0.961 . S
H218 C216 0.961 . S
H219 C216 0.960 . S
C220 N221 1.342 . S
C220 C224 1.401 . S
C220 C225 1.499 . S
N221 Co204 1.989 . S
N221 C220 1.342 . S
N221 N222 1.388 . S
N222 Co205 1.993 . S
N222 N221 1.388 . S
N222 C223 1.346 . S
C223 N222 1.346 . S
C223 C224 1.396 . S
C223 C233 1.510 . S
C224 C220 1.401 . S
C224 C223 1.396 . S
C225 C220 1.499 . S
C225 H226 0.959 . S
C225 H227 0.960 . S
C225 H228 0.961 . S
H226 C225 0.959 . S
H227 C225 0.960 . S
H228 C225 0.961 . S
O229 Co204 1.967 . S
O229 C237 1.258 . S
O230 Co205 1.941 . S
O230 C237 1.266 . S
H231 C233 0.959 . S
H232 C233 0.961 . S
C233 C223 1.510 . S
C233 H231 0.959 . S
C233 H232 0.961 . S
C233 H234 0.960 . S
H234 C233 0.960 . S
H235 N215 0.862 . S
O236 Co204 1.920 . S
O236 C209 1.289 . S
C237 O229 1.258 . S
C237 O230 1.266 . S
Co238 O241 1.970 . S
Co238 N255 1.989 . S
Co238 O263 1.967 . S
Co238 O270 1.920 . S
Co239 O242 1.966 . S
Co239 N248 2.022 . S
Co239 N256 1.993 . S
Co239 O264 1.941 . S
C240 O241 1.258 . S
C240 O242 1.263 . S
O241 Co238 1.970 . S
O241 C240 1.258 . S
O242 Co239 1.966 . S
O242 C240 1.263 . S
C243 O244 1.235 . S
C243 O270 1.289 . S
O244 C243 1.235 . S
C245 C247 1.400 . S
C245 N248 1.351 . S
C245 C250 1.501 . S
C246 C247 1.387 . S
C246 N249 1.341 . S
C247 C245 1.400 . S
C247 C246 1.387 . S
N248 Co239 2.022 . S
N248 C245 1.351 . S
N248 N249 1.365 . S
N249 C246 1.341 . S
N249 N248 1.365 . S
N249 H269 0.862 . S
C250 C245 1.501 . S
C250 H251 0.961 . S
C250 H252 0.961 . S
C250 H253 0.960 . S
H251 C250 0.961 . S
H252 C250 0.961 . S
H253 C250 0.960 . S
C254 N255 1.342 . S
C254 C258 1.401 . S
C254 C259 1.499 . S
N255 Co238 1.989 . S
N255 C254 1.342 . S
N255 N256 1.388 . S
N256 Co239 1.993 . S
N256 N255 1.388 . S
N256 C257 1.346 . S
C257 N256 1.346 . S
C257 C258 1.396 . S
C257 C267 1.510 . S
C258 C254 1.401 . S
C258 C257 1.396 . S
C259 C254 1.499 . S
C259 H260 0.959 . S
C259 H261 0.960 . S
C259 H262 0.961 . S
H260 C259 0.959 . S
H261 C259 0.960 . S
H262 C259 0.961 . S
O263 Co238 1.967 . S
O263 C271 1.258 . S
O264 Co239 1.941 . S
O264 C271 1.266 . S
H265 C267 0.959 . S
H266 C267 0.961 . S
C267 C257 1.510 . S
C267 H265 0.959 . S
C267 H266 0.961 . S
C267 H268 0.960 . S
H268 C267 0.960 . S
H269 N249 0.862 . S
O270 Co238 1.920 . S
O270 C243 1.289 . S
C271 O263 1.258 . S
C271 O264 1.266 . S
Co272 O275 1.970 . S
Co272 N289 1.989 . S
Co272 O297 1.967 . S
Co272 O304 1.920 . S
Co273 O276 1.966 . S
Co273 N282 2.022 . S
Co273 N290 1.993 . S
Co273 O298 1.941 . S
C274 O275 1.258 . S
C274 O276 1.263 . S
O275 Co272 1.970 . S
O275 C274 1.258 . S
O276 Co273 1.966 . S
O276 C274 1.263 . S
C277 O278 1.235 . S
C277 O304 1.289 . S
O278 C277 1.235 . S
C279 C281 1.400 . S
C279 N282 1.351 . S
C279 C284 1.501 . S
C280 C281 1.387 . S
C280 N283 1.341 . S
C281 C279 1.400 . S
C281 C280 1.387 . S
N282 Co273 2.022 . S
N282 C279 1.351 . S
N282 N283 1.365 . S
N283 C280 1.341 . S
N283 N282 1.365 . S
N283 H303 0.862 . S
C284 C279 1.501 . S
C284 H285 0.961 . S
C284 H286 0.961 . S
C284 H287 0.960 . S
H285 C284 0.961 . S
H286 C284 0.961 . S
H287 C284 0.960 . S
C288 N289 1.342 . S
C288 C292 1.401 . S
C288 C293 1.499 . S
N289 Co272 1.989 . S
N289 C288 1.342 . S
N289 N290 1.388 . S
N290 Co273 1.993 . S
N290 N289 1.388 . S
N290 C291 1.346 . S
C291 N290 1.346 . S
C291 C292 1.396 . S
C291 C301 1.510 . S
C292 C288 1.401 . S
C292 C291 1.396 . S
C293 C288 1.499 . S
C293 H294 0.959 . S
C293 H295 0.960 . S
C293 H296 0.961 . S
H294 C293 0.959 . S
H295 C293 0.960 . S
H296 C293 0.961 . S
O297 Co272 1.967 . S
O297 C305 1.258 . S
O298 Co273 1.941 . S
O298 C305 1.266 . S
H299 C301 0.959 . S
H300 C301 0.961 . S
C301 C291 1.510 . S
C301 H299 0.959 . S
C301 H300 0.961 . S
C301 H302 0.960 . S
H302 C301 0.960 . S
H303 N283 0.862 . S
O304 Co272 1.920 . S
O304 C277 1.289 . S
C305 O297 1.258 . S
C305 O298 1.266 . S
Co306 O309 1.970 . S
Co306 N323 1.989 . S
Co306 O331 1.967 . S
Co306 O338 1.920 . S
Co307 O310 1.966 . S
Co307 N316 2.022 . S
Co307 N324 1.993 . S
Co307 O332 1.941 . S
C308 O309 1.258 . S
C308 O310 1.263 . S
O309 Co306 1.970 . S
O309 C308 1.258 . S
O310 Co307 1.966 . S
O310 C308 1.263 . S
C311 O312 1.235 . S
C311 O338 1.289 . S
O312 C311 1.235 . S
C313 C315 1.400 . S
C313 N316 1.351 . S
C313 C318 1.501 . S
C314 C315 1.387 . S
C314 N317 1.341 . S
C315 C313 1.400 . S
C315 C314 1.387 . S
N316 Co307 2.022 . S
N316 C313 1.351 . S
N316 N317 1.365 . S
N317 C314 1.341 . S
N317 N316 1.365 . S
N317 H337 0.862 . S
C318 C313 1.501 . S
C318 H319 0.961 . S
C318 H320 0.961 . S
C318 H321 0.960 . S
H319 C318 0.961 . S
H320 C318 0.961 . S
H321 C318 0.960 . S
C322 N323 1.342 . S
C322 C326 1.401 . S
C322 C327 1.499 . S
N323 Co306 1.989 . S
N323 C322 1.342 . S
N323 N324 1.388 . S
N324 Co307 1.993 . S
N324 N323 1.388 . S
N324 C325 1.346 . S
C325 N324 1.346 . S
C325 C326 1.396 . S
C325 C335 1.510 . S
C326 C322 1.401 . S
C326 C325 1.396 . S
C327 C322 1.499 . S
C327 H328 0.959 . S
C327 H329 0.960 . S
C327 H330 0.961 . S
H328 C327 0.959 . S
H329 C327 0.960 . S
H330 C327 0.961 . S
O331 Co306 1.967 . S
O331 C339 1.258 . S
O332 Co307 1.941 . S
O332 C339 1.266 . S
H333 C335 0.959 . S
H334 C335 0.961 . S
C335 C325 1.510 . S
C335 H333 0.959 . S
C335 H334 0.961 . S
C335 H336 0.960 . S
H336 C335 0.960 . S
H337 N317 0.862 . S
O338 Co306 1.920 . S
O338 C311 1.289 . S
C339 O331 1.258 . S
C339 O332 1.266 . S
Co340 O343 1.970 . S
Co340 N357 1.989 . S
Co340 O365 1.967 . S
Co340 O372 1.920 . S
Co341 O344 1.966 . S
Co341 N350 2.022 . S
Co341 N358 1.993 . S
Co341 O366 1.941 . S
C342 O343 1.258 . S
C342 O344 1.263 . S
O343 Co340 1.970 . S
O343 C342 1.258 . S
O344 Co341 1.966 . S
O344 C342 1.263 . S
C345 O346 1.235 . S
C345 O372 1.289 . S
O346 C345 1.235 . S
C347 C349 1.400 . S
C347 N350 1.351 . S
C347 C352 1.501 . S
C348 C349 1.387 . S
C348 N351 1.341 . S
C349 C347 1.400 . S
C349 C348 1.387 . S
N350 Co341 2.022 . S
N350 C347 1.351 . S
N350 N351 1.365 . S
N351 C348 1.341 . S
N351 N350 1.365 . S
N351 H371 0.862 . S
C352 C347 1.501 . S
C352 H353 0.961 . S
C352 H354 0.961 . S
C352 H355 0.960 . S
H353 C352 0.961 . S
H354 C352 0.961 . S
H355 C352 0.960 . S
C356 N357 1.342 . S
C356 C360 1.401 . S
C356 C361 1.499 . S
N357 Co340 1.989 . S
N357 C356 1.342 . S
N357 N358 1.388 . S
N358 Co341 1.993 . S
N358 N357 1.388 . S
N358 C359 1.346 . S
C359 N358 1.346 . S
C359 C360 1.396 . S
C359 C369 1.510 . S
C360 C356 1.401 . S
C360 C359 1.396 . S
C361 C356 1.499 . S
C361 H362 0.959 . S
C361 H363 0.960 . S
C361 H364 0.961 . S
H362 C361 0.959 . S
H363 C361 0.960 . S
H364 C361 0.961 . S
O365 Co340 1.967 . S
O365 C373 1.258 . S
O366 Co341 1.941 . S
O366 C373 1.266 . S
H367 C369 0.959 . S
H368 C369 0.961 . S
C369 C359 1.510 . S
C369 H367 0.959 . S
C369 H368 0.961 . S
C369 H370 0.960 . S
H370 C369 0.960 . S
H371 N351 0.862 . S
O372 Co340 1.920 . S
O372 C345 1.289 . S
C373 O365 1.258 . S
C373 O366 1.266 . S
Co374 O377 1.970 . S
Co374 N391 1.989 . S
Co374 O399 1.967 . S
Co374 O406 1.920 . S
Co375 O378 1.966 . S
Co375 N384 2.022 . S
Co375 N392 1.993 . S
Co375 O400 1.941 . S
C376 O377 1.258 . S
C376 O378 1.263 . S
O377 Co374 1.970 . S
O377 C376 1.258 . S
O378 Co375 1.966 . S
O378 C376 1.263 . S
C379 O380 1.235 . S
C379 O406 1.289 . S
O380 C379 1.235 . S
C381 C383 1.400 . S
C381 N384 1.351 . S
C381 C386 1.501 . S
C382 C383 1.387 . S
C382 N385 1.341 . S
C383 C381 1.400 . S
C383 C382 1.387 . S
N384 Co375 2.022 . S
N384 C381 1.351 . S
N384 N385 1.365 . S
N385 C382 1.341 . S
N385 N384 1.365 . S
N385 H405 0.862 . S
C386 C381 1.501 . S
C386 H387 0.961 . S
C386 H388 0.961 . S
C386 H389 0.960 . S
H387 C386 0.961 . S
H388 C386 0.961 . S
H389 C386 0.960 . S
C390 N391 1.342 . S
C390 C394 1.401 . S
C390 C395 1.499 . S
N391 Co374 1.989 . S
N391 C390 1.342 . S
N391 N392 1.388 . S
N392 Co375 1.993 . S
N392 N391 1.388 . S
N392 C393 1.346 . S
C393 N392 1.346 . S
C393 C394 1.396 . S
C393 C403 1.510 . S
C394 C390 1.401 . S
C394 C393 1.396 . S
C395 C390 1.499 . S
C395 H396 0.959 . S
C395 H397 0.960 . S
C395 H398 0.961 . S
H396 C395 0.959 . S
H397 C395 0.960 . S
H398 C395 0.961 . S
O399 Co374 1.967 . S
O399 C407 1.258 . S
O400 Co375 1.941 . S
O400 C407 1.266 . S
H401 C403 0.959 . S
H402 C403 0.961 . S
C403 C393 1.510 . S
C403 H401 0.959 . S
C403 H402 0.961 . S
C403 H404 0.960 . S
H404 C403 0.960 . S
H405 N385 0.862 . S
O406 Co374 1.920 . S
O406 C379 1.289 . S
C407 O399 1.258 . S
C407 O400 1.266 . S
Co408 O411 1.970 . S
Co408 N425 1.989 . S
Co408 O433 1.967 . S
Co408 O440 1.920 . S
Co409 O412 1.966 . S
Co409 N418 2.022 . S
Co409 N426 1.993 . S
Co409 O434 1.941 . S
C410 O411 1.258 . S
C410 O412 1.263 . S
O411 Co408 1.970 . S
O411 C410 1.258 . S
O412 Co409 1.966 . S
O412 C410 1.263 . S
C413 O414 1.235 . S
C413 O440 1.289 . S
O414 C413 1.235 . S
C415 C417 1.400 . S
C415 N418 1.351 . S
C415 C420 1.501 . S
C416 C417 1.387 . S
C416 N419 1.341 . S
C417 C415 1.400 . S
C417 C416 1.387 . S
N418 Co409 2.022 . S
N418 C415 1.351 . S
N418 N419 1.365 . S
N419 C416 1.341 . S
N419 N418 1.365 . S
N419 H439 0.862 . S
C420 C415 1.501 . S
C420 H421 0.961 . S
C420 H422 0.961 . S
C420 H423 0.960 . S
H421 C420 0.961 . S
H422 C420 0.961 . S
H423 C420 0.960 . S
C424 N425 1.342 . S
C424 C428 1.401 . S
C424 C429 1.499 . S
N425 Co408 1.989 . S
N425 C424 1.342 . S
N425 N426 1.388 . S
N426 Co409 1.993 . S
N426 N425 1.388 . S
N426 C427 1.346 . S
C427 N426 1.346 . S
C427 C428 1.396 . S
C427 C437 1.510 . S
C428 C424 1.401 . S
C428 C427 1.396 . S
C429 C424 1.499 . S
C429 H430 0.959 . S
C429 H431 0.960 . S
C429 H432 0.961 . S
H430 C429 0.959 . S
H431 C429 0.960 . S
H432 C429 0.961 . S
O433 Co408 1.967 . S
O433 C441 1.258 . S
O434 Co409 1.941 . S
O434 C441 1.266 . S
H435 C437 0.959 . S
H436 C437 0.961 . S
C437 C427 1.510 . S
C437 H435 0.959 . S
C437 H436 0.961 . S
C437 H438 0.960 . S
H438 C437 0.960 . S
H439 N419 0.862 . S
O440 Co408 1.920 . S
O440 C413 1.289 . S
C441 O433 1.258 . S
C441 O434 1.266 . S
Co442 O445 1.970 . S
Co442 N459 1.989 . S
Co442 O467 1.967 . S
Co442 O474 1.920 . S
Co443 O446 1.966 . S
Co443 N452 2.022 . S
Co443 N460 1.993 . S
Co443 O468 1.941 . S
C444 O445 1.258 . S
C444 O446 1.263 . S
O445 Co442 1.970 . S
O445 C444 1.258 . S
O446 Co443 1.966 . S
O446 C444 1.263 . S
C447 O448 1.235 . S
C447 O474 1.289 . S
O448 C447 1.235 . S
C449 C451 1.400 . S
C449 N452 1.351 . S
C449 C454 1.501 . S
C450 C451 1.387 . S
C450 N453 1.341 . S
C451 C449 1.400 . S
C451 C450 1.387 . S
N452 Co443 2.022 . S
N452 C449 1.351 . S
N452 N453 1.365 . S
N453 C450 1.341 . S
N453 N452 1.365 . S
N453 H473 0.862 . S
C454 C449 1.501 . S
C454 H455 0.961 . S
C454 H456 0.961 . S
C454 H457 0.960 . S
H455 C454 0.961 . S
H456 C454 0.961 . S
H457 C454 0.960 . S
C458 N459 1.342 . S
C458 C462 1.401 . S
C458 C463 1.499 . S
N459 Co442 1.989 . S
N459 C458 1.342 . S
N459 N460 1.388 . S
N460 Co443 1.993 . S
N460 N459 1.388 . S
N460 C461 1.346 . S
C461 N460 1.346 . S
C461 C462 1.396 . S
C461 C471 1.510 . S
C462 C458 1.401 . S
C462 C461 1.396 . S
C463 C458 1.499 . S
C463 H464 0.959 . S
C463 H465 0.960 . S
C463 H466 0.961 . S
H464 C463 0.959 . S
H465 C463 0.960 . S
H466 C463 0.961 . S
O467 Co442 1.967 . S
O467 C475 1.258 . S
O468 Co443 1.941 . S
O468 C475 1.266 . S
H469 C471 0.959 . S
H470 C471 0.961 . S
C471 C461 1.510 . S
C471 H469 0.959 . S
C471 H470 0.961 . S
C471 H472 0.960 . S
H472 C471 0.960 . S
H473 N453 0.862 . S
O474 Co442 1.920 . S
O474 C447 1.289 . S
C475 O467 1.258 . S
C475 O468 1.266 . S
Co476 O479 1.970 . S
Co476 N493 1.989 . S
Co476 O501 1.967 . S
Co476 O508 1.920 . S
Co477 O480 1.966 . S
Co477 N486 2.022 . S
Co477 N494 1.993 . S
Co477 O502 1.941 . S
C478 O479 1.258 . S
C478 O480 1.263 . S
O479 Co476 1.970 . S
O479 C478 1.258 . S
O480 Co477 1.966 . S
O480 C478 1.263 . S
C481 O482 1.235 . S
C481 O508 1.289 . S
O482 C481 1.235 . S
C483 C485 1.400 . S
C483 N486 1.351 . S
C483 C488 1.501 . S
C484 C485 1.387 . S
C484 N487 1.341 . S
C485 C483 1.400 . S
C485 C484 1.387 . S
N486 Co477 2.022 . S
N486 C483 1.351 . S
N486 N487 1.365 . S
N487 C484 1.341 . S
N487 N486 1.365 . S
N487 H507 0.862 . S
C488 C483 1.501 . S
C488 H489 0.961 . S
C488 H490 0.961 . S
C488 H491 0.960 . S
H489 C488 0.961 . S
H490 C488 0.961 . S
H491 C488 0.960 . S
C492 N493 1.342 . S
C492 C496 1.401 . S
C492 C497 1.499 . S
N493 Co476 1.989 . S
N493 C492 1.342 . S
N493 N494 1.388 . S
N494 Co477 1.993 . S
N494 N493 1.388 . S
N494 C495 1.346 . S
C495 N494 1.346 . S
C495 C496 1.396 . S
C495 C505 1.510 . S
C496 C492 1.401 . S
C496 C495 1.396 . S
C497 C492 1.499 . S
C497 H498 0.959 . S
C497 H499 0.960 . S
C497 H500 0.961 . S
H498 C497 0.959 . S
H499 C497 0.960 . S
H500 C497 0.961 . S
O501 Co476 1.967 . S
O501 C509 1.258 . S
O502 Co477 1.941 . S
O502 C509 1.266 . S
H503 C505 0.959 . S
H504 C505 0.961 . S
C505 C495 1.510 . S
C505 H503 0.959 . S
C505 H504 0.961 . S
C505 H506 0.960 . S
H506 C505 0.960 . S
H507 N487 0.862 . S
O508 Co476 1.920 . S
O508 C481 1.289 . S
C509 O501 1.258 . S
C509 O502 1.266 . S
Co510 O513 1.970 . S
Co510 N527 1.989 . S
Co510 O535 1.967 . S
Co510 O542 1.920 . S
Co511 O514 1.966 . S
Co511 N520 2.022 . S
Co511 N528 1.993 . S
Co511 O536 1.941 . S
C512 O513 1.258 . S
C512 O514 1.263 . S
O513 Co510 1.970 . S
O513 C512 1.258 . S
O514 Co511 1.966 . S
O514 C512 1.263 . S
C515 O516 1.235 . S
C515 O542 1.289 . S
O516 C515 1.235 . S
C517 C519 1.400 . S
C517 N520 1.351 . S
C517 C522 1.501 . S
C518 C519 1.387 . S
C518 N521 1.341 . S
C519 C517 1.400 . S
C519 C518 1.387 . S
N520 Co511 2.022 . S
N520 C517 1.351 . S
N520 N521 1.365 . S
N521 C518 1.341 . S
N521 N520 1.365 . S
N521 H541 0.862 . S
C522 C517 1.501 . S
C522 H523 0.961 . S
C522 H524 0.961 . S
C522 H525 0.960 . S
H523 C522 0.961 . S
H524 C522 0.961 . S
H525 C522 0.960 . S
C526 N527 1.342 . S
C526 C530 1.401 . S
C526 C531 1.499 . S
N527 Co510 1.989 . S
N527 C526 1.342 . S
N527 N528 1.388 . S
N528 Co511 1.993 . S
N528 N527 1.388 . S
N528 C529 1.346 . S
C529 N528 1.346 . S
C529 C530 1.396 . S
C529 C539 1.510 . S
C530 C526 1.401 . S
C530 C529 1.396 . S
C531 C526 1.499 . S
C531 H532 0.959 . S
C531 H533 0.960 . S
C531 H534 0.961 . S
H532 C531 0.959 . S
H533 C531 0.960 . S
H534 C531 0.961 . S
O535 Co510 1.967 . S
O535 C543 1.258 . S
O536 Co511 1.941 . S
O536 C543 1.266 . S
H537 C539 0.959 . S
H538 C539 0.961 . S
C539 C529 1.510 . S
C539 H537 0.959 . S
C539 H538 0.961 . S
C539 H540 0.960 . S
H540 C539 0.960 . S
H541 N521 0.862 . S
O542 Co510 1.920 . S
O542 C515 1.289 . S
C543 O535 1.258 . S
C543 O536 1.266 . S
Co544 O547 1.970 . S
Co544 N561 1.989 . S
Co544 O569 1.967 . S
Co544 O576 1.920 . S
Co545 O548 1.966 . S
Co545 N554 2.022 . S
Co545 N562 1.993 . S
Co545 O570 1.941 . S
C546 O547 1.258 . S
C546 O548 1.263 . S
O547 Co544 1.970 . S
O547 C546 1.258 . S
O548 Co545 1.966 . S
O548 C546 1.263 . S
C549 O550 1.235 . S
C549 O576 1.289 . S
O550 C549 1.235 . S
C551 C553 1.400 . S
C551 N554 1.351 . S
C551 C556 1.501 . S
C552 C553 1.387 . S
C552 N555 1.341 . S
C553 C551 1.400 . S
C553 C552 1.387 . S
N554 Co545 2.022 . S
N554 C551 1.351 . S
N554 N555 1.365 . S
N555 C552 1.341 . S
N555 N554 1.365 . S
N555 H575 0.862 . S
C556 C551 1.501 . S
C556 H557 0.961 . S
C556 H558 0.961 . S
C556 H559 0.960 . S
H557 C556 0.961 . S
H558 C556 0.961 . S
H559 C556 0.960 . S
C560 N561 1.342 . S
C560 C564 1.401 . S
C560 C565 1.499 . S
N561 Co544 1.989 . S
N561 C560 1.342 . S
N561 N562 1.388 . S
N562 Co545 1.993 . S
N562 N561 1.388 . S
N562 C563 1.346 . S
C563 N562 1.346 . S
C563 C564 1.396 . S
C563 C573 1.510 . S
C564 C560 1.401 . S
C564 C563 1.396 . S
C565 C560 1.499 . S
C565 H566 0.959 . S
C565 H567 0.960 . S
C565 H568 0.961 . S
H566 C565 0.959 . S
H567 C565 0.960 . S
H568 C565 0.961 . S
O569 Co544 1.967 . S
O569 C577 1.258 . S
O570 Co545 1.941 . S
O570 C577 1.266 . S
H571 C573 0.959 . S
H572 C573 0.961 . S
C573 C563 1.510 . S
C573 H571 0.959 . S
C573 H572 0.961 . S
C573 H574 0.960 . S
H574 C573 0.960 . S
H575 N555 0.862 . S
O576 Co544 1.920 . S
O576 C549 1.289 . S
C577 O569 1.258 . S
C577 O570 1.266 . S
Co578 O581 1.970 . S
Co578 N595 1.989 . S
Co578 O603 1.967 . S
Co578 O610 1.920 . S
Co579 O582 1.966 . S
Co579 N588 2.022 . S
Co579 N596 1.993 . S
Co579 O604 1.941 . S
C580 O581 1.258 . S
C580 O582 1.263 . S
O581 Co578 1.970 . S
O581 C580 1.258 . S
O582 Co579 1.966 . S
O582 C580 1.263 . S
C583 O584 1.235 . S
C583 O610 1.289 . S
O584 C583 1.235 . S
C585 C587 1.400 . S
C585 N588 1.351 . S
C585 C590 1.501 . S
C586 C587 1.387 . S
C586 N589 1.341 . S
C587 C585 1.400 . S
C587 C586 1.387 . S
N588 Co579 2.022 . S
N588 C585 1.351 . S
N588 N589 1.365 . S
N589 C586 1.341 . S
N589 N588 1.365 . S
N589 H609 0.862 . S
C590 C585 1.501 . S
C590 H591 0.961 . S
C590 H592 0.961 . S
C590 H593 0.960 . S
H591 C590 0.961 . S
H592 C590 0.961 . S
H593 C590 0.960 . S
C594 N595 1.342 . S
C594 C598 1.401 . S
C594 C599 1.499 . S
N595 Co578 1.989 . S
N595 C594 1.342 . S
N595 N596 1.388 . S
N596 Co579 1.993 . S
N596 N595 1.388 . S
N596 C597 1.346 . S
C597 N596 1.346 . S
C597 C598 1.396 . S
C597 C607 1.510 . S
C598 C594 1.401 . S
C598 C597 1.396 . S
C599 C594 1.499 . S
C599 H600 0.959 . S
C599 H601 0.960 . S
C599 H602 0.961 . S
H600 C599 0.959 . S
H601 C599 0.960 . S
H602 C599 0.961 . S
O603 Co578 1.967 . S
O603 C611 1.258 . S
O604 Co579 1.941 . S
O604 C611 1.266 . S
H605 C607 0.959 . S
H606 C607 0.961 . S
C607 C597 1.510 . S
C607 H605 0.959 . S
C607 H606 0.961 . S
C607 H608 0.960 . S
H608 C607 0.960 . S
H609 N589 0.862 . S
O610 Co578 1.920 . S
O610 C583 1.289 . S
C611 O603 1.258 . S
C611 O604 1.266 . S
Co612 O615 1.970 . S
Co612 N629 1.989 . S
Co612 O637 1.967 . S
Co612 O644 1.920 . S
Co613 O616 1.966 . S
Co613 N622 2.022 . S
Co613 N630 1.993 . S
Co613 O638 1.941 . S
C614 O615 1.258 . S
C614 O616 1.263 . S
O615 Co612 1.970 . S
O615 C614 1.258 . S
O616 Co613 1.966 . S
O616 C614 1.263 . S
C617 O618 1.235 . S
C617 O644 1.289 . S
O618 C617 1.235 . S
C619 C621 1.400 . S
C619 N622 1.351 . S
C619 C624 1.501 . S
C620 C621 1.387 . S
C620 N623 1.341 . S
C621 C619 1.400 . S
C621 C620 1.387 . S
N622 Co613 2.022 . S
N622 C619 1.351 . S
N622 N623 1.365 . S
N623 C620 1.341 . S
N623 N622 1.365 . S
N623 H643 0.862 . S
C624 C619 1.501 . S
C624 H625 0.961 . S
C624 H626 0.961 . S
C624 H627 0.960 . S
H625 C624 0.961 . S
H626 C624 0.961 . S
H627 C624 0.960 . S
C628 N629 1.342 . S
C628 C632 1.401 . S
C628 C633 1.499 . S
N629 Co612 1.989 . S
N629 C628 1.342 . S
N629 N630 1.388 . S
N630 Co613 1.993 . S
N630 N629 1.388 . S
N630 C631 1.346 . S
C631 N630 1.346 . S
C631 C632 1.396 . S
C631 C641 1.510 . S
C632 C628 1.401 . S
C632 C631 1.396 . S
C633 C628 1.499 . S
C633 H634 0.959 . S
C633 H635 0.960 . S
C633 H636 0.961 . S
H634 C633 0.959 . S
H635 C633 0.960 . S
H636 C633 0.961 . S
O637 Co612 1.967 . S
O637 C645 1.258 . S
O638 Co613 1.941 . S
O638 C645 1.266 . S
H639 C641 0.959 . S
H640 C641 0.961 . S
C641 C631 1.510 . S
C641 H639 0.959 . S
C641 H640 0.961 . S
C641 H642 0.960 . S
H642 C641 0.960 . S
H643 N623 0.862 . S
O644 Co612 1.920 . S
O644 C617 1.289 . S
C645 O637 1.258 . S
C645 O638 1.266 . S
Co646 O649 1.970 . S
Co646 N663 1.989 . S
Co646 O671 1.967 . S
Co646 O678 1.920 . S
Co647 O650 1.966 . S
Co647 N656 2.022 . S
Co647 N664 1.993 . S
Co647 O672 1.941 . S
C648 O649 1.258 . S
C648 O650 1.263 . S
O649 Co646 1.970 . S
O649 C648 1.258 . S
O650 Co647 1.966 . S
O650 C648 1.263 . S
C651 O652 1.235 . S
C651 O678 1.289 . S
O652 C651 1.235 . S
C653 C655 1.400 . S
C653 N656 1.351 . S
C653 C658 1.501 . S
C654 C655 1.387 . S
C654 N657 1.341 . S
C655 C653 1.400 . S
C655 C654 1.387 . S
N656 Co647 2.022 . S
N656 C653 1.351 . S
N656 N657 1.365 . S
N657 C654 1.341 . S
N657 N656 1.365 . S
N657 H677 0.862 . S
C658 C653 1.501 . S
C658 H659 0.961 . S
C658 H660 0.961 . S
C658 H661 0.960 . S
H659 C658 0.961 . S
H660 C658 0.961 . S
H661 C658 0.960 . S
C662 N663 1.342 . S
C662 C666 1.401 . S
C662 C667 1.499 . S
N663 Co646 1.989 . S
N663 C662 1.342 . S
N663 N664 1.388 . S
N664 Co647 1.993 . S
N664 N663 1.388 . S
N664 C665 1.346 . S
C665 N664 1.346 . S
C665 C666 1.396 . S
C665 C675 1.510 . S
C666 C662 1.401 . S
C666 C665 1.396 . S
C667 C662 1.499 . S
C667 H668 0.959 . S
C667 H669 0.960 . S
C667 H670 0.961 . S
H668 C667 0.959 . S
H669 C667 0.960 . S
H670 C667 0.961 . S
O671 Co646 1.967 . S
O671 C679 1.258 . S
O672 Co647 1.941 . S
O672 C679 1.266 . S
H673 C675 0.959 . S
H674 C675 0.961 . S
C675 C665 1.510 . S
C675 H673 0.959 . S
C675 H674 0.961 . S
C675 H676 0.960 . S
H676 C675 0.960 . S
H677 N657 0.862 . S
O678 Co646 1.920 . S
O678 C651 1.289 . S
C679 O671 1.258 . S
C679 O672 1.266 . S
Co680 O683 1.970 . S
Co680 N697 1.989 . S
Co680 O705 1.967 . S
Co680 O712 1.920 . S
Co681 O684 1.966 . S
Co681 N690 2.022 . S
Co681 N698 1.993 . S
Co681 O706 1.941 . S
C682 O683 1.258 . S
C682 O684 1.263 . S
O683 Co680 1.970 . S
O683 C682 1.258 . S
O684 Co681 1.966 . S
O684 C682 1.263 . S
C685 O686 1.235 . S
C685 O712 1.289 . S
O686 C685 1.235 . S
C687 C689 1.400 . S
C687 N690 1.351 . S
C687 C692 1.501 . S
C688 C689 1.387 . S
C688 N691 1.341 . S
C689 C687 1.400 . S
C689 C688 1.387 . S
N690 Co681 2.022 . S
N690 C687 1.351 . S
N690 N691 1.365 . S
N691 C688 1.341 . S
N691 N690 1.365 . S
N691 H711 0.862 . S
C692 C687 1.501 . S
C692 H693 0.961 . S
C692 H694 0.961 . S
C692 H695 0.960 . S
H693 C692 0.961 . S
H694 C692 0.961 . S
H695 C692 0.960 . S
C696 N697 1.342 . S
C696 C700 1.401 . S
C696 C701 1.499 . S
N697 Co680 1.989 . S
N697 C696 1.342 . S
N697 N698 1.388 . S
N698 Co681 1.993 . S
N698 N697 1.388 . S
N698 C699 1.346 . S
C699 N698 1.346 . S
C699 C700 1.396 . S
C699 C709 1.510 . S
C700 C696 1.401 . S
C700 C699 1.396 . S
C701 C696 1.499 . S
C701 H702 0.959 . S
C701 H703 0.960 . S
C701 H704 0.961 . S
H702 C701 0.959 . S
H703 C701 0.960 . S
H704 C701 0.961 . S
O705 Co680 1.967 . S
O705 C713 1.258 . S
O706 Co681 1.941 . S
O706 C713 1.266 . S
H707 C709 0.959 . S
H708 C709 0.961 . S
C709 C699 1.510 . S
C709 H707 0.959 . S
C709 H708 0.961 . S
C709 H710 0.960 . S
H710 C709 0.960 . S
H711 N691 0.862 . S
O712 Co680 1.920 . S
O712 C685 1.289 . S
C713 O705 1.258 . S
C713 O706 1.266 . S
Co714 O717 1.970 . S
Co714 N731 1.989 . S
Co714 O739 1.967 . S
Co714 O746 1.920 . S
Co715 O718 1.966 . S
Co715 N724 2.022 . S
Co715 N732 1.993 . S
Co715 O740 1.941 . S
C716 O717 1.258 . S
C716 O718 1.263 . S
O717 Co714 1.970 . S
O717 C716 1.258 . S
O718 Co715 1.966 . S
O718 C716 1.263 . S
C719 O720 1.235 . S
C719 O746 1.289 . S
O720 C719 1.235 . S
C721 C723 1.400 . S
C721 N724 1.351 . S
C721 C726 1.501 . S
C722 C723 1.387 . S
C722 N725 1.341 . S
C723 C721 1.400 . S
C723 C722 1.387 . S
N724 Co715 2.022 . S
N724 C721 1.351 . S
N724 N725 1.365 . S
N725 C722 1.341 . S
N725 N724 1.365 . S
N725 H745 0.862 . S
C726 C721 1.501 . S
C726 H727 0.961 . S
C726 H728 0.961 . S
C726 H729 0.960 . S
H727 C726 0.961 . S
H728 C726 0.961 . S
H729 C726 0.960 . S
C730 N731 1.342 . S
C730 C734 1.401 . S
C730 C735 1.499 . S
N731 Co714 1.989 . S
N731 C730 1.342 . S
N731 N732 1.388 . S
N732 Co715 1.993 . S
N732 N731 1.388 . S
N732 C733 1.346 . S
C733 N732 1.346 . S
C733 C734 1.396 . S
C733 C743 1.510 . S
C734 C730 1.401 . S
C734 C733 1.396 . S
C735 C730 1.499 . S
C735 H736 0.959 . S
C735 H737 0.960 . S
C735 H738 0.961 . S
H736 C735 0.959 . S
H737 C735 0.960 . S
H738 C735 0.961 . S
O739 Co714 1.967 . S
O739 C747 1.258 . S
O740 Co715 1.941 . S
O740 C747 1.266 . S
H741 C743 0.959 . S
H742 C743 0.961 . S
C743 C733 1.510 . S
C743 H741 0.959 . S
C743 H742 0.961 . S
C743 H744 0.960 . S
H744 C743 0.960 . S
H745 N725 0.862 . S
O746 Co714 1.920 . S
O746 C719 1.289 . S
C747 O739 1.258 . S
C747 O740 1.266 . S
Co748 O751 1.970 . S
Co748 N765 1.989 . S
Co748 O773 1.967 . S
Co748 O780 1.920 . S
Co749 O752 1.966 . S
Co749 N758 2.022 . S
Co749 N766 1.993 . S
Co749 O774 1.941 . S
C750 O751 1.258 . S
C750 O752 1.263 . S
O751 Co748 1.970 . S
O751 C750 1.258 . S
O752 Co749 1.966 . S
O752 C750 1.263 . S
C753 O754 1.235 . S
C753 O780 1.289 . S
O754 C753 1.235 . S
C755 C757 1.400 . S
C755 N758 1.351 . S
C755 C760 1.501 . S
C756 C757 1.387 . S
C756 N759 1.341 . S
C757 C755 1.400 . S
C757 C756 1.387 . S
N758 Co749 2.022 . S
N758 C755 1.351 . S
N758 N759 1.365 . S
N759 C756 1.341 . S
N759 N758 1.365 . S
N759 H779 0.862 . S
C760 C755 1.501 . S
C760 H761 0.961 . S
C760 H762 0.961 . S
C760 H763 0.960 . S
H761 C760 0.961 . S
H762 C760 0.961 . S
H763 C760 0.960 . S
C764 N765 1.342 . S
C764 C768 1.401 . S
C764 C769 1.499 . S
N765 Co748 1.989 . S
N765 C764 1.342 . S
N765 N766 1.388 . S
N766 Co749 1.993 . S
N766 N765 1.388 . S
N766 C767 1.346 . S
C767 N766 1.346 . S
C767 C768 1.396 . S
C767 C777 1.510 . S
C768 C764 1.401 . S
C768 C767 1.396 . S
C769 C764 1.499 . S
C769 H770 0.959 . S
C769 H771 0.960 . S
C769 H772 0.961 . S
H770 C769 0.959 . S
H771 C769 0.960 . S
H772 C769 0.961 . S
O773 Co748 1.967 . S
O773 C781 1.258 . S
O774 Co749 1.941 . S
O774 C781 1.266 . S
H775 C777 0.959 . S
H776 C777 0.961 . S
C777 C767 1.510 . S
C777 H775 0.959 . S
C777 H776 0.961 . S
C777 H778 0.960 . S
H778 C777 0.960 . S
H779 N759 0.862 . S
O780 Co748 1.920 . S
O780 C753 1.289 . S
C781 O773 1.258 . S
C781 O774 1.266 . S
Co782 O785 1.970 . S
Co782 N799 1.989 . S
Co782 O807 1.967 . S
Co782 O814 1.920 . S
Co783 O786 1.966 . S
Co783 N792 2.022 . S
Co783 N800 1.993 . S
Co783 O808 1.941 . S
C784 O785 1.258 . S
C784 O786 1.263 . S
O785 Co782 1.970 . S
O785 C784 1.258 . S
O786 Co783 1.966 . S
O786 C784 1.263 . S
C787 O788 1.235 . S
C787 O814 1.289 . S
O788 C787 1.235 . S
C789 C791 1.400 . S
C789 N792 1.351 . S
C789 C794 1.501 . S
C790 C791 1.387 . S
C790 N793 1.341 . S
C791 C789 1.400 . S
C791 C790 1.387 . S
N792 Co783 2.022 . S
N792 C789 1.351 . S
N792 N793 1.365 . S
N793 C790 1.341 . S
N793 N792 1.365 . S
N793 H813 0.862 . S
C794 C789 1.501 . S
C794 H795 0.961 . S
C794 H796 0.961 . S
C794 H797 0.960 . S
H795 C794 0.961 . S
H796 C794 0.961 . S
H797 C794 0.960 . S
C798 N799 1.342 . S
C798 C802 1.401 . S
C798 C803 1.499 . S
N799 Co782 1.989 . S
N799 C798 1.342 . S
N799 N800 1.388 . S
N800 Co783 1.993 . S
N800 N799 1.388 . S
N800 C801 1.346 . S
C801 N800 1.346 . S
C801 C802 1.396 . S
C801 C811 1.510 . S
C802 C798 1.401 . S
C802 C801 1.396 . S
C803 C798 1.499 . S
C803 H804 0.959 . S
C803 H805 0.960 . S
C803 H806 0.961 . S
H804 C803 0.959 . S
H805 C803 0.960 . S
H806 C803 0.961 . S
O807 Co782 1.967 . S
O807 C815 1.258 . S
O808 Co783 1.941 . S
O808 C815 1.266 . S
H809 C811 0.959 . S
H810 C811 0.961 . S
C811 C801 1.510 . S
C811 H809 0.959 . S
C811 H810 0.961 . S
C811 H812 0.960 . S
H812 C811 0.960 . S
H813 N793 0.862 . S
O814 Co782 1.920 . S
O814 C787 1.289 . S
C815 O807 1.258 . S
C815 O808 1.266 . S
H816 C828 0.930 . S
H817 C830 0.930 . S
H818 C831 0.930 1_455 S
H819 C835 0.959 . S
H820 C835 0.959 . S
H821 C835 0.961 . S
H822 C836 0.960 . S
H823 C836 0.961 . S
H824 C836 0.959 . S
H825 C839 0.929 . S
H826 C840 0.931 . S
H827 C842 0.930 . S
C828 H816 0.930 . S
C828 C829 1.399 . S
C828 C833 1.399 . S
C829 C828 1.399 . S
C829 C830 1.376 . S
C830 H817 0.930 . S
C830 C829 1.376 . S
C830 C831 1.388 . S
C831 H818 0.930 1_655 S
C831 C830 1.388 . S
C831 C832 1.390 . S
C832 C831 1.390 . S
C832 C833 1.394 . S
C832 C838 1.465 1_655 S
C833 C828 1.399 . S
C833 C832 1.394 . S
C833 C834 1.516 . S
C834 C833 1.516 . S
C834 C835 1.502 . S
C834 C836 1.561 . S
C834 C837 1.526 1_655 S
C835 H819 0.959 . S
C835 H820 0.959 . S
C835 H821 0.961 . S
C835 C834 1.502 . S
C836 H822 0.960 . S
C836 H823 0.961 . S
C836 H824 0.959 . S
C836 C834 1.561 . S
C837 C834 1.526 1_455 S
C837 C838 1.396 . S
C837 C842 1.390 . S
C838 C832 1.465 1_455 S
C838 C837 1.396 . S
C838 C839 1.399 . S
C839 H825 0.929 . S
C839 C838 1.399 . S
C839 C840 1.385 . S
C840 H826 0.931 . S
C840 C839 1.385 . S
C840 C841 1.389 . S
C841 C840 1.389 . S
C841 C842 1.387 . S
C842 H827 0.930 . S
C842 C837 1.390 . S
C842 C841 1.387 . S
H843 C855 0.930 . S
H844 C857 0.930 . S
H845 C858 0.930 . S
H846 C862 0.959 . S
H847 C862 0.959 . S
H848 C862 0.961 . S
H849 C863 0.960 . S
H850 C863 0.961 1_545 S
H851 C863 0.959 . S
H852 C866 0.929 . S
H853 C867 0.931 . S
H854 C869 0.930 . S
C855 H843 0.930 . S
C855 C856 1.399 . S
C855 C860 1.399 . S
C856 C855 1.399 . S
C856 C857 1.376 . S
C857 H844 0.930 . S
C857 C856 1.376 . S
C857 C858 1.388 . S
C858 H845 0.930 . S
C858 C857 1.388 . S
C858 C859 1.390 . S
C859 C858 1.390 . S
C859 C860 1.394 . S
C859 C865 1.465 1_565 S
C860 C855 1.399 . S
C860 C859 1.394 . S
C860 C861 1.516 1_565 S
C861 C860 1.516 1_545 S
C861 C862 1.502 . S
C861 C863 1.561 1_545 S
C861 C864 1.526 . S
C862 H846 0.959 . S
C862 H847 0.959 . S
C862 H848 0.961 . S
C862 C861 1.502 . S
C863 H849 0.960 . S
C863 H850 0.961 1_565 S
C863 H851 0.959 . S
C863 C861 1.561 1_565 S
C864 C861 1.526 . S
C864 C865 1.396 . S
C864 C869 1.390 . S
C865 C859 1.465 1_545 S
C865 C864 1.396 . S
C865 C866 1.399 . S
C866 H852 0.929 . S
C866 C865 1.399 . S
C866 C867 1.385 . S
C867 H853 0.931 . S
C867 C866 1.385 . S
C867 C868 1.389 . S
C868 C867 1.389 . S
C868 C869 1.387 . S
C869 H854 0.930 . S
C869 C864 1.390 . S
C869 C868 1.387 . S
H870 C882 0.930 . S
H871 C884 0.930 . S
H872 C885 0.930 . S
H873 C889 0.959 . S
H874 C889 0.959 . S
H875 C889 0.961 . S
H876 C890 0.960 . S
H877 C890 0.961 . S
H878 C890 0.959 . S
H879 C893 0.929 . S
H880 C894 0.931 . S
H881 C896 0.930 . S
C882 H870 0.930 . S
C882 C883 1.399 . S
C882 C887 1.399 . S
C883 C882 1.399 . S
C883 C884 1.376 . S
C884 H871 0.930 . S
C884 C883 1.376 . S
C884 C885 1.388 . S
C885 H872 0.930 . S
C885 C884 1.388 . S
C885 C886 1.390 . S
C886 C885 1.390 . S
C886 C887 1.394 . S
C886 C892 1.465 1_455 S
C887 C882 1.399 . S
C887 C886 1.394 . S
C887 C888 1.516 1_455 S
C888 C887 1.516 1_655 S
C888 C889 1.502 . S
C888 C890 1.561 . S
C888 C891 1.526 . S
C889 H873 0.959 . S
C889 H874 0.959 . S
C889 H875 0.961 . S
C889 C888 1.502 . S
C890 H876 0.960 . S
C890 H877 0.961 . S
C890 H878 0.959 . S
C890 C888 1.561 . S
C891 C888 1.526 . S
C891 C892 1.396 . S
C891 C896 1.390 . S
C892 C886 1.465 1_655 S
C892 C891 1.396 . S
C892 C893 1.399 . S
C893 H879 0.929 . S
C893 C892 1.399 . S
C893 C894 1.385 . S
C894 H880 0.931 . S
C894 C893 1.385 . S
C894 C895 1.389 . S
C895 C894 1.389 . S
C895 C896 1.387 . S
C896 H881 0.930 . S
C896 C891 1.390 . S
C896 C895 1.387 . S
H897 C909 0.930 . S
H898 C911 0.930 . S
H899 C912 0.930 . S
H900 C916 0.959 . S
H901 C916 0.959 . S
H902 C916 0.961 . S
H903 C917 0.960 . S
H904 C917 0.961 . S
H905 C917 0.936 1_545 S
H906 C920 0.929 . S
H907 C921 0.931 . S
H908 C923 0.930 . S
C909 H897 0.930 . S
C909 C910 1.399 . S
C909 C914 1.399 . S
C910 C909 1.399 . S
C910 C911 1.376 . S
C911 H898 0.930 . S
C911 C910 1.376 . S
C911 C912 1.388 . S
C912 H899 0.930 . S
C912 C911 1.388 . S
C912 C913 1.390 . S
C913 C912 1.390 . S
C913 C914 1.394 . S
C913 C919 1.465 1_565 S
C914 C909 1.399 . S
C914 C913 1.394 . S
C914 C915 1.516 . S
C915 C914 1.516 . S
C915 C916 1.502 . S
C915 C917 1.561 . S
C915 C918 1.526 1_565 S
C916 H900 0.959 . S
C916 H901 0.959 . S
C916 H902 0.961 . S
C916 C915 1.502 . S
C917 H903 0.960 . S
C917 H904 0.961 . S
C917 H905 0.936 1_565 S
C917 C915 1.561 . S
C918 C915 1.526 1_545 S
C918 C919 1.396 . S
C918 C923 1.390 . S
C919 C913 1.465 1_545 S
C919 C918 1.396 . S
C919 C920 1.399 . S
C920 H906 0.929 . S
C920 C919 1.399 . S
C920 C921 1.385 . S
C921 H907 0.931 . S
C921 C920 1.385 . S
C921 C922 1.389 . S
C922 C921 1.389 . S
C922 C923 1.387 . S
C923 H908 0.930 . S
C923 C918 1.390 . S
C923 C922 1.387 . S
H924 C936 0.930 . S
H925 C938 0.930 . S
H926 C939 0.930 . S
H927 C943 0.959 . S
H928 C943 0.959 . S
H929 C943 0.961 1_655 S
H930 C944 0.960 . S
H931 C944 0.961 . S
H932 C944 0.959 . S
H933 C947 0.929 . S
H934 C948 0.931 . S
H935 C950 0.930 . S
C936 H924 0.930 . S
C936 C937 1.399 . S
C936 C941 1.399 . S
C937 C936 1.399 . S
C937 C938 1.376 . S
C938 H925 0.930 . S
C938 C937 1.376 . S
C938 C939 1.388 . S
C939 H926 0.930 . S
C939 C938 1.388 . S
C939 C940 1.390 . S
C940 C939 1.390 . S
C940 C941 1.394 . S
C940 C946 1.465 1_655 S
C941 C936 1.399 . S
C941 C940 1.394 . S
C941 C942 1.516 . S
C942 C941 1.516 . S
C942 C943 1.502 1_655 S
C942 C944 1.561 . S
C942 C945 1.526 1_655 S
C943 H927 0.959 . S
C943 H928 0.959 . S
C943 H929 0.961 1_455 S
C943 C942 1.502 1_455 S
C944 H930 0.960 . S
C944 H931 0.961 . S
C944 H932 0.959 . S
C944 C942 1.561 . S
C945 C942 1.526 1_455 S
C945 C946 1.396 . S
C945 C950 1.390 . S
C946 C940 1.465 1_455 S
C946 C945 1.396 . S
C946 C947 1.399 . S
C947 H933 0.929 . S
C947 C946 1.399 . S
C947 C948 1.385 . S
C948 H934 0.931 . S
C948 C947 1.385 . S
C948 C949 1.389 . S
C949 C948 1.389 . S
C949 C950 1.387 . S
C950 H935 0.930 . S
C950 C945 1.390 . S
C950 C949 1.387 . S
H951 C963 0.930 . S
H952 C965 0.930 . S
H953 C966 0.930 . S
H954 C970 0.959 . S
H955 C970 0.959 . S
H956 C970 0.961 . S
H957 C971 0.960 1_545 S
H958 C971 0.961 . S
H959 C971 0.969 . S
H960 C974 0.929 . S
H961 C975 0.931 . S
H962 C977 0.930 . S
C963 H951 0.930 . S
C963 C964 1.399 . S
C963 C968 1.399 . S
C964 C963 1.399 . S
C964 C965 1.376 . S
C965 H952 0.930 . S
C965 C964 1.376 . S
C965 C966 1.388 . S
C966 H953 0.930 . S
C966 C965 1.388 . S
C966 C967 1.390 . S
C967 C966 1.390 . S
C967 C968 1.394 . S
C967 C973 1.465 1_545 S
C968 C963 1.399 . S
C968 C967 1.394 . S
C968 C969 1.516 1_545 S
C969 C968 1.516 1_565 S
C969 C970 1.502 . S
C969 C971 1.561 . S
C969 C972 1.526 . S
C970 H954 0.959 . S
C970 H955 0.959 . S
C970 H956 0.961 . S
C970 C969 1.502 . S
C971 H957 0.960 1_565 S
C971 H958 0.961 . S
C971 H959 0.969 . S
C971 C969 1.561 . S
C972 C969 1.526 . S
C972 C973 1.396 . S
C972 C977 1.390 . S
C973 C967 1.465 1_565 S
C973 C972 1.396 . S
C973 C974 1.399 . S
C974 H960 0.929 . S
C974 C973 1.399 . S
C974 C975 1.385 . S
C975 H961 0.931 . S
C975 C974 1.385 . S
C975 C976 1.389 . S
C976 C975 1.389 . S
C976 C977 1.387 . S
C977 H962 0.930 . S
C977 C972 1.390 . S
C977 C976 1.387 . S
H978 C990 0.930 . S
H979 C992 0.930 . S
H980 C993 0.930 . S
H981 C997 0.959 . S
H982 C997 0.959 . S
H983 C997 0.961 . S
H984 C998 0.960 . S
H985 C998 0.961 . S
H986 C998 0.959 . S
H987 C1001 0.929 1_655 S
H988 C1002 0.931 . S
H989 C1004 0.930 . S
C990 H978 0.930 . S
C990 C991 1.399 . S
C990 C995 1.399 . S
C991 C990 1.399 . S
C991 C992 1.376 . S
C992 H979 0.930 . S
C992 C991 1.376 . S
C992 C993 1.388 . S
C993 H980 0.930 . S
C993 C992 1.388 . S
C993 C994 1.390 . S
C994 C993 1.390 . S
C994 C995 1.394 . S
C994 C1000 1.465 1_655 S
C995 C990 1.399 . S
C995 C994 1.394 . S
C995 C996 1.516 1_655 S
C996 C995 1.516 1_455 S
C996 C997 1.502 . S
C996 C998 1.561 . S
C996 C999 1.526 . S
C997 H981 0.959 . S
C997 H982 0.959 . S
C997 H983 0.961 . S
C997 C996 1.502 . S
C998 H984 0.960 . S
C998 H985 0.961 . S
C998 H986 0.959 . S
C998 C996 1.561 . S
C999 C996 1.526 . S
C999 C1000 1.396 . S
C999 C1004 1.390 . S
C1000 C994 1.465 1_455 S
C1000 C999 1.396 . S
C1000 C1001 1.399 . S
C1001 H987 0.929 1_455 S
C1001 C1000 1.399 . S
C1001 C1002 1.385 . S
C1002 H988 0.931 . S
C1002 C1001 1.385 . S
C1002 C1003 1.389 . S
C1003 C1002 1.389 . S
C1003 C1004 1.387 . S
C1004 H989 0.930 . S
C1004 C999 1.390 . S
C1004 C1003 1.387 . S
H1005 C1017 0.930 . S
H1006 C1019 0.930 . S
H1007 C1020 0.930 . S
H1008 C1024 0.959 . S
H1009 C1024 0.959 . S
H1010 C1024 0.961 . S
H1011 C1025 0.960 . S
H1012 C1025 0.961 . S
H1013 C1025 0.959 . S
H1014 C1028 0.929 1_565 S
H1015 C1029 0.931 . S
H1016 C1031 0.930 . S
C1017 H1005 0.930 . S
C1017 C1018 1.399 . S
C1017 C1022 1.399 . S
C1018 C1017 1.399 . S
C1018 C1019 1.376 . S
C1019 H1006 0.930 . S
C1019 C1018 1.376 . S
C1019 C1020 1.388 . S
C1020 H1007 0.930 . S
C1020 C1019 1.388 . S
C1020 C1021 1.390 . S
C1021 C1020 1.390 . S
C1021 C1022 1.394 . S
C1021 C1027 1.465 1_565 S
C1022 C1017 1.399 . S
C1022 C1021 1.394 . S
C1022 C1023 1.516 1_565 S
C1023 C1022 1.516 1_545 S
C1023 C1024 1.502 . S
C1023 C1025 1.561 . S
C1023 C1026 1.526 . S
C1024 H1008 0.959 . S
C1024 H1009 0.959 . S
C1024 H1010 0.961 . S
C1024 C1023 1.502 . S
C1025 H1011 0.960 . S
C1025 H1012 0.961 . S
C1025 H1013 0.959 . S
C1025 C1023 1.561 . S
C1026 C1023 1.526 . S
C1026 C1027 1.396 . S
C1026 C1031 1.390 . S
C1027 C1021 1.465 1_545 S
C1027 C1026 1.396 . S
C1027 C1028 1.399 . S
C1028 H1014 0.929 1_545 S
C1028 C1027 1.399 . S
C1028 C1029 1.385 . S
C1029 H1015 0.931 . S
C1029 C1028 1.385 . S
C1029 C1030 1.389 . S
C1030 C1029 1.389 . S
C1030 C1031 1.387 . S
C1031 H1016 0.930 . S
C1031 C1026 1.390 . S
C1031 C1030 1.387 . S
H1032 C1044 0.930 . S
H1033 C1046 0.930 . S
H1034 C1047 0.930 . S
H1035 C1051 0.959 . S
H1036 C1051 0.959 . S
H1037 C1051 0.961 1_554 S
H1038 C1052 0.960 . S
H1039 C1052 0.961 . S
H1040 C1052 0.959 . S
H1041 C1055 0.929 . S
H1042 C1056 0.931 . S
H1043 C1058 0.930 . S
C1044 H1032 0.930 . S
C1044 C1045 1.399 . S
C1044 C1049 1.399 . S
C1045 C1044 1.399 . S
C1045 C1046 1.376 . S
C1046 H1033 0.930 . S
C1046 C1045 1.376 . S
C1046 C1047 1.388 . S
C1047 H1034 0.930 . S
C1047 C1046 1.388 . S
C1047 C1048 1.390 . S
C1048 C1047 1.390 . S
C1048 C1049 1.394 . S
C1048 C1054 1.465 1_554 S
C1049 C1044 1.399 . S
C1049 C1048 1.394 . S
C1049 C1050 1.516 . S
C1050 C1049 1.516 . S
C1050 C1051 1.502 1_554 S
C1050 C1052 1.561 . S
C1050 C1053 1.526 1_554 S
C1051 H1035 0.959 . S
C1051 H1036 0.959 . S
C1051 H1037 0.961 1_556 S
C1051 C1050 1.502 1_556 S
C1052 H1038 0.960 . S
C1052 H1039 0.961 . S
C1052 H1040 0.959 . S
C1052 C1050 1.561 . S
C1053 C1050 1.526 1_556 S
C1053 C1054 1.396 . S
C1053 C1058 1.390 . S
C1054 C1048 1.465 1_556 S
C1054 C1053 1.396 . S
C1054 C1055 1.399 . S
C1055 H1041 0.929 . S
C1055 C1054 1.399 . S
C1055 C1056 1.385 . S
C1056 H1042 0.931 . S
C1056 C1055 1.385 . S
C1056 C1057 1.389 . S
C1057 C1056 1.389 . S
C1057 C1058 1.387 . S
C1058 H1043 0.930 . S
C1058 C1053 1.390 . S
C1058 C1057 1.387 . S
H1059 C1071 0.930 . S
H1060 C1073 0.930 . S
H1061 C1074 0.930 . S
H1062 C1078 0.959 1_554 S
H1063 C1078 0.959 . S
H1064 C1078 0.961 1_554 S
H1065 C1079 0.960 . S
H1066 C1079 0.961 . S
H1067 C1079 0.959 . S
H1068 C1082 0.929 . S
H1069 C1083 0.931 . S
H1070 C1085 0.930 . S
C1071 H1059 0.930 . S
C1071 C1072 1.399 . S
C1071 C1076 1.399 . S
C1072 C1071 1.399 . S
C1072 C1073 1.376 . S
C1073 H1060 0.930 . S
C1073 C1072 1.376 . S
C1073 C1074 1.388 . S
C1074 H1061 0.930 . S
C1074 C1073 1.388 . S
C1074 C1075 1.390 . S
C1075 C1074 1.390 . S
C1075 C1076 1.394 . S
C1075 C1081 1.465 1_554 S
C1076 C1071 1.399 . S
C1076 C1075 1.394 . S
C1076 C1077 1.516 1_554 S
C1077 C1076 1.516 1_556 S
C1077 C1078 1.502 . S
C1077 C1079 1.561 . S
C1077 C1080 1.526 . S
C1078 H1062 0.959 1_556 S
C1078 H1063 0.959 . S
C1078 H1064 0.961 1_556 S
C1078 C1077 1.502 . S
C1079 H1065 0.960 . S
C1079 H1066 0.961 . S
C1079 H1067 0.959 . S
C1079 C1077 1.561 . S
C1080 C1077 1.526 . S
C1080 C1081 1.396 . S
C1080 C1085 1.390 . S
C1081 C1075 1.465 1_556 S
C1081 C1080 1.396 . S
C1081 C1082 1.399 . S
C1082 H1068 0.929 . S
C1082 C1081 1.399 . S
C1082 C1083 1.385 . S
C1083 H1069 0.931 . S
C1083 C1082 1.385 . S
C1083 C1084 1.389 . S
C1084 C1083 1.389 . S
C1084 C1085 1.387 . S
C1085 H1070 0.930 . S
C1085 C1080 1.390 . S
C1085 C1084 1.387 . S
H1086 C1098 0.930 . S
H1087 C1100 0.930 . S
H1088 C1101 0.930 . S
H1089 C1105 0.959 . S
H1090 C1105 0.959 . S
H1091 C1105 0.961 . S
H1092 C1106 0.960 . S
H1093 C1106 0.961 . S
H1094 C1106 0.959 . S
H1095 C1109 0.929 1_556 S
H1096 C1110 0.931 . S
H1097 C1112 0.930 . S
C1098 H1086 0.930 . S
C1098 C1099 1.399 . S
C1098 C1103 1.399 . S
C1099 C1098 1.399 . S
C1099 C1100 1.376 . S
C1100 H1087 0.930 . S
C1100 C1099 1.376 . S
C1100 C1101 1.388 . S
C1101 H1088 0.930 . S
C1101 C1100 1.388 . S
C1101 C1102 1.390 . S
C1102 C1101 1.390 . S
C1102 C1103 1.394 . S
C1102 C1108 1.465 1_556 S
C1103 C1098 1.399 . S
C1103 C1102 1.394 . S
C1103 C1104 1.516 1_556 S
C1104 C1103 1.516 1_554 S
C1104 C1105 1.502 . S
C1104 C1106 1.561 . S
C1104 C1107 1.526 . S
C1105 H1089 0.959 . S
C1105 H1090 0.959 . S
C1105 H1091 0.961 . S
C1105 C1104 1.502 . S
C1106 H1092 0.960 . S
C1106 H1093 0.961 . S
C1106 H1094 0.959 . S
C1106 C1104 1.561 . S
C1107 C1104 1.526 . S
C1107 C1108 1.396 . S
C1107 C1112 1.390 . S
C1108 C1102 1.465 1_554 S
C1108 C1107 1.396 . S
C1108 C1109 1.399 . S
C1109 H1095 0.929 1_554 S
C1109 C1108 1.399 . S
C1109 C1110 1.385 . S
C1110 H1096 0.931 . S
C1110 C1109 1.385 . S
C1110 C1111 1.389 . S
C1111 C1110 1.389 . S
C1111 C1112 1.387 . S
C1112 H1097 0.930 . S
C1112 C1107 1.390 . S
C1112 C1111 1.387 . S
H1113 C1125 0.930 . S
H1114 C1127 0.930 . S
H1115 C1128 0.930 . S
H1116 C1132 0.959 . S
H1117 C1132 0.959 . S
H1118 C1132 0.961 . S
H1119 C1133 0.960 1_554 S
H1120 C1133 0.961 . S
H1121 C1133 0.959 . S
H1122 C1136 0.929 . S
H1123 C1137 0.931 . S
H1124 C1139 0.930 . S
C1125 H1113 0.930 . S
C1125 C1126 1.399 . S
C1125 C1130 1.399 . S
C1126 C1125 1.399 . S
C1126 C1127 1.376 . S
C1127 H1114 0.930 . S
C1127 C1126 1.376 . S
C1127 C1128 1.388 . S
C1128 H1115 0.930 . S
C1128 C1127 1.388 . S
C1128 C1129 1.390 . S
C1129 C1128 1.390 . S
C1129 C1130 1.394 . S
C1129 C1135 1.465 1_554 S
C1130 C1125 1.399 . S
C1130 C1129 1.394 . S
C1130 C1131 1.516 . S
C1131 C1130 1.516 . S
C1131 C1132 1.502 . S
C1131 C1133 1.561 1_554 S
C1131 C1134 1.526 1_554 S
C1132 H1116 0.959 . S
C1132 H1117 0.959 . S
C1132 H1118 0.961 . S
C1132 C1131 1.502 . S
C1133 H1119 0.960 1_556 S
C1133 H1120 0.961 . S
C1133 H1121 0.959 . S
C1133 C1131 1.561 1_556 S
C1134 C1131 1.526 1_556 S
C1134 C1135 1.396 . S
C1134 C1139 1.390 . S
C1135 C1129 1.465 1_556 S
C1135 C1134 1.396 . S
C1135 C1136 1.399 . S
C1136 H1122 0.929 . S
C1136 C1135 1.399 . S
C1136 C1137 1.385 . S
C1137 H1123 0.931 . S
C1137 C1136 1.385 . S
C1137 C1138 1.389 . S
C1138 C1137 1.389 . S
C1138 C1139 1.387 . S
C1139 H1124 0.930 . S
C1139 C1134 1.390 . S
C1139 C1138 1.387 . S
H1140 C1152 0.930 . S
H1141 C1154 0.930 . S
H1142 C1155 0.930 . S
H1143 C1159 0.959 . S
H1144 C1159 0.959 . S
H1145 C1159 0.961 . S
H1146 C1160 0.960 . S
H1147 C1160 0.961 . S
H1148 C1160 0.959 . S
H1149 C1163 0.929 . S
H1150 C1164 0.931 . S
H1151 C1166 0.930 . S
C1152 H1140 0.930 . S
C1152 C1153 1.399 . S
C1152 C1157 1.399 . S
C1153 C1152 1.399 . S
C1153 C1154 1.376 . S
C1154 H1141 0.930 . S
C1154 C1153 1.376 . S
C1154 C1155 1.388 . S
C1155 H1142 0.930 . S
C1155 C1154 1.388 . S
C1155 C1156 1.390 . S
C1156 C1155 1.390 . S
C1156 C1157 1.394 . S
C1156 C1162 1.465 . S
C1157 C1152 1.399 . S
C1157 C1156 1.394 . S
C1157 C1158 1.516 . S
C1158 C1157 1.516 . S
C1158 C1159 1.502 . S
C1158 C1160 1.561 . S
C1158 C1161 1.526 . S
C1159 H1143 0.959 . S
C1159 H1144 0.959 . S
C1159 H1145 0.961 . S
C1159 C1158 1.502 . S
C1160 H1146 0.960 . S
C1160 H1147 0.961 . S
C1160 H1148 0.959 . S
C1160 C1158 1.561 . S
C1161 C1158 1.526 . S
C1161 C1162 1.396 . S
C1161 C1166 1.390 . S
C1162 C1156 1.465 . S
C1162 C1161 1.396 . S
C1162 C1163 1.399 . S
C1163 H1149 0.929 . S
C1163 C1162 1.399 . S
C1163 C1164 1.385 . S
C1164 H1150 0.931 . S
C1164 C1163 1.385 . S
C1164 C1165 1.389 . S
C1165 C1164 1.389 . S
C1165 C1166 1.387 . S
C1166 H1151 0.930 . S
C1166 C1161 1.390 . S
C1166 C1165 1.387 . S
H1167 C1179 0.930 . S
H1168 C1181 0.930 . S
H1169 C1182 0.930 . S
H1170 C1186 0.959 . S
H1171 C1186 0.959 . S
H1172 C1186 0.961 . S
H1173 C1187 0.960 . S
H1174 C1187 0.961 . S
H1175 C1187 0.959 . S
H1176 C1190 0.929 . S
H1177 C1191 0.931 . S
H1178 C1193 0.930 . S
C1179 H1167 0.930 . S
C1179 C1180 1.399 . S
C1179 C1184 1.399 . S
C1180 C1179 1.399 . S
C1180 C1181 1.376 . S
C1181 H1168 0.930 . S
C1181 C1180 1.376 . S
C1181 C1182 1.388 . S
C1182 H1169 0.930 . S
C1182 C1181 1.388 . S
C1182 C1183 1.390 . S
C1183 C1182 1.390 . S
C1183 C1184 1.394 . S
C1183 C1189 1.465 . S
C1184 C1179 1.399 . S
C1184 C1183 1.394 . S
C1184 C1185 1.516 . S
C1185 C1184 1.516 . S
C1185 C1186 1.502 . S
C1185 C1187 1.561 . S
C1185 C1188 1.526 . S
C1186 H1170 0.959 . S
C1186 H1171 0.959 . S
C1186 H1172 0.961 . S
C1186 C1185 1.502 . S
C1187 H1173 0.960 . S
C1187 H1174 0.961 . S
C1187 H1175 0.959 . S
C1187 C1185 1.561 . S
C1188 C1185 1.526 . S
C1188 C1189 1.396 . S
C1188 C1193 1.390 . S
C1189 C1183 1.465 . S
C1189 C1188 1.396 . S
C1189 C1190 1.399 . S
C1190 H1176 0.929 . S
C1190 C1189 1.399 . S
C1190 C1191 1.385 . S
C1191 H1177 0.931 . S
C1191 C1190 1.385 . S
C1191 C1192 1.389 . S
C1192 C1191 1.389 . S
C1192 C1193 1.387 . S
C1193 H1178 0.930 . S
C1193 C1188 1.390 . S
C1193 C1192 1.387 . S
H1194 C1206 0.930 . S
H1195 C1208 0.930 . S
H1196 C1209 0.930 . S
H1197 C1213 0.959 . S
H1198 C1213 0.959 . S
H1199 C1213 0.961 . S
H1200 C1214 0.960 . S
H1201 C1214 0.961 . S
H1202 C1214 0.959 . S
H1203 C1217 0.929 . S
H1204 C1218 0.931 . S
H1205 C1220 0.930 . S
C1206 H1194 0.930 . S
C1206 C1207 1.399 . S
C1206 C1211 1.399 . S
C1207 C1206 1.399 . S
C1207 C1208 1.376 . S
C1208 H1195 0.930 . S
C1208 C1207 1.376 . S
C1208 C1209 1.388 . S
C1209 H1196 0.930 . S
C1209 C1208 1.388 . S
C1209 C1210 1.390 . S
C1210 C1209 1.390 . S
C1210 C1211 1.394 . S
C1210 C1216 1.465 . S
C1211 C1206 1.399 . S
C1211 C1210 1.394 . S
C1211 C1212 1.516 . S
C1212 C1211 1.516 . S
C1212 C1213 1.502 . S
C1212 C1214 1.561 . S
C1212 C1215 1.526 . S
C1213 H1197 0.959 . S
C1213 H1198 0.959 . S
C1213 H1199 0.961 . S
C1213 C1212 1.502 . S
C1214 H1200 0.960 . S
C1214 H1201 0.961 . S
C1214 H1202 0.959 . S
C1214 C1212 1.561 . S
C1215 C1212 1.526 . S
C1215 C1216 1.396 . S
C1215 C1220 1.390 . S
C1216 C1210 1.465 . S
C1216 C1215 1.396 . S
C1216 C1217 1.399 . S
C1217 H1203 0.929 . S
C1217 C1216 1.399 . S
C1217 C1218 1.385 . S
C1218 H1204 0.931 . S
C1218 C1217 1.385 . S
C1218 C1219 1.389 . S
C1219 C1218 1.389 . S
C1219 C1220 1.387 . S
C1220 H1205 0.930 . S
C1220 C1215 1.390 . S
C1220 C1219 1.387 . S
H1221 C1233 0.930 . S
H1222 C1235 0.930 . S
H1223 C1236 0.930 . S
H1224 C1240 0.959 . S
H1225 C1240 0.959 . S
H1226 C1240 0.961 . S
H1227 C1241 0.960 . S
H1228 C1241 0.961 . S
H1229 C1241 0.959 . S
H1230 C1244 0.929 . S
H1231 C1245 0.931 . S
H1232 C1247 0.930 . S
C1233 H1221 0.930 . S
C1233 C1234 1.399 . S
C1233 C1238 1.399 . S
C1234 C1233 1.399 . S
C1234 C1235 1.376 . S
C1235 H1222 0.930 . S
C1235 C1234 1.376 . S
C1235 C1236 1.388 . S
C1236 H1223 0.930 . S
C1236 C1235 1.388 . S
C1236 C1237 1.390 . S
C1237 C1236 1.390 . S
C1237 C1238 1.394 . S
C1237 C1243 1.465 . S
C1238 C1233 1.399 . S
C1238 C1237 1.394 . S
C1238 C1239 1.516 . S
C1239 C1238 1.516 . S
C1239 C1240 1.502 . S
C1239 C1241 1.561 . S
C1239 C1242 1.526 . S
C1240 H1224 0.959 . S
C1240 H1225 0.959 . S
C1240 H1226 0.961 . S
C1240 C1239 1.502 . S
C1241 H1227 0.960 . S
C1241 H1228 0.961 . S
C1241 H1229 0.959 . S
C1241 C1239 1.561 . S
C1242 C1239 1.526 . S
C1242 C1243 1.396 . S
C1242 C1247 1.390 . S
C1243 C1237 1.465 . S
C1243 C1242 1.396 . S
C1243 C1244 1.399 . S
C1244 H1230 0.929 . S
C1244 C1243 1.399 . S
C1244 C1245 1.385 . S
C1245 H1231 0.931 . S
C1245 C1244 1.385 . S
C1245 C1246 1.389 . S
C1246 C1245 1.389 . S
C1246 C1247 1.387 . S
C1247 H1232 0.930 . S
C1247 C1242 1.390 . S
C1247 C1246 1.387 . S
H1248 C1260 0.930 . S
H1249 C1262 0.930 . S
H1250 C1263 0.930 . S
H1251 C1267 0.959 . S
H1252 C1267 0.959 . S
H1253 C1267 0.961 . S
H1254 C1268 0.960 . S
H1255 C1268 0.961 . S
H1256 C1268 0.959 . S
H1257 C1271 0.929 . S
H1258 C1272 0.931 . S
H1259 C1274 0.930 . S
C1260 H1248 0.930 . S
C1260 C1261 1.399 . S
C1260 C1265 1.399 . S
C1261 C1260 1.399 . S
C1261 C1262 1.376 . S
C1262 H1249 0.930 . S
C1262 C1261 1.376 . S
C1262 C1263 1.388 . S
C1263 H1250 0.930 . S
C1263 C1262 1.388 . S
C1263 C1264 1.390 . S
C1264 C1263 1.390 . S
C1264 C1265 1.394 . S
C1264 C1270 1.465 . S
C1265 C1260 1.399 . S
C1265 C1264 1.394 . S
C1265 C1266 1.516 . S
C1266 C1265 1.516 . S
C1266 C1267 1.502 . S
C1266 C1268 1.561 . S
C1266 C1269 1.526 . S
C1267 H1251 0.959 . S
C1267 H1252 0.959 . S
C1267 H1253 0.961 . S
C1267 C1266 1.502 . S
C1268 H1254 0.960 . S
C1268 H1255 0.961 . S
C1268 H1256 0.959 . S
C1268 C1266 1.561 . S
C1269 C1266 1.526 . S
C1269 C1270 1.396 . S
C1269 C1274 1.390 . S
C1270 C1264 1.465 . S
C1270 C1269 1.396 . S
C1270 C1271 1.399 . S
C1271 H1257 0.929 . S
C1271 C1270 1.399 . S
C1271 C1272 1.385 . S
C1272 H1258 0.931 . S
C1272 C1271 1.385 . S
C1272 C1273 1.389 . S
C1273 C1272 1.389 . S
C1273 C1274 1.387 . S
C1274 H1259 0.930 . S
C1274 C1269 1.390 . S
C1274 C1273 1.387 . S
H1275 C1287 0.930 . S
H1276 C1289 0.930 . S
H1277 C1290 0.930 . S
H1278 C1294 0.959 . S
H1279 C1294 0.959 . S
H1280 C1294 0.961 . S
H1281 C1295 0.960 . S
H1282 C1295 0.961 . S
H1283 C1295 0.959 . S
H1284 C1298 0.929 . S
H1285 C1299 0.931 . S
H1286 C1301 0.930 . S
C1287 H1275 0.930 . S
C1287 C1288 1.399 . S
C1287 C1292 1.399 . S
C1288 C1287 1.399 . S
C1288 C1289 1.376 . S
C1289 H1276 0.930 . S
C1289 C1288 1.376 . S
C1289 C1290 1.388 . S
C1290 H1277 0.930 . S
C1290 C1289 1.388 . S
C1290 C1291 1.390 . S
C1291 C1290 1.390 . S
C1291 C1292 1.394 . S
C1291 C1297 1.465 . S
C1292 C1287 1.399 . S
C1292 C1291 1.394 . S
C1292 C1293 1.516 . S
C1293 C1292 1.516 . S
C1293 C1294 1.502 . S
C1293 C1295 1.561 . S
C1293 C1296 1.526 . S
C1294 H1278 0.959 . S
C1294 H1279 0.959 . S
C1294 H1280 0.961 . S
C1294 C1293 1.502 . S
C1295 H1281 0.960 . S
C1295 H1282 0.961 . S
C1295 H1283 0.959 . S
C1295 C1293 1.561 . S
C1296 C1293 1.526 . S
C1296 C1297 1.396 . S
C1296 C1301 1.390 . S
C1297 C1291 1.465 . S
C1297 C1296 1.396 . S
C1297 C1298 1.399 . S
C1298 H1284 0.929 . S
C1298 C1297 1.399 . S
C1298 C1299 1.385 . S
C1299 H1285 0.931 . S
C1299 C1298 1.385 . S
C1299 C1300 1.389 . S
C1300 C1299 1.389 . S
C1300 C1301 1.387 . S
C1301 H1286 0.930 . S
C1301 C1296 1.390 . S
C1301 C1300 1.387 . S
H1302 C1314 0.930 . S
H1303 C1316 0.930 . S
H1304 C1317 0.930 . S
H1305 C1321 0.959 . S
H1306 C1321 0.959 . S
H1307 C1321 0.961 . S
H1308 C1322 0.960 . S
H1309 C1322 0.961 . S
H1310 C1322 0.959 . S
H1311 C1325 0.929 . S
H1312 C1326 0.931 . S
H1313 C1328 0.930 . S
C1314 H1302 0.930 . S
C1314 C1315 1.399 . S
C1314 C1319 1.399 . S
C1315 C1314 1.399 . S
C1315 C1316 1.376 . S
C1316 H1303 0.930 . S
C1316 C1315 1.376 . S
C1316 C1317 1.388 . S
C1317 H1304 0.930 . S
C1317 C1316 1.388 . S
C1317 C1318 1.390 . S
C1318 C1317 1.390 . S
C1318 C1319 1.394 . S
C1318 C1324 1.465 . S
C1319 C1314 1.399 . S
C1319 C1318 1.394 . S
C1319 C1320 1.516 . S
C1320 C1319 1.516 . S
C1320 C1321 1.502 . S
C1320 C1322 1.561 . S
C1320 C1323 1.526 . S
C1321 H1305 0.959 . S
C1321 H1306 0.959 . S
C1321 H1307 0.961 . S
C1321 C1320 1.502 . S
C1322 H1308 0.960 . S
C1322 H1309 0.961 . S
C1322 H1310 0.959 . S
C1322 C1320 1.561 . S
C1323 C1320 1.526 . S
C1323 C1324 1.396 . S
C1323 C1328 1.390 . S
C1324 C1318 1.465 . S
C1324 C1323 1.396 . S
C1324 C1325 1.399 . S
C1325 H1311 0.929 . S
C1325 C1324 1.399 . S
C1325 C1326 1.385 . S
C1326 H1312 0.931 . S
C1326 C1325 1.385 . S
C1326 C1327 1.389 . S
C1327 C1326 1.389 . S
C1327 C1328 1.387 . S
C1328 H1313 0.930 . S
C1328 C1323 1.390 . S
C1328 C1327 1.387 . S
H1329 C1341 0.930 . S
H1330 C1343 0.930 . S
H1331 C1344 0.930 . S
H1332 C1348 0.959 . S
H1333 C1348 0.959 . S
H1334 C1348 0.961 . S
H1335 C1349 0.960 . S
H1336 C1349 0.961 . S
H1337 C1349 0.959 . S
H1338 C1352 0.929 . S
H1339 C1353 0.931 . S
H1340 C1355 0.930 . S
C1341 H1329 0.930 . S
C1341 C1342 1.399 . S
C1341 C1346 1.399 . S
C1342 C1341 1.399 . S
C1342 C1343 1.376 . S
C1343 H1330 0.930 . S
C1343 C1342 1.376 . S
C1343 C1344 1.388 . S
C1344 H1331 0.930 . S
C1344 C1343 1.388 . S
C1344 C1345 1.390 . S
C1345 C1344 1.390 . S
C1345 C1346 1.394 . S
C1345 C1351 1.465 . S
C1346 C1341 1.399 . S
C1346 C1345 1.394 . S
C1346 C1347 1.516 . S
C1347 C1346 1.516 . S
C1347 C1348 1.502 . S
C1347 C1349 1.561 . S
C1347 C1350 1.526 . S
C1348 H1332 0.959 . S
C1348 H1333 0.959 . S
C1348 H1334 0.961 . S
C1348 C1347 1.502 . S
C1349 H1335 0.960 . S
C1349 H1336 0.961 . S
C1349 H1337 0.959 . S
C1349 C1347 1.561 . S
C1350 C1347 1.526 . S
C1350 C1351 1.396 . S
C1350 C1355 1.390 . S
C1351 C1345 1.465 . S
C1351 C1350 1.396 . S
C1351 C1352 1.399 . S
C1352 H1338 0.929 . S
C1352 C1351 1.399 . S
C1352 C1353 1.385 . S
C1353 H1339 0.931 . S
C1353 C1352 1.385 . S
C1353 C1354 1.389 . S
C1354 C1353 1.389 . S
C1354 C1355 1.387 . S
C1355 H1340 0.930 . S
C1355 C1350 1.390 . S
C1355 C1354 1.387 . S
H1356 C1368 0.930 . S
H1357 C1370 0.930 . S
H1358 C1371 0.930 . S
H1359 C1375 0.959 . S
H1360 C1375 0.959 . S
H1361 C1375 0.961 . S
H1362 C1376 0.960 . S
H1363 C1376 0.961 . S
H1364 C1376 0.959 . S
H1365 C1379 0.929 . S
H1366 C1380 0.931 . S
H1367 C1382 0.930 . S
C1368 H1356 0.930 . S
C1368 C1369 1.399 . S
C1368 C1373 1.399 . S
C1369 C1368 1.399 . S
C1369 C1370 1.376 . S
C1370 H1357 0.930 . S
C1370 C1369 1.376 . S
C1370 C1371 1.388 . S
C1371 H1358 0.930 . S
C1371 C1370 1.388 . S
C1371 C1372 1.390 . S
C1372 C1371 1.390 . S
C1372 C1373 1.394 . S
C1372 C1378 1.465 . S
C1373 C1368 1.399 . S
C1373 C1372 1.394 . S
C1373 C1374 1.516 . S
C1374 C1373 1.516 . S
C1374 C1375 1.502 . S
C1374 C1376 1.561 . S
C1374 C1377 1.526 . S
C1375 H1359 0.959 . S
C1375 H1360 0.959 . S
C1375 H1361 0.961 . S
C1375 C1374 1.502 . S
C1376 H1362 0.960 . S
C1376 H1363 0.961 . S
C1376 H1364 0.959 . S
C1376 C1374 1.561 . S
C1377 C1374 1.526 . S
C1377 C1378 1.396 . S
C1377 C1382 1.390 . S
C1378 C1372 1.465 . S
C1378 C1377 1.396 . S
C1378 C1379 1.399 . S
C1379 H1365 0.929 . S
C1379 C1378 1.399 . S
C1379 C1380 1.385 . S
C1380 H1366 0.931 . S
C1380 C1379 1.385 . S
C1380 C1381 1.389 . S
C1381 C1380 1.389 . S
C1381 C1382 1.387 . S
C1382 H1367 0.930 . S
C1382 C1377 1.390 . S
C1382 C1381 1.387 . S
H1383 C1395 0.930 . S
H1384 C1397 0.930 . S
H1385 C1398 0.930 . S
H1386 C1402 0.959 . S
H1387 C1402 0.959 . S
H1388 C1402 0.961 . S
H1389 C1403 0.960 . S
H1390 C1403 0.961 . S
H1391 C1403 0.959 . S
H1392 C1406 0.929 . S
H1393 C1407 0.931 . S
H1394 C1409 0.930 . S
C1395 H1383 0.930 . S
C1395 C1396 1.399 . S
C1395 C1400 1.399 . S
C1396 C1395 1.399 . S
C1396 C1397 1.376 . S
C1397 H1384 0.930 . S
C1397 C1396 1.376 . S
C1397 C1398 1.388 . S
C1398 H1385 0.930 . S
C1398 C1397 1.388 . S
C1398 C1399 1.390 . S
C1399 C1398 1.390 . S
C1399 C1400 1.394 . S
C1399 C1405 1.465 . S
C1400 C1395 1.399 . S
C1400 C1399 1.394 . S
C1400 C1401 1.516 . S
C1401 C1400 1.516 . S
C1401 C1402 1.502 . S
C1401 C1403 1.561 . S
C1401 C1404 1.526 . S
C1402 H1386 0.959 . S
C1402 H1387 0.959 . S
C1402 H1388 0.961 . S
C1402 C1401 1.502 . S
C1403 H1389 0.960 . S
C1403 H1390 0.961 . S
C1403 H1391 0.959 . S
C1403 C1401 1.561 . S
C1404 C1401 1.526 . S
C1404 C1405 1.396 . S
C1404 C1409 1.390 . S
C1405 C1399 1.465 . S
C1405 C1404 1.396 . S
C1405 C1406 1.399 . S
C1406 H1392 0.929 . S
C1406 C1405 1.399 . S
C1406 C1407 1.385 . S
C1407 H1393 0.931 . S
C1407 C1406 1.385 . S
C1407 C1408 1.389 . S
C1408 C1407 1.389 . S
C1408 C1409 1.387 . S
C1409 H1394 0.930 . S
C1409 C1404 1.390 . S
C1409 C1408 1.387 . S
H1410 C1422 0.930 . S
H1411 C1424 0.930 . S
H1412 C1425 0.930 . S
H1413 C1429 0.959 . S
H1414 C1429 0.959 . S
H1415 C1429 0.961 . S
H1416 C1430 0.960 . S
H1417 C1430 0.961 . S
H1418 C1430 0.959 . S
H1419 C1433 0.929 . S
H1420 C1434 0.931 . S
H1421 C1436 0.930 . S
C1422 H1410 0.930 . S
C1422 C1423 1.399 . S
C1422 C1427 1.399 . S
C1423 C1422 1.399 . S
C1423 C1424 1.376 . S
C1424 H1411 0.930 . S
C1424 C1423 1.376 . S
C1424 C1425 1.388 . S
C1425 H1412 0.930 . S
C1425 C1424 1.388 . S
C1425 C1426 1.390 . S
C1426 C1425 1.390 . S
C1426 C1427 1.394 . S
C1426 C1432 1.465 . S
C1427 C1422 1.399 . S
C1427 C1426 1.394 . S
C1427 C1428 1.516 . S
C1428 C1427 1.516 . S
C1428 C1429 1.502 . S
C1428 C1430 1.561 . S
C1428 C1431 1.526 . S
C1429 H1413 0.959 . S
C1429 H1414 0.959 . S
C1429 H1415 0.961 . S
C1429 C1428 1.502 . S
C1430 H1416 0.960 . S
C1430 H1417 0.961 . S
C1430 H1418 0.959 . S
C1430 C1428 1.561 . S
C1431 C1428 1.526 . S
C1431 C1432 1.396 . S
C1431 C1436 1.390 . S
C1432 C1426 1.465 . S
C1432 C1431 1.396 . S
C1432 C1433 1.399 . S
C1433 H1419 0.929 . S
C1433 C1432 1.399 . S
C1433 C1434 1.385 . S
C1434 H1420 0.931 . S
C1434 C1433 1.385 . S
C1434 C1435 1.389 . S
C1435 C1434 1.389 . S
C1435 C1436 1.387 . S
C1436 H1421 0.930 . S
C1436 C1431 1.390 . S
C1436 C1435 1.387 . S
H1437 C1449 0.930 . S
H1438 C1451 0.930 . S
H1439 C1452 0.930 . S
H1440 C1456 0.959 . S
H1441 C1456 0.959 . S
H1442 C1456 0.961 . S
H1443 C1457 0.960 . S
H1444 C1457 0.961 . S
H1445 C1457 0.959 . S
H1446 C1460 0.929 . S
H1447 C1461 0.931 . S
H1448 C1463 0.930 . S
C1449 H1437 0.930 . S
C1449 C1450 1.399 . S
C1449 C1454 1.399 . S
C1450 C1449 1.399 . S
C1450 C1451 1.376 . S
C1451 H1438 0.930 . S
C1451 C1450 1.376 . S
C1451 C1452 1.388 . S
C1452 H1439 0.930 . S
C1452 C1451 1.388 . S
C1452 C1453 1.390 . S
C1453 C1452 1.390 . S
C1453 C1454 1.394 . S
C1453 C1459 1.465 . S
C1454 C1449 1.399 . S
C1454 C1453 1.394 . S
C1454 C1455 1.516 . S
C1455 C1454 1.516 . S
C1455 C1456 1.502 . S
C1455 C1457 1.561 . S
C1455 C1458 1.526 . S
C1456 H1440 0.959 . S
C1456 H1441 0.959 . S
C1456 H1442 0.961 . S
C1456 C1455 1.502 . S
C1457 H1443 0.960 . S
C1457 H1444 0.961 . S
C1457 H1445 0.959 . S
C1457 C1455 1.561 . S
C1458 C1455 1.526 . S
C1458 C1459 1.396 . S
C1458 C1463 1.390 . S
C1459 C1453 1.465 . S
C1459 C1458 1.396 . S
C1459 C1460 1.399 . S
C1460 H1446 0.929 . S
C1460 C1459 1.399 . S
C1460 C1461 1.385 . S
C1461 H1447 0.931 . S
C1461 C1460 1.385 . S
C1461 C1462 1.389 . S
C1462 C1461 1.389 . S
C1462 C1463 1.387 . S
C1463 H1448 0.930 . S
C1463 C1458 1.390 . S
C1463 C1462 1.387 . S
H1464 C1476 0.930 . S
H1465 C1478 0.930 . S
H1466 C1479 0.930 . S
H1467 C1483 0.959 . S
H1468 C1483 0.959 . S
H1469 C1483 0.961 . S
H1470 C1484 0.960 . S
H1471 C1484 0.961 . S
H1472 C1484 0.959 . S
H1473 C1487 0.929 . S
H1474 C1488 0.931 . S
H1475 C1490 0.930 . S
C1476 H1464 0.930 . S
C1476 C1477 1.399 . S
C1476 C1481 1.399 . S
C1477 C1476 1.399 . S
C1477 C1478 1.376 . S
C1478 H1465 0.930 . S
C1478 C1477 1.376 . S
C1478 C1479 1.388 . S
C1479 H1466 0.930 . S
C1479 C1478 1.388 . S
C1479 C1480 1.390 . S
C1480 C1479 1.390 . S
C1480 C1481 1.394 . S
C1480 C1486 1.465 . S
C1481 C1476 1.399 . S
C1481 C1480 1.394 . S
C1481 C1482 1.516 . S
C1482 C1481 1.516 . S
C1482 C1483 1.502 . S
C1482 C1484 1.561 . S
C1482 C1485 1.526 . S
C1483 H1467 0.959 . S
C1483 H1468 0.959 . S
C1483 H1469 0.961 . S
C1483 C1482 1.502 . S
C1484 H1470 0.960 . S
C1484 H1471 0.961 . S
C1484 H1472 0.959 . S
C1484 C1482 1.561 . S
C1485 C1482 1.526 . S
C1485 C1486 1.396 . S
C1485 C1490 1.390 . S
C1486 C1480 1.465 . S
C1486 C1485 1.396 . S
C1486 C1487 1.399 . S
C1487 H1473 0.929 . S
C1487 C1486 1.399 . S
C1487 C1488 1.385 . S
C1488 H1474 0.931 . S
C1488 C1487 1.385 . S
C1488 C1489 1.389 . S
C1489 C1488 1.389 . S
C1489 C1490 1.387 . S
C1490 H1475 0.930 . S
C1490 C1485 1.390 . S
C1490 C1489 1.387 . S
H1491 C1503 0.930 . S
H1492 C1505 0.930 . S
H1493 C1506 0.930 . S
H1494 C1510 0.959 . S
H1495 C1510 0.959 . S
H1496 C1510 0.961 . S
H1497 C1511 0.960 . S
H1498 C1511 0.961 . S
H1499 C1511 0.959 . S
H1500 C1514 0.929 . S
H1501 C1515 0.931 . S
H1502 C1517 0.930 . S
C1503 H1491 0.930 . S
C1503 C1504 1.399 . S
C1503 C1508 1.399 . S
C1504 C1503 1.399 . S
C1504 C1505 1.376 . S
C1505 H1492 0.930 . S
C1505 C1504 1.376 . S
C1505 C1506 1.388 . S
C1506 H1493 0.930 . S
C1506 C1505 1.388 . S
C1506 C1507 1.390 . S
C1507 C1506 1.390 . S
C1507 C1508 1.394 . S
C1507 C1513 1.465 . S
C1508 C1503 1.399 . S
C1508 C1507 1.394 . S
C1508 C1509 1.516 . S
C1509 C1508 1.516 . S
C1509 C1510 1.502 . S
C1509 C1511 1.561 . S
C1509 C1512 1.526 . S
C1510 H1494 0.959 . S
C1510 H1495 0.959 . S
C1510 H1496 0.961 . S
C1510 C1509 1.502 . S
C1511 H1497 0.960 . S
C1511 H1498 0.961 . S
C1511 H1499 0.959 . S
C1511 C1509 1.561 . S
C1512 C1509 1.526 . S
C1512 C1513 1.396 . S
C1512 C1517 1.390 . S
C1513 C1507 1.465 . S
C1513 C1512 1.396 . S
C1513 C1514 1.399 . S
C1514 H1500 0.929 . S
C1514 C1513 1.399 . S
C1514 C1515 1.385 . S
C1515 H1501 0.931 . S
C1515 C1514 1.385 . S
C1515 C1516 1.389 . S
C1516 C1515 1.389 . S
C1516 C1517 1.387 . S
C1517 H1502 0.930 . S
C1517 C1512 1.390 . S
C1517 C1516 1.387 . S
H1518 C1530 0.930 . S
H1519 C1532 0.930 . S
H1520 C1533 0.930 . S
H1521 C1537 0.959 . S
H1522 C1537 0.959 . S
H1523 C1537 0.961 . S
H1524 C1538 0.960 . S
H1525 C1538 0.961 . S
H1526 C1538 0.959 . S
H1527 C1541 0.929 . S
H1528 C1542 0.931 . S
H1529 C1544 0.930 . S
C1530 H1518 0.930 . S
C1530 C1531 1.399 . S
C1530 C1535 1.399 . S
C1531 C1530 1.399 . S
C1531 C1532 1.376 . S
C1532 H1519 0.930 . S
C1532 C1531 1.376 . S
C1532 C1533 1.388 . S
C1533 H1520 0.930 . S
C1533 C1532 1.388 . S
C1533 C1534 1.390 . S
C1534 C1533 1.390 . S
C1534 C1535 1.394 . S
C1534 C1540 1.465 . S
C1535 C1530 1.399 . S
C1535 C1534 1.394 . S
C1535 C1536 1.516 . S
C1536 C1535 1.516 . S
C1536 C1537 1.502 . S
C1536 C1538 1.561 . S
C1536 C1539 1.526 . S
C1537 H1521 0.959 . S
C1537 H1522 0.959 . S
C1537 H1523 0.961 . S
C1537 C1536 1.502 . S
C1538 H1524 0.960 . S
C1538 H1525 0.961 . S
C1538 H1526 0.959 . S
C1538 C1536 1.561 . S
C1539 C1536 1.526 . S
C1539 C1540 1.396 . S
C1539 C1544 1.390 . S
C1540 C1534 1.465 . S
C1540 C1539 1.396 . S
C1540 C1541 1.399 . S
C1541 H1527 0.929 . S
C1541 C1540 1.399 . S
C1541 C1542 1.385 . S
C1542 H1528 0.931 . S
C1542 C1541 1.385 . S
C1542 C1543 1.389 . S
C1543 C1542 1.389 . S
C1543 C1544 1.387 . S
C1544 H1529 0.930 . S
C1544 C1539 1.390 . S
C1544 C1543 1.387 . S
H1545 C1557 0.930 . S
H1546 C1559 0.930 . S
H1547 C1560 0.930 . S
H1548 C1564 0.959 . S
H1549 C1564 0.959 . S
H1550 C1564 0.961 . S
H1551 C1565 0.960 . S
H1552 C1565 0.961 . S
H1553 C1565 0.959 . S
H1554 C1568 0.929 . S
H1555 C1569 0.931 . S
H1556 C1571 0.930 . S
C1557 H1545 0.930 . S
C1557 C1558 1.399 . S
C1557 C1562 1.399 . S
C1558 C1557 1.399 . S
C1558 C1559 1.376 . S
C1559 H1546 0.930 . S
C1559 C1558 1.376 . S
C1559 C1560 1.388 . S
C1560 H1547 0.930 . S
C1560 C1559 1.388 . S
C1560 C1561 1.390 . S
C1561 C1560 1.390 . S
C1561 C1562 1.394 . S
C1561 C1567 1.465 . S
C1562 C1557 1.399 . S
C1562 C1561 1.394 . S
C1562 C1563 1.516 . S
C1563 C1562 1.516 . S
C1563 C1564 1.502 . S
C1563 C1565 1.561 . S
C1563 C1566 1.526 . S
C1564 H1548 0.959 . S
C1564 H1549 0.959 . S
C1564 H1550 0.961 . S
C1564 C1563 1.502 . S
C1565 H1551 0.960 . S
C1565 H1552 0.961 . S
C1565 H1553 0.959 . S
C1565 C1563 1.561 . S
C1566 C1563 1.526 . S
C1566 C1567 1.396 . S
C1566 C1571 1.390 . S
C1567 C1561 1.465 . S
C1567 C1566 1.396 . S
C1567 C1568 1.399 . S
C1568 H1554 0.929 . S
C1568 C1567 1.399 . S
C1568 C1569 1.385 . S
C1569 H1555 0.931 . S
C1569 C1568 1.385 . S
C1569 C1570 1.389 . S
C1570 C1569 1.389 . S
C1570 C1571 1.387 . S
C1571 H1556 0.930 . S
C1571 C1566 1.390 . S
C1571 C1570 1.387 . S
H1572 C1584 0.930 . S
H1573 C1586 0.930 . S
H1574 C1587 0.930 . S
H1575 C1591 0.959 . S
H1576 C1591 0.959 . S
H1577 C1591 0.961 . S
H1578 C1592 0.960 . S
H1579 C1592 0.961 . S
H1580 C1592 0.959 . S
H1581 C1595 0.929 . S
H1582 C1596 0.931 . S
H1583 C1598 0.930 . S
C1584 H1572 0.930 . S
C1584 C1585 1.399 . S
C1584 C1589 1.399 . S
C1585 C1584 1.399 . S
C1585 C1586 1.376 . S
C1586 H1573 0.930 . S
C1586 C1585 1.376 . S
C1586 C1587 1.388 . S
C1587 H1574 0.930 . S
C1587 C1586 1.388 . S
C1587 C1588 1.390 . S
C1588 C1587 1.390 . S
C1588 C1589 1.394 . S
C1588 C1594 1.465 . S
C1589 C1584 1.399 . S
C1589 C1588 1.394 . S
C1589 C1590 1.516 . S
C1590 C1589 1.516 . S
C1590 C1591 1.502 . S
C1590 C1592 1.561 . S
C1590 C1593 1.526 . S
C1591 H1575 0.959 . S
C1591 H1576 0.959 . S
C1591 H1577 0.961 . S
C1591 C1590 1.502 . S
C1592 H1578 0.960 . S
C1592 H1579 0.961 . S
C1592 H1580 0.959 . S
C1592 C1590 1.561 . S
C1593 C1590 1.526 . S
C1593 C1594 1.396 . S
C1593 C1598 1.390 . S
C1594 C1588 1.465 . S
C1594 C1593 1.396 . S
C1594 C1595 1.399 . S
C1595 H1581 0.929 . S
C1595 C1594 1.399 . S
C1595 C1596 1.385 . S
C1596 H1582 0.931 . S
C1596 C1595 1.385 . S
C1596 C1597 1.389 . S
C1597 C1596 1.389 . S
C1597 C1598 1.387 . S
C1598 H1583 0.930 . S
C1598 C1593 1.390 . S
C1598 C1597 1.387 . S
H1599 C1611 0.930 . S
H1600 C1613 0.930 . S
H1601 C1614 0.930 . S
H1602 C1618 0.959 . S
H1603 C1618 0.959 . S
H1604 C1618 0.961 . S
H1605 C1619 0.960 . S
H1606 C1619 0.961 . S
H1607 C1619 0.959 . S
H1608 C1622 0.929 . S
H1609 C1623 0.931 . S
H1610 C1625 0.930 . S
C1611 H1599 0.930 . S
C1611 C1612 1.399 . S
C1611 C1616 1.399 . S
C1612 C1611 1.399 . S
C1612 C1613 1.376 . S
C1613 H1600 0.930 . S
C1613 C1612 1.376 . S
C1613 C1614 1.388 . S
C1614 H1601 0.930 . S
C1614 C1613 1.388 . S
C1614 C1615 1.390 . S
C1615 C1614 1.390 . S
C1615 C1616 1.394 . S
C1615 C1621 1.465 . S
C1616 C1611 1.399 . S
C1616 C1615 1.394 . S
C1616 C1617 1.516 . S
C1617 C1616 1.516 . S
C1617 C1618 1.502 . S
C1617 C1619 1.561 . S
C1617 C1620 1.526 . S
C1618 H1602 0.959 . S
C1618 H1603 0.959 . S
C1618 H1604 0.961 . S
C1618 C1617 1.502 . S
C1619 H1605 0.960 . S
C1619 H1606 0.961 . S
C1619 H1607 0.959 . S
C1619 C1617 1.561 . S
C1620 C1617 1.526 . S
C1620 C1621 1.396 . S
C1620 C1625 1.390 . S
C1621 C1615 1.465 . S
C1621 C1620 1.396 . S
C1621 C1622 1.399 . S
C1622 H1608 0.929 . S
C1622 C1621 1.399 . S
C1622 C1623 1.385 . S
C1623 H1609 0.931 . S
C1623 C1622 1.385 . S
C1623 C1624 1.389 . S
C1624 C1623 1.389 . S
C1624 C1625 1.387 . S
C1625 H1610 0.930 . S
C1625 C1620 1.390 . S
C1625 C1624 1.387 . S
H1626 C1638 0.930 . S
H1627 C1640 0.930 . S
H1628 C1641 0.930 . S
H1629 C1645 0.959 . S
H1630 C1645 0.959 . S
H1631 C1645 0.961 . S
H1632 C1646 0.960 . S
H1633 C1646 0.961 . S
H1634 C1646 0.959 . S
H1635 C1649 0.929 . S
H1636 C1650 0.931 . S
H1637 C1652 0.930 . S
C1638 H1626 0.930 . S
C1638 C1639 1.399 . S
C1638 C1643 1.399 . S
C1639 C1638 1.399 . S
C1639 C1640 1.376 . S
C1640 H1627 0.930 . S
C1640 C1639 1.376 . S
C1640 C1641 1.388 . S
C1641 H1628 0.930 . S
C1641 C1640 1.388 . S
C1641 C1642 1.390 . S
C1642 C1641 1.390 . S
C1642 C1643 1.394 . S
C1642 C1648 1.465 . S
C1643 C1638 1.399 . S
C1643 C1642 1.394 . S
C1643 C1644 1.516 . S
C1644 C1643 1.516 . S
C1644 C1645 1.502 . S
C1644 C1646 1.561 . S
C1644 C1647 1.526 . S
C1645 H1629 0.959 . S
C1645 H1630 0.959 . S
C1645 H1631 0.961 . S
C1645 C1644 1.502 . S
C1646 H1632 0.960 . S
C1646 H1633 0.961 . S
C1646 H1634 0.959 . S
C1646 C1644 1.561 . S
C1647 C1644 1.526 . S
C1647 C1648 1.396 . S
C1647 C1652 1.390 . S
C1648 C1642 1.465 . S
C1648 C1647 1.396 . S
C1648 C1649 1.399 . S
C1649 H1635 0.929 . S
C1649 C1648 1.399 . S
C1649 C1650 1.385 . S
C1650 H1636 0.931 . S
C1650 C1649 1.385 . S
C1650 C1651 1.389 . S
C1651 C1650 1.389 . S
C1651 C1652 1.387 . S
C1652 H1637 0.930 . S
C1652 C1647 1.390 . S
C1652 C1651 1.387 . S
H1653 C1665 0.930 . S
H1654 C1667 0.930 . S
H1655 C1668 0.930 . S
H1656 C1672 0.959 . S
H1657 C1672 0.959 . S
H1658 C1672 0.961 . S
H1659 C1673 0.960 . S
H1660 C1673 0.961 . S
H1661 C1673 0.959 . S
H1662 C1676 0.929 . S
H1663 C1677 0.931 . S
H1664 C1679 0.930 . S
C1665 H1653 0.930 . S
C1665 C1666 1.399 . S
C1665 C1670 1.399 . S
C1666 C1665 1.399 . S
C1666 C1667 1.376 . S
C1667 H1654 0.930 . S
C1667 C1666 1.376 . S
C1667 C1668 1.388 . S
C1668 H1655 0.930 . S
C1668 C1667 1.388 . S
C1668 C1669 1.390 . S
C1669 C1668 1.390 . S
C1669 C1670 1.394 . S
C1669 C1675 1.465 . S
C1670 C1665 1.399 . S
C1670 C1669 1.394 . S
C1670 C1671 1.516 . S
C1671 C1670 1.516 . S
C1671 C1672 1.502 . S
C1671 C1673 1.561 . S
C1671 C1674 1.526 . S
C1672 H1656 0.959 . S
C1672 H1657 0.959 . S
C1672 H1658 0.961 . S
C1672 C1671 1.502 . S
C1673 H1659 0.960 . S
C1673 H1660 0.961 . S
C1673 H1661 0.959 . S
C1673 C1671 1.561 . S
C1674 C1671 1.526 . S
C1674 C1675 1.396 . S
C1674 C1679 1.390 . S
C1675 C1669 1.465 . S
C1675 C1674 1.396 . S
C1675 C1676 1.399 . S
C1676 H1662 0.929 . S
C1676 C1675 1.399 . S
C1676 C1677 1.385 . S
C1677 H1663 0.931 . S
C1677 C1676 1.385 . S
C1677 C1678 1.389 . S
C1678 C1677 1.389 . S
C1678 C1679 1.387 . S
C1679 H1664 0.930 . S
C1679 C1674 1.390 . S
C1679 C1678 1.387 . S
H1680 C1692 0.930 . S
H1681 C1694 0.930 . S
H1682 C1695 0.930 . S
H1683 C1699 0.959 . S
H1684 C1699 0.959 . S
H1685 C1699 0.961 . S
H1686 C1700 0.960 . S
H1687 C1700 0.961 . S
H1688 C1700 0.959 . S
H1689 C1703 0.929 . S
H1690 C1704 0.931 . S
H1691 C1706 0.930 . S
C1692 H1680 0.930 . S
C1692 C1693 1.399 . S
C1692 C1697 1.399 . S
C1693 C1692 1.399 . S
C1693 C1694 1.376 . S
C1694 H1681 0.930 . S
C1694 C1693 1.376 . S
C1694 C1695 1.388 . S
C1695 H1682 0.930 . S
C1695 C1694 1.388 . S
C1695 C1696 1.390 . S
C1696 C1695 1.390 . S
C1696 C1697 1.394 . S
C1696 C1702 1.465 . S
C1697 C1692 1.399 . S
C1697 C1696 1.394 . S
C1697 C1698 1.516 . S
C1698 C1697 1.516 . S
C1698 C1699 1.502 . S
C1698 C1700 1.561 . S
C1698 C1701 1.526 . S
C1699 H1683 0.959 . S
C1699 H1684 0.959 . S
C1699 H1685 0.961 . S
C1699 C1698 1.502 . S
C1700 H1686 0.960 . S
C1700 H1687 0.961 . S
C1700 H1688 0.959 . S
C1700 C1698 1.561 . S
C1701 C1698 1.526 . S
C1701 C1702 1.396 . S
C1701 C1706 1.390 . S
C1702 C1696 1.465 . S
C1702 C1701 1.396 . S
C1702 C1703 1.399 . S
C1703 H1689 0.929 . S
C1703 C1702 1.399 . S
C1703 C1704 1.385 . S
C1704 H1690 0.931 . S
C1704 C1703 1.385 . S
C1704 C1705 1.389 . S
C1705 C1704 1.389 . S
C1705 C1706 1.387 . S
C1706 H1691 0.930 . S
C1706 C1701 1.390 . S
C1706 C1705 1.387 . S
H1707 C1719 0.930 . S
H1708 C1721 0.930 . S
H1709 C1722 0.930 . S
H1710 C1726 0.959 . S
H1711 C1726 0.959 . S
H1712 C1726 0.961 . S
H1713 C1727 0.960 . S
H1714 C1727 0.961 . S
H1715 C1727 0.959 . S
H1716 C1730 0.929 . S
H1717 C1731 0.931 . S
H1718 C1733 0.930 . S
C1719 H1707 0.930 . S
C1719 C1720 1.399 . S
C1719 C1724 1.399 . S
C1720 C1719 1.399 . S
C1720 C1721 1.376 . S
C1721 H1708 0.930 . S
C1721 C1720 1.376 . S
C1721 C1722 1.388 . S
C1722 H1709 0.930 . S
C1722 C1721 1.388 . S
C1722 C1723 1.390 . S
C1723 C1722 1.390 . S
C1723 C1724 1.394 . S
C1723 C1729 1.465 . S
C1724 C1719 1.399 . S
C1724 C1723 1.394 . S
C1724 C1725 1.516 . S
C1725 C1724 1.516 . S
C1725 C1726 1.502 . S
C1725 C1727 1.561 . S
C1725 C1728 1.526 . S
C1726 H1710 0.959 . S
C1726 H1711 0.959 . S
C1726 H1712 0.961 . S
C1726 C1725 1.502 . S
C1727 H1713 0.960 . S
C1727 H1714 0.961 . S
C1727 H1715 0.959 . S
C1727 C1725 1.561 . S
C1728 C1725 1.526 . S
C1728 C1729 1.396 . S
C1728 C1733 1.390 . S
C1729 C1723 1.465 . S
C1729 C1728 1.396 . S
C1729 C1730 1.399 . S
C1730 H1716 0.929 . S
C1730 C1729 1.399 . S
C1730 C1731 1.385 . S
C1731 H1717 0.931 . S
C1731 C1730 1.385 . S
C1731 C1732 1.389 . S
C1732 C1731 1.389 . S
C1732 C1733 1.387 . S
C1733 H1718 0.930 . S
C1733 C1728 1.390 . S
C1733 C1732 1.387 . S
H1734 C1746 0.930 . S
H1735 C1748 0.930 . S
H1736 C1749 0.930 . S
H1737 C1753 0.959 . S
H1738 C1753 0.959 . S
H1739 C1753 0.961 . S
H1740 C1754 0.960 . S
H1741 C1754 0.961 . S
H1742 C1754 0.959 . S
H1743 C1757 0.929 . S
H1744 C1758 0.931 . S
H1745 C1760 0.930 . S
C1746 H1734 0.930 . S
C1746 C1747 1.399 . S
C1746 C1751 1.399 . S
C1747 C1746 1.399 . S
C1747 C1748 1.376 . S
C1748 H1735 0.930 . S
C1748 C1747 1.376 . S
C1748 C1749 1.388 . S
C1749 H1736 0.930 . S
C1749 C1748 1.388 . S
C1749 C1750 1.390 . S
C1750 C1749 1.390 . S
C1750 C1751 1.394 . S
C1750 C1756 1.465 . S
C1751 C1746 1.399 . S
C1751 C1750 1.394 . S
C1751 C1752 1.516 . S
C1752 C1751 1.516 . S
C1752 C1753 1.502 . S
C1752 C1754 1.561 . S
C1752 C1755 1.526 . S
C1753 H1737 0.959 . S
C1753 H1738 0.959 . S
C1753 H1739 0.961 . S
C1753 C1752 1.502 . S
C1754 H1740 0.960 . S
C1754 H1741 0.961 . S
C1754 H1742 0.959 . S
C1754 C1752 1.561 . S
C1755 C1752 1.526 . S
C1755 C1756 1.396 . S
C1755 C1760 1.390 . S
C1756 C1750 1.465 . S
C1756 C1755 1.396 . S
C1756 C1757 1.399 . S
C1757 H1743 0.929 . S
C1757 C1756 1.399 . S
C1757 C1758 1.385 . S
C1758 H1744 0.931 . S
C1758 C1757 1.385 . S
C1758 C1759 1.389 . S
C1759 C1758 1.389 . S
C1759 C1760 1.387 . S
C1760 H1745 0.930 . S
C1760 C1755 1.390 . S
C1760 C1759 1.387 . S
H1761 C1773 0.930 . S
H1762 C1775 0.930 . S
H1763 C1776 0.930 . S
H1764 C1780 0.959 . S
H1765 C1780 0.959 . S
H1766 C1780 0.961 . S
H1767 C1781 0.960 . S
H1768 C1781 0.961 . S
H1769 C1781 0.959 . S
H1770 C1784 0.929 . S
H1771 C1785 0.931 . S
H1772 C1787 0.930 . S
C1773 H1761 0.930 . S
C1773 C1774 1.399 . S
C1773 C1778 1.399 . S
C1774 C1773 1.399 . S
C1774 C1775 1.376 . S
C1775 H1762 0.930 . S
C1775 C1774 1.376 . S
C1775 C1776 1.388 . S
C1776 H1763 0.930 . S
C1776 C1775 1.388 . S
C1776 C1777 1.390 . S
C1777 C1776 1.390 . S
C1777 C1778 1.394 . S
C1777 C1783 1.465 . S
C1778 C1773 1.399 . S
C1778 C1777 1.394 . S
C1778 C1779 1.516 . S
C1779 C1778 1.516 . S
C1779 C1780 1.502 . S
C1779 C1781 1.561 . S
C1779 C1782 1.526 . S
C1780 H1764 0.959 . S
C1780 H1765 0.959 . S
C1780 H1766 0.961 . S
C1780 C1779 1.502 . S
C1781 H1767 0.960 . S
C1781 H1768 0.961 . S
C1781 H1769 0.959 . S
C1781 C1779 1.561 . S
C1782 C1779 1.526 . S
C1782 C1783 1.396 . S
C1782 C1787 1.390 . S
C1783 C1777 1.465 . S
C1783 C1782 1.396 . S
C1783 C1784 1.399 . S
C1784 H1770 0.929 . S
C1784 C1783 1.399 . S
C1784 C1785 1.385 . S
C1785 H1771 0.931 . S
C1785 C1784 1.385 . S
C1785 C1786 1.389 . S
C1786 C1785 1.389 . S
C1786 C1787 1.387 . S
C1787 H1772 0.930 . S
C1787 C1782 1.390 . S
C1787 C1786 1.387 . S
H1788 C1800 0.930 . S
H1789 C1802 0.930 . S
H1790 C1803 0.930 . S
H1791 C1807 0.959 . S
H1792 C1807 0.959 . S
H1793 C1807 0.961 . S
H1794 C1808 0.960 . S
H1795 C1808 0.961 . S
H1796 C1808 0.959 . S
H1797 C1811 0.929 . S
H1798 C1812 0.931 . S
H1799 C1814 0.930 . S
C1800 H1788 0.930 . S
C1800 C1801 1.399 . S
C1800 C1805 1.399 . S
C1801 C1800 1.399 . S
C1801 C1802 1.376 . S
C1802 H1789 0.930 . S
C1802 C1801 1.376 . S
C1802 C1803 1.388 . S
C1803 H1790 0.930 . S
C1803 C1802 1.388 . S
C1803 C1804 1.390 . S
C1804 C1803 1.390 . S
C1804 C1805 1.394 . S
C1804 C1810 1.465 . S
C1805 C1800 1.399 . S
C1805 C1804 1.394 . S
C1805 C1806 1.516 . S
C1806 C1805 1.516 . S
C1806 C1807 1.502 . S
C1806 C1808 1.561 . S
C1806 C1809 1.526 . S
C1807 H1791 0.959 . S
C1807 H1792 0.959 . S
C1807 H1793 0.961 . S
C1807 C1806 1.502 . S
C1808 H1794 0.960 . S
C1808 H1795 0.961 . S
C1808 H1796 0.959 . S
C1808 C1806 1.561 . S
C1809 C1806 1.526 . S
C1809 C1810 1.396 . S
C1809 C1814 1.390 . S
C1810 C1804 1.465 . S
C1810 C1809 1.396 . S
C1810 C1811 1.399 . S
C1811 H1797 0.929 . S
C1811 C1810 1.399 . S
C1811 C1812 1.385 . S
C1812 H1798 0.931 . S
C1812 C1811 1.385 . S
C1812 C1813 1.389 . S
C1813 C1812 1.389 . S
C1813 C1814 1.387 . S
C1814 H1799 0.930 . S
C1814 C1809 1.390 . S
C1814 C1813 1.387 . S
H1815 C1827 0.930 . S
H1816 C1829 0.930 . S
H1817 C1830 0.930 . S
H1818 C1834 0.959 . S
H1819 C1834 0.959 . S
H1820 C1834 0.961 . S
H1821 C1835 0.960 . S
H1822 C1835 0.961 . S
H1823 C1835 0.959 . S
H1824 C1838 0.929 . S
H1825 C1839 0.931 . S
H1826 C1841 0.930 . S
C1827 H1815 0.930 . S
C1827 C1828 1.399 . S
C1827 C1832 1.399 . S
C1828 C1827 1.399 . S
C1828 C1829 1.376 . S
C1829 H1816 0.930 . S
C1829 C1828 1.376 . S
C1829 C1830 1.388 . S
C1830 H1817 0.930 . S
C1830 C1829 1.388 . S
C1830 C1831 1.390 . S
C1831 C1830 1.390 . S
C1831 C1832 1.394 . S
C1831 C1837 1.465 . S
C1832 C1827 1.399 . S
C1832 C1831 1.394 . S
C1832 C1833 1.516 . S
C1833 C1832 1.516 . S
C1833 C1834 1.502 . S
C1833 C1835 1.561 . S
C1833 C1836 1.526 . S
C1834 H1818 0.959 . S
C1834 H1819 0.959 . S
C1834 H1820 0.961 . S
C1834 C1833 1.502 . S
C1835 H1821 0.960 . S
C1835 H1822 0.961 . S
C1835 H1823 0.959 . S
C1835 C1833 1.561 . S
C1836 C1833 1.526 . S
C1836 C1837 1.396 . S
C1836 C1841 1.390 . S
C1837 C1831 1.465 . S
C1837 C1836 1.396 . S
C1837 C1838 1.399 . S
C1838 H1824 0.929 . S
C1838 C1837 1.399 . S
C1838 C1839 1.385 . S
C1839 H1825 0.931 . S
C1839 C1838 1.385 . S
C1839 C1840 1.389 . S
C1840 C1839 1.389 . S
C1840 C1841 1.387 . S
C1841 H1826 0.930 . S
C1841 C1836 1.390 . S
C1841 C1840 1.387 . S
H1842 C1854 0.930 . S
H1843 C1856 0.930 . S
H1844 C1857 0.930 . S
H1845 C1861 0.959 . S
H1846 C1861 0.959 . S
H1847 C1861 0.961 . S
H1848 C1862 0.960 . S
H1849 C1862 0.961 . S
H1850 C1862 0.959 . S
H1851 C1865 0.929 . S
H1852 C1866 0.931 . S
H1853 C1868 0.930 . S
C1854 H1842 0.930 . S
C1854 C1855 1.399 . S
C1854 C1859 1.399 . S
C1855 C1854 1.399 . S
C1855 C1856 1.376 . S
C1856 H1843 0.930 . S
C1856 C1855 1.376 . S
C1856 C1857 1.388 . S
C1857 H1844 0.930 . S
C1857 C1856 1.388 . S
C1857 C1858 1.390 . S
C1858 C1857 1.390 . S
C1858 C1859 1.394 . S
C1858 C1864 1.465 . S
C1859 C1854 1.399 . S
C1859 C1858 1.394 . S
C1859 C1860 1.516 . S
C1860 C1859 1.516 . S
C1860 C1861 1.502 . S
C1860 C1862 1.561 . S
C1860 C1863 1.526 . S
C1861 H1845 0.959 . S
C1861 H1846 0.959 . S
C1861 H1847 0.961 . S
C1861 C1860 1.502 . S
C1862 H1848 0.960 . S
C1862 H1849 0.961 . S
C1862 H1850 0.959 . S
C1862 C1860 1.561 . S
C1863 C1860 1.526 . S
C1863 C1864 1.396 . S
C1863 C1868 1.390 . S
C1864 C1858 1.465 . S
C1864 C1863 1.396 . S
C1864 C1865 1.399 . S
C1865 H1851 0.929 . S
C1865 C1864 1.399 . S
C1865 C1866 1.385 . S
C1866 H1852 0.931 . S
C1866 C1865 1.385 . S
C1866 C1867 1.389 . S
C1867 C1866 1.389 . S
C1867 C1868 1.387 . S
C1868 H1853 0.930 . S
C1868 C1863 1.390 . S
C1868 C1867 1.387 . S
H1869 C1881 0.930 . S
H1870 C1883 0.930 . S
H1871 C1884 0.930 . S
H1872 C1888 0.959 . S
H1873 C1888 0.959 . S
H1874 C1888 0.961 . S
H1875 C1889 0.960 . S
H1876 C1889 0.961 . S
H1877 C1889 0.959 . S
H1878 C1892 0.929 . S
H1879 C1893 0.931 . S
H1880 C1895 0.930 . S
C1881 H1869 0.930 . S
C1881 C1882 1.399 . S
C1881 C1886 1.399 . S
C1882 C1881 1.399 . S
C1882 C1883 1.376 . S
C1883 H1870 0.930 . S
C1883 C1882 1.376 . S
C1883 C1884 1.388 . S
C1884 H1871 0.930 . S
C1884 C1883 1.388 . S
C1884 C1885 1.390 . S
C1885 C1884 1.390 . S
C1885 C1886 1.394 . S
C1885 C1891 1.465 . S
C1886 C1881 1.399 . S
C1886 C1885 1.394 . S
C1886 C1887 1.516 . S
C1887 C1886 1.516 . S
C1887 C1888 1.502 . S
C1887 C1889 1.561 . S
C1887 C1890 1.526 . S
C1888 H1872 0.959 . S
C1888 H1873 0.959 . S
C1888 H1874 0.961 . S
C1888 C1887 1.502 . S
C1889 H1875 0.960 . S
C1889 H1876 0.961 . S
C1889 H1877 0.959 . S
C1889 C1887 1.561 . S
C1890 C1887 1.526 . S
C1890 C1891 1.396 . S
C1890 C1895 1.390 . S
C1891 C1885 1.465 . S
C1891 C1890 1.396 . S
C1891 C1892 1.399 . S
C1892 H1878 0.929 . S
C1892 C1891 1.399 . S
C1892 C1893 1.385 . S
C1893 H1879 0.931 . S
C1893 C1892 1.385 . S
C1893 C1894 1.389 . S
C1894 C1893 1.389 . S
C1894 C1895 1.387 . S
C1895 H1880 0.930 . S
C1895 C1890 1.390 . S
C1895 C1894 1.387 . S
H1896 C1908 0.930 . S
H1897 C1910 0.930 . S
H1898 C1911 0.930 . S
H1899 C1915 0.959 . S
H1900 C1915 0.959 . S
H1901 C1915 0.961 . S
H1902 C1916 0.960 . S
H1903 C1916 0.961 . S
H1904 C1916 0.959 . S
H1905 C1919 0.929 . S
H1906 C1920 0.931 . S
H1907 C1922 0.930 . S
C1908 H1896 0.930 . S
C1908 C1909 1.399 . S
C1908 C1913 1.399 . S
C1909 C1908 1.399 . S
C1909 C1910 1.376 . S
C1910 H1897 0.930 . S
C1910 C1909 1.376 . S
C1910 C1911 1.388 . S
C1911 H1898 0.930 . S
C1911 C1910 1.388 . S
C1911 C1912 1.390 . S
C1912 C1911 1.390 . S
C1912 C1913 1.394 . S
C1912 C1918 1.465 . S
C1913 C1908 1.399 . S
C1913 C1912 1.394 . S
C1913 C1914 1.516 . S
C1914 C1913 1.516 . S
C1914 C1915 1.502 . S
C1914 C1916 1.561 . S
C1914 C1917 1.526 . S
C1915 H1899 0.959 . S
C1915 H1900 0.959 . S
C1915 H1901 0.961 . S
C1915 C1914 1.502 . S
C1916 H1902 0.960 . S
C1916 H1903 0.961 . S
C1916 H1904 0.959 . S
C1916 C1914 1.561 . S
C1917 C1914 1.526 . S
C1917 C1918 1.396 . S
C1917 C1922 1.390 . S
C1918 C1912 1.465 . S
C1918 C1917 1.396 . S
C1918 C1919 1.399 . S
C1919 H1905 0.929 . S
C1919 C1918 1.399 . S
C1919 C1920 1.385 . S
C1920 H1906 0.931 . S
C1920 C1919 1.385 . S
C1920 C1921 1.389 . S
C1921 C1920 1.389 . S
C1921 C1922 1.387 . S
C1922 H1907 0.930 . S
C1922 C1917 1.390 . S
C1922 C1921 1.387 . S
H1923 C1935 0.930 . S
H1924 C1937 0.930 . S
H1925 C1938 0.930 . S
H1926 C1942 0.959 . S
H1927 C1942 0.959 . S
H1928 C1942 0.961 . S
H1929 C1943 0.960 . S
H1930 C1943 0.961 . S
H1931 C1943 0.959 . S
H1932 C1946 0.929 . S
H1933 C1947 0.931 . S
H1934 C1949 0.930 . S
C1935 H1923 0.930 . S
C1935 C1936 1.399 . S
C1935 C1940 1.399 . S
C1936 C1935 1.399 . S
C1936 C1937 1.376 . S
C1937 H1924 0.930 . S
C1937 C1936 1.376 . S
C1937 C1938 1.388 . S
C1938 H1925 0.930 . S
C1938 C1937 1.388 . S
C1938 C1939 1.390 . S
C1939 C1938 1.390 . S
C1939 C1940 1.394 . S
C1939 C1945 1.465 . S
C1940 C1935 1.399 . S
C1940 C1939 1.394 . S
C1940 C1941 1.516 . S
C1941 C1940 1.516 . S
C1941 C1942 1.502 . S
C1941 C1943 1.561 . S
C1941 C1944 1.526 . S
C1942 H1926 0.959 . S
C1942 H1927 0.959 . S
C1942 H1928 0.961 . S
C1942 C1941 1.502 . S
C1943 H1929 0.960 . S
C1943 H1930 0.961 . S
C1943 H1931 0.959 . S
C1943 C1941 1.561 . S
C1944 C1941 1.526 . S
C1944 C1945 1.396 . S
C1944 C1949 1.390 . S
C1945 C1939 1.465 . S
C1945 C1944 1.396 . S
C1945 C1946 1.399 . S
C1946 H1932 0.929 . S
C1946 C1945 1.399 . S
C1946 C1947 1.385 . S
C1947 H1933 0.931 . S
C1947 C1946 1.385 . S
C1947 C1948 1.389 . S
C1948 C1947 1.389 . S
C1948 C1949 1.387 . S
C1949 H1934 0.930 . S
C1949 C1944 1.390 . S
C1949 C1948 1.387 . S
H1950 C1962 0.930 . S
H1951 C1964 0.930 . S
H1952 C1965 0.930 . S
H1953 C1969 0.959 . S
H1954 C1969 0.959 . S
H1955 C1969 0.961 . S
H1956 C1970 0.960 . S
H1957 C1970 0.961 . S
H1958 C1970 0.959 . S
H1959 C1973 0.929 . S
H1960 C1974 0.931 . S
H1961 C1976 0.930 . S
C1962 H1950 0.930 . S
C1962 C1963 1.399 . S
C1962 C1967 1.399 . S
C1963 C1962 1.399 . S
C1963 C1964 1.376 . S
C1964 H1951 0.930 . S
C1964 C1963 1.376 . S
C1964 C1965 1.388 . S
C1965 H1952 0.930 . S
C1965 C1964 1.388 . S
C1965 C1966 1.390 . S
C1966 C1965 1.390 . S
C1966 C1967 1.394 . S
C1966 C1972 1.465 . S
C1967 C1962 1.399 . S
C1967 C1966 1.394 . S
C1967 C1968 1.516 . S
C1968 C1967 1.516 . S
C1968 C1969 1.502 . S
C1968 C1970 1.561 . S
C1968 C1971 1.526 . S
C1969 H1953 0.959 . S
C1969 H1954 0.959 . S
C1969 H1955 0.961 . S
C1969 C1968 1.502 . S
C1970 H1956 0.960 . S
C1970 H1957 0.961 . S
C1970 H1958 0.959 . S
C1970 C1968 1.561 . S
C1971 C1968 1.526 . S
C1971 C1972 1.396 . S
C1971 C1976 1.390 . S
C1972 C1966 1.465 . S
C1972 C1971 1.396 . S
C1972 C1973 1.399 . S
C1973 H1959 0.929 . S
C1973 C1972 1.399 . S
C1973 C1974 1.385 . S
C1974 H1960 0.931 . S
C1974 C1973 1.385 . S
C1974 C1975 1.389 . S
C1975 C1974 1.389 . S
C1975 C1976 1.387 . S
C1976 H1961 0.930 . S
C1976 C1971 1.390 . S
C1976 C1975 1.387 . S
H1977 C1989 0.930 . S
H1978 C1991 0.930 . S
H1979 C1992 0.930 . S
H1980 C1996 0.959 . S
H1981 C1996 0.959 . S
H1982 C1996 0.961 . S
H1983 C1997 0.960 . S
H1984 C1997 0.961 . S
H1985 C1997 0.959 . S
H1986 C2000 0.929 . S
H1987 C2001 0.931 . S
H1988 C2003 0.930 . S
C1989 H1977 0.930 . S
C1989 C1990 1.399 . S
C1989 C1994 1.399 . S
C1990 C1989 1.399 . S
C1990 C1991 1.376 . S
C1991 H1978 0.930 . S
C1991 C1990 1.376 . S
C1991 C1992 1.388 . S
C1992 H1979 0.930 . S
C1992 C1991 1.388 . S
C1992 C1993 1.390 . S
C1993 C1992 1.390 . S
C1993 C1994 1.394 . S
C1993 C1999 1.465 . S
C1994 C1989 1.399 . S
C1994 C1993 1.394 . S
C1994 C1995 1.516 . S
C1995 C1994 1.516 . S
C1995 C1996 1.502 . S
C1995 C1997 1.561 . S
C1995 C1998 1.526 . S
C1996 H1980 0.959 . S
C1996 H1981 0.959 . S
C1996 H1982 0.961 . S
C1996 C1995 1.502 . S
C1997 H1983 0.960 . S
C1997 H1984 0.961 . S
C1997 H1985 0.959 . S
C1997 C1995 1.561 . S
C1998 C1995 1.526 . S
C1998 C1999 1.396 . S
C1998 C2003 1.390 . S
C1999 C1993 1.465 . S
C1999 C1998 1.396 . S
C1999 C2000 1.399 . S
C2000 H1986 0.929 . S
C2000 C1999 1.399 . S
C2000 C2001 1.385 . S
C2001 H1987 0.931 . S
C2001 C2000 1.385 . S
C2001 C2002 1.389 . S
C2002 C2001 1.389 . S
C2002 C2003 1.387 . S
C2003 H1988 0.930 . S
C2003 C1998 1.390 . S
C2003 C2002 1.387 . S
H2004 C2016 0.930 . S
H2005 C2018 0.930 . S
H2006 C2019 0.930 . S
H2007 C2023 0.959 . S
H2008 C2023 0.959 . S
H2009 C2023 0.961 . S
H2010 C2024 0.960 . S
H2011 C2024 0.961 . S
H2012 C2024 0.959 . S
H2013 C2027 0.929 . S
H2014 C2028 0.931 . S
H2015 C2030 0.930 . S
C2016 H2004 0.930 . S
C2016 C2017 1.399 . S
C2016 C2021 1.399 . S
C2017 C2016 1.399 . S
C2017 C2018 1.376 . S
C2018 H2005 0.930 . S
C2018 C2017 1.376 . S
C2018 C2019 1.388 . S
C2019 H2006 0.930 . S
C2019 C2018 1.388 . S
C2019 C2020 1.390 . S
C2020 C2019 1.390 . S
C2020 C2021 1.394 . S
C2020 C2026 1.465 . S
C2021 C2016 1.399 . S
C2021 C2020 1.394 . S
C2021 C2022 1.516 . S
C2022 C2021 1.516 . S
C2022 C2023 1.502 . S
C2022 C2024 1.561 . S
C2022 C2025 1.526 . S
C2023 H2007 0.959 . S
C2023 H2008 0.959 . S
C2023 H2009 0.961 . S
C2023 C2022 1.502 . S
C2024 H2010 0.960 . S
C2024 H2011 0.961 . S
C2024 H2012 0.959 . S
C2024 C2022 1.561 . S
C2025 C2022 1.526 . S
C2025 C2026 1.396 . S
C2025 C2030 1.390 . S
C2026 C2020 1.465 . S
C2026 C2025 1.396 . S
C2026 C2027 1.399 . S
C2027 H2013 0.929 . S
C2027 C2026 1.399 . S
C2027 C2028 1.385 . S
C2028 H2014 0.931 . S
C2028 C2027 1.385 . S
C2028 C2029 1.389 . S
C2029 C2028 1.389 . S
C2029 C2030 1.387 . S
C2030 H2015 0.930 . S
C2030 C2025 1.390 . S
C2030 C2029 1.387 . S
H2031 C2043 0.930 . S
H2032 C2045 0.930 . S
H2033 C2046 0.930 . S
H2034 C2050 0.959 . S
H2035 C2050 0.959 . S
H2036 C2050 0.961 . S
H2037 C2051 0.960 . S
H2038 C2051 0.961 . S
H2039 C2051 0.959 . S
H2040 C2054 0.929 . S
H2041 C2055 0.931 . S
H2042 C2057 0.930 . S
C2043 H2031 0.930 . S
C2043 C2044 1.399 . S
C2043 C2048 1.399 . S
C2044 C2043 1.399 . S
C2044 C2045 1.376 . S
C2045 H2032 0.930 . S
C2045 C2044 1.376 . S
C2045 C2046 1.388 . S
C2046 H2033 0.930 . S
C2046 C2045 1.388 . S
C2046 C2047 1.390 . S
C2047 C2046 1.390 . S
C2047 C2048 1.394 . S
C2047 C2053 1.465 . S
C2048 C2043 1.399 . S
C2048 C2047 1.394 . S
C2048 C2049 1.516 . S
C2049 C2048 1.516 . S
C2049 C2050 1.502 . S
C2049 C2051 1.561 . S
C2049 C2052 1.526 . S
C2050 H2034 0.959 . S
C2050 H2035 0.959 . S
C2050 H2036 0.961 . S
C2050 C2049 1.502 . S
C2051 H2037 0.960 . S
C2051 H2038 0.961 . S
C2051 H2039 0.959 . S
C2051 C2049 1.561 . S
C2052 C2049 1.526 . S
C2052 C2053 1.396 . S
C2052 C2057 1.390 . S
C2053 C2047 1.465 . S
C2053 C2052 1.396 . S
C2053 C2054 1.399 . S
C2054 H2040 0.929 . S
C2054 C2053 1.399 . S
C2054 C2055 1.385 . S
C2055 H2041 0.931 . S
C2055 C2054 1.385 . S
C2055 C2056 1.389 . S
C2056 C2055 1.389 . S
C2056 C2057 1.387 . S
C2057 H2042 0.930 . S
C2057 C2052 1.390 . S
C2057 C2056 1.387 . S
H2058 C2070 0.930 . S
H2059 C2072 0.930 . S
H2060 C2073 0.930 . S
H2061 C2077 0.959 . S
H2062 C2077 0.959 . S
H2063 C2077 0.961 . S
H2064 C2078 0.960 . S
H2065 C2078 0.961 . S
H2066 C2078 0.959 . S
H2067 C2081 0.929 . S
H2068 C2082 0.931 . S
H2069 C2084 0.930 . S
C2070 H2058 0.930 . S
C2070 C2071 1.399 . S
C2070 C2075 1.399 . S
C2071 C2070 1.399 . S
C2071 C2072 1.376 . S
C2072 H2059 0.930 . S
C2072 C2071 1.376 . S
C2072 C2073 1.388 . S
C2073 H2060 0.930 . S
C2073 C2072 1.388 . S
C2073 C2074 1.390 . S
C2074 C2073 1.390 . S
C2074 C2075 1.394 . S
C2074 C2080 1.465 . S
C2075 C2070 1.399 . S
C2075 C2074 1.394 . S
C2075 C2076 1.516 . S
C2076 C2075 1.516 . S
C2076 C2077 1.502 . S
C2076 C2078 1.561 . S
C2076 C2079 1.526 . S
C2077 H2061 0.959 . S
C2077 H2062 0.959 . S
C2077 H2063 0.961 . S
C2077 C2076 1.502 . S
C2078 H2064 0.960 . S
C2078 H2065 0.961 . S
C2078 H2066 0.959 . S
C2078 C2076 1.561 . S
C2079 C2076 1.526 . S
C2079 C2080 1.396 . S
C2079 C2084 1.390 . S
C2080 C2074 1.465 . S
C2080 C2079 1.396 . S
C2080 C2081 1.399 . S
C2081 H2067 0.929 . S
C2081 C2080 1.399 . S
C2081 C2082 1.385 . S
C2082 H2068 0.931 . S
C2082 C2081 1.385 . S
C2082 C2083 1.389 . S
C2083 C2082 1.389 . S
C2083 C2084 1.387 . S
C2084 H2069 0.930 . S
C2084 C2079 1.390 . S
C2084 C2083 1.387 . S
H2085 C2097 0.930 . S
H2086 C2099 0.930 . S
H2087 C2100 0.930 . S
H2088 C2104 0.959 . S
H2089 C2104 0.959 . S
H2090 C2104 0.961 . S
H2091 C2105 0.960 . S
H2092 C2105 0.961 . S
H2093 C2105 0.959 . S
H2094 C2108 0.929 . S
H2095 C2109 0.931 . S
H2096 C2111 0.930 . S
C2097 H2085 0.930 . S
C2097 C2098 1.399 . S
C2097 C2102 1.399 . S
C2098 C2097 1.399 . S
C2098 C2099 1.376 . S
C2099 H2086 0.930 . S
C2099 C2098 1.376 . S
C2099 C2100 1.388 . S
C2100 H2087 0.930 . S
C2100 C2099 1.388 . S
C2100 C2101 1.390 . S
C2101 C2100 1.390 . S
C2101 C2102 1.394 . S
C2101 C2107 1.465 . S
C2102 C2097 1.399 . S
C2102 C2101 1.394 . S
C2102 C2103 1.516 . S
C2103 C2102 1.516 . S
C2103 C2104 1.502 . S
C2103 C2105 1.561 . S
C2103 C2106 1.526 . S
C2104 H2088 0.959 . S
C2104 H2089 0.959 . S
C2104 H2090 0.961 . S
C2104 C2103 1.502 . S
C2105 H2091 0.960 . S
C2105 H2092 0.961 . S
C2105 H2093 0.959 . S
C2105 C2103 1.561 . S
C2106 C2103 1.526 . S
C2106 C2107 1.396 . S
C2106 C2111 1.390 . S
C2107 C2101 1.465 . S
C2107 C2106 1.396 . S
C2107 C2108 1.399 . S
C2108 H2094 0.929 . S
C2108 C2107 1.399 . S
C2108 C2109 1.385 . S
C2109 H2095 0.931 . S
C2109 C2108 1.385 . S
C2109 C2110 1.389 . S
C2110 C2109 1.389 . S
C2110 C2111 1.387 . S
C2111 H2096 0.930 . S
C2111 C2106 1.390 . S
C2111 C2110 1.387 . S
H2112 C2124 0.930 . S
H2113 C2126 0.930 . S
H2114 C2127 0.930 . S
H2115 C2131 0.959 . S
H2116 C2131 0.959 . S
H2117 C2131 0.961 1_455 S
H2118 C2132 0.960 . S
H2119 C2132 0.961 . S
H2120 C2132 0.959 . S
H2121 C2135 0.929 . S
H2122 C2136 0.931 . S
H2123 C2138 0.930 . S
C2124 H2112 0.930 . S
C2124 C2125 1.399 . S
C2124 C2129 1.399 . S
C2125 C2124 1.399 . S
C2125 C2126 1.376 . S
C2126 H2113 0.930 . S
C2126 C2125 1.376 . S
C2126 C2127 1.388 . S
C2127 H2114 0.930 . S
C2127 C2126 1.388 . S
C2127 C2128 1.390 . S
C2128 C2127 1.390 . S
C2128 C2129 1.394 . S
C2128 C2134 1.465 1_455 S
C2129 C2124 1.399 . S
C2129 C2128 1.394 . S
C2129 C2130 1.516 . S
C2130 C2129 1.516 . S
C2130 C2131 1.502 1_455 S
C2130 C2132 1.561 . S
C2130 C2133 1.526 1_455 S
C2131 H2115 0.959 . S
C2131 H2116 0.959 . S
C2131 H2117 0.961 1_655 S
C2131 C2130 1.502 1_655 S
C2132 H2118 0.960 . S
C2132 H2119 0.961 . S
C2132 H2120 0.959 . S
C2132 C2130 1.561 . S
C2133 C2130 1.526 1_655 S
C2133 C2134 1.396 . S
C2133 C2138 1.390 . S
C2134 C2128 1.465 1_655 S
C2134 C2133 1.396 . S
C2134 C2135 1.399 . S
C2135 H2121 0.929 . S
C2135 C2134 1.399 . S
C2135 C2136 1.385 . S
C2136 H2122 0.931 . S
C2136 C2135 1.385 . S
C2136 C2137 1.389 . S
C2137 C2136 1.389 . S
C2137 C2138 1.387 . S
C2138 H2123 0.930 . S
C2138 C2133 1.390 . S
C2138 C2137 1.387 . S
H2139 C2151 0.930 . S
H2140 C2153 0.930 . S
H2141 C2154 0.930 . S
H2142 C2158 0.959 . S
H2143 C2158 0.959 . S
H2144 C2158 0.961 . S
H2145 C2159 0.960 1_545 S
H2146 C2159 0.961 . S
H2147 C2159 0.959 . S
H2148 C2162 0.929 . S
H2149 C2163 0.931 . S
H2150 C2165 0.930 . S
C2151 H2139 0.930 . S
C2151 C2152 1.399 . S
C2151 C2156 1.399 . S
C2152 C2151 1.399 . S
C2152 C2153 1.376 . S
C2153 H2140 0.930 . S
C2153 C2152 1.376 . S
C2153 C2154 1.388 . S
C2154 H2141 0.930 . S
C2154 C2153 1.388 . S
C2154 C2155 1.390 . S
C2155 C2154 1.390 . S
C2155 C2156 1.394 . S
C2155 C2161 1.465 1_545 S
C2156 C2151 1.399 . S
C2156 C2155 1.394 . S
C2156 C2157 1.516 . S
C2157 C2156 1.516 . S
C2157 C2158 1.502 . S
C2157 C2159 1.561 1_545 S
C2157 C2160 1.526 1_545 S
C2158 H2142 0.959 . S
C2158 H2143 0.959 . S
C2158 H2144 0.961 . S
C2158 C2157 1.502 . S
C2159 H2145 0.960 1_565 S
C2159 H2146 0.961 . S
C2159 H2147 0.959 . S
C2159 C2157 1.561 1_565 S
C2160 C2157 1.526 1_565 S
C2160 C2161 1.396 . S
C2160 C2165 1.390 . S
C2161 C2155 1.465 1_565 S
C2161 C2160 1.396 . S
C2161 C2162 1.399 . S
C2162 H2148 0.929 . S
C2162 C2161 1.399 . S
C2162 C2163 1.385 . S
C2163 H2149 0.931 . S
C2163 C2162 1.385 . S
C2163 C2164 1.389 . S
C2164 C2163 1.389 . S
C2164 C2165 1.387 . S
C2165 H2150 0.930 . S
C2165 C2160 1.390 . S
C2165 C2164 1.387 . S
H2166 C2178 0.930 . S
H2167 C2180 0.930 . S
H2168 C2181 0.930 . S
H2169 C2185 0.959 . S
H2170 C2185 0.959 . S
H2171 C2185 0.961 . S
H2172 C2186 0.960 . S
H2173 C2186 0.961 . S
H2174 C2186 0.959 . S
H2175 C2189 0.929 1_455 S
H2176 C2190 0.931 . S
H2177 C2192 0.930 . S
C2178 H2166 0.930 . S
C2178 C2179 1.399 . S
C2178 C2183 1.399 . S
C2179 C2178 1.399 . S
C2179 C2180 1.376 . S
C2180 H2167 0.930 . S
C2180 C2179 1.376 . S
C2180 C2181 1.388 . S
C2181 H2168 0.930 . S
C2181 C2180 1.388 . S
C2181 C2182 1.390 . S
C2182 C2181 1.390 . S
C2182 C2183 1.394 . S
C2182 C2188 1.465 1_455 S
C2183 C2178 1.399 . S
C2183 C2182 1.394 . S
C2183 C2184 1.516 1_455 S
C2184 C2183 1.516 1_655 S
C2184 C2185 1.502 . S
C2184 C2186 1.561 . S
C2184 C2187 1.526 . S
C2185 H2169 0.959 . S
C2185 H2170 0.959 . S
C2185 H2171 0.961 . S
C2185 C2184 1.502 . S
C2186 H2172 0.960 . S
C2186 H2173 0.961 . S
C2186 H2174 0.959 . S
C2186 C2184 1.561 . S
C2187 C2184 1.526 . S
C2187 C2188 1.396 . S
C2187 C2192 1.390 . S
C2188 C2182 1.465 1_655 S
C2188 C2187 1.396 . S
C2188 C2189 1.399 . S
C2189 H2175 0.929 1_655 S
C2189 C2188 1.399 . S
C2189 C2190 1.385 . S
C2190 H2176 0.931 . S
C2190 C2189 1.385 . S
C2190 C2191 1.389 . S
C2191 C2190 1.389 . S
C2191 C2192 1.387 . S
C2192 H2177 0.930 . S
C2192 C2187 1.390 . S
C2192 C2191 1.387 . S
H2193 C2205 0.930 . S
H2194 C2207 0.930 . S
H2195 C2208 0.930 . S
H2196 C2212 0.959 . S
H2197 C2212 0.959 . S
H2198 C2212 0.961 . S
H2199 C2213 0.960 . S
H2200 C2213 0.961 1_545 S
H2201 C2213 0.959 1_545 S
H2202 C2216 0.929 . S
H2203 C2217 0.931 . S
H2204 C2219 0.930 . S
C2205 H2193 0.930 . S
C2205 C2206 1.399 . S
C2205 C2210 1.399 . S
C2206 C2205 1.399 . S
C2206 C2207 1.376 . S
C2207 H2194 0.930 . S
C2207 C2206 1.376 . S
C2207 C2208 1.388 . S
C2208 H2195 0.930 . S
C2208 C2207 1.388 . S
C2208 C2209 1.390 . S
C2209 C2208 1.390 . S
C2209 C2210 1.394 . S
C2209 C2215 1.465 1_565 S
C2210 C2205 1.399 . S
C2210 C2209 1.394 . S
C2210 C2211 1.516 . S
C2211 C2210 1.516 . S
C2211 C2212 1.502 . S
C2211 C2213 1.561 . S
C2211 C2214 1.526 1_565 S
C2212 H2196 0.959 . S
C2212 H2197 0.959 . S
C2212 H2198 0.961 . S
C2212 C2211 1.502 . S
C2213 H2199 0.960 . S
C2213 H2200 0.961 1_565 S
C2213 H2201 0.959 1_565 S
C2213 C2211 1.561 . S
C2214 C2211 1.526 1_545 S
C2214 C2215 1.396 . S
C2214 C2219 1.390 . S
C2215 C2209 1.465 1_545 S
C2215 C2214 1.396 . S
C2215 C2216 1.399 . S
C2216 H2202 0.929 . S
C2216 C2215 1.399 . S
C2216 C2217 1.385 . S
C2217 H2203 0.931 . S
C2217 C2216 1.385 . S
C2217 C2218 1.389 . S
C2218 C2217 1.389 . S
C2218 C2219 1.387 . S
C2219 H2204 0.930 . S
C2219 C2214 1.390 . S
C2219 C2218 1.387 . S
H2220 C2232 0.930 . S
H2221 C2234 0.930 . S
H2222 C2235 0.930 1_545 S
H2223 C2239 0.959 . S
H2224 C2239 0.959 . S
H2225 C2239 0.961 . S
H2226 C2240 0.960 . S
H2227 C2240 0.961 . S
H2228 C2240 0.959 . S
H2229 C2243 0.929 . S
H2230 C2244 0.931 . S
H2231 C2246 0.930 . S
C2232 H2220 0.930 . S
C2232 C2233 1.399 . S
C2232 C2237 1.399 . S
C2233 C2232 1.399 . S
C2233 C2234 1.376 . S
C2234 H2221 0.930 . S
C2234 C2233 1.376 . S
C2234 C2235 1.388 . S
C2235 H2222 0.930 1_565 S
C2235 C2234 1.388 . S
C2235 C2236 1.390 . S
C2236 C2235 1.390 . S
C2236 C2237 1.394 . S
C2236 C2242 1.465 1_565 S
C2237 C2232 1.399 . S
C2237 C2236 1.394 . S
C2237 C2238 1.516 . S
C2238 C2237 1.516 . S
C2238 C2239 1.502 . S
C2238 C2240 1.561 . S
C2238 C2241 1.526 1_565 S
C2239 H2223 0.959 . S
C2239 H2224 0.959 . S
C2239 H2225 0.961 . S
C2239 C2238 1.502 . S
C2240 H2226 0.960 . S
C2240 H2227 0.961 . S
C2240 H2228 0.959 . S
C2240 C2238 1.561 . S
C2241 C2238 1.526 1_545 S
C2241 C2242 1.396 . S
C2241 C2246 1.390 . S
C2242 C2236 1.465 1_545 S
C2242 C2241 1.396 . S
C2242 C2243 1.399 . S
C2243 H2229 0.929 . S
C2243 C2242 1.399 . S
C2243 C2244 1.385 . S
C2244 H2230 0.931 . S
C2244 C2243 1.385 . S
C2244 C2245 1.389 . S
C2245 C2244 1.389 . S
C2245 C2246 1.387 . S
C2246 H2231 0.930 . S
C2246 C2241 1.390 . S
C2246 C2245 1.387 . S
H2247 C2259 0.930 . S
H2248 C2261 0.930 . S
H2249 C2262 0.930 . S
H2250 C2266 0.959 . S
H2251 C2266 0.959 1_655 S
H2252 C2266 0.961 . S
H2253 C2267 0.960 . S
H2254 C2267 0.961 . S
H2255 C2267 0.959 . S
H2256 C2270 0.929 . S
H2257 C2271 0.931 . S
H2258 C2273 0.930 . S
C2259 H2247 0.930 . S
C2259 C2260 1.399 . S
C2259 C2264 1.399 . S
C2260 C2259 1.399 . S
C2260 C2261 1.376 . S
C2261 H2248 0.930 . S
C2261 C2260 1.376 . S
C2261 C2262 1.388 . S
C2262 H2249 0.930 . S
C2262 C2261 1.388 . S
C2262 C2263 1.390 . S
C2263 C2262 1.390 . S
C2263 C2264 1.394 . S
C2263 C2269 1.465 1_455 S
C2264 C2259 1.399 . S
C2264 C2263 1.394 . S
C2264 C2265 1.516 1_455 S
C2265 C2264 1.516 1_655 S
C2265 C2266 1.502 1_655 S
C2265 C2267 1.561 . S
C2265 C2268 1.526 . S
C2266 H2250 0.959 . S
C2266 H2251 0.959 1_455 S
C2266 H2252 0.961 . S
C2266 C2265 1.502 1_455 S
C2267 H2253 0.960 . S
C2267 H2254 0.961 . S
C2267 H2255 0.959 . S
C2267 C2265 1.561 . S
C2268 C2265 1.526 . S
C2268 C2269 1.396 . S
C2268 C2273 1.390 . S
C2269 C2263 1.465 1_655 S
C2269 C2268 1.396 . S
C2269 C2270 1.399 . S
C2270 H2256 0.929 . S
C2270 C2269 1.399 . S
C2270 C2271 1.385 . S
C2271 H2257 0.931 . S
C2271 C2270 1.385 . S
C2271 C2272 1.389 . S
C2272 C2271 1.389 . S
C2272 C2273 1.387 . S
C2273 H2258 0.930 . S
C2273 C2268 1.390 . S
C2273 C2272 1.387 . S
H2274 C2286 0.930 . S
H2275 C2288 0.930 . S
H2276 C2289 0.930 . S
H2277 C2293 0.959 . S
H2278 C2293 0.959 . S
H2279 C2293 0.961 . S
H2280 C2294 0.960 . S
H2281 C2294 0.961 . S
H2282 C2294 0.959 . S
H2283 C2297 0.929 1_545 S
H2284 C2298 0.931 . S
H2285 C2300 0.930 . S
C2286 H2274 0.930 . S
C2286 C2287 1.399 . S
C2286 C2291 1.399 . S
C2287 C2286 1.399 . S
C2287 C2288 1.376 . S
C2288 H2275 0.930 . S
C2288 C2287 1.376 . S
C2288 C2289 1.388 . S
C2289 H2276 0.930 . S
C2289 C2288 1.388 . S
C2289 C2290 1.390 . S
C2290 C2289 1.390 . S
C2290 C2291 1.394 . S
C2290 C2296 1.465 1_545 S
C2291 C2286 1.399 . S
C2291 C2290 1.394 . S
C2291 C2292 1.516 1_545 S
C2292 C2291 1.516 1_565 S
C2292 C2293 1.502 . S
C2292 C2294 1.561 . S
C2292 C2295 1.526 . S
C2293 H2277 0.959 . S
C2293 H2278 0.959 . S
C2293 H2279 0.961 . S
C2293 C2292 1.502 . S
C2294 H2280 0.960 . S
C2294 H2281 0.961 . S
C2294 H2282 0.959 . S
C2294 C2292 1.561 . S
C2295 C2292 1.526 . S
C2295 C2296 1.396 . S
C2295 C2300 1.390 . S
C2296 C2290 1.465 1_565 S
C2296 C2295 1.396 . S
C2296 C2297 1.399 . S
C2297 H2283 0.929 1_565 S
C2297 C2296 1.399 . S
C2297 C2298 1.385 . S
C2298 H2284 0.931 . S
C2298 C2297 1.385 . S
C2298 C2299 1.389 . S
C2299 C2298 1.389 . S
C2299 C2300 1.387 . S
C2300 H2285 0.930 . S
C2300 C2295 1.390 . S
C2300 C2299 1.387 . S
H2301 C2313 0.930 . S
H2302 C2315 0.930 . S
H2303 C2316 0.930 1_455 S
H2304 C2320 0.959 . S
H2305 C2320 0.959 . S
H2306 C2320 0.961 . S
H2307 C2321 0.960 . S
H2308 C2321 0.961 . S
H2309 C2321 0.959 . S
H2310 C2324 0.929 . S
H2311 C2325 0.931 . S
H2312 C2327 0.930 . S
C2313 H2301 0.930 . S
C2313 C2314 1.399 . S
C2313 C2318 1.399 . S
C2314 C2313 1.399 . S
C2314 C2315 1.376 . S
C2315 H2302 0.930 . S
C2315 C2314 1.376 . S
C2315 C2316 1.388 . S
C2316 H2303 0.930 1_655 S
C2316 C2315 1.388 . S
C2316 C2317 1.390 . S
C2317 C2316 1.390 . S
C2317 C2318 1.394 . S
C2317 C2323 1.465 1_655 S
C2318 C2313 1.399 . S
C2318 C2317 1.394 . S
C2318 C2319 1.516 . S
C2319 C2318 1.516 . S
C2319 C2320 1.502 . S
C2319 C2321 1.561 . S
C2319 C2322 1.526 1_655 S
C2320 H2304 0.959 . S
C2320 H2305 0.959 . S
C2320 H2306 0.961 . S
C2320 C2319 1.502 . S
C2321 H2307 0.960 . S
C2321 H2308 0.961 . S
C2321 H2309 0.959 . S
C2321 C2319 1.561 . S
C2322 C2319 1.526 1_455 S
C2322 C2323 1.396 . S
C2322 C2327 1.390 . S
C2323 C2317 1.465 1_455 S
C2323 C2322 1.396 . S
C2323 C2324 1.399 . S
C2324 H2310 0.929 . S
C2324 C2323 1.399 . S
C2324 C2325 1.385 . S
C2325 H2311 0.931 . S
C2325 C2324 1.385 . S
C2325 C2326 1.389 . S
C2326 C2325 1.389 . S
C2326 C2327 1.387 . S
C2327 H2312 0.930 . S
C2327 C2322 1.390 . S
C2327 C2326 1.387 . S
H2328 C2340 0.930 . S
H2329 C2342 0.930 . S
H2330 C2343 0.930 . S
H2331 C2347 0.959 . S
H2332 C2347 0.959 . S
H2333 C2347 0.961 . S
H2334 C2348 0.960 1_556 S
H2335 C2348 0.961 . S
H2336 C2348 0.959 . S
H2337 C2351 0.929 . S
H2338 C2352 0.931 . S
H2339 C2354 0.930 . S
C2340 H2328 0.930 . S
C2340 C2341 1.399 . S
C2340 C2345 1.399 . S
C2341 C2340 1.399 . S
C2341 C2342 1.376 . S
C2342 H2329 0.930 . S
C2342 C2341 1.376 . S
C2342 C2343 1.388 . S
C2343 H2330 0.930 . S
C2343 C2342 1.388 . S
C2343 C2344 1.390 . S
C2344 C2343 1.390 . S
C2344 C2345 1.394 . S
C2344 C2350 1.465 1_556 S
C2345 C2340 1.399 . S
C2345 C2344 1.394 . S
C2345 C2346 1.516 . S
C2346 C2345 1.516 . S
C2346 C2347 1.502 . S
C2346 C2348 1.561 1_556 S
C2346 C2349 1.526 1_556 S
C2347 H2331 0.959 . S
C2347 H2332 0.959 . S
C2347 H2333 0.961 . S
C2347 C2346 1.502 . S
C2348 H2334 0.960 1_554 S
C2348 H2335 0.961 . S
C2348 H2336 0.959 . S
C2348 C2346 1.561 1_554 S
C2349 C2346 1.526 1_554 S
C2349 C2350 1.396 . S
C2349 C2354 1.390 . S
C2350 C2344 1.465 1_554 S
C2350 C2349 1.396 . S
C2350 C2351 1.399 . S
C2351 H2337 0.929 . S
C2351 C2350 1.399 . S
C2351 C2352 1.385 . S
C2352 H2338 0.931 . S
C2352 C2351 1.385 . S
C2352 C2353 1.389 . S
C2353 C2352 1.389 . S
C2353 C2354 1.387 . S
C2354 H2339 0.930 . S
C2354 C2349 1.390 . S
C2354 C2353 1.387 . S
H2355 C2367 0.930 . S
H2356 C2369 0.930 . S
H2357 C2370 0.930 . S
H2358 C2374 0.959 . S
H2359 C2374 0.959 1_556 S
H2360 C2374 0.961 . S
H2361 C2375 0.960 . S
H2362 C2375 0.961 . S
H2363 C2375 0.959 . S
H2364 C2378 0.929 . S
H2365 C2379 0.931 . S
H2366 C2381 0.930 . S
C2367 H2355 0.930 . S
C2367 C2368 1.399 . S
C2367 C2372 1.399 . S
C2368 C2367 1.399 . S
C2368 C2369 1.376 . S
C2369 H2356 0.930 . S
C2369 C2368 1.376 . S
C2369 C2370 1.388 . S
C2370 H2357 0.930 . S
C2370 C2369 1.388 . S
C2370 C2371 1.390 . S
C2371 C2370 1.390 . S
C2371 C2372 1.394 . S
C2371 C2377 1.465 1_554 S
C2372 C2367 1.399 . S
C2372 C2371 1.394 . S
C2372 C2373 1.516 1_554 S
C2373 C2372 1.516 1_556 S
C2373 C2374 1.502 1_556 S
C2373 C2375 1.561 . S
C2373 C2376 1.526 . S
C2374 H2358 0.959 . S
C2374 H2359 0.959 1_554 S
C2374 H2360 0.961 . S
C2374 C2373 1.502 1_554 S
C2375 H2361 0.960 . S
C2375 H2362 0.961 . S
C2375 H2363 0.959 . S
C2375 C2373 1.561 . S
C2376 C2373 1.526 . S
C2376 C2377 1.396 . S
C2376 C2381 1.390 . S
C2377 C2371 1.465 1_556 S
C2377 C2376 1.396 . S
C2377 C2378 1.399 . S
C2378 H2364 0.929 . S
C2378 C2377 1.399 . S
C2378 C2379 1.385 . S
C2379 H2365 0.931 . S
C2379 C2378 1.385 . S
C2379 C2380 1.389 . S
C2380 C2379 1.389 . S
C2380 C2381 1.387 . S
C2381 H2366 0.930 . S
C2381 C2376 1.390 . S
C2381 C2380 1.387 . S
H2382 C2394 0.930 . S
H2383 C2396 0.930 . S
H2384 C2397 0.930 1_554 S
H2385 C2401 0.959 . S
H2386 C2401 0.959 . S
H2387 C2401 0.961 . S
H2388 C2402 0.960 . S
H2389 C2402 0.961 . S
H2390 C2402 0.959 . S
H2391 C2405 0.929 . S
H2392 C2406 0.931 . S
H2393 C2408 0.930 . S
C2394 H2382 0.930 . S
C2394 C2395 1.399 . S
C2394 C2399 1.399 . S
C2395 C2394 1.399 . S
C2395 C2396 1.376 . S
C2396 H2383 0.930 . S
C2396 C2395 1.376 . S
C2396 C2397 1.388 . S
C2397 H2384 0.930 1_556 S
C2397 C2396 1.388 . S
C2397 C2398 1.390 . S
C2398 C2397 1.390 . S
C2398 C2399 1.394 . S
C2398 C2404 1.465 1_556 S
C2399 C2394 1.399 . S
C2399 C2398 1.394 . S
C2399 C2400 1.516 . S
C2400 C2399 1.516 . S
C2400 C2401 1.502 . S
C2400 C2402 1.561 . S
C2400 C2403 1.526 1_556 S
C2401 H2385 0.959 . S
C2401 H2386 0.959 . S
C2401 H2387 0.961 . S
C2401 C2400 1.502 . S
C2402 H2388 0.960 . S
C2402 H2389 0.961 . S
C2402 H2390 0.959 . S
C2402 C2400 1.561 . S
C2403 C2400 1.526 1_554 S
C2403 C2404 1.396 . S
C2403 C2408 1.390 . S
C2404 C2398 1.465 1_554 S
C2404 C2403 1.396 . S
C2404 C2405 1.399 . S
C2405 H2391 0.929 . S
C2405 C2404 1.399 . S
C2405 C2406 1.385 . S
C2406 H2392 0.931 . S
C2406 C2405 1.385 . S
C2406 C2407 1.389 . S
C2407 C2406 1.389 . S
C2407 C2408 1.387 . S
C2408 H2393 0.930 . S
C2408 C2403 1.390 . S
C2408 C2407 1.387 . S
H2409 C2421 0.930 . S
H2410 C2423 0.930 . S
H2411 C2424 0.930 . S
H2412 C2428 0.959 . S
H2413 C2428 0.959 . S
H2414 C2428 0.961 . S
H2415 C2429 0.960 . S
H2416 C2429 0.961 . S
H2417 C2429 0.959 . S
H2418 C2432 0.929 1_554 S
H2419 C2433 0.931 . S
H2420 C2435 0.930 . S
C2421 H2409 0.930 . S
C2421 C2422 1.399 . S
C2421 C2426 1.399 . S
C2422 C2421 1.399 . S
C2422 C2423 1.376 . S
C2423 H2410 0.930 . S
C2423 C2422 1.376 . S
C2423 C2424 1.388 . S
C2424 H2411 0.930 . S
C2424 C2423 1.388 . S
C2424 C2425 1.390 . S
C2425 C2424 1.390 . S
C2425 C2426 1.394 . S
C2425 C2431 1.465 1_554 S
C2426 C2421 1.399 . S
C2426 C2425 1.394 . S
C2426 C2427 1.516 1_554 S
C2427 C2426 1.516 1_556 S
C2427 C2428 1.502 . S
C2427 C2429 1.561 . S
C2427 C2430 1.526 . S
C2428 H2412 0.959 . S
C2428 H2413 0.959 . S
C2428 H2414 0.961 . S
C2428 C2427 1.502 . S
C2429 H2415 0.960 . S
C2429 H2416 0.961 . S
C2429 H2417 0.959 . S
C2429 C2427 1.561 . S
C2430 C2427 1.526 . S
C2430 C2431 1.396 . S
C2430 C2435 1.390 . S
C2431 C2425 1.465 1_556 S
C2431 C2430 1.396 . S
C2431 C2432 1.399 . S
C2432 H2418 0.929 1_556 S
C2432 C2431 1.399 . S
C2432 C2433 1.385 . S
C2433 H2419 0.931 . S
C2433 C2432 1.385 . S
C2433 C2434 1.389 . S
C2434 C2433 1.389 . S
C2434 C2435 1.387 . S
C2435 H2420 0.930 . S
C2435 C2430 1.390 . S
C2435 C2434 1.387 . S
C829 C326 1.609 . S
C841 C20 1.651 . S
C856 C360 1.621 . S
C868 C54 1.592 . S
C883 C394 1.671 . S
C895 C88 1.644 . S
C910 C122 1.623 . S
C922 C292 1.661 . S
C937 C530 1.597 . S
C949 C156 1.595 . S
C964 C190 1.637 . S
C976 C428 1.599 . S
C991 C224 1.665 . S
C1003 C462 1.629 . S
C1018 C258 1.655 . S
C1030 C496 1.615 . S
C1045 C564 1.603 . S
C1057 C632 1.592 . S
C1072 C768 1.668 . S
C1084 C598 1.663 . S
C1099 C666 1.664 . S
C1111 C802 1.626 . S
C1126 C734 1.650 . S
C1138 C700 1.671 . S
C1153 C781 1.440 . S
C1165 C33 1.422 . S
C1180 C577 1.416 . S
C1192 C67 1.446 . S
C1207 C815 1.501 . S
C1219 C101 1.454 . S
C1234 C135 1.381 . S
C1246 C747 1.514 . S
C1261 C645 1.442 . S
C1273 C169 1.419 . S
C1288 C679 1.459 . S
C1300 C203 1.496 . S
C1315 C713 1.478 . S
C1327 C237 1.479 . S
C1342 C611 1.523 . S
C1354 C271 1.415 . S
C1369 C305 1.449 . S
C1381 C475 1.414 . S
C1396 C509 1.525 . S
C1408 C339 1.392 . S
C1423 C543 1.380 . S
C1435 C373 1.510 . S
C1450 C441 1.434 . S
C1462 C407 1.427 . S
C1477 C444 1.881 . S
C1489 C9 1.841 . S
C1504 C43 1.865 . S
C1516 C478 1.870 . S
C1531 C512 1.869 . S
C1543 C77 1.864 . S
C1558 C410 1.889 . S
C1570 C111 1.862 . S
C1585 C376 1.860 . S
C1597 C145 1.850 . S
C1612 C179 1.832 . S
C1624 C274 1.876 . S
C1639 C308 1.889 . S
C1651 C213 1.861 . S
C1666 C342 1.887 . S
C1678 C247 1.871 . S
C1693 C281 1.840 . S
C1705 C36 1.881 . S
C1720 C70 1.868 . S
C1732 C315 1.863 . S
C1747 C349 1.827 . S
C1759 C104 1.856 . S
C1774 C2 1.879 . S
C1786 C383 1.838 . S
C1801 C417 1.840 . S
C1813 C240 1.881 . S
C1828 C138 1.885 . S
C1840 C451 1.848 . S
C1855 C172 1.882 . S
C1867 C485 1.873 . S
C1882 C519 1.870 . S
C1894 C206 1.888 . S
C1909 C553 1.831 . S
C1921 C750 1.875 . S
C1936 C587 1.837 . S
C1948 C614 1.856 . S
C1963 C621 1.831 . S
C1975 C648 1.856 . S
C1990 C682 1.884 . S
C2002 C655 1.873 . S
C2017 C580 1.876 . S
C2029 C689 1.833 . S
C2044 C784 1.857 . S
C2056 C723 1.825 . S
C2071 C757 1.861 . S
C2083 C716 1.889 . S
C2098 C546 1.886 . S
C2110 C791 1.872 . S
C2125 C5 0.956 . S
C2137 C73 0.954 . S
C2152 C39 0.800 . S
C2164 C107 0.797 . S
C2179 C141 0.864 . S
C2191 C209 0.872 . S
C2206 C243 0.821 . S
C2218 C175 0.816 . S
C2233 C413 0.905 . S
C2245 C277 0.897 . S
C2260 C447 0.781 . S
C2272 C311 0.781 . S
C2287 C481 0.810 . S
C2299 C345 0.818 . S
C2314 C515 0.905 . S
C2326 C379 0.898 . S
C2341 C651 0.801 . S
C2353 C549 0.797 . S
C2368 C719 0.780 . S
C2380 C583 0.780 . S
C2395 C617 0.921 . S
C2407 C753 0.914 . S
C2422 C787 0.839 . S
C2434 C685 0.847 . S
