# Generated by pormake.
# Topology ukj, (4)-cn, num edge types: 1
# Building blocks:
#     Node 0, Type 0, BuildingBlock: KOZSID_clean_sbu_0, # of connection points: 4
#     Node 1, Type 0, BuildingBlock: KOZSID_clean_sbu_0, # of connection points: 4
#     Node 2, Type 0, BuildingBlock: KOZSID_clean_sbu_0, # of connection points: 4
#     Node 3, Type 0, BuildingBlock: KOZSID_clean_sbu_0, # of connection points: 4
#     Node 4, Type 0, BuildingBlock: KOZSID_clean_sbu_0, # of connection points: 4
#     Node 5, Type 0, BuildingBlock: KOZSID_clean_sbu_0, # of connection points: 4
#     Node 6, Type 0, BuildingBlock: KOZSID_clean_sbu_0, # of connection points: 4
#     Node 7, Type 0, BuildingBlock: KOZSID_clean_sbu_0, # of connection points: 4
#     Node 8, Type 0, BuildingBlock: KOZSID_clean_sbu_0, # of connection points: 4
#     Node 9, Type 0, BuildingBlock: KOZSID_clean_sbu_0, # of connection points: 4
#     Node 10, Type 0, BuildingBlock: KOZSID_clean_sbu_0, # of connection points: 4
#     Node 11, Type 0, BuildingBlock: KOZSID_clean_sbu_0, # of connection points: 4
#     Node 12, Type 0, BuildingBlock: KOZSID_clean_sbu_0, # of connection points: 4
#     Node 13, Type 0, BuildingBlock: KOZSID_clean_sbu_0, # of connection points: 4
#     Node 14, Type 0, BuildingBlock: KOZSID_clean_sbu_0, # of connection points: 4
#     Node 15, Type 0, BuildingBlock: KOZSID_clean_sbu_0, # of connection points: 4
#     Node 16, Type 0, BuildingBlock: KOZSID_clean_sbu_0, # of connection points: 4
#     Node 17, Type 0, BuildingBlock: KOZSID_clean_sbu_0, # of connection points: 4
#     Node 18, Type 0, BuildingBlock: KOZSID_clean_sbu_0, # of connection points: 4
#     Node 19, Type 0, BuildingBlock: KOZSID_clean_sbu_0, # of connection points: 4
#     Node 20, Type 0, BuildingBlock: KOZSID_clean_sbu_0, # of connection points: 4
#     Node 21, Type 0, BuildingBlock: KOZSID_clean_sbu_0, # of connection points: 4
#     Node 22, Type 0, BuildingBlock: KOZSID_clean_sbu_0, # of connection points: 4
#     Node 23, Type 0, BuildingBlock: KOZSID_clean_sbu_0, # of connection points: 4
#     Node 24, Type 0, BuildingBlock: KOZSID_clean_sbu_0, # of connection points: 4
#     Node 25, Type 0, BuildingBlock: KOZSID_clean_sbu_0, # of connection points: 4
#     Node 26, Type 0, BuildingBlock: KOZSID_clean_sbu_0, # of connection points: 4
#     Node 27, Type 0, BuildingBlock: KOZSID_clean_sbu_0, # of connection points: 4
#     Node 28, Type 0, BuildingBlock: KOZSID_clean_sbu_0, # of connection points: 4
#     Node 29, Type 0, BuildingBlock: KOZSID_clean_sbu_0, # of connection points: 4
#     Node 30, Type 0, BuildingBlock: KOZSID_clean_sbu_0, # of connection points: 4
#     Node 31, Type 0, BuildingBlock: KOZSID_clean_sbu_0, # of connection points: 4
#     Edge 32, Type (0, 0), BuildingBlock: AJUNOK_clean_linker_0, # of connection points: 2
#     Edge 33, Type (0, 0), BuildingBlock: AJUNOK_clean_linker_0, # of connection points: 2
#     Edge 34, Type (0, 0), BuildingBlock: AJUNOK_clean_linker_0, # of connection points: 2
#     Edge 35, Type (0, 0), BuildingBlock: AJUNOK_clean_linker_0, # of connection points: 2
#     Edge 36, Type (0, 0), BuildingBlock: AJUNOK_clean_linker_0, # of connection points: 2
#     Edge 37, Type (0, 0), BuildingBlock: AJUNOK_clean_linker_0, # of connection points: 2
#     Edge 38, Type (0, 0), BuildingBlock: AJUNOK_clean_linker_0, # of connection points: 2
#     Edge 39, Type (0, 0), BuildingBlock: AJUNOK_clean_linker_0, # of connection points: 2
#     Edge 40, Type (0, 0), BuildingBlock: AJUNOK_clean_linker_0, # of connection points: 2
#     Edge 41, Type (0, 0), BuildingBlock: AJUNOK_clean_linker_0, # of connection points: 2
#     Edge 42, Type (0, 0), BuildingBlock: AJUNOK_clean_linker_0, # of connection points: 2
#     Edge 43, Type (0, 0), BuildingBlock: AJUNOK_clean_linker_0, # of connection points: 2
#     Edge 44, Type (0, 0), BuildingBlock: AJUNOK_clean_linker_0, # of connection points: 2
#     Edge 45, Type (0, 0), BuildingBlock: AJUNOK_clean_linker_0, # of connection points: 2
#     Edge 46, Type (0, 0), BuildingBlock: AJUNOK_clean_linker_0, # of connection points: 2
#     Edge 47, Type (0, 0), BuildingBlock: AJUNOK_clean_linker_0, # of connection points: 2
#     Edge 48, Type (0, 0), BuildingBlock: AJUNOK_clean_linker_0, # of connection points: 2
#     Edge 49, Type (0, 0), BuildingBlock: AJUNOK_clean_linker_0, # of connection points: 2
#     Edge 50, Type (0, 0), BuildingBlock: AJUNOK_clean_linker_0, # of connection points: 2
#     Edge 51, Type (0, 0), BuildingBlock: AJUNOK_clean_linker_0, # of connection points: 2
#     Edge 52, Type (0, 0), BuildingBlock: AJUNOK_clean_linker_0, # of connection points: 2
#     Edge 53, Type (0, 0), BuildingBlock: AJUNOK_clean_linker_0, # of connection points: 2
#     Edge 54, Type (0, 0), BuildingBlock: AJUNOK_clean_linker_0, # of connection points: 2
#     Edge 55, Type (0, 0), BuildingBlock: AJUNOK_clean_linker_0, # of connection points: 2
#     Edge 56, Type (0, 0), BuildingBlock: AJUNOK_clean_linker_0, # of connection points: 2
#     Edge 57, Type (0, 0), BuildingBlock: AJUNOK_clean_linker_0, # of connection points: 2
#     Edge 58, Type (0, 0), BuildingBlock: AJUNOK_clean_linker_0, # of connection points: 2
#     Edge 59, Type (0, 0), BuildingBlock: AJUNOK_clean_linker_0, # of connection points: 2
#     Edge 60, Type (0, 0), BuildingBlock: AJUNOK_clean_linker_0, # of connection points: 2
#     Edge 61, Type (0, 0), BuildingBlock: AJUNOK_clean_linker_0, # of connection points: 2
#     Edge 62, Type (0, 0), BuildingBlock: AJUNOK_clean_linker_0, # of connection points: 2
#     Edge 63, Type (0, 0), BuildingBlock: AJUNOK_clean_linker_0, # of connection points: 2
#     Edge 64, Type (0, 0), BuildingBlock: AJUNOK_clean_linker_0, # of connection points: 2
#     Edge 65, Type (0, 0), BuildingBlock: AJUNOK_clean_linker_0, # of connection points: 2
#     Edge 66, Type (0, 0), BuildingBlock: AJUNOK_clean_linker_0, # of connection points: 2
#     Edge 67, Type (0, 0), BuildingBlock: AJUNOK_clean_linker_0, # of connection points: 2
#     Edge 68, Type (0, 0), BuildingBlock: AJUNOK_clean_linker_0, # of connection points: 2
#     Edge 69, Type (0, 0), BuildingBlock: AJUNOK_clean_linker_0, # of connection points: 2
#     Edge 70, Type (0, 0), BuildingBlock: AJUNOK_clean_linker_0, # of connection points: 2
#     Edge 71, Type (0, 0), BuildingBlock: AJUNOK_clean_linker_0, # of connection points: 2
#     Edge 72, Type (0, 0), BuildingBlock: AJUNOK_clean_linker_0, # of connection points: 2
#     Edge 73, Type (0, 0), BuildingBlock: AJUNOK_clean_linker_0, # of connection points: 2
#     Edge 74, Type (0, 0), BuildingBlock: AJUNOK_clean_linker_0, # of connection points: 2
#     Edge 75, Type (0, 0), BuildingBlock: AJUNOK_clean_linker_0, # of connection points: 2
#     Edge 76, Type (0, 0), BuildingBlock: AJUNOK_clean_linker_0, # of connection points: 2
#     Edge 77, Type (0, 0), BuildingBlock: AJUNOK_clean_linker_0, # of connection points: 2
#     Edge 78, Type (0, 0), BuildingBlock: AJUNOK_clean_linker_0, # of connection points: 2
#     Edge 79, Type (0, 0), BuildingBlock: AJUNOK_clean_linker_0, # of connection points: 2
#     Edge 80, Type (0, 0), BuildingBlock: AJUNOK_clean_linker_0, # of connection points: 2
#     Edge 81, Type (0, 0), BuildingBlock: AJUNOK_clean_linker_0, # of connection points: 2
#     Edge 82, Type (0, 0), BuildingBlock: AJUNOK_clean_linker_0, # of connection points: 2
#     Edge 83, Type (0, 0), BuildingBlock: AJUNOK_clean_linker_0, # of connection points: 2
#     Edge 84, Type (0, 0), BuildingBlock: AJUNOK_clean_linker_0, # of connection points: 2
#     Edge 85, Type (0, 0), BuildingBlock: AJUNOK_clean_linker_0, # of connection points: 2
#     Edge 86, Type (0, 0), BuildingBlock: AJUNOK_clean_linker_0, # of connection points: 2
#     Edge 87, Type (0, 0), BuildingBlock: AJUNOK_clean_linker_0, # of connection points: 2
#     Edge 88, Type (0, 0), BuildingBlock: AJUNOK_clean_linker_0, # of connection points: 2
#     Edge 89, Type (0, 0), BuildingBlock: AJUNOK_clean_linker_0, # of connection points: 2
#     Edge 90, Type (0, 0), BuildingBlock: AJUNOK_clean_linker_0, # of connection points: 2
#     Edge 91, Type (0, 0), BuildingBlock: AJUNOK_clean_linker_0, # of connection points: 2
#     Edge 92, Type (0, 0), BuildingBlock: AJUNOK_clean_linker_0, # of connection points: 2
#     Edge 93, Type (0, 0), BuildingBlock: AJUNOK_clean_linker_0, # of connection points: 2
#     Edge 94, Type (0, 0), BuildingBlock: AJUNOK_clean_linker_0, # of connection points: 2
#     Edge 95, Type (0, 0), BuildingBlock: AJUNOK_clean_linker_0, # of connection points: 2
# Relax obj value: 0.006
# Max RMSD: 0.180
# Mean RMSD: 0.180
data_MOF--net-ukj--node1-KOZSID_clean_sbu_0--edge1-AJUNOK_clean_linker_0
_symmetry_space_group_name_H-M    P1
_symmetry_Int_Tables_number       1
_symmetry_cell_setting            triclinic
loop_
_symmetry_equiv_pos_as_xyz
'x, y, z'
_cell_length_a     35.545117
_cell_length_b     60.795069
_cell_length_c     46.990856
_cell_angle_alpha  90.068108
_cell_angle_beta   89.999815
_cell_angle_gamma 90.004711
loop_
_atom_site_label
_atom_site_type_symbol
_atom_site_fract_x
_atom_site_fract_y
_atom_site_fract_z
_atom_type_partial_charge
C0 C 0.17868 0.37068 0.30577 0.0
C1 C 0.1656 0.39211 0.30933 0.0
C2 C 0.16146 0.40091 0.28289 0.0
C3 C 0.17223 0.38461 0.26458 0.0
N4 N 0.18215 0.36569 0.27763 0.0
Co5 Co 0.20325 0.33921 0.25793 0.0
N6 N 0.18699 0.35035 0.2203 0.0
C7 C 0.18098 0.37156 0.2137 0.0
C8 C 0.17692 0.37518 0.18508 0.0
C9 C 0.18038 0.35484 0.17295 0.0
C10 C 0.18523 0.34 0.19495 0.0
N11 N 0.22246 0.31273 0.23751 0.0
C12 C 0.21218 0.30452 0.21156 0.0
C13 C 0.23015 0.28475 0.20624 0.0
C14 C 0.25226 0.28048 0.22972 0.0
C15 C 0.2466 0.29787 0.24806 0.0
N16 N 0.22151 0.32904 0.2958 0.0
C17 C 0.24687 0.31279 0.29961 0.0
C18 C 0.25664 0.31004 0.32764 0.0
C19 C 0.23699 0.32585 0.34232 0.0
C20 C 0.21631 0.33759 0.32242 0.0
N21 N 0.15498 0.32253 0.2629 0.0
C22 C 0.09278 0.29258 0.26037 0.0
C23 C 0.12664 0.28704 0.27378 0.0
C24 C 0.15671 0.30198 0.27492 0.0
C25 C 0.09017 0.31427 0.24961 0.0
C26 C 0.12146 0.32889 0.25097 0.0
N27 N 0.25295 0.35438 0.25291 0.0
C28 C 0.31406 0.35629 0.22955 0.0
C29 C 0.32926 0.36954 0.25136 0.0
C30 C 0.30389 0.37629 0.27267 0.0
C31 C 0.26677 0.36825 0.27344 0.0
C32 C 0.27609 0.34932 0.23043 0.0
H33 H 0.24985 0.37296 0.29135 0.0
H34 H 0.266 0.33913 0.21325 0.0
H35 H 0.18216 0.29606 0.28443 0.0
H36 H 0.11898 0.34495 0.24134 0.0
C37 C 0.17423 0.3868 0.23512 0.0
C38 C 0.19431 0.35763 0.32942 0.0
C39 C 0.18798 0.31628 0.19104 0.0
C40 C 0.25778 0.29918 0.27673 0.0
H41 H 0.162 0.40124 0.32889 0.0
H42 H 0.15307 0.41755 0.27768 0.0
H43 H 0.17157 0.39062 0.17437 0.0
H44 H 0.18071 0.35127 0.15056 0.0
H45 H 0.22763 0.27462 0.18738 0.0
H46 H 0.26918 0.26596 0.23343 0.0
H47 H 0.2755 0.29785 0.33646 0.0
H48 H 0.23829 0.32865 0.36504 0.0
H49 H 0.13036 0.2709 0.28309 0.0
H50 H 0.06482 0.31965 0.23894 0.0
H51 H 0.33156 0.35071 0.21213 0.0
H52 H 0.31241 0.38769 0.28913 0.0
C53 C 0.14076 0.90436 0.31713 0.0
C54 C 0.16734 0.89026 0.32886 0.0
C55 C 0.18387 0.87947 0.30674 0.0
C56 C 0.16752 0.88812 0.28286 0.0
N57 N 0.1425 0.90421 0.28831 0.0
Co58 Co 0.11943 0.92469 0.25996 0.0
N59 N 0.15121 0.91271 0.22845 0.0
C60 C 0.17424 0.89503 0.22991 0.0
C61 C 0.2007 0.89448 0.20875 0.0
C62 C 0.19431 0.91283 0.193 0.0
C63 C 0.16266 0.92301 0.20434 0.0
N64 N 0.09769 0.94536 0.23131 0.0
C65 C 0.10828 0.94984 0.20396 0.0
C66 C 0.08191 0.96333 0.19087 0.0
C67 C 0.05493 0.96801 0.21084 0.0
C68 C 0.06573 0.95685 0.23483 0.0
N69 N 0.0875 0.9362 0.29197 0.0
C70 C 0.05693 0.949 0.28825 0.0
C71 C 0.03493 0.95073 0.3121 0.0
C72 C 0.05204 0.93785 0.33213 0.0
C73 C 0.08414 0.92917 0.31961 0.0
N74 N 0.15948 0.9471 0.268 0.0
C75 C 0.21615 0.98061 0.27004 0.0
C76 C 0.17758 0.98566 0.27202 0.0
C77 C 0.15005 0.96887 0.2711 0.0
C78 C 0.22531 0.95812 0.26785 0.0
C79 C 0.19699 0.94184 0.26722 0.0
N80 N 0.07755 0.90325 0.25147 0.0
C81 C 1.02324 0.89456 0.22167 0.0
C82 C 1.00309 0.88549 0.24474 0.0
C83 C 1.02302 0.88396 0.27058 0.0
C84 C 0.05997 0.89224 0.27319 0.0
C85 C 0.0602 0.90297 0.22534 0.0
H86 H 0.07316 0.89073 0.29357 0.0
H87 H 0.07386 0.91025 0.20716 0.0
H88 H 0.12092 0.9737 0.27208 0.0
H89 H 0.20582 0.92503 0.26508 0.0
C90 C 0.17944 0.88397 0.25536 0.0
C91 C 0.10836 0.91238 0.33341 0.0
C92 C 0.14162 0.94046 0.18939 0.0
C93 C 0.04811 0.95755 0.26141 0.0
H94 H 0.17212 0.8869 0.3512 0.0
H95 H 0.20567 0.86707 0.3079 0.0
H96 H 0.22432 0.88334 0.20676 0.0
H97 H 0.21103 0.91799 0.17496 0.0
H98 H 0.08149 0.96888 0.16904 0.0
H99 H 0.03036 0.97831 0.20814 0.0
H100 H 1.00838 0.9593 0.31418 0.0
H101 H 0.04053 0.93424 0.35286 0.0
H102 H 0.16851 1.00259 0.27407 0.0
H103 H 0.25429 0.95296 0.26558 0.0
H104 H 1.01031 0.89563 0.20087 0.0
H105 H 1.00974 0.8774 0.28945 0.0
C106 C 0.16693 0.89524 0.94378 0.0
C107 C 0.15052 0.87506 0.93709 0.0
C108 C 0.1363 0.86674 0.96164 0.0
C109 C 0.14507 0.88197 0.98196 0.0
N110 N 0.16353 0.89977 0.97202 0.0
Co111 Co 0.18533 0.92389 0.99609 0.0
N112 N 0.15658 0.91396 0.03013 0.0
C113 C 0.13516 0.89572 0.03222 0.0
C114 C 0.10877 0.89685 0.05342 0.0
C115 C 0.11398 0.91691 0.06571 0.0
C116 C 0.14473 0.92646 0.05222 0.0
N117 N 0.20665 0.94765 0.02081 0.0
C118 C 0.19812 0.95357 0.04816 0.0
C119 C 0.22369 0.96898 0.0582 0.0
C120 C 0.24828 0.9732 0.03634 0.0
C121 C 0.23692 0.95992 0.01431 0.0
N122 N 0.21362 0.93368 0.96157 0.0
C123 C 0.24208 0.94831 0.96169 0.0
C124 C 0.2576 0.95149 0.93526 0.0
C125 C 0.23831 0.93764 0.9174 0.0
C126 C 0.21226 0.92652 0.93399 0.0
N127 N 0.14279 0.94431 0.98654 0.0
C128 C 0.0854 0.97745 0.98609 0.0
C129 C 0.12295 0.98221 0.97898 0.0
C130 C 0.15079 0.9657 0.9795 0.0
C131 C 0.07702 0.95507 0.99111 0.0
C132 C 0.10576 0.93887 0.99089 0.0
N133 N 0.22975 0.90475 0.00591 0.0
C134 C 0.28555 0.89984 0.03542 0.0
C135 C 0.30507 0.88837 0.01377 0.0
C136 C 0.28405 0.88401 0.98893 0.0
C137 C 0.24731 0.8924 0.98534 0.0
C138 C 0.24802 0.90706 0.03146 0.0
H139 H 0.23415 0.8896 0.96512 0.0
H140 H 0.23473 0.9157 0.04877 0.0
H141 H 0.17924 0.97069 0.97528 0.0
H142 H 0.09804 0.92211 0.99548 0.0
C143 C 0.133 0.88094 0.0099 0.0
C144 C 0.18946 0.90788 0.92333 0.0
C145 C 0.16746 0.94388 0.06547 0.0
C146 C 0.25219 0.95933 0.98681 0.0
H147 H 0.15 0.86658 0.91687 0.0
H148 H 0.12134 0.85137 0.96435 0.0
H149 H 0.08674 0.88512 0.05816 0.0
H150 H 0.09847 0.92324 0.08378 0.0
H151 H 0.22506 0.97618 0.07921 0.0
H152 H 0.27167 0.9846 0.03654 0.0
H153 H 0.28035 0.96249 0.92963 0.0
H154 H 0.24366 0.93546 0.8949 0.0
H155 H 0.13126 0.99874 0.9733 0.0
H156 H 0.04859 0.95007 0.9962 0.0
H157 H 0.29925 0.90436 0.05506 0.0
H158 H 0.29611 0.8746 0.97164 0.0
C159 C 0.13206 0.36306 0.96188 0.0
C160 C 0.15774 0.3796 0.95549 0.0
C161 C 0.16639 0.38984 0.98054 0.0
C162 C 0.14694 0.37846 1.00092 0.0
N163 N 0.12744 0.36124 0.99046 0.0
Co164 Co 0.10317 0.3376 0.01338 0.0
N165 N 0.12425 0.34957 0.04925 0.0
C166 C 0.13669 0.37023 0.05329 0.0
C167 C 0.14457 0.3749 0.08122 0.0
C168 C 0.1371 0.35582 0.09552 0.0
C169 C 0.12629 0.34045 0.0754 0.0
N170 N 0.08092 0.31361 0.03693 0.0
C171 C 0.09151 0.30613 0.06312 0.0
C172 C 0.07077 0.28777 0.0707 0.0
C173 C 0.0463 0.28377 0.04856 0.0
C174 C 0.05356 0.29983 0.02869 0.0
N175 N 0.0804 0.32655 0.97708 0.0
C176 C 0.05132 0.31228 0.97624 0.0
C177 C 0.03419 0.3113 0.95016 0.0
C178 C 0.05299 0.32616 0.93354 0.0
C179 C 0.08157 0.33512 0.95009 0.0
N180 N 0.14811 0.31833 0.00826 0.0
C181 C 0.2078 0.28712 0.01038 0.0
C182 C 0.17172 0.28124 1.00112 0.0
C183 C 0.14274 0.29692 0.99995 0.0
C184 C 0.21378 0.30942 0.01722 0.0
C185 C 0.18363 0.32468 0.01623 0.0
N186 N 0.05675 0.35577 0.01889 0.0
C187 C 0.99904 0.36225 0.04545 0.0
C188 C 0.982 0.37234 0.02187 0.0
C189 C 1.00426 0.37538 0.99759 0.0
C190 C 0.04152 0.36751 0.99677 0.0
C191 C 0.0362 0.35412 0.04354 0.0
H192 H 0.05725 0.3703 0.97764 0.0
H193 H 0.04765 0.34565 0.06175 0.0
H194 H 0.11542 0.2913 0.99338 0.0
H195 H 0.18887 0.34141 0.02279 0.0
C196 C 0.14785 0.38283 0.03006 0.0
C197 C 0.10634 0.35349 0.94054 0.0
C198 C 0.11903 0.3173 0.08172 0.0
C199 C 0.04016 0.30061 1.00065 0.0
H200 H 0.16715 0.3848 0.93464 0.0
H201 H 0.18454 0.40396 0.98349 0.0
H202 H 0.15582 0.39001 0.08997 0.0
H203 H 0.13884 0.35344 0.11812 0.0
H204 H 0.07305 0.27832 0.09012 0.0
H205 H 0.02669 0.27022 0.04673 0.0
H206 H 1.00972 0.30172 0.94428 0.0
H207 H 0.04465 0.33074 0.91227 0.0
H208 H 0.16569 0.26442 0.99499 0.0
H209 H 0.24124 0.3149 0.02425 0.0
H210 H 0.98324 0.35985 0.06491 0.0
H211 H 0.99277 0.3836 0.97908 0.0
C212 C 0.83622 0.67874 0.6907 0.0
C213 C 0.81585 0.69071 0.67087 0.0
C214 C 0.79698 0.70681 0.68559 0.0
C215 C 0.80696 0.70401 0.71358 0.0
N216 N 0.83177 0.68748 0.71735 0.0
Co217 Co 0.84972 0.67712 0.75529 0.0
N218 N 0.83098 0.70369 0.77585 0.0
C219 C 0.807 0.71865 0.7653 0.0
C220 C 0.80128 0.73598 0.78372 0.0
C221 C 0.82315 0.73157 0.80727 0.0
C222 C 0.84109 0.71179 0.80193 0.0
N223 N 0.86597 0.66595 0.79301 0.0
C224 C 0.86888 0.67637 0.81835 0.0
C225 C 0.87549 0.66156 0.84016 0.0
C226 C 0.87866 0.64125 0.82791 0.0
C227 C 0.87288 0.64479 0.79944 0.0
N228 N 0.87026 0.65053 0.73536 0.0
C229 C 0.88093 0.63175 0.74836 0.0
C230 C 0.89208 0.61555 0.72999 0.0
C231 C 0.8874 0.62428 0.70353 0.0
C232 C 0.87349 0.64551 0.70717 0.0
N233 N 0.89836 0.69337 0.75043 0.0
C234 C 0.96172 0.72226 0.75298 0.0
C235 C 0.96403 0.70026 0.76252 0.0
C236 C 0.93204 0.68618 0.76127 0.0
C237 C 0.92755 0.72883 0.74099 0.0
C238 C 0.89692 0.71432 0.73959 0.0
N239 N 0.79957 0.66236 0.76024 0.0
C240 C 0.74755 0.64151 0.74002 0.0
C241 C 0.72224 0.64878 0.76112 0.0
C242 C 0.73803 0.66163 0.78312 0.0
C243 C 0.77645 0.66777 0.78259 0.0
C244 C 0.78523 0.64875 0.73961 0.0
H245 H 0.7869 0.67768 0.79993 0.0
H246 H 0.80216 0.64366 0.72188 0.0
H247 H 0.93421 0.66978 0.76996 0.0
H248 H 0.87137 0.72078 0.73086 0.0
C249 C 0.79611 0.71754 0.73656 0.0
C250 C 0.85697 0.65824 0.6836 0.0
C251 C 0.86537 0.7001 0.82253 0.0
C252 C 0.87965 0.62967 0.77786 0.0
H253 H 0.81405 0.68777 0.64819 0.0
H254 H 0.77829 0.71913 0.67686 0.0
H255 H 0.78451 0.75055 0.78002 0.0
H256 H 0.82562 0.74166 0.82616 0.0
H257 H 0.87692 0.66508 0.86257 0.0
H258 H 0.88536 0.6259 0.8384 0.0
H259 H 0.90125 0.59906 0.73517 0.0
H260 H 0.89134 0.61529 0.6839 0.0
H261 H 0.98986 0.69424 0.7719 0.0
H262 H 0.92423 0.7454 0.73289 0.0
H263 H 0.73863 0.63032 0.72346 0.0
H264 H 0.72071 0.66757 0.80042 0.0
C265 C 0.96802 0.08442 0.69153 0.0
C266 C 0.99508 0.0748 0.67423 0.0
C267 C 1.012 0.0586 0.68991 0.0
C268 C 0.99496 0.05929 0.71608 0.0
N269 N 0.9675 0.07456 0.71781 0.0
Co270 Co 0.94435 0.0846 0.75453 0.0
N271 N 0.96582 0.05976 0.77715 0.0
C272 C 0.99133 0.04517 0.76783 0.0
C273 C 0.9988 0.02896 0.78745 0.0
C274 C 0.9764 0.03365 0.81058 0.0
C275 C 0.95657 0.05252 0.80378 0.0
N276 N 0.92369 0.09619 0.79087 0.0
C277 C 0.92423 0.08748 0.81729 0.0
C278 C 0.91316 0.10276 0.83747 0.0
C279 C 0.90284 0.12129 0.82308 0.0
C280 C 0.90937 0.11646 0.79503 0.0
N281 N 0.91985 0.10865 0.73226 0.0
C282 C 0.89772 0.12465 0.74289 0.0
C283 C 0.87846 0.13613 0.72247 0.0
C284 C 0.88994 0.12726 0.6972 0.0
C285 C 0.91689 0.11148 0.7037 0.0
N286 N 0.8989 0.06539 0.74866 0.0
C287 C 0.83937 0.03347 0.74853 0.0
C288 C 0.83467 0.05458 0.76057 0.0
C289 C 0.86435 0.07023 0.76018 0.0
C290 C 0.87443 0.02919 0.73597 0.0
C291 C 0.90331 0.04508 0.73625 0.0
N292 N 0.99141 0.10245 0.76077 0.0
C293 C 0.04076 0.12598 0.74161 0.0
C294 C 0.06722 0.11877 0.76197 0.0
C295 C 0.053 0.10489 0.78342 0.0
C296 C 1.01531 0.09749 0.78284 0.0
C297 C 1.0037 0.11754 0.74118 0.0
H298 H 1.00629 0.08698 0.79995 0.0
H299 H 0.9856 0.12297 0.72435 0.0
H300 H 0.85943 0.086 0.77001 0.0
H301 H 0.92984 0.04025 0.72735 0.0
C302 C 1.00454 0.04632 0.73975 0.0
C303 C 0.94521 0.10387 0.68308 0.0
C304 C 0.93184 0.06444 0.82375 0.0
C305 C 0.8962 0.12862 0.77204 0.0
H306 H 1.00312 0.07947 0.65291 0.0
H307 H 0.03502 0.04811 0.68332 0.0
H308 H 1.01766 0.01511 0.78503 0.0
H309 H 0.97519 0.02451 0.83031 0.0
H310 H 0.91256 0.10053 0.86014 0.0
H311 H 0.89064 0.13612 0.83192 0.0
H312 H 0.85917 0.1497 0.72553 0.0
H313 H 0.882 0.13314 0.67631 0.0
H314 H 0.80823 0.05899 0.77048 0.0
H315 H 0.88035 0.01318 0.72688 0.0
H316 H 0.04832 0.13801 0.7257 0.0
H317 H 0.07108 0.09903 0.8003 0.0
C318 C 0.84587 0.08762 0.066 0.0
C319 C 0.82799 0.07531 0.08685 0.0
C320 C 0.80759 0.05932 0.07309 0.0
C321 C 0.81416 0.06251 0.0446 0.0
N322 N 0.83821 0.07922 0.0396 0.0
Co323 Co 0.85248 0.08979 1.00091 0.0
N324 N 0.8333 0.06296 0.98144 0.0
C325 C 0.8104 0.04785 0.99296 0.0
C326 C 0.80478 0.03016 0.9751 0.0
C327 C 0.8256 0.0345 0.95097 0.0
C328 C 0.8428 0.05464 0.95541 0.0
N329 N 0.86555 0.10098 0.96262 0.0
C330 C 0.86789 0.09025 0.93753 0.0
C331 C 0.87089 0.1049 0.91511 0.0
C332 C 0.87252 0.12553 0.92673 0.0
C333 C 0.86934 0.12225 0.95549 0.0
N334 N 0.87255 0.11691 0.01956 0.0
C335 C 0.87904 0.13613 0.00601 0.0
C336 C 0.88916 0.15294 0.02378 0.0
C337 C 0.88824 0.1441 0.0504 0.0
C338 C 0.87764 0.12215 0.04748 0.0
N339 N 0.90211 0.07427 1.00379 0.0
C340 C 0.96564 0.04579 0.99767 0.0
C341 C 0.96639 0.06772 0.98772 0.0
C342 C 0.93438 0.08163 0.99086 0.0
C343 C 0.93308 0.03913 0.01194 0.0
C344 C 0.90235 0.05341 0.01498 0.0
N345 N 0.80157 0.10378 0.9978 0.0
C346 C 0.74766 0.1211 0.02056 0.0
C347 C 0.72498 0.11785 0.99647 0.0
C348 C 0.74219 0.10822 0.97256 0.0
C349 C 0.7801 0.10116 0.97373 0.0
C350 C 0.78558 0.11431 0.02067 0.0
H351 H 0.79168 0.09299 0.9553 0.0
H352 H 0.80149 0.11713 0.03977 0.0
H353 H 0.93524 0.09796 0.98184 0.0
H354 H 0.8779 0.04676 0.02515 0.0
C355 C 0.80169 0.0489 0.02215 0.0
C356 C 0.86667 0.10835 0.07191 0.0
C357 C 0.86615 0.0664 0.93425 0.0
C358 C 0.87528 0.13795 0.97655 0.0
H359 H 0.82886 0.07792 0.10962 0.0
H360 H 0.79034 0.04671 0.08279 0.0
H361 H 0.78913 0.0153 0.97965 0.0
H362 H 0.82804 0.02406 0.9324 0.0
H363 H 0.87037 0.10104 0.89279 0.0
H364 H 0.87617 0.14095 0.91558 0.0
H365 H 0.89529 0.16982 0.01814 0.0
H366 H 0.89252 0.15338 0.06976 0.0
H367 H 0.9909 0.07383 0.97657 0.0
H368 H 0.93097 0.02262 0.02045 0.0
H369 H 0.73607 0.12882 0.03941 0.0
H370 H 0.72607 0.10544 0.95334 0.0
C371 C 0.95843 0.68296 0.06585 0.0
C372 C 0.97752 0.69568 0.08569 0.0
C373 C 0.99713 0.71136 0.07076 0.0
C374 C 0.98877 0.70764 0.04263 0.0
N375 N 0.96426 0.69094 0.03899 0.0
Co376 Co 0.94689 0.67998 1.00113 0.0
N377 N 0.96552 0.70627 0.98012 0.0
C378 C 0.98932 0.72142 0.9905 0.0
C379 C 0.99495 0.73854 0.97179 0.0
C380 C 0.97322 0.73378 0.94825 0.0
C381 C 0.95546 0.71399 0.95386 0.0
N382 N 0.93093 0.66825 0.96356 0.0
C383 C 0.92796 0.67833 0.93803 0.0
C384 C 0.92246 0.66317 0.91639 0.0
C385 C 0.92005 0.64296 0.92891 0.0
C386 C 0.9252 0.64693 0.95735 0.0
N387 N 0.92704 0.65342 0.02129 0.0
C388 C 0.91798 0.63423 0.00849 0.0
C389 C 0.90811 0.61789 0.02696 0.0
C390 C 0.91194 0.62694 0.05329 0.0
C391 C 0.92398 0.64857 0.0495 0.0
N392 N 0.89801 0.6962 0.00582 0.0
C393 C 0.834 0.72498 0.0055 0.0
C394 C 0.83241 0.70352 0.99374 0.0
C395 C 0.86452 0.68944 0.99417 0.0
C396 C 0.86812 0.73103 0.0181 0.0
C397 C 0.89911 0.71676 0.01797 0.0
N398 N 0.9972 0.66541 0.99664 0.0
C399 C 0.05164 0.64832 0.01886 0.0
C400 C 0.07435 0.65167 0.99472 0.0
C401 C 0.05635 0.66121 0.97093 0.0
C402 C 1.01825 0.66805 0.97239 0.0
C403 C 1.01367 0.65489 0.01923 0.0
H404 H 1.00614 0.67597 0.95399 0.0
H405 H 0.99826 0.65206 0.03851 0.0
H406 H 0.86255 0.67343 0.98429 0.0
H407 H 0.92453 0.72319 0.02687 0.0
C408 C 0.99982 0.72081 0.01938 0.0
C409 C 0.93844 0.66219 0.07308 0.0
C410 C 0.93119 0.70198 0.93343 0.0
C411 C 0.9195 0.63187 0.97906 0.0
H412 H 0.97806 0.69348 0.10853 0.0
H413 H 1.01502 0.72411 0.07946 0.0
H414 H 1.01147 0.75324 0.97532 0.0
H415 H 0.97066 0.74369 0.92923 0.0
H416 H 0.92156 0.66639 0.89389 0.0
H417 H 0.91454 0.62737 0.91858 0.0
H418 H 0.90038 0.6011 0.02192 0.0
H419 H 0.90869 0.61788 0.07289 0.0
H420 H 0.80701 0.69782 0.9834 0.0
H421 H 0.87129 0.74705 0.02791 0.0
H422 H 0.06323 0.64113 0.03801 0.0
H423 H 0.07135 0.66345 0.95113 0.0
C424 C 0.18037 0.87332 0.78791 0.0
C425 C 0.16836 0.8951 0.78856 0.0
C426 C 0.15363 0.89963 0.76252 0.0
C427 C 0.15827 0.88074 0.74708 0.0
N428 N 0.175 0.86432 0.76171 0.0
Co429 Co 0.19155 0.83534 0.74566 0.0
N430 N 0.1826 0.84545 0.70571 0.0
C431 C 0.16799 0.86489 0.69762 0.0
C432 C 0.17056 0.86876 0.66899 0.0
C433 C 0.18683 0.85029 0.65808 0.0
C434 C 0.19224 0.83593 0.68062 0.0
N435 N 0.20647 0.80618 0.72916 0.0
C436 C 0.20522 0.79873 0.70169 0.0
C437 C 0.2113 0.77627 0.70032 0.0
C438 C 0.21567 0.76918 0.7278 0.0
C439 C 0.21198 0.78769 0.74439 0.0
N440 N 0.20215 0.82607 0.78569 0.0
C441 C 0.2088 0.8053 0.79419 0.0
C442 C 0.21458 0.80357 0.82299 0.0
C443 C 0.21137 0.82459 0.83336 0.0
C444 C 0.204 0.8381 0.81023 0.0
N445 N 0.13898 0.82306 0.74873 0.0
C446 C 0.07908 0.79186 0.75325 0.0
C447 C 0.09301 0.803 0.77732 0.0
C448 C 0.12259 0.81856 0.77461 0.0
C449 C 0.09295 0.79869 0.7268 0.0
C450 C 0.1219 0.81446 0.72504 0.0
N451 N 0.24473 0.84626 0.74303 0.0
C452 C 0.31151 0.84024 0.75174 0.0
C453 C 0.32087 0.8612 0.74159 0.0
C454 C 0.29115 0.87449 0.73196 0.0
C455 C 0.25353 0.86685 0.73303 0.0
C456 C 0.27375 0.83309 0.75204 0.0
H457 H 0.23173 0.87778 0.72588 0.0
H458 H 0.26826 0.81681 0.75988 0.0
H459 H 0.13309 0.82612 0.79378 0.0
H460 H 0.13141 0.81881 0.70429 0.0
C461 C 0.15565 0.87998 0.71765 0.0
C462 C 0.19592 0.86189 0.81283 0.0
C463 C 0.19646 0.81217 0.67652 0.0
C464 C 0.21219 0.78831 0.7742 0.0
H465 H 0.17091 0.90688 0.8057 0.0
H466 H 0.14354 0.9154 0.75504 0.0
H467 H 0.16205 0.88334 0.65747 0.0
H468 H 0.19277 0.84738 0.63587 0.0
H469 H 0.21148 0.76605 0.68143 0.0
H470 H 0.2199 0.75243 0.73488 0.0
H471 H 0.22083 0.78884 0.835 0.0
H472 H 0.21363 0.82935 0.85549 0.0
H473 H 0.08232 0.79905 0.79828 0.0
H474 H 0.08185 0.79156 0.70741 0.0
H475 H 0.33336 0.8293 0.75933 0.0
H476 H 0.29688 0.89084 0.72393 0.0
C477 C 0.13614 0.39634 0.81292 0.0
C478 C 0.16297 0.38062 0.81994 0.0
C479 C 0.17279 0.37033 0.79515 0.0
C480 C 0.1528 0.38096 0.77436 0.0
N481 N 0.13188 0.39777 0.7843 0.0
Co482 Co 0.10761 0.42116 0.76097 0.0
N483 N 0.12856 0.40869 0.72529 0.0
C484 C 0.1423 0.38824 0.72176 0.0
C485 C 0.15221 0.38373 0.69416 0.0
C486 C 0.14487 0.40268 0.67956 0.0
C487 C 0.13168 0.41781 0.69922 0.0
N488 N 0.08561 0.445 0.73713 0.0
C489 C 0.09637 0.45216 0.71086 0.0
C490 C 0.07601 0.47057 0.70293 0.0
C491 C 0.05177 0.47504 0.72506 0.0
C492 C 0.05874 0.45917 0.74524 0.0
N493 N 0.08491 0.43259 0.79715 0.0
C494 C 0.05681 0.44751 0.79802 0.0
C495 C 0.04059 0.44937 0.82437 0.0
C496 C 0.05876 0.43432 0.84113 0.0
C497 C 0.08574 0.42417 0.82423 0.0
N498 N 0.15297 0.44044 0.76559 0.0
C499 C 0.21231 0.47208 0.76118 0.0
C500 C 0.17692 0.47759 0.77238 0.0
C501 C 0.1481 0.46178 0.77442 0.0
C502 C 0.21792 0.44977 0.75408 0.0
C503 C 0.18809 0.43434 0.75633 0.0
N504 N 0.06077 0.4031 0.7557 0.0
C505 C 1.00264 0.39704 0.72929 0.0
C506 C 0.98519 0.38728 0.75298 0.0
C507 C 1.0077 0.38401 0.77716 0.0
C508 C 0.04524 0.39155 0.77786 0.0
C509 C 0.04013 0.4048 0.73107 0.0
H510 H 0.06096 0.38862 0.79692 0.0
H511 H 0.05177 0.41304 0.71275 0.0
H512 H 0.12122 0.46731 0.78204 0.0
H513 H 0.19322 0.41768 0.74946 0.0
C514 C 0.15424 0.37626 0.74533 0.0
C515 C 0.10873 0.40502 0.83356 0.0
C516 C 0.12439 0.44094 0.6928 0.0
C517 C 0.04584 0.45903 0.77344 0.0
H518 H 0.17178 0.37572 0.84105 0.0
H519 H 0.19182 0.35657 0.79266 0.0
H520 H 0.16558 0.36903 0.68598 0.0
H521 H 0.14955 0.40535 0.65722 0.0
H522 H 0.07857 0.47983 0.68338 0.0
H523 H 0.03265 0.48884 0.72674 0.0
H524 H 1.01723 0.45979 0.83043 0.0
H525 H 0.05129 0.43062 0.86287 0.0
H526 H 0.17111 0.49425 0.77928 0.0
H527 H 0.24473 0.44439 0.74564 0.0
H528 H 0.9869 0.39957 0.70984 0.0
H529 H 0.99621 0.37587 0.79571 0.0
C530 C 0.17829 0.38971 0.46454 0.0
C531 C 0.16458 0.36845 0.46102 0.0
C532 C 0.14989 0.36219 0.48646 0.0
C533 C 0.15601 0.37964 0.50428 0.0
N534 N 0.17367 0.39679 0.49178 0.0
Co535 Co 0.19077 0.42442 0.51133 0.0
N536 N 0.17978 0.41189 0.54979 0.0
C537 C 0.16541 0.39188 0.55544 0.0
C538 C 0.1661 0.38641 0.5837 0.0
C539 C 0.18099 0.40437 0.59695 0.0
C540 C 0.1876 0.41995 0.57606 0.0
N541 N 0.20544 0.45234 0.53124 0.0
C542 C 0.20272 0.45814 0.55929 0.0
C543 C 0.20968 0.48035 0.56317 0.0
C544 C 0.21627 0.48896 0.53668 0.0
C545 C 0.21284 0.47158 0.51815 0.0
N546 N 0.20415 0.4359 0.47271 0.0
C547 C 0.21369 0.45681 0.46674 0.0
C548 C 0.22177 0.46008 0.43848 0.0
C549 C 0.21701 0.43995 0.42572 0.0
C550 C 0.20627 0.42543 0.44695 0.0
N551 N 0.13872 0.43763 0.50823 0.0
C552 C 0.07896 0.4694 0.50685 0.0
C553 C 0.09602 0.46153 0.48175 0.0
C554 C 0.12498 0.4455 0.48283 0.0
C555 C 0.09058 0.4594 0.53228 0.0
C556 C 0.11955 0.44355 0.53242 0.0
N557 N 0.24357 0.41272 0.5144 0.0
C558 C 0.31115 0.41966 0.51408 0.0
C559 C 0.31954 0.3973 0.51745 0.0
C560 C 0.28879 0.38279 0.51937 0.0
C561 C 0.25136 0.39078 0.51817 0.0
C562 C 0.27354 0.4269 0.51222 0.0
H563 H 0.22894 0.37902 0.52022 0.0
H564 H 0.26914 0.44414 0.5087 0.0
H565 H 0.13698 0.44026 0.46291 0.0
H566 H 0.12731 0.43704 0.55265 0.0
C567 C 0.15331 0.37826 0.53366 0.0
C568 C 0.19521 0.40239 0.44127 0.0
C569 C 0.19209 0.4433 0.58263 0.0
C570 C 0.21616 0.47255 0.48846 0.0
H571 H 0.1659 0.35816 0.44226 0.0
H572 H 0.13858 0.34619 0.49185 0.0
H573 H 0.15694 0.37122 0.59349 0.0
H574 H 0.18542 0.40622 0.61949 0.0
H575 H 0.20924 0.48938 0.58303 0.0
H576 H 0.22208 0.50597 0.5315 0.0
H577 H 0.23025 0.47526 0.42833 0.0
H578 H 0.22036 0.43644 0.40328 0.0
H579 H 0.08745 0.46796 0.46127 0.0
H580 H 0.0787 0.46448 0.55244 0.0
H581 H 0.33368 0.43157 0.51221 0.0
H582 H 0.2936 0.36533 0.52213 0.0
C583 C 0.12776 0.86585 0.45676 0.0
C584 C 0.15203 0.88336 0.4517 0.0
C585 C 0.15968 0.89268 0.47756 0.0
C586 C 0.14107 0.87985 0.49695 0.0
N587 N 0.12314 0.8626 0.48506 0.0
Co588 Co 0.10108 0.8371 0.5057 0.0
N589 N 0.12013 0.84821 0.54266 0.0
C590 C 0.13079 0.86895 0.54853 0.0
C591 C 0.13925 0.87215 0.57674 0.0
C592 C 0.13419 0.85203 0.5892 0.0
C593 C 0.12389 0.83765 0.56771 0.0
N594 N 0.08126 0.81127 0.52701 0.0
C595 C 0.09316 0.80283 0.55234 0.0
C596 C 0.0748 0.78331 0.55839 0.0
C597 C 0.05074 0.77942 0.53593 0.0
C598 C 0.0558 0.79675 0.51746 0.0
N599 N 0.08028 0.82683 0.46842 0.0
C600 C 0.05373 0.81108 0.46581 0.0
C601 C 0.03883 0.80985 0.43894 0.0
C602 C 0.05621 0.82618 0.42375 0.0
C603 C 0.08136 0.83645 0.44208 0.0
N604 N 0.14844 0.8198 0.49967 0.0
C605 C 0.21177 0.79072 0.50013 0.0
C606 C 0.17658 0.78415 0.48955 0.0
C607 C 0.14582 0.79872 0.4894 0.0
C608 C 0.21497 0.81292 0.50862 0.0
C609 C 0.18311 0.82705 0.50849 0.0
N610 N 0.0524 0.85327 0.51191 0.0
C611 C 0.99363 0.85719 0.53822 0.0
C612 C 0.97635 0.86826 0.51542 0.0
C613 C 0.9989 0.87281 0.49168 0.0
C614 C 0.03662 0.86566 0.49061 0.0
C615 C 0.03137 0.84983 0.53604 0.0
H616 H 0.05237 0.86971 0.47193 0.0
H617 H 0.04305 0.84069 0.55362 0.0
H618 H 0.11938 0.79238 0.48194 0.0
H619 H 0.18637 0.84357 0.51652 0.0
C620 C 0.14127 0.88291 0.52641 0.0
C621 C 0.10247 0.8568 0.43487 0.0
C622 C 0.1202 0.81391 0.57132 0.0
C623 C 0.04331 0.79796 0.48918 0.0
H624 H 0.16058 0.88989 0.43128 0.0
H625 H 0.17641 0.90722 0.48166 0.0
H626 H 0.15008 0.88691 0.58671 0.0
H627 H 0.1382 0.84817 0.61136 0.0
H628 H 0.07859 0.77297 0.57689 0.0
H629 H 0.0332 0.76507 0.53279 0.0
H630 H 1.01692 0.7989 0.43151 0.0
H631 H 0.0495 0.83057 0.40208 0.0
H632 H 0.1725 0.7676 0.48159 0.0
H633 H 0.24149 0.81911 0.51663 0.0
H634 H 0.97769 0.85356 0.55728 0.0
H635 H 0.98734 0.88178 0.4738 0.0
C636 C 0.8512 0.17435 0.19047 0.0
C637 C 0.82906 0.1856 0.171 0.0
C638 C 0.80955 0.20127 0.18599 0.0
C639 C 0.82089 0.19893 0.21375 0.0
N640 N 0.84708 0.1831 0.21713 0.0
Co641 Co 0.86795 0.17376 0.25472 0.0
N642 N 0.84837 0.20011 0.27519 0.0
C643 C 0.82288 0.21435 0.26496 0.0
C644 C 0.81642 0.23167 0.28317 0.0
C645 C 0.83937 0.22806 0.3063 0.0
C646 C 0.85855 0.20864 0.30099 0.0
N647 N 0.88725 0.16353 0.29216 0.0
C648 C 0.89268 0.1746 0.31683 0.0
C649 C 0.90574 0.16058 0.33801 0.0
C650 C 0.90878 0.14018 0.32617 0.0
C651 C 0.89742 0.1428 0.29855 0.0
N652 N 0.88903 0.14737 0.23464 0.0
C653 C 0.90131 0.12893 0.24762 0.0
C654 C 0.91161 0.11253 0.22929 0.0
C655 C 0.90476 0.12075 0.20288 0.0
C656 C 0.89069 0.14195 0.2065 0.0
N657 N 0.91512 0.19121 0.24804 0.0
C658 C 0.97468 0.22294 0.25043 0.0
C659 C 0.97888 0.20158 0.26187 0.0
C660 C 0.949 0.18603 0.2604 0.0
C661 C 0.94096 0.22713 0.23599 0.0
C662 C 0.91203 0.21139 0.23512 0.0
N663 N 0.81939 0.15789 0.26178 0.0
C664 C 0.76657 0.13638 0.24405 0.0
C665 C 0.74352 0.14234 0.26724 0.0
C666 C 0.76064 0.15564 0.2882 0.0
C667 C 0.79839 0.16258 0.28551 0.0
C668 C 0.80368 0.14442 0.24157 0.0
H669 H 0.80993 0.17264 0.30228 0.0
H670 H 0.81899 0.14017 0.22263 0.0
H671 H 0.95285 0.17021 0.27039 0.0
H672 H 0.88632 0.2164 0.22515 0.0
C673 C 0.81053 0.21256 0.23666 0.0
C674 C 0.87339 0.15448 0.18308 0.0
C675 C 0.88491 0.19807 0.32121 0.0
C676 C 0.90307 0.1275 0.27707 0.0
H677 H 0.82667 0.18254 0.14839 0.0
H678 H 0.78973 0.2131 0.17756 0.0
H679 H 0.79841 0.24575 0.27959 0.0
H680 H 0.84185 0.23856 0.32481 0.0
H681 H 0.91317 0.16463 0.35962 0.0
H682 H 0.91996 0.1255 0.33608 0.0
H683 H 0.92184 0.09626 0.23455 0.0
H684 H 0.90766 0.11146 0.18338 0.0
H685 H 1.00451 0.19716 0.27291 0.0
H686 H 0.93638 0.24284 0.22571 0.0
H687 H 0.75596 0.12579 0.22736 0.0
H688 H 0.7449 0.16163 0.30628 0.0
C689 C 0.96063 0.59465 0.19014 0.0
C690 C 0.98101 0.5829 0.17003 0.0
C691 C 1.00057 0.56693 0.18445 0.0
C692 C 0.9909 0.5695 0.21256 0.0
N693 N 0.96562 0.58576 0.2166 0.0
Co694 Co 0.94658 0.59519 0.25462 0.0
N695 N 0.96535 0.56843 0.2745 0.0
C696 C 0.98958 0.55371 0.26371 0.0
C697 C 0.99474 0.53598 0.28152 0.0
C698 C 0.97216 0.53986 0.30489 0.0
C699 C 0.9544 0.55976 0.30006 0.0
N700 N 0.92957 0.60568 0.2925 0.0
C701 C 0.92612 0.5948 0.31738 0.0
C702 C 0.9187 0.60912 0.33966 0.0
C703 C 0.91592 0.62967 0.32812 0.0
C704 C 0.92255 0.62669 0.29964 0.0
N705 N 0.9257 0.62196 0.23547 0.0
C706 C 0.91502 0.64055 0.24901 0.0
C707 C 0.90418 0.65709 0.23115 0.0
C708 C 0.90906 0.64883 0.20448 0.0
C709 C 0.92269 0.62746 0.20745 0.0
N710 N 0.89848 0.57832 0.24857 0.0
C711 C 0.83752 0.54733 0.2491 0.0
C712 C 0.83455 0.56817 0.26234 0.0
C713 C 0.86508 0.5834 0.26172 0.0
C714 C 0.87114 0.54309 0.23467 0.0
C715 C 0.90059 0.55846 0.2346 0.0
N716 N 0.99638 0.61029 0.26045 0.0
C717 C 0.04826 0.63158 0.24078 0.0
C718 C 0.07366 0.6241 0.26166 0.0
C719 C 0.05799 0.61091 0.28334 0.0
C720 C 1.0196 0.60458 0.28261 0.0
C721 C 1.01062 0.62427 0.24023 0.0
H722 H 1.00927 0.59427 0.29957 0.0
H723 H 0.99369 0.62954 0.2226 0.0
H724 H 0.8621 0.59886 0.27287 0.0
H725 H 0.92598 0.55323 0.22444 0.0
C726 C 1.00122 0.55548 0.23516 0.0
C727 C 0.93921 0.61504 0.18355 0.0
C728 C 0.92924 0.57102 0.32057 0.0
C729 C 0.91605 0.64218 0.27855 0.0
H730 H 0.98219 0.58582 0.14734 0.0
H731 H 1.01916 0.55467 0.17541 0.0
H732 H 1.01156 0.52147 0.2775 0.0
H733 H 0.96905 0.52932 0.32329 0.0
H734 H 0.91592 0.60508 0.36188 0.0
H735 H 0.90862 0.64477 0.33902 0.0
H736 H 0.89517 0.67353 0.23684 0.0
H737 H 0.90555 0.65831 0.18524 0.0
H738 H 0.80906 0.57254 0.27362 0.0
H739 H 0.8757 0.52732 0.22448 0.0
H740 H 0.05717 0.64296 0.22445 0.0
H741 H 0.07545 0.60483 0.30047 0.0
C742 C 0.84479 0.58986 0.56596 0.0
C743 C 0.83464 0.57541 0.58744 0.0
C744 C 0.8304 0.55512 0.57503 0.0
C745 C 0.83822 0.55819 0.54669 0.0
N746 N 0.84711 0.57914 0.54033 0.0
Co747 Co 0.86033 0.59019 0.5014 0.0
N748 N 0.84629 0.56192 0.48198 0.0
C749 C 0.83909 0.54285 0.49551 0.0
C750 C 0.83633 0.52514 0.47743 0.0
C751 C 0.84321 0.53336 0.45078 0.0
C752 C 0.84974 0.55567 0.4541 0.0
N753 N 0.8714 0.60225 0.4626 0.0
C754 C 0.86483 0.59363 0.43639 0.0
C755 C 0.87172 0.60892 0.41516 0.0
C756 C 0.88548 0.62727 0.42821 0.0
C757 C 0.88531 0.62231 0.45663 0.0
N758 N 0.87665 0.6182 0.52053 0.0
C759 C 0.8938 0.63535 0.50766 0.0
C760 C 0.89987 0.65298 0.52517 0.0
C761 C 0.88571 0.64685 0.55085 0.0
C762 C 0.87223 0.62551 0.54776 0.0
N763 N 0.91262 0.57734 0.50484 0.0
C764 C 0.9713 0.545 0.50732 0.0
C765 C 0.96066 0.55492 0.48161 0.0
C766 C 0.93202 0.57099 0.48088 0.0
C767 C 0.95474 0.55369 0.53215 0.0
C768 C 0.92626 0.56997 0.5305 0.0
N769 N 0.80725 0.60146 0.498 0.0
C770 C 0.76114 0.63068 0.49071 0.0
C771 C 0.73067 0.6161 0.49422 0.0
C772 C 0.73984 0.5941 0.49999 0.0
C773 C 0.77766 0.58725 0.50189 0.0
C774 C 0.79884 0.62309 0.49241 0.0
H775 H 0.78259 0.57027 0.50682 0.0
H776 H 0.82098 0.63489 0.48922 0.0
H777 H 0.92473 0.57728 0.4604 0.0
H778 H 0.91444 0.57577 0.55022 0.0
C779 C 0.83599 0.54223 0.52523 0.0
C780 C 0.85528 0.61309 0.57133 0.0
C781 C 0.86087 0.57011 0.43042 0.0
C782 C 0.89666 0.63632 0.47824 0.0
H783 H 0.8314 0.57907 0.60985 0.0
H784 H 0.82243 0.53996 0.58545 0.0
H785 H 0.83096 0.50817 0.48303 0.0
H786 H 0.84432 0.52399 0.4312 0.0
H787 H 0.86824 0.60671 0.39254 0.0
H788 H 0.89462 0.64237 0.41817 0.0
H789 H 0.91091 0.66898 0.51946 0.0
H790 H 0.88441 0.65736 0.5694 0.0
H791 H 0.97311 0.54958 0.46174 0.0
H792 H 0.96324 0.54775 0.55288 0.0
H793 H 0.75593 0.64789 0.48627 0.0
H794 H 0.7178 0.58212 0.50361 0.0
C795 C 0.96975 0.17658 0.56884 0.0
C796 C 0.99933 0.18477 0.58501 0.0
C797 C 1.01712 0.20031 0.56885 0.0
C798 C 0.99829 0.2005 0.54342 0.0
N799 N 0.96904 0.18637 0.54251 0.0
Co800 Co 0.94332 0.17721 0.50634 0.0
N801 N 0.96552 0.2017 0.48347 0.0
C802 C 0.9934 0.21505 0.49208 0.0
C803 C 1.00147 0.23131 0.47274 0.0
C804 C 0.97714 0.22796 0.45045 0.0
C805 C 0.95575 0.20964 0.45729 0.0
N806 N 0.91909 0.16699 0.47034 0.0
C807 C 0.91502 0.17709 0.44478 0.0
C808 C 0.89658 0.16348 0.4255 0.0
C809 C 0.88838 0.14445 0.43943 0.0
C810 C 0.90223 0.14735 0.46633 0.0
N811 N 0.91909 0.15319 0.52901 0.0
C812 C 0.89699 0.1371 0.51857 0.0
C813 C 0.8791 0.12502 0.53908 0.0
C814 C 0.89145 0.13354 0.56425 0.0
C815 C 0.91742 0.14985 0.55761 0.0
N816 N 0.89962 0.19716 0.51426 0.0
C817 C 0.84065 0.22923 0.51679 0.0
C818 C 0.83396 0.20743 0.50773 0.0
C819 C 0.86348 0.19178 0.50672 0.0
C820 C 0.87756 0.23415 0.52535 0.0
C821 C 0.90616 0.21808 0.52412 0.0
N822 N 0.98854 0.15842 0.49806 0.0
C823 C 0.0395 0.13544 0.51583 0.0
C824 C 0.06277 0.14098 0.49279 0.0
C825 C 0.04683 0.15411 0.47139 0.0
C826 C 1.00967 0.16211 0.47405 0.0
C827 C 1.00285 0.14423 0.51806 0.0
H828 H 0.99879 0.17209 0.45699 0.0
H829 H 0.98696 0.14011 0.53672 0.0
H830 H 0.85708 0.17553 0.49893 0.0
H831 H 0.93401 0.22303 0.53034 0.0
C832 C 1.00808 0.21311 0.51958 0.0
C833 C 0.94519 0.15814 0.57827 0.0
C834 C 0.92819 0.19935 0.43779 0.0
C835 C 0.89221 0.13446 0.48947 0.0
H836 H 1.00868 0.17935 0.60571 0.0
H837 H 0.04197 0.20963 0.57453 0.0
H838 H 1.02185 0.24444 0.47491 0.0
H839 H 0.97547 0.23779 0.43131 0.0
H840 H 0.88854 0.16706 0.40389 0.0
H841 H 0.87195 0.13077 0.43146 0.0
H842 H 0.85951 0.11159 0.53609 0.0
H843 H 0.8839 0.12747 0.58512 0.0
H844 H 0.80628 0.20257 0.50047 0.0
H845 H 0.88456 0.25049 0.53286 0.0
H846 H 0.05013 0.1251 0.53278 0.0
H847 H 0.06316 0.15841 0.45275 0.0
C848 C 0.68249 0.36727 0.80697 0.0
C849 C 0.66837 0.38837 0.81099 0.0
C850 C 0.65446 0.39512 0.7855 0.0
C851 C 0.66123 0.37805 0.76722 0.0
N852 N 0.67849 0.36064 0.77944 0.0
Co853 Co 0.69532 0.33317 0.75926 0.0
N854 N 0.68371 0.346 0.72104 0.0
C855 C 0.67071 0.36639 0.71577 0.0
C856 C 0.66994 0.37176 0.68747 0.0
C857 C 0.68237 0.35336 0.67378 0.0
C858 C 0.68907 0.33767 0.69456 0.0
N859 N 0.70923 0.30533 0.7388 0.0
C860 C 0.70417 0.29943 0.71096 0.0
C861 C 0.71104 0.27725 0.70683 0.0
C862 C 0.71994 0.26873 0.73298 0.0
C863 C 0.71788 0.28615 0.75158 0.0
N864 N 0.70995 0.32154 0.79762 0.0
C865 C 0.72131 0.30083 0.80302 0.0
C866 C 0.73044 0.29746 0.83108 0.0
C867 C 0.72459 0.3173 0.84431 0.0
C868 C 0.71213 0.33177 0.82358 0.0
N869 N 0.64322 0.31976 0.76267 0.0
C870 C 0.58477 0.28705 0.7609 0.0
C871 C 0.60442 0.29193 0.78613 0.0
C872 C 0.63252 0.30847 0.78674 0.0
C873 C 0.59202 0.30109 0.73776 0.0
C874 C 0.62082 0.31709 0.73904 0.0
N875 N 0.74817 0.34492 0.75577 0.0
C876 C 0.81576 0.33787 0.75467 0.0
C877 C 0.82429 0.36033 0.75333 0.0
C878 C 0.7936 0.37496 0.75292 0.0
C879 C 0.75612 0.36699 0.7538 0.0
C880 C 0.77814 0.33063 0.75623 0.0
H881 H 0.73385 0.37893 0.75304 0.0
H882 H 0.77388 0.31326 0.75823 0.0
H883 H 0.64624 0.3112 0.8068 0.0
H884 H 0.62521 0.32662 0.72017 0.0
C885 C 0.65912 0.3799 0.73784 0.0
C886 C 0.70003 0.35453 0.82993 0.0
C887 C 0.69191 0.31425 0.68805 0.0
C888 C 0.72323 0.28521 0.78111 0.0
H889 H 0.6691 0.39829 0.8301 0.0
H890 H 0.64317 0.41119 0.78045 0.0
H891 H 0.66087 0.38706 0.67791 0.0
H892 H 0.68489 0.35131 0.65106 0.0
H893 H 0.70906 0.26817 0.68706 0.0
H894 H 0.72626 0.25174 0.73794 0.0
H895 H 0.74013 0.28236 0.84081 0.0
H896 H 0.72841 0.32066 0.86675 0.0
H897 H 0.59928 0.28251 0.80527 0.0
H898 H 0.57586 0.29965 0.71834 0.0
H899 H 0.83821 0.32583 0.75525 0.0
H900 H 0.79846 0.39251 0.75165 0.0
C901 C 0.62921 0.88742 0.80255 0.0
C902 C 0.64156 0.86591 0.80659 0.0
C903 C 0.64636 0.85687 0.78032 0.0
C904 C 0.63678 0.87316 0.76165 0.0
N905 N 0.62702 0.89228 0.77428 0.0
Co906 Co 0.60793 0.91891 0.7538 0.0
N907 N 0.62489 0.90723 0.71652 0.0
C908 C 0.63107 0.88593 0.71039 0.0
C909 C 0.63814 0.88213 0.68215 0.0
C910 C 0.63656 0.90241 0.66975 0.0
C911 C 0.62937 0.91746 0.69124 0.0
N912 N 0.59044 0.94542 0.7327 0.0
C913 C 0.60188 0.9533 0.70686 0.0
C914 C 0.58562 0.97357 0.70145 0.0
C915 C 0.56317 0.97837 0.72454 0.0
C916 C 0.56706 0.96088 0.74288 0.0
N917 N 0.5892 0.92975 0.79134 0.0
C918 C 0.56501 0.94664 0.79466 0.0
C919 C 0.55551 0.95024 0.8226 0.0
C920 C 0.57404 0.93428 0.83777 0.0
C921 C 0.59367 0.92157 0.81823 0.0
N922 N 0.65693 0.93493 0.75924 0.0
C923 C 0.72022 0.96422 0.75691 0.0
C924 C 0.68697 0.9698 0.77119 0.0
C925 C 0.65626 0.95526 0.77203 0.0
C926 C 0.72154 0.94287 0.74492 0.0
C927 C 0.68993 0.92852 0.74648 0.0
N928 N 0.55772 0.90442 0.74809 0.0
C929 C 0.4992 0.90127 0.72138 0.0
C930 C 0.48149 0.88936 0.74338 0.0
C931 C 0.50379 0.88473 0.7674 0.0
C932 C 0.54122 0.89233 0.76935 0.0
C933 C 0.53702 0.9083 0.72396 0.0
H934 H 0.55624 0.88878 0.78863 0.0
H935 H 0.54905 0.91755 0.70661 0.0
H936 H 0.63122 0.96141 0.78188 0.0
H937 H 0.69186 0.91256 0.73645 0.0
C938 C 0.63628 0.87085 0.73218 0.0
C939 C 0.6134 0.90085 0.8258 0.0
C940 C 0.62646 0.94118 0.68675 0.0
C941 C 0.55546 0.96017 0.77145 0.0
H942 H 0.64441 0.85694 0.82631 0.0
H943 H 0.65458 0.84014 0.77542 0.0
H944 H 0.64485 0.86664 0.67196 0.0
H945 H 0.63978 0.9058 0.64745 0.0
H946 H 0.58981 0.98388 0.68298 0.0
H947 H 0.5475 0.99339 0.72814 0.0
H948 H 0.53766 0.96311 0.83103 0.0
H949 H 0.57258 0.93198 0.86057 0.0
H950 H 0.68377 0.98592 0.78073 0.0
H951 H 0.7467 0.93725 0.73418 0.0
H952 H 0.48375 0.90591 0.70249 0.0
H953 H 0.49237 0.87535 0.78496 0.0
C954 C 0.67825 0.89008 0.45299 0.0
C955 C 0.66378 0.86912 0.44846 0.0
C956 C 0.64739 0.86272 0.47324 0.0
C957 C 0.65317 0.87984 0.49166 0.0
N958 N 0.67224 0.89689 0.48022 0.0
Co959 Co 0.68828 0.92426 0.50095 0.0
N960 N 0.67388 0.91159 0.53876 0.0
C961 C 0.65829 0.89171 0.54333 0.0
C962 C 0.65569 0.8861 0.57146 0.0
C963 C 0.66973 0.90378 0.58576 0.0
C964 C 0.67922 0.9194 0.56556 0.0
N965 N 0.70189 0.9519 0.52194 0.0
C966 C 0.69775 0.95746 0.55001 0.0
C967 C 0.70516 0.97956 0.55442 0.0
C968 C 0.71355 0.98833 0.5283 0.0
C969 C 0.71071 0.97115 0.5094 0.0
N970 N 0.7052 0.9358 0.46311 0.0
C971 C 0.71594 0.95665 0.45793 0.0
C972 C 0.72633 0.96005 0.43012 0.0
C973 C 0.72182 0.94011 0.41683 0.0
C974 C 0.70886 0.92554 0.43727 0.0
N975 N 0.63671 0.93794 0.49558 0.0
C976 C 0.57712 0.97003 0.49305 0.0
C977 C 0.59838 0.9642 0.46887 0.0
C978 C 0.6267 0.94783 0.47034 0.0
C979 C 0.5843 0.95756 0.51765 0.0
C980 C 0.61375 0.94195 0.51854 0.0
N981 N 0.74054 0.91219 0.50625 0.0
C982 C 0.80816 0.91885 0.50782 0.0
C983 C 0.81621 0.8965 0.51184 0.0
C984 C 0.78515 0.8821 0.51284 0.0
C985 C 0.74784 0.89023 0.51036 0.0
C986 C 0.77079 0.92622 0.50491 0.0
H987 H 0.72512 0.87858 0.51166 0.0
H988 H 0.76686 0.94345 0.50119 0.0
H989 H 0.64128 0.94412 0.45089 0.0
H990 H 0.61823 0.93385 0.53847 0.0
C991 C 0.64789 0.87836 0.5208 0.0
C992 C 0.69724 0.90272 0.43062 0.0
C993 C 0.68578 0.94249 0.57293 0.0
C994 C 0.71671 0.97224 0.47993 0.0
H995 H 0.66558 0.85913 0.42945 0.0
H996 H 0.63487 0.84688 0.47783 0.0
H997 H 0.64501 0.87096 0.58048 0.0
H998 H 0.67202 0.90532 0.60848 0.0
H999 H 0.70401 0.98842 0.57439 0.0
H1000 H 0.72044 1.00529 0.52362 0.0
H1001 H 0.736 0.97524 0.4206 0.0
H1002 H 0.72671 0.93675 0.39451 0.0
H1003 H 0.59462 0.97275 0.44892 0.0
H1004 H 0.56764 0.96013 0.53661 0.0
H1005 H 0.83082 0.9307 0.50628 0.0
H1006 H 0.7896 0.86464 0.51587 0.0
C1007 C 0.6317 0.37419 0.46561 0.0
C1008 C 0.64263 0.39607 0.46253 0.0
C1009 C 0.64485 0.40486 0.48916 0.0
C1010 C 0.63507 0.38811 0.50708 0.0
N1011 N 0.6275 0.36899 0.49358 0.0
Co1012 Co 0.60753 0.342 0.51245 0.0
N1013 N 0.62277 0.35285 0.55053 0.0
C1014 C 0.62852 0.37397 0.55774 0.0
C1015 C 0.63565 0.37686 0.58619 0.0
C1016 C 0.63448 0.35616 0.59754 0.0
C1017 C 0.62729 0.34182 0.57523 0.0
N1018 N 0.58844 0.31531 0.53212 0.0
C1019 C 0.59864 0.30682 0.55787 0.0
C1020 C 0.58052 0.28703 0.56275 0.0
C1021 C 0.55847 0.28304 0.53913 0.0
C1022 C 0.56427 0.30061 0.52116 0.0
N1023 N 0.59127 0.3317 0.47409 0.0
C1024 C 0.56641 0.31532 0.46955 0.0
C1025 C 0.55881 0.31218 0.44118 0.0
C1026 C 0.57945 0.32786 0.42706 0.0
C1027 C 0.59848 0.33994 0.4476 0.0
N1028 N 0.65661 0.32612 0.50799 0.0
C1029 C 0.72011 0.29735 0.51114 0.0
C1030 C 0.68654 0.29098 0.49796 0.0
C1031 C 0.65576 0.30534 0.49656 0.0
C1032 C 0.72203 0.31931 0.52097 0.0
C1033 C 0.68997 0.33335 0.51941 0.0
N1034 N 0.55709 0.35643 0.51685 0.0
C1035 C 0.49815 0.36069 0.54279 0.0
C1036 C 0.48035 0.37031 0.51911 0.0
C1037 C 0.50264 0.37378 0.49488 0.0
C1038 C 0.54061 0.36709 0.49431 0.0
C1039 C 0.53616 0.35375 0.54117 0.0
H1040 H 0.55608 0.36998 0.47503 0.0
H1041 H 0.54823 0.34556 0.55939 0.0
H1042 H 0.63048 0.29883 0.48741 0.0
H1043 H 0.69173 0.34967 0.52843 0.0
C1044 C 0.63351 0.38973 0.53666 0.0
C1045 C 0.61997 0.36034 0.4414 0.0
C1046 C 0.62385 0.31799 0.57833 0.0
C1047 C 0.5543 0.30184 0.4922 0.0
H1048 H 0.64652 0.40529 0.4431 0.0
H1049 H 0.65187 0.42165 0.49475 0.0
H1050 H 0.64219 0.39204 0.59718 0.0
H1051 H 0.63787 0.35209 0.61969 0.0
H1052 H 0.5832 0.27658 0.58126 0.0
H1053 H 0.54182 0.26849 0.53497 0.0
H1054 H 0.5408 0.29979 0.43179 0.0
H1055 H 0.57975 0.33041 0.40428 0.0
H1056 H 0.68359 0.27458 0.48919 0.0
H1057 H 0.74746 0.32527 0.53104 0.0
H1058 H 0.48239 0.35777 0.56214 0.0
H1059 H 0.49068 0.38153 0.47621 0.0
C1060 C 0.33007 0.68339 0.18752 0.0
C1061 C 0.29985 0.69236 0.17284 0.0
C1062 C 0.28468 0.70832 0.18985 0.0
C1063 C 0.30554 0.70794 0.21435 0.0
N1064 N 0.33372 0.69304 0.21382 0.0
Co1065 Co 0.36007 0.68216 0.24889 0.0
N1066 N 0.34041 0.70637 0.2735 0.0
C1067 C 0.31362 0.72086 0.2662 0.0
C1068 C 0.30753 0.73662 0.28669 0.0
C1069 C 0.33224 0.73177 0.30828 0.0
C1070 C 0.35189 0.71319 0.2998 0.0
N1071 N 0.38425 0.66997 0.28373 0.0
C1072 C 0.38943 0.67901 0.30979 0.0
C1073 C 0.40675 0.66422 0.32812 0.0
C1074 C 0.41355 0.64556 0.31288 0.0
C1075 C 0.39987 0.64984 0.28623 0.0
N1076 N 0.38246 0.65864 0.22439 0.0
C1077 C 0.40483 0.64215 0.23326 0.0
C1078 C 0.42172 0.63083 0.21153 0.0
C1079 C 0.40829 0.64029 0.18725 0.0
C1080 C 0.38269 0.65633 0.19564 0.0
N1081 N 0.40505 0.70147 0.24168 0.0
C1082 C 0.46546 0.73292 0.24136 0.0
C1083 C 0.47085 0.71093 0.25011 0.0
C1084 C 0.44071 0.69562 0.25002 0.0
C1085 C 0.42926 0.73816 0.23131 0.0
C1086 C 0.3999 0.72249 0.23174 0.0
N1087 N 0.31362 0.66404 0.2566 0.0
C1088 C 0.26306 0.64085 0.23844 0.0
C1089 C 0.23782 0.64778 0.25982 0.0
C1090 C 0.25338 0.66123 0.28125 0.0
C1091 C 0.29109 0.6686 0.27963 0.0
C1092 C 0.3001 0.64921 0.23705 0.0
H1093 H 0.3012 0.6788 0.29676 0.0
H1094 H 0.3171 0.64395 0.21945 0.0
H1095 H 0.44628 0.67924 0.25763 0.0
H1096 H 0.37257 0.72784 0.22483 0.0
C1097 C 0.29783 0.72019 0.23896 0.0
C1098 C 0.35289 0.66464 0.17673 0.0
C1099 C 0.37978 0.70168 0.31765 0.0
C1100 C 0.4097 0.63798 0.26207 0.0
H1101 H 0.28821 0.68718 0.1527 0.0
H1102 H 0.25994 0.71814 0.1855 0.0
H1103 H 0.28822 0.75036 0.28574 0.0
H1104 H 0.33536 0.74081 0.32798 0.0
H1105 H 0.41536 0.66691 0.34982 0.0
H1106 H 0.4293 0.6313 0.3198 0.0
H1107 H 0.44097 0.61709 0.21313 0.0
H1108 H 0.41434 0.63479 0.16582 0.0
H1109 H 0.49803 0.70564 0.25791 0.0
H1110 H 0.42328 0.75443 0.22317 0.0
H1111 H 0.25447 0.62911 0.22242 0.0
H1112 H 0.23631 0.66676 0.29892 0.0
C1113 C 0.46287 0.08852 0.1945 0.0
C1114 C 0.48136 0.07636 0.17376 0.0
C1115 C 0.49998 0.05969 0.1875 0.0
C1116 C 0.49175 0.06236 0.21583 0.0
N1117 N 0.46833 0.0794 0.22076 0.0
Co1118 Co 0.45232 0.08939 0.25935 0.0
N1119 N 0.46933 0.0618 0.27827 0.0
C1120 C 0.49209 0.04656 0.26682 0.0
C1121 C 0.49669 0.02859 0.2843 0.0
C1122 C 0.47537 0.03287 0.30817 0.0
C1123 C 0.45887 0.05322 0.3039 0.0
N1124 N 0.43785 0.09998 0.29775 0.0
C1125 C 0.43377 0.08881 0.32242 0.0
C1126 C 0.42816 0.10309 0.34506 0.0
C1127 C 0.42721 0.12387 0.33397 0.0
C1128 C 0.43307 0.12111 0.30534 0.0
N1129 N 0.43395 0.11705 0.24099 0.0
C1130 C 0.4264 0.13596 0.25495 0.0
C1131 C 0.4171 0.15306 0.2374 0.0
C1132 C 0.41963 0.14471 0.21052 0.0
C1133 C 0.43032 0.12277 0.21309 0.0
N1134 N 0.40221 0.07487 0.25455 0.0
C1135 C 0.33697 0.0478 0.25906 0.0
C1136 C 0.33678 0.06982 0.26857 0.0
C1137 C 0.3697 0.08301 0.26632 0.0
C1138 C 0.36965 0.0404 0.24555 0.0
C1139 C 0.40131 0.05406 0.24321 0.0
N1140 N 0.50354 0.10263 0.26445 0.0
C1141 C 0.55682 0.12321 0.24578 0.0
C1142 C 0.58047 0.11663 0.26831 0.0
C1143 C 0.56367 0.10315 0.28921 0.0
C1144 C 0.52546 0.09694 0.2873 0.0
C1145 C 0.51922 0.11589 0.24404 0.0
H1146 H 0.5141 0.08683 0.30408 0.0
H1147 H 0.50331 0.12071 0.22563 0.0
H1148 H 0.36937 0.0994 0.27525 0.0
H1149 H 0.42591 0.04698 0.23366 0.0
C1150 C 0.50235 0.04806 0.238 0.0
C1151 C 0.44297 0.10947 0.18861 0.0
C1152 C 0.43559 0.06487 0.3251 0.0
C1153 C 0.42815 0.13714 0.28457 0.0
H1154 H 0.48194 0.07943 0.15109 0.0
H1155 H 0.51715 0.04699 0.17788 0.0
H1156 H 0.51223 0.01369 0.27972 0.0
H1157 H 0.47226 0.0223 0.32654 0.0
H1158 H 0.42579 0.09895 0.36729 0.0
H1159 H 0.42181 0.13906 0.34531 0.0
H1160 H 0.41034 0.16979 0.24339 0.0
H1161 H 0.41625 0.15423 0.19127 0.0
H1162 H 0.3121 0.07643 0.27903 0.0
H1163 H 0.3712 0.02373 0.23745 0.0
H1164 H 0.56722 0.13387 0.22913 0.0
H1165 H 0.5799 0.09661 0.30668 0.0
C1166 C 0.34197 0.08693 0.56412 0.0
C1167 C 0.32389 0.07492 0.58518 0.0
C1168 C 0.30502 0.05813 0.5718 0.0
C1169 C 0.31264 0.0606 0.54333 0.0
N1170 N 0.33581 0.07768 0.53801 0.0
Co1171 Co 0.35141 0.08725 0.49917 0.0
N1172 N 0.3343 0.05954 0.48064 0.0
C1173 C 0.31279 0.044 0.49269 0.0
C1174 C 0.30852 0.02582 0.47546 0.0
C1175 C 0.32882 0.03027 0.45113 0.0
C1176 C 0.34438 0.05094 0.45488 0.0
N1177 N 0.36452 0.09788 0.46052 0.0
C1178 C 0.36683 0.08683 0.43565 0.0
C1179 C 0.37043 0.10114 0.41286 0.0
C1180 C 0.37202 0.12191 0.42403 0.0
C1181 C 0.36845 0.11904 0.45284 0.0
N1182 N 0.37037 0.11499 0.51711 0.0
C1183 C 0.37754 0.13386 0.503 0.0
C1184 C 0.38756 0.15098 0.52033 0.0
C1185 C 0.38591 0.1427 0.54724 0.0
C1186 C 0.37495 0.12079 0.54491 0.0
N1187 N 0.40178 0.07233 0.50348 0.0
C1188 C 0.46434 0.04274 0.49971 0.0
C1189 C 0.46279 0.06218 0.48343 0.0
C1190 C 0.43185 0.0769 0.48603 0.0
C1191 C 0.43501 0.0393 0.51898 0.0
C1192 C 0.40432 0.05386 0.5203 0.0
N1193 N 0.3001 0.10053 0.49464 0.0
C1194 C 0.24711 0.12103 0.51407 0.0
C1195 C 0.22352 0.11448 0.49167 0.0
C1196 C 0.23967 0.10139 0.47024 0.0
C1197 C 0.27781 0.09493 0.47188 0.0
C1198 C 0.2848 0.11377 0.51533 0.0
H1199 H 0.28893 0.08493 0.45488 0.0
H1200 H 0.30104 0.11851 0.53364 0.0
H1201 H 0.43178 0.09145 0.47293 0.0
H1202 H 0.38185 0.04899 0.53408 0.0
C1203 C 0.3028 0.04576 0.52153 0.0
C1204 C 0.36279 0.10766 0.56962 0.0
C1205 C 0.3662 0.06292 0.43308 0.0
C1206 C 0.37436 0.13507 0.47347 0.0
H1207 H 0.32402 0.07805 0.60785 0.0
H1208 H 0.28842 0.04535 0.58176 0.0
H1209 H 0.29377 0.01074 0.48043 0.0
H1210 H 0.33182 0.01963 0.43279 0.0
H1211 H 0.37119 0.09701 0.39055 0.0
H1212 H 0.37628 0.13714 0.41258 0.0
H1213 H 0.3941 0.1677 0.51419 0.0
H1214 H 0.38992 0.1523 0.56638 0.0
H1215 H 0.48509 0.06588 0.46848 0.0
H1216 H 0.43472 0.02467 0.53213 0.0
H1217 H 0.23614 0.13115 0.53115 0.0
H1218 H 0.22287 0.09611 0.45226 0.0
C1219 C 0.46709 0.67966 0.56412 0.0
C1220 C 0.49301 0.68974 0.582 0.0
C1221 C 0.51136 0.7053 0.56618 0.0
C1222 C 0.49626 0.70378 0.53941 0.0
N1223 N 0.46874 0.68859 0.53735 0.0
Co1224 Co 0.44727 0.67791 0.50035 0.0
N1225 N 0.46931 0.70256 0.47791 0.0
C1226 C 0.49554 0.71675 0.48721 0.0
C1227 C 0.50288 0.73323 0.46798 0.0
C1228 C 0.47968 0.72915 0.44516 0.0
C1229 C 0.45966 0.71024 0.45163 0.0
N1230 N 0.42711 0.66637 0.46373 0.0
C1231 C 0.42319 0.67637 0.43816 0.0
C1232 C 0.40795 0.66206 0.4182 0.0
C1233 C 0.4014 0.64264 0.43183 0.0
C1234 C 0.41304 0.64607 0.45926 0.0
N1235 N 0.42326 0.65362 0.52234 0.0
C1236 C 0.4033 0.63678 0.51142 0.0
C1237 C 0.38319 0.62536 0.53141 0.0
C1238 C 0.39188 0.63515 0.55675 0.0
C1239 C 0.41823 0.65141 0.55081 0.0
N1240 N 0.40117 0.69654 0.50554 0.0
C1241 C 0.33852 0.72623 0.50577 0.0
C1242 C 0.33481 0.70412 0.49698 0.0
C1243 C 0.36613 0.68968 0.49708 0.0
C1244 C 0.37442 0.73273 0.51504 0.0
C1245 C 0.40486 0.71783 0.51492 0.0
N1246 N 0.49472 0.66038 0.49484 0.0
C1247 C 0.54764 0.64078 0.5159 0.0
C1248 C 0.57018 0.64429 0.49184 0.0
C1249 C 0.55309 0.65477 0.46852 0.0
C1250 C 0.51563 0.66262 0.47042 0.0
C1251 C 0.51016 0.64847 0.51675 0.0
H1252 H 0.50415 0.67125 0.45234 0.0
H1253 H 0.49435 0.6453 0.53572 0.0
H1254 H 0.36199 0.67312 0.48951 0.0
H1255 H 0.43177 0.72395 0.52171 0.0
C1256 C 0.50758 0.71601 0.51557 0.0
C1257 C 0.44432 0.66016 0.57232 0.0
C1258 C 0.43284 0.69936 0.43214 0.0
C1259 C 0.40183 0.63322 0.48221 0.0
H1260 H 0.49958 0.68571 0.60381 0.0
H1261 H 0.53404 0.7159 0.57314 0.0
H1262 H 0.52147 0.74717 0.47076 0.0
H1263 H 0.4775 0.73908 0.42614 0.0
H1264 H 0.40067 0.66553 0.3964 0.0
H1265 H 0.38693 0.62841 0.42333 0.0
H1266 H 0.36452 0.61154 0.52801 0.0
H1267 H 0.38246 0.62969 0.57748 0.0
H1268 H 0.3081 0.69808 0.48916 0.0
H1269 H 0.37918 0.74939 0.52236 0.0
H1270 H 0.55904 0.63228 0.53421 0.0
H1271 H 0.56898 0.65753 0.44919 0.0
C1272 C 0.68897 0.87187 0.29388 0.0
C1273 C 0.67965 0.89401 0.29669 0.0
C1274 C 0.67756 0.90253 0.26993 0.0
C1275 C 0.68579 0.88534 0.2522 0.0
N1276 N 0.69221 0.8662 0.26592 0.0
Co1277 Co 0.70967 0.83847 0.24718 0.0
N1278 N 0.69536 0.84946 0.20892 0.0
C1279 C 0.69127 0.87068 0.2016 0.0
C1280 C 0.68471 0.87364 0.1731 0.0
C1281 C 0.68443 0.8529 0.1618 0.0
C1282 C 0.69016 0.83846 0.1842 0.0
N1283 N 0.72622 0.81107 0.22768 0.0
C1284 C 0.71522 0.8027 0.20199 0.0
C1285 C 0.73139 0.7823 0.19737 0.0
C1286 C 0.75294 0.77778 0.22107 0.0
C1287 C 0.74884 0.79566 0.23883 0.0
N1288 N 0.72505 0.828 0.2857 0.0
C1289 C 0.74819 0.8108 0.29034 0.0
C1290 C 0.75606 0.80779 0.31868 0.0
C1291 C 0.73751 0.82441 0.33271 0.0
C1292 C 0.71936 0.83687 0.31214 0.0
N1293 N 0.65909 0.82412 0.25175 0.0
C1294 C 0.59252 0.79749 0.2489 0.0
C1295 C 0.62572 0.78996 0.26165 0.0
C1296 C 0.65793 0.8033 0.26305 0.0
C1297 C 0.59301 0.81945 0.23889 0.0
C1298 C 0.62646 0.83238 0.24035 0.0
N1299 N 0.7615 0.85134 0.24258 0.0
C1300 C 0.82078 0.85371 0.21651 0.0
C1301 C 0.83933 0.86331 0.2399 0.0
C1302 C 0.81742 0.86757 0.26412 0.0
C1303 C 0.77895 0.86183 0.26489 0.0
C1304 C 0.78221 0.84778 0.21831 0.0
H1305 H 0.76384 0.86533 0.28416 0.0
H1306 H 0.7695 0.83967 0.20026 0.0
H1307 H 0.6826 0.796 0.27216 0.0
H1308 H 0.62628 0.8487 0.23127 0.0
C1309 C 0.68738 0.88665 0.22259 0.0
C1310 C 0.70027 0.85812 0.31827 0.0
C1311 C 0.69136 0.81451 0.18122 0.0
C1312 C 0.75885 0.79678 0.26779 0.0
H1313 H 0.67682 0.90353 0.31602 0.0
H1314 H 0.67175 0.91942 0.26413 0.0
H1315 H 0.67955 0.88895 0.16202 0.0
H1316 H 0.68117 0.8489 0.13958 0.0
H1317 H 0.72777 0.77182 0.17894 0.0
H1318 H 0.76813 0.76272 0.22541 0.0
H1319 H 0.77305 0.79495 0.32811 0.0
H1320 H 0.73809 0.82733 0.35542 0.0
H1321 H 0.62716 0.77347 0.2703 0.0
H1322 H 0.56833 0.82631 0.22874 0.0
H1323 H 0.83629 0.8501 0.19723 0.0
H1324 H 0.83013 0.8751 0.28268 0.0
C1325 C 0.64266 0.39381 0.30687 0.0
C1326 C 0.65621 0.37246 0.31011 0.0
C1327 C 0.66041 0.36386 0.28353 0.0
C1328 C 0.64929 0.38021 0.26547 0.0
N1329 N 0.63913 0.399 0.27879 0.0
Co1330 Co 0.61805 0.42563 0.25948 0.0
N1331 N 0.63389 0.41462 0.22166 0.0
C1332 C 0.63974 0.39344 0.21477 0.0
C1333 C 0.64388 0.38999 0.1861 0.0
C1334 C 0.64067 0.41042 0.17423 0.0
C1335 C 0.63576 0.42513 0.19648 0.0
N1336 N 0.59932 0.45238 0.23953 0.0
C1337 C 0.61045 0.46087 0.21396 0.0
C1338 C 0.59438 0.48134 0.20957 0.0
C1339 C 0.57231 0.48561 0.23307 0.0
C1340 C 0.57629 0.46763 0.25061 0.0
N1341 N 0.59962 0.43543 0.29752 0.0
C1342 C 0.57464 0.45183 0.30162 0.0
C1343 C 0.56471 0.45433 0.32968 0.0
C1344 C 0.58388 0.43819 0.34405 0.0
C1345 C 0.60447 0.42655 0.32396 0.0
N1346 N 0.66648 0.44241 0.26453 0.0
C1347 C 0.72594 0.47426 0.26061 0.0
C1348 C 0.69449 0.47756 0.27802 0.0
C1349 C 0.66565 0.46181 0.27962 0.0
C1350 C 0.72794 0.45371 0.24651 0.0
C1351 C 0.69831 0.43806 0.24892 0.0
N1352 N 0.56827 0.4106 0.25419 0.0
C1353 C 0.50714 0.40911 0.23081 0.0
C1354 C 0.49203 0.39534 0.25206 0.0
C1355 C 0.51745 0.38819 0.27312 0.0
C1356 C 0.55454 0.39629 0.2742 0.0
C1357 C 0.54506 0.41613 0.23196 0.0
H1358 H 0.57153 0.3912 0.29189 0.0
H1359 H 0.55506 0.4267 0.21516 0.0
H1360 H 0.64164 0.46645 0.29197 0.0
H1361 H 0.70065 0.42286 0.23714 0.0
C1362 C 0.64696 0.37814 0.23599 0.0
C1363 C 0.62643 0.40646 0.33068 0.0
C1364 C 0.63412 0.44892 0.1931 0.0
C1365 C 0.56486 0.46605 0.27916 0.0
H1366 H 0.66001 0.36323 0.32954 0.0
H1367 H 0.669 0.34729 0.27808 0.0
H1368 H 0.64961 0.37465 0.17522 0.0
H1369 H 0.64145 0.41418 0.15183 0.0
H1370 H 0.59837 0.49209 0.19151 0.0
H1371 H 0.5568 0.50055 0.23744 0.0
H1372 H 0.54624 0.46664 0.33872 0.0
H1373 H 0.58249 0.43519 0.36672 0.0
H1374 H 0.69096 0.49291 0.28943 0.0
H1375 H 0.75202 0.44977 0.23336 0.0
H1376 H 0.48961 0.41504 0.21363 0.0
H1377 H 0.50901 0.37641 0.28911 0.0
C1378 C 0.68195 0.38744 0.9663 0.0
C1379 C 0.66884 0.36596 0.96416 0.0
C1380 C 0.65436 0.36054 0.99003 0.0
C1381 C 0.65988 0.37873 0.00671 0.0
N1382 N 0.67699 0.39553 0.9931 0.0
Co1383 Co 0.69251 0.42419 0.01086 0.0
N1384 N 0.68231 0.41315 0.05025 0.0
C1385 C 0.6683 0.39328 0.05713 0.0
C1386 C 0.66856 0.38902 0.08573 0.0
C1387 C 0.68278 0.40762 0.09789 0.0
C1388 C 0.68948 0.42242 0.07604 0.0
N1389 N 0.70571 0.45315 0.02876 0.0
C1390 C 0.70351 0.46004 0.05643 0.0
C1391 C 0.70953 0.48248 0.05865 0.0
C1392 C 0.71495 0.4901 0.03153 0.0
C1393 C 0.71189 0.47194 0.01429 0.0
N1394 N 0.70537 0.43425 0.97141 0.0
C1395 C 0.7137 0.45508 0.96399 0.0
C1396 C 0.72174 0.45734 0.93556 0.0
C1397 C 0.71828 0.43664 0.92422 0.0
C1398 C 0.70828 0.42279 0.94639 0.0
N1399 N 0.63969 0.43613 0.00709 0.0
C1400 C 0.57819 0.46649 0.00515 0.0
C1401 C 0.59682 0.45961 0.98027 0.0
C1402 C 0.6265 0.44413 0.98159 0.0
C1403 C 0.58797 0.45549 0.03023 0.0
C1404 C 0.61854 0.44072 0.03088 0.0
N1405 N 0.74566 0.41361 0.01463 0.0
C1406 C 0.81274 0.42149 0.01297 0.0
C1407 C 0.82205 0.39957 0.01893 0.0
C1408 C 0.79203 0.38477 0.02253 0.0
C1409 C 0.75434 0.3921 0.02065 0.0
C1410 C 0.77489 0.42805 0.01068 0.0
H1411 H 0.73243 0.38021 0.02406 0.0
H1412 H 0.76962 0.44494 0.00544 0.0
H1413 H 0.63939 0.43948 0.96177 0.0
H1414 H 0.62552 0.43402 0.05126 0.0
C1415 C 0.6569 0.37865 0.03617 0.0
C1416 C 0.69867 0.39934 0.9422 0.0
C1417 C 0.69473 0.44604 0.08108 0.0
C1418 C 0.71512 0.47173 0.98457 0.0
H1419 H 0.67038 0.35503 0.94602 0.0
H1420 H 0.64344 0.34467 0.99645 0.0
H1421 H 0.65968 0.37415 0.09646 0.0
H1422 H 0.68705 0.41019 0.12035 0.0
H1423 H 0.70937 0.49231 0.07787 0.0
H1424 H 0.72001 0.50694 0.02513 0.0
H1425 H 0.72937 0.47225 0.9244 0.0
H1426 H 0.72198 0.43229 0.90205 0.0
H1427 H 0.58892 0.46634 0.9598 0.0
H1428 H 0.57319 0.45911 0.04974 0.0
H1429 H 0.83471 0.43354 0.00951 0.0
H1430 H 0.7976 0.36764 0.02717 0.0
C1431 C 0.61993 0.86911 0.96153 0.0
C1432 C 0.63138 0.89089 0.95843 0.0
C1433 C 0.63456 0.89953 0.98509 0.0
C1434 C 0.62493 0.88277 1.00304 0.0
N1435 N 0.61657 0.86376 0.98955 0.0
Co1436 Co 0.59776 0.83651 0.00862 0.0
N1437 N 0.61389 0.84739 0.04651 0.0
C1438 C 0.6188 0.8686 0.05369 0.0
C1439 C 0.62494 0.87171 0.08222 0.0
C1440 C 0.62403 0.85107 0.09371 0.0
C1441 C 0.61817 0.83656 0.07136 0.0
N1442 N 0.58096 0.80928 0.02838 0.0
C1443 C 0.59264 0.80083 0.05385 0.0
C1444 C 0.57639 0.78047 0.05861 0.0
C1445 C 0.55399 0.77611 0.03528 0.0
C1446 C 0.55776 0.79401 0.01755 0.0
N1447 N 0.5796 0.82661 0.97059 0.0
C1448 C 0.55539 0.80982 0.96645 0.0
C1449 C 0.54678 0.80675 0.93823 0.0
C1450 C 0.56599 0.82289 0.92383 0.0
C1451 C 0.58513 0.83522 0.94406 0.0
N1452 N 0.64708 0.82092 1.00265 0.0
C1453 C 0.71003 0.79142 1.00347 0.0
C1454 C 0.67712 0.78658 0.98844 0.0
C1455 C 0.64658 0.80117 0.98838 0.0
C1456 C 0.71159 0.81233 0.01667 0.0
C1457 C 0.67996 0.82677 0.01605 0.0
N1458 N 0.54697 0.85041 0.01449 0.0
C1459 C 0.48623 0.85041 0.03862 0.0
C1460 C 0.46948 0.86404 0.0178 0.0
C1461 C 0.49368 0.87112 0.99582 0.0
C1462 C 0.53145 0.86396 0.99431 0.0
C1463 C 0.52467 0.84441 0.03702 0.0
H1464 H 0.54753 0.86903 0.9761 0.0
H1465 H 0.53581 0.83409 0.05368 0.0
H1466 H 0.62182 0.79544 0.97777 0.0
H1467 H 0.68171 0.84222 0.02734 0.0
C1468 C 0.62361 0.88437 0.03262 0.0
C1469 C 0.60609 0.85576 0.9375 0.0
C1470 C 0.61687 0.81269 0.07443 0.0
C1471 C 0.54599 0.79554 0.98902 0.0
H1472 H 0.63473 0.9002 0.93902 0.0
H1473 H 0.64193 0.91627 0.99068 0.0
H1474 H 0.63055 0.88702 0.09322 0.0
H1475 H 0.62674 0.84714 0.11599 0.0
H1476 H 0.58034 0.76997 0.07693 0.0
H1477 H 0.53825 0.7612 0.0312 0.0
H1478 H 0.52939 0.79395 0.92908 0.0
H1479 H 0.5656 0.82542 0.90105 0.0
H1480 H 0.67445 0.77117 0.97701 0.0
H1481 H 0.73652 0.8172 0.02833 0.0
H1482 H 0.46983 0.84349 0.05574 0.0
H1483 H 0.4836 0.88198 0.97929 0.0
C1484 C 0.34597 0.17288 0.68908 0.0
C1485 C 0.32563 0.18522 0.6696 0.0
C1486 C 0.30681 0.20109 0.68481 0.0
C1487 C 0.31669 0.19774 0.71272 0.0
N1488 N 0.34129 0.18104 0.71597 0.0
Co1489 Co 0.35937 0.17 0.75349 0.0
N1490 N 0.34192 0.1965 0.77464 0.0
C1491 C 0.31843 0.21192 0.7646 0.0
C1492 C 0.3138 0.22911 0.78339 0.0
C1493 C 0.33594 0.22412 0.80662 0.0
C1494 C 0.35289 0.20413 0.80072 0.0
N1495 N 0.37545 0.15804 0.79079 0.0
C1496 C 0.37998 0.1682 0.81612 0.0
C1497 C 0.38728 0.15312 0.83753 0.0
C1498 C 0.38859 0.13285 0.82499 0.0
C1499 C 0.38141 0.13671 0.79678 0.0
N1500 N 0.3787 0.14345 0.73295 0.0
C1501 C 0.3879 0.12419 0.74541 0.0
C1502 C 0.39804 0.10809 0.72658 0.0
C1503 C 0.39431 0.11744 0.7004 0.0
C1504 C 0.38201 0.13895 0.70466 0.0
N1505 N 0.40858 0.18585 0.74869 0.0
C1506 C 0.47169 0.21492 0.75194 0.0
C1507 C 0.47284 0.19368 0.76395 0.0
C1508 C 0.44124 0.17937 0.76189 0.0
C1509 C 0.4391 0.22062 0.7371 0.0
C1510 C 0.4083 0.20617 0.73586 0.0
N1511 N 0.30879 0.15575 0.75846 0.0
C1512 C 0.25577 0.13574 0.73828 0.0
C1513 C 0.23135 0.1424 0.7603 0.0
C1514 C 0.24803 0.15465 0.7825 0.0
C1515 C 0.28646 0.16074 0.78143 0.0
C1516 C 0.29354 0.14284 0.73746 0.0
H1517 H 0.29763 0.17023 0.79891 0.0
H1518 H 0.30986 0.13822 0.71916 0.0
H1519 H 0.44281 0.16345 0.77199 0.0
H1520 H 0.38352 0.21234 0.72564 0.0
C1521 C 0.30685 0.21122 0.73599 0.0
C1522 C 0.36721 0.15271 0.68141 0.0
C1523 C 0.37744 0.19192 0.82063 0.0
C1524 C 0.38682 0.1217 0.77485 0.0
H1525 H 0.32406 0.18281 0.64682 0.0
H1526 H 0.28849 0.21373 0.67641 0.0
H1527 H 0.29761 0.24397 0.78014 0.0
H1528 H 0.3393 0.23401 0.82561 0.0
H1529 H 0.39101 0.15649 0.85984 0.0
H1530 H 0.39543 0.11735 0.83504 0.0
H1531 H 0.4061 0.09131 0.73128 0.0
H1532 H 0.39786 0.10873 0.68052 0.0
H1533 H 0.49767 0.18831 0.77533 0.0
H1534 H 0.43676 0.2367 0.72732 0.0
H1535 H 0.24606 0.12511 0.72136 0.0
H1536 H 0.23137 0.16013 0.80042 0.0
C1537 C 0.46332 0.58947 0.68886 0.0
C1538 C 0.49345 0.5806 0.67391 0.0
C1539 C 0.50992 0.56529 0.69119 0.0
C1540 C 0.4899 0.56595 0.71608 0.0
N1541 N 0.46107 0.58042 0.71554 0.0
Co1542 Co 0.43557 0.59177 0.75064 0.0
N1543 N 0.45586 0.56791 0.77531 0.0
C1544 C 0.48329 0.55376 0.76829 0.0
C1545 C 0.48942 0.5381 0.78887 0.0
C1546 C 0.46399 0.54268 0.81014 0.0
C1547 C 0.44388 0.56098 0.80136 0.0
N1548 N 0.41213 0.60429 0.78547 0.0
C1549 C 0.40621 0.59504 0.81123 0.0
C1550 C 0.38933 0.60986 0.82975 0.0
C1551 C 0.38361 0.62882 0.81488 0.0
C1552 C 0.39742 0.62462 0.78821 0.0
N1553 N 0.41262 0.61502 0.72623 0.0
C1554 C 0.39134 0.63197 0.73527 0.0
C1555 C 0.37347 0.64293 0.71372 0.0
C1556 C 0.38513 0.63274 0.68937 0.0
C1557 C 0.41081 0.61665 0.69747 0.0
N1558 N 0.39071 0.57238 0.7444 0.0
C1559 C 0.33098 0.54082 0.74693 0.0
C1560 C 0.3253 0.56311 0.75416 0.0
C1561 C 0.35517 0.57851 0.75261 0.0
C1562 C 0.36711 0.53517 0.73724 0.0
C1563 C 0.39609 0.55098 0.73597 0.0
N1564 N 0.48197 0.60998 0.75749 0.0
C1565 C 0.53268 0.63241 0.7383 0.0
C1566 C 0.55784 0.62594 0.75996 0.0
C1567 C 0.54214 0.61318 0.78199 0.0
C1568 C 0.50436 0.60599 0.78075 0.0
C1569 C 0.49558 0.62413 0.73725 0.0
H1570 H 0.49405 0.5963 0.79828 0.0
H1571 H 0.47862 0.62883 0.71936 0.0
H1572 H 0.34965 0.59518 0.75923 0.0
H1573 H 0.42346 0.54545 0.72932 0.0
C1574 C 0.49875 0.55423 0.74092 0.0
C1575 C 0.43946 0.60774 0.67799 0.0
C1576 C 0.41487 0.57218 0.81852 0.0
C1577 C 0.38756 0.63654 0.76412 0.0
H1578 H 0.50419 0.58548 0.65339 0.0
H1579 H 0.5349 0.55571 0.68669 0.0
H1580 H 0.50901 0.52448 0.78808 0.0
H1581 H 0.46058 0.53359 0.82975 0.0
H1582 H 0.38032 0.60697 0.8513 0.0
H1583 H 0.36822 0.64319 0.82195 0.0
H1584 H 0.35455 0.65682 0.71546 0.0
H1585 H 0.37788 0.63776 0.66797 0.0
H1586 H 0.29829 0.56858 0.76211 0.0
H1587 H 0.37327 0.51841 0.73094 0.0
H1588 H 0.54134 0.6437 0.7218 0.0
H1589 H 0.55914 0.608 0.79986 0.0
C1590 C 0.33433 0.5871 0.06667 0.0
C1591 C 0.31527 0.57341 0.08537 0.0
C1592 C 0.31158 0.55337 0.07207 0.0
C1593 C 0.32774 0.55588 0.04573 0.0
N1594 N 0.34136 0.57625 0.04161 0.0
Co1595 Co 0.35918 0.5883 1.00444 0.0
N1596 N 0.34074 0.56253 0.98201 0.0
C1597 C 0.33045 0.5431 0.9934 0.0
C1598 C 0.32406 0.52711 0.9733 0.0
C1599 C 0.33182 0.53685 0.94764 0.0
C1600 C 0.34231 0.55834 0.9535 0.0
N1601 N 0.37484 0.60195 0.96774 0.0
C1602 C 0.36732 0.59597 0.9405 0.0
C1603 C 0.38156 0.61131 0.92148 0.0
C1604 C 0.40054 0.62665 0.9371 0.0
C1605 C 0.39622 0.62011 0.96477 0.0
N1606 N 0.38058 0.61319 0.02662 0.0
C1607 C 0.40744 0.62703 0.01733 0.0
C1608 C 0.42279 0.63974 0.03844 0.0
C1609 C 0.40414 0.63373 0.06262 0.0
C1610 C 0.37748 0.61816 0.05458 0.0
N1611 N 0.40837 0.57202 0.00774 0.0
C1612 C 0.46762 0.54011 0.00911 0.0
C1613 C 0.45618 0.55011 0.98372 0.0
C1614 C 0.42728 0.56585 0.98354 0.0
C1615 C 0.44977 0.5474 0.03421 0.0
C1616 C 0.42085 0.5635 0.03313 0.0
N1617 N 0.30895 0.60311 1.001 0.0
C1618 C 0.26775 0.63512 0.99815 0.0
C1619 C 0.23498 0.62185 0.99782 0.0
C1620 C 0.24094 0.59906 0.99891 0.0
C1621 C 0.27725 0.59025 1.00091 0.0
C1622 C 0.30425 0.62548 0.99947 0.0
H1623 H 0.27904 0.57273 1.00272 0.0
H1624 H 0.32852 0.63617 0.99961 0.0
H1625 H 0.41952 0.57209 0.96322 0.0
H1626 H 0.40797 0.56843 0.05292 0.0
C1627 C 0.32493 0.54107 0.02288 0.0
C1628 C 0.34793 0.60972 0.07347 0.0
C1629 C 0.3564 0.57366 0.9317 0.0
C1630 C 0.4128 0.63013 0.9883 0.0
H1631 H 0.30424 0.57736 0.10615 0.0
H1632 H 0.29685 0.53908 0.08009 0.0
H1633 H 0.31511 0.51032 0.97687 0.0
H1634 H 0.33075 0.52893 0.92702 0.0
H1635 H 0.381 0.6105 0.89858 0.0
H1636 H 0.41673 0.64042 0.92916 0.0
H1637 H 0.44379 0.65253 0.03632 0.0
H1638 H 0.40863 0.64069 0.08355 0.0
H1639 H 0.46836 0.54514 0.96359 0.0
H1640 H 0.45784 0.54059 0.05459 0.0
H1641 H 0.2655 0.65286 0.99804 0.0
H1642 H 0.21748 0.58772 0.99825 0.0
C1643 C 0.45282 0.17563 0.06935 0.0
C1644 C 0.46324 0.19056 0.09023 0.0
C1645 C 0.46745 0.21052 0.07702 0.0
C1646 C 0.45937 0.20675 0.04885 0.0
N1647 N 0.45043 0.18566 0.04335 0.0
Co1648 Co 0.43692 0.17358 0.00503 0.0
N1649 N 0.45225 0.20107 0.98438 0.0
C1650 C 0.45968 0.2205 0.99701 0.0
C1651 C 0.46456 0.23742 0.97802 0.0
C1652 C 0.45897 0.22829 0.95167 0.0
C1653 C 0.45107 0.20625 0.95607 0.0
N1654 N 0.42495 0.16068 0.96686 0.0
C1655 C 0.43258 0.16819 0.94024 0.0
C1656 C 0.42407 0.15252 0.91981 0.0
C1657 C 0.40838 0.13512 0.93371 0.0
C1658 C 0.40904 0.14095 0.96188 0.0
N1659 N 0.41971 0.14637 0.02538 0.0
C1660 C 0.40108 0.12932 0.0135 0.0
C1661 C 0.39435 0.11232 0.03188 0.0
C1662 C 0.40959 0.11885 0.05709 0.0
C1663 C 0.42439 0.13975 0.05281 0.0
N1664 N 0.38531 0.18684 0.00822 0.0
C1665 C 0.3245 0.21736 0.01225 0.0
C1666 C 0.33874 0.21053 0.98592 0.0
C1667 C 0.3682 0.19517 0.9844 0.0
C1668 C 0.33934 0.20697 0.03659 0.0
C1669 C 0.36938 0.19174 0.03411 0.0
N1670 N 0.48935 0.16159 1.00196 0.0
C1671 C 0.53389 0.13142 0.99634 0.0
C1672 C 0.56488 0.14571 0.99878 0.0
C1673 C 0.55697 0.16807 1.00275 0.0
C1674 C 0.51953 0.17554 1.00467 0.0
C1675 C 0.49663 0.13965 0.99763 0.0
H1676 H 0.51537 0.19276 0.00863 0.0
H1677 H 0.4739 0.12812 0.9952 0.0
H1678 H 0.37808 0.191 0.96368 0.0
H1679 H 0.38061 0.18473 0.05338 0.0
C1680 C 0.46221 0.22206 0.0267 0.0
C1681 C 0.44211 0.15264 0.07561 0.0
C1682 C 0.43997 0.19121 0.93295 0.0
C1683 C 0.39719 0.12776 0.98419 0.0
H1684 H 0.46674 0.1874 0.11274 0.0
H1685 H 0.47575 0.22591 0.08679 0.0
H1686 H 0.47077 0.25446 0.98277 0.0
H1687 H 0.45961 0.23692 0.93154 0.0
H1688 H 0.42803 0.15389 0.89715 0.0
H1689 H 0.39799 0.11999 0.92443 0.0
H1690 H 0.38194 0.09649 0.02708 0.0
H1691 H 0.41035 0.10902 0.07625 0.0
H1692 H 0.3276 0.21735 0.96637 0.0
H1693 H 0.32902 0.21127 0.05754 0.0
H1694 H 0.53837 0.11398 0.99311 0.0
H1695 H 0.57973 0.1798 0.00502 0.0
C1696 C 0.1916 0.3053 0.13921 0.0
C1697 C 0.17036 0.30684 0.16446 0.0
C1698 C 0.17418 0.30602 0.11214 0.0
C1699 C 0.13478 0.30815 0.10911 0.0
H1700 H 0.22202 0.30589 0.14032 0.0
H1701 H 0.19193 0.30688 0.09342 0.0
S1702 S 0.06636 0.3108 0.1685 0.0
N1703 N 0.10761 0.30873 0.18444 0.0
N1704 N 0.07517 0.31021 0.134 0.0
C1705 C 0.11317 0.30784 0.13415 0.0
C1706 C 0.13088 0.30713 0.16163 0.0
C1707 C 0.16538 0.9251 0.11282 0.0
C1708 C 0.16615 0.94506 0.09767 0.0
C1709 C 0.15314 0.92407 0.14096 0.0
C1710 C 0.14831 0.94311 0.15766 0.0
H1711 H 0.17121 0.90969 0.10209 0.0
H1712 H 0.14866 0.90789 0.14997 0.0
S1713 S 0.15298 1.00026 0.13002 0.0
N1714 N 0.1599 0.9848 0.10153 0.0
N1715 N 0.1487 0.98316 0.15715 0.0
C1716 C 0.1524 0.96353 0.14364 0.0
C1717 C 0.15958 0.96447 0.11341 0.0
C1718 C 0.85943 0.71077 0.87452 0.0
C1719 C 0.88155 0.70972 0.84964 0.0
C1720 C 0.87604 0.71124 0.90193 0.0
C1721 C 0.91549 0.7109 0.90579 0.0
H1722 H 0.82919 0.70899 0.87291 0.0
H1723 H 0.85781 0.70982 0.92032 0.0
S1724 S 0.98587 0.71006 0.84755 0.0
N1725 N 0.94501 0.70998 0.8308 0.0
N1726 N 0.97593 0.71102 0.88189 0.0
C1727 C 0.93776 0.7117 0.88103 0.0
C1728 C 0.92088 0.71105 0.85317 0.0
C1729 C 0.92203 0.05713 0.90364 0.0
C1730 C 0.88259 0.05671 0.90739 0.0
C1731 C 0.93868 0.05647 0.87628 0.0
C1732 C 0.91656 0.05552 0.85143 0.0
H1733 H 0.94005 0.06 0.92187 0.0
H1734 H 0.96876 0.05897 0.87451 0.0
S1735 S 0.81237 0.05256 0.84933 0.0
N1736 N 0.82226 0.0538 0.88365 0.0
N1737 N 0.85326 0.05259 0.83261 0.0
C1738 C 0.87735 0.05335 0.85503 0.0
C1739 C 0.86045 0.05394 0.88283 0.0
C1740 C 0.14088 0.79857 0.6478 0.0
C1741 C 0.17997 0.80261 0.64955 0.0
C1742 C 0.12148 0.79929 0.62157 0.0
C1743 C 0.14061 0.80355 0.59596 0.0
H1744 H 0.12446 0.79681 0.66693 0.0
H1745 H 0.09103 0.79868 0.62176 0.0
S1746 S 0.2438 0.81023 0.58812 0.0
N1747 N 0.23758 0.80734 0.62275 0.0
N1748 N 0.20159 0.80819 0.57366 0.0
C1749 C 0.18018 0.80464 0.59712 0.0
C1750 C 0.19978 0.80414 0.62379 0.0
C1751 C 0.13668 0.45287 0.61403 0.0
C1752 C 0.17608 0.45135 0.61054 0.0
C1753 C 0.1197 0.45219 0.64118 0.0
C1754 C 0.14147 0.45023 0.66605 0.0
H1755 H 0.1185 0.45271 0.59564 0.0
H1756 H 0.08933 0.45118 0.64249 0.0
S1757 S 0.24572 0.44867 0.66904 0.0
N1758 N 0.23626 0.45003 0.63466 0.0
N1759 N 0.20466 0.44921 0.68549 0.0
C1760 C 0.18091 0.45084 0.66296 0.0
C1761 C 0.19813 0.45133 0.63533 0.0
C1762 C 0.87049 0.21082 0.37133 0.0
C1763 C 0.89695 0.2079 0.34932 0.0
C1764 C 0.88163 0.21119 0.4002 0.0
C1765 C 0.91952 0.20798 0.40832 0.0
H1766 H 0.84071 0.2106 0.36647 0.0
H1767 H 0.85995 0.21153 0.4164 0.0
S1768 S 1.00007 0.20236 0.35865 0.0
N1769 N 0.96317 0.2049 0.33756 0.0
N1770 N 0.98371 0.20391 0.3915 0.0
C1771 C 0.94649 0.20709 0.38642 0.0
C1772 C 0.93527 0.2075 0.35705 0.0
C1773 C 0.9327 0.5583 0.37181 0.0
C1774 C 0.91133 0.56113 0.3468 0.0
C1775 C 0.9156 0.55853 0.39905 0.0
C1776 C 0.87644 0.5616 0.40249 0.0
H1777 H 0.96312 0.55818 0.37052 0.0
H1778 H 0.93364 0.55817 0.41754 0.0
S1779 S 0.80756 0.56752 0.34396 0.0
N1780 N 0.84844 0.56511 0.32755 0.0
N1781 N 0.81675 0.5655 0.37831 0.0
C1782 C 0.85459 0.56243 0.37764 0.0
C1783 C 0.8719 0.56221 0.35 0.0
C1784 C 0.61867 0.30638 0.62977 0.0
C1785 C 0.64039 0.3078 0.60476 0.0
C1786 C 0.63577 0.30571 0.65694 0.0
C1787 C 0.67525 0.30637 0.66026 0.0
H1788 H 0.58838 0.30803 0.62851 0.0
H1789 H 0.61787 0.30663 0.67549 0.0
S1790 S 0.74462 0.30728 0.60145 0.0
N1791 N 0.70344 0.30753 0.58515 0.0
N1792 N 0.7353 0.30627 0.63588 0.0
C1793 C 0.69711 0.30576 0.63536 0.0
C1794 C 0.67976 0.30648 0.60776 0.0
C1795 C 0.68115 0.94818 0.6538 0.0
C1796 C 0.64212 0.95007 0.65911 0.0
C1797 C 0.69595 0.94827 0.62583 0.0
C1798 C 0.67242 0.95039 0.60186 0.0
H1799 H 0.70005 0.94463 0.67129 0.0
H1800 H 0.72558 0.94479 0.62287 0.0
S1801 S 0.56886 0.95789 0.60391 0.0
N1802 N 0.58076 0.95546 0.63772 0.0
N1803 N 0.60853 0.95652 0.58571 0.0
C1804 C 0.63387 0.95414 0.60705 0.0
C1805 C 0.61874 0.95378 0.63545 0.0
C1806 C 0.36843 0.71062 0.36948 0.0
C1807 C 0.39326 0.70996 0.34615 0.0
C1808 C 0.38193 0.71021 0.39773 0.0
C1809 C 0.42075 0.70861 0.40381 0.0
H1810 H 0.3384 0.70936 0.36595 0.0
H1811 H 0.36171 0.70885 0.41489 0.0
S1812 S 0.49737 0.70854 0.35024 0.0
N1813 N 0.45851 0.7103 0.33111 0.0
N1814 N 0.48372 0.70803 0.38384 0.0
C1815 C 0.44585 0.70976 0.38071 0.0
C1816 C 0.43212 0.71083 0.35202 0.0
C1817 C 0.4228 0.05338 0.40372 0.0
C1818 C 0.38326 0.05315 0.40659 0.0
C1819 C 0.44037 0.05393 0.37675 0.0
C1820 C 0.41906 0.05462 0.35148 0.0
H1821 H 0.44018 0.05543 0.42245 0.0
H1822 H 0.47055 0.0563 0.37579 0.0
S1823 S 0.31505 0.0518 0.347 0.0
N1824 N 0.32375 0.05126 0.38154 0.0
N1825 N 0.35651 0.05277 0.33116 0.0
C1826 C 0.37979 0.05234 0.35404 0.0
C1827 C 0.36196 0.05145 0.38146 0.0
C1828 C 0.69366 0.80399 0.12913 0.0
C1829 C 0.67357 0.8045 0.155 0.0
C1830 C 0.67486 0.80344 0.10258 0.0
C1831 C 0.63519 0.80312 0.10066 0.0
H1832 H 0.72385 0.80638 0.12933 0.0
H1833 H 0.69141 0.80548 0.0834 0.0
S1834 S 0.56979 0.80151 0.16207 0.0
N1835 N 0.61195 0.80241 0.17684 0.0
N1836 N 0.5769 0.80121 0.12732 0.0
C1837 C 0.61508 0.80145 0.12637 0.0
C1838 C 0.63419 0.8022 0.15336 0.0
C1839 C 0.70521 0.45288 0.13368 0.0
C1840 C 0.68226 0.45538 0.10948 0.0
C1841 C 0.69015 0.45429 0.16146 0.0
C1842 C 0.6514 0.45804 0.16628 0.0
H1843 H 0.73422 0.44781 0.13113 0.0
H1844 H 0.70819 0.45005 0.17921 0.0
S1845 S 0.58072 0.46941 0.11032 0.0
N1846 N 0.62017 0.4653 0.0925 0.0
N1847 N 0.59161 0.46673 0.14428 0.0
C1848 C 0.62911 0.46274 0.14237 0.0
C1849 C 0.64459 0.46167 0.11412 0.0
C1850 C 0.37119 0.20295 0.87226 0.0
C1851 C 0.39398 0.2008 0.8479 0.0
C1852 C 0.38676 0.20227 0.89995 0.0
C1853 C 0.42576 0.19937 0.90449 0.0
H1854 H 0.34086 0.20301 0.87001 0.0
H1855 H 0.36765 0.20225 0.91783 0.0
S1856 S 0.49795 0.19539 0.84791 0.0
N1857 N 0.45791 0.19775 0.83034 0.0
N1858 N 0.48687 0.1964 0.88204 0.0
C1859 C 0.449 0.19906 0.88034 0.0
C1860 C 0.43321 0.19981 0.85221 0.0
C1861 C 0.42438 0.56394 0.87039 0.0
C1862 C 0.40051 0.56381 0.84655 0.0
C1863 C 0.40972 0.56463 0.89822 0.0
C1864 C 0.37059 0.56557 0.90334 0.0
H1865 H 0.45449 0.56562 0.86753 0.0
H1866 H 0.42931 0.56641 0.91566 0.0
S1867 S 0.29622 0.56286 0.84828 0.0
N1868 N 0.33591 0.56207 0.82999 0.0
N1869 N 0.30846 0.56403 0.88218 0.0
C1870 C 0.34652 0.5635 0.87981 0.0
C1871 C 0.36146 0.56244 0.85148 0.0
C1872 C 0.04295 0.23647 0.24887 0.0
C1873 C 1.00446 0.24089 0.25348 0.0
C1874 C 0.07072 0.25318 0.25066 0.0
C1875 C 0.06177 0.27533 0.25734 0.0
H1876 H 0.05175 0.21996 0.24333 0.0
H1877 H 0.09966 0.24864 0.2465 0.0
S1878 S 0.96564 0.29554 0.274 0.0
N1879 N 0.95939 0.26921 0.2668 0.0
N1880 N 1.01111 0.30021 0.27008 0.0
C1881 C 1.02344 0.27992 0.26234 0.0
C1882 C 0.99511 0.2629 0.26052 0.0
C1883 C 0.24073 0.01834 0.25402 0.0
C1884 C 0.24628 0.99852 0.26934 0.0
C1885 C 0.26928 0.03461 0.25163 0.0
C1886 C 0.30495 0.03185 0.26429 0.0
H1887 H 0.21442 0.02109 0.24298 0.0
H1888 H 0.26378 0.04912 0.23896 0.0
S1889 S 0.3332 0.98477 0.30974 0.0
N1890 N 0.28984 0.97865 0.2999 0.0
N1891 N 0.34314 0.0085 0.29447 0.0
C1892 C 0.31048 0.01257 0.28039 0.0
C1893 C 0.28142 0.99617 0.28313 0.0
C1894 C 1.01811 0.99185 0.97951 0.0
C1895 C 0.05561 0.99556 0.98835 0.0
C1896 C 0.98987 0.00822 0.98195 0.0
C1897 C 0.9974 0.02938 0.99311 0.0
H1898 H 1.01033 0.97612 0.97045 0.0
H1899 H 0.96163 1.00419 0.97502 0.0
S1900 S 0.08972 0.04771 0.02129 0.0
N1901 N 0.09764 0.02228 0.01043 0.0
N1902 N 0.04513 0.05281 0.01399 0.0
C1903 C 0.03463 0.03346 1.00191 0.0
C1904 C 0.0634 0.01671 0.99981 0.0
C1905 C 0.30024 0.25525 0.9983 0.0
C1906 C 0.29521 0.23548 0.01372 0.0
C1907 C 0.27274 0.27212 0.99811 0.0
C1908 C 0.23839 0.26989 0.01284 0.0
H1909 H 0.32579 0.25773 0.98615 0.0
H1910 H 0.27797 0.28676 0.98563 0.0
S1911 S 0.21108 0.22185 0.05708 0.0
N1912 N 0.25311 0.2152 0.04477 0.0
N1913 N 0.20155 0.24645 0.04403 0.0
C1914 C 0.23318 0.25036 0.02862 0.0
C1915 C 0.26144 0.23336 0.0292 0.0
C1916 C 0.98762 0.75949 0.76854 0.0
C1917 C 0.99363 0.73878 0.75548 0.0
C1918 C 1.01553 0.77618 0.76872 0.0
C1919 C 0.05062 0.77326 0.75519 0.0
H1920 H 0.96076 0.76294 0.77848 0.0
H1921 H 1.00906 0.79179 0.77871 0.0
S1922 S 0.08148 0.72207 0.71868 0.0
N1923 N 0.0384 0.71629 0.72958 0.0
N1924 N 0.0901 0.74751 0.72926 0.0
C1925 C 0.05723 0.75251 0.7425 0.0
C1926 C 0.0291 0.73538 0.74284 0.0
C1927 C 0.7613 0.99502 0.77756 0.0
C1928 C 0.75203 0.98106 0.75441 0.0
C1929 C 0.78881 0.01184 0.77539 0.0
C1930 C 0.80893 0.01575 0.74997 0.0
H1931 H 0.74721 0.9929 0.7978 0.0
H1932 H 0.79475 0.02169 0.79407 0.0
S1933 S 0.79393 0.9853 0.68214 0.0
N1934 N 0.76451 0.97342 0.70456 0.0
N1935 N 0.81588 1.00459 0.70055 0.0
C1936 C 0.79984 1.00203 0.72657 0.0
C1937 C 0.77171 0.98491 0.72877 0.0
C1938 C 0.77932 0.7801 0.99962 0.0
C1939 C 0.74154 0.77443 0.00511 0.0
C1940 C 0.80841 0.76411 0.99929 0.0
C1941 C 0.80156 0.74148 1.0046 0.0
H1942 H 0.78645 0.79703 0.99493 0.0
H1943 H 0.83668 0.7696 0.9945 0.0
S1944 S 0.70812 0.71805 0.02289 0.0
N1945 N 0.69948 0.74443 0.01777 0.0
N1946 N 0.75363 0.71479 0.01724 0.0
C1947 C 0.76396 0.73566 0.01058 0.0
C1948 C 0.73431 0.75194 0.01088 0.0
C1949 C 0.30838 0.50237 0.76129 0.0
C1950 C 0.30025 0.52344 0.75002 0.0
C1951 C 0.28034 0.48592 0.7645 0.0
C1952 C 0.24247 0.4896 0.75672 0.0
H1953 H 0.33672 0.49858 0.76818 0.0
H1954 H 0.28836 0.47029 0.7737 0.0
S1955 S 0.20657 0.54083 0.72305 0.0
N1956 N 0.25142 0.54617 0.72905 0.0
N1957 N 0.19933 0.51565 0.73497 0.0
C1958 C 0.23414 0.5104 0.74479 0.0
C1959 C 0.26267 0.52713 0.74152 0.0
C1960 C 0.03088 0.52519 0.4901 0.0
C1961 C 0.99871 0.52565 0.50784 0.0
C1962 C 0.05601 0.50704 0.48961 0.0
C1963 C 0.05047 0.48822 0.50676 0.0
H1964 H 0.03709 0.53915 0.47661 0.0
H1965 H 0.08049 0.508 0.47594 0.0
S1966 S 0.96851 0.47972 0.55477 0.0
N1967 N 0.96166 0.50456 0.54159 0.0
N1968 N 1.00819 0.47081 0.5406 0.0
C1969 C 1.01798 0.48827 0.52416 0.0
C1970 C 0.99245 0.50677 0.52471 0.0
C1971 C 0.31103 0.76436 0.49511 0.0
C1972 C 0.30585 0.74254 0.50491 0.0
C1973 C 0.28108 0.77981 0.49399 0.0
C1974 C 0.24414 0.77433 0.50254 0.0
H1975 H 0.3385 0.76954 0.48774 0.0
H1976 H 0.28683 0.7961 0.48577 0.0
S1977 S 0.21591 0.72043 0.53335 0.0
N1978 N 0.26085 0.71711 0.52558 0.0
N1979 N 0.20526 0.74576 0.5236 0.0
C1980 C 0.23882 0.75276 0.51314 0.0
C1981 C 0.26927 0.73706 0.51425 0.0
C1982 C 0.79161 0.52362 0.27773 0.0
C1983 C 0.80751 0.52945 0.25126 0.0
C1984 C 0.76621 0.50574 0.28057 0.0
C1985 C 0.75507 0.49257 0.25711 0.0
H1986 H 0.7996 0.53261 0.29667 0.0
H1987 H 0.75549 0.50206 0.3016 0.0
S1988 S 0.78554 0.50195 0.18242 0.0
N1989 N 0.80816 0.52106 0.20067 0.0
N1990 N 0.76072 0.48795 0.20594 0.0
C1991 C 0.77028 0.49848 0.23041 0.0
C1992 C 0.7962 0.51668 0.22753 0.0
C1993 C 0.78881 0.28491 0.50611 0.0
C1994 C 0.75156 0.2806 0.51489 0.0
C1995 C 0.81723 0.26847 0.50704 0.0
C1996 C 0.80998 0.24682 0.51683 0.0
H1997 H 0.79585 0.30094 0.49762 0.0
H1998 H 0.84501 0.27266 0.4993 0.0
S1999 S 0.71845 0.22786 0.54616 0.0
N2000 N 0.7102 0.25348 0.53636 0.0
N2001 N 0.76292 0.22302 0.53814 0.0
C2002 C 0.77316 0.24264 0.52669 0.0
C2003 C 0.74433 0.25933 0.52576 0.0
C2004 C 0.5077 0.24402 0.78009 0.0
C2005 C 0.50317 0.23159 0.75493 0.0
C2006 C 0.53396 0.2616 0.78197 0.0
C2007 C 0.55715 0.26775 0.75875 0.0
H2008 H 0.49 0.24052 0.7983 0.0
H2009 H 0.53529 0.27079 0.80168 0.0
S2010 S 0.55835 0.23902 0.68865 0.0
N2011 N 0.52516 0.22612 0.70669 0.0
N2012 N 0.57503 0.25812 0.71024 0.0
C2013 C 0.55346 0.25486 0.73373 0.0
C2014 C 0.52648 0.23716 0.73182 0.0
C2015 C 0.51721 0.01926 0.52006 0.0
C2016 C 0.49505 0.02553 0.49654 0.0
C2017 C 0.54356 1.00181 0.51847 0.0
C2018 C 0.54881 0.98912 0.49342 0.0
H2019 H 0.51409 0.02794 0.54006 0.0
H2020 H 0.56007 0.99832 0.53728 0.0
S2021 S 0.49531 0.99788 0.42611 0.0
N2022 N 0.47938 0.01732 0.44752 0.0
N2023 N 0.52707 0.98414 0.44462 0.0
C2024 C 0.52638 0.99523 0.46971 0.0
C2025 C 0.50005 0.01337 0.47127 0.0
C2026 C 0.56449 0.75978 0.23717 0.0
C2027 C 0.55899 0.78191 0.24568 0.0
C2028 C 0.53457 0.74437 0.2357 0.0
C2029 C 0.4971 0.75005 0.24265 0.0
H2030 H 0.59244 0.75422 0.23147 0.0
H2031 H 0.54099 0.72779 0.22881 0.0
S2032 S 0.46713 0.80548 0.26783 0.0
N2033 N 0.51266 0.80838 0.26193 0.0
N2034 N 0.45696 0.77974 0.2596 0.0
C2035 C 0.49116 0.77217 0.2512 0.0
C2036 C 0.52172 0.78791 0.25256 0.0
C2037 C 0.51691 0.48431 0.02237 0.0
C2038 C 0.54989 0.4853 0.00552 0.0
C2039 C 0.49113 0.50208 0.02396 0.0
C2040 C 0.49687 0.52185 0.00881 0.0
H2041 H 0.51061 0.46953 0.03428 0.0
H2042 H 0.46603 0.5001 0.03676 0.0
S2043 S 0.58058 0.53418 0.96411 0.0
N2044 N 0.58781 0.50874 0.97506 0.0
N2045 N 0.53989 0.54173 0.97796 0.0
C2046 C 0.53011 0.52324 0.9924 0.0
C2047 C 0.55631 0.50517 0.99077 0.0
C2048 C 0.22875 0.38676 0.39773 0.0
C2049 C 0.195 0.39261 0.41158 0.0
C2050 C 0.22859 0.37492 0.37172 0.0
C2051 C 0.19469 0.36786 0.35889 0.0
H2052 H 0.25548 0.39116 0.40723 0.0
H2053 H 0.2552 0.37146 0.36143 0.0
S2054 S 0.09873 0.37948 0.38607 0.0
N2055 N 0.12678 0.39147 0.4094 0.0
N2056 N 0.12659 0.36791 0.36224 0.0
C2057 C 0.16091 0.37357 0.37269 0.0
C2058 C 0.16102 0.38633 0.39839 0.0
C2059 C 0.09644 0.87544 0.35691 0.0
C2060 C 0.09632 0.89871 0.35894 0.0
C2061 C 0.09703 0.86188 0.38122 0.0
C2062 C 0.09379 0.87072 0.40876 0.0
H2063 H 0.09967 0.86763 0.33632 0.0
H2064 H 0.10214 0.84447 0.37834 0.0
S2065 S 0.08205 0.9301 0.42582 0.0
N2066 N 0.08955 0.92971 0.39114 0.0
N2067 N 0.08135 0.90411 0.43594 0.0
C2068 C 0.08764 0.89373 0.41076 0.0
C2069 C 0.09092 0.90771 0.38621 0.0
C2070 C 0.16211 0.88304 0.85169 0.0
C2071 C 0.19566 0.8735 0.84138 0.0
C2072 C 0.16142 0.89583 0.87664 0.0
C2073 C 0.19369 0.89854 0.89368 0.0
H2074 H 0.13606 0.88083 0.84007 0.0
H2075 H 0.13482 0.90269 0.88355 0.0
S2076 S 0.28813 0.87549 0.87784 0.0
N2077 N 0.26216 0.86774 0.85043 0.0
N2078 N 0.25989 0.88947 0.89915 0.0
C2079 C 0.22725 0.88856 0.88417 0.0
C2080 C 0.22836 0.87642 0.85787 0.0
C2081 C 0.09944 0.40173 0.88743 0.0
C2082 C 0.10049 0.39169 0.86044 0.0
C2083 C 0.0973 0.38922 0.91269 0.0
C2084 C 0.10033 0.36596 0.91265 0.0
H2085 H 0.10173 0.41942 0.88931 0.0
H2086 H 0.09565 0.39804 0.93268 0.0
S2087 S 0.09988 0.33124 0.84761 0.0
N2088 N 0.09642 0.35661 0.83542 0.0
N2089 N 0.10312 0.33351 0.88253 0.0
C2090 C 0.10054 0.35566 0.8858 0.0
C2091 C 0.09828 0.36837 0.86 0.0
C2092 C 0.88864 0.64275 0.63941 0.0
C2093 C 0.85517 0.64764 0.65425 0.0
C2094 C 0.88847 0.6306 0.61375 0.0
C2095 C 0.8547 0.62332 0.60095 0.0
H2096 H 0.91542 0.64798 0.6481 0.0
H2097 H 0.91511 0.62731 0.6034 0.0
S2098 S 0.75932 0.63071 0.63159 0.0
N2099 N 0.78734 0.64275 0.65496 0.0
N2100 N 0.78683 0.62148 0.60585 0.0
C2101 C 0.82104 0.62791 0.61565 0.0
C2102 C 0.82129 0.63978 0.64227 0.0
C2103 C 0.95351 0.10849 0.62919 0.0
C2104 C 0.95304 0.11784 0.65663 0.0
C2105 C 0.95475 0.12165 0.6044 0.0
C2106 C 0.95211 0.14491 0.60548 0.0
H2107 H 0.95132 0.09084 0.62665 0.0
H2108 H 0.95539 0.11337 0.58399 0.0
S2109 S 0.95389 0.17794 0.67197 0.0
N2110 N 0.95707 0.15226 0.68308 0.0
N2111 N 0.9505 0.17657 0.63698 0.0
C2112 C 0.95271 0.1545 0.63277 0.0
C2113 C 0.95512 0.14113 0.65802 0.0
C2114 C 0.83716 0.13634 0.14231 0.0
C2115 C 0.87158 0.14385 0.1538 0.0
C2116 C 0.83567 0.1243 0.1165 0.0
C2117 C 0.86864 0.11851 0.10146 0.0
H2118 H 0.81112 0.13967 0.15349 0.0
H2119 H 0.80842 0.11975 0.10805 0.0
S2120 S 0.96588 0.13365 0.12256 0.0
N2121 N 0.93931 0.14478 0.14757 0.0
N2122 N 0.93675 0.12106 0.10053 0.0
C2123 C 0.90317 0.12555 0.11307 0.0
C2124 C 0.90457 0.13847 0.13868 0.0
C2125 C 0.90636 0.64512 0.11597 0.0
C2126 C 0.93994 0.65186 0.10253 0.0
C2127 C 0.90661 0.63212 0.14085 0.0
C2128 C 0.94042 0.62606 0.15451 0.0
H2129 H 0.87951 0.64926 0.10648 0.0
H2130 H 0.87992 0.62724 0.15001 0.0
S2131 S 0.03635 0.64021 0.12907 0.0
N2132 N 1.00823 0.65076 0.10464 0.0
N2133 N 1.00858 0.62895 0.15319 0.0
C2134 C 0.97424 0.63325 0.14182 0.0
C2135 C 0.97403 0.6456 0.11565 0.0
C2136 C 0.73316 0.38297 0.89921 0.0
C2137 C 0.69912 0.38851 0.91298 0.0
C2138 C 0.7336 0.37117 0.87309 0.0
C2139 C 0.70003 0.36409 0.85985 0.0
H2140 H 0.75967 0.38772 0.90877 0.0
H2141 H 0.76036 0.3679 0.86292 0.0
S2142 S 0.60351 0.37425 0.887 0.0
N2143 N 0.631 0.38638 0.91062 0.0
N2144 N 0.63192 0.36325 0.8631 0.0
C2145 C 0.66598 0.36921 0.87375 0.0
C2146 C 0.66549 0.38172 0.89969 0.0
C2147 C 0.64135 0.87205 0.89554 0.0
C2148 C 0.60674 0.86599 0.90801 0.0
C2149 C 0.64307 0.88431 0.87006 0.0
C2150 C 0.61031 0.89052 0.85514 0.0
H2151 H 0.66744 0.86772 0.90605 0.0
H2152 H 0.67044 0.88851 0.86151 0.0
S2153 S 0.51244 0.87879 0.87828 0.0
N2154 N 0.53871 0.86826 0.90386 0.0
N2155 N 0.54201 0.889 0.8546 0.0
C2156 C 0.57549 0.88429 0.86711 0.0
C2157 C 0.57371 0.87254 0.89368 0.0
C2158 C 0.73244 0.88578 0.38848 0.0
C2159 C 0.69844 0.89316 0.40071 0.0
C2160 C 0.73299 0.87392 0.36243 0.0
C2161 C 0.6995 0.86841 0.34782 0.0
H2162 H 0.75877 0.88893 0.39934 0.0
H2163 H 0.75991 0.8692 0.35352 0.0
S2164 S 0.60318 0.88426 0.37041 0.0
N2165 N 0.63061 0.89483 0.39529 0.0
N2166 N 0.63149 0.87169 0.34775 0.0
C2167 C 0.66546 0.87574 0.35993 0.0
C2168 C 0.66499 0.88834 0.38582 0.0
C2169 C 0.58882 0.37652 0.3972 0.0
C2170 C 0.62183 0.37033 0.41186 0.0
C2171 C 0.59031 0.38858 0.37147 0.0
C2172 C 0.6248 0.3957 0.35977 0.0
H2173 H 0.56155 0.37231 0.4059 0.0
H2174 H 0.56422 0.39226 0.36057 0.0
S2175 S 0.71924 0.38442 0.39007 0.0
N2176 N 0.69003 0.3721 0.41226 0.0
N2177 N 0.69266 0.3959 0.36537 0.0
C2178 C 0.65787 0.38993 0.37451 0.0
C2179 C 0.65643 0.37698 0.40002 0.0
C2180 C 0.34083 0.62786 0.15205 0.0
C2181 C 0.3427 0.65112 0.15034 0.0
C2182 C 0.34085 0.61434 0.12757 0.0
C2183 C 0.33845 0.62325 0.09996 0.0
H2184 H 0.34255 0.61989 0.17261 0.0
H2185 H 0.34549 0.59695 0.1306 0.0
S2186 S 0.33508 0.68297 0.08318 0.0
N2187 N 0.34109 0.68225 0.118 0.0
N2188 N 0.33129 0.65709 0.07292 0.0
C2189 C 0.33497 0.64645 0.0982 0.0
C2190 C 0.33927 0.66027 0.12293 0.0
C2191 C 0.47642 0.12554 0.1451 0.0
C2192 C 0.44265 0.11985 0.1592 0.0
C2193 C 0.4763 0.13681 0.11871 0.0
C2194 C 0.44244 0.14335 0.10557 0.0
H2195 H 0.5032 0.12133 0.15463 0.0
H2196 H 0.50287 0.14016 0.1083 0.0
S2197 S 0.34655 0.1339 0.13433 0.0
N2198 N 0.37454 0.12221 0.15794 0.0
N2199 N 0.37439 0.14429 0.10962 0.0
C2200 C 0.40866 0.13845 0.11995 0.0
C2201 C 0.40875 0.12647 0.14628 0.0
C2202 C 0.3318 0.13607 0.63934 0.0
C2203 C 0.36607 0.14293 0.65168 0.0
C2204 C 0.33083 0.12431 0.61332 0.0
C2205 C 0.36412 0.11824 0.5989 0.0
H2206 H 0.30552 0.13955 0.65009 0.0
H2207 H 0.30374 0.12003 0.60433 0.0
S2208 S 0.46108 0.13193 0.62222 0.0
N2209 N 0.43403 0.14306 0.64694 0.0
N2210 N 0.43231 0.12006 0.59926 0.0
C2211 C 0.39847 0.12486 0.61119 0.0
C2212 C 0.39941 0.13739 0.63712 0.0
C2213 C 0.45036 0.64377 0.65143 0.0
C2214 C 0.44816 0.62049 0.6508 0.0
C2215 C 0.44999 0.65652 0.62635 0.0
C2216 C 0.45147 0.64673 0.59922 0.0
H2217 H 0.44973 0.65236 0.67162 0.0
H2218 H 0.44692 0.67416 0.62838 0.0
S2219 S 0.45544 0.5865 0.58535 0.0
N2220 N 0.44923 0.58833 0.62008 0.0
N2221 N 0.45899 0.61204 0.5738 0.0
C2222 C 0.45473 0.62348 0.59846 0.0
C2223 C 0.45077 0.61047 0.62385 0.0
C2224 C 0.39142 0.37967 0.22666 0.0
C2225 C 0.37087 0.37604 0.25202 0.0
C2226 C 0.42998 0.38571 0.22683 0.0
C2227 C 0.45046 0.38872 0.25238 0.0
H2228 H 0.37759 0.37807 0.20625 0.0
H2229 H 0.44386 0.38783 0.20652 0.0
S2230 S 0.41058 0.3814 0.32511 0.0
N2231 N 0.37546 0.37506 0.30371 0.0
N2232 N 0.44575 0.38831 0.30407 0.0
C2233 C 0.43012 0.38539 0.27794 0.0
C2234 C 0.39116 0.37868 0.27776 0.0
C2235 C 0.89694 0.88551 0.22407 0.0
C2236 C 0.88133 0.86802 0.23987 0.0
C2237 C 0.93593 0.89072 0.22533 0.0
C2238 C 0.96164 0.8786 0.24228 0.0
H2239 H 0.87869 0.89563 0.21109 0.0
H2240 H 0.94576 0.90481 0.21339 0.0
S2241 S 0.93542 0.82944 0.28527 0.0
N2242 N 0.89503 0.8378 0.27171 0.0
N2243 N 0.96763 0.84666 0.27324 0.0
C2244 C 0.94625 0.8605 0.25735 0.0
C2245 C 0.90652 0.85548 0.25634 0.0
C2246 C 0.36952 0.88025 0.99126 0.0
C2247 C 0.34686 0.8818 0.016 0.0
C2248 C 0.40808 0.87442 0.99218 0.0
C2249 C 0.42743 0.87025 0.01797 0.0
H2250 H 0.35766 0.88382 0.97058 0.0
H2251 H 0.42264 0.87303 0.97205 0.0
S2252 S 0.3824 0.87222 0.08962 0.0
N2253 N 0.34756 0.8776 0.06753 0.0
N2254 N 0.41999 0.86904 0.06946 0.0
C2255 C 0.40537 0.87205 0.04305 0.0
C2256 C 0.36556 0.8773 0.04204 0.0
C2257 C 0.91481 0.36868 1.00418 0.0
C2258 C 0.94116 0.37915 0.02213 0.0
C2259 C 0.87641 0.37492 1.00379 0.0
C2260 C 0.86271 0.39231 0.02082 0.0
H2261 H 0.92395 0.35545 0.99036 0.0
H2262 H 0.85744 0.36637 0.98953 0.0
S2263 S 0.92001 0.42507 0.07163 0.0
N2264 N 0.95044 0.40755 0.05771 0.0
N2265 N 0.8791 0.41969 0.05644 0.0
C2266 C 0.88887 0.40291 0.03882 0.0
C2267 C 0.92775 0.39624 0.03963 0.0
C2268 C 0.65902 0.64044 0.7855 0.0
C2269 C 0.68017 0.64316 0.76021 0.0
C2270 C 0.62011 0.63526 0.78521 0.0
C2271 C 0.59969 0.63216 0.75963 0.0
H2272 H 0.67264 0.64206 0.80598 0.0
H2273 H 0.60596 0.63384 0.80551 0.0
S2274 S 0.64092 0.63741 0.68701 0.0
N2275 N 0.67618 0.64333 0.70847 0.0
N2276 N 0.60507 0.63165 0.70797 0.0
C2277 C 0.62056 0.63466 0.73413 0.0
C2278 C 0.65998 0.64053 0.73441 0.0
C2279 C 0.1305 0.12753 0.78614 0.0
C2280 C 0.10891 0.12535 0.76094 0.0
C2281 C 0.16935 0.13291 0.78575 0.0
C2282 C 0.18927 0.13673 0.76014 0.0
H2283 H 0.11733 0.12519 0.80668 0.0
H2284 H 0.18392 0.1338 0.80594 0.0
S2285 S 0.1466 0.13389 0.68777 0.0
N2286 N 0.1118 0.12713 0.70924 0.0
N2287 N 0.18284 0.13901 0.70865 0.0
C2288 C 0.16789 0.13507 0.73476 0.0
C2289 C 0.12851 0.12906 0.73512 0.0
C2290 C 0.6309 0.14612 0.9775 0.0
C2291 C 0.60519 0.13761 0.99763 0.0
C2292 C 0.66908 0.13933 0.97675 0.0
C2293 C 0.68373 0.12418 0.99662 0.0
H2294 H 0.62137 0.15812 0.96209 0.0
H2295 H 0.68751 0.1464 0.96085 0.0
S2296 S 0.62867 0.09704 0.05386 0.0
N2297 N 0.59756 0.11291 0.03774 0.0
N2298 N 0.66891 0.10079 0.03694 0.0
C2299 C 0.65833 0.11561 0.01687 0.0
C2300 C 0.61933 0.12212 0.01721 0.0
C2301 C 0.16567 0.61959 0.01179 0.0
C2302 C 0.19472 0.63079 0.99714 0.0
C2303 C 0.12764 0.62624 0.01046 0.0
C2304 C 0.11584 0.64485 0.99482 0.0
H2305 H 0.17219 0.60536 0.0247 0.0
H2306 H 0.10722 0.61634 0.02175 0.0
S2307 S 0.18021 0.68103 0.95336 0.0
N2308 N 0.2083 0.66186 0.96629 0.0
N2309 N 0.13767 0.67509 0.96519 0.0
C2310 C 0.14462 0.65659 0.98047 0.0
C2311 C 0.18356 0.64953 0.98145 0.0
C2312 C 0.41744 0.88256 0.76684 0.0
C2313 C 0.44017 0.88235 0.74204 0.0
C2314 C 0.37921 0.87593 0.76649 0.0
C2315 C 0.36133 0.86896 0.74128 0.0
H2316 H 0.42914 0.88809 0.78688 0.0
H2317 H 0.36342 0.87632 0.7862 0.0
S2318 S 0.40708 0.86399 0.67065 0.0
N2319 N 0.44095 0.87326 0.69154 0.0
N2320 N 0.36938 0.86169 0.69098 0.0
C2321 C 0.38331 0.86864 0.71636 0.0
C2322 C 0.42241 0.87513 0.71669 0.0
C2323 C 0.89056 0.36013 0.73228 0.0
C2324 C 0.86488 0.36813 0.75282 0.0
C2325 C 0.92892 0.36665 0.73203 0.0
C2326 C 0.94384 0.38098 0.75283 0.0
H2327 H 0.88086 0.34877 0.7161 0.0
H2328 H 0.94724 0.36002 0.71572 0.0
S2329 S 0.88904 0.40658 0.81149 0.0
N2330 N 0.85767 0.39148 0.79438 0.0
N2331 N 0.92926 0.40311 0.79445 0.0
C2332 C 0.91849 0.38903 0.77351 0.0
C2333 C 0.87932 0.3828 0.77337 0.0
C2334 C 0.3856 0.39772 0.53886 0.0
C2335 C 0.36005 0.38942 0.51843 0.0
C2336 C 0.42391 0.39111 0.5395 0.0
C2337 C 0.43889 0.37635 0.51922 0.0
H2338 H 0.37585 0.40943 0.55461 0.0
H2339 H 0.44218 0.39803 0.55563 0.0
S2340 S 0.38436 0.34987 0.46106 0.0
N2341 N 0.35296 0.36533 0.47759 0.0
N2342 N 0.42447 0.35355 0.47818 0.0
C2343 C 0.41363 0.36799 0.49868 0.0
C2344 C 0.37452 0.37432 0.49845 0.0
C2345 C 0.90903 0.86517 0.4971 0.0
C2346 C 0.93522 0.87488 0.51594 0.0
C2347 C 0.87065 0.87163 0.49655 0.0
C2348 C 0.85667 0.88854 0.51429 0.0
H2349 H 0.91833 0.85243 0.48258 0.0
H2350 H 0.85197 0.86371 0.48148 0.0
S2351 S 0.91341 0.91919 0.5677 0.0
N2352 N 0.94391 0.902 0.5532 0.0
N2353 N 0.87277 0.91452 0.55172 0.0
C2354 C 0.88266 0.89829 0.53329 0.0
C2355 C 0.92149 0.89139 0.53423 0.0
C2356 C 0.6425 0.12646 0.24358 0.0
C2357 C 0.62212 0.12321 0.26911 0.0
C2358 C 0.6809 0.13258 0.24333 0.0
C2359 C 0.70205 0.13544 0.26858 0.0
H2360 H 0.62887 0.12408 0.22322 0.0
H2361 H 0.69387 0.13533 0.22281 0.0
S2362 S 0.66326 0.12865 0.34174 0.0
N2363 N 0.6268 0.12423 0.32079 0.0
N2364 N 0.69904 0.13345 0.32029 0.0
C2365 C 0.68229 0.13188 0.29438 0.0
C2366 C 0.64271 0.12627 0.29465 0.0
C2367 C 0.13691 0.6329 0.28589 0.0
C2368 C 0.1157 0.62984 0.26069 0.0
C2369 C 0.17576 0.63838 0.28544 0.0
C2370 C 0.19604 0.64132 0.25976 0.0
H2371 H 0.12335 0.63133 0.30641 0.0
H2372 H 0.19 0.64016 0.30567 0.0
S2373 S 0.15462 0.63503 0.18733 0.0
N2374 N 0.11949 0.6292 0.20896 0.0
N2375 N 0.19049 0.64116 0.20813 0.0
C2376 C 0.17512 0.63839 0.23436 0.0
C2377 C 0.13577 0.63234 0.23482 0.0
C2378 C 0.67695 0.64227 0.50755 0.0
C2379 C 0.68979 0.6236 0.49241 0.0
C2380 C 0.63856 0.64879 0.50729 0.0
C2381 C 0.61114 0.63728 0.49139 0.0
H2382 H 0.69659 0.65168 0.52029 0.0
H2383 H 0.63026 0.66302 0.51966 0.0
S2384 S 0.62944 0.58793 0.44703 0.0
N2385 N 0.67111 0.59406 0.46046 0.0
N2386 N 0.59995 0.60655 0.45965 0.0
C2387 C 0.62361 0.61891 0.47576 0.0
C2388 C 0.66249 0.61203 0.47637 0.0
C2389 C 0.13286 0.14948 0.49046 0.0
C2390 C 0.10357 0.13379 0.4916 0.0
C2391 C 0.17128 0.1432 0.4906 0.0
C2392 C 0.18234 0.1209 0.49109 0.0
H2393 H 0.12601 0.16684 0.49004 0.0
H2394 H 0.19257 0.15595 0.49015 0.0
S2395 S 0.11706 0.07327 0.49362 0.0
N2396 N 0.08879 0.09484 0.4933 0.0
N2397 N 0.16037 0.08312 0.49255 0.0
C2398 C 0.15334 0.10507 0.49177 0.0
C2399 C 0.11428 0.11147 0.49232 0.0
loop_
_geom_bond_atom_site_label_1
_geom_bond_atom_site_label_2
_geom_bond_distance
_geom_bond_site_symmetry_2
_ccdc_geom_bond_type
C0 C1 1.443 . S
C0 N4 1.376 . S
C0 C38 1.389 . S
C1 C0 1.443 . S
C1 C2 1.340 . S
C1 H41 0.951 . S
C2 C1 1.340 . S
C2 C3 1.439 . S
C2 H42 0.950 . S
C3 C2 1.439 . S
C3 N4 1.374 . S
C3 C37 1.395 . S
N4 C0 1.376 . S
N4 C3 1.374 . S
N4 Co5 2.008 . S
Co5 N4 2.008 . S
Co5 N6 1.995 . S
Co5 N11 2.008 . S
Co5 N16 1.995 . S
Co5 N21 2.282 . S
Co5 N27 2.282 . S
N6 Co5 1.995 . S
N6 C7 1.376 . S
N6 C10 1.383 . S
C7 N6 1.376 . S
C7 C8 1.446 . S
C7 C37 1.391 . S
C8 C7 1.446 . S
C8 C9 1.339 . S
C8 H43 0.949 . S
C9 C8 1.339 . S
C9 C10 1.439 . S
C9 H44 0.950 . S
C10 N6 1.383 . S
C10 C9 1.439 . S
C10 C39 1.392 . S
N11 Co5 2.008 . S
N11 C12 1.376 . S
N11 C15 1.374 . S
C12 N11 1.376 . S
C12 C13 1.443 . S
C12 C39 1.389 . S
C13 C12 1.443 . S
C13 C14 1.340 . S
C13 H45 0.951 . S
C14 C13 1.340 . S
C14 C15 1.439 . S
C14 H46 0.950 . S
C15 N11 1.374 . S
C15 C14 1.439 . S
C15 C40 1.395 . S
N16 Co5 1.995 . S
N16 C17 1.376 . S
N16 C20 1.383 . S
C17 N16 1.376 . S
C17 C18 1.446 . S
C17 C40 1.391 . S
C18 C17 1.446 . S
C18 C19 1.339 . S
C18 H47 0.949 . S
C19 C18 1.339 . S
C19 C20 1.439 . S
C19 H48 0.950 . S
C20 N16 1.383 . S
C20 C19 1.439 . S
C20 C38 1.392 . S
N21 Co5 2.282 . S
N21 C24 1.332 . S
N21 C26 1.332 . S
C22 C23 1.386 . S
C22 C25 1.388 . S
C23 C22 1.386 . S
C23 C24 1.382 . S
C23 H49 0.950 . S
C24 N21 1.332 . S
C24 C23 1.382 . S
C24 H35 0.952 . S
C25 C22 1.388 . S
C25 C26 1.382 . S
C25 H50 0.950 . S
C26 N21 1.332 . S
C26 C25 1.382 . S
C26 H36 0.948 . S
N27 Co5 2.282 . S
N27 C31 1.332 . S
N27 C32 1.332 . S
C28 C29 1.388 . S
C28 C32 1.382 . S
C28 H51 0.950 . S
C29 C28 1.388 . S
C29 C30 1.386 . S
C30 C29 1.386 . S
C30 C31 1.382 . S
C30 H52 0.950 . S
C31 N27 1.332 . S
C31 C30 1.382 . S
C31 H33 0.952 . S
C32 N27 1.332 . S
C32 C28 1.382 . S
C32 H34 0.948 . S
H33 C31 0.952 . S
H34 C32 0.948 . S
H35 C24 0.952 . S
H36 C26 0.948 . S
C37 C3 1.395 . S
C37 C7 1.391 . S
C38 C0 1.389 . S
C38 C20 1.392 . S
C39 C10 1.392 . S
C39 C12 1.389 . S
C40 C15 1.395 . S
C40 C17 1.391 . S
H41 C1 0.951 . S
H42 C2 0.950 . S
H43 C8 0.949 . S
H44 C9 0.950 . S
H45 C13 0.951 . S
H46 C14 0.950 . S
H47 C18 0.949 . S
H48 C19 0.950 . S
H49 C23 0.950 . S
H50 C25 0.950 . S
H51 C28 0.950 . S
H52 C30 0.950 . S
C53 C54 1.443 . S
C53 N57 1.376 . S
C53 C91 1.389 . S
C54 C53 1.443 . S
C54 C55 1.340 . S
C54 H94 0.951 . S
C55 C54 1.340 . S
C55 C56 1.439 . S
C55 H95 0.950 . S
C56 C55 1.439 . S
C56 N57 1.374 . S
C56 C90 1.395 . S
N57 C53 1.376 . S
N57 C56 1.374 . S
N57 Co58 2.008 . S
Co58 N57 2.008 . S
Co58 N59 1.995 . S
Co58 N64 2.008 . S
Co58 N69 1.995 . S
Co58 N74 2.282 . S
Co58 N80 2.282 . S
N59 Co58 1.995 . S
N59 C60 1.376 . S
N59 C63 1.383 . S
C60 N59 1.376 . S
C60 C61 1.446 . S
C60 C90 1.391 . S
C61 C60 1.446 . S
C61 C62 1.339 . S
C61 H96 0.949 . S
C62 C61 1.339 . S
C62 C63 1.439 . S
C62 H97 0.950 . S
C63 N59 1.383 . S
C63 C62 1.439 . S
C63 C92 1.392 . S
N64 Co58 2.008 . S
N64 C65 1.376 . S
N64 C68 1.374 . S
C65 N64 1.376 . S
C65 C66 1.443 . S
C65 C92 1.389 . S
C66 C65 1.443 . S
C66 C67 1.340 . S
C66 H98 0.951 . S
C67 C66 1.340 . S
C67 C68 1.439 . S
C67 H99 0.950 1_565 S
C68 N64 1.374 . S
C68 C67 1.439 . S
C68 C93 1.395 . S
N69 Co58 1.995 . S
N69 C70 1.376 . S
N69 C73 1.383 . S
C70 N69 1.376 . S
C70 C71 1.446 . S
C70 C93 1.391 . S
C71 C70 1.446 . S
C71 C72 1.339 . S
C71 H100 0.949 . S
C72 C71 1.339 . S
C72 C73 1.439 . S
C72 H101 0.950 . S
C73 N69 1.383 . S
C73 C72 1.439 . S
C73 C91 1.392 . S
N74 Co58 2.282 . S
N74 C77 1.332 . S
N74 C79 1.332 . S
C75 C76 1.386 . S
C75 C78 1.388 . S
C76 C75 1.386 . S
C76 C77 1.382 . S
C76 H102 0.950 . S
C77 N74 1.332 . S
C77 C76 1.382 . S
C77 H88 0.952 . S
C78 C75 1.388 . S
C78 C79 1.382 . S
C78 H103 0.950 . S
C79 N74 1.332 . S
C79 C78 1.382 . S
C79 H89 0.948 . S
N80 Co58 2.282 . S
N80 C84 1.332 . S
N80 C85 1.332 1_455 S
C81 C82 1.388 . S
C81 C85 1.382 . S
C81 H104 0.950 . S
C82 C81 1.388 . S
C82 C83 1.386 . S
C83 C82 1.386 . S
C83 C84 1.382 1_655 S
C83 H105 0.950 . S
C84 N80 1.332 . S
C84 C83 1.382 1_455 S
C84 H86 0.952 . S
C85 N80 1.332 1_655 S
C85 C81 1.382 . S
C85 H87 0.948 . S
H86 C84 0.952 . S
H87 C85 0.948 . S
H88 C77 0.952 . S
H89 C79 0.948 . S
C90 C56 1.395 . S
C90 C60 1.391 . S
C91 C53 1.389 . S
C91 C73 1.392 . S
C92 C63 1.392 . S
C92 C65 1.389 . S
C93 C68 1.395 . S
C93 C70 1.391 . S
H94 C54 0.951 . S
H95 C55 0.950 . S
H96 C61 0.949 . S
H97 C62 0.950 . S
H98 C66 0.951 . S
H99 C67 0.950 1_545 S
H100 C71 0.949 . S
H101 C72 0.950 . S
H102 C76 0.950 . S
H103 C78 0.950 . S
H104 C81 0.950 . S
H105 C83 0.950 . S
C106 C107 1.443 . S
C106 N110 1.376 . S
C106 C144 1.389 . S
C107 C106 1.443 . S
C107 C108 1.340 . S
C107 H147 0.951 . S
C108 C107 1.340 . S
C108 C109 1.439 . S
C108 H148 0.950 . S
C109 C108 1.439 . S
C109 N110 1.374 . S
C109 C143 1.395 1_556 S
N110 C106 1.376 . S
N110 C109 1.374 . S
N110 Co111 2.008 . S
Co111 N110 2.008 . S
Co111 N112 1.995 1_556 S
Co111 N117 2.008 1_556 S
Co111 N122 1.995 . S
Co111 N127 2.282 . S
Co111 N133 2.282 . S
N112 Co111 1.995 1_554 S
N112 C113 1.376 . S
N112 C116 1.383 . S
C113 N112 1.376 . S
C113 C114 1.446 . S
C113 C143 1.391 . S
C114 C113 1.446 . S
C114 C115 1.339 . S
C114 H149 0.949 . S
C115 C114 1.339 . S
C115 C116 1.439 . S
C115 H150 0.950 . S
C116 N112 1.383 . S
C116 C115 1.439 . S
C116 C145 1.392 . S
N117 Co111 2.008 1_554 S
N117 C118 1.376 . S
N117 C121 1.374 . S
C118 N117 1.376 . S
C118 C119 1.443 . S
C118 C145 1.389 . S
C119 C118 1.443 . S
C119 C120 1.340 . S
C119 H151 0.951 . S
C120 C119 1.340 . S
C120 C121 1.439 . S
C120 H152 0.950 1_565 S
C121 N117 1.374 . S
C121 C120 1.439 . S
C121 C146 1.395 1_554 S
N122 Co111 1.995 . S
N122 C123 1.376 . S
N122 C126 1.383 . S
C123 N122 1.376 . S
C123 C124 1.446 . S
C123 C146 1.391 . S
C124 C123 1.446 . S
C124 C125 1.339 . S
C124 H153 0.949 . S
C125 C124 1.339 . S
C125 C126 1.439 . S
C125 H154 0.950 . S
C126 N122 1.383 . S
C126 C125 1.439 . S
C126 C144 1.392 . S
N127 Co111 2.282 . S
N127 C130 1.332 . S
N127 C132 1.332 1_556 S
C128 C129 1.386 . S
C128 C131 1.388 1_556 S
C129 C128 1.386 . S
C129 C130 1.382 . S
C129 H155 0.950 . S
C130 N127 1.332 . S
C130 C129 1.382 . S
C130 H141 0.952 . S
C131 C128 1.388 1_554 S
C131 C132 1.382 . S
C131 H156 0.950 . S
C132 N127 1.332 1_554 S
C132 C131 1.382 . S
C132 H142 0.948 . S
N133 Co111 2.282 . S
N133 C137 1.332 1_556 S
N133 C138 1.332 . S
C134 C135 1.388 . S
C134 C138 1.382 . S
C134 H157 0.950 . S
C135 C134 1.388 . S
C135 C136 1.386 1_556 S
C136 C135 1.386 1_554 S
C136 C137 1.382 . S
C136 H158 0.950 . S
C137 N133 1.332 1_554 S
C137 C136 1.382 . S
C137 H139 0.952 . S
C138 N133 1.332 . S
C138 C134 1.382 . S
C138 H140 0.948 . S
H139 C137 0.952 . S
H140 C138 0.948 . S
H141 C130 0.952 . S
H142 C132 0.948 . S
C143 C109 1.395 1_554 S
C143 C113 1.391 . S
C144 C106 1.389 . S
C144 C126 1.392 . S
C145 C116 1.392 . S
C145 C118 1.389 . S
C146 C121 1.395 1_556 S
C146 C123 1.391 . S
H147 C107 0.951 . S
H148 C108 0.950 . S
H149 C114 0.949 . S
H150 C115 0.950 . S
H151 C119 0.951 . S
H152 C120 0.950 1_545 S
H153 C124 0.949 . S
H154 C125 0.950 . S
H155 C129 0.950 . S
H156 C131 0.950 . S
H157 C134 0.950 . S
H158 C136 0.950 . S
C159 C160 1.443 . S
C159 N163 1.376 . S
C159 C197 1.389 . S
C160 C159 1.443 . S
C160 C161 1.340 . S
C160 H200 0.951 . S
C161 C160 1.340 . S
C161 C162 1.439 . S
C161 H201 0.950 . S
C162 C161 1.439 . S
C162 N163 1.374 . S
C162 C196 1.395 1_556 S
N163 C159 1.376 . S
N163 C162 1.374 . S
N163 Co164 2.008 . S
Co164 N163 2.008 . S
Co164 N165 1.995 1_556 S
Co164 N170 2.008 1_556 S
Co164 N175 1.995 . S
Co164 N180 2.282 . S
Co164 N186 2.282 . S
N165 Co164 1.995 1_554 S
N165 C166 1.376 . S
N165 C169 1.383 . S
C166 N165 1.376 . S
C166 C167 1.446 . S
C166 C196 1.391 . S
C167 C166 1.446 . S
C167 C168 1.339 . S
C167 H202 0.949 . S
C168 C167 1.339 . S
C168 C169 1.439 . S
C168 H203 0.950 . S
C169 N165 1.383 . S
C169 C168 1.439 . S
C169 C198 1.392 . S
N170 Co164 2.008 1_554 S
N170 C171 1.376 . S
N170 C174 1.374 . S
C171 N170 1.376 . S
C171 C172 1.443 . S
C171 C198 1.389 . S
C172 C171 1.443 . S
C172 C173 1.340 . S
C172 H204 0.951 . S
C173 C172 1.340 . S
C173 C174 1.439 . S
C173 H205 0.950 . S
C174 N170 1.374 . S
C174 C173 1.439 . S
C174 C199 1.395 1_554 S
N175 Co164 1.995 . S
N175 C176 1.376 . S
N175 C179 1.383 . S
C176 N175 1.376 . S
C176 C177 1.446 . S
C176 C199 1.391 . S
C177 C176 1.446 . S
C177 C178 1.339 . S
C177 H206 0.949 . S
C178 C177 1.339 . S
C178 C179 1.439 . S
C178 H207 0.950 . S
C179 N175 1.383 . S
C179 C178 1.439 . S
C179 C197 1.392 . S
N180 Co164 2.282 . S
N180 C183 1.332 . S
N180 C185 1.332 1_556 S
C181 C182 1.386 . S
C181 C184 1.388 1_556 S
C182 C181 1.386 . S
C182 C183 1.382 . S
C182 H208 0.950 . S
C183 N180 1.332 . S
C183 C182 1.382 . S
C183 H194 0.952 . S
C184 C181 1.388 1_554 S
C184 C185 1.382 . S
C184 H209 0.950 . S
C185 N180 1.332 1_554 S
C185 C184 1.382 . S
C185 H195 0.948 . S
N186 Co164 2.282 . S
N186 C190 1.332 1_556 S
N186 C191 1.332 1_455 S
C187 C188 1.388 . S
C187 C191 1.382 . S
C187 H210 0.950 . S
C188 C187 1.388 . S
C188 C189 1.386 1_556 S
C189 C188 1.386 1_554 S
C189 C190 1.382 1_655 S
C189 H211 0.950 . S
C190 N186 1.332 1_554 S
C190 C189 1.382 1_455 S
C190 H192 0.952 . S
C191 N186 1.332 1_655 S
C191 C187 1.382 . S
C191 H193 0.948 . S
H192 C190 0.952 . S
H193 C191 0.948 . S
H194 C183 0.952 . S
H195 C185 0.948 . S
C196 C162 1.395 1_554 S
C196 C166 1.391 . S
C197 C159 1.389 . S
C197 C179 1.392 . S
C198 C169 1.392 . S
C198 C171 1.389 . S
C199 C174 1.395 1_556 S
C199 C176 1.391 . S
H200 C160 0.951 . S
H201 C161 0.950 . S
H202 C167 0.949 . S
H203 C168 0.950 . S
H204 C172 0.951 . S
H205 C173 0.950 . S
H206 C177 0.949 . S
H207 C178 0.950 . S
H208 C182 0.950 . S
H209 C184 0.950 . S
H210 C187 0.950 . S
H211 C189 0.950 . S
C212 C213 1.443 . S
C212 N216 1.376 . S
C212 C250 1.389 . S
C213 C212 1.443 . S
C213 C214 1.340 . S
C213 H253 0.951 . S
C214 C213 1.340 . S
C214 C215 1.439 . S
C214 H254 0.950 . S
C215 C214 1.439 . S
C215 N216 1.374 . S
C215 C249 1.395 . S
N216 C212 1.376 . S
N216 C215 1.374 . S
N216 Co217 2.008 . S
Co217 N216 2.008 . S
Co217 N218 1.995 . S
Co217 N223 2.008 . S
Co217 N228 1.995 . S
Co217 N233 2.282 . S
Co217 N239 2.282 . S
N218 Co217 1.995 . S
N218 C219 1.376 . S
N218 C222 1.383 . S
C219 N218 1.376 . S
C219 C220 1.446 . S
C219 C249 1.391 . S
C220 C219 1.446 . S
C220 C221 1.339 . S
C220 H255 0.949 . S
C221 C220 1.339 . S
C221 C222 1.439 . S
C221 H256 0.950 . S
C222 N218 1.383 . S
C222 C221 1.439 . S
C222 C251 1.392 . S
N223 Co217 2.008 . S
N223 C224 1.376 . S
N223 C227 1.374 . S
C224 N223 1.376 . S
C224 C225 1.443 . S
C224 C251 1.389 . S
C225 C224 1.443 . S
C225 C226 1.340 . S
C225 H257 0.951 . S
C226 C225 1.340 . S
C226 C227 1.439 . S
C226 H258 0.950 . S
C227 N223 1.374 . S
C227 C226 1.439 . S
C227 C252 1.395 . S
N228 Co217 1.995 . S
N228 C229 1.376 . S
N228 C232 1.383 . S
C229 N228 1.376 . S
C229 C230 1.446 . S
C229 C252 1.391 . S
C230 C229 1.446 . S
C230 C231 1.339 . S
C230 H259 0.949 . S
C231 C230 1.339 . S
C231 C232 1.439 . S
C231 H260 0.950 . S
C232 N228 1.383 . S
C232 C231 1.439 . S
C232 C250 1.392 . S
N233 Co217 2.282 . S
N233 C236 1.332 . S
N233 C238 1.332 . S
C234 C235 1.386 . S
C234 C237 1.388 . S
C235 C234 1.386 . S
C235 C236 1.382 . S
C235 H261 0.950 . S
C236 N233 1.332 . S
C236 C235 1.382 . S
C236 H247 0.952 . S
C237 C234 1.388 . S
C237 C238 1.382 . S
C237 H262 0.950 . S
C238 N233 1.332 . S
C238 C237 1.382 . S
C238 H248 0.948 . S
N239 Co217 2.282 . S
N239 C243 1.332 . S
N239 C244 1.332 . S
C240 C241 1.388 . S
C240 C244 1.382 . S
C240 H263 0.950 . S
C241 C240 1.388 . S
C241 C242 1.386 . S
C242 C241 1.386 . S
C242 C243 1.382 . S
C242 H264 0.950 . S
C243 N239 1.332 . S
C243 C242 1.382 . S
C243 H245 0.952 . S
C244 N239 1.332 . S
C244 C240 1.382 . S
C244 H246 0.948 . S
H245 C243 0.952 . S
H246 C244 0.948 . S
H247 C236 0.952 . S
H248 C238 0.948 . S
C249 C215 1.395 . S
C249 C219 1.391 . S
C250 C212 1.389 . S
C250 C232 1.392 . S
C251 C222 1.392 . S
C251 C224 1.389 . S
C252 C227 1.395 . S
C252 C229 1.391 . S
H253 C213 0.951 . S
H254 C214 0.950 . S
H255 C220 0.949 . S
H256 C221 0.950 . S
H257 C225 0.951 . S
H258 C226 0.950 . S
H259 C230 0.949 . S
H260 C231 0.950 . S
H261 C235 0.950 . S
H262 C237 0.950 . S
H263 C240 0.950 . S
H264 C242 0.950 . S
C265 C266 1.443 . S
C265 N269 1.376 . S
C265 C303 1.389 . S
C266 C265 1.443 . S
C266 C267 1.340 . S
C266 H306 0.951 . S
C267 C266 1.340 . S
C267 C268 1.439 . S
C267 H307 0.950 1_655 S
C268 C267 1.439 . S
C268 N269 1.374 . S
C268 C302 1.395 . S
N269 C265 1.376 . S
N269 C268 1.374 . S
N269 Co270 2.008 . S
Co270 N269 2.008 . S
Co270 N271 1.995 . S
Co270 N276 2.008 . S
Co270 N281 1.995 . S
Co270 N286 2.282 . S
Co270 N292 2.282 . S
N271 Co270 1.995 . S
N271 C272 1.376 . S
N271 C275 1.383 . S
C272 N271 1.376 . S
C272 C273 1.446 . S
C272 C302 1.391 . S
C273 C272 1.446 . S
C273 C274 1.339 . S
C273 H308 0.988 . S
C274 C273 1.339 . S
C274 C275 1.439 . S
C274 H309 0.950 . S
C275 N271 1.383 . S
C275 C274 1.439 . S
C275 C304 1.392 . S
N276 Co270 2.008 . S
N276 C277 1.376 . S
N276 C280 1.374 . S
C277 N276 1.376 . S
C277 C278 1.443 . S
C277 C304 1.389 . S
C278 C277 1.443 . S
C278 C279 1.340 . S
C278 H310 0.951 . S
C279 C278 1.340 . S
C279 C280 1.439 . S
C279 H311 0.950 . S
C280 N276 1.374 . S
C280 C279 1.439 . S
C280 C305 1.395 . S
N281 Co270 1.995 . S
N281 C282 1.376 . S
N281 C285 1.383 . S
C282 N281 1.376 . S
C282 C283 1.446 . S
C282 C305 1.391 . S
C283 C282 1.446 . S
C283 C284 1.339 . S
C283 H312 0.949 . S
C284 C283 1.339 . S
C284 C285 1.439 . S
C284 H313 0.950 . S
C285 N281 1.383 . S
C285 C284 1.439 . S
C285 C303 1.392 . S
N286 Co270 2.282 . S
N286 C289 1.332 . S
N286 C291 1.332 . S
C287 C288 1.386 . S
C287 C290 1.388 . S
C288 C287 1.386 . S
C288 C289 1.382 . S
C288 H314 0.950 . S
C289 N286 1.332 . S
C289 C288 1.382 . S
C289 H300 0.952 . S
C290 C287 1.388 . S
C290 C291 1.382 . S
C290 H315 0.950 . S
C291 N286 1.332 . S
C291 C290 1.382 . S
C291 H301 0.948 . S
N292 Co270 2.282 . S
N292 C296 1.332 1_655 S
N292 C297 1.332 . S
C293 C294 1.388 . S
C293 C297 1.382 1_455 S
C293 H316 0.950 . S
C294 C293 1.388 . S
C294 C295 1.386 . S
C295 C294 1.386 . S
C295 C296 1.382 . S
C295 H317 0.950 . S
C296 N292 1.332 1_455 S
C296 C295 1.382 . S
C296 H298 0.952 . S
C297 N292 1.332 . S
C297 C293 1.382 1_655 S
C297 H299 0.948 . S
H298 C296 0.952 . S
H299 C297 0.948 . S
H300 C289 0.952 . S
H301 C291 0.948 . S
C302 C268 1.395 . S
C302 C272 1.391 . S
C303 C265 1.389 . S
C303 C285 1.392 . S
C304 C275 1.392 . S
C304 C277 1.389 . S
C305 C280 1.395 . S
C305 C282 1.391 . S
H306 C266 0.951 . S
H307 C267 0.950 1_455 S
H308 C273 0.988 . S
H309 C274 0.950 . S
H310 C278 0.951 . S
H311 C279 0.950 . S
H312 C283 0.949 . S
H313 C284 0.950 . S
H314 C288 0.950 . S
H315 C290 0.950 . S
H316 C293 0.950 . S
H317 C295 0.950 . S
C318 C319 1.443 . S
C318 N322 1.376 . S
C318 C356 1.389 . S
C319 C318 1.443 . S
C319 C320 1.340 . S
C319 H359 0.951 . S
C320 C319 1.340 . S
C320 C321 1.439 . S
C320 H360 0.950 . S
C321 C320 1.439 . S
C321 N322 1.374 . S
C321 C355 1.395 . S
N322 C318 1.376 . S
N322 C321 1.374 . S
N322 Co323 2.008 . S
Co323 N322 2.008 . S
Co323 N324 1.995 1_554 S
Co323 N329 2.008 1_554 S
Co323 N334 1.995 . S
Co323 N339 2.282 . S
Co323 N345 2.282 . S
N324 Co323 1.995 1_556 S
N324 C325 1.376 . S
N324 C328 1.383 . S
C325 N324 1.376 . S
C325 C326 1.446 . S
C325 C355 1.391 1_556 S
C326 C325 1.446 . S
C326 C327 1.339 . S
C326 H361 0.988 . S
C327 C326 1.339 . S
C327 C328 1.439 . S
C327 H362 0.950 . S
C328 N324 1.383 . S
C328 C327 1.439 . S
C328 C357 1.392 . S
N329 Co323 2.008 1_556 S
N329 C330 1.376 . S
N329 C333 1.374 . S
C330 N329 1.376 . S
C330 C331 1.443 . S
C330 C357 1.389 . S
C331 C330 1.443 . S
C331 C332 1.340 . S
C331 H363 0.951 . S
C332 C331 1.340 . S
C332 C333 1.439 . S
C332 H364 0.950 . S
C333 N329 1.374 . S
C333 C332 1.439 . S
C333 C358 1.395 . S
N334 Co323 1.995 . S
N334 C335 1.376 . S
N334 C338 1.383 . S
C335 N334 1.376 . S
C335 C336 1.446 . S
C335 C358 1.391 1_554 S
C336 C335 1.446 . S
C336 C337 1.339 . S
C336 H365 0.949 . S
C337 C336 1.339 . S
C337 C338 1.439 . S
C337 H366 0.950 . S
C338 N334 1.383 . S
C338 C337 1.439 . S
C338 C356 1.392 . S
N339 Co323 2.282 . S
N339 C342 1.332 . S
N339 C344 1.332 . S
C340 C341 1.386 . S
C340 C343 1.388 . S
C341 C340 1.386 . S
C341 C342 1.382 . S
C341 H367 0.950 . S
C342 N339 1.332 . S
C342 C341 1.382 . S
C342 H353 0.952 . S
C343 C340 1.388 . S
C343 C344 1.382 . S
C343 H368 0.949 1_554 S
C344 N339 1.332 . S
C344 C343 1.382 . S
C344 H354 0.948 . S
N345 Co323 2.282 . S
N345 C349 1.332 1_554 S
N345 C350 1.332 . S
C346 C347 1.388 . S
C346 C350 1.382 . S
C346 H369 0.950 . S
C347 C346 1.388 . S
C347 C348 1.386 . S
C348 C347 1.386 . S
C348 C349 1.382 1_554 S
C348 H370 0.950 . S
C349 N345 1.332 1_556 S
C349 C348 1.382 1_556 S
C349 H351 0.951 . S
C350 N345 1.332 . S
C350 C346 1.382 . S
C350 H352 0.948 . S
H351 C349 0.951 . S
H352 C350 0.948 . S
H353 C342 0.952 . S
H354 C344 0.948 . S
C355 C321 1.395 . S
C355 C325 1.391 1_554 S
C356 C318 1.389 . S
C356 C338 1.392 . S
C357 C328 1.392 . S
C357 C330 1.389 . S
C358 C333 1.395 . S
C358 C335 1.391 1_556 S
H359 C319 0.951 . S
H360 C320 0.950 . S
H361 C326 0.988 . S
H362 C327 0.950 . S
H363 C331 0.951 . S
H364 C332 0.950 . S
H365 C336 0.949 . S
H366 C337 0.950 . S
H367 C341 0.950 . S
H368 C343 0.949 1_556 S
H369 C346 0.950 . S
H370 C348 0.950 . S
C371 C372 1.443 . S
C371 N375 1.376 . S
C371 C409 1.389 . S
C372 C371 1.443 . S
C372 C373 1.340 . S
C372 H412 0.951 . S
C373 C372 1.340 . S
C373 C374 1.439 . S
C373 H413 0.950 1_655 S
C374 C373 1.439 . S
C374 N375 1.374 . S
C374 C408 1.395 . S
N375 C371 1.376 . S
N375 C374 1.374 . S
N375 Co376 2.008 . S
Co376 N375 2.008 . S
Co376 N377 1.995 1_554 S
Co376 N382 2.008 1_554 S
Co376 N387 1.995 . S
Co376 N392 2.282 . S
Co376 N398 2.282 . S
N377 Co376 1.995 1_556 S
N377 C378 1.376 . S
N377 C381 1.383 . S
C378 N377 1.376 . S
C378 C379 1.446 . S
C378 C408 1.391 1_556 S
C379 C378 1.446 . S
C379 C380 1.339 . S
C379 H414 0.949 . S
C380 C379 1.339 . S
C380 C381 1.439 . S
C380 H415 0.950 . S
C381 N377 1.383 . S
C381 C380 1.439 . S
C381 C410 1.392 . S
N382 Co376 2.008 1_556 S
N382 C383 1.376 . S
N382 C386 1.374 . S
C383 N382 1.376 . S
C383 C384 1.443 . S
C383 C410 1.389 . S
C384 C383 1.443 . S
C384 C385 1.340 . S
C384 H416 0.951 . S
C385 C384 1.340 . S
C385 C386 1.439 . S
C385 H417 0.950 . S
C386 N382 1.374 . S
C386 C385 1.439 . S
C386 C411 1.395 . S
N387 Co376 1.995 . S
N387 C388 1.376 . S
N387 C391 1.383 . S
C388 N387 1.376 . S
C388 C389 1.446 . S
C388 C411 1.391 1_554 S
C389 C388 1.446 . S
C389 C390 1.339 . S
C389 H418 0.949 . S
C390 C389 1.339 . S
C390 C391 1.439 . S
C390 H419 0.950 . S
C391 N387 1.383 . S
C391 C390 1.439 . S
C391 C409 1.392 . S
N392 Co376 2.282 . S
N392 C395 1.332 . S
N392 C397 1.332 . S
C393 C394 1.386 . S
C393 C396 1.388 . S
C394 C393 1.386 . S
C394 C395 1.382 . S
C394 H420 0.950 . S
C395 N392 1.332 . S
C395 C394 1.382 . S
C395 H406 0.952 . S
C396 C393 1.388 . S
C396 C397 1.382 . S
C396 H421 0.949 1_554 S
C397 N392 1.332 . S
C397 C396 1.382 . S
C397 H407 0.948 . S
N398 Co376 2.282 . S
N398 C402 1.332 1_654 S
N398 C403 1.332 . S
C399 C400 1.388 . S
C399 C403 1.382 1_455 S
C399 H422 0.950 . S
C400 C399 1.388 . S
C400 C401 1.386 . S
C401 C400 1.386 . S
C401 C402 1.382 1_554 S
C401 H423 0.950 . S
C402 N398 1.332 1_456 S
C402 C401 1.382 1_556 S
C402 H404 0.951 . S
C403 N398 1.332 . S
C403 C399 1.382 1_655 S
C403 H405 0.948 . S
H404 C402 0.951 . S
H405 C403 0.948 . S
H406 C395 0.952 . S
H407 C397 0.948 . S
C408 C374 1.395 . S
C408 C378 1.391 1_554 S
C409 C371 1.389 . S
C409 C391 1.392 . S
C410 C381 1.392 . S
C410 C383 1.389 . S
C411 C386 1.395 . S
C411 C388 1.391 1_556 S
H412 C372 0.951 . S
H413 C373 0.950 1_455 S
H414 C379 0.949 . S
H415 C380 0.950 . S
H416 C384 0.951 . S
H417 C385 0.950 . S
H418 C389 0.949 . S
H419 C390 0.950 . S
H420 C394 0.950 . S
H421 C396 0.949 1_556 S
H422 C399 0.950 . S
H423 C401 0.950 . S
C424 C425 1.443 . S
C424 N428 1.376 . S
C424 C462 1.389 . S
C425 C424 1.443 . S
C425 C426 1.340 . S
C425 H465 0.951 . S
C426 C425 1.340 . S
C426 C427 1.439 . S
C426 H466 0.950 . S
C427 C426 1.439 . S
C427 N428 1.374 . S
C427 C461 1.395 . S
N428 C424 1.376 . S
N428 C427 1.374 . S
N428 Co429 2.008 . S
Co429 N428 2.008 . S
Co429 N430 1.995 . S
Co429 N435 2.008 . S
Co429 N440 1.995 . S
Co429 N445 2.282 . S
Co429 N451 2.282 . S
N430 Co429 1.995 . S
N430 C431 1.376 . S
N430 C434 1.383 . S
C431 N430 1.376 . S
C431 C432 1.446 . S
C431 C461 1.391 . S
C432 C431 1.446 . S
C432 C433 1.339 . S
C432 H467 0.949 . S
C433 C432 1.339 . S
C433 C434 1.439 . S
C433 H468 0.950 . S
C434 N430 1.383 . S
C434 C433 1.439 . S
C434 C463 1.392 . S
N435 Co429 2.008 . S
N435 C436 1.376 . S
N435 C439 1.374 . S
C436 N435 1.376 . S
C436 C437 1.443 . S
C436 C463 1.389 . S
C437 C436 1.443 . S
C437 C438 1.340 . S
C437 H469 0.951 . S
C438 C437 1.340 . S
C438 C439 1.439 . S
C438 H470 0.950 . S
C439 N435 1.374 . S
C439 C438 1.439 . S
C439 C464 1.395 . S
N440 Co429 1.995 . S
N440 C441 1.376 . S
N440 C444 1.383 . S
C441 N440 1.376 . S
C441 C442 1.446 . S
C441 C464 1.391 . S
C442 C441 1.446 . S
C442 C443 1.339 . S
C442 H471 0.949 . S
C443 C442 1.339 . S
C443 C444 1.439 . S
C443 H472 0.950 . S
C444 N440 1.383 . S
C444 C443 1.439 . S
C444 C462 1.392 . S
N445 Co429 2.282 . S
N445 C448 1.332 . S
N445 C450 1.332 . S
C446 C447 1.386 . S
C446 C449 1.388 . S
C447 C446 1.386 . S
C447 C448 1.382 . S
C447 H473 0.950 . S
C448 N445 1.332 . S
C448 C447 1.382 . S
C448 H459 0.952 . S
C449 C446 1.388 . S
C449 C450 1.382 . S
C449 H474 0.950 . S
C450 N445 1.332 . S
C450 C449 1.382 . S
C450 H460 0.948 . S
N451 Co429 2.282 . S
N451 C455 1.332 . S
N451 C456 1.332 . S
C452 C453 1.388 . S
C452 C456 1.382 . S
C452 H475 0.950 . S
C453 C452 1.388 . S
C453 C454 1.386 . S
C454 C453 1.386 . S
C454 C455 1.382 . S
C454 H476 0.950 . S
C455 N451 1.332 . S
C455 C454 1.382 . S
C455 H457 0.952 . S
C456 N451 1.332 . S
C456 C452 1.382 . S
C456 H458 0.948 . S
H457 C455 0.952 . S
H458 C456 0.948 . S
H459 C448 0.952 . S
H460 C450 0.948 . S
C461 C427 1.395 . S
C461 C431 1.391 . S
C462 C424 1.389 . S
C462 C444 1.392 . S
C463 C434 1.392 . S
C463 C436 1.389 . S
C464 C439 1.395 . S
C464 C441 1.391 . S
H465 C425 0.951 . S
H466 C426 0.950 . S
H467 C432 0.949 . S
H468 C433 0.950 . S
H469 C437 0.951 . S
H470 C438 0.950 . S
H471 C442 0.949 . S
H472 C443 0.950 . S
H473 C447 0.950 . S
H474 C449 0.950 . S
H475 C452 0.950 . S
H476 C454 0.950 . S
C477 C478 1.443 . S
C477 N481 1.376 . S
C477 C515 1.389 . S
C478 C477 1.443 . S
C478 C479 1.340 . S
C478 H518 0.951 . S
C479 C478 1.340 . S
C479 C480 1.439 . S
C479 H519 0.950 . S
C480 C479 1.439 . S
C480 N481 1.374 . S
C480 C514 1.395 . S
N481 C477 1.376 . S
N481 C480 1.374 . S
N481 Co482 2.008 . S
Co482 N481 2.008 . S
Co482 N483 1.995 . S
Co482 N488 2.008 . S
Co482 N493 1.995 . S
Co482 N498 2.282 . S
Co482 N504 2.282 . S
N483 Co482 1.995 . S
N483 C484 1.376 . S
N483 C487 1.383 . S
C484 N483 1.376 . S
C484 C485 1.446 . S
C484 C514 1.391 . S
C485 C484 1.446 . S
C485 C486 1.339 . S
C485 H520 0.949 . S
C486 C485 1.339 . S
C486 C487 1.439 . S
C486 H521 0.950 . S
C487 N483 1.383 . S
C487 C486 1.439 . S
C487 C516 1.392 . S
N488 Co482 2.008 . S
N488 C489 1.376 . S
N488 C492 1.374 . S
C489 N488 1.376 . S
C489 C490 1.443 . S
C489 C516 1.389 . S
C490 C489 1.443 . S
C490 C491 1.340 . S
C490 H522 0.951 . S
C491 C490 1.340 . S
C491 C492 1.439 . S
C491 H523 0.950 . S
C492 N488 1.374 . S
C492 C491 1.439 . S
C492 C517 1.395 . S
N493 Co482 1.995 . S
N493 C494 1.376 . S
N493 C497 1.383 . S
C494 N493 1.376 . S
C494 C495 1.446 . S
C494 C517 1.391 . S
C495 C494 1.446 . S
C495 C496 1.339 . S
C495 H524 0.949 . S
C496 C495 1.339 . S
C496 C497 1.439 . S
C496 H525 0.950 . S
C497 N493 1.383 . S
C497 C496 1.439 . S
C497 C515 1.392 . S
N498 Co482 2.282 . S
N498 C501 1.332 . S
N498 C503 1.332 . S
C499 C500 1.386 . S
C499 C502 1.388 . S
C500 C499 1.386 . S
C500 C501 1.382 . S
C500 H526 0.950 . S
C501 N498 1.332 . S
C501 C500 1.382 . S
C501 H512 0.952 . S
C502 C499 1.388 . S
C502 C503 1.382 . S
C502 H527 0.950 . S
C503 N498 1.332 . S
C503 C502 1.382 . S
C503 H513 0.948 . S
N504 Co482 2.282 . S
N504 C508 1.332 . S
N504 C509 1.332 1_455 S
C505 C506 1.388 . S
C505 C509 1.382 . S
C505 H528 0.950 . S
C506 C505 1.388 . S
C506 C507 1.386 . S
C507 C506 1.386 . S
C507 C508 1.382 1_655 S
C507 H529 0.950 . S
C508 N504 1.332 . S
C508 C507 1.382 1_455 S
C508 H510 0.952 . S
C509 N504 1.332 1_655 S
C509 C505 1.382 . S
C509 H511 0.948 . S
H510 C508 0.952 . S
H511 C509 0.948 . S
H512 C501 0.952 . S
H513 C503 0.948 . S
C514 C480 1.395 . S
C514 C484 1.391 . S
C515 C477 1.389 . S
C515 C497 1.392 . S
C516 C487 1.392 . S
C516 C489 1.389 . S
C517 C492 1.395 . S
C517 C494 1.391 . S
H518 C478 0.951 . S
H519 C479 0.950 . S
H520 C485 0.949 . S
H521 C486 0.950 . S
H522 C490 0.951 . S
H523 C491 0.950 . S
H524 C495 0.949 . S
H525 C496 0.950 . S
H526 C500 0.950 . S
H527 C502 0.950 . S
H528 C505 0.950 . S
H529 C507 0.950 . S
C530 C531 1.443 . S
C530 N534 1.376 . S
C530 C568 1.389 . S
C531 C530 1.443 . S
C531 C532 1.340 . S
C531 H571 0.951 . S
C532 C531 1.340 . S
C532 C533 1.439 . S
C532 H572 0.950 . S
C533 C532 1.439 . S
C533 N534 1.374 . S
C533 C567 1.395 . S
N534 C530 1.376 . S
N534 C533 1.374 . S
N534 Co535 2.008 . S
Co535 N534 2.008 . S
Co535 N536 1.995 . S
Co535 N541 2.008 . S
Co535 N546 1.995 . S
Co535 N551 2.282 . S
Co535 N557 2.282 . S
N536 Co535 1.995 . S
N536 C537 1.376 . S
N536 C540 1.383 . S
C537 N536 1.376 . S
C537 C538 1.446 . S
C537 C567 1.391 . S
C538 C537 1.446 . S
C538 C539 1.339 . S
C538 H573 0.949 . S
C539 C538 1.339 . S
C539 C540 1.439 . S
C539 H574 0.950 . S
C540 N536 1.383 . S
C540 C539 1.439 . S
C540 C569 1.392 . S
N541 Co535 2.008 . S
N541 C542 1.376 . S
N541 C545 1.374 . S
C542 N541 1.376 . S
C542 C543 1.443 . S
C542 C569 1.389 . S
C543 C542 1.443 . S
C543 C544 1.340 . S
C543 H575 0.951 . S
C544 C543 1.340 . S
C544 C545 1.439 . S
C544 H576 0.950 . S
C545 N541 1.374 . S
C545 C544 1.439 . S
C545 C570 1.395 . S
N546 Co535 1.995 . S
N546 C547 1.376 . S
N546 C550 1.383 . S
C547 N546 1.376 . S
C547 C548 1.446 . S
C547 C570 1.391 . S
C548 C547 1.446 . S
C548 C549 1.339 . S
C548 H577 0.949 . S
C549 C548 1.339 . S
C549 C550 1.439 . S
C549 H578 0.950 . S
C550 N546 1.383 . S
C550 C549 1.439 . S
C550 C568 1.392 . S
N551 Co535 2.282 . S
N551 C554 1.332 . S
N551 C556 1.332 . S
C552 C553 1.386 . S
C552 C555 1.388 . S
C553 C552 1.386 . S
C553 C554 1.382 . S
C553 H579 0.950 . S
C554 N551 1.332 . S
C554 C553 1.382 . S
C554 H565 0.952 . S
C555 C552 1.388 . S
C555 C556 1.382 . S
C555 H580 0.950 . S
C556 N551 1.332 . S
C556 C555 1.382 . S
C556 H566 0.948 . S
N557 Co535 2.282 . S
N557 C561 1.332 . S
N557 C562 1.332 . S
C558 C559 1.388 . S
C558 C562 1.382 . S
C558 H581 0.950 . S
C559 C558 1.388 . S
C559 C560 1.386 . S
C560 C559 1.386 . S
C560 C561 1.382 . S
C560 H582 0.950 . S
C561 N557 1.332 . S
C561 C560 1.382 . S
C561 H563 0.952 . S
C562 N557 1.332 . S
C562 C558 1.382 . S
C562 H564 0.948 . S
H563 C561 0.952 . S
H564 C562 0.948 . S
H565 C554 0.952 . S
H566 C556 0.948 . S
C567 C533 1.395 . S
C567 C537 1.391 . S
C568 C530 1.389 . S
C568 C550 1.392 . S
C569 C540 1.392 . S
C569 C542 1.389 . S
C570 C545 1.395 . S
C570 C547 1.391 . S
H571 C531 0.951 . S
H572 C532 0.950 . S
H573 C538 0.949 . S
H574 C539 0.950 . S
H575 C543 0.951 . S
H576 C544 0.950 . S
H577 C548 0.949 . S
H578 C549 0.950 . S
H579 C553 0.950 . S
H580 C555 0.950 . S
H581 C558 0.950 . S
H582 C560 0.950 . S
C583 C584 1.443 . S
C583 N587 1.376 . S
C583 C621 1.389 . S
C584 C583 1.443 . S
C584 C585 1.340 . S
C584 H624 0.951 . S
C585 C584 1.340 . S
C585 C586 1.439 . S
C585 H625 0.950 . S
C586 C585 1.439 . S
C586 N587 1.374 . S
C586 C620 1.395 . S
N587 C583 1.376 . S
N587 C586 1.374 . S
N587 Co588 2.008 . S
Co588 N587 2.008 . S
Co588 N589 1.995 . S
Co588 N594 2.008 . S
Co588 N599 1.995 . S
Co588 N604 2.282 . S
Co588 N610 2.282 . S
N589 Co588 1.995 . S
N589 C590 1.376 . S
N589 C593 1.383 . S
C590 N589 1.376 . S
C590 C591 1.446 . S
C590 C620 1.391 . S
C591 C590 1.446 . S
C591 C592 1.339 . S
C591 H626 0.949 . S
C592 C591 1.339 . S
C592 C593 1.439 . S
C592 H627 0.950 . S
C593 N589 1.383 . S
C593 C592 1.439 . S
C593 C622 1.392 . S
N594 Co588 2.008 . S
N594 C595 1.376 . S
N594 C598 1.374 . S
C595 N594 1.376 . S
C595 C596 1.443 . S
C595 C622 1.389 . S
C596 C595 1.443 . S
C596 C597 1.340 . S
C596 H628 0.951 . S
C597 C596 1.340 . S
C597 C598 1.439 . S
C597 H629 0.950 . S
C598 N594 1.374 . S
C598 C597 1.439 . S
C598 C623 1.395 . S
N599 Co588 1.995 . S
N599 C600 1.376 . S
N599 C603 1.383 . S
C600 N599 1.376 . S
C600 C601 1.446 . S
C600 C623 1.391 . S
C601 C600 1.446 . S
C601 C602 1.339 . S
C601 H630 0.949 . S
C602 C601 1.339 . S
C602 C603 1.439 . S
C602 H631 0.950 . S
C603 N599 1.383 . S
C603 C602 1.439 . S
C603 C621 1.392 . S
N604 Co588 2.282 . S
N604 C607 1.332 . S
N604 C609 1.332 . S
C605 C606 1.386 . S
C605 C608 1.388 . S
C606 C605 1.386 . S
C606 C607 1.382 . S
C606 H632 0.950 . S
C607 N604 1.332 . S
C607 C606 1.382 . S
C607 H618 0.952 . S
C608 C605 1.388 . S
C608 C609 1.382 . S
C608 H633 0.950 . S
C609 N604 1.332 . S
C609 C608 1.382 . S
C609 H619 0.948 . S
N610 Co588 2.282 . S
N610 C614 1.332 . S
N610 C615 1.332 1_455 S
C611 C612 1.388 . S
C611 C615 1.382 . S
C611 H634 0.950 . S
C612 C611 1.388 . S
C612 C613 1.386 . S
C613 C612 1.386 . S
C613 C614 1.382 1_655 S
C613 H635 0.950 . S
C614 N610 1.332 . S
C614 C613 1.382 1_455 S
C614 H616 0.952 . S
C615 N610 1.332 1_655 S
C615 C611 1.382 . S
C615 H617 0.948 . S
H616 C614 0.952 . S
H617 C615 0.948 . S
H618 C607 0.952 . S
H619 C609 0.948 . S
C620 C586 1.395 . S
C620 C590 1.391 . S
C621 C583 1.389 . S
C621 C603 1.392 . S
C622 C593 1.392 . S
C622 C595 1.389 . S
C623 C598 1.395 . S
C623 C600 1.391 . S
H624 C584 0.951 . S
H625 C585 0.950 . S
H626 C591 0.949 . S
H627 C592 0.950 . S
H628 C596 0.951 . S
H629 C597 0.950 . S
H630 C601 0.949 . S
H631 C602 0.950 . S
H632 C606 0.950 . S
H633 C608 0.950 . S
H634 C611 0.950 . S
H635 C613 0.950 . S
C636 C637 1.443 . S
C636 N640 1.376 . S
C636 C674 1.389 . S
C637 C636 1.443 . S
C637 C638 1.340 . S
C637 H677 0.951 . S
C638 C637 1.340 . S
C638 C639 1.439 . S
C638 H678 0.950 . S
C639 C638 1.439 . S
C639 N640 1.374 . S
C639 C673 1.395 . S
N640 C636 1.376 . S
N640 C639 1.374 . S
N640 Co641 2.008 . S
Co641 N640 2.008 . S
Co641 N642 1.995 . S
Co641 N647 2.008 . S
Co641 N652 1.995 . S
Co641 N657 2.282 . S
Co641 N663 2.282 . S
N642 Co641 1.995 . S
N642 C643 1.376 . S
N642 C646 1.383 . S
C643 N642 1.376 . S
C643 C644 1.446 . S
C643 C673 1.391 . S
C644 C643 1.446 . S
C644 C645 1.339 . S
C644 H679 0.949 . S
C645 C644 1.339 . S
C645 C646 1.439 . S
C645 H680 0.950 . S
C646 N642 1.383 . S
C646 C645 1.439 . S
C646 C675 1.392 . S
N647 Co641 2.008 . S
N647 C648 1.376 . S
N647 C651 1.374 . S
C648 N647 1.376 . S
C648 C649 1.443 . S
C648 C675 1.389 . S
C649 C648 1.443 . S
C649 C650 1.340 . S
C649 H681 0.951 . S
C650 C649 1.340 . S
C650 C651 1.439 . S
C650 H682 0.950 . S
C651 N647 1.374 . S
C651 C650 1.439 . S
C651 C676 1.395 . S
N652 Co641 1.995 . S
N652 C653 1.376 . S
N652 C656 1.383 . S
C653 N652 1.376 . S
C653 C654 1.446 . S
C653 C676 1.391 . S
C654 C653 1.446 . S
C654 C655 1.339 . S
C654 H683 0.949 . S
C655 C654 1.339 . S
C655 C656 1.439 . S
C655 H684 0.950 . S
C656 N652 1.383 . S
C656 C655 1.439 . S
C656 C674 1.392 . S
N657 Co641 2.282 . S
N657 C660 1.332 . S
N657 C662 1.332 . S
C658 C659 1.386 . S
C658 C661 1.388 . S
C659 C658 1.386 . S
C659 C660 1.382 . S
C659 H685 0.950 . S
C660 N657 1.332 . S
C660 C659 1.382 . S
C660 H671 0.952 . S
C661 C658 1.388 . S
C661 C662 1.382 . S
C661 H686 0.950 . S
C662 N657 1.332 . S
C662 C661 1.382 . S
C662 H672 0.948 . S
N663 Co641 2.282 . S
N663 C667 1.332 . S
N663 C668 1.332 . S
C664 C665 1.388 . S
C664 C668 1.382 . S
C664 H687 0.950 . S
C665 C664 1.388 . S
C665 C666 1.386 . S
C666 C665 1.386 . S
C666 C667 1.382 . S
C666 H688 0.950 . S
C667 N663 1.332 . S
C667 C666 1.382 . S
C667 H669 0.952 . S
C668 N663 1.332 . S
C668 C664 1.382 . S
C668 H670 0.948 . S
H669 C667 0.952 . S
H670 C668 0.948 . S
H671 C660 0.952 . S
H672 C662 0.948 . S
C673 C639 1.395 . S
C673 C643 1.391 . S
C674 C636 1.389 . S
C674 C656 1.392 . S
C675 C646 1.392 . S
C675 C648 1.389 . S
C676 C651 1.395 . S
C676 C653 1.391 . S
H677 C637 0.951 . S
H678 C638 0.950 . S
H679 C644 0.949 . S
H680 C645 0.950 . S
H681 C649 0.951 . S
H682 C650 0.950 . S
H683 C654 0.949 . S
H684 C655 0.950 . S
H685 C659 0.950 . S
H686 C661 0.950 . S
H687 C664 0.950 . S
H688 C666 0.950 . S
C689 C690 1.443 . S
C689 N693 1.376 . S
C689 C727 1.389 . S
C690 C689 1.443 . S
C690 C691 1.340 . S
C690 H730 0.951 . S
C691 C690 1.340 . S
C691 C692 1.439 . S
C691 H731 0.950 1_655 S
C692 C691 1.439 . S
C692 N693 1.374 . S
C692 C726 1.395 . S
N693 C689 1.376 . S
N693 C692 1.374 . S
N693 Co694 2.008 . S
Co694 N693 2.008 . S
Co694 N695 1.995 . S
Co694 N700 2.008 . S
Co694 N705 1.995 . S
Co694 N710 2.282 . S
Co694 N716 2.282 . S
N695 Co694 1.995 . S
N695 C696 1.376 . S
N695 C699 1.383 . S
C696 N695 1.376 . S
C696 C697 1.446 . S
C696 C726 1.391 . S
C697 C696 1.446 . S
C697 C698 1.339 . S
C697 H732 0.949 . S
C698 C697 1.339 . S
C698 C699 1.439 . S
C698 H733 0.950 . S
C699 N695 1.383 . S
C699 C698 1.439 . S
C699 C728 1.392 . S
N700 Co694 2.008 . S
N700 C701 1.376 . S
N700 C704 1.374 . S
C701 N700 1.376 . S
C701 C702 1.443 . S
C701 C728 1.389 . S
C702 C701 1.443 . S
C702 C703 1.340 . S
C702 H734 0.951 . S
C703 C702 1.340 . S
C703 C704 1.439 . S
C703 H735 0.950 . S
C704 N700 1.374 . S
C704 C703 1.439 . S
C704 C729 1.395 . S
N705 Co694 1.995 . S
N705 C706 1.376 . S
N705 C709 1.383 . S
C706 N705 1.376 . S
C706 C707 1.446 . S
C706 C729 1.391 . S
C707 C706 1.446 . S
C707 C708 1.339 . S
C707 H736 0.949 . S
C708 C707 1.339 . S
C708 C709 1.439 . S
C708 H737 0.950 . S
C709 N705 1.383 . S
C709 C708 1.439 . S
C709 C727 1.392 . S
N710 Co694 2.282 . S
N710 C713 1.332 . S
N710 C715 1.332 . S
C711 C712 1.386 . S
C711 C714 1.388 . S
C712 C711 1.386 . S
C712 C713 1.382 . S
C712 H738 0.950 . S
C713 N710 1.332 . S
C713 C712 1.382 . S
C713 H724 0.952 . S
C714 C711 1.388 . S
C714 C715 1.382 . S
C714 H739 0.950 . S
C715 N710 1.332 . S
C715 C714 1.382 . S
C715 H725 0.948 . S
N716 Co694 2.282 . S
N716 C720 1.332 1_655 S
N716 C721 1.332 . S
C717 C718 1.388 . S
C717 C721 1.382 1_455 S
C717 H740 0.950 . S
C718 C717 1.388 . S
C718 C719 1.386 . S
C719 C718 1.386 . S
C719 C720 1.382 . S
C719 H741 0.950 . S
C720 N716 1.332 1_455 S
C720 C719 1.382 . S
C720 H722 0.952 . S
C721 N716 1.332 . S
C721 C717 1.382 1_655 S
C721 H723 0.948 . S
H722 C720 0.952 . S
H723 C721 0.948 . S
H724 C713 0.952 . S
H725 C715 0.948 . S
C726 C692 1.395 . S
C726 C696 1.391 . S
C727 C689 1.389 . S
C727 C709 1.392 . S
C728 C699 1.392 . S
C728 C701 1.389 . S
C729 C704 1.395 . S
C729 C706 1.391 . S
H730 C690 0.951 . S
H731 C691 0.950 1_455 S
H732 C697 0.949 . S
H733 C698 0.950 . S
H734 C702 0.951 . S
H735 C703 0.950 . S
H736 C707 0.949 . S
H737 C708 0.950 . S
H738 C712 0.950 . S
H739 C714 0.950 . S
H740 C717 0.950 . S
H741 C719 0.950 . S
C742 C743 1.443 . S
C742 N746 1.376 . S
C742 C780 1.389 . S
C743 C742 1.443 . S
C743 C744 1.340 . S
C743 H783 0.951 . S
C744 C743 1.340 . S
C744 C745 1.439 . S
C744 H784 0.950 . S
C745 C744 1.439 . S
C745 N746 1.374 . S
C745 C779 1.395 . S
N746 C742 1.376 . S
N746 C745 1.374 . S
N746 Co747 2.008 . S
Co747 N746 2.008 . S
Co747 N748 1.995 . S
Co747 N753 2.008 . S
Co747 N758 1.995 . S
Co747 N763 2.282 . S
Co747 N769 2.282 . S
N748 Co747 1.995 . S
N748 C749 1.376 . S
N748 C752 1.383 . S
C749 N748 1.376 . S
C749 C750 1.446 . S
C749 C779 1.391 . S
C750 C749 1.446 . S
C750 C751 1.339 . S
C750 H785 0.949 . S
C751 C750 1.339 . S
C751 C752 1.439 . S
C751 H786 0.950 . S
C752 N748 1.383 . S
C752 C751 1.439 . S
C752 C781 1.392 . S
N753 Co747 2.008 . S
N753 C754 1.376 . S
N753 C757 1.374 . S
C754 N753 1.376 . S
C754 C755 1.443 . S
C754 C781 1.389 . S
C755 C754 1.443 . S
C755 C756 1.340 . S
C755 H787 0.951 . S
C756 C755 1.340 . S
C756 C757 1.439 . S
C756 H788 0.950 . S
C757 N753 1.374 . S
C757 C756 1.439 . S
C757 C782 1.395 . S
N758 Co747 1.995 . S
N758 C759 1.376 . S
N758 C762 1.383 . S
C759 N758 1.376 . S
C759 C760 1.446 . S
C759 C782 1.391 . S
C760 C759 1.446 . S
C760 C761 1.339 . S
C760 H789 0.949 . S
C761 C760 1.339 . S
C761 C762 1.439 . S
C761 H790 0.950 . S
C762 N758 1.383 . S
C762 C761 1.439 . S
C762 C780 1.392 . S
N763 Co747 2.282 . S
N763 C766 1.332 . S
N763 C768 1.332 . S
C764 C765 1.386 . S
C764 C767 1.388 . S
C765 C764 1.386 . S
C765 C766 1.382 . S
C765 H791 0.950 . S
C766 N763 1.332 . S
C766 C765 1.382 . S
C766 H777 0.952 . S
C767 C764 1.388 . S
C767 C768 1.382 . S
C767 H792 0.950 . S
C768 N763 1.332 . S
C768 C767 1.382 . S
C768 H778 0.948 . S
N769 Co747 2.282 . S
N769 C773 1.332 . S
N769 C774 1.332 . S
C770 C771 1.388 . S
C770 C774 1.382 . S
C770 H793 0.950 . S
C771 C770 1.388 . S
C771 C772 1.386 . S
C772 C771 1.386 . S
C772 C773 1.382 . S
C772 H794 0.950 . S
C773 N769 1.332 . S
C773 C772 1.382 . S
C773 H775 0.952 . S
C774 N769 1.332 . S
C774 C770 1.382 . S
C774 H776 0.948 . S
H775 C773 0.952 . S
H776 C774 0.948 . S
H777 C766 0.952 . S
H778 C768 0.948 . S
C779 C745 1.395 . S
C779 C749 1.391 . S
C780 C742 1.389 . S
C780 C762 1.392 . S
C781 C752 1.392 . S
C781 C754 1.389 . S
C782 C757 1.395 . S
C782 C759 1.391 . S
H783 C743 0.951 . S
H784 C744 0.950 . S
H785 C750 0.949 . S
H786 C751 0.950 . S
H787 C755 0.951 . S
H788 C756 0.950 . S
H789 C760 0.949 . S
H790 C761 0.950 . S
H791 C765 0.950 . S
H792 C767 0.950 . S
H793 C770 0.950 . S
H794 C772 0.950 . S
C795 C796 1.443 . S
C795 N799 1.376 . S
C795 C833 1.389 . S
C796 C795 1.443 . S
C796 C797 1.340 . S
C796 H836 0.951 . S
C797 C796 1.340 . S
C797 C798 1.439 . S
C797 H837 0.950 1_655 S
C798 C797 1.439 . S
C798 N799 1.374 . S
C798 C832 1.395 . S
N799 C795 1.376 . S
N799 C798 1.374 . S
N799 Co800 2.008 . S
Co800 N799 2.008 . S
Co800 N801 1.995 . S
Co800 N806 2.008 . S
Co800 N811 1.995 . S
Co800 N816 2.282 . S
Co800 N822 2.282 . S
N801 Co800 1.995 . S
N801 C802 1.376 . S
N801 C805 1.383 . S
C802 N801 1.376 . S
C802 C803 1.446 . S
C802 C832 1.391 . S
C803 C802 1.446 . S
C803 C804 1.339 . S
C803 H838 0.949 . S
C804 C803 1.339 . S
C804 C805 1.439 . S
C804 H839 0.950 . S
C805 N801 1.383 . S
C805 C804 1.439 . S
C805 C834 1.392 . S
N806 Co800 2.008 . S
N806 C807 1.376 . S
N806 C810 1.374 . S
C807 N806 1.376 . S
C807 C808 1.443 . S
C807 C834 1.389 . S
C808 C807 1.443 . S
C808 C809 1.340 . S
C808 H840 0.951 . S
C809 C808 1.340 . S
C809 C810 1.439 . S
C809 H841 0.950 . S
C810 N806 1.374 . S
C810 C809 1.439 . S
C810 C835 1.395 . S
N811 Co800 1.995 . S
N811 C812 1.376 . S
N811 C815 1.383 . S
C812 N811 1.376 . S
C812 C813 1.446 . S
C812 C835 1.391 . S
C813 C812 1.446 . S
C813 C814 1.339 . S
C813 H842 0.949 . S
C814 C813 1.339 . S
C814 C815 1.439 . S
C814 H843 0.950 . S
C815 N811 1.383 . S
C815 C814 1.439 . S
C815 C833 1.392 . S
N816 Co800 2.282 . S
N816 C819 1.332 . S
N816 C821 1.332 . S
C817 C818 1.386 . S
C817 C820 1.388 . S
C818 C817 1.386 . S
C818 C819 1.382 . S
C818 H844 0.950 . S
C819 N816 1.332 . S
C819 C818 1.382 . S
C819 H830 0.952 . S
C820 C817 1.388 . S
C820 C821 1.382 . S
C820 H845 0.950 . S
C821 N816 1.332 . S
C821 C820 1.382 . S
C821 H831 0.948 . S
N822 Co800 2.282 . S
N822 C826 1.332 1_655 S
N822 C827 1.332 . S
C823 C824 1.388 . S
C823 C827 1.382 1_455 S
C823 H846 0.950 . S
C824 C823 1.388 . S
C824 C825 1.386 . S
C825 C824 1.386 . S
C825 C826 1.382 . S
C825 H847 0.950 . S
C826 N822 1.332 1_455 S
C826 C825 1.382 . S
C826 H828 0.952 . S
C827 N822 1.332 . S
C827 C823 1.382 1_655 S
C827 H829 0.948 . S
H828 C826 0.952 . S
H829 C827 0.948 . S
H830 C819 0.952 . S
H831 C821 0.948 . S
C832 C798 1.395 . S
C832 C802 1.391 . S
C833 C795 1.389 . S
C833 C815 1.392 . S
C834 C805 1.392 . S
C834 C807 1.389 . S
C835 C810 1.395 . S
C835 C812 1.391 . S
H836 C796 0.951 . S
H837 C797 0.950 1_455 S
H838 C803 0.949 . S
H839 C804 0.950 . S
H840 C808 0.951 . S
H841 C809 0.950 . S
H842 C813 0.949 . S
H843 C814 0.950 . S
H844 C818 0.950 . S
H845 C820 0.950 . S
H846 C823 0.950 . S
H847 C825 0.950 . S
C848 C849 1.443 . S
C848 N852 1.376 . S
C848 C886 1.389 . S
C849 C848 1.443 . S
C849 C850 1.340 . S
C849 H889 0.951 . S
C850 C849 1.340 . S
C850 C851 1.439 . S
C850 H890 0.950 . S
C851 C850 1.439 . S
C851 N852 1.374 . S
C851 C885 1.395 . S
N852 C848 1.376 . S
N852 C851 1.374 . S
N852 Co853 2.008 . S
Co853 N852 2.008 . S
Co853 N854 1.995 . S
Co853 N859 2.008 . S
Co853 N864 1.995 . S
Co853 N869 2.282 . S
Co853 N875 2.282 . S
N854 Co853 1.995 . S
N854 C855 1.376 . S
N854 C858 1.383 . S
C855 N854 1.376 . S
C855 C856 1.446 . S
C855 C885 1.391 . S
C856 C855 1.446 . S
C856 C857 1.339 . S
C856 H891 0.949 . S
C857 C856 1.339 . S
C857 C858 1.439 . S
C857 H892 0.950 . S
C858 N854 1.383 . S
C858 C857 1.439 . S
C858 C887 1.392 . S
N859 Co853 2.008 . S
N859 C860 1.376 . S
N859 C863 1.374 . S
C860 N859 1.376 . S
C860 C861 1.443 . S
C860 C887 1.389 . S
C861 C860 1.443 . S
C861 C862 1.340 . S
C861 H893 0.951 . S
C862 C861 1.340 . S
C862 C863 1.439 . S
C862 H894 0.950 . S
C863 N859 1.374 . S
C863 C862 1.439 . S
C863 C888 1.395 . S
N864 Co853 1.995 . S
N864 C865 1.376 . S
N864 C868 1.383 . S
C865 N864 1.376 . S
C865 C866 1.446 . S
C865 C888 1.391 . S
C866 C865 1.446 . S
C866 C867 1.339 . S
C866 H895 0.949 . S
C867 C866 1.339 . S
C867 C868 1.439 . S
C867 H896 0.950 . S
C868 N864 1.383 . S
C868 C867 1.439 . S
C868 C886 1.392 . S
N869 Co853 2.282 . S
N869 C872 1.332 . S
N869 C874 1.332 . S
C870 C871 1.386 . S
C870 C873 1.388 . S
C871 C870 1.386 . S
C871 C872 1.382 . S
C871 H897 0.950 . S
C872 N869 1.332 . S
C872 C871 1.382 . S
C872 H883 0.952 . S
C873 C870 1.388 . S
C873 C874 1.382 . S
C873 H898 0.950 . S
C874 N869 1.332 . S
C874 C873 1.382 . S
C874 H884 0.948 . S
N875 Co853 2.282 . S
N875 C879 1.332 . S
N875 C880 1.332 . S
C876 C877 1.388 . S
C876 C880 1.382 . S
C876 H899 0.950 . S
C877 C876 1.388 . S
C877 C878 1.386 . S
C878 C877 1.386 . S
C878 C879 1.382 . S
C878 H900 0.950 . S
C879 N875 1.332 . S
C879 C878 1.382 . S
C879 H881 0.952 . S
C880 N875 1.332 . S
C880 C876 1.382 . S
C880 H882 0.948 . S
H881 C879 0.952 . S
H882 C880 0.948 . S
H883 C872 0.952 . S
H884 C874 0.948 . S
C885 C851 1.395 . S
C885 C855 1.391 . S
C886 C848 1.389 . S
C886 C868 1.392 . S
C887 C858 1.392 . S
C887 C860 1.389 . S
C888 C863 1.395 . S
C888 C865 1.391 . S
H889 C849 0.951 . S
H890 C850 0.950 . S
H891 C856 0.949 . S
H892 C857 0.950 . S
H893 C861 0.951 . S
H894 C862 0.950 . S
H895 C866 0.949 . S
H896 C867 0.950 . S
H897 C871 0.950 . S
H898 C873 0.950 . S
H899 C876 0.950 . S
H900 C878 0.950 . S
C901 C902 1.443 . S
C901 N905 1.376 . S
C901 C939 1.389 . S
C902 C901 1.443 . S
C902 C903 1.340 . S
C902 H942 0.951 . S
C903 C902 1.340 . S
C903 C904 1.439 . S
C903 H943 0.950 . S
C904 C903 1.439 . S
C904 N905 1.374 . S
C904 C938 1.395 . S
N905 C901 1.376 . S
N905 C904 1.374 . S
N905 Co906 2.008 . S
Co906 N905 2.008 . S
Co906 N907 1.995 . S
Co906 N912 2.008 . S
Co906 N917 1.995 . S
Co906 N922 2.282 . S
Co906 N928 2.282 . S
N907 Co906 1.995 . S
N907 C908 1.376 . S
N907 C911 1.383 . S
C908 N907 1.376 . S
C908 C909 1.446 . S
C908 C938 1.391 . S
C909 C908 1.446 . S
C909 C910 1.339 . S
C909 H944 0.949 . S
C910 C909 1.339 . S
C910 C911 1.439 . S
C910 H945 0.950 . S
C911 N907 1.383 . S
C911 C910 1.439 . S
C911 C940 1.392 . S
N912 Co906 2.008 . S
N912 C913 1.376 . S
N912 C916 1.374 . S
C913 N912 1.376 . S
C913 C914 1.443 . S
C913 C940 1.389 . S
C914 C913 1.443 . S
C914 C915 1.340 . S
C914 H946 0.951 . S
C915 C914 1.340 . S
C915 C916 1.439 . S
C915 H947 0.950 1_565 S
C916 N912 1.374 . S
C916 C915 1.439 . S
C916 C941 1.395 . S
N917 Co906 1.995 . S
N917 C918 1.376 . S
N917 C921 1.383 . S
C918 N917 1.376 . S
C918 C919 1.446 . S
C918 C941 1.391 . S
C919 C918 1.446 . S
C919 C920 1.339 . S
C919 H948 0.949 . S
C920 C919 1.339 . S
C920 C921 1.439 . S
C920 H949 0.950 . S
C921 N917 1.383 . S
C921 C920 1.439 . S
C921 C939 1.392 . S
N922 Co906 2.282 . S
N922 C925 1.332 . S
N922 C927 1.332 . S
C923 C924 1.386 . S
C923 C926 1.388 . S
C924 C923 1.386 . S
C924 C925 1.382 . S
C924 H950 0.950 . S
C925 N922 1.332 . S
C925 C924 1.382 . S
C925 H936 0.952 . S
C926 C923 1.388 . S
C926 C927 1.382 . S
C926 H951 0.950 . S
C927 N922 1.332 . S
C927 C926 1.382 . S
C927 H937 0.948 . S
N928 Co906 2.282 . S
N928 C932 1.332 . S
N928 C933 1.332 . S
C929 C930 1.388 . S
C929 C933 1.382 . S
C929 H952 0.950 . S
C930 C929 1.388 . S
C930 C931 1.386 . S
C931 C930 1.386 . S
C931 C932 1.382 . S
C931 H953 0.950 . S
C932 N928 1.332 . S
C932 C931 1.382 . S
C932 H934 0.952 . S
C933 N928 1.332 . S
C933 C929 1.382 . S
C933 H935 0.948 . S
H934 C932 0.952 . S
H935 C933 0.948 . S
H936 C925 0.952 . S
H937 C927 0.948 . S
C938 C904 1.395 . S
C938 C908 1.391 . S
C939 C901 1.389 . S
C939 C921 1.392 . S
C940 C911 1.392 . S
C940 C913 1.389 . S
C941 C916 1.395 . S
C941 C918 1.391 . S
H942 C902 0.951 . S
H943 C903 0.950 . S
H944 C909 0.949 . S
H945 C910 0.950 . S
H946 C914 0.951 . S
H947 C915 0.950 1_545 S
H948 C919 0.949 . S
H949 C920 0.950 . S
H950 C924 0.950 . S
H951 C926 0.950 . S
H952 C929 0.950 . S
H953 C931 0.950 . S
C954 C955 1.443 . S
C954 N958 1.376 . S
C954 C992 1.389 . S
C955 C954 1.443 . S
C955 C956 1.340 . S
C955 H995 0.951 . S
C956 C955 1.340 . S
C956 C957 1.439 . S
C956 H996 0.950 . S
C957 C956 1.439 . S
C957 N958 1.374 . S
C957 C991 1.395 . S
N958 C954 1.376 . S
N958 C957 1.374 . S
N958 Co959 2.008 . S
Co959 N958 2.008 . S
Co959 N960 1.995 . S
Co959 N965 2.008 . S
Co959 N970 1.995 . S
Co959 N975 2.282 . S
Co959 N981 2.282 . S
N960 Co959 1.995 . S
N960 C961 1.376 . S
N960 C964 1.383 . S
C961 N960 1.376 . S
C961 C962 1.446 . S
C961 C991 1.391 . S
C962 C961 1.446 . S
C962 C963 1.339 . S
C962 H997 0.949 . S
C963 C962 1.339 . S
C963 C964 1.439 . S
C963 H998 0.950 . S
C964 N960 1.383 . S
C964 C963 1.439 . S
C964 C993 1.392 . S
N965 Co959 2.008 . S
N965 C966 1.376 . S
N965 C969 1.374 . S
C966 N965 1.376 . S
C966 C967 1.443 . S
C966 C993 1.389 . S
C967 C966 1.443 . S
C967 C968 1.340 . S
C967 H999 0.951 . S
C968 C967 1.340 . S
C968 C969 1.439 . S
C968 H1000 0.950 1_565 S
C969 N965 1.374 . S
C969 C968 1.439 . S
C969 C994 1.395 . S
N970 Co959 1.995 . S
N970 C971 1.376 . S
N970 C974 1.383 . S
C971 N970 1.376 . S
C971 C972 1.446 . S
C971 C994 1.391 . S
C972 C971 1.446 . S
C972 C973 1.339 . S
C972 H1001 0.949 . S
C973 C972 1.339 . S
C973 C974 1.439 . S
C973 H1002 0.950 . S
C974 N970 1.383 . S
C974 C973 1.439 . S
C974 C992 1.392 . S
N975 Co959 2.282 . S
N975 C978 1.332 . S
N975 C980 1.332 . S
C976 C977 1.386 . S
C976 C979 1.388 . S
C977 C976 1.386 . S
C977 C978 1.382 . S
C977 H1003 0.950 . S
C978 N975 1.332 . S
C978 C977 1.382 . S
C978 H989 0.952 . S
C979 C976 1.388 . S
C979 C980 1.382 . S
C979 H1004 0.950 . S
C980 N975 1.332 . S
C980 C979 1.382 . S
C980 H990 0.948 . S
N981 Co959 2.282 . S
N981 C985 1.332 . S
N981 C986 1.332 . S
C982 C983 1.388 . S
C982 C986 1.382 . S
C982 H1005 0.950 . S
C983 C982 1.388 . S
C983 C984 1.386 . S
C984 C983 1.386 . S
C984 C985 1.382 . S
C984 H1006 0.950 . S
C985 N981 1.332 . S
C985 C984 1.382 . S
C985 H987 0.952 . S
C986 N981 1.332 . S
C986 C982 1.382 . S
C986 H988 0.948 . S
H987 C985 0.952 . S
H988 C986 0.948 . S
H989 C978 0.952 . S
H990 C980 0.948 . S
C991 C957 1.395 . S
C991 C961 1.391 . S
C992 C954 1.389 . S
C992 C974 1.392 . S
C993 C964 1.392 . S
C993 C966 1.389 . S
C994 C969 1.395 . S
C994 C971 1.391 . S
H995 C955 0.951 . S
H996 C956 0.950 . S
H997 C962 0.949 . S
H998 C963 0.950 . S
H999 C967 0.951 . S
H1000 C968 0.950 1_545 S
H1001 C972 0.949 . S
H1002 C973 0.950 . S
H1003 C977 0.950 . S
H1004 C979 0.950 . S
H1005 C982 0.950 . S
H1006 C984 0.950 . S
C1007 C1008 1.443 . S
C1007 N1011 1.376 . S
C1007 C1045 1.389 . S
C1008 C1007 1.443 . S
C1008 C1009 1.340 . S
C1008 H1048 0.951 . S
C1009 C1008 1.340 . S
C1009 C1010 1.439 . S
C1009 H1049 0.950 . S
C1010 C1009 1.439 . S
C1010 N1011 1.374 . S
C1010 C1044 1.395 . S
N1011 C1007 1.376 . S
N1011 C1010 1.374 . S
N1011 Co1012 2.008 . S
Co1012 N1011 2.008 . S
Co1012 N1013 1.995 . S
Co1012 N1018 2.008 . S
Co1012 N1023 1.995 . S
Co1012 N1028 2.282 . S
Co1012 N1034 2.282 . S
N1013 Co1012 1.995 . S
N1013 C1014 1.376 . S
N1013 C1017 1.383 . S
C1014 N1013 1.376 . S
C1014 C1015 1.446 . S
C1014 C1044 1.391 . S
C1015 C1014 1.446 . S
C1015 C1016 1.339 . S
C1015 H1050 0.949 . S
C1016 C1015 1.339 . S
C1016 C1017 1.439 . S
C1016 H1051 0.950 . S
C1017 N1013 1.383 . S
C1017 C1016 1.439 . S
C1017 C1046 1.392 . S
N1018 Co1012 2.008 . S
N1018 C1019 1.376 . S
N1018 C1022 1.374 . S
C1019 N1018 1.376 . S
C1019 C1020 1.443 . S
C1019 C1046 1.389 . S
C1020 C1019 1.443 . S
C1020 C1021 1.340 . S
C1020 H1052 0.951 . S
C1021 C1020 1.340 . S
C1021 C1022 1.439 . S
C1021 H1053 0.950 . S
C1022 N1018 1.374 . S
C1022 C1021 1.439 . S
C1022 C1047 1.395 . S
N1023 Co1012 1.995 . S
N1023 C1024 1.376 . S
N1023 C1027 1.383 . S
C1024 N1023 1.376 . S
C1024 C1025 1.446 . S
C1024 C1047 1.391 . S
C1025 C1024 1.446 . S
C1025 C1026 1.339 . S
C1025 H1054 0.949 . S
C1026 C1025 1.339 . S
C1026 C1027 1.439 . S
C1026 H1055 0.950 . S
C1027 N1023 1.383 . S
C1027 C1026 1.439 . S
C1027 C1045 1.392 . S
N1028 Co1012 2.282 . S
N1028 C1031 1.332 . S
N1028 C1033 1.332 . S
C1029 C1030 1.386 . S
C1029 C1032 1.388 . S
C1030 C1029 1.386 . S
C1030 C1031 1.382 . S
C1030 H1056 0.950 . S
C1031 N1028 1.332 . S
C1031 C1030 1.382 . S
C1031 H1042 0.952 . S
C1032 C1029 1.388 . S
C1032 C1033 1.382 . S
C1032 H1057 0.950 . S
C1033 N1028 1.332 . S
C1033 C1032 1.382 . S
C1033 H1043 0.948 . S
N1034 Co1012 2.282 . S
N1034 C1038 1.332 . S
N1034 C1039 1.332 . S
C1035 C1036 1.388 . S
C1035 C1039 1.382 . S
C1035 H1058 0.950 . S
C1036 C1035 1.388 . S
C1036 C1037 1.386 . S
C1037 C1036 1.386 . S
C1037 C1038 1.382 . S
C1037 H1059 0.950 . S
C1038 N1034 1.332 . S
C1038 C1037 1.382 . S
C1038 H1040 0.952 . S
C1039 N1034 1.332 . S
C1039 C1035 1.382 . S
C1039 H1041 0.948 . S
H1040 C1038 0.952 . S
H1041 C1039 0.948 . S
H1042 C1031 0.952 . S
H1043 C1033 0.948 . S
C1044 C1010 1.395 . S
C1044 C1014 1.391 . S
C1045 C1007 1.389 . S
C1045 C1027 1.392 . S
C1046 C1017 1.392 . S
C1046 C1019 1.389 . S
C1047 C1022 1.395 . S
C1047 C1024 1.391 . S
H1048 C1008 0.951 . S
H1049 C1009 0.950 . S
H1050 C1015 0.949 . S
H1051 C1016 0.950 . S
H1052 C1020 0.951 . S
H1053 C1021 0.950 . S
H1054 C1025 0.949 . S
H1055 C1026 0.950 . S
H1056 C1030 0.950 . S
H1057 C1032 0.950 . S
H1058 C1035 0.950 . S
H1059 C1037 0.950 . S
C1060 C1061 1.443 . S
C1060 N1064 1.376 . S
C1060 C1098 1.389 . S
C1061 C1060 1.443 . S
C1061 C1062 1.340 . S
C1061 H1101 0.951 . S
C1062 C1061 1.340 . S
C1062 C1063 1.439 . S
C1062 H1102 0.950 . S
C1063 C1062 1.439 . S
C1063 N1064 1.374 . S
C1063 C1097 1.395 . S
N1064 C1060 1.376 . S
N1064 C1063 1.374 . S
N1064 Co1065 2.008 . S
Co1065 N1064 2.008 . S
Co1065 N1066 1.995 . S
Co1065 N1071 2.008 . S
Co1065 N1076 1.995 . S
Co1065 N1081 2.282 . S
Co1065 N1087 2.282 . S
N1066 Co1065 1.995 . S
N1066 C1067 1.376 . S
N1066 C1070 1.383 . S
C1067 N1066 1.376 . S
C1067 C1068 1.446 . S
C1067 C1097 1.391 . S
C1068 C1067 1.446 . S
C1068 C1069 1.339 . S
C1068 H1103 0.949 . S
C1069 C1068 1.339 . S
C1069 C1070 1.439 . S
C1069 H1104 0.950 . S
C1070 N1066 1.383 . S
C1070 C1069 1.439 . S
C1070 C1099 1.392 . S
N1071 Co1065 2.008 . S
N1071 C1072 1.376 . S
N1071 C1075 1.374 . S
C1072 N1071 1.376 . S
C1072 C1073 1.443 . S
C1072 C1099 1.389 . S
C1073 C1072 1.443 . S
C1073 C1074 1.340 . S
C1073 H1105 0.951 . S
C1074 C1073 1.340 . S
C1074 C1075 1.439 . S
C1074 H1106 0.950 . S
C1075 N1071 1.374 . S
C1075 C1074 1.439 . S
C1075 C1100 1.395 . S
N1076 Co1065 1.995 . S
N1076 C1077 1.376 . S
N1076 C1080 1.383 . S
C1077 N1076 1.376 . S
C1077 C1078 1.446 . S
C1077 C1100 1.391 . S
C1078 C1077 1.446 . S
C1078 C1079 1.339 . S
C1078 H1107 0.949 . S
C1079 C1078 1.339 . S
C1079 C1080 1.439 . S
C1079 H1108 0.950 . S
C1080 N1076 1.383 . S
C1080 C1079 1.439 . S
C1080 C1098 1.392 . S
N1081 Co1065 2.282 . S
N1081 C1084 1.332 . S
N1081 C1086 1.332 . S
C1082 C1083 1.386 . S
C1082 C1085 1.388 . S
C1083 C1082 1.386 . S
C1083 C1084 1.382 . S
C1083 H1109 0.950 . S
C1084 N1081 1.332 . S
C1084 C1083 1.382 . S
C1084 H1095 0.952 . S
C1085 C1082 1.388 . S
C1085 C1086 1.382 . S
C1085 H1110 0.950 . S
C1086 N1081 1.332 . S
C1086 C1085 1.382 . S
C1086 H1096 0.948 . S
N1087 Co1065 2.282 . S
N1087 C1091 1.332 . S
N1087 C1092 1.332 . S
C1088 C1089 1.388 . S
C1088 C1092 1.382 . S
C1088 H1111 0.950 . S
C1089 C1088 1.388 . S
C1089 C1090 1.386 . S
C1090 C1089 1.386 . S
C1090 C1091 1.382 . S
C1090 H1112 0.950 . S
C1091 N1087 1.332 . S
C1091 C1090 1.382 . S
C1091 H1093 0.952 . S
C1092 N1087 1.332 . S
C1092 C1088 1.382 . S
C1092 H1094 0.948 . S
H1093 C1091 0.952 . S
H1094 C1092 0.948 . S
H1095 C1084 0.952 . S
H1096 C1086 0.948 . S
C1097 C1063 1.395 . S
C1097 C1067 1.391 . S
C1098 C1060 1.389 . S
C1098 C1080 1.392 . S
C1099 C1070 1.392 . S
C1099 C1072 1.389 . S
C1100 C1075 1.395 . S
C1100 C1077 1.391 . S
H1101 C1061 0.951 . S
H1102 C1062 0.950 . S
H1103 C1068 0.949 . S
H1104 C1069 0.950 . S
H1105 C1073 0.951 . S
H1106 C1074 0.950 . S
H1107 C1078 0.949 . S
H1108 C1079 0.950 . S
H1109 C1083 0.950 . S
H1110 C1085 0.950 . S
H1111 C1088 0.950 . S
H1112 C1090 0.950 . S
C1113 C1114 1.443 . S
C1113 N1117 1.376 . S
C1113 C1151 1.389 . S
C1114 C1113 1.443 . S
C1114 C1115 1.340 . S
C1114 H1154 0.951 . S
C1115 C1114 1.340 . S
C1115 C1116 1.439 . S
C1115 H1155 0.950 . S
C1116 C1115 1.439 . S
C1116 N1117 1.374 . S
C1116 C1150 1.395 . S
N1117 C1113 1.376 . S
N1117 C1116 1.374 . S
N1117 Co1118 2.008 . S
Co1118 N1117 2.008 . S
Co1118 N1119 1.995 . S
Co1118 N1124 2.008 . S
Co1118 N1129 1.995 . S
Co1118 N1134 2.282 . S
Co1118 N1140 2.282 . S
N1119 Co1118 1.995 . S
N1119 C1120 1.376 . S
N1119 C1123 1.383 . S
C1120 N1119 1.376 . S
C1120 C1121 1.446 . S
C1120 C1150 1.391 . S
C1121 C1120 1.446 . S
C1121 C1122 1.339 . S
C1121 H1156 0.988 . S
C1122 C1121 1.339 . S
C1122 C1123 1.439 . S
C1122 H1157 0.950 . S
C1123 N1119 1.383 . S
C1123 C1122 1.439 . S
C1123 C1152 1.392 . S
N1124 Co1118 2.008 . S
N1124 C1125 1.376 . S
N1124 C1128 1.374 . S
C1125 N1124 1.376 . S
C1125 C1126 1.443 . S
C1125 C1152 1.389 . S
C1126 C1125 1.443 . S
C1126 C1127 1.340 . S
C1126 H1158 0.951 . S
C1127 C1126 1.340 . S
C1127 C1128 1.439 . S
C1127 H1159 0.950 . S
C1128 N1124 1.374 . S
C1128 C1127 1.439 . S
C1128 C1153 1.395 . S
N1129 Co1118 1.995 . S
N1129 C1130 1.376 . S
N1129 C1133 1.383 . S
C1130 N1129 1.376 . S
C1130 C1131 1.446 . S
C1130 C1153 1.391 . S
C1131 C1130 1.446 . S
C1131 C1132 1.339 . S
C1131 H1160 0.949 . S
C1132 C1131 1.339 . S
C1132 C1133 1.439 . S
C1132 H1161 0.950 . S
C1133 N1129 1.383 . S
C1133 C1132 1.439 . S
C1133 C1151 1.392 . S
N1134 Co1118 2.282 . S
N1134 C1137 1.332 . S
N1134 C1139 1.332 . S
C1135 C1136 1.386 . S
C1135 C1138 1.388 . S
C1136 C1135 1.386 . S
C1136 C1137 1.382 . S
C1136 H1162 0.950 . S
C1137 N1134 1.332 . S
C1137 C1136 1.382 . S
C1137 H1148 0.952 . S
C1138 C1135 1.388 . S
C1138 C1139 1.382 . S
C1138 H1163 0.950 . S
C1139 N1134 1.332 . S
C1139 C1138 1.382 . S
C1139 H1149 0.948 . S
N1140 Co1118 2.282 . S
N1140 C1144 1.332 . S
N1140 C1145 1.332 . S
C1141 C1142 1.388 . S
C1141 C1145 1.382 . S
C1141 H1164 0.950 . S
C1142 C1141 1.388 . S
C1142 C1143 1.386 . S
C1143 C1142 1.386 . S
C1143 C1144 1.382 . S
C1143 H1165 0.950 . S
C1144 N1140 1.332 . S
C1144 C1143 1.382 . S
C1144 H1146 0.952 . S
C1145 N1140 1.332 . S
C1145 C1141 1.382 . S
C1145 H1147 0.948 . S
H1146 C1144 0.952 . S
H1147 C1145 0.948 . S
H1148 C1137 0.952 . S
H1149 C1139 0.948 . S
C1150 C1116 1.395 . S
C1150 C1120 1.391 . S
C1151 C1113 1.389 . S
C1151 C1133 1.392 . S
C1152 C1123 1.392 . S
C1152 C1125 1.389 . S
C1153 C1128 1.395 . S
C1153 C1130 1.391 . S
H1154 C1114 0.951 . S
H1155 C1115 0.950 . S
H1156 C1121 0.988 . S
H1157 C1122 0.950 . S
H1158 C1126 0.951 . S
H1159 C1127 0.950 . S
H1160 C1131 0.949 . S
H1161 C1132 0.950 . S
H1162 C1136 0.950 . S
H1163 C1138 0.950 . S
H1164 C1141 0.950 . S
H1165 C1143 0.950 . S
C1166 C1167 1.443 . S
C1166 N1170 1.376 . S
C1166 C1204 1.389 . S
C1167 C1166 1.443 . S
C1167 C1168 1.340 . S
C1167 H1207 0.951 . S
C1168 C1167 1.340 . S
C1168 C1169 1.439 . S
C1168 H1208 0.950 . S
C1169 C1168 1.439 . S
C1169 N1170 1.374 . S
C1169 C1203 1.395 . S
N1170 C1166 1.376 . S
N1170 C1169 1.374 . S
N1170 Co1171 2.008 . S
Co1171 N1170 2.008 . S
Co1171 N1172 1.995 . S
Co1171 N1177 2.008 . S
Co1171 N1182 1.995 . S
Co1171 N1187 2.282 . S
Co1171 N1193 2.282 . S
N1172 Co1171 1.995 . S
N1172 C1173 1.376 . S
N1172 C1176 1.383 . S
C1173 N1172 1.376 . S
C1173 C1174 1.446 . S
C1173 C1203 1.391 . S
C1174 C1173 1.446 . S
C1174 C1175 1.339 . S
C1174 H1209 0.988 . S
C1175 C1174 1.339 . S
C1175 C1176 1.439 . S
C1175 H1210 0.950 . S
C1176 N1172 1.383 . S
C1176 C1175 1.439 . S
C1176 C1205 1.392 . S
N1177 Co1171 2.008 . S
N1177 C1178 1.376 . S
N1177 C1181 1.374 . S
C1178 N1177 1.376 . S
C1178 C1179 1.443 . S
C1178 C1205 1.389 . S
C1179 C1178 1.443 . S
C1179 C1180 1.340 . S
C1179 H1211 0.951 . S
C1180 C1179 1.340 . S
C1180 C1181 1.439 . S
C1180 H1212 0.950 . S
C1181 N1177 1.374 . S
C1181 C1180 1.439 . S
C1181 C1206 1.395 . S
N1182 Co1171 1.995 . S
N1182 C1183 1.376 . S
N1182 C1186 1.383 . S
C1183 N1182 1.376 . S
C1183 C1184 1.446 . S
C1183 C1206 1.391 . S
C1184 C1183 1.446 . S
C1184 C1185 1.339 . S
C1184 H1213 0.949 . S
C1185 C1184 1.339 . S
C1185 C1186 1.439 . S
C1185 H1214 0.950 . S
C1186 N1182 1.383 . S
C1186 C1185 1.439 . S
C1186 C1204 1.392 . S
N1187 Co1171 2.282 . S
N1187 C1190 1.332 . S
N1187 C1192 1.332 . S
C1188 C1189 1.386 . S
C1188 C1191 1.388 . S
C1189 C1188 1.386 . S
C1189 C1190 1.382 . S
C1189 H1215 0.950 . S
C1190 N1187 1.332 . S
C1190 C1189 1.382 . S
C1190 H1201 0.952 . S
C1191 C1188 1.388 . S
C1191 C1192 1.382 . S
C1191 H1216 0.950 . S
C1192 N1187 1.332 . S
C1192 C1191 1.382 . S
C1192 H1202 0.948 . S
N1193 Co1171 2.282 . S
N1193 C1197 1.332 . S
N1193 C1198 1.332 . S
C1194 C1195 1.388 . S
C1194 C1198 1.382 . S
C1194 H1217 0.950 . S
C1195 C1194 1.388 . S
C1195 C1196 1.386 . S
C1196 C1195 1.386 . S
C1196 C1197 1.382 . S
C1196 H1218 0.950 . S
C1197 N1193 1.332 . S
C1197 C1196 1.382 . S
C1197 H1199 0.952 . S
C1198 N1193 1.332 . S
C1198 C1194 1.382 . S
C1198 H1200 0.948 . S
H1199 C1197 0.952 . S
H1200 C1198 0.948 . S
H1201 C1190 0.952 . S
H1202 C1192 0.948 . S
C1203 C1169 1.395 . S
C1203 C1173 1.391 . S
C1204 C1166 1.389 . S
C1204 C1186 1.392 . S
C1205 C1176 1.392 . S
C1205 C1178 1.389 . S
C1206 C1181 1.395 . S
C1206 C1183 1.391 . S
H1207 C1167 0.951 . S
H1208 C1168 0.950 . S
H1209 C1174 0.988 . S
H1210 C1175 0.950 . S
H1211 C1179 0.951 . S
H1212 C1180 0.950 . S
H1213 C1184 0.949 . S
H1214 C1185 0.950 . S
H1215 C1189 0.950 . S
H1216 C1191 0.950 . S
H1217 C1194 0.950 . S
H1218 C1196 0.950 . S
C1219 C1220 1.443 . S
C1219 N1223 1.376 . S
C1219 C1257 1.389 . S
C1220 C1219 1.443 . S
C1220 C1221 1.340 . S
C1220 H1260 0.951 . S
C1221 C1220 1.340 . S
C1221 C1222 1.439 . S
C1221 H1261 0.950 . S
C1222 C1221 1.439 . S
C1222 N1223 1.374 . S
C1222 C1256 1.395 . S
N1223 C1219 1.376 . S
N1223 C1222 1.374 . S
N1223 Co1224 2.008 . S
Co1224 N1223 2.008 . S
Co1224 N1225 1.995 . S
Co1224 N1230 2.008 . S
Co1224 N1235 1.995 . S
Co1224 N1240 2.282 . S
Co1224 N1246 2.282 . S
N1225 Co1224 1.995 . S
N1225 C1226 1.376 . S
N1225 C1229 1.383 . S
C1226 N1225 1.376 . S
C1226 C1227 1.446 . S
C1226 C1256 1.391 . S
C1227 C1226 1.446 . S
C1227 C1228 1.339 . S
C1227 H1262 0.949 . S
C1228 C1227 1.339 . S
C1228 C1229 1.439 . S
C1228 H1263 0.950 . S
C1229 N1225 1.383 . S
C1229 C1228 1.439 . S
C1229 C1258 1.392 . S
N1230 Co1224 2.008 . S
N1230 C1231 1.376 . S
N1230 C1234 1.374 . S
C1231 N1230 1.376 . S
C1231 C1232 1.443 . S
C1231 C1258 1.389 . S
C1232 C1231 1.443 . S
C1232 C1233 1.340 . S
C1232 H1264 0.951 . S
C1233 C1232 1.340 . S
C1233 C1234 1.439 . S
C1233 H1265 0.950 . S
C1234 N1230 1.374 . S
C1234 C1233 1.439 . S
C1234 C1259 1.395 . S
N1235 Co1224 1.995 . S
N1235 C1236 1.376 . S
N1235 C1239 1.383 . S
C1236 N1235 1.376 . S
C1236 C1237 1.446 . S
C1236 C1259 1.391 . S
C1237 C1236 1.446 . S
C1237 C1238 1.339 . S
C1237 H1266 0.949 . S
C1238 C1237 1.339 . S
C1238 C1239 1.439 . S
C1238 H1267 0.950 . S
C1239 N1235 1.383 . S
C1239 C1238 1.439 . S
C1239 C1257 1.392 . S
N1240 Co1224 2.282 . S
N1240 C1243 1.332 . S
N1240 C1245 1.332 . S
C1241 C1242 1.386 . S
C1241 C1244 1.388 . S
C1242 C1241 1.386 . S
C1242 C1243 1.382 . S
C1242 H1268 0.950 . S
C1243 N1240 1.332 . S
C1243 C1242 1.382 . S
C1243 H1254 0.952 . S
C1244 C1241 1.388 . S
C1244 C1245 1.382 . S
C1244 H1269 0.950 . S
C1245 N1240 1.332 . S
C1245 C1244 1.382 . S
C1245 H1255 0.948 . S
N1246 Co1224 2.282 . S
N1246 C1250 1.332 . S
N1246 C1251 1.332 . S
C1247 C1248 1.388 . S
C1247 C1251 1.382 . S
C1247 H1270 0.950 . S
C1248 C1247 1.388 . S
C1248 C1249 1.386 . S
C1249 C1248 1.386 . S
C1249 C1250 1.382 . S
C1249 H1271 0.950 . S
C1250 N1246 1.332 . S
C1250 C1249 1.382 . S
C1250 H1252 0.952 . S
C1251 N1246 1.332 . S
C1251 C1247 1.382 . S
C1251 H1253 0.948 . S
H1252 C1250 0.952 . S
H1253 C1251 0.948 . S
H1254 C1243 0.952 . S
H1255 C1245 0.948 . S
C1256 C1222 1.395 . S
C1256 C1226 1.391 . S
C1257 C1219 1.389 . S
C1257 C1239 1.392 . S
C1258 C1229 1.392 . S
C1258 C1231 1.389 . S
C1259 C1234 1.395 . S
C1259 C1236 1.391 . S
H1260 C1220 0.951 . S
H1261 C1221 0.950 . S
H1262 C1227 0.949 . S
H1263 C1228 0.950 . S
H1264 C1232 0.951 . S
H1265 C1233 0.950 . S
H1266 C1237 0.949 . S
H1267 C1238 0.950 . S
H1268 C1242 0.950 . S
H1269 C1244 0.950 . S
H1270 C1247 0.950 . S
H1271 C1249 0.950 . S
C1272 C1273 1.443 . S
C1272 N1276 1.376 . S
C1272 C1310 1.389 . S
C1273 C1272 1.443 . S
C1273 C1274 1.340 . S
C1273 H1313 0.951 . S
C1274 C1273 1.340 . S
C1274 C1275 1.439 . S
C1274 H1314 0.950 . S
C1275 C1274 1.439 . S
C1275 N1276 1.374 . S
C1275 C1309 1.395 . S
N1276 C1272 1.376 . S
N1276 C1275 1.374 . S
N1276 Co1277 2.008 . S
Co1277 N1276 2.008 . S
Co1277 N1278 1.995 . S
Co1277 N1283 2.008 . S
Co1277 N1288 1.995 . S
Co1277 N1293 2.282 . S
Co1277 N1299 2.282 . S
N1278 Co1277 1.995 . S
N1278 C1279 1.376 . S
N1278 C1282 1.383 . S
C1279 N1278 1.376 . S
C1279 C1280 1.446 . S
C1279 C1309 1.391 . S
C1280 C1279 1.446 . S
C1280 C1281 1.339 . S
C1280 H1315 0.949 . S
C1281 C1280 1.339 . S
C1281 C1282 1.439 . S
C1281 H1316 0.950 . S
C1282 N1278 1.383 . S
C1282 C1281 1.439 . S
C1282 C1311 1.392 . S
N1283 Co1277 2.008 . S
N1283 C1284 1.376 . S
N1283 C1287 1.374 . S
C1284 N1283 1.376 . S
C1284 C1285 1.443 . S
C1284 C1311 1.389 . S
C1285 C1284 1.443 . S
C1285 C1286 1.340 . S
C1285 H1317 0.951 . S
C1286 C1285 1.340 . S
C1286 C1287 1.439 . S
C1286 H1318 0.950 . S
C1287 N1283 1.374 . S
C1287 C1286 1.439 . S
C1287 C1312 1.395 . S
N1288 Co1277 1.995 . S
N1288 C1289 1.376 . S
N1288 C1292 1.383 . S
C1289 N1288 1.376 . S
C1289 C1290 1.446 . S
C1289 C1312 1.391 . S
C1290 C1289 1.446 . S
C1290 C1291 1.339 . S
C1290 H1319 0.949 . S
C1291 C1290 1.339 . S
C1291 C1292 1.439 . S
C1291 H1320 0.950 . S
C1292 N1288 1.383 . S
C1292 C1291 1.439 . S
C1292 C1310 1.392 . S
N1293 Co1277 2.282 . S
N1293 C1296 1.332 . S
N1293 C1298 1.332 . S
C1294 C1295 1.386 . S
C1294 C1297 1.388 . S
C1295 C1294 1.386 . S
C1295 C1296 1.382 . S
C1295 H1321 0.950 . S
C1296 N1293 1.332 . S
C1296 C1295 1.382 . S
C1296 H1307 0.952 . S
C1297 C1294 1.388 . S
C1297 C1298 1.382 . S
C1297 H1322 0.950 . S
C1298 N1293 1.332 . S
C1298 C1297 1.382 . S
C1298 H1308 0.948 . S
N1299 Co1277 2.282 . S
N1299 C1303 1.332 . S
N1299 C1304 1.332 . S
C1300 C1301 1.388 . S
C1300 C1304 1.382 . S
C1300 H1323 0.950 . S
C1301 C1300 1.388 . S
C1301 C1302 1.386 . S
C1302 C1301 1.386 . S
C1302 C1303 1.382 . S
C1302 H1324 0.950 . S
C1303 N1299 1.332 . S
C1303 C1302 1.382 . S
C1303 H1305 0.952 . S
C1304 N1299 1.332 . S
C1304 C1300 1.382 . S
C1304 H1306 0.948 . S
H1305 C1303 0.952 . S
H1306 C1304 0.948 . S
H1307 C1296 0.952 . S
H1308 C1298 0.948 . S
C1309 C1275 1.395 . S
C1309 C1279 1.391 . S
C1310 C1272 1.389 . S
C1310 C1292 1.392 . S
C1311 C1282 1.392 . S
C1311 C1284 1.389 . S
C1312 C1287 1.395 . S
C1312 C1289 1.391 . S
H1313 C1273 0.951 . S
H1314 C1274 0.950 . S
H1315 C1280 0.949 . S
H1316 C1281 0.950 . S
H1317 C1285 0.951 . S
H1318 C1286 0.950 . S
H1319 C1290 0.949 . S
H1320 C1291 0.950 . S
H1321 C1295 0.950 . S
H1322 C1297 0.950 . S
H1323 C1300 0.950 . S
H1324 C1302 0.950 . S
C1325 C1326 1.443 . S
C1325 N1329 1.376 . S
C1325 C1363 1.389 . S
C1326 C1325 1.443 . S
C1326 C1327 1.340 . S
C1326 H1366 0.951 . S
C1327 C1326 1.340 . S
C1327 C1328 1.439 . S
C1327 H1367 0.950 . S
C1328 C1327 1.439 . S
C1328 N1329 1.374 . S
C1328 C1362 1.395 . S
N1329 C1325 1.376 . S
N1329 C1328 1.374 . S
N1329 Co1330 2.008 . S
Co1330 N1329 2.008 . S
Co1330 N1331 1.995 . S
Co1330 N1336 2.008 . S
Co1330 N1341 1.995 . S
Co1330 N1346 2.282 . S
Co1330 N1352 2.282 . S
N1331 Co1330 1.995 . S
N1331 C1332 1.376 . S
N1331 C1335 1.383 . S
C1332 N1331 1.376 . S
C1332 C1333 1.446 . S
C1332 C1362 1.391 . S
C1333 C1332 1.446 . S
C1333 C1334 1.339 . S
C1333 H1368 0.949 . S
C1334 C1333 1.339 . S
C1334 C1335 1.439 . S
C1334 H1369 0.950 . S
C1335 N1331 1.383 . S
C1335 C1334 1.439 . S
C1335 C1364 1.392 . S
N1336 Co1330 2.008 . S
N1336 C1337 1.376 . S
N1336 C1340 1.374 . S
C1337 N1336 1.376 . S
C1337 C1338 1.443 . S
C1337 C1364 1.389 . S
C1338 C1337 1.443 . S
C1338 C1339 1.340 . S
C1338 H1370 0.951 . S
C1339 C1338 1.340 . S
C1339 C1340 1.439 . S
C1339 H1371 0.950 . S
C1340 N1336 1.374 . S
C1340 C1339 1.439 . S
C1340 C1365 1.395 . S
N1341 Co1330 1.995 . S
N1341 C1342 1.376 . S
N1341 C1345 1.383 . S
C1342 N1341 1.376 . S
C1342 C1343 1.446 . S
C1342 C1365 1.391 . S
C1343 C1342 1.446 . S
C1343 C1344 1.339 . S
C1343 H1372 0.949 . S
C1344 C1343 1.339 . S
C1344 C1345 1.439 . S
C1344 H1373 0.950 . S
C1345 N1341 1.383 . S
C1345 C1344 1.439 . S
C1345 C1363 1.392 . S
N1346 Co1330 2.282 . S
N1346 C1349 1.332 . S
N1346 C1351 1.332 . S
C1347 C1348 1.386 . S
C1347 C1350 1.388 . S
C1348 C1347 1.386 . S
C1348 C1349 1.382 . S
C1348 H1374 0.950 . S
C1349 N1346 1.332 . S
C1349 C1348 1.382 . S
C1349 H1360 0.952 . S
C1350 C1347 1.388 . S
C1350 C1351 1.382 . S
C1350 H1375 0.950 . S
C1351 N1346 1.332 . S
C1351 C1350 1.382 . S
C1351 H1361 0.948 . S
N1352 Co1330 2.282 . S
N1352 C1356 1.332 . S
N1352 C1357 1.332 . S
C1353 C1354 1.388 . S
C1353 C1357 1.382 . S
C1353 H1376 0.950 . S
C1354 C1353 1.388 . S
C1354 C1355 1.386 . S
C1355 C1354 1.386 . S
C1355 C1356 1.382 . S
C1355 H1377 0.950 . S
C1356 N1352 1.332 . S
C1356 C1355 1.382 . S
C1356 H1358 0.952 . S
C1357 N1352 1.332 . S
C1357 C1353 1.382 . S
C1357 H1359 0.948 . S
H1358 C1356 0.952 . S
H1359 C1357 0.948 . S
H1360 C1349 0.952 . S
H1361 C1351 0.948 . S
C1362 C1328 1.395 . S
C1362 C1332 1.391 . S
C1363 C1325 1.389 . S
C1363 C1345 1.392 . S
C1364 C1335 1.392 . S
C1364 C1337 1.389 . S
C1365 C1340 1.395 . S
C1365 C1342 1.391 . S
H1366 C1326 0.951 . S
H1367 C1327 0.950 . S
H1368 C1333 0.949 . S
H1369 C1334 0.950 . S
H1370 C1338 0.951 . S
H1371 C1339 0.950 . S
H1372 C1343 0.949 . S
H1373 C1344 0.950 . S
H1374 C1348 0.950 . S
H1375 C1350 0.950 . S
H1376 C1353 0.950 . S
H1377 C1355 0.950 . S
C1378 C1379 1.443 . S
C1378 N1382 1.376 . S
C1378 C1416 1.389 . S
C1379 C1378 1.443 . S
C1379 C1380 1.340 . S
C1379 H1419 0.951 . S
C1380 C1379 1.340 . S
C1380 C1381 1.439 . S
C1380 H1420 0.950 . S
C1381 C1380 1.439 . S
C1381 N1382 1.374 . S
C1381 C1415 1.395 1_556 S
N1382 C1378 1.376 . S
N1382 C1381 1.374 . S
N1382 Co1383 2.008 . S
Co1383 N1382 2.008 . S
Co1383 N1384 1.995 1_556 S
Co1383 N1389 2.008 1_556 S
Co1383 N1394 1.995 . S
Co1383 N1399 2.282 . S
Co1383 N1405 2.282 . S
N1384 Co1383 1.995 1_554 S
N1384 C1385 1.376 . S
N1384 C1388 1.383 . S
C1385 N1384 1.376 . S
C1385 C1386 1.446 . S
C1385 C1415 1.391 . S
C1386 C1385 1.446 . S
C1386 C1387 1.339 . S
C1386 H1421 0.949 . S
C1387 C1386 1.339 . S
C1387 C1388 1.439 . S
C1387 H1422 0.950 . S
C1388 N1384 1.383 . S
C1388 C1387 1.439 . S
C1388 C1417 1.392 . S
N1389 Co1383 2.008 1_554 S
N1389 C1390 1.376 . S
N1389 C1393 1.374 . S
C1390 N1389 1.376 . S
C1390 C1391 1.443 . S
C1390 C1417 1.389 . S
C1391 C1390 1.443 . S
C1391 C1392 1.340 . S
C1391 H1423 0.951 . S
C1392 C1391 1.340 . S
C1392 C1393 1.439 . S
C1392 H1424 0.950 . S
C1393 N1389 1.374 . S
C1393 C1392 1.439 . S
C1393 C1418 1.395 1_554 S
N1394 Co1383 1.995 . S
N1394 C1395 1.376 . S
N1394 C1398 1.383 . S
C1395 N1394 1.376 . S
C1395 C1396 1.446 . S
C1395 C1418 1.391 . S
C1396 C1395 1.446 . S
C1396 C1397 1.339 . S
C1396 H1425 0.949 . S
C1397 C1396 1.339 . S
C1397 C1398 1.439 . S
C1397 H1426 0.950 . S
C1398 N1394 1.383 . S
C1398 C1397 1.439 . S
C1398 C1416 1.392 . S
N1399 Co1383 2.282 . S
N1399 C1402 1.332 . S
N1399 C1404 1.332 1_556 S
C1400 C1401 1.386 . S
C1400 C1403 1.388 1_556 S
C1401 C1400 1.386 . S
C1401 C1402 1.382 . S
C1401 H1427 0.950 . S
C1402 N1399 1.332 . S
C1402 C1401 1.382 . S
C1402 H1413 0.952 . S
C1403 C1400 1.388 1_554 S
C1403 C1404 1.382 . S
C1403 H1428 0.950 . S
C1404 N1399 1.332 1_554 S
C1404 C1403 1.382 . S
C1404 H1414 0.948 . S
N1405 Co1383 2.282 . S
N1405 C1409 1.332 1_556 S
N1405 C1410 1.332 . S
C1406 C1407 1.388 . S
C1406 C1410 1.382 . S
C1406 H1429 0.950 . S
C1407 C1406 1.388 . S
C1407 C1408 1.386 1_556 S
C1408 C1407 1.386 1_554 S
C1408 C1409 1.382 . S
C1408 H1430 0.950 . S
C1409 N1405 1.332 1_554 S
C1409 C1408 1.382 . S
C1409 H1411 0.952 . S
C1410 N1405 1.332 . S
C1410 C1406 1.382 . S
C1410 H1412 0.948 . S
H1411 C1409 0.952 . S
H1412 C1410 0.948 . S
H1413 C1402 0.952 . S
H1414 C1404 0.948 . S
C1415 C1381 1.395 1_554 S
C1415 C1385 1.391 . S
C1416 C1378 1.389 . S
C1416 C1398 1.392 . S
C1417 C1388 1.392 . S
C1417 C1390 1.389 . S
C1418 C1393 1.395 1_556 S
C1418 C1395 1.391 . S
H1419 C1379 0.951 . S
H1420 C1380 0.950 . S
H1421 C1386 0.949 . S
H1422 C1387 0.950 . S
H1423 C1391 0.951 . S
H1424 C1392 0.950 . S
H1425 C1396 0.949 . S
H1426 C1397 0.950 . S
H1427 C1401 0.950 . S
H1428 C1403 0.950 . S
H1429 C1406 0.950 . S
H1430 C1408 0.950 . S
C1431 C1432 1.443 . S
C1431 N1435 1.376 . S
C1431 C1469 1.389 . S
C1432 C1431 1.443 . S
C1432 C1433 1.340 . S
C1432 H1472 0.951 . S
C1433 C1432 1.340 . S
C1433 C1434 1.439 . S
C1433 H1473 0.950 . S
C1434 C1433 1.439 . S
C1434 N1435 1.374 . S
C1434 C1468 1.395 1_556 S
N1435 C1431 1.376 . S
N1435 C1434 1.374 . S
N1435 Co1436 2.008 . S
Co1436 N1435 2.008 . S
Co1436 N1437 1.995 1_556 S
Co1436 N1442 2.008 1_556 S
Co1436 N1447 1.995 . S
Co1436 N1452 2.282 . S
Co1436 N1458 2.282 . S
N1437 Co1436 1.995 1_554 S
N1437 C1438 1.376 . S
N1437 C1441 1.383 . S
C1438 N1437 1.376 . S
C1438 C1439 1.446 . S
C1438 C1468 1.391 . S
C1439 C1438 1.446 . S
C1439 C1440 1.339 . S
C1439 H1474 0.949 . S
C1440 C1439 1.339 . S
C1440 C1441 1.439 . S
C1440 H1475 0.950 . S
C1441 N1437 1.383 . S
C1441 C1440 1.439 . S
C1441 C1470 1.392 . S
N1442 Co1436 2.008 1_554 S
N1442 C1443 1.376 . S
N1442 C1446 1.374 . S
C1443 N1442 1.376 . S
C1443 C1444 1.443 . S
C1443 C1470 1.389 . S
C1444 C1443 1.443 . S
C1444 C1445 1.340 . S
C1444 H1476 0.951 . S
C1445 C1444 1.340 . S
C1445 C1446 1.439 . S
C1445 H1477 0.950 . S
C1446 N1442 1.374 . S
C1446 C1445 1.439 . S
C1446 C1471 1.395 1_554 S
N1447 Co1436 1.995 . S
N1447 C1448 1.376 . S
N1447 C1451 1.383 . S
C1448 N1447 1.376 . S
C1448 C1449 1.446 . S
C1448 C1471 1.391 . S
C1449 C1448 1.446 . S
C1449 C1450 1.339 . S
C1449 H1478 0.949 . S
C1450 C1449 1.339 . S
C1450 C1451 1.439 . S
C1450 H1479 0.950 . S
C1451 N1447 1.383 . S
C1451 C1450 1.439 . S
C1451 C1469 1.392 . S
N1452 Co1436 2.282 . S
N1452 C1455 1.332 . S
N1452 C1457 1.332 1_556 S
C1453 C1454 1.386 . S
C1453 C1456 1.388 1_556 S
C1454 C1453 1.386 . S
C1454 C1455 1.382 . S
C1454 H1480 0.950 . S
C1455 N1452 1.332 . S
C1455 C1454 1.382 . S
C1455 H1466 0.952 . S
C1456 C1453 1.388 1_554 S
C1456 C1457 1.382 . S
C1456 H1481 0.950 . S
C1457 N1452 1.332 1_554 S
C1457 C1456 1.382 . S
C1457 H1467 0.948 . S
N1458 Co1436 2.282 . S
N1458 C1462 1.332 1_556 S
N1458 C1463 1.332 . S
C1459 C1460 1.388 . S
C1459 C1463 1.382 . S
C1459 H1482 0.950 . S
C1460 C1459 1.388 . S
C1460 C1461 1.386 1_556 S
C1461 C1460 1.386 1_554 S
C1461 C1462 1.382 . S
C1461 H1483 0.950 . S
C1462 N1458 1.332 1_554 S
C1462 C1461 1.382 . S
C1462 H1464 0.952 . S
C1463 N1458 1.332 . S
C1463 C1459 1.382 . S
C1463 H1465 0.948 . S
H1464 C1462 0.952 . S
H1465 C1463 0.948 . S
H1466 C1455 0.952 . S
H1467 C1457 0.948 . S
C1468 C1434 1.395 1_554 S
C1468 C1438 1.391 . S
C1469 C1431 1.389 . S
C1469 C1451 1.392 . S
C1470 C1441 1.392 . S
C1470 C1443 1.389 . S
C1471 C1446 1.395 1_556 S
C1471 C1448 1.391 . S
H1472 C1432 0.951 . S
H1473 C1433 0.950 . S
H1474 C1439 0.949 . S
H1475 C1440 0.950 . S
H1476 C1444 0.951 . S
H1477 C1445 0.950 . S
H1478 C1449 0.949 . S
H1479 C1450 0.950 . S
H1480 C1454 0.950 . S
H1481 C1456 0.950 . S
H1482 C1459 0.950 . S
H1483 C1461 0.950 . S
C1484 C1485 1.443 . S
C1484 N1488 1.376 . S
C1484 C1522 1.389 . S
C1485 C1484 1.443 . S
C1485 C1486 1.340 . S
C1485 H1525 0.951 . S
C1486 C1485 1.340 . S
C1486 C1487 1.439 . S
C1486 H1526 0.950 . S
C1487 C1486 1.439 . S
C1487 N1488 1.374 . S
C1487 C1521 1.395 . S
N1488 C1484 1.376 . S
N1488 C1487 1.374 . S
N1488 Co1489 2.008 . S
Co1489 N1488 2.008 . S
Co1489 N1490 1.995 . S
Co1489 N1495 2.008 . S
Co1489 N1500 1.995 . S
Co1489 N1505 2.282 . S
Co1489 N1511 2.282 . S
N1490 Co1489 1.995 . S
N1490 C1491 1.376 . S
N1490 C1494 1.383 . S
C1491 N1490 1.376 . S
C1491 C1492 1.446 . S
C1491 C1521 1.391 . S
C1492 C1491 1.446 . S
C1492 C1493 1.339 . S
C1492 H1527 0.949 . S
C1493 C1492 1.339 . S
C1493 C1494 1.439 . S
C1493 H1528 0.950 . S
C1494 N1490 1.383 . S
C1494 C1493 1.439 . S
C1494 C1523 1.392 . S
N1495 Co1489 2.008 . S
N1495 C1496 1.376 . S
N1495 C1499 1.374 . S
C1496 N1495 1.376 . S
C1496 C1497 1.443 . S
C1496 C1523 1.389 . S
C1497 C1496 1.443 . S
C1497 C1498 1.340 . S
C1497 H1529 0.951 . S
C1498 C1497 1.340 . S
C1498 C1499 1.439 . S
C1498 H1530 0.950 . S
C1499 N1495 1.374 . S
C1499 C1498 1.439 . S
C1499 C1524 1.395 . S
N1500 Co1489 1.995 . S
N1500 C1501 1.376 . S
N1500 C1504 1.383 . S
C1501 N1500 1.376 . S
C1501 C1502 1.446 . S
C1501 C1524 1.391 . S
C1502 C1501 1.446 . S
C1502 C1503 1.339 . S
C1502 H1531 0.949 . S
C1503 C1502 1.339 . S
C1503 C1504 1.439 . S
C1503 H1532 0.950 . S
C1504 N1500 1.383 . S
C1504 C1503 1.439 . S
C1504 C1522 1.392 . S
N1505 Co1489 2.282 . S
N1505 C1508 1.332 . S
N1505 C1510 1.332 . S
C1506 C1507 1.386 . S
C1506 C1509 1.388 . S
C1507 C1506 1.386 . S
C1507 C1508 1.382 . S
C1507 H1533 0.950 . S
C1508 N1505 1.332 . S
C1508 C1507 1.382 . S
C1508 H1519 0.952 . S
C1509 C1506 1.388 . S
C1509 C1510 1.382 . S
C1509 H1534 0.950 . S
C1510 N1505 1.332 . S
C1510 C1509 1.382 . S
C1510 H1520 0.948 . S
N1511 Co1489 2.282 . S
N1511 C1515 1.332 . S
N1511 C1516 1.332 . S
C1512 C1513 1.388 . S
C1512 C1516 1.382 . S
C1512 H1535 0.950 . S
C1513 C1512 1.388 . S
C1513 C1514 1.386 . S
C1514 C1513 1.386 . S
C1514 C1515 1.382 . S
C1514 H1536 0.950 . S
C1515 N1511 1.332 . S
C1515 C1514 1.382 . S
C1515 H1517 0.952 . S
C1516 N1511 1.332 . S
C1516 C1512 1.382 . S
C1516 H1518 0.948 . S
H1517 C1515 0.952 . S
H1518 C1516 0.948 . S
H1519 C1508 0.952 . S
H1520 C1510 0.948 . S
C1521 C1487 1.395 . S
C1521 C1491 1.391 . S
C1522 C1484 1.389 . S
C1522 C1504 1.392 . S
C1523 C1494 1.392 . S
C1523 C1496 1.389 . S
C1524 C1499 1.395 . S
C1524 C1501 1.391 . S
H1525 C1485 0.951 . S
H1526 C1486 0.950 . S
H1527 C1492 0.949 . S
H1528 C1493 0.950 . S
H1529 C1497 0.951 . S
H1530 C1498 0.950 . S
H1531 C1502 0.949 . S
H1532 C1503 0.950 . S
H1533 C1507 0.950 . S
H1534 C1509 0.950 . S
H1535 C1512 0.950 . S
H1536 C1514 0.950 . S
C1537 C1538 1.443 . S
C1537 N1541 1.376 . S
C1537 C1575 1.389 . S
C1538 C1537 1.443 . S
C1538 C1539 1.340 . S
C1538 H1578 0.951 . S
C1539 C1538 1.340 . S
C1539 C1540 1.439 . S
C1539 H1579 0.950 . S
C1540 C1539 1.439 . S
C1540 N1541 1.374 . S
C1540 C1574 1.395 . S
N1541 C1537 1.376 . S
N1541 C1540 1.374 . S
N1541 Co1542 2.008 . S
Co1542 N1541 2.008 . S
Co1542 N1543 1.995 . S
Co1542 N1548 2.008 . S
Co1542 N1553 1.995 . S
Co1542 N1558 2.282 . S
Co1542 N1564 2.282 . S
N1543 Co1542 1.995 . S
N1543 C1544 1.376 . S
N1543 C1547 1.383 . S
C1544 N1543 1.376 . S
C1544 C1545 1.446 . S
C1544 C1574 1.391 . S
C1545 C1544 1.446 . S
C1545 C1546 1.339 . S
C1545 H1580 0.949 . S
C1546 C1545 1.339 . S
C1546 C1547 1.439 . S
C1546 H1581 0.950 . S
C1547 N1543 1.383 . S
C1547 C1546 1.439 . S
C1547 C1576 1.392 . S
N1548 Co1542 2.008 . S
N1548 C1549 1.376 . S
N1548 C1552 1.374 . S
C1549 N1548 1.376 . S
C1549 C1550 1.443 . S
C1549 C1576 1.389 . S
C1550 C1549 1.443 . S
C1550 C1551 1.340 . S
C1550 H1582 0.951 . S
C1551 C1550 1.340 . S
C1551 C1552 1.439 . S
C1551 H1583 0.950 . S
C1552 N1548 1.374 . S
C1552 C1551 1.439 . S
C1552 C1577 1.395 . S
N1553 Co1542 1.995 . S
N1553 C1554 1.376 . S
N1553 C1557 1.383 . S
C1554 N1553 1.376 . S
C1554 C1555 1.446 . S
C1554 C1577 1.391 . S
C1555 C1554 1.446 . S
C1555 C1556 1.339 . S
C1555 H1584 0.949 . S
C1556 C1555 1.339 . S
C1556 C1557 1.439 . S
C1556 H1585 0.950 . S
C1557 N1553 1.383 . S
C1557 C1556 1.439 . S
C1557 C1575 1.392 . S
N1558 Co1542 2.282 . S
N1558 C1561 1.332 . S
N1558 C1563 1.332 . S
C1559 C1560 1.386 . S
C1559 C1562 1.388 . S
C1560 C1559 1.386 . S
C1560 C1561 1.382 . S
C1560 H1586 0.950 . S
C1561 N1558 1.332 . S
C1561 C1560 1.382 . S
C1561 H1572 0.952 . S
C1562 C1559 1.388 . S
C1562 C1563 1.382 . S
C1562 H1587 0.950 . S
C1563 N1558 1.332 . S
C1563 C1562 1.382 . S
C1563 H1573 0.948 . S
N1564 Co1542 2.282 . S
N1564 C1568 1.332 . S
N1564 C1569 1.332 . S
C1565 C1566 1.388 . S
C1565 C1569 1.382 . S
C1565 H1588 0.950 . S
C1566 C1565 1.388 . S
C1566 C1567 1.386 . S
C1567 C1566 1.386 . S
C1567 C1568 1.382 . S
C1567 H1589 0.950 . S
C1568 N1564 1.332 . S
C1568 C1567 1.382 . S
C1568 H1570 0.952 . S
C1569 N1564 1.332 . S
C1569 C1565 1.382 . S
C1569 H1571 0.948 . S
H1570 C1568 0.952 . S
H1571 C1569 0.948 . S
H1572 C1561 0.952 . S
H1573 C1563 0.948 . S
C1574 C1540 1.395 . S
C1574 C1544 1.391 . S
C1575 C1537 1.389 . S
C1575 C1557 1.392 . S
C1576 C1547 1.392 . S
C1576 C1549 1.389 . S
C1577 C1552 1.395 . S
C1577 C1554 1.391 . S
H1578 C1538 0.951 . S
H1579 C1539 0.950 . S
H1580 C1545 0.949 . S
H1581 C1546 0.950 . S
H1582 C1550 0.951 . S
H1583 C1551 0.950 . S
H1584 C1555 0.949 . S
H1585 C1556 0.950 . S
H1586 C1560 0.950 . S
H1587 C1562 0.950 . S
H1588 C1565 0.950 . S
H1589 C1567 0.950 . S
C1590 C1591 1.443 . S
C1590 N1594 1.376 . S
C1590 C1628 1.389 . S
C1591 C1590 1.443 . S
C1591 C1592 1.340 . S
C1591 H1631 0.951 . S
C1592 C1591 1.340 . S
C1592 C1593 1.439 . S
C1592 H1632 0.950 . S
C1593 C1592 1.439 . S
C1593 N1594 1.374 . S
C1593 C1627 1.395 . S
N1594 C1590 1.376 . S
N1594 C1593 1.374 . S
N1594 Co1595 2.008 . S
Co1595 N1594 2.008 . S
Co1595 N1596 1.995 1_554 S
Co1595 N1601 2.008 1_554 S
Co1595 N1606 1.995 . S
Co1595 N1611 2.282 . S
Co1595 N1617 2.282 . S
N1596 Co1595 1.995 1_556 S
N1596 C1597 1.376 . S
N1596 C1600 1.383 . S
C1597 N1596 1.376 . S
C1597 C1598 1.446 . S
C1597 C1627 1.391 1_556 S
C1598 C1597 1.446 . S
C1598 C1599 1.339 . S
C1598 H1633 0.949 . S
C1599 C1598 1.339 . S
C1599 C1600 1.439 . S
C1599 H1634 0.950 . S
C1600 N1596 1.383 . S
C1600 C1599 1.439 . S
C1600 C1629 1.392 . S
N1601 Co1595 2.008 1_556 S
N1601 C1602 1.376 . S
N1601 C1605 1.374 . S
C1602 N1601 1.376 . S
C1602 C1603 1.443 . S
C1602 C1629 1.389 . S
C1603 C1602 1.443 . S
C1603 C1604 1.340 . S
C1603 H1635 0.951 . S
C1604 C1603 1.340 . S
C1604 C1605 1.439 . S
C1604 H1636 0.950 . S
C1605 N1601 1.374 . S
C1605 C1604 1.439 . S
C1605 C1630 1.395 . S
N1606 Co1595 1.995 . S
N1606 C1607 1.376 . S
N1606 C1610 1.383 . S
C1607 N1606 1.376 . S
C1607 C1608 1.446 . S
C1607 C1630 1.391 1_554 S
C1608 C1607 1.446 . S
C1608 C1609 1.339 . S
C1608 H1637 0.949 . S
C1609 C1608 1.339 . S
C1609 C1610 1.439 . S
C1609 H1638 0.950 . S
C1610 N1606 1.383 . S
C1610 C1609 1.439 . S
C1610 C1628 1.392 . S
N1611 Co1595 2.282 . S
N1611 C1614 1.332 . S
N1611 C1616 1.332 . S
C1612 C1613 1.386 . S
C1612 C1615 1.388 . S
C1613 C1612 1.386 . S
C1613 C1614 1.382 . S
C1613 H1639 0.950 . S
C1614 N1611 1.332 . S
C1614 C1613 1.382 . S
C1614 H1625 0.952 . S
C1615 C1612 1.388 . S
C1615 C1616 1.382 . S
C1615 H1640 0.949 1_554 S
C1616 N1611 1.332 . S
C1616 C1615 1.382 . S
C1616 H1626 0.948 . S
N1617 Co1595 2.282 . S
N1617 C1621 1.332 1_554 S
N1617 C1622 1.332 . S
C1618 C1619 1.388 . S
C1618 C1622 1.382 . S
C1618 H1641 0.950 . S
C1619 C1618 1.388 . S
C1619 C1620 1.386 . S
C1620 C1619 1.386 . S
C1620 C1621 1.382 1_554 S
C1620 H1642 0.950 . S
C1621 N1617 1.332 1_556 S
C1621 C1620 1.382 1_556 S
C1621 H1623 0.951 . S
C1622 N1617 1.332 . S
C1622 C1618 1.382 . S
C1622 H1624 0.948 . S
H1623 C1621 0.951 . S
H1624 C1622 0.948 . S
H1625 C1614 0.952 . S
H1626 C1616 0.948 . S
C1627 C1593 1.395 . S
C1627 C1597 1.391 1_554 S
C1628 C1590 1.389 . S
C1628 C1610 1.392 . S
C1629 C1600 1.392 . S
C1629 C1602 1.389 . S
C1630 C1605 1.395 . S
C1630 C1607 1.391 1_556 S
H1631 C1591 0.951 . S
H1632 C1592 0.950 . S
H1633 C1598 0.949 . S
H1634 C1599 0.950 . S
H1635 C1603 0.951 . S
H1636 C1604 0.950 . S
H1637 C1608 0.949 . S
H1638 C1609 0.950 . S
H1639 C1613 0.950 . S
H1640 C1615 0.949 1_556 S
H1641 C1618 0.950 . S
H1642 C1620 0.950 . S
C1643 C1644 1.443 . S
C1643 N1647 1.376 . S
C1643 C1681 1.389 . S
C1644 C1643 1.443 . S
C1644 C1645 1.340 . S
C1644 H1684 0.951 . S
C1645 C1644 1.340 . S
C1645 C1646 1.439 . S
C1645 H1685 0.950 . S
C1646 C1645 1.439 . S
C1646 N1647 1.374 . S
C1646 C1680 1.395 . S
N1647 C1643 1.376 . S
N1647 C1646 1.374 . S
N1647 Co1648 2.008 . S
Co1648 N1647 2.008 . S
Co1648 N1649 1.995 1_554 S
Co1648 N1654 2.008 1_554 S
Co1648 N1659 1.995 . S
Co1648 N1664 2.282 . S
Co1648 N1670 2.282 . S
N1649 Co1648 1.995 1_556 S
N1649 C1650 1.376 . S
N1649 C1653 1.383 . S
C1650 N1649 1.376 . S
C1650 C1651 1.446 . S
C1650 C1680 1.391 1_556 S
C1651 C1650 1.446 . S
C1651 C1652 1.339 . S
C1651 H1686 0.949 . S
C1652 C1651 1.339 . S
C1652 C1653 1.439 . S
C1652 H1687 0.950 . S
C1653 N1649 1.383 . S
C1653 C1652 1.439 . S
C1653 C1682 1.392 . S
N1654 Co1648 2.008 1_556 S
N1654 C1655 1.376 . S
N1654 C1658 1.374 . S
C1655 N1654 1.376 . S
C1655 C1656 1.443 . S
C1655 C1682 1.389 . S
C1656 C1655 1.443 . S
C1656 C1657 1.340 . S
C1656 H1688 0.951 . S
C1657 C1656 1.340 . S
C1657 C1658 1.439 . S
C1657 H1689 0.950 . S
C1658 N1654 1.374 . S
C1658 C1657 1.439 . S
C1658 C1683 1.395 . S
N1659 Co1648 1.995 . S
N1659 C1660 1.376 . S
N1659 C1663 1.383 . S
C1660 N1659 1.376 . S
C1660 C1661 1.446 . S
C1660 C1683 1.391 1_554 S
C1661 C1660 1.446 . S
C1661 C1662 1.339 . S
C1661 H1690 0.949 . S
C1662 C1661 1.339 . S
C1662 C1663 1.439 . S
C1662 H1691 0.950 . S
C1663 N1659 1.383 . S
C1663 C1662 1.439 . S
C1663 C1681 1.392 . S
N1664 Co1648 2.282 . S
N1664 C1667 1.332 . S
N1664 C1669 1.332 . S
C1665 C1666 1.386 . S
C1665 C1668 1.388 . S
C1666 C1665 1.386 . S
C1666 C1667 1.382 . S
C1666 H1692 0.950 . S
C1667 N1664 1.332 . S
C1667 C1666 1.382 . S
C1667 H1678 0.952 . S
C1668 C1665 1.388 . S
C1668 C1669 1.382 . S
C1668 H1693 0.949 1_554 S
C1669 N1664 1.332 . S
C1669 C1668 1.382 . S
C1669 H1679 0.948 . S
N1670 Co1648 2.282 . S
N1670 C1674 1.332 1_554 S
N1670 C1675 1.332 . S
C1671 C1672 1.388 . S
C1671 C1675 1.382 . S
C1671 H1694 0.950 . S
C1672 C1671 1.388 . S
C1672 C1673 1.386 . S
C1673 C1672 1.386 . S
C1673 C1674 1.382 1_554 S
C1673 H1695 0.950 . S
C1674 N1670 1.332 1_556 S
C1674 C1673 1.382 1_556 S
C1674 H1676 0.951 . S
C1675 N1670 1.332 . S
C1675 C1671 1.382 . S
C1675 H1677 0.948 . S
H1676 C1674 0.951 . S
H1677 C1675 0.948 . S
H1678 C1667 0.952 . S
H1679 C1669 0.948 . S
C1680 C1646 1.395 . S
C1680 C1650 1.391 1_554 S
C1681 C1643 1.389 . S
C1681 C1663 1.392 . S
C1682 C1653 1.392 . S
C1682 C1655 1.389 . S
C1683 C1658 1.395 . S
C1683 C1660 1.391 1_556 S
H1684 C1644 0.951 . S
H1685 C1645 0.950 . S
H1686 C1651 0.949 . S
H1687 C1652 0.950 . S
H1688 C1656 0.951 . S
H1689 C1657 0.950 . S
H1690 C1661 0.949 . S
H1691 C1662 0.950 . S
H1692 C1666 0.950 . S
H1693 C1668 0.949 1_556 S
H1694 C1671 0.950 . S
H1695 C1673 0.950 . S
C1696 C1697 1.369 . S
C1696 C1698 1.419 . S
C1696 H1700 0.930 . S
C1697 C1696 1.369 . S
C1697 C1706 1.429 . S
C1698 C1696 1.419 . S
C1698 C1699 1.363 . S
C1698 H1701 0.929 . S
C1699 C1698 1.363 . S
C1699 C1705 1.428 . S
H1700 C1696 0.930 . S
H1701 C1698 0.929 . S
S1702 N1703 1.613 . S
S1702 N1704 1.610 . S
N1703 S1702 1.613 . S
N1703 C1706 1.350 . S
N1704 S1702 1.610 . S
N1704 C1705 1.351 . S
C1705 C1699 1.428 . S
C1705 N1704 1.351 . S
C1705 C1706 1.434 . S
C1706 C1697 1.429 . S
C1706 N1703 1.350 . S
C1706 C1705 1.434 . S
C1707 C1708 1.369 . S
C1707 C1709 1.419 . S
C1707 H1711 0.930 . S
C1708 C1707 1.369 . S
C1708 C1717 1.429 . S
C1709 C1707 1.419 . S
C1709 C1710 1.363 . S
C1709 H1712 0.929 . S
C1710 C1709 1.363 . S
C1710 C1716 1.428 . S
H1711 C1707 0.930 . S
H1712 C1709 0.929 . S
S1713 N1714 1.613 1_545 S
S1713 N1715 1.610 1_545 S
N1714 S1713 1.613 1_565 S
N1714 C1717 1.350 . S
N1715 S1713 1.610 1_565 S
N1715 C1716 1.351 . S
C1716 C1710 1.428 . S
C1716 N1715 1.351 . S
C1716 C1717 1.434 . S
C1717 C1708 1.429 . S
C1717 N1714 1.350 . S
C1717 C1716 1.434 . S
C1718 C1719 1.369 . S
C1718 C1720 1.419 . S
C1718 H1722 0.930 . S
C1719 C1718 1.369 . S
C1719 C1728 1.429 . S
C1720 C1718 1.419 . S
C1720 C1721 1.363 . S
C1720 H1723 0.929 . S
C1721 C1720 1.363 . S
C1721 C1727 1.428 . S
H1722 C1718 0.930 . S
H1723 C1720 0.929 . S
S1724 N1725 1.613 . S
S1724 N1726 1.610 . S
N1725 S1724 1.613 . S
N1725 C1728 1.350 . S
N1726 S1724 1.610 . S
N1726 C1727 1.351 . S
C1727 C1721 1.428 . S
C1727 N1726 1.351 . S
C1727 C1728 1.434 . S
C1728 C1719 1.429 . S
C1728 N1725 1.350 . S
C1728 C1727 1.434 . S
C1729 C1730 1.369 . S
C1729 C1731 1.419 . S
C1729 H1733 0.930 . S
C1730 C1729 1.369 . S
C1730 C1739 1.429 . S
C1731 C1729 1.419 . S
C1731 C1732 1.363 . S
C1731 H1734 0.929 . S
C1732 C1731 1.363 . S
C1732 C1738 1.428 . S
H1733 C1729 0.930 . S
H1734 C1731 0.929 . S
S1735 N1736 1.613 . S
S1735 N1737 1.610 . S
N1736 S1735 1.613 . S
N1736 C1739 1.350 . S
N1737 S1735 1.610 . S
N1737 C1738 1.351 . S
C1738 C1732 1.428 . S
C1738 N1737 1.351 . S
C1738 C1739 1.434 . S
C1739 C1730 1.429 . S
C1739 N1736 1.350 . S
C1739 C1738 1.434 . S
C1740 C1741 1.369 . S
C1740 C1742 1.419 . S
C1740 H1744 0.930 . S
C1741 C1740 1.369 . S
C1741 C1750 1.429 . S
C1742 C1740 1.419 . S
C1742 C1743 1.363 . S
C1742 H1745 0.929 . S
C1743 C1742 1.363 . S
C1743 C1749 1.428 . S
H1744 C1740 0.930 . S
H1745 C1742 0.929 . S
S1746 N1747 1.613 . S
S1746 N1748 1.610 . S
N1747 S1746 1.613 . S
N1747 C1750 1.350 . S
N1748 S1746 1.610 . S
N1748 C1749 1.351 . S
C1749 C1743 1.428 . S
C1749 N1748 1.351 . S
C1749 C1750 1.434 . S
C1750 C1741 1.429 . S
C1750 N1747 1.350 . S
C1750 C1749 1.434 . S
C1751 C1752 1.369 . S
C1751 C1753 1.419 . S
C1751 H1755 0.930 . S
C1752 C1751 1.369 . S
C1752 C1761 1.429 . S
C1753 C1751 1.419 . S
C1753 C1754 1.363 . S
C1753 H1756 0.929 . S
C1754 C1753 1.363 . S
C1754 C1760 1.428 . S
H1755 C1751 0.930 . S
H1756 C1753 0.929 . S
S1757 N1758 1.613 . S
S1757 N1759 1.610 . S
N1758 S1757 1.613 . S
N1758 C1761 1.350 . S
N1759 S1757 1.610 . S
N1759 C1760 1.351 . S
C1760 C1754 1.428 . S
C1760 N1759 1.351 . S
C1760 C1761 1.434 . S
C1761 C1752 1.429 . S
C1761 N1758 1.350 . S
C1761 C1760 1.434 . S
C1762 C1763 1.369 . S
C1762 C1764 1.419 . S
C1762 H1766 0.930 . S
C1763 C1762 1.369 . S
C1763 C1772 1.429 . S
C1764 C1762 1.419 . S
C1764 C1765 1.363 . S
C1764 H1767 0.929 . S
C1765 C1764 1.363 . S
C1765 C1771 1.428 . S
H1766 C1762 0.930 . S
H1767 C1764 0.929 . S
S1768 N1769 1.613 . S
S1768 N1770 1.610 . S
N1769 S1768 1.613 . S
N1769 C1772 1.350 . S
N1770 S1768 1.610 . S
N1770 C1771 1.351 . S
C1771 C1765 1.428 . S
C1771 N1770 1.351 . S
C1771 C1772 1.434 . S
C1772 C1763 1.429 . S
C1772 N1769 1.350 . S
C1772 C1771 1.434 . S
C1773 C1774 1.369 . S
C1773 C1775 1.419 . S
C1773 H1777 0.930 . S
C1774 C1773 1.369 . S
C1774 C1783 1.429 . S
C1775 C1773 1.419 . S
C1775 C1776 1.363 . S
C1775 H1778 0.929 . S
C1776 C1775 1.363 . S
C1776 C1782 1.428 . S
H1777 C1773 0.930 . S
H1778 C1775 0.929 . S
S1779 N1780 1.613 . S
S1779 N1781 1.610 . S
N1780 S1779 1.613 . S
N1780 C1783 1.350 . S
N1781 S1779 1.610 . S
N1781 C1782 1.351 . S
C1782 C1776 1.428 . S
C1782 N1781 1.351 . S
C1782 C1783 1.434 . S
C1783 C1774 1.429 . S
C1783 N1780 1.350 . S
C1783 C1782 1.434 . S
C1784 C1785 1.369 . S
C1784 C1786 1.419 . S
C1784 H1788 0.930 . S
C1785 C1784 1.369 . S
C1785 C1794 1.429 . S
C1786 C1784 1.419 . S
C1786 C1787 1.363 . S
C1786 H1789 0.929 . S
C1787 C1786 1.363 . S
C1787 C1793 1.428 . S
H1788 C1784 0.930 . S
H1789 C1786 0.929 . S
S1790 N1791 1.613 . S
S1790 N1792 1.610 . S
N1791 S1790 1.613 . S
N1791 C1794 1.350 . S
N1792 S1790 1.610 . S
N1792 C1793 1.351 . S
C1793 C1787 1.428 . S
C1793 N1792 1.351 . S
C1793 C1794 1.434 . S
C1794 C1785 1.429 . S
C1794 N1791 1.350 . S
C1794 C1793 1.434 . S
C1795 C1796 1.369 . S
C1795 C1797 1.419 . S
C1795 H1799 0.930 . S
C1796 C1795 1.369 . S
C1796 C1805 1.429 . S
C1797 C1795 1.419 . S
C1797 C1798 1.363 . S
C1797 H1800 0.929 . S
C1798 C1797 1.363 . S
C1798 C1804 1.428 . S
H1799 C1795 0.930 . S
H1800 C1797 0.929 . S
S1801 N1802 1.613 . S
S1801 N1803 1.610 . S
N1802 S1801 1.613 . S
N1802 C1805 1.350 . S
N1803 S1801 1.610 . S
N1803 C1804 1.351 . S
C1804 C1798 1.428 . S
C1804 N1803 1.351 . S
C1804 C1805 1.434 . S
C1805 C1796 1.429 . S
C1805 N1802 1.350 . S
C1805 C1804 1.434 . S
C1806 C1807 1.369 . S
C1806 C1808 1.419 . S
C1806 H1810 0.930 . S
C1807 C1806 1.369 . S
C1807 C1816 1.429 . S
C1808 C1806 1.419 . S
C1808 C1809 1.363 . S
C1808 H1811 0.929 . S
C1809 C1808 1.363 . S
C1809 C1815 1.428 . S
H1810 C1806 0.930 . S
H1811 C1808 0.929 . S
S1812 N1813 1.613 . S
S1812 N1814 1.610 . S
N1813 S1812 1.613 . S
N1813 C1816 1.350 . S
N1814 S1812 1.610 . S
N1814 C1815 1.351 . S
C1815 C1809 1.428 . S
C1815 N1814 1.351 . S
C1815 C1816 1.434 . S
C1816 C1807 1.429 . S
C1816 N1813 1.350 . S
C1816 C1815 1.434 . S
C1817 C1818 1.369 . S
C1817 C1819 1.419 . S
C1817 H1821 0.930 . S
C1818 C1817 1.369 . S
C1818 C1827 1.429 . S
C1819 C1817 1.419 . S
C1819 C1820 1.363 . S
C1819 H1822 0.929 . S
C1820 C1819 1.363 . S
C1820 C1826 1.428 . S
H1821 C1817 0.930 . S
H1822 C1819 0.929 . S
S1823 N1824 1.613 . S
S1823 N1825 1.610 . S
N1824 S1823 1.613 . S
N1824 C1827 1.350 . S
N1825 S1823 1.610 . S
N1825 C1826 1.351 . S
C1826 C1820 1.428 . S
C1826 N1825 1.351 . S
C1826 C1827 1.434 . S
C1827 C1818 1.429 . S
C1827 N1824 1.350 . S
C1827 C1826 1.434 . S
C1828 C1829 1.369 . S
C1828 C1830 1.419 . S
C1828 H1832 0.930 . S
C1829 C1828 1.369 . S
C1829 C1838 1.429 . S
C1830 C1828 1.419 . S
C1830 C1831 1.363 . S
C1830 H1833 0.929 . S
C1831 C1830 1.363 . S
C1831 C1837 1.428 . S
H1832 C1828 0.930 . S
H1833 C1830 0.929 . S
S1834 N1835 1.613 . S
S1834 N1836 1.610 . S
N1835 S1834 1.613 . S
N1835 C1838 1.350 . S
N1836 S1834 1.610 . S
N1836 C1837 1.351 . S
C1837 C1831 1.428 . S
C1837 N1836 1.351 . S
C1837 C1838 1.434 . S
C1838 C1829 1.429 . S
C1838 N1835 1.350 . S
C1838 C1837 1.434 . S
C1839 C1840 1.369 . S
C1839 C1841 1.419 . S
C1839 H1843 0.930 . S
C1840 C1839 1.369 . S
C1840 C1849 1.429 . S
C1841 C1839 1.419 . S
C1841 C1842 1.363 . S
C1841 H1844 0.929 . S
C1842 C1841 1.363 . S
C1842 C1848 1.428 . S
H1843 C1839 0.930 . S
H1844 C1841 0.929 . S
S1845 N1846 1.613 . S
S1845 N1847 1.610 . S
N1846 S1845 1.613 . S
N1846 C1849 1.350 . S
N1847 S1845 1.610 . S
N1847 C1848 1.351 . S
C1848 C1842 1.428 . S
C1848 N1847 1.351 . S
C1848 C1849 1.434 . S
C1849 C1840 1.429 . S
C1849 N1846 1.350 . S
C1849 C1848 1.434 . S
C1850 C1851 1.369 . S
C1850 C1852 1.419 . S
C1850 H1854 0.930 . S
C1851 C1850 1.369 . S
C1851 C1860 1.429 . S
C1852 C1850 1.419 . S
C1852 C1853 1.363 . S
C1852 H1855 0.929 . S
C1853 C1852 1.363 . S
C1853 C1859 1.428 . S
H1854 C1850 0.930 . S
H1855 C1852 0.929 . S
S1856 N1857 1.613 . S
S1856 N1858 1.610 . S
N1857 S1856 1.613 . S
N1857 C1860 1.350 . S
N1858 S1856 1.610 . S
N1858 C1859 1.351 . S
C1859 C1853 1.428 . S
C1859 N1858 1.351 . S
C1859 C1860 1.434 . S
C1860 C1851 1.429 . S
C1860 N1857 1.350 . S
C1860 C1859 1.434 . S
C1861 C1862 1.369 . S
C1861 C1863 1.419 . S
C1861 H1865 0.930 . S
C1862 C1861 1.369 . S
C1862 C1871 1.429 . S
C1863 C1861 1.419 . S
C1863 C1864 1.363 . S
C1863 H1866 0.929 . S
C1864 C1863 1.363 . S
C1864 C1870 1.428 . S
H1865 C1861 0.930 . S
H1866 C1863 0.929 . S
S1867 N1868 1.613 . S
S1867 N1869 1.610 . S
N1868 S1867 1.613 . S
N1868 C1871 1.350 . S
N1869 S1867 1.610 . S
N1869 C1870 1.351 . S
C1870 C1864 1.428 . S
C1870 N1869 1.351 . S
C1870 C1871 1.434 . S
C1871 C1862 1.429 . S
C1871 N1868 1.350 . S
C1871 C1870 1.434 . S
C1872 C1873 1.369 1_455 S
C1872 C1874 1.419 . S
C1872 H1876 0.930 . S
C1873 C1872 1.369 1_655 S
C1873 C1882 1.429 . S
C1874 C1872 1.419 . S
C1874 C1875 1.363 . S
C1874 H1877 0.929 . S
C1875 C1874 1.363 . S
C1875 C1881 1.428 1_455 S
H1876 C1872 0.930 . S
H1877 C1874 0.929 . S
S1878 N1879 1.613 . S
S1878 N1880 1.610 . S
N1879 S1878 1.613 . S
N1879 C1882 1.350 . S
N1880 S1878 1.610 . S
N1880 C1881 1.351 . S
C1881 C1875 1.428 1_655 S
C1881 N1880 1.351 . S
C1881 C1882 1.434 . S
C1882 C1873 1.429 . S
C1882 N1879 1.350 . S
C1882 C1881 1.434 . S
C1883 C1884 1.369 1_545 S
C1883 C1885 1.419 . S
C1883 H1887 0.930 . S
C1884 C1883 1.369 1_565 S
C1884 C1893 1.429 . S
C1885 C1883 1.419 . S
C1885 C1886 1.363 . S
C1885 H1888 0.929 . S
C1886 C1885 1.363 . S
C1886 C1892 1.428 1_545 S
H1887 C1883 0.930 . S
H1888 C1885 0.929 . S
S1889 N1890 1.613 . S
S1889 N1891 1.610 . S
N1890 S1889 1.613 . S
N1890 C1893 1.350 . S
N1891 S1889 1.610 . S
N1891 C1892 1.351 . S
C1892 C1886 1.428 1_565 S
C1892 N1891 1.351 . S
C1892 C1893 1.434 . S
C1893 C1884 1.429 . S
C1893 N1890 1.350 . S
C1893 C1892 1.434 . S
C1894 C1895 1.369 1_654 S
C1894 C1896 1.419 . S
C1894 H1898 0.930 . S
C1895 C1894 1.369 1_456 S
C1895 C1904 1.429 1_565 S
C1896 C1894 1.419 . S
C1896 C1897 1.363 1_565 S
C1896 H1899 0.929 . S
C1897 C1896 1.363 1_545 S
C1897 C1903 1.428 1_654 S
H1898 C1894 0.930 . S
H1899 C1896 0.929 . S
S1900 N1901 1.613 . S
S1900 N1902 1.610 . S
N1901 S1900 1.613 . S
N1901 C1904 1.350 . S
N1902 S1900 1.610 . S
N1902 C1903 1.351 . S
C1903 C1897 1.428 1_456 S
C1903 N1902 1.351 . S
C1903 C1904 1.434 . S
C1904 C1895 1.429 1_545 S
C1904 N1901 1.350 . S
C1904 C1903 1.434 . S
C1905 C1906 1.369 1_556 S
C1905 C1907 1.419 . S
C1905 H1909 0.930 . S
C1906 C1905 1.369 1_554 S
C1906 C1915 1.429 . S
C1907 C1905 1.419 . S
C1907 C1908 1.363 . S
C1907 H1910 0.929 . S
C1908 C1907 1.363 . S
C1908 C1914 1.428 1_556 S
H1909 C1905 0.930 . S
H1910 C1907 0.929 . S
S1911 N1912 1.613 . S
S1911 N1913 1.610 . S
N1912 S1911 1.613 . S
N1912 C1915 1.350 . S
N1913 S1911 1.610 . S
N1913 C1914 1.351 . S
C1914 C1908 1.428 1_554 S
C1914 N1913 1.351 . S
C1914 C1915 1.434 . S
C1915 C1906 1.429 . S
C1915 N1912 1.350 . S
C1915 C1914 1.434 . S
C1916 C1917 1.369 . S
C1916 C1918 1.419 . S
C1916 H1920 0.930 . S
C1917 C1916 1.369 . S
C1917 C1926 1.429 1_655 S
C1918 C1916 1.419 . S
C1918 C1919 1.363 1_655 S
C1918 H1921 0.929 . S
C1919 C1918 1.363 1_455 S
C1919 C1925 1.428 . S
H1920 C1916 0.930 . S
H1921 C1918 0.929 . S
S1922 N1923 1.613 . S
S1922 N1924 1.610 . S
N1923 S1922 1.613 . S
N1923 C1926 1.350 . S
N1924 S1922 1.610 . S
N1924 C1925 1.351 . S
C1925 C1919 1.428 . S
C1925 N1924 1.351 . S
C1925 C1926 1.434 . S
C1926 C1917 1.429 1_455 S
C1926 N1923 1.350 . S
C1926 C1925 1.434 . S
C1927 C1928 1.369 1_545 S
C1927 C1929 1.419 . S
C1927 H1931 0.930 . S
C1928 C1927 1.369 1_565 S
C1928 C1937 1.429 . S
C1929 C1927 1.419 . S
C1929 C1930 1.363 . S
C1929 H1932 0.929 . S
C1930 C1929 1.363 . S
C1930 C1936 1.428 1_545 S
H1931 C1927 0.930 . S
H1932 C1929 0.929 . S
S1933 N1934 1.613 . S
S1933 N1935 1.610 . S
N1934 S1933 1.613 . S
N1934 C1937 1.350 . S
N1935 S1933 1.610 . S
N1935 C1936 1.351 . S
C1936 C1930 1.428 1_565 S
C1936 N1935 1.351 . S
C1936 C1937 1.434 . S
C1937 C1928 1.429 . S
C1937 N1934 1.350 . S
C1937 C1936 1.434 . S
C1938 C1939 1.369 . S
C1938 C1940 1.419 . S
C1938 H1942 0.930 . S
C1939 C1938 1.369 . S
C1939 C1948 1.429 1_556 S
C1940 C1938 1.419 . S
C1940 C1941 1.363 1_556 S
C1940 H1943 0.929 . S
C1941 C1940 1.363 1_554 S
C1941 C1947 1.428 . S
H1942 C1938 0.930 . S
H1943 C1940 0.929 . S
S1944 N1945 1.613 . S
S1944 N1946 1.610 . S
N1945 S1944 1.613 . S
N1945 C1948 1.350 . S
N1946 S1944 1.610 . S
N1946 C1947 1.351 . S
C1947 C1941 1.428 . S
C1947 N1946 1.351 . S
C1947 C1948 1.434 . S
C1948 C1939 1.429 1_554 S
C1948 N1945 1.350 . S
C1948 C1947 1.434 . S
C1949 C1950 1.369 . S
C1949 C1951 1.419 . S
C1949 H1953 0.930 . S
C1950 C1949 1.369 . S
C1950 C1959 1.429 . S
C1951 C1949 1.419 . S
C1951 C1952 1.363 . S
C1951 H1954 0.929 . S
C1952 C1951 1.363 . S
C1952 C1958 1.428 . S
H1953 C1949 0.930 . S
H1954 C1951 0.929 . S
S1955 N1956 1.613 . S
S1955 N1957 1.610 . S
N1956 S1955 1.613 . S
N1956 C1959 1.350 . S
N1957 S1955 1.610 . S
N1957 C1958 1.351 . S
C1958 C1952 1.428 . S
C1958 N1957 1.351 . S
C1958 C1959 1.434 . S
C1959 C1950 1.429 . S
C1959 N1956 1.350 . S
C1959 C1958 1.434 . S
C1960 C1961 1.369 1_455 S
C1960 C1962 1.419 . S
C1960 H1964 0.930 . S
C1961 C1960 1.369 1_655 S
C1961 C1970 1.429 . S
C1962 C1960 1.419 . S
C1962 C1963 1.363 . S
C1962 H1965 0.929 . S
C1963 C1962 1.363 . S
C1963 C1969 1.428 1_455 S
H1964 C1960 0.930 . S
H1965 C1962 0.929 . S
S1966 N1967 1.613 . S
S1966 N1968 1.610 . S
N1967 S1966 1.613 . S
N1967 C1970 1.350 . S
N1968 S1966 1.610 . S
N1968 C1969 1.351 . S
C1969 C1963 1.428 1_655 S
C1969 N1968 1.351 . S
C1969 C1970 1.434 . S
C1970 C1961 1.429 . S
C1970 N1967 1.350 . S
C1970 C1969 1.434 . S
C1971 C1972 1.369 . S
C1971 C1973 1.419 . S
C1971 H1975 0.930 . S
C1972 C1971 1.369 . S
C1972 C1981 1.429 . S
C1973 C1971 1.419 . S
C1973 C1974 1.363 . S
C1973 H1976 0.929 . S
C1974 C1973 1.363 . S
C1974 C1980 1.428 . S
H1975 C1971 0.930 . S
H1976 C1973 0.929 . S
S1977 N1978 1.613 . S
S1977 N1979 1.610 . S
N1978 S1977 1.613 . S
N1978 C1981 1.350 . S
N1979 S1977 1.610 . S
N1979 C1980 1.351 . S
C1980 C1974 1.428 . S
C1980 N1979 1.351 . S
C1980 C1981 1.434 . S
C1981 C1972 1.429 . S
C1981 N1978 1.350 . S
C1981 C1980 1.434 . S
C1982 C1983 1.369 . S
C1982 C1984 1.419 . S
C1982 H1986 0.930 . S
C1983 C1982 1.369 . S
C1983 C1992 1.429 . S
C1984 C1982 1.419 . S
C1984 C1985 1.363 . S
C1984 H1987 0.929 . S
C1985 C1984 1.363 . S
C1985 C1991 1.428 . S
H1986 C1982 0.930 . S
H1987 C1984 0.929 . S
S1988 N1989 1.613 . S
S1988 N1990 1.610 . S
N1989 S1988 1.613 . S
N1989 C1992 1.350 . S
N1990 S1988 1.610 . S
N1990 C1991 1.351 . S
C1991 C1985 1.428 . S
C1991 N1990 1.351 . S
C1991 C1992 1.434 . S
C1992 C1983 1.429 . S
C1992 N1989 1.350 . S
C1992 C1991 1.434 . S
C1993 C1994 1.369 . S
C1993 C1995 1.419 . S
C1993 H1997 0.930 . S
C1994 C1993 1.369 . S
C1994 C2003 1.429 . S
C1995 C1993 1.419 . S
C1995 C1996 1.363 . S
C1995 H1998 0.929 . S
C1996 C1995 1.363 . S
C1996 C2002 1.428 . S
H1997 C1993 0.930 . S
H1998 C1995 0.929 . S
S1999 N2000 1.613 . S
S1999 N2001 1.610 . S
N2000 S1999 1.613 . S
N2000 C2003 1.350 . S
N2001 S1999 1.610 . S
N2001 C2002 1.351 . S
C2002 C1996 1.428 . S
C2002 N2001 1.351 . S
C2002 C2003 1.434 . S
C2003 C1994 1.429 . S
C2003 N2000 1.350 . S
C2003 C2002 1.434 . S
C2004 C2005 1.369 . S
C2004 C2006 1.419 . S
C2004 H2008 0.930 . S
C2005 C2004 1.369 . S
C2005 C2014 1.429 . S
C2006 C2004 1.419 . S
C2006 C2007 1.363 . S
C2006 H2009 0.929 . S
C2007 C2006 1.363 . S
C2007 C2013 1.428 . S
H2008 C2004 0.930 . S
H2009 C2006 0.929 . S
S2010 N2011 1.613 . S
S2010 N2012 1.610 . S
N2011 S2010 1.613 . S
N2011 C2014 1.350 . S
N2012 S2010 1.610 . S
N2012 C2013 1.351 . S
C2013 C2007 1.428 . S
C2013 N2012 1.351 . S
C2013 C2014 1.434 . S
C2014 C2005 1.429 . S
C2014 N2011 1.350 . S
C2014 C2013 1.434 . S
C2015 C2016 1.369 1_565 S
C2015 C2017 1.419 . S
C2015 H2019 0.930 . S
C2016 C2015 1.369 1_545 S
C2016 C2025 1.429 . S
C2017 C2015 1.419 . S
C2017 C2018 1.363 . S
C2017 H2020 0.929 . S
C2018 C2017 1.363 . S
C2018 C2024 1.428 1_565 S
H2019 C2015 0.930 . S
H2020 C2017 0.929 . S
S2021 N2022 1.613 . S
S2021 N2023 1.610 . S
N2022 S2021 1.613 . S
N2022 C2025 1.350 . S
N2023 S2021 1.610 . S
N2023 C2024 1.351 . S
C2024 C2018 1.428 1_545 S
C2024 N2023 1.351 . S
C2024 C2025 1.434 . S
C2025 C2016 1.429 . S
C2025 N2022 1.350 . S
C2025 C2024 1.434 . S
C2026 C2027 1.369 . S
C2026 C2028 1.419 . S
C2026 H2030 0.930 . S
C2027 C2026 1.369 . S
C2027 C2036 1.429 . S
C2028 C2026 1.419 . S
C2028 C2029 1.363 . S
C2028 H2031 0.929 . S
C2029 C2028 1.363 . S
C2029 C2035 1.428 . S
H2030 C2026 0.930 . S
H2031 C2028 0.929 . S
S2032 N2033 1.613 . S
S2032 N2034 1.610 . S
N2033 S2032 1.613 . S
N2033 C2036 1.350 . S
N2034 S2032 1.610 . S
N2034 C2035 1.351 . S
C2035 C2029 1.428 . S
C2035 N2034 1.351 . S
C2035 C2036 1.434 . S
C2036 C2027 1.429 . S
C2036 N2033 1.350 . S
C2036 C2035 1.434 . S
C2037 C2038 1.369 1_554 S
C2037 C2039 1.419 . S
C2037 H2041 0.930 . S
C2038 C2037 1.369 1_556 S
C2038 C2047 1.429 . S
C2039 C2037 1.419 . S
C2039 C2040 1.363 . S
C2039 H2042 0.929 . S
C2040 C2039 1.363 . S
C2040 C2046 1.428 1_554 S
H2041 C2037 0.930 . S
H2042 C2039 0.929 . S
S2043 N2044 1.613 . S
S2043 N2045 1.610 . S
N2044 S2043 1.613 . S
N2044 C2047 1.350 . S
N2045 S2043 1.610 . S
N2045 C2046 1.351 . S
C2046 C2040 1.428 1_556 S
C2046 N2045 1.351 . S
C2046 C2047 1.434 . S
C2047 C2038 1.429 . S
C2047 N2044 1.350 . S
C2047 C2046 1.434 . S
C2048 C2049 1.369 . S
C2048 C2050 1.419 . S
C2048 H2052 0.930 . S
C2049 C2048 1.369 . S
C2049 C2058 1.429 . S
C2050 C2048 1.419 . S
C2050 C2051 1.363 . S
C2050 H2053 0.929 . S
C2051 C2050 1.363 . S
C2051 C2057 1.428 . S
H2052 C2048 0.930 . S
H2053 C2050 0.929 . S
S2054 N2055 1.613 . S
S2054 N2056 1.610 . S
N2055 S2054 1.613 . S
N2055 C2058 1.350 . S
N2056 S2054 1.610 . S
N2056 C2057 1.351 . S
C2057 C2051 1.428 . S
C2057 N2056 1.351 . S
C2057 C2058 1.434 . S
C2058 C2049 1.429 . S
C2058 N2055 1.350 . S
C2058 C2057 1.434 . S
C2059 C2060 1.369 . S
C2059 C2061 1.419 . S
C2059 H2063 0.930 . S
C2060 C2059 1.369 . S
C2060 C2069 1.429 . S
C2061 C2059 1.419 . S
C2061 C2062 1.363 . S
C2061 H2064 0.929 . S
C2062 C2061 1.363 . S
C2062 C2068 1.428 . S
H2063 C2059 0.930 . S
H2064 C2061 0.929 . S
S2065 N2066 1.613 . S
S2065 N2067 1.610 . S
N2066 S2065 1.613 . S
N2066 C2069 1.350 . S
N2067 S2065 1.610 . S
N2067 C2068 1.351 . S
C2068 C2062 1.428 . S
C2068 N2067 1.351 . S
C2068 C2069 1.434 . S
C2069 C2060 1.429 . S
C2069 N2066 1.350 . S
C2069 C2068 1.434 . S
C2070 C2071 1.369 . S
C2070 C2072 1.419 . S
C2070 H2074 0.930 . S
C2071 C2070 1.369 . S
C2071 C2080 1.429 . S
C2072 C2070 1.419 . S
C2072 C2073 1.363 . S
C2072 H2075 0.929 . S
C2073 C2072 1.363 . S
C2073 C2079 1.428 . S
H2074 C2070 0.930 . S
H2075 C2072 0.929 . S
S2076 N2077 1.613 . S
S2076 N2078 1.610 . S
N2077 S2076 1.613 . S
N2077 C2080 1.350 . S
N2078 S2076 1.610 . S
N2078 C2079 1.351 . S
C2079 C2073 1.428 . S
C2079 N2078 1.351 . S
C2079 C2080 1.434 . S
C2080 C2071 1.429 . S
C2080 N2077 1.350 . S
C2080 C2079 1.434 . S
C2081 C2082 1.369 . S
C2081 C2083 1.419 . S
C2081 H2085 0.930 . S
C2082 C2081 1.369 . S
C2082 C2091 1.429 . S
C2083 C2081 1.419 . S
C2083 C2084 1.363 . S
C2083 H2086 0.929 . S
C2084 C2083 1.363 . S
C2084 C2090 1.428 . S
H2085 C2081 0.930 . S
H2086 C2083 0.929 . S
S2087 N2088 1.613 . S
S2087 N2089 1.610 . S
N2088 S2087 1.613 . S
N2088 C2091 1.350 . S
N2089 S2087 1.610 . S
N2089 C2090 1.351 . S
C2090 C2084 1.428 . S
C2090 N2089 1.351 . S
C2090 C2091 1.434 . S
C2091 C2082 1.429 . S
C2091 N2088 1.350 . S
C2091 C2090 1.434 . S
C2092 C2093 1.369 . S
C2092 C2094 1.419 . S
C2092 H2096 0.930 . S
C2093 C2092 1.369 . S
C2093 C2102 1.429 . S
C2094 C2092 1.419 . S
C2094 C2095 1.363 . S
C2094 H2097 0.929 . S
C2095 C2094 1.363 . S
C2095 C2101 1.428 . S
H2096 C2092 0.930 . S
H2097 C2094 0.929 . S
S2098 N2099 1.613 . S
S2098 N2100 1.610 . S
N2099 S2098 1.613 . S
N2099 C2102 1.350 . S
N2100 S2098 1.610 . S
N2100 C2101 1.351 . S
C2101 C2095 1.428 . S
C2101 N2100 1.351 . S
C2101 C2102 1.434 . S
C2102 C2093 1.429 . S
C2102 N2099 1.350 . S
C2102 C2101 1.434 . S
C2103 C2104 1.369 . S
C2103 C2105 1.419 . S
C2103 H2107 0.930 . S
C2104 C2103 1.369 . S
C2104 C2113 1.429 . S
C2105 C2103 1.419 . S
C2105 C2106 1.363 . S
C2105 H2108 0.929 . S
C2106 C2105 1.363 . S
C2106 C2112 1.428 . S
H2107 C2103 0.930 . S
H2108 C2105 0.929 . S
S2109 N2110 1.613 . S
S2109 N2111 1.610 . S
N2110 S2109 1.613 . S
N2110 C2113 1.350 . S
N2111 S2109 1.610 . S
N2111 C2112 1.351 . S
C2112 C2106 1.428 . S
C2112 N2111 1.351 . S
C2112 C2113 1.434 . S
C2113 C2104 1.429 . S
C2113 N2110 1.350 . S
C2113 C2112 1.434 . S
C2114 C2115 1.369 . S
C2114 C2116 1.419 . S
C2114 H2118 0.930 . S
C2115 C2114 1.369 . S
C2115 C2124 1.429 . S
C2116 C2114 1.419 . S
C2116 C2117 1.363 . S
C2116 H2119 0.929 . S
C2117 C2116 1.363 . S
C2117 C2123 1.428 . S
H2118 C2114 0.930 . S
H2119 C2116 0.929 . S
S2120 N2121 1.613 . S
S2120 N2122 1.610 . S
N2121 S2120 1.613 . S
N2121 C2124 1.350 . S
N2122 S2120 1.610 . S
N2122 C2123 1.351 . S
C2123 C2117 1.428 . S
C2123 N2122 1.351 . S
C2123 C2124 1.434 . S
C2124 C2115 1.429 . S
C2124 N2121 1.350 . S
C2124 C2123 1.434 . S
C2125 C2126 1.369 . S
C2125 C2127 1.419 . S
C2125 H2129 0.930 . S
C2126 C2125 1.369 . S
C2126 C2135 1.429 . S
C2127 C2125 1.419 . S
C2127 C2128 1.363 . S
C2127 H2130 0.929 . S
C2128 C2127 1.363 . S
C2128 C2134 1.428 . S
H2129 C2125 0.930 . S
H2130 C2127 0.929 . S
S2131 N2132 1.613 . S
S2131 N2133 1.610 . S
N2132 S2131 1.613 . S
N2132 C2135 1.350 1_455 S
N2133 S2131 1.610 . S
N2133 C2134 1.351 1_455 S
C2134 C2128 1.428 . S
C2134 N2133 1.351 1_655 S
C2134 C2135 1.434 . S
C2135 C2126 1.429 . S
C2135 N2132 1.350 1_655 S
C2135 C2134 1.434 . S
C2136 C2137 1.369 . S
C2136 C2138 1.419 . S
C2136 H2140 0.930 . S
C2137 C2136 1.369 . S
C2137 C2146 1.429 . S
C2138 C2136 1.419 . S
C2138 C2139 1.363 . S
C2138 H2141 0.929 . S
C2139 C2138 1.363 . S
C2139 C2145 1.428 . S
H2140 C2136 0.930 . S
H2141 C2138 0.929 . S
S2142 N2143 1.613 . S
S2142 N2144 1.610 . S
N2143 S2142 1.613 . S
N2143 C2146 1.350 . S
N2144 S2142 1.610 . S
N2144 C2145 1.351 . S
C2145 C2139 1.428 . S
C2145 N2144 1.351 . S
C2145 C2146 1.434 . S
C2146 C2137 1.429 . S
C2146 N2143 1.350 . S
C2146 C2145 1.434 . S
C2147 C2148 1.369 . S
C2147 C2149 1.419 . S
C2147 H2151 0.930 . S
C2148 C2147 1.369 . S
C2148 C2157 1.429 . S
C2149 C2147 1.419 . S
C2149 C2150 1.363 . S
C2149 H2152 0.929 . S
C2150 C2149 1.363 . S
C2150 C2156 1.428 . S
H2151 C2147 0.930 . S
H2152 C2149 0.929 . S
S2153 N2154 1.613 . S
S2153 N2155 1.610 . S
N2154 S2153 1.613 . S
N2154 C2157 1.350 . S
N2155 S2153 1.610 . S
N2155 C2156 1.351 . S
C2156 C2150 1.428 . S
C2156 N2155 1.351 . S
C2156 C2157 1.434 . S
C2157 C2148 1.429 . S
C2157 N2154 1.350 . S
C2157 C2156 1.434 . S
C2158 C2159 1.369 . S
C2158 C2160 1.419 . S
C2158 H2162 0.930 . S
C2159 C2158 1.369 . S
C2159 C2168 1.429 . S
C2160 C2158 1.419 . S
C2160 C2161 1.363 . S
C2160 H2163 0.929 . S
C2161 C2160 1.363 . S
C2161 C2167 1.428 . S
H2162 C2158 0.930 . S
H2163 C2160 0.929 . S
S2164 N2165 1.613 . S
S2164 N2166 1.610 . S
N2165 S2164 1.613 . S
N2165 C2168 1.350 . S
N2166 S2164 1.610 . S
N2166 C2167 1.351 . S
C2167 C2161 1.428 . S
C2167 N2166 1.351 . S
C2167 C2168 1.434 . S
C2168 C2159 1.429 . S
C2168 N2165 1.350 . S
C2168 C2167 1.434 . S
C2169 C2170 1.369 . S
C2169 C2171 1.419 . S
C2169 H2173 0.930 . S
C2170 C2169 1.369 . S
C2170 C2179 1.429 . S
C2171 C2169 1.419 . S
C2171 C2172 1.363 . S
C2171 H2174 0.929 . S
C2172 C2171 1.363 . S
C2172 C2178 1.428 . S
H2173 C2169 0.930 . S
H2174 C2171 0.929 . S
S2175 N2176 1.613 . S
S2175 N2177 1.610 . S
N2176 S2175 1.613 . S
N2176 C2179 1.350 . S
N2177 S2175 1.610 . S
N2177 C2178 1.351 . S
C2178 C2172 1.428 . S
C2178 N2177 1.351 . S
C2178 C2179 1.434 . S
C2179 C2170 1.429 . S
C2179 N2176 1.350 . S
C2179 C2178 1.434 . S
C2180 C2181 1.369 . S
C2180 C2182 1.419 . S
C2180 H2184 0.930 . S
C2181 C2180 1.369 . S
C2181 C2190 1.429 . S
C2182 C2180 1.419 . S
C2182 C2183 1.363 . S
C2182 H2185 0.929 . S
C2183 C2182 1.363 . S
C2183 C2189 1.428 . S
H2184 C2180 0.930 . S
H2185 C2182 0.929 . S
S2186 N2187 1.613 . S
S2186 N2188 1.610 . S
N2187 S2186 1.613 . S
N2187 C2190 1.350 . S
N2188 S2186 1.610 . S
N2188 C2189 1.351 . S
C2189 C2183 1.428 . S
C2189 N2188 1.351 . S
C2189 C2190 1.434 . S
C2190 C2181 1.429 . S
C2190 N2187 1.350 . S
C2190 C2189 1.434 . S
C2191 C2192 1.369 . S
C2191 C2193 1.419 . S
C2191 H2195 0.930 . S
C2192 C2191 1.369 . S
C2192 C2201 1.429 . S
C2193 C2191 1.419 . S
C2193 C2194 1.363 . S
C2193 H2196 0.929 . S
C2194 C2193 1.363 . S
C2194 C2200 1.428 . S
H2195 C2191 0.930 . S
H2196 C2193 0.929 . S
S2197 N2198 1.613 . S
S2197 N2199 1.610 . S
N2198 S2197 1.613 . S
N2198 C2201 1.350 . S
N2199 S2197 1.610 . S
N2199 C2200 1.351 . S
C2200 C2194 1.428 . S
C2200 N2199 1.351 . S
C2200 C2201 1.434 . S
C2201 C2192 1.429 . S
C2201 N2198 1.350 . S
C2201 C2200 1.434 . S
C2202 C2203 1.369 . S
C2202 C2204 1.419 . S
C2202 H2206 0.930 . S
C2203 C2202 1.369 . S
C2203 C2212 1.429 . S
C2204 C2202 1.419 . S
C2204 C2205 1.363 . S
C2204 H2207 0.929 . S
C2205 C2204 1.363 . S
C2205 C2211 1.428 . S
H2206 C2202 0.930 . S
H2207 C2204 0.929 . S
S2208 N2209 1.613 . S
S2208 N2210 1.610 . S
N2209 S2208 1.613 . S
N2209 C2212 1.350 . S
N2210 S2208 1.610 . S
N2210 C2211 1.351 . S
C2211 C2205 1.428 . S
C2211 N2210 1.351 . S
C2211 C2212 1.434 . S
C2212 C2203 1.429 . S
C2212 N2209 1.350 . S
C2212 C2211 1.434 . S
C2213 C2214 1.369 . S
C2213 C2215 1.419 . S
C2213 H2217 0.930 . S
C2214 C2213 1.369 . S
C2214 C2223 1.429 . S
C2215 C2213 1.419 . S
C2215 C2216 1.363 . S
C2215 H2218 0.929 . S
C2216 C2215 1.363 . S
C2216 C2222 1.428 . S
H2217 C2213 0.930 . S
H2218 C2215 0.929 . S
S2219 N2220 1.613 . S
S2219 N2221 1.610 . S
N2220 S2219 1.613 . S
N2220 C2223 1.350 . S
N2221 S2219 1.610 . S
N2221 C2222 1.351 . S
C2222 C2216 1.428 . S
C2222 N2221 1.351 . S
C2222 C2223 1.434 . S
C2223 C2214 1.429 . S
C2223 N2220 1.350 . S
C2223 C2222 1.434 . S
C2224 C2225 1.369 . S
C2224 C2226 1.419 . S
C2224 H2228 0.930 . S
C2225 C2224 1.369 . S
C2225 C2234 1.429 . S
C2226 C2224 1.419 . S
C2226 C2227 1.363 . S
C2226 H2229 0.929 . S
C2227 C2226 1.363 . S
C2227 C2233 1.428 . S
H2228 C2224 0.930 . S
H2229 C2226 0.929 . S
S2230 N2231 1.613 . S
S2230 N2232 1.610 . S
N2231 S2230 1.613 . S
N2231 C2234 1.350 . S
N2232 S2230 1.610 . S
N2232 C2233 1.351 . S
C2233 C2227 1.428 . S
C2233 N2232 1.351 . S
C2233 C2234 1.434 . S
C2234 C2225 1.429 . S
C2234 N2231 1.350 . S
C2234 C2233 1.434 . S
C2235 C2236 1.369 . S
C2235 C2237 1.419 . S
C2235 H2239 0.930 . S
C2236 C2235 1.369 . S
C2236 C2245 1.429 . S
C2237 C2235 1.419 . S
C2237 C2238 1.363 . S
C2237 H2240 0.929 . S
C2238 C2237 1.363 . S
C2238 C2244 1.428 . S
H2239 C2235 0.930 . S
H2240 C2237 0.929 . S
S2241 N2242 1.613 . S
S2241 N2243 1.610 . S
N2242 S2241 1.613 . S
N2242 C2245 1.350 . S
N2243 S2241 1.610 . S
N2243 C2244 1.351 . S
C2244 C2238 1.428 . S
C2244 N2243 1.351 . S
C2244 C2245 1.434 . S
C2245 C2236 1.429 . S
C2245 N2242 1.350 . S
C2245 C2244 1.434 . S
C2246 C2247 1.369 . S
C2246 C2248 1.419 . S
C2246 H2250 0.930 . S
C2247 C2246 1.369 . S
C2247 C2256 1.429 1_556 S
C2248 C2246 1.419 . S
C2248 C2249 1.363 . S
C2248 H2251 0.929 . S
C2249 C2248 1.363 . S
C2249 C2255 1.428 1_556 S
H2250 C2246 0.930 . S
H2251 C2248 0.929 . S
S2252 N2253 1.613 . S
S2252 N2254 1.610 . S
N2253 S2252 1.613 . S
N2253 C2256 1.350 . S
N2254 S2252 1.610 . S
N2254 C2255 1.351 . S
C2255 C2249 1.428 1_554 S
C2255 N2254 1.351 . S
C2255 C2256 1.434 . S
C2256 C2247 1.429 1_554 S
C2256 N2253 1.350 . S
C2256 C2255 1.434 . S
C2257 C2258 1.369 . S
C2257 C2259 1.419 . S
C2257 H2261 0.935 . S
C2258 C2257 1.369 . S
C2258 C2267 1.429 . S
C2259 C2257 1.419 . S
C2259 C2260 1.363 . S
C2259 H2262 0.929 . S
C2260 C2259 1.363 . S
C2260 C2266 1.428 . S
H2261 C2257 0.935 . S
H2262 C2259 0.929 . S
S2263 N2264 1.613 . S
S2263 N2265 1.610 . S
N2264 S2263 1.613 . S
N2264 C2267 1.350 . S
N2265 S2263 1.610 . S
N2265 C2266 1.351 . S
C2266 C2260 1.428 . S
C2266 N2265 1.351 . S
C2266 C2267 1.434 . S
C2267 C2258 1.429 . S
C2267 N2264 1.350 . S
C2267 C2266 1.434 . S
C2268 C2269 1.369 . S
C2268 C2270 1.419 . S
C2268 H2272 0.930 . S
C2269 C2268 1.369 . S
C2269 C2278 1.429 . S
C2270 C2268 1.419 . S
C2270 C2271 1.363 . S
C2270 H2273 0.929 . S
C2271 C2270 1.363 . S
C2271 C2277 1.428 . S
H2272 C2268 0.930 . S
H2273 C2270 0.929 . S
S2274 N2275 1.613 . S
S2274 N2276 1.610 . S
N2275 S2274 1.613 . S
N2275 C2278 1.350 . S
N2276 S2274 1.610 . S
N2276 C2277 1.351 . S
C2277 C2271 1.428 . S
C2277 N2276 1.351 . S
C2277 C2278 1.434 . S
C2278 C2269 1.429 . S
C2278 N2275 1.350 . S
C2278 C2277 1.434 . S
C2279 C2280 1.369 . S
C2279 C2281 1.419 . S
C2279 H2283 0.930 . S
C2280 C2279 1.369 . S
C2280 C2289 1.429 . S
C2281 C2279 1.419 . S
C2281 C2282 1.363 . S
C2281 H2284 0.929 . S
C2282 C2281 1.363 . S
C2282 C2288 1.428 . S
H2283 C2279 0.930 . S
H2284 C2281 0.929 . S
S2285 N2286 1.613 . S
S2285 N2287 1.610 . S
N2286 S2285 1.613 . S
N2286 C2289 1.350 . S
N2287 S2285 1.610 . S
N2287 C2288 1.351 . S
C2288 C2282 1.428 . S
C2288 N2287 1.351 . S
C2288 C2289 1.434 . S
C2289 C2280 1.429 . S
C2289 N2286 1.350 . S
C2289 C2288 1.434 . S
C2290 C2291 1.369 1_556 S
C2290 C2292 1.419 . S
C2290 H2294 0.930 . S
C2291 C2290 1.369 1_554 S
C2291 C2300 1.429 . S
C2292 C2290 1.419 . S
C2292 C2293 1.363 1_556 S
C2292 H2295 0.929 . S
C2293 C2292 1.363 1_554 S
C2293 C2299 1.428 . S
H2294 C2290 0.930 . S
H2295 C2292 0.929 . S
S2296 N2297 1.613 . S
S2296 N2298 1.610 . S
N2297 S2296 1.613 . S
N2297 C2300 1.350 . S
N2298 S2296 1.610 . S
N2298 C2299 1.351 . S
C2299 C2293 1.428 . S
C2299 N2298 1.351 . S
C2299 C2300 1.434 . S
C2300 C2291 1.429 . S
C2300 N2297 1.350 . S
C2300 C2299 1.434 . S
C2301 C2302 1.369 . S
C2301 C2303 1.419 . S
C2301 H2305 0.930 . S
C2302 C2301 1.369 . S
C2302 C2311 1.429 1_554 S
C2303 C2301 1.419 . S
C2303 C2304 1.363 . S
C2303 H2306 0.929 . S
C2304 C2303 1.363 . S
C2304 C2310 1.428 1_554 S
H2305 C2301 0.930 . S
H2306 C2303 0.929 . S
S2307 N2308 1.613 . S
S2307 N2309 1.610 . S
N2308 S2307 1.613 . S
N2308 C2311 1.350 . S
N2309 S2307 1.610 . S
N2309 C2310 1.351 . S
C2310 C2304 1.428 1_556 S
C2310 N2309 1.351 . S
C2310 C2311 1.434 . S
C2311 C2302 1.429 1_556 S
C2311 N2308 1.350 . S
C2311 C2310 1.434 . S
C2312 C2313 1.369 . S
C2312 C2314 1.419 . S
C2312 H2316 0.930 . S
C2313 C2312 1.369 . S
C2313 C2322 1.429 . S
C2314 C2312 1.419 . S
C2314 C2315 1.363 . S
C2314 H2317 0.929 . S
C2315 C2314 1.363 . S
C2315 C2321 1.428 . S
H2316 C2312 0.930 . S
H2317 C2314 0.929 . S
S2318 N2319 1.613 . S
S2318 N2320 1.610 . S
N2319 S2318 1.613 . S
N2319 C2322 1.350 . S
N2320 S2318 1.610 . S
N2320 C2321 1.351 . S
C2321 C2315 1.428 . S
C2321 N2320 1.351 . S
C2321 C2322 1.434 . S
C2322 C2313 1.429 . S
C2322 N2319 1.350 . S
C2322 C2321 1.434 . S
C2323 C2324 1.369 . S
C2323 C2325 1.419 . S
C2323 H2327 0.930 . S
C2324 C2323 1.369 . S
C2324 C2333 1.429 . S
C2325 C2323 1.419 . S
C2325 C2326 1.363 . S
C2325 H2328 0.929 . S
C2326 C2325 1.363 . S
C2326 C2332 1.428 . S
H2327 C2323 0.930 . S
H2328 C2325 0.929 . S
S2329 N2330 1.613 . S
S2329 N2331 1.610 . S
N2330 S2329 1.613 . S
N2330 C2333 1.350 . S
N2331 S2329 1.610 . S
N2331 C2332 1.351 . S
C2332 C2326 1.428 . S
C2332 N2331 1.351 . S
C2332 C2333 1.434 . S
C2333 C2324 1.429 . S
C2333 N2330 1.350 . S
C2333 C2332 1.434 . S
C2334 C2335 1.369 . S
C2334 C2336 1.419 . S
C2334 H2338 0.930 . S
C2335 C2334 1.369 . S
C2335 C2344 1.429 . S
C2336 C2334 1.419 . S
C2336 C2337 1.363 . S
C2336 H2339 0.929 . S
C2337 C2336 1.363 . S
C2337 C2343 1.428 . S
H2338 C2334 0.930 . S
H2339 C2336 0.929 . S
S2340 N2341 1.613 . S
S2340 N2342 1.610 . S
N2341 S2340 1.613 . S
N2341 C2344 1.350 . S
N2342 S2340 1.610 . S
N2342 C2343 1.351 . S
C2343 C2337 1.428 . S
C2343 N2342 1.351 . S
C2343 C2344 1.434 . S
C2344 C2335 1.429 . S
C2344 N2341 1.350 . S
C2344 C2343 1.434 . S
C2345 C2346 1.369 . S
C2345 C2347 1.419 . S
C2345 H2349 0.930 . S
C2346 C2345 1.369 . S
C2346 C2355 1.429 . S
C2347 C2345 1.419 . S
C2347 C2348 1.363 . S
C2347 H2350 0.929 . S
C2348 C2347 1.363 . S
C2348 C2354 1.428 . S
H2349 C2345 0.930 . S
H2350 C2347 0.929 . S
S2351 N2352 1.613 . S
S2351 N2353 1.610 . S
N2352 S2351 1.613 . S
N2352 C2355 1.350 . S
N2353 S2351 1.610 . S
N2353 C2354 1.351 . S
C2354 C2348 1.428 . S
C2354 N2353 1.351 . S
C2354 C2355 1.434 . S
C2355 C2346 1.429 . S
C2355 N2352 1.350 . S
C2355 C2354 1.434 . S
C2356 C2357 1.369 . S
C2356 C2358 1.419 . S
C2356 H2360 0.930 . S
C2357 C2356 1.369 . S
C2357 C2366 1.429 . S
C2358 C2356 1.419 . S
C2358 C2359 1.363 . S
C2358 H2361 0.929 . S
C2359 C2358 1.363 . S
C2359 C2365 1.428 . S
H2360 C2356 0.930 . S
H2361 C2358 0.929 . S
S2362 N2363 1.613 . S
S2362 N2364 1.610 . S
N2363 S2362 1.613 . S
N2363 C2366 1.350 . S
N2364 S2362 1.610 . S
N2364 C2365 1.351 . S
C2365 C2359 1.428 . S
C2365 N2364 1.351 . S
C2365 C2366 1.434 . S
C2366 C2357 1.429 . S
C2366 N2363 1.350 . S
C2366 C2365 1.434 . S
C2367 C2368 1.369 . S
C2367 C2369 1.419 . S
C2367 H2371 0.930 . S
C2368 C2367 1.369 . S
C2368 C2377 1.429 . S
C2369 C2367 1.419 . S
C2369 C2370 1.363 . S
C2369 H2372 0.929 . S
C2370 C2369 1.363 . S
C2370 C2376 1.428 . S
H2371 C2367 0.930 . S
H2372 C2369 0.929 . S
S2373 N2374 1.613 . S
S2373 N2375 1.610 . S
N2374 S2373 1.613 . S
N2374 C2377 1.350 . S
N2375 S2373 1.610 . S
N2375 C2376 1.351 . S
C2376 C2370 1.428 . S
C2376 N2375 1.351 . S
C2376 C2377 1.434 . S
C2377 C2368 1.429 . S
C2377 N2374 1.350 . S
C2377 C2376 1.434 . S
C2378 C2379 1.369 . S
C2378 C2380 1.419 . S
C2378 H2382 0.930 . S
C2379 C2378 1.369 . S
C2379 C2388 1.429 . S
C2380 C2378 1.419 . S
C2380 C2381 1.363 . S
C2380 H2383 0.929 . S
C2381 C2380 1.363 . S
C2381 C2387 1.428 . S
H2382 C2378 0.930 . S
H2383 C2380 0.929 . S
S2384 N2385 1.613 . S
S2384 N2386 1.610 . S
N2385 S2384 1.613 . S
N2385 C2388 1.350 . S
N2386 S2384 1.610 . S
N2386 C2387 1.351 . S
C2387 C2381 1.428 . S
C2387 N2386 1.351 . S
C2387 C2388 1.434 . S
C2388 C2379 1.429 . S
C2388 N2385 1.350 . S
C2388 C2387 1.434 . S
C2389 C2390 1.369 . S
C2389 C2391 1.419 . S
C2389 H2393 0.930 . S
C2390 C2389 1.369 . S
C2390 C2399 1.429 . S
C2391 C2389 1.419 . S
C2391 C2392 1.363 . S
C2391 H2394 0.929 . S
C2392 C2391 1.363 . S
C2392 C2398 1.428 . S
H2393 C2389 0.930 . S
H2394 C2391 0.929 . S
S2395 N2396 1.613 . S
S2395 N2397 1.610 . S
N2396 S2395 1.613 . S
N2396 C2399 1.350 . S
N2397 S2395 1.610 . S
N2397 C2398 1.351 . S
C2398 C2392 1.428 . S
C2398 N2397 1.351 . S
C2398 C2399 1.434 . S
C2399 C2390 1.429 . S
C2399 N2396 1.350 . S
C2399 C2398 1.434 . S
C1697 C39 1.876 . S
C1699 C198 1.880 . S
C1708 C145 1.881 . S
C1710 C92 1.880 . S
C1719 C251 1.869 . S
C1721 C410 1.873 . S
C1730 C357 1.874 . S
C1732 C304 1.872 . S
C1741 C463 1.881 . S
C1743 C622 1.877 . S
C1752 C569 1.878 . S
C1754 C516 1.877 . S
C1763 C675 1.868 . S
C1765 C834 1.871 . S
C1774 C728 1.868 . S
C1776 C781 1.871 . S
C1785 C1046 1.877 . S
C1787 C887 1.880 . S
C1796 C940 1.879 . S
C1798 C993 1.877 . S
C1807 C1099 1.868 . S
C1809 C1258 1.870 . S
C1818 C1205 1.874 . S
C1820 C1152 1.871 . S
C1829 C1311 1.879 . S
C1831 C1470 1.881 . S
C1840 C1417 1.878 . S
C1842 C1364 1.881 . S
C1851 C1523 1.870 . S
C1853 C1682 1.873 . S
C1862 C1576 1.870 . S
C1864 C1629 1.873 . S
C1873 C658 1.529 . S
C1875 C22 1.536 . S
C1884 C75 1.536 . S
C1886 C1135 1.530 . S
C1895 C128 1.533 . S
C1897 C340 1.533 . S
C1906 C1665 1.532 . S
C1908 C181 1.534 . S
C1917 C234 1.533 . S
C1919 C446 1.533 . S
C1928 C923 1.537 . S
C1930 C287 1.530 . S
C1939 C1453 1.534 . S
C1941 C393 1.532 . S
C1950 C1559 1.534 . S
C1952 C499 1.533 . S
C1961 C764 1.529 . S
C1963 C552 1.536 . S
C1972 C1241 1.533 . S
C1974 C605 1.533 . S
C1983 C711 1.530 . S
C1985 C1347 1.536 . S
C1994 C1029 1.534 . S
C1996 C817 1.532 . S
C2005 C1506 1.530 . S
C2007 C870 1.536 . S
C2016 C1188 1.532 . S
C2018 C976 1.534 . S
C2027 C1294 1.537 . S
C2029 C1082 1.530 . S
C2038 C1400 1.533 . S
C2040 C1612 1.533 . S
C2049 C568 2.025 . S
C2051 C38 2.032 . S
C2060 C91 2.032 . S
C2062 C621 2.026 . S
C2071 C462 2.033 . S
C2073 C144 2.028 . S
C2082 C515 2.026 . S
C2084 C197 2.032 . S
C2093 C250 2.040 . S
C2095 C780 2.045 . S
C2104 C303 2.039 . S
C2106 C833 2.045 . S
C2115 C674 2.044 . S
C2117 C356 2.040 . S
C2126 C409 2.041 . S
C2128 C727 2.045 . S
C2137 C1416 2.025 . S
C2139 C886 2.030 . S
C2148 C1469 2.031 . S
C2150 C939 2.030 . S
C2159 C992 2.025 . S
C2161 C1310 2.031 . S
C2170 C1045 2.030 . S
C2172 C1363 2.027 . S
C2181 C1098 2.046 . S
C2183 C1628 2.041 . S
C2192 C1151 2.045 . S
C2194 C1681 2.040 . S
C2203 C1522 2.040 . S
C2205 C1204 2.042 . S
C2214 C1575 2.046 . S
C2216 C1257 2.039 . S
C2225 C29 1.574 . S
C2227 C1354 1.570 . S
C2236 C1301 1.571 . S
C2238 C82 1.572 . S
C2247 C135 1.572 . S
C2249 C1460 1.570 . S
C2258 C188 1.574 . S
C2260 C1407 1.570 . S
C2269 C241 1.573 . S
C2271 C1566 1.577 . S
C2280 C294 1.575 . S
C2282 C1513 1.576 . S
C2291 C1672 1.573 . S
C2293 C347 1.577 . S
C2302 C1619 1.577 . S
C2304 C400 1.574 . S
C2313 C930 1.569 . S
C2315 C453 1.573 . S
C2324 C877 1.570 . S
C2326 C506 1.573 . S
C2335 C559 1.571 . S
C2337 C1036 1.573 . S
C2346 C612 1.572 . S
C2348 C983 1.570 . S
C2357 C1142 1.577 . S
C2359 C665 1.573 . S
C2368 C718 1.573 . S
C2370 C1089 1.577 . S
C2379 C771 1.574 . S
C2381 C1248 1.575 . S
C2390 C824 1.577 . S
C2392 C1195 1.574 . S
