# Generated by pormake.
# Topology wlk, (5)-cn, num edge types: 1
# Building blocks:
#     Node 0, Type 0, BuildingBlock: BEQFEK_clean_sbu_0, # of connection points: 5
#     Node 1, Type 0, BuildingBlock: BEQFEK_clean_sbu_0, # of connection points: 5
#     Node 2, Type 0, BuildingBlock: BEQFEK_clean_sbu_0, # of connection points: 5
#     Node 3, Type 0, BuildingBlock: BEQFEK_clean_sbu_0, # of connection points: 5
#     Node 4, Type 0, BuildingBlock: BEQFEK_clean_sbu_0, # of connection points: 5
#     Node 5, Type 0, BuildingBlock: BEQFEK_clean_sbu_0, # of connection points: 5
#     Node 6, Type 0, BuildingBlock: BEQFEK_clean_sbu_0, # of connection points: 5
#     Node 7, Type 0, BuildingBlock: BEQFEK_clean_sbu_0, # of connection points: 5
#     Node 8, Type 0, BuildingBlock: BEQFEK_clean_sbu_0, # of connection points: 5
#     Node 9, Type 0, BuildingBlock: BEQFEK_clean_sbu_0, # of connection points: 5
#     Node 10, Type 0, BuildingBlock: BEQFEK_clean_sbu_0, # of connection points: 5
#     Node 11, Type 0, BuildingBlock: BEQFEK_clean_sbu_0, # of connection points: 5
#     Node 12, Type 0, BuildingBlock: BEQFEK_clean_sbu_0, # of connection points: 5
#     Node 13, Type 0, BuildingBlock: BEQFEK_clean_sbu_0, # of connection points: 5
#     Node 14, Type 0, BuildingBlock: BEQFEK_clean_sbu_0, # of connection points: 5
#     Node 15, Type 0, BuildingBlock: BEQFEK_clean_sbu_0, # of connection points: 5
#     Node 16, Type 0, BuildingBlock: BEQFEK_clean_sbu_0, # of connection points: 5
#     Node 17, Type 0, BuildingBlock: BEQFEK_clean_sbu_0, # of connection points: 5
#     Edge 18, Type (0, 0), BuildingBlock: MIFKUJ_clean_linker_0, # of connection points: 2
#     Edge 19, Type (0, 0), BuildingBlock: MIFKUJ_clean_linker_0, # of connection points: 2
#     Edge 20, Type (0, 0), BuildingBlock: MIFKUJ_clean_linker_0, # of connection points: 2
#     Edge 21, Type (0, 0), BuildingBlock: MIFKUJ_clean_linker_0, # of connection points: 2
#     Edge 22, Type (0, 0), BuildingBlock: MIFKUJ_clean_linker_0, # of connection points: 2
#     Edge 23, Type (0, 0), BuildingBlock: MIFKUJ_clean_linker_0, # of connection points: 2
#     Edge 24, Type (0, 0), BuildingBlock: MIFKUJ_clean_linker_0, # of connection points: 2
#     Edge 25, Type (0, 0), BuildingBlock: MIFKUJ_clean_linker_0, # of connection points: 2
#     Edge 26, Type (0, 0), BuildingBlock: MIFKUJ_clean_linker_0, # of connection points: 2
#     Edge 27, Type (0, 0), BuildingBlock: MIFKUJ_clean_linker_0, # of connection points: 2
#     Edge 28, Type (0, 0), BuildingBlock: MIFKUJ_clean_linker_0, # of connection points: 2
#     Edge 29, Type (0, 0), BuildingBlock: MIFKUJ_clean_linker_0, # of connection points: 2
#     Edge 30, Type (0, 0), BuildingBlock: MIFKUJ_clean_linker_0, # of connection points: 2
#     Edge 31, Type (0, 0), BuildingBlock: MIFKUJ_clean_linker_0, # of connection points: 2
#     Edge 32, Type (0, 0), BuildingBlock: MIFKUJ_clean_linker_0, # of connection points: 2
#     Edge 33, Type (0, 0), BuildingBlock: MIFKUJ_clean_linker_0, # of connection points: 2
#     Edge 34, Type (0, 0), BuildingBlock: MIFKUJ_clean_linker_0, # of connection points: 2
#     Edge 35, Type (0, 0), BuildingBlock: MIFKUJ_clean_linker_0, # of connection points: 2
#     Edge 36, Type (0, 0), BuildingBlock: MIFKUJ_clean_linker_0, # of connection points: 2
#     Edge 37, Type (0, 0), BuildingBlock: MIFKUJ_clean_linker_0, # of connection points: 2
#     Edge 38, Type (0, 0), BuildingBlock: MIFKUJ_clean_linker_0, # of connection points: 2
#     Edge 39, Type (0, 0), BuildingBlock: MIFKUJ_clean_linker_0, # of connection points: 2
#     Edge 40, Type (0, 0), BuildingBlock: MIFKUJ_clean_linker_0, # of connection points: 2
#     Edge 41, Type (0, 0), BuildingBlock: MIFKUJ_clean_linker_0, # of connection points: 2
#     Edge 42, Type (0, 0), BuildingBlock: MIFKUJ_clean_linker_0, # of connection points: 2
#     Edge 43, Type (0, 0), BuildingBlock: MIFKUJ_clean_linker_0, # of connection points: 2
#     Edge 44, Type (0, 0), BuildingBlock: MIFKUJ_clean_linker_0, # of connection points: 2
#     Edge 45, Type (0, 0), BuildingBlock: MIFKUJ_clean_linker_0, # of connection points: 2
#     Edge 46, Type (0, 0), BuildingBlock: MIFKUJ_clean_linker_0, # of connection points: 2
#     Edge 47, Type (0, 0), BuildingBlock: MIFKUJ_clean_linker_0, # of connection points: 2
#     Edge 48, Type (0, 0), BuildingBlock: MIFKUJ_clean_linker_0, # of connection points: 2
#     Edge 49, Type (0, 0), BuildingBlock: MIFKUJ_clean_linker_0, # of connection points: 2
#     Edge 50, Type (0, 0), BuildingBlock: MIFKUJ_clean_linker_0, # of connection points: 2
#     Edge 51, Type (0, 0), BuildingBlock: MIFKUJ_clean_linker_0, # of connection points: 2
#     Edge 52, Type (0, 0), BuildingBlock: MIFKUJ_clean_linker_0, # of connection points: 2
#     Edge 53, Type (0, 0), BuildingBlock: MIFKUJ_clean_linker_0, # of connection points: 2
#     Edge 54, Type (0, 0), BuildingBlock: MIFKUJ_clean_linker_0, # of connection points: 2
#     Edge 55, Type (0, 0), BuildingBlock: MIFKUJ_clean_linker_0, # of connection points: 2
#     Edge 56, Type (0, 0), BuildingBlock: MIFKUJ_clean_linker_0, # of connection points: 2
#     Edge 57, Type (0, 0), BuildingBlock: MIFKUJ_clean_linker_0, # of connection points: 2
#     Edge 58, Type (0, 0), BuildingBlock: MIFKUJ_clean_linker_0, # of connection points: 2
#     Edge 59, Type (0, 0), BuildingBlock: MIFKUJ_clean_linker_0, # of connection points: 2
#     Edge 60, Type (0, 0), BuildingBlock: MIFKUJ_clean_linker_0, # of connection points: 2
#     Edge 61, Type (0, 0), BuildingBlock: MIFKUJ_clean_linker_0, # of connection points: 2
#     Edge 62, Type (0, 0), BuildingBlock: MIFKUJ_clean_linker_0, # of connection points: 2
# Relax obj value: 0.045
# Max RMSD: 0.100
# Mean RMSD: 0.100
data_MOF--net-wlk--node1-BEQFEK_clean_sbu_0--edge1-MIFKUJ_clean_linker_0
_symmetry_space_group_name_H-M    P1
_symmetry_Int_Tables_number       1
_symmetry_cell_setting            triclinic
loop_
_symmetry_equiv_pos_as_xyz
'x, y, z'
_cell_length_a     81.982126
_cell_length_b     81.99071
_cell_length_c     39.449592
_cell_angle_alpha  89.972819
_cell_angle_beta   90.00843
_cell_angle_gamma 120.01537
loop_
_atom_site_label
_atom_site_type_symbol
_atom_site_fract_x
_atom_site_fract_y
_atom_site_fract_z
_atom_type_partial_charge
Co0 Co 0.21484 0.2697 0.15397 0.0
Co1 Co 0.18221 0.26462 0.10547 0.0
C2 C 0.19434 0.23601 0.10767 0.0
O3 O 0.20668 0.24576 0.12982 0.0
O4 O 0.18324 0.24127 0.09594 0.0
C5 C 0.22759 0.25683 0.20892 0.0
O6 O 0.21071 0.24203 0.20546 0.0
C7 C 0.14436 0.24817 0.07527 0.0
C8 C 0.14535 0.27308 0.05169 0.0
C9 C 0.13373 0.25385 0.05637 0.0
N10 N 0.16138 0.26331 0.08122 0.0
N11 N 0.16189 0.27814 0.06695 0.0
C12 C 0.1382 0.2291 0.08978 0.0
H13 H 0.14648 0.23036 0.11289 0.0
H14 H 0.12296 0.22171 0.09604 0.0
H15 H 0.14076 0.22061 0.07086 0.0
C16 C 0.19262 0.27749 0.20317 0.0
N17 N 0.19445 0.2712 0.17268 0.0
N18 N 0.18053 0.26886 0.15282 0.0
C19 C 0.16923 0.27341 0.17039 0.0
C20 C 0.17651 0.27904 0.2029 0.0
C21 C 0.2077 0.28484 0.22977 0.0
H22 H 0.22178 0.29221 0.21763 0.0
H23 H 0.20656 0.27282 0.24463 0.0
H24 H 0.2065 0.29475 0.24733 0.0
O25 O 0.22849 0.29071 0.12189 0.0
O26 O 0.20555 0.28628 0.0863 0.0
H27 H 0.15729 0.28509 0.13682 0.0
H28 H 0.14404 0.27549 0.17552 0.0
C29 C 0.15248 0.27353 0.15565 0.0
H30 H 0.14343 0.26002 0.14242 0.0
H31 H 0.17351 0.29174 0.0678 0.0
O32 O 0.23245 0.27097 0.18966 0.0
C33 C 0.22278 0.29529 0.09544 0.0
Co34 Co 0.733 0.94684 0.15743 0.0
Co35 Co 0.73776 0.91987 0.107 0.0
C36 C 0.76653 0.96068 0.11048 0.0
O37 O 0.75686 0.96297 0.13319 0.0
O38 O 0.76126 0.94443 0.09817 0.0
C39 C 0.73625 0.97932 0.18777 0.0
O40 O 0.74089 0.98542 0.1565 0.0
C41 C 0.75263 0.89711 0.07516 0.0
C42 C 0.72835 0.87778 0.04349 0.0
C43 C 0.74667 0.88263 0.05157 0.0
N44 N 0.73842 0.90057 0.0807 0.0
N45 N 0.72394 0.88885 0.06183 0.0
C46 C 0.77179 0.90819 0.09064 0.0
H47 H 0.77379 0.9214 0.1021 0.0
H48 H 0.77334 0.89969 0.11094 0.0
H49 H 0.78281 0.91139 0.07127 0.0
C50 C 0.72516 0.91621 0.20489 0.0
N51 N 0.7315 0.92465 0.17466 0.0
N52 N 0.73341 0.91313 0.15398 0.0
C53 C 0.7283 0.89686 0.17061 0.0
C54 C 0.72292 0.89826 0.2035 0.0
C55 C 0.71839 0.9241 0.23221 0.0
H56 H 0.70919 0.929 0.22092 0.0
H57 H 0.7307 0.9365 0.24371 0.0
H58 H 0.71042 0.91366 0.25229 0.0
O59 O 0.71188 0.94013 0.12594 0.0
O60 O 0.71612 0.92202 0.08922 0.0
H61 H 0.71622 0.87447 0.13445 0.0
H62 H 0.7239 0.86853 0.17327 0.0
C63 C 0.7272 0.87983 0.15446 0.0
H64 H 0.74086 0.88379 0.14227 0.0
H65 H 0.71113 0.8887 0.0609 0.0
O66 O 0.73178 0.96243 0.19459 0.0
C67 C 0.70717 0.93017 0.0991 0.0
Co68 Co 0.05524 0.78488 0.15237 0.0
Co69 Co 0.08451 0.81771 0.10587 0.0
C70 C 0.04384 0.80685 0.10636 0.0
O71 O 0.0405 0.79423 0.12836 0.0
O72 O 0.06046 0.8175 0.09512 0.0
C73 C 0.02679 0.76996 0.20293 0.0
O74 O 0.02698 0.78585 0.19735 0.0
C75 C 0.10725 0.85562 0.07567 0.0
C76 C 0.13218 0.85453 0.05756 0.0
C77 C 0.12445 0.86616 0.0593 0.0
N78 N 0.10497 0.83858 0.08316 0.0
N79 N 0.11989 0.83801 0.07205 0.0
C80 C 0.09368 0.86188 0.08595 0.0
H81 H 0.08611 0.85443 0.10936 0.0
H82 H 0.10109 0.87733 0.09015 0.0
H83 H 0.08314 0.85829 0.06547 0.0
C84 C 0.08451 0.80547 0.20345 0.0
N85 N 0.07713 0.80453 0.17257 0.0
N86 N 0.08959 0.81839 0.15359 0.0
C87 C 0.10541 0.82863 0.17208 0.0
C88 C 0.10275 0.82066 0.20425 0.0
C89 C 0.07469 0.79114 0.23075 0.0
H90 H 0.06113 0.7904 0.23677 0.0
H91 H 0.08317 0.79469 0.25431 0.0
H92 H 0.07155 0.77708 0.22151 0.0
O93 O 0.06239 0.7713 0.1196 0.0
O94 O 0.08257 0.79445 0.08608 0.0
H95 H 0.129 0.83752 0.13911 0.0
H96 H 0.13438 0.8511 0.17754 0.0
C97 C 0.12358 0.84382 0.15764 0.0
H98 H 0.1211 0.85425 0.14415 0.0
H99 H 0.12174 0.82637 0.07462 0.0
O100 O 0.03824 0.76663 0.18681 0.0
C101 C 0.0734 0.77704 0.09408 0.0
Co102 Co 0.78772 0.73536 0.84788 0.0
Co103 Co 0.81958 0.73793 0.89597 0.0
C104 C 0.80984 0.76868 0.89309 0.0
O105 O 0.79762 0.75994 0.87021 0.0
O106 O 0.81946 0.76187 0.90579 0.0
C107 C 0.77331 0.74852 0.79545 0.0
O108 O 0.78926 0.76426 0.80051 0.0
C109 C 0.85793 0.75203 0.92426 0.0
C110 C 0.85302 0.72802 0.95667 0.0
C111 C 0.86673 0.74604 0.94728 0.0
N112 N 0.83992 0.73817 0.92044 0.0
N113 N 0.83717 0.72384 0.93971 0.0
C114 C 0.86608 0.77093 0.90771 0.0
H115 H 0.8548 0.77326 0.89762 0.0
H116 H 0.87511 0.77161 0.8862 0.0
H117 H 0.87495 0.78223 0.92598 0.0
C118 C 0.80819 0.72532 0.79862 0.0
N119 N 0.80715 0.73215 0.82904 0.0
N120 N 0.82065 0.73331 0.84875 0.0
C121 C 0.83068 0.7271 0.83135 0.0
C122 C 0.82305 0.72176 0.799 0.0
C123 C 0.7942 0.72086 0.77071 0.0
H124 H 0.79392 0.73381 0.76376 0.0
H125 H 0.79776 0.71545 0.74777 0.0
H126 H 0.77994 0.71031 0.77979 0.0
O127 O 0.77332 0.7153 0.88166 0.0
O128 O 0.79597 0.71673 0.91472 0.0
H129 H 0.85078 0.71725 0.82883 0.0
H130 H 0.85705 0.73709 0.85653 0.0
C131 C 0.84525 0.72359 0.84709 0.0
H132 H 0.83901 0.71401 0.86912 0.0
H133 H 0.82432 0.71131 0.94191 0.0
O134 O 0.76985 0.73397 0.81252 0.0
C135 C 0.77863 0.70937 0.90685 0.0
Co136 Co 0.26688 0.05325 0.84473 0.0
Co137 Co 0.2641 0.08248 0.89269 0.0
C138 C 0.23392 0.04177 0.8915 0.0
O139 O 0.24255 0.03831 0.86834 0.0
O140 O 0.24056 0.0583 0.90362 0.0
C141 C 0.25358 0.02395 0.79508 0.0
O142 O 0.23706 0.0215 0.80399 0.0
C143 C 0.25024 0.10652 0.92325 0.0
C144 C 0.27607 0.1279 0.94904 0.0
C145 C 0.25731 0.12246 0.94377 0.0
N146 N 0.26425 0.10286 0.9168 0.0
N147 N 0.27963 0.11578 0.93219 0.0
C148 C 0.23041 0.0945 0.91117 0.0
H149 H 0.22779 0.08047 0.9031 0.0
H150 H 0.22803 0.10135 0.88896 0.0
H151 H 0.22031 0.09293 0.93139 0.0
C152 C 0.27592 0.08337 0.79491 0.0
N153 N 0.26956 0.07564 0.82566 0.0
N154 N 0.26812 0.08785 0.84526 0.0
C155 C 0.27351 0.1038 0.82741 0.0
C156 C 0.27865 0.10153 0.79487 0.0
C157 C 0.28206 0.07455 0.76828 0.0
H158 H 0.2909 0.06935 0.78005 0.0
H159 H 0.26945 0.06226 0.75729 0.0
H160 H 0.29022 0.08454 0.74769 0.0
O161 O 0.28736 0.05941 0.87778 0.0
O162 O 0.28557 0.08038 0.91093 0.0
H163 H 0.28654 0.12737 0.86095 0.0
H164 H 0.27782 0.13198 0.82207 0.0
C165 C 0.27501 0.12134 0.84199 0.0
H166 H 0.26168 0.11782 0.85509 0.0
H167 H 0.29254 0.11616 0.93159 0.0
O168 O 0.26836 0.03699 0.80899 0.0
C169 C 0.29319 0.07064 0.90296 0.0
Co170 Co 0.94865 0.21575 0.84861 0.0
Co171 Co 0.91937 0.18387 0.89663 0.0
C172 C 0.9599 0.1937 0.89423 0.0
O173 O 0.96348 0.2062 0.87181 0.0
O174 O 0.9433 0.18369 0.90599 0.0
C175 C 0.97785 0.23173 0.79891 0.0
O176 O 0.98014 0.21757 0.80786 0.0
C177 C 0.89612 0.14554 0.92394 0.0
C178 C 0.87575 0.14881 0.95562 0.0
C179 C 0.88099 0.13578 0.9461 0.0
N180 N 0.89955 0.16334 0.92099 0.0
N181 N 0.8873 0.16518 0.93996 0.0
C182 C 0.90672 0.13821 0.90437 0.0
H183 H 0.9135 0.14719 0.88181 0.0
H184 H 0.89716 0.12346 0.89624 0.0
H185 H 0.91798 0.13865 0.92065 0.0
C186 C 0.91819 0.19517 0.79929 0.0
N187 N 0.92604 0.19619 0.82974 0.0
N188 N 0.9136 0.1828 0.84951 0.0
C189 C 0.8973 0.17292 0.8322 0.0
C190 C 0.89965 0.18051 0.79978 0.0
C191 C 0.92784 0.20906 0.77127 0.0
H192 H 0.94157 0.21006 0.76579 0.0
H193 H 0.9193 0.20492 0.74771 0.0
H194 H 0.93063 0.22317 0.77951 0.0
O195 O 0.94276 0.23005 0.88213 0.0
O196 O 0.92176 0.20742 0.91561 0.0
H197 H 0.87617 0.16501 0.87041 0.0
H198 H 0.86718 0.1534 0.83017 0.0
C199 C 0.87915 0.15863 0.84817 0.0
H200 H 0.88053 0.14659 0.85732 0.0
H201 H 0.88695 0.17767 0.94246 0.0
O202 O 0.96487 0.23358 0.81281 0.0
C203 C 0.93164 0.22475 0.90748 0.0
Co204 Co 0.88458 0.60245 0.4852 0.0
Co205 Co 0.85115 0.59834 0.44004 0.0
C206 C 0.86185 0.56852 0.44077 0.0
O207 O 0.8748 0.57812 0.46204 0.0
O208 O 0.85108 0.57435 0.42965 0.0
C209 C 0.89893 0.58896 0.53634 0.0
O210 O 0.8823 0.57386 0.53247 0.0
C211 C 0.81308 0.583 0.4108 0.0
C212 C 0.81389 0.60895 0.39297 0.0
C213 C 0.80237 0.58957 0.39475 0.0
N214 N 0.8301 0.59784 0.41808 0.0
N215 N 0.8305 0.61328 0.40718 0.0
C216 C 0.80701 0.5632 0.42093 0.0
H217 H 0.81442 0.56312 0.44443 0.0
H218 H 0.79154 0.55496 0.42497 0.0
H219 H 0.81082 0.55642 0.40049 0.0
C220 C 0.86464 0.61167 0.53685 0.0
N221 N 0.86525 0.60495 0.50606 0.0
N222 N 0.85101 0.6031 0.48768 0.0
C223 C 0.8408 0.60855 0.50653 0.0
C224 C 0.84921 0.61431 0.53824 0.0
C225 C 0.87945 0.6168 0.56347 0.0
H226 H 0.87987 0.60399 0.57097 0.0
H227 H 0.87661 0.62276 0.58644 0.0
H228 H 0.89344 0.62705 0.55288 0.0
O229 O 0.89786 0.62285 0.45169 0.0
O230 O 0.8742 0.61954 0.4193 0.0
H231 H 0.81769 0.61396 0.51323 0.0
H232 H 0.8148 0.5978 0.4795 0.0
C233 C 0.82505 0.61085 0.49285 0.0
H234 H 0.83082 0.62262 0.47438 0.0
H235 H 0.84211 0.62681 0.40963 0.0
O236 O 0.90301 0.60359 0.51898 0.0
C237 C 0.89173 0.62787 0.42639 0.0
Co238 Co 0.39602 0.27987 0.48532 0.0
Co239 Co 0.40186 0.25313 0.43583 0.0
C240 C 0.42924 0.29437 0.43751 0.0
O241 O 0.41921 0.29645 0.45978 0.0
O242 O 0.42471 0.27811 0.42619 0.0
C243 C 0.40919 0.30811 0.53596 0.0
O244 O 0.42547 0.31011 0.52661 0.0
C245 C 0.41846 0.23142 0.40597 0.0
C246 C 0.39447 0.21029 0.37581 0.0
C247 C 0.41311 0.21635 0.38383 0.0
N248 N 0.40363 0.23401 0.41076 0.0
N249 N 0.38934 0.22124 0.39276 0.0
C250 C 0.43754 0.24374 0.42101 0.0
H251 H 0.43897 0.2571 0.43044 0.0
H252 H 0.43952 0.23635 0.44282 0.0
H253 H 0.44869 0.2467 0.40203 0.0
C254 C 0.39023 0.25049 0.53418 0.0
N255 N 0.39593 0.25854 0.50349 0.0
N256 N 0.3981 0.24704 0.48317 0.0
C257 C 0.39377 0.23116 0.50051 0.0
C258 C 0.38868 0.23283 0.53347 0.0
C259 C 0.3833 0.25827 0.56142 0.0
H260 H 0.37365 0.26262 0.55021 0.0
H261 H 0.39547 0.27095 0.57249 0.0
H262 H 0.37575 0.24793 0.58189 0.0
O263 O 0.3744 0.2716 0.45446 0.0
O264 O 0.37944 0.25397 0.41777 0.0
H265 H 0.38203 0.20846 0.46496 0.0
H266 H 0.38988 0.20306 0.50417 0.0
C267 C 0.393 0.21415 0.485 0.0
H268 H 0.40673 0.21824 0.47296 0.0
H269 H 0.37613 0.22021 0.39159 0.0
O270 O 0.3942 0.29549 0.52191 0.0
C271 C 0.3699 0.26148 0.42782 0.0
Co272 Co 0.71887 0.11768 0.48736 0.0
Co273 Co 0.74773 0.15094 0.44122 0.0
C274 C 0.70694 0.13885 0.4399 0.0
O275 O 0.70389 0.12604 0.46131 0.0
O276 O 0.72362 0.15053 0.43012 0.0
C277 C 0.68763 0.09958 0.53271 0.0
O278 O 0.68374 0.11219 0.52066 0.0
C279 C 0.77068 0.1888 0.41088 0.0
C280 C 0.7954 0.18732 0.39273 0.0
C281 C 0.78788 0.19915 0.39437 0.0
N282 N 0.76823 0.17171 0.41854 0.0
N283 N 0.78303 0.17092 0.40744 0.0
C284 C 0.75727 0.19526 0.42114 0.0
H285 H 0.74947 0.18768 0.44431 0.0
H286 H 0.76486 0.21068 0.42575 0.0
H287 H 0.7469 0.192 0.40048 0.0
C288 C 0.74736 0.1391 0.53898 0.0
N289 N 0.74019 0.13788 0.50781 0.0
N290 N 0.7526 0.15183 0.48894 0.0
C291 C 0.76822 0.16236 0.50774 0.0
C292 C 0.76547 0.15452 0.54003 0.0
C293 C 0.73757 0.12477 0.5663 0.0
H294 H 0.72327 0.12272 0.57026 0.0
H295 H 0.74537 0.12916 0.59065 0.0
H296 H 0.73599 0.11109 0.5582 0.0
O297 O 0.7269 0.10439 0.45587 0.0
O298 O 0.74615 0.12773 0.42176 0.0
H299 H 0.792 0.17158 0.47512 0.0
H300 H 0.79703 0.18512 0.51357 0.0
C301 C 0.78635 0.17773 0.49352 0.0
H302 H 0.78374 0.18803 0.47988 0.0
H303 H 0.78473 0.15919 0.41012 0.0
O304 O 0.7022 0.09942 0.52217 0.0
C305 C 0.73769 0.11036 0.4301 0.0
Co306 Co 0.45177 0.06822 0.18026 0.0
Co307 Co 0.4853 0.07247 0.22552 0.0
C308 C 0.47438 0.10222 0.22472 0.0
O309 O 0.46131 0.09264 0.20361 0.0
O310 O 0.48529 0.09642 0.23527 0.0
C311 C 0.43379 0.08076 0.13338 0.0
O312 O 0.44702 0.09743 0.14359 0.0
C313 C 0.52406 0.08803 0.25122 0.0
C314 C 0.52171 0.06393 0.28027 0.0
C315 C 0.53431 0.08252 0.27178 0.0
N316 N 0.50639 0.07344 0.24817 0.0
N317 N 0.50511 0.05908 0.26556 0.0
C318 C 0.53085 0.10636 0.2332 0.0
H319 H 0.52175 0.10441 0.21095 0.0
H320 H 0.54566 0.1122 0.22481 0.0
H321 H 0.53004 0.11654 0.25066 0.0
C322 C 0.47195 0.0591 0.12889 0.0
N323 N 0.47131 0.06582 0.15967 0.0
N324 N 0.48538 0.06741 0.17823 0.0
C325 C 0.49537 0.06157 0.15973 0.0
C326 C 0.48712 0.05601 0.12782 0.0
C327 C 0.45737 0.05437 0.10199 0.0
H328 H 0.44362 0.04276 0.11105 0.0
H329 H 0.45578 0.06682 0.0971 0.0
H330 H 0.46124 0.05016 0.07792 0.0
O331 O 0.43855 0.04792 0.21421 0.0
O332 O 0.46235 0.05145 0.24644 0.0
H333 H 0.50492 0.04889 0.19611 0.0
H334 H 0.51612 0.05262 0.15516 0.0
C335 C 0.51057 0.0586 0.17413 0.0
H336 H 0.52225 0.07224 0.18336 0.0
H337 H 0.49282 0.046 0.26762 0.0
O338 O 0.43316 0.0661 0.14557 0.0
C339 C 0.4448 0.04307 0.23958 0.0
Co340 Co 0.93717 0.38714 0.18268 0.0
Co341 Co 0.93286 0.41509 0.23155 0.0
C342 C 0.90374 0.37425 0.22928 0.0
O343 O 0.913 0.37137 0.20653 0.0
O344 O 0.90961 0.39062 0.24152 0.0
C345 C 0.92388 0.35889 0.13168 0.0
O346 O 0.90762 0.3572 0.14019 0.0
C347 C 0.91759 0.43798 0.26134 0.0
C348 C 0.942 0.45843 0.29151 0.0
C349 C 0.92351 0.45305 0.28364 0.0
N350 N 0.93197 0.43471 0.25637 0.0
N351 N 0.94652 0.44708 0.27435 0.0
C352 C 0.89838 0.42629 0.24635 0.0
H353 H 0.89641 0.41275 0.23666 0.0
H354 H 0.89673 0.43401 0.22475 0.0
H355 H 0.88739 0.42368 0.26545 0.0
C356 C 0.94531 0.41728 0.13376 0.0
N357 N 0.93888 0.4092 0.16423 0.0
N358 N 0.93701 0.42101 0.18422 0.0
C359 C 0.94217 0.43707 0.16686 0.0
C360 C 0.94761 0.43526 0.13424 0.0
C361 C 0.95216 0.4091 0.10714 0.0
H362 H 0.9609 0.40385 0.11913 0.0
H363 H 0.93986 0.39695 0.0951 0.0
H364 H 0.96065 0.4195 0.08733 0.0
O365 O 0.95825 0.39427 0.21484 0.0
O366 O 0.9546 0.41344 0.24991 0.0
H367 H 0.95437 0.46002 0.20187 0.0
H368 H 0.94642 0.46529 0.16267 0.0
C369 C 0.94327 0.4543 0.18207 0.0
H370 H 0.92966 0.45048 0.19431 0.0
H371 H 0.95947 0.44754 0.27543 0.0
O372 O 0.93879 0.37124 0.14636 0.0
C373 C 0.96329 0.40489 0.24088 0.0
Co374 Co 0.61661 0.54955 0.17976 0.0
Co375 Co 0.58774 0.51819 0.22905 0.0
C376 C 0.62824 0.52814 0.22631 0.0
O377 O 0.6316 0.54017 0.20306 0.0
O378 O 0.61182 0.51846 0.23899 0.0
C379 C 0.64564 0.56521 0.12955 0.0
O380 O 0.64826 0.55134 0.13906 0.0
C381 C 0.56464 0.48026 0.25832 0.0
C382 C 0.54356 0.4837 0.28741 0.0
C383 C 0.54909 0.47065 0.27965 0.0
N384 N 0.56798 0.49796 0.25405 0.0
N385 N 0.55533 0.49991 0.27154 0.0
C386 C 0.57563 0.4728 0.24039 0.0
H387 H 0.58307 0.48176 0.21816 0.0
H388 H 0.56617 0.45809 0.23194 0.0
H389 H 0.58634 0.47307 0.25793 0.0
C390 C 0.58614 0.5279 0.13087 0.0
N391 N 0.59401 0.52969 0.1616 0.0
N392 N 0.58185 0.51637 0.18183 0.0
C393 C 0.56575 0.50568 0.16447 0.0
C394 C 0.56793 0.51259 0.13154 0.0
C395 C 0.59495 0.54238 0.10341 0.0
H396 H 0.59997 0.5566 0.11421 0.0
H397 H 0.60737 0.54201 0.09317 0.0
H398 H 0.585 0.54003 0.08245 0.0
O399 O 0.61088 0.56423 0.21279 0.0
O400 O 0.58997 0.5419 0.24681 0.0
H401 H 0.54305 0.49586 0.19993 0.0
H402 H 0.53697 0.48262 0.16067 0.0
C403 C 0.54819 0.49005 0.17988 0.0
H404 H 0.5514 0.47976 0.19186 0.0
H405 H 0.55477 0.51234 0.27271 0.0
O406 O 0.63258 0.56697 0.14328 0.0
C407 C 0.59979 0.55915 0.23817 0.0
Co408 Co 0.54966 0.93308 0.82301 0.0
Co409 Co 0.51715 0.92953 0.7757 0.0
C410 C 0.52785 0.89941 0.77828 0.0
O411 O 0.54026 0.90849 0.80072 0.0
O412 O 0.51769 0.90577 0.76628 0.0
C413 C 0.5637 0.92091 0.87733 0.0
O414 O 0.54703 0.90571 0.87465 0.0
C415 C 0.47845 0.91419 0.74858 0.0
C416 C 0.48229 0.93743 0.71505 0.0
C417 C 0.46907 0.91941 0.72538 0.0
N418 N 0.49632 0.92848 0.7516 0.0
N419 N 0.49842 0.94236 0.73168 0.0
C420 C 0.47101 0.89559 0.76598 0.0
H421 H 0.48266 0.89394 0.77636 0.0
H422 H 0.46189 0.89482 0.78741 0.0
H423 H 0.4624 0.88392 0.74817 0.0
C424 C 0.52919 0.94313 0.87255 0.0
N425 N 0.53009 0.93601 0.84231 0.0
N426 N 0.51631 0.93443 0.82286 0.0
C427 C 0.50623 0.94058 0.84024 0.0
C428 C 0.5141 0.94636 0.87233 0.0
C429 C 0.54351 0.94817 0.90009 0.0
H430 H 0.55776 0.958 0.88997 0.0
H431 H 0.54335 0.93524 0.90873 0.0
H432 H 0.54058 0.95462 0.92226 0.0
O433 O 0.56353 0.9531 0.789 0.0
O434 O 0.54045 0.95086 0.75614 0.0
H435 H 0.49732 0.95299 0.80213 0.0
H436 H 0.48589 0.95014 0.84266 0.0
C437 C 0.49137 0.94368 0.82457 0.0
H438 H 0.47959 0.92999 0.81576 0.0
H439 H 0.51105 0.95505 0.72876 0.0
O440 O 0.56782 0.93485 0.858 0.0
C441 C 0.55787 0.95863 0.76373 0.0
Co442 Co 0.06222 0.61169 0.81888 0.0
Co443 Co 0.07042 0.58458 0.77511 0.0
C444 C 0.09547 0.62559 0.77049 0.0
O445 O 0.08456 0.62756 0.79085 0.0
O446 O 0.09279 0.60936 0.76275 0.0
C447 C 0.07421 0.63782 0.87289 0.0
O448 O 0.08815 0.63425 0.87324 0.0
C449 C 0.0876 0.56415 0.74273 0.0
C450 C 0.06252 0.53619 0.73416 0.0
C451 C 0.08188 0.54629 0.72999 0.0
N452 N 0.07229 0.56454 0.75396 0.0
N453 N 0.05735 0.54781 0.74848 0.0
C454 C 0.10732 0.58021 0.74613 0.0
H455 H 0.10882 0.5879 0.77013 0.0
H456 H 0.11765 0.57522 0.74562 0.0
H457 H 0.11037 0.59014 0.72477 0.0
C458 C 0.05735 0.58446 0.87211 0.0
N459 N 0.06324 0.59177 0.84093 0.0
N460 N 0.06708 0.58051 0.82317 0.0
C461 C 0.06411 0.56583 0.843 0.0
C462 C 0.05779 0.56781 0.87462 0.0
C463 C 0.04823 0.59144 0.89658 0.0
H464 H 0.04098 0.59775 0.88269 0.0
H465 H 0.05924 0.60239 0.913 0.0
H466 H 0.03784 0.57992 0.913 0.0
O467 O 0.04033 0.60119 0.78869 0.0
O468 O 0.04756 0.58392 0.75504 0.0
H469 H 0.0533 0.53977 0.81643 0.0
H470 H 0.06712 0.54161 0.85325 0.0
C471 C 0.06595 0.54947 0.83134 0.0
H472 H 0.07857 0.55446 0.81503 0.0
H473 H 0.04361 0.54427 0.75488 0.0
O474 O 0.06083 0.62919 0.85184 0.0
C475 C 0.0369 0.59055 0.763 0.0
Co476 Co 0.38574 0.45131 0.82034 0.0
Co477 Co 0.41565 0.48344 0.77367 0.0
C478 C 0.37544 0.47434 0.77535 0.0
O479 O 0.37163 0.46198 0.79816 0.0
O480 O 0.39197 0.4838 0.76301 0.0
C481 C 0.36164 0.43797 0.87853 0.0
O482 O 0.36722 0.45589 0.88282 0.0
C483 C 0.4387 0.52102 0.74263 0.0
C484 C 0.46348 0.51953 0.72494 0.0
C485 C 0.4559 0.53131 0.7261 0.0
N486 N 0.43629 0.504 0.75073 0.0
N487 N 0.45112 0.5032 0.73992 0.0
C488 C 0.42532 0.52755 0.75275 0.0
H489 H 0.41781 0.52034 0.77636 0.0
H490 H 0.43287 0.54304 0.7566 0.0
H491 H 0.41471 0.5239 0.73238 0.0
C492 C 0.41622 0.47115 0.87098 0.0
N493 N 0.40846 0.47016 0.84036 0.0
N494 N 0.42068 0.48413 0.82125 0.0
C495 C 0.43651 0.49464 0.83947 0.0
C496 C 0.43421 0.48678 0.87156 0.0
C497 C 0.40788 0.45582 0.89705 0.0
H498 H 0.39927 0.44195 0.88466 0.0
H499 H 0.39874 0.45843 0.91428 0.0
H500 H 0.419 0.45544 0.91251 0.0
O501 O 0.39133 0.43715 0.78622 0.0
O502 O 0.41327 0.45991 0.75427 0.0
H503 H 0.46109 0.50623 0.80833 0.0
H504 H 0.4638 0.51951 0.84649 0.0
C505 C 0.45393 0.51123 0.82581 0.0
H506 H 0.45012 0.52047 0.81145 0.0
H507 H 0.45286 0.49151 0.74299 0.0
O508 O 0.36822 0.43299 0.854 0.0
C509 C 0.40285 0.44251 0.76148 0.0
Co510 Co 0.12019 0.40214 0.51777 0.0
Co511 Co 0.15205 0.40294 0.5632 0.0
C512 C 0.14369 0.43463 0.5637 0.0
O513 O 0.13139 0.42688 0.54052 0.0
O514 O 0.15257 0.42683 0.57555 0.0
C515 C 0.10705 0.41555 0.46358 0.0
O516 O 0.12436 0.42986 0.46478 0.0
C517 C 0.18965 0.417 0.59349 0.0
C518 C 0.18832 0.39053 0.60941 0.0
C519 C 0.20003 0.40991 0.60903 0.0
N520 N 0.17261 0.40247 0.58523 0.0
N521 N 0.1719 0.3867 0.59498 0.0
C522 C 0.19613 0.43704 0.58436 0.0
H523 H 0.1889 0.43764 0.56099 0.0
H524 H 0.21161 0.44508 0.58052 0.0
H525 H 0.19244 0.44368 0.60525 0.0
C526 C 0.13922 0.39148 0.46588 0.0
N527 N 0.13867 0.39809 0.49688 0.0
N528 N 0.1526 0.3993 0.51538 0.0
C529 C 0.16269 0.39381 0.49638 0.0
C530 C 0.15451 0.38856 0.4644 0.0
C531 C 0.12371 0.38529 0.44031 0.0
H532 H 0.10989 0.379 0.45334 0.0
H533 H 0.12573 0.39774 0.42573 0.0
H534 H 0.12352 0.37479 0.42237 0.0
O535 O 0.10582 0.38199 0.55147 0.0
O536 O 0.12849 0.38163 0.58191 0.0
H537 H 0.17426 0.38016 0.52583 0.0
H538 H 0.18749 0.39144 0.48793 0.0
C539 C 0.17927 0.39266 0.50914 0.0
H540 H 0.18858 0.40542 0.52413 0.0
H541 H 0.16023 0.3733 0.59152 0.0
O542 O 0.10221 0.40183 0.48385 0.0
C543 C 0.1111 0.37514 0.57523 0.0
Co544 Co 0.60338 0.71994 0.51572 0.0
Co545 Co 0.5984 0.74815 0.5628 0.0
C546 C 0.56954 0.70712 0.56102 0.0
O547 O 0.57903 0.7042 0.53884 0.0
O548 O 0.5752 0.72356 0.57284 0.0
C549 C 0.59093 0.69163 0.46502 0.0
O550 O 0.57453 0.68984 0.47271 0.0
C551 C 0.58174 0.76902 0.59512 0.0
C552 C 0.60718 0.79406 0.61481 0.0
C553 C 0.58774 0.78558 0.61339 0.0
N554 N 0.597 0.76793 0.58609 0.0
N555 N 0.61214 0.78297 0.59787 0.0
C556 C 0.56196 0.75354 0.58902 0.0
H557 H 0.55944 0.74093 0.60363 0.0
H558 H 0.56013 0.74967 0.56176 0.0
H559 H 0.55138 0.7574 0.59696 0.0
C560 C 0.61104 0.74933 0.46523 0.0
N561 N 0.60495 0.7417 0.49613 0.0
N562 N 0.60267 0.75354 0.5153 0.0
C563 C 0.60719 0.76915 0.49693 0.0
C564 C 0.61265 0.76701 0.46456 0.0
C565 C 0.618 0.74103 0.43902 0.0
H566 H 0.62697 0.73614 0.45126 0.0
H567 H 0.60576 0.72863 0.42737 0.0
H568 H 0.62628 0.75126 0.41882 0.0
O569 O 0.62399 0.72735 0.54906 0.0
O570 O 0.62027 0.74713 0.58232 0.0
H571 H 0.61964 0.79365 0.52827 0.0
H572 H 0.60877 0.79608 0.49019 0.0
C573 C 0.6075 0.78628 0.51077 0.0
H574 H 0.5944 0.78206 0.5253 0.0
H575 H 0.62586 0.78551 0.59476 0.0
O576 O 0.60562 0.704 0.48022 0.0
C577 C 0.62894 0.73837 0.57454 0.0
Co578 Co 0.28531 0.88276 0.51743 0.0
Co579 Co 0.25446 0.85077 0.56319 0.0
C580 C 0.29482 0.85976 0.56399 0.0
O581 O 0.29915 0.87227 0.54124 0.0
O582 O 0.27798 0.8502 0.57503 0.0
C583 C 0.31996 0.90993 0.48654 0.0
O584 O 0.32726 0.90759 0.51451 0.0
C585 C 0.22995 0.81274 0.59154 0.0
C586 C 0.20746 0.81622 0.61515 0.0
C587 C 0.21338 0.80322 0.61032 0.0
N588 N 0.23356 0.83043 0.58589 0.0
N589 N 0.22006 0.8324 0.60012 0.0
C590 C 0.24172 0.80512 0.57741 0.0
H591 H 0.24957 0.81335 0.55476 0.0
H592 H 0.2328 0.79004 0.57056 0.0
H593 H 0.25212 0.80643 0.5968 0.0
C594 C 0.25622 0.86292 0.46551 0.0
N595 N 0.26307 0.86368 0.49682 0.0
N596 N 0.25001 0.85015 0.51553 0.0
C597 C 0.2343 0.84041 0.49659 0.0
C598 C 0.23769 0.84827 0.46424 0.0
C599 C 0.26687 0.8769 0.43812 0.0
H600 H 0.28094 0.87825 0.43511 0.0
H601 H 0.25933 0.87262 0.41351 0.0
H602 H 0.26898 0.89088 0.44556 0.0
O603 O 0.27904 0.89706 0.55036 0.0
O604 O 0.25671 0.8743 0.58173 0.0
H605 H 0.21144 0.83246 0.53103 0.0
H606 H 0.20453 0.82005 0.49114 0.0
C607 C 0.21568 0.82594 0.5108 0.0
H608 H 0.21708 0.81437 0.52237 0.0
H609 H 0.21947 0.84482 0.59962 0.0
O610 O 0.3022 0.90073 0.48256 0.0
C611 C 0.26712 0.89168 0.57449 0.0
H612 H 0.22102 0.22964 0.25579 0.0
H613 H 0.24331 0.22924 0.29649 0.0
H614 H 0.28669 0.28314 0.25914 0.0
H615 H 0.2644 0.28384 0.21893 0.0
H616 H 0.27465 0.22853 0.28833 0.0
H617 H 0.31621 0.30838 0.32201 0.0
H618 H 0.31012 0.33484 0.32773 0.0
H619 H 0.25174 0.29598 0.34801 0.0
H620 H 0.25753 0.26933 0.34286 0.0
H621 H 0.36228 0.25133 0.36117 0.0
H622 H 0.3365 0.24933 0.32699 0.0
H623 H 0.31462 0.2635 0.41472 0.0
H624 H 0.34084 0.26633 0.44862 0.0
H625 H 0.31312 0.28226 0.36499 0.0
H626 H 0.29355 0.2174 0.38027 0.0
H627 H 0.29644 0.18888 0.37982 0.0
H628 H 0.30509 0.19395 0.2721 0.0
H629 H 0.30249 0.22265 0.27197 0.0
C630 C 0.23527 0.24147 0.25638 0.0
C631 C 0.24092 0.2568 0.23418 0.0
C632 C 0.24801 0.24118 0.27958 0.0
C633 C 0.26663 0.25622 0.28108 0.0
C634 C 0.27231 0.27151 0.25886 0.0
C635 C 0.25956 0.27186 0.23579 0.0
C636 C 0.28023 0.25579 0.30544 0.0
C637 C 0.28304 0.24025 0.30516 0.0
C638 C 0.29082 0.27086 0.32805 0.0
C639 C 0.28729 0.28685 0.33172 0.0
C640 C 0.3021 0.30549 0.32784 0.0
C641 C 0.29869 0.32052 0.33095 0.0
C642 C 0.28054 0.31709 0.3381 0.0
C643 C 0.26578 0.29862 0.34231 0.0
C644 C 0.26911 0.28355 0.33926 0.0
C645 C 0.35189 0.25387 0.37323 0.0
C646 C 0.3536 0.25898 0.4076 0.0
C647 C 0.33709 0.25265 0.35368 0.0
C648 C 0.32342 0.25603 0.36831 0.0
C649 C 0.32498 0.26087 0.40278 0.0
C650 C 0.33996 0.26243 0.42217 0.0
C651 C 0.30785 0.25514 0.34747 0.0
C652 C 0.30469 0.27047 0.34832 0.0
C653 C 0.29649 0.23958 0.32624 0.0
C654 C 0.29798 0.22227 0.32617 0.0
C655 C 0.29619 0.2125 0.35652 0.0
C656 C 0.29776 0.19629 0.35637 0.0
C657 C 0.30099 0.18963 0.32597 0.0
C658 C 0.3026 0.19914 0.29564 0.0
C659 C 0.30106 0.21537 0.29566 0.0
H660 H 0.3022 0.17708 0.3259 0.0
H661 H 0.27793 0.32874 0.34046 0.0
H662 H 0.72445 0.97064 0.25367 0.0
H663 H 0.72581 0.9922 0.29801 0.0
H664 H 0.75087 0.03845 0.2272 0.0
H665 H 0.74959 0.01709 0.18282 0.0
H666 H 0.76907 0.0472 0.28932 0.0
H667 H 0.70553 0.01929 0.24605 0.0
H668 H 0.67418 0.99287 0.23101 0.0
H669 H 0.66502 0.97401 0.33445 0.0
H670 H 0.69645 1.00021 0.35001 0.0
H671 H 0.75534 0.11676 0.36861 0.0
H672 H 0.75636 0.09366 0.33105 0.0
H673 H 0.72574 0.04995 0.40489 0.0
H674 H 0.72425 0.07289 0.44232 0.0
H675 H 0.71088 0.03844 0.34466 0.0
H676 H 0.77318 0.06721 0.38947 0.0
H677 H 0.80459 0.09325 0.40529 0.0
H678 H 0.81649 0.10992 0.30091 0.0
H679 H 0.78503 0.08414 0.2845 0.0
C680 C 0.73024 0.9854 0.24754 0.0
C681 C 0.73684 0.99215 0.21469 0.0
C682 C 0.73098 0.99768 0.27287 0.0
C683 C 0.73837 0.01689 0.26579 0.0
C684 C 0.74515 0.02368 0.23316 0.0
C685 C 0.74431 0.01142 0.2078 0.0
C686 C 0.73888 0.02997 0.2922 0.0
C687 C 0.75635 0.04542 0.30126 0.0
C688 C 0.72233 0.02727 0.30841 0.0
C689 C 0.70341 0.01158 0.29911 0.0
C690 C 0.69689 0.00942 0.26553 0.0
C691 C 0.6791 0.9945 0.25692 0.0
C692 C 0.66764 0.98174 0.28174 0.0
C693 C 0.67393 0.9839 0.31524 0.0
C694 C 0.69172 0.99878 0.32397 0.0
C695 C 0.74898 0.10227 0.37706 0.0
C696 C 0.73968 0.09668 0.40848 0.0
C697 C 0.74965 0.08908 0.35558 0.0
C698 C 0.74128 0.07008 0.36527 0.0
C699 C 0.73229 0.06453 0.39687 0.0
C700 C 0.73149 0.07768 0.41828 0.0
C701 C 0.74109 0.05588 0.34168 0.0
C702 C 0.72366 0.0402 0.33307 0.0
C703 C 0.75771 0.05831 0.32606 0.0
C704 C 0.77667 0.07383 0.3358 0.0
C705 C 0.78243 0.07652 0.36992 0.0
C706 C 0.80026 0.09122 0.37898 0.0
C707 C 0.81251 0.10326 0.35413 0.0
C708 C 0.80698 0.1006 0.32014 0.0
C709 C 0.78916 0.08592 0.31094 0.0
H710 H 0.82631 0.11463 0.3612 0.0
H711 H 0.65386 0.9702 0.27502 0.0
H712 H 0.02176 0.73522 0.21881 0.0
H713 H 0.99849 0.71187 0.25753 0.0
H714 H 0.97777 0.74971 0.28054 0.0
H715 H 1.00108 0.77319 0.24213 0.0
H716 H 0.98091 0.733 0.33723 0.0
H717 H 0.95389 0.71388 0.22652 0.0
H718 H 0.95314 0.70525 0.16643 0.0
H719 H 0.95991 0.65849 0.19536 0.0
H720 H 0.96096 0.66699 0.25564 0.0
H721 H 0.88422 0.64171 0.3689 0.0
H722 H 0.90675 0.6668 0.33187 0.0
H723 H 0.95241 0.67406 0.39632 0.0
H724 H 0.93003 0.64916 0.4337 0.0
H725 H 0.93536 0.66903 0.29512 0.0
H726 H 0.98649 0.72049 0.39613 0.0
H727 H 0.9856 0.72997 0.45515 0.0
H728 H 0.92728 0.71354 0.44365 0.0
H729 H 0.92789 0.70422 0.38445 0.0
C730 C 0.01231 0.73861 0.23219 0.0
C731 C 0.01321 0.75604 0.22725 0.0
C732 C 0.99898 0.72523 0.25422 0.0
C733 C 0.98628 0.72899 0.27162 0.0
C734 C 0.98743 0.74652 0.26734 0.0
C735 C 1.00073 0.7599 0.24528 0.0
C736 C 0.9716 0.71453 0.29393 0.0
C737 C 0.97097 0.719 0.32806 0.0
C738 C 0.9584 0.69639 0.28178 0.0
C739 C 0.95768 0.69118 0.24557 0.0
C740 C 0.95536 0.70184 0.22005 0.0
C741 C 0.95485 0.69696 0.18596 0.0
C742 C 0.95652 0.68136 0.17708 0.0
C743 C 0.95864 0.67058 0.20228 0.0
C744 C 0.95918 0.67541 0.23641 0.0
C745 C 0.89904 0.64869 0.37534 0.0
C746 C 0.90529 0.64341 0.40435 0.0
C747 C 0.9119 0.66299 0.35406 0.0
C748 C 0.93123 0.67238 0.36145 0.0
C749 C 0.93753 0.66717 0.39037 0.0
C750 C 0.92469 0.65287 0.41166 0.0
C751 C 0.94486 0.68738 0.33858 0.0
C752 C 0.94532 0.68301 0.30433 0.0
C753 C 0.95767 0.70571 0.3505 0.0
C754 C 0.95721 0.71149 0.38596 0.0
C755 C 0.9735 0.71897 0.40617 0.0
C756 C 0.97304 0.7243 0.43966 0.0
C757 C 0.95638 0.7223 0.45318 0.0
C758 C 0.94016 0.71502 0.43319 0.0
C759 C 0.94055 0.70968 0.39969 0.0
H760 H 0.95605 0.72642 0.47911 0.0
H761 H 0.95613 0.6776 0.15067 0.0
H762 H 0.64358 0.76064 0.63077 0.0
H763 H 0.66919 0.76384 0.66699 0.0
H764 H 0.67559 0.72441 0.60398 0.0
H765 H 0.65017 0.72129 0.56733 0.0
H766 H 0.67211 0.73856 0.70497 0.0
H767 H 0.72174 0.73619 0.60282 0.0
H768 H 0.73035 0.74528 0.54305 0.0
H769 H 0.7145 0.78769 0.55241 0.0
H770 H 0.70604 0.77903 0.61234 0.0
H771 H 0.73839 0.71876 0.78101 0.0
H772 H 0.71485 0.71829 0.74233 0.0
H773 H 0.75298 0.77629 0.71585 0.0
H774 H 0.77667 0.77687 0.75428 0.0
H775 H 0.73522 0.75539 0.66032 0.0
H776 H 0.71834 0.76609 0.77073 0.0
H777 H 0.71091 0.75964 0.83151 0.0
H778 H 0.66303 0.70589 0.80742 0.0
H779 H 0.67035 0.71188 0.74646 0.0
C780 C 0.65048 0.7527 0.62446 0.0
C781 C 0.64481 0.74072 0.59605 0.0
C782 C 0.66509 0.75451 0.64529 0.0
C783 C 0.67439 0.74448 0.63808 0.0
C784 C 0.66879 0.73251 0.60977 0.0
C785 C 0.6542 0.7307 0.58889 0.0
C786 C 0.68972 0.74624 0.66054 0.0
C787 C 0.6859 0.74225 0.69519 0.0
C788 C 0.70783 0.75135 0.6479 0.0
C789 C 0.71308 0.75682 0.61198 0.0
C790 C 0.72016 0.7475 0.59215 0.0
C791 C 0.72501 0.75257 0.55824 0.0
C792 C 0.72292 0.76701 0.54391 0.0
C793 C 0.71605 0.77646 0.5635 0.0
C794 C 0.7112 0.77146 0.59743 0.0
C795 C 0.74182 0.7314 0.76685 0.0
C796 C 0.75937 0.74789 0.77088 0.0
C797 C 0.72833 0.73111 0.74483 0.0
C798 C 0.73211 0.74732 0.72651 0.0
C799 C 0.74979 0.76364 0.72978 0.0
C800 C 0.76328 0.76395 0.75185 0.0
C801 C 0.71745 0.74736 0.70454 0.0
C802 C 0.72141 0.75169 0.67003 0.0
C803 C 0.69959 0.74293 0.71742 0.0
C804 C 0.695 0.73936 0.75404 0.0
C805 C 0.70631 0.75283 0.7784 0.0
C806 C 0.70211 0.74927 0.81288 0.0
C807 C 0.68654 0.73235 0.82333 0.0
C808 C 0.6751 0.71898 0.79929 0.0
C809 C 0.67926 0.72245 0.76476 0.0
H810 H 0.68331 0.72962 0.85005 0.0
H811 H 0.72667 0.77091 0.51764 0.0
H812 H 0.22492 0.99096 0.77007 0.0
H813 H 0.22726 0.96912 0.73088 0.0
H814 H 0.28739 0.00606 0.72459 0.0
H815 H 0.28521 0.02802 0.76388 0.0
H816 H 0.27012 0.99208 0.6614 0.0
H817 H 0.271 0.96879 0.77328 0.0
H818 H 0.25921 0.9573 0.83094 0.0
H819 H 0.20826 0.91187 0.78949 0.0
H820 H 0.21959 0.92328 0.73159 0.0
H821 H 0.29394 0.92843 0.58497 0.0
H822 H 0.29159 0.95146 0.62082 0.0
H823 H 0.23396 0.91027 0.64471 0.0
H824 H 0.23662 0.88693 0.61034 0.0
H825 H 0.25002 0.92696 0.69897 0.0
H826 H 0.24768 0.94942 0.58787 0.0
H827 H 0.2584 0.96016 0.52945 0.0
H828 H 0.30991 0.00635 0.56753 0.0
H829 H 0.2996 0.99575 0.62618 0.0
C830 C 0.23864 0.99451 0.76023 0.0
C831 C 0.2549 0.01117 0.77021 0.0
C832 C 0.23994 0.98198 0.73794 0.0
C833 C 0.25751 0.98592 0.72513 0.0
C834 C 0.27371 0.00277 0.73429 0.0
C835 C 0.27244 0.01525 0.75682 0.0
C836 C 0.25901 0.97227 0.70264 0.0
C837 C 0.26593 0.97788 0.66964 0.0
C838 C 0.25304 0.95364 0.71322 0.0
C839 C 0.24608 0.94699 0.74809 0.0
C840 C 0.25719 0.95647 0.77646 0.0
C841 C 0.25061 0.94995 0.80919 0.0
C842 C 0.23301 0.93386 0.81386 0.0
C843 C 0.22189 0.92433 0.78583 0.0
C844 C 0.22839 0.93082 0.75306 0.0
C845 C 0.28075 0.92434 0.59774 0.0
C846 C 0.26546 0.9059 0.59486 0.0
C847 C 0.27937 0.93755 0.61808 0.0
C848 C 0.26249 0.93275 0.63511 0.0
C849 C 0.24715 0.91436 0.63191 0.0
C850 C 0.24866 0.90102 0.6122 0.0
C851 C 0.26099 0.94661 0.65733 0.0
C852 C 0.25412 0.94109 0.69045 0.0
C853 C 0.26675 0.96523 0.64665 0.0
C854 C 0.27294 0.97168 0.61141 0.0
C855 C 0.26135 0.96179 0.58377 0.0
C856 C 0.26734 0.96787 0.55062 0.0
C857 C 0.28484 0.9839 0.54478 0.0
C858 C 0.29637 0.99392 0.57209 0.0
C859 C 0.29045 0.9879 0.60529 0.0
H860 H 0.28946 0.98857 0.51909 0.0
H861 H 0.22802 0.92871 0.83918 0.0
H862 H 0.97416 0.25953 0.76758 0.0
H863 H 0.99603 0.28317 0.72742 0.0
H864 H 0.03222 0.25912 0.73342 0.0
H865 H 0.01047 0.23545 0.77344 0.0
H866 H 0.05125 0.29818 0.7415 0.0
H867 H 0.00607 0.25133 0.6651 0.0
H868 H 0.9741 0.23039 0.64291 0.0
H869 H 0.96765 0.27827 0.62214 0.0
H870 H 0.99951 0.29949 0.64466 0.0
H871 H 0.11505 0.34882 0.61095 0.0
H872 H 0.09157 0.32358 0.64647 0.0
H873 H 0.05151 0.34157 0.62333 0.0
H874 H 0.07467 0.36622 0.58632 0.0
H875 H 0.03381 0.30558 0.6244 0.0
H876 H 0.07737 0.35259 0.70071 0.0
H877 H 0.10846 0.37458 0.72514 0.0
H878 H 0.11698 0.32828 0.7491 0.0
H879 H 0.08602 0.30602 0.7244 0.0
C880 C 0.98674 0.25924 0.76025 0.0
C881 C 0.99061 0.24564 0.77372 0.0
C882 C 0.99917 0.2727 0.73722 0.0
C883 C 0.01569 0.27282 0.72739 0.0
C884 C 0.01954 0.25924 0.74071 0.0
C885 C 0.00706 0.2457 0.76348 0.0
C886 C 0.02927 0.28743 0.70395 0.0
C887 C 0.04755 0.29968 0.71573 0.0
C888 C 0.02417 0.28971 0.67079 0.0
C889 C 0.00511 0.27698 0.65686 0.0
C890 C 0.99778 0.25738 0.65603 0.0
C891 C 0.97969 0.24547 0.64336 0.0
C892 C 0.96884 0.253 0.6312 0.0
C893 C 0.97607 0.27246 0.6316 0.0
C894 C 0.99415 0.28444 0.64428 0.0
C895 C 0.10122 0.34734 0.61337 0.0
C896 C 0.09674 0.35957 0.59605 0.0
C897 C 0.08782 0.33297 0.63384 0.0
C898 C 0.06986 0.3309 0.63829 0.0
C899 C 0.06526 0.34288 0.62043 0.0
C900 C 0.07852 0.357 0.59934 0.0
C901 C 0.05598 0.3164 0.66181 0.0
C902 C 0.03759 0.30416 0.65014 0.0
C903 C 0.06087 0.31432 0.69536 0.0
C904 C 0.07945 0.32766 0.71042 0.0
C905 C 0.08592 0.34711 0.71099 0.0
C906 C 0.10352 0.35962 0.72491 0.0
C907 C 0.11471 0.35284 0.73859 0.0
C908 C 0.1083 0.33352 0.73846 0.0
C909 C 0.09073 0.32095 0.72454 0.0
H910 H 0.12833 0.36255 0.74935 0.0
H911 H 0.95484 0.24375 0.62137 0.0
H912 H 0.93563 0.6164 0.5459 0.0
H913 H 0.95875 0.61543 0.58372 0.0
H914 H 0.91657 0.56047 0.61911 0.0
H915 H 0.89351 0.56113 0.58079 0.0
H916 H 0.96113 0.61382 0.64937 0.0
H917 H 0.93671 0.53415 0.63766 0.0
H918 H 0.9219 0.5087 0.59529 0.0
H919 H 0.9429 0.5495 0.51493 0.0
H920 H 0.95805 0.57516 0.55676 0.0
H921 H 0.00559 0.5925 0.77939 0.0
H922 H 0.98122 0.59034 0.74098 0.0
H923 H 0.00854 0.57972 0.65728 0.0
H924 H 0.03249 0.58103 0.69591 0.0
H925 H 0.97264 0.55987 0.64871 0.0
H926 H 0.01518 0.62466 0.67457 0.0
H927 H 0.03323 0.65223 0.71153 0.0
H928 H 0.98174 0.64511 0.7535 0.0
H929 H 0.96338 0.61733 0.71709 0.0
C930 C 0.93127 0.6041 0.56174 0.0
C931 C 0.91277 0.58879 0.5602 0.0
C932 C 0.9445 0.60359 0.5834 0.0
C933 C 0.93947 0.58778 0.60394 0.0
C934 C 0.92088 0.57266 0.60301 0.0
C935 C 0.90768 0.5731 0.5812 0.0
C936 C 0.95366 0.58714 0.62643 0.0
C937 C 0.96363 0.60201 0.64923 0.0
C938 C 0.95724 0.57194 0.62577 0.0
C939 C 0.94833 0.55658 0.60039 0.0
C940 C 0.93822 0.53768 0.61094 0.0
C941 C 0.92976 0.52322 0.58702 0.0
C942 C 0.93141 0.52748 0.55245 0.0
C943 C 0.94157 0.54622 0.54172 0.0
C944 C 0.95008 0.56073 0.56553 0.0
C945 C 0.00626 0.58946 0.75287 0.0
C946 C 0.02104 0.58711 0.74059 0.0
C947 C 0.99238 0.58833 0.7309 0.0
C948 C 0.9933 0.58536 0.69606 0.0
C949 C 0.00757 0.58212 0.68402 0.0
C950 C 0.02126 0.58289 0.70612 0.0
C951 C 0.97992 0.58643 0.67201 0.0
C952 C 0.9701 0.57165 0.64892 0.0
C953 C 0.97693 0.60202 0.6716 0.0
C954 C 0.98792 0.61882 0.69332 0.0
C955 C 0.00771 0.62891 0.69183 0.0
C956 C 0.018 0.64458 0.71266 0.0
C957 C 0.00864 0.65039 0.73491 0.0
C958 C 0.98897 0.64058 0.73629 0.0
C959 C 0.97861 0.62488 0.71554 0.0
H960 H 0.01663 0.66253 0.75102 0.0
H961 H 0.92484 0.51627 0.53398 0.0
H962 H 0.43213 0.44683 0.72201 0.0
H963 H 0.43329 0.42322 0.68593 0.0
H964 H 0.37648 0.38247 0.71547 0.0
H965 H 0.37563 0.40577 0.7529 0.0
H966 H 0.39537 0.36551 0.71219 0.0
H967 H 0.38788 0.40695 0.63694 0.0
H968 H 0.39513 0.43735 0.61159 0.0
H969 H 0.44954 0.44709 0.58086 0.0
H970 H 0.44271 0.41685 0.60644 0.0
H971 H 0.37827 0.30446 0.56941 0.0
H972 H 0.37719 0.32663 0.60975 0.0
H973 H 0.43723 0.36305 0.59969 0.0
H974 H 0.43849 0.34098 0.55962 0.0
H975 H 0.41599 0.3815 0.59259 0.0
H976 H 0.42132 0.33802 0.6686 0.0
H977 H 0.4114 0.30634 0.69113 0.0
H978 H 0.3573 0.29908 0.71708 0.0
H979 H 0.36681 0.33063 0.69426 0.0
C980 C 0.41991 0.43282 0.72086 0.0
C981 C 0.40376 0.42817 0.74012 0.0
C982 C 0.42054 0.41934 0.70009 0.0
C983 C 0.40482 0.40113 0.69735 0.0
C984 C 0.38879 0.3964 0.71706 0.0
C985 C 0.3883 0.40975 0.7384 0.0
C986 C 0.405 0.38709 0.67372 0.0
C987 C 0.39966 0.36898 0.68595 0.0
C988 C 0.41071 0.39155 0.63944 0.0
C989 C 0.41485 0.40972 0.6239 0.0
C990 C 0.40144 0.41563 0.62498 0.0
C991 C 0.40547 0.43283 0.61055 0.0
C992 C 0.4228 0.44417 0.59471 0.0
C993 C 0.43613 0.43831 0.59319 0.0
C994 C 0.43218 0.42113 0.60762 0.0
C995 C 0.39125 0.31715 0.57591 0.0
C996 C 0.40846 0.32099 0.56133 0.0
C997 C 0.39061 0.32975 0.59901 0.0
C998 C 0.40715 0.34642 0.60769 0.0
C999 C 0.42433 0.35025 0.59326 0.0
C1000 C 0.42502 0.33758 0.57049 0.0
C1001 C 0.40653 0.36015 0.63123 0.0
C1002 C 0.41173 0.37814 0.61889 0.0
C1003 C 0.40031 0.35544 0.6651 0.0
C1004 C 0.39472 0.33662 0.67945 0.0
C1005 C 0.40727 0.32962 0.67891 0.0
C1006 C 0.40173 0.31169 0.69176 0.0
C1007 C 0.38372 0.30068 0.70545 0.0
C1008 C 0.37124 0.30761 0.70644 0.0
C1009 C 0.37671 0.32553 0.69359 0.0
H1010 H 0.37945 0.2868 0.71535 0.0
H1011 H 0.4259 0.45747 0.58355 0.0
H1012 H 0.5518 0.98082 0.71985 0.0
H1013 H 0.57468 0.00541 0.68258 0.0
H1014 H 0.61828 0.99534 0.72033 0.0
H1015 H 0.59561 0.97127 0.75876 0.0
H1016 H 0.63241 0.03112 0.71244 0.0
H1017 H 0.59576 0.9777 0.64211 0.0
H1018 H 0.5669 0.95146 0.61747 0.0
H1019 H 0.552 0.99068 0.57594 0.0
H1020 H 0.58066 0.01715 0.60073 0.0
H1021 H 0.69429 0.07572 0.57118 0.0
H1022 H 0.67293 0.05219 0.61203 0.0
H1023 H 0.63113 0.06817 0.59164 0.0
H1024 H 0.65234 0.09172 0.5509 0.0
H1025 H 0.61704 0.02906 0.59028 0.0
H1026 H 0.65544 0.08262 0.66246 0.0
H1027 H 0.68583 0.10772 0.68468 0.0
H1028 H 0.69914 0.06622 0.72009 0.0
H1029 H 0.66891 0.04086 0.69768 0.0
C1030 C 0.56628 0.98389 0.7203 0.0
C1031 C 0.57187 0.97401 0.74207 0.0
C1032 C 0.57934 0.9979 0.69886 0.0
C1033 C 0.59815 0.00197 0.69806 0.0
C1034 C 0.60386 0.99243 0.72038 0.0
C1035 C 0.59086 0.97864 0.7423 0.0
C1036 C 0.61176 0.01596 0.6736 0.0
C1037 C 0.62911 0.0305 0.68567 0.0
C1038 C 0.60749 0.01528 0.63862 0.0
C1039 C 0.59027 0.9994 0.62356 0.0
C1040 C 0.58626 0.98072 0.62792 0.0
C1041 C 0.56995 0.96581 0.6139 0.0
C1042 C 0.5576 0.9694 0.59523 0.0
C1043 C 0.56157 0.98792 0.59045 0.0
C1044 C 0.57785 0.00288 0.60446 0.0
C1045 C 0.68056 0.07424 0.57543 0.0
C1046 C 0.67499 0.08557 0.55782 0.0
C1047 C 0.66842 0.06085 0.59884 0.0
C1048 C 0.65051 0.05854 0.6049 0.0
C1049 C 0.6449 0.06977 0.58728 0.0
C1050 C 0.65707 0.08326 0.56413 0.0
C1051 C 0.63745 0.04422 0.62926 0.0
C1052 C 0.62025 0.0296 0.61708 0.0
C1053 C 0.64202 0.04464 0.66392 0.0
C1054 C 0.65999 0.05985 0.67813 0.0
C1055 C 0.66489 0.07885 0.67482 0.0
C1056 C 0.68208 0.09312 0.68747 0.0
C1057 C 0.69443 0.08857 0.70371 0.0
C1058 C 0.68957 0.06972 0.70748 0.0
C1059 C 0.6724 0.05539 0.69485 0.0
H1060 H 0.70775 0.09964 0.71342 0.0
H1061 H 0.54497 0.95783 0.58439 0.0
H1062 H 0.42575 0.10798 0.11483 0.0
H1063 H 0.40198 0.10535 0.07435 0.0
H1064 H 0.38629 0.04762 0.05437 0.0
H1065 H 0.40997 0.05004 0.09526 0.0
H1066 H 0.39122 0.0706 0.99478 0.0
H1067 H 0.35854 0.05355 0.10178 0.0
H1068 H 0.35429 0.058 0.16228 0.0
H1069 H 0.35526 0.10965 0.13902 0.0
H1070 H 0.35981 0.10564 0.0784 0.0
H1071 H 0.30644 0.04597 0.9059 0.0
H1072 H 0.33067 0.04722 0.94361 0.0
H1073 H 0.33946 0.09969 0.9853 0.0
H1074 H 0.31477 0.09815 0.94855 0.0
H1075 H 0.33794 0.07821 0.03422 0.0
H1076 H 0.37128 0.09671 0.92873 0.0
H1077 H 0.37686 0.09401 0.8681 0.0
H1078 H 0.37627 0.04218 0.88754 0.0
H1079 H 0.37044 0.04444 0.94825 0.0
C1080 C 0.41729 0.09473 0.10178 0.0
C1081 C 0.41966 0.07919 0.10833 0.0
C1082 C 0.4037 0.09325 0.07873 0.0
C1083 C 0.39235 0.07627 0.06158 0.0
C1084 C 0.39493 0.06083 0.06745 0.0
C1085 C 0.40837 0.06222 0.09089 0.0
C1086 C 0.37761 0.07467 0.03793 0.0
C1087 C 0.37939 0.07198 0.00334 0.0
C1088 C 0.36254 0.077 0.04917 0.0
C1089 C 0.3597 0.07939 0.08559 0.0
C1090 C 0.35802 0.06594 0.1096 0.0
C1091 C 0.35552 0.06836 0.14391 0.0
C1092 C 0.35456 0.08412 0.1545 0.0
C1093 C 0.35604 0.09746 0.13078 0.0
C1094 C 0.35855 0.09511 0.09644 0.0
C1095 C 0.31365 0.05785 0.9229 0.0
C1096 C 0.30869 0.07197 0.92421 0.0
C1097 C 0.32756 0.05859 0.94438 0.0
C1098 C 0.33708 0.07367 0.96708 0.0
C1099 C 0.33231 0.08789 0.96808 0.0
C1100 C 0.31821 0.08702 0.94698 0.0
C1101 C 0.35154 0.07431 0.99069 0.0
C1102 C 0.34971 0.0768 0.02543 0.0
C1103 C 0.3667 0.07204 0.97946 0.0
C1104 C 0.37023 0.07065 0.94298 0.0
C1105 C 0.37219 0.08466 0.92003 0.0
C1106 C 0.37543 0.08322 0.88566 0.0
C1107 C 0.37686 0.06791 0.87396 0.0
C1108 C 0.37512 0.05402 0.89663 0.0
C1109 C 0.37187 0.05538 0.93103 0.0
H1110 H 0.37937 0.06682 0.84734 0.0
H1111 H 0.35262 0.08597 0.18107 0.0
H1112 H 0.95491 0.36238 0.09894 0.0
H1113 H 0.9561 0.34019 0.05878 0.0
H1114 H 0.89599 0.30393 0.06792 0.0
H1115 H 0.89462 0.32607 0.10774 0.0
H1116 H 0.91737 0.28544 0.07571 0.0
H1117 H 0.91181 0.32855 0.99931 0.0
H1118 H 0.92135 0.35996 0.97587 0.0
H1119 H 0.9756 0.36757 0.95 0.0
H1120 H 0.96647 0.3363 0.97374 0.0
H1121 H 0.90223 0.22014 0.94672 0.0
H1122 H 0.9007 0.2436 0.98264 0.0
H1123 H 0.95734 0.28482 0.95305 0.0
H1124 H 0.9585 0.26167 0.91564 0.0
H1125 H 0.93822 0.3014 0.95621 0.0
H1126 H 0.94581 0.26016 0.03206 0.0
H1127 H 0.93857 0.22979 0.05752 0.0
H1128 H 0.88396 0.21982 0.08737 0.0
H1129 H 0.89078 0.25003 0.06168 0.0
C1130 C 0.94194 0.34972 0.09227 0.0
C1131 C 0.92467 0.34596 0.1065 0.0
C1132 C 0.94264 0.33711 0.06929 0.0
C1133 C 0.92612 0.32048 0.0604 0.0
C1134 C 0.90888 0.3167 0.07451 0.0
C1135 C 0.90813 0.3294 0.09713 0.0
C1136 C 0.92682 0.30674 0.037 0.0
C1137 C 0.92169 0.28879 0.04944 0.0
C1138 C 0.93308 0.31143 0.00315 0.0
C1139 C 0.93852 0.33016 0.9886 0.0
C1140 C 0.92583 0.33698 0.98887 0.0
C1141 C 0.93115 0.35475 0.97549 0.0
C1142 C 0.94909 0.36577 0.96154 0.0
C1143 C 0.96172 0.35903 0.96085 0.0
C1144 C 0.95647 0.34127 0.97424 0.0
C1145 C 0.91432 0.23423 0.94782 0.0
C1146 C 0.93052 0.23905 0.92855 0.0
C1147 C 0.91349 0.24762 0.96852 0.0
C1148 C 0.92908 0.26591 0.97125 0.0
C1149 C 0.94514 0.27082 0.9515 0.0
C1150 C 0.94581 0.25756 0.93017 0.0
C1151 C 0.92868 0.27988 0.99478 0.0
C1152 C 0.9339 0.29794 0.98245 0.0
C1153 C 0.92286 0.27541 0.02901 0.0
C1154 C 0.91874 0.25728 0.04466 0.0
C1155 C 0.93221 0.25143 0.04386 0.0
C1156 C 0.92818 0.23425 0.05835 0.0
C1157 C 0.91079 0.22286 0.07397 0.0
C1158 C 0.89741 0.22865 0.07522 0.0
C1159 C 0.90136 0.24581 0.06072 0.0
H1160 H 0.9077 0.20956 0.08518 0.0
H1161 H 0.95319 0.37953 0.95119 0.0
H1162 H 0.64072 0.59149 0.09532 0.0
H1163 H 0.6626 0.61536 0.05545 0.0
H1164 H 0.70125 0.59453 0.0676 0.0
H1165 H 0.67945 0.57056 0.10718 0.0
H1166 H 0.71783 0.63414 0.07486 0.0
H1167 H 0.67713 0.58448 0.99777 0.0
H1168 H 0.6464 0.5615 0.97331 0.0
H1169 H 0.63638 0.60639 0.94557 0.0
H1170 H 0.66695 0.62963 0.97032 0.0
H1171 H 0.78362 0.68519 0.9472 0.0
H1172 H 0.76025 0.66004 0.98297 0.0
H1173 H 0.71825 0.67389 0.95103 0.0
H1174 H 0.74139 0.69847 0.91388 0.0
H1175 H 0.70262 0.63799 0.95443 0.0
H1176 H 0.74167 0.68772 0.03042 0.0
H1177 H 0.77135 0.7118 0.05661 0.0
H1178 H 0.78321 0.66879 0.08902 0.0
H1179 H 0.75371 0.64447 0.06261 0.0
C1180 C 0.65384 0.59194 0.08937 0.0
C1181 C 0.65838 0.57916 0.10441 0.0
C1182 C 0.66628 0.60554 0.06654 0.0
C1183 C 0.68349 0.60665 0.05859 0.0
C1184 C 0.68802 0.59388 0.07346 0.0
C1185 C 0.67551 0.58015 0.09595 0.0
C1186 C 0.69706 0.62144 0.03544 0.0
C1187 C 0.71464 0.63488 0.04839 0.0
C1188 C 0.69256 0.62272 0.00132 0.0
C1189 C 0.67425 0.60877 0.98621 0.0
C1190 C 0.66831 0.58944 0.98671 0.0
C1191 C 0.65093 0.57637 0.97275 0.0
C1192 C 0.63942 0.58248 0.95798 0.0
C1193 C 0.64529 0.60168 0.95706 0.0
C1194 C 0.66265 0.6148 0.97102 0.0
C1195 C 0.76939 0.68284 0.94775 0.0
C1196 C 0.76435 0.69387 0.92789 0.0
C1197 C 0.75605 0.66852 0.96836 0.0
C1198 C 0.73755 0.6653 0.97036 0.0
C1199 C 0.73242 0.6761 0.95004 0.0
C1200 C 0.74567 0.69018 0.92886 0.0
C1201 C 0.7236 0.65075 0.99369 0.0
C1202 C 0.70589 0.63735 0.98087 0.0
C1203 C 0.72785 0.6497 0.02819 0.0
C1204 C 0.74556 0.66429 0.04426 0.0
C1205 C 0.75067 0.68341 0.04293 0.0
C1206 C 0.76745 0.6971 0.05784 0.0
C1207 C 0.77918 0.69183 0.07439 0.0
C1208 C 0.77412 0.67285 0.07615 0.0
C1209 C 0.75737 0.65911 0.06124 0.0
H1210 H 0.79217 0.70246 0.08592 0.0
H1211 H 0.62597 0.57234 0.94719 0.0
H1212 H 0.55735 0.89665 0.92975 0.0
H1213 H 0.58016 0.89795 0.97113 0.0
H1214 H 0.62399 0.9479 0.92254 0.0
H1215 H 0.60113 0.94705 0.88186 0.0
H1216 H 0.60967 0.8947 0.96536 0.0
H1217 H 0.65708 0.97595 0.9783 0.0
H1218 H 0.65391 0.00431 0.97618 0.0
H1219 H 0.59561 0.97125 0.00408 0.0
H1220 H 0.5985 0.94275 0.00684 0.0
H1221 H 0.69773 0.91694 0.03429 0.0
H1222 H 0.67204 0.91486 0.99985 0.0
H1223 H 0.65448 0.93664 0.08311 0.0
H1224 H 0.68058 0.93939 0.11734 0.0
H1225 H 0.65324 0.95287 0.02816 0.0
H1226 H 0.63003 0.889 0.06024 0.0
H1227 H 0.63066 0.85946 0.06775 0.0
H1228 H 0.63571 0.85555 0.96011 0.0
H1229 H 0.63537 0.88522 0.95199 0.0
C1230 C 0.57183 0.90798 0.92801 0.0
C1231 C 0.57743 0.92179 0.90262 0.0
C1232 C 0.58486 0.90867 0.95163 0.0
C1233 C 0.60377 0.92313 0.95024 0.0
C1234 C 0.60941 0.93683 0.92465 0.0
C1235 C 0.59634 0.93628 0.90129 0.0
C1236 C 0.61767 0.92363 0.97499 0.0
C1237 C 0.61916 0.90741 0.97916 0.0
C1238 C 0.62979 0.94007 0.99362 0.0
C1239 C 0.62798 0.95719 0.99246 0.0
C1240 C 0.64361 0.97475 0.98413 0.0
C1241 C 0.64185 0.99085 0.98279 0.0
C1242 C 0.62455 0.98957 0.98989 0.0
C1243 C 0.60899 0.97221 0.99847 0.0
C1244 C 0.61067 0.95608 0.99989 0.0
C1245 C 0.68836 0.92121 0.04535 0.0
C1246 C 0.69119 0.9283 0.0786 0.0
C1247 C 0.67361 0.91994 0.02566 0.0
C1248 C 0.66113 0.92534 0.03901 0.0
C1249 C 0.66391 0.93239 0.07223 0.0
C1250 C 0.67882 0.9339 0.0918 0.0
C1251 C 0.64546 0.92405 0.01805 0.0
C1252 C 0.64368 0.94013 0.01451 0.0
C1253 C 0.63269 0.90731 1.00081 0.0
C1254 C 0.63282 0.88942 0.00555 0.0
C1255 C 0.6314 0.88191 0.03819 0.0
C1256 C 0.63169 0.86514 0.04255 0.0
C1257 C 0.63327 0.85566 0.01443 0.0
C1258 C 0.63451 0.86292 0.98188 0.0
C1259 C 0.63424 0.8797 0.97738 0.0
H1260 H 0.63349 0.84268 0.01786 0.0
H1261 H 0.62322 0.00205 0.98881 0.0
H1262 H 0.05353 0.65544 0.86801 0.0
H1263 H 0.05465 0.67977 0.90528 0.0
H1264 H 0.09563 0.67595 0.96841 0.0
H1265 H 0.09515 0.6522 0.93037 0.0
H1266 H 0.04573 0.68001 0.96722 0.0
H1267 H 0.12391 0.717 0.00727 0.0
H1268 H 0.15474 0.7237 0.98481 0.0
H1269 H 0.13492 0.7209 0.88314 0.0
H1270 H 0.10394 0.71422 0.90492 0.0
H1271 H 0.05901 0.73943 0.10636 0.0
H1272 H 0.06018 0.71617 0.06938 0.0
H1273 H 0.09206 0.75957 0.99577 0.0
H1274 H 0.09136 0.78303 0.03295 0.0
H1275 H 0.10571 0.73655 1.00076 0.0
H1276 H 0.0444 0.72944 0.98627 0.0
H1277 H 0.01361 0.7247 0.00498 0.0
H1278 H 0.99964 0.671 0.04733 0.0
H1279 H 0.03046 0.67554 0.02926 0.0
C1280 C 0.0628 0.65981 0.88982 0.0
C1281 C 0.07432 0.65199 0.89618 0.0
C1282 C 0.06342 0.67371 0.91114 0.0
C1283 C 0.07543 0.67994 0.93944 0.0
C1284 C 0.08661 0.67177 0.94629 0.0
C1285 C 0.08623 0.65809 0.92464 0.0
C1286 C 0.07596 0.69473 0.96198 0.0
C1287 C 0.05887 0.69236 0.9745 0.0
C1288 C 0.09306 0.711 0.97129 0.0
C1289 C 0.11156 0.71494 0.95776 0.0
C1290 C 0.12613 0.71783 0.98011 0.0
C1291 C 0.14361 0.72159 0.96748 0.0
C1292 C 0.14673 0.72262 0.93254 0.0
C1293 C 0.13239 0.71994 0.91015 0.0
C1294 C 0.11486 0.71613 0.92262 0.0
C1295 C 0.06637 0.74407 0.08239 0.0
C1296 C 0.07498 0.76309 0.07253 0.0
C1297 C 0.06696 0.73073 0.06121 0.0
C1298 C 0.07594 0.73607 0.02955 0.0
C1299 C 0.08501 0.75512 0.02005 0.0
C1300 C 0.08456 0.76851 0.04133 0.0
C1301 C 0.07551 0.72174 0.00599 0.0
C1302 C 0.0926 0.72417 0.99342 0.0
C1303 C 0.0584 0.70574 0.99599 0.0
C1304 C 0.0398 0.70291 0.00669 0.0
C1305 C 0.03481 0.71668 0.99977 0.0
C1306 C 0.01735 0.71402 0.01023 0.0
C1307 C 0.0047 0.69758 0.02741 0.0
C1308 C 0.00946 0.68374 0.03407 0.0
C1309 C 0.02692 0.68634 0.0237 0.0
H1310 H 0.99119 0.69554 0.03549 0.0
H1311 H 0.16027 0.72556 0.9228 0.0
H1312 H 0.22024 0.30112 0.02798 0.0
H1313 H 0.24417 0.3261 0.99221 0.0
H1314 H 0.28027 0.35007 0.07917 0.0
H1315 H 0.25668 0.32484 0.11502 0.0
H1316 H 0.27002 0.3745 0.02259 0.0
H1317 H 0.29743 0.33378 0.04611 0.0
H1318 H 0.29461 0.30239 0.04806 0.0
H1319 H 0.27915 0.29395 0.94284 0.0
H1320 H 0.28159 0.32519 0.94047 0.0
H1321 H 0.35441 0.44263 0.94422 0.0
H1322 H 0.33106 0.41883 0.98224 0.0
H1323 H 0.31333 0.37748 0.90221 0.0
H1324 H 0.33736 0.40098 0.86487 0.0
H1325 H 0.31353 0.3613 0.95615 0.0
H1326 H 0.28773 0.40031 0.92754 0.0
H1327 H 0.28692 0.4298 0.92075 0.0
H1328 H 0.29474 0.43976 0.02794 0.0
H1329 H 0.29585 0.41044 0.03532 0.0
C1330 C 0.23321 0.31178 0.03954 0.0
C1331 C 0.23663 0.31101 0.07427 0.0
C1332 C 0.24684 0.32598 0.01908 0.0
C1333 C 0.2639 0.33979 0.03317 0.0
C1334 C 0.26714 0.33945 0.06797 0.0
C1335 C 0.2537 0.32503 0.08832 0.0
C1336 C 0.2786 0.35425 0.01126 0.0
C1337 C 0.27977 0.37183 0.00837 0.0
C1338 C 0.29069 0.35033 0.99188 0.0
C1339 C 0.28947 0.33169 0.99323 0.0
C1340 C 0.29323 0.32514 0.02351 0.0
C1341 C 0.29175 0.3074 0.02466 0.0
C1342 C 0.28665 0.29616 0.99561 0.0
C1343 C 0.28307 0.30266 0.96533 0.0
C1344 C 0.28451 0.32038 0.96407 0.0
C1345 C 0.34552 0.42844 0.93483 0.0
C1346 C 0.34763 0.42365 0.90162 0.0
C1347 C 0.33209 0.41486 0.95649 0.0
C1348 C 0.32011 0.39638 0.94497 0.0
C1349 C 0.32236 0.39159 0.91179 0.0
C1350 C 0.33608 0.40505 0.89042 0.0
C1351 C 0.30534 0.38199 0.96747 0.0
C1352 C 0.30399 0.36426 0.97039 0.0
C1353 C 0.29275 0.38565 0.98623 0.0
C1354 C 0.29207 0.40328 0.98192 0.0
C1355 C 0.28942 0.40886 0.94963 0.0
C1356 C 0.28888 0.42553 0.94568 0.0
C1357 C 0.29083 0.43667 0.97389 0.0
C1358 C 0.29326 0.43113 0.00611 0.0
C1359 C 0.29383 0.41448 0.0102 0.0
H1360 H 0.29041 0.44957 0.97078 0.0
H1361 H 0.28554 0.28245 0.99652 0.0
H1362 H 0.97244 0.41824 0.30561 0.0
H1363 H 0.99843 0.42112 0.34014 0.0
H1364 H 0.01698 0.40014 0.25709 0.0
H1365 H 0.9905 0.39648 0.22283 0.0
H1366 H 0.01917 0.3845 0.31126 0.0
H1367 H 0.04038 0.44803 0.28073 0.0
H1368 H 0.03879 0.47707 0.27342 0.0
H1369 H 0.03295 0.48028 0.381 0.0
H1370 H 0.03424 0.4511 0.38892 0.0
H1371 H 0.11364 0.44074 0.41255 0.0
H1372 H 0.09101 0.44003 0.37129 0.0
H1373 H 0.0469 0.38959 0.41808 0.0
H1374 H 0.06948 0.38994 0.45879 0.0
H1375 H 0.06056 0.44259 0.37631 0.0
H1376 H 0.01609 0.36105 0.35997 0.0
H1377 H 0.0211 0.33378 0.36134 0.0
H1378 H 0.07939 0.36978 0.33582 0.0
H1379 H 0.07465 0.39714 0.33377 0.0
C1380 C 0.98209 0.4143 0.29462 0.0
C1381 C 0.97941 0.40715 0.26144 0.0
C1382 C 0.99703 0.41606 0.31436 0.0
C1383 C 0.00989 0.41114 0.3011 0.0
C1384 C 0.00726 0.40403 0.26792 0.0
C1385 C 0.99213 0.40199 0.24833 0.0
C1386 C 0.02574 0.41292 0.32219 0.0
C1387 C 0.02823 0.39724 0.32538 0.0
C1388 C 0.03797 0.42968 0.33998 0.0
C1389 C 0.03725 0.44729 0.33538 0.0
C1390 C 0.03862 0.45486 0.30281 0.0
C1391 C 0.03779 0.47136 0.29856 0.0
C1392 C 0.03573 0.48049 0.32672 0.0
C1393 C 0.03453 0.47318 0.3592 0.0
C1394 C 0.03533 0.45667 0.36359 0.0
C1395 C 0.09913 0.42947 0.41399 0.0
C1396 C 0.09338 0.41532 0.43881 0.0
C1397 C 0.0862 0.42912 0.39046 0.0
C1398 C 0.0673 0.41464 0.39131 0.0
C1399 C 0.06148 0.40071 0.41648 0.0
C1400 C 0.0744 0.40096 0.43983 0.0
C1401 C 0.05361 0.41403 0.36597 0.0
C1402 C 0.05153 0.42991 0.36203 0.0
C1403 C 0.04222 0.3977 0.34653 0.0
C1404 C 0.04504 0.38117 0.34704 0.0
C1405 C 0.02995 0.36311 0.35447 0.0
C1406 C 0.03274 0.34763 0.3554 0.0
C1407 C 0.05056 0.35003 0.34877 0.0
C1408 C 0.0656 0.3679 0.34106 0.0
C1409 C 0.06287 0.38341 0.34004 0.0
H1410 H 0.05271 0.33804 0.34956 0.0
H1411 H 0.03508 0.49326 0.32337 0.0
H1412 H 0.62241 0.69584 0.43288 0.0
H1413 H 0.62423 0.67424 0.39209 0.0
H1414 H 0.56416 0.63725 0.39974 0.0
H1415 H 0.56217 0.65878 0.44017 0.0
H1416 H 0.58608 0.61923 0.40716 0.0
H1417 H 0.58015 0.66279 0.33212 0.0
H1418 H 0.58968 0.6945 0.31026 0.0
H1419 H 0.64426 0.70288 0.28479 0.0
H1420 H 0.63514 0.67128 0.30693 0.0
H1421 H 0.57043 0.55481 0.27719 0.0
H1422 H 0.56911 0.57834 0.31319 0.0
H1423 H 0.62572 0.61941 0.28317 0.0
H1424 H 0.62668 0.59615 0.24565 0.0
H1425 H 0.6068 0.63629 0.28784 0.0
H1426 H 0.61474 0.5946 0.36154 0.0
H1427 H 0.6078 0.56411 0.38601 0.0
H1428 H 0.55324 0.55361 0.4175 0.0
H1429 H 0.55976 0.58394 0.3928 0.0
C1430 C 0.60959 0.68313 0.42578 0.0
C1431 C 0.59214 0.67898 0.43974 0.0
C1432 C 0.61065 0.67086 0.40243 0.0
C1433 C 0.59431 0.65421 0.39292 0.0
C1434 C 0.57691 0.65005 0.40681 0.0
C1435 C 0.5758 0.6624 0.42979 0.0
C1436 C 0.59535 0.64084 0.36906 0.0
C1437 C 0.59038 0.62283 0.38093 0.0
C1438 C 0.60164 0.64587 0.33529 0.0
C1439 C 0.60702 0.66474 0.32146 0.0
C1440 C 0.59423 0.67144 0.32207 0.0
C1441 C 0.59955 0.68939 0.30959 0.0
C1442 C 0.61758 0.70071 0.29621 0.0
C1443 C 0.63031 0.69409 0.29518 0.0
C1444 C 0.62506 0.67616 0.30766 0.0
C1445 C 0.58255 0.56889 0.27815 0.0
C1446 C 0.59871 0.57361 0.25882 0.0
C1447 C 0.58184 0.58232 0.2989 0.0
C1448 C 0.5975 0.60056 0.30164 0.0
C1449 C 0.61347 0.60543 0.28164 0.0
C1450 C 0.61402 0.59212 0.26025 0.0
C1451 C 0.5973 0.61443 0.32574 0.0
C1452 C 0.6025 0.63259 0.31403 0.0
C1453 C 0.59161 0.60968 0.35997 0.0
C1454 C 0.58768 0.59147 0.37504 0.0
C1455 C 0.60121 0.58573 0.37349 0.0
C1456 C 0.59736 0.56848 0.38742 0.0
C1457 C 0.58007 0.55691 0.40323 0.0
C1458 C 0.56662 0.56258 0.40521 0.0
C1459 C 0.57039 0.57981 0.39128 0.0
H1460 H 0.57712 0.54356 0.41399 0.0
H1461 H 0.62166 0.7146 0.28656 0.0
H1462 H 0.30942 0.92057 0.42852 0.0
H1463 H 0.32994 0.94251 0.38505 0.0
H1464 H 0.3788 0.95054 0.44049 0.0
H1465 H 0.35841 0.929 0.48444 0.0
H1466 H 0.38364 0.98325 0.41965 0.0
H1467 H 0.36269 0.92271 0.36797 0.0
H1468 H 0.3391 0.89107 0.34786 0.0
H1469 H 0.31612 0.9155 0.28029 0.0
H1470 H 0.33943 0.94729 0.30033 0.0
H1471 H 0.45307 0.028 0.29431 0.0
H1472 H 0.43107 0.00454 0.33415 0.0
H1473 H 0.38426 1.0005 0.27724 0.0
H1474 H 0.40618 0.02382 0.23683 0.0
H1475 H 0.37756 0.96605 0.29786 0.0
H1476 H 0.39845 0.02637 0.34874 0.0
H1477 H 0.4219 0.05811 0.3685 0.0
H1478 H 0.44468 0.03413 0.43754 0.0
H1479 H 0.42149 0.00222 0.41784 0.0
C1480 C 0.32454 0.92699 0.43144 0.0
C1481 C 0.33229 0.92304 0.45995 0.0
C1482 C 0.33625 0.93946 0.40647 0.0
C1483 C 0.35592 0.948 0.40928 0.0
C1484 C 0.36367 0.94411 0.43777 0.0
C1485 C 0.35198 0.93176 0.46285 0.0
C1486 C 0.3685 0.9613 0.38295 0.0
C1487 C 0.38245 0.97938 0.39309 0.0
C1488 C 0.36662 0.95646 0.34813 0.0
C1489 C 0.35269 0.93737 0.33589 0.0
C1490 C 0.35252 0.92133 0.34899 0.0
C1491 C 0.33922 0.90337 0.33758 0.0
C1492 C 0.32609 0.90127 0.31288 0.0
C1493 C 0.32628 0.91714 0.29946 0.0
C1494 C 0.33955 0.93514 0.31081 0.0
C1495 C 0.4381 0.02207 0.29007 0.0
C1496 C 0.43141 0.02793 0.26248 0.0
C1497 C 0.42554 0.00869 0.31297 0.0
C1498 C 0.40604 0.00101 0.30897 0.0
C1499 C 0.39927 0.00631 0.28085 0.0
C1500 C 0.41183 0.01968 0.25783 0.0
C1501 C 0.3928 0.98785 0.3347 0.0
C1502 C 0.37871 0.96987 0.32444 0.0
C1503 C 0.3945 0.99276 0.36944 0.0
C1504 C 0.40834 0.01192 0.3816 0.0
C1505 C 0.40854 0.02787 0.36798 0.0
C1506 C 0.42178 0.0459 0.37919 0.0
C1507 C 0.43481 0.04815 0.40421 0.0
C1508 C 0.43459 0.03237 0.41814 0.0
C1509 C 0.42139 0.0143 0.40698 0.0
H1510 H 0.44506 0.06211 0.41286 0.0
H1511 H 0.31579 0.88736 0.30409 0.0
H1512 H 0.15842 0.39594 0.3966 0.0
H1513 H 0.16192 0.37726 0.35158 0.0
H1514 H 0.16251 0.33931 0.42672 0.0
H1515 H 0.15885 0.35784 0.47162 0.0
H1516 H 0.18867 0.34697 0.37776 0.0
H1517 H 0.12312 0.32773 0.38322 0.0
H1518 H 0.09531 0.33183 0.38292 0.0
H1519 H 0.109 0.35462 0.28221 0.0
H1520 H 0.13711 0.35097 0.28212 0.0
H1521 H 0.17064 0.27092 0.27014 0.0
H1522 H 0.16617 0.28931 0.31444 0.0
H1523 H 0.16665 0.32741 0.23845 0.0
H1524 H 0.17116 0.30905 0.19419 0.0
H1525 H 0.14006 0.31983 0.28751 0.0
H1526 H 0.20568 0.33862 0.28232 0.0
H1527 H 0.23269 0.33322 0.28247 0.0
H1528 H 0.21837 0.31047 0.38314 0.0
H1529 H 0.19105 0.31542 0.38336 0.0
C1530 C 0.15946 0.38369 0.40341 0.0
C1531 C 0.15845 0.37836 0.43752 0.0
C1532 C 0.1614 0.37301 0.37774 0.0
C1533 C 0.16228 0.35676 0.38576 0.0
C1534 C 0.1619 0.3518 0.41993 0.0
C1535 C 0.15991 0.36245 0.44558 0.0
C1536 C 0.16298 0.34459 0.35854 0.0
C1537 C 0.17793 0.34087 0.35825 0.0
C1538 C 0.14913 0.33687 0.33273 0.0
C1539 C 0.13233 0.33924 0.3328 0.0
C1540 C 0.12031 0.33379 0.36114 0.0
C1541 C 0.10448 0.33601 0.36102 0.0
C1542 C 0.10041 0.34349 0.33258 0.0
C1543 C 0.11219 0.34884 0.30423 0.0
C1544 C 0.12807 0.3467 0.30424 0.0
C1545 C 0.16949 0.28306 0.26296 0.0
C1546 C 0.17117 0.28856 0.22885 0.0
C1547 C 0.16703 0.29359 0.28822 0.0
C1548 C 0.16635 0.30989 0.27979 0.0
C1549 C 0.16714 0.31489 0.24553 0.0
C1550 C 0.16962 0.30436 0.22026 0.0
C1551 C 0.16574 0.32221 0.30677 0.0
C1552 C 0.15082 0.32597 0.30699 0.0
C1553 C 0.17959 0.32992 0.33257 0.0
C1554 C 0.19621 0.32724 0.33273 0.0
C1555 C 0.20821 0.33235 0.30441 0.0
C1556 C 0.22358 0.32938 0.30443 0.0
C1557 C 0.22722 0.32147 0.33277 0.0
C1558 C 0.21552 0.31657 0.36119 0.0
C1559 C 0.20009 0.31946 0.36126 0.0
H1560 H 0.23913 0.31919 0.33273 0.0
H1561 H 0.08807 0.34505 0.33245 0.0
H1562 H 0.60365 0.76444 0.39765 0.0
H1563 H 0.62191 0.78667 0.35238 0.0
H1564 H 0.6618 0.82412 0.42646 0.0
H1565 H 0.64343 0.80197 0.47169 0.0
H1566 H 0.65543 0.84369 0.37859 0.0
H1567 H 0.67029 0.79399 0.38081 0.0
H1568 H 0.66276 0.76087 0.38 0.0
H1569 H 0.6387 0.75383 0.28069 0.0
H1570 H 0.64578 0.78685 0.28116 0.0
H1571 H 0.73178 0.89877 0.27003 0.0
H1572 H 0.71291 0.87576 0.31385 0.0
H1573 H 0.67258 0.84089 0.238 0.0
H1574 H 0.69142 0.86394 0.19419 0.0
H1575 H 0.67879 0.81978 0.28588 0.0
H1576 H 0.66426 0.86968 0.28371 0.0
H1577 H 0.67201 0.90286 0.2847 0.0
H1578 H 0.69569 0.90949 0.38427 0.0
H1579 H 0.6884 0.87642 0.38361 0.0
C1580 C 0.61616 0.77758 0.40419 0.0
C1581 C 0.62216 0.78155 0.43803 0.0
C1582 C 0.62664 0.7902 0.37837 0.0
C1583 C 0.64343 0.80693 0.38594 0.0
C1584 C 0.64893 0.81131 0.41998 0.0
C1585 C 0.6384 0.7987 0.44581 0.0
C1586 C 0.65569 0.81943 0.35835 0.0
C1587 C 0.6607 0.8385 0.35855 0.0
C1588 C 0.66233 0.8126 0.33181 0.0
C1589 C 0.6584 0.79285 0.33116 0.0
C1590 C 0.66329 0.78535 0.35888 0.0
C1591 C 0.65911 0.7666 0.35848 0.0
C1592 C 0.65023 0.75524 0.33034 0.0
C1593 C 0.64556 0.76264 0.30249 0.0
C1594 C 0.64966 0.78138 0.3028 0.0
C1595 C 0.71904 0.88602 0.26274 0.0
C1596 C 0.71303 0.88308 0.22885 0.0
C1597 C 0.70825 0.87294 0.28772 0.0
C1598 C 0.69119 0.85672 0.27926 0.0
C1599 C 0.68568 0.85329 0.2451 0.0
C1600 C 0.69647 0.86641 0.2201 0.0
C1601 C 0.67857 0.84402 0.30627 0.0
C1602 C 0.67349 0.82494 0.30592 0.0
C1603 C 0.67189 0.85083 0.33273 0.0
C1604 C 0.67594 0.87061 0.33348 0.0
C1605 C 0.67123 0.87825 0.30573 0.0
C1606 C 0.67553 0.89703 0.30623 0.0
C1607 C 0.68437 0.90829 0.3345 0.0
C1608 C 0.68886 0.90076 0.36237 0.0
C1609 C 0.68465 0.88199 0.36195 0.0
H1610 H 0.6877 0.92284 0.33483 0.0
H1611 H 0.647 0.74073 0.3301 0.0
H1612 H 0.12477 0.85298 0.23991 0.0
H1613 H 0.14811 0.85799 0.28389 0.0
H1614 H 0.13664 0.80101 0.27003 0.0
H1615 H 0.11348 0.79607 0.22616 0.0
H1616 H 0.13734 0.80937 0.3366 0.0
H1617 H 0.17633 0.83772 0.2387 0.0
H1618 H 0.18842 0.85923 0.18968 0.0
H1619 H 0.20729 0.90683 0.25599 0.0
H1620 H 0.19504 0.88558 0.3054 0.0
H1621 H 0.21504 0.8159 0.42934 0.0
H1622 H 0.19225 0.81128 0.38458 0.0
H1623 H 0.20599 0.86917 0.39534 0.0
H1624 H 0.22884 0.87379 0.43963 0.0
H1625 H 0.20407 0.86045 0.33033 0.0
H1626 H 0.16518 0.83249 0.42815 0.0
H1627 H 0.15295 0.81124 0.47749 0.0
H1628 H 0.13361 0.76326 0.41196 0.0
H1629 H 0.146 0.78425 0.36225 0.0
C1630 C 0.1274 0.84164 0.2462 0.0
C1631 C 0.11734 0.82414 0.2299 0.0
C1632 C 0.14069 0.84447 0.27125 0.0
C1633 C 0.14416 0.82987 0.28021 0.0
C1634 C 0.13414 0.81243 0.2637 0.0
C1635 C 0.12094 0.80963 0.23866 0.0
C1636 C 0.15807 0.8326 0.307 0.0
C1637 C 0.15199 0.8204 0.33504 0.0
C1638 C 0.17708 0.84724 0.30536 0.0
C1639 C 0.18459 0.86005 0.27571 0.0
C1640 C 0.18292 0.85277 0.24281 0.0
C1641 C 0.18982 0.86491 0.21496 0.0
C1642 C 0.19857 0.88438 0.21971 0.0
C1643 C 0.20048 0.89175 0.25234 0.0
C1644 C 0.19357 0.87966 0.28028 0.0
C1645 C 0.21308 0.82755 0.42211 0.0
C1646 C 0.22365 0.84518 0.43772 0.0
C1647 C 0.20007 0.82493 0.39664 0.0
C1648 C 0.19729 0.83985 0.38672 0.0
C1649 C 0.20792 0.85747 0.40241 0.0
C1650 C 0.22094 0.8601 0.4277 0.0
C1651 C 0.18335 0.8372 0.35998 0.0
C1652 C 0.18942 0.84942 0.33194 0.0
C1653 C 0.1643 0.82262 0.36169 0.0
C1654 C 0.15669 0.80996 0.39151 0.0
C1655 C 0.15845 0.81741 0.42428 0.0
C1656 C 0.15147 0.80542 0.45232 0.0
C1657 C 0.14255 0.78592 0.44787 0.0
C1658 C 0.14054 0.77837 0.41537 0.0
C1659 C 0.14754 0.79031 0.38725 0.0
H1660 H 0.13715 0.77665 0.46961 0.0
H1661 H 0.20391 0.89376 0.19811 0.0
H1662 H 0.85518 0.73186 0.76312 0.0
H1663 H 0.85989 0.71336 0.71906 0.0
H1664 H 0.8032 0.66762 0.73512 0.0
H1665 H 0.79861 0.68601 0.77918 0.0
H1666 H 0.82798 0.6549 0.7279 0.0
H1667 H 0.81271 0.69704 0.66963 0.0
H1668 H 0.8165 0.72799 0.65492 0.0
H1669 H 0.87238 0.74645 0.61822 0.0
H1670 H 0.86903 0.71569 0.6332 0.0
H1671 H 0.81767 0.60323 0.57668 0.0
H1672 H 0.81293 0.62145 0.62121 0.0
H1673 H 0.86857 0.6684 0.60202 0.0
H1674 H 0.87306 0.65039 0.55716 0.0
H1675 H 0.84429 0.68051 0.61107 0.0
H1676 H 0.85981 0.6386 0.66923 0.0
H1677 H 0.85634 0.60782 0.68427 0.0
H1678 H 0.80049 0.58908 0.7215 0.0
H1679 H 0.80354 0.61967 0.70621 0.0
C1680 C 0.84385 0.7178 0.75729 0.0
C1681 C 0.8265 0.71036 0.77409 0.0
C1682 C 0.84648 0.70729 0.73212 0.0
C1683 C 0.83179 0.68919 0.72351 0.0
C1684 C 0.81469 0.68155 0.74125 0.0
C1685 C 0.81206 0.69207 0.76625 0.0
C1686 C 0.83398 0.67836 0.69542 0.0
C1687 C 0.83135 0.6604 0.70227 0.0
C1688 C 0.83869 0.68568 0.66211 0.0
C1689 C 0.84068 0.70413 0.65286 0.0
C1690 C 0.82586 0.70775 0.65867 0.0
C1691 C 0.82792 0.72525 0.65024 0.0
C1692 C 0.84469 0.73919 0.63572 0.0
C1693 C 0.85941 0.73565 0.62951 0.0
C1694 C 0.85744 0.71818 0.63795 0.0
C1695 C 0.82875 0.6175 0.58192 0.0
C1696 C 0.84577 0.6254 0.5639 0.0
C1697 C 0.82612 0.62785 0.60742 0.0
C1698 C 0.84053 0.64621 0.61534 0.0
C1699 C 0.8573 0.65426 0.59651 0.0
C1700 C 0.85989 0.64395 0.57104 0.0
C1701 C 0.83833 0.65702 0.64351 0.0
C1702 C 0.84094 0.67498 0.63669 0.0
C1703 C 0.83366 0.64972 0.67687 0.0
C1704 C 0.83183 0.63135 0.68626 0.0
C1705 C 0.84674 0.62786 0.68039 0.0
C1706 C 0.84485 0.61046 0.68899 0.0
C1707 C 0.82819 0.59649 0.70375 0.0
C1708 C 0.81338 0.59991 0.71002 0.0
C1709 C 0.81518 0.61728 0.7014 0.0
H1710 H 0.82675 0.58302 0.7104 0.0
H1711 H 0.84626 0.75273 0.62921 0.0
H1712 H 0.26986 0.10022 0.72803 0.0
H1713 H 0.28867 0.1228 0.68357 0.0
H1714 H 0.32947 0.15807 0.7585 0.0
H1715 H 0.31063 0.13553 0.80291 0.0
H1716 H 0.32364 0.17909 0.71197 0.0
H1717 H 0.33686 0.12834 0.71096 0.0
H1718 H 0.32861 0.09503 0.70875 0.0
H1719 H 0.30428 0.08948 0.61005 0.0
H1720 H 0.31207 0.1227 0.61194 0.0
H1721 H 0.39849 0.23399 0.59963 0.0
H1722 H 0.38026 0.21133 0.64439 0.0
H1723 H 0.33889 0.17583 0.57041 0.0
H1724 H 0.35718 0.19845 0.52569 0.0
H1725 H 0.34529 0.15504 0.61679 0.0
H1726 H 0.33199 0.20587 0.61812 0.0
H1727 H 0.34045 0.23925 0.62036 0.0
H1728 H 0.36524 0.24477 0.7186 0.0
H1729 H 0.35722 0.21147 0.71669 0.0
C1730 C 0.28273 0.11293 0.73494 0.0
C1731 C 0.28882 0.11619 0.76878 0.0
C1732 C 0.29349 0.12577 0.70959 0.0
C1733 C 0.31064 0.14201 0.71762 0.0
C1734 C 0.31631 0.14566 0.75169 0.0
C1735 C 0.30552 0.13282 0.77704 0.0
C1736 C 0.32307 0.15469 0.69038 0.0
C1737 C 0.32855 0.17388 0.69139 0.0
C1738 C 0.32927 0.14785 0.66321 0.0
C1739 C 0.32489 0.12796 0.66173 0.0
C1740 C 0.32964 0.11999 0.68887 0.0
C1741 C 0.32505 0.10112 0.68768 0.0
C1742 C 0.31589 0.09014 0.65931 0.0
C1743 C 0.31135 0.09801 0.63203 0.0
C1744 C 0.31585 0.11685 0.63314 0.0
C1745 C 0.38568 0.22116 0.59296 0.0
C1746 C 0.37923 0.21788 0.55933 0.0
C1747 C 0.37523 0.2083 0.61849 0.0
C1748 C 0.35805 0.19202 0.61084 0.0
C1749 C 0.35208 0.18829 0.57692 0.0
C1750 C 0.36256 0.20116 0.55138 0.0
C1751 C 0.34581 0.17942 0.63833 0.0
C1752 C 0.34038 0.16025 0.63739 0.0
C1753 C 0.33968 0.18629 0.66557 0.0
C1754 C 0.34415 0.20621 0.66712 0.0
C1755 C 0.33934 0.21422 0.64012 0.0
C1756 C 0.34406 0.23313 0.64133 0.0
C1757 C 0.35342 0.24413 0.66957 0.0
C1758 C 0.35801 0.23623 0.69672 0.0
C1759 C 0.35338 0.21734 0.6956 0.0
H1760 H 0.35707 0.25877 0.67044 0.0
H1761 H 0.31235 0.07553 0.65844 0.0
H1762 H 0.77639 0.13016 0.56217 0.0
H1763 H 0.79899 0.13504 0.60705 0.0
H1764 H 0.81 0.19186 0.62091 0.0
H1765 H 0.7872 0.18692 0.57579 0.0
H1766 H 0.84251 0.1897 0.62188 0.0
H1767 H 0.78198 0.15832 0.67532 0.0
H1768 H 0.74875 0.13351 0.68175 0.0
H1769 H 0.76546 0.09177 0.69145 0.0
H1770 H 0.79879 0.11629 0.68448 0.0
H1771 H 0.88962 0.20573 0.77869 0.0
H1772 H 0.86638 0.20139 0.73543 0.0
H1773 H 0.85295 0.14376 0.72181 0.0
H1774 H 0.87617 0.14811 0.76564 0.0
H1775 H 0.82144 0.14672 0.72117 0.0
H1776 H 0.88193 0.17804 0.66675 0.0
H1777 H 0.91517 0.20286 0.66042 0.0
H1778 H 0.89851 0.24472 0.65244 0.0
H1779 H 0.86518 0.22018 0.65932 0.0
C1780 C 0.78363 0.14368 0.57487 0.0
C1781 C 0.77996 0.15812 0.56592 0.0
C1782 C 0.79651 0.14645 0.60048 0.0
C1783 C 0.80597 0.16371 0.61771 0.0
C1784 C 0.80279 0.1784 0.60803 0.0
C1785 C 0.78982 0.1756 0.58235 0.0
C1786 C 0.81893 0.16621 0.64611 0.0
C1787 C 0.83785 0.18049 0.64383 0.0
C1788 C 0.81293 0.1539 0.6744 0.0
C1789 C 0.79289 0.13914 0.67907 0.0
C1790 C 0.77857 0.14384 0.67857 0.0
C1791 C 0.75971 0.12983 0.68234 0.0
C1792 C 0.75499 0.11107 0.68693 0.0
C1793 C 0.76913 0.1063 0.68786 0.0
C1794 C 0.78802 0.12025 0.68402 0.0
C1795 C 0.88167 0.19215 0.76643 0.0
C1796 C 0.88479 0.17731 0.775 0.0
C1797 C 0.86843 0.18967 0.74172 0.0
C1798 C 0.85816 0.17235 0.72488 0.0
C1799 C 0.86078 0.15728 0.73434 0.0
C1800 C 0.87402 0.15974 0.75925 0.0
C1801 C 0.84506 0.17019 0.69692 0.0
C1802 C 0.8261 0.15595 0.69925 0.0
C1803 C 0.85104 0.18253 0.66866 0.0
C1804 C 0.87106 0.19728 0.66387 0.0
C1805 C 0.88536 0.19255 0.66386 0.0
C1806 C 0.90422 0.20657 0.66016 0.0
C1807 C 0.90895 0.22536 0.65612 0.0
C1808 C 0.89482 0.23016 0.65563 0.0
C1809 C 0.87594 0.2162 0.65941 0.0
H1810 H 0.92356 0.23621 0.65331 0.0
H1811 H 0.74038 0.10024 0.68983 0.0
H1812 H 0.46248 0.02051 0.10685 0.0
H1813 H 0.46718 0.0021 0.0631 0.0
H1814 H 0.52397 0.04771 0.04751 0.0
H1815 H 0.51913 0.0663 0.09123 0.0
H1816 H 0.50534 0.0334 0.98741 0.0
H1817 H 0.51633 0.00898 0.08978 0.0
H1818 H 0.50912 0.99538 0.14729 0.0
H1819 H 0.45931 0.94681 0.10995 0.0
H1820 H 0.46606 0.96026 0.05228 0.0
H1821 H 0.53823 0.98235 0.89154 0.0
H1822 H 0.53325 0.00099 0.93443 0.0
H1823 H 0.47683 0.9549 0.95127 0.0
H1824 H 0.482 0.93609 0.90848 0.0
H1825 H 0.49517 0.96948 0.01066 0.0
H1826 H 0.48414 0.99372 0.90832 0.0
H1827 H 0.49119 0.00729 0.85078 0.0
H1828 H 0.54086 0.05609 0.8879 0.0
H1829 H 0.53426 0.04268 0.94561 0.0
C1830 C 0.47595 0.02659 0.09402 0.0
C1831 C 0.49044 0.04481 0.10218 0.0
C1832 C 0.47866 0.01604 0.06919 0.0
C1833 C 0.49597 0.02346 0.05216 0.0
C1834 C 0.5105 0.0417 0.06033 0.0
C1835 C 0.50779 0.05226 0.08533 0.0
C1836 C 0.49872 0.0122 0.02557 0.0
C1837 C 0.5034 0.01954 0.9926 0.0
C1838 C 0.49567 0.9939 0.03212 0.0
C1839 C 0.49161 0.98572 0.06676 0.0
C1840 C 0.50375 0.99547 0.09388 0.0
C1841 C 0.49976 0.98778 0.1265 0.0
C1842 C 0.48374 0.97026 0.13229 0.0
C1843 C 0.4717 0.96039 0.10544 0.0
C1844 C 0.47561 0.96803 0.07277 0.0
C1845 C 0.52477 0.97625 0.90441 0.0
C1846 C 0.51052 0.9578 0.89702 0.0
C1847 C 0.52189 0.98692 0.92875 0.0
C1848 C 0.50462 0.97941 0.94596 0.0
C1849 C 0.49027 0.96098 0.93833 0.0
C1850 C 0.49317 0.95029 0.91387 0.0
C1851 C 0.5018 0.99066 0.97246 0.0
C1852 C 0.4971 0.98333 0.00544 0.0
C1853 C 0.50482 0.00896 0.9659 0.0
C1854 C 0.50879 0.01711 0.93124 0.0
C1855 C 0.49665 0.00728 0.90417 0.0
C1856 C 0.50055 0.01495 0.87153 0.0
C1857 C 0.51649 0.03252 0.86567 0.0
C1858 C 0.52853 0.04247 0.89247 0.0
C1859 C 0.52471 0.03485 0.92516 0.0
H1860 H 0.51948 0.03844 0.84039 0.0
H1861 H 0.48068 0.96433 0.15756 0.0
H1862 H 0.02919 0.53167 0.86718 0.0
H1863 H 0.01107 0.50925 0.91221 0.0
H1864 H 0.047 0.54929 0.98748 0.0
H1865 H 0.06518 0.57179 0.94233 0.0
H1866 H 0.03757 0.51137 0.00137 0.0
H1867 H 0.00742 0.54689 0.97217 0.0
H1868 H 0.99346 0.55989 0.9328 0.0
H1869 H 0.95139 0.50393 0.90368 0.0
H1870 H 0.96533 0.49058 0.94243 0.0
H1871 H 0.97894 0.46965 0.14365 0.0
H1872 H 0.99782 0.49278 0.10012 0.0
H1873 H 0.95879 0.45708 0.02331 0.0
H1874 H 0.93958 0.43421 0.06708 0.0
H1875 H 0.97018 0.49324 0.0104 0.0
H1876 H 0.99994 0.45741 0.0379 0.0
H1877 H 0.01391 0.4437 0.07565 0.0
H1878 H 0.05651 0.49913 0.10631 0.0
H1879 H 0.0426 0.51317 0.06913 0.0
C1880 C 0.03349 0.53548 0.89329 0.0
C1881 C 0.04864 0.55335 0.9014 0.0
C1882 C 0.02305 0.52275 0.91898 0.0
C1883 C 0.0276 0.52768 0.95318 0.0
C1884 C 0.04327 0.54521 0.96125 0.0
C1885 C 0.05362 0.55802 0.93554 0.0
C1886 C 0.01534 0.51498 0.98046 0.0
C1887 C 0.0229 0.50758 0.00366 0.0
C1888 C 0.9961 0.50975 0.98294 0.0
C1889 C 0.98754 0.51774 0.95996 0.0
C1890 C 0.99529 0.53735 0.95717 0.0
C1891 C 0.98737 0.54478 0.93499 0.0
C1892 C 0.97157 0.53274 0.9157 0.0
C1893 C 0.96364 0.51324 0.91861 0.0
C1894 C 0.97154 0.50573 0.94069 0.0
C1895 C 0.97417 0.46699 0.11757 0.0
C1896 C 0.95779 0.45022 0.10863 0.0
C1897 C 0.98507 0.48009 0.09267 0.0
C1898 C 0.97991 0.47653 0.05833 0.0
C1899 C 0.9631 0.46012 0.04958 0.0
C1900 C 0.95216 0.44706 0.07453 0.0
C1901 C 0.99236 0.48954 0.03143 0.0
C1902 C 0.98485 0.49702 0.00824 0.0
C1903 C 0.01162 0.49473 0.02882 0.0
C1904 C 0.02011 0.48634 0.05099 0.0
C1905 C 0.0122 0.46667 0.05288 0.0
C1906 C 0.02012 0.45884 0.07415 0.0
C1907 C 0.03606 0.47054 0.09343 0.0
C1908 C 0.04414 0.49009 0.0914 0.0
C1909 C 0.03625 0.49799 0.07022 0.0
H1910 H 0.04218 0.46445 0.10988 0.0
H1911 H 0.96546 0.53852 0.89854 0.0
H1912 H 0.46866 0.48989 0.86379 0.0
H1913 H 0.49142 0.49439 0.90836 0.0
H1914 H 0.45486 0.4977 0.98328 0.0
H1915 H 0.43203 0.49314 0.93863 0.0
H1916 H 0.49351 0.52505 0.99183 0.0
H1917 H 0.45428 0.45832 0.97582 0.0
H1918 H 0.43887 0.429 0.94241 0.0
H1919 H 0.49294 0.43771 0.9119 0.0
H1920 H 0.50868 0.46728 0.94467 0.0
H1921 H 0.53456 0.51184 0.13911 0.0
H1922 H 0.51154 0.50699 0.09493 0.0
H1923 H 0.54555 0.49874 0.02105 0.0
H1924 H 0.56844 0.50326 0.0655 0.0
H1925 H 0.50819 0.47396 0.01166 0.0
H1926 H 0.54763 0.54039 0.02677 0.0
H1927 H 0.56357 0.5701 0.05901 0.0
H1928 H 0.50998 0.56256 0.08979 0.0
H1929 H 0.49371 0.53261 0.05817 0.0
C1930 C 0.46568 0.49192 0.8897 0.0
C1931 C 0.44872 0.49132 0.89789 0.0
C1932 C 0.47859 0.49435 0.91513 0.0
C1933 C 0.47475 0.49625 0.94914 0.0
C1934 C 0.45808 0.49627 0.9572 0.0
C1935 C 0.44508 0.49365 0.93178 0.0
C1936 C 0.48781 0.49752 0.9764 0.0
C1937 C 0.49655 0.51379 0.99649 0.0
C1938 C 0.49208 0.48299 0.9819 0.0
C1939 C 0.48265 0.46512 0.96242 0.0
C1940 C 0.46289 0.45407 0.96175 0.0
C1941 C 0.45409 0.43739 0.94296 0.0
C1942 C 0.46492 0.43152 0.92497 0.0
C1943 C 0.48457 0.44229 0.92581 0.0
C1944 C 0.49343 0.45901 0.9445 0.0
C1945 C 0.53689 0.50862 0.11356 0.0
C1946 C 0.55317 0.50782 0.1056 0.0
C1947 C 0.52385 0.50603 0.08829 0.0
C1948 C 0.52694 0.50274 0.05458 0.0
C1949 C 0.54289 0.50128 0.04686 0.0
C1950 C 0.55595 0.50389 0.07216 0.0
C1951 C 0.51389 0.5015 0.02723 0.0
C1952 C 0.50516 0.48523 0.00707 0.0
C1953 C 0.50972 0.51609 0.02154 0.0
C1954 C 0.51945 0.53416 0.04038 0.0
C1955 C 0.53924 0.54499 0.04064 0.0
C1956 C 0.54834 0.56188 0.05877 0.0
C1957 C 0.5378 0.56819 0.0765 0.0
C1958 C 0.51813 0.55764 0.07608 0.0
C1959 C 0.50896 0.5407 0.05804 0.0
H1960 H 0.54486 0.58128 0.09052 0.0
H1961 H 0.45808 0.41859 0.91045 0.0
H1962 H 0.21304 0.21869 0.13146 0.0
H1963 H 0.21943 0.1966 0.10122 0.0
H1964 H 0.18376 0.19444 0.01901 0.0
H1965 H 0.17716 0.21667 0.04926 0.0
H1966 H 0.18187 0.15891 0.03345 0.0
H1967 H 0.22742 0.2231 0.00912 0.0
H1968 H 0.24998 0.25622 0.02324 0.0
H1969 H 0.28345 0.23889 0.07989 0.0
H1970 H 0.26091 0.20563 0.06655 0.0
H1971 H 0.22864 0.12718 0.91737 0.0
H1972 H 0.21393 0.14367 0.9436 0.0
H1973 H 0.24998 0.15617 0.03083 0.0
H1974 H 0.26452 0.13951 0.00508 0.0
H1975 H 0.24999 0.18703 0.00784 0.0
H1976 H 0.20341 0.12256 0.03381 0.0
H1977 H 0.18057 0.0895 0.01981 0.0
H1978 H 0.14903 0.10745 0.95883 0.0
H1979 H 0.17185 0.14066 0.97209 0.0
C1980 C 0.20621 0.21327 0.10726 0.0
C1981 C 0.19482 0.2197 0.09254 0.0
C1982 C 0.2099 0.20063 0.09 0.0
C1983 C 0.20236 0.19419 0.05762 0.0
C1984 C 0.18978 0.19934 0.04393 0.0
C1985 C 0.18603 0.21204 0.06126 0.0
C1986 C 0.20927 0.18372 0.03712 0.0
C1987 C 0.1967 0.1651 0.02733 0.0
C1988 C 0.22864 0.19183 0.02934 0.0
C1989 C 0.24238 0.21185 0.03706 0.0
C1990 C 0.23951 0.22634 0.02479 0.0
C1991 C 0.25231 0.24514 0.03263 0.0
C1992 C 0.26811 0.24965 0.05251 0.0
C1993 C 0.27119 0.23537 0.06451 0.0
C1994 C 0.25842 0.21654 0.0568 0.0
C1995 C 0.2331 0.13297 0.94249 0.0
C1996 C 0.24753 0.13169 0.9594 0.0
C1997 C 0.22476 0.14254 0.95736 0.0
C1998 C 0.23074 0.15103 0.98932 0.0
C1999 C 0.24513 0.14974 0.00616 0.0
C2000 C 0.25343 0.14021 0.99138 0.0
C2001 C 0.22271 0.16195 0.00493 0.0
C2002 C 0.23511 0.1808 0.01366 0.0
C2003 C 0.2032 0.15404 0.01149 0.0
C2004 C 0.18945 0.1341 0.00362 0.0
C2005 C 0.19169 0.11947 0.01718 0.0
C2006 C 0.17873 0.1007 0.00942 0.0
C2007 C 0.16339 0.09638 0.98836 0.0
C2008 C 0.16095 0.11082 0.97509 0.0
C2009 C 0.17388 0.12961 0.98273 0.0
H2010 H 0.15337 0.08184 0.98239 0.0
H2011 H 0.278 0.26421 0.05858 0.0
H2012 H 0.84528 0.11465 0.96973 0.0
H2013 H 0.83071 0.08354 0.996 0.0
H2014 H 0.88114 0.08084 0.97843 0.0
H2015 H 0.89633 0.11241 0.95387 0.0
H2016 H 0.83382 0.04575 0.96177 0.0
H2017 H 0.88511 0.08366 0.04342 0.0
H2018 H 0.90373 0.11279 0.07647 0.0
H2019 H 0.85304 0.1061 0.12149 0.0
H2020 H 0.83413 0.07708 0.08825 0.0
H2021 H 0.79251 0.96261 0.06376 0.0
H2022 H 0.81695 0.99089 0.03515 0.0
H2023 H 0.80103 0.02517 0.09382 0.0
H2024 H 0.77747 0.99738 0.12333 0.0
H2025 H 0.83635 0.04364 0.08728 0.0
H2026 H 0.78484 0.00869 0.00896 0.0
H2027 H 0.76303 0.98102 0.97494 0.0
H2028 H 0.80989 0.98292 0.92262 0.0
H2029 H 0.83197 0.01049 0.95663 0.0
C2030 C 0.85332 0.10747 0.9712 0.0
C2031 C 0.87194 0.11607 0.95896 0.0
C2032 C 0.84491 0.08965 0.98612 0.0
C2033 C 0.85485 0.07994 0.98899 0.0
C2034 C 0.87322 0.08811 0.97615 0.0
C2035 C 0.8818 0.10613 0.96163 0.0
C2036 C 0.84613 0.06171 0.0072 0.0
C2037 C 0.83471 0.04511 0.98914 0.0
C2038 C 0.84688 0.06108 0.04288 0.0
C2039 C 0.85823 0.07836 0.06311 0.0
C2040 C 0.87795 0.08852 0.06012 0.0
C2041 C 0.88855 0.10498 0.07893 0.0
C2042 C 0.87957 0.11133 0.10099 0.0
C2043 C 0.85998 0.10119 0.10435 0.0
C2044 C 0.84932 0.08473 0.08555 0.0
C2045 C 0.79446 0.97622 0.07092 0.0
C2046 C 0.78289 0.97766 0.09571 0.0
C2047 C 0.80835 0.99239 0.05435 0.0
C2048 C 0.81064 0.01021 0.06176 0.0
C2049 C 0.79963 0.01166 0.08752 0.0
C2050 C 0.78604 0.99565 0.10439 0.0
C2051 C 0.82373 0.02737 0.04201 0.0
C2052 C 0.83584 0.04394 0.05982 0.0
C2053 C 0.82329 0.02798 0.00608 0.0
C2054 C 0.81004 0.01147 0.9856 0.0
C2055 C 0.79048 0.00312 0.99035 0.0
C2056 C 0.77808 0.98747 0.97106 0.0
C2057 C 0.78507 0.98017 0.94672 0.0
C2058 C 0.80449 0.98855 0.94154 0.0
C2059 C 0.81695 0.00419 0.96081 0.0
H2060 H 0.77545 0.96806 0.93181 0.0
H2061 H 0.8878 0.12407 0.11554 0.0
H2062 H 0.04193 0.82214 0.04532 0.0
H2063 H 0.01314 0.81638 0.01582 0.0
H2064 H 0.98009 0.7863 0.10314 0.0
H2065 H 0.00853 0.79184 0.1325 0.0
H2066 H 0.96831 0.76521 0.04602 0.0
H2067 H 0.98502 0.82833 0.07992 0.0
H2068 H 0.00581 0.86276 0.08332 0.0
H2069 H 0.00654 0.86659 0.97472 0.0
H2070 H 0.98595 0.83212 0.97065 0.0
H2071 H 0.8768 0.74407 0.01179 0.0
H2072 H 0.90838 0.75871 0.03596 0.0
H2073 H 0.93199 0.78554 0.94018 0.0
H2074 H 0.90025 0.77086 0.9157 0.0
H2075 H 0.95032 0.80923 0.99474 0.0
H2076 H 0.93298 0.74689 0.96022 0.0
H2077 H 0.9126 0.71245 0.9556 0.0
H2078 H 0.9141 0.70712 0.06368 0.0
H2079 H 0.93426 0.74157 0.06901 0.0
C2080 C 0.02857 0.81474 0.05853 0.0
C2081 C 0.0275 0.80724 0.0911 0.0
C2082 C 0.01213 0.81144 0.04162 0.0
C2083 C 0.99444 0.80075 0.05717 0.0
C2084 C 0.99356 0.79443 0.09052 0.0
C2085 C 0.00987 0.79765 0.10731 0.0
C2086 C 0.97665 0.79435 0.03799 0.0
C2087 C 0.96431 0.77487 0.03517 0.0
C2088 C 0.97178 0.80691 0.02253 0.0
C2089 C 0.98412 0.82762 0.02497 0.0
C2090 C 0.98976 0.83649 0.05675 0.0
C2091 C 0.00147 0.85602 0.0588 0.0
C2092 C 0.00755 0.86685 0.02925 0.0
C2093 C 0.00186 0.85818 0.99759 0.0
C2094 C 0.99015 0.83865 0.99539 0.0
C2095 C 0.88868 0.7532 0.99587 0.0
C2096 C 0.88598 0.75637 0.96186 0.0
C2097 C 0.90674 0.76157 0.00974 0.0
C2098 C 0.92258 0.77305 0.98978 0.0
C2099 C 0.91995 0.77679 0.95607 0.0
C2100 C 0.90178 0.76845 0.94216 0.0
C2101 C 0.94177 0.78013 0.00393 0.0
C2102 C 0.9544 0.79963 0.00552 0.0
C2103 C 0.94707 0.7676 0.01812 0.0
C2104 C 0.93502 0.74684 0.01503 0.0
C2105 C 0.92885 0.73839 0.98303 0.0
C2106 C 0.91736 0.71886 0.98028 0.0
C2107 C 0.91203 0.70761 0.00934 0.0
C2108 C 0.91822 0.71586 0.0412 0.0
C2109 C 0.9297 0.73539 0.0441 0.0
H2110 H 0.90313 0.69249 0.00716 0.0
H2111 H 0.01662 0.88197 0.0309 0.0
H2112 H 0.7709 0.87292 0.08176 0.0
H2113 H 0.78622 0.85707 0.05525 0.0
H2114 H 0.76127 0.85754 0.95918 0.0
H2115 H 0.74573 0.87305 0.9857 0.0
H2116 H 0.75582 0.82421 0.97072 0.0
H2117 H 0.80959 0.88658 0.97734 0.0
H2118 H 0.8326 0.91598 0.00577 0.0
H2119 H 0.85002 0.88496 0.0694 0.0
H2120 H 0.82691 0.85532 0.04165 0.0
H2121 H 0.80009 0.79235 0.86265 0.0
H2122 H 0.79451 0.81574 0.89023 0.0
H2123 H 0.81515 0.80649 0.98468 0.0
H2124 H 0.8212 0.78326 0.95693 0.0
H2125 H 0.82372 0.84405 0.97652 0.0
H2126 H 0.76945 0.78163 0.96864 0.0
H2127 H 0.74683 0.75272 0.93841 0.0
H2128 H 0.73049 0.78488 0.87549 0.0
H2129 H 0.75323 0.81402 0.90496 0.0
C2130 C 0.76906 0.87005 0.05485 0.0
C2131 C 0.7573 0.87442 0.0357 0.0
C2132 C 0.77779 0.86093 0.03971 0.0
C2133 C 0.77506 0.85624 0.00508 0.0
C2134 C 0.76358 0.86096 0.98591 0.0
C2135 C 0.75472 0.86984 0.00109 0.0
C2136 C 0.78308 0.84535 0.98904 0.0
C2137 C 0.77072 0.82875 0.97166 0.0
C2138 C 0.80244 0.8509 0.99103 0.0
C2139 C 0.81638 0.86871 0.00766 0.0
C2140 C 0.81822 0.88601 0.99758 0.0
C2141 C 0.8313 0.90272 0.01354 0.0
C2142 C 0.84273 0.90233 0.03944 0.0
C2143 C 0.84113 0.88523 0.04937 0.0
C2144 C 0.82806 0.86847 0.03352 0.0
C2145 C 0.80392 0.79564 0.88908 0.0
C2146 C 0.81082 0.78576 0.90776 0.0
C2147 C 0.80068 0.80899 0.90483 0.0
C2148 C 0.80396 0.81249 0.93969 0.0
C2149 C 0.81241 0.8039 0.95779 0.0
C2150 C 0.81587 0.79064 0.94189 0.0
C2151 C 0.79649 0.82328 0.95768 0.0
C2152 C 0.80886 0.83965 0.97562 0.0
C2153 C 0.77712 0.81763 0.95613 0.0
C2154 C 0.76316 0.80003 0.93883 0.0
C2155 C 0.76111 0.78254 0.94823 0.0
C2156 C 0.74826 0.76611 0.93122 0.0
C2157 C 0.73725 0.76696 0.90498 0.0
C2158 C 0.73903 0.78423 0.89577 0.0
C2159 C 0.75189 0.80071 0.91263 0.0
H2160 H 0.72733 0.75423 0.89182 0.0
H2161 H 0.85285 0.91529 0.05175 0.0
H2162 H 0.22051 0.0392 0.95607 0.0
H2163 H 0.19828 0.01023 0.98578 0.0
H2164 H 0.18751 0.97896 0.89263 0.0
H2165 H 0.21012 0.00764 0.86313 0.0
H2166 H 0.16197 0.98152 0.98357 0.0
H2167 H 0.18843 0.93983 0.90646 0.0
H2168 H 0.2162 0.94588 0.87264 0.0
H2169 H 0.25117 0.99467 0.93306 0.0
H2170 H 0.22359 0.98884 0.96736 0.0
H2171 H 0.10792 0.88304 0.02419 0.0
H2172 H 0.12371 0.9142 0.99752 0.0
H2173 H 0.17703 0.92415 0.03705 0.0
H2174 H 0.16134 0.89286 0.06283 0.0
H2175 H 0.18132 0.9332 0.97468 0.0
H2176 H 0.15276 0.94686 0.06825 0.0
H2177 H 0.12667 0.94243 0.10546 0.0
H2178 H 0.09926 0.95179 0.0211 0.0
H2179 H 0.12507 0.95604 0.98328 0.0
C2180 C 0.21303 0.02624 0.94174 0.0
C2181 C 0.21731 0.02563 0.90739 0.0
C2182 C 0.20032 0.00968 0.95877 0.0
C2183 C 0.19158 0.99234 0.94162 0.0
C2184 C 0.19441 0.9921 0.90656 0.0
C2185 C 0.20731 0.00853 0.88969 0.0
C2186 C 0.18144 0.97436 0.96085 0.0
C2187 C 0.16612 0.9709 0.9816 0.0
C2188 C 0.18714 0.96068 0.95896 0.0
C2189 C 0.20393 0.96395 0.93929 0.0
C2190 C 0.20207 0.95177 0.91265 0.0
C2191 C 0.21777 0.95518 0.89336 0.0
C2192 C 0.23545 0.97065 0.90066 0.0
C2193 C 0.23747 0.98271 0.92738 0.0
C2194 C 0.2218 0.97937 0.94673 0.0
C2195 C 0.12294 0.89206 0.02777 0.0
C2196 C 0.13339 0.88563 0.04589 0.0
C2197 C 0.13198 0.90988 0.01248 0.0
C2198 C 0.15159 0.92169 0.01546 0.0
C2199 C 0.16191 0.91535 0.03423 0.0
C2200 C 0.15294 0.89748 0.04905 0.0
C2201 C 0.16163 0.94012 0.99744 0.0
C2202 C 0.17702 0.94371 0.97676 0.0
C2203 C 0.15623 0.95402 1.00015 0.0
C2204 C 0.14076 0.9516 0.02288 0.0
C2205 C 0.1411 0.94785 0.05759 0.0
C2206 C 0.12638 0.94539 0.07879 0.0
C2207 C 0.11129 0.94678 0.06563 0.0
C2208 C 0.11094 0.9507 0.03125 0.0
C2209 C 0.12562 0.95315 0.00993 0.0
H2210 H 0.09991 0.94487 0.08209 0.0
H2211 H 0.24757 0.97327 0.88563 0.0
H2212 H 0.1084 0.26566 0.04842 0.0
H2213 H 0.07687 0.24846 0.02407 0.0
H2214 H 0.08315 0.1997 0.01018 0.0
H2215 H 0.11507 0.21713 0.03335 0.0
H2216 H 0.06887 0.20581 0.95511 0.0
H2217 H 0.05358 0.19992 0.07174 0.0
H2218 H 0.05482 0.21024 0.13083 0.0
H2219 H 0.03351 0.24626 0.09976 0.0
H2220 H 0.0324 0.23637 0.04038 0.0
H2221 H 0.95959 0.1729 0.94929 0.0
H2222 H 0.98699 0.17523 0.9788 0.0
H2223 H 0.02373 0.21498 0.90383 0.0
H2224 H 0.99665 0.21241 0.87396 0.0
H2225 H 0.01368 0.20474 0.00904 0.0
H2226 H 0.06406 0.21547 0.89585 0.0
H2227 H 0.06204 0.20284 0.83834 0.0
H2228 H 0.01146 0.15202 0.86574 0.0
H2229 H 0.0133 0.16422 0.92356 0.0
C2230 C 0.10304 0.25122 0.04043 0.0
C2231 C 0.11414 0.24266 0.04355 0.0
C2232 C 0.08493 0.24134 0.02674 0.0
C2233 C 0.07745 0.22263 0.01588 0.0
C2234 C 0.08852 0.21404 0.01877 0.0
C2235 C 0.1067 0.22396 0.03248 0.0
C2236 C 0.05846 0.21257 0.99994 0.0
C2237 C 0.05675 0.20541 0.967 0.0
C2238 C 0.04247 0.21151 0.01581 0.0
C2239 C 0.04299 0.21746 0.05154 0.0
C2240 C 0.04927 0.21013 0.07746 0.0
C2241 C 0.04993 0.2159 0.11102 0.0
C2242 C 0.04427 0.22892 0.11904 0.0
C2243 C 0.03789 0.23617 0.09351 0.0
C2244 C 0.03721 0.23046 0.0599 0.0
C2245 C 0.97348 0.18178 0.93866 0.0
C2246 C 0.97588 0.19253 0.90931 0.0
C2247 C 0.98914 0.18317 0.95565 0.0
C2248 C 0.00747 0.19521 0.94351 0.0
C2249 C 0.00978 0.20532 0.91346 0.0
C2250 C 0.9942 0.20391 0.89646 0.0
C2251 C 0.02431 0.19876 0.96359 0.0
C2252 C 0.02566 0.20476 0.99734 0.0
C2253 C 0.03984 0.19838 0.94869 0.0
C2254 C 0.03878 0.19082 0.91405 0.0
C2255 C 0.05257 0.20155 0.8897 0.0
C2256 C 0.05144 0.19448 0.85701 0.0
C2257 C 0.03661 0.17665 0.84837 0.0
C2258 C 0.02291 0.16585 0.87243 0.0
C2259 C 0.02398 0.17285 0.90516 0.0
H2260 H 0.03575 0.17121 0.82304 0.0
H2261 H 0.0448 0.23337 0.14504 0.0
H2262 H 0.84568 0.55033 0.38087 0.0
H2263 H 0.85116 0.52692 0.35211 0.0
H2264 H 0.88245 0.52541 0.43877 0.0
H2265 H 0.87713 0.54862 0.46744 0.0
H2266 H 0.90288 0.53484 0.37975 0.0
H2267 H 0.84111 0.48789 0.41899 0.0
H2268 H 0.80668 0.47341 0.42478 0.0
H2269 H 0.80047 0.4678 0.31664 0.0
H2270 H 0.83493 0.48251 0.31017 0.0
H2271 H 0.92618 0.4659 0.34769 0.0
H2272 H 0.91101 0.48229 0.37198 0.0
H2273 H 0.88202 0.47642 0.27759 0.0
H2274 H 0.89724 0.45994 0.25302 0.0
H2275 H 0.85916 0.4713 0.33368 0.0
H2276 H 0.92011 0.51692 0.29378 0.0
H2277 H 0.95451 0.53179 0.28662 0.0
H2278 H 0.96222 0.54099 0.39399 0.0
H2279 H 0.92783 0.52591 0.40188 0.0
C2280 C 0.85327 0.5446 0.39413 0.0
C2281 C 0.8612 0.55154 0.42624 0.0
C2282 C 0.8564 0.53125 0.37765 0.0
C2283 C 0.86739 0.5246 0.39319 0.0
C2284 C 0.87409 0.53049 0.42619 0.0
C2285 C 0.871 0.54376 0.44256 0.0
C2286 C 0.87383 0.51323 0.37417 0.0
C2287 C 0.8933 0.52086 0.37001 0.0
C2288 C 0.86131 0.49535 0.36019 0.0
C2289 C 0.84062 0.48651 0.36407 0.0
C2290 C 0.83243 0.48375 0.39642 0.0
C2291 C 0.8129 0.47545 0.39983 0.0
C2292 C 0.8014 0.46974 0.37109 0.0
C2293 C 0.8094 0.47227 0.33887 0.0
C2294 C 0.82893 0.48057 0.33532 0.0
C2295 C 0.91645 0.46794 0.33215 0.0
C2296 C 0.91284 0.4615 0.29849 0.0
C2297 C 0.90777 0.4773 0.34607 0.0
C2298 C 0.89554 0.48077 0.32648 0.0
C2299 C 0.89135 0.47382 0.2932 0.0
C2300 C 0.9 0.46431 0.27924 0.0
C2301 C 0.88822 0.49269 0.34042 0.0
C2302 C 0.86868 0.48531 0.34331 0.0
C2303 C 0.90065 0.51095 0.35307 0.0
C2304 C 0.92137 0.52015 0.34844 0.0
C2305 C 0.92913 0.52199 0.3159 0.0
C2306 C 0.94863 0.53048 0.3117 0.0
C2307 C 0.96054 0.5373 0.33984 0.0
C2308 C 0.95298 0.53569 0.37223 0.0
C2309 C 0.93348 0.52719 0.37657 0.0
H2310 H 0.97563 0.54387 0.33654 0.0
H2311 H 0.78628 0.46332 0.37379 0.0
H2312 H 0.51294 0.44996 0.30138 0.0
H2313 H 0.49741 0.41875 0.32722 0.0
H2314 H 0.5476 0.4151 0.31367 0.0
H2315 H 0.56375 0.4468 0.28958 0.0
H2316 H 0.50299 0.38051 0.29352 0.0
H2317 H 0.54836 0.41955 0.38091 0.0
H2318 H 0.56451 0.44851 0.41525 0.0
H2319 H 0.5112 0.43881 0.45275 0.0
H2320 H 0.49474 0.40993 0.41816 0.0
H2321 H 0.45732 0.29696 0.39541 0.0
H2322 H 0.48248 0.32549 0.3685 0.0
H2323 H 0.462 0.35869 0.41815 0.0
H2324 H 0.43769 0.33069 0.44605 0.0
H2325 H 0.49748 0.37772 0.41891 0.0
H2326 H 0.45158 0.34222 0.33161 0.0
H2327 H 0.43264 0.31449 0.29544 0.0
H2328 H 0.48318 0.31812 0.25602 0.0
H2329 H 0.50241 0.34577 0.29227 0.0
C2330 C 0.52075 0.44257 0.30366 0.0
C2331 C 0.53958 0.45094 0.29264 0.0
C2332 C 0.51178 0.42468 0.31832 0.0
C2333 C 0.52135 0.41465 0.3221 0.0
C2334 C 0.53995 0.42261 0.31055 0.0
C2335 C 0.5491 0.44071 0.29634 0.0
C2336 C 0.51196 0.39632 0.33995 0.0
C2337 C 0.50211 0.37974 0.32097 0.0
C2338 C 0.51046 0.3955 0.37562 0.0
C2339 C 0.52034 0.41271 0.39671 0.0
C2340 C 0.54009 0.4237 0.39622 0.0
C2341 C 0.5493 0.44007 0.41579 0.0
C2342 C 0.53889 0.44552 0.4361 0.0
C2343 C 0.51925 0.43458 0.43697 0.0
C2344 C 0.50998 0.4182 0.41742 0.0
C2345 C 0.45836 0.3104 0.40083 0.0
C2346 C 0.44543 0.31149 0.4228 0.0
C2347 C 0.47267 0.32669 0.38526 0.0
C2348 C 0.47402 0.34429 0.3908 0.0
C2349 C 0.46139 0.34537 0.41344 0.0
C2350 C 0.44738 0.32925 0.42937 0.0
C2351 C 0.48803 0.36164 0.37258 0.0
C2352 C 0.49869 0.3782 0.39149 0.0
C2353 C 0.48995 0.36244 0.33677 0.0
C2354 C 0.47841 0.34589 0.31493 0.0
C2355 C 0.45864 0.33702 0.31539 0.0
C2356 C 0.44785 0.32134 0.29485 0.0
C2357 C 0.4567 0.31451 0.27353 0.0
C2358 C 0.47635 0.3234 0.27261 0.0
C2359 C 0.4872 0.33908 0.29313 0.0
H2360 H 0.44833 0.30237 0.25766 0.0
H2361 H 0.54604 0.45821 0.45123 0.0
H2362 H 0.55652 0.06831 0.29078 0.0
H2363 H 0.58751 0.08476 0.31745 0.0
H2364 H 0.58816 0.13741 0.30831 0.0
H2365 H 0.55669 0.12102 0.28322 0.0
H2366 H 0.62508 0.12975 0.28908 0.0
H2367 H 0.5827 0.13267 0.37468 0.0
H2368 H 0.55264 0.11784 0.40608 0.0
H2369 H 0.56295 0.0741 0.44046 0.0
H2370 H 0.59293 0.08854 0.40879 0.0
H2371 H 0.70588 0.16562 0.39866 0.0
H2372 H 0.67823 0.16309 0.36945 0.0
H2373 H 0.6434 0.10828 0.41438 0.0
H2374 H 0.67037 0.11113 0.44458 0.0
H2375 H 0.6244 0.12442 0.41441 0.0
H2376 H 0.66302 0.117 0.32888 0.0
H2377 H 0.69189 0.12737 0.29509 0.0
H2378 H 0.6883 0.17481 0.25845 0.0
H2379 H 0.6595 0.1648 0.29234 0.0
C2380 C 0.56326 0.08343 0.29409 0.0
C2381 C 0.55408 0.0933 0.28423 0.0
C2382 C 0.58102 0.09279 0.30919 0.0
C2383 C 0.5901 0.11227 0.31461 0.0
C2384 C 0.5814 0.12238 0.30391 0.0
C2385 C 0.56344 0.11295 0.28917 0.0
C2386 C 0.60793 0.12146 0.33401 0.0
C2387 C 0.62509 0.12908 0.31655 0.0
C2388 C 0.60778 0.12008 0.36968 0.0
C2389 C 0.58994 0.11158 0.38914 0.0
C2390 C 0.57846 0.1198 0.38869 0.0
C2391 C 0.56146 0.11149 0.40659 0.0
C2392 C 0.55586 0.09501 0.42519 0.0
C2393 C 0.56729 0.08685 0.42602 0.0
C2394 C 0.58429 0.0951 0.40813 0.0
C2395 C 0.69225 0.15318 0.40259 0.0
C2396 C 0.69039 0.13859 0.42395 0.0
C2397 C 0.67646 0.15167 0.38569 0.0
C2398 C 0.65867 0.13535 0.38922 0.0
C2399 C 0.65685 0.12108 0.41122 0.0
C2400 C 0.67241 0.12272 0.4285 0.0
C2401 C 0.64185 0.13243 0.36961 0.0
C2402 C 0.62471 0.12577 0.38703 0.0
C2403 C 0.64204 0.13434 0.33383 0.0
C2404 C 0.65928 0.1403 0.31343 0.0
C2405 C 0.66847 0.12971 0.31377 0.0
C2406 C 0.6848 0.13551 0.29459 0.0
C2407 C 0.69196 0.15177 0.27473 0.0
C2408 C 0.68276 0.16224 0.27392 0.0
C2409 C 0.66644 0.15651 0.29309 0.0
H2410 H 0.70461 0.15624 0.2599 0.0
H2411 H 0.5427 0.08859 0.43902 0.0
H2412 H 0.49354 0.1218 0.28171 0.0
H2413 H 0.49027 0.14637 0.31111 0.0
H2414 H 0.45348 0.14516 0.23176 0.0
H2415 H 0.45683 0.12097 0.2022 0.0
H2416 H 0.47617 0.18063 0.25351 0.0
H2417 H 0.43623 0.11893 0.30465 0.0
H2418 H 0.4305 0.08989 0.33378 0.0
H2419 H 0.46601 0.12274 0.41612 0.0
H2420 H 0.47214 0.15199 0.38722 0.0
H2421 H 0.41043 0.20258 0.32039 0.0
H2422 H 0.42758 0.18821 0.29603 0.0
H2423 H 0.45829 0.19756 0.38955 0.0
H2424 H 0.44069 0.21148 0.41448 0.0
H2425 H 0.44551 0.16242 0.36639 0.0
H2426 H 0.48055 0.22381 0.31985 0.0
H2427 H 0.48572 0.25273 0.29115 0.0
H2428 H 0.45984 0.22113 0.20077 0.0
H2429 H 0.45425 0.19195 0.22908 0.0
C2430 C 0.48509 0.12707 0.27017 0.0
C2431 C 0.47528 0.11924 0.23976 0.0
C2432 C 0.48314 0.14103 0.28711 0.0
C2433 C 0.47137 0.14738 0.27392 0.0
C2434 C 0.46259 0.14046 0.24251 0.0
C2435 C 0.46448 0.12654 0.22567 0.0
C2436 C 0.46682 0.16008 0.29358 0.0
C2437 C 0.46947 0.17667 0.27819 0.0
C2438 C 0.45858 0.15521 0.32625 0.0
C2439 C 0.45483 0.13763 0.3436 0.0
C2440 C 0.44292 0.11995 0.32884 0.0
C2441 C 0.43959 0.10346 0.34532 0.0
C2442 C 0.44794 0.10448 0.37673 0.0
C2443 C 0.4596 0.12198 0.39175 0.0
C2444 C 0.463 0.13851 0.37534 0.0
C2445 C 0.42093 0.20171 0.33575 0.0
C2446 C 0.42445 0.20855 0.36917 0.0
C2447 C 0.43084 0.19362 0.32168 0.0
C2448 C 0.44452 0.19214 0.3407 0.0
C2449 C 0.44798 0.19879 0.37423 0.0
C2450 C 0.43807 0.20697 0.38833 0.0
C2451 C 0.45433 0.1827 0.32583 0.0
C2452 C 0.45263 0.16669 0.34209 0.0
C2453 C 0.46346 0.18812 0.29396 0.0
C2454 C 0.46689 0.20566 0.27669 0.0
C2455 C 0.47585 0.223 0.29393 0.0
C2456 C 0.47887 0.23945 0.27772 0.0
C2457 C 0.47309 0.23877 0.24418 0.0
C2458 C 0.46431 0.22164 0.22675 0.0
C2459 C 0.46124 0.20514 0.24286 0.0
H2460 H 0.47544 0.25152 0.23167 0.0
H2461 H 0.44534 0.09172 0.38949 0.0
H2462 H 0.77142 0.21673 0.36098 0.0
H2463 H 0.78752 0.2474 0.33244 0.0
H2464 H 0.84106 0.25563 0.36691 0.0
H2465 H 0.82509 0.225 0.39507 0.0
H2466 H 0.81084 0.28392 0.34954 0.0
H2467 H 0.87284 0.27399 0.30489 0.0
H2468 H 0.87869 0.24807 0.29055 0.0
H2469 H 0.82023 0.21248 0.26599 0.0
H2470 H 0.81408 0.23825 0.27969 0.0
H2471 H 0.8897 0.37015 0.29356 0.0
H2472 H 0.86589 0.34096 0.32031 0.0
H2473 H 0.85584 0.312 0.22454 0.0
H2474 H 0.88028 0.3409 0.19822 0.0
H2475 H 0.8607 0.29269 0.26808 0.0
H2476 H 0.82225 0.32099 0.26637 0.0
H2477 H 0.81394 0.34567 0.27581 0.0
H2478 H 0.82073 0.34267 0.38315 0.0
H2479 H 0.82934 0.31814 0.37433 0.0
C2480 C 0.78657 0.22529 0.36318 0.0
C2481 C 0.797 0.21851 0.38041 0.0
C2482 C 0.79577 0.24278 0.34671 0.0
C2483 C 0.81552 0.25371 0.34712 0.0
C2484 C 0.82584 0.24731 0.36572 0.0
C2485 C 0.8167 0.22982 0.38186 0.0
C2486 C 0.82555 0.27117 0.32647 0.0
C2487 C 0.82173 0.28588 0.33165 0.0
C2488 C 0.83936 0.27352 0.30239 0.0
C2489 C 0.84298 0.25801 0.29362 0.0
C2490 C 0.86125 0.26066 0.29628 0.0
C2491 C 0.86462 0.24599 0.28828 0.0
C2492 C 0.84983 0.22862 0.27746 0.0
C2493 C 0.83166 0.22591 0.27448 0.0
C2494 C 0.82822 0.24054 0.28239 0.0
C2495 C 0.88211 0.35765 0.27808 0.0
C2496 C 0.88694 0.35778 0.24385 0.0
C2497 C 0.86842 0.34094 0.29338 0.0
C2498 C 0.85896 0.32417 0.27452 0.0
C2499 C 0.86301 0.32465 0.23979 0.0
C2500 C 0.87694 0.34121 0.2247 0.0
C2501 C 0.84636 0.3058 0.29147 0.0
C2502 C 0.84974 0.29084 0.2857 0.0
C2503 C 0.83182 0.30311 0.3142 0.0
C2504 C 0.82659 0.31782 0.31965 0.0
C2505 C 0.82211 0.32568 0.29197 0.0
C2506 C 0.81732 0.33963 0.29722 0.0
C2507 C 0.81685 0.34576 0.33005 0.0
C2508 C 0.82111 0.33791 0.35773 0.0
C2509 C 0.82592 0.32397 0.35262 0.0
H2510 H 0.81314 0.35656 0.33406 0.0
H2511 H 0.85246 0.21728 0.27132 0.0
H2512 H 0.66191 0.53813 0.19644 0.0
H2513 H 0.69059 0.54292 0.22406 0.0
H2514 H 0.66031 0.52248 0.3183 0.0
H2515 H 0.63136 0.51706 0.29038 0.0
H2516 H 0.70806 0.56739 0.26998 0.0
H2517 H 0.6837 0.50841 0.37183 0.0
H2518 H 0.66025 0.47468 0.37812 0.0
H2519 H 0.65926 0.46749 0.27019 0.0
H2520 H 0.68289 0.50109 0.26328 0.0
H2521 H 0.77548 0.59951 0.39769 0.0
H2522 H 0.74471 0.58424 0.36992 0.0
H2523 H 0.75506 0.54098 0.33151 0.0
H2524 H 0.78578 0.55607 0.35988 0.0
H2525 H 0.71842 0.5261 0.34835 0.0
H2526 H 0.76332 0.57811 0.28191 0.0
H2527 H 0.78801 0.61098 0.27117 0.0
H2528 H 0.74974 0.63012 0.29894 0.0
H2529 H 0.72488 0.59737 0.3103 0.0
C2530 C 0.66124 0.5342 0.22284 0.0
C2531 C 0.64439 0.52734 0.24129 0.0
C2532 C 0.67768 0.537 0.23866 0.0
C2533 C 0.67772 0.5332 0.27336 0.0
C2534 C 0.66065 0.52532 0.29142 0.0
C2535 C 0.64408 0.52224 0.27543 0.0
C2536 C 0.69593 0.53947 0.29118 0.0
C2537 C 0.71027 0.55827 0.28696 0.0
C2538 C 0.69903 0.52761 0.31313 0.0
C2539 C 0.68494 0.50733 0.31705 0.0
C2540 C 0.67854 0.49962 0.34945 0.0
C2541 C 0.6652 0.48052 0.35312 0.0
C2542 C 0.65822 0.46896 0.32457 0.0
C2543 C 0.66461 0.47647 0.29228 0.0
C2544 C 0.67796 0.49555 0.28847 0.0
C2545 C 0.77107 0.58659 0.38373 0.0
C2546 C 0.78298 0.57894 0.38108 0.0
C2547 C 0.75351 0.57789 0.36782 0.0
C2548 C 0.74769 0.56162 0.34815 0.0
C2549 C 0.75923 0.55349 0.3466 0.0
C2550 C 0.77676 0.5621 0.36292 0.0
C2551 C 0.73025 0.55401 0.3274 0.0
C2552 C 0.71611 0.53508 0.33117 0.0
C2553 C 0.72743 0.56559 0.3043 0.0
C2554 C 0.74229 0.5853 0.29721 0.0
C2555 C 0.76021 0.58934 0.28592 0.0
C2556 C 0.77423 0.60795 0.27971 0.0
C2557 C 0.77046 0.62263 0.28444 0.0
C2558 C 0.75264 0.61873 0.29532 0.0
C2559 C 0.73858 0.60015 0.30162 0.0
H2560 H 0.78133 0.63703 0.27962 0.0
H2561 H 0.64789 0.45419 0.32746 0.0
H2562 H 0.55841 0.78867 0.58689 0.0
H2563 H 0.54143 0.80273 0.61405 0.0
H2564 H 0.57604 0.81463 0.70326 0.0
H2565 H 0.59258 0.80011 0.67661 0.0
H2566 H 0.53965 0.80192 0.72035 0.0
H2567 H 0.58564 0.84819 0.64314 0.0
H2568 H 0.60038 0.85982 0.5872 0.0
H2569 H 0.54796 0.85157 0.54776 0.0
H2570 H 0.53285 0.83966 0.6034 0.0
H2571 H 0.54563 0.88088 0.80086 0.0
H2572 H 0.54878 0.85648 0.77179 0.0
H2573 H 0.51155 0.85471 0.69275 0.0
H2574 H 0.5086 0.87961 0.72155 0.0
H2575 H 0.54278 0.85806 0.66632 0.0
H2576 H 0.49833 0.81691 0.74716 0.0
H2577 H 0.48412 0.80597 0.80363 0.0
H2578 H 0.53333 0.80465 0.83681 0.0
H2579 H 0.54796 0.81584 0.78069 0.0
C2580 C 0.562 0.79381 0.61264 0.0
C2581 C 0.57654 0.79295 0.62995 0.0
C2582 C 0.55246 0.80206 0.62797 0.0
C2583 C 0.55749 0.80979 0.66069 0.0
C2584 C 0.57182 0.80866 0.67811 0.0
C2585 C 0.58133 0.80046 0.66281 0.0
C2586 C 0.5486 0.81992 0.67642 0.0
C2587 C 0.54036 0.81423 0.70861 0.0
C2588 C 0.54898 0.83561 0.66065 0.0
C2589 C 0.55807 0.84282 0.62727 0.0
C2590 C 0.57723 0.84872 0.62245 0.0
C2591 C 0.58565 0.85538 0.59083 0.0
C2592 C 0.5751 0.85637 0.56391 0.0
C2593 C 0.5561 0.85075 0.56861 0.0
C2594 C 0.5476 0.84405 0.60018 0.0
C2595 C 0.5378 0.87511 0.77761 0.0
C2596 C 0.52694 0.88233 0.76347 0.0
C2597 C 0.53953 0.86102 0.76106 0.0
C2598 C 0.5303 0.85361 0.73014 0.0
C2599 C 0.51879 0.86019 0.71661 0.0
C2600 C 0.51704 0.87436 0.7332 0.0
C2601 C 0.53424 0.84038 0.71075 0.0
C2602 C 0.54161 0.8455 0.67784 0.0
C2603 C 0.53307 0.82416 0.72591 0.0
C2604 C 0.52428 0.81731 0.75971 0.0
C2605 C 0.50617 0.8144 0.76655 0.0
C2606 C 0.49803 0.80814 0.7985 0.0
C2607 C 0.50782 0.80464 0.8238 0.0
C2608 C 0.52576 0.80736 0.81718 0.0
C2609 C 0.53397 0.81364 0.78528 0.0
H2610 H 0.5015 0.7998 0.84852 0.0
H2611 H 0.58164 0.86154 0.53945 0.0
H2612 H 0.22833 0.78128 0.6322 0.0
H2613 H 0.21136 0.75008 0.65846 0.0
H2614 H 0.15915 0.75032 0.64775 0.0
H2615 H 0.17586 0.7812 0.62081 0.0
H2616 H 0.16497 0.74193 0.7125 0.0
H2617 H 0.16868 0.72315 0.59742 0.0
H2618 H 0.18549 0.72286 0.54581 0.0
H2619 H 0.21505 0.70114 0.60294 0.0
H2620 H 0.19859 0.70155 0.65503 0.0
H2621 H 0.09075 0.6534 0.74547 0.0
H2622 H 0.11372 0.6822 0.71737 0.0
H2623 H 0.15581 0.66557 0.72767 0.0
H2624 H 0.1321 0.63571 0.75415 0.0
H2625 H 0.16018 0.68293 0.66893 0.0
H2626 H 0.15366 0.69833 0.78317 0.0
H2627 H 0.13571 0.69754 0.83394 0.0
H2628 H 0.11195 0.72601 0.7793 0.0
H2629 H 0.1295 0.72671 0.72807 0.0
C2630 C 0.21319 0.77449 0.63439 0.0
C2631 C 0.20343 0.78366 0.62378 0.0
C2632 C 0.20352 0.75669 0.64976 0.0
C2633 C 0.18398 0.74785 0.65499 0.0
C2634 C 0.17423 0.75689 0.64405 0.0
C2635 C 0.18382 0.77455 0.62862 0.0
C2636 C 0.17358 0.72961 0.67327 0.0
C2637 C 0.16386 0.72901 0.70291 0.0
C2638 C 0.17274 0.7129 0.66149 0.0
C2639 C 0.18258 0.71261 0.63018 0.0
C2640 C 0.17889 0.71848 0.59904 0.0
C2641 C 0.18833 0.71826 0.56969 0.0
C2642 C 0.20138 0.71204 0.57112 0.0
C2643 C 0.20497 0.70598 0.60189 0.0
C2644 C 0.19558 0.7062 0.63132 0.0
C2645 C 0.1049 0.65584 0.74173 0.0
C2646 C 0.10979 0.64254 0.75255 0.0
C2647 C 0.11807 0.67238 0.72579 0.0
C2648 C 0.13674 0.67646 0.72152 0.0
C2649 C 0.14156 0.66286 0.73112 0.0
C2650 C 0.12808 0.64588 0.7463 0.0
C2651 C 0.15097 0.69512 0.70753 0.0
C2652 C 0.16153 0.69587 0.67891 0.0
C2653 C 0.15273 0.71209 0.72038 0.0
C2654 C 0.14286 0.7125 0.7517 0.0
C2655 C 0.1446 0.70441 0.78198 0.0
C2656 C 0.13447 0.70396 0.81083 0.0
C2657 C 0.12265 0.71167 0.8098 0.0
C2658 C 0.12109 0.72003 0.78004 0.0
C2659 C 0.13116 0.72049 0.75111 0.0
H2660 H 0.11467 0.71115 0.83203 0.0
H2661 H 0.20867 0.71188 0.54836 0.0
H2662 H 0.21697 0.44288 0.64541 0.0
H2663 H 0.24819 0.45801 0.67174 0.0
H2664 H 0.25786 0.41478 0.63071 0.0
H2665 H 0.22653 0.39944 0.60504 0.0
H2666 H 0.2672 0.41937 0.69314 0.0
H2667 H 0.28051 0.46146 0.59983 0.0
H2668 H 0.27608 0.48309 0.56254 0.0
H2669 H 0.28595 0.52017 0.64657 0.0
H2670 H 0.29018 0.49863 0.68449 0.0
H2671 H 0.3731 0.48572 0.71111 0.0
H2672 H 0.3442 0.47938 0.68166 0.0
H2673 H 0.31302 0.45907 0.77499 0.0
H2674 H 0.34165 0.46481 0.80426 0.0
H2675 H 0.31547 0.4871 0.68421 0.0
H2676 H 0.27374 0.4181 0.76043 0.0
H2677 H 0.27986 0.39605 0.79317 0.0
H2678 H 0.32924 0.41142 0.73337 0.0
H2679 H 0.32326 0.43333 0.69999 0.0
C2680 C 0.22593 0.43686 0.6414 0.0
C2681 C 0.21943 0.42012 0.62278 0.0
C2682 C 0.24378 0.4455 0.65653 0.0
C2683 C 0.25553 0.43767 0.65297 0.0
C2684 C 0.24909 0.4211 0.63391 0.0
C2685 C 0.2312 0.41236 0.61918 0.0
C2686 C 0.27405 0.44602 0.67064 0.0
C2687 C 0.2777 0.43419 0.6911 0.0
C2688 C 0.28794 0.46532 0.66781 0.0
C2689 C 0.28548 0.47834 0.64506 0.0
C2690 C 0.28159 0.47416 0.61041 0.0
C2691 C 0.27914 0.48641 0.58915 0.0
C2692 C 0.28068 0.50297 0.60219 0.0
C2693 C 0.28473 0.50733 0.63651 0.0
C2694 C 0.28717 0.49511 0.65789 0.0
C2695 C 0.36019 0.48041 0.72556 0.0
C2696 C 0.35957 0.47544 0.75986 0.0
C2697 C 0.34367 0.47679 0.70868 0.0
C2698 C 0.32636 0.46831 0.72594 0.0
C2699 C 0.32614 0.46524 0.761 0.0
C2700 C 0.34253 0.46858 0.77773 0.0
C2701 C 0.30836 0.46045 0.70683 0.0
C2702 C 0.30485 0.47232 0.68622 0.0
C2703 C 0.29473 0.44105 0.7087 0.0
C2704 C 0.29814 0.42748 0.72796 0.0
C2705 C 0.28584 0.41668 0.75416 0.0
C2706 C 0.2893 0.40423 0.77285 0.0
C2707 C 0.30496 0.40238 0.76543 0.0
C2708 C 0.31715 0.4129 0.73917 0.0
C2709 C 0.31373 0.42534 0.72037 0.0
H2710 H 0.30764 0.39277 0.77999 0.0
H2711 H 0.27878 0.51244 0.5857 0.0
H2712 H 0.07988 0.51291 0.74335 0.0
H2713 H 0.09679 0.49919 0.71475 0.0
H2714 H 0.12548 0.54861 0.6518 0.0
H2715 H 0.10898 0.56267 0.68105 0.0
H2716 H 0.10054 0.50534 0.6225 0.0
H2717 H 0.15361 0.54951 0.69172 0.0
H2718 H 0.16824 0.56423 0.74627 0.0
H2719 H 0.15469 0.5102 0.78642 0.0
H2720 H 0.1397 0.49511 0.73224 0.0
H2721 H 0.14517 0.46519 0.53336 0.0
H2722 H 0.14164 0.48999 0.56095 0.0
H2723 H 0.14021 0.46551 0.65865 0.0
H2724 H 0.14535 0.44174 0.63117 0.0
H2725 H 0.1541 0.50012 0.6684 0.0
H2726 H 0.09885 0.4548 0.60833 0.0
H2727 H 0.08071 0.43648 0.55858 0.0
H2728 H 0.09344 0.48762 0.5069 0.0
H2729 H 0.11188 0.50626 0.55621 0.0
C2730 C 0.09003 0.52096 0.72378 0.0
C2731 C 0.09331 0.5389 0.7146 0.0
C2732 C 0.09967 0.51314 0.70756 0.0
C2733 C 0.11244 0.52297 0.6814 0.0
C2734 C 0.11581 0.54093 0.6722 0.0
C2735 C 0.10647 0.54896 0.68898 0.0
C2736 C 0.12112 0.51375 0.66227 0.0
C2737 C 0.11253 0.50452 0.63202 0.0
C2738 C 0.13621 0.5121 0.6756 0.0
C2739 C 0.14536 0.52117 0.70805 0.0
C2740 C 0.15357 0.54074 0.71229 0.0
C2741 C 0.16197 0.54916 0.74312 0.0
C2742 C 0.16235 0.53815 0.76983 0.0
C2743 C 0.15437 0.51871 0.76572 0.0
C2744 C 0.14594 0.51022 0.73495 0.0
C2745 C 0.14468 0.46552 0.56079 0.0
C2746 C 0.14545 0.45157 0.58019 0.0
C2747 C 0.14244 0.47955 0.57656 0.0
C2748 C 0.13992 0.47927 0.61189 0.0
C2749 C 0.14198 0.46604 0.63138 0.0
C2750 C 0.14493 0.45244 0.61568 0.0
C2751 C 0.13356 0.49156 0.62823 0.0
C2752 C 0.14238 0.5012 0.65825 0.0
C2753 C 0.11822 0.49311 0.61524 0.0
C2754 C 0.10691 0.48192 0.58578 0.0
C2755 C 0.09785 0.46214 0.58629 0.0
C2756 C 0.08752 0.4517 0.55818 0.0
C2757 C 0.08597 0.46089 0.52956 0.0
C2758 C 0.09469 0.48053 0.52906 0.0
C2759 C 0.10507 0.49104 0.55707 0.0
H2760 H 0.07799 0.45278 0.5078 0.0
H2761 H 0.16886 0.54469 0.79368 0.0
H2762 H 0.43926 0.54855 0.6922 0.0
H2763 H 0.45512 0.57928 0.66388 0.0
H2764 H 0.50883 0.5881 0.69867 0.0
H2765 H 0.49309 0.55739 0.72661 0.0
H2766 H 0.47771 0.61562 0.68144 0.0
H2767 H 0.54102 0.60775 0.63751 0.0
H2768 H 0.54779 0.58246 0.62308 0.0
H2769 H 0.48966 0.5458 0.59745 0.0
H2770 H 0.4826 0.57095 0.61126 0.0
H2771 H 0.55535 0.70302 0.62522 0.0
H2772 H 0.53201 0.67365 0.65223 0.0
H2773 H 0.52245 0.64458 0.55669 0.0
H2774 H 0.5464 0.67367 0.53013 0.0
H2775 H 0.52826 0.62591 0.60042 0.0
H2776 H 0.48825 0.6525 0.59846 0.0
H2777 H 0.47904 0.67653 0.60788 0.0
H2778 H 0.48602 0.67381 0.71522 0.0
H2779 H 0.49552 0.64993 0.70643 0.0
C2780 C 0.45439 0.55723 0.69448 0.0
C2781 C 0.46493 0.55061 0.71182 0.0
C2782 C 0.46345 0.57477 0.67815 0.0
C2783 C 0.48319 0.58591 0.67876 0.0
C2784 C 0.49362 0.57963 0.69732 0.0
C2785 C 0.48461 0.56209 0.71334 0.0
C2786 C 0.49305 0.60354 0.65845 0.0
C2787 C 0.48875 0.61791 0.66366 0.0
C2788 C 0.50709 0.60633 0.63454 0.0
C2789 C 0.51126 0.59119 0.62573 0.0
C2790 C 0.52971 0.59432 0.62865 0.0
C2791 C 0.53359 0.58 0.6206 0.0
C2792 C 0.51916 0.56251 0.60946 0.0
C2793 C 0.50082 0.55933 0.60621 0.0
C2794 C 0.49686 0.5736 0.61417 0.0
C2795 C 0.54793 0.69045 0.60984 0.0
C2796 C 0.55278 0.6906 0.57562 0.0
C2797 C 0.53453 0.67363 0.62529 0.0
C2798 C 0.52539 0.65678 0.60658 0.0
C2799 C 0.52939 0.65729 0.57183 0.0
C2800 C 0.54303 0.67396 0.5566 0.0
C2801 C 0.51323 0.63834 0.62367 0.0
C2802 C 0.51715 0.62373 0.61797 0.0
C2803 C 0.49852 0.63522 0.64632 0.0
C2804 C 0.49275 0.64953 0.65175 0.0
C2805 C 0.48795 0.65712 0.62406 0.0
C2806 C 0.48266 0.6707 0.62929 0.0
C2807 C 0.48198 0.67672 0.66212 0.0
C2808 C 0.48656 0.66914 0.6898 0.0
C2809 C 0.49188 0.65556 0.68471 0.0
H2810 H 0.47788 0.68724 0.66612 0.0
H2811 H 0.52219 0.55144 0.60327 0.0
H2812 H 0.33058 0.87331 0.54052 0.0
H2813 H 0.3575 0.87599 0.57138 0.0
H2814 H 0.32149 0.84587 0.6558 0.0
H2815 H 0.29428 0.84325 0.62498 0.0
H2816 H 0.35153 0.87836 0.676 0.0
H2817 H 0.34261 0.82619 0.61026 0.0
H2818 H 0.33696 0.80701 0.55884 0.0
H2819 H 0.38881 0.85025 0.51587 0.0
H2820 H 0.39466 0.86983 0.56682 0.0
H2821 H 0.4362 0.89406 0.75807 0.0
H2822 H 0.40446 0.87691 0.73385 0.0
H2823 H 0.42644 0.90327 0.63704 0.0
H2824 H 0.45816 0.92003 0.6608 0.0
H2825 H 0.40061 0.86608 0.62966 0.0
H2826 H 0.40592 0.91998 0.69061 0.0
H2827 H 0.41145 0.93968 0.74129 0.0
H2828 H 0.36595 0.89287 0.79277 0.0
H2829 H 0.36032 0.87281 0.74249 0.0
C2830 C 0.32825 0.86689 0.56538 0.0
C2831 C 0.31026 0.85815 0.58033 0.0
C2832 C 0.34369 0.86836 0.58297 0.0
C2833 C 0.34155 0.86106 0.61589 0.0
C2834 C 0.32347 0.85158 0.63039 0.0
C2835 C 0.30792 0.85 0.61267 0.0
C2836 C 0.35853 0.86507 0.63594 0.0
C2837 C 0.36203 0.87522 0.66631 0.0
C2838 C 0.37242 0.86127 0.62308 0.0
C2839 C 0.36902 0.84953 0.59235 0.0
C2840 C 0.35275 0.83167 0.58976 0.0
C2841 C 0.34952 0.82072 0.5607 0.0
C2842 C 0.36251 0.82741 0.53409 0.0
C2843 C 0.37877 0.84507 0.53651 0.0
C2844 C 0.38207 0.8561 0.56551 0.0
C2845 C 0.43436 0.89585 0.73145 0.0
C2846 C 0.44977 0.90823 0.71125 0.0
C2847 C 0.41616 0.88619 0.71772 0.0
C2848 C 0.41305 0.88883 0.68362 0.0
C2849 C 0.42848 0.90092 0.66335 0.0
C2850 C 0.4466 0.9106 0.67705 0.0
C2851 C 0.39374 0.8798 0.66907 0.0
C2852 C 0.38987 0.86877 0.63973 0.0
C2853 C 0.37951 0.88279 0.68283 0.0
C2854 C 0.38287 0.89484 0.71299 0.0
C2855 C 0.3972 0.91385 0.71285 0.0
C2856 C 0.40033 0.92509 0.74147 0.0
C2857 C 0.3891 0.91752 0.77028 0.0
C2858 C 0.37467 0.8987 0.77047 0.0
C2859 C 0.3715 0.88739 0.74192 0.0
H2860 H 0.39154 0.92624 0.79241 0.0
H2861 H 0.35998 0.81891 0.51161 0.0
loop_
_geom_bond_atom_site_label_1
_geom_bond_atom_site_label_2
_geom_bond_distance
_geom_bond_site_symmetry_2
_ccdc_geom_bond_type
Co0 O3 1.970 . S
Co0 N17 1.989 . S
Co0 O25 1.967 . S
Co0 O32 1.920 . S
Co1 O4 1.966 . S
Co1 N10 2.022 . S
Co1 N18 1.993 . S
Co1 O26 1.941 . S
C2 O3 1.258 . S
C2 O4 1.263 . S
O3 Co0 1.970 . S
O3 C2 1.258 . S
O4 Co1 1.966 . S
O4 C2 1.263 . S
C5 O6 1.235 . S
C5 O32 1.289 . S
O6 C5 1.235 . S
C7 C9 1.400 . S
C7 N10 1.351 . S
C7 C12 1.501 . S
C8 C9 1.387 . S
C8 N11 1.341 . S
C9 C7 1.400 . S
C9 C8 1.387 . S
N10 Co1 2.022 . S
N10 C7 1.351 . S
N10 N11 1.365 . S
N11 C8 1.341 . S
N11 N10 1.365 . S
N11 H31 0.862 . S
C12 C7 1.501 . S
C12 H13 0.961 . S
C12 H14 0.961 . S
C12 H15 0.960 . S
H13 C12 0.961 . S
H14 C12 0.961 . S
H15 C12 0.960 . S
C16 N17 1.342 . S
C16 C20 1.401 . S
C16 C21 1.499 . S
N17 Co0 1.989 . S
N17 C16 1.342 . S
N17 N18 1.388 . S
N18 Co1 1.993 . S
N18 N17 1.388 . S
N18 C19 1.346 . S
C19 N18 1.346 . S
C19 C20 1.396 . S
C19 C29 1.510 . S
C20 C16 1.401 . S
C20 C19 1.396 . S
C21 C16 1.499 . S
C21 H22 0.959 . S
C21 H23 0.960 . S
C21 H24 0.961 . S
H22 C21 0.959 . S
H23 C21 0.960 . S
H24 C21 0.961 . S
O25 Co0 1.967 . S
O25 C33 1.258 . S
O26 Co1 1.941 . S
O26 C33 1.266 . S
H27 C29 0.959 . S
H28 C29 0.961 . S
C29 C19 1.510 . S
C29 H27 0.959 . S
C29 H28 0.961 . S
C29 H30 0.960 . S
H30 C29 0.960 . S
H31 N11 0.862 . S
O32 Co0 1.920 . S
O32 C5 1.289 . S
C33 O25 1.258 . S
C33 O26 1.266 . S
Co34 O37 1.970 . S
Co34 N51 1.989 . S
Co34 O59 1.967 . S
Co34 O66 1.920 . S
Co35 O38 1.966 . S
Co35 N44 2.022 . S
Co35 N52 1.993 . S
Co35 O60 1.941 . S
C36 O37 1.258 . S
C36 O38 1.263 . S
O37 Co34 1.970 . S
O37 C36 1.258 . S
O38 Co35 1.966 . S
O38 C36 1.263 . S
C39 O40 1.235 . S
C39 O66 1.289 . S
O40 C39 1.235 . S
C41 C43 1.400 . S
C41 N44 1.351 . S
C41 C46 1.501 . S
C42 C43 1.387 . S
C42 N45 1.341 . S
C43 C41 1.400 . S
C43 C42 1.387 . S
N44 Co35 2.022 . S
N44 C41 1.351 . S
N44 N45 1.365 . S
N45 C42 1.341 . S
N45 N44 1.365 . S
N45 H65 0.862 . S
C46 C41 1.501 . S
C46 H47 0.961 . S
C46 H48 0.961 . S
C46 H49 0.960 . S
H47 C46 0.961 . S
H48 C46 0.961 . S
H49 C46 0.960 . S
C50 N51 1.342 . S
C50 C54 1.401 . S
C50 C55 1.499 . S
N51 Co34 1.989 . S
N51 C50 1.342 . S
N51 N52 1.388 . S
N52 Co35 1.993 . S
N52 N51 1.388 . S
N52 C53 1.346 . S
C53 N52 1.346 . S
C53 C54 1.396 . S
C53 C63 1.510 . S
C54 C50 1.401 . S
C54 C53 1.396 . S
C55 C50 1.499 . S
C55 H56 0.959 . S
C55 H57 0.960 . S
C55 H58 0.961 . S
H56 C55 0.959 . S
H57 C55 0.960 . S
H58 C55 0.961 . S
O59 Co34 1.967 . S
O59 C67 1.258 . S
O60 Co35 1.941 . S
O60 C67 1.266 . S
H61 C63 0.959 . S
H62 C63 0.961 . S
C63 C53 1.510 . S
C63 H61 0.959 . S
C63 H62 0.961 . S
C63 H64 0.960 . S
H64 C63 0.960 . S
H65 N45 0.862 . S
O66 Co34 1.920 . S
O66 C39 1.289 . S
C67 O59 1.258 . S
C67 O60 1.266 . S
Co68 O71 1.970 . S
Co68 N85 1.989 . S
Co68 O93 1.967 . S
Co68 O100 1.920 . S
Co69 O72 1.966 . S
Co69 N78 2.022 . S
Co69 N86 1.993 . S
Co69 O94 1.941 . S
C70 O71 1.258 . S
C70 O72 1.263 . S
O71 Co68 1.970 . S
O71 C70 1.258 . S
O72 Co69 1.966 . S
O72 C70 1.263 . S
C73 O74 1.235 . S
C73 O100 1.289 . S
O74 C73 1.235 . S
C75 C77 1.400 . S
C75 N78 1.351 . S
C75 C80 1.501 . S
C76 C77 1.387 . S
C76 N79 1.341 . S
C77 C75 1.400 . S
C77 C76 1.387 . S
N78 Co69 2.022 . S
N78 C75 1.351 . S
N78 N79 1.365 . S
N79 C76 1.341 . S
N79 N78 1.365 . S
N79 H99 0.862 . S
C80 C75 1.501 . S
C80 H81 0.961 . S
C80 H82 0.961 . S
C80 H83 0.960 . S
H81 C80 0.961 . S
H82 C80 0.961 . S
H83 C80 0.960 . S
C84 N85 1.342 . S
C84 C88 1.401 . S
C84 C89 1.499 . S
N85 Co68 1.989 . S
N85 C84 1.342 . S
N85 N86 1.388 . S
N86 Co69 1.993 . S
N86 N85 1.388 . S
N86 C87 1.346 . S
C87 N86 1.346 . S
C87 C88 1.396 . S
C87 C97 1.510 . S
C88 C84 1.401 . S
C88 C87 1.396 . S
C89 C84 1.499 . S
C89 H90 0.959 . S
C89 H91 0.960 . S
C89 H92 0.961 . S
H90 C89 0.959 . S
H91 C89 0.960 . S
H92 C89 0.961 . S
O93 Co68 1.967 . S
O93 C101 1.258 . S
O94 Co69 1.941 . S
O94 C101 1.266 . S
H95 C97 0.959 . S
H96 C97 0.961 . S
C97 C87 1.510 . S
C97 H95 0.959 . S
C97 H96 0.961 . S
C97 H98 0.960 . S
H98 C97 0.960 . S
H99 N79 0.862 . S
O100 Co68 1.920 . S
O100 C73 1.289 . S
C101 O93 1.258 . S
C101 O94 1.266 . S
Co102 O105 1.970 . S
Co102 N119 1.989 . S
Co102 O127 1.967 . S
Co102 O134 1.920 . S
Co103 O106 1.966 . S
Co103 N112 2.022 . S
Co103 N120 1.993 . S
Co103 O128 1.941 . S
C104 O105 1.258 . S
C104 O106 1.263 . S
O105 Co102 1.970 . S
O105 C104 1.258 . S
O106 Co103 1.966 . S
O106 C104 1.263 . S
C107 O108 1.235 . S
C107 O134 1.289 . S
O108 C107 1.235 . S
C109 C111 1.400 . S
C109 N112 1.351 . S
C109 C114 1.501 . S
C110 C111 1.387 . S
C110 N113 1.341 . S
C111 C109 1.400 . S
C111 C110 1.387 . S
N112 Co103 2.022 . S
N112 C109 1.351 . S
N112 N113 1.365 . S
N113 C110 1.341 . S
N113 N112 1.365 . S
N113 H133 0.862 . S
C114 C109 1.501 . S
C114 H115 0.961 . S
C114 H116 0.961 . S
C114 H117 0.960 . S
H115 C114 0.961 . S
H116 C114 0.961 . S
H117 C114 0.960 . S
C118 N119 1.342 . S
C118 C122 1.401 . S
C118 C123 1.499 . S
N119 Co102 1.989 . S
N119 C118 1.342 . S
N119 N120 1.388 . S
N120 Co103 1.993 . S
N120 N119 1.388 . S
N120 C121 1.346 . S
C121 N120 1.346 . S
C121 C122 1.396 . S
C121 C131 1.510 . S
C122 C118 1.401 . S
C122 C121 1.396 . S
C123 C118 1.499 . S
C123 H124 0.959 . S
C123 H125 0.960 . S
C123 H126 0.961 . S
H124 C123 0.959 . S
H125 C123 0.960 . S
H126 C123 0.961 . S
O127 Co102 1.967 . S
O127 C135 1.258 . S
O128 Co103 1.941 . S
O128 C135 1.266 . S
H129 C131 0.959 . S
H130 C131 0.961 . S
C131 C121 1.510 . S
C131 H129 0.959 . S
C131 H130 0.961 . S
C131 H132 0.960 . S
H132 C131 0.960 . S
H133 N113 0.862 . S
O134 Co102 1.920 . S
O134 C107 1.289 . S
C135 O127 1.258 . S
C135 O128 1.266 . S
Co136 O139 1.970 . S
Co136 N153 1.989 . S
Co136 O161 1.967 . S
Co136 O168 1.920 . S
Co137 O140 1.966 . S
Co137 N146 2.022 . S
Co137 N154 1.993 . S
Co137 O162 1.941 . S
C138 O139 1.258 . S
C138 O140 1.263 . S
O139 Co136 1.970 . S
O139 C138 1.258 . S
O140 Co137 1.966 . S
O140 C138 1.263 . S
C141 O142 1.235 . S
C141 O168 1.289 . S
O142 C141 1.235 . S
C143 C145 1.400 . S
C143 N146 1.351 . S
C143 C148 1.501 . S
C144 C145 1.387 . S
C144 N147 1.341 . S
C145 C143 1.400 . S
C145 C144 1.387 . S
N146 Co137 2.022 . S
N146 C143 1.351 . S
N146 N147 1.365 . S
N147 C144 1.341 . S
N147 N146 1.365 . S
N147 H167 0.862 . S
C148 C143 1.501 . S
C148 H149 0.961 . S
C148 H150 0.961 . S
C148 H151 0.960 . S
H149 C148 0.961 . S
H150 C148 0.961 . S
H151 C148 0.960 . S
C152 N153 1.342 . S
C152 C156 1.401 . S
C152 C157 1.499 . S
N153 Co136 1.989 . S
N153 C152 1.342 . S
N153 N154 1.388 . S
N154 Co137 1.993 . S
N154 N153 1.388 . S
N154 C155 1.346 . S
C155 N154 1.346 . S
C155 C156 1.396 . S
C155 C165 1.510 . S
C156 C152 1.401 . S
C156 C155 1.396 . S
C157 C152 1.499 . S
C157 H158 0.959 . S
C157 H159 0.960 . S
C157 H160 0.961 . S
H158 C157 0.959 . S
H159 C157 0.960 . S
H160 C157 0.961 . S
O161 Co136 1.967 . S
O161 C169 1.258 . S
O162 Co137 1.941 . S
O162 C169 1.266 . S
H163 C165 0.959 . S
H164 C165 0.961 . S
C165 C155 1.510 . S
C165 H163 0.959 . S
C165 H164 0.961 . S
C165 H166 0.960 . S
H166 C165 0.960 . S
H167 N147 0.862 . S
O168 Co136 1.920 . S
O168 C141 1.289 . S
C169 O161 1.258 . S
C169 O162 1.266 . S
Co170 O173 1.970 . S
Co170 N187 1.989 . S
Co170 O195 1.967 . S
Co170 O202 1.920 . S
Co171 O174 1.966 . S
Co171 N180 2.022 . S
Co171 N188 1.993 . S
Co171 O196 1.941 . S
C172 O173 1.258 . S
C172 O174 1.263 . S
O173 Co170 1.970 . S
O173 C172 1.258 . S
O174 Co171 1.966 . S
O174 C172 1.263 . S
C175 O176 1.235 . S
C175 O202 1.289 . S
O176 C175 1.235 . S
C177 C179 1.400 . S
C177 N180 1.351 . S
C177 C182 1.501 . S
C178 C179 1.387 . S
C178 N181 1.341 . S
C179 C177 1.400 . S
C179 C178 1.387 . S
N180 Co171 2.022 . S
N180 C177 1.351 . S
N180 N181 1.365 . S
N181 C178 1.341 . S
N181 N180 1.365 . S
N181 H201 0.862 . S
C182 C177 1.501 . S
C182 H183 0.961 . S
C182 H184 0.961 . S
C182 H185 0.960 . S
H183 C182 0.961 . S
H184 C182 0.961 . S
H185 C182 0.960 . S
C186 N187 1.342 . S
C186 C190 1.401 . S
C186 C191 1.499 . S
N187 Co170 1.989 . S
N187 C186 1.342 . S
N187 N188 1.388 . S
N188 Co171 1.993 . S
N188 N187 1.388 . S
N188 C189 1.346 . S
C189 N188 1.346 . S
C189 C190 1.396 . S
C189 C199 1.510 . S
C190 C186 1.401 . S
C190 C189 1.396 . S
C191 C186 1.499 . S
C191 H192 0.959 . S
C191 H193 0.960 . S
C191 H194 0.961 . S
H192 C191 0.959 . S
H193 C191 0.960 . S
H194 C191 0.961 . S
O195 Co170 1.967 . S
O195 C203 1.258 . S
O196 Co171 1.941 . S
O196 C203 1.266 . S
H197 C199 0.959 . S
H198 C199 0.961 . S
C199 C189 1.510 . S
C199 H197 0.959 . S
C199 H198 0.961 . S
C199 H200 0.960 . S
H200 C199 0.960 . S
H201 N181 0.862 . S
O202 Co170 1.920 . S
O202 C175 1.289 . S
C203 O195 1.258 . S
C203 O196 1.266 . S
Co204 O207 1.970 . S
Co204 N221 1.989 . S
Co204 O229 1.967 . S
Co204 O236 1.920 . S
Co205 O208 1.966 . S
Co205 N214 2.022 . S
Co205 N222 1.993 . S
Co205 O230 1.941 . S
C206 O207 1.258 . S
C206 O208 1.263 . S
O207 Co204 1.970 . S
O207 C206 1.258 . S
O208 Co205 1.966 . S
O208 C206 1.263 . S
C209 O210 1.235 . S
C209 O236 1.289 . S
O210 C209 1.235 . S
C211 C213 1.400 . S
C211 N214 1.351 . S
C211 C216 1.501 . S
C212 C213 1.387 . S
C212 N215 1.341 . S
C213 C211 1.400 . S
C213 C212 1.387 . S
N214 Co205 2.022 . S
N214 C211 1.351 . S
N214 N215 1.365 . S
N215 C212 1.341 . S
N215 N214 1.365 . S
N215 H235 0.862 . S
C216 C211 1.501 . S
C216 H217 0.961 . S
C216 H218 0.961 . S
C216 H219 0.960 . S
H217 C216 0.961 . S
H218 C216 0.961 . S
H219 C216 0.960 . S
C220 N221 1.342 . S
C220 C224 1.401 . S
C220 C225 1.499 . S
N221 Co204 1.989 . S
N221 C220 1.342 . S
N221 N222 1.388 . S
N222 Co205 1.993 . S
N222 N221 1.388 . S
N222 C223 1.346 . S
C223 N222 1.346 . S
C223 C224 1.396 . S
C223 C233 1.510 . S
C224 C220 1.401 . S
C224 C223 1.396 . S
C225 C220 1.499 . S
C225 H226 0.959 . S
C225 H227 0.960 . S
C225 H228 0.961 . S
H226 C225 0.959 . S
H227 C225 0.960 . S
H228 C225 0.961 . S
O229 Co204 1.967 . S
O229 C237 1.258 . S
O230 Co205 1.941 . S
O230 C237 1.266 . S
H231 C233 0.959 . S
H232 C233 0.961 . S
C233 C223 1.510 . S
C233 H231 0.959 . S
C233 H232 0.961 . S
C233 H234 0.960 . S
H234 C233 0.960 . S
H235 N215 0.862 . S
O236 Co204 1.920 . S
O236 C209 1.289 . S
C237 O229 1.258 . S
C237 O230 1.266 . S
Co238 O241 1.970 . S
Co238 N255 1.989 . S
Co238 O263 1.967 . S
Co238 O270 1.920 . S
Co239 O242 1.966 . S
Co239 N248 2.022 . S
Co239 N256 1.993 . S
Co239 O264 1.941 . S
C240 O241 1.258 . S
C240 O242 1.263 . S
O241 Co238 1.970 . S
O241 C240 1.258 . S
O242 Co239 1.966 . S
O242 C240 1.263 . S
C243 O244 1.235 . S
C243 O270 1.289 . S
O244 C243 1.235 . S
C245 C247 1.400 . S
C245 N248 1.351 . S
C245 C250 1.501 . S
C246 C247 1.387 . S
C246 N249 1.341 . S
C247 C245 1.400 . S
C247 C246 1.387 . S
N248 Co239 2.022 . S
N248 C245 1.351 . S
N248 N249 1.365 . S
N249 C246 1.341 . S
N249 N248 1.365 . S
N249 H269 0.862 . S
C250 C245 1.501 . S
C250 H251 0.961 . S
C250 H252 0.961 . S
C250 H253 0.960 . S
H251 C250 0.961 . S
H252 C250 0.961 . S
H253 C250 0.960 . S
C254 N255 1.342 . S
C254 C258 1.401 . S
C254 C259 1.499 . S
N255 Co238 1.989 . S
N255 C254 1.342 . S
N255 N256 1.388 . S
N256 Co239 1.993 . S
N256 N255 1.388 . S
N256 C257 1.346 . S
C257 N256 1.346 . S
C257 C258 1.396 . S
C257 C267 1.510 . S
C258 C254 1.401 . S
C258 C257 1.396 . S
C259 C254 1.499 . S
C259 H260 0.959 . S
C259 H261 0.960 . S
C259 H262 0.961 . S
H260 C259 0.959 . S
H261 C259 0.960 . S
H262 C259 0.961 . S
O263 Co238 1.967 . S
O263 C271 1.258 . S
O264 Co239 1.941 . S
O264 C271 1.266 . S
H265 C267 0.959 . S
H266 C267 0.961 . S
C267 C257 1.510 . S
C267 H265 0.959 . S
C267 H266 0.961 . S
C267 H268 0.960 . S
H268 C267 0.960 . S
H269 N249 0.862 . S
O270 Co238 1.920 . S
O270 C243 1.289 . S
C271 O263 1.258 . S
C271 O264 1.266 . S
Co272 O275 1.970 . S
Co272 N289 1.989 . S
Co272 O297 1.967 . S
Co272 O304 1.920 . S
Co273 O276 1.966 . S
Co273 N282 2.022 . S
Co273 N290 1.993 . S
Co273 O298 1.941 . S
C274 O275 1.258 . S
C274 O276 1.263 . S
O275 Co272 1.970 . S
O275 C274 1.258 . S
O276 Co273 1.966 . S
O276 C274 1.263 . S
C277 O278 1.235 . S
C277 O304 1.289 . S
O278 C277 1.235 . S
C279 C281 1.400 . S
C279 N282 1.351 . S
C279 C284 1.501 . S
C280 C281 1.387 . S
C280 N283 1.341 . S
C281 C279 1.400 . S
C281 C280 1.387 . S
N282 Co273 2.022 . S
N282 C279 1.351 . S
N282 N283 1.365 . S
N283 C280 1.341 . S
N283 N282 1.365 . S
N283 H303 0.862 . S
C284 C279 1.501 . S
C284 H285 0.961 . S
C284 H286 0.961 . S
C284 H287 0.960 . S
H285 C284 0.961 . S
H286 C284 0.961 . S
H287 C284 0.960 . S
C288 N289 1.342 . S
C288 C292 1.401 . S
C288 C293 1.499 . S
N289 Co272 1.989 . S
N289 C288 1.342 . S
N289 N290 1.388 . S
N290 Co273 1.993 . S
N290 N289 1.388 . S
N290 C291 1.346 . S
C291 N290 1.346 . S
C291 C292 1.396 . S
C291 C301 1.510 . S
C292 C288 1.401 . S
C292 C291 1.396 . S
C293 C288 1.499 . S
C293 H294 0.959 . S
C293 H295 0.960 . S
C293 H296 0.961 . S
H294 C293 0.959 . S
H295 C293 0.960 . S
H296 C293 0.961 . S
O297 Co272 1.967 . S
O297 C305 1.258 . S
O298 Co273 1.941 . S
O298 C305 1.266 . S
H299 C301 0.959 . S
H300 C301 0.961 . S
C301 C291 1.510 . S
C301 H299 0.959 . S
C301 H300 0.961 . S
C301 H302 0.960 . S
H302 C301 0.960 . S
H303 N283 0.862 . S
O304 Co272 1.920 . S
O304 C277 1.289 . S
C305 O297 1.258 . S
C305 O298 1.266 . S
Co306 O309 1.970 . S
Co306 N323 1.989 . S
Co306 O331 1.967 . S
Co306 O338 1.920 . S
Co307 O310 1.966 . S
Co307 N316 2.022 . S
Co307 N324 1.993 . S
Co307 O332 1.941 . S
C308 O309 1.258 . S
C308 O310 1.263 . S
O309 Co306 1.970 . S
O309 C308 1.258 . S
O310 Co307 1.966 . S
O310 C308 1.263 . S
C311 O312 1.235 . S
C311 O338 1.289 . S
O312 C311 1.235 . S
C313 C315 1.400 . S
C313 N316 1.351 . S
C313 C318 1.501 . S
C314 C315 1.387 . S
C314 N317 1.341 . S
C315 C313 1.400 . S
C315 C314 1.387 . S
N316 Co307 2.022 . S
N316 C313 1.351 . S
N316 N317 1.365 . S
N317 C314 1.341 . S
N317 N316 1.365 . S
N317 H337 0.862 . S
C318 C313 1.501 . S
C318 H319 0.961 . S
C318 H320 0.961 . S
C318 H321 0.960 . S
H319 C318 0.961 . S
H320 C318 0.961 . S
H321 C318 0.960 . S
C322 N323 1.342 . S
C322 C326 1.401 . S
C322 C327 1.499 . S
N323 Co306 1.989 . S
N323 C322 1.342 . S
N323 N324 1.388 . S
N324 Co307 1.993 . S
N324 N323 1.388 . S
N324 C325 1.346 . S
C325 N324 1.346 . S
C325 C326 1.396 . S
C325 C335 1.510 . S
C326 C322 1.401 . S
C326 C325 1.396 . S
C327 C322 1.499 . S
C327 H328 0.959 . S
C327 H329 0.960 . S
C327 H330 0.961 . S
H328 C327 0.959 . S
H329 C327 0.960 . S
H330 C327 0.961 . S
O331 Co306 1.967 . S
O331 C339 1.258 . S
O332 Co307 1.941 . S
O332 C339 1.266 . S
H333 C335 0.959 . S
H334 C335 0.961 . S
C335 C325 1.510 . S
C335 H333 0.959 . S
C335 H334 0.961 . S
C335 H336 0.960 . S
H336 C335 0.960 . S
H337 N317 0.862 . S
O338 Co306 1.920 . S
O338 C311 1.289 . S
C339 O331 1.258 . S
C339 O332 1.266 . S
Co340 O343 1.970 . S
Co340 N357 1.989 . S
Co340 O365 1.967 . S
Co340 O372 1.920 . S
Co341 O344 1.966 . S
Co341 N350 2.022 . S
Co341 N358 1.993 . S
Co341 O366 1.941 . S
C342 O343 1.258 . S
C342 O344 1.263 . S
O343 Co340 1.970 . S
O343 C342 1.258 . S
O344 Co341 1.966 . S
O344 C342 1.263 . S
C345 O346 1.235 . S
C345 O372 1.289 . S
O346 C345 1.235 . S
C347 C349 1.400 . S
C347 N350 1.351 . S
C347 C352 1.501 . S
C348 C349 1.387 . S
C348 N351 1.341 . S
C349 C347 1.400 . S
C349 C348 1.387 . S
N350 Co341 2.022 . S
N350 C347 1.351 . S
N350 N351 1.365 . S
N351 C348 1.341 . S
N351 N350 1.365 . S
N351 H371 0.862 . S
C352 C347 1.501 . S
C352 H353 0.961 . S
C352 H354 0.961 . S
C352 H355 0.960 . S
H353 C352 0.961 . S
H354 C352 0.961 . S
H355 C352 0.960 . S
C356 N357 1.342 . S
C356 C360 1.401 . S
C356 C361 1.499 . S
N357 Co340 1.989 . S
N357 C356 1.342 . S
N357 N358 1.388 . S
N358 Co341 1.993 . S
N358 N357 1.388 . S
N358 C359 1.346 . S
C359 N358 1.346 . S
C359 C360 1.396 . S
C359 C369 1.510 . S
C360 C356 1.401 . S
C360 C359 1.396 . S
C361 C356 1.499 . S
C361 H362 0.959 . S
C361 H363 0.960 . S
C361 H364 0.961 . S
H362 C361 0.959 . S
H363 C361 0.960 . S
H364 C361 0.961 . S
O365 Co340 1.967 . S
O365 C373 1.258 . S
O366 Co341 1.941 . S
O366 C373 1.266 . S
H367 C369 0.959 . S
H368 C369 0.961 . S
C369 C359 1.510 . S
C369 H367 0.959 . S
C369 H368 0.961 . S
C369 H370 0.960 . S
H370 C369 0.960 . S
H371 N351 0.862 . S
O372 Co340 1.920 . S
O372 C345 1.289 . S
C373 O365 1.258 . S
C373 O366 1.266 . S
Co374 O377 1.970 . S
Co374 N391 1.989 . S
Co374 O399 1.967 . S
Co374 O406 1.920 . S
Co375 O378 1.966 . S
Co375 N384 2.022 . S
Co375 N392 1.993 . S
Co375 O400 1.941 . S
C376 O377 1.258 . S
C376 O378 1.263 . S
O377 Co374 1.970 . S
O377 C376 1.258 . S
O378 Co375 1.966 . S
O378 C376 1.263 . S
C379 O380 1.235 . S
C379 O406 1.289 . S
O380 C379 1.235 . S
C381 C383 1.400 . S
C381 N384 1.351 . S
C381 C386 1.501 . S
C382 C383 1.387 . S
C382 N385 1.341 . S
C383 C381 1.400 . S
C383 C382 1.387 . S
N384 Co375 2.022 . S
N384 C381 1.351 . S
N384 N385 1.365 . S
N385 C382 1.341 . S
N385 N384 1.365 . S
N385 H405 0.862 . S
C386 C381 1.501 . S
C386 H387 0.961 . S
C386 H388 0.961 . S
C386 H389 0.960 . S
H387 C386 0.961 . S
H388 C386 0.961 . S
H389 C386 0.960 . S
C390 N391 1.342 . S
C390 C394 1.401 . S
C390 C395 1.499 . S
N391 Co374 1.989 . S
N391 C390 1.342 . S
N391 N392 1.388 . S
N392 Co375 1.993 . S
N392 N391 1.388 . S
N392 C393 1.346 . S
C393 N392 1.346 . S
C393 C394 1.396 . S
C393 C403 1.510 . S
C394 C390 1.401 . S
C394 C393 1.396 . S
C395 C390 1.499 . S
C395 H396 0.959 . S
C395 H397 0.960 . S
C395 H398 0.961 . S
H396 C395 0.959 . S
H397 C395 0.960 . S
H398 C395 0.961 . S
O399 Co374 1.967 . S
O399 C407 1.258 . S
O400 Co375 1.941 . S
O400 C407 1.266 . S
H401 C403 0.959 . S
H402 C403 0.961 . S
C403 C393 1.510 . S
C403 H401 0.959 . S
C403 H402 0.961 . S
C403 H404 0.960 . S
H404 C403 0.960 . S
H405 N385 0.862 . S
O406 Co374 1.920 . S
O406 C379 1.289 . S
C407 O399 1.258 . S
C407 O400 1.266 . S
Co408 O411 1.970 . S
Co408 N425 1.989 . S
Co408 O433 1.967 . S
Co408 O440 1.920 . S
Co409 O412 1.966 . S
Co409 N418 2.022 . S
Co409 N426 1.993 . S
Co409 O434 1.941 . S
C410 O411 1.258 . S
C410 O412 1.263 . S
O411 Co408 1.970 . S
O411 C410 1.258 . S
O412 Co409 1.966 . S
O412 C410 1.263 . S
C413 O414 1.235 . S
C413 O440 1.289 . S
O414 C413 1.235 . S
C415 C417 1.400 . S
C415 N418 1.351 . S
C415 C420 1.501 . S
C416 C417 1.387 . S
C416 N419 1.341 . S
C417 C415 1.400 . S
C417 C416 1.387 . S
N418 Co409 2.022 . S
N418 C415 1.351 . S
N418 N419 1.365 . S
N419 C416 1.341 . S
N419 N418 1.365 . S
N419 H439 0.862 . S
C420 C415 1.501 . S
C420 H421 0.961 . S
C420 H422 0.961 . S
C420 H423 0.960 . S
H421 C420 0.961 . S
H422 C420 0.961 . S
H423 C420 0.960 . S
C424 N425 1.342 . S
C424 C428 1.401 . S
C424 C429 1.499 . S
N425 Co408 1.989 . S
N425 C424 1.342 . S
N425 N426 1.388 . S
N426 Co409 1.993 . S
N426 N425 1.388 . S
N426 C427 1.346 . S
C427 N426 1.346 . S
C427 C428 1.396 . S
C427 C437 1.510 . S
C428 C424 1.401 . S
C428 C427 1.396 . S
C429 C424 1.499 . S
C429 H430 0.959 . S
C429 H431 0.960 . S
C429 H432 0.961 . S
H430 C429 0.959 . S
H431 C429 0.960 . S
H432 C429 0.961 . S
O433 Co408 1.967 . S
O433 C441 1.258 . S
O434 Co409 1.941 . S
O434 C441 1.266 . S
H435 C437 0.959 . S
H436 C437 0.961 . S
C437 C427 1.510 . S
C437 H435 0.959 . S
C437 H436 0.961 . S
C437 H438 0.960 . S
H438 C437 0.960 . S
H439 N419 0.862 . S
O440 Co408 1.920 . S
O440 C413 1.289 . S
C441 O433 1.258 . S
C441 O434 1.266 . S
Co442 O445 1.970 . S
Co442 N459 1.989 . S
Co442 O467 1.967 . S
Co442 O474 1.920 . S
Co443 O446 1.966 . S
Co443 N452 2.022 . S
Co443 N460 1.993 . S
Co443 O468 1.941 . S
C444 O445 1.258 . S
C444 O446 1.263 . S
O445 Co442 1.970 . S
O445 C444 1.258 . S
O446 Co443 1.966 . S
O446 C444 1.263 . S
C447 O448 1.235 . S
C447 O474 1.289 . S
O448 C447 1.235 . S
C449 C451 1.400 . S
C449 N452 1.351 . S
C449 C454 1.501 . S
C450 C451 1.387 . S
C450 N453 1.341 . S
C451 C449 1.400 . S
C451 C450 1.387 . S
N452 Co443 2.022 . S
N452 C449 1.351 . S
N452 N453 1.365 . S
N453 C450 1.341 . S
N453 N452 1.365 . S
N453 H473 0.862 . S
C454 C449 1.501 . S
C454 H455 0.961 . S
C454 H456 0.961 . S
C454 H457 0.960 . S
H455 C454 0.961 . S
H456 C454 0.961 . S
H457 C454 0.960 . S
C458 N459 1.342 . S
C458 C462 1.401 . S
C458 C463 1.499 . S
N459 Co442 1.989 . S
N459 C458 1.342 . S
N459 N460 1.388 . S
N460 Co443 1.993 . S
N460 N459 1.388 . S
N460 C461 1.346 . S
C461 N460 1.346 . S
C461 C462 1.396 . S
C461 C471 1.510 . S
C462 C458 1.401 . S
C462 C461 1.396 . S
C463 C458 1.499 . S
C463 H464 0.959 . S
C463 H465 0.960 . S
C463 H466 0.961 . S
H464 C463 0.959 . S
H465 C463 0.960 . S
H466 C463 0.961 . S
O467 Co442 1.967 . S
O467 C475 1.258 . S
O468 Co443 1.941 . S
O468 C475 1.266 . S
H469 C471 0.959 . S
H470 C471 0.961 . S
C471 C461 1.510 . S
C471 H469 0.959 . S
C471 H470 0.961 . S
C471 H472 0.960 . S
H472 C471 0.960 . S
H473 N453 0.862 . S
O474 Co442 1.920 . S
O474 C447 1.289 . S
C475 O467 1.258 . S
C475 O468 1.266 . S
Co476 O479 1.970 . S
Co476 N493 1.989 . S
Co476 O501 1.967 . S
Co476 O508 1.920 . S
Co477 O480 1.966 . S
Co477 N486 2.022 . S
Co477 N494 1.993 . S
Co477 O502 1.941 . S
C478 O479 1.258 . S
C478 O480 1.263 . S
O479 Co476 1.970 . S
O479 C478 1.258 . S
O480 Co477 1.966 . S
O480 C478 1.263 . S
C481 O482 1.235 . S
C481 O508 1.289 . S
O482 C481 1.235 . S
C483 C485 1.400 . S
C483 N486 1.351 . S
C483 C488 1.501 . S
C484 C485 1.387 . S
C484 N487 1.341 . S
C485 C483 1.400 . S
C485 C484 1.387 . S
N486 Co477 2.022 . S
N486 C483 1.351 . S
N486 N487 1.365 . S
N487 C484 1.341 . S
N487 N486 1.365 . S
N487 H507 0.862 . S
C488 C483 1.501 . S
C488 H489 0.961 . S
C488 H490 0.961 . S
C488 H491 0.960 . S
H489 C488 0.961 . S
H490 C488 0.961 . S
H491 C488 0.960 . S
C492 N493 1.342 . S
C492 C496 1.401 . S
C492 C497 1.499 . S
N493 Co476 1.989 . S
N493 C492 1.342 . S
N493 N494 1.388 . S
N494 Co477 1.993 . S
N494 N493 1.388 . S
N494 C495 1.346 . S
C495 N494 1.346 . S
C495 C496 1.396 . S
C495 C505 1.510 . S
C496 C492 1.401 . S
C496 C495 1.396 . S
C497 C492 1.499 . S
C497 H498 0.959 . S
C497 H499 0.960 . S
C497 H500 0.961 . S
H498 C497 0.959 . S
H499 C497 0.960 . S
H500 C497 0.961 . S
O501 Co476 1.967 . S
O501 C509 1.258 . S
O502 Co477 1.941 . S
O502 C509 1.266 . S
H503 C505 0.959 . S
H504 C505 0.961 . S
C505 C495 1.510 . S
C505 H503 0.959 . S
C505 H504 0.961 . S
C505 H506 0.960 . S
H506 C505 0.960 . S
H507 N487 0.862 . S
O508 Co476 1.920 . S
O508 C481 1.289 . S
C509 O501 1.258 . S
C509 O502 1.266 . S
Co510 O513 1.970 . S
Co510 N527 1.989 . S
Co510 O535 1.967 . S
Co510 O542 1.920 . S
Co511 O514 1.966 . S
Co511 N520 2.022 . S
Co511 N528 1.993 . S
Co511 O536 1.941 . S
C512 O513 1.258 . S
C512 O514 1.263 . S
O513 Co510 1.970 . S
O513 C512 1.258 . S
O514 Co511 1.966 . S
O514 C512 1.263 . S
C515 O516 1.235 . S
C515 O542 1.289 . S
O516 C515 1.235 . S
C517 C519 1.400 . S
C517 N520 1.351 . S
C517 C522 1.501 . S
C518 C519 1.387 . S
C518 N521 1.341 . S
C519 C517 1.400 . S
C519 C518 1.387 . S
N520 Co511 2.022 . S
N520 C517 1.351 . S
N520 N521 1.365 . S
N521 C518 1.341 . S
N521 N520 1.365 . S
N521 H541 0.862 . S
C522 C517 1.501 . S
C522 H523 0.961 . S
C522 H524 0.961 . S
C522 H525 0.960 . S
H523 C522 0.961 . S
H524 C522 0.961 . S
H525 C522 0.960 . S
C526 N527 1.342 . S
C526 C530 1.401 . S
C526 C531 1.499 . S
N527 Co510 1.989 . S
N527 C526 1.342 . S
N527 N528 1.388 . S
N528 Co511 1.993 . S
N528 N527 1.388 . S
N528 C529 1.346 . S
C529 N528 1.346 . S
C529 C530 1.396 . S
C529 C539 1.510 . S
C530 C526 1.401 . S
C530 C529 1.396 . S
C531 C526 1.499 . S
C531 H532 0.959 . S
C531 H533 0.960 . S
C531 H534 0.961 . S
H532 C531 0.959 . S
H533 C531 0.960 . S
H534 C531 0.961 . S
O535 Co510 1.967 . S
O535 C543 1.258 . S
O536 Co511 1.941 . S
O536 C543 1.266 . S
H537 C539 0.959 . S
H538 C539 0.961 . S
C539 C529 1.510 . S
C539 H537 0.959 . S
C539 H538 0.961 . S
C539 H540 0.960 . S
H540 C539 0.960 . S
H541 N521 0.862 . S
O542 Co510 1.920 . S
O542 C515 1.289 . S
C543 O535 1.258 . S
C543 O536 1.266 . S
Co544 O547 1.970 . S
Co544 N561 1.989 . S
Co544 O569 1.967 . S
Co544 O576 1.920 . S
Co545 O548 1.966 . S
Co545 N554 2.022 . S
Co545 N562 1.993 . S
Co545 O570 1.941 . S
C546 O547 1.258 . S
C546 O548 1.263 . S
O547 Co544 1.970 . S
O547 C546 1.258 . S
O548 Co545 1.966 . S
O548 C546 1.263 . S
C549 O550 1.235 . S
C549 O576 1.289 . S
O550 C549 1.235 . S
C551 C553 1.400 . S
C551 N554 1.351 . S
C551 C556 1.501 . S
C552 C553 1.387 . S
C552 N555 1.341 . S
C553 C551 1.400 . S
C553 C552 1.387 . S
N554 Co545 2.022 . S
N554 C551 1.351 . S
N554 N555 1.365 . S
N555 C552 1.341 . S
N555 N554 1.365 . S
N555 H575 0.862 . S
C556 C551 1.501 . S
C556 H557 0.961 . S
C556 H558 0.961 . S
C556 H559 0.960 . S
H557 C556 0.961 . S
H558 C556 0.961 . S
H559 C556 0.960 . S
C560 N561 1.342 . S
C560 C564 1.401 . S
C560 C565 1.499 . S
N561 Co544 1.989 . S
N561 C560 1.342 . S
N561 N562 1.388 . S
N562 Co545 1.993 . S
N562 N561 1.388 . S
N562 C563 1.346 . S
C563 N562 1.346 . S
C563 C564 1.396 . S
C563 C573 1.510 . S
C564 C560 1.401 . S
C564 C563 1.396 . S
C565 C560 1.499 . S
C565 H566 0.959 . S
C565 H567 0.960 . S
C565 H568 0.961 . S
H566 C565 0.959 . S
H567 C565 0.960 . S
H568 C565 0.961 . S
O569 Co544 1.967 . S
O569 C577 1.258 . S
O570 Co545 1.941 . S
O570 C577 1.266 . S
H571 C573 0.959 . S
H572 C573 0.961 . S
C573 C563 1.510 . S
C573 H571 0.959 . S
C573 H572 0.961 . S
C573 H574 0.960 . S
H574 C573 0.960 . S
H575 N555 0.862 . S
O576 Co544 1.920 . S
O576 C549 1.289 . S
C577 O569 1.258 . S
C577 O570 1.266 . S
Co578 O581 1.970 . S
Co578 N595 1.989 . S
Co578 O603 1.967 . S
Co578 O610 1.920 . S
Co579 O582 1.966 . S
Co579 N588 2.022 . S
Co579 N596 1.993 . S
Co579 O604 1.941 . S
C580 O581 1.258 . S
C580 O582 1.263 . S
O581 Co578 1.970 . S
O581 C580 1.258 . S
O582 Co579 1.966 . S
O582 C580 1.263 . S
C583 O584 1.235 . S
C583 O610 1.289 . S
O584 C583 1.235 . S
C585 C587 1.400 . S
C585 N588 1.351 . S
C585 C590 1.501 . S
C586 C587 1.387 . S
C586 N589 1.341 . S
C587 C585 1.400 . S
C587 C586 1.387 . S
N588 Co579 2.022 . S
N588 C585 1.351 . S
N588 N589 1.365 . S
N589 C586 1.341 . S
N589 N588 1.365 . S
N589 H609 0.862 . S
C590 C585 1.501 . S
C590 H591 0.961 . S
C590 H592 0.961 . S
C590 H593 0.960 . S
H591 C590 0.961 . S
H592 C590 0.961 . S
H593 C590 0.960 . S
C594 N595 1.342 . S
C594 C598 1.401 . S
C594 C599 1.499 . S
N595 Co578 1.989 . S
N595 C594 1.342 . S
N595 N596 1.388 . S
N596 Co579 1.993 . S
N596 N595 1.388 . S
N596 C597 1.346 . S
C597 N596 1.346 . S
C597 C598 1.396 . S
C597 C607 1.510 . S
C598 C594 1.401 . S
C598 C597 1.396 . S
C599 C594 1.499 . S
C599 H600 0.959 . S
C599 H601 0.960 . S
C599 H602 0.961 . S
H600 C599 0.959 . S
H601 C599 0.960 . S
H602 C599 0.961 . S
O603 Co578 1.967 . S
O603 C611 1.258 . S
O604 Co579 1.941 . S
O604 C611 1.266 . S
H605 C607 0.959 . S
H606 C607 0.961 . S
C607 C597 1.510 . S
C607 H605 0.959 . S
C607 H606 0.961 . S
C607 H608 0.960 . S
H608 C607 0.960 . S
H609 N589 0.862 . S
O610 Co578 1.920 . S
O610 C583 1.289 . S
C611 O603 1.258 . S
C611 O604 1.266 . S
H612 C630 0.951 . S
H613 C632 0.951 . S
H614 C634 0.950 . S
H615 C635 0.950 . S
H616 C637 0.950 . S
H617 C640 0.950 . S
H618 C641 0.950 . S
H619 C643 0.950 . S
H620 C644 0.950 . S
H621 C645 0.951 . S
H622 C647 0.951 . S
H623 C649 0.950 . S
H624 C650 0.950 . S
H625 C652 0.950 . S
H626 C655 0.950 . S
H627 C656 0.950 . S
H628 C658 0.950 . S
H629 C659 0.950 . S
C630 H612 0.951 . S
C630 C631 1.366 . S
C630 C632 1.388 . S
C631 C630 1.366 . S
C631 C635 1.385 . S
C632 H613 0.951 . S
C632 C630 1.388 . S
C632 C633 1.366 . S
C633 C632 1.366 . S
C633 C634 1.414 . S
C633 C636 1.499 . S
C634 H614 0.950 . S
C634 C633 1.414 . S
C634 C635 1.374 . S
C635 H615 0.950 . S
C635 C631 1.385 . S
C635 C634 1.374 . S
C636 C633 1.499 . S
C636 C637 1.373 . S
C636 C638 1.389 . S
C637 H616 0.950 . S
C637 C636 1.373 . S
C637 C653 1.377 . S
C638 C636 1.389 . S
C638 C639 1.524 . S
C638 C652 1.377 . S
C639 C638 1.524 . S
C639 C640 1.397 . S
C639 C644 1.363 . S
C640 H617 0.950 . S
C640 C639 1.397 . S
C640 C641 1.334 . S
C641 H618 0.950 . S
C641 C640 1.334 . S
C641 C642 1.287 . S
C642 C641 1.287 . S
C642 C643 1.524 . S
C642 H661 0.913 . S
C643 H619 0.950 . S
C643 C642 1.524 . S
C643 C644 1.415 . S
C644 H620 0.950 . S
C644 C639 1.363 . S
C644 C643 1.415 . S
C645 H621 0.951 . S
C645 C646 1.366 . S
C645 C647 1.388 . S
C646 C645 1.366 . S
C646 C650 1.385 . S
C647 H622 0.951 . S
C647 C645 1.388 . S
C647 C648 1.366 . S
C648 C647 1.366 . S
C648 C649 1.414 . S
C648 C651 1.499 . S
C649 H623 0.950 . S
C649 C648 1.414 . S
C649 C650 1.374 . S
C650 H624 0.950 . S
C650 C646 1.385 . S
C650 C649 1.374 . S
C651 C648 1.499 . S
C651 C652 1.373 . S
C651 C653 1.389 . S
C652 H625 0.950 . S
C652 C638 1.377 . S
C652 C651 1.373 . S
C653 C637 1.377 . S
C653 C651 1.389 . S
C653 C654 1.524 . S
C654 C653 1.524 . S
C654 C655 1.397 . S
C654 C659 1.363 . S
C655 H626 0.950 . S
C655 C654 1.397 . S
C655 C656 1.334 . S
C656 H627 0.950 . S
C656 C655 1.334 . S
C656 C657 1.287 . S
C657 C656 1.287 . S
C657 C658 1.524 . S
C657 H660 0.999 . S
C658 H628 0.950 . S
C658 C657 1.524 . S
C658 C659 1.415 . S
C659 H629 0.950 . S
C659 C654 1.363 . S
C659 C658 1.415 . S
H660 C657 0.999 . S
H661 C642 0.913 . S
H662 C680 0.951 . S
H663 C682 0.951 . S
H664 C684 0.950 . S
H665 C685 0.950 . S
H666 C687 0.950 . S
H667 C690 0.950 . S
H668 C691 0.950 . S
H669 C693 0.950 . S
H670 C694 0.950 . S
H671 C695 0.951 . S
H672 C697 0.951 . S
H673 C699 0.950 . S
H674 C700 0.950 . S
H675 C702 0.950 . S
H676 C705 0.950 . S
H677 C706 0.950 . S
H678 C708 0.950 . S
H679 C709 0.950 . S
C680 H662 0.951 . S
C680 C681 1.366 . S
C680 C682 1.388 . S
C681 C680 1.366 . S
C681 C685 1.385 1_565 S
C682 H663 0.951 . S
C682 C680 1.388 . S
C682 C683 1.366 1_565 S
C683 C682 1.366 1_545 S
C683 C684 1.414 . S
C683 C686 1.499 . S
C684 H664 0.950 . S
C684 C683 1.414 . S
C684 C685 1.374 . S
C685 H665 0.950 . S
C685 C681 1.385 1_545 S
C685 C684 1.374 . S
C686 C683 1.499 . S
C686 C687 1.373 . S
C686 C688 1.389 . S
C687 H666 0.950 . S
C687 C686 1.373 . S
C687 C703 1.377 . S
C688 C686 1.389 . S
C688 C689 1.524 . S
C688 C702 1.377 . S
C689 C688 1.524 . S
C689 C690 1.397 . S
C689 C694 1.363 . S
C690 H667 0.950 . S
C690 C689 1.397 . S
C690 C691 1.334 . S
C691 H668 0.950 . S
C691 C690 1.334 . S
C691 C692 1.287 1_545 S
C692 C691 1.287 1_565 S
C692 C693 1.524 . S
C692 H711 0.913 . S
C693 H669 0.950 . S
C693 C692 1.524 . S
C693 C694 1.415 1_565 S
C694 H670 0.950 . S
C694 C689 1.363 . S
C694 C693 1.415 1_545 S
C695 H671 0.951 . S
C695 C696 1.366 . S
C695 C697 1.388 . S
C696 C695 1.366 . S
C696 C700 1.385 . S
C697 H672 0.951 . S
C697 C695 1.388 . S
C697 C698 1.366 . S
C698 C697 1.366 . S
C698 C699 1.414 . S
C698 C701 1.499 . S
C699 H673 0.950 . S
C699 C698 1.414 . S
C699 C700 1.374 . S
C700 H674 0.950 . S
C700 C696 1.385 . S
C700 C699 1.374 . S
C701 C698 1.499 . S
C701 C702 1.373 . S
C701 C703 1.389 . S
C702 H675 0.950 . S
C702 C688 1.377 . S
C702 C701 1.373 . S
C703 C687 1.377 . S
C703 C701 1.389 . S
C703 C704 1.524 . S
C704 C703 1.524 . S
C704 C705 1.397 . S
C704 C709 1.363 . S
C705 H676 0.950 . S
C705 C704 1.397 . S
C705 C706 1.334 . S
C706 H677 0.950 . S
C706 C705 1.334 . S
C706 C707 1.287 . S
C707 C706 1.287 . S
C707 C708 1.524 . S
C707 H710 0.999 . S
C708 H678 0.950 . S
C708 C707 1.524 . S
C708 C709 1.415 . S
C709 H679 0.950 . S
C709 C704 1.363 . S
C709 C708 1.415 . S
H710 C707 0.999 . S
H711 C692 0.913 . S
H712 C730 0.951 . S
H713 C732 0.951 . S
H714 C734 0.950 . S
H715 C735 0.950 . S
H716 C737 0.950 . S
H717 C740 0.950 . S
H718 C741 0.950 . S
H719 C743 0.950 . S
H720 C744 0.950 . S
H721 C745 0.951 . S
H722 C747 0.951 . S
H723 C749 0.950 . S
H724 C750 0.950 . S
H725 C752 0.950 . S
H726 C755 0.950 . S
H727 C756 0.950 . S
H728 C758 0.950 . S
H729 C759 0.950 . S
C730 H712 0.951 . S
C730 C731 1.366 . S
C730 C732 1.388 1_455 S
C731 C730 1.366 . S
C731 C735 1.385 . S
C732 H713 0.951 . S
C732 C730 1.388 1_655 S
C732 C733 1.366 . S
C733 C732 1.366 . S
C733 C734 1.414 . S
C733 C736 1.499 . S
C734 H714 0.950 . S
C734 C733 1.414 . S
C734 C735 1.374 1_655 S
C735 H715 0.950 . S
C735 C731 1.385 . S
C735 C734 1.374 1_455 S
C736 C733 1.499 . S
C736 C737 1.373 . S
C736 C738 1.389 . S
C737 H716 0.950 . S
C737 C736 1.373 . S
C737 C753 1.377 . S
C738 C736 1.389 . S
C738 C739 1.524 . S
C738 C752 1.377 . S
C739 C738 1.524 . S
C739 C740 1.397 . S
C739 C744 1.363 . S
C740 H717 0.950 . S
C740 C739 1.397 . S
C740 C741 1.334 . S
C741 H718 0.950 . S
C741 C740 1.334 . S
C741 C742 1.287 . S
C742 C741 1.287 . S
C742 C743 1.524 . S
C742 H761 0.913 . S
C743 H719 0.950 . S
C743 C742 1.524 . S
C743 C744 1.415 . S
C744 H720 0.950 . S
C744 C739 1.363 . S
C744 C743 1.415 . S
C745 H721 0.951 . S
C745 C746 1.366 . S
C745 C747 1.388 . S
C746 C745 1.366 . S
C746 C750 1.385 . S
C747 H722 0.951 . S
C747 C745 1.388 . S
C747 C748 1.366 . S
C748 C747 1.366 . S
C748 C749 1.414 . S
C748 C751 1.499 . S
C749 H723 0.950 . S
C749 C748 1.414 . S
C749 C750 1.374 . S
C750 H724 0.950 . S
C750 C746 1.385 . S
C750 C749 1.374 . S
C751 C748 1.499 . S
C751 C752 1.373 . S
C751 C753 1.389 . S
C752 H725 0.950 . S
C752 C738 1.377 . S
C752 C751 1.373 . S
C753 C737 1.377 . S
C753 C751 1.389 . S
C753 C754 1.524 . S
C754 C753 1.524 . S
C754 C755 1.397 . S
C754 C759 1.363 . S
C755 H726 0.950 . S
C755 C754 1.397 . S
C755 C756 1.334 . S
C756 H727 0.950 . S
C756 C755 1.334 . S
C756 C757 1.287 . S
C757 C756 1.287 . S
C757 C758 1.524 . S
C757 H760 0.999 . S
C758 H728 0.950 . S
C758 C757 1.524 . S
C758 C759 1.415 . S
C759 H729 0.950 . S
C759 C754 1.363 . S
C759 C758 1.415 . S
H760 C757 0.999 . S
H761 C742 0.913 . S
H762 C780 0.951 . S
H763 C782 0.951 . S
H764 C784 0.950 . S
H765 C785 0.950 . S
H766 C787 0.950 . S
H767 C790 0.950 . S
H768 C791 0.950 . S
H769 C793 0.950 . S
H770 C794 0.950 . S
H771 C795 0.951 . S
H772 C797 0.951 . S
H773 C799 0.950 . S
H774 C800 0.950 . S
H775 C802 0.950 . S
H776 C805 0.950 . S
H777 C806 0.950 . S
H778 C808 0.950 . S
H779 C809 0.950 . S
C780 H762 0.951 . S
C780 C781 1.366 . S
C780 C782 1.388 . S
C781 C780 1.366 . S
C781 C785 1.385 . S
C782 H763 0.951 . S
C782 C780 1.388 . S
C782 C783 1.366 . S
C783 C782 1.366 . S
C783 C784 1.414 . S
C783 C786 1.499 . S
C784 H764 0.950 . S
C784 C783 1.414 . S
C784 C785 1.374 . S
C785 H765 0.950 . S
C785 C781 1.385 . S
C785 C784 1.374 . S
C786 C783 1.499 . S
C786 C787 1.373 . S
C786 C788 1.389 . S
C787 H766 0.950 . S
C787 C786 1.373 . S
C787 C803 1.377 . S
C788 C786 1.389 . S
C788 C789 1.524 . S
C788 C802 1.377 . S
C789 C788 1.524 . S
C789 C790 1.397 . S
C789 C794 1.363 . S
C790 H767 0.950 . S
C790 C789 1.397 . S
C790 C791 1.334 . S
C791 H768 0.950 . S
C791 C790 1.334 . S
C791 C792 1.287 . S
C792 C791 1.287 . S
C792 C793 1.524 . S
C792 H811 0.913 . S
C793 H769 0.950 . S
C793 C792 1.524 . S
C793 C794 1.415 . S
C794 H770 0.950 . S
C794 C789 1.363 . S
C794 C793 1.415 . S
C795 H771 0.951 . S
C795 C796 1.366 . S
C795 C797 1.388 . S
C796 C795 1.366 . S
C796 C800 1.385 . S
C797 H772 0.951 . S
C797 C795 1.388 . S
C797 C798 1.366 . S
C798 C797 1.366 . S
C798 C799 1.414 . S
C798 C801 1.499 . S
C799 H773 0.950 . S
C799 C798 1.414 . S
C799 C800 1.374 . S
C800 H774 0.950 . S
C800 C796 1.385 . S
C800 C799 1.374 . S
C801 C798 1.499 . S
C801 C802 1.373 . S
C801 C803 1.389 . S
C802 H775 0.950 . S
C802 C788 1.377 . S
C802 C801 1.373 . S
C803 C787 1.377 . S
C803 C801 1.389 . S
C803 C804 1.524 . S
C804 C803 1.524 . S
C804 C805 1.397 . S
C804 C809 1.363 . S
C805 H776 0.950 . S
C805 C804 1.397 . S
C805 C806 1.334 . S
C806 H777 0.950 . S
C806 C805 1.334 . S
C806 C807 1.287 . S
C807 C806 1.287 . S
C807 C808 1.524 . S
C807 H810 0.999 . S
C808 H778 0.950 . S
C808 C807 1.524 . S
C808 C809 1.415 . S
C809 H779 0.950 . S
C809 C804 1.363 . S
C809 C808 1.415 . S
H810 C807 0.999 . S
H811 C792 0.913 . S
H812 C830 0.951 . S
H813 C832 0.951 . S
H814 C834 0.950 . S
H815 C835 0.950 . S
H816 C837 0.950 . S
H817 C840 0.950 . S
H818 C841 0.950 . S
H819 C843 0.950 . S
H820 C844 0.950 . S
H821 C845 0.951 . S
H822 C847 0.951 . S
H823 C849 0.950 . S
H824 C850 0.950 . S
H825 C852 0.950 . S
H826 C855 0.950 . S
H827 C856 0.950 . S
H828 C858 0.950 . S
H829 C859 0.950 . S
C830 H812 0.951 . S
C830 C831 1.366 . S
C830 C832 1.388 1_545 S
C831 C830 1.366 . S
C831 C835 1.385 . S
C832 H813 0.951 . S
C832 C830 1.388 1_565 S
C832 C833 1.366 . S
C833 C832 1.366 . S
C833 C834 1.414 . S
C833 C836 1.499 . S
C834 H814 0.950 . S
C834 C833 1.414 . S
C834 C835 1.374 1_565 S
C835 H815 0.950 . S
C835 C831 1.385 . S
C835 C834 1.374 1_545 S
C836 C833 1.499 . S
C836 C837 1.373 . S
C836 C838 1.389 . S
C837 H816 0.950 . S
C837 C836 1.373 . S
C837 C853 1.377 . S
C838 C836 1.389 . S
C838 C839 1.524 . S
C838 C852 1.377 . S
C839 C838 1.524 . S
C839 C840 1.397 . S
C839 C844 1.363 . S
C840 H817 0.950 . S
C840 C839 1.397 . S
C840 C841 1.334 . S
C841 H818 0.950 . S
C841 C840 1.334 . S
C841 C842 1.287 . S
C842 C841 1.287 . S
C842 C843 1.524 . S
C842 H861 0.913 . S
C843 H819 0.950 . S
C843 C842 1.524 . S
C843 C844 1.415 . S
C844 H820 0.950 . S
C844 C839 1.363 . S
C844 C843 1.415 . S
C845 H821 0.951 . S
C845 C846 1.366 . S
C845 C847 1.388 . S
C846 C845 1.366 . S
C846 C850 1.385 . S
C847 H822 0.951 . S
C847 C845 1.388 . S
C847 C848 1.366 . S
C848 C847 1.366 . S
C848 C849 1.414 . S
C848 C851 1.499 . S
C849 H823 0.950 . S
C849 C848 1.414 . S
C849 C850 1.374 . S
C850 H824 0.950 . S
C850 C846 1.385 . S
C850 C849 1.374 . S
C851 C848 1.499 . S
C851 C852 1.373 . S
C851 C853 1.389 . S
C852 H825 0.950 . S
C852 C838 1.377 . S
C852 C851 1.373 . S
C853 C837 1.377 . S
C853 C851 1.389 . S
C853 C854 1.524 . S
C854 C853 1.524 . S
C854 C855 1.397 . S
C854 C859 1.363 . S
C855 H826 0.950 . S
C855 C854 1.397 . S
C855 C856 1.334 . S
C856 H827 0.950 . S
C856 C855 1.334 . S
C856 C857 1.287 . S
C857 C856 1.287 . S
C857 C858 1.524 . S
C857 H860 0.999 . S
C858 H828 0.950 . S
C858 C857 1.524 . S
C858 C859 1.415 . S
C859 H829 0.950 . S
C859 C854 1.363 . S
C859 C858 1.415 . S
H860 C857 0.999 . S
H861 C842 0.913 . S
H862 C880 0.951 . S
H863 C882 0.951 . S
H864 C884 0.950 . S
H865 C885 0.950 . S
H866 C887 0.950 . S
H867 C890 0.950 . S
H868 C891 0.950 . S
H869 C893 0.950 . S
H870 C894 0.950 . S
H871 C895 0.951 . S
H872 C897 0.951 . S
H873 C899 0.950 . S
H874 C900 0.950 . S
H875 C902 0.950 . S
H876 C905 0.950 . S
H877 C906 0.950 . S
H878 C908 0.950 . S
H879 C909 0.950 . S
C880 H862 0.951 . S
C880 C881 1.366 . S
C880 C882 1.388 1_655 S
C881 C880 1.366 . S
C881 C885 1.385 . S
C882 H863 0.951 . S
C882 C880 1.388 1_455 S
C882 C883 1.366 . S
C883 C882 1.366 . S
C883 C884 1.414 . S
C883 C886 1.499 . S
C884 H864 0.950 . S
C884 C883 1.414 . S
C884 C885 1.374 1_455 S
C885 H865 0.950 . S
C885 C881 1.385 . S
C885 C884 1.374 1_655 S
C886 C883 1.499 . S
C886 C887 1.373 . S
C886 C888 1.389 . S
C887 H866 0.950 . S
C887 C886 1.373 . S
C887 C903 1.377 . S
C888 C886 1.389 . S
C888 C889 1.524 . S
C888 C902 1.377 . S
C889 C888 1.524 . S
C889 C890 1.397 1_455 S
C889 C894 1.363 . S
C890 H867 0.950 . S
C890 C889 1.397 1_655 S
C890 C891 1.334 . S
C891 H868 0.950 . S
C891 C890 1.334 . S
C891 C892 1.287 . S
C892 C891 1.287 . S
C892 C893 1.524 . S
C892 H911 0.913 . S
C893 H869 0.950 . S
C893 C892 1.524 . S
C893 C894 1.415 1_655 S
C894 H870 0.950 . S
C894 C889 1.363 . S
C894 C893 1.415 1_455 S
C895 H871 0.951 . S
C895 C896 1.366 . S
C895 C897 1.388 . S
C896 C895 1.366 . S
C896 C900 1.385 . S
C897 H872 0.951 . S
C897 C895 1.388 . S
C897 C898 1.366 . S
C898 C897 1.366 . S
C898 C899 1.414 . S
C898 C901 1.499 . S
C899 H873 0.950 . S
C899 C898 1.414 . S
C899 C900 1.374 . S
C900 H874 0.950 . S
C900 C896 1.385 . S
C900 C899 1.374 . S
C901 C898 1.499 . S
C901 C902 1.373 . S
C901 C903 1.389 . S
C902 H875 0.950 . S
C902 C888 1.377 . S
C902 C901 1.373 . S
C903 C887 1.377 . S
C903 C901 1.389 . S
C903 C904 1.524 . S
C904 C903 1.524 . S
C904 C905 1.397 . S
C904 C909 1.363 . S
C905 H876 0.950 . S
C905 C904 1.397 . S
C905 C906 1.334 . S
C906 H877 0.950 . S
C906 C905 1.334 . S
C906 C907 1.287 . S
C907 C906 1.287 . S
C907 C908 1.524 . S
C907 H910 0.999 . S
C908 H878 0.950 . S
C908 C907 1.524 . S
C908 C909 1.415 . S
C909 H879 0.950 . S
C909 C904 1.363 . S
C909 C908 1.415 . S
H910 C907 0.999 . S
H911 C892 0.913 . S
H912 C930 0.951 . S
H913 C932 0.951 . S
H914 C934 0.950 . S
H915 C935 0.950 . S
H916 C937 0.950 . S
H917 C940 0.950 . S
H918 C941 0.950 . S
H919 C943 0.950 . S
H920 C944 0.950 . S
H921 C945 0.951 . S
H922 C947 0.951 . S
H923 C949 0.950 . S
H924 C950 0.950 . S
H925 C952 0.950 . S
H926 C955 0.950 1_455 S
H927 C956 0.959 . S
H928 C958 0.950 . S
H929 C959 0.950 . S
C930 H912 0.951 . S
C930 C931 1.366 . S
C930 C932 1.388 . S
C931 C930 1.366 . S
C931 C935 1.385 . S
C932 H913 0.951 . S
C932 C930 1.388 . S
C932 C933 1.366 . S
C933 C932 1.366 . S
C933 C934 1.414 . S
C933 C936 1.499 . S
C934 H914 0.950 . S
C934 C933 1.414 . S
C934 C935 1.374 . S
C935 H915 0.950 . S
C935 C931 1.385 . S
C935 C934 1.374 . S
C936 C933 1.499 . S
C936 C937 1.373 . S
C936 C938 1.389 . S
C937 H916 0.950 . S
C937 C936 1.373 . S
C937 C953 1.377 . S
C938 C936 1.389 . S
C938 C939 1.524 . S
C938 C952 1.377 . S
C939 C938 1.524 . S
C939 C940 1.397 . S
C939 C944 1.363 . S
C940 H917 0.950 . S
C940 C939 1.397 . S
C940 C941 1.334 . S
C941 H918 0.950 . S
C941 C940 1.334 . S
C941 C942 1.287 . S
C942 C941 1.287 . S
C942 C943 1.524 . S
C942 H961 0.913 . S
C943 H919 0.950 . S
C943 C942 1.524 . S
C943 C944 1.415 . S
C944 H920 0.950 . S
C944 C939 1.363 . S
C944 C943 1.415 . S
C945 H921 0.951 . S
C945 C946 1.366 . S
C945 C947 1.388 1_455 S
C946 C945 1.366 . S
C946 C950 1.385 . S
C947 H922 0.951 . S
C947 C945 1.388 1_655 S
C947 C948 1.366 1_655 S
C948 C947 1.366 1_455 S
C948 C949 1.414 . S
C948 C951 1.499 1_455 S
C949 H923 0.950 . S
C949 C948 1.414 . S
C949 C950 1.374 . S
C950 H924 0.950 . S
C950 C946 1.385 . S
C950 C949 1.374 . S
C951 C948 1.499 1_655 S
C951 C952 1.373 . S
C951 C953 1.389 . S
C952 H925 0.950 . S
C952 C938 1.377 . S
C952 C951 1.373 . S
C953 C937 1.377 . S
C953 C951 1.389 . S
C953 C954 1.524 . S
C954 C953 1.524 . S
C954 C955 1.397 . S
C954 C959 1.363 . S
C955 H926 0.950 1_655 S
C955 C954 1.397 . S
C955 C956 1.336 1_655 S
C956 H927 0.959 . S
C956 C955 1.336 1_455 S
C956 C957 1.277 1_455 S
C957 C956 1.277 1_655 S
C957 C958 1.524 . S
C957 H960 0.999 . S
C958 H928 0.950 . S
C958 C957 1.524 . S
C958 C959 1.415 . S
C959 H929 0.950 . S
C959 C954 1.363 . S
C959 C958 1.415 . S
H960 C957 0.999 . S
H961 C942 0.913 . S
H962 C980 0.951 . S
H963 C982 0.951 . S
H964 C984 0.950 . S
H965 C985 0.950 . S
H966 C987 0.950 . S
H967 C990 0.950 . S
H968 C991 0.950 . S
H969 C993 0.950 . S
H970 C994 0.950 . S
H971 C995 0.951 . S
H972 C997 0.951 . S
H973 C999 0.950 . S
H974 C1000 0.950 . S
H975 C1002 0.950 . S
H976 C1005 0.950 . S
H977 C1006 0.950 . S
H978 C1008 0.950 . S
H979 C1009 0.950 . S
C980 H962 0.951 . S
C980 C981 1.366 . S
C980 C982 1.388 . S
C981 C980 1.366 . S
C981 C985 1.385 . S
C982 H963 0.951 . S
C982 C980 1.388 . S
C982 C983 1.366 . S
C983 C982 1.366 . S
C983 C984 1.414 . S
C983 C986 1.499 . S
C984 H964 0.950 . S
C984 C983 1.414 . S
C984 C985 1.374 . S
C985 H965 0.950 . S
C985 C981 1.385 . S
C985 C984 1.374 . S
C986 C983 1.499 . S
C986 C987 1.373 . S
C986 C988 1.389 . S
C987 H966 0.950 . S
C987 C986 1.373 . S
C987 C1003 1.377 . S
C988 C986 1.389 . S
C988 C989 1.524 . S
C988 C1002 1.377 . S
C989 C988 1.524 . S
C989 C990 1.397 . S
C989 C994 1.363 . S
C990 H967 0.950 . S
C990 C989 1.397 . S
C990 C991 1.334 . S
C991 H968 0.950 . S
C991 C990 1.334 . S
C991 C992 1.287 . S
C992 C991 1.287 . S
C992 C993 1.524 . S
C992 H1011 0.913 . S
C993 H969 0.950 . S
C993 C992 1.524 . S
C993 C994 1.415 . S
C994 H970 0.950 . S
C994 C989 1.363 . S
C994 C993 1.415 . S
C995 H971 0.951 . S
C995 C996 1.366 . S
C995 C997 1.388 . S
C996 C995 1.366 . S
C996 C1000 1.385 . S
C997 H972 0.951 . S
C997 C995 1.388 . S
C997 C998 1.366 . S
C998 C997 1.366 . S
C998 C999 1.414 . S
C998 C1001 1.499 . S
C999 H973 0.950 . S
C999 C998 1.414 . S
C999 C1000 1.374 . S
C1000 H974 0.950 . S
C1000 C996 1.385 . S
C1000 C999 1.374 . S
C1001 C998 1.499 . S
C1001 C1002 1.373 . S
C1001 C1003 1.389 . S
C1002 H975 0.950 . S
C1002 C988 1.377 . S
C1002 C1001 1.373 . S
C1003 C987 1.377 . S
C1003 C1001 1.389 . S
C1003 C1004 1.524 . S
C1004 C1003 1.524 . S
C1004 C1005 1.397 . S
C1004 C1009 1.363 . S
C1005 H976 0.950 . S
C1005 C1004 1.397 . S
C1005 C1006 1.334 . S
C1006 H977 0.950 . S
C1006 C1005 1.334 . S
C1006 C1007 1.287 . S
C1007 C1006 1.287 . S
C1007 C1008 1.524 . S
C1007 H1010 0.999 . S
C1008 H978 0.950 . S
C1008 C1007 1.524 . S
C1008 C1009 1.415 . S
C1009 H979 0.950 . S
C1009 C1004 1.363 . S
C1009 C1008 1.415 . S
H1010 C1007 0.999 . S
H1011 C992 0.913 . S
H1012 C1030 0.951 . S
H1013 C1032 0.955 . S
H1014 C1034 0.950 . S
H1015 C1035 0.950 . S
H1016 C1037 0.950 . S
H1017 C1040 0.950 . S
H1018 C1041 0.950 . S
H1019 C1043 0.950 . S
H1020 C1044 0.910 1_545 S
H1021 C1045 0.951 . S
H1022 C1047 0.951 . S
H1023 C1049 0.950 . S
H1024 C1050 0.950 . S
H1025 C1052 0.950 . S
H1026 C1055 0.950 . S
H1027 C1056 0.950 . S
H1028 C1058 0.950 . S
H1029 C1059 0.950 . S
C1030 H1012 0.951 . S
C1030 C1031 1.366 . S
C1030 C1032 1.388 . S
C1031 C1030 1.366 . S
C1031 C1035 1.385 . S
C1032 H1013 0.955 . S
C1032 C1030 1.388 . S
C1032 C1033 1.366 . S
C1033 C1032 1.366 . S
C1033 C1034 1.414 . S
C1033 C1036 1.499 1_565 S
C1034 H1014 0.950 . S
C1034 C1033 1.414 . S
C1034 C1035 1.374 . S
C1035 H1015 0.950 . S
C1035 C1031 1.385 . S
C1035 C1034 1.374 . S
C1036 C1033 1.499 1_545 S
C1036 C1037 1.373 . S
C1036 C1038 1.389 . S
C1037 H1016 0.950 . S
C1037 C1036 1.373 . S
C1037 C1053 1.377 . S
C1038 C1036 1.389 . S
C1038 C1039 1.524 1_545 S
C1038 C1052 1.377 . S
C1039 C1038 1.524 1_565 S
C1039 C1040 1.397 . S
C1039 C1044 1.386 . S
C1040 H1017 0.950 . S
C1040 C1039 1.397 . S
C1040 C1041 1.334 . S
C1041 H1018 0.950 . S
C1041 C1040 1.334 . S
C1041 C1042 1.287 . S
C1042 C1041 1.287 . S
C1042 C1043 1.524 . S
C1042 H1061 0.913 . S
C1043 H1019 0.950 . S
C1043 C1042 1.524 . S
C1043 C1044 1.433 . S
C1044 H1020 0.910 1_565 S
C1044 C1039 1.386 . S
C1044 C1043 1.433 . S
C1045 H1021 0.951 . S
C1045 C1046 1.366 . S
C1045 C1047 1.388 . S
C1046 C1045 1.366 . S
C1046 C1050 1.385 . S
C1047 H1022 0.951 . S
C1047 C1045 1.388 . S
C1047 C1048 1.366 . S
C1048 C1047 1.366 . S
C1048 C1049 1.414 . S
C1048 C1051 1.499 . S
C1049 H1023 0.950 . S
C1049 C1048 1.414 . S
C1049 C1050 1.374 . S
C1050 H1024 0.950 . S
C1050 C1046 1.385 . S
C1050 C1049 1.374 . S
C1051 C1048 1.499 . S
C1051 C1052 1.373 . S
C1051 C1053 1.389 . S
C1052 H1025 0.950 . S
C1052 C1038 1.377 . S
C1052 C1051 1.373 . S
C1053 C1037 1.377 . S
C1053 C1051 1.389 . S
C1053 C1054 1.524 . S
C1054 C1053 1.524 . S
C1054 C1055 1.397 . S
C1054 C1059 1.363 . S
C1055 H1026 0.950 . S
C1055 C1054 1.397 . S
C1055 C1056 1.334 . S
C1056 H1027 0.950 . S
C1056 C1055 1.334 . S
C1056 C1057 1.287 . S
C1057 C1056 1.287 . S
C1057 C1058 1.524 . S
C1057 H1060 0.999 . S
C1058 H1028 0.950 . S
C1058 C1057 1.524 . S
C1058 C1059 1.415 . S
C1059 H1029 0.950 . S
C1059 C1054 1.363 . S
C1059 C1058 1.415 . S
H1060 C1057 0.999 . S
H1061 C1042 0.913 . S
H1062 C1080 0.951 . S
H1063 C1082 0.951 . S
H1064 C1084 0.950 . S
H1065 C1085 0.950 . S
H1066 C1087 0.950 . S
H1067 C1090 0.950 . S
H1068 C1091 0.950 . S
H1069 C1093 0.950 . S
H1070 C1094 0.950 . S
H1071 C1095 0.951 . S
H1072 C1097 0.951 . S
H1073 C1099 0.950 . S
H1074 C1100 0.950 . S
H1075 C1102 0.950 . S
H1076 C1105 0.950 . S
H1077 C1106 0.950 . S
H1078 C1108 0.950 . S
H1079 C1109 0.950 . S
C1080 H1062 0.951 . S
C1080 C1081 1.366 . S
C1080 C1082 1.388 . S
C1081 C1080 1.366 . S
C1081 C1085 1.385 . S
C1082 H1063 0.951 . S
C1082 C1080 1.388 . S
C1082 C1083 1.366 . S
C1083 C1082 1.366 . S
C1083 C1084 1.414 . S
C1083 C1086 1.499 . S
C1084 H1064 0.950 . S
C1084 C1083 1.414 . S
C1084 C1085 1.374 . S
C1085 H1065 0.950 . S
C1085 C1081 1.385 . S
C1085 C1084 1.374 . S
C1086 C1083 1.499 . S
C1086 C1087 1.373 . S
C1086 C1088 1.389 . S
C1087 H1066 0.950 . S
C1087 C1086 1.373 . S
C1087 C1103 1.377 1_554 S
C1088 C1086 1.389 . S
C1088 C1089 1.524 . S
C1088 C1102 1.377 . S
C1089 C1088 1.524 . S
C1089 C1090 1.397 . S
C1089 C1094 1.363 . S
C1090 H1067 0.950 . S
C1090 C1089 1.397 . S
C1090 C1091 1.334 . S
C1091 H1068 0.950 . S
C1091 C1090 1.334 . S
C1091 C1092 1.287 . S
C1092 C1091 1.287 . S
C1092 C1093 1.524 . S
C1092 H1111 0.913 . S
C1093 H1069 0.950 . S
C1093 C1092 1.524 . S
C1093 C1094 1.415 . S
C1094 H1070 0.950 . S
C1094 C1089 1.363 . S
C1094 C1093 1.415 . S
C1095 H1071 0.951 . S
C1095 C1096 1.366 . S
C1095 C1097 1.388 . S
C1096 C1095 1.366 . S
C1096 C1100 1.385 . S
C1097 H1072 0.951 . S
C1097 C1095 1.388 . S
C1097 C1098 1.366 . S
C1098 C1097 1.366 . S
C1098 C1099 1.414 . S
C1098 C1101 1.514 . S
C1099 H1073 0.950 . S
C1099 C1098 1.414 . S
C1099 C1100 1.374 . S
C1100 H1074 0.950 . S
C1100 C1096 1.385 . S
C1100 C1099 1.374 . S
C1101 C1098 1.514 . S
C1101 C1102 1.350 1_556 S
C1101 C1103 1.397 . S
C1102 H1075 0.950 . S
C1102 C1088 1.377 . S
C1102 C1101 1.350 1_554 S
C1103 C1087 1.377 1_556 S
C1103 C1101 1.397 . S
C1103 C1104 1.524 . S
C1104 C1103 1.524 . S
C1104 C1105 1.397 . S
C1104 C1109 1.363 . S
C1105 H1076 0.950 . S
C1105 C1104 1.397 . S
C1105 C1106 1.334 . S
C1106 H1077 0.950 . S
C1106 C1105 1.334 . S
C1106 C1107 1.287 . S
C1107 C1106 1.287 . S
C1107 C1108 1.524 . S
C1107 H1110 0.999 . S
C1108 H1078 0.950 . S
C1108 C1107 1.524 . S
C1108 C1109 1.415 . S
C1109 H1079 0.950 . S
C1109 C1104 1.363 . S
C1109 C1108 1.415 . S
H1110 C1107 0.999 . S
H1111 C1092 0.913 . S
H1112 C1130 0.951 . S
H1113 C1132 0.951 . S
H1114 C1134 0.950 . S
H1115 C1135 0.950 . S
H1116 C1137 0.950 . S
H1117 C1140 0.950 . S
H1118 C1141 0.950 1_556 S
H1119 C1143 0.950 1_455 S
H1120 C1144 0.950 . S
H1121 C1145 0.951 . S
H1122 C1147 0.951 . S
H1123 C1149 0.950 . S
H1124 C1150 0.950 . S
H1125 C1152 0.950 1_556 S
H1126 C1155 0.950 . S
H1127 C1156 0.950 . S
H1128 C1158 0.950 . S
H1129 C1159 0.950 . S
C1130 H1112 0.951 . S
C1130 C1131 1.366 . S
C1130 C1132 1.388 . S
C1131 C1130 1.366 . S
C1131 C1135 1.385 . S
C1132 H1113 0.951 . S
C1132 C1130 1.388 . S
C1132 C1133 1.366 . S
C1133 C1132 1.366 . S
C1133 C1134 1.414 . S
C1133 C1136 1.499 . S
C1134 H1114 0.950 . S
C1134 C1133 1.414 . S
C1134 C1135 1.374 . S
C1135 H1115 0.950 . S
C1135 C1131 1.385 . S
C1135 C1134 1.374 . S
C1136 C1133 1.499 . S
C1136 C1137 1.373 . S
C1136 C1138 1.389 . S
C1137 H1116 0.950 . S
C1137 C1136 1.373 . S
C1137 C1153 1.377 . S
C1138 C1136 1.389 . S
C1138 C1139 1.524 . S
C1138 C1152 1.377 . S
C1139 C1138 1.524 . S
C1139 C1140 1.397 . S
C1139 C1144 1.363 . S
C1140 H1117 0.950 . S
C1140 C1139 1.397 . S
C1140 C1141 1.334 . S
C1141 H1118 0.950 1_554 S
C1141 C1140 1.334 . S
C1141 C1142 1.287 . S
C1142 C1141 1.287 . S
C1142 C1143 1.524 . S
C1142 H1161 0.913 1_654 S
C1143 H1119 0.950 1_655 S
C1143 C1142 1.524 . S
C1143 C1144 1.415 . S
C1144 H1120 0.950 . S
C1144 C1139 1.363 . S
C1144 C1143 1.415 . S
C1145 H1121 0.951 . S
C1145 C1146 1.366 . S
C1145 C1147 1.388 . S
C1146 C1145 1.366 . S
C1146 C1150 1.385 . S
C1147 H1122 0.951 . S
C1147 C1145 1.388 . S
C1147 C1148 1.366 . S
C1148 C1147 1.366 . S
C1148 C1149 1.414 . S
C1148 C1151 1.499 1_556 S
C1149 H1123 0.950 . S
C1149 C1148 1.414 . S
C1149 C1150 1.374 . S
C1150 H1124 0.950 . S
C1150 C1146 1.385 . S
C1150 C1149 1.374 . S
C1151 C1148 1.499 1_554 S
C1151 C1152 1.373 . S
C1151 C1153 1.389 . S
C1152 H1125 0.950 1_554 S
C1152 C1138 1.377 . S
C1152 C1151 1.373 . S
C1153 C1137 1.377 . S
C1153 C1151 1.389 . S
C1153 C1154 1.524 . S
C1154 C1153 1.524 . S
C1154 C1155 1.397 . S
C1154 C1159 1.363 . S
C1155 H1126 0.950 . S
C1155 C1154 1.397 . S
C1155 C1156 1.334 . S
C1156 H1127 0.950 . S
C1156 C1155 1.334 . S
C1156 C1157 1.287 . S
C1157 C1156 1.287 . S
C1157 C1158 1.524 . S
C1157 H1160 0.999 . S
C1158 H1128 0.950 . S
C1158 C1157 1.524 . S
C1158 C1159 1.415 . S
C1159 H1129 0.950 . S
C1159 C1154 1.363 . S
C1159 C1158 1.415 . S
H1160 C1157 0.999 . S
H1161 C1142 0.913 1_456 S
H1162 C1180 0.951 . S
H1163 C1182 0.951 . S
H1164 C1184 0.950 . S
H1165 C1185 0.950 . S
H1166 C1187 0.950 . S
H1167 C1190 0.950 1_554 S
H1168 C1191 0.950 . S
H1169 C1193 0.950 . S
H1170 C1194 0.950 . S
H1171 C1195 0.951 . S
H1172 C1197 0.951 . S
H1173 C1199 0.950 . S
H1174 C1200 0.950 . S
H1175 C1202 0.950 . S
H1176 C1205 0.950 . S
H1177 C1206 0.950 . S
H1178 C1208 0.950 . S
H1179 C1209 0.950 . S
C1180 H1162 0.951 . S
C1180 C1181 1.366 . S
C1180 C1182 1.388 . S
C1181 C1180 1.366 . S
C1181 C1185 1.385 . S
C1182 H1163 0.951 . S
C1182 C1180 1.388 . S
C1182 C1183 1.366 . S
C1183 C1182 1.366 . S
C1183 C1184 1.414 . S
C1183 C1186 1.499 . S
C1184 H1164 0.950 . S
C1184 C1183 1.414 . S
C1184 C1185 1.374 . S
C1185 H1165 0.950 . S
C1185 C1181 1.385 . S
C1185 C1184 1.374 . S
C1186 C1183 1.499 . S
C1186 C1187 1.373 . S
C1186 C1188 1.389 . S
C1187 H1166 0.950 . S
C1187 C1186 1.373 . S
C1187 C1203 1.377 . S
C1188 C1186 1.389 . S
C1188 C1189 1.524 . S
C1188 C1202 1.377 1_554 S
C1189 C1188 1.524 . S
C1189 C1190 1.397 1_554 S
C1189 C1194 1.363 1_554 S
C1190 H1167 0.950 1_556 S
C1190 C1189 1.397 1_556 S
C1190 C1191 1.334 . S
C1191 H1168 0.950 . S
C1191 C1190 1.334 . S
C1191 C1192 1.287 . S
C1192 C1191 1.287 . S
C1192 C1193 1.524 . S
C1192 H1211 0.913 . S
C1193 H1169 0.950 . S
C1193 C1192 1.524 . S
C1193 C1194 1.415 . S
C1194 H1170 0.950 . S
C1194 C1189 1.363 1_556 S
C1194 C1193 1.415 . S
C1195 H1171 0.951 . S
C1195 C1196 1.366 . S
C1195 C1197 1.388 . S
C1196 C1195 1.366 . S
C1196 C1200 1.385 . S
C1197 H1172 0.951 . S
C1197 C1195 1.388 . S
C1197 C1198 1.366 . S
C1198 C1197 1.366 . S
C1198 C1199 1.414 . S
C1198 C1201 1.499 1_556 S
C1199 H1173 0.950 . S
C1199 C1198 1.414 . S
C1199 C1200 1.374 . S
C1200 H1174 0.950 . S
C1200 C1196 1.385 . S
C1200 C1199 1.374 . S
C1201 C1198 1.499 1_554 S
C1201 C1202 1.373 1_554 S
C1201 C1203 1.389 . S
C1202 H1175 0.950 . S
C1202 C1188 1.377 1_556 S
C1202 C1201 1.373 1_556 S
C1203 C1187 1.377 . S
C1203 C1201 1.389 . S
C1203 C1204 1.524 . S
C1204 C1203 1.524 . S
C1204 C1205 1.397 . S
C1204 C1209 1.363 . S
C1205 H1176 0.950 . S
C1205 C1204 1.397 . S
C1205 C1206 1.334 . S
C1206 H1177 0.950 . S
C1206 C1205 1.334 . S
C1206 C1207 1.287 . S
C1207 C1206 1.287 . S
C1207 C1208 1.524 . S
C1207 H1210 0.999 . S
C1208 H1178 0.950 . S
C1208 C1207 1.524 . S
C1208 C1209 1.415 . S
C1209 H1179 0.950 . S
C1209 C1204 1.363 . S
C1209 C1208 1.415 . S
H1210 C1207 0.999 . S
H1211 C1192 0.913 . S
H1212 C1230 0.951 . S
H1213 C1232 0.951 . S
H1214 C1234 0.950 . S
H1215 C1235 0.950 . S
H1216 C1237 0.950 . S
H1217 C1240 0.950 . S
H1218 C1241 0.969 . S
H1219 C1243 0.950 1_544 S
H1220 C1244 0.964 . S
H1221 C1245 0.951 . S
H1222 C1247 0.951 1_556 S
H1223 C1249 0.950 . S
H1224 C1250 0.950 . S
H1225 C1252 0.950 1_554 S
H1226 C1255 0.950 . S
H1227 C1256 0.950 . S
H1228 C1258 0.950 . S
H1229 C1259 0.950 . S
C1230 H1212 0.951 . S
C1230 C1231 1.366 . S
C1230 C1232 1.388 . S
C1231 C1230 1.366 . S
C1231 C1235 1.385 . S
C1232 H1213 0.951 . S
C1232 C1230 1.388 . S
C1232 C1233 1.366 . S
C1233 C1232 1.366 . S
C1233 C1234 1.414 . S
C1233 C1236 1.499 . S
C1234 H1214 0.950 . S
C1234 C1233 1.414 . S
C1234 C1235 1.374 . S
C1235 H1215 0.950 . S
C1235 C1231 1.385 . S
C1235 C1234 1.374 . S
C1236 C1233 1.499 . S
C1236 C1237 1.373 . S
C1236 C1238 1.389 . S
C1237 H1216 0.950 . S
C1237 C1236 1.373 . S
C1237 C1253 1.377 . S
C1238 C1236 1.389 . S
C1238 C1239 1.524 . S
C1238 C1252 1.377 . S
C1239 C1238 1.524 . S
C1239 C1240 1.397 . S
C1239 C1244 1.351 1_556 S
C1240 H1217 0.950 . S
C1240 C1239 1.397 . S
C1240 C1241 1.334 . S
C1241 H1218 0.969 . S
C1241 C1240 1.334 . S
C1241 C1242 1.287 1_565 S
C1242 C1241 1.287 1_545 S
C1242 C1243 1.524 1_545 S
C1242 H1261 0.913 . S
C1243 H1219 0.950 1_566 S
C1243 C1242 1.524 1_565 S
C1243 C1244 1.414 1_556 S
C1244 H1220 0.964 . S
C1244 C1239 1.351 1_554 S
C1244 C1243 1.414 1_554 S
C1245 H1221 0.951 . S
C1245 C1246 1.366 . S
C1245 C1247 1.388 . S
C1246 C1245 1.366 . S
C1246 C1250 1.385 . S
C1247 H1222 0.951 1_554 S
C1247 C1245 1.388 . S
C1247 C1248 1.366 . S
C1248 C1247 1.366 . S
C1248 C1249 1.414 . S
C1248 C1251 1.499 . S
C1249 H1223 0.950 . S
C1249 C1248 1.414 . S
C1249 C1250 1.374 . S
C1250 H1224 0.950 . S
C1250 C1246 1.385 . S
C1250 C1249 1.374 . S
C1251 C1248 1.499 . S
C1251 C1252 1.373 1_554 S
C1251 C1253 1.389 1_554 S
C1252 H1225 0.950 1_556 S
C1252 C1238 1.377 . S
C1252 C1251 1.373 1_556 S
C1253 C1237 1.377 . S
C1253 C1251 1.389 1_556 S
C1253 C1254 1.524 . S
C1254 C1253 1.524 . S
C1254 C1255 1.397 1_556 S
C1254 C1259 1.363 . S
C1255 H1226 0.950 . S
C1255 C1254 1.397 1_554 S
C1255 C1256 1.334 . S
C1256 H1227 0.950 . S
C1256 C1255 1.334 . S
C1256 C1257 1.287 1_554 S
C1257 C1256 1.287 1_556 S
C1257 C1258 1.524 . S
C1257 H1260 0.999 . S
C1258 H1228 0.950 . S
C1258 C1257 1.524 . S
C1258 C1259 1.415 . S
C1259 H1229 0.950 . S
C1259 C1254 1.363 . S
C1259 C1258 1.415 . S
H1260 C1257 0.999 . S
H1261 C1242 0.913 . S
H1262 C1280 0.951 . S
H1263 C1282 0.951 . S
H1264 C1284 0.950 . S
H1265 C1285 0.950 . S
H1266 C1287 0.950 . S
H1267 C1290 0.950 . S
H1268 C1291 0.950 . S
H1269 C1293 0.950 . S
H1270 C1294 0.950 . S
H1271 C1295 0.951 . S
H1272 C1297 0.951 . S
H1273 C1299 0.950 1_556 S
H1274 C1300 0.950 . S
H1275 C1302 0.950 . S
H1276 C1305 0.950 1_556 S
H1277 C1306 1.005 . S
H1278 C1308 0.950 . S
H1279 C1309 0.950 . S
C1280 H1262 0.951 . S
C1280 C1281 1.366 . S
C1280 C1282 1.388 . S
C1281 C1280 1.366 . S
C1281 C1285 1.385 . S
C1282 H1263 0.951 . S
C1282 C1280 1.388 . S
C1282 C1283 1.366 . S
C1283 C1282 1.366 . S
C1283 C1284 1.414 . S
C1283 C1286 1.499 . S
C1284 H1264 0.950 . S
C1284 C1283 1.414 . S
C1284 C1285 1.374 . S
C1285 H1265 0.950 . S
C1285 C1281 1.385 . S
C1285 C1284 1.374 . S
C1286 C1283 1.499 . S
C1286 C1287 1.373 . S
C1286 C1288 1.389 . S
C1287 H1266 0.950 . S
C1287 C1286 1.373 . S
C1287 C1303 1.377 . S
C1288 C1286 1.389 . S
C1288 C1289 1.524 . S
C1288 C1302 1.377 . S
C1289 C1288 1.524 . S
C1289 C1290 1.397 . S
C1289 C1294 1.363 . S
C1290 H1267 0.950 . S
C1290 C1289 1.397 . S
C1290 C1291 1.334 . S
C1291 H1268 0.950 . S
C1291 C1290 1.334 . S
C1291 C1292 1.287 . S
C1292 C1291 1.287 . S
C1292 C1293 1.524 . S
C1292 H1311 0.913 . S
C1293 H1269 0.950 . S
C1293 C1292 1.524 . S
C1293 C1294 1.415 . S
C1294 H1270 0.950 . S
C1294 C1289 1.363 . S
C1294 C1293 1.415 . S
C1295 H1271 0.951 . S
C1295 C1296 1.366 . S
C1295 C1297 1.388 . S
C1296 C1295 1.366 . S
C1296 C1300 1.385 . S
C1297 H1272 0.951 . S
C1297 C1295 1.388 . S
C1297 C1298 1.366 . S
C1298 C1297 1.366 . S
C1298 C1299 1.414 . S
C1298 C1301 1.499 1_554 S
C1299 H1273 0.950 1_554 S
C1299 C1298 1.414 . S
C1299 C1300 1.374 . S
C1300 H1274 0.950 . S
C1300 C1296 1.385 . S
C1300 C1299 1.374 . S
C1301 C1298 1.499 1_556 S
C1301 C1302 1.373 . S
C1301 C1303 1.389 . S
C1302 H1275 0.950 . S
C1302 C1288 1.377 . S
C1302 C1301 1.373 . S
C1303 C1287 1.377 . S
C1303 C1301 1.389 . S
C1303 C1304 1.524 1_556 S
C1304 C1303 1.524 1_554 S
C1304 C1305 1.397 . S
C1304 C1309 1.363 . S
C1305 H1276 0.950 1_554 S
C1305 C1304 1.397 . S
C1305 C1306 1.334 . S
C1306 H1277 1.005 . S
C1306 C1305 1.334 . S
C1306 C1307 1.287 1_455 S
C1307 C1306 1.287 1_655 S
C1307 C1308 1.524 1_655 S
C1307 H1310 0.999 . S
C1308 H1278 0.950 . S
C1308 C1307 1.524 1_455 S
C1308 C1309 1.415 . S
C1309 H1279 0.950 . S
C1309 C1304 1.363 . S
C1309 C1308 1.415 . S
H1310 C1307 0.999 . S
H1311 C1292 0.913 . S
H1312 C1330 0.951 . S
H1313 C1332 0.951 1_556 S
H1314 C1334 0.950 . S
H1315 C1335 0.950 . S
H1316 C1337 0.950 . S
H1317 C1340 0.950 . S
H1318 C1341 0.950 . S
H1319 C1343 0.950 . S
H1320 C1344 0.950 . S
H1321 C1345 0.951 . S
H1322 C1347 0.951 . S
H1323 C1349 0.950 . S
H1324 C1350 0.950 . S
H1325 C1352 0.950 . S
H1326 C1355 0.950 . S
H1327 C1356 0.950 . S
H1328 C1358 0.950 . S
H1329 C1359 0.950 . S
C1330 H1312 0.951 . S
C1330 C1331 1.366 . S
C1330 C1332 1.388 . S
C1331 C1330 1.366 . S
C1331 C1335 1.385 . S
C1332 H1313 0.951 1_554 S
C1332 C1330 1.388 . S
C1332 C1333 1.366 . S
C1333 C1332 1.366 . S
C1333 C1334 1.414 . S
C1333 C1336 1.518 . S
C1334 H1314 0.950 . S
C1334 C1333 1.414 . S
C1334 C1335 1.374 . S
C1335 H1315 0.950 . S
C1335 C1331 1.385 . S
C1335 C1334 1.374 . S
C1336 C1333 1.518 . S
C1336 C1337 1.374 . S
C1336 C1338 1.368 1_554 S
C1337 H1316 0.950 . S
C1337 C1336 1.374 . S
C1337 C1353 1.377 1_554 S
C1338 C1336 1.368 1_556 S
C1338 C1339 1.524 . S
C1338 C1352 1.377 . S
C1339 C1338 1.524 . S
C1339 C1340 1.397 1_556 S
C1339 C1344 1.363 . S
C1340 H1317 0.950 . S
C1340 C1339 1.397 1_554 S
C1340 C1341 1.334 . S
C1341 H1318 0.950 . S
C1341 C1340 1.334 . S
C1341 C1342 1.287 1_554 S
C1342 C1341 1.287 1_556 S
C1342 C1343 1.524 . S
C1342 H1361 0.913 . S
C1343 H1319 0.950 . S
C1343 C1342 1.524 . S
C1343 C1344 1.415 . S
C1344 H1320 0.950 . S
C1344 C1339 1.363 . S
C1344 C1343 1.415 . S
C1345 H1321 0.951 . S
C1345 C1346 1.366 . S
C1345 C1347 1.388 . S
C1346 C1345 1.366 . S
C1346 C1350 1.385 . S
C1347 H1322 0.951 . S
C1347 C1345 1.388 . S
C1347 C1348 1.366 . S
C1348 C1347 1.366 . S
C1348 C1349 1.414 . S
C1348 C1351 1.499 . S
C1349 H1323 0.950 . S
C1349 C1348 1.414 . S
C1349 C1350 1.374 . S
C1350 H1324 0.950 . S
C1350 C1346 1.385 . S
C1350 C1349 1.374 . S
C1351 C1348 1.499 . S
C1351 C1352 1.373 . S
C1351 C1353 1.389 . S
C1352 H1325 0.950 . S
C1352 C1338 1.377 . S
C1352 C1351 1.373 . S
C1353 C1337 1.377 1_556 S
C1353 C1351 1.389 . S
C1353 C1354 1.524 . S
C1354 C1353 1.524 . S
C1354 C1355 1.397 . S
C1354 C1359 1.363 1_556 S
C1355 H1326 0.950 . S
C1355 C1354 1.397 . S
C1355 C1356 1.334 . S
C1356 H1327 0.950 . S
C1356 C1355 1.334 . S
C1356 C1357 1.287 . S
C1357 C1356 1.287 . S
C1357 C1358 1.524 1_556 S
C1357 H1360 0.999 . S
C1358 H1328 0.950 . S
C1358 C1357 1.524 1_554 S
C1358 C1359 1.415 . S
C1359 H1329 0.950 . S
C1359 C1354 1.363 1_554 S
C1359 C1358 1.415 . S
H1360 C1357 0.999 . S
H1361 C1342 0.913 . S
H1362 C1380 0.951 . S
H1363 C1382 0.951 . S
H1364 C1384 0.934 1_455 S
H1365 C1385 0.950 . S
H1366 C1387 0.950 . S
H1367 C1390 0.950 . S
H1368 C1391 0.950 . S
H1369 C1393 0.950 . S
H1370 C1394 0.950 . S
H1371 C1395 0.951 . S
H1372 C1397 0.951 . S
H1373 C1399 0.950 . S
H1374 C1400 0.950 . S
H1375 C1402 0.950 . S
H1376 C1405 0.950 . S
H1377 C1406 0.950 . S
H1378 C1408 0.950 . S
H1379 C1409 0.950 . S
C1380 H1362 0.951 . S
C1380 C1381 1.366 . S
C1380 C1382 1.388 . S
C1381 C1380 1.366 . S
C1381 C1385 1.385 . S
C1382 H1363 0.951 . S
C1382 C1380 1.388 . S
C1382 C1383 1.366 . S
C1383 C1382 1.366 . S
C1383 C1384 1.416 . S
C1383 C1386 1.499 1_655 S
C1384 H1364 0.934 1_655 S
C1384 C1383 1.416 . S
C1384 C1385 1.388 . S
C1385 H1365 0.950 . S
C1385 C1381 1.385 . S
C1385 C1384 1.388 . S
C1386 C1383 1.499 1_455 S
C1386 C1387 1.373 . S
C1386 C1388 1.389 . S
C1387 H1366 0.950 . S
C1387 C1386 1.373 . S
C1387 C1403 1.377 . S
C1388 C1386 1.389 . S
C1388 C1389 1.524 . S
C1388 C1402 1.377 . S
C1389 C1388 1.524 . S
C1389 C1390 1.397 . S
C1389 C1394 1.363 . S
C1390 H1367 0.950 . S
C1390 C1389 1.397 . S
C1390 C1391 1.334 . S
C1391 H1368 0.950 . S
C1391 C1390 1.334 . S
C1391 C1392 1.287 . S
C1392 C1391 1.287 . S
C1392 C1393 1.524 . S
C1392 H1411 0.913 . S
C1393 H1369 0.950 . S
C1393 C1392 1.524 . S
C1393 C1394 1.415 . S
C1394 H1370 0.950 . S
C1394 C1389 1.363 . S
C1394 C1393 1.415 . S
C1395 H1371 0.951 . S
C1395 C1396 1.366 . S
C1395 C1397 1.388 . S
C1396 C1395 1.366 . S
C1396 C1400 1.385 . S
C1397 H1372 0.951 . S
C1397 C1395 1.388 . S
C1397 C1398 1.366 . S
C1398 C1397 1.366 . S
C1398 C1399 1.414 . S
C1398 C1401 1.499 . S
C1399 H1373 0.950 . S
C1399 C1398 1.414 . S
C1399 C1400 1.374 . S
C1400 H1374 0.950 . S
C1400 C1396 1.385 . S
C1400 C1399 1.374 . S
C1401 C1398 1.499 . S
C1401 C1402 1.373 . S
C1401 C1403 1.389 . S
C1402 H1375 0.950 . S
C1402 C1388 1.377 . S
C1402 C1401 1.373 . S
C1403 C1387 1.377 . S
C1403 C1401 1.389 . S
C1403 C1404 1.524 . S
C1404 C1403 1.524 . S
C1404 C1405 1.397 . S
C1404 C1409 1.363 . S
C1405 H1376 0.950 . S
C1405 C1404 1.397 . S
C1405 C1406 1.334 . S
C1406 H1377 0.950 . S
C1406 C1405 1.334 . S
C1406 C1407 1.287 . S
C1407 C1406 1.287 . S
C1407 C1408 1.524 . S
C1407 H1410 0.999 . S
C1408 H1378 0.950 . S
C1408 C1407 1.524 . S
C1408 C1409 1.415 . S
C1409 H1379 0.950 . S
C1409 C1404 1.363 . S
C1409 C1408 1.415 . S
H1410 C1407 0.999 . S
H1411 C1392 0.913 . S
H1412 C1430 0.951 . S
H1413 C1432 0.951 . S
H1414 C1434 0.950 . S
H1415 C1435 0.950 . S
H1416 C1437 0.950 . S
H1417 C1440 0.950 . S
H1418 C1441 0.950 . S
H1419 C1443 0.950 . S
H1420 C1444 0.950 . S
H1421 C1445 0.951 . S
H1422 C1447 0.951 . S
H1423 C1449 0.950 . S
H1424 C1450 0.950 . S
H1425 C1452 0.950 . S
H1426 C1455 0.950 . S
H1427 C1456 0.950 . S
H1428 C1458 0.950 . S
H1429 C1459 0.950 . S
C1430 H1412 0.951 . S
C1430 C1431 1.366 . S
C1430 C1432 1.388 . S
C1431 C1430 1.366 . S
C1431 C1435 1.385 . S
C1432 H1413 0.951 . S
C1432 C1430 1.388 . S
C1432 C1433 1.366 . S
C1433 C1432 1.366 . S
C1433 C1434 1.414 . S
C1433 C1436 1.499 . S
C1434 H1414 0.950 . S
C1434 C1433 1.414 . S
C1434 C1435 1.374 . S
C1435 H1415 0.950 . S
C1435 C1431 1.385 . S
C1435 C1434 1.374 . S
C1436 C1433 1.499 . S
C1436 C1437 1.373 . S
C1436 C1438 1.389 . S
C1437 H1416 0.950 . S
C1437 C1436 1.373 . S
C1437 C1453 1.377 . S
C1438 C1436 1.389 . S
C1438 C1439 1.524 . S
C1438 C1452 1.377 . S
C1439 C1438 1.524 . S
C1439 C1440 1.397 . S
C1439 C1444 1.363 . S
C1440 H1417 0.950 . S
C1440 C1439 1.397 . S
C1440 C1441 1.334 . S
C1441 H1418 0.950 . S
C1441 C1440 1.334 . S
C1441 C1442 1.287 . S
C1442 C1441 1.287 . S
C1442 C1443 1.524 . S
C1442 H1461 0.913 . S
C1443 H1419 0.950 . S
C1443 C1442 1.524 . S
C1443 C1444 1.415 . S
C1444 H1420 0.950 . S
C1444 C1439 1.363 . S
C1444 C1443 1.415 . S
C1445 H1421 0.951 . S
C1445 C1446 1.366 . S
C1445 C1447 1.388 . S
C1446 C1445 1.366 . S
C1446 C1450 1.385 . S
C1447 H1422 0.951 . S
C1447 C1445 1.388 . S
C1447 C1448 1.366 . S
C1448 C1447 1.366 . S
C1448 C1449 1.414 . S
C1448 C1451 1.499 . S
C1449 H1423 0.950 . S
C1449 C1448 1.414 . S
C1449 C1450 1.374 . S
C1450 H1424 0.950 . S
C1450 C1446 1.385 . S
C1450 C1449 1.374 . S
C1451 C1448 1.499 . S
C1451 C1452 1.373 . S
C1451 C1453 1.389 . S
C1452 H1425 0.950 . S
C1452 C1438 1.377 . S
C1452 C1451 1.373 . S
C1453 C1437 1.377 . S
C1453 C1451 1.389 . S
C1453 C1454 1.524 . S
C1454 C1453 1.524 . S
C1454 C1455 1.397 . S
C1454 C1459 1.363 . S
C1455 H1426 0.950 . S
C1455 C1454 1.397 . S
C1455 C1456 1.334 . S
C1456 H1427 0.950 . S
C1456 C1455 1.334 . S
C1456 C1457 1.287 . S
C1457 C1456 1.287 . S
C1457 C1458 1.524 . S
C1457 H1460 0.999 . S
C1458 H1428 0.950 . S
C1458 C1457 1.524 . S
C1458 C1459 1.415 . S
C1459 H1429 0.950 . S
C1459 C1454 1.363 . S
C1459 C1458 1.415 . S
H1460 C1457 0.999 . S
H1461 C1442 0.913 . S
H1462 C1480 0.951 . S
H1463 C1482 0.951 . S
H1464 C1484 0.950 . S
H1465 C1485 0.950 . S
H1466 C1487 0.950 . S
H1467 C1490 0.950 . S
H1468 C1491 0.950 . S
H1469 C1493 0.950 . S
H1470 C1494 0.950 . S
H1471 C1495 0.951 . S
H1472 C1497 0.951 1_565 S
H1473 C1499 0.950 . S
H1474 C1500 0.950 . S
H1475 C1502 0.950 . S
H1476 C1505 0.950 . S
H1477 C1506 0.950 . S
H1478 C1508 0.950 . S
H1479 C1509 0.950 . S
C1480 H1462 0.951 . S
C1480 C1481 1.366 . S
C1480 C1482 1.388 . S
C1481 C1480 1.366 . S
C1481 C1485 1.385 . S
C1482 H1463 0.951 . S
C1482 C1480 1.388 . S
C1482 C1483 1.366 . S
C1483 C1482 1.366 . S
C1483 C1484 1.414 . S
C1483 C1486 1.499 . S
C1484 H1464 0.950 . S
C1484 C1483 1.414 . S
C1484 C1485 1.374 . S
C1485 H1465 0.950 . S
C1485 C1481 1.385 . S
C1485 C1484 1.374 . S
C1486 C1483 1.499 . S
C1486 C1487 1.373 . S
C1486 C1488 1.389 . S
C1487 H1466 0.950 . S
C1487 C1486 1.373 . S
C1487 C1503 1.377 . S
C1488 C1486 1.389 . S
C1488 C1489 1.524 . S
C1488 C1502 1.377 . S
C1489 C1488 1.524 . S
C1489 C1490 1.397 . S
C1489 C1494 1.363 . S
C1490 H1467 0.950 . S
C1490 C1489 1.397 . S
C1490 C1491 1.334 . S
C1491 H1468 0.950 . S
C1491 C1490 1.334 . S
C1491 C1492 1.287 . S
C1492 C1491 1.287 . S
C1492 C1493 1.524 . S
C1492 H1511 0.913 . S
C1493 H1469 0.950 . S
C1493 C1492 1.524 . S
C1493 C1494 1.415 . S
C1494 H1470 0.950 . S
C1494 C1489 1.363 . S
C1494 C1493 1.415 . S
C1495 H1471 0.951 . S
C1495 C1496 1.366 . S
C1495 C1497 1.388 . S
C1496 C1495 1.366 . S
C1496 C1500 1.385 . S
C1497 H1472 0.951 1_545 S
C1497 C1495 1.388 . S
C1497 C1498 1.366 . S
C1498 C1497 1.366 . S
C1498 C1499 1.414 . S
C1498 C1501 1.499 1_545 S
C1499 H1473 0.950 . S
C1499 C1498 1.414 . S
C1499 C1500 1.374 . S
C1500 H1474 0.950 . S
C1500 C1496 1.385 . S
C1500 C1499 1.374 . S
C1501 C1498 1.499 1_565 S
C1501 C1502 1.373 . S
C1501 C1503 1.389 . S
C1502 H1475 0.950 . S
C1502 C1488 1.377 . S
C1502 C1501 1.373 . S
C1503 C1487 1.377 . S
C1503 C1501 1.389 . S
C1503 C1504 1.524 1_565 S
C1504 C1503 1.524 1_545 S
C1504 C1505 1.397 . S
C1504 C1509 1.363 1_545 S
C1505 H1476 0.950 . S
C1505 C1504 1.397 . S
C1505 C1506 1.334 . S
C1506 H1477 0.950 . S
C1506 C1505 1.334 . S
C1506 C1507 1.287 . S
C1507 C1506 1.287 . S
C1507 C1508 1.524 . S
C1507 H1510 0.999 . S
C1508 H1478 0.950 . S
C1508 C1507 1.524 . S
C1508 C1509 1.415 1_545 S
C1509 H1479 0.950 . S
C1509 C1504 1.363 1_565 S
C1509 C1508 1.415 1_565 S
H1510 C1507 0.999 . S
H1511 C1492 0.913 . S
H1512 C1530 0.951 . S
H1513 C1532 0.951 . S
H1514 C1534 0.950 . S
H1515 C1535 0.950 . S
H1516 C1537 0.950 . S
H1517 C1540 0.950 . S
H1518 C1541 0.950 . S
H1519 C1543 0.950 . S
H1520 C1544 0.950 . S
H1521 C1545 0.951 . S
H1522 C1547 0.951 . S
H1523 C1549 0.950 . S
H1524 C1550 0.950 . S
H1525 C1552 0.950 . S
H1526 C1555 0.950 . S
H1527 C1556 0.950 . S
H1528 C1558 0.950 . S
H1529 C1559 0.950 . S
C1530 H1512 0.951 . S
C1530 C1531 1.366 . S
C1530 C1532 1.388 . S
C1531 C1530 1.366 . S
C1531 C1535 1.385 . S
C1532 H1513 0.951 . S
C1532 C1530 1.388 . S
C1532 C1533 1.366 . S
C1533 C1532 1.366 . S
C1533 C1534 1.414 . S
C1533 C1536 1.499 . S
C1534 H1514 0.950 . S
C1534 C1533 1.414 . S
C1534 C1535 1.374 . S
C1535 H1515 0.950 . S
C1535 C1531 1.385 . S
C1535 C1534 1.374 . S
C1536 C1533 1.499 . S
C1536 C1537 1.373 . S
C1536 C1538 1.389 . S
C1537 H1516 0.950 . S
C1537 C1536 1.373 . S
C1537 C1553 1.377 . S
C1538 C1536 1.389 . S
C1538 C1539 1.524 . S
C1538 C1552 1.377 . S
C1539 C1538 1.524 . S
C1539 C1540 1.397 . S
C1539 C1544 1.363 . S
C1540 H1517 0.950 . S
C1540 C1539 1.397 . S
C1540 C1541 1.334 . S
C1541 H1518 0.950 . S
C1541 C1540 1.334 . S
C1541 C1542 1.287 . S
C1542 C1541 1.287 . S
C1542 C1543 1.524 . S
C1542 H1561 0.913 . S
C1543 H1519 0.950 . S
C1543 C1542 1.524 . S
C1543 C1544 1.415 . S
C1544 H1520 0.950 . S
C1544 C1539 1.363 . S
C1544 C1543 1.415 . S
C1545 H1521 0.951 . S
C1545 C1546 1.366 . S
C1545 C1547 1.388 . S
C1546 C1545 1.366 . S
C1546 C1550 1.385 . S
C1547 H1522 0.951 . S
C1547 C1545 1.388 . S
C1547 C1548 1.366 . S
C1548 C1547 1.366 . S
C1548 C1549 1.414 . S
C1548 C1551 1.499 . S
C1549 H1523 0.950 . S
C1549 C1548 1.414 . S
C1549 C1550 1.374 . S
C1550 H1524 0.950 . S
C1550 C1546 1.385 . S
C1550 C1549 1.374 . S
C1551 C1548 1.499 . S
C1551 C1552 1.373 . S
C1551 C1553 1.389 . S
C1552 H1525 0.950 . S
C1552 C1538 1.377 . S
C1552 C1551 1.373 . S
C1553 C1537 1.377 . S
C1553 C1551 1.389 . S
C1553 C1554 1.524 . S
C1554 C1553 1.524 . S
C1554 C1555 1.397 . S
C1554 C1559 1.363 . S
C1555 H1526 0.950 . S
C1555 C1554 1.397 . S
C1555 C1556 1.334 . S
C1556 H1527 0.950 . S
C1556 C1555 1.334 . S
C1556 C1557 1.287 . S
C1557 C1556 1.287 . S
C1557 C1558 1.524 . S
C1557 H1560 0.999 . S
C1558 H1528 0.950 . S
C1558 C1557 1.524 . S
C1558 C1559 1.415 . S
C1559 H1529 0.950 . S
C1559 C1554 1.363 . S
C1559 C1558 1.415 . S
H1560 C1557 0.999 . S
H1561 C1542 0.913 . S
H1562 C1580 0.951 . S
H1563 C1582 0.951 . S
H1564 C1584 0.950 . S
H1565 C1585 0.950 . S
H1566 C1587 0.950 . S
H1567 C1590 0.950 . S
H1568 C1591 0.950 . S
H1569 C1593 0.950 . S
H1570 C1594 0.950 . S
H1571 C1595 0.951 . S
H1572 C1597 0.951 . S
H1573 C1599 0.950 . S
H1574 C1600 0.950 . S
H1575 C1602 0.950 . S
H1576 C1605 0.950 . S
H1577 C1606 0.950 . S
H1578 C1608 0.950 . S
H1579 C1609 0.950 . S
C1580 H1562 0.951 . S
C1580 C1581 1.366 . S
C1580 C1582 1.388 . S
C1581 C1580 1.366 . S
C1581 C1585 1.385 . S
C1582 H1563 0.951 . S
C1582 C1580 1.388 . S
C1582 C1583 1.366 . S
C1583 C1582 1.366 . S
C1583 C1584 1.414 . S
C1583 C1586 1.499 . S
C1584 H1564 0.950 . S
C1584 C1583 1.414 . S
C1584 C1585 1.374 . S
C1585 H1565 0.950 . S
C1585 C1581 1.385 . S
C1585 C1584 1.374 . S
C1586 C1583 1.499 . S
C1586 C1587 1.373 . S
C1586 C1588 1.389 . S
C1587 H1566 0.950 . S
C1587 C1586 1.373 . S
C1587 C1603 1.377 . S
C1588 C1586 1.389 . S
C1588 C1589 1.524 . S
C1588 C1602 1.377 . S
C1589 C1588 1.524 . S
C1589 C1590 1.397 . S
C1589 C1594 1.363 . S
C1590 H1567 0.950 . S
C1590 C1589 1.397 . S
C1590 C1591 1.334 . S
C1591 H1568 0.950 . S
C1591 C1590 1.334 . S
C1591 C1592 1.287 . S
C1592 C1591 1.287 . S
C1592 C1593 1.524 . S
C1592 H1611 0.913 . S
C1593 H1569 0.950 . S
C1593 C1592 1.524 . S
C1593 C1594 1.415 . S
C1594 H1570 0.950 . S
C1594 C1589 1.363 . S
C1594 C1593 1.415 . S
C1595 H1571 0.951 . S
C1595 C1596 1.366 . S
C1595 C1597 1.388 . S
C1596 C1595 1.366 . S
C1596 C1600 1.385 . S
C1597 H1572 0.951 . S
C1597 C1595 1.388 . S
C1597 C1598 1.366 . S
C1598 C1597 1.366 . S
C1598 C1599 1.414 . S
C1598 C1601 1.499 . S
C1599 H1573 0.950 . S
C1599 C1598 1.414 . S
C1599 C1600 1.374 . S
C1600 H1574 0.950 . S
C1600 C1596 1.385 . S
C1600 C1599 1.374 . S
C1601 C1598 1.499 . S
C1601 C1602 1.373 . S
C1601 C1603 1.389 . S
C1602 H1575 0.950 . S
C1602 C1588 1.377 . S
C1602 C1601 1.373 . S
C1603 C1587 1.377 . S
C1603 C1601 1.389 . S
C1603 C1604 1.524 . S
C1604 C1603 1.524 . S
C1604 C1605 1.397 . S
C1604 C1609 1.363 . S
C1605 H1576 0.950 . S
C1605 C1604 1.397 . S
C1605 C1606 1.334 . S
C1606 H1577 0.950 . S
C1606 C1605 1.334 . S
C1606 C1607 1.287 . S
C1607 C1606 1.287 . S
C1607 C1608 1.524 . S
C1607 H1610 0.999 . S
C1608 H1578 0.950 . S
C1608 C1607 1.524 . S
C1608 C1609 1.415 . S
C1609 H1579 0.950 . S
C1609 C1604 1.363 . S
C1609 C1608 1.415 . S
H1610 C1607 0.999 . S
H1611 C1592 0.913 . S
H1612 C1630 0.951 . S
H1613 C1632 0.951 . S
H1614 C1634 0.950 . S
H1615 C1635 0.950 . S
H1616 C1637 0.950 . S
H1617 C1640 0.950 . S
H1618 C1641 0.950 . S
H1619 C1643 0.950 . S
H1620 C1644 0.950 . S
H1621 C1645 0.951 . S
H1622 C1647 0.951 . S
H1623 C1649 0.950 . S
H1624 C1650 0.950 . S
H1625 C1652 0.950 . S
H1626 C1655 0.950 . S
H1627 C1656 0.950 . S
H1628 C1658 0.950 . S
H1629 C1659 0.950 . S
C1630 H1612 0.951 . S
C1630 C1631 1.366 . S
C1630 C1632 1.388 . S
C1631 C1630 1.366 . S
C1631 C1635 1.385 . S
C1632 H1613 0.951 . S
C1632 C1630 1.388 . S
C1632 C1633 1.366 . S
C1633 C1632 1.366 . S
C1633 C1634 1.414 . S
C1633 C1636 1.499 . S
C1634 H1614 0.950 . S
C1634 C1633 1.414 . S
C1634 C1635 1.374 . S
C1635 H1615 0.950 . S
C1635 C1631 1.385 . S
C1635 C1634 1.374 . S
C1636 C1633 1.499 . S
C1636 C1637 1.373 . S
C1636 C1638 1.389 . S
C1637 H1616 0.950 . S
C1637 C1636 1.373 . S
C1637 C1653 1.377 . S
C1638 C1636 1.389 . S
C1638 C1639 1.524 . S
C1638 C1652 1.377 . S
C1639 C1638 1.524 . S
C1639 C1640 1.397 . S
C1639 C1644 1.363 . S
C1640 H1617 0.950 . S
C1640 C1639 1.397 . S
C1640 C1641 1.334 . S
C1641 H1618 0.950 . S
C1641 C1640 1.334 . S
C1641 C1642 1.287 . S
C1642 C1641 1.287 . S
C1642 C1643 1.524 . S
C1642 H1661 0.913 . S
C1643 H1619 0.950 . S
C1643 C1642 1.524 . S
C1643 C1644 1.415 . S
C1644 H1620 0.950 . S
C1644 C1639 1.363 . S
C1644 C1643 1.415 . S
C1645 H1621 0.951 . S
C1645 C1646 1.366 . S
C1645 C1647 1.388 . S
C1646 C1645 1.366 . S
C1646 C1650 1.385 . S
C1647 H1622 0.951 . S
C1647 C1645 1.388 . S
C1647 C1648 1.366 . S
C1648 C1647 1.366 . S
C1648 C1649 1.414 . S
C1648 C1651 1.499 . S
C1649 H1623 0.950 . S
C1649 C1648 1.414 . S
C1649 C1650 1.374 . S
C1650 H1624 0.950 . S
C1650 C1646 1.385 . S
C1650 C1649 1.374 . S
C1651 C1648 1.499 . S
C1651 C1652 1.373 . S
C1651 C1653 1.389 . S
C1652 H1625 0.950 . S
C1652 C1638 1.377 . S
C1652 C1651 1.373 . S
C1653 C1637 1.377 . S
C1653 C1651 1.389 . S
C1653 C1654 1.524 . S
C1654 C1653 1.524 . S
C1654 C1655 1.397 . S
C1654 C1659 1.363 . S
C1655 H1626 0.950 . S
C1655 C1654 1.397 . S
C1655 C1656 1.334 . S
C1656 H1627 0.950 . S
C1656 C1655 1.334 . S
C1656 C1657 1.287 . S
C1657 C1656 1.287 . S
C1657 C1658 1.524 . S
C1657 H1660 0.999 . S
C1658 H1628 0.950 . S
C1658 C1657 1.524 . S
C1658 C1659 1.415 . S
C1659 H1629 0.950 . S
C1659 C1654 1.363 . S
C1659 C1658 1.415 . S
H1660 C1657 0.999 . S
H1661 C1642 0.913 . S
H1662 C1680 0.951 . S
H1663 C1682 0.951 . S
H1664 C1684 0.950 . S
H1665 C1685 0.950 . S
H1666 C1687 0.950 . S
H1667 C1690 0.950 . S
H1668 C1691 0.950 . S
H1669 C1693 0.950 . S
H1670 C1694 0.950 . S
H1671 C1695 0.951 . S
H1672 C1697 0.951 . S
H1673 C1699 0.950 . S
H1674 C1700 0.950 . S
H1675 C1702 0.950 . S
H1676 C1705 0.950 . S
H1677 C1706 0.950 . S
H1678 C1708 0.950 . S
H1679 C1709 0.950 . S
C1680 H1662 0.951 . S
C1680 C1681 1.366 . S
C1680 C1682 1.388 . S
C1681 C1680 1.366 . S
C1681 C1685 1.385 . S
C1682 H1663 0.951 . S
C1682 C1680 1.388 . S
C1682 C1683 1.366 . S
C1683 C1682 1.366 . S
C1683 C1684 1.414 . S
C1683 C1686 1.499 . S
C1684 H1664 0.950 . S
C1684 C1683 1.414 . S
C1684 C1685 1.374 . S
C1685 H1665 0.950 . S
C1685 C1681 1.385 . S
C1685 C1684 1.374 . S
C1686 C1683 1.499 . S
C1686 C1687 1.373 . S
C1686 C1688 1.389 . S
C1687 H1666 0.950 . S
C1687 C1686 1.373 . S
C1687 C1703 1.377 . S
C1688 C1686 1.389 . S
C1688 C1689 1.524 . S
C1688 C1702 1.377 . S
C1689 C1688 1.524 . S
C1689 C1690 1.397 . S
C1689 C1694 1.363 . S
C1690 H1667 0.950 . S
C1690 C1689 1.397 . S
C1690 C1691 1.334 . S
C1691 H1668 0.950 . S
C1691 C1690 1.334 . S
C1691 C1692 1.287 . S
C1692 C1691 1.287 . S
C1692 C1693 1.524 . S
C1692 H1711 0.913 . S
C1693 H1669 0.950 . S
C1693 C1692 1.524 . S
C1693 C1694 1.415 . S
C1694 H1670 0.950 . S
C1694 C1689 1.363 . S
C1694 C1693 1.415 . S
C1695 H1671 0.951 . S
C1695 C1696 1.366 . S
C1695 C1697 1.388 . S
C1696 C1695 1.366 . S
C1696 C1700 1.385 . S
C1697 H1672 0.951 . S
C1697 C1695 1.388 . S
C1697 C1698 1.366 . S
C1698 C1697 1.366 . S
C1698 C1699 1.414 . S
C1698 C1701 1.499 . S
C1699 H1673 0.950 . S
C1699 C1698 1.414 . S
C1699 C1700 1.374 . S
C1700 H1674 0.950 . S
C1700 C1696 1.385 . S
C1700 C1699 1.374 . S
C1701 C1698 1.499 . S
C1701 C1702 1.373 . S
C1701 C1703 1.389 . S
C1702 H1675 0.950 . S
C1702 C1688 1.377 . S
C1702 C1701 1.373 . S
C1703 C1687 1.377 . S
C1703 C1701 1.389 . S
C1703 C1704 1.524 . S
C1704 C1703 1.524 . S
C1704 C1705 1.397 . S
C1704 C1709 1.363 . S
C1705 H1676 0.950 . S
C1705 C1704 1.397 . S
C1705 C1706 1.334 . S
C1706 H1677 0.950 . S
C1706 C1705 1.334 . S
C1706 C1707 1.287 . S
C1707 C1706 1.287 . S
C1707 C1708 1.524 . S
C1707 H1710 0.999 . S
C1708 H1678 0.950 . S
C1708 C1707 1.524 . S
C1708 C1709 1.415 . S
C1709 H1679 0.950 . S
C1709 C1704 1.363 . S
C1709 C1708 1.415 . S
H1710 C1707 0.999 . S
H1711 C1692 0.913 . S
H1712 C1730 0.951 . S
H1713 C1732 0.951 . S
H1714 C1734 0.950 . S
H1715 C1735 0.950 . S
H1716 C1737 0.950 . S
H1717 C1740 0.950 . S
H1718 C1741 0.950 . S
H1719 C1743 0.950 . S
H1720 C1744 0.950 . S
H1721 C1745 0.951 . S
H1722 C1747 0.951 . S
H1723 C1749 0.950 . S
H1724 C1750 0.950 . S
H1725 C1752 0.950 . S
H1726 C1755 0.950 . S
H1727 C1756 0.950 . S
H1728 C1758 0.950 . S
H1729 C1759 0.950 . S
C1730 H1712 0.951 . S
C1730 C1731 1.366 . S
C1730 C1732 1.388 . S
C1731 C1730 1.366 . S
C1731 C1735 1.385 . S
C1732 H1713 0.951 . S
C1732 C1730 1.388 . S
C1732 C1733 1.366 . S
C1733 C1732 1.366 . S
C1733 C1734 1.414 . S
C1733 C1736 1.499 . S
C1734 H1714 0.950 . S
C1734 C1733 1.414 . S
C1734 C1735 1.374 . S
C1735 H1715 0.950 . S
C1735 C1731 1.385 . S
C1735 C1734 1.374 . S
C1736 C1733 1.499 . S
C1736 C1737 1.373 . S
C1736 C1738 1.389 . S
C1737 H1716 0.950 . S
C1737 C1736 1.373 . S
C1737 C1753 1.377 . S
C1738 C1736 1.389 . S
C1738 C1739 1.524 . S
C1738 C1752 1.377 . S
C1739 C1738 1.524 . S
C1739 C1740 1.397 . S
C1739 C1744 1.363 . S
C1740 H1717 0.950 . S
C1740 C1739 1.397 . S
C1740 C1741 1.334 . S
C1741 H1718 0.950 . S
C1741 C1740 1.334 . S
C1741 C1742 1.287 . S
C1742 C1741 1.287 . S
C1742 C1743 1.524 . S
C1742 H1761 0.913 . S
C1743 H1719 0.950 . S
C1743 C1742 1.524 . S
C1743 C1744 1.415 . S
C1744 H1720 0.950 . S
C1744 C1739 1.363 . S
C1744 C1743 1.415 . S
C1745 H1721 0.951 . S
C1745 C1746 1.366 . S
C1745 C1747 1.388 . S
C1746 C1745 1.366 . S
C1746 C1750 1.385 . S
C1747 H1722 0.951 . S
C1747 C1745 1.388 . S
C1747 C1748 1.366 . S
C1748 C1747 1.366 . S
C1748 C1749 1.414 . S
C1748 C1751 1.499 . S
C1749 H1723 0.950 . S
C1749 C1748 1.414 . S
C1749 C1750 1.374 . S
C1750 H1724 0.950 . S
C1750 C1746 1.385 . S
C1750 C1749 1.374 . S
C1751 C1748 1.499 . S
C1751 C1752 1.373 . S
C1751 C1753 1.389 . S
C1752 H1725 0.950 . S
C1752 C1738 1.377 . S
C1752 C1751 1.373 . S
C1753 C1737 1.377 . S
C1753 C1751 1.389 . S
C1753 C1754 1.524 . S
C1754 C1753 1.524 . S
C1754 C1755 1.397 . S
C1754 C1759 1.363 . S
C1755 H1726 0.950 . S
C1755 C1754 1.397 . S
C1755 C1756 1.334 . S
C1756 H1727 0.950 . S
C1756 C1755 1.334 . S
C1756 C1757 1.287 . S
C1757 C1756 1.287 . S
C1757 C1758 1.524 . S
C1757 H1760 0.999 . S
C1758 H1728 0.950 . S
C1758 C1757 1.524 . S
C1758 C1759 1.415 . S
C1759 H1729 0.950 . S
C1759 C1754 1.363 . S
C1759 C1758 1.415 . S
H1760 C1757 0.999 . S
H1761 C1742 0.913 . S
H1762 C1780 0.951 . S
H1763 C1782 0.951 . S
H1764 C1784 0.950 . S
H1765 C1785 0.950 . S
H1766 C1787 0.950 . S
H1767 C1790 0.950 . S
H1768 C1791 0.950 . S
H1769 C1793 0.950 . S
H1770 C1794 0.950 . S
H1771 C1795 0.951 . S
H1772 C1797 0.951 . S
H1773 C1799 0.950 . S
H1774 C1800 0.950 . S
H1775 C1802 0.950 . S
H1776 C1805 0.950 . S
H1777 C1806 0.950 . S
H1778 C1808 0.950 . S
H1779 C1809 0.950 . S
C1780 H1762 0.951 . S
C1780 C1781 1.366 . S
C1780 C1782 1.388 . S
C1781 C1780 1.366 . S
C1781 C1785 1.385 . S
C1782 H1763 0.951 . S
C1782 C1780 1.388 . S
C1782 C1783 1.366 . S
C1783 C1782 1.366 . S
C1783 C1784 1.414 . S
C1783 C1786 1.499 . S
C1784 H1764 0.950 . S
C1784 C1783 1.414 . S
C1784 C1785 1.374 . S
C1785 H1765 0.950 . S
C1785 C1781 1.385 . S
C1785 C1784 1.374 . S
C1786 C1783 1.499 . S
C1786 C1787 1.373 . S
C1786 C1788 1.389 . S
C1787 H1766 0.950 . S
C1787 C1786 1.373 . S
C1787 C1803 1.377 . S
C1788 C1786 1.389 . S
C1788 C1789 1.524 . S
C1788 C1802 1.377 . S
C1789 C1788 1.524 . S
C1789 C1790 1.397 . S
C1789 C1794 1.363 . S
C1790 H1767 0.950 . S
C1790 C1789 1.397 . S
C1790 C1791 1.334 . S
C1791 H1768 0.950 . S
C1791 C1790 1.334 . S
C1791 C1792 1.287 . S
C1792 C1791 1.287 . S
C1792 C1793 1.524 . S
C1792 H1811 0.913 . S
C1793 H1769 0.950 . S
C1793 C1792 1.524 . S
C1793 C1794 1.415 . S
C1794 H1770 0.950 . S
C1794 C1789 1.363 . S
C1794 C1793 1.415 . S
C1795 H1771 0.951 . S
C1795 C1796 1.366 . S
C1795 C1797 1.388 . S
C1796 C1795 1.366 . S
C1796 C1800 1.385 . S
C1797 H1772 0.951 . S
C1797 C1795 1.388 . S
C1797 C1798 1.366 . S
C1798 C1797 1.366 . S
C1798 C1799 1.414 . S
C1798 C1801 1.499 . S
C1799 H1773 0.950 . S
C1799 C1798 1.414 . S
C1799 C1800 1.374 . S
C1800 H1774 0.950 . S
C1800 C1796 1.385 . S
C1800 C1799 1.374 . S
C1801 C1798 1.499 . S
C1801 C1802 1.373 . S
C1801 C1803 1.389 . S
C1802 H1775 0.950 . S
C1802 C1788 1.377 . S
C1802 C1801 1.373 . S
C1803 C1787 1.377 . S
C1803 C1801 1.389 . S
C1803 C1804 1.524 . S
C1804 C1803 1.524 . S
C1804 C1805 1.397 . S
C1804 C1809 1.363 . S
C1805 H1776 0.950 . S
C1805 C1804 1.397 . S
C1805 C1806 1.334 . S
C1806 H1777 0.950 . S
C1806 C1805 1.334 . S
C1806 C1807 1.287 . S
C1807 C1806 1.287 . S
C1807 C1808 1.524 . S
C1807 H1810 0.999 . S
C1808 H1778 0.950 . S
C1808 C1807 1.524 . S
C1808 C1809 1.415 . S
C1809 H1779 0.950 . S
C1809 C1804 1.363 . S
C1809 C1808 1.415 . S
H1810 C1807 0.999 . S
H1811 C1792 0.913 . S
H1812 C1830 0.951 . S
H1813 C1832 0.982 . S
H1814 C1834 0.950 . S
H1815 C1835 0.950 . S
H1816 C1837 0.950 . S
H1817 C1840 0.950 . S
H1818 C1841 0.962 . S
H1819 C1843 0.950 . S
H1820 C1844 0.950 . S
H1821 C1845 0.951 . S
H1822 C1847 0.982 . S
H1823 C1849 0.950 . S
H1824 C1850 0.950 . S
H1825 C1852 0.950 . S
H1826 C1855 0.950 . S
H1827 C1856 0.962 . S
H1828 C1858 0.950 . S
H1829 C1859 0.950 . S
C1830 H1812 0.951 . S
C1830 C1831 1.366 . S
C1830 C1832 1.388 . S
C1831 C1830 1.366 . S
C1831 C1835 1.385 . S
C1832 H1813 0.982 . S
C1832 C1830 1.388 . S
C1832 C1833 1.366 . S
C1833 C1832 1.366 . S
C1833 C1834 1.414 . S
C1833 C1836 1.499 . S
C1834 H1814 0.950 . S
C1834 C1833 1.414 . S
C1834 C1835 1.374 . S
C1835 H1815 0.950 . S
C1835 C1831 1.385 . S
C1835 C1834 1.374 . S
C1836 C1833 1.499 . S
C1836 C1837 1.373 1_554 S
C1836 C1838 1.389 1_545 S
C1837 H1816 0.950 . S
C1837 C1836 1.373 1_556 S
C1837 C1853 1.377 . S
C1838 C1836 1.389 1_565 S
C1838 C1839 1.524 . S
C1838 C1852 1.377 . S
C1839 C1838 1.524 . S
C1839 C1840 1.397 1_565 S
C1839 C1844 1.363 . S
C1840 H1817 0.950 . S
C1840 C1839 1.397 1_545 S
C1840 C1841 1.343 . S
C1841 H1818 0.962 . S
C1841 C1840 1.343 . S
C1841 C1842 1.267 1_545 S
C1842 C1841 1.267 1_565 S
C1842 C1843 1.524 . S
C1842 H1861 0.913 . S
C1843 H1819 0.950 . S
C1843 C1842 1.524 . S
C1843 C1844 1.415 . S
C1844 H1820 0.950 . S
C1844 C1839 1.363 . S
C1844 C1843 1.415 . S
C1845 H1821 0.951 . S
C1845 C1846 1.366 . S
C1845 C1847 1.388 . S
C1846 C1845 1.366 . S
C1846 C1850 1.385 . S
C1847 H1822 0.982 . S
C1847 C1845 1.388 . S
C1847 C1848 1.366 . S
C1848 C1847 1.366 . S
C1848 C1849 1.414 . S
C1848 C1851 1.499 . S
C1849 H1823 0.950 . S
C1849 C1848 1.414 . S
C1849 C1850 1.374 . S
C1850 H1824 0.950 . S
C1850 C1846 1.385 . S
C1850 C1849 1.374 . S
C1851 C1848 1.499 . S
C1851 C1852 1.373 1_556 S
C1851 C1853 1.389 1_565 S
C1852 H1825 0.950 . S
C1852 C1838 1.377 . S
C1852 C1851 1.373 1_554 S
C1853 C1837 1.377 . S
C1853 C1851 1.389 1_545 S
C1853 C1854 1.524 . S
C1854 C1853 1.524 . S
C1854 C1855 1.397 1_545 S
C1854 C1859 1.363 . S
C1855 H1826 0.950 . S
C1855 C1854 1.397 1_565 S
C1855 C1856 1.343 . S
C1856 H1827 0.962 . S
C1856 C1855 1.343 . S
C1856 C1857 1.267 1_565 S
C1857 C1856 1.267 1_545 S
C1857 C1858 1.524 . S
C1857 H1860 0.999 . S
C1858 H1828 0.950 . S
C1858 C1857 1.524 . S
C1858 C1859 1.415 . S
C1859 H1829 0.950 . S
C1859 C1854 1.363 . S
C1859 C1858 1.415 . S
H1860 C1857 0.999 . S
H1861 C1842 0.913 . S
H1862 C1880 0.951 . S
H1863 C1882 0.951 . S
H1864 C1884 0.950 . S
H1865 C1885 0.950 . S
H1866 C1887 0.950 . S
H1867 C1890 0.950 1_455 S
H1868 C1891 0.949 1_455 S
H1869 C1893 0.950 . S
H1870 C1894 0.950 . S
H1871 C1895 0.951 . S
H1872 C1897 0.951 . S
H1873 C1899 0.950 . S
H1874 C1900 0.950 . S
H1875 C1902 0.950 . S
H1876 C1905 0.950 1_655 S
H1877 C1906 0.949 1_655 S
H1878 C1908 0.950 . S
H1879 C1909 0.950 . S
C1880 H1862 0.951 . S
C1880 C1881 1.366 . S
C1880 C1882 1.388 . S
C1881 C1880 1.366 . S
C1881 C1885 1.385 . S
C1882 H1863 0.951 . S
C1882 C1880 1.388 . S
C1882 C1883 1.366 . S
C1883 C1882 1.366 . S
C1883 C1884 1.414 . S
C1883 C1886 1.499 . S
C1884 H1864 0.950 . S
C1884 C1883 1.414 . S
C1884 C1885 1.374 . S
C1885 H1865 0.950 . S
C1885 C1881 1.385 . S
C1885 C1884 1.374 . S
C1886 C1883 1.499 . S
C1886 C1887 1.373 . S
C1886 C1888 1.389 1_455 S
C1887 H1866 0.950 . S
C1887 C1886 1.373 . S
C1887 C1903 1.377 1_556 S
C1888 C1886 1.389 1_655 S
C1888 C1889 1.524 . S
C1888 C1902 1.377 1_556 S
C1889 C1888 1.524 . S
C1889 C1890 1.397 . S
C1889 C1894 1.363 . S
C1890 H1867 0.950 1_655 S
C1890 C1889 1.397 . S
C1890 C1891 1.334 . S
C1891 H1868 0.949 1_655 S
C1891 C1890 1.334 . S
C1891 C1892 1.287 . S
C1892 C1891 1.287 . S
C1892 C1893 1.524 . S
C1892 H1911 0.913 . S
C1893 H1869 0.950 . S
C1893 C1892 1.524 . S
C1893 C1894 1.415 . S
C1894 H1870 0.950 . S
C1894 C1889 1.363 . S
C1894 C1893 1.415 . S
C1895 H1871 0.951 . S
C1895 C1896 1.366 . S
C1895 C1897 1.388 . S
C1896 C1895 1.366 . S
C1896 C1900 1.385 . S
C1897 H1872 0.951 . S
C1897 C1895 1.388 . S
C1897 C1898 1.366 . S
C1898 C1897 1.366 . S
C1898 C1899 1.414 . S
C1898 C1901 1.499 . S
C1899 H1873 0.950 . S
C1899 C1898 1.414 . S
C1899 C1900 1.374 . S
C1900 H1874 0.950 . S
C1900 C1896 1.385 . S
C1900 C1899 1.374 . S
C1901 C1898 1.499 . S
C1901 C1902 1.373 . S
C1901 C1903 1.389 1_655 S
C1902 H1875 0.950 . S
C1902 C1888 1.377 1_554 S
C1902 C1901 1.373 . S
C1903 C1887 1.377 1_554 S
C1903 C1901 1.389 1_455 S
C1903 C1904 1.524 . S
C1904 C1903 1.524 . S
C1904 C1905 1.397 . S
C1904 C1909 1.363 . S
C1905 H1876 0.950 1_455 S
C1905 C1904 1.397 . S
C1905 C1906 1.334 . S
C1906 H1877 0.949 1_455 S
C1906 C1905 1.334 . S
C1906 C1907 1.287 . S
C1907 C1906 1.287 . S
C1907 C1908 1.524 . S
C1907 H1910 0.999 . S
C1908 H1878 0.950 . S
C1908 C1907 1.524 . S
C1908 C1909 1.415 . S
C1909 H1879 0.950 . S
C1909 C1904 1.363 . S
C1909 C1908 1.415 . S
H1910 C1907 0.999 . S
H1911 C1892 0.913 . S
H1912 C1930 0.951 . S
H1913 C1932 0.951 . S
H1914 C1934 0.950 . S
H1915 C1935 0.950 . S
H1916 C1937 0.950 . S
H1917 C1940 0.950 . S
H1918 C1941 0.950 . S
H1919 C1943 0.950 . S
H1920 C1944 0.950 . S
H1921 C1945 0.951 . S
H1922 C1947 0.951 . S
H1923 C1949 0.950 . S
H1924 C1950 0.950 . S
H1925 C1952 0.950 . S
H1926 C1955 0.950 . S
H1927 C1956 0.950 . S
H1928 C1958 0.950 . S
H1929 C1959 0.950 . S
C1930 H1912 0.951 . S
C1930 C1931 1.366 . S
C1930 C1932 1.388 . S
C1931 C1930 1.366 . S
C1931 C1935 1.385 . S
C1932 H1913 0.951 . S
C1932 C1930 1.388 . S
C1932 C1933 1.366 . S
C1933 C1932 1.366 . S
C1933 C1934 1.414 . S
C1933 C1936 1.499 . S
C1934 H1914 0.950 . S
C1934 C1933 1.414 . S
C1934 C1935 1.374 . S
C1935 H1915 0.950 . S
C1935 C1931 1.385 . S
C1935 C1934 1.374 . S
C1936 C1933 1.499 . S
C1936 C1937 1.373 . S
C1936 C1938 1.389 . S
C1937 H1916 0.950 . S
C1937 C1936 1.373 . S
C1937 C1953 1.377 1_556 S
C1938 C1936 1.389 . S
C1938 C1939 1.524 . S
C1938 C1952 1.377 1_556 S
C1939 C1938 1.524 . S
C1939 C1940 1.397 . S
C1939 C1944 1.363 . S
C1940 H1917 0.950 . S
C1940 C1939 1.397 . S
C1940 C1941 1.334 . S
C1941 H1918 0.950 . S
C1941 C1940 1.334 . S
C1941 C1942 1.287 . S
C1942 C1941 1.287 . S
C1942 C1943 1.524 . S
C1942 H1961 0.913 . S
C1943 H1919 0.950 . S
C1943 C1942 1.524 . S
C1943 C1944 1.415 . S
C1944 H1920 0.950 . S
C1944 C1939 1.363 . S
C1944 C1943 1.415 . S
C1945 H1921 0.951 . S
C1945 C1946 1.366 . S
C1945 C1947 1.388 . S
C1946 C1945 1.366 . S
C1946 C1950 1.385 . S
C1947 H1922 0.951 . S
C1947 C1945 1.388 . S
C1947 C1948 1.366 . S
C1948 C1947 1.366 . S
C1948 C1949 1.414 . S
C1948 C1951 1.499 . S
C1949 H1923 0.950 . S
C1949 C1948 1.414 . S
C1949 C1950 1.374 . S
C1950 H1924 0.950 . S
C1950 C1946 1.385 . S
C1950 C1949 1.374 . S
C1951 C1948 1.499 . S
C1951 C1952 1.373 . S
C1951 C1953 1.389 . S
C1952 H1925 0.950 . S
C1952 C1938 1.377 1_554 S
C1952 C1951 1.373 . S
C1953 C1937 1.377 1_554 S
C1953 C1951 1.389 . S
C1953 C1954 1.524 . S
C1954 C1953 1.524 . S
C1954 C1955 1.397 . S
C1954 C1959 1.363 . S
C1955 H1926 0.950 . S
C1955 C1954 1.397 . S
C1955 C1956 1.334 . S
C1956 H1927 0.950 . S
C1956 C1955 1.334 . S
C1956 C1957 1.287 . S
C1957 C1956 1.287 . S
C1957 C1958 1.524 . S
C1957 H1960 0.999 . S
C1958 H1928 0.950 . S
C1958 C1957 1.524 . S
C1958 C1959 1.415 . S
C1959 H1929 0.950 . S
C1959 C1954 1.363 . S
C1959 C1958 1.415 . S
H1960 C1957 0.999 . S
H1961 C1942 0.913 . S
H1962 C1980 0.951 . S
H1963 C1982 0.951 . S
H1964 C1984 0.950 . S
H1965 C1985 0.950 . S
H1966 C1987 0.950 . S
H1967 C1990 0.950 . S
H1968 C1991 0.950 . S
H1969 C1993 0.950 . S
H1970 C1994 0.950 . S
H1971 C1995 0.951 . S
H1972 C1997 0.951 . S
H1973 C1999 0.935 1_554 S
H1974 C2000 0.950 . S
H1975 C2002 0.950 . S
H1976 C2005 0.950 1_554 S
H1977 C2006 0.950 . S
H1978 C2008 0.950 . S
H1979 C2009 0.950 . S
C1980 H1962 0.951 . S
C1980 C1981 1.366 . S
C1980 C1982 1.388 . S
C1981 C1980 1.366 . S
C1981 C1985 1.385 . S
C1982 H1963 0.951 . S
C1982 C1980 1.388 . S
C1982 C1983 1.366 . S
C1983 C1982 1.366 . S
C1983 C1984 1.414 . S
C1983 C1986 1.499 . S
C1984 H1964 0.950 . S
C1984 C1983 1.414 . S
C1984 C1985 1.374 . S
C1985 H1965 0.950 . S
C1985 C1981 1.385 . S
C1985 C1984 1.374 . S
C1986 C1983 1.499 . S
C1986 C1987 1.373 . S
C1986 C1988 1.389 . S
C1987 H1966 0.950 . S
C1987 C1986 1.373 . S
C1987 C2003 1.377 1_554 S
C1988 C1986 1.389 . S
C1988 C1989 1.524 . S
C1988 C2002 1.377 . S
C1989 C1988 1.524 . S
C1989 C1990 1.397 . S
C1989 C1994 1.363 . S
C1990 H1967 0.950 . S
C1990 C1989 1.397 . S
C1990 C1991 1.334 . S
C1991 H1968 0.950 . S
C1991 C1990 1.334 . S
C1991 C1992 1.287 . S
C1992 C1991 1.287 . S
C1992 C1993 1.524 . S
C1992 H2011 0.913 . S
C1993 H1969 0.950 . S
C1993 C1992 1.524 . S
C1993 C1994 1.415 . S
C1994 H1970 0.950 . S
C1994 C1989 1.363 . S
C1994 C1993 1.415 . S
C1995 H1971 0.951 . S
C1995 C1996 1.366 . S
C1995 C1997 1.388 . S
C1996 C1995 1.366 . S
C1996 C2000 1.385 . S
C1997 H1972 0.951 . S
C1997 C1995 1.388 . S
C1997 C1998 1.366 . S
C1998 C1997 1.366 . S
C1998 C1999 1.422 . S
C1998 C2001 1.499 1_556 S
C1999 H1973 0.935 1_556 S
C1999 C1998 1.422 . S
C1999 C2000 1.382 . S
C2000 H1974 0.950 . S
C2000 C1996 1.385 . S
C2000 C1999 1.382 . S
C2001 C1998 1.499 1_554 S
C2001 C2002 1.373 . S
C2001 C2003 1.389 1_554 S
C2002 H1975 0.950 . S
C2002 C1988 1.377 . S
C2002 C2001 1.373 . S
C2003 C1987 1.377 1_556 S
C2003 C2001 1.389 1_556 S
C2003 C2004 1.524 . S
C2004 C2003 1.524 . S
C2004 C2005 1.397 . S
C2004 C2009 1.363 . S
C2005 H1976 0.950 1_556 S
C2005 C2004 1.397 . S
C2005 C2006 1.334 . S
C2006 H1977 0.950 . S
C2006 C2005 1.334 . S
C2006 C2007 1.287 . S
C2007 C2006 1.287 . S
C2007 C2008 1.524 . S
C2007 H2010 0.999 . S
C2008 H1978 0.950 . S
C2008 C2007 1.524 . S
C2008 C2009 1.415 . S
C2009 H1979 0.950 . S
C2009 C2004 1.363 . S
C2009 C2008 1.415 . S
H2010 C2007 0.999 . S
H2011 C1992 0.913 . S
H2012 C2030 0.951 . S
H2013 C2032 0.951 . S
H2014 C2034 0.950 . S
H2015 C2035 0.950 . S
H2016 C2037 0.950 . S
H2017 C2040 0.950 . S
H2018 C2041 0.950 . S
H2019 C2043 0.950 . S
H2020 C2044 0.950 . S
H2021 C2045 0.951 . S
H2022 C2047 0.943 . S
H2023 C2049 0.950 . S
H2024 C2050 0.950 . S
H2025 C2052 0.950 . S
H2026 C2055 0.935 1_545 S
H2027 C2056 0.950 . S
H2028 C2058 0.950 . S
H2029 C2059 0.950 . S
C2030 H2012 0.951 . S
C2030 C2031 1.366 . S
C2030 C2032 1.388 . S
C2031 C2030 1.366 . S
C2031 C2035 1.385 . S
C2032 H2013 0.951 . S
C2032 C2030 1.388 . S
C2032 C2033 1.366 . S
C2033 C2032 1.366 . S
C2033 C2034 1.414 . S
C2033 C2036 1.499 1_556 S
C2034 H2014 0.950 . S
C2034 C2033 1.414 . S
C2034 C2035 1.374 . S
C2035 H2015 0.950 . S
C2035 C2031 1.385 . S
C2035 C2034 1.374 . S
C2036 C2033 1.499 1_554 S
C2036 C2037 1.373 1_554 S
C2036 C2038 1.389 . S
C2037 H2016 0.950 . S
C2037 C2036 1.373 1_556 S
C2037 C2053 1.377 1_556 S
C2038 C2036 1.389 . S
C2038 C2039 1.524 . S
C2038 C2052 1.377 . S
C2039 C2038 1.524 . S
C2039 C2040 1.397 . S
C2039 C2044 1.363 . S
C2040 H2017 0.950 . S
C2040 C2039 1.397 . S
C2040 C2041 1.334 . S
C2041 H2018 0.950 . S
C2041 C2040 1.334 . S
C2041 C2042 1.287 . S
C2042 C2041 1.287 . S
C2042 C2043 1.524 . S
C2042 H2061 0.913 . S
C2043 H2019 0.950 . S
C2043 C2042 1.524 . S
C2043 C2044 1.415 . S
C2044 H2020 0.950 . S
C2044 C2039 1.363 . S
C2044 C2043 1.415 . S
C2045 H2021 0.951 . S
C2045 C2046 1.366 . S
C2045 C2047 1.388 . S
C2046 C2045 1.366 . S
C2046 C2050 1.385 . S
C2047 H2022 0.943 . S
C2047 C2045 1.388 . S
C2047 C2048 1.366 1_565 S
C2048 C2047 1.366 1_545 S
C2048 C2049 1.414 . S
C2048 C2051 1.499 . S
C2049 H2023 0.950 . S
C2049 C2048 1.414 . S
C2049 C2050 1.374 1_545 S
C2050 H2024 0.950 . S
C2050 C2046 1.385 . S
C2050 C2049 1.374 1_565 S
C2051 C2048 1.499 . S
C2051 C2052 1.373 . S
C2051 C2053 1.389 . S
C2052 H2025 0.950 . S
C2052 C2038 1.377 . S
C2052 C2051 1.373 . S
C2053 C2037 1.377 1_554 S
C2053 C2051 1.389 . S
C2053 C2054 1.524 1_554 S
C2054 C2053 1.524 1_556 S
C2054 C2055 1.394 1_545 S
C2054 C2059 1.363 . S
C2055 H2026 0.935 1_565 S
C2055 C2054 1.394 1_565 S
C2055 C2056 1.351 . S
C2056 H2027 0.950 . S
C2056 C2055 1.351 . S
C2056 C2057 1.287 . S
C2057 C2056 1.287 . S
C2057 C2058 1.524 . S
C2057 H2060 0.999 . S
C2058 H2028 0.950 . S
C2058 C2057 1.524 . S
C2058 C2059 1.415 1_565 S
C2059 H2029 0.950 . S
C2059 C2054 1.363 . S
C2059 C2058 1.415 1_545 S
H2060 C2057 0.999 . S
H2061 C2042 0.913 . S
H2062 C2080 0.951 . S
H2063 C2082 0.951 . S
H2064 C2084 0.950 . S
H2065 C2085 0.950 . S
H2066 C2087 0.950 . S
H2067 C2090 0.950 . S
H2068 C2091 0.948 1_455 S
H2069 C2093 0.950 1_455 S
H2070 C2094 0.950 . S
H2071 C2095 0.951 . S
H2072 C2097 0.951 1_554 S
H2073 C2099 0.950 . S
H2074 C2100 0.950 . S
H2075 C2102 0.937 1_556 S
H2076 C2105 0.950 . S
H2077 C2106 0.950 . S
H2078 C2108 0.950 . S
H2079 C2109 0.950 . S
C2080 H2062 0.951 . S
C2080 C2081 1.366 . S
C2080 C2082 1.388 . S
C2081 C2080 1.366 . S
C2081 C2085 1.385 . S
C2082 H2063 0.951 . S
C2082 C2080 1.388 . S
C2082 C2083 1.366 1_455 S
C2083 C2082 1.366 1_655 S
C2083 C2084 1.414 . S
C2083 C2086 1.499 . S
C2084 H2064 0.950 . S
C2084 C2083 1.414 . S
C2084 C2085 1.374 1_655 S
C2085 H2065 0.950 . S
C2085 C2081 1.385 . S
C2085 C2084 1.374 1_455 S
C2086 C2083 1.499 . S
C2086 C2087 1.373 . S
C2086 C2088 1.389 . S
C2087 H2066 0.950 . S
C2087 C2086 1.373 . S
C2087 C2103 1.377 . S
C2088 C2086 1.389 . S
C2088 C2089 1.524 . S
C2088 C2102 1.392 . S
C2089 C2088 1.524 . S
C2089 C2090 1.397 . S
C2089 C2094 1.363 1_554 S
C2090 H2067 0.950 . S
C2090 C2089 1.397 . S
C2090 C2091 1.334 . S
C2091 H2068 0.948 1_655 S
C2091 C2090 1.334 . S
C2091 C2092 1.287 1_655 S
C2092 C2091 1.287 1_455 S
C2092 C2093 1.524 1_454 S
C2092 H2111 0.913 . S
C2093 H2069 0.950 1_655 S
C2093 C2092 1.524 1_656 S
C2093 C2094 1.415 . S
C2094 H2070 0.950 . S
C2094 C2089 1.363 1_556 S
C2094 C2093 1.415 . S
C2095 H2071 0.951 . S
C2095 C2096 1.366 . S
C2095 C2097 1.388 . S
C2096 C2095 1.366 . S
C2096 C2100 1.385 . S
C2097 H2072 0.951 1_556 S
C2097 C2095 1.388 . S
C2097 C2098 1.366 . S
C2098 C2097 1.366 . S
C2098 C2099 1.414 . S
C2098 C2101 1.499 . S
C2099 H2073 0.950 . S
C2099 C2098 1.414 . S
C2099 C2100 1.374 . S
C2100 H2074 0.950 . S
C2100 C2096 1.385 . S
C2100 C2099 1.374 . S
C2101 C2098 1.499 . S
C2101 C2102 1.372 1_556 S
C2101 C2103 1.389 1_556 S
C2102 H2075 0.937 1_554 S
C2102 C2088 1.392 . S
C2102 C2101 1.372 1_554 S
C2103 C2087 1.377 . S
C2103 C2101 1.389 1_554 S
C2103 C2104 1.524 . S
C2104 C2103 1.524 . S
C2104 C2105 1.397 1_554 S
C2104 C2109 1.363 . S
C2105 H2076 0.950 . S
C2105 C2104 1.397 1_556 S
C2105 C2106 1.334 . S
C2106 H2077 0.950 . S
C2106 C2105 1.334 . S
C2106 C2107 1.311 . S
C2107 C2106 1.311 . S
C2107 C2108 1.494 1_556 S
C2107 H2110 1.003 . S
C2108 H2078 0.950 . S
C2108 C2107 1.494 1_554 S
C2108 C2109 1.415 . S
C2109 H2079 0.950 . S
C2109 C2104 1.363 . S
C2109 C2108 1.415 . S
H2110 C2107 1.003 . S
H2111 C2092 0.913 . S
H2112 C2130 0.951 . S
H2113 C2132 0.951 . S
H2114 C2134 0.940 1_556 S
H2115 C2135 0.950 . S
H2116 C2137 0.950 . S
H2117 C2140 0.950 1_556 S
H2118 C2141 0.950 . S
H2119 C2143 0.950 . S
H2120 C2144 0.950 . S
H2121 C2145 0.951 . S
H2122 C2147 0.951 . S
H2123 C2149 0.950 . S
H2124 C2150 0.950 . S
H2125 C2152 0.950 . S
H2126 C2155 0.950 . S
H2127 C2156 0.950 . S
H2128 C2158 0.950 . S
H2129 C2159 0.950 . S
C2130 H2112 0.951 . S
C2130 C2131 1.366 . S
C2130 C2132 1.388 . S
C2131 C2130 1.366 . S
C2131 C2135 1.385 . S
C2132 H2113 0.951 . S
C2132 C2130 1.388 . S
C2132 C2133 1.366 . S
C2133 C2132 1.366 . S
C2133 C2134 1.419 . S
C2133 C2136 1.499 1_554 S
C2134 H2114 0.940 1_554 S
C2134 C2133 1.419 . S
C2134 C2135 1.379 . S
C2135 H2115 0.950 . S
C2135 C2131 1.385 . S
C2135 C2134 1.379 . S
C2136 C2133 1.499 1_556 S
C2136 C2137 1.373 . S
C2136 C2138 1.389 1_556 S
C2137 H2116 0.950 . S
C2137 C2136 1.373 . S
C2137 C2153 1.377 . S
C2138 C2136 1.389 1_554 S
C2138 C2139 1.524 . S
C2138 C2152 1.377 1_554 S
C2139 C2138 1.524 . S
C2139 C2140 1.397 . S
C2139 C2144 1.363 . S
C2140 H2117 0.950 1_554 S
C2140 C2139 1.397 . S
C2140 C2141 1.334 . S
C2141 H2118 0.950 . S
C2141 C2140 1.334 . S
C2141 C2142 1.287 . S
C2142 C2141 1.287 . S
C2142 C2143 1.524 . S
C2142 H2161 0.913 . S
C2143 H2119 0.950 . S
C2143 C2142 1.524 . S
C2143 C2144 1.415 . S
C2144 H2120 0.950 . S
C2144 C2139 1.363 . S
C2144 C2143 1.415 . S
C2145 H2121 0.951 . S
C2145 C2146 1.366 . S
C2145 C2147 1.388 . S
C2146 C2145 1.366 . S
C2146 C2150 1.385 . S
C2147 H2122 0.951 . S
C2147 C2145 1.388 . S
C2147 C2148 1.366 . S
C2148 C2147 1.366 . S
C2148 C2149 1.414 . S
C2148 C2151 1.499 . S
C2149 H2123 0.950 . S
C2149 C2148 1.414 . S
C2149 C2150 1.374 . S
C2150 H2124 0.950 . S
C2150 C2146 1.385 . S
C2150 C2149 1.374 . S
C2151 C2148 1.499 . S
C2151 C2152 1.373 . S
C2151 C2153 1.389 . S
C2152 H2125 0.950 . S
C2152 C2138 1.377 1_556 S
C2152 C2151 1.373 . S
C2153 C2137 1.377 . S
C2153 C2151 1.389 . S
C2153 C2154 1.524 . S
C2154 C2153 1.524 . S
C2154 C2155 1.397 . S
C2154 C2159 1.363 . S
C2155 H2126 0.950 . S
C2155 C2154 1.397 . S
C2155 C2156 1.334 . S
C2156 H2127 0.950 . S
C2156 C2155 1.334 . S
C2156 C2157 1.287 . S
C2157 C2156 1.287 . S
C2157 C2158 1.524 . S
C2157 H2160 0.999 . S
C2158 H2128 0.950 . S
C2158 C2157 1.524 . S
C2158 C2159 1.415 . S
C2159 H2129 0.950 . S
C2159 C2154 1.363 . S
C2159 C2158 1.415 . S
H2160 C2157 0.999 . S
H2161 C2142 0.913 . S
H2162 C2180 0.951 . S
H2163 C2182 0.972 . S
H2164 C2184 0.950 . S
H2165 C2185 0.950 . S
H2166 C2187 0.950 . S
H2167 C2190 0.950 . S
H2168 C2191 0.950 . S
H2169 C2193 0.950 . S
H2170 C2194 0.950 1_554 S
H2171 C2195 0.951 . S
H2172 C2197 0.951 1_556 S
H2173 C2199 0.950 . S
H2174 C2200 0.950 . S
H2175 C2202 0.950 . S
H2176 C2205 0.950 . S
H2177 C2206 0.950 . S
H2178 C2208 0.950 . S
H2179 C2209 0.950 . S
C2180 H2162 0.951 . S
C2180 C2181 1.366 . S
C2180 C2182 1.363 1_545 S
C2181 C2180 1.366 . S
C2181 C2185 1.385 . S
C2182 H2163 0.972 . S
C2182 C2180 1.363 1_565 S
C2182 C2183 1.371 . S
C2183 C2182 1.371 . S
C2183 C2184 1.414 . S
C2183 C2186 1.499 . S
C2184 H2164 0.950 . S
C2184 C2183 1.414 . S
C2184 C2185 1.374 1_565 S
C2185 H2165 0.950 . S
C2185 C2181 1.385 . S
C2185 C2184 1.374 1_545 S
C2186 C2183 1.499 . S
C2186 C2187 1.373 . S
C2186 C2188 1.389 . S
C2187 H2166 0.950 . S
C2187 C2186 1.373 . S
C2187 C2203 1.377 . S
C2188 C2186 1.389 . S
C2188 C2189 1.524 . S
C2188 C2202 1.377 . S
C2189 C2188 1.524 . S
C2189 C2190 1.397 . S
C2189 C2194 1.363 . S
C2190 H2167 0.950 . S
C2190 C2189 1.397 . S
C2190 C2191 1.334 . S
C2191 H2168 0.950 . S
C2191 C2190 1.334 . S
C2191 C2192 1.287 . S
C2192 C2191 1.287 . S
C2192 C2193 1.524 . S
C2192 H2211 0.913 . S
C2193 H2169 0.950 . S
C2193 C2192 1.524 . S
C2193 C2194 1.415 . S
C2194 H2170 0.950 1_556 S
C2194 C2189 1.363 . S
C2194 C2193 1.415 . S
C2195 H2171 0.951 . S
C2195 C2196 1.366 . S
C2195 C2197 1.388 . S
C2196 C2195 1.366 . S
C2196 C2200 1.385 . S
C2197 H2172 0.951 1_554 S
C2197 C2195 1.388 . S
C2197 C2198 1.366 . S
C2198 C2197 1.366 . S
C2198 C2199 1.414 . S
C2198 C2201 1.499 . S
C2199 H2173 0.950 . S
C2199 C2198 1.414 . S
C2199 C2200 1.374 . S
C2200 H2174 0.950 . S
C2200 C2196 1.385 . S
C2200 C2199 1.374 . S
C2201 C2198 1.499 . S
C2201 C2202 1.373 1_554 S
C2201 C2203 1.389 1_554 S
C2202 H2175 0.950 . S
C2202 C2188 1.377 . S
C2202 C2201 1.373 1_556 S
C2203 C2187 1.377 . S
C2203 C2201 1.389 1_556 S
C2203 C2204 1.524 1_556 S
C2204 C2203 1.524 1_554 S
C2204 C2205 1.397 . S
C2204 C2209 1.363 1_554 S
C2205 H2176 0.950 . S
C2205 C2204 1.397 . S
C2205 C2206 1.334 . S
C2206 H2177 0.950 . S
C2206 C2205 1.334 . S
C2206 C2207 1.287 . S
C2207 C2206 1.287 . S
C2207 C2208 1.524 1_554 S
C2207 H2210 0.999 . S
C2208 H2178 0.950 . S
C2208 C2207 1.524 1_556 S
C2208 C2209 1.415 . S
C2209 H2179 0.950 . S
C2209 C2204 1.363 1_556 S
C2209 C2208 1.415 . S
H2210 C2207 0.999 . S
H2211 C2192 0.913 . S
H2212 C2230 0.951 . S
H2213 C2232 0.951 . S
H2214 C2234 0.965 . S
H2215 C2235 0.950 . S
H2216 C2237 0.950 . S
H2217 C2240 0.950 . S
H2218 C2241 0.950 . S
H2219 C2243 0.950 . S
H2220 C2244 0.950 . S
H2221 C2245 0.951 . S
H2222 C2247 0.951 . S
H2223 C2249 0.950 . S
H2224 C2250 0.950 . S
H2225 C2252 0.950 1_554 S
H2226 C2255 0.950 . S
H2227 C2256 0.950 . S
H2228 C2258 0.950 . S
H2229 C2259 0.950 . S
C2230 H2212 0.951 . S
C2230 C2231 1.366 . S
C2230 C2232 1.388 . S
C2231 C2230 1.366 . S
C2231 C2235 1.385 . S
C2232 H2213 0.951 . S
C2232 C2230 1.388 . S
C2232 C2233 1.366 . S
C2233 C2232 1.366 . S
C2233 C2234 1.414 . S
C2233 C2236 1.515 . S
C2234 H2214 0.965 . S
C2234 C2233 1.414 . S
C2234 C2235 1.374 . S
C2235 H2215 0.950 . S
C2235 C2231 1.385 . S
C2235 C2234 1.374 . S
C2236 C2233 1.515 . S
C2236 C2237 1.341 1_554 S
C2236 C2238 1.405 . S
C2237 H2216 0.950 . S
C2237 C2236 1.341 1_556 S
C2237 C2253 1.377 . S
C2238 C2236 1.405 . S
C2238 C2239 1.524 . S
C2238 C2252 1.377 1_554 S
C2239 C2238 1.524 . S
C2239 C2240 1.397 . S
C2239 C2244 1.363 . S
C2240 H2217 0.950 . S
C2240 C2239 1.397 . S
C2240 C2241 1.334 . S
C2241 H2218 0.950 . S
C2241 C2240 1.334 . S
C2241 C2242 1.287 . S
C2242 C2241 1.287 . S
C2242 C2243 1.524 . S
C2242 H2261 0.913 . S
C2243 H2219 0.950 . S
C2243 C2242 1.524 . S
C2243 C2244 1.415 . S
C2244 H2220 0.950 . S
C2244 C2239 1.363 . S
C2244 C2243 1.415 . S
C2245 H2221 0.951 . S
C2245 C2246 1.366 . S
C2245 C2247 1.388 1_655 S
C2246 C2245 1.366 . S
C2246 C2250 1.385 . S
C2247 H2222 0.951 . S
C2247 C2245 1.388 1_455 S
C2247 C2248 1.366 . S
C2248 C2247 1.366 . S
C2248 C2249 1.414 . S
C2248 C2251 1.499 . S
C2249 H2223 0.950 . S
C2249 C2248 1.414 . S
C2249 C2250 1.374 1_455 S
C2250 H2224 0.950 . S
C2250 C2246 1.385 . S
C2250 C2249 1.374 1_655 S
C2251 C2248 1.499 . S
C2251 C2252 1.373 . S
C2251 C2253 1.389 . S
C2252 H2225 0.950 1_556 S
C2252 C2238 1.377 1_556 S
C2252 C2251 1.373 . S
C2253 C2237 1.377 . S
C2253 C2251 1.389 . S
C2253 C2254 1.524 . S
C2254 C2253 1.524 . S
C2254 C2255 1.397 . S
C2254 C2259 1.363 . S
C2255 H2226 0.950 . S
C2255 C2254 1.397 . S
C2255 C2256 1.334 . S
C2256 H2227 0.950 . S
C2256 C2255 1.334 . S
C2256 C2257 1.287 . S
C2257 C2256 1.287 . S
C2257 C2258 1.524 . S
C2257 H2260 0.999 . S
C2258 H2228 0.950 . S
C2258 C2257 1.524 . S
C2258 C2259 1.415 . S
C2259 H2229 0.950 . S
C2259 C2254 1.363 . S
C2259 C2258 1.415 . S
H2260 C2257 0.999 . S
H2261 C2242 0.913 . S
H2262 C2280 0.951 . S
H2263 C2282 0.951 . S
H2264 C2284 0.950 . S
H2265 C2285 0.950 . S
H2266 C2287 0.950 . S
H2267 C2290 0.950 . S
H2268 C2291 0.950 . S
H2269 C2293 0.950 . S
H2270 C2294 0.950 . S
H2271 C2295 0.951 . S
H2272 C2297 0.951 . S
H2273 C2299 0.950 . S
H2274 C2300 0.950 . S
H2275 C2302 0.950 . S
H2276 C2305 0.950 . S
H2277 C2306 0.950 . S
H2278 C2308 0.950 . S
H2279 C2309 0.950 . S
C2280 H2262 0.951 . S
C2280 C2281 1.366 . S
C2280 C2282 1.388 . S
C2281 C2280 1.366 . S
C2281 C2285 1.385 . S
C2282 H2263 0.951 . S
C2282 C2280 1.388 . S
C2282 C2283 1.366 . S
C2283 C2282 1.366 . S
C2283 C2284 1.414 . S
C2283 C2286 1.499 . S
C2284 H2264 0.950 . S
C2284 C2283 1.414 . S
C2284 C2285 1.374 . S
C2285 H2265 0.950 . S
C2285 C2281 1.385 . S
C2285 C2284 1.374 . S
C2286 C2283 1.499 . S
C2286 C2287 1.373 . S
C2286 C2288 1.389 . S
C2287 H2266 0.950 . S
C2287 C2286 1.373 . S
C2287 C2303 1.377 . S
C2288 C2286 1.389 . S
C2288 C2289 1.524 . S
C2288 C2302 1.377 . S
C2289 C2288 1.524 . S
C2289 C2290 1.397 . S
C2289 C2294 1.363 . S
C2290 H2267 0.950 . S
C2290 C2289 1.397 . S
C2290 C2291 1.334 . S
C2291 H2268 0.950 . S
C2291 C2290 1.334 . S
C2291 C2292 1.287 . S
C2292 C2291 1.287 . S
C2292 C2293 1.524 . S
C2292 H2311 0.913 . S
C2293 H2269 0.950 . S
C2293 C2292 1.524 . S
C2293 C2294 1.415 . S
C2294 H2270 0.950 . S
C2294 C2289 1.363 . S
C2294 C2293 1.415 . S
C2295 H2271 0.951 . S
C2295 C2296 1.366 . S
C2295 C2297 1.388 . S
C2296 C2295 1.366 . S
C2296 C2300 1.385 . S
C2297 H2272 0.951 . S
C2297 C2295 1.388 . S
C2297 C2298 1.366 . S
C2298 C2297 1.366 . S
C2298 C2299 1.414 . S
C2298 C2301 1.499 . S
C2299 H2273 0.950 . S
C2299 C2298 1.414 . S
C2299 C2300 1.374 . S
C2300 H2274 0.950 . S
C2300 C2296 1.385 . S
C2300 C2299 1.374 . S
C2301 C2298 1.499 . S
C2301 C2302 1.373 . S
C2301 C2303 1.389 . S
C2302 H2275 0.950 . S
C2302 C2288 1.377 . S
C2302 C2301 1.373 . S
C2303 C2287 1.377 . S
C2303 C2301 1.389 . S
C2303 C2304 1.524 . S
C2304 C2303 1.524 . S
C2304 C2305 1.397 . S
C2304 C2309 1.363 . S
C2305 H2276 0.950 . S
C2305 C2304 1.397 . S
C2305 C2306 1.334 . S
C2306 H2277 0.950 . S
C2306 C2305 1.334 . S
C2306 C2307 1.287 . S
C2307 C2306 1.287 . S
C2307 C2308 1.524 . S
C2307 H2310 0.999 . S
C2308 H2278 0.950 . S
C2308 C2307 1.524 . S
C2308 C2309 1.415 . S
C2309 H2279 0.950 . S
C2309 C2304 1.363 . S
C2309 C2308 1.415 . S
H2310 C2307 0.999 . S
H2311 C2292 0.913 . S
H2312 C2330 0.951 . S
H2313 C2332 0.951 . S
H2314 C2334 0.950 . S
H2315 C2335 0.950 . S
H2316 C2337 0.950 . S
H2317 C2340 0.950 . S
H2318 C2341 0.950 . S
H2319 C2343 0.950 . S
H2320 C2344 0.950 . S
H2321 C2345 0.951 . S
H2322 C2347 0.951 . S
H2323 C2349 0.950 . S
H2324 C2350 0.950 . S
H2325 C2352 0.950 . S
H2326 C2355 0.950 . S
H2327 C2356 0.950 . S
H2328 C2358 0.950 . S
H2329 C2359 0.950 . S
C2330 H2312 0.951 . S
C2330 C2331 1.366 . S
C2330 C2332 1.388 . S
C2331 C2330 1.366 . S
C2331 C2335 1.385 . S
C2332 H2313 0.951 . S
C2332 C2330 1.388 . S
C2332 C2333 1.366 . S
C2333 C2332 1.366 . S
C2333 C2334 1.414 . S
C2333 C2336 1.499 . S
C2334 H2314 0.950 . S
C2334 C2333 1.414 . S
C2334 C2335 1.374 . S
C2335 H2315 0.950 . S
C2335 C2331 1.385 . S
C2335 C2334 1.374 . S
C2336 C2333 1.499 . S
C2336 C2337 1.373 . S
C2336 C2338 1.389 . S
C2337 H2316 0.950 . S
C2337 C2336 1.373 . S
C2337 C2353 1.377 . S
C2338 C2336 1.389 . S
C2338 C2339 1.524 . S
C2338 C2352 1.377 . S
C2339 C2338 1.524 . S
C2339 C2340 1.397 . S
C2339 C2344 1.363 . S
C2340 H2317 0.950 . S
C2340 C2339 1.397 . S
C2340 C2341 1.334 . S
C2341 H2318 0.950 . S
C2341 C2340 1.334 . S
C2341 C2342 1.287 . S
C2342 C2341 1.287 . S
C2342 C2343 1.524 . S
C2342 H2361 0.913 . S
C2343 H2319 0.950 . S
C2343 C2342 1.524 . S
C2343 C2344 1.415 . S
C2344 H2320 0.950 . S
C2344 C2339 1.363 . S
C2344 C2343 1.415 . S
C2345 H2321 0.951 . S
C2345 C2346 1.366 . S
C2345 C2347 1.388 . S
C2346 C2345 1.366 . S
C2346 C2350 1.385 . S
C2347 H2322 0.951 . S
C2347 C2345 1.388 . S
C2347 C2348 1.366 . S
C2348 C2347 1.366 . S
C2348 C2349 1.414 . S
C2348 C2351 1.499 . S
C2349 H2323 0.950 . S
C2349 C2348 1.414 . S
C2349 C2350 1.374 . S
C2350 H2324 0.950 . S
C2350 C2346 1.385 . S
C2350 C2349 1.374 . S
C2351 C2348 1.499 . S
C2351 C2352 1.373 . S
C2351 C2353 1.389 . S
C2352 H2325 0.950 . S
C2352 C2338 1.377 . S
C2352 C2351 1.373 . S
C2353 C2337 1.377 . S
C2353 C2351 1.389 . S
C2353 C2354 1.524 . S
C2354 C2353 1.524 . S
C2354 C2355 1.397 . S
C2354 C2359 1.363 . S
C2355 H2326 0.950 . S
C2355 C2354 1.397 . S
C2355 C2356 1.334 . S
C2356 H2327 0.950 . S
C2356 C2355 1.334 . S
C2356 C2357 1.287 . S
C2357 C2356 1.287 . S
C2357 C2358 1.524 . S
C2357 H2360 0.999 . S
C2358 H2328 0.950 . S
C2358 C2357 1.524 . S
C2358 C2359 1.415 . S
C2359 H2329 0.950 . S
C2359 C2354 1.363 . S
C2359 C2358 1.415 . S
H2360 C2357 0.999 . S
H2361 C2342 0.913 . S
H2362 C2380 0.951 . S
H2363 C2382 0.951 . S
H2364 C2384 0.950 . S
H2365 C2385 0.950 . S
H2366 C2387 0.950 . S
H2367 C2390 0.950 . S
H2368 C2391 0.950 . S
H2369 C2393 0.950 . S
H2370 C2394 0.950 . S
H2371 C2395 0.951 . S
H2372 C2397 0.951 . S
H2373 C2399 0.950 . S
H2374 C2400 0.950 . S
H2375 C2402 0.950 . S
H2376 C2405 0.950 . S
H2377 C2406 0.950 . S
H2378 C2408 0.950 . S
H2379 C2409 0.950 . S
C2380 H2362 0.951 . S
C2380 C2381 1.366 . S
C2380 C2382 1.388 . S
C2381 C2380 1.366 . S
C2381 C2385 1.385 . S
C2382 H2363 0.951 . S
C2382 C2380 1.388 . S
C2382 C2383 1.366 . S
C2383 C2382 1.366 . S
C2383 C2384 1.414 . S
C2383 C2386 1.499 . S
C2384 H2364 0.950 . S
C2384 C2383 1.414 . S
C2384 C2385 1.374 . S
C2385 H2365 0.950 . S
C2385 C2381 1.385 . S
C2385 C2384 1.374 . S
C2386 C2383 1.499 . S
C2386 C2387 1.373 . S
C2386 C2388 1.389 . S
C2387 H2366 0.950 . S
C2387 C2386 1.373 . S
C2387 C2403 1.377 . S
C2388 C2386 1.389 . S
C2388 C2389 1.524 . S
C2388 C2402 1.377 . S
C2389 C2388 1.524 . S
C2389 C2390 1.397 . S
C2389 C2394 1.363 . S
C2390 H2367 0.950 . S
C2390 C2389 1.397 . S
C2390 C2391 1.334 . S
C2391 H2368 0.950 . S
C2391 C2390 1.334 . S
C2391 C2392 1.287 . S
C2392 C2391 1.287 . S
C2392 C2393 1.524 . S
C2392 H2411 0.913 . S
C2393 H2369 0.950 . S
C2393 C2392 1.524 . S
C2393 C2394 1.415 . S
C2394 H2370 0.950 . S
C2394 C2389 1.363 . S
C2394 C2393 1.415 . S
C2395 H2371 0.951 . S
C2395 C2396 1.366 . S
C2395 C2397 1.388 . S
C2396 C2395 1.366 . S
C2396 C2400 1.385 . S
C2397 H2372 0.951 . S
C2397 C2395 1.388 . S
C2397 C2398 1.366 . S
C2398 C2397 1.366 . S
C2398 C2399 1.414 . S
C2398 C2401 1.499 . S
C2399 H2373 0.950 . S
C2399 C2398 1.414 . S
C2399 C2400 1.374 . S
C2400 H2374 0.950 . S
C2400 C2396 1.385 . S
C2400 C2399 1.374 . S
C2401 C2398 1.499 . S
C2401 C2402 1.373 . S
C2401 C2403 1.389 . S
C2402 H2375 0.950 . S
C2402 C2388 1.377 . S
C2402 C2401 1.373 . S
C2403 C2387 1.377 . S
C2403 C2401 1.389 . S
C2403 C2404 1.524 . S
C2404 C2403 1.524 . S
C2404 C2405 1.397 . S
C2404 C2409 1.363 . S
C2405 H2376 0.950 . S
C2405 C2404 1.397 . S
C2405 C2406 1.334 . S
C2406 H2377 0.950 . S
C2406 C2405 1.334 . S
C2406 C2407 1.287 . S
C2407 C2406 1.287 . S
C2407 C2408 1.524 . S
C2407 H2410 0.999 . S
C2408 H2378 0.950 . S
C2408 C2407 1.524 . S
C2408 C2409 1.415 . S
C2409 H2379 0.950 . S
C2409 C2404 1.363 . S
C2409 C2408 1.415 . S
H2410 C2407 0.999 . S
H2411 C2392 0.913 . S
H2412 C2430 0.951 . S
H2413 C2432 0.951 . S
H2414 C2434 0.950 . S
H2415 C2435 0.950 . S
H2416 C2437 0.950 . S
H2417 C2440 0.950 . S
H2418 C2441 0.950 . S
H2419 C2443 0.950 . S
H2420 C2444 0.950 . S
H2421 C2445 0.951 . S
H2422 C2447 0.951 . S
H2423 C2449 0.950 . S
H2424 C2450 0.950 . S
H2425 C2452 0.950 . S
H2426 C2455 0.950 . S
H2427 C2456 0.950 . S
H2428 C2458 0.950 . S
H2429 C2459 0.950 . S
C2430 H2412 0.951 . S
C2430 C2431 1.366 . S
C2430 C2432 1.388 . S
C2431 C2430 1.366 . S
C2431 C2435 1.385 . S
C2432 H2413 0.951 . S
C2432 C2430 1.388 . S
C2432 C2433 1.366 . S
C2433 C2432 1.366 . S
C2433 C2434 1.414 . S
C2433 C2436 1.499 . S
C2434 H2414 0.950 . S
C2434 C2433 1.414 . S
C2434 C2435 1.374 . S
C2435 H2415 0.950 . S
C2435 C2431 1.385 . S
C2435 C2434 1.374 . S
C2436 C2433 1.499 . S
C2436 C2437 1.373 . S
C2436 C2438 1.389 . S
C2437 H2416 0.950 . S
C2437 C2436 1.373 . S
C2437 C2453 1.377 . S
C2438 C2436 1.389 . S
C2438 C2439 1.524 . S
C2438 C2452 1.377 . S
C2439 C2438 1.524 . S
C2439 C2440 1.397 . S
C2439 C2444 1.363 . S
C2440 H2417 0.950 . S
C2440 C2439 1.397 . S
C2440 C2441 1.334 . S
C2441 H2418 0.950 . S
C2441 C2440 1.334 . S
C2441 C2442 1.287 . S
C2442 C2441 1.287 . S
C2442 C2443 1.524 . S
C2442 H2461 0.913 . S
C2443 H2419 0.950 . S
C2443 C2442 1.524 . S
C2443 C2444 1.415 . S
C2444 H2420 0.950 . S
C2444 C2439 1.363 . S
C2444 C2443 1.415 . S
C2445 H2421 0.951 . S
C2445 C2446 1.366 . S
C2445 C2447 1.388 . S
C2446 C2445 1.366 . S
C2446 C2450 1.385 . S
C2447 H2422 0.951 . S
C2447 C2445 1.388 . S
C2447 C2448 1.366 . S
C2448 C2447 1.366 . S
C2448 C2449 1.414 . S
C2448 C2451 1.499 . S
C2449 H2423 0.950 . S
C2449 C2448 1.414 . S
C2449 C2450 1.374 . S
C2450 H2424 0.950 . S
C2450 C2446 1.385 . S
C2450 C2449 1.374 . S
C2451 C2448 1.499 . S
C2451 C2452 1.373 . S
C2451 C2453 1.389 . S
C2452 H2425 0.950 . S
C2452 C2438 1.377 . S
C2452 C2451 1.373 . S
C2453 C2437 1.377 . S
C2453 C2451 1.389 . S
C2453 C2454 1.524 . S
C2454 C2453 1.524 . S
C2454 C2455 1.397 . S
C2454 C2459 1.363 . S
C2455 H2426 0.950 . S
C2455 C2454 1.397 . S
C2455 C2456 1.334 . S
C2456 H2427 0.950 . S
C2456 C2455 1.334 . S
C2456 C2457 1.287 . S
C2457 C2456 1.287 . S
C2457 C2458 1.524 . S
C2457 H2460 0.999 . S
C2458 H2428 0.950 . S
C2458 C2457 1.524 . S
C2458 C2459 1.415 . S
C2459 H2429 0.950 . S
C2459 C2454 1.363 . S
C2459 C2458 1.415 . S
H2460 C2457 0.999 . S
H2461 C2442 0.913 . S
H2462 C2480 0.951 . S
H2463 C2482 0.951 . S
H2464 C2484 0.950 . S
H2465 C2485 0.950 . S
H2466 C2487 0.950 . S
H2467 C2490 0.950 . S
H2468 C2491 0.950 . S
H2469 C2493 0.950 . S
H2470 C2494 0.950 . S
H2471 C2495 0.951 . S
H2472 C2497 0.951 . S
H2473 C2499 0.950 . S
H2474 C2500 0.950 . S
H2475 C2502 0.950 . S
H2476 C2505 0.950 . S
H2477 C2506 0.950 . S
H2478 C2508 0.950 . S
H2479 C2509 0.950 . S
C2480 H2462 0.951 . S
C2480 C2481 1.366 . S
C2480 C2482 1.388 . S
C2481 C2480 1.366 . S
C2481 C2485 1.385 . S
C2482 H2463 0.951 . S
C2482 C2480 1.388 . S
C2482 C2483 1.366 . S
C2483 C2482 1.366 . S
C2483 C2484 1.414 . S
C2483 C2486 1.499 . S
C2484 H2464 0.950 . S
C2484 C2483 1.414 . S
C2484 C2485 1.374 . S
C2485 H2465 0.950 . S
C2485 C2481 1.385 . S
C2485 C2484 1.374 . S
C2486 C2483 1.499 . S
C2486 C2487 1.373 . S
C2486 C2488 1.389 . S
C2487 H2466 0.950 . S
C2487 C2486 1.373 . S
C2487 C2503 1.377 . S
C2488 C2486 1.389 . S
C2488 C2489 1.524 . S
C2488 C2502 1.377 . S
C2489 C2488 1.524 . S
C2489 C2490 1.397 . S
C2489 C2494 1.363 . S
C2490 H2467 0.950 . S
C2490 C2489 1.397 . S
C2490 C2491 1.334 . S
C2491 H2468 0.950 . S
C2491 C2490 1.334 . S
C2491 C2492 1.287 . S
C2492 C2491 1.287 . S
C2492 C2493 1.524 . S
C2492 H2511 0.913 . S
C2493 H2469 0.950 . S
C2493 C2492 1.524 . S
C2493 C2494 1.415 . S
C2494 H2470 0.950 . S
C2494 C2489 1.363 . S
C2494 C2493 1.415 . S
C2495 H2471 0.951 . S
C2495 C2496 1.366 . S
C2495 C2497 1.388 . S
C2496 C2495 1.366 . S
C2496 C2500 1.385 . S
C2497 H2472 0.951 . S
C2497 C2495 1.388 . S
C2497 C2498 1.366 . S
C2498 C2497 1.366 . S
C2498 C2499 1.414 . S
C2498 C2501 1.499 . S
C2499 H2473 0.950 . S
C2499 C2498 1.414 . S
C2499 C2500 1.374 . S
C2500 H2474 0.950 . S
C2500 C2496 1.385 . S
C2500 C2499 1.374 . S
C2501 C2498 1.499 . S
C2501 C2502 1.373 . S
C2501 C2503 1.389 . S
C2502 H2475 0.950 . S
C2502 C2488 1.377 . S
C2502 C2501 1.373 . S
C2503 C2487 1.377 . S
C2503 C2501 1.389 . S
C2503 C2504 1.524 . S
C2504 C2503 1.524 . S
C2504 C2505 1.397 . S
C2504 C2509 1.363 . S
C2505 H2476 0.950 . S
C2505 C2504 1.397 . S
C2505 C2506 1.334 . S
C2506 H2477 0.950 . S
C2506 C2505 1.334 . S
C2506 C2507 1.287 . S
C2507 C2506 1.287 . S
C2507 C2508 1.524 . S
C2507 H2510 0.999 . S
C2508 H2478 0.950 . S
C2508 C2507 1.524 . S
C2508 C2509 1.415 . S
C2509 H2479 0.950 . S
C2509 C2504 1.363 . S
C2509 C2508 1.415 . S
H2510 C2507 0.999 . S
H2511 C2492 0.913 . S
H2512 C2530 0.951 . S
H2513 C2532 0.951 . S
H2514 C2534 0.950 . S
H2515 C2535 0.950 . S
H2516 C2537 0.950 . S
H2517 C2540 0.950 . S
H2518 C2541 0.950 . S
H2519 C2543 0.950 . S
H2520 C2544 0.950 . S
H2521 C2545 0.951 . S
H2522 C2547 0.951 . S
H2523 C2549 0.950 . S
H2524 C2550 0.950 . S
H2525 C2552 0.950 . S
H2526 C2555 0.950 . S
H2527 C2556 0.950 . S
H2528 C2558 0.950 . S
H2529 C2559 0.950 . S
C2530 H2512 0.951 . S
C2530 C2531 1.366 . S
C2530 C2532 1.388 . S
C2531 C2530 1.366 . S
C2531 C2535 1.385 . S
C2532 H2513 0.951 . S
C2532 C2530 1.388 . S
C2532 C2533 1.366 . S
C2533 C2532 1.366 . S
C2533 C2534 1.414 . S
C2533 C2536 1.499 . S
C2534 H2514 0.950 . S
C2534 C2533 1.414 . S
C2534 C2535 1.374 . S
C2535 H2515 0.950 . S
C2535 C2531 1.385 . S
C2535 C2534 1.374 . S
C2536 C2533 1.499 . S
C2536 C2537 1.373 . S
C2536 C2538 1.389 . S
C2537 H2516 0.950 . S
C2537 C2536 1.373 . S
C2537 C2553 1.377 . S
C2538 C2536 1.389 . S
C2538 C2539 1.524 . S
C2538 C2552 1.377 . S
C2539 C2538 1.524 . S
C2539 C2540 1.397 . S
C2539 C2544 1.363 . S
C2540 H2517 0.950 . S
C2540 C2539 1.397 . S
C2540 C2541 1.334 . S
C2541 H2518 0.950 . S
C2541 C2540 1.334 . S
C2541 C2542 1.287 . S
C2542 C2541 1.287 . S
C2542 C2543 1.524 . S
C2542 H2561 0.913 . S
C2543 H2519 0.950 . S
C2543 C2542 1.524 . S
C2543 C2544 1.415 . S
C2544 H2520 0.950 . S
C2544 C2539 1.363 . S
C2544 C2543 1.415 . S
C2545 H2521 0.951 . S
C2545 C2546 1.366 . S
C2545 C2547 1.388 . S
C2546 C2545 1.366 . S
C2546 C2550 1.385 . S
C2547 H2522 0.951 . S
C2547 C2545 1.388 . S
C2547 C2548 1.366 . S
C2548 C2547 1.366 . S
C2548 C2549 1.414 . S
C2548 C2551 1.499 . S
C2549 H2523 0.950 . S
C2549 C2548 1.414 . S
C2549 C2550 1.374 . S
C2550 H2524 0.950 . S
C2550 C2546 1.385 . S
C2550 C2549 1.374 . S
C2551 C2548 1.499 . S
C2551 C2552 1.373 . S
C2551 C2553 1.389 . S
C2552 H2525 0.950 . S
C2552 C2538 1.377 . S
C2552 C2551 1.373 . S
C2553 C2537 1.377 . S
C2553 C2551 1.389 . S
C2553 C2554 1.524 . S
C2554 C2553 1.524 . S
C2554 C2555 1.397 . S
C2554 C2559 1.363 . S
C2555 H2526 0.950 . S
C2555 C2554 1.397 . S
C2555 C2556 1.334 . S
C2556 H2527 0.950 . S
C2556 C2555 1.334 . S
C2556 C2557 1.287 . S
C2557 C2556 1.287 . S
C2557 C2558 1.524 . S
C2557 H2560 0.999 . S
C2558 H2528 0.950 . S
C2558 C2557 1.524 . S
C2558 C2559 1.415 . S
C2559 H2529 0.950 . S
C2559 C2554 1.363 . S
C2559 C2558 1.415 . S
H2560 C2557 0.999 . S
H2561 C2542 0.913 . S
H2562 C2580 0.951 . S
H2563 C2582 0.951 . S
H2564 C2584 0.950 . S
H2565 C2585 0.950 . S
H2566 C2587 0.950 . S
H2567 C2590 0.950 . S
H2568 C2591 0.950 . S
H2569 C2593 0.950 . S
H2570 C2594 0.950 . S
H2571 C2595 0.951 . S
H2572 C2597 0.951 . S
H2573 C2599 0.950 . S
H2574 C2600 0.950 . S
H2575 C2602 0.950 . S
H2576 C2605 0.950 . S
H2577 C2606 0.950 . S
H2578 C2608 0.950 . S
H2579 C2609 0.950 . S
C2580 H2562 0.951 . S
C2580 C2581 1.366 . S
C2580 C2582 1.388 . S
C2581 C2580 1.366 . S
C2581 C2585 1.385 . S
C2582 H2563 0.951 . S
C2582 C2580 1.388 . S
C2582 C2583 1.366 . S
C2583 C2582 1.366 . S
C2583 C2584 1.414 . S
C2583 C2586 1.499 . S
C2584 H2564 0.950 . S
C2584 C2583 1.414 . S
C2584 C2585 1.374 . S
C2585 H2565 0.950 . S
C2585 C2581 1.385 . S
C2585 C2584 1.374 . S
C2586 C2583 1.499 . S
C2586 C2587 1.373 . S
C2586 C2588 1.389 . S
C2587 H2566 0.950 . S
C2587 C2586 1.373 . S
C2587 C2603 1.377 . S
C2588 C2586 1.389 . S
C2588 C2589 1.524 . S
C2588 C2602 1.377 . S
C2589 C2588 1.524 . S
C2589 C2590 1.397 . S
C2589 C2594 1.363 . S
C2590 H2567 0.950 . S
C2590 C2589 1.397 . S
C2590 C2591 1.334 . S
C2591 H2568 0.950 . S
C2591 C2590 1.334 . S
C2591 C2592 1.287 . S
C2592 C2591 1.287 . S
C2592 C2593 1.524 . S
C2592 H2611 0.913 . S
C2593 H2569 0.950 . S
C2593 C2592 1.524 . S
C2593 C2594 1.415 . S
C2594 H2570 0.950 . S
C2594 C2589 1.363 . S
C2594 C2593 1.415 . S
C2595 H2571 0.951 . S
C2595 C2596 1.366 . S
C2595 C2597 1.388 . S
C2596 C2595 1.366 . S
C2596 C2600 1.385 . S
C2597 H2572 0.951 . S
C2597 C2595 1.388 . S
C2597 C2598 1.366 . S
C2598 C2597 1.366 . S
C2598 C2599 1.414 . S
C2598 C2601 1.499 . S
C2599 H2573 0.950 . S
C2599 C2598 1.414 . S
C2599 C2600 1.374 . S
C2600 H2574 0.950 . S
C2600 C2596 1.385 . S
C2600 C2599 1.374 . S
C2601 C2598 1.499 . S
C2601 C2602 1.373 . S
C2601 C2603 1.389 . S
C2602 H2575 0.950 . S
C2602 C2588 1.377 . S
C2602 C2601 1.373 . S
C2603 C2587 1.377 . S
C2603 C2601 1.389 . S
C2603 C2604 1.524 . S
C2604 C2603 1.524 . S
C2604 C2605 1.397 . S
C2604 C2609 1.363 . S
C2605 H2576 0.950 . S
C2605 C2604 1.397 . S
C2605 C2606 1.334 . S
C2606 H2577 0.950 . S
C2606 C2605 1.334 . S
C2606 C2607 1.287 . S
C2607 C2606 1.287 . S
C2607 C2608 1.524 . S
C2607 H2610 0.999 . S
C2608 H2578 0.950 . S
C2608 C2607 1.524 . S
C2608 C2609 1.415 . S
C2609 H2579 0.950 . S
C2609 C2604 1.363 . S
C2609 C2608 1.415 . S
H2610 C2607 0.999 . S
H2611 C2592 0.913 . S
H2612 C2630 0.951 . S
H2613 C2632 0.951 . S
H2614 C2634 0.950 . S
H2615 C2635 0.950 . S
H2616 C2637 0.950 . S
H2617 C2640 0.950 . S
H2618 C2641 0.950 . S
H2619 C2643 0.950 . S
H2620 C2644 0.950 . S
H2621 C2645 0.951 . S
H2622 C2647 0.951 . S
H2623 C2649 0.950 . S
H2624 C2650 0.950 . S
H2625 C2652 0.950 . S
H2626 C2655 0.950 . S
H2627 C2656 0.950 . S
H2628 C2658 0.950 . S
H2629 C2659 0.950 . S
C2630 H2612 0.951 . S
C2630 C2631 1.366 . S
C2630 C2632 1.388 . S
C2631 C2630 1.366 . S
C2631 C2635 1.385 . S
C2632 H2613 0.951 . S
C2632 C2630 1.388 . S
C2632 C2633 1.366 . S
C2633 C2632 1.366 . S
C2633 C2634 1.414 . S
C2633 C2636 1.499 . S
C2634 H2614 0.950 . S
C2634 C2633 1.414 . S
C2634 C2635 1.374 . S
C2635 H2615 0.950 . S
C2635 C2631 1.385 . S
C2635 C2634 1.374 . S
C2636 C2633 1.499 . S
C2636 C2637 1.373 . S
C2636 C2638 1.389 . S
C2637 H2616 0.950 . S
C2637 C2636 1.373 . S
C2637 C2653 1.377 . S
C2638 C2636 1.389 . S
C2638 C2639 1.524 . S
C2638 C2652 1.377 . S
C2639 C2638 1.524 . S
C2639 C2640 1.397 . S
C2639 C2644 1.363 . S
C2640 H2617 0.950 . S
C2640 C2639 1.397 . S
C2640 C2641 1.334 . S
C2641 H2618 0.950 . S
C2641 C2640 1.334 . S
C2641 C2642 1.287 . S
C2642 C2641 1.287 . S
C2642 C2643 1.524 . S
C2642 H2661 0.913 . S
C2643 H2619 0.950 . S
C2643 C2642 1.524 . S
C2643 C2644 1.415 . S
C2644 H2620 0.950 . S
C2644 C2639 1.363 . S
C2644 C2643 1.415 . S
C2645 H2621 0.951 . S
C2645 C2646 1.366 . S
C2645 C2647 1.388 . S
C2646 C2645 1.366 . S
C2646 C2650 1.385 . S
C2647 H2622 0.951 . S
C2647 C2645 1.388 . S
C2647 C2648 1.366 . S
C2648 C2647 1.366 . S
C2648 C2649 1.414 . S
C2648 C2651 1.499 . S
C2649 H2623 0.950 . S
C2649 C2648 1.414 . S
C2649 C2650 1.374 . S
C2650 H2624 0.950 . S
C2650 C2646 1.385 . S
C2650 C2649 1.374 . S
C2651 C2648 1.499 . S
C2651 C2652 1.373 . S
C2651 C2653 1.389 . S
C2652 H2625 0.950 . S
C2652 C2638 1.377 . S
C2652 C2651 1.373 . S
C2653 C2637 1.377 . S
C2653 C2651 1.389 . S
C2653 C2654 1.524 . S
C2654 C2653 1.524 . S
C2654 C2655 1.397 . S
C2654 C2659 1.363 . S
C2655 H2626 0.950 . S
C2655 C2654 1.397 . S
C2655 C2656 1.334 . S
C2656 H2627 0.950 . S
C2656 C2655 1.334 . S
C2656 C2657 1.287 . S
C2657 C2656 1.287 . S
C2657 C2658 1.524 . S
C2657 H2660 0.999 . S
C2658 H2628 0.950 . S
C2658 C2657 1.524 . S
C2658 C2659 1.415 . S
C2659 H2629 0.950 . S
C2659 C2654 1.363 . S
C2659 C2658 1.415 . S
H2660 C2657 0.999 . S
H2661 C2642 0.913 . S
H2662 C2680 0.951 . S
H2663 C2682 0.951 . S
H2664 C2684 0.950 . S
H2665 C2685 0.950 . S
H2666 C2687 0.950 . S
H2667 C2690 0.950 . S
H2668 C2691 0.950 . S
H2669 C2693 0.950 . S
H2670 C2694 0.950 . S
H2671 C2695 0.951 . S
H2672 C2697 0.951 . S
H2673 C2699 0.950 . S
H2674 C2700 0.950 . S
H2675 C2702 0.950 . S
H2676 C2705 0.950 . S
H2677 C2706 0.950 . S
H2678 C2708 0.950 . S
H2679 C2709 0.950 . S
C2680 H2662 0.951 . S
C2680 C2681 1.366 . S
C2680 C2682 1.388 . S
C2681 C2680 1.366 . S
C2681 C2685 1.385 . S
C2682 H2663 0.951 . S
C2682 C2680 1.388 . S
C2682 C2683 1.366 . S
C2683 C2682 1.366 . S
C2683 C2684 1.414 . S
C2683 C2686 1.499 . S
C2684 H2664 0.950 . S
C2684 C2683 1.414 . S
C2684 C2685 1.374 . S
C2685 H2665 0.950 . S
C2685 C2681 1.385 . S
C2685 C2684 1.374 . S
C2686 C2683 1.499 . S
C2686 C2687 1.373 . S
C2686 C2688 1.389 . S
C2687 H2666 0.950 . S
C2687 C2686 1.373 . S
C2687 C2703 1.377 . S
C2688 C2686 1.389 . S
C2688 C2689 1.524 . S
C2688 C2702 1.377 . S
C2689 C2688 1.524 . S
C2689 C2690 1.397 . S
C2689 C2694 1.363 . S
C2690 H2667 0.950 . S
C2690 C2689 1.397 . S
C2690 C2691 1.334 . S
C2691 H2668 0.950 . S
C2691 C2690 1.334 . S
C2691 C2692 1.287 . S
C2692 C2691 1.287 . S
C2692 C2693 1.524 . S
C2692 H2711 0.913 . S
C2693 H2669 0.950 . S
C2693 C2692 1.524 . S
C2693 C2694 1.415 . S
C2694 H2670 0.950 . S
C2694 C2689 1.363 . S
C2694 C2693 1.415 . S
C2695 H2671 0.951 . S
C2695 C2696 1.366 . S
C2695 C2697 1.388 . S
C2696 C2695 1.366 . S
C2696 C2700 1.385 . S
C2697 H2672 0.951 . S
C2697 C2695 1.388 . S
C2697 C2698 1.366 . S
C2698 C2697 1.366 . S
C2698 C2699 1.414 . S
C2698 C2701 1.499 . S
C2699 H2673 0.950 . S
C2699 C2698 1.414 . S
C2699 C2700 1.374 . S
C2700 H2674 0.950 . S
C2700 C2696 1.385 . S
C2700 C2699 1.374 . S
C2701 C2698 1.499 . S
C2701 C2702 1.373 . S
C2701 C2703 1.389 . S
C2702 H2675 0.950 . S
C2702 C2688 1.377 . S
C2702 C2701 1.373 . S
C2703 C2687 1.377 . S
C2703 C2701 1.389 . S
C2703 C2704 1.524 . S
C2704 C2703 1.524 . S
C2704 C2705 1.397 . S
C2704 C2709 1.363 . S
C2705 H2676 0.950 . S
C2705 C2704 1.397 . S
C2705 C2706 1.334 . S
C2706 H2677 0.950 . S
C2706 C2705 1.334 . S
C2706 C2707 1.287 . S
C2707 C2706 1.287 . S
C2707 C2708 1.524 . S
C2707 H2710 0.999 . S
C2708 H2678 0.950 . S
C2708 C2707 1.524 . S
C2708 C2709 1.415 . S
C2709 H2679 0.950 . S
C2709 C2704 1.363 . S
C2709 C2708 1.415 . S
H2710 C2707 0.999 . S
H2711 C2692 0.913 . S
H2712 C2730 0.951 . S
H2713 C2732 0.951 . S
H2714 C2734 0.950 . S
H2715 C2735 0.950 . S
H2716 C2737 0.950 . S
H2717 C2740 0.950 . S
H2718 C2741 0.950 . S
H2719 C2743 0.950 . S
H2720 C2744 0.950 . S
H2721 C2745 0.951 . S
H2722 C2747 0.951 . S
H2723 C2749 0.950 . S
H2724 C2750 0.950 . S
H2725 C2752 0.950 . S
H2726 C2755 0.950 . S
H2727 C2756 0.950 . S
H2728 C2758 0.950 . S
H2729 C2759 0.950 . S
C2730 H2712 0.951 . S
C2730 C2731 1.366 . S
C2730 C2732 1.388 . S
C2731 C2730 1.366 . S
C2731 C2735 1.385 . S
C2732 H2713 0.951 . S
C2732 C2730 1.388 . S
C2732 C2733 1.366 . S
C2733 C2732 1.366 . S
C2733 C2734 1.414 . S
C2733 C2736 1.499 . S
C2734 H2714 0.950 . S
C2734 C2733 1.414 . S
C2734 C2735 1.374 . S
C2735 H2715 0.950 . S
C2735 C2731 1.385 . S
C2735 C2734 1.374 . S
C2736 C2733 1.499 . S
C2736 C2737 1.373 . S
C2736 C2738 1.389 . S
C2737 H2716 0.950 . S
C2737 C2736 1.373 . S
C2737 C2753 1.377 . S
C2738 C2736 1.389 . S
C2738 C2739 1.524 . S
C2738 C2752 1.377 . S
C2739 C2738 1.524 . S
C2739 C2740 1.397 . S
C2739 C2744 1.363 . S
C2740 H2717 0.950 . S
C2740 C2739 1.397 . S
C2740 C2741 1.334 . S
C2741 H2718 0.950 . S
C2741 C2740 1.334 . S
C2741 C2742 1.287 . S
C2742 C2741 1.287 . S
C2742 C2743 1.524 . S
C2742 H2761 0.913 . S
C2743 H2719 0.950 . S
C2743 C2742 1.524 . S
C2743 C2744 1.415 . S
C2744 H2720 0.950 . S
C2744 C2739 1.363 . S
C2744 C2743 1.415 . S
C2745 H2721 0.951 . S
C2745 C2746 1.366 . S
C2745 C2747 1.388 . S
C2746 C2745 1.366 . S
C2746 C2750 1.385 . S
C2747 H2722 0.951 . S
C2747 C2745 1.388 . S
C2747 C2748 1.366 . S
C2748 C2747 1.366 . S
C2748 C2749 1.414 . S
C2748 C2751 1.499 . S
C2749 H2723 0.950 . S
C2749 C2748 1.414 . S
C2749 C2750 1.374 . S
C2750 H2724 0.950 . S
C2750 C2746 1.385 . S
C2750 C2749 1.374 . S
C2751 C2748 1.499 . S
C2751 C2752 1.373 . S
C2751 C2753 1.389 . S
C2752 H2725 0.950 . S
C2752 C2738 1.377 . S
C2752 C2751 1.373 . S
C2753 C2737 1.377 . S
C2753 C2751 1.389 . S
C2753 C2754 1.524 . S
C2754 C2753 1.524 . S
C2754 C2755 1.397 . S
C2754 C2759 1.363 . S
C2755 H2726 0.950 . S
C2755 C2754 1.397 . S
C2755 C2756 1.334 . S
C2756 H2727 0.950 . S
C2756 C2755 1.334 . S
C2756 C2757 1.287 . S
C2757 C2756 1.287 . S
C2757 C2758 1.524 . S
C2757 H2760 0.999 . S
C2758 H2728 0.950 . S
C2758 C2757 1.524 . S
C2758 C2759 1.415 . S
C2759 H2729 0.950 . S
C2759 C2754 1.363 . S
C2759 C2758 1.415 . S
H2760 C2757 0.999 . S
H2761 C2742 0.913 . S
H2762 C2780 0.951 . S
H2763 C2782 0.951 . S
H2764 C2784 0.950 . S
H2765 C2785 0.950 . S
H2766 C2787 0.950 . S
H2767 C2790 0.950 . S
H2768 C2791 0.950 . S
H2769 C2793 0.950 . S
H2770 C2794 0.950 . S
H2771 C2795 0.951 . S
H2772 C2797 0.951 . S
H2773 C2799 0.950 . S
H2774 C2800 0.950 . S
H2775 C2802 0.950 . S
H2776 C2805 0.950 . S
H2777 C2806 0.950 . S
H2778 C2808 0.950 . S
H2779 C2809 0.950 . S
C2780 H2762 0.951 . S
C2780 C2781 1.366 . S
C2780 C2782 1.388 . S
C2781 C2780 1.366 . S
C2781 C2785 1.385 . S
C2782 H2763 0.951 . S
C2782 C2780 1.388 . S
C2782 C2783 1.366 . S
C2783 C2782 1.366 . S
C2783 C2784 1.414 . S
C2783 C2786 1.499 . S
C2784 H2764 0.950 . S
C2784 C2783 1.414 . S
C2784 C2785 1.374 . S
C2785 H2765 0.950 . S
C2785 C2781 1.385 . S
C2785 C2784 1.374 . S
C2786 C2783 1.499 . S
C2786 C2787 1.373 . S
C2786 C2788 1.389 . S
C2787 H2766 0.950 . S
C2787 C2786 1.373 . S
C2787 C2803 1.377 . S
C2788 C2786 1.389 . S
C2788 C2789 1.524 . S
C2788 C2802 1.377 . S
C2789 C2788 1.524 . S
C2789 C2790 1.397 . S
C2789 C2794 1.363 . S
C2790 H2767 0.950 . S
C2790 C2789 1.397 . S
C2790 C2791 1.334 . S
C2791 H2768 0.950 . S
C2791 C2790 1.334 . S
C2791 C2792 1.287 . S
C2792 C2791 1.287 . S
C2792 C2793 1.524 . S
C2792 H2811 0.913 . S
C2793 H2769 0.950 . S
C2793 C2792 1.524 . S
C2793 C2794 1.415 . S
C2794 H2770 0.950 . S
C2794 C2789 1.363 . S
C2794 C2793 1.415 . S
C2795 H2771 0.951 . S
C2795 C2796 1.366 . S
C2795 C2797 1.388 . S
C2796 C2795 1.366 . S
C2796 C2800 1.385 . S
C2797 H2772 0.951 . S
C2797 C2795 1.388 . S
C2797 C2798 1.366 . S
C2798 C2797 1.366 . S
C2798 C2799 1.414 . S
C2798 C2801 1.499 . S
C2799 H2773 0.950 . S
C2799 C2798 1.414 . S
C2799 C2800 1.374 . S
C2800 H2774 0.950 . S
C2800 C2796 1.385 . S
C2800 C2799 1.374 . S
C2801 C2798 1.499 . S
C2801 C2802 1.373 . S
C2801 C2803 1.389 . S
C2802 H2775 0.950 . S
C2802 C2788 1.377 . S
C2802 C2801 1.373 . S
C2803 C2787 1.377 . S
C2803 C2801 1.389 . S
C2803 C2804 1.524 . S
C2804 C2803 1.524 . S
C2804 C2805 1.397 . S
C2804 C2809 1.363 . S
C2805 H2776 0.950 . S
C2805 C2804 1.397 . S
C2805 C2806 1.334 . S
C2806 H2777 0.950 . S
C2806 C2805 1.334 . S
C2806 C2807 1.287 . S
C2807 C2806 1.287 . S
C2807 C2808 1.524 . S
C2807 H2810 0.999 . S
C2808 H2778 0.950 . S
C2808 C2807 1.524 . S
C2808 C2809 1.415 . S
C2809 H2779 0.950 . S
C2809 C2804 1.363 . S
C2809 C2808 1.415 . S
H2810 C2807 0.999 . S
H2811 C2792 0.913 . S
H2812 C2830 0.951 . S
H2813 C2832 0.951 . S
H2814 C2834 0.950 . S
H2815 C2835 0.950 . S
H2816 C2837 0.950 . S
H2817 C2840 0.950 . S
H2818 C2841 0.950 . S
H2819 C2843 0.950 . S
H2820 C2844 0.950 . S
H2821 C2845 0.951 . S
H2822 C2847 0.951 . S
H2823 C2849 0.950 . S
H2824 C2850 0.950 . S
H2825 C2852 0.950 . S
H2826 C2855 0.950 . S
H2827 C2856 0.950 . S
H2828 C2858 0.950 . S
H2829 C2859 0.950 . S
C2830 H2812 0.951 . S
C2830 C2831 1.366 . S
C2830 C2832 1.388 . S
C2831 C2830 1.366 . S
C2831 C2835 1.385 . S
C2832 H2813 0.951 . S
C2832 C2830 1.388 . S
C2832 C2833 1.366 . S
C2833 C2832 1.366 . S
C2833 C2834 1.414 . S
C2833 C2836 1.499 . S
C2834 H2814 0.950 . S
C2834 C2833 1.414 . S
C2834 C2835 1.374 . S
C2835 H2815 0.950 . S
C2835 C2831 1.385 . S
C2835 C2834 1.374 . S
C2836 C2833 1.499 . S
C2836 C2837 1.373 . S
C2836 C2838 1.389 . S
C2837 H2816 0.950 . S
C2837 C2836 1.373 . S
C2837 C2853 1.377 . S
C2838 C2836 1.389 . S
C2838 C2839 1.524 . S
C2838 C2852 1.377 . S
C2839 C2838 1.524 . S
C2839 C2840 1.397 . S
C2839 C2844 1.363 . S
C2840 H2817 0.950 . S
C2840 C2839 1.397 . S
C2840 C2841 1.334 . S
C2841 H2818 0.950 . S
C2841 C2840 1.334 . S
C2841 C2842 1.287 . S
C2842 C2841 1.287 . S
C2842 C2843 1.524 . S
C2842 H2861 0.913 . S
C2843 H2819 0.950 . S
C2843 C2842 1.524 . S
C2843 C2844 1.415 . S
C2844 H2820 0.950 . S
C2844 C2839 1.363 . S
C2844 C2843 1.415 . S
C2845 H2821 0.951 . S
C2845 C2846 1.366 . S
C2845 C2847 1.388 . S
C2846 C2845 1.366 . S
C2846 C2850 1.385 . S
C2847 H2822 0.951 . S
C2847 C2845 1.388 . S
C2847 C2848 1.366 . S
C2848 C2847 1.366 . S
C2848 C2849 1.414 . S
C2848 C2851 1.499 . S
C2849 H2823 0.950 . S
C2849 C2848 1.414 . S
C2849 C2850 1.374 . S
C2850 H2824 0.950 . S
C2850 C2846 1.385 . S
C2850 C2849 1.374 . S
C2851 C2848 1.499 . S
C2851 C2852 1.373 . S
C2851 C2853 1.389 . S
C2852 H2825 0.950 . S
C2852 C2838 1.377 . S
C2852 C2851 1.373 . S
C2853 C2837 1.377 . S
C2853 C2851 1.389 . S
C2853 C2854 1.524 . S
C2854 C2853 1.524 . S
C2854 C2855 1.397 . S
C2854 C2859 1.363 . S
C2855 H2826 0.950 . S
C2855 C2854 1.397 . S
C2855 C2856 1.334 . S
C2856 H2827 0.950 . S
C2856 C2855 1.334 . S
C2856 C2857 1.287 . S
C2857 C2856 1.287 . S
C2857 C2858 1.524 . S
C2857 H2860 0.999 . S
C2858 H2828 0.950 . S
C2858 C2857 1.524 . S
C2858 C2859 1.415 . S
C2859 H2829 0.950 . S
C2859 C2854 1.363 . S
C2859 C2858 1.415 . S
H2860 C2857 0.999 . S
H2861 C2842 0.913 . S
C631 C5 1.317 . S
C646 C271 1.334 . S
C681 C39 1.317 . S
C696 C305 1.334 . S
C731 C73 1.317 . S
C746 C237 1.334 . S
C781 C577 1.333 . S
C796 C107 1.317 . S
C831 C141 1.317 . S
C846 C611 1.334 . S
C881 C175 1.317 . S
C896 C543 1.334 . S
C931 C209 1.317 . S
C946 C475 1.333 . S
C981 C509 1.334 . S
C996 C243 1.317 . S
C1031 C441 1.334 . S
C1046 C277 1.318 . S
C1081 C311 1.317 . S
C1096 C169 1.333 . S
C1131 C345 1.317 . S
C1146 C203 1.334 . S
C1181 C379 1.317 . S
C1196 C135 1.334 . S
C1231 C413 1.317 . S
C1246 C67 1.334 . S
C1281 C447 1.317 . S
C1296 C101 1.334 . S
C1331 C33 1.334 . S
C1346 C481 1.318 . S
C1381 C373 1.334 . S
C1396 C515 1.317 . S
C1431 C549 1.317 . S
C1446 C407 1.334 . S
C1481 C583 1.318 . S
C1496 C339 1.334 . S
C1531 C530 1.619 . S
C1546 C20 1.619 . S
C1581 C564 1.619 . S
C1596 C54 1.619 . S
C1631 C88 1.618 . S
C1646 C598 1.618 . S
C1681 C122 1.618 . S
C1696 C224 1.618 . S
C1731 C156 1.619 . S
C1746 C258 1.619 . S
C1781 C292 1.618 . S
C1796 C190 1.618 . S
C1831 C326 1.618 . S
C1846 C428 1.618 . S
C1881 C462 1.619 . S
C1896 C360 1.619 . S
C1931 C496 1.618 . S
C1946 C394 1.618 . S
C1981 C2 1.462 . S
C1996 C145 1.419 . S
C2031 C179 1.420 . S
C2046 C36 1.462 . S
C2081 C70 1.461 . S
C2096 C111 1.420 . S
C2131 C43 1.419 . S
C2146 C104 1.462 . S
C2181 C138 1.462 . S
C2196 C77 1.419 . S
C2231 C9 1.419 . S
C2246 C172 1.461 . S
C2281 C206 1.461 . S
C2296 C349 1.420 . S
C2331 C383 1.420 . S
C2346 C240 1.462 . S
C2381 C315 1.420 . S
C2396 C274 1.461 . S
C2431 C308 1.462 . S
C2446 C247 1.419 . S
C2481 C281 1.421 . S
C2496 C342 1.461 . S
C2531 C376 1.461 . S
C2546 C213 1.420 . S
C2581 C553 1.419 . S
C2596 C410 1.461 . S
C2631 C587 1.419 . S
C2646 C444 1.462 . S
C2681 C519 1.419 . S
C2696 C478 1.462 . S
C2731 C451 1.419 . S
C2746 C512 1.461 . S
C2781 C485 1.421 . S
C2796 C546 1.461 . S
C2831 C580 1.461 . S
C2846 C417 1.420 . S
