# Generated by pormake.
# Topology qtz-e, (6)-cn, num edge types: 1
# Building blocks:
#     Node 0, Type 0, BuildingBlock: INOVEN_clean_sbu_0, # of connection points: 6
#     Node 1, Type 0, BuildingBlock: INOVEN_clean_sbu_0, # of connection points: 6
#     Node 2, Type 0, BuildingBlock: INOVEN_clean_sbu_0, # of connection points: 6
#     Node 3, Type 0, BuildingBlock: INOVEN_clean_sbu_0, # of connection points: 6
#     Node 4, Type 0, BuildingBlock: INOVEN_clean_sbu_0, # of connection points: 6
#     Node 5, Type 0, BuildingBlock: INOVEN_clean_sbu_0, # of connection points: 6
#     Edge 6, Type (0, 0), None
#     Edge 7, Type (0, 0), None
#     Edge 8, Type (0, 0), None
#     Edge 9, Type (0, 0), None
#     Edge 10, Type (0, 0), None
#     Edge 11, Type (0, 0), None
#     Edge 12, Type (0, 0), None
#     Edge 13, Type (0, 0), None
#     Edge 14, Type (0, 0), None
#     Edge 15, Type (0, 0), None
#     Edge 16, Type (0, 0), None
#     Edge 17, Type (0, 0), None
#     Edge 18, Type (0, 0), None
#     Edge 19, Type (0, 0), None
#     Edge 20, Type (0, 0), None
#     Edge 21, Type (0, 0), None
#     Edge 22, Type (0, 0), None
#     Edge 23, Type (0, 0), None
# Relax obj value: 0.085
# Max RMSD: 0.193
# Mean RMSD: 0.193
data_MOF--net-qtz-e--node1-INOVEN_clean_sbu_0--edge1-none
_symmetry_space_group_name_H-M    P1
_symmetry_Int_Tables_number       1
_symmetry_cell_setting            triclinic
loop_
_symmetry_equiv_pos_as_xyz
'x, y, z'
_cell_length_a     12.193245
_cell_length_b     12.192619
_cell_length_c     29.98124
_cell_angle_alpha  89.993582
_cell_angle_beta   90.005807
_cell_angle_gamma 120.00079
loop_
_atom_site_label
_atom_site_type_symbol
_atom_site_fract_x
_atom_site_fract_y
_atom_site_fract_z
_atom_type_partial_charge
Gd0 Gd 0.30015 0.61225 0.13896 0.0
Gd1 Gd 0.19983 0.3692 0.09302 0.0
C2 C 0.16097 0.3608 0.19945 0.0
C3 C 0.36128 0.81345 0.18228 0.0
C4 C 0.34662 0.80357 0.23139 0.0
C5 C 0.45185 0.83841 0.25946 0.0
C6 C 0.22453 0.72932 0.2492 0.0
C7 C 0.31191 0.71869 0.32082 0.0
C8 C 0.20764 0.68619 0.29279 0.0
C9 C 0.43461 0.79694 0.304 0.0
C10 C 0.4591 0.51976 0.14117 0.0
C11 C 0.3322 0.60256 1.03536 0.0
C12 C 0.15118 0.17864 1.04235 0.0
C13 C 0.20218 0.17505 0.9974 0.0
C14 C 0.12815 0.15457 0.95881 0.0
C15 C 0.32772 0.20165 0.99203 0.0
C16 C 0.30495 0.19159 0.91088 0.0
C17 C 0.37837 0.21044 0.94937 0.0
C18 C 0.17827 0.16084 0.91605 0.0
C19 C 0.0454 0.47173 0.09377 0.0
O20 O 0.19543 0.48195 0.19605 0.0
O21 O 0.16081 0.29471 0.16424 0.0
O22 O 0.4479 0.79069 0.16644 0.0
O23 O 0.25573 0.75647 0.15926 0.0
O24 O 0.43238 0.5661 0.17532 0.0
O25 O 0.39797 0.51955 0.10722 0.0
O26 O 0.35048 0.51195 1.04976 0.0
O27 O 0.29877 0.65973 0.0652 0.0
O28 O 0.08015 0.23073 1.04369 0.0
O29 O 0.22833 0.21115 0.0766 0.0
O30 O 0.06822 0.42505 1.05867 0.0
O31 O 0.1056 0.46373 0.1263 0.0
H32 H 0.54722 0.89386 0.24652 0.0
H33 H 0.14072 0.69802 0.22883 0.0
H34 H 0.11145 0.62726 0.30461 0.0
H35 H 0.51667 0.82676 0.32519 0.0
H36 H 0.03175 0.1359 0.96167 0.0
H37 H 0.38828 0.21889 1.0207 0.0
H38 H 0.47585 0.23262 0.94647 0.0
H39 H 0.11956 0.14672 0.88708 0.0
Gd40 Gd 0.69598 0.29613 0.47229 0.0
Gd41 Gd 0.83867 0.19579 0.42635 0.0
C42 C 0.8082 0.15691 0.53278 0.0
C43 C 0.55593 0.35728 0.51561 0.0
C44 C 0.55114 0.3426 0.56473 0.0
C45 C 0.62154 0.44783 0.5928 0.0
C46 C 0.50328 0.2205 0.58253 0.0
C47 C 0.60129 0.30785 0.65415 0.0
C48 C 0.52952 0.20359 0.62613 0.0
C49 C 0.64577 0.43058 0.63733 0.0
C50 C 0.94741 0.45506 0.4745 0.0
C51 C 0.73773 0.32822 0.36869 0.0
C52 C 0.98054 0.14712 0.37568 0.0
C53 C 0.03514 0.19811 0.33072 0.0
C54 C 0.98158 0.12408 0.29214 0.0
C55 C 0.1341 0.32366 0.32535 0.0
C56 C 0.12138 0.30089 0.2442 0.0
C57 C 0.17597 0.37431 0.28269 0.0
C58 C 0.02545 0.17421 0.24937 0.0
C59 C 0.58171 0.04139 0.4271 0.0
O60 O 0.72153 0.19138 0.52938 0.0
O61 O 0.87412 0.15675 0.49756 0.0
O62 O 0.66532 0.4439 0.49978 0.0
O63 O 0.50734 0.25173 0.4926 0.0
O64 O 0.87436 0.42834 0.50865 0.0
O65 O 0.88649 0.39395 0.44055 0.0
O66 O 0.84661 0.34649 0.38309 0.0
O67 O 0.64712 0.29478 0.39854 0.0
O68 O 0.85742 0.07611 0.37702 0.0
O69 O 0.02519 0.22427 0.40993 0.0
O70 O 0.6512 0.06422 0.392 0.0
O71 O 0.6499 0.10157 0.45963 0.0
H72 H 0.66148 0.54321 0.57985 0.0
H73 H 0.45077 0.13669 0.56217 0.0
H74 H 0.49225 0.10739 0.63795 0.0
H75 H 0.69801 0.51263 0.65853 0.0
H76 H 0.90384 0.02768 0.295 0.0
H77 H 0.17742 0.38421 0.35401 0.0
H78 H 0.25128 0.47178 0.27978 0.0
H79 H 0.98084 0.11549 0.22041 0.0
Gd80 Gd 0.40789 0.69185 0.80563 0.0
Gd81 Gd 0.65094 0.83459 0.75969 0.0
C82 C 0.65932 0.8041 0.86612 0.0
C83 C 0.20669 0.55176 0.84894 0.0
C84 C 0.21656 0.54698 0.89806 0.0
C85 C 0.1818 0.61745 0.92612 0.0
C86 C 0.29075 0.49907 0.91588 0.0
C87 C 0.30149 0.59719 0.98747 0.0
C88 C 0.33391 0.52534 0.95947 0.0
C89 C 0.2233 0.64171 0.97065 0.0
C90 C 0.50039 0.94329 0.80783 0.0
C91 C 0.41759 0.73365 0.70203 0.0
C92 C 0.84149 0.9765 0.70901 0.0
C93 C 0.84509 0.0311 0.66406 0.0
C94 C 0.86555 0.97753 0.62547 0.0
C95 C 0.81851 0.13006 0.65868 0.0
C96 C 0.82853 0.11732 0.57753 0.0
C97 C 0.80971 0.17192 0.61602 0.0
C98 C 0.85928 0.0214 0.58271 0.0
C99 C 0.54839 0.57762 0.76044 0.0
O100 O 0.53818 0.71741 0.86272 0.0
O101 O 0.72541 0.87003 0.8309 0.0
O102 O 0.22944 0.66114 0.8331 0.0
O103 O 0.26369 0.5032 0.82594 0.0
O104 O 0.45404 0.87022 0.84199 0.0
O105 O 0.5006 0.88239 0.77389 0.0
O106 O 0.50819 0.84253 0.71643 0.0
O107 O 0.36041 0.64302 0.73187 0.0
O108 O 0.7894 0.85338 0.71037 0.0
O109 O 0.80897 0.02114 0.74326 0.0
O110 O 0.59506 0.64714 0.72534 0.0
O111 O 0.55639 0.6458 0.79296 0.0
H112 H 0.1264 0.65743 0.91317 0.0
H113 H 0.32199 0.44651 0.89553 0.0
H114 H 0.3928 0.48804 0.9713 0.0
H115 H 0.19356 0.69403 0.99183 0.0
H116 H 0.88422 0.8998 0.62834 0.0
H117 H 0.80129 0.17339 0.68734 0.0
H118 H 0.78756 0.24724 0.61311 0.0
H119 H 0.87338 0.97678 0.55374 0.0
Gd120 Gd 0.72411 0.40387 0.13898 0.0
Gd121 Gd 0.82441 0.64692 0.09303 0.0
C122 C 0.86329 0.6553 0.19946 0.0
C123 C 0.66298 0.20264 0.18229 0.0
C124 C 0.67763 0.2125 0.23141 0.0
C125 C 0.57241 0.17776 0.25947 0.0
C126 C 0.79973 0.28669 0.24922 0.0
C127 C 0.71238 0.29748 0.32081 0.0
C128 C 0.81664 0.32987 0.29281 0.0
C129 C 0.58966 0.21929 0.304 0.0
C130 C 0.56508 0.49622 0.14116 0.0
C131 C 0.69204 0.41356 1.03537 0.0
C132 C 0.87301 0.83747 1.04236 0.0
C133 C 0.82201 0.84104 0.9974 0.0
C134 C 0.89604 0.86149 0.95881 0.0
C135 C 0.69647 0.81444 0.99202 0.0
C136 C 0.71923 0.82443 0.91087 0.0
C137 C 0.64581 0.80561 0.94936 0.0
C138 C 0.84591 0.8552 0.91605 0.0
C139 C 0.97876 0.54432 0.09377 0.0
O140 O 0.82884 0.53415 0.19607 0.0
O141 O 0.86343 0.72138 0.16425 0.0
O142 O 0.57636 0.2254 0.16645 0.0
O143 O 0.76854 0.25964 0.15929 0.0
O144 O 0.59193 0.45004 0.17534 0.0
O145 O 0.62625 0.49652 0.10722 0.0
O146 O 0.67376 0.50417 1.04976 0.0
O147 O 0.72547 0.35638 0.06522 0.0
O148 O 0.94408 0.78543 1.04372 0.0
O149 O 0.79585 0.80493 0.0766 0.0
O150 O 0.95604 0.59112 1.05868 0.0
O151 O 0.91864 0.55236 0.1263 0.0
H152 H 0.47704 0.12237 0.24652 0.0
H153 H 0.88354 0.31792 0.22887 0.0
H154 H 0.91284 0.38877 0.30463 0.0
H155 H 0.50761 0.18956 0.32518 0.0
H156 H 0.99244 0.88016 0.96168 0.0
H157 H 0.63592 0.79722 1.02068 0.0
H158 H 0.54834 0.78345 0.94645 0.0
H159 H 0.90462 0.86929 0.88708 0.0
Gd160 Gd 0.32832 0.72009 0.4723 0.0
Gd161 Gd 0.18552 0.82039 0.42637 0.0
C162 C 0.21604 0.85923 0.5328 0.0
C163 C 0.46844 0.659 0.51562 0.0
C164 C 0.47322 0.67363 0.56474 0.0
C165 C 0.40275 0.56839 0.5928 0.0
C166 C 0.5211 0.79573 0.58255 0.0
C167 C 0.42297 0.70833 0.65415 0.0
C168 C 0.49483 0.81261 0.62614 0.0
C169 C 0.37847 0.58561 0.63733 0.0
C170 C 0.07695 0.56104 0.47449 0.0
C171 C 0.28655 0.6881 0.3687 0.0
C172 C 0.04355 0.86897 0.3757 0.0
C173 C 0.989 0.81798 0.33074 0.0
C174 C 0.0426 0.89201 0.29216 0.0
C175 C 0.89005 0.69243 0.32536 0.0
C176 C 0.90286 0.7152 0.24421 0.0
C177 C 0.84824 0.64177 0.2827 0.0
C178 C 0.99878 0.84188 0.24939 0.0
C179 C 0.44248 0.97477 0.4271 0.0
O180 O 0.30274 0.82479 0.52939 0.0
O181 O 0.15008 0.85936 0.49758 0.0
O182 O 0.35907 0.57235 0.49978 0.0
O183 O 0.51698 0.76456 0.49262 0.0
O184 O 0.14997 0.58785 0.50867 0.0
O185 O 0.13781 0.62224 0.44055 0.0
O186 O 0.17765 0.66982 0.38307 0.0
O187 O 0.37717 0.72147 0.39855 0.0
O188 O 0.16666 0.94009 0.37706 0.0
O189 O 0.99894 0.79178 0.40995 0.0
O190 O 0.37296 0.95208 0.39201 0.0
O191 O 0.37431 0.91462 0.45963 0.0
H192 H 0.36279 0.47301 0.57985 0.0
H193 H 0.57366 0.87954 0.5622 0.0
H194 H 0.53211 0.9088 0.63796 0.0
H195 H 0.32616 0.50355 0.65851 0.0
H196 H 0.12033 0.98842 0.29502 0.0
H197 H 0.8467 0.63187 0.35403 0.0
H198 H 0.77293 0.5443 0.27979 0.0
H199 H 0.04341 0.9006 0.22042 0.0
Gd200 Gd 0.61628 0.32422 0.80564 0.0
Gd201 Gd 0.37319 0.18142 0.7597 0.0
C202 C 0.36485 0.21192 0.86613 0.0
C203 C 0.81747 0.46434 0.84896 0.0
C204 C 0.80761 0.46913 0.89808 0.0
C205 C 0.84243 0.3987 0.92614 0.0
C206 C 0.73337 0.51698 0.91588 0.0
C207 C 0.72271 0.41891 0.98749 0.0
C208 C 0.69023 0.49071 0.95948 0.0
C209 C 0.80095 0.37444 0.97068 0.0
C210 C 0.52395 0.07284 0.80783 0.0
C211 C 0.60653 0.28248 0.70204 0.0
C212 C 0.18264 0.03945 0.70904 0.0
C213 C 0.17909 0.98491 0.66408 0.0
C214 C 0.15864 0.03851 0.62549 0.0
C215 C 0.2057 0.88597 0.6587 0.0
C216 C 0.19571 0.89878 0.57755 0.0
C217 C 0.21453 0.84416 0.61604 0.0
C218 C 0.16494 0.99469 0.58272 0.0
C219 C 0.47577 0.43839 0.76044 0.0
O220 O 0.48599 0.29863 0.86273 0.0
O221 O 0.29876 0.14596 0.83092 0.0
O222 O 0.79474 0.35497 0.83313 0.0
O223 O 0.76047 0.51289 0.82595 0.0
O224 O 0.57016 0.14585 0.842 0.0
O225 O 0.52362 0.13371 0.77389 0.0
O226 O 0.51589 0.17357 0.71641 0.0
O227 O 0.66376 0.37309 0.73188 0.0
O228 O 0.23464 0.16256 0.7104 0.0
O229 O 0.21522 0.99483 0.74328 0.0
O230 O 0.42895 0.36887 0.72535 0.0
O231 O 0.46775 0.37021 0.79297 0.0
H232 H 0.89786 0.35877 0.9132 0.0
H233 H 0.70208 0.5695 0.89552 0.0
H234 H 0.6313 0.52797 0.9713 0.0
H235 H 0.83074 0.32217 0.99186 0.0
H236 H 0.13995 0.11623 0.62835 0.0
H237 H 0.22292 0.84262 0.68736 0.0
H238 H 0.2367 0.76886 0.61313 0.0
H239 H 0.15084 0.03932 0.55376 0.0
loop_
_geom_bond_atom_site_label_1
_geom_bond_atom_site_label_2
_geom_bond_distance
_geom_bond_site_symmetry_2
_ccdc_geom_bond_type
Gd0 C3 2.818 . S
Gd0 O20 2.377 . S
Gd0 O22 2.448 . S
Gd0 O23 2.506 . S
Gd0 O24 2.435 . S
Gd0 O25 2.717 . S
Gd0 O27 2.395 . S
Gd0 O31 2.327 . S
Gd1 C12 2.818 1_554 S
Gd1 O21 2.395 . S
Gd1 O25 2.327 . S
Gd1 O26 2.377 1_554 S
Gd1 O28 2.448 1_554 S
Gd1 O29 2.506 1_554 S
Gd1 O30 2.435 1_455 S
Gd1 O31 2.717 . S
C2 O20 1.240 . S
C2 O21 1.240 . S
C3 Gd0 2.818 . S
C3 C4 1.510 . S
C3 O22 1.249 . S
C3 O23 1.252 . S
C4 C3 1.510 . S
C4 C5 1.404 . S
C4 C6 1.352 . S
C5 C4 1.404 . S
C5 C9 1.389 . S
C5 H32 0.930 . S
C6 C4 1.352 . S
C6 C8 1.374 . S
C6 H33 0.931 . S
C7 C8 1.359 . S
C7 C9 1.364 . S
C8 C6 1.374 . S
C8 C7 1.359 . S
C8 H34 0.931 . S
C9 C5 1.389 . S
C9 C7 1.364 . S
C9 H35 0.931 . S
C10 O24 1.256 . S
C10 O25 1.257 . S
C11 O26 1.240 . S
C11 O27 1.240 1_556 S
C12 Gd1 2.818 1_556 S
C12 C13 1.510 . S
C12 O28 1.249 . S
C12 O29 1.252 . S
C13 C12 1.510 . S
C13 C14 1.404 . S
C13 C15 1.352 . S
C14 C13 1.404 . S
C14 C18 1.389 . S
C14 H36 0.930 1_455 S
C15 C13 1.352 . S
C15 C17 1.374 . S
C15 H37 0.931 . S
C16 C17 1.359 . S
C16 C18 1.364 . S
C17 C15 1.374 . S
C17 C16 1.359 . S
C17 H38 0.931 . S
C18 C14 1.389 . S
C18 C16 1.364 . S
C18 H39 0.931 1_445 S
C19 O30 1.256 . S
C19 O31 1.257 1_655 S
O20 Gd0 2.377 . S
O20 C2 1.240 . S
O21 Gd1 2.395 . S
O21 C2 1.240 . S
O22 Gd0 2.448 . S
O22 C3 1.249 . S
O23 Gd0 2.506 . S
O23 C3 1.252 . S
O24 Gd0 2.435 . S
O24 C10 1.256 . S
O25 Gd0 2.717 . S
O25 Gd1 2.327 . S
O25 C10 1.257 . S
O26 Gd1 2.377 1_556 S
O26 C11 1.240 . S
O27 Gd0 2.395 . S
O27 C11 1.240 1_554 S
O28 Gd1 2.448 1_556 S
O28 C12 1.249 . S
O29 Gd1 2.506 1_556 S
O29 C12 1.252 . S
O30 Gd1 2.435 1_655 S
O30 C19 1.256 . S
O31 Gd0 2.327 . S
O31 Gd1 2.717 . S
O31 C19 1.257 1_455 S
H32 C5 0.930 . S
H33 C6 0.931 . S
H34 C8 0.931 . S
H35 C9 0.931 . S
H36 C14 0.930 1_655 S
H37 C15 0.931 . S
H38 C17 0.931 . S
H39 C18 0.931 1_665 S
Gd40 C43 2.818 . S
Gd40 O60 2.377 . S
Gd40 O62 2.448 . S
Gd40 O63 2.506 . S
Gd40 O64 2.435 . S
Gd40 O65 2.717 . S
Gd40 O67 2.395 . S
Gd40 O71 2.327 . S
Gd41 C52 2.818 . S
Gd41 O61 2.395 . S
Gd41 O65 2.327 . S
Gd41 O66 2.377 . S
Gd41 O68 2.448 . S
Gd41 O69 2.506 1_655 S
Gd41 O70 2.435 1_545 S
Gd41 O71 2.717 . S
C42 O60 1.240 . S
C42 O61 1.240 . S
C43 Gd40 2.818 . S
C43 C44 1.510 . S
C43 O62 1.249 . S
C43 O63 1.252 . S
C44 C43 1.510 . S
C44 C45 1.404 . S
C44 C46 1.352 . S
C45 C44 1.404 . S
C45 C49 1.389 . S
C45 H72 0.930 . S
C46 C44 1.352 . S
C46 C48 1.374 . S
C46 H73 0.931 . S
C47 C48 1.359 . S
C47 C49 1.364 . S
C48 C46 1.374 . S
C48 C47 1.359 . S
C48 H74 0.931 . S
C49 C45 1.389 . S
C49 C47 1.364 . S
C49 H75 0.931 . S
C50 O64 1.256 . S
C50 O65 1.257 . S
C51 O66 1.240 . S
C51 O67 1.240 . S
C52 Gd41 2.818 . S
C52 C53 1.510 1_655 S
C52 O68 1.249 . S
C52 O69 1.252 1_655 S
C53 C52 1.510 1_455 S
C53 C54 1.404 1_455 S
C53 C55 1.352 . S
C54 C53 1.404 1_655 S
C54 C58 1.389 1_655 S
C54 H76 0.930 1_545 S
C55 C53 1.352 . S
C55 C57 1.374 . S
C55 H77 0.931 . S
C56 C57 1.359 . S
C56 C58 1.364 . S
C57 C55 1.374 . S
C57 C56 1.359 . S
C57 H78 0.931 . S
C58 C54 1.389 1_455 S
C58 C56 1.364 . S
C58 H79 0.931 1_545 S
C59 O70 1.256 . S
C59 O71 1.257 1_565 S
O60 Gd40 2.377 . S
O60 C42 1.240 . S
O61 Gd41 2.395 . S
O61 C42 1.240 . S
O62 Gd40 2.448 . S
O62 C43 1.249 . S
O63 Gd40 2.506 . S
O63 C43 1.252 . S
O64 Gd40 2.435 . S
O64 C50 1.256 . S
O65 Gd40 2.717 . S
O65 Gd41 2.327 . S
O65 C50 1.257 . S
O66 Gd41 2.377 . S
O66 C51 1.240 . S
O67 Gd40 2.395 . S
O67 C51 1.240 . S
O68 Gd41 2.448 . S
O68 C52 1.249 . S
O69 Gd41 2.506 1_455 S
O69 C52 1.252 1_455 S
O70 Gd41 2.435 1_565 S
O70 C59 1.256 . S
O71 Gd40 2.327 . S
O71 Gd41 2.717 . S
O71 C59 1.257 1_545 S
H72 C45 0.930 . S
H73 C46 0.931 . S
H74 C48 0.931 . S
H75 C49 0.931 . S
H76 C54 0.930 1_565 S
H77 C55 0.931 . S
H78 C57 0.931 . S
H79 C58 0.931 1_565 S
Gd80 C83 2.818 . S
Gd80 O100 2.377 . S
Gd80 O102 2.448 . S
Gd80 O103 2.506 . S
Gd80 O104 2.435 . S
Gd80 O105 2.717 . S
Gd80 O107 2.395 . S
Gd80 O111 2.327 . S
Gd81 C92 2.818 . S
Gd81 O101 2.395 . S
Gd81 O105 2.327 . S
Gd81 O106 2.377 . S
Gd81 O108 2.448 . S
Gd81 O109 2.506 1_565 S
Gd81 O110 2.435 . S
Gd81 O111 2.717 . S
C82 O100 1.240 . S
C82 O101 1.240 . S
C83 Gd80 2.818 . S
C83 C84 1.510 . S
C83 O102 1.249 . S
C83 O103 1.252 . S
C84 C83 1.510 . S
C84 C85 1.404 . S
C84 C86 1.352 . S
C85 C84 1.404 . S
C85 C89 1.389 . S
C85 H112 0.930 . S
C86 C84 1.352 . S
C86 C88 1.374 . S
C86 H113 0.931 . S
C87 C88 1.359 . S
C87 C89 1.364 . S
C88 C86 1.374 . S
C88 C87 1.359 . S
C88 H114 0.931 . S
C89 C85 1.389 . S
C89 C87 1.364 . S
C89 H115 0.931 . S
C90 O104 1.256 . S
C90 O105 1.257 . S
C91 O106 1.240 . S
C91 O107 1.240 . S
C92 Gd81 2.818 . S
C92 C93 1.510 1_565 S
C92 O108 1.249 . S
C92 O109 1.252 1_565 S
C93 C92 1.510 1_545 S
C93 C94 1.404 1_545 S
C93 C95 1.352 . S
C94 C93 1.404 1_565 S
C94 C98 1.389 1_565 S
C94 H116 0.930 . S
C95 C93 1.352 . S
C95 C97 1.374 . S
C95 H117 0.931 . S
C96 C97 1.359 . S
C96 C98 1.364 . S
C97 C95 1.374 . S
C97 C96 1.359 . S
C97 H118 0.931 . S
C98 C94 1.389 1_545 S
C98 C96 1.364 . S
C98 H119 0.931 1_655 S
C99 O110 1.256 . S
C99 O111 1.257 . S
O100 Gd80 2.377 . S
O100 C82 1.240 . S
O101 Gd81 2.395 . S
O101 C82 1.240 . S
O102 Gd80 2.448 . S
O102 C83 1.249 . S
O103 Gd80 2.506 . S
O103 C83 1.252 . S
O104 Gd80 2.435 . S
O104 C90 1.256 . S
O105 Gd80 2.717 . S
O105 Gd81 2.327 . S
O105 C90 1.257 . S
O106 Gd81 2.377 . S
O106 C91 1.240 . S
O107 Gd80 2.395 . S
O107 C91 1.240 . S
O108 Gd81 2.448 . S
O108 C92 1.249 . S
O109 Gd81 2.506 1_545 S
O109 C92 1.252 1_545 S
O110 Gd81 2.435 . S
O110 C99 1.256 . S
O111 Gd80 2.327 . S
O111 Gd81 2.717 . S
O111 C99 1.257 . S
H112 C85 0.930 . S
H113 C86 0.931 . S
H114 C88 0.931 . S
H115 C89 0.931 . S
H116 C94 0.930 . S
H117 C95 0.931 . S
H118 C97 0.931 . S
H119 C98 0.931 1_455 S
Gd120 C123 2.818 . S
Gd120 O140 2.377 . S
Gd120 O142 2.448 . S
Gd120 O143 2.506 . S
Gd120 O144 2.435 . S
Gd120 O145 2.717 . S
Gd120 O147 2.395 . S
Gd120 O151 2.327 . S
Gd121 C132 2.818 1_554 S
Gd121 O141 2.395 . S
Gd121 O145 2.327 . S
Gd121 O146 2.377 1_554 S
Gd121 O148 2.448 1_554 S
Gd121 O149 2.506 1_554 S
Gd121 O150 2.435 1_655 S
Gd121 O151 2.717 . S
C122 O140 1.240 . S
C122 O141 1.240 . S
C123 Gd120 2.818 . S
C123 C124 1.510 . S
C123 O142 1.249 . S
C123 O143 1.252 . S
C124 C123 1.510 . S
C124 C125 1.404 . S
C124 C126 1.352 . S
C125 C124 1.404 . S
C125 C129 1.389 . S
C125 H152 0.930 . S
C126 C124 1.352 . S
C126 C128 1.374 . S
C126 H153 0.931 . S
C127 C128 1.359 . S
C127 C129 1.364 . S
C128 C126 1.374 . S
C128 C127 1.359 . S
C128 H154 0.931 . S
C129 C125 1.389 . S
C129 C127 1.364 . S
C129 H155 0.931 . S
C130 O144 1.256 . S
C130 O145 1.257 . S
C131 O146 1.240 . S
C131 O147 1.240 1_556 S
C132 Gd121 2.818 1_556 S
C132 C133 1.510 . S
C132 O148 1.249 . S
C132 O149 1.252 . S
C133 C132 1.510 . S
C133 C134 1.404 . S
C133 C135 1.352 . S
C134 C133 1.404 . S
C134 C138 1.389 . S
C134 H156 0.930 1_655 S
C135 C133 1.352 . S
C135 C137 1.374 . S
C135 H157 0.931 . S
C136 C137 1.359 . S
C136 C138 1.364 . S
C137 C135 1.374 . S
C137 C136 1.359 . S
C137 H158 0.931 . S
C138 C134 1.389 . S
C138 C136 1.364 . S
C138 H159 0.931 1_665 S
C139 O150 1.256 . S
C139 O151 1.257 1_455 S
O140 Gd120 2.377 . S
O140 C122 1.240 . S
O141 Gd121 2.395 . S
O141 C122 1.240 . S
O142 Gd120 2.448 . S
O142 C123 1.249 . S
O143 Gd120 2.506 . S
O143 C123 1.252 . S
O144 Gd120 2.435 . S
O144 C130 1.256 . S
O145 Gd120 2.717 . S
O145 Gd121 2.327 . S
O145 C130 1.257 . S
O146 Gd121 2.377 1_556 S
O146 C131 1.240 . S
O147 Gd120 2.395 . S
O147 C131 1.240 1_554 S
O148 Gd121 2.448 1_556 S
O148 C132 1.249 . S
O149 Gd121 2.506 1_556 S
O149 C132 1.252 . S
O150 Gd121 2.435 1_455 S
O150 C139 1.256 . S
O151 Gd120 2.327 . S
O151 Gd121 2.717 . S
O151 C139 1.257 1_655 S
H152 C125 0.930 . S
H153 C126 0.931 . S
H154 C128 0.931 . S
H155 C129 0.931 . S
H156 C134 0.930 1_455 S
H157 C135 0.931 . S
H158 C137 0.931 . S
H159 C138 0.931 1_445 S
Gd160 C163 2.818 . S
Gd160 O180 2.377 . S
Gd160 O182 2.448 . S
Gd160 O183 2.506 . S
Gd160 O184 2.435 . S
Gd160 O185 2.717 . S
Gd160 O187 2.395 . S
Gd160 O191 2.327 . S
Gd161 C172 2.818 . S
Gd161 O181 2.395 . S
Gd161 O185 2.327 . S
Gd161 O186 2.377 . S
Gd161 O188 2.448 . S
Gd161 O189 2.506 1_455 S
Gd161 O190 2.435 1_565 S
Gd161 O191 2.717 . S
C162 O180 1.240 . S
C162 O181 1.240 . S
C163 Gd160 2.818 . S
C163 C164 1.510 . S
C163 O182 1.249 . S
C163 O183 1.252 . S
C164 C163 1.510 . S
C164 C165 1.404 . S
C164 C166 1.352 . S
C165 C164 1.404 . S
C165 C169 1.389 . S
C165 H192 0.930 . S
C166 C164 1.352 . S
C166 C168 1.374 . S
C166 H193 0.931 . S
C167 C168 1.359 . S
C167 C169 1.364 . S
C168 C166 1.374 . S
C168 C167 1.359 . S
C168 H194 0.931 . S
C169 C165 1.389 . S
C169 C167 1.364 . S
C169 H195 0.931 . S
C170 O184 1.256 . S
C170 O185 1.257 . S
C171 O186 1.240 . S
C171 O187 1.240 . S
C172 Gd161 2.818 . S
C172 C173 1.510 1_455 S
C172 O188 1.249 . S
C172 O189 1.252 1_455 S
C173 C172 1.510 1_655 S
C173 C174 1.404 1_655 S
C173 C175 1.352 . S
C174 C173 1.404 1_455 S
C174 C178 1.389 1_455 S
C174 H196 0.930 1_565 S
C175 C173 1.352 . S
C175 C177 1.374 . S
C175 H197 0.931 . S
C176 C177 1.359 . S
C176 C178 1.364 . S
C177 C175 1.374 . S
C177 C176 1.359 . S
C177 H198 0.931 . S
C178 C174 1.389 1_655 S
C178 C176 1.364 . S
C178 H199 0.931 1_565 S
C179 O190 1.256 . S
C179 O191 1.257 1_545 S
O180 Gd160 2.377 . S
O180 C162 1.240 . S
O181 Gd161 2.395 . S
O181 C162 1.240 . S
O182 Gd160 2.448 . S
O182 C163 1.249 . S
O183 Gd160 2.506 . S
O183 C163 1.252 . S
O184 Gd160 2.435 . S
O184 C170 1.256 . S
O185 Gd160 2.717 . S
O185 Gd161 2.327 . S
O185 C170 1.257 . S
O186 Gd161 2.377 . S
O186 C171 1.240 . S
O187 Gd160 2.395 . S
O187 C171 1.240 . S
O188 Gd161 2.448 . S
O188 C172 1.249 . S
O189 Gd161 2.506 1_655 S
O189 C172 1.252 1_655 S
O190 Gd161 2.435 1_545 S
O190 C179 1.256 . S
O191 Gd160 2.327 . S
O191 Gd161 2.717 . S
O191 C179 1.257 1_565 S
H192 C165 0.930 . S
H193 C166 0.931 . S
H194 C168 0.931 . S
H195 C169 0.931 . S
H196 C174 0.930 1_545 S
H197 C175 0.931 . S
H198 C177 0.931 . S
H199 C178 0.931 1_545 S
Gd200 C203 2.818 . S
Gd200 O220 2.377 . S
Gd200 O222 2.448 . S
Gd200 O223 2.506 . S
Gd200 O224 2.435 . S
Gd200 O225 2.717 . S
Gd200 O227 2.395 . S
Gd200 O231 2.327 . S
Gd201 C212 2.818 . S
Gd201 O221 2.395 . S
Gd201 O225 2.327 . S
Gd201 O226 2.377 . S
Gd201 O228 2.448 . S
Gd201 O229 2.506 1_545 S
Gd201 O230 2.435 . S
Gd201 O231 2.717 . S
C202 O220 1.240 . S
C202 O221 1.240 . S
C203 Gd200 2.818 . S
C203 C204 1.510 . S
C203 O222 1.249 . S
C203 O223 1.252 . S
C204 C203 1.510 . S
C204 C205 1.404 . S
C204 C206 1.352 . S
C205 C204 1.404 . S
C205 C209 1.389 . S
C205 H232 0.930 . S
C206 C204 1.352 . S
C206 C208 1.374 . S
C206 H233 0.931 . S
C207 C208 1.359 . S
C207 C209 1.364 . S
C208 C206 1.374 . S
C208 C207 1.359 . S
C208 H234 0.931 . S
C209 C205 1.389 . S
C209 C207 1.364 . S
C209 H235 0.931 . S
C210 O224 1.256 . S
C210 O225 1.257 . S
C211 O226 1.240 . S
C211 O227 1.240 . S
C212 Gd201 2.818 . S
C212 C213 1.510 1_545 S
C212 O228 1.249 . S
C212 O229 1.252 1_545 S
C213 C212 1.510 1_565 S
C213 C214 1.404 1_565 S
C213 C215 1.352 . S
C214 C213 1.404 1_545 S
C214 C218 1.389 1_545 S
C214 H236 0.930 . S
C215 C213 1.352 . S
C215 C217 1.374 . S
C215 H237 0.931 . S
C216 C217 1.359 . S
C216 C218 1.364 . S
C217 C215 1.374 . S
C217 C216 1.359 . S
C217 H238 0.931 . S
C218 C214 1.389 1_565 S
C218 C216 1.364 . S
C218 H239 0.931 1_455 S
C219 O230 1.256 . S
C219 O231 1.257 . S
O220 Gd200 2.377 . S
O220 C202 1.240 . S
O221 Gd201 2.395 . S
O221 C202 1.240 . S
O222 Gd200 2.448 . S
O222 C203 1.249 . S
O223 Gd200 2.506 . S
O223 C203 1.252 . S
O224 Gd200 2.435 . S
O224 C210 1.256 . S
O225 Gd200 2.717 . S
O225 Gd201 2.327 . S
O225 C210 1.257 . S
O226 Gd201 2.377 . S
O226 C211 1.240 . S
O227 Gd200 2.395 . S
O227 C211 1.240 . S
O228 Gd201 2.448 . S
O228 C212 1.249 . S
O229 Gd201 2.506 1_565 S
O229 C212 1.252 1_565 S
O230 Gd201 2.435 . S
O230 C219 1.256 . S
O231 Gd200 2.327 . S
O231 Gd201 2.717 . S
O231 C219 1.257 . S
H232 C205 0.930 . S
H233 C206 0.931 . S
H234 C208 0.931 . S
H235 C209 0.931 . S
H236 C214 0.930 . S
H237 C215 0.931 . S
H238 C217 0.931 . S
H239 C218 0.931 1_655 S
C171 C7 1.489 . S
C211 C47 1.489 . S
C11 C87 1.489 . S
C51 C127 1.489 . S
C91 C167 1.489 . S
C131 C207 1.489 . S
C10 C130 2.056 . S
C170 C50 2.056 1_455 S
C210 C90 2.057 1_545 S
C99 C219 3.009 . S
C19 C139 3.008 1_655 S
C179 C59 3.009 1_545 S
C202 C16 2.086 . S
C56 C2 2.087 . S
C96 C42 2.086 . S
C82 C136 2.086 . S
C176 C122 2.087 . S
C216 C162 2.086 . S
