# Generated by pormake.
# Topology fcu, (12)-cn, num edge types: 1
# Building blocks:
#     Node 0, Type 0, BuildingBlock: BOTCEU_clean_sbu_0, # of connection points: 12
#     Node 1, Type 0, BuildingBlock: BOTCEU_clean_sbu_0, # of connection points: 12
#     Node 2, Type 0, BuildingBlock: BOTCEU_clean_sbu_0, # of connection points: 12
#     Node 3, Type 0, BuildingBlock: BOTCEU_clean_sbu_0, # of connection points: 12
#     Edge 4, Type (0, 0), BuildingBlock: CIFDUS_clean_linker_0, # of connection points: 2
#     Edge 5, Type (0, 0), BuildingBlock: CIFDUS_clean_linker_0, # of connection points: 2
#     Edge 6, Type (0, 0), BuildingBlock: CIFDUS_clean_linker_0, # of connection points: 2
#     Edge 7, Type (0, 0), BuildingBlock: CIFDUS_clean_linker_0, # of connection points: 2
#     Edge 8, Type (0, 0), BuildingBlock: CIFDUS_clean_linker_0, # of connection points: 2
#     Edge 9, Type (0, 0), BuildingBlock: CIFDUS_clean_linker_0, # of connection points: 2
#     Edge 10, Type (0, 0), BuildingBlock: CIFDUS_clean_linker_0, # of connection points: 2
#     Edge 11, Type (0, 0), BuildingBlock: CIFDUS_clean_linker_0, # of connection points: 2
#     Edge 12, Type (0, 0), BuildingBlock: CIFDUS_clean_linker_0, # of connection points: 2
#     Edge 13, Type (0, 0), BuildingBlock: CIFDUS_clean_linker_0, # of connection points: 2
#     Edge 14, Type (0, 0), BuildingBlock: CIFDUS_clean_linker_0, # of connection points: 2
#     Edge 15, Type (0, 0), BuildingBlock: CIFDUS_clean_linker_0, # of connection points: 2
#     Edge 16, Type (0, 0), BuildingBlock: CIFDUS_clean_linker_0, # of connection points: 2
#     Edge 17, Type (0, 0), BuildingBlock: CIFDUS_clean_linker_0, # of connection points: 2
#     Edge 18, Type (0, 0), BuildingBlock: CIFDUS_clean_linker_0, # of connection points: 2
#     Edge 19, Type (0, 0), BuildingBlock: CIFDUS_clean_linker_0, # of connection points: 2
#     Edge 20, Type (0, 0), BuildingBlock: CIFDUS_clean_linker_0, # of connection points: 2
#     Edge 21, Type (0, 0), BuildingBlock: CIFDUS_clean_linker_0, # of connection points: 2
#     Edge 22, Type (0, 0), BuildingBlock: CIFDUS_clean_linker_0, # of connection points: 2
#     Edge 23, Type (0, 0), BuildingBlock: CIFDUS_clean_linker_0, # of connection points: 2
#     Edge 24, Type (0, 0), BuildingBlock: CIFDUS_clean_linker_0, # of connection points: 2
#     Edge 25, Type (0, 0), BuildingBlock: CIFDUS_clean_linker_0, # of connection points: 2
#     Edge 26, Type (0, 0), BuildingBlock: CIFDUS_clean_linker_0, # of connection points: 2
#     Edge 27, Type (0, 0), BuildingBlock: CIFDUS_clean_linker_0, # of connection points: 2
# Relax obj value: 0.052
# Max RMSD: 0.158
# Mean RMSD: 0.158
data_MOF--net-fcu--node1-BOTCEU_clean_sbu_0--edge1-CIFDUS_clean_linker_0
_symmetry_space_group_name_H-M    P1
_symmetry_Int_Tables_number       1
_symmetry_cell_setting            triclinic
loop_
_symmetry_equiv_pos_as_xyz
'x, y, z'
_cell_length_a     33.561
_cell_length_b     33.616956
_cell_length_c     33.625548
_cell_angle_alpha  101.45074
_cell_angle_beta   100.96946
_cell_angle_gamma 101.41504
loop_
_atom_site_label
_atom_site_type_symbol
_atom_site_fract_x
_atom_site_fract_y
_atom_site_fract_z
_atom_type_partial_charge
C0 C 0.14256 0.93737 0.1168 0.0
C1 C 0.1342 0.93978 0.15609 0.0
C2 C 0.09227 0.91868 0.14829 0.0
N3 N 0.10749 0.91575 0.08821 0.0
N4 N 0.07742 0.90504 0.10671 0.0
C5 C 0.18432 0.94908 0.10685 0.0
H6 H 0.20426 0.92889 0.1179 0.0
H7 H 0.20038 0.98204 0.123 0.0
H8 H 0.18079 0.94543 0.07278 0.0
C9 C 0.06798 0.90863 0.17947 0.0
H10 H 0.03412 0.90469 0.16639 0.0
H11 H 0.0791 0.93363 0.20894 0.0
H12 H 0.07247 0.87875 0.18657 0.0
C13 C 0.95967 0.16832 0.85309 0.0
C14 C 0.01951 0.16039 0.83845 0.0
C15 C 0.98889 0.18231 0.83154 0.0
N16 N 0.97297 0.13992 0.8717 0.0
N17 N 0.0084 0.13495 0.86261 0.0
H18 H 0.92508 0.21105 0.87577 0.0
H19 H 0.90366 0.18208 0.82246 0.0
H20 H 0.89806 0.15648 0.86464 0.0
C21 C 0.91903 0.17988 0.85397 0.0
H22 H 0.07339 0.19921 0.82756 0.0
H23 H 0.05349 0.14872 0.79154 0.0
H24 H 0.08234 0.15261 0.84385 0.0
C25 C 0.05974 0.1656 0.82483 0.0
C26 C 0.04541 0.80312 0.00845 0.0
C27 C 0.08607 0.96891 0.0197 0.0
C28 C 0.91505 0.07492 0.14639 0.0
N29 N 0.89658 0.05705 0.10601 0.0
N30 N 0.89778 0.08572 0.08465 0.0
C31 C 0.92806 0.11775 0.15051 0.0
C32 C 0.91646 0.12339 0.11043 0.0
H33 H 0.91056 0.0179 0.16706 0.0
H34 H 0.89189 0.05799 0.19714 0.0
H35 H 0.94711 0.06353 0.20325 0.0
C36 C 0.91638 0.05207 0.18033 0.0
H37 H 0.92366 0.15804 0.06394 0.0
H38 H 0.94977 0.18706 0.11741 0.0
H39 H 0.8937 0.17615 0.09962 0.0
C40 C 0.92154 0.16358 0.09705 0.0
C41 C 0.18576 0.87059 0.97772 0.0
C42 C 0.16477 0.84751 0.02929 0.0
N43 N 0.1556 0.88861 0.98794 0.0
N44 N 0.14261 0.87415 0.01797 0.0
C45 C 0.19268 0.84389 0.00375 0.0
H46 H 0.23434 0.89632 0.95068 0.0
H47 H 0.20622 0.84346 0.924 0.0
H48 H 0.18218 0.88653 0.91858 0.0
C49 C 0.20291 0.8743 0.94035 0.0
C50 C 0.15924 0.8265 0.06388 0.0
H51 H 0.18921 0.8205 0.0788 0.0
H52 H 0.13568 0.79613 0.05112 0.0
H53 H 0.14765 0.84616 0.08752 0.0
C54 C 0.79341 0.00047 0.01206 0.0
C55 C 0.94895 0.99026 0.07109 0.0
C56 C 0.10445 0.16346 0.94255 0.0
N57 N 0.08532 0.12398 0.92121 0.0
C58 C 0.14672 0.16544 0.95697 0.0
N59 N 0.11266 0.10097 0.92143 0.0
C60 C 0.15066 0.12483 0.94277 0.0
H61 H 0.08426 0.21281 0.91967 0.0
H62 H 0.09906 0.22314 0.97583 0.0
H63 H 0.04976 0.18662 0.94639 0.0
C64 C 0.08312 0.19861 0.94666 0.0
H65 H 0.18385 0.07629 0.9389 0.0
C66 C 0.19026 0.11068 0.94314 0.0
H67 H 0.20318 0.11887 0.91698 0.0
H68 H 0.2141 0.1262 0.97269 0.0
C69 C 0.82505 0.92718 0.13901 0.0
C70 C 0.80986 0.98575 0.12801 0.0
N71 N 0.84727 0.94157 0.1133 0.0
N72 N 0.83758 0.97597 0.10631 0.0
C73 C 0.80084 0.95509 0.14957 0.0
H74 H 0.83724 0.89805 0.18967 0.0
C75 C 0.829 0.88937 0.15499 0.0
H76 H 0.85306 0.87534 0.14317 0.0
H77 H 0.79853 0.86578 0.14439 0.0
H78 H 0.81415 0.04975 0.15607 0.0
H79 H 0.76143 0.01872 0.13302 0.0
C80 C 0.79405 0.02447 0.12918 0.0
H81 H 0.79571 0.03525 0.10032 0.0
C82 C 0.03927 0.04916 0.8059 0.0
C83 C 0.00931 0.07351 0.9578 0.0
C84 C 0.83867 0.04121 0.88344 0.0
N85 N 0.87574 0.06643 0.9052 0.0
C86 C 0.84053 0.03012 0.84191 0.0
C87 C 0.88077 0.05035 0.84109 0.0
N88 N 0.90107 0.07148 0.88033 0.0
C89 C 0.80119 0.03233 0.90124 0.0
H90 H 0.81077 0.03922 0.9358 0.0
H91 H 0.7801 0.0523 0.89219 0.0
H92 H 0.78356 -0.00084 0.88867 0.0
C93 C 0.89862 0.05166 0.80378 0.0
H94 H 0.93305 0.05571 0.81266 0.0
H95 H 0.88379 0.02275 0.77856 0.0
H96 H 0.89242 0.07892 0.79191 0.0
C97 C 0.0177 0.80211 0.11776 0.0
C98 C 0.98647 0.78636 0.13633 0.0
C99 C 0.95524 0.80701 0.12701 0.0
N100 N 0.00488 0.83023 0.09844 0.0
N101 N 0.96796 0.83352 0.10444 0.0
H102 H 0.05833 0.76213 0.10542 0.0
H103 H 0.07457 0.79748 0.15624 0.0
H104 H 0.08098 0.81702 0.1106 0.0
C105 C 0.06059 0.79454 0.12278 0.0
C106 C 0.91425 0.80148 0.13916 0.0
H107 H 0.89947 0.76762 0.13343 0.0
H108 H 0.91955 0.8156 0.17304 0.0
H109 H 0.89306 0.81669 0.12128 0.0
C110 C 0.94876 0.18087 0.96849 0.0
C111 C 0.91766 0.02389 0.97954 0.0
C112 C 0.07993 0.89695 0.84483 0.0
C113 C 0.07184 0.85495 0.84587 0.0
C114 C 0.08325 0.85529 0.88797 0.0
N115 N 0.09538 0.92 0.88431 0.0
N116 N 0.09702 0.89532 0.90993 0.0
C117 C 0.07806 0.91465 0.80724 0.0
H118 H 0.07866 0.94842 0.8158 0.0
H119 H 0.10559 0.91094 0.79438 0.0
H120 H 0.04948 0.89772 0.78253 0.0
C121 C 0.08287 0.81856 0.90676 0.0
H122 H 0.08026 0.82725 0.93954 0.0
H123 H 0.0566 0.79167 0.88837 0.0
H124 H 0.11268 0.80903 0.90667 0.0
C125 C 0.81411 0.12348 0.02288 0.0
C126 C 0.80611 0.15025 -0.00279 0.0
C127 C 0.83239 0.14604 0.96992 0.0
N128 N 0.84308 0.10477 0.0107 0.0
N129 N 0.85452 0.11879 0.97977 0.0
C130 C 0.79742 0.11835 0.06026 0.0
H131 H 0.76603 0.0963 0.04989 0.0
H132 H 0.79419 0.14884 0.07758 0.0
H133 H 0.81832 0.10539 0.08117 0.0
C134 C 0.83463 0.16517 0.93362 0.0
H135 H 0.80328 0.16832 0.9188 0.0
H136 H 0.85618 0.19683 0.94475 0.0
H137 H 0.84691 0.14583 0.91035 0.0
C138 C 0.1973 0.98872 0.97246 0.0
C139 C 0.03614 0.98457 0.90599 0.0
C140 C 0.87584 0.81478 0.02123 0.0
N141 N 0.89558 0.85247 0.0466 0.0
N142 N 0.86927 0.87647 0.04877 0.0
C143 C 0.83423 0.81508 0.00698 0.0
C144 C 0.83133 0.85502 0.02531 0.0
H145 H 0.92921 0.78818 0.0231 0.0
H146 H 0.88622 0.7596 0.03927 0.0
H147 H 0.88212 0.75702 0.98472 0.0
C148 C 0.8946 0.77779 0.01662 0.0
H149 H 0.80025 0.90502 0.0262 0.0
H150 H 0.76815 0.85396 -0.00451 0.0
H151 H 0.78041 0.86606 0.05185 0.0
C152 C 0.79266 0.87093 0.02431 0.0
C153 C 0.15688 0.04342 0.83516 0.0
N154 N 0.13537 0.03166 0.86247 0.0
N155 N 0.14839 0.00084 0.87513 0.0
C156 C 0.18479 0.0182 0.83058 0.0
C157 C 0.17817 -0.00864 0.85633 0.0
C158 C 0.15072 0.07751 0.8139 0.0
H159 H 0.12827 0.06362 0.78308 0.0
H160 H 0.18078 0.09348 0.80851 0.0
H161 H 0.13777 0.1004 0.83292 0.0
C162 C 0.196 0.95431 0.85903 0.0
H163 H 0.19607 0.93685 0.82735 0.0
H164 H 0.22889 0.96527 0.87768 0.0
H165 H 0.17769 0.93331 0.8742 0.0
C166 C 0.94254 0.92107 0.16699 0.0
C167 C 0.97476 0.89662 0.0143 0.0
Cu168 Cu 0.09692 0.89019 0.03245 0.0
Cu169 Cu 0.0297 0.86789 0.07203 0.0
Cu170 Cu 0.86806 0.00396 0.07594 0.0
Cu171 Cu 0.8706 0.06709 0.02919 0.0
Cu172 Cu 0.03328 0.09829 0.88642 0.0
Cu173 Cu 0.09353 0.04831 0.88542 0.0
Cu174 Cu 0.8954 0.09761 0.95935 0.0
Cu175 Cu 0.95272 0.10797 0.90572 0.0
Cu176 Cu 0.11989 0.97581 0.90865 0.0
Cu177 Cu 0.12444 0.92135 0.96461 0.0
Cu178 Cu 0.9467 0.87383 0.0839 0.0
Cu179 Cu 0.88879 0.9262 0.08892 0.0
H180 H 0.01903 0.78989 0.98042 0.0
H181 H 0.04019 0.78627 0.03286 0.0
H182 H 0.07493 0.79925 -9e-05 0.0
H183 H 0.06385 0.96749 0.04021 0.0
H184 H 0.07707 0.98678 -0.0034 0.0
H185 H 0.11802 0.98493 0.0391 0.0
H186 H 0.78415 0.98462 0.97829 0.0
H187 H 0.78064 0.0285 0.01742 0.0
H188 H 0.7807 0.97859 0.02987 0.0
H189 H 0.95301 0.02416 0.07304 0.0
H190 H 0.96162 0.97634 0.04506 0.0
H191 H 0.9663 0.98621 0.10094 0.0
H192 H 0.0481 0.02051 0.79155 0.0
H193 H 0.05979 0.07696 0.801 0.0
H194 H 0.00621 0.04719 0.79114 0.0
H195 H 0.04396 0.0831 0.96687 0.0
H196 H -0.00102 0.04035 0.95854 0.0
H197 H -0.00315 0.09343 0.98033 0.0
H198 H 0.98195 0.1971 0.97246 0.0
H199 H 0.92866 0.19031 0.94375 0.0
H200 H 0.93942 0.18956 -0.00166 0.0
H201 H 0.91826 0.02022 0.94619 0.0
H202 H 0.94831 0.02219 -0.00257 0.0
H203 H 0.89262 -0.00169 0.98224 0.0
H204 H 0.20918 0.98843 0.0055 0.0
H205 H 0.21039 0.96736 0.95199 0.0
H206 H 0.20703 0.02095 0.96864 0.0
H207 H 0.03049 0.95549 0.88125 0.0
H208 H 0.02822 0.97659 0.93441 0.0
H209 H 0.01572 0.00398 0.89439 0.0
H210 H 0.97586 0.93548 0.18308 0.0
H211 H 0.92298 0.94102 0.17968 0.0
H212 H 0.93309 0.88956 0.17243 0.0
H213 H 0.94323 0.90288 0.00816 0.0
H214 H -0.00284 0.9213 0.00681 0.0
H215 H 0.97336 0.86565 -0.00574 0.0
O216 O 0.04777 0.84479 0.02313 0.0
O217 O 0.08583 0.92916 -0.0005 0.0
O218 O 0.8362 0.01213 0.02504 0.0
O219 O 0.90724 0.97132 0.06409 0.0
O220 O 0.04366 0.05232 0.84782 0.0
O221 O -0.00489 0.07792 0.91826 0.0
O222 O 0.94428 0.13847 0.95759 0.0
O223 O 0.9101 0.06187 -0.00505 0.0
O224 O 0.15449 0.97577 0.96197 0.0
O225 O 0.07733 0.00607 0.91482 0.0
O226 O 0.93723 0.91823 0.12502 0.0
O227 O 0.98721 0.89635 0.05552 0.0
C228 C 0.14336 0.43213 0.59081 0.0
C229 C 0.14522 0.44908 0.63256 0.0
C230 C 0.10436 0.43777 0.63676 0.0
N231 N 0.10347 0.41183 0.57222 0.0
N232 N 0.08033 0.41554 0.59942 0.0
C233 C 0.17914 0.4304 0.57049 0.0
H234 H 0.16799 0.42343 0.53601 0.0
H235 H 0.19362 0.40523 0.57865 0.0
H236 H 0.20338 0.46041 0.58192 0.0
C237 C 0.08895 0.44489 0.67586 0.0
H238 H 0.05592 0.44708 0.66841 0.0
H239 H 0.10881 0.47376 0.69881 0.0
H240 H 0.09016 0.41786 0.68999 0.0
C241 C 0.97342 0.67206 0.35231 0.0
C242 C 0.02582 0.65118 0.33057 0.0
C243 C 4e-05 0.67853 0.32581 0.0
N244 N 0.98361 0.64279 0.37139 0.0
N245 N 0.01422 0.62992 0.35788 0.0
H246 H 0.94666 0.72134 0.37679 0.0
H247 H 0.91962 0.69159 0.32467 0.0
H248 H 0.91447 0.66945 0.3691 0.0
C249 C 0.93614 0.6894 0.35577 0.0
H250 H 0.07712 0.67589 0.30543 0.0
H251 H 0.04868 0.62291 0.27953 0.0
H252 H 0.08379 0.6332 0.32985 0.0
C253 C 0.06111 0.64569 0.31036 0.0
C254 C 0.01722 0.30186 0.52575 0.0
C255 C 0.0647 0.45274 0.49757 0.0
C256 C 0.94754 0.62552 0.65326 0.0
N257 N 0.92512 0.60069 0.61612 0.0
N258 N 0.9226 0.62279 0.58808 0.0
C259 C 0.95954 0.66596 0.64814 0.0
C260 C 0.94301 0.6628 0.60609 0.0
H261 H 0.94677 0.57795 0.68766 0.0
H262 H 0.92601 0.62111 0.70837 0.0
H263 H 0.98159 0.62837 0.71538 0.0
C264 C 0.95088 0.61234 0.69349 0.0
H265 H 0.94165 0.68573 0.55084 0.0
H266 H 0.97178 0.7234 0.59905 0.0
H267 H 0.91541 0.71012 0.58705 0.0
C268 C 0.94326 0.69761 0.58446 0.0
C269 C 0.14184 0.33304 0.44682 0.0
C270 C 0.13306 0.32149 0.50739 0.0
N271 N 0.11505 0.35422 0.46012 0.0
N272 N 0.10948 0.34715 0.49598 0.0
C273 C 0.15433 0.31166 0.47646 0.0
H274 H 0.1851 0.35487 0.41224 0.0
H275 H 0.15707 0.30093 0.39194 0.0
H276 H 0.13088 0.34241 0.38466 0.0
C277 C 0.15419 0.33262 0.40634 0.0
C278 C 0.13792 0.30978 0.54836 0.0
H279 H 0.17138 0.31203 0.56188 0.0
H280 H 0.12035 0.27684 0.54328 0.0
H281 H 0.12546 0.33033 0.57043 0.0
C282 C 0.80635 0.54558 0.54937 0.0
C283 C 0.95725 0.51623 0.57414 0.0
C284 C 0.11465 0.63272 0.42203 0.0
N285 N 0.08541 0.59767 0.40146 0.0
C286 C 0.1531 0.62253 0.42877 0.0
N287 N 0.10289 0.56615 0.39491 0.0
C288 C 0.14442 0.5798 0.41103 0.0
H289 H 0.07346 0.67209 0.43642 0.0
H290 H 0.10987 0.69071 0.4073 0.0
H291 H 0.12854 0.69467 0.46212 0.0
C292 C 0.10607 0.67504 0.43291 0.0
H293 H 0.15948 0.52031 0.39483 0.0
C294 C 0.17533 0.55408 0.40491 0.0
H295 H 0.19098 0.56282 0.38054 0.0
H296 H 0.19978 0.56053 0.43427 0.0
C297 C 0.85591 0.48773 0.68006 0.0
C298 C 0.84389 0.54626 0.6657 0.0
N299 N 0.87646 0.49748 0.65144 0.0
N300 N 0.86863 0.53188 0.64234 0.0
C301 C 0.83464 0.51852 0.69021 0.0
H302 H 0.85255 0.45453 0.72829 0.0
C303 C 0.85476 0.44869 0.69521 0.0
H304 H 0.8829 0.43702 0.69173 0.0
H305 H 0.8268 0.42411 0.67606 0.0
H306 H 0.83316 0.60529 0.69302 0.0
H307 H 0.79236 0.57323 0.64935 0.0
C308 C 0.82681 0.58352 0.66183 0.0
H309 H 0.84136 0.60024 0.64086 0.0
C310 C 0.00621 0.52961 0.29212 0.0
C311 C 0.01749 0.58036 0.45744 0.0
C312 C 0.84231 0.56043 0.38336 0.0
N313 N 0.88079 0.58189 0.40575 0.0
C314 C 0.84429 0.54801 0.34191 0.0
C315 C 0.88591 0.56344 0.34179 0.0
N316 N 0.90676 0.58325 0.38115 0.0
C317 C 0.80429 0.5543 0.4007 0.0
H318 H 0.81085 0.57405 0.4329 0.0
H319 H 0.7781 0.56166 0.38021 0.0
H320 H 0.79449 0.52103 0.40156 0.0
C321 C 0.90533 0.56036 0.3052 0.0
H322 H 0.93915 0.56228 0.31565 0.0
H323 H 0.8896 0.53076 0.28118 0.0
H324 H 0.90199 0.58705 0.29109 0.0
C325 C 0.02178 0.33151 0.64218 0.0
C326 C -0.00358 0.32453 0.66968 0.0
C327 C 0.97016 0.35168 0.66617 0.0
N328 N 0.01024 0.36051 0.62351 0.0
N329 N 0.98012 0.37312 0.63832 0.0
H330 H 0.04492 0.28234 0.61097 0.0
H331 H 0.07368 0.30638 0.66411 0.0
H332 H 0.07957 0.33358 0.62309 0.0
C333 C 0.05727 0.31252 0.63486 0.0
C334 C 0.9335 0.35391 0.68511 0.0
H335 H 0.91651 0.32206 0.68522 0.0
H336 H 0.94479 0.37272 0.71792 0.0
H337 H 0.91194 0.36913 0.66773 0.0
C338 C 0.96832 0.6891 0.47131 0.0
C339 C 0.90337 0.5321 0.48021 0.0
C340 C 0.01695 0.36178 0.32717 0.0
C341 C 0.0028 0.32245 0.33395 0.0
C342 C 0.02313 0.32521 0.37489 0.0
N343 N 0.04404 0.38565 0.36235 0.0
N344 N 0.04735 0.36411 0.3908 0.0
C345 C 0.00935 0.3746 0.2868 0.0
H346 H 0.02165 0.40883 0.29196 0.0
H347 H 0.02513 0.35776 0.26516 0.0
H348 H 0.97538 0.36598 0.27191 0.0
C349 C 0.02215 0.29104 0.39741 0.0
H350 H 0.02686 0.30433 0.43138 0.0
H351 H -0.00789 0.26685 0.38509 0.0
H352 H 0.04821 0.27615 0.39292 0.0
C353 C 0.83407 0.65883 0.52793 0.0
C354 C 0.82769 0.68257 0.49882 0.0
C355 C 0.84983 0.67027 0.46963 0.0
N356 N 0.85862 0.63402 0.51592 0.0
N357 N 0.86835 0.64132 0.48154 0.0
C358 C 0.82016 0.66224 0.56788 0.0
H359 H 0.78741 0.64353 0.56126 0.0
H360 H 0.82098 0.69529 0.58187 0.0
H361 H 0.84037 0.65004 0.59024 0.0
C362 C 0.85168 0.68403 0.43022 0.0
H363 H 0.82108 0.68928 0.41604 0.0
H364 H 0.8757 0.714 0.43751 0.0
H365 H 0.86033 0.66029 0.40772 0.0
C366 C 0.16314 0.44436 0.43026 0.0
C367 C 0.00766 0.46676 0.39281 0.0
C368 C 0.87745 0.3504 0.57222 0.0
N369 N 0.90141 0.38923 0.58903 0.0
N370 N 0.878 0.4162 0.59091 0.0
C371 C 0.83606 0.3529 0.56315 0.0
C372 C 0.83759 0.39543 0.57526 0.0
H373 H 0.92646 0.31989 0.56194 0.0
H374 H 0.89431 0.29902 0.59378 0.0
H375 H 0.87363 0.28776 0.5382 0.0
C376 C 0.89396 0.31199 0.56587 0.0
H377 H 0.81225 0.44977 0.58405 0.0
H378 H 0.77917 0.40447 0.54448 0.0
H379 H 0.78444 0.40504 0.59861 0.0
C380 C 0.8014 0.41514 0.57563 0.0
C381 C 0.11424 0.49859 0.29755 0.0
N382 N 0.09368 0.4885 0.326 0.0
N383 N 0.10032 0.45331 0.33392 0.0
C384 C 0.13432 0.46725 0.28622 0.0
C385 C 0.12472 0.43893 0.31007 0.0
C386 C 0.12005 0.5401 0.28674 0.0
H387 H 0.10502 0.53547 0.25323 0.0
H388 H 0.15391 0.55442 0.29154 0.0
H389 H 0.10592 0.56146 0.30614 0.0
C390 C 0.13929 0.3998 0.31085 0.0
H391 H 0.13631 0.38201 0.27843 0.0
H392 H 0.17284 0.40799 0.32731 0.0
H393 H 0.12082 0.38018 0.32718 0.0
C394 C 0.97234 0.4733 0.69252 0.0
C395 C 0.9663 0.41399 0.53045 0.0
Cu396 Cu 0.07607 0.377 0.5208 0.0
Cu397 Cu 0.02621 0.38361 0.58191 0.0
Cu398 Cu 0.88948 0.54791 0.59947 0.0
Cu399 Cu 0.88392 0.59662 0.53828 0.0
Cu400 Cu 0.02949 0.58609 0.3767 0.0
Cu401 Cu 0.06721 0.51718 0.36085 0.0
Cu402 Cu 0.90336 0.61173 0.46031 0.0
Cu403 Cu 0.96079 0.61384 0.4062 0.0
Cu404 Cu 0.0796 0.43805 0.3773 0.0
Cu405 Cu 0.08694 0.39046 0.43965 0.0
Cu406 Cu 0.95731 0.41035 0.61341 0.0
Cu407 Cu 0.9069 0.4704 0.61959 0.0
H408 H -0.0055 0.29259 0.54427 0.0
H409 H 0.04631 0.29217 0.53641 0.0
H410 H 0.00326 0.28628 0.49228 0.0
H411 H 0.06169 0.45936 0.53035 0.0
H412 H 0.03975 0.46261 0.47814 0.0
H413 H 0.09584 0.47051 0.49634 0.0
H414 H 0.7894 0.54062 0.51638 0.0
H415 H 0.80075 0.57371 0.56865 0.0
H416 H 0.79477 0.51788 0.561 0.0
H417 H 0.96619 0.55025 0.57617 0.0
H418 H 0.95633 0.49884 0.54223 0.0
H419 H 0.98084 0.5084 0.59722 0.0
H420 H 0.97588 0.50585 0.28012 0.0
H421 H 0.02962 0.51905 0.27619 0.0
H422 H 0.00212 0.55977 0.28564 0.0
H423 H 0.03548 0.61311 0.47236 0.0
H424 H 0.03933 0.55955 0.45737 0.0
H425 H -0.00568 0.57089 0.47535 0.0
H426 H -0.00645 0.69886 0.50043 0.0
H427 H 0.98003 0.70185 0.4466 0.0
H428 H 0.94118 0.70144 0.47718 0.0
H429 H 0.87971 0.52268 0.45003 0.0
H430 H 0.93261 0.5235 0.47541 0.0
H431 H 0.8909 0.51525 0.50208 0.0
H432 H 0.17618 0.42615 0.45133 0.0
H433 H 0.17004 0.43484 0.39938 0.0
H434 H 0.17776 0.47811 0.44419 0.0
H435 H 0.00183 0.43768 0.4039 0.0
H436 H -0.00133 0.4916 0.41361 0.0
H437 H 0.98856 0.46065 0.36046 0.0
H438 H 0.95781 0.49799 0.70614 0.0
H439 H 0.96269 0.44503 0.70392 0.0
H440 H 0.00689 0.48495 0.70218 0.0
H441 H 0.93503 0.42016 0.53028 0.0
H442 H 0.98415 0.43708 0.51699 0.0
H443 H 0.96227 0.38189 0.51135 0.0
O444 O 0.02614 0.3444 0.53102 0.0
O445 O 0.06084 0.41071 0.48308 0.0
O446 O 0.84831 0.55075 0.55166 0.0
O447 O 0.91853 0.50579 0.58235 0.0
O448 O 0.01939 0.53442 0.33434 0.0
O449 O -0.00275 0.5777 0.41719 0.0
O450 O 0.95654 0.64627 0.45879 0.0
O451 O 0.91121 0.57448 0.49631 0.0
O452 O 0.12072 0.43705 0.42597 0.0
O453 O 0.04925 0.47904 0.39327 0.0
O454 O 0.95957 0.46377 0.64982 0.0
O455 O 0.98729 0.41746 0.57066 0.0
C456 C 0.64224 0.94091 0.60812 0.0
C457 C 0.64251 0.95222 0.6502 0.0
C458 C 0.60235 0.93374 0.65277 0.0
N459 N 0.60407 0.91722 0.58768 0.0
N460 N 0.58007 0.91325 0.61397 0.0
C461 C 0.67852 0.94834 0.5884 0.0
H462 H 0.6676 0.94034 0.55386 0.0
H463 H 0.69982 0.92855 0.59745 0.0
H464 H 0.69646 0.98151 0.59964 0.0
C465 C 0.58621 0.93373 0.69123 0.0
H466 H 0.55178 0.92989 0.68365 0.0
H467 H 0.60194 0.96307 0.71564 0.0
H468 H 0.59299 0.90692 0.70362 0.0
C469 C 0.45301 0.15588 0.3391 0.0
C470 C 0.5111 0.14401 0.32278 0.0
C471 C 0.48064 0.1658 0.31442 0.0
N472 N 0.46733 0.13017 0.36098 0.0
N473 N 0.50143 0.12259 0.35058 0.0
H474 H 0.42492 0.20619 0.35739 0.0
H475 H 0.39384 0.16638 0.31231 0.0
H476 H 0.39827 0.15596 0.36338 0.0
C477 C 0.41521 0.17192 0.34343 0.0
H478 H 0.57415 0.17276 0.32366 0.0
H479 H 0.54217 0.1454 0.27252 0.0
H480 H 0.5614 0.11663 0.30952 0.0
C481 C 0.5493 0.14442 0.30588 0.0
C482 C 0.52287 0.80609 0.52377 0.0
C483 C 0.57052 0.96313 0.51238 0.0
C484 C 0.39464 0.0814 0.64563 0.0
N485 N 0.38047 0.064 0.60455 0.0
N486 N 0.38572 0.09286 0.58361 0.0
C487 C 0.40995 0.12411 0.65084 0.0
C488 C 0.40369 0.13021 0.6105 0.0
H489 H 0.39679 0.02463 0.66518 0.0
H490 H 0.36622 0.05585 0.68958 0.0
H491 H 0.42252 0.07247 0.70547 0.0
C492 C 0.39542 0.05717 0.67845 0.0
H493 H 0.3936 0.16833 0.56687 0.0
H494 H 0.4468 0.17747 0.59562 0.0
H495 H 0.4097 0.19668 0.62159 0.0
C496 C 0.4137 0.17059 0.59788 0.0
C497 C 0.65688 0.84675 0.46861 0.0
C498 C 0.63793 0.83088 0.52413 0.0
N499 N 0.63093 0.87002 0.48034 0.0
N500 N 0.61936 0.86006 0.51303 0.0
C501 C 0.66214 0.82111 0.49612 0.0
H502 H 0.70615 0.86485 0.43905 0.0
H503 H 0.67215 0.81398 0.41408 0.0
H504 H 0.65447 0.86083 0.40863 0.0
C505 C 0.6731 0.8465 0.43013 0.0
C506 C 0.63376 0.81436 0.56169 0.0
H507 H 0.66373 0.80825 0.57644 0.0
H508 H 0.60933 0.78447 0.55201 0.0
H509 H 0.62418 0.83693 0.58458 0.0
C510 C 0.29157 0.00258 0.50016 0.0
C511 C 0.44377 0.00299 0.5842 0.0
C512 C 0.60082 0.1598 0.42485 0.0
N513 N 0.58216 0.11935 0.40737 0.0
C514 C 0.64323 0.16308 0.43927 0.0
N515 N 0.60985 0.09679 0.41009 0.0
C516 C 0.64783 0.12215 0.42937 0.0
H517 H 0.54523 0.18171 0.42784 0.0
H518 H 0.57894 0.20739 0.40001 0.0
H519 H 0.594 0.21962 0.45618 0.0
C520 C 0.57838 0.19415 0.42766 0.0
H521 H 0.68123 0.07352 0.42712 0.0
C522 C 0.68772 0.10816 0.43408 0.0
H523 H 0.70551 0.1196 0.41223 0.0
H524 H 0.70745 0.12168 0.46625 0.0
C525 C 0.30926 0.93568 0.63465 0.0
C526 C 0.29053 0.98837 0.61251 0.0
N527 N 0.33452 0.9489 0.61091 0.0
N528 N 0.32297 0.98008 0.59761 0.0
C529 C 0.28056 0.96042 0.63645 0.0
H530 H 0.33352 0.91663 0.68925 0.0
C531 C 0.31403 0.90213 0.65709 0.0
H532 H 0.32966 0.88006 0.64065 0.0
H533 H 0.28297 0.88509 0.6594 0.0
H534 H 0.28123 0.04722 0.64207 0.0
H535 H 0.24037 0.01755 0.5973 0.0
C536 C 0.27476 0.02665 0.61018 0.0
H537 H 0.29007 0.04405 0.59014 0.0
C538 C 0.52611 0.02798 0.30303 0.0
C539 C 0.51609 0.08976 0.46068 0.0
C540 C 0.33588 0.0418 0.38162 0.0
N541 N 0.37425 0.0635 0.40406 0.0
C542 C 0.33775 0.0299 0.34018 0.0
C543 C 0.3794 0.04531 0.34012 0.0
N544 N 0.40033 0.06521 0.37948 0.0
C545 C 0.29714 0.03986 0.39774 0.0
H546 H 0.28258 0.0652 0.39019 0.0
H547 H 0.2741 0.0095 0.38268 0.0
H548 H 0.30486 0.04389 0.43202 0.0
C549 C 0.39738 0.04621 0.30279 0.0
H550 H 0.43107 0.04647 0.31095 0.0
H551 H 0.38017 0.0188 0.27658 0.0
H552 H 0.39444 0.0751 0.29253 0.0
C553 C 0.51735 0.81949 0.64293 0.0
C554 C 0.48663 0.80477 0.66267 0.0
C555 C 0.45583 0.82615 0.65381 0.0
N556 N 0.50479 0.84777 0.62366 0.0
N557 N 0.46834 0.85207 0.63053 0.0
H558 H 0.55357 0.77817 0.62086 0.0
H559 H 0.5719 0.80448 0.6753 0.0
H560 H 0.58053 0.83285 0.63569 0.0
C561 C 0.55844 0.80836 0.6439 0.0
C562 C 0.41407 0.81965 0.66433 0.0
H563 H 0.40146 0.78606 0.66256 0.0
H564 H 0.41772 0.83766 0.6968 0.0
H565 H 0.39181 0.83072 0.64279 0.0
C566 C 0.44522 0.18305 0.45655 0.0
C567 C 0.42322 0.03621 0.48783 0.0
C568 C 0.55688 0.89064 0.34101 0.0
C569 C 0.54455 0.84854 0.34069 0.0
C570 C 0.55596 0.84706 0.38227 0.0
N571 N 0.57481 0.91211 0.3807 0.0
N572 N 0.57403 0.88622 0.40525 0.0
C573 C 0.55751 0.90898 0.30401 0.0
H574 H 0.56059 0.94322 0.3132 0.0
H575 H 0.58456 0.90319 0.29125 0.0
H576 H 0.52857 0.89392 0.27908 0.0
C577 C 0.55315 0.80896 0.39922 0.0
H578 H 0.55137 0.8168 0.43238 0.0
H579 H 0.52543 0.78385 0.38037 0.0
H580 H 0.58157 0.79719 0.3976 0.0
C581 C 0.30531 0.12495 0.51174 0.0
C582 C 0.29641 0.14892 0.48338 0.0
C583 C 0.32524 0.14581 0.45868 0.0
N584 N 0.33713 0.10873 0.50349 0.0
N585 N 0.34959 0.12174 0.47245 0.0
C586 C 0.286 0.11966 0.54756 0.0
H587 H 0.25739 0.09358 0.53633 0.0
H588 H 0.27702 0.14859 0.56091 0.0
H589 H 0.30806 0.1119 0.57214 0.0
C590 C 0.32697 0.16186 0.42049 0.0
H591 H 0.29499 0.16095 0.40323 0.0
H592 H 0.34555 0.19483 0.42987 0.0
H593 H 0.34216 0.14296 0.3999 0.0
C594 C 0.68598 0.96746 0.46505 0.0
C595 C 0.53603 -0.00821 0.42201 0.0
C596 C 0.38154 0.82402 0.53882 0.0
N597 N 0.397 0.86262 0.56387 0.0
N598 N 0.36937 0.88495 0.55866 0.0
C599 C 0.3415 0.82201 0.51631 0.0
C600 C 0.33489 0.86163 0.53002 0.0
H601 H 0.43796 0.80265 0.5464 0.0
H602 H 0.39621 0.77315 0.56285 0.0
H603 H 0.39338 0.76656 0.50773 0.0
C604 C 0.40363 0.78952 0.5386 0.0
H605 H 0.30158 0.90959 0.52586 0.0
H606 H 0.27572 0.85966 0.48943 0.0
H607 H 0.27639 0.86655 0.54395 0.0
C608 C 0.29484 0.87513 0.52147 0.0
C609 C 0.64996 0.0296 0.33019 0.0
N610 N 0.62742 0.01888 0.3571 0.0
N611 N 0.63646 0.98556 0.36787 0.0
C612 C 0.67344 0.00028 0.3226 0.0
C613 C 0.66371 0.97261 0.34705 0.0
C614 C 0.64859 0.06662 0.31207 0.0
H615 H 0.64356 0.05692 0.2776 0.0
H616 H 0.679 0.09015 0.3246 0.0
H617 H 0.62352 0.08131 0.32047 0.0
C618 C 0.6797 0.93466 0.35054 0.0
H619 H 0.66439 0.90923 0.32197 0.0
H620 H 0.71398 0.94175 0.35316 0.0
H621 H 0.67233 0.92349 0.37779 0.0
C622 C 0.42561 0.93418 0.681 0.0
C623 C 0.47707 0.92111 0.5413 0.0
Cu624 Cu 0.58187 0.88644 0.53355 0.0
Cu625 Cu 0.52673 0.87961 0.59024 0.0
Cu626 Cu 0.35854 0.01005 0.57303 0.0
Cu627 Cu 0.36572 0.07389 0.52644 0.0
Cu628 Cu 0.52859 0.09076 0.37924 0.0
Cu629 Cu 0.58917 0.04089 0.38195 0.0
Cu630 Cu 0.39261 0.10095 0.45569 0.0
Cu631 Cu 0.45055 0.10495 0.40125 0.0
Cu632 Cu 0.60875 0.96519 0.40479 0.0
Cu633 Cu 0.606 0.90833 0.45916 0.0
Cu634 Cu 0.44467 0.88878 0.60525 0.0
Cu635 Cu 0.38207 0.93623 0.5965 0.0
H636 H 0.49007 0.79373 0.5052 0.0
H637 H 0.52757 0.79261 0.55129 0.0
H638 H 0.54409 0.7972 0.50391 0.0
H639 H 0.57632 0.97014 0.54688 0.0
H640 H 0.53949 0.96789 0.49937 0.0
H641 H 0.59516 0.98458 0.50371 0.0
H642 H 0.27708 0.02941 0.49964 0.0
H643 H 0.27622 0.98227 0.51794 0.0
H644 H 0.28736 0.98415 0.46775 0.0
H645 H 0.44625 0.0363 0.59834 0.0
H646 H 0.45778 0.00093 0.55695 0.0
H647 H 0.46125 0.98985 0.60766 0.0
H648 H 0.51011 -0.0058 0.29253 0.0
H649 H 0.55489 0.03365 0.29132 0.0
H650 H 0.50482 0.04628 0.29046 0.0
H651 H 0.54957 0.08984 0.4639 0.0
H652 H 0.50206 0.06609 0.47575 0.0
H653 H 0.51363 0.12118 0.4763 0.0
H654 H 0.47435 0.19719 0.4483 0.0
H655 H 0.4182 0.19016 0.43729 0.0
H656 H 0.44753 0.19628 0.4901 0.0
H657 H 0.42648 0.0304 0.45512 0.0
H658 H 0.45385 0.03987 0.50921 0.0
H659 H 0.4002 0.00923 0.49115 0.0
H660 H 0.69823 0.98131 0.49911 0.0
H661 H 0.69609 0.93821 0.45618 0.0
H662 H 0.69838 0.99003 0.44774 0.0
H663 H 0.5136 -0.00348 0.39567 0.0
H664 H 0.52922 0.95802 0.42143 0.0
H665 H 0.53243 0.00973 0.45188 0.0
H666 H 0.41378 0.9616 0.69311 0.0
H667 H 0.40444 0.90523 0.68286 0.0
H668 H 0.45746 0.9375 0.70009 0.0
H669 H 0.4434 0.92066 0.53303 0.0
H670 H 0.49599 0.95236 0.54241 0.0
H671 H 0.48347 0.89712 0.51723 0.0
O672 O 0.53135 0.84883 0.53668 0.0
O673 O 0.57123 0.92244 0.49686 0.0
O674 O 0.33345 0.01693 0.5188 0.0
O675 O 0.40259 0.98104 0.57173 0.0
O676 O 0.5362 0.03988 0.34582 0.0
O677 O 0.49599 0.08006 0.41919 0.0
O678 O 0.44023 0.1406 0.44936 0.0
O679 O 0.40983 0.07205 0.49754 0.0
O680 O 0.64315 0.95897 0.45547 0.0
O681 O 0.57623 0.00495 0.41836 0.0
O682 O 0.42728 0.93231 0.64032 0.0
O683 O 0.48716 0.91274 0.57969 0.0
C684 C 0.65537 0.4475 0.09771 0.0
C685 C 0.65755 0.46653 0.13909 0.0
C686 C 0.6174 0.45317 0.14455 0.0
N687 N 0.61611 0.42424 0.0806 0.0
N688 N 0.59358 0.4278 0.10842 0.0
C689 C 0.69098 0.44595 0.0771 0.0
H690 H 0.67937 0.43769 0.04261 0.0
H691 H 0.70644 0.42169 0.0861 0.0
H692 H 0.71454 0.47643 0.08736 0.0
C693 C 0.60293 0.46101 0.18416 0.0
H694 H 0.5694 0.46154 0.17702 0.0
H695 H 0.62199 0.49099 0.20585 0.0
H696 H 0.6061 0.43515 0.19959 0.0
C697 C 0.44865 0.65036 0.84775 0.0
C698 C 0.50492 0.63606 0.82896 0.0
C699 C 0.47681 0.66121 0.8238 0.0
N700 N 0.46021 0.62095 0.86584 0.0
N701 N 0.4932 0.61194 0.85409 0.0
H702 H 0.41908 0.69496 0.87678 0.0
H703 H 0.39576 0.67236 0.82201 0.0
H704 H 0.38751 0.64203 0.86019 0.0
C705 C 0.41031 0.66565 0.85168 0.0
H706 H 0.5596 0.67014 0.81476 0.0
H707 H 0.53591 0.61909 0.78052 0.0
H708 H 0.56575 0.62341 0.83231 0.0
C709 C 0.54402 0.63739 0.81349 0.0
C710 C 0.53904 0.30703 0.04441 0.0
C711 C 0.56231 0.4475 -0.00266 0.0
C712 C 0.43503 0.61999 0.14985 0.0
N713 N 0.41301 0.59204 0.11437 0.0
N714 N 0.40576 0.61109 0.08426 0.0
C715 C 0.44159 0.65951 0.14163 0.0
C716 C 0.42223 0.65244 0.09946 0.0
H717 H 0.44238 0.57612 0.18772 0.0
H718 H 0.41763 0.61648 0.20714 0.0
H719 H 0.47313 0.62891 0.21197 0.0
C720 C 0.44272 0.60974 0.19156 0.0
H721 H 0.41209 0.67094 0.04158 0.0
H722 H 0.44304 0.71239 0.08671 0.0
H723 H 0.38733 0.69458 0.07964 0.0
C724 C 0.4161 0.68452 0.07534 0.0
C725 C 0.66244 0.34163 0.96375 0.0
C726 C 0.65339 0.33347 0.02529 0.0
N727 N 0.63395 0.36179 0.97462 0.0
N728 N 0.62818 0.35657 0.01105 0.0
C729 C 0.67583 0.32314 -0.00435 0.0
H730 H 0.70645 0.35766 0.92774 0.0
H731 H 0.6747 0.30503 0.90952 0.0
H732 H 0.65234 0.34847 0.90054 0.0
C733 C 0.67439 0.33792 0.92278 0.0
C734 C 0.65784 0.3239 0.06722 0.0
H735 H 0.69122 0.32638 0.08136 0.0
H736 H 0.64011 0.29129 0.06353 0.0
H737 H 0.64533 0.34559 0.0881 0.0
C738 C 0.29587 0.52409 0.05518 0.0
C739 C 0.45397 0.51374 0.07521 0.0
C740 C 0.59164 0.62998 0.93025 0.0
N741 N 0.56875 0.59255 0.90665 0.0
C742 C 0.6328 0.62701 0.9414 0.0
N743 N 0.59262 0.56619 0.90284 0.0
C744 C 0.6322 0.5859 0.92312 0.0
H745 H 0.54068 0.65993 0.93167 0.0
H746 H 0.58438 0.68744 0.91556 0.0
H747 H 0.58905 0.68783 0.96972 0.0
C748 C 0.57531 0.66846 0.93738 0.0
H749 H 0.65837 0.53251 0.92039 0.0
C750 C 0.66858 0.56651 0.92276 0.0
H751 H 0.68079 0.57053 0.895 0.0
H752 H 0.69404 0.58179 0.95127 0.0
C753 C 0.36367 0.47962 0.18895 0.0
C754 C 0.34037 0.53188 0.17037 0.0
N755 N 0.38224 0.49149 0.15976 0.0
N756 N 0.36786 0.52214 0.14826 0.0
C757 C 0.33649 0.50493 0.19673 0.0
H758 H 0.38379 0.44952 0.23668 0.0
C759 C 0.36641 0.44073 0.20341 0.0
H760 H 0.38296 0.42181 0.18457 0.0
H761 H 0.33457 0.42182 0.20113 0.0
H762 H 0.31345 0.58102 0.19609 0.0
H763 H 0.28618 0.55104 0.14426 0.0
C764 C 0.31764 0.56529 0.16539 0.0
H765 H 0.33504 0.5885 0.15157 0.0
C766 C 0.50466 0.51594 0.79404 0.0
C767 C 0.49814 0.56038 0.95472 0.0
C768 C 0.32353 0.53316 0.87956 0.0
N769 N 0.36134 0.55621 0.90224 0.0
C770 C 0.32677 0.5196 0.83866 0.0
C771 C 0.36834 0.53596 0.83917 0.0
N772 N 0.38791 0.55758 0.87825 0.0
C773 C 0.28457 0.52857 0.89544 0.0
H774 H 0.2919 0.54251 0.92955 0.0
H775 H 0.26282 0.54416 0.87884 0.0
H776 H 0.26859 0.49497 0.88898 0.0
C777 C 0.38869 0.53319 0.80318 0.0
H778 H 0.42233 0.53437 0.81416 0.0
H779 H 0.3729 0.50406 0.77852 0.0
H780 H 0.38653 0.56049 0.78971 0.0
C781 C 0.54473 0.34705 0.16248 0.0
C782 C 0.51992 0.3411 0.19059 0.0
C783 C 0.49023 0.36389 0.18309 0.0
N784 N 0.52958 0.37159 0.13955 0.0
N785 N 0.49763 0.38211 0.15243 0.0
H786 H 0.56709 0.29362 0.14049 0.0
H787 H 0.60179 0.3306 0.18573 0.0
H788 H 0.59699 0.34259 0.13507 0.0
C789 C 0.57988 0.3275 0.15547 0.0
C790 C 0.45428 0.36652 0.20296 0.0
H791 H 0.42709 0.34018 0.18555 0.0
H792 H 0.46254 0.36427 0.23588 0.0
H793 H 0.44501 0.39615 0.20153 0.0
C794 C 0.44306 0.66833 0.96361 0.0
C795 C 0.38439 0.51249 0.97946 0.0
C796 C 0.54493 0.35963 0.83192 0.0
C797 C 0.53668 0.31875 0.83615 0.0
C798 C 0.55177 0.32184 0.8785 0.0
N799 N 0.56402 0.38481 0.86966 0.0
N800 N 0.56814 0.36259 0.89748 0.0
C801 C 0.53696 0.37438 0.79267 0.0
H802 H 0.53334 0.40697 0.7998 0.0
H803 H 0.56406 0.37393 0.7783 0.0
H804 H 0.50856 0.35343 0.76993 0.0
C805 C 0.55573 0.28686 0.89917 0.0
H806 H 0.5606 0.29798 0.9335 0.0
H807 H 0.52742 0.26054 0.88656 0.0
H808 H 0.58304 0.27514 0.89253 0.0
C809 C 0.30895 0.63187 0.0218 0.0
C810 C 0.29885 0.65269 0.99094 0.0
C811 C 0.32164 0.64169 0.96187 0.0
N812 N 0.33584 0.6096 0.01077 0.0
N813 N 0.34381 0.61586 0.97538 0.0
C814 C 0.29722 0.63696 0.06291 0.0
H815 H 0.26535 0.61702 0.05844 0.0
H816 H 0.29659 0.66996 0.07524 0.0
H817 H 0.31963 0.62742 0.08576 0.0
C818 C 0.32179 0.65482 0.92195 0.0
H819 H 0.28982 0.65621 0.90688 0.0
H820 H 0.34271 0.68659 0.92878 0.0
H821 H 0.33339 0.6328 0.90047 0.0
C822 C 0.67448 0.45502 0.94429 0.0
C823 C 0.51157 0.45505 0.89579 0.0
C824 C 0.39205 0.34701 0.08594 0.0
N825 N 0.41397 0.38691 0.10144 0.0
N826 N 0.38839 0.41177 0.10155 0.0
C827 C 0.34983 0.34683 0.07553 0.0
C828 C 0.34882 0.3888 0.08582 0.0
H829 H 0.41225 0.29773 0.10891 0.0
H830 H 0.3925 0.28526 0.05311 0.0
H831 H 0.44393 0.32031 0.07763 0.0
C832 C 0.41134 0.3104 0.08078 0.0
H833 H 0.31911 0.43941 0.10063 0.0
H834 H 0.29733 0.40462 0.04973 0.0
H835 H 0.28692 0.38737 0.09476 0.0
C836 C 0.31096 0.40627 0.08293 0.0
C837 C 0.6229 0.50596 0.81049 0.0
N838 N 0.60213 0.49339 0.83797 0.0
N839 N 0.61305 0.46021 0.84708 0.0
C840 C 0.64716 0.47792 0.80081 0.0
C841 C 0.63985 0.44916 0.82469 0.0
C842 C 0.62111 0.5448 0.79568 0.0
H843 H 0.61996 0.53872 0.76175 0.0
H844 H 0.64983 0.56959 0.81246 0.0
H845 H 0.59363 0.55621 0.80222 0.0
C846 C 0.65975 0.41352 0.82811 0.0
H847 H 0.64844 0.38908 0.79826 0.0
H848 H 0.69424 0.42453 0.83369 0.0
H849 H 0.65166 0.39962 0.8537 0.0
C850 C 0.48455 0.48127 0.19804 0.0
C851 C 0.47667 0.41194 0.03843 0.0
Cu852 Cu 0.59072 0.38329 0.03207 0.0
Cu853 Cu 0.54187 0.39073 0.09432 0.0
Cu854 Cu 0.38307 0.53732 0.10241 0.0
Cu855 Cu 0.36692 0.57833 0.0365 0.0
Cu856 Cu 0.51434 0.57241 0.87655 0.0
Cu857 Cu 0.56675 0.51427 0.86782 0.0
Cu858 Cu 0.38194 0.5892 0.9559 0.0
Cu859 Cu 0.44028 0.59197 0.90215 0.0
Cu860 Cu 0.59142 0.44029 0.88766 0.0
Cu861 Cu 0.6017 0.39247 0.94921 0.0
Cu862 Cu 0.46969 0.41304 0.12322 0.0
Cu863 Cu 0.41352 0.46745 0.12685 0.0
H864 H 0.51308 0.29658 0.05894 0.0
H865 H 0.56808 0.30098 0.06118 0.0
H866 H 0.53108 0.28946 0.01118 0.0
H867 H 0.5648 0.45804 0.0313 0.0
H868 H 0.5306 0.4469 0.97999 0.0
H869 H 0.58605 0.4697 0.98837 0.0
H870 H 0.27688 0.51476 0.02249 0.0
H871 H 0.28841 0.5522 0.0724 0.0
H872 H 0.28853 0.49806 0.07044 0.0
H873 H 0.45872 0.54731 0.07526 0.0
H874 H 0.45255 0.49556 0.04346 0.0
H875 H 0.48059 0.50962 0.09784 0.0
H876 H 0.52483 0.49766 0.77999 0.0
H877 H 0.5089 0.54643 0.78559 0.0
H878 H 0.47151 0.49814 0.7819 0.0
H879 H 0.50538 0.59289 0.97413 0.0
H880 H 0.52756 0.5499 0.95589 0.0
H881 H 0.47658 0.53936 0.96708 0.0
H882 H 0.46208 0.6804 0.94302 0.0
H883 H 0.41376 0.67912 0.95968 0.0
H884 H 0.46137 0.68031 -0.0035 0.0
H885 H 0.35356 0.50169 0.95667 0.0
H886 H 0.40878 0.5037 0.96397 0.0
H887 H 0.38276 0.49712 0.00551 0.0
H888 H 0.68754 0.48159 0.97229 0.0
H889 H 0.68827 0.4285 0.94897 0.0
H890 H 0.68235 0.4649 0.91662 0.0
H891 H 0.50917 0.42423 0.9035 0.0
H892 H 0.49844 0.47506 0.91753 0.0
H893 H 0.49356 0.45024 0.86322 0.0
H894 H 0.50109 0.51486 0.20594 0.0
H895 H 0.45837 0.47726 0.21377 0.0
H896 H 0.50672 0.46301 0.20884 0.0
H897 H 0.484 0.38517 0.01855 0.0
H898 H 0.44254 0.40499 0.03625 0.0
H899 H 0.48584 0.44048 0.02733 0.0
O900 O 0.54467 0.34896 0.04662 0.0
O901 O 0.56908 0.40814 0.98836 0.0
O902 O 0.33749 0.53263 0.05519 0.0
O903 O 0.41723 0.50012 0.08618 0.0
O904 O 0.51542 0.52235 0.83662 0.0
O905 O 0.47995 0.5592 0.91422 0.0
O906 O 0.43374 0.62546 0.95331 0.0
O907 O 0.39345 0.55512 -0.00565 0.0
O908 O 0.63187 0.44306 0.93832 0.0
O909 O 0.55274 0.47376 0.89942 0.0
O910 O 0.46924 0.46739 0.15563 0.0
O911 O 0.49806 0.41836 0.07909 0.0
H912 H 0.89481 0.18097 0.17819 0.0
H913 H -0.00026 0.12737 0.2085 0.0
H914 H 0.03071 0.18497 0.271 0.0
H915 H 0.03016 0.25316 0.31337 0.0
H916 H 0.92592 0.30754 0.28237 0.0
H917 H 0.89219 0.24711 0.2231 0.0
C918 C 0.92439 0.18207 0.1987 0.0
C919 C 0.94528 0.15056 0.18924 0.0
C920 C 0.942 0.21532 0.23396 0.0
C921 C 0.98322 0.15144 0.21582 0.0
C922 C 0.00093 0.18435 0.25123 0.0
C923 C -0.00036 0.25119 0.29411 0.0
C924 C 0.9803 0.2843 0.30173 0.0
C925 C 0.98086 0.21673 0.26021 0.0
C926 C 0.94125 0.28224 0.27643 0.0
C927 C 0.92207 0.24782 0.24277 0.0
H928 H 0.80681 0.01872 0.21488 0.0
H929 H 0.73764 0.89208 0.15311 0.0
H930 H 0.69234 0.89453 0.20229 0.0
H931 H 0.6705 0.93432 0.26056 0.0
H932 H 0.7391 0.06142 0.32123 0.0
H933 H 0.78581 0.058 0.27361 0.0
C934 C 0.78158 -0.00817 0.21206 0.0
C935 C 0.77518 0.95538 0.18049 0.0
C936 C 0.75537 -0.00613 0.23976 0.0
C937 C 0.74324 0.92028 0.17759 0.0
C938 C 0.71719 0.92183 0.2054 0.0
C939 C 0.69603 0.961 0.26357 0.0
C940 C 0.70153 -0.00191 0.29405 0.0
C941 C 0.72275 0.95863 0.23632 0.0
C942 C 0.73405 0.03284 0.29739 0.0
C943 C 0.76088 0.03075 0.27048 0.0
H944 H 0.98508 0.80912 0.21688 0.0
H945 H -0.0036 0.70713 0.12292 0.0
H946 H 0.00148 0.66411 0.17386 0.0
H947 H 0.00073 0.65563 0.24444 0.0
H948 H -0.00668 0.7591 0.33942 0.0
H949 H 0.98732 0.80156 0.28832 0.0
C950 C 0.98824 0.77729 0.20768 0.0
C951 C -0.01032 0.76063 0.16652 0.0
C952 C -0.00841 0.7533 0.23708 0.0
C953 C -0.00501 0.72004 0.15467 0.0
C954 C -0.00217 0.69563 0.18365 0.0
C955 C -0.00128 0.68775 0.25412 0.0
C956 C -0.00224 0.70449 0.2955 0.0
C957 C -0.00391 0.71198 0.22488 0.0
C958 C -0.00628 0.74561 0.30749 0.0
C959 C -0.00947 0.76988 0.27843 0.0
H960 H 0.2758 0.95922 0.3155 0.0
H961 H 0.31862 0.07734 0.28672 0.0
H962 H 0.25635 0.06161 0.2295 0.0
H963 H 0.19037 0.01381 0.18735 0.0
H964 H 0.14937 0.89365 0.21279 0.0
H965 H 0.20902 0.91128 0.27317 0.0
C966 C 0.27132 0.98122 0.2964 0.0
C967 C 0.30165 0.01884 0.30433 0.0
C968 C 0.23544 0.97201 0.26383 0.0
C969 C 0.29589 0.04765 0.28011 0.0
C970 C 0.26018 0.03892 0.24786 0.0
C971 C 0.19469 -0.00843 0.20616 0.0
C972 C 0.16592 0.95263 0.19588 0.0
C973 C 0.22988 0.00115 0.23939 0.0
C974 C 0.17092 0.92419 0.22076 0.0
C975 C 0.2053 0.93399 0.25481 0.0
H976 H 0.00146 0.8355 0.78477 0.0
H977 H 0.11046 0.79212 0.82809 0.0
H978 H 0.08573 0.72962 0.76978 0.0
H979 H 0.03245 0.68722 0.70669 0.0
H980 H 0.92311 0.73055 0.6643 0.0
H981 H 0.94904 0.79394 0.72122 0.0
C982 C 0.01999 0.81259 0.78091 0.0
C983 C 0.05764 0.81814 0.81017 0.0
C984 C 0.00561 0.77702 0.74744 0.0
C985 C 0.08114 0.78804 0.80581 0.0
C986 C 0.06713 0.75253 0.77249 0.0
C987 C 0.01444 0.71063 0.71017 0.0
C988 C 0.97621 0.70466 0.68158 0.0
C989 C 0.02929 0.74661 0.74324 0.0
C990 C 0.95303 0.73506 0.68577 0.0
C991 C 0.96765 0.77106 0.71841 0.0
H992 H 0.15606 0.00021 0.74737 0.0
H993 H 0.26782 0.02361 0.84481 0.0
H994 H 0.30733 0.005 0.79267 0.0
H995 H 0.30925 0.98079 0.71951 0.0
H996 H 0.19755 0.9566 0.62184 0.0
H997 H 0.15815 0.97633 0.67389 0.0
C998 C 0.18928 0.00205 0.75686 0.0
C999 C 0.20954 0.01377 0.79934 0.0
C1000 C 0.21124 0.99027 0.72689 0.0
C1001 C 0.25213 0.01506 0.81194 0.0
C1002 C 0.27447 0.00411 0.7823 0.0
C1003 C 0.27605 0.97897 0.70991 0.0
C1004 C 0.25572 0.96644 0.66745 0.0
C1005 C 0.25416 -0.00893 0.73977 0.0
C1006 C 0.21325 0.96556 0.65472 0.0
C1007 C 0.19098 0.97715 0.68431 0.0
H1008 H -0.00963 0.33511 0.75 0.0
H1009 H -0.00072 0.24329 0.64461 0.0
H1010 H -0.00163 0.19121 0.68587 0.0
H1011 H -0.00567 0.17169 0.75173 0.0
H1012 H 0.98119 0.26185 0.85591 0.0
H1013 H 0.98282 0.31458 0.81487 0.0
C1014 C -0.0085 0.30354 0.73596 0.0
C1015 C -0.00467 0.29309 0.69458 0.0
C1016 C -0.01022 0.27352 0.75949 0.0
C1017 C -0.00254 0.25232 0.67682 0.0
C1018 C -0.00353 0.22242 0.70021 0.0
C1019 C -0.00804 0.20297 0.7653 0.0
C1020 C 0.98787 0.21332 0.8065 0.0
C1021 C -0.00727 0.23273 0.74156 0.0
C1022 C 0.98407 0.25347 0.82396 0.0
C1023 C 0.98525 0.28353 0.80066 0.0
H1024 H 0.67633 0.92034 0.71201 0.0
H1025 H 0.69126 0.03033 0.66354 0.0
H1026 H 0.75615 0.06357 0.71743 0.0
H1027 H 0.80807 0.06123 0.77882 0.0
H1028 H 0.79321 0.95115 0.82716 0.0
H1029 H 0.72884 0.91756 0.77271 0.0
C1030 C 0.6937 0.95176 0.71376 0.0
C1031 C 0.67942 0.97322 0.68447 0.0
C1032 C 0.731 0.97026 0.74438 0.0
C1033 C 0.70212 0.01352 0.6861 0.0
C1034 C 0.73909 0.03238 0.71671 0.0
C1035 C 0.79094 0.02965 0.77682 0.0
C1036 C 0.80492 0.00839 0.80645 0.0
C1037 C 0.75392 0.01094 0.74587 0.0
C1038 C 0.78254 0.96784 0.80442 0.0
C1039 C 0.74584 0.9488 0.7735 0.0
H1040 H 0.28625 0.33405 0.00826 0.0
H1041 H 0.33349 0.278 0.10619 0.0
H1042 H 0.27361 0.21708 0.07894 0.0
H1043 H 0.20775 0.18002 0.02705 0.0
H1044 H 0.16203 0.23532 0.92787 0.0
H1045 H 0.22049 0.29721 0.95663 0.0
C1046 C 0.28305 0.30867 0.02382 0.0
C1047 C 0.31387 0.31024 0.05906 0.0
C1048 C 0.2487 0.27397 0.00798 0.0
C1049 C 0.31015 0.27698 0.07865 0.0
C1050 C 0.27588 0.24238 0.06327 0.0
C1051 C 0.21092 0.20558 0.0117 0.0
C1052 C 0.18095 0.20337 0.97553 0.0
C1053 C 0.24505 0.24051 0.02787 0.0
C1054 C 0.18461 0.23678 0.95615 0.0
C1055 C 0.21815 0.27193 0.97234 0.0
H1056 H 0.32218 0.7329 0.98708 0.0
H1057 H 0.21844 0.63984 -0.00299 0.0
H1058 H 0.17568 0.69105 0.00072 0.0
H1059 H 0.1684 0.76201 0.00135 0.0
H1060 H 0.27333 0.85673 -0.0038 0.0
H1061 H 0.31515 0.80481 0.98914 0.0
C1062 C 0.29003 0.72395 0.98955 0.0
C1063 C 0.27297 0.68299 0.9914 0.0
C1064 C 0.26615 0.75367 -0.00754 0.0
C1065 C 0.2318 0.67146 -0.00448 0.0
C1066 C 0.20751 0.7006 -0.00239 0.0
C1067 C 0.20068 0.77146 -0.00044 0.0
C1068 C 0.21814 0.81306 -7e-05 0.0
C1069 C 0.22451 0.74182 -0.00358 0.0
C1070 C 0.2594 0.8247 -0.0041 0.0
C1071 C 0.28327 0.79515 0.99204 0.0
H1072 H 0.66231 0.24469 0.00588 0.0
H1073 H 0.75566 0.34286 0.98739 0.0
H1074 H 0.8051 0.29811 0.9875 0.0
H1075 H 0.82121 0.23106 -0.00724 0.0
H1076 H 0.7261 0.13112 0.00624 0.0
H1077 H 0.67801 0.17691 0.00953 0.0
C1078 C 0.69365 0.25621 0.00227 0.0
C1079 C 0.70574 0.29671 -0.00322 0.0
C1080 C 0.72142 0.23015 0.00173 0.0
C1081 C 0.74595 0.31149 0.9914 0.0
C1082 C 0.77411 0.28605 0.99159 0.0
C1083 C 0.78976 0.21915 -0.00423 0.0
C1084 C 0.77712 0.17788 -0.00079 0.0
C1085 C 0.76205 0.24525 -0.00353 0.0
C1086 C 0.7367 0.16307 0.00424 0.0
C1087 C 0.70911 0.18909 0.00576 0.0
H1088 H 0.77295 0.78703 0.04245 0.0
H1089 H 0.81902 0.76054 0.93136 0.0
H1090 H 0.7611 0.6978 0.90171 0.0
H1091 H 0.69638 0.65214 0.90716 0.0
H1092 H 0.65028 0.67941 0.01817 0.0
H1093 H 0.70922 0.74091 0.04844 0.0
C1094 C 0.76987 0.76765 0.01156 0.0
C1095 C 0.79936 0.77812 0.98861 0.0
C1096 C 0.73678 0.73208 -0.00498 0.0
C1097 C 0.79619 0.75266 0.94919 0.0
C1098 C 0.76326 0.71702 0.93237 0.0
C1099 C 0.69976 0.67137 0.93819 0.0
C1100 C 0.66958 0.66182 0.96069 0.0
C1101 C 0.73335 0.70656 0.95501 0.0
C1102 C 0.67338 0.68683 0.0005 0.0
C1103 C 0.70692 0.72176 0.0177 0.0
H1104 H 0.71276 0.54238 0.80906 0.0
H1105 H 0.64941 0.41781 0.73519 0.0
H1106 H 0.70252 0.41922 0.69429 0.0
H1107 H 0.76706 0.45595 0.68013 0.0
H1108 H 0.83165 0.5798 0.75502 0.0
H1109 H 0.77751 0.57926 0.79474 0.0
C1110 C 0.7104 0.51593 0.78354 0.0
C1111 C 0.67744 0.48018 0.77465 0.0
C1112 C 0.74118 0.5169 0.76063 0.0
C1113 C 0.67484 0.44554 0.74236 0.0
C1114 C 0.70507 0.44637 0.71907 0.0
C1115 C 0.76945 0.48251 0.70554 0.0
C1116 C 0.80306 0.51776 0.71503 0.0
C1117 C 0.73852 0.48175 0.72819 0.0
C1118 C 0.80563 0.55252 0.74719 0.0
C1119 C 0.77487 0.55213 0.76989 0.0
H1120 H 0.1676 0.41745 0.69807 0.0
H1121 H 0.20631 0.51902 0.64238 0.0
H1122 H 0.26768 0.54933 0.70129 0.0
H1123 H 0.30779 0.54823 0.77005 0.0
H1124 H 0.26884 0.44658 0.82564 0.0
H1125 H 0.20903 0.41504 0.76557 0.0
C1126 C 0.18953 0.4463 0.6991 0.0
C1127 C 0.18285 0.4664 0.66661 0.0
C1128 C 0.22413 0.46344 0.73297 0.0
C1129 C 0.2114 0.50322 0.66734 0.0
C1130 C 0.24617 0.52052 0.70095 0.0
C1131 C 0.2865 0.51884 0.76855 0.0
C1132 C 0.29225 0.49955 0.80181 0.0
C1133 C 0.25257 0.50105 0.73406 0.0
C1134 C 0.26434 0.46201 0.80034 0.0
C1135 C 0.23045 0.44396 0.76604 0.0
H1136 H 0.21583 0.47176 0.31497 0.0
H1137 H 0.12456 0.47058 0.20541 0.0
H1138 H 0.17969 0.48178 0.16743 0.0
H1139 H 0.25375 0.49312 0.16637 0.0
H1140 H 0.34575 0.49775 0.27682 0.0
H1141 H 0.29027 0.48303 0.31376 0.0
C1142 C 0.20814 0.47311 0.28251 0.0
C1143 C 0.16657 0.46968 0.26241 0.0
C1144 C 0.23999 0.48047 0.26147 0.0
C1145 C 0.1566 0.47277 0.22095 0.0
C1146 C 0.18799 0.47931 0.19946 0.0
C1147 C 0.26165 0.49181 0.19879 0.0
C1148 C 0.30353 0.4974 0.21939 0.0
C1149 C 0.2298 0.48371 0.21962 0.0
C1150 C 0.3135 0.4938 0.26072 0.0
C1151 C 0.28191 0.4854 0.28171 0.0
H1152 H 0.6834 0.43919 0.20687 0.0
H1153 H 0.71667 0.53713 0.14505 0.0
H1154 H 0.7793 0.57042 0.20203 0.0
H1155 H 0.82243 0.57281 0.27095 0.0
H1156 H 0.78779 0.47517 0.33284 0.0
H1157 H 0.72699 0.44071 0.27462 0.0
C1158 C 0.70429 0.46801 0.20617 0.0
C1159 C 0.69568 0.48614 0.17241 0.0
C1160 C 0.73958 0.48693 0.23902 0.0
C1161 C 0.72313 0.52283 0.17096 0.0
C1162 C 0.75866 0.54182 0.20349 0.0
C1163 C 0.8018 0.54369 0.27125 0.0
C1164 C 0.80917 0.52638 0.30583 0.0
C1165 C 0.76699 0.52428 0.23781 0.0
C1166 C 0.78213 0.48912 0.30656 0.0
C1167 C 0.74761 0.4694 0.27331 0.0
H1168 H 0.31824 0.74941 0.53801 0.0
H1169 H 0.29409 0.81074 0.43808 0.0
H1170 H 0.23453 0.75196 0.40003 0.0
H1171 H 0.186 0.68626 0.39866 0.0
H1172 H 0.21083 0.62432 0.49786 0.0
H1173 H 0.27462 0.67969 0.53256 0.0
C1174 C 0.30054 0.74933 0.50744 0.0
C1175 C 0.3098 0.7843 0.49092 0.0
C1176 C 0.26668 0.71548 0.48588 0.0
C1177 C 0.28663 0.78429 0.45156 0.0
C1178 C 0.25283 0.75074 0.42983 0.0
C1179 C 0.20585 0.68484 0.42761 0.0
C1180 C 0.19415 0.65197 0.44618 0.0
C1181 C 0.24197 0.71673 0.44724 0.0
C1182 C 0.21977 0.64962 0.48329 0.0
C1183 C 0.25591 0.68127 0.50312 0.0
H1184 H 0.14392 0.23227 0.48438 0.0
H1185 H 0.23373 0.33497 0.46812 0.0
H1186 H 0.28576 0.29321 0.46801 0.0
H1187 H 0.30597 0.22815 0.4745 0.0
H1188 H 0.21519 0.12408 0.48732 0.0
H1189 H 0.16328 0.16584 0.48764 0.0
C1190 C 0.17499 0.24534 0.48099 0.0
C1191 C 0.18533 0.28635 0.47633 0.0
C1192 C 0.20443 0.22104 0.48056 0.0
C1193 C 0.22527 0.30318 0.47139 0.0
C1194 C 0.25495 0.27943 0.47149 0.0
C1195 C 0.2746 0.21441 0.47659 0.0
C1196 C 0.26438 0.17328 0.48108 0.0
C1197 C 0.24486 0.23835 0.47608 0.0
C1198 C 0.22392 0.15602 0.48461 0.0
C1199 C 0.1942 0.17976 0.48454 0.0
H1200 H 0.74771 0.67179 0.50463 0.0
H1201 H 0.85186 0.76214 0.49144 0.0
H1202 H 0.80915 0.81316 0.48816 0.0
H1203 H 0.74234 0.83197 0.49007 0.0
H1204 H 0.63774 0.74085 0.50151 0.0
H1205 H 0.68053 0.69009 0.50506 0.0
C1206 C 0.76098 0.70283 0.50147 0.0
C1207 C 0.80256 0.71359 0.49841 0.0
C1208 C 0.73623 0.73163 0.4993 0.0
C1209 C 0.81962 0.75342 0.49355 0.0
C1210 C 0.79533 0.78249 0.49177 0.0
C1211 C 0.7289 0.80079 0.49273 0.0
C1212 C 0.68726 0.78998 0.49572 0.0
C1213 C 0.75357 0.77186 0.49449 0.0
C1214 C 0.67008 0.74985 0.49984 0.0
C1215 C 0.6944 0.72085 0.50169 0.0
H1216 H 0.69993 0.18246 0.513 0.0
H1217 H 0.65894 0.23061 0.40687 0.0
H1218 H 0.71328 0.29579 0.43756 0.0
H1219 H 0.77466 0.33757 0.49334 0.0
H1220 H 0.81637 0.28855 0.59864 0.0
H1221 H 0.75977 0.22497 0.56966 0.0
C1222 C 0.70335 0.20713 0.49654 0.0
C1223 C 0.67617 0.20193 0.45773 0.0
C1224 C 0.7346 0.24425 0.51431 0.0
C1225 C 0.67979 0.23428 0.43692 0.0
C1226 C 0.71078 0.2714 0.45439 0.0
C1227 C 0.77068 0.3132 0.51013 0.0
C1228 C 0.79916 0.31735 0.54789 0.0
C1229 C 0.73852 0.27663 0.49296 0.0
C1230 C 0.79457 0.28557 0.56933 0.0
C1231 C 0.76239 0.24933 0.55278 0.0
H1232 H 0.46836 0.25603 0.82473 0.0
H1233 H 0.57095 0.29796 0.77099 0.0
H1234 H 0.54131 0.23988 0.70895 0.0
H1235 H 0.48419 0.17981 0.66857 0.0
H1236 H 0.38057 0.1381 0.72103 0.0
H1237 H 0.41281 0.19296 0.78558 0.0
C1238 C 0.48441 0.25176 0.79966 0.0
C1239 C 0.52143 0.28086 0.80187 0.0
C1240 C 0.4669 0.21866 0.764 0.0
C1241 C 0.5421 0.27579 0.76937 0.0
C1242 C 0.52521 0.24274 0.73404 0.0
C1243 C 0.4687 0.18299 0.69413 0.0
C1244 C 0.43004 0.1557 0.69024 0.0
C1245 C 0.48722 0.21455 0.73069 0.0
C1246 C 0.41049 0.15906 0.72369 0.0
C1247 C 0.42881 0.19038 0.7604 0.0
H1248 H 0.47365 0.81286 0.74015 0.0
H1249 H 0.49951 0.72696 0.64056 0.0
H1250 H 0.4984 0.67444 0.68173 0.0
H1251 H 0.48851 0.65283 0.74545 0.0
H1252 H 0.46589 0.74 0.84637 0.0
H1253 H 0.46589 0.79194 0.8048 0.0
C1254 C 0.47877 0.7825 0.72752 0.0
C1255 C 0.48656 0.77346 0.6876 0.0
C1256 C 0.47825 0.75276 0.75138 0.0
C1257 C 0.49387 0.73449 0.67152 0.0
C1258 C 0.493 0.70449 0.69489 0.0
C1259 C 0.48425 0.68342 0.75855 0.0
C1260 C 0.47715 0.69264 0.79879 0.0
C1261 C 0.4852 0.71332 0.73485 0.0
C1262 C 0.47066 0.73199 0.81511 0.0
C1263 C 0.47101 0.76178 0.79153 0.0
H1264 H 0.51604 0.68662 0.19757 0.0
H1265 H 0.40148 0.72193 0.15604 0.0
H1266 H 0.42446 0.78549 0.21297 0.0
H1267 H 0.4751 0.82818 0.27787 0.0
H1268 H 0.58742 0.79011 0.32165 0.0
H1269 H 0.56706 0.72972 0.26135 0.0
C1270 C 0.4962 0.70831 0.20117 0.0
C1271 C 0.45725 0.69984 0.17301 0.0
C1272 C 0.50896 0.74379 0.23473 0.0
C1273 C 0.43194 0.72829 0.17717 0.0
C1274 C 0.44484 0.76432 0.20994 0.0
C1275 C 0.49505 0.80667 0.27382 0.0
C1276 C 0.53234 0.81293 0.3039 0.0
C1277 C 0.48294 0.77197 0.23935 0.0
C1278 C 0.5582 0.78517 0.29891 0.0
C1279 C 0.54672 0.75093 0.26443 0.0
H1280 H 0.54344 0.23166 0.3202 0.0
H1281 H 0.41786 0.16679 0.25058 0.0
H1282 H 0.41896 0.21619 0.20598 0.0
H1283 H 0.45667 0.27647 0.18592 0.0
H1284 H 0.58302 0.34004 0.254 0.0
H1285 H 0.58153 0.29134 0.29951 0.0
C1286 C 0.51654 0.22823 0.29498 0.0
C1287 C 0.48058 0.19604 0.28848 0.0
C1288 C 0.51788 0.256 0.26911 0.0
C1289 C 0.4455 0.19203 0.25643 0.0
C1290 C 0.44632 0.2199 0.23076 0.0
C1291 C 0.4837 0.27962 0.21092 0.0
C1292 C 0.51988 0.31139 0.21702 0.0
C1293 C 0.48241 0.25183 0.23676 0.0
C1294 C 0.5551 0.31527 0.24882 0.0
C1295 C 0.5541 0.28774 0.27487 0.0
loop_
_geom_bond_atom_site_label_1
_geom_bond_atom_site_label_2
_geom_bond_distance
_geom_bond_site_symmetry_2
_ccdc_geom_bond_type
C0 C1 1.388 . S
C0 N3 1.338 . S
C0 C5 1.503 . S
C1 C0 1.388 . S
C1 C2 1.396 . S
C2 C1 1.396 . S
C2 N4 1.348 . S
C2 C9 1.504 . S
N3 C0 1.338 . S
N3 N4 1.361 . S
N3 Cu168 1.924 . S
N4 C2 1.348 . S
N4 N3 1.361 . S
N4 Cu169 1.964 . S
C5 C0 1.503 . S
C5 H6 0.979 . S
C5 H7 0.979 . S
C5 H8 0.979 . S
H6 C5 0.979 . S
H7 C5 0.979 . S
H8 C5 0.979 . S
C9 C2 1.504 . S
C9 H10 0.981 . S
C9 H11 0.980 1_565 S
C9 H12 0.979 . S
H10 C9 0.981 . S
H11 C9 0.980 1_545 S
H12 C9 0.979 . S
C13 C15 1.402 . S
C13 N16 1.356 . S
C13 C21 1.481 . S
C14 C15 1.400 1_455 S
C14 N17 1.331 . S
C14 C25 1.503 . S
C15 C13 1.402 . S
C15 C14 1.400 1_655 S
N16 C13 1.356 . S
N16 N17 1.338 1_655 S
N16 Cu175 1.941 . S
N17 C14 1.331 . S
N17 N16 1.338 1_455 S
N17 Cu172 1.940 . S
H18 C21 0.980 . S
H19 C21 0.980 . S
H20 C21 0.980 . S
C21 C13 1.481 . S
C21 H18 0.980 . S
C21 H19 0.980 . S
C21 H20 0.980 . S
H22 C25 0.978 . S
H23 C25 0.978 . S
H24 C25 0.983 . S
C25 C14 1.503 . S
C25 H22 0.978 . S
C25 H23 0.978 . S
C25 H24 0.983 . S
C26 H180 0.979 . S
C26 H181 0.981 . S
C26 H182 0.981 . S
C26 O216 1.438 . S
C27 H183 0.980 . S
C27 H184 0.979 . S
C27 H185 0.980 1_554 S
C27 O217 1.533 . S
C28 N29 1.338 . S
C28 C31 1.388 . S
C28 C36 1.503 . S
N29 C28 1.338 . S
N29 N30 1.361 . S
N29 Cu170 1.924 . S
N30 N29 1.361 . S
N30 C32 1.348 . S
N30 Cu171 1.964 . S
C31 C28 1.388 . S
C31 C32 1.396 . S
C32 N30 1.348 . S
C32 C31 1.396 . S
C32 C40 1.504 . S
H33 C36 0.979 . S
H34 C36 0.979 . S
H35 C36 0.979 . S
C36 C28 1.503 . S
C36 H33 0.979 . S
C36 H34 0.979 . S
C36 H35 0.979 . S
H37 C40 0.981 . S
H38 C40 0.980 1_455 S
H39 C40 0.979 . S
C40 C32 1.504 . S
C40 H37 0.981 . S
C40 H38 0.980 1_655 S
C40 H39 0.979 . S
C41 N43 1.356 . S
C41 C45 1.402 . S
C41 C49 1.481 . S
C42 N44 1.331 . S
C42 C45 1.400 1_554 S
C42 C50 1.503 . S
N43 C41 1.356 . S
N43 N44 1.338 1_556 S
N43 Cu177 1.941 . S
N44 C42 1.331 . S
N44 N43 1.338 1_554 S
N44 Cu168 1.940 . S
C45 C41 1.402 . S
C45 C42 1.400 1_556 S
H46 C49 0.980 . S
H47 C49 0.980 . S
H48 C49 0.980 . S
C49 C41 1.481 . S
C49 H46 0.980 . S
C49 H47 0.980 . S
C49 H48 0.980 . S
C50 C42 1.503 . S
C50 H51 0.978 . S
C50 H52 0.978 . S
C50 H53 0.983 . S
H51 C50 0.978 . S
H52 C50 0.978 . S
H53 C50 0.983 . S
C54 H186 0.979 . S
C54 H187 0.981 . S
C54 H188 0.981 . S
C54 O218 1.438 . S
C55 H189 0.980 . S
C55 H190 0.979 . S
C55 H191 0.980 1_545 S
C55 O219 1.533 . S
C56 N57 1.338 . S
C56 C58 1.388 . S
C56 C64 1.503 . S
N57 C56 1.338 . S
N57 N59 1.361 . S
N57 Cu172 1.924 . S
C58 C56 1.388 . S
C58 C60 1.396 . S
N59 N57 1.361 . S
N59 C60 1.348 . S
N59 Cu173 1.964 . S
C60 C58 1.396 . S
C60 N59 1.348 . S
C60 C66 1.504 . S
H61 C64 0.979 . S
H62 C64 0.979 . S
H63 C64 0.979 . S
C64 C56 1.503 . S
C64 H61 0.979 . S
C64 H62 0.979 . S
C64 H63 0.979 . S
H65 C66 0.981 . S
C66 C60 1.504 . S
C66 H65 0.981 . S
C66 H67 0.979 . S
C66 H68 0.980 1_556 S
H67 C66 0.979 . S
H68 C66 0.980 1_554 S
C69 N71 1.356 . S
C69 C73 1.402 . S
C69 C75 1.481 . S
C70 N72 1.331 . S
C70 C73 1.400 1_545 S
C70 C80 1.503 . S
N71 C69 1.356 . S
N71 N72 1.338 1_565 S
N71 Cu179 1.941 . S
N72 C70 1.331 . S
N72 N71 1.338 1_545 S
N72 Cu170 1.940 . S
C73 C69 1.402 . S
C73 C70 1.400 1_565 S
H74 C75 0.980 . S
C75 C69 1.481 . S
C75 H74 0.980 . S
C75 H76 0.980 . S
C75 H77 0.980 . S
H76 C75 0.980 . S
H77 C75 0.980 . S
H78 C80 0.978 . S
H79 C80 0.978 . S
C80 C70 1.503 . S
C80 H78 0.978 . S
C80 H79 0.978 . S
C80 H81 0.983 . S
H81 C80 0.983 . S
C82 H192 0.979 . S
C82 H193 0.981 . S
C82 H194 0.981 . S
C82 O220 1.438 . S
C83 H195 0.980 . S
C83 H196 0.979 . S
C83 H197 0.980 1_455 S
C83 O221 1.533 . S
C84 N85 1.338 . S
C84 C86 1.388 . S
C84 C89 1.503 . S
N85 C84 1.338 . S
N85 N88 1.361 . S
N85 Cu174 1.924 . S
C86 C84 1.388 . S
C86 C87 1.396 . S
C87 C86 1.396 . S
C87 N88 1.348 . S
C87 C93 1.504 . S
N88 N85 1.361 . S
N88 C87 1.348 . S
N88 Cu175 1.964 . S
C89 C84 1.503 . S
C89 H90 0.979 . S
C89 H91 0.979 . S
C89 H92 0.979 . S
H90 C89 0.979 . S
H91 C89 0.979 . S
H92 C89 0.979 . S
C93 C87 1.504 . S
C93 H94 0.981 . S
C93 H95 0.980 1_545 S
C93 H96 0.979 . S
H94 C93 0.981 . S
H95 C93 0.980 1_565 S
H96 C93 0.979 . S
C97 C98 1.402 . S
C97 N100 1.356 . S
C97 C105 1.481 . S
C98 C97 1.402 . S
C98 C99 1.400 1_455 S
C99 C98 1.400 1_655 S
C99 N101 1.329 . S
C99 C106 1.503 . S
N100 C97 1.356 . S
N100 N101 1.344 1_455 S
N100 Cu169 1.941 . S
N101 C99 1.329 . S
N101 N100 1.344 1_655 S
N101 Cu178 1.936 . S
H102 C105 0.980 . S
H103 C105 0.980 . S
H104 C105 0.980 . S
C105 C97 1.481 . S
C105 H102 0.980 . S
C105 H103 0.980 . S
C105 H104 0.980 . S
C106 C99 1.503 . S
C106 H107 0.978 . S
C106 H108 0.978 . S
C106 H109 0.983 . S
H107 C106 0.978 . S
H108 C106 0.978 . S
H109 C106 0.983 . S
C110 H198 0.979 . S
C110 H199 0.981 . S
C110 H200 0.981 . S
C110 O222 1.438 . S
C111 H201 0.980 . S
C111 H202 0.979 . S
C111 H203 0.980 1_556 S
C111 O223 1.533 . S
C112 C113 1.388 . S
C112 N115 1.338 . S
C112 C117 1.503 . S
C113 C112 1.388 . S
C113 C114 1.396 . S
C114 C113 1.396 . S
C114 N116 1.348 . S
C114 C121 1.504 . S
N115 C112 1.338 . S
N115 N116 1.361 . S
N115 Cu176 1.924 . S
N116 C114 1.348 . S
N116 N115 1.361 . S
N116 Cu177 1.964 . S
C117 C112 1.503 . S
C117 H118 0.979 . S
C117 H119 0.979 . S
C117 H120 0.979 . S
H118 C117 0.979 . S
H119 C117 0.979 . S
H120 C117 0.979 . S
C121 C114 1.504 . S
C121 H122 0.981 . S
C121 H123 0.980 1_455 S
C121 H124 0.979 . S
H122 C121 0.981 . S
H123 C121 0.980 1_655 S
H124 C121 0.979 . S
C125 C126 1.402 . S
C125 N128 1.356 . S
C125 C130 1.481 . S
C126 C125 1.402 . S
C126 C127 1.400 1_554 S
C127 C126 1.400 1_556 S
C127 N129 1.329 . S
C127 C134 1.503 . S
N128 C125 1.356 . S
N128 N129 1.344 1_554 S
N128 Cu171 1.941 . S
N129 C127 1.329 . S
N129 N128 1.344 1_556 S
N129 Cu174 1.936 . S
C130 C125 1.481 . S
C130 H131 0.980 . S
C130 H132 0.980 . S
C130 H133 0.980 . S
H131 C130 0.980 . S
H132 C130 0.980 . S
H133 C130 0.980 . S
C134 C127 1.503 . S
C134 H135 0.978 . S
C134 H136 0.978 . S
C134 H137 0.983 . S
H135 C134 0.978 . S
H136 C134 0.978 . S
H137 C134 0.983 . S
C138 H204 0.979 . S
C138 H205 0.981 . S
C138 H206 0.981 . S
C138 O224 1.438 . S
C139 H207 0.980 . S
C139 H208 0.979 . S
C139 H209 0.980 1_565 S
C139 O225 1.533 . S
C140 N141 1.338 . S
C140 C143 1.388 . S
C140 C148 1.503 . S
N141 C140 1.338 . S
N141 N142 1.361 . S
N141 Cu178 1.924 . S
N142 N141 1.361 . S
N142 C144 1.348 . S
N142 Cu179 1.964 . S
C143 C140 1.388 . S
C143 C144 1.396 . S
C144 N142 1.348 . S
C144 C143 1.396 . S
C144 C152 1.504 . S
H145 C148 0.979 . S
H146 C148 0.979 . S
H147 C148 0.979 . S
C148 C140 1.503 . S
C148 H145 0.979 . S
C148 H146 0.979 . S
C148 H147 0.979 . S
H149 C152 0.981 . S
H150 C152 0.980 1_556 S
H151 C152 0.979 . S
C152 C144 1.504 . S
C152 H149 0.981 . S
C152 H150 0.980 1_554 S
C152 H151 0.979 . S
C153 N154 1.356 . S
C153 C156 1.402 . S
C153 C158 1.481 . S
N154 C153 1.356 . S
N154 N155 1.344 1_545 S
N154 Cu173 1.941 . S
N155 N154 1.344 1_565 S
N155 C157 1.329 . S
N155 Cu176 1.936 . S
C156 C153 1.402 . S
C156 C157 1.400 1_545 S
C157 N155 1.329 . S
C157 C156 1.400 1_565 S
C157 C162 1.503 . S
C158 C153 1.481 . S
C158 H159 0.980 . S
C158 H160 0.980 . S
C158 H161 0.980 . S
H159 C158 0.980 . S
H160 C158 0.980 . S
H161 C158 0.980 . S
C162 C157 1.503 . S
C162 H163 0.978 . S
C162 H164 0.978 . S
C162 H165 0.983 . S
H163 C162 0.978 . S
H164 C162 0.978 . S
H165 C162 0.983 . S
C166 H210 0.979 . S
C166 H211 0.981 . S
C166 H212 0.981 . S
C166 O226 1.438 . S
C167 H213 0.980 . S
C167 H214 0.979 . S
C167 H215 0.980 1_655 S
C167 O227 1.533 . S
Cu168 N3 1.924 . S
Cu168 N44 1.940 . S
Cu168 O216 1.923 . S
Cu168 O217 1.930 . S
Cu169 N4 1.964 . S
Cu169 N100 1.941 . S
Cu169 O216 1.905 . S
Cu169 O227 1.920 1_455 S
Cu170 N29 1.924 . S
Cu170 N72 1.940 . S
Cu170 O218 1.923 . S
Cu170 O219 1.930 . S
Cu171 N30 1.964 . S
Cu171 N128 1.941 . S
Cu171 O218 1.905 . S
Cu171 O223 1.920 1_554 S
Cu172 N17 1.940 . S
Cu172 N57 1.924 . S
Cu172 O220 1.923 . S
Cu172 O221 1.930 . S
Cu173 N59 1.964 . S
Cu173 N154 1.941 . S
Cu173 O220 1.905 . S
Cu173 O225 1.920 1_545 S
Cu174 N85 1.924 . S
Cu174 N129 1.936 . S
Cu174 O222 1.923 . S
Cu174 O223 1.930 . S
Cu175 N16 1.941 . S
Cu175 N88 1.964 . S
Cu175 O221 1.920 1_655 S
Cu175 O222 1.905 . S
Cu176 N115 1.924 . S
Cu176 N155 1.936 . S
Cu176 O224 1.923 . S
Cu176 O225 1.930 . S
Cu177 N43 1.941 . S
Cu177 N116 1.964 . S
Cu177 O217 1.920 1_556 S
Cu177 O224 1.905 . S
Cu178 N101 1.936 . S
Cu178 N141 1.924 . S
Cu178 O226 1.923 . S
Cu178 O227 1.930 . S
Cu179 N71 1.941 . S
Cu179 N142 1.964 . S
Cu179 O219 1.920 1_565 S
Cu179 O226 1.905 . S
H180 C26 0.979 . S
H181 C26 0.981 . S
H182 C26 0.981 . S
H183 C27 0.980 . S
H184 C27 0.979 . S
H185 C27 0.980 1_556 S
H186 C54 0.979 . S
H187 C54 0.981 . S
H188 C54 0.981 . S
H189 C55 0.980 . S
H190 C55 0.979 . S
H191 C55 0.980 1_565 S
H192 C82 0.979 . S
H193 C82 0.981 . S
H194 C82 0.981 . S
H195 C83 0.980 . S
H196 C83 0.979 . S
H197 C83 0.980 1_655 S
H198 C110 0.979 . S
H199 C110 0.981 . S
H200 C110 0.981 . S
H201 C111 0.980 . S
H202 C111 0.979 . S
H203 C111 0.980 1_554 S
H204 C138 0.979 . S
H205 C138 0.981 . S
H206 C138 0.981 . S
H207 C139 0.980 . S
H208 C139 0.979 . S
H209 C139 0.980 1_545 S
H210 C166 0.979 . S
H211 C166 0.981 . S
H212 C166 0.981 . S
H213 C167 0.980 . S
H214 C167 0.979 . S
H215 C167 0.980 1_455 S
O216 C26 1.438 . S
O216 Cu168 1.923 . S
O216 Cu169 1.905 . S
O217 C27 1.533 . S
O217 Cu168 1.930 . S
O217 Cu177 1.920 1_554 S
O218 C54 1.438 . S
O218 Cu170 1.923 . S
O218 Cu171 1.905 . S
O219 C55 1.533 . S
O219 Cu170 1.930 . S
O219 Cu179 1.920 1_545 S
O220 C82 1.438 . S
O220 Cu172 1.923 . S
O220 Cu173 1.905 . S
O221 C83 1.533 . S
O221 Cu172 1.930 . S
O221 Cu175 1.920 1_455 S
O222 C110 1.438 . S
O222 Cu174 1.923 . S
O222 Cu175 1.905 . S
O223 C111 1.533 . S
O223 Cu171 1.920 1_556 S
O223 Cu174 1.930 . S
O224 C138 1.438 . S
O224 Cu176 1.923 . S
O224 Cu177 1.905 . S
O225 C139 1.533 . S
O225 Cu173 1.920 1_565 S
O225 Cu176 1.930 . S
O226 C166 1.438 . S
O226 Cu178 1.923 . S
O226 Cu179 1.905 . S
O227 C167 1.533 . S
O227 Cu169 1.920 1_655 S
O227 Cu178 1.930 . S
C228 C229 1.388 . S
C228 N231 1.338 . S
C228 C233 1.503 . S
C229 C228 1.388 . S
C229 C230 1.396 . S
C230 C229 1.396 . S
C230 N232 1.348 . S
C230 C237 1.504 . S
N231 C228 1.338 . S
N231 N232 1.361 . S
N231 Cu396 1.924 . S
N232 C230 1.348 . S
N232 N231 1.361 . S
N232 Cu397 1.964 . S
C233 C228 1.503 . S
C233 H234 0.979 . S
C233 H235 0.979 . S
C233 H236 0.979 . S
H234 C233 0.979 . S
H235 C233 0.979 . S
H236 C233 0.979 . S
C237 C230 1.504 . S
C237 H238 0.981 . S
C237 H239 0.980 . S
C237 H240 0.979 . S
H238 C237 0.981 . S
H239 C237 0.980 . S
H240 C237 0.979 . S
C241 C243 1.402 . S
C241 N244 1.356 . S
C241 C249 1.481 . S
C242 C243 1.400 1_455 S
C242 N245 1.331 . S
C242 C253 1.503 . S
C243 C241 1.402 . S
C243 C242 1.400 1_655 S
N244 C241 1.356 . S
N244 N245 1.338 1_655 S
N244 Cu403 1.941 . S
N245 C242 1.331 . S
N245 N244 1.338 1_455 S
N245 Cu400 1.940 . S
H246 C249 0.980 . S
H247 C249 0.980 . S
H248 C249 0.980 . S
C249 C241 1.481 . S
C249 H246 0.980 . S
C249 H247 0.980 . S
C249 H248 0.980 . S
H250 C253 0.978 . S
H251 C253 0.978 . S
H252 C253 0.983 . S
C253 C242 1.503 . S
C253 H250 0.978 . S
C253 H251 0.978 . S
C253 H252 0.983 . S
C254 H408 0.979 . S
C254 H409 0.981 . S
C254 H410 0.981 . S
C254 O444 1.438 . S
C255 H411 0.980 . S
C255 H412 0.979 . S
C255 H413 0.980 . S
C255 O445 1.533 . S
C256 N257 1.338 . S
C256 C259 1.388 . S
C256 C264 1.503 . S
N257 C256 1.338 . S
N257 N258 1.361 . S
N257 Cu398 1.924 . S
N258 N257 1.361 . S
N258 C260 1.348 . S
N258 Cu399 1.964 . S
C259 C256 1.388 . S
C259 C260 1.396 . S
C260 N258 1.348 . S
C260 C259 1.396 . S
C260 C268 1.504 . S
H261 C264 0.979 . S
H262 C264 0.979 . S
H263 C264 0.979 . S
C264 C256 1.503 . S
C264 H261 0.979 . S
C264 H262 0.979 . S
C264 H263 0.979 . S
H265 C268 0.981 . S
H266 C268 0.980 1_455 S
H267 C268 0.979 . S
C268 C260 1.504 . S
C268 H265 0.981 . S
C268 H266 0.980 1_655 S
C268 H267 0.979 . S
C269 N271 1.356 . S
C269 C273 1.402 . S
C269 C277 1.481 . S
C270 N272 1.325 . S
C270 C273 1.400 . S
C270 C278 1.503 . S
N271 C269 1.356 . S
N271 N272 1.365 . S
N271 Cu405 1.941 . S
N272 C270 1.325 . S
N272 N271 1.365 . S
N272 Cu396 1.924 . S
C273 C269 1.402 . S
C273 C270 1.400 . S
H274 C277 0.980 . S
H275 C277 0.980 . S
H276 C277 0.980 . S
C277 C269 1.481 . S
C277 H274 0.980 . S
C277 H275 0.980 . S
C277 H276 0.980 . S
C278 C270 1.503 . S
C278 H279 0.978 . S
C278 H280 0.978 . S
C278 H281 0.983 . S
H279 C278 0.978 . S
H280 C278 0.978 . S
H281 C278 0.983 . S
C282 H414 0.979 . S
C282 H415 0.981 . S
C282 H416 0.981 . S
C282 O446 1.438 . S
C283 H417 0.980 . S
C283 H418 0.979 . S
C283 H419 0.980 . S
C283 O447 1.533 . S
C284 N285 1.338 . S
C284 C286 1.388 . S
C284 C292 1.503 . S
N285 C284 1.338 . S
N285 N287 1.361 . S
N285 Cu400 1.924 . S
C286 C284 1.388 . S
C286 C288 1.396 . S
N287 N285 1.361 . S
N287 C288 1.348 . S
N287 Cu401 1.964 . S
C288 C286 1.396 . S
C288 N287 1.348 . S
C288 C294 1.504 . S
H289 C292 0.979 . S
H290 C292 0.979 . S
H291 C292 0.979 . S
C292 C284 1.503 . S
C292 H289 0.979 . S
C292 H290 0.979 . S
C292 H291 0.979 . S
H293 C294 0.981 . S
C294 C288 1.504 . S
C294 H293 0.981 . S
C294 H295 0.979 . S
C294 H296 0.980 . S
H295 C294 0.979 . S
H296 C294 0.980 . S
C297 N299 1.356 . S
C297 C301 1.402 . S
C297 C303 1.481 . S
C298 N300 1.325 . S
C298 C301 1.400 . S
C298 C308 1.503 . S
N299 C297 1.356 . S
N299 N300 1.365 . S
N299 Cu407 1.941 . S
N300 C298 1.325 . S
N300 N299 1.365 . S
N300 Cu398 1.924 . S
C301 C297 1.402 . S
C301 C298 1.400 . S
H302 C303 0.980 . S
C303 C297 1.481 . S
C303 H302 0.980 . S
C303 H304 0.980 . S
C303 H305 0.980 . S
H304 C303 0.980 . S
H305 C303 0.980 . S
H306 C308 0.978 . S
H307 C308 0.978 . S
C308 C298 1.503 . S
C308 H306 0.978 . S
C308 H307 0.978 . S
C308 H309 0.983 . S
H309 C308 0.983 . S
C310 H420 0.979 . S
C310 H421 0.981 . S
C310 H422 0.981 . S
C310 O448 1.438 . S
C311 H423 0.980 . S
C311 H424 0.979 . S
C311 H425 0.980 1_455 S
C311 O449 1.533 . S
C312 N313 1.338 . S
C312 C314 1.388 . S
C312 C317 1.503 . S
N313 C312 1.338 . S
N313 N316 1.361 . S
N313 Cu402 1.924 . S
C314 C312 1.388 . S
C314 C315 1.396 . S
C315 C314 1.396 . S
C315 N316 1.348 . S
C315 C321 1.504 . S
N316 N313 1.361 . S
N316 C315 1.348 . S
N316 Cu403 1.964 . S
C317 C312 1.503 . S
C317 H318 0.979 . S
C317 H319 0.979 . S
C317 H320 0.979 . S
H318 C317 0.979 . S
H319 C317 0.979 . S
H320 C317 0.979 . S
C321 C315 1.504 . S
C321 H322 0.981 . S
C321 H323 0.980 . S
C321 H324 0.979 . S
H322 C321 0.981 . S
H323 C321 0.980 . S
H324 C321 0.979 . S
C325 C326 1.402 . S
C325 N328 1.356 . S
C325 C333 1.481 . S
C326 C325 1.402 . S
C326 C327 1.400 1_455 S
C327 C326 1.400 1_655 S
C327 N329 1.329 . S
C327 C334 1.503 . S
N328 C325 1.356 . S
N328 N329 1.344 1_455 S
N328 Cu397 1.941 . S
N329 C327 1.329 . S
N329 N328 1.344 1_655 S
N329 Cu406 1.936 . S
H330 C333 0.980 . S
H331 C333 0.980 . S
H332 C333 0.980 . S
C333 C325 1.481 . S
C333 H330 0.980 . S
C333 H331 0.980 . S
C333 H332 0.980 . S
C334 C327 1.503 . S
C334 H335 0.978 . S
C334 H336 0.978 . S
C334 H337 0.983 . S
H335 C334 0.978 . S
H336 C334 0.978 . S
H337 C334 0.983 . S
C338 H426 0.979 . S
C338 H427 0.981 . S
C338 H428 0.981 . S
C338 O450 1.438 . S
C339 H429 0.980 . S
C339 H430 0.979 . S
C339 H431 0.980 . S
C339 O451 1.533 . S
C340 C341 1.388 . S
C340 N343 1.338 . S
C340 C345 1.503 . S
C341 C340 1.388 . S
C341 C342 1.396 . S
C342 C341 1.396 . S
C342 N344 1.348 . S
C342 C349 1.504 . S
N343 C340 1.338 . S
N343 N344 1.361 . S
N343 Cu404 1.924 . S
N344 C342 1.348 . S
N344 N343 1.361 . S
N344 Cu405 1.964 . S
C345 C340 1.503 . S
C345 H346 0.979 . S
C345 H347 0.979 . S
C345 H348 0.979 . S
H346 C345 0.979 . S
H347 C345 0.979 . S
H348 C345 0.979 . S
C349 C342 1.504 . S
C349 H350 0.981 . S
C349 H351 0.980 1_455 S
C349 H352 0.979 . S
H350 C349 0.981 . S
H351 C349 0.980 1_655 S
H352 C349 0.979 . S
C353 C354 1.402 . S
C353 N356 1.356 . S
C353 C358 1.481 . S
C354 C353 1.402 . S
C354 C355 1.400 . S
C355 C354 1.400 . S
C355 N357 1.325 . S
C355 C362 1.503 . S
N356 C353 1.356 . S
N356 N357 1.365 . S
N356 Cu399 1.941 . S
N357 C355 1.325 . S
N357 N356 1.365 . S
N357 Cu402 1.924 . S
C358 C353 1.481 . S
C358 H359 0.980 . S
C358 H360 0.980 . S
C358 H361 0.980 . S
H359 C358 0.980 . S
H360 C358 0.980 . S
H361 C358 0.980 . S
C362 C355 1.503 . S
C362 H363 0.978 . S
C362 H364 0.978 . S
C362 H365 0.983 . S
H363 C362 0.978 . S
H364 C362 0.978 . S
H365 C362 0.983 . S
C366 H432 0.979 . S
C366 H433 0.981 . S
C366 H434 0.981 . S
C366 O452 1.438 . S
C367 H435 0.980 . S
C367 H436 0.979 . S
C367 H437 0.980 . S
C367 O453 1.533 . S
C368 N369 1.338 . S
C368 C371 1.388 . S
C368 C376 1.503 . S
N369 C368 1.338 . S
N369 N370 1.361 . S
N369 Cu406 1.924 . S
N370 N369 1.361 . S
N370 C372 1.348 . S
N370 Cu407 1.964 . S
C371 C368 1.388 . S
C371 C372 1.396 . S
C372 N370 1.348 . S
C372 C371 1.396 . S
C372 C380 1.504 . S
H373 C376 0.979 . S
H374 C376 0.979 . S
H375 C376 0.979 . S
C376 C368 1.503 . S
C376 H373 0.979 . S
C376 H374 0.979 . S
C376 H375 0.979 . S
H377 C380 0.981 . S
H378 C380 0.980 . S
H379 C380 0.979 . S
C380 C372 1.504 . S
C380 H377 0.981 . S
C380 H378 0.980 . S
C380 H379 0.979 . S
C381 N382 1.356 . S
C381 C384 1.402 . S
C381 C386 1.481 . S
N382 C381 1.356 . S
N382 N383 1.365 . S
N382 Cu401 1.941 . S
N383 N382 1.365 . S
N383 C385 1.325 . S
N383 Cu404 1.924 . S
C384 C381 1.402 . S
C384 C385 1.400 . S
C385 N383 1.325 . S
C385 C384 1.400 . S
C385 C390 1.503 . S
C386 C381 1.481 . S
C386 H387 0.980 . S
C386 H388 0.980 . S
C386 H389 0.980 . S
H387 C386 0.980 . S
H388 C386 0.980 . S
H389 C386 0.980 . S
C390 C385 1.503 . S
C390 H391 0.978 . S
C390 H392 0.978 . S
C390 H393 0.983 . S
H391 C390 0.978 . S
H392 C390 0.978 . S
H393 C390 0.983 . S
C394 H438 0.979 . S
C394 H439 0.981 . S
C394 H440 0.981 . S
C394 O454 1.438 . S
C395 H441 0.980 . S
C395 H442 0.979 . S
C395 H443 0.980 1_655 S
C395 O455 1.533 . S
Cu396 N231 1.924 . S
Cu396 N272 1.924 . S
Cu396 O444 1.923 . S
Cu396 O445 1.930 . S
Cu397 N232 1.964 . S
Cu397 N328 1.941 . S
Cu397 O444 1.905 . S
Cu397 O455 1.920 1_455 S
Cu398 N257 1.924 . S
Cu398 N300 1.924 . S
Cu398 O446 1.923 . S
Cu398 O447 1.930 . S
Cu399 N258 1.964 . S
Cu399 N356 1.941 . S
Cu399 O446 1.905 . S
Cu399 O451 1.920 . S
Cu400 N245 1.940 . S
Cu400 N285 1.924 . S
Cu400 O448 1.923 . S
Cu400 O449 1.930 . S
Cu401 N287 1.964 . S
Cu401 N382 1.941 . S
Cu401 O448 1.905 . S
Cu401 O453 1.920 . S
Cu402 N313 1.924 . S
Cu402 N357 1.924 . S
Cu402 O450 1.923 . S
Cu402 O451 1.930 . S
Cu403 N244 1.941 . S
Cu403 N316 1.964 . S
Cu403 O449 1.920 1_655 S
Cu403 O450 1.905 . S
Cu404 N343 1.924 . S
Cu404 N383 1.924 . S
Cu404 O452 1.923 . S
Cu404 O453 1.930 . S
Cu405 N271 1.941 . S
Cu405 N344 1.964 . S
Cu405 O445 1.920 . S
Cu405 O452 1.905 . S
Cu406 N329 1.936 . S
Cu406 N369 1.924 . S
Cu406 O454 1.923 . S
Cu406 O455 1.930 . S
Cu407 N299 1.941 . S
Cu407 N370 1.964 . S
Cu407 O447 1.920 . S
Cu407 O454 1.905 . S
H408 C254 0.979 . S
H409 C254 0.981 . S
H410 C254 0.981 . S
H411 C255 0.980 . S
H412 C255 0.979 . S
H413 C255 0.980 . S
H414 C282 0.979 . S
H415 C282 0.981 . S
H416 C282 0.981 . S
H417 C283 0.980 . S
H418 C283 0.979 . S
H419 C283 0.980 . S
H420 C310 0.979 . S
H421 C310 0.981 . S
H422 C310 0.981 . S
H423 C311 0.980 . S
H424 C311 0.979 . S
H425 C311 0.980 1_655 S
H426 C338 0.979 . S
H427 C338 0.981 . S
H428 C338 0.981 . S
H429 C339 0.980 . S
H430 C339 0.979 . S
H431 C339 0.980 . S
H432 C366 0.979 . S
H433 C366 0.981 . S
H434 C366 0.981 . S
H435 C367 0.980 . S
H436 C367 0.979 . S
H437 C367 0.980 . S
H438 C394 0.979 . S
H439 C394 0.981 . S
H440 C394 0.981 . S
H441 C395 0.980 . S
H442 C395 0.979 . S
H443 C395 0.980 1_455 S
O444 C254 1.438 . S
O444 Cu396 1.923 . S
O444 Cu397 1.905 . S
O445 C255 1.533 . S
O445 Cu396 1.930 . S
O445 Cu405 1.920 . S
O446 C282 1.438 . S
O446 Cu398 1.923 . S
O446 Cu399 1.905 . S
O447 C283 1.533 . S
O447 Cu398 1.930 . S
O447 Cu407 1.920 . S
O448 C310 1.438 . S
O448 Cu400 1.923 . S
O448 Cu401 1.905 . S
O449 C311 1.533 . S
O449 Cu400 1.930 . S
O449 Cu403 1.920 1_455 S
O450 C338 1.438 . S
O450 Cu402 1.923 . S
O450 Cu403 1.905 . S
O451 C339 1.533 . S
O451 Cu399 1.920 . S
O451 Cu402 1.930 . S
O452 C366 1.438 . S
O452 Cu404 1.923 . S
O452 Cu405 1.905 . S
O453 C367 1.533 . S
O453 Cu401 1.920 . S
O453 Cu404 1.930 . S
O454 C394 1.438 . S
O454 Cu406 1.923 . S
O454 Cu407 1.905 . S
O455 C395 1.533 . S
O455 Cu397 1.920 1_655 S
O455 Cu406 1.930 . S
C456 C457 1.388 . S
C456 N459 1.338 . S
C456 C461 1.503 . S
C457 C456 1.388 . S
C457 C458 1.396 . S
C458 C457 1.396 . S
C458 N460 1.348 . S
C458 C465 1.504 . S
N459 C456 1.338 . S
N459 N460 1.361 . S
N459 Cu624 1.924 . S
N460 C458 1.348 . S
N460 N459 1.361 . S
N460 Cu625 1.964 . S
C461 C456 1.503 . S
C461 H462 0.979 . S
C461 H463 0.979 . S
C461 H464 0.979 . S
H462 C461 0.979 . S
H463 C461 0.979 . S
H464 C461 0.979 . S
C465 C458 1.504 . S
C465 H466 0.981 . S
C465 H467 0.980 1_565 S
C465 H468 0.979 . S
H466 C465 0.981 . S
H467 C465 0.980 1_545 S
H468 C465 0.979 . S
C469 C471 1.402 . S
C469 N472 1.356 . S
C469 C477 1.481 . S
C470 C471 1.400 . S
C470 N473 1.325 . S
C470 C481 1.503 . S
C471 C469 1.402 . S
C471 C470 1.400 . S
N472 C469 1.356 . S
N472 N473 1.365 . S
N472 Cu631 1.941 . S
N473 C470 1.325 . S
N473 N472 1.365 . S
N473 Cu628 1.924 . S
H474 C477 0.980 . S
H475 C477 0.980 . S
H476 C477 0.980 . S
C477 C469 1.481 . S
C477 H474 0.980 . S
C477 H475 0.980 . S
C477 H476 0.980 . S
H478 C481 0.978 . S
H479 C481 0.978 . S
H480 C481 0.983 . S
C481 C470 1.503 . S
C481 H478 0.978 . S
C481 H479 0.978 . S
C481 H480 0.983 . S
C482 H636 0.979 . S
C482 H637 0.981 . S
C482 H638 0.981 . S
C482 O672 1.438 . S
C483 H639 0.980 . S
C483 H640 0.979 . S
C483 H641 0.980 . S
C483 O673 1.533 . S
C484 N485 1.338 . S
C484 C487 1.388 . S
C484 C492 1.503 . S
N485 C484 1.338 . S
N485 N486 1.361 . S
N485 Cu626 1.924 . S
N486 N485 1.361 . S
N486 C488 1.348 . S
N486 Cu627 1.964 . S
C487 C484 1.388 . S
C487 C488 1.396 . S
C488 N486 1.348 . S
C488 C487 1.396 . S
C488 C496 1.504 . S
H489 C492 0.979 . S
H490 C492 0.979 . S
H491 C492 0.979 . S
C492 C484 1.503 . S
C492 H489 0.979 . S
C492 H490 0.979 . S
C492 H491 0.979 . S
H493 C496 0.981 . S
H494 C496 0.980 . S
H495 C496 0.979 . S
C496 C488 1.504 . S
C496 H493 0.981 . S
C496 H494 0.980 . S
C496 H495 0.979 . S
C497 N499 1.356 . S
C497 C501 1.402 . S
C497 C505 1.481 . S
C498 N500 1.325 . S
C498 C501 1.400 . S
C498 C506 1.503 . S
N499 C497 1.356 . S
N499 N500 1.365 . S
N499 Cu633 1.941 . S
N500 C498 1.325 . S
N500 N499 1.365 . S
N500 Cu624 1.924 . S
C501 C497 1.402 . S
C501 C498 1.400 . S
H502 C505 0.980 . S
H503 C505 0.980 . S
H504 C505 0.980 . S
C505 C497 1.481 . S
C505 H502 0.980 . S
C505 H503 0.980 . S
C505 H504 0.980 . S
C506 C498 1.503 . S
C506 H507 0.978 . S
C506 H508 0.978 . S
C506 H509 0.983 . S
H507 C506 0.978 . S
H508 C506 0.978 . S
H509 C506 0.983 . S
C510 H642 0.979 . S
C510 H643 0.981 . S
C510 H644 0.981 . S
C510 O674 1.438 . S
C511 H645 0.980 . S
C511 H646 0.979 . S
C511 H647 0.980 1_545 S
C511 O675 1.533 . S
C512 N513 1.338 . S
C512 C514 1.388 . S
C512 C520 1.503 . S
N513 C512 1.338 . S
N513 N515 1.361 . S
N513 Cu628 1.924 . S
C514 C512 1.388 . S
C514 C516 1.396 . S
N515 N513 1.361 . S
N515 C516 1.348 . S
N515 Cu629 1.964 . S
C516 C514 1.396 . S
C516 N515 1.348 . S
C516 C522 1.504 . S
H517 C520 0.979 . S
H518 C520 0.979 . S
H519 C520 0.979 . S
C520 C512 1.503 . S
C520 H517 0.979 . S
C520 H518 0.979 . S
C520 H519 0.979 . S
H521 C522 0.981 . S
C522 C516 1.504 . S
C522 H521 0.981 . S
C522 H523 0.979 . S
C522 H524 0.980 . S
H523 C522 0.979 . S
H524 C522 0.980 . S
C525 N527 1.356 . S
C525 C529 1.402 . S
C525 C531 1.481 . S
C526 N528 1.331 . S
C526 C529 1.400 1_545 S
C526 C536 1.503 . S
N527 C525 1.356 . S
N527 N528 1.338 1_565 S
N527 Cu635 1.941 . S
N528 C526 1.331 . S
N528 N527 1.338 1_545 S
N528 Cu626 1.940 . S
C529 C525 1.402 . S
C529 C526 1.400 1_565 S
H530 C531 0.980 . S
C531 C525 1.481 . S
C531 H530 0.980 . S
C531 H532 0.980 . S
C531 H533 0.980 . S
H532 C531 0.980 . S
H533 C531 0.980 . S
H534 C536 0.978 . S
H535 C536 0.978 . S
C536 C526 1.503 . S
C536 H534 0.978 . S
C536 H535 0.978 . S
C536 H537 0.983 . S
H537 C536 0.983 . S
C538 H648 0.979 . S
C538 H649 0.981 . S
C538 H650 0.981 . S
C538 O676 1.438 . S
C539 H651 0.980 . S
C539 H652 0.979 . S
C539 H653 0.980 . S
C539 O677 1.533 . S
C540 N541 1.338 . S
C540 C542 1.388 . S
C540 C545 1.503 . S
N541 C540 1.338 . S
N541 N544 1.361 . S
N541 Cu630 1.924 . S
C542 C540 1.388 . S
C542 C543 1.396 . S
C543 C542 1.396 . S
C543 N544 1.348 . S
C543 C549 1.504 . S
N544 N541 1.361 . S
N544 C543 1.348 . S
N544 Cu631 1.964 . S
C545 C540 1.503 . S
C545 H546 0.979 . S
C545 H547 0.979 . S
C545 H548 0.979 . S
H546 C545 0.979 . S
H547 C545 0.979 . S
H548 C545 0.979 . S
C549 C543 1.504 . S
C549 H550 0.981 . S
C549 H551 0.980 1_545 S
C549 H552 0.979 . S
H550 C549 0.981 . S
H551 C549 0.980 1_565 S
H552 C549 0.979 . S
C553 C554 1.402 . S
C553 N556 1.356 . S
C553 C561 1.481 . S
C554 C553 1.402 . S
C554 C555 1.400 . S
C555 C554 1.400 . S
C555 N557 1.325 . S
C555 C562 1.503 . S
N556 C553 1.356 . S
N556 N557 1.365 . S
N556 Cu625 1.941 . S
N557 C555 1.325 . S
N557 N556 1.365 . S
N557 Cu634 1.924 . S
H558 C561 0.980 . S
H559 C561 0.980 . S
H560 C561 0.980 . S
C561 C553 1.481 . S
C561 H558 0.980 . S
C561 H559 0.980 . S
C561 H560 0.980 . S
C562 C555 1.503 . S
C562 H563 0.978 . S
C562 H564 0.978 . S
C562 H565 0.983 . S
H563 C562 0.978 . S
H564 C562 0.978 . S
H565 C562 0.983 . S
C566 H654 0.979 . S
C566 H655 0.981 . S
C566 H656 0.981 . S
C566 O678 1.438 . S
C567 H657 0.980 . S
C567 H658 0.979 . S
C567 H659 0.980 . S
C567 O679 1.533 . S
C568 C569 1.388 . S
C568 N571 1.338 . S
C568 C573 1.503 . S
C569 C568 1.388 . S
C569 C570 1.396 . S
C570 C569 1.396 . S
C570 N572 1.348 . S
C570 C577 1.504 . S
N571 C568 1.338 . S
N571 N572 1.361 . S
N571 Cu632 1.924 . S
N572 C570 1.348 . S
N572 N571 1.361 . S
N572 Cu633 1.964 . S
C573 C568 1.503 . S
C573 H574 0.979 . S
C573 H575 0.979 . S
C573 H576 0.979 . S
H574 C573 0.979 . S
H575 C573 0.979 . S
H576 C573 0.979 . S
C577 C570 1.504 . S
C577 H578 0.981 . S
C577 H579 0.980 . S
C577 H580 0.979 . S
H578 C577 0.981 . S
H579 C577 0.980 . S
H580 C577 0.979 . S
C581 C582 1.402 . S
C581 N584 1.356 . S
C581 C586 1.481 . S
C582 C581 1.402 . S
C582 C583 1.400 . S
C583 C582 1.400 . S
C583 N585 1.325 . S
C583 C590 1.503 . S
N584 C581 1.356 . S
N584 N585 1.365 . S
N584 Cu627 1.941 . S
N585 C583 1.325 . S
N585 N584 1.365 . S
N585 Cu630 1.924 . S
C586 C581 1.481 . S
C586 H587 0.980 . S
C586 H588 0.980 . S
C586 H589 0.980 . S
H587 C586 0.980 . S
H588 C586 0.980 . S
H589 C586 0.980 . S
C590 C583 1.503 . S
C590 H591 0.978 . S
C590 H592 0.978 . S
C590 H593 0.983 . S
H591 C590 0.978 . S
H592 C590 0.978 . S
H593 C590 0.983 . S
C594 H660 0.979 . S
C594 H661 0.981 . S
C594 H662 0.981 . S
C594 O680 1.438 . S
C595 H663 0.980 . S
C595 H664 0.979 . S
C595 H665 0.980 1_565 S
C595 O681 1.533 . S
C596 N597 1.338 . S
C596 C599 1.388 . S
C596 C604 1.503 . S
N597 C596 1.338 . S
N597 N598 1.361 . S
N597 Cu634 1.924 . S
N598 N597 1.361 . S
N598 C600 1.348 . S
N598 Cu635 1.964 . S
C599 C596 1.388 . S
C599 C600 1.396 . S
C600 N598 1.348 . S
C600 C599 1.396 . S
C600 C608 1.504 . S
H601 C604 0.979 . S
H602 C604 0.979 . S
H603 C604 0.979 . S
C604 C596 1.503 . S
C604 H601 0.979 . S
C604 H602 0.979 . S
C604 H603 0.979 . S
H605 C608 0.981 . S
H606 C608 0.980 . S
H607 C608 0.979 . S
C608 C600 1.504 . S
C608 H605 0.981 . S
C608 H606 0.980 . S
C608 H607 0.979 . S
C609 N610 1.356 . S
C609 C612 1.402 . S
C609 C614 1.481 . S
N610 C609 1.356 . S
N610 N611 1.344 1_545 S
N610 Cu629 1.941 . S
N611 N610 1.344 1_565 S
N611 C613 1.329 . S
N611 Cu632 1.936 . S
C612 C609 1.402 . S
C612 C613 1.400 1_545 S
C613 N611 1.329 . S
C613 C612 1.400 1_565 S
C613 C618 1.503 . S
C614 C609 1.481 . S
C614 H615 0.980 . S
C614 H616 0.980 . S
C614 H617 0.980 . S
H615 C614 0.980 . S
H616 C614 0.980 . S
H617 C614 0.980 . S
C618 C613 1.503 . S
C618 H619 0.978 . S
C618 H620 0.978 . S
C618 H621 0.983 . S
H619 C618 0.978 . S
H620 C618 0.978 . S
H621 C618 0.983 . S
C622 H666 0.979 . S
C622 H667 0.981 . S
C622 H668 0.981 . S
C622 O682 1.438 . S
C623 H669 0.980 . S
C623 H670 0.979 . S
C623 H671 0.980 . S
C623 O683 1.533 . S
Cu624 N459 1.924 . S
Cu624 N500 1.924 . S
Cu624 O672 1.923 . S
Cu624 O673 1.930 . S
Cu625 N460 1.964 . S
Cu625 N556 1.941 . S
Cu625 O672 1.905 . S
Cu625 O683 1.920 . S
Cu626 N485 1.924 . S
Cu626 N528 1.940 . S
Cu626 O674 1.923 . S
Cu626 O675 1.930 . S
Cu627 N486 1.964 . S
Cu627 N584 1.941 . S
Cu627 O674 1.905 . S
Cu627 O679 1.920 . S
Cu628 N473 1.924 . S
Cu628 N513 1.924 . S
Cu628 O676 1.923 . S
Cu628 O677 1.930 . S
Cu629 N515 1.964 . S
Cu629 N610 1.941 . S
Cu629 O676 1.905 . S
Cu629 O681 1.920 1_545 S
Cu630 N541 1.924 . S
Cu630 N585 1.924 . S
Cu630 O678 1.923 . S
Cu630 O679 1.930 . S
Cu631 N472 1.941 . S
Cu631 N544 1.964 . S
Cu631 O677 1.920 . S
Cu631 O678 1.905 . S
Cu632 N571 1.924 . S
Cu632 N611 1.936 . S
Cu632 O680 1.923 . S
Cu632 O681 1.930 . S
Cu633 N499 1.941 . S
Cu633 N572 1.964 . S
Cu633 O673 1.920 . S
Cu633 O680 1.905 . S
Cu634 N557 1.924 . S
Cu634 N597 1.924 . S
Cu634 O682 1.923 . S
Cu634 O683 1.930 . S
Cu635 N527 1.941 . S
Cu635 N598 1.964 . S
Cu635 O675 1.920 1_565 S
Cu635 O682 1.905 . S
H636 C482 0.979 . S
H637 C482 0.981 . S
H638 C482 0.981 . S
H639 C483 0.980 . S
H640 C483 0.979 . S
H641 C483 0.980 . S
H642 C510 0.979 . S
H643 C510 0.981 . S
H644 C510 0.981 . S
H645 C511 0.980 . S
H646 C511 0.979 . S
H647 C511 0.980 1_565 S
H648 C538 0.979 . S
H649 C538 0.981 . S
H650 C538 0.981 . S
H651 C539 0.980 . S
H652 C539 0.979 . S
H653 C539 0.980 . S
H654 C566 0.979 . S
H655 C566 0.981 . S
H656 C566 0.981 . S
H657 C567 0.980 . S
H658 C567 0.979 . S
H659 C567 0.980 . S
H660 C594 0.979 . S
H661 C594 0.981 . S
H662 C594 0.981 . S
H663 C595 0.980 . S
H664 C595 0.979 . S
H665 C595 0.980 1_545 S
H666 C622 0.979 . S
H667 C622 0.981 . S
H668 C622 0.981 . S
H669 C623 0.980 . S
H670 C623 0.979 . S
H671 C623 0.980 . S
O672 C482 1.438 . S
O672 Cu624 1.923 . S
O672 Cu625 1.905 . S
O673 C483 1.533 . S
O673 Cu624 1.930 . S
O673 Cu633 1.920 . S
O674 C510 1.438 . S
O674 Cu626 1.923 . S
O674 Cu627 1.905 . S
O675 C511 1.533 . S
O675 Cu626 1.930 . S
O675 Cu635 1.920 1_545 S
O676 C538 1.438 . S
O676 Cu628 1.923 . S
O676 Cu629 1.905 . S
O677 C539 1.533 . S
O677 Cu628 1.930 . S
O677 Cu631 1.920 . S
O678 C566 1.438 . S
O678 Cu630 1.923 . S
O678 Cu631 1.905 . S
O679 C567 1.533 . S
O679 Cu627 1.920 . S
O679 Cu630 1.930 . S
O680 C594 1.438 . S
O680 Cu632 1.923 . S
O680 Cu633 1.905 . S
O681 C595 1.533 . S
O681 Cu629 1.920 1_565 S
O681 Cu632 1.930 . S
O682 C622 1.438 . S
O682 Cu634 1.923 . S
O682 Cu635 1.905 . S
O683 C623 1.533 . S
O683 Cu625 1.920 . S
O683 Cu634 1.930 . S
C684 C685 1.388 . S
C684 N687 1.338 . S
C684 C689 1.503 . S
C685 C684 1.388 . S
C685 C686 1.396 . S
C686 C685 1.396 . S
C686 N688 1.348 . S
C686 C693 1.504 . S
N687 C684 1.338 . S
N687 N688 1.361 . S
N687 Cu852 1.924 . S
N688 C686 1.348 . S
N688 N687 1.361 . S
N688 Cu853 1.964 . S
C689 C684 1.503 . S
C689 H690 0.979 . S
C689 H691 0.979 . S
C689 H692 0.979 . S
H690 C689 0.979 . S
H691 C689 0.979 . S
H692 C689 0.979 . S
C693 C686 1.504 . S
C693 H694 0.981 . S
C693 H695 0.980 . S
C693 H696 0.979 . S
H694 C693 0.981 . S
H695 C693 0.980 . S
H696 C693 0.979 . S
C697 C699 1.402 . S
C697 N700 1.356 . S
C697 C705 1.481 . S
C698 C699 1.400 . S
C698 N701 1.325 . S
C698 C709 1.503 . S
C699 C697 1.402 . S
C699 C698 1.400 . S
N700 C697 1.356 . S
N700 N701 1.365 . S
N700 Cu859 1.941 . S
N701 C698 1.325 . S
N701 N700 1.365 . S
N701 Cu856 1.924 . S
H702 C705 0.980 . S
H703 C705 0.980 . S
H704 C705 0.980 . S
C705 C697 1.481 . S
C705 H702 0.980 . S
C705 H703 0.980 . S
C705 H704 0.980 . S
H706 C709 0.978 . S
H707 C709 0.978 . S
H708 C709 0.983 . S
C709 C698 1.503 . S
C709 H706 0.978 . S
C709 H707 0.978 . S
C709 H708 0.983 . S
C710 H864 0.979 . S
C710 H865 0.981 . S
C710 H866 0.981 . S
C710 O900 1.438 . S
C711 H867 0.980 . S
C711 H868 0.979 . S
C711 H869 0.980 1_554 S
C711 O901 1.533 . S
C712 N713 1.338 . S
C712 C715 1.388 . S
C712 C720 1.503 . S
N713 C712 1.338 . S
N713 N714 1.361 . S
N713 Cu854 1.924 . S
N714 N713 1.361 . S
N714 C716 1.348 . S
N714 Cu855 1.964 . S
C715 C712 1.388 . S
C715 C716 1.396 . S
C716 N714 1.348 . S
C716 C715 1.396 . S
C716 C724 1.504 . S
H717 C720 0.979 . S
H718 C720 0.979 . S
H719 C720 0.979 . S
C720 C712 1.503 . S
C720 H717 0.979 . S
C720 H718 0.979 . S
C720 H719 0.979 . S
H721 C724 0.981 . S
H722 C724 0.980 . S
H723 C724 0.979 . S
C724 C716 1.504 . S
C724 H721 0.981 . S
C724 H722 0.980 . S
C724 H723 0.979 . S
C725 N727 1.356 . S
C725 C729 1.402 . S
C725 C733 1.481 . S
C726 N728 1.331 . S
C726 C729 1.400 1_554 S
C726 C734 1.503 . S
N727 C725 1.356 . S
N727 N728 1.338 1_556 S
N727 Cu861 1.941 . S
N728 C726 1.331 . S
N728 N727 1.338 1_554 S
N728 Cu852 1.940 . S
C729 C725 1.402 . S
C729 C726 1.400 1_556 S
H730 C733 0.980 . S
H731 C733 0.980 . S
H732 C733 0.980 . S
C733 C725 1.481 . S
C733 H730 0.980 . S
C733 H731 0.980 . S
C733 H732 0.980 . S
C734 C726 1.503 . S
C734 H735 0.978 . S
C734 H736 0.978 . S
C734 H737 0.983 . S
H735 C734 0.978 . S
H736 C734 0.978 . S
H737 C734 0.983 . S
C738 H870 0.979 . S
C738 H871 0.981 . S
C738 H872 0.981 . S
C738 O902 1.438 . S
C739 H873 0.980 . S
C739 H874 0.979 . S
C739 H875 0.980 . S
C739 O903 1.533 . S
C740 N741 1.338 . S
C740 C742 1.388 . S
C740 C748 1.503 . S
N741 C740 1.338 . S
N741 N743 1.361 . S
N741 Cu856 1.924 . S
C742 C740 1.388 . S
C742 C744 1.396 . S
N743 N741 1.361 . S
N743 C744 1.348 . S
N743 Cu857 1.964 . S
C744 C742 1.396 . S
C744 N743 1.348 . S
C744 C750 1.504 . S
H745 C748 0.979 . S
H746 C748 0.979 . S
H747 C748 0.979 . S
C748 C740 1.503 . S
C748 H745 0.979 . S
C748 H746 0.979 . S
C748 H747 0.979 . S
H749 C750 0.981 . S
C750 C744 1.504 . S
C750 H749 0.981 . S
C750 H751 0.979 . S
C750 H752 0.980 1_556 S
H751 C750 0.979 . S
H752 C750 0.980 1_554 S
C753 N755 1.356 . S
C753 C757 1.402 . S
C753 C759 1.481 . S
C754 N756 1.325 . S
C754 C757 1.400 . S
C754 C764 1.503 . S
N755 C753 1.356 . S
N755 N756 1.365 . S
N755 Cu863 1.941 . S
N756 C754 1.325 . S
N756 N755 1.365 . S
N756 Cu854 1.924 . S
C757 C753 1.402 . S
C757 C754 1.400 . S
H758 C759 0.980 . S
C759 C753 1.481 . S
C759 H758 0.980 . S
C759 H760 0.980 . S
C759 H761 0.980 . S
H760 C759 0.980 . S
H761 C759 0.980 . S
H762 C764 0.978 . S
H763 C764 0.978 . S
C764 C754 1.503 . S
C764 H762 0.978 . S
C764 H763 0.978 . S
C764 H765 0.983 . S
H765 C764 0.983 . S
C766 H876 0.979 . S
C766 H877 0.981 . S
C766 H878 0.981 . S
C766 O904 1.438 . S
C767 H879 0.980 . S
C767 H880 0.979 . S
C767 H881 0.980 . S
C767 O905 1.533 . S
C768 N769 1.338 . S
C768 C770 1.388 . S
C768 C773 1.503 . S
N769 C768 1.338 . S
N769 N772 1.361 . S
N769 Cu858 1.924 . S
C770 C768 1.388 . S
C770 C771 1.396 . S
C771 C770 1.396 . S
C771 N772 1.348 . S
C771 C777 1.504 . S
N772 N769 1.361 . S
N772 C771 1.348 . S
N772 Cu859 1.964 . S
C773 C768 1.503 . S
C773 H774 0.979 . S
C773 H775 0.979 . S
C773 H776 0.979 . S
H774 C773 0.979 . S
H775 C773 0.979 . S
H776 C773 0.979 . S
C777 C771 1.504 . S
C777 H778 0.981 . S
C777 H779 0.980 . S
C777 H780 0.979 . S
H778 C777 0.981 . S
H779 C777 0.980 . S
H780 C777 0.979 . S
C781 C782 1.402 . S
C781 N784 1.356 . S
C781 C789 1.481 . S
C782 C781 1.402 . S
C782 C783 1.400 . S
C783 C782 1.400 . S
C783 N785 1.325 . S
C783 C790 1.503 . S
N784 C781 1.356 . S
N784 N785 1.365 . S
N784 Cu853 1.941 . S
N785 C783 1.325 . S
N785 N784 1.365 . S
N785 Cu862 1.924 . S
H786 C789 0.980 . S
H787 C789 0.980 . S
H788 C789 0.980 . S
C789 C781 1.481 . S
C789 H786 0.980 . S
C789 H787 0.980 . S
C789 H788 0.980 . S
C790 C783 1.503 . S
C790 H791 0.978 . S
C790 H792 0.978 . S
C790 H793 0.983 . S
H791 C790 0.978 . S
H792 C790 0.978 . S
H793 C790 0.983 . S
C794 H882 0.979 . S
C794 H883 0.981 . S
C794 H884 0.981 . S
C794 O906 1.438 . S
C795 H885 0.980 . S
C795 H886 0.979 . S
C795 H887 0.980 1_556 S
C795 O907 1.533 . S
C796 C797 1.388 . S
C796 N799 1.338 . S
C796 C801 1.503 . S
C797 C796 1.388 . S
C797 C798 1.396 . S
C798 C797 1.396 . S
C798 N800 1.348 . S
C798 C805 1.504 . S
N799 C796 1.338 . S
N799 N800 1.361 . S
N799 Cu860 1.924 . S
N800 C798 1.348 . S
N800 N799 1.361 . S
N800 Cu861 1.964 . S
C801 C796 1.503 . S
C801 H802 0.979 . S
C801 H803 0.979 . S
C801 H804 0.979 . S
H802 C801 0.979 . S
H803 C801 0.979 . S
H804 C801 0.979 . S
C805 C798 1.504 . S
C805 H806 0.981 . S
C805 H807 0.980 . S
C805 H808 0.979 . S
H806 C805 0.981 . S
H807 C805 0.980 . S
H808 C805 0.979 . S
C809 C810 1.402 . S
C809 N812 1.356 . S
C809 C814 1.481 . S
C810 C809 1.402 . S
C810 C811 1.400 1_554 S
C811 C810 1.400 1_556 S
C811 N813 1.329 . S
C811 C818 1.503 . S
N812 C809 1.356 . S
N812 N813 1.344 1_554 S
N812 Cu855 1.941 . S
N813 C811 1.329 . S
N813 N812 1.344 1_556 S
N813 Cu858 1.936 . S
C814 C809 1.481 . S
C814 H815 0.980 . S
C814 H816 0.980 . S
C814 H817 0.980 . S
H815 C814 0.980 . S
H816 C814 0.980 . S
H817 C814 0.980 . S
C818 C811 1.503 . S
C818 H819 0.978 . S
C818 H820 0.978 . S
C818 H821 0.983 . S
H819 C818 0.978 . S
H820 C818 0.978 . S
H821 C818 0.983 . S
C822 H888 0.979 . S
C822 H889 0.981 . S
C822 H890 0.981 . S
C822 O908 1.438 . S
C823 H891 0.980 . S
C823 H892 0.979 . S
C823 H893 0.980 . S
C823 O909 1.533 . S
C824 N825 1.338 . S
C824 C827 1.388 . S
C824 C832 1.503 . S
N825 C824 1.338 . S
N825 N826 1.361 . S
N825 Cu862 1.924 . S
N826 N825 1.361 . S
N826 C828 1.348 . S
N826 Cu863 1.964 . S
C827 C824 1.388 . S
C827 C828 1.396 . S
C828 N826 1.348 . S
C828 C827 1.396 . S
C828 C836 1.504 . S
H829 C832 0.979 . S
H830 C832 0.979 . S
H831 C832 0.979 . S
C832 C824 1.503 . S
C832 H829 0.979 . S
C832 H830 0.979 . S
C832 H831 0.979 . S
H833 C836 0.981 . S
H834 C836 0.980 1_556 S
H835 C836 0.979 . S
C836 C828 1.504 . S
C836 H833 0.981 . S
C836 H834 0.980 1_554 S
C836 H835 0.979 . S
C837 N838 1.356 . S
C837 C840 1.402 . S
C837 C842 1.481 . S
N838 C837 1.356 . S
N838 N839 1.365 . S
N838 Cu857 1.941 . S
N839 N838 1.365 . S
N839 C841 1.325 . S
N839 Cu860 1.924 . S
C840 C837 1.402 . S
C840 C841 1.400 . S
C841 N839 1.325 . S
C841 C840 1.400 . S
C841 C846 1.503 . S
C842 C837 1.481 . S
C842 H843 0.980 . S
C842 H844 0.980 . S
C842 H845 0.980 . S
H843 C842 0.980 . S
H844 C842 0.980 . S
H845 C842 0.980 . S
C846 C841 1.503 . S
C846 H847 0.978 . S
C846 H848 0.978 . S
C846 H849 0.983 . S
H847 C846 0.978 . S
H848 C846 0.978 . S
H849 C846 0.983 . S
C850 H894 0.979 . S
C850 H895 0.981 . S
C850 H896 0.981 . S
C850 O910 1.438 . S
C851 H897 0.980 . S
C851 H898 0.979 . S
C851 H899 0.980 . S
C851 O911 1.533 . S
Cu852 N687 1.924 . S
Cu852 N728 1.940 . S
Cu852 O900 1.923 . S
Cu852 O901 1.930 . S
Cu853 N688 1.964 . S
Cu853 N784 1.941 . S
Cu853 O900 1.905 . S
Cu853 O911 1.920 . S
Cu854 N713 1.924 . S
Cu854 N756 1.924 . S
Cu854 O902 1.923 . S
Cu854 O903 1.930 . S
Cu855 N714 1.964 . S
Cu855 N812 1.941 . S
Cu855 O902 1.905 . S
Cu855 O907 1.920 1_554 S
Cu856 N701 1.924 . S
Cu856 N741 1.924 . S
Cu856 O904 1.923 . S
Cu856 O905 1.930 . S
Cu857 N743 1.964 . S
Cu857 N838 1.941 . S
Cu857 O904 1.905 . S
Cu857 O909 1.920 . S
Cu858 N769 1.924 . S
Cu858 N813 1.936 . S
Cu858 O906 1.923 . S
Cu858 O907 1.930 . S
Cu859 N700 1.941 . S
Cu859 N772 1.964 . S
Cu859 O905 1.920 . S
Cu859 O906 1.905 . S
Cu860 N799 1.924 . S
Cu860 N839 1.924 . S
Cu860 O908 1.923 . S
Cu860 O909 1.930 . S
Cu861 N727 1.941 . S
Cu861 N800 1.964 . S
Cu861 O901 1.920 1_556 S
Cu861 O908 1.905 . S
Cu862 N785 1.924 . S
Cu862 N825 1.924 . S
Cu862 O910 1.923 . S
Cu862 O911 1.930 . S
Cu863 N755 1.941 . S
Cu863 N826 1.964 . S
Cu863 O903 1.920 . S
Cu863 O910 1.905 . S
H864 C710 0.979 . S
H865 C710 0.981 . S
H866 C710 0.981 . S
H867 C711 0.980 . S
H868 C711 0.979 . S
H869 C711 0.980 1_556 S
H870 C738 0.979 . S
H871 C738 0.981 . S
H872 C738 0.981 . S
H873 C739 0.980 . S
H874 C739 0.979 . S
H875 C739 0.980 . S
H876 C766 0.979 . S
H877 C766 0.981 . S
H878 C766 0.981 . S
H879 C767 0.980 . S
H880 C767 0.979 . S
H881 C767 0.980 . S
H882 C794 0.979 . S
H883 C794 0.981 . S
H884 C794 0.981 . S
H885 C795 0.980 . S
H886 C795 0.979 . S
H887 C795 0.980 1_554 S
H888 C822 0.979 . S
H889 C822 0.981 . S
H890 C822 0.981 . S
H891 C823 0.980 . S
H892 C823 0.979 . S
H893 C823 0.980 . S
H894 C850 0.979 . S
H895 C850 0.981 . S
H896 C850 0.981 . S
H897 C851 0.980 . S
H898 C851 0.979 . S
H899 C851 0.980 . S
O900 C710 1.438 . S
O900 Cu852 1.923 . S
O900 Cu853 1.905 . S
O901 C711 1.533 . S
O901 Cu852 1.930 . S
O901 Cu861 1.920 1_554 S
O902 C738 1.438 . S
O902 Cu854 1.923 . S
O902 Cu855 1.905 . S
O903 C739 1.533 . S
O903 Cu854 1.930 . S
O903 Cu863 1.920 . S
O904 C766 1.438 . S
O904 Cu856 1.923 . S
O904 Cu857 1.905 . S
O905 C767 1.533 . S
O905 Cu856 1.930 . S
O905 Cu859 1.920 . S
O906 C794 1.438 . S
O906 Cu858 1.923 . S
O906 Cu859 1.905 . S
O907 C795 1.533 . S
O907 Cu855 1.920 1_556 S
O907 Cu858 1.930 . S
O908 C822 1.438 . S
O908 Cu860 1.923 . S
O908 Cu861 1.905 . S
O909 C823 1.533 . S
O909 Cu857 1.920 . S
O909 Cu860 1.930 . S
O910 C850 1.438 . S
O910 Cu862 1.923 . S
O910 Cu863 1.905 . S
O911 C851 1.533 . S
O911 Cu853 1.920 . S
O911 Cu862 1.930 . S
H912 C918 0.930 . S
H913 C921 0.930 . S
H914 C922 0.930 . S
H915 C923 0.930 . S
H916 C926 0.930 . S
H917 C927 0.930 . S
C918 H912 0.930 . S
C918 C919 1.355 1_655 S
C918 C920 1.415 . S
C919 C918 1.355 1_455 S
C919 C921 1.419 . S
C920 C918 1.415 . S
C920 C925 1.425 1_655 S
C920 C927 1.409 . S
C921 H913 0.930 . S
C921 C919 1.419 . S
C921 C922 1.362 . S
C922 H914 0.930 . S
C922 C921 1.362 . S
C922 C925 1.409 . S
C923 H915 0.930 . S
C923 C924 1.355 1_455 S
C923 C925 1.415 . S
C924 C923 1.355 1_655 S
C924 C926 1.419 . S
C925 C920 1.425 1_455 S
C925 C922 1.409 . S
C925 C923 1.415 . S
C926 H916 0.930 . S
C926 C924 1.419 . S
C926 C927 1.362 . S
C927 H917 0.930 . S
C927 C920 1.409 . S
C927 C926 1.362 . S
H928 C934 0.930 . S
H929 C937 0.930 . S
H930 C938 0.930 . S
H931 C939 0.930 . S
H932 C942 0.930 . S
H933 C943 0.930 . S
C934 H928 0.930 . S
C934 C935 1.355 . S
C934 C936 1.415 1_565 S
C935 C934 1.355 . S
C935 C937 1.419 . S
C936 C934 1.415 1_545 S
C936 C941 1.425 1_545 S
C936 C943 1.409 . S
C937 H929 0.930 . S
C937 C935 1.419 . S
C937 C938 1.362 . S
C938 H930 0.930 . S
C938 C937 1.362 . S
C938 C941 1.409 . S
C939 H931 0.930 . S
C939 C940 1.355 . S
C939 C941 1.415 1_545 S
C940 C939 1.355 . S
C940 C942 1.419 . S
C941 C936 1.425 1_565 S
C941 C938 1.409 . S
C941 C939 1.415 1_565 S
C942 H932 0.930 . S
C942 C940 1.419 . S
C942 C943 1.362 . S
C943 H933 0.930 . S
C943 C936 1.409 . S
C943 C942 1.362 . S
H944 C950 0.944 . S
H945 C953 0.930 . S
H946 C954 0.930 . S
H947 C955 0.949 . S
H948 C958 0.930 . S
H949 C959 0.930 . S
C950 H944 0.944 . S
C950 C951 1.340 1_655 S
C950 C952 1.416 . S
C951 C950 1.340 1_455 S
C951 C953 1.419 . S
C952 C950 1.416 . S
C952 C957 1.425 1_655 S
C952 C959 1.409 . S
C953 H945 0.930 . S
C953 C951 1.419 . S
C953 C954 1.362 . S
C954 H946 0.930 . S
C954 C953 1.362 . S
C954 C957 1.409 . S
C955 H947 0.949 . S
C955 C956 1.334 1_455 S
C955 C957 1.417 . S
C956 C955 1.334 1_655 S
C956 C958 1.419 . S
C957 C952 1.425 1_455 S
C957 C954 1.409 . S
C957 C955 1.417 . S
C958 H948 0.930 . S
C958 C956 1.419 . S
C958 C959 1.362 . S
C959 H949 0.930 . S
C959 C952 1.409 . S
C959 C958 1.362 . S
H960 C966 0.930 . S
H961 C969 0.930 . S
H962 C970 0.930 . S
H963 C971 0.930 . S
H964 C974 0.930 . S
H965 C975 0.930 . S
C966 H960 0.930 . S
C966 C967 1.357 . S
C966 C968 1.415 . S
C967 C966 1.357 . S
C967 C969 1.411 1_565 S
C968 C966 1.415 . S
C968 C973 1.425 1_565 S
C968 C975 1.409 . S
C969 H961 0.930 . S
C969 C967 1.411 1_545 S
C969 C970 1.362 . S
C970 H962 0.930 . S
C970 C969 1.362 . S
C970 C973 1.409 . S
C971 H963 0.930 . S
C971 C972 1.359 . S
C971 C973 1.415 . S
C972 C971 1.359 . S
C972 C974 1.407 1_545 S
C973 C968 1.425 1_545 S
C973 C970 1.409 . S
C973 C971 1.415 . S
C974 H964 0.930 . S
C974 C972 1.407 1_565 S
C974 C975 1.362 . S
C975 H965 0.930 . S
C975 C968 1.409 . S
C975 C974 1.362 . S
H976 C982 0.930 . S
H977 C985 0.930 . S
H978 C986 0.930 . S
H979 C987 0.930 . S
H980 C990 0.930 . S
H981 C991 0.930 . S
C982 H976 0.930 . S
C982 C983 1.355 . S
C982 C984 1.415 . S
C983 C982 1.355 . S
C983 C985 1.419 1_655 S
C984 C982 1.415 . S
C984 C989 1.425 1_655 S
C984 C991 1.409 . S
C985 H977 0.930 . S
C985 C983 1.419 1_455 S
C985 C986 1.362 . S
C986 H978 0.930 . S
C986 C985 1.362 . S
C986 C989 1.409 . S
C987 H979 0.930 . S
C987 C988 1.355 . S
C987 C989 1.415 . S
C988 C987 1.355 . S
C988 C990 1.419 1_455 S
C989 C984 1.425 1_455 S
C989 C986 1.409 . S
C989 C987 1.415 . S
C990 H980 0.930 . S
C990 C988 1.419 1_655 S
C990 C991 1.362 . S
C991 H981 0.930 . S
C991 C984 1.409 . S
C991 C990 1.362 . S
H992 C998 0.930 . S
H993 C1001 0.930 . S
H994 C1002 0.929 1_565 S
H995 C1003 0.930 . S
H996 C1006 0.930 . S
H997 C1007 0.929 . S
C998 H992 0.930 . S
C998 C999 1.355 . S
C998 C1000 1.415 . S
C999 C998 1.355 . S
C999 C1001 1.419 . S
C1000 C998 1.415 . S
C1000 C1005 1.425 1_545 S
C1000 C1007 1.409 . S
C1001 H993 0.930 . S
C1001 C999 1.419 . S
C1001 C1002 1.363 . S
C1002 H994 0.929 1_545 S
C1002 C1001 1.363 . S
C1002 C1005 1.409 1_545 S
C1003 H995 0.930 . S
C1003 C1004 1.355 . S
C1003 C1005 1.415 . S
C1004 C1003 1.355 . S
C1004 C1006 1.419 . S
C1005 C1000 1.425 1_565 S
C1005 C1002 1.409 1_565 S
C1005 C1003 1.415 . S
C1006 H996 0.930 . S
C1006 C1004 1.419 . S
C1006 C1007 1.363 1_565 S
C1007 H997 0.929 . S
C1007 C1000 1.409 . S
C1007 C1006 1.363 1_545 S
H1008 C1014 0.930 1_655 S
H1009 C1017 0.930 . S
H1010 C1018 0.930 . S
H1011 C1019 0.930 1_455 S
H1012 C1022 0.930 . S
H1013 C1023 0.930 . S
C1014 H1008 0.930 1_455 S
C1014 C1015 1.355 . S
C1014 C1016 1.415 1_455 S
C1015 C1014 1.355 . S
C1015 C1017 1.419 . S
C1016 C1014 1.415 1_655 S
C1016 C1021 1.425 1_655 S
C1016 C1023 1.409 . S
C1017 H1009 0.930 . S
C1017 C1015 1.419 . S
C1017 C1018 1.362 . S
C1018 H1010 0.930 . S
C1018 C1017 1.362 . S
C1018 C1021 1.409 . S
C1019 H1011 0.930 1_655 S
C1019 C1020 1.355 . S
C1019 C1021 1.415 1_655 S
C1020 C1019 1.355 . S
C1020 C1022 1.419 . S
C1021 C1016 1.425 1_455 S
C1021 C1018 1.409 . S
C1021 C1019 1.415 1_455 S
C1022 H1012 0.930 . S
C1022 C1020 1.419 . S
C1022 C1023 1.362 . S
C1023 H1013 0.930 . S
C1023 C1016 1.409 . S
C1023 C1022 1.362 . S
H1024 C1030 0.930 . S
H1025 C1033 0.930 . S
H1026 C1034 0.930 . S
H1027 C1035 0.930 . S
H1028 C1038 0.930 . S
H1029 C1039 0.930 . S
C1030 H1024 0.930 . S
C1030 C1031 1.355 . S
C1030 C1032 1.415 . S
C1031 C1030 1.355 . S
C1031 C1033 1.419 1_545 S
C1032 C1030 1.415 . S
C1032 C1037 1.425 1_545 S
C1032 C1039 1.409 . S
C1033 H1025 0.930 . S
C1033 C1031 1.419 1_565 S
C1033 C1034 1.362 . S
C1034 H1026 0.930 . S
C1034 C1033 1.362 . S
C1034 C1037 1.409 . S
C1035 H1027 0.930 . S
C1035 C1036 1.355 . S
C1035 C1037 1.415 . S
C1036 C1035 1.355 . S
C1036 C1038 1.419 1_565 S
C1037 C1032 1.425 1_565 S
C1037 C1034 1.409 . S
C1037 C1035 1.415 . S
C1038 H1028 0.930 . S
C1038 C1036 1.419 1_545 S
C1038 C1039 1.362 . S
C1039 H1029 0.930 . S
C1039 C1032 1.409 . S
C1039 C1038 1.362 . S
H1040 C1046 0.930 . S
H1041 C1049 0.930 . S
H1042 C1050 0.930 . S
H1043 C1051 0.930 . S
H1044 C1054 0.930 . S
H1045 C1055 0.930 . S
C1046 H1040 0.930 . S
C1046 C1047 1.358 . S
C1046 C1048 1.415 . S
C1047 C1046 1.358 . S
C1047 C1049 1.405 1_556 S
C1048 C1046 1.415 . S
C1048 C1053 1.425 1_556 S
C1048 C1055 1.409 . S
C1049 H1041 0.930 . S
C1049 C1047 1.405 1_554 S
C1049 C1050 1.362 . S
C1050 H1042 0.930 . S
C1050 C1049 1.362 . S
C1050 C1053 1.409 . S
C1051 H1043 0.930 . S
C1051 C1052 1.355 . S
C1051 C1053 1.415 . S
C1052 C1051 1.355 . S
C1052 C1054 1.419 1_554 S
C1053 C1048 1.425 1_554 S
C1053 C1050 1.409 . S
C1053 C1051 1.415 . S
C1054 H1044 0.930 . S
C1054 C1052 1.419 1_556 S
C1054 C1055 1.362 . S
C1055 H1045 0.930 . S
C1055 C1048 1.409 . S
C1055 C1054 1.362 . S
H1056 C1062 0.930 1_556 S
H1057 C1065 0.930 . S
H1058 C1066 0.930 . S
H1059 C1067 0.930 1_554 S
H1060 C1070 0.930 . S
H1061 C1071 0.930 . S
C1062 H1056 0.930 1_554 S
C1062 C1063 1.355 . S
C1062 C1064 1.415 1_554 S
C1063 C1062 1.355 . S
C1063 C1065 1.419 . S
C1064 C1062 1.415 1_556 S
C1064 C1069 1.425 1_556 S
C1064 C1071 1.409 . S
C1065 H1057 0.930 . S
C1065 C1063 1.419 . S
C1065 C1066 1.362 . S
C1066 H1058 0.930 . S
C1066 C1065 1.362 . S
C1066 C1069 1.409 . S
C1067 H1059 0.930 1_556 S
C1067 C1068 1.355 . S
C1067 C1069 1.415 1_556 S
C1068 C1067 1.355 . S
C1068 C1070 1.419 . S
C1069 C1064 1.425 1_554 S
C1069 C1066 1.409 . S
C1069 C1067 1.415 1_554 S
C1070 H1060 0.930 . S
C1070 C1068 1.419 . S
C1070 C1071 1.362 . S
C1071 H1061 0.930 . S
C1071 C1064 1.409 . S
C1071 C1070 1.362 . S
H1072 C1078 0.930 . S
H1073 C1081 0.930 . S
H1074 C1082 0.930 . S
H1075 C1083 0.930 . S
H1076 C1086 0.930 . S
H1077 C1087 0.930 . S
C1078 H1072 0.930 . S
C1078 C1079 1.355 . S
C1078 C1080 1.415 1_556 S
C1079 C1078 1.355 . S
C1079 C1081 1.419 . S
C1080 C1078 1.415 1_554 S
C1080 C1085 1.425 1_554 S
C1080 C1087 1.409 . S
C1081 H1073 0.930 . S
C1081 C1079 1.419 . S
C1081 C1082 1.362 . S
C1082 H1074 0.930 . S
C1082 C1081 1.362 . S
C1082 C1085 1.409 . S
C1083 H1075 0.930 . S
C1083 C1084 1.355 . S
C1083 C1085 1.415 1_554 S
C1084 C1083 1.355 . S
C1084 C1086 1.419 . S
C1085 C1080 1.425 1_556 S
C1085 C1082 1.409 . S
C1085 C1083 1.415 1_556 S
C1086 H1076 0.930 . S
C1086 C1084 1.419 . S
C1086 C1087 1.362 . S
C1087 H1077 0.930 . S
C1087 C1080 1.409 . S
C1087 C1086 1.362 . S
H1088 C1094 0.930 . S
H1089 C1097 0.928 . S
H1090 C1098 0.930 . S
H1091 C1099 0.930 . S
H1092 C1102 0.928 . S
H1093 C1103 0.930 . S
C1094 H1088 0.930 . S
C1094 C1095 1.355 . S
C1094 C1096 1.424 . S
C1095 C1094 1.355 . S
C1095 C1097 1.421 . S
C1096 C1094 1.424 . S
C1096 C1101 1.421 1_556 S
C1096 C1103 1.405 . S
C1097 H1089 0.928 . S
C1097 C1095 1.421 . S
C1097 C1098 1.359 1_556 S
C1098 H1090 0.930 . S
C1098 C1097 1.359 1_554 S
C1098 C1101 1.409 . S
C1099 H1091 0.930 . S
C1099 C1100 1.355 . S
C1099 C1101 1.415 . S
C1100 C1099 1.355 . S
C1100 C1102 1.422 . S
C1101 C1096 1.421 1_554 S
C1101 C1098 1.409 . S
C1101 C1099 1.415 . S
C1102 H1092 0.928 . S
C1102 C1100 1.422 . S
C1102 C1103 1.357 1_554 S
C1103 H1093 0.930 . S
C1103 C1096 1.405 . S
C1103 C1102 1.357 1_556 S
H1104 C1110 0.930 . S
H1105 C1113 0.930 . S
H1106 C1114 0.930 . S
H1107 C1115 0.930 . S
H1108 C1118 0.930 . S
H1109 C1119 0.930 . S
C1110 H1104 0.930 . S
C1110 C1111 1.355 . S
C1110 C1112 1.415 . S
C1111 C1110 1.355 . S
C1111 C1113 1.419 . S
C1112 C1110 1.415 . S
C1112 C1117 1.425 . S
C1112 C1119 1.409 . S
C1113 H1105 0.930 . S
C1113 C1111 1.419 . S
C1113 C1114 1.362 . S
C1114 H1106 0.930 . S
C1114 C1113 1.362 . S
C1114 C1117 1.409 . S
C1115 H1107 0.930 . S
C1115 C1116 1.355 . S
C1115 C1117 1.415 . S
C1116 C1115 1.355 . S
C1116 C1118 1.419 . S
C1117 C1112 1.425 . S
C1117 C1114 1.409 . S
C1117 C1115 1.415 . S
C1118 H1108 0.930 . S
C1118 C1116 1.419 . S
C1118 C1119 1.362 . S
C1119 H1109 0.930 . S
C1119 C1112 1.409 . S
C1119 C1118 1.362 . S
H1120 C1126 0.930 . S
H1121 C1129 0.930 . S
H1122 C1130 0.930 . S
H1123 C1131 0.930 . S
H1124 C1134 0.930 . S
H1125 C1135 0.930 . S
C1126 H1120 0.930 . S
C1126 C1127 1.355 . S
C1126 C1128 1.415 . S
C1127 C1126 1.355 . S
C1127 C1129 1.419 . S
C1128 C1126 1.415 . S
C1128 C1133 1.425 . S
C1128 C1135 1.409 . S
C1129 H1121 0.930 . S
C1129 C1127 1.419 . S
C1129 C1130 1.362 . S
C1130 H1122 0.930 . S
C1130 C1129 1.362 . S
C1130 C1133 1.409 . S
C1131 H1123 0.930 . S
C1131 C1132 1.355 . S
C1131 C1133 1.415 . S
C1132 C1131 1.355 . S
C1132 C1134 1.419 . S
C1133 C1128 1.425 . S
C1133 C1130 1.409 . S
C1133 C1131 1.415 . S
C1134 H1124 0.930 . S
C1134 C1132 1.419 . S
C1134 C1135 1.362 . S
C1135 H1125 0.930 . S
C1135 C1128 1.409 . S
C1135 C1134 1.362 . S
H1136 C1142 0.930 . S
H1137 C1145 0.930 . S
H1138 C1146 0.930 . S
H1139 C1147 0.930 . S
H1140 C1150 0.930 . S
H1141 C1151 0.930 . S
C1142 H1136 0.930 . S
C1142 C1143 1.355 . S
C1142 C1144 1.415 . S
C1143 C1142 1.355 . S
C1143 C1145 1.419 . S
C1144 C1142 1.415 . S
C1144 C1149 1.425 . S
C1144 C1151 1.409 . S
C1145 H1137 0.930 . S
C1145 C1143 1.419 . S
C1145 C1146 1.362 . S
C1146 H1138 0.930 . S
C1146 C1145 1.362 . S
C1146 C1149 1.409 . S
C1147 H1139 0.930 . S
C1147 C1148 1.355 . S
C1147 C1149 1.415 . S
C1148 C1147 1.355 . S
C1148 C1150 1.419 . S
C1149 C1144 1.425 . S
C1149 C1146 1.409 . S
C1149 C1147 1.415 . S
C1150 H1140 0.930 . S
C1150 C1148 1.419 . S
C1150 C1151 1.362 . S
C1151 H1141 0.930 . S
C1151 C1144 1.409 . S
C1151 C1150 1.362 . S
H1152 C1158 0.930 . S
H1153 C1161 0.930 . S
H1154 C1162 0.930 . S
H1155 C1163 0.930 . S
H1156 C1166 0.930 . S
H1157 C1167 0.930 . S
C1158 H1152 0.930 . S
C1158 C1159 1.355 . S
C1158 C1160 1.415 . S
C1159 C1158 1.355 . S
C1159 C1161 1.419 . S
C1160 C1158 1.415 . S
C1160 C1165 1.425 . S
C1160 C1167 1.409 . S
C1161 H1153 0.930 . S
C1161 C1159 1.419 . S
C1161 C1162 1.362 . S
C1162 H1154 0.930 . S
C1162 C1161 1.362 . S
C1162 C1165 1.409 . S
C1163 H1155 0.930 . S
C1163 C1164 1.355 . S
C1163 C1165 1.415 . S
C1164 C1163 1.355 . S
C1164 C1166 1.419 . S
C1165 C1160 1.425 . S
C1165 C1162 1.409 . S
C1165 C1163 1.415 . S
C1166 H1156 0.930 . S
C1166 C1164 1.419 . S
C1166 C1167 1.362 . S
C1167 H1157 0.930 . S
C1167 C1160 1.409 . S
C1167 C1166 1.362 . S
H1168 C1174 0.930 . S
H1169 C1177 0.930 . S
H1170 C1178 0.930 . S
H1171 C1179 0.930 . S
H1172 C1182 0.930 . S
H1173 C1183 0.930 . S
C1174 H1168 0.930 . S
C1174 C1175 1.355 . S
C1174 C1176 1.415 . S
C1175 C1174 1.355 . S
C1175 C1177 1.419 . S
C1176 C1174 1.415 . S
C1176 C1181 1.425 . S
C1176 C1183 1.409 . S
C1177 H1169 0.930 . S
C1177 C1175 1.419 . S
C1177 C1178 1.362 . S
C1178 H1170 0.930 . S
C1178 C1177 1.362 . S
C1178 C1181 1.409 . S
C1179 H1171 0.930 . S
C1179 C1180 1.355 . S
C1179 C1181 1.415 . S
C1180 C1179 1.355 . S
C1180 C1182 1.419 . S
C1181 C1176 1.425 . S
C1181 C1178 1.409 . S
C1181 C1179 1.415 . S
C1182 H1172 0.930 . S
C1182 C1180 1.419 . S
C1182 C1183 1.362 . S
C1183 H1173 0.930 . S
C1183 C1176 1.409 . S
C1183 C1182 1.362 . S
H1184 C1190 0.930 . S
H1185 C1193 0.930 . S
H1186 C1194 0.930 . S
H1187 C1195 0.930 . S
H1188 C1198 0.930 . S
H1189 C1199 0.930 . S
C1190 H1184 0.930 . S
C1190 C1191 1.355 . S
C1190 C1192 1.415 . S
C1191 C1190 1.355 . S
C1191 C1193 1.419 . S
C1192 C1190 1.415 . S
C1192 C1197 1.425 . S
C1192 C1199 1.409 . S
C1193 H1185 0.930 . S
C1193 C1191 1.419 . S
C1193 C1194 1.362 . S
C1194 H1186 0.930 . S
C1194 C1193 1.362 . S
C1194 C1197 1.409 . S
C1195 H1187 0.930 . S
C1195 C1196 1.355 . S
C1195 C1197 1.415 . S
C1196 C1195 1.355 . S
C1196 C1198 1.419 . S
C1197 C1192 1.425 . S
C1197 C1194 1.409 . S
C1197 C1195 1.415 . S
C1198 H1188 0.930 . S
C1198 C1196 1.419 . S
C1198 C1199 1.362 . S
C1199 H1189 0.930 . S
C1199 C1192 1.409 . S
C1199 C1198 1.362 . S
H1200 C1206 0.930 . S
H1201 C1209 0.930 . S
H1202 C1210 0.930 . S
H1203 C1211 0.930 . S
H1204 C1214 0.930 . S
H1205 C1215 0.930 . S
C1206 H1200 0.930 . S
C1206 C1207 1.355 . S
C1206 C1208 1.415 . S
C1207 C1206 1.355 . S
C1207 C1209 1.419 . S
C1208 C1206 1.415 . S
C1208 C1213 1.425 . S
C1208 C1215 1.409 . S
C1209 H1201 0.930 . S
C1209 C1207 1.419 . S
C1209 C1210 1.362 . S
C1210 H1202 0.930 . S
C1210 C1209 1.362 . S
C1210 C1213 1.409 . S
C1211 H1203 0.930 . S
C1211 C1212 1.355 . S
C1211 C1213 1.415 . S
C1212 C1211 1.355 . S
C1212 C1214 1.419 . S
C1213 C1208 1.425 . S
C1213 C1210 1.409 . S
C1213 C1211 1.415 . S
C1214 H1204 0.930 . S
C1214 C1212 1.419 . S
C1214 C1215 1.362 . S
C1215 H1205 0.930 . S
C1215 C1208 1.409 . S
C1215 C1214 1.362 . S
H1216 C1222 0.930 . S
H1217 C1225 0.930 . S
H1218 C1226 0.930 . S
H1219 C1227 0.930 . S
H1220 C1230 0.930 . S
H1221 C1231 0.930 . S
C1222 H1216 0.930 . S
C1222 C1223 1.355 . S
C1222 C1224 1.415 . S
C1223 C1222 1.355 . S
C1223 C1225 1.419 . S
C1224 C1222 1.415 . S
C1224 C1229 1.425 . S
C1224 C1231 1.409 . S
C1225 H1217 0.930 . S
C1225 C1223 1.419 . S
C1225 C1226 1.362 . S
C1226 H1218 0.930 . S
C1226 C1225 1.362 . S
C1226 C1229 1.409 . S
C1227 H1219 0.930 . S
C1227 C1228 1.355 . S
C1227 C1229 1.415 . S
C1228 C1227 1.355 . S
C1228 C1230 1.419 . S
C1229 C1224 1.425 . S
C1229 C1226 1.409 . S
C1229 C1227 1.415 . S
C1230 H1220 0.930 . S
C1230 C1228 1.419 . S
C1230 C1231 1.362 . S
C1231 H1221 0.930 . S
C1231 C1224 1.409 . S
C1231 C1230 1.362 . S
H1232 C1238 0.930 . S
H1233 C1241 0.930 . S
H1234 C1242 0.930 . S
H1235 C1243 0.930 . S
H1236 C1246 0.930 . S
H1237 C1247 0.930 . S
C1238 H1232 0.930 . S
C1238 C1239 1.355 . S
C1238 C1240 1.415 . S
C1239 C1238 1.355 . S
C1239 C1241 1.419 . S
C1240 C1238 1.415 . S
C1240 C1245 1.425 . S
C1240 C1247 1.409 . S
C1241 H1233 0.930 . S
C1241 C1239 1.419 . S
C1241 C1242 1.362 . S
C1242 H1234 0.930 . S
C1242 C1241 1.362 . S
C1242 C1245 1.409 . S
C1243 H1235 0.930 . S
C1243 C1244 1.355 . S
C1243 C1245 1.415 . S
C1244 C1243 1.355 . S
C1244 C1246 1.419 . S
C1245 C1240 1.425 . S
C1245 C1242 1.409 . S
C1245 C1243 1.415 . S
C1246 H1236 0.930 . S
C1246 C1244 1.419 . S
C1246 C1247 1.362 . S
C1247 H1237 0.930 . S
C1247 C1240 1.409 . S
C1247 C1246 1.362 . S
H1248 C1254 0.930 . S
H1249 C1257 0.930 . S
H1250 C1258 0.930 . S
H1251 C1259 0.930 . S
H1252 C1262 0.930 . S
H1253 C1263 0.930 . S
C1254 H1248 0.930 . S
C1254 C1255 1.355 . S
C1254 C1256 1.415 . S
C1255 C1254 1.355 . S
C1255 C1257 1.419 . S
C1256 C1254 1.415 . S
C1256 C1261 1.425 . S
C1256 C1263 1.409 . S
C1257 H1249 0.930 . S
C1257 C1255 1.419 . S
C1257 C1258 1.362 . S
C1258 H1250 0.930 . S
C1258 C1257 1.362 . S
C1258 C1261 1.409 . S
C1259 H1251 0.930 . S
C1259 C1260 1.355 . S
C1259 C1261 1.415 . S
C1260 C1259 1.355 . S
C1260 C1262 1.419 . S
C1261 C1256 1.425 . S
C1261 C1258 1.409 . S
C1261 C1259 1.415 . S
C1262 H1252 0.930 . S
C1262 C1260 1.419 . S
C1262 C1263 1.362 . S
C1263 H1253 0.930 . S
C1263 C1256 1.409 . S
C1263 C1262 1.362 . S
H1264 C1270 0.930 . S
H1265 C1273 0.930 . S
H1266 C1274 0.930 . S
H1267 C1275 0.930 . S
H1268 C1278 0.930 . S
H1269 C1279 0.930 . S
C1270 H1264 0.930 . S
C1270 C1271 1.355 . S
C1270 C1272 1.415 . S
C1271 C1270 1.355 . S
C1271 C1273 1.419 . S
C1272 C1270 1.415 . S
C1272 C1277 1.425 . S
C1272 C1279 1.409 . S
C1273 H1265 0.930 . S
C1273 C1271 1.419 . S
C1273 C1274 1.362 . S
C1274 H1266 0.930 . S
C1274 C1273 1.362 . S
C1274 C1277 1.409 . S
C1275 H1267 0.930 . S
C1275 C1276 1.355 . S
C1275 C1277 1.415 . S
C1276 C1275 1.355 . S
C1276 C1278 1.419 . S
C1277 C1272 1.425 . S
C1277 C1274 1.409 . S
C1277 C1275 1.415 . S
C1278 H1268 0.930 . S
C1278 C1276 1.419 . S
C1278 C1279 1.362 . S
C1279 H1269 0.930 . S
C1279 C1272 1.409 . S
C1279 C1278 1.362 . S
H1280 C1286 0.930 . S
H1281 C1289 0.930 . S
H1282 C1290 0.930 . S
H1283 C1291 0.930 . S
H1284 C1294 0.930 . S
H1285 C1295 0.930 . S
C1286 H1280 0.930 . S
C1286 C1287 1.355 . S
C1286 C1288 1.415 . S
C1287 C1286 1.355 . S
C1287 C1289 1.419 . S
C1288 C1286 1.415 . S
C1288 C1293 1.425 . S
C1288 C1295 1.409 . S
C1289 H1281 0.930 . S
C1289 C1287 1.419 . S
C1289 C1290 1.362 . S
C1290 H1282 0.930 . S
C1290 C1289 1.362 . S
C1290 C1293 1.409 . S
C1291 H1283 0.930 . S
C1291 C1292 1.355 . S
C1291 C1293 1.415 . S
C1292 C1291 1.355 . S
C1292 C1294 1.419 . S
C1293 C1288 1.425 . S
C1293 C1290 1.409 . S
C1293 C1291 1.415 . S
C1294 H1284 0.930 . S
C1294 C1292 1.419 . S
C1294 C1295 1.362 . S
C1295 H1285 0.930 . S
C1295 C1288 1.409 . S
C1295 C1294 1.362 . S
C919 C31 1.551 1_455 S
C924 C341 1.548 1_655 S
C935 C73 1.743 . S
C940 C612 1.742 . S
C951 C98 1.696 . S
C956 C243 1.697 . S
C967 C542 1.462 1_565 S
C972 C1 1.458 1_545 S
C983 C113 1.513 1_655 S
C988 C259 1.517 1_455 S
C999 C156 1.723 . S
C1004 C529 1.723 . S
C1015 C326 1.690 . S
C1020 C15 1.689 . S
C1031 C457 1.506 1_545 S
C1036 C86 1.510 1_565 S
C1047 C827 1.468 1_556 S
C1052 C58 1.463 1_554 S
C1063 C810 1.687 . S
C1068 C45 1.686 . S
C1079 C729 1.640 . S
C1084 C126 1.641 . S
C1095 C143 1.488 1_556 S
C1100 C742 1.492 1_554 S
C1111 C840 1.642 . S
C1116 C301 1.646 . S
C1127 C229 1.535 . S
C1132 C770 1.534 . S
C1143 C384 1.635 . S
C1148 C757 1.630 . S
C1159 C685 1.527 . S
C1164 C314 1.527 . S
C1175 C599 1.562 . S
C1180 C286 1.562 . S
C1191 C273 1.673 . S
C1196 C582 1.668 . S
C1207 C354 1.702 . S
C1212 C501 1.707 . S
C1223 C514 1.452 . S
C1228 C371 1.453 . S
C1239 C797 1.452 . S
C1244 C487 1.451 . S
C1255 C554 1.644 . S
C1260 C699 1.649 . S
C1271 C715 1.457 . S
C1276 C569 1.457 . S
C1287 C471 1.693 . S
C1292 C782 1.688 . S
