# Generated by pormake.
# Topology mmt, (4)-cn, num edge types: 1
# Building blocks:
#     Node 0, Type 0, BuildingBlock: CEKHIL_clean_sbu_0, # of connection points: 4
#     Node 1, Type 0, BuildingBlock: CEKHIL_clean_sbu_0, # of connection points: 4
#     Node 2, Type 0, BuildingBlock: CEKHIL_clean_sbu_0, # of connection points: 4
#     Node 3, Type 0, BuildingBlock: CEKHIL_clean_sbu_0, # of connection points: 4
#     Node 4, Type 0, BuildingBlock: CEKHIL_clean_sbu_0, # of connection points: 4
#     Node 5, Type 0, BuildingBlock: CEKHIL_clean_sbu_0, # of connection points: 4
#     Node 6, Type 0, BuildingBlock: CEKHIL_clean_sbu_0, # of connection points: 4
#     Node 7, Type 0, BuildingBlock: CEKHIL_clean_sbu_0, # of connection points: 4
#     Edge 8, Type (0, 0), BuildingBlock: XIVTED_clean_linker_0, # of connection points: 2
#     Edge 9, Type (0, 0), BuildingBlock: XIVTED_clean_linker_0, # of connection points: 2
#     Edge 10, Type (0, 0), BuildingBlock: XIVTED_clean_linker_0, # of connection points: 2
#     Edge 11, Type (0, 0), BuildingBlock: XIVTED_clean_linker_0, # of connection points: 2
#     Edge 12, Type (0, 0), BuildingBlock: XIVTED_clean_linker_0, # of connection points: 2
#     Edge 13, Type (0, 0), BuildingBlock: XIVTED_clean_linker_0, # of connection points: 2
#     Edge 14, Type (0, 0), BuildingBlock: XIVTED_clean_linker_0, # of connection points: 2
#     Edge 15, Type (0, 0), BuildingBlock: XIVTED_clean_linker_0, # of connection points: 2
#     Edge 16, Type (0, 0), BuildingBlock: XIVTED_clean_linker_0, # of connection points: 2
#     Edge 17, Type (0, 0), BuildingBlock: XIVTED_clean_linker_0, # of connection points: 2
#     Edge 18, Type (0, 0), BuildingBlock: XIVTED_clean_linker_0, # of connection points: 2
#     Edge 19, Type (0, 0), BuildingBlock: XIVTED_clean_linker_0, # of connection points: 2
#     Edge 20, Type (0, 0), BuildingBlock: XIVTED_clean_linker_0, # of connection points: 2
#     Edge 21, Type (0, 0), BuildingBlock: XIVTED_clean_linker_0, # of connection points: 2
#     Edge 22, Type (0, 0), BuildingBlock: XIVTED_clean_linker_0, # of connection points: 2
#     Edge 23, Type (0, 0), BuildingBlock: XIVTED_clean_linker_0, # of connection points: 2
# Relax obj value: 0.032
# Max RMSD: 0.050
# Mean RMSD: 0.050
data_MOF--net-mmt--node1-CEKHIL_clean_sbu_0--edge1-XIVTED_clean_linker_0
_symmetry_space_group_name_H-M    P1
_symmetry_Int_Tables_number       1
_symmetry_cell_setting            triclinic
loop_
_symmetry_equiv_pos_as_xyz
'x, y, z'
_cell_length_a     22.382497
_cell_length_b     36.74851
_cell_length_c     44.145305
_cell_angle_alpha  89.97031
_cell_angle_beta   90.020472
_cell_angle_gamma 89.987559
loop_
_atom_site_label
_atom_site_type_symbol
_atom_site_fract_x
_atom_site_fract_y
_atom_site_fract_z
_atom_type_partial_charge
Co0 Co 0.09791 0.57777 0.36184 0.0
O1 O 0.04667 0.5829 0.39677 0.0
O2 O 0.09951 0.53375 0.38616 0.0
C3 C 0.1434 0.63234 0.36685 0.0
O4 O 0.15772 0.56271 0.32917 0.0
Co5 Co 0.09039 0.6302 0.30693 0.0
O6 O 0.16555 0.60638 0.29376 0.0
C7 C 1.00083 0.57142 0.3135 0.0
C8 C 0.06343 0.55043 0.40462 0.0
C9 C 0.18247 0.57633 0.30535 0.0
O10 O 0.02915 0.55854 0.3366 0.0
O11 O 0.01579 0.60104 0.30021 0.0
O12 O 0.16136 0.60452 0.38256 0.0
O13 O 0.09625 0.62717 0.35057 0.0
Co14 Co 0.40957 0.92412 0.36189 0.0
O15 O 0.46103 0.91887 0.39675 0.0
O16 O 0.4082 0.96809 0.38629 0.0
C17 C 0.36404 0.86955 0.36697 0.0
O18 O 0.34958 0.93923 0.32926 0.0
Co19 Co 0.41685 0.87162 0.30703 0.0
O20 O 0.34163 0.89547 0.29395 0.0
C21 C 0.50655 0.93034 0.31352 0.0
C22 C 0.44439 0.95132 0.40468 0.0
C23 C 0.32474 0.92554 0.30549 0.0
O24 O 0.47825 0.94331 0.33658 0.0
O25 O 0.49154 0.90068 0.30032 0.0
O26 O 0.34618 0.89736 0.38268 0.0
O27 O 0.41111 0.87473 0.35065 0.0
Co28 Co 0.59632 0.42306 0.15148 0.0
O29 O 0.54304 0.41774 0.11723 0.0
O30 O 0.59648 0.46688 0.12708 0.0
C31 C 0.64213 0.36853 0.14639 0.0
O32 O 0.65799 0.43851 0.18317 0.0
Co33 Co 0.59186 0.37121 0.20713 0.0
O34 O 0.66693 0.39577 0.21934 0.0
C35 C 0.50115 0.42935 0.20081 0.0
C36 C 0.55954 0.45019 0.1091 0.0
C37 C 0.68342 0.4255 0.20706 0.0
O38 O 0.52895 0.44244 0.17763 0.0
O39 O 0.51665 0.39972 0.21394 0.0
O40 O 0.65814 0.39596 0.12971 0.0
O41 O 0.59614 0.37392 0.16345 0.0
Co42 Co 0.91071 0.07754 0.15055 0.0
O43 O 0.96377 0.0827 0.11622 0.0
O44 O 0.91062 0.03353 0.12639 0.0
C45 C 0.86462 0.13194 0.14507 0.0
O46 O 0.84923 0.06225 0.18238 0.0
Co47 Co 0.9151 0.12989 0.20582 0.0
O48 O 0.84012 0.10536 0.2182 0.0
C49 C 0.00596 0.07176 0.19994 0.0
C50 C 0.94729 0.0502 0.10824 0.0
C51 C 0.82376 0.07546 0.20617 0.0
O52 O 0.97828 0.05849 0.1768 0.0
O53 O 0.99032 0.10144 0.2129 0.0
O54 O 0.84868 0.1043 0.12863 0.0
O55 O 0.91069 0.12681 0.16216 0.0
Co56 Co 0.90856 0.4248 0.65128 0.0
O57 O 0.96298 0.41945 0.61754 0.0
O58 O 0.90968 0.46876 0.62704 0.0
C59 C 0.86248 0.37053 0.64544 0.0
O60 O 0.8459 0.4402 0.6825 0.0
Co61 Co 0.91102 0.37241 0.70662 0.0
O62 O 0.8356 0.397 0.7182 0.0
C63 C 0.00199 0.4305 0.70155 0.0
C64 C 0.94704 0.45197 0.60933 0.0
C65 C 0.81962 0.42692 0.70605 0.0
O66 O 0.97511 0.44376 0.67815 0.0
O67 O 0.98597 0.40082 0.71441 0.0
O68 O 0.84728 0.39816 0.62878 0.0
O69 O 0.90795 0.37559 0.66295 0.0
Co70 Co 0.59297 0.08015 0.6513 0.0
O71 O 0.53893 0.08569 0.61741 0.0
O72 O 0.59269 0.03649 0.62667 0.0
C73 C 0.63845 0.13471 0.64609 0.0
O74 O 0.65537 0.06471 0.68271 0.0
Co75 Co 0.58885 0.132 0.70698 0.0
O76 O 0.66465 0.10781 0.71855 0.0
C77 C 0.49867 0.07356 0.70104 0.0
C78 C 0.55531 0.05334 0.60898 0.0
C79 C 0.68121 0.07804 0.70637 0.0
O80 O 0.52623 0.06059 0.67775 0.0
O81 O 0.51405 0.10322 0.71411 0.0
O82 O 0.65426 0.10739 0.62926 0.0
O83 O 0.59276 0.1292 0.66333 0.0
Co84 Co 0.40696 0.57819 0.86273 0.0
O85 O 0.46066 0.58292 0.89684 0.0
O86 O 0.40655 0.53409 0.88683 0.0
C87 C 0.36182 0.63281 0.8684 0.0
O88 O 0.34479 0.56346 0.83104 0.0
Co89 Co 0.41198 0.63077 0.80756 0.0
O90 O 0.33617 0.60698 0.7955 0.0
C91 C 0.50134 0.57176 0.81296 0.0
C92 C 0.44387 0.55047 0.90482 0.0
C93 C 0.31929 0.57712 0.80742 0.0
O94 O 0.47376 0.55879 0.83624 0.0
O95 O 0.48624 0.60158 0.80001 0.0
O96 O 0.34569 0.60524 0.88489 0.0
O97 O 0.40764 0.62747 0.8512 0.0
Co98 Co 0.09369 0.9238 0.86055 0.0
O99 O 0.04029 0.91887 0.89477 0.0
O100 O 0.09414 0.9678 0.88472 0.0
C101 C 0.13908 0.86922 0.86607 0.0
O102 O 0.15561 0.93879 0.82884 0.0
Co103 Co 0.08896 0.87143 0.80526 0.0
O104 O 0.16456 0.89548 0.79319 0.0
C105 C 0.99894 0.93005 0.81093 0.0
C106 C 0.05713 0.95129 0.90279 0.0
C107 C 0.1812 0.92533 0.80519 0.0
O108 O 0.0266 0.94316 0.83415 0.0
O109 O 0.01425 0.90029 0.798 0.0
O110 O 0.15523 0.89674 0.88259 0.0
O111 O 0.09317 0.87458 0.84892 0.0
H112 H 0.24819 0.59651 0.2555 0.0
H113 H 0.42839 0.40862 0.24756 0.0
H114 H 0.22615 0.50846 0.31936 0.0
H115 H 0.45942 0.49778 0.18574 0.0
H116 H 0.35158 0.44434 0.27263 0.0
H117 H 0.32376 0.56074 0.22892 0.0
C118 C 0.25926 0.56972 0.26404 0.0
C119 C 0.23048 0.55554 0.2898 0.0
C120 C 0.37498 0.45614 0.25354 0.0
C121 C 0.31706 0.51431 0.2592 0.0
C122 C 0.41895 0.43568 0.23907 0.0
C123 C 0.45091 0.45017 0.21444 0.0
C124 C 0.36244 0.49154 0.24347 0.0
C125 C 0.4361 0.48541 0.20458 0.0
C126 C 0.30245 0.54928 0.24877 0.0
C127 C 0.24699 0.52063 0.29969 0.0
N128 N 0.3931 0.50493 0.2192 0.0
N129 N 0.28899 0.50125 0.28436 0.0
H130 H 0.07837 0.09279 0.24677 0.0
H131 H 0.25888 0.90507 0.25578 0.0
H132 H 0.04803 0.00331 0.18525 0.0
H133 H 0.28102 0.99351 0.31919 0.0
H134 H 0.1833 0.94065 0.22902 0.0
H135 H 0.15515 0.05728 0.27214 0.0
C136 C 0.08796 0.06571 0.23841 0.0
C137 C 0.05621 0.05107 0.21377 0.0
C138 C 0.20462 0.95224 0.24881 0.0
C139 C 0.14463 0.00994 0.24315 0.0
C140 C 0.24783 0.93191 0.26419 0.0
C141 C 0.27665 0.94625 0.28987 0.0
C142 C 0.19002 0.98728 0.25904 0.0
C143 C 0.26015 0.98123 0.29958 0.0
C144 C 0.13191 0.04537 0.25305 0.0
C145 C 0.07119 0.0158 0.20409 0.0
N146 N 0.21812 1.00051 0.28414 0.0
N147 N 0.11416 0.9964 0.21887 0.0
H148 H 0.72689 0.49295 0.19152 0.0
H149 H 0.95917 0.50346 0.32977 0.0
H150 H 0.74944 0.40688 0.25721 0.0
H151 H 0.92893 0.59066 0.26591 0.0
H152 H 0.88228 0.46759 0.30393 0.0
H153 H 0.80217 0.52864 0.21832 0.0
C154 C 0.7478 0.48142 0.21147 0.0
C155 C 0.73153 0.44678 0.22206 0.0
C156 C 0.89239 0.49465 0.29569 0.0
C157 C 0.8178 0.48776 0.25309 0.0
C158 C 0.93616 0.51523 0.31052 0.0
C159 C 0.9509 0.55019 0.30003 0.0
C160 C 0.86318 0.50908 0.27015 0.0
C161 C 0.91949 0.56386 0.27486 0.0
C162 C 0.7907 0.50192 0.22686 0.0
C163 C 0.76031 0.43344 0.24815 0.0
N164 N 0.87746 0.54327 0.26079 0.0
N165 N 0.8019 0.45393 0.26275 0.0
H166 H 0.78056 0.00778 0.19119 0.0
H167 H 0.54804 0.99849 0.32933 0.0
H168 H 0.7577 0.09453 0.25615 0.0
H169 H 0.57873 0.91066 0.26621 0.0
H170 H 0.62496 0.03417 0.3033 0.0
H171 H 0.7054 0.97228 0.21826 0.0
C172 C 0.75962 0.0195 0.21103 0.0
C173 C 0.77576 0.05427 0.22134 0.0
C174 C 0.61493 0.00701 0.29528 0.0
C175 C 0.68961 0.01352 0.25268 0.0
C176 C 0.57115 0.98655 0.31022 0.0
C177 C 0.55652 0.95147 0.29998 0.0
C178 C 0.64426 0.99235 0.26988 0.0
C179 C 0.58807 0.93757 0.27497 0.0
C180 C 0.71677 0.99911 0.22659 0.0
C181 C 0.74693 0.06786 0.24731 0.0
N182 N 0.63009 0.95805 0.26078 0.0
N183 N 0.7054 0.04748 0.26206 0.0
H184 H 0.54361 0.50382 0.82884 0.0
H185 H 0.77621 0.49452 0.69068 0.0
H186 H 0.5716 0.59102 0.76473 0.0
H187 H 0.75254 0.40775 0.75561 0.0
H188 H 0.70025 0.52989 0.71735 0.0
H189 H 0.62036 0.4682 0.8027 0.0
C190 C 0.56605 0.51562 0.80945 0.0
C191 C 0.55079 0.55054 0.79902 0.0
C192 C 0.71161 0.50307 0.72574 0.0
C193 C 0.63844 0.50972 0.7688 0.0
C194 C 0.75492 0.48277 0.71042 0.0
C195 C 0.77109 0.44804 0.72086 0.0
C196 C 0.68407 0.48862 0.75172 0.0
C197 C 0.74179 0.43439 0.74668 0.0
C198 C 0.60976 0.4952 0.79445 0.0
C199 C 0.58149 0.56426 0.77366 0.0
N200 N 0.69989 0.4547 0.76121 0.0
N201 N 0.62355 0.54383 0.75944 0.0
H202 H 0.74952 0.09837 0.75517 0.0
H203 H 0.92665 0.9095 0.76388 0.0
H204 H 0.72376 0.00985 0.69217 0.0
H205 H 0.95789 0.9987 0.82558 0.0
H206 H 0.85059 0.94552 0.73839 0.0
H207 H 0.82509 0.0624 0.78145 0.0
C208 C 0.75982 0.07142 0.74672 0.0
C209 C 0.72989 0.05717 0.72133 0.0
C210 C 0.87389 0.95725 0.75754 0.0
C211 C 0.81658 0.01566 0.75166 0.0
C212 C 0.91741 0.93662 0.77226 0.0
C213 C 0.94917 0.95103 0.797 0.0
C214 C 0.86165 0.99272 0.76748 0.0
C215 C 0.93469 0.98637 0.80667 0.0
C216 C 0.80302 0.05087 0.76185 0.0
C217 C 0.74551 0.02207 0.71156 0.0
N218 N 0.89216 0.00603 0.79184 0.0
N219 N 0.78758 0.00254 0.72678 0.0
H220 H 0.25229 0.59771 0.75819 0.0
H221 H 0.07264 0.4098 0.74921 0.0
H222 H 0.27562 0.50921 0.82153 0.0
H223 H 0.04445 0.49879 0.68684 0.0
H224 H 0.14862 0.44552 0.77501 0.0
H225 H 0.17678 0.56206 0.73161 0.0
C226 C 0.24146 0.57084 0.76665 0.0
C227 C 0.27068 0.55649 0.79222 0.0
C228 C 0.12601 0.45726 0.75564 0.0
C229 C 0.1841 0.51535 0.76157 0.0
C230 C 0.08254 0.43681 0.74076 0.0
C231 C 0.05167 0.45125 0.71574 0.0
C232 C 0.13908 0.49259 0.74559 0.0
C233 C 0.06695 0.48644 0.70596 0.0
C234 C 0.19831 0.55046 0.75135 0.0
C235 C 0.25443 0.52149 0.80199 0.0
N236 N 0.10941 0.50593 0.72097 0.0
N237 N 0.21242 0.50214 0.78662 0.0
H238 H 0.24856 0.90525 0.75595 0.0
H239 H 0.42656 0.09382 0.74819 0.0
H240 H 0.22424 0.99325 0.81959 0.0
H241 H 0.45744 0.00509 0.68598 0.0
H242 H 0.35044 0.05771 0.77347 0.0
H243 H 0.32408 0.94128 0.72969 0.0
C244 C 0.25916 0.93209 0.76453 0.0
C245 C 0.22968 0.94618 0.79011 0.0
C246 C 0.37367 0.0461 0.75425 0.0
C247 C 0.31624 0.98775 0.75983 0.0
C248 C 0.41723 0.06678 0.73967 0.0
C249 C 0.4489 0.05253 0.71486 0.0
C250 C 0.36131 0.01073 0.74411 0.0
C251 C 0.43431 0.01729 0.70496 0.0
C252 C 0.30232 0.95268 0.74942 0.0
C253 C 0.24563 0.98115 0.80005 0.0
N254 N 0.39173 0.99757 0.71968 0.0
N255 N 0.28763 1.00071 0.78486 0.0
H256 H 0.09559 0.48452 0.4293 0.0
H257 H 0.91724 0.51813 0.58474 0.0
H258 H 0.99022 0.58036 0.44752 0.0
H259 H 0.02132 0.42167 0.56688 0.0
H260 H 0.94493 0.54171 0.53483 0.0
H261 H 0.06906 0.46086 0.47946 0.0
C262 C 0.0666 0.50049 0.44375 0.0
C263 C 0.04508 0.53448 0.43412 0.0
C264 C 0.96192 0.51543 0.54184 0.0
C265 C 0.01487 0.5077 0.49174 0.0
C266 C 0.94627 0.50201 0.57042 0.0
C267 C 0.96698 0.46786 0.58008 0.0
C268 C 0.99854 0.49458 0.52264 0.0
C269 C 0.00433 0.44815 0.56044 0.0
C270 C 0.05161 0.48703 0.47245 0.0
C271 C 0.00785 0.55402 0.45391 0.0
N272 N 0.01876 0.46173 0.53269 0.0
N273 N 0.99406 0.54041 0.48171 0.0
H274 H 0.51936 0.9216 0.44691 0.0
H275 H 0.47953 0.08347 0.56712 0.0
H276 H 0.41108 0.01664 0.43011 0.0
H277 H 0.58711 0.98802 0.58343 0.0
H278 H 0.45308 0.05937 0.51724 0.0
H279 H 0.54495 0.94579 0.49676 0.0
C280 C 0.50118 0.94769 0.45362 0.0
C281 C 0.46299 0.96712 0.4342 0.0
C282 C 0.48231 0.04361 0.53174 0.0
C283 C 0.49189 0.99495 0.49163 0.0
C284 C 0.49731 0.0573 0.56032 0.0
C285 C 0.53562 0.03774 0.57958 0.0
C286 C 0.50582 0.01006 0.52221 0.0
C287 C 0.55737 0.00404 0.56942 0.0
C288 C 0.51571 0.96145 0.48219 0.0
C289 C 0.44077 1.00075 0.44426 0.0
N290 N 0.54231 0.99135 0.54146 0.0
N291 N 0.45543 0.01355 0.47227 0.0
H292 H 0.59056 0.51628 0.08478 0.0
H293 H 0.41237 0.48435 0.92905 0.0
H294 H 0.48592 0.42028 0.06614 0.0
H295 H 0.51815 0.5799 0.94764 0.0
H296 H 0.43928 0.46019 0.97894 0.0
H297 H 0.56373 0.54026 0.03486 0.0
C298 C 0.56162 0.50033 0.07028 0.0
C299 C 0.54044 0.46621 0.07974 0.0
C300 C 0.45678 0.48639 0.97208 0.0
C301 C 0.50986 0.4934 0.02229 0.0
C302 C 0.44158 0.50015 0.94352 0.0
C303 C 0.46304 0.53422 0.93408 0.0
C304 C 0.49369 0.50683 0.99145 0.0
C305 C 0.50058 0.55351 0.9539 0.0
C306 C 0.54646 0.51399 0.0417 0.0
C307 C 0.50324 0.44673 0.05987 0.0
N308 N 0.51455 0.53961 0.9816 0.0
N309 N 0.48927 0.46055 0.03213 0.0
H310 H 0.08908 0.01725 0.92708 0.0
H311 H 0.91567 0.98416 0.084 0.0
H312 H 0.98403 0.92148 0.946 0.0
H313 H 0.02005 0.08017 0.06496 0.0
H314 H 0.94103 0.96047 0.0338 0.0
H315 H 0.06372 0.04097 0.97728 0.0
C316 C 0.06033 0.00131 0.94169 0.0
C317 C 0.03863 0.96731 0.93224 0.0
C318 C 0.95857 0.98668 0.04062 0.0
C319 C 0.00979 0.99419 0.98999 0.0
C320 C 0.94428 1.00017 0.06936 0.0
C321 C 0.96578 0.03422 0.07878 0.0
C322 C 0.99463 0.00737 0.02102 0.0
C323 C 0.00249 0.05377 0.05873 0.0
C324 C 0.04603 0.01482 0.97043 0.0
C325 C 0.00173 0.94784 0.95225 0.0
N326 N 0.01561 0.04013 0.03085 0.0
N327 N 0.98864 0.96149 0.98013 0.0
H328 H 0.09872 0.69933 0.35305 0.0
H329 H 0.40864 0.8026 0.3531 0.0
H330 H 0.26077 0.64505 0.3806 0.0
H331 H 0.24668 0.85683 0.38075 0.0
H332 H 0.35502 0.74434 0.35356 0.0
H333 H 0.1523 0.7576 0.35359 0.0
C334 C 0.14562 0.6997 0.35911 0.0
C335 C 0.17545 0.66744 0.36688 0.0
C336 C 0.33139 0.76903 0.35955 0.0
C337 C 0.23686 0.73364 0.36701 0.0
C338 C 0.36174 0.80222 0.35916 0.0
C339 C 0.33196 0.83446 0.36699 0.0
C340 C 0.2705 0.76828 0.36703 0.0
C341 C 0.27127 0.83251 0.37475 0.0
C342 C 0.17596 0.73289 0.35954 0.0
C343 C 0.23615 0.66938 0.37463 0.0
N344 N 0.24228 0.79996 0.37429 0.0
N345 N 0.26511 0.70193 0.37422 0.0
H346 H 0.79932 0.16119 0.09883 0.0
H347 H 0.65281 0.31997 0.19294 0.0
H348 H 0.85423 0.1814 0.19096 0.0
H349 H 0.70662 0.33817 0.10036 0.0
H350 H 0.70793 0.26221 0.19272 0.0
H351 H 0.7458 0.21968 0.09882 0.0
C352 C 0.79979 0.17785 0.11907 0.0
C353 C 0.83126 0.1666 0.14492 0.0
C354 C 0.70758 0.27895 0.17251 0.0
C355 C 0.76954 0.23271 0.1452 0.0
C356 C 0.67607 0.31175 0.17256 0.0
C357 C 0.67542 0.33385 0.14664 0.0
C358 C 0.73702 0.2677 0.14608 0.0
C359 C 0.70641 0.32197 0.12085 0.0
C360 C 0.76963 0.21116 0.11897 0.0
C361 C 0.83075 0.1892 0.17053 0.0
N362 N 0.73546 0.28942 0.12107 0.0
N363 N 0.79979 0.22105 0.17016 0.0
H364 H 0.64891 0.18319 0.69264 0.0
H365 H 0.79789 0.34153 0.59888 0.0
H366 H 0.70325 0.16502 0.60014 0.0
H367 H 0.85081 0.32114 0.6913 0.0
H368 H 0.74382 0.28325 0.59867 0.0
H369 H 0.70432 0.2408 0.69253 0.0
C370 C 0.67234 0.19139 0.6723 0.0
C371 C 0.67178 0.16935 0.64637 0.0
C372 C 0.76735 0.29169 0.61893 0.0
C373 C 0.73373 0.23531 0.64595 0.0
C374 C 0.79782 0.32488 0.61914 0.0
C375 C 0.82887 0.33601 0.64513 0.0
C376 C 0.76656 0.27016 0.64517 0.0
C377 C 0.82767 0.31342 0.67077 0.0
C378 C 0.70402 0.22411 0.67232 0.0
C379 C 0.70298 0.18119 0.62063 0.0
N380 N 0.79643 0.2817 0.67027 0.0
N381 N 0.73222 0.21365 0.62092 0.0
H382 H 0.2967 0.66226 0.91455 0.0
H383 H 0.14956 0.82033 0.8198 0.0
H384 H 0.3516 0.68217 0.82238 0.0
H385 H 0.20366 0.8392 0.91224 0.0
H386 H 0.20486 0.76264 0.82029 0.0
H387 H 0.24308 0.72071 0.91434 0.0
C388 C 0.29717 0.67885 0.89426 0.0
C389 C 0.32864 0.66752 0.86846 0.0
C390 C 0.20453 0.77951 0.84041 0.0
C391 C 0.26679 0.73357 0.86792 0.0
C392 C 0.17291 0.81227 0.84021 0.0
C393 C 0.17231 0.83453 0.866 0.0
C394 C 0.23411 0.76849 0.86688 0.0
C395 C 0.20342 0.82286 0.89185 0.0
C396 C 0.26694 0.71213 0.89423 0.0
C397 C 0.32812 0.69003 0.84278 0.0
N398 N 0.23257 0.79035 0.89178 0.0
N399 N 0.29708 0.72185 0.84302 0.0
loop_
_geom_bond_atom_site_label_1
_geom_bond_atom_site_label_2
_geom_bond_distance
_geom_bond_site_symmetry_2
_ccdc_geom_bond_type
Co0 O1 2.216 . S
Co0 O2 2.091 . S
Co0 O4 2.004 . S
Co0 O10 2.021 . S
Co0 O12 2.137 . S
Co0 O13 2.244 . S
O1 Co0 2.216 . S
O1 C8 1.247 . S
O2 Co0 2.091 . S
O2 C8 1.261 . S
C3 O12 1.247 . S
C3 O13 1.272 . S
O4 Co0 2.004 . S
O4 C9 1.259 . S
Co5 O6 2.061 . S
Co5 O11 2.052 . S
Co5 O13 2.135 . S
O6 Co5 2.061 . S
O6 C9 1.235 . S
C7 O10 1.238 . S
C7 O11 1.241 . S
C8 O1 1.247 . S
C8 O2 1.261 . S
C9 O4 1.259 . S
C9 O6 1.235 . S
O10 Co0 2.021 . S
O10 C7 1.238 . S
O11 Co5 2.052 . S
O11 C7 1.241 . S
O12 Co0 2.137 . S
O12 C3 1.247 . S
O13 Co0 2.244 . S
O13 C3 1.272 . S
O13 Co5 2.135 . S
Co14 O15 2.216 . S
Co14 O16 2.091 . S
Co14 O18 2.004 . S
Co14 O24 2.021 . S
Co14 O26 2.137 . S
Co14 O27 2.244 . S
O15 Co14 2.216 . S
O15 C22 1.247 . S
O16 Co14 2.091 . S
O16 C22 1.261 . S
C17 O26 1.247 . S
C17 O27 1.272 . S
O18 Co14 2.004 . S
O18 C23 1.259 . S
Co19 O20 2.061 . S
Co19 O25 2.052 . S
Co19 O27 2.135 . S
O20 Co19 2.061 . S
O20 C23 1.235 . S
C21 O24 1.238 . S
C21 O25 1.241 . S
C22 O15 1.247 . S
C22 O16 1.261 . S
C23 O18 1.259 . S
C23 O20 1.235 . S
O24 Co14 2.021 . S
O24 C21 1.238 . S
O25 Co19 2.052 . S
O25 C21 1.241 . S
O26 Co14 2.137 . S
O26 C17 1.247 . S
O27 Co14 2.244 . S
O27 C17 1.272 . S
O27 Co19 2.135 . S
Co28 O29 2.216 . S
Co28 O30 2.091 . S
Co28 O32 2.004 . S
Co28 O38 2.021 . S
Co28 O40 2.137 . S
Co28 O41 2.244 . S
O29 Co28 2.216 . S
O29 C36 1.247 . S
O30 Co28 2.091 . S
O30 C36 1.261 . S
C31 O40 1.247 . S
C31 O41 1.272 . S
O32 Co28 2.004 . S
O32 C37 1.259 . S
Co33 O34 2.061 . S
Co33 O39 2.052 . S
Co33 O41 2.135 . S
O34 Co33 2.061 . S
O34 C37 1.235 . S
C35 O38 1.238 . S
C35 O39 1.241 . S
C36 O29 1.247 . S
C36 O30 1.261 . S
C37 O32 1.259 . S
C37 O34 1.235 . S
O38 Co28 2.021 . S
O38 C35 1.238 . S
O39 Co33 2.052 . S
O39 C35 1.241 . S
O40 Co28 2.137 . S
O40 C31 1.247 . S
O41 Co28 2.244 . S
O41 C31 1.272 . S
O41 Co33 2.135 . S
Co42 O43 2.216 . S
Co42 O44 2.091 . S
Co42 O46 2.004 . S
Co42 O52 2.021 . S
Co42 O54 2.137 . S
Co42 O55 2.244 . S
O43 Co42 2.216 . S
O43 C50 1.247 . S
O44 Co42 2.091 . S
O44 C50 1.261 . S
C45 O54 1.247 . S
C45 O55 1.272 . S
O46 Co42 2.004 . S
O46 C51 1.259 . S
Co47 O48 2.061 . S
Co47 O53 2.052 . S
Co47 O55 2.135 . S
O48 Co47 2.061 . S
O48 C51 1.235 . S
C49 O52 1.238 . S
C49 O53 1.241 . S
C50 O43 1.247 . S
C50 O44 1.261 . S
C51 O46 1.259 . S
C51 O48 1.235 . S
O52 Co42 2.021 . S
O52 C49 1.238 . S
O53 Co47 2.052 . S
O53 C49 1.241 . S
O54 Co42 2.137 . S
O54 C45 1.247 . S
O55 Co42 2.244 . S
O55 C45 1.272 . S
O55 Co47 2.135 . S
Co56 O57 2.216 . S
Co56 O58 2.091 . S
Co56 O60 2.004 . S
Co56 O66 2.021 . S
Co56 O68 2.137 . S
Co56 O69 2.244 . S
O57 Co56 2.216 . S
O57 C64 1.247 . S
O58 Co56 2.091 . S
O58 C64 1.261 . S
C59 O68 1.247 . S
C59 O69 1.272 . S
O60 Co56 2.004 . S
O60 C65 1.259 . S
Co61 O62 2.061 . S
Co61 O67 2.052 . S
Co61 O69 2.135 . S
O62 Co61 2.061 . S
O62 C65 1.235 . S
C63 O66 1.238 . S
C63 O67 1.241 . S
C64 O57 1.247 . S
C64 O58 1.261 . S
C65 O60 1.259 . S
C65 O62 1.235 . S
O66 Co56 2.021 . S
O66 C63 1.238 . S
O67 Co61 2.052 . S
O67 C63 1.241 . S
O68 Co56 2.137 . S
O68 C59 1.247 . S
O69 Co56 2.244 . S
O69 C59 1.272 . S
O69 Co61 2.135 . S
Co70 O71 2.216 . S
Co70 O72 2.091 . S
Co70 O74 2.004 . S
Co70 O80 2.021 . S
Co70 O82 2.137 . S
Co70 O83 2.244 . S
O71 Co70 2.216 . S
O71 C78 1.247 . S
O72 Co70 2.091 . S
O72 C78 1.261 . S
C73 O82 1.247 . S
C73 O83 1.272 . S
O74 Co70 2.004 . S
O74 C79 1.259 . S
Co75 O76 2.061 . S
Co75 O81 2.052 . S
Co75 O83 2.135 . S
O76 Co75 2.061 . S
O76 C79 1.235 . S
C77 O80 1.238 . S
C77 O81 1.241 . S
C78 O71 1.247 . S
C78 O72 1.261 . S
C79 O74 1.259 . S
C79 O76 1.235 . S
O80 Co70 2.021 . S
O80 C77 1.238 . S
O81 Co75 2.052 . S
O81 C77 1.241 . S
O82 Co70 2.137 . S
O82 C73 1.247 . S
O83 Co70 2.244 . S
O83 C73 1.272 . S
O83 Co75 2.135 . S
Co84 O85 2.216 . S
Co84 O86 2.091 . S
Co84 O88 2.004 . S
Co84 O94 2.021 . S
Co84 O96 2.137 . S
Co84 O97 2.244 . S
O85 Co84 2.216 . S
O85 C92 1.247 . S
O86 Co84 2.091 . S
O86 C92 1.261 . S
C87 O96 1.247 . S
C87 O97 1.272 . S
O88 Co84 2.004 . S
O88 C93 1.259 . S
Co89 O90 2.061 . S
Co89 O95 2.052 . S
Co89 O97 2.135 . S
O90 Co89 2.061 . S
O90 C93 1.235 . S
C91 O94 1.238 . S
C91 O95 1.241 . S
C92 O85 1.247 . S
C92 O86 1.261 . S
C93 O88 1.259 . S
C93 O90 1.235 . S
O94 Co84 2.021 . S
O94 C91 1.238 . S
O95 Co89 2.052 . S
O95 C91 1.241 . S
O96 Co84 2.137 . S
O96 C87 1.247 . S
O97 Co84 2.244 . S
O97 C87 1.272 . S
O97 Co89 2.135 . S
Co98 O99 2.216 . S
Co98 O100 2.091 . S
Co98 O102 2.004 . S
Co98 O108 2.021 . S
Co98 O110 2.137 . S
Co98 O111 2.244 . S
O99 Co98 2.216 . S
O99 C106 1.247 . S
O100 Co98 2.091 . S
O100 C106 1.261 . S
C101 O110 1.247 . S
C101 O111 1.272 . S
O102 Co98 2.004 . S
O102 C107 1.259 . S
Co103 O104 2.061 . S
Co103 O109 2.052 . S
Co103 O111 2.135 . S
O104 Co103 2.061 . S
O104 C107 1.235 . S
C105 O108 1.238 . S
C105 O109 1.241 . S
C106 O99 1.247 . S
C106 O100 1.261 . S
C107 O102 1.259 . S
C107 O104 1.235 . S
O108 Co98 2.021 . S
O108 C105 1.238 . S
O109 Co103 2.052 . S
O109 C105 1.241 . S
O110 Co98 2.137 . S
O110 C101 1.247 . S
O111 Co98 2.244 . S
O111 C101 1.272 . S
O111 Co103 2.135 . S
H112 C118 0.930 . S
H113 C122 0.930 . S
H114 C127 0.929 . S
H115 C125 0.929 . S
H116 C120 0.929 . S
H117 C126 0.929 . S
C118 H112 0.930 . S
C118 C119 1.367 . S
C118 C126 1.378 . S
C119 C118 1.367 . S
C119 C127 1.433 . S
C120 H116 0.929 . S
C120 C122 1.378 . S
C120 C124 1.350 . S
C121 C124 1.463 . S
C121 C126 1.350 . S
C121 N129 1.427 . S
C122 H113 0.930 . S
C122 C120 1.378 . S
C122 C123 1.367 . S
C123 C122 1.367 . S
C123 C125 1.433 . S
C124 C120 1.350 . S
C124 C121 1.463 . S
C124 N128 1.427 . S
C125 H115 0.929 . S
C125 C123 1.433 . S
C125 N128 1.384 . S
C126 H117 0.929 . S
C126 C118 1.378 . S
C126 C121 1.350 . S
C127 H114 0.929 . S
C127 C119 1.433 . S
C127 N129 1.384 . S
N128 C124 1.427 . S
N128 C125 1.384 . S
N129 C121 1.427 . S
N129 C127 1.384 . S
H130 C136 0.929 1_655 S
H131 C140 0.930 . S
H132 C145 0.929 1_565 S
H133 C143 0.922 1_545 S
H134 C138 0.929 . S
H135 C144 0.929 . S
C136 H130 0.929 1_455 S
C136 C137 1.367 1_455 S
C136 C144 1.380 . S
C137 C136 1.367 1_655 S
C137 C145 1.426 1_655 S
C138 H134 0.929 . S
C138 C140 1.378 . S
C138 C142 1.350 . S
C139 C142 1.463 1_545 S
C139 C144 1.350 . S
C139 N147 1.427 1_545 S
C140 H131 0.930 . S
C140 C138 1.378 . S
C140 C141 1.367 . S
C141 C140 1.367 . S
C141 C143 1.447 . S
C142 C138 1.350 . S
C142 C139 1.463 1_565 S
C142 N146 1.427 1_565 S
C143 H133 0.922 1_565 S
C143 C141 1.447 . S
C143 N146 1.378 1_565 S
C144 H135 0.929 . S
C144 C136 1.380 . S
C144 C139 1.350 . S
C145 H132 0.929 1_545 S
C145 C137 1.426 1_455 S
C145 N147 1.384 1_545 S
N146 C142 1.427 1_545 S
N146 C143 1.378 1_545 S
N147 C139 1.427 1_565 S
N147 C145 1.384 1_565 S
H148 C154 0.930 . S
H149 C158 0.930 . S
H150 C163 0.929 . S
H151 C161 0.929 . S
H152 C156 0.929 . S
H153 C162 0.929 . S
C154 H148 0.930 . S
C154 C155 1.367 . S
C154 C162 1.378 . S
C155 C154 1.367 . S
C155 C163 1.433 . S
C156 H152 0.929 . S
C156 C158 1.378 . S
C156 C160 1.350 . S
C157 C160 1.463 . S
C157 C162 1.350 . S
C157 N165 1.427 . S
C158 H149 0.930 . S
C158 C156 1.378 . S
C158 C159 1.375 . S
C159 C158 1.375 . S
C159 C161 1.432 1_655 S
C160 C156 1.350 . S
C160 C157 1.463 . S
C160 N164 1.427 . S
C161 H151 0.929 . S
C161 C159 1.432 1_455 S
C161 N164 1.384 1_455 S
C162 H153 0.929 . S
C162 C154 1.378 . S
C162 C157 1.350 . S
C163 H150 0.929 . S
C163 C155 1.433 . S
C163 N165 1.384 . S
N164 C160 1.427 . S
N164 C161 1.384 1_655 S
N165 C157 1.427 . S
N165 C163 1.384 . S
H166 C172 0.930 . S
H167 C176 0.930 . S
H168 C181 0.929 . S
H169 C179 0.929 . S
H170 C174 0.929 . S
H171 C180 0.929 . S
C172 H166 0.930 . S
C172 C173 1.367 1_565 S
C172 C180 1.378 . S
C173 C172 1.367 1_545 S
C173 C181 1.433 . S
C174 H170 0.929 . S
C174 C176 1.378 . S
C174 C178 1.350 1_545 S
C175 C178 1.463 1_545 S
C175 C180 1.350 1_545 S
C175 N183 1.427 . S
C176 H167 0.930 . S
C176 C174 1.378 . S
C176 C177 1.367 1_545 S
C177 C176 1.367 1_565 S
C177 C179 1.433 . S
C178 C174 1.350 1_565 S
C178 C175 1.463 1_565 S
C178 N182 1.427 . S
C179 H169 0.929 . S
C179 C177 1.433 . S
C179 N182 1.384 . S
C180 H171 0.929 . S
C180 C172 1.378 . S
C180 C175 1.350 1_565 S
C181 H168 0.929 . S
C181 C173 1.433 . S
C181 N183 1.384 . S
N182 C178 1.427 . S
N182 C179 1.384 . S
N183 C175 1.427 . S
N183 C181 1.384 . S
H184 C190 0.930 . S
H185 C194 0.930 . S
H186 C199 0.929 . S
H187 C197 0.929 . S
H188 C192 0.929 . S
H189 C198 0.929 . S
C190 H184 0.930 . S
C190 C191 1.367 . S
C190 C198 1.378 . S
C191 C190 1.367 . S
C191 C199 1.433 . S
C192 H188 0.929 . S
C192 C194 1.378 . S
C192 C196 1.350 . S
C193 C196 1.463 . S
C193 C198 1.350 . S
C193 N201 1.427 . S
C194 H185 0.930 . S
C194 C192 1.378 . S
C194 C195 1.367 . S
C195 C194 1.367 . S
C195 C197 1.433 . S
C196 C192 1.350 . S
C196 C193 1.463 . S
C196 N200 1.427 . S
C197 H187 0.929 . S
C197 C195 1.433 . S
C197 N200 1.384 . S
C198 H189 0.929 . S
C198 C190 1.378 . S
C198 C193 1.350 . S
C199 H186 0.929 . S
C199 C191 1.433 . S
C199 N201 1.384 . S
N200 C196 1.427 . S
N200 C197 1.384 . S
N201 C193 1.427 . S
N201 C199 1.384 . S
H202 C208 0.930 . S
H203 C212 0.930 . S
H204 C217 0.936 . S
H205 C215 0.929 . S
H206 C210 0.929 . S
H207 C216 0.929 . S
C208 H202 0.930 . S
C208 C209 1.367 . S
C208 C216 1.378 . S
C209 C208 1.367 . S
C209 C217 1.433 . S
C210 H206 0.929 . S
C210 C212 1.378 1_655 S
C210 C214 1.350 . S
C211 C214 1.463 1_545 S
C211 C216 1.350 . S
C211 N219 1.427 1_545 S
C212 H203 0.930 . S
C212 C210 1.378 1_455 S
C212 C213 1.368 . S
C213 C212 1.368 . S
C213 C215 1.423 1_455 S
C214 C210 1.350 . S
C214 C211 1.463 1_565 S
C214 N218 1.422 1_565 S
C215 H205 0.929 . S
C215 C213 1.423 1_655 S
C215 N218 1.377 1_565 S
C216 H207 0.929 . S
C216 C208 1.378 . S
C216 C211 1.350 . S
C217 H204 0.936 . S
C217 C209 1.433 . S
C217 N219 1.384 1_545 S
N218 C214 1.422 1_545 S
N218 C215 1.377 1_545 S
N219 C211 1.427 1_565 S
N219 C217 1.384 1_565 S
H220 C226 0.930 . S
H221 C230 0.930 . S
H222 C235 0.929 . S
H223 C233 0.929 . S
H224 C228 0.929 . S
H225 C234 0.929 . S
C226 H220 0.930 . S
C226 C227 1.367 . S
C226 C234 1.378 . S
C227 C226 1.367 . S
C227 C235 1.433 . S
C228 H224 0.929 . S
C228 C230 1.378 1_455 S
C228 C232 1.350 . S
C229 C232 1.463 . S
C229 C234 1.350 . S
C229 N237 1.427 . S
C230 H221 0.930 . S
C230 C228 1.378 1_655 S
C230 C231 1.371 . S
C231 C230 1.371 . S
C231 C233 1.416 1_655 S
C232 C228 1.350 . S
C232 C229 1.463 . S
C232 N236 1.427 . S
C233 H223 0.929 . S
C233 C231 1.416 1_455 S
C233 N236 1.384 . S
C234 H225 0.929 . S
C234 C226 1.378 . S
C234 C229 1.350 . S
C235 H222 0.929 . S
C235 C227 1.433 . S
C235 N237 1.384 . S
N236 C232 1.427 . S
N236 C233 1.384 . S
N237 C229 1.427 . S
N237 C235 1.384 . S
H238 C244 0.930 . S
H239 C248 0.930 . S
H240 C253 0.929 . S
H241 C251 0.929 . S
H242 C246 0.929 . S
H243 C252 0.929 . S
C244 H238 0.930 . S
C244 C245 1.367 . S
C244 C252 1.378 . S
C245 C244 1.367 . S
C245 C253 1.433 1_565 S
C246 H242 0.929 . S
C246 C248 1.378 . S
C246 C250 1.350 . S
C247 C250 1.463 1_565 S
C247 C252 1.350 . S
C247 N255 1.427 1_565 S
C248 H239 0.930 . S
C248 C246 1.378 . S
C248 C249 1.367 . S
C249 C248 1.367 . S
C249 C251 1.433 1_545 S
C250 C246 1.350 . S
C250 C247 1.463 1_545 S
C250 N254 1.427 1_545 S
C251 H241 0.929 . S
C251 C249 1.433 1_565 S
C251 N254 1.384 . S
C252 H243 0.929 . S
C252 C244 1.378 . S
C252 C247 1.350 . S
C253 H240 0.929 . S
C253 C245 1.433 1_545 S
C253 N255 1.384 . S
N254 C250 1.427 1_565 S
N254 C251 1.384 . S
N255 C247 1.427 1_545 S
N255 C253 1.384 . S
H256 C262 0.930 . S
H257 C266 0.930 . S
H258 C271 0.929 . S
H259 C269 0.929 . S
H260 C264 0.929 . S
H261 C270 0.929 . S
C262 H256 0.930 . S
C262 C263 1.367 . S
C262 C270 1.378 . S
C263 C262 1.367 . S
C263 C271 1.433 . S
C264 H260 0.929 . S
C264 C266 1.378 . S
C264 C268 1.350 . S
C265 C268 1.463 1_455 S
C265 C270 1.350 . S
C265 N273 1.427 . S
C266 H257 0.930 . S
C266 C264 1.378 . S
C266 C267 1.367 . S
C267 C266 1.367 . S
C267 C269 1.433 . S
C268 C264 1.350 . S
C268 C265 1.463 1_655 S
C268 N272 1.427 . S
C269 H259 0.929 . S
C269 C267 1.433 . S
C269 N272 1.384 . S
C270 H261 0.929 . S
C270 C262 1.378 . S
C270 C265 1.350 . S
C271 H258 0.929 . S
C271 C263 1.433 . S
C271 N273 1.384 . S
N272 C268 1.427 . S
N272 C269 1.384 . S
N273 C265 1.427 . S
N273 C271 1.384 . S
H274 C280 0.930 . S
H275 C284 0.930 . S
H276 C289 0.929 . S
H277 C287 0.929 . S
H278 C282 0.929 . S
H279 C288 0.929 . S
C280 H274 0.930 . S
C280 C281 1.367 . S
C280 C288 1.378 . S
C281 C280 1.367 . S
C281 C289 1.433 . S
C282 H278 0.929 . S
C282 C284 1.378 . S
C282 C286 1.350 . S
C283 C286 1.463 1_565 S
C283 C288 1.350 . S
C283 N291 1.427 . S
C284 H275 0.930 . S
C284 C282 1.378 . S
C284 C285 1.367 . S
C285 C284 1.367 . S
C285 C287 1.433 . S
C286 C282 1.350 . S
C286 C283 1.463 1_545 S
C286 N290 1.427 . S
C287 H277 0.929 . S
C287 C285 1.433 . S
C287 N290 1.384 . S
C288 H279 0.929 . S
C288 C280 1.378 . S
C288 C283 1.350 . S
C289 H276 0.929 . S
C289 C281 1.433 . S
C289 N291 1.384 . S
N290 C286 1.427 . S
N290 C287 1.384 . S
N291 C283 1.427 . S
N291 C289 1.384 . S
H292 C298 0.930 . S
H293 C302 0.930 . S
H294 C307 0.929 . S
H295 C305 0.929 . S
H296 C300 0.929 . S
H297 C306 0.929 . S
C298 H292 0.930 . S
C298 C299 1.367 . S
C298 C306 1.378 . S
C299 C298 1.367 . S
C299 C307 1.433 . S
C300 H296 0.929 . S
C300 C302 1.378 . S
C300 C304 1.350 . S
C301 C304 1.463 1_554 S
C301 C306 1.350 . S
C301 N309 1.427 . S
C302 H293 0.930 . S
C302 C300 1.378 . S
C302 C303 1.367 . S
C303 C302 1.367 . S
C303 C305 1.433 . S
C304 C300 1.350 . S
C304 C301 1.463 1_556 S
C304 N308 1.427 . S
C305 H295 0.929 . S
C305 C303 1.433 . S
C305 N308 1.384 . S
C306 H297 0.929 . S
C306 C298 1.378 . S
C306 C301 1.350 . S
C307 H294 0.929 . S
C307 C299 1.433 . S
C307 N309 1.384 . S
N308 C304 1.427 . S
N308 C305 1.384 . S
N309 C301 1.427 . S
N309 C307 1.384 . S
H310 C316 0.930 . S
H311 C320 0.930 . S
H312 C325 0.929 1_655 S
H313 C323 0.929 1_455 S
H314 C318 0.929 1_565 S
H315 C324 0.929 1_545 S
C316 H310 0.930 . S
C316 C317 1.367 . S
C316 C324 1.378 . S
C317 C316 1.367 . S
C317 C325 1.433 . S
C318 H314 0.929 1_545 S
C318 C320 1.378 . S
C318 C322 1.350 . S
C319 C322 1.463 1_466 S
C319 C324 1.350 . S
C319 N327 1.427 1_455 S
C320 H311 0.930 . S
C320 C318 1.378 . S
C320 C321 1.367 . S
C321 C320 1.367 . S
C321 C323 1.433 . S
C322 C318 1.350 . S
C322 C319 1.463 1_644 S
C322 N326 1.427 1_655 S
C323 H313 0.929 1_655 S
C323 C321 1.433 . S
C323 N326 1.384 1_655 S
C324 H315 0.929 1_565 S
C324 C316 1.378 . S
C324 C319 1.350 . S
C325 H312 0.929 1_455 S
C325 C317 1.433 . S
C325 N327 1.384 1_455 S
N326 C322 1.427 1_455 S
N326 C323 1.384 1_455 S
N327 C319 1.427 1_655 S
N327 C325 1.384 1_655 S
H328 C334 0.930 . S
H329 C338 0.930 . S
H330 C343 0.929 . S
H331 C341 0.929 . S
H332 C336 0.929 . S
H333 C342 0.929 . S
C334 H328 0.930 . S
C334 C335 1.367 . S
C334 C342 1.378 . S
C335 C334 1.367 . S
C335 C343 1.433 . S
C336 H332 0.929 . S
C336 C338 1.378 . S
C336 C340 1.350 . S
C337 C340 1.463 . S
C337 C342 1.350 . S
C337 N345 1.427 . S
C338 H329 0.930 . S
C338 C336 1.378 . S
C338 C339 1.367 . S
C339 C338 1.367 . S
C339 C341 1.433 . S
C340 C336 1.350 . S
C340 C337 1.463 . S
C340 N344 1.427 . S
C341 H331 0.929 . S
C341 C339 1.433 . S
C341 N344 1.384 . S
C342 H333 0.929 . S
C342 C334 1.378 . S
C342 C337 1.350 . S
C343 H330 0.929 . S
C343 C335 1.433 . S
C343 N345 1.384 . S
N344 C340 1.427 . S
N344 C341 1.384 . S
N345 C337 1.427 . S
N345 C343 1.384 . S
H346 C352 0.930 . S
H347 C356 0.930 . S
H348 C361 0.929 . S
H349 C359 0.929 . S
H350 C354 0.929 . S
H351 C360 0.929 . S
C352 H346 0.930 . S
C352 C353 1.367 . S
C352 C360 1.378 . S
C353 C352 1.367 . S
C353 C361 1.433 . S
C354 H350 0.929 . S
C354 C356 1.378 . S
C354 C358 1.350 . S
C355 C358 1.463 . S
C355 C360 1.350 . S
C355 N363 1.427 . S
C356 H347 0.930 . S
C356 C354 1.378 . S
C356 C357 1.367 . S
C357 C356 1.367 . S
C357 C359 1.433 . S
C358 C354 1.350 . S
C358 C355 1.463 . S
C358 N362 1.427 . S
C359 H349 0.929 . S
C359 C357 1.433 . S
C359 N362 1.384 . S
C360 H351 0.929 . S
C360 C352 1.378 . S
C360 C355 1.350 . S
C361 H348 0.929 . S
C361 C353 1.433 . S
C361 N363 1.384 . S
N362 C358 1.427 . S
N362 C359 1.384 . S
N363 C355 1.427 . S
N363 C361 1.384 . S
H364 C370 0.930 . S
H365 C374 0.930 . S
H366 C379 0.929 . S
H367 C377 0.929 . S
H368 C372 0.929 . S
H369 C378 0.929 . S
C370 H364 0.930 . S
C370 C371 1.367 . S
C370 C378 1.378 . S
C371 C370 1.367 . S
C371 C379 1.433 . S
C372 H368 0.929 . S
C372 C374 1.378 . S
C372 C376 1.350 . S
C373 C376 1.463 . S
C373 C378 1.350 . S
C373 N381 1.427 . S
C374 H365 0.930 . S
C374 C372 1.378 . S
C374 C375 1.367 . S
C375 C374 1.367 . S
C375 C377 1.433 . S
C376 C372 1.350 . S
C376 C373 1.463 . S
C376 N380 1.427 . S
C377 H367 0.929 . S
C377 C375 1.433 . S
C377 N380 1.384 . S
C378 H369 0.929 . S
C378 C370 1.378 . S
C378 C373 1.350 . S
C379 H366 0.929 . S
C379 C371 1.433 . S
C379 N381 1.384 . S
N380 C376 1.427 . S
N380 C377 1.384 . S
N381 C373 1.427 . S
N381 C379 1.384 . S
H382 C388 0.930 . S
H383 C392 0.930 . S
H384 C397 0.929 . S
H385 C395 0.929 . S
H386 C390 0.929 . S
H387 C396 0.929 . S
C388 H382 0.930 . S
C388 C389 1.367 . S
C388 C396 1.378 . S
C389 C388 1.367 . S
C389 C397 1.433 . S
C390 H386 0.929 . S
C390 C392 1.378 . S
C390 C394 1.350 . S
C391 C394 1.463 . S
C391 C396 1.350 . S
C391 N399 1.427 . S
C392 H383 0.930 . S
C392 C390 1.378 . S
C392 C393 1.367 . S
C393 C392 1.367 . S
C393 C395 1.433 . S
C394 C390 1.350 . S
C394 C391 1.463 . S
C394 N398 1.427 . S
C395 H385 0.929 . S
C395 C393 1.433 . S
C395 N398 1.384 . S
C396 H387 0.929 . S
C396 C388 1.378 . S
C396 C391 1.350 . S
C397 H384 0.929 . S
C397 C389 1.433 . S
C397 N399 1.384 . S
N398 C394 1.427 . S
N398 C395 1.384 . S
N399 C391 1.427 . S
N399 C397 1.384 . S
C119 C9 1.397 . S
C123 C35 1.386 . S
C137 C49 1.386 . S
C141 C23 1.392 . S
C155 C37 1.402 . S
C159 C7 1.382 1_655 S
C173 C51 1.402 . S
C177 C21 1.390 . S
C191 C91 1.386 . S
C195 C65 1.400 . S
C209 C79 1.392 . S
C213 C105 1.388 . S
C227 C93 1.395 . S
C231 C63 1.395 . S
C245 C107 1.393 . S
C249 C77 1.381 . S
C263 C8 1.520 . S
C267 C64 1.520 . S
C281 C22 1.521 . S
C285 C78 1.521 . S
C299 C36 1.520 . S
C303 C92 1.520 . S
C317 C106 1.521 . S
C321 C50 1.521 . S
C335 C3 1.530 . S
C339 C17 1.529 . S
C353 C45 1.528 . S
C357 C31 1.527 . S
C371 C73 1.528 . S
C375 C59 1.529 . S
C389 C87 1.529 . S
C393 C101 1.529 . S
