# Generated by pormake.
# Topology fnu, (5)-cn, num edge types: 1
# Building blocks:
#     Node 0, Type 0, BuildingBlock: BEQFEK_clean_sbu_0, # of connection points: 5
#     Node 1, Type 0, BuildingBlock: BEQFEK_clean_sbu_0, # of connection points: 5
#     Node 2, Type 0, BuildingBlock: BEQFEK_clean_sbu_0, # of connection points: 5
#     Node 3, Type 0, BuildingBlock: BEQFEK_clean_sbu_0, # of connection points: 5
#     Node 4, Type 0, BuildingBlock: BEQFEK_clean_sbu_0, # of connection points: 5
#     Node 5, Type 0, BuildingBlock: BEQFEK_clean_sbu_0, # of connection points: 5
#     Edge 6, Type (0, 0), BuildingBlock: FUNLAD_clean_linker_1, # of connection points: 2
#     Edge 7, Type (0, 0), BuildingBlock: FUNLAD_clean_linker_1, # of connection points: 2
#     Edge 8, Type (0, 0), BuildingBlock: FUNLAD_clean_linker_1, # of connection points: 2
#     Edge 9, Type (0, 0), BuildingBlock: FUNLAD_clean_linker_1, # of connection points: 2
#     Edge 10, Type (0, 0), BuildingBlock: FUNLAD_clean_linker_1, # of connection points: 2
#     Edge 11, Type (0, 0), BuildingBlock: FUNLAD_clean_linker_1, # of connection points: 2
#     Edge 12, Type (0, 0), BuildingBlock: FUNLAD_clean_linker_1, # of connection points: 2
#     Edge 13, Type (0, 0), BuildingBlock: FUNLAD_clean_linker_1, # of connection points: 2
#     Edge 14, Type (0, 0), BuildingBlock: FUNLAD_clean_linker_1, # of connection points: 2
#     Edge 15, Type (0, 0), BuildingBlock: FUNLAD_clean_linker_1, # of connection points: 2
#     Edge 16, Type (0, 0), BuildingBlock: FUNLAD_clean_linker_1, # of connection points: 2
#     Edge 17, Type (0, 0), BuildingBlock: FUNLAD_clean_linker_1, # of connection points: 2
#     Edge 18, Type (0, 0), BuildingBlock: FUNLAD_clean_linker_1, # of connection points: 2
#     Edge 19, Type (0, 0), BuildingBlock: FUNLAD_clean_linker_1, # of connection points: 2
#     Edge 20, Type (0, 0), BuildingBlock: FUNLAD_clean_linker_1, # of connection points: 2
# Relax obj value: 0.175
# Max RMSD: 0.165
# Mean RMSD: 0.165
data_MOF--net-fnu--node1-BEQFEK_clean_sbu_0--edge1-FUNLAD_clean_linker_1
_symmetry_space_group_name_H-M    P1
_symmetry_Int_Tables_number       1
_symmetry_cell_setting            triclinic
loop_
_symmetry_equiv_pos_as_xyz
'x, y, z'
_cell_length_a     25.6647
_cell_length_b     30.341316
_cell_length_c     37.814321
_cell_angle_alpha  89.828083
_cell_angle_beta   96.758475
_cell_angle_gamma 126.14374
loop_
_atom_site_label
_atom_site_type_symbol
_atom_site_fract_x
_atom_site_fract_y
_atom_site_fract_z
_atom_type_partial_charge
Co0 Co 1.01255 1.00172 0.18246 0.0
Co1 Co 0.0758 0.04419 0.26216 0.0
C2 C 1.00312 0.92533 0.23428 0.0
O3 O 0.99332 0.93726 0.20334 0.0
O4 O 0.03242 0.96151 0.26087 0.0
C5 C 0.91139 0.93286 0.12357 0.0
O6 O 0.88053 0.89693 0.14673 0.0
C7 C 0.07934 0.05639 0.34091 0.0
C8 C 0.17899 0.13183 0.35632 0.0
C9 C 0.1237 0.09168 0.37044 0.0
N10 N 0.10801 0.07496 0.3112 0.0
N11 N 0.16749 0.1201 0.32075 0.0
C12 C 1.01037 1.00719 0.3401 0.0
H13 H 0.98486 0.99374 0.3122 0.0
H14 H 0.98427 0.01676 0.35624 0.0
H15 H 1.00984 0.97327 0.35162 0.0
C16 C 0.95283 0.05545 0.19509 0.0
N17 N 0.98733 0.03728 0.20794 0.0
N18 N 1.01828 0.06115 0.24004 0.0
C19 C 1.00652 0.09786 0.24779 0.0
C20 C 0.96569 0.09626 0.21899 0.0
C21 C 0.90482 0.03129 0.16157 0.0
H22 H 0.93065 0.04826 0.13802 0.0
H23 H 0.87824 0.98633 0.15937 0.0
H24 H 0.86827 0.0396 0.16206 0.0
O25 O 0.10666 0.05145 0.17924 0.0
O26 O 0.15376 0.08011 0.23577 0.0
H27 H 0.09299 0.15946 0.2824 0.0
H28 H 0.02802 0.16762 0.27932 0.0
C29 C 0.03948 0.13758 0.28022 0.0
H30 H 1.02344 0.1147 0.30435 0.0
H31 H 0.20051 0.14289 0.30292 0.0
O32 O 0.96602 0.97852 0.13377 0.0
C33 C 0.15749 0.07937 0.2024 0.0
Co34 Co 0.0682 0.04762 0.82827 0.0
Co35 Co 0.05145 0.04699 0.74485 0.0
C36 C 0.11727 1.00094 0.78602 0.0
O37 O 0.11056 0.01565 0.8155 0.0
O38 O 0.09651 1.00935 0.75609 0.0
C39 C 0.06272 1.01321 0.8963 0.0
O40 O 0.07082 0.97942 0.88083 0.0
C41 C 0.06329 0.05233 0.66524 0.0
C42 C 0.99401 0.07167 0.64825 0.0
C43 C 0.03386 0.06095 0.63522 0.0
N44 N 0.04166 0.05824 0.69458 0.0
N45 N 1.00059 0.07005 0.6839 0.0
C46 C 0.10657 0.03446 0.66562 0.0
H47 H 0.10784 0.01637 0.69085 0.0
H48 H 0.15678 0.07055 0.66318 0.0
H49 H 0.08944 1.00413 0.64266 0.0
C50 C 0.13408 0.1647 0.82535 0.0
N51 N 0.10271 0.11445 0.80887 0.0
N52 N 0.09634 0.11637 0.77398 0.0
C53 C 0.12338 0.16913 0.76725 0.0
C54 C 0.147 0.2015 0.79966 0.0
C55 C 0.156 0.17677 0.86483 0.0
H56 H 0.11631 0.17055 0.87839 0.0
H57 H 0.16725 0.14856 0.87506 0.0
H58 H 0.20032 0.21924 0.87148 0.0
O59 O 0.97523 0.99715 0.81342 0.0
O60 O 0.95802 0.99588 0.75479 0.0
H61 H 0.07643 0.17767 0.72019 0.0
H62 H 0.162 0.23281 0.73058 0.0
C63 C 0.12498 0.18795 0.73053 0.0
H64 H 0.13567 0.16646 0.71238 0.0
H65 H 0.97556 0.07566 0.70104 0.0
O66 O 0.06915 0.05211 0.87967 0.0
C67 C 0.93652 0.97992 0.78443 0.0
Co68 Co 0.66702 0.30989 0.52327 0.0
Co69 Co 0.68786 0.3352 0.60609 0.0
C70 C 0.62979 0.22179 0.5722 0.0
O71 O 0.63549 0.23971 0.5415 0.0
O72 O 0.64657 0.25315 0.60033 0.0
C73 C 0.63051 0.2566 0.45307 0.0
O74 O 0.60491 0.21121 0.46914 0.0
C75 C 0.675 0.32819 0.68398 0.0
C76 C 0.7371 0.41578 0.70309 0.0
C77 C 0.69964 0.36365 0.71473 0.0
N78 N 0.69711 0.35801 0.65564 0.0
N79 N 0.73415 0.41035 0.66743 0.0
C80 C 0.63222 0.26696 0.68154 0.0
H81 H 0.66231 0.25231 0.67861 0.0
H82 H 0.59473 0.25074 0.65753 0.0
H83 H 0.60794 0.25098 0.70566 0.0
C84 C 0.59527 0.35664 0.52256 0.0
N85 N 0.62818 0.33996 0.54064 0.0
N86 N 0.63785 0.35347 0.57507 0.0
C87 C 0.6116 0.38048 0.57977 0.0
C88 C 0.58514 0.38469 0.54649 0.0
C89 C 0.57062 0.34212 0.48341 0.0
H90 H 0.55667 0.30084 0.47584 0.0
H91 H 0.52723 0.34165 0.47627 0.0
H92 H 0.60976 0.37216 0.46805 0.0
O93 O 0.76153 0.3604 0.53539 0.0
O94 O 0.78 0.3782 0.59412 0.0
H95 H 0.66433 0.44327 0.62262 0.0
H96 H 0.5786 0.41325 0.61442 0.0
C97 C 0.61494 0.40444 0.61521 0.0
H98 H 0.60637 0.37582 0.63596 0.0
H99 H 0.75865 0.44251 0.65116 0.0
O100 O 0.65409 0.30138 0.47103 0.0
C101 C 0.8008 0.38447 0.56414 0.0
Co102 Co 0.78606 0.38705 0.17752 0.0
Co103 Co 0.72682 0.37029 0.09724 0.0
C104 C 0.79856 0.32285 0.12485 0.0
O105 O 0.80625 0.3424 0.15615 0.0
O106 O 0.77073 0.33136 0.09821 0.0
C107 C 0.85832 0.3915 0.24277 0.0
O108 O 0.86893 0.36174 0.22421 0.0
C109 C 0.72091 0.37562 0.01801 0.0
C110 C 0.63263 0.37252 1.00474 0.0
C111 C 0.68083 0.37531 0.98949 0.0
N112 N 0.69656 0.37237 0.04846 0.0
N113 N 0.6437 0.37039 0.04017 0.0
C114 C 0.78354 0.38279 0.01704 0.0
H115 H 0.81379 0.39842 0.04376 0.0
H116 H 0.81105 0.41157 0.99698 0.0
H117 H 0.77272 0.34258 1.00946 0.0
C118 C 0.85047 0.50108 0.16645 0.0
N119 N 0.81344 0.44874 0.15306 0.0
N120 N 0.78476 0.44382 0.12065 0.0
C121 C 0.80091 0.49377 0.11303 0.0
C122 C 0.84204 0.53159 0.14233 0.0
C123 C 0.89692 0.52153 0.20052 0.0
H124 H 0.87164 0.51823 0.22335 0.0
H125 H 0.9155 0.49665 0.20479 0.0
H126 H 0.93911 0.56461 0.19934 0.0
O127 O 0.69194 0.34356 0.17907 0.0
O128 O 0.64689 0.32655 0.12227 0.0
H129 H 0.71875 0.47846 0.07864 0.0
H130 H 0.79231 0.54747 0.07909 0.0
C131 C 0.77251 0.50369 0.07988 0.0
H132 H 0.78307 0.49038 0.05614 0.0
H133 H 0.61534 0.36798 0.05881 0.0
O134 O 0.82678 0.40803 0.22753 0.0
C135 C 0.64189 0.3213 0.15549 0.0
Co136 Co 0.3464 0.68892 0.84837 0.0
Co137 Co 0.3814 0.71036 0.93145 0.0
C138 C 0.31785 0.59913 0.89545 0.0
O139 O 0.32089 0.6196 0.8659 0.0
O140 O 0.33677 0.62825 0.92488 0.0
C141 C 0.251 0.62394 0.78918 0.0
O142 O 0.21901 0.59112 0.81356 0.0
C143 C 0.36469 0.70562 1.00818 0.0
C144 C 0.4593 0.77981 0.0328 0.0
C145 C 0.40027 0.73469 0.04091 0.0
N146 N 0.401 0.732 0.98206 0.0
N147 N 0.45746 0.77648 0.99708 0.0
C148 C 0.29747 0.65314 1.0019 0.0
H149 H 0.29933 0.61918 0.01089 0.0
H150 H 0.27724 0.64462 0.97311 0.0
H151 H 0.26517 0.65522 0.0178 0.0
C152 C 0.29212 0.74811 0.85798 0.0
N153 N 0.31678 0.72226 0.87208 0.0
N154 N 0.32996 0.73201 0.90702 0.0
C155 C 0.31251 0.76417 0.9164 0.0
C156 C 0.28705 0.77497 0.8856 0.0
C157 C 0.28658 0.75542 0.81878 0.0
H158 H 0.32659 0.75894 0.80734 0.0
H159 H 0.23938 0.71912 0.80506 0.0
H160 H 0.28986 0.79272 0.81324 0.0
O161 O 0.44149 0.73788 0.8525 0.0
O162 O 0.46777 0.7501 0.91175 0.0
H163 H 0.37855 0.81583 0.96252 0.0
H164 H 0.30387 0.81047 0.95573 0.0
C165 C 0.32516 0.7878 0.95372 0.0
H166 H 0.3041 0.75434 0.97188 0.0
H167 H 0.49519 0.80433 0.98296 0.0
O168 O 0.30655 0.66917 0.79826 0.0
C169 C 0.48408 0.75824 0.88035 0.0
Co170 Co 0.38917 0.6695 0.50508 0.0
Co171 Co 0.363 0.67376 0.42258 0.0
C172 C 0.42288 0.61842 0.45418 0.0
O173 O 0.41952 0.63117 0.48527 0.0
O174 O 0.40424 0.63271 0.4265 0.0
C175 C 0.42508 0.64801 0.57381 0.0
O176 O 0.44978 0.62844 0.55665 0.0
C177 C 0.39046 0.69949 0.34773 0.0
C178 C 0.30177 0.69021 0.32328 0.0
C179 C 0.35963 0.70121 0.31548 0.0
N180 N 0.35238 0.68755 0.37323 0.0
N181 N 0.2996 0.6824 0.35832 0.0
C182 C 0.4544 0.70782 0.354 0.0
H183 H 0.44799 0.67083 0.34291 0.0
H184 H 0.47265 0.71482 0.38303 0.0
H185 H 0.49061 0.74318 0.33999 0.0
C186 C 0.45892 0.78809 0.50529 0.0
N187 N 0.42622 0.73841 0.48763 0.0
N188 N 0.41387 0.74157 0.45332 0.0
C189 C 0.43749 0.7941 0.44825 0.0
C190 C 0.46601 0.82543 0.48117 0.0
C191 C 0.48534 0.79904 0.54421 0.0
H192 H 0.44755 0.79163 0.5601 0.0
H193 H 0.49837 0.77109 0.55201 0.0
H194 H 0.52952 0.84172 0.55039 0.0
O195 O 0.2944 0.62527 0.49455 0.0
O196 O 0.27194 0.6253 0.43618 0.0
H197 H 0.37592 0.78682 0.40181 0.0
H198 H 0.44698 0.85627 0.415 0.0
C199 C 0.42847 0.81272 0.41288 0.0
H200 H 0.45439 0.80703 0.39397 0.0
H201 H 0.26147 0.67268 0.37198 0.0
O202 O 0.40407 0.67232 0.55723 0.0
C203 C 0.25337 0.61043 0.46662 0.0
H204 H 0.22076 0.10761 0.16045 0.0
C205 C 0.22126 0.11118 0.18912 0.0
H206 H 0.28108 0.14748 0.239 0.0
H207 H 0.52536 0.18497 0.17937 0.0
H208 H 0.49945 0.11514 0.22011 0.0
H209 H 0.40136 0.07181 0.2498 0.0
H210 H 0.32815 0.0977 0.23862 0.0
C211 C 0.27892 0.1443 0.21017 0.0
C212 C 0.34133 0.1744 0.19459 0.0
C213 C 0.38462 0.15987 0.20206 0.0
C214 C 0.44218 0.18592 0.18558 0.0
C215 C 0.48249 0.16831 0.19218 0.0
C216 C 0.46783 0.12779 0.21525 0.0
C217 C 0.41253 0.10331 0.23191 0.0
C218 C 0.37099 0.11869 0.22531 0.0
H219 H 0.57798 0.29083 0.19708 0.0
C220 C 0.57776 0.28941 0.16831 0.0
H221 H 0.51839 0.25699 0.11811 0.0
H222 H 0.27301 0.21657 0.17742 0.0
H223 H 0.29955 0.28729 0.13731 0.0
H224 H 0.39838 0.33156 0.10817 0.0
H225 H 0.47146 0.30555 0.11911 0.0
C226 C 0.52019 0.25824 0.14696 0.0
C227 C 0.45762 0.22787 0.16245 0.0
C228 C 0.41444 0.24255 0.15512 0.0
C229 C 0.35672 0.21629 0.17147 0.0
C230 C 0.31624 0.23371 0.16486 0.0
C231 C 0.33121 0.27466 0.14211 0.0
C232 C 0.3869 0.29965 0.12575 0.0
C233 C 0.42837 0.28418 0.13222 0.0
H234 H 0.93316 0.14683 0.23321 0.0
C235 C 0.94802 0.13452 0.21187 0.0
H236 H 0.9678 0.14283 0.1587 0.0
H237 H 0.76261 0.18624 0.09968 0.0
H238 H 0.72349 0.10276 0.065 0.0
H239 H 0.77848 0.05829 0.0756 0.0
H240 H 0.87141 0.09622 0.12159 0.0
C241 C 0.9501 0.15362 0.17926 0.0
C242 C 0.92502 0.18623 0.16874 0.0
C243 C 0.87361 0.1658 0.1397 0.0
C244 C 0.84408 0.19315 0.13212 0.0
C245 C 0.78873 0.16872 0.10552 0.0
C246 C 0.76544 0.12052 0.0855 0.0
C247 C 0.7962 0.09536 0.09157 0.0
C248 C 0.84939 0.11741 0.11836 0.0
H249 H 0.83654 0.28621 0.09514 0.0
C250 C 0.82363 0.29012 0.12068 0.0
H251 H 0.81944 0.2722 0.17466 0.0
H252 H 0.03295 0.24372 0.21989 0.0
H253 H 0.07911 0.33208 0.25032 0.0
H254 H 0.03166 0.38178 0.23508 0.0
H255 H 0.93778 0.34322 0.18925 0.0
C256 C 0.83316 0.26781 0.1495 0.0
C257 C 0.8693 0.24315 0.15174 0.0
C258 C 0.9253 0.26655 0.178 0.0
C259 C 0.95275 0.23793 0.18679 0.0
C260 C 1.0088 0.26273 0.21295 0.0
C261 C 0.0363 0.3138 0.23038 0.0
C262 C 1.0096 0.34177 0.22181 0.0
C263 C 0.95516 0.31885 0.19577 0.0
H264 H 0.87593 0.61449 0.12666 0.0
C265 C 0.86413 0.58896 0.14891 0.0
H266 H 0.85239 0.58276 0.20355 0.0
H267 H 0.05528 0.83543 0.25092 0.0
H268 H 0.11143 0.79996 0.27932 0.0
H269 H 0.06637 0.70271 0.26851 0.0
H270 H 0.96564 0.64096 0.22866 0.0
C271 C 0.86693 0.60884 0.1816 0.0
C272 C 0.89092 0.66653 0.19006 0.0
C273 C 0.94814 0.70171 0.21513 0.0
C274 C 0.97291 0.7574 0.2225 0.0
C275 C 0.03284 0.79242 0.24536 0.0
C276 C 0.06592 0.77265 0.26173 0.0
C277 C 0.04065 0.71797 0.25557 0.0
C278 C 0.98271 0.68287 0.23251 0.0
H279 H 0.97399 0.85176 0.26379 0.0
C280 C 0.98084 0.86815 0.23779 0.0
H281 H 0.97607 0.85425 0.18238 0.0
H282 H 0.774 0.60796 0.14566 0.0
H283 H 0.71492 0.64229 0.11956 0.0
H284 H 0.75658 0.7382 0.13316 0.0
H285 H 0.85741 0.80016 0.17313 0.0
C286 C 0.96851 0.8368 0.20808 0.0
C287 C 0.93861 0.77714 0.20616 0.0
C288 C 0.87917 0.74098 0.18289 0.0
C289 C 0.85535 0.68576 0.1748 0.0
C290 C 0.79537 0.65065 0.15198 0.0
C291 C 0.76059 0.66971 0.137 0.0
C292 C 0.78402 0.72368 0.14466 0.0
C293 C 0.8423 0.75895 0.16745 0.0
H294 H 0.20382 0.28775 0.78483 0.0
C295 C 0.1776 0.26123 0.80529 0.0
H296 H 0.14244 0.25693 0.85404 0.0
H297 H 0.36748 0.50741 0.90548 0.0
H298 H 0.41981 0.46815 0.93301 0.0
H299 H 0.37344 0.37126 0.91869 0.0
H300 H 0.27482 0.31338 0.87632 0.0
C301 C 0.1714 0.28293 0.83419 0.0
C302 C 0.20211 0.34259 0.84054 0.0
C303 C 0.25929 0.37601 0.86581 0.0
C304 C 0.28556 0.43184 0.87448 0.0
C305 C 0.34424 0.46452 0.89864 0.0
C306 C 0.37511 0.44256 0.91451 0.0
C307 C 0.34903 0.38802 0.90644 0.0
C308 C 0.29206 0.35508 0.88227 0.0
H309 H 0.27955 0.5193 0.9187 0.0
C310 C 0.29217 0.54052 0.89446 0.0
H311 H 0.29698 0.53557 0.83933 0.0
H312 H 0.09223 0.29026 0.79097 0.0
H313 H 0.04016 0.32954 0.76275 0.0
H314 H 0.08455 0.42573 0.77815 0.0
H315 H 0.1808 0.483 0.82206 0.0
C316 C 0.28442 0.51383 0.86341 0.0
C317 C 0.25398 0.45405 0.85822 0.0
C318 C 0.19693 0.42058 0.83277 0.0
C319 C 0.1711 0.36497 0.82392 0.0
C320 C 0.11403 0.33273 0.79857 0.0
C321 C 0.08359 0.35474 0.78218 0.0
C322 C 0.10859 0.40889 0.79083 0.0
C323 C 0.16425 0.44147 0.81593 0.0
H324 H 0.59008 0.80616 0.89982 0.0
C325 C 0.55405 0.79152 0.87608 0.0
H326 H 0.53767 0.78787 0.81975 0.0
H327 H 0.85117 0.99958 0.85377 0.0
H328 H 0.81752 0.0432 0.88869 0.0
H329 H 0.70332 0.99316 0.89929 0.0
H330 H 0.6224 0.899 0.87561 0.0
C331 C 0.57368 0.80372 0.8436 0.0
C332 C 0.64341 0.83472 0.83806 0.0
C333 C 0.68965 0.89055 0.85109 0.0
C334 C 0.7552 0.91995 0.84408 0.0
C335 C 0.80072 0.97526 0.85815 0.0
C336 C 0.78205 1.00095 0.87815 0.0
C337 C 0.71778 0.97274 0.88416 0.0
C338 C 0.67184 0.9184 0.87062 0.0
H339 H 0.83118 0.93199 0.76222 0.0
C340 C 0.86551 0.94285 0.78623 0.0
H341 H 0.87814 0.93661 0.84188 0.0
H342 H 0.56869 0.72763 0.81094 0.0
H343 H 0.60346 0.68355 0.7774 0.0
H344 H 0.71619 0.73537 0.76391 0.0
H345 H 0.79517 0.83141 0.78435 0.0
C346 C 0.84366 0.92488 0.81778 0.0
C347 C 0.774 0.89429 0.82294 0.0
C348 C 0.728 0.83852 0.81006 0.0
C349 C 0.66278 0.80871 0.8177 0.0
C350 C 0.61849 0.75253 0.80546 0.0
C351 C 0.63787 0.72662 0.78628 0.0
C352 C 0.70137 0.75577 0.77873 0.0
C353 C 0.74616 0.811 0.7905 0.0
H354 H 0.1422 0.94877 0.76322 0.0
C355 C 0.14441 0.96898 0.78761 0.0
H356 H 0.16671 0.98025 0.84403 0.0
H357 H 0.11367 0.75784 0.87634 0.0
H358 H 1.00877 0.73694 0.88367 0.0
H359 H 0.98066 0.7991 0.86433 0.0
H360 H 0.05702 0.88233 0.83728 0.0
C361 C 0.1658 0.96079 0.81965 0.0
C362 C 0.17928 0.91954 0.8252 0.0
C363 C 0.13389 0.87062 0.84061 0.0
C364 C 0.14992 0.83454 0.85155 0.0
C365 C 0.10372 0.78633 0.86715 0.0
C366 C 0.04342 0.77394 0.87165 0.0
C367 C 0.02763 0.80897 0.86082 0.0
C368 C 0.07206 0.85675 0.84545 0.0
H369 H 0.29514 0.84996 0.90079 0.0
C370 C 0.26953 0.81386 0.88206 0.0
H371 H 0.19527 0.76808 0.83833 0.0
H372 H 0.27713 1.00969 0.79694 0.0
H373 H 0.38187 0.03059 0.78903 0.0
H374 H 0.40952 0.96775 0.8072 0.0
H375 H 0.33333 0.88422 0.83372 0.0
C376 C 0.22467 0.80624 0.85527 0.0
C377 C 0.21151 0.84737 0.84731 0.0
C378 C 0.25682 0.89618 0.8316 0.0
C379 C 0.24063 0.93225 0.82062 0.0
C380 C 0.28691 0.98087 0.80549 0.0
C381 C 0.34713 0.99331 0.80077 0.0
C382 C 0.36269 0.95792 0.811 0.0
C383 C 0.31832 0.90993 0.82622 0.0
H384 H 0.90614 0.43558 0.58668 0.0
C385 C 0.87179 0.42005 0.56213 0.0
H386 H 0.85899 0.41663 0.50582 0.0
H387 H 0.16689 0.63426 0.53673 0.0
H388 H 0.13095 0.67631 0.57133 0.0
H389 H 1.01764 0.62312 0.58404 0.0
H390 H 0.93999 0.52748 0.56282 0.0
C391 C 0.89377 0.43302 0.53022 0.0
C392 C 0.96397 0.46515 0.52549 0.0
C393 C 1.00841 0.52152 0.53751 0.0
C394 C 0.07344 0.55262 0.52938 0.0
C395 C 0.11702 0.60866 0.5421 0.0
C396 C 0.09697 0.63343 0.56187 0.0
C397 C 0.0332 0.60346 0.56906 0.0
C398 C 0.98915 0.54832 0.5569 0.0
H399 H 0.14732 0.56358 0.44663 0.0
C400 C 0.183 0.57586 0.47023 0.0
H401 H 0.19883 0.57372 0.52617 0.0
H402 H 0.89235 0.35774 0.49938 0.0
H403 H 0.92792 0.31625 0.46394 0.0
H404 H 0.0399 0.37059 0.44904 0.0
H405 H 0.11689 0.46671 0.46942 0.0
C406 C 0.16307 0.56014 0.50242 0.0
C407 C 0.09354 0.52793 0.50834 0.0
C408 C 0.04919 0.47161 0.49636 0.0
C409 C 0.98459 0.44022 0.50509 0.0
C410 C 0.94169 0.38379 0.4932 0.0
C411 C 0.96154 0.35932 0.47296 0.0
C412 C 1.02456 0.38992 0.46455 0.0
C413 C 0.06821 0.44526 0.47628 0.0
H414 H 0.53391 0.42056 0.55875 0.0
C415 C 0.55708 0.41556 0.53848 0.0
H416 H 0.58867 0.43828 0.4879 0.0
H417 H 0.37488 0.47695 0.43396 0.0
H418 H 0.32053 0.38543 0.40598 0.0
H419 H 0.36417 0.33262 0.42031 0.0
H420 H 0.46204 0.37088 0.463 0.0
C421 C 0.5628 0.4401 0.50785 0.0
C422 C 0.53582 0.47179 0.49981 0.0
C423 C 0.47927 0.44948 0.47419 0.0
C424 C 0.45432 0.48017 0.46566 0.0
C425 C 0.39642 0.45587 0.44105 0.0
C426 C 0.36464 0.40329 0.42483 0.0
C427 C 0.38922 0.37356 0.43289 0.0
C428 C 0.44566 0.39609 0.45734 0.0
H429 H 0.46383 0.58258 0.42641 0.0
C430 C 0.44871 0.58592 0.4513 0.0
H431 H 0.43857 0.5649 0.50464 0.0
H432 H 0.64833 0.52885 0.54761 0.0
H433 H 0.70335 0.62079 0.57507 0.0
H434 H 0.66018 0.67388 0.5604 0.0
H435 H 0.56192 0.63548 0.51795 0.0
C436 C 0.45421 0.56146 0.48001 0.0
C437 C 0.48636 0.53343 0.4825 0.0
C438 C 0.5441 0.55638 0.50724 0.0
C439 C 0.56891 0.52568 0.51584 0.0
C440 C 0.62692 0.55004 0.54041 0.0
C441 C 0.65912 0.60287 0.55631 0.0
C442 C 0.63481 0.63275 0.54806 0.0
C443 C 0.57814 0.61008 0.5238 0.0
H444 H 0.51491 0.91172 0.46778 0.0
C445 C 0.49358 0.88422 0.48868 0.0
H446 H 0.46615 0.87676 0.54026 0.0
H447 H 0.6767 0.12875 0.59194 0.0
H448 H 0.72902 0.09109 0.62228 0.0
H449 H 0.68446 0.99424 0.60979 0.0
H450 H 0.58772 0.93475 0.56653 0.0
C451 C 0.48966 0.90374 0.51953 0.0
C452 C 0.51631 0.96241 0.52695 0.0
C453 C 0.57196 0.99658 0.55308 0.0
C454 C 0.59719 0.05238 0.56072 0.0
C455 C 0.65459 0.08593 0.58565 0.0
C456 C 0.68533 0.06487 0.60319 0.0
C457 C 0.66026 1.01035 0.59615 0.0
C458 C 0.60448 0.97653 0.57133 0.0
H459 H 0.58819 0.14415 0.59904 0.0
C460 C 0.60328 0.16323 0.57427 0.0
H461 H 0.61269 0.1534 0.52064 0.0
H462 H 0.40494 0.90713 0.4782 0.0
H463 H 0.35161 0.9444 0.4485 0.0
H464 H 0.39519 0.04089 0.46162 0.0
H465 H 0.49218 0.10062 0.50473 0.0
C466 C 0.59753 0.13385 0.54525 0.0
C467 C 0.566 0.07379 0.54267 0.0
C468 C 0.50911 0.0391 0.51739 0.0
C469 C 0.48416 0.98346 0.50961 0.0
C470 C 0.42672 0.94987 0.48468 0.0
C471 C 0.39539 0.97068 0.46753 0.0
C472 C 0.41992 0.02501 0.47491 0.0
C473 C 0.4759 0.05893 0.49958 0.0
H474 H 0.99365 0.04725 0.57843 0.0
C475 C 0.03546 0.05566 0.59637 0.0
H476 H 0.12962 0.07492 0.59876 0.0
H477 H 0.08296 0.97317 0.4418 0.0
H478 H 0.09205 0.9111 0.47768 0.0
H479 H 0.09702 0.91707 0.54316 0.0
H480 H 0.09355 0.98557 0.57327 0.0
C481 C 0.08639 0.06529 0.58189 0.0
C482 C 0.08456 0.06262 0.54207 0.0
C483 C 0.086 0.02207 0.52468 0.0
C484 C 0.08193 0.01801 0.48671 0.0
C485 C 0.08476 0.97764 0.47037 0.0
C486 C 0.09015 0.94177 0.49067 0.0
C487 C 0.09302 0.94517 0.52755 0.0
C488 C 0.09102 0.98474 0.54449 0.0
H489 H 0.15898 0.12886 0.42576 0.0
C490 C 0.11941 0.09194 0.4094 0.0
H491 H 0.03489 1.01134 0.41135 0.0
H492 H 0.09111 0.15094 0.56658 0.0
H493 H 0.07621 0.20998 0.53071 0.0
H494 H 0.05677 0.19636 0.4649 0.0
H495 H 0.05401 0.12466 0.43461 0.0
C496 C 0.0728 0.05022 0.42603 0.0
C497 C 0.0757 0.05416 0.46591 0.0
C498 C 0.07317 0.0942 0.48331 0.0
C499 C 0.07997 0.09969 0.52136 0.0
C500 C 0.08252 0.1429 0.53787 0.0
C501 C 0.0746 0.17745 0.51758 0.0
C502 C 0.06399 0.16996 0.48054 0.0
C503 C 0.06314 0.12889 0.46348 0.0
H504 H 0.6619 0.39534 0.93574 0.0
C505 C 0.68543 0.37934 0.95066 0.0
H506 H 0.73386 0.34282 0.94629 0.0
H507 H 0.58816 0.32001 0.78096 0.0
H508 H 0.48726 0.25669 0.80453 0.0
H509 H 0.48766 0.23954 0.86832 0.0
H510 H 0.58912 0.28676 0.9091 0.0
C511 C 0.71146 0.36039 0.93251 0.0
C512 C 0.71147 0.36396 0.89295 0.0
C513 C 0.65204 0.33386 0.86896 0.0
C514 C 0.65211 0.34145 0.83169 0.0
C515 C 0.59153 0.31394 0.80907 0.0
C516 C 0.53303 0.2777 0.82231 0.0
C517 C 0.53323 0.26822 0.85826 0.0
C518 C 0.59183 0.2959 0.88142 0.0
H519 H 0.67032 0.30784 0.7586 0.0
C520 C 0.69236 0.34989 0.75251 0.0
H521 H 0.73705 0.43073 0.77358 0.0
H522 H 0.83411 0.42528 0.9309 0.0
H523 H 0.93589 0.4842 0.90697 0.0
H524 H 0.93668 0.49382 0.84221 0.0
H525 H 0.83574 0.44492 0.80099 0.0
C526 C 0.71349 0.38834 0.77942 0.0
C527 C 0.71202 0.37691 0.81804 0.0
C528 C 0.77159 0.40485 0.84187 0.0
C529 C 0.77127 0.39857 0.87925 0.0
C530 C 0.8315 0.42807 0.90231 0.0
C531 C 0.89034 0.46208 0.88893 0.0
C532 C 0.89077 0.46756 0.85248 0.0
C533 C 0.83235 0.43938 0.82912 0.0
H534 H 0.42914 0.71997 0.27761 0.0
C535 C 0.38187 0.71075 0.27977 0.0
H536 H 0.2982 0.70007 0.25218 0.0
H537 H 0.41723 0.83133 0.12031 0.0
H538 H 0.40818 0.89409 0.15365 0.0
H539 H 0.38083 0.87807 0.21499 0.0
H540 H 0.3622 0.79908 0.24337 0.0
C541 C 0.34479 0.70785 0.25012 0.0
C542 C 0.36687 0.71932 0.21412 0.0
C543 C 0.37833 0.76599 0.1979 0.0
C544 C 0.39506 0.77568 0.16265 0.0
C545 C 0.40531 0.82232 0.14714 0.0
C546 C 0.40009 0.85865 0.16594 0.0
C547 C 0.38459 0.84958 0.20045 0.0
C548 C 0.37381 0.80393 0.21638 0.0
H549 H 0.33176 0.68421 0.07922 0.0
C550 C 0.38046 0.72045 0.07706 0.0
H551 H 0.46912 0.78816 0.10517 0.0
H552 H 0.34347 0.62365 0.23575 0.0
H553 H 0.35595 0.56248 0.20317 0.0
H554 H 0.39107 0.5821 0.14357 0.0
H555 H 0.41285 0.66252 0.1159 0.0
C556 C 0.42095 0.75102 0.10707 0.0
C557 C 0.4006 0.73883 0.14347 0.0
C558 C 0.39002 0.69248 0.15983 0.0
C559 C 0.37215 0.68226 0.19491 0.0
C560 C 0.35911 0.63438 0.20978 0.0
C561 C 0.36581 0.59875 0.19128 0.0
C562 C 0.38541 0.60971 0.15768 0.0
C563 C 0.39748 0.65595 0.14202 0.0
H564 H 0.83617 0.8821 0.07689 0.0
C565 C 0.88349 0.92051 0.0856 0.0
H566 H 0.96459 0.99464 0.07101 0.0
H567 H 0.92466 0.88264 0.91992 0.0
H568 H 0.91209 0.80497 0.94798 0.0
H569 H 0.8952 0.7919 0.01121 0.0
H570 H 0.88885 0.85477 0.04624 0.0
C571 C 0.91832 0.95548 0.06188 0.0
C572 C 0.89871 0.94547 0.0228 0.0
C573 C 0.90215 0.90764 1.00327 0.0
C574 C 0.91478 0.91635 0.96747 0.0
C575 C 0.91735 0.87834 0.94771 0.0
C576 C 0.90991 0.83371 0.96341 0.0
C577 C 0.90028 0.82632 0.99898 0.0
C578 C 0.89677 0.8629 0.01889 0.0
H579 H 0.04325 0.98392 0.94969 0.0
C580 C 0.02606 0.99548 0.92643 0.0
H581 H 0.94998 0.99655 0.89932 0.0
H582 H 0.87105 1.01164 0.04935 0.0
H583 H 0.87296 0.0835 0.01879 0.0
H584 H 0.89943 0.10078 0.95719 0.0
H585 H 0.92394 0.04655 0.92583 0.0
C586 C 0.96764 0.9865 0.92324 0.0
C587 C 0.92747 0.96407 0.95258 0.0
C588 C 0.91127 0.99508 0.96949 0.0
C589 C 0.89649 0.98543 1.00487 0.0
C590 C 0.88306 0.01808 0.02239 0.0
C591 C 0.88383 0.05909 1.00515 0.0
C592 C 0.89874 0.06881 0.97047 0.0
C593 C 0.91285 0.03754 0.95278 0.0
H594 H 0.85817 0.42018 0.29527 0.0
C595 C 0.86296 0.39146 0.28159 0.0
H596 H 0.84835 0.3155 0.28303 0.0
H597 H 0.79204 0.38338 0.43679 0.0
H598 H 0.90874 0.45217 0.44939 0.0
H599 H 0.98122 0.46181 0.40775 0.0
H600 H 0.93629 0.40506 0.3515 0.0
C601 C 0.84819 0.34648 0.29726 0.0
C602 C 0.80734 0.32968 0.32615 0.0
C603 C 0.83428 0.36062 0.35962 0.0
C604 C 0.79257 0.35362 0.38408 0.0
C605 C 0.82096 0.38675 0.4169 0.0
C606 C 0.88816 0.4261 0.42476 0.0
C607 C 0.92894 0.43189 0.40114 0.0
C608 C 0.90258 0.39937 0.36897 0.0
H609 H 0.64505 0.22335 0.40686 0.0
C610 C 0.64899 0.25858 0.41755 0.0
H611 H 0.68648 0.34131 0.41294 0.0
H612 H 0.73984 0.26234 0.26412 0.0
H613 H 0.62262 0.19924 0.24879 0.0
H614 H 0.54997 0.18838 0.29085 0.0
H615 H 0.59446 0.24074 0.34849 0.0
C616 C 0.68148 0.30576 0.40187 0.0
C617 C 0.72397 0.31444 0.37523 0.0
C618 C 0.69697 0.28302 0.34182 0.0
C619 C 0.73883 0.29009 0.3174 0.0
C620 C 0.7106 0.25893 0.28382 0.0
C621 C 0.64321 0.22244 0.27461 0.0
C622 C 0.60233 0.21625 0.2983 0.0
C623 C 0.62859 0.24621 0.33148 0.0
H624 H 0.41737 0.60278 0.62105 0.0
C625 C 0.40635 0.62954 0.60909 0.0
H626 H 0.35413 0.66292 0.61086 0.0
H627 H 0.13123 0.50005 0.69261 0.0
H628 H 0.07322 0.47967 0.63208 0.0
H629 H 0.13379 0.5158 0.58071 0.0
H630 H 0.2523 0.57391 0.58929 0.0
C631 C 0.36799 0.6385 0.62379 0.0
C632 C 0.33279 0.60771 0.65348 0.0
C633 C 0.26356 0.57249 0.64751 0.0
C634 C 0.22849 0.5506 0.67685 0.0
C635 C 0.15961 0.51754 0.67084 0.0
C636 C 0.12599 0.50543 0.63637 0.0
C637 C 0.16014 0.52595 0.60742 0.0
C638 C 0.22812 0.55927 0.61274 0.0
H639 H 0.24518 0.63356 0.73235 0.0
C640 C 0.23346 0.60346 0.75173 0.0
H641 H 0.22608 0.53195 0.76273 0.0
H642 H 0.46572 0.67221 0.67438 0.0
H643 H 0.52132 0.6853 0.73386 0.0
H644 H 0.45931 0.64001 0.78384 0.0
H645 H 0.34086 0.58251 0.77431 0.0
C646 C 0.23082 0.55941 0.74269 0.0
C647 C 0.26269 0.56299 0.71164 0.0
C648 C 0.33137 0.59215 0.71703 0.0
C649 C 0.3669 0.61627 0.68806 0.0
C650 C 0.43591 0.65073 0.69498 0.0
C651 C 0.46861 0.65897 0.7292 0.0
C652 C 0.43373 0.63369 0.75732 0.0
C653 C 0.36586 0.6009 0.75151 0.0
loop_
_geom_bond_atom_site_label_1
_geom_bond_atom_site_label_2
_geom_bond_distance
_geom_bond_site_symmetry_2
_ccdc_geom_bond_type
Co0 O3 1.970 1_455 S
Co0 N17 1.989 1_465 S
Co0 O25 1.967 1_565 S
Co0 O32 1.920 1_565 S
Co1 O4 1.966 1_445 S
Co1 N10 2.022 . S
Co1 N18 1.993 1_455 S
Co1 O26 1.941 . S
C2 O3 1.258 . S
C2 O4 1.263 . S
O3 Co0 1.970 1_655 S
O3 C2 1.258 . S
O4 Co1 1.966 1_665 S
O4 C2 1.263 . S
C5 O6 1.235 . S
C5 O32 1.289 1_665 S
O6 C5 1.235 . S
C7 C9 1.400 1_565 S
C7 N10 1.351 1_665 S
C7 C12 1.501 . S
C8 C9 1.387 1_455 S
C8 N11 1.341 . S
C9 C7 1.400 1_545 S
C9 C8 1.387 1_655 S
N10 Co1 2.022 . S
N10 C7 1.351 1_445 S
N10 N11 1.365 . S
N11 C8 1.341 . S
N11 N10 1.365 . S
N11 H31 0.862 . S
C12 C7 1.501 . S
C12 H13 0.961 . S
C12 H14 0.961 . S
C12 H15 0.960 . S
H13 C12 0.961 . S
H14 C12 0.961 . S
H15 C12 0.960 . S
C16 N17 1.342 . S
C16 C20 1.401 . S
C16 C21 1.499 . S
N17 Co0 1.989 1_645 S
N17 C16 1.342 . S
N17 N18 1.388 . S
N18 Co1 1.993 1_655 S
N18 N17 1.388 . S
N18 C19 1.346 . S
C19 N18 1.346 . S
C19 C20 1.396 . S
C19 C29 1.510 . S
C20 C16 1.401 . S
C20 C19 1.396 . S
C21 C16 1.499 . S
C21 H22 0.959 . S
C21 H23 0.960 . S
C21 H24 0.961 . S
H22 C21 0.959 . S
H23 C21 0.960 . S
H24 C21 0.961 . S
O25 Co0 1.967 1_545 S
O25 C33 1.258 . S
O26 Co1 1.941 . S
O26 C33 1.266 . S
H27 C29 0.959 . S
H28 C29 0.961 . S
C29 C19 1.510 . S
C29 H27 0.959 . S
C29 H28 0.961 . S
C29 H30 0.960 . S
H30 C29 0.960 . S
H31 N11 0.862 . S
O32 Co0 1.920 1_545 S
O32 C5 1.289 1_445 S
C33 O25 1.258 . S
C33 O26 1.266 . S
Co34 O37 1.970 1_545 S
Co34 N51 1.989 . S
Co34 O59 1.967 1_445 S
Co34 O66 1.920 . S
Co35 O38 1.952 1_655 S
Co35 N44 2.021 . S
Co35 N52 1.994 1_665 S
Co35 O60 1.955 . S
C36 O37 1.258 . S
C36 O38 1.263 . S
O37 Co34 1.970 1_565 S
O37 C36 1.258 . S
O38 Co35 1.952 1_455 S
O38 C36 1.263 . S
C39 O40 1.235 . S
C39 O66 1.289 . S
O40 C39 1.235 . S
C41 C43 1.400 . S
C41 N44 1.351 1_445 S
C41 C46 1.501 1_545 S
C42 C43 1.387 1_655 S
C42 N45 1.341 . S
C43 C41 1.400 . S
C43 C42 1.387 1_455 S
N44 Co35 2.021 . S
N44 C41 1.351 1_665 S
N44 N45 1.365 1_565 S
N45 C42 1.341 . S
N45 N44 1.365 1_545 S
N45 H65 0.862 . S
C46 C41 1.501 1_565 S
C46 H47 0.961 . S
C46 H48 0.961 1_565 S
C46 H49 0.960 . S
H47 C46 0.961 . S
H48 C46 0.961 1_545 S
H49 C46 0.960 . S
C50 N51 1.342 . S
C50 C54 1.401 . S
C50 C55 1.499 . S
N51 Co34 1.989 . S
N51 C50 1.342 . S
N51 N52 1.388 . S
N52 Co35 1.994 1_445 S
N52 N51 1.388 . S
N52 C53 1.346 . S
C53 N52 1.346 . S
C53 C54 1.396 . S
C53 C63 1.510 . S
C54 C50 1.401 . S
C54 C53 1.396 . S
C55 C50 1.499 . S
C55 H56 0.959 . S
C55 H57 0.960 . S
C55 H58 0.961 . S
H56 C55 0.959 . S
H57 C55 0.960 . S
H58 C55 0.961 . S
O59 Co34 1.967 1_665 S
O59 C67 1.258 . S
O60 Co35 1.955 . S
O60 C67 1.266 . S
H61 C63 0.959 . S
H62 C63 0.961 . S
C63 C53 1.510 . S
C63 H61 0.959 . S
C63 H62 0.961 . S
C63 H64 0.960 . S
H64 C63 0.960 . S
H65 N45 0.862 . S
O66 Co34 1.920 . S
O66 C39 1.289 . S
C67 O59 1.258 . S
C67 O60 1.266 . S
Co68 O71 1.970 . S
Co68 N85 1.989 . S
Co68 O93 1.967 . S
Co68 O100 1.920 . S
Co69 O72 1.966 . S
Co69 N78 2.022 . S
Co69 N86 1.993 . S
Co69 O94 1.941 . S
C70 O71 1.258 . S
C70 O72 1.263 . S
O71 Co68 1.970 . S
O71 C70 1.258 . S
O72 Co69 1.966 . S
O72 C70 1.263 . S
C73 O74 1.235 . S
C73 O100 1.289 . S
O74 C73 1.235 . S
C75 C77 1.400 . S
C75 N78 1.351 . S
C75 C80 1.501 . S
C76 C77 1.387 . S
C76 N79 1.341 . S
C77 C75 1.400 . S
C77 C76 1.387 . S
N78 Co69 2.022 . S
N78 C75 1.351 . S
N78 N79 1.365 . S
N79 C76 1.341 . S
N79 N78 1.365 . S
N79 H99 0.862 . S
C80 C75 1.501 . S
C80 H81 0.961 . S
C80 H82 0.961 . S
C80 H83 0.960 . S
H81 C80 0.961 . S
H82 C80 0.961 . S
H83 C80 0.960 . S
C84 N85 1.342 . S
C84 C88 1.401 . S
C84 C89 1.499 . S
N85 Co68 1.989 . S
N85 C84 1.342 . S
N85 N86 1.388 . S
N86 Co69 1.993 . S
N86 N85 1.388 . S
N86 C87 1.346 . S
C87 N86 1.346 . S
C87 C88 1.396 . S
C87 C97 1.510 . S
C88 C84 1.401 . S
C88 C87 1.396 . S
C89 C84 1.499 . S
C89 H90 0.959 . S
C89 H91 0.960 . S
C89 H92 0.961 . S
H90 C89 0.959 . S
H91 C89 0.960 . S
H92 C89 0.961 . S
O93 Co68 1.967 . S
O93 C101 1.258 . S
O94 Co69 1.941 . S
O94 C101 1.266 . S
H95 C97 0.959 . S
H96 C97 0.961 . S
C97 C87 1.510 . S
C97 H95 0.959 . S
C97 H96 0.961 . S
C97 H98 0.960 . S
H98 C97 0.960 . S
H99 N79 0.862 . S
O100 Co68 1.920 . S
O100 C73 1.289 . S
C101 O93 1.258 . S
C101 O94 1.266 . S
Co102 O105 1.970 . S
Co102 N119 1.989 . S
Co102 O127 1.967 . S
Co102 O134 1.920 . S
Co103 O106 1.966 . S
Co103 N112 2.022 . S
Co103 N120 1.993 . S
Co103 O128 1.941 . S
C104 O105 1.258 . S
C104 O106 1.263 . S
O105 Co102 1.970 . S
O105 C104 1.258 . S
O106 Co103 1.966 . S
O106 C104 1.263 . S
C107 O108 1.235 . S
C107 O134 1.289 . S
O108 C107 1.235 . S
C109 C111 1.400 1_554 S
C109 N112 1.351 . S
C109 C114 1.501 . S
C110 C111 1.387 . S
C110 N113 1.341 1_556 S
C111 C109 1.400 1_556 S
C111 C110 1.387 . S
N112 Co103 2.022 . S
N112 C109 1.351 . S
N112 N113 1.365 . S
N113 C110 1.341 1_554 S
N113 N112 1.365 . S
N113 H133 0.862 . S
C114 C109 1.501 . S
C114 H115 0.961 . S
C114 H116 0.961 . S
C114 H117 0.960 . S
H115 C114 0.961 . S
H116 C114 0.961 . S
H117 C114 0.960 . S
C118 N119 1.342 . S
C118 C122 1.401 . S
C118 C123 1.499 . S
N119 Co102 1.989 . S
N119 C118 1.342 . S
N119 N120 1.388 . S
N120 Co103 1.993 . S
N120 N119 1.388 . S
N120 C121 1.346 . S
C121 N120 1.346 . S
C121 C122 1.396 . S
C121 C131 1.510 . S
C122 C118 1.401 . S
C122 C121 1.396 . S
C123 C118 1.499 . S
C123 H124 0.959 . S
C123 H125 0.960 . S
C123 H126 0.961 . S
H124 C123 0.959 . S
H125 C123 0.960 . S
H126 C123 0.961 . S
O127 Co102 1.967 . S
O127 C135 1.258 . S
O128 Co103 1.941 . S
O128 C135 1.266 . S
H129 C131 0.959 . S
H130 C131 0.961 . S
C131 C121 1.510 . S
C131 H129 0.959 . S
C131 H130 0.961 . S
C131 H132 0.960 . S
H132 C131 0.960 . S
H133 N113 0.862 . S
O134 Co102 1.920 . S
O134 C107 1.289 . S
C135 O127 1.258 . S
C135 O128 1.266 . S
Co136 O139 1.970 . S
Co136 N153 1.989 . S
Co136 O161 1.967 . S
Co136 O168 1.920 . S
Co137 O140 1.966 . S
Co137 N146 2.022 . S
Co137 N154 1.993 . S
Co137 O162 1.941 . S
C138 O139 1.258 . S
C138 O140 1.263 . S
O139 Co136 1.970 . S
O139 C138 1.258 . S
O140 Co137 1.966 . S
O140 C138 1.263 . S
C141 O142 1.235 . S
C141 O168 1.289 . S
O142 C141 1.235 . S
C143 C145 1.400 1_556 S
C143 N146 1.351 . S
C143 C148 1.501 . S
C144 C145 1.387 . S
C144 N147 1.341 1_554 S
C145 C143 1.400 1_554 S
C145 C144 1.387 . S
N146 Co137 2.022 . S
N146 C143 1.351 . S
N146 N147 1.365 . S
N147 C144 1.341 1_556 S
N147 N146 1.365 . S
N147 H167 0.862 . S
C148 C143 1.501 . S
C148 H149 0.961 . S
C148 H150 0.961 . S
C148 H151 0.960 . S
H149 C148 0.961 . S
H150 C148 0.961 . S
H151 C148 0.960 . S
C152 N153 1.342 . S
C152 C156 1.401 . S
C152 C157 1.499 . S
N153 Co136 1.989 . S
N153 C152 1.342 . S
N153 N154 1.388 . S
N154 Co137 1.993 . S
N154 N153 1.388 . S
N154 C155 1.346 . S
C155 N154 1.346 . S
C155 C156 1.396 . S
C155 C165 1.510 . S
C156 C152 1.401 . S
C156 C155 1.396 . S
C157 C152 1.499 . S
C157 H158 0.959 . S
C157 H159 0.960 . S
C157 H160 0.961 . S
H158 C157 0.959 . S
H159 C157 0.960 . S
H160 C157 0.961 . S
O161 Co136 1.967 . S
O161 C169 1.258 . S
O162 Co137 1.941 . S
O162 C169 1.266 . S
H163 C165 0.959 . S
H164 C165 0.961 . S
C165 C155 1.510 . S
C165 H163 0.959 . S
C165 H164 0.961 . S
C165 H166 0.960 . S
H166 C165 0.960 . S
H167 N147 0.862 . S
O168 Co136 1.920 . S
O168 C141 1.289 . S
C169 O161 1.258 . S
C169 O162 1.266 . S
Co170 O173 1.970 . S
Co170 N187 1.989 . S
Co170 O195 1.967 . S
Co170 O202 1.920 . S
Co171 O174 1.966 . S
Co171 N180 2.022 . S
Co171 N188 1.993 . S
Co171 O196 1.941 . S
C172 O173 1.258 . S
C172 O174 1.263 . S
O173 Co170 1.970 . S
O173 C172 1.258 . S
O174 Co171 1.966 . S
O174 C172 1.263 . S
C175 O176 1.235 . S
C175 O202 1.289 . S
O176 C175 1.235 . S
C177 C179 1.400 . S
C177 N180 1.351 . S
C177 C182 1.501 . S
C178 C179 1.387 . S
C178 N181 1.341 . S
C179 C177 1.400 . S
C179 C178 1.387 . S
N180 Co171 2.022 . S
N180 C177 1.351 . S
N180 N181 1.365 . S
N181 C178 1.341 . S
N181 N180 1.365 . S
N181 H201 0.862 . S
C182 C177 1.501 . S
C182 H183 0.961 . S
C182 H184 0.961 . S
C182 H185 0.960 . S
H183 C182 0.961 . S
H184 C182 0.961 . S
H185 C182 0.960 . S
C186 N187 1.342 . S
C186 C190 1.401 . S
C186 C191 1.499 . S
N187 Co170 1.989 . S
N187 C186 1.342 . S
N187 N188 1.388 . S
N188 Co171 1.993 . S
N188 N187 1.388 . S
N188 C189 1.346 . S
C189 N188 1.346 . S
C189 C190 1.396 . S
C189 C199 1.510 . S
C190 C186 1.401 . S
C190 C189 1.396 . S
C191 C186 1.499 . S
C191 H192 0.959 . S
C191 H193 0.960 . S
C191 H194 0.961 . S
H192 C191 0.959 . S
H193 C191 0.960 . S
H194 C191 0.961 . S
O195 Co170 1.967 . S
O195 C203 1.258 . S
O196 Co171 1.941 . S
O196 C203 1.266 . S
H197 C199 0.959 . S
H198 C199 0.961 . S
C199 C189 1.510 . S
C199 H197 0.959 . S
C199 H198 0.961 . S
C199 H200 0.960 . S
H200 C199 0.960 . S
H201 N181 0.862 . S
O202 Co170 1.920 . S
O202 C175 1.289 . S
C203 O195 1.258 . S
C203 O196 1.266 . S
H204 C205 0.951 . S
C205 H204 0.951 . S
C205 C211 1.265 . S
H206 C211 0.950 . S
H207 C215 0.949 . S
H208 C216 0.950 . S
H209 C217 0.951 . S
H210 C218 0.951 . S
C211 C205 1.265 . S
C211 H206 0.950 . S
C211 C212 1.478 . S
C212 C211 1.478 . S
C212 C213 1.397 . S
C212 C229 1.394 . S
C213 C212 1.397 . S
C213 C214 1.438 . S
C213 C218 1.429 . S
C214 C213 1.438 . S
C214 C215 1.428 . S
C214 C227 1.394 . S
C215 H207 0.949 . S
C215 C214 1.428 . S
C215 C216 1.345 . S
C216 H208 0.950 . S
C216 C215 1.345 . S
C216 C217 1.424 . S
C217 H209 0.951 . S
C217 C216 1.424 . S
C217 C218 1.347 . S
C218 H210 0.951 . S
C218 C213 1.429 . S
C218 C217 1.347 . S
H219 C220 0.951 . S
C220 H219 0.951 . S
C220 C226 1.265 . S
H221 C226 0.950 . S
H222 C230 0.949 . S
H223 C231 0.950 . S
H224 C232 0.951 . S
H225 C233 0.951 . S
C226 C220 1.265 . S
C226 H221 0.950 . S
C226 C227 1.478 . S
C227 C214 1.394 . S
C227 C226 1.478 . S
C227 C228 1.397 . S
C228 C227 1.397 . S
C228 C229 1.438 . S
C228 C233 1.429 . S
C229 C212 1.394 . S
C229 C228 1.438 . S
C229 C230 1.428 . S
C230 H222 0.949 . S
C230 C229 1.428 . S
C230 C231 1.345 . S
C231 H223 0.950 . S
C231 C230 1.345 . S
C231 C232 1.424 . S
C232 H224 0.951 . S
C232 C231 1.424 . S
C232 C233 1.347 . S
C233 H225 0.951 . S
C233 C228 1.429 . S
C233 C232 1.347 . S
H234 C235 0.951 . S
C235 H234 0.951 . S
C235 C241 1.265 . S
H236 C241 0.950 . S
H237 C245 0.949 . S
H238 C246 0.950 . S
H239 C247 0.951 1_455 S
H240 C248 0.951 . S
C241 C235 1.265 . S
C241 H236 0.950 . S
C241 C242 1.478 . S
C242 C241 1.478 . S
C242 C243 1.397 . S
C242 C259 1.394 . S
C243 C242 1.397 . S
C243 C244 1.438 . S
C243 C248 1.429 . S
C244 C243 1.438 . S
C244 C245 1.428 . S
C244 C257 1.394 . S
C245 H237 0.949 . S
C245 C244 1.428 . S
C245 C246 1.345 . S
C246 H238 0.950 . S
C246 C245 1.345 . S
C246 C247 1.424 . S
C247 H239 0.951 1_655 S
C247 C246 1.424 . S
C247 C248 1.347 . S
C248 H240 0.951 . S
C248 C243 1.429 . S
C248 C247 1.347 . S
H249 C250 0.951 . S
C250 H249 0.951 . S
C250 C256 1.265 . S
H251 C256 0.950 . S
H252 C260 0.949 . S
H253 C261 0.950 . S
H254 C262 0.951 . S
H255 C263 0.951 . S
C256 C250 1.265 . S
C256 H251 0.950 . S
C256 C257 1.478 . S
C257 C244 1.394 . S
C257 C256 1.478 . S
C257 C258 1.397 . S
C258 C257 1.397 . S
C258 C259 1.438 . S
C258 C263 1.429 . S
C259 C242 1.394 . S
C259 C258 1.438 . S
C259 C260 1.428 . S
C260 H252 0.949 . S
C260 C259 1.428 . S
C260 C261 1.345 . S
C261 H253 0.950 . S
C261 C260 1.345 . S
C261 C262 1.424 . S
C262 H254 0.951 . S
C262 C261 1.424 . S
C262 C263 1.347 . S
C263 H255 0.951 . S
C263 C258 1.429 . S
C263 C262 1.347 . S
H264 C265 0.951 . S
C265 H264 0.951 . S
C265 C271 1.265 . S
H266 C271 0.950 . S
H267 C275 0.949 . S
H268 C276 0.950 . S
H269 C277 0.951 . S
H270 C278 0.951 . S
C271 C265 1.265 . S
C271 H266 0.950 . S
C271 C272 1.478 . S
C272 C271 1.478 . S
C272 C273 1.397 . S
C272 C289 1.394 . S
C273 C272 1.397 . S
C273 C274 1.438 . S
C273 C278 1.429 . S
C274 C273 1.438 . S
C274 C275 1.428 . S
C274 C287 1.394 . S
C275 H267 0.949 . S
C275 C274 1.428 . S
C275 C276 1.345 . S
C276 H268 0.950 . S
C276 C275 1.345 . S
C276 C277 1.424 . S
C277 H269 0.951 . S
C277 C276 1.424 . S
C277 C278 1.347 . S
C278 H270 0.951 . S
C278 C273 1.429 . S
C278 C277 1.347 . S
H279 C280 0.951 . S
C280 H279 0.951 . S
C280 C286 1.265 . S
H281 C286 0.950 . S
H282 C290 0.949 . S
H283 C291 0.950 . S
H284 C292 0.951 1_455 S
H285 C293 0.951 1_455 S
C286 C280 1.265 . S
C286 H281 0.950 . S
C286 C287 1.478 . S
C287 C274 1.394 . S
C287 C286 1.478 . S
C287 C288 1.397 . S
C288 C287 1.397 . S
C288 C289 1.438 . S
C288 C293 1.429 . S
C289 C272 1.394 . S
C289 C288 1.438 . S
C289 C290 1.428 . S
C290 H282 0.949 . S
C290 C289 1.428 . S
C290 C291 1.345 . S
C291 H283 0.950 . S
C291 C290 1.345 . S
C291 C292 1.424 . S
C292 H284 0.951 1_655 S
C292 C291 1.424 . S
C292 C293 1.347 . S
C293 H285 0.951 1_655 S
C293 C288 1.429 . S
C293 C292 1.347 . S
H294 C295 0.951 . S
C295 H294 0.951 . S
C295 C301 1.265 . S
H296 C301 0.950 . S
H297 C305 0.949 . S
H298 C306 0.950 . S
H299 C307 0.951 . S
H300 C308 0.951 . S
C301 C295 1.265 . S
C301 H296 0.950 . S
C301 C302 1.478 . S
C302 C301 1.478 . S
C302 C303 1.397 . S
C302 C319 1.394 . S
C303 C302 1.397 . S
C303 C304 1.438 . S
C303 C308 1.429 . S
C304 C303 1.438 . S
C304 C305 1.428 . S
C304 C317 1.394 . S
C305 H297 0.949 . S
C305 C304 1.428 . S
C305 C306 1.345 . S
C306 H298 0.950 . S
C306 C305 1.345 . S
C306 C307 1.424 . S
C307 H299 0.951 . S
C307 C306 1.424 . S
C307 C308 1.347 . S
C308 H300 0.951 . S
C308 C303 1.429 . S
C308 C307 1.347 . S
H309 C310 0.951 . S
C310 H309 0.951 . S
C310 C316 1.265 . S
H311 C316 0.950 . S
H312 C320 0.949 . S
H313 C321 0.950 . S
H314 C322 0.951 . S
H315 C323 0.951 . S
C316 C310 1.265 . S
C316 H311 0.950 . S
C316 C317 1.478 . S
C317 C304 1.394 . S
C317 C316 1.478 . S
C317 C318 1.397 . S
C318 C317 1.397 . S
C318 C319 1.438 . S
C318 C323 1.429 . S
C319 C302 1.394 . S
C319 C318 1.438 . S
C319 C320 1.428 . S
C320 H312 0.949 . S
C320 C319 1.428 . S
C320 C321 1.345 . S
C321 H313 0.950 . S
C321 C320 1.345 . S
C321 C322 1.424 . S
C322 H314 0.951 . S
C322 C321 1.424 . S
C322 C323 1.347 . S
C323 H315 0.951 . S
C323 C318 1.429 . S
C323 C322 1.347 . S
H324 C325 0.951 . S
C325 H324 0.951 . S
C325 C331 1.265 . S
H326 C331 0.950 . S
H327 C335 0.949 . S
H328 C336 0.950 . S
H329 C337 0.951 . S
H330 C338 0.951 . S
C331 C325 1.265 . S
C331 H326 0.950 . S
C331 C332 1.478 . S
C332 C331 1.478 . S
C332 C333 1.397 . S
C332 C349 1.394 . S
C333 C332 1.397 . S
C333 C334 1.438 . S
C333 C338 1.429 . S
C334 C333 1.438 . S
C334 C335 1.428 . S
C334 C347 1.394 . S
C335 H327 0.949 . S
C335 C334 1.428 . S
C335 C336 1.345 . S
C336 H328 0.950 . S
C336 C335 1.345 . S
C336 C337 1.424 . S
C337 H329 0.951 . S
C337 C336 1.424 . S
C337 C338 1.347 . S
C338 H330 0.951 . S
C338 C333 1.429 . S
C338 C337 1.347 . S
H339 C340 0.951 . S
C340 H339 0.951 . S
C340 C346 1.265 . S
H341 C346 0.950 . S
H342 C350 0.949 . S
H343 C351 0.950 . S
H344 C352 0.951 . S
H345 C353 0.951 . S
C346 C340 1.265 . S
C346 H341 0.950 . S
C346 C347 1.478 . S
C347 C334 1.394 . S
C347 C346 1.478 . S
C347 C348 1.397 . S
C348 C347 1.397 . S
C348 C349 1.438 . S
C348 C353 1.429 . S
C349 C332 1.394 . S
C349 C348 1.438 . S
C349 C350 1.428 . S
C350 H342 0.949 . S
C350 C349 1.428 . S
C350 C351 1.345 . S
C351 H343 0.950 . S
C351 C350 1.345 . S
C351 C352 1.424 . S
C352 H344 0.951 . S
C352 C351 1.424 . S
C352 C353 1.347 . S
C353 H345 0.951 . S
C353 C348 1.429 . S
C353 C352 1.347 . S
H354 C355 0.951 . S
C355 H354 0.951 . S
C355 C361 1.265 . S
H356 C361 0.950 . S
H357 C365 0.949 . S
H358 C366 0.950 . S
H359 C367 0.951 1_545 S
H360 C368 0.951 . S
C361 C355 1.265 . S
C361 H356 0.950 . S
C361 C362 1.478 . S
C362 C361 1.478 . S
C362 C363 1.397 . S
C362 C379 1.394 . S
C363 C362 1.397 . S
C363 C364 1.438 . S
C363 C368 1.429 . S
C364 C363 1.438 . S
C364 C365 1.428 . S
C364 C377 1.394 . S
C365 H357 0.949 . S
C365 C364 1.428 . S
C365 C366 1.345 . S
C366 H358 0.950 . S
C366 C365 1.345 . S
C366 C367 1.424 . S
C367 H359 0.951 1_565 S
C367 C366 1.424 . S
C367 C368 1.347 . S
C368 H360 0.951 . S
C368 C363 1.429 . S
C368 C367 1.347 . S
H369 C370 0.951 . S
C370 H369 0.951 . S
C370 C376 1.265 . S
H371 C376 0.950 . S
H372 C380 0.949 . S
H373 C381 0.950 1_655 S
H374 C382 0.951 . S
H375 C383 0.951 . S
C376 C370 1.265 . S
C376 H371 0.950 . S
C376 C377 1.478 . S
C377 C364 1.394 . S
C377 C376 1.478 . S
C377 C378 1.397 . S
C378 C377 1.397 . S
C378 C379 1.438 . S
C378 C383 1.429 . S
C379 C362 1.394 . S
C379 C378 1.438 . S
C379 C380 1.428 . S
C380 H372 0.949 . S
C380 C379 1.428 . S
C380 C381 1.345 . S
C381 H373 0.950 1_455 S
C381 C380 1.345 . S
C381 C382 1.424 . S
C382 H374 0.951 . S
C382 C381 1.424 . S
C382 C383 1.347 . S
C383 H375 0.951 . S
C383 C378 1.429 . S
C383 C382 1.347 . S
H384 C385 0.951 . S
C385 H384 0.951 . S
C385 C391 1.265 . S
H386 C391 0.950 . S
H387 C395 0.949 . S
H388 C396 0.950 . S
H389 C397 0.951 . S
H390 C398 0.951 . S
C391 C385 1.265 . S
C391 H386 0.950 . S
C391 C392 1.478 . S
C392 C391 1.478 . S
C392 C393 1.397 . S
C392 C409 1.394 . S
C393 C392 1.397 . S
C393 C394 1.438 1_655 S
C393 C398 1.429 . S
C394 C393 1.438 1_455 S
C394 C395 1.428 . S
C394 C407 1.394 . S
C395 H387 0.949 . S
C395 C394 1.428 . S
C395 C396 1.345 . S
C396 H388 0.950 . S
C396 C395 1.345 . S
C396 C397 1.424 . S
C397 H389 0.951 . S
C397 C396 1.424 . S
C397 C398 1.347 1_455 S
C398 H390 0.951 . S
C398 C393 1.429 . S
C398 C397 1.347 1_655 S
H399 C400 0.951 . S
C400 H399 0.951 . S
C400 C406 1.265 . S
H401 C406 0.950 . S
H402 C410 0.949 . S
H403 C411 0.950 . S
H404 C412 0.951 . S
H405 C413 0.951 . S
C406 C400 1.265 . S
C406 H401 0.950 . S
C406 C407 1.478 . S
C407 C394 1.394 . S
C407 C406 1.478 . S
C407 C408 1.397 . S
C408 C407 1.397 . S
C408 C409 1.438 1_455 S
C408 C413 1.429 . S
C409 C392 1.394 . S
C409 C408 1.438 1_655 S
C409 C410 1.428 . S
C410 H402 0.949 . S
C410 C409 1.428 . S
C410 C411 1.345 . S
C411 H403 0.950 . S
C411 C410 1.345 . S
C411 C412 1.424 1_655 S
C412 H404 0.951 . S
C412 C411 1.424 1_455 S
C412 C413 1.347 . S
C413 H405 0.951 . S
C413 C408 1.429 . S
C413 C412 1.347 . S
H414 C415 0.951 . S
C415 H414 0.951 . S
C415 C421 1.265 . S
H416 C421 0.950 . S
H417 C425 0.949 . S
H418 C426 0.950 . S
H419 C427 0.951 . S
H420 C428 0.951 . S
C421 C415 1.265 . S
C421 H416 0.950 . S
C421 C422 1.478 . S
C422 C421 1.478 . S
C422 C423 1.397 . S
C422 C439 1.394 . S
C423 C422 1.397 . S
C423 C424 1.438 . S
C423 C428 1.429 . S
C424 C423 1.438 . S
C424 C425 1.428 . S
C424 C437 1.394 . S
C425 H417 0.949 . S
C425 C424 1.428 . S
C425 C426 1.345 . S
C426 H418 0.950 . S
C426 C425 1.345 . S
C426 C427 1.424 . S
C427 H419 0.951 . S
C427 C426 1.424 . S
C427 C428 1.347 . S
C428 H420 0.951 . S
C428 C423 1.429 . S
C428 C427 1.347 . S
H429 C430 0.951 . S
C430 H429 0.951 . S
C430 C436 1.265 . S
H431 C436 0.950 . S
H432 C440 0.949 . S
H433 C441 0.950 . S
H434 C442 0.951 . S
H435 C443 0.951 . S
C436 C430 1.265 . S
C436 H431 0.950 . S
C436 C437 1.478 . S
C437 C424 1.394 . S
C437 C436 1.478 . S
C437 C438 1.397 . S
C438 C437 1.397 . S
C438 C439 1.438 . S
C438 C443 1.429 . S
C439 C422 1.394 . S
C439 C438 1.438 . S
C439 C440 1.428 . S
C440 H432 0.949 . S
C440 C439 1.428 . S
C440 C441 1.345 . S
C441 H433 0.950 . S
C441 C440 1.345 . S
C441 C442 1.424 . S
C442 H434 0.951 . S
C442 C441 1.424 . S
C442 C443 1.347 . S
C443 H435 0.951 . S
C443 C438 1.429 . S
C443 C442 1.347 . S
H444 C445 0.951 . S
C445 H444 0.951 . S
C445 C451 1.265 . S
H446 C451 0.950 . S
H447 C455 0.949 . S
H448 C456 0.950 . S
H449 C457 0.951 . S
H450 C458 0.951 . S
C451 C445 1.265 . S
C451 H446 0.950 . S
C451 C452 1.478 . S
C452 C451 1.478 . S
C452 C453 1.397 . S
C452 C469 1.394 1_565 S
C453 C452 1.397 . S
C453 C454 1.438 1_565 S
C453 C458 1.429 . S
C454 C453 1.438 1_545 S
C454 C455 1.428 . S
C454 C467 1.394 . S
C455 H447 0.949 . S
C455 C454 1.428 . S
C455 C456 1.345 . S
C456 H448 0.950 . S
C456 C455 1.345 . S
C456 C457 1.424 1_545 S
C457 H449 0.951 . S
C457 C456 1.424 1_565 S
C457 C458 1.347 . S
C458 H450 0.951 . S
C458 C453 1.429 . S
C458 C457 1.347 . S
H459 C460 0.951 . S
C460 H459 0.951 . S
C460 C466 1.265 . S
H461 C466 0.950 . S
H462 C470 0.942 1_565 S
H463 C471 0.950 . S
H464 C472 0.951 . S
H465 C473 0.951 . S
C466 C460 1.265 . S
C466 H461 0.950 . S
C466 C467 1.478 . S
C467 C454 1.394 . S
C467 C466 1.478 . S
C467 C468 1.397 . S
C468 C467 1.397 . S
C468 C469 1.438 . S
C468 C473 1.429 . S
C469 C452 1.394 1_545 S
C469 C468 1.438 . S
C469 C470 1.433 . S
C470 H462 0.942 1_545 S
C470 C469 1.433 . S
C470 C471 1.346 . S
C471 H463 0.950 . S
C471 C470 1.346 . S
C471 C472 1.424 . S
C472 H464 0.951 . S
C472 C471 1.424 . S
C472 C473 1.347 . S
C473 H465 0.951 . S
C473 C468 1.429 . S
C473 C472 1.347 . S
H474 C475 0.951 1_655 S
C475 H474 0.951 1_455 S
C475 C481 1.265 . S
H476 C481 0.950 . S
H477 C485 0.952 . S
H478 C486 0.950 . S
H479 C487 0.951 . S
H480 C488 0.951 . S
C481 C475 1.265 . S
C481 H476 0.950 . S
C481 C482 1.478 . S
C482 C481 1.478 . S
C482 C483 1.397 1_545 S
C482 C499 1.394 . S
C483 C482 1.397 1_565 S
C483 C484 1.438 . S
C483 C488 1.429 . S
C484 C483 1.438 . S
C484 C485 1.433 1_455 S
C484 C497 1.388 1_465 S
C485 H477 0.952 . S
C485 C484 1.433 1_655 S
C485 C486 1.337 1_655 S
C486 H478 0.950 . S
C486 C485 1.337 1_455 S
C486 C487 1.424 . S
C487 H479 0.951 . S
C487 C486 1.424 . S
C487 C488 1.347 . S
C488 H480 0.951 . S
C488 C483 1.429 . S
C488 C487 1.347 . S
H489 C490 0.951 1_445 S
C490 H489 0.951 1_665 S
C490 C496 1.265 . S
H491 C496 0.950 . S
H492 C500 0.949 . S
H493 C501 0.950 . S
H494 C502 0.951 . S
H495 C503 0.951 . S
C496 C490 1.265 . S
C496 H491 0.950 . S
C496 C497 1.479 1_565 S
C497 C484 1.388 1_645 S
C497 C496 1.479 1_545 S
C497 C498 1.410 1_655 S
C498 C497 1.410 1_455 S
C498 C499 1.442 . S
C498 C503 1.418 1_455 S
C499 C482 1.394 . S
C499 C498 1.442 . S
C499 C500 1.428 . S
C500 H492 0.949 . S
C500 C499 1.428 . S
C500 C501 1.345 . S
C501 H493 0.950 . S
C501 C500 1.345 . S
C501 C502 1.424 1_455 S
C502 H494 0.951 . S
C502 C501 1.424 1_655 S
C502 C503 1.347 . S
C503 H495 0.951 . S
C503 C498 1.418 1_655 S
C503 C502 1.347 . S
H504 C505 0.951 . S
C505 H504 0.951 . S
C505 C511 1.265 . S
H506 C511 0.950 . S
H507 C515 0.949 . S
H508 C516 0.950 . S
H509 C517 0.951 . S
H510 C518 0.951 . S
C511 C505 1.265 . S
C511 H506 0.950 . S
C511 C512 1.478 . S
C512 C511 1.478 . S
C512 C513 1.397 . S
C512 C529 1.394 . S
C513 C512 1.397 . S
C513 C514 1.438 . S
C513 C518 1.429 . S
C514 C513 1.438 . S
C514 C515 1.428 . S
C514 C527 1.394 . S
C515 H507 0.949 . S
C515 C514 1.428 . S
C515 C516 1.345 . S
C516 H508 0.950 . S
C516 C515 1.345 . S
C516 C517 1.424 . S
C517 H509 0.951 . S
C517 C516 1.424 . S
C517 C518 1.347 . S
C518 H510 0.951 . S
C518 C513 1.429 . S
C518 C517 1.347 . S
H519 C520 0.951 . S
C520 H519 0.951 . S
C520 C526 1.265 . S
H521 C526 0.950 . S
H522 C530 0.949 . S
H523 C531 0.950 . S
H524 C532 0.951 . S
H525 C533 0.951 . S
C526 C520 1.265 . S
C526 H521 0.950 . S
C526 C527 1.478 . S
C527 C514 1.394 . S
C527 C526 1.478 . S
C527 C528 1.397 . S
C528 C527 1.397 . S
C528 C529 1.438 . S
C528 C533 1.429 . S
C529 C512 1.394 . S
C529 C528 1.438 . S
C529 C530 1.428 . S
C530 H522 0.949 . S
C530 C529 1.428 . S
C530 C531 1.345 . S
C531 H523 0.950 . S
C531 C530 1.345 . S
C531 C532 1.424 . S
C532 H524 0.951 . S
C532 C531 1.424 . S
C532 C533 1.347 . S
C533 H525 0.951 . S
C533 C528 1.429 . S
C533 C532 1.347 . S
H534 C535 0.951 . S
C535 H534 0.951 . S
C535 C541 1.265 . S
H536 C541 0.950 . S
H537 C545 0.949 . S
H538 C546 0.950 . S
H539 C547 0.951 . S
H540 C548 0.951 . S
C541 C535 1.265 . S
C541 H536 0.950 . S
C541 C542 1.478 . S
C542 C541 1.478 . S
C542 C543 1.397 . S
C542 C559 1.394 . S
C543 C542 1.397 . S
C543 C544 1.438 . S
C543 C548 1.429 . S
C544 C543 1.438 . S
C544 C545 1.428 . S
C544 C557 1.394 . S
C545 H537 0.949 . S
C545 C544 1.428 . S
C545 C546 1.345 . S
C546 H538 0.950 . S
C546 C545 1.345 . S
C546 C547 1.424 . S
C547 H539 0.951 . S
C547 C546 1.424 . S
C547 C548 1.347 . S
C548 H540 0.951 . S
C548 C543 1.429 . S
C548 C547 1.347 . S
H549 C550 0.951 . S
C550 H549 0.951 . S
C550 C556 1.265 . S
H551 C556 0.950 . S
H552 C560 0.949 . S
H553 C561 0.950 . S
H554 C562 0.951 . S
H555 C563 0.951 . S
C556 C550 1.265 . S
C556 H551 0.950 . S
C556 C557 1.478 . S
C557 C544 1.394 . S
C557 C556 1.478 . S
C557 C558 1.397 . S
C558 C557 1.397 . S
C558 C559 1.438 . S
C558 C563 1.429 . S
C559 C542 1.394 . S
C559 C558 1.438 . S
C559 C560 1.428 . S
C560 H552 0.949 . S
C560 C559 1.428 . S
C560 C561 1.345 . S
C561 H553 0.950 . S
C561 C560 1.345 . S
C561 C562 1.424 . S
C562 H554 0.951 . S
C562 C561 1.424 . S
C562 C563 1.347 . S
C563 H555 0.951 . S
C563 C558 1.429 . S
C563 C562 1.347 . S
H564 C565 0.951 . S
C565 H564 0.951 . S
C565 C571 1.265 . S
H566 C571 0.950 1_455 S
H567 C575 0.949 . S
H568 C576 0.950 . S
H569 C577 0.951 . S
H570 C578 0.951 . S
C571 C565 1.265 . S
C571 H566 0.950 1_655 S
C571 C572 1.478 1_655 S
C572 C571 1.478 1_455 S
C572 C573 1.397 . S
C572 C589 1.394 1_565 S
C573 C572 1.397 . S
C573 C574 1.438 1_554 S
C573 C578 1.429 1_455 S
C574 C573 1.438 1_556 S
C574 C575 1.428 . S
C574 C587 1.394 1_565 S
C575 H567 0.949 . S
C575 C574 1.428 . S
C575 C576 1.345 . S
C576 H568 0.950 . S
C576 C575 1.345 . S
C576 C577 1.424 1_456 S
C577 H569 0.951 . S
C577 C576 1.424 1_654 S
C577 C578 1.347 . S
C578 H570 0.951 . S
C578 C573 1.429 1_655 S
C578 C577 1.347 . S
H579 C580 0.951 . S
C580 H579 0.951 . S
C580 C586 1.265 . S
H581 C586 0.950 . S
H582 C590 0.949 . S
H583 C591 0.950 . S
H584 C592 0.951 . S
H585 C593 0.951 . S
C586 C580 1.265 . S
C586 H581 0.950 . S
C586 C587 1.478 . S
C587 C574 1.394 1_545 S
C587 C586 1.478 . S
C587 C588 1.397 . S
C588 C587 1.397 . S
C588 C589 1.438 1_556 S
C588 C593 1.429 . S
C589 C572 1.394 1_545 S
C589 C588 1.438 1_554 S
C589 C590 1.428 . S
C590 H582 0.949 . S
C590 C589 1.428 . S
C590 C591 1.345 . S
C591 H583 0.950 . S
C591 C590 1.345 . S
C591 C592 1.424 1_554 S
C592 H584 0.951 . S
C592 C591 1.424 1_556 S
C592 C593 1.347 . S
C593 H585 0.951 . S
C593 C588 1.429 . S
C593 C592 1.347 . S
H594 C595 0.951 . S
C595 H594 0.951 . S
C595 C601 1.265 . S
H596 C601 0.950 . S
H597 C605 0.949 . S
H598 C606 0.950 . S
H599 C607 0.951 . S
H600 C608 0.951 . S
C601 C595 1.265 . S
C601 H596 0.950 . S
C601 C602 1.478 . S
C602 C601 1.478 . S
C602 C603 1.397 . S
C602 C619 1.394 . S
C603 C602 1.397 . S
C603 C604 1.438 . S
C603 C608 1.429 . S
C604 C603 1.438 . S
C604 C605 1.428 . S
C604 C617 1.394 . S
C605 H597 0.949 . S
C605 C604 1.428 . S
C605 C606 1.345 . S
C606 H598 0.950 . S
C606 C605 1.345 . S
C606 C607 1.424 . S
C607 H599 0.951 . S
C607 C606 1.424 . S
C607 C608 1.347 . S
C608 H600 0.951 . S
C608 C603 1.429 . S
C608 C607 1.347 . S
H609 C610 0.951 . S
C610 H609 0.951 . S
C610 C616 1.265 . S
H611 C616 0.950 . S
H612 C620 0.949 . S
H613 C621 0.950 . S
H614 C622 0.951 . S
H615 C623 0.951 . S
C616 C610 1.265 . S
C616 H611 0.950 . S
C616 C617 1.478 . S
C617 C604 1.394 . S
C617 C616 1.478 . S
C617 C618 1.397 . S
C618 C617 1.397 . S
C618 C619 1.438 . S
C618 C623 1.429 . S
C619 C602 1.394 . S
C619 C618 1.438 . S
C619 C620 1.428 . S
C620 H612 0.949 . S
C620 C619 1.428 . S
C620 C621 1.345 . S
C621 H613 0.950 . S
C621 C620 1.345 . S
C621 C622 1.424 . S
C622 H614 0.951 . S
C622 C621 1.424 . S
C622 C623 1.347 . S
C623 H615 0.951 . S
C623 C618 1.429 . S
C623 C622 1.347 . S
H624 C625 0.951 . S
C625 H624 0.951 . S
C625 C631 1.265 . S
H626 C631 0.950 . S
H627 C635 0.949 . S
H628 C636 0.950 . S
H629 C637 0.951 . S
H630 C638 0.951 . S
C631 C625 1.265 . S
C631 H626 0.950 . S
C631 C632 1.478 . S
C632 C631 1.478 . S
C632 C633 1.397 . S
C632 C649 1.394 . S
C633 C632 1.397 . S
C633 C634 1.438 . S
C633 C638 1.429 . S
C634 C633 1.438 . S
C634 C635 1.428 . S
C634 C647 1.394 . S
C635 H627 0.949 . S
C635 C634 1.428 . S
C635 C636 1.345 . S
C636 H628 0.950 . S
C636 C635 1.345 . S
C636 C637 1.424 . S
C637 H629 0.951 . S
C637 C636 1.424 . S
C637 C638 1.347 . S
C638 H630 0.951 . S
C638 C633 1.429 . S
C638 C637 1.347 . S
H639 C640 0.951 . S
C640 H639 0.951 . S
C640 C646 1.265 . S
H641 C646 0.950 . S
H642 C650 0.949 . S
H643 C651 0.950 . S
H644 C652 0.951 . S
H645 C653 0.951 . S
C646 C640 1.265 . S
C646 H641 0.950 . S
C646 C647 1.478 . S
C647 C634 1.394 . S
C647 C646 1.478 . S
C647 C648 1.397 . S
C648 C647 1.397 . S
C648 C649 1.438 . S
C648 C653 1.429 . S
C649 C632 1.394 . S
C649 C648 1.438 . S
C649 C650 1.428 . S
C650 H642 0.949 . S
C650 C649 1.428 . S
C650 C651 1.345 . S
C651 H643 0.950 . S
C651 C650 1.345 . S
C651 C652 1.424 . S
C652 H644 0.951 . S
C652 C651 1.424 . S
C652 C653 1.347 . S
C653 H645 0.951 . S
C653 C648 1.429 . S
C653 C652 1.347 . S
C205 C33 1.239 . S
C220 C135 1.242 . S
C235 C20 1.784 . S
C250 C104 1.783 . S
C265 C122 1.792 . S
C280 C2 1.787 . S
C295 C54 1.802 . S
C310 C138 1.796 . S
C325 C169 1.293 . S
C340 C67 1.276 . S
C355 C36 1.808 . S
C370 C156 1.807 . S
C385 C101 1.301 . S
C400 C203 1.291 . S
C415 C88 1.808 . S
C430 C172 1.803 . S
C445 C190 1.790 . S
C460 C70 1.786 . S
C475 C43 1.880 . S
C490 C9 1.889 1_565 S
C505 C111 1.880 . S
C520 C77 1.891 . S
C535 C179 1.975 . S
C550 C145 1.961 . S
C565 C5 0.475 . S
C580 C39 0.457 . S
C595 C107 0.309 . S
C610 C73 0.278 . S
C625 C175 0.464 . S
C640 C141 0.478 . S
