# Generated by pormake.
# Topology srs-f, (5)-cn, num edge types: 1
# Building blocks:
#     Node 0, Type 0, BuildingBlock: XOMCOT_clean_sbu_1, # of connection points: 5
#     Node 1, Type 0, BuildingBlock: XOMCOT_clean_sbu_1, # of connection points: 5
#     Node 2, Type 0, BuildingBlock: XOMCOT_clean_sbu_1, # of connection points: 5
#     Node 3, Type 0, BuildingBlock: XOMCOT_clean_sbu_1, # of connection points: 5
#     Node 4, Type 0, BuildingBlock: XOMCOT_clean_sbu_1, # of connection points: 5
#     Node 5, Type 0, BuildingBlock: XOMCOT_clean_sbu_1, # of connection points: 5
#     Node 6, Type 0, BuildingBlock: XOMCOT_clean_sbu_1, # of connection points: 5
#     Node 7, Type 0, BuildingBlock: XOMCOT_clean_sbu_1, # of connection points: 5
#     Node 8, Type 0, BuildingBlock: XOMCOT_clean_sbu_1, # of connection points: 5
#     Node 9, Type 0, BuildingBlock: XOMCOT_clean_sbu_1, # of connection points: 5
#     Node 10, Type 0, BuildingBlock: XOMCOT_clean_sbu_1, # of connection points: 5
#     Node 11, Type 0, BuildingBlock: XOMCOT_clean_sbu_1, # of connection points: 5
#     Node 12, Type 0, BuildingBlock: XOMCOT_clean_sbu_1, # of connection points: 5
#     Node 13, Type 0, BuildingBlock: XOMCOT_clean_sbu_1, # of connection points: 5
#     Node 14, Type 0, BuildingBlock: XOMCOT_clean_sbu_1, # of connection points: 5
#     Node 15, Type 0, BuildingBlock: XOMCOT_clean_sbu_1, # of connection points: 5
#     Node 16, Type 0, BuildingBlock: XOMCOT_clean_sbu_1, # of connection points: 5
#     Node 17, Type 0, BuildingBlock: XOMCOT_clean_sbu_1, # of connection points: 5
#     Node 18, Type 0, BuildingBlock: XOMCOT_clean_sbu_1, # of connection points: 5
#     Node 19, Type 0, BuildingBlock: XOMCOT_clean_sbu_1, # of connection points: 5
#     Node 20, Type 0, BuildingBlock: XOMCOT_clean_sbu_1, # of connection points: 5
#     Node 21, Type 0, BuildingBlock: XOMCOT_clean_sbu_1, # of connection points: 5
#     Node 22, Type 0, BuildingBlock: XOMCOT_clean_sbu_1, # of connection points: 5
#     Node 23, Type 0, BuildingBlock: XOMCOT_clean_sbu_1, # of connection points: 5
#     Node 24, Type 0, BuildingBlock: XOMCOT_clean_sbu_1, # of connection points: 5
#     Node 25, Type 0, BuildingBlock: XOMCOT_clean_sbu_1, # of connection points: 5
#     Node 26, Type 0, BuildingBlock: XOMCOT_clean_sbu_1, # of connection points: 5
#     Node 27, Type 0, BuildingBlock: XOMCOT_clean_sbu_1, # of connection points: 5
#     Node 28, Type 0, BuildingBlock: XOMCOT_clean_sbu_1, # of connection points: 5
#     Node 29, Type 0, BuildingBlock: XOMCOT_clean_sbu_1, # of connection points: 5
#     Node 30, Type 0, BuildingBlock: XOMCOT_clean_sbu_1, # of connection points: 5
#     Node 31, Type 0, BuildingBlock: XOMCOT_clean_sbu_1, # of connection points: 5
#     Node 32, Type 0, BuildingBlock: XOMCOT_clean_sbu_1, # of connection points: 5
#     Node 33, Type 0, BuildingBlock: XOMCOT_clean_sbu_1, # of connection points: 5
#     Node 34, Type 0, BuildingBlock: XOMCOT_clean_sbu_1, # of connection points: 5
#     Node 35, Type 0, BuildingBlock: XOMCOT_clean_sbu_1, # of connection points: 5
#     Node 36, Type 0, BuildingBlock: XOMCOT_clean_sbu_1, # of connection points: 5
#     Node 37, Type 0, BuildingBlock: XOMCOT_clean_sbu_1, # of connection points: 5
#     Node 38, Type 0, BuildingBlock: XOMCOT_clean_sbu_1, # of connection points: 5
#     Node 39, Type 0, BuildingBlock: XOMCOT_clean_sbu_1, # of connection points: 5
#     Node 40, Type 0, BuildingBlock: XOMCOT_clean_sbu_1, # of connection points: 5
#     Node 41, Type 0, BuildingBlock: XOMCOT_clean_sbu_1, # of connection points: 5
#     Node 42, Type 0, BuildingBlock: XOMCOT_clean_sbu_1, # of connection points: 5
#     Node 43, Type 0, BuildingBlock: XOMCOT_clean_sbu_1, # of connection points: 5
#     Node 44, Type 0, BuildingBlock: XOMCOT_clean_sbu_1, # of connection points: 5
#     Node 45, Type 0, BuildingBlock: XOMCOT_clean_sbu_1, # of connection points: 5
#     Node 46, Type 0, BuildingBlock: XOMCOT_clean_sbu_1, # of connection points: 5
#     Node 47, Type 0, BuildingBlock: XOMCOT_clean_sbu_1, # of connection points: 5
#     Edge 48, Type (0, 0), None
#     Edge 49, Type (0, 0), None
#     Edge 50, Type (0, 0), None
#     Edge 51, Type (0, 0), None
#     Edge 52, Type (0, 0), None
#     Edge 53, Type (0, 0), None
#     Edge 54, Type (0, 0), None
#     Edge 55, Type (0, 0), None
#     Edge 56, Type (0, 0), None
#     Edge 57, Type (0, 0), None
#     Edge 58, Type (0, 0), None
#     Edge 59, Type (0, 0), None
#     Edge 60, Type (0, 0), None
#     Edge 61, Type (0, 0), None
#     Edge 62, Type (0, 0), None
#     Edge 63, Type (0, 0), None
#     Edge 64, Type (0, 0), None
#     Edge 65, Type (0, 0), None
#     Edge 66, Type (0, 0), None
#     Edge 67, Type (0, 0), None
#     Edge 68, Type (0, 0), None
#     Edge 69, Type (0, 0), None
#     Edge 70, Type (0, 0), None
#     Edge 71, Type (0, 0), None
#     Edge 72, Type (0, 0), None
#     Edge 73, Type (0, 0), None
#     Edge 74, Type (0, 0), None
#     Edge 75, Type (0, 0), None
#     Edge 76, Type (0, 0), None
#     Edge 77, Type (0, 0), None
#     Edge 78, Type (0, 0), None
#     Edge 79, Type (0, 0), None
#     Edge 80, Type (0, 0), None
#     Edge 81, Type (0, 0), None
#     Edge 82, Type (0, 0), None
#     Edge 83, Type (0, 0), None
#     Edge 84, Type (0, 0), None
#     Edge 85, Type (0, 0), None
#     Edge 86, Type (0, 0), None
#     Edge 87, Type (0, 0), None
#     Edge 88, Type (0, 0), None
#     Edge 89, Type (0, 0), None
#     Edge 90, Type (0, 0), None
#     Edge 91, Type (0, 0), None
#     Edge 92, Type (0, 0), None
#     Edge 93, Type (0, 0), None
#     Edge 94, Type (0, 0), None
#     Edge 95, Type (0, 0), None
#     Edge 96, Type (0, 0), None
#     Edge 97, Type (0, 0), None
#     Edge 98, Type (0, 0), None
#     Edge 99, Type (0, 0), None
#     Edge 100, Type (0, 0), None
#     Edge 101, Type (0, 0), None
#     Edge 102, Type (0, 0), None
#     Edge 103, Type (0, 0), None
#     Edge 104, Type (0, 0), None
#     Edge 105, Type (0, 0), None
#     Edge 106, Type (0, 0), None
#     Edge 107, Type (0, 0), None
#     Edge 108, Type (0, 0), None
#     Edge 109, Type (0, 0), None
#     Edge 110, Type (0, 0), None
#     Edge 111, Type (0, 0), None
#     Edge 112, Type (0, 0), None
#     Edge 113, Type (0, 0), None
#     Edge 114, Type (0, 0), None
#     Edge 115, Type (0, 0), None
#     Edge 116, Type (0, 0), None
#     Edge 117, Type (0, 0), None
#     Edge 118, Type (0, 0), None
#     Edge 119, Type (0, 0), None
#     Edge 120, Type (0, 0), None
#     Edge 121, Type (0, 0), None
#     Edge 122, Type (0, 0), None
#     Edge 123, Type (0, 0), None
#     Edge 124, Type (0, 0), None
#     Edge 125, Type (0, 0), None
#     Edge 126, Type (0, 0), None
#     Edge 127, Type (0, 0), None
#     Edge 128, Type (0, 0), None
#     Edge 129, Type (0, 0), None
#     Edge 130, Type (0, 0), None
#     Edge 131, Type (0, 0), None
#     Edge 132, Type (0, 0), None
#     Edge 133, Type (0, 0), None
#     Edge 134, Type (0, 0), None
#     Edge 135, Type (0, 0), None
#     Edge 136, Type (0, 0), None
#     Edge 137, Type (0, 0), None
#     Edge 138, Type (0, 0), None
#     Edge 139, Type (0, 0), None
#     Edge 140, Type (0, 0), None
#     Edge 141, Type (0, 0), None
#     Edge 142, Type (0, 0), None
#     Edge 143, Type (0, 0), None
#     Edge 144, Type (0, 0), None
#     Edge 145, Type (0, 0), None
#     Edge 146, Type (0, 0), None
#     Edge 147, Type (0, 0), None
#     Edge 148, Type (0, 0), None
#     Edge 149, Type (0, 0), None
#     Edge 150, Type (0, 0), None
#     Edge 151, Type (0, 0), None
#     Edge 152, Type (0, 0), None
#     Edge 153, Type (0, 0), None
#     Edge 154, Type (0, 0), None
#     Edge 155, Type (0, 0), None
#     Edge 156, Type (0, 0), None
#     Edge 157, Type (0, 0), None
#     Edge 158, Type (0, 0), None
#     Edge 159, Type (0, 0), None
#     Edge 160, Type (0, 0), None
#     Edge 161, Type (0, 0), None
#     Edge 162, Type (0, 0), None
#     Edge 163, Type (0, 0), None
#     Edge 164, Type (0, 0), None
#     Edge 165, Type (0, 0), None
#     Edge 166, Type (0, 0), None
#     Edge 167, Type (0, 0), None
# Relax obj value: 0.957
# Max RMSD: 0.253
# Mean RMSD: 0.253
data_MOF--net-srs-f--node1-XOMCOT_clean_sbu_1--edge1-none
_symmetry_space_group_name_H-M    P1
_symmetry_Int_Tables_number       1
_symmetry_cell_setting            triclinic
loop_
_symmetry_equiv_pos_as_xyz
'x, y, z'
_cell_length_a     45.86229
_cell_length_b     45.862044
_cell_length_c     45.861438
_cell_angle_alpha  89.975023
_cell_angle_beta   89.97497
_cell_angle_gamma 89.975423
loop_
_atom_site_label
_atom_site_type_symbol
_atom_site_fract_x
_atom_site_fract_y
_atom_site_fract_z
_atom_type_partial_charge
C0 C 0.0712 0.39159 0.22775 0.0
C1 C 0.06534 0.36247 0.22324 0.0
N2 N 0.0512 0.35976 0.19766 0.0
N3 N 0.05973 0.40707 0.20559 0.0
C4 C 0.04821 0.38707 0.18752 0.0
H5 H 0.08087 0.40104 0.24705 0.0
Co6 Co 0.05585 0.44709 0.20294 0.0
C7 C 0.04475 0.45548 0.13903 0.0
O8 O 0.06795 0.47207 0.13641 0.0
N9 N 0.05077 0.48786 0.1997 0.0
C10 C 0.05243 0.53354 0.18306 0.0
C11 C 0.06867 0.509 0.18956 0.0
C12 C 0.02405 0.50056 0.19997 0.0
N13 N 0.02438 0.52794 0.18966 0.0
O14 O 0.01789 0.44376 0.22223 0.0
H15 H 0.09155 0.5062 0.18469 0.0
H16 H 0.00394 0.48923 0.20465 0.0
O17 O 0.03812 0.44429 0.16385 0.0
C18 C 0.02223 0.4467 0.24959 0.0
O19 O 0.04904 0.45148 0.25844 0.0
N20 N 0.09445 0.44806 0.18855 0.0
C21 C 0.14944 0.4219 0.19144 0.0
C22 C 0.13134 0.41744 0.16725 0.0
C23 C 0.10367 0.43013 0.16651 0.0
C24 C 0.1133 0.45552 0.21034 0.0
C25 C 0.14083 0.4424 0.21241 0.0
H26 H 0.08849 0.4216 0.15074 0.0
H27 H 0.10539 0.46826 0.22855 0.0
H28 H 0.03436 0.39233 0.16918 0.0
H29 H 0.06818 0.34524 0.23906 0.0
H30 H 0.06044 0.55344 0.17317 0.0
H31 H 0.13671 0.401 0.15114 0.0
H32 H 0.15393 0.44597 0.23173 0.0
C33 C 0.99822 0.82122 0.47767 0.0
C34 C 0.02734 0.81535 0.47315 0.0
N35 N 0.03006 0.80119 0.44757 0.0
N36 N 0.98275 0.80975 0.45553 0.0
C37 C 1.00275 0.79821 0.43744 0.0
H38 H 0.98876 0.83091 0.49698 0.0
Co39 Co 0.94273 0.8059 0.4529 0.0
C40 C 0.93438 0.79482 0.38898 0.0
O41 O 0.9178 0.81804 0.38636 0.0
N42 N 0.90195 0.80084 0.44968 0.0
C43 C 0.85628 0.80253 0.43307 0.0
C44 C 0.88082 0.81876 0.43954 0.0
C45 C 0.88925 0.77414 0.44999 0.0
N46 N 0.86187 0.77449 0.43969 0.0
O47 O 0.94606 0.76793 0.47218 0.0
H48 H 0.88363 0.84163 0.43464 0.0
H49 H 0.90058 0.75403 0.45468 0.0
O50 O 0.94554 0.78817 0.41381 0.0
C51 C 0.9431 0.77229 0.49954 0.0
O52 O 0.93831 0.7991 0.50839 0.0
N53 N 0.94175 0.8445 0.43852 0.0
C54 C 0.9679 0.89947 0.44146 0.0
C55 C 0.97239 0.88139 0.41725 0.0
C56 C 0.95969 0.85372 0.41649 0.0
C57 C 0.93426 0.86334 0.46032 0.0
C58 C 0.94737 0.89086 0.46242 0.0
H59 H 0.96824 0.83855 0.40071 0.0
H60 H 0.92151 0.85543 0.47853 0.0
H61 H 0.99749 0.78436 0.41912 0.0
H62 H 0.04456 0.81819 0.48894 0.0
H63 H 0.83639 0.81056 0.42318 0.0
H64 H 0.98884 0.88675 0.40115 0.0
H65 H 0.94378 0.90395 0.48174 0.0
C66 C 0.5685 0.74823 0.72781 0.0
C67 C 0.57436 0.77735 0.72329 0.0
N68 N 0.58852 0.78007 0.69771 0.0
N69 N 0.57998 0.73276 0.70566 0.0
C70 C 0.59152 0.75276 0.68757 0.0
H71 H 0.55882 0.73877 0.74712 0.0
Co72 Co 0.58386 0.69274 0.70303 0.0
C73 C 0.59499 0.68437 0.63912 0.0
O74 O 0.57179 0.66778 0.63652 0.0
N75 N 0.58895 0.65196 0.69981 0.0
C76 C 0.58729 0.60628 0.68322 0.0
C77 C 0.57104 0.63082 0.68971 0.0
C78 C 0.61567 0.63927 0.70008 0.0
N79 N 0.61533 0.61188 0.6898 0.0
O80 O 0.62182 0.69606 0.7223 0.0
H81 H 0.54817 0.63363 0.68484 0.0
H82 H 0.63577 0.6506 0.70474 0.0
O83 O 0.60161 0.69555 0.66394 0.0
C84 C 0.61746 0.69312 0.74966 0.0
O85 O 0.59065 0.68834 0.75853 0.0
N86 N 0.54527 0.69176 0.68865 0.0
C87 C 0.49027 0.71791 0.69155 0.0
C88 C 0.50838 0.72239 0.66735 0.0
C89 C 0.53606 0.7097 0.66661 0.0
C90 C 0.52642 0.68429 0.71046 0.0
C91 C 0.49888 0.6974 0.71253 0.0
H92 H 0.55125 0.71824 0.65084 0.0
H93 H 0.53431 0.67155 0.72867 0.0
H94 H 0.60537 0.7475 0.66924 0.0
H95 H 0.57152 0.79457 0.7391 0.0
H96 H 0.57928 0.58639 0.67336 0.0
H97 H 0.50302 0.73883 0.65123 0.0
H98 H 0.48577 0.69383 0.73185 0.0
C99 C 0.6416 0.31843 0.97782 0.0
C100 C 0.61248 0.32431 0.9733 0.0
N101 N 0.60977 0.33847 0.94772 0.0
N102 N 0.65708 0.32991 0.95566 0.0
C103 C 0.63709 0.34146 0.93758 0.0
H104 H 0.65105 0.30874 0.99712 0.0
Co105 Co 0.6971 0.33377 0.95302 0.0
C106 C 0.70552 0.34493 0.88912 0.0
O107 O 0.72213 0.32173 0.88652 0.0
N108 N 0.73788 0.33884 0.9498 0.0
C109 C 0.78358 0.33717 0.93323 0.0
C110 C 0.75904 0.32093 0.9397 0.0
C111 C 0.75056 0.36556 0.95008 0.0
N112 N 0.77796 0.36521 0.9398 0.0
O113 O 0.69375 0.37172 0.97232 0.0
H114 H 0.75625 0.29805 0.93484 0.0
H115 H 0.73921 0.38566 0.95473 0.0
O116 O 0.69431 0.35154 0.91394 0.0
C117 C 0.69669 0.36736 0.99968 0.0
O118 O 0.70147 0.34054 0.00853 0.0
N119 N 0.69809 0.29519 0.93863 0.0
C120 C 0.67194 0.24021 0.94148 0.0
C121 C 0.66749 0.25834 0.91729 0.0
C122 C 0.68018 0.28601 0.91657 0.0
C123 C 0.70554 0.27631 0.96041 0.0
C124 C 0.69243 0.24878 0.96247 0.0
H125 H 0.67165 0.30121 0.90081 0.0
H126 H 0.71826 0.28418 0.97864 0.0
H127 H 0.64235 0.35532 0.91925 0.0
H128 H 0.59525 0.32147 0.98912 0.0
H129 H 0.80349 0.32915 0.92337 0.0
H130 H 0.65107 0.253 0.90116 0.0
H131 H 0.69598 0.23566 0.98178 0.0
C132 C 0.07151 0.74812 0.41204 0.0
C133 C 0.06563 0.77725 0.41653 0.0
N134 N 0.05121 0.7799 0.44197 0.0
N135 N 0.05979 0.73262 0.43407 0.0
C136 C 0.04807 0.75259 0.45206 0.0
H137 H 0.08141 0.73868 0.39283 0.0
Co138 Co 0.05594 0.6926 0.4367 0.0
C139 C 0.0448 0.68419 0.50061 0.0
O140 O 0.06799 0.66757 0.50321 0.0
N141 N 0.05088 0.65183 0.43992 0.0
C142 C 0.05255 0.60614 0.45652 0.0
C143 C 0.06879 0.63067 0.45003 0.0
C144 C 0.02416 0.63915 0.43966 0.0
N145 N 0.0245 0.61176 0.44995 0.0
O146 O 0.018 0.69595 0.41741 0.0
H147 H 0.09167 0.63346 0.45488 0.0
H148 H 0.00406 0.6505 0.43501 0.0
O149 O 0.03818 0.69539 0.47579 0.0
C150 C 0.02237 0.6931 0.39004 0.0
O151 O 0.04921 0.6884 0.38118 0.0
N152 N 0.09453 0.69162 0.4511 0.0
C153 C 0.1495 0.7178 0.44826 0.0
C154 C 0.13135 0.72224 0.47245 0.0
C155 C 0.10369 0.70954 0.47315 0.0
C156 C 0.11342 0.68417 0.42932 0.0
C157 C 0.14094 0.6973 0.42728 0.0
H158 H 0.08848 0.71808 0.48891 0.0
H159 H 0.10556 0.67145 0.4111 0.0
H160 H 0.03405 0.74732 0.47026 0.0
H161 H 0.0687 0.79452 0.40081 0.0
H162 H 0.06056 0.58623 0.46639 0.0
H163 H 0.13667 0.73867 0.48857 0.0
H164 H 0.15407 0.69376 0.40797 0.0
C165 C 0.64158 0.82152 0.66216 0.0
C166 C 0.61245 0.81565 0.66667 0.0
N167 N 0.60981 0.80121 0.6921 0.0
N168 N 0.65709 0.80978 0.68417 0.0
C169 C 0.63712 0.79805 0.70216 0.0
H170 H 0.65102 0.83144 0.64296 0.0
Co171 Co 0.6971 0.80592 0.68678 0.0
C172 C 0.70548 0.79479 0.75069 0.0
O173 O 0.72206 0.818 0.7533 0.0
N174 N 0.73788 0.80085 0.68998 0.0
C175 C 0.78355 0.80251 0.70659 0.0
C176 C 0.75901 0.81875 0.70011 0.0
C177 C 0.75058 0.77413 0.6897 0.0
N178 N 0.77796 0.77447 0.7 0.0
O179 O 0.69378 0.76797 0.6675 0.0
H180 H 0.7562 0.84163 0.70499 0.0
H181 H 0.73925 0.75403 0.68503 0.0
O182 O 0.69431 0.78817 0.72587 0.0
C183 C 0.69664 0.77235 0.64014 0.0
O184 O 0.70132 0.79919 0.63127 0.0
N185 N 0.69806 0.84451 0.70116 0.0
C186 C 0.67186 0.89948 0.69826 0.0
C187 C 0.66739 0.88136 0.72246 0.0
C188 C 0.68011 0.8537 0.7232 0.0
C189 C 0.70553 0.86338 0.67937 0.0
C190 C 0.69238 0.8909 0.67729 0.0
H191 H 0.67157 0.8385 0.73897 0.0
H192 H 0.71828 0.8555 0.66115 0.0
H193 H 0.64239 0.78401 0.72035 0.0
H194 H 0.59518 0.81875 0.65097 0.0
H195 H 0.80344 0.81051 0.71648 0.0
H196 H 0.65094 0.8867 0.73857 0.0
H197 H 0.69595 0.90402 0.65797 0.0
C198 C 0.56832 0.39156 0.9122 0.0
C199 C 0.5742 0.36243 0.9167 0.0
N200 N 0.58863 0.35977 0.94212 0.0
N201 N 0.58004 0.40706 0.9342 0.0
C202 C 0.59177 0.38708 0.95219 0.0
H203 H 0.5584 0.401 0.893 0.0
Co204 Co 0.58387 0.44707 0.93682 0.0
C205 C 0.59494 0.45542 1.00074 0.0
O206 O 0.57172 0.472 0.00336 0.0
N207 N 0.58892 0.48785 0.94003 0.0
C208 C 0.58724 0.53352 0.95666 0.0
C209 C 0.57101 0.50898 0.95018 0.0
C210 C 0.61563 0.50054 0.93972 0.0
N211 N 0.61528 0.52792 0.95003 0.0
O212 O 0.62184 0.44374 0.91754 0.0
H213 H 0.54814 0.50617 0.95509 0.0
H214 H 0.63574 0.48922 0.93503 0.0
O215 O 0.60159 0.44427 0.97591 0.0
C216 C 0.61747 0.44662 0.89018 0.0
O217 O 0.59064 0.45132 0.88133 0.0
N218 N 0.54527 0.44804 0.9512 0.0
C219 C 0.49031 0.42186 0.94828 0.0
C220 C 0.50841 0.41738 0.97248 0.0
C221 C 0.53607 0.43008 0.97323 0.0
C222 C 0.52642 0.45553 0.92941 0.0
C223 C 0.49891 0.4424 0.92732 0.0
H224 H 0.55126 0.42153 0.98899 0.0
H225 H 0.53431 0.46829 0.91121 0.0
H226 H 0.60579 0.39235 0.97037 0.0
H227 H 0.57111 0.34516 0.901 0.0
H228 H 0.57922 0.5534 0.96656 0.0
H229 H 0.50306 0.40092 0.98858 0.0
H230 H 0.48581 0.44599 0.908 0.0
C231 C 0.99815 0.31835 0.16216 0.0
C232 C 0.02728 0.32421 0.16664 0.0
N233 N 0.02992 0.33862 0.19207 0.0
N234 N 0.98264 0.33006 0.18418 0.0
C235 C 1.00261 0.34176 0.20216 0.0
H236 H 0.98871 0.30845 0.14296 0.0
Co237 Co 0.94262 0.33392 0.18681 0.0
C238 C 0.93423 0.34503 0.25072 0.0
O239 O 0.91764 0.32183 0.25335 0.0
N240 N 0.90185 0.33899 0.19004 0.0
C241 C 0.85617 0.33734 0.20669 0.0
C242 C 0.88071 0.32109 0.20019 0.0
C243 C 0.88915 0.36571 0.18975 0.0
N244 N 0.86177 0.36538 0.20007 0.0
O245 O 0.94595 0.37188 0.16751 0.0
H246 H 0.88353 0.29822 0.20509 0.0
H247 H 0.90048 0.38581 0.18505 0.0
O248 O 0.94541 0.35166 0.22589 0.0
C249 C 0.94309 0.36751 0.14015 0.0
O250 O 0.9384 0.34068 0.1313 0.0
N251 N 0.94166 0.29533 0.20122 0.0
C252 C 0.96785 0.24035 0.19834 0.0
C253 C 0.97231 0.25847 0.22253 0.0
C254 C 0.9596 0.28613 0.22325 0.0
C255 C 0.9342 0.27647 0.17944 0.0
C256 C 0.94733 0.24894 0.17738 0.0
H257 H 0.96814 0.30133 0.23901 0.0
H258 H 0.92145 0.28435 0.16123 0.0
H259 H 0.99733 0.35578 0.22036 0.0
H260 H 0.04454 0.32113 0.15092 0.0
H261 H 0.83629 0.32934 0.2166 0.0
H262 H 0.98876 0.25312 0.23864 0.0
H263 H 0.94377 0.23583 0.15807 0.0
C264 C 0.22774 0.07122 0.39159 0.0
C265 C 0.22323 0.06537 0.36247 0.0
N266 N 0.19765 0.05123 0.35976 0.0
N267 N 0.20558 0.05975 0.40707 0.0
C268 C 0.18751 0.04823 0.38708 0.0
H269 H 0.24704 0.0809 0.40104 0.0
Co270 Co 0.20293 0.05588 0.44709 0.0
C271 C 0.13902 0.04479 0.45549 0.0
O272 O 0.13641 0.06799 0.47208 0.0
N273 N 0.19969 0.05079 0.48787 0.0
C274 C 0.18307 0.05245 0.53356 0.0
C275 C 0.18957 0.0687 0.50901 0.0
C276 C 0.19996 0.02407 0.50057 0.0
N277 N 0.18965 0.02441 0.52795 0.0
O278 O 0.22221 0.01791 0.44376 0.0
H279 H 0.18469 0.09158 0.50621 0.0
H280 H 0.20463 0.00396 0.48923 0.0
O281 O 0.16385 0.03816 0.4443 0.0
C282 C 0.24957 0.02225 0.44671 0.0
O283 O 0.25843 0.04906 0.45148 0.0
N284 N 0.18855 0.09448 0.44807 0.0
C285 C 0.19147 0.14946 0.42189 0.0
C286 C 0.16726 0.13137 0.41744 0.0
C287 C 0.16652 0.1037 0.43014 0.0
C288 C 0.21035 0.11332 0.45552 0.0
C289 C 0.21243 0.14084 0.4424 0.0
H290 H 0.15074 0.08853 0.42162 0.0
H291 H 0.22856 0.10541 0.46826 0.0
H292 H 0.16917 0.03439 0.39234 0.0
H293 H 0.23904 0.06821 0.34524 0.0
H294 H 0.17318 0.06047 0.55345 0.0
H295 H 0.15115 0.13674 0.401 0.0
H296 H 0.23176 0.15394 0.44595 0.0
C297 C 0.31842 0.97781 0.64161 0.0
C298 C 0.32429 0.97329 0.61249 0.0
N299 N 0.33845 0.94771 0.60978 0.0
N300 N 0.3299 0.95566 0.65709 0.0
C301 C 0.34144 0.93757 0.6371 0.0
H302 H 0.30873 0.99712 0.65106 0.0
Co303 Co 0.33375 0.95302 0.69711 0.0
C304 C 0.34489 0.88911 0.70553 0.0
O305 O 0.32169 0.88652 0.72215 0.0
N306 N 0.33882 0.9498 0.73789 0.0
C307 C 0.33714 0.93323 0.7836 0.0
C308 C 0.32091 0.93971 0.75905 0.0
C309 C 0.36554 0.95005 0.75057 0.0
N310 N 0.36519 0.93978 0.77797 0.0
O311 O 0.37171 0.9723 0.69376 0.0
H312 H 0.29803 0.93486 0.75626 0.0
H313 H 0.38565 0.95469 0.73922 0.0
O314 O 0.35151 0.91393 0.69432 0.0
C315 C 0.36735 0.99966 0.69669 0.0
O316 O 0.34053 0.00853 0.70147 0.0
N317 N 0.29516 0.93863 0.6981 0.0
C318 C 0.24019 0.94151 0.67193 0.0
C319 C 0.25832 0.91731 0.6675 0.0
C320 C 0.28598 0.91658 0.6802 0.0
C321 C 0.27629 0.96043 0.70555 0.0
C322 C 0.24877 0.96249 0.69242 0.0
H323 H 0.30118 0.90081 0.67167 0.0
H324 H 0.28417 0.97865 0.71827 0.0
H325 H 0.35529 0.91924 0.64236 0.0
H326 H 0.32145 0.9891 0.59526 0.0
H327 H 0.32912 0.92337 0.80351 0.0
H328 H 0.25297 0.90118 0.65108 0.0
H329 H 0.23565 0.98182 0.69597 0.0
C330 C 0.41208 0.0685 0.89154 0.0
C331 C 0.41662 0.07437 0.86242 0.0
N332 N 0.44219 0.08853 0.85971 0.0
N333 N 0.43422 0.07999 0.90702 0.0
C334 C 0.45231 0.09153 0.88702 0.0
H335 H 0.39278 0.05881 0.901 0.0
Co336 Co 0.43685 0.08383 0.94704 0.0
C337 C 0.50077 0.09489 0.95539 0.0
O338 O 0.50338 0.07167 0.97198 0.0
N339 N 0.44007 0.08889 0.98782 0.0
C340 C 0.45667 0.0872 0.0335 0.0
C341 C 0.45019 0.07097 0.00896 0.0
C342 C 0.43979 0.11561 1.00051 0.0
N343 N 0.45008 0.11525 0.02789 0.0
O344 O 0.41758 0.12181 0.94371 0.0
H345 H 0.45507 0.0481 0.00615 0.0
H346 H 0.43511 0.13572 0.98918 0.0
O347 O 0.47595 0.10154 0.94423 0.0
C348 C 0.39022 0.11746 0.94665 0.0
O349 O 0.38136 0.09065 0.95143 0.0
N350 N 0.45121 0.04523 0.94802 0.0
C351 C 0.44825 0.99027 0.92186 0.0
C352 C 0.47247 0.00834 0.91738 0.0
C353 C 0.47324 0.036 0.93008 0.0
C354 C 0.4294 0.0264 0.95551 0.0
C355 C 0.4273 0.99889 0.94238 0.0
H356 H 0.48903 0.05117 0.92154 0.0
H357 H 0.4112 0.03431 0.96826 0.0
H358 H 0.47062 0.10538 0.89228 0.0
H359 H 0.40082 0.07152 0.8452 0.0
H360 H 0.46655 0.07917 0.05339 0.0
H361 H 0.48857 1.00297 0.90093 0.0
H362 H 0.40796 0.9858 0.94596 0.0
C363 C 0.32129 0.162 0.14155 0.0
C364 C 0.31543 0.16653 0.11243 0.0
N365 N 0.30127 0.19211 0.10972 0.0
N366 N 0.3098 0.18414 0.15703 0.0
C367 C 0.29827 0.20224 0.13703 0.0
H368 H 0.33098 0.14269 0.15101 0.0
Co369 Co 0.30593 0.18677 0.19705 0.0
C370 C 0.29482 0.25069 0.20542 0.0
O371 O 0.31802 0.25328 0.22202 0.0
N372 N 0.30085 0.18999 0.23783 0.0
C373 C 0.30251 0.20658 0.28351 0.0
C374 C 0.31876 0.2001 0.25897 0.0
C375 C 0.27413 0.18972 0.25053 0.0
N376 N 0.27447 0.20001 0.27791 0.0
O377 O 0.26797 0.16751 0.19373 0.0
H378 H 0.34163 0.20496 0.25616 0.0
H379 H 0.25403 0.18507 0.2392 0.0
O380 O 0.2882 0.22587 0.19425 0.0
C381 C 0.27232 0.14015 0.19668 0.0
O382 O 0.29914 0.13128 0.20145 0.0
N383 N 0.34452 0.20114 0.19802 0.0
C384 C 0.39951 0.19821 0.17184 0.0
C385 C 0.38141 0.22243 0.16738 0.0
C386 C 0.35374 0.22318 0.18008 0.0
C387 C 0.36337 0.17933 0.20548 0.0
C388 C 0.3909 0.17724 0.19235 0.0
H389 H 0.33856 0.23896 0.17155 0.0
H390 H 0.35548 0.16111 0.21823 0.0
H391 H 0.28441 0.22057 0.1423 0.0
H392 H 0.31828 0.15073 0.09521 0.0
H393 H 0.31052 0.21645 0.3034 0.0
H394 H 0.38677 0.23854 0.15093 0.0
H395 H 0.404 0.15791 0.19592 0.0
C396 C 0.22778 0.06852 0.24824 0.0
C397 C 0.22325 0.07437 0.27737 0.0
N398 N 0.19767 0.08853 0.28008 0.0
N399 N 0.20563 0.08001 0.23277 0.0
C400 C 0.18754 0.09154 0.25277 0.0
H401 H 0.24709 0.05883 0.23878 0.0
Co402 Co 0.203 0.08388 0.19275 0.0
C403 C 0.13909 0.09502 0.18438 0.0
O404 O 0.13649 0.07182 0.16779 0.0
N405 N 0.19978 0.08896 0.15197 0.0
C406 C 0.18319 0.0873 0.10629 0.0
C407 C 0.18967 0.07106 0.13083 0.0
C408 C 0.20005 0.11568 0.13927 0.0
N409 N 0.18977 0.11534 0.11189 0.0
O410 O 0.22228 0.12183 0.19607 0.0
H411 H 0.1848 0.04818 0.13364 0.0
H412 H 0.20471 0.13578 0.1506 0.0
O413 O 0.16391 0.10163 0.19556 0.0
C414 C 0.24964 0.11747 0.19312 0.0
O415 O 0.2585 0.09065 0.18834 0.0
N416 N 0.18862 0.04529 0.19178 0.0
C417 C 0.19153 0.9903 0.21796 0.0
C418 C 0.16732 0.00841 0.22242 0.0
C419 C 0.16658 0.03609 0.20972 0.0
C420 C 0.21042 0.02643 0.18432 0.0
C421 C 0.2125 0.9989 0.19744 0.0
H422 H 0.1508 0.05127 0.21825 0.0
H423 H 0.22864 0.03432 0.17157 0.0
H424 H 0.16921 0.10539 0.24751 0.0
H425 H 0.23906 0.07152 0.29459 0.0
H426 H 0.17332 0.07929 0.0864 0.0
H427 H 0.15121 0.00306 0.23886 0.0
H428 H 0.23183 0.98579 0.19387 0.0
C429 C 0.3212 0.97767 0.49825 0.0
C430 C 0.31533 0.97314 0.52737 0.0
N431 N 0.30118 0.94757 0.53009 0.0
N432 N 0.30972 0.95554 0.48278 0.0
C433 C 0.29818 0.93745 0.50278 0.0
H434 H 0.33089 0.99698 0.48879 0.0
Co435 Co 0.30587 0.95291 0.44275 0.0
C436 C 0.29478 0.88899 0.4344 0.0
O437 O 0.318 0.88637 0.41782 0.0
N438 N 0.30081 0.94969 0.40198 0.0
C439 C 0.30251 0.93309 0.3563 0.0
C440 C 0.31873 0.93956 0.38084 0.0
C441 C 0.2741 0.94998 0.38928 0.0
N442 N 0.27446 0.93969 0.3619 0.0
O443 O 0.2679 0.97219 0.44609 0.0
H444 H 0.34161 0.93467 0.38365 0.0
H445 H 0.25399 0.95466 0.40061 0.0
O446 O 0.28814 0.91382 0.44557 0.0
C447 C 0.27226 0.99955 0.44314 0.0
O448 O 0.29907 0.0084 0.43836 0.0
N449 N 0.34447 0.93852 0.44178 0.0
C450 C 0.39943 0.94146 0.46794 0.0
C451 C 0.38134 0.91725 0.47242 0.0
C452 C 0.35368 0.91649 0.45972 0.0
C453 C 0.3633 0.96033 0.4343 0.0
C454 C 0.39082 0.96242 0.44742 0.0
H455 H 0.33851 0.90071 0.46826 0.0
H456 H 0.3554 0.97854 0.42155 0.0
H457 H 0.28433 0.91913 0.49752 0.0
H458 H 0.31818 0.98894 0.5446 0.0
H459 H 0.31053 0.92321 0.33641 0.0
H460 H 0.38671 0.90114 0.48887 0.0
H461 H 0.40391 0.98175 0.44384 0.0
C462 C 0.41189 0.07127 0.74819 0.0
C463 C 0.41641 0.0654 0.77731 0.0
N464 N 0.44199 0.05125 0.78002 0.0
N465 N 0.43404 0.05979 0.73271 0.0
C466 C 0.45214 0.04826 0.7527 0.0
H467 H 0.39258 0.08095 0.73873 0.0
Co468 Co 0.43669 0.05593 0.69269 0.0
C469 C 0.50059 0.04477 0.68427 0.0
O470 O 0.50319 0.06797 0.66765 0.0
N471 N 0.43992 0.05086 0.65191 0.0
C472 C 0.45649 0.05254 0.60621 0.0
C473 C 0.45 0.06878 0.63075 0.0
C474 C 0.43966 0.02414 0.63923 0.0
N475 N 0.44993 0.02449 0.61183 0.0
O476 O 0.41739 0.01798 0.69604 0.0
H477 H 0.45485 0.09166 0.63354 0.0
H478 H 0.43502 0.00404 0.65058 0.0
O479 O 0.47577 0.03816 0.69548 0.0
C480 C 0.39003 0.02234 0.6931 0.0
O481 O 0.38117 0.04916 0.68831 0.0
N482 N 0.45109 0.09452 0.6917 0.0
C483 C 0.44824 0.14949 0.71786 0.0
C484 C 0.47243 0.13136 0.7223 0.0
C485 C 0.47314 0.10369 0.70961 0.0
C486 C 0.4293 0.11339 0.68426 0.0
C487 C 0.42725 0.14092 0.69737 0.0
H488 H 0.48891 0.08849 0.71813 0.0
H489 H 0.41107 0.10552 0.67154 0.0
H490 H 0.47047 0.03442 0.74744 0.0
H491 H 0.40059 0.06824 0.79454 0.0
H492 H 0.46634 0.06056 0.5863 0.0
H493 H 0.48856 0.1367 0.73872 0.0
H494 H 0.40793 0.15404 0.69383 0.0
C495 C 0.31858 0.162 0.99821 0.0
C496 C 0.32443 0.16651 0.02733 0.0
N497 N 0.33857 0.19209 0.03004 0.0
N498 N 0.33005 0.18416 0.98273 0.0
C499 C 0.34156 0.20224 1.00272 0.0
H500 H 0.30891 0.1427 0.98875 0.0
Co501 Co 0.33392 0.18681 0.9427 0.0
C502 C 0.34503 0.25072 0.93431 0.0
O503 O 0.32183 0.25334 0.91772 0.0
N504 N 0.339 0.19005 0.90193 0.0
C505 C 0.33734 0.20668 0.85624 0.0
C506 C 0.32109 0.20018 0.88079 0.0
C507 C 0.36572 0.18977 0.88923 0.0
N508 N 0.36538 0.20008 0.86184 0.0
O509 O 0.37188 0.16751 0.94603 0.0
H510 H 0.29822 0.20506 0.8836 0.0
H511 H 0.38582 0.18509 0.90056 0.0
O512 O 0.35166 0.22589 0.9455 0.0
C513 C 0.36753 0.14016 0.94309 0.0
O514 O 0.34072 0.13131 0.93831 0.0
N515 N 0.29533 0.20121 0.94173 0.0
C516 C 0.24034 0.19832 0.96791 0.0
C517 C 0.25844 0.22251 0.97236 0.0
C518 C 0.28611 0.22325 0.95966 0.0
C519 C 0.27648 0.17942 0.93428 0.0
C520 C 0.24895 0.17735 0.9474 0.0
H521 H 0.30129 0.23902 0.96819 0.0
H522 H 0.28437 0.1612 0.92154 0.0
H523 H 0.3554 0.22057 0.99746 0.0
H524 H 0.32159 0.1507 0.04455 0.0
H525 H 0.32933 0.21657 0.83635 0.0
H526 H 0.25308 0.23862 0.9888 0.0
H527 H 0.23585 0.15803 0.94385 0.0
C528 C 0.39164 0.22761 0.07142 0.0
C529 C 0.36251 0.22312 0.06557 0.0
N530 N 0.35985 0.19769 0.05117 0.0
N531 N 0.40714 0.20558 0.05972 0.0
C532 C 0.38716 0.18759 0.04803 0.0
H533 H 0.40108 0.24681 0.0813 0.0
Co534 Co 0.44715 0.20292 0.05586 0.0
C535 C 0.45553 0.13901 0.04475 0.0
O536 O 0.47212 0.13638 0.06795 0.0
N537 N 0.48793 0.19968 0.05078 0.0
C538 C 0.5336 0.18302 0.05243 0.0
C539 C 0.50906 0.18953 0.06868 0.0
C540 C 0.50062 0.19996 0.02405 0.0
N541 N 0.528 0.18964 0.02438 0.0
O542 O 0.44383 0.22222 0.01789 0.0
H543 H 0.50625 0.18464 0.09155 0.0
H544 H 0.48929 0.20466 0.00395 0.0
O545 O 0.44435 0.16384 0.03812 0.0
C546 C 0.4467 0.24958 0.02226 0.0
O547 O 0.45141 0.25843 0.04909 0.0
N548 N 0.44812 0.18852 0.09445 0.0
C549 C 0.42192 0.19142 0.14942 0.0
C550 C 0.41746 0.16723 0.13132 0.0
C551 C 0.43017 0.16649 0.10365 0.0
C552 C 0.45558 0.21031 0.11331 0.0
C553 C 0.44245 0.21238 0.14083 0.0
H554 H 0.42163 0.15074 0.08846 0.0
H555 H 0.46833 0.22851 0.10541 0.0
H556 H 0.39243 0.16938 0.03403 0.0
H557 H 0.34525 0.23885 0.06863 0.0
H558 H 0.55348 0.17312 0.06043 0.0
H559 H 0.40101 0.15113 0.13668 0.0
H560 H 0.44601 0.2317 0.15394 0.0
C561 C 0.89155 0.41208 0.06848 0.0
C562 C 0.86243 0.41661 0.07435 0.0
N563 N 0.85972 0.44218 0.08852 0.0
N564 N 0.90703 0.43421 0.07998 0.0
C565 C 0.88703 0.45229 0.09153 0.0
H566 H 0.90101 0.39278 0.05878 0.0
Co567 Co 0.94705 0.43683 0.08384 0.0
C568 C 0.95541 0.50075 0.0949 0.0
O569 O 0.972 0.50335 0.07169 0.0
N570 N 0.98782 0.44004 0.0889 0.0
C571 C 0.0335 0.45664 0.08722 0.0
C572 C 0.00897 0.45016 0.07099 0.0
C573 C 1.00051 0.43976 0.11562 0.0
N574 N 0.02789 0.45006 0.11527 0.0
O575 O 0.9437 0.41756 0.12181 0.0
H576 H 0.00617 0.45503 0.04811 0.0
H577 H 0.98917 0.43509 0.13573 0.0
O578 O 0.94424 0.47593 0.10155 0.0
C579 C 0.94665 0.3902 0.11746 0.0
O580 O 0.95143 0.38134 0.09064 0.0
N581 N 0.94804 0.4512 0.04523 0.0
C582 C 0.92187 0.44826 0.99027 0.0
C583 C 0.9174 0.47247 0.00835 0.0
C584 C 0.9301 0.47324 0.03601 0.0
C585 C 0.95551 0.42939 0.0264 0.0
C586 C 0.94239 0.42729 0.99889 0.0
H587 H 0.92156 0.48902 0.05118 0.0
H588 H 0.96826 0.41119 0.03431 0.0
H589 H 0.89229 0.4706 0.1054 0.0
H590 H 0.8452 0.40082 0.07148 0.0
H591 H 0.0534 0.46651 0.07919 0.0
H592 H 0.90095 0.48858 1.00298 0.0
H593 H 0.94597 0.40796 0.9858 0.0
C594 C 0.97782 0.64158 0.31844 0.0
C595 C 0.9733 0.61246 0.32431 0.0
N596 N 0.94772 0.60976 0.33847 0.0
N597 N 0.95567 0.65707 0.32992 0.0
C598 C 0.93758 0.63708 0.34146 0.0
H599 H 0.99713 0.65104 0.30875 0.0
Co600 Co 0.95304 0.69709 0.33378 0.0
C601 C 0.88914 0.70552 0.34494 0.0
O602 O 0.88654 0.72214 0.32174 0.0
N603 N 0.94982 0.73787 0.33885 0.0
C604 C 0.93326 0.78358 0.33717 0.0
C605 C 0.93974 0.75903 0.32093 0.0
C606 C 0.95007 0.75055 0.36557 0.0
N607 N 0.9398 0.77794 0.36522 0.0
O608 O 0.97233 0.69374 0.37173 0.0
H609 H 0.9349 0.75625 0.29805 0.0
H610 H 0.95472 0.7392 0.38568 0.0
O611 O 0.91396 0.69431 0.35155 0.0
C612 C 0.99969 0.69667 0.36736 0.0
O613 O 0.00855 0.70146 0.34054 0.0
N614 N 0.93864 0.69808 0.29519 0.0
C615 C 0.9415 0.67192 0.24022 0.0
C616 C 0.9173 0.66748 0.25835 0.0
C617 C 0.91658 0.68018 0.28601 0.0
C618 C 0.96043 0.70552 0.27632 0.0
C619 C 0.96249 0.6924 0.24879 0.0
H620 H 0.90081 0.67165 0.30122 0.0
H621 H 0.97866 0.71824 0.28419 0.0
H622 H 0.91925 0.64234 0.35531 0.0
H623 H 0.98911 0.59523 0.32147 0.0
H624 H 0.92343 0.80349 0.32915 0.0
H625 H 0.90118 0.65106 0.25301 0.0
H626 H 0.98181 0.69595 0.23567 0.0
C627 C 0.7482 0.72782 0.56849 0.0
C628 C 0.77732 0.72329 0.57434 0.0
N629 N 0.78004 0.69771 0.5885 0.0
N630 N 0.73273 0.70567 0.57998 0.0
C631 C 0.75273 0.68758 0.59151 0.0
H632 H 0.73874 0.74713 0.5588 0.0
Co633 Co 0.69271 0.70304 0.58386 0.0
C634 C 0.68433 0.63913 0.59499 0.0
O635 O 0.66773 0.63653 0.5718 0.0
N636 N 0.65193 0.69982 0.58895 0.0
C637 C 0.60625 0.68324 0.5873 0.0
C638 C 0.63079 0.68973 0.57105 0.0
C639 C 0.63924 0.70008 0.61568 0.0
N640 N 0.61186 0.68979 0.61535 0.0
O641 O 0.69604 0.72231 0.62181 0.0
H642 H 0.63359 0.68488 0.54817 0.0
H643 H 0.65058 0.70474 0.63578 0.0
O644 O 0.69552 0.66395 0.60161 0.0
C645 C 0.69309 0.74967 0.61745 0.0
O646 O 0.6883 0.75853 0.59064 0.0
N647 N 0.69173 0.68866 0.54527 0.0
C648 C 0.71791 0.69157 0.49028 0.0
C649 C 0.72236 0.66736 0.50839 0.0
C650 C 0.70966 0.66662 0.53606 0.0
C651 C 0.68427 0.71047 0.52641 0.0
C652 C 0.6974 0.71255 0.49889 0.0
H653 H 0.7182 0.65084 0.55125 0.0
H654 H 0.67153 0.72869 0.53431 0.0
H655 H 0.74747 0.66925 0.60537 0.0
H656 H 0.79454 0.7391 0.57148 0.0
H657 H 0.58635 0.67339 0.57929 0.0
H658 H 0.7388 0.65124 0.50303 0.0
H659 H 0.69383 0.73188 0.48578 0.0
C660 C 0.16213 0.99817 0.31836 0.0
C661 C 0.16662 0.0273 0.32422 0.0
N662 N 0.19205 0.02994 0.33863 0.0
N663 N 0.18416 0.98266 0.33007 0.0
C664 C 0.20214 1.00263 0.34176 0.0
H665 H 0.14293 0.98873 0.30848 0.0
Co666 Co 0.18679 0.94265 0.33393 0.0
C667 C 0.2507 0.93425 0.34504 0.0
O668 O 0.25333 0.91766 0.32184 0.0
N669 N 0.19002 0.90187 0.339 0.0
C670 C 0.20667 0.85619 0.33735 0.0
C671 C 0.20018 0.88074 0.3211 0.0
C672 C 0.18972 0.88917 0.36572 0.0
N673 N 0.20004 0.86179 0.36539 0.0
O674 O 0.1675 0.94598 0.37189 0.0
H675 H 0.20508 0.88355 0.29823 0.0
H676 H 0.18501 0.90049 0.38582 0.0
O677 O 0.22587 0.94544 0.35166 0.0
C678 C 0.14014 0.9431 0.36751 0.0
O679 O 0.13129 0.9384 0.34069 0.0
N680 N 0.2012 0.94168 0.29534 0.0
C681 C 0.19831 0.96788 0.24037 0.0
C682 C 0.2225 0.97234 0.25847 0.0
C683 C 0.22323 0.95962 0.28614 0.0
C684 C 0.17941 0.93422 0.27648 0.0
C685 C 0.17734 0.94736 0.24896 0.0
H686 H 0.23899 0.96815 0.30133 0.0
H687 H 0.1612 0.92147 0.28436 0.0
H688 H 0.22035 0.99736 0.35577 0.0
H689 H 0.1509 0.04457 0.32115 0.0
H690 H 0.21658 0.83631 0.32935 0.0
H691 H 0.2386 0.98878 0.25312 0.0
H692 H 0.15803 0.9438 0.23585 0.0
C693 C 0.24809 0.91204 0.57152 0.0
C694 C 0.27723 0.91652 0.56564 0.0
N695 N 0.27989 0.94197 0.55124 0.0
N696 N 0.2326 0.93408 0.55982 0.0
C697 C 0.25258 0.95207 0.54812 0.0
H698 H 0.23864 0.89283 0.5814 0.0
Co699 Co 0.19259 0.93672 0.55597 0.0
C700 C 0.1842 1.00063 0.54481 0.0
O701 O 0.16758 0.00325 0.56801 0.0
N702 N 0.15181 0.93996 0.55091 0.0
C703 C 0.10612 0.95657 0.55258 0.0
C704 C 0.13066 0.95007 0.56882 0.0
C705 C 0.13913 0.9397 0.52419 0.0
N706 N 0.11174 0.94999 0.52453 0.0
O707 O 0.19593 0.91743 0.51802 0.0
H708 H 0.13345 0.95493 0.59169 0.0
H709 H 0.15048 0.93504 0.50408 0.0
O710 O 0.19539 0.97581 0.5382 0.0
C711 C 0.19306 0.89007 0.5224 0.0
O712 O 0.18835 0.88121 0.54923 0.0
N713 N 0.19161 0.95113 0.59455 0.0
C714 C 0.21778 0.94827 0.64952 0.0
C715 C 0.22224 0.97245 0.63138 0.0
C716 C 0.20954 0.97317 0.60372 0.0
C717 C 0.18415 0.92935 0.61344 0.0
C718 C 0.19728 0.92729 0.64096 0.0
H719 H 0.21808 0.98892 0.58851 0.0
H720 H 0.17141 0.91113 0.60558 0.0
H721 H 0.24732 0.97029 0.53411 0.0
H722 H 0.29448 0.90079 0.5687 0.0
H723 H 0.08622 0.96644 0.56059 0.0
H724 H 0.23868 0.98857 0.63671 0.0
H725 H 0.19372 0.90798 0.65409 0.0
C726 C 0.97766 0.49824 0.32122 0.0
C727 C 0.97314 0.52736 0.31535 0.0
N728 N 0.94756 0.53008 0.3012 0.0
N729 N 0.95553 0.48276 0.30974 0.0
C730 C 0.93744 0.50276 0.29821 0.0
H731 H 0.99697 0.48878 0.33091 0.0
Co732 Co 0.9529 0.44274 0.3059 0.0
C733 C 0.88898 0.43439 0.29482 0.0
O734 O 0.88637 0.4178 0.31803 0.0
N735 N 0.94968 0.40197 0.30083 0.0
C736 C 0.93308 0.35629 0.30253 0.0
C737 C 0.93956 0.38082 0.31876 0.0
C738 C 0.94994 0.38928 0.27412 0.0
N739 N 0.93964 0.3619 0.27448 0.0
O740 O 0.97218 0.44608 0.26792 0.0
H741 H 0.9347 0.38362 0.34164 0.0
H742 H 0.95461 0.40062 0.25401 0.0
O743 O 0.9138 0.44556 0.28817 0.0
C744 C 0.99954 0.44313 0.27228 0.0
O745 O 0.00839 0.43835 0.29909 0.0
N746 N 0.93852 0.44176 0.34449 0.0
C747 C 0.94145 0.46791 0.39947 0.0
C748 C 0.91724 0.47239 0.38138 0.0
C749 C 0.91648 0.4597 0.35372 0.0
C750 C 0.96032 0.43428 0.36333 0.0
C751 C 0.96241 0.44739 0.39085 0.0
H752 H 0.9007 0.46825 0.33854 0.0
H753 H 0.97853 0.42153 0.35543 0.0
H754 H 0.91912 0.49751 0.28436 0.0
H755 H 0.98893 0.54458 0.31819 0.0
H756 H 0.92322 0.33639 0.31056 0.0
H757 H 0.90113 0.48884 0.38675 0.0
H758 H 0.98174 0.44381 0.40394 0.0
C759 C 0.66201 0.64158 0.82131 0.0
C760 C 0.66653 0.61246 0.81546 0.0
N761 N 0.69211 0.60975 0.80129 0.0
N762 N 0.68415 0.65706 0.80981 0.0
C763 C 0.70224 0.63706 0.79827 0.0
H764 H 0.6427 0.65104 0.83101 0.0
Co765 Co 0.68678 0.69708 0.80594 0.0
C766 C 0.75069 0.70545 0.7948 0.0
O767 O 0.75329 0.72205 0.818 0.0
N768 N 0.69 0.73785 0.80085 0.0
C769 C 0.70659 0.78354 0.80251 0.0
C770 C 0.70009 0.759 0.81876 0.0
C771 C 0.68975 0.75054 0.77413 0.0
N772 N 0.70005 0.77792 0.77446 0.0
O773 O 0.6675 0.69375 0.76798 0.0
H774 H 0.70493 0.7562 0.84164 0.0
H775 H 0.68511 0.73921 0.75402 0.0
O776 O 0.72587 0.69427 0.78819 0.0
C777 C 0.64014 0.69669 0.77234 0.0
O778 O 0.63128 0.70147 0.79916 0.0
N779 N 0.70116 0.69805 0.84452 0.0
C780 C 0.69825 0.67187 0.89951 0.0
C781 C 0.72246 0.66741 0.8814 0.0
C782 C 0.7232 0.68012 0.85373 0.0
C783 C 0.67935 0.70551 0.86338 0.0
C784 C 0.67728 0.69238 0.89091 0.0
H785 H 0.73898 0.67158 0.83854 0.0
H786 H 0.66114 0.71825 0.85549 0.0
H787 H 0.72056 0.64232 0.78441 0.0
H788 H 0.65074 0.59524 0.81833 0.0
H789 H 0.71644 0.80343 0.81052 0.0
H790 H 0.73858 0.65097 0.88676 0.0
H791 H 0.65795 0.69594 0.90402 0.0
C792 C 0.57119 0.89154 0.72778 0.0
C793 C 0.56532 0.86243 0.72327 0.0
N794 N 0.55118 0.85972 0.69769 0.0
N795 N 0.55972 0.90703 0.70562 0.0
C796 C 0.54819 0.88704 0.68754 0.0
H797 H 0.58086 0.901 0.74708 0.0
Co798 Co 0.55584 0.94705 0.70298 0.0
C799 C 0.54475 0.95545 0.63907 0.0
O800 O 0.56794 0.97205 0.63645 0.0
N801 N 0.55075 0.98783 0.69974 0.0
C802 C 0.5524 0.03351 0.68312 0.0
C803 C 0.56865 0.00897 0.68962 0.0
C804 C 0.52403 1.00052 0.70001 0.0
N805 N 0.52436 0.0279 0.6897 0.0
O806 O 0.51787 0.94371 0.72226 0.0
H807 H 0.59153 0.00617 0.68475 0.0
H808 H 0.50392 0.98919 0.70469 0.0
O809 O 0.53812 0.94426 0.66389 0.0
C810 C 0.52222 0.94666 0.74962 0.0
O811 O 0.54903 0.95144 0.75847 0.0
N812 N 0.59444 0.94803 0.68859 0.0
C813 C 0.64943 0.92189 0.69148 0.0
C814 C 0.63134 0.91742 0.66728 0.0
C815 C 0.60366 0.93011 0.66655 0.0
C816 C 0.61328 0.9555 0.71038 0.0
C817 C 0.64081 0.94239 0.71245 0.0
H818 H 0.58848 0.92158 0.65078 0.0
H819 H 0.60537 0.96823 0.7286 0.0
H820 H 0.53434 0.8923 0.66922 0.0
H821 H 0.56816 0.8452 0.73908 0.0
H822 H 0.56042 0.05341 0.67324 0.0
H823 H 0.63671 0.90099 0.65117 0.0
H824 H 0.65391 0.94595 0.73177 0.0
C825 C 0.49826 0.32122 0.97768 0.0
C826 C 0.52738 0.31535 0.97314 0.0
N827 N 0.53009 0.30118 0.94757 0.0
N828 N 0.48278 0.30974 0.95555 0.0
C829 C 0.50277 0.29819 0.93746 0.0
H830 H 0.4888 0.33092 0.99698 0.0
Co831 Co 0.44275 0.30589 0.95293 0.0
C832 C 0.43438 0.29482 0.88902 0.0
O833 O 0.41779 0.31804 0.88641 0.0
N834 N 0.40198 0.30083 0.94973 0.0
C835 C 0.35629 0.30252 0.93314 0.0
C836 C 0.38083 0.31875 0.93961 0.0
C837 C 0.38929 0.27412 0.95001 0.0
N838 N 0.36191 0.27447 0.93972 0.0
O839 O 0.44609 0.26792 0.97221 0.0
H840 H 0.38363 0.34163 0.93474 0.0
H841 H 0.40062 0.25401 0.95469 0.0
O842 O 0.44556 0.28818 0.91384 0.0
C843 C 0.44315 0.27227 0.99957 0.0
O844 O 0.43837 0.29909 0.00842 0.0
N845 N 0.44177 0.34449 0.93856 0.0
C846 C 0.46792 0.39946 0.94149 0.0
C847 C 0.4724 0.38138 0.91727 0.0
C848 C 0.4597 0.35371 0.91652 0.0
C849 C 0.43429 0.36333 0.96036 0.0
C850 C 0.4474 0.39085 0.96245 0.0
H851 H 0.46825 0.33854 0.90074 0.0
H852 H 0.42154 0.35542 0.97858 0.0
H853 H 0.49751 0.28433 0.91915 0.0
H854 H 0.54461 0.3182 0.98893 0.0
H855 H 0.3364 0.31055 0.92328 0.0
H856 H 0.48884 0.38675 0.90116 0.0
H857 H 0.44382 0.40394 0.98178 0.0
C858 C 0.06849 0.24826 0.2278 0.0
C859 C 0.07436 0.27737 0.22327 0.0
N860 N 0.08852 0.28008 0.19769 0.0
N861 N 0.07998 0.23277 0.20566 0.0
C862 C 0.09152 0.25277 0.18757 0.0
H863 H 0.0588 0.2388 0.24711 0.0
Co864 Co 0.08385 0.19275 0.20304 0.0
C865 C 0.09497 0.18436 0.13913 0.0
O866 O 0.07178 0.16777 0.13654 0.0
N867 N 0.08894 0.15197 0.19983 0.0
C868 C 0.08728 0.10629 0.18325 0.0
C869 C 0.07103 0.13083 0.18974 0.0
C870 C 0.11566 0.13928 0.20009 0.0
N871 N 0.11532 0.1119 0.1898 0.0
O872 O 0.12181 0.19608 0.22231 0.0
H873 H 0.04815 0.13363 0.18488 0.0
H874 H 0.13576 0.15061 0.20474 0.0
O875 O 0.10159 0.19555 0.16394 0.0
C876 C 0.11745 0.19313 0.24967 0.0
O877 O 0.09064 0.18836 0.25853 0.0
N878 N 0.04526 0.19178 0.18867 0.0
C879 C 0.99028 0.21794 0.19157 0.0
C880 C 0.00838 0.22241 0.16736 0.0
C881 C 0.03605 0.20971 0.16662 0.0
C882 C 0.02641 0.18432 0.21047 0.0
C883 C 0.99888 0.19744 0.21255 0.0
H884 H 0.05124 0.21824 0.15084 0.0
H885 H 0.0343 0.17158 0.22869 0.0
H886 H 0.10538 0.2475 0.16924 0.0
H887 H 0.07151 0.2946 0.23907 0.0
H888 H 0.07927 0.08639 0.1734 0.0
H889 H 0.00302 0.23884 0.15124 0.0
H890 H 0.98577 0.19387 0.23188 0.0
C891 C 0.14155 0.81846 0.47787 0.0
C892 C 0.11243 0.82434 0.47336 0.0
N893 N 0.10972 0.83849 0.44777 0.0
N894 N 0.15703 0.82993 0.45571 0.0
C895 C 0.13704 0.84147 0.43762 0.0
H896 H 0.151 0.80879 0.49719 0.0
Co897 Co 0.19705 0.83379 0.45307 0.0
C898 C 0.20548 0.84494 0.38917 0.0
O899 O 0.22211 0.82175 0.38658 0.0
N900 N 0.23783 0.83886 0.44985 0.0
C901 C 0.28354 0.83718 0.43329 0.0
C902 C 0.259 0.82094 0.43978 0.0
C903 C 0.25051 0.86558 0.4501 0.0
N904 N 0.2779 0.86523 0.43983 0.0
O905 O 0.1937 0.87174 0.47236 0.0
H906 H 0.25622 0.79806 0.43494 0.0
H907 H 0.23916 0.88569 0.45474 0.0
O908 O 0.19426 0.85155 0.41399 0.0
C909 C 0.19664 0.86738 0.49972 0.0
O910 O 0.20143 0.84056 0.50858 0.0
N911 N 0.19805 0.7952 0.43868 0.0
C912 C 0.17191 0.74022 0.44152 0.0
C913 C 0.16746 0.75835 0.41732 0.0
C914 C 0.18015 0.78602 0.41662 0.0
C915 C 0.20549 0.77632 0.46047 0.0
C916 C 0.19238 0.7488 0.46251 0.0
H917 H 0.17162 0.80122 0.40085 0.0
H918 H 0.2182 0.7842 0.4787 0.0
H919 H 0.1423 0.85531 0.41928 0.0
H920 H 0.09521 0.82152 0.48917 0.0
H921 H 0.30346 0.82916 0.42346 0.0
H922 H 0.15105 0.75301 0.40119 0.0
H923 H 0.19593 0.73567 0.48183 0.0
C924 C 0.57153 0.24812 0.91204 0.0
C925 C 0.56565 0.27724 0.91653 0.0
N926 N 0.55124 0.27989 0.94197 0.0
N927 N 0.55983 0.23261 0.93407 0.0
C928 C 0.54811 0.25258 0.95206 0.0
H929 H 0.58143 0.23867 0.89283 0.0
Co930 Co 0.55598 0.1926 0.9367 0.0
C931 C 0.54485 0.18418 1.00061 0.0
O932 O 0.56804 0.16755 0.0032 0.0
N933 N 0.55091 0.15182 0.93992 0.0
C934 C 0.55258 0.10612 0.95651 0.0
C935 C 0.56883 0.13066 0.95001 0.0
C936 C 0.52419 0.13915 0.93967 0.0
N937 N 0.52454 0.11176 0.94996 0.0
O938 O 0.51803 0.19595 0.91742 0.0
H939 H 0.59171 0.13344 0.95486 0.0
H940 H 0.50409 0.15049 0.93502 0.0
O941 O 0.53823 0.19539 0.97579 0.0
C942 C 0.52241 0.19308 0.89005 0.0
O943 O 0.54924 0.18837 0.88119 0.0
N944 N 0.59457 0.19161 0.95109 0.0
C945 C 0.64953 0.21779 0.94823 0.0
C946 C 0.6314 0.22223 0.97243 0.0
C947 C 0.60374 0.20953 0.97314 0.0
C948 C 0.61345 0.18416 0.92931 0.0
C949 C 0.64097 0.19729 0.92725 0.0
H950 H 0.58853 0.21807 0.9889 0.0
H951 H 0.60559 0.17143 0.91108 0.0
H952 H 0.53409 0.24731 0.97027 0.0
H953 H 0.56872 0.29451 0.9008 0.0
H954 H 0.5606 0.08621 0.96636 0.0
H955 H 0.63673 0.23866 0.98854 0.0
H956 H 0.6541 0.19374 0.90794 0.0
C957 C 0.14158 0.32152 0.16213 0.0
C958 C 0.11246 0.31565 0.16664 0.0
N959 N 0.10981 0.30122 0.19208 0.0
N960 N 0.15709 0.30979 0.18414 0.0
C961 C 0.13712 0.29807 0.20215 0.0
H962 H 0.15102 0.33143 0.14293 0.0
Co963 Co 0.19711 0.30593 0.18676 0.0
C964 C 0.20549 0.29482 0.25067 0.0
O965 O 0.22208 0.31802 0.25327 0.0
N966 N 0.23788 0.30086 0.18996 0.0
C967 C 0.28356 0.30251 0.20656 0.0
C968 C 0.25902 0.31876 0.20007 0.0
C969 C 0.25058 0.27413 0.18969 0.0
N970 N 0.27795 0.27446 0.2 0.0
O971 O 0.19378 0.26798 0.16749 0.0
H972 H 0.25622 0.34163 0.20494 0.0
H973 H 0.23925 0.25403 0.18502 0.0
O974 O 0.19431 0.28819 0.22585 0.0
C975 C 0.19665 0.27236 0.14012 0.0
O976 O 0.20135 0.29919 0.13126 0.0
N977 N 0.19807 0.34452 0.20113 0.0
C978 C 0.17186 0.39949 0.19822 0.0
C979 C 0.1674 0.38138 0.22243 0.0
C980 C 0.18012 0.35371 0.22317 0.0
C981 C 0.20553 0.36339 0.17933 0.0
C982 C 0.19239 0.39091 0.17725 0.0
H983 H 0.17158 0.33852 0.23894 0.0
H984 H 0.21828 0.3555 0.16112 0.0
H985 H 0.14239 0.28404 0.22034 0.0
H986 H 0.09519 0.31874 0.15094 0.0
H987 H 0.30345 0.31051 0.21643 0.0
H988 H 0.15095 0.38673 0.23854 0.0
H989 H 0.19595 0.40402 0.15793 0.0
C990 C 0.06828 0.89157 0.41222 0.0
C991 C 0.07416 0.86244 0.41674 0.0
N992 N 0.08858 0.85979 0.44216 0.0
N993 N 0.08 0.90708 0.43423 0.0
C994 C 0.09172 0.8871 0.45222 0.0
H995 H 0.05837 0.90102 0.39302 0.0
Co996 Co 0.08384 0.94709 0.43684 0.0
C997 C 0.0949 0.95545 0.50076 0.0
O998 O 0.07168 0.97204 0.50337 0.0
N999 N 0.08889 0.98787 0.44005 0.0
C1000 C 0.08721 0.03354 0.45666 0.0
C1001 C 0.07098 0.00901 0.45018 0.0
C1002 C 0.11561 1.00055 0.43976 0.0
N1003 N 0.11526 0.02793 0.45007 0.0
O1004 O 0.12181 0.94375 0.41757 0.0
H1005 H 0.0481 0.0062 0.45506 0.0
H1006 H 0.13571 0.98923 0.43507 0.0
O1007 O 0.10154 0.94428 0.47594 0.0
C1008 C 0.11744 0.94662 0.39021 0.0
O1009 O 0.09061 0.95133 0.38135 0.0
N1010 N 0.04524 0.94807 0.45121 0.0
C1011 C 0.99029 0.92188 0.44826 0.0
C1012 C 0.00837 0.9174 0.47248 0.0
C1013 C 0.03603 0.93012 0.47324 0.0
C1014 C 0.0264 0.95555 0.42941 0.0
C1015 C 0.99889 0.94241 0.42731 0.0
H1016 H 0.05121 0.92157 0.48901 0.0
H1017 H 0.0343 0.96831 0.4112 0.0
H1018 H 0.10575 0.89237 0.4704 0.0
H1019 H 0.07107 0.84517 0.40104 0.0
H1020 H 0.07919 0.05343 0.46654 0.0
H1021 H 0.00301 0.90094 0.48858 0.0
H1022 H 0.9858 0.94599 0.40798 0.0
C1023 C 0.49813 0.81829 0.66218 0.0
C1024 C 0.52726 0.82416 0.66668 0.0
N1025 N 0.52989 0.83859 0.6921 0.0
N1026 N 0.48262 0.83002 0.6842 0.0
C1027 C 0.50258 0.84173 0.70218 0.0
H1028 H 0.4887 0.80839 0.64299 0.0
Co1029 Co 0.4426 0.83387 0.68683 0.0
C1030 C 0.43419 0.84497 0.75073 0.0
O1031 O 0.4176 0.82176 0.75335 0.0
N1032 N 0.40182 0.83895 0.69005 0.0
C1033 C 0.35614 0.8373 0.70669 0.0
C1034 C 0.38068 0.82105 0.70019 0.0
C1035 C 0.38913 0.86567 0.68977 0.0
N1036 N 0.36176 0.86534 0.7001 0.0
O1037 O 0.44593 0.87183 0.66754 0.0
H1038 H 0.38349 0.79817 0.70507 0.0
H1039 H 0.40046 0.88577 0.68508 0.0
O1040 O 0.44538 0.8516 0.72591 0.0
C1041 C 0.44307 0.86747 0.64018 0.0
O1042 O 0.43838 0.84064 0.63133 0.0
N1043 N 0.44163 0.79528 0.70122 0.0
C1044 C 0.46784 0.74032 0.69833 0.0
C1045 C 0.47229 0.75842 0.72253 0.0
C1046 C 0.45957 0.78608 0.72326 0.0
C1047 C 0.43418 0.77642 0.67944 0.0
C1048 C 0.44733 0.7489 0.67737 0.0
H1049 H 0.4681 0.80127 0.73902 0.0
H1050 H 0.42144 0.78431 0.66123 0.0
H1051 H 0.4973 0.85576 0.72037 0.0
H1052 H 0.54453 0.82107 0.65096 0.0
H1053 H 0.33625 0.82929 0.71658 0.0
H1054 H 0.48874 0.75307 0.73863 0.0
H1055 H 0.44377 0.73579 0.65805 0.0
C1056 C 0.72777 0.57122 0.89159 0.0
C1057 C 0.72327 0.56537 0.86247 0.0
N1058 N 0.69769 0.55123 0.85976 0.0
N1059 N 0.70561 0.55975 0.90707 0.0
C1060 C 0.68754 0.54823 0.88707 0.0
H1061 H 0.74707 0.58089 0.90105 0.0
Co1062 Co 0.70296 0.55586 0.94709 0.0
C1063 C 0.63905 0.54477 0.95548 0.0
O1064 O 0.63643 0.56795 0.97209 0.0
N1065 N 0.69972 0.55077 0.98786 0.0
C1066 C 0.68309 0.55241 0.03355 0.0
C1067 C 0.68959 0.56867 0.00901 0.0
C1068 C 0.69999 0.52404 1.00055 0.0
N1069 N 0.68968 0.52437 0.02794 0.0
O1070 O 0.72224 0.51789 0.94375 0.0
H1071 H 0.68471 0.59155 0.00621 0.0
H1072 H 0.70467 0.50394 0.98922 0.0
O1073 O 0.66387 0.53814 0.94428 0.0
C1074 C 0.7496 0.52223 0.94669 0.0
O1075 O 0.75846 0.54904 0.95147 0.0
N1076 N 0.68857 0.59446 0.94807 0.0
C1077 C 0.69147 0.64944 0.92192 0.0
C1078 C 0.66727 0.63136 0.91746 0.0
C1079 C 0.66653 0.60368 0.93015 0.0
C1080 C 0.71037 0.6133 0.95554 0.0
C1081 C 0.71244 0.64083 0.94242 0.0
H1082 H 0.65076 0.58851 0.92162 0.0
H1083 H 0.72858 0.60539 0.96827 0.0
H1084 H 0.66921 0.53438 0.89233 0.0
H1085 H 0.73908 0.56821 0.84525 0.0
H1086 H 0.6732 0.56042 0.05344 0.0
H1087 H 0.65116 0.63673 0.90103 0.0
H1088 H 0.73176 0.65393 0.94598 0.0
C1089 C 0.81826 0.47773 0.14157 0.0
C1090 C 0.82415 0.47323 0.11244 0.0
N1091 N 0.83855 0.44778 0.1098 0.0
N1092 N 0.82995 0.45569 0.15708 0.0
C1093 C 0.84166 0.43769 0.13711 0.0
H1094 H 0.80838 0.49694 0.15101 0.0
Co1095 Co 0.83379 0.45306 0.1971 0.0
C1096 C 0.84492 0.38916 0.20553 0.0
O1097 O 0.82173 0.38656 0.22215 0.0
N1098 N 0.83885 0.44985 0.23788 0.0
C1099 C 0.83717 0.43327 0.28358 0.0
C1100 C 0.82093 0.43976 0.25904 0.0
C1101 C 0.86556 0.45011 0.25056 0.0
N1102 N 0.86522 0.43982 0.27795 0.0
O1103 O 0.87174 0.47235 0.19375 0.0
H1104 H 0.79805 0.4349 0.25625 0.0
H1105 H 0.88567 0.45476 0.23921 0.0
O1106 O 0.85154 0.41398 0.19432 0.0
C1107 C 0.86736 0.49971 0.19662 0.0
O1108 O 0.84053 0.50857 0.20133 0.0
N1109 N 0.7952 0.43867 0.19808 0.0
C1110 C 0.74023 0.44151 0.17191 0.0
C1111 C 0.75837 0.41732 0.16747 0.0
C1112 C 0.78604 0.41662 0.18016 0.0
C1113 C 0.77632 0.46045 0.20553 0.0
C1114 C 0.74879 0.4625 0.1924 0.0
H1115 H 0.80125 0.40086 0.17163 0.0
H1116 H 0.78418 0.47867 0.21825 0.0
H1117 H 0.85566 0.41947 0.14239 0.0
H1118 H 0.82111 0.48896 0.09518 0.0
H1119 H 0.82915 0.42341 0.30349 0.0
H1120 H 0.75304 0.4012 0.15104 0.0
H1121 H 0.73566 0.48181 0.19595 0.0
C1122 C 0.91218 0.56832 0.39155 0.0
C1123 C 0.91669 0.5742 0.36242 0.0
N1124 N 0.94211 0.58862 0.35977 0.0
N1125 N 0.93419 0.58003 0.40705 0.0
C1126 C 0.95218 0.59175 0.38708 0.0
H1127 H 0.89298 0.55841 0.401 0.0
Co1128 Co 0.93681 0.58386 0.44707 0.0
C1129 C 1.00073 0.59492 0.45542 0.0
O1130 O 0.00334 0.5717 0.47201 0.0
N1131 N 0.94002 0.58891 0.48784 0.0
C1132 C 0.95664 0.58723 0.53352 0.0
C1133 C 0.95016 0.571 0.50898 0.0
C1134 C 0.93973 0.61562 0.50054 0.0
N1135 N 0.95003 0.61527 0.52791 0.0
O1136 O 0.91754 0.62184 0.44373 0.0
H1137 H 0.95505 0.54812 0.50617 0.0
H1138 H 0.93504 0.63573 0.48921 0.0
O1139 O 0.97591 0.60157 0.44426 0.0
C1140 C 0.89017 0.61747 0.4466 0.0
O1141 O 0.88131 0.59065 0.4513 0.0
N1142 N 0.95118 0.54526 0.44804 0.0
C1143 C 0.94824 0.49031 0.42187 0.0
C1144 C 0.97245 0.50839 0.41738 0.0
C1145 C 0.97321 0.53605 0.43009 0.0
C1146 C 0.92938 0.52642 0.45553 0.0
C1147 C 0.92729 0.4989 0.4424 0.0
H1148 H 0.98898 0.55123 0.42154 0.0
H1149 H 0.91118 0.53432 0.46829 0.0
H1150 H 0.97037 0.60576 0.39234 0.0
H1151 H 0.90098 0.57113 0.34516 0.0
H1152 H 0.96653 0.57921 0.5534 0.0
H1153 H 0.98855 0.50303 0.40093 0.0
H1154 H 0.90796 0.48581 0.44598 0.0
C1155 C 0.82148 0.66214 0.64155 0.0
C1156 C 0.8156 0.66665 0.61242 0.0
N1157 N 0.80119 0.69209 0.60978 0.0
N1158 N 0.80977 0.68416 0.65706 0.0
C1159 C 0.79806 0.70217 0.63709 0.0
H1160 H 0.83138 0.64293 0.65099 0.0
Co1161 Co 0.80592 0.68678 0.69708 0.0
C1162 C 0.79481 0.75069 0.70546 0.0
O1163 O 0.81801 0.75329 0.72205 0.0
N1164 N 0.80085 0.68998 0.73786 0.0
C1165 C 0.8025 0.70659 0.78354 0.0
C1166 C 0.81875 0.7001 0.75899 0.0
C1167 C 0.77413 0.68971 0.75056 0.0
N1168 N 0.77446 0.70002 0.77793 0.0
O1169 O 0.76796 0.66751 0.69376 0.0
H1170 H 0.84163 0.70496 0.75618 0.0
H1171 H 0.75402 0.68504 0.73923 0.0
O1172 O 0.78819 0.72587 0.69428 0.0
C1173 C 0.77234 0.64015 0.69664 0.0
O1174 O 0.79917 0.63128 0.70134 0.0
N1175 N 0.84451 0.70115 0.69804 0.0
C1176 C 0.89949 0.69824 0.67185 0.0
C1177 C 0.88137 0.72244 0.66738 0.0
C1178 C 0.8537 0.72319 0.68009 0.0
C1179 C 0.86337 0.67935 0.70551 0.0
C1180 C 0.8909 0.67727 0.69237 0.0
H1181 H 0.83851 0.73895 0.67155 0.0
H1182 H 0.85549 0.66114 0.71826 0.0
H1183 H 0.78404 0.72037 0.64237 0.0
H1184 H 0.81867 0.65094 0.59516 0.0
H1185 H 0.81051 0.71646 0.80343 0.0
H1186 H 0.88672 0.73855 0.65093 0.0
H1187 H 0.90401 0.65795 0.69594 0.0
C1188 C 0.72768 0.56834 0.74822 0.0
C1189 C 0.72318 0.57421 0.77735 0.0
N1190 N 0.69773 0.5886 0.78001 0.0
N1191 N 0.70565 0.58003 0.73273 0.0
C1192 C 0.68764 0.59173 0.7527 0.0
H1193 H 0.7469 0.55846 0.73877 0.0
Co1194 Co 0.70302 0.58389 0.69271 0.0
C1195 C 0.63911 0.59502 0.68435 0.0
O1196 O 0.6365 0.57182 0.66776 0.0
N1197 N 0.6998 0.58897 0.65193 0.0
C1198 C 0.68319 0.58732 0.60626 0.0
C1199 C 0.68968 0.57107 0.6308 0.0
C1200 C 0.70007 0.61569 0.63924 0.0
N1201 N 0.68976 0.61536 0.61186 0.0
O1202 O 0.72229 0.62184 0.69602 0.0
H1203 H 0.68482 0.54819 0.6336 0.0
H1204 H 0.70474 0.63579 0.65056 0.0
O1205 O 0.66393 0.60164 0.69552 0.0
C1206 C 0.74966 0.61746 0.69313 0.0
O1207 O 0.75851 0.59063 0.68841 0.0
N1208 N 0.68864 0.5453 0.69175 0.0
C1209 C 0.69154 0.49032 0.71793 0.0
C1210 C 0.66735 0.50844 0.7224 0.0
C1211 C 0.66661 0.53611 0.7097 0.0
C1212 C 0.71043 0.52644 0.68427 0.0
C1213 C 0.71251 0.49891 0.6974 0.0
H1214 H 0.65084 0.5513 0.71825 0.0
H1215 H 0.72864 0.53432 0.67152 0.0
H1216 H 0.66942 0.60573 0.74744 0.0
H1217 H 0.7389 0.57116 0.79461 0.0
H1218 H 0.67332 0.57931 0.58637 0.0
H1219 H 0.65124 0.50309 0.73886 0.0
H1220 H 0.73183 0.48579 0.69383 0.0
C1221 C 0.82124 0.47767 0.99819 0.0
C1222 C 0.81537 0.47314 0.02732 0.0
N1223 N 0.80122 0.44757 0.03004 0.0
N1224 N 0.80976 0.45553 0.98272 0.0
C1225 C 0.79822 0.43744 1.00272 0.0
H1226 H 0.83093 0.49697 0.98873 0.0
Co1227 Co 0.8059 0.4529 0.9427 0.0
C1228 C 0.79482 0.38898 0.93435 0.0
O1229 O 0.81803 0.38637 0.91776 0.0
N1230 N 0.80084 0.44968 0.90193 0.0
C1231 C 0.80253 0.43308 0.85625 0.0
C1232 C 0.81876 0.43955 0.88079 0.0
C1233 C 0.77413 0.44997 0.88924 0.0
N1234 N 0.77448 0.43968 0.86185 0.0
O1235 O 0.76794 0.47218 0.94604 0.0
H1236 H 0.84163 0.43466 0.88359 0.0
H1237 H 0.75402 0.45465 0.90057 0.0
O1238 O 0.78818 0.41381 0.94552 0.0
C1239 C 0.77229 0.49954 0.9431 0.0
O1240 O 0.7991 0.50839 0.93831 0.0
N1241 N 0.8445 0.43852 0.94172 0.0
C1242 C 0.89946 0.44146 0.96787 0.0
C1243 C 0.88139 0.41724 0.97236 0.0
C1244 C 0.85372 0.41648 0.95966 0.0
C1245 C 0.86334 0.46032 0.93423 0.0
C1246 C 0.89086 0.46242 0.94735 0.0
H1247 H 0.83855 0.4007 0.9682 0.0
H1248 H 0.85543 0.47853 0.92149 0.0
H1249 H 0.78437 0.41912 0.99747 0.0
H1250 H 0.81823 0.48894 0.04454 0.0
H1251 H 0.81055 0.4232 0.83636 0.0
H1252 H 0.88676 0.40114 0.9888 0.0
H1253 H 0.90394 0.48175 0.94377 0.0
C1254 C 0.91202 0.5715 0.24812 0.0
C1255 C 0.91651 0.56563 0.27725 0.0
N1256 N 0.94195 0.55123 0.27991 0.0
N1257 N 0.93406 0.5598 0.23262 0.0
C1258 C 0.95206 0.5481 0.2526 0.0
H1259 H 0.89281 0.58139 0.23867 0.0
Co1260 Co 0.9367 0.55596 0.1926 0.0
C1261 C 1.00061 0.5448 0.1842 0.0
O1262 O 0.00322 0.568 0.16758 0.0
N1263 N 0.93993 0.55089 0.15183 0.0
C1264 C 0.95653 0.55256 0.10613 0.0
C1265 C 0.95004 0.5688 0.13067 0.0
C1266 C 0.93968 0.52417 0.13915 0.0
N1267 N 0.94998 0.52451 0.11177 0.0
O1268 O 0.91741 0.51801 0.19595 0.0
H1269 H 0.95489 0.59168 0.13346 0.0
H1270 H 0.93502 0.50407 0.1505 0.0
O1271 O 0.97579 0.53819 0.1954 0.0
C1272 C 0.89005 0.52239 0.19307 0.0
O1273 O 0.88119 0.54923 0.18835 0.0
N1274 N 0.95111 0.59454 0.19162 0.0
C1275 C 0.94825 0.6495 0.21781 0.0
C1276 C 0.97244 0.63137 0.22226 0.0
C1277 C 0.97315 0.6037 0.20955 0.0
C1278 C 0.92933 0.61343 0.18417 0.0
C1279 C 0.92727 0.64095 0.1973 0.0
H1280 H 0.98891 0.58849 0.21809 0.0
H1281 H 0.91111 0.60557 0.17144 0.0
H1282 H 0.97027 0.5341 0.24733 0.0
H1283 H 0.90078 0.56868 0.29451 0.0
H1284 H 0.96639 0.56058 0.08623 0.0
H1285 H 0.98856 0.63669 0.23869 0.0
H1286 H 0.90796 0.65408 0.19375 0.0
C1287 C 0.81852 0.66203 0.49816 0.0
C1288 C 0.82437 0.66653 0.52728 0.0
N1289 N 0.83852 0.69211 0.52999 0.0
N1290 N 0.83001 0.68418 0.48268 0.0
C1291 C 0.84153 0.70225 0.50267 0.0
H1292 H 0.80884 0.64273 0.4887 0.0
Co1293 Co 0.83389 0.68683 0.44266 0.0
C1294 C 0.84501 0.75073 0.43426 0.0
O1295 O 0.82182 0.75335 0.41765 0.0
N1296 N 0.83898 0.69006 0.40188 0.0
C1297 C 0.83732 0.70668 0.35619 0.0
C1298 C 0.82107 0.70019 0.38073 0.0
C1299 C 0.8657 0.68979 0.38919 0.0
N1300 N 0.86537 0.7001 0.36181 0.0
O1301 O 0.87184 0.66753 0.44599 0.0
H1302 H 0.79819 0.70506 0.38353 0.0
H1303 H 0.8858 0.68511 0.40053 0.0
O1304 O 0.85163 0.72591 0.44546 0.0
C1305 C 0.86749 0.64017 0.44304 0.0
O1306 O 0.84068 0.63133 0.43825 0.0
N1307 N 0.7953 0.70123 0.44168 0.0
C1308 C 0.74032 0.69835 0.46786 0.0
C1309 C 0.75842 0.72255 0.47231 0.0
C1310 C 0.78609 0.72328 0.4596 0.0
C1311 C 0.77645 0.67944 0.43423 0.0
C1312 C 0.74892 0.67737 0.44736 0.0
H1313 H 0.80127 0.73905 0.46812 0.0
H1314 H 0.78434 0.66122 0.42149 0.0
H1315 H 0.85538 0.72058 0.49741 0.0
H1316 H 0.82152 0.65072 0.54451 0.0
H1317 H 0.82931 0.71656 0.33629 0.0
H1318 H 0.75305 0.73866 0.48874 0.0
H1319 H 0.73582 0.65805 0.4438 0.0
C1320 C 0.89157 0.72764 0.57139 0.0
C1321 C 0.86244 0.72315 0.56552 0.0
N1322 N 0.85979 0.69771 0.55114 0.0
N1323 N 0.90708 0.7056 0.5597 0.0
C1324 C 0.8871 0.6876 0.54802 0.0
H1325 H 0.90101 0.74685 0.58126 0.0
Co1326 Co 0.94709 0.70295 0.55584 0.0
C1327 C 0.95548 0.63904 0.54476 0.0
O1328 O 0.97208 0.63642 0.56796 0.0
N1329 N 0.98787 0.69971 0.55077 0.0
C1330 C 0.03354 0.68306 0.55242 0.0
C1331 C 0.00901 0.68957 0.56867 0.0
C1332 C 1.00056 0.69997 0.52404 0.0
N1333 N 0.02793 0.68963 0.52438 0.0
O1334 O 0.94377 0.72223 0.51788 0.0
H1335 H 0.0062 0.68471 0.59156 0.0
H1336 H 0.98923 0.70465 0.50394 0.0
O1337 O 0.9443 0.66386 0.53813 0.0
C1338 C 0.94664 0.7496 0.52224 0.0
O1339 O 0.95135 0.75845 0.54906 0.0
N1340 N 0.94806 0.68856 0.59444 0.0
C1341 C 0.9219 0.69146 0.64943 0.0
C1342 C 0.91742 0.66727 0.63133 0.0
C1343 C 0.93012 0.66653 0.60365 0.0
C1344 C 0.95553 0.71035 0.61329 0.0
C1345 C 0.94241 0.71242 0.64083 0.0
H1346 H 0.92158 0.65078 0.58847 0.0
H1347 H 0.96828 0.72855 0.6054 0.0
H1348 H 0.89238 0.66939 0.53402 0.0
H1349 H 0.84518 0.73888 0.56856 0.0
H1350 H 0.05343 0.67317 0.56044 0.0
H1351 H 0.90098 0.65116 0.63669 0.0
H1352 H 0.94598 0.73173 0.65393 0.0
C1353 C 0.39153 0.91217 0.56835 0.0
C1354 C 0.3624 0.91667 0.57423 0.0
N1355 N 0.35974 0.9421 0.58864 0.0
N1356 N 0.40703 0.93418 0.58006 0.0
C1357 C 0.38705 0.95218 0.59176 0.0
H1358 H 0.40098 0.89296 0.55846 0.0
Co1359 Co 0.44704 0.93681 0.58389 0.0
C1360 C 0.45539 1.00073 0.59498 0.0
O1361 O 0.47197 0.00335 0.57176 0.0
N1362 N 0.48782 0.94002 0.58895 0.0
C1363 C 0.53349 0.95664 0.58726 0.0
C1364 C 0.50895 0.95016 0.57103 0.0
C1365 C 0.50051 0.93973 0.61566 0.0
N1366 N 0.52788 0.95004 0.61531 0.0
O1367 O 0.44371 0.91752 0.62186 0.0
H1368 H 0.50615 0.95505 0.54815 0.0
H1369 H 0.48918 0.93504 0.63577 0.0
O1370 O 0.44423 0.9759 0.60162 0.0
C1371 C 0.44659 0.89016 0.61748 0.0
O1372 O 0.45131 0.88132 0.59065 0.0
N1373 N 0.44802 0.95119 0.54529 0.0
C1374 C 0.42183 0.94826 0.49035 0.0
C1375 C 0.41735 0.97246 0.50843 0.0
C1376 C 0.43006 0.97322 0.53609 0.0
C1377 C 0.4555 0.9294 0.52645 0.0
C1378 C 0.44237 0.9273 0.49894 0.0
H1379 H 0.42151 0.98899 0.55128 0.0
H1380 H 0.46826 0.91119 0.53434 0.0
H1381 H 0.39231 0.97038 0.60578 0.0
H1382 H 0.34514 0.90096 0.57116 0.0
H1383 H 0.55338 0.96652 0.57924 0.0
H1384 H 0.40089 0.98856 0.50308 0.0
H1385 H 0.44595 0.90798 0.48584 0.0
C1386 C 0.47773 0.1416 0.81827 0.0
C1387 C 0.47324 0.11247 0.82415 0.0
N1388 N 0.44779 0.10982 0.83855 0.0
N1389 N 0.45569 0.1571 0.82997 0.0
C1390 C 0.43769 0.13713 0.84167 0.0
H1391 H 0.49694 0.15104 0.80838 0.0
Co1392 Co 0.45306 0.19711 0.83381 0.0
C1393 C 0.38915 0.20553 0.84498 0.0
O1394 O 0.38655 0.22215 0.82178 0.0
N1395 N 0.44983 0.23789 0.83888 0.0
C1396 C 0.43324 0.28359 0.83721 0.0
C1397 C 0.43973 0.25905 0.82096 0.0
C1398 C 0.4501 0.25057 0.86559 0.0
N1399 N 0.4398 0.27796 0.86525 0.0
O1400 O 0.47236 0.19377 0.87176 0.0
H1401 H 0.43488 0.25626 0.79809 0.0
H1402 H 0.45476 0.23922 0.8857 0.0
O1403 O 0.41397 0.19432 0.85159 0.0
C1404 C 0.49972 0.19664 0.86737 0.0
O1405 O 0.50857 0.20136 0.84054 0.0
N1406 N 0.43865 0.19809 0.79523 0.0
C1407 C 0.44149 0.17191 0.74027 0.0
C1408 C 0.4173 0.16747 0.75841 0.0
C1409 C 0.41659 0.18017 0.78607 0.0
C1410 C 0.46042 0.20554 0.77634 0.0
C1411 C 0.46247 0.19241 0.74882 0.0
H1412 H 0.40084 0.17164 0.80129 0.0
H1413 H 0.47865 0.21827 0.7842 0.0
H1414 H 0.41948 0.14239 0.85568 0.0
H1415 H 0.48897 0.09521 0.82109 0.0
H1416 H 0.42339 0.3035 0.82919 0.0
H1417 H 0.40118 0.15103 0.75309 0.0
H1418 H 0.48178 0.19596 0.73569 0.0
C1419 C 0.2482 0.22767 0.0683 0.0
C1420 C 0.27733 0.22316 0.07417 0.0
N1421 N 0.27998 0.19772 0.08858 0.0
N1422 N 0.2327 0.20565 0.08002 0.0
C1423 C 0.25268 0.18764 0.09172 0.0
H1424 H 0.23875 0.24688 0.05841 0.0
Co1425 Co 0.19269 0.20303 0.08388 0.0
C1426 C 0.18432 0.13912 0.09502 0.0
O1427 O 0.16772 0.13651 0.07182 0.0
N1428 N 0.15191 0.19981 0.08896 0.0
C1429 C 0.10623 0.18321 0.08731 0.0
C1430 C 0.13077 0.1897 0.07106 0.0
C1431 C 0.13922 0.20009 0.11568 0.0
N1432 N 0.11184 0.18978 0.11535 0.0
O1433 O 0.19601 0.22231 0.12183 0.0
H1434 H 0.13358 0.18483 0.04819 0.0
H1435 H 0.15054 0.20476 0.13578 0.0
O1436 O 0.19549 0.16394 0.10163 0.0
C1437 C 0.19313 0.24967 0.11744 0.0
O1438 O 0.18842 0.25853 0.09061 0.0
N1439 N 0.19172 0.18864 0.0453 0.0
C1440 C 0.21792 0.19154 0.99033 0.0
C1441 C 0.22239 0.16734 0.00844 0.0
C1442 C 0.20967 0.1666 0.03611 0.0
C1443 C 0.18426 0.21043 0.02643 0.0
C1444 C 0.1974 0.21251 0.9989 0.0
H1445 H 0.21821 0.15083 0.0513 0.0
H1446 H 0.1715 0.22865 0.03431 0.0
H1447 H 0.24741 0.16944 0.10574 0.0
H1448 H 0.29459 0.23888 0.07109 0.0
H1449 H 0.08634 0.17334 0.07931 0.0
H1450 H 0.23884 0.15123 0.00309 0.0
H1451 H 0.19383 0.23183 0.98579 0.0
C1452 C 0.66216 0.49819 0.81835 0.0
C1453 C 0.66666 0.52731 0.82421 0.0
N1454 N 0.69209 0.52995 0.83861 0.0
N1455 N 0.68418 0.48267 0.83004 0.0
C1456 C 0.70218 0.50264 0.84174 0.0
H1457 H 0.64295 0.48875 0.80846 0.0
Co1458 Co 0.68682 0.44265 0.8339 0.0
C1459 C 0.75072 0.43425 0.845 0.0
O1460 O 0.75334 0.41766 0.8218 0.0
N1461 N 0.69004 0.40187 0.83897 0.0
C1462 C 0.70668 0.35619 0.83731 0.0
C1463 C 0.70018 0.38074 0.82106 0.0
C1464 C 0.68976 0.38918 0.86569 0.0
N1465 N 0.70009 0.3618 0.86535 0.0
O1466 O 0.66752 0.44598 0.87186 0.0
H1467 H 0.70506 0.38355 0.79818 0.0
H1468 H 0.68508 0.4005 0.88579 0.0
O1469 O 0.7259 0.44543 0.85163 0.0
C1470 C 0.64016 0.4431 0.86749 0.0
O1471 O 0.63132 0.4384 0.84066 0.0
N1472 N 0.70121 0.44169 0.7953 0.0
C1473 C 0.69832 0.46789 0.74034 0.0
C1474 C 0.72252 0.47235 0.75844 0.0
C1475 C 0.72325 0.45963 0.7861 0.0
C1476 C 0.67943 0.43424 0.77645 0.0
C1477 C 0.67736 0.44738 0.74892 0.0
H1478 H 0.73901 0.46816 0.80129 0.0
H1479 H 0.66122 0.42149 0.78433 0.0
H1480 H 0.72038 0.49736 0.85575 0.0
H1481 H 0.65093 0.54458 0.82115 0.0
H1482 H 0.71657 0.3363 0.82929 0.0
H1483 H 0.73862 0.48879 0.75309 0.0
H1484 H 0.65804 0.44382 0.73582 0.0
C1485 C 0.74816 0.41201 0.07147 0.0
C1486 C 0.77729 0.41651 0.06559 0.0
N1487 N 0.77994 0.44196 0.05119 0.0
N1488 N 0.73265 0.43405 0.05978 0.0
C1489 C 0.75263 0.45206 0.04808 0.0
H1490 H 0.73872 0.3928 0.08135 0.0
Co1491 Co 0.69264 0.43669 0.05594 0.0
C1492 C 0.68423 0.50059 0.04479 0.0
O1493 O 0.66761 0.5032 0.06798 0.0
N1494 N 0.65186 0.43992 0.05088 0.0
C1495 C 0.60617 0.45651 0.05256 0.0
C1496 C 0.6307 0.45 0.0688 0.0
C1497 C 0.63919 0.43968 0.02416 0.0
N1498 N 0.6118 0.44998 0.0245 0.0
O1499 O 0.69598 0.4174 0.01799 0.0
H1500 H 0.63349 0.45484 0.09168 0.0
H1501 H 0.65054 0.43504 0.00405 0.0
O1502 O 0.69543 0.47578 0.03817 0.0
C1503 C 0.69312 0.39004 0.02236 0.0
O1504 O 0.6884 0.38117 0.04919 0.0
N1505 N 0.69166 0.45109 0.09452 0.0
C1506 C 0.71782 0.44826 0.14949 0.0
C1507 C 0.72227 0.47244 0.13135 0.0
C1508 C 0.70958 0.47314 0.10369 0.0
C1509 C 0.68421 0.42931 0.11341 0.0
C1510 C 0.69733 0.42727 0.14093 0.0
H1511 H 0.71812 0.4889 0.08847 0.0
H1512 H 0.67148 0.41109 0.10555 0.0
H1513 H 0.74736 0.47028 0.03408 0.0
H1514 H 0.79455 0.40078 0.06863 0.0
H1515 H 0.58626 0.46635 0.06058 0.0
H1516 H 0.7387 0.48856 0.13668 0.0
H1517 H 0.69377 0.40796 0.15407 0.0
C1518 C 0.47754 0.99816 0.82144 0.0
C1519 C 0.47304 0.02729 0.81557 0.0
N1520 N 0.4476 0.02996 0.80117 0.0
N1521 N 0.45551 0.98267 0.80975 0.0
C1522 C 0.43752 1.00265 0.79804 0.0
H1523 H 0.49674 0.98871 0.83133 0.0
Co1524 Co 0.45288 0.94266 0.80591 0.0
C1525 C 0.38896 0.93433 0.79483 0.0
O1526 O 0.38634 0.91774 0.81805 0.0
N1527 N 0.44965 0.90189 0.80086 0.0
C1528 C 0.43302 0.85622 0.80254 0.0
C1529 C 0.43952 0.88075 0.81878 0.0
C1530 C 0.44993 0.8892 0.77414 0.0
N1531 N 0.43961 0.86183 0.7745 0.0
O1532 O 0.47216 0.94598 0.76794 0.0
H1533 H 0.43464 0.88355 0.84165 0.0
H1534 H 0.45462 0.90053 0.75403 0.0
O1535 O 0.41379 0.94548 0.78819 0.0
C1536 C 0.49952 0.94311 0.77231 0.0
O1537 O 0.50837 0.93839 0.79914 0.0
N1538 N 0.4385 0.94169 0.84451 0.0
C1539 C 0.44145 0.96787 0.89946 0.0
C1540 C 0.41724 0.97236 0.88137 0.0
C1541 C 0.41648 0.95965 0.85372 0.0
C1542 C 0.46029 0.9342 0.86335 0.0
C1543 C 0.4624 0.94733 0.89086 0.0
H1544 H 0.40071 0.9682 0.83853 0.0
H1545 H 0.47849 0.92143 0.85545 0.0
H1546 H 0.41931 0.9974 0.78404 0.0
H1547 H 0.48875 0.04455 0.81863 0.0
H1548 H 0.42314 0.83633 0.81057 0.0
H1549 H 0.40114 0.98882 0.88673 0.0
H1550 H 0.48172 0.94374 0.90396 0.0
C1551 C 0.16211 0.14161 0.32149 0.0
C1552 C 0.16661 0.11248 0.31563 0.0
N1553 N 0.19206 0.10981 0.30122 0.0
N1554 N 0.18415 0.1571 0.30978 0.0
C1555 C 0.20215 0.13712 0.29808 0.0
H1556 H 0.1429 0.15106 0.33138 0.0
Co1557 Co 0.18678 0.19712 0.30592 0.0
C1558 C 0.2507 0.20546 0.29478 0.0
O1559 O 0.2533 0.22206 0.31798 0.0
N1560 N 0.19001 0.23789 0.30084 0.0
C1561 C 0.20662 0.28356 0.30249 0.0
C1562 C 0.20012 0.25903 0.31874 0.0
C1563 C 0.18975 0.25058 0.27411 0.0
N1564 N 0.20006 0.27795 0.27444 0.0
O1565 O 0.1675 0.1938 0.26796 0.0
H1566 H 0.20498 0.25622 0.34162 0.0
H1567 H 0.18508 0.23925 0.25401 0.0
O1568 O 0.22587 0.1943 0.28816 0.0
C1569 C 0.14014 0.19668 0.27234 0.0
O1570 O 0.13128 0.20139 0.29918 0.0
N1571 N 0.20117 0.19807 0.3445 0.0
C1572 C 0.19825 0.17188 0.39947 0.0
C1573 C 0.22246 0.1674 0.38136 0.0
C1574 C 0.2232 0.18012 0.35369 0.0
C1575 C 0.17937 0.20554 0.36337 0.0
C1576 C 0.17729 0.19241 0.39089 0.0
H1577 H 0.23897 0.17157 0.3385 0.0
H1578 H 0.16116 0.2183 0.35549 0.0
H1579 H 0.22036 0.14238 0.28407 0.0
H1580 H 0.15089 0.09522 0.3187 0.0
H1581 H 0.21649 0.30345 0.3105 0.0
H1582 H 0.23856 0.15095 0.38671 0.0
H1583 H 0.15797 0.19598 0.40401 0.0
loop_
_geom_bond_atom_site_label_1
_geom_bond_atom_site_label_2
_geom_bond_distance
_geom_bond_site_symmetry_2
_ccdc_geom_bond_type
C0 C1 1.351 . S
C0 N3 1.368 . S
C0 H5 0.931 . S
C1 C0 1.351 . S
C1 N2 1.373 . S
C1 H29 0.930 . S
N2 C1 1.373 . S
N2 C4 1.340 . S
N3 C0 1.368 . S
N3 C4 1.321 . S
N3 Co6 2.135 . S
C4 N2 1.340 . S
C4 N3 1.321 . S
C4 H28 0.930 . S
H5 C0 0.931 . S
Co6 N3 2.135 . S
Co6 N9 2.121 . S
Co6 O14 2.055 . S
Co6 O17 2.039 . S
Co6 N20 2.140 . S
C7 O8 1.227 . S
C7 O17 1.265 . S
O8 C7 1.227 . S
N9 Co6 2.121 . S
N9 C11 1.375 . S
N9 C12 1.313 . S
C10 C11 1.338 . S
C10 N13 1.377 . S
C10 H30 0.930 . S
C11 N9 1.375 . S
C11 C10 1.338 . S
C11 H15 0.931 . S
C12 N9 1.313 . S
C12 N13 1.344 . S
C12 H16 0.930 . S
N13 C10 1.377 . S
N13 C12 1.344 . S
O14 Co6 2.055 . S
O14 C18 1.253 . S
H15 C11 0.931 . S
H16 C12 0.930 . S
O17 Co6 2.039 . S
O17 C7 1.265 . S
C18 O14 1.253 . S
C18 O19 1.227 . S
O19 C18 1.227 . S
N20 Co6 2.140 . S
N20 C23 1.346 . S
N20 C24 1.345 . S
C21 C22 1.387 . S
C21 C25 1.391 . S
C22 C21 1.387 . S
C22 C23 1.369 . S
C22 H31 0.929 . S
C23 N20 1.346 . S
C23 C22 1.369 . S
C23 H26 0.928 . S
C24 N20 1.345 . S
C24 C25 1.371 . S
C24 H27 0.931 . S
C25 C21 1.391 . S
C25 C24 1.371 . S
C25 H32 0.930 . S
H26 C23 0.928 . S
H27 C24 0.931 . S
H28 C4 0.930 . S
H29 C1 0.930 . S
H30 C10 0.930 . S
H31 C22 0.929 . S
H32 C25 0.930 . S
C33 C34 1.351 1_655 S
C33 N36 1.368 . S
C33 H38 0.931 . S
C34 C33 1.351 1_455 S
C34 N35 1.373 . S
C34 H62 0.930 . S
N35 C34 1.373 . S
N35 C37 1.322 1_455 S
N36 C33 1.368 . S
N36 C37 1.335 . S
N36 Co39 2.135 . S
C37 N35 1.322 1_655 S
C37 N36 1.335 . S
C37 H61 0.934 . S
H38 C33 0.931 . S
Co39 N36 2.135 . S
Co39 N42 2.121 . S
Co39 O47 2.055 . S
Co39 O50 2.039 . S
Co39 N53 2.140 . S
C40 O41 1.227 . S
C40 O50 1.265 . S
O41 C40 1.227 . S
N42 Co39 2.121 . S
N42 C44 1.375 . S
N42 C45 1.313 . S
C43 C44 1.338 . S
C43 N46 1.377 . S
C43 H63 0.930 . S
C44 N42 1.375 . S
C44 C43 1.338 . S
C44 H48 0.931 . S
C45 N42 1.313 . S
C45 N46 1.344 . S
C45 H49 0.930 . S
N46 C43 1.377 . S
N46 C45 1.344 . S
O47 Co39 2.055 . S
O47 C51 1.253 . S
H48 C44 0.931 . S
H49 C45 0.930 . S
O50 Co39 2.039 . S
O50 C40 1.265 . S
C51 O47 1.253 . S
C51 O52 1.227 . S
O52 C51 1.227 . S
N53 Co39 2.140 . S
N53 C56 1.346 . S
N53 C57 1.345 . S
C54 C55 1.387 . S
C54 C58 1.391 . S
C55 C54 1.387 . S
C55 C56 1.369 . S
C55 H64 0.929 . S
C56 N53 1.346 . S
C56 C55 1.369 . S
C56 H59 0.928 . S
C57 N53 1.345 . S
C57 C58 1.371 . S
C57 H60 0.931 . S
C58 C54 1.391 . S
C58 C57 1.371 . S
C58 H65 0.930 . S
H59 C56 0.928 . S
H60 C57 0.931 . S
H61 C37 0.934 . S
H62 C34 0.930 . S
H63 C43 0.930 . S
H64 C55 0.929 . S
H65 C58 0.930 . S
C66 C67 1.351 . S
C66 N69 1.368 . S
C66 H71 0.931 . S
C67 C66 1.351 . S
C67 N68 1.373 . S
C67 H95 0.930 . S
N68 C67 1.373 . S
N68 C70 1.340 . S
N69 C66 1.368 . S
N69 C70 1.321 . S
N69 Co72 2.135 . S
C70 N68 1.340 . S
C70 N69 1.321 . S
C70 H94 0.930 . S
H71 C66 0.931 . S
Co72 N69 2.135 . S
Co72 N75 2.121 . S
Co72 O80 2.055 . S
Co72 O83 2.039 . S
Co72 N86 2.140 . S
C73 O74 1.227 . S
C73 O83 1.265 . S
O74 C73 1.227 . S
N75 Co72 2.121 . S
N75 C77 1.375 . S
N75 C78 1.313 . S
C76 C77 1.338 . S
C76 N79 1.377 . S
C76 H96 0.930 . S
C77 N75 1.375 . S
C77 C76 1.338 . S
C77 H81 0.931 . S
C78 N75 1.313 . S
C78 N79 1.344 . S
C78 H82 0.930 . S
N79 C76 1.377 . S
N79 C78 1.344 . S
O80 Co72 2.055 . S
O80 C84 1.253 . S
H81 C77 0.931 . S
H82 C78 0.930 . S
O83 Co72 2.039 . S
O83 C73 1.265 . S
C84 O80 1.253 . S
C84 O85 1.227 . S
O85 C84 1.227 . S
N86 Co72 2.140 . S
N86 C89 1.346 . S
N86 C90 1.345 . S
C87 C88 1.387 . S
C87 C91 1.391 . S
C88 C87 1.387 . S
C88 C89 1.369 . S
C88 H97 0.929 . S
C89 N86 1.346 . S
C89 C88 1.369 . S
C89 H92 0.928 . S
C90 N86 1.345 . S
C90 C91 1.371 . S
C90 H93 0.931 . S
C91 C87 1.391 . S
C91 C90 1.371 . S
C91 H98 0.930 . S
H92 C89 0.928 . S
H93 C90 0.931 . S
H94 C70 0.930 . S
H95 C67 0.930 . S
H96 C76 0.930 . S
H97 C88 0.929 . S
H98 C91 0.930 . S
C99 C100 1.351 . S
C99 N102 1.368 . S
C99 H104 0.931 . S
C100 C99 1.351 . S
C100 N101 1.373 . S
C100 H128 0.930 . S
N101 C100 1.373 . S
N101 C103 1.340 . S
N102 C99 1.368 . S
N102 C103 1.321 . S
N102 Co105 2.135 . S
C103 N101 1.340 . S
C103 N102 1.321 . S
C103 H127 0.930 . S
H104 C99 0.931 . S
Co105 N102 2.135 . S
Co105 N108 2.121 . S
Co105 O113 2.055 . S
Co105 O116 2.039 . S
Co105 N119 2.140 . S
C106 O107 1.227 . S
C106 O116 1.265 . S
O107 C106 1.227 . S
N108 Co105 2.121 . S
N108 C110 1.375 . S
N108 C111 1.313 . S
C109 C110 1.338 . S
C109 N112 1.377 . S
C109 H129 0.930 . S
C110 N108 1.375 . S
C110 C109 1.338 . S
C110 H114 0.931 . S
C111 N108 1.313 . S
C111 N112 1.344 . S
C111 H115 0.930 . S
N112 C109 1.377 . S
N112 C111 1.344 . S
O113 Co105 2.055 . S
O113 C117 1.253 . S
H114 C110 0.931 . S
H115 C111 0.930 . S
O116 Co105 2.039 . S
O116 C106 1.265 . S
C117 O113 1.253 . S
C117 O118 1.227 . S
O118 C117 1.227 . S
N119 Co105 2.140 . S
N119 C122 1.346 . S
N119 C123 1.345 . S
C120 C121 1.387 . S
C120 C124 1.391 . S
C121 C120 1.387 . S
C121 C122 1.369 . S
C121 H130 0.929 . S
C122 N119 1.346 . S
C122 C121 1.369 . S
C122 H125 0.928 . S
C123 N119 1.345 . S
C123 C124 1.371 . S
C123 H126 0.931 . S
C124 C120 1.391 . S
C124 C123 1.371 . S
C124 H131 0.930 . S
H125 C122 0.928 . S
H126 C123 0.931 . S
H127 C103 0.930 . S
H128 C100 0.930 . S
H129 C109 0.930 . S
H130 C121 0.929 . S
H131 C124 0.930 . S
C132 C133 1.351 . S
C132 N135 1.368 . S
C132 H137 0.931 . S
C133 C132 1.351 . S
C133 N134 1.373 . S
C133 H161 0.930 . S
N134 C133 1.373 . S
N134 C136 1.340 . S
N135 C132 1.368 . S
N135 C136 1.321 . S
N135 Co138 2.135 . S
C136 N134 1.340 . S
C136 N135 1.321 . S
C136 H160 0.930 . S
H137 C132 0.931 . S
Co138 N135 2.135 . S
Co138 N141 2.121 . S
Co138 O146 2.055 . S
Co138 O149 2.039 . S
Co138 N152 2.140 . S
C139 O140 1.227 . S
C139 O149 1.265 . S
O140 C139 1.227 . S
N141 Co138 2.121 . S
N141 C143 1.375 . S
N141 C144 1.313 . S
C142 C143 1.338 . S
C142 N145 1.377 . S
C142 H162 0.930 . S
C143 N141 1.375 . S
C143 C142 1.338 . S
C143 H147 0.931 . S
C144 N141 1.313 . S
C144 N145 1.344 . S
C144 H148 0.930 . S
N145 C142 1.377 . S
N145 C144 1.344 . S
O146 Co138 2.055 . S
O146 C150 1.253 . S
H147 C143 0.931 . S
H148 C144 0.930 . S
O149 Co138 2.039 . S
O149 C139 1.265 . S
C150 O146 1.253 . S
C150 O151 1.227 . S
O151 C150 1.227 . S
N152 Co138 2.140 . S
N152 C155 1.346 . S
N152 C156 1.345 . S
C153 C154 1.387 . S
C153 C157 1.391 . S
C154 C153 1.387 . S
C154 C155 1.369 . S
C154 H163 0.929 . S
C155 N152 1.346 . S
C155 C154 1.369 . S
C155 H158 0.928 . S
C156 N152 1.345 . S
C156 C157 1.371 . S
C156 H159 0.931 . S
C157 C153 1.391 . S
C157 C156 1.371 . S
C157 H164 0.930 . S
H158 C155 0.928 . S
H159 C156 0.931 . S
H160 C136 0.930 . S
H161 C133 0.930 . S
H162 C142 0.930 . S
H163 C154 0.929 . S
H164 C157 0.930 . S
C165 C166 1.351 . S
C165 N168 1.368 . S
C165 H170 0.931 . S
C166 C165 1.351 . S
C166 N167 1.373 . S
C166 H194 0.930 . S
N167 C166 1.373 . S
N167 C169 1.340 . S
N168 C165 1.368 . S
N168 C169 1.321 . S
N168 Co171 2.135 . S
C169 N167 1.340 . S
C169 N168 1.321 . S
C169 H193 0.930 . S
H170 C165 0.931 . S
Co171 N168 2.135 . S
Co171 N174 2.121 . S
Co171 O179 2.055 . S
Co171 O182 2.039 . S
Co171 N185 2.140 . S
C172 O173 1.227 . S
C172 O182 1.265 . S
O173 C172 1.227 . S
N174 Co171 2.121 . S
N174 C176 1.375 . S
N174 C177 1.313 . S
C175 C176 1.338 . S
C175 N178 1.377 . S
C175 H195 0.930 . S
C176 N174 1.375 . S
C176 C175 1.338 . S
C176 H180 0.931 . S
C177 N174 1.313 . S
C177 N178 1.344 . S
C177 H181 0.930 . S
N178 C175 1.377 . S
N178 C177 1.344 . S
O179 Co171 2.055 . S
O179 C183 1.253 . S
H180 C176 0.931 . S
H181 C177 0.930 . S
O182 Co171 2.039 . S
O182 C172 1.265 . S
C183 O179 1.253 . S
C183 O184 1.227 . S
O184 C183 1.227 . S
N185 Co171 2.140 . S
N185 C188 1.346 . S
N185 C189 1.345 . S
C186 C187 1.387 . S
C186 C190 1.391 . S
C187 C186 1.387 . S
C187 C188 1.369 . S
C187 H196 0.929 . S
C188 N185 1.346 . S
C188 C187 1.369 . S
C188 H191 0.928 . S
C189 N185 1.345 . S
C189 C190 1.371 . S
C189 H192 0.931 . S
C190 C186 1.391 . S
C190 C189 1.371 . S
C190 H197 0.930 . S
H191 C188 0.928 . S
H192 C189 0.931 . S
H193 C169 0.930 . S
H194 C166 0.930 . S
H195 C175 0.930 . S
H196 C187 0.929 . S
H197 C190 0.930 . S
C198 C199 1.351 . S
C198 N201 1.368 . S
C198 H203 0.931 . S
C199 C198 1.351 . S
C199 N200 1.373 . S
C199 H227 0.930 . S
N200 C199 1.373 . S
N200 C202 1.340 . S
N201 C198 1.368 . S
N201 C202 1.321 . S
N201 Co204 2.135 . S
C202 N200 1.340 . S
C202 N201 1.321 . S
C202 H226 0.930 . S
H203 C198 0.931 . S
Co204 N201 2.135 . S
Co204 N207 2.121 . S
Co204 O212 2.055 . S
Co204 O215 2.039 . S
Co204 N218 2.140 . S
C205 O206 1.225 1_556 S
C205 O215 1.280 . S
O206 C205 1.225 1_554 S
N207 Co204 2.121 . S
N207 C209 1.375 . S
N207 C210 1.313 . S
C208 C209 1.338 . S
C208 N211 1.377 . S
C208 H228 0.930 . S
C209 N207 1.375 . S
C209 C208 1.338 . S
C209 H213 0.931 . S
C210 N207 1.313 . S
C210 N211 1.344 . S
C210 H214 0.930 . S
N211 C208 1.377 . S
N211 C210 1.344 . S
O212 Co204 2.055 . S
O212 C216 1.253 . S
H213 C209 0.931 . S
H214 C210 0.930 . S
O215 Co204 2.039 . S
O215 C205 1.280 . S
C216 O212 1.253 . S
C216 O217 1.227 . S
O217 C216 1.227 . S
N218 Co204 2.140 . S
N218 C221 1.346 . S
N218 C222 1.345 . S
C219 C220 1.387 . S
C219 C223 1.391 . S
C220 C219 1.387 . S
C220 C221 1.369 . S
C220 H229 0.929 . S
C221 N218 1.346 . S
C221 C220 1.369 . S
C221 H224 0.928 . S
C222 N218 1.345 . S
C222 C223 1.371 . S
C222 H225 0.931 . S
C223 C219 1.391 . S
C223 C222 1.371 . S
C223 H230 0.930 . S
H224 C221 0.928 . S
H225 C222 0.931 . S
H226 C202 0.930 . S
H227 C199 0.930 . S
H228 C208 0.930 . S
H229 C220 0.929 . S
H230 C223 0.930 . S
C231 C232 1.351 1_655 S
C231 N234 1.368 . S
C231 H236 0.931 . S
C232 C231 1.351 1_455 S
C232 N233 1.373 . S
C232 H260 0.930 . S
N233 C232 1.373 . S
N233 C235 1.321 1_455 S
N234 C231 1.368 . S
N234 C235 1.336 . S
N234 Co237 2.135 . S
C235 N233 1.321 1_655 S
C235 N234 1.336 . S
C235 H259 0.935 . S
H236 C231 0.931 . S
Co237 N234 2.135 . S
Co237 N240 2.121 . S
Co237 O245 2.055 . S
Co237 O248 2.039 . S
Co237 N251 2.140 . S
C238 O239 1.227 . S
C238 O248 1.265 . S
O239 C238 1.227 . S
N240 Co237 2.121 . S
N240 C242 1.375 . S
N240 C243 1.313 . S
C241 C242 1.338 . S
C241 N244 1.377 . S
C241 H261 0.930 . S
C242 N240 1.375 . S
C242 C241 1.338 . S
C242 H246 0.931 . S
C243 N240 1.313 . S
C243 N244 1.344 . S
C243 H247 0.930 . S
N244 C241 1.377 . S
N244 C243 1.344 . S
O245 Co237 2.055 . S
O245 C249 1.253 . S
H246 C242 0.931 . S
H247 C243 0.930 . S
O248 Co237 2.039 . S
O248 C238 1.265 . S
C249 O245 1.253 . S
C249 O250 1.227 . S
O250 C249 1.227 . S
N251 Co237 2.140 . S
N251 C254 1.346 . S
N251 C255 1.345 . S
C252 C253 1.387 . S
C252 C256 1.391 . S
C253 C252 1.387 . S
C253 C254 1.369 . S
C253 H262 0.929 . S
C254 N251 1.346 . S
C254 C253 1.369 . S
C254 H257 0.928 . S
C255 N251 1.345 . S
C255 C256 1.371 . S
C255 H258 0.931 . S
C256 C252 1.391 . S
C256 C255 1.371 . S
C256 H263 0.930 . S
H257 C254 0.928 . S
H258 C255 0.931 . S
H259 C235 0.935 . S
H260 C232 0.930 . S
H261 C241 0.930 . S
H262 C253 0.929 . S
H263 C256 0.930 . S
C264 C265 1.351 . S
C264 N267 1.368 . S
C264 H269 0.931 . S
C265 C264 1.351 . S
C265 N266 1.373 . S
C265 H293 0.930 . S
N266 C265 1.373 . S
N266 C268 1.340 . S
N267 C264 1.368 . S
N267 C268 1.321 . S
N267 Co270 2.135 . S
C268 N266 1.340 . S
C268 N267 1.321 . S
C268 H292 0.930 . S
H269 C264 0.931 . S
Co270 N267 2.135 . S
Co270 N273 2.121 . S
Co270 O278 2.055 . S
Co270 O281 2.039 . S
Co270 N284 2.140 . S
C271 O272 1.227 . S
C271 O281 1.265 . S
O272 C271 1.227 . S
N273 Co270 2.121 . S
N273 C275 1.375 . S
N273 C276 1.313 . S
C274 C275 1.338 . S
C274 N277 1.377 . S
C274 H294 0.930 . S
C275 N273 1.375 . S
C275 C274 1.338 . S
C275 H279 0.931 . S
C276 N273 1.313 . S
C276 N277 1.344 . S
C276 H280 0.930 . S
N277 C274 1.377 . S
N277 C276 1.344 . S
O278 Co270 2.055 . S
O278 C282 1.253 . S
H279 C275 0.931 . S
H280 C276 0.930 . S
O281 Co270 2.039 . S
O281 C271 1.265 . S
C282 O278 1.253 . S
C282 O283 1.227 . S
O283 C282 1.227 . S
N284 Co270 2.140 . S
N284 C287 1.346 . S
N284 C288 1.345 . S
C285 C286 1.387 . S
C285 C289 1.391 . S
C286 C285 1.387 . S
C286 C287 1.369 . S
C286 H295 0.929 . S
C287 N284 1.346 . S
C287 C286 1.369 . S
C287 H290 0.928 . S
C288 N284 1.345 . S
C288 C289 1.371 . S
C288 H291 0.931 . S
C289 C285 1.391 . S
C289 C288 1.371 . S
C289 H296 0.930 . S
H290 C287 0.928 . S
H291 C288 0.931 . S
H292 C268 0.930 . S
H293 C265 0.930 . S
H294 C274 0.930 . S
H295 C286 0.929 . S
H296 C289 0.930 . S
C297 C298 1.351 . S
C297 N300 1.368 . S
C297 H302 0.931 . S
C298 C297 1.351 . S
C298 N299 1.373 . S
C298 H326 0.930 . S
N299 C298 1.373 . S
N299 C301 1.340 . S
N300 C297 1.368 . S
N300 C301 1.321 . S
N300 Co303 2.135 . S
C301 N299 1.340 . S
C301 N300 1.321 . S
C301 H325 0.930 . S
H302 C297 0.931 . S
Co303 N300 2.135 . S
Co303 N306 2.121 . S
Co303 O311 2.055 . S
Co303 O314 2.039 . S
Co303 N317 2.140 . S
C304 O305 1.227 . S
C304 O314 1.265 . S
O305 C304 1.227 . S
N306 Co303 2.121 . S
N306 C308 1.375 . S
N306 C309 1.313 . S
C307 C308 1.338 . S
C307 N310 1.377 . S
C307 H327 0.930 . S
C308 N306 1.375 . S
C308 C307 1.338 . S
C308 H312 0.931 . S
C309 N306 1.313 . S
C309 N310 1.344 . S
C309 H313 0.930 . S
N310 C307 1.377 . S
N310 C309 1.344 . S
O311 Co303 2.055 . S
O311 C315 1.253 . S
H312 C308 0.931 . S
H313 C309 0.930 . S
O314 Co303 2.039 . S
O314 C304 1.265 . S
C315 O311 1.253 . S
C315 O316 1.227 . S
O316 C315 1.227 . S
N317 Co303 2.140 . S
N317 C320 1.346 . S
N317 C321 1.345 . S
C318 C319 1.387 . S
C318 C322 1.391 . S
C319 C318 1.387 . S
C319 C320 1.369 . S
C319 H328 0.929 . S
C320 N317 1.346 . S
C320 C319 1.369 . S
C320 H323 0.928 . S
C321 N317 1.345 . S
C321 C322 1.371 . S
C321 H324 0.931 . S
C322 C318 1.391 . S
C322 C321 1.371 . S
C322 H329 0.930 . S
H323 C320 0.928 . S
H324 C321 0.931 . S
H325 C301 0.930 . S
H326 C298 0.930 . S
H327 C307 0.930 . S
H328 C319 0.929 . S
H329 C322 0.930 . S
C330 C331 1.351 . S
C330 N333 1.368 . S
C330 H335 0.931 . S
C331 C330 1.351 . S
C331 N332 1.373 . S
C331 H359 0.930 . S
N332 C331 1.373 . S
N332 C334 1.340 . S
N333 C330 1.368 . S
N333 C334 1.321 . S
N333 Co336 2.135 . S
C334 N332 1.340 . S
C334 N333 1.321 . S
C334 H358 0.930 . S
H335 C330 0.931 . S
Co336 N333 2.135 . S
Co336 N339 2.121 . S
Co336 O344 2.055 . S
Co336 O347 2.039 . S
Co336 N350 2.140 . S
C337 O338 1.227 . S
C337 O347 1.265 . S
O338 C337 1.227 . S
N339 Co336 2.121 . S
N339 C341 1.375 1_556 S
N339 C342 1.313 1_556 S
C340 C341 1.338 . S
C340 N343 1.377 . S
C340 H360 0.930 . S
C341 N339 1.375 1_554 S
C341 C340 1.338 . S
C341 H345 0.931 1_554 S
C342 N339 1.313 1_554 S
C342 N343 1.344 . S
C342 H346 0.930 . S
N343 C340 1.377 . S
N343 C342 1.344 . S
O344 Co336 2.055 . S
O344 C348 1.253 . S
H345 C341 0.931 1_556 S
H346 C342 0.930 . S
O347 Co336 2.039 . S
O347 C337 1.265 . S
C348 O344 1.253 . S
C348 O349 1.227 . S
O349 C348 1.227 . S
N350 Co336 2.140 . S
N350 C353 1.346 . S
N350 C354 1.345 . S
C351 C352 1.387 1_565 S
C351 C355 1.391 . S
C352 C351 1.387 1_545 S
C352 C353 1.369 . S
C352 H361 0.929 . S
C353 N350 1.346 . S
C353 C352 1.369 . S
C353 H356 0.928 . S
C354 N350 1.345 . S
C354 C355 1.371 1_545 S
C354 H357 0.931 . S
C355 C351 1.391 . S
C355 C354 1.371 1_565 S
C355 H362 0.930 . S
H356 C353 0.928 . S
H357 C354 0.931 . S
H358 C334 0.930 . S
H359 C331 0.930 . S
H360 C340 0.930 . S
H361 C352 0.929 . S
H362 C355 0.930 . S
C363 C364 1.351 . S
C363 N366 1.368 . S
C363 H368 0.931 . S
C364 C363 1.351 . S
C364 N365 1.373 . S
C364 H392 0.930 . S
N365 C364 1.373 . S
N365 C367 1.340 . S
N366 C363 1.368 . S
N366 C367 1.321 . S
N366 Co369 2.135 . S
C367 N365 1.340 . S
C367 N366 1.321 . S
C367 H391 0.930 . S
H368 C363 0.931 . S
Co369 N366 2.135 . S
Co369 N372 2.121 . S
Co369 O377 2.055 . S
Co369 O380 2.039 . S
Co369 N383 2.140 . S
C370 O371 1.227 . S
C370 O380 1.265 . S
O371 C370 1.227 . S
N372 Co369 2.121 . S
N372 C374 1.375 . S
N372 C375 1.313 . S
C373 C374 1.338 . S
C373 N376 1.377 . S
C373 H393 0.930 . S
C374 N372 1.375 . S
C374 C373 1.338 . S
C374 H378 0.931 . S
C375 N372 1.313 . S
C375 N376 1.344 . S
C375 H379 0.930 . S
N376 C373 1.377 . S
N376 C375 1.344 . S
O377 Co369 2.055 . S
O377 C381 1.253 . S
H378 C374 0.931 . S
H379 C375 0.930 . S
O380 Co369 2.039 . S
O380 C370 1.265 . S
C381 O377 1.253 . S
C381 O382 1.227 . S
O382 C381 1.227 . S
N383 Co369 2.140 . S
N383 C386 1.346 . S
N383 C387 1.345 . S
C384 C385 1.387 . S
C384 C388 1.391 . S
C385 C384 1.387 . S
C385 C386 1.369 . S
C385 H394 0.929 . S
C386 N383 1.346 . S
C386 C385 1.369 . S
C386 H389 0.928 . S
C387 N383 1.345 . S
C387 C388 1.371 . S
C387 H390 0.931 . S
C388 C384 1.391 . S
C388 C387 1.371 . S
C388 H395 0.930 . S
H389 C386 0.928 . S
H390 C387 0.931 . S
H391 C367 0.930 . S
H392 C364 0.930 . S
H393 C373 0.930 . S
H394 C385 0.929 . S
H395 C388 0.930 . S
C396 C397 1.351 . S
C396 N399 1.368 . S
C396 H401 0.931 . S
C397 C396 1.351 . S
C397 N398 1.373 . S
C397 H425 0.930 . S
N398 C397 1.373 . S
N398 C400 1.340 . S
N399 C396 1.368 . S
N399 C400 1.321 . S
N399 Co402 2.135 . S
C400 N398 1.340 . S
C400 N399 1.321 . S
C400 H424 0.930 . S
H401 C396 0.931 . S
Co402 N399 2.135 . S
Co402 N405 2.121 . S
Co402 O410 2.055 . S
Co402 O413 2.039 . S
Co402 N416 2.140 . S
C403 O404 1.227 . S
C403 O413 1.265 . S
O404 C403 1.227 . S
N405 Co402 2.121 . S
N405 C407 1.375 . S
N405 C408 1.313 . S
C406 C407 1.338 . S
C406 N409 1.377 . S
C406 H426 0.930 . S
C407 N405 1.375 . S
C407 C406 1.338 . S
C407 H411 0.931 . S
C408 N405 1.313 . S
C408 N409 1.344 . S
C408 H412 0.930 . S
N409 C406 1.377 . S
N409 C408 1.344 . S
O410 Co402 2.055 . S
O410 C414 1.253 . S
H411 C407 0.931 . S
H412 C408 0.930 . S
O413 Co402 2.039 . S
O413 C403 1.265 . S
C414 O410 1.253 . S
C414 O415 1.227 . S
O415 C414 1.227 . S
N416 Co402 2.140 . S
N416 C419 1.346 . S
N416 C420 1.345 . S
C417 C418 1.387 1_565 S
C417 C421 1.391 . S
C418 C417 1.387 1_545 S
C418 C419 1.369 . S
C418 H427 0.929 . S
C419 N416 1.346 . S
C419 C418 1.369 . S
C419 H422 0.928 . S
C420 N416 1.345 . S
C420 C421 1.371 1_545 S
C420 H423 0.931 . S
C421 C417 1.391 . S
C421 C420 1.371 1_565 S
C421 H428 0.930 . S
H422 C419 0.928 . S
H423 C420 0.931 . S
H424 C400 0.930 . S
H425 C397 0.930 . S
H426 C406 0.930 . S
H427 C418 0.929 . S
H428 C421 0.930 . S
C429 C430 1.351 . S
C429 N432 1.368 . S
C429 H434 0.931 . S
C430 C429 1.351 . S
C430 N431 1.373 . S
C430 H458 0.930 . S
N431 C430 1.373 . S
N431 C433 1.340 . S
N432 C429 1.368 . S
N432 C433 1.321 . S
N432 Co435 2.135 . S
C433 N431 1.340 . S
C433 N432 1.321 . S
C433 H457 0.930 . S
H434 C429 0.931 . S
Co435 N432 2.135 . S
Co435 N438 2.121 . S
Co435 O443 2.055 . S
Co435 O446 2.039 . S
Co435 N449 2.140 . S
C436 O437 1.227 . S
C436 O446 1.265 . S
O437 C436 1.227 . S
N438 Co435 2.121 . S
N438 C440 1.375 . S
N438 C441 1.313 . S
C439 C440 1.338 . S
C439 N442 1.377 . S
C439 H459 0.930 . S
C440 N438 1.375 . S
C440 C439 1.338 . S
C440 H444 0.931 . S
C441 N438 1.313 . S
C441 N442 1.344 . S
C441 H445 0.930 . S
N442 C439 1.377 . S
N442 C441 1.344 . S
O443 Co435 2.055 . S
O443 C447 1.253 . S
H444 C440 0.931 . S
H445 C441 0.930 . S
O446 Co435 2.039 . S
O446 C436 1.265 . S
C447 O443 1.253 . S
C447 O448 1.227 . S
O448 C447 1.227 . S
N449 Co435 2.140 . S
N449 C452 1.346 . S
N449 C453 1.345 . S
C450 C451 1.387 . S
C450 C454 1.391 . S
C451 C450 1.387 . S
C451 C452 1.369 . S
C451 H460 0.929 . S
C452 N449 1.346 . S
C452 C451 1.369 . S
C452 H455 0.928 . S
C453 N449 1.345 . S
C453 C454 1.371 . S
C453 H456 0.931 . S
C454 C450 1.391 . S
C454 C453 1.371 . S
C454 H461 0.930 . S
H455 C452 0.928 . S
H456 C453 0.931 . S
H457 C433 0.930 . S
H458 C430 0.930 . S
H459 C439 0.930 . S
H460 C451 0.929 . S
H461 C454 0.930 . S
C462 C463 1.351 . S
C462 N465 1.368 . S
C462 H467 0.931 . S
C463 C462 1.351 . S
C463 N464 1.373 . S
C463 H491 0.930 . S
N464 C463 1.373 . S
N464 C466 1.340 . S
N465 C462 1.368 . S
N465 C466 1.321 . S
N465 Co468 2.135 . S
C466 N464 1.340 . S
C466 N465 1.321 . S
C466 H490 0.930 . S
H467 C462 0.931 . S
Co468 N465 2.135 . S
Co468 N471 2.121 . S
Co468 O476 2.055 . S
Co468 O479 2.039 . S
Co468 N482 2.140 . S
C469 O470 1.227 . S
C469 O479 1.265 . S
O470 C469 1.227 . S
N471 Co468 2.121 . S
N471 C473 1.375 . S
N471 C474 1.313 . S
C472 C473 1.338 . S
C472 N475 1.377 . S
C472 H492 0.930 . S
C473 N471 1.375 . S
C473 C472 1.338 . S
C473 H477 0.931 . S
C474 N471 1.313 . S
C474 N475 1.344 . S
C474 H478 0.930 . S
N475 C472 1.377 . S
N475 C474 1.344 . S
O476 Co468 2.055 . S
O476 C480 1.253 . S
H477 C473 0.931 . S
H478 C474 0.930 . S
O479 Co468 2.039 . S
O479 C469 1.265 . S
C480 O476 1.253 . S
C480 O481 1.227 . S
O481 C480 1.227 . S
N482 Co468 2.140 . S
N482 C485 1.346 . S
N482 C486 1.345 . S
C483 C484 1.387 . S
C483 C487 1.391 . S
C484 C483 1.387 . S
C484 C485 1.369 . S
C484 H493 0.929 . S
C485 N482 1.346 . S
C485 C484 1.369 . S
C485 H488 0.928 . S
C486 N482 1.345 . S
C486 C487 1.371 . S
C486 H489 0.931 . S
C487 C483 1.391 . S
C487 C486 1.371 . S
C487 H494 0.930 . S
H488 C485 0.928 . S
H489 C486 0.931 . S
H490 C466 0.930 . S
H491 C463 0.930 . S
H492 C472 0.930 . S
H493 C484 0.929 . S
H494 C487 0.930 . S
C495 C496 1.351 1_556 S
C495 N498 1.368 . S
C495 H500 0.931 . S
C496 C495 1.351 1_554 S
C496 N497 1.373 . S
C496 H524 0.930 . S
N497 C496 1.373 . S
N497 C499 1.321 1_554 S
N498 C495 1.368 . S
N498 C499 1.336 . S
N498 Co501 2.135 . S
C499 N497 1.321 1_556 S
C499 N498 1.336 . S
C499 H523 0.935 . S
H500 C495 0.931 . S
Co501 N498 2.135 . S
Co501 N504 2.121 . S
Co501 O509 2.055 . S
Co501 O512 2.039 . S
Co501 N515 2.140 . S
C502 O503 1.227 . S
C502 O512 1.265 . S
O503 C502 1.227 . S
N504 Co501 2.121 . S
N504 C506 1.375 . S
N504 C507 1.313 . S
C505 C506 1.338 . S
C505 N508 1.377 . S
C505 H525 0.930 . S
C506 N504 1.375 . S
C506 C505 1.338 . S
C506 H510 0.931 . S
C507 N504 1.313 . S
C507 N508 1.344 . S
C507 H511 0.930 . S
N508 C505 1.377 . S
N508 C507 1.344 . S
O509 Co501 2.055 . S
O509 C513 1.253 . S
H510 C506 0.931 . S
H511 C507 0.930 . S
O512 Co501 2.039 . S
O512 C502 1.265 . S
C513 O509 1.253 . S
C513 O514 1.227 . S
O514 C513 1.227 . S
N515 Co501 2.140 . S
N515 C518 1.346 . S
N515 C519 1.345 . S
C516 C517 1.387 . S
C516 C520 1.391 . S
C517 C516 1.387 . S
C517 C518 1.369 . S
C517 H526 0.929 . S
C518 N515 1.346 . S
C518 C517 1.369 . S
C518 H521 0.928 . S
C519 N515 1.345 . S
C519 C520 1.371 . S
C519 H522 0.931 . S
C520 C516 1.391 . S
C520 C519 1.371 . S
C520 H527 0.930 . S
H521 C518 0.928 . S
H522 C519 0.931 . S
H523 C499 0.935 . S
H524 C496 0.930 . S
H525 C505 0.930 . S
H526 C517 0.929 . S
H527 C520 0.930 . S
C528 C529 1.351 . S
C528 N531 1.368 . S
C528 H533 0.931 . S
C529 C528 1.351 . S
C529 N530 1.373 . S
C529 H557 0.930 . S
N530 C529 1.373 . S
N530 C532 1.340 . S
N531 C528 1.368 . S
N531 C532 1.321 . S
N531 Co534 2.135 . S
C532 N530 1.340 . S
C532 N531 1.321 . S
C532 H556 0.930 . S
H533 C528 0.931 . S
Co534 N531 2.135 . S
Co534 N537 2.121 . S
Co534 O542 2.055 . S
Co534 O545 2.039 . S
Co534 N548 2.140 . S
C535 O536 1.227 . S
C535 O545 1.265 . S
O536 C535 1.227 . S
N537 Co534 2.121 . S
N537 C539 1.375 . S
N537 C540 1.313 . S
C538 C539 1.338 . S
C538 N541 1.377 . S
C538 H558 0.930 . S
C539 N537 1.375 . S
C539 C538 1.338 . S
C539 H543 0.931 . S
C540 N537 1.313 . S
C540 N541 1.344 . S
C540 H544 0.930 . S
N541 C538 1.377 . S
N541 C540 1.344 . S
O542 Co534 2.055 . S
O542 C546 1.253 . S
H543 C539 0.931 . S
H544 C540 0.930 . S
O545 Co534 2.039 . S
O545 C535 1.265 . S
C546 O542 1.253 . S
C546 O547 1.227 . S
O547 C546 1.227 . S
N548 Co534 2.140 . S
N548 C551 1.346 . S
N548 C552 1.345 . S
C549 C550 1.387 . S
C549 C553 1.391 . S
C550 C549 1.387 . S
C550 C551 1.369 . S
C550 H559 0.929 . S
C551 N548 1.346 . S
C551 C550 1.369 . S
C551 H554 0.928 . S
C552 N548 1.345 . S
C552 C553 1.371 . S
C552 H555 0.931 . S
C553 C549 1.391 . S
C553 C552 1.371 . S
C553 H560 0.930 . S
H554 C551 0.928 . S
H555 C552 0.931 . S
H556 C532 0.930 . S
H557 C529 0.930 . S
H558 C538 0.930 . S
H559 C550 0.929 . S
H560 C553 0.930 . S
C561 C562 1.351 . S
C561 N564 1.368 . S
C561 H566 0.931 . S
C562 C561 1.351 . S
C562 N563 1.373 . S
C562 H590 0.930 . S
N563 C562 1.373 . S
N563 C565 1.340 . S
N564 C561 1.368 . S
N564 C565 1.321 . S
N564 Co567 2.135 . S
C565 N563 1.340 . S
C565 N564 1.321 . S
C565 H589 0.930 . S
H566 C561 0.931 . S
Co567 N564 2.135 . S
Co567 N570 2.121 . S
Co567 O575 2.055 . S
Co567 O578 2.039 . S
Co567 N581 2.140 . S
C568 O569 1.227 . S
C568 O578 1.265 . S
O569 C568 1.227 . S
N570 Co567 2.121 . S
N570 C572 1.375 1_655 S
N570 C573 1.313 1_655 S
C571 C572 1.338 . S
C571 N574 1.377 . S
C571 H591 0.930 . S
C572 N570 1.375 1_455 S
C572 C571 1.338 . S
C572 H576 0.931 1_455 S
C573 N570 1.313 1_455 S
C573 N574 1.344 . S
C573 H577 0.930 . S
N574 C571 1.377 . S
N574 C573 1.344 . S
O575 Co567 2.055 . S
O575 C579 1.253 . S
H576 C572 0.931 1_655 S
H577 C573 0.930 . S
O578 Co567 2.039 . S
O578 C568 1.265 . S
C579 O575 1.253 . S
C579 O580 1.227 . S
O580 C579 1.227 . S
N581 Co567 2.140 . S
N581 C584 1.346 . S
N581 C585 1.345 . S
C582 C583 1.387 1_556 S
C582 C586 1.391 . S
C583 C582 1.387 1_554 S
C583 C584 1.369 . S
C583 H592 0.929 . S
C584 N581 1.346 . S
C584 C583 1.369 . S
C584 H587 0.928 . S
C585 N581 1.345 . S
C585 C586 1.371 1_554 S
C585 H588 0.931 . S
C586 C582 1.391 . S
C586 C585 1.371 1_556 S
C586 H593 0.930 . S
H587 C584 0.928 . S
H588 C585 0.931 . S
H589 C565 0.930 . S
H590 C562 0.930 . S
H591 C571 0.930 . S
H592 C583 0.929 . S
H593 C586 0.930 . S
C594 C595 1.351 . S
C594 N597 1.368 . S
C594 H599 0.931 . S
C595 C594 1.351 . S
C595 N596 1.373 . S
C595 H623 0.930 . S
N596 C595 1.373 . S
N596 C598 1.340 . S
N597 C594 1.368 . S
N597 C598 1.321 . S
N597 Co600 2.135 . S
C598 N596 1.340 . S
C598 N597 1.321 . S
C598 H622 0.930 . S
H599 C594 0.931 . S
Co600 N597 2.135 . S
Co600 N603 2.121 . S
Co600 O608 2.055 . S
Co600 O611 2.039 . S
Co600 N614 2.140 . S
C601 O602 1.227 . S
C601 O611 1.265 . S
O602 C601 1.227 . S
N603 Co600 2.121 . S
N603 C605 1.375 . S
N603 C606 1.313 . S
C604 C605 1.338 . S
C604 N607 1.377 . S
C604 H624 0.930 . S
C605 N603 1.375 . S
C605 C604 1.338 . S
C605 H609 0.931 . S
C606 N603 1.313 . S
C606 N607 1.344 . S
C606 H610 0.930 . S
N607 C604 1.377 . S
N607 C606 1.344 . S
O608 Co600 2.055 . S
O608 C612 1.253 . S
H609 C605 0.931 . S
H610 C606 0.930 . S
O611 Co600 2.039 . S
O611 C601 1.265 . S
C612 O608 1.253 . S
C612 O613 1.227 . S
O613 C612 1.227 . S
N614 Co600 2.140 . S
N614 C617 1.346 . S
N614 C618 1.345 . S
C615 C616 1.387 . S
C615 C619 1.391 . S
C616 C615 1.387 . S
C616 C617 1.369 . S
C616 H625 0.929 . S
C617 N614 1.346 . S
C617 C616 1.369 . S
C617 H620 0.928 . S
C618 N614 1.345 . S
C618 C619 1.371 . S
C618 H621 0.931 . S
C619 C615 1.391 . S
C619 C618 1.371 . S
C619 H626 0.930 . S
H620 C617 0.928 . S
H621 C618 0.931 . S
H622 C598 0.930 . S
H623 C595 0.930 . S
H624 C604 0.930 . S
H625 C616 0.929 . S
H626 C619 0.930 . S
C627 C628 1.351 . S
C627 N630 1.368 . S
C627 H632 0.931 . S
C628 C627 1.351 . S
C628 N629 1.373 . S
C628 H656 0.930 . S
N629 C628 1.373 . S
N629 C631 1.340 . S
N630 C627 1.368 . S
N630 C631 1.321 . S
N630 Co633 2.135 . S
C631 N629 1.340 . S
C631 N630 1.321 . S
C631 H655 0.930 . S
H632 C627 0.931 . S
Co633 N630 2.135 . S
Co633 N636 2.121 . S
Co633 O641 2.055 . S
Co633 O644 2.039 . S
Co633 N647 2.140 . S
C634 O635 1.227 . S
C634 O644 1.265 . S
O635 C634 1.227 . S
N636 Co633 2.121 . S
N636 C638 1.375 . S
N636 C639 1.313 . S
C637 C638 1.338 . S
C637 N640 1.377 . S
C637 H657 0.930 . S
C638 N636 1.375 . S
C638 C637 1.338 . S
C638 H642 0.931 . S
C639 N636 1.313 . S
C639 N640 1.344 . S
C639 H643 0.930 . S
N640 C637 1.377 . S
N640 C639 1.344 . S
O641 Co633 2.055 . S
O641 C645 1.253 . S
H642 C638 0.931 . S
H643 C639 0.930 . S
O644 Co633 2.039 . S
O644 C634 1.265 . S
C645 O641 1.253 . S
C645 O646 1.227 . S
O646 C645 1.227 . S
N647 Co633 2.140 . S
N647 C650 1.346 . S
N647 C651 1.345 . S
C648 C649 1.387 . S
C648 C652 1.391 . S
C649 C648 1.387 . S
C649 C650 1.369 . S
C649 H658 0.929 . S
C650 N647 1.346 . S
C650 C649 1.369 . S
C650 H653 0.928 . S
C651 N647 1.345 . S
C651 C652 1.371 . S
C651 H654 0.931 . S
C652 C648 1.391 . S
C652 C651 1.371 . S
C652 H659 0.930 . S
H653 C650 0.928 . S
H654 C651 0.931 . S
H655 C631 0.930 . S
H656 C628 0.930 . S
H657 C637 0.930 . S
H658 C649 0.929 . S
H659 C652 0.930 . S
C660 C661 1.351 1_565 S
C660 N663 1.368 . S
C660 H665 0.931 . S
C661 C660 1.351 1_545 S
C661 N662 1.373 . S
C661 H689 0.930 . S
N662 C661 1.373 . S
N662 C664 1.321 1_545 S
N663 C660 1.368 . S
N663 C664 1.336 . S
N663 Co666 2.135 . S
C664 N662 1.321 1_565 S
C664 N663 1.336 . S
C664 H688 0.935 . S
H665 C660 0.931 . S
Co666 N663 2.135 . S
Co666 N669 2.121 . S
Co666 O674 2.055 . S
Co666 O677 2.039 . S
Co666 N680 2.140 . S
C667 O668 1.227 . S
C667 O677 1.265 . S
O668 C667 1.227 . S
N669 Co666 2.121 . S
N669 C671 1.375 . S
N669 C672 1.313 . S
C670 C671 1.338 . S
C670 N673 1.377 . S
C670 H690 0.930 . S
C671 N669 1.375 . S
C671 C670 1.338 . S
C671 H675 0.931 . S
C672 N669 1.313 . S
C672 N673 1.344 . S
C672 H676 0.930 . S
N673 C670 1.377 . S
N673 C672 1.344 . S
O674 Co666 2.055 . S
O674 C678 1.253 . S
H675 C671 0.931 . S
H676 C672 0.930 . S
O677 Co666 2.039 . S
O677 C667 1.265 . S
C678 O674 1.253 . S
C678 O679 1.227 . S
O679 C678 1.227 . S
N680 Co666 2.140 . S
N680 C683 1.346 . S
N680 C684 1.345 . S
C681 C682 1.387 . S
C681 C685 1.391 . S
C682 C681 1.387 . S
C682 C683 1.369 . S
C682 H691 0.929 . S
C683 N680 1.346 . S
C683 C682 1.369 . S
C683 H686 0.928 . S
C684 N680 1.345 . S
C684 C685 1.371 . S
C684 H687 0.931 . S
C685 C681 1.391 . S
C685 C684 1.371 . S
C685 H692 0.930 . S
H686 C683 0.928 . S
H687 C684 0.931 . S
H688 C664 0.935 . S
H689 C661 0.930 . S
H690 C670 0.930 . S
H691 C682 0.929 . S
H692 C685 0.930 . S
C693 C694 1.351 . S
C693 N696 1.368 . S
C693 H698 0.931 . S
C694 C693 1.351 . S
C694 N695 1.373 . S
C694 H722 0.930 . S
N695 C694 1.373 . S
N695 C697 1.340 . S
N696 C693 1.368 . S
N696 C697 1.321 . S
N696 Co699 2.135 . S
C697 N695 1.340 . S
C697 N696 1.321 . S
C697 H721 0.930 . S
H698 C693 0.931 . S
Co699 N696 2.135 . S
Co699 N702 2.121 . S
Co699 O707 2.055 . S
Co699 O710 2.039 . S
Co699 N713 2.140 . S
C700 O701 1.225 1_565 S
C700 O710 1.287 . S
O701 C700 1.225 1_545 S
N702 Co699 2.121 . S
N702 C704 1.375 . S
N702 C705 1.313 . S
C703 C704 1.338 . S
C703 N706 1.377 . S
C703 H723 0.930 . S
C704 N702 1.375 . S
C704 C703 1.338 . S
C704 H708 0.931 . S
C705 N702 1.313 . S
C705 N706 1.344 . S
C705 H709 0.930 . S
N706 C703 1.377 . S
N706 C705 1.344 . S
O707 Co699 2.055 . S
O707 C711 1.253 . S
H708 C704 0.931 . S
H709 C705 0.930 . S
O710 Co699 2.039 . S
O710 C700 1.287 . S
C711 O707 1.253 . S
C711 O712 1.227 . S
O712 C711 1.227 . S
N713 Co699 2.140 . S
N713 C716 1.346 . S
N713 C717 1.345 . S
C714 C715 1.387 . S
C714 C718 1.391 . S
C715 C714 1.387 . S
C715 C716 1.369 . S
C715 H724 0.929 . S
C716 N713 1.346 . S
C716 C715 1.369 . S
C716 H719 0.928 . S
C717 N713 1.345 . S
C717 C718 1.371 . S
C717 H720 0.931 . S
C718 C714 1.391 . S
C718 C717 1.371 . S
C718 H725 0.930 . S
H719 C716 0.928 . S
H720 C717 0.931 . S
H721 C697 0.930 . S
H722 C694 0.930 . S
H723 C703 0.930 . S
H724 C715 0.929 . S
H725 C718 0.930 . S
C726 C727 1.351 . S
C726 N729 1.368 . S
C726 H731 0.931 . S
C727 C726 1.351 . S
C727 N728 1.373 . S
C727 H755 0.930 . S
N728 C727 1.373 . S
N728 C730 1.340 . S
N729 C726 1.368 . S
N729 C730 1.321 . S
N729 Co732 2.135 . S
C730 N728 1.340 . S
C730 N729 1.321 . S
C730 H754 0.930 . S
H731 C726 0.931 . S
Co732 N729 2.135 . S
Co732 N735 2.121 . S
Co732 O740 2.055 . S
Co732 O743 2.039 . S
Co732 N746 2.140 . S
C733 O734 1.227 . S
C733 O743 1.265 . S
O734 C733 1.227 . S
N735 Co732 2.121 . S
N735 C737 1.375 . S
N735 C738 1.313 . S
C736 C737 1.338 . S
C736 N739 1.377 . S
C736 H756 0.930 . S
C737 N735 1.375 . S
C737 C736 1.338 . S
C737 H741 0.931 . S
C738 N735 1.313 . S
C738 N739 1.344 . S
C738 H742 0.930 . S
N739 C736 1.377 . S
N739 C738 1.344 . S
O740 Co732 2.055 . S
O740 C744 1.253 . S
H741 C737 0.931 . S
H742 C738 0.930 . S
O743 Co732 2.039 . S
O743 C733 1.265 . S
C744 O740 1.253 . S
C744 O745 1.227 . S
O745 C744 1.227 . S
N746 Co732 2.140 . S
N746 C749 1.346 . S
N746 C750 1.345 . S
C747 C748 1.387 . S
C747 C751 1.391 . S
C748 C747 1.387 . S
C748 C749 1.369 . S
C748 H757 0.929 . S
C749 N746 1.346 . S
C749 C748 1.369 . S
C749 H752 0.928 . S
C750 N746 1.345 . S
C750 C751 1.371 . S
C750 H753 0.931 . S
C751 C747 1.391 . S
C751 C750 1.371 . S
C751 H758 0.930 . S
H752 C749 0.928 . S
H753 C750 0.931 . S
H754 C730 0.930 . S
H755 C727 0.930 . S
H756 C736 0.930 . S
H757 C748 0.929 . S
H758 C751 0.930 . S
C759 C760 1.351 . S
C759 N762 1.368 . S
C759 H764 0.931 . S
C760 C759 1.351 . S
C760 N761 1.373 . S
C760 H788 0.930 . S
N761 C760 1.373 . S
N761 C763 1.340 . S
N762 C759 1.368 . S
N762 C763 1.321 . S
N762 Co765 2.135 . S
C763 N761 1.340 . S
C763 N762 1.321 . S
C763 H787 0.930 . S
H764 C759 0.931 . S
Co765 N762 2.135 . S
Co765 N768 2.121 . S
Co765 O773 2.055 . S
Co765 O776 2.039 . S
Co765 N779 2.140 . S
C766 O767 1.227 . S
C766 O776 1.265 . S
O767 C766 1.227 . S
N768 Co765 2.121 . S
N768 C770 1.375 . S
N768 C771 1.313 . S
C769 C770 1.338 . S
C769 N772 1.377 . S
C769 H789 0.930 . S
C770 N768 1.375 . S
C770 C769 1.338 . S
C770 H774 0.931 . S
C771 N768 1.313 . S
C771 N772 1.344 . S
C771 H775 0.930 . S
N772 C769 1.377 . S
N772 C771 1.344 . S
O773 Co765 2.055 . S
O773 C777 1.253 . S
H774 C770 0.931 . S
H775 C771 0.930 . S
O776 Co765 2.039 . S
O776 C766 1.265 . S
C777 O773 1.253 . S
C777 O778 1.227 . S
O778 C777 1.227 . S
N779 Co765 2.140 . S
N779 C782 1.346 . S
N779 C783 1.345 . S
C780 C781 1.387 . S
C780 C784 1.391 . S
C781 C780 1.387 . S
C781 C782 1.369 . S
C781 H790 0.929 . S
C782 N779 1.346 . S
C782 C781 1.369 . S
C782 H785 0.928 . S
C783 N779 1.345 . S
C783 C784 1.371 . S
C783 H786 0.931 . S
C784 C780 1.391 . S
C784 C783 1.371 . S
C784 H791 0.930 . S
H785 C782 0.928 . S
H786 C783 0.931 . S
H787 C763 0.930 . S
H788 C760 0.930 . S
H789 C769 0.930 . S
H790 C781 0.929 . S
H791 C784 0.930 . S
C792 C793 1.351 . S
C792 N795 1.368 . S
C792 H797 0.931 . S
C793 C792 1.351 . S
C793 N794 1.373 . S
C793 H821 0.930 . S
N794 C793 1.373 . S
N794 C796 1.340 . S
N795 C792 1.368 . S
N795 C796 1.321 . S
N795 Co798 2.135 . S
C796 N794 1.340 . S
C796 N795 1.321 . S
C796 H820 0.930 . S
H797 C792 0.931 . S
Co798 N795 2.135 . S
Co798 N801 2.121 . S
Co798 O806 2.055 . S
Co798 O809 2.039 . S
Co798 N812 2.140 . S
C799 O800 1.227 . S
C799 O809 1.265 . S
O800 C799 1.227 . S
N801 Co798 2.121 . S
N801 C803 1.375 1_565 S
N801 C804 1.313 1_565 S
C802 C803 1.338 . S
C802 N805 1.377 . S
C802 H822 0.930 . S
C803 N801 1.375 1_545 S
C803 C802 1.338 . S
C803 H807 0.931 1_545 S
C804 N801 1.313 1_545 S
C804 N805 1.344 . S
C804 H808 0.930 . S
N805 C802 1.377 . S
N805 C804 1.344 . S
O806 Co798 2.055 . S
O806 C810 1.253 . S
H807 C803 0.931 1_565 S
H808 C804 0.930 . S
O809 Co798 2.039 . S
O809 C799 1.265 . S
C810 O806 1.253 . S
C810 O811 1.227 . S
O811 C810 1.227 . S
N812 Co798 2.140 . S
N812 C815 1.346 . S
N812 C816 1.345 . S
C813 C814 1.387 . S
C813 C817 1.391 . S
C814 C813 1.387 . S
C814 C815 1.369 . S
C814 H823 0.929 . S
C815 N812 1.346 . S
C815 C814 1.369 . S
C815 H818 0.928 . S
C816 N812 1.345 . S
C816 C817 1.371 . S
C816 H819 0.931 . S
C817 C813 1.391 . S
C817 C816 1.371 . S
C817 H824 0.930 . S
H818 C815 0.928 . S
H819 C816 0.931 . S
H820 C796 0.930 . S
H821 C793 0.930 . S
H822 C802 0.930 . S
H823 C814 0.929 . S
H824 C817 0.930 . S
C825 C826 1.351 . S
C825 N828 1.368 . S
C825 H830 0.931 . S
C826 C825 1.351 . S
C826 N827 1.373 . S
C826 H854 0.930 . S
N827 C826 1.373 . S
N827 C829 1.340 . S
N828 C825 1.368 . S
N828 C829 1.321 . S
N828 Co831 2.135 . S
C829 N827 1.340 . S
C829 N828 1.321 . S
C829 H853 0.930 . S
H830 C825 0.931 . S
Co831 N828 2.135 . S
Co831 N834 2.121 . S
Co831 O839 2.055 . S
Co831 O842 2.039 . S
Co831 N845 2.140 . S
C832 O833 1.227 . S
C832 O842 1.265 . S
O833 C832 1.227 . S
N834 Co831 2.121 . S
N834 C836 1.375 . S
N834 C837 1.313 . S
C835 C836 1.338 . S
C835 N838 1.377 . S
C835 H855 0.930 . S
C836 N834 1.375 . S
C836 C835 1.338 . S
C836 H840 0.931 . S
C837 N834 1.313 . S
C837 N838 1.344 . S
C837 H841 0.930 . S
N838 C835 1.377 . S
N838 C837 1.344 . S
O839 Co831 2.055 . S
O839 C843 1.253 . S
H840 C836 0.931 . S
H841 C837 0.930 . S
O842 Co831 2.039 . S
O842 C832 1.265 . S
C843 O839 1.253 . S
C843 O844 1.227 . S
O844 C843 1.227 . S
N845 Co831 2.140 . S
N845 C848 1.346 . S
N845 C849 1.345 . S
C846 C847 1.387 . S
C846 C850 1.391 . S
C847 C846 1.387 . S
C847 C848 1.369 . S
C847 H856 0.929 . S
C848 N845 1.346 . S
C848 C847 1.369 . S
C848 H851 0.928 . S
C849 N845 1.345 . S
C849 C850 1.371 . S
C849 H852 0.931 . S
C850 C846 1.391 . S
C850 C849 1.371 . S
C850 H857 0.930 . S
H851 C848 0.928 . S
H852 C849 0.931 . S
H853 C829 0.930 . S
H854 C826 0.930 . S
H855 C835 0.930 . S
H856 C847 0.929 . S
H857 C850 0.930 . S
C858 C859 1.351 . S
C858 N861 1.368 . S
C858 H863 0.931 . S
C859 C858 1.351 . S
C859 N860 1.373 . S
C859 H887 0.930 . S
N860 C859 1.373 . S
N860 C862 1.340 . S
N861 C858 1.368 . S
N861 C862 1.321 . S
N861 Co864 2.135 . S
C862 N860 1.340 . S
C862 N861 1.321 . S
C862 H886 0.930 . S
H863 C858 0.931 . S
Co864 N861 2.135 . S
Co864 N867 2.121 . S
Co864 O872 2.055 . S
Co864 O875 2.039 . S
Co864 N878 2.140 . S
C865 O866 1.227 . S
C865 O875 1.265 . S
O866 C865 1.227 . S
N867 Co864 2.121 . S
N867 C869 1.375 . S
N867 C870 1.313 . S
C868 C869 1.338 . S
C868 N871 1.377 . S
C868 H888 0.930 . S
C869 N867 1.375 . S
C869 C868 1.338 . S
C869 H873 0.931 . S
C870 N867 1.313 . S
C870 N871 1.344 . S
C870 H874 0.930 . S
N871 C868 1.377 . S
N871 C870 1.344 . S
O872 Co864 2.055 . S
O872 C876 1.253 . S
H873 C869 0.931 . S
H874 C870 0.930 . S
O875 Co864 2.039 . S
O875 C865 1.265 . S
C876 O872 1.253 . S
C876 O877 1.227 . S
O877 C876 1.227 . S
N878 Co864 2.140 . S
N878 C881 1.346 . S
N878 C882 1.345 . S
C879 C880 1.387 1_655 S
C879 C883 1.391 . S
C880 C879 1.387 1_455 S
C880 C881 1.369 . S
C880 H889 0.929 . S
C881 N878 1.346 . S
C881 C880 1.369 . S
C881 H884 0.928 . S
C882 N878 1.345 . S
C882 C883 1.371 1_455 S
C882 H885 0.931 . S
C883 C879 1.391 . S
C883 C882 1.371 1_655 S
C883 H890 0.930 . S
H884 C881 0.928 . S
H885 C882 0.931 . S
H886 C862 0.930 . S
H887 C859 0.930 . S
H888 C868 0.930 . S
H889 C880 0.929 . S
H890 C883 0.930 . S
C891 C892 1.351 . S
C891 N894 1.368 . S
C891 H896 0.931 . S
C892 C891 1.351 . S
C892 N893 1.373 . S
C892 H920 0.930 . S
N893 C892 1.373 . S
N893 C895 1.340 . S
N894 C891 1.368 . S
N894 C895 1.321 . S
N894 Co897 2.135 . S
C895 N893 1.340 . S
C895 N894 1.321 . S
C895 H919 0.930 . S
H896 C891 0.931 . S
Co897 N894 2.135 . S
Co897 N900 2.121 . S
Co897 O905 2.055 . S
Co897 O908 2.039 . S
Co897 N911 2.140 . S
C898 O899 1.227 . S
C898 O908 1.265 . S
O899 C898 1.227 . S
N900 Co897 2.121 . S
N900 C902 1.375 . S
N900 C903 1.313 . S
C901 C902 1.338 . S
C901 N904 1.377 . S
C901 H921 0.930 . S
C902 N900 1.375 . S
C902 C901 1.338 . S
C902 H906 0.931 . S
C903 N900 1.313 . S
C903 N904 1.344 . S
C903 H907 0.930 . S
N904 C901 1.377 . S
N904 C903 1.344 . S
O905 Co897 2.055 . S
O905 C909 1.253 . S
H906 C902 0.931 . S
H907 C903 0.930 . S
O908 Co897 2.039 . S
O908 C898 1.265 . S
C909 O905 1.253 . S
C909 O910 1.227 . S
O910 C909 1.227 . S
N911 Co897 2.140 . S
N911 C914 1.346 . S
N911 C915 1.345 . S
C912 C913 1.387 . S
C912 C916 1.391 . S
C913 C912 1.387 . S
C913 C914 1.369 . S
C913 H922 0.929 . S
C914 N911 1.346 . S
C914 C913 1.369 . S
C914 H917 0.928 . S
C915 N911 1.345 . S
C915 C916 1.371 . S
C915 H918 0.931 . S
C916 C912 1.391 . S
C916 C915 1.371 . S
C916 H923 0.930 . S
H917 C914 0.928 . S
H918 C915 0.931 . S
H919 C895 0.930 . S
H920 C892 0.930 . S
H921 C901 0.930 . S
H922 C913 0.929 . S
H923 C916 0.930 . S
C924 C925 1.351 . S
C924 N927 1.368 . S
C924 H929 0.931 . S
C925 C924 1.351 . S
C925 N926 1.373 . S
C925 H953 0.930 . S
N926 C925 1.373 . S
N926 C928 1.340 . S
N927 C924 1.368 . S
N927 C928 1.321 . S
N927 Co930 2.135 . S
C928 N926 1.340 . S
C928 N927 1.321 . S
C928 H952 0.930 . S
H929 C924 0.931 . S
Co930 N927 2.135 . S
Co930 N933 2.121 . S
Co930 O938 2.055 . S
Co930 O941 2.039 . S
Co930 N944 2.140 . S
C931 O932 1.225 1_556 S
C931 O941 1.287 . S
O932 C931 1.225 1_554 S
N933 Co930 2.121 . S
N933 C935 1.375 . S
N933 C936 1.313 . S
C934 C935 1.338 . S
C934 N937 1.377 . S
C934 H954 0.930 . S
C935 N933 1.375 . S
C935 C934 1.338 . S
C935 H939 0.931 . S
C936 N933 1.313 . S
C936 N937 1.344 . S
C936 H940 0.930 . S
N937 C934 1.377 . S
N937 C936 1.344 . S
O938 Co930 2.055 . S
O938 C942 1.253 . S
H939 C935 0.931 . S
H940 C936 0.930 . S
O941 Co930 2.039 . S
O941 C931 1.287 . S
C942 O938 1.253 . S
C942 O943 1.227 . S
O943 C942 1.227 . S
N944 Co930 2.140 . S
N944 C947 1.346 . S
N944 C948 1.345 . S
C945 C946 1.387 . S
C945 C949 1.391 . S
C946 C945 1.387 . S
C946 C947 1.369 . S
C946 H955 0.929 . S
C947 N944 1.346 . S
C947 C946 1.369 . S
C947 H950 0.928 . S
C948 N944 1.345 . S
C948 C949 1.371 . S
C948 H951 0.931 . S
C949 C945 1.391 . S
C949 C948 1.371 . S
C949 H956 0.930 . S
H950 C947 0.928 . S
H951 C948 0.931 . S
H952 C928 0.930 . S
H953 C925 0.930 . S
H954 C934 0.930 . S
H955 C946 0.929 . S
H956 C949 0.930 . S
C957 C958 1.351 . S
C957 N960 1.368 . S
C957 H962 0.931 . S
C958 C957 1.351 . S
C958 N959 1.373 . S
C958 H986 0.930 . S
N959 C958 1.373 . S
N959 C961 1.340 . S
N960 C957 1.368 . S
N960 C961 1.321 . S
N960 Co963 2.135 . S
C961 N959 1.340 . S
C961 N960 1.321 . S
C961 H985 0.930 . S
H962 C957 0.931 . S
Co963 N960 2.135 . S
Co963 N966 2.121 . S
Co963 O971 2.055 . S
Co963 O974 2.039 . S
Co963 N977 2.140 . S
C964 O965 1.227 . S
C964 O974 1.265 . S
O965 C964 1.227 . S
N966 Co963 2.121 . S
N966 C968 1.375 . S
N966 C969 1.313 . S
C967 C968 1.338 . S
C967 N970 1.377 . S
C967 H987 0.930 . S
C968 N966 1.375 . S
C968 C967 1.338 . S
C968 H972 0.931 . S
C969 N966 1.313 . S
C969 N970 1.344 . S
C969 H973 0.930 . S
N970 C967 1.377 . S
N970 C969 1.344 . S
O971 Co963 2.055 . S
O971 C975 1.253 . S
H972 C968 0.931 . S
H973 C969 0.930 . S
O974 Co963 2.039 . S
O974 C964 1.265 . S
C975 O971 1.253 . S
C975 O976 1.227 . S
O976 C975 1.227 . S
N977 Co963 2.140 . S
N977 C980 1.346 . S
N977 C981 1.345 . S
C978 C979 1.387 . S
C978 C982 1.391 . S
C979 C978 1.387 . S
C979 C980 1.369 . S
C979 H988 0.929 . S
C980 N977 1.346 . S
C980 C979 1.369 . S
C980 H983 0.928 . S
C981 N977 1.345 . S
C981 C982 1.371 . S
C981 H984 0.931 . S
C982 C978 1.391 . S
C982 C981 1.371 . S
C982 H989 0.930 . S
H983 C980 0.928 . S
H984 C981 0.931 . S
H985 C961 0.930 . S
H986 C958 0.930 . S
H987 C967 0.930 . S
H988 C979 0.929 . S
H989 C982 0.930 . S
C990 C991 1.351 . S
C990 N993 1.368 . S
C990 H995 0.931 . S
C991 C990 1.351 . S
C991 N992 1.373 . S
C991 H1019 0.930 . S
N992 C991 1.373 . S
N992 C994 1.340 . S
N993 C990 1.368 . S
N993 C994 1.321 . S
N993 Co996 2.135 . S
C994 N992 1.340 . S
C994 N993 1.321 . S
C994 H1018 0.930 . S
H995 C990 0.931 . S
Co996 N993 2.135 . S
Co996 N999 2.121 . S
Co996 O1004 2.055 . S
Co996 O1007 2.039 . S
Co996 N1010 2.140 . S
C997 O998 1.227 . S
C997 O1007 1.265 . S
O998 C997 1.227 . S
N999 Co996 2.121 . S
N999 C1001 1.375 1_565 S
N999 C1002 1.313 1_565 S
C1000 C1001 1.338 . S
C1000 N1003 1.377 . S
C1000 H1020 0.930 . S
C1001 N999 1.375 1_545 S
C1001 C1000 1.338 . S
C1001 H1005 0.931 1_545 S
C1002 N999 1.313 1_545 S
C1002 N1003 1.344 . S
C1002 H1006 0.930 . S
N1003 C1000 1.377 . S
N1003 C1002 1.344 . S
O1004 Co996 2.055 . S
O1004 C1008 1.253 . S
H1005 C1001 0.931 1_565 S
H1006 C1002 0.930 . S
O1007 Co996 2.039 . S
O1007 C997 1.265 . S
C1008 O1004 1.253 . S
C1008 O1009 1.227 . S
O1009 C1008 1.227 . S
N1010 Co996 2.140 . S
N1010 C1013 1.346 . S
N1010 C1014 1.345 . S
C1011 C1012 1.387 1_655 S
C1011 C1015 1.391 . S
C1012 C1011 1.387 1_455 S
C1012 C1013 1.369 . S
C1012 H1021 0.929 . S
C1013 N1010 1.346 . S
C1013 C1012 1.369 . S
C1013 H1016 0.928 . S
C1014 N1010 1.345 . S
C1014 C1015 1.371 1_455 S
C1014 H1017 0.931 . S
C1015 C1011 1.391 . S
C1015 C1014 1.371 1_655 S
C1015 H1022 0.930 . S
H1016 C1013 0.928 . S
H1017 C1014 0.931 . S
H1018 C994 0.930 . S
H1019 C991 0.930 . S
H1020 C1000 0.930 . S
H1021 C1012 0.929 . S
H1022 C1015 0.930 . S
C1023 C1024 1.351 . S
C1023 N1026 1.368 . S
C1023 H1028 0.931 . S
C1024 C1023 1.351 . S
C1024 N1025 1.373 . S
C1024 H1052 0.930 . S
N1025 C1024 1.373 . S
N1025 C1027 1.340 . S
N1026 C1023 1.368 . S
N1026 C1027 1.321 . S
N1026 Co1029 2.135 . S
C1027 N1025 1.340 . S
C1027 N1026 1.321 . S
C1027 H1051 0.930 . S
H1028 C1023 0.931 . S
Co1029 N1026 2.135 . S
Co1029 N1032 2.121 . S
Co1029 O1037 2.055 . S
Co1029 O1040 2.039 . S
Co1029 N1043 2.140 . S
C1030 O1031 1.227 . S
C1030 O1040 1.265 . S
O1031 C1030 1.227 . S
N1032 Co1029 2.121 . S
N1032 C1034 1.375 . S
N1032 C1035 1.313 . S
C1033 C1034 1.338 . S
C1033 N1036 1.377 . S
C1033 H1053 0.930 . S
C1034 N1032 1.375 . S
C1034 C1033 1.338 . S
C1034 H1038 0.931 . S
C1035 N1032 1.313 . S
C1035 N1036 1.344 . S
C1035 H1039 0.930 . S
N1036 C1033 1.377 . S
N1036 C1035 1.344 . S
O1037 Co1029 2.055 . S
O1037 C1041 1.253 . S
H1038 C1034 0.931 . S
H1039 C1035 0.930 . S
O1040 Co1029 2.039 . S
O1040 C1030 1.265 . S
C1041 O1037 1.253 . S
C1041 O1042 1.227 . S
O1042 C1041 1.227 . S
N1043 Co1029 2.140 . S
N1043 C1046 1.346 . S
N1043 C1047 1.345 . S
C1044 C1045 1.387 . S
C1044 C1048 1.391 . S
C1045 C1044 1.387 . S
C1045 C1046 1.369 . S
C1045 H1054 0.929 . S
C1046 N1043 1.346 . S
C1046 C1045 1.369 . S
C1046 H1049 0.928 . S
C1047 N1043 1.345 . S
C1047 C1048 1.371 . S
C1047 H1050 0.931 . S
C1048 C1044 1.391 . S
C1048 C1047 1.371 . S
C1048 H1055 0.930 . S
H1049 C1046 0.928 . S
H1050 C1047 0.931 . S
H1051 C1027 0.930 . S
H1052 C1024 0.930 . S
H1053 C1033 0.930 . S
H1054 C1045 0.929 . S
H1055 C1048 0.930 . S
C1056 C1057 1.351 . S
C1056 N1059 1.368 . S
C1056 H1061 0.931 . S
C1057 C1056 1.351 . S
C1057 N1058 1.373 . S
C1057 H1085 0.930 . S
N1058 C1057 1.373 . S
N1058 C1060 1.340 . S
N1059 C1056 1.368 . S
N1059 C1060 1.321 . S
N1059 Co1062 2.135 . S
C1060 N1058 1.340 . S
C1060 N1059 1.321 . S
C1060 H1084 0.930 . S
H1061 C1056 0.931 . S
Co1062 N1059 2.135 . S
Co1062 N1065 2.121 . S
Co1062 O1070 2.055 . S
Co1062 O1073 2.039 . S
Co1062 N1076 2.140 . S
C1063 O1064 1.227 . S
C1063 O1073 1.265 . S
O1064 C1063 1.227 . S
N1065 Co1062 2.121 . S
N1065 C1067 1.375 1_556 S
N1065 C1068 1.313 1_556 S
C1066 C1067 1.338 . S
C1066 N1069 1.377 . S
C1066 H1086 0.930 . S
C1067 N1065 1.375 1_554 S
C1067 C1066 1.338 . S
C1067 H1071 0.931 1_554 S
C1068 N1065 1.313 1_554 S
C1068 N1069 1.344 . S
C1068 H1072 0.930 . S
N1069 C1066 1.377 . S
N1069 C1068 1.344 . S
O1070 Co1062 2.055 . S
O1070 C1074 1.253 . S
H1071 C1067 0.931 1_556 S
H1072 C1068 0.930 . S
O1073 Co1062 2.039 . S
O1073 C1063 1.265 . S
C1074 O1070 1.253 . S
C1074 O1075 1.227 . S
O1075 C1074 1.227 . S
N1076 Co1062 2.140 . S
N1076 C1079 1.346 . S
N1076 C1080 1.345 . S
C1077 C1078 1.387 . S
C1077 C1081 1.391 . S
C1078 C1077 1.387 . S
C1078 C1079 1.369 . S
C1078 H1087 0.929 . S
C1079 N1076 1.346 . S
C1079 C1078 1.369 . S
C1079 H1082 0.928 . S
C1080 N1076 1.345 . S
C1080 C1081 1.371 . S
C1080 H1083 0.931 . S
C1081 C1077 1.391 . S
C1081 C1080 1.371 . S
C1081 H1088 0.930 . S
H1082 C1079 0.928 . S
H1083 C1080 0.931 . S
H1084 C1060 0.930 . S
H1085 C1057 0.930 . S
H1086 C1066 0.930 . S
H1087 C1078 0.929 . S
H1088 C1081 0.930 . S
C1089 C1090 1.351 . S
C1089 N1092 1.368 . S
C1089 H1094 0.931 . S
C1090 C1089 1.351 . S
C1090 N1091 1.373 . S
C1090 H1118 0.930 . S
N1091 C1090 1.373 . S
N1091 C1093 1.340 . S
N1092 C1089 1.368 . S
N1092 C1093 1.321 . S
N1092 Co1095 2.135 . S
C1093 N1091 1.340 . S
C1093 N1092 1.321 . S
C1093 H1117 0.930 . S
H1094 C1089 0.931 . S
Co1095 N1092 2.135 . S
Co1095 N1098 2.121 . S
Co1095 O1103 2.055 . S
Co1095 O1106 2.039 . S
Co1095 N1109 2.140 . S
C1096 O1097 1.227 . S
C1096 O1106 1.265 . S
O1097 C1096 1.227 . S
N1098 Co1095 2.121 . S
N1098 C1100 1.375 . S
N1098 C1101 1.313 . S
C1099 C1100 1.338 . S
C1099 N1102 1.377 . S
C1099 H1119 0.930 . S
C1100 N1098 1.375 . S
C1100 C1099 1.338 . S
C1100 H1104 0.931 . S
C1101 N1098 1.313 . S
C1101 N1102 1.344 . S
C1101 H1105 0.930 . S
N1102 C1099 1.377 . S
N1102 C1101 1.344 . S
O1103 Co1095 2.055 . S
O1103 C1107 1.253 . S
H1104 C1100 0.931 . S
H1105 C1101 0.930 . S
O1106 Co1095 2.039 . S
O1106 C1096 1.265 . S
C1107 O1103 1.253 . S
C1107 O1108 1.227 . S
O1108 C1107 1.227 . S
N1109 Co1095 2.140 . S
N1109 C1112 1.346 . S
N1109 C1113 1.345 . S
C1110 C1111 1.387 . S
C1110 C1114 1.391 . S
C1111 C1110 1.387 . S
C1111 C1112 1.369 . S
C1111 H1120 0.929 . S
C1112 N1109 1.346 . S
C1112 C1111 1.369 . S
C1112 H1115 0.928 . S
C1113 N1109 1.345 . S
C1113 C1114 1.371 . S
C1113 H1116 0.931 . S
C1114 C1110 1.391 . S
C1114 C1113 1.371 . S
C1114 H1121 0.930 . S
H1115 C1112 0.928 . S
H1116 C1113 0.931 . S
H1117 C1093 0.930 . S
H1118 C1090 0.930 . S
H1119 C1099 0.930 . S
H1120 C1111 0.929 . S
H1121 C1114 0.930 . S
C1122 C1123 1.351 . S
C1122 N1125 1.368 . S
C1122 H1127 0.931 . S
C1123 C1122 1.351 . S
C1123 N1124 1.373 . S
C1123 H1151 0.930 . S
N1124 C1123 1.373 . S
N1124 C1126 1.340 . S
N1125 C1122 1.368 . S
N1125 C1126 1.321 . S
N1125 Co1128 2.135 . S
C1126 N1124 1.340 . S
C1126 N1125 1.321 . S
C1126 H1150 0.930 . S
H1127 C1122 0.931 . S
Co1128 N1125 2.135 . S
Co1128 N1131 2.121 . S
Co1128 O1136 2.055 . S
Co1128 O1139 2.039 . S
Co1128 N1142 2.140 . S
C1129 O1130 1.225 1_655 S
C1129 O1139 1.280 . S
O1130 C1129 1.225 1_455 S
N1131 Co1128 2.121 . S
N1131 C1133 1.375 . S
N1131 C1134 1.313 . S
C1132 C1133 1.338 . S
C1132 N1135 1.377 . S
C1132 H1152 0.930 . S
C1133 N1131 1.375 . S
C1133 C1132 1.338 . S
C1133 H1137 0.931 . S
C1134 N1131 1.313 . S
C1134 N1135 1.344 . S
C1134 H1138 0.930 . S
N1135 C1132 1.377 . S
N1135 C1134 1.344 . S
O1136 Co1128 2.055 . S
O1136 C1140 1.253 . S
H1137 C1133 0.931 . S
H1138 C1134 0.930 . S
O1139 Co1128 2.039 . S
O1139 C1129 1.280 . S
C1140 O1136 1.253 . S
C1140 O1141 1.227 . S
O1141 C1140 1.227 . S
N1142 Co1128 2.140 . S
N1142 C1145 1.346 . S
N1142 C1146 1.345 . S
C1143 C1144 1.387 . S
C1143 C1147 1.391 . S
C1144 C1143 1.387 . S
C1144 C1145 1.369 . S
C1144 H1153 0.929 . S
C1145 N1142 1.346 . S
C1145 C1144 1.369 . S
C1145 H1148 0.928 . S
C1146 N1142 1.345 . S
C1146 C1147 1.371 . S
C1146 H1149 0.931 . S
C1147 C1143 1.391 . S
C1147 C1146 1.371 . S
C1147 H1154 0.930 . S
H1148 C1145 0.928 . S
H1149 C1146 0.931 . S
H1150 C1126 0.930 . S
H1151 C1123 0.930 . S
H1152 C1132 0.930 . S
H1153 C1144 0.929 . S
H1154 C1147 0.930 . S
C1155 C1156 1.351 . S
C1155 N1158 1.368 . S
C1155 H1160 0.931 . S
C1156 C1155 1.351 . S
C1156 N1157 1.373 . S
C1156 H1184 0.930 . S
N1157 C1156 1.373 . S
N1157 C1159 1.340 . S
N1158 C1155 1.368 . S
N1158 C1159 1.321 . S
N1158 Co1161 2.135 . S
C1159 N1157 1.340 . S
C1159 N1158 1.321 . S
C1159 H1183 0.930 . S
H1160 C1155 0.931 . S
Co1161 N1158 2.135 . S
Co1161 N1164 2.121 . S
Co1161 O1169 2.055 . S
Co1161 O1172 2.039 . S
Co1161 N1175 2.140 . S
C1162 O1163 1.227 . S
C1162 O1172 1.265 . S
O1163 C1162 1.227 . S
N1164 Co1161 2.121 . S
N1164 C1166 1.375 . S
N1164 C1167 1.313 . S
C1165 C1166 1.338 . S
C1165 N1168 1.377 . S
C1165 H1185 0.930 . S
C1166 N1164 1.375 . S
C1166 C1165 1.338 . S
C1166 H1170 0.931 . S
C1167 N1164 1.313 . S
C1167 N1168 1.344 . S
C1167 H1171 0.930 . S
N1168 C1165 1.377 . S
N1168 C1167 1.344 . S
O1169 Co1161 2.055 . S
O1169 C1173 1.253 . S
H1170 C1166 0.931 . S
H1171 C1167 0.930 . S
O1172 Co1161 2.039 . S
O1172 C1162 1.265 . S
C1173 O1169 1.253 . S
C1173 O1174 1.227 . S
O1174 C1173 1.227 . S
N1175 Co1161 2.140 . S
N1175 C1178 1.346 . S
N1175 C1179 1.345 . S
C1176 C1177 1.387 . S
C1176 C1180 1.391 . S
C1177 C1176 1.387 . S
C1177 C1178 1.369 . S
C1177 H1186 0.929 . S
C1178 N1175 1.346 . S
C1178 C1177 1.369 . S
C1178 H1181 0.928 . S
C1179 N1175 1.345 . S
C1179 C1180 1.371 . S
C1179 H1182 0.931 . S
C1180 C1176 1.391 . S
C1180 C1179 1.371 . S
C1180 H1187 0.930 . S
H1181 C1178 0.928 . S
H1182 C1179 0.931 . S
H1183 C1159 0.930 . S
H1184 C1156 0.930 . S
H1185 C1165 0.930 . S
H1186 C1177 0.929 . S
H1187 C1180 0.930 . S
C1188 C1189 1.351 . S
C1188 N1191 1.368 . S
C1188 H1193 0.931 . S
C1189 C1188 1.351 . S
C1189 N1190 1.373 . S
C1189 H1217 0.930 . S
N1190 C1189 1.373 . S
N1190 C1192 1.340 . S
N1191 C1188 1.368 . S
N1191 C1192 1.321 . S
N1191 Co1194 2.135 . S
C1192 N1190 1.340 . S
C1192 N1191 1.321 . S
C1192 H1216 0.930 . S
H1193 C1188 0.931 . S
Co1194 N1191 2.135 . S
Co1194 N1197 2.121 . S
Co1194 O1202 2.055 . S
Co1194 O1205 2.039 . S
Co1194 N1208 2.140 . S
C1195 O1196 1.227 . S
C1195 O1205 1.265 . S
O1196 C1195 1.227 . S
N1197 Co1194 2.121 . S
N1197 C1199 1.375 . S
N1197 C1200 1.313 . S
C1198 C1199 1.338 . S
C1198 N1201 1.377 . S
C1198 H1218 0.930 . S
C1199 N1197 1.375 . S
C1199 C1198 1.338 . S
C1199 H1203 0.931 . S
C1200 N1197 1.313 . S
C1200 N1201 1.344 . S
C1200 H1204 0.930 . S
N1201 C1198 1.377 . S
N1201 C1200 1.344 . S
O1202 Co1194 2.055 . S
O1202 C1206 1.253 . S
H1203 C1199 0.931 . S
H1204 C1200 0.930 . S
O1205 Co1194 2.039 . S
O1205 C1195 1.265 . S
C1206 O1202 1.253 . S
C1206 O1207 1.227 . S
O1207 C1206 1.227 . S
N1208 Co1194 2.140 . S
N1208 C1211 1.346 . S
N1208 C1212 1.345 . S
C1209 C1210 1.387 . S
C1209 C1213 1.391 . S
C1210 C1209 1.387 . S
C1210 C1211 1.369 . S
C1210 H1219 0.929 . S
C1211 N1208 1.346 . S
C1211 C1210 1.369 . S
C1211 H1214 0.928 . S
C1212 N1208 1.345 . S
C1212 C1213 1.371 . S
C1212 H1215 0.931 . S
C1213 C1209 1.391 . S
C1213 C1212 1.371 . S
C1213 H1220 0.930 . S
H1214 C1211 0.928 . S
H1215 C1212 0.931 . S
H1216 C1192 0.930 . S
H1217 C1189 0.930 . S
H1218 C1198 0.930 . S
H1219 C1210 0.929 . S
H1220 C1213 0.930 . S
C1221 C1222 1.351 1_556 S
C1221 N1224 1.368 . S
C1221 H1226 0.931 . S
C1222 C1221 1.351 1_554 S
C1222 N1223 1.373 . S
C1222 H1250 0.930 . S
N1223 C1222 1.373 . S
N1223 C1225 1.322 1_554 S
N1224 C1221 1.368 . S
N1224 C1225 1.335 . S
N1224 Co1227 2.135 . S
C1225 N1223 1.322 1_556 S
C1225 N1224 1.335 . S
C1225 H1249 0.934 . S
H1226 C1221 0.931 . S
Co1227 N1224 2.135 . S
Co1227 N1230 2.121 . S
Co1227 O1235 2.055 . S
Co1227 O1238 2.039 . S
Co1227 N1241 2.140 . S
C1228 O1229 1.227 . S
C1228 O1238 1.265 . S
O1229 C1228 1.227 . S
N1230 Co1227 2.121 . S
N1230 C1232 1.375 . S
N1230 C1233 1.313 . S
C1231 C1232 1.338 . S
C1231 N1234 1.377 . S
C1231 H1251 0.930 . S
C1232 N1230 1.375 . S
C1232 C1231 1.338 . S
C1232 H1236 0.931 . S
C1233 N1230 1.313 . S
C1233 N1234 1.344 . S
C1233 H1237 0.930 . S
N1234 C1231 1.377 . S
N1234 C1233 1.344 . S
O1235 Co1227 2.055 . S
O1235 C1239 1.253 . S
H1236 C1232 0.931 . S
H1237 C1233 0.930 . S
O1238 Co1227 2.039 . S
O1238 C1228 1.265 . S
C1239 O1235 1.253 . S
C1239 O1240 1.227 . S
O1240 C1239 1.227 . S
N1241 Co1227 2.140 . S
N1241 C1244 1.346 . S
N1241 C1245 1.345 . S
C1242 C1243 1.387 . S
C1242 C1246 1.391 . S
C1243 C1242 1.387 . S
C1243 C1244 1.369 . S
C1243 H1252 0.929 . S
C1244 N1241 1.346 . S
C1244 C1243 1.369 . S
C1244 H1247 0.928 . S
C1245 N1241 1.345 . S
C1245 C1246 1.371 . S
C1245 H1248 0.931 . S
C1246 C1242 1.391 . S
C1246 C1245 1.371 . S
C1246 H1253 0.930 . S
H1247 C1244 0.928 . S
H1248 C1245 0.931 . S
H1249 C1225 0.934 . S
H1250 C1222 0.930 . S
H1251 C1231 0.930 . S
H1252 C1243 0.929 . S
H1253 C1246 0.930 . S
C1254 C1255 1.351 . S
C1254 N1257 1.368 . S
C1254 H1259 0.931 . S
C1255 C1254 1.351 . S
C1255 N1256 1.373 . S
C1255 H1283 0.930 . S
N1256 C1255 1.373 . S
N1256 C1258 1.340 . S
N1257 C1254 1.368 . S
N1257 C1258 1.321 . S
N1257 Co1260 2.135 . S
C1258 N1256 1.340 . S
C1258 N1257 1.321 . S
C1258 H1282 0.930 . S
H1259 C1254 0.931 . S
Co1260 N1257 2.135 . S
Co1260 N1263 2.121 . S
Co1260 O1268 2.055 . S
Co1260 O1271 2.039 . S
Co1260 N1274 2.140 . S
C1261 O1262 1.225 1_655 S
C1261 O1271 1.287 . S
O1262 C1261 1.225 1_455 S
N1263 Co1260 2.121 . S
N1263 C1265 1.375 . S
N1263 C1266 1.313 . S
C1264 C1265 1.338 . S
C1264 N1267 1.377 . S
C1264 H1284 0.930 . S
C1265 N1263 1.375 . S
C1265 C1264 1.338 . S
C1265 H1269 0.931 . S
C1266 N1263 1.313 . S
C1266 N1267 1.344 . S
C1266 H1270 0.930 . S
N1267 C1264 1.377 . S
N1267 C1266 1.344 . S
O1268 Co1260 2.055 . S
O1268 C1272 1.253 . S
H1269 C1265 0.931 . S
H1270 C1266 0.930 . S
O1271 Co1260 2.039 . S
O1271 C1261 1.287 . S
C1272 O1268 1.253 . S
C1272 O1273 1.227 . S
O1273 C1272 1.227 . S
N1274 Co1260 2.140 . S
N1274 C1277 1.346 . S
N1274 C1278 1.345 . S
C1275 C1276 1.387 . S
C1275 C1279 1.391 . S
C1276 C1275 1.387 . S
C1276 C1277 1.369 . S
C1276 H1285 0.929 . S
C1277 N1274 1.346 . S
C1277 C1276 1.369 . S
C1277 H1280 0.928 . S
C1278 N1274 1.345 . S
C1278 C1279 1.371 . S
C1278 H1281 0.931 . S
C1279 C1275 1.391 . S
C1279 C1278 1.371 . S
C1279 H1286 0.930 . S
H1280 C1277 0.928 . S
H1281 C1278 0.931 . S
H1282 C1258 0.930 . S
H1283 C1255 0.930 . S
H1284 C1264 0.930 . S
H1285 C1276 0.929 . S
H1286 C1279 0.930 . S
C1287 C1288 1.351 . S
C1287 N1290 1.368 . S
C1287 H1292 0.931 . S
C1288 C1287 1.351 . S
C1288 N1289 1.373 . S
C1288 H1316 0.930 . S
N1289 C1288 1.373 . S
N1289 C1291 1.340 . S
N1290 C1287 1.368 . S
N1290 C1291 1.321 . S
N1290 Co1293 2.135 . S
C1291 N1289 1.340 . S
C1291 N1290 1.321 . S
C1291 H1315 0.930 . S
H1292 C1287 0.931 . S
Co1293 N1290 2.135 . S
Co1293 N1296 2.121 . S
Co1293 O1301 2.055 . S
Co1293 O1304 2.039 . S
Co1293 N1307 2.140 . S
C1294 O1295 1.227 . S
C1294 O1304 1.265 . S
O1295 C1294 1.227 . S
N1296 Co1293 2.121 . S
N1296 C1298 1.375 . S
N1296 C1299 1.313 . S
C1297 C1298 1.338 . S
C1297 N1300 1.377 . S
C1297 H1317 0.930 . S
C1298 N1296 1.375 . S
C1298 C1297 1.338 . S
C1298 H1302 0.931 . S
C1299 N1296 1.313 . S
C1299 N1300 1.344 . S
C1299 H1303 0.930 . S
N1300 C1297 1.377 . S
N1300 C1299 1.344 . S
O1301 Co1293 2.055 . S
O1301 C1305 1.253 . S
H1302 C1298 0.931 . S
H1303 C1299 0.930 . S
O1304 Co1293 2.039 . S
O1304 C1294 1.265 . S
C1305 O1301 1.253 . S
C1305 O1306 1.227 . S
O1306 C1305 1.227 . S
N1307 Co1293 2.140 . S
N1307 C1310 1.346 . S
N1307 C1311 1.345 . S
C1308 C1309 1.387 . S
C1308 C1312 1.391 . S
C1309 C1308 1.387 . S
C1309 C1310 1.369 . S
C1309 H1318 0.929 . S
C1310 N1307 1.346 . S
C1310 C1309 1.369 . S
C1310 H1313 0.928 . S
C1311 N1307 1.345 . S
C1311 C1312 1.371 . S
C1311 H1314 0.931 . S
C1312 C1308 1.391 . S
C1312 C1311 1.371 . S
C1312 H1319 0.930 . S
H1313 C1310 0.928 . S
H1314 C1311 0.931 . S
H1315 C1291 0.930 . S
H1316 C1288 0.930 . S
H1317 C1297 0.930 . S
H1318 C1309 0.929 . S
H1319 C1312 0.930 . S
C1320 C1321 1.351 . S
C1320 N1323 1.368 . S
C1320 H1325 0.931 . S
C1321 C1320 1.351 . S
C1321 N1322 1.373 . S
C1321 H1349 0.930 . S
N1322 C1321 1.373 . S
N1322 C1324 1.340 . S
N1323 C1320 1.368 . S
N1323 C1324 1.321 . S
N1323 Co1326 2.135 . S
C1324 N1322 1.340 . S
C1324 N1323 1.321 . S
C1324 H1348 0.930 . S
H1325 C1320 0.931 . S
Co1326 N1323 2.135 . S
Co1326 N1329 2.121 . S
Co1326 O1334 2.055 . S
Co1326 O1337 2.039 . S
Co1326 N1340 2.140 . S
C1327 O1328 1.227 . S
C1327 O1337 1.265 . S
O1328 C1327 1.227 . S
N1329 Co1326 2.121 . S
N1329 C1331 1.375 1_655 S
N1329 C1332 1.313 1_655 S
C1330 C1331 1.338 . S
C1330 N1333 1.377 . S
C1330 H1350 0.930 . S
C1331 N1329 1.375 1_455 S
C1331 C1330 1.338 . S
C1331 H1335 0.931 1_455 S
C1332 N1329 1.313 1_455 S
C1332 N1333 1.344 . S
C1332 H1336 0.930 . S
N1333 C1330 1.377 . S
N1333 C1332 1.344 . S
O1334 Co1326 2.055 . S
O1334 C1338 1.253 . S
H1335 C1331 0.931 1_655 S
H1336 C1332 0.930 . S
O1337 Co1326 2.039 . S
O1337 C1327 1.265 . S
C1338 O1334 1.253 . S
C1338 O1339 1.227 . S
O1339 C1338 1.227 . S
N1340 Co1326 2.140 . S
N1340 C1343 1.346 . S
N1340 C1344 1.345 . S
C1341 C1342 1.387 . S
C1341 C1345 1.391 . S
C1342 C1341 1.387 . S
C1342 C1343 1.369 . S
C1342 H1351 0.929 . S
C1343 N1340 1.346 . S
C1343 C1342 1.369 . S
C1343 H1346 0.928 . S
C1344 N1340 1.345 . S
C1344 C1345 1.371 . S
C1344 H1347 0.931 . S
C1345 C1341 1.391 . S
C1345 C1344 1.371 . S
C1345 H1352 0.930 . S
H1346 C1343 0.928 . S
H1347 C1344 0.931 . S
H1348 C1324 0.930 . S
H1349 C1321 0.930 . S
H1350 C1330 0.930 . S
H1351 C1342 0.929 . S
H1352 C1345 0.930 . S
C1353 C1354 1.351 . S
C1353 N1356 1.368 . S
C1353 H1358 0.931 . S
C1354 C1353 1.351 . S
C1354 N1355 1.373 . S
C1354 H1382 0.930 . S
N1355 C1354 1.373 . S
N1355 C1357 1.340 . S
N1356 C1353 1.368 . S
N1356 C1357 1.321 . S
N1356 Co1359 2.135 . S
C1357 N1355 1.340 . S
C1357 N1356 1.321 . S
C1357 H1381 0.930 . S
H1358 C1353 0.931 . S
Co1359 N1356 2.135 . S
Co1359 N1362 2.121 . S
Co1359 O1367 2.055 . S
Co1359 O1370 2.039 . S
Co1359 N1373 2.140 . S
C1360 O1361 1.225 1_565 S
C1360 O1370 1.280 . S
O1361 C1360 1.225 1_545 S
N1362 Co1359 2.121 . S
N1362 C1364 1.375 . S
N1362 C1365 1.313 . S
C1363 C1364 1.338 . S
C1363 N1366 1.377 . S
C1363 H1383 0.930 . S
C1364 N1362 1.375 . S
C1364 C1363 1.338 . S
C1364 H1368 0.931 . S
C1365 N1362 1.313 . S
C1365 N1366 1.344 . S
C1365 H1369 0.930 . S
N1366 C1363 1.377 . S
N1366 C1365 1.344 . S
O1367 Co1359 2.055 . S
O1367 C1371 1.253 . S
H1368 C1364 0.931 . S
H1369 C1365 0.930 . S
O1370 Co1359 2.039 . S
O1370 C1360 1.280 . S
C1371 O1367 1.253 . S
C1371 O1372 1.227 . S
O1372 C1371 1.227 . S
N1373 Co1359 2.140 . S
N1373 C1376 1.346 . S
N1373 C1377 1.345 . S
C1374 C1375 1.387 . S
C1374 C1378 1.391 . S
C1375 C1374 1.387 . S
C1375 C1376 1.369 . S
C1375 H1384 0.929 . S
C1376 N1373 1.346 . S
C1376 C1375 1.369 . S
C1376 H1379 0.928 . S
C1377 N1373 1.345 . S
C1377 C1378 1.371 . S
C1377 H1380 0.931 . S
C1378 C1374 1.391 . S
C1378 C1377 1.371 . S
C1378 H1385 0.930 . S
H1379 C1376 0.928 . S
H1380 C1377 0.931 . S
H1381 C1357 0.930 . S
H1382 C1354 0.930 . S
H1383 C1363 0.930 . S
H1384 C1375 0.929 . S
H1385 C1378 0.930 . S
C1386 C1387 1.351 . S
C1386 N1389 1.368 . S
C1386 H1391 0.931 . S
C1387 C1386 1.351 . S
C1387 N1388 1.373 . S
C1387 H1415 0.930 . S
N1388 C1387 1.373 . S
N1388 C1390 1.340 . S
N1389 C1386 1.368 . S
N1389 C1390 1.321 . S
N1389 Co1392 2.135 . S
C1390 N1388 1.340 . S
C1390 N1389 1.321 . S
C1390 H1414 0.930 . S
H1391 C1386 0.931 . S
Co1392 N1389 2.135 . S
Co1392 N1395 2.121 . S
Co1392 O1400 2.055 . S
Co1392 O1403 2.039 . S
Co1392 N1406 2.140 . S
C1393 O1394 1.227 . S
C1393 O1403 1.265 . S
O1394 C1393 1.227 . S
N1395 Co1392 2.121 . S
N1395 C1397 1.375 . S
N1395 C1398 1.313 . S
C1396 C1397 1.338 . S
C1396 N1399 1.377 . S
C1396 H1416 0.930 . S
C1397 N1395 1.375 . S
C1397 C1396 1.338 . S
C1397 H1401 0.931 . S
C1398 N1395 1.313 . S
C1398 N1399 1.344 . S
C1398 H1402 0.930 . S
N1399 C1396 1.377 . S
N1399 C1398 1.344 . S
O1400 Co1392 2.055 . S
O1400 C1404 1.253 . S
H1401 C1397 0.931 . S
H1402 C1398 0.930 . S
O1403 Co1392 2.039 . S
O1403 C1393 1.265 . S
C1404 O1400 1.253 . S
C1404 O1405 1.227 . S
O1405 C1404 1.227 . S
N1406 Co1392 2.140 . S
N1406 C1409 1.346 . S
N1406 C1410 1.345 . S
C1407 C1408 1.387 . S
C1407 C1411 1.391 . S
C1408 C1407 1.387 . S
C1408 C1409 1.369 . S
C1408 H1417 0.929 . S
C1409 N1406 1.346 . S
C1409 C1408 1.369 . S
C1409 H1412 0.928 . S
C1410 N1406 1.345 . S
C1410 C1411 1.371 . S
C1410 H1413 0.931 . S
C1411 C1407 1.391 . S
C1411 C1410 1.371 . S
C1411 H1418 0.930 . S
H1412 C1409 0.928 . S
H1413 C1410 0.931 . S
H1414 C1390 0.930 . S
H1415 C1387 0.930 . S
H1416 C1396 0.930 . S
H1417 C1408 0.929 . S
H1418 C1411 0.930 . S
C1419 C1420 1.351 . S
C1419 N1422 1.368 . S
C1419 H1424 0.931 . S
C1420 C1419 1.351 . S
C1420 N1421 1.373 . S
C1420 H1448 0.930 . S
N1421 C1420 1.373 . S
N1421 C1423 1.340 . S
N1422 C1419 1.368 . S
N1422 C1423 1.321 . S
N1422 Co1425 2.135 . S
C1423 N1421 1.340 . S
C1423 N1422 1.321 . S
C1423 H1447 0.930 . S
H1424 C1419 0.931 . S
Co1425 N1422 2.135 . S
Co1425 N1428 2.121 . S
Co1425 O1433 2.055 . S
Co1425 O1436 2.039 . S
Co1425 N1439 2.140 . S
C1426 O1427 1.227 . S
C1426 O1436 1.265 . S
O1427 C1426 1.227 . S
N1428 Co1425 2.121 . S
N1428 C1430 1.375 . S
N1428 C1431 1.313 . S
C1429 C1430 1.338 . S
C1429 N1432 1.377 . S
C1429 H1449 0.930 . S
C1430 N1428 1.375 . S
C1430 C1429 1.338 . S
C1430 H1434 0.931 . S
C1431 N1428 1.313 . S
C1431 N1432 1.344 . S
C1431 H1435 0.930 . S
N1432 C1429 1.377 . S
N1432 C1431 1.344 . S
O1433 Co1425 2.055 . S
O1433 C1437 1.253 . S
H1434 C1430 0.931 . S
H1435 C1431 0.930 . S
O1436 Co1425 2.039 . S
O1436 C1426 1.265 . S
C1437 O1433 1.253 . S
C1437 O1438 1.227 . S
O1438 C1437 1.227 . S
N1439 Co1425 2.140 . S
N1439 C1442 1.346 . S
N1439 C1443 1.345 . S
C1440 C1441 1.387 1_556 S
C1440 C1444 1.391 . S
C1441 C1440 1.387 1_554 S
C1441 C1442 1.369 . S
C1441 H1450 0.929 . S
C1442 N1439 1.346 . S
C1442 C1441 1.369 . S
C1442 H1445 0.928 . S
C1443 N1439 1.345 . S
C1443 C1444 1.371 1_554 S
C1443 H1446 0.931 . S
C1444 C1440 1.391 . S
C1444 C1443 1.371 1_556 S
C1444 H1451 0.930 . S
H1445 C1442 0.928 . S
H1446 C1443 0.931 . S
H1447 C1423 0.930 . S
H1448 C1420 0.930 . S
H1449 C1429 0.930 . S
H1450 C1441 0.929 . S
H1451 C1444 0.930 . S
C1452 C1453 1.351 . S
C1452 N1455 1.368 . S
C1452 H1457 0.931 . S
C1453 C1452 1.351 . S
C1453 N1454 1.373 . S
C1453 H1481 0.930 . S
N1454 C1453 1.373 . S
N1454 C1456 1.340 . S
N1455 C1452 1.368 . S
N1455 C1456 1.321 . S
N1455 Co1458 2.135 . S
C1456 N1454 1.340 . S
C1456 N1455 1.321 . S
C1456 H1480 0.930 . S
H1457 C1452 0.931 . S
Co1458 N1455 2.135 . S
Co1458 N1461 2.121 . S
Co1458 O1466 2.055 . S
Co1458 O1469 2.039 . S
Co1458 N1472 2.140 . S
C1459 O1460 1.227 . S
C1459 O1469 1.265 . S
O1460 C1459 1.227 . S
N1461 Co1458 2.121 . S
N1461 C1463 1.375 . S
N1461 C1464 1.313 . S
C1462 C1463 1.338 . S
C1462 N1465 1.377 . S
C1462 H1482 0.930 . S
C1463 N1461 1.375 . S
C1463 C1462 1.338 . S
C1463 H1467 0.931 . S
C1464 N1461 1.313 . S
C1464 N1465 1.344 . S
C1464 H1468 0.930 . S
N1465 C1462 1.377 . S
N1465 C1464 1.344 . S
O1466 Co1458 2.055 . S
O1466 C1470 1.253 . S
H1467 C1463 0.931 . S
H1468 C1464 0.930 . S
O1469 Co1458 2.039 . S
O1469 C1459 1.265 . S
C1470 O1466 1.253 . S
C1470 O1471 1.227 . S
O1471 C1470 1.227 . S
N1472 Co1458 2.140 . S
N1472 C1475 1.346 . S
N1472 C1476 1.345 . S
C1473 C1474 1.387 . S
C1473 C1477 1.391 . S
C1474 C1473 1.387 . S
C1474 C1475 1.369 . S
C1474 H1483 0.929 . S
C1475 N1472 1.346 . S
C1475 C1474 1.369 . S
C1475 H1478 0.928 . S
C1476 N1472 1.345 . S
C1476 C1477 1.371 . S
C1476 H1479 0.931 . S
C1477 C1473 1.391 . S
C1477 C1476 1.371 . S
C1477 H1484 0.930 . S
H1478 C1475 0.928 . S
H1479 C1476 0.931 . S
H1480 C1456 0.930 . S
H1481 C1453 0.930 . S
H1482 C1462 0.930 . S
H1483 C1474 0.929 . S
H1484 C1477 0.930 . S
C1485 C1486 1.351 . S
C1485 N1488 1.368 . S
C1485 H1490 0.931 . S
C1486 C1485 1.351 . S
C1486 N1487 1.373 . S
C1486 H1514 0.930 . S
N1487 C1486 1.373 . S
N1487 C1489 1.340 . S
N1488 C1485 1.368 . S
N1488 C1489 1.321 . S
N1488 Co1491 2.135 . S
C1489 N1487 1.340 . S
C1489 N1488 1.321 . S
C1489 H1513 0.930 . S
H1490 C1485 0.931 . S
Co1491 N1488 2.135 . S
Co1491 N1494 2.121 . S
Co1491 O1499 2.055 . S
Co1491 O1502 2.039 . S
Co1491 N1505 2.140 . S
C1492 O1493 1.227 . S
C1492 O1502 1.265 . S
O1493 C1492 1.227 . S
N1494 Co1491 2.121 . S
N1494 C1496 1.375 . S
N1494 C1497 1.313 . S
C1495 C1496 1.338 . S
C1495 N1498 1.377 . S
C1495 H1515 0.930 . S
C1496 N1494 1.375 . S
C1496 C1495 1.338 . S
C1496 H1500 0.931 . S
C1497 N1494 1.313 . S
C1497 N1498 1.344 . S
C1497 H1501 0.930 . S
N1498 C1495 1.377 . S
N1498 C1497 1.344 . S
O1499 Co1491 2.055 . S
O1499 C1503 1.253 . S
H1500 C1496 0.931 . S
H1501 C1497 0.930 . S
O1502 Co1491 2.039 . S
O1502 C1492 1.265 . S
C1503 O1499 1.253 . S
C1503 O1504 1.227 . S
O1504 C1503 1.227 . S
N1505 Co1491 2.140 . S
N1505 C1508 1.346 . S
N1505 C1509 1.345 . S
C1506 C1507 1.387 . S
C1506 C1510 1.391 . S
C1507 C1506 1.387 . S
C1507 C1508 1.369 . S
C1507 H1516 0.929 . S
C1508 N1505 1.346 . S
C1508 C1507 1.369 . S
C1508 H1511 0.928 . S
C1509 N1505 1.345 . S
C1509 C1510 1.371 . S
C1509 H1512 0.931 . S
C1510 C1506 1.391 . S
C1510 C1509 1.371 . S
C1510 H1517 0.930 . S
H1511 C1508 0.928 . S
H1512 C1509 0.931 . S
H1513 C1489 0.930 . S
H1514 C1486 0.930 . S
H1515 C1495 0.930 . S
H1516 C1507 0.929 . S
H1517 C1510 0.930 . S
C1518 C1519 1.351 1_565 S
C1518 N1521 1.368 . S
C1518 H1523 0.931 . S
C1519 C1518 1.351 1_545 S
C1519 N1520 1.373 . S
C1519 H1547 0.930 . S
N1520 C1519 1.373 . S
N1520 C1522 1.322 1_545 S
N1521 C1518 1.368 . S
N1521 C1522 1.335 . S
N1521 Co1524 2.135 . S
C1522 N1520 1.322 1_565 S
C1522 N1521 1.335 . S
C1522 H1546 0.934 . S
H1523 C1518 0.931 . S
Co1524 N1521 2.135 . S
Co1524 N1527 2.121 . S
Co1524 O1532 2.055 . S
Co1524 O1535 2.039 . S
Co1524 N1538 2.140 . S
C1525 O1526 1.227 . S
C1525 O1535 1.265 . S
O1526 C1525 1.227 . S
N1527 Co1524 2.121 . S
N1527 C1529 1.375 . S
N1527 C1530 1.313 . S
C1528 C1529 1.338 . S
C1528 N1531 1.377 . S
C1528 H1548 0.930 . S
C1529 N1527 1.375 . S
C1529 C1528 1.338 . S
C1529 H1533 0.931 . S
C1530 N1527 1.313 . S
C1530 N1531 1.344 . S
C1530 H1534 0.930 . S
N1531 C1528 1.377 . S
N1531 C1530 1.344 . S
O1532 Co1524 2.055 . S
O1532 C1536 1.253 . S
H1533 C1529 0.931 . S
H1534 C1530 0.930 . S
O1535 Co1524 2.039 . S
O1535 C1525 1.265 . S
C1536 O1532 1.253 . S
C1536 O1537 1.227 . S
O1537 C1536 1.227 . S
N1538 Co1524 2.140 . S
N1538 C1541 1.346 . S
N1538 C1542 1.345 . S
C1539 C1540 1.387 . S
C1539 C1543 1.391 . S
C1540 C1539 1.387 . S
C1540 C1541 1.369 . S
C1540 H1549 0.929 . S
C1541 N1538 1.346 . S
C1541 C1540 1.369 . S
C1541 H1544 0.928 . S
C1542 N1538 1.345 . S
C1542 C1543 1.371 . S
C1542 H1545 0.931 . S
C1543 C1539 1.391 . S
C1543 C1542 1.371 . S
C1543 H1550 0.930 . S
H1544 C1541 0.928 . S
H1545 C1542 0.931 . S
H1546 C1522 0.934 . S
H1547 C1519 0.930 . S
H1548 C1528 0.930 . S
H1549 C1540 0.929 . S
H1550 C1543 0.930 . S
C1551 C1552 1.351 . S
C1551 N1554 1.368 . S
C1551 H1556 0.931 . S
C1552 C1551 1.351 . S
C1552 N1553 1.373 . S
C1552 H1580 0.930 . S
N1553 C1552 1.373 . S
N1553 C1555 1.340 . S
N1554 C1551 1.368 . S
N1554 C1555 1.321 . S
N1554 Co1557 2.135 . S
C1555 N1553 1.340 . S
C1555 N1554 1.321 . S
C1555 H1579 0.930 . S
H1556 C1551 0.931 . S
Co1557 N1554 2.135 . S
Co1557 N1560 2.121 . S
Co1557 O1565 2.055 . S
Co1557 O1568 2.039 . S
Co1557 N1571 2.140 . S
C1558 O1559 1.227 . S
C1558 O1568 1.265 . S
O1559 C1558 1.227 . S
N1560 Co1557 2.121 . S
N1560 C1562 1.375 . S
N1560 C1563 1.313 . S
C1561 C1562 1.338 . S
C1561 N1564 1.377 . S
C1561 H1581 0.930 . S
C1562 N1560 1.375 . S
C1562 C1561 1.338 . S
C1562 H1566 0.931 . S
C1563 N1560 1.313 . S
C1563 N1564 1.344 . S
C1563 H1567 0.930 . S
N1564 C1561 1.377 . S
N1564 C1563 1.344 . S
O1565 Co1557 2.055 . S
O1565 C1569 1.253 . S
H1566 C1562 0.931 . S
H1567 C1563 0.930 . S
O1568 Co1557 2.039 . S
O1568 C1558 1.265 . S
C1569 O1565 1.253 . S
C1569 O1570 1.227 . S
O1570 C1569 1.227 . S
N1571 Co1557 2.140 . S
N1571 C1574 1.346 . S
N1571 C1575 1.345 . S
C1572 C1573 1.387 . S
C1572 C1576 1.391 . S
C1573 C1572 1.387 . S
C1573 C1574 1.369 . S
C1573 H1582 0.929 . S
C1574 N1571 1.346 . S
C1574 C1573 1.369 . S
C1574 H1577 0.928 . S
C1575 N1571 1.345 . S
C1575 C1576 1.371 . S
C1575 H1578 0.931 . S
C1576 C1572 1.391 . S
C1576 C1575 1.371 . S
C1576 H1583 0.930 . S
H1577 C1574 0.928 . S
H1578 C1575 0.931 . S
H1579 C1555 0.930 . S
H1580 C1552 0.930 . S
H1581 C1561 0.930 . S
H1582 C1573 0.929 . S
H1583 C1576 0.930 . S
C978 C21 1.491 . S
C54 C1011 1.491 . S
C87 C1044 1.490 . S
C945 C120 1.491 . S
C912 C153 1.490 . S
C813 C186 1.491 . S
C219 C846 1.491 . S
C879 C252 1.490 . S
C285 C1572 1.491 . S
C714 C318 1.491 . S
C351 C1539 1.491 . S
C549 C384 1.491 . S
C417 C681 1.490 . S
C450 C1374 1.491 . S
C483 C1407 1.490 . S
C1440 C516 1.490 . S
C582 C1242 1.491 . S
C1275 C615 1.491 . S
C648 C1308 1.490 . S
C747 C1143 1.491 . S
C1077 C780 1.491 . S
C1110 C1506 1.490 . S
C1176 C1341 1.491 . S
C1473 C1209 1.490 . S
C744 C18 2.525 1_655 S
C1338 C51 2.525 . S
C777 C84 2.525 . S
C1503 C117 2.526 1_554 S
C612 C150 2.526 1_655 S
C183 C645 2.525 . S
C1470 C216 2.525 . S
C579 C249 2.525 . S
C447 C282 2.525 1_565 S
C315 C480 2.526 1_565 S
C513 C348 2.525 . S
C414 C381 2.525 . S
C546 C843 2.525 1_554 S
C678 C1008 2.525 . S
C711 C909 2.526 . S
C810 C1536 2.525 . S
C1569 C876 2.525 . S
C1404 C942 2.526 . S
C975 C1437 2.525 . S
C1041 C1371 2.525 . S
C1239 C1074 2.525 . S
C1272 C1107 2.526 . S
C1140 C1305 2.525 . S
C1173 C1206 2.525 . S
N233 N2 0.300 . S
N134 N35 0.299 . S
N167 N68 0.299 . S
N200 N101 0.299 . S
N266 N662 0.300 . S
N1355 N299 0.299 . S
N1388 N332 0.299 . S
N365 N1421 0.299 . S
N398 N1553 0.299 . S
N431 N695 0.299 . S
N1520 N464 0.299 . S
N497 N530 0.300 . S
N1091 N563 0.299 . S
N596 N1124 0.299 . S
N1157 N629 0.299 . S
N728 N1256 0.299 . S
N1190 N761 0.299 . S
N1025 N794 0.299 . S
N926 N827 0.299 . S
N959 N860 0.299 . S
N893 N992 0.298 . S
N1058 N1454 0.299 . S
N1487 N1223 0.299 . S
N1322 N1289 0.299 . S
N574 C7 3.226 . S
C40 N607 3.226 . S
C73 N640 3.226 . S
C106 N1465 3.228 . S
N1333 C139 3.227 . S
N772 C172 3.226 . S
N1498 C205 3.209 1_554 S
C238 N739 3.226 . S
C271 N1003 3.226 . S
N1036 C304 3.228 . S
N937 C337 3.226 . S
N970 C370 3.226 . S
N871 C403 3.226 . S
C436 N904 3.226 . S
N805 C469 3.227 . S
C502 N838 3.226 . S
C535 N343 3.226 . S
C568 N1267 3.226 . S
C601 N1300 3.228 . S
C634 N1201 3.226 . S
N442 C667 3.226 . S
N277 C700 3.203 1_545 S
C733 N1102 3.226 . S
N1168 C766 3.226 . S
C799 N1366 3.225 . S
N1399 C832 3.226 . S
C865 N1432 3.226 . S
C898 N673 3.227 . S
C931 N541 3.203 1_556 S
C964 N1564 3.226 . S
C997 N706 3.226 . S
N1531 C1030 3.225 . S
C1063 N211 3.225 . S
C1096 N244 3.227 . S
C1129 N145 3.209 1_655 S
N178 C1162 3.226 . S
C1195 N79 3.226 . S
N112 C1228 3.226 . S
C1261 N13 3.203 1_655 S
C1294 N46 3.225 . S
N1135 C1327 3.225 . S
C1360 N475 3.209 1_565 S
N508 C1393 3.227 . S
C1426 N409 3.226 . S
N1234 C1459 3.225 . S
N1069 C1492 3.227 . S
N310 C1525 3.226 . S
N376 C1558 3.226 . S
