# Generated by pormake.
# Topology uki, (4)-cn, num edge types: 1
# Building blocks:
#     Node 0, Type 0, BuildingBlock: CEKHIL_clean_sbu_0, # of connection points: 4
#     Node 1, Type 0, BuildingBlock: CEKHIL_clean_sbu_0, # of connection points: 4
#     Node 2, Type 0, BuildingBlock: CEKHIL_clean_sbu_0, # of connection points: 4
#     Node 3, Type 0, BuildingBlock: CEKHIL_clean_sbu_0, # of connection points: 4
#     Node 4, Type 0, BuildingBlock: CEKHIL_clean_sbu_0, # of connection points: 4
#     Node 5, Type 0, BuildingBlock: CEKHIL_clean_sbu_0, # of connection points: 4
#     Node 6, Type 0, BuildingBlock: CEKHIL_clean_sbu_0, # of connection points: 4
#     Node 7, Type 0, BuildingBlock: CEKHIL_clean_sbu_0, # of connection points: 4
#     Node 8, Type 0, BuildingBlock: CEKHIL_clean_sbu_0, # of connection points: 4
#     Node 9, Type 0, BuildingBlock: CEKHIL_clean_sbu_0, # of connection points: 4
#     Node 10, Type 0, BuildingBlock: CEKHIL_clean_sbu_0, # of connection points: 4
#     Node 11, Type 0, BuildingBlock: CEKHIL_clean_sbu_0, # of connection points: 4
#     Node 12, Type 0, BuildingBlock: CEKHIL_clean_sbu_0, # of connection points: 4
#     Node 13, Type 0, BuildingBlock: CEKHIL_clean_sbu_0, # of connection points: 4
#     Node 14, Type 0, BuildingBlock: CEKHIL_clean_sbu_0, # of connection points: 4
#     Node 15, Type 0, BuildingBlock: CEKHIL_clean_sbu_0, # of connection points: 4
#     Edge 16, Type (0, 0), BuildingBlock: MIFKUJ_clean_linker_0, # of connection points: 2
#     Edge 17, Type (0, 0), BuildingBlock: MIFKUJ_clean_linker_0, # of connection points: 2
#     Edge 18, Type (0, 0), BuildingBlock: MIFKUJ_clean_linker_0, # of connection points: 2
#     Edge 19, Type (0, 0), BuildingBlock: MIFKUJ_clean_linker_0, # of connection points: 2
#     Edge 20, Type (0, 0), BuildingBlock: MIFKUJ_clean_linker_0, # of connection points: 2
#     Edge 21, Type (0, 0), BuildingBlock: MIFKUJ_clean_linker_0, # of connection points: 2
#     Edge 22, Type (0, 0), BuildingBlock: MIFKUJ_clean_linker_0, # of connection points: 2
#     Edge 23, Type (0, 0), BuildingBlock: MIFKUJ_clean_linker_0, # of connection points: 2
#     Edge 24, Type (0, 0), BuildingBlock: MIFKUJ_clean_linker_0, # of connection points: 2
#     Edge 25, Type (0, 0), BuildingBlock: MIFKUJ_clean_linker_0, # of connection points: 2
#     Edge 26, Type (0, 0), BuildingBlock: MIFKUJ_clean_linker_0, # of connection points: 2
#     Edge 27, Type (0, 0), BuildingBlock: MIFKUJ_clean_linker_0, # of connection points: 2
#     Edge 28, Type (0, 0), BuildingBlock: MIFKUJ_clean_linker_0, # of connection points: 2
#     Edge 29, Type (0, 0), BuildingBlock: MIFKUJ_clean_linker_0, # of connection points: 2
#     Edge 30, Type (0, 0), BuildingBlock: MIFKUJ_clean_linker_0, # of connection points: 2
#     Edge 31, Type (0, 0), BuildingBlock: MIFKUJ_clean_linker_0, # of connection points: 2
#     Edge 32, Type (0, 0), BuildingBlock: MIFKUJ_clean_linker_0, # of connection points: 2
#     Edge 33, Type (0, 0), BuildingBlock: MIFKUJ_clean_linker_0, # of connection points: 2
#     Edge 34, Type (0, 0), BuildingBlock: MIFKUJ_clean_linker_0, # of connection points: 2
#     Edge 35, Type (0, 0), BuildingBlock: MIFKUJ_clean_linker_0, # of connection points: 2
#     Edge 36, Type (0, 0), BuildingBlock: MIFKUJ_clean_linker_0, # of connection points: 2
#     Edge 37, Type (0, 0), BuildingBlock: MIFKUJ_clean_linker_0, # of connection points: 2
#     Edge 38, Type (0, 0), BuildingBlock: MIFKUJ_clean_linker_0, # of connection points: 2
#     Edge 39, Type (0, 0), BuildingBlock: MIFKUJ_clean_linker_0, # of connection points: 2
#     Edge 40, Type (0, 0), BuildingBlock: MIFKUJ_clean_linker_0, # of connection points: 2
#     Edge 41, Type (0, 0), BuildingBlock: MIFKUJ_clean_linker_0, # of connection points: 2
#     Edge 42, Type (0, 0), BuildingBlock: MIFKUJ_clean_linker_0, # of connection points: 2
#     Edge 43, Type (0, 0), BuildingBlock: MIFKUJ_clean_linker_0, # of connection points: 2
#     Edge 44, Type (0, 0), BuildingBlock: MIFKUJ_clean_linker_0, # of connection points: 2
#     Edge 45, Type (0, 0), BuildingBlock: MIFKUJ_clean_linker_0, # of connection points: 2
#     Edge 46, Type (0, 0), BuildingBlock: MIFKUJ_clean_linker_0, # of connection points: 2
#     Edge 47, Type (0, 0), BuildingBlock: MIFKUJ_clean_linker_0, # of connection points: 2
# Relax obj value: 0.101
# Max RMSD: 0.197
# Mean RMSD: 0.197
data_MOF--net-uki--node1-CEKHIL_clean_sbu_0--edge1-MIFKUJ_clean_linker_0
_symmetry_space_group_name_H-M    P1
_symmetry_Int_Tables_number       1
_symmetry_cell_setting            triclinic
loop_
_symmetry_equiv_pos_as_xyz
'x, y, z'
_cell_length_a     39.432503
_cell_length_b     39.448505
_cell_length_c     93.514358
_cell_angle_alpha  90.002551
_cell_angle_beta   90.003197
_cell_angle_gamma 89.998136
loop_
_atom_site_label
_atom_site_type_symbol
_atom_site_fract_x
_atom_site_fract_y
_atom_site_fract_z
_atom_type_partial_charge
Co0 Co 0.12537 0.213 0.29005 0.0
O1 O 0.16626 0.19432 0.29798 0.0
O2 O 0.11985 0.20541 0.31042 0.0
C3 C 0.15027 0.25492 0.27744 0.0
O4 O 0.07914 0.23384 0.28548 0.0
Co5 Co 0.11408 0.2116 0.25716 0.0
O6 O 0.07903 0.24584 0.26195 0.0
C7 C 0.10037 0.1499 0.27411 0.0
C8 C 0.15121 0.19506 0.31031 0.0
C9 C 0.06607 0.24827 0.27441 0.0
O10 O 0.10733 0.16619 0.28568 0.0
O11 O 0.10361 0.1629 0.26163 0.0
O12 O 0.14451 0.25838 0.29103 0.0
O13 O 0.14454 0.22502 0.27232 0.0
Co14 Co 0.21275 0.87019 0.71316 0.0
O15 O 0.1938 0.82952 0.70506 0.0
O16 O 0.20542 0.87607 0.69281 0.0
C17 C 0.25447 0.84496 0.72578 0.0
O18 O 0.23378 0.91619 0.71778 0.0
Co19 Co 0.21179 0.88162 0.74603 0.0
O20 O 0.24639 0.91634 0.74124 0.0
C21 C 0.15042 0.89721 0.72905 0.0
C22 C 0.19486 0.8448 0.69279 0.0
C23 C 0.24846 0.92928 0.72878 0.0
O24 O 0.16613 0.88885 0.71749 0.0
O25 O 0.16358 0.8942 0.74151 0.0
O26 O 0.25802 0.85072 0.7122 0.0
O27 O 0.22457 0.85084 0.7309 0.0
Co28 Co 0.87131 0.78456 0.28781 0.0
O29 O 0.83066 0.80439 0.29547 0.0
O30 O 0.8761 0.79165 0.30825 0.0
C31 C 0.8457 0.74369 0.27487 0.0
O32 O 0.91705 0.76242 0.28353 0.0
Co33 Co 0.88405 0.786 0.255 0.0
O34 O 0.9181 0.75091 0.25997 0.0
C35 C 0.89955 0.84681 0.27228 0.0
C36 C 0.84509 0.80299 0.30791 0.0
C37 C 0.93039 0.74796 0.27252 0.0
O38 O 0.89112 0.83079 0.28374 0.0
O39 O 0.89649 0.83408 0.25974 0.0
O40 O 0.85072 0.73976 0.28849 0.0
O41 O 0.85258 0.77349 0.2699 0.0
Co42 Co 0.79081 0.1309 0.71033 0.0
O43 O 0.80871 0.17246 0.70264 0.0
O44 O 0.80044 0.12565 0.6901 0.0
C45 C 0.74679 0.15425 0.72223 0.0
O46 O 0.7716 0.0839 0.71458 0.0
Co47 Co 0.789 0.11932 0.74319 0.0
O48 O 0.75626 0.08332 0.73777 0.0
C49 C 0.85266 0.10662 0.72728 0.0
C50 C 0.80965 0.15734 0.69033 0.0
C51 C 0.75629 0.07023 0.7253 0.0
O52 O 0.83776 0.11435 0.71546 0.0
O53 O 0.83816 0.10894 0.73951 0.0
O54 O 0.74482 0.14837 0.7086 0.0
O55 O 0.77638 0.14955 0.72786 0.0
Co56 Co 0.13038 0.28791 0.96028 0.0
O57 O 0.17215 0.30348 0.95201 0.0
O58 O 0.12387 0.29846 0.94017 0.0
C59 C 0.15217 0.24228 0.97156 0.0
O60 O 0.0828 0.27125 0.96539 0.0
Co61 Co 0.12303 0.28701 0.99335 0.0
O62 O 0.08368 0.25769 0.98876 0.0
C63 C 0.11083 0.35087 0.97768 0.0
C64 C 0.15609 0.30576 0.93996 0.0
C65 C 0.0692 0.25778 0.97657 0.0
O66 O 0.11704 0.33561 0.96579 0.0
O67 O 0.11368 0.3364 0.98988 0.0
O68 O 0.14473 0.24105 0.95806 0.0
O69 O 0.15016 0.27198 0.97737 0.0
Co70 Co 0.28963 0.86811 0.04233 0.0
O71 O 0.30987 0.82881 0.05097 0.0
O72 O 0.2975 0.87615 0.06253 0.0
C73 C 0.24833 0.84043 0.03046 0.0
O74 O 0.26714 0.91302 0.03688 0.0
Co75 Co 0.28977 0.87563 0.00922 0.0
O76 O 0.25348 0.90894 0.01356 0.0
C77 C 0.35131 0.89358 0.02559 0.0
C78 C 0.30884 0.84516 0.06299 0.0
C79 C 0.25125 0.92358 0.02568 0.0
O80 O 0.33564 0.88719 0.03737 0.0
O81 O 0.33812 0.8886 0.01324 0.0
O82 O 0.24499 0.84755 0.04393 0.0
O83 O 0.2779 0.8466 0.02507 0.0
Co84 Co 0.87522 0.71027 0.95938 0.0
O85 O 0.83531 0.69004 0.9512 0.0
O86 O 0.88228 0.70147 0.9392 0.0
C87 C 0.84873 0.75261 0.97117 0.0
O88 O 0.92059 0.73242 0.96424 0.0
Co89 Co 0.88424 0.71103 0.9924 0.0
O90 O 0.91862 0.74594 0.9876 0.0
C91 C 0.90207 0.64919 0.97626 0.0
C92 C 0.85116 0.69042 0.93905 0.0
C93 C 0.9325 0.7478 0.97531 0.0
O94 O 0.89445 0.66434 0.96449 0.0
O95 O 0.89779 0.66273 0.98859 0.0
O96 O 0.85505 0.75504 0.9576 0.0
O97 O 0.85467 0.72318 0.97675 0.0
Co98 Co 0.71167 0.12849 0.0376 0.0
O99 O 0.69126 0.16665 0.04706 0.0
O100 O 0.70621 0.119 0.05784 0.0
C101 C 0.75117 0.15817 0.02543 0.0
O102 O 0.73447 0.08438 0.03124 0.0
Co103 Co 0.70804 0.12345 0.00448 0.0
O104 O 0.74245 0.08755 0.00745 0.0
C105 C 0.64873 0.10296 0.02171 0.0
C106 C 0.69396 0.14956 0.05885 0.0
C107 C 0.74701 0.0729 0.01945 0.0
O108 O 0.66559 0.10872 0.03325 0.0
O109 O 0.66042 0.10924 0.00921 0.0
O110 O 0.75592 0.14997 0.03872 0.0
O111 O 0.7213 0.1516 0.02042 0.0
Co112 Co 0.63112 0.71304 0.78988 0.0
O113 O 0.67163 0.69314 0.79762 0.0
O114 O 0.62556 0.70461 0.81021 0.0
C115 C 0.65731 0.75477 0.7776 0.0
O116 O 0.58527 0.73495 0.78548 0.0
Co117 Co 0.61987 0.71355 0.75695 0.0
O118 O 0.58485 0.74755 0.76201 0.0
C119 C 0.60462 0.65142 0.77341 0.0
C120 C 0.6567 0.69363 0.80997 0.0
C121 C 0.57201 0.74959 0.77449 0.0
O122 O 0.61208 0.66686 0.78513 0.0
O123 O 0.60811 0.665 0.76105 0.0
O124 O 0.65148 0.75795 0.79119 0.0
O125 O 0.65051 0.72532 0.77226 0.0
Co126 Co 0.71168 0.36776 0.20936 0.0
O127 O 0.69649 0.32688 0.20017 0.0
O128 O 0.70678 0.37519 0.18895 0.0
C129 C 0.75332 0.34446 0.22266 0.0
O130 O 0.72871 0.41451 0.21542 0.0
Co131 Co 0.70349 0.37386 0.2424 0.0
O132 O 0.72967 0.41619 0.23953 0.0
C133 C 0.64447 0.38665 0.22385 0.0
C134 C 0.69783 0.34346 0.18821 0.0
C135 C 0.73545 0.42952 0.22734 0.0
O136 O 0.66332 0.38275 0.21273 0.0
O137 O 0.65508 0.38146 0.23661 0.0
O138 O 0.75831 0.35164 0.20928 0.0
O139 O 0.72232 0.34729 0.22699 0.0
Co140 Co 0.371 0.28998 0.78929 0.0
O141 O 0.33204 0.31039 0.7981 0.0
O142 O 0.37899 0.29647 0.80962 0.0
C143 C 0.34258 0.24985 0.777 0.0
O144 O 0.4156 0.26721 0.78349 0.0
Co145 Co 0.37753 0.29346 0.75613 0.0
O146 O 0.41327 0.25917 0.75965 0.0
C147 C 0.39662 0.35299 0.77342 0.0
C148 C 0.34821 0.30843 0.81014 0.0
C149 C 0.42741 0.25457 0.77177 0.0
O150 O 0.39089 0.33598 0.78491 0.0
O151 O 0.39054 0.34138 0.76088 0.0
O152 O 0.34957 0.24563 0.79043 0.0
O153 O 0.34929 0.27961 0.77193 0.0
Co154 Co 0.29182 0.62972 0.21388 0.0
O155 O 0.31018 0.67043 0.2057 0.0
O156 O 0.29889 0.62376 0.19348 0.0
C157 C 0.24996 0.65428 0.22661 0.0
O158 O 0.27118 0.58365 0.21884 0.0
Co159 Co 0.29513 0.61988 0.24685 0.0
O160 O 0.26117 0.58428 0.24254 0.0
C161 C 0.35526 0.60363 0.22937 0.0
C162 C 0.3092 0.65513 0.19344 0.0
C163 C 0.25778 0.57087 0.23021 0.0
O164 O 0.33875 0.6116 0.21798 0.0
O165 O 0.343 0.60701 0.24198 0.0
O166 O 0.24634 0.64859 0.21303 0.0
O167 O 0.28016 0.64928 0.23159 0.0
Co168 Co 0.62515 0.79159 0.45798 0.0
O169 O 0.6662 0.80726 0.44913 0.0
O170 O 0.61783 0.79903 0.43767 0.0
C171 C 0.64812 0.74831 0.47031 0.0
O172 O 0.57835 0.77413 0.46377 0.0
Co173 Co 0.619 0.79611 0.49106 0.0
O174 O 0.58045 0.76488 0.48752 0.0
C175 C 0.60505 0.85682 0.47372 0.0
C176 C 0.64979 0.80734 0.43712 0.0
C177 C 0.56573 0.7621 0.47543 0.0
O178 O 0.61035 0.83945 0.46229 0.0
O179 O 0.60946 0.84488 0.48632 0.0
O180 O 0.64076 0.74501 0.45686 0.0
O181 O 0.64575 0.77876 0.47536 0.0
Co182 Co 0.78618 0.37423 0.5402 0.0
O183 O 0.80612 0.33472 0.54879 0.0
O184 O 0.79309 0.38162 0.56053 0.0
C185 C 0.7457 0.34653 0.52777 0.0
O186 O 0.76382 0.41927 0.53483 0.0
Co187 Co 0.78751 0.38285 0.50714 0.0
O188 O 0.7509 0.41579 0.51143 0.0
C189 C 0.84803 0.40156 0.52411 0.0
C190 C 0.80455 0.35066 0.5609 0.0
C191 C 0.74832 0.43016 0.52359 0.0
O192 O 0.83239 0.39375 0.53575 0.0
O193 O 0.83513 0.39733 0.51166 0.0
O194 O 0.74145 0.35338 0.54123 0.0
O195 O 0.77549 0.35318 0.52273 0.0
Co196 Co 0.37097 0.20909 0.46092 0.0
O197 O 0.32858 0.19689 0.45217 0.0
O198 O 0.3772 0.20178 0.44056 0.0
C199 C 0.35118 0.25344 0.47368 0.0
O200 O 0.41927 0.22253 0.4664 0.0
Co201 Co 0.3779 0.20238 0.49385 0.0
O202 O 0.42335 0.22225 0.49045 0.0
C203 C 0.38479 0.14143 0.47605 0.0
C204 C 0.34475 0.19568 0.44012 0.0
C205 C 0.43602 0.2271 0.47808 0.0
O206 O 0.3819 0.16002 0.46481 0.0
O207 O 0.38115 0.15304 0.48874 0.0
O208 O 0.35877 0.25673 0.46025 0.0
O209 O 0.35188 0.22272 0.47853 0.0
Co210 Co 0.21204 0.6306 0.54122 0.0
O211 O 0.19522 0.67059 0.5505 0.0
O212 O 0.20632 0.62233 0.56158 0.0
C213 C 0.25325 0.65643 0.52851 0.0
O214 O 0.23107 0.58472 0.53489 0.0
Co215 Co 0.20608 0.6255 0.50811 0.0
O216 O 0.23868 0.58787 0.51107 0.0
C217 C 0.14646 0.60969 0.52597 0.0
C218 C 0.19663 0.65385 0.5624 0.0
C219 C 0.2427 0.57279 0.52302 0.0
O220 O 0.1644 0.61419 0.53732 0.0
O221 O 0.15775 0.61527 0.51334 0.0
O222 O 0.25803 0.64847 0.54182 0.0
O223 O 0.22264 0.65235 0.52388 0.0
H224 H 0.15011 0.32113 0.28527 0.0
H225 H 0.16247 0.37044 0.27049 0.0
H226 H 0.18156 0.30547 0.23429 0.0
H227 H 0.16875 0.25547 0.24911 0.0
H228 H 0.23223 0.35745 0.23937 0.0
H229 H 0.11345 0.34943 0.23125 0.0
H230 H 0.05374 0.34009 0.23798 0.0
H231 H 0.05778 0.42552 0.26638 0.0
H232 H 0.11748 0.43556 0.25973 0.0
H233 H 0.25965 0.52226 0.209 0.0
H234 H 0.23515 0.465 0.21012 0.0
H235 H 0.19109 0.48853 0.25117 0.0
H236 H 0.21466 0.54526 0.25001 0.0
H237 H 0.14837 0.45089 0.23572 0.0
H238 H 0.26941 0.44966 0.24789 0.0
H239 H 0.33007 0.45805 0.24243 0.0
H240 H 0.32231 0.3888 0.20715 0.0
H241 H 0.26148 0.38034 0.21231 0.0
C242 C 0.15692 0.31719 0.27417 0.0
C243 C 0.15851 0.28442 0.26835 0.0
C244 C 0.1638 0.34544 0.26572 0.0
C245 C 0.17256 0.34159 0.25127 0.0
C246 C 0.17466 0.3089 0.24541 0.0
C247 C 0.16736 0.28047 0.25387 0.0
C248 C 0.18025 0.37219 0.24268 0.0
C249 C 0.2137 0.37757 0.23813 0.0
C250 C 0.15611 0.39843 0.2412 0.0
C251 C 0.11998 0.39313 0.24503 0.0
C252 C 0.10162 0.36617 0.23896 0.0
C253 C 0.06777 0.36078 0.24275 0.0
C254 C 0.05204 0.38203 0.25269 0.0
C255 C 0.07 0.40903 0.25871 0.0
C256 C 0.10381 0.41471 0.25487 0.0
C257 C 0.24411 0.51537 0.2181 0.0
C258 C 0.23943 0.53816 0.2295 0.0
C259 C 0.23028 0.48264 0.21876 0.0
C260 C 0.21159 0.47237 0.23081 0.0
C261 C 0.20531 0.49583 0.24175 0.0
C262 C 0.21904 0.52828 0.24111 0.0
C263 C 0.20074 0.4367 0.23294 0.0
C264 C 0.16665 0.43038 0.23637 0.0
C265 C 0.22437 0.40966 0.23343 0.0
C266 C 0.26087 0.41472 0.23036 0.0
C267 C 0.28061 0.43643 0.23891 0.0
C268 C 0.31501 0.44116 0.23588 0.0
C269 C 0.33001 0.42405 0.22442 0.0
C270 C 0.31065 0.4021 0.21599 0.0
C271 C 0.27622 0.39733 0.21896 0.0
H272 H 0.35665 0.42773 0.2221 0.0
H273 H 0.02595 0.37754 0.25569 0.0
H274 H 0.54706 0.79833 0.75695 0.0
H275 H 0.48946 0.81986 0.75596 0.0
H276 H 0.4637 0.76219 0.79364 0.0
H277 H 0.52187 0.73986 0.79455 0.0
H278 H 0.41932 0.75051 0.7729 0.0
H279 H 0.46111 0.8495 0.79452 0.0
H280 H 0.50004 0.89701 0.79937 0.0
H281 H 0.48294 0.93608 0.75713 0.0
H282 H 0.44431 0.88854 0.75192 0.0
H283 H 0.25487 0.8226 0.75359 0.0
H284 H 0.30488 0.81079 0.76856 0.0
H285 H 0.37029 0.83985 0.73369 0.0
H286 H 0.32091 0.85097 0.71871 0.0
H287 H 0.38765 0.86895 0.76109 0.0
H288 H 0.35785 0.76015 0.73888 0.0
H289 H 0.31906 0.71225 0.73443 0.0
H290 H 0.31303 0.69286 0.77954 0.0
H291 H 0.35148 0.74099 0.78426 0.0
C292 C 0.5294 0.79067 0.76521 0.0
C293 C 0.53898 0.76718 0.77576 0.0
C294 C 0.49644 0.80327 0.76471 0.0
C295 C 0.4722 0.79292 0.77479 0.0
C296 C 0.48202 0.77065 0.78578 0.0
C297 C 0.51529 0.75807 0.78633 0.0
C298 C 0.43611 0.80255 0.77261 0.0
C299 C 0.41213 0.77657 0.77077 0.0
C300 C 0.42659 0.83651 0.76978 0.0
C301 C 0.44981 0.86532 0.77282 0.0
C302 C 0.4658 0.86809 0.78622 0.0
C303 C 0.4878 0.89506 0.78904 0.0
C304 C 0.49397 0.91953 0.77857 0.0
C305 C 0.47811 0.91712 0.76525 0.0
C306 C 0.45608 0.89019 0.76236 0.0
C307 C 0.27996 0.82638 0.74915 0.0
C308 C 0.28403 0.83747 0.73496 0.0
C309 C 0.30841 0.81972 0.7577 0.0
C310 C 0.3412 0.82459 0.75222 0.0
C311 C 0.34518 0.83612 0.73814 0.0
C312 C 0.31693 0.84222 0.72956 0.0
C313 C 0.37184 0.81678 0.76076 0.0
C314 C 0.39465 0.84312 0.76376 0.0
C315 C 0.38016 0.78326 0.76479 0.0
C316 C 0.3571 0.75442 0.76193 0.0
C317 C 0.34797 0.74588 0.74785 0.0
C318 C 0.32612 0.71865 0.74528 0.0
C319 C 0.31348 0.6996 0.7567 0.0
C320 C 0.32276 0.70769 0.77071 0.0
C321 C 0.34458 0.73493 0.77334 0.0
H322 H 0.29658 0.67852 0.75468 0.0
H323 H 0.51102 0.94039 0.78077 0.0
H324 H 0.72659 0.47702 0.24787 0.0
H325 H 0.74823 0.53473 0.24848 0.0
H326 H 0.79612 0.51989 0.20751 0.0
H327 H 0.77374 0.4615 0.20665 0.0
H328 H 0.83861 0.54895 0.23122 0.0
H329 H 0.73698 0.56959 0.20552 0.0
H330 H 0.67621 0.56373 0.19985 0.0
H331 H 0.65007 0.60722 0.24046 0.0
H332 H 0.71068 0.61284 0.2465 0.0
H333 H 0.82618 0.74487 0.24672 0.0
H334 H 0.81177 0.69594 0.23157 0.0
H335 H 0.83206 0.62865 0.2669 0.0
H336 H 0.84596 0.67702 0.28203 0.0
H337 H 0.76046 0.64682 0.2366 0.0
H338 H 0.87228 0.5598 0.25419 0.0
H339 H 0.93269 0.56601 0.26049 0.0
H340 H 0.93901 0.65628 0.23499 0.0
H341 H 0.87878 0.65043 0.22839 0.0
C342 C 0.74169 0.48588 0.23895 0.0
C343 C 0.74862 0.46463 0.22723 0.0
C344 C 0.75386 0.51897 0.23929 0.0
C345 C 0.77355 0.53155 0.22801 0.0
C346 C 0.78079 0.51055 0.21628 0.0
C347 C 0.76799 0.47736 0.21579 0.0
C348 C 0.78713 0.56641 0.22913 0.0
C349 C 0.82174 0.57057 0.23211 0.0
C350 C 0.76505 0.59459 0.23006 0.0
C351 C 0.72846 0.59156 0.22647 0.0
C352 C 0.71829 0.57771 0.21329 0.0
C353 C 0.68386 0.57446 0.21 0.0
C354 C 0.65929 0.58508 0.21979 0.0
C355 C 0.66913 0.59903 0.23288 0.0
C356 C 0.70354 0.60232 0.23623 0.0
C357 C 0.82757 0.71959 0.25121 0.0
C358 C 0.83703 0.71473 0.26557 0.0
C359 C 0.81939 0.69176 0.24256 0.0
C360 C 0.82127 0.65873 0.24808 0.0
C361 C 0.83092 0.65392 0.26238 0.0
C362 C 0.83862 0.68162 0.27104 0.0
C363 C 0.8116 0.62892 0.23936 0.0
C364 C 0.77764 0.62562 0.23514 0.0
C365 C 0.83432 0.60161 0.23722 0.0
C366 C 0.8709 0.60471 0.24083 0.0
C367 C 0.8866 0.58083 0.24983 0.0
C368 C 0.92081 0.58435 0.25349 0.0
C369 C 0.93965 0.61159 0.24819 0.0
C370 C 0.92436 0.63528 0.23915 0.0
C371 C 0.89017 0.63189 0.23546 0.0
H372 H 0.9661 0.61432 0.25106 0.0
H373 H 0.63264 0.58253 0.21722 0.0
H374 H 0.45205 0.21437 0.75063 0.0
H375 H 0.50865 0.19115 0.74834 0.0
H376 H 0.53446 0.22902 0.79022 0.0
H377 H 0.47732 0.25349 0.79249 0.0
H378 H 0.58161 0.24616 0.7706 0.0
H379 H 0.52882 0.14383 0.78435 0.0
H380 H 0.48498 0.09932 0.78471 0.0
H381 H 0.5058 0.07593 0.74075 0.0
H382 H 0.54927 0.12077 0.74 0.0
H383 H 0.74304 0.17161 0.75062 0.0
H384 H 0.6915 0.18266 0.76467 0.0
H385 H 0.63022 0.16319 0.72736 0.0
H386 H 0.68122 0.15243 0.71333 0.0
H387 H 0.60576 0.13109 0.75177 0.0
H388 H 0.64632 0.24245 0.73703 0.0
H389 H 0.68847 0.28857 0.73592 0.0
H390 H 0.6896 0.29448 0.78177 0.0
H391 H 0.64774 0.24804 0.78314 0.0
C392 C 0.46943 0.21741 0.75951 0.0
C393 C 0.46011 0.23598 0.77173 0.0
C394 C 0.50182 0.20378 0.75822 0.0
C395 C 0.52573 0.20785 0.76918 0.0
C396 C 0.51631 0.22537 0.78166 0.0
C397 C 0.48362 0.23916 0.78298 0.0
C398 C 0.56113 0.19634 0.76672 0.0
C399 C 0.58713 0.22067 0.76691 0.0
C400 C 0.56829 0.16319 0.76172 0.0
C401 C 0.54237 0.1358 0.76213 0.0
C402 C 0.52396 0.12934 0.77472 0.0
C403 C 0.49916 0.10402 0.775 0.0
C404 C 0.49266 0.08477 0.76277 0.0
C405 C 0.51097 0.09077 0.75023 0.0
C406 C 0.53571 0.11614 0.74988 0.0
C407 C 0.71854 0.16974 0.74545 0.0
C408 C 0.71616 0.16134 0.73086 0.0
C409 C 0.68917 0.17601 0.75347 0.0
C410 C 0.65705 0.1737 0.74705 0.0
C411 C 0.65473 0.16493 0.73255 0.0
C412 C 0.68395 0.15901 0.72452 0.0
C413 C 0.62555 0.18129 0.75511 0.0
C414 C 0.60041 0.15619 0.75594 0.0
C415 C 0.61914 0.21367 0.76103 0.0
C416 C 0.64431 0.24148 0.7602 0.0
C417 C 0.65582 0.25336 0.74688 0.0
C418 C 0.67959 0.27961 0.7462 0.0
C419 C 0.69181 0.29436 0.75877 0.0
C420 C 0.68019 0.28296 0.77204 0.0
C421 C 0.65645 0.25669 0.77278 0.0
H422 H 0.71019 0.31469 0.75822 0.0
H423 H 0.47338 0.06525 0.76299 0.0
H424 H 0.19339 0.93851 0.0115 0.0
H425 H 0.17091 0.99504 0.00663 0.0
H426 H 0.2449 0.03853 0.03521 0.0
H427 H 0.26731 0.98162 0.04028 0.0
H428 H 0.17802 0.07447 0.03361 0.0
H429 H 0.2691 0.03182 0.00315 0.0
H430 H 0.29467 0.98706 0.98821 0.0
H431 H 0.20823 0.98937 0.96029 0.0
H432 H 0.18192 0.03374 0.97521 0.0
H433 H 0.18241 0.23611 0.99787 0.0
H434 H 0.19562 0.18336 0.01065 0.0
H435 H 0.14841 0.12574 0.9768 0.0
H436 H 0.13674 0.17793 0.96382 0.0
H437 H 0.20431 0.09796 0.98266 0.0
H438 H 0.11207 0.13862 0.01126 0.0
H439 H 0.08084 0.17956 0.02621 0.0
H440 H 0.16156 0.17868 0.05704 0.0
H441 H 0.19352 0.13809 0.04216 0.0
C442 C 0.20417 0.96003 0.01708 0.0
C443 C 0.23241 0.95588 0.02606 0.0
C444 C 0.19124 0.99227 0.01434 0.0
C445 C 0.20667 0.02096 0.02036 0.0
C446 C 0.23268 0.01666 0.03046 0.0
C447 C 0.24546 0.98419 0.03334 0.0
C448 C 0.19961 0.05482 0.01418 0.0
C449 C 0.18408 0.07994 0.02253 0.0
C450 C 0.20697 0.06155 0.99965 0.0
C451 C 0.22349 0.03595 0.99033 0.0
C452 C 0.25553 0.02271 0.99384 0.0
C453 C 0.27013 0.99738 0.98539 0.0
C454 C 0.25305 0.98532 0.97332 0.0
C455 C 0.22142 0.9987 0.96964 0.0
C456 C 0.20667 0.02397 0.97808 0.0
C457 C 0.17484 0.21212 0.99323 0.0
C458 C 0.15887 0.21105 0.9798 0.0
C459 C 0.18216 0.182 0.00057 0.0
C460 C 0.17286 0.15043 0.99475 0.0
C461 C 0.15612 0.14964 0.9815 0.0
C462 C 0.14943 0.17954 0.97407 0.0
C463 C 0.18186 0.11795 0.00194 0.0
C464 C 0.19815 0.09292 0.99376 0.0
C465 C 0.17455 0.11128 0.01653 0.0
C466 C 0.15536 0.13561 0.02552 0.0
C467 C 0.12329 0.14737 0.02117 0.0
C468 C 0.10543 0.17047 0.02964 0.0
C469 C 0.11925 0.18179 0.04255 0.0
C470 C 0.15092 0.16994 0.04703 0.0
C471 C 0.16891 0.14687 0.03858 0.0
H472 H 0.10538 0.19967 0.0491 0.0
H473 H 0.26435 0.96565 0.96681 0.0
H474 H 0.24709 0.82334 0.00199 0.0
H475 H 0.1972 0.80807 0.98764 0.0
H476 H 0.13338 0.82168 0.0247 0.0
H477 H 0.1828 0.83591 0.03904 0.0
H478 H 0.11724 0.76565 0.01183 0.0
H479 H 0.13909 0.88154 0.99701 0.0
H480 H 0.17354 0.92775 0.9867 0.0
H481 H 0.18265 0.87241 0.94737 0.0
H482 H 0.14837 0.82582 0.95744 0.0
H483 H 0.95453 0.79919 0.99217 0.0
H484 H 0.01309 0.81715 0.99556 0.0
H485 H 0.0446 0.75339 0.96057 0.0
H486 H 0.98562 0.735 0.95709 0.0
H487 H 0.08165 0.82791 0.9682 0.0
H488 H 0.0538 0.71244 0.9846 0.0
H489 H 0.01382 0.67256 0.99602 0.0
H490 H 0.01373 0.73311 0.03415 0.0
H491 H 0.05294 0.77383 0.02284 0.0
C492 C 0.22238 0.8229 0.00704 0.0
C493 C 0.21884 0.83063 0.02165 0.0
C494 C 0.19391 0.8144 0.99882 0.0
C495 C 0.1615 0.8139 0.00507 0.0
C496 C 0.15811 0.8217 0.01965 0.0
C497 C 0.18643 0.82987 0.02784 0.0
C498 C 0.1308 0.8047 0.99674 0.0
C499 C 0.10973 0.77918 0.00224 0.0
C500 C 0.12106 0.82195 0.98408 0.0
C501 C 0.14153 0.85002 0.97803 0.0
C502 C 0.14866 0.87912 0.9862 0.0
C503 C 0.1681 0.9054 0.9804 0.0
C504 C 0.18044 0.90291 0.96643 0.0
C505 C 0.17317 0.87425 0.9582 0.0
C506 C 0.15368 0.84794 0.96394 0.0
C507 C 0.9737 0.78975 0.98489 0.0
C508 C 0.96563 0.7652 0.97454 0.0
C509 C 0.00711 0.80024 0.98678 0.0
C510 C 0.03305 0.78636 0.97839 0.0
C511 C 0.02477 0.7645 0.96708 0.0
C512 C 0.99112 0.75397 0.96514 0.0
C513 C 0.06833 0.78945 0.98352 0.0
C514 C 0.08998 0.81378 0.97751 0.0
C515 C 0.07861 0.77149 0.99585 0.0
C516 C 0.05611 0.74627 0.00284 0.0
C517 C 0.04508 0.71735 0.99538 0.0
C518 C 0.02258 0.6946 0.00183 0.0
C519 C 0.01128 0.7003 0.01578 0.0
C520 C 0.02251 0.72872 0.02334 0.0
C521 C 0.04486 0.75164 0.01692 0.0
H522 H 0.99385 0.68267 0.02075 0.0
H523 H 0.19553 0.92323 0.96197 0.0
H524 H 0.83444 0.75653 0.99994 0.0
H525 H 0.82278 0.80813 0.01391 0.0
H526 H 0.83338 0.86845 0.97571 0.0
H527 H 0.84471 0.81755 0.9618 0.0
H528 H 0.86947 0.89434 0.9989 0.0
H529 H 0.75642 0.8491 0.98826 0.0
H530 H 0.7119 0.80529 0.98962 0.0
H531 H 0.7152 0.80923 0.0355 0.0
H532 H 0.76007 0.85279 0.03438 0.0
H533 H 0.78508 0.04703 0.9978 0.0
H534 H 0.80837 0.99046 0.99569 0.0
H535 H 0.77424 0.96672 0.03836 0.0
H536 H 0.74969 0.02379 0.04046 0.0
H537 H 0.75681 0.91764 0.02036 0.0
H538 H 0.8601 0.97268 0.03082 0.0
H539 H 0.90405 0.01703 0.02963 0.0
H540 H 0.92081 0.9946 0.98526 0.0
H541 H 0.87662 0.95046 0.98611 0.0
C542 C 0.83411 0.78082 0.99456 0.0
C543 C 0.8404 0.78298 0.97977 0.0
C544 C 0.82751 0.81022 0.00254 0.0
C545 C 0.82734 0.84211 0.99584 0.0
C546 C 0.83361 0.84414 0.98111 0.0
C547 C 0.8399 0.81495 0.97316 0.0
C548 C 0.82033 0.87378 0.00387 0.0
C549 C 0.8449 0.8995 0.00365 0.0
C550 C 0.78882 0.87994 0.01061 0.0
C551 C 0.76188 0.85382 0.01124 0.0
C552 C 0.74786 0.84039 0.99863 0.0
C553 C 0.72252 0.81566 0.99936 0.0
C554 C 0.71081 0.80439 0.01264 0.0
C555 C 0.72435 0.81791 0.02522 0.0
C556 C 0.74972 0.84262 0.02454 0.0
C557 C 0.7828 0.03008 0.00687 0.0
C558 C 0.76531 0.04001 0.01929 0.0
C559 C 0.79648 0.99767 0.00567 0.0
C560 C 0.79353 0.97434 0.01693 0.0
C561 C 0.77699 0.98436 0.02956 0.0
C562 C 0.76314 0.01703 0.03077 0.0
C563 C 0.80539 0.93892 0.01474 0.0
C564 C 0.78182 0.91239 0.01606 0.0
C565 C 0.83799 0.93191 0.0091 0.0
C566 C 0.86494 0.95824 0.00854 0.0
C567 C 0.87303 0.9773 0.02079 0.0
C568 C 0.89801 0.00241 0.02017 0.0
C569 C 0.9152 0.00863 0.00738 0.0
C570 C 0.9075 0.98971 0.99517 0.0
C571 C 0.88254 0.96458 0.99572 0.0
H572 H 0.93451 0.02811 0.00692 0.0
H573 H 0.69119 0.78525 0.01318 0.0
H574 H 0.814 0.17556 0.03453 0.0
H575 H 0.86122 0.19675 0.02042 0.0
H576 H 0.79966 0.1931 0.98232 0.0
H577 H 0.7518 0.17131 0.99651 0.0
H578 H 0.86369 0.16665 0.97789 0.0
H579 H 0.81815 0.26888 0.99594 0.0
H580 H 0.79382 0.30804 0.01374 0.0
H581 H 0.88589 0.30378 0.03818 0.0
H582 H 0.91062 0.26417 0.02067 0.0
H583 H 0.01934 0.27149 0.95672 0.0
H584 H 0.95877 0.25698 0.95871 0.0
H585 H 0.97938 0.20087 0.99727 0.0
H586 H 0.03936 0.21459 0.99534 0.0
H587 H 0.92746 0.26766 0.99458 0.0
H588 H 0.96147 0.15058 0.97928 0.0
H589 H 0.98533 0.11215 0.96105 0.0
H590 H 0.91343 0.14891 0.93023 0.0
H591 H 0.88947 0.18787 0.94828 0.0
C592 C 0.81031 0.17937 0.02316 0.0
C593 C 0.77911 0.17191 0.01664 0.0
C594 C 0.83733 0.19167 0.01511 0.0
C595 C 0.83382 0.19705 0.00035 0.0
C596 C 0.8028 0.18936 0.99372 0.0
C597 C 0.77552 0.17704 0.00183 0.0
C598 C 0.86333 0.20976 0.9921 0.0
C599 C 0.87717 0.18923 0.98129 0.0
C600 C 0.88086 0.23939 0.99641 0.0
C601 C 0.86622 0.26343 0.00698 0.0
C602 C 0.83316 0.27612 0.00515 0.0
C603 C 0.81929 0.29842 0.01519 0.0
C604 C 0.83829 0.30837 0.02709 0.0
C605 C 0.87122 0.29608 0.02895 0.0
C606 C 0.8852 0.27374 0.01895 0.0
C607 C 0.01106 0.25527 0.96538 0.0
C608 C 0.0341 0.24447 0.97595 0.0
C609 C 0.97651 0.24711 0.96651 0.0
C610 C 0.96484 0.22788 0.97813 0.0
C611 C 0.98804 0.21563 0.98821 0.0
C612 C 0.02231 0.22363 0.98709 0.0
C613 C 0.92832 0.2236 0.98105 0.0
C614 C 0.91326 0.2458 0.99086 0.0
C615 C 0.90966 0.19576 0.97579 0.0
C616 C 0.92406 0.17241 0.96503 0.0
C617 C 0.95104 0.15071 0.96857 0.0
C618 C 0.9645 0.12877 0.95829 0.0
C619 C 0.951 0.12818 0.94447 0.0
C620 C 0.92393 0.14946 0.94092 0.0
C621 C 0.9104 0.17146 0.95117 0.0
H622 H 0.96144 0.11117 0.93653 0.0
H623 H 0.8275 0.32563 0.03485 0.0
H624 H 0.66269 0.75819 0.74839 0.0
H625 H 0.68043 0.8072 0.73402 0.0
H626 H 0.69432 0.86564 0.77256 0.0
H627 H 0.67668 0.81708 0.78692 0.0
H628 H 0.65236 0.87284 0.73255 0.0
H629 H 0.76404 0.91406 0.76868 0.0
H630 H 0.80645 0.88794 0.78463 0.0
H631 H 0.80049 0.79511 0.76078 0.0
H632 H 0.7584 0.82082 0.74457 0.0
H633 H 0.69865 0.04669 0.73761 0.0
H634 H 0.68118 0.9874 0.73984 0.0
H635 H 0.76489 0.95691 0.7131 0.0
H636 H 0.78196 0.0165 0.7105 0.0
H637 H 0.76335 0.92827 0.74145 0.0
H638 H 0.69309 0.93929 0.70054 0.0
H639 H 0.65042 0.96572 0.68484 0.0
H640 H 0.57469 0.95384 0.71744 0.0
H641 H 0.61703 0.9278 0.73344 0.0
C642 C 0.66964 0.78148 0.75378 0.0
C643 C 0.66844 0.78379 0.76878 0.0
C644 C 0.67963 0.80943 0.74557 0.0
C645 C 0.68899 0.83988 0.75225 0.0
C646 C 0.68762 0.84221 0.76721 0.0
C647 C 0.67745 0.81446 0.77539 0.0
C648 C 0.69999 0.8696 0.74374 0.0
C649 C 0.67675 0.88482 0.73435 0.0
C650 C 0.73204 0.88484 0.74595 0.0
C651 C 0.75792 0.86935 0.75545 0.0
C652 C 0.77195 0.88815 0.76678 0.0
C653 C 0.79589 0.8734 0.77588 0.0
C654 C 0.80612 0.83987 0.77373 0.0
C655 C 0.79249 0.82106 0.76245 0.0
C656 C 0.76855 0.8357 0.75331 0.0
C657 C 0.71263 0.02742 0.73183 0.0
C658 C 0.74162 0.03604 0.7239 0.0
C659 C 0.70262 0.99362 0.73308 0.0
C660 C 0.72177 0.96785 0.72664 0.0
C661 C 0.7497 0.97652 0.71807 0.0
C662 C 0.7593 0.0105 0.71654 0.0
C663 C 0.71529 0.93215 0.73065 0.0
C664 C 0.73929 0.9159 0.73933 0.0
C665 C 0.68397 0.91607 0.72779 0.0
C666 C 0.65834 0.93176 0.71823 0.0
C667 C 0.66741 0.94257 0.70442 0.0
C668 C 0.64326 0.95743 0.69545 0.0
C669 C 0.60988 0.9615 0.70015 0.0
C670 C 0.60057 0.95067 0.71382 0.0
C671 C 0.62463 0.93581 0.72284 0.0
H672 H 0.59121 0.973 0.69318 0.0
H673 H 0.82462 0.82848 0.7808 0.0
H674 H 0.04257 0.2978 0.257 0.0
H675 H 0.98547 0.32082 0.2559 0.0
H676 H 0.95757 0.26242 0.2931 0.0
H677 H 0.01528 0.23899 0.29419 0.0
H678 H 0.91461 0.25122 0.2718 0.0
H679 H 0.95628 0.34861 0.29424 0.0
H680 H 0.99377 0.39663 0.3 0.0
H681 H 0.97553 0.43968 0.25855 0.0
H682 H 0.93865 0.39148 0.25235 0.0
H683 H 0.75136 0.32066 0.25026 0.0
H684 H 0.80005 0.30958 0.26608 0.0
H685 H 0.86816 0.34316 0.23289 0.0
H686 H 0.82016 0.35373 0.21711 0.0
H687 H 0.88309 0.36993 0.26047 0.0
H688 H 0.85577 0.26173 0.23714 0.0
H689 H 0.81765 0.21374 0.23186 0.0
H690 H 0.80813 0.19289 0.27675 0.0
H691 H 0.84589 0.24107 0.28229 0.0
C692 C 0.02454 0.29041 0.26514 0.0
C693 C 0.03334 0.2664 0.2756 0.0
C694 C 0.99189 0.30381 0.26458 0.0
C695 C 0.96717 0.29355 0.27447 0.0
C696 C 0.97628 0.27081 0.2854 0.0
C697 C 0.00926 0.25755 0.28604 0.0
C698 C 0.93124 0.30332 0.27202 0.0
C699 C 0.90746 0.27734 0.26977 0.0
C700 C 0.9218 0.33737 0.2693 0.0
C701 C 0.94465 0.36622 0.27281 0.0
C702 C 0.9605 0.36809 0.28627 0.0
C703 C 0.98164 0.3954 0.28963 0.0
C704 C 0.98696 0.42123 0.27966 0.0
C705 C 0.97125 0.41973 0.26629 0.0
C706 C 0.95025 0.39237 0.26284 0.0
C707 C 0.77676 0.32567 0.24639 0.0
C708 C 0.78201 0.33781 0.23243 0.0
C709 C 0.80446 0.31942 0.25543 0.0
C710 C 0.83765 0.32567 0.25065 0.0
C711 C 0.84275 0.33838 0.23681 0.0
C712 C 0.81527 0.34415 0.22777 0.0
C713 C 0.86764 0.31772 0.25958 0.0
C714 C 0.89013 0.34404 0.26302 0.0
C715 C 0.87586 0.28411 0.26348 0.0
C716 C 0.85322 0.25523 0.26013 0.0
C717 C 0.84528 0.24709 0.24588 0.0
C718 C 0.82381 0.21983 0.24284 0.0
C719 C 0.81037 0.20036 0.25397 0.0
C720 C 0.81847 0.20805 0.26815 0.0
C721 C 0.8399 0.23532 0.27124 0.0
H722 H 0.79376 0.17925 0.2516 0.0
H723 H 0.00328 0.44238 0.2823 0.0
H724 H 0.3001 0.95333 0.7451 0.0
H725 H 0.31938 0.01194 0.74682 0.0
H726 H 0.25367 0.03964 0.71185 0.0
H727 H 0.23426 0.98068 0.71002 0.0
H728 H 0.3474 0.06268 0.72949 0.0
H729 H 0.2124 0.11212 0.72376 0.0
H730 H 0.1534 0.09119 0.72457 0.0
H731 H 0.18248 0.01436 0.75471 0.0
H732 H 0.24147 0.03517 0.75422 0.0
H733 H 0.34807 0.24202 0.74787 0.0
H734 H 0.33388 0.19107 0.73392 0.0
H735 H 0.29687 0.14258 0.77219 0.0
H736 H 0.31169 0.19268 0.78616 0.0
H737 H 0.25386 0.13497 0.74771 0.0
H738 H 0.37208 0.12529 0.76259 0.0
H739 H 0.43209 0.1429 0.76343 0.0
H740 H 0.43799 0.13696 0.71766 0.0
H741 H 0.37782 0.11991 0.71653 0.0
C742 C 0.29039 0.97171 0.73753 0.0
C743 C 0.26534 0.96258 0.72756 0.0
C744 C 0.30161 0.00515 0.73846 0.0
C745 C 0.28768 0.03016 0.72957 0.0
C746 C 0.26462 0.02067 0.71884 0.0
C747 C 0.25363 0.987 0.71779 0.0
C748 C 0.29359 0.06627 0.73313 0.0
C749 C 0.3269 0.0788 0.73318 0.0
C750 C 0.26686 0.08711 0.73811 0.0
C751 C 0.23135 0.07493 0.73879 0.0
C752 C 0.20613 0.09084 0.73058 0.0
C753 C 0.17271 0.079 0.73099 0.0
C754 C 0.16422 0.05137 0.73964 0.0
C755 C 0.1891 0.03567 0.74797 0.0
C756 C 0.22252 0.04747 0.74763 0.0
C757 C 0.33661 0.22058 0.75325 0.0
C758 C 0.33113 0.22116 0.7681 0.0
C759 C 0.32859 0.19156 0.74528 0.0
C760 C 0.31439 0.16314 0.75206 0.0
C761 C 0.30772 0.16431 0.76677 0.0
C762 C 0.3163 0.19289 0.77474 0.0
C763 C 0.30772 0.13131 0.74418 0.0
C764 C 0.27423 0.11947 0.74345 0.0
C765 C 0.33435 0.11102 0.73875 0.0
C766 C 0.37032 0.12185 0.73946 0.0
C767 C 0.38604 0.12818 0.75269 0.0
C768 C 0.42011 0.13795 0.75323 0.0
C769 C 0.43878 0.14112 0.7406 0.0
C770 C 0.42345 0.13457 0.72742 0.0
C771 C 0.38937 0.12489 0.72683 0.0
H772 H 0.46516 0.14851 0.74102 0.0
H773 H 0.13836 0.04218 0.73991 0.0
H774 H 0.9789 0.75451 0.29347 0.0
H775 H 0.0368 0.73164 0.29288 0.0
H776 H 0.01328 0.67811 0.25387 0.0
H777 H 0.95577 0.70028 0.25452 0.0
H778 H 0.05515 0.64133 0.26995 0.0
H779 H 0.0477 0.75875 0.25369 0.0
H780 H 0.03494 0.81952 0.25687 0.0
H781 H 0.10537 0.82455 0.29183 0.0
H782 H 0.1182 0.76365 0.28896 0.0
H783 H 0.18387 0.64624 0.21945 0.0
H784 H 0.1341 0.65512 0.23439 0.0
H785 H 0.19815 0.68481 0.26961 0.0
H786 H 0.2487 0.6753 0.25464 0.0
H787 H 0.14264 0.73033 0.26321 0.0
H788 H 0.15957 0.61382 0.27425 0.0
H789 H 0.17144 0.55345 0.26961 0.0
H790 H 0.08334 0.54708 0.24277 0.0
H791 H 0.07088 0.60742 0.24726 0.0
C792 C 0.98589 0.73718 0.28498 0.0
C793 C 0.96298 0.72964 0.2739 0.0
C794 C 0.01901 0.72428 0.28462 0.0
C795 C 0.02957 0.70368 0.27318 0.0
C796 C 0.00584 0.69406 0.26277 0.0
C797 C 0.97296 0.70696 0.2631 0.0
C798 C 0.0658 0.69481 0.27099 0.0
C799 C 0.07437 0.66074 0.26859 0.0
C800 C 0.09115 0.72005 0.26956 0.0
C801 C 0.08355 0.75662 0.27124 0.0
C802 C 0.06027 0.77279 0.26212 0.0
C803 C 0.05305 0.80724 0.26386 0.0
C804 C 0.06924 0.82586 0.27458 0.0
C805 C 0.09277 0.81007 0.28356 0.0
C806 C 0.10002 0.7756 0.28189 0.0
C807 C 0.18751 0.6546 0.23038 0.0
C808 C 0.22019 0.66027 0.23586 0.0
C809 C 0.15901 0.65939 0.23894 0.0
C810 C 0.16248 0.67022 0.25314 0.0
C811 C 0.19503 0.67618 0.25869 0.0
C812 C 0.22378 0.67084 0.25014 0.0
C813 C 0.13152 0.67703 0.26164 0.0
C814 C 0.12387 0.71074 0.26513 0.0
C815 C 0.1069 0.65151 0.2639 0.0
C816 C 0.11437 0.61523 0.26106 0.0
C817 C 0.14284 0.59962 0.26728 0.0
C818 C 0.14963 0.56537 0.2647 0.0
C819 C 0.12823 0.54647 0.25586 0.0
C820 C 0.0999 0.56175 0.24962 0.0
C821 C 0.09287 0.59595 0.25223 0.0
H822 H 0.13352 0.51996 0.25387 0.0
H823 H 0.06363 0.85254 0.27591 0.0
H824 H 0.76361 0.48756 0.53882 0.0
H825 H 0.74136 0.54467 0.53412 0.0
H826 H 0.6693 0.50268 0.50425 0.0
H827 H 0.69178 0.44604 0.50873 0.0
H828 H 0.71138 0.54827 0.49199 0.0
H829 H 0.64349 0.54141 0.53488 0.0
H830 H 0.63403 0.53346 0.56073 0.0
H831 H 0.69934 0.61783 0.56985 0.0
H832 H 0.70957 0.626 0.54405 0.0
H833 H 0.62323 0.68542 0.46603 0.0
H834 H 0.63575 0.63403 0.47946 0.0
H835 H 0.69946 0.69126 0.50819 0.0
H836 H 0.68552 0.74356 0.49502 0.0
H837 H 0.6663 0.64088 0.52244 0.0
H838 H 0.73468 0.64831 0.48035 0.0
H839 H 0.74617 0.65685 0.45468 0.0
H840 H 0.68363 0.57114 0.44438 0.0
H841 H 0.67139 0.56238 0.46999 0.0
C842 C 0.74224 0.4905 0.53164 0.0
C843 C 0.72963 0.46256 0.52398 0.0
C844 C 0.72957 0.52311 0.52895 0.0
C845 C 0.7039 0.52796 0.51872 0.0
C846 C 0.68931 0.49958 0.51209 0.0
C847 C 0.70212 0.46723 0.51466 0.0
C848 C 0.69566 0.56229 0.51324 0.0
C849 C 0.70106 0.56833 0.49864 0.0
C850 C 0.68378 0.58897 0.52204 0.0
C851 C 0.67759 0.58408 0.53754 0.0
C852 C 0.65609 0.55807 0.5424 0.0
C853 C 0.65053 0.55357 0.55704 0.0
C854 C 0.66615 0.57506 0.56693 0.0
C855 C 0.6873 0.60117 0.56218 0.0
C856 C 0.69296 0.60577 0.54755 0.0
C857 C 0.63972 0.68714 0.47528 0.0
C858 C 0.65403 0.71825 0.47934 0.0
C859 C 0.64684 0.65776 0.48295 0.0
C860 C 0.66931 0.6586 0.49459 0.0
C861 C 0.68227 0.68998 0.49917 0.0
C862 C 0.67446 0.71974 0.49163 0.0
C863 C 0.68087 0.62625 0.5011 0.0
C864 C 0.67659 0.62073 0.51584 0.0
C865 C 0.69425 0.59992 0.4925 0.0
C866 C 0.70195 0.60483 0.47709 0.0
C867 C 0.72325 0.63139 0.47261 0.0
C868 C 0.7299 0.63626 0.45807 0.0
C869 C 0.7156 0.61458 0.4479 0.0
C870 C 0.69469 0.58792 0.45226 0.0
C871 C 0.68792 0.58296 0.46679 0.0
H872 H 0.72075 0.61841 0.43665 0.0
H873 H 0.66181 0.57154 0.57826 0.0
H874 H 0.7478 0.32611 0.49978 0.0
H875 H 0.69974 0.30895 0.4847 0.0
H876 H 0.63138 0.32659 0.51992 0.0
H877 H 0.67897 0.34348 0.53498 0.0
H878 H 0.6548 0.25637 0.48866 0.0
H879 H 0.55951 0.35985 0.5078 0.0
H880 H 0.56073 0.42036 0.51446 0.0
H881 H 0.64956 0.43514 0.48865 0.0
H882 H 0.64885 0.37479 0.48182 0.0
H883 H 0.48646 0.20678 0.49565 0.0
H884 H 0.54448 0.22786 0.49672 0.0
H885 H 0.52501 0.29282 0.46053 0.0
H886 H 0.46648 0.27108 0.45924 0.0
H887 H 0.5514 0.32726 0.48397 0.0
H888 H 0.58404 0.23396 0.45546 0.0
H889 H 0.58743 0.17509 0.44672 0.0
H890 H 0.6265 0.14279 0.48735 0.0
H891 H 0.6235 0.20152 0.49632 0.0
C892 C 0.72248 0.32636 0.50427 0.0
C893 C 0.71712 0.33601 0.51857 0.0
C894 C 0.69512 0.3166 0.49565 0.0
C895 C 0.66199 0.31692 0.50114 0.0
C896 C 0.65667 0.32668 0.5154 0.0
C897 C 0.68394 0.33608 0.52403 0.0
C898 C 0.6328 0.30553 0.49238 0.0
C899 C 0.63231 0.27196 0.48746 0.0
C900 C 0.60391 0.32626 0.49039 0.0
C901 C 0.60419 0.36272 0.49435 0.0
C902 C 0.57921 0.37604 0.50349 0.0
C903 C 0.57989 0.41029 0.50734 0.0
C904 C 0.6053 0.43155 0.50204 0.0
C905 C 0.63003 0.41861 0.49284 0.0
C906 C 0.62955 0.38436 0.48901 0.0
C907 C 0.49464 0.22521 0.48778 0.0
C908 C 0.47195 0.23756 0.47744 0.0
C909 C 0.5279 0.23703 0.48833 0.0
C910 C 0.53913 0.26178 0.47867 0.0
C911 C 0.51685 0.27355 0.46803 0.0
C912 C 0.48354 0.26113 0.46729 0.0
C913 C 0.57285 0.27754 0.48094 0.0
C914 C 0.57415 0.31192 0.48477 0.0
C915 C 0.6027 0.25774 0.48168 0.0
C916 C 0.60348 0.22215 0.47656 0.0
C917 C 0.59316 0.21427 0.46256 0.0
C918 C 0.59521 0.18096 0.45754 0.0
C919 C 0.6073 0.15524 0.46646 0.0
C920 C 0.61729 0.16277 0.48043 0.0
C921 C 0.61556 0.19609 0.48547 0.0
H922 H 0.60877 0.12945 0.46256 0.0
H923 H 0.6058 0.45805 0.50503 0.0
H924 H 0.23987 0.52141 0.54306 0.0
H925 H 0.25898 0.46247 0.53976 0.0
H926 H 0.30052 0.48896 0.49862 0.0
H927 H 0.28216 0.54726 0.50181 0.0
H928 H 0.25027 0.43554 0.49875 0.0
H929 H 0.35279 0.47282 0.52344 0.0
H930 H 0.384 0.49538 0.54421 0.0
H931 H 0.3484 0.41265 0.57 0.0
H932 H 0.31657 0.38986 0.54941 0.0
H933 H 0.35197 0.31926 0.46549 0.0
H934 H 0.33307 0.36854 0.47891 0.0
H935 H 0.31009 0.30506 0.51518 0.0
H936 H 0.32941 0.25498 0.50169 0.0
H937 H 0.34169 0.36961 0.52234 0.0
H938 H 0.24615 0.32763 0.49685 0.0
H939 H 0.21518 0.30454 0.47613 0.0
H940 H 0.23541 0.39551 0.45241 0.0
H941 H 0.26697 0.41895 0.47291 0.0
C942 C 0.25379 0.51478 0.53348 0.0
C943 C 0.25901 0.53893 0.5226 0.0
C944 C 0.2646 0.48114 0.53161 0.0
C945 C 0.28077 0.47141 0.51887 0.0
C946 C 0.28779 0.49594 0.50846 0.0
C947 C 0.27721 0.52929 0.51032 0.0
C948 C 0.28778 0.43542 0.51547 0.0
C949 C 0.27018 0.42107 0.50393 0.0
C950 C 0.31283 0.41615 0.52261 0.0
C951 C 0.33191 0.42992 0.53495 0.0
C952 C 0.3513 0.45966 0.53358 0.0
C953 C 0.36919 0.47243 0.54531 0.0
C954 C 0.36808 0.45554 0.55844 0.0
C955 C 0.34917 0.42577 0.55984 0.0
C956 C 0.33121 0.4129 0.54815 0.0
C957 C 0.34312 0.31563 0.47635 0.0
C958 C 0.34179 0.28315 0.48247 0.0
C959 C 0.33234 0.34389 0.48402 0.0
C960 C 0.31975 0.34038 0.49796 0.0
C961 C 0.31964 0.30823 0.5044 0.0
C962 C 0.33053 0.2797 0.49668 0.0
C963 C 0.30518 0.37049 0.50519 0.0
C964 C 0.32115 0.38369 0.51741 0.0
C965 C 0.27836 0.38879 0.49877 0.0
C966 C 0.25907 0.37499 0.48642 0.0
C967 C 0.24418 0.34264 0.48719 0.0
C968 C 0.22649 0.32949 0.47548 0.0
C969 C 0.22336 0.34853 0.46295 0.0
C970 C 0.23785 0.38079 0.46212 0.0
C971 C 0.2556 0.39405 0.47379 0.0
H972 H 0.20966 0.33831 0.4539 0.0
H973 H 0.38196 0.46546 0.5675 0.0
H974 H 0.54199 0.71597 0.49438 0.0
H975 H 0.48463 0.6943 0.49658 0.0
H976 H 0.45505 0.74931 0.45869 0.0
H977 H 0.51305 0.77177 0.45653 0.0
H978 H 0.4112 0.76002 0.48029 0.0
H979 H 0.45616 0.66278 0.45802 0.0
H980 H 0.49746 0.61743 0.45298 0.0
H981 H 0.4843 0.57809 0.49543 0.0
H982 H 0.44331 0.62349 0.50082 0.0
H983 H 0.25096 0.68148 0.50112 0.0
H984 H 0.29947 0.6963 0.48577 0.0
H985 H 0.3682 0.66592 0.51928 0.0
H986 H 0.32032 0.65162 0.53461 0.0
H987 H 0.38517 0.64009 0.49191 0.0
H988 H 0.35157 0.74652 0.51491 0.0
H989 H 0.31136 0.79286 0.52 0.0
H990 H 0.30325 0.81429 0.47511 0.0
H991 H 0.34311 0.76771 0.46974 0.0
C992 C 0.52348 0.72316 0.48637 0.0
C993 C 0.53203 0.74567 0.4753 0.0
C994 C 0.49068 0.71049 0.48758 0.0
C995 C 0.46558 0.71978 0.4777 0.0
C996 C 0.47412 0.74159 0.46637 0.0
C997 C 0.50725 0.75424 0.4651 0.0
C998 C 0.43008 0.70872 0.48022 0.0
C999 C 0.40518 0.73364 0.4824 0.0
C1000 C 0.4222 0.67434 0.48302 0.0
C1001 C 0.44663 0.64665 0.47983 0.0
C1002 C 0.46218 0.64457 0.46631 0.0
C1003 C 0.48554 0.61883 0.46339 0.0
C1004 C 0.49351 0.5949 0.47388 0.0
C1005 C 0.47807 0.59662 0.48731 0.0
C1006 C 0.4547 0.62232 0.49029 0.0
C1007 C 0.27646 0.67803 0.50517 0.0
C1008 C 0.28189 0.66558 0.51908 0.0
C1009 C 0.30406 0.68645 0.49641 0.0
C1010 C 0.33737 0.68211 0.5014 0.0
C1011 C 0.34269 0.66928 0.5152 0.0
C1012 C 0.31528 0.66133 0.52398 0.0
C1013 C 0.36716 0.69154 0.49261 0.0
C1014 C 0.39089 0.66626 0.48929 0.0
C1015 C 0.37386 0.72549 0.48867 0.0
C1016 C 0.34987 0.75333 0.49191 0.0
C1017 C 0.34092 0.76088 0.50611 0.0
C1018 C 0.31827 0.78723 0.50905 0.0
C1019 C 0.30464 0.80641 0.49788 0.0
C1020 C 0.31374 0.79934 0.48375 0.0
C1021 C 0.33635 0.77297 0.48075 0.0
H1022 H 0.28713 0.82682 0.50017 0.0
H1023 H 0.51162 0.57501 0.4716 0.0
H1024 H 0.37088 0.18888 0.41301 0.0
H1025 H 0.33909 0.18241 0.39064 0.0
H1026 H 0.24512 0.18345 0.41428 0.0
H1027 H 0.27661 0.18883 0.43658 0.0
H1028 H 0.24048 0.13878 0.3939 0.0
H1029 H 0.27647 0.25498 0.39668 0.0
H1030 H 0.31749 0.30184 0.39903 0.0
H1031 H 0.36869 0.26851 0.36102 0.0
H1032 H 0.32819 0.22117 0.35855 0.0
H1033 H 0.12776 0.19449 0.33799 0.0
H1034 H 0.16156 0.18809 0.35987 0.0
H1035 H 0.25157 0.17317 0.33446 0.0
H1036 H 0.21817 0.17929 0.31266 0.0
H1037 H 0.25954 0.22245 0.35514 0.0
H1038 H 0.21901 0.10791 0.35188 0.0
H1039 H 0.17564 0.06317 0.34978 0.0
H1040 H 0.13003 0.09615 0.38908 0.0
H1041 H 0.17287 0.14143 0.39132 0.0
C1042 C 0.34347 0.18741 0.41343 0.0
C1043 C 0.32628 0.18957 0.42656 0.0
C1044 C 0.32529 0.18389 0.40063 0.0
C1045 C 0.28961 0.18299 0.40073 0.0
C1046 C 0.27258 0.18409 0.41389 0.0
C1047 C 0.29068 0.18729 0.42665 0.0
C1048 C 0.26978 0.18208 0.38717 0.0
C1049 C 0.24448 0.15727 0.38548 0.0
C1050 C 0.27518 0.20589 0.37606 0.0
C1051 C 0.29955 0.23432 0.37752 0.0
C1052 C 0.29664 0.2575 0.38889 0.0
C1053 C 0.31976 0.28416 0.39023 0.0
C1054 C 0.34575 0.28809 0.38021 0.0
C1055 C 0.34859 0.2654 0.36879 0.0
C1056 C 0.32555 0.23866 0.36741 0.0
C1057 C 0.15465 0.18933 0.33708 0.0
C1058 C 0.17027 0.18748 0.32359 0.0
C1059 C 0.17392 0.18564 0.34958 0.0
C1060 C 0.2091 0.18018 0.34878 0.0
C1061 C 0.22451 0.17746 0.33532 0.0
C1062 C 0.20529 0.18085 0.32286 0.0
C1063 C 0.23028 0.17926 0.36191 0.0
C1064 C 0.25574 0.20382 0.36352 0.0
C1065 C 0.2247 0.15553 0.373 0.0
C1066 C 0.19896 0.12828 0.37169 0.0
C1067 C 0.19956 0.10582 0.36001 0.0
C1068 C 0.1751 0.08032 0.35881 0.0
C1069 C 0.15004 0.07688 0.36927 0.0
C1070 C 0.14944 0.09888 0.38098 0.0
C1071 C 0.17382 0.12444 0.38222 0.0
H1072 H 0.13114 0.05711 0.36832 0.0
H1073 H 0.36362 0.30876 0.38127 0.0
H1074 H 0.18402 0.72086 0.5664 0.0
H1075 H 0.17892 0.75147 0.58892 0.0
H1076 H 0.18927 0.65779 0.61224 0.0
H1077 H 0.19495 0.62663 0.58955 0.0
H1078 H 0.13598 0.70637 0.6225 0.0
H1079 H 0.25502 0.70044 0.61099 0.0
H1080 H 0.30468 0.70638 0.59517 0.0
H1081 H 0.28394 0.81262 0.59031 0.0
H1082 H 0.23381 0.80719 0.60594 0.0
H1083 H 0.17811 0.77809 0.68998 0.0
H1084 H 0.17296 0.74537 0.66799 0.0
H1085 H 0.18984 0.83605 0.64318 0.0
H1086 H 0.19599 0.8689 0.66527 0.0
H1087 H 0.22845 0.78755 0.63361 0.0
H1088 H 0.11079 0.79554 0.64495 0.0
H1089 H 0.05948 0.79125 0.6599 0.0
H1090 H 0.07499 0.68403 0.66432 0.0
H1091 H 0.12669 0.68774 0.64955 0.0
C1092 C 0.18488 0.70655 0.57628 0.0
C1093 C 0.19009 0.67126 0.57618 0.0
C1094 C 0.18197 0.72417 0.58915 0.0
C1095 C 0.18395 0.70693 0.60222 0.0
C1096 C 0.18767 0.67151 0.60223 0.0
C1097 C 0.19099 0.65379 0.58929 0.0
C1098 C 0.18405 0.72652 0.61576 0.0
C1099 C 0.15639 0.72375 0.6251 0.0
C1100 C 0.2102 0.74995 0.61884 0.0
C1101 C 0.24047 0.75333 0.60952 0.0
C1102 C 0.26087 0.72501 0.60645 0.0
C1103 C 0.28914 0.72829 0.59753 0.0
C1104 C 0.29741 0.75984 0.5917 0.0
C1105 C 0.27748 0.78819 0.59481 0.0
C1106 C 0.24915 0.78503 0.60371 0.0
C1107 C 0.18025 0.79124 0.67985 0.0
C1108 C 0.1875 0.82614 0.67938 0.0
C1109 C 0.17714 0.77245 0.66725 0.0
C1110 C 0.18072 0.7882 0.65387 0.0
C1111 C 0.18699 0.82328 0.65337 0.0
C1112 C 0.19034 0.84209 0.666 0.0
C1113 C 0.18021 0.76767 0.6405 0.0
C1114 C 0.20791 0.77022 0.63112 0.0
C1115 C 0.15388 0.74433 0.63735 0.0
C1116 C 0.12282 0.74198 0.64625 0.0
C1117 C 0.10343 0.77109 0.6492 0.0
C1118 C 0.07424 0.76875 0.65763 0.0
C1119 C 0.06403 0.7374 0.66309 0.0
C1120 C 0.08295 0.7083 0.6601 0.0
C1121 C 0.11219 0.7105 0.65169 0.0
H1122 H 0.04142 0.73565 0.6696 0.0
H1123 H 0.31931 0.76233 0.58481 0.0
H1124 H 0.62315 0.81334 0.41003 0.0
H1125 H 0.65465 0.81965 0.38756 0.0
H1126 H 0.74881 0.82074 0.41109 0.0
H1127 H 0.71761 0.81585 0.43343 0.0
H1128 H 0.7539 0.86354 0.39053 0.0
H1129 H 0.71654 0.74766 0.39384 0.0
H1130 H 0.67489 0.70138 0.39632 0.0
H1131 H 0.62444 0.73447 0.35809 0.0
H1132 H 0.66558 0.78122 0.35548 0.0
H1133 H 0.8674 0.80332 0.33577 0.0
H1134 H 0.83289 0.81093 0.35739 0.0
H1135 H 0.74425 0.82735 0.33129 0.0
H1136 H 0.77837 0.82009 0.30975 0.0
H1137 H 0.73454 0.77861 0.35228 0.0
H1138 H 0.77746 0.8923 0.34844 0.0
H1139 H 0.822 0.93586 0.34627 0.0
H1140 H 0.86554 0.90339 0.38607 0.0
H1141 H 0.82152 0.85928 0.38838 0.0
C1142 C 0.65053 0.81534 0.41039 0.0
C1143 C 0.66785 0.81391 0.4235 0.0
C1144 C 0.66856 0.81873 0.39754 0.0
C1145 C 0.70425 0.82005 0.39757 0.0
C1146 C 0.72136 0.81978 0.41072 0.0
C1147 C 0.70341 0.81686 0.42352 0.0
C1148 C 0.7241 0.82039 0.384 0.0
C1149 C 0.74979 0.84477 0.38223 0.0
C1150 C 0.71861 0.79624 0.37302 0.0
C1151 C 0.69388 0.76815 0.37456 0.0
C1152 C 0.69641 0.74521 0.38602 0.0
C1153 C 0.67292 0.71888 0.38744 0.0
C1154 C 0.64697 0.71506 0.37739 0.0
C1155 C 0.64451 0.73751 0.36588 0.0
C1156 C 0.66791 0.76391 0.36442 0.0
C1157 C 0.84067 0.80904 0.33465 0.0
C1158 C 0.82564 0.81104 0.32105 0.0
C1159 C 0.82099 0.81341 0.347 0.0
C1160 C 0.78598 0.81969 0.34593 0.0
C1161 C 0.77117 0.82246 0.33236 0.0
C1162 C 0.7908 0.81841 0.32005 0.0
C1163 C 0.76435 0.82155 0.35891 0.0
C1164 C 0.73841 0.79752 0.36056 0.0
C1165 C 0.76999 0.84565 0.36985 0.0
C1166 C 0.79637 0.87228 0.36852 0.0
C1167 C 0.79669 0.89426 0.35667 0.0
C1168 C 0.82182 0.91909 0.35543 0.0
C1169 C 0.84663 0.92234 0.366 0.0
C1170 C 0.84632 0.90082 0.37787 0.0
C1171 C 0.82127 0.87592 0.37916 0.0
H1172 H 0.86606 0.94158 0.36502 0.0
H1173 H 0.62881 0.69465 0.37851 0.0
H1174 H 0.82722 0.22396 0.68825 0.0
H1175 H 0.83344 0.25778 0.66655 0.0
H1176 H 0.81604 0.16878 0.64081 0.0
H1177 H 0.80977 0.13454 0.66257 0.0
H1178 H 0.86753 0.21161 0.62992 0.0
H1179 H 0.75204 0.22039 0.64693 0.0
H1180 H 0.70805 0.23207 0.66502 0.0
H1181 H 0.74409 0.33431 0.6692 0.0
H1182 H 0.78862 0.32307 0.65127 0.0
H1183 H 0.81551 0.28323 0.56454 0.0
H1184 H 0.82322 0.25242 0.5868 0.0
H1185 H 0.82029 0.34656 0.6103 0.0
H1186 H 0.81091 0.3776 0.5879 0.0
H1187 H 0.78289 0.30335 0.62322 0.0
H1188 H 0.89585 0.29726 0.6053 0.0
H1189 H 0.94106 0.28657 0.58766 0.0
H1190 H 0.91264 0.18161 0.58565 0.0
H1191 H 0.86694 0.19175 0.60314 0.0
C1192 C 0.82514 0.2114 0.67799 0.0
C1193 C 0.81772 0.17656 0.67714 0.0
C1194 C 0.82863 0.23084 0.66559 0.0
C1195 C 0.82473 0.21591 0.65208 0.0
C1196 C 0.81906 0.18082 0.65115 0.0
C1197 C 0.81544 0.1613 0.66358 0.0
C1198 C 0.82453 0.23731 0.639 0.0
C1199 C 0.84888 0.23149 0.62835 0.0
C1200 C 0.80083 0.26392 0.63719 0.0
C1201 C 0.77387 0.27078 0.64787 0.0
C1202 C 0.75074 0.24528 0.65178 0.0
C1203 C 0.72569 0.25183 0.66199 0.0
C1204 C 0.72334 0.28388 0.66828 0.0
C1205 C 0.74598 0.30948 0.66434 0.0
C1206 C 0.77111 0.30304 0.65414 0.0
C1207 C 0.81692 0.29753 0.57441 0.0
C1208 C 0.81268 0.33293 0.57444 0.0
C1209 C 0.82159 0.27981 0.58718 0.0
C1210 C 0.82299 0.29708 0.6003 0.0
C1211 C 0.81942 0.33259 0.60033 0.0
C1212 C 0.81418 0.35035 0.58753 0.0
C1213 C 0.82589 0.27773 0.61395 0.0
C1214 C 0.80191 0.28381 0.62476 0.0
C1215 C 0.85019 0.2516 0.61594 0.0
C1216 C 0.87779 0.24534 0.60547 0.0
C1217 C 0.89909 0.27194 0.60103 0.0
C1218 C 0.92483 0.26597 0.59107 0.0
C1219 C 0.92968 0.23344 0.58552 0.0
C1220 C 0.90885 0.20679 0.58995 0.0
C1221 C 0.88305 0.21263 0.59991 0.0
H1222 H 0.94962 0.22888 0.5778 0.0
H1223 H 0.70393 0.2889 0.67619 0.0
H1224 H 0.22427 0.31207 0.93671 0.0
H1225 H 0.25615 0.31916 0.91468 0.0
H1226 H 0.16265 0.32464 0.8908 0.0
H1227 H 0.13038 0.31612 0.91295 0.0
H1228 H 0.20385 0.2845 0.87774 0.0
H1229 H 0.21625 0.39584 0.89674 0.0
H1230 H 0.2292 0.43945 0.91482 0.0
H1231 H 0.33229 0.40478 0.91695 0.0
H1232 H 0.31987 0.36064 0.89902 0.0
H1233 H 0.28374 0.33163 0.81343 0.0
H1234 H 0.25168 0.33763 0.83557 0.0
H1235 H 0.34005 0.3091 0.8599 0.0
H1236 H 0.37258 0.30278 0.83763 0.0
H1237 H 0.30053 0.36395 0.87212 0.0
H1238 H 0.28536 0.2506 0.85362 0.0
H1239 H 0.27135 0.20875 0.83495 0.0
H1240 H 0.17113 0.25046 0.83136 0.0
H1241 H 0.18473 0.29292 0.84987 0.0
C1242 C 0.21036 0.31519 0.92681 0.0
C1243 C 0.17472 0.31358 0.9266 0.0
C1244 C 0.22871 0.31948 0.91418 0.0
C1245 C 0.21193 0.32301 0.90103 0.0
C1246 C 0.17624 0.32208 0.90081 0.0
C1247 C 0.1578 0.31734 0.91347 0.0
C1248 C 0.23181 0.32537 0.8875 0.0
C1249 C 0.22453 0.30238 0.87646 0.0
C1250 C 0.25941 0.34814 0.88585 0.0
C1251 C 0.26704 0.37474 0.89661 0.0
C1252 C 0.24163 0.39735 0.90114 0.0
C1253 C 0.24888 0.42219 0.91135 0.0
C1254 C 0.28153 0.42484 0.91705 0.0
C1255 C 0.30701 0.40269 0.91253 0.0
C1256 C 0.29989 0.37778 0.90232 0.0
C1257 C 0.29663 0.32704 0.82347 0.0
C1258 C 0.3307 0.31643 0.82375 0.0
C1259 C 0.27818 0.33045 0.83612 0.0
C1260 C 0.29336 0.3234 0.84935 0.0
C1261 C 0.32787 0.31459 0.84977 0.0
C1262 C 0.3464 0.31096 0.83706 0.0
C1263 C 0.27244 0.32312 0.86255 0.0
C1264 C 0.27962 0.34637 0.87347 0.0
C1265 C 0.24451 0.30088 0.86405 0.0
C1266 C 0.23618 0.27515 0.85303 0.0
C1267 C 0.26043 0.25102 0.84877 0.0
C1268 C 0.25255 0.22716 0.83823 0.0
C1269 C 0.2204 0.227 0.83194 0.0
C1270 C 0.19603 0.25064 0.83622 0.0
C1271 C 0.20381 0.27459 0.84674 0.0
H1272 H 0.21434 0.20851 0.82378 0.0
H1273 H 0.28709 0.44409 0.92496 0.0
H1274 H 0.31335 0.63047 0.16596 0.0
H1275 H 0.32021 0.66362 0.14389 0.0
H1276 H 0.32732 0.75539 0.16874 0.0
H1277 H 0.32105 0.7227 0.19071 0.0
H1278 H 0.27832 0.7574 0.14656 0.0
H1279 H 0.39572 0.72811 0.15385 0.0
H1280 H 0.44348 0.68877 0.15763 0.0
H1281 H 0.42161 0.63981 0.11766 0.0
H1282 H 0.37337 0.67857 0.11375 0.0
H1283 H 0.30994 0.87176 0.09015 0.0
H1284 H 0.31695 0.84063 0.11264 0.0
H1285 H 0.33132 0.74777 0.08901 0.0
H1286 H 0.3256 0.77879 0.06662 0.0
H1287 H 0.37107 0.74668 0.11102 0.0
H1288 H 0.25316 0.77061 0.10381 0.0
H1289 H 0.20284 0.80631 0.09952 0.0
H1290 H 0.22199 0.86062 0.13848 0.0
H1291 H 0.27272 0.82551 0.14292 0.0
C1292 C 0.31687 0.65764 0.16671 0.0
C1293 C 0.31659 0.67394 0.18008 0.0
C1294 C 0.32081 0.67652 0.15411 0.0
C1295 C 0.32422 0.71196 0.15471 0.0
C1296 C 0.32467 0.7281 0.16806 0.0
C1297 C 0.32118 0.70929 0.18061 0.0
C1298 C 0.32541 0.73261 0.14146 0.0
C1299 C 0.29885 0.75545 0.13888 0.0
C1300 C 0.35167 0.72926 0.13127 0.0
C1301 C 0.38072 0.70602 0.13358 0.0
C1302 C 0.4009 0.70875 0.14593 0.0
C1303 C 0.4281 0.6866 0.14808 0.0
C1304 C 0.43552 0.66174 0.13791 0.0
C1305 C 0.4158 0.65905 0.12555 0.0
C1306 C 0.38855 0.68112 0.12335 0.0
C1307 C 0.31513 0.84482 0.08977 0.0
C1308 C 0.31694 0.82773 0.07661 0.0
C1309 C 0.31891 0.82698 0.10262 0.0
C1310 C 0.32395 0.79165 0.10255 0.0
C1311 C 0.32735 0.77493 0.08939 0.0
C1312 C 0.32397 0.79276 0.07657 0.0
C1313 C 0.32396 0.77171 0.11608 0.0
C1314 C 0.35062 0.74887 0.11872 0.0
C1315 C 0.29743 0.77456 0.12624 0.0
C1316 C 0.26694 0.7957 0.12361 0.0
C1317 C 0.24679 0.79034 0.11141 0.0
C1318 C 0.21817 0.81044 0.10896 0.0
C1319 C 0.20928 0.83578 0.1187 0.0
C1320 C 0.22895 0.84102 0.13093 0.0
C1321 C 0.25762 0.82103 0.13342 0.0
H1322 H 0.18711 0.85131 0.11678 0.0
H1323 H 0.45659 0.64462 0.13959 0.0
H1324 H 0.87671 0.68832 0.91175 0.0
H1325 H 0.84465 0.68133 0.8895 0.0
H1326 H 0.75251 0.6683 0.91377 0.0
H1327 H 0.78446 0.67407 0.93595 0.0
H1328 H 0.75029 0.62837 0.89165 0.0
H1329 H 0.77548 0.74594 0.89894 0.0
H1330 H 0.81182 0.79584 0.90313 0.0
H1331 H 0.86469 0.77663 0.86381 0.0
H1332 H 0.82893 0.72632 0.85948 0.0
H1333 H 0.63283 0.6886 0.83754 0.0
H1334 H 0.6666 0.68045 0.85937 0.0
H1335 H 0.75744 0.67269 0.83393 0.0
H1336 H 0.72411 0.68022 0.8122 0.0
H1337 H 0.76063 0.72139 0.85622 0.0
H1338 H 0.73021 0.60449 0.84881 0.0
H1339 H 0.69056 0.55695 0.84516 0.0
H1340 H 0.64312 0.57833 0.88549 0.0
H1341 H 0.68219 0.62635 0.88929 0.0
C1342 C 0.84972 0.68341 0.91233 0.0
C1343 C 0.83311 0.68205 0.92561 0.0
C1344 C 0.83136 0.67963 0.89961 0.0
C1345 C 0.79597 0.67501 0.89993 0.0
C1346 C 0.77971 0.67194 0.91321 0.0
C1347 C 0.79807 0.67536 0.9259 0.0
C1348 C 0.77554 0.67531 0.88653 0.0
C1349 C 0.75239 0.64887 0.88397 0.0
C1350 C 0.77828 0.70191 0.87641 0.0
C1351 C 0.7998 0.73216 0.87897 0.0
C1352 C 0.79503 0.75222 0.89124 0.0
C1353 C 0.81549 0.78059 0.89364 0.0
C1354 C 0.84062 0.78934 0.88377 0.0
C1355 C 0.84526 0.76978 0.87146 0.0
C1356 C 0.8249 0.74134 0.86903 0.0
C1357 C 0.65991 0.68463 0.83661 0.0
C1358 C 0.67578 0.68514 0.82314 0.0
C1359 C 0.67915 0.67995 0.84907 0.0
C1360 C 0.71453 0.67604 0.84824 0.0
C1361 C 0.73021 0.67571 0.8348 0.0
C1362 C 0.71104 0.67993 0.82238 0.0
C1363 C 0.73563 0.67445 0.86136 0.0
C1364 C 0.75876 0.70079 0.86388 0.0
C1365 C 0.73239 0.64811 0.87152 0.0
C1366 C 0.7089 0.61925 0.86926 0.0
C1367 C 0.71111 0.59927 0.85684 0.0
C1368 C 0.68879 0.57218 0.85476 0.0
C1369 C 0.66427 0.56468 0.86507 0.0
C1370 C 0.66209 0.5842 0.8775 0.0
C1371 C 0.68434 0.61134 0.87963 0.0
H1372 H 0.64701 0.5437 0.86344 0.0
H1373 H 0.85642 0.81133 0.88564 0.0
H1374 H 0.65684 0.20663 0.06352 0.0
H1375 H 0.65234 0.23909 0.08571 0.0
H1376 H 0.71107 0.16305 0.10771 0.0
H1377 H 0.71548 0.13019 0.0855 0.0
H1378 H 0.62843 0.2262 0.11338 0.0
H1379 H 0.76857 0.20766 0.12862 0.0
H1380 H 0.82317 0.19409 0.11705 0.0
H1381 H 0.78785 0.23789 0.07774 0.0
H1382 H 0.73327 0.25214 0.08913 0.0
H1383 H 0.66712 0.2824 0.18422 0.0
H1384 H 0.66129 0.25059 0.16193 0.0
H1385 H 0.7091 0.33227 0.13886 0.0
H1386 H 0.71478 0.36452 0.1612 0.0
H1387 H 0.7374 0.26876 0.13298 0.0
H1388 H 0.62758 0.32055 0.13445 0.0
H1389 H 0.5728 0.33632 0.14528 0.0
H1390 H 0.54688 0.23115 0.14981 0.0
H1391 H 0.60175 0.21473 0.13919 0.0
C1392 C 0.66827 0.19647 0.07314 0.0
C1393 C 0.68668 0.16594 0.07276 0.0
C1394 C 0.6656 0.21503 0.08582 0.0
C1395 C 0.68168 0.20369 0.09831 0.0
C1396 C 0.69868 0.17237 0.09815 0.0
C1397 C 0.70104 0.15355 0.08548 0.0
C1398 C 0.68276 0.22592 0.11111 0.0
C1399 C 0.65223 0.23536 0.11772 0.0
C1400 C 0.71379 0.23848 0.11658 0.0
C1401 C 0.74673 0.23061 0.10969 0.0
C1402 C 0.77253 0.2145 0.11752 0.0
C1403 C 0.80346 0.20668 0.11099 0.0
C1404 C 0.80893 0.21501 0.09665 0.0
C1405 C 0.78353 0.23133 0.08883 0.0
C1406 C 0.75259 0.23925 0.09531 0.0
C1407 C 0.67605 0.29381 0.17438 0.0
C1408 C 0.69142 0.32599 0.17446 0.0
C1409 C 0.67263 0.2756 0.16165 0.0
C1410 C 0.68472 0.28906 0.14874 0.0
C1411 C 0.69961 0.32143 0.14872 0.0
C1412 C 0.70266 0.33989 0.16146 0.0
C1413 C 0.68309 0.26862 0.13542 0.0
C1414 C 0.71356 0.2595 0.1287 0.0
C1415 C 0.65198 0.25662 0.1298 0.0
C1416 C 0.61892 0.26641 0.13615 0.0
C1417 C 0.61033 0.30077 0.13787 0.0
C1418 C 0.57924 0.30984 0.14395 0.0
C1419 C 0.55641 0.28476 0.14827 0.0
C1420 C 0.5646 0.25055 0.14648 0.0
C1421 C 0.59568 0.24135 0.14042 0.0
H1422 H 0.53235 0.29182 0.15297 0.0
H1423 H 0.83287 0.2089 0.09162 0.0
H1424 H 0.91739 0.88065 0.29687 0.0
H1425 H 0.95263 0.93145 0.29884 0.0
H1426 H 0.95658 0.93904 0.25287 0.0
H1427 H 0.9217 0.88831 0.25074 0.0
H1428 H 0.01916 0.94288 0.26467 0.0
H1429 H 0.90941 0.994 0.27268 0.0
H1430 H 0.85428 0.00054 0.28482 0.0
H1431 H 0.90519 0.01939 0.32463 0.0
H1432 H 0.96065 0.01254 0.31275 0.0
H1433 H 0.08197 0.10737 0.2523 0.0
H1434 H 0.05012 0.0547 0.25399 0.0
H1435 H 0.05131 0.06167 0.30001 0.0
H1436 H 0.08283 0.11497 0.29846 0.0
H1437 H 0.98886 0.04828 0.29062 0.0
H1438 H 0.09845 0.00156 0.28261 0.0
H1439 H 0.15397 0.99444 0.27087 0.0
H1440 H 0.10449 0.96619 0.23174 0.0
H1441 H 0.04862 0.9736 0.24319 0.0
C1442 C 0.92527 0.89339 0.28716 0.0
C1443 C 0.91672 0.88019 0.27364 0.0
C1444 C 0.94546 0.92246 0.28832 0.0
C1445 C 0.95731 0.93899 0.276 0.0
C1446 C 0.94789 0.92656 0.26252 0.0
C1447 C 0.92775 0.89759 0.26134 0.0
C1448 C 0.98077 0.96835 0.27703 0.0
C1449 C 0.0124 0.96609 0.27021 0.0
C1450 C 0.97248 0.99809 0.28473 0.0
C1451 C 0.93916 0.00239 0.29186 0.0
C1452 C 0.90884 0.99927 0.28405 0.0
C1453 C 0.87754 0.00309 0.29088 0.0
C1454 C 0.87623 0.01027 0.3055 0.0
C1455 C 0.90624 0.01377 0.31331 0.0
C1456 C 0.93761 0.00996 0.30653 0.0
C1457 C 0.07595 0.09759 0.26282 0.0
C1458 C 0.085 0.1156 0.27525 0.0
C1459 C 0.05777 0.0673 0.26376 0.0
C1460 C 0.04847 0.05406 0.27713 0.0
C1461 C 0.0582 0.07142 0.28958 0.0
C1462 C 0.0764 0.10182 0.28866 0.0
C1463 C 0.02701 0.02313 0.27797 0.0
C1464 C 0.99579 0.02501 0.28517 0.0
C1465 C 0.03575 0.99292 0.27068 0.0
C1466 C 0.06932 0.98841 0.26374 0.0
C1467 C 0.09939 0.99409 0.27147 0.0
C1468 C 0.13093 0.98995 0.26487 0.0
C1469 C 0.13275 0.97994 0.25056 0.0
C1470 C 0.10303 0.97397 0.24283 0.0
C1471 C 0.07142 0.97809 0.24937 0.0
H1472 H 0.1572 0.97674 0.24547 0.0
H1473 H 0.85197 0.01321 0.31077 0.0
H1474 H 0.89263 0.0866 0.74971 0.0
H1475 H 0.94377 0.05198 0.74875 0.0
H1476 H 0.94088 0.05418 0.70267 0.0
H1477 H 0.88972 0.08913 0.70348 0.0
H1478 H 0.94752 0.98911 0.73765 0.0
H1479 H 0.02294 0.04358 0.69002 0.0
H1480 H 0.03301 0.09841 0.67806 0.0
H1481 H 0.01201 0.15099 0.71728 0.0
H1482 H 0.00226 0.09649 0.72952 0.0
H1483 H 0.11636 0.91616 0.70466 0.0
H1484 H 0.06505 0.95082 0.70303 0.0
H1485 H 0.05827 0.95323 0.74904 0.0
H1486 H 0.10899 0.9183 0.75081 0.0
H1487 H 0.05521 0.01438 0.71241 0.0
H1488 H 0.97684 0.95918 0.75962 0.0
H1489 H 0.96657 0.90406 0.77129 0.0
H1490 H 0.99295 0.85229 0.73246 0.0
H1491 H 0.0029 0.90709 0.7205 0.0
C1492 C 0.9031 0.08032 0.73934 0.0
C1493 C 0.88678 0.09059 0.72667 0.0
C1494 C 0.93232 0.06033 0.73883 0.0
C1495 C 0.9461 0.05032 0.72565 0.0
C1496 C 0.93087 0.06179 0.71297 0.0
C1497 C 0.90156 0.08181 0.71346 0.0
C1498 C 0.97498 0.0261 0.72529 0.0
C1499 C 0.97124 0.99483 0.73229 0.0
C1500 C 0.00545 0.03301 0.71784 0.0
C1501 C 0.01147 0.06595 0.71063 0.0
C1502 C 0.02055 0.06684 0.6961 0.0
C1503 C 0.0262 0.09786 0.68927 0.0
C1504 C 0.02302 0.12817 0.69689 0.0
C1505 C 0.01431 0.12751 0.71137 0.0
C1506 C 0.00865 0.09656 0.71825 0.0
C1507 C 0.10363 0.92351 0.71444 0.0
C1508 C 0.11692 0.9143 0.72788 0.0
C1509 C 0.0744 0.94355 0.71348 0.0
C1510 C 0.05769 0.95455 0.7259 0.0
C1511 C 0.07039 0.94468 0.73929 0.0
C1512 C 0.09953 0.92469 0.74028 0.0
C1513 C 0.02792 0.97761 0.72498 0.0
C1514 C 0.03143 0.00859 0.71772 0.0
C1515 C 0.99712 0.9704 0.73214 0.0
C1516 C 0.99093 0.93728 0.73921 0.0
C1517 C 0.98032 0.93605 0.75356 0.0
C1518 C 0.97457 0.90485 0.76022 0.0
C1519 C 0.97921 0.87469 0.75263 0.0
C1520 C 0.9895 0.87567 0.73834 0.0
C1521 C 0.99525 0.90679 0.73162 0.0
H1522 H 0.97476 0.85057 0.75782 0.0
H1523 H 0.02739 0.15216 0.69158 0.0
H1524 H 0.08548 0.38802 0.0 0.0
H1525 H 0.05094 0.43915 0.99865 0.0
H1526 H 0.06559 0.44289 0.953 0.0
H1527 H 0.10027 0.39148 0.95418 0.0
H1528 H 0.06747 0.50719 0.96603 0.0
H1529 H 0.99603 0.40958 0.96455 0.0
H1530 H 0.97398 0.35423 0.97252 0.0
H1531 H 0.94339 0.39815 0.0125 0.0
H1532 H 0.96585 0.45367 0.00487 0.0
H1533 H 0.92858 0.61773 0.9526 0.0
H1534 H 0.96457 0.5673 0.95197 0.0
H1535 H 0.9529 0.55542 0.99753 0.0
H1536 H 0.91684 0.60576 0.99831 0.0
H1537 H 0.949 0.49446 0.98319 0.0
H1538 H 0.02322 0.59189 0.98463 0.0
H1539 H 0.04606 0.64667 0.9763 0.0
H1540 H 0.07051 0.60252 0.93566 0.0
H1541 H 0.04764 0.54748 0.94368 0.0
C1542 C 0.082 0.39994 0.98967 0.0
C1543 C 0.09547 0.38528 0.97717 0.0
C1544 C 0.06204 0.42914 0.98893 0.0
C1545 C 0.05519 0.44443 0.9757 0.0
C1546 C 0.07041 0.43133 0.96331 0.0
C1547 C 0.09024 0.40192 0.96402 0.0
C1548 C 0.03053 0.47279 0.97478 0.0
C1549 C 0.04144 0.50431 0.96959 0.0
C1550 C 0.99665 0.46907 0.97957 0.0
C1551 C 0.98297 0.43574 0.98419 0.0
C1552 C 0.9849 0.40738 0.9751 0.0
C1553 C 0.97227 0.37598 0.97954 0.0
C1554 C 0.95736 0.37266 0.99302 0.0
C1555 C 0.955 0.40076 0.00207 0.0
C1556 C 0.96766 0.4322 0.99769 0.0
C1557 C 0.93317 0.60415 0.96247 0.0
C1558 C 0.91986 0.616 0.97552 0.0
C1559 C 0.95399 0.57543 0.9621 0.0
C1560 C 0.96184 0.55791 0.97474 0.0
C1561 C 0.9473 0.56866 0.98766 0.0
C1562 C 0.92667 0.59748 0.98807 0.0
C1563 C 0.98603 0.52903 0.97461 0.0
C1564 C 0.97499 0.49733 0.97958 0.0
C1565 C 0.01972 0.53256 0.96955 0.0
C1566 C 0.03337 0.56567 0.9647 0.0
C1567 C 0.0332 0.59393 0.97388 0.0
C1568 C 0.04619 0.62501 0.96922 0.0
C1569 C 0.05954 0.62812 0.95545 0.0
C1570 C 0.06008 0.6001 0.94631 0.0
C1571 C 0.04716 0.56894 0.95091 0.0
H1572 H 0.06958 0.65221 0.95188 0.0
H1573 H 0.94757 0.34833 0.99644 0.0
H1574 H 0.3933 0.9102 0.00332 0.0
H1575 H 0.44474 0.94431 0.00419 0.0
H1576 H 0.43723 0.94993 0.05014 0.0
H1577 H 0.38532 0.91608 0.0494 0.0
H1578 H 0.44766 0.01157 0.03875 0.0
H1579 H 0.49895 0.90267 0.03448 0.0
H1580 H 0.50862 0.84571 0.02444 0.0
H1581 H 0.53678 0.88975 0.98416 0.0
H1582 H 0.52681 0.947 0.9939 0.0
H1583 H 0.6134 0.08626 0.04605 0.0
H1584 H 0.56289 0.0505 0.0478 0.0
H1585 H 0.55896 0.0429 0.00184 0.0
H1586 H 0.60931 0.07848 0.99992 0.0
H1587 H 0.55576 0.98078 0.01494 0.0
H1588 H 0.50162 0.08965 0.0192 0.0
H1589 H 0.49213 0.1464 0.0295 0.0
H1590 H 0.47 0.1017 0.07031 0.0
H1591 H 0.47982 0.04466 0.06029 0.0
C1592 C 0.40274 0.91822 0.01366 0.0
C1593 C 0.38499 0.91037 0.02629 0.0
C1594 C 0.43229 0.93769 0.01413 0.0
C1595 C 0.44495 0.94958 0.02723 0.0
C1596 C 0.42789 0.94106 0.03991 0.0
C1597 C 0.39829 0.92151 0.03946 0.0
C1598 C 0.47493 0.97236 0.02755 0.0
C1599 C 0.47151 0.00459 0.03378 0.0
C1600 C 0.50583 0.96354 0.02081 0.0
C1601 C 0.51184 0.92914 0.01489 0.0
C1602 C 0.50693 0.90021 0.02345 0.0
C1603 C 0.51252 0.86787 0.01781 0.0
C1604 C 0.52323 0.86411 0.00366 0.0
C1605 C 0.52845 0.8927 0.99512 0.0
C1606 C 0.52287 0.92511 0.0007 0.0
C1607 C 0.60155 0.07742 0.03629 0.0
C1608 C 0.61561 0.08521 0.02284 0.0
C1609 C 0.57264 0.05698 0.03732 0.0
C1610 C 0.55725 0.04397 0.02495 0.0
C1611 C 0.57055 0.05255 0.01152 0.0
C1612 C 0.59928 0.07309 0.01046 0.0
C1613 C 0.52829 0.02008 0.02595 0.0
C1614 C 0.53196 0.98762 0.02 0.0
C1615 C 0.49771 0.02865 0.03299 0.0
C1616 C 0.49185 0.06291 0.03904 0.0
C1617 C 0.49505 0.09193 0.0304 0.0
C1618 C 0.48954 0.12415 0.03618 0.0
C1619 C 0.48057 0.12766 0.05056 0.0
C1620 C 0.47701 0.09894 0.05918 0.0
C1621 C 0.48252 0.06666 0.05346 0.0
H1622 H 0.4763 0.15262 0.05502 0.0
H1623 H 0.52755 0.83904 0.99932 0.0
H1624 H 0.42228 0.38319 0.79756 0.0
H1625 H 0.45841 0.43338 0.79884 0.0
H1626 H 0.44762 0.44795 0.75336 0.0
H1627 H 0.41189 0.39762 0.75191 0.0
H1628 H 0.51299 0.44968 0.76124 0.0
H1629 H 0.40871 0.50059 0.77765 0.0
H1630 H 0.35849 0.50587 0.79321 0.0
H1631 H 0.42291 0.51656 0.82995 0.0
H1632 H 0.47354 0.5109 0.81463 0.0
H1633 H 0.57865 0.61384 0.7514 0.0
H1634 H 0.54533 0.56215 0.75294 0.0
H1635 H 0.5596 0.56004 0.79867 0.0
H1636 H 0.59243 0.61258 0.79729 0.0
H1637 H 0.49521 0.54981 0.79243 0.0
H1638 H 0.59946 0.50213 0.77624 0.0
H1639 H 0.65016 0.49638 0.761 0.0
H1640 H 0.58697 0.4785 0.72437 0.0
H1641 H 0.53585 0.4846 0.73935 0.0
C1642 C 0.42708 0.39734 0.78785 0.0
C1643 C 0.41423 0.38616 0.77461 0.0
C1644 C 0.44777 0.4261 0.78861 0.0
C1645 C 0.45576 0.44442 0.77619 0.0
C1646 C 0.44195 0.43408 0.76307 0.0
C1647 C 0.42136 0.40533 0.76228 0.0
C1648 C 0.47997 0.47324 0.77666 0.0
C1649 C 0.5089 0.47178 0.76793 0.0
C1650 C 0.47532 0.50145 0.78581 0.0
C1651 C 0.4449 0.50497 0.79501 0.0
C1652 C 0.41216 0.50379 0.78906 0.0
C1653 C 0.38362 0.50691 0.79784 0.0
C1654 C 0.3875 0.51145 0.81257 0.0
C1655 C 0.41994 0.51299 0.81855 0.0
C1656 C 0.44856 0.50986 0.80982 0.0
C1657 C 0.57523 0.60224 0.76179 0.0
C1658 C 0.5883 0.61754 0.77423 0.0
C1659 C 0.55618 0.5725 0.76264 0.0
C1660 C 0.55016 0.55696 0.7759 0.0
C1661 C 0.5639 0.57158 0.78831 0.0
C1662 C 0.58283 0.60155 0.78749 0.0
C1663 C 0.52795 0.52657 0.77679 0.0
C1664 C 0.49946 0.52764 0.7858 0.0
C1665 C 0.53309 0.49787 0.76796 0.0
C1666 C 0.5638 0.49407 0.75891 0.0
C1667 C 0.59636 0.49721 0.76491 0.0
C1668 C 0.62518 0.49385 0.75632 0.0
C1669 C 0.62179 0.48715 0.74172 0.0
C1670 C 0.58956 0.48371 0.73569 0.0
C1671 C 0.56065 0.48707 0.74423 0.0
H1672 H 0.64413 0.48456 0.73509 0.0
H1673 H 0.36538 0.51385 0.81934 0.0
H1674 H 0.59517 0.39491 0.24417 0.0
H1675 H 0.54434 0.42972 0.24246 0.0
H1676 H 0.5656 0.44925 0.19798 0.0
H1677 H 0.61693 0.41467 0.19961 0.0
H1678 H 0.55443 0.5071 0.21207 0.0
H1679 H 0.49727 0.40181 0.20764 0.0
H1680 H 0.48156 0.34291 0.21342 0.0
H1681 H 0.44414 0.37483 0.25438 0.0
H1682 H 0.46011 0.43388 0.24895 0.0
H1683 H 0.39282 0.59395 0.20491 0.0
H1684 H 0.44195 0.55659 0.20194 0.0
H1685 H 0.44074 0.53452 0.24709 0.0
H1686 H 0.39205 0.57182 0.25023 0.0
H1687 H 0.43978 0.47663 0.22967 0.0
H1688 H 0.50191 0.58147 0.23433 0.0
H1689 H 0.51765 0.64012 0.22809 0.0
H1690 H 0.54483 0.60813 0.18572 0.0
H1691 H 0.52878 0.54932 0.19165 0.0
C1692 C 0.58878 0.40599 0.23393 0.0
C1693 C 0.61037 0.40208 0.22206 0.0
C1694 C 0.55956 0.42586 0.23296 0.0
C1695 C 0.5511 0.44212 0.22009 0.0
C1696 C 0.57168 0.437 0.20803 0.0
C1697 C 0.60092 0.41701 0.20897 0.0
C1698 C 0.52245 0.46658 0.21966 0.0
C1699 C 0.52916 0.50024 0.21563 0.0
C1700 C 0.48963 0.45783 0.22455 0.0
C1701 C 0.48018 0.42228 0.22792 0.0
C1702 C 0.48599 0.39625 0.21794 0.0
C1703 C 0.47698 0.36283 0.22114 0.0
C1704 C 0.46193 0.35512 0.23427 0.0
C1705 C 0.45583 0.38083 0.24422 0.0
C1706 C 0.46483 0.4143 0.24107 0.0
C1707 C 0.40338 0.58168 0.21427 0.0
C1708 C 0.38828 0.58584 0.2278 0.0
C1709 C 0.43145 0.56031 0.21253 0.0
C1710 C 0.44478 0.54262 0.22428 0.0
C1711 C 0.43068 0.5478 0.23787 0.0
C1712 C 0.40292 0.56935 0.23964 0.0
C1713 C 0.47204 0.51712 0.22239 0.0
C1714 C 0.46498 0.48329 0.22596 0.0
C1715 C 0.50442 0.52567 0.21699 0.0
C1716 C 0.5137 0.56108 0.21337 0.0
C1717 C 0.51086 0.587 0.22363 0.0
C1718 C 0.51994 0.62026 0.22016 0.0
C1719 C 0.53211 0.62787 0.2065 0.0
C1720 C 0.53531 0.60221 0.19629 0.0
C1721 C 0.52624 0.56891 0.1997 0.0
H1722 H 0.53916 0.65363 0.20385 0.0
H1723 H 0.45495 0.32923 0.23673 0.0
H1724 H 0.39052 0.0917 0.49647 0.0
H1725 H 0.42497 0.04024 0.49486 0.0
H1726 H 0.44519 0.06119 0.45046 0.0
H1727 H 0.41057 0.11233 0.45182 0.0
H1728 H 0.42987 0.97947 0.47264 0.0
H1729 H 0.52829 0.06673 0.45081 0.0
H1730 H 0.53993 0.1282 0.45012 0.0
H1731 H 0.50335 0.13842 0.49316 0.0
H1732 H 0.49133 0.077 0.49403 0.0
H1733 H 0.57071 0.8814 0.45058 0.0
H1734 H 0.53219 0.92984 0.45008 0.0
H1735 H 0.56139 0.95613 0.49308 0.0
H1736 H 0.59964 0.9072 0.49385 0.0
H1737 H 0.55117 0.01386 0.47209 0.0
H1738 H 0.49751 0.91325 0.49205 0.0
H1739 H 0.48194 0.85271 0.49142 0.0
H1740 H 0.42689 0.86861 0.45237 0.0
H1741 H 0.44269 0.92917 0.45264 0.0
C1742 C 0.40138 0.08486 0.48623 0.0
C1743 C 0.3981 0.10647 0.47433 0.0
C1744 C 0.42095 0.05535 0.48533 0.0
C1745 C 0.43771 0.04719 0.47258 0.0
C1746 C 0.43235 0.06715 0.46039 0.0
C1747 C 0.41252 0.09642 0.46122 0.0
C1748 C 0.46485 0.02133 0.47256 0.0
C1749 C 0.45636 0.98687 0.47251 0.0
C1750 C 0.49932 0.03116 0.47248 0.0
C1751 C 0.50904 0.0674 0.47249 0.0
C1752 C 0.52313 0.08207 0.46017 0.0
C1753 C 0.52958 0.11691 0.45972 0.0
C1754 C 0.52238 0.13722 0.4716 0.0
C1755 C 0.50889 0.12268 0.48397 0.0
C1756 C 0.50221 0.08788 0.48444 0.0
C1757 C 0.56972 0.89793 0.45982 0.0
C1758 C 0.5881 0.89022 0.47232 0.0
C1759 C 0.54755 0.92554 0.45951 0.0
C1760 C 0.54377 0.94624 0.47158 0.0
C1761 C 0.564 0.94033 0.48366 0.0
C1762 C 0.5858 0.91235 0.48408 0.0
C1763 C 0.5163 0.97176 0.47211 0.0
C1764 C 0.52472 0.00629 0.47224 0.0
C1765 C 0.48174 0.96188 0.47229 0.0
C1766 C 0.47158 0.92566 0.47229 0.0
C1767 C 0.48232 0.90378 0.48327 0.0
C1768 C 0.47342 0.86947 0.48299 0.0
C1769 C 0.45351 0.85679 0.47184 0.0
C1770 C 0.44235 0.87845 0.46099 0.0
C1771 C 0.45126 0.91277 0.46121 0.0
H1772 H 0.44668 0.83021 0.47163 0.0
H1773 H 0.52725 0.1642 0.47121 0.0
H1774 H 0.8825 0.43353 0.50267 0.0
H1775 H 0.93328 0.46803 0.5046 0.0
H1776 H 0.94019 0.44468 0.54958 0.0
H1777 H 0.88829 0.41077 0.54785 0.0
H1778 H 0.95014 0.50968 0.54573 0.0
H1779 H 0.99608 0.41002 0.52425 0.0
H1780 H -8e-05 0.36316 0.50687 0.0
H1781 H 0.01254 0.43469 0.47267 0.0
H1782 H 0.00832 0.48201 0.48982 0.0
H1783 H 0.11811 0.58088 0.54987 0.0
H1784 H 0.06717 0.54577 0.55099 0.0
H1785 H 0.04729 0.56622 0.50646 0.0
H1786 H 0.0984 0.60088 0.50516 0.0
H1787 H 0.04613 0.49983 0.51173 0.0
H1788 H 0.99772 0.59954 0.53366 0.0
H1789 H 0.9947 0.64566 0.55142 0.0
H1790 H 0.98838 0.57258 0.58535 0.0
H1791 H 0.99181 0.52601 0.56779 0.0
C1792 C 0.89496 0.43521 0.51297 0.0
C1793 C 0.88125 0.41916 0.5251 0.0
C1794 C 0.92418 0.45498 0.51404 0.0
C1795 C 0.94094 0.45866 0.52719 0.0
C1796 C 0.92775 0.44219 0.5393 0.0
C1797 C 0.89817 0.42266 0.53828 0.0
C1798 C 0.97133 0.48088 0.5283 0.0
C1799 C 0.97142 0.50713 0.53846 0.0
C1800 C 0.9989 0.47801 0.51867 0.0
C1801 C 0.00165 0.44958 0.50832 0.0
C1802 C 0.99946 0.41577 0.51301 0.0
C1803 C 0.00173 0.38912 0.5032 0.0
C1804 C 0.00641 0.39595 0.48868 0.0
C1805 C 0.0089 0.42944 0.48393 0.0
C1806 C 0.00662 0.45618 0.49369 0.0
C1807 C 0.10257 0.57853 0.54038 0.0
C1808 C 0.11258 0.59359 0.52739 0.0
C1809 C 0.07338 0.5584 0.54105 0.0
C1810 C 0.05342 0.55327 0.5288 0.0
C1811 C 0.06243 0.56962 0.51603 0.0
C1812 C 0.09164 0.58958 0.51532 0.0
C1813 C 0.02458 0.529 0.52894 0.0
C1814 C 0.02491 0.50225 0.51904 0.0
C1815 C 0.9976 0.53131 0.53887 0.0
C1816 C 0.99537 0.5593 0.54942 0.0
C1817 C 0.99596 0.59331 0.54491 0.0
C1818 C 0.99411 0.61953 0.55494 0.0
C1819 C 0.99144 0.61206 0.56951 0.0
C1820 C 0.9905 0.57834 0.57407 0.0
C1821 C 0.99236 0.55202 0.56408 0.0
H1822 H 0.99003 0.63239 0.57725 0.0
H1823 H 0.00815 0.37528 0.4811 0.0
loop_
_geom_bond_atom_site_label_1
_geom_bond_atom_site_label_2
_geom_bond_distance
_geom_bond_site_symmetry_2
_ccdc_geom_bond_type
Co0 O1 2.216 . S
Co0 O2 2.091 . S
Co0 O4 2.004 . S
Co0 O10 2.021 . S
Co0 O12 2.137 . S
Co0 O13 2.244 . S
O1 Co0 2.216 . S
O1 C8 1.247 . S
O2 Co0 2.091 . S
O2 C8 1.261 . S
C3 O12 1.247 . S
C3 O13 1.272 . S
O4 Co0 2.004 . S
O4 C9 1.259 . S
Co5 O6 2.061 . S
Co5 O11 2.052 . S
Co5 O13 2.135 . S
O6 Co5 2.061 . S
O6 C9 1.235 . S
C7 O10 1.238 . S
C7 O11 1.241 . S
C8 O1 1.247 . S
C8 O2 1.261 . S
C9 O4 1.259 . S
C9 O6 1.235 . S
O10 Co0 2.021 . S
O10 C7 1.238 . S
O11 Co5 2.052 . S
O11 C7 1.241 . S
O12 Co0 2.137 . S
O12 C3 1.247 . S
O13 Co0 2.244 . S
O13 C3 1.272 . S
O13 Co5 2.135 . S
Co14 O15 2.216 . S
Co14 O16 2.091 . S
Co14 O18 2.004 . S
Co14 O24 2.021 . S
Co14 O26 2.137 . S
Co14 O27 2.244 . S
O15 Co14 2.216 . S
O15 C22 1.247 . S
O16 Co14 2.091 . S
O16 C22 1.261 . S
C17 O26 1.247 . S
C17 O27 1.272 . S
O18 Co14 2.004 . S
O18 C23 1.259 . S
Co19 O20 2.061 . S
Co19 O25 2.052 . S
Co19 O27 2.135 . S
O20 Co19 2.061 . S
O20 C23 1.235 . S
C21 O24 1.238 . S
C21 O25 1.241 . S
C22 O15 1.247 . S
C22 O16 1.261 . S
C23 O18 1.259 . S
C23 O20 1.235 . S
O24 Co14 2.021 . S
O24 C21 1.238 . S
O25 Co19 2.052 . S
O25 C21 1.241 . S
O26 Co14 2.137 . S
O26 C17 1.247 . S
O27 Co14 2.244 . S
O27 C17 1.272 . S
O27 Co19 2.135 . S
Co28 O29 2.216 . S
Co28 O30 2.091 . S
Co28 O32 2.004 . S
Co28 O38 2.021 . S
Co28 O40 2.137 . S
Co28 O41 2.244 . S
O29 Co28 2.216 . S
O29 C36 1.247 . S
O30 Co28 2.091 . S
O30 C36 1.261 . S
C31 O40 1.247 . S
C31 O41 1.272 . S
O32 Co28 2.004 . S
O32 C37 1.259 . S
Co33 O34 2.061 . S
Co33 O39 2.052 . S
Co33 O41 2.135 . S
O34 Co33 2.061 . S
O34 C37 1.235 . S
C35 O38 1.238 . S
C35 O39 1.241 . S
C36 O29 1.247 . S
C36 O30 1.261 . S
C37 O32 1.259 . S
C37 O34 1.235 . S
O38 Co28 2.021 . S
O38 C35 1.238 . S
O39 Co33 2.052 . S
O39 C35 1.241 . S
O40 Co28 2.137 . S
O40 C31 1.247 . S
O41 Co28 2.244 . S
O41 C31 1.272 . S
O41 Co33 2.135 . S
Co42 O43 2.216 . S
Co42 O44 2.091 . S
Co42 O46 2.004 . S
Co42 O52 2.021 . S
Co42 O54 2.137 . S
Co42 O55 2.244 . S
O43 Co42 2.216 . S
O43 C50 1.247 . S
O44 Co42 2.091 . S
O44 C50 1.261 . S
C45 O54 1.247 . S
C45 O55 1.272 . S
O46 Co42 2.004 . S
O46 C51 1.259 . S
Co47 O48 2.061 . S
Co47 O53 2.052 . S
Co47 O55 2.135 . S
O48 Co47 2.061 . S
O48 C51 1.235 . S
C49 O52 1.238 . S
C49 O53 1.241 . S
C50 O43 1.247 . S
C50 O44 1.261 . S
C51 O46 1.259 . S
C51 O48 1.235 . S
O52 Co42 2.021 . S
O52 C49 1.238 . S
O53 Co47 2.052 . S
O53 C49 1.241 . S
O54 Co42 2.137 . S
O54 C45 1.247 . S
O55 Co42 2.244 . S
O55 C45 1.272 . S
O55 Co47 2.135 . S
Co56 O57 2.216 . S
Co56 O58 2.091 . S
Co56 O60 2.004 . S
Co56 O66 2.021 . S
Co56 O68 2.137 . S
Co56 O69 2.244 . S
O57 Co56 2.216 . S
O57 C64 1.247 . S
O58 Co56 2.091 . S
O58 C64 1.261 . S
C59 O68 1.247 . S
C59 O69 1.272 . S
O60 Co56 2.004 . S
O60 C65 1.259 . S
Co61 O62 2.061 . S
Co61 O67 2.052 . S
Co61 O69 2.135 . S
O62 Co61 2.061 . S
O62 C65 1.235 . S
C63 O66 1.238 . S
C63 O67 1.241 . S
C64 O57 1.247 . S
C64 O58 1.261 . S
C65 O60 1.259 . S
C65 O62 1.235 . S
O66 Co56 2.021 . S
O66 C63 1.238 . S
O67 Co61 2.052 . S
O67 C63 1.241 . S
O68 Co56 2.137 . S
O68 C59 1.247 . S
O69 Co56 2.244 . S
O69 C59 1.272 . S
O69 Co61 2.135 . S
Co70 O71 2.216 . S
Co70 O72 2.091 . S
Co70 O74 2.004 . S
Co70 O80 2.021 . S
Co70 O82 2.137 . S
Co70 O83 2.244 . S
O71 Co70 2.216 . S
O71 C78 1.247 . S
O72 Co70 2.091 . S
O72 C78 1.261 . S
C73 O82 1.247 . S
C73 O83 1.272 . S
O74 Co70 2.004 . S
O74 C79 1.259 . S
Co75 O76 2.061 . S
Co75 O81 2.052 . S
Co75 O83 2.135 . S
O76 Co75 2.061 . S
O76 C79 1.235 . S
C77 O80 1.238 . S
C77 O81 1.241 . S
C78 O71 1.247 . S
C78 O72 1.261 . S
C79 O74 1.259 . S
C79 O76 1.235 . S
O80 Co70 2.021 . S
O80 C77 1.238 . S
O81 Co75 2.052 . S
O81 C77 1.241 . S
O82 Co70 2.137 . S
O82 C73 1.247 . S
O83 Co70 2.244 . S
O83 C73 1.272 . S
O83 Co75 2.135 . S
Co84 O85 2.216 . S
Co84 O86 2.091 . S
Co84 O88 2.004 . S
Co84 O94 2.021 . S
Co84 O96 2.137 . S
Co84 O97 2.244 . S
O85 Co84 2.216 . S
O85 C92 1.247 . S
O86 Co84 2.091 . S
O86 C92 1.261 . S
C87 O96 1.247 . S
C87 O97 1.272 . S
O88 Co84 2.004 . S
O88 C93 1.259 . S
Co89 O90 2.061 . S
Co89 O95 2.052 . S
Co89 O97 2.135 . S
O90 Co89 2.061 . S
O90 C93 1.235 . S
C91 O94 1.238 . S
C91 O95 1.241 . S
C92 O85 1.247 . S
C92 O86 1.261 . S
C93 O88 1.259 . S
C93 O90 1.235 . S
O94 Co84 2.021 . S
O94 C91 1.238 . S
O95 Co89 2.052 . S
O95 C91 1.241 . S
O96 Co84 2.137 . S
O96 C87 1.247 . S
O97 Co84 2.244 . S
O97 C87 1.272 . S
O97 Co89 2.135 . S
Co98 O99 2.216 . S
Co98 O100 2.091 . S
Co98 O102 2.004 . S
Co98 O108 2.021 . S
Co98 O110 2.137 . S
Co98 O111 2.244 . S
O99 Co98 2.216 . S
O99 C106 1.247 . S
O100 Co98 2.091 . S
O100 C106 1.261 . S
C101 O110 1.247 . S
C101 O111 1.272 . S
O102 Co98 2.004 . S
O102 C107 1.259 . S
Co103 O104 2.061 . S
Co103 O109 2.052 . S
Co103 O111 2.135 . S
O104 Co103 2.061 . S
O104 C107 1.235 . S
C105 O108 1.238 . S
C105 O109 1.241 . S
C106 O99 1.247 . S
C106 O100 1.261 . S
C107 O102 1.259 . S
C107 O104 1.235 . S
O108 Co98 2.021 . S
O108 C105 1.238 . S
O109 Co103 2.052 . S
O109 C105 1.241 . S
O110 Co98 2.137 . S
O110 C101 1.247 . S
O111 Co98 2.244 . S
O111 C101 1.272 . S
O111 Co103 2.135 . S
Co112 O113 2.216 . S
Co112 O114 2.091 . S
Co112 O116 2.004 . S
Co112 O122 2.021 . S
Co112 O124 2.137 . S
Co112 O125 2.244 . S
O113 Co112 2.216 . S
O113 C120 1.247 . S
O114 Co112 2.091 . S
O114 C120 1.261 . S
C115 O124 1.247 . S
C115 O125 1.272 . S
O116 Co112 2.004 . S
O116 C121 1.259 . S
Co117 O118 2.061 . S
Co117 O123 2.052 . S
Co117 O125 2.135 . S
O118 Co117 2.061 . S
O118 C121 1.235 . S
C119 O122 1.238 . S
C119 O123 1.241 . S
C120 O113 1.247 . S
C120 O114 1.261 . S
C121 O116 1.259 . S
C121 O118 1.235 . S
O122 Co112 2.021 . S
O122 C119 1.238 . S
O123 Co117 2.052 . S
O123 C119 1.241 . S
O124 Co112 2.137 . S
O124 C115 1.247 . S
O125 Co112 2.244 . S
O125 C115 1.272 . S
O125 Co117 2.135 . S
Co126 O127 2.216 . S
Co126 O128 2.091 . S
Co126 O130 2.004 . S
Co126 O136 2.021 . S
Co126 O138 2.137 . S
Co126 O139 2.244 . S
O127 Co126 2.216 . S
O127 C134 1.247 . S
O128 Co126 2.091 . S
O128 C134 1.261 . S
C129 O138 1.247 . S
C129 O139 1.272 . S
O130 Co126 2.004 . S
O130 C135 1.259 . S
Co131 O132 2.061 . S
Co131 O137 2.052 . S
Co131 O139 2.135 . S
O132 Co131 2.061 . S
O132 C135 1.235 . S
C133 O136 1.238 . S
C133 O137 1.241 . S
C134 O127 1.247 . S
C134 O128 1.261 . S
C135 O130 1.259 . S
C135 O132 1.235 . S
O136 Co126 2.021 . S
O136 C133 1.238 . S
O137 Co131 2.052 . S
O137 C133 1.241 . S
O138 Co126 2.137 . S
O138 C129 1.247 . S
O139 Co126 2.244 . S
O139 C129 1.272 . S
O139 Co131 2.135 . S
Co140 O141 2.216 . S
Co140 O142 2.091 . S
Co140 O144 2.004 . S
Co140 O150 2.021 . S
Co140 O152 2.137 . S
Co140 O153 2.244 . S
O141 Co140 2.216 . S
O141 C148 1.247 . S
O142 Co140 2.091 . S
O142 C148 1.261 . S
C143 O152 1.247 . S
C143 O153 1.272 . S
O144 Co140 2.004 . S
O144 C149 1.259 . S
Co145 O146 2.061 . S
Co145 O151 2.052 . S
Co145 O153 2.135 . S
O146 Co145 2.061 . S
O146 C149 1.235 . S
C147 O150 1.238 . S
C147 O151 1.241 . S
C148 O141 1.247 . S
C148 O142 1.261 . S
C149 O144 1.259 . S
C149 O146 1.235 . S
O150 Co140 2.021 . S
O150 C147 1.238 . S
O151 Co145 2.052 . S
O151 C147 1.241 . S
O152 Co140 2.137 . S
O152 C143 1.247 . S
O153 Co140 2.244 . S
O153 C143 1.272 . S
O153 Co145 2.135 . S
Co154 O155 2.216 . S
Co154 O156 2.091 . S
Co154 O158 2.004 . S
Co154 O164 2.021 . S
Co154 O166 2.137 . S
Co154 O167 2.244 . S
O155 Co154 2.216 . S
O155 C162 1.247 . S
O156 Co154 2.091 . S
O156 C162 1.261 . S
C157 O166 1.247 . S
C157 O167 1.272 . S
O158 Co154 2.004 . S
O158 C163 1.259 . S
Co159 O160 2.061 . S
Co159 O165 2.052 . S
Co159 O167 2.135 . S
O160 Co159 2.061 . S
O160 C163 1.235 . S
C161 O164 1.238 . S
C161 O165 1.241 . S
C162 O155 1.247 . S
C162 O156 1.261 . S
C163 O158 1.259 . S
C163 O160 1.235 . S
O164 Co154 2.021 . S
O164 C161 1.238 . S
O165 Co159 2.052 . S
O165 C161 1.241 . S
O166 Co154 2.137 . S
O166 C157 1.247 . S
O167 Co154 2.244 . S
O167 C157 1.272 . S
O167 Co159 2.135 . S
Co168 O169 2.216 . S
Co168 O170 2.091 . S
Co168 O172 2.004 . S
Co168 O178 2.021 . S
Co168 O180 2.137 . S
Co168 O181 2.244 . S
O169 Co168 2.216 . S
O169 C176 1.247 . S
O170 Co168 2.091 . S
O170 C176 1.261 . S
C171 O180 1.247 . S
C171 O181 1.272 . S
O172 Co168 2.004 . S
O172 C177 1.259 . S
Co173 O174 2.061 . S
Co173 O179 2.052 . S
Co173 O181 2.135 . S
O174 Co173 2.061 . S
O174 C177 1.235 . S
C175 O178 1.238 . S
C175 O179 1.241 . S
C176 O169 1.247 . S
C176 O170 1.261 . S
C177 O172 1.259 . S
C177 O174 1.235 . S
O178 Co168 2.021 . S
O178 C175 1.238 . S
O179 Co173 2.052 . S
O179 C175 1.241 . S
O180 Co168 2.137 . S
O180 C171 1.247 . S
O181 Co168 2.244 . S
O181 C171 1.272 . S
O181 Co173 2.135 . S
Co182 O183 2.216 . S
Co182 O184 2.091 . S
Co182 O186 2.004 . S
Co182 O192 2.021 . S
Co182 O194 2.137 . S
Co182 O195 2.244 . S
O183 Co182 2.216 . S
O183 C190 1.247 . S
O184 Co182 2.091 . S
O184 C190 1.261 . S
C185 O194 1.247 . S
C185 O195 1.272 . S
O186 Co182 2.004 . S
O186 C191 1.259 . S
Co187 O188 2.061 . S
Co187 O193 2.052 . S
Co187 O195 2.135 . S
O188 Co187 2.061 . S
O188 C191 1.235 . S
C189 O192 1.238 . S
C189 O193 1.241 . S
C190 O183 1.247 . S
C190 O184 1.261 . S
C191 O186 1.259 . S
C191 O188 1.235 . S
O192 Co182 2.021 . S
O192 C189 1.238 . S
O193 Co187 2.052 . S
O193 C189 1.241 . S
O194 Co182 2.137 . S
O194 C185 1.247 . S
O195 Co182 2.244 . S
O195 C185 1.272 . S
O195 Co187 2.135 . S
Co196 O197 2.216 . S
Co196 O198 2.091 . S
Co196 O200 2.004 . S
Co196 O206 2.021 . S
Co196 O208 2.137 . S
Co196 O209 2.244 . S
O197 Co196 2.216 . S
O197 C204 1.247 . S
O198 Co196 2.091 . S
O198 C204 1.261 . S
C199 O208 1.247 . S
C199 O209 1.272 . S
O200 Co196 2.004 . S
O200 C205 1.259 . S
Co201 O202 2.061 . S
Co201 O207 2.052 . S
Co201 O209 2.135 . S
O202 Co201 2.061 . S
O202 C205 1.235 . S
C203 O206 1.238 . S
C203 O207 1.241 . S
C204 O197 1.247 . S
C204 O198 1.261 . S
C205 O200 1.259 . S
C205 O202 1.235 . S
O206 Co196 2.021 . S
O206 C203 1.238 . S
O207 Co201 2.052 . S
O207 C203 1.241 . S
O208 Co196 2.137 . S
O208 C199 1.247 . S
O209 Co196 2.244 . S
O209 C199 1.272 . S
O209 Co201 2.135 . S
Co210 O211 2.216 . S
Co210 O212 2.091 . S
Co210 O214 2.004 . S
Co210 O220 2.021 . S
Co210 O222 2.137 . S
Co210 O223 2.244 . S
O211 Co210 2.216 . S
O211 C218 1.247 . S
O212 Co210 2.091 . S
O212 C218 1.261 . S
C213 O222 1.247 . S
C213 O223 1.272 . S
O214 Co210 2.004 . S
O214 C219 1.259 . S
Co215 O216 2.061 . S
Co215 O221 2.052 . S
Co215 O223 2.135 . S
O216 Co215 2.061 . S
O216 C219 1.235 . S
C217 O220 1.238 . S
C217 O221 1.241 . S
C218 O211 1.247 . S
C218 O212 1.261 . S
C219 O214 1.259 . S
C219 O216 1.235 . S
O220 Co210 2.021 . S
O220 C217 1.238 . S
O221 Co215 2.052 . S
O221 C217 1.241 . S
O222 Co210 2.137 . S
O222 C213 1.247 . S
O223 Co210 2.244 . S
O223 C213 1.272 . S
O223 Co215 2.135 . S
H224 C242 0.951 . S
H225 C244 0.951 . S
H226 C246 0.950 . S
H227 C247 0.950 . S
H228 C249 0.950 . S
H229 C252 0.950 . S
H230 C253 0.950 . S
H231 C255 0.950 . S
H232 C256 0.950 . S
H233 C257 0.951 . S
H234 C259 0.951 . S
H235 C261 0.950 . S
H236 C262 0.950 . S
H237 C264 0.950 . S
H238 C267 0.950 . S
H239 C268 0.950 . S
H240 C270 0.950 . S
H241 C271 0.950 . S
C242 H224 0.951 . S
C242 C243 1.366 . S
C242 C244 1.388 . S
C243 C242 1.366 . S
C243 C247 1.385 . S
C244 H225 0.951 . S
C244 C242 1.388 . S
C244 C245 1.366 . S
C245 C244 1.366 . S
C245 C246 1.414 . S
C245 C248 1.499 . S
C246 H226 0.950 . S
C246 C245 1.414 . S
C246 C247 1.374 . S
C247 H227 0.950 . S
C247 C243 1.385 . S
C247 C246 1.374 . S
C248 C245 1.499 . S
C248 C249 1.373 . S
C248 C250 1.389 . S
C249 H228 0.950 . S
C249 C248 1.373 . S
C249 C265 1.377 . S
C250 C248 1.389 . S
C250 C251 1.524 . S
C250 C264 1.377 . S
C251 C250 1.524 . S
C251 C252 1.397 . S
C251 C256 1.363 . S
C252 H229 0.950 . S
C252 C251 1.397 . S
C252 C253 1.334 . S
C253 H230 0.950 . S
C253 C252 1.334 . S
C253 C254 1.287 . S
C254 C253 1.287 . S
C254 C255 1.524 . S
C254 H273 0.913 . S
C255 H231 0.950 . S
C255 C254 1.524 . S
C255 C256 1.415 . S
C256 H232 0.950 . S
C256 C251 1.363 . S
C256 C255 1.415 . S
C257 H233 0.951 . S
C257 C258 1.366 . S
C257 C259 1.388 . S
C258 C257 1.366 . S
C258 C262 1.385 . S
C259 H234 0.951 . S
C259 C257 1.388 . S
C259 C260 1.366 . S
C260 C259 1.366 . S
C260 C261 1.414 . S
C260 C263 1.499 . S
C261 H235 0.950 . S
C261 C260 1.414 . S
C261 C262 1.374 . S
C262 H236 0.950 . S
C262 C258 1.385 . S
C262 C261 1.374 . S
C263 C260 1.499 . S
C263 C264 1.373 . S
C263 C265 1.389 . S
C264 H237 0.950 . S
C264 C250 1.377 . S
C264 C263 1.373 . S
C265 C249 1.377 . S
C265 C263 1.389 . S
C265 C266 1.524 . S
C266 C265 1.524 . S
C266 C267 1.397 . S
C266 C271 1.363 . S
C267 H238 0.950 . S
C267 C266 1.397 . S
C267 C268 1.334 . S
C268 H239 0.950 . S
C268 C267 1.334 . S
C268 C269 1.287 . S
C269 C268 1.287 . S
C269 C270 1.524 . S
C269 H272 0.999 . S
C270 H240 0.950 . S
C270 C269 1.524 . S
C270 C271 1.415 . S
C271 H241 0.950 . S
C271 C266 1.363 . S
C271 C270 1.415 . S
H272 C269 0.999 . S
H273 C254 0.913 . S
H274 C292 0.951 . S
H275 C294 0.951 . S
H276 C296 0.950 . S
H277 C297 0.950 . S
H278 C299 0.950 . S
H279 C302 0.950 . S
H280 C303 0.950 . S
H281 C305 0.950 . S
H282 C306 0.950 . S
H283 C307 0.951 . S
H284 C309 0.951 . S
H285 C311 0.950 . S
H286 C312 0.950 . S
H287 C314 0.950 . S
H288 C317 0.950 . S
H289 C318 0.950 . S
H290 C320 0.950 . S
H291 C321 0.950 . S
C292 H274 0.951 . S
C292 C293 1.366 . S
C292 C294 1.388 . S
C293 C292 1.366 . S
C293 C297 1.385 . S
C294 H275 0.951 . S
C294 C292 1.388 . S
C294 C295 1.366 . S
C295 C294 1.366 . S
C295 C296 1.414 . S
C295 C298 1.499 . S
C296 H276 0.950 . S
C296 C295 1.414 . S
C296 C297 1.374 . S
C297 H277 0.950 . S
C297 C293 1.385 . S
C297 C296 1.374 . S
C298 C295 1.499 . S
C298 C299 1.373 . S
C298 C300 1.389 . S
C299 H278 0.950 . S
C299 C298 1.373 . S
C299 C315 1.377 . S
C300 C298 1.389 . S
C300 C301 1.524 . S
C300 C314 1.377 . S
C301 C300 1.524 . S
C301 C302 1.397 . S
C301 C306 1.363 . S
C302 H279 0.950 . S
C302 C301 1.397 . S
C302 C303 1.334 . S
C303 H280 0.950 . S
C303 C302 1.334 . S
C303 C304 1.287 . S
C304 C303 1.287 . S
C304 C305 1.524 . S
C304 H323 0.913 . S
C305 H281 0.950 . S
C305 C304 1.524 . S
C305 C306 1.415 . S
C306 H282 0.950 . S
C306 C301 1.363 . S
C306 C305 1.415 . S
C307 H283 0.951 . S
C307 C308 1.366 . S
C307 C309 1.388 . S
C308 C307 1.366 . S
C308 C312 1.385 . S
C309 H284 0.951 . S
C309 C307 1.388 . S
C309 C310 1.366 . S
C310 C309 1.366 . S
C310 C311 1.414 . S
C310 C313 1.499 . S
C311 H285 0.950 . S
C311 C310 1.414 . S
C311 C312 1.374 . S
C312 H286 0.950 . S
C312 C308 1.385 . S
C312 C311 1.374 . S
C313 C310 1.499 . S
C313 C314 1.373 . S
C313 C315 1.389 . S
C314 H287 0.950 . S
C314 C300 1.377 . S
C314 C313 1.373 . S
C315 C299 1.377 . S
C315 C313 1.389 . S
C315 C316 1.524 . S
C316 C315 1.524 . S
C316 C317 1.397 . S
C316 C321 1.363 . S
C317 H288 0.950 . S
C317 C316 1.397 . S
C317 C318 1.334 . S
C318 H289 0.950 . S
C318 C317 1.334 . S
C318 C319 1.287 . S
C319 C318 1.287 . S
C319 C320 1.524 . S
C319 H322 0.999 . S
C320 H290 0.950 . S
C320 C319 1.524 . S
C320 C321 1.415 . S
C321 H291 0.950 . S
C321 C316 1.363 . S
C321 C320 1.415 . S
H322 C319 0.999 . S
H323 C304 0.913 . S
H324 C342 0.951 . S
H325 C344 0.951 . S
H326 C346 0.950 . S
H327 C347 0.950 . S
H328 C349 0.950 . S
H329 C352 0.950 . S
H330 C353 0.950 . S
H331 C355 0.950 . S
H332 C356 0.950 . S
H333 C357 0.951 . S
H334 C359 0.951 . S
H335 C361 0.950 . S
H336 C362 0.950 . S
H337 C364 0.950 . S
H338 C367 0.950 . S
H339 C368 0.950 . S
H340 C370 0.950 . S
H341 C371 0.950 . S
C342 H324 0.951 . S
C342 C343 1.366 . S
C342 C344 1.388 . S
C343 C342 1.366 . S
C343 C347 1.385 . S
C344 H325 0.951 . S
C344 C342 1.388 . S
C344 C345 1.366 . S
C345 C344 1.366 . S
C345 C346 1.414 . S
C345 C348 1.499 . S
C346 H326 0.950 . S
C346 C345 1.414 . S
C346 C347 1.374 . S
C347 H327 0.950 . S
C347 C343 1.385 . S
C347 C346 1.374 . S
C348 C345 1.499 . S
C348 C349 1.373 . S
C348 C350 1.389 . S
C349 H328 0.950 . S
C349 C348 1.373 . S
C349 C365 1.377 . S
C350 C348 1.389 . S
C350 C351 1.524 . S
C350 C364 1.377 . S
C351 C350 1.524 . S
C351 C352 1.397 . S
C351 C356 1.363 . S
C352 H329 0.950 . S
C352 C351 1.397 . S
C352 C353 1.334 . S
C353 H330 0.950 . S
C353 C352 1.334 . S
C353 C354 1.287 . S
C354 C353 1.287 . S
C354 C355 1.524 . S
C354 H373 0.913 . S
C355 H331 0.950 . S
C355 C354 1.524 . S
C355 C356 1.415 . S
C356 H332 0.950 . S
C356 C351 1.363 . S
C356 C355 1.415 . S
C357 H333 0.951 . S
C357 C358 1.366 . S
C357 C359 1.388 . S
C358 C357 1.366 . S
C358 C362 1.385 . S
C359 H334 0.951 . S
C359 C357 1.388 . S
C359 C360 1.366 . S
C360 C359 1.366 . S
C360 C361 1.414 . S
C360 C363 1.499 . S
C361 H335 0.950 . S
C361 C360 1.414 . S
C361 C362 1.374 . S
C362 H336 0.950 . S
C362 C358 1.385 . S
C362 C361 1.374 . S
C363 C360 1.499 . S
C363 C364 1.373 . S
C363 C365 1.389 . S
C364 H337 0.950 . S
C364 C350 1.377 . S
C364 C363 1.373 . S
C365 C349 1.377 . S
C365 C363 1.389 . S
C365 C366 1.524 . S
C366 C365 1.524 . S
C366 C367 1.397 . S
C366 C371 1.363 . S
C367 H338 0.950 . S
C367 C366 1.397 . S
C367 C368 1.334 . S
C368 H339 0.950 . S
C368 C367 1.334 . S
C368 C369 1.287 . S
C369 C368 1.287 . S
C369 C370 1.524 . S
C369 H372 0.999 . S
C370 H340 0.950 . S
C370 C369 1.524 . S
C370 C371 1.415 . S
C371 H341 0.950 . S
C371 C366 1.363 . S
C371 C370 1.415 . S
H372 C369 0.999 . S
H373 C354 0.913 . S
H374 C392 0.951 . S
H375 C394 0.951 . S
H376 C396 0.950 . S
H377 C397 0.950 . S
H378 C399 0.950 . S
H379 C402 0.950 . S
H380 C403 0.950 . S
H381 C405 0.950 . S
H382 C406 0.950 . S
H383 C407 0.951 . S
H384 C409 0.951 . S
H385 C411 0.950 . S
H386 C412 0.950 . S
H387 C414 0.950 . S
H388 C417 0.950 . S
H389 C418 0.950 . S
H390 C420 0.950 . S
H391 C421 0.950 . S
C392 H374 0.951 . S
C392 C393 1.366 . S
C392 C394 1.388 . S
C393 C392 1.366 . S
C393 C397 1.385 . S
C394 H375 0.951 . S
C394 C392 1.388 . S
C394 C395 1.366 . S
C395 C394 1.366 . S
C395 C396 1.414 . S
C395 C398 1.499 . S
C396 H376 0.950 . S
C396 C395 1.414 . S
C396 C397 1.374 . S
C397 H377 0.950 . S
C397 C393 1.385 . S
C397 C396 1.374 . S
C398 C395 1.499 . S
C398 C399 1.373 . S
C398 C400 1.389 . S
C399 H378 0.950 . S
C399 C398 1.373 . S
C399 C415 1.377 . S
C400 C398 1.389 . S
C400 C401 1.524 . S
C400 C414 1.377 . S
C401 C400 1.524 . S
C401 C402 1.397 . S
C401 C406 1.363 . S
C402 H379 0.950 . S
C402 C401 1.397 . S
C402 C403 1.334 . S
C403 H380 0.950 . S
C403 C402 1.334 . S
C403 C404 1.287 . S
C404 C403 1.287 . S
C404 C405 1.524 . S
C404 H423 0.913 . S
C405 H381 0.950 . S
C405 C404 1.524 . S
C405 C406 1.415 . S
C406 H382 0.950 . S
C406 C401 1.363 . S
C406 C405 1.415 . S
C407 H383 0.951 . S
C407 C408 1.366 . S
C407 C409 1.388 . S
C408 C407 1.366 . S
C408 C412 1.385 . S
C409 H384 0.951 . S
C409 C407 1.388 . S
C409 C410 1.366 . S
C410 C409 1.366 . S
C410 C411 1.414 . S
C410 C413 1.499 . S
C411 H385 0.950 . S
C411 C410 1.414 . S
C411 C412 1.374 . S
C412 H386 0.950 . S
C412 C408 1.385 . S
C412 C411 1.374 . S
C413 C410 1.499 . S
C413 C414 1.373 . S
C413 C415 1.389 . S
C414 H387 0.950 . S
C414 C400 1.377 . S
C414 C413 1.373 . S
C415 C399 1.377 . S
C415 C413 1.389 . S
C415 C416 1.524 . S
C416 C415 1.524 . S
C416 C417 1.397 . S
C416 C421 1.363 . S
C417 H388 0.950 . S
C417 C416 1.397 . S
C417 C418 1.334 . S
C418 H389 0.950 . S
C418 C417 1.334 . S
C418 C419 1.287 . S
C419 C418 1.287 . S
C419 C420 1.524 . S
C419 H422 0.999 . S
C420 H390 0.950 . S
C420 C419 1.524 . S
C420 C421 1.415 . S
C421 H391 0.950 . S
C421 C416 1.363 . S
C421 C420 1.415 . S
H422 C419 0.999 . S
H423 C404 0.913 . S
H424 C442 0.951 . S
H425 C444 0.951 . S
H426 C446 0.950 . S
H427 C447 0.950 . S
H428 C449 0.950 . S
H429 C452 0.950 . S
H430 C453 0.950 . S
H431 C455 0.950 . S
H432 C456 0.950 . S
H433 C457 0.951 . S
H434 C459 0.951 . S
H435 C461 0.950 . S
H436 C462 0.950 . S
H437 C464 0.950 . S
H438 C467 0.950 . S
H439 C468 0.950 . S
H440 C470 0.950 . S
H441 C471 0.950 . S
C442 H424 0.951 . S
C442 C443 1.366 . S
C442 C444 1.388 1_565 S
C443 C442 1.366 . S
C443 C447 1.385 1_565 S
C444 H425 0.951 . S
C444 C442 1.388 1_545 S
C444 C445 1.366 . S
C445 C444 1.366 . S
C445 C446 1.414 . S
C445 C448 1.499 . S
C446 H426 0.950 . S
C446 C445 1.414 . S
C446 C447 1.374 . S
C447 H427 0.950 . S
C447 C443 1.385 1_545 S
C447 C446 1.374 . S
C448 C445 1.499 . S
C448 C449 1.373 . S
C448 C450 1.389 1_554 S
C449 H428 0.950 . S
C449 C448 1.373 . S
C449 C465 1.377 . S
C450 C448 1.389 1_556 S
C450 C451 1.524 . S
C450 C464 1.377 . S
C451 C450 1.524 . S
C451 C452 1.397 . S
C451 C456 1.363 . S
C452 H429 0.950 . S
C452 C451 1.397 . S
C452 C453 1.334 . S
C453 H430 0.950 . S
C453 C452 1.334 . S
C453 C454 1.287 . S
C454 C453 1.287 . S
C454 C455 1.524 . S
C454 H473 0.913 1_545 S
C455 H431 0.950 . S
C455 C454 1.524 . S
C455 C456 1.415 . S
C456 H432 0.950 . S
C456 C451 1.363 . S
C456 C455 1.415 . S
C457 H433 0.951 . S
C457 C458 1.366 . S
C457 C459 1.388 . S
C458 C457 1.366 . S
C458 C462 1.385 . S
C459 H434 0.951 . S
C459 C457 1.388 . S
C459 C460 1.366 . S
C460 C459 1.366 . S
C460 C461 1.414 . S
C460 C463 1.507 . S
C461 H435 0.950 . S
C461 C460 1.414 . S
C461 C462 1.374 . S
C462 H436 0.950 . S
C462 C458 1.385 . S
C462 C461 1.374 . S
C463 C460 1.507 . S
C463 C464 1.386 . S
C463 C465 1.369 1_556 S
C464 H437 0.950 . S
C464 C450 1.377 . S
C464 C463 1.386 . S
C465 C449 1.377 . S
C465 C463 1.369 1_554 S
C465 C466 1.524 . S
C466 C465 1.524 . S
C466 C467 1.397 . S
C466 C471 1.363 . S
C467 H438 0.950 . S
C467 C466 1.397 . S
C467 C468 1.334 . S
C468 H439 0.950 . S
C468 C467 1.334 . S
C468 C469 1.287 . S
C469 C468 1.287 . S
C469 C470 1.524 . S
C469 H472 0.999 . S
C470 H440 0.950 . S
C470 C469 1.524 . S
C470 C471 1.415 . S
C471 H441 0.950 . S
C471 C466 1.363 . S
C471 C470 1.415 . S
H472 C469 0.999 . S
H473 C454 0.913 1_565 S
H474 C492 0.951 . S
H475 C494 0.951 1_556 S
H476 C496 0.950 . S
H477 C497 0.950 . S
H478 C499 0.950 . S
H479 C502 0.950 . S
H480 C503 0.950 . S
H481 C505 0.950 . S
H482 C506 0.950 . S
H483 C507 0.951 . S
H484 C509 0.951 . S
H485 C511 0.950 . S
H486 C512 0.950 . S
H487 C514 0.950 . S
H488 C517 0.950 . S
H489 C518 0.950 . S
H490 C520 0.950 . S
H491 C521 0.950 . S
C492 H474 0.951 . S
C492 C493 1.366 . S
C492 C494 1.388 . S
C493 C492 1.366 . S
C493 C497 1.385 . S
C494 H475 0.951 1_554 S
C494 C492 1.388 . S
C494 C495 1.366 . S
C495 C494 1.366 . S
C495 C496 1.414 . S
C495 C498 1.520 . S
C496 H476 0.950 . S
C496 C495 1.414 . S
C496 C497 1.374 . S
C497 H477 0.950 . S
C497 C493 1.385 . S
C497 C496 1.374 . S
C498 C495 1.520 . S
C498 C499 1.408 . S
C498 C500 1.335 1_554 S
C499 H478 0.950 . S
C499 C498 1.408 . S
C499 C515 1.377 . S
C500 C498 1.335 1_556 S
C500 C501 1.524 . S
C500 C514 1.377 . S
C501 C500 1.524 . S
C501 C502 1.397 . S
C501 C506 1.363 . S
C502 H479 0.950 . S
C502 C501 1.397 . S
C502 C503 1.334 . S
C503 H480 0.950 . S
C503 C502 1.334 . S
C503 C504 1.287 . S
C504 C503 1.287 . S
C504 C505 1.524 . S
C504 H523 0.913 . S
C505 H481 0.950 . S
C505 C504 1.524 . S
C505 C506 1.415 . S
C506 H482 0.950 . S
C506 C501 1.363 . S
C506 C505 1.415 . S
C507 H483 0.951 . S
C507 C508 1.366 . S
C507 C509 1.388 1_655 S
C508 C507 1.366 . S
C508 C512 1.385 1_655 S
C509 H484 0.951 . S
C509 C507 1.388 1_455 S
C509 C510 1.366 . S
C510 C509 1.366 . S
C510 C511 1.414 . S
C510 C513 1.499 . S
C511 H485 0.950 . S
C511 C510 1.414 . S
C511 C512 1.374 . S
C512 H486 0.950 . S
C512 C508 1.385 1_455 S
C512 C511 1.374 . S
C513 C510 1.499 . S
C513 C514 1.373 . S
C513 C515 1.389 1_556 S
C514 H487 0.950 . S
C514 C500 1.377 . S
C514 C513 1.373 . S
C515 C499 1.377 . S
C515 C513 1.389 1_554 S
C515 C516 1.524 . S
C516 C515 1.524 . S
C516 C517 1.397 . S
C516 C521 1.363 . S
C517 H488 0.950 . S
C517 C516 1.397 . S
C517 C518 1.334 . S
C518 H489 0.950 . S
C518 C517 1.334 . S
C518 C519 1.287 . S
C519 C518 1.287 . S
C519 C520 1.524 . S
C519 H522 0.999 . S
C520 H490 0.950 . S
C520 C519 1.524 . S
C520 C521 1.415 . S
C521 H491 0.950 . S
C521 C516 1.363 . S
C521 C520 1.415 . S
H522 C519 0.999 . S
H523 C504 0.913 . S
H524 C542 0.914 1_554 S
H525 C544 1.028 . S
H526 C546 0.950 . S
H527 C547 0.950 . S
H528 C549 0.950 . S
H529 C552 0.950 . S
H530 C553 0.950 . S
H531 C555 0.950 . S
H532 C556 0.950 . S
H533 C557 0.951 . S
H534 C559 0.888 1_556 S
H535 C561 0.950 . S
H536 C562 0.950 . S
H537 C564 0.950 . S
H538 C567 0.950 1_554 S
H539 C568 0.950 . S
H540 C570 0.950 . S
H541 C571 0.950 . S
C542 H524 0.914 1_556 S
C542 C543 1.366 . S
C542 C544 1.358 1_556 S
C543 C542 1.366 . S
C543 C547 1.385 . S
C544 H525 1.028 . S
C544 C542 1.358 1_554 S
C544 C545 1.323 1_554 S
C545 C544 1.323 1_556 S
C545 C546 1.414 . S
C545 C548 1.499 . S
C546 H526 0.950 . S
C546 C545 1.414 . S
C546 C547 1.374 . S
C547 H527 0.950 . S
C547 C543 1.385 . S
C547 C546 1.374 . S
C548 C545 1.499 . S
C548 C549 1.373 . S
C548 C550 1.389 1_556 S
C549 H528 0.950 . S
C549 C548 1.373 . S
C549 C565 1.377 . S
C550 C548 1.389 1_554 S
C550 C551 1.524 . S
C550 C564 1.377 . S
C551 C550 1.524 . S
C551 C552 1.397 . S
C551 C556 1.363 . S
C552 H529 0.950 . S
C552 C551 1.397 . S
C552 C553 1.334 . S
C553 H530 0.950 . S
C553 C552 1.334 . S
C553 C554 1.287 . S
C554 C553 1.287 . S
C554 C555 1.524 . S
C554 H573 0.913 . S
C555 H531 0.950 . S
C555 C554 1.524 . S
C555 C556 1.415 . S
C556 H532 0.950 . S
C556 C551 1.363 . S
C556 C555 1.415 . S
C557 H533 0.951 . S
C557 C558 1.366 . S
C557 C559 1.388 1_545 S
C558 C557 1.366 . S
C558 C562 1.385 1_545 S
C559 H534 0.888 1_554 S
C559 C557 1.388 1_565 S
C559 C560 1.366 . S
C560 C559 1.366 . S
C560 C561 1.414 . S
C560 C563 1.499 . S
C561 H535 0.950 . S
C561 C560 1.414 . S
C561 C562 1.374 . S
C562 H536 0.950 . S
C562 C558 1.385 1_565 S
C562 C561 1.374 . S
C563 C560 1.499 . S
C563 C564 1.373 . S
C563 C565 1.389 1_554 S
C564 H537 0.950 . S
C564 C550 1.377 . S
C564 C563 1.373 . S
C565 C549 1.377 . S
C565 C563 1.389 1_556 S
C565 C566 1.524 . S
C566 C565 1.524 . S
C566 C567 1.397 . S
C566 C571 1.363 . S
C567 H538 0.950 1_556 S
C567 C566 1.397 . S
C567 C568 1.334 1_565 S
C568 H539 0.950 . S
C568 C567 1.334 1_545 S
C568 C569 1.287 . S
C569 C568 1.287 . S
C569 C570 1.524 1_545 S
C569 H572 0.999 . S
C570 H540 0.950 . S
C570 C569 1.524 1_565 S
C570 C571 1.415 . S
C571 H541 0.950 . S
C571 C566 1.363 . S
C571 C570 1.415 . S
H572 C569 0.999 . S
H573 C554 0.913 . S
H574 C592 0.951 . S
H575 C594 0.951 . S
H576 C596 0.950 . S
H577 C597 0.908 1_556 S
H578 C599 0.950 . S
H579 C602 0.950 . S
H580 C603 0.950 . S
H581 C605 0.950 . S
H582 C606 0.950 . S
H583 C607 0.951 . S
H584 C609 0.951 . S
H585 C611 0.950 1_554 S
H586 C612 0.950 . S
H587 C614 0.950 . S
H588 C617 0.950 . S
H589 C618 0.950 . S
H590 C620 0.950 . S
H591 C621 0.950 . S
C592 H574 0.951 . S
C592 C593 1.366 . S
C592 C594 1.388 . S
C593 C592 1.366 . S
C593 C597 1.385 . S
C594 H575 0.951 . S
C594 C592 1.388 . S
C594 C595 1.366 . S
C595 C594 1.366 . S
C595 C596 1.414 1_554 S
C595 C598 1.523 . S
C596 H576 0.950 . S
C596 C595 1.414 1_556 S
C596 C597 1.374 1_556 S
C597 H577 0.908 1_554 S
C597 C593 1.385 . S
C597 C596 1.374 1_554 S
C598 C595 1.523 . S
C598 C599 1.325 1_554 S
C598 C600 1.416 . S
C599 H578 0.950 . S
C599 C598 1.325 1_556 S
C599 C615 1.377 . S
C600 C598 1.416 . S
C600 C601 1.524 . S
C600 C614 1.377 . S
C601 C600 1.524 . S
C601 C602 1.397 . S
C601 C606 1.363 . S
C602 H579 0.950 . S
C602 C601 1.397 . S
C602 C603 1.334 . S
C603 H580 0.950 . S
C603 C602 1.334 . S
C603 C604 1.287 . S
C604 C603 1.287 . S
C604 C605 1.524 . S
C604 H623 0.913 . S
C605 H581 0.950 . S
C605 C604 1.524 . S
C605 C606 1.415 . S
C606 H582 0.950 . S
C606 C601 1.363 . S
C606 C605 1.415 . S
C607 H583 0.951 . S
C607 C608 1.366 1_655 S
C607 C609 1.388 . S
C608 C607 1.366 1_455 S
C608 C612 1.385 . S
C609 H584 0.951 . S
C609 C607 1.388 . S
C609 C610 1.366 . S
C610 C609 1.366 . S
C610 C611 1.414 . S
C610 C613 1.499 . S
C611 H585 0.950 1_556 S
C611 C610 1.414 . S
C611 C612 1.374 1_655 S
C612 H586 0.950 . S
C612 C608 1.385 . S
C612 C611 1.374 1_455 S
C613 C610 1.499 . S
C613 C614 1.373 1_556 S
C613 C615 1.389 . S
C614 H587 0.950 . S
C614 C600 1.377 . S
C614 C613 1.373 1_554 S
C615 C599 1.377 . S
C615 C613 1.389 . S
C615 C616 1.524 . S
C616 C615 1.524 . S
C616 C617 1.397 . S
C616 C621 1.363 . S
C617 H588 0.950 . S
C617 C616 1.397 . S
C617 C618 1.334 . S
C618 H589 0.950 . S
C618 C617 1.334 . S
C618 C619 1.287 . S
C619 C618 1.287 . S
C619 C620 1.524 . S
C619 H622 0.999 . S
C620 H590 0.950 . S
C620 C619 1.524 . S
C620 C621 1.415 . S
C621 H591 0.950 . S
C621 C616 1.363 . S
C621 C620 1.415 . S
H622 C619 0.999 . S
H623 C604 0.913 . S
H624 C642 0.951 . S
H625 C644 0.951 . S
H626 C646 0.950 . S
H627 C647 0.950 . S
H628 C649 0.950 . S
H629 C652 0.950 . S
H630 C653 0.950 . S
H631 C655 0.950 . S
H632 C656 0.950 . S
H633 C657 0.951 . S
H634 C659 0.951 . S
H635 C661 0.950 . S
H636 C662 0.950 . S
H637 C664 0.950 . S
H638 C667 0.950 . S
H639 C668 0.950 . S
H640 C670 0.950 . S
H641 C671 0.950 . S
C642 H624 0.951 . S
C642 C643 1.366 . S
C642 C644 1.388 . S
C643 C642 1.366 . S
C643 C647 1.385 . S
C644 H625 0.951 . S
C644 C642 1.388 . S
C644 C645 1.366 . S
C645 C644 1.366 . S
C645 C646 1.414 . S
C645 C648 1.499 . S
C646 H626 0.950 . S
C646 C645 1.414 . S
C646 C647 1.374 . S
C647 H627 0.950 . S
C647 C643 1.385 . S
C647 C646 1.374 . S
C648 C645 1.499 . S
C648 C649 1.373 . S
C648 C650 1.389 . S
C649 H628 0.950 . S
C649 C648 1.373 . S
C649 C665 1.377 . S
C650 C648 1.389 . S
C650 C651 1.524 . S
C650 C664 1.377 . S
C651 C650 1.524 . S
C651 C652 1.397 . S
C651 C656 1.363 . S
C652 H629 0.950 . S
C652 C651 1.397 . S
C652 C653 1.334 . S
C653 H630 0.950 . S
C653 C652 1.334 . S
C653 C654 1.287 . S
C654 C653 1.287 . S
C654 C655 1.524 . S
C654 H673 0.913 . S
C655 H631 0.950 . S
C655 C654 1.524 . S
C655 C656 1.415 . S
C656 H632 0.950 . S
C656 C651 1.363 . S
C656 C655 1.415 . S
C657 H633 0.951 . S
C657 C658 1.366 . S
C657 C659 1.388 1_545 S
C658 C657 1.366 . S
C658 C662 1.385 1_545 S
C659 H634 0.951 . S
C659 C657 1.388 1_565 S
C659 C660 1.366 . S
C660 C659 1.366 . S
C660 C661 1.414 . S
C660 C663 1.499 . S
C661 H635 0.950 . S
C661 C660 1.414 . S
C661 C662 1.374 . S
C662 H636 0.950 . S
C662 C658 1.385 1_565 S
C662 C661 1.374 . S
C663 C660 1.499 . S
C663 C664 1.373 . S
C663 C665 1.389 . S
C664 H637 0.950 . S
C664 C650 1.377 . S
C664 C663 1.373 . S
C665 C649 1.377 . S
C665 C663 1.389 . S
C665 C666 1.524 . S
C666 C665 1.524 . S
C666 C667 1.397 . S
C666 C671 1.363 . S
C667 H638 0.950 . S
C667 C666 1.397 . S
C667 C668 1.334 . S
C668 H639 0.950 . S
C668 C667 1.334 . S
C668 C669 1.287 . S
C669 C668 1.287 . S
C669 C670 1.524 . S
C669 H672 0.999 . S
C670 H640 0.950 . S
C670 C669 1.524 . S
C670 C671 1.415 . S
C671 H641 0.950 . S
C671 C666 1.363 . S
C671 C670 1.415 . S
H672 C669 0.999 . S
H673 C654 0.913 . S
H674 C692 0.951 . S
H675 C694 0.951 . S
H676 C696 0.950 . S
H677 C697 0.950 . S
H678 C699 0.950 . S
H679 C702 0.950 . S
H680 C703 0.950 . S
H681 C705 0.950 . S
H682 C706 0.950 . S
H683 C707 0.951 . S
H684 C709 0.951 . S
H685 C711 0.950 . S
H686 C712 0.950 . S
H687 C714 0.950 . S
H688 C717 0.950 . S
H689 C718 0.950 . S
H690 C720 0.950 . S
H691 C721 0.950 . S
C692 H674 0.951 . S
C692 C693 1.366 . S
C692 C694 1.388 1_455 S
C693 C692 1.366 . S
C693 C697 1.385 1_455 S
C694 H675 0.951 . S
C694 C692 1.388 1_655 S
C694 C695 1.366 . S
C695 C694 1.366 . S
C695 C696 1.414 . S
C695 C698 1.499 . S
C696 H676 0.950 . S
C696 C695 1.414 . S
C696 C697 1.374 . S
C697 H677 0.950 . S
C697 C693 1.385 1_655 S
C697 C696 1.374 . S
C698 C695 1.499 . S
C698 C699 1.373 . S
C698 C700 1.389 . S
C699 H678 0.950 . S
C699 C698 1.373 . S
C699 C715 1.377 . S
C700 C698 1.389 . S
C700 C701 1.524 . S
C700 C714 1.377 . S
C701 C700 1.524 . S
C701 C702 1.397 . S
C701 C706 1.363 . S
C702 H679 0.950 . S
C702 C701 1.397 . S
C702 C703 1.334 . S
C703 H680 0.950 . S
C703 C702 1.334 . S
C703 C704 1.287 . S
C704 C703 1.287 . S
C704 C705 1.524 . S
C704 H723 0.913 1_655 S
C705 H681 0.950 . S
C705 C704 1.524 . S
C705 C706 1.415 . S
C706 H682 0.950 . S
C706 C701 1.363 . S
C706 C705 1.415 . S
C707 H683 0.951 . S
C707 C708 1.366 . S
C707 C709 1.388 . S
C708 C707 1.366 . S
C708 C712 1.385 . S
C709 H684 0.951 . S
C709 C707 1.388 . S
C709 C710 1.366 . S
C710 C709 1.366 . S
C710 C711 1.414 . S
C710 C713 1.499 . S
C711 H685 0.950 . S
C711 C710 1.414 . S
C711 C712 1.374 . S
C712 H686 0.950 . S
C712 C708 1.385 . S
C712 C711 1.374 . S
C713 C710 1.499 . S
C713 C714 1.373 . S
C713 C715 1.389 . S
C714 H687 0.950 . S
C714 C700 1.377 . S
C714 C713 1.373 . S
C715 C699 1.377 . S
C715 C713 1.389 . S
C715 C716 1.524 . S
C716 C715 1.524 . S
C716 C717 1.397 . S
C716 C721 1.363 . S
C717 H688 0.950 . S
C717 C716 1.397 . S
C717 C718 1.334 . S
C718 H689 0.950 . S
C718 C717 1.334 . S
C718 C719 1.287 . S
C719 C718 1.287 . S
C719 C720 1.524 . S
C719 H722 0.999 . S
C720 H690 0.950 . S
C720 C719 1.524 . S
C720 C721 1.415 . S
C721 H691 0.950 . S
C721 C716 1.363 . S
C721 C720 1.415 . S
H722 C719 0.999 . S
H723 C704 0.913 1_455 S
H724 C742 0.951 . S
H725 C744 0.951 . S
H726 C746 0.950 . S
H727 C747 0.950 . S
H728 C749 0.950 . S
H729 C752 0.950 . S
H730 C753 0.950 . S
H731 C755 0.950 . S
H732 C756 0.950 . S
H733 C757 0.951 . S
H734 C759 0.951 . S
H735 C761 0.950 . S
H736 C762 0.950 . S
H737 C764 0.950 . S
H738 C767 0.950 . S
H739 C768 0.950 . S
H740 C770 0.950 . S
H741 C771 0.950 . S
C742 H724 0.951 . S
C742 C743 1.366 . S
C742 C744 1.388 1_565 S
C743 C742 1.366 . S
C743 C747 1.385 1_565 S
C744 H725 0.951 . S
C744 C742 1.388 1_545 S
C744 C745 1.366 . S
C745 C744 1.366 . S
C745 C746 1.414 . S
C745 C748 1.499 . S
C746 H726 0.950 . S
C746 C745 1.414 . S
C746 C747 1.374 . S
C747 H727 0.950 . S
C747 C743 1.385 1_545 S
C747 C746 1.374 . S
C748 C745 1.499 . S
C748 C749 1.373 . S
C748 C750 1.389 . S
C749 H728 0.950 . S
C749 C748 1.373 . S
C749 C765 1.377 . S
C750 C748 1.389 . S
C750 C751 1.524 . S
C750 C764 1.377 . S
C751 C750 1.524 . S
C751 C752 1.397 . S
C751 C756 1.363 . S
C752 H729 0.950 . S
C752 C751 1.397 . S
C752 C753 1.334 . S
C753 H730 0.950 . S
C753 C752 1.334 . S
C753 C754 1.287 . S
C754 C753 1.287 . S
C754 C755 1.524 . S
C754 H773 0.913 . S
C755 H731 0.950 . S
C755 C754 1.524 . S
C755 C756 1.415 . S
C756 H732 0.950 . S
C756 C751 1.363 . S
C756 C755 1.415 . S
C757 H733 0.951 . S
C757 C758 1.366 . S
C757 C759 1.388 . S
C758 C757 1.366 . S
C758 C762 1.385 . S
C759 H734 0.951 . S
C759 C757 1.388 . S
C759 C760 1.366 . S
C760 C759 1.366 . S
C760 C761 1.414 . S
C760 C763 1.499 . S
C761 H735 0.950 . S
C761 C760 1.414 . S
C761 C762 1.374 . S
C762 H736 0.950 . S
C762 C758 1.385 . S
C762 C761 1.374 . S
C763 C760 1.499 . S
C763 C764 1.373 . S
C763 C765 1.389 . S
C764 H737 0.950 . S
C764 C750 1.377 . S
C764 C763 1.373 . S
C765 C749 1.377 . S
C765 C763 1.389 . S
C765 C766 1.524 . S
C766 C765 1.524 . S
C766 C767 1.397 . S
C766 C771 1.363 . S
C767 H738 0.950 . S
C767 C766 1.397 . S
C767 C768 1.334 . S
C768 H739 0.950 . S
C768 C767 1.334 . S
C768 C769 1.287 . S
C769 C768 1.287 . S
C769 C770 1.524 . S
C769 H772 0.999 . S
C770 H740 0.950 . S
C770 C769 1.524 . S
C770 C771 1.415 . S
C771 H741 0.950 . S
C771 C766 1.363 . S
C771 C770 1.415 . S
H772 C769 0.999 . S
H773 C754 0.913 . S
H774 C792 0.951 . S
H775 C794 0.951 . S
H776 C796 0.950 . S
H777 C797 0.950 . S
H778 C799 0.950 . S
H779 C802 0.950 . S
H780 C803 0.950 . S
H781 C805 0.950 . S
H782 C806 0.950 . S
H783 C807 0.951 . S
H784 C809 0.951 . S
H785 C811 0.950 . S
H786 C812 0.950 . S
H787 C814 0.950 . S
H788 C817 0.950 . S
H789 C818 0.950 . S
H790 C820 0.950 . S
H791 C821 0.950 . S
C792 H774 0.951 . S
C792 C793 1.366 1_455 S
C792 C794 1.388 . S
C793 C792 1.366 1_655 S
C793 C797 1.385 . S
C794 H775 0.951 . S
C794 C792 1.388 . S
C794 C795 1.366 . S
C795 C794 1.366 . S
C795 C796 1.414 . S
C795 C798 1.499 . S
C796 H776 0.950 . S
C796 C795 1.414 . S
C796 C797 1.374 1_455 S
C797 H777 0.950 . S
C797 C793 1.385 . S
C797 C796 1.374 1_655 S
C798 C795 1.499 . S
C798 C799 1.373 . S
C798 C800 1.389 . S
C799 H778 0.950 . S
C799 C798 1.373 . S
C799 C815 1.377 . S
C800 C798 1.389 . S
C800 C801 1.524 . S
C800 C814 1.377 . S
C801 C800 1.524 . S
C801 C802 1.397 . S
C801 C806 1.363 . S
C802 H779 0.950 . S
C802 C801 1.397 . S
C802 C803 1.334 . S
C803 H780 0.950 . S
C803 C802 1.334 . S
C803 C804 1.287 . S
C804 C803 1.287 . S
C804 C805 1.524 . S
C804 H823 0.913 . S
C805 H781 0.950 . S
C805 C804 1.524 . S
C805 C806 1.415 . S
C806 H782 0.950 . S
C806 C801 1.363 . S
C806 C805 1.415 . S
C807 H783 0.951 . S
C807 C808 1.366 . S
C807 C809 1.388 . S
C808 C807 1.366 . S
C808 C812 1.385 . S
C809 H784 0.951 . S
C809 C807 1.388 . S
C809 C810 1.366 . S
C810 C809 1.366 . S
C810 C811 1.414 . S
C810 C813 1.499 . S
C811 H785 0.950 . S
C811 C810 1.414 . S
C811 C812 1.374 . S
C812 H786 0.950 . S
C812 C808 1.385 . S
C812 C811 1.374 . S
C813 C810 1.499 . S
C813 C814 1.373 . S
C813 C815 1.389 . S
C814 H787 0.950 . S
C814 C800 1.377 . S
C814 C813 1.373 . S
C815 C799 1.377 . S
C815 C813 1.389 . S
C815 C816 1.524 . S
C816 C815 1.524 . S
C816 C817 1.397 . S
C816 C821 1.363 . S
C817 H788 0.950 . S
C817 C816 1.397 . S
C817 C818 1.334 . S
C818 H789 0.950 . S
C818 C817 1.334 . S
C818 C819 1.287 . S
C819 C818 1.287 . S
C819 C820 1.524 . S
C819 H822 0.999 . S
C820 H790 0.950 . S
C820 C819 1.524 . S
C820 C821 1.415 . S
C821 H791 0.950 . S
C821 C816 1.363 . S
C821 C820 1.415 . S
H822 C819 0.999 . S
H823 C804 0.913 . S
H824 C842 0.951 . S
H825 C844 0.951 . S
H826 C846 0.950 . S
H827 C847 0.950 . S
H828 C849 0.950 . S
H829 C852 0.950 . S
H830 C853 0.950 . S
H831 C855 0.950 . S
H832 C856 0.950 . S
H833 C857 0.951 . S
H834 C859 0.951 . S
H835 C861 0.950 . S
H836 C862 0.950 . S
H837 C864 0.950 . S
H838 C867 0.950 . S
H839 C868 0.950 . S
H840 C870 0.950 . S
H841 C871 0.950 . S
C842 H824 0.951 . S
C842 C843 1.366 . S
C842 C844 1.388 . S
C843 C842 1.366 . S
C843 C847 1.385 . S
C844 H825 0.951 . S
C844 C842 1.388 . S
C844 C845 1.366 . S
C845 C844 1.366 . S
C845 C846 1.414 . S
C845 C848 1.499 . S
C846 H826 0.950 . S
C846 C845 1.414 . S
C846 C847 1.374 . S
C847 H827 0.950 . S
C847 C843 1.385 . S
C847 C846 1.374 . S
C848 C845 1.499 . S
C848 C849 1.373 . S
C848 C850 1.389 . S
C849 H828 0.950 . S
C849 C848 1.373 . S
C849 C865 1.377 . S
C850 C848 1.389 . S
C850 C851 1.524 . S
C850 C864 1.377 . S
C851 C850 1.524 . S
C851 C852 1.397 . S
C851 C856 1.363 . S
C852 H829 0.950 . S
C852 C851 1.397 . S
C852 C853 1.334 . S
C853 H830 0.950 . S
C853 C852 1.334 . S
C853 C854 1.287 . S
C854 C853 1.287 . S
C854 C855 1.524 . S
C854 H873 0.913 . S
C855 H831 0.950 . S
C855 C854 1.524 . S
C855 C856 1.415 . S
C856 H832 0.950 . S
C856 C851 1.363 . S
C856 C855 1.415 . S
C857 H833 0.951 . S
C857 C858 1.366 . S
C857 C859 1.388 . S
C858 C857 1.366 . S
C858 C862 1.385 . S
C859 H834 0.951 . S
C859 C857 1.388 . S
C859 C860 1.366 . S
C860 C859 1.366 . S
C860 C861 1.414 . S
C860 C863 1.499 . S
C861 H835 0.950 . S
C861 C860 1.414 . S
C861 C862 1.374 . S
C862 H836 0.950 . S
C862 C858 1.385 . S
C862 C861 1.374 . S
C863 C860 1.499 . S
C863 C864 1.373 . S
C863 C865 1.389 . S
C864 H837 0.950 . S
C864 C850 1.377 . S
C864 C863 1.373 . S
C865 C849 1.377 . S
C865 C863 1.389 . S
C865 C866 1.524 . S
C866 C865 1.524 . S
C866 C867 1.397 . S
C866 C871 1.363 . S
C867 H838 0.950 . S
C867 C866 1.397 . S
C867 C868 1.334 . S
C868 H839 0.950 . S
C868 C867 1.334 . S
C868 C869 1.287 . S
C869 C868 1.287 . S
C869 C870 1.524 . S
C869 H872 0.999 . S
C870 H840 0.950 . S
C870 C869 1.524 . S
C870 C871 1.415 . S
C871 H841 0.950 . S
C871 C866 1.363 . S
C871 C870 1.415 . S
H872 C869 0.999 . S
H873 C854 0.913 . S
H874 C892 0.951 . S
H875 C894 0.951 . S
H876 C896 0.950 . S
H877 C897 0.950 . S
H878 C899 0.950 . S
H879 C902 0.950 . S
H880 C903 0.950 . S
H881 C905 0.950 . S
H882 C906 0.950 . S
H883 C907 0.951 . S
H884 C909 0.951 . S
H885 C911 0.950 . S
H886 C912 0.950 . S
H887 C914 0.950 . S
H888 C917 0.950 . S
H889 C918 0.950 . S
H890 C920 0.950 . S
H891 C921 0.950 . S
C892 H874 0.951 . S
C892 C893 1.366 . S
C892 C894 1.388 . S
C893 C892 1.366 . S
C893 C897 1.385 . S
C894 H875 0.951 . S
C894 C892 1.388 . S
C894 C895 1.366 . S
C895 C894 1.366 . S
C895 C896 1.414 . S
C895 C898 1.499 . S
C896 H876 0.950 . S
C896 C895 1.414 . S
C896 C897 1.374 . S
C897 H877 0.950 . S
C897 C893 1.385 . S
C897 C896 1.374 . S
C898 C895 1.499 . S
C898 C899 1.373 . S
C898 C900 1.389 . S
C899 H878 0.950 . S
C899 C898 1.373 . S
C899 C915 1.377 . S
C900 C898 1.389 . S
C900 C901 1.524 . S
C900 C914 1.377 . S
C901 C900 1.524 . S
C901 C902 1.397 . S
C901 C906 1.363 . S
C902 H879 0.950 . S
C902 C901 1.397 . S
C902 C903 1.334 . S
C903 H880 0.950 . S
C903 C902 1.334 . S
C903 C904 1.287 . S
C904 C903 1.287 . S
C904 C905 1.524 . S
C904 H923 0.913 . S
C905 H881 0.950 . S
C905 C904 1.524 . S
C905 C906 1.415 . S
C906 H882 0.950 . S
C906 C901 1.363 . S
C906 C905 1.415 . S
C907 H883 0.951 . S
C907 C908 1.366 . S
C907 C909 1.388 . S
C908 C907 1.366 . S
C908 C912 1.385 . S
C909 H884 0.951 . S
C909 C907 1.388 . S
C909 C910 1.366 . S
C910 C909 1.366 . S
C910 C911 1.414 . S
C910 C913 1.499 . S
C911 H885 0.950 . S
C911 C910 1.414 . S
C911 C912 1.374 . S
C912 H886 0.950 . S
C912 C908 1.385 . S
C912 C911 1.374 . S
C913 C910 1.499 . S
C913 C914 1.373 . S
C913 C915 1.389 . S
C914 H887 0.950 . S
C914 C900 1.377 . S
C914 C913 1.373 . S
C915 C899 1.377 . S
C915 C913 1.389 . S
C915 C916 1.524 . S
C916 C915 1.524 . S
C916 C917 1.397 . S
C916 C921 1.363 . S
C917 H888 0.950 . S
C917 C916 1.397 . S
C917 C918 1.334 . S
C918 H889 0.950 . S
C918 C917 1.334 . S
C918 C919 1.287 . S
C919 C918 1.287 . S
C919 C920 1.524 . S
C919 H922 0.999 . S
C920 H890 0.950 . S
C920 C919 1.524 . S
C920 C921 1.415 . S
C921 H891 0.950 . S
C921 C916 1.363 . S
C921 C920 1.415 . S
H922 C919 0.999 . S
H923 C904 0.913 . S
H924 C942 0.951 . S
H925 C944 0.951 . S
H926 C946 0.950 . S
H927 C947 0.950 . S
H928 C949 0.950 . S
H929 C952 0.950 . S
H930 C953 0.950 . S
H931 C955 0.950 . S
H932 C956 0.950 . S
H933 C957 0.951 . S
H934 C959 0.951 . S
H935 C961 0.950 . S
H936 C962 0.950 . S
H937 C964 0.950 . S
H938 C967 0.950 . S
H939 C968 0.950 . S
H940 C970 0.950 . S
H941 C971 0.950 . S
C942 H924 0.951 . S
C942 C943 1.366 . S
C942 C944 1.388 . S
C943 C942 1.366 . S
C943 C947 1.385 . S
C944 H925 0.951 . S
C944 C942 1.388 . S
C944 C945 1.366 . S
C945 C944 1.366 . S
C945 C946 1.414 . S
C945 C948 1.499 . S
C946 H926 0.950 . S
C946 C945 1.414 . S
C946 C947 1.374 . S
C947 H927 0.950 . S
C947 C943 1.385 . S
C947 C946 1.374 . S
C948 C945 1.499 . S
C948 C949 1.373 . S
C948 C950 1.389 . S
C949 H928 0.950 . S
C949 C948 1.373 . S
C949 C965 1.377 . S
C950 C948 1.389 . S
C950 C951 1.524 . S
C950 C964 1.377 . S
C951 C950 1.524 . S
C951 C952 1.397 . S
C951 C956 1.363 . S
C952 H929 0.950 . S
C952 C951 1.397 . S
C952 C953 1.334 . S
C953 H930 0.950 . S
C953 C952 1.334 . S
C953 C954 1.287 . S
C954 C953 1.287 . S
C954 C955 1.524 . S
C954 H973 0.913 . S
C955 H931 0.950 . S
C955 C954 1.524 . S
C955 C956 1.415 . S
C956 H932 0.950 . S
C956 C951 1.363 . S
C956 C955 1.415 . S
C957 H933 0.951 . S
C957 C958 1.366 . S
C957 C959 1.388 . S
C958 C957 1.366 . S
C958 C962 1.385 . S
C959 H934 0.951 . S
C959 C957 1.388 . S
C959 C960 1.366 . S
C960 C959 1.366 . S
C960 C961 1.414 . S
C960 C963 1.499 . S
C961 H935 0.950 . S
C961 C960 1.414 . S
C961 C962 1.374 . S
C962 H936 0.950 . S
C962 C958 1.385 . S
C962 C961 1.374 . S
C963 C960 1.499 . S
C963 C964 1.373 . S
C963 C965 1.389 . S
C964 H937 0.950 . S
C964 C950 1.377 . S
C964 C963 1.373 . S
C965 C949 1.377 . S
C965 C963 1.389 . S
C965 C966 1.524 . S
C966 C965 1.524 . S
C966 C967 1.397 . S
C966 C971 1.363 . S
C967 H938 0.950 . S
C967 C966 1.397 . S
C967 C968 1.334 . S
C968 H939 0.950 . S
C968 C967 1.334 . S
C968 C969 1.287 . S
C969 C968 1.287 . S
C969 C970 1.524 . S
C969 H972 0.999 . S
C970 H940 0.950 . S
C970 C969 1.524 . S
C970 C971 1.415 . S
C971 H941 0.950 . S
C971 C966 1.363 . S
C971 C970 1.415 . S
H972 C969 0.999 . S
H973 C954 0.913 . S
H974 C992 0.951 . S
H975 C994 0.951 . S
H976 C996 0.950 . S
H977 C997 0.950 . S
H978 C999 0.950 . S
H979 C1002 0.950 . S
H980 C1003 0.950 . S
H981 C1005 0.950 . S
H982 C1006 0.950 . S
H983 C1007 0.951 . S
H984 C1009 0.951 . S
H985 C1011 0.950 . S
H986 C1012 0.950 . S
H987 C1014 0.950 . S
H988 C1017 0.950 . S
H989 C1018 0.950 . S
H990 C1020 0.950 . S
H991 C1021 0.950 . S
C992 H974 0.951 . S
C992 C993 1.366 . S
C992 C994 1.388 . S
C993 C992 1.366 . S
C993 C997 1.385 . S
C994 H975 0.951 . S
C994 C992 1.388 . S
C994 C995 1.366 . S
C995 C994 1.366 . S
C995 C996 1.414 . S
C995 C998 1.499 . S
C996 H976 0.950 . S
C996 C995 1.414 . S
C996 C997 1.374 . S
C997 H977 0.950 . S
C997 C993 1.385 . S
C997 C996 1.374 . S
C998 C995 1.499 . S
C998 C999 1.373 . S
C998 C1000 1.389 . S
C999 H978 0.950 . S
C999 C998 1.373 . S
C999 C1015 1.377 . S
C1000 C998 1.389 . S
C1000 C1001 1.524 . S
C1000 C1014 1.377 . S
C1001 C1000 1.524 . S
C1001 C1002 1.397 . S
C1001 C1006 1.363 . S
C1002 H979 0.950 . S
C1002 C1001 1.397 . S
C1002 C1003 1.334 . S
C1003 H980 0.950 . S
C1003 C1002 1.334 . S
C1003 C1004 1.287 . S
C1004 C1003 1.287 . S
C1004 C1005 1.524 . S
C1004 H1023 0.913 . S
C1005 H981 0.950 . S
C1005 C1004 1.524 . S
C1005 C1006 1.415 . S
C1006 H982 0.950 . S
C1006 C1001 1.363 . S
C1006 C1005 1.415 . S
C1007 H983 0.951 . S
C1007 C1008 1.366 . S
C1007 C1009 1.388 . S
C1008 C1007 1.366 . S
C1008 C1012 1.385 . S
C1009 H984 0.951 . S
C1009 C1007 1.388 . S
C1009 C1010 1.366 . S
C1010 C1009 1.366 . S
C1010 C1011 1.414 . S
C1010 C1013 1.499 . S
C1011 H985 0.950 . S
C1011 C1010 1.414 . S
C1011 C1012 1.374 . S
C1012 H986 0.950 . S
C1012 C1008 1.385 . S
C1012 C1011 1.374 . S
C1013 C1010 1.499 . S
C1013 C1014 1.373 . S
C1013 C1015 1.389 . S
C1014 H987 0.950 . S
C1014 C1000 1.377 . S
C1014 C1013 1.373 . S
C1015 C999 1.377 . S
C1015 C1013 1.389 . S
C1015 C1016 1.524 . S
C1016 C1015 1.524 . S
C1016 C1017 1.397 . S
C1016 C1021 1.363 . S
C1017 H988 0.950 . S
C1017 C1016 1.397 . S
C1017 C1018 1.334 . S
C1018 H989 0.950 . S
C1018 C1017 1.334 . S
C1018 C1019 1.287 . S
C1019 C1018 1.287 . S
C1019 C1020 1.524 . S
C1019 H1022 0.999 . S
C1020 H990 0.950 . S
C1020 C1019 1.524 . S
C1020 C1021 1.415 . S
C1021 H991 0.950 . S
C1021 C1016 1.363 . S
C1021 C1020 1.415 . S
H1022 C1019 0.999 . S
H1023 C1004 0.913 . S
H1024 C1042 0.951 . S
H1025 C1044 0.951 . S
H1026 C1046 0.950 . S
H1027 C1047 0.950 . S
H1028 C1049 0.950 . S
H1029 C1052 0.950 . S
H1030 C1053 0.950 . S
H1031 C1055 0.950 . S
H1032 C1056 0.950 . S
H1033 C1057 0.951 . S
H1034 C1059 0.951 . S
H1035 C1061 0.950 . S
H1036 C1062 0.950 . S
H1037 C1064 0.950 . S
H1038 C1067 0.950 . S
H1039 C1068 0.950 . S
H1040 C1070 0.950 . S
H1041 C1071 0.950 . S
C1042 H1024 0.951 . S
C1042 C1043 1.366 . S
C1042 C1044 1.388 . S
C1043 C1042 1.366 . S
C1043 C1047 1.385 . S
C1044 H1025 0.951 . S
C1044 C1042 1.388 . S
C1044 C1045 1.366 . S
C1045 C1044 1.366 . S
C1045 C1046 1.414 . S
C1045 C1048 1.499 . S
C1046 H1026 0.950 . S
C1046 C1045 1.414 . S
C1046 C1047 1.374 . S
C1047 H1027 0.950 . S
C1047 C1043 1.385 . S
C1047 C1046 1.374 . S
C1048 C1045 1.499 . S
C1048 C1049 1.373 . S
C1048 C1050 1.389 . S
C1049 H1028 0.950 . S
C1049 C1048 1.373 . S
C1049 C1065 1.377 . S
C1050 C1048 1.389 . S
C1050 C1051 1.524 . S
C1050 C1064 1.377 . S
C1051 C1050 1.524 . S
C1051 C1052 1.397 . S
C1051 C1056 1.363 . S
C1052 H1029 0.950 . S
C1052 C1051 1.397 . S
C1052 C1053 1.334 . S
C1053 H1030 0.950 . S
C1053 C1052 1.334 . S
C1053 C1054 1.287 . S
C1054 C1053 1.287 . S
C1054 C1055 1.524 . S
C1054 H1073 0.913 . S
C1055 H1031 0.950 . S
C1055 C1054 1.524 . S
C1055 C1056 1.415 . S
C1056 H1032 0.950 . S
C1056 C1051 1.363 . S
C1056 C1055 1.415 . S
C1057 H1033 0.951 . S
C1057 C1058 1.366 . S
C1057 C1059 1.388 . S
C1058 C1057 1.366 . S
C1058 C1062 1.385 . S
C1059 H1034 0.951 . S
C1059 C1057 1.388 . S
C1059 C1060 1.366 . S
C1060 C1059 1.366 . S
C1060 C1061 1.414 . S
C1060 C1063 1.499 . S
C1061 H1035 0.950 . S
C1061 C1060 1.414 . S
C1061 C1062 1.374 . S
C1062 H1036 0.950 . S
C1062 C1058 1.385 . S
C1062 C1061 1.374 . S
C1063 C1060 1.499 . S
C1063 C1064 1.373 . S
C1063 C1065 1.389 . S
C1064 H1037 0.950 . S
C1064 C1050 1.377 . S
C1064 C1063 1.373 . S
C1065 C1049 1.377 . S
C1065 C1063 1.389 . S
C1065 C1066 1.524 . S
C1066 C1065 1.524 . S
C1066 C1067 1.397 . S
C1066 C1071 1.363 . S
C1067 H1038 0.950 . S
C1067 C1066 1.397 . S
C1067 C1068 1.334 . S
C1068 H1039 0.950 . S
C1068 C1067 1.334 . S
C1068 C1069 1.287 . S
C1069 C1068 1.287 . S
C1069 C1070 1.524 . S
C1069 H1072 0.999 . S
C1070 H1040 0.950 . S
C1070 C1069 1.524 . S
C1070 C1071 1.415 . S
C1071 H1041 0.950 . S
C1071 C1066 1.363 . S
C1071 C1070 1.415 . S
H1072 C1069 0.999 . S
H1073 C1054 0.913 . S
H1074 C1092 0.951 . S
H1075 C1094 0.951 . S
H1076 C1096 0.950 . S
H1077 C1097 0.950 . S
H1078 C1099 0.950 . S
H1079 C1102 0.950 . S
H1080 C1103 0.950 . S
H1081 C1105 0.950 . S
H1082 C1106 0.950 . S
H1083 C1107 0.951 . S
H1084 C1109 0.951 . S
H1085 C1111 0.950 . S
H1086 C1112 0.950 . S
H1087 C1114 0.950 . S
H1088 C1117 0.950 . S
H1089 C1118 0.950 . S
H1090 C1120 0.950 . S
H1091 C1121 0.950 . S
C1092 H1074 0.951 . S
C1092 C1093 1.366 . S
C1092 C1094 1.388 . S
C1093 C1092 1.366 . S
C1093 C1097 1.385 . S
C1094 H1075 0.951 . S
C1094 C1092 1.388 . S
C1094 C1095 1.366 . S
C1095 C1094 1.366 . S
C1095 C1096 1.414 . S
C1095 C1098 1.499 . S
C1096 H1076 0.950 . S
C1096 C1095 1.414 . S
C1096 C1097 1.374 . S
C1097 H1077 0.950 . S
C1097 C1093 1.385 . S
C1097 C1096 1.374 . S
C1098 C1095 1.499 . S
C1098 C1099 1.373 . S
C1098 C1100 1.389 . S
C1099 H1078 0.950 . S
C1099 C1098 1.373 . S
C1099 C1115 1.377 . S
C1100 C1098 1.389 . S
C1100 C1101 1.524 . S
C1100 C1114 1.377 . S
C1101 C1100 1.524 . S
C1101 C1102 1.397 . S
C1101 C1106 1.363 . S
C1102 H1079 0.950 . S
C1102 C1101 1.397 . S
C1102 C1103 1.334 . S
C1103 H1080 0.950 . S
C1103 C1102 1.334 . S
C1103 C1104 1.287 . S
C1104 C1103 1.287 . S
C1104 C1105 1.524 . S
C1104 H1123 0.913 . S
C1105 H1081 0.950 . S
C1105 C1104 1.524 . S
C1105 C1106 1.415 . S
C1106 H1082 0.950 . S
C1106 C1101 1.363 . S
C1106 C1105 1.415 . S
C1107 H1083 0.951 . S
C1107 C1108 1.366 . S
C1107 C1109 1.388 . S
C1108 C1107 1.366 . S
C1108 C1112 1.385 . S
C1109 H1084 0.951 . S
C1109 C1107 1.388 . S
C1109 C1110 1.366 . S
C1110 C1109 1.366 . S
C1110 C1111 1.414 . S
C1110 C1113 1.499 . S
C1111 H1085 0.950 . S
C1111 C1110 1.414 . S
C1111 C1112 1.374 . S
C1112 H1086 0.950 . S
C1112 C1108 1.385 . S
C1112 C1111 1.374 . S
C1113 C1110 1.499 . S
C1113 C1114 1.373 . S
C1113 C1115 1.389 . S
C1114 H1087 0.950 . S
C1114 C1100 1.377 . S
C1114 C1113 1.373 . S
C1115 C1099 1.377 . S
C1115 C1113 1.389 . S
C1115 C1116 1.524 . S
C1116 C1115 1.524 . S
C1116 C1117 1.397 . S
C1116 C1121 1.363 . S
C1117 H1088 0.950 . S
C1117 C1116 1.397 . S
C1117 C1118 1.334 . S
C1118 H1089 0.950 . S
C1118 C1117 1.334 . S
C1118 C1119 1.287 . S
C1119 C1118 1.287 . S
C1119 C1120 1.524 . S
C1119 H1122 0.999 . S
C1120 H1090 0.950 . S
C1120 C1119 1.524 . S
C1120 C1121 1.415 . S
C1121 H1091 0.950 . S
C1121 C1116 1.363 . S
C1121 C1120 1.415 . S
H1122 C1119 0.999 . S
H1123 C1104 0.913 . S
H1124 C1142 0.951 . S
H1125 C1144 0.951 . S
H1126 C1146 0.950 . S
H1127 C1147 0.950 . S
H1128 C1149 0.950 . S
H1129 C1152 0.950 . S
H1130 C1153 0.950 . S
H1131 C1155 0.950 . S
H1132 C1156 0.950 . S
H1133 C1157 0.951 . S
H1134 C1159 0.951 . S
H1135 C1161 0.950 . S
H1136 C1162 0.950 . S
H1137 C1164 0.950 . S
H1138 C1167 0.950 . S
H1139 C1168 0.950 . S
H1140 C1170 0.950 . S
H1141 C1171 0.950 . S
C1142 H1124 0.951 . S
C1142 C1143 1.366 . S
C1142 C1144 1.388 . S
C1143 C1142 1.366 . S
C1143 C1147 1.385 . S
C1144 H1125 0.951 . S
C1144 C1142 1.388 . S
C1144 C1145 1.366 . S
C1145 C1144 1.366 . S
C1145 C1146 1.414 . S
C1145 C1148 1.499 . S
C1146 H1126 0.950 . S
C1146 C1145 1.414 . S
C1146 C1147 1.374 . S
C1147 H1127 0.950 . S
C1147 C1143 1.385 . S
C1147 C1146 1.374 . S
C1148 C1145 1.499 . S
C1148 C1149 1.373 . S
C1148 C1150 1.389 . S
C1149 H1128 0.950 . S
C1149 C1148 1.373 . S
C1149 C1165 1.377 . S
C1150 C1148 1.389 . S
C1150 C1151 1.524 . S
C1150 C1164 1.377 . S
C1151 C1150 1.524 . S
C1151 C1152 1.397 . S
C1151 C1156 1.363 . S
C1152 H1129 0.950 . S
C1152 C1151 1.397 . S
C1152 C1153 1.334 . S
C1153 H1130 0.950 . S
C1153 C1152 1.334 . S
C1153 C1154 1.287 . S
C1154 C1153 1.287 . S
C1154 C1155 1.524 . S
C1154 H1173 0.913 . S
C1155 H1131 0.950 . S
C1155 C1154 1.524 . S
C1155 C1156 1.415 . S
C1156 H1132 0.950 . S
C1156 C1151 1.363 . S
C1156 C1155 1.415 . S
C1157 H1133 0.951 . S
C1157 C1158 1.366 . S
C1157 C1159 1.388 . S
C1158 C1157 1.366 . S
C1158 C1162 1.385 . S
C1159 H1134 0.951 . S
C1159 C1157 1.388 . S
C1159 C1160 1.366 . S
C1160 C1159 1.366 . S
C1160 C1161 1.414 . S
C1160 C1163 1.499 . S
C1161 H1135 0.950 . S
C1161 C1160 1.414 . S
C1161 C1162 1.374 . S
C1162 H1136 0.950 . S
C1162 C1158 1.385 . S
C1162 C1161 1.374 . S
C1163 C1160 1.499 . S
C1163 C1164 1.373 . S
C1163 C1165 1.389 . S
C1164 H1137 0.950 . S
C1164 C1150 1.377 . S
C1164 C1163 1.373 . S
C1165 C1149 1.377 . S
C1165 C1163 1.389 . S
C1165 C1166 1.524 . S
C1166 C1165 1.524 . S
C1166 C1167 1.397 . S
C1166 C1171 1.363 . S
C1167 H1138 0.950 . S
C1167 C1166 1.397 . S
C1167 C1168 1.334 . S
C1168 H1139 0.950 . S
C1168 C1167 1.334 . S
C1168 C1169 1.287 . S
C1169 C1168 1.287 . S
C1169 C1170 1.524 . S
C1169 H1172 0.999 . S
C1170 H1140 0.950 . S
C1170 C1169 1.524 . S
C1170 C1171 1.415 . S
C1171 H1141 0.950 . S
C1171 C1166 1.363 . S
C1171 C1170 1.415 . S
H1172 C1169 0.999 . S
H1173 C1154 0.913 . S
H1174 C1192 0.951 . S
H1175 C1194 0.951 . S
H1176 C1196 0.950 . S
H1177 C1197 0.950 . S
H1178 C1199 0.950 . S
H1179 C1202 0.950 . S
H1180 C1203 0.950 . S
H1181 C1205 0.950 . S
H1182 C1206 0.950 . S
H1183 C1207 0.951 . S
H1184 C1209 0.951 . S
H1185 C1211 0.950 . S
H1186 C1212 0.950 . S
H1187 C1214 0.950 . S
H1188 C1217 0.950 . S
H1189 C1218 0.950 . S
H1190 C1220 0.950 . S
H1191 C1221 0.950 . S
C1192 H1174 0.951 . S
C1192 C1193 1.366 . S
C1192 C1194 1.388 . S
C1193 C1192 1.366 . S
C1193 C1197 1.385 . S
C1194 H1175 0.951 . S
C1194 C1192 1.388 . S
C1194 C1195 1.366 . S
C1195 C1194 1.366 . S
C1195 C1196 1.414 . S
C1195 C1198 1.499 . S
C1196 H1176 0.950 . S
C1196 C1195 1.414 . S
C1196 C1197 1.374 . S
C1197 H1177 0.950 . S
C1197 C1193 1.385 . S
C1197 C1196 1.374 . S
C1198 C1195 1.499 . S
C1198 C1199 1.373 . S
C1198 C1200 1.389 . S
C1199 H1178 0.950 . S
C1199 C1198 1.373 . S
C1199 C1215 1.377 . S
C1200 C1198 1.389 . S
C1200 C1201 1.524 . S
C1200 C1214 1.377 . S
C1201 C1200 1.524 . S
C1201 C1202 1.397 . S
C1201 C1206 1.363 . S
C1202 H1179 0.950 . S
C1202 C1201 1.397 . S
C1202 C1203 1.334 . S
C1203 H1180 0.950 . S
C1203 C1202 1.334 . S
C1203 C1204 1.287 . S
C1204 C1203 1.287 . S
C1204 C1205 1.524 . S
C1204 H1223 0.913 . S
C1205 H1181 0.950 . S
C1205 C1204 1.524 . S
C1205 C1206 1.415 . S
C1206 H1182 0.950 . S
C1206 C1201 1.363 . S
C1206 C1205 1.415 . S
C1207 H1183 0.951 . S
C1207 C1208 1.366 . S
C1207 C1209 1.388 . S
C1208 C1207 1.366 . S
C1208 C1212 1.385 . S
C1209 H1184 0.951 . S
C1209 C1207 1.388 . S
C1209 C1210 1.366 . S
C1210 C1209 1.366 . S
C1210 C1211 1.414 . S
C1210 C1213 1.499 . S
C1211 H1185 0.950 . S
C1211 C1210 1.414 . S
C1211 C1212 1.374 . S
C1212 H1186 0.950 . S
C1212 C1208 1.385 . S
C1212 C1211 1.374 . S
C1213 C1210 1.499 . S
C1213 C1214 1.373 . S
C1213 C1215 1.389 . S
C1214 H1187 0.950 . S
C1214 C1200 1.377 . S
C1214 C1213 1.373 . S
C1215 C1199 1.377 . S
C1215 C1213 1.389 . S
C1215 C1216 1.524 . S
C1216 C1215 1.524 . S
C1216 C1217 1.397 . S
C1216 C1221 1.363 . S
C1217 H1188 0.950 . S
C1217 C1216 1.397 . S
C1217 C1218 1.334 . S
C1218 H1189 0.950 . S
C1218 C1217 1.334 . S
C1218 C1219 1.287 . S
C1219 C1218 1.287 . S
C1219 C1220 1.524 . S
C1219 H1222 0.999 . S
C1220 H1190 0.950 . S
C1220 C1219 1.524 . S
C1220 C1221 1.415 . S
C1221 H1191 0.950 . S
C1221 C1216 1.363 . S
C1221 C1220 1.415 . S
H1222 C1219 0.999 . S
H1223 C1204 0.913 . S
H1224 C1242 0.951 . S
H1225 C1244 0.951 . S
H1226 C1246 0.950 . S
H1227 C1247 0.950 . S
H1228 C1249 0.950 . S
H1229 C1252 0.950 . S
H1230 C1253 0.950 . S
H1231 C1255 0.950 . S
H1232 C1256 0.950 . S
H1233 C1257 0.951 . S
H1234 C1259 0.951 . S
H1235 C1261 0.950 . S
H1236 C1262 0.950 . S
H1237 C1264 0.950 . S
H1238 C1267 0.950 . S
H1239 C1268 0.950 . S
H1240 C1270 0.950 . S
H1241 C1271 0.950 . S
C1242 H1224 0.951 . S
C1242 C1243 1.366 . S
C1242 C1244 1.388 . S
C1243 C1242 1.366 . S
C1243 C1247 1.385 . S
C1244 H1225 0.951 . S
C1244 C1242 1.388 . S
C1244 C1245 1.366 . S
C1245 C1244 1.366 . S
C1245 C1246 1.414 . S
C1245 C1248 1.499 . S
C1246 H1226 0.950 . S
C1246 C1245 1.414 . S
C1246 C1247 1.374 . S
C1247 H1227 0.950 . S
C1247 C1243 1.385 . S
C1247 C1246 1.374 . S
C1248 C1245 1.499 . S
C1248 C1249 1.373 . S
C1248 C1250 1.389 . S
C1249 H1228 0.950 . S
C1249 C1248 1.373 . S
C1249 C1265 1.377 . S
C1250 C1248 1.389 . S
C1250 C1251 1.524 . S
C1250 C1264 1.377 . S
C1251 C1250 1.524 . S
C1251 C1252 1.397 . S
C1251 C1256 1.363 . S
C1252 H1229 0.950 . S
C1252 C1251 1.397 . S
C1252 C1253 1.334 . S
C1253 H1230 0.950 . S
C1253 C1252 1.334 . S
C1253 C1254 1.287 . S
C1254 C1253 1.287 . S
C1254 C1255 1.524 . S
C1254 H1273 0.913 . S
C1255 H1231 0.950 . S
C1255 C1254 1.524 . S
C1255 C1256 1.415 . S
C1256 H1232 0.950 . S
C1256 C1251 1.363 . S
C1256 C1255 1.415 . S
C1257 H1233 0.951 . S
C1257 C1258 1.366 . S
C1257 C1259 1.388 . S
C1258 C1257 1.366 . S
C1258 C1262 1.385 . S
C1259 H1234 0.951 . S
C1259 C1257 1.388 . S
C1259 C1260 1.366 . S
C1260 C1259 1.366 . S
C1260 C1261 1.414 . S
C1260 C1263 1.499 . S
C1261 H1235 0.950 . S
C1261 C1260 1.414 . S
C1261 C1262 1.374 . S
C1262 H1236 0.950 . S
C1262 C1258 1.385 . S
C1262 C1261 1.374 . S
C1263 C1260 1.499 . S
C1263 C1264 1.373 . S
C1263 C1265 1.389 . S
C1264 H1237 0.950 . S
C1264 C1250 1.377 . S
C1264 C1263 1.373 . S
C1265 C1249 1.377 . S
C1265 C1263 1.389 . S
C1265 C1266 1.524 . S
C1266 C1265 1.524 . S
C1266 C1267 1.397 . S
C1266 C1271 1.363 . S
C1267 H1238 0.950 . S
C1267 C1266 1.397 . S
C1267 C1268 1.334 . S
C1268 H1239 0.950 . S
C1268 C1267 1.334 . S
C1268 C1269 1.287 . S
C1269 C1268 1.287 . S
C1269 C1270 1.524 . S
C1269 H1272 0.999 . S
C1270 H1240 0.950 . S
C1270 C1269 1.524 . S
C1270 C1271 1.415 . S
C1271 H1241 0.950 . S
C1271 C1266 1.363 . S
C1271 C1270 1.415 . S
H1272 C1269 0.999 . S
H1273 C1254 0.913 . S
H1274 C1292 0.951 . S
H1275 C1294 0.951 . S
H1276 C1296 0.950 . S
H1277 C1297 0.950 . S
H1278 C1299 0.950 . S
H1279 C1302 0.950 . S
H1280 C1303 0.950 . S
H1281 C1305 0.950 . S
H1282 C1306 0.950 . S
H1283 C1307 0.951 . S
H1284 C1309 0.951 . S
H1285 C1311 0.950 . S
H1286 C1312 0.950 . S
H1287 C1314 0.950 . S
H1288 C1317 0.950 . S
H1289 C1318 0.950 . S
H1290 C1320 0.950 . S
H1291 C1321 0.950 . S
C1292 H1274 0.951 . S
C1292 C1293 1.366 . S
C1292 C1294 1.388 . S
C1293 C1292 1.366 . S
C1293 C1297 1.385 . S
C1294 H1275 0.951 . S
C1294 C1292 1.388 . S
C1294 C1295 1.366 . S
C1295 C1294 1.366 . S
C1295 C1296 1.414 . S
C1295 C1298 1.499 . S
C1296 H1276 0.950 . S
C1296 C1295 1.414 . S
C1296 C1297 1.374 . S
C1297 H1277 0.950 . S
C1297 C1293 1.385 . S
C1297 C1296 1.374 . S
C1298 C1295 1.499 . S
C1298 C1299 1.373 . S
C1298 C1300 1.389 . S
C1299 H1278 0.950 . S
C1299 C1298 1.373 . S
C1299 C1315 1.377 . S
C1300 C1298 1.389 . S
C1300 C1301 1.524 . S
C1300 C1314 1.377 . S
C1301 C1300 1.524 . S
C1301 C1302 1.397 . S
C1301 C1306 1.363 . S
C1302 H1279 0.950 . S
C1302 C1301 1.397 . S
C1302 C1303 1.334 . S
C1303 H1280 0.950 . S
C1303 C1302 1.334 . S
C1303 C1304 1.287 . S
C1304 C1303 1.287 . S
C1304 C1305 1.524 . S
C1304 H1323 0.913 . S
C1305 H1281 0.950 . S
C1305 C1304 1.524 . S
C1305 C1306 1.415 . S
C1306 H1282 0.950 . S
C1306 C1301 1.363 . S
C1306 C1305 1.415 . S
C1307 H1283 0.951 . S
C1307 C1308 1.366 . S
C1307 C1309 1.388 . S
C1308 C1307 1.366 . S
C1308 C1312 1.385 . S
C1309 H1284 0.951 . S
C1309 C1307 1.388 . S
C1309 C1310 1.366 . S
C1310 C1309 1.366 . S
C1310 C1311 1.414 . S
C1310 C1313 1.499 . S
C1311 H1285 0.950 . S
C1311 C1310 1.414 . S
C1311 C1312 1.374 . S
C1312 H1286 0.950 . S
C1312 C1308 1.385 . S
C1312 C1311 1.374 . S
C1313 C1310 1.499 . S
C1313 C1314 1.373 . S
C1313 C1315 1.389 . S
C1314 H1287 0.950 . S
C1314 C1300 1.377 . S
C1314 C1313 1.373 . S
C1315 C1299 1.377 . S
C1315 C1313 1.389 . S
C1315 C1316 1.524 . S
C1316 C1315 1.524 . S
C1316 C1317 1.397 . S
C1316 C1321 1.363 . S
C1317 H1288 0.950 . S
C1317 C1316 1.397 . S
C1317 C1318 1.334 . S
C1318 H1289 0.950 . S
C1318 C1317 1.334 . S
C1318 C1319 1.287 . S
C1319 C1318 1.287 . S
C1319 C1320 1.524 . S
C1319 H1322 0.999 . S
C1320 H1290 0.950 . S
C1320 C1319 1.524 . S
C1320 C1321 1.415 . S
C1321 H1291 0.950 . S
C1321 C1316 1.363 . S
C1321 C1320 1.415 . S
H1322 C1319 0.999 . S
H1323 C1304 0.913 . S
H1324 C1342 0.951 . S
H1325 C1344 0.951 . S
H1326 C1346 0.950 . S
H1327 C1347 0.950 . S
H1328 C1349 0.950 . S
H1329 C1352 0.950 . S
H1330 C1353 0.950 . S
H1331 C1355 0.950 . S
H1332 C1356 0.950 . S
H1333 C1357 0.951 . S
H1334 C1359 0.951 . S
H1335 C1361 0.950 . S
H1336 C1362 0.950 . S
H1337 C1364 0.950 . S
H1338 C1367 0.950 . S
H1339 C1368 0.950 . S
H1340 C1370 0.950 . S
H1341 C1371 0.950 . S
C1342 H1324 0.951 . S
C1342 C1343 1.366 . S
C1342 C1344 1.388 . S
C1343 C1342 1.366 . S
C1343 C1347 1.385 . S
C1344 H1325 0.951 . S
C1344 C1342 1.388 . S
C1344 C1345 1.366 . S
C1345 C1344 1.366 . S
C1345 C1346 1.414 . S
C1345 C1348 1.499 . S
C1346 H1326 0.950 . S
C1346 C1345 1.414 . S
C1346 C1347 1.374 . S
C1347 H1327 0.950 . S
C1347 C1343 1.385 . S
C1347 C1346 1.374 . S
C1348 C1345 1.499 . S
C1348 C1349 1.373 . S
C1348 C1350 1.389 . S
C1349 H1328 0.950 . S
C1349 C1348 1.373 . S
C1349 C1365 1.377 . S
C1350 C1348 1.389 . S
C1350 C1351 1.524 . S
C1350 C1364 1.377 . S
C1351 C1350 1.524 . S
C1351 C1352 1.397 . S
C1351 C1356 1.363 . S
C1352 H1329 0.950 . S
C1352 C1351 1.397 . S
C1352 C1353 1.334 . S
C1353 H1330 0.950 . S
C1353 C1352 1.334 . S
C1353 C1354 1.287 . S
C1354 C1353 1.287 . S
C1354 C1355 1.524 . S
C1354 H1373 0.913 . S
C1355 H1331 0.950 . S
C1355 C1354 1.524 . S
C1355 C1356 1.415 . S
C1356 H1332 0.950 . S
C1356 C1351 1.363 . S
C1356 C1355 1.415 . S
C1357 H1333 0.951 . S
C1357 C1358 1.366 . S
C1357 C1359 1.388 . S
C1358 C1357 1.366 . S
C1358 C1362 1.385 . S
C1359 H1334 0.951 . S
C1359 C1357 1.388 . S
C1359 C1360 1.366 . S
C1360 C1359 1.366 . S
C1360 C1361 1.414 . S
C1360 C1363 1.499 . S
C1361 H1335 0.950 . S
C1361 C1360 1.414 . S
C1361 C1362 1.374 . S
C1362 H1336 0.950 . S
C1362 C1358 1.385 . S
C1362 C1361 1.374 . S
C1363 C1360 1.499 . S
C1363 C1364 1.373 . S
C1363 C1365 1.389 . S
C1364 H1337 0.950 . S
C1364 C1350 1.377 . S
C1364 C1363 1.373 . S
C1365 C1349 1.377 . S
C1365 C1363 1.389 . S
C1365 C1366 1.524 . S
C1366 C1365 1.524 . S
C1366 C1367 1.397 . S
C1366 C1371 1.363 . S
C1367 H1338 0.950 . S
C1367 C1366 1.397 . S
C1367 C1368 1.334 . S
C1368 H1339 0.950 . S
C1368 C1367 1.334 . S
C1368 C1369 1.287 . S
C1369 C1368 1.287 . S
C1369 C1370 1.524 . S
C1369 H1372 0.999 . S
C1370 H1340 0.950 . S
C1370 C1369 1.524 . S
C1370 C1371 1.415 . S
C1371 H1341 0.950 . S
C1371 C1366 1.363 . S
C1371 C1370 1.415 . S
H1372 C1369 0.999 . S
H1373 C1354 0.913 . S
H1374 C1392 0.951 . S
H1375 C1394 0.951 . S
H1376 C1396 0.950 . S
H1377 C1397 0.950 . S
H1378 C1399 0.950 . S
H1379 C1402 0.950 . S
H1380 C1403 0.950 . S
H1381 C1405 0.950 . S
H1382 C1406 0.950 . S
H1383 C1407 0.951 . S
H1384 C1409 0.951 . S
H1385 C1411 0.950 . S
H1386 C1412 0.950 . S
H1387 C1414 0.950 . S
H1388 C1417 0.950 . S
H1389 C1418 0.950 . S
H1390 C1420 0.950 . S
H1391 C1421 0.950 . S
C1392 H1374 0.951 . S
C1392 C1393 1.366 . S
C1392 C1394 1.388 . S
C1393 C1392 1.366 . S
C1393 C1397 1.385 . S
C1394 H1375 0.951 . S
C1394 C1392 1.388 . S
C1394 C1395 1.366 . S
C1395 C1394 1.366 . S
C1395 C1396 1.414 . S
C1395 C1398 1.499 . S
C1396 H1376 0.950 . S
C1396 C1395 1.414 . S
C1396 C1397 1.374 . S
C1397 H1377 0.950 . S
C1397 C1393 1.385 . S
C1397 C1396 1.374 . S
C1398 C1395 1.499 . S
C1398 C1399 1.373 . S
C1398 C1400 1.389 . S
C1399 H1378 0.950 . S
C1399 C1398 1.373 . S
C1399 C1415 1.377 . S
C1400 C1398 1.389 . S
C1400 C1401 1.524 . S
C1400 C1414 1.377 . S
C1401 C1400 1.524 . S
C1401 C1402 1.397 . S
C1401 C1406 1.363 . S
C1402 H1379 0.950 . S
C1402 C1401 1.397 . S
C1402 C1403 1.334 . S
C1403 H1380 0.950 . S
C1403 C1402 1.334 . S
C1403 C1404 1.287 . S
C1404 C1403 1.287 . S
C1404 C1405 1.524 . S
C1404 H1423 0.913 . S
C1405 H1381 0.950 . S
C1405 C1404 1.524 . S
C1405 C1406 1.415 . S
C1406 H1382 0.950 . S
C1406 C1401 1.363 . S
C1406 C1405 1.415 . S
C1407 H1383 0.951 . S
C1407 C1408 1.366 . S
C1407 C1409 1.388 . S
C1408 C1407 1.366 . S
C1408 C1412 1.385 . S
C1409 H1384 0.951 . S
C1409 C1407 1.388 . S
C1409 C1410 1.366 . S
C1410 C1409 1.366 . S
C1410 C1411 1.414 . S
C1410 C1413 1.499 . S
C1411 H1385 0.950 . S
C1411 C1410 1.414 . S
C1411 C1412 1.374 . S
C1412 H1386 0.950 . S
C1412 C1408 1.385 . S
C1412 C1411 1.374 . S
C1413 C1410 1.499 . S
C1413 C1414 1.373 . S
C1413 C1415 1.389 . S
C1414 H1387 0.950 . S
C1414 C1400 1.377 . S
C1414 C1413 1.373 . S
C1415 C1399 1.377 . S
C1415 C1413 1.389 . S
C1415 C1416 1.524 . S
C1416 C1415 1.524 . S
C1416 C1417 1.397 . S
C1416 C1421 1.363 . S
C1417 H1388 0.950 . S
C1417 C1416 1.397 . S
C1417 C1418 1.334 . S
C1418 H1389 0.950 . S
C1418 C1417 1.334 . S
C1418 C1419 1.287 . S
C1419 C1418 1.287 . S
C1419 C1420 1.524 . S
C1419 H1422 0.999 . S
C1420 H1390 0.950 . S
C1420 C1419 1.524 . S
C1420 C1421 1.415 . S
C1421 H1391 0.950 . S
C1421 C1416 1.363 . S
C1421 C1420 1.415 . S
H1422 C1419 0.999 . S
H1423 C1404 0.913 . S
H1424 C1442 0.951 . S
H1425 C1444 0.951 . S
H1426 C1446 0.950 . S
H1427 C1447 0.950 . S
H1428 C1449 0.950 . S
H1429 C1452 0.950 . S
H1430 C1453 0.950 . S
H1431 C1455 0.950 . S
H1432 C1456 0.950 . S
H1433 C1457 0.951 . S
H1434 C1459 0.951 . S
H1435 C1461 0.950 . S
H1436 C1462 0.950 . S
H1437 C1464 0.950 . S
H1438 C1467 0.950 . S
H1439 C1468 0.950 . S
H1440 C1470 0.950 . S
H1441 C1471 0.950 . S
C1442 H1424 0.951 . S
C1442 C1443 1.366 . S
C1442 C1444 1.388 . S
C1443 C1442 1.366 . S
C1443 C1447 1.385 . S
C1444 H1425 0.951 . S
C1444 C1442 1.388 . S
C1444 C1445 1.366 . S
C1445 C1444 1.366 . S
C1445 C1446 1.414 . S
C1445 C1448 1.499 . S
C1446 H1426 0.950 . S
C1446 C1445 1.414 . S
C1446 C1447 1.374 . S
C1447 H1427 0.950 . S
C1447 C1443 1.385 . S
C1447 C1446 1.374 . S
C1448 C1445 1.499 . S
C1448 C1449 1.373 1_655 S
C1448 C1450 1.389 . S
C1449 H1428 0.950 . S
C1449 C1448 1.373 1_455 S
C1449 C1465 1.377 1_565 S
C1450 C1448 1.389 . S
C1450 C1451 1.524 1_565 S
C1450 C1464 1.377 1_565 S
C1451 C1450 1.524 1_545 S
C1451 C1452 1.394 1_545 S
C1451 C1456 1.367 . S
C1452 H1429 0.950 . S
C1452 C1451 1.394 1_565 S
C1452 C1453 1.334 . S
C1453 H1430 0.950 . S
C1453 C1452 1.334 . S
C1453 C1454 1.287 1_565 S
C1454 C1453 1.287 1_545 S
C1454 C1455 1.524 . S
C1454 H1473 0.913 . S
C1455 H1431 0.950 . S
C1455 C1454 1.524 . S
C1455 C1456 1.415 . S
C1456 H1432 0.950 . S
C1456 C1451 1.367 . S
C1456 C1455 1.415 . S
C1457 H1433 0.951 . S
C1457 C1458 1.366 . S
C1457 C1459 1.388 . S
C1458 C1457 1.366 . S
C1458 C1462 1.385 . S
C1459 H1434 0.951 . S
C1459 C1457 1.388 . S
C1459 C1460 1.366 . S
C1460 C1459 1.366 . S
C1460 C1461 1.414 . S
C1460 C1463 1.499 . S
C1461 H1435 0.950 . S
C1461 C1460 1.414 . S
C1461 C1462 1.374 . S
C1462 H1436 0.950 . S
C1462 C1458 1.385 . S
C1462 C1461 1.374 . S
C1463 C1460 1.499 . S
C1463 C1464 1.373 1_455 S
C1463 C1465 1.389 . S
C1464 H1437 0.950 . S
C1464 C1450 1.377 1_545 S
C1464 C1463 1.373 1_655 S
C1465 C1449 1.377 1_545 S
C1465 C1463 1.389 . S
C1465 C1466 1.524 1_545 S
C1466 C1465 1.524 1_565 S
C1466 C1467 1.394 1_565 S
C1466 C1471 1.367 . S
C1467 H1438 0.950 . S
C1467 C1466 1.394 1_545 S
C1467 C1468 1.334 . S
C1468 H1439 0.950 . S
C1468 C1467 1.334 . S
C1468 C1469 1.287 1_545 S
C1469 C1468 1.287 1_565 S
C1469 C1470 1.524 . S
C1469 H1472 0.999 . S
C1470 H1440 0.950 . S
C1470 C1469 1.524 . S
C1470 C1471 1.415 . S
C1471 H1441 0.950 . S
C1471 C1466 1.367 . S
C1471 C1470 1.415 . S
H1472 C1469 0.999 . S
H1473 C1454 0.913 . S
H1474 C1492 0.951 . S
H1475 C1494 0.951 . S
H1476 C1496 0.950 1_565 S
H1477 C1497 0.950 . S
H1478 C1499 0.950 . S
H1479 C1502 0.950 . S
H1480 C1503 0.950 . S
H1481 C1505 0.950 . S
H1482 C1506 0.950 . S
H1483 C1507 0.951 . S
H1484 C1509 0.951 . S
H1485 C1511 0.950 1_545 S
H1486 C1512 0.950 . S
H1487 C1514 0.950 . S
H1488 C1517 0.950 . S
H1489 C1518 0.950 . S
H1490 C1520 0.950 . S
H1491 C1521 0.950 . S
C1492 H1474 0.951 . S
C1492 C1493 1.366 . S
C1492 C1494 1.388 . S
C1493 C1492 1.366 . S
C1493 C1497 1.385 . S
C1494 H1475 0.951 . S
C1494 C1492 1.388 . S
C1494 C1495 1.366 . S
C1495 C1494 1.366 . S
C1495 C1496 1.414 . S
C1495 C1498 1.499 . S
C1496 H1476 0.950 1_545 S
C1496 C1495 1.414 . S
C1496 C1497 1.374 . S
C1497 H1477 0.950 . S
C1497 C1493 1.385 . S
C1497 C1496 1.374 . S
C1498 C1495 1.499 . S
C1498 C1499 1.373 1_545 S
C1498 C1500 1.389 . S
C1499 H1478 0.950 . S
C1499 C1498 1.373 1_565 S
C1499 C1515 1.377 1_655 S
C1500 C1498 1.389 . S
C1500 C1501 1.524 . S
C1500 C1514 1.377 1_655 S
C1501 C1500 1.524 . S
C1501 C1502 1.397 . S
C1501 C1506 1.363 1_655 S
C1502 H1479 0.950 . S
C1502 C1501 1.397 . S
C1502 C1503 1.334 . S
C1503 H1480 0.950 . S
C1503 C1502 1.334 . S
C1503 C1504 1.287 . S
C1504 C1503 1.287 . S
C1504 C1505 1.524 1_655 S
C1504 H1523 0.913 . S
C1505 H1481 0.950 . S
C1505 C1504 1.524 1_455 S
C1505 C1506 1.415 . S
C1506 H1482 0.950 . S
C1506 C1501 1.363 1_455 S
C1506 C1505 1.415 . S
C1507 H1483 0.951 . S
C1507 C1508 1.366 . S
C1507 C1509 1.388 . S
C1508 C1507 1.366 . S
C1508 C1512 1.385 . S
C1509 H1484 0.951 . S
C1509 C1507 1.388 . S
C1509 C1510 1.366 . S
C1510 C1509 1.366 . S
C1510 C1511 1.414 . S
C1510 C1513 1.499 . S
C1511 H1485 0.950 1_565 S
C1511 C1510 1.414 . S
C1511 C1512 1.374 . S
C1512 H1486 0.950 . S
C1512 C1508 1.385 . S
C1512 C1511 1.374 . S
C1513 C1510 1.499 . S
C1513 C1514 1.373 1_565 S
C1513 C1515 1.389 . S
C1514 H1487 0.950 . S
C1514 C1500 1.377 1_455 S
C1514 C1513 1.373 1_545 S
C1515 C1499 1.377 1_455 S
C1515 C1513 1.389 . S
C1515 C1516 1.524 . S
C1516 C1515 1.524 . S
C1516 C1517 1.397 . S
C1516 C1521 1.363 1_455 S
C1517 H1488 0.950 . S
C1517 C1516 1.397 . S
C1517 C1518 1.334 . S
C1518 H1489 0.950 . S
C1518 C1517 1.334 . S
C1518 C1519 1.287 . S
C1519 C1518 1.287 . S
C1519 C1520 1.524 1_455 S
C1519 H1522 0.999 . S
C1520 H1490 0.950 . S
C1520 C1519 1.524 1_655 S
C1520 C1521 1.415 . S
C1521 H1491 0.950 . S
C1521 C1516 1.363 1_655 S
C1521 C1520 1.415 . S
H1522 C1519 0.999 . S
H1523 C1504 0.913 . S
H1524 C1542 0.951 . S
H1525 C1544 0.951 . S
H1526 C1546 0.950 . S
H1527 C1547 0.950 . S
H1528 C1549 0.950 . S
H1529 C1552 0.950 1_455 S
H1530 C1553 0.950 . S
H1531 C1555 0.950 . S
H1532 C1556 0.950 . S
H1533 C1557 0.951 . S
H1534 C1559 0.951 . S
H1535 C1561 0.950 . S
H1536 C1562 0.950 . S
H1537 C1564 0.950 . S
H1538 C1567 0.950 1_655 S
H1539 C1568 0.950 1_554 S
H1540 C1570 0.950 . S
H1541 C1571 0.950 . S
C1542 H1524 0.951 . S
C1542 C1543 1.366 . S
C1542 C1544 1.388 . S
C1543 C1542 1.366 . S
C1543 C1547 1.385 . S
C1544 H1525 0.951 . S
C1544 C1542 1.388 . S
C1544 C1545 1.366 . S
C1545 C1544 1.366 . S
C1545 C1546 1.414 . S
C1545 C1548 1.499 . S
C1546 H1526 0.950 . S
C1546 C1545 1.414 . S
C1546 C1547 1.374 . S
C1547 H1527 0.950 . S
C1547 C1543 1.385 . S
C1547 C1546 1.374 . S
C1548 C1545 1.499 . S
C1548 C1549 1.373 . S
C1548 C1550 1.389 1_455 S
C1549 H1528 0.950 . S
C1549 C1548 1.373 . S
C1549 C1565 1.377 . S
C1550 C1548 1.389 1_655 S
C1550 C1551 1.524 . S
C1550 C1564 1.377 . S
C1551 C1550 1.524 . S
C1551 C1552 1.397 . S
C1551 C1556 1.363 . S
C1552 H1529 0.950 1_655 S
C1552 C1551 1.397 . S
C1552 C1553 1.334 . S
C1553 H1530 0.950 . S
C1553 C1552 1.334 . S
C1553 C1554 1.287 . S
C1554 C1553 1.287 . S
C1554 C1555 1.524 . S
C1554 H1573 0.913 . S
C1555 H1531 0.950 . S
C1555 C1554 1.524 . S
C1555 C1556 1.415 . S
C1556 H1532 0.950 . S
C1556 C1551 1.363 . S
C1556 C1555 1.415 . S
C1557 H1533 0.951 . S
C1557 C1558 1.366 . S
C1557 C1559 1.388 . S
C1558 C1557 1.366 . S
C1558 C1562 1.385 . S
C1559 H1534 0.951 . S
C1559 C1557 1.388 . S
C1559 C1560 1.366 . S
C1560 C1559 1.366 . S
C1560 C1561 1.414 . S
C1560 C1563 1.499 . S
C1561 H1535 0.950 . S
C1561 C1560 1.414 . S
C1561 C1562 1.374 . S
C1562 H1536 0.950 . S
C1562 C1558 1.385 . S
C1562 C1561 1.374 . S
C1563 C1560 1.499 . S
C1563 C1564 1.373 . S
C1563 C1565 1.389 1_655 S
C1564 H1537 0.950 . S
C1564 C1550 1.377 . S
C1564 C1563 1.373 . S
C1565 C1549 1.377 . S
C1565 C1563 1.389 1_455 S
C1565 C1566 1.524 . S
C1566 C1565 1.524 . S
C1566 C1567 1.397 . S
C1566 C1571 1.363 . S
C1567 H1538 0.950 1_455 S
C1567 C1566 1.397 . S
C1567 C1568 1.334 . S
C1568 H1539 0.950 1_556 S
C1568 C1567 1.334 . S
C1568 C1569 1.287 . S
C1569 C1568 1.287 . S
C1569 C1570 1.524 . S
C1569 H1572 0.999 . S
C1570 H1540 0.950 . S
C1570 C1569 1.524 . S
C1570 C1571 1.415 . S
C1571 H1541 0.950 . S
C1571 C1566 1.363 . S
C1571 C1570 1.415 . S
H1572 C1569 0.999 . S
H1573 C1554 0.913 . S
H1574 C1592 0.951 . S
H1575 C1594 0.951 . S
H1576 C1596 0.950 . S
H1577 C1597 0.950 . S
H1578 C1599 0.950 . S
H1579 C1602 0.950 . S
H1580 C1603 0.950 . S
H1581 C1605 0.950 . S
H1582 C1606 0.950 . S
H1583 C1607 0.951 . S
H1584 C1609 0.951 . S
H1585 C1611 0.950 . S
H1586 C1612 0.950 . S
H1587 C1614 0.950 . S
H1588 C1617 0.950 . S
H1589 C1618 0.950 . S
H1590 C1620 0.950 . S
H1591 C1621 0.950 . S
C1592 H1574 0.951 . S
C1592 C1593 1.366 . S
C1592 C1594 1.388 . S
C1593 C1592 1.366 . S
C1593 C1597 1.385 . S
C1594 H1575 0.951 . S
C1594 C1592 1.388 . S
C1594 C1595 1.366 . S
C1595 C1594 1.366 . S
C1595 C1596 1.414 . S
C1595 C1598 1.499 . S
C1596 H1576 0.950 . S
C1596 C1595 1.414 . S
C1596 C1597 1.374 . S
C1597 H1577 0.950 . S
C1597 C1593 1.385 . S
C1597 C1596 1.374 . S
C1598 C1595 1.499 . S
C1598 C1599 1.373 1_565 S
C1598 C1600 1.389 . S
C1599 H1578 0.950 . S
C1599 C1598 1.373 1_545 S
C1599 C1615 1.377 . S
C1600 C1598 1.389 . S
C1600 C1601 1.524 . S
C1600 C1614 1.377 . S
C1601 C1600 1.524 . S
C1601 C1602 1.397 . S
C1601 C1606 1.363 . S
C1602 H1579 0.950 . S
C1602 C1601 1.397 . S
C1602 C1603 1.334 . S
C1603 H1580 0.950 . S
C1603 C1602 1.334 . S
C1603 C1604 1.287 . S
C1604 C1603 1.287 . S
C1604 C1605 1.524 . S
C1604 H1623 0.913 . S
C1605 H1581 0.950 . S
C1605 C1604 1.524 . S
C1605 C1606 1.415 . S
C1606 H1582 0.950 . S
C1606 C1601 1.363 . S
C1606 C1605 1.415 . S
C1607 H1583 0.951 . S
C1607 C1608 1.366 . S
C1607 C1609 1.388 . S
C1608 C1607 1.366 . S
C1608 C1612 1.385 . S
C1609 H1584 0.951 . S
C1609 C1607 1.388 . S
C1609 C1610 1.366 . S
C1610 C1609 1.366 . S
C1610 C1611 1.414 . S
C1610 C1613 1.499 . S
C1611 H1585 0.950 . S
C1611 C1610 1.414 . S
C1611 C1612 1.374 . S
C1612 H1586 0.950 . S
C1612 C1608 1.385 . S
C1612 C1611 1.374 . S
C1613 C1610 1.499 . S
C1613 C1614 1.373 1_545 S
C1613 C1615 1.389 . S
C1614 H1587 0.950 . S
C1614 C1600 1.377 . S
C1614 C1613 1.373 1_565 S
C1615 C1599 1.377 . S
C1615 C1613 1.389 . S
C1615 C1616 1.524 . S
C1616 C1615 1.524 . S
C1616 C1617 1.397 . S
C1616 C1621 1.363 . S
C1617 H1588 0.950 . S
C1617 C1616 1.397 . S
C1617 C1618 1.334 . S
C1618 H1589 0.950 . S
C1618 C1617 1.334 . S
C1618 C1619 1.287 . S
C1619 C1618 1.287 . S
C1619 C1620 1.524 . S
C1619 H1622 0.999 . S
C1620 H1590 0.950 . S
C1620 C1619 1.524 . S
C1620 C1621 1.415 . S
C1621 H1591 0.950 . S
C1621 C1616 1.363 . S
C1621 C1620 1.415 . S
H1622 C1619 0.999 . S
H1623 C1604 0.913 . S
H1624 C1642 0.951 . S
H1625 C1644 0.951 . S
H1626 C1646 0.950 . S
H1627 C1647 0.950 . S
H1628 C1649 0.950 . S
H1629 C1652 0.950 . S
H1630 C1653 0.950 . S
H1631 C1655 0.950 . S
H1632 C1656 0.950 . S
H1633 C1657 0.951 . S
H1634 C1659 0.951 . S
H1635 C1661 0.950 . S
H1636 C1662 0.950 . S
H1637 C1664 0.950 . S
H1638 C1667 0.950 . S
H1639 C1668 0.950 . S
H1640 C1670 0.950 . S
H1641 C1671 0.950 . S
C1642 H1624 0.951 . S
C1642 C1643 1.366 . S
C1642 C1644 1.388 . S
C1643 C1642 1.366 . S
C1643 C1647 1.385 . S
C1644 H1625 0.951 . S
C1644 C1642 1.388 . S
C1644 C1645 1.366 . S
C1645 C1644 1.366 . S
C1645 C1646 1.414 . S
C1645 C1648 1.499 . S
C1646 H1626 0.950 . S
C1646 C1645 1.414 . S
C1646 C1647 1.374 . S
C1647 H1627 0.950 . S
C1647 C1643 1.385 . S
C1647 C1646 1.374 . S
C1648 C1645 1.499 . S
C1648 C1649 1.373 . S
C1648 C1650 1.389 . S
C1649 H1628 0.950 . S
C1649 C1648 1.373 . S
C1649 C1665 1.377 . S
C1650 C1648 1.389 . S
C1650 C1651 1.524 . S
C1650 C1664 1.377 . S
C1651 C1650 1.524 . S
C1651 C1652 1.397 . S
C1651 C1656 1.363 . S
C1652 H1629 0.950 . S
C1652 C1651 1.397 . S
C1652 C1653 1.334 . S
C1653 H1630 0.950 . S
C1653 C1652 1.334 . S
C1653 C1654 1.287 . S
C1654 C1653 1.287 . S
C1654 C1655 1.524 . S
C1654 H1673 0.913 . S
C1655 H1631 0.950 . S
C1655 C1654 1.524 . S
C1655 C1656 1.415 . S
C1656 H1632 0.950 . S
C1656 C1651 1.363 . S
C1656 C1655 1.415 . S
C1657 H1633 0.951 . S
C1657 C1658 1.366 . S
C1657 C1659 1.388 . S
C1658 C1657 1.366 . S
C1658 C1662 1.385 . S
C1659 H1634 0.951 . S
C1659 C1657 1.388 . S
C1659 C1660 1.366 . S
C1660 C1659 1.366 . S
C1660 C1661 1.414 . S
C1660 C1663 1.499 . S
C1661 H1635 0.950 . S
C1661 C1660 1.414 . S
C1661 C1662 1.374 . S
C1662 H1636 0.950 . S
C1662 C1658 1.385 . S
C1662 C1661 1.374 . S
C1663 C1660 1.499 . S
C1663 C1664 1.373 . S
C1663 C1665 1.389 . S
C1664 H1637 0.950 . S
C1664 C1650 1.377 . S
C1664 C1663 1.373 . S
C1665 C1649 1.377 . S
C1665 C1663 1.389 . S
C1665 C1666 1.524 . S
C1666 C1665 1.524 . S
C1666 C1667 1.397 . S
C1666 C1671 1.363 . S
C1667 H1638 0.950 . S
C1667 C1666 1.397 . S
C1667 C1668 1.334 . S
C1668 H1639 0.950 . S
C1668 C1667 1.334 . S
C1668 C1669 1.287 . S
C1669 C1668 1.287 . S
C1669 C1670 1.524 . S
C1669 H1672 0.999 . S
C1670 H1640 0.950 . S
C1670 C1669 1.524 . S
C1670 C1671 1.415 . S
C1671 H1641 0.950 . S
C1671 C1666 1.363 . S
C1671 C1670 1.415 . S
H1672 C1669 0.999 . S
H1673 C1654 0.913 . S
H1674 C1692 0.951 . S
H1675 C1694 0.951 . S
H1676 C1696 0.950 . S
H1677 C1697 0.950 . S
H1678 C1699 0.950 . S
H1679 C1702 0.950 . S
H1680 C1703 0.950 . S
H1681 C1705 0.950 . S
H1682 C1706 0.950 . S
H1683 C1707 0.951 . S
H1684 C1709 0.951 . S
H1685 C1711 0.950 . S
H1686 C1712 0.950 . S
H1687 C1714 0.950 . S
H1688 C1717 0.950 . S
H1689 C1718 0.950 . S
H1690 C1720 0.950 . S
H1691 C1721 0.950 . S
C1692 H1674 0.951 . S
C1692 C1693 1.366 . S
C1692 C1694 1.388 . S
C1693 C1692 1.366 . S
C1693 C1697 1.385 . S
C1694 H1675 0.951 . S
C1694 C1692 1.388 . S
C1694 C1695 1.366 . S
C1695 C1694 1.366 . S
C1695 C1696 1.414 . S
C1695 C1698 1.499 . S
C1696 H1676 0.950 . S
C1696 C1695 1.414 . S
C1696 C1697 1.374 . S
C1697 H1677 0.950 . S
C1697 C1693 1.385 . S
C1697 C1696 1.374 . S
C1698 C1695 1.499 . S
C1698 C1699 1.373 . S
C1698 C1700 1.389 . S
C1699 H1678 0.950 . S
C1699 C1698 1.373 . S
C1699 C1715 1.377 . S
C1700 C1698 1.389 . S
C1700 C1701 1.524 . S
C1700 C1714 1.377 . S
C1701 C1700 1.524 . S
C1701 C1702 1.397 . S
C1701 C1706 1.363 . S
C1702 H1679 0.950 . S
C1702 C1701 1.397 . S
C1702 C1703 1.334 . S
C1703 H1680 0.950 . S
C1703 C1702 1.334 . S
C1703 C1704 1.287 . S
C1704 C1703 1.287 . S
C1704 C1705 1.524 . S
C1704 H1723 0.913 . S
C1705 H1681 0.950 . S
C1705 C1704 1.524 . S
C1705 C1706 1.415 . S
C1706 H1682 0.950 . S
C1706 C1701 1.363 . S
C1706 C1705 1.415 . S
C1707 H1683 0.951 . S
C1707 C1708 1.366 . S
C1707 C1709 1.388 . S
C1708 C1707 1.366 . S
C1708 C1712 1.385 . S
C1709 H1684 0.951 . S
C1709 C1707 1.388 . S
C1709 C1710 1.366 . S
C1710 C1709 1.366 . S
C1710 C1711 1.414 . S
C1710 C1713 1.499 . S
C1711 H1685 0.950 . S
C1711 C1710 1.414 . S
C1711 C1712 1.374 . S
C1712 H1686 0.950 . S
C1712 C1708 1.385 . S
C1712 C1711 1.374 . S
C1713 C1710 1.499 . S
C1713 C1714 1.373 . S
C1713 C1715 1.389 . S
C1714 H1687 0.950 . S
C1714 C1700 1.377 . S
C1714 C1713 1.373 . S
C1715 C1699 1.377 . S
C1715 C1713 1.389 . S
C1715 C1716 1.524 . S
C1716 C1715 1.524 . S
C1716 C1717 1.397 . S
C1716 C1721 1.363 . S
C1717 H1688 0.950 . S
C1717 C1716 1.397 . S
C1717 C1718 1.334 . S
C1718 H1689 0.950 . S
C1718 C1717 1.334 . S
C1718 C1719 1.287 . S
C1719 C1718 1.287 . S
C1719 C1720 1.524 . S
C1719 H1722 0.999 . S
C1720 H1690 0.950 . S
C1720 C1719 1.524 . S
C1720 C1721 1.415 . S
C1721 H1691 0.950 . S
C1721 C1716 1.363 . S
C1721 C1720 1.415 . S
H1722 C1719 0.999 . S
H1723 C1704 0.913 . S
H1724 C1742 0.951 . S
H1725 C1744 0.951 . S
H1726 C1746 0.950 . S
H1727 C1747 0.950 . S
H1728 C1749 0.950 . S
H1729 C1752 0.950 . S
H1730 C1753 0.950 . S
H1731 C1755 0.950 . S
H1732 C1756 0.950 . S
H1733 C1757 0.951 . S
H1734 C1759 0.951 . S
H1735 C1761 0.950 . S
H1736 C1762 0.950 . S
H1737 C1764 0.950 . S
H1738 C1767 0.950 . S
H1739 C1768 0.950 . S
H1740 C1770 0.950 . S
H1741 C1771 0.950 . S
C1742 H1724 0.951 . S
C1742 C1743 1.366 . S
C1742 C1744 1.388 . S
C1743 C1742 1.366 . S
C1743 C1747 1.385 . S
C1744 H1725 0.951 . S
C1744 C1742 1.388 . S
C1744 C1745 1.366 . S
C1745 C1744 1.366 . S
C1745 C1746 1.414 . S
C1745 C1748 1.499 . S
C1746 H1726 0.950 . S
C1746 C1745 1.414 . S
C1746 C1747 1.374 . S
C1747 H1727 0.950 . S
C1747 C1743 1.385 . S
C1747 C1746 1.374 . S
C1748 C1745 1.499 . S
C1748 C1749 1.386 . S
C1748 C1750 1.389 . S
C1749 H1728 0.950 . S
C1749 C1748 1.386 . S
C1749 C1765 1.364 1_545 S
C1750 C1748 1.389 . S
C1750 C1751 1.524 . S
C1750 C1764 1.364 1_545 S
C1751 C1750 1.524 . S
C1751 C1752 1.397 . S
C1751 C1756 1.363 . S
C1752 H1729 0.950 . S
C1752 C1751 1.397 . S
C1752 C1753 1.334 . S
C1753 H1730 0.950 . S
C1753 C1752 1.334 . S
C1753 C1754 1.287 . S
C1754 C1753 1.287 . S
C1754 C1755 1.524 . S
C1754 H1773 0.913 . S
C1755 H1731 0.950 . S
C1755 C1754 1.524 . S
C1755 C1756 1.415 . S
C1756 H1732 0.950 . S
C1756 C1751 1.363 . S
C1756 C1755 1.415 . S
C1757 H1733 0.951 . S
C1757 C1758 1.366 . S
C1757 C1759 1.388 . S
C1758 C1757 1.366 . S
C1758 C1762 1.385 . S
C1759 H1734 0.951 . S
C1759 C1757 1.388 . S
C1759 C1760 1.366 . S
C1760 C1759 1.366 . S
C1760 C1761 1.414 . S
C1760 C1763 1.499 . S
C1761 H1735 0.950 . S
C1761 C1760 1.414 . S
C1761 C1762 1.374 . S
C1762 H1736 0.950 . S
C1762 C1758 1.385 . S
C1762 C1761 1.374 . S
C1763 C1760 1.499 . S
C1763 C1764 1.386 . S
C1763 C1765 1.389 . S
C1764 H1737 0.950 . S
C1764 C1750 1.364 1_565 S
C1764 C1763 1.386 . S
C1765 C1749 1.364 1_565 S
C1765 C1763 1.389 . S
C1765 C1766 1.524 . S
C1766 C1765 1.524 . S
C1766 C1767 1.397 . S
C1766 C1771 1.363 . S
C1767 H1738 0.950 . S
C1767 C1766 1.397 . S
C1767 C1768 1.334 . S
C1768 H1739 0.950 . S
C1768 C1767 1.334 . S
C1768 C1769 1.287 . S
C1769 C1768 1.287 . S
C1769 C1770 1.524 . S
C1769 H1772 0.999 . S
C1770 H1740 0.950 . S
C1770 C1769 1.524 . S
C1770 C1771 1.415 . S
C1771 H1741 0.950 . S
C1771 C1766 1.363 . S
C1771 C1770 1.415 . S
H1772 C1769 0.999 . S
H1773 C1754 0.913 . S
H1774 C1792 0.951 . S
H1775 C1794 0.951 . S
H1776 C1796 0.950 . S
H1777 C1797 0.950 . S
H1778 C1799 0.950 . S
H1779 C1802 0.950 . S
H1780 C1803 0.950 . S
H1781 C1805 0.950 . S
H1782 C1806 0.950 . S
H1783 C1807 0.951 . S
H1784 C1809 0.951 . S
H1785 C1811 0.950 . S
H1786 C1812 0.950 . S
H1787 C1814 0.950 . S
H1788 C1817 0.950 . S
H1789 C1818 0.950 . S
H1790 C1820 0.950 . S
H1791 C1821 0.950 . S
C1792 H1774 0.951 . S
C1792 C1793 1.366 . S
C1792 C1794 1.388 . S
C1793 C1792 1.366 . S
C1793 C1797 1.385 . S
C1794 H1775 0.951 . S
C1794 C1792 1.388 . S
C1794 C1795 1.366 . S
C1795 C1794 1.366 . S
C1795 C1796 1.414 . S
C1795 C1798 1.499 . S
C1796 H1776 0.950 . S
C1796 C1795 1.414 . S
C1796 C1797 1.374 . S
C1797 H1777 0.950 . S
C1797 C1793 1.385 . S
C1797 C1796 1.374 . S
C1798 C1795 1.499 . S
C1798 C1799 1.373 . S
C1798 C1800 1.389 . S
C1799 H1778 0.950 . S
C1799 C1798 1.373 . S
C1799 C1815 1.377 1_655 S
C1800 C1798 1.389 . S
C1800 C1801 1.524 . S
C1800 C1814 1.377 1_655 S
C1801 C1800 1.524 . S
C1801 C1802 1.397 . S
C1801 C1806 1.363 . S
C1802 H1779 0.950 . S
C1802 C1801 1.397 . S
C1802 C1803 1.334 . S
C1803 H1780 0.950 . S
C1803 C1802 1.334 . S
C1803 C1804 1.287 . S
C1804 C1803 1.287 . S
C1804 C1805 1.524 . S
C1804 H1823 0.913 . S
C1805 H1781 0.950 . S
C1805 C1804 1.524 . S
C1805 C1806 1.415 . S
C1806 H1782 0.950 . S
C1806 C1801 1.363 . S
C1806 C1805 1.415 . S
C1807 H1783 0.951 . S
C1807 C1808 1.366 . S
C1807 C1809 1.388 . S
C1808 C1807 1.366 . S
C1808 C1812 1.385 . S
C1809 H1784 0.951 . S
C1809 C1807 1.388 . S
C1809 C1810 1.366 . S
C1810 C1809 1.366 . S
C1810 C1811 1.414 . S
C1810 C1813 1.499 . S
C1811 H1785 0.950 . S
C1811 C1810 1.414 . S
C1811 C1812 1.374 . S
C1812 H1786 0.950 . S
C1812 C1808 1.385 . S
C1812 C1811 1.374 . S
C1813 C1810 1.499 . S
C1813 C1814 1.373 . S
C1813 C1815 1.389 . S
C1814 H1787 0.950 . S
C1814 C1800 1.377 1_455 S
C1814 C1813 1.373 . S
C1815 C1799 1.377 1_455 S
C1815 C1813 1.389 . S
C1815 C1816 1.524 . S
C1816 C1815 1.524 . S
C1816 C1817 1.397 . S
C1816 C1821 1.363 . S
C1817 H1788 0.950 . S
C1817 C1816 1.397 . S
C1817 C1818 1.334 . S
C1818 H1789 0.950 . S
C1818 C1817 1.334 . S
C1818 C1819 1.287 . S
C1819 C1818 1.287 . S
C1819 C1820 1.524 . S
C1819 H1822 0.999 . S
C1820 H1790 0.950 . S
C1820 C1819 1.524 . S
C1820 C1821 1.415 . S
C1821 H1791 0.950 . S
C1821 C1816 1.363 . S
C1821 C1820 1.415 . S
H1822 C1819 0.999 . S
H1823 C1804 0.913 . S
C243 C3 1.051 . S
C258 C163 1.051 . S
C293 C121 1.051 . S
C308 C17 1.050 . S
C343 C135 1.051 . S
C358 C31 1.051 . S
C393 C149 1.051 . S
C408 C45 1.050 . S
C443 C79 1.052 . S
C458 C59 1.050 . S
C493 C73 1.050 . S
C508 C93 1.052 . S
C543 C87 1.050 . S
C558 C107 1.052 . S
C593 C101 1.050 . S
C608 C65 1.051 . S
C643 C115 1.051 . S
C658 C51 1.051 . S
C693 C9 1.051 . S
C708 C129 1.050 . S
C743 C23 1.052 . S
C758 C143 1.050 . S
C793 C37 1.052 . S
C808 C157 1.050 . S
C843 C191 1.051 . S
C858 C171 1.051 . S
C893 C185 1.051 . S
C908 C205 1.052 . S
C943 C219 1.051 . S
C958 C199 1.050 . S
C993 C177 1.052 . S
C1008 C213 1.050 . S
C1043 C204 1.600 . S
C1058 C8 1.600 . S
C1093 C218 1.600 . S
C1108 C22 1.600 . S
C1143 C176 1.600 . S
C1158 C36 1.600 . S
C1193 C50 1.600 . S
C1208 C190 1.600 . S
C1243 C64 1.600 . S
C1258 C148 1.600 . S
C1293 C162 1.600 . S
C1308 C78 1.600 . S
C1343 C92 1.600 . S
C1358 C120 1.600 . S
C1393 C106 1.600 . S
C1408 C134 1.600 . S
C1443 C35 1.082 . S
C1458 C7 1.082 . S
C1493 C49 1.082 . S
C1508 C21 1.082 . S
C1543 C63 1.082 . S
C1558 C91 1.083 . S
C1593 C77 1.081 . S
C1608 C105 1.082 . S
C1643 C147 1.082 . S
C1658 C119 1.082 . S
C1693 C133 1.081 . S
C1708 C161 1.082 . S
C1743 C203 1.083 . S
C1758 C175 1.083 . S
C1793 C189 1.083 . S
C1808 C217 1.082 . S
