# Generated by pormake.
# Topology ukf, (4)-cn, num edge types: 1
# Building blocks:
#     Node 0, Type 0, BuildingBlock: KUFVIS_clean_sbu_0, # of connection points: 4
#     Node 1, Type 0, BuildingBlock: KUFVIS_clean_sbu_0, # of connection points: 4
#     Node 2, Type 0, BuildingBlock: KUFVIS_clean_sbu_0, # of connection points: 4
#     Node 3, Type 0, BuildingBlock: KUFVIS_clean_sbu_0, # of connection points: 4
#     Node 4, Type 0, BuildingBlock: KUFVIS_clean_sbu_0, # of connection points: 4
#     Node 5, Type 0, BuildingBlock: KUFVIS_clean_sbu_0, # of connection points: 4
#     Node 6, Type 0, BuildingBlock: KUFVIS_clean_sbu_0, # of connection points: 4
#     Node 7, Type 0, BuildingBlock: KUFVIS_clean_sbu_0, # of connection points: 4
#     Node 8, Type 0, BuildingBlock: KUFVIS_clean_sbu_0, # of connection points: 4
#     Node 9, Type 0, BuildingBlock: KUFVIS_clean_sbu_0, # of connection points: 4
#     Node 10, Type 0, BuildingBlock: KUFVIS_clean_sbu_0, # of connection points: 4
#     Node 11, Type 0, BuildingBlock: KUFVIS_clean_sbu_0, # of connection points: 4
#     Edge 12, Type (0, 0), BuildingBlock: CIFDUS_clean_linker_0, # of connection points: 2
#     Edge 13, Type (0, 0), BuildingBlock: CIFDUS_clean_linker_0, # of connection points: 2
#     Edge 14, Type (0, 0), BuildingBlock: CIFDUS_clean_linker_0, # of connection points: 2
#     Edge 15, Type (0, 0), BuildingBlock: CIFDUS_clean_linker_0, # of connection points: 2
#     Edge 16, Type (0, 0), BuildingBlock: CIFDUS_clean_linker_0, # of connection points: 2
#     Edge 17, Type (0, 0), BuildingBlock: CIFDUS_clean_linker_0, # of connection points: 2
#     Edge 18, Type (0, 0), BuildingBlock: CIFDUS_clean_linker_0, # of connection points: 2
#     Edge 19, Type (0, 0), BuildingBlock: CIFDUS_clean_linker_0, # of connection points: 2
#     Edge 20, Type (0, 0), BuildingBlock: CIFDUS_clean_linker_0, # of connection points: 2
#     Edge 21, Type (0, 0), BuildingBlock: CIFDUS_clean_linker_0, # of connection points: 2
#     Edge 22, Type (0, 0), BuildingBlock: CIFDUS_clean_linker_0, # of connection points: 2
#     Edge 23, Type (0, 0), BuildingBlock: CIFDUS_clean_linker_0, # of connection points: 2
#     Edge 24, Type (0, 0), BuildingBlock: CIFDUS_clean_linker_0, # of connection points: 2
#     Edge 25, Type (0, 0), BuildingBlock: CIFDUS_clean_linker_0, # of connection points: 2
#     Edge 26, Type (0, 0), BuildingBlock: CIFDUS_clean_linker_0, # of connection points: 2
#     Edge 27, Type (0, 0), BuildingBlock: CIFDUS_clean_linker_0, # of connection points: 2
#     Edge 28, Type (0, 0), BuildingBlock: CIFDUS_clean_linker_0, # of connection points: 2
#     Edge 29, Type (0, 0), BuildingBlock: CIFDUS_clean_linker_0, # of connection points: 2
#     Edge 30, Type (0, 0), BuildingBlock: CIFDUS_clean_linker_0, # of connection points: 2
#     Edge 31, Type (0, 0), BuildingBlock: CIFDUS_clean_linker_0, # of connection points: 2
#     Edge 32, Type (0, 0), BuildingBlock: CIFDUS_clean_linker_0, # of connection points: 2
#     Edge 33, Type (0, 0), BuildingBlock: CIFDUS_clean_linker_0, # of connection points: 2
#     Edge 34, Type (0, 0), BuildingBlock: CIFDUS_clean_linker_0, # of connection points: 2
#     Edge 35, Type (0, 0), BuildingBlock: CIFDUS_clean_linker_0, # of connection points: 2
# Relax obj value: 0.097
# Max RMSD: 0.095
# Mean RMSD: 0.095
data_MOF--net-ukf--node1-KUFVIS_clean_sbu_0--edge1-CIFDUS_clean_linker_0
_symmetry_space_group_name_H-M    P1
_symmetry_Int_Tables_number       1
_symmetry_cell_setting            triclinic
loop_
_symmetry_equiv_pos_as_xyz
'x, y, z'
_cell_length_a     28.625426
_cell_length_b     28.737065
_cell_length_c     55.295011
_cell_angle_alpha  89.737482
_cell_angle_beta   90.44583
_cell_angle_gamma 119.91417
loop_
_atom_site_label
_atom_site_type_symbol
_atom_site_fract_x
_atom_site_fract_y
_atom_site_fract_z
_atom_type_partial_charge
Mn0 Mn 0.42426 0.2308 0.05097 0.0
Mn1 Mn 0.5379 0.31142 0.08299 0.0
C2 C 0.50677 0.24675 0.03694 0.0
C3 C 0.35285 0.14571 0.04032 0.0
C4 C 0.48273 0.35444 0.05074 0.0
O5 O 0.39405 0.22998 0.0842 0.0
O6 O 0.47222 0.28679 0.10303 0.0
C7 C 0.5333 0.23253 0.11896 0.0
N8 N 0.56091 0.27068 0.10191 0.0
C9 C 0.64223 0.26813 0.11028 0.0
C10 C 0.61475 0.22902 0.12805 0.0
C11 C 0.56001 0.21103 0.13235 0.0
C12 C 0.61368 0.28853 0.09772 0.0
H13 H 0.49133 0.21881 0.12239 0.0
C14 C 0.4209 0.25638 0.10269 0.0
O15 O 0.35051 0.18895 0.03588 0.0
O16 O 0.39468 0.15195 0.05228 0.0
N17 N 0.60497 0.33835 0.06653 0.0
C18 C 0.62314 0.37044 0.0466 0.0
C19 C 0.67608 0.38918 0.0387 0.0
C20 C 0.7099 0.37518 0.0515 0.0
C21 C 0.69023 0.342 0.07194 0.0
C22 C 0.63716 0.32467 0.079 0.0
H23 H 0.59723 0.38118 0.03671 0.0
O24 O 0.46644 0.23374 0.02236 0.0
O25 O 0.49868 0.25182 0.05978 0.0
O26 O 0.44196 0.30929 0.04486 0.0
O27 O 0.52029 0.35865 0.06455 0.0
C28 C 0.72034 0.3235 0.08493 0.0
C29 C 0.69636 0.28658 0.10408 0.0
H30 H 0.63508 0.21202 0.13829 0.0
H31 H 0.53848 0.18071 0.14596 0.0
H32 H 0.69078 0.4143 0.02277 0.0
H33 H 0.75052 0.38926 0.04518 0.0
H34 H 0.76152 0.33627 0.07992 0.0
H35 H 0.71954 0.2717 0.11355 0.0
Mn36 Mn 0.20288 0.43468 0.37722 0.0
Mn37 Mn 0.24775 0.54396 0.41307 0.0
C38 C 0.24362 0.52019 0.36025 0.0
C39 C 0.2259 0.37484 0.35854 0.0
C40 C 0.12969 0.47472 0.39858 0.0
O41 O 0.2024 0.40417 0.4107 0.0
O42 O 0.23827 0.48112 0.43198 0.0
C43 C 0.35519 0.55577 0.42244 0.0
N44 N 0.32461 0.57707 0.41462 0.0
C45 C 0.40375 0.66068 0.40456 0.0
C46 C 0.43604 0.63973 0.41269 0.0
C47 C 0.41162 0.58696 0.4216 0.0
C48 C 0.34771 0.62743 0.40558 0.0
H49 H 0.33667 0.5152 0.42913 0.0
C50 C 0.22047 0.4307 0.43024 0.0
O51 O 0.17564 0.3614 0.36155 0.0
O52 O 0.26127 0.42106 0.36688 0.0
N53 N 0.26011 0.6091 0.39781 0.0
C54 C 0.22334 0.6244 0.39201 0.0
C55 C 0.24116 0.67703 0.38398 0.0
C56 C 0.29661 0.71374 0.38236 0.0
C57 C 0.33375 0.69766 0.38911 0.0
C58 C 0.31357 0.64488 0.3973 0.0
H59 H 0.18072 0.59668 0.39338 0.0
O60 O 0.21439 0.4782 0.34711 0.0
O61 O 0.24884 0.51049 0.38272 0.0
O62 O 0.13509 0.44074 0.38542 0.0
O63 O 0.16862 0.51233 0.41061 0.0
C64 C 0.38999 0.73192 0.38801 0.0
C65 C 0.42498 0.71326 0.39549 0.0
H66 H 0.47959 0.66377 0.41215 0.0
H67 H 0.43623 0.57037 0.4278 0.0
H68 H 0.2122 0.68925 0.37903 0.0
H69 H 0.31021 0.75416 0.37596 0.0
H70 H 0.40675 0.77266 0.38139 0.0
H71 H 0.46815 0.73985 0.39443 0.0
Mn72 Mn 0.78667 0.19177 0.7184 0.0
Mn73 Mn 0.7061 0.22196 0.75162 0.0
C74 C 0.76139 0.25117 0.70352 0.0
C75 C 0.87277 0.212 0.70512 0.0
C76 C 0.66328 0.11969 0.72278 0.0
O77 O 0.79705 0.17026 0.75218 0.0
O78 O 0.73877 0.18791 0.77185 0.0
C79 C 0.78828 0.30434 0.78414 0.0
N80 N 0.7467 0.28885 0.76816 0.0
C81 C 0.74462 0.37061 0.77448 0.0
C82 C 0.7872 0.38726 0.79113 0.0
C83 C 0.80921 0.35403 0.79592 0.0
C84 C 0.72491 0.32034 0.76356 0.0
H85 H 0.80517 0.27892 0.78793 0.0
C86 C 0.77272 0.17119 0.77122 0.0
O87 O 0.83173 0.16377 0.70299 0.0
O88 O 0.86438 0.24653 0.71632 0.0
N89 N 0.67239 0.25596 0.73489 0.0
C90 C 0.63778 0.23791 0.71568 0.0
C91 C 0.61492 0.26831 0.70724 0.0
C92 C 0.62772 0.31683 0.71869 0.0
C93 C 0.664 0.33494 0.73825 0.0
C94 C 0.68533 0.3028 0.74593 0.0
H95 H 0.62862 0.20116 0.70659 0.0
O96 O 0.77403 0.22376 0.6891 0.0
O97 O 0.76181 0.24188 0.72662 0.0
O98 O 0.70879 0.12586 0.71599 0.0
O99 O 0.65889 0.15377 0.73567 0.0
C100 C 0.6818 0.38481 0.74964 0.0
C101 C 0.72205 0.40261 0.76776 0.0
H102 H 0.8038 0.42579 0.80009 0.0
H103 H 0.84223 0.36669 0.80867 0.0
H104 H 0.58775 0.25457 0.69185 0.0
H105 H 0.61052 0.34049 0.71193 0.0
H106 H 0.66594 0.41048 0.74413 0.0
H107 H 0.73634 0.4416 0.77597 0.0
Mn108 Mn 0.59315 0.77591 0.04446 0.0
Mn109 Mn 0.47852 0.68872 0.07295 0.0
C110 C 0.51106 0.7478 0.02578 0.0
C111 C 0.65627 0.86335 0.03233 0.0
C112 C 0.54596 0.65341 0.046 0.0
O113 O 0.6194 0.78499 0.07923 0.0
O114 O 0.54262 0.71803 0.09483 0.0
C115 C 0.47346 0.76562 0.10693 0.0
N116 N 0.44955 0.7263 0.08995 0.0
C117 C 0.36322 0.71909 0.09673 0.0
C118 C 0.38688 0.75938 0.11436 0.0
C119 C 0.44231 0.78299 0.11935 0.0
C120 C 0.39637 0.70372 0.08484 0.0
H121 H 0.51583 0.78328 0.11109 0.0
C122 C 0.59226 0.75452 0.09664 0.0
O123 O 0.66753 0.82482 0.03114 0.0
O124 O 0.6114 0.85197 0.04257 0.0
N125 N 0.41234 0.65654 0.05505 0.0
C126 C 0.39733 0.62288 0.03569 0.0
C127 C 0.34376 0.59802 0.02739 0.0
C128 C 0.30611 0.60762 0.03921 0.0
C129 C 0.32256 0.64258 0.05906 0.0
C130 C 0.37652 0.6664 0.06643 0.0
H131 H 0.42613 0.61534 0.02662 0.0
O132 O 0.55462 0.76313 0.01349 0.0
O133 O 0.51568 0.74738 0.04934 0.0
O134 O 0.58645 0.70035 0.04237 0.0
O135 O 0.5029 0.64535 0.05619 0.0
C136 C 0.28786 0.65569 0.07148 0.0
C137 C 0.30821 0.69403 0.09028 0.0
H138 H 0.36297 0.77278 0.12404 0.0
H139 H 0.46088 0.81417 0.1329 0.0
H140 H 0.33141 0.57111 0.01206 0.0
H141 H 0.26483 0.58838 0.03276 0.0
H142 H 0.24581 0.63766 0.06629 0.0
H143 H 0.28145 0.70475 0.0993 0.0
Mn144 Mn 0.82097 0.58758 0.37838 0.0
Mn145 Mn 0.76562 0.47212 0.41093 0.0
C146 C 0.77812 0.50481 0.359 0.0
C147 C 0.80748 0.6555 0.36118 0.0
C148 C 0.88542 0.53669 0.39969 0.0
O149 O 0.81926 0.61387 0.41236 0.0
O150 O 0.77999 0.53424 0.43159 0.0
C151 C 0.66263 0.47052 0.41913 0.0
N152 N 0.68955 0.44572 0.41112 0.0
C153 C 0.60663 0.36851 0.39827 0.0
C154 C 0.57808 0.39311 0.40658 0.0
C155 C 0.60625 0.44445 0.41698 0.0
C156 C 0.66289 0.39688 0.40056 0.0
H157 H 0.68403 0.51003 0.42693 0.0
C158 C 0.79996 0.58514 0.4312 0.0
O159 O 0.85586 0.66408 0.36566 0.0
O160 O 0.76816 0.60875 0.36689 0.0
N161 N 0.74772 0.40694 0.39424 0.0
C162 C 0.78054 0.38632 0.38966 0.0
C163 C 0.75849 0.33395 0.38054 0.0
C164 C 0.70259 0.30245 0.377 0.0
C165 C 0.66921 0.32336 0.38304 0.0
C166 C 0.69357 0.37575 0.39221 0.0
H167 H 0.82306 0.40922 0.39342 0.0
O168 O 0.8107 0.54789 0.34718 0.0
O169 O 0.77061 0.51179 0.38144 0.0
O170 O 0.8845 0.57525 0.38812 0.0
O171 O 0.84392 0.49728 0.40943 0.0
C172 C 0.61267 0.29399 0.38061 0.0
C173 C 0.58144 0.31686 0.38791 0.0
H174 H 0.53456 0.37297 0.40508 0.0
H175 H 0.58457 0.46389 0.42333 0.0
H176 H 0.78447 0.31769 0.37652 0.0
H177 H 0.68569 0.26211 0.36992 0.0
H178 H 0.59281 0.25378 0.37316 0.0
H179 H 0.53803 0.29403 0.38584 0.0
Mn180 Mn 0.2363 0.8126 0.71996 0.0
Mn181 Mn 0.31888 0.78237 0.75231 0.0
C182 C 0.26045 0.7531 0.70462 0.0
C183 C 0.1491 0.79198 0.70744 0.0
C184 C 0.36003 0.88443 0.72331 0.0
O185 O 0.22851 0.83458 0.7539 0.0
O186 O 0.28814 0.81707 0.77295 0.0
C187 C 0.23837 0.70057 0.78529 0.0
N188 N 0.27893 0.71567 0.76904 0.0
C189 C 0.28029 0.63333 0.775 0.0
C190 C 0.23879 0.61709 0.79194 0.0
C191 C 0.21764 0.65079 0.79705 0.0
C192 C 0.29985 0.6837 0.76411 0.0
H193 H 0.2221 0.72636 0.78932 0.0
C194 C 0.25427 0.83394 0.7727 0.0
O195 O 0.18998 0.8402 0.70494 0.0
O196 O 0.15848 0.7579 0.71868 0.0
N197 N 0.35106 0.74784 0.73522 0.0
C198 C 0.38458 0.76565 0.71581 0.0
C199 C 0.40642 0.7348 0.70708 0.0
C200 C 0.39376 0.68612 0.71844 0.0
C201 C 0.35865 0.6683 0.73823 0.0
C202 C 0.33831 0.70088 0.74621 0.0
H203 H 0.39364 0.80255 0.7068 0.0
O204 O 0.24672 0.78039 0.69045 0.0
O205 O 0.2616 0.76244 0.72776 0.0
O206 O 0.31411 0.87835 0.71694 0.0
O207 O 0.36523 0.85035 0.73605 0.0
C208 C 0.34101 0.61832 0.74959 0.0
C209 C 0.30189 0.60087 0.76796 0.0
H210 H 0.22233 0.5785 0.80088 0.0
H211 H 0.18542 0.63842 0.81001 0.0
H212 H 0.43269 0.74834 0.69152 0.0
H213 H 0.41015 0.66212 0.71146 0.0
H214 H 0.35612 0.59231 0.74384 0.0
H215 H 0.28769 0.56179 0.77614 0.0
Mn216 Mn 0.78146 0.57459 0.62011 0.0
Mn217 Mn 0.69564 0.46898 0.58547 0.0
C218 C 0.75204 0.48828 0.63351 0.0
C219 C 0.8698 0.63337 0.63419 0.0
C220 C 0.65882 0.53061 0.61649 0.0
O221 O 0.79328 0.6092 0.58705 0.0
O222 O 0.73042 0.53717 0.56645 0.0
C223 C 0.77406 0.46661 0.5515 0.0
N224 N 0.73282 0.44098 0.56743 0.0
C225 C 0.72633 0.35584 0.559 0.0
C226 C 0.76843 0.38127 0.54235 0.0
C227 C 0.79248 0.43692 0.53864 0.0
C228 C 0.70899 0.38732 0.57096 0.0
H229 H 0.79266 0.50932 0.54856 0.0
C230 C 0.76744 0.58666 0.56772 0.0
O231 O 0.83169 0.64493 0.63714 0.0
O232 O 0.85741 0.59114 0.62149 0.0
N233 N 0.65993 0.40025 0.6009 0.0
C234 C 0.62678 0.38396 0.62044 0.0
C235 C 0.60247 0.3302 0.62799 0.0
C236 C 0.61257 0.29381 0.61539 0.0
C237 C 0.64759 0.31173 0.59558 0.0
C238 C 0.67027 0.36567 0.58875 0.0
H239 H 0.61992 0.41208 0.63046 0.0
O240 O 0.76661 0.52779 0.64847 0.0
O241 O 0.75251 0.49954 0.61056 0.0
O242 O 0.7056 0.56804 0.62325 0.0
O243 O 0.65179 0.49206 0.60292 0.0
C244 C 0.6629 0.27885 0.5831 0.0
C245 C 0.70218 0.30086 0.5648 0.0
H246 H 0.78321 0.35864 0.5326 0.0
H247 H 0.82521 0.45689 0.52593 0.0
H248 H 0.57638 0.31694 0.6436 0.0
H249 H 0.59434 0.25255 0.62149 0.0
H250 H 0.64589 0.23693 0.58792 0.0
H251 H 0.71462 0.27548 0.55577 0.0
Mn252 Mn 0.19677 0.77799 0.95838 0.0
Mn253 Mn 0.22461 0.69344 0.92787 0.0
C254 C 0.24884 0.74691 0.97645 0.0
C255 C 0.2219 0.86434 0.97243 0.0
C256 C 0.1199 0.65624 0.95375 0.0
O257 O 0.18274 0.79191 0.92388 0.0
O258 O 0.1932 0.72703 0.90638 0.0
C259 C 0.31046 0.77294 0.89597 0.0
N260 N 0.29272 0.73161 0.91204 0.0
C261 C 0.37082 0.72253 0.90542 0.0
C262 C 0.38979 0.76484 0.88869 0.0
C263 C 0.35964 0.79038 0.88408 0.0
C264 C 0.32165 0.70707 0.91675 0.0
H265 H 0.28712 0.79216 0.89211 0.0
C266 C 0.18112 0.76438 0.90559 0.0
O267 O 0.1717 0.8264 0.97271 0.0
O268 O 0.25546 0.85325 0.96209 0.0
N269 N 0.25589 0.65801 0.94534 0.0
C270 C 0.23565 0.62323 0.96428 0.0
C271 C 0.26275 0.59659 0.97237 0.0
C272 C 0.31019 0.60581 0.96082 0.0
C273 C 0.33064 0.64235 0.94157 0.0
C274 C 0.30197 0.66782 0.93437 0.0
H275 H 0.19944 0.61637 0.97324 0.0
O276 O 0.21985 0.76084 0.98902 0.0
O277 O 0.24529 0.74924 0.9529 0.0
O278 O 0.12689 0.70286 0.95867 0.0
O279 O 0.15508 0.64897 0.94325 0.0
C280 C 0.37905 0.65555 0.92963 0.0
C281 C 0.39915 0.69565 0.91157 0.0
H282 H 0.42766 0.77836 0.87946 0.0
H283 H 0.37406 0.82315 0.87125 0.0
H284 H 0.24693 0.56877 0.98736 0.0
H285 H 0.33101 0.5852 0.96709 0.0
H286 H 0.40191 0.63622 0.93469 0.0
H287 H 0.43708 0.70641 0.90296 0.0
Mn288 Mn 0.43243 0.20055 0.28815 0.0
Mn289 Mn 0.53823 0.24155 0.25026 0.0
C290 C 0.5204 0.25623 0.30222 0.0
C291 C 0.36654 0.21902 0.30394 0.0
C292 C 0.48133 0.13054 0.27324 0.0
O293 O 0.39566 0.18331 0.25505 0.0
O294 O 0.46992 0.21577 0.23198 0.0
C295 C 0.53334 0.33574 0.23144 0.0
N296 N 0.56172 0.31476 0.24219 0.0
C297 C 0.6407 0.40222 0.24544 0.0
C298 C 0.61238 0.42468 0.23427 0.0
C299 C 0.55838 0.39128 0.22732 0.0
C300 C 0.61328 0.3467 0.24944 0.0
H301 H 0.49189 0.31033 0.22613 0.0
C302 C 0.41898 0.19419 0.23462 0.0
O303 O 0.36036 0.17101 0.30514 0.0
O304 O 0.41001 0.25502 0.29361 0.0
N305 N 0.60815 0.26854 0.26452 0.0
C306 C 0.63145 0.23985 0.27245 0.0
C307 C 0.68651 0.26662 0.27847 0.0
C308 C 0.71749 0.32252 0.27566 0.0
C309 C 0.6932 0.35106 0.26666 0.0
C310 C 0.6383 0.32204 0.26065 0.0
H311 H 0.60845 0.19678 0.2738 0.0
O312 O 0.48137 0.22835 0.31706 0.0
O313 O 0.5064 0.25078 0.27961 0.0
O314 O 0.44584 0.136 0.28508 0.0
O315 O 0.51651 0.16671 0.25938 0.0
C316 C 0.7216 0.40701 0.2629 0.0
C317 C 0.69518 0.43267 0.25255 0.0
H318 H 0.63172 0.46746 0.23089 0.0
H319 H 0.53616 0.40829 0.21875 0.0
H320 H 0.70513 0.24414 0.28504 0.0
H321 H 0.75995 0.34306 0.28032 0.0
H322 H 0.76387 0.4306 0.26774 0.0
H323 H 0.71743 0.4757 0.24971 0.0
Mn324 Mn 0.23721 0.43178 0.61855 0.0
Mn325 Mn 0.32445 0.53943 0.58551 0.0
C326 C 0.26602 0.51723 0.63283 0.0
C327 C 0.14754 0.37202 0.63047 0.0
C328 C 0.35997 0.47586 0.61658 0.0
O329 O 0.2275 0.39911 0.58523 0.0
O330 O 0.29047 0.4725 0.56564 0.0
C331 C 0.24725 0.54387 0.55084 0.0
N332 N 0.28788 0.56852 0.56735 0.0
C333 C 0.2945 0.6541 0.55964 0.0
C334 C 0.25303 0.62969 0.5424 0.0
C335 C 0.22922 0.57431 0.53805 0.0
C336 C 0.31145 0.62191 0.57152 0.0
H337 H 0.22885 0.50136 0.5474 0.0
C338 C 0.25383 0.42282 0.56628 0.0
O339 O 0.1854 0.36032 0.63438 0.0
O340 O 0.16137 0.41536 0.61832 0.0
N341 N 0.35958 0.60717 0.60177 0.0
C342 C 0.39213 0.62228 0.6217 0.0
C343 C 0.41612 0.67555 0.62986 0.0
C344 C 0.40637 0.71268 0.61746 0.0
C345 C 0.37199 0.69596 0.59723 0.0
C346 C 0.34956 0.64246 0.58981 0.0
H347 H 0.39871 0.59357 0.63155 0.0
O348 O 0.25018 0.47669 0.64735 0.0
O349 O 0.26674 0.50739 0.60983 0.0
O350 O 0.31296 0.43825 0.62283 0.0
O351 O 0.3675 0.51507 0.60321 0.0
C352 C 0.35705 0.72958 0.58486 0.0
C353 C 0.3184 0.70869 0.56606 0.0
H354 H 0.23856 0.6529 0.5327 0.0
H355 H 0.19697 0.55513 0.52488 0.0
H356 H 0.44171 0.68786 0.64578 0.0
H357 H 0.42436 0.75354 0.62402 0.0
H358 H 0.37387 0.77119 0.59014 0.0
H359 H 0.30624 0.73461 0.55711 0.0
Mn360 Mn 0.81689 0.23207 0.95481 0.0
Mn361 Mn 0.78182 0.30902 0.9211 0.0
C362 C 0.75108 0.24927 0.96865 0.0
C363 C 0.8037 0.14781 0.96677 0.0
C364 C 0.88286 0.35541 0.95181 0.0
O365 O 0.844 0.22774 0.92157 0.0
O366 O 0.81966 0.28059 0.90113 0.0
C367 C 0.70309 0.22693 0.88744 0.0
N368 N 0.71596 0.26702 0.90372 0.0
C369 C 0.63199 0.26506 0.89644 0.0
C370 C 0.61796 0.22395 0.87948 0.0
C371 C 0.65361 0.20472 0.87502 0.0
C372 C 0.68217 0.28618 0.908 0.0
H373 H 0.73044 0.21222 0.88389 0.0
C374 C 0.84085 0.25049 0.90229 0.0
O375 O 0.84947 0.19139 0.97051 0.0
O376 O 0.76739 0.1532 0.955 0.0
N377 N 0.74422 0.3387 0.93759 0.0
C378 C 0.76037 0.37247 0.95695 0.0
C379 C 0.72743 0.39246 0.9651 0.0
C380 C 0.67849 0.37781 0.95318 0.0
C381 C 0.6626 0.34274 0.93337 0.0
C382 C 0.69719 0.32427 0.92599 0.0
H383 H 0.79782 0.3836 0.96621 0.0
O384 O 0.77935 0.23787 0.98342 0.0
O385 O 0.76306 0.25218 0.94572 0.0
O386 O 0.87818 0.311 0.95919 0.0
O387 O 0.84895 0.35798 0.93775 0.0
C388 C 0.61276 0.32353 0.92134 0.0
C389 C 0.59748 0.28474 0.90288 0.0
H390 H 0.57962 0.20634 0.87003 0.0
H391 H 0.64297 0.17285 0.86203 0.0
H392 H 0.73967 0.41901 0.98057 0.0
H393 H 0.65292 0.39285 0.9597 0.0
H394 H 0.58522 0.33719 0.92659 0.0
H395 H 0.5585 0.26931 0.89418 0.0
Mn396 Mn 0.58854 0.81307 0.28419 0.0
Mn397 Mn 0.47753 0.77429 0.24965 0.0
C398 C 0.50315 0.76032 0.30084 0.0
C399 C 0.65239 0.78714 0.29616 0.0
C400 C 0.54173 0.88645 0.27161 0.0
O401 O 0.61935 0.82973 0.25008 0.0
O402 O 0.54145 0.79534 0.22912 0.0
C403 C 0.47297 0.67581 0.23077 0.0
N404 N 0.44879 0.69992 0.24231 0.0
C405 C 0.36744 0.61521 0.24772 0.0
C406 C 0.39133 0.58953 0.23574 0.0
C407 C 0.44443 0.61997 0.22732 0.0
C408 C 0.3982 0.67086 0.25096 0.0
H409 H 0.51377 0.69899 0.22434 0.0
C410 C 0.59268 0.81703 0.23034 0.0
O411 O 0.66318 0.83654 0.29888 0.0
O412 O 0.60613 0.75485 0.28677 0.0
N413 N 0.41129 0.7518 0.26635 0.0
C414 C 0.393 0.78305 0.27624 0.0
C415 C 0.33934 0.7594 0.284 0.0
C416 C 0.3048 0.70389 0.28131 0.0
C417 C 0.32428 0.67252 0.27094 0.0
C418 C 0.37781 0.69854 0.26307 0.0
H419 H 0.4191 0.82567 0.27827 0.0
O420 O 0.5451 0.78663 0.31457 0.0
O421 O 0.51303 0.76534 0.27787 0.0
O422 O 0.57733 0.87962 0.2831 0.0
O423 O 0.50506 0.85044 0.25803 0.0
C424 C 0.29246 0.61655 0.26784 0.0
C425 C 0.31424 0.58781 0.25648 0.0
H426 H 0.3693 0.54651 0.2329 0.0
H427 H 0.46326 0.60045 0.21814 0.0
H428 H 0.32464 0.78389 0.29203 0.0
H429 H 0.26351 0.68573 0.28744 0.0
H430 H 0.25118 0.59525 0.27409 0.0
H431 H 0.28946 0.54476 0.25425 0.0
H432 H 0.19564 0.94507 0.97558 0.0
H433 H 0.29754 0.88837 0.0059 0.0
H434 H 0.34211 0.96705 0.03173 0.0
H435 H 0.35782 0.05472 0.04346 0.0
H436 H 0.26297 0.11819 0.01189 0.0
H437 H 0.20962 0.03436 0.98922 0.0
C438 C 0.22716 0.94998 0.98807 0.0
C439 C 0.24358 0.91122 0.98877 0.0
C440 C 0.25404 0.99662 0.00263 0.0
C441 C 0.28464 0.91799 0.0049 0.0
C442 C 0.31013 0.96291 0.01973 0.0
C443 C 0.325 0.05018 0.03191 0.0
C444 C 0.31458 0.09283 0.02939 0.0
C445 C 0.29597 1.00292 0.01842 0.0
C446 C 0.27187 0.08597 0.01423 0.0
C447 C 0.24155 0.0381 0.00114 0.0
H448 H 0.20871 0.2712 0.36386 0.0
H449 H 0.2879 0.41352 0.31963 0.0
H450 H 0.33509 0.37612 0.29777 0.0
H451 H 0.36075 0.30773 0.29353 0.0
H452 H 0.28549 0.16492 0.33748 0.0
H453 H 0.22984 0.19716 0.35692 0.0
C454 C 0.23523 0.29316 0.34902 0.0
C455 C 0.24444 0.34497 0.3432 0.0
C456 C 0.26363 0.27167 0.3367 0.0
C457 C 0.27986 0.37351 0.3243 0.0
C458 C 0.30715 0.35228 0.31187 0.0
C459 C 0.33186 0.28323 0.30722 0.0
C460 C 0.3278 0.23415 0.31416 0.0
C461 C 0.30048 0.30214 0.31831 0.0
C462 C 0.28959 0.20287 0.33177 0.0
C463 C 0.25788 0.22147 0.34295 0.0
H464 H 0.92554 0.30327 0.68043 0.0
H465 H 0.93361 0.16199 0.6993 0.0
H466 H 0.01995 0.19794 0.67766 0.0
H467 H 0.09504 0.27264 0.65398 0.0
H468 H 0.07754 0.40844 0.6332 0.0
H469 H 0.99338 0.37143 0.65469 0.0
C470 C 0.94625 0.2803 0.67989 0.0
C471 C 0.9239 0.23063 0.6918 0.0
C472 C 0.99434 0.30031 0.66689 0.0
C473 C 0.95036 0.20063 0.6904 0.0
C474 C 0.99969 0.22125 0.67803 0.0
C475 C 0.07245 0.2937 0.654 0.0
C476 C 0.09329 0.34361 0.64196 0.0
C477 C 0.0224 0.27144 0.66625 0.0
C478 C 0.06305 0.37008 0.64213 0.0
C479 C 0.01469 0.34908 0.65457 0.0
H480 H 0.76189 0.9479 0.03177 0.0
H481 H 0.60652 0.88477 0.99707 0.0
H482 H 0.64031 0.96439 0.97178 0.0
H483 H 0.71055 0.05434 0.96169 0.0
H484 H 0.86548 0.1234 0.9972 0.0
H485 H 0.83596 0.03937 0.01962 0.0
C486 C 0.73599 0.95163 0.01844 0.0
C487 C 0.68175 0.91076 0.0163 0.0
C488 C 0.7555 0.99867 0.00415 0.0
C489 C 0.6483 0.91597 0.9991 0.0
C490 C 0.66755 0.96145 0.98461 0.0
C491 C 0.73831 0.05102 0.97409 0.0
C492 C 0.79008 0.09528 0.9778 0.0
C493 C 0.72062 1.00345 0.98731 0.0
C494 C 0.82536 0.08993 0.99395 0.0
C495 C 0.80835 0.04194 0.00689 0.0
H496 H 0.73601 0.82402 0.33045 0.0
H497 H 0.64932 0.69995 0.27729 0.0
H498 H 0.69306 0.6513 0.29139 0.0
H499 H 0.74777 0.63763 0.32134 0.0
H500 H 0.83833 0.75962 0.37428 0.0
H501 H 0.80218 0.81528 0.3578 0.0
C502 C 0.72769 0.78699 0.32168 0.0
C503 C 0.68851 0.76548 0.30302 0.0
C504 C 0.75338 0.75834 0.33 0.0
C505 C 0.67841 0.71729 0.29191 0.0
C506 C 0.70347 0.68916 0.29995 0.0
C507 C 0.76052 0.67698 0.32893 0.0
C508 C 0.79562 0.69456 0.34891 0.0
C509 C 0.73971 0.70837 0.31937 0.0
C510 C 0.81176 0.7455 0.35867 0.0
C511 C 0.79067 0.77707 0.34935 0.0
H512 H 0.93425 0.73954 0.64956 0.0
H513 H 0.9203 0.58278 0.65102 0.0
H514 H 1.00207 0.61735 0.67492 0.0
H515 H 0.07848 0.69079 0.69478 0.0
H516 H 0.1019 0.85083 0.69136 0.0
H517 H 0.01604 0.81663 0.66909 0.0
C518 C 0.94935 0.71324 0.65513 0.0
C519 C 0.92106 0.65857 0.64832 0.0
C520 C 0.99811 0.73388 0.66862 0.0
C521 C 0.94134 0.62506 0.65564 0.0
C522 C 0.98812 0.64469 0.66948 0.0
C523 C 0.06474 0.71838 0.68944 0.0
C524 C 0.09626 0.77318 0.69508 0.0
C525 C 0.01686 0.69885 0.676 0.0
C526 C 0.0782 0.80833 0.68743 0.0
C527 C 0.02915 0.78873 0.67463 0.0
H528 H 0.7243 0.25219 0.01532 0.0
H529 H 0.65843 0.22113 0.94358 0.0
H530 H 0.58143 0.22936 0.95706 0.0
H531 H 0.53601 0.24901 0.99028 0.0
H532 H 0.5732 0.2215 0.06229 0.0
H533 H 0.659 0.23119 0.04863 0.0
C534 C 0.69349 0.24801 0.00255 0.0
C535 C 0.70103 0.24579 0.97757 0.0
C536 C 0.64528 0.24297 0.01112 0.0
C537 C 0.65761 0.23299 0.96193 0.0
C538 C 0.61269 0.23524 0.96991 0.0
C539 C 0.56325 0.24589 0.00307 0.0
C540 C 0.55369 0.24392 0.02804 0.0
C541 C 0.60723 0.24227 0.99453 0.0
C542 C 0.58526 0.23258 0.04378 0.0
C543 C 0.63293 0.23592 0.03576 0.0
H544 H 0.33943 0.53776 0.34618 0.0
H545 H 0.2371 0.60758 0.34513 0.0
H546 H 0.31227 0.69299 0.33067 0.0
H547 H 0.40865 0.7473 0.31868 0.0
H548 H 0.49859 0.6661 0.30688 0.0
H549 H 0.42742 0.58504 0.32612 0.0
C550 C 0.33372 0.57175 0.34252 0.0
C551 C 0.28487 0.56882 0.34843 0.0
C552 C 0.37476 0.61794 0.33162 0.0
C553 C 0.27604 0.61105 0.34227 0.0
C554 C 0.31855 0.65922 0.33352 0.0
C555 C 0.4114 0.71113 0.31935 0.0
C556 C 0.45751 0.71167 0.31069 0.0
C557 C 0.36835 0.66327 0.32833 0.0
C558 C 0.46254 0.66575 0.31302 0.0
C559 C 0.42206 0.6196 0.32397 0.0
H560 H 0.74745 0.27125 0.65685 0.0
H561 H 0.78893 0.34414 0.72702 0.0
H562 H 0.77556 0.41761 0.71304 0.0
H563 H 0.75064 0.45926 0.68012 0.0
H564 H 0.77002 0.41743 0.60817 0.0
H565 H 0.75946 0.33192 0.62242 0.0
C566 C 0.75267 0.30281 0.66915 0.0
C567 C 0.76038 0.29852 0.694 0.0
C568 C 0.75409 0.34905 0.66006 0.0
C569 C 0.77404 0.34276 0.70893 0.0
C570 C 0.76844 0.38557 0.70065 0.0
C571 C 0.75165 0.43105 0.66746 0.0
C572 C 0.75148 0.43955 0.64242 0.0
C573 C 0.75683 0.38817 0.67626 0.0
C574 C 0.75974 0.40621 0.62676 0.0
C575 C 0.75657 0.3589 0.63518 0.0
H576 H 0.34207 0.76111 0.95707 0.0
H577 H 0.26216 0.74214 0.02492 0.0
H578 H 0.34193 0.75348 0.04624 0.0
H579 H 0.43203 0.76185 0.04516 0.0
H580 H 0.4929 0.74253 0.97735 0.0
H581 H 0.42371 0.75259 0.95596 0.0
C582 C 0.33942 0.75355 0.97623 0.0
C583 C 0.29411 0.74602 0.98895 0.0
C584 C 0.38184 0.75228 0.98835 0.0
C585 C 0.2954 0.74531 0.01441 0.0
C586 C 0.34075 0.75128 0.02671 0.0
C587 C 0.42714 0.75434 0.02597 0.0
C588 C 0.46494 0.74684 0.01327 0.0
C589 C 0.38323 0.75259 0.01385 0.0
C590 C 0.46277 0.74571 0.98782 0.0
C591 C 0.423 0.75095 0.97549 0.0
H592 H 0.62165 0.27768 0.31532 0.0
H593 H 0.51795 0.34604 0.31094 0.0
H594 H 0.5886 0.42959 0.32881 0.0
H595 H 0.67928 0.48199 0.34638 0.0
H596 H 0.79092 0.4235 0.34104 0.0
H597 H 0.71903 0.33772 0.32498 0.0
C598 C 0.61562 0.31176 0.31715 0.0
C599 C 0.56566 0.30669 0.31112 0.0
C600 C 0.65786 0.36118 0.32544 0.0
C601 C 0.55676 0.3498 0.3151 0.0
C602 C 0.59701 0.39745 0.32522 0.0
C603 C 0.68781 0.45057 0.34126 0.0
C604 C 0.73888 0.45709 0.34583 0.0
C605 C 0.64761 0.40345 0.3305 0.0
C606 C 0.75093 0.41788 0.3383 0.0
C607 C 0.71005 0.36927 0.32894 0.0
H608 H 0.26896 0.54482 0.67963 0.0
H609 H 0.24867 0.58965 0.60801 0.0
H610 H 0.25974 0.67468 0.62297 0.0
H611 H 0.27279 0.73418 0.6578 0.0
H612 H 0.23404 0.65966 0.72773 0.0
H613 H 0.24609 0.58613 0.71304 0.0
C614 C 0.26783 0.57357 0.6672 0.0
C615 C 0.26729 0.56589 0.6421 0.0
C616 C 0.26338 0.61644 0.67636 0.0
C617 C 0.25908 0.60002 0.6267 0.0
C618 C 0.26268 0.64712 0.6355 0.0
C619 C 0.26786 0.70224 0.66989 0.0
C620 C 0.26112 0.70594 0.69482 0.0
C621 C 0.26586 0.65615 0.66045 0.0
C622 C 0.24799 0.66134 0.70952 0.0
C623 C 0.25286 0.61853 0.70086 0.0
H624 H 0.37241 0.16185 0.12586 0.0
H625 H 0.41562 0.32775 0.13277 0.0
H626 H 0.40236 0.31688 0.17653 0.0
H627 H 0.40033 0.26659 0.21278 0.0
H628 H 0.37353 0.10601 0.2059 0.0
H629 H 0.35642 0.10696 0.16246 0.0
C630 C 0.37633 0.19473 0.13692 0.0
C631 C 0.39433 0.24533 0.12631 0.0
C632 C 0.37234 0.18904 0.1622 0.0
C633 C 0.40111 0.28836 0.14069 0.0
C634 C 0.3941 0.28224 0.16569 0.0
C635 C 0.38863 0.23118 0.20184 0.0
C636 C 0.38786 0.18623 0.2123 0.0
C637 C 0.38288 0.2337 0.17672 0.0
C638 C 0.37342 0.14065 0.19814 0.0
C639 C 0.36448 0.14158 0.17327 0.0
H640 H 0.14726 0.37975 0.46557 0.0
H641 H 0.30919 0.42748 0.44392 0.0
H642 H 0.3334 0.42019 0.48565 0.0
H643 H 0.31322 0.42036 0.52889 0.0
H644 H 0.15045 0.36918 0.55064 0.0
H645 H 0.12117 0.35596 0.50837 0.0
C646 C 0.18698 0.38591 0.4699 0.0
C647 C 0.22667 0.40469 0.45195 0.0
C648 C 0.20061 0.38183 0.49401 0.0
C649 C 0.27824 0.4133 0.45762 0.0
C650 C 0.29217 0.40948 0.48149 0.0
C651 C 0.27096 0.4041 0.52434 0.0
C652 C 0.23413 0.39627 0.54269 0.0
C653 C 0.2545 0.39684 0.49999 0.0
C654 C 0.17943 0.37519 0.53674 0.0
C655 C 0.16279 0.36826 0.51255 0.0
H656 H 0.78204 0.15442 0.88187 0.0
H657 H 0.92016 0.31075 0.87029 0.0
H658 H 0.91922 0.29105 0.82715 0.0
H659 H 0.86686 0.23784 0.79219 0.0
H660 H 0.71766 0.09066 0.80345 0.0
H661 H 0.7353 0.09663 0.84708 0.0
C662 C 0.8132 0.18307 0.86996 0.0
C663 C 0.85167 0.23351 0.87904 0.0
C664 C 0.80965 0.17296 0.84502 0.0
C665 C 0.89085 0.27139 0.86357 0.0
C666 C 0.88988 0.26026 0.83893 0.0
C667 C 0.83958 0.206 0.8042 0.0
C668 C 0.79152 0.16347 0.79484 0.0
C669 C 0.8478 0.21233 0.8293 0.0
C670 C 0.7553 0.12316 0.8104 0.0
C671 C 0.7651 0.12705 0.83532 0.0
H672 H 0.63705 0.84868 0.1207 0.0
H673 H 0.59423 0.68276 0.1278 0.0
H674 H 0.60426 0.69242 0.17172 0.0
H675 H 0.60563 0.74224 0.2078 0.0
H676 H 0.63614 0.90421 0.20088 0.0
H677 H 0.65201 0.90301 0.15742 0.0
C678 C 0.63227 0.81547 0.13188 0.0
C679 C 0.61529 0.76519 0.12121 0.0
C680 C 0.63511 0.82061 0.15722 0.0
C681 C 0.60768 0.72185 0.13576 0.0
C682 C 0.61295 0.72728 0.16085 0.0
C683 C 0.61781 0.77784 0.19684 0.0
C684 C 0.62026 0.82338 0.2073 0.0
C685 C 0.6238 0.7756 0.17179 0.0
C686 C 0.635 0.86912 0.1931 0.0
C687 C 0.64336 0.86811 0.16824 0.0
H688 H 0.71033 0.59512 0.53035 0.0
H689 H 0.87073 0.63581 0.55273 0.0
H690 H 0.89984 0.64915 0.51059 0.0
H691 H 0.87316 0.62875 0.46753 0.0
H692 H 0.71418 0.59291 0.44527 0.0
H693 H 0.69102 0.59907 0.4871 0.0
C694 C 0.75219 0.60925 0.52599 0.0
C695 C 0.78826 0.61409 0.54445 0.0
C696 C 0.76855 0.61667 0.50172 0.0
C697 C 0.84241 0.63227 0.53874 0.0
C698 C 0.85889 0.6392 0.51462 0.0
C699 C 0.83441 0.62477 0.4718 0.0
C700 C 0.79501 0.60948 0.45361 0.0
C701 C 0.8215 0.62864 0.49593 0.0
C702 C 0.74474 0.60394 0.45917 0.0
C703 C 0.73145 0.6073 0.48308 0.0
H704 H 0.24773 0.85733 0.88364 0.0
H705 H 0.10171 0.7064 0.87306 0.0
H706 H 0.10529 0.72318 0.82945 0.0
H707 H 0.1599 0.77158 0.79422 0.0
H708 H 0.3146 0.91319 0.80479 0.0
H709 H 0.29786 0.91062 0.84831 0.0
C710 C 0.21568 0.82931 0.87179 0.0
C711 C 0.17406 0.78117 0.88135 0.0
C712 C 0.22029 0.83753 0.84665 0.0
C713 C 0.13357 0.74404 0.86596 0.0
C714 C 0.13598 0.75345 0.84106 0.0
C715 C 0.18877 0.80304 0.80602 0.0
C716 C 0.2379 0.84307 0.79649 0.0
C717 C 0.18049 0.79879 0.83112 0.0
C718 C 0.27614 0.88266 0.81184 0.0
C719 C 0.26677 0.88075 0.83671 0.0
H720 H 0.46211 0.55854 0.03186 0.0
H721 H 0.6328 0.63713 0.0468 0.0
H722 H 0.62873 0.54978 0.04636 0.0
H723 H 0.57402 0.45146 0.04797 0.0
H724 H 0.40244 0.37319 0.03476 0.0
H725 H 0.40956 0.46078 0.02803 0.0
C726 C 0.49873 0.55683 0.03454 0.0
C727 C 0.54764 0.60423 0.03972 0.0
C728 C 0.49564 0.50662 0.03491 0.0
C729 C 0.59479 0.60133 0.04277 0.0
C730 C 0.59226 0.55134 0.04277 0.0
C731 C 0.53813 0.45331 0.0433 0.0
C732 C 0.48743 0.40572 0.04235 0.0
C733 C 0.54248 0.50371 0.03986 0.0
C734 C 0.44174 0.40902 0.03577 0.0
C735 C 0.44583 0.45913 0.03204 0.0
H736 H 0.90606 0.4645 0.37807 0.0
H737 H 0.97839 0.60407 0.42396 0.0
H738 H 0.05853 0.5945 0.42915 0.0
H739 H 0.1067 0.54549 0.42123 0.0
H740 H 0.03529 0.40684 0.37432 0.0
H741 H 0.95473 0.41536 0.36995 0.0
C742 C 0.93913 0.49241 0.38943 0.0
C743 C 0.93617 0.53464 0.40086 0.0
C744 C 0.9847 0.48623 0.39245 0.0
C745 C 0.97997 0.57155 0.41489 0.0
C746 C 0.02548 0.56571 0.418 0.0
C747 C 0.07366 0.51683 0.41004 0.0
C748 C 0.07766 0.47545 0.39808 0.0
C749 C 0.02809 0.52295 0.40701 0.0
C750 C 0.03373 0.43888 0.38385 0.0
C751 C 0.9877 0.44402 0.38118 0.0
H752 H 0.56601 0.1125 0.71632 0.0
H753 H 0.64377 0.01683 0.71543 0.0
H754 H 0.55527 0.93505 0.71267 0.0
H755 H 0.45683 0.89162 0.71584 0.0
H756 H 0.37912 0.98735 0.71652 0.0
H757 H 0.46748 0.06917 0.71364 0.0
C758 C 0.56391 0.07392 0.71505 0.0
C759 C 0.61165 0.07081 0.71638 0.0
C760 C 0.51307 0.0274 0.71362 0.0
C761 C 0.60788 0.0204 0.71446 0.0
C762 C 0.55724 0.9737 0.71305 0.0
C763 C 0.4589 0.93025 0.71489 0.0
C764 C 0.41125 0.93334 0.71669 0.0
C765 C 0.50967 0.9768 0.71341 0.0
C766 C 0.41494 0.98379 0.71517 0.0
C767 C 0.4655 0.03051 0.7137 0.0
H768 H 0.56035 0.44333 0.62341 0.0
H769 H 0.64364 0.61648 0.6251 0.0
H770 H 0.55686 0.61371 0.6286 0.0
H771 H 0.45815 0.5623 0.62537 0.0
H772 H 0.37489 0.38919 0.62344 0.0
H773 H 0.4617 0.39162 0.6263 0.0
C774 C 0.55988 0.48061 0.62505 0.0
C775 C 0.60866 0.53023 0.62369 0.0
C776 C 0.50997 0.47854 0.62684 0.0
C777 C 0.60696 0.57792 0.62609 0.0
C778 C 0.55727 0.57624 0.62791 0.0
C779 C 0.45865 0.52491 0.62612 0.0
C780 C 0.40987 0.47548 0.62392 0.0
C781 C 0.50859 0.52682 0.62745 0.0
C782 C 0.41157 0.4276 0.62514 0.0
C783 C 0.46128 0.42911 0.62656 0.0
H784 H 0.10869 0.56116 0.96761 0.0
H785 H 0.01639 0.6391 0.95201 0.0
H786 H 0.93311 0.55152 0.95263 0.0
H787 H 0.88928 0.45294 0.95223 0.0
H788 H 0.98274 0.37562 0.96717 0.0
H789 H 0.06359 0.46366 0.97244 0.0
C790 C 0.07036 0.55931 0.9648 0.0
C791 C 0.06879 0.6066 0.95948 0.0
C792 C 0.02323 0.50903 0.96478 0.0
C793 C 0.01866 0.60341 0.95618 0.0
C794 C 0.97121 0.55329 0.95631 0.0
C795 C 0.92716 0.45514 0.95694 0.0
C796 C 0.93012 0.40757 0.95889 0.0
C797 C 0.97338 0.5058 0.95974 0.0
C798 C 0.97935 0.41139 0.96544 0.0
C799 C 0.02557 0.46174 0.96835 0.0
H800 H 0.46176 0.90551 0.25672 0.0
H801 H 0.6159 0.98197 0.29346 0.0
H802 H 0.60945 0.06344 0.29841 0.0
H803 H 0.56002 0.11318 0.29162 0.0
H804 H 0.40392 0.03324 0.25708 0.0
H805 H 0.41003 0.95157 0.25291 0.0
C806 C 0.49396 0.93947 0.26613 0.0
C807 C 0.53941 0.93705 0.27472 0.0
C808 C 0.48914 0.98531 0.26957 0.0
C809 C 0.58055 0.98233 0.28659 0.0
C810 C 0.57674 0.02892 0.28949 0.0
C811 C 0.52732 0.07774 0.2833 0.0
C812 C 0.48158 0.07916 0.27455 0.0
C813 C 0.53124 0.03089 0.281 0.0
C814 C 0.43911 0.03281 0.26415 0.0
C815 C 0.44292 0.98639 0.26157 0.0
loop_
_geom_bond_atom_site_label_1
_geom_bond_atom_site_label_2
_geom_bond_distance
_geom_bond_site_symmetry_2
_ccdc_geom_bond_type
Mn0 O5 2.095 . S
Mn0 O15 2.162 . S
Mn0 O16 2.297 . S
Mn0 O24 2.385 . S
Mn0 O25 2.209 . S
Mn0 O26 2.094 . S
Mn1 O6 2.121 . S
Mn1 N8 2.257 . S
Mn1 N17 2.282 . S
Mn1 O25 2.215 . S
Mn1 O27 2.117 . S
C2 O24 1.234 . S
C2 O25 1.283 . S
C3 O15 1.281 . S
C3 O16 1.236 . S
C4 O26 1.240 . S
C4 O27 1.264 . S
O5 Mn0 2.095 . S
O5 C14 1.250 . S
O6 Mn1 2.121 . S
O6 C14 1.258 . S
C7 N8 1.326 . S
C7 C11 1.460 . S
C7 H13 0.929 . S
N8 Mn1 2.257 . S
N8 C7 1.326 . S
N8 C12 1.362 . S
C9 C10 1.258 . S
C9 C12 1.431 . S
C9 C29 1.449 . S
C10 C9 1.258 . S
C10 C11 1.477 . S
C10 H30 0.931 . S
C11 C7 1.460 . S
C11 C10 1.477 . S
C11 H31 0.930 . S
C12 N8 1.362 . S
C12 C9 1.431 . S
C12 C22 1.476 . S
H13 C7 0.929 . S
C14 O5 1.250 . S
C14 O6 1.258 . S
O15 Mn0 2.162 . S
O15 C3 1.281 . S
O16 Mn0 2.297 . S
O16 C3 1.236 . S
N17 Mn1 2.282 . S
N17 C18 1.328 . S
N17 C22 1.318 . S
C18 N17 1.328 . S
C18 C19 1.457 . S
C18 H23 0.929 . S
C19 C18 1.457 . S
C19 C20 1.291 . S
C19 H32 0.931 1_554 S
C20 C19 1.291 . S
C20 C21 1.373 . S
C20 H33 0.929 . S
C21 C20 1.373 . S
C21 C22 1.396 . S
C21 C28 1.403 . S
C22 C12 1.476 . S
C22 N17 1.318 . S
C22 C21 1.396 . S
H23 C18 0.929 . S
O24 Mn0 2.385 . S
O24 C2 1.234 . S
O25 Mn0 2.209 . S
O25 Mn1 2.215 . S
O25 C2 1.283 . S
O26 Mn0 2.094 . S
O26 C4 1.240 . S
O27 Mn1 2.117 . S
O27 C4 1.264 . S
C28 C21 1.403 . S
C28 C29 1.399 . S
C28 H34 0.929 . S
C29 C9 1.449 . S
C29 C28 1.399 . S
C29 H35 0.930 . S
H30 C10 0.931 . S
H31 C11 0.930 . S
H32 C19 0.931 1_556 S
H33 C20 0.929 . S
H34 C28 0.929 . S
H35 C29 0.930 . S
Mn36 O41 2.095 . S
Mn36 O51 2.162 . S
Mn36 O52 2.297 . S
Mn36 O60 2.385 . S
Mn36 O61 2.209 . S
Mn36 O62 2.094 . S
Mn37 O42 2.121 . S
Mn37 N44 2.257 . S
Mn37 N53 2.282 . S
Mn37 O61 2.215 . S
Mn37 O63 2.117 . S
C38 O60 1.234 . S
C38 O61 1.283 . S
C39 O51 1.281 . S
C39 O52 1.236 . S
C40 O62 1.240 . S
C40 O63 1.264 . S
O41 Mn36 2.095 . S
O41 C50 1.250 . S
O42 Mn37 2.121 . S
O42 C50 1.258 . S
C43 N44 1.326 . S
C43 C47 1.460 . S
C43 H49 0.929 . S
N44 Mn37 2.257 . S
N44 C43 1.326 . S
N44 C48 1.362 . S
C45 C46 1.258 . S
C45 C48 1.431 . S
C45 C65 1.449 . S
C46 C45 1.258 . S
C46 C47 1.477 . S
C46 H66 0.931 . S
C47 C43 1.460 . S
C47 C46 1.477 . S
C47 H67 0.930 . S
C48 N44 1.362 . S
C48 C45 1.431 . S
C48 C58 1.476 . S
H49 C43 0.929 . S
C50 O41 1.250 . S
C50 O42 1.258 . S
O51 Mn36 2.162 . S
O51 C39 1.281 . S
O52 Mn36 2.297 . S
O52 C39 1.236 . S
N53 Mn37 2.282 . S
N53 C54 1.328 . S
N53 C58 1.318 . S
C54 N53 1.328 . S
C54 C55 1.457 . S
C54 H59 0.929 . S
C55 C54 1.457 . S
C55 C56 1.291 . S
C55 H68 0.931 . S
C56 C55 1.291 . S
C56 C57 1.373 . S
C56 H69 0.929 . S
C57 C56 1.373 . S
C57 C58 1.396 . S
C57 C64 1.403 . S
C58 C48 1.476 . S
C58 N53 1.318 . S
C58 C57 1.396 . S
H59 C54 0.929 . S
O60 Mn36 2.385 . S
O60 C38 1.234 . S
O61 Mn36 2.209 . S
O61 Mn37 2.215 . S
O61 C38 1.283 . S
O62 Mn36 2.094 . S
O62 C40 1.240 . S
O63 Mn37 2.117 . S
O63 C40 1.264 . S
C64 C57 1.403 . S
C64 C65 1.399 . S
C64 H70 0.929 . S
C65 C45 1.449 . S
C65 C64 1.399 . S
C65 H71 0.930 . S
H66 C46 0.931 . S
H67 C47 0.930 . S
H68 C55 0.931 . S
H69 C56 0.929 . S
H70 C64 0.929 . S
H71 C65 0.930 . S
Mn72 O77 2.095 . S
Mn72 O87 2.162 . S
Mn72 O88 2.297 . S
Mn72 O96 2.385 . S
Mn72 O97 2.209 . S
Mn72 O98 2.094 . S
Mn73 O78 2.121 . S
Mn73 N80 2.257 . S
Mn73 N89 2.282 . S
Mn73 O97 2.215 . S
Mn73 O99 2.117 . S
C74 O96 1.234 . S
C74 O97 1.283 . S
C75 O87 1.281 . S
C75 O88 1.236 . S
C76 O98 1.240 . S
C76 O99 1.264 . S
O77 Mn72 2.095 . S
O77 C86 1.250 . S
O78 Mn73 2.121 . S
O78 C86 1.258 . S
C79 N80 1.326 . S
C79 C83 1.460 . S
C79 H85 0.929 . S
N80 Mn73 2.257 . S
N80 C79 1.326 . S
N80 C84 1.362 . S
C81 C82 1.258 . S
C81 C84 1.431 . S
C81 C101 1.449 . S
C82 C81 1.258 . S
C82 C83 1.477 . S
C82 H102 0.931 . S
C83 C79 1.460 . S
C83 C82 1.477 . S
C83 H103 0.930 . S
C84 N80 1.362 . S
C84 C81 1.431 . S
C84 C94 1.476 . S
H85 C79 0.929 . S
C86 O77 1.250 . S
C86 O78 1.258 . S
O87 Mn72 2.162 . S
O87 C75 1.281 . S
O88 Mn72 2.297 . S
O88 C75 1.236 . S
N89 Mn73 2.282 . S
N89 C90 1.328 . S
N89 C94 1.318 . S
C90 N89 1.328 . S
C90 C91 1.457 . S
C90 H95 0.929 . S
C91 C90 1.457 . S
C91 C92 1.291 . S
C91 H104 0.931 . S
C92 C91 1.291 . S
C92 C93 1.373 . S
C92 H105 0.929 . S
C93 C92 1.373 . S
C93 C94 1.396 . S
C93 C100 1.403 . S
C94 C84 1.476 . S
C94 N89 1.318 . S
C94 C93 1.396 . S
H95 C90 0.929 . S
O96 Mn72 2.385 . S
O96 C74 1.234 . S
O97 Mn72 2.209 . S
O97 Mn73 2.215 . S
O97 C74 1.283 . S
O98 Mn72 2.094 . S
O98 C76 1.240 . S
O99 Mn73 2.117 . S
O99 C76 1.264 . S
C100 C93 1.403 . S
C100 C101 1.399 . S
C100 H106 0.929 . S
C101 C81 1.449 . S
C101 C100 1.399 . S
C101 H107 0.930 . S
H102 C82 0.931 . S
H103 C83 0.930 . S
H104 C91 0.931 . S
H105 C92 0.929 . S
H106 C100 0.929 . S
H107 C101 0.930 . S
Mn108 O113 2.095 . S
Mn108 O123 2.162 . S
Mn108 O124 2.297 . S
Mn108 O132 2.385 . S
Mn108 O133 2.209 . S
Mn108 O134 2.094 . S
Mn109 O114 2.121 . S
Mn109 N116 2.257 . S
Mn109 N125 2.282 . S
Mn109 O133 2.215 . S
Mn109 O135 2.117 . S
C110 O132 1.234 . S
C110 O133 1.283 . S
C111 O123 1.281 . S
C111 O124 1.236 . S
C112 O134 1.240 . S
C112 O135 1.264 . S
O113 Mn108 2.095 . S
O113 C122 1.250 . S
O114 Mn109 2.121 . S
O114 C122 1.258 . S
C115 N116 1.326 . S
C115 C119 1.460 . S
C115 H121 0.929 . S
N116 Mn109 2.257 . S
N116 C115 1.326 . S
N116 C120 1.362 . S
C117 C118 1.258 . S
C117 C120 1.431 . S
C117 C137 1.449 . S
C118 C117 1.258 . S
C118 C119 1.477 . S
C118 H138 0.931 . S
C119 C115 1.460 . S
C119 C118 1.477 . S
C119 H139 0.930 . S
C120 N116 1.362 . S
C120 C117 1.431 . S
C120 C130 1.476 . S
H121 C115 0.929 . S
C122 O113 1.250 . S
C122 O114 1.258 . S
O123 Mn108 2.162 . S
O123 C111 1.281 . S
O124 Mn108 2.297 . S
O124 C111 1.236 . S
N125 Mn109 2.282 . S
N125 C126 1.328 . S
N125 C130 1.318 . S
C126 N125 1.328 . S
C126 C127 1.457 . S
C126 H131 0.929 . S
C127 C126 1.457 . S
C127 C128 1.291 . S
C127 H140 0.931 1_554 S
C128 C127 1.291 . S
C128 C129 1.373 . S
C128 H141 0.929 . S
C129 C128 1.373 . S
C129 C130 1.396 . S
C129 C136 1.403 . S
C130 C120 1.476 . S
C130 N125 1.318 . S
C130 C129 1.396 . S
H131 C126 0.929 . S
O132 Mn108 2.385 . S
O132 C110 1.234 . S
O133 Mn108 2.209 . S
O133 Mn109 2.215 . S
O133 C110 1.283 . S
O134 Mn108 2.094 . S
O134 C112 1.240 . S
O135 Mn109 2.117 . S
O135 C112 1.264 . S
C136 C129 1.403 . S
C136 C137 1.399 . S
C136 H142 0.929 . S
C137 C117 1.449 . S
C137 C136 1.399 . S
C137 H143 0.930 . S
H138 C118 0.931 . S
H139 C119 0.930 . S
H140 C127 0.931 1_556 S
H141 C128 0.929 . S
H142 C136 0.929 . S
H143 C137 0.930 . S
Mn144 O149 2.095 . S
Mn144 O159 2.162 . S
Mn144 O160 2.297 . S
Mn144 O168 2.385 . S
Mn144 O169 2.209 . S
Mn144 O170 2.094 . S
Mn145 O150 2.121 . S
Mn145 N152 2.257 . S
Mn145 N161 2.282 . S
Mn145 O169 2.215 . S
Mn145 O171 2.117 . S
C146 O168 1.234 . S
C146 O169 1.283 . S
C147 O159 1.281 . S
C147 O160 1.236 . S
C148 O170 1.240 . S
C148 O171 1.264 . S
O149 Mn144 2.095 . S
O149 C158 1.250 . S
O150 Mn145 2.121 . S
O150 C158 1.258 . S
C151 N152 1.326 . S
C151 C155 1.460 . S
C151 H157 0.929 . S
N152 Mn145 2.257 . S
N152 C151 1.326 . S
N152 C156 1.362 . S
C153 C154 1.258 . S
C153 C156 1.431 . S
C153 C173 1.449 . S
C154 C153 1.258 . S
C154 C155 1.477 . S
C154 H174 0.931 . S
C155 C151 1.460 . S
C155 C154 1.477 . S
C155 H175 0.930 . S
C156 N152 1.362 . S
C156 C153 1.431 . S
C156 C166 1.476 . S
H157 C151 0.929 . S
C158 O149 1.250 . S
C158 O150 1.258 . S
O159 Mn144 2.162 . S
O159 C147 1.281 . S
O160 Mn144 2.297 . S
O160 C147 1.236 . S
N161 Mn145 2.282 . S
N161 C162 1.328 . S
N161 C166 1.318 . S
C162 N161 1.328 . S
C162 C163 1.457 . S
C162 H167 0.929 . S
C163 C162 1.457 . S
C163 C164 1.291 . S
C163 H176 0.931 . S
C164 C163 1.291 . S
C164 C165 1.373 . S
C164 H177 0.929 . S
C165 C164 1.373 . S
C165 C166 1.396 . S
C165 C172 1.403 . S
C166 C156 1.476 . S
C166 N161 1.318 . S
C166 C165 1.396 . S
H167 C162 0.929 . S
O168 Mn144 2.385 . S
O168 C146 1.234 . S
O169 Mn144 2.209 . S
O169 Mn145 2.215 . S
O169 C146 1.283 . S
O170 Mn144 2.094 . S
O170 C148 1.240 . S
O171 Mn145 2.117 . S
O171 C148 1.264 . S
C172 C165 1.403 . S
C172 C173 1.399 . S
C172 H178 0.929 . S
C173 C153 1.449 . S
C173 C172 1.399 . S
C173 H179 0.930 . S
H174 C154 0.931 . S
H175 C155 0.930 . S
H176 C163 0.931 . S
H177 C164 0.929 . S
H178 C172 0.929 . S
H179 C173 0.930 . S
Mn180 O185 2.095 . S
Mn180 O195 2.162 . S
Mn180 O196 2.297 . S
Mn180 O204 2.385 . S
Mn180 O205 2.209 . S
Mn180 O206 2.094 . S
Mn181 O186 2.121 . S
Mn181 N188 2.257 . S
Mn181 N197 2.282 . S
Mn181 O205 2.215 . S
Mn181 O207 2.117 . S
C182 O204 1.234 . S
C182 O205 1.283 . S
C183 O195 1.281 . S
C183 O196 1.236 . S
C184 O206 1.240 . S
C184 O207 1.264 . S
O185 Mn180 2.095 . S
O185 C194 1.250 . S
O186 Mn181 2.121 . S
O186 C194 1.258 . S
C187 N188 1.326 . S
C187 C191 1.460 . S
C187 H193 0.929 . S
N188 Mn181 2.257 . S
N188 C187 1.326 . S
N188 C192 1.362 . S
C189 C190 1.258 . S
C189 C192 1.431 . S
C189 C209 1.449 . S
C190 C189 1.258 . S
C190 C191 1.477 . S
C190 H210 0.931 . S
C191 C187 1.460 . S
C191 C190 1.477 . S
C191 H211 0.930 . S
C192 N188 1.362 . S
C192 C189 1.431 . S
C192 C202 1.476 . S
H193 C187 0.929 . S
C194 O185 1.250 . S
C194 O186 1.258 . S
O195 Mn180 2.162 . S
O195 C183 1.281 . S
O196 Mn180 2.297 . S
O196 C183 1.236 . S
N197 Mn181 2.282 . S
N197 C198 1.328 . S
N197 C202 1.318 . S
C198 N197 1.328 . S
C198 C199 1.457 . S
C198 H203 0.929 . S
C199 C198 1.457 . S
C199 C200 1.291 . S
C199 H212 0.931 . S
C200 C199 1.291 . S
C200 C201 1.373 . S
C200 H213 0.929 . S
C201 C200 1.373 . S
C201 C202 1.396 . S
C201 C208 1.403 . S
C202 C192 1.476 . S
C202 N197 1.318 . S
C202 C201 1.396 . S
H203 C198 0.929 . S
O204 Mn180 2.385 . S
O204 C182 1.234 . S
O205 Mn180 2.209 . S
O205 Mn181 2.215 . S
O205 C182 1.283 . S
O206 Mn180 2.094 . S
O206 C184 1.240 . S
O207 Mn181 2.117 . S
O207 C184 1.264 . S
C208 C201 1.403 . S
C208 C209 1.399 . S
C208 H214 0.929 . S
C209 C189 1.449 . S
C209 C208 1.399 . S
C209 H215 0.930 . S
H210 C190 0.931 . S
H211 C191 0.930 . S
H212 C199 0.931 . S
H213 C200 0.929 . S
H214 C208 0.929 . S
H215 C209 0.930 . S
Mn216 O221 2.095 . S
Mn216 O231 2.162 . S
Mn216 O232 2.297 . S
Mn216 O240 2.385 . S
Mn216 O241 2.209 . S
Mn216 O242 2.094 . S
Mn217 O222 2.121 . S
Mn217 N224 2.257 . S
Mn217 N233 2.282 . S
Mn217 O241 2.215 . S
Mn217 O243 2.117 . S
C218 O240 1.234 . S
C218 O241 1.283 . S
C219 O231 1.281 . S
C219 O232 1.236 . S
C220 O242 1.240 . S
C220 O243 1.264 . S
O221 Mn216 2.095 . S
O221 C230 1.250 . S
O222 Mn217 2.121 . S
O222 C230 1.258 . S
C223 N224 1.326 . S
C223 C227 1.460 . S
C223 H229 0.929 . S
N224 Mn217 2.257 . S
N224 C223 1.326 . S
N224 C228 1.362 . S
C225 C226 1.258 . S
C225 C228 1.431 . S
C225 C245 1.449 . S
C226 C225 1.258 . S
C226 C227 1.477 . S
C226 H246 0.931 . S
C227 C223 1.460 . S
C227 C226 1.477 . S
C227 H247 0.930 . S
C228 N224 1.362 . S
C228 C225 1.431 . S
C228 C238 1.476 . S
H229 C223 0.929 . S
C230 O221 1.250 . S
C230 O222 1.258 . S
O231 Mn216 2.162 . S
O231 C219 1.281 . S
O232 Mn216 2.297 . S
O232 C219 1.236 . S
N233 Mn217 2.282 . S
N233 C234 1.328 . S
N233 C238 1.318 . S
C234 N233 1.328 . S
C234 C235 1.457 . S
C234 H239 0.929 . S
C235 C234 1.457 . S
C235 C236 1.291 . S
C235 H248 0.931 . S
C236 C235 1.291 . S
C236 C237 1.373 . S
C236 H249 0.929 . S
C237 C236 1.373 . S
C237 C238 1.396 . S
C237 C244 1.403 . S
C238 C228 1.476 . S
C238 N233 1.318 . S
C238 C237 1.396 . S
H239 C234 0.929 . S
O240 Mn216 2.385 . S
O240 C218 1.234 . S
O241 Mn216 2.209 . S
O241 Mn217 2.215 . S
O241 C218 1.283 . S
O242 Mn216 2.094 . S
O242 C220 1.240 . S
O243 Mn217 2.117 . S
O243 C220 1.264 . S
C244 C237 1.403 . S
C244 C245 1.399 . S
C244 H250 0.929 . S
C245 C225 1.449 . S
C245 C244 1.399 . S
C245 H251 0.930 . S
H246 C226 0.931 . S
H247 C227 0.930 . S
H248 C235 0.931 . S
H249 C236 0.929 . S
H250 C244 0.929 . S
H251 C245 0.930 . S
Mn252 O257 2.095 . S
Mn252 O267 2.162 . S
Mn252 O268 2.297 . S
Mn252 O276 2.385 . S
Mn252 O277 2.209 . S
Mn252 O278 2.094 . S
Mn253 O258 2.121 . S
Mn253 N260 2.257 . S
Mn253 N269 2.282 . S
Mn253 O277 2.215 . S
Mn253 O279 2.117 . S
C254 O276 1.234 . S
C254 O277 1.283 . S
C255 O267 1.281 . S
C255 O268 1.236 . S
C256 O278 1.240 . S
C256 O279 1.264 . S
O257 Mn252 2.095 . S
O257 C266 1.250 . S
O258 Mn253 2.121 . S
O258 C266 1.258 . S
C259 N260 1.326 . S
C259 C263 1.460 . S
C259 H265 0.929 . S
N260 Mn253 2.257 . S
N260 C259 1.326 . S
N260 C264 1.362 . S
C261 C262 1.258 . S
C261 C264 1.431 . S
C261 C281 1.449 . S
C262 C261 1.258 . S
C262 C263 1.477 . S
C262 H282 0.931 . S
C263 C259 1.460 . S
C263 C262 1.477 . S
C263 H283 0.930 . S
C264 N260 1.362 . S
C264 C261 1.431 . S
C264 C274 1.476 . S
H265 C259 0.929 . S
C266 O257 1.250 . S
C266 O258 1.258 . S
O267 Mn252 2.162 . S
O267 C255 1.281 . S
O268 Mn252 2.297 . S
O268 C255 1.236 . S
N269 Mn253 2.282 . S
N269 C270 1.328 . S
N269 C274 1.318 . S
C270 N269 1.328 . S
C270 C271 1.457 . S
C270 H275 0.929 . S
C271 C270 1.457 . S
C271 C272 1.291 . S
C271 H284 0.931 1_556 S
C272 C271 1.291 . S
C272 C273 1.373 . S
C272 H285 0.929 . S
C273 C272 1.373 . S
C273 C274 1.396 . S
C273 C280 1.403 . S
C274 C264 1.476 . S
C274 N269 1.318 . S
C274 C273 1.396 . S
H275 C270 0.929 . S
O276 Mn252 2.385 . S
O276 C254 1.234 . S
O277 Mn252 2.209 . S
O277 Mn253 2.215 . S
O277 C254 1.283 . S
O278 Mn252 2.094 . S
O278 C256 1.240 . S
O279 Mn253 2.117 . S
O279 C256 1.264 . S
C280 C273 1.403 . S
C280 C281 1.399 . S
C280 H286 0.929 . S
C281 C261 1.449 . S
C281 C280 1.399 . S
C281 H287 0.930 . S
H282 C262 0.931 . S
H283 C263 0.930 . S
H284 C271 0.931 1_554 S
H285 C272 0.929 . S
H286 C280 0.929 . S
H287 C281 0.930 . S
Mn288 O293 2.095 . S
Mn288 O303 2.162 . S
Mn288 O304 2.297 . S
Mn288 O312 2.385 . S
Mn288 O313 2.209 . S
Mn288 O314 2.094 . S
Mn289 O294 2.121 . S
Mn289 N296 2.257 . S
Mn289 N305 2.282 . S
Mn289 O313 2.215 . S
Mn289 O315 2.117 . S
C290 O312 1.234 . S
C290 O313 1.283 . S
C291 O303 1.281 . S
C291 O304 1.236 . S
C292 O314 1.240 . S
C292 O315 1.264 . S
O293 Mn288 2.095 . S
O293 C302 1.250 . S
O294 Mn289 2.121 . S
O294 C302 1.258 . S
C295 N296 1.326 . S
C295 C299 1.460 . S
C295 H301 0.929 . S
N296 Mn289 2.257 . S
N296 C295 1.326 . S
N296 C300 1.362 . S
C297 C298 1.258 . S
C297 C300 1.431 . S
C297 C317 1.449 . S
C298 C297 1.258 . S
C298 C299 1.477 . S
C298 H318 0.931 . S
C299 C295 1.460 . S
C299 C298 1.477 . S
C299 H319 0.930 . S
C300 N296 1.362 . S
C300 C297 1.431 . S
C300 C310 1.476 . S
H301 C295 0.929 . S
C302 O293 1.250 . S
C302 O294 1.258 . S
O303 Mn288 2.162 . S
O303 C291 1.281 . S
O304 Mn288 2.297 . S
O304 C291 1.236 . S
N305 Mn289 2.282 . S
N305 C306 1.328 . S
N305 C310 1.318 . S
C306 N305 1.328 . S
C306 C307 1.457 . S
C306 H311 0.929 . S
C307 C306 1.457 . S
C307 C308 1.291 . S
C307 H320 0.931 . S
C308 C307 1.291 . S
C308 C309 1.373 . S
C308 H321 0.929 . S
C309 C308 1.373 . S
C309 C310 1.396 . S
C309 C316 1.403 . S
C310 C300 1.476 . S
C310 N305 1.318 . S
C310 C309 1.396 . S
H311 C306 0.929 . S
O312 Mn288 2.385 . S
O312 C290 1.234 . S
O313 Mn288 2.209 . S
O313 Mn289 2.215 . S
O313 C290 1.283 . S
O314 Mn288 2.094 . S
O314 C292 1.240 . S
O315 Mn289 2.117 . S
O315 C292 1.264 . S
C316 C309 1.403 . S
C316 C317 1.399 . S
C316 H322 0.929 . S
C317 C297 1.449 . S
C317 C316 1.399 . S
C317 H323 0.930 . S
H318 C298 0.931 . S
H319 C299 0.930 . S
H320 C307 0.931 . S
H321 C308 0.929 . S
H322 C316 0.929 . S
H323 C317 0.930 . S
Mn324 O329 2.095 . S
Mn324 O339 2.162 . S
Mn324 O340 2.297 . S
Mn324 O348 2.385 . S
Mn324 O349 2.209 . S
Mn324 O350 2.094 . S
Mn325 O330 2.121 . S
Mn325 N332 2.257 . S
Mn325 N341 2.282 . S
Mn325 O349 2.215 . S
Mn325 O351 2.117 . S
C326 O348 1.234 . S
C326 O349 1.283 . S
C327 O339 1.281 . S
C327 O340 1.236 . S
C328 O350 1.240 . S
C328 O351 1.264 . S
O329 Mn324 2.095 . S
O329 C338 1.250 . S
O330 Mn325 2.121 . S
O330 C338 1.258 . S
C331 N332 1.326 . S
C331 C335 1.460 . S
C331 H337 0.929 . S
N332 Mn325 2.257 . S
N332 C331 1.326 . S
N332 C336 1.362 . S
C333 C334 1.258 . S
C333 C336 1.431 . S
C333 C353 1.449 . S
C334 C333 1.258 . S
C334 C335 1.477 . S
C334 H354 0.931 . S
C335 C331 1.460 . S
C335 C334 1.477 . S
C335 H355 0.930 . S
C336 N332 1.362 . S
C336 C333 1.431 . S
C336 C346 1.476 . S
H337 C331 0.929 . S
C338 O329 1.250 . S
C338 O330 1.258 . S
O339 Mn324 2.162 . S
O339 C327 1.281 . S
O340 Mn324 2.297 . S
O340 C327 1.236 . S
N341 Mn325 2.282 . S
N341 C342 1.328 . S
N341 C346 1.318 . S
C342 N341 1.328 . S
C342 C343 1.457 . S
C342 H347 0.929 . S
C343 C342 1.457 . S
C343 C344 1.291 . S
C343 H356 0.931 . S
C344 C343 1.291 . S
C344 C345 1.373 . S
C344 H357 0.929 . S
C345 C344 1.373 . S
C345 C346 1.396 . S
C345 C352 1.403 . S
C346 C336 1.476 . S
C346 N341 1.318 . S
C346 C345 1.396 . S
H347 C342 0.929 . S
O348 Mn324 2.385 . S
O348 C326 1.234 . S
O349 Mn324 2.209 . S
O349 Mn325 2.215 . S
O349 C326 1.283 . S
O350 Mn324 2.094 . S
O350 C328 1.240 . S
O351 Mn325 2.117 . S
O351 C328 1.264 . S
C352 C345 1.403 . S
C352 C353 1.399 . S
C352 H358 0.929 . S
C353 C333 1.449 . S
C353 C352 1.399 . S
C353 H359 0.930 . S
H354 C334 0.931 . S
H355 C335 0.930 . S
H356 C343 0.931 . S
H357 C344 0.929 . S
H358 C352 0.929 . S
H359 C353 0.930 . S
Mn360 O365 2.095 . S
Mn360 O375 2.162 . S
Mn360 O376 2.297 . S
Mn360 O384 2.385 . S
Mn360 O385 2.209 . S
Mn360 O386 2.094 . S
Mn361 O366 2.121 . S
Mn361 N368 2.257 . S
Mn361 N377 2.282 . S
Mn361 O385 2.215 . S
Mn361 O387 2.117 . S
C362 O384 1.234 . S
C362 O385 1.283 . S
C363 O375 1.281 . S
C363 O376 1.236 . S
C364 O386 1.240 . S
C364 O387 1.264 . S
O365 Mn360 2.095 . S
O365 C374 1.250 . S
O366 Mn361 2.121 . S
O366 C374 1.258 . S
C367 N368 1.326 . S
C367 C371 1.460 . S
C367 H373 0.929 . S
N368 Mn361 2.257 . S
N368 C367 1.326 . S
N368 C372 1.362 . S
C369 C370 1.258 . S
C369 C372 1.431 . S
C369 C389 1.449 . S
C370 C369 1.258 . S
C370 C371 1.477 . S
C370 H390 0.931 . S
C371 C367 1.460 . S
C371 C370 1.477 . S
C371 H391 0.930 . S
C372 N368 1.362 . S
C372 C369 1.431 . S
C372 C382 1.476 . S
H373 C367 0.929 . S
C374 O365 1.250 . S
C374 O366 1.258 . S
O375 Mn360 2.162 . S
O375 C363 1.281 . S
O376 Mn360 2.297 . S
O376 C363 1.236 . S
N377 Mn361 2.282 . S
N377 C378 1.328 . S
N377 C382 1.318 . S
C378 N377 1.328 . S
C378 C379 1.457 . S
C378 H383 0.929 . S
C379 C378 1.457 . S
C379 C380 1.291 . S
C379 H392 0.931 1_556 S
C380 C379 1.291 . S
C380 C381 1.373 . S
C380 H393 0.929 . S
C381 C380 1.373 . S
C381 C382 1.396 . S
C381 C388 1.403 . S
C382 C372 1.476 . S
C382 N377 1.318 . S
C382 C381 1.396 . S
H383 C378 0.929 . S
O384 Mn360 2.385 . S
O384 C362 1.234 . S
O385 Mn360 2.209 . S
O385 Mn361 2.215 . S
O385 C362 1.283 . S
O386 Mn360 2.094 . S
O386 C364 1.240 . S
O387 Mn361 2.117 . S
O387 C364 1.264 . S
C388 C381 1.403 . S
C388 C389 1.399 . S
C388 H394 0.929 . S
C389 C369 1.449 . S
C389 C388 1.399 . S
C389 H395 0.930 . S
H390 C370 0.931 . S
H391 C371 0.930 . S
H392 C379 0.931 1_554 S
H393 C380 0.929 . S
H394 C388 0.929 . S
H395 C389 0.930 . S
Mn396 O401 2.095 . S
Mn396 O411 2.162 . S
Mn396 O412 2.297 . S
Mn396 O420 2.385 . S
Mn396 O421 2.209 . S
Mn396 O422 2.094 . S
Mn397 O402 2.121 . S
Mn397 N404 2.257 . S
Mn397 N413 2.282 . S
Mn397 O421 2.215 . S
Mn397 O423 2.117 . S
C398 O420 1.234 . S
C398 O421 1.283 . S
C399 O411 1.281 . S
C399 O412 1.236 . S
C400 O422 1.240 . S
C400 O423 1.264 . S
O401 Mn396 2.095 . S
O401 C410 1.250 . S
O402 Mn397 2.121 . S
O402 C410 1.258 . S
C403 N404 1.326 . S
C403 C407 1.460 . S
C403 H409 0.929 . S
N404 Mn397 2.257 . S
N404 C403 1.326 . S
N404 C408 1.362 . S
C405 C406 1.258 . S
C405 C408 1.431 . S
C405 C425 1.449 . S
C406 C405 1.258 . S
C406 C407 1.477 . S
C406 H426 0.931 . S
C407 C403 1.460 . S
C407 C406 1.477 . S
C407 H427 0.930 . S
C408 N404 1.362 . S
C408 C405 1.431 . S
C408 C418 1.476 . S
H409 C403 0.929 . S
C410 O401 1.250 . S
C410 O402 1.258 . S
O411 Mn396 2.162 . S
O411 C399 1.281 . S
O412 Mn396 2.297 . S
O412 C399 1.236 . S
N413 Mn397 2.282 . S
N413 C414 1.328 . S
N413 C418 1.318 . S
C414 N413 1.328 . S
C414 C415 1.457 . S
C414 H419 0.929 . S
C415 C414 1.457 . S
C415 C416 1.291 . S
C415 H428 0.931 . S
C416 C415 1.291 . S
C416 C417 1.373 . S
C416 H429 0.929 . S
C417 C416 1.373 . S
C417 C418 1.396 . S
C417 C424 1.403 . S
C418 C408 1.476 . S
C418 N413 1.318 . S
C418 C417 1.396 . S
H419 C414 0.929 . S
O420 Mn396 2.385 . S
O420 C398 1.234 . S
O421 Mn396 2.209 . S
O421 Mn397 2.215 . S
O421 C398 1.283 . S
O422 Mn396 2.094 . S
O422 C400 1.240 . S
O423 Mn397 2.117 . S
O423 C400 1.264 . S
C424 C417 1.403 . S
C424 C425 1.399 . S
C424 H430 0.929 . S
C425 C405 1.449 . S
C425 C424 1.399 . S
C425 H431 0.930 . S
H426 C406 0.931 . S
H427 C407 0.930 . S
H428 C415 0.931 . S
H429 C416 0.929 . S
H430 C424 0.929 . S
H431 C425 0.930 . S
H432 C438 0.930 . S
H433 C441 0.930 . S
H434 C442 0.930 . S
H435 C443 0.930 . S
H436 C446 0.930 . S
H437 C447 0.930 . S
C438 H432 0.930 . S
C438 C439 1.355 . S
C438 C440 1.415 . S
C439 C438 1.355 . S
C439 C441 1.419 . S
C440 C438 1.415 . S
C440 C445 1.425 1_566 S
C440 C447 1.409 1_565 S
C441 H433 0.930 . S
C441 C439 1.419 . S
C441 C442 1.362 1_556 S
C442 H434 0.930 . S
C442 C441 1.362 1_554 S
C442 C445 1.409 1_565 S
C443 H435 0.930 . S
C443 C444 1.355 . S
C443 C445 1.415 . S
C444 C443 1.355 . S
C444 C446 1.419 . S
C445 C440 1.425 1_544 S
C445 C442 1.409 1_545 S
C445 C443 1.415 . S
C446 H436 0.930 . S
C446 C444 1.419 . S
C446 C447 1.362 1_554 S
C447 H437 0.930 . S
C447 C440 1.409 1_545 S
C447 C446 1.362 1_556 S
H448 C454 0.930 . S
H449 C457 0.930 . S
H450 C458 0.930 . S
H451 C459 0.930 . S
H452 C462 0.930 . S
H453 C463 0.930 . S
C454 H448 0.930 . S
C454 C455 1.355 . S
C454 C456 1.415 . S
C455 C454 1.355 . S
C455 C457 1.419 . S
C456 C454 1.415 . S
C456 C461 1.425 . S
C456 C463 1.409 . S
C457 H449 0.930 . S
C457 C455 1.419 . S
C457 C458 1.362 . S
C458 H450 0.930 . S
C458 C457 1.362 . S
C458 C461 1.409 . S
C459 H451 0.930 . S
C459 C460 1.355 . S
C459 C461 1.415 . S
C460 C459 1.355 . S
C460 C462 1.419 . S
C461 C456 1.425 . S
C461 C458 1.409 . S
C461 C459 1.415 . S
C462 H452 0.930 . S
C462 C460 1.419 . S
C462 C463 1.362 . S
C463 H453 0.930 . S
C463 C456 1.409 . S
C463 C462 1.362 . S
H464 C470 0.930 . S
H465 C473 0.930 . S
H466 C474 0.930 1_455 S
H467 C475 0.930 . S
H468 C478 0.930 . S
H469 C479 0.930 1_655 S
C470 H464 0.930 . S
C470 C471 1.355 . S
C470 C472 1.415 . S
C471 C470 1.355 . S
C471 C473 1.419 . S
C472 C470 1.415 . S
C472 C477 1.425 1_655 S
C472 C479 1.409 1_655 S
C473 H465 0.930 . S
C473 C471 1.419 . S
C473 C474 1.362 . S
C474 H466 0.930 1_655 S
C474 C473 1.362 . S
C474 C477 1.409 1_655 S
C475 H467 0.930 . S
C475 C476 1.355 . S
C475 C477 1.415 . S
C476 C475 1.355 . S
C476 C478 1.419 . S
C477 C472 1.425 1_455 S
C477 C474 1.409 1_455 S
C477 C475 1.415 . S
C478 H468 0.930 . S
C478 C476 1.419 . S
C478 C479 1.362 . S
C479 H469 0.930 1_455 S
C479 C472 1.409 1_455 S
C479 C478 1.362 . S
H480 C486 0.930 . S
H481 C489 0.930 . S
H482 C490 0.930 . S
H483 C491 0.930 . S
H484 C494 0.930 . S
H485 C495 0.930 . S
C486 H480 0.930 . S
C486 C487 1.355 . S
C486 C488 1.415 . S
C487 C486 1.355 . S
C487 C489 1.419 . S
C488 C486 1.415 . S
C488 C493 1.425 1_564 S
C488 C495 1.409 1_565 S
C489 H481 0.930 . S
C489 C487 1.419 . S
C489 C490 1.362 1_554 S
C490 H482 0.930 . S
C490 C489 1.362 1_556 S
C490 C493 1.409 1_565 S
C491 H483 0.930 . S
C491 C492 1.355 . S
C491 C493 1.415 . S
C492 C491 1.355 . S
C492 C494 1.419 . S
C493 C488 1.425 1_546 S
C493 C490 1.409 1_545 S
C493 C491 1.415 . S
C494 H484 0.930 . S
C494 C492 1.419 . S
C494 C495 1.362 1_556 S
C495 H485 0.930 . S
C495 C488 1.409 1_545 S
C495 C494 1.362 1_554 S
H496 C502 0.930 . S
H497 C505 0.930 . S
H498 C506 0.930 . S
H499 C507 0.930 . S
H500 C510 0.930 . S
H501 C511 0.930 . S
C502 H496 0.930 . S
C502 C503 1.355 . S
C502 C504 1.415 . S
C503 C502 1.355 . S
C503 C505 1.419 . S
C504 C502 1.415 . S
C504 C509 1.425 . S
C504 C511 1.409 . S
C505 H497 0.930 . S
C505 C503 1.419 . S
C505 C506 1.362 . S
C506 H498 0.930 . S
C506 C505 1.362 . S
C506 C509 1.409 . S
C507 H499 0.930 . S
C507 C508 1.355 . S
C507 C509 1.415 . S
C508 C507 1.355 . S
C508 C510 1.419 . S
C509 C504 1.425 . S
C509 C506 1.409 . S
C509 C507 1.415 . S
C510 H500 0.930 . S
C510 C508 1.419 . S
C510 C511 1.362 . S
C511 H501 0.930 . S
C511 C504 1.409 . S
C511 C510 1.362 . S
H512 C518 0.930 . S
H513 C521 0.930 . S
H514 C522 0.930 . S
H515 C523 0.930 . S
H516 C526 0.930 . S
H517 C527 0.930 . S
C518 H512 0.930 . S
C518 C519 1.355 . S
C518 C520 1.431 . S
C519 C518 1.355 . S
C519 C521 1.419 . S
C520 C518 1.431 . S
C520 C525 1.412 1_655 S
C520 C527 1.399 1_655 S
C521 H513 0.930 . S
C521 C519 1.419 . S
C521 C522 1.362 . S
C522 H514 0.930 . S
C522 C521 1.362 . S
C522 C525 1.399 1_655 S
C523 H515 0.930 . S
C523 C524 1.355 . S
C523 C525 1.431 . S
C524 C523 1.355 . S
C524 C526 1.419 . S
C525 C520 1.412 1_455 S
C525 C522 1.399 1_455 S
C525 C523 1.431 . S
C526 H516 0.930 . S
C526 C524 1.419 . S
C526 C527 1.362 . S
C527 H517 0.930 . S
C527 C520 1.399 1_455 S
C527 C526 1.362 . S
H528 C534 0.930 . S
H529 C537 0.930 . S
H530 C538 0.930 . S
H531 C539 0.930 . S
H532 C542 0.930 . S
H533 C543 0.930 . S
C534 H528 0.930 . S
C534 C535 1.355 1_554 S
C534 C536 1.415 . S
C535 C534 1.355 1_556 S
C535 C537 1.419 . S
C536 C534 1.415 . S
C536 C541 1.425 1_554 S
C536 C543 1.409 . S
C537 H529 0.930 . S
C537 C535 1.419 . S
C537 C538 1.362 . S
C538 H530 0.930 . S
C538 C537 1.362 . S
C538 C541 1.409 . S
C539 H531 0.930 . S
C539 C540 1.355 1_556 S
C539 C541 1.415 . S
C540 C539 1.355 1_554 S
C540 C542 1.419 . S
C541 C536 1.425 1_556 S
C541 C538 1.409 . S
C541 C539 1.415 . S
C542 H532 0.930 . S
C542 C540 1.419 . S
C542 C543 1.362 . S
C543 H533 0.930 . S
C543 C536 1.409 . S
C543 C542 1.362 . S
H544 C550 0.930 . S
H545 C553 0.930 . S
H546 C554 0.930 . S
H547 C555 0.930 . S
H548 C558 0.930 . S
H549 C559 0.930 . S
C550 H544 0.930 . S
C550 C551 1.355 . S
C550 C552 1.415 . S
C551 C550 1.355 . S
C551 C553 1.419 . S
C552 C550 1.415 . S
C552 C557 1.425 . S
C552 C559 1.409 . S
C553 H545 0.930 . S
C553 C551 1.419 . S
C553 C554 1.362 . S
C554 H546 0.930 . S
C554 C553 1.362 . S
C554 C557 1.409 . S
C555 H547 0.930 . S
C555 C556 1.355 . S
C555 C557 1.415 . S
C556 C555 1.355 . S
C556 C558 1.419 . S
C557 C552 1.425 . S
C557 C554 1.409 . S
C557 C555 1.415 . S
C558 H548 0.930 . S
C558 C556 1.419 . S
C558 C559 1.362 . S
C559 H549 0.930 . S
C559 C552 1.409 . S
C559 C558 1.362 . S
H560 C566 0.930 . S
H561 C569 0.930 . S
H562 C570 0.930 . S
H563 C571 0.930 . S
H564 C574 0.930 . S
H565 C575 0.930 . S
C566 H560 0.930 . S
C566 C567 1.355 . S
C566 C568 1.415 . S
C567 C566 1.355 . S
C567 C569 1.419 . S
C568 C566 1.415 . S
C568 C573 1.425 . S
C568 C575 1.409 . S
C569 H561 0.930 . S
C569 C567 1.419 . S
C569 C570 1.362 . S
C570 H562 0.930 . S
C570 C569 1.362 . S
C570 C573 1.409 . S
C571 H563 0.930 . S
C571 C572 1.355 . S
C571 C573 1.415 . S
C572 C571 1.355 . S
C572 C574 1.419 . S
C573 C568 1.425 . S
C573 C570 1.409 . S
C573 C571 1.415 . S
C574 H564 0.930 . S
C574 C572 1.419 . S
C574 C575 1.362 . S
C575 H565 0.930 . S
C575 C568 1.409 . S
C575 C574 1.362 . S
H576 C582 0.930 . S
H577 C585 0.930 . S
H578 C586 0.930 . S
H579 C587 0.930 . S
H580 C590 0.930 . S
H581 C591 0.930 . S
C582 H576 0.930 . S
C582 C583 1.355 . S
C582 C584 1.415 . S
C583 C582 1.355 . S
C583 C585 1.419 1_556 S
C584 C582 1.415 . S
C584 C589 1.425 1_556 S
C584 C591 1.409 . S
C585 H577 0.930 . S
C585 C583 1.419 1_554 S
C585 C586 1.362 . S
C586 H578 0.930 . S
C586 C585 1.362 . S
C586 C589 1.409 . S
C587 H579 0.930 . S
C587 C588 1.355 . S
C587 C589 1.415 . S
C588 C587 1.355 . S
C588 C590 1.419 1_554 S
C589 C584 1.425 1_554 S
C589 C586 1.409 . S
C589 C587 1.415 . S
C590 H580 0.930 . S
C590 C588 1.419 1_556 S
C590 C591 1.362 . S
C591 H581 0.930 . S
C591 C584 1.409 . S
C591 C590 1.362 . S
H592 C598 0.930 . S
H593 C601 0.930 . S
H594 C602 0.930 . S
H595 C603 0.930 . S
H596 C606 0.930 . S
H597 C607 0.930 . S
C598 H592 0.930 . S
C598 C599 1.355 . S
C598 C600 1.415 . S
C599 C598 1.355 . S
C599 C601 1.419 . S
C600 C598 1.415 . S
C600 C605 1.425 . S
C600 C607 1.409 . S
C601 H593 0.930 . S
C601 C599 1.419 . S
C601 C602 1.362 . S
C602 H594 0.930 . S
C602 C601 1.362 . S
C602 C605 1.409 . S
C603 H595 0.930 . S
C603 C604 1.355 . S
C603 C605 1.415 . S
C604 C603 1.355 . S
C604 C606 1.419 . S
C605 C600 1.425 . S
C605 C602 1.409 . S
C605 C603 1.415 . S
C606 H596 0.930 . S
C606 C604 1.419 . S
C606 C607 1.362 . S
C607 H597 0.930 . S
C607 C600 1.409 . S
C607 C606 1.362 . S
H608 C614 0.930 . S
H609 C617 0.930 . S
H610 C618 0.930 . S
H611 C619 0.930 . S
H612 C622 0.930 . S
H613 C623 0.930 . S
C614 H608 0.930 . S
C614 C615 1.355 . S
C614 C616 1.415 . S
C615 C614 1.355 . S
C615 C617 1.419 . S
C616 C614 1.415 . S
C616 C621 1.425 . S
C616 C623 1.409 . S
C617 H609 0.930 . S
C617 C615 1.419 . S
C617 C618 1.362 . S
C618 H610 0.930 . S
C618 C617 1.362 . S
C618 C621 1.409 . S
C619 H611 0.930 . S
C619 C620 1.355 . S
C619 C621 1.415 . S
C620 C619 1.355 . S
C620 C622 1.419 . S
C621 C616 1.425 . S
C621 C618 1.409 . S
C621 C619 1.415 . S
C622 H612 0.930 . S
C622 C620 1.419 . S
C622 C623 1.362 . S
C623 H613 0.930 . S
C623 C616 1.409 . S
C623 C622 1.362 . S
H624 C630 0.930 . S
H625 C633 0.930 . S
H626 C634 0.930 . S
H627 C635 0.930 . S
H628 C638 0.930 . S
H629 C639 0.930 . S
C630 H624 0.930 . S
C630 C631 1.355 . S
C630 C632 1.415 . S
C631 C630 1.355 . S
C631 C633 1.419 . S
C632 C630 1.415 . S
C632 C637 1.425 . S
C632 C639 1.409 . S
C633 H625 0.930 . S
C633 C631 1.419 . S
C633 C634 1.362 . S
C634 H626 0.930 . S
C634 C633 1.362 . S
C634 C637 1.409 . S
C635 H627 0.930 . S
C635 C636 1.355 . S
C635 C637 1.415 . S
C636 C635 1.355 . S
C636 C638 1.419 . S
C637 C632 1.425 . S
C637 C634 1.409 . S
C637 C635 1.415 . S
C638 H628 0.930 . S
C638 C636 1.419 . S
C638 C639 1.362 . S
C639 H629 0.930 . S
C639 C632 1.409 . S
C639 C638 1.362 . S
H640 C646 0.930 . S
H641 C649 0.930 . S
H642 C650 0.930 . S
H643 C651 0.930 . S
H644 C654 0.930 . S
H645 C655 0.930 . S
C646 H640 0.930 . S
C646 C647 1.355 . S
C646 C648 1.415 . S
C647 C646 1.355 . S
C647 C649 1.419 . S
C648 C646 1.415 . S
C648 C653 1.425 . S
C648 C655 1.409 . S
C649 H641 0.930 . S
C649 C647 1.419 . S
C649 C650 1.362 . S
C650 H642 0.930 . S
C650 C649 1.362 . S
C650 C653 1.409 . S
C651 H643 0.930 . S
C651 C652 1.355 . S
C651 C653 1.415 . S
C652 C651 1.355 . S
C652 C654 1.419 . S
C653 C648 1.425 . S
C653 C650 1.409 . S
C653 C651 1.415 . S
C654 H644 0.930 . S
C654 C652 1.419 . S
C654 C655 1.362 . S
C655 H645 0.930 . S
C655 C648 1.409 . S
C655 C654 1.362 . S
H656 C662 0.930 . S
H657 C665 0.930 . S
H658 C666 0.930 . S
H659 C667 0.930 . S
H660 C670 0.930 . S
H661 C671 0.930 . S
C662 H656 0.930 . S
C662 C663 1.355 . S
C662 C664 1.415 . S
C663 C662 1.355 . S
C663 C665 1.419 . S
C664 C662 1.415 . S
C664 C669 1.425 . S
C664 C671 1.409 . S
C665 H657 0.930 . S
C665 C663 1.419 . S
C665 C666 1.362 . S
C666 H658 0.930 . S
C666 C665 1.362 . S
C666 C669 1.409 . S
C667 H659 0.930 . S
C667 C668 1.355 . S
C667 C669 1.415 . S
C668 C667 1.355 . S
C668 C670 1.419 . S
C669 C664 1.425 . S
C669 C666 1.409 . S
C669 C667 1.415 . S
C670 H660 0.930 . S
C670 C668 1.419 . S
C670 C671 1.362 . S
C671 H661 0.930 . S
C671 C664 1.409 . S
C671 C670 1.362 . S
H672 C678 0.930 . S
H673 C681 0.930 . S
H674 C682 0.930 . S
H675 C683 0.930 . S
H676 C686 0.930 . S
H677 C687 0.930 . S
C678 H672 0.930 . S
C678 C679 1.355 . S
C678 C680 1.415 . S
C679 C678 1.355 . S
C679 C681 1.419 . S
C680 C678 1.415 . S
C680 C685 1.425 . S
C680 C687 1.409 . S
C681 H673 0.930 . S
C681 C679 1.419 . S
C681 C682 1.362 . S
C682 H674 0.930 . S
C682 C681 1.362 . S
C682 C685 1.409 . S
C683 H675 0.930 . S
C683 C684 1.355 . S
C683 C685 1.415 . S
C684 C683 1.355 . S
C684 C686 1.419 . S
C685 C680 1.425 . S
C685 C682 1.409 . S
C685 C683 1.415 . S
C686 H676 0.930 . S
C686 C684 1.419 . S
C686 C687 1.362 . S
C687 H677 0.930 . S
C687 C680 1.409 . S
C687 C686 1.362 . S
H688 C694 0.930 . S
H689 C697 0.930 . S
H690 C698 0.930 . S
H691 C699 0.930 . S
H692 C702 0.930 . S
H693 C703 0.930 . S
C694 H688 0.930 . S
C694 C695 1.355 . S
C694 C696 1.415 . S
C695 C694 1.355 . S
C695 C697 1.419 . S
C696 C694 1.415 . S
C696 C701 1.425 . S
C696 C703 1.409 . S
C697 H689 0.930 . S
C697 C695 1.419 . S
C697 C698 1.362 . S
C698 H690 0.930 . S
C698 C697 1.362 . S
C698 C701 1.409 . S
C699 H691 0.930 . S
C699 C700 1.355 . S
C699 C701 1.415 . S
C700 C699 1.355 . S
C700 C702 1.419 . S
C701 C696 1.425 . S
C701 C698 1.409 . S
C701 C699 1.415 . S
C702 H692 0.930 . S
C702 C700 1.419 . S
C702 C703 1.362 . S
C703 H693 0.930 . S
C703 C696 1.409 . S
C703 C702 1.362 . S
H704 C710 0.930 . S
H705 C713 0.930 . S
H706 C714 0.930 . S
H707 C715 0.930 . S
H708 C718 0.930 . S
H709 C719 0.930 . S
C710 H704 0.930 . S
C710 C711 1.355 . S
C710 C712 1.415 . S
C711 C710 1.355 . S
C711 C713 1.419 . S
C712 C710 1.415 . S
C712 C717 1.425 . S
C712 C719 1.409 . S
C713 H705 0.930 . S
C713 C711 1.419 . S
C713 C714 1.362 . S
C714 H706 0.930 . S
C714 C713 1.362 . S
C714 C717 1.409 . S
C715 H707 0.930 . S
C715 C716 1.355 . S
C715 C717 1.415 . S
C716 C715 1.355 . S
C716 C718 1.419 . S
C717 C712 1.425 . S
C717 C714 1.409 . S
C717 C715 1.415 . S
C718 H708 0.930 . S
C718 C716 1.419 . S
C718 C719 1.362 . S
C719 H709 0.930 . S
C719 C712 1.409 . S
C719 C718 1.362 . S
H720 C726 0.930 . S
H721 C729 0.930 . S
H722 C730 0.930 1_556 S
H723 C731 0.930 . S
H724 C734 0.930 . S
H725 C735 0.930 . S
C726 H720 0.930 . S
C726 C727 1.355 . S
C726 C728 1.415 . S
C727 C726 1.355 . S
C727 C729 1.419 . S
C728 C726 1.415 . S
C728 C733 1.425 . S
C728 C735 1.409 . S
C729 H721 0.930 . S
C729 C727 1.419 . S
C729 C730 1.362 . S
C730 H722 0.930 1_554 S
C730 C729 1.362 . S
C730 C733 1.409 . S
C731 H723 0.930 . S
C731 C732 1.355 . S
C731 C733 1.415 . S
C732 C731 1.355 . S
C732 C734 1.419 . S
C733 C728 1.425 . S
C733 C730 1.409 . S
C733 C731 1.415 . S
C734 H724 0.930 . S
C734 C732 1.419 . S
C734 C735 1.362 . S
C735 H725 0.930 . S
C735 C728 1.409 . S
C735 C734 1.362 . S
H736 C742 0.930 . S
H737 C745 0.930 . S
H738 C746 0.930 . S
H739 C747 0.930 . S
H740 C750 0.930 . S
H741 C751 0.930 . S
C742 H736 0.930 . S
C742 C743 1.355 . S
C742 C744 1.415 . S
C743 C742 1.355 . S
C743 C745 1.419 1_655 S
C744 C742 1.415 . S
C744 C749 1.425 1_655 S
C744 C751 1.409 . S
C745 H737 0.930 . S
C745 C743 1.419 1_455 S
C745 C746 1.362 . S
C746 H738 0.930 . S
C746 C745 1.362 . S
C746 C749 1.409 . S
C747 H739 0.930 . S
C747 C748 1.355 . S
C747 C749 1.415 . S
C748 C747 1.355 . S
C748 C750 1.419 1_455 S
C749 C744 1.425 1_455 S
C749 C746 1.409 . S
C749 C747 1.415 . S
C750 H740 0.930 . S
C750 C748 1.419 1_655 S
C750 C751 1.362 . S
C751 H741 0.930 . S
C751 C744 1.409 . S
C751 C750 1.362 . S
H752 C758 0.930 . S
H753 C761 0.930 . S
H754 C762 0.930 . S
H755 C763 0.930 . S
H756 C766 0.930 . S
H757 C767 0.930 . S
C758 H752 0.930 . S
C758 C759 1.355 . S
C758 C760 1.415 . S
C759 C758 1.355 . S
C759 C761 1.419 1_545 S
C760 C758 1.415 . S
C760 C765 1.425 1_545 S
C760 C767 1.409 . S
C761 H753 0.930 . S
C761 C759 1.419 1_565 S
C761 C762 1.362 . S
C762 H754 0.930 . S
C762 C761 1.362 . S
C762 C765 1.409 . S
C763 H755 0.930 . S
C763 C764 1.355 . S
C763 C765 1.415 . S
C764 C763 1.355 . S
C764 C766 1.419 1_565 S
C765 C760 1.425 1_565 S
C765 C762 1.409 . S
C765 C763 1.415 . S
C766 H756 0.930 . S
C766 C764 1.419 1_545 S
C766 C767 1.362 . S
C767 H757 0.930 . S
C767 C760 1.409 . S
C767 C766 1.362 . S
H768 C774 0.930 . S
H769 C777 0.930 . S
H770 C778 0.930 . S
H771 C779 0.930 . S
H772 C782 0.930 . S
H773 C783 0.930 . S
C774 H768 0.930 . S
C774 C775 1.355 . S
C774 C776 1.415 . S
C775 C774 1.355 . S
C775 C777 1.419 . S
C776 C774 1.415 . S
C776 C781 1.425 . S
C776 C783 1.409 . S
C777 H769 0.930 . S
C777 C775 1.419 . S
C777 C778 1.362 . S
C778 H770 0.930 . S
C778 C777 1.362 . S
C778 C781 1.409 . S
C779 H771 0.930 . S
C779 C780 1.355 . S
C779 C781 1.415 . S
C780 C779 1.355 . S
C780 C782 1.419 . S
C781 C776 1.425 . S
C781 C778 1.409 . S
C781 C779 1.415 . S
C782 H772 0.930 . S
C782 C780 1.419 . S
C782 C783 1.362 . S
C783 H773 0.930 . S
C783 C776 1.409 . S
C783 C782 1.362 . S
H784 C790 0.930 . S
H785 C793 0.930 . S
H786 C794 0.930 . S
H787 C795 0.930 . S
H788 C798 0.930 . S
H789 C799 0.930 1_554 S
C790 H784 0.930 . S
C790 C791 1.355 . S
C790 C792 1.415 . S
C791 C790 1.355 . S
C791 C793 1.419 . S
C792 C790 1.415 . S
C792 C797 1.425 1_455 S
C792 C799 1.409 . S
C793 H785 0.930 . S
C793 C791 1.419 . S
C793 C794 1.362 1_455 S
C794 H786 0.930 . S
C794 C793 1.362 1_655 S
C794 C797 1.409 . S
C795 H787 0.930 . S
C795 C796 1.355 . S
C795 C797 1.415 . S
C796 C795 1.355 . S
C796 C798 1.419 . S
C797 C792 1.425 1_655 S
C797 C794 1.409 . S
C797 C795 1.415 . S
C798 H788 0.930 . S
C798 C796 1.419 . S
C798 C799 1.362 1_655 S
C799 H789 0.930 1_556 S
C799 C792 1.409 . S
C799 C798 1.362 1_455 S
H800 C806 0.930 1_545 S
H801 C809 0.930 . S
H802 C810 0.930 . S
H803 C811 0.930 1_565 S
H804 C814 0.930 . S
H805 C815 0.930 . S
C806 H800 0.930 1_565 S
C806 C807 1.355 . S
C806 C808 1.415 1_565 S
C807 C806 1.355 . S
C807 C809 1.419 . S
C808 C806 1.415 1_545 S
C808 C813 1.425 1_545 S
C808 C815 1.409 . S
C809 H801 0.930 . S
C809 C807 1.419 . S
C809 C810 1.362 . S
C810 H802 0.930 . S
C810 C809 1.362 . S
C810 C813 1.409 . S
C811 H803 0.930 1_545 S
C811 C812 1.355 . S
C811 C813 1.415 1_545 S
C812 C811 1.355 . S
C812 C814 1.419 . S
C813 C808 1.425 1_565 S
C813 C810 1.409 . S
C813 C811 1.415 1_565 S
C814 H804 0.930 . S
C814 C812 1.419 . S
C814 C815 1.362 . S
C815 H805 0.930 . S
C815 C808 1.409 . S
C815 C814 1.362 . S
C439 C255 1.343 . S
C444 C3 1.377 . S
C455 C39 1.343 . S
C460 C291 1.377 . S
C471 C75 1.376 . S
C476 C327 1.342 . S
C487 C111 1.343 . S
C492 C363 1.377 . S
C503 C399 1.351 . S
C508 C147 1.362 . S
C519 C219 1.348 . S
C524 C183 1.376 . S
C535 C362 1.410 . S
C540 C2 1.416 . S
C551 C38 1.416 . S
C556 C398 1.407 . S
C567 C74 1.409 . S
C572 C218 1.416 . S
C583 C254 1.403 . S
C588 C110 1.402 . S
C599 C290 1.401 . S
C604 C146 1.408 . S
C615 C326 1.416 . S
C620 C182 1.414 . S
C631 C14 1.532 . S
C636 C302 1.580 . S
C647 C50 1.589 . S
C652 C338 1.569 . S
C663 C374 1.601 . S
C668 C86 1.536 . S
C679 C122 1.576 . S
C684 C410 1.534 . S
C695 C230 1.601 . S
C700 C158 1.542 . S
C711 C266 1.579 . S
C716 C194 1.532 . S
C727 C112 1.366 . S
C732 C4 1.349 . S
C743 C148 1.362 . S
C748 C40 1.373 . S
C759 C76 1.362 . S
C764 C184 1.373 . S
C775 C220 1.287 . S
C780 C328 1.291 . S
C791 C256 1.321 . S
C796 C364 1.344 . S
C807 C400 1.323 . S
C812 C292 1.302 . S
