# Generated by pormake.
# Topology une, (4)-cn, num edge types: 1
# Building blocks:
#     Node 0, Type 0, BuildingBlock: UXUYUI_clean_sbu_0, # of connection points: 4
#     Node 1, Type 0, BuildingBlock: UXUYUI_clean_sbu_0, # of connection points: 4
#     Node 2, Type 0, BuildingBlock: UXUYUI_clean_sbu_0, # of connection points: 4
#     Node 3, Type 0, BuildingBlock: UXUYUI_clean_sbu_0, # of connection points: 4
#     Node 4, Type 0, BuildingBlock: UXUYUI_clean_sbu_0, # of connection points: 4
#     Node 5, Type 0, BuildingBlock: UXUYUI_clean_sbu_0, # of connection points: 4
#     Node 6, Type 0, BuildingBlock: UXUYUI_clean_sbu_0, # of connection points: 4
#     Node 7, Type 0, BuildingBlock: UXUYUI_clean_sbu_0, # of connection points: 4
#     Node 8, Type 0, BuildingBlock: UXUYUI_clean_sbu_0, # of connection points: 4
#     Node 9, Type 0, BuildingBlock: UXUYUI_clean_sbu_0, # of connection points: 4
#     Node 10, Type 0, BuildingBlock: UXUYUI_clean_sbu_0, # of connection points: 4
#     Node 11, Type 0, BuildingBlock: UXUYUI_clean_sbu_0, # of connection points: 4
#     Node 12, Type 0, BuildingBlock: UXUYUI_clean_sbu_0, # of connection points: 4
#     Node 13, Type 0, BuildingBlock: UXUYUI_clean_sbu_0, # of connection points: 4
#     Node 14, Type 0, BuildingBlock: UXUYUI_clean_sbu_0, # of connection points: 4
#     Node 15, Type 0, BuildingBlock: UXUYUI_clean_sbu_0, # of connection points: 4
#     Node 16, Type 0, BuildingBlock: UXUYUI_clean_sbu_0, # of connection points: 4
#     Node 17, Type 0, BuildingBlock: UXUYUI_clean_sbu_0, # of connection points: 4
#     Edge 18, Type (0, 0), BuildingBlock: ZUJKAS_clean_linker_0, # of connection points: 2
#     Edge 19, Type (0, 0), BuildingBlock: ZUJKAS_clean_linker_0, # of connection points: 2
#     Edge 20, Type (0, 0), BuildingBlock: ZUJKAS_clean_linker_0, # of connection points: 2
#     Edge 21, Type (0, 0), BuildingBlock: ZUJKAS_clean_linker_0, # of connection points: 2
#     Edge 22, Type (0, 0), BuildingBlock: ZUJKAS_clean_linker_0, # of connection points: 2
#     Edge 23, Type (0, 0), BuildingBlock: ZUJKAS_clean_linker_0, # of connection points: 2
#     Edge 24, Type (0, 0), BuildingBlock: ZUJKAS_clean_linker_0, # of connection points: 2
#     Edge 25, Type (0, 0), BuildingBlock: ZUJKAS_clean_linker_0, # of connection points: 2
#     Edge 26, Type (0, 0), BuildingBlock: ZUJKAS_clean_linker_0, # of connection points: 2
#     Edge 27, Type (0, 0), BuildingBlock: ZUJKAS_clean_linker_0, # of connection points: 2
#     Edge 28, Type (0, 0), BuildingBlock: ZUJKAS_clean_linker_0, # of connection points: 2
#     Edge 29, Type (0, 0), BuildingBlock: ZUJKAS_clean_linker_0, # of connection points: 2
#     Edge 30, Type (0, 0), BuildingBlock: ZUJKAS_clean_linker_0, # of connection points: 2
#     Edge 31, Type (0, 0), BuildingBlock: ZUJKAS_clean_linker_0, # of connection points: 2
#     Edge 32, Type (0, 0), BuildingBlock: ZUJKAS_clean_linker_0, # of connection points: 2
#     Edge 33, Type (0, 0), BuildingBlock: ZUJKAS_clean_linker_0, # of connection points: 2
#     Edge 34, Type (0, 0), BuildingBlock: ZUJKAS_clean_linker_0, # of connection points: 2
#     Edge 35, Type (0, 0), BuildingBlock: ZUJKAS_clean_linker_0, # of connection points: 2
#     Edge 36, Type (0, 0), BuildingBlock: ZUJKAS_clean_linker_0, # of connection points: 2
#     Edge 37, Type (0, 0), BuildingBlock: ZUJKAS_clean_linker_0, # of connection points: 2
#     Edge 38, Type (0, 0), BuildingBlock: ZUJKAS_clean_linker_0, # of connection points: 2
#     Edge 39, Type (0, 0), BuildingBlock: ZUJKAS_clean_linker_0, # of connection points: 2
#     Edge 40, Type (0, 0), BuildingBlock: ZUJKAS_clean_linker_0, # of connection points: 2
#     Edge 41, Type (0, 0), BuildingBlock: ZUJKAS_clean_linker_0, # of connection points: 2
#     Edge 42, Type (0, 0), BuildingBlock: ZUJKAS_clean_linker_0, # of connection points: 2
#     Edge 43, Type (0, 0), BuildingBlock: ZUJKAS_clean_linker_0, # of connection points: 2
#     Edge 44, Type (0, 0), BuildingBlock: ZUJKAS_clean_linker_0, # of connection points: 2
#     Edge 45, Type (0, 0), BuildingBlock: ZUJKAS_clean_linker_0, # of connection points: 2
#     Edge 46, Type (0, 0), BuildingBlock: ZUJKAS_clean_linker_0, # of connection points: 2
#     Edge 47, Type (0, 0), BuildingBlock: ZUJKAS_clean_linker_0, # of connection points: 2
#     Edge 48, Type (0, 0), BuildingBlock: ZUJKAS_clean_linker_0, # of connection points: 2
#     Edge 49, Type (0, 0), BuildingBlock: ZUJKAS_clean_linker_0, # of connection points: 2
#     Edge 50, Type (0, 0), BuildingBlock: ZUJKAS_clean_linker_0, # of connection points: 2
#     Edge 51, Type (0, 0), BuildingBlock: ZUJKAS_clean_linker_0, # of connection points: 2
#     Edge 52, Type (0, 0), BuildingBlock: ZUJKAS_clean_linker_0, # of connection points: 2
#     Edge 53, Type (0, 0), BuildingBlock: ZUJKAS_clean_linker_0, # of connection points: 2
# Relax obj value: 0.347
# Max RMSD: 0.226
# Mean RMSD: 0.222
data_MOF--net-une--node1-UXUYUI_clean_sbu_0--edge1-ZUJKAS_clean_linker_0
_symmetry_space_group_name_H-M    P1
_symmetry_Int_Tables_number       1
_symmetry_cell_setting            triclinic
loop_
_symmetry_equiv_pos_as_xyz
'x, y, z'
_cell_length_a     66.095282
_cell_length_b     66.029204
_cell_length_c     94.387792
_cell_angle_alpha  89.923461
_cell_angle_beta   89.967689
_cell_angle_gamma 120.02029
loop_
_atom_site_label
_atom_site_type_symbol
_atom_site_fract_x
_atom_site_fract_y
_atom_site_fract_z
_atom_type_partial_charge
Li0 Li 0.34225 0.04855 0.05304 0.0
Li1 Li 0.34975 0.05146 0.07815 0.0
Li2 Li 0.36712 0.0337 0.06297 0.0
Li3 Li 0.32593 0.01403 0.06885 0.0
C4 C 0.38989 0.07942 0.05277 0.0
N5 N 0.42408 0.10541 0.03302 0.0
C6 C 0.40723 0.10231 0.05588 0.0
C7 C 0.38986 0.06978 0.03958 0.0
C8 C 0.42438 0.11515 0.04576 0.0
C9 C 0.40732 0.08319 0.02975 0.0
C10 C 0.30856 0.04869 0.07693 0.0
C11 C 0.28823 0.04747 0.09845 0.0
N12 N 0.28907 0.06773 0.09461 0.0
C13 C 0.30886 0.0693 0.0731 0.0
C14 C 0.29788 0.03753 0.08963 0.0
C15 C 0.29905 0.07872 0.08222 0.0
C16 C 0.33272 0.05551 0.02397 0.0
N17 N 0.33929 0.06484 0.03715 0.0
C18 C 0.34488 0.10155 0.02898 0.0
C19 C 0.34577 0.08752 0.03973 0.0
C20 C 0.33747 0.09223 0.01537 0.0
C21 C 0.33155 0.06893 0.01288 0.0
H22 H 0.32864 0.03781 0.02192 0.0
H23 H 0.35191 0.09481 0.05015 0.0
C24 C 0.34816 0.06456 0.10685 0.0
N25 N 0.35432 0.07219 0.0933 0.0
C26 C 0.34719 0.07936 0.11707 0.0
C27 C 0.36011 0.10981 0.09933 0.0
C28 C 0.36083 0.09447 0.08948 0.0
C29 C 0.35259 0.10211 0.11323 0.0
H30 H 0.34277 0.04664 0.10953 0.0
H31 H 0.36538 0.09991 0.07857 0.0
C32 C 0.32435 0.00333 0.04027 0.0
N33 N 0.29069 0.9723 0.02179 0.0
C34 C 0.30239 0.0016 0.03967 0.0
C35 C 0.32921 0.98936 0.03139 0.0
C36 C 0.28561 0.98578 0.03028 0.0
C37 C 0.31196 0.97379 0.02213 0.0
C38 C 0.34595 0.00362 0.08978 0.0
C39 C 0.35716 0.99061 0.08791 0.0
C40 C 0.3277 0.99606 0.09957 0.0
C41 C 0.34949 0.96992 0.09558 0.0
C42 C 0.32052 0.97527 0.10703 0.0
N43 N 0.33145 0.96272 0.10489 0.0
C44 C 0.41504 0.04609 0.05818 0.0
C45 C 0.38566 0.00746 0.05244 0.0
C46 C 0.4321 0.0425 0.05179 0.0
N47 N 0.39225 0.02885 0.05797 0.0
C48 C 0.40208 0.00306 0.04607 0.0
C49 C 0.42556 0.02091 0.04533 0.0
H50 H 0.41986 0.06293 0.06272 0.0
H51 H 0.36743 0.99405 0.05258 0.0
C52 C 0.27784 0.97979 0.07181 0.0
N53 N 0.29985 0.98329 0.07061 0.0
C54 C 0.25857 0.95752 0.06971 0.0
C55 C 0.28506 0.94279 0.06587 0.0
C56 C 0.30376 0.96531 0.06797 0.0
C57 C 0.26211 0.93883 0.06623 0.0
H58 H 0.27521 0.99451 0.07335 0.0
H59 H 0.32144 0.96873 0.06659 0.0
O60 O 0.37291 0.06675 0.06258 0.0
O61 O 0.31879 0.03959 0.06836 0.0
O62 O 0.34068 0.01795 0.04986 0.0
O63 O 0.35313 0.02384 0.08226 0.0
H64 H 0.40742 0.11005 0.06602 0.0
H65 H 0.37656 0.05213 0.03694 0.0
H66 H 0.43794 0.13288 0.04803 0.0
H67 H 0.40754 0.07593 0.01952 0.0
H68 H 0.28014 0.03911 0.10837 0.0
H69 H 0.31667 0.07803 0.06325 0.0
H70 H 0.29724 0.02147 0.09272 0.0
H71 H 0.2994 0.09479 0.07944 0.0
H72 H 0.35027 0.11962 0.03129 0.0
H73 H 0.32585 0.06108 0.00252 0.0
H74 H 0.34112 0.07266 0.12764 0.0
H75 H 0.36477 0.12731 0.09598 0.0
H76 H 0.29829 0.0123 0.0464 0.0
H77 H 0.3461 0.9905 0.03162 0.0
H78 H 0.26852 0.9842 0.02977 0.0
H79 H 0.31548 0.96285 0.01522 0.0
H80 H 0.37164 0.99641 0.08064 0.0
H81 H 0.31905 0.00602 0.10133 0.0
H82 H 0.35792 0.95962 0.09416 0.0
H83 H 0.30627 0.96912 0.11454 0.0
H84 H 0.45007 0.05662 0.0516 0.0
H85 H 0.3962 0.98622 0.04114 0.0
H86 H 0.24122 0.95536 0.06982 0.0
H87 H 0.28856 0.92885 0.06331 0.0
Li88 Li 0.96493 0.33744 0.06719 0.0
Li89 Li 0.98621 0.31687 0.06824 0.0
Li90 Li 0.94883 0.29854 0.05675 0.0
Li91 Li 0.95256 0.30251 0.08307 0.0
C92 C 0.97353 0.33592 0.0388 0.0
N93 N 0.96663 0.35376 0.01393 0.0
C94 C 0.99142 0.34623 0.02875 0.0
C95 C 0.95213 0.33473 0.0362 0.0
C96 C 0.98759 0.35512 0.01624 0.0
C97 C 0.94899 0.34384 0.02357 0.0
C98 C -0.00051 0.34308 0.09309 0.0
C99 C 0.01772 0.34116 0.1148 0.0
N100 N 0.03694 0.362 0.11155 0.0
C101 C 0.01932 0.36459 0.09004 0.0
C102 C 0.99857 0.33135 0.10563 0.0
C103 C 0.03811 0.37382 0.09948 0.0
C104 C 0.94929 0.37017 0.06219 0.0
N105 N 0.96808 0.36712 0.06348 0.0
C106 C 0.99313 0.40449 0.05308 0.0
C107 C 0.98975 0.38388 0.05931 0.0
C108 C 0.97393 0.40778 0.05097 0.0
C109 C 0.95186 0.39055 0.05593 0.0
H110 H 0.93214 0.35623 0.06519 0.0
H111 H 0.00413 0.3805 0.05987 0.0
C112 C 0.02007 0.31697 0.05163 0.0
N113 N 0.01663 0.32069 0.06535 0.0
C114 C 0.04111 0.31889 0.04738 0.0
C115 C 0.05478 0.32791 0.07154 0.0
C116 C 0.03335 0.32577 0.07535 0.0
C117 C 0.05893 0.32468 0.05735 0.0
H118 H 0.00626 0.31223 0.04398 0.0
H119 H 0.03006 0.32779 0.08629 0.0
C120 C 0.90994 0.29402 0.07261 0.0
N121 N 0.86391 0.26177 0.07877 0.0
C122 C 0.90266 0.27017 0.07338 0.0
C123 C 0.89381 0.30145 0.07505 0.0
C124 C 0.87932 0.25416 0.07649 0.0
C125 C 0.87061 0.28487 0.07811 0.0
C126 C 0.97328 0.27266 0.07143 0.0
C127 C 0.97233 0.25744 0.06084 0.0
C128 C 0.9874 0.27651 0.0833 0.0
C129 C 0.98595 0.24679 0.06213 0.0
C130 C 0.00076 0.26555 0.08421 0.0
N131 N -0.0002 0.25107 0.07368 0.0
C132 C 0.94203 0.27216 0.03203 0.0
C133 C 0.90912 0.27538 0.03849 0.0
C134 C 0.92975 0.2575 0.02073 0.0
N135 N 0.93132 0.28003 0.04095 0.0
C136 C 0.89621 0.26082 0.02735 0.0
C137 C 0.90632 0.25122 0.0185 0.0
H138 H 0.96009 0.27712 0.03379 0.0
H139 H 0.90133 0.2829 0.04514 0.0
C140 C 0.92411 0.294 0.10769 0.0
N141 N 0.93676 0.28676 0.10003 0.0
C142 C 0.90976 0.28015 0.11879 0.0
C143 C 0.92248 0.25226 0.11417 0.0
C144 C 0.93621 0.26638 0.10309 0.0
C145 C 0.90875 0.25889 0.12205 0.0
H146 H 0.92446 0.31005 0.10482 0.0
H147 H 0.94562 0.2605 0.09656 0.0
O148 O 0.97727 0.32758 0.05123 0.0
O149 O 0.98074 0.33394 0.08414 0.0
O150 O 0.93288 0.31013 0.07004 0.0
O151 O 0.96033 0.28356 0.07027 0.0
H152 H 0.00816 0.34746 0.03064 0.0
H153 H 0.93815 0.32705 0.0439 0.0
H154 H 0.00129 0.36316 0.00838 0.0
H155 H 0.93254 0.34309 0.02145 0.0
H156 H 0.01729 0.33222 0.1245 0.0
H157 H 0.02028 0.37399 0.08045 0.0
H158 H 0.98324 0.31486 0.10828 0.0
H159 H 0.05363 0.39037 0.0972 0.0
H160 H 0.01033 0.41699 0.04913 0.0
H161 H 0.93662 0.39243 0.05452 0.0
H162 H 0.04328 0.31558 0.03641 0.0
H163 H 0.06801 0.33226 0.07958 0.0
H164 H 0.91487 0.26406 0.07161 0.0
H165 H 0.89917 0.31983 0.07465 0.0
H166 H 0.87347 0.23567 0.07712 0.0
H167 H 0.85794 0.29038 0.08002 0.0
H168 H 0.96104 0.25365 0.05178 0.0
H169 H 0.98827 0.28811 0.09165 0.0
H170 H 0.98543 0.23505 0.05397 0.0
H171 H 0.01194 0.26861 0.09327 0.0
H172 H 0.93828 0.25064 0.01408 0.0
H173 H 0.87843 0.25703 0.02572 0.0
H174 H 0.89934 0.28581 0.12461 0.0
H175 H 0.9218 0.23576 0.11612 0.0
Li176 Li 0.67787 0.66812 0.06901 0.0
Li177 Li 0.68901 0.64352 0.08058 0.0
Li178 Li 0.69248 0.64738 0.0545 0.0
Li179 Li 0.65203 0.62708 0.06646 0.0
C180 C 0.73074 0.68909 0.0709 0.0
N181 N 0.77552 0.72621 0.07467 0.0
C182 C 0.73924 0.69699 0.08454 0.0
C183 C 0.74504 0.7001 0.05918 0.0
C184 C 0.76193 0.71576 0.08623 0.0
C185 C 0.76761 0.71884 0.0613 0.0
C186 C 0.65495 0.65801 0.09336 0.0
C187 C 0.62698 0.66637 0.10434 0.0
N188 N 0.64475 0.6852 0.11089 0.0
C189 C 0.6729 0.67727 0.10034 0.0
C190 C 0.63177 0.65235 0.09547 0.0
C191 C 0.66741 0.69087 0.1091 0.0
C192 C 0.65652 0.69605 0.06912 0.0
N193 N 0.67759 0.69705 0.06947 0.0
C194 C 0.69747 0.73833 0.06561 0.0
C195 C 0.69789 0.71776 0.0682 0.0
C196 C 0.67595 0.73756 0.06433 0.0
C197 C 0.65529 0.71624 0.06661 0.0
H198 H 0.64061 0.67932 0.06987 0.0
H199 H 0.71441 0.71826 0.06839 0.0
C200 C 0.72574 0.64027 0.09166 0.0
N201 N 0.70615 0.64052 0.09572 0.0
C202 C 0.74184 0.64181 0.10172 0.0
C203 C 0.71706 0.64328 0.12007 0.0
C204 C 0.70129 0.64157 0.1096 0.0
C205 C 0.73794 0.64398 0.11613 0.0
H206 H 0.7293 0.63984 0.08052 0.0
H207 H 0.68572 0.6421 0.11249 0.0
C208 C 0.66276 0.66656 0.0427 0.0
N209 N 0.65921 0.69992 0.02692 0.0
C210 C 0.64083 0.66396 0.03986 0.0
C211 C 0.68286 0.68597 0.03736 0.0
C212 C 0.63941 0.68105 0.03188 0.0
C213 C 0.68071 0.70269 0.02946 0.0
C214 C 0.67772 0.60028 0.07281 0.0
C215 C 0.69421 0.59391 0.06901 0.0
C216 C 0.66232 0.5888 0.08401 0.0
C217 C 0.69511 0.57618 0.07657 0.0
C218 C 0.66378 0.57116 0.09131 0.0
N219 N 0.68002 0.56527 0.08747 0.0
C220 C 0.72967 0.64612 0.04195 0.0
C221 C 0.70343 0.64748 0.02535 0.0
C222 C 0.74354 0.6455 0.03104 0.0
N223 N 0.71009 0.64708 0.03892 0.0
C224 C 0.71693 0.64707 0.01407 0.0
C225 C 0.7372 0.64594 0.01689 0.0
H226 H 0.73449 0.64592 0.05288 0.0
H227 H 0.68762 0.64803 0.02329 0.0
C228 C 0.60359 0.60776 0.0624 0.0
N229 N 0.62127 0.60289 0.06251 0.0
C230 C 0.58225 0.59225 0.05608 0.0
C231 C 0.59748 0.56662 0.05065 0.0
C232 C 0.61848 0.58259 0.05709 0.0
C233 C 0.57926 0.57172 0.04966 0.0
H234 H 0.60656 0.62437 0.06638 0.0
H235 H 0.63308 0.57952 0.05691 0.0
O236 O 0.70862 0.67065 0.06896 0.0
O237 O 0.66 0.64462 0.08462 0.0
O238 O 0.66462 0.65048 0.05091 0.0
O239 O 0.67687 0.61794 0.06577 0.0
H240 H 0.72853 0.68873 0.09375 0.0
H241 H 0.73874 0.69432 0.04854 0.0
H242 H 0.76873 0.72201 0.09672 0.0
H243 H 0.77884 0.72753 0.05232 0.0
H244 H 0.60913 0.66227 0.10601 0.0
H245 H 0.69089 0.6818 0.09886 0.0
H246 H 0.61763 0.6373 0.09033 0.0
H247 H 0.68116 0.70595 0.11447 0.0
H248 H 0.71379 0.7545 0.06401 0.0
H249 H 0.63834 0.71488 0.06552 0.0
H250 H 0.75747 0.64187 0.0982 0.0
H251 H 0.71345 0.64511 0.13104 0.0
H252 H 0.62511 0.64905 0.04389 0.0
H253 H 0.69996 0.68828 0.03953 0.0
H254 H 0.62257 0.67935 0.02969 0.0
H255 H 0.69613 0.71793 0.02541 0.0
H256 H 0.70624 0.60264 0.06036 0.0
H257 H 0.64952 0.59363 0.0871 0.0
H258 H 0.70783 0.5711 0.07378 0.0
H259 H 0.65205 0.56217 0.10004 0.0
H260 H 0.75925 0.64502 0.03366 0.0
H261 H 0.71144 0.64733 0.0033 0.0
H262 H 0.56863 0.59679 0.05568 0.0
H263 H 0.59617 0.55126 0.04564 0.0
Li264 Li 0.63078 0.96641 0.93493 0.0
Li265 Li 0.67257 0.98921 0.93126 0.0
Li266 Li 0.652 0.9543 0.91649 0.0
Li267 Li 0.65735 0.95208 0.94176 0.0
C268 C 0.65695 0.00301 0.90977 0.0
N269 N 0.67751 0.04542 0.89571 0.0
C270 C 0.64939 0.01901 0.91235 0.0
C271 C 0.67485 0.0085 0.89999 0.0
C272 C 0.66003 0.04038 0.90514 0.0
C273 C 0.68506 0.03006 0.89301 0.0
C274 C 0.66443 0.99673 0.95848 0.0
C275 C 0.69369 0.02086 0.9756 0.0
N276 N 0.68344 0.03421 0.97692 0.0
C277 C 0.65401 0.01051 0.96014 0.0
C278 C 0.68426 0.00175 0.9664 0.0
C279 C 0.66394 0.02944 0.96948 0.0
C280 C 0.59791 0.95996 0.95471 0.0
N281 N 0.60363 0.96662 0.941 0.0
C282 C 0.57414 0.97739 0.93947 0.0
C283 C 0.59199 0.97489 0.93322 0.0
C284 C 0.56825 0.97111 0.95376 0.0
C285 C 0.58016 0.96195 0.96131 0.0
H286 H 0.6079 0.95401 0.96071 0.0
H287 H 0.597 0.98017 0.92234 0.0
C288 C 0.72015 0.02448 0.92917 0.0
N289 N 0.69824 0.02067 0.93159 0.0
C290 C 0.73957 0.04648 0.93164 0.0
C291 C 0.71345 0.06075 0.93781 0.0
C292 C 0.69458 0.03848 0.93527 0.0
C293 C 0.73633 0.06475 0.93651 0.0
H294 H 0.72262 0.01023 0.92586 0.0
H295 H 0.67702 0.03524 0.93676 0.0
C296 C 0.61885 0.9126 0.93548 0.0
N297 N 0.60236 0.86772 0.94558 0.0
C298 C 0.62572 0.89793 0.92905 0.0
C299 C 0.6035 0.9044 0.94701 0.0
C300 C 0.61718 0.87529 0.93431 0.0
C301 C 0.59541 0.88168 0.95198 0.0
C302 C 0.69772 0.9594 0.93038 0.0
C303 C 0.69928 0.9421 0.92274 0.0
C304 C 0.71278 0.97025 0.94179 0.0
C305 C 0.71578 0.93584 0.92672 0.0
C306 C 0.72901 0.96347 0.94545 0.0
N307 N 0.73016 0.94655 0.93791 0.0
C308 C 0.67072 0.94698 0.89176 0.0
C309 C 0.63005 0.92109 0.89456 0.0
C310 C 0.67156 0.93379 0.88049 0.0
N311 N 0.65037 0.93995 0.89884 0.0
C312 C 0.63005 0.90742 0.88327 0.0
C313 C 0.65119 0.91323 0.87642 0.0
H314 H 0.68665 0.96194 0.8955 0.0
H315 H 0.61413 0.9159 0.90043 0.0
C316 C 0.65475 0.93677 0.96982 0.0
N317 N 0.6604 0.93373 0.95644 0.0
C318 C 0.655 0.92293 0.98094 0.0
C319 C 0.66703 0.90315 0.96434 0.0
C320 C 0.66632 0.91719 0.95355 0.0
C321 C 0.66111 0.90574 0.97826 0.0
H322 H 0.64949 0.94959 0.97181 0.0
H323 H 0.66991 0.91441 0.94282 0.0
O324 O 0.64701 0.98215 0.91686 0.0
O325 O 0.65505 0.9782 0.94932 0.0
O326 O 0.62739 0.93497 0.93066 0.0
O327 O 0.68175 0.96589 0.92661 0.0
H328 H 0.63572 0.01514 0.91999 0.0
H329 H 0.68095 0.99635 0.89794 0.0
H330 H 0.65447 0.053 0.90709 0.0
H331 H 0.69902 0.0346 0.88547 0.0
H332 H 0.70912 0.02503 0.98172 0.0
H333 H 0.63869 0.00694 0.95409 0.0
H334 H 0.69222 0.99096 0.96551 0.0
H335 H 0.6562 0.0404 0.97075 0.0
H336 H 0.56529 0.98445 0.93328 0.0
H337 H 0.57654 0.95734 0.97241 0.0
H338 H 0.75689 0.04876 0.93049 0.0
H339 H 0.71015 0.07449 0.94124 0.0
H340 H 0.63791 0.90409 0.92028 0.0
H341 H 0.598 0.91548 0.95212 0.0
H342 H 0.62249 0.86382 0.92949 0.0
H343 H 0.58362 0.87515 0.96094 0.0
H344 H 0.6876 0.93323 0.91402 0.0
H345 H 0.71199 0.9838 0.94773 0.0
H346 H 0.71705 0.92237 0.92096 0.0
H347 H 0.74072 0.9717 0.95429 0.0
H348 H 0.6883 0.93885 0.87566 0.0
H349 H 0.61385 0.89197 0.88033 0.0
H350 H 0.64988 0.92528 0.99143 0.0
H351 H 0.67208 0.89032 0.96175 0.0
Li352 Li 0.04191 0.70106 0.92098 0.0
Li353 Li 0.04202 0.70878 0.94657 0.0
Li354 Li 0.02943 0.66889 0.93968 0.0
Li355 Li 0.00612 0.6864 0.93417 0.0
C356 C 0.08244 0.71138 0.9414 0.0
N357 N 0.12606 0.74161 0.95246 0.0
C358 C 0.09696 0.73284 0.93479 0.0
C359 C 0.09017 0.70523 0.95357 0.0
C360 C 0.11895 0.74788 0.94055 0.0
C361 C 0.11225 0.72078 0.95903 0.0
C362 C 0.01736 0.7305 0.93074 0.0
C363 C 0.00288 0.75327 0.94237 0.0
N364 N 0.98963 0.75091 0.93079 0.0
C365 C 0.00368 0.72842 0.91893 0.0
C366 C 0.01701 0.7431 0.94255 0.0
C367 C 0.98974 0.7388 0.91918 0.0
C368 C 0.05673 0.73321 0.89893 0.0
N369 N 0.05892 0.71519 0.90409 0.0
C370 C 0.08892 0.72289 0.88719 0.0
C371 C 0.07446 0.70966 0.89843 0.0
C372 C 0.08716 0.7418 0.88177 0.0
C373 C 0.07056 0.74665 0.88768 0.0
H374 H 0.04476 0.73767 0.90386 0.0
H375 H 0.07618 0.69553 0.90295 0.0
C376 C 0.05741 0.72232 0.97442 0.0
N377 N 0.0588 0.73055 0.96104 0.0
C378 C 0.07099 0.73742 0.98521 0.0
C379 C 0.08709 0.76916 0.96822 0.0
C380 C 0.07307 0.75347 0.95778 0.0
C381 C 0.08628 0.76111 0.98211 0.0
H382 H 0.04622 0.70388 0.97659 0.0
H383 H 0.07389 0.75942 0.947 0.0
C384 C -0.00025 0.65866 0.90979 0.0
N385 N 0.96974 0.63929 0.88707 0.0
C386 C 0.98384 0.63462 0.90943 0.0
C387 C 0.00051 0.67279 0.89852 0.0
C388 C 0.96877 0.62518 0.89788 0.0
C389 C 0.98517 0.66268 0.88715 0.0
C390 C 0.99591 0.66177 0.95961 0.0
C391 C 0.98098 0.64182 0.95183 0.0
C392 C 0.99159 0.6628 0.97401 0.0
C393 C 0.96202 0.62314 0.9586 0.0
C394 C 0.97244 0.64376 0.98041 0.0
N395 N 0.95817 0.62448 0.97263 0.0
C396 C 0.03462 0.6427 0.96041 0.0
C397 C 0.02118 0.62163 0.93889 0.0
C398 C 0.03192 0.62292 0.9674 0.0
N399 N 0.02904 0.64166 0.94648 0.0
C400 C 0.01811 0.60128 0.94551 0.0
C401 C 0.02325 0.60174 0.96002 0.0
H402 H 0.04022 0.65872 0.96624 0.0
H403 H 0.01663 0.62126 0.92786 0.0
C404 C 0.9579 0.66952 0.9244 0.0
N405 N 0.97466 0.68081 0.93443 0.0
C406 C 0.93567 0.66688 0.92613 0.0
C407 C 0.94853 0.68778 0.94829 0.0
C408 C 0.97024 0.68968 0.94625 0.0
C409 C 0.93092 0.67626 0.93816 0.0
H410 H 0.96154 0.66251 0.91509 0.0
H411 H 0.98373 0.69836 0.95414 0.0
O412 O 0.06057 0.69673 0.93617 0.0
O413 O 0.03078 0.72004 0.93083 0.0
O414 O 0.01481 0.66816 0.92095 0.0
O415 O 0.01461 0.68034 0.95322 0.0
H416 H 0.09119 0.73801 0.92545 0.0
H417 H 0.07917 0.68872 0.95884 0.0
H418 H 0.1303 0.76461 0.9356 0.0
H419 H 0.11839 0.71632 0.9685 0.0
H420 H 0.00235 0.76295 0.95146 0.0
H421 H 0.00347 0.71855 0.90975 0.0
H422 H 0.02724 0.74472 0.95184 0.0
H423 H 0.97893 0.73715 0.91016 0.0
H424 H 0.10154 0.71861 0.88293 0.0
H425 H 0.06895 0.76136 0.88406 0.0
H426 H 0.07012 0.73048 0.99574 0.0
H427 H 0.09854 0.78735 0.96544 0.0
H428 H 0.98309 0.62334 0.91799 0.0
H429 H 0.01267 0.69135 0.89857 0.0
H430 H 0.95633 0.60663 0.89749 0.0
H431 H 0.98551 0.67344 0.8784 0.0
H432 H 0.98397 0.64077 0.94069 0.0
H433 H 0.0029 0.67818 0.98018 0.0
H434 H 0.95035 0.60758 0.95269 0.0
H435 H 0.96889 0.64432 0.99155 0.0
H436 H 0.03563 0.624 0.97863 0.0
H437 H 0.01148 0.58532 0.93942 0.0
H438 H 0.92242 0.65777 0.91813 0.0
H439 H 0.9454 0.69482 0.95787 0.0
Li440 Li 0.29486 0.3397 0.94155 0.0
Li441 Li 0.31254 0.3232 0.92736 0.0
Li442 Li 0.33354 0.36558 0.93195 0.0
Li443 Li 0.29627 0.34612 0.91634 0.0
C444 C 0.33051 0.33628 0.95833 0.0
N445 N 0.34363 0.32936 0.98491 0.0
C446 C 0.32482 0.31381 0.96275 0.0
C447 C 0.34311 0.35525 0.96741 0.0
C448 C 0.33154 0.31067 0.97623 0.0
C449 C 0.34952 0.35139 0.98081 0.0
C450 C 0.26011 0.29871 0.93262 0.0
C451 C 0.21815 0.277 0.93509 0.0
N452 N 0.22029 0.26486 0.94608 0.0
C453 C 0.26185 0.28583 0.94383 0.0
C454 C 0.23807 0.29412 0.92811 0.0
C455 C 0.24154 0.26887 0.95054 0.0
C456 C 0.25533 0.33668 0.95394 0.0
N457 N 0.27447 0.33505 0.95724 0.0
C458 C 0.26286 0.32801 0.98158 0.0
C459 C 0.27838 0.33062 0.97074 0.0
C460 C 0.24311 0.32994 0.97847 0.0
C461 C 0.23943 0.33428 0.96441 0.0
H462 H 0.25254 0.34007 0.94311 0.0
H463 H 0.29344 0.32907 0.97321 0.0
C464 C 0.33831 0.30033 0.9299 0.0
N465 N 0.31746 0.29742 0.92551 0.0
C466 C 0.34142 0.28104 0.93129 0.0
C467 C 0.30201 0.25636 0.92275 0.0
C468 C 0.29967 0.27616 0.92152 0.0
C469 C 0.32284 0.25857 0.92815 0.0
H470 H 0.35204 0.31746 0.93313 0.0
H471 H 0.2833 0.27443 0.91803 0.0
C472 C 0.29986 0.38297 0.94011 0.0
N473 N 0.28717 0.40825 0.95766 0.0
C474 C 0.28391 0.38956 0.93545 0.0
C475 C 0.3096 0.38954 0.95363 0.0
C476 C 0.27766 0.40227 0.94449 0.0
C477 C 0.30289 0.40222 0.96237 0.0
C478 C 0.33749 0.33957 0.90457 0.0
C479 C 0.36107 0.3462 0.90576 0.0
C480 C 0.32318 0.32192 0.8951 0.0
C481 C 0.36997 0.33493 0.89747 0.0
C482 C 0.33274 0.31105 0.887 0.0
N483 N 0.35573 0.31772 0.88835 0.0
C484 C 0.37995 0.38786 0.94074 0.0
C485 C 0.36507 0.41354 0.93719 0.0
C486 C 0.3998 0.40554 0.94738 0.0
N487 N 0.36281 0.39197 0.93625 0.0
C488 C 0.38469 0.43178 0.9437 0.0
C489 C 0.402 0.42766 0.94937 0.0
H490 H 0.37741 0.37038 0.9401 0.0
H491 H 0.35105 0.41623 0.93361 0.0
C492 C 0.25873 0.34739 0.90455 0.0
N493 N 0.27948 0.34919 0.90102 0.0
C494 C 0.24404 0.34771 0.89409 0.0
C495 C 0.27255 0.35221 0.87646 0.0
C496 C 0.28675 0.35177 0.88733 0.0
C497 C 0.25076 0.34997 0.87979 0.0
H498 H 0.25339 0.34522 0.91554 0.0
H499 H 0.30337 0.35317 0.88483 0.0
O500 O 0.32423 0.33975 0.94511 0.0
O501 O 0.27988 0.31581 0.92617 0.0
O502 O 0.3059 0.37016 0.93151 0.0
O503 O 0.32829 0.3499 0.91288 0.0
H504 H 0.31536 0.29891 0.95588 0.0
H505 H 0.34797 0.37281 0.96419 0.0
H506 H 0.32719 0.29336 0.97978 0.0
H507 H 0.35921 0.36591 0.98793 0.0
H508 H 0.201 0.27336 0.93176 0.0
H509 H 0.27872 0.2891 0.9474 0.0
H510 H 0.23631 0.30364 0.91933 0.0
H511 H 0.24268 0.25893 0.95931 0.0
H512 H 0.26619 0.32436 0.99224 0.0
H513 H 0.22464 0.33624 0.96154 0.0
H514 H 0.35765 0.28355 0.93568 0.0
H515 H 0.28735 0.23939 0.92005 0.0
H516 H 0.27645 0.38497 0.92495 0.0
H517 H 0.32198 0.38465 0.95738 0.0
H518 H 0.26525 0.40739 0.94104 0.0
H519 H 0.31016 0.40723 0.97289 0.0
H520 H 0.37233 0.3598 0.91308 0.0
H521 H 0.30482 0.31644 0.89417 0.0
H522 H 0.38817 0.3398 0.89831 0.0
H523 H 0.32186 0.29726 0.87968 0.0
H524 H 0.41247 0.40142 0.95173 0.0
H525 H 0.38584 0.44864 0.9448 0.0
H526 H 0.22728 0.34553 0.89718 0.0
H527 H 0.27855 0.35422 0.8656 0.0
Li528 Li 0.01784 0.38585 0.39135 0.0
Li529 Li 0.01751 0.38282 0.41754 0.0
Li530 Li 0.04061 0.3707 0.40213 0.0
Li531 Li 0.99869 0.34758 0.40309 0.0
C532 C 0.05481 0.4249 0.4 0.0
N533 N 0.07396 0.47015 0.38991 0.0
C534 C 0.05227 0.44159 0.40768 0.0
C535 C 0.06721 0.43128 0.38722 0.0
C536 C 0.06208 0.46436 0.4024 0.0
C537 C 0.07669 0.45422 0.38228 0.0
C538 C 0.96742 0.3612 0.40165 0.0
C539 C 0.92755 0.33556 0.40903 0.0
N540 N 0.92021 0.33564 0.39558 0.0
C541 C 0.95944 0.36108 0.38791 0.0
C542 C 0.95132 0.3484 0.41231 0.0
C543 C 0.93552 0.34804 0.38506 0.0
C544 C 0.01715 0.39825 0.36255 0.0
N545 N 0.01574 0.4038 0.37624 0.0
C546 C 0.0107 0.4356 0.36888 0.0
C547 C 0.01219 0.42179 0.37956 0.0
C548 C 0.01251 0.43057 0.35463 0.0
C549 C 0.01563 0.41151 0.35151 0.0
H550 H 0.01925 0.38342 0.36018 0.0
H551 H 0.01047 0.42537 0.39053 0.0
C552 C 0.03453 0.40881 0.4433 0.0
N553 N 0.01616 0.39821 0.43424 0.0
C554 C 0.03354 0.42163 0.45481 0.0
C555 C 0.99455 0.41171 0.4476 0.0
C556 C 0.99643 0.39944 0.43617 0.0
C557 C 0.01334 0.42321 0.45702 0.0
H558 H 0.05012 0.40775 0.44139 0.0
H559 H 0.98228 0.39124 0.42865 0.0
C560 C 0.02857 0.34863 0.37738 0.0
N561 N 0.04965 0.33046 0.36032 0.0
C562 C 0.0211 0.32472 0.37781 0.0
C563 C 0.04681 0.36327 0.36828 0.0
C564 C 0.03195 0.31588 0.36909 0.0
C565 C 0.05725 0.35376 0.35976 0.0
C566 C 0.01121 0.33944 0.43032 0.0
C567 C 0.01825 0.32323 0.43356 0.0
C568 C 0.99447 0.34059 0.43881 0.0
C569 C 0.00826 0.30828 0.44516 0.0
C570 C 0.98492 0.32538 0.45033 0.0
N571 N 0.99194 0.30966 0.45323 0.0
C572 C 0.08775 0.38613 0.39424 0.0
C573 C 0.0646 0.34606 0.40034 0.0
C574 C 0.10479 0.3821 0.3883 0.0
N575 N 0.06774 0.36799 0.39955 0.0
C576 C 0.08112 0.34123 0.39451 0.0
C577 C 0.10103 0.35919 0.38783 0.0
H578 H 0.08975 0.40337 0.39368 0.0
H579 H 0.04832 0.3319 0.40435 0.0
C580 C 0.96474 0.31288 0.38696 0.0
N581 N 0.97262 0.31677 0.40053 0.0
C582 C 0.94646 0.29114 0.38292 0.0
C583 C 0.9441 0.27761 0.40699 0.0
C584 C 0.96259 0.29974 0.41057 0.0
C585 C 0.93609 0.27306 0.39294 0.0
H586 H 0.97292 0.32672 0.37918 0.0
H587 H 0.96894 0.30306 0.4213 0.0
O588 O 0.04505 0.40242 0.4049 0.0
O589 O 0.99086 0.37338 0.40457 0.0
O590 O 0.01832 0.35768 0.38596 0.0
O591 O 0.02102 0.35434 0.41907 0.0
H592 H 0.04268 0.43701 0.41755 0.0
H593 H 0.0691 0.41856 0.38103 0.0
H594 H 0.06017 0.47742 0.40821 0.0
H595 H 0.08615 0.45933 0.37235 0.0
H596 H 0.91494 0.32548 0.41717 0.0
H597 H 0.97154 0.37064 0.37947 0.0
H598 H 0.95707 0.34818 0.42299 0.0
H599 H 0.92915 0.3477 0.37446 0.0
H600 H 0.00778 0.44981 0.37174 0.0
H601 H 0.01707 0.40703 0.34067 0.0
H602 H 0.04839 0.4303 0.46186 0.0
H603 H 0.97884 0.41284 0.44879 0.0
H604 H 0.00734 0.31315 0.38495 0.0
H605 H 0.0531 0.38185 0.36795 0.0
H606 H 0.0264 0.29745 0.36936 0.0
H607 H 0.07149 0.36493 0.35276 0.0
H608 H 0.03132 0.32218 0.42722 0.0
H609 H 0.98871 0.35287 0.43647 0.0
H610 H 0.01352 0.29562 0.44776 0.0
H611 H 0.97188 0.32603 0.45693 0.0
H612 H 0.11985 0.39643 0.38321 0.0
H613 H 0.07769 0.32339 0.39453 0.0
H614 H 0.94051 0.28851 0.37203 0.0
H615 H 0.93655 0.26409 0.41502 0.0
Li616 Li 0.63704 0.66678 0.40018 0.0
Li617 Li 0.6595 0.64767 0.40324 0.0
Li618 Li 0.62251 0.62839 0.39033 0.0
Li619 Li 0.62305 0.63213 0.4166 0.0
C620 C 0.66196 0.67592 0.37656 0.0
N621 N 0.68322 0.71538 0.35963 0.0
C622 C 0.68599 0.69146 0.37766 0.0
C623 C 0.64878 0.68041 0.3668 0.0
C624 C 0.6964 0.71129 0.369 0.0
C625 C 0.65984 0.70049 0.35836 0.0
C626 C 0.66666 0.67064 0.42935 0.0
C627 C 0.67987 0.66145 0.45097 0.0
N628 N 0.697 0.68421 0.45209 0.0
C629 C 0.68432 0.69397 0.43076 0.0
C630 C 0.66433 0.65426 0.43957 0.0
C631 C 0.69952 0.70047 0.44231 0.0
C632 C 0.62037 0.69656 0.39104 0.0
N633 N 0.63927 0.69622 0.39641 0.0
C634 C 0.66422 0.73629 0.39005 0.0
C635 C 0.66073 0.71579 0.39657 0.0
C636 C 0.6454 0.73653 0.38331 0.0
C637 C 0.62306 0.71664 0.38437 0.0
H638 H 0.60348 0.68084 0.39115 0.0
H639 H 0.67553 0.71491 0.40067 0.0
C640 C 0.69325 0.64302 0.38964 0.0
N641 N 0.68984 0.65073 0.40227 0.0
C642 C 0.71358 0.64226 0.38712 0.0
C643 C 0.72742 0.65865 0.41037 0.0
C644 C 0.70644 0.65859 0.41259 0.0
C645 C 0.73087 0.65006 0.39757 0.0
H646 H 0.67989 0.63709 0.38157 0.0
H647 H 0.70352 0.6646 0.42256 0.0
C648 C 0.58301 0.62672 0.39694 0.0
N649 N 0.53894 0.59984 0.38546 0.0
C650 C 0.56565 0.60777 0.40452 0.0
C651 C 0.57789 0.63206 0.38354 0.0
C652 C 0.54349 0.5944 0.39854 0.0
C653 C 0.55553 0.61822 0.37791 0.0
C654 C 0.64468 0.60193 0.404 0.0
C655 C 0.64483 0.5911 0.39131 0.0
C656 C 0.65671 0.60037 0.41576 0.0
C657 C 0.65723 0.57912 0.39055 0.0
C658 C 0.66894 0.58826 0.41456 0.0
N659 N 0.66896 0.57799 0.40208 0.0
C660 C 0.61072 0.61441 0.36158 0.0
C661 C 0.58798 0.58605 0.37894 0.0
C662 C 0.59716 0.59937 0.35074 0.0
N663 N 0.60562 0.60766 0.37534 0.0
C664 C 0.57393 0.57051 0.36847 0.0
C665 C 0.57826 0.57723 0.35416 0.0
H666 H 0.62514 0.63152 0.35902 0.0
H667 H 0.58464 0.58105 0.38998 0.0
C668 C 0.59523 0.62418 0.4416 0.0
N669 N 0.6059 0.61583 0.433 0.0
C670 C 0.58074 0.61027 0.45263 0.0
C671 C 0.58914 0.57991 0.4459 0.0
C672 C 0.6032 0.59423 0.43499 0.0
C673 C 0.57745 0.58773 0.4548 0.0
H674 H 0.59746 0.64132 0.43963 0.0
H675 H 0.61144 0.58781 0.42782 0.0
O676 O 0.65136 0.65661 0.38514 0.0
O677 O 0.65149 0.66406 0.41818 0.0
O678 O 0.60497 0.63973 0.4025 0.0
O679 O 0.63315 0.61428 0.40485 0.0
H680 H 0.69645 0.68843 0.38525 0.0
H681 H 0.63013 0.66879 0.36593 0.0
H682 H 0.71495 0.72352 0.36979 0.0
H683 H 0.6498 0.70431 0.35088 0.0
H684 H 0.67831 0.64893 0.45891 0.0
H685 H 0.68632 0.70693 0.42303 0.0
H686 H 0.65081 0.63618 0.4387 0.0
H687 H 0.7133 0.71845 0.44351 0.0
H688 H 0.68176 0.75115 0.38938 0.0
H689 H 0.60804 0.71626 0.37951 0.0
H690 H 0.71588 0.63583 0.37704 0.0
H691 H 0.74057 0.6649 0.41861 0.0
H692 H 0.56925 0.60328 0.41487 0.0
H693 H 0.59117 0.64641 0.37741 0.0
H694 H 0.52993 0.57964 0.40428 0.0
H695 H 0.55142 0.62203 0.3675 0.0
H696 H 0.63577 0.59221 0.38207 0.0
H697 H 0.65686 0.60866 0.42565 0.0
H698 H 0.65762 0.57081 0.38077 0.0
H699 H 0.67847 0.58709 0.42354 0.0
H700 H 0.60107 0.60521 0.33984 0.0
H701 H 0.55983 0.55342 0.37155 0.0
H702 H 0.57204 0.61693 0.45928 0.0
H703 H 0.58674 0.56251 0.44701 0.0
Li704 Li 0.35153 0.00292 0.39693 0.0
Li705 Li 0.36827 0.98181 0.40677 0.0
Li706 Li 0.36751 0.98632 0.38102 0.0
Li707 Li 0.33009 0.96053 0.39397 0.0
C708 C 0.39827 0.03377 0.39763 0.0
N709 N 0.42621 0.08125 0.40221 0.0
C710 C 0.40976 0.04196 0.41058 0.0
C711 C 0.40114 0.04972 0.38697 0.0
C712 C 0.4238 0.06603 0.41269 0.0
C713 C 0.41527 0.07366 0.38951 0.0
C714 C 0.33109 0.98981 0.42133 0.0
C715 C 0.30247 -0.00048 0.42961 0.0
N716 N 0.31824 0.01465 0.43912 0.0
C717 C 0.347 0.00539 0.4312 0.0
C718 C 0.30862 0.98676 0.42054 0.0
C719 C 0.34016 0.01779 0.4401 0.0
C720 C 0.32799 0.02694 0.39077 0.0
N721 N 0.34578 0.02855 0.39883 0.0
C722 C 0.35585 0.0671 0.40621 0.0
C723 C 0.35894 0.0477 0.407 0.0
C724 C 0.33855 0.06637 0.39728 0.0
C725 C 0.32399 0.04571 0.38987 0.0
H726 H 0.31736 0.01133 0.38465 0.0
H727 H 0.3723 0.04828 0.41381 0.0
C728 C 0.41008 0.98793 0.4172 0.0
N729 N 0.38766 0.98046 0.42114 0.0
C730 C 0.42633 0.98927 0.42709 0.0
C731 C 0.39604 0.97481 0.44497 0.0
C732 C 0.38027 0.97361 0.43466 0.0
C733 C 0.41953 0.98307 0.44127 0.0
H734 H 0.41542 0.99329 0.40636 0.0
H735 H 0.36231 0.96774 0.43748 0.0
C736 C 0.33407 0.98672 0.36559 0.0
N737 N 0.32903 0.99003 0.33677 0.0
C738 C 0.32046 0.96655 0.35762 0.0
C739 C 0.34498 0.00857 0.35894 0.0
C740 C 0.31816 0.96859 0.34305 0.0
C741 C 0.34226 0.00988 0.34435 0.0
C742 C 0.36833 0.94474 0.396 0.0
C743 C 0.38929 0.94876 0.38988 0.0
C744 C 0.35843 0.9287 0.40711 0.0
C745 C 0.40009 0.9367 0.39507 0.0
C746 C 0.36979 0.91701 0.412 0.0
N747 N 0.39022 0.92123 0.40594 0.0
C748 C 0.40515 0.00808 0.36193 0.0
C749 C 0.37428 0.97136 0.3543 0.0
C750 C 0.41823 0.00981 0.34993 0.0
N751 N 0.38367 0.98906 0.36389 0.0
C752 C 0.38671 0.97241 0.34209 0.0
C753 C 0.40916 0.9917 0.33987 0.0
H754 H 0.4125 0.02156 0.36991 0.0
H755 H 0.35737 0.95617 0.35632 0.0
C756 C 0.28272 0.93821 0.38816 0.0
N757 N 0.30044 0.93399 0.39092 0.0
C758 C 0.2619 0.92078 0.38228 0.0
C759 C 0.27754 0.8946 0.38287 0.0
C760 C 0.29814 0.91261 0.3887 0.0
C761 C 0.25937 0.89883 0.37913 0.0
H762 H 0.28542 0.95565 0.38955 0.0
H763 H 0.31277 0.90996 0.39064 0.0
O764 O 0.38461 0.01026 0.39533 0.0
O765 O 0.33762 0.97789 0.41233 0.0
O766 O 0.33679 0.9851 0.37984 0.0
O767 O 0.35781 0.9568 0.39133 0.0
H768 H 0.40769 0.02991 0.41898 0.0
H769 H 0.39244 0.0437 0.37688 0.0
H770 H 0.4327 0.07262 0.42268 0.0
H771 H 0.41752 0.0862 0.38139 0.0
H772 H 0.28518 0.99743 0.42907 0.0
H773 H 0.36455 0.00816 0.43183 0.0
H774 H 0.29613 0.97479 0.41294 0.0
H775 H 0.35233 0.03002 0.44773 0.0
H776 H 0.36722 0.0827 0.4122 0.0
H777 H 0.31049 0.04454 0.38284 0.0
H778 H 0.44409 0.9953 0.42368 0.0
H779 H 0.39005 0.97001 0.45579 0.0
H780 H 0.31201 0.94948 0.36257 0.0
H781 H 0.35543 0.02435 0.36498 0.0
H782 H 0.30779 0.95313 0.33673 0.0
H783 H 0.35066 0.02667 0.33905 0.0
H784 H 0.39722 0.96121 0.38132 0.0
H785 H 0.34229 0.92555 0.41201 0.0
H786 H 0.41637 0.9397 0.39049 0.0
H787 H 0.36241 0.90465 0.42065 0.0
H788 H 0.43569 0.0247 0.3489 0.0
H789 H 0.379 0.95808 0.33462 0.0
H790 H 0.24862 0.92503 0.37934 0.0
H791 H 0.27626 0.87789 0.38075 0.0
Li792 Li 0.34213 0.32282 0.26637 0.0
Li793 Li 0.30112 0.29983 0.2729 0.0
Li794 Li 0.32841 0.28586 0.27748 0.0
Li795 Li 0.319 0.28717 0.25288 0.0
C796 C 0.34444 0.32476 0.29578 0.0
N797 N 0.37732 0.34862 0.31656 0.0
C798 C 0.33995 0.33677 0.30637 0.0
C799 C 0.36562 0.32486 0.29577 0.0
C800 C 0.3568 0.34873 0.31678 0.0
C801 C 0.38203 0.33702 0.30636 0.0
C802 C 0.32166 0.33704 0.24893 0.0
C803 C 0.34379 0.36761 0.23196 0.0
N804 N 0.33819 0.38204 0.23909 0.0
C805 C 0.31605 0.35213 0.25606 0.0
C806 C 0.33556 0.34478 0.23676 0.0
C807 C 0.3246 0.37483 0.25092 0.0
C808 C 0.38678 0.35956 0.25784 0.0
N809 N 0.36741 0.35406 0.26564 0.0
C810 C 0.38575 0.39222 0.27578 0.0
C811 C 0.36628 0.37006 0.27413 0.0
C812 C 0.40657 0.39801 0.26857 0.0
C813 C 0.40673 0.38159 0.25917 0.0
H814 H 0.38701 0.34655 0.25101 0.0
H815 H 0.35055 0.36524 0.28011 0.0
C816 C 0.27564 0.29979 0.29556 0.0
N817 N 0.27591 0.30146 0.28121 0.0
C818 C 0.26026 0.30373 0.30354 0.0
C819 C 0.24483 0.31008 0.28182 0.0
C820 C 0.26074 0.30614 0.27419 0.0
C821 C 0.24493 0.30943 0.29671 0.0
H822 H 0.28787 0.29597 0.30082 0.0
H823 H 0.26156 0.30762 0.26276 0.0
C824 C 0.36557 0.29123 0.25913 0.0
N825 N 0.39702 0.27582 0.25465 0.0
C826 C 0.35826 0.26954 0.25276 0.0
C827 C 0.38896 0.30513 0.26314 0.0
C828 C 0.37441 0.26206 0.2506 0.0
C829 C 0.40455 0.297 0.26083 0.0
C830 C 0.28718 0.24706 0.27504 0.0
C831 C 0.29453 0.23119 0.27155 0.0
C832 C 0.27022 0.24126 0.28553 0.0
C833 C 0.28515 0.20996 0.27884 0.0
C834 C 0.26122 0.21983 0.29257 0.0
N835 N 0.26885 0.20477 0.28913 0.0
C836 C 0.32056 0.26497 0.30384 0.0
C837 C 0.34844 0.26003 0.29084 0.0
C838 C 0.32115 0.25122 0.31487 0.0
N839 N 0.33369 0.26869 0.29199 0.0
C840 C 0.34984 0.24644 0.30172 0.0
C841 C 0.33574 0.24149 0.31384 0.0
H842 H 0.30908 0.27218 0.30453 0.0
H843 H 0.35895 0.26331 0.2815 0.0
C844 C 0.33291 0.28312 0.22567 0.0
N845 N 0.31522 0.27227 0.23517 0.0
C846 C 0.33419 0.27094 0.21397 0.0
C847 C 0.29835 0.23697 0.22169 0.0
C848 C 0.29774 0.24987 0.23325 0.0
C849 C 0.3172 0.24729 0.21213 0.0
H850 H 0.34688 0.30075 0.22769 0.0
H851 H 0.28416 0.24155 0.24116 0.0
O852 O 0.32826 0.31331 0.28538 0.0
O853 O 0.31397 0.31497 0.25402 0.0
O854 O 0.35017 0.29915 0.26113 0.0
O855 O 0.29664 0.26824 0.2683 0.0
H856 H 0.32369 0.33701 0.30649 0.0
H857 H 0.36935 0.31564 0.28769 0.0
H858 H 0.35358 0.35815 0.32502 0.0
H859 H 0.3985 0.33724 0.30646 0.0
H860 H 0.35466 0.37389 0.2226 0.0
H861 H 0.30553 0.34649 0.26559 0.0
H862 H 0.34013 0.33335 0.23116 0.0
H863 H 0.32052 0.38674 0.25637 0.0
H864 H 0.38484 0.40415 0.28327 0.0
H865 H 0.42233 0.38546 0.25327 0.0
H866 H 0.26061 0.30268 0.31499 0.0
H867 H 0.23328 0.31451 0.27619 0.0
H868 H 0.34034 0.25847 0.24958 0.0
H869 H 0.39506 0.32202 0.26801 0.0
H870 H 0.36894 0.2453 0.24571 0.0
H871 H 0.42267 0.30756 0.26392 0.0
H872 H 0.30753 0.23531 0.26341 0.0
H873 H 0.26416 0.25322 0.28829 0.0
H874 H 0.29086 0.19761 0.27635 0.0
H875 H 0.24821 0.21519 0.30079 0.0
H876 H 0.30973 0.2477 0.32389 0.0
H877 H 0.36174 0.23976 0.30056 0.0
H878 H 0.34886 0.27965 0.20677 0.0
H879 H 0.28503 0.21874 0.22077 0.0
Li880 Li 0.71251 0.02731 0.25271 0.0
Li881 Li 0.71545 0.03357 0.27866 0.0
Li882 Li 0.69977 0.99376 0.26988 0.0
Li883 Li 0.67917 0.0155 0.26721 0.0
C884 C 0.74609 0.01518 0.26024 0.0
N885 N 0.77563 0.00328 0.24658 0.0
C886 C 0.76945 0.02532 0.26437 0.0
C887 C 0.73773 0.999 0.24916 0.0
C888 C 0.78411 0.01907 0.25734 0.0
C889 C 0.75295 0.99321 0.24239 0.0
C890 C 0.69372 0.05948 0.2608 0.0
C891 C 0.67204 0.07828 0.2679 0.0
N892 N 0.66972 0.08251 0.25406 0.0
C893 C 0.69123 0.06414 0.24666 0.0
C894 C 0.68419 0.06676 0.27153 0.0
C895 C 0.67903 0.07578 0.24347 0.0
C896 C 0.72098 0.03837 0.22273 0.0
N897 N 0.72972 0.04243 0.23612 0.0
C898 C 0.76556 0.07509 0.22824 0.0
C899 C 0.75161 0.06017 0.23899 0.0
C900 C 0.75682 0.07195 0.21438 0.0
C901 C 0.73431 0.0531 0.21162 0.0
H902 H 0.7034 0.02436 0.22077 0.0
H903 H 0.7579 0.06325 0.24979 0.0
C904 C 0.74661 0.04719 0.30172 0.0
N905 N 0.73501 0.05422 0.29292 0.0
C906 C 0.76094 0.06204 0.3124 0.0
C907 C 0.75127 0.09109 0.30461 0.0
C908 C 0.73713 0.07569 0.29411 0.0
C909 C 0.76347 0.08437 0.3139 0.0
H910 H 0.74467 0.03003 0.30042 0.0
H911 H 0.72787 0.08087 0.28689 0.0
C912 C 0.66083 0.9822 0.24836 0.0
N913 N 0.61441 0.95515 0.24076 0.0
C914 C 0.64425 0.96762 0.25833 0.0
C915 C 0.6538 0.98289 0.23449 0.0
C916 C 0.62086 0.95413 0.2543 0.0
C917 C 0.63025 0.9691 0.23086 0.0
C918 C 0.68898 0.00706 0.29928 0.0
C919 C 0.69298 0.9916 0.3073 0.0
C920 C 0.68723 0.02491 0.3061 0.0
C921 C 0.69579 0.99464 0.32196 0.0
C922 C 0.69019 0.02741 0.32077 0.0
N923 N 0.69441 0.01237 0.32833 0.0
C924 C 0.71757 0.96766 0.28245 0.0
C925 C 0.68 0.94413 0.27248 0.0
C926 C 0.71633 0.94825 0.28918 0.0
N927 N 0.69923 0.96541 0.2747 0.0
C928 C 0.67794 0.92425 0.27912 0.0
C929 C 0.69591 0.92632 0.28804 0.0
H930 H 0.73253 0.98481 0.28424 0.0
H931 H 0.6657 0.94268 0.26622 0.0
C932 C 0.63865 0.01665 0.25644 0.0
N933 N 0.64895 0.01306 0.26793 0.0
C934 C 0.61735 0.01619 0.25791 0.0
C935 C 0.61768 0.0081 0.28286 0.0
C936 C 0.63864 0.00835 0.28089 0.0
C937 C 0.60696 0.01234 0.27134 0.0
H938 H 0.64713 0.02026 0.24622 0.0
H939 H 0.64679 0.00502 0.28977 0.0
O940 O 0.73159 0.02124 0.26702 0.0
O941 O 0.7054 0.04786 0.26412 0.0
O942 O 0.68379 0.99574 0.25217 0.0
O943 O 0.68649 0.00457 0.28486 0.0
H944 H 0.77615 0.03789 0.27293 0.0
H945 H 0.71971 0.99097 0.2458 0.0
H946 H 0.80224 0.02677 0.26042 0.0
H947 H 0.74673 0.98071 0.2338 0.0
H948 H 0.6644 0.08381 0.27609 0.0
H949 H 0.69845 0.05867 0.23821 0.0
H950 H 0.68586 0.0633 0.28253 0.0
H951 H 0.67688 0.07938 0.23256 0.0
H952 H 0.78262 0.08962 0.2309 0.0
H953 H 0.72697 0.05006 0.20106 0.0
H954 H 0.77028 0.0563 0.31922 0.0
H955 H 0.75253 0.10804 0.30548 0.0
H956 H 0.64929 0.96716 0.26918 0.0
H957 H 0.66634 0.99399 0.22661 0.0
H958 H 0.60783 0.94295 0.26195 0.0
H959 H 0.62457 0.96953 0.22017 0.0
H960 H 0.69374 0.9773 0.30233 0.0
H961 H 0.68397 0.03694 0.30011 0.0
H962 H 0.69902 0.98286 0.32827 0.0
H963 H 0.68917 0.04134 0.32614 0.0
H964 H 0.73082 0.95063 0.29572 0.0
H965 H 0.66182 0.90776 0.27795 0.0
H966 H 0.60944 0.01944 0.24878 0.0
H967 H 0.60989 0.00463 0.29333 0.0
Li968 Li 0.96299 0.67073 0.27716 0.0
Li969 Li 0.97982 0.65428 0.26197 0.0
Li970 Li 0.00183 0.69545 0.26716 0.0
Li971 Li 0.96502 0.67767 0.25151 0.0
C972 C 0.98896 0.65461 0.2914 0.0
N973 N 0.9837 0.62424 0.31312 0.0
C974 C 0.96917 0.63233 0.29198 0.0
C975 C 0.00608 0.66146 0.30187 0.0
C976 C 0.96684 0.61722 0.30303 0.0
C977 C 0.00309 0.64586 0.31277 0.0
C978 C 0.92921 0.62778 0.25732 0.0
C979 C 0.90636 0.60219 0.23828 0.0
N980 N 0.89163 0.58638 0.24794 0.0
C981 C 0.91368 0.61138 0.26705 0.0
C982 C 0.92541 0.62325 0.2428 0.0
C983 C 0.89486 0.59051 0.26211 0.0
C984 C 0.9211 0.6605 0.28978 0.0
N985 N 0.94345 0.66647 0.29292 0.0
C986 C 0.9367 0.66881 0.31758 0.0
C987 C 0.95148 0.67055 0.30647 0.0
C988 C 0.91364 0.66312 0.3146 0.0
C989 C 0.90583 0.65875 0.3005 0.0
H990 H 0.91533 0.6576 0.27888 0.0
H991 H 0.9695 0.67578 0.30863 0.0
C992 C 0.00423 0.6308 0.2663 0.0
N993 N 0.98444 0.62796 0.26007 0.0
C994 C 0.00747 0.61172 0.2683 0.0
C995 C 0.9709 0.58739 0.25627 0.0
C996 C 0.9683 0.60699 0.25458 0.0
C997 C 0.99025 0.58943 0.26372 0.0
H998 H 0.01689 0.64771 0.27049 0.0
H999 H 0.95292 0.6051 0.24944 0.0
C1000 C 0.96853 0.71281 0.27656 0.0
N1001 N 0.95421 0.73398 0.29625 0.0
C1002 C 0.94886 0.71492 0.27394 0.0
C1003 C 0.98101 0.72159 0.28915 0.0
C1004 C 0.94187 0.72564 0.28404 0.0
C1005 C 0.97348 0.73222 0.29898 0.0
C1006 C 0.00587 0.67034 0.23968 0.0
C1007 C 0.02849 0.6747 0.2424 0.0
C1008 C 0.99286 0.65515 0.22874 0.0
C1009 C 0.03759 0.66347 0.23425 0.0
C1010 C 0.00258 0.64426 0.22082 0.0
N1011 N 0.02454 0.64858 0.22373 0.0
C1012 C 0.04723 0.71493 0.27678 0.0
C1013 C 0.036 0.74321 0.27203 0.0
C1014 C 0.06797 0.73183 0.283 0.0
N1015 N 0.03162 0.7208 0.2717 0.0
C1016 C 0.05651 0.7607 0.27828 0.0
C1017 C 0.07254 0.75495 0.28416 0.0
H1018 H 0.04296 0.69683 0.27666 0.0
H1019 H 0.02305 0.74727 0.26811 0.0
C1020 C 0.92558 0.67528 0.24052 0.0
N1021 N 0.94766 0.68109 0.23672 0.0
C1022 C 0.91007 0.67511 0.23049 0.0
C1023 C 0.94036 0.68714 0.21273 0.0
C1024 C 0.95538 0.68709 0.22318 0.0
C1025 C 0.91729 0.68095 0.21635 0.0
H1026 H 0.91985 0.67013 0.25133 0.0
H1027 H 0.97298 0.69138 0.22045 0.0
O1028 O 0.99178 0.66968 0.28062 0.0
O1029 O 0.9475 0.6485 0.262 0.0
O1030 O 0.97519 0.70163 0.26704 0.0
O1031 O 0.99643 0.68069 0.24779 0.0
H1032 H 0.95588 0.6267 0.28392 0.0
H1033 H 0.02151 0.67867 0.30158 0.0
H1034 H 0.95164 0.5999 0.30357 0.0
H1035 H 0.0162 0.65093 0.32096 0.0
H1036 H 0.9033 0.59842 0.22708 0.0
H1037 H 0.91605 0.61475 0.27832 0.0
H1038 H 0.93706 0.63576 0.2351 0.0
H1039 H 0.88277 0.57763 0.26953 0.0
H1040 H 0.94341 0.67253 0.3283 0.0
H1041 H 0.88809 0.65407 0.2978 0.0
H1042 H 0.02256 0.61421 0.27423 0.0
H1043 H 0.95742 0.57064 0.2523 0.0
H1044 H 0.939 0.70823 0.26425 0.0
H1045 H 0.99608 0.7198 0.29144 0.0
H1046 H 0.92661 0.72729 0.28219 0.0
H1047 H 0.98286 0.73893 0.30882 0.0
H1048 H 0.03881 0.68647 0.25079 0.0
H1049 H 0.97543 0.65176 0.22641 0.0
H1050 H 0.05501 0.66655 0.2363 0.0
H1051 H 0.99266 0.63235 0.21238 0.0
H1052 H 0.07964 0.72654 0.28759 0.0
H1053 H 0.05945 0.77835 0.27892 0.0
H1054 H 0.89236 0.66972 0.23372 0.0
H1055 H 0.94667 0.69186 0.20197 0.0
Li1056 Li 0.6744 0.71374 0.72256 0.0
Li1057 Li 0.67493 0.70818 0.7487 0.0
Li1058 Li 0.69559 0.69511 0.7319 0.0
Li1059 Li 0.65376 0.67553 0.73323 0.0
C1060 C 0.71009 0.75085 0.73828 0.0
N1061 N 0.72581 0.79731 0.74437 0.0
C1062 C 0.69417 0.7588 0.73986 0.0
C1063 C 0.73399 0.76655 0.73979 0.0
C1064 C 0.70247 0.78235 0.74294 0.0
C1065 C 0.74159 0.78997 0.74286 0.0
C1066 C 0.62442 0.69111 0.73748 0.0
C1067 C 0.5887 0.66281 0.74902 0.0
N1068 N 0.57623 0.66789 0.73966 0.0
C1069 C 0.61125 0.69629 0.72812 0.0
C1070 C 0.61305 0.67447 0.74815 0.0
C1071 C 0.58691 0.68429 0.72935 0.0
C1072 C 0.65506 0.72406 0.69898 0.0
N1073 N 0.67438 0.73279 0.70731 0.0
C1074 C 0.69317 0.76775 0.69344 0.0
C1075 C 0.69351 0.75391 0.70449 0.0
C1076 C 0.67302 0.75971 0.68508 0.0
C1077 C 0.65389 0.73737 0.68783 0.0
H1078 H 0.64053 0.70673 0.70101 0.0
H1079 H 0.7092 0.76003 0.7107 0.0
C1080 C 0.69702 0.73758 0.77256 0.0
N1081 N 0.67618 0.72302 0.76627 0.0
C1082 C 0.69815 0.75192 0.78379 0.0
C1083 C 0.65622 0.7348 0.78244 0.0
C1084 C 0.65596 0.72116 0.77114 0.0
C1085 C 0.67756 0.75087 0.78868 0.0
H1086 H 0.7129 0.73893 0.76838 0.0
H1087 H 0.63972 0.70993 0.76583 0.0
C1088 C 0.68454 0.68885 0.70338 0.0
N1089 N 0.7077 0.69648 0.67783 0.0
C1090 C 0.67485 0.67235 0.69253 0.0
C1091 C 0.70603 0.70923 0.70124 0.0
C1092 C 0.68682 0.67653 0.67968 0.0
C1093 C 0.71746 0.71276 0.68825 0.0
C1094 C 0.66709 0.65968 0.75722 0.0
C1095 C 0.66961 0.64054 0.75361 0.0
C1096 C 0.6559 0.65932 0.76987 0.0
C1097 C 0.6605 0.62113 0.76261 0.0
C1098 C 0.64703 0.63959 0.77859 0.0
N1099 N 0.64947 0.62105 0.7748 0.0
C1100 C 0.74357 0.70771 0.72843 0.0
C1101 C 0.7148 0.6693 0.7218 0.0
C1102 C 0.76115 0.70455 0.72241 0.0
N1103 N 0.72092 0.69029 0.72777 0.0
C1104 C 0.73171 0.6654 0.71565 0.0
C1105 C 0.75521 0.68333 0.7156 0.0
H1106 H 0.74785 0.72439 0.73299 0.0
H1107 H 0.69655 0.65607 0.72102 0.0
C1108 C 0.61789 0.64439 0.71656 0.0
N1109 N 0.62635 0.64587 0.72986 0.0
C1110 C 0.59844 0.62387 0.71195 0.0
C1111 C 0.59619 0.60673 0.73494 0.0
C1112 C 0.61571 0.62771 0.73914 0.0
C1113 C 0.58753 0.60454 0.7211 0.0
H1114 H 0.62636 0.65927 0.7095 0.0
H1115 H 0.62213 0.62935 0.7498 0.0
O1116 O 0.7024 0.72775 0.73557 0.0
O1117 O 0.6483 0.70254 0.73636 0.0
O1118 O 0.67307 0.68482 0.71606 0.0
O1119 O 0.6762 0.67899 0.74867 0.0
H1120 H 0.67561 0.74698 0.73875 0.0
H1121 H 0.74654 0.76068 0.73866 0.0
H1122 H 0.69035 0.78872 0.74422 0.0
H1123 H 0.76004 0.8023 0.74407 0.0
H1124 H 0.57971 0.6497 0.75712 0.0
H1125 H 0.61969 0.70966 0.72012 0.0
H1126 H 0.62295 0.67037 0.75557 0.0
H1127 H 0.57653 0.68808 0.72213 0.0
H1128 H 0.70861 0.78452 0.69141 0.0
H1129 H 0.63803 0.7304 0.68162 0.0
H1130 H 0.71495 0.76411 0.78835 0.0
H1131 H 0.64 0.73372 0.78572 0.0
H1132 H 0.65828 0.65643 0.69404 0.0
H1133 H 0.71389 0.72216 0.70953 0.0
H1134 H 0.67952 0.6639 0.67119 0.0
H1135 H 0.73411 0.72843 0.68647 0.0
H1136 H 0.67839 0.64061 0.74392 0.0
H1137 H 0.65406 0.67411 0.77291 0.0
H1138 H 0.66219 0.60613 0.75991 0.0
H1139 H 0.63823 0.63901 0.78837 0.0
H1140 H 0.77906 0.71878 0.7227 0.0
H1141 H 0.72618 0.64898 0.71028 0.0
H1142 H 0.59201 0.62321 0.70131 0.0
H1143 H 0.5883 0.59228 0.74235 0.0
Li1144 Li 0.31775 0.98142 0.73124 0.0
Li1145 Li 0.29674 0.00226 0.73019 0.0
Li1146 Li 0.28182 0.96465 0.74381 0.0
Li1147 Li 0.28272 0.96523 0.71738 0.0
C1148 C 0.32758 0.00474 0.75695 0.0
N1149 N 0.36372 0.02353 0.77632 0.0
C1150 C 0.3476 0.02626 0.75423 0.0
C1151 C 0.32581 0.9929 0.76959 0.0
C1152 C 0.36573 0.03542 0.76414 0.0
C1153 C 0.34431 0.00266 0.77923 0.0
C1154 C 0.31019 0.0054 0.70219 0.0
C1155 C 0.28826 0.01606 0.68646 0.0
N1156 N 0.30724 0.02704 0.67783 0.0
C1157 C 0.32946 0.01678 0.69316 0.0
C1158 C 0.2894 0.00501 0.69881 0.0
C1159 C 0.32762 0.0276 0.68089 0.0
C1160 C 0.35335 0.98167 0.71659 0.0
N1161 N 0.34803 0.98444 0.73009 0.0
C1162 C 0.38369 0.98774 0.73854 0.0
C1163 C 0.36257 0.9872 0.74106 0.0
C1164 C 0.38932 0.98465 0.7247 0.0
C1165 C 0.37391 0.98156 0.71365 0.0
H1166 H 0.34124 0.97893 0.70812 0.0
H1167 H 0.35767 0.98836 0.75179 0.0
C1168 C 0.28138 0.03559 0.72698 0.0
N1169 N 0.30009 0.03235 0.7278 0.0
C1170 C 0.28404 0.0565 0.7215 0.0
C1171 C 0.32527 0.0705 0.7184 0.0
C1172 C 0.32182 0.04944 0.72395 0.0
C1173 C 0.30613 0.07402 0.71672 0.0
H1174 H 0.26419 0.02146 0.72973 0.0
H1175 H 0.33617 0.046 0.72412 0.0
C1176 C 0.30423 0.93708 0.73361 0.0
N1177 N 0.33038 0.91597 0.73941 0.0
C1178 C 0.30948 0.92595 0.72282 0.0
C1179 C 0.31207 0.93723 0.74738 0.0
C1180 C 0.32279 0.91546 0.72596 0.0
C1181 C 0.3253 0.92651 0.7501 0.0
C1182 C 0.24124 0.95882 0.73233 0.0
C1183 C 0.23258 0.93489 0.7303 0.0
C1184 C 0.22624 0.96658 0.73706 0.0
C1185 C 0.20897 0.91915 0.73288 0.0
C1186 C 0.20272 0.95028 0.7395 0.0
N1187 N 0.19465 0.9271 0.73738 0.0
C1188 C 0.25869 0.95432 0.77101 0.0
C1189 C 0.25592 0.92246 0.75788 0.0
C1190 C 0.24488 0.93913 0.78184 0.0
N1191 N 0.2639 0.94572 0.75935 0.0
C1192 C 0.24216 0.90676 0.76836 0.0
C1193 C 0.23631 0.91495 0.78052 0.0
H1194 H 0.26514 0.9729 0.77185 0.0
H1195 H 0.26007 0.91601 0.74845 0.0
C1196 C 0.28063 0.94307 0.69167 0.0
N1197 N 0.26828 0.94953 0.7002 0.0
C1198 C 0.27074 0.93072 0.67919 0.0
C1199 C 0.23608 0.93302 0.68414 0.0
C1200 C 0.24672 0.94548 0.69644 0.0
C1201 C 0.24794 0.92509 0.67542 0.0
H1202 H 0.29818 0.9475 0.69458 0.0
H1203 H 0.23762 0.95172 0.70302 0.0
O1204 O 0.30945 0.99565 0.74753 0.0
O1205 O 0.31196 0.9951 0.71437 0.0
O1206 O 0.29187 0.94815 0.73069 0.0
O1207 O 0.26446 0.97446 0.73026 0.0
H1208 H 0.34923 0.03569 0.74455 0.0
H1209 H 0.31033 0.97637 0.77195 0.0
H1210 H 0.38139 0.05199 0.76213 0.0
H1211 H 0.34322 0.99365 0.78903 0.0
H1212 H 0.27231 0.01596 0.68375 0.0
H1213 H 0.34572 0.01733 0.69566 0.0
H1214 H 0.27433 0.99643 0.70569 0.0
H1215 H 0.34242 0.0365 0.67382 0.0
H1216 H 0.39518 0.98992 0.7473 0.0
H1217 H 0.3778 0.97915 0.70284 0.0
H1218 H 0.26883 0.05852 0.72048 0.0
H1219 H 0.3425 0.08318 0.71458 0.0
H1220 H 0.30345 0.92549 0.71213 0.0
H1221 H 0.30824 0.94582 0.75584 0.0
H1222 H 0.32711 0.90692 0.71769 0.0
H1223 H 0.33163 0.92667 0.76069 0.0
H1224 H 0.24398 0.92854 0.72681 0.0
H1225 H 0.23269 0.98498 0.73889 0.0
H1226 H 0.20205 0.9006 0.73135 0.0
H1227 H 0.19091 0.95604 0.74313 0.0
H1228 H 0.24062 0.94616 0.79099 0.0
H1229 H 0.2363 0.88836 0.76697 0.0
H1230 H 0.28081 0.92554 0.67261 0.0
H1231 H 0.21846 0.92908 0.68175 0.0
Li1232 Li 0.03398 0.33172 0.74061 0.0
Li1233 Li 0.01798 0.35447 0.72986 0.0
Li1234 Li 0.99843 0.31207 0.72729 0.0
Li1235 Li 0.03542 0.33747 0.71507 0.0
C1236 C 0.98276 0.31883 0.7513 0.0
N1237 N 0.93856 0.29421 0.76295 0.0
C1238 C 0.96787 0.32813 0.75093 0.0
C1239 C 0.97528 0.29712 0.7577 0.0
C1240 C 0.94556 0.31539 0.75686 0.0
C1241 C 0.95284 0.28491 0.7635 0.0
C1242 C 0.06288 0.38445 0.73328 0.0
C1243 C 0.07773 0.425 0.72725 0.0
N1244 N 0.08567 0.43116 0.74074 0.0
C1245 C 0.0712 0.39119 0.74708 0.0
C1246 C 0.06621 0.40148 0.72326 0.0
C1247 C 0.0827 0.4149 0.75063 0.0
C1248 C 0.07487 0.33759 0.75249 0.0
N1249 N 0.05219 0.3302 0.75571 0.0
C1250 C 0.05808 0.32232 0.77961 0.0
C1251 C 0.04354 0.32264 0.76894 0.0
C1252 C 0.08159 0.3297 0.77652 0.0
C1253 C 0.0899 0.33735 0.76274 0.0
H1254 H 0.08131 0.34383 0.74191 0.0
H1255 H 0.02544 0.31698 0.77122 0.0
C1256 C 0.00169 0.38355 0.72038 0.0
N1257 N 0.01266 0.38016 0.73151 0.0
C1258 C 0.99852 0.40283 0.72004 0.0
C1259 C 0.01703 0.4144 0.74298 0.0
C1260 C 0.01977 0.39471 0.7429 0.0
C1261 C 0.00651 0.41878 0.73134 0.0
H1262 H 0.99569 0.37146 0.71162 0.0
H1263 H 0.02797 0.39129 0.75177 0.0
C1264 C 0.03601 0.29587 0.73015 0.0
N1265 N 0.05812 0.27291 0.74063 0.0
C1266 C 0.05777 0.30097 0.72478 0.0
C1267 C 0.02539 0.27896 0.74075 0.0
C1268 C 0.06869 0.28918 0.73024 0.0
C1269 C 0.03689 0.26759 0.74594 0.0
C1270 C 0.00375 0.33588 0.69817 0.0
C1271 C 0.99053 0.31483 0.69088 0.0
C1272 C 0.01649 0.3567 0.69054 0.0
C1273 C 0.99031 0.31498 0.67608 0.0
C1274 C 0.01586 0.3561 0.67575 0.0
N1275 N 0.00289 0.33543 0.66889 0.0
C1276 C 0.95083 0.28976 0.72174 0.0
C1277 C 0.9664 0.26427 0.72132 0.0
C1278 C 0.92996 0.27255 0.71582 0.0
N1279 N 0.96865 0.2855 0.72407 0.0
C1280 C 0.94579 0.24654 0.7153 0.0
C1281 C 0.92756 0.25089 0.71201 0.0
H1282 H 0.95342 0.30705 0.72358 0.0
H1283 H 0.98113 0.26164 0.72285 0.0
C1284 C 0.07197 0.36119 0.69502 0.0
N1285 N 0.05269 0.34052 0.69838 0.0
C1286 C 0.08497 0.36298 0.68295 0.0
C1287 C 0.05789 0.32223 0.67799 0.0
C1288 C 0.04543 0.32124 0.69015 0.0
C1289 C 0.07811 0.34325 0.67434 0.0
H1290 H 0.07744 0.37618 0.70182 0.0
H1291 H 0.03015 0.30497 0.6932 0.0
O1292 O 0.00455 0.33089 0.7454 0.0
O1293 O 0.05138 0.3613 0.72961 0.0
O1294 O 0.02529 0.3076 0.72518 0.0
O1295 O 0.00466 0.33607 0.71266 0.0
H1296 H 0.9734 0.34492 0.74602 0.0
H1297 H 0.98664 0.28972 0.7581 0.0
H1298 H 0.93379 0.32231 0.75659 0.0
H1299 H 0.94676 0.26802 0.76842 0.0
H1300 H 0.08027 0.43834 0.71965 0.0
H1301 H 0.06863 0.37828 0.755 0.0
H1302 H 0.05965 0.39657 0.71259 0.0
H1303 H 0.08916 0.42036 0.76128 0.0
H1304 H 0.05101 0.31623 0.79011 0.0
H1305 H 0.10798 0.34356 0.75997 0.0
H1306 H 0.99058 0.4056 0.71075 0.0
H1307 H 0.02321 0.42612 0.75198 0.0
H1308 H 0.06629 0.31409 0.71662 0.0
H1309 H 0.00855 0.27482 0.74501 0.0
H1310 H 0.0856 0.29305 0.72625 0.0
H1311 H 0.02895 0.25458 0.75421 0.0
H1312 H 0.98075 0.2985 0.69655 0.0
H1313 H 0.02701 0.37311 0.69599 0.0
H1314 H 0.98023 0.29881 0.67032 0.0
H1315 H 0.02575 0.37206 0.66972 0.0
H1316 H 0.91626 0.27656 0.71361 0.0
H1317 H 0.94482 0.23022 0.71237 0.0
H1318 H 0.10036 0.37957 0.68047 0.0
H1319 H 0.05221 0.30649 0.67181 0.0
Li1320 Li 0.96762 0.64151 0.60436 0.0
Li1321 Li 0.0098 0.66479 0.59979 0.0
Li1322 Li 0.98839 0.62599 0.58926 0.0
Li1323 Li 0.99456 0.63088 0.6146 0.0
C1324 C 0.99334 0.67114 0.57613 0.0
N1325 N 0.01507 0.70871 0.55779 0.0
C1326 C 0.9915 0.69109 0.57831 0.0
C1327 C 0.0061 0.67023 0.56458 0.0
C1328 C 0.00266 0.70993 0.56893 0.0
C1329 C 0.01697 0.68942 0.55543 0.0
C1330 C 0.99427 0.66193 0.63207 0.0
C1331 C 0.01695 0.67559 0.65352 0.0
N1332 N 0.9969 0.6651 0.66127 0.0
C1333 C 0.97387 0.65144 0.64024 0.0
C1334 C 0.01598 0.67424 0.63875 0.0
C1335 C 0.97558 0.65319 0.65499 0.0
C1336 C 0.92035 0.62338 0.61218 0.0
N1337 N 0.94055 0.64315 0.60874 0.0
C1338 C 0.92567 0.66708 0.61748 0.0
C1339 C 0.94338 0.66472 0.61103 0.0
C1340 C 0.90504 0.64701 0.62182 0.0
C1341 C 0.90222 0.62492 0.61876 0.0
H1342 H 0.91886 0.60649 0.61061 0.0
H1343 H 0.95999 0.68011 0.60872 0.0
C1344 C 0.05263 0.70055 0.5882 0.0
N1345 N 0.03467 0.69583 0.59715 0.0
C1346 C 0.07257 0.72273 0.58811 0.0
C1347 C 0.05439 0.73499 0.60577 0.0
C1348 C 0.03488 0.71261 0.60554 0.0
C1349 C 0.07387 0.74009 0.59729 0.0
H1350 H 0.05193 0.68676 0.58167 0.0
H1351 H 0.02031 0.70827 0.61255 0.0
C1352 C 0.95942 0.58694 0.60506 0.0
N1353 N 0.94894 0.54082 0.60525 0.0
C1354 C 0.97734 0.58153 0.60524 0.0
C1355 C 0.93615 0.56886 0.60498 0.0
C1356 C 0.9717 0.55813 0.60533 0.0
C1357 C 0.93121 0.54566 0.60508 0.0
C1358 C 0.03958 0.64314 0.60325 0.0
C1359 C 0.04548 0.62625 0.59952 0.0
C1360 C 0.05567 0.66302 0.61071 0.0
C1361 C 0.06731 0.62948 0.60338 0.0
C1362 C 0.07733 0.66564 0.61434 0.0
N1363 N 0.08265 0.64895 0.61064 0.0
C1364 C 0.0081 0.61215 0.56805 0.0
C1365 C 0.96685 0.58873 0.56913 0.0
C1366 C 0.00922 0.59761 0.55777 0.0
N1367 N 0.98722 0.60727 0.57367 0.0
C1368 C 0.96714 0.5737 0.55879 0.0
C1369 C 0.98859 0.57785 0.55313 0.0
H1370 H 0.02401 0.62707 0.57184 0.0
H1371 H 0.95047 0.58526 0.57378 0.0
C1372 C 0.9777 0.60346 0.63895 0.0
N1373 N 0.99791 0.61704 0.63175 0.0
C1374 C 0.97776 0.59217 0.65143 0.0
C1375 C 0.01953 0.60916 0.64902 0.0
C1376 C 0.01866 0.62026 0.63664 0.0
C1377 C 0.99886 0.5947 0.65655 0.0
H1378 H 0.96143 0.60137 0.63495 0.0
H1379 H 0.03459 0.6312 0.63098 0.0
O1380 O 0.98313 0.65279 0.58542 0.0
O1381 O 0.993 0.65996 0.61763 0.0
O1382 O 0.96453 0.60977 0.60478 0.0
O1383 O 0.01841 0.6404 0.59929 0.0
H1384 H 0.98179 0.69213 0.58722 0.0
H1385 H 0.00775 0.65496 0.56276 0.0
H1386 H 0.00151 0.72554 0.57054 0.0
H1387 H 0.02699 0.68899 0.54649 0.0
H1388 H 0.03365 0.68496 0.65883 0.0
H1389 H 0.95692 0.64172 0.63529 0.0
H1390 H 0.03193 0.68263 0.63261 0.0
H1391 H 0.95995 0.645 0.66144 0.0
H1392 H 0.92873 0.68443 0.61987 0.0
H1393 H 0.88655 0.60903 0.62191 0.0
H1394 H 0.08713 0.726 0.58134 0.0
H1395 H 0.05473 0.74769 0.61315 0.0
H1396 H 0.99541 0.59522 0.60531 0.0
H1397 H 0.92203 0.57267 0.60476 0.0
H1398 H 0.98542 0.55373 0.60546 0.0
H1399 H 0.91328 0.5315 0.60499 0.0
H1400 H 0.03336 0.61077 0.59371 0.0
H1401 H 0.05143 0.67615 0.61386 0.0
H1402 H 0.07206 0.61652 0.60058 0.0
H1403 H 0.08989 0.68091 0.62015 0.0
H1404 H 0.02618 0.6014 0.5539 0.0
H1405 H 0.95077 0.55889 0.5554 0.0
H1406 H 0.96144 0.58152 0.65698 0.0
H1407 H 0.03617 0.6114 0.65242 0.0
Li1408 Li 0.36392 0.36442 0.60816 0.0
Li1409 Li 0.36502 0.35902 0.58281 0.0
Li1410 Li 0.32784 0.34284 0.59566 0.0
Li1411 Li 0.35259 0.32526 0.60003 0.0
C1412 C 0.35156 0.39609 0.59511 0.0
N1413 N 0.35112 0.43732 0.59937 0.0
C1414 C 0.36982 0.41728 0.58996 0.0
C1415 C 0.33299 0.39593 0.60233 0.0
C1416 C 0.36931 0.43791 0.59226 0.0
C1417 C 0.33311 0.41693 0.6044 0.0
C1418 C 0.40673 0.37028 0.59687 0.0
C1419 C 0.44688 0.37965 0.59492 0.0
N1420 N 0.45368 0.40277 0.5942 0.0
C1421 C 0.41412 0.39412 0.59615 0.0
C1422 C 0.42322 0.36295 0.59629 0.0
C1423 C 0.43793 0.41028 0.59479 0.0
C1424 C 0.39651 0.38141 0.63026 0.0
N1425 N 0.38011 0.38485 0.62375 0.0
C1426 C 0.38875 0.41687 0.63916 0.0
C1427 C 0.37565 0.40179 0.62824 0.0
C1428 C 0.40641 0.41429 0.64566 0.0
C1429 C 0.40994 0.39599 0.64128 0.0
H1430 H 0.39935 0.36744 0.62676 0.0
H1431 H 0.36202 0.40376 0.62341 0.0
C1432 C 0.37488 0.38896 0.55982 0.0
N1433 N 0.38159 0.37473 0.56609 0.0
C1434 C 0.38877 0.40477 0.54937 0.0
C1435 C 0.41552 0.38999 0.55136 0.0
C1436 C 0.40104 0.37437 0.56178 0.0
C1437 C 0.40981 0.40598 0.54535 0.0
H1438 H 0.35924 0.38876 0.5634 0.0
H1439 H 0.40595 0.36282 0.56691 0.0
C1440 C 0.3351 0.33782 0.62787 0.0
N1441 N 0.33454 0.34661 0.65643 0.0
C1442 C 0.34671 0.33113 0.63752 0.0
C1443 C 0.32302 0.34877 0.63276 0.0
C1444 C 0.34628 0.33578 0.65192 0.0
C1445 C 0.32298 0.35311 0.64723 0.0
C1446 C 0.3185 0.3171 0.57301 0.0
C1447 C 0.29805 0.29689 0.57715 0.0
C1448 C 0.31881 0.32832 0.56038 0.0
C1449 C 0.27816 0.28836 0.56864 0.0
C1450 C 0.29858 0.31922 0.55214 0.0
N1451 N 0.27884 0.2996 0.55641 0.0
C1452 C 0.28968 0.34833 0.58654 0.0
C1453 C 0.28131 0.31943 0.60408 0.0
C1454 C 0.26747 0.34571 0.58818 0.0
N1455 N 0.29637 0.33592 0.59489 0.0
C1456 C 0.2589 0.31599 0.6059 0.0
C1457 C 0.25207 0.32996 0.59836 0.0
H1458 H 0.30207 0.36125 0.57925 0.0
H1459 H 0.28707 0.30962 0.61043 0.0
C1460 C 0.3716 0.30149 0.61399 0.0
N1461 N 0.35321 0.2981 0.60585 0.0
C1462 C 0.37064 0.28292 0.62163 0.0
C1463 C 0.33246 0.25741 0.61166 0.0
C1464 C 0.3341 0.27653 0.60427 0.0
C1465 C 0.35054 0.26069 0.62088 0.0
H1466 H 0.38633 0.31895 0.6153 0.0
H1467 H 0.31956 0.27442 0.59797 0.0
O1468 O 0.35152 0.3756 0.59269 0.0
O1469 O 0.38347 0.35412 0.59806 0.0
O1470 O 0.33594 0.33408 0.61368 0.0
O1471 O 0.33799 0.32612 0.58139 0.0
H1472 H 0.38422 0.41786 0.58418 0.0
H1473 H 0.31881 0.37987 0.60653 0.0
H1474 H 0.38335 0.4544 0.58835 0.0
H1475 H 0.31891 0.41703 0.61005 0.0
H1476 H 0.45983 0.37423 0.59442 0.0
H1477 H 0.40162 0.40005 0.59671 0.0
H1478 H 0.41777 0.34454 0.5968 0.0
H1479 H 0.44388 0.42879 0.59421 0.0
H1480 H 0.38517 0.43049 0.64243 0.0
H1481 H 0.42343 0.39343 0.646 0.0
H1482 H 0.38345 0.41644 0.5448 0.0
H1483 H 0.43162 0.39037 0.54862 0.0
H1484 H 0.35621 0.3227 0.63393 0.0
H1485 H 0.31388 0.354 0.62545 0.0
H1486 H 0.35533 0.33086 0.65949 0.0
H1487 H 0.3138 0.36169 0.65115 0.0
H1488 H 0.29734 0.28818 0.58699 0.0
H1489 H 0.33447 0.34392 0.55698 0.0
H1490 H 0.26216 0.27286 0.57179 0.0
H1491 H 0.29857 0.32777 0.54236 0.0
H1492 H 0.26301 0.3569 0.58216 0.0
H1493 H 0.24739 0.30317 0.61357 0.0
H1494 H 0.38504 0.28614 0.62853 0.0
H1495 H 0.31656 0.24063 0.61089 0.0
Li1496 Li 0.6497 0.99506 0.59685 0.0
Li1497 Li 0.63263 0.01281 0.6109 0.0
Li1498 Li 0.63622 0.01847 0.585 0.0
Li1499 Li 0.67276 0.03629 0.60116 0.0
C1500 C 0.59794 0.96978 0.59261 0.0
N1501 N 0.55736 0.92897 0.58582 0.0
C1502 C 0.58223 0.95626 0.60326 0.0
C1503 C 0.59289 0.96263 0.57849 0.0
C1504 C 0.56186 0.93565 0.59962 0.0
C1505 C 0.57231 0.94193 0.57528 0.0
C1506 C 0.66094 0.99514 0.62442 0.0
C1507 C 0.6819 0.98125 0.6386 0.0
N1508 N 0.66143 0.96141 0.64156 0.0
C1509 C 0.6401 0.9747 0.6277 0.0
C1510 C 0.68202 0.99854 0.62998 0.0
C1511 C 0.64071 0.95783 0.63635 0.0
C1512 C 0.67547 0.97221 0.5982 0.0
N1513 N 0.6534 0.96809 0.59601 0.0
C1514 C 0.63813 0.92686 0.59791 0.0
C1515 C 0.63491 0.94592 0.59546 0.0
C1516 C 0.66057 0.93071 0.60101 0.0
C1517 C 0.67949 0.95371 0.60065 0.0
H1518 H 0.6898 0.99 0.59889 0.0
H1519 H 0.61748 0.94294 0.59395 0.0
C1520 C 0.59187 0.00807 0.62235 0.0
N1521 N 0.61259 0.00997 0.62604 0.0
C1522 C 0.57652 0.0072 0.63275 0.0
C1523 C 0.6039 0.0097 0.65063 0.0
C1524 C 0.6189 0.01082 0.63984 0.0
C1525 C 0.58251 0.00809 0.6471 0.0
H1526 H 0.58743 0.00751 0.61127 0.0
H1527 H 0.63568 0.01269 0.64244 0.0
C1528 C 0.67641 0.00998 0.57388 0.0
N1529 N 0.69475 0.98874 0.55715 0.0
C1530 C 0.70041 0.01808 0.57401 0.0
C1531 C 0.66181 0.99136 0.56507 0.0
C1532 C 0.70933 0.00704 0.56552 0.0
C1533 C 0.67139 0.98077 0.55674 0.0
C1534 C 0.63955 0.05556 0.60845 0.0
C1535 C 0.62202 0.06003 0.60396 0.0
C1536 C 0.64956 0.06307 0.62184 0.0
C1537 C 0.61463 0.07179 0.61301 0.0
C1538 C 0.64167 0.07474 0.63059 0.0
N1539 N 0.6245 0.07881 0.62603 0.0
C1540 C 0.59772 0.01637 0.57267 0.0
C1541 C 0.62724 0.02384 0.55577 0.0
C1542 C 0.5823 0.01435 0.56199 0.0
N1543 N 0.61956 0.02076 0.5694 0.0
C1544 C 0.61234 0.02206 0.5447 0.0
C1545 C 0.58938 0.01679 0.54777 0.0
H1546 H 0.59203 0.01361 0.5836 0.0
H1547 H 0.64459 0.02688 0.55349 0.0
C1548 C 0.71945 0.05544 0.6086 0.0
N1549 N 0.7029 0.06127 0.60564 0.0
C1550 C 0.74035 0.07158 0.61505 0.0
C1551 C 0.72729 0.09986 0.61461 0.0
C1552 C 0.70665 0.08316 0.60808 0.0
C1553 C 0.74414 0.09387 0.61862 0.0
H1554 H 0.71589 0.03783 0.6066 0.0
H1555 H 0.6931 0.08727 0.60571 0.0
O1556 O 0.61789 0.99011 0.596 0.0
O1557 O 0.66076 0.01138 0.61547 0.0
O1558 O 0.66732 0.02039 0.58225 0.0
O1559 O 0.64652 0.04341 0.59995 0.0
H1560 H 0.5857 0.96159 0.61424 0.0
H1561 H 0.60462 0.97296 0.57008 0.0
H1562 H 0.54959 0.925 0.60776 0.0
H1563 H 0.5682 0.9362 0.5644 0.0
H1564 H 0.69809 0.98359 0.6429 0.0
H1565 H 0.62369 0.97174 0.62343 0.0
H1566 H 0.69831 0.01426 0.6276 0.0
H1567 H 0.62472 0.94184 0.63886 0.0
H1568 H 0.62299 0.90945 0.59825 0.0
H1569 H 0.69712 0.95746 0.60285 0.0
H1570 H 0.56005 0.00566 0.62962 0.0
H1571 H 0.60913 0.01056 0.66159 0.0
H1572 H 0.71201 0.03269 0.58061 0.0
H1573 H 0.64326 0.98505 0.56474 0.0
H1574 H 0.72785 0.01302 0.56558 0.0
H1575 H 0.66025 0.96621 0.54996 0.0
H1576 H 0.61415 0.05442 0.59362 0.0
H1577 H 0.66297 0.0595 0.62554 0.0
H1578 H 0.601 0.07528 0.6097 0.0
H1579 H 0.64912 0.08047 0.64102 0.0
H1580 H 0.56487 0.01057 0.56484 0.0
H1581 H 0.61839 0.02386 0.53386 0.0
H1582 H 0.75302 0.06635 0.6177 0.0
H1583 H 0.72936 0.11675 0.61724 0.0
H1584 H 0.43061 0.9822 0.04451 0.0
H1585 H 0.45532 0.97487 0.02845 0.0
H1586 H 0.48301 0.04399 0.01072 0.0
H1587 H 0.45832 0.05144 0.02669 0.0
H1588 H 0.45335 0.97551 0.99889 0.0
H1589 H 0.54189 0.04006 0.01834 0.0
H1590 H 0.51578 0.03139 0.02864 0.0
H1591 H 0.52345 0.05211 0.01442 0.0
C1592 C 0.44212 0.99592 0.03728 0.0
C1593 C 0.44253 0.01742 0.03689 0.0
C1594 C 0.45624 0.99172 0.02814 0.0
C1595 C 0.47112 0.00895 0.01848 0.0
C1596 C 0.472 0.03062 0.01828 0.0
H1597 H 0.56405 0.01022 0.95247 0.0
H1598 H 0.53887 0.01923 0.96705 0.0
C1599 C 0.45791 0.03486 0.02744 0.0
C1600 C 0.48461 0.00369 0.00806 0.0
H1601 H 0.53995 0.02049 0.9969 0.0
C1602 C 0.47229 0.98529 0.99847 0.0
C1603 C 0.5093 0.0166 0.00749 0.0
C1604 C 0.52345 0.03602 0.01784 0.0
C1605 C 0.48401 0.9795 0.98827 0.0
C1606 C 0.50869 0.99225 0.98779 0.0
C1607 C 0.52101 0.01082 0.99727 0.0
C1608 C 0.52217 0.98595 0.978 0.0
C1609 C 0.46987 0.95998 0.97799 0.0
C1610 C 0.52088 0.96416 0.97922 0.0
C1611 C 0.53512 0.95894 0.97088 0.0
C1612 C 0.55101 0.97546 0.9612 0.0
C1613 C 0.55176 0.99702 0.95969 0.0
C1614 C 0.53754 0.00226 0.96808 0.0
H1615 H 0.45162 0.95646 0.97714 0.0
H1616 H 0.47793 0.96414 0.96728 0.0
H1617 H 0.46921 0.94373 0.98176 0.0
H1618 H 0.50939 0.95147 0.98696 0.0
H1619 H 0.53407 0.94215 0.97223 0.0
H1620 H 0.94506 0.40785 0.03022 0.0
H1621 H 0.95227 0.43998 0.0142 0.0
H1622 H 0.01672 0.4852 0.03599 0.0
H1623 H 0.00955 0.45327 0.05215 0.0
H1624 H 0.96072 0.48639 0.01966 0.0
H1625 H 0.03648 0.4864 0.99418 0.0
H1626 H 0.01566 0.46253 0.00508 0.0
H1627 H 0.03812 0.48887 0.01315 0.0
C1628 C 0.96053 0.42476 0.0318 0.0
C1629 C 0.9768 0.42798 0.04243 0.0
C1630 C 0.9647 0.44304 0.02257 0.0
C1631 C 0.98524 0.46478 0.02375 0.0
C1632 C 0.001 0.46837 0.03472 0.0
H1633 H 0.05027 0.59686 0.98015 0.0
H1634 H 0.04007 0.56263 0.99492 0.0
C1635 C 0.99685 0.45014 0.04395 0.0
C1636 C 0.99049 0.48358 0.01333 0.0
H1637 H 0.02992 0.5175 0.98801 0.0
C1638 C 0.97574 0.49312 0.01266 0.0
C1639 C 0.01006 0.4922 0.0042 0.0
C1640 C 0.02591 0.48187 0.00405 0.0
C1641 C 0.98049 0.51166 0.0034 0.0
C1642 C 0.00026 0.5205 0.99439 0.0
C1643 C 0.01479 0.51068 0.99493 0.0
C1644 C 0.00675 0.54063 0.98479 0.0
C1645 C 0.96477 0.52214 0.00368 0.0
C1646 C 0.99169 0.53939 0.97392 0.0
C1647 C 0.99741 0.55899 0.96549 0.0
C1648 C 0.01836 0.58014 0.96777 0.0
C1649 C 0.03384 0.58095 0.97828 0.0
C1650 C 0.0281 0.56138 0.98668 0.0
H1651 H 0.95376 0.51705 0.01338 0.0
H1652 H 0.97517 0.54152 0.00312 0.0
H1653 H 0.95297 0.51582 0.99437 0.0
H1654 H 0.97534 0.52337 0.9721 0.0
H1655 H 0.98505 0.55782 0.95755 0.0
H1656 H 0.3986 0.45621 0.96901 0.0
H1657 H 0.42843 0.48261 0.98561 0.0
H1658 H 0.47736 0.46434 0.96796 0.0
H1659 H 0.4479 0.43859 0.95087 0.0
H1660 H 0.44944 0.47007 0.00592 0.0
H1661 H 0.51599 0.53526 0.9694 0.0
H1662 H 0.48653 0.51492 0.96383 0.0
H1663 H 0.50779 0.50561 0.96524 0.0
C1664 C 0.41589 0.45827 0.96835 0.0
C1665 C 0.42088 0.44536 0.95852 0.0
C1666 C 0.43285 0.47321 0.97797 0.0
C1667 C 0.45517 0.4756 0.97795 0.0
C1668 C 0.46038 0.46307 0.96801 0.0
H1669 H 0.55491 0.52385 0.04709 0.0
H1670 H 0.52397 0.50053 0.0301 0.0
C1671 C 0.44344 0.44817 0.95834 0.0
C1672 C 0.47247 0.49017 0.98886 0.0
H1673 H 0.52761 0.53632 0.9934 0.0
C1674 C 0.46649 0.48465 0.00319 0.0
C1675 C 0.4946 0.50931 0.98528 0.0
C1676 C 0.50158 0.51681 0.97011 0.0
C1677 C 0.48218 0.49754 0.01405 0.0
C1678 C 0.50461 0.51616 0.01045 0.0
C1679 C 0.51046 0.52191 0.99613 0.0
C1680 C 0.52233 0.53 0.02135 0.0
C1681 C 0.47447 0.49131 0.02926 0.0
C1682 C 0.53182 0.5543 0.022 0.0
C1683 C 0.54969 0.5677 0.03156 0.0
C1684 C 0.55851 0.55706 0.04067 0.0
C1685 C 0.5486 0.53261 0.0402 0.0
C1686 C 0.53076 0.51922 0.03058 0.0
H1687 H 0.45512 0.48129 0.03021 0.0
H1688 H 0.48132 0.48023 0.03349 0.0
H1689 H 0.48131 0.50723 0.03593 0.0
H1690 H 0.52566 0.56298 0.01491 0.0
H1691 H 0.55718 0.58651 0.03141 0.0
H1692 H 0.14894 0.38313 0.38609 0.0
H1693 H 0.17342 0.37487 0.37023 0.0
H1694 H 0.11187 0.31483 0.35374 0.0
H1695 H 0.08734 0.3229 0.36943 0.0
H1696 H 0.17062 0.32575 0.36767 0.0
H1697 H 0.15143 0.36086 0.31896 0.0
H1698 H 0.14957 0.37082 0.33649 0.0
H1699 H 0.12747 0.34252 0.33055 0.0
C1700 C 0.14066 0.36815 0.37911 0.0
C1701 C 0.11623 0.35361 0.37906 0.0
C1702 C 0.15463 0.36345 0.3701 0.0
C1703 C 0.14434 0.34437 0.36079 0.0
C1704 C 0.12005 0.32969 0.36082 0.0
H1705 H 0.19815 0.29386 0.29356 0.0
H1706 H 0.17332 0.30217 0.30908 0.0
C1707 C 0.10612 0.33424 0.36988 0.0
C1708 C 0.15893 0.33966 0.35101 0.0
H1709 H 0.17455 0.34313 0.31623 0.0
C1710 C 0.17161 0.32961 0.35644 0.0
C1711 C 0.15981 0.34445 0.33636 0.0
C1712 C 0.14647 0.35536 0.33015 0.0
C1713 C 0.18512 0.32403 0.34753 0.0
C1714 C 0.18644 0.32928 0.33288 0.0
C1715 C 0.17357 0.33919 0.32746 0.0
C1716 C 0.20147 0.32502 0.3231 0.0
C1717 C 0.1974 0.31208 0.35386 0.0
C1718 C 0.22556 0.33566 0.32559 0.0
C1719 C 0.23964 0.33085 0.31685 0.0
C1720 C 0.22997 0.31554 0.30529 0.0
C1721 C 0.20602 0.30569 0.3024 0.0
C1722 C 0.19186 0.31038 0.31127 0.0
H1723 H 0.18909 0.30307 0.36396 0.0
H1724 H 0.19738 0.29905 0.34643 0.0
H1725 H 0.2158 0.32537 0.35619 0.0
H1726 H 0.23348 0.34759 0.33439 0.0
H1727 H 0.25815 0.33909 0.31914 0.0
H1728 H 0.62798 0.73419 0.35684 0.0
H1729 H 0.63716 0.76644 0.34054 0.0
H1730 H 0.68163 0.81582 0.37213 0.0
H1731 H 0.67263 0.78353 0.3885 0.0
H1732 H 0.63063 0.8041 0.34261 0.0
H1733 H 0.72511 0.83354 0.33818 0.0
H1734 H 0.70441 0.80601 0.3462 0.0
H1735 H 0.71541 0.83279 0.35604 0.0
C1736 C 0.63945 0.75194 0.3604 0.0
C1737 C 0.64955 0.75635 0.37397 0.0
C1738 C 0.6448 0.77033 0.35104 0.0
C1739 C 0.6604 0.79349 0.35502 0.0
C1740 C 0.66999 0.79803 0.36871 0.0
H1741 H 0.70932 0.92793 0.31561 0.0
H1742 H 0.70117 0.89523 0.33122 0.0
C1743 C 0.66475 0.77961 0.37807 0.0
C1744 C 0.66652 0.8128 0.34481 0.0
H1745 H 0.71238 0.85781 0.32744 0.0
C1746 C 0.64848 0.81577 0.33923 0.0
C1747 C 0.68983 0.82792 0.34037 0.0
C1748 C 0.70979 0.82483 0.34539 0.0
C1749 C 0.65318 0.83376 0.32956 0.0
C1750 C 0.67649 0.84901 0.32526 0.0
C1751 C 0.69453 0.84603 0.33078 0.0
C1752 C 0.68255 0.86867 0.31539 0.0
C1753 C 0.63327 0.8367 0.32423 0.0
C1754 C 0.67523 0.86452 0.30122 0.0
C1755 C 0.68012 0.88323 0.29216 0.0
C1756 C 0.69244 0.90641 0.29715 0.0
C1757 C 0.7002 0.9104 0.3113 0.0
C1758 C 0.6954 0.89172 0.3203 0.0
H1759 H 0.61707 0.82631 0.33054 0.0
H1760 H 0.63805 0.85539 0.32453 0.0
H1761 H 0.62948 0.83077 0.31306 0.0
H1762 H 0.66557 0.84681 0.2972 0.0
H1763 H 0.67415 0.87953 0.28129 0.0
H1764 H 0.07314 0.78537 0.30394 0.0
H1765 H 0.10521 0.81059 0.31982 0.0
H1766 H 0.14923 0.78787 0.29998 0.0
H1767 H 0.11736 0.76287 0.28389 0.0
H1768 H 0.12739 0.7934 0.3388 0.0
H1769 H 0.19022 0.86028 0.30126 0.0
H1770 H 0.15956 0.84201 0.29723 0.0
H1771 H 0.17892 0.83038 0.29597 0.0
C1772 C 0.08983 0.78618 0.30272 0.0
C1773 C 0.09277 0.7722 0.29262 0.0
C1774 C 0.10805 0.80044 0.31187 0.0
C1775 C 0.12958 0.80117 0.311 0.0
C1776 C 0.13281 0.78774 0.3007 0.0
H1777 H 0.25953 0.87144 0.35747 0.0
H1778 H 0.22727 0.84625 0.34184 0.0
C1779 C 0.11456 0.77338 0.29158 0.0
C1780 C 0.1482 0.81488 0.32141 0.0
H1781 H 0.20385 0.86068 0.32452 0.0
C1782 C 0.14409 0.8082 0.33572 0.0
C1783 C 0.16995 0.83403 0.31731 0.0
C1784 C 0.17497 0.8423 0.30213 0.0
C1785 C 0.16136 0.81995 0.34604 0.0
C1786 C 0.18312 0.83918 0.34195 0.0
C1787 C 0.18718 0.84588 0.32763 0.0
C1788 C 0.20196 0.85276 0.35231 0.0
C1789 C 0.15636 0.81128 0.36114 0.0
C1790 C 0.19837 0.86455 0.36353 0.0
C1791 C 0.21672 0.87871 0.37265 0.0
C1792 C 0.2391 0.88157 0.37063 0.0
C1793 C 0.24246 0.86932 0.35954 0.0
C1794 C 0.22409 0.85509 0.35048 0.0
H1795 H 0.1419 0.79283 0.36176 0.0
H1796 H 0.1721 0.81255 0.36623 0.0
H1797 H 0.15104 0.82217 0.36728 0.0
H1798 H 0.18155 0.86334 0.365 0.0
H1799 H 0.21349 0.88779 0.38112 0.0
H1800 H 0.88784 0.67679 0.61812 0.0
H1801 H 0.8624 0.68303 0.63433 0.0
H1802 H 0.85838 0.62914 0.66198 0.0
H1803 H 0.88386 0.62285 0.64594 0.0
H1804 H 0.8128 0.64025 0.6479 0.0
H1805 H 0.88635 0.69901 0.68341 0.0
H1806 H 0.89068 0.69692 0.66468 0.0
H1807 H 0.88539 0.67322 0.67624 0.0
C1808 C 0.88139 0.66617 0.62761 0.0
C1809 C 0.88779 0.64929 0.63074 0.0
C1810 C 0.86687 0.66972 0.63681 0.0
C1811 C 0.8587 0.6566 0.64931 0.0
C1812 C 0.86457 0.63939 0.65234 0.0
H1813 H 0.75948 0.64419 0.71349 0.0
H1814 H 0.78506 0.63801 0.69752 0.0
C1815 C 0.87896 0.63572 0.64312 0.0
C1816 C 0.84459 0.66131 0.65947 0.0
H1817 H 0.84846 0.69025 0.6902 0.0
C1818 C 0.82052 0.65117 0.65715 0.0
C1819 C 0.85488 0.67565 0.67144 0.0
C1820 C 0.88076 0.68698 0.67419 0.0
C1821 C 0.80634 0.65487 0.66664 0.0
C1822 C 0.81657 0.66897 0.67874 0.0
C1823 C 0.84072 0.67936 0.68095 0.0
C1824 C 0.80237 0.67322 0.68912 0.0
C1825 C 0.78055 0.64391 0.66364 0.0
C1826 C 0.80419 0.69526 0.68994 0.0
C1827 C 0.78948 0.69883 0.69896 0.0
C1828 C 0.77281 0.68042 0.7074 0.0
C1829 C 0.77183 0.65863 0.70698 0.0
C1830 C 0.78645 0.65506 0.69789 0.0
H1831 H 0.77611 0.63691 0.65269 0.0
H1832 H 0.77064 0.62928 0.67117 0.0
H1833 H 0.77472 0.65688 0.66519 0.0
H1834 H 0.81645 0.70948 0.68325 0.0
H1835 H 0.79052 0.71572 0.69887 0.0
H1836 H 0.36047 0.26439 0.64909 0.0
H1837 H 0.35297 0.233 0.66576 0.0
H1838 H 0.32518 0.18271 0.63184 0.0
H1839 H 0.33282 0.21413 0.61499 0.0
H1840 H 0.30619 0.19067 0.67026 0.0
H1841 H 0.37584 0.17207 0.65298 0.0
H1842 H 0.37723 0.19963 0.64937 0.0
H1843 H 0.35789 0.17412 0.63936 0.0
C1844 C 0.35316 0.24672 0.64511 0.0
C1845 C 0.34741 0.24174 0.6307 0.0
C1846 C 0.34871 0.22881 0.65467 0.0
C1847 C 0.33865 0.20563 0.64999 0.0
C1848 C 0.33313 0.20056 0.63561 0.0
H1849 H 0.27641 0.07554 0.6971 0.0
H1850 H 0.28346 0.10828 0.68174 0.0
C1851 C 0.33741 0.21847 0.62603 0.0
C1852 C 0.33333 0.18672 0.6603 0.0
H1853 H 0.34975 0.14751 0.67067 0.0
C1854 C 0.31567 0.18119 0.67037 0.0
C1855 C 0.3459 0.17461 0.66043 0.0
C1856 C 0.3654 0.1804 0.65004 0.0
C1857 C 0.31006 0.16358 0.68051 0.0
C1858 C 0.32245 0.15128 0.68054 0.0
C1859 C 0.34027 0.15699 0.67057 0.0
C1860 C 0.31714 0.1323 0.69079 0.0
C1861 C 0.29113 0.15837 0.69124 0.0
C1862 C 0.33363 0.13513 0.70109 0.0
C1863 C 0.32954 0.11656 0.71002 0.0
C1864 C 0.309 0.09471 0.7087 0.0
C1865 C 0.29221 0.09221 0.69861 0.0
C1866 C 0.29625 0.11085 0.68975 0.0
H1867 H 0.28615 0.17213 0.6914 0.0
H1868 H 0.27539 0.14145 0.68858 0.0
H1869 H 0.29691 0.15672 0.70201 0.0
H1870 H 0.34984 0.15161 0.70204 0.0
H1871 H 0.34271 0.11919 0.71777 0.0
H1872 H 0.77141 0.14171 0.61665 0.0
H1873 H 0.80286 0.16794 0.63265 0.0
H1874 H 0.79379 0.10858 0.65691 0.0
H1875 H 0.76225 0.08234 0.64119 0.0
H1876 H 0.79869 0.17161 0.66243 0.0
H1877 H 0.86466 0.14582 0.64942 0.0
H1878 H 0.84012 0.13906 0.63804 0.0
H1879 H 0.83614 0.12191 0.65368 0.0
C1880 C 0.77617 0.13424 0.62536 0.0
C1881 C 0.76441 0.1099 0.62756 0.0
C1882 C 0.79418 0.14923 0.63445 0.0
C1883 C 0.80083 0.14015 0.64583 0.0
C1884 C 0.78928 0.1159 0.648 0.0
H1885 H 0.90245 0.20293 0.71411 0.0
H1886 H 0.8707 0.17558 0.69861 0.0
C1887 C 0.77128 0.10093 0.63895 0.0
C1888 C 0.81905 0.15604 0.65589 0.0
H1889 H 0.87257 0.17054 0.66932 0.0
C1890 C 0.8149 0.17149 0.6639 0.0
C1891 C 0.84005 0.15563 0.65786 0.0
C1892 C 0.84569 0.13987 0.64922 0.0
C1893 C 0.83112 0.18641 0.67396 0.0
C1894 C 0.85224 0.18617 0.67585 0.0
C1895 C 0.85632 0.17062 0.66789 0.0
C1896 C 0.87075 0.2026 0.68559 0.0
C1897 C 0.82533 0.20201 0.68265 0.0
C1898 C 0.88136 0.22677 0.68331 0.0
C1899 C 0.89941 0.24236 0.6921 0.0
C1900 C 0.90736 0.23409 0.70332 0.0
C1901 C 0.89673 0.20983 0.70556 0.0
C1902 C 0.87859 0.19421 0.69675 0.0
H1903 H 0.80621 0.19535 0.68292 0.0
H1904 H 0.83172 0.2036 0.6937 0.0
H1905 H 0.83391 0.21974 0.67785 0.0
H1906 H 0.87602 0.2336 0.67453 0.0
H1907 H 0.90763 0.26089 0.68982 0.0
H1908 H 0.3331 0.1293 0.10789 0.0
H1909 H 0.32702 0.15418 0.12443 0.0
H1910 H 0.35713 0.13363 0.15809 0.0
H1911 H 0.36349 0.10875 0.14153 0.0
H1912 H 0.31492 0.13204 0.16546 0.0
H1913 H 0.37797 0.2169 0.14066 0.0
H1914 H 0.35676 0.19598 0.12865 0.0
H1915 H 0.37781 0.19004 0.13681 0.0
C1916 C 0.33878 0.13033 0.11876 0.0
C1917 C 0.34908 0.11728 0.12336 0.0
C1918 C 0.33522 0.14452 0.1282 0.0
C1919 C 0.34197 0.14602 0.14241 0.0
C1920 C 0.35191 0.13277 0.14713 0.0
H1921 H 0.35764 0.2484 0.20467 0.0
H1922 H 0.36281 0.22368 0.18758 0.0
C1923 C 0.35547 0.11854 0.13768 0.0
C1924 C 0.33832 0.1612 0.15239 0.0
H1925 H 0.35337 0.21796 0.1586 0.0
C1926 C 0.32334 0.15083 0.164 0.0
C1927 C 0.3495 0.18571 0.15049 0.0
C1928 C 0.36658 0.19791 0.13856 0.0
C1929 C 0.31904 0.16434 0.17372 0.0
C1930 C 0.32978 0.18879 0.17161 0.0
C1931 C 0.34495 0.19917 0.16008 0.0
C1932 C 0.32637 0.20409 0.18162 0.0
C1933 C 0.30345 0.15242 0.1863 0.0
C1934 C 0.30419 0.20155 0.18376 0.0
C1935 C 0.30116 0.2158 0.19349 0.0
C1936 C 0.32032 0.23296 0.20115 0.0
C1937 C 0.34257 0.23568 0.19876 0.0
C1938 C 0.34555 0.22144 0.18907 0.0
H1939 H 0.30099 0.13469 0.18813 0.0
H1940 H 0.31078 0.16296 0.19606 0.0
H1941 H 0.28603 0.15052 0.18438 0.0
H1942 H 0.28922 0.18854 0.1779 0.0
H1943 H 0.28386 0.21343 0.19498 0.0
H1944 H 0.86263 0.24522 0.12578 0.0
H1945 H 0.83471 0.21473 0.14184 0.0
H1946 H 0.89004 0.20491 0.15835 0.0
H1947 H 0.91799 0.23548 0.14252 0.0
H1948 H 0.82509 0.16753 0.14176 0.0
H1949 H 0.85688 0.20928 0.19418 0.0
H1950 H 0.86448 0.2258 0.17786 0.0
H1951 H 0.87944 0.21049 0.18299 0.0
C1952 C 0.8689 0.23694 0.13309 0.0
C1953 C 0.89248 0.24274 0.13293 0.0
C1954 C 0.85294 0.21944 0.14216 0.0
C1955 C 0.86037 0.20772 0.15134 0.0
C1956 C 0.88401 0.21397 0.15149 0.0
H1957 H 0.80352 0.0916 0.20892 0.0
H1958 H 0.82721 0.12396 0.19278 0.0
C1959 C 0.89992 0.23133 0.14239 0.0
C1960 C 0.8433 0.18785 0.1601 0.0
H1961 H 0.83097 0.16799 0.19416 0.0
C1962 C 0.82614 0.16768 0.15323 0.0
C1963 C 0.8448 0.18813 0.17504 0.0
C1964 C 0.86225 0.20966 0.18298 0.0
C1965 C 0.81099 0.14741 0.16091 0.0
C1966 C 0.81289 0.14752 0.17583 0.0
C1967 C 0.82967 0.1679 0.1827 0.0
C1968 C 0.79804 0.12658 0.18459 0.0
C1969 C 0.79371 0.1258 0.15296 0.0
C1970 C 0.77372 0.1171 0.18517 0.0
C1971 C 0.76012 0.09855 0.19438 0.0
C1972 C 0.77066 0.08935 0.20325 0.0
C1973 C 0.79493 0.09846 0.20232 0.0
C1974 C 0.80848 0.11692 0.1931 0.0
H1975 H 0.79815 0.12689 0.14152 0.0
H1976 H 0.79296 0.10991 0.1575 0.0
H1977 H 0.77606 0.12377 0.15386 0.0
H1978 H 0.76537 0.12457 0.17888 0.0
H1979 H 0.74153 0.09216 0.19502 0.0
H1980 H 0.88472 0.69477 0.21884 0.0
H1981 H 0.85423 0.68872 0.20193 0.0
H1982 H 0.88143 0.65876 0.17218 0.0
H1983 H 0.91146 0.66388 0.18927 0.0
H1984 H 0.8563 0.70483 0.17499 0.0
H1985 H 0.81305 0.60796 0.17542 0.0
H1986 H 0.83493 0.626 0.18824 0.0
H1987 H 0.84347 0.62228 0.17078 0.0
C1988 C 0.88416 0.68677 0.20873 0.0
C1989 C 0.90037 0.67955 0.20548 0.0
C1990 C 0.8668 0.68345 0.19905 0.0
C1991 C 0.86526 0.67285 0.18592 0.0
C1992 C 0.88198 0.6665 0.18238 0.0
H1993 H 0.78518 0.67206 0.11334 0.0
H1994 H 0.81547 0.67888 0.13051 0.0
C1995 C 0.89933 0.66974 0.19209 0.0
C1996 C 0.84605 0.66835 0.17603 0.0
H1997 H 0.79946 0.62489 0.15839 0.0
C1998 C 0.84384 0.68735 0.17138 0.0
C1999 C 0.82954 0.64548 0.17155 0.0
C2000 C 0.83016 0.62422 0.17685 0.0
C2001 C 0.82584 0.68416 0.16215 0.0
C2002 C 0.8099 0.6614 0.15722 0.0
C2003 C 0.81182 0.64234 0.16209 0.0
C2004 C 0.79136 0.65704 0.14682 0.0
C2005 C 0.82387 0.70516 0.15792 0.0
C2006 C 0.76773 0.64195 0.15014 0.0
C2007 C 0.7503 0.63767 0.14022 0.0
C2008 C 0.75624 0.64828 0.12677 0.0
C2009 C 0.77997 0.66331 0.12351 0.0
C2010 C 0.79733 0.66751 0.13339 0.0
H2011 H 0.83274 0.71967 0.16566 0.0
H2012 H 0.83235 0.71164 0.14746 0.0
H2013 H 0.8053 0.70058 0.15703 0.0
H2014 H 0.76277 0.63355 0.16042 0.0
H2015 H 0.73222 0.62584 0.14302 0.0
H2016 H 0.67778 0.92385 0.85219 0.0
H2017 H 0.68314 0.8968 0.83703 0.0
H2018 H 0.63338 0.83868 0.86231 0.0
H2019 H 0.62832 0.86545 0.8777 0.0
H2020 H 0.69814 0.86447 0.84727 0.0
H2021 H 0.61173 0.81958 0.82051 0.0
H2022 H 0.62317 0.84779 0.82891 0.0
H2023 H 0.61079 0.82164 0.83947 0.0
C2024 C 0.6679 0.90531 0.8545 0.0
C2025 C 0.65255 0.89686 0.86616 0.0
C2026 C 0.67095 0.8899 0.8458 0.0
C2027 C 0.65852 0.86578 0.84851 0.0
C2028 C 0.64283 0.85722 0.85991 0.0
H2029 H 0.64909 0.7418 0.81163 0.0
H2030 H 0.64636 0.77031 0.82686 0.0
C2031 C 0.63987 0.87258 0.86866 0.0
C2032 C 0.66273 0.84957 0.83988 0.0
H2033 H 0.636 0.803 0.8175 0.0
C2034 C 0.68465 0.85111 0.84067 0.0
C2035 C 0.64501 0.83213 0.83138 0.0
C2036 C 0.62138 0.8302 0.82988 0.0
C2037 C 0.68917 0.83521 0.83343 0.0
C2038 C 0.67141 0.81769 0.82495 0.0
C2039 C 0.64956 0.81636 0.82407 0.0
C2040 C 0.67499 0.80056 0.81679 0.0
C2041 C 0.71266 0.83693 0.83525 0.0
C2042 C 0.69227 0.80809 0.80625 0.0
C2043 C 0.69398 0.79181 0.79761 0.0
C2044 C 0.67821 0.76776 0.79925 0.0
C2045 C 0.6614 0.76024 0.8101 0.0
C2046 C 0.65982 0.77649 0.81879 0.0
H2047 H 0.7216 0.84663 0.84503 0.0
H2048 H 0.7109 0.81931 0.8357 0.0
H2049 H 0.72397 0.8465 0.82609 0.0
H2050 H 0.70381 0.82656 0.8043 0.0
H2051 H 0.70682 0.79812 0.78917 0.0
H2052 H 0.13447 0.75984 0.87995 0.0
H2053 H 0.16163 0.78972 0.86335 0.0
H2054 H 0.1037 0.78947 0.84221 0.0
H2055 H 0.07649 0.75961 0.85867 0.0
H2056 H 0.16462 0.79069 0.83337 0.0
H2057 H 0.14592 0.85834 0.85392 0.0
H2058 H 0.1375 0.83139 0.86328 0.0
H2059 H 0.12032 0.83176 0.84862 0.0
C2060 C 0.1275 0.76585 0.87161 0.0
C2061 C 0.10336 0.75754 0.87069 0.0
C2062 C 0.14304 0.78302 0.86221 0.0
C2063 C 0.13468 0.79216 0.85179 0.0
C2064 C 0.11053 0.78306 0.85041 0.0
H2065 H 0.19763 0.87201 0.77667 0.0
H2066 H 0.17461 0.84294 0.79467 0.0
C2067 C 0.09502 0.76596 0.85979 0.0
C2068 C 0.15113 0.81145 0.84245 0.0
H2069 H 0.16774 0.86738 0.83241 0.0
C2070 C 0.16544 0.80751 0.83322 0.0
C2071 C 0.15245 0.83352 0.84246 0.0
C2072 C 0.13841 0.83916 0.85269 0.0
C2073 C 0.1804 0.82479 0.8236 0.0
C2074 C 0.18081 0.84641 0.82313 0.0
C2075 C 0.16718 0.85068 0.83272 0.0
C2076 C 0.1946 0.86442 0.81236 0.0
C2077 C 0.19561 0.81976 0.814 0.0
C2078 C 0.21299 0.88644 0.81638 0.0
C2079 C 0.2263 0.90315 0.80609 0.0
C2080 C 0.22131 0.89809 0.79161 0.0
C2081 C 0.20231 0.87627 0.7877 0.0
C2082 C 0.18911 0.85962 0.79797 0.0
H2083 H 0.19781 0.80522 0.81813 0.0
H2084 H 0.18733 0.81463 0.80339 0.0
H2085 H 0.21313 0.83552 0.81268 0.0
H2086 H 0.21733 0.89051 0.82747 0.0
H2087 H 0.24087 0.91973 0.80944 0.0
H2088 H 0.22302 0.3699 0.88006 0.0
H2089 H 0.19396 0.36552 0.86251 0.0
H2090 H 0.21348 0.3247 0.83619 0.0
H2091 H 0.2419 0.3281 0.85398 0.0
H2092 H 0.19831 0.37838 0.83469 0.0
H2093 H 0.14335 0.28196 0.83977 0.0
H2094 H 0.16622 0.29945 0.85221 0.0
H2095 H 0.17328 0.29174 0.83539 0.0
C2096 C 0.22102 0.35981 0.87059 0.0
C2097 C 0.23462 0.34911 0.86852 0.0
C2098 C 0.2045 0.35746 0.86053 0.0
C2099 C 0.20121 0.34437 0.84818 0.0
C2100 C 0.21534 0.33441 0.8458 0.0
H2101 H 0.11328 0.31482 0.77425 0.0
H2102 H 0.14198 0.31825 0.7919 0.0
C2103 C 0.23183 0.33666 0.8559 0.0
C2104 C 0.18299 0.34124 0.83783 0.0
H2105 H 0.13352 0.29989 0.82125 0.0
C2106 C 0.18409 0.36122 0.8318 0.0
C2107 C 0.16439 0.31883 0.83412 0.0
C2108 C 0.16153 0.29677 0.8408 0.0
C2109 C 0.16731 0.35939 0.82198 0.0
C2110 C 0.14887 0.337 0.8182 0.0
C2111 C 0.14773 0.31701 0.8242 0.0
C2112 C 0.13078 0.33402 0.80786 0.0
C2113 C 0.16962 0.38136 0.81552 0.0
C2114 C 0.11469 0.3413 0.81114 0.0
C2115 C 0.09824 0.33931 0.8011 0.0
C2116 C 0.09771 0.33009 0.7876 0.0
C2117 C 0.11348 0.32226 0.7845 0.0
C2118 C 0.1298 0.32411 0.79457 0.0
H2119 H 0.18709 0.39686 0.81751 0.0
H2120 H 0.16662 0.37925 0.8039 0.0
H2121 H 0.1562 0.38478 0.82018 0.0
H2122 H 0.11505 0.34876 0.82142 0.0
H2123 H 0.08641 0.34561 0.80376 0.0
H2124 H 0.04591 0.46789 0.46419 0.0
H2125 H 0.04179 0.49321 0.48146 0.0
H2126 H 0.97364 0.43656 0.49311 0.0
H2127 H 0.97748 0.41136 0.47561 0.0
H2128 H 0.97241 0.47565 0.48797 0.0
H2129 H 0.04659 0.49658 0.52388 0.0
H2130 H 0.05554 0.50341 0.50573 0.0
H2131 H 0.03644 0.47347 0.51092 0.0
C2132 C 0.03027 0.46073 0.47065 0.0
C2133 C 0.01203 0.43767 0.46859 0.0
C2134 C 0.02795 0.47519 0.48054 0.0
C2135 C 0.00753 0.46671 0.48873 0.0
C2136 C 0.98956 0.44347 0.48693 0.0
H2137 H 0.96236 0.52993 0.55312 0.0
H2138 H 0.96598 0.50267 0.53721 0.0
C2139 C 0.99176 0.4291 0.47694 0.0
C2140 C 0.00418 0.48246 0.49844 0.0
H2141 H 0.02874 0.52024 0.52617 0.0
C2142 C 0.98462 0.48521 0.49641 0.0
C2143 C 0.02012 0.49496 0.50946 0.0
C2144 C 0.04072 0.4918 0.51274 0.0
C2145 C 0.98083 0.50043 0.5049 0.0
C2146 C 0.99701 0.51322 0.51567 0.0
C2147 C 0.01647 0.51044 0.51781 0.0
C2148 C 0.99404 0.52969 0.52482 0.0
C2149 C 0.95982 0.50314 0.50218 0.0
C2150 C 0.00851 0.55385 0.52298 0.0
C2151 C 0.00629 0.5695 0.5319 0.0
C2152 C 0.98972 0.56125 0.54295 0.0
C2153 C 0.97504 0.53694 0.54461 0.0
C2154 C 0.97718 0.52131 0.5356 0.0
H2155 H 0.95045 0.49412 0.49234 0.0
H2156 H 0.94749 0.49566 0.51123 0.0
H2157 H 0.9652 0.52195 0.50137 0.0
H2158 H 0.02157 0.56058 0.51466 0.0
H2159 H 0.01764 0.58807 0.53016 0.0
H2160 H 0.58399 0.5594 0.47308 0.0
H2161 H 0.55507 0.52944 0.48885 0.0
H2162 H 0.5048 0.54985 0.47696 0.0
H2163 H 0.53352 0.57959 0.46092 0.0
H2164 H 0.529 0.53275 0.5119 0.0
H2165 H 0.47246 0.47907 0.46747 0.0
H2166 H 0.50222 0.50228 0.46486 0.0
H2167 H 0.4794 0.5091 0.46761 0.0
C2168 C 0.5668 0.55756 0.47386 0.0
C2169 C 0.56096 0.57171 0.46567 0.0
C2170 C 0.55035 0.54052 0.4829 0.0
C2171 C 0.52772 0.5372 0.48386 0.0
C2172 C 0.52209 0.55192 0.47618 0.0
H2173 H 0.42134 0.45187 0.54547 0.0
H2174 H 0.44964 0.48351 0.53042 0.0
C2175 C 0.53858 0.56906 0.46715 0.0
C2176 C 0.5099 0.51788 0.49263 0.0
H2177 H 0.4584 0.4661 0.49069 0.0
C2178 C 0.51353 0.51819 0.50729 0.0
C2179 C 0.48996 0.49876 0.48652 0.0
C2180 C 0.48577 0.49705 0.47074 0.0
C2181 C 0.49756 0.49998 0.51605 0.0
C2182 C 0.47734 0.48113 0.50998 0.0
C2183 C 0.47385 0.48067 0.4953 0.0
C2184 C 0.45961 0.46172 0.51872 0.0
C2185 C 0.50263 0.50085 0.53169 0.0
C2186 C 0.45537 0.43883 0.51684 0.0
C2187 C 0.439 0.4206 0.52535 0.0
C2188 C 0.42644 0.42493 0.53578 0.0
C2189 C 0.43047 0.44785 0.53742 0.0
C2190 C 0.44684 0.46603 0.52894 0.0
H2191 H 0.52128 0.51334 0.53409 0.0
H2192 H 0.49182 0.50664 0.53751 0.0
H2193 H 0.49816 0.48329 0.53573 0.0
H2194 H 0.46496 0.43516 0.50893 0.0
H2195 H 0.43614 0.40312 0.52375 0.0
H2196 H 0.59656 0.04263 0.52358 0.0
H2197 H 0.56775 0.03668 0.50526 0.0
H2198 H 0.51546 0.97598 0.52769 0.0
H2199 H 0.54398 0.98186 0.54599 0.0
H2200 H 0.54139 0.99865 0.48767 0.0
H2201 H 0.4837 0.01479 0.52288 0.0
H2202 H 0.51294 0.02213 0.52789 0.0
H2203 H 0.48927 0.99246 0.52931 0.0
C2204 C 0.57894 0.02798 0.52455 0.0
C2205 C 0.57244 0.01291 0.53631 0.0
C2206 C 0.5625 0.02464 0.51412 0.0
C2207 C 0.53934 0.00619 0.51529 0.0
C2208 C 0.53304 0.99072 0.52679 0.0
H2209 H 0.41421 0.95414 0.46366 0.0
H2210 H 0.44345 0.95949 0.48148 0.0
C2211 C 0.54938 0.9941 0.53722 0.0
C2212 C 0.52174 0.00291 0.50445 0.0
H2213 H 0.46879 -0.00057 0.50004 0.0
C2214 C 0.52558 0.99896 0.49035 0.0
C2215 C 0.50112 0.0033 0.50798 0.0
C2216 C 0.49656 0.00862 0.52281 0.0
C2217 C 0.50912 0.99494 0.47973 0.0
C2218 C 0.48844 0.99514 0.48331 0.0
C2219 C 0.48461 0.99913 0.49738 0.0
C2220 C 0.47082 0.99184 0.47251 0.0
C2221 C 0.51375 0.99009 0.46482 0.0
C2222 C 0.47647 0.00846 0.46174 0.0
C2223 C 0.4598 0.00559 0.45165 0.0
C2224 C 0.43711 0.98601 0.45212 0.0
C2225 C 0.43144 0.96949 0.46305 0.0
C2226 C 0.44815 0.97244 0.47318 0.0
H2227 H 0.52755 0.98519 0.46447 0.0
H2228 H 0.49758 0.97583 0.45996 0.0
H2229 H 0.51967 0.00607 0.45828 0.0
H2230 H 0.49372 0.02381 0.46124 0.0
H2231 H 0.46463 0.01895 0.44361 0.0
H2232 H 0.21756 0.91422 0.07708 0.0
H2233 H 0.18418 0.8792 0.06698 0.0
H2234 H 0.22859 0.87828 0.03379 0.0
H2235 H 0.26172 0.91303 0.04367 0.0
H2236 H 0.16614 0.8762 0.04044 0.0
H2237 H 0.19386 0.81031 0.04588 0.0
H2238 H 0.20744 0.83739 0.05572 0.0
H2239 H 0.21622 0.83659 0.03775 0.0
C2240 C 0.22022 0.90633 0.06774 0.0
C2241 C 0.24234 0.91627 0.06126 0.0
C2242 C 0.20119 0.88631 0.06202 0.0
C2243 C 0.20403 0.87588 0.0498 0.0
C2244 C 0.22615 0.88558 0.04348 0.0
H2245 H 0.13267 0.79285 0.97966 0.0
H2246 H 0.15889 0.81911 0.99792 0.0
C2247 C 0.24511 0.90549 0.04916 0.0
C2248 C 0.18367 0.85629 0.04274 0.0
H2249 H 0.16564 0.80319 0.02738 0.0
C2250 C 0.16569 0.85997 0.03787 0.0
C2251 C 0.18312 0.83513 0.03943 0.0
C2252 C 0.20109 0.82951 0.04511 0.0
C2253 C 0.14802 0.84371 0.02899 0.0
C2254 C 0.14839 0.8233 0.02497 0.0
C2255 C 0.16561 0.81901 0.03042 0.0
C2256 C 0.13225 0.80724 0.01416 0.0
C2257 C 0.1298 0.84895 0.0233 0.0
C2258 C 0.10866 0.79191 0.01734 0.0
C2259 C 0.09363 0.7769 0.00692 0.0
C2260 C 0.10199 0.77714 0.99317 0.0
C2261 C 0.12567 0.79254 0.99008 0.0
C2262 C 0.14068 0.8074 0.00051 0.0
H2263 H 0.13298 0.86644 0.02663 0.0
H2264 H 0.12952 0.84818 0.01154 0.0
H2265 H 0.11228 0.8355 0.02715 0.0
H2266 H 0.10194 0.79156 0.02787 0.0
H2267 H 0.07543 0.76527 0.00957 0.0
H2268 H 0.08362 0.34574 0.03341 0.0
H2269 H 0.11865 0.3465 0.0246 0.0
H2270 H 0.12128 0.31101 0.06236 0.0
H2271 H 0.08545 0.30928 0.07103 0.0
H2272 H 0.1631 0.36519 0.0353 0.0
H2273 H 0.11997 0.26828 0.03073 0.0
H2274 H 0.10369 0.28305 0.03394 0.0
H2275 H 0.11995 0.27958 0.04804 0.0
C2276 C 0.09154 0.33796 0.03982 0.0
C2277 C 0.08153 0.32709 0.0528 0.0
C2278 C 0.11169 0.33861 0.03483 0.0
C2279 C 0.12234 0.32849 0.04272 0.0
C2280 C 0.11307 0.31855 0.056 0.0
H2281 H 0.25324 0.3472 0.00557 0.0
H2282 H 0.22586 0.3457 0.02359 0.0
C2283 C 0.09275 0.31779 0.06099 0.0
C2284 C 0.14251 0.32767 0.03654 0.0
H2285 H 0.15824 0.29022 0.02205 0.0
C2286 C 0.16225 0.34883 0.03258 0.0
C2287 C 0.14118 0.30625 0.03294 0.0
C2288 C 0.12003 0.28296 0.03651 0.0
C2289 C 0.18024 0.34917 0.0245 0.0
C2290 C 0.17863 0.32773 0.02058 0.0
C2291 C 0.15942 0.3066 0.02513 0.0
C2292 C 0.19521 0.3268 0.01042 0.0
C2293 C 0.20006 0.37242 0.0195 0.0
C2294 C 0.18692 0.31581 0.9973 0.0
C2295 C 0.20241 0.31628 0.98709 0.0
C2296 C 0.22655 0.32784 0.98979 0.0
C2297 C 0.23474 0.33809 0.00317 0.0
C2298 C 0.21917 0.33748 0.01343 0.0
H2299 H 0.19628 0.38687 0.02112 0.0
H2300 H 0.2161 0.37666 0.02554 0.0
H2301 H 0.20371 0.37171 0.00809 0.0
H2302 H 0.16847 0.30734 0.9948 0.0
H2303 H 0.19547 0.30778 0.97703 0.0
H2304 H 0.64937 0.75588 0.07418 0.0
H2305 H 0.6459 0.7881 0.06372 0.0
H2306 H 0.69612 0.79685 0.03157 0.0
H2307 H 0.69998 0.76523 0.04209 0.0
H2308 H 0.70364 0.83846 0.04133 0.0
H2309 H 0.60985 0.78102 0.02772 0.0
H2310 H 0.61677 0.78244 0.04621 0.0
H2311 H 0.62787 0.76951 0.03397 0.0
C2312 C 0.65977 0.76486 0.06494 0.0
C2313 C 0.675 0.75814 0.05896 0.0
C2314 C 0.6577 0.78315 0.05895 0.0
C2315 C 0.6705 0.79463 0.04674 0.0
C2316 C 0.68614 0.78829 0.04102 0.0
H2317 H 0.64691 0.85915 0.97664 0.0
H2318 H 0.64878 0.83423 0.99501 0.0
C2319 C 0.68839 0.77027 0.04707 0.0
C2320 C 0.66721 0.81263 0.0394 0.0
H2321 H 0.62762 0.82015 0.0203 0.0
C2322 C 0.68698 0.8346 0.03685 0.0
C2323 C 0.64545 0.80742 0.03351 0.0
C2324 C 0.62378 0.78378 0.03536 0.0
C2325 C 0.68585 0.85112 0.02802 0.0
C2326 C 0.66417 0.84575 0.02194 0.0
C2327 C 0.64418 0.82421 0.02503 0.0
C2328 C 0.66228 0.86107 0.01116 0.0
C2329 C 0.70816 0.87353 0.02465 0.0
C2330 C 0.66894 0.8844 0.01417 0.0
C2331 C 0.66842 0.89892 0.00355 0.0
C2332 C 0.6609 0.89025 0.98977 0.0
C2333 C 0.65339 0.86661 0.987 0.0
C2334 C 0.65417 0.85223 0.99755 0.0
H2335 H 0.72392 0.87256 0.02761 0.0
H2336 H 0.70921 0.87773 0.01318 0.0
H2337 H 0.70852 0.88812 0.03068 0.0
H2338 H 0.67477 0.89145 0.02469 0.0
H2339 H 0.67437 0.91704 0.00606 0.0
H2340 H 0.78 0.09038 0.92454 0.0
H2341 H 0.8142 0.12459 0.93479 0.0
H2342 H 0.77233 0.123 0.97025 0.0
H2343 H 0.73838 0.08882 0.96034 0.0
H2344 H 0.81499 0.17192 0.94793 0.0
H2345 H 0.8328 0.11487 0.98307 0.0
H2346 H 0.81883 0.10527 0.966 0.0
H2347 H 0.8027 0.10707 0.98076 0.0
C2348 C 0.77808 0.09746 0.93446 0.0
C2349 C 0.75647 0.08692 0.94162 0.0
C2350 C 0.79755 0.11702 0.94023 0.0
C2351 C 0.79563 0.12614 0.95323 0.0
C2352 C 0.77401 0.11616 0.96016 0.0
H2353 H 0.86172 0.21518 0.02108 0.0
H2354 H 0.83804 0.18619 0.00329 0.0
C2355 C 0.75461 0.09673 0.95442 0.0
C2356 C 0.8163 0.14518 0.96025 0.0
H2357 H 0.85145 0.15518 0.98889 0.0
C2358 C 0.82343 0.16841 0.95668 0.0
C2359 C 0.82708 0.14032 0.97163 0.0
C2360 C 0.82015 0.11555 0.97561 0.0
C2361 C 0.84027 0.18702 0.96482 0.0
C2362 C 0.8501 0.18206 0.97669 0.0
C2363 C 0.84382 0.15886 0.97976 0.0
C2364 C 0.86474 0.20028 0.98705 0.0
C2365 C 0.8464 0.21172 0.96125 0.0
C2366 C 0.88762 0.21776 0.98377 0.0
C2367 C 0.90124 0.23449 0.99394 0.0
C2368 C 0.89208 0.23394 0.00749 0.0
C2369 C 0.86914 0.21634 0.01067 0.0
C2370 C 0.85564 0.19967 0.00056 0.0
H2371 H 0.83561 0.2124 0.95245 0.0
H2372 H 0.844 0.2203 0.97071 0.0
H2373 H 0.86507 0.22195 0.95811 0.0
H2374 H 0.89497 0.21833 0.97342 0.0
H2375 H 0.91883 0.24791 0.99118 0.0
H2376 H 0.75196 0.6736 0.99322 0.0
H2377 H 0.78057 0.67633 0.97567 0.0
H2378 H 0.78466 0.62057 0.99686 0.0
H2379 H 0.75622 0.61783 0.01443 0.0
H2380 H 0.8271 0.66115 0.99397 0.0
H2381 H 0.7801 0.63549 0.94253 0.0
H2382 H 0.77695 0.65708 0.95233 0.0
H2383 H 0.76511 0.62805 0.95939 0.0
C2384 C 0.75855 0.66155 0.99391 0.0
C2385 C 0.75207 0.64566 0.00525 0.0
C2386 C 0.7748 0.66306 0.98386 0.0
C2387 C 0.78457 0.64852 0.98492 0.0
C2388 C 0.77727 0.63191 0.99585 0.0
H2389 H 0.88877 0.63594 0.93654 0.0
H2390 H 0.85134 0.62959 0.94583 0.0
C2391 C 0.76116 0.63047 0.00592 0.0
C2392 C 0.80449 0.65252 0.97585 0.0
H2393 H 0.82155 0.65257 0.94166 0.0
C2394 C 0.82584 0.65917 0.98254 0.0
C2395 C 0.80273 0.64988 0.96096 0.0
C2396 C 0.77995 0.64204 0.95334 0.0
C2397 C 0.84558 0.6634 0.97475 0.0
C2398 C 0.84403 0.6613 0.95984 0.0
C2399 C 0.82264 0.65439 0.95309 0.0
C2400 C 0.86464 0.66587 0.95134 0.0
C2401 C 0.86795 0.66988 0.98257 0.0
C2402 C 0.88405 0.68852 0.95082 0.0
C2403 C 0.90536 0.69214 0.94563 0.0
C2404 C 0.9075 0.67319 0.94078 0.0
C2405 C 0.88753 0.65084 0.94018 0.0
C2406 C 0.86619 0.64719 0.94547 0.0
H2407 H 0.86493 0.6661 0.99409 0.0
H2408 H 0.87635 0.66027 0.97821 0.0
H2409 H 0.88033 0.68888 0.98125 0.0
H2410 H 0.88306 0.70314 0.95522 0.0
H2411 H 0.92046 0.70959 0.94602 0.0
H2412 H 0.28916 0.21891 0.94099 0.0
H2413 H 0.2936 0.18769 0.95161 0.0
H2414 H 0.36422 0.21963 0.93581 0.0
H2415 H 0.3599 0.25105 0.92501 0.0
H2416 H 0.30712 0.15505 0.94187 0.0
H2417 H 0.37073 0.22125 0.97945 0.0
H2418 H 0.35243 0.22723 0.96806 0.0
H2419 H 0.37753 0.22704 0.96093 0.0
C2420 C 0.30542 0.21898 0.93938 0.0
C2421 C 0.32426 0.2376 0.93225 0.0
C2422 C 0.30795 0.20114 0.94551 0.0
C2423 C 0.32934 0.20159 0.94468 0.0
C2424 C 0.34768 0.21922 0.93676 0.0
H2425 H 0.35048 0.09478 0.98748 0.0
H2426 H 0.34923 0.12019 0.96894 0.0
C2427 C 0.34519 0.23714 0.93062 0.0
C2428 C 0.33296 0.18501 0.95336 0.0
H2429 H 0.36057 0.18219 0.98321 0.0
C2430 C 0.31904 0.16092 0.95079 0.0
C2431 C 0.34831 0.19282 0.9651 0.0
C2432 C 0.36302 0.21846 0.96868 0.0
C2433 C 0.31971 0.14439 0.95987 0.0
C2434 C 0.33477 0.15225 0.97172 0.0
C2435 C 0.34913 0.17631 0.97406 0.0
C2436 C 0.33458 0.13595 0.98254 0.0
C2437 C 0.30361 0.11868 0.95713 0.0
C2438 C 0.32684 0.13652 0.99628 0.0
C2439 C 0.32747 0.12208 0.00684 0.0
C2440 C 0.33602 0.10685 0.0039 0.0
C2441 C 0.34354 0.10611 0.99005 0.0
C2442 C 0.34286 0.12061 0.97945 0.0
H2443 H 0.29062 0.11557 0.94872 0.0
H2444 H 0.31408 0.11064 0.95375 0.0
H2445 H 0.29413 0.1097 0.96698 0.0
H2446 H 0.32034 0.14824 0.99884 0.0
H2447 H 0.3212 0.1228 0.01733 0.0
H2448 H 0.93504 0.24901 0.36932 0.0
H2449 H 0.90262 0.21238 0.36055 0.0
H2450 H 0.86242 0.20691 0.39784 0.0
H2451 H 0.89477 0.24412 0.40657 0.0
H2452 H 0.87794 0.16676 0.37221 0.0
H2453 H 0.82181 0.20676 0.36452 0.0
H2454 H 0.85277 0.22418 0.36783 0.0
H2455 H 0.83314 0.2081 0.38203 0.0
C2456 C 0.9193 0.24003 0.37567 0.0
C2457 C 0.91726 0.24961 0.38851 0.0
C2458 C 0.90089 0.21901 0.37071 0.0
C2459 C 0.88006 0.20714 0.37847 0.0
C2460 C 0.87828 0.21602 0.39163 0.0
H2461 H 0.7689 0.07494 0.34152 0.0
H2462 H 0.79532 0.10256 0.35932 0.0
C2463 C 0.89679 0.23714 0.39663 0.0
C2464 C 0.85994 0.18635 0.37213 0.0
H2465 H 0.80779 0.1689 0.35573 0.0
C2466 C 0.86236 0.16696 0.36882 0.0
C2467 C 0.8398 0.18689 0.36764 0.0
C2468 C 0.83663 0.20761 0.37057 0.0
C2469 C 0.84563 0.14849 0.36058 0.0
C2470 C 0.8259 0.14942 0.3557 0.0
C2471 C 0.82294 0.16829 0.35956 0.0
C2472 C 0.80956 0.13248 0.34526 0.0
C2473 C 0.84982 0.12881 0.35647 0.0
C2474 C 0.80867 0.14027 0.33158 0.0
C2475 C 0.79372 0.12464 0.32144 0.0
C2476 C 0.77924 0.10086 0.3248 0.0
C2477 C 0.78006 0.09309 0.33857 0.0
C2478 C 0.79508 0.10882 0.34874 0.0
H2479 H 0.86761 0.13247 0.35941 0.0
H2480 H 0.83688 0.11251 0.36192 0.0
H2481 H 0.84748 0.12564 0.34487 0.0
H2482 H 0.81982 0.15848 0.32869 0.0
H2483 H 0.79377 0.13112 0.31088 0.0
H2484 H 0.90622 0.6421 0.34062 0.0
H2485 H 0.87746 0.63804 0.35856 0.0
H2486 H 0.85702 0.67818 0.33223 0.0
H2487 H 0.88549 0.6822 0.31431 0.0
H2488 H 0.86992 0.67143 0.37365 0.0
H2489 H 0.79631 0.61529 0.33805 0.0
H2490 H 0.82587 0.62182 0.33473 0.0
H2491 H 0.81697 0.64264 0.33007 0.0
C2492 C 0.89574 0.65025 0.33876 0.0
C2493 C 0.89777 0.66213 0.32599 0.0
C2494 C 0.87936 0.64791 0.34899 0.0
C2495 C 0.86487 0.65744 0.34656 0.0
C2496 C 0.86771 0.67027 0.33414 0.0
H2497 H 0.77518 0.68698 0.39638 0.0
H2498 H 0.80942 0.68689 0.38651 0.0
C2499 C 0.88392 0.6725 0.32391 0.0
C2500 C 0.84599 0.65322 0.35661 0.0
H2501 H 0.78715 0.63105 0.35814 0.0
C2502 C 0.85176 0.66236 0.37038 0.0
C2503 C 0.82232 0.64094 0.35238 0.0
C2504 C 0.81493 0.62939 0.33805 0.0
C2505 C 0.83445 0.66048 0.37983 0.0
C2506 C 0.81093 0.64956 0.37523 0.0
C2507 C 0.80517 0.63955 0.36167 0.0
C2508 C 0.79198 0.64928 0.38381 0.0
C2509 C 0.84153 0.67022 0.39458 0.0
C2510 C 0.77085 0.62821 0.38571 0.0
C2511 C 0.75123 0.62835 0.39102 0.0
C2512 C 0.75251 0.64953 0.39471 0.0
C2513 C 0.77397 0.67044 0.39375 0.0
C2514 C 0.79354 0.67035 0.3882 0.0
H2515 H 0.85764 0.67026 0.39798 0.0
H2516 H 0.84532 0.6886 0.39468 0.0
H2517 H 0.82744 0.66004 0.40238 0.0
H2518 H 0.76921 0.61176 0.38237 0.0
H2519 H 0.73478 0.61204 0.39168 0.0
H2520 H 0.33935 0.20225 0.31041 0.0
H2521 H 0.33781 0.17536 0.32858 0.0
H2522 H 0.32838 0.21627 0.36074 0.0
H2523 H 0.33145 0.24428 0.34268 0.0
H2524 H 0.35794 0.20253 0.36957 0.0
H2525 H 0.27955 0.12626 0.34761 0.0
H2526 H 0.3021 0.13906 0.33446 0.0
H2527 H 0.28951 0.15567 0.3415 0.0
C2528 C 0.33735 0.20584 0.32135 0.0
C2529 C 0.33545 0.22546 0.32504 0.0
C2530 C 0.33605 0.19017 0.33172 0.0
C2531 C 0.33231 0.19343 0.34596 0.0
C2532 C 0.33095 0.21325 0.34977 0.0
H2533 H 0.3 0.07146 0.39797 0.0
H2534 H 0.29706 0.10475 0.38901 0.0
C2535 C 0.33253 0.22913 0.33941 0.0
C2536 C 0.33022 0.17624 0.35681 0.0
H2537 H 0.3032 0.11764 0.36319 0.0
C2538 C 0.34571 0.18399 0.36833 0.0
C2539 C 0.31378 0.15213 0.35547 0.0
C2540 C 0.29513 0.14285 0.34418 0.0
C2541 C 0.34623 0.16807 0.37801 0.0
C2542 C 0.33136 0.14378 0.37581 0.0
C2543 C 0.31486 0.13622 0.36482 0.0
C2544 C 0.33384 0.1258 0.38384 0.0
C2545 C 0.36281 0.17752 0.39039 0.0
C2546 C 0.35556 0.12677 0.38431 0.0
C2547 C 0.3573 0.108 0.38968 0.0
C2548 C 0.33726 0.08767 0.39436 0.0
C2549 C 0.31568 0.08699 0.39442 0.0
C2550 C 0.31402 0.10597 0.3893 0.0
H2551 H 0.36539 0.19477 0.39379 0.0
H2552 H 0.35638 0.16539 0.39958 0.0
H2553 H 0.38011 0.1802 0.38713 0.0
H2554 H 0.37097 0.14144 0.37976 0.0
H2555 H 0.37405 0.10876 0.38928 0.0
H2556 H 0.591 0.56741 0.32856 0.0
H2557 H 0.56531 0.53964 0.3106 0.0
H2558 H 0.50529 0.52333 0.33655 0.0
H2559 H 0.53074 0.55103 0.35446 0.0
H2560 H 0.50774 0.48424 0.32748 0.0
H2561 H 0.51927 0.54404 0.28273 0.0
H2562 H 0.54562 0.54721 0.29037 0.0
H2563 H 0.52717 0.55421 0.30073 0.0
C2564 C 0.5723 0.55815 0.33032 0.0
C2565 C 0.56288 0.56127 0.34295 0.0
C2566 C 0.55767 0.54235 0.32005 0.0
C2567 C 0.53342 0.52962 0.32222 0.0
C2568 C 0.52398 0.53301 0.3347 0.0
H2569 H 0.41248 0.44162 0.2733 0.0
H2570 H 0.44616 0.47475 0.28446 0.0
C2571 C 0.53854 0.54872 0.34495 0.0
C2572 C 0.51782 0.5116 0.31201 0.0
H2573 H 0.49542 0.50345 0.27855 0.0
C2574 C 0.50514 0.48839 0.31675 0.0
C2575 C 0.51445 0.5172 0.29806 0.0
C2576 C 0.52718 0.54202 0.29264 0.0
C2577 C 0.48882 0.47059 0.30802 0.0
C2578 C 0.48545 0.47611 0.29404 0.0
C2579 C 0.49831 0.4993 0.28921 0.0
C2580 C 0.46728 0.45817 0.28482 0.0
C2581 C 0.47469 0.44617 0.31401 0.0
C2582 C 0.4685 0.43839 0.28075 0.0
C2583 C 0.44921 0.41933 0.27455 0.0
C2584 C 0.42844 0.41985 0.27223 0.0
C2585 C 0.42806 0.44053 0.27521 0.0
C2586 C 0.44734 0.45953 0.28147 0.0
H2587 H 0.47601 0.44594 0.32574 0.0
H2588 H 0.45597 0.43832 0.3111 0.0
H2589 H 0.48124 0.43498 0.30956 0.0
H2590 H 0.48391 0.43718 0.2831 0.0
H2591 H 0.45008 0.40367 0.27246 0.0
H2592 H 0.56497 0.9868 0.25791 0.0
H2593 H 0.52745 0.98306 0.26508 0.0
H2594 H 0.56285 0.03547 0.29727 0.0
H2595 H 0.60005 0.0389 0.29033 0.0
H2596 H 0.52766 0.99278 0.30746 0.0
H2597 H 0.49636 0.02416 0.26237 0.0
H2598 H 0.50564 0.00346 0.2582 0.0
H2599 H 0.52663 0.03208 0.2644 0.0
C2600 C 0.5647 0.99792 0.26625 0.0
C2601 C 0.58521 0.01297 0.27368 0.0
C2602 C 0.54334 0.99584 0.2703 0.0
C2603 C 0.54243 0.00905 0.28168 0.0
C2604 C 0.5632 0.02513 0.28847 0.0
H2605 H 0.43961 0.0293 0.32369 0.0
H2606 H 0.46942 0.03124 0.30748 0.0
C2607 C 0.58439 0.02704 0.28453 0.0
C2608 C 0.51985 0.00413 0.28787 0.0
H2609 H 0.47082 0.00786 0.28202 0.0
C2610 C 0.51517 0.99597 0.30188 0.0
C2611 C 0.5037 0.00837 0.28053 0.0
C2612 C 0.50829 0.01766 0.26557 0.0
C2613 C 0.49502 0.99242 0.30891 0.0
C2614 C 0.47876 0.99656 0.30161 0.0
C2615 C 0.48323 0.00444 0.2875 0.0
C2616 C 0.458 0.99436 0.30896 0.0
C2617 C 0.49179 0.9851 0.3243 0.0
C2618 C 0.44114 0.9728 0.31465 0.0
C2619 C 0.42437 0.97169 0.32411 0.0
C2620 C 0.42404 0.99213 0.32793 0.0
C2621 C 0.43974 0.01335 0.32123 0.0
C2622 C 0.45662 0.01445 0.31185 0.0
H2623 H 0.50822 0.98759 0.32912 0.0
H2624 H 0.48563 0.9952 0.33057 0.0
H2625 H 0.47845 0.96628 0.32514 0.0
H2626 H 0.44178 0.95706 0.31239 0.0
H2627 H 0.41265 0.95507 0.32908 0.0
H2628 H 0.02863 0.58377 0.26574 0.0
H2629 H 0.03086 0.55244 0.27812 0.0
H2630 H 0.9562 0.51588 0.28438 0.0
H2631 H 0.95394 0.54759 0.2727 0.0
H2632 H 0.9793 0.52337 0.30882 0.0
H2633 H 0.01426 0.48568 0.27009 0.0
H2634 H 0.03169 0.51694 0.27124 0.0
H2635 H 0.00216 0.50375 0.26482 0.0
C2636 C 0.01263 0.5689 0.26957 0.0
C2637 C 0.99114 0.56835 0.26833 0.0
C2638 C 0.0139 0.55083 0.27648 0.0
C2639 C 0.99366 0.53173 0.28209 0.0
C2640 C 0.97201 0.53042 0.28007 0.0
H2641 H 0.98822 0.41547 0.32974 0.0
H2642 H 0.98358 0.43924 0.31147 0.0
C2643 C 0.97074 0.54852 0.27326 0.0
C2644 C 0.99544 0.51495 0.29172 0.0
H2645 H 0.01685 0.47757 0.29466 0.0
C2646 C 0.98727 0.51315 0.30565 0.0
C2647 C 0.00572 0.50154 0.28757 0.0
C2648 C 0.01375 0.50187 0.27257 0.0
C2649 C 0.98963 0.49881 0.31566 0.0
C2650 C 0.00094 0.4863 0.31172 0.0
C2651 C 0.00848 0.48747 0.29768 0.0
C2652 C 0.00519 0.47213 0.32216 0.0
C2653 C 0.97997 0.49717 0.33038 0.0
C2654 C 0.01935 0.48287 0.334 0.0
C2655 C 0.02202 0.46939 0.34443 0.0
C2656 C 0.01072 0.44493 0.34314 0.0
C2657 C 0.99724 0.43429 0.33099 0.0
C2658 C 0.99453 0.44781 0.32057 0.0
H2659 H 0.9666 0.50267 0.33059 0.0
H2660 H 0.97201 0.47905 0.33458 0.0
H2661 H 0.99439 0.50888 0.33757 0.0
H2662 H 0.0281 0.50168 0.33527 0.0
H2663 H 0.03289 0.47812 0.35353 0.0
H2664 H 0.42685 0.46169 0.64455 0.0
H2665 H 0.45473 0.49021 0.66122 0.0
H2666 H 0.44888 0.4342 0.6877 0.0
H2667 H 0.4211 0.40545 0.67088 0.0
H2668 H 0.45195 0.49831 0.68944 0.0
H2669 H 0.51867 0.47194 0.67993 0.0
H2670 H 0.49308 0.46185 0.66896 0.0
H2671 H 0.49081 0.44913 0.68615 0.0
C2672 C 0.43126 0.45543 0.65401 0.0
C2673 C 0.42191 0.43136 0.65639 0.0
C2674 C 0.44722 0.47173 0.66351 0.0
C2675 C 0.45412 0.46432 0.67558 0.0
C2676 C 0.44417 0.44029 0.67828 0.0
H2677 H 0.54747 0.57419 0.73554 0.0
H2678 H 0.51423 0.53792 0.72665 0.0
C2679 C 0.4283 0.42391 0.6687 0.0
C2680 C 0.47242 0.48199 0.68491 0.0
H2681 H 0.52885 0.50329 0.69549 0.0
C2682 C 0.4687 0.4993 0.69092 0.0
C2683 C 0.49427 0.48325 0.68671 0.0
C2684 C 0.49963 0.4657 0.68002 0.0
C2685 C 0.48655 0.51836 0.69823 0.0
C2686 C 0.50851 0.51981 0.69982 0.0
C2687 C 0.51192 0.50201 0.6943 0.0
C2688 C 0.52894 0.54084 0.70575 0.0
C2689 C 0.48213 0.53739 0.70349 0.0
C2690 C 0.5485 0.55401 0.69711 0.0
C2691 C 0.56758 0.57444 0.70219 0.0
C2692 C 0.56749 0.58221 0.71604 0.0
C2693 C 0.5481 0.56866 0.72483 0.0
C2694 C 0.529 0.54807 0.71973 0.0
H2695 H 0.46593 0.53586 0.69894 0.0
H2696 H 0.48022 0.53616 0.71519 0.0
H2697 H 0.49703 0.55494 0.70082 0.0
H2698 H 0.54887 0.54865 0.68631 0.0
H2699 H 0.58244 0.58415 0.69525 0.0
H2700 H 0.56795 0.98057 0.67081 0.0
H2701 H 0.53728 0.97573 0.68748 0.0
H2702 H 0.53015 0.0288 0.66508 0.0
H2703 H 0.56047 0.03349 0.64835 0.0
H2704 H 0.53036 0.00648 0.70549 0.0
H2705 H 0.46529 0.97003 0.66209 0.0
H2706 H 0.49428 0.97407 0.66047 0.0
H2707 H 0.48958 0.99846 0.65815 0.0
C2708 C 0.56006 0.99143 0.66961 0.0
C2709 C 0.56624 0.00712 0.65819 0.0
C2710 C 0.54259 0.98865 0.67911 0.0
C2711 C 0.5312 0.00159 0.67731 0.0
C2712 C 0.53842 0.01831 0.66645 0.0
H2713 H 0.43391 0.02006 0.72859 0.0
H2714 H 0.46951 0.02235 0.71903 0.0
C2715 C 0.55568 0.02095 0.65691 0.0
C2716 C 0.51065 0.99655 0.68607 0.0
H2717 H 0.45287 0.97934 0.68347 0.0
C2718 C 0.51333 0.00036 0.70075 0.0
C2719 C 0.4884 0.9881 0.67986 0.0
C2720 C 0.48409 0.98219 0.6643 0.0
C2721 C 0.49439 0.99669 0.70933 0.0
C2722 C 0.47242 0.98943 0.70297 0.0
C2723 C 0.46971 0.985 0.68835 0.0
C2724 C 0.45197 0.98687 0.71098 0.0
C2725 C 0.49806 0.00046 0.72509 0.0
C2726 C 0.43032 0.96618 0.70971 0.0
C2727 C 0.41002 0.96509 0.71486 0.0
C2728 C 0.41108 0.98456 0.72153 0.0
C2729 C 0.43283 0.00477 0.7236 0.0
C2730 C 0.45315 0.00602 0.71823 0.0
H2731 H 0.51288 0.99833 0.72873 0.0
H2732 H 0.5023 0.01856 0.72766 0.0
H2733 H 0.48213 0.9881 0.73108 0.0
H2734 H 0.42898 0.95122 0.70415 0.0
H2735 H 0.39335 0.94934 0.71317 0.0
H2736 H 0.97022 0.42334 0.72129 0.0
H2737 H 0.97111 0.45954 0.71485 0.0
H2738 H 0.03978 0.49959 0.73321 0.0
H2739 H 0.03957 0.46333 0.739 0.0
H2740 H 0.97696 0.49907 0.72792 0.0
H2741 H 0.052 0.51975 0.69215 0.0
H2742 H 0.03569 0.49188 0.70093 0.0
H2743 H 0.05674 0.51711 0.71061 0.0
C2744 C 0.98548 0.43984 0.72404 0.0
C2745 C 0.00507 0.44046 0.73032 0.0
C2746 C 0.98587 0.46053 0.72048 0.0
C2747 C 0.00575 0.48225 0.72322 0.0
C2748 C 0.02449 0.48299 0.73068 0.0
H2749 H 0.03203 0.60914 0.67754 0.0
H2750 H 0.03459 0.58534 0.69661 0.0
C2751 C 0.02422 0.46224 0.73413 0.0
C2752 C 0.00751 0.50362 0.71688 0.0
H2753 H 0.03564 0.54385 0.69071 0.0
C2754 C 0.99002 0.50913 0.71995 0.0
C2755 C 0.02456 0.5167 0.70645 0.0
C2756 C 0.04322 0.51104 0.70221 0.0
C2757 C 0.98854 0.5267 0.71244 0.0
C2758 C 0.0049 0.53894 0.70158 0.0
C2759 C 0.02318 0.53443 0.69909 0.0
C2760 C 0.00187 0.55435 0.69148 0.0
C2761 C 0.96911 0.53159 0.71588 0.0
C2762 C 0.9826 0.54478 0.68232 0.0
C2763 C 0.98125 0.55814 0.67129 0.0
C2764 C -0.00081 0.58139 0.66918 0.0
C2765 C 0.01809 0.59119 0.67872 0.0
C2766 C 0.01949 0.57772 0.68971 0.0
H2767 H 0.96263 0.52618 0.72688 0.0
H2768 H 0.97497 0.55045 0.71457 0.0
H2769 H 0.95428 0.5215 0.70855 0.0
H2770 H 0.96911 0.52659 0.68328 0.0
H2771 H 0.96667 0.54985 0.66402 0.0
H2772 H 0.25081 0.88734 0.66617 0.0
H2773 H 0.22758 0.85948 0.64779 0.0
H2774 H 0.19344 0.89924 0.63894 0.0
H2775 H 0.21757 0.92796 0.65675 0.0
H2776 H 0.18148 0.83335 0.64989 0.0
H2777 H 0.20252 0.88247 0.59938 0.0
H2778 H 0.22073 0.89383 0.61491 0.0
H2779 H 0.19483 0.89612 0.61313 0.0
C2780 C 0.23899 0.89067 0.65999 0.0
C2781 C 0.23599 0.90987 0.66303 0.0
C2782 C 0.22559 0.87461 0.64953 0.0
C2783 C 0.2089 0.87735 0.64189 0.0
C2784 C 0.20653 0.89699 0.64447 0.0
H2785 H 0.08038 0.78419 0.60083 0.0
H2786 H 0.11577 0.81865 0.60951 0.0
C2787 C 0.22008 0.9132 0.65485 0.0
C2788 C 0.1919 0.85814 0.63273 0.0
H2789 H 0.16642 0.84558 0.6 0.0
C2790 C 0.1785 0.83595 0.63891 0.0
C2791 C 0.18787 0.86161 0.61844 0.0
C2792 C 0.20242 0.88475 0.61103 0.0
C2793 C 0.16071 0.81734 0.63136 0.0
C2794 C 0.15635 0.82092 0.61718 0.0
C2795 C 0.16991 0.84296 0.61087 0.0
C2796 C 0.13686 0.80205 0.60918 0.0
C2797 C 0.14612 0.79416 0.63878 0.0
C2798 C 0.13741 0.78173 0.6056 0.0
C2799 C 0.11722 0.76199 0.60077 0.0
C2800 C 0.09618 0.7623 0.59943 0.0
C2801 C 0.09624 0.78333 0.60197 0.0
C2802 C 0.11645 0.80306 0.60681 0.0
H2803 H 0.14908 0.79551 0.65041 0.0
H2804 H 0.12723 0.78728 0.63677 0.0
H2805 H 0.1507 0.78128 0.63457 0.0
H2806 H 0.15308 0.78072 0.60733 0.0
H2807 H 0.11776 0.74606 0.59903 0.0
H2808 H 0.0639 0.32334 0.64805 0.0
H2809 H 0.08834 0.32115 0.62923 0.0
H2810 H 0.1498 0.36253 0.65454 0.0
H2811 H 0.12566 0.36468 0.67334 0.0
H2812 H 0.15538 0.37448 0.62505 0.0
H2813 H 0.11742 0.27893 0.63493 0.0
H2814 H 0.09753 0.28915 0.63068 0.0
H2815 H 0.11324 0.29755 0.64712 0.0
C2816 C 0.08264 0.33207 0.64955 0.0
C2817 C 0.09283 0.34404 0.66223 0.0
C2818 C 0.09655 0.33085 0.63879 0.0
C2819 C 0.12081 0.34147 0.64059 0.0
C2820 C 0.1311 0.3543 0.65294 0.0
H2821 H 0.2341 0.32633 0.62481 0.0
H2822 H 0.19934 0.32767 0.63164 0.0
C2823 C 0.11726 0.35556 0.66367 0.0
C2824 C 0.13558 0.33786 0.63029 0.0
H2825 H 0.1502 0.29722 0.62017 0.0
C2826 C 0.15396 0.35751 0.62366 0.0
C2827 C 0.13366 0.31567 0.6286 0.0
C2828 C 0.11452 0.29407 0.63574 0.0
C2829 C 0.17127 0.35577 0.61604 0.0
C2830 C 0.17001 0.33383 0.61504 0.0
C2831 C 0.1509 0.31395 0.62092 0.0
C2832 C 0.19025 0.33191 0.61028 0.0
C2833 C 0.19168 0.37758 0.60998 0.0
C2834 C 0.19647 0.33363 0.59593 0.0
C2835 C 0.21632 0.33255 0.59191 0.0
C2836 C 0.23016 0.32974 0.60221 0.0
C2837 C 0.22359 0.32788 0.61654 0.0
C2838 C 0.20381 0.32884 0.6205 0.0
H2839 H 0.19028 0.39342 0.61194 0.0
H2840 H 0.20822 0.38026 0.61472 0.0
H2841 H 0.19271 0.37552 0.59838 0.0
H2842 H 0.18607 0.33592 0.58791 0.0
H2843 H 0.22083 0.33391 0.58078 0.0
H2844 H 0.68999 0.80682 0.68608 0.0
H2845 H 0.68813 0.83186 0.66772 0.0
H2846 H 0.65125 0.7722 0.64031 0.0
H2847 H 0.65344 0.74689 0.65857 0.0
H2848 H 0.70507 0.83715 0.63811 0.0
H2849 H 0.60942 0.80367 0.64332 0.0
H2850 H 0.62597 0.79964 0.65714 0.0
H2851 H 0.61913 0.78277 0.64119 0.0
C2852 C 0.68174 0.799 0.6761 0.0
C2853 C 0.67191 0.77483 0.67379 0.0
C2854 C 0.6806 0.81334 0.66565 0.0
C2855 C 0.66946 0.80382 0.65274 0.0
C2856 C 0.65971 0.77978 0.6503 0.0
H2857 H 0.64015 0.88567 0.59094 0.0
H2858 H 0.64311 0.85297 0.60103 0.0
C2859 C 0.66091 0.76537 0.66075 0.0
C2860 C 0.668 0.81933 0.642 0.0
H2861 H 0.63066 0.83574 0.62822 0.0
C2862 C 0.68877 0.83668 0.63576 0.0
C2863 C 0.64667 0.81846 0.63891 0.0
C2864 C 0.62396 0.80025 0.6455 0.0
C2865 C 0.6889 0.85379 0.62689 0.0
C2866 C 0.66779 0.8538 0.62448 0.0
C2867 C 0.64682 0.8357 0.63011 0.0
C2868 C 0.66743 0.87371 0.6175 0.0
C2869 C 0.71172 0.87195 0.6204 0.0
C2870 C 0.68002 0.89609 0.62347 0.0
C2871 C 0.6783 0.91467 0.6178 0.0
C2872 C 0.66383 0.91125 0.60607 0.0
C2873 C 0.6514 0.88884 0.59999 0.0
C2874 C 0.65314 0.87019 0.6057 0.0
H2875 H 0.72397 0.86515 0.61917 0.0
H2876 H 0.70898 0.87773 0.60988 0.0
H2877 H 0.72013 0.88741 0.62748 0.0
H2878 H 0.69058 0.89905 0.63284 0.0
H2879 H 0.68761 0.93153 0.62298 0.0
loop_
_geom_bond_atom_site_label_1
_geom_bond_atom_site_label_2
_geom_bond_distance
_geom_bond_site_symmetry_2
_ccdc_geom_bond_type
Li0 N17 1.990 . S
Li0 O60 1.956 . S
Li0 O61 1.970 . S
Li0 O62 1.961 . S
Li1 N25 1.990 . S
Li1 O60 1.970 . S
Li1 O61 1.956 . S
Li1 O63 1.961 . S
Li2 N47 1.990 . S
Li2 O60 1.961 . S
Li2 O62 1.956 . S
Li2 O63 1.970 . S
Li3 N53 1.990 1_545 S
Li3 O61 1.961 . S
Li3 O62 1.970 . S
Li3 O63 1.956 . S
C4 C6 1.348 . S
C4 C7 1.356 . S
C4 O60 1.325 . S
N5 C8 1.314 . S
N5 C9 1.279 . S
C6 C4 1.348 . S
C6 C8 1.353 . S
C6 H64 0.929 . S
C7 C4 1.356 . S
C7 C9 1.358 . S
C7 H65 0.930 . S
C8 N5 1.314 . S
C8 C6 1.353 . S
C8 H66 0.930 . S
C9 N5 1.279 . S
C9 C7 1.358 . S
C9 H67 0.930 . S
C10 C13 1.348 . S
C10 C14 1.356 . S
C10 O61 1.325 . S
C11 N12 1.279 . S
C11 C14 1.358 . S
C11 H68 0.930 . S
N12 C11 1.279 . S
N12 C15 1.314 . S
C13 C10 1.348 . S
C13 C15 1.353 . S
C13 H69 0.929 . S
C14 C10 1.356 . S
C14 C11 1.358 . S
C14 H70 0.930 . S
C15 N12 1.314 . S
C15 C13 1.353 . S
C15 H71 0.930 . S
C16 N17 1.314 . S
C16 C21 1.353 . S
C16 H22 0.930 . S
N17 Li0 1.990 . S
N17 C16 1.314 . S
N17 C19 1.279 . S
C18 C19 1.358 . S
C18 C20 1.356 . S
C18 H72 0.930 . S
C19 N17 1.279 . S
C19 C18 1.358 . S
C19 H23 0.930 . S
C20 C18 1.356 . S
C20 C21 1.348 . S
C21 C16 1.353 . S
C21 C20 1.348 . S
C21 H73 0.929 . S
H22 C16 0.930 . S
H23 C19 0.930 . S
C24 N25 1.314 . S
C24 C26 1.353 . S
C24 H30 0.930 . S
N25 Li1 1.990 . S
N25 C24 1.314 . S
N25 C28 1.279 . S
C26 C24 1.353 . S
C26 C29 1.348 . S
C26 H74 0.929 . S
C27 C28 1.358 . S
C27 C29 1.356 . S
C27 H75 0.930 . S
C28 N25 1.279 . S
C28 C27 1.358 . S
C28 H31 0.930 . S
C29 C26 1.348 . S
C29 C27 1.356 . S
H30 C24 0.930 . S
H31 C28 0.930 . S
C32 C34 1.311 1_545 S
C32 C35 1.356 . S
C32 O62 1.325 . S
N33 C36 1.314 1_546 S
N33 C37 1.250 1_556 S
C34 C32 1.311 1_565 S
C34 C36 1.365 . S
C34 H76 0.956 . S
C35 C32 1.356 . S
C35 C37 1.437 . S
C35 H77 0.930 . S
C36 N33 1.314 1_564 S
C36 C34 1.365 . S
C36 H78 0.930 . S
C37 N33 1.250 1_554 S
C37 C35 1.437 . S
C37 H79 0.881 1_554 S
C38 C39 1.348 . S
C38 C40 1.356 . S
C38 O63 1.325 1_565 S
C39 C38 1.348 . S
C39 C41 1.353 . S
C39 H80 0.929 . S
C40 C38 1.356 . S
C40 C42 1.358 . S
C40 H81 0.930 . S
C41 C39 1.353 . S
C41 N43 1.314 . S
C41 H82 0.930 . S
C42 C40 1.358 . S
C42 N43 1.279 . S
C42 H83 0.930 . S
N43 C41 1.314 . S
N43 C42 1.279 . S
C44 C46 1.353 . S
C44 N47 1.314 . S
C44 H50 0.930 . S
C45 N47 1.279 . S
C45 C48 1.358 . S
C45 H51 0.930 . S
C46 C44 1.353 . S
C46 C49 1.348 . S
C46 H84 0.929 . S
N47 Li2 1.990 . S
N47 C44 1.314 . S
N47 C45 1.279 . S
C48 C45 1.358 . S
C48 C49 1.356 . S
C48 H85 0.930 . S
C49 C46 1.348 . S
C49 C48 1.356 . S
H50 C44 0.930 . S
H51 C45 0.930 . S
C52 N53 1.314 . S
C52 C54 1.353 . S
C52 H58 0.930 . S
N53 Li3 1.990 1_565 S
N53 C52 1.314 . S
N53 C56 1.279 . S
C54 C52 1.353 . S
C54 C57 1.348 . S
C54 H86 0.929 . S
C55 C56 1.358 . S
C55 C57 1.356 . S
C55 H87 0.930 . S
C56 N53 1.279 . S
C56 C55 1.358 . S
C56 H59 0.930 . S
C57 C54 1.348 . S
C57 C55 1.356 . S
H58 C52 0.930 . S
H59 C56 0.930 . S
O60 Li0 1.956 . S
O60 Li1 1.970 . S
O60 Li2 1.961 . S
O60 C4 1.325 . S
O61 Li0 1.970 . S
O61 Li1 1.956 . S
O61 Li3 1.961 . S
O61 C10 1.325 . S
O62 Li0 1.961 . S
O62 Li2 1.956 . S
O62 Li3 1.970 . S
O62 C32 1.325 . S
O63 Li1 1.961 . S
O63 Li2 1.970 . S
O63 Li3 1.956 . S
O63 C38 1.325 1_545 S
H64 C6 0.929 . S
H65 C7 0.930 . S
H66 C8 0.930 . S
H67 C9 0.930 . S
H68 C11 0.930 . S
H69 C13 0.929 . S
H70 C14 0.930 . S
H71 C15 0.930 . S
H72 C18 0.930 . S
H73 C21 0.929 . S
H74 C26 0.929 . S
H75 C27 0.930 . S
H76 C34 0.956 . S
H77 C35 0.930 . S
H78 C36 0.930 . S
H79 C37 0.881 1_556 S
H80 C39 0.929 . S
H81 C40 0.930 . S
H82 C41 0.930 . S
H83 C42 0.930 . S
H84 C46 0.929 . S
H85 C48 0.930 . S
H86 C54 0.929 . S
H87 C55 0.930 . S
Li88 N105 1.990 . S
Li88 O148 1.956 . S
Li88 O149 1.970 . S
Li88 O150 1.961 . S
Li89 N113 1.990 1_655 S
Li89 O148 1.970 . S
Li89 O149 1.956 . S
Li89 O151 1.961 . S
Li90 N135 1.990 . S
Li90 O148 1.961 . S
Li90 O150 1.956 . S
Li90 O151 1.970 . S
Li91 N141 1.990 . S
Li91 O149 1.961 . S
Li91 O150 1.970 . S
Li91 O151 1.956 . S
C92 C94 1.348 1_655 S
C92 C95 1.356 . S
C92 O148 1.325 . S
N93 C96 1.314 1_656 S
N93 C97 1.277 1_556 S
C94 C92 1.348 1_455 S
C94 C96 1.353 . S
C94 H152 0.929 . S
C95 C92 1.356 . S
C95 C97 1.363 . S
C95 H153 0.930 . S
C96 N93 1.314 1_454 S
C96 C94 1.353 . S
C96 H154 0.930 . S
C97 N93 1.277 1_554 S
C97 C95 1.363 . S
C97 H155 0.927 1_554 S
C98 C101 1.348 . S
C98 C102 1.356 . S
C98 O149 1.325 1_455 S
C99 N100 1.279 . S
C99 C102 1.358 . S
C99 H156 0.930 . S
N100 C99 1.279 . S
N100 C103 1.314 . S
C101 C98 1.348 . S
C101 C103 1.353 . S
C101 H157 0.929 . S
C102 C98 1.356 . S
C102 C99 1.358 . S
C102 H158 0.930 . S
C103 N100 1.314 . S
C103 C101 1.353 . S
C103 H159 0.930 . S
C104 N105 1.314 . S
C104 C109 1.353 . S
C104 H110 0.930 . S
N105 Li88 1.990 . S
N105 C104 1.314 . S
N105 C107 1.279 . S
C106 C107 1.358 . S
C106 C108 1.356 . S
C106 H160 0.930 . S
C107 N105 1.279 . S
C107 C106 1.358 . S
C107 H111 0.930 . S
C108 C106 1.356 . S
C108 C109 1.348 . S
C109 C104 1.353 . S
C109 C108 1.348 . S
C109 H161 0.929 . S
H110 C104 0.930 . S
H111 C107 0.930 . S
C112 N113 1.314 . S
C112 C114 1.353 . S
C112 H118 0.930 . S
N113 Li89 1.990 1_455 S
N113 C112 1.314 . S
N113 C116 1.279 . S
C114 C112 1.353 . S
C114 C117 1.348 . S
C114 H162 0.929 . S
C115 C116 1.358 . S
C115 C117 1.356 . S
C115 H163 0.930 . S
C116 N113 1.279 . S
C116 C115 1.358 . S
C116 H119 0.930 . S
C117 C114 1.348 . S
C117 C115 1.356 . S
H118 C112 0.930 . S
H119 C116 0.930 . S
C120 C122 1.348 . S
C120 C123 1.356 . S
C120 O150 1.325 . S
N121 C124 1.314 . S
N121 C125 1.279 . S
C122 C120 1.348 . S
C122 C124 1.353 . S
C122 H164 0.929 . S
C123 C120 1.356 . S
C123 C125 1.358 . S
C123 H165 0.930 . S
C124 N121 1.314 . S
C124 C122 1.353 . S
C124 H166 0.930 . S
C125 N121 1.279 . S
C125 C123 1.358 . S
C125 H167 0.930 . S
C126 C127 1.348 . S
C126 C128 1.356 . S
C126 O151 1.325 . S
C127 C126 1.348 . S
C127 C129 1.353 . S
C127 H168 0.929 . S
C128 C126 1.356 . S
C128 C130 1.358 . S
C128 H169 0.930 . S
C129 C127 1.353 . S
C129 N131 1.314 . S
C129 H170 0.930 . S
C130 C128 1.358 . S
C130 N131 1.279 . S
C130 H171 0.930 . S
N131 C129 1.314 . S
N131 C130 1.279 . S
C132 C134 1.353 . S
C132 N135 1.314 . S
C132 H138 0.930 . S
C133 N135 1.279 . S
C133 C136 1.358 . S
C133 H139 0.930 . S
C134 C132 1.353 . S
C134 C137 1.348 . S
C134 H172 0.929 . S
N135 Li90 1.990 . S
N135 C132 1.314 . S
N135 C133 1.279 . S
C136 C133 1.358 . S
C136 C137 1.356 . S
C136 H173 0.930 . S
C137 C134 1.348 . S
C137 C136 1.356 . S
H138 C132 0.930 . S
H139 C133 0.930 . S
C140 N141 1.314 . S
C140 C142 1.353 . S
C140 H146 0.930 . S
N141 Li91 1.990 . S
N141 C140 1.314 . S
N141 C144 1.279 . S
C142 C140 1.353 . S
C142 C145 1.348 . S
C142 H174 0.929 . S
C143 C144 1.358 . S
C143 C145 1.356 . S
C143 H175 0.930 . S
C144 N141 1.279 . S
C144 C143 1.358 . S
C144 H147 0.930 . S
C145 C142 1.348 . S
C145 C143 1.356 . S
H146 C140 0.930 . S
H147 C144 0.930 . S
O148 Li88 1.956 . S
O148 Li89 1.970 . S
O148 Li90 1.961 . S
O148 C92 1.325 . S
O149 Li88 1.970 . S
O149 Li89 1.956 . S
O149 Li91 1.961 . S
O149 C98 1.325 1_655 S
O150 Li88 1.961 . S
O150 Li90 1.956 . S
O150 Li91 1.970 . S
O150 C120 1.325 . S
O151 Li89 1.961 . S
O151 Li90 1.970 . S
O151 Li91 1.956 . S
O151 C126 1.325 . S
H152 C94 0.929 . S
H153 C95 0.930 . S
H154 C96 0.930 . S
H155 C97 0.927 1_556 S
H156 C99 0.930 . S
H157 C101 0.929 . S
H158 C102 0.930 . S
H159 C103 0.930 . S
H160 C106 0.930 . S
H161 C109 0.929 . S
H162 C114 0.929 . S
H163 C115 0.930 . S
H164 C122 0.929 . S
H165 C123 0.930 . S
H166 C124 0.930 . S
H167 C125 0.930 . S
H168 C127 0.929 . S
H169 C128 0.930 . S
H170 C129 0.930 . S
H171 C130 0.930 . S
H172 C134 0.929 . S
H173 C136 0.930 . S
H174 C142 0.929 . S
H175 C143 0.930 . S
Li176 N193 1.990 . S
Li176 O236 1.956 . S
Li176 O237 1.970 . S
Li176 O238 1.961 . S
Li177 N201 1.990 . S
Li177 O236 1.970 . S
Li177 O237 1.956 . S
Li177 O239 1.961 . S
Li178 N223 1.990 . S
Li178 O236 1.961 . S
Li178 O238 1.956 . S
Li178 O239 1.970 . S
Li179 N229 1.990 . S
Li179 O237 1.961 . S
Li179 O238 1.970 . S
Li179 O239 1.956 . S
C180 C182 1.348 . S
C180 C183 1.356 . S
C180 O236 1.325 . S
N181 C184 1.314 . S
N181 C185 1.279 . S
C182 C180 1.348 . S
C182 C184 1.353 . S
C182 H240 0.929 . S
C183 C180 1.356 . S
C183 C185 1.358 . S
C183 H241 0.930 . S
C184 N181 1.314 . S
C184 C182 1.353 . S
C184 H242 0.930 . S
C185 N181 1.279 . S
C185 C183 1.358 . S
C185 H243 0.930 . S
C186 C189 1.348 . S
C186 C190 1.356 . S
C186 O237 1.325 . S
C187 N188 1.279 . S
C187 C190 1.358 . S
C187 H244 0.930 . S
N188 C187 1.279 . S
N188 C191 1.314 . S
C189 C186 1.348 . S
C189 C191 1.353 . S
C189 H245 0.929 . S
C190 C186 1.356 . S
C190 C187 1.358 . S
C190 H246 0.930 . S
C191 N188 1.314 . S
C191 C189 1.353 . S
C191 H247 0.930 . S
C192 N193 1.314 . S
C192 C197 1.353 . S
C192 H198 0.930 . S
N193 Li176 1.990 . S
N193 C192 1.314 . S
N193 C195 1.279 . S
C194 C195 1.358 . S
C194 C196 1.356 . S
C194 H248 0.930 . S
C195 N193 1.279 . S
C195 C194 1.358 . S
C195 H199 0.930 . S
C196 C194 1.356 . S
C196 C197 1.348 . S
C197 C192 1.353 . S
C197 C196 1.348 . S
C197 H249 0.929 . S
H198 C192 0.930 . S
H199 C195 0.930 . S
C200 N201 1.314 . S
C200 C202 1.353 . S
C200 H206 0.930 . S
N201 Li177 1.990 . S
N201 C200 1.314 . S
N201 C204 1.279 . S
C202 C200 1.353 . S
C202 C205 1.348 . S
C202 H250 0.929 . S
C203 C204 1.358 . S
C203 C205 1.356 . S
C203 H251 0.930 . S
C204 N201 1.279 . S
C204 C203 1.358 . S
C204 H207 0.930 . S
C205 C202 1.348 . S
C205 C203 1.356 . S
H206 C200 0.930 . S
H207 C204 0.930 . S
C208 C210 1.348 . S
C208 C211 1.356 . S
C208 O238 1.325 . S
N209 C212 1.314 1_556 S
N209 C213 1.279 1_556 S
C210 C208 1.348 . S
C210 C212 1.353 . S
C210 H252 0.929 . S
C211 C208 1.356 . S
C211 C213 1.358 . S
C211 H253 0.930 . S
C212 N209 1.314 1_554 S
C212 C210 1.353 . S
C212 H254 0.930 1_554 S
C213 N209 1.279 1_554 S
C213 C211 1.358 . S
C213 H255 0.930 1_554 S
C214 C215 1.348 . S
C214 C216 1.356 . S
C214 O239 1.325 . S
C215 C214 1.348 . S
C215 C217 1.353 . S
C215 H256 0.929 . S
C216 C214 1.356 . S
C216 C218 1.358 . S
C216 H257 0.930 . S
C217 C215 1.353 . S
C217 N219 1.314 . S
C217 H258 0.930 . S
C218 C216 1.358 . S
C218 N219 1.279 . S
C218 H259 0.930 . S
N219 C217 1.314 . S
N219 C218 1.279 . S
C220 C222 1.353 . S
C220 N223 1.314 . S
C220 H226 0.930 . S
C221 N223 1.279 . S
C221 C224 1.358 . S
C221 H227 0.930 . S
C222 C220 1.353 . S
C222 C225 1.348 . S
C222 H260 0.929 . S
N223 Li178 1.990 . S
N223 C220 1.314 . S
N223 C221 1.279 . S
C224 C221 1.358 . S
C224 C225 1.356 . S
C224 H261 0.930 . S
C225 C222 1.348 . S
C225 C224 1.356 . S
H226 C220 0.930 . S
H227 C221 0.930 . S
C228 N229 1.314 . S
C228 C230 1.353 . S
C228 H234 0.930 . S
N229 Li179 1.990 . S
N229 C228 1.314 . S
N229 C232 1.279 . S
C230 C228 1.353 . S
C230 C233 1.348 . S
C230 H262 0.929 . S
C231 C232 1.358 . S
C231 C233 1.356 . S
C231 H263 0.930 . S
C232 N229 1.279 . S
C232 C231 1.358 . S
C232 H235 0.930 . S
C233 C230 1.348 . S
C233 C231 1.356 . S
H234 C228 0.930 . S
H235 C232 0.930 . S
O236 Li176 1.956 . S
O236 Li177 1.970 . S
O236 Li178 1.961 . S
O236 C180 1.325 . S
O237 Li176 1.970 . S
O237 Li177 1.956 . S
O237 Li179 1.961 . S
O237 C186 1.325 . S
O238 Li176 1.961 . S
O238 Li178 1.956 . S
O238 Li179 1.970 . S
O238 C208 1.325 . S
O239 Li177 1.961 . S
O239 Li178 1.970 . S
O239 Li179 1.956 . S
O239 C214 1.325 . S
H240 C182 0.929 . S
H241 C183 0.930 . S
H242 C184 0.930 . S
H243 C185 0.930 . S
H244 C187 0.930 . S
H245 C189 0.929 . S
H246 C190 0.930 . S
H247 C191 0.930 . S
H248 C194 0.930 . S
H249 C197 0.929 . S
H250 C202 0.929 . S
H251 C203 0.930 . S
H252 C210 0.929 . S
H253 C211 0.930 . S
H254 C212 0.930 1_556 S
H255 C213 0.930 1_556 S
H256 C215 0.929 . S
H257 C216 0.930 . S
H258 C217 0.930 . S
H259 C218 0.930 . S
H260 C222 0.929 . S
H261 C224 0.930 . S
H262 C230 0.929 . S
H263 C231 0.930 . S
Li264 N281 1.990 . S
Li264 O324 1.956 . S
Li264 O325 1.970 . S
Li264 O326 1.961 . S
Li265 N289 1.990 1_565 S
Li265 O324 1.970 . S
Li265 O325 1.956 . S
Li265 O327 1.961 . S
Li266 N311 1.990 . S
Li266 O324 1.961 . S
Li266 O326 1.956 . S
Li266 O327 1.970 . S
Li267 N317 1.990 . S
Li267 O325 1.961 . S
Li267 O326 1.970 . S
Li267 O327 1.956 . S
C268 C270 1.348 . S
C268 C271 1.356 1_545 S
C268 O324 1.325 1_545 S
N269 C272 1.314 . S
N269 C273 1.279 . S
C270 C268 1.348 . S
C270 C272 1.353 . S
C270 H328 0.929 . S
C271 C268 1.356 1_565 S
C271 C273 1.358 1_565 S
C271 H329 0.930 . S
C272 N269 1.314 . S
C272 C270 1.353 . S
C272 H330 0.930 . S
C273 N269 1.279 . S
C273 C271 1.358 1_545 S
C273 H331 0.930 . S
C274 C277 1.348 . S
C274 C278 1.356 . S
C274 O325 1.325 . S
C275 N276 1.270 1_556 S
C275 C278 1.381 . S
C275 H332 0.917 1_556 S
N276 C275 1.270 1_554 S
N276 C279 1.314 1_554 S
C277 C274 1.348 . S
C277 C279 1.353 . S
C277 H333 0.929 . S
C278 C274 1.356 . S
C278 C275 1.381 . S
C278 H334 0.930 . S
C279 N276 1.314 1_556 S
C279 C277 1.353 . S
C279 H335 0.964 . S
C280 N281 1.314 . S
C280 C285 1.353 . S
C280 H286 0.930 . S
N281 Li264 1.990 . S
N281 C280 1.314 . S
N281 C283 1.279 . S
C282 C283 1.358 . S
C282 C284 1.356 . S
C282 H336 0.930 1_565 S
C283 N281 1.279 . S
C283 C282 1.358 . S
C283 H287 0.955 . S
C284 C282 1.356 . S
C284 C285 1.348 . S
C285 C280 1.353 . S
C285 C284 1.348 . S
C285 H337 0.929 . S
H286 C280 0.930 . S
H287 C283 0.955 . S
C288 N289 1.314 . S
C288 C290 1.353 . S
C288 H294 0.930 . S
N289 Li265 1.990 1_545 S
N289 C288 1.314 . S
N289 C292 1.279 . S
C290 C288 1.353 . S
C290 C293 1.348 . S
C290 H338 0.929 . S
C291 C292 1.358 . S
C291 C293 1.356 . S
C291 H339 0.930 . S
C292 N289 1.279 . S
C292 C291 1.358 . S
C292 H295 0.930 . S
C293 C290 1.348 . S
C293 C291 1.356 . S
H294 C288 0.930 . S
H295 C292 0.930 . S
C296 C298 1.348 . S
C296 C299 1.356 . S
C296 O326 1.325 . S
N297 C300 1.314 . S
N297 C301 1.279 . S
C298 C296 1.348 . S
C298 C300 1.353 . S
C298 H340 0.929 . S
C299 C296 1.356 . S
C299 C301 1.358 . S
C299 H341 0.930 . S
C300 N297 1.314 . S
C300 C298 1.353 . S
C300 H342 0.930 . S
C301 N297 1.279 . S
C301 C299 1.358 . S
C301 H343 0.930 . S
C302 C303 1.348 . S
C302 C304 1.356 . S
C302 O327 1.325 . S
C303 C302 1.348 . S
C303 C305 1.353 . S
C303 H344 0.929 . S
C304 C302 1.356 . S
C304 C306 1.358 . S
C304 H345 0.930 . S
C305 C303 1.353 . S
C305 N307 1.314 . S
C305 H346 0.930 . S
C306 C304 1.358 . S
C306 N307 1.279 . S
C306 H347 0.930 . S
N307 C305 1.314 . S
N307 C306 1.279 . S
C308 C310 1.353 . S
C308 N311 1.314 . S
C308 H314 0.930 . S
C309 N311 1.279 . S
C309 C312 1.358 . S
C309 H315 0.930 . S
C310 C308 1.353 . S
C310 C313 1.348 . S
C310 H348 0.929 . S
N311 Li266 1.990 . S
N311 C308 1.314 . S
N311 C309 1.279 . S
C312 C309 1.358 . S
C312 C313 1.356 . S
C312 H349 0.930 . S
C313 C310 1.348 . S
C313 C312 1.356 . S
H314 C308 0.930 . S
H315 C309 0.930 . S
C316 N317 1.314 . S
C316 C318 1.353 . S
C316 H322 0.930 . S
N317 Li267 1.990 . S
N317 C316 1.314 . S
N317 C320 1.279 . S
C318 C316 1.353 . S
C318 C321 1.348 . S
C318 H350 0.929 . S
C319 C320 1.358 . S
C319 C321 1.356 . S
C319 H351 0.930 . S
C320 N317 1.279 . S
C320 C319 1.358 . S
C320 H323 0.930 . S
C321 C318 1.348 . S
C321 C319 1.356 . S
H322 C316 0.930 . S
H323 C320 0.930 . S
O324 Li264 1.956 . S
O324 Li265 1.970 . S
O324 Li266 1.961 . S
O324 C268 1.325 1_565 S
O325 Li264 1.970 . S
O325 Li265 1.956 . S
O325 Li267 1.961 . S
O325 C274 1.325 . S
O326 Li264 1.961 . S
O326 Li266 1.956 . S
O326 Li267 1.970 . S
O326 C296 1.325 . S
O327 Li265 1.961 . S
O327 Li266 1.970 . S
O327 Li267 1.956 . S
O327 C302 1.325 . S
H328 C270 0.929 . S
H329 C271 0.930 . S
H330 C272 0.930 . S
H331 C273 0.930 . S
H332 C275 0.917 1_554 S
H333 C277 0.929 . S
H334 C278 0.930 . S
H335 C279 0.964 . S
H336 C282 0.930 1_545 S
H337 C285 0.929 . S
H338 C290 0.929 . S
H339 C291 0.930 . S
H340 C298 0.929 . S
H341 C299 0.930 . S
H342 C300 0.930 . S
H343 C301 0.930 . S
H344 C303 0.929 . S
H345 C304 0.930 . S
H346 C305 0.930 . S
H347 C306 0.930 . S
H348 C310 0.929 . S
H349 C312 0.930 . S
H350 C318 0.929 . S
H351 C319 0.930 . S
Li352 N369 1.990 . S
Li352 O412 1.956 . S
Li352 O413 1.970 . S
Li352 O414 1.961 . S
Li353 N377 1.990 . S
Li353 O412 1.970 . S
Li353 O413 1.956 . S
Li353 O415 1.961 . S
Li354 N399 1.990 . S
Li354 O412 1.961 . S
Li354 O414 1.956 . S
Li354 O415 1.970 . S
Li355 N405 1.990 1_455 S
Li355 O413 1.961 . S
Li355 O414 1.970 . S
Li355 O415 1.956 . S
C356 C358 1.348 . S
C356 C359 1.356 . S
C356 O412 1.325 . S
N357 C360 1.314 . S
N357 C361 1.279 . S
C358 C356 1.348 . S
C358 C360 1.353 . S
C358 H416 0.929 . S
C359 C356 1.356 . S
C359 C361 1.358 . S
C359 H417 0.930 . S
C360 N357 1.314 . S
C360 C358 1.353 . S
C360 H418 0.930 . S
C361 N357 1.279 . S
C361 C359 1.358 . S
C361 H419 0.930 . S
C362 C365 1.348 . S
C362 C366 1.356 . S
C362 O413 1.325 . S
C363 N364 1.279 . S
C363 C366 1.358 . S
C363 H420 0.930 . S
N364 C363 1.279 . S
N364 C367 1.314 . S
C365 C362 1.348 . S
C365 C367 1.353 . S
C365 H421 0.929 . S
C366 C362 1.356 . S
C366 C363 1.358 . S
C366 H422 0.930 . S
C367 N364 1.314 . S
C367 C365 1.353 . S
C367 H423 0.930 . S
C368 N369 1.314 . S
C368 C373 1.353 . S
C368 H374 0.930 . S
N369 Li352 1.990 . S
N369 C368 1.314 . S
N369 C371 1.279 . S
C370 C371 1.358 . S
C370 C372 1.356 . S
C370 H424 0.930 . S
C371 N369 1.279 . S
C371 C370 1.358 . S
C371 H375 0.930 . S
C372 C370 1.356 . S
C372 C373 1.348 . S
C373 C368 1.353 . S
C373 C372 1.348 . S
C373 H425 0.929 . S
H374 C368 0.930 . S
H375 C371 0.930 . S
C376 N377 1.314 . S
C376 C378 1.353 . S
C376 H382 0.930 . S
N377 Li353 1.990 . S
N377 C376 1.314 . S
N377 C380 1.279 . S
C378 C376 1.353 . S
C378 C381 1.348 . S
C378 H426 0.929 . S
C379 C380 1.358 . S
C379 C381 1.356 . S
C379 H427 0.930 . S
C380 N377 1.279 . S
C380 C379 1.358 . S
C380 H383 0.930 . S
C381 C378 1.348 . S
C381 C379 1.356 . S
H382 C376 0.930 . S
H383 C380 0.930 . S
C384 C386 1.348 . S
C384 C387 1.362 . S
C384 O414 1.325 1_655 S
N385 C388 1.314 . S
N385 C389 1.279 . S
C386 C384 1.348 . S
C386 C388 1.353 . S
C386 H428 0.929 . S
C387 C384 1.362 . S
C387 C389 1.363 . S
C387 H429 0.920 1_655 S
C388 N385 1.314 . S
C388 C386 1.353 . S
C388 H430 0.930 . S
C389 N385 1.279 . S
C389 C387 1.363 . S
C389 H431 0.930 . S
C390 C391 1.348 . S
C390 C392 1.356 . S
C390 O415 1.325 . S
C391 C390 1.348 . S
C391 C393 1.353 . S
C391 H432 0.929 . S
C392 C390 1.356 . S
C392 C394 1.399 . S
C392 H433 0.930 . S
C393 C391 1.353 . S
C393 N395 1.314 1_556 S
C393 H434 0.930 1_455 S
C394 C392 1.399 . S
C394 N395 1.263 1_556 S
C394 H435 0.906 1_556 S
N395 C393 1.314 1_554 S
N395 C394 1.263 1_554 S
C396 C398 1.353 . S
C396 N399 1.314 . S
C396 H402 0.930 . S
C397 N399 1.279 . S
C397 C400 1.358 . S
C397 H403 0.930 1_455 S
C398 C396 1.353 . S
C398 C401 1.348 . S
C398 H436 0.929 . S
N399 Li354 1.990 . S
N399 C396 1.314 . S
N399 C397 1.279 . S
C400 C397 1.358 . S
C400 C401 1.356 . S
C400 H437 0.930 1_455 S
C401 C398 1.348 . S
C401 C400 1.356 . S
H402 C396 0.930 . S
H403 C397 0.930 1_655 S
C404 N405 1.314 . S
C404 C406 1.353 . S
C404 H410 0.930 . S
N405 Li355 1.990 1_655 S
N405 C404 1.314 . S
N405 C408 1.279 . S
C406 C404 1.353 . S
C406 C409 1.348 . S
C406 H438 0.929 . S
C407 C408 1.358 . S
C407 C409 1.356 . S
C407 H439 0.930 . S
C408 N405 1.279 . S
C408 C407 1.358 . S
C408 H411 0.930 . S
C409 C406 1.348 . S
C409 C407 1.356 . S
H410 C404 0.930 . S
H411 C408 0.930 . S
O412 Li352 1.956 . S
O412 Li353 1.970 . S
O412 Li354 1.961 . S
O412 C356 1.325 . S
O413 Li352 1.970 . S
O413 Li353 1.956 . S
O413 Li355 1.961 . S
O413 C362 1.325 . S
O414 Li352 1.961 . S
O414 Li354 1.956 . S
O414 Li355 1.970 . S
O414 C384 1.325 1_455 S
O415 Li353 1.961 . S
O415 Li354 1.970 . S
O415 Li355 1.956 . S
O415 C390 1.325 . S
H416 C358 0.929 . S
H417 C359 0.930 . S
H418 C360 0.930 . S
H419 C361 0.930 . S
H420 C363 0.930 . S
H421 C365 0.929 . S
H422 C366 0.930 . S
H423 C367 0.930 . S
H424 C370 0.930 . S
H425 C373 0.929 . S
H426 C378 0.929 . S
H427 C379 0.930 . S
H428 C386 0.929 . S
H429 C387 0.920 1_455 S
H430 C388 0.930 . S
H431 C389 0.930 . S
H432 C391 0.929 . S
H433 C392 0.930 . S
H434 C393 0.930 1_655 S
H435 C394 0.906 1_554 S
H436 C398 0.929 . S
H437 C400 0.930 1_655 S
H438 C406 0.929 . S
H439 C407 0.930 . S
Li440 N457 1.990 . S
Li440 O500 1.956 . S
Li440 O501 1.970 . S
Li440 O502 1.961 . S
Li441 N465 1.990 . S
Li441 O500 1.970 . S
Li441 O501 1.956 . S
Li441 O503 1.961 . S
Li442 N487 1.990 . S
Li442 O500 1.961 . S
Li442 O502 1.956 . S
Li442 O503 1.970 . S
Li443 N493 1.990 . S
Li443 O501 1.961 . S
Li443 O502 1.970 . S
Li443 O503 1.956 . S
C444 C446 1.348 . S
C444 C447 1.356 . S
C444 O500 1.325 . S
N445 C448 1.314 1_554 S
N445 C449 1.279 1_554 S
C446 C444 1.348 . S
C446 C448 1.353 . S
C446 H504 0.929 . S
C447 C444 1.356 . S
C447 C449 1.358 . S
C447 H505 0.930 . S
C448 N445 1.314 1_556 S
C448 C446 1.353 . S
C448 H506 0.930 . S
C449 N445 1.279 1_556 S
C449 C447 1.358 . S
C449 H507 0.930 1_556 S
C450 C453 1.348 . S
C450 C454 1.356 . S
C450 O501 1.325 . S
C451 N452 1.279 . S
C451 C454 1.358 . S
C451 H508 0.930 . S
N452 C451 1.279 . S
N452 C455 1.314 . S
C453 C450 1.348 . S
C453 C455 1.353 . S
C453 H509 0.929 . S
C454 C450 1.356 . S
C454 C451 1.358 . S
C454 H510 0.930 . S
C455 N452 1.314 . S
C455 C453 1.353 . S
C455 H511 0.930 . S
C456 N457 1.314 . S
C456 C461 1.353 . S
C456 H462 0.930 . S
N457 Li440 1.990 . S
N457 C456 1.314 . S
N457 C459 1.279 . S
C458 C459 1.358 . S
C458 C460 1.356 . S
C458 H512 0.930 . S
C459 N457 1.279 . S
C459 C458 1.358 . S
C459 H463 0.930 . S
C460 C458 1.356 . S
C460 C461 1.348 . S
C461 C456 1.353 . S
C461 C460 1.348 . S
C461 H513 0.929 . S
H462 C456 0.930 . S
H463 C459 0.930 . S
C464 N465 1.314 . S
C464 C466 1.353 . S
C464 H470 0.930 . S
N465 Li441 1.990 . S
N465 C464 1.314 . S
N465 C468 1.279 . S
C466 C464 1.353 . S
C466 C469 1.348 . S
C466 H514 0.929 . S
C467 C468 1.358 . S
C467 C469 1.356 . S
C467 H515 0.930 . S
C468 N465 1.279 . S
C468 C467 1.358 . S
C468 H471 0.930 . S
C469 C466 1.348 . S
C469 C467 1.356 . S
H470 C464 0.930 . S
H471 C468 0.930 . S
C472 C474 1.348 . S
C472 C475 1.356 . S
C472 O502 1.325 . S
N473 C476 1.314 . S
N473 C477 1.279 . S
C474 C472 1.348 . S
C474 C476 1.353 . S
C474 H516 0.929 . S
C475 C472 1.356 . S
C475 C477 1.358 . S
C475 H517 0.930 . S
C476 N473 1.314 . S
C476 C474 1.353 . S
C476 H518 0.930 . S
C477 N473 1.279 . S
C477 C475 1.358 . S
C477 H519 0.930 . S
C478 C479 1.348 . S
C478 C480 1.356 . S
C478 O503 1.325 . S
C479 C478 1.348 . S
C479 C481 1.353 . S
C479 H520 0.929 . S
C480 C478 1.356 . S
C480 C482 1.358 . S
C480 H521 0.930 . S
C481 C479 1.353 . S
C481 N483 1.314 . S
C481 H522 0.930 . S
C482 C480 1.358 . S
C482 N483 1.279 . S
C482 H523 0.930 . S
N483 C481 1.314 . S
N483 C482 1.279 . S
C484 C486 1.353 . S
C484 N487 1.314 . S
C484 H490 0.930 . S
C485 N487 1.279 . S
C485 C488 1.358 . S
C485 H491 0.930 . S
C486 C484 1.353 . S
C486 C489 1.348 . S
C486 H524 0.929 . S
N487 Li442 1.990 . S
N487 C484 1.314 . S
N487 C485 1.279 . S
C488 C485 1.358 . S
C488 C489 1.356 . S
C488 H525 0.930 . S
C489 C486 1.348 . S
C489 C488 1.356 . S
H490 C484 0.930 . S
H491 C485 0.930 . S
C492 N493 1.314 . S
C492 C494 1.353 . S
C492 H498 0.930 . S
N493 Li443 1.990 . S
N493 C492 1.314 . S
N493 C496 1.279 . S
C494 C492 1.353 . S
C494 C497 1.348 . S
C494 H526 0.929 . S
C495 C496 1.358 . S
C495 C497 1.356 . S
C495 H527 0.930 . S
C496 N493 1.279 . S
C496 C495 1.358 . S
C496 H499 0.930 . S
C497 C494 1.348 . S
C497 C495 1.356 . S
H498 C492 0.930 . S
H499 C496 0.930 . S
O500 Li440 1.956 . S
O500 Li441 1.970 . S
O500 Li442 1.961 . S
O500 C444 1.325 . S
O501 Li440 1.970 . S
O501 Li441 1.956 . S
O501 Li443 1.961 . S
O501 C450 1.325 . S
O502 Li440 1.961 . S
O502 Li442 1.956 . S
O502 Li443 1.970 . S
O502 C472 1.325 . S
O503 Li441 1.961 . S
O503 Li442 1.970 . S
O503 Li443 1.956 . S
O503 C478 1.325 . S
H504 C446 0.929 . S
H505 C447 0.930 . S
H506 C448 0.930 . S
H507 C449 0.930 1_554 S
H508 C451 0.930 . S
H509 C453 0.929 . S
H510 C454 0.930 . S
H511 C455 0.930 . S
H512 C458 0.930 . S
H513 C461 0.929 . S
H514 C466 0.929 . S
H515 C467 0.930 . S
H516 C474 0.929 . S
H517 C475 0.930 . S
H518 C476 0.930 . S
H519 C477 0.930 . S
H520 C479 0.929 . S
H521 C480 0.930 . S
H522 C481 0.930 . S
H523 C482 0.930 . S
H524 C486 0.929 . S
H525 C488 0.930 . S
H526 C494 0.929 . S
H527 C495 0.930 . S
Li528 N545 1.981 . S
Li528 O588 1.974 . S
Li528 O589 1.957 1_455 S
Li528 O590 1.971 1_455 S
Li529 N553 1.997 . S
Li529 O588 1.950 1_655 S
Li529 O589 1.986 . S
Li529 O591 1.940 1_655 S
Li530 N575 1.990 . S
Li530 O588 1.961 . S
Li530 O590 1.956 1_455 S
Li530 O591 1.970 . S
Li531 N581 1.990 . S
Li531 O589 1.961 . S
Li531 O590 1.970 . S
Li531 O591 1.956 1_655 S
C532 C534 1.348 . S
C532 C535 1.356 . S
C532 O588 1.325 . S
N533 C536 1.314 . S
N533 C537 1.279 . S
C534 C532 1.348 . S
C534 C536 1.353 . S
C534 H592 0.929 . S
C535 C532 1.356 . S
C535 C537 1.358 . S
C535 H593 0.930 . S
C536 N533 1.314 . S
C536 C534 1.353 . S
C536 H594 0.930 . S
C537 N533 1.279 . S
C537 C535 1.358 . S
C537 H595 0.930 . S
C538 C541 1.348 . S
C538 C542 1.356 . S
C538 O589 1.325 . S
C539 N540 1.279 . S
C539 C542 1.358 . S
C539 H596 0.930 . S
N540 C539 1.279 . S
N540 C543 1.314 . S
C541 C538 1.348 . S
C541 C543 1.353 . S
C541 H597 0.929 . S
C542 C538 1.356 . S
C542 C539 1.358 . S
C542 H598 0.930 . S
C543 N540 1.314 . S
C543 C541 1.353 . S
C543 H599 0.930 . S
C544 N545 1.314 1_655 S
C544 C549 1.353 . S
C544 H550 0.930 . S
N545 Li528 1.981 . S
N545 C544 1.314 1_455 S
N545 C547 1.279 . S
C546 C547 1.358 . S
C546 C548 1.356 1_455 S
C546 H600 0.930 . S
C547 N545 1.279 . S
C547 C546 1.358 . S
C547 H551 0.930 . S
C548 C546 1.356 1_655 S
C548 C549 1.348 . S
C549 C544 1.353 . S
C549 C548 1.348 . S
C549 H601 0.929 . S
H550 C544 0.930 . S
H551 C547 0.930 . S
C552 N553 1.314 1_455 S
C552 C554 1.353 . S
C552 H558 0.930 . S
N553 Li529 1.997 . S
N553 C552 1.314 1_655 S
N553 C556 1.279 . S
C554 C552 1.353 . S
C554 C557 1.348 . S
C554 H602 0.929 . S
C555 C556 1.358 . S
C555 C557 1.356 1_655 S
C555 H603 0.930 . S
C556 N553 1.279 . S
C556 C555 1.358 . S
C556 H559 0.930 . S
C557 C554 1.348 . S
C557 C555 1.356 1_455 S
H558 C552 0.930 . S
H559 C556 0.930 . S
C560 C562 1.349 . S
C560 C563 1.351 1_655 S
C560 O590 1.328 . S
N561 C564 1.314 1_455 S
N561 C565 1.279 . S
C562 C560 1.349 . S
C562 C564 1.353 . S
C562 H604 0.929 . S
C563 C560 1.351 1_455 S
C563 C565 1.358 . S
C563 H605 0.930 . S
C564 N561 1.314 1_655 S
C564 C562 1.353 . S
C564 H606 0.930 . S
C565 N561 1.279 . S
C565 C563 1.358 . S
C565 H607 0.930 . S
C566 C567 1.348 . S
C566 C568 1.356 1_455 S
C566 O591 1.325 . S
C567 C566 1.348 . S
C567 C569 1.353 . S
C567 H608 0.929 . S
C568 C566 1.356 1_655 S
C568 C570 1.358 . S
C568 H609 0.930 . S
C569 C567 1.353 . S
C569 N571 1.310 1_455 S
C569 H610 0.930 . S
C570 C568 1.358 . S
C570 N571 1.289 . S
C570 H611 0.930 . S
N571 C569 1.310 1_655 S
N571 C570 1.289 . S
C572 C574 1.353 . S
C572 N575 1.314 . S
C572 H578 0.930 . S
C573 N575 1.279 . S
C573 C576 1.358 . S
C573 H579 0.930 . S
C574 C572 1.353 . S
C574 C577 1.348 . S
C574 H612 0.929 . S
N575 Li530 1.990 . S
N575 C572 1.314 . S
N575 C573 1.279 . S
C576 C573 1.358 . S
C576 C577 1.356 . S
C576 H613 0.930 . S
C577 C574 1.348 . S
C577 C576 1.356 . S
H578 C572 0.930 . S
H579 C573 0.930 . S
C580 N581 1.314 . S
C580 C582 1.353 . S
C580 H586 0.930 . S
N581 Li531 1.990 . S
N581 C580 1.314 . S
N581 C584 1.279 . S
C582 C580 1.353 . S
C582 C585 1.348 . S
C582 H614 0.929 . S
C583 C584 1.358 . S
C583 C585 1.356 . S
C583 H615 0.930 . S
C584 N581 1.279 . S
C584 C583 1.358 . S
C584 H587 0.930 . S
C585 C582 1.348 . S
C585 C583 1.356 . S
H586 C580 0.930 . S
H587 C584 0.930 . S
O588 Li528 1.974 . S
O588 Li529 1.950 1_455 S
O588 Li530 1.961 . S
O588 C532 1.325 . S
O589 Li528 1.957 1_655 S
O589 Li529 1.986 . S
O589 Li531 1.961 . S
O589 C538 1.325 . S
O590 Li528 1.971 1_655 S
O590 Li530 1.956 1_655 S
O590 Li531 1.970 . S
O590 C560 1.328 . S
O591 Li529 1.940 1_455 S
O591 Li530 1.970 . S
O591 Li531 1.956 1_455 S
O591 C566 1.325 . S
H592 C534 0.929 . S
H593 C535 0.930 . S
H594 C536 0.930 . S
H595 C537 0.930 . S
H596 C539 0.930 . S
H597 C541 0.929 . S
H598 C542 0.930 . S
H599 C543 0.930 . S
H600 C546 0.930 . S
H601 C549 0.929 . S
H602 C554 0.929 . S
H603 C555 0.930 . S
H604 C562 0.929 . S
H605 C563 0.930 . S
H606 C564 0.930 . S
H607 C565 0.930 . S
H608 C567 0.929 . S
H609 C568 0.930 . S
H610 C569 0.930 . S
H611 C570 0.930 . S
H612 C574 0.929 . S
H613 C576 0.930 . S
H614 C582 0.929 . S
H615 C583 0.930 . S
Li616 N633 1.990 . S
Li616 O676 1.956 . S
Li616 O677 1.970 . S
Li616 O678 1.961 . S
Li617 N641 1.990 . S
Li617 O676 1.970 . S
Li617 O677 1.956 . S
Li617 O679 1.961 . S
Li618 N663 1.990 . S
Li618 O676 1.961 . S
Li618 O678 1.956 . S
Li618 O679 1.970 . S
Li619 N669 1.990 . S
Li619 O677 1.961 . S
Li619 O678 1.970 . S
Li619 O679 1.956 . S
C620 C622 1.348 . S
C620 C623 1.356 . S
C620 O676 1.325 . S
N621 C624 1.314 . S
N621 C625 1.279 . S
C622 C620 1.348 . S
C622 C624 1.353 . S
C622 H680 0.929 . S
C623 C620 1.356 . S
C623 C625 1.358 . S
C623 H681 0.930 . S
C624 N621 1.314 . S
C624 C622 1.353 . S
C624 H682 0.930 . S
C625 N621 1.279 . S
C625 C623 1.358 . S
C625 H683 0.930 . S
C626 C629 1.348 . S
C626 C630 1.356 . S
C626 O677 1.325 . S
C627 N628 1.279 . S
C627 C630 1.358 . S
C627 H684 0.930 . S
N628 C627 1.279 . S
N628 C631 1.314 . S
C629 C626 1.348 . S
C629 C631 1.353 . S
C629 H685 0.929 . S
C630 C626 1.356 . S
C630 C627 1.358 . S
C630 H686 0.930 . S
C631 N628 1.314 . S
C631 C629 1.353 . S
C631 H687 0.930 . S
C632 N633 1.314 . S
C632 C637 1.353 . S
C632 H638 0.930 . S
N633 Li616 1.990 . S
N633 C632 1.314 . S
N633 C635 1.279 . S
C634 C635 1.358 . S
C634 C636 1.356 . S
C634 H688 0.930 . S
C635 N633 1.279 . S
C635 C634 1.358 . S
C635 H639 0.930 . S
C636 C634 1.356 . S
C636 C637 1.348 . S
C637 C632 1.353 . S
C637 C636 1.348 . S
C637 H689 0.929 . S
H638 C632 0.930 . S
H639 C635 0.930 . S
C640 N641 1.314 . S
C640 C642 1.353 . S
C640 H646 0.930 . S
N641 Li617 1.990 . S
N641 C640 1.314 . S
N641 C644 1.279 . S
C642 C640 1.353 . S
C642 C645 1.348 . S
C642 H690 0.929 . S
C643 C644 1.358 . S
C643 C645 1.356 . S
C643 H691 0.930 . S
C644 N641 1.279 . S
C644 C643 1.358 . S
C644 H647 0.930 . S
C645 C642 1.348 . S
C645 C643 1.356 . S
H646 C640 0.930 . S
H647 C644 0.930 . S
C648 C650 1.348 . S
C648 C651 1.356 . S
C648 O678 1.325 . S
N649 C652 1.314 . S
N649 C653 1.279 . S
C650 C648 1.348 . S
C650 C652 1.353 . S
C650 H692 0.929 . S
C651 C648 1.356 . S
C651 C653 1.358 . S
C651 H693 0.930 . S
C652 N649 1.314 . S
C652 C650 1.353 . S
C652 H694 0.930 . S
C653 N649 1.279 . S
C653 C651 1.358 . S
C653 H695 0.930 . S
C654 C655 1.348 . S
C654 C656 1.356 . S
C654 O679 1.325 . S
C655 C654 1.348 . S
C655 C657 1.353 . S
C655 H696 0.929 . S
C656 C654 1.356 . S
C656 C658 1.358 . S
C656 H697 0.930 . S
C657 C655 1.353 . S
C657 N659 1.314 . S
C657 H698 0.930 . S
C658 C656 1.358 . S
C658 N659 1.279 . S
C658 H699 0.930 . S
N659 C657 1.314 . S
N659 C658 1.279 . S
C660 C662 1.353 . S
C660 N663 1.314 . S
C660 H666 0.930 . S
C661 N663 1.279 . S
C661 C664 1.358 . S
C661 H667 0.930 . S
C662 C660 1.353 . S
C662 C665 1.348 . S
C662 H700 0.929 . S
N663 Li618 1.990 . S
N663 C660 1.314 . S
N663 C661 1.279 . S
C664 C661 1.358 . S
C664 C665 1.356 . S
C664 H701 0.930 . S
C665 C662 1.348 . S
C665 C664 1.356 . S
H666 C660 0.930 . S
H667 C661 0.930 . S
C668 N669 1.314 . S
C668 C670 1.353 . S
C668 H674 0.930 . S
N669 Li619 1.990 . S
N669 C668 1.314 . S
N669 C672 1.279 . S
C670 C668 1.353 . S
C670 C673 1.348 . S
C670 H702 0.929 . S
C671 C672 1.358 . S
C671 C673 1.356 . S
C671 H703 0.930 . S
C672 N669 1.279 . S
C672 C671 1.358 . S
C672 H675 0.930 . S
C673 C670 1.348 . S
C673 C671 1.356 . S
H674 C668 0.930 . S
H675 C672 0.930 . S
O676 Li616 1.956 . S
O676 Li617 1.970 . S
O676 Li618 1.961 . S
O676 C620 1.325 . S
O677 Li616 1.970 . S
O677 Li617 1.956 . S
O677 Li619 1.961 . S
O677 C626 1.325 . S
O678 Li616 1.961 . S
O678 Li618 1.956 . S
O678 Li619 1.970 . S
O678 C648 1.325 . S
O679 Li617 1.961 . S
O679 Li618 1.970 . S
O679 Li619 1.956 . S
O679 C654 1.325 . S
H680 C622 0.929 . S
H681 C623 0.930 . S
H682 C624 0.930 . S
H683 C625 0.930 . S
H684 C627 0.930 . S
H685 C629 0.929 . S
H686 C630 0.930 . S
H687 C631 0.930 . S
H688 C634 0.930 . S
H689 C637 0.929 . S
H690 C642 0.929 . S
H691 C643 0.930 . S
H692 C650 0.929 . S
H693 C651 0.930 . S
H694 C652 0.930 . S
H695 C653 0.930 . S
H696 C655 0.929 . S
H697 C656 0.930 . S
H698 C657 0.930 . S
H699 C658 0.930 . S
H700 C662 0.929 . S
H701 C664 0.930 . S
H702 C670 0.929 . S
H703 C671 0.930 . S
Li704 N721 1.990 . S
Li704 O764 1.956 . S
Li704 O765 1.957 1_545 S
Li704 O766 1.956 . S
Li705 N729 1.999 . S
Li705 O764 1.946 1_565 S
Li705 O765 1.947 . S
Li705 O767 2.000 . S
Li706 N751 1.971 . S
Li706 O764 2.001 . S
Li706 O766 1.985 . S
Li706 O767 1.938 1_545 S
Li707 N757 1.990 . S
Li707 O765 1.984 . S
Li707 O766 1.974 1_565 S
Li707 O767 1.956 . S
C708 C710 1.348 . S
C708 C711 1.356 . S
C708 O764 1.325 . S
N709 C712 1.314 . S
N709 C713 1.279 . S
C710 C708 1.348 . S
C710 C712 1.353 . S
C710 H768 0.929 . S
C711 C708 1.356 . S
C711 C713 1.358 . S
C711 H769 0.930 . S
C712 N709 1.314 . S
C712 C710 1.353 . S
C712 H770 0.930 . S
C713 N709 1.279 . S
C713 C711 1.358 . S
C713 H771 0.930 . S
C714 C717 1.348 1_565 S
C714 C718 1.356 . S
C714 O765 1.314 . S
C715 N716 1.279 . S
C715 C718 1.358 . S
C715 H772 0.930 . S
N716 C715 1.279 . S
N716 C719 1.314 1_565 S
C717 C714 1.348 1_545 S
C717 C719 1.353 . S
C717 H773 0.929 . S
C718 C714 1.356 . S
C718 C715 1.358 . S
C718 H774 0.930 . S
C719 N716 1.314 1_545 S
C719 C717 1.353 . S
C719 H775 0.930 . S
C720 N721 1.314 . S
C720 C725 1.353 . S
C720 H726 0.930 . S
N721 Li704 1.990 . S
N721 C720 1.314 . S
N721 C723 1.279 . S
C722 C723 1.358 . S
C722 C724 1.356 . S
C722 H776 0.930 . S
C723 N721 1.279 . S
C723 C722 1.358 . S
C723 H727 0.930 . S
C724 C722 1.356 . S
C724 C725 1.348 . S
C725 C720 1.353 . S
C725 C724 1.348 . S
C725 H777 0.929 . S
H726 C720 0.930 . S
H727 C723 0.930 . S
C728 N729 1.314 . S
C728 C730 1.353 . S
C728 H734 0.930 . S
N729 Li705 1.999 . S
N729 C728 1.314 . S
N729 C732 1.279 1_565 S
C730 C728 1.353 . S
C730 C733 1.348 . S
C730 H778 0.929 . S
C731 C732 1.358 . S
C731 C733 1.356 1_545 S
C731 H779 0.930 . S
C732 N729 1.279 1_545 S
C732 C731 1.358 . S
C732 H735 0.930 . S
C733 C730 1.348 . S
C733 C731 1.356 1_565 S
H734 C728 0.930 . S
H735 C732 0.930 . S
C736 C738 1.327 1_545 S
C736 C739 1.380 . S
C736 O766 1.320 . S
N737 C740 1.314 1_545 S
N737 C741 1.279 . S
C738 C736 1.327 1_565 S
C738 C740 1.353 . S
C738 H780 0.929 . S
C739 C736 1.380 . S
C739 C741 1.358 . S
C739 H781 0.930 . S
C740 N737 1.314 1_565 S
C740 C738 1.353 . S
C740 H782 0.930 . S
C741 N737 1.279 . S
C741 C739 1.358 . S
C741 H783 0.930 . S
C742 C743 1.348 . S
C742 C744 1.356 . S
C742 O767 1.325 . S
C743 C742 1.348 . S
C743 C745 1.353 . S
C743 H784 0.929 . S
C744 C742 1.356 . S
C744 C746 1.358 . S
C744 H785 0.930 . S
C745 C743 1.353 . S
C745 N747 1.314 . S
C745 H786 0.930 . S
C746 C744 1.358 . S
C746 N747 1.279 . S
C746 H787 0.930 . S
N747 C745 1.314 . S
N747 C746 1.279 . S
C748 C750 1.353 . S
C748 N751 1.314 . S
C748 H754 0.930 . S
C749 N751 1.279 1_565 S
C749 C752 1.358 . S
C749 H755 0.930 . S
C750 C748 1.353 . S
C750 C753 1.348 . S
C750 H788 0.929 . S
N751 Li706 1.971 . S
N751 C748 1.314 . S
N751 C749 1.279 1_545 S
C752 C749 1.358 . S
C752 C753 1.356 1_565 S
C752 H789 0.930 . S
C753 C750 1.348 . S
C753 C752 1.356 1_545 S
H754 C748 0.930 . S
H755 C749 0.930 . S
C756 N757 1.314 . S
C756 C758 1.353 . S
C756 H762 0.930 . S
N757 Li707 1.990 . S
N757 C756 1.314 . S
N757 C760 1.279 . S
C758 C756 1.353 . S
C758 C761 1.348 . S
C758 H790 0.929 . S
C759 C760 1.358 . S
C759 C761 1.356 . S
C759 H791 0.930 . S
C760 N757 1.279 . S
C760 C759 1.358 . S
C760 H763 0.930 . S
C761 C758 1.348 . S
C761 C759 1.356 . S
H762 C756 0.930 . S
H763 C760 0.930 . S
O764 Li704 1.956 . S
O764 Li705 1.946 1_545 S
O764 Li706 2.001 . S
O764 C708 1.325 . S
O765 Li704 1.957 1_565 S
O765 Li705 1.947 . S
O765 Li707 1.984 . S
O765 C714 1.314 . S
O766 Li704 1.956 . S
O766 Li706 1.985 . S
O766 Li707 1.974 1_545 S
O766 C736 1.320 . S
O767 Li705 2.000 . S
O767 Li706 1.938 1_565 S
O767 Li707 1.956 . S
O767 C742 1.325 . S
H768 C710 0.929 . S
H769 C711 0.930 . S
H770 C712 0.930 . S
H771 C713 0.930 . S
H772 C715 0.930 . S
H773 C717 0.929 . S
H774 C718 0.930 . S
H775 C719 0.930 . S
H776 C722 0.930 . S
H777 C725 0.929 . S
H778 C730 0.929 . S
H779 C731 0.930 . S
H780 C738 0.929 . S
H781 C739 0.930 . S
H782 C740 0.930 . S
H783 C741 0.930 . S
H784 C743 0.929 . S
H785 C744 0.930 . S
H786 C745 0.930 . S
H787 C746 0.930 . S
H788 C750 0.929 . S
H789 C752 0.930 . S
H790 C758 0.929 . S
H791 C759 0.930 . S
Li792 N809 1.990 . S
Li792 O852 1.956 . S
Li792 O853 1.970 . S
Li792 O854 1.961 . S
Li793 N817 1.990 . S
Li793 O852 1.970 . S
Li793 O853 1.956 . S
Li793 O855 1.961 . S
Li794 N839 1.990 . S
Li794 O852 1.961 . S
Li794 O854 1.956 . S
Li794 O855 1.970 . S
Li795 N845 1.990 . S
Li795 O853 1.961 . S
Li795 O854 1.970 . S
Li795 O855 1.956 . S
C796 C798 1.348 . S
C796 C799 1.356 . S
C796 O852 1.325 . S
N797 C800 1.314 . S
N797 C801 1.279 . S
C798 C796 1.348 . S
C798 C800 1.353 . S
C798 H856 0.929 . S
C799 C796 1.356 . S
C799 C801 1.358 . S
C799 H857 0.930 . S
C800 N797 1.314 . S
C800 C798 1.353 . S
C800 H858 0.930 . S
C801 N797 1.279 . S
C801 C799 1.358 . S
C801 H859 0.930 . S
C802 C805 1.348 . S
C802 C806 1.356 . S
C802 O853 1.325 . S
C803 N804 1.279 . S
C803 C806 1.358 . S
C803 H860 0.930 . S
N804 C803 1.279 . S
N804 C807 1.314 . S
C805 C802 1.348 . S
C805 C807 1.353 . S
C805 H861 0.929 . S
C806 C802 1.356 . S
C806 C803 1.358 . S
C806 H862 0.930 . S
C807 N804 1.314 . S
C807 C805 1.353 . S
C807 H863 0.930 . S
C808 N809 1.314 . S
C808 C813 1.353 . S
C808 H814 0.930 . S
N809 Li792 1.990 . S
N809 C808 1.314 . S
N809 C811 1.279 . S
C810 C811 1.358 . S
C810 C812 1.356 . S
C810 H864 0.930 . S
C811 N809 1.279 . S
C811 C810 1.358 . S
C811 H815 0.930 . S
C812 C810 1.356 . S
C812 C813 1.348 . S
C813 C808 1.353 . S
C813 C812 1.348 . S
C813 H865 0.929 . S
H814 C808 0.930 . S
H815 C811 0.930 . S
C816 N817 1.314 . S
C816 C818 1.353 . S
C816 H822 0.930 . S
N817 Li793 1.990 . S
N817 C816 1.314 . S
N817 C820 1.279 . S
C818 C816 1.353 . S
C818 C821 1.348 . S
C818 H866 0.929 . S
C819 C820 1.358 . S
C819 C821 1.356 . S
C819 H867 0.930 . S
C820 N817 1.279 . S
C820 C819 1.358 . S
C820 H823 0.930 . S
C821 C818 1.348 . S
C821 C819 1.356 . S
H822 C816 0.930 . S
H823 C820 0.930 . S
C824 C826 1.348 . S
C824 C827 1.356 . S
C824 O854 1.325 . S
N825 C828 1.314 . S
N825 C829 1.279 . S
C826 C824 1.348 . S
C826 C828 1.353 . S
C826 H868 0.929 . S
C827 C824 1.356 . S
C827 C829 1.358 . S
C827 H869 0.930 . S
C828 N825 1.314 . S
C828 C826 1.353 . S
C828 H870 0.930 . S
C829 N825 1.279 . S
C829 C827 1.358 . S
C829 H871 0.930 . S
C830 C831 1.348 . S
C830 C832 1.356 . S
C830 O855 1.325 . S
C831 C830 1.348 . S
C831 C833 1.353 . S
C831 H872 0.929 . S
C832 C830 1.356 . S
C832 C834 1.358 . S
C832 H873 0.930 . S
C833 C831 1.353 . S
C833 N835 1.314 . S
C833 H874 0.930 . S
C834 C832 1.358 . S
C834 N835 1.279 . S
C834 H875 0.930 . S
N835 C833 1.314 . S
N835 C834 1.279 . S
C836 C838 1.353 . S
C836 N839 1.314 . S
C836 H842 0.930 . S
C837 N839 1.279 . S
C837 C840 1.358 . S
C837 H843 0.930 . S
C838 C836 1.353 . S
C838 C841 1.348 . S
C838 H876 0.929 . S
N839 Li794 1.990 . S
N839 C836 1.314 . S
N839 C837 1.279 . S
C840 C837 1.358 . S
C840 C841 1.356 . S
C840 H877 0.930 . S
C841 C838 1.348 . S
C841 C840 1.356 . S
H842 C836 0.930 . S
H843 C837 0.930 . S
C844 N845 1.314 . S
C844 C846 1.353 . S
C844 H850 0.930 . S
N845 Li795 1.990 . S
N845 C844 1.314 . S
N845 C848 1.279 . S
C846 C844 1.353 . S
C846 C849 1.348 . S
C846 H878 0.929 . S
C847 C848 1.358 . S
C847 C849 1.356 . S
C847 H879 0.930 . S
C848 N845 1.279 . S
C848 C847 1.358 . S
C848 H851 0.930 . S
C849 C846 1.348 . S
C849 C847 1.356 . S
H850 C844 0.930 . S
H851 C848 0.930 . S
O852 Li792 1.956 . S
O852 Li793 1.970 . S
O852 Li794 1.961 . S
O852 C796 1.325 . S
O853 Li792 1.970 . S
O853 Li793 1.956 . S
O853 Li795 1.961 . S
O853 C802 1.325 . S
O854 Li792 1.961 . S
O854 Li794 1.956 . S
O854 Li795 1.970 . S
O854 C824 1.325 . S
O855 Li793 1.961 . S
O855 Li794 1.970 . S
O855 Li795 1.956 . S
O855 C830 1.325 . S
H856 C798 0.929 . S
H857 C799 0.930 . S
H858 C800 0.930 . S
H859 C801 0.930 . S
H860 C803 0.930 . S
H861 C805 0.929 . S
H862 C806 0.930 . S
H863 C807 0.930 . S
H864 C810 0.930 . S
H865 C813 0.929 . S
H866 C818 0.929 . S
H867 C819 0.930 . S
H868 C826 0.929 . S
H869 C827 0.930 . S
H870 C828 0.930 . S
H871 C829 0.930 . S
H872 C831 0.929 . S
H873 C832 0.930 . S
H874 C833 0.930 . S
H875 C834 0.930 . S
H876 C838 0.929 . S
H877 C840 0.930 . S
H878 C846 0.929 . S
H879 C847 0.930 . S
Li880 N897 1.990 . S
Li880 O940 1.956 . S
Li880 O941 1.970 . S
Li880 O942 1.961 . S
Li881 N905 1.990 . S
Li881 O940 1.970 . S
Li881 O941 1.956 . S
Li881 O943 1.961 . S
Li882 N927 1.990 1_545 S
Li882 O940 1.961 . S
Li882 O942 1.956 . S
Li882 O943 1.970 . S
Li883 N933 1.990 . S
Li883 O941 1.961 . S
Li883 O942 1.970 . S
Li883 O943 1.956 . S
C884 C886 1.348 . S
C884 C887 1.356 . S
C884 O940 1.325 . S
N885 C888 1.314 . S
N885 C889 1.279 . S
C886 C884 1.348 . S
C886 C888 1.353 . S
C886 H944 0.929 . S
C887 C884 1.356 . S
C887 C889 1.358 . S
C887 H945 0.930 . S
C888 N885 1.314 . S
C888 C886 1.353 . S
C888 H946 0.930 . S
C889 N885 1.279 . S
C889 C887 1.358 . S
C889 H947 0.930 . S
C890 C893 1.348 . S
C890 C894 1.356 . S
C890 O941 1.325 . S
C891 N892 1.279 . S
C891 C894 1.358 . S
C891 H948 0.930 . S
N892 C891 1.279 . S
N892 C895 1.314 . S
C893 C890 1.348 . S
C893 C895 1.353 . S
C893 H949 0.929 . S
C894 C890 1.356 . S
C894 C891 1.358 . S
C894 H950 0.930 . S
C895 N892 1.314 . S
C895 C893 1.353 . S
C895 H951 0.930 . S
C896 N897 1.314 . S
C896 C901 1.353 . S
C896 H902 0.930 . S
N897 Li880 1.990 . S
N897 C896 1.314 . S
N897 C899 1.279 . S
C898 C899 1.358 . S
C898 C900 1.356 . S
C898 H952 0.930 . S
C899 N897 1.279 . S
C899 C898 1.358 . S
C899 H903 0.930 . S
C900 C898 1.356 . S
C900 C901 1.348 . S
C901 C896 1.353 . S
C901 C900 1.348 . S
C901 H953 0.929 . S
H902 C896 0.930 . S
H903 C899 0.930 . S
C904 N905 1.314 . S
C904 C906 1.353 . S
C904 H910 0.930 . S
N905 Li881 1.990 . S
N905 C904 1.314 . S
N905 C908 1.279 . S
C906 C904 1.353 . S
C906 C909 1.348 . S
C906 H954 0.929 . S
C907 C908 1.358 . S
C907 C909 1.356 . S
C907 H955 0.930 . S
C908 N905 1.279 . S
C908 C907 1.358 . S
C908 H911 0.930 . S
C909 C906 1.348 . S
C909 C907 1.356 . S
H910 C904 0.930 . S
H911 C908 0.930 . S
C912 C914 1.348 1_545 S
C912 C915 1.356 1_545 S
C912 O942 1.325 . S
N913 C916 1.314 . S
N913 C917 1.279 . S
C914 C912 1.348 1_565 S
C914 C916 1.353 . S
C914 H956 0.929 . S
C915 C912 1.356 1_565 S
C915 C917 1.358 . S
C915 H957 0.930 . S
C916 N913 1.314 . S
C916 C914 1.353 . S
C916 H958 0.930 . S
C917 N913 1.279 . S
C917 C915 1.358 . S
C917 H959 0.930 . S
C918 C919 1.348 . S
C918 C920 1.356 . S
C918 O943 1.325 . S
C919 C918 1.348 . S
C919 C921 1.353 . S
C919 H960 0.929 1_545 S
C920 C918 1.356 . S
C920 C922 1.358 . S
C920 H961 0.930 . S
C921 C919 1.353 . S
C921 N923 1.314 . S
C921 H962 0.930 1_545 S
C922 C920 1.358 . S
C922 N923 1.279 . S
C922 H963 0.930 . S
N923 C921 1.314 . S
N923 C922 1.279 . S
C924 C926 1.353 . S
C924 N927 1.314 . S
C924 H930 0.930 . S
C925 N927 1.279 . S
C925 C928 1.358 . S
C925 H931 0.930 . S
C926 C924 1.353 . S
C926 C929 1.348 . S
C926 H964 0.929 . S
N927 Li882 1.990 1_565 S
N927 C924 1.314 . S
N927 C925 1.279 . S
C928 C925 1.358 . S
C928 C929 1.356 . S
C928 H965 0.930 . S
C929 C926 1.348 . S
C929 C928 1.356 . S
H930 C924 0.930 . S
H931 C925 0.930 . S
C932 N933 1.314 . S
C932 C934 1.353 . S
C932 H938 0.930 . S
N933 Li883 1.990 . S
N933 C932 1.314 . S
N933 C936 1.279 . S
C934 C932 1.353 . S
C934 C937 1.348 . S
C934 H966 0.929 . S
C935 C936 1.358 . S
C935 C937 1.356 . S
C935 H967 0.930 . S
C936 N933 1.279 . S
C936 C935 1.358 . S
C936 H939 0.930 . S
C937 C934 1.348 . S
C937 C935 1.356 . S
H938 C932 0.930 . S
H939 C936 0.930 . S
O940 Li880 1.956 . S
O940 Li881 1.970 . S
O940 Li882 1.961 . S
O940 C884 1.325 . S
O941 Li880 1.970 . S
O941 Li881 1.956 . S
O941 Li883 1.961 . S
O941 C890 1.325 . S
O942 Li880 1.961 . S
O942 Li882 1.956 . S
O942 Li883 1.970 . S
O942 C912 1.325 . S
O943 Li881 1.961 . S
O943 Li882 1.970 . S
O943 Li883 1.956 . S
O943 C918 1.325 . S
H944 C886 0.929 . S
H945 C887 0.930 . S
H946 C888 0.930 . S
H947 C889 0.930 . S
H948 C891 0.930 . S
H949 C893 0.929 . S
H950 C894 0.930 . S
H951 C895 0.930 . S
H952 C898 0.930 . S
H953 C901 0.929 . S
H954 C906 0.929 . S
H955 C907 0.930 . S
H956 C914 0.929 . S
H957 C915 0.930 . S
H958 C916 0.930 . S
H959 C917 0.930 . S
H960 C919 0.929 1_565 S
H961 C920 0.930 . S
H962 C921 0.930 1_565 S
H963 C922 0.930 . S
H964 C926 0.929 . S
H965 C928 0.930 . S
H966 C934 0.929 . S
H967 C935 0.930 . S
Li968 N985 1.990 . S
Li968 O1028 1.956 . S
Li968 O1029 1.970 . S
Li968 O1030 1.961 . S
Li969 N993 1.990 . S
Li969 O1028 1.970 . S
Li969 O1029 1.956 . S
Li969 O1031 1.961 . S
Li970 N1015 1.990 1_655 S
Li970 O1028 1.961 . S
Li970 O1030 1.956 . S
Li970 O1031 1.970 . S
Li971 N1021 1.990 . S
Li971 O1029 1.961 . S
Li971 O1030 1.970 . S
Li971 O1031 1.956 . S
C972 C974 1.348 . S
C972 C975 1.356 . S
C972 O1028 1.325 . S
N973 C976 1.314 . S
N973 C977 1.279 . S
C974 C972 1.348 . S
C974 C976 1.353 . S
C974 H1032 0.929 . S
C975 C972 1.356 . S
C975 C977 1.358 . S
C975 H1033 0.930 . S
C976 N973 1.314 . S
C976 C974 1.353 . S
C976 H1034 0.930 . S
C977 N973 1.279 . S
C977 C975 1.358 . S
C977 H1035 0.930 . S
C978 C981 1.348 . S
C978 C982 1.356 . S
C978 O1029 1.325 . S
C979 N980 1.279 . S
C979 C982 1.358 . S
C979 H1036 0.930 . S
N980 C979 1.279 . S
N980 C983 1.314 . S
C981 C978 1.348 . S
C981 C983 1.353 . S
C981 H1037 0.929 . S
C982 C978 1.356 . S
C982 C979 1.358 . S
C982 H1038 0.930 . S
C983 N980 1.314 . S
C983 C981 1.353 . S
C983 H1039 0.930 . S
C984 N985 1.314 . S
C984 C989 1.353 . S
C984 H990 0.930 . S
N985 Li968 1.990 . S
N985 C984 1.314 . S
N985 C987 1.279 . S
C986 C987 1.358 . S
C986 C988 1.356 . S
C986 H1040 0.930 . S
C987 N985 1.279 . S
C987 C986 1.358 . S
C987 H991 0.930 . S
C988 C986 1.356 . S
C988 C989 1.348 . S
C989 C984 1.353 . S
C989 C988 1.348 . S
C989 H1041 0.929 . S
H990 C984 0.930 . S
H991 C987 0.930 . S
C992 N993 1.314 . S
C992 C994 1.353 . S
C992 H998 0.930 . S
N993 Li969 1.990 . S
N993 C992 1.314 . S
N993 C996 1.279 . S
C994 C992 1.353 . S
C994 C997 1.348 . S
C994 H1042 0.929 1_655 S
C995 C996 1.358 . S
C995 C997 1.356 . S
C995 H1043 0.930 . S
C996 N993 1.279 . S
C996 C995 1.358 . S
C996 H999 0.930 . S
C997 C994 1.348 . S
C997 C995 1.356 . S
H998 C992 0.930 . S
H999 C996 0.930 . S
C1000 C1002 1.348 . S
C1000 C1003 1.356 . S
C1000 O1030 1.325 . S
N1001 C1004 1.314 . S
N1001 C1005 1.279 . S
C1002 C1000 1.348 . S
C1002 C1004 1.353 . S
C1002 H1044 0.929 . S
C1003 C1000 1.356 . S
C1003 C1005 1.358 . S
C1003 H1045 0.930 . S
C1004 N1001 1.314 . S
C1004 C1002 1.353 . S
C1004 H1046 0.930 . S
C1005 N1001 1.279 . S
C1005 C1003 1.358 . S
C1005 H1047 0.930 . S
C1006 C1007 1.348 1_655 S
C1006 C1008 1.356 . S
C1006 O1031 1.325 . S
C1007 C1006 1.348 1_455 S
C1007 C1009 1.353 . S
C1007 H1048 0.929 . S
C1008 C1006 1.356 . S
C1008 C1010 1.358 1_655 S
C1008 H1049 0.930 . S
C1009 C1007 1.353 . S
C1009 N1011 1.314 . S
C1009 H1050 0.930 . S
C1010 C1008 1.358 1_455 S
C1010 N1011 1.279 . S
C1010 H1051 0.930 . S
N1011 C1009 1.314 . S
N1011 C1010 1.279 . S
C1012 C1014 1.353 . S
C1012 N1015 1.314 . S
C1012 H1018 0.930 . S
C1013 N1015 1.279 . S
C1013 C1016 1.358 . S
C1013 H1019 0.930 . S
C1014 C1012 1.353 . S
C1014 C1017 1.348 . S
C1014 H1052 0.929 . S
N1015 Li970 1.990 1_455 S
N1015 C1012 1.314 . S
N1015 C1013 1.279 . S
C1016 C1013 1.358 . S
C1016 C1017 1.356 . S
C1016 H1053 0.930 . S
C1017 C1014 1.348 . S
C1017 C1016 1.356 . S
H1018 C1012 0.930 . S
H1019 C1013 0.930 . S
C1020 N1021 1.314 . S
C1020 C1022 1.353 . S
C1020 H1026 0.930 . S
N1021 Li971 1.990 . S
N1021 C1020 1.314 . S
N1021 C1024 1.279 . S
C1022 C1020 1.353 . S
C1022 C1025 1.348 . S
C1022 H1054 0.929 . S
C1023 C1024 1.358 . S
C1023 C1025 1.356 . S
C1023 H1055 0.930 . S
C1024 N1021 1.279 . S
C1024 C1023 1.358 . S
C1024 H1027 0.930 . S
C1025 C1022 1.348 . S
C1025 C1023 1.356 . S
H1026 C1020 0.930 . S
H1027 C1024 0.930 . S
O1028 Li968 1.956 . S
O1028 Li969 1.970 . S
O1028 Li970 1.961 . S
O1028 C972 1.325 . S
O1029 Li968 1.970 . S
O1029 Li969 1.956 . S
O1029 Li971 1.961 . S
O1029 C978 1.325 . S
O1030 Li968 1.961 . S
O1030 Li970 1.956 . S
O1030 Li971 1.970 . S
O1030 C1000 1.325 . S
O1031 Li969 1.961 . S
O1031 Li970 1.970 . S
O1031 Li971 1.956 . S
O1031 C1006 1.325 . S
H1032 C974 0.929 . S
H1033 C975 0.930 . S
H1034 C976 0.930 . S
H1035 C977 0.930 . S
H1036 C979 0.930 . S
H1037 C981 0.929 . S
H1038 C982 0.930 . S
H1039 C983 0.930 . S
H1040 C986 0.930 . S
H1041 C989 0.929 . S
H1042 C994 0.929 1_455 S
H1043 C995 0.930 . S
H1044 C1002 0.929 . S
H1045 C1003 0.930 . S
H1046 C1004 0.930 . S
H1047 C1005 0.930 . S
H1048 C1007 0.929 . S
H1049 C1008 0.930 . S
H1050 C1009 0.930 . S
H1051 C1010 0.930 . S
H1052 C1014 0.929 . S
H1053 C1016 0.930 . S
H1054 C1022 0.929 . S
H1055 C1023 0.930 . S
Li1056 N1073 1.990 . S
Li1056 O1116 1.956 . S
Li1056 O1117 1.970 . S
Li1056 O1118 1.961 . S
Li1057 N1081 1.990 . S
Li1057 O1116 1.970 . S
Li1057 O1117 1.956 . S
Li1057 O1119 1.961 . S
Li1058 N1103 1.990 . S
Li1058 O1116 1.961 . S
Li1058 O1118 1.956 . S
Li1058 O1119 1.970 . S
Li1059 N1109 1.990 . S
Li1059 O1117 1.961 . S
Li1059 O1118 1.970 . S
Li1059 O1119 1.956 . S
C1060 C1062 1.348 . S
C1060 C1063 1.356 . S
C1060 O1116 1.325 . S
N1061 C1064 1.314 . S
N1061 C1065 1.279 . S
C1062 C1060 1.348 . S
C1062 C1064 1.353 . S
C1062 H1120 0.929 . S
C1063 C1060 1.356 . S
C1063 C1065 1.358 . S
C1063 H1121 0.930 . S
C1064 N1061 1.314 . S
C1064 C1062 1.353 . S
C1064 H1122 0.930 . S
C1065 N1061 1.279 . S
C1065 C1063 1.358 . S
C1065 H1123 0.930 . S
C1066 C1069 1.348 . S
C1066 C1070 1.356 . S
C1066 O1117 1.325 . S
C1067 N1068 1.279 . S
C1067 C1070 1.358 . S
C1067 H1124 0.930 . S
N1068 C1067 1.279 . S
N1068 C1071 1.314 . S
C1069 C1066 1.348 . S
C1069 C1071 1.353 . S
C1069 H1125 0.929 . S
C1070 C1066 1.356 . S
C1070 C1067 1.358 . S
C1070 H1126 0.930 . S
C1071 N1068 1.314 . S
C1071 C1069 1.353 . S
C1071 H1127 0.930 . S
C1072 N1073 1.314 . S
C1072 C1077 1.353 . S
C1072 H1078 0.930 . S
N1073 Li1056 1.990 . S
N1073 C1072 1.314 . S
N1073 C1075 1.279 . S
C1074 C1075 1.358 . S
C1074 C1076 1.356 . S
C1074 H1128 0.930 . S
C1075 N1073 1.279 . S
C1075 C1074 1.358 . S
C1075 H1079 0.930 . S
C1076 C1074 1.356 . S
C1076 C1077 1.348 . S
C1077 C1072 1.353 . S
C1077 C1076 1.348 . S
C1077 H1129 0.929 . S
H1078 C1072 0.930 . S
H1079 C1075 0.930 . S
C1080 N1081 1.314 . S
C1080 C1082 1.353 . S
C1080 H1086 0.930 . S
N1081 Li1057 1.990 . S
N1081 C1080 1.314 . S
N1081 C1084 1.279 . S
C1082 C1080 1.353 . S
C1082 C1085 1.348 . S
C1082 H1130 0.929 . S
C1083 C1084 1.358 . S
C1083 C1085 1.356 . S
C1083 H1131 0.930 . S
C1084 N1081 1.279 . S
C1084 C1083 1.358 . S
C1084 H1087 0.930 . S
C1085 C1082 1.348 . S
C1085 C1083 1.356 . S
H1086 C1080 0.930 . S
H1087 C1084 0.930 . S
C1088 C1090 1.348 . S
C1088 C1091 1.356 . S
C1088 O1118 1.325 . S
N1089 C1092 1.314 . S
N1089 C1093 1.279 . S
C1090 C1088 1.348 . S
C1090 C1092 1.353 . S
C1090 H1132 0.929 . S
C1091 C1088 1.356 . S
C1091 C1093 1.358 . S
C1091 H1133 0.930 . S
C1092 N1089 1.314 . S
C1092 C1090 1.353 . S
C1092 H1134 0.930 . S
C1093 N1089 1.279 . S
C1093 C1091 1.358 . S
C1093 H1135 0.930 . S
C1094 C1095 1.348 . S
C1094 C1096 1.356 . S
C1094 O1119 1.325 . S
C1095 C1094 1.348 . S
C1095 C1097 1.353 . S
C1095 H1136 0.929 . S
C1096 C1094 1.356 . S
C1096 C1098 1.358 . S
C1096 H1137 0.930 . S
C1097 C1095 1.353 . S
C1097 N1099 1.314 . S
C1097 H1138 0.930 . S
C1098 C1096 1.358 . S
C1098 N1099 1.279 . S
C1098 H1139 0.930 . S
N1099 C1097 1.314 . S
N1099 C1098 1.279 . S
C1100 C1102 1.353 . S
C1100 N1103 1.314 . S
C1100 H1106 0.930 . S
C1101 N1103 1.279 . S
C1101 C1104 1.358 . S
C1101 H1107 0.930 . S
C1102 C1100 1.353 . S
C1102 C1105 1.348 . S
C1102 H1140 0.929 . S
N1103 Li1058 1.990 . S
N1103 C1100 1.314 . S
N1103 C1101 1.279 . S
C1104 C1101 1.358 . S
C1104 C1105 1.356 . S
C1104 H1141 0.930 . S
C1105 C1102 1.348 . S
C1105 C1104 1.356 . S
H1106 C1100 0.930 . S
H1107 C1101 0.930 . S
C1108 N1109 1.314 . S
C1108 C1110 1.353 . S
C1108 H1114 0.930 . S
N1109 Li1059 1.990 . S
N1109 C1108 1.314 . S
N1109 C1112 1.279 . S
C1110 C1108 1.353 . S
C1110 C1113 1.348 . S
C1110 H1142 0.929 . S
C1111 C1112 1.358 . S
C1111 C1113 1.356 . S
C1111 H1143 0.930 . S
C1112 N1109 1.279 . S
C1112 C1111 1.358 . S
C1112 H1115 0.930 . S
C1113 C1110 1.348 . S
C1113 C1111 1.356 . S
H1114 C1108 0.930 . S
H1115 C1112 0.930 . S
O1116 Li1056 1.956 . S
O1116 Li1057 1.970 . S
O1116 Li1058 1.961 . S
O1116 C1060 1.325 . S
O1117 Li1056 1.970 . S
O1117 Li1057 1.956 . S
O1117 Li1059 1.961 . S
O1117 C1066 1.325 . S
O1118 Li1056 1.961 . S
O1118 Li1058 1.956 . S
O1118 Li1059 1.970 . S
O1118 C1088 1.325 . S
O1119 Li1057 1.961 . S
O1119 Li1058 1.970 . S
O1119 Li1059 1.956 . S
O1119 C1094 1.325 . S
H1120 C1062 0.929 . S
H1121 C1063 0.930 . S
H1122 C1064 0.930 . S
H1123 C1065 0.930 . S
H1124 C1067 0.930 . S
H1125 C1069 0.929 . S
H1126 C1070 0.930 . S
H1127 C1071 0.930 . S
H1128 C1074 0.930 . S
H1129 C1077 0.929 . S
H1130 C1082 0.929 . S
H1131 C1083 0.930 . S
H1132 C1090 0.929 . S
H1133 C1091 0.930 . S
H1134 C1092 0.930 . S
H1135 C1093 0.930 . S
H1136 C1095 0.929 . S
H1137 C1096 0.930 . S
H1138 C1097 0.930 . S
H1139 C1098 0.930 . S
H1140 C1102 0.929 . S
H1141 C1104 0.930 . S
H1142 C1110 0.929 . S
H1143 C1111 0.930 . S
Li1144 N1161 1.990 . S
Li1144 O1204 1.956 . S
Li1144 O1205 1.970 . S
Li1144 O1206 1.961 . S
Li1145 N1169 1.990 1_565 S
Li1145 O1204 1.970 . S
Li1145 O1205 1.956 . S
Li1145 O1207 1.961 . S
Li1146 N1191 1.990 . S
Li1146 O1204 1.961 . S
Li1146 O1206 1.956 . S
Li1146 O1207 1.970 . S
Li1147 N1197 1.990 . S
Li1147 O1205 1.961 . S
Li1147 O1206 1.970 . S
Li1147 O1207 1.956 . S
C1148 C1150 1.305 1_565 S
C1148 C1151 1.380 . S
C1148 O1204 1.345 . S
N1149 C1152 1.314 . S
N1149 C1153 1.279 . S
C1150 C1148 1.305 1_545 S
C1150 C1152 1.353 . S
C1150 H1208 0.929 . S
C1151 C1148 1.380 . S
C1151 C1153 1.358 1_565 S
C1151 H1209 0.930 . S
C1152 N1149 1.314 . S
C1152 C1150 1.353 . S
C1152 H1210 0.930 . S
C1153 N1149 1.279 . S
C1153 C1151 1.358 1_545 S
C1153 H1211 0.930 . S
C1154 C1157 1.348 . S
C1154 C1158 1.356 . S
C1154 O1205 1.325 . S
C1155 N1156 1.279 . S
C1155 C1158 1.358 . S
C1155 H1212 0.930 . S
N1156 C1155 1.279 . S
N1156 C1159 1.314 . S
C1157 C1154 1.348 . S
C1157 C1159 1.353 . S
C1157 H1213 0.929 . S
C1158 C1154 1.356 . S
C1158 C1155 1.358 . S
C1158 H1214 0.930 . S
C1159 N1156 1.314 . S
C1159 C1157 1.353 . S
C1159 H1215 0.930 . S
C1160 N1161 1.314 . S
C1160 C1165 1.353 . S
C1160 H1166 0.930 . S
N1161 Li1144 1.990 . S
N1161 C1160 1.314 . S
N1161 C1163 1.279 . S
C1162 C1163 1.358 . S
C1162 C1164 1.356 . S
C1162 H1216 0.930 . S
C1163 N1161 1.279 . S
C1163 C1162 1.358 . S
C1163 H1167 0.930 . S
C1164 C1162 1.356 . S
C1164 C1165 1.348 . S
C1165 C1160 1.353 . S
C1165 C1164 1.348 . S
C1165 H1217 0.929 . S
H1166 C1160 0.930 . S
H1167 C1163 0.930 . S
C1168 N1169 1.314 . S
C1168 C1170 1.353 . S
C1168 H1174 0.930 . S
N1169 Li1145 1.990 1_545 S
N1169 C1168 1.314 . S
N1169 C1172 1.279 . S
C1170 C1168 1.353 . S
C1170 C1173 1.348 . S
C1170 H1218 0.929 . S
C1171 C1172 1.358 . S
C1171 C1173 1.356 . S
C1171 H1219 0.930 . S
C1172 N1169 1.279 . S
C1172 C1171 1.358 . S
C1172 H1175 0.930 . S
C1173 C1170 1.348 . S
C1173 C1171 1.356 . S
H1174 C1168 0.930 . S
H1175 C1172 0.930 . S
C1176 C1178 1.348 . S
C1176 C1179 1.356 . S
C1176 O1206 1.325 . S
N1177 C1180 1.314 . S
N1177 C1181 1.279 . S
C1178 C1176 1.348 . S
C1178 C1180 1.353 . S
C1178 H1220 0.929 . S
C1179 C1176 1.356 . S
C1179 C1181 1.358 . S
C1179 H1221 0.930 . S
C1180 N1177 1.314 . S
C1180 C1178 1.353 . S
C1180 H1222 0.930 . S
C1181 N1177 1.279 . S
C1181 C1179 1.358 . S
C1181 H1223 0.930 . S
C1182 C1183 1.348 . S
C1182 C1184 1.356 . S
C1182 O1207 1.325 . S
C1183 C1182 1.348 . S
C1183 C1185 1.353 . S
C1183 H1224 0.929 . S
C1184 C1182 1.356 . S
C1184 C1186 1.358 . S
C1184 H1225 0.930 . S
C1185 C1183 1.353 . S
C1185 N1187 1.314 . S
C1185 H1226 0.930 . S
C1186 C1184 1.358 . S
C1186 N1187 1.279 . S
C1186 H1227 0.930 . S
N1187 C1185 1.314 . S
N1187 C1186 1.279 . S
C1188 C1190 1.353 . S
C1188 N1191 1.314 . S
C1188 H1194 0.930 . S
C1189 N1191 1.279 . S
C1189 C1192 1.358 . S
C1189 H1195 0.930 . S
C1190 C1188 1.353 . S
C1190 C1193 1.348 . S
C1190 H1228 0.929 . S
N1191 Li1146 1.990 . S
N1191 C1188 1.314 . S
N1191 C1189 1.279 . S
C1192 C1189 1.358 . S
C1192 C1193 1.356 . S
C1192 H1229 0.930 . S
C1193 C1190 1.348 . S
C1193 C1192 1.356 . S
H1194 C1188 0.930 . S
H1195 C1189 0.930 . S
C1196 N1197 1.314 . S
C1196 C1198 1.353 . S
C1196 H1202 0.930 . S
N1197 Li1147 1.990 . S
N1197 C1196 1.314 . S
N1197 C1200 1.279 . S
C1198 C1196 1.353 . S
C1198 C1201 1.348 . S
C1198 H1230 0.929 . S
C1199 C1200 1.358 . S
C1199 C1201 1.356 . S
C1199 H1231 0.930 . S
C1200 N1197 1.279 . S
C1200 C1199 1.358 . S
C1200 H1203 0.930 . S
C1201 C1198 1.348 . S
C1201 C1199 1.356 . S
H1202 C1196 0.930 . S
H1203 C1200 0.930 . S
O1204 Li1144 1.956 . S
O1204 Li1145 1.970 . S
O1204 Li1146 1.961 . S
O1204 C1148 1.345 . S
O1205 Li1144 1.970 . S
O1205 Li1145 1.956 . S
O1205 Li1147 1.961 . S
O1205 C1154 1.325 . S
O1206 Li1144 1.961 . S
O1206 Li1146 1.956 . S
O1206 Li1147 1.970 . S
O1206 C1176 1.325 . S
O1207 Li1145 1.961 . S
O1207 Li1146 1.970 . S
O1207 Li1147 1.956 . S
O1207 C1182 1.325 . S
H1208 C1150 0.929 . S
H1209 C1151 0.930 . S
H1210 C1152 0.930 . S
H1211 C1153 0.930 . S
H1212 C1155 0.930 . S
H1213 C1157 0.929 . S
H1214 C1158 0.930 . S
H1215 C1159 0.930 . S
H1216 C1162 0.930 . S
H1217 C1165 0.929 . S
H1218 C1170 0.929 . S
H1219 C1171 0.930 . S
H1220 C1178 0.929 . S
H1221 C1179 0.930 . S
H1222 C1180 0.930 . S
H1223 C1181 0.930 . S
H1224 C1183 0.929 . S
H1225 C1184 0.930 . S
H1226 C1185 0.930 . S
H1227 C1186 0.930 . S
H1228 C1190 0.929 . S
H1229 C1192 0.930 . S
H1230 C1198 0.929 . S
H1231 C1199 0.930 . S
Li1232 N1249 1.990 . S
Li1232 O1292 1.956 . S
Li1232 O1293 1.970 . S
Li1232 O1294 1.961 . S
Li1233 N1257 1.990 . S
Li1233 O1292 1.970 . S
Li1233 O1293 1.956 . S
Li1233 O1295 1.961 . S
Li1234 N1279 1.990 1_455 S
Li1234 O1292 1.961 . S
Li1234 O1294 1.956 . S
Li1234 O1295 1.970 . S
Li1235 N1285 1.990 . S
Li1235 O1293 1.961 . S
Li1235 O1294 1.970 . S
Li1235 O1295 1.956 . S
C1236 C1238 1.338 1_455 S
C1236 C1239 1.351 1_455 S
C1236 O1292 1.339 . S
N1237 C1240 1.314 . S
N1237 C1241 1.279 . S
C1238 C1236 1.338 1_655 S
C1238 C1240 1.353 . S
C1238 H1296 0.929 1_655 S
C1239 C1236 1.351 1_655 S
C1239 C1241 1.358 . S
C1239 H1297 0.930 . S
C1240 N1237 1.314 . S
C1240 C1238 1.353 . S
C1240 H1298 0.930 . S
C1241 N1237 1.279 . S
C1241 C1239 1.358 . S
C1241 H1299 0.930 . S
C1242 C1245 1.348 . S
C1242 C1246 1.356 . S
C1242 O1293 1.325 . S
C1243 N1244 1.279 . S
C1243 C1246 1.358 . S
C1243 H1300 0.930 . S
N1244 C1243 1.279 . S
N1244 C1247 1.314 . S
C1245 C1242 1.348 . S
C1245 C1247 1.353 . S
C1245 H1301 0.929 . S
C1246 C1242 1.356 . S
C1246 C1243 1.358 . S
C1246 H1302 0.930 . S
C1247 N1244 1.314 . S
C1247 C1245 1.353 . S
C1247 H1303 0.930 . S
C1248 N1249 1.314 . S
C1248 C1253 1.353 . S
C1248 H1254 0.930 . S
N1249 Li1232 1.990 . S
N1249 C1248 1.314 . S
N1249 C1251 1.279 . S
C1250 C1251 1.358 . S
C1250 C1252 1.356 . S
C1250 H1304 0.930 . S
C1251 N1249 1.279 . S
C1251 C1250 1.358 . S
C1251 H1255 0.930 . S
C1252 C1250 1.356 . S
C1252 C1253 1.348 . S
C1253 C1248 1.353 . S
C1253 C1252 1.348 . S
C1253 H1305 0.929 . S
H1254 C1248 0.930 . S
H1255 C1251 0.930 . S
C1256 N1257 1.314 . S
C1256 C1258 1.353 . S
C1256 H1262 0.930 . S
N1257 Li1233 1.990 . S
N1257 C1256 1.314 . S
N1257 C1260 1.279 . S
C1258 C1256 1.353 . S
C1258 C1261 1.348 . S
C1258 H1306 0.929 . S
C1259 C1260 1.358 . S
C1259 C1261 1.356 . S
C1259 H1307 0.930 . S
C1260 N1257 1.279 . S
C1260 C1259 1.358 . S
C1260 H1263 0.930 . S
C1261 C1258 1.348 . S
C1261 C1259 1.356 . S
H1262 C1256 0.930 . S
H1263 C1260 0.930 . S
C1264 C1266 1.348 . S
C1264 C1267 1.356 . S
C1264 O1294 1.325 . S
N1265 C1268 1.314 . S
N1265 C1269 1.279 . S
C1266 C1264 1.348 . S
C1266 C1268 1.353 . S
C1266 H1308 0.929 . S
C1267 C1264 1.356 . S
C1267 C1269 1.358 . S
C1267 H1309 0.930 . S
C1268 N1265 1.314 . S
C1268 C1266 1.353 . S
C1268 H1310 0.930 . S
C1269 N1265 1.279 . S
C1269 C1267 1.358 . S
C1269 H1311 0.930 . S
C1270 C1271 1.348 . S
C1270 C1272 1.356 . S
C1270 O1295 1.325 . S
C1271 C1270 1.348 . S
C1271 C1273 1.353 . S
C1271 H1312 0.929 . S
C1272 C1270 1.356 . S
C1272 C1274 1.358 . S
C1272 H1313 0.930 . S
C1273 C1271 1.353 . S
C1273 N1275 1.314 . S
C1273 H1314 0.930 1_455 S
C1274 C1272 1.358 . S
C1274 N1275 1.279 . S
C1274 H1315 0.930 . S
N1275 C1273 1.314 . S
N1275 C1274 1.279 . S
C1276 C1278 1.353 . S
C1276 N1279 1.314 . S
C1276 H1282 0.930 . S
C1277 N1279 1.279 . S
C1277 C1280 1.358 . S
C1277 H1283 0.930 . S
C1278 C1276 1.353 . S
C1278 C1281 1.348 . S
C1278 H1316 0.929 . S
N1279 Li1234 1.990 1_655 S
N1279 C1276 1.314 . S
N1279 C1277 1.279 . S
C1280 C1277 1.358 . S
C1280 C1281 1.356 . S
C1280 H1317 0.930 . S
C1281 C1278 1.348 . S
C1281 C1280 1.356 . S
H1282 C1276 0.930 . S
H1283 C1277 0.930 . S
C1284 N1285 1.314 . S
C1284 C1286 1.353 . S
C1284 H1290 0.930 . S
N1285 Li1235 1.990 . S
N1285 C1284 1.314 . S
N1285 C1288 1.279 . S
C1286 C1284 1.353 . S
C1286 C1289 1.348 . S
C1286 H1318 0.929 . S
C1287 C1288 1.358 . S
C1287 C1289 1.356 . S
C1287 H1319 0.930 . S
C1288 N1285 1.279 . S
C1288 C1287 1.358 . S
C1288 H1291 0.930 . S
C1289 C1286 1.348 . S
C1289 C1287 1.356 . S
H1290 C1284 0.930 . S
H1291 C1288 0.930 . S
O1292 Li1232 1.956 . S
O1292 Li1233 1.970 . S
O1292 Li1234 1.961 . S
O1292 C1236 1.339 . S
O1293 Li1232 1.970 . S
O1293 Li1233 1.956 . S
O1293 Li1235 1.961 . S
O1293 C1242 1.325 . S
O1294 Li1232 1.961 . S
O1294 Li1234 1.956 . S
O1294 Li1235 1.970 . S
O1294 C1264 1.325 . S
O1295 Li1233 1.961 . S
O1295 Li1234 1.970 . S
O1295 Li1235 1.956 . S
O1295 C1270 1.325 . S
H1296 C1238 0.929 1_455 S
H1297 C1239 0.930 . S
H1298 C1240 0.930 . S
H1299 C1241 0.930 . S
H1300 C1243 0.930 . S
H1301 C1245 0.929 . S
H1302 C1246 0.930 . S
H1303 C1247 0.930 . S
H1304 C1250 0.930 . S
H1305 C1253 0.929 . S
H1306 C1258 0.929 . S
H1307 C1259 0.930 . S
H1308 C1266 0.929 . S
H1309 C1267 0.930 . S
H1310 C1268 0.930 . S
H1311 C1269 0.930 . S
H1312 C1271 0.929 . S
H1313 C1272 0.930 . S
H1314 C1273 0.930 1_655 S
H1315 C1274 0.930 . S
H1316 C1278 0.929 . S
H1317 C1280 0.930 . S
H1318 C1286 0.929 . S
H1319 C1287 0.930 . S
Li1320 N1337 1.990 . S
Li1320 O1380 1.956 1_655 S
Li1320 O1381 2.001 . S
Li1320 O1382 1.961 . S
Li1321 N1345 1.990 . S
Li1321 O1380 1.971 . S
Li1321 O1381 1.934 1_455 S
Li1321 O1383 1.961 . S
Li1322 N1367 1.990 . S
Li1322 O1380 1.961 1_655 S
Li1322 O1382 1.956 . S
Li1322 O1383 1.970 1_655 S
Li1323 N1373 1.990 . S
Li1323 O1381 1.938 1_455 S
Li1323 O1382 1.970 1_455 S
Li1323 O1383 1.956 . S
C1324 C1326 1.348 1_655 S
C1324 C1327 1.356 . S
C1324 O1380 1.324 1_655 S
N1325 C1328 1.314 1_655 S
N1325 C1329 1.279 . S
C1326 C1324 1.348 1_455 S
C1326 C1328 1.353 . S
C1326 H1384 0.929 . S
C1327 C1324 1.356 . S
C1327 C1329 1.358 . S
C1327 H1385 0.930 . S
C1328 N1325 1.314 1_455 S
C1328 C1326 1.353 . S
C1328 H1386 0.930 . S
C1329 N1325 1.279 . S
C1329 C1327 1.358 . S
C1329 H1387 0.930 . S
C1330 C1333 1.335 1_455 S
C1330 C1334 1.367 . S
C1330 O1381 1.332 1_455 S
C1331 N1332 1.279 . S
C1331 C1334 1.358 . S
C1331 H1388 0.930 . S
N1332 C1331 1.279 . S
N1332 C1335 1.314 1_455 S
C1333 C1330 1.335 1_655 S
C1333 C1335 1.353 . S
C1333 H1389 0.929 . S
C1334 C1330 1.367 . S
C1334 C1331 1.358 . S
C1334 H1390 0.930 . S
C1335 N1332 1.314 1_655 S
C1335 C1333 1.353 . S
C1335 H1391 0.930 . S
C1336 N1337 1.314 . S
C1336 C1341 1.353 . S
C1336 H1342 0.930 . S
N1337 Li1320 1.990 . S
N1337 C1336 1.314 . S
N1337 C1339 1.279 . S
C1338 C1339 1.358 . S
C1338 C1340 1.356 . S
C1338 H1392 0.930 . S
C1339 N1337 1.279 . S
C1339 C1338 1.358 . S
C1339 H1343 0.930 . S
C1340 C1338 1.356 . S
C1340 C1341 1.348 . S
C1341 C1336 1.353 . S
C1341 C1340 1.348 . S
C1341 H1393 0.929 . S
H1342 C1336 0.930 . S
H1343 C1339 0.930 . S
C1344 N1345 1.314 . S
C1344 C1346 1.353 . S
C1344 H1350 0.930 . S
N1345 Li1321 1.990 . S
N1345 C1344 1.314 . S
N1345 C1348 1.279 . S
C1346 C1344 1.353 . S
C1346 C1349 1.348 . S
C1346 H1394 0.929 . S
C1347 C1348 1.358 . S
C1347 C1349 1.356 . S
C1347 H1395 0.930 . S
C1348 N1345 1.279 . S
C1348 C1347 1.358 . S
C1348 H1351 0.930 . S
C1349 C1346 1.348 . S
C1349 C1347 1.356 . S
H1350 C1344 0.930 . S
H1351 C1348 0.930 . S
C1352 C1354 1.348 . S
C1352 C1355 1.356 . S
C1352 O1382 1.325 . S
N1353 C1356 1.314 . S
N1353 C1357 1.279 . S
C1354 C1352 1.348 . S
C1354 C1356 1.353 . S
C1354 H1396 0.929 . S
C1355 C1352 1.356 . S
C1355 C1357 1.358 . S
C1355 H1397 0.930 . S
C1356 N1353 1.314 . S
C1356 C1354 1.353 . S
C1356 H1398 0.930 . S
C1357 N1353 1.279 . S
C1357 C1355 1.358 . S
C1357 H1399 0.930 . S
C1358 C1359 1.348 . S
C1358 C1360 1.356 . S
C1358 O1383 1.325 . S
C1359 C1358 1.348 . S
C1359 C1361 1.353 . S
C1359 H1400 0.929 . S
C1360 C1358 1.356 . S
C1360 C1362 1.358 . S
C1360 H1401 0.930 . S
C1361 C1359 1.353 . S
C1361 N1363 1.314 . S
C1361 H1402 0.930 . S
C1362 C1360 1.358 . S
C1362 N1363 1.279 . S
C1362 H1403 0.930 . S
N1363 C1361 1.314 . S
N1363 C1362 1.279 . S
C1364 C1366 1.353 . S
C1364 N1367 1.314 1_455 S
C1364 H1370 0.930 . S
C1365 N1367 1.279 . S
C1365 C1368 1.358 . S
C1365 H1371 0.930 . S
C1366 C1364 1.353 . S
C1366 C1369 1.345 1_455 S
C1366 H1404 0.929 . S
N1367 Li1322 1.990 . S
N1367 C1364 1.314 1_655 S
N1367 C1365 1.279 . S
C1368 C1365 1.358 . S
C1368 C1369 1.376 . S
C1368 H1405 0.930 . S
C1369 C1366 1.345 1_655 S
C1369 C1368 1.376 . S
H1370 C1364 0.930 . S
H1371 C1365 0.930 . S
C1372 N1373 1.314 1_655 S
C1372 C1374 1.353 . S
C1372 H1378 0.930 . S
N1373 Li1323 1.990 . S
N1373 C1372 1.314 1_455 S
N1373 C1376 1.279 . S
C1374 C1372 1.353 . S
C1374 C1377 1.348 1_655 S
C1374 H1406 0.929 . S
C1375 C1376 1.358 . S
C1375 C1377 1.356 . S
C1375 H1407 0.930 . S
C1376 N1373 1.279 . S
C1376 C1375 1.358 . S
C1376 H1379 0.930 . S
C1377 C1374 1.348 1_455 S
C1377 C1375 1.356 . S
H1378 C1372 0.930 . S
H1379 C1376 0.930 . S
O1380 Li1320 1.956 1_455 S
O1380 Li1321 1.971 . S
O1380 Li1322 1.961 1_455 S
O1380 C1324 1.324 1_455 S
O1381 Li1320 2.001 . S
O1381 Li1321 1.934 1_655 S
O1381 Li1323 1.938 1_655 S
O1381 C1330 1.332 1_655 S
O1382 Li1320 1.961 . S
O1382 Li1322 1.956 . S
O1382 Li1323 1.970 1_655 S
O1382 C1352 1.325 . S
O1383 Li1321 1.961 . S
O1383 Li1322 1.970 1_455 S
O1383 Li1323 1.956 . S
O1383 C1358 1.325 . S
H1384 C1326 0.929 . S
H1385 C1327 0.930 . S
H1386 C1328 0.930 . S
H1387 C1329 0.930 . S
H1388 C1331 0.930 . S
H1389 C1333 0.929 . S
H1390 C1334 0.930 . S
H1391 C1335 0.930 . S
H1392 C1338 0.930 . S
H1393 C1341 0.929 . S
H1394 C1346 0.929 . S
H1395 C1347 0.930 . S
H1396 C1354 0.929 . S
H1397 C1355 0.930 . S
H1398 C1356 0.930 . S
H1399 C1357 0.930 . S
H1400 C1359 0.929 . S
H1401 C1360 0.930 . S
H1402 C1361 0.930 . S
H1403 C1362 0.930 . S
H1404 C1366 0.929 . S
H1405 C1368 0.930 . S
H1406 C1374 0.929 . S
H1407 C1375 0.930 . S
Li1408 N1425 1.990 . S
Li1408 O1468 1.956 . S
Li1408 O1469 1.970 . S
Li1408 O1470 1.961 . S
Li1409 N1433 1.990 . S
Li1409 O1468 1.970 . S
Li1409 O1469 1.956 . S
Li1409 O1471 1.961 . S
Li1410 N1455 1.990 . S
Li1410 O1468 1.961 . S
Li1410 O1470 1.956 . S
Li1410 O1471 1.970 . S
Li1411 N1461 1.990 . S
Li1411 O1469 1.961 . S
Li1411 O1470 1.970 . S
Li1411 O1471 1.956 . S
C1412 C1414 1.348 . S
C1412 C1415 1.356 . S
C1412 O1468 1.325 . S
N1413 C1416 1.314 . S
N1413 C1417 1.279 . S
C1414 C1412 1.348 . S
C1414 C1416 1.353 . S
C1414 H1472 0.929 . S
C1415 C1412 1.356 . S
C1415 C1417 1.358 . S
C1415 H1473 0.930 . S
C1416 N1413 1.314 . S
C1416 C1414 1.353 . S
C1416 H1474 0.930 . S
C1417 N1413 1.279 . S
C1417 C1415 1.358 . S
C1417 H1475 0.930 . S
C1418 C1421 1.348 . S
C1418 C1422 1.356 . S
C1418 O1469 1.325 . S
C1419 N1420 1.279 . S
C1419 C1422 1.358 . S
C1419 H1476 0.930 . S
N1420 C1419 1.279 . S
N1420 C1423 1.314 . S
C1421 C1418 1.348 . S
C1421 C1423 1.353 . S
C1421 H1477 0.929 . S
C1422 C1418 1.356 . S
C1422 C1419 1.358 . S
C1422 H1478 0.930 . S
C1423 N1420 1.314 . S
C1423 C1421 1.353 . S
C1423 H1479 0.930 . S
C1424 N1425 1.314 . S
C1424 C1429 1.353 . S
C1424 H1430 0.930 . S
N1425 Li1408 1.990 . S
N1425 C1424 1.314 . S
N1425 C1427 1.279 . S
C1426 C1427 1.358 . S
C1426 C1428 1.356 . S
C1426 H1480 0.930 . S
C1427 N1425 1.279 . S
C1427 C1426 1.358 . S
C1427 H1431 0.930 . S
C1428 C1426 1.356 . S
C1428 C1429 1.348 . S
C1429 C1424 1.353 . S
C1429 C1428 1.348 . S
C1429 H1481 0.929 . S
H1430 C1424 0.930 . S
H1431 C1427 0.930 . S
C1432 N1433 1.314 . S
C1432 C1434 1.353 . S
C1432 H1438 0.930 . S
N1433 Li1409 1.990 . S
N1433 C1432 1.314 . S
N1433 C1436 1.279 . S
C1434 C1432 1.353 . S
C1434 C1437 1.348 . S
C1434 H1482 0.929 . S
C1435 C1436 1.358 . S
C1435 C1437 1.356 . S
C1435 H1483 0.930 . S
C1436 N1433 1.279 . S
C1436 C1435 1.358 . S
C1436 H1439 0.930 . S
C1437 C1434 1.348 . S
C1437 C1435 1.356 . S
H1438 C1432 0.930 . S
H1439 C1436 0.930 . S
C1440 C1442 1.348 . S
C1440 C1443 1.356 . S
C1440 O1470 1.325 . S
N1441 C1444 1.314 . S
N1441 C1445 1.279 . S
C1442 C1440 1.348 . S
C1442 C1444 1.353 . S
C1442 H1484 0.929 . S
C1443 C1440 1.356 . S
C1443 C1445 1.358 . S
C1443 H1485 0.930 . S
C1444 N1441 1.314 . S
C1444 C1442 1.353 . S
C1444 H1486 0.930 . S
C1445 N1441 1.279 . S
C1445 C1443 1.358 . S
C1445 H1487 0.930 . S
C1446 C1447 1.348 . S
C1446 C1448 1.356 . S
C1446 O1471 1.325 . S
C1447 C1446 1.348 . S
C1447 C1449 1.353 . S
C1447 H1488 0.929 . S
C1448 C1446 1.356 . S
C1448 C1450 1.358 . S
C1448 H1489 0.930 . S
C1449 C1447 1.353 . S
C1449 N1451 1.314 . S
C1449 H1490 0.930 . S
C1450 C1448 1.358 . S
C1450 N1451 1.279 . S
C1450 H1491 0.930 . S
N1451 C1449 1.314 . S
N1451 C1450 1.279 . S
C1452 C1454 1.353 . S
C1452 N1455 1.314 . S
C1452 H1458 0.930 . S
C1453 N1455 1.279 . S
C1453 C1456 1.358 . S
C1453 H1459 0.930 . S
C1454 C1452 1.353 . S
C1454 C1457 1.348 . S
C1454 H1492 0.929 . S
N1455 Li1410 1.990 . S
N1455 C1452 1.314 . S
N1455 C1453 1.279 . S
C1456 C1453 1.358 . S
C1456 C1457 1.356 . S
C1456 H1493 0.930 . S
C1457 C1454 1.348 . S
C1457 C1456 1.356 . S
H1458 C1452 0.930 . S
H1459 C1453 0.930 . S
C1460 N1461 1.314 . S
C1460 C1462 1.353 . S
C1460 H1466 0.930 . S
N1461 Li1411 1.990 . S
N1461 C1460 1.314 . S
N1461 C1464 1.279 . S
C1462 C1460 1.353 . S
C1462 C1465 1.348 . S
C1462 H1494 0.929 . S
C1463 C1464 1.358 . S
C1463 C1465 1.356 . S
C1463 H1495 0.930 . S
C1464 N1461 1.279 . S
C1464 C1463 1.358 . S
C1464 H1467 0.930 . S
C1465 C1462 1.348 . S
C1465 C1463 1.356 . S
H1466 C1460 0.930 . S
H1467 C1464 0.930 . S
O1468 Li1408 1.956 . S
O1468 Li1409 1.970 . S
O1468 Li1410 1.961 . S
O1468 C1412 1.325 . S
O1469 Li1408 1.970 . S
O1469 Li1409 1.956 . S
O1469 Li1411 1.961 . S
O1469 C1418 1.325 . S
O1470 Li1408 1.961 . S
O1470 Li1410 1.956 . S
O1470 Li1411 1.970 . S
O1470 C1440 1.325 . S
O1471 Li1409 1.961 . S
O1471 Li1410 1.970 . S
O1471 Li1411 1.956 . S
O1471 C1446 1.325 . S
H1472 C1414 0.929 . S
H1473 C1415 0.930 . S
H1474 C1416 0.930 . S
H1475 C1417 0.930 . S
H1476 C1419 0.930 . S
H1477 C1421 0.929 . S
H1478 C1422 0.930 . S
H1479 C1423 0.930 . S
H1480 C1426 0.930 . S
H1481 C1429 0.929 . S
H1482 C1434 0.929 . S
H1483 C1435 0.930 . S
H1484 C1442 0.929 . S
H1485 C1443 0.930 . S
H1486 C1444 0.930 . S
H1487 C1445 0.930 . S
H1488 C1447 0.929 . S
H1489 C1448 0.930 . S
H1490 C1449 0.930 . S
H1491 C1450 0.930 . S
H1492 C1454 0.929 . S
H1493 C1456 0.930 . S
H1494 C1462 0.929 . S
H1495 C1463 0.930 . S
Li1496 N1513 1.990 . S
Li1496 O1556 1.956 . S
Li1496 O1557 1.986 . S
Li1496 O1558 1.961 1_565 S
Li1497 N1521 1.980 1_565 S
Li1497 O1556 1.973 . S
Li1497 O1557 1.947 . S
Li1497 O1559 1.959 1_565 S
Li1498 N1543 1.995 1_545 S
Li1498 O1556 1.963 1_545 S
Li1498 O1558 1.958 . S
Li1498 O1559 1.966 . S
Li1499 N1549 1.990 . S
Li1499 O1557 1.948 1_545 S
Li1499 O1558 1.970 . S
Li1499 O1559 1.956 . S
C1500 C1502 1.348 . S
C1500 C1503 1.356 . S
C1500 O1556 1.325 . S
N1501 C1504 1.314 . S
N1501 C1505 1.279 . S
C1502 C1500 1.348 . S
C1502 C1504 1.353 . S
C1502 H1560 0.929 . S
C1503 C1500 1.356 . S
C1503 C1505 1.358 . S
C1503 H1561 0.930 . S
C1504 N1501 1.314 . S
C1504 C1502 1.353 . S
C1504 H1562 0.930 . S
C1505 N1501 1.279 . S
C1505 C1503 1.358 . S
C1505 H1563 0.930 . S
C1506 C1509 1.363 . S
C1506 C1510 1.343 1_565 S
C1506 O1557 1.325 . S
C1507 N1508 1.278 . S
C1507 C1510 1.358 . S
C1507 H1564 0.930 . S
N1508 C1507 1.278 . S
N1508 C1511 1.316 1_545 S
C1509 C1506 1.363 . S
C1509 C1511 1.353 . S
C1509 H1565 0.929 . S
C1510 C1506 1.343 1_545 S
C1510 C1507 1.358 . S
C1510 H1566 0.930 . S
C1511 N1508 1.316 1_565 S
C1511 C1509 1.353 . S
C1511 H1567 0.930 . S
C1512 N1513 1.314 . S
C1512 C1517 1.353 . S
C1512 H1518 0.930 . S
N1513 Li1496 1.990 . S
N1513 C1512 1.314 . S
N1513 C1515 1.279 . S
C1514 C1515 1.358 . S
C1514 C1516 1.356 . S
C1514 H1568 0.930 . S
C1515 N1513 1.279 . S
C1515 C1514 1.358 . S
C1515 H1519 0.930 . S
C1516 C1514 1.356 . S
C1516 C1517 1.348 . S
C1517 C1512 1.353 . S
C1517 C1516 1.348 . S
C1517 H1569 0.929 . S
H1518 C1512 0.930 . S
H1519 C1515 0.930 . S
C1520 N1521 1.327 . S
C1520 C1522 1.353 . S
C1520 H1526 0.930 . S
N1521 Li1497 1.980 1_545 S
N1521 C1520 1.327 . S
N1521 C1524 1.275 1_545 S
C1522 C1520 1.353 . S
C1522 C1525 1.348 1_545 S
C1522 H1570 0.929 . S
C1523 C1524 1.358 . S
C1523 C1525 1.356 . S
C1523 H1571 0.930 . S
C1524 N1521 1.275 1_565 S
C1524 C1523 1.358 . S
C1524 H1527 0.930 . S
C1525 C1522 1.348 1_565 S
C1525 C1523 1.356 . S
H1526 C1520 0.930 . S
H1527 C1524 0.930 . S
C1528 C1530 1.348 . S
C1528 C1531 1.356 1_545 S
C1528 O1558 1.325 . S
N1529 C1532 1.314 . S
N1529 C1533 1.279 1_545 S
C1530 C1528 1.348 . S
C1530 C1532 1.353 . S
C1530 H1572 0.929 . S
C1531 C1528 1.356 1_565 S
C1531 C1533 1.358 . S
C1531 H1573 0.930 . S
C1532 N1529 1.314 . S
C1532 C1530 1.353 . S
C1532 H1574 0.930 . S
C1533 N1529 1.279 1_565 S
C1533 C1531 1.358 . S
C1533 H1575 0.930 . S
C1534 C1535 1.348 . S
C1534 C1536 1.356 . S
C1534 O1559 1.325 . S
C1535 C1534 1.348 . S
C1535 C1537 1.353 . S
C1535 H1576 0.929 . S
C1536 C1534 1.356 . S
C1536 C1538 1.358 . S
C1536 H1577 0.930 . S
C1537 C1535 1.353 . S
C1537 N1539 1.314 . S
C1537 H1578 0.930 . S
C1538 C1536 1.358 . S
C1538 N1539 1.279 . S
C1538 H1579 0.930 . S
N1539 C1537 1.314 . S
N1539 C1538 1.279 . S
C1540 C1542 1.353 . S
C1540 N1543 1.300 . S
C1540 H1546 0.930 . S
C1541 N1543 1.285 1_545 S
C1541 C1544 1.358 . S
C1541 H1547 0.930 . S
C1542 C1540 1.353 . S
C1542 C1545 1.348 1_565 S
C1542 H1580 0.929 . S
N1543 Li1498 1.995 1_565 S
N1543 C1540 1.300 . S
N1543 C1541 1.285 1_565 S
C1544 C1541 1.358 . S
C1544 C1545 1.356 . S
C1544 H1581 0.930 . S
C1545 C1542 1.348 1_545 S
C1545 C1544 1.356 . S
H1546 C1540 0.930 . S
H1547 C1541 0.930 . S
C1548 N1549 1.314 . S
C1548 C1550 1.353 . S
C1548 H1554 0.930 . S
N1549 Li1499 1.990 . S
N1549 C1548 1.314 . S
N1549 C1552 1.279 . S
C1550 C1548 1.353 . S
C1550 C1553 1.348 . S
C1550 H1582 0.929 . S
C1551 C1552 1.358 . S
C1551 C1553 1.356 . S
C1551 H1583 0.930 . S
C1552 N1549 1.279 . S
C1552 C1551 1.358 . S
C1552 H1555 0.930 . S
C1553 C1550 1.348 . S
C1553 C1551 1.356 . S
H1554 C1548 0.930 . S
H1555 C1552 0.930 . S
O1556 Li1496 1.956 . S
O1556 Li1497 1.973 . S
O1556 Li1498 1.963 1_565 S
O1556 C1500 1.325 . S
O1557 Li1496 1.986 . S
O1557 Li1497 1.947 . S
O1557 Li1499 1.948 1_565 S
O1557 C1506 1.325 . S
O1558 Li1496 1.961 1_545 S
O1558 Li1498 1.958 . S
O1558 Li1499 1.970 . S
O1558 C1528 1.325 . S
O1559 Li1497 1.959 1_545 S
O1559 Li1498 1.966 . S
O1559 Li1499 1.956 . S
O1559 C1534 1.325 . S
H1560 C1502 0.929 . S
H1561 C1503 0.930 . S
H1562 C1504 0.930 . S
H1563 C1505 0.930 . S
H1564 C1507 0.930 . S
H1565 C1509 0.929 . S
H1566 C1510 0.930 . S
H1567 C1511 0.930 . S
H1568 C1514 0.930 . S
H1569 C1517 0.929 . S
H1570 C1522 0.929 . S
H1571 C1523 0.930 . S
H1572 C1530 0.929 . S
H1573 C1531 0.930 . S
H1574 C1532 0.930 . S
H1575 C1533 0.930 . S
H1576 C1535 0.929 . S
H1577 C1536 0.930 . S
H1578 C1537 0.930 . S
H1579 C1538 0.930 . S
H1580 C1542 0.929 . S
H1581 C1544 0.930 . S
H1582 C1550 0.929 . S
H1583 C1551 0.930 . S
H1584 C1592 0.948 . S
H1585 C1594 0.930 . S
H1586 C1596 0.930 . S
H1587 C1599 0.929 . S
H1588 C1602 0.930 . S
H1589 C1604 0.960 . S
H1590 C1604 0.960 . S
H1591 C1604 0.960 . S
C1592 H1584 0.948 . S
C1592 C1593 1.328 1_565 S
C1592 C1594 1.417 . S
C1593 C1592 1.328 1_545 S
C1593 C1599 1.390 . S
C1594 H1585 0.930 . S
C1594 C1592 1.417 . S
C1594 C1595 1.372 1_565 S
C1595 C1594 1.372 1_545 S
C1595 C1596 1.400 . S
C1595 C1600 1.490 . S
C1596 H1586 0.930 . S
C1596 C1595 1.400 . S
C1596 C1599 1.386 . S
H1597 C1613 0.926 1_545 S
H1598 C1614 0.931 . S
C1599 H1587 0.929 . S
C1599 C1593 1.390 . S
C1599 C1596 1.386 . S
C1600 C1595 1.490 . S
C1600 C1602 1.395 1_544 S
C1600 C1603 1.403 . S
H1601 C1607 0.930 . S
C1602 H1588 0.930 . S
C1602 C1600 1.395 1_566 S
C1602 C1605 1.403 . S
C1603 C1600 1.403 . S
C1603 C1604 1.524 . S
C1603 C1607 1.400 . S
C1604 H1589 0.960 . S
C1604 H1590 0.960 . S
C1604 H1591 0.960 . S
C1604 C1603 1.524 . S
C1605 C1602 1.403 . S
C1605 C1606 1.392 . S
C1605 C1609 1.495 . S
C1606 C1605 1.392 . S
C1606 C1607 1.385 1_566 S
C1606 C1608 1.478 . S
C1607 H1601 0.930 . S
C1607 C1603 1.400 . S
C1607 C1606 1.385 1_544 S
C1608 C1606 1.478 . S
C1608 C1610 1.381 . S
C1608 C1614 1.383 1_565 S
C1609 C1605 1.495 . S
C1609 H1615 0.959 . S
C1609 H1616 0.961 . S
C1609 H1617 0.960 . S
C1610 C1608 1.381 . S
C1610 C1611 1.394 . S
C1610 H1618 0.930 . S
C1611 C1610 1.394 . S
C1611 C1612 1.383 . S
C1611 H1619 0.929 . S
C1612 C1611 1.383 . S
C1612 C1613 1.386 . S
C1613 H1597 0.926 1_565 S
C1613 C1612 1.386 . S
C1613 C1614 1.374 1_565 S
C1614 H1598 0.931 . S
C1614 C1608 1.383 1_545 S
C1614 C1613 1.374 1_545 S
H1615 C1609 0.959 . S
H1616 C1609 0.961 . S
H1617 C1609 0.960 . S
H1618 C1610 0.930 . S
H1619 C1611 0.929 . S
H1620 C1628 0.929 . S
H1621 C1630 0.930 . S
H1622 C1632 0.930 . S
H1623 C1635 0.939 . S
H1624 C1638 0.930 . S
H1625 C1640 0.960 . S
H1626 C1640 0.960 . S
H1627 C1640 0.960 . S
C1628 H1620 0.929 . S
C1628 C1629 1.377 . S
C1628 C1630 1.384 . S
C1629 C1628 1.377 . S
C1629 C1635 1.383 1_655 S
C1630 H1621 0.930 . S
C1630 C1628 1.384 . S
C1630 C1631 1.372 . S
C1631 C1630 1.372 . S
C1631 C1632 1.400 1_655 S
C1631 C1636 1.490 . S
C1632 H1622 0.930 . S
C1632 C1631 1.400 1_455 S
C1632 C1635 1.383 . S
H1633 C1649 0.930 . S
H1634 C1650 0.931 . S
C1635 H1623 0.939 . S
C1635 C1629 1.383 1_455 S
C1635 C1632 1.383 . S
C1636 C1631 1.490 . S
C1636 C1638 1.395 . S
C1636 C1639 1.403 1_654 S
H1637 C1643 0.930 . S
C1638 H1624 0.930 . S
C1638 C1636 1.395 . S
C1638 C1641 1.403 . S
C1639 C1636 1.403 1_456 S
C1639 C1640 1.524 . S
C1639 C1643 1.400 . S
C1640 H1625 0.960 . S
C1640 H1626 0.960 . S
C1640 H1627 0.960 . S
C1640 C1639 1.524 . S
C1641 C1638 1.403 . S
C1641 C1642 1.392 1_654 S
C1641 C1645 1.495 . S
C1642 C1641 1.392 1_456 S
C1642 C1643 1.385 . S
C1642 C1644 1.478 . S
C1643 H1637 0.930 . S
C1643 C1639 1.400 . S
C1643 C1642 1.385 . S
C1644 C1642 1.478 . S
C1644 C1646 1.381 1_455 S
C1644 C1650 1.383 . S
C1645 C1641 1.495 . S
C1645 H1651 0.959 . S
C1645 H1652 0.961 . S
C1645 H1653 0.960 . S
C1646 C1644 1.381 1_655 S
C1646 C1647 1.394 . S
C1646 H1654 0.930 . S
C1647 C1646 1.394 . S
C1647 C1648 1.383 1_655 S
C1647 H1655 0.929 . S
C1648 C1647 1.383 1_455 S
C1648 C1649 1.377 . S
C1649 H1633 0.930 . S
C1649 C1648 1.377 . S
C1649 C1650 1.379 . S
C1650 H1634 0.931 . S
C1650 C1644 1.383 . S
C1650 C1649 1.379 . S
H1651 C1645 0.959 . S
H1652 C1645 0.961 . S
H1653 C1645 0.960 . S
H1654 C1646 0.930 . S
H1655 C1647 0.929 . S
H1656 C1664 0.929 . S
H1657 C1666 0.930 . S
H1658 C1668 0.930 . S
H1659 C1671 0.929 . S
H1660 C1674 0.930 . S
H1661 C1676 0.960 . S
H1662 C1676 0.960 . S
H1663 C1676 0.960 . S
C1664 H1656 0.929 . S
C1664 C1665 1.377 . S
C1664 C1666 1.384 . S
C1665 C1664 1.377 . S
C1665 C1671 1.390 . S
C1666 H1657 0.930 . S
C1666 C1664 1.384 . S
C1666 C1667 1.372 . S
C1667 C1666 1.372 . S
C1667 C1668 1.400 . S
C1667 C1672 1.490 . S
C1668 H1658 0.930 . S
C1668 C1667 1.400 . S
C1668 C1671 1.386 . S
H1669 C1685 0.930 . S
H1670 C1686 0.931 . S
C1671 H1659 0.929 . S
C1671 C1665 1.390 . S
C1671 C1668 1.386 . S
C1672 C1667 1.490 . S
C1672 C1674 1.395 1_556 S
C1672 C1675 1.403 . S
H1673 C1679 0.930 . S
C1674 H1660 0.930 . S
C1674 C1672 1.395 1_554 S
C1674 C1677 1.403 . S
C1675 C1672 1.403 . S
C1675 C1676 1.524 . S
C1675 C1679 1.400 . S
C1676 H1661 0.960 . S
C1676 H1662 0.960 . S
C1676 H1663 0.960 . S
C1676 C1675 1.524 . S
C1677 C1674 1.403 . S
C1677 C1678 1.392 . S
C1677 C1681 1.495 . S
C1678 C1677 1.392 . S
C1678 C1679 1.385 1_554 S
C1678 C1680 1.478 . S
C1679 H1673 0.930 . S
C1679 C1675 1.400 . S
C1679 C1678 1.385 1_556 S
C1680 C1678 1.478 . S
C1680 C1682 1.381 . S
C1680 C1686 1.383 . S
C1681 C1677 1.495 . S
C1681 H1687 0.959 . S
C1681 H1688 0.961 . S
C1681 H1689 0.960 . S
C1682 C1680 1.381 . S
C1682 C1683 1.394 . S
C1682 H1690 0.930 . S
C1683 C1682 1.394 . S
C1683 C1684 1.383 . S
C1683 H1691 0.929 . S
C1684 C1683 1.383 . S
C1684 C1685 1.377 . S
C1685 H1669 0.930 . S
C1685 C1684 1.377 . S
C1685 C1686 1.379 . S
C1686 H1670 0.931 . S
C1686 C1680 1.383 . S
C1686 C1685 1.379 . S
H1687 C1681 0.959 . S
H1688 C1681 0.961 . S
H1689 C1681 0.960 . S
H1690 C1682 0.930 . S
H1691 C1683 0.929 . S
H1692 C1700 0.929 . S
H1693 C1702 0.930 . S
H1694 C1704 0.930 . S
H1695 C1707 0.929 . S
H1696 C1710 0.930 . S
H1697 C1712 0.960 . S
H1698 C1712 0.960 . S
H1699 C1712 0.960 . S
C1700 H1692 0.929 . S
C1700 C1701 1.377 . S
C1700 C1702 1.384 . S
C1701 C1700 1.377 . S
C1701 C1707 1.390 . S
C1702 H1693 0.930 . S
C1702 C1700 1.384 . S
C1702 C1703 1.372 . S
C1703 C1702 1.372 . S
C1703 C1704 1.400 . S
C1703 C1708 1.490 . S
C1704 H1694 0.930 . S
C1704 C1703 1.400 . S
C1704 C1707 1.386 . S
H1705 C1721 0.930 . S
H1706 C1722 0.931 . S
C1707 H1695 0.929 . S
C1707 C1701 1.390 . S
C1707 C1704 1.386 . S
C1708 C1703 1.490 . S
C1708 C1710 1.395 . S
C1708 C1711 1.403 . S
H1709 C1715 0.930 . S
C1710 H1696 0.930 . S
C1710 C1708 1.395 . S
C1710 C1713 1.403 . S
C1711 C1708 1.403 . S
C1711 C1712 1.524 . S
C1711 C1715 1.400 . S
C1712 H1697 0.960 . S
C1712 H1698 0.960 . S
C1712 H1699 0.960 . S
C1712 C1711 1.524 . S
C1713 C1710 1.403 . S
C1713 C1714 1.392 . S
C1713 C1717 1.495 . S
C1714 C1713 1.392 . S
C1714 C1715 1.385 . S
C1714 C1716 1.478 . S
C1715 H1709 0.930 . S
C1715 C1711 1.400 . S
C1715 C1714 1.385 . S
C1716 C1714 1.478 . S
C1716 C1718 1.381 . S
C1716 C1722 1.383 . S
C1717 C1713 1.495 . S
C1717 H1723 0.959 . S
C1717 H1724 0.961 . S
C1717 H1725 0.960 . S
C1718 C1716 1.381 . S
C1718 C1719 1.394 . S
C1718 H1726 0.930 . S
C1719 C1718 1.394 . S
C1719 C1720 1.383 . S
C1719 H1727 0.929 . S
C1720 C1719 1.383 . S
C1720 C1721 1.377 . S
C1721 H1705 0.930 . S
C1721 C1720 1.377 . S
C1721 C1722 1.379 . S
C1722 H1706 0.931 . S
C1722 C1716 1.383 . S
C1722 C1721 1.379 . S
H1723 C1717 0.959 . S
H1724 C1717 0.961 . S
H1725 C1717 0.960 . S
H1726 C1718 0.930 . S
H1727 C1719 0.929 . S
H1728 C1736 0.929 . S
H1729 C1738 0.930 . S
H1730 C1740 0.930 . S
H1731 C1743 0.929 . S
H1732 C1746 0.930 . S
H1733 C1748 0.960 . S
H1734 C1748 0.960 . S
H1735 C1748 0.960 . S
C1736 H1728 0.929 . S
C1736 C1737 1.377 . S
C1736 C1738 1.384 . S
C1737 C1736 1.377 . S
C1737 C1743 1.390 . S
C1738 H1729 0.930 . S
C1738 C1736 1.384 . S
C1738 C1739 1.372 . S
C1739 C1738 1.372 . S
C1739 C1740 1.400 . S
C1739 C1744 1.490 . S
C1740 H1730 0.930 . S
C1740 C1739 1.400 . S
C1740 C1743 1.386 . S
H1741 C1757 0.930 . S
H1742 C1758 0.931 . S
C1743 H1731 0.929 . S
C1743 C1737 1.390 . S
C1743 C1740 1.386 . S
C1744 C1739 1.490 . S
C1744 C1746 1.395 . S
C1744 C1747 1.403 . S
H1745 C1751 0.930 . S
C1746 H1732 0.930 . S
C1746 C1744 1.395 . S
C1746 C1749 1.403 . S
C1747 C1744 1.403 . S
C1747 C1748 1.524 . S
C1747 C1751 1.400 . S
C1748 H1733 0.960 . S
C1748 H1734 0.960 . S
C1748 H1735 0.960 . S
C1748 C1747 1.524 . S
C1749 C1746 1.403 . S
C1749 C1750 1.392 . S
C1749 C1753 1.495 . S
C1750 C1749 1.392 . S
C1750 C1751 1.385 . S
C1750 C1752 1.478 . S
C1751 H1745 0.930 . S
C1751 C1747 1.400 . S
C1751 C1750 1.385 . S
C1752 C1750 1.478 . S
C1752 C1754 1.381 . S
C1752 C1758 1.383 . S
C1753 C1749 1.495 . S
C1753 H1759 0.959 . S
C1753 H1760 0.961 . S
C1753 H1761 0.960 . S
C1754 C1752 1.381 . S
C1754 C1755 1.394 . S
C1754 H1762 0.930 . S
C1755 C1754 1.394 . S
C1755 C1756 1.383 . S
C1755 H1763 0.929 . S
C1756 C1755 1.383 . S
C1756 C1757 1.377 . S
C1757 H1741 0.930 . S
C1757 C1756 1.377 . S
C1757 C1758 1.379 . S
C1758 H1742 0.931 . S
C1758 C1752 1.383 . S
C1758 C1757 1.379 . S
H1759 C1753 0.959 . S
H1760 C1753 0.961 . S
H1761 C1753 0.960 . S
H1762 C1754 0.930 . S
H1763 C1755 0.929 . S
H1764 C1772 0.929 . S
H1765 C1774 0.930 . S
H1766 C1776 0.930 . S
H1767 C1779 0.929 . S
H1768 C1782 0.930 . S
H1769 C1784 0.960 . S
H1770 C1784 0.960 . S
H1771 C1784 0.960 . S
C1772 H1764 0.929 . S
C1772 C1773 1.377 . S
C1772 C1774 1.384 . S
C1773 C1772 1.377 . S
C1773 C1779 1.390 . S
C1774 H1765 0.930 . S
C1774 C1772 1.384 . S
C1774 C1775 1.372 . S
C1775 C1774 1.372 . S
C1775 C1776 1.400 . S
C1775 C1780 1.490 . S
C1776 H1766 0.930 . S
C1776 C1775 1.400 . S
C1776 C1779 1.386 . S
H1777 C1793 0.930 . S
H1778 C1794 0.931 . S
C1779 H1767 0.929 . S
C1779 C1773 1.390 . S
C1779 C1776 1.386 . S
C1780 C1775 1.490 . S
C1780 C1782 1.395 . S
C1780 C1783 1.403 . S
H1781 C1787 0.930 . S
C1782 H1768 0.930 . S
C1782 C1780 1.395 . S
C1782 C1785 1.403 . S
C1783 C1780 1.403 . S
C1783 C1784 1.524 . S
C1783 C1787 1.400 . S
C1784 H1769 0.960 . S
C1784 H1770 0.960 . S
C1784 H1771 0.960 . S
C1784 C1783 1.524 . S
C1785 C1782 1.403 . S
C1785 C1786 1.392 . S
C1785 C1789 1.495 . S
C1786 C1785 1.392 . S
C1786 C1787 1.385 . S
C1786 C1788 1.478 . S
C1787 H1781 0.930 . S
C1787 C1783 1.400 . S
C1787 C1786 1.385 . S
C1788 C1786 1.478 . S
C1788 C1790 1.381 . S
C1788 C1794 1.383 . S
C1789 C1785 1.495 . S
C1789 H1795 0.959 . S
C1789 H1796 0.961 . S
C1789 H1797 0.960 . S
C1790 C1788 1.381 . S
C1790 C1791 1.394 . S
C1790 H1798 0.930 . S
C1791 C1790 1.394 . S
C1791 C1792 1.383 . S
C1791 H1799 0.929 . S
C1792 C1791 1.383 . S
C1792 C1793 1.377 . S
C1793 H1777 0.930 . S
C1793 C1792 1.377 . S
C1793 C1794 1.379 . S
C1794 H1778 0.931 . S
C1794 C1788 1.383 . S
C1794 C1793 1.379 . S
H1795 C1789 0.959 . S
H1796 C1789 0.961 . S
H1797 C1789 0.960 . S
H1798 C1790 0.930 . S
H1799 C1791 0.929 . S
H1800 C1808 0.929 . S
H1801 C1810 0.930 . S
H1802 C1812 0.930 . S
H1803 C1815 0.929 . S
H1804 C1818 0.930 . S
H1805 C1820 0.960 . S
H1806 C1820 0.960 . S
H1807 C1820 0.960 . S
C1808 H1800 0.929 . S
C1808 C1809 1.377 . S
C1808 C1810 1.384 . S
C1809 C1808 1.377 . S
C1809 C1815 1.390 . S
C1810 H1801 0.930 . S
C1810 C1808 1.384 . S
C1810 C1811 1.372 . S
C1811 C1810 1.372 . S
C1811 C1812 1.400 . S
C1811 C1816 1.490 . S
C1812 H1802 0.930 . S
C1812 C1811 1.400 . S
C1812 C1815 1.386 . S
H1813 C1829 0.930 . S
H1814 C1830 0.931 . S
C1815 H1803 0.929 . S
C1815 C1809 1.390 . S
C1815 C1812 1.386 . S
C1816 C1811 1.490 . S
C1816 C1818 1.395 . S
C1816 C1819 1.403 . S
H1817 C1823 0.930 . S
C1818 H1804 0.930 . S
C1818 C1816 1.395 . S
C1818 C1821 1.403 . S
C1819 C1816 1.403 . S
C1819 C1820 1.524 . S
C1819 C1823 1.400 . S
C1820 H1805 0.960 . S
C1820 H1806 0.960 . S
C1820 H1807 0.960 . S
C1820 C1819 1.524 . S
C1821 C1818 1.403 . S
C1821 C1822 1.392 . S
C1821 C1825 1.495 . S
C1822 C1821 1.392 . S
C1822 C1823 1.385 . S
C1822 C1824 1.478 . S
C1823 H1817 0.930 . S
C1823 C1819 1.400 . S
C1823 C1822 1.385 . S
C1824 C1822 1.478 . S
C1824 C1826 1.381 . S
C1824 C1830 1.383 . S
C1825 C1821 1.495 . S
C1825 H1831 0.959 . S
C1825 H1832 0.961 . S
C1825 H1833 0.960 . S
C1826 C1824 1.381 . S
C1826 C1827 1.394 . S
C1826 H1834 0.930 . S
C1827 C1826 1.394 . S
C1827 C1828 1.383 . S
C1827 H1835 0.929 . S
C1828 C1827 1.383 . S
C1828 C1829 1.377 . S
C1829 H1813 0.930 . S
C1829 C1828 1.377 . S
C1829 C1830 1.379 . S
C1830 H1814 0.931 . S
C1830 C1824 1.383 . S
C1830 C1829 1.379 . S
H1831 C1825 0.959 . S
H1832 C1825 0.961 . S
H1833 C1825 0.960 . S
H1834 C1826 0.930 . S
H1835 C1827 0.929 . S
H1836 C1844 0.929 . S
H1837 C1846 0.930 . S
H1838 C1848 0.930 . S
H1839 C1851 0.929 . S
H1840 C1854 0.930 . S
H1841 C1856 0.960 . S
H1842 C1856 0.960 . S
H1843 C1856 0.960 . S
C1844 H1836 0.929 . S
C1844 C1845 1.377 . S
C1844 C1846 1.384 . S
C1845 C1844 1.377 . S
C1845 C1851 1.390 . S
C1846 H1837 0.930 . S
C1846 C1844 1.384 . S
C1846 C1847 1.372 . S
C1847 C1846 1.372 . S
C1847 C1848 1.400 . S
C1847 C1852 1.490 . S
C1848 H1838 0.930 . S
C1848 C1847 1.400 . S
C1848 C1851 1.386 . S
H1849 C1865 0.930 . S
H1850 C1866 0.931 . S
C1851 H1839 0.929 . S
C1851 C1845 1.390 . S
C1851 C1848 1.386 . S
C1852 C1847 1.490 . S
C1852 C1854 1.395 . S
C1852 C1855 1.403 . S
H1853 C1859 0.930 . S
C1854 H1840 0.930 . S
C1854 C1852 1.395 . S
C1854 C1857 1.403 . S
C1855 C1852 1.403 . S
C1855 C1856 1.524 . S
C1855 C1859 1.400 . S
C1856 H1841 0.960 . S
C1856 H1842 0.960 . S
C1856 H1843 0.960 . S
C1856 C1855 1.524 . S
C1857 C1854 1.403 . S
C1857 C1858 1.392 . S
C1857 C1861 1.495 . S
C1858 C1857 1.392 . S
C1858 C1859 1.385 . S
C1858 C1860 1.478 . S
C1859 H1853 0.930 . S
C1859 C1855 1.400 . S
C1859 C1858 1.385 . S
C1860 C1858 1.478 . S
C1860 C1862 1.381 . S
C1860 C1866 1.383 . S
C1861 C1857 1.495 . S
C1861 H1867 0.959 . S
C1861 H1868 0.961 . S
C1861 H1869 0.960 . S
C1862 C1860 1.381 . S
C1862 C1863 1.394 . S
C1862 H1870 0.930 . S
C1863 C1862 1.394 . S
C1863 C1864 1.383 . S
C1863 H1871 0.929 . S
C1864 C1863 1.383 . S
C1864 C1865 1.377 . S
C1865 H1849 0.930 . S
C1865 C1864 1.377 . S
C1865 C1866 1.379 . S
C1866 H1850 0.931 . S
C1866 C1860 1.383 . S
C1866 C1865 1.379 . S
H1867 C1861 0.959 . S
H1868 C1861 0.961 . S
H1869 C1861 0.960 . S
H1870 C1862 0.930 . S
H1871 C1863 0.929 . S
H1872 C1880 0.929 . S
H1873 C1882 0.930 . S
H1874 C1884 0.930 . S
H1875 C1887 0.929 . S
H1876 C1890 0.930 . S
H1877 C1892 0.960 . S
H1878 C1892 0.960 . S
H1879 C1892 0.960 . S
C1880 H1872 0.929 . S
C1880 C1881 1.377 . S
C1880 C1882 1.384 . S
C1881 C1880 1.377 . S
C1881 C1887 1.390 . S
C1882 H1873 0.930 . S
C1882 C1880 1.384 . S
C1882 C1883 1.372 . S
C1883 C1882 1.372 . S
C1883 C1884 1.400 . S
C1883 C1888 1.490 . S
C1884 H1874 0.930 . S
C1884 C1883 1.400 . S
C1884 C1887 1.386 . S
H1885 C1901 0.930 . S
H1886 C1902 0.931 . S
C1887 H1875 0.929 . S
C1887 C1881 1.390 . S
C1887 C1884 1.386 . S
C1888 C1883 1.490 . S
C1888 C1890 1.395 . S
C1888 C1891 1.403 . S
H1889 C1895 0.930 . S
C1890 H1876 0.930 . S
C1890 C1888 1.395 . S
C1890 C1893 1.403 . S
C1891 C1888 1.403 . S
C1891 C1892 1.524 . S
C1891 C1895 1.400 . S
C1892 H1877 0.960 . S
C1892 H1878 0.960 . S
C1892 H1879 0.960 . S
C1892 C1891 1.524 . S
C1893 C1890 1.403 . S
C1893 C1894 1.392 . S
C1893 C1897 1.495 . S
C1894 C1893 1.392 . S
C1894 C1895 1.385 . S
C1894 C1896 1.478 . S
C1895 H1889 0.930 . S
C1895 C1891 1.400 . S
C1895 C1894 1.385 . S
C1896 C1894 1.478 . S
C1896 C1898 1.381 . S
C1896 C1902 1.383 . S
C1897 C1893 1.495 . S
C1897 H1903 0.959 . S
C1897 H1904 0.961 . S
C1897 H1905 0.960 . S
C1898 C1896 1.381 . S
C1898 C1899 1.394 . S
C1898 H1906 0.930 . S
C1899 C1898 1.394 . S
C1899 C1900 1.383 . S
C1899 H1907 0.929 . S
C1900 C1899 1.383 . S
C1900 C1901 1.377 . S
C1901 H1885 0.930 . S
C1901 C1900 1.377 . S
C1901 C1902 1.379 . S
C1902 H1886 0.931 . S
C1902 C1896 1.383 . S
C1902 C1901 1.379 . S
H1903 C1897 0.959 . S
H1904 C1897 0.961 . S
H1905 C1897 0.960 . S
H1906 C1898 0.930 . S
H1907 C1899 0.929 . S
H1908 C1916 0.929 . S
H1909 C1918 0.930 . S
H1910 C1920 0.930 . S
H1911 C1923 0.929 . S
H1912 C1926 0.930 . S
H1913 C1928 0.960 . S
H1914 C1928 0.960 . S
H1915 C1928 0.960 . S
C1916 H1908 0.929 . S
C1916 C1917 1.377 . S
C1916 C1918 1.384 . S
C1917 C1916 1.377 . S
C1917 C1923 1.390 . S
C1918 H1909 0.930 . S
C1918 C1916 1.384 . S
C1918 C1919 1.372 . S
C1919 C1918 1.372 . S
C1919 C1920 1.400 . S
C1919 C1924 1.490 . S
C1920 H1910 0.930 . S
C1920 C1919 1.400 . S
C1920 C1923 1.386 . S
H1921 C1937 0.930 . S
H1922 C1938 0.931 . S
C1923 H1911 0.929 . S
C1923 C1917 1.390 . S
C1923 C1920 1.386 . S
C1924 C1919 1.490 . S
C1924 C1926 1.395 . S
C1924 C1927 1.403 . S
H1925 C1931 0.930 . S
C1926 H1912 0.930 . S
C1926 C1924 1.395 . S
C1926 C1929 1.403 . S
C1927 C1924 1.403 . S
C1927 C1928 1.524 . S
C1927 C1931 1.400 . S
C1928 H1913 0.960 . S
C1928 H1914 0.960 . S
C1928 H1915 0.960 . S
C1928 C1927 1.524 . S
C1929 C1926 1.403 . S
C1929 C1930 1.392 . S
C1929 C1933 1.495 . S
C1930 C1929 1.392 . S
C1930 C1931 1.385 . S
C1930 C1932 1.478 . S
C1931 H1925 0.930 . S
C1931 C1927 1.400 . S
C1931 C1930 1.385 . S
C1932 C1930 1.478 . S
C1932 C1934 1.381 . S
C1932 C1938 1.383 . S
C1933 C1929 1.495 . S
C1933 H1939 0.959 . S
C1933 H1940 0.961 . S
C1933 H1941 0.960 . S
C1934 C1932 1.381 . S
C1934 C1935 1.394 . S
C1934 H1942 0.930 . S
C1935 C1934 1.394 . S
C1935 C1936 1.383 . S
C1935 H1943 0.929 . S
C1936 C1935 1.383 . S
C1936 C1937 1.377 . S
C1937 H1921 0.930 . S
C1937 C1936 1.377 . S
C1937 C1938 1.379 . S
C1938 H1922 0.931 . S
C1938 C1932 1.383 . S
C1938 C1937 1.379 . S
H1939 C1933 0.959 . S
H1940 C1933 0.961 . S
H1941 C1933 0.960 . S
H1942 C1934 0.930 . S
H1943 C1935 0.929 . S
H1944 C1952 0.929 . S
H1945 C1954 0.930 . S
H1946 C1956 0.930 . S
H1947 C1959 0.929 . S
H1948 C1962 0.930 . S
H1949 C1964 0.960 . S
H1950 C1964 0.960 . S
H1951 C1964 0.960 . S
C1952 H1944 0.929 . S
C1952 C1953 1.377 . S
C1952 C1954 1.384 . S
C1953 C1952 1.377 . S
C1953 C1959 1.390 . S
C1954 H1945 0.930 . S
C1954 C1952 1.384 . S
C1954 C1955 1.372 . S
C1955 C1954 1.372 . S
C1955 C1956 1.400 . S
C1955 C1960 1.490 . S
C1956 H1946 0.930 . S
C1956 C1955 1.400 . S
C1956 C1959 1.386 . S
H1957 C1973 0.930 . S
H1958 C1974 0.931 . S
C1959 H1947 0.929 . S
C1959 C1953 1.390 . S
C1959 C1956 1.386 . S
C1960 C1955 1.490 . S
C1960 C1962 1.395 . S
C1960 C1963 1.403 . S
H1961 C1967 0.930 . S
C1962 H1948 0.930 . S
C1962 C1960 1.395 . S
C1962 C1965 1.403 . S
C1963 C1960 1.403 . S
C1963 C1964 1.524 . S
C1963 C1967 1.400 . S
C1964 H1949 0.960 . S
C1964 H1950 0.960 . S
C1964 H1951 0.960 . S
C1964 C1963 1.524 . S
C1965 C1962 1.403 . S
C1965 C1966 1.392 . S
C1965 C1969 1.495 . S
C1966 C1965 1.392 . S
C1966 C1967 1.385 . S
C1966 C1968 1.478 . S
C1967 H1961 0.930 . S
C1967 C1963 1.400 . S
C1967 C1966 1.385 . S
C1968 C1966 1.478 . S
C1968 C1970 1.381 . S
C1968 C1974 1.383 . S
C1969 C1965 1.495 . S
C1969 H1975 0.959 . S
C1969 H1976 0.961 . S
C1969 H1977 0.960 . S
C1970 C1968 1.381 . S
C1970 C1971 1.394 . S
C1970 H1978 0.930 . S
C1971 C1970 1.394 . S
C1971 C1972 1.383 . S
C1971 H1979 0.929 . S
C1972 C1971 1.383 . S
C1972 C1973 1.377 . S
C1973 H1957 0.930 . S
C1973 C1972 1.377 . S
C1973 C1974 1.379 . S
C1974 H1958 0.931 . S
C1974 C1968 1.383 . S
C1974 C1973 1.379 . S
H1975 C1969 0.959 . S
H1976 C1969 0.961 . S
H1977 C1969 0.960 . S
H1978 C1970 0.930 . S
H1979 C1971 0.929 . S
H1980 C1988 0.929 . S
H1981 C1990 0.930 . S
H1982 C1992 0.930 . S
H1983 C1995 0.929 . S
H1984 C1998 0.930 . S
H1985 C2000 0.960 . S
H1986 C2000 0.960 . S
H1987 C2000 0.960 . S
C1988 H1980 0.929 . S
C1988 C1989 1.377 . S
C1988 C1990 1.384 . S
C1989 C1988 1.377 . S
C1989 C1995 1.390 . S
C1990 H1981 0.930 . S
C1990 C1988 1.384 . S
C1990 C1991 1.372 . S
C1991 C1990 1.372 . S
C1991 C1992 1.400 . S
C1991 C1996 1.490 . S
C1992 H1982 0.930 . S
C1992 C1991 1.400 . S
C1992 C1995 1.386 . S
H1993 C2009 0.930 . S
H1994 C2010 0.931 . S
C1995 H1983 0.929 . S
C1995 C1989 1.390 . S
C1995 C1992 1.386 . S
C1996 C1991 1.490 . S
C1996 C1998 1.395 . S
C1996 C1999 1.403 . S
H1997 C2003 0.930 . S
C1998 H1984 0.930 . S
C1998 C1996 1.395 . S
C1998 C2001 1.403 . S
C1999 C1996 1.403 . S
C1999 C2000 1.524 . S
C1999 C2003 1.400 . S
C2000 H1985 0.960 . S
C2000 H1986 0.960 . S
C2000 H1987 0.960 . S
C2000 C1999 1.524 . S
C2001 C1998 1.403 . S
C2001 C2002 1.392 . S
C2001 C2005 1.495 . S
C2002 C2001 1.392 . S
C2002 C2003 1.385 . S
C2002 C2004 1.478 . S
C2003 H1997 0.930 . S
C2003 C1999 1.400 . S
C2003 C2002 1.385 . S
C2004 C2002 1.478 . S
C2004 C2006 1.381 . S
C2004 C2010 1.383 . S
C2005 C2001 1.495 . S
C2005 H2011 0.959 . S
C2005 H2012 0.961 . S
C2005 H2013 0.960 . S
C2006 C2004 1.381 . S
C2006 C2007 1.394 . S
C2006 H2014 0.930 . S
C2007 C2006 1.394 . S
C2007 C2008 1.383 . S
C2007 H2015 0.929 . S
C2008 C2007 1.383 . S
C2008 C2009 1.377 . S
C2009 H1993 0.930 . S
C2009 C2008 1.377 . S
C2009 C2010 1.379 . S
C2010 H1994 0.931 . S
C2010 C2004 1.383 . S
C2010 C2009 1.379 . S
H2011 C2005 0.959 . S
H2012 C2005 0.961 . S
H2013 C2005 0.960 . S
H2014 C2006 0.930 . S
H2015 C2007 0.929 . S
H2016 C2024 0.929 . S
H2017 C2026 0.930 . S
H2018 C2028 0.930 . S
H2019 C2031 0.929 . S
H2020 C2034 0.930 . S
H2021 C2036 0.960 . S
H2022 C2036 0.960 . S
H2023 C2036 0.960 . S
C2024 H2016 0.929 . S
C2024 C2025 1.377 . S
C2024 C2026 1.384 . S
C2025 C2024 1.377 . S
C2025 C2031 1.390 . S
C2026 H2017 0.930 . S
C2026 C2024 1.384 . S
C2026 C2027 1.372 . S
C2027 C2026 1.372 . S
C2027 C2028 1.400 . S
C2027 C2032 1.490 . S
C2028 H2018 0.930 . S
C2028 C2027 1.400 . S
C2028 C2031 1.386 . S
H2029 C2045 0.930 . S
H2030 C2046 0.931 . S
C2031 H2019 0.929 . S
C2031 C2025 1.390 . S
C2031 C2028 1.386 . S
C2032 C2027 1.490 . S
C2032 C2034 1.395 . S
C2032 C2035 1.403 . S
H2033 C2039 0.930 . S
C2034 H2020 0.930 . S
C2034 C2032 1.395 . S
C2034 C2037 1.403 . S
C2035 C2032 1.403 . S
C2035 C2036 1.524 . S
C2035 C2039 1.400 . S
C2036 H2021 0.960 . S
C2036 H2022 0.960 . S
C2036 H2023 0.960 . S
C2036 C2035 1.524 . S
C2037 C2034 1.403 . S
C2037 C2038 1.392 . S
C2037 C2041 1.495 . S
C2038 C2037 1.392 . S
C2038 C2039 1.385 . S
C2038 C2040 1.478 . S
C2039 H2033 0.930 . S
C2039 C2035 1.400 . S
C2039 C2038 1.385 . S
C2040 C2038 1.478 . S
C2040 C2042 1.381 . S
C2040 C2046 1.383 . S
C2041 C2037 1.495 . S
C2041 H2047 0.959 . S
C2041 H2048 0.961 . S
C2041 H2049 0.960 . S
C2042 C2040 1.381 . S
C2042 C2043 1.394 . S
C2042 H2050 0.930 . S
C2043 C2042 1.394 . S
C2043 C2044 1.383 . S
C2043 H2051 0.929 . S
C2044 C2043 1.383 . S
C2044 C2045 1.377 . S
C2045 H2029 0.930 . S
C2045 C2044 1.377 . S
C2045 C2046 1.379 . S
C2046 H2030 0.931 . S
C2046 C2040 1.383 . S
C2046 C2045 1.379 . S
H2047 C2041 0.959 . S
H2048 C2041 0.961 . S
H2049 C2041 0.960 . S
H2050 C2042 0.930 . S
H2051 C2043 0.929 . S
H2052 C2060 0.929 . S
H2053 C2062 0.930 . S
H2054 C2064 0.930 . S
H2055 C2067 0.929 . S
H2056 C2070 0.930 . S
H2057 C2072 0.960 . S
H2058 C2072 0.960 . S
H2059 C2072 0.960 . S
C2060 H2052 0.929 . S
C2060 C2061 1.377 . S
C2060 C2062 1.384 . S
C2061 C2060 1.377 . S
C2061 C2067 1.390 . S
C2062 H2053 0.930 . S
C2062 C2060 1.384 . S
C2062 C2063 1.372 . S
C2063 C2062 1.372 . S
C2063 C2064 1.400 . S
C2063 C2068 1.490 . S
C2064 H2054 0.930 . S
C2064 C2063 1.400 . S
C2064 C2067 1.386 . S
H2065 C2081 0.930 . S
H2066 C2082 0.931 . S
C2067 H2055 0.929 . S
C2067 C2061 1.390 . S
C2067 C2064 1.386 . S
C2068 C2063 1.490 . S
C2068 C2070 1.395 . S
C2068 C2071 1.403 . S
H2069 C2075 0.930 . S
C2070 H2056 0.930 . S
C2070 C2068 1.395 . S
C2070 C2073 1.403 . S
C2071 C2068 1.403 . S
C2071 C2072 1.524 . S
C2071 C2075 1.400 . S
C2072 H2057 0.960 . S
C2072 H2058 0.960 . S
C2072 H2059 0.960 . S
C2072 C2071 1.524 . S
C2073 C2070 1.403 . S
C2073 C2074 1.392 . S
C2073 C2077 1.495 . S
C2074 C2073 1.392 . S
C2074 C2075 1.385 . S
C2074 C2076 1.478 . S
C2075 H2069 0.930 . S
C2075 C2071 1.400 . S
C2075 C2074 1.385 . S
C2076 C2074 1.478 . S
C2076 C2078 1.381 . S
C2076 C2082 1.383 . S
C2077 C2073 1.495 . S
C2077 H2083 0.959 . S
C2077 H2084 0.961 . S
C2077 H2085 0.960 . S
C2078 C2076 1.381 . S
C2078 C2079 1.394 . S
C2078 H2086 0.930 . S
C2079 C2078 1.394 . S
C2079 C2080 1.383 . S
C2079 H2087 0.929 . S
C2080 C2079 1.383 . S
C2080 C2081 1.377 . S
C2081 H2065 0.930 . S
C2081 C2080 1.377 . S
C2081 C2082 1.379 . S
C2082 H2066 0.931 . S
C2082 C2076 1.383 . S
C2082 C2081 1.379 . S
H2083 C2077 0.959 . S
H2084 C2077 0.961 . S
H2085 C2077 0.960 . S
H2086 C2078 0.930 . S
H2087 C2079 0.929 . S
H2088 C2096 0.929 . S
H2089 C2098 0.930 . S
H2090 C2100 0.930 . S
H2091 C2103 0.929 . S
H2092 C2106 0.930 . S
H2093 C2108 0.960 . S
H2094 C2108 0.960 . S
H2095 C2108 0.960 . S
C2096 H2088 0.929 . S
C2096 C2097 1.377 . S
C2096 C2098 1.384 . S
C2097 C2096 1.377 . S
C2097 C2103 1.390 . S
C2098 H2089 0.930 . S
C2098 C2096 1.384 . S
C2098 C2099 1.372 . S
C2099 C2098 1.372 . S
C2099 C2100 1.400 . S
C2099 C2104 1.490 . S
C2100 H2090 0.930 . S
C2100 C2099 1.400 . S
C2100 C2103 1.386 . S
H2101 C2117 0.930 . S
H2102 C2118 0.931 . S
C2103 H2091 0.929 . S
C2103 C2097 1.390 . S
C2103 C2100 1.386 . S
C2104 C2099 1.490 . S
C2104 C2106 1.395 . S
C2104 C2107 1.403 . S
H2105 C2111 0.930 . S
C2106 H2092 0.930 . S
C2106 C2104 1.395 . S
C2106 C2109 1.403 . S
C2107 C2104 1.403 . S
C2107 C2108 1.524 . S
C2107 C2111 1.400 . S
C2108 H2093 0.960 . S
C2108 H2094 0.960 . S
C2108 H2095 0.960 . S
C2108 C2107 1.524 . S
C2109 C2106 1.403 . S
C2109 C2110 1.392 . S
C2109 C2113 1.495 . S
C2110 C2109 1.392 . S
C2110 C2111 1.385 . S
C2110 C2112 1.478 . S
C2111 H2105 0.930 . S
C2111 C2107 1.400 . S
C2111 C2110 1.385 . S
C2112 C2110 1.478 . S
C2112 C2114 1.381 . S
C2112 C2118 1.383 . S
C2113 C2109 1.495 . S
C2113 H2119 0.959 . S
C2113 H2120 0.961 . S
C2113 H2121 0.960 . S
C2114 C2112 1.381 . S
C2114 C2115 1.394 . S
C2114 H2122 0.930 . S
C2115 C2114 1.394 . S
C2115 C2116 1.383 . S
C2115 H2123 0.929 . S
C2116 C2115 1.383 . S
C2116 C2117 1.377 . S
C2117 H2101 0.930 . S
C2117 C2116 1.377 . S
C2117 C2118 1.379 . S
C2118 H2102 0.931 . S
C2118 C2112 1.383 . S
C2118 C2117 1.379 . S
H2119 C2113 0.959 . S
H2120 C2113 0.961 . S
H2121 C2113 0.960 . S
H2122 C2114 0.930 . S
H2123 C2115 0.929 . S
H2124 C2132 0.929 . S
H2125 C2134 0.930 . S
H2126 C2136 0.930 . S
H2127 C2139 0.929 . S
H2128 C2142 0.930 . S
H2129 C2144 0.960 . S
H2130 C2144 0.960 . S
H2131 C2144 0.960 . S
C2132 H2124 0.929 . S
C2132 C2133 1.377 1_655 S
C2132 C2134 1.384 . S
C2133 C2132 1.377 1_455 S
C2133 C2139 1.390 . S
C2134 H2125 0.930 . S
C2134 C2132 1.384 . S
C2134 C2135 1.372 1_655 S
C2135 C2134 1.372 1_455 S
C2135 C2136 1.400 . S
C2135 C2140 1.493 1_455 S
C2136 H2126 0.930 . S
C2136 C2135 1.400 . S
C2136 C2139 1.386 . S
H2137 C2153 0.927 1_455 S
H2138 C2154 0.931 . S
C2139 H2127 0.929 . S
C2139 C2133 1.390 . S
C2139 C2136 1.386 . S
C2140 C2135 1.493 1_655 S
C2140 C2142 1.388 . S
C2140 C2143 1.406 1_655 S
H2141 C2147 0.930 . S
C2142 H2128 0.930 . S
C2142 C2140 1.388 . S
C2142 C2145 1.403 . S
C2143 C2140 1.406 1_455 S
C2143 C2144 1.524 . S
C2143 C2147 1.400 . S
C2144 H2129 0.960 . S
C2144 H2130 0.960 . S
C2144 H2131 0.960 . S
C2144 C2143 1.524 . S
C2145 C2142 1.403 . S
C2145 C2146 1.392 . S
C2145 C2149 1.495 . S
C2146 C2145 1.392 . S
C2146 C2147 1.385 1_655 S
C2146 C2148 1.478 . S
C2147 H2141 0.930 . S
C2147 C2143 1.400 . S
C2147 C2146 1.385 1_455 S
C2148 C2146 1.478 . S
C2148 C2150 1.381 . S
C2148 C2154 1.383 . S
C2149 C2145 1.495 . S
C2149 H2155 0.959 . S
C2149 H2156 0.961 . S
C2149 H2157 0.960 . S
C2150 C2148 1.381 . S
C2150 C2151 1.394 . S
C2150 H2158 0.930 . S
C2151 C2150 1.394 . S
C2151 C2152 1.383 . S
C2151 H2159 0.929 . S
C2152 C2151 1.383 . S
C2152 C2153 1.393 . S
C2153 H2137 0.927 1_655 S
C2153 C2152 1.393 . S
C2153 C2154 1.367 . S
C2154 H2138 0.931 . S
C2154 C2148 1.383 . S
C2154 C2153 1.367 . S
H2155 C2149 0.959 . S
H2156 C2149 0.961 . S
H2157 C2149 0.960 . S
H2158 C2150 0.930 . S
H2159 C2151 0.929 . S
H2160 C2168 0.929 . S
H2161 C2170 0.930 . S
H2162 C2172 0.930 . S
H2163 C2175 0.929 . S
H2164 C2178 0.930 . S
H2165 C2180 0.960 . S
H2166 C2180 0.960 . S
H2167 C2180 0.960 . S
C2168 H2160 0.929 . S
C2168 C2169 1.377 . S
C2168 C2170 1.384 . S
C2169 C2168 1.377 . S
C2169 C2175 1.390 . S
C2170 H2161 0.930 . S
C2170 C2168 1.384 . S
C2170 C2171 1.372 . S
C2171 C2170 1.372 . S
C2171 C2172 1.400 . S
C2171 C2176 1.490 . S
C2172 H2162 0.930 . S
C2172 C2171 1.400 . S
C2172 C2175 1.386 . S
H2173 C2189 0.930 . S
H2174 C2190 0.931 . S
C2175 H2163 0.929 . S
C2175 C2169 1.390 . S
C2175 C2172 1.386 . S
C2176 C2171 1.490 . S
C2176 C2178 1.395 . S
C2176 C2179 1.403 . S
H2177 C2183 0.930 . S
C2178 H2164 0.930 . S
C2178 C2176 1.395 . S
C2178 C2181 1.403 . S
C2179 C2176 1.403 . S
C2179 C2180 1.524 . S
C2179 C2183 1.400 . S
C2180 H2165 0.960 . S
C2180 H2166 0.960 . S
C2180 H2167 0.960 . S
C2180 C2179 1.524 . S
C2181 C2178 1.403 . S
C2181 C2182 1.392 . S
C2181 C2185 1.495 . S
C2182 C2181 1.392 . S
C2182 C2183 1.385 . S
C2182 C2184 1.478 . S
C2183 H2177 0.930 . S
C2183 C2179 1.400 . S
C2183 C2182 1.385 . S
C2184 C2182 1.478 . S
C2184 C2186 1.381 . S
C2184 C2190 1.383 . S
C2185 C2181 1.495 . S
C2185 H2191 0.959 . S
C2185 H2192 0.961 . S
C2185 H2193 0.960 . S
C2186 C2184 1.381 . S
C2186 C2187 1.394 . S
C2186 H2194 0.930 . S
C2187 C2186 1.394 . S
C2187 C2188 1.383 . S
C2187 H2195 0.929 . S
C2188 C2187 1.383 . S
C2188 C2189 1.377 . S
C2189 H2173 0.930 . S
C2189 C2188 1.377 . S
C2189 C2190 1.379 . S
C2190 H2174 0.931 . S
C2190 C2184 1.383 . S
C2190 C2189 1.379 . S
H2191 C2185 0.959 . S
H2192 C2185 0.961 . S
H2193 C2185 0.960 . S
H2194 C2186 0.930 . S
H2195 C2187 0.929 . S
H2196 C2204 0.929 . S
H2197 C2206 0.930 . S
H2198 C2208 0.930 . S
H2199 C2211 0.929 . S
H2200 C2214 0.930 . S
H2201 C2216 0.960 . S
H2202 C2216 0.960 . S
H2203 C2216 0.978 . S
C2204 H2196 0.929 . S
C2204 C2205 1.377 . S
C2204 C2206 1.384 . S
C2205 C2204 1.377 . S
C2205 C2211 1.390 1_545 S
C2206 H2197 0.930 . S
C2206 C2204 1.384 . S
C2206 C2207 1.372 . S
C2207 C2206 1.372 . S
C2207 C2208 1.400 1_545 S
C2207 C2212 1.490 . S
C2208 H2198 0.930 . S
C2208 C2207 1.400 1_565 S
C2208 C2211 1.386 . S
H2209 C2225 0.930 . S
H2210 C2226 0.931 . S
C2211 H2199 0.929 . S
C2211 C2205 1.390 1_565 S
C2211 C2208 1.386 . S
C2212 C2207 1.490 . S
C2212 C2214 1.395 1_545 S
C2212 C2215 1.403 . S
H2213 C2219 0.930 . S
C2214 H2200 0.930 . S
C2214 C2212 1.395 1_565 S
C2214 C2217 1.403 . S
C2215 C2212 1.403 . S
C2215 C2216 1.524 . S
C2215 C2219 1.400 . S
C2216 H2201 0.960 . S
C2216 H2202 0.960 . S
C2216 H2203 0.978 . S
C2216 C2215 1.524 . S
C2217 C2214 1.403 . S
C2217 C2218 1.400 . S
C2217 C2221 1.495 . S
C2218 C2217 1.400 . S
C2218 C2219 1.383 1_565 S
C2218 C2220 1.472 . S
C2219 H2213 0.930 . S
C2219 C2215 1.400 . S
C2219 C2218 1.383 1_545 S
C2220 C2218 1.472 . S
C2220 C2222 1.381 1_565 S
C2220 C2226 1.383 . S
C2221 C2217 1.495 . S
C2221 H2227 0.959 . S
C2221 H2228 0.961 . S
C2221 H2229 0.960 1_565 S
C2222 C2220 1.381 1_545 S
C2222 C2223 1.394 . S
C2222 H2230 0.930 . S
C2223 C2222 1.394 . S
C2223 C2224 1.383 1_545 S
C2223 H2231 0.929 . S
C2224 C2223 1.383 1_565 S
C2224 C2225 1.377 . S
C2225 H2209 0.930 . S
C2225 C2224 1.377 . S
C2225 C2226 1.379 . S
C2226 H2210 0.931 . S
C2226 C2220 1.383 . S
C2226 C2225 1.379 . S
H2227 C2221 0.959 . S
H2228 C2221 0.961 . S
H2229 C2221 0.960 1_545 S
H2230 C2222 0.930 . S
H2231 C2223 0.929 . S
H2232 C2240 0.929 . S
H2233 C2242 0.930 . S
H2234 C2244 0.930 . S
H2235 C2247 0.929 . S
H2236 C2250 0.930 . S
H2237 C2252 0.960 . S
H2238 C2252 0.960 . S
H2239 C2252 0.960 . S
C2240 H2232 0.929 . S
C2240 C2241 1.377 . S
C2240 C2242 1.384 . S
C2241 C2240 1.377 . S
C2241 C2247 1.390 . S
C2242 H2233 0.930 . S
C2242 C2240 1.384 . S
C2242 C2243 1.372 . S
C2243 C2242 1.372 . S
C2243 C2244 1.400 . S
C2243 C2248 1.490 . S
C2244 H2234 0.930 . S
C2244 C2243 1.400 . S
C2244 C2247 1.386 . S
H2245 C2261 0.930 . S
H2246 C2262 0.931 . S
C2247 H2235 0.929 . S
C2247 C2241 1.390 . S
C2247 C2244 1.386 . S
C2248 C2243 1.490 . S
C2248 C2250 1.395 . S
C2248 C2251 1.403 . S
H2249 C2255 0.930 . S
C2250 H2236 0.930 . S
C2250 C2248 1.395 . S
C2250 C2253 1.403 . S
C2251 C2248 1.403 . S
C2251 C2252 1.524 . S
C2251 C2255 1.400 . S
C2252 H2237 0.960 . S
C2252 H2238 0.960 . S
C2252 H2239 0.960 . S
C2252 C2251 1.524 . S
C2253 C2250 1.403 . S
C2253 C2254 1.392 . S
C2253 C2257 1.495 1_554 S
C2254 C2253 1.392 . S
C2254 C2255 1.385 . S
C2254 C2256 1.478 1_554 S
C2255 H2249 0.930 . S
C2255 C2251 1.400 . S
C2255 C2254 1.385 . S
C2256 C2254 1.478 1_556 S
C2256 C2258 1.381 . S
C2256 C2262 1.383 . S
C2257 C2253 1.495 1_556 S
C2257 H2263 0.959 . S
C2257 H2264 0.961 . S
C2257 H2265 0.960 . S
C2258 C2256 1.381 . S
C2258 C2259 1.394 . S
C2258 H2266 0.930 1_556 S
C2259 C2258 1.394 . S
C2259 C2260 1.383 . S
C2259 H2267 0.929 . S
C2260 C2259 1.383 . S
C2260 C2261 1.377 . S
C2261 H2245 0.930 . S
C2261 C2260 1.377 . S
C2261 C2262 1.379 . S
C2262 H2246 0.931 . S
C2262 C2256 1.383 . S
C2262 C2261 1.379 . S
H2263 C2257 0.959 . S
H2264 C2257 0.961 . S
H2265 C2257 0.960 . S
H2266 C2258 0.930 1_554 S
H2267 C2259 0.929 . S
H2268 C2276 0.929 . S
H2269 C2278 0.930 . S
H2270 C2280 0.930 . S
H2271 C2283 0.929 . S
H2272 C2286 0.930 . S
H2273 C2288 0.960 . S
H2274 C2288 0.960 . S
H2275 C2288 0.960 . S
C2276 H2268 0.929 . S
C2276 C2277 1.377 . S
C2276 C2278 1.384 . S
C2277 C2276 1.377 . S
C2277 C2283 1.390 . S
C2278 H2269 0.930 . S
C2278 C2276 1.384 . S
C2278 C2279 1.372 . S
C2279 C2278 1.372 . S
C2279 C2280 1.400 . S
C2279 C2284 1.490 . S
C2280 H2270 0.930 . S
C2280 C2279 1.400 . S
C2280 C2283 1.386 . S
H2281 C2297 0.930 . S
H2282 C2298 0.991 . S
C2283 H2271 0.929 . S
C2283 C2277 1.390 . S
C2283 C2280 1.386 . S
C2284 C2279 1.490 . S
C2284 C2286 1.395 . S
C2284 C2287 1.403 . S
H2285 C2291 0.930 . S
C2286 H2272 0.930 . S
C2286 C2284 1.395 . S
C2286 C2289 1.403 . S
C2287 C2284 1.403 . S
C2287 C2288 1.524 . S
C2287 C2291 1.400 . S
C2288 H2273 0.960 . S
C2288 H2274 0.960 . S
C2288 H2275 0.960 . S
C2288 C2287 1.524 . S
C2289 C2286 1.403 . S
C2289 C2290 1.392 . S
C2289 C2293 1.495 1_554 S
C2290 C2289 1.392 . S
C2290 C2291 1.385 . S
C2290 C2292 1.478 1_554 S
C2291 H2285 0.930 . S
C2291 C2287 1.400 . S
C2291 C2290 1.385 . S
C2292 C2290 1.478 1_556 S
C2292 C2294 1.381 . S
C2292 C2298 1.357 1_556 S
C2293 C2289 1.495 1_556 S
C2293 H2299 0.959 . S
C2293 H2300 0.961 . S
C2293 H2301 0.960 . S
C2294 C2292 1.381 . S
C2294 C2295 1.394 . S
C2294 H2302 0.930 . S
C2295 C2294 1.394 . S
C2295 C2296 1.383 . S
C2295 H2303 0.929 . S
C2296 C2295 1.383 . S
C2296 C2297 1.377 . S
C2297 H2281 0.930 . S
C2297 C2296 1.377 . S
C2297 C2298 1.348 1_556 S
C2298 H2282 0.991 . S
C2298 C2292 1.357 1_554 S
C2298 C2297 1.348 1_554 S
H2299 C2293 0.959 . S
H2300 C2293 0.961 . S
H2301 C2293 0.960 . S
H2302 C2294 0.930 . S
H2303 C2295 0.929 . S
H2304 C2312 0.929 . S
H2305 C2314 0.930 . S
H2306 C2316 0.930 . S
H2307 C2319 0.929 . S
H2308 C2322 0.930 . S
H2309 C2324 0.960 . S
H2310 C2324 0.960 . S
H2311 C2324 0.960 . S
C2312 H2304 0.929 . S
C2312 C2313 1.377 . S
C2312 C2314 1.384 . S
C2313 C2312 1.377 . S
C2313 C2319 1.390 . S
C2314 H2305 0.930 . S
C2314 C2312 1.384 . S
C2314 C2315 1.372 . S
C2315 C2314 1.372 . S
C2315 C2316 1.400 . S
C2315 C2320 1.490 . S
C2316 H2306 0.930 . S
C2316 C2315 1.400 . S
C2316 C2319 1.386 . S
H2317 C2333 0.930 . S
H2318 C2334 0.931 . S
C2319 H2307 0.929 . S
C2319 C2313 1.390 . S
C2319 C2316 1.386 . S
C2320 C2315 1.490 . S
C2320 C2322 1.395 . S
C2320 C2323 1.403 . S
H2321 C2327 0.930 . S
C2322 H2308 0.930 . S
C2322 C2320 1.395 . S
C2322 C2325 1.403 . S
C2323 C2320 1.403 . S
C2323 C2324 1.524 . S
C2323 C2327 1.400 . S
C2324 H2309 0.960 . S
C2324 H2310 0.960 . S
C2324 H2311 0.960 . S
C2324 C2323 1.524 . S
C2325 C2322 1.403 . S
C2325 C2326 1.392 . S
C2325 C2329 1.495 . S
C2326 C2325 1.392 . S
C2326 C2327 1.385 . S
C2326 C2328 1.440 1_554 S
C2327 H2321 0.930 . S
C2327 C2323 1.400 . S
C2327 C2326 1.385 . S
C2328 C2326 1.440 1_556 S
C2328 C2330 1.358 1_556 S
C2328 C2334 1.447 . S
C2329 C2325 1.495 . S
C2329 H2335 0.959 . S
C2329 H2336 0.961 . S
C2329 H2337 0.960 . S
C2330 C2328 1.358 1_554 S
C2330 C2331 1.394 1_554 S
C2330 H2338 0.930 . S
C2331 C2330 1.394 1_556 S
C2331 C2332 1.383 . S
C2331 H2339 0.929 1_556 S
C2332 C2331 1.383 . S
C2332 C2333 1.377 . S
C2333 H2317 0.930 . S
C2333 C2332 1.377 . S
C2333 C2334 1.379 . S
C2334 H2318 0.931 . S
C2334 C2328 1.447 . S
C2334 C2333 1.379 . S
H2335 C2329 0.959 . S
H2336 C2329 0.961 . S
H2337 C2329 0.960 . S
H2338 C2330 0.930 . S
H2339 C2331 0.929 1_554 S
H2340 C2348 0.929 . S
H2341 C2350 0.930 . S
H2342 C2352 0.930 . S
H2343 C2355 0.929 . S
H2344 C2358 0.930 . S
H2345 C2360 0.960 1_554 S
H2346 C2360 0.960 . S
H2347 C2360 0.960 . S
C2348 H2340 0.929 . S
C2348 C2349 1.377 . S
C2348 C2350 1.384 . S
C2349 C2348 1.377 . S
C2349 C2355 1.390 . S
C2350 H2341 0.930 . S
C2350 C2348 1.384 . S
C2350 C2351 1.372 . S
C2351 C2350 1.372 . S
C2351 C2352 1.400 . S
C2351 C2356 1.490 . S
C2352 H2342 0.930 . S
C2352 C2351 1.400 . S
C2352 C2355 1.386 . S
H2353 C2369 0.930 . S
H2354 C2370 0.931 . S
C2355 H2343 0.929 . S
C2355 C2349 1.390 . S
C2355 C2352 1.386 . S
C2356 C2351 1.490 . S
C2356 C2358 1.395 . S
C2356 C2359 1.403 . S
H2357 C2363 0.930 1_554 S
C2358 H2344 0.930 . S
C2358 C2356 1.395 . S
C2358 C2361 1.403 . S
C2359 C2356 1.403 . S
C2359 C2360 1.524 . S
C2359 C2363 1.400 . S
C2360 H2345 0.960 1_556 S
C2360 H2346 0.960 . S
C2360 H2347 0.960 . S
C2360 C2359 1.524 . S
C2361 C2358 1.403 . S
C2361 C2362 1.392 . S
C2361 C2365 1.495 . S
C2362 C2361 1.392 . S
C2362 C2363 1.385 . S
C2362 C2364 1.471 1_556 S
C2363 H2357 0.930 1_556 S
C2363 C2359 1.400 . S
C2363 C2362 1.385 . S
C2364 C2362 1.471 1_554 S
C2364 C2366 1.377 1_554 S
C2364 C2370 1.394 . S
C2365 C2361 1.495 . S
C2365 H2371 0.959 . S
C2365 H2372 0.961 . S
C2365 H2373 0.960 . S
C2366 C2364 1.377 1_556 S
C2366 C2367 1.394 1_556 S
C2366 H2374 0.930 . S
C2367 C2366 1.394 1_554 S
C2367 C2368 1.383 . S
C2367 H2375 0.929 . S
C2368 C2367 1.383 . S
C2368 C2369 1.377 . S
C2369 H2353 0.930 . S
C2369 C2368 1.377 . S
C2369 C2370 1.379 . S
C2370 H2354 0.931 . S
C2370 C2364 1.394 . S
C2370 C2369 1.379 . S
H2371 C2365 0.959 . S
H2372 C2365 0.961 . S
H2373 C2365 0.960 . S
H2374 C2366 0.930 . S
H2375 C2367 0.929 . S
H2376 C2384 0.929 . S
H2377 C2386 0.930 1_556 S
H2378 C2388 0.930 . S
H2379 C2391 0.929 . S
H2380 C2394 0.930 1_554 S
H2381 C2396 0.960 . S
H2382 C2396 0.960 . S
H2383 C2396 0.960 . S
C2384 H2376 0.929 . S
C2384 C2385 1.377 . S
C2384 C2386 1.384 . S
C2385 C2384 1.377 . S
C2385 C2391 1.390 . S
C2386 H2377 0.930 1_554 S
C2386 C2384 1.384 . S
C2386 C2387 1.372 . S
C2387 C2386 1.372 . S
C2387 C2388 1.400 . S
C2387 C2392 1.490 1_554 S
C2388 H2378 0.930 . S
C2388 C2387 1.400 . S
C2388 C2391 1.386 . S
H2389 C2405 0.930 . S
H2390 C2406 0.931 . S
C2391 H2379 0.929 . S
C2391 C2385 1.390 . S
C2391 C2388 1.386 . S
C2392 C2387 1.490 1_556 S
C2392 C2394 1.395 . S
C2392 C2395 1.403 . S
H2393 C2399 0.930 . S
C2394 H2380 0.930 1_556 S
C2394 C2392 1.395 . S
C2394 C2397 1.403 . S
C2395 C2392 1.403 . S
C2395 C2396 1.524 . S
C2395 C2399 1.400 . S
C2396 H2381 0.960 . S
C2396 H2382 0.960 . S
C2396 H2383 0.960 . S
C2396 C2395 1.524 . S
C2397 C2394 1.403 . S
C2397 C2398 1.392 . S
C2397 C2401 1.495 . S
C2398 C2397 1.392 . S
C2398 C2399 1.385 . S
C2398 C2400 1.478 . S
C2399 H2393 0.930 . S
C2399 C2395 1.400 . S
C2399 C2398 1.385 . S
C2400 C2398 1.478 . S
C2400 C2402 1.381 . S
C2400 C2406 1.383 . S
C2401 C2397 1.495 . S
C2401 H2407 0.959 1_556 S
C2401 H2408 0.961 . S
C2401 H2409 0.960 . S
C2402 C2400 1.381 . S
C2402 C2403 1.394 . S
C2402 H2410 0.930 . S
C2403 C2402 1.394 . S
C2403 C2404 1.383 . S
C2403 H2411 0.929 . S
C2404 C2403 1.383 . S
C2404 C2405 1.377 . S
C2405 H2389 0.930 . S
C2405 C2404 1.377 . S
C2405 C2406 1.379 . S
C2406 H2390 0.931 . S
C2406 C2400 1.383 . S
C2406 C2405 1.379 . S
H2407 C2401 0.959 1_554 S
H2408 C2401 0.961 . S
H2409 C2401 0.960 . S
H2410 C2402 0.930 . S
H2411 C2403 0.929 . S
H2412 C2420 0.929 . S
H2413 C2422 0.930 . S
H2414 C2424 0.930 . S
H2415 C2427 0.929 . S
H2416 C2430 0.930 . S
H2417 C2432 0.960 . S
H2418 C2432 0.960 . S
H2419 C2432 0.960 . S
C2420 H2412 0.929 . S
C2420 C2421 1.377 . S
C2420 C2422 1.384 . S
C2421 C2420 1.377 . S
C2421 C2427 1.390 . S
C2422 H2413 0.930 . S
C2422 C2420 1.384 . S
C2422 C2423 1.372 . S
C2423 C2422 1.372 . S
C2423 C2424 1.400 . S
C2423 C2428 1.490 . S
C2424 H2414 0.930 . S
C2424 C2423 1.400 . S
C2424 C2427 1.386 . S
H2425 C2441 0.943 . S
H2426 C2442 0.931 . S
C2427 H2415 0.929 . S
C2427 C2421 1.390 . S
C2427 C2424 1.386 . S
C2428 C2423 1.490 . S
C2428 C2430 1.395 . S
C2428 C2431 1.403 . S
H2429 C2435 0.930 . S
C2430 H2416 0.930 . S
C2430 C2428 1.395 . S
C2430 C2433 1.403 . S
C2431 C2428 1.403 . S
C2431 C2432 1.524 . S
C2431 C2435 1.400 . S
C2432 H2417 0.960 . S
C2432 H2418 0.960 . S
C2432 H2419 0.960 . S
C2432 C2431 1.524 . S
C2433 C2430 1.403 . S
C2433 C2434 1.392 . S
C2433 C2437 1.495 . S
C2434 C2433 1.392 . S
C2434 C2435 1.385 . S
C2434 C2436 1.478 1_556 S
C2435 H2429 0.930 . S
C2435 C2431 1.400 . S
C2435 C2434 1.385 . S
C2436 C2434 1.478 1_554 S
C2436 C2438 1.381 . S
C2436 C2442 1.383 1_554 S
C2437 C2433 1.495 . S
C2437 H2443 0.959 . S
C2437 H2444 0.961 . S
C2437 H2445 0.960 1_556 S
C2438 C2436 1.381 . S
C2438 C2439 1.394 . S
C2438 H2446 0.930 . S
C2439 C2438 1.394 . S
C2439 C2440 1.383 . S
C2439 H2447 0.929 . S
C2440 C2439 1.383 . S
C2440 C2441 1.377 . S
C2441 H2425 0.943 . S
C2441 C2440 1.377 . S
C2441 C2442 1.379 1_554 S
C2442 H2426 0.931 . S
C2442 C2436 1.383 1_556 S
C2442 C2441 1.379 1_556 S
H2443 C2437 0.959 . S
H2444 C2437 0.961 . S
H2445 C2437 0.960 1_554 S
H2446 C2438 0.930 . S
H2447 C2439 0.929 . S
H2448 C2456 0.929 . S
H2449 C2458 0.930 . S
H2450 C2460 0.930 . S
H2451 C2463 0.929 . S
H2452 C2466 0.930 . S
H2453 C2468 0.960 . S
H2454 C2468 0.960 . S
H2455 C2468 0.960 . S
C2456 H2448 0.929 . S
C2456 C2457 1.377 . S
C2456 C2458 1.384 . S
C2457 C2456 1.377 . S
C2457 C2463 1.390 . S
C2458 H2449 0.930 . S
C2458 C2456 1.384 . S
C2458 C2459 1.372 . S
C2459 C2458 1.372 . S
C2459 C2460 1.400 . S
C2459 C2464 1.490 . S
C2460 H2450 0.930 . S
C2460 C2459 1.400 . S
C2460 C2463 1.386 . S
H2461 C2477 0.930 . S
H2462 C2478 0.931 . S
C2463 H2451 0.929 . S
C2463 C2457 1.390 . S
C2463 C2460 1.386 . S
C2464 C2459 1.490 . S
C2464 C2466 1.395 . S
C2464 C2467 1.403 . S
H2465 C2471 0.930 . S
C2466 H2452 0.930 . S
C2466 C2464 1.395 . S
C2466 C2469 1.403 . S
C2467 C2464 1.403 . S
C2467 C2468 1.524 . S
C2467 C2471 1.400 . S
C2468 H2453 0.960 . S
C2468 H2454 0.960 . S
C2468 H2455 0.960 . S
C2468 C2467 1.524 . S
C2469 C2466 1.403 . S
C2469 C2470 1.392 . S
C2469 C2473 1.495 . S
C2470 C2469 1.392 . S
C2470 C2471 1.385 . S
C2470 C2472 1.478 . S
C2471 H2465 0.930 . S
C2471 C2467 1.400 . S
C2471 C2470 1.385 . S
C2472 C2470 1.478 . S
C2472 C2474 1.381 . S
C2472 C2478 1.383 . S
C2473 C2469 1.495 . S
C2473 H2479 0.959 . S
C2473 H2480 0.961 . S
C2473 H2481 0.960 . S
C2474 C2472 1.381 . S
C2474 C2475 1.394 . S
C2474 H2482 0.930 . S
C2475 C2474 1.394 . S
C2475 C2476 1.383 . S
C2475 H2483 0.929 . S
C2476 C2475 1.383 . S
C2476 C2477 1.377 . S
C2477 H2461 0.930 . S
C2477 C2476 1.377 . S
C2477 C2478 1.379 . S
C2478 H2462 0.931 . S
C2478 C2472 1.383 . S
C2478 C2477 1.379 . S
H2479 C2473 0.959 . S
H2480 C2473 0.961 . S
H2481 C2473 0.960 . S
H2482 C2474 0.930 . S
H2483 C2475 0.929 . S
H2484 C2492 0.929 . S
H2485 C2494 0.930 . S
H2486 C2496 0.930 . S
H2487 C2499 0.929 . S
H2488 C2502 0.930 . S
H2489 C2504 0.960 . S
H2490 C2504 0.960 . S
H2491 C2504 0.960 . S
C2492 H2484 0.929 . S
C2492 C2493 1.377 . S
C2492 C2494 1.384 . S
C2493 C2492 1.377 . S
C2493 C2499 1.390 . S
C2494 H2485 0.930 . S
C2494 C2492 1.384 . S
C2494 C2495 1.372 . S
C2495 C2494 1.372 . S
C2495 C2496 1.400 . S
C2495 C2500 1.490 . S
C2496 H2486 0.930 . S
C2496 C2495 1.400 . S
C2496 C2499 1.386 . S
H2497 C2513 0.930 . S
H2498 C2514 0.931 . S
C2499 H2487 0.929 . S
C2499 C2493 1.390 . S
C2499 C2496 1.386 . S
C2500 C2495 1.490 . S
C2500 C2502 1.395 . S
C2500 C2503 1.403 . S
H2501 C2507 0.930 . S
C2502 H2488 0.930 . S
C2502 C2500 1.395 . S
C2502 C2505 1.403 . S
C2503 C2500 1.403 . S
C2503 C2504 1.524 . S
C2503 C2507 1.400 . S
C2504 H2489 0.960 . S
C2504 H2490 0.960 . S
C2504 H2491 0.960 . S
C2504 C2503 1.524 . S
C2505 C2502 1.403 . S
C2505 C2506 1.392 . S
C2505 C2509 1.495 . S
C2506 C2505 1.392 . S
C2506 C2507 1.385 . S
C2506 C2508 1.478 . S
C2507 H2501 0.930 . S
C2507 C2503 1.400 . S
C2507 C2506 1.385 . S
C2508 C2506 1.478 . S
C2508 C2510 1.381 . S
C2508 C2514 1.383 . S
C2509 C2505 1.495 . S
C2509 H2515 0.959 . S
C2509 H2516 0.961 . S
C2509 H2517 0.960 . S
C2510 C2508 1.381 . S
C2510 C2511 1.394 . S
C2510 H2518 0.930 . S
C2511 C2510 1.394 . S
C2511 C2512 1.383 . S
C2511 H2519 0.929 . S
C2512 C2511 1.383 . S
C2512 C2513 1.377 . S
C2513 H2497 0.930 . S
C2513 C2512 1.377 . S
C2513 C2514 1.379 . S
C2514 H2498 0.931 . S
C2514 C2508 1.383 . S
C2514 C2513 1.379 . S
H2515 C2509 0.959 . S
H2516 C2509 0.961 . S
H2517 C2509 0.960 . S
H2518 C2510 0.930 . S
H2519 C2511 0.929 . S
H2520 C2528 0.929 . S
H2521 C2530 0.930 . S
H2522 C2532 0.930 . S
H2523 C2535 0.929 . S
H2524 C2538 0.930 . S
H2525 C2540 0.960 . S
H2526 C2540 0.960 . S
H2527 C2540 0.960 . S
C2528 H2520 0.929 . S
C2528 C2529 1.377 . S
C2528 C2530 1.384 . S
C2529 C2528 1.377 . S
C2529 C2535 1.390 . S
C2530 H2521 0.930 . S
C2530 C2528 1.384 . S
C2530 C2531 1.372 . S
C2531 C2530 1.372 . S
C2531 C2532 1.400 . S
C2531 C2536 1.490 . S
C2532 H2522 0.930 . S
C2532 C2531 1.400 . S
C2532 C2535 1.386 . S
H2533 C2549 0.930 . S
H2534 C2550 0.931 . S
C2535 H2523 0.929 . S
C2535 C2529 1.390 . S
C2535 C2532 1.386 . S
C2536 C2531 1.490 . S
C2536 C2538 1.395 . S
C2536 C2539 1.403 . S
H2537 C2543 0.930 . S
C2538 H2524 0.930 . S
C2538 C2536 1.395 . S
C2538 C2541 1.403 . S
C2539 C2536 1.403 . S
C2539 C2540 1.524 . S
C2539 C2543 1.400 . S
C2540 H2525 0.960 . S
C2540 H2526 0.960 . S
C2540 H2527 0.960 . S
C2540 C2539 1.524 . S
C2541 C2538 1.403 . S
C2541 C2542 1.392 . S
C2541 C2545 1.495 . S
C2542 C2541 1.392 . S
C2542 C2543 1.385 . S
C2542 C2544 1.478 . S
C2543 H2537 0.930 . S
C2543 C2539 1.400 . S
C2543 C2542 1.385 . S
C2544 C2542 1.478 . S
C2544 C2546 1.381 . S
C2544 C2550 1.383 . S
C2545 C2541 1.495 . S
C2545 H2551 0.959 . S
C2545 H2552 0.961 . S
C2545 H2553 0.960 . S
C2546 C2544 1.381 . S
C2546 C2547 1.394 . S
C2546 H2554 0.930 . S
C2547 C2546 1.394 . S
C2547 C2548 1.383 . S
C2547 H2555 0.929 . S
C2548 C2547 1.383 . S
C2548 C2549 1.377 . S
C2549 H2533 0.930 . S
C2549 C2548 1.377 . S
C2549 C2550 1.379 . S
C2550 H2534 0.931 . S
C2550 C2544 1.383 . S
C2550 C2549 1.379 . S
H2551 C2545 0.959 . S
H2552 C2545 0.961 . S
H2553 C2545 0.960 . S
H2554 C2546 0.930 . S
H2555 C2547 0.929 . S
H2556 C2564 0.929 . S
H2557 C2566 0.930 . S
H2558 C2568 0.930 . S
H2559 C2571 0.929 . S
H2560 C2574 0.930 . S
H2561 C2576 0.960 . S
H2562 C2576 0.960 . S
H2563 C2576 0.960 . S
C2564 H2556 0.929 . S
C2564 C2565 1.377 . S
C2564 C2566 1.384 . S
C2565 C2564 1.377 . S
C2565 C2571 1.390 . S
C2566 H2557 0.930 . S
C2566 C2564 1.384 . S
C2566 C2567 1.372 . S
C2567 C2566 1.372 . S
C2567 C2568 1.400 . S
C2567 C2572 1.490 . S
C2568 H2558 0.930 . S
C2568 C2567 1.400 . S
C2568 C2571 1.386 . S
H2569 C2585 0.930 . S
H2570 C2586 0.931 . S
C2571 H2559 0.929 . S
C2571 C2565 1.390 . S
C2571 C2568 1.386 . S
C2572 C2567 1.490 . S
C2572 C2574 1.395 . S
C2572 C2575 1.403 . S
H2573 C2579 0.930 . S
C2574 H2560 0.930 . S
C2574 C2572 1.395 . S
C2574 C2577 1.403 . S
C2575 C2572 1.403 . S
C2575 C2576 1.524 . S
C2575 C2579 1.400 . S
C2576 H2561 0.960 . S
C2576 H2562 0.960 . S
C2576 H2563 0.960 . S
C2576 C2575 1.524 . S
C2577 C2574 1.403 . S
C2577 C2578 1.392 . S
C2577 C2581 1.495 . S
C2578 C2577 1.392 . S
C2578 C2579 1.385 . S
C2578 C2580 1.478 . S
C2579 H2573 0.930 . S
C2579 C2575 1.400 . S
C2579 C2578 1.385 . S
C2580 C2578 1.478 . S
C2580 C2582 1.381 . S
C2580 C2586 1.383 . S
C2581 C2577 1.495 . S
C2581 H2587 0.959 . S
C2581 H2588 0.961 . S
C2581 H2589 0.960 . S
C2582 C2580 1.381 . S
C2582 C2583 1.394 . S
C2582 H2590 0.930 . S
C2583 C2582 1.394 . S
C2583 C2584 1.383 . S
C2583 H2591 0.929 . S
C2584 C2583 1.383 . S
C2584 C2585 1.377 . S
C2585 H2569 0.930 . S
C2585 C2584 1.377 . S
C2585 C2586 1.379 . S
C2586 H2570 0.931 . S
C2586 C2580 1.383 . S
C2586 C2585 1.379 . S
H2587 C2581 0.959 . S
H2588 C2581 0.961 . S
H2589 C2581 0.960 . S
H2590 C2582 0.930 . S
H2591 C2583 0.929 . S
H2592 C2600 0.929 . S
H2593 C2602 0.930 1_565 S
H2594 C2604 0.930 . S
H2595 C2607 0.929 . S
H2596 C2610 0.930 . S
H2597 C2612 0.960 . S
H2598 C2612 0.960 . S
H2599 C2612 0.960 . S
C2600 H2592 0.929 . S
C2600 C2601 1.377 . S
C2600 C2602 1.384 . S
C2601 C2600 1.377 . S
C2601 C2607 1.390 . S
C2602 H2593 0.930 1_545 S
C2602 C2600 1.384 . S
C2602 C2603 1.372 . S
C2603 C2602 1.372 . S
C2603 C2604 1.400 . S
C2603 C2608 1.490 . S
C2604 H2594 0.930 . S
C2604 C2603 1.400 . S
C2604 C2607 1.386 . S
H2605 C2621 0.930 . S
H2606 C2622 0.931 . S
C2607 H2595 0.929 . S
C2607 C2601 1.390 . S
C2607 C2604 1.386 . S
C2608 C2603 1.490 . S
C2608 C2610 1.395 . S
C2608 C2611 1.403 . S
H2609 C2615 0.930 . S
C2610 H2596 0.930 . S
C2610 C2608 1.395 . S
C2610 C2613 1.403 . S
C2611 C2608 1.403 . S
C2611 C2612 1.524 . S
C2611 C2615 1.400 . S
C2612 H2597 0.960 . S
C2612 H2598 0.960 . S
C2612 H2599 0.960 . S
C2612 C2611 1.524 . S
C2613 C2610 1.403 . S
C2613 C2614 1.392 . S
C2613 C2617 1.495 . S
C2614 C2613 1.392 . S
C2614 C2615 1.385 . S
C2614 C2616 1.478 . S
C2615 H2609 0.930 . S
C2615 C2611 1.400 . S
C2615 C2614 1.385 . S
C2616 C2614 1.478 . S
C2616 C2618 1.381 1_545 S
C2616 C2622 1.383 . S
C2617 C2613 1.495 . S
C2617 H2623 0.959 . S
C2617 H2624 0.961 . S
C2617 H2625 0.960 1_545 S
C2618 C2616 1.381 1_565 S
C2618 C2619 1.394 . S
C2618 H2626 0.930 . S
C2619 C2618 1.394 . S
C2619 C2620 1.433 . S
C2619 H2627 0.929 . S
C2620 C2619 1.433 . S
C2620 C2621 1.342 1_565 S
C2621 H2605 0.930 . S
C2621 C2620 1.342 1_545 S
C2621 C2622 1.379 . S
C2622 H2606 0.931 . S
C2622 C2616 1.383 . S
C2622 C2621 1.379 . S
H2623 C2617 0.959 . S
H2624 C2617 0.961 . S
H2625 C2617 0.960 1_565 S
H2626 C2618 0.930 . S
H2627 C2619 0.929 . S
H2628 C2636 0.929 . S
H2629 C2638 0.930 1_455 S
H2630 C2640 0.930 . S
H2631 C2643 0.929 . S
H2632 C2646 0.930 1_455 S
H2633 C2648 0.960 . S
H2634 C2648 0.960 . S
H2635 C2648 0.960 . S
C2636 H2628 0.929 . S
C2636 C2637 1.377 . S
C2636 C2638 1.384 . S
C2637 C2636 1.377 . S
C2637 C2643 1.390 . S
C2638 H2629 0.930 1_655 S
C2638 C2636 1.384 . S
C2638 C2639 1.372 . S
C2639 C2638 1.372 . S
C2639 C2640 1.400 . S
C2639 C2644 1.490 . S
C2640 H2630 0.930 . S
C2640 C2639 1.400 . S
C2640 C2643 1.386 . S
H2641 C2657 0.930 . S
H2642 C2658 0.931 . S
C2643 H2631 0.929 . S
C2643 C2637 1.390 . S
C2643 C2640 1.386 . S
C2644 C2639 1.490 . S
C2644 C2646 1.395 . S
C2644 C2647 1.403 . S
H2645 C2651 0.930 . S
C2646 H2632 0.930 1_655 S
C2646 C2644 1.395 . S
C2646 C2649 1.403 1_655 S
C2647 C2644 1.403 . S
C2647 C2648 1.524 . S
C2647 C2651 1.400 . S
C2648 H2633 0.960 . S
C2648 H2634 0.960 . S
C2648 H2635 0.960 . S
C2648 C2647 1.524 . S
C2649 C2646 1.403 1_455 S
C2649 C2650 1.392 1_455 S
C2649 C2653 1.495 . S
C2650 C2649 1.392 1_655 S
C2650 C2651 1.385 . S
C2650 C2652 1.478 . S
C2651 H2645 0.930 . S
C2651 C2647 1.400 . S
C2651 C2650 1.385 . S
C2652 C2650 1.478 . S
C2652 C2654 1.381 1_655 S
C2652 C2658 1.383 . S
C2653 C2649 1.495 . S
C2653 H2659 0.959 . S
C2653 H2660 0.961 . S
C2653 H2661 0.960 . S
C2654 C2652 1.381 1_455 S
C2654 C2655 1.394 . S
C2654 H2662 0.930 . S
C2655 C2654 1.394 . S
C2655 C2656 1.383 . S
C2655 H2663 0.929 . S
C2656 C2655 1.383 . S
C2656 C2657 1.377 1_455 S
C2657 H2641 0.930 . S
C2657 C2656 1.377 1_655 S
C2657 C2658 1.379 . S
C2658 H2642 0.931 . S
C2658 C2652 1.383 . S
C2658 C2657 1.379 . S
H2659 C2653 0.959 . S
H2660 C2653 0.961 . S
H2661 C2653 0.960 . S
H2662 C2654 0.930 . S
H2663 C2655 0.929 . S
H2664 C2672 0.929 . S
H2665 C2674 0.930 . S
H2666 C2676 0.930 . S
H2667 C2679 0.929 . S
H2668 C2682 0.930 . S
H2669 C2684 0.960 . S
H2670 C2684 0.960 . S
H2671 C2684 0.960 . S
C2672 H2664 0.929 . S
C2672 C2673 1.377 . S
C2672 C2674 1.384 . S
C2673 C2672 1.377 . S
C2673 C2679 1.390 . S
C2674 H2665 0.930 . S
C2674 C2672 1.384 . S
C2674 C2675 1.372 . S
C2675 C2674 1.372 . S
C2675 C2676 1.400 . S
C2675 C2680 1.490 . S
C2676 H2666 0.930 . S
C2676 C2675 1.400 . S
C2676 C2679 1.386 . S
H2677 C2693 0.930 . S
H2678 C2694 0.931 . S
C2679 H2667 0.929 . S
C2679 C2673 1.390 . S
C2679 C2676 1.386 . S
C2680 C2675 1.490 . S
C2680 C2682 1.395 . S
C2680 C2683 1.403 . S
H2681 C2687 0.930 . S
C2682 H2668 0.930 . S
C2682 C2680 1.395 . S
C2682 C2685 1.403 . S
C2683 C2680 1.403 . S
C2683 C2684 1.524 . S
C2683 C2687 1.400 . S
C2684 H2669 0.960 . S
C2684 H2670 0.960 . S
C2684 H2671 0.960 . S
C2684 C2683 1.524 . S
C2685 C2682 1.403 . S
C2685 C2686 1.392 . S
C2685 C2689 1.495 . S
C2686 C2685 1.392 . S
C2686 C2687 1.385 . S
C2686 C2688 1.478 . S
C2687 H2681 0.930 . S
C2687 C2683 1.400 . S
C2687 C2686 1.385 . S
C2688 C2686 1.478 . S
C2688 C2690 1.381 . S
C2688 C2694 1.383 . S
C2689 C2685 1.495 . S
C2689 H2695 0.959 . S
C2689 H2696 0.961 . S
C2689 H2697 0.960 . S
C2690 C2688 1.381 . S
C2690 C2691 1.394 . S
C2690 H2698 0.930 . S
C2691 C2690 1.394 . S
C2691 C2692 1.383 . S
C2691 H2699 0.929 . S
C2692 C2691 1.383 . S
C2692 C2693 1.377 . S
C2693 H2677 0.930 . S
C2693 C2692 1.377 . S
C2693 C2694 1.379 . S
C2694 H2678 0.931 . S
C2694 C2688 1.383 . S
C2694 C2693 1.379 . S
H2695 C2689 0.959 . S
H2696 C2689 0.961 . S
H2697 C2689 0.960 . S
H2698 C2690 0.930 . S
H2699 C2691 0.929 . S
H2700 C2708 0.929 . S
H2701 C2710 0.930 . S
H2702 C2712 0.930 . S
H2703 C2715 0.929 . S
H2704 C2718 0.930 . S
H2705 C2720 0.960 . S
H2706 C2720 0.960 . S
H2707 C2720 0.960 . S
C2708 H2700 0.929 . S
C2708 C2709 1.386 . S
C2708 C2710 1.384 . S
C2709 C2708 1.386 . S
C2709 C2715 1.377 1_565 S
C2710 H2701 0.930 . S
C2710 C2708 1.384 . S
C2710 C2711 1.372 . S
C2711 C2710 1.372 . S
C2711 C2712 1.400 1_565 S
C2711 C2716 1.490 . S
C2712 H2702 0.930 . S
C2712 C2711 1.400 1_545 S
C2712 C2715 1.386 . S
H2713 C2729 0.930 . S
H2714 C2730 0.931 1_545 S
C2715 H2703 0.929 . S
C2715 C2709 1.377 1_545 S
C2715 C2712 1.386 . S
C2716 C2711 1.490 . S
C2716 C2718 1.395 . S
C2716 C2719 1.403 . S
H2717 C2723 0.930 . S
C2718 H2704 0.930 . S
C2718 C2716 1.395 . S
C2718 C2721 1.403 . S
C2719 C2716 1.403 . S
C2719 C2720 1.524 . S
C2719 C2723 1.400 . S
C2720 H2705 0.960 . S
C2720 H2706 0.960 . S
C2720 H2707 0.960 . S
C2720 C2719 1.524 . S
C2721 C2718 1.403 . S
C2721 C2722 1.392 . S
C2721 C2725 1.495 . S
C2722 C2721 1.392 . S
C2722 C2723 1.385 . S
C2722 C2724 1.478 . S
C2723 H2717 0.930 . S
C2723 C2719 1.400 . S
C2723 C2722 1.385 . S
C2724 C2722 1.478 . S
C2724 C2726 1.381 . S
C2724 C2730 1.383 . S
C2725 C2721 1.495 . S
C2725 H2731 0.959 . S
C2725 H2732 0.961 1_565 S
C2725 H2733 0.960 . S
C2726 C2724 1.381 . S
C2726 C2727 1.394 . S
C2726 H2734 0.930 . S
C2727 C2726 1.394 . S
C2727 C2728 1.383 . S
C2727 H2735 0.929 . S
C2728 C2727 1.383 . S
C2728 C2729 1.377 . S
C2729 H2713 0.930 . S
C2729 C2728 1.377 . S
C2729 C2730 1.379 . S
C2730 H2714 0.931 1_565 S
C2730 C2724 1.383 . S
C2730 C2729 1.379 . S
H2731 C2725 0.959 . S
H2732 C2725 0.961 1_545 S
H2733 C2725 0.960 . S
H2734 C2726 0.930 . S
H2735 C2727 0.929 . S
H2736 C2744 0.929 . S
H2737 C2746 0.930 1_655 S
H2738 C2748 0.930 . S
H2739 C2751 0.929 . S
H2740 C2754 0.930 . S
H2741 C2756 0.960 . S
H2742 C2756 0.960 . S
H2743 C2756 0.960 . S
C2744 H2736 0.929 . S
C2744 C2745 1.377 . S
C2744 C2746 1.384 . S
C2745 C2744 1.377 . S
C2745 C2751 1.390 . S
C2746 H2737 0.930 1_455 S
C2746 C2744 1.384 . S
C2746 C2747 1.372 . S
C2747 C2746 1.372 . S
C2747 C2748 1.400 . S
C2747 C2752 1.490 . S
C2748 H2738 0.930 . S
C2748 C2747 1.400 . S
C2748 C2751 1.386 . S
H2749 C2765 0.930 . S
H2750 C2766 0.931 . S
C2751 H2739 0.929 . S
C2751 C2745 1.390 . S
C2751 C2748 1.386 . S
C2752 C2747 1.490 . S
C2752 C2754 1.395 1_455 S
C2752 C2755 1.403 . S
H2753 C2759 0.930 . S
C2754 H2740 0.930 . S
C2754 C2752 1.395 1_655 S
C2754 C2757 1.403 . S
C2755 C2752 1.403 . S
C2755 C2756 1.524 . S
C2755 C2759 1.400 . S
C2756 H2741 0.960 . S
C2756 H2742 0.960 . S
C2756 H2743 0.960 . S
C2756 C2755 1.524 . S
C2757 C2754 1.403 . S
C2757 C2758 1.392 1_655 S
C2757 C2761 1.495 . S
C2758 C2757 1.392 1_455 S
C2758 C2759 1.385 . S
C2758 C2760 1.478 . S
C2759 H2753 0.930 . S
C2759 C2755 1.400 . S
C2759 C2758 1.385 . S
C2760 C2758 1.478 . S
C2760 C2762 1.381 1_455 S
C2760 C2766 1.383 . S
C2761 C2757 1.495 . S
C2761 H2767 0.959 . S
C2761 H2768 0.961 . S
C2761 H2769 0.960 . S
C2762 C2760 1.381 1_655 S
C2762 C2763 1.394 . S
C2762 H2770 0.930 . S
C2763 C2762 1.394 . S
C2763 C2764 1.383 . S
C2763 H2771 0.929 . S
C2764 C2763 1.383 . S
C2764 C2765 1.377 1_655 S
C2765 H2749 0.930 . S
C2765 C2764 1.377 1_455 S
C2765 C2766 1.379 . S
C2766 H2750 0.931 . S
C2766 C2760 1.383 . S
C2766 C2765 1.379 . S
H2767 C2761 0.959 . S
H2768 C2761 0.961 . S
H2769 C2761 0.960 . S
H2770 C2762 0.930 . S
H2771 C2763 0.929 . S
H2772 C2780 0.929 . S
H2773 C2782 0.930 . S
H2774 C2784 0.930 . S
H2775 C2787 0.929 . S
H2776 C2790 0.930 . S
H2777 C2792 0.960 . S
H2778 C2792 0.960 . S
H2779 C2792 0.960 . S
C2780 H2772 0.929 . S
C2780 C2781 1.377 . S
C2780 C2782 1.384 . S
C2781 C2780 1.377 . S
C2781 C2787 1.390 . S
C2782 H2773 0.930 . S
C2782 C2780 1.384 . S
C2782 C2783 1.372 . S
C2783 C2782 1.372 . S
C2783 C2784 1.400 . S
C2783 C2788 1.490 . S
C2784 H2774 0.930 . S
C2784 C2783 1.400 . S
C2784 C2787 1.386 . S
H2785 C2801 0.930 . S
H2786 C2802 0.931 . S
C2787 H2775 0.929 . S
C2787 C2781 1.390 . S
C2787 C2784 1.386 . S
C2788 C2783 1.490 . S
C2788 C2790 1.395 . S
C2788 C2791 1.403 . S
H2789 C2795 0.930 . S
C2790 H2776 0.930 . S
C2790 C2788 1.395 . S
C2790 C2793 1.403 . S
C2791 C2788 1.403 . S
C2791 C2792 1.524 . S
C2791 C2795 1.400 . S
C2792 H2777 0.960 . S
C2792 H2778 0.960 . S
C2792 H2779 0.960 . S
C2792 C2791 1.524 . S
C2793 C2790 1.403 . S
C2793 C2794 1.392 . S
C2793 C2797 1.495 . S
C2794 C2793 1.392 . S
C2794 C2795 1.385 . S
C2794 C2796 1.478 . S
C2795 H2789 0.930 . S
C2795 C2791 1.400 . S
C2795 C2794 1.385 . S
C2796 C2794 1.478 . S
C2796 C2798 1.381 . S
C2796 C2802 1.383 . S
C2797 C2793 1.495 . S
C2797 H2803 0.959 . S
C2797 H2804 0.961 . S
C2797 H2805 0.960 . S
C2798 C2796 1.381 . S
C2798 C2799 1.394 . S
C2798 H2806 0.930 . S
C2799 C2798 1.394 . S
C2799 C2800 1.383 . S
C2799 H2807 0.929 . S
C2800 C2799 1.383 . S
C2800 C2801 1.377 . S
C2801 H2785 0.930 . S
C2801 C2800 1.377 . S
C2801 C2802 1.379 . S
C2802 H2786 0.931 . S
C2802 C2796 1.383 . S
C2802 C2801 1.379 . S
H2803 C2797 0.959 . S
H2804 C2797 0.961 . S
H2805 C2797 0.960 . S
H2806 C2798 0.930 . S
H2807 C2799 0.929 . S
H2808 C2816 0.929 . S
H2809 C2818 0.930 . S
H2810 C2820 0.930 . S
H2811 C2823 0.929 . S
H2812 C2826 0.930 . S
H2813 C2828 0.960 . S
H2814 C2828 0.960 . S
H2815 C2828 0.960 . S
C2816 H2808 0.929 . S
C2816 C2817 1.377 . S
C2816 C2818 1.384 . S
C2817 C2816 1.377 . S
C2817 C2823 1.390 . S
C2818 H2809 0.930 . S
C2818 C2816 1.384 . S
C2818 C2819 1.372 . S
C2819 C2818 1.372 . S
C2819 C2820 1.400 . S
C2819 C2824 1.490 . S
C2820 H2810 0.930 . S
C2820 C2819 1.400 . S
C2820 C2823 1.386 . S
H2821 C2837 0.930 . S
H2822 C2838 0.931 . S
C2823 H2811 0.929 . S
C2823 C2817 1.390 . S
C2823 C2820 1.386 . S
C2824 C2819 1.490 . S
C2824 C2826 1.395 . S
C2824 C2827 1.403 . S
H2825 C2831 0.930 . S
C2826 H2812 0.930 . S
C2826 C2824 1.395 . S
C2826 C2829 1.403 . S
C2827 C2824 1.403 . S
C2827 C2828 1.524 . S
C2827 C2831 1.400 . S
C2828 H2813 0.960 . S
C2828 H2814 0.960 . S
C2828 H2815 0.960 . S
C2828 C2827 1.524 . S
C2829 C2826 1.403 . S
C2829 C2830 1.392 . S
C2829 C2833 1.495 . S
C2830 C2829 1.392 . S
C2830 C2831 1.385 . S
C2830 C2832 1.478 . S
C2831 H2825 0.930 . S
C2831 C2827 1.400 . S
C2831 C2830 1.385 . S
C2832 C2830 1.478 . S
C2832 C2834 1.381 . S
C2832 C2838 1.383 . S
C2833 C2829 1.495 . S
C2833 H2839 0.959 . S
C2833 H2840 0.961 . S
C2833 H2841 0.960 . S
C2834 C2832 1.381 . S
C2834 C2835 1.394 . S
C2834 H2842 0.930 . S
C2835 C2834 1.394 . S
C2835 C2836 1.383 . S
C2835 H2843 0.929 . S
C2836 C2835 1.383 . S
C2836 C2837 1.377 . S
C2837 H2821 0.930 . S
C2837 C2836 1.377 . S
C2837 C2838 1.379 . S
C2838 H2822 0.931 . S
C2838 C2832 1.383 . S
C2838 C2837 1.379 . S
H2839 C2833 0.959 . S
H2840 C2833 0.961 . S
H2841 C2833 0.960 . S
H2842 C2834 0.930 . S
H2843 C2835 0.929 . S
H2844 C2852 0.929 . S
H2845 C2854 0.930 . S
H2846 C2856 0.930 . S
H2847 C2859 0.929 . S
H2848 C2862 0.930 . S
H2849 C2864 0.960 . S
H2850 C2864 0.960 . S
H2851 C2864 0.960 . S
C2852 H2844 0.929 . S
C2852 C2853 1.377 . S
C2852 C2854 1.384 . S
C2853 C2852 1.377 . S
C2853 C2859 1.390 . S
C2854 H2845 0.930 . S
C2854 C2852 1.384 . S
C2854 C2855 1.372 . S
C2855 C2854 1.372 . S
C2855 C2856 1.400 . S
C2855 C2860 1.490 . S
C2856 H2846 0.930 . S
C2856 C2855 1.400 . S
C2856 C2859 1.386 . S
H2857 C2873 0.930 . S
H2858 C2874 0.931 . S
C2859 H2847 0.929 . S
C2859 C2853 1.390 . S
C2859 C2856 1.386 . S
C2860 C2855 1.490 . S
C2860 C2862 1.395 . S
C2860 C2863 1.403 . S
H2861 C2867 0.930 . S
C2862 H2848 0.930 . S
C2862 C2860 1.395 . S
C2862 C2865 1.403 . S
C2863 C2860 1.403 . S
C2863 C2864 1.524 . S
C2863 C2867 1.400 . S
C2864 H2849 0.960 . S
C2864 H2850 0.960 . S
C2864 H2851 0.960 . S
C2864 C2863 1.524 . S
C2865 C2862 1.403 . S
C2865 C2866 1.392 . S
C2865 C2869 1.495 . S
C2866 C2865 1.392 . S
C2866 C2867 1.385 . S
C2866 C2868 1.478 . S
C2867 H2861 0.930 . S
C2867 C2863 1.400 . S
C2867 C2866 1.385 . S
C2868 C2866 1.478 . S
C2868 C2870 1.381 . S
C2868 C2874 1.383 . S
C2869 C2865 1.495 . S
C2869 H2875 0.959 . S
C2869 H2876 0.961 . S
C2869 H2877 0.960 . S
C2870 C2868 1.381 . S
C2870 C2871 1.394 . S
C2870 H2878 0.930 . S
C2871 C2870 1.394 . S
C2871 C2872 1.383 . S
C2871 H2879 0.929 . S
C2872 C2871 1.383 . S
C2872 C2873 1.377 . S
C2873 H2857 0.930 . S
C2873 C2872 1.377 . S
C2873 C2874 1.379 . S
C2874 H2858 0.931 . S
C2874 C2868 1.383 . S
C2874 C2873 1.379 . S
H2875 C2869 0.959 . S
H2876 C2869 0.961 . S
H2877 C2869 0.960 . S
H2878 C2870 0.930 . S
H2879 C2871 0.929 . S
C1593 C49 1.935 . S
C1612 C284 1.953 . S
C1629 C108 1.967 . S
C1648 C401 1.962 . S
C1665 C489 1.963 . S
C1684 C233 1.972 . S
C1701 C577 1.901 . S
C1720 C821 1.900 . S
C1737 C636 1.936 . S
C1756 C929 1.934 . S
C1773 C1017 1.890 . S
C1792 C761 1.901 . S
C1809 C1340 1.907 . S
C1828 C1105 1.875 . S
C1845 C1465 1.952 . S
C1864 C1173 1.949 . S
C1881 C1553 1.890 . S
C1900 C1281 1.884 . S
C1917 C29 2.378 . S
C1936 C849 2.356 . S
C1953 C145 2.388 . S
C1972 C900 2.403 . S
C1989 C1025 2.457 . S
C2008 C205 2.466 . S
C2025 C313 2.383 . S
C2044 C1085 2.371 . S
C2061 C372 2.385 . S
C2080 C1193 2.397 . S
C2097 C497 2.454 . S
C2116 C1252 2.435 . S
C2133 C557 2.425 . S
C2152 C1369 2.412 . S
C2169 C673 2.446 . S
C2188 C1437 2.420 . S
C2205 C1545 2.345 . S
C2224 C733 2.316 . S
C2241 C57 0.521 . S
C2260 C381 0.385 . S
C2277 C117 0.517 . S
C2296 C460 0.422 . S
C2313 C196 0.578 . S
C2332 C321 0.401 . S
C2349 C293 0.584 . S
C2368 C137 0.428 . S
C2385 C225 0.419 . S
C2404 C409 0.560 . S
C2421 C469 0.480 . S
C2440 C20 0.338 . S
C2457 C585 0.405 . S
C2476 C909 0.336 . S
C2493 C988 0.352 . S
C2512 C645 0.578 . S
C2529 C841 0.359 . S
C2548 C724 0.508 . S
C2565 C665 0.400 . S
C2584 C812 0.555 . S
C2601 C937 0.546 . S
C2620 C753 0.413 1_565 S
C2637 C997 0.538 . S
C2656 C548 0.405 1_455 S
C2673 C1428 0.395 . S
C2692 C1113 0.528 . S
C2709 C1525 0.355 . S
C2728 C1164 0.544 . S
C2745 C1261 0.592 . S
C2764 C1377 0.486 1_655 S
C2781 C1201 0.292 . S
C2800 C1349 0.431 . S
C2817 C1289 0.384 . S
C2836 C1457 0.601 . S
C2853 C1076 0.283 . S
C2872 C1516 0.432 . S
