# Generated by pormake.
# Topology smg, (6)-cn, num edge types: 1
# Building blocks:
#     Node 0, Type 0, BuildingBlock: IZENUY_clean_sbu_0, # of connection points: 6
#     Node 1, Type 0, BuildingBlock: IZENUY_clean_sbu_0, # of connection points: 6
#     Node 2, Type 0, BuildingBlock: IZENUY_clean_sbu_0, # of connection points: 6
#     Node 3, Type 0, BuildingBlock: IZENUY_clean_sbu_0, # of connection points: 6
#     Node 4, Type 0, BuildingBlock: IZENUY_clean_sbu_0, # of connection points: 6
#     Node 5, Type 0, BuildingBlock: IZENUY_clean_sbu_0, # of connection points: 6
#     Node 6, Type 0, BuildingBlock: IZENUY_clean_sbu_0, # of connection points: 6
#     Node 7, Type 0, BuildingBlock: IZENUY_clean_sbu_0, # of connection points: 6
#     Node 8, Type 0, BuildingBlock: IZENUY_clean_sbu_0, # of connection points: 6
#     Node 9, Type 0, BuildingBlock: IZENUY_clean_sbu_0, # of connection points: 6
#     Node 10, Type 0, BuildingBlock: IZENUY_clean_sbu_0, # of connection points: 6
#     Node 11, Type 0, BuildingBlock: IZENUY_clean_sbu_0, # of connection points: 6
#     Node 12, Type 0, BuildingBlock: IZENUY_clean_sbu_0, # of connection points: 6
#     Node 13, Type 0, BuildingBlock: IZENUY_clean_sbu_0, # of connection points: 6
#     Node 14, Type 0, BuildingBlock: IZENUY_clean_sbu_0, # of connection points: 6
#     Node 15, Type 0, BuildingBlock: IZENUY_clean_sbu_0, # of connection points: 6
#     Node 16, Type 0, BuildingBlock: IZENUY_clean_sbu_0, # of connection points: 6
#     Node 17, Type 0, BuildingBlock: IZENUY_clean_sbu_0, # of connection points: 6
#     Edge 18, Type (0, 0), BuildingBlock: ZUJKAS_clean_linker_0, # of connection points: 2
#     Edge 19, Type (0, 0), BuildingBlock: ZUJKAS_clean_linker_0, # of connection points: 2
#     Edge 20, Type (0, 0), BuildingBlock: ZUJKAS_clean_linker_0, # of connection points: 2
#     Edge 21, Type (0, 0), BuildingBlock: ZUJKAS_clean_linker_0, # of connection points: 2
#     Edge 22, Type (0, 0), BuildingBlock: ZUJKAS_clean_linker_0, # of connection points: 2
#     Edge 23, Type (0, 0), BuildingBlock: ZUJKAS_clean_linker_0, # of connection points: 2
#     Edge 24, Type (0, 0), BuildingBlock: ZUJKAS_clean_linker_0, # of connection points: 2
#     Edge 25, Type (0, 0), BuildingBlock: ZUJKAS_clean_linker_0, # of connection points: 2
#     Edge 26, Type (0, 0), BuildingBlock: ZUJKAS_clean_linker_0, # of connection points: 2
#     Edge 27, Type (0, 0), BuildingBlock: ZUJKAS_clean_linker_0, # of connection points: 2
#     Edge 28, Type (0, 0), BuildingBlock: ZUJKAS_clean_linker_0, # of connection points: 2
#     Edge 29, Type (0, 0), BuildingBlock: ZUJKAS_clean_linker_0, # of connection points: 2
#     Edge 30, Type (0, 0), BuildingBlock: ZUJKAS_clean_linker_0, # of connection points: 2
#     Edge 31, Type (0, 0), BuildingBlock: ZUJKAS_clean_linker_0, # of connection points: 2
#     Edge 32, Type (0, 0), BuildingBlock: ZUJKAS_clean_linker_0, # of connection points: 2
#     Edge 33, Type (0, 0), BuildingBlock: ZUJKAS_clean_linker_0, # of connection points: 2
#     Edge 34, Type (0, 0), BuildingBlock: ZUJKAS_clean_linker_0, # of connection points: 2
#     Edge 35, Type (0, 0), BuildingBlock: ZUJKAS_clean_linker_0, # of connection points: 2
#     Edge 36, Type (0, 0), BuildingBlock: ZUJKAS_clean_linker_0, # of connection points: 2
#     Edge 37, Type (0, 0), BuildingBlock: ZUJKAS_clean_linker_0, # of connection points: 2
#     Edge 38, Type (0, 0), BuildingBlock: ZUJKAS_clean_linker_0, # of connection points: 2
#     Edge 39, Type (0, 0), BuildingBlock: ZUJKAS_clean_linker_0, # of connection points: 2
#     Edge 40, Type (0, 0), BuildingBlock: ZUJKAS_clean_linker_0, # of connection points: 2
#     Edge 41, Type (0, 0), BuildingBlock: ZUJKAS_clean_linker_0, # of connection points: 2
#     Edge 42, Type (0, 0), BuildingBlock: ZUJKAS_clean_linker_0, # of connection points: 2
#     Edge 43, Type (0, 0), BuildingBlock: ZUJKAS_clean_linker_0, # of connection points: 2
#     Edge 44, Type (0, 0), BuildingBlock: ZUJKAS_clean_linker_0, # of connection points: 2
#     Edge 45, Type (0, 0), BuildingBlock: ZUJKAS_clean_linker_0, # of connection points: 2
#     Edge 46, Type (0, 0), BuildingBlock: ZUJKAS_clean_linker_0, # of connection points: 2
#     Edge 47, Type (0, 0), BuildingBlock: ZUJKAS_clean_linker_0, # of connection points: 2
#     Edge 48, Type (0, 0), BuildingBlock: ZUJKAS_clean_linker_0, # of connection points: 2
#     Edge 49, Type (0, 0), BuildingBlock: ZUJKAS_clean_linker_0, # of connection points: 2
#     Edge 50, Type (0, 0), BuildingBlock: ZUJKAS_clean_linker_0, # of connection points: 2
#     Edge 51, Type (0, 0), BuildingBlock: ZUJKAS_clean_linker_0, # of connection points: 2
#     Edge 52, Type (0, 0), BuildingBlock: ZUJKAS_clean_linker_0, # of connection points: 2
#     Edge 53, Type (0, 0), BuildingBlock: ZUJKAS_clean_linker_0, # of connection points: 2
#     Edge 54, Type (0, 0), BuildingBlock: ZUJKAS_clean_linker_0, # of connection points: 2
#     Edge 55, Type (0, 0), BuildingBlock: ZUJKAS_clean_linker_0, # of connection points: 2
#     Edge 56, Type (0, 0), BuildingBlock: ZUJKAS_clean_linker_0, # of connection points: 2
#     Edge 57, Type (0, 0), BuildingBlock: ZUJKAS_clean_linker_0, # of connection points: 2
#     Edge 58, Type (0, 0), BuildingBlock: ZUJKAS_clean_linker_0, # of connection points: 2
#     Edge 59, Type (0, 0), BuildingBlock: ZUJKAS_clean_linker_0, # of connection points: 2
#     Edge 60, Type (0, 0), BuildingBlock: ZUJKAS_clean_linker_0, # of connection points: 2
#     Edge 61, Type (0, 0), BuildingBlock: ZUJKAS_clean_linker_0, # of connection points: 2
#     Edge 62, Type (0, 0), BuildingBlock: ZUJKAS_clean_linker_0, # of connection points: 2
#     Edge 63, Type (0, 0), BuildingBlock: ZUJKAS_clean_linker_0, # of connection points: 2
#     Edge 64, Type (0, 0), BuildingBlock: ZUJKAS_clean_linker_0, # of connection points: 2
#     Edge 65, Type (0, 0), BuildingBlock: ZUJKAS_clean_linker_0, # of connection points: 2
#     Edge 66, Type (0, 0), BuildingBlock: ZUJKAS_clean_linker_0, # of connection points: 2
#     Edge 67, Type (0, 0), BuildingBlock: ZUJKAS_clean_linker_0, # of connection points: 2
#     Edge 68, Type (0, 0), BuildingBlock: ZUJKAS_clean_linker_0, # of connection points: 2
#     Edge 69, Type (0, 0), BuildingBlock: ZUJKAS_clean_linker_0, # of connection points: 2
#     Edge 70, Type (0, 0), BuildingBlock: ZUJKAS_clean_linker_0, # of connection points: 2
#     Edge 71, Type (0, 0), BuildingBlock: ZUJKAS_clean_linker_0, # of connection points: 2
# Relax obj value: 0.247
# Max RMSD: 0.243
# Mean RMSD: 0.241
data_MOF--net-smg--node1-IZENUY_clean_sbu_0--edge1-ZUJKAS_clean_linker_0
_symmetry_space_group_name_H-M    P1
_symmetry_Int_Tables_number       1
_symmetry_cell_setting            triclinic
loop_
_symmetry_equiv_pos_as_xyz
'x, y, z'
_cell_length_a     58.919514
_cell_length_b     58.975543
_cell_length_c     53.761888
_cell_angle_alpha  90.023425
_cell_angle_beta   89.989947
_cell_angle_gamma 119.93156
loop_
_atom_site_label
_atom_site_type_symbol
_atom_site_fract_x
_atom_site_fract_y
_atom_site_fract_z
_atom_type_partial_charge
Fe0 Fe 0.03134 0.58438 0.25725 0.0
Fe1 Fe 0.00761 0.61846 0.24352 0.0
O2 O 0.00627 0.58781 0.24278 0.0
Fe3 Fe 0.98 0.56098 0.22759 0.0
O4 O 0.97896 0.53636 0.24904 0.0
O5 O 0.00813 0.5589 0.2779 0.0
O6 O 0.03682 0.60787 0.28219 0.0
C7 C 0.02173 0.61549 0.29088 0.0
C8 C 0.02137 0.5548 0.21315 0.0
O9 O 0.00547 0.6174 0.27705 0.0
C10 C 0.99289 0.60395 0.19566 0.0
O11 O 0.05614 0.60954 0.23714 0.0
O12 O 0.04336 0.63803 0.24444 0.0
O13 O 0.00215 0.55725 0.20645 0.0
O14 O 0.03007 0.56025 0.23514 0.0
C15 C 0.95395 0.58311 0.24992 0.0
O16 O 0.00971 0.62095 0.21001 0.0
O17 O 0.97678 0.58114 0.20342 0.0
C18 C 0.06 0.63256 0.23594 0.0
O19 O 0.97221 0.605 0.24267 0.0
O20 O 0.95599 0.56286 0.24784 0.0
C21 C 0.98788 0.53827 0.27084 0.0
Fe22 Fe 0.43911 0.45939 0.26263 0.0
Fe23 Fe 0.46782 0.43402 0.23739 0.0
O24 O 0.43881 0.43184 0.2493 0.0
Fe25 Fe 0.40916 0.40183 0.24782 0.0
O26 O 0.39485 0.41595 0.22801 0.0
O27 O 0.40546 0.44993 0.25217 0.0
O28 O 0.45056 0.47748 0.234 0.0
C29 C 0.47094 0.48184 0.22245 0.0
C30 C 0.4063 0.42176 0.2947 0.0
O31 O 0.48184 0.46827 0.22668 0.0
C32 C 0.44255 0.38536 0.26273 0.0
O33 O 0.47276 0.47371 0.27521 0.0
O34 O 0.48381 0.44395 0.26715 0.0
O35 O 0.39503 0.40747 0.27601 0.0
O36 O 0.42761 0.44287 0.29217 0.0
C37 C 0.43311 0.40323 0.20207 0.0
O38 O 0.45872 0.40004 0.24626 0.0
O39 O 0.4223 0.38661 0.26756 0.0
C40 C 0.48702 0.46356 0.27932 0.0
O41 O 0.45374 0.42435 0.20672 0.0
O42 O 0.41747 0.39024 0.21939 0.0
C43 C 0.39226 0.4351 0.23426 0.0
Fe44 Fe 0.588 0.04364 0.23589 0.0
Fe45 Fe 0.56297 0.98821 0.25786 0.0
O46 O 0.59068 0.01672 0.24653 0.0
Fe47 Fe 0.62136 0.01836 0.24596 0.0
O48 O 0.6347 0.04549 0.26723 0.0
O49 O 0.62123 0.06869 0.24645 0.0
O50 O 0.57634 0.04731 0.26576 0.0
C51 C 0.55636 0.02973 0.27662 0.0
C52 C 0.62107 0.04289 0.20116 0.0
O53 O 0.54697 0.0058 0.27086 0.0
C54 C 0.59042 0.96877 0.22954 0.0
O55 O 0.5544 0.02334 0.22361 0.0
O56 O 0.54624 0.98291 0.22859 0.0
O57 O 0.63367 0.03986 0.21865 0.0
O58 O 0.59942 0.04153 0.20531 0.0
C59 C 0.59955 0.99264 0.29121 0.0
O60 O 0.5741 0.96556 0.24661 0.0
O61 O 0.60927 0.9912 0.22474 0.0
C62 C 0.54148 0.99917 0.21811 0.0
O63 O 0.57803 0.99188 0.28799 0.0
O64 O 0.615 0.99719 0.27315 0.0
C65 C 0.63542 0.06685 0.26324 0.0
Fe66 Fe 0.04279 0.46619 0.75752 0.0
Fe67 Fe 0.99212 0.43493 0.72744 0.0
O68 O 0.01954 0.43689 0.74285 0.0
Fe69 Fe 0.02398 0.40937 0.74337 0.0
O70 O 0.05969 0.42815 0.74471 0.0
O71 O 0.06898 0.46846 0.7376 0.0
O72 O 0.03937 0.48785 0.73539 0.0
C73 C 0.0309 0.48385 0.71328 0.0
C74 C 0.03653 0.42637 0.79086 0.0
O75 O 0.01293 0.46154 0.70655 0.0
C76 C 0.96956 0.38674 0.74937 0.0
O77 O 0.0181 0.46581 0.77799 0.0
O78 O 0.98852 0.45714 0.74896 0.0
O79 O 0.02154 0.40768 0.77684 0.0
O80 O 0.05001 0.44946 0.78246 0.0
C81 C 0.00946 0.40873 0.69533 0.0
O82 O 0.96943 0.40801 0.74737 0.0
O83 O 0.98912 0.38518 0.74213 0.0
C84 C 0.99708 0.46454 0.77084 0.0
O85 O 0.99134 0.41261 0.70315 0.0
O86 O 0.02677 0.40994 0.70992 0.0
C87 C 0.07492 0.45071 0.73636 0.0
Fe88 Fe 0.61615 0.62431 0.74441 0.0
Fe89 Fe 0.58665 0.56675 0.72978 0.0
O90 O 0.5866 0.59424 0.74284 0.0
Fe91 Fe 0.55727 0.59183 0.75408 0.0
O92 O 0.57067 0.60187 0.78494 0.0
O93 O 0.60755 0.63571 0.77272 0.0
O94 O 0.63044 0.61033 0.76435 0.0
C95 C 0.63348 0.59146 0.75808 0.0
C96 C 0.5828 0.64068 0.72899 0.0
O97 O 0.62036 0.57659 0.74018 0.0
C98 C 0.53905 0.56207 0.71218 0.0
O99 O 0.63036 0.61869 0.7163 0.0
O100 O 0.59782 0.58321 0.70016 0.0
O101 O 0.5662 0.62568 0.74501 0.0
O102 O 0.60316 0.63954 0.72453 0.0
C103 C 0.55483 0.54453 0.76987 0.0
O104 O 0.55301 0.55184 0.71727 0.0
O105 O 0.54192 0.58174 0.72399 0.0
C106 C 0.61869 0.60474 0.69755 0.0
O107 O 0.57541 0.54903 0.75859 0.0
O108 O 0.54352 0.55762 0.76502 0.0
C109 C 0.59129 0.62297 0.78972 0.0
Fe110 Fe 0.45458 0.03255 0.72626 0.0
Fe111 Fe 0.39767 0.00158 0.74372 0.0
O112 O 0.4294 0.00549 0.74222 0.0
Fe113 Fe 0.43536 0.98207 0.75668 0.0
O114 O 0.45972 0.98474 0.73403 0.0
O115 O 0.46012 0.01147 0.70535 0.0
O116 O 0.43243 0.03291 0.70229 0.0
C117 C 0.40998 0.01497 0.69521 0.0
C118 C 0.48003 0.02766 0.76916 0.0
O119 O 0.39423 0.99804 0.71033 0.0
C120 C 0.40361 0.98988 0.7911 0.0
O121 O 0.45092 0.05574 0.74616 0.0
O122 O 0.40842 0.03634 0.74175 0.0
O123 O 0.46043 0.0067 0.77658 0.0
O124 O 0.48073 0.03632 0.74741 0.0
C125 C 0.38698 0.95025 0.73708 0.0
O126 O 0.39988 0.00495 0.77718 0.0
O127 O 0.41219 0.97562 0.78227 0.0
C128 C 0.42966 0.05588 0.74852 0.0
O129 O 0.38047 0.96596 0.74595 0.0
O130 O 0.41063 0.9559 0.73727 0.0
C131 C 0.46455 0.99352 0.71205 0.0
Fe132 Fe 0.71346 0.92678 0.59088 0.0
Fe133 Fe 0.68797 0.95931 0.57782 0.0
O134 O 0.68688 0.92895 0.57832 0.0
Fe135 Fe 0.65919 0.90091 0.5663 0.0
O136 O 0.65265 0.88489 0.59604 0.0
O137 O 0.69284 0.89305 0.60285 0.0
O138 O 0.70936 0.938 0.62089 0.0
C139 C 0.71002 0.95942 0.62437 0.0
C140 C 0.70219 0.89524 0.55039 0.0
O141 O 0.70768 0.97183 0.60627 0.0
C142 C 0.66477 0.9368 0.53169 0.0
O143 O 0.73877 0.96026 0.58116 0.0
O144 O 0.71642 0.97306 0.55815 0.0
O145 O 0.67795 0.88524 0.55532 0.0
O146 O 0.71903 0.91542 0.5616 0.0
C147 C 0.63748 0.92794 0.59179 0.0
O148 O 0.66844 0.95249 0.54933 0.0
O149 O 0.66417 0.91549 0.53577 0.0
C150 C 0.73783 0.97467 0.56408 0.0
O151 O 0.65952 0.94694 0.59745 0.0
O152 O 0.63548 0.91159 0.57528 0.0
C153 C 0.66852 0.88061 0.60795 0.0
Fe154 Fe 0.12922 0.76753 0.56208 0.0
Fe155 Fe 0.10521 0.79681 0.58864 0.0
O156 O 0.10219 0.76771 0.57615 0.0
Fe157 Fe 0.07185 0.73855 0.57765 0.0
O158 O 0.08573 0.7234 0.59655 0.0
O159 O 0.11923 0.73359 0.57187 0.0
O160 O 0.14781 0.77829 0.59045 0.0
C161 C 0.15317 0.799 0.6019 0.0
C162 C 0.0904 0.73615 0.5302 0.0
O163 O 0.13976 0.81023 0.59841 0.0
C164 C 0.05571 0.7726 0.56456 0.0
O165 O 0.14395 0.80137 0.55007 0.0
O166 O 0.11444 0.81267 0.55879 0.0
O167 O 0.07655 0.72463 0.549 0.0
O168 O 0.11216 0.75677 0.53269 0.0
C169 C 0.07476 0.76209 0.62395 0.0
O170 O 0.07111 0.78843 0.58089 0.0
O171 O 0.05675 0.75248 0.55877 0.0
C172 C 0.13362 0.81548 0.5461 0.0
O173 O 0.09606 0.78257 0.61933 0.0
O174 O 0.06127 0.74689 0.60656 0.0
C175 C 0.1043 0.72011 0.58963 0.0
Fe176 Fe 0.22308 0.31265 0.59351 0.0
Fe177 Fe 0.28104 0.33796 0.58036 0.0
O178 O 0.25172 0.33904 0.58065 0.0
Fe179 Fe 0.25127 0.3665 0.5681 0.0
O180 O 0.24145 0.37345 0.59754 0.0
O181 O 0.20978 0.33332 0.60502 0.0
O182 O 0.23853 0.31718 0.62357 0.0
C183 C 0.25921 0.31631 0.62705 0.0
C184 C 0.20253 0.3232 0.55274 0.0
O185 O 0.27388 0.31848 0.60893 0.0
C186 C 0.28185 0.36054 0.5339 0.0
O187 O 0.23135 0.28729 0.58409 0.0
O188 O 0.26641 0.30936 0.56091 0.0
O189 O 0.21703 0.34755 0.55692 0.0
O190 O 0.20596 0.30662 0.56435 0.0
C191 C 0.29962 0.38842 0.59409 0.0
O192 O 0.29389 0.35724 0.55176 0.0
O193 O 0.26112 0.36119 0.53777 0.0
C194 C 0.24663 0.28806 0.56697 0.0
O195 O 0.29694 0.36652 0.59978 0.0
O196 O 0.28546 0.39029 0.57727 0.0
C197 C 0.22122 0.35774 0.60939 0.0
Fe198 Fe 0.7057 0.79636 0.08875 0.0
Fe199 Fe 0.67846 0.73818 0.07638 0.0
O200 O 0.67778 0.76769 0.0779 0.0
Fe201 Fe 0.64924 0.76827 0.06882 0.0
O202 O 0.64597 0.77929 0.0992 0.0
O203 O 0.68695 0.81049 0.10303 0.0
O204 O 0.70396 0.78138 0.11854 0.0
C205 C 0.70484 0.76064 0.12113 0.0
C206 C 0.69129 0.81647 0.05028 0.0
O207 O 0.70103 0.74579 0.10271 0.0
C208 C 0.65057 0.73638 0.03309 0.0
O209 O 0.72956 0.78736 0.07612 0.0
O210 O 0.70471 0.75206 0.05416 0.0
O211 O 0.66736 0.80208 0.05635 0.0
O212 O 0.70887 0.813 0.05979 0.0
C213 C 0.62994 0.72065 0.09568 0.0
O214 O 0.65604 0.7248 0.04982 0.0
O215 O 0.65053 0.75725 0.0378 0.0
C216 C 0.72674 0.77171 0.05854 0.0
O217 O 0.65222 0.72302 0.09853 0.0
O218 O 0.62627 0.73452 0.07984 0.0
C219 C 0.66313 0.7998 0.10968 0.0
Fe220 Fe 0.25303 0.89029 0.06536 0.0
Fe221 Fe 0.22561 0.91855 0.08741 0.0
O222 O 0.25429 0.91893 0.07702 0.0
Fe223 Fe 0.28459 0.94821 0.07836 0.0
O224 O 0.29731 0.93378 0.09971 0.0
O225 O 0.286 0.89877 0.07694 0.0
O226 O 0.24019 0.8734 0.09445 0.0
C227 C 0.21951 0.87012 0.10466 0.0
C228 C 0.28725 0.92637 0.03285 0.0
O229 O 0.2098 0.88446 0.09901 0.0
C230 C 0.25366 0.96667 0.06116 0.0
O231 O 0.21999 0.87689 0.05178 0.0
O232 O 0.2104 0.90816 0.05732 0.0
O233 O 0.29871 0.94079 0.05136 0.0
O234 O 0.26573 0.90552 0.03551 0.0
C235 C 0.26018 0.94949 0.12279 0.0
O236 O 0.23655 0.95266 0.07731 0.0
O237 O 0.27314 0.96384 0.05711 0.0
C238 C 0.20683 0.88786 0.04614 0.0
O239 O 0.23896 0.92883 0.11837 0.0
O240 O 0.27634 0.96135 0.1055 0.0
C241 C 0.29913 0.91393 0.09466 0.0
Fe242 Fe 0.0766 0.35208 0.07747 0.0
Fe243 Fe 0.13525 0.37747 0.06787 0.0
O244 O 0.10571 0.35067 0.07876 0.0
Fe245 Fe 0.10493 0.32242 0.09085 0.0
O246 O 0.09309 0.32649 0.12062 0.0
O247 O 0.06153 0.3312 0.10461 0.0
O248 O 0.08996 0.37945 0.09845 0.0
C249 C 0.11021 0.40098 0.09393 0.0
C250 C 0.05859 0.30238 0.0618 0.0
O251 O 0.12664 0.40257 0.07764 0.0
C252 C 0.13767 0.33284 0.05126 0.0
O253 O 0.08599 0.37335 0.05016 0.0
O254 O 0.12178 0.37463 0.03704 0.0
O255 O 0.07131 0.2995 0.07945 0.0
O256 O 0.06206 0.32466 0.05641 0.0
C257 C 0.15295 0.36451 0.10929 0.0
O258 O 0.14884 0.35709 0.05645 0.0
O259 O 0.11673 0.31669 0.06193 0.0
C260 C 0.10159 0.37614 0.03278 0.0
O261 O 0.15059 0.38185 0.09783 0.0
O262 O 0.13828 0.34041 0.10421 0.0
C263 C 0.07227 0.32728 0.12317 0.0
Fe264 Fe 0.37981 0.25749 0.92419 0.0
Fe265 Fe 0.35194 0.28821 0.91304 0.0
O266 O 0.35185 0.2583 0.91347 0.0
Fe267 Fe 0.32377 0.2295 0.90324 0.0
O268 O 0.31991 0.21426 0.93313 0.0
O269 O 0.36095 0.22418 0.93769 0.0
O270 O 0.37772 0.2698 0.95438 0.0
C271 C 0.37829 0.29119 0.95768 0.0
C272 C 0.36637 0.22432 0.88465 0.0
O273 O 0.37409 0.30248 0.93974 0.0
C274 C 0.32545 0.26386 0.86871 0.0
O275 O 0.40354 0.29072 0.91234 0.0
O276 O 0.3785 0.30168 0.89117 0.0
O277 O 0.34236 0.21435 0.89057 0.0
O278 O 0.38357 0.24505 0.89483 0.0
C279 C 0.3032 0.25623 0.93098 0.0
O280 O 0.32983 0.27982 0.88626 0.0
O281 O 0.32594 0.24307 0.87259 0.0
C282 C 0.40057 0.30396 0.89524 0.0
O283 O 0.32534 0.27593 0.93489 0.0
O284 O 0.30023 0.23961 0.91434 0.0
C285 C 0.33696 0.21087 0.94387 0.0
Fe286 Fe 0.76667 0.13529 0.9233 0.0
Fe287 Fe 0.79413 0.10712 0.90128 0.0
O288 O 0.76555 0.1065 0.91227 0.0
Fe289 Fe 0.73552 0.07678 0.91215 0.0
O290 O 0.72165 0.09 0.8908 0.0
O291 O 0.73326 0.12601 0.9121 0.0
O292 O 0.77862 0.15149 0.89384 0.0
C293 C 0.7991 0.15485 0.88319 0.0
C294 C 0.73355 0.10022 0.95712 0.0
O295 O 0.80911 0.14075 0.8887 0.0
C296 C 0.76778 0.05982 0.92894 0.0
O297 O 0.80016 0.14952 0.93621 0.0
O298 O 0.81027 0.11859 0.93084 0.0
O299 O 0.72187 0.08472 0.9393 0.0
O300 O 0.75492 0.12096 0.95356 0.0
C301 C 0.75895 0.07466 0.86719 0.0
O302 O 0.78407 0.07343 0.91208 0.0
O303 O 0.74819 0.0623 0.93351 0.0
C304 C 0.81401 0.13918 0.94154 0.0
O305 O 0.77984 0.09585 0.87091 0.0
O306 O 0.74328 0.06303 0.88493 0.0
C307 C 0.71972 0.10995 0.89505 0.0
Fe308 Fe 0.94927 0.67338 0.90883 0.0
Fe309 Fe 0.91962 0.7017 0.89537 0.0
O310 O 0.91977 0.67404 0.9077 0.0
Fe311 Fe 0.89069 0.64706 0.91908 0.0
O312 O 0.90467 0.65105 0.94981 0.0
O313 O 0.9406 0.6527 0.93659 0.0
O314 O 0.96359 0.7012 0.92942 0.0
C315 C 0.96632 0.72315 0.92384 0.0
C316 C 0.916 0.62404 0.89303 0.0
O317 O 0.95317 0.72538 0.90623 0.0
C318 C 0.87233 0.65863 0.87731 0.0
O319 O 0.96365 0.69394 0.88129 0.0
O320 O 0.93134 0.69762 0.86555 0.0
O321 O 0.89993 0.62234 0.90975 0.0
O322 O 0.93611 0.64563 0.88829 0.0
C323 C 0.88738 0.69122 0.93532 0.0
O324 O 0.88611 0.68281 0.88252 0.0
O325 O 0.87515 0.64177 0.88912 0.0
C326 C 0.95266 0.69779 0.86288 0.0
O327 O 0.90804 0.70748 0.92436 0.0
O328 O 0.8764 0.66698 0.93016 0.0
C329 C 0.92546 0.65069 0.95415 0.0
Fe330 Fe 0.33279 0.06369 0.41098 0.0
Fe331 Fe 0.36372 0.12056 0.4285 0.0
O332 O 0.33678 0.09539 0.4124 0.0
Fe333 Fe 0.31357 0.1016 0.39779 0.0
O334 O 0.30645 0.07803 0.37247 0.0
O335 O 0.33551 0.06541 0.37747 0.0
O336 O 0.36776 0.07463 0.41223 0.0
C337 C 0.38732 0.09618 0.40601 0.0
C338 C 0.28162 0.05376 0.4181 0.0
O339 O 0.387 0.1173 0.40852 0.0
C340 C 0.32436 0.12986 0.44264 0.0
O341 O 0.32984 0.06042 0.44441 0.0
O342 O 0.36467 0.09857 0.45224 0.0
O343 O 0.28737 0.07739 0.41732 0.0
O344 O 0.29703 0.04666 0.40955 0.0
C345 C 0.35927 0.14579 0.3854 0.0
O346 O 0.34222 0.12535 0.44949 0.0
O347 O 0.3167 0.12629 0.42028 0.0
C348 C 0.34713 0.076 0.45931 0.0
O349 O 0.36719 0.14674 0.40753 0.0
O350 O 0.33848 0.12615 0.37776 0.0
C351 C 0.32017 0.06884 0.36367 0.0
Fe352 Fe 0.9002 0.26089 0.42887 0.0
Fe353 Fe 0.95613 0.28982 0.40849 0.0
O354 O 0.92561 0.26078 0.41153 0.0
Fe355 Fe 0.92102 0.23186 0.3972 0.0
O356 O 0.89845 0.20975 0.42073 0.0
O357 O 0.89804 0.23564 0.44985 0.0
O358 O 0.92258 0.28491 0.45174 0.0
C359 C 0.946 0.29148 0.45749 0.0
C360 C 0.87427 0.22937 0.38687 0.0
O361 O 0.96149 0.29105 0.44158 0.0
C362 C 0.94924 0.27115 0.36149 0.0
O363 O 0.9005 0.28621 0.40905 0.0
O364 O 0.94302 0.31201 0.41088 0.0
O365 O 0.8943 0.22939 0.37846 0.0
O366 O 0.87381 0.23682 0.40892 0.0
C367 C 0.97068 0.25182 0.41495 0.0
O368 O 0.95206 0.28977 0.37517 0.0
O369 O 0.94259 0.24891 0.37077 0.0
C370 C 0.92054 0.30835 0.40577 0.0
O371 O 0.97534 0.27336 0.40566 0.0
O372 O 0.94757 0.23274 0.41552 0.0
C373 C 0.89478 0.21371 0.4431 0.0
Fe374 Fe 0.7438 0.68904 0.41147 0.0
Fe375 Fe 0.77061 0.65873 0.42886 0.0
O376 O 0.77193 0.6855 0.41274 0.0
Fe377 Fe 0.80118 0.70899 0.39807 0.0
O378 O 0.7843 0.71508 0.3724 0.0
O379 O 0.74262 0.68617 0.37797 0.0
O380 O 0.72034 0.65411 0.41294 0.0
C381 C 0.72246 0.63467 0.40651 0.0
C382 C 0.7842 0.74054 0.41806 0.0
O383 O 0.74402 0.63515 0.40902 0.0
C384 C 0.81906 0.69861 0.44305 0.0
O385 O 0.74346 0.69202 0.44499 0.0
O386 O 0.74781 0.65768 0.45263 0.0
O387 O 0.80241 0.7352 0.41726 0.0
O388 O 0.76179 0.72472 0.40971 0.0
C389 C 0.80109 0.66365 0.38612 0.0
O390 O 0.79687 0.68036 0.44976 0.0
O391 O 0.82304 0.70678 0.42085 0.0
C392 C 0.74257 0.67503 0.45986 0.0
O393 O 0.79339 0.65539 0.40799 0.0
O394 O 0.80197 0.6843 0.37834 0.0
C395 C 0.7613 0.70108 0.36389 0.0
H396 H 0.12459 0.44773 0.07077 0.0
H397 H 0.11406 0.48105 0.08522 0.0
H398 H 0.0857 0.43945 0.15451 0.0
H399 H 0.09574 0.4062 0.14012 0.0
H400 H 0.04865 0.44719 0.12652 0.0
H401 H 0.14357 0.53938 0.14038 0.0
H402 H 0.13867 0.52132 0.11194 0.0
H403 H 0.14125 0.50766 0.14085 0.0
C404 C 0.11702 0.44632 0.08941 0.0
C405 C 0.11096 0.42447 0.10437 0.0
C406 C 0.11089 0.46525 0.09759 0.0
C407 C 0.09898 0.4626 0.12089 0.0
C408 C 0.09476 0.44178 0.13644 0.0
H409 H 0.06068 0.54464 0.22339 0.0
H410 H 0.07935 0.52512 0.19643 0.0
C411 C 0.10063 0.42289 0.12826 0.0
C412 C 0.08814 0.47948 0.12838 0.0
H413 H 0.10511 0.53998 0.151 0.0
C414 C 0.06091 0.46761 0.13154 0.0
C415 C 0.10425 0.50606 0.13482 0.0
C416 C 0.1336 0.51951 0.132 0.0
C417 C 0.04943 0.48117 0.14223 0.0
C418 C 0.06561 0.50753 0.14953 0.0
C419 C 0.09275 0.51981 0.14525 0.0
C420 C 0.05521 0.52139 0.16465 0.0
C421 C 0.02029 0.46664 0.14705 0.0
C422 C 0.03555 0.52613 0.15567 0.0
C423 C 0.0245 0.53714 0.17125 0.0
C424 C 0.03308 0.54373 0.19599 0.0
C425 C 0.05336 0.53966 0.20454 0.0
C426 C 0.06425 0.52863 0.18907 0.0
H427 H 0.01145 0.4452 0.14426 0.0
H428 H 0.01604 0.47017 0.16634 0.0
H429 H 0.01061 0.47379 0.13407 0.0
H430 H 0.02855 0.52104 0.13674 0.0
H431 H 0.00915 0.54031 0.16398 0.0
H432 H 0.45096 0.51256 0.20756 0.0
H433 H 0.47228 0.55239 0.18272 0.0
H434 H 0.54048 0.54385 0.17493 0.0
H435 H 0.51915 0.50363 0.19971 0.0
H436 H 0.51801 0.59706 0.19518 0.0
H437 H 0.52758 0.55939 0.10359 0.0
H438 H 0.50585 0.53835 0.12762 0.0
H439 H 0.5403 0.54932 0.129 0.0
C440 C 0.47042 0.51894 0.20041 0.0
C441 C 0.48341 0.50492 0.20577 0.0
C442 C 0.48254 0.54173 0.18616 0.0
C443 C 0.50784 0.55096 0.17679 0.0
C444 C 0.52072 0.53679 0.1816 0.0
H445 H 0.63154 0.70093 0.14054 0.0
H446 H 0.59792 0.66059 0.15966 0.0
C447 C 0.50857 0.51389 0.19588 0.0
C448 C 0.5214 0.57642 0.1636 0.0
H449 H 0.55326 0.60573 0.10975 0.0
C450 C 0.52543 0.59891 0.17638 0.0
C451 C 0.53069 0.57877 0.13895 0.0
C452 C 0.52569 0.55515 0.12386 0.0
C453 C 0.5396 0.62382 0.1656 0.0
C454 C 0.55021 0.62631 0.14153 0.0
C455 C 0.54513 0.60375 0.12826 0.0
C456 C 0.56903 0.65218 0.13098 0.0
C457 C 0.54355 0.64734 0.18024 0.0
C458 C 0.56382 0.66099 0.10857 0.0
C459 C 0.58306 0.68432 0.09761 0.0
C460 C 0.60786 0.69872 0.10873 0.0
C461 C 0.61259 0.69021 0.13155 0.0
C462 C 0.59338 0.66721 0.14256 0.0
H463 H 0.52819 0.64184 0.1947 0.0
H464 H 0.56282 0.65627 0.18975 0.0
H465 H 0.54339 0.66232 0.16785 0.0
H466 H 0.54515 0.64951 0.0993 0.0
H467 H 0.57902 0.69032 0.0799 0.0
H468 H 0.52872 0.02617 0.1846 0.0
H469 H 0.4886 0.00894 0.15969 0.0
H470 H 0.46106 0.93228 0.19115 0.0
H471 H 0.50129 0.94894 0.21504 0.0
H472 H 0.44931 0.92795 0.14363 0.0
H473 H 0.41993 0.99448 0.18781 0.0
H474 H 0.45069 0.01147 0.17182 0.0
H475 H 0.44744 0.99184 0.19868 0.0
C476 C 0.51414 0.00563 0.18605 0.0
C477 C 0.51809 0.989 0.20195 0.0
C478 C 0.49117 0.99583 0.17193 0.0
C479 C 0.47153 0.96942 0.17398 0.0
C480 C 0.47586 0.95271 0.18928 0.0
H481 H 0.30899 0.91387 0.14358 0.0
H482 H 0.35064 0.92342 0.16236 0.0
C483 C 0.49891 0.96233 0.203 0.0
C484 C 0.446 0.95911 0.16102 0.0
H485 H 0.39301 0.9675 0.15544 0.0
C486 C 0.43695 0.93657 0.14622 0.0
C487 C 0.4297 0.97009 0.16474 0.0
C488 C 0.43727 0.99313 0.18181 0.0
C489 C 0.41199 0.92459 0.13521 0.0
C490 C 0.396 0.93597 0.13845 0.0
C491 C 0.40523 0.95871 0.15297 0.0
C492 C 0.36947 0.92481 0.12732 0.0
C493 C 0.40278 0.89944 0.12096 0.0
C494 C 0.36574 0.92115 0.10147 0.0
C495 C 0.34159 0.91479 0.09084 0.0
C496 C 0.32116 0.91269 0.10587 0.0
C497 C 0.32445 0.91508 0.13173 0.0
C498 C 0.34829 0.92077 0.14239 0.0
H499 H 0.41335 0.88916 0.12688 0.0
H500 H 0.38144 0.88599 0.12346 0.0
H501 H 0.40672 0.90397 0.10086 0.0
H502 H 0.38188 0.92479 0.08936 0.0
H503 H 0.33961 0.91369 0.07077 0.0
H504 H 0.40219 0.06072 0.4171 0.0
H505 H 0.43663 0.05559 0.3975 0.0
H506 H 0.45951 0.12499 0.35376 0.0
H507 H 0.42479 0.13037 0.37356 0.0
H508 H 0.44766 0.07819 0.32626 0.0
H509 H 0.51754 0.09679 0.40317 0.0
H510 H 0.48388 0.0752 0.41137 0.0
H511 H 0.49458 0.10869 0.40355 0.0
C512 C 0.41485 0.07522 0.40365 0.0
C513 C 0.41079 0.09593 0.39679 0.0
C514 C 0.43464 0.07233 0.39259 0.0
C515 C 0.45074 0.09002 0.37437 0.0
C516 C 0.44737 0.11126 0.36798 0.0
H517 H 0.57465 0.0774 0.29853 0.0
H518 H 0.54987 0.09291 0.32253 0.0
C519 C 0.42766 0.11438 0.37933 0.0
C520 C 0.46905 0.08443 0.36043 0.0
H521 H 0.52002 0.073 0.36811 0.0
C522 C 0.46373 0.07741 0.33528 0.0
C523 C 0.48995 0.08343 0.37229 0.0
C524 C 0.49704 0.09165 0.39904 0.0
C525 C 0.47818 0.06846 0.3219 0.0
C526 C 0.49826 0.06628 0.3341 0.0
C527 C 0.5043 0.0743 0.35896 0.0
C528 C 0.51348 0.05609 0.32111 0.0
C529 C 0.47178 0.06127 0.29485 0.0
C530 C 0.50135 0.02998 0.31303 0.0
C531 C 0.51549 0.02094 0.29938 0.0
C532 C 0.54196 0.03797 0.29352 0.0
C533 C 0.55423 0.06383 0.30253 0.0
C534 C 0.54014 0.07276 0.31628 0.0
H535 H 0.45987 0.06934 0.28692 0.0
H536 H 0.48997 0.06852 0.2837 0.0
H537 H 0.46042 0.03965 0.29306 0.0
H538 H 0.48083 0.01673 0.31693 0.0
H539 H 0.50549 0.00093 0.29274 0.0
H540 H 0.0066 0.52993 0.31472 0.0
H541 H 0.98718 0.48972 0.33956 0.0
H542 H 0.92157 0.45397 0.28918 0.0
H543 H 0.94093 0.49371 0.26407 0.0
H544 H 0.93827 0.46095 0.36364 0.0
H545 H 0.94953 0.4031 0.28785 0.0
H546 H 0.96552 0.43833 0.28707 0.0
H547 H 0.93133 0.41895 0.27955 0.0
C548 C 0.98799 0.51356 0.30899 0.0
C549 C 0.97554 0.51491 0.28718 0.0
C550 C 0.97689 0.49061 0.32322 0.0
C551 C 0.95318 0.46869 0.31592 0.0
C552 C 0.94017 0.47042 0.29482 0.0
H553 H 0.88364 0.3083 0.37447 0.0
H554 H 0.88591 0.34672 0.35397 0.0
C555 C 0.95128 0.49322 0.28052 0.0
C556 C 0.94255 0.44376 0.32989 0.0
H557 H 0.92927 0.38058 0.32468 0.0
C558 C 0.93614 0.44332 0.3551 0.0
C559 C 0.93959 0.42072 0.31865 0.0
C560 C 0.94703 0.42021 0.29186 0.0
C561 C 0.92732 0.42057 0.3695 0.0
C562 C 0.92521 0.39782 0.35845 0.0
C563 C 0.93068 0.39798 0.33304 0.0
C564 C 0.9209 0.3749 0.37343 0.0
C565 C 0.92066 0.42118 0.39649 0.0
C566 C 0.93956 0.37808 0.39132 0.0
C567 C 0.93841 0.35636 0.40278 0.0
C568 C 0.91854 0.33092 0.39665 0.0
C569 C 0.89901 0.3277 0.37969 0.0
C570 C 0.90035 0.34958 0.36794 0.0
H571 H 0.91484 0.43616 0.39988 0.0
H572 H 0.90455 0.40183 0.40267 0.0
H573 H 0.93818 0.42632 0.40805 0.0
H574 H 0.95588 0.39733 0.39548 0.0
H575 H 0.95372 0.35947 0.41582 0.0
H576 H 0.52423 0.4497 0.28762 0.0
H577 H 0.56393 0.47264 0.31256 0.0
H578 H 0.54215 0.52961 0.33406 0.0
H579 H 0.50219 0.50686 0.3089 0.0
H580 H 0.60337 0.52774 0.30498 0.0
H581 H 0.562 0.50552 0.40052 0.0
H582 H 0.54458 0.48583 0.37385 0.0
H583 H 0.54623 0.51668 0.37908 0.0
C584 C 0.52764 0.46698 0.2978 0.0
C585 C 0.50999 0.4765 0.29615 0.0
C586 C 0.5504 0.48003 0.31204 0.0
C587 C 0.55585 0.50266 0.32523 0.0
C588 C 0.53807 0.51196 0.32419 0.0
H589 H 0.67293 0.62654 0.40668 0.0
H590 H 0.63409 0.591 0.38798 0.0
C591 C 0.51531 0.49899 0.30976 0.0
C592 C 0.58091 0.51744 0.33881 0.0
H593 H 0.60663 0.53867 0.39661 0.0
C594 C 0.60424 0.52992 0.32505 0.0
C595 C 0.58183 0.51997 0.36495 0.0
C596 C 0.55738 0.50614 0.38058 0.0
C597 C 0.6284 0.54622 0.33663 0.0
C598 C 0.62924 0.54954 0.36276 0.0
C599 C 0.60599 0.53602 0.3766 0.0
C600 C 0.65312 0.56972 0.37561 0.0
C601 C 0.65251 0.56092 0.32066 0.0
C602 C 0.67685 0.5694 0.37537 0.0
C603 C 0.69952 0.59009 0.38602 0.0
C604 C 0.69864 0.61123 0.39713 0.0
C605 C 0.67452 0.61075 0.39813 0.0
C606 C 0.65213 0.59032 0.38751 0.0
H607 H 0.64762 0.55971 0.30057 0.0
H608 H 0.66365 0.58186 0.32612 0.0
H609 H 0.66546 0.55246 0.32329 0.0
H610 H 0.67792 0.55341 0.36665 0.0
H611 H 0.71775 0.58983 0.38504 0.0
H612 H 0.92937 0.61999 0.84605 0.0
H613 H 0.93641 0.58571 0.8289 0.0
H614 H 0.90789 0.54165 0.89696 0.0
H615 H 0.90023 0.57598 0.91413 0.0
H616 H 0.97213 0.57488 0.85269 0.0
H617 H 0.87476 0.48513 0.84138 0.0
H618 H 0.87851 0.51741 0.84349 0.0
H619 H 0.88159 0.50178 0.87086 0.0
C620 C 0.92388 0.60264 0.85711 0.0
C621 C 0.91435 0.60061 0.88142 0.0
C622 C 0.92796 0.5831 0.84731 0.0
C623 C 0.92277 0.56119 0.86167 0.0
C624 C 0.91172 0.55826 0.88546 0.0
H625 H 0.00767 0.47966 0.81972 0.0
H626 H 0.98797 0.49969 0.84526 0.0
C627 C 0.90733 0.57782 0.89523 0.0
C628 C 0.93209 0.54352 0.85257 0.0
H629 H 0.91197 0.48203 0.83058 0.0
C630 C 0.95902 0.55449 0.84805 0.0
C631 C 0.9149 0.51701 0.84654 0.0
C632 C 0.88578 0.50452 0.85062 0.0
C633 C 0.96918 0.54 0.83684 0.0
C634 C 0.952 0.51352 0.83051 0.0
C635 C 0.92511 0.50227 0.83564 0.0
C636 C 0.96143 0.4981 0.81658 0.0
C637 C 0.99805 0.55361 0.83076 0.0
C638 C 0.95224 0.48949 0.7924 0.0
C639 C 0.96328 0.47787 0.77783 0.0
C640 C 0.98384 0.47468 0.78715 0.0
C641 C 0.99216 0.48218 0.81183 0.0
C642 C 0.98094 0.49365 0.82645 0.0
H643 H 0.00728 0.57525 0.83188 0.0
H644 H 0.00814 0.54742 0.84426 0.0
H645 H 0.00132 0.54834 0.8118 0.0
H646 H 0.93717 0.49268 0.78442 0.0
H647 H 0.95623 0.47215 0.75899 0.0
H648 H 0.57758 0.51828 0.78979 0.0
H649 H 0.55684 0.47803 0.81411 0.0
H650 H 0.4837 0.47806 0.81227 0.0
H651 H 0.50445 0.51877 0.78805 0.0
H652 H 0.49575 0.46426 0.85921 0.0
H653 H 0.50597 0.40751 0.78175 0.0
H654 H 0.53593 0.43572 0.79147 0.0
H655 H 0.51055 0.43988 0.77749 0.0
C656 C 0.55709 0.50985 0.79463 0.0
C657 C 0.54255 0.52155 0.78666 0.0
C658 C 0.54528 0.48679 0.8085 0.0
C659 C 0.51864 0.47479 0.81453 0.0
C660 C 0.50429 0.48697 0.80763 0.0
H661 H 0.4014 0.32094 0.84854 0.0
H662 H 0.43419 0.36223 0.83023 0.0
C663 C 0.51615 0.51021 0.79381 0.0
C664 C 0.50554 0.44901 0.82716 0.0
H665 H 0.48799 0.38484 0.81922 0.0
C666 C 0.4942 0.4469 0.8506 0.0
C667 C 0.50349 0.42642 0.81576 0.0
C668 C 0.51442 0.42731 0.79014 0.0
C669 C 0.48044 0.42267 0.8628 0.0
C670 C 0.47829 0.40006 0.85134 0.0
C671 C 0.49006 0.40229 0.82811 0.0
C672 C 0.46082 0.37353 0.86145 0.0
C673 C 0.46729 0.42121 0.88732 0.0
C674 C 0.46549 0.36562 0.88465 0.0
C675 C 0.44674 0.34175 0.89515 0.0
C676 C 0.42311 0.32573 0.88257 0.0
C677 C 0.41941 0.33299 0.85868 0.0
C678 C 0.43811 0.35659 0.8482 0.0
H679 H 0.46756 0.43973 0.89179 0.0
H680 H 0.44664 0.40501 0.88708 0.0
H681 H 0.47762 0.41717 0.90242 0.0
H682 H 0.48313 0.37831 0.89499 0.0
H683 H 0.44997 0.33666 0.91365 0.0
H684 H 0.52834 0.06834 0.75671 0.0
H685 H 0.56825 0.08753 0.78171 0.0
H686 H 0.52535 0.03696 0.84291 0.0
H687 H 0.48533 0.01717 0.81785 0.0
H688 H 0.58288 0.11293 0.82787 0.0
H689 H 0.58212 0.01827 0.82908 0.0
H690 H 0.56088 0.02395 0.80911 0.0
H691 H 0.55323 0.01696 0.84156 0.0
C692 C 0.52728 0.06136 0.77554 0.0
C693 C 0.50368 0.04087 0.78511 0.0
C694 C 0.55013 0.07247 0.78985 0.0
C695 C 0.54986 0.06339 0.81402 0.0
C696 C 0.52609 0.0439 0.82411 0.0
H697 H 0.68649 0.12566 0.91415 0.0
H698 H 0.64509 0.11773 0.89529 0.0
C699 C 0.50323 0.03263 0.80976 0.0
C700 C 0.57482 0.07306 0.82781 0.0
H701 H 0.6162 0.05336 0.85068 0.0
C702 C 0.59016 0.09993 0.83303 0.0
C703 C 0.58436 0.05607 0.83425 0.0
C704 C 0.56946 0.02725 0.82806 0.0
C705 C 0.61494 0.11029 0.84428 0.0
C706 C 0.62442 0.09325 0.85062 0.0
C707 C 0.60884 0.06636 0.84583 0.0
C708 C 0.6511 0.10269 0.86066 0.0
C709 C 0.6312 0.13938 0.84851 0.0
C710 C 0.66841 0.09748 0.84725 0.0
C711 C 0.6917 0.10171 0.85801 0.0
C712 C 0.6983 0.11142 0.88237 0.0
C713 C 0.68195 0.11845 0.89524 0.0
C714 C 0.65833 0.1139 0.88449 0.0
H715 H 0.62316 0.15031 0.83849 0.0
H716 H 0.63157 0.14353 0.86868 0.0
H717 H 0.6517 0.14678 0.84236 0.0
H718 H 0.66327 0.08892 0.82883 0.0
H719 H 0.70402 0.09622 0.84767 0.0
H720 H 0.58824 0.90696 0.57113 0.0
H721 H 0.55272 0.91447 0.58515 0.0
H722 H 0.59895 0.95687 0.64882 0.0
H723 H 0.63428 0.94978 0.63497 0.0
H724 H 0.52373 0.90395 0.63089 0.0
H725 H 0.58448 0.01012 0.6128 0.0
H726 H 0.59249 0.98647 0.60048 0.0
H727 H 0.60102 0.998 0.63198 0.0
C728 C 0.59056 0.91748 0.58833 0.0
C729 C 0.61415 0.92809 0.60179 0.0
C730 C 0.57035 0.92186 0.59623 0.0
C731 C 0.57356 0.93685 0.61764 0.0
C732 C 0.59638 0.94587 0.63189 0.0
H733 H 0.48031 0.95821 0.72226 0.0
H734 H 0.50286 0.943 0.69506 0.0
C735 C 0.61649 0.94167 0.62401 0.0
C736 C 0.55372 0.94401 0.62511 0.0
H737 H 0.5481 0.99709 0.64068 0.0
C738 C 0.52883 0.92428 0.63263 0.0
C739 C 0.56015 0.97051 0.62678 0.0
C740 C 0.58589 0.99248 0.61732 0.0
C741 C 0.51089 0.93048 0.64348 0.0
C742 C 0.51832 0.95708 0.64732 0.0
C743 C 0.54248 0.97671 0.63809 0.0
C744 C 0.50268 0.96505 0.66295 0.0
C745 C 0.48434 0.90846 0.65112 0.0
C746 C 0.49563 0.98316 0.65425 0.0
C747 C 0.48297 0.99232 0.67 0.0
C748 C 0.4773 0.98362 0.69479 0.0
C749 C 0.48423 0.96531 0.70329 0.0
C750 C 0.49691 0.9563 0.68762 0.0
H751 H 0.47816 0.89101 0.6391 0.0
H752 H 0.4854 0.90261 0.67052 0.0
H753 H 0.4692 0.91439 0.6502 0.0
H754 H 0.50016 0.99042 0.63535 0.0
H755 H 0.47787 0.00636 0.66284 0.0
H756 H 0.01993 0.48348 0.66349 0.0
H757 H 0.03797 0.52097 0.635 0.0
H758 H 0.08353 0.57196 0.69503 0.0
H759 H 0.06615 0.53491 0.72331 0.0
H760 H 0.0326 0.5635 0.63799 0.0
H761 H 0.13802 0.59574 0.64093 0.0
H762 H 0.11328 0.56397 0.65199 0.0
H763 H 0.12516 0.59233 0.67177 0.0
C764 C 0.03394 0.50266 0.67055 0.0
C765 C 0.04154 0.50617 0.69571 0.0
C766 C 0.04432 0.52402 0.65423 0.0
C767 C 0.06259 0.54917 0.66275 0.0
C768 C 0.07014 0.55264 0.68782 0.0
H769 H 0.08657 0.69751 0.63451 0.0
H770 H 0.07905 0.65497 0.64836 0.0
C771 C 0.05988 0.53141 0.70407 0.0
C772 C 0.07195 0.57234 0.64634 0.0
H773 H 0.12703 0.62942 0.63052 0.0
C774 C 0.05327 0.57759 0.63583 0.0
C775 C 0.09894 0.59061 0.64318 0.0
C776 C 0.11997 0.58522 0.65235 0.0
C777 C 0.06078 0.60147 0.62401 0.0
C778 C 0.08761 0.62069 0.62297 0.0
C779 C 0.10644 0.61475 0.6317 0.0
C780 C 0.09584 0.64784 0.61558 0.0
C781 C 0.03986 0.60647 0.61367 0.0
C782 C 0.10903 0.65844 0.5931 0.0
C783 C 0.11355 0.68301 0.58512 0.0
C784 C 0.10481 0.69704 0.59958 0.0
C785 C 0.09324 0.68701 0.62283 0.0
C786 C 0.08886 0.66269 0.63076 0.0
H787 H 0.02144 0.58789 0.60981 0.0
H788 H 0.03545 0.61774 0.62747 0.0
H789 H 0.04657 0.61811 0.59625 0.0
H790 H 0.1147 0.64724 0.58126 0.0
H791 H 0.12246 0.69027 0.5671 0.0
H792 H 0.32676 0.43829 0.57482 0.0
H793 H 0.36787 0.47488 0.591 0.0
H794 H 0.36437 0.4275 0.65358 0.0
H795 H 0.32363 0.39127 0.63779 0.0
H796 H 0.37872 0.48023 0.6656 0.0
H797 H 0.43769 0.47241 0.58849 0.0
H798 H 0.41027 0.47641 0.58029 0.0
H799 H 0.40467 0.44678 0.59504 0.0
C800 C 0.33458 0.43592 0.59223 0.0
C801 C 0.32216 0.41187 0.60492 0.0
C802 C 0.35811 0.45671 0.60132 0.0
C803 C 0.36928 0.45368 0.62327 0.0
C804 C 0.35613 0.43017 0.63655 0.0
H805 H 0.51816 0.51306 0.69166 0.0
H806 H 0.47776 0.48984 0.66731 0.0
C807 C 0.33288 0.40947 0.62746 0.0
C808 C 0.39522 0.47422 0.63227 0.0
H809 H 0.46077 0.50098 0.62134 0.0
C810 C 0.39669 0.48518 0.65577 0.0
C811 C 0.41854 0.48022 0.61948 0.0
C812 C 0.41795 0.46831 0.59448 0.0
C813 C 0.4209 0.50135 0.66725 0.0
C814 C 0.44425 0.507 0.65467 0.0
C815 C 0.44281 0.49667 0.63084 0.0
C816 C 0.47016 0.52215 0.66678 0.0
C817 C 0.42123 0.51118 0.69326 0.0
C818 C 0.47966 0.54824 0.67378 0.0
C819 C 0.5026 0.56148 0.68777 0.0
C820 C 0.51659 0.54892 0.69488 0.0
C821 C 0.50781 0.52325 0.6866 0.0
C822 C 0.48475 0.50997 0.67268 0.0
H823 H 0.40161 0.50073 0.70218 0.0
H824 H 0.43536 0.5089 0.70517 0.0
H825 H 0.42747 0.5323 0.6925 0.0
H826 H 0.46895 0.55814 0.66899 0.0
H827 H 0.50902 0.58139 0.69352 0.0
H828 H 0.77951 0.77905 0.39578 0.0
H829 H 0.77174 0.81143 0.41671 0.0
H830 H 0.78426 0.78535 0.48776 0.0
H831 H 0.79349 0.75407 0.46661 0.0
H832 H 0.73181 0.79852 0.44455 0.0
H833 H 0.81906 0.86145 0.50143 0.0
H834 H 0.81952 0.84037 0.47735 0.0
H835 H 0.80707 0.82753 0.50787 0.0
C836 C 0.78191 0.78127 0.41578 0.0
C837 C 0.7877 0.76464 0.42961 0.0
C838 C 0.77716 0.79951 0.42777 0.0
C839 C 0.77749 0.80102 0.45388 0.0
C840 C 0.78458 0.78521 0.46763 0.0
H841 H 0.67796 0.843 0.53883 0.0
H842 H 0.69614 0.82051 0.51473 0.0
C843 C 0.78993 0.76734 0.45556 0.0
C844 C 0.76713 0.81646 0.46656 0.0
H845 H 0.77909 0.86017 0.51337 0.0
C846 C 0.74237 0.81227 0.45938 0.0
C847 C 0.78083 0.83456 0.48583 0.0
C848 C 0.8082 0.84145 0.49338 0.0
C849 C 0.73081 0.82529 0.47109 0.0
C850 C 0.74388 0.8423 0.49124 0.0
C851 C 0.76885 0.84688 0.49814 0.0
C852 C 0.73223 0.85581 0.50526 0.0
C853 C 0.70492 0.82097 0.46134 0.0
C854 C 0.74659 0.88305 0.50845 0.0
C855 C 0.73646 0.89581 0.52263 0.0
C856 C 0.71163 0.88166 0.53377 0.0
C857 C 0.69698 0.85446 0.53018 0.0
C858 C 0.70734 0.84161 0.51631 0.0
H859 H 0.70196 0.81467 0.44155 0.0
H860 H 0.68878 0.80525 0.47229 0.0
H861 H 0.7035 0.839 0.46287 0.0
H862 H 0.7658 0.89447 0.50013 0.0
H863 H 0.74821 0.91682 0.52501 0.0
H864 H 0.27159 0.04822 0.46727 0.0
H865 H 0.24104 0.00707 0.48791 0.0
H866 H 0.2084 0.97248 0.41662 0.0
H867 H 0.2399 0.01327 0.39596 0.0
H868 H 0.18922 0.97239 0.49159 0.0
H869 H 0.23928 0.92856 0.43966 0.0
H870 H 0.25074 0.96317 0.43936 0.0
H871 H 0.22386 0.94131 0.41977 0.0
C872 C 0.25711 0.03214 0.45618 0.0
C873 C 0.25774 0.03376 0.43016 0.0
C874 C 0.23984 0.00858 0.46792 0.0
C875 C 0.22299 0.98651 0.45371 0.0
C876 C 0.22175 0.98908 0.42785 0.0
H877 H 0.11002 0.83803 0.5211 0.0
H878 H 0.13101 0.87881 0.49744 0.0
C879 C 0.23937 0.01244 0.4161 0.0
C880 C 0.20898 0.96038 0.46561 0.0
H881 H 0.20333 0.89986 0.46465 0.0
C882 C 0.1922 0.95648 0.48568 0.0
C883 C 0.21353 0.93989 0.45831 0.0
C884 C 0.23303 0.94346 0.43828 0.0
C885 C 0.17965 0.93258 0.49851 0.0
C886 C 0.18334 0.91173 0.4905 0.0
C887 C 0.20025 0.91572 0.47055 0.0
C888 C 0.1704 0.88586 0.50298 0.0
C889 C 0.16329 0.93026 0.52101 0.0
C890 C 0.18541 0.87537 0.51256 0.0
C891 C 0.17337 0.85165 0.52554 0.0
C892 C 0.14617 0.83824 0.52931 0.0
C893 C 0.13109 0.84818 0.51873 0.0
C894 C 0.14307 0.8716 0.50543 0.0
H895 H 0.16888 0.94975 0.52896 0.0
H896 H 0.14239 0.92081 0.51548 0.0
H897 H 0.16531 0.9182 0.53576 0.0
H898 H 0.20654 0.88593 0.51066 0.0
H899 H 0.18545 0.84446 0.53358 0.0
H900 H 0.97032 0.22288 0.45498 0.0
H901 H 0.00899 0.22894 0.47814 0.0
H902 H 0.05942 0.28426 0.42297 0.0
H903 H 0.02119 0.27828 0.3999 0.0
H904 H 0.07696 0.25004 0.44115 0.0
H905 H 0.05257 0.29971 0.51601 0.0
H906 H 0.02762 0.267 0.50805 0.0
H907 H 0.0372 0.29287 0.48581 0.0
C908 C 0.98967 0.23568 0.44747 0.0
C909 C 0.99283 0.25023 0.42577 0.0
C910 C 0.01169 0.23934 0.46081 0.0
C911 C 0.037 0.2574 0.45244 0.0
C912 C 0.04006 0.27035 0.42979 0.0
H913 H 0.18326 0.35162 0.52951 0.0
H914 H 0.1431 0.33462 0.50471 0.0
C915 C 0.0182 0.2669 0.41664 0.0
C916 C 0.06042 0.2648 0.46796 0.0
H917 H 0.09177 0.29866 0.52039 0.0
C918 C 0.08013 0.26041 0.45862 0.0
C919 C 0.06464 0.27885 0.49043 0.0
C920 C 0.04455 0.28514 0.50069 0.0
C921 C 0.10409 0.26982 0.47112 0.0
C922 C 0.10826 0.28372 0.49368 0.0
C923 C 0.08847 0.28797 0.5031 0.0
C924 C 0.13306 0.29408 0.50782 0.0
C925 C 0.12505 0.26553 0.45969 0.0
C926 C 0.14066 0.27692 0.51773 0.0
C927 C 0.16353 0.28653 0.53179 0.0
C928 C 0.17924 0.31354 0.53641 0.0
C929 C 0.17169 0.33075 0.52625 0.0
C930 C 0.14872 0.32107 0.51216 0.0
H931 H 0.12134 0.26051 0.43962 0.0
H932 H 0.14467 0.28321 0.46174 0.0
H933 H 0.12538 0.24908 0.46935 0.0
H934 H 0.12863 0.256 0.51497 0.0
H935 H 0.16868 0.27265 0.53934 0.0
H936 H 0.11697 0.45281 0.7587 0.0
H937 H 0.14917 0.44422 0.73844 0.0
H938 H 0.11605 0.44452 0.6669 0.0
H939 H 0.08478 0.45434 0.68717 0.0
H940 H 0.13419 0.40011 0.71552 0.0
H941 H 0.19167 0.47948 0.64856 0.0
H942 H 0.17244 0.48283 0.6729 0.0
H943 H 0.1572 0.46645 0.64424 0.0
C944 C 0.11765 0.4525 0.73856 0.0
C945 C 0.09901 0.4549 0.72436 0.0
C946 C 0.13578 0.44727 0.727 0.0
C947 C 0.13519 0.44383 0.7011 0.0
C948 C 0.11748 0.44779 0.68679 0.0
H949 H 0.16991 0.33553 0.62412 0.0
H950 H 0.14983 0.35654 0.64769 0.0
C951 C 0.09964 0.45349 0.69835 0.0
C952 C 0.15013 0.43233 0.68962 0.0
H953 H 0.19002 0.43841 0.641 0.0
C954 C 0.14671 0.40873 0.69943 0.0
C955 C 0.16656 0.44354 0.66871 0.0
C956 C 0.1724 0.46961 0.65817 0.0
C957 C 0.15876 0.39576 0.68863 0.0
C958 C 0.17404 0.40623 0.66692 0.0
C959 C 0.17802 0.43018 0.65746 0.0
C960 C 0.18618 0.3928 0.65374 0.0
C961 C 0.1552 0.37113 0.70079 0.0
C962 C 0.2132 0.40624 0.64903 0.0
C963 C 0.22459 0.39444 0.63529 0.0
C964 C 0.20924 0.36887 0.62601 0.0
C965 C 0.18229 0.35512 0.63127 0.0
C966 C 0.17082 0.3671 0.6448 0.0
H967 H 0.15023 0.37038 0.72083 0.0
H968 H 0.13881 0.35388 0.6916 0.0
H969 H 0.17314 0.36956 0.6991 0.0
H970 H 0.22545 0.42605 0.65575 0.0
H971 H 0.24545 0.40552 0.63164 0.0
H972 H 0.56656 0.67237 0.75053 0.0
H973 H 0.5736 0.71428 0.73375 0.0
H974 H 0.60373 0.70037 0.66582 0.0
H975 H 0.59692 0.65897 0.6824 0.0
H976 H 0.62492 0.75499 0.71939 0.0
H977 H 0.55471 0.72664 0.6413 0.0
H978 H 0.55055 0.70461 0.6665 0.0
H979 H 0.57247 0.70923 0.64122 0.0
C980 C 0.57386 0.67796 0.73173 0.0
C981 C 0.58116 0.66254 0.71768 0.0
C982 C 0.57804 0.7019 0.72226 0.0
C983 C 0.58901 0.71028 0.69849 0.0
C984 C 0.59487 0.6941 0.68402 0.0
H985 H 0.69251 0.85503 0.62799 0.0
H986 H 0.67205 0.81532 0.65355 0.0
C987 C 0.59103 0.6705 0.69353 0.0
C988 C 0.59723 0.73699 0.68951 0.0
H989 H 0.59287 0.76957 0.63903 0.0
C990 C 0.61757 0.75832 0.70209 0.0
C991 C 0.58754 0.74126 0.66702 0.0
C992 C 0.56493 0.71924 0.65334 0.0
C993 C 0.62947 0.78366 0.69201 0.0
C994 C 0.62096 0.78759 0.66865 0.0
C995 C 0.59963 0.76649 0.6568 0.0
C996 C 0.6343 0.81314 0.65563 0.0
C997 C 0.65125 0.80589 0.70629 0.0
C998 C 0.61989 0.82504 0.64832 0.0
C999 C 0.63142 0.84748 0.63359 0.0
C1000 C 0.65761 0.85848 0.62572 0.0
C1001 C 0.67235 0.8471 0.63381 0.0
C1002 C 0.66071 0.82449 0.64852 0.0
H1003 H 0.65012 0.80139 0.72647 0.0
H1004 H 0.67036 0.80914 0.69929 0.0
H1005 H 0.65068 0.82429 0.70383 0.0
H1006 H 0.5995 0.8166 0.65357 0.0
H1007 H 0.61955 0.85588 0.62789 0.0
H1008 H 0.18722 0.78115 0.61029 0.0
H1009 H 0.22823 0.80245 0.63327 0.0
H1010 H 0.21538 0.8664 0.65141 0.0
H1011 H 0.17425 0.8454 0.62782 0.0
H1012 H 0.26552 0.88276 0.63431 0.0
H1013 H 0.23848 0.80782 0.70809 0.0
H1014 H 0.23407 0.79497 0.6771 0.0
H1015 H 0.21455 0.80869 0.68777 0.0
C1016 C 0.19291 0.79968 0.61926 0.0
C1017 C 0.17734 0.81155 0.6172 0.0
C1018 C 0.21637 0.81175 0.63254 0.0
C1019 C 0.22468 0.8358 0.64435 0.0
C1020 C 0.20922 0.84774 0.64249 0.0
H1021 H 0.33788 0.92049 0.75451 0.0
H1022 H 0.29988 0.889 0.73077 0.0
C1023 C 0.1857 0.8357 0.62908 0.0
C1024 C 0.24994 0.84883 0.65796 0.0
H1025 H 0.28299 0.84137 0.70656 0.0
C1026 C 0.26939 0.87372 0.65007 0.0
C1027 C 0.25488 0.83695 0.67854 0.0
C1028 C 0.23433 0.81075 0.68856 0.0
C1029 C 0.29358 0.88723 0.6624 0.0
C1030 C 0.2986 0.87525 0.68285 0.0
C1031 C 0.27925 0.85024 0.69056 0.0
C1032 C 0.32225 0.88989 0.6985 0.0
C1033 C 0.3131 0.91465 0.65409 0.0
C1034 C 0.3476 0.89965 0.68877 0.0
C1035 C 0.36951 0.9176 0.70249 0.0
C1036 C 0.36613 0.92595 0.72596 0.0
C1037 C 0.34095 0.91435 0.73642 0.0
C1038 C 0.31923 0.89641 0.72286 0.0
H1039 H 0.30435 0.92266 0.64091 0.0
H1040 H 0.321 0.92802 0.67032 0.0
H1041 H 0.32975 0.91449 0.64461 0.0
H1042 H 0.35032 0.89449 0.67011 0.0
H1043 H 0.38872 0.92649 0.69396 0.0
H1044 H 0.56994 0.91862 0.24745 0.0
H1045 H 0.57711 0.884 0.2303 0.0
H1046 H 0.61926 0.93398 0.16849 0.0
H1047 H 0.61218 0.96835 0.1853 0.0
H1048 H 0.58315 0.88034 0.15574 0.0
H1049 H 0.65193 0.89177 0.23219 0.0
H1050 H 0.61989 0.8858 0.24084 0.0
H1051 H 0.64247 0.91601 0.226 0.0
C1052 C 0.58028 0.92196 0.22998 0.0
C1053 C 0.5907 0.94624 0.21782 0.0
C1054 C 0.58455 0.9023 0.22033 0.0
C1055 C 0.59907 0.90666 0.19836 0.0
C1056 C 0.60815 0.93031 0.18555 0.0
H1057 H 0.69123 0.84986 0.12804 0.0
H1058 H 0.67424 0.87353 0.15207 0.0
C1059 C 0.6041 0.94993 0.1952 0.0
C1060 C 0.60609 0.88737 0.18894 0.0
H1061 H 0.64703 0.86299 0.19964 0.0
C1062 C 0.5968 0.87619 0.16546 0.0
C1063 C 0.62426 0.88244 0.20156 0.0
C1064 C 0.63545 0.89469 0.22649 0.0
C1065 C 0.60557 0.86058 0.15402 0.0
C1066 C 0.62391 0.85582 0.16654 0.0
C1067 C 0.63288 0.86661 0.1902 0.0
C1068 C 0.63482 0.84064 0.15469 0.0
C1069 C 0.59595 0.85016 0.12819 0.0
C1070 C 0.61848 0.81413 0.14901 0.0
C1071 C 0.62807 0.80061 0.1353 0.0
C1072 C 0.65425 0.81333 0.12705 0.0
C1073 C 0.67098 0.83952 0.13401 0.0
C1074 C 0.66131 0.85306 0.14773 0.0
H1075 H 0.58606 0.85989 0.11924 0.0
H1076 H 0.61243 0.85285 0.11615 0.0
H1077 H 0.58168 0.82889 0.12929 0.0
H1078 H 0.5981 0.8041 0.1546 0.0
H1079 H 0.61471 0.78035 0.13056 0.0
H1080 H 0.09693 0.67708 0.25784 0.0
H1081 H 0.12849 0.71732 0.23652 0.0
H1082 H 0.10484 0.67718 0.16598 0.0
H1083 H 0.07432 0.63653 0.18755 0.0
H1084 H 0.15537 0.71274 0.16491 0.0
H1085 H 0.10053 0.75865 0.20283 0.0
H1086 H 0.11429 0.74822 0.22693 0.0
H1087 H 0.0895 0.72435 0.20668 0.0
C1088 C 0.09929 0.6767 0.23788 0.0
C1089 C 0.08353 0.65382 0.22427 0.0
C1090 C 0.11695 0.69976 0.22566 0.0
C1091 C 0.11836 0.70054 0.19956 0.0
C1092 C 0.10395 0.67714 0.18611 0.0
H1093 H 0.16655 0.84167 0.11234 0.0
H1094 H 0.14235 0.80031 0.13503 0.0
C1095 C 0.0867 0.65388 0.19841 0.0
C1096 C 0.13328 0.72594 0.18629 0.0
H1097 H 0.13982 0.78669 0.18123 0.0
C1098 C 0.15196 0.7289 0.16845 0.0
C1099 C 0.12832 0.74684 0.19037 0.0
C1100 C 0.10687 0.7443 0.20753 0.0
C1101 C 0.16609 0.75225 0.1549 0.0
C1102 C 0.16212 0.77363 0.15996 0.0
C1103 C 0.14318 0.77051 0.17757 0.0
C1104 C 0.17693 0.79919 0.14689 0.0
C1105 C 0.18449 0.75338 0.13477 0.0
C1106 C 0.20442 0.8128 0.1466 0.0
C1107 C 0.21822 0.83618 0.13333 0.0
C1108 C 0.20484 0.84684 0.12064 0.0
C1109 C 0.17739 0.83397 0.122 0.0
C1110 C 0.16356 0.81028 0.1349 0.0
H1111 H 0.17901 0.73351 0.12793 0.0
H1112 H 0.18468 0.76531 0.11872 0.0
H1113 H 0.20463 0.7623 0.14244 0.0
H1114 H 0.21527 0.80525 0.15646 0.0
H1115 H 0.23941 0.84586 0.13288 0.0
H1116 H 0.19574 0.41324 0.11323 0.0
H1117 H 0.23488 0.42677 0.13816 0.0
H1118 H 0.20056 0.34931 0.16968 0.0
H1119 H 0.16151 0.3352 0.14378 0.0
H1120 H 0.2456 0.43006 0.186 0.0
H1121 H 0.26749 0.35754 0.14296 0.0
H1122 H 0.24198 0.36312 0.13146 0.0
H1123 H 0.2364 0.34292 0.15844 0.0
C1124 C 0.19638 0.39902 0.12551 0.0
C1125 C 0.1756 0.37299 0.12625 0.0
C1126 C 0.21882 0.40685 0.13984 0.0
C1127 C 0.22095 0.38896 0.15544 0.0
C1128 C 0.19969 0.36328 0.15723 0.0
H1129 H 0.35282 0.43712 0.25884 0.0
H1130 H 0.31069 0.42771 0.24094 0.0
C1131 C 0.17733 0.35527 0.14253 0.0
C1132 C 0.24592 0.39719 0.16888 0.0
H1133 H 0.29537 0.38339 0.17528 0.0
C1134 C 0.25651 0.41986 0.18369 0.0
C1135 C 0.26035 0.38411 0.16555 0.0
C1136 C 0.25115 0.36074 0.14856 0.0
C1137 C 0.28123 0.43001 0.19496 0.0
C1138 C 0.2954 0.41663 0.19198 0.0
C1139 C 0.28455 0.3937 0.17757 0.0
C1140 C 0.32186 0.42617 0.20283 0.0
C1141 C 0.29225 0.45541 0.20915 0.0
C1142 C 0.34228 0.4287 0.18745 0.0
C1143 C 0.36599 0.43344 0.19771 0.0
C1144 C 0.36998 0.43633 0.22349 0.0
C1145 C 0.35032 0.43554 0.23883 0.0
C1146 C 0.32626 0.43016 0.22859 0.0
H1147 H 0.28289 0.46693 0.20341 0.0
H1148 H 0.28842 0.45111 0.22929 0.0
H1149 H 0.31373 0.46763 0.20637 0.0
H1150 H 0.33945 0.42581 0.16754 0.0
H1151 H 0.38084 0.43374 0.18559 0.0
H1152 H 0.11763 0.28283 0.03419 0.0
H1153 H 0.14025 0.26455 0.01081 0.0
H1154 H 0.20978 0.3406 0.00806 0.0
H1155 H 0.18723 0.35927 0.03139 0.0
H1156 H 0.19694 0.31118 0.96226 0.0
H1157 H 0.19749 0.25375 0.04411 0.0
H1158 H 0.16598 0.24886 0.0351 0.0
H1159 H 0.1905 0.28017 0.04674 0.0
C1160 C 0.1377 0.29579 0.02852 0.0
C1161 C 0.15074 0.3225 0.03497 0.0
C1162 C 0.15059 0.28524 0.01518 0.0
C1163 C 0.17679 0.30112 0.00811 0.0
C1164 C 0.18955 0.328 0.01349 0.0
H1165 H 0.30315 0.27765 0.97542 0.0
H1166 H 0.26872 0.28421 0.99292 0.0
C1167 C 0.17665 0.33863 0.02683 0.0
C1168 C 0.19125 0.28952 -0.00391 0.0
H1169 H 0.21607 0.24906 0.00708 0.0
C1170 C 0.20094 0.29741 0.97191 0.0
C1171 C 0.19648 0.27164 0.00886 0.0
C1172 C 0.18728 0.26319 0.03521 0.0
C1173 C 0.21623 0.28828 0.96031 0.0
C1174 C 0.22169 0.27062 0.9732 0.0
C1175 C 0.21151 0.26231 -0.00284 0.0
C1176 C 0.24085 0.26348 0.96356 0.0
C1177 C 0.22745 0.2985 0.93485 0.0
C1178 C 0.23622 0.24876 0.94168 0.0
C1179 C 0.25595 0.24481 0.93161 0.0
C1180 C 0.28054 0.25574 0.94328 0.0
C1181 C 0.28447 0.26919 0.96589 0.0
C1182 C 0.26481 0.27293 0.97595 0.0
H1183 H 0.2244 0.31484 0.92895 0.0
H1184 H 0.24877 0.30541 0.93456 0.0
H1185 H 0.21784 0.28246 0.92104 0.0
H1186 H 0.21767 0.241 0.93204 0.0
H1187 H 0.25243 0.23443 0.91414 0.0
H1188 H 0.73987 0.85949 0.04778 0.0
H1189 H 0.7537 0.89952 0.02438 0.0
H1190 H 0.67629 0.86685 0.99282 0.0
H1191 H 0.66185 0.82686 0.01738 0.0
H1192 H 0.75786 0.91123 0.97748 0.0
H1193 H 0.68527 0.9338 0.01924 0.0
H1194 H 0.6899 0.90764 0.03055 0.0
H1195 H 0.67049 0.90308 0.00315 0.0
C1196 C 0.72569 0.86071 0.03586 0.0
C1197 C 0.69963 0.84002 0.03463 0.0
C1198 C 0.7337 0.88368 0.02241 0.0
C1199 C 0.71599 0.88651 0.00712 0.0
C1200 C 0.69016 0.86549 0.00504 0.0
H1201 H 0.77004 0.02026 0.905 0.0
H1202 H 0.75879 0.97763 0.92281 0.0
C1203 C 0.68195 0.84257 0.01895 0.0
C1204 C 0.72479 0.91177 0.99396 0.0
H1205 H 0.712 0.96186 0.98736 0.0
C1206 C 0.74783 0.92233 0.97965 0.0
C1207 C 0.71196 0.92647 -0.00295 0.0
C1208 C 0.6882 0.91733 0.01352 0.0
C1209 C 0.75862 0.94725 0.96874 0.0
C1210 C 0.74547 0.96168 0.97141 0.0
C1211 C 0.72215 0.95087 0.98529 0.0
C1212 C 0.75563 0.98833 0.96071 0.0
C1213 C 0.78448 0.95817 0.95532 0.0
C1214 C 0.75774 0.00866 0.97596 0.0
C1215 C 0.76351 0.03268 0.9657 0.0
C1216 C 0.76792 0.03711 0.94007 0.0
C1217 C 0.76738 0.01746 0.92493 0.0
C1218 C 0.76094 0.9931 0.93513 0.0
H1219 H 0.79569 0.94866 0.96161 0.0
H1220 H 0.7808 0.9544 0.93509 0.0
H1221 H 0.79676 0.9796 0.95824 0.0
H1222 H 0.75383 0.00557 -0.00427 0.0
H1223 H 0.7635 0.04748 0.97765 0.0
H1224 H 0.19877 0.85214 0.0097 0.0
H1225 H 0.16027 0.82911 0.98278 0.0
H1226 H 0.12535 0.87014 0.01797 0.0
H1227 H 0.16406 0.89399 0.04382 0.0
H1228 H 0.11344 0.79617 -0.00469 0.0
H1229 H 0.10843 0.8765 0.94821 0.0
H1230 H 0.13694 0.88192 0.96552 0.0
H1231 H 0.10948 0.88118 0.98118 0.0
C1232 C 0.18303 0.85652 0.01133 0.0
C1233 C 0.18448 0.87491 0.02879 0.0
C1234 C 0.16107 0.8434 -0.00406 0.0
C1235 C 0.14004 0.84823 -0.00205 0.0
C1236 C 0.1416 0.86671 0.01534 0.0
H1237 H 0.9803 0.73143 0.97221 0.0
H1238 H 0.02267 0.76428 0.98906 0.0
C1239 C 0.16371 0.88017 0.03033 0.0
C1240 C 0.1154 0.83213 0.98385 0.0
H1241 H 0.06743 0.8353 0.95094 0.0
C1242 C 0.10364 0.80481 0.98528 0.0
C1243 C 0.10269 0.84325 0.97033 0.0
C1244 C 0.11524 0.87232 0.96599 0.0
C1245 C 0.07914 0.78835 0.97455 0.0
C1246 C 0.06541 0.7995 0.96296 0.0
C1247 C 0.07764 0.82678 0.96042 0.0
C1248 C 0.03831 0.78298 0.95357 0.0
C1249 C 0.06836 0.75915 0.97566 0.0
C1250 C 0.03225 0.78408 0.92848 0.0
C1251 C 0.00764 0.76586 0.91901 0.0
C1252 C 0.98903 0.74624 0.93452 0.0
C1253 C 0.99446 0.74637 0.95993 0.0
C1254 C 0.01874 0.76489 0.96947 0.0
H1255 H 0.08431 0.75438 0.97737 0.0
H1256 H 0.05562 0.75109 0.99228 0.0
H1257 H 0.05663 0.74922 0.95885 0.0
H1258 H 0.04698 0.79807 0.91595 0.0
H1259 H 0.0039 0.76591 0.89928 0.0
H1260 H 0.33631 0.17819 0.85932 0.0
H1261 H 0.35189 0.15418 0.83371 0.0
H1262 H 0.43177 0.21426 0.8468 0.0
H1263 H 0.41666 0.23846 0.87211 0.0
H1264 H 0.39413 0.17943 0.78912 0.0
H1265 H 0.41993 0.13802 0.87042 0.0
H1266 H 0.39466 0.14681 0.8723 0.0
H1267 H 0.42838 0.17191 0.87099 0.0
C1268 C 0.35718 0.18638 0.85662 0.0
C1269 C 0.37519 0.21019 0.86791 0.0
C1270 C 0.36602 0.17266 0.842 0.0
C1271 C 0.39295 0.18244 0.8386 0.0
C1272 C 0.41092 0.20638 0.84937 0.0
H1273 H 0.46775 0.09849 0.77428 0.0
H1274 H 0.46282 0.13333 0.79439 0.0
C1275 C 0.40216 0.22015 0.86382 0.0
C1276 C 0.40242 0.16747 0.82414 0.0
H1277 H 0.42715 0.12636 0.83061 0.0
C1278 C 0.40145 0.16789 0.79812 0.0
C1279 C 0.41244 0.15295 0.83601 0.0
C1280 C 0.41395 0.15217 0.86398 0.0
C1281 C 0.40977 0.1536 0.78358 0.0
C1282 C 0.41862 0.13798 0.79546 0.0
C1283 C 0.42043 0.13836 0.82151 0.0
C1284 C 0.42313 0.11889 0.78145 0.0
C1285 C 0.40892 0.15536 0.75563 0.0
C1286 C 0.40258 0.09935 0.76754 0.0
C1287 C 0.40536 0.07971 0.7561 0.0
C1288 C 0.42871 0.07884 0.75846 0.0
C1289 C 0.44962 0.09874 0.77195 0.0
C1290 C 0.44678 0.11855 0.7835 0.0
H1291 H 0.41118 0.17445 0.74977 0.0
H1292 H 0.42451 0.15287 0.74663 0.0
H1293 H 0.38963 0.13974 0.74878 0.0
H1294 H 0.38393 0.09873 0.76621 0.0
H1295 H 0.38877 0.06473 0.74591 0.0
H1296 H 0.84458 0.17025 0.85698 0.0
H1297 H 0.86863 0.20979 0.8315 0.0
H1298 H 0.80949 0.23068 0.84616 0.0
H1299 H 0.78523 0.19138 0.87141 0.0
H1300 H 0.8449 0.22779 0.78779 0.0
H1301 H 0.88517 0.29395 0.86991 0.0
H1302 H 0.87546 0.25969 0.87164 0.0
H1303 H 0.85101 0.26923 0.86983 0.0
C1304 C 0.83659 0.18315 0.85465 0.0
C1305 C 0.81305 0.17768 0.86639 0.0
C1306 C 0.85033 0.20568 0.84009 0.0
C1307 C 0.84086 0.22314 0.83721 0.0
C1308 C 0.81714 0.21748 0.84836 0.0
H1309 H 0.92633 0.38192 0.77414 0.0
H1310 H 0.89107 0.3421 0.79359 0.0
C1311 C 0.80333 0.19495 0.86276 0.0
C1312 C 0.85609 0.24766 0.82304 0.0
H1313 H 0.89747 0.31324 0.83035 0.0
C1314 C 0.8563 0.24652 0.79702 0.0
C1315 C 0.87051 0.27203 0.83522 0.0
C1316 C 0.87076 0.27404 0.8632 0.0
C1317 C 0.87111 0.26919 0.78279 0.0
C1318 C 0.88657 0.29345 0.79499 0.0
C1319 C 0.88557 0.29466 0.82102 0.0
C1320 C 0.90609 0.31709 0.78141 0.0
C1321 C 0.87012 0.2669 0.75481 0.0
C1322 C 0.92612 0.3162 0.76821 0.0
C1323 C 0.94607 0.33869 0.75717 0.0
C1324 C 0.94667 0.36278 0.75923 0.0
C1325 C 0.92631 0.36364 0.77207 0.0
C1326 C 0.90624 0.34096 0.78322 0.0
H1327 H 0.85123 0.25011 0.74847 0.0
H1328 H 0.87276 0.28502 0.74585 0.0
H1329 H 0.88603 0.26343 0.74837 0.0
H1330 H 0.92684 0.29823 0.7671 0.0
H1331 H 0.96141 0.33722 0.74749 0.0
H1332 H 0.85051 0.68623 0.85748 0.0
H1333 H 0.81024 0.66872 0.83286 0.0
H1334 H 0.80379 0.59261 0.83272 0.0
H1335 H 0.84372 0.60974 0.85751 0.0
H1336 H 0.79429 0.64161 0.78634 0.0
H1337 H 0.73551 0.58015 0.86605 0.0
H1338 H 0.76895 0.6062 0.86948 0.0
H1339 H 0.76202 0.57548 0.85612 0.0
C1340 C 0.84071 0.66586 0.85194 0.0
C1341 C 0.85007 0.64929 0.8598 0.0
C1342 C 0.81773 0.65589 0.83788 0.0
C1343 C 0.80384 0.62928 0.83141 0.0
C1344 C 0.81396 0.61308 0.83796 0.0
H1345 H 0.66145 0.56983 0.73829 0.0
H1346 H 0.70251 0.57436 0.75469 0.0
C1347 C 0.83681 0.62295 0.8521 0.0
C1348 C 0.77797 0.61821 0.8192 0.0
H1349 H 0.7126 0.57795 0.82954 0.0
C1350 C 0.77641 0.62746 0.79559 0.0
C1351 C 0.75474 0.59983 0.83148 0.0
C1352 C 0.75521 0.58992 0.85726 0.0
C1353 C 0.75211 0.61935 0.78419 0.0
C1354 C 0.72889 0.60134 0.79668 0.0
C1355 C 0.73051 0.59149 0.81993 0.0
C1356 C 0.70282 0.59555 0.7877 0.0
C1357 C 0.75135 0.63109 0.75948 0.0
C1358 C 0.68902 0.60498 0.80136 0.0
C1359 C 0.66577 0.6024 0.79216 0.0
C1360 C 0.65574 0.59018 0.76913 0.0
C1361 C 0.66875 0.57933 0.75609 0.0
C1362 C 0.69225 0.58209 0.7653 0.0
H1363 H 0.77092 0.64729 0.75387 0.0
H1364 H 0.74435 0.61573 0.7449 0.0
H1365 H 0.73748 0.63866 0.76025 0.0
H1366 H 0.69679 0.6153 0.81874 0.0
H1367 H 0.65605 0.61073 0.80275 0.0
H1368 H 0.83709 0.66551 0.95361 0.0
H1369 H 0.81519 0.68457 0.97749 0.0
H1370 H 0.88684 0.75895 0.97876 0.0
H1371 H 0.90875 0.74031 0.9548 0.0
H1372 H 0.82687 0.71121 0.02431 0.0
H1373 H 0.83371 0.77542 0.94553 0.0
H1374 H 0.8394 0.74826 0.94179 0.0
H1375 H 0.86422 0.77837 0.9553 0.0
C1376 C 0.84823 0.68585 0.95918 0.0
C1377 C 0.87454 0.70147 0.95196 0.0
C1378 C 0.83571 0.6967 0.97281 0.0
C1379 C 0.8493 0.72329 0.97944 0.0
C1380 C 0.87587 0.73855 0.97336 0.0
H1381 H 0.77663 0.79041 0.07657 0.0
H1382 H 0.81066 0.78298 0.05822 0.0
C1383 C 0.88834 0.7278 0.9597 0.0
C1384 C 0.83542 0.73536 0.99177 0.0
H1385 H 0.81497 0.77967 0.9827 0.0
C1386 C 0.82441 0.72633 0.01536 0.0
C1387 C 0.83221 0.755 0.97991 0.0
C1388 C 0.84279 0.76475 0.95415 0.0
C1389 C 0.80984 0.73612 0.02725 0.0
C1390 C 0.80649 0.75564 0.0153 0.0
C1391 C 0.81793 0.765 0.99194 0.0
C1392 C 0.78825 0.76388 0.02516 0.0
C1393 C 0.79713 0.72468 0.05196 0.0
C1394 C 0.7651 0.7568 0.01205 0.0
C1395 C 0.74588 0.76108 0.02236 0.0
C1396 C 0.74947 0.7727 0.04593 0.0
C1397 C 0.77343 0.78152 0.05833 0.0
C1398 C 0.79271 0.77704 0.04801 0.0
H1399 H 0.79841 0.70705 0.05687 0.0
H1400 H 0.80705 0.73953 0.06678 0.0
H1401 H 0.77619 0.71931 0.05172 0.0
H1402 H 0.76134 0.74677 0.99434 0.0
H1403 H 0.72764 0.75422 0.01233 0.0
H1404 H 0.2889 0.18384 0.96551 0.0
H1405 H 0.27119 0.14371 0.98982 0.0
H1406 H 0.34559 0.1464 0.98578 0.0
H1407 H 0.36368 0.18692 0.96143 0.0
H1408 H 0.26728 0.09799 0.97194 0.0
H1409 H 0.32497 0.1291 0.05936 0.0
H1410 H 0.32333 0.15203 0.03819 0.0
H1411 H 0.34455 0.13904 0.03159 0.0
C1412 C 0.30169 0.17616 0.97004 0.0
C1413 C 0.3277 0.18851 0.96133 0.0
C1414 C 0.29149 0.15321 0.98399 0.0
C1415 C 0.30706 0.14212 0.98971 0.0
C1416 C 0.33334 0.15486 0.98191 0.0
H1417 H 0.27229 0.9868 0.0157 0.0
H1418 H 0.28099 0.02894 -0.00075 0.0
C1419 C 0.34364 0.17797 0.96793 0.0
C1420 C 0.29502 0.11605 0.0018 0.0
H1421 H 0.30003 0.08303 0.05173 0.0
C1422 C 0.27425 0.09478 0.98953 0.0
C1423 C 0.30388 0.11195 0.0249 0.0
C1424 C 0.32524 0.13426 0.03944 0.0
C1425 C 0.26287 0.06935 -0.00078 0.0
C1426 C 0.27261 0.06504 0.02166 0.0
C1427 C 0.29262 0.08642 0.03449 0.0
C1428 C 0.26423 0.03829 0.03069 0.0
C1429 C 0.24079 0.04716 0.98518 0.0
C1430 C 0.25151 0.02938 0.05369 0.0
C1431 C 0.24618 0.00501 0.06306 0.0
C1432 C 0.25406 0.98961 0.04972 0.0
C1433 C 0.26595 0.99826 0.02633 0.0
C1434 C 0.27091 0.02231 0.01689 0.0
H1435 H 0.23101 0.05432 0.97229 0.0
H1436 H 0.24875 0.0369 0.97397 0.0
H1437 H 0.22595 0.03276 -0.00182 0.0
H1438 H 0.24634 0.04157 0.06464 0.0
H1439 H 0.23731 0.99894 0.08127 0.0
H1440 H 0.82485 0.17791 0.97579 0.0
H1441 H 0.86499 0.20231 0.00041 0.0
H1442 H 0.89645 0.15718 0.96722 0.0
H1443 H 0.85621 0.13206 0.94369 0.0
H1444 H 0.90899 0.16448 0.01416 0.0
H1445 H 0.93172 0.25976 0.97293 0.0
H1446 H 0.90119 0.24409 0.9894 0.0
H1447 H 0.90522 0.22914 0.96179 0.0
C1448 C 0.84029 0.17313 0.97391 0.0
C1449 C 0.83741 0.1532 0.95764 0.0
C1450 C 0.86329 0.18719 0.98785 0.0
C1451 C 0.88406 0.18204 0.98524 0.0
C1452 C 0.8808 0.16162 0.96955 0.0
H1453 H 0.04572 0.29442 0.01316 0.0
H1454 H 0.00358 0.2623 -0.00465 0.0
C1455 C 0.85773 0.14727 0.95604 0.0
C1456 C 0.90958 0.19823 -0.00195 0.0
H1457 H 0.96009 0.26083 0.00438 0.0
C1458 C 0.92019 0.18557 0.01201 0.0
C1459 C 0.92441 0.2257 -0.00505 0.0
C1460 C 0.91521 0.24046 0.97876 0.0
C1461 C 0.9453 0.19952 0.02264 0.0
C1462 C 0.95985 0.22706 0.02001 0.0
C1463 C 0.949 0.23972 0.00643 0.0
C1464 C 0.98662 0.24336 0.03046 0.0
C1465 C 0.95626 0.18445 0.03575 0.0
C1466 C 0.99161 0.24282 0.05599 0.0
C1467 C 0.01608 0.26067 0.06602 0.0
C1468 C 0.03561 0.27975 0.05078 0.0
C1469 C 0.03098 0.2797 0.02519 0.0
C1470 C 0.00684 0.2615 0.01509 0.0
H1471 H 0.94657 0.16377 0.0294 0.0
H1472 H 0.97766 0.19347 0.0326 0.0
H1473 H 0.95274 0.18435 0.05603 0.0
H1474 H 0.97622 0.22955 0.06839 0.0
H1475 H 0.01905 0.26078 0.08592 0.0
H1476 H 0.33414 0.13928 0.49277 0.0
H1477 H 0.31468 0.15726 0.52144 0.0
H1478 H 0.26969 0.1631 0.46105 0.0
H1479 H 0.28849 0.14491 0.43259 0.0
H1480 H 0.3188 0.20473 0.51939 0.0
H1481 H 0.2141 0.13008 0.51392 0.0
H1482 H 0.23961 0.12402 0.50307 0.0
H1483 H 0.22754 0.14042 0.48339 0.0
C1484 C 0.31996 0.14423 0.48567 0.0
C1485 C 0.31293 0.14069 0.46036 0.0
C1486 C 0.30876 0.15436 0.50209 0.0
C1487 C 0.29023 0.16092 0.49351 0.0
C1488 C 0.28327 0.1574 0.46829 0.0
H1489 H 0.2614 0.28177 0.52122 0.0
H1490 H 0.26872 0.24659 0.50724 0.0
C1491 C 0.29435 0.14728 0.45194 0.0
C1492 C 0.27997 0.17387 0.51006 0.0
H1493 H 0.22373 0.17422 0.52494 0.0
C1494 C 0.29799 0.19768 0.52116 0.0
C1495 C 0.25279 0.16457 0.51268 0.0
C1496 C 0.23243 0.13821 0.50284 0.0
C1497 C 0.28964 0.21341 0.53301 0.0
C1498 C 0.26264 0.20523 0.53352 0.0
C1499 C 0.24445 0.18055 0.5242 0.0
C1500 C 0.25371 0.22366 0.54079 0.0
C1501 C 0.30984 0.23935 0.54382 0.0
C1502 C 0.24156 0.22163 0.56381 0.0
C1503 C 0.23712 0.24174 0.57183 0.0
C1504 C 0.24497 0.26402 0.5569 0.0
C1505 C 0.25534 0.26491 0.53316 0.0
C1506 C 0.25959 0.24488 0.52517 0.0
H1507 H 0.32869 0.23992 0.54743 0.0
H1508 H 0.3136 0.25517 0.53044 0.0
H1509 H 0.30272 0.24343 0.56145 0.0
H1510 H 0.23683 0.20527 0.57604 0.0
H1511 H 0.22925 0.24069 0.59027 0.0
H1512 H 0.88306 0.16371 0.43324 0.0
H1513 H 0.86387 0.1262 0.46099 0.0
H1514 H 0.86464 0.17517 0.52095 0.0
H1515 H 0.88352 0.21312 0.49296 0.0
H1516 H 0.87957 0.11498 0.50589 0.0
H1517 H 0.78753 0.11906 0.51592 0.0
H1518 H 0.81205 0.13823 0.49303 0.0
H1519 H 0.81727 0.14781 0.52518 0.0
C1520 C 0.87926 0.16668 0.45233 0.0
C1521 C 0.88446 0.19142 0.46074 0.0
C1522 C 0.86843 0.14516 0.46824 0.0
C1523 C 0.86256 0.1478 0.49295 0.0
C1524 C 0.86865 0.17263 0.50181 0.0
H1525 H 0.78452 0.006 0.58792 0.0
H1526 H 0.8192 0.04924 0.57364 0.0
C1527 C 0.87944 0.19428 0.4858 0.0
C1528 C 0.84842 0.12398 0.50851 0.0
H1529 H 0.78818 0.08305 0.53324 0.0
C1530 C 0.85974 0.10816 0.51231 0.0
C1531 C 0.82249 0.11509 0.51667 0.0
C1532 C 0.80894 0.13075 0.51241 0.0
C1533 C 0.84538 0.08317 0.52305 0.0
C1534 C 0.81919 0.07397 0.53026 0.0
C1535 C 0.80834 0.09029 0.52765 0.0
C1536 C 0.80146 0.04648 0.5377 0.0
C1537 C 0.85767 0.06615 0.52535 0.0
C1538 C 0.78062 0.03045 0.52192 0.0
C1539 C 0.76096 0.00605 0.52999 0.0
C1540 C 0.76177 0.99714 0.55401 0.0
C1541 C 0.78362 0.01232 0.56922 0.0
C1542 C 0.80333 0.03702 0.56114 0.0
H1543 H 0.87771 0.07556 0.51734 0.0
H1544 H 0.85878 0.06187 0.54527 0.0
H1545 H 0.8453 0.04718 0.51578 0.0
H1546 H 0.7789 0.03739 0.50374 0.0
H1547 H 0.74436 0.99469 0.51788 0.0
H1548 H 0.02673 0.79111 0.58822 0.0
H1549 H 0.98366 0.78404 0.57473 0.0
H1550 H 0.99088 0.75023 0.50616 0.0
H1551 H 0.0334 0.75701 0.51943 0.0
H1552 H 0.96489 0.79696 0.52519 0.0
H1553 H 0.92461 0.69166 0.54607 0.0
H1554 H 0.95477 0.71705 0.55952 0.0
H1555 H 0.95439 0.70607 0.52826 0.0
C1556 C 0.01939 0.78289 0.57 0.0
C1557 C 0.0332 0.77437 0.55494 0.0
C1558 C 0.9948 0.77874 0.56239 0.0
C1559 C 0.98402 0.76619 0.53968 0.0
C1560 C 0.99877 0.75961 0.5239 0.0
H1561 H 0.8698 0.73502 0.43316 0.0
H1562 H 0.90693 0.75312 0.46139 0.0
C1563 C 0.02306 0.76356 0.53148 0.0
C1564 C 0.95665 0.75776 0.53281 0.0
H1565 H 0.89951 0.70237 0.51841 0.0
C1566 C 0.95033 0.77634 0.52418 0.0
C1567 C 0.93758 0.73088 0.53199 0.0
C1568 C 0.94302 0.71023 0.54217 0.0
C1569 C 0.92595 0.76853 0.513 0.0
C1570 C 0.90782 0.7415 0.50999 0.0
C1571 C 0.91346 0.72307 0.52044 0.0
C1572 C 0.88447 0.73181 0.49368 0.0
C1573 C 0.92015 0.78932 0.50396 0.0
C1574 C 0.85946 0.71311 0.50219 0.0
C1575 C 0.83804 0.7023 0.48588 0.0
C1576 C 0.84135 0.70989 0.46073 0.0
C1577 C 0.86643 0.72873 0.4524 0.0
C1578 C 0.88772 0.73941 0.46863 0.0
H1579 H 0.93051 0.80732 0.51545 0.0
H1580 H 0.92724 0.79466 0.48455 0.0
H1581 H 0.89883 0.78237 0.50436 0.0
H1582 H 0.85657 0.70671 0.5214 0.0
H1583 H 0.81899 0.68791 0.49293 0.0
H1584 H 0.93581 0.61617 0.23977 0.0
H1585 H 0.90247 0.62078 0.26222 0.0
H1586 H 0.88521 0.5532 0.30671 0.0
H1587 H 0.91913 0.54858 0.28424 0.0
H1588 H 0.84849 0.58789 0.27146 0.0
H1589 H 0.90866 0.61325 0.35778 0.0
H1590 H 0.92152 0.61179 0.32774 0.0
H1591 H 0.89941 0.58215 0.34374 0.0
C1592 C 0.92467 0.60198 0.25407 0.0
C1593 C 0.93029 0.58217 0.26044 0.0
C1594 C 0.90554 0.60462 0.26684 0.0
C1595 C 0.89167 0.58764 0.28641 0.0
C1596 C 0.896 0.56676 0.29188 0.0
H1597 H 0.80156 0.61862 0.39703 0.0
H1598 H 0.82016 0.59701 0.37252 0.0
C1599 C 0.91517 0.56399 0.27891 0.0
C1600 C 0.87444 0.59352 0.30199 0.0
H1601 H 0.87143 0.61786 0.35878 0.0
C1602 C 0.85325 0.5941 0.29067 0.0
C1603 C 0.88081 0.60178 0.32699 0.0
C1604 C 0.90392 0.60245 0.33985 0.0
C1605 C 0.83858 0.60321 0.30353 0.0
C1606 C 0.8456 0.61241 0.32821 0.0
C1607 C 0.86615 0.61089 0.33982 0.0
C1608 C 0.83263 0.62462 0.34209 0.0
C1609 C 0.81581 0.60301 0.29052 0.0
C1610 C 0.83345 0.64742 0.33316 0.0
C1611 C 0.8228 0.6599 0.34715 0.0
C1612 C 0.81133 0.64995 0.37048 0.0
C1613 C 0.8103 0.62693 0.3792 0.0
C1614 C 0.82091 0.61448 0.3652 0.0
H1615 H 0.80823 0.58852 0.27511 0.0
H1616 H 0.79956 0.59843 0.3037 0.0
H1617 H 0.82237 0.62263 0.28243 0.0
H1618 H 0.84291 0.65594 0.31562 0.0
H1619 H 0.82401 0.6776 0.33989 0.0
H1620 H 0.42983 0.36834 0.30981 0.0
H1621 H 0.42297 0.32713 0.32696 0.0
H1622 H 0.4511 0.31133 0.25874 0.0
H1623 H 0.45848 0.35318 0.24149 0.0
H1624 H 0.38682 0.28037 0.30104 0.0
H1625 H 0.48393 0.28801 0.31629 0.0
H1626 H 0.48004 0.31652 0.31535 0.0
H1627 H 0.47812 0.2994 0.28718 0.0
C1628 C 0.43528 0.35645 0.29872 0.0
C1629 C 0.44455 0.3638 0.27431 0.0
C1630 C 0.43134 0.33293 0.30852 0.0
C1631 C 0.43643 0.31617 0.29409 0.0
C1632 C 0.44733 0.32416 0.27025 0.0
H1633 H 0.3509 0.15013 0.33591 0.0
H1634 H 0.37153 0.18971 0.3103 0.0
C1635 C 0.45157 0.34803 0.26044 0.0
C1636 C 0.42688 0.28918 0.3031 0.0
H1637 H 0.44645 0.24824 0.32746 0.0
C1638 C 0.39981 0.27317 0.30656 0.0
C1639 C 0.44394 0.28004 0.31032 0.0
C1640 C 0.47318 0.29681 0.30728 0.0
C1641 C 0.38932 0.24862 0.31795 0.0
C1642 C 0.40636 0.23952 0.32556 0.0
C1643 C 0.43344 0.25521 0.32143 0.0
C1644 C 0.39646 0.21481 0.33974 0.0
C1645 C 0.3602 0.23327 0.32286 0.0
C1646 C 0.40446 0.21558 0.36444 0.0
C1647 C 0.39288 0.193 0.37907 0.0
C1648 C 0.37297 0.16919 0.36928 0.0
C1649 C 0.36586 0.16823 0.34415 0.0
C1650 C 0.37762 0.19082 0.32948 0.0
H1651 H 0.35086 0.24552 0.32077 0.0
H1652 H 0.35084 0.21689 0.30937 0.0
H1653 H 0.35613 0.22488 0.34191 0.0
H1654 H 0.41899 0.23389 0.37271 0.0
H1655 H 0.399 0.19442 0.39827 0.0
H1656 H 0.82529 0.21846 0.40131 0.0
H1657 H 0.7849 0.19699 0.37699 0.0
H1658 H 0.82812 0.19426 0.31342 0.0
H1659 H 0.86861 0.21527 0.33773 0.0
H1660 H 0.76856 0.20852 0.33166 0.0
H1661 H 0.77439 0.11738 0.32613 0.0
H1662 H 0.79495 0.14399 0.34666 0.0
H1663 H 0.80237 0.14609 0.31402 0.0
C1664 C 0.82629 0.21344 0.38211 0.0
C1665 C 0.85013 0.21816 0.3716 0.0
C1666 C 0.80318 0.2013 0.36821 0.0
C1667 C 0.80348 0.19372 0.34354 0.0
C1668 C 0.82741 0.19955 0.33259 0.0
H1669 H 0.66661 0.11627 0.24444 0.0
H1670 H 0.7073 0.15083 0.26338 0.0
C1671 C 0.85052 0.21154 0.34652 0.0
C1672 C 0.77848 0.178 0.33002 0.0
H1673 H 0.739 0.1172 0.30586 0.0
C1674 C 0.76209 0.1886 0.32585 0.0
C1675 C 0.77006 0.15194 0.32272 0.0
C1676 C 0.7862 0.13902 0.32776 0.0
C1677 C 0.7373 0.17364 0.31477 0.0
C1678 C 0.72894 0.1476 0.30761 0.0
C1679 C 0.74556 0.13724 0.31135 0.0
C1680 C 0.70238 0.12976 0.29778 0.0
C1681 C 0.71988 0.18538 0.31157 0.0
C1682 C 0.68592 0.10693 0.3111 0.0
C1683 C 0.66306 0.08727 0.3003 0.0
C1684 C 0.6561 0.09011 0.27601 0.0
C1685 C 0.67148 0.11377 0.26329 0.0
C1686 C 0.69468 0.13347 0.27408 0.0
H1687 H 0.7275 0.20423 0.32169 0.0
H1688 H 0.71853 0.18899 0.29152 0.0
H1689 H 0.69978 0.17161 0.31831 0.0
H1690 H 0.69148 0.10372 0.32941 0.0
H1691 H 0.65145 0.06923 0.31052 0.0
H1692 H 0.11834 0.74985 0.48672 0.0
H1693 H 0.10371 0.72866 0.44614 0.0
H1694 H 0.02826 0.67441 0.4773 0.0
H1695 H 0.04277 0.69505 0.51793 0.0
H1696 H 0.04951 0.6503 0.45003 0.0
H1697 H 0.05263 0.73281 0.39753 0.0
H1698 H 0.08281 0.74107 0.41297 0.0
H1699 H 0.05392 0.73233 0.43107 0.0
C1700 C 0.09861 0.73349 0.48489 0.0
C1701 C 0.08175 0.72403 0.50551 0.0
C1702 C 0.09024 0.72154 0.46169 0.0
C1703 C 0.06482 0.70024 0.45876 0.0
C1704 C 0.04793 0.69089 0.47925 0.0
H1705 H 0.99336 0.63344 0.3159 0.0
H1706 H 0.0017 0.65235 0.35768 0.0
C1707 C 0.05629 0.70269 0.50243 0.0
C1708 C 0.05616 0.68684 0.4346 0.0
H1709 H 0.04736 0.69639 0.37367 0.0
C1710 C 0.04884 0.66029 0.43335 0.0
C1711 C 0.05497 0.69991 0.41305 0.0
C1712 C 0.06125 0.72803 0.41369 0.0
C1713 C 0.04099 0.64656 0.41085 0.0
C1714 C 0.04098 0.65995 0.38908 0.0
C1715 C 0.0476 0.6863 0.39044 0.0
C1716 C 0.03506 0.64724 0.36451 0.0
C1717 C 0.0327 0.61787 0.41062 0.0
C1718 C 0.05111 0.63818 0.35469 0.0
C1719 C 0.0464 0.62733 0.33094 0.0
C1720 C 0.02572 0.62565 0.31651 0.0
C1721 C 0.0095 0.63454 0.32653 0.0
C1722 C 0.01421 0.64533 0.35035 0.0
H1723 H 0.02656 0.609 0.42939 0.0
H1724 H 0.01629 0.60686 0.39742 0.0
H1725 H 0.04948 0.61559 0.40463 0.0
H1726 H 0.06762 0.63999 0.3652 0.0
H1727 H 0.05931 0.62074 0.32374 0.0
H1728 H 0.26209 0.36924 0.49114 0.0
H1729 H 0.2817 0.37823 0.44962 0.0
H1730 H 0.34752 0.37342 0.4783 0.0
H1731 H 0.32801 0.36408 0.51972 0.0
H1732 H 0.33012 0.41958 0.43485 0.0
H1733 H 0.32411 0.32384 0.4185 0.0
H1734 H 0.30598 0.32887 0.44287 0.0
H1735 H 0.34006 0.33924 0.44712 0.0
C1736 C 0.28069 0.37 0.48861 0.0
C1737 C 0.29348 0.36591 0.50874 0.0
C1738 C 0.29184 0.37513 0.46489 0.0
C1739 C 0.31584 0.37611 0.46089 0.0
C1740 C 0.32872 0.37221 0.48094 0.0
H1741 H 0.42452 0.44744 0.33901 0.0
H1742 H 0.40194 0.4363 0.37911 0.0
C1743 C 0.3176 0.36704 0.50463 0.0
C1744 C 0.32786 0.38201 0.43591 0.0
H1745 H 0.35051 0.35819 0.3903 0.0
C1746 C 0.33445 0.40612 0.425 0.0
C1747 C 0.33316 0.36424 0.42307 0.0
C1748 C 0.32524 0.33749 0.43335 0.0
C1749 C 0.3468 0.41323 0.40174 0.0
C1750 C 0.35308 0.39591 0.38936 0.0
C1751 C 0.34593 0.37154 0.40001 0.0
C1752 C 0.36685 0.40259 0.3652 0.0
C1753 C 0.35274 0.43907 0.39049 0.0
C1754 C 0.35486 0.38687 0.34433 0.0
C1755 C 0.36776 0.39303 0.32145 0.0
C1756 C 0.39293 0.41502 0.31908 0.0
C1757 C 0.40506 0.43052 0.34016 0.0
C1758 C 0.39214 0.42428 0.36305 0.0
H1759 H 0.34065 0.44666 0.39899 0.0
H1760 H 0.37364 0.45368 0.39378 0.0
H1761 H 0.34927 0.43724 0.3701 0.0
H1762 H 0.3354 0.36995 0.34569 0.0
H1763 H 0.3579 0.38062 0.30562 0.0
H1764 H 0.65819 0.97764 0.51775 0.0
H1765 H 0.6466 0.98622 0.47665 0.0
H1766 H 0.64592 0.91763 0.4478 0.0
H1767 H 0.6571 0.90855 0.489 0.0
H1768 H 0.67339 0.99512 0.43232 0.0
H1769 H 0.5745 0.90693 0.42658 0.0
H1770 H 0.59268 0.91777 0.45532 0.0
H1771 H 0.60042 0.90007 0.43284 0.0
C1772 C 0.65552 0.9643 0.50271 0.0
C1773 C 0.65835 0.94227 0.50668 0.0
C1774 C 0.64892 0.96927 0.47925 0.0
C1775 C 0.64502 0.95233 0.45937 0.0
C1776 C 0.6483 0.9306 0.46309 0.0
H1777 H 0.64146 0.98703 0.30344 0.0
H1778 H 0.65244 0.97715 0.34429 0.0
C1779 C 0.65481 0.92553 0.4866 0.0
C1780 C 0.63796 0.95776 0.43465 0.0
H1781 H 0.59047 0.93276 0.39006 0.0
C1782 C 0.65526 0.98153 0.42305 0.0
C1783 C 0.61411 0.9401 0.42288 0.0
C1784 C 0.59421 0.91489 0.4351 0.0
C1785 C 0.64947 0.98803 0.39977 0.0
C1786 C 0.626 0.97002 0.38766 0.0
C1787 C 0.60855 0.94638 0.39937 0.0
C1788 C 0.61908 0.97548 0.3629 0.0
C1789 C 0.66828 0.0143 0.38856 0.0
C1790 C 0.59629 0.97707 0.35981 0.0
C1791 C 0.5898 0.98249 0.33645 0.0
C1792 C 0.606 0.98631 0.31582 0.0
C1793 C 0.62865 0.98434 0.31898 0.0
C1794 C 0.63505 0.97884 0.34231 0.0
H1795 H 0.68154 0.02829 0.40281 0.0
H1796 H 0.68055 0.01176 0.37443 0.0
H1797 H 0.65758 0.02298 0.37923 0.0
H1798 H 0.58369 0.97441 0.37553 0.0
H1799 H 0.57224 0.9839 0.33463 0.0
H1800 H 0.68576 0.05957 0.97059 0.0
H1801 H 0.66558 0.05051 0.01178 0.0
H1802 H 0.73319 0.11911 0.04091 0.0
H1803 H 0.75344 0.1286 -0.00025 0.0
H1804 H 0.68502 0.0415 0.05554 0.0
H1805 H 0.67178 0.12802 0.06414 0.0
H1806 H 0.67866 0.11772 0.03483 0.0
H1807 H 0.70463 0.13588 0.05667 0.0
C1808 C 0.69628 0.07285 0.9857 0.0
C1809 C 0.72113 0.09491 0.98188 0.0
C1810 C 0.68472 0.06762 0.0092 0.0
C1811 C 0.69776 0.08437 0.0292 0.0
C1812 C 0.72261 0.10628 0.02553 0.0
H1813 H 0.66862 0.05042 0.18602 0.0
H1814 H 0.68691 0.06034 0.14404 0.0
C1815 C 0.73418 0.11158 0.00203 0.0
C1816 C 0.68576 0.07836 0.05413 0.0
H1817 H 0.66467 0.10261 0.10071 0.0
C1818 C 0.68044 0.05477 0.06541 0.0
C1819 C 0.67958 0.09564 0.06672 0.0
C1820 C 0.68371 0.12063 0.05491 0.0
C1821 C 0.6695 0.04818 0.08926 0.0
C1822 C 0.66421 0.06589 0.10221 0.0
C1823 C 0.66905 0.08924 0.09075 0.0
C1824 C 0.65342 0.06042 0.12764 0.0
C1825 C 0.6634 0.02219 0.10027 0.0
C1826 C 0.62887 0.05791 0.13231 0.0
C1827 C 0.61843 0.05244 0.15628 0.0
C1828 C 0.63248 0.04953 0.17597 0.0
C1829 C 0.65728 0.05246 0.17125 0.0
C1830 C 0.6677 0.05797 0.14727 0.0
H1831 H 0.66235 0.00829 0.08574 0.0
H1832 H 0.67911 0.02529 0.11355 0.0
H1833 H 0.64455 0.01313 0.11055 0.0
H1834 H 0.61766 0.05987 0.11734 0.0
H1835 H 0.59927 0.05028 0.15929 0.0
H1836 H 0.00953 0.65341 0.17834 0.0
H1837 H 0.99862 0.66534 0.1383 0.0
H1838 H 0.95758 0.58406 0.11655 0.0
H1839 H 0.96767 0.57191 0.1567 0.0
H1840 H 0.0087 0.65895 0.09067 0.0
H1841 H 0.90185 0.60413 0.10734 0.0
H1842 H 0.92538 0.61022 0.13161 0.0
H1843 H 0.91592 0.58342 0.11027 0.0
C1844 C 0.9983 0.63812 0.16495 0.0
C1845 C 0.98905 0.61169 0.17072 0.0
C1846 C 0.99206 0.64496 0.14216 0.0
C1847 C 0.97666 0.62548 0.12486 0.0
C1848 C 0.96872 0.59927 0.13005 0.0
H1849 H 0.95951 0.63476 0.96869 0.0
H1850 H 0.9722 0.6313 0.01107 0.0
C1851 C 0.97464 0.59238 0.15289 0.0
C1852 C 0.96876 0.63236 0.10132 0.0
H1853 H 0.91545 0.61625 0.06496 0.0
C1854 C 0.98831 0.6499 0.08513 0.0
C1855 C 0.94211 0.62107 0.09448 0.0
C1856 C 0.92012 0.6039 0.11198 0.0
C1857 C 0.98195 0.65538 0.06164 0.0
C1858 C 0.95543 0.64232 0.05401 0.0
C1859 C 0.93581 0.62587 0.07071 0.0
C1860 C 0.94765 0.64449 0.02843 0.0
C1861 C 0.0037 0.67506 0.04529 0.0
C1862 C 0.92871 0.65186 0.02425 0.0
C1863 C 0.92092 0.65323 6e-05 0.0
C1864 C 0.9321 0.64737 0.97973 0.0
C1865 C 0.95074 0.6396 0.98401 0.0
C1866 C 0.95823 0.6379 0.00819 0.0
H1867 H 0.02059 0.68944 0.05657 0.0
H1868 H 0.01078 0.66471 0.03309 0.0
H1869 H 0.99688 0.68586 0.03337 0.0
H1870 H 0.92013 0.65676 0.0397 0.0
H1871 H 0.90663 0.65943 -0.00275 0.0
H1872 H 0.4624 0.42591 0.16043 0.0
H1873 H 0.45381 0.40847 0.1181 0.0
H1874 H 0.38443 0.33922 0.14354 0.0
H1875 H 0.3926 0.35657 0.18587 0.0
H1876 H 0.44969 0.36188 0.10091 0.0
H1877 H 0.35784 0.36432 0.08512 0.0
H1878 H 0.38003 0.38172 0.11033 0.0
H1879 H 0.35754 0.34716 0.11282 0.0
C1880 C 0.44528 0.40698 0.15704 0.0
C1881 C 0.42815 0.39263 0.17652 0.0
C1882 C 0.44042 0.39708 0.13285 0.0
C1883 C 0.41832 0.37277 0.12772 0.0
C1884 C 0.40133 0.35827 0.1471 0.0
H1885 H 0.38762 0.27228 0.00057 0.0
H1886 H 0.39853 0.29318 0.04143 0.0
C1887 C 0.40612 0.36816 0.17129 0.0
C1888 C 0.41335 0.36227 0.10214 0.0
H1889 H 0.36844 0.34127 0.05523 0.0
C1890 C 0.43201 0.35749 0.09083 0.0
C1891 C 0.39043 0.35695 0.08901 0.0
C1892 C 0.37041 0.36302 0.09981 0.0
C1893 C 0.42805 0.34689 0.06682 0.0
C1894 C 0.40463 0.34057 0.05409 0.0
C1895 C 0.38627 0.34593 0.06519 0.0
C1896 C 0.39869 0.32823 0.02927 0.0
C1897 C 0.44906 0.34279 0.05522 0.0
C1898 C 0.39464 0.34083 0.00907 0.0
C1899 C 0.38823 0.32889 0.98574 0.0
C1900 C 0.38566 0.30408 0.98225 0.0
C1901 C 0.38968 0.29149 0.00258 0.0
C1902 C 0.39604 0.30345 0.02591 0.0
H1903 H 0.46834 0.35498 0.06437 0.0
H1904 H 0.44363 0.32197 0.05732 0.0
H1905 H 0.45112 0.34751 0.03506 0.0
H1906 H 0.39646 0.35992 0.01139 0.0
H1907 H 0.38517 0.33907 0.97049 0.0
H1908 H 0.04444 0.39796 0.67224 0.0
H1909 H 0.04178 0.38167 0.62983 0.0
H1910 H 0.97011 0.38315 0.61803 0.0
H1911 H 0.97265 0.39962 0.66007 0.0
H1912 H 0.00093 0.33512 0.61085 0.0
H1913 H 0.01314 0.42004 0.55635 0.0
H1914 H 0.02216 0.42252 0.58877 0.0
H1915 H 0.9886 0.41071 0.58002 0.0
C1916 C 0.02821 0.39499 0.66054 0.0
C1917 C 0.00865 0.39994 0.66953 0.0
C1918 C 0.02679 0.38577 0.63635 0.0
C1919 C 0.00599 0.38163 0.6208 0.0
C1920 C 0.98664 0.38681 0.62962 0.0
H1921 H 0.92185 0.30487 0.49313 0.0
H1922 H 0.94035 0.32701 0.53254 0.0
C1923 C 0.98802 0.39602 0.65372 0.0
C1924 C 0.00315 0.37007 0.59592 0.0
H1925 H 0.99136 0.37817 0.53547 0.0
C1926 C 0.99942 0.34469 0.59422 0.0
C1927 C 0.00137 0.38278 0.57435 0.0
C1928 C 0.00681 0.41063 0.57489 0.0
C1929 C 0.9921 0.33094 0.57167 0.0
C1930 C 0.98863 0.34306 0.55054 0.0
C1931 C 0.99382 0.36895 0.55191 0.0
C1932 C 0.9775 0.32855 0.52735 0.0
C1933 C 0.9867 0.30311 0.57081 0.0
C1934 C 0.99234 0.32198 0.51171 0.0
C1935 C 0.98187 0.30936 0.48916 0.0
C1936 C 0.95644 0.30323 0.482 0.0
C1937 C 0.94148 0.30935 0.49809 0.0
C1938 C 0.95201 0.32204 0.52054 0.0
H1939 H 0.98804 0.29577 0.58947 0.0
H1940 H 0.96686 0.29005 0.56307 0.0
H1941 H 0.00108 0.30194 0.55832 0.0
H1942 H 0.01212 0.32702 0.51675 0.0
H1943 H 0.99383 0.30474 0.47721 0.0
H1944 H 0.66916 0.64094 0.68637 0.0
H1945 H 0.68834 0.65546 0.64516 0.0
H1946 H 0.61364 0.60318 0.61141 0.0
H1947 H 0.59451 0.58784 0.65264 0.0
H1948 H 0.65124 0.59948 0.58922 0.0
H1949 H 0.68208 0.70435 0.59771 0.0
H1950 H 0.69557 0.69413 0.62223 0.0
H1951 H 0.6606 0.68029 0.61997 0.0
C1952 C 0.6568 0.63259 0.67017 0.0
C1953 C 0.63036 0.61323 0.67268 0.0
C1954 C 0.66772 0.64112 0.64664 0.0
C1955 C 0.65226 0.63088 0.62525 0.0
C1956 C 0.62586 0.61148 0.62771 0.0
H1957 H 0.7099 0.69249 0.47614 0.0
H1958 H 0.68699 0.68262 0.5162 0.0
C1959 C 0.615 0.60266 0.65123 0.0
C1960 C 0.66411 0.6392 0.60029 0.0
H1961 H 0.70225 0.69294 0.5647 0.0
C1962 C 0.66212 0.6199 0.58376 0.0
C1963 C 0.67787 0.66581 0.59298 0.0
C1964 C 0.67891 0.68728 0.60907 0.0
C1965 C 0.67437 0.62652 0.56049 0.0
C1966 C 0.68977 0.65323 0.55396 0.0
C1967 C 0.69086 0.67251 0.57 0.0
C1968 C 0.70525 0.66138 0.53077 0.0
C1969 C 0.67059 0.60477 0.54312 0.0
C1970 C 0.72384 0.65364 0.52622 0.0
C1971 C 0.73663 0.65894 0.50339 0.0
C1972 C 0.73144 0.67254 0.48488 0.0
C1973 C 0.71417 0.68187 0.49006 0.0
C1974 C 0.70106 0.67622 0.51287 0.0
H1975 H 0.65219 0.58629 0.54732 0.0
H1976 H 0.67003 0.61006 0.52339 0.0
H1977 H 0.68711 0.60097 0.54544 0.0
H1978 H 0.72797 0.64291 0.54014 0.0
H1979 H 0.75023 0.65194 0.50004 0.0
H1980 H 0.36273 0.98095 0.67383 0.0
H1981 H 0.34743 0.98392 0.63226 0.0
H1982 H 0.42126 0.05375 0.61784 0.0
H1983 H 0.43684 0.05088 0.65903 0.0
H1984 H 0.3427 0.02595 0.61407 0.0
H1985 H 0.41053 0.00933 0.55589 0.0
H1986 H 0.40521 0.00075 0.58846 0.0
H1987 H 0.42743 0.03395 0.57914 0.0
C1988 C 0.37579 0.99683 0.66173 0.0
C1989 C 0.40098 0.01578 0.66977 0.0
C1990 C 0.36701 0.99844 0.63801 0.0
C1991 C 0.38337 0.01884 0.62195 0.0
C1992 C 0.40857 0.03754 0.62981 0.0
H1993 H 0.38652 0.10063 0.49315 0.0
H1994 H 0.39169 0.08334 0.53266 0.0
C1995 C 0.41736 0.03597 0.65344 0.0
C1996 C 0.37378 0.02187 0.59753 0.0
H1997 H 0.39039 0.03159 0.53614 0.0
C1998 C 0.35271 0.02664 0.59691 0.0
C1999 C 0.38687 0.02262 0.57525 0.0
C2000 C 0.40859 0.01611 0.57464 0.0
C2001 C 0.34548 0.03384 0.57471 0.0
C2002 C 0.35963 0.03611 0.55278 0.0
C2003 C 0.37978 0.03002 0.55315 0.0
C2004 C 0.35525 0.0467 0.52965 0.0
C2005 C 0.32373 0.0403 0.57499 0.0
C2006 C 0.33287 0.03179 0.51515 0.0
C2007 C 0.32983 0.04157 0.4925 0.0
C2008 C 0.34921 0.06638 0.48407 0.0
C2009 C 0.37127 0.08146 0.49906 0.0
C2010 C 0.3743 0.07162 0.52159 0.0
H2011 H 0.31629 0.03988 0.59408 0.0
H2012 H 0.33069 0.06 0.56686 0.0
H2013 H 0.30723 0.02594 0.56336 0.0
H2014 H 0.31806 0.01243 0.52112 0.0
H2015 H 0.31255 0.02953 0.48143 0.0
H2016 H 0.38608 0.01801 0.81708 0.0
H2017 H 0.36859 0.00985 0.85943 0.0
H2018 H 0.38188 0.94446 0.86566 0.0
H2019 H 0.39986 0.95272 0.82367 0.0
H2020 H 0.32564 0.96535 0.87632 0.0
H2021 H 0.41404 0.98447 0.9295 0.0
H2022 H 0.4155 0.99444 0.89752 0.0
H2023 H 0.40634 0.96118 0.90488 0.0
C2024 C 0.38551 0.00205 0.82756 0.0
C2025 C 0.39431 0.98598 0.81704 0.0
C2026 C 0.37553 0.99744 0.85171 0.0
C2027 C 0.37429 0.97678 0.86569 0.0
C2028 C 0.38324 0.96086 0.85533 0.0
H2029 H 0.27265 0.89704 0.99021 0.0
H2030 H 0.29383 0.90978 0.94946 0.0
C2031 C 0.39335 0.96553 0.83127 0.0
C2032 C 0.36223 0.97087 0.89059 0.0
H2033 H 0.37321 0.96202 0.9511 0.0
C2034 C 0.33607 0.96483 0.89274 0.0
C2035 C 0.37604 0.97049 0.91193 0.0
C2036 C 0.40461 0.97825 0.91094 0.0
C2037 C 0.3231 0.95782 0.91567 0.0
C2038 C 0.33655 0.95628 0.93678 0.0
C2039 C 0.36289 0.9629 0.93475 0.0
C2040 C 0.32383 0.94833 0.96132 0.0
C2041 C 0.29526 0.95244 0.91713 0.0
C2042 C 0.3342 0.96552 0.98152 0.0
C2043 C 0.32241 0.9582 0.00481 0.0
C2044 C 0.30003 0.93353 0.0083 0.0
C2045 C 0.2898 0.91621 0.98806 0.0
C2046 C 0.30175 0.92352 0.96476 0.0
H2047 H 0.29038 0.96127 0.90122 0.0
H2048 H 0.28166 0.931 0.91663 0.0
H2049 H 0.29181 0.96017 0.93471 0.0
H2050 H 0.3513 0.98472 0.97919 0.0
H2051 H 0.33069 0.97204 0.02001 0.0
H2052 H 0.12171 0.37124 0.98867 0.0
H2053 H 0.11103 0.37998 0.94701 0.0
H2054 H 0.06044 0.4055 0.97924 0.0
H2055 H 0.07035 0.39615 0.0207 0.0
H2056 H 0.03688 0.37095 0.94204 0.0
H2057 H 0.13543 0.44944 0.91254 0.0
H2058 H 0.13445 0.4198 0.92205 0.0
H2059 H 0.12789 0.43852 0.94437 0.0
C2060 C 0.10855 0.37899 0.98681 0.0
C2061 C 0.09685 0.38303 0.00784 0.0
C2062 C 0.10256 0.38406 0.96308 0.0
C2063 C 0.0852 0.39365 0.96016 0.0
C2064 C 0.07388 0.39809 0.98117 0.0
H2065 H 0.06007 0.46121 0.82849 0.0
H2066 H 0.07055 0.45238 0.87004 0.0
C2067 C 0.07958 0.39275 0.00481 0.0
C2068 C 0.07775 0.39802 0.93524 0.0
H2069 H 0.10212 0.43278 0.88174 0.0
C2070 C 0.05111 0.38452 0.92884 0.0
C2071 C 0.0964 0.41593 0.91828 0.0
C2072 C 0.12511 0.43195 0.92469 0.0
C2073 C 0.04252 0.38849 0.90586 0.0
C2074 C 0.06123 0.40587 0.88864 0.0
C2075 C 0.08788 0.41936 0.89501 0.0
C2076 C 0.05361 0.41074 0.86401 0.0
C2077 C 0.0135 0.37455 0.90052 0.0
C2078 C 0.0405 0.39017 0.84702 0.0
C2079 C 0.0342 0.39509 0.8234 0.0
C2080 C 0.04141 0.42075 0.81631 0.0
C2081 C 0.0544 0.44127 0.83343 0.0
C2082 C 0.06041 0.43628 0.85712 0.0
H2083 H 0.00176 0.36807 0.91791 0.0
H2084 H 0.00801 0.38731 0.89002 0.0
H2085 H 0.00818 0.3569 0.88912 0.0
H2086 H 0.03561 0.37042 0.85185 0.0
H2087 H 0.02437 0.37893 0.81051 0.0
H2088 H 0.55473 0.61138 0.82611 0.0
H2089 H 0.56178 0.63108 0.86748 0.0
H2090 H 0.64437 0.67853 0.85187 0.0
H2091 H 0.63732 0.65968 0.81022 0.0
H2092 H 0.58983 0.63054 0.90542 0.0
H2093 H 0.62824 0.73314 0.87603 0.0
H2094 H 0.6131 0.70614 0.8545 0.0
H2095 H 0.64702 0.71975 0.86299 0.0
C2096 C 0.57437 0.62611 0.83148 0.0
C2097 C 0.59545 0.63422 0.81489 0.0
C2098 C 0.57836 0.63735 0.85508 0.0
C2099 C 0.6035 0.6567 0.86252 0.0
C2100 C 0.62467 0.66428 0.84621 0.0
H2101 H 0.6603 0.70013 0.01208 0.0
H2102 H 0.64705 0.68034 0.9709 0.0
C2103 C 0.62065 0.65336 0.82249 0.0
C2104 C 0.60778 0.66832 0.88766 0.0
H2105 H 0.63599 0.72659 0.91853 0.0
C2106 C 0.59967 0.65154 0.90831 0.0
C2107 C 0.62011 0.69568 0.89138 0.0
C2108 C 0.62734 0.71468 0.87003 0.0
C2109 C 0.60436 0.66142 0.93262 0.0
C2110 C 0.61833 0.68883 0.93631 0.0
C2111 C 0.62563 0.70558 0.91567 0.0
C2112 C 0.62607 0.7006 0.96136 0.0
C2113 C 0.59406 0.64234 0.95403 0.0
C2114 C 0.61954 0.7193 0.96928 0.0
C2115 C 0.6276 0.73109 0.99258 0.0
C2116 C 0.64214 0.72416 0.00841 0.0
C2117 C 0.64876 0.70553 0.0004 0.0
C2118 C 0.64104 0.69407 0.97696 0.0
H2119 H 0.57685 0.62346 0.94835 0.0
H2120 H 0.60954 0.63818 0.96034 0.0
H2121 H 0.5883 0.65037 0.96997 0.0
H2122 H 0.60817 0.72476 0.95743 0.0
H2123 H 0.62224 0.74541 -0.00173 0.0
H2124 H 0.7156 0.93811 0.66746 0.0
H2125 H 0.72321 0.95684 0.70924 0.0
H2126 H 0.72412 0.0254 0.68005 0.0
H2127 H 0.71617 0.00676 0.63823 0.0
H2128 H 0.76511 0.00405 0.72629 0.0
H2129 H 0.67011 0.00155 0.73658 0.0
H2130 H 0.6759 0.98352 0.71267 0.0
H2131 H 0.68804 0.01798 0.70904 0.0
C2132 C 0.71741 0.95718 0.6699 0.0
C2133 C 0.71523 0.97094 0.64953 0.0
C2134 C 0.72174 0.96781 0.69376 0.0
C2135 C 0.72383 0.99228 0.69768 0.0
C2136 C 0.72204 0.00624 0.6774 0.0
H2137 H 0.78802 0.09424 0.82488 0.0
H2138 H 0.77946 0.07352 0.78398 0.0
C2139 C 0.71766 0.99562 0.65352 0.0
C2140 C 0.72837 0.00341 0.72295 0.0
H2141 H 0.70234 0.02489 0.7675 0.0
C2142 C 0.75137 0.00853 0.73539 0.0
C2143 C 0.71018 0.00885 0.73478 0.0
C2144 C 0.68454 0.00248 0.72271 0.0
C2145 C 0.75695 0.01948 0.75928 0.0
C2146 C 0.73922 0.02581 0.77073 0.0
C2147 C 0.71597 0.0202 0.7585 0.0
C2148 C 0.74442 0.03826 0.79545 0.0
C2149 C 0.78159 0.02389 0.77216 0.0
C2150 C 0.72716 0.0255 0.81519 0.0
C2151 C 0.73187 0.03733 0.83855 0.0
C2152 C 0.75391 0.06216 0.84248 0.0
C2153 C 0.77101 0.07499 0.82252 0.0
C2154 C 0.76623 0.06316 0.79918 0.0
H2155 H 0.78933 0.01187 0.76381 0.0
H2156 H 0.79687 0.04478 0.77033 0.0
H2157 H 0.77803 0.0192 0.79229 0.0
H2158 H 0.71012 0.00632 0.81256 0.0
H2159 H 0.71826 0.02697 0.8535 0.0
H2160 H 0.0973 0.79073 0.66608 0.0
H2161 H 0.07931 0.78121 0.70832 0.0
H2162 H 0.01044 0.71233 0.68146 0.0
H2163 H 0.0282 0.72137 0.63942 0.0
H2164 H 0.03123 0.77587 0.7249 0.0
H2165 H 0.03584 0.68512 0.73937 0.0
H2166 H 0.05375 0.70824 0.71496 0.0
H2167 H 0.01948 0.68501 0.71116 0.0
C2168 C 0.07836 0.77352 0.66919 0.0
C2169 C 0.06419 0.75677 0.64944 0.0
C2170 C 0.06816 0.76815 0.69328 0.0
C2171 C 0.0438 0.74589 0.69791 0.0
C2172 C 0.02952 0.72932 0.67824 0.0
H2173 H 0.93535 0.7073 0.819 0.0
H2174 H 0.9589 0.72042 0.77941 0.0
C2175 C 0.03966 0.73462 0.65423 0.0
C2176 C 0.03279 0.74018 0.72319 0.0
H2177 H 0.00968 0.69312 0.76804 0.0
C2178 C 0.02673 0.75792 0.7345 0.0
C2179 C 0.02727 0.71688 0.73562 0.0
C2180 C 0.03464 0.69782 0.72478 0.0
C2181 C 0.01443 0.75253 0.75777 0.0
C2182 C 0.00775 0.72863 0.76964 0.0
C2183 C 0.01458 0.71129 0.75867 0.0
C2184 C 0.99366 0.72114 0.79352 0.0
C2185 C 0.00878 0.77246 0.76947 0.0
C2186 C 0.00523 0.71658 0.81423 0.0
C2187 C 0.9918 0.70887 0.83674 0.0
C2188 C 0.96652 0.70555 0.83887 0.0
C2189 C 0.95487 0.7099 0.81798 0.0
C2190 C 0.96833 0.71755 0.79542 0.0
H2191 H 0.02115 0.79224 0.76134 0.0
H2192 H 0.98797 0.76659 0.76614 0.0
H2193 H 0.01209 0.77361 0.78988 0.0
H2194 H 0.02471 0.71909 0.81299 0.0
H2195 H 0.00131 0.70562 0.85247 0.0
H2196 H 0.23231 0.3104 0.67032 0.0
H2197 H 0.24311 0.30168 0.71185 0.0
H2198 H 0.3104 0.30037 0.68203 0.0
H2199 H 0.30004 0.3094 0.64054 0.0
H2200 H 0.24804 0.25906 0.72806 0.0
H2201 H 0.34088 0.35326 0.73935 0.0
H2202 H 0.31712 0.34815 0.7156 0.0
H2203 H 0.33926 0.33579 0.71142 0.0
C2204 C 0.24943 0.30829 0.67258 0.0
C2205 C 0.26536 0.31067 0.65213 0.0
C2206 C 0.25554 0.3033 0.69631 0.0
C2207 C 0.27773 0.30076 0.69998 0.0
C2208 C 0.29347 0.30278 0.6796 0.0
H2209 H 0.31502 0.23431 0.82648 0.0
H2210 H 0.30263 0.24292 0.78565 0.0
C2211 C 0.28742 0.3078 0.6559 0.0
C2212 C 0.28424 0.29564 0.72509 0.0
H2213 H 0.33184 0.32042 0.76957 0.0
C2214 C 0.2663 0.27249 0.73723 0.0
C2215 C 0.30795 0.3134 0.73702 0.0
C2216 C 0.32733 0.33917 0.72532 0.0
C2217 C 0.27166 0.26637 0.76091 0.0
C2218 C 0.29576 0.28371 0.77247 0.0
C2219 C 0.31349 0.30707 0.7605 0.0
C2220 C 0.30286 0.27821 0.79716 0.0
C2221 C 0.25135 0.24163 0.7735 0.0
C2222 C 0.30764 0.29553 0.81693 0.0
C2223 C 0.3149 0.2908 0.84019 0.0
C2224 C 0.31757 0.26866 0.84408 0.0
C2225 C 0.31291 0.25141 0.82416 0.0
C2226 C 0.30571 0.25621 0.80086 0.0
H2227 H 0.23164 0.23411 0.76513 0.0
H2228 H 0.25691 0.2263 0.77141 0.0
H2229 H 0.25016 0.24492 0.79369 0.0
H2230 H 0.30568 0.31269 0.81435 0.0
H2231 H 0.31843 0.30453 0.8551 0.0
H2232 H 0.0846 0.30993 0.16549 0.0
H2233 H 0.06161 0.2998 0.20543 0.0
H2234 H 0.0076 0.32214 0.17567 0.0
H2235 H 0.03002 0.33186 0.13569 0.0
H2236 H 0.05341 0.33279 0.23634 0.0
H2237 H 0.95926 0.24921 0.20391 0.0
H2238 H 0.989 0.26244 0.18584 0.0
H2239 H 0.96999 0.27862 0.18619 0.0
C2240 C 0.06776 0.31257 0.16744 0.0
C2241 C 0.05892 0.3214 0.1474 0.0
C2242 C 0.0547 0.3068 0.19021 0.0
C2243 C 0.0327 0.3098 0.19321 0.0
C2244 C 0.02417 0.31911 0.17344 0.0
H2245 H 0.96606 0.31658 0.33533 0.0
H2246 H 0.98505 0.32634 0.29356 0.0
C2247 C 0.03708 0.32474 0.15067 0.0
C2248 C 0.01896 0.30378 0.21724 0.0
H2249 H 0.95965 0.26519 0.24459 0.0
C2250 C 0.03294 0.31798 0.23823 0.0
C2251 C 0.99233 0.28428 0.21949 0.0
C2252 C 0.9768 0.26757 0.19772 0.0
C2253 C 0.02089 0.31329 0.26156 0.0
C2254 C 0.99406 0.29431 0.26367 0.0
C2255 C 0.98013 0.27998 0.24271 0.0
C2256 C 0.98052 0.28797 0.28781 0.0
C2257 C 0.03711 0.32822 0.28381 0.0
C2258 C 0.97068 0.26284 0.29774 0.0
C2259 C 0.95964 0.25712 0.3214 0.0
C2260 C 0.95834 0.27651 0.33553 0.0
C2261 C 0.96712 0.30135 0.32503 0.0
C2262 C 0.97806 0.307 0.30126 0.0
H2263 H 0.05844 0.33741 0.28003 0.0
H2264 H 0.03282 0.34401 0.28858 0.0
H2265 H 0.03229 0.31518 0.30022 0.0
H2266 H 0.97228 0.24788 0.28748 0.0
H2267 H 0.95285 0.23772 0.32887 0.0
H2268 H 0.79614 0.72303 0.32582 0.0
H2269 H 0.78721 0.73164 0.28351 0.0
H2270 H 0.70516 0.69717 0.30139 0.0
H2271 H 0.71377 0.68767 0.34344 0.0
H2272 H 0.71194 0.68238 0.25625 0.0
H2273 H 0.77364 0.79007 0.26555 0.0
H2274 H 0.79142 0.77316 0.27088 0.0
H2275 H 0.76544 0.76824 0.29173 0.0
C2276 C 0.77619 0.71724 0.3207 0.0
C2277 C 0.7557 0.70496 0.33801 0.0
C2278 C 0.77115 0.7223 0.29659 0.0
C2279 C 0.74564 0.71564 0.28954 0.0
C2280 C 0.72502 0.70263 0.30654 0.0
H2281 H 0.70314 0.78068 0.16631 0.0
H2282 H 0.71274 0.76883 0.20691 0.0
C2283 C 0.72998 0.69723 0.33055 0.0
C2284 C 0.74037 0.72245 0.26456 0.0
H2285 H 0.75696 0.7738 0.2253 0.0
C2286 C 0.72173 0.70237 0.24947 0.0
C2287 C 0.75288 0.74861 0.25597 0.0
C2288 C 0.77175 0.77129 0.27196 0.0
C2289 C 0.7153 0.70771 0.22591 0.0
C2290 C 0.72851 0.73374 0.21697 0.0
C2291 C 0.74708 0.75382 0.23211 0.0
C2292 C 0.72283 0.74078 0.19228 0.0
C2293 C 0.69392 0.68552 0.2112 0.0
C2294 C 0.72569 0.7292 0.17059 0.0
C2295 C 0.71991 0.7357 0.1474 0.0
C2296 C 0.71172 0.7543 0.1455 0.0
C2297 C 0.70952 0.76635 0.16719 0.0
C2298 C 0.71496 0.75959 0.19038 0.0
H2299 H 0.68087 0.66882 0.22338 0.0
H2300 H 0.6818 0.69203 0.20099 0.0
H2301 H 0.70291 0.67833 0.19745 0.0
H2302 H 0.73244 0.71519 0.17158 0.0
H2303 H 0.72202 0.72627 0.13096 0.0
H2304 H 0.34622 0.04865 0.33817 0.0
H2305 H 0.33616 0.02912 0.29664 0.0
H2306 H 0.27249 0.0451 0.2903 0.0
H2307 H 0.28261 0.06505 0.33151 0.0
H2308 H 0.28948 0.98627 0.28127 0.0
H2309 H 0.31276 0.07452 0.2256 0.0
H2310 H 0.32316 0.07636 0.25748 0.0
H2311 H 0.29011 0.06829 0.25053 0.0
C2312 C 0.33022 0.04822 0.32785 0.0
C2313 C 0.3152 0.05838 0.33812 0.0
C2314 C 0.3245 0.03704 0.30418 0.0
C2315 C 0.30377 0.03594 0.29041 0.0
C2316 C 0.28888 0.04623 0.30049 0.0
H2317 H 0.22729 0.93467 0.16311 0.0
H2318 H 0.23709 0.95508 0.20436 0.0
C2319 C 0.29464 0.05751 0.32409 0.0
C2320 C 0.29707 0.02311 0.26586 0.0
H2321 H 0.29083 0.03367 0.20457 0.0
C2322 C 0.28985 0.9966 0.26445 0.0
C2323 C 0.29778 0.0368 0.24405 0.0
C2324 C 0.3066 0.06562 0.24436 0.0
C2325 C 0.28313 0.98327 0.24168 0.0
C2326 C 0.28321 0.99679 0.21996 0.0
C2327 C 0.29055 0.02334 0.22137 0.0
C2328 C 0.27701 0.98418 0.19531 0.0
C2329 C 0.27661 0.95507 0.24097 0.0
C2330 C 0.29606 0.99417 0.17658 0.0
C2331 C 0.29048 0.98282 0.15306 0.0
C2332 C 0.26569 0.96125 0.14782 0.0
C2333 C 0.24658 0.95122 0.16663 0.0
C2334 C 0.25218 0.96274 0.1902 0.0
H2335 H 0.28347 0.94956 0.25796 0.0
H2336 H 0.25506 0.94223 0.23973 0.0
H2337 H 0.28554 0.95126 0.22445 0.0
H2338 H 0.31533 0.01073 0.18022 0.0
H2339 H 0.30569 0.99094 0.13903 0.0
loop_
_geom_bond_atom_site_label_1
_geom_bond_atom_site_label_2
_geom_bond_distance
_geom_bond_site_symmetry_2
_ccdc_geom_bond_type
Fe0 O2 1.918 . S
Fe0 O5 1.997 . S
Fe0 O6 2.002 . S
Fe0 O11 1.976 . S
Fe0 O14 1.996 . S
Fe1 O2 1.918 . S
Fe1 O9 1.997 . S
Fe1 O12 1.996 . S
Fe1 O16 1.976 1_455 S
Fe1 O19 2.002 1_455 S
O2 Fe0 1.918 . S
O2 Fe1 1.918 . S
O2 Fe3 1.918 1_455 S
Fe3 O2 1.918 1_655 S
Fe3 O4 2.002 . S
Fe3 O13 1.976 1_655 S
Fe3 O17 1.996 . S
Fe3 O20 1.997 . S
O4 Fe3 2.002 . S
O4 C21 1.295 . S
O5 Fe0 1.997 . S
O5 C21 1.235 1_455 S
O6 Fe0 2.002 . S
O6 C7 1.295 . S
C7 O6 1.295 . S
C7 O9 1.235 . S
C8 O13 1.287 . S
C8 O14 1.255 . S
O9 Fe1 1.997 . S
O9 C7 1.235 . S
C10 O16 1.287 . S
C10 O17 1.255 . S
O11 Fe0 1.976 . S
O11 C18 1.287 . S
O12 Fe1 1.996 . S
O12 C18 1.255 . S
O13 Fe3 1.976 1_455 S
O13 C8 1.287 . S
O14 Fe0 1.996 . S
O14 C8 1.255 . S
C15 O19 1.295 . S
C15 O20 1.235 . S
O16 Fe1 1.976 1_655 S
O16 C10 1.287 . S
O17 Fe3 1.996 . S
O17 C10 1.255 . S
C18 O11 1.287 . S
C18 O12 1.255 . S
O19 Fe1 2.002 1_655 S
O19 C15 1.295 . S
O20 Fe3 1.997 . S
O20 C15 1.235 . S
C21 O4 1.295 . S
C21 O5 1.235 1_655 S
Fe22 O24 1.918 . S
Fe22 O27 1.997 . S
Fe22 O28 2.002 . S
Fe22 O33 1.976 . S
Fe22 O36 1.996 . S
Fe23 O24 1.918 . S
Fe23 O31 1.997 . S
Fe23 O34 1.996 . S
Fe23 O38 1.976 . S
Fe23 O41 2.002 . S
O24 Fe22 1.918 . S
O24 Fe23 1.918 . S
O24 Fe25 1.918 . S
Fe25 O24 1.918 . S
Fe25 O26 2.002 . S
Fe25 O35 1.976 . S
Fe25 O39 1.996 . S
Fe25 O42 1.997 . S
O26 Fe25 2.002 . S
O26 C43 1.295 . S
O27 Fe22 1.997 . S
O27 C43 1.235 . S
O28 Fe22 2.002 . S
O28 C29 1.295 . S
C29 O28 1.295 . S
C29 O31 1.235 . S
C30 O35 1.287 . S
C30 O36 1.255 . S
O31 Fe23 1.997 . S
O31 C29 1.235 . S
C32 O38 1.287 . S
C32 O39 1.255 . S
O33 Fe22 1.976 . S
O33 C40 1.287 . S
O34 Fe23 1.996 . S
O34 C40 1.255 . S
O35 Fe25 1.976 . S
O35 C30 1.287 . S
O36 Fe22 1.996 . S
O36 C30 1.255 . S
C37 O41 1.295 . S
C37 O42 1.235 . S
O38 Fe23 1.976 . S
O38 C32 1.287 . S
O39 Fe25 1.996 . S
O39 C32 1.255 . S
C40 O33 1.287 . S
C40 O34 1.255 . S
O41 Fe23 2.002 . S
O41 C37 1.295 . S
O42 Fe25 1.997 . S
O42 C37 1.235 . S
C43 O26 1.295 . S
C43 O27 1.235 . S
Fe44 O46 1.918 . S
Fe44 O49 1.997 . S
Fe44 O50 2.002 . S
Fe44 O55 1.976 . S
Fe44 O58 1.996 . S
Fe45 O46 1.918 1_565 S
Fe45 O53 1.997 1_565 S
Fe45 O56 1.996 . S
Fe45 O60 1.976 . S
Fe45 O63 2.002 . S
O46 Fe44 1.918 . S
O46 Fe45 1.918 1_545 S
O46 Fe47 1.918 . S
Fe47 O46 1.918 . S
Fe47 O48 2.002 . S
Fe47 O57 1.976 . S
Fe47 O61 1.996 1_545 S
Fe47 O64 1.997 1_545 S
O48 Fe47 2.002 . S
O48 C65 1.295 . S
O49 Fe44 1.997 . S
O49 C65 1.235 . S
O50 Fe44 2.002 . S
O50 C51 1.295 . S
C51 O50 1.295 . S
C51 O53 1.235 . S
C52 O57 1.287 . S
C52 O58 1.255 . S
O53 Fe45 1.997 1_545 S
O53 C51 1.235 . S
C54 O60 1.287 . S
C54 O61 1.255 . S
O55 Fe44 1.976 . S
O55 C62 1.287 1_545 S
O56 Fe45 1.996 . S
O56 C62 1.255 . S
O57 Fe47 1.976 . S
O57 C52 1.287 . S
O58 Fe44 1.996 . S
O58 C52 1.255 . S
C59 O63 1.295 . S
C59 O64 1.235 . S
O60 Fe45 1.976 . S
O60 C54 1.287 . S
O61 Fe47 1.996 1_565 S
O61 C54 1.255 . S
C62 O55 1.287 1_565 S
C62 O56 1.255 . S
O63 Fe45 2.002 . S
O63 C59 1.295 . S
O64 Fe47 1.997 1_565 S
O64 C59 1.235 . S
C65 O48 1.295 . S
C65 O49 1.235 . S
Fe66 O68 1.918 . S
Fe66 O71 1.997 . S
Fe66 O72 2.002 . S
Fe66 O77 1.976 . S
Fe66 O80 1.996 . S
Fe67 O68 1.918 1_655 S
Fe67 O75 1.997 1_655 S
Fe67 O78 1.996 . S
Fe67 O82 1.976 . S
Fe67 O85 2.002 . S
O68 Fe66 1.918 . S
O68 Fe67 1.918 1_455 S
O68 Fe69 1.918 . S
Fe69 O68 1.918 . S
Fe69 O70 2.002 . S
Fe69 O79 1.976 . S
Fe69 O83 1.996 1_455 S
Fe69 O86 1.997 1_455 S
O70 Fe69 2.002 . S
O70 C87 1.295 . S
O71 Fe66 1.997 . S
O71 C87 1.235 . S
O72 Fe66 2.002 . S
O72 C73 1.295 . S
C73 O72 1.295 . S
C73 O75 1.235 . S
C74 O79 1.287 . S
C74 O80 1.255 . S
O75 Fe67 1.997 1_455 S
O75 C73 1.235 . S
C76 O82 1.287 . S
C76 O83 1.255 . S
O77 Fe66 1.976 . S
O77 C84 1.287 1_455 S
O78 Fe67 1.996 . S
O78 C84 1.255 . S
O79 Fe69 1.976 . S
O79 C74 1.287 . S
O80 Fe66 1.996 . S
O80 C74 1.255 . S
C81 O85 1.295 . S
C81 O86 1.235 . S
O82 Fe67 1.976 . S
O82 C76 1.287 . S
O83 Fe69 1.996 1_655 S
O83 C76 1.255 . S
C84 O77 1.287 1_655 S
C84 O78 1.255 . S
O85 Fe67 2.002 . S
O85 C81 1.295 . S
O86 Fe69 1.997 1_655 S
O86 C81 1.235 . S
C87 O70 1.295 . S
C87 O71 1.235 . S
Fe88 O90 1.918 . S
Fe88 O93 1.997 . S
Fe88 O94 2.002 . S
Fe88 O99 1.976 . S
Fe88 O102 1.996 . S
Fe89 O90 1.918 . S
Fe89 O97 1.997 . S
Fe89 O100 1.996 . S
Fe89 O104 1.976 . S
Fe89 O107 2.002 . S
O90 Fe88 1.918 . S
O90 Fe89 1.918 . S
O90 Fe91 1.918 . S
Fe91 O90 1.918 . S
Fe91 O92 2.002 . S
Fe91 O101 1.976 . S
Fe91 O105 1.996 . S
Fe91 O108 1.997 . S
O92 Fe91 2.002 . S
O92 C109 1.295 . S
O93 Fe88 1.997 . S
O93 C109 1.235 . S
O94 Fe88 2.002 . S
O94 C95 1.295 . S
C95 O94 1.295 . S
C95 O97 1.235 . S
C96 O101 1.287 . S
C96 O102 1.255 . S
O97 Fe89 1.997 . S
O97 C95 1.235 . S
C98 O104 1.287 . S
C98 O105 1.255 . S
O99 Fe88 1.976 . S
O99 C106 1.287 . S
O100 Fe89 1.996 . S
O100 C106 1.255 . S
O101 Fe91 1.976 . S
O101 C96 1.287 . S
O102 Fe88 1.996 . S
O102 C96 1.255 . S
C103 O107 1.295 . S
C103 O108 1.235 . S
O104 Fe89 1.976 . S
O104 C98 1.287 . S
O105 Fe91 1.996 . S
O105 C98 1.255 . S
C106 O99 1.287 . S
C106 O100 1.255 . S
O107 Fe89 2.002 . S
O107 C103 1.295 . S
O108 Fe91 1.997 . S
O108 C103 1.235 . S
C109 O92 1.295 . S
C109 O93 1.235 . S
Fe110 O112 1.918 . S
Fe110 O115 1.997 . S
Fe110 O116 2.002 . S
Fe110 O121 1.976 . S
Fe110 O124 1.996 . S
Fe111 O112 1.918 . S
Fe111 O119 1.997 . S
Fe111 O122 1.996 . S
Fe111 O126 1.976 1_545 S
Fe111 O129 2.002 1_545 S
O112 Fe110 1.918 . S
O112 Fe111 1.918 . S
O112 Fe113 1.918 1_545 S
Fe113 O112 1.918 1_565 S
Fe113 O114 2.002 . S
Fe113 O123 1.976 1_565 S
Fe113 O127 1.996 . S
Fe113 O130 1.997 . S
O114 Fe113 2.002 . S
O114 C131 1.295 . S
O115 Fe110 1.997 . S
O115 C131 1.235 1_545 S
O116 Fe110 2.002 . S
O116 C117 1.295 . S
C117 O116 1.295 . S
C117 O119 1.235 . S
C118 O123 1.287 . S
C118 O124 1.255 . S
O119 Fe111 1.997 . S
O119 C117 1.235 . S
C120 O126 1.287 . S
C120 O127 1.255 . S
O121 Fe110 1.976 . S
O121 C128 1.287 . S
O122 Fe111 1.996 . S
O122 C128 1.255 . S
O123 Fe113 1.976 1_545 S
O123 C118 1.287 . S
O124 Fe110 1.996 . S
O124 C118 1.255 . S
C125 O129 1.295 . S
C125 O130 1.235 . S
O126 Fe111 1.976 1_565 S
O126 C120 1.287 . S
O127 Fe113 1.996 . S
O127 C120 1.255 . S
C128 O121 1.287 . S
C128 O122 1.255 . S
O129 Fe111 2.002 1_565 S
O129 C125 1.295 . S
O130 Fe113 1.997 . S
O130 C125 1.235 . S
C131 O114 1.295 . S
C131 O115 1.235 1_565 S
Fe132 O134 1.918 . S
Fe132 O137 1.997 . S
Fe132 O138 2.002 . S
Fe132 O143 1.976 . S
Fe132 O146 1.996 . S
Fe133 O134 1.918 . S
Fe133 O141 1.997 . S
Fe133 O144 1.996 . S
Fe133 O148 1.976 . S
Fe133 O151 2.002 . S
O134 Fe132 1.918 . S
O134 Fe133 1.918 . S
O134 Fe135 1.918 . S
Fe135 O134 1.918 . S
Fe135 O136 2.002 . S
Fe135 O145 1.976 . S
Fe135 O149 1.996 . S
Fe135 O152 1.997 . S
O136 Fe135 2.002 . S
O136 C153 1.295 . S
O137 Fe132 1.997 . S
O137 C153 1.235 . S
O138 Fe132 2.002 . S
O138 C139 1.295 . S
C139 O138 1.295 . S
C139 O141 1.235 . S
C140 O145 1.287 . S
C140 O146 1.255 . S
O141 Fe133 1.997 . S
O141 C139 1.235 . S
C142 O148 1.287 . S
C142 O149 1.255 . S
O143 Fe132 1.976 . S
O143 C150 1.287 . S
O144 Fe133 1.996 . S
O144 C150 1.255 . S
O145 Fe135 1.976 . S
O145 C140 1.287 . S
O146 Fe132 1.996 . S
O146 C140 1.255 . S
C147 O151 1.295 . S
C147 O152 1.235 . S
O148 Fe133 1.976 . S
O148 C142 1.287 . S
O149 Fe135 1.996 . S
O149 C142 1.255 . S
C150 O143 1.287 . S
C150 O144 1.255 . S
O151 Fe133 2.002 . S
O151 C147 1.295 . S
O152 Fe135 1.997 . S
O152 C147 1.235 . S
C153 O136 1.295 . S
C153 O137 1.235 . S
Fe154 O156 1.918 . S
Fe154 O159 1.997 . S
Fe154 O160 2.002 . S
Fe154 O165 1.976 . S
Fe154 O168 1.996 . S
Fe155 O156 1.918 . S
Fe155 O163 1.997 . S
Fe155 O166 1.996 . S
Fe155 O170 1.976 . S
Fe155 O173 2.002 . S
O156 Fe154 1.918 . S
O156 Fe155 1.918 . S
O156 Fe157 1.918 . S
Fe157 O156 1.918 . S
Fe157 O158 2.002 . S
Fe157 O167 1.976 . S
Fe157 O171 1.996 . S
Fe157 O174 1.997 . S
O158 Fe157 2.002 . S
O158 C175 1.295 . S
O159 Fe154 1.997 . S
O159 C175 1.235 . S
O160 Fe154 2.002 . S
O160 C161 1.295 . S
C161 O160 1.295 . S
C161 O163 1.235 . S
C162 O167 1.287 . S
C162 O168 1.255 . S
O163 Fe155 1.997 . S
O163 C161 1.235 . S
C164 O170 1.287 . S
C164 O171 1.255 . S
O165 Fe154 1.976 . S
O165 C172 1.287 . S
O166 Fe155 1.996 . S
O166 C172 1.255 . S
O167 Fe157 1.976 . S
O167 C162 1.287 . S
O168 Fe154 1.996 . S
O168 C162 1.255 . S
C169 O173 1.295 . S
C169 O174 1.235 . S
O170 Fe155 1.976 . S
O170 C164 1.287 . S
O171 Fe157 1.996 . S
O171 C164 1.255 . S
C172 O165 1.287 . S
C172 O166 1.255 . S
O173 Fe155 2.002 . S
O173 C169 1.295 . S
O174 Fe157 1.997 . S
O174 C169 1.235 . S
C175 O158 1.295 . S
C175 O159 1.235 . S
Fe176 O178 1.918 . S
Fe176 O181 1.997 . S
Fe176 O182 2.002 . S
Fe176 O187 1.976 . S
Fe176 O190 1.996 . S
Fe177 O178 1.918 . S
Fe177 O185 1.997 . S
Fe177 O188 1.996 . S
Fe177 O192 1.976 . S
Fe177 O195 2.002 . S
O178 Fe176 1.918 . S
O178 Fe177 1.918 . S
O178 Fe179 1.918 . S
Fe179 O178 1.918 . S
Fe179 O180 2.002 . S
Fe179 O189 1.976 . S
Fe179 O193 1.996 . S
Fe179 O196 1.997 . S
O180 Fe179 2.002 . S
O180 C197 1.295 . S
O181 Fe176 1.997 . S
O181 C197 1.235 . S
O182 Fe176 2.002 . S
O182 C183 1.295 . S
C183 O182 1.295 . S
C183 O185 1.235 . S
C184 O189 1.287 . S
C184 O190 1.255 . S
O185 Fe177 1.997 . S
O185 C183 1.235 . S
C186 O192 1.287 . S
C186 O193 1.255 . S
O187 Fe176 1.976 . S
O187 C194 1.287 . S
O188 Fe177 1.996 . S
O188 C194 1.255 . S
O189 Fe179 1.976 . S
O189 C184 1.287 . S
O190 Fe176 1.996 . S
O190 C184 1.255 . S
C191 O195 1.295 . S
C191 O196 1.235 . S
O192 Fe177 1.976 . S
O192 C186 1.287 . S
O193 Fe179 1.996 . S
O193 C186 1.255 . S
C194 O187 1.287 . S
C194 O188 1.255 . S
O195 Fe177 2.002 . S
O195 C191 1.295 . S
O196 Fe179 1.997 . S
O196 C191 1.235 . S
C197 O180 1.295 . S
C197 O181 1.235 . S
Fe198 O200 1.918 . S
Fe198 O203 1.997 . S
Fe198 O204 2.002 . S
Fe198 O209 1.976 . S
Fe198 O212 1.996 . S
Fe199 O200 1.918 . S
Fe199 O207 1.997 . S
Fe199 O210 1.996 . S
Fe199 O214 1.976 . S
Fe199 O217 2.002 . S
O200 Fe198 1.918 . S
O200 Fe199 1.918 . S
O200 Fe201 1.918 . S
Fe201 O200 1.918 . S
Fe201 O202 2.002 . S
Fe201 O211 1.976 . S
Fe201 O215 1.996 . S
Fe201 O218 1.997 . S
O202 Fe201 2.002 . S
O202 C219 1.295 . S
O203 Fe198 1.997 . S
O203 C219 1.235 . S
O204 Fe198 2.002 . S
O204 C205 1.295 . S
C205 O204 1.295 . S
C205 O207 1.235 . S
C206 O211 1.287 . S
C206 O212 1.255 . S
O207 Fe199 1.997 . S
O207 C205 1.235 . S
C208 O214 1.287 . S
C208 O215 1.255 . S
O209 Fe198 1.976 . S
O209 C216 1.287 . S
O210 Fe199 1.996 . S
O210 C216 1.255 . S
O211 Fe201 1.976 . S
O211 C206 1.287 . S
O212 Fe198 1.996 . S
O212 C206 1.255 . S
C213 O217 1.295 . S
C213 O218 1.235 . S
O214 Fe199 1.976 . S
O214 C208 1.287 . S
O215 Fe201 1.996 . S
O215 C208 1.255 . S
C216 O209 1.287 . S
C216 O210 1.255 . S
O217 Fe199 2.002 . S
O217 C213 1.295 . S
O218 Fe201 1.997 . S
O218 C213 1.235 . S
C219 O202 1.295 . S
C219 O203 1.235 . S
Fe220 O222 1.918 . S
Fe220 O225 1.997 . S
Fe220 O226 2.002 . S
Fe220 O231 1.976 . S
Fe220 O234 1.996 . S
Fe221 O222 1.918 . S
Fe221 O229 1.997 . S
Fe221 O232 1.996 . S
Fe221 O236 1.976 . S
Fe221 O239 2.002 . S
O222 Fe220 1.918 . S
O222 Fe221 1.918 . S
O222 Fe223 1.918 . S
Fe223 O222 1.918 . S
Fe223 O224 2.002 . S
Fe223 O233 1.976 . S
Fe223 O237 1.996 . S
Fe223 O240 1.997 . S
O224 Fe223 2.002 . S
O224 C241 1.295 . S
O225 Fe220 1.997 . S
O225 C241 1.235 . S
O226 Fe220 2.002 . S
O226 C227 1.295 . S
C227 O226 1.295 . S
C227 O229 1.235 . S
C228 O233 1.287 . S
C228 O234 1.255 . S
O229 Fe221 1.997 . S
O229 C227 1.235 . S
C230 O236 1.287 . S
C230 O237 1.255 . S
O231 Fe220 1.976 . S
O231 C238 1.287 . S
O232 Fe221 1.996 . S
O232 C238 1.255 . S
O233 Fe223 1.976 . S
O233 C228 1.287 . S
O234 Fe220 1.996 . S
O234 C228 1.255 . S
C235 O239 1.295 . S
C235 O240 1.235 . S
O236 Fe221 1.976 . S
O236 C230 1.287 . S
O237 Fe223 1.996 . S
O237 C230 1.255 . S
C238 O231 1.287 . S
C238 O232 1.255 . S
O239 Fe221 2.002 . S
O239 C235 1.295 . S
O240 Fe223 1.997 . S
O240 C235 1.235 . S
C241 O224 1.295 . S
C241 O225 1.235 . S
Fe242 O244 1.918 . S
Fe242 O247 1.997 . S
Fe242 O248 2.002 . S
Fe242 O253 1.976 . S
Fe242 O256 1.996 . S
Fe243 O244 1.918 . S
Fe243 O251 1.997 . S
Fe243 O254 1.996 . S
Fe243 O258 1.976 . S
Fe243 O261 2.002 . S
O244 Fe242 1.918 . S
O244 Fe243 1.918 . S
O244 Fe245 1.918 . S
Fe245 O244 1.918 . S
Fe245 O246 2.002 . S
Fe245 O255 1.976 . S
Fe245 O259 1.996 . S
Fe245 O262 1.997 . S
O246 Fe245 2.002 . S
O246 C263 1.295 . S
O247 Fe242 1.997 . S
O247 C263 1.235 . S
O248 Fe242 2.002 . S
O248 C249 1.295 . S
C249 O248 1.295 . S
C249 O251 1.235 . S
C250 O255 1.287 . S
C250 O256 1.255 . S
O251 Fe243 1.997 . S
O251 C249 1.235 . S
C252 O258 1.287 . S
C252 O259 1.255 . S
O253 Fe242 1.976 . S
O253 C260 1.287 . S
O254 Fe243 1.996 . S
O254 C260 1.255 . S
O255 Fe245 1.976 . S
O255 C250 1.287 . S
O256 Fe242 1.996 . S
O256 C250 1.255 . S
C257 O261 1.295 . S
C257 O262 1.235 . S
O258 Fe243 1.976 . S
O258 C252 1.287 . S
O259 Fe245 1.996 . S
O259 C252 1.255 . S
C260 O253 1.287 . S
C260 O254 1.255 . S
O261 Fe243 2.002 . S
O261 C257 1.295 . S
O262 Fe245 1.997 . S
O262 C257 1.235 . S
C263 O246 1.295 . S
C263 O247 1.235 . S
Fe264 O266 1.918 . S
Fe264 O269 1.997 . S
Fe264 O270 2.002 . S
Fe264 O275 1.976 . S
Fe264 O278 1.996 . S
Fe265 O266 1.918 . S
Fe265 O273 1.997 . S
Fe265 O276 1.996 . S
Fe265 O280 1.976 . S
Fe265 O283 2.002 . S
O266 Fe264 1.918 . S
O266 Fe265 1.918 . S
O266 Fe267 1.918 . S
Fe267 O266 1.918 . S
Fe267 O268 2.002 . S
Fe267 O277 1.976 . S
Fe267 O281 1.996 . S
Fe267 O284 1.997 . S
O268 Fe267 2.002 . S
O268 C285 1.295 . S
O269 Fe264 1.997 . S
O269 C285 1.235 . S
O270 Fe264 2.002 . S
O270 C271 1.295 . S
C271 O270 1.295 . S
C271 O273 1.235 . S
C272 O277 1.287 . S
C272 O278 1.255 . S
O273 Fe265 1.997 . S
O273 C271 1.235 . S
C274 O280 1.287 . S
C274 O281 1.255 . S
O275 Fe264 1.976 . S
O275 C282 1.287 . S
O276 Fe265 1.996 . S
O276 C282 1.255 . S
O277 Fe267 1.976 . S
O277 C272 1.287 . S
O278 Fe264 1.996 . S
O278 C272 1.255 . S
C279 O283 1.295 . S
C279 O284 1.235 . S
O280 Fe265 1.976 . S
O280 C274 1.287 . S
O281 Fe267 1.996 . S
O281 C274 1.255 . S
C282 O275 1.287 . S
C282 O276 1.255 . S
O283 Fe265 2.002 . S
O283 C279 1.295 . S
O284 Fe267 1.997 . S
O284 C279 1.235 . S
C285 O268 1.295 . S
C285 O269 1.235 . S
Fe286 O288 1.918 . S
Fe286 O291 1.997 . S
Fe286 O292 2.002 . S
Fe286 O297 1.976 . S
Fe286 O300 1.996 . S
Fe287 O288 1.918 . S
Fe287 O295 1.997 . S
Fe287 O298 1.996 . S
Fe287 O302 1.976 . S
Fe287 O305 2.002 . S
O288 Fe286 1.918 . S
O288 Fe287 1.918 . S
O288 Fe289 1.918 . S
Fe289 O288 1.918 . S
Fe289 O290 2.002 . S
Fe289 O299 1.976 . S
Fe289 O303 1.996 . S
Fe289 O306 1.997 . S
O290 Fe289 2.002 . S
O290 C307 1.295 . S
O291 Fe286 1.997 . S
O291 C307 1.235 . S
O292 Fe286 2.002 . S
O292 C293 1.295 . S
C293 O292 1.295 . S
C293 O295 1.235 . S
C294 O299 1.287 . S
C294 O300 1.255 . S
O295 Fe287 1.997 . S
O295 C293 1.235 . S
C296 O302 1.287 . S
C296 O303 1.255 . S
O297 Fe286 1.976 . S
O297 C304 1.287 . S
O298 Fe287 1.996 . S
O298 C304 1.255 . S
O299 Fe289 1.976 . S
O299 C294 1.287 . S
O300 Fe286 1.996 . S
O300 C294 1.255 . S
C301 O305 1.295 . S
C301 O306 1.235 . S
O302 Fe287 1.976 . S
O302 C296 1.287 . S
O303 Fe289 1.996 . S
O303 C296 1.255 . S
C304 O297 1.287 . S
C304 O298 1.255 . S
O305 Fe287 2.002 . S
O305 C301 1.295 . S
O306 Fe289 1.997 . S
O306 C301 1.235 . S
C307 O290 1.295 . S
C307 O291 1.235 . S
Fe308 O310 1.918 . S
Fe308 O313 1.997 . S
Fe308 O314 2.002 . S
Fe308 O319 1.976 . S
Fe308 O322 1.996 . S
Fe309 O310 1.918 . S
Fe309 O317 1.997 . S
Fe309 O320 1.996 . S
Fe309 O324 1.976 . S
Fe309 O327 2.002 . S
O310 Fe308 1.918 . S
O310 Fe309 1.918 . S
O310 Fe311 1.918 . S
Fe311 O310 1.918 . S
Fe311 O312 2.002 . S
Fe311 O321 1.976 . S
Fe311 O325 1.996 . S
Fe311 O328 1.997 . S
O312 Fe311 2.002 . S
O312 C329 1.295 . S
O313 Fe308 1.997 . S
O313 C329 1.235 . S
O314 Fe308 2.002 . S
O314 C315 1.295 . S
C315 O314 1.295 . S
C315 O317 1.235 . S
C316 O321 1.287 . S
C316 O322 1.255 . S
O317 Fe309 1.997 . S
O317 C315 1.235 . S
C318 O324 1.287 . S
C318 O325 1.255 . S
O319 Fe308 1.976 . S
O319 C326 1.287 . S
O320 Fe309 1.996 . S
O320 C326 1.255 . S
O321 Fe311 1.976 . S
O321 C316 1.287 . S
O322 Fe308 1.996 . S
O322 C316 1.255 . S
C323 O327 1.295 . S
C323 O328 1.235 . S
O324 Fe309 1.976 . S
O324 C318 1.287 . S
O325 Fe311 1.996 . S
O325 C318 1.255 . S
C326 O319 1.287 . S
C326 O320 1.255 . S
O327 Fe309 2.002 . S
O327 C323 1.295 . S
O328 Fe311 1.997 . S
O328 C323 1.235 . S
C329 O312 1.295 . S
C329 O313 1.235 . S
Fe330 O332 1.918 . S
Fe330 O335 1.997 . S
Fe330 O336 2.002 . S
Fe330 O341 1.976 . S
Fe330 O344 1.996 . S
Fe331 O332 1.918 . S
Fe331 O339 1.997 . S
Fe331 O342 1.996 . S
Fe331 O346 1.976 . S
Fe331 O349 2.002 . S
O332 Fe330 1.918 . S
O332 Fe331 1.918 . S
O332 Fe333 1.918 . S
Fe333 O332 1.918 . S
Fe333 O334 2.002 . S
Fe333 O343 1.976 . S
Fe333 O347 1.996 . S
Fe333 O350 1.997 . S
O334 Fe333 2.002 . S
O334 C351 1.295 . S
O335 Fe330 1.997 . S
O335 C351 1.235 . S
O336 Fe330 2.002 . S
O336 C337 1.295 . S
C337 O336 1.295 . S
C337 O339 1.235 . S
C338 O343 1.287 . S
C338 O344 1.255 . S
O339 Fe331 1.997 . S
O339 C337 1.235 . S
C340 O346 1.287 . S
C340 O347 1.255 . S
O341 Fe330 1.976 . S
O341 C348 1.287 . S
O342 Fe331 1.996 . S
O342 C348 1.255 . S
O343 Fe333 1.976 . S
O343 C338 1.287 . S
O344 Fe330 1.996 . S
O344 C338 1.255 . S
C345 O349 1.295 . S
C345 O350 1.235 . S
O346 Fe331 1.976 . S
O346 C340 1.287 . S
O347 Fe333 1.996 . S
O347 C340 1.255 . S
C348 O341 1.287 . S
C348 O342 1.255 . S
O349 Fe331 2.002 . S
O349 C345 1.295 . S
O350 Fe333 1.997 . S
O350 C345 1.235 . S
C351 O334 1.295 . S
C351 O335 1.235 . S
Fe352 O354 1.918 . S
Fe352 O357 1.997 . S
Fe352 O358 2.002 . S
Fe352 O363 1.976 . S
Fe352 O366 1.996 . S
Fe353 O354 1.918 . S
Fe353 O361 1.997 . S
Fe353 O364 1.996 . S
Fe353 O368 1.976 . S
Fe353 O371 2.002 . S
O354 Fe352 1.918 . S
O354 Fe353 1.918 . S
O354 Fe355 1.918 . S
Fe355 O354 1.918 . S
Fe355 O356 2.002 . S
Fe355 O365 1.976 . S
Fe355 O369 1.996 . S
Fe355 O372 1.997 . S
O356 Fe355 2.002 . S
O356 C373 1.295 . S
O357 Fe352 1.997 . S
O357 C373 1.235 . S
O358 Fe352 2.002 . S
O358 C359 1.295 . S
C359 O358 1.295 . S
C359 O361 1.235 . S
C360 O365 1.287 . S
C360 O366 1.255 . S
O361 Fe353 1.997 . S
O361 C359 1.235 . S
C362 O368 1.287 . S
C362 O369 1.255 . S
O363 Fe352 1.976 . S
O363 C370 1.287 . S
O364 Fe353 1.996 . S
O364 C370 1.255 . S
O365 Fe355 1.976 . S
O365 C360 1.287 . S
O366 Fe352 1.996 . S
O366 C360 1.255 . S
C367 O371 1.295 . S
C367 O372 1.235 . S
O368 Fe353 1.976 . S
O368 C362 1.287 . S
O369 Fe355 1.996 . S
O369 C362 1.255 . S
C370 O363 1.287 . S
C370 O364 1.255 . S
O371 Fe353 2.002 . S
O371 C367 1.295 . S
O372 Fe355 1.997 . S
O372 C367 1.235 . S
C373 O356 1.295 . S
C373 O357 1.235 . S
Fe374 O376 1.918 . S
Fe374 O379 1.997 . S
Fe374 O380 2.002 . S
Fe374 O385 1.976 . S
Fe374 O388 1.996 . S
Fe375 O376 1.918 . S
Fe375 O383 1.997 . S
Fe375 O386 1.996 . S
Fe375 O390 1.976 . S
Fe375 O393 2.002 . S
O376 Fe374 1.918 . S
O376 Fe375 1.918 . S
O376 Fe377 1.918 . S
Fe377 O376 1.918 . S
Fe377 O378 2.002 . S
Fe377 O387 1.976 . S
Fe377 O391 1.996 . S
Fe377 O394 1.997 . S
O378 Fe377 2.002 . S
O378 C395 1.295 . S
O379 Fe374 1.997 . S
O379 C395 1.235 . S
O380 Fe374 2.002 . S
O380 C381 1.295 . S
C381 O380 1.295 . S
C381 O383 1.235 . S
C382 O387 1.287 . S
C382 O388 1.255 . S
O383 Fe375 1.997 . S
O383 C381 1.235 . S
C384 O390 1.287 . S
C384 O391 1.255 . S
O385 Fe374 1.976 . S
O385 C392 1.287 . S
O386 Fe375 1.996 . S
O386 C392 1.255 . S
O387 Fe377 1.976 . S
O387 C382 1.287 . S
O388 Fe374 1.996 . S
O388 C382 1.255 . S
C389 O393 1.295 . S
C389 O394 1.235 . S
O390 Fe375 1.976 . S
O390 C384 1.287 . S
O391 Fe377 1.996 . S
O391 C384 1.255 . S
C392 O385 1.287 . S
C392 O386 1.255 . S
O393 Fe375 2.002 . S
O393 C389 1.295 . S
O394 Fe377 1.997 . S
O394 C389 1.235 . S
C395 O378 1.295 . S
C395 O379 1.235 . S
H396 C404 0.929 . S
H397 C406 0.930 . S
H398 C408 0.930 . S
H399 C411 0.929 . S
H400 C414 0.930 . S
H401 C416 0.960 . S
H402 C416 0.960 . S
H403 C416 0.960 . S
C404 H396 0.929 . S
C404 C405 1.377 . S
C404 C406 1.384 . S
C405 C404 1.377 . S
C405 C411 1.390 . S
C406 H397 0.930 . S
C406 C404 1.384 . S
C406 C407 1.372 . S
C407 C406 1.372 . S
C407 C408 1.400 . S
C407 C412 1.490 . S
C408 H398 0.930 . S
C408 C407 1.400 . S
C408 C411 1.386 . S
H409 C425 0.930 . S
H410 C426 0.931 . S
C411 H399 0.929 . S
C411 C405 1.390 . S
C411 C408 1.386 . S
C412 C407 1.490 . S
C412 C414 1.395 . S
C412 C415 1.403 . S
H413 C419 0.930 . S
C414 H400 0.930 . S
C414 C412 1.395 . S
C414 C417 1.403 . S
C415 C412 1.403 . S
C415 C416 1.524 . S
C415 C419 1.400 . S
C416 H401 0.960 . S
C416 H402 0.960 . S
C416 H403 0.960 . S
C416 C415 1.524 . S
C417 C414 1.403 . S
C417 C418 1.392 . S
C417 C421 1.495 . S
C418 C417 1.392 . S
C418 C419 1.385 . S
C418 C420 1.478 . S
C419 H413 0.930 . S
C419 C415 1.400 . S
C419 C418 1.385 . S
C420 C418 1.478 . S
C420 C422 1.381 . S
C420 C426 1.383 . S
C421 C417 1.495 . S
C421 H427 0.959 . S
C421 H428 0.961 . S
C421 H429 0.940 1_455 S
C422 C420 1.381 . S
C422 C423 1.394 . S
C422 H430 0.930 . S
C423 C422 1.394 . S
C423 C424 1.383 . S
C423 H431 0.929 . S
C424 C423 1.383 . S
C424 C425 1.377 . S
C425 H409 0.930 . S
C425 C424 1.377 . S
C425 C426 1.379 . S
C426 H410 0.931 . S
C426 C420 1.383 . S
C426 C425 1.379 . S
H427 C421 0.959 . S
H428 C421 0.961 . S
H429 C421 0.940 1_655 S
H430 C422 0.930 . S
H431 C423 0.929 . S
H432 C440 0.929 . S
H433 C442 0.930 . S
H434 C444 0.930 . S
H435 C447 0.929 . S
H436 C450 0.930 . S
H437 C452 0.960 . S
H438 C452 0.960 . S
H439 C452 0.960 . S
C440 H432 0.929 . S
C440 C441 1.377 . S
C440 C442 1.384 . S
C441 C440 1.377 . S
C441 C447 1.390 . S
C442 H433 0.930 . S
C442 C440 1.384 . S
C442 C443 1.372 . S
C443 C442 1.372 . S
C443 C444 1.400 . S
C443 C448 1.490 . S
C444 H434 0.930 . S
C444 C443 1.400 . S
C444 C447 1.386 . S
H445 C461 0.930 . S
H446 C462 0.931 . S
C447 H435 0.929 . S
C447 C441 1.390 . S
C447 C444 1.386 . S
C448 C443 1.490 . S
C448 C450 1.395 . S
C448 C451 1.403 . S
H449 C455 0.930 . S
C450 H436 0.930 . S
C450 C448 1.395 . S
C450 C453 1.403 . S
C451 C448 1.403 . S
C451 C452 1.524 . S
C451 C455 1.400 . S
C452 H437 0.960 . S
C452 H438 0.960 . S
C452 H439 0.960 . S
C452 C451 1.524 . S
C453 C450 1.403 . S
C453 C454 1.392 . S
C453 C457 1.495 . S
C454 C453 1.392 . S
C454 C455 1.385 . S
C454 C456 1.478 . S
C455 H449 0.930 . S
C455 C451 1.400 . S
C455 C454 1.385 . S
C456 C454 1.478 . S
C456 C458 1.381 . S
C456 C462 1.383 . S
C457 C453 1.495 . S
C457 H463 0.959 . S
C457 H464 0.961 . S
C457 H465 0.960 . S
C458 C456 1.381 . S
C458 C459 1.394 . S
C458 H466 0.930 . S
C459 C458 1.394 . S
C459 C460 1.383 . S
C459 H467 0.929 . S
C460 C459 1.383 . S
C460 C461 1.377 . S
C461 H445 0.930 . S
C461 C460 1.377 . S
C461 C462 1.379 . S
C462 H446 0.931 . S
C462 C456 1.383 . S
C462 C461 1.379 . S
H463 C457 0.959 . S
H464 C457 0.961 . S
H465 C457 0.960 . S
H466 C458 0.930 . S
H467 C459 0.929 . S
H468 C476 0.929 . S
H469 C478 0.930 . S
H470 C480 0.930 . S
H471 C483 0.929 . S
H472 C486 0.930 . S
H473 C488 0.960 . S
H474 C488 0.960 . S
H475 C488 0.973 . S
C476 H468 0.929 . S
C476 C477 1.377 . S
C476 C478 1.384 . S
C477 C476 1.377 . S
C477 C483 1.390 . S
C478 H469 0.930 . S
C478 C476 1.384 . S
C478 C479 1.372 . S
C479 C478 1.372 . S
C479 C480 1.400 . S
C479 C484 1.490 . S
C480 H470 0.930 . S
C480 C479 1.400 . S
C480 C483 1.386 . S
H481 C497 0.930 . S
H482 C498 0.931 . S
C483 H471 0.929 . S
C483 C477 1.390 . S
C483 C480 1.386 . S
C484 C479 1.490 . S
C484 C486 1.395 . S
C484 C487 1.403 . S
H485 C491 0.930 . S
C486 H472 0.930 . S
C486 C484 1.395 . S
C486 C489 1.403 . S
C487 C484 1.403 . S
C487 C488 1.524 1_565 S
C487 C491 1.400 . S
C488 H473 0.960 . S
C488 H474 0.960 . S
C488 H475 0.973 . S
C488 C487 1.524 1_545 S
C489 C486 1.403 . S
C489 C490 1.392 . S
C489 C493 1.495 . S
C490 C489 1.392 . S
C490 C491 1.385 . S
C490 C492 1.478 . S
C491 H485 0.930 . S
C491 C487 1.400 . S
C491 C490 1.385 . S
C492 C490 1.478 . S
C492 C494 1.381 . S
C492 C498 1.383 . S
C493 C489 1.495 . S
C493 H499 0.959 . S
C493 H500 0.961 . S
C493 H501 0.960 . S
C494 C492 1.381 . S
C494 C495 1.394 . S
C494 H502 0.930 . S
C495 C494 1.394 . S
C495 C496 1.383 . S
C495 H503 0.929 . S
C496 C495 1.383 . S
C496 C497 1.377 . S
C497 H481 0.930 . S
C497 C496 1.377 . S
C497 C498 1.379 . S
C498 H482 0.931 . S
C498 C492 1.383 . S
C498 C497 1.379 . S
H499 C493 0.959 . S
H500 C493 0.961 . S
H501 C493 0.960 . S
H502 C494 0.930 . S
H503 C495 0.929 . S
H504 C512 0.929 . S
H505 C514 0.930 . S
H506 C516 0.930 . S
H507 C519 0.929 . S
H508 C522 0.930 . S
H509 C524 0.960 . S
H510 C524 0.960 . S
H511 C524 0.960 . S
C512 H504 0.929 . S
C512 C513 1.377 . S
C512 C514 1.384 . S
C513 C512 1.377 . S
C513 C519 1.390 . S
C514 H505 0.930 . S
C514 C512 1.384 . S
C514 C515 1.372 . S
C515 C514 1.372 . S
C515 C516 1.400 . S
C515 C520 1.490 . S
C516 H506 0.930 . S
C516 C515 1.400 . S
C516 C519 1.386 . S
H517 C533 0.930 . S
H518 C534 0.931 . S
C519 H507 0.929 . S
C519 C513 1.390 . S
C519 C516 1.386 . S
C520 C515 1.490 . S
C520 C522 1.395 . S
C520 C523 1.403 . S
H521 C527 0.930 . S
C522 H508 0.930 . S
C522 C520 1.395 . S
C522 C525 1.403 . S
C523 C520 1.403 . S
C523 C524 1.524 . S
C523 C527 1.400 . S
C524 H509 0.960 . S
C524 H510 0.960 . S
C524 H511 0.960 . S
C524 C523 1.524 . S
C525 C522 1.403 . S
C525 C526 1.392 . S
C525 C529 1.495 . S
C526 C525 1.392 . S
C526 C527 1.385 . S
C526 C528 1.478 . S
C527 H521 0.930 . S
C527 C523 1.400 . S
C527 C526 1.385 . S
C528 C526 1.478 . S
C528 C530 1.381 . S
C528 C534 1.383 . S
C529 C525 1.495 . S
C529 H535 0.959 . S
C529 H536 0.961 . S
C529 H537 0.960 . S
C530 C528 1.381 . S
C530 C531 1.394 . S
C530 H538 0.930 . S
C531 C530 1.394 . S
C531 C532 1.383 . S
C531 H539 0.929 1_545 S
C532 C531 1.383 . S
C532 C533 1.377 . S
C533 H517 0.930 . S
C533 C532 1.377 . S
C533 C534 1.379 . S
C534 H518 0.931 . S
C534 C528 1.383 . S
C534 C533 1.379 . S
H535 C529 0.959 . S
H536 C529 0.961 . S
H537 C529 0.960 . S
H538 C530 0.930 . S
H539 C531 0.929 1_565 S
H540 C548 0.929 . S
H541 C550 0.930 1_455 S
H542 C552 0.930 . S
H543 C555 0.929 . S
H544 C558 0.930 1_455 S
H545 C560 0.960 . S
H546 C560 0.960 . S
H547 C560 0.960 . S
C548 H540 0.929 . S
C548 C549 1.377 1_455 S
C548 C550 1.384 1_455 S
C549 C548 1.377 1_655 S
C549 C555 1.390 . S
C550 H541 0.930 1_655 S
C550 C548 1.384 1_655 S
C550 C551 1.372 . S
C551 C550 1.372 . S
C551 C552 1.400 . S
C551 C556 1.490 . S
C552 H542 0.930 . S
C552 C551 1.400 . S
C552 C555 1.386 . S
H553 C569 0.930 . S
H554 C570 0.931 . S
C555 H543 0.929 . S
C555 C549 1.390 . S
C555 C552 1.386 . S
C556 C551 1.490 . S
C556 C558 1.395 . S
C556 C559 1.403 . S
H557 C563 0.930 . S
C558 H544 0.930 1_655 S
C558 C556 1.395 . S
C558 C561 1.403 . S
C559 C556 1.403 . S
C559 C560 1.524 . S
C559 C563 1.400 . S
C560 H545 0.960 . S
C560 H546 0.960 . S
C560 H547 0.960 . S
C560 C559 1.524 . S
C561 C558 1.403 . S
C561 C562 1.392 . S
C561 C565 1.495 1_655 S
C562 C561 1.392 . S
C562 C563 1.385 . S
C562 C564 1.478 . S
C563 H557 0.930 . S
C563 C559 1.400 . S
C563 C562 1.385 . S
C564 C562 1.478 . S
C564 C566 1.381 . S
C564 C570 1.383 . S
C565 C561 1.495 1_455 S
C565 H571 0.959 . S
C565 H572 0.961 1_455 S
C565 H573 0.960 . S
C566 C564 1.381 . S
C566 C567 1.394 . S
C566 H574 0.930 . S
C567 C566 1.394 . S
C567 C568 1.383 . S
C567 H575 0.929 . S
C568 C567 1.383 . S
C568 C569 1.377 . S
C569 H553 0.930 . S
C569 C568 1.377 . S
C569 C570 1.379 . S
C570 H554 0.931 . S
C570 C564 1.383 . S
C570 C569 1.379 . S
H571 C565 0.959 . S
H572 C565 0.961 1_655 S
H573 C565 0.960 . S
H574 C566 0.930 . S
H575 C567 0.929 . S
H576 C584 0.929 . S
H577 C586 0.930 . S
H578 C588 0.930 . S
H579 C591 0.929 . S
H580 C594 0.930 . S
H581 C596 0.960 . S
H582 C596 0.960 . S
H583 C596 0.960 . S
C584 H576 0.929 . S
C584 C585 1.377 . S
C584 C586 1.384 . S
C585 C584 1.377 . S
C585 C591 1.390 . S
C586 H577 0.930 . S
C586 C584 1.384 . S
C586 C587 1.372 . S
C587 C586 1.372 . S
C587 C588 1.400 . S
C587 C592 1.490 . S
C588 H578 0.930 . S
C588 C587 1.400 . S
C588 C591 1.386 . S
H589 C605 0.930 . S
H590 C606 0.931 . S
C591 H579 0.929 . S
C591 C585 1.390 . S
C591 C588 1.386 . S
C592 C587 1.490 . S
C592 C594 1.395 . S
C592 C595 1.403 . S
H593 C599 0.930 . S
C594 H580 0.930 . S
C594 C592 1.395 . S
C594 C597 1.403 . S
C595 C592 1.403 . S
C595 C596 1.524 . S
C595 C599 1.400 . S
C596 H581 0.960 . S
C596 H582 0.960 . S
C596 H583 0.960 . S
C596 C595 1.524 . S
C597 C594 1.403 . S
C597 C598 1.392 . S
C597 C601 1.495 . S
C598 C597 1.392 . S
C598 C599 1.385 . S
C598 C600 1.478 . S
C599 H593 0.930 . S
C599 C595 1.400 . S
C599 C598 1.385 . S
C600 C598 1.478 . S
C600 C602 1.381 . S
C600 C606 1.383 . S
C601 C597 1.495 . S
C601 H607 0.959 . S
C601 H608 0.961 . S
C601 H609 0.960 . S
C602 C600 1.381 . S
C602 C603 1.394 . S
C602 H610 0.930 . S
C603 C602 1.394 . S
C603 C604 1.383 . S
C603 H611 0.929 . S
C604 C603 1.383 . S
C604 C605 1.377 . S
C605 H589 0.930 . S
C605 C604 1.377 . S
C605 C606 1.379 . S
C606 H590 0.931 . S
C606 C600 1.383 . S
C606 C605 1.379 . S
H607 C601 0.959 . S
H608 C601 0.961 . S
H609 C601 0.960 . S
H610 C602 0.930 . S
H611 C603 0.929 . S
H612 C620 0.929 . S
H613 C622 0.930 . S
H614 C624 0.930 . S
H615 C627 0.929 . S
H616 C630 0.930 . S
H617 C632 0.960 . S
H618 C632 0.960 . S
H619 C632 0.960 . S
C620 H612 0.929 . S
C620 C621 1.377 . S
C620 C622 1.384 . S
C621 C620 1.377 . S
C621 C627 1.390 . S
C622 H613 0.930 . S
C622 C620 1.384 . S
C622 C623 1.372 . S
C623 C622 1.372 . S
C623 C624 1.400 . S
C623 C628 1.490 . S
C624 H614 0.930 . S
C624 C623 1.400 . S
C624 C627 1.386 . S
H625 C641 0.930 1_455 S
H626 C642 0.931 . S
C627 H615 0.929 . S
C627 C621 1.390 . S
C627 C624 1.386 . S
C628 C623 1.490 . S
C628 C630 1.395 . S
C628 C631 1.403 . S
H629 C635 0.930 . S
C630 H616 0.930 . S
C630 C628 1.395 . S
C630 C633 1.403 . S
C631 C628 1.403 . S
C631 C632 1.524 . S
C631 C635 1.400 . S
C632 H617 0.960 . S
C632 H618 0.960 . S
C632 H619 0.960 . S
C632 C631 1.524 . S
C633 C630 1.403 . S
C633 C634 1.392 . S
C633 C637 1.495 . S
C634 C633 1.392 . S
C634 C635 1.385 . S
C634 C636 1.478 . S
C635 H629 0.930 . S
C635 C631 1.400 . S
C635 C634 1.385 . S
C636 C634 1.478 . S
C636 C638 1.381 . S
C636 C642 1.383 . S
C637 C633 1.495 . S
C637 H643 0.959 . S
C637 H644 0.961 1_655 S
C637 H645 0.960 . S
C638 C636 1.381 . S
C638 C639 1.394 . S
C638 H646 0.930 . S
C639 C638 1.394 . S
C639 C640 1.383 . S
C639 H647 0.929 . S
C640 C639 1.383 . S
C640 C641 1.377 . S
C641 H625 0.930 1_655 S
C641 C640 1.377 . S
C641 C642 1.379 . S
C642 H626 0.931 . S
C642 C636 1.383 . S
C642 C641 1.379 . S
H643 C637 0.959 . S
H644 C637 0.961 1_455 S
H645 C637 0.960 . S
H646 C638 0.930 . S
H647 C639 0.929 . S
H648 C656 0.929 . S
H649 C658 0.930 . S
H650 C660 0.930 . S
H651 C663 0.929 . S
H652 C666 0.930 . S
H653 C668 0.960 . S
H654 C668 0.960 . S
H655 C668 0.960 . S
C656 H648 0.929 . S
C656 C657 1.377 . S
C656 C658 1.384 . S
C657 C656 1.377 . S
C657 C663 1.390 . S
C658 H649 0.930 . S
C658 C656 1.384 . S
C658 C659 1.372 . S
C659 C658 1.372 . S
C659 C660 1.400 . S
C659 C664 1.490 . S
C660 H650 0.930 . S
C660 C659 1.400 . S
C660 C663 1.386 . S
H661 C677 0.930 . S
H662 C678 0.931 . S
C663 H651 0.929 . S
C663 C657 1.390 . S
C663 C660 1.386 . S
C664 C659 1.490 . S
C664 C666 1.395 . S
C664 C667 1.403 . S
H665 C671 0.930 . S
C666 H652 0.930 . S
C666 C664 1.395 . S
C666 C669 1.403 . S
C667 C664 1.403 . S
C667 C668 1.524 . S
C667 C671 1.400 . S
C668 H653 0.960 . S
C668 H654 0.960 . S
C668 H655 0.960 . S
C668 C667 1.524 . S
C669 C666 1.403 . S
C669 C670 1.392 . S
C669 C673 1.495 . S
C670 C669 1.392 . S
C670 C671 1.385 . S
C670 C672 1.478 . S
C671 H665 0.930 . S
C671 C667 1.400 . S
C671 C670 1.385 . S
C672 C670 1.478 . S
C672 C674 1.381 . S
C672 C678 1.383 . S
C673 C669 1.495 . S
C673 H679 0.959 . S
C673 H680 0.961 . S
C673 H681 0.960 . S
C674 C672 1.381 . S
C674 C675 1.394 . S
C674 H682 0.930 . S
C675 C674 1.394 . S
C675 C676 1.383 . S
C675 H683 0.929 . S
C676 C675 1.383 . S
C676 C677 1.377 . S
C677 H661 0.930 . S
C677 C676 1.377 . S
C677 C678 1.379 . S
C678 H662 0.931 . S
C678 C672 1.383 . S
C678 C677 1.379 . S
H679 C673 0.959 . S
H680 C673 0.961 . S
H681 C673 0.960 . S
H682 C674 0.930 . S
H683 C675 0.929 . S
H684 C692 0.929 . S
H685 C694 0.930 . S
H686 C696 0.930 . S
H687 C699 0.929 . S
H688 C702 0.930 . S
H689 C704 0.960 . S
H690 C704 0.960 . S
H691 C704 0.960 . S
C692 H684 0.929 . S
C692 C693 1.377 . S
C692 C694 1.384 . S
C693 C692 1.377 . S
C693 C699 1.390 . S
C694 H685 0.930 . S
C694 C692 1.384 . S
C694 C695 1.372 . S
C695 C694 1.372 . S
C695 C696 1.400 . S
C695 C700 1.490 . S
C696 H686 0.930 . S
C696 C695 1.400 . S
C696 C699 1.386 . S
H697 C713 0.930 . S
H698 C714 0.931 . S
C699 H687 0.929 . S
C699 C693 1.390 . S
C699 C696 1.386 . S
C700 C695 1.490 . S
C700 C702 1.395 . S
C700 C703 1.403 . S
H701 C707 0.930 . S
C702 H688 0.930 . S
C702 C700 1.395 . S
C702 C705 1.403 . S
C703 C700 1.403 . S
C703 C704 1.524 . S
C703 C707 1.400 . S
C704 H689 0.960 . S
C704 H690 0.960 . S
C704 H691 0.960 . S
C704 C703 1.524 . S
C705 C702 1.403 . S
C705 C706 1.392 . S
C705 C709 1.495 . S
C706 C705 1.392 . S
C706 C707 1.385 . S
C706 C708 1.478 . S
C707 H701 0.930 . S
C707 C703 1.400 . S
C707 C706 1.385 . S
C708 C706 1.478 . S
C708 C710 1.381 . S
C708 C714 1.383 . S
C709 C705 1.495 . S
C709 H715 0.959 . S
C709 H716 0.961 . S
C709 H717 0.960 . S
C710 C708 1.381 . S
C710 C711 1.394 . S
C710 H718 0.930 . S
C711 C710 1.394 . S
C711 C712 1.383 . S
C711 H719 0.929 . S
C712 C711 1.383 . S
C712 C713 1.377 . S
C713 H697 0.930 . S
C713 C712 1.377 . S
C713 C714 1.379 . S
C714 H698 0.931 . S
C714 C708 1.383 . S
C714 C713 1.379 . S
H715 C709 0.959 . S
H716 C709 0.961 . S
H717 C709 0.960 . S
H718 C710 0.930 . S
H719 C711 0.929 . S
H720 C728 0.929 . S
H721 C730 0.930 . S
H722 C732 0.930 . S
H723 C735 0.929 . S
H724 C738 0.930 . S
H725 C740 0.960 . S
H726 C740 0.960 . S
H727 C740 0.960 . S
C728 H720 0.929 . S
C728 C729 1.377 . S
C728 C730 1.384 . S
C729 C728 1.377 . S
C729 C735 1.390 . S
C730 H721 0.930 . S
C730 C728 1.384 . S
C730 C731 1.372 . S
C731 C730 1.372 . S
C731 C732 1.400 . S
C731 C736 1.490 . S
C732 H722 0.930 . S
C732 C731 1.400 . S
C732 C735 1.386 . S
H733 C749 0.930 . S
H734 C750 0.931 . S
C735 H723 0.929 . S
C735 C729 1.390 . S
C735 C732 1.386 . S
C736 C731 1.490 . S
C736 C738 1.395 . S
C736 C739 1.403 . S
H737 C743 0.930 . S
C738 H724 0.930 . S
C738 C736 1.395 . S
C738 C741 1.403 . S
C739 C736 1.403 . S
C739 C740 1.524 . S
C739 C743 1.400 . S
C740 H725 0.960 . S
C740 H726 0.960 . S
C740 H727 0.960 . S
C740 C739 1.524 . S
C741 C738 1.403 . S
C741 C742 1.392 . S
C741 C745 1.495 . S
C742 C741 1.392 . S
C742 C743 1.385 . S
C742 C744 1.478 . S
C743 H737 0.930 . S
C743 C739 1.400 . S
C743 C742 1.385 . S
C744 C742 1.478 . S
C744 C746 1.381 . S
C744 C750 1.383 . S
C745 C741 1.495 . S
C745 H751 0.959 . S
C745 H752 0.961 . S
C745 H753 0.960 . S
C746 C744 1.381 . S
C746 C747 1.399 . S
C746 H754 0.930 . S
C747 C746 1.399 . S
C747 C748 1.385 . S
C747 H755 0.922 1_565 S
C748 C747 1.385 . S
C748 C749 1.377 . S
C749 H733 0.930 . S
C749 C748 1.377 . S
C749 C750 1.379 . S
C750 H734 0.931 . S
C750 C744 1.383 . S
C750 C749 1.379 . S
H751 C745 0.959 . S
H752 C745 0.961 . S
H753 C745 0.960 . S
H754 C746 0.930 . S
H755 C747 0.922 1_545 S
H756 C764 0.929 . S
H757 C766 0.930 . S
H758 C768 0.930 . S
H759 C771 0.929 . S
H760 C774 0.930 . S
H761 C776 0.960 . S
H762 C776 0.960 . S
H763 C776 0.960 . S
C764 H756 0.929 . S
C764 C765 1.377 . S
C764 C766 1.384 . S
C765 C764 1.377 . S
C765 C771 1.390 . S
C766 H757 0.930 . S
C766 C764 1.384 . S
C766 C767 1.372 . S
C767 C766 1.372 . S
C767 C768 1.400 . S
C767 C772 1.490 . S
C768 H758 0.930 . S
C768 C767 1.400 . S
C768 C771 1.386 . S
H769 C785 0.930 . S
H770 C786 0.931 . S
C771 H759 0.929 . S
C771 C765 1.390 . S
C771 C768 1.386 . S
C772 C767 1.490 . S
C772 C774 1.395 . S
C772 C775 1.403 . S
H773 C779 0.930 . S
C774 H760 0.930 . S
C774 C772 1.395 . S
C774 C777 1.403 . S
C775 C772 1.403 . S
C775 C776 1.524 . S
C775 C779 1.400 . S
C776 H761 0.960 . S
C776 H762 0.960 . S
C776 H763 0.960 . S
C776 C775 1.524 . S
C777 C774 1.403 . S
C777 C778 1.392 . S
C777 C781 1.495 . S
C778 C777 1.392 . S
C778 C779 1.385 . S
C778 C780 1.478 . S
C779 H773 0.930 . S
C779 C775 1.400 . S
C779 C778 1.385 . S
C780 C778 1.478 . S
C780 C782 1.381 . S
C780 C786 1.383 . S
C781 C777 1.495 . S
C781 H787 0.959 . S
C781 H788 0.961 . S
C781 H789 0.960 . S
C782 C780 1.381 . S
C782 C783 1.394 . S
C782 H790 0.930 . S
C783 C782 1.394 . S
C783 C784 1.383 . S
C783 H791 0.929 . S
C784 C783 1.383 . S
C784 C785 1.377 . S
C785 H769 0.930 . S
C785 C784 1.377 . S
C785 C786 1.379 . S
C786 H770 0.931 . S
C786 C780 1.383 . S
C786 C785 1.379 . S
H787 C781 0.959 . S
H788 C781 0.961 . S
H789 C781 0.960 . S
H790 C782 0.930 . S
H791 C783 0.929 . S
H792 C800 0.929 . S
H793 C802 0.930 . S
H794 C804 0.930 . S
H795 C807 0.929 . S
H796 C810 0.930 . S
H797 C812 0.960 . S
H798 C812 0.960 . S
H799 C812 0.960 . S
C800 H792 0.929 . S
C800 C801 1.377 . S
C800 C802 1.384 . S
C801 C800 1.377 . S
C801 C807 1.390 . S
C802 H793 0.930 . S
C802 C800 1.384 . S
C802 C803 1.372 . S
C803 C802 1.372 . S
C803 C804 1.400 . S
C803 C808 1.490 . S
C804 H794 0.930 . S
C804 C803 1.400 . S
C804 C807 1.386 . S
H805 C821 0.930 . S
H806 C822 0.931 . S
C807 H795 0.929 . S
C807 C801 1.390 . S
C807 C804 1.386 . S
C808 C803 1.490 . S
C808 C810 1.395 . S
C808 C811 1.403 . S
H809 C815 0.930 . S
C810 H796 0.930 . S
C810 C808 1.395 . S
C810 C813 1.403 . S
C811 C808 1.403 . S
C811 C812 1.524 . S
C811 C815 1.400 . S
C812 H797 0.960 . S
C812 H798 0.960 . S
C812 H799 0.960 . S
C812 C811 1.524 . S
C813 C810 1.403 . S
C813 C814 1.392 . S
C813 C817 1.495 . S
C814 C813 1.392 . S
C814 C815 1.385 . S
C814 C816 1.478 . S
C815 H809 0.930 . S
C815 C811 1.400 . S
C815 C814 1.385 . S
C816 C814 1.478 . S
C816 C818 1.381 . S
C816 C822 1.383 . S
C817 C813 1.495 . S
C817 H823 0.959 . S
C817 H824 0.961 . S
C817 H825 0.960 . S
C818 C816 1.381 . S
C818 C819 1.394 . S
C818 H826 0.930 . S
C819 C818 1.394 . S
C819 C820 1.383 . S
C819 H827 0.929 . S
C820 C819 1.383 . S
C820 C821 1.377 . S
C821 H805 0.930 . S
C821 C820 1.377 . S
C821 C822 1.379 . S
C822 H806 0.931 . S
C822 C816 1.383 . S
C822 C821 1.379 . S
H823 C817 0.959 . S
H824 C817 0.961 . S
H825 C817 0.960 . S
H826 C818 0.930 . S
H827 C819 0.929 . S
H828 C836 0.929 . S
H829 C838 0.930 . S
H830 C840 0.930 . S
H831 C843 0.929 . S
H832 C846 0.930 . S
H833 C848 0.960 . S
H834 C848 0.960 . S
H835 C848 0.960 . S
C836 H828 0.929 . S
C836 C837 1.377 . S
C836 C838 1.384 . S
C837 C836 1.377 . S
C837 C843 1.390 . S
C838 H829 0.930 . S
C838 C836 1.384 . S
C838 C839 1.372 . S
C839 C838 1.372 . S
C839 C840 1.400 . S
C839 C844 1.490 . S
C840 H830 0.930 . S
C840 C839 1.400 . S
C840 C843 1.386 . S
H841 C857 0.930 . S
H842 C858 0.931 . S
C843 H831 0.929 . S
C843 C837 1.390 . S
C843 C840 1.386 . S
C844 C839 1.490 . S
C844 C846 1.395 . S
C844 C847 1.403 . S
H845 C851 0.930 . S
C846 H832 0.930 . S
C846 C844 1.395 . S
C846 C849 1.403 . S
C847 C844 1.403 . S
C847 C848 1.524 . S
C847 C851 1.400 . S
C848 H833 0.960 . S
C848 H834 0.960 . S
C848 H835 0.960 . S
C848 C847 1.524 . S
C849 C846 1.403 . S
C849 C850 1.392 . S
C849 C853 1.495 . S
C850 C849 1.392 . S
C850 C851 1.385 . S
C850 C852 1.478 . S
C851 H845 0.930 . S
C851 C847 1.400 . S
C851 C850 1.385 . S
C852 C850 1.478 . S
C852 C854 1.381 . S
C852 C858 1.383 . S
C853 C849 1.495 . S
C853 H859 0.959 . S
C853 H860 0.961 . S
C853 H861 0.960 . S
C854 C852 1.381 . S
C854 C855 1.394 . S
C854 H862 0.930 . S
C855 C854 1.394 . S
C855 C856 1.383 . S
C855 H863 0.929 . S
C856 C855 1.383 . S
C856 C857 1.377 . S
C857 H841 0.930 . S
C857 C856 1.377 . S
C857 C858 1.379 . S
C858 H842 0.931 . S
C858 C852 1.383 . S
C858 C857 1.379 . S
H859 C853 0.959 . S
H860 C853 0.961 . S
H861 C853 0.960 . S
H862 C854 0.930 . S
H863 C855 0.929 . S
H864 C872 0.929 . S
H865 C874 0.930 . S
H866 C876 0.930 . S
H867 C879 0.929 . S
H868 C882 0.930 . S
H869 C884 0.960 . S
H870 C884 0.960 . S
H871 C884 0.960 . S
C872 H864 0.929 . S
C872 C873 1.377 . S
C872 C874 1.384 1_545 S
C873 C872 1.377 . S
C873 C879 1.390 . S
C874 H865 0.930 . S
C874 C872 1.384 1_565 S
C874 C875 1.372 . S
C875 C874 1.372 . S
C875 C876 1.400 . S
C875 C880 1.490 . S
C876 H866 0.930 . S
C876 C875 1.400 . S
C876 C879 1.386 1_565 S
H877 C893 0.930 . S
H878 C894 0.931 . S
C879 H867 0.929 . S
C879 C873 1.390 . S
C879 C876 1.386 1_545 S
C880 C875 1.490 . S
C880 C882 1.395 . S
C880 C883 1.403 . S
H881 C887 0.930 . S
C882 H868 0.930 . S
C882 C880 1.395 . S
C882 C885 1.403 . S
C883 C880 1.403 . S
C883 C884 1.524 . S
C883 C887 1.400 . S
C884 H869 0.960 . S
C884 H870 0.960 . S
C884 H871 0.960 . S
C884 C883 1.524 . S
C885 C882 1.403 . S
C885 C886 1.392 . S
C885 C889 1.495 . S
C886 C885 1.392 . S
C886 C887 1.385 . S
C886 C888 1.478 . S
C887 H881 0.930 . S
C887 C883 1.400 . S
C887 C886 1.385 . S
C888 C886 1.478 . S
C888 C890 1.381 . S
C888 C894 1.383 . S
C889 C885 1.495 . S
C889 H895 0.959 . S
C889 H896 0.961 . S
C889 H897 0.960 . S
C890 C888 1.381 . S
C890 C891 1.394 . S
C890 H898 0.930 . S
C891 C890 1.394 . S
C891 C892 1.383 . S
C891 H899 0.929 . S
C892 C891 1.383 . S
C892 C893 1.377 . S
C893 H877 0.930 . S
C893 C892 1.377 . S
C893 C894 1.379 . S
C894 H878 0.931 . S
C894 C888 1.383 . S
C894 C893 1.379 . S
H895 C889 0.959 . S
H896 C889 0.961 . S
H897 C889 0.960 . S
H898 C890 0.930 . S
H899 C891 0.929 . S
H900 C908 0.929 1_655 S
H901 C910 0.930 . S
H902 C912 0.930 . S
H903 C915 0.929 . S
H904 C918 0.930 . S
H905 C920 0.960 . S
H906 C920 0.960 . S
H907 C920 0.960 . S
C908 H900 0.929 1_455 S
C908 C909 1.377 1_455 S
C908 C910 1.384 . S
C909 C908 1.377 1_655 S
C909 C915 1.390 1_655 S
C910 H901 0.930 . S
C910 C908 1.384 . S
C910 C911 1.372 . S
C911 C910 1.372 . S
C911 C912 1.400 . S
C911 C916 1.490 . S
C912 H902 0.930 . S
C912 C911 1.400 . S
C912 C915 1.386 . S
H913 C929 0.930 . S
H914 C930 0.931 . S
C915 H903 0.929 . S
C915 C909 1.390 1_455 S
C915 C912 1.386 . S
C916 C911 1.490 . S
C916 C918 1.395 . S
C916 C919 1.403 . S
H917 C923 0.930 . S
C918 H904 0.930 . S
C918 C916 1.395 . S
C918 C921 1.403 . S
C919 C916 1.403 . S
C919 C920 1.524 . S
C919 C923 1.400 . S
C920 H905 0.960 . S
C920 H906 0.960 . S
C920 H907 0.960 . S
C920 C919 1.524 . S
C921 C918 1.403 . S
C921 C922 1.392 . S
C921 C925 1.495 . S
C922 C921 1.392 . S
C922 C923 1.385 . S
C922 C924 1.478 . S
C923 H917 0.930 . S
C923 C919 1.400 . S
C923 C922 1.385 . S
C924 C922 1.478 . S
C924 C926 1.381 . S
C924 C930 1.383 . S
C925 C921 1.495 . S
C925 H931 0.959 . S
C925 H932 0.961 . S
C925 H933 0.960 . S
C926 C924 1.381 . S
C926 C927 1.394 . S
C926 H934 0.930 . S
C927 C926 1.394 . S
C927 C928 1.383 . S
C927 H935 0.929 . S
C928 C927 1.383 . S
C928 C929 1.377 . S
C929 H913 0.930 . S
C929 C928 1.377 . S
C929 C930 1.379 . S
C930 H914 0.931 . S
C930 C924 1.383 . S
C930 C929 1.379 . S
H931 C925 0.959 . S
H932 C925 0.961 . S
H933 C925 0.960 . S
H934 C926 0.930 . S
H935 C927 0.929 . S
H936 C944 0.929 . S
H937 C946 0.930 . S
H938 C948 0.930 . S
H939 C951 0.929 . S
H940 C954 0.930 . S
H941 C956 0.960 . S
H942 C956 0.960 . S
H943 C956 0.960 . S
C944 H936 0.929 . S
C944 C945 1.377 . S
C944 C946 1.384 . S
C945 C944 1.377 . S
C945 C951 1.390 . S
C946 H937 0.930 . S
C946 C944 1.384 . S
C946 C947 1.372 . S
C947 C946 1.372 . S
C947 C948 1.400 . S
C947 C952 1.490 . S
C948 H938 0.930 . S
C948 C947 1.400 . S
C948 C951 1.386 . S
H949 C965 0.930 . S
H950 C966 0.931 . S
C951 H939 0.929 . S
C951 C945 1.390 . S
C951 C948 1.386 . S
C952 C947 1.490 . S
C952 C954 1.395 . S
C952 C955 1.403 . S
H953 C959 0.930 . S
C954 H940 0.930 . S
C954 C952 1.395 . S
C954 C957 1.403 . S
C955 C952 1.403 . S
C955 C956 1.524 . S
C955 C959 1.400 . S
C956 H941 0.960 . S
C956 H942 0.960 . S
C956 H943 0.960 . S
C956 C955 1.524 . S
C957 C954 1.403 . S
C957 C958 1.392 . S
C957 C961 1.495 . S
C958 C957 1.392 . S
C958 C959 1.385 . S
C958 C960 1.478 . S
C959 H953 0.930 . S
C959 C955 1.400 . S
C959 C958 1.385 . S
C960 C958 1.478 . S
C960 C962 1.381 . S
C960 C966 1.383 . S
C961 C957 1.495 . S
C961 H967 0.959 . S
C961 H968 0.961 . S
C961 H969 0.960 . S
C962 C960 1.381 . S
C962 C963 1.394 . S
C962 H970 0.930 . S
C963 C962 1.394 . S
C963 C964 1.383 . S
C963 H971 0.929 . S
C964 C963 1.383 . S
C964 C965 1.377 . S
C965 H949 0.930 . S
C965 C964 1.377 . S
C965 C966 1.379 . S
C966 H950 0.931 . S
C966 C960 1.383 . S
C966 C965 1.379 . S
H967 C961 0.959 . S
H968 C961 0.961 . S
H969 C961 0.960 . S
H970 C962 0.930 . S
H971 C963 0.929 . S
H972 C980 0.929 . S
H973 C982 0.930 . S
H974 C984 0.930 . S
H975 C987 0.929 . S
H976 C990 0.930 . S
H977 C992 0.960 . S
H978 C992 0.960 . S
H979 C992 0.960 . S
C980 H972 0.929 . S
C980 C981 1.377 . S
C980 C982 1.384 . S
C981 C980 1.377 . S
C981 C987 1.390 . S
C982 H973 0.930 . S
C982 C980 1.384 . S
C982 C983 1.372 . S
C983 C982 1.372 . S
C983 C984 1.400 . S
C983 C988 1.490 . S
C984 H974 0.930 . S
C984 C983 1.400 . S
C984 C987 1.386 . S
H985 C1001 0.930 . S
H986 C1002 0.931 . S
C987 H975 0.929 . S
C987 C981 1.390 . S
C987 C984 1.386 . S
C988 C983 1.490 . S
C988 C990 1.395 . S
C988 C991 1.403 . S
H989 C995 0.930 . S
C990 H976 0.930 . S
C990 C988 1.395 . S
C990 C993 1.403 . S
C991 C988 1.403 . S
C991 C992 1.524 . S
C991 C995 1.400 . S
C992 H977 0.960 . S
C992 H978 0.960 . S
C992 H979 0.960 . S
C992 C991 1.524 . S
C993 C990 1.403 . S
C993 C994 1.392 . S
C993 C997 1.495 . S
C994 C993 1.392 . S
C994 C995 1.385 . S
C994 C996 1.478 . S
C995 H989 0.930 . S
C995 C991 1.400 . S
C995 C994 1.385 . S
C996 C994 1.478 . S
C996 C998 1.381 . S
C996 C1002 1.383 . S
C997 C993 1.495 . S
C997 H1003 0.959 . S
C997 H1004 0.961 . S
C997 H1005 0.960 . S
C998 C996 1.381 . S
C998 C999 1.394 . S
C998 H1006 0.930 . S
C999 C998 1.394 . S
C999 C1000 1.383 . S
C999 H1007 0.929 . S
C1000 C999 1.383 . S
C1000 C1001 1.377 . S
C1001 H985 0.930 . S
C1001 C1000 1.377 . S
C1001 C1002 1.379 . S
C1002 H986 0.931 . S
C1002 C996 1.383 . S
C1002 C1001 1.379 . S
H1003 C997 0.959 . S
H1004 C997 0.961 . S
H1005 C997 0.960 . S
H1006 C998 0.930 . S
H1007 C999 0.929 . S
H1008 C1016 0.929 . S
H1009 C1018 0.930 . S
H1010 C1020 0.930 . S
H1011 C1023 0.929 . S
H1012 C1026 0.930 . S
H1013 C1028 0.960 . S
H1014 C1028 0.960 . S
H1015 C1028 0.960 . S
C1016 H1008 0.929 . S
C1016 C1017 1.377 . S
C1016 C1018 1.384 . S
C1017 C1016 1.377 . S
C1017 C1023 1.390 . S
C1018 H1009 0.930 . S
C1018 C1016 1.384 . S
C1018 C1019 1.372 . S
C1019 C1018 1.372 . S
C1019 C1020 1.400 . S
C1019 C1024 1.490 . S
C1020 H1010 0.930 . S
C1020 C1019 1.400 . S
C1020 C1023 1.386 . S
H1021 C1037 0.930 . S
H1022 C1038 0.931 . S
C1023 H1011 0.929 . S
C1023 C1017 1.390 . S
C1023 C1020 1.386 . S
C1024 C1019 1.490 . S
C1024 C1026 1.395 . S
C1024 C1027 1.403 . S
H1025 C1031 0.930 . S
C1026 H1012 0.930 . S
C1026 C1024 1.395 . S
C1026 C1029 1.403 . S
C1027 C1024 1.403 . S
C1027 C1028 1.524 . S
C1027 C1031 1.400 . S
C1028 H1013 0.960 . S
C1028 H1014 0.960 . S
C1028 H1015 0.960 . S
C1028 C1027 1.524 . S
C1029 C1026 1.403 . S
C1029 C1030 1.392 . S
C1029 C1033 1.495 . S
C1030 C1029 1.392 . S
C1030 C1031 1.385 . S
C1030 C1032 1.478 . S
C1031 H1025 0.930 . S
C1031 C1027 1.400 . S
C1031 C1030 1.385 . S
C1032 C1030 1.478 . S
C1032 C1034 1.381 . S
C1032 C1038 1.383 . S
C1033 C1029 1.495 . S
C1033 H1039 0.959 . S
C1033 H1040 0.961 . S
C1033 H1041 0.960 . S
C1034 C1032 1.381 . S
C1034 C1035 1.394 . S
C1034 H1042 0.930 . S
C1035 C1034 1.394 . S
C1035 C1036 1.383 . S
C1035 H1043 0.929 . S
C1036 C1035 1.383 . S
C1036 C1037 1.377 . S
C1037 H1021 0.930 . S
C1037 C1036 1.377 . S
C1037 C1038 1.379 . S
C1038 H1022 0.931 . S
C1038 C1032 1.383 . S
C1038 C1037 1.379 . S
H1039 C1033 0.959 . S
H1040 C1033 0.961 . S
H1041 C1033 0.960 . S
H1042 C1034 0.930 . S
H1043 C1035 0.929 . S
H1044 C1052 0.929 . S
H1045 C1054 0.930 . S
H1046 C1056 0.930 . S
H1047 C1059 0.929 . S
H1048 C1062 0.930 . S
H1049 C1064 0.960 . S
H1050 C1064 0.960 . S
H1051 C1064 0.960 . S
C1052 H1044 0.929 . S
C1052 C1053 1.377 . S
C1052 C1054 1.384 . S
C1053 C1052 1.377 . S
C1053 C1059 1.390 . S
C1054 H1045 0.930 . S
C1054 C1052 1.384 . S
C1054 C1055 1.372 . S
C1055 C1054 1.372 . S
C1055 C1056 1.400 . S
C1055 C1060 1.490 . S
C1056 H1046 0.930 . S
C1056 C1055 1.400 . S
C1056 C1059 1.386 . S
H1057 C1073 0.930 . S
H1058 C1074 0.931 . S
C1059 H1047 0.929 . S
C1059 C1053 1.390 . S
C1059 C1056 1.386 . S
C1060 C1055 1.490 . S
C1060 C1062 1.395 . S
C1060 C1063 1.403 . S
H1061 C1067 0.930 . S
C1062 H1048 0.930 . S
C1062 C1060 1.395 . S
C1062 C1065 1.403 . S
C1063 C1060 1.403 . S
C1063 C1064 1.524 . S
C1063 C1067 1.400 . S
C1064 H1049 0.960 . S
C1064 H1050 0.960 . S
C1064 H1051 0.960 . S
C1064 C1063 1.524 . S
C1065 C1062 1.403 . S
C1065 C1066 1.392 . S
C1065 C1069 1.495 . S
C1066 C1065 1.392 . S
C1066 C1067 1.385 . S
C1066 C1068 1.478 . S
C1067 H1061 0.930 . S
C1067 C1063 1.400 . S
C1067 C1066 1.385 . S
C1068 C1066 1.478 . S
C1068 C1070 1.381 . S
C1068 C1074 1.383 . S
C1069 C1065 1.495 . S
C1069 H1075 0.959 . S
C1069 H1076 0.961 . S
C1069 H1077 0.960 . S
C1070 C1068 1.381 . S
C1070 C1071 1.394 . S
C1070 H1078 0.930 . S
C1071 C1070 1.394 . S
C1071 C1072 1.383 . S
C1071 H1079 0.929 . S
C1072 C1071 1.383 . S
C1072 C1073 1.377 . S
C1073 H1057 0.930 . S
C1073 C1072 1.377 . S
C1073 C1074 1.379 . S
C1074 H1058 0.931 . S
C1074 C1068 1.383 . S
C1074 C1073 1.379 . S
H1075 C1069 0.959 . S
H1076 C1069 0.961 . S
H1077 C1069 0.960 . S
H1078 C1070 0.930 . S
H1079 C1071 0.929 . S
H1080 C1088 0.929 . S
H1081 C1090 0.930 . S
H1082 C1092 0.930 . S
H1083 C1095 0.929 . S
H1084 C1098 0.930 . S
H1085 C1100 0.960 . S
H1086 C1100 0.960 . S
H1087 C1100 0.960 . S
C1088 H1080 0.929 . S
C1088 C1089 1.377 . S
C1088 C1090 1.384 . S
C1089 C1088 1.377 . S
C1089 C1095 1.390 . S
C1090 H1081 0.930 . S
C1090 C1088 1.384 . S
C1090 C1091 1.372 . S
C1091 C1090 1.372 . S
C1091 C1092 1.400 . S
C1091 C1096 1.490 . S
C1092 H1082 0.930 . S
C1092 C1091 1.400 . S
C1092 C1095 1.386 . S
H1093 C1109 0.930 . S
H1094 C1110 0.931 . S
C1095 H1083 0.929 . S
C1095 C1089 1.390 . S
C1095 C1092 1.386 . S
C1096 C1091 1.490 . S
C1096 C1098 1.395 . S
C1096 C1099 1.403 . S
H1097 C1103 0.930 . S
C1098 H1084 0.930 . S
C1098 C1096 1.395 . S
C1098 C1101 1.403 . S
C1099 C1096 1.403 . S
C1099 C1100 1.524 . S
C1099 C1103 1.400 . S
C1100 H1085 0.960 . S
C1100 H1086 0.960 . S
C1100 H1087 0.960 . S
C1100 C1099 1.524 . S
C1101 C1098 1.403 . S
C1101 C1102 1.392 . S
C1101 C1105 1.495 . S
C1102 C1101 1.392 . S
C1102 C1103 1.385 . S
C1102 C1104 1.478 . S
C1103 H1097 0.930 . S
C1103 C1099 1.400 . S
C1103 C1102 1.385 . S
C1104 C1102 1.478 . S
C1104 C1106 1.381 . S
C1104 C1110 1.383 . S
C1105 C1101 1.495 . S
C1105 H1111 0.959 . S
C1105 H1112 0.961 . S
C1105 H1113 0.960 . S
C1106 C1104 1.381 . S
C1106 C1107 1.394 . S
C1106 H1114 0.930 . S
C1107 C1106 1.394 . S
C1107 C1108 1.383 . S
C1107 H1115 0.929 . S
C1108 C1107 1.383 . S
C1108 C1109 1.377 . S
C1109 H1093 0.930 . S
C1109 C1108 1.377 . S
C1109 C1110 1.379 . S
C1110 H1094 0.931 . S
C1110 C1104 1.383 . S
C1110 C1109 1.379 . S
H1111 C1105 0.959 . S
H1112 C1105 0.961 . S
H1113 C1105 0.960 . S
H1114 C1106 0.930 . S
H1115 C1107 0.929 . S
H1116 C1124 0.929 . S
H1117 C1126 0.930 . S
H1118 C1128 0.930 . S
H1119 C1131 0.929 . S
H1120 C1134 0.930 . S
H1121 C1136 0.960 . S
H1122 C1136 0.960 . S
H1123 C1136 0.960 . S
C1124 H1116 0.929 . S
C1124 C1125 1.377 . S
C1124 C1126 1.384 . S
C1125 C1124 1.377 . S
C1125 C1131 1.390 . S
C1126 H1117 0.930 . S
C1126 C1124 1.384 . S
C1126 C1127 1.372 . S
C1127 C1126 1.372 . S
C1127 C1128 1.400 . S
C1127 C1132 1.490 . S
C1128 H1118 0.930 . S
C1128 C1127 1.400 . S
C1128 C1131 1.386 . S
H1129 C1145 0.930 . S
H1130 C1146 0.931 . S
C1131 H1119 0.929 . S
C1131 C1125 1.390 . S
C1131 C1128 1.386 . S
C1132 C1127 1.490 . S
C1132 C1134 1.395 . S
C1132 C1135 1.403 . S
H1133 C1139 0.930 . S
C1134 H1120 0.930 . S
C1134 C1132 1.395 . S
C1134 C1137 1.403 . S
C1135 C1132 1.403 . S
C1135 C1136 1.524 . S
C1135 C1139 1.400 . S
C1136 H1121 0.960 . S
C1136 H1122 0.960 . S
C1136 H1123 0.960 . S
C1136 C1135 1.524 . S
C1137 C1134 1.403 . S
C1137 C1138 1.392 . S
C1137 C1141 1.495 . S
C1138 C1137 1.392 . S
C1138 C1139 1.385 . S
C1138 C1140 1.478 . S
C1139 H1133 0.930 . S
C1139 C1135 1.400 . S
C1139 C1138 1.385 . S
C1140 C1138 1.478 . S
C1140 C1142 1.381 . S
C1140 C1146 1.383 . S
C1141 C1137 1.495 . S
C1141 H1147 0.959 . S
C1141 H1148 0.961 . S
C1141 H1149 0.960 . S
C1142 C1140 1.381 . S
C1142 C1143 1.394 . S
C1142 H1150 0.930 . S
C1143 C1142 1.394 . S
C1143 C1144 1.383 . S
C1143 H1151 0.929 . S
C1144 C1143 1.383 . S
C1144 C1145 1.377 . S
C1145 H1129 0.930 . S
C1145 C1144 1.377 . S
C1145 C1146 1.379 . S
C1146 H1130 0.931 . S
C1146 C1140 1.383 . S
C1146 C1145 1.379 . S
H1147 C1141 0.959 . S
H1148 C1141 0.961 . S
H1149 C1141 0.960 . S
H1150 C1142 0.930 . S
H1151 C1143 0.929 . S
H1152 C1160 0.929 . S
H1153 C1162 0.930 . S
H1154 C1164 0.930 . S
H1155 C1167 0.929 . S
H1156 C1170 0.930 . S
H1157 C1172 0.960 . S
H1158 C1172 0.960 . S
H1159 C1172 0.960 . S
C1160 H1152 0.929 . S
C1160 C1161 1.377 . S
C1160 C1162 1.384 . S
C1161 C1160 1.377 . S
C1161 C1167 1.390 . S
C1162 H1153 0.930 . S
C1162 C1160 1.384 . S
C1162 C1163 1.372 . S
C1163 C1162 1.372 . S
C1163 C1164 1.400 . S
C1163 C1168 1.490 . S
C1164 H1154 0.930 . S
C1164 C1163 1.400 . S
C1164 C1167 1.386 . S
H1165 C1181 0.930 . S
H1166 C1182 0.931 . S
C1167 H1155 0.929 . S
C1167 C1161 1.390 . S
C1167 C1164 1.386 . S
C1168 C1163 1.490 . S
C1168 C1170 1.395 1_554 S
C1168 C1171 1.403 . S
H1169 C1175 0.930 . S
C1170 H1156 0.930 . S
C1170 C1168 1.395 1_556 S
C1170 C1173 1.403 . S
C1171 C1168 1.403 . S
C1171 C1172 1.524 . S
C1171 C1175 1.400 1_554 S
C1172 H1157 0.960 . S
C1172 H1158 0.960 . S
C1172 H1159 0.960 . S
C1172 C1171 1.524 . S
C1173 C1170 1.403 . S
C1173 C1174 1.392 . S
C1173 C1177 1.495 . S
C1174 C1173 1.392 . S
C1174 C1175 1.385 . S
C1174 C1176 1.478 . S
C1175 H1169 0.930 . S
C1175 C1171 1.400 1_556 S
C1175 C1174 1.385 . S
C1176 C1174 1.478 . S
C1176 C1178 1.381 . S
C1176 C1182 1.383 . S
C1177 C1173 1.495 . S
C1177 H1183 0.959 . S
C1177 H1184 0.961 . S
C1177 H1185 0.960 . S
C1178 C1176 1.381 . S
C1178 C1179 1.394 . S
C1178 H1186 0.930 . S
C1179 C1178 1.394 . S
C1179 C1180 1.383 . S
C1179 H1187 0.929 . S
C1180 C1179 1.383 . S
C1180 C1181 1.377 . S
C1181 H1165 0.930 . S
C1181 C1180 1.377 . S
C1181 C1182 1.379 . S
C1182 H1166 0.931 . S
C1182 C1176 1.383 . S
C1182 C1181 1.379 . S
H1183 C1177 0.959 . S
H1184 C1177 0.961 . S
H1185 C1177 0.960 . S
H1186 C1178 0.930 . S
H1187 C1179 0.929 . S
H1188 C1196 0.929 . S
H1189 C1198 0.930 . S
H1190 C1200 0.930 1_556 S
H1191 C1203 0.929 . S
H1192 C1206 0.930 . S
H1193 C1208 0.960 . S
H1194 C1208 0.960 1_554 S
H1195 C1208 0.960 . S
C1196 H1188 0.929 . S
C1196 C1197 1.377 . S
C1196 C1198 1.384 . S
C1197 C1196 1.377 . S
C1197 C1203 1.390 . S
C1198 H1189 0.930 . S
C1198 C1196 1.384 . S
C1198 C1199 1.372 . S
C1199 C1198 1.372 . S
C1199 C1200 1.400 . S
C1199 C1204 1.490 . S
C1200 H1190 0.930 1_554 S
C1200 C1199 1.400 . S
C1200 C1203 1.386 . S
H1201 C1217 0.930 . S
H1202 C1218 0.931 . S
C1203 H1191 0.929 . S
C1203 C1197 1.390 . S
C1203 C1200 1.386 . S
C1204 C1199 1.490 . S
C1204 C1206 1.395 . S
C1204 C1207 1.403 1_554 S
H1205 C1211 0.930 . S
C1206 H1192 0.930 . S
C1206 C1204 1.395 . S
C1206 C1209 1.403 1_554 S
C1207 C1204 1.403 1_556 S
C1207 C1208 1.524 . S
C1207 C1211 1.400 . S
C1208 H1193 0.960 . S
C1208 H1194 0.960 1_556 S
C1208 H1195 0.960 . S
C1208 C1207 1.524 . S
C1209 C1206 1.403 1_556 S
C1209 C1210 1.392 . S
C1209 C1213 1.495 . S
C1210 C1209 1.392 . S
C1210 C1211 1.385 . S
C1210 C1212 1.478 . S
C1211 H1205 0.930 . S
C1211 C1207 1.400 . S
C1211 C1210 1.385 . S
C1212 C1210 1.478 . S
C1212 C1214 1.382 . S
C1212 C1218 1.383 . S
C1213 C1209 1.495 . S
C1213 H1219 0.959 1_556 S
C1213 H1220 0.961 . S
C1213 H1221 0.960 1_556 S
C1214 C1212 1.382 . S
C1214 C1215 1.393 1_565 S
C1214 H1222 0.930 . S
C1215 C1214 1.393 1_545 S
C1215 C1216 1.383 . S
C1215 H1223 0.929 . S
C1216 C1215 1.383 . S
C1216 C1217 1.377 . S
C1217 H1201 0.930 . S
C1217 C1216 1.377 . S
C1217 C1218 1.379 1_545 S
C1218 H1202 0.931 . S
C1218 C1212 1.383 . S
C1218 C1217 1.379 1_565 S
H1219 C1213 0.959 1_554 S
H1220 C1213 0.961 . S
H1221 C1213 0.960 1_554 S
H1222 C1214 0.930 . S
H1223 C1215 0.929 . S
H1224 C1232 0.929 . S
H1225 C1234 0.930 1_556 S
H1226 C1236 0.930 . S
H1227 C1239 0.929 . S
H1228 C1242 0.942 . S
H1229 C1244 0.960 . S
H1230 C1244 0.960 . S
H1231 C1244 0.960 1_554 S
C1232 H1224 0.929 . S
C1232 C1233 1.377 . S
C1232 C1234 1.384 . S
C1233 C1232 1.377 . S
C1233 C1239 1.390 . S
C1234 H1225 0.930 1_554 S
C1234 C1232 1.384 . S
C1234 C1235 1.372 . S
C1235 C1234 1.372 . S
C1235 C1236 1.400 . S
C1235 C1240 1.500 . S
C1236 H1226 0.930 . S
C1236 C1235 1.400 . S
C1236 C1239 1.386 . S
H1237 C1253 0.967 . S
H1238 C1254 0.931 . S
C1239 H1227 0.929 . S
C1239 C1233 1.390 . S
C1239 C1236 1.386 . S
C1240 C1235 1.500 . S
C1240 C1242 1.390 1_554 S
C1240 C1243 1.397 1_554 S
H1241 C1247 0.930 . S
C1242 H1228 0.942 . S
C1242 C1240 1.390 1_556 S
C1242 C1245 1.403 . S
C1243 C1240 1.397 1_556 S
C1243 C1244 1.524 . S
C1243 C1247 1.400 . S
C1244 H1229 0.960 . S
C1244 H1230 0.960 . S
C1244 H1231 0.960 1_556 S
C1244 C1243 1.524 . S
C1245 C1242 1.403 . S
C1245 C1246 1.392 . S
C1245 C1249 1.495 . S
C1246 C1245 1.392 . S
C1246 C1247 1.385 . S
C1246 C1248 1.478 . S
C1247 H1241 0.930 . S
C1247 C1243 1.400 . S
C1247 C1246 1.385 . S
C1248 C1246 1.478 . S
C1248 C1250 1.381 . S
C1248 C1254 1.383 . S
C1249 C1245 1.495 . S
C1249 H1255 0.959 . S
C1249 H1256 0.961 . S
C1249 H1257 0.960 . S
C1250 C1248 1.381 . S
C1250 C1251 1.394 . S
C1250 H1258 0.930 . S
C1251 C1250 1.394 . S
C1251 C1252 1.383 1_455 S
C1251 H1259 0.929 . S
C1252 C1251 1.383 1_655 S
C1252 C1253 1.373 . S
C1253 H1237 0.967 . S
C1253 C1252 1.373 . S
C1253 C1254 1.348 1_655 S
C1254 H1238 0.931 . S
C1254 C1248 1.383 . S
C1254 C1253 1.348 1_455 S
H1255 C1249 0.959 . S
H1256 C1249 0.961 . S
H1257 C1249 0.960 . S
H1258 C1250 0.930 . S
H1259 C1251 0.929 . S
H1260 C1268 0.929 . S
H1261 C1270 0.930 . S
H1262 C1272 0.930 . S
H1263 C1275 0.929 . S
H1264 C1278 0.930 . S
H1265 C1280 0.960 . S
H1266 C1280 0.960 . S
H1267 C1280 0.960 . S
C1268 H1260 0.929 . S
C1268 C1269 1.377 . S
C1268 C1270 1.384 . S
C1269 C1268 1.377 . S
C1269 C1275 1.390 . S
C1270 H1261 0.930 . S
C1270 C1268 1.384 . S
C1270 C1271 1.372 . S
C1271 C1270 1.372 . S
C1271 C1272 1.400 . S
C1271 C1276 1.490 . S
C1272 H1262 0.930 . S
C1272 C1271 1.400 . S
C1272 C1275 1.386 . S
H1273 C1289 0.930 . S
H1274 C1290 0.931 . S
C1275 H1263 0.929 . S
C1275 C1269 1.390 . S
C1275 C1272 1.386 . S
C1276 C1271 1.490 . S
C1276 C1278 1.395 . S
C1276 C1279 1.403 . S
H1277 C1283 0.930 . S
C1278 H1264 0.930 . S
C1278 C1276 1.395 . S
C1278 C1281 1.403 . S
C1279 C1276 1.403 . S
C1279 C1280 1.524 . S
C1279 C1283 1.400 . S
C1280 H1265 0.960 . S
C1280 H1266 0.960 . S
C1280 H1267 0.960 . S
C1280 C1279 1.524 . S
C1281 C1278 1.403 . S
C1281 C1282 1.392 . S
C1281 C1285 1.495 . S
C1282 C1281 1.392 . S
C1282 C1283 1.385 . S
C1282 C1284 1.478 . S
C1283 H1277 0.930 . S
C1283 C1279 1.400 . S
C1283 C1282 1.385 . S
C1284 C1282 1.478 . S
C1284 C1286 1.381 . S
C1284 C1290 1.383 . S
C1285 C1281 1.495 . S
C1285 H1291 0.959 . S
C1285 H1292 0.961 . S
C1285 H1293 0.960 . S
C1286 C1284 1.381 . S
C1286 C1287 1.394 . S
C1286 H1294 0.930 . S
C1287 C1286 1.394 . S
C1287 C1288 1.383 . S
C1287 H1295 0.929 . S
C1288 C1287 1.383 . S
C1288 C1289 1.377 . S
C1289 H1273 0.930 . S
C1289 C1288 1.377 . S
C1289 C1290 1.379 . S
C1290 H1274 0.931 . S
C1290 C1284 1.383 . S
C1290 C1289 1.379 . S
H1291 C1285 0.959 . S
H1292 C1285 0.961 . S
H1293 C1285 0.960 . S
H1294 C1286 0.930 . S
H1295 C1287 0.929 . S
H1296 C1304 0.929 . S
H1297 C1306 0.930 . S
H1298 C1308 0.930 . S
H1299 C1311 0.929 . S
H1300 C1314 0.930 . S
H1301 C1316 0.960 . S
H1302 C1316 0.960 . S
H1303 C1316 0.960 . S
C1304 H1296 0.929 . S
C1304 C1305 1.377 . S
C1304 C1306 1.384 . S
C1305 C1304 1.377 . S
C1305 C1311 1.390 . S
C1306 H1297 0.930 . S
C1306 C1304 1.384 . S
C1306 C1307 1.372 . S
C1307 C1306 1.372 . S
C1307 C1308 1.400 . S
C1307 C1312 1.490 . S
C1308 H1298 0.930 . S
C1308 C1307 1.400 . S
C1308 C1311 1.386 . S
H1309 C1325 0.930 . S
H1310 C1326 0.931 . S
C1311 H1299 0.929 . S
C1311 C1305 1.390 . S
C1311 C1308 1.386 . S
C1312 C1307 1.490 . S
C1312 C1314 1.395 . S
C1312 C1315 1.403 . S
H1313 C1319 0.930 . S
C1314 H1300 0.930 . S
C1314 C1312 1.395 . S
C1314 C1317 1.403 . S
C1315 C1312 1.403 . S
C1315 C1316 1.524 . S
C1315 C1319 1.400 . S
C1316 H1301 0.960 . S
C1316 H1302 0.960 . S
C1316 H1303 0.960 . S
C1316 C1315 1.524 . S
C1317 C1314 1.403 . S
C1317 C1318 1.392 . S
C1317 C1321 1.495 . S
C1318 C1317 1.392 . S
C1318 C1319 1.385 . S
C1318 C1320 1.478 . S
C1319 H1313 0.930 . S
C1319 C1315 1.400 . S
C1319 C1318 1.385 . S
C1320 C1318 1.478 . S
C1320 C1322 1.381 . S
C1320 C1326 1.383 . S
C1321 C1317 1.495 . S
C1321 H1327 0.959 . S
C1321 H1328 0.961 . S
C1321 H1329 0.960 . S
C1322 C1320 1.381 . S
C1322 C1323 1.394 . S
C1322 H1330 0.930 . S
C1323 C1322 1.394 . S
C1323 C1324 1.383 . S
C1323 H1331 0.929 . S
C1324 C1323 1.383 . S
C1324 C1325 1.377 . S
C1325 H1309 0.930 . S
C1325 C1324 1.377 . S
C1325 C1326 1.379 . S
C1326 H1310 0.931 . S
C1326 C1320 1.383 . S
C1326 C1325 1.379 . S
H1327 C1321 0.959 . S
H1328 C1321 0.961 . S
H1329 C1321 0.960 . S
H1330 C1322 0.930 . S
H1331 C1323 0.929 . S
H1332 C1340 0.929 . S
H1333 C1342 0.930 . S
H1334 C1344 0.930 . S
H1335 C1347 0.929 . S
H1336 C1350 0.930 . S
H1337 C1352 0.960 . S
H1338 C1352 0.960 . S
H1339 C1352 0.960 . S
C1340 H1332 0.929 . S
C1340 C1341 1.377 . S
C1340 C1342 1.384 . S
C1341 C1340 1.377 . S
C1341 C1347 1.390 . S
C1342 H1333 0.930 . S
C1342 C1340 1.384 . S
C1342 C1343 1.372 . S
C1343 C1342 1.372 . S
C1343 C1344 1.400 . S
C1343 C1348 1.490 . S
C1344 H1334 0.930 . S
C1344 C1343 1.400 . S
C1344 C1347 1.386 . S
H1345 C1361 0.930 . S
H1346 C1362 0.931 . S
C1347 H1335 0.929 . S
C1347 C1341 1.390 . S
C1347 C1344 1.386 . S
C1348 C1343 1.490 . S
C1348 C1350 1.395 . S
C1348 C1351 1.403 . S
H1349 C1355 0.930 . S
C1350 H1336 0.930 . S
C1350 C1348 1.395 . S
C1350 C1353 1.403 . S
C1351 C1348 1.403 . S
C1351 C1352 1.524 . S
C1351 C1355 1.400 . S
C1352 H1337 0.960 . S
C1352 H1338 0.960 . S
C1352 H1339 0.960 . S
C1352 C1351 1.524 . S
C1353 C1350 1.403 . S
C1353 C1354 1.392 . S
C1353 C1357 1.495 . S
C1354 C1353 1.392 . S
C1354 C1355 1.385 . S
C1354 C1356 1.478 . S
C1355 H1349 0.930 . S
C1355 C1351 1.400 . S
C1355 C1354 1.385 . S
C1356 C1354 1.478 . S
C1356 C1358 1.381 . S
C1356 C1362 1.383 . S
C1357 C1353 1.495 . S
C1357 H1363 0.959 . S
C1357 H1364 0.961 . S
C1357 H1365 0.960 . S
C1358 C1356 1.381 . S
C1358 C1359 1.394 . S
C1358 H1366 0.930 . S
C1359 C1358 1.394 . S
C1359 C1360 1.383 . S
C1359 H1367 0.929 . S
C1360 C1359 1.383 . S
C1360 C1361 1.377 . S
C1361 H1345 0.930 . S
C1361 C1360 1.377 . S
C1361 C1362 1.379 . S
C1362 H1346 0.931 . S
C1362 C1356 1.383 . S
C1362 C1361 1.379 . S
H1363 C1357 0.959 . S
H1364 C1357 0.961 . S
H1365 C1357 0.960 . S
H1366 C1358 0.930 . S
H1367 C1359 0.929 . S
H1368 C1376 0.929 . S
H1369 C1378 0.930 1_554 S
H1370 C1380 0.930 . S
H1371 C1383 0.929 . S
H1372 C1386 0.930 . S
H1373 C1388 0.960 . S
H1374 C1388 0.960 . S
H1375 C1388 0.960 . S
C1376 H1368 0.929 . S
C1376 C1377 1.377 . S
C1376 C1378 1.384 . S
C1377 C1376 1.377 . S
C1377 C1383 1.390 . S
C1378 H1369 0.930 1_556 S
C1378 C1376 1.384 . S
C1378 C1379 1.372 . S
C1379 C1378 1.372 . S
C1379 C1380 1.400 . S
C1379 C1384 1.509 . S
C1380 H1370 0.930 . S
C1380 C1379 1.400 . S
C1380 C1383 1.386 . S
H1381 C1397 0.930 . S
H1382 C1398 0.931 . S
C1383 H1371 0.929 . S
C1383 C1377 1.390 . S
C1383 C1380 1.386 . S
C1384 C1379 1.509 . S
C1384 C1386 1.356 1_556 S
C1384 C1387 1.422 . S
H1385 C1391 0.929 1_556 S
C1386 H1372 0.930 . S
C1386 C1384 1.356 1_554 S
C1386 C1389 1.403 . S
C1387 C1384 1.422 . S
C1387 C1388 1.524 . S
C1387 C1391 1.398 1_556 S
C1388 H1373 0.960 . S
C1388 H1374 0.960 . S
C1388 H1375 0.960 . S
C1388 C1387 1.524 . S
C1389 C1386 1.403 . S
C1389 C1390 1.392 . S
C1389 C1393 1.495 . S
C1390 C1389 1.392 . S
C1390 C1391 1.388 . S
C1390 C1392 1.478 . S
C1391 H1385 0.929 1_554 S
C1391 C1387 1.398 1_554 S
C1391 C1390 1.388 . S
C1392 C1390 1.478 . S
C1392 C1394 1.381 . S
C1392 C1398 1.383 . S
C1393 C1389 1.495 . S
C1393 H1399 0.959 . S
C1393 H1400 0.961 . S
C1393 H1401 0.960 . S
C1394 C1392 1.381 . S
C1394 C1395 1.394 . S
C1394 H1402 0.930 . S
C1395 C1394 1.394 . S
C1395 C1396 1.383 . S
C1395 H1403 0.929 . S
C1396 C1395 1.383 . S
C1396 C1397 1.377 . S
C1397 H1381 0.930 . S
C1397 C1396 1.377 . S
C1397 C1398 1.379 . S
C1398 H1382 0.931 . S
C1398 C1392 1.383 . S
C1398 C1397 1.379 . S
H1399 C1393 0.959 . S
H1400 C1393 0.961 . S
H1401 C1393 0.960 . S
H1402 C1394 0.930 . S
H1403 C1395 0.929 . S
H1404 C1412 0.929 . S
H1405 C1414 0.905 1_554 S
H1406 C1416 0.930 . S
H1407 C1419 0.929 . S
H1408 C1422 0.930 . S
H1409 C1424 0.960 . S
H1410 C1424 0.960 1_554 S
H1411 C1424 0.960 . S
C1412 H1404 0.929 . S
C1412 C1413 1.377 . S
C1412 C1414 1.396 . S
C1413 C1412 1.377 . S
C1413 C1419 1.390 . S
C1414 H1405 0.905 1_556 S
C1414 C1412 1.396 . S
C1414 C1415 1.385 . S
C1415 C1414 1.385 . S
C1415 C1416 1.400 . S
C1415 C1420 1.489 . S
C1416 H1406 0.930 . S
C1416 C1415 1.400 . S
C1416 C1419 1.386 . S
H1417 C1433 0.930 1_565 S
H1418 C1434 0.931 . S
C1419 H1407 0.929 . S
C1419 C1413 1.390 . S
C1419 C1416 1.386 . S
C1420 C1415 1.489 . S
C1420 C1422 1.395 1_556 S
C1420 C1423 1.403 1_556 S
H1421 C1427 0.930 . S
C1422 H1408 0.930 . S
C1422 C1420 1.395 1_554 S
C1422 C1425 1.403 . S
C1423 C1420 1.403 1_554 S
C1423 C1424 1.524 1_554 S
C1423 C1427 1.400 . S
C1424 H1409 0.960 . S
C1424 H1410 0.960 1_556 S
C1424 H1411 0.960 . S
C1424 C1423 1.524 1_556 S
C1425 C1422 1.403 . S
C1425 C1426 1.392 . S
C1425 C1429 1.495 . S
C1426 C1425 1.392 . S
C1426 C1427 1.385 . S
C1426 C1428 1.478 . S
C1427 H1421 0.930 . S
C1427 C1423 1.400 . S
C1427 C1426 1.385 . S
C1428 C1426 1.478 . S
C1428 C1430 1.381 . S
C1428 C1434 1.383 . S
C1429 C1425 1.495 . S
C1429 H1435 0.959 . S
C1429 H1436 0.961 . S
C1429 H1437 0.960 . S
C1430 C1428 1.381 . S
C1430 C1431 1.394 . S
C1430 H1438 0.930 . S
C1431 C1430 1.394 . S
C1431 C1432 1.383 . S
C1431 H1439 0.929 . S
C1432 C1431 1.383 . S
C1432 C1433 1.377 . S
C1433 H1417 0.930 1_545 S
C1433 C1432 1.377 . S
C1433 C1434 1.379 . S
C1434 H1418 0.931 . S
C1434 C1428 1.383 . S
C1434 C1433 1.379 . S
H1435 C1429 0.959 . S
H1436 C1429 0.961 . S
H1437 C1429 0.960 . S
H1438 C1430 0.930 . S
H1439 C1431 0.929 . S
H1440 C1448 0.929 . S
H1441 C1450 0.961 . S
H1442 C1452 0.930 . S
H1443 C1455 0.929 . S
H1444 C1458 0.930 . S
H1445 C1460 0.960 . S
H1446 C1460 0.960 . S
H1447 C1460 0.960 . S
C1448 H1440 0.929 . S
C1448 C1449 1.377 . S
C1448 C1450 1.369 1_556 S
C1449 C1448 1.377 . S
C1449 C1455 1.390 . S
C1450 H1441 0.961 . S
C1450 C1448 1.369 1_554 S
C1450 C1451 1.356 1_554 S
C1451 C1450 1.356 1_556 S
C1451 C1452 1.400 . S
C1451 C1456 1.484 1_556 S
C1452 H1442 0.930 . S
C1452 C1451 1.400 . S
C1452 C1455 1.386 . S
H1453 C1469 0.930 . S
H1454 C1470 0.931 . S
C1455 H1443 0.929 . S
C1455 C1449 1.390 . S
C1455 C1452 1.386 . S
C1456 C1451 1.484 1_554 S
C1456 C1458 1.403 . S
C1456 C1459 1.401 1_554 S
H1457 C1463 0.930 . S
C1458 H1444 0.930 . S
C1458 C1456 1.403 . S
C1458 C1461 1.403 . S
C1459 C1456 1.401 1_556 S
C1459 C1460 1.524 . S
C1459 C1463 1.400 1_556 S
C1460 H1445 0.960 . S
C1460 H1446 0.960 . S
C1460 H1447 0.960 . S
C1460 C1459 1.524 . S
C1461 C1458 1.403 . S
C1461 C1462 1.392 . S
C1461 C1465 1.495 . S
C1462 C1461 1.392 . S
C1462 C1463 1.385 . S
C1462 C1464 1.478 . S
C1463 H1457 0.930 . S
C1463 C1459 1.400 1_554 S
C1463 C1462 1.385 . S
C1464 C1462 1.478 . S
C1464 C1466 1.381 . S
C1464 C1470 1.383 . S
C1465 C1461 1.495 . S
C1465 H1471 0.959 . S
C1465 H1472 0.961 . S
C1465 H1473 0.960 . S
C1466 C1464 1.381 . S
C1466 C1467 1.394 1_655 S
C1466 H1474 0.930 . S
C1467 C1466 1.394 1_455 S
C1467 C1468 1.383 . S
C1467 H1475 0.929 . S
C1468 C1467 1.383 . S
C1468 C1469 1.377 . S
C1469 H1453 0.930 . S
C1469 C1468 1.377 . S
C1469 C1470 1.379 1_455 S
C1470 H1454 0.931 . S
C1470 C1464 1.383 . S
C1470 C1469 1.379 1_655 S
H1471 C1465 0.959 . S
H1472 C1465 0.961 . S
H1473 C1465 0.960 . S
H1474 C1466 0.930 . S
H1475 C1467 0.929 . S
H1476 C1484 0.929 . S
H1477 C1486 0.930 . S
H1478 C1488 0.930 . S
H1479 C1491 0.929 . S
H1480 C1494 0.930 . S
H1481 C1496 0.960 . S
H1482 C1496 0.960 . S
H1483 C1496 0.960 . S
C1484 H1476 0.929 . S
C1484 C1485 1.377 . S
C1484 C1486 1.384 . S
C1485 C1484 1.377 . S
C1485 C1491 1.390 . S
C1486 H1477 0.930 . S
C1486 C1484 1.384 . S
C1486 C1487 1.372 . S
C1487 C1486 1.372 . S
C1487 C1488 1.400 . S
C1487 C1492 1.490 . S
C1488 H1478 0.930 . S
C1488 C1487 1.400 . S
C1488 C1491 1.386 . S
H1489 C1505 0.930 . S
H1490 C1506 0.931 . S
C1491 H1479 0.929 . S
C1491 C1485 1.390 . S
C1491 C1488 1.386 . S
C1492 C1487 1.490 . S
C1492 C1494 1.395 . S
C1492 C1495 1.403 . S
H1493 C1499 0.930 . S
C1494 H1480 0.930 . S
C1494 C1492 1.395 . S
C1494 C1497 1.403 . S
C1495 C1492 1.403 . S
C1495 C1496 1.524 . S
C1495 C1499 1.400 . S
C1496 H1481 0.960 . S
C1496 H1482 0.960 . S
C1496 H1483 0.960 . S
C1496 C1495 1.524 . S
C1497 C1494 1.403 . S
C1497 C1498 1.392 . S
C1497 C1501 1.495 . S
C1498 C1497 1.392 . S
C1498 C1499 1.385 . S
C1498 C1500 1.478 . S
C1499 H1493 0.930 . S
C1499 C1495 1.400 . S
C1499 C1498 1.385 . S
C1500 C1498 1.478 . S
C1500 C1502 1.381 . S
C1500 C1506 1.383 . S
C1501 C1497 1.495 . S
C1501 H1507 0.959 . S
C1501 H1508 0.961 . S
C1501 H1509 0.960 . S
C1502 C1500 1.381 . S
C1502 C1503 1.394 . S
C1502 H1510 0.930 . S
C1503 C1502 1.394 . S
C1503 C1504 1.383 . S
C1503 H1511 0.929 . S
C1504 C1503 1.383 . S
C1504 C1505 1.377 . S
C1505 H1489 0.930 . S
C1505 C1504 1.377 . S
C1505 C1506 1.379 . S
C1506 H1490 0.931 . S
C1506 C1500 1.383 . S
C1506 C1505 1.379 . S
H1507 C1501 0.959 . S
H1508 C1501 0.961 . S
H1509 C1501 0.960 . S
H1510 C1502 0.930 . S
H1511 C1503 0.929 . S
H1512 C1520 0.929 . S
H1513 C1522 0.930 . S
H1514 C1524 0.930 . S
H1515 C1527 0.929 . S
H1516 C1530 0.930 . S
H1517 C1532 0.960 . S
H1518 C1532 0.960 . S
H1519 C1532 0.960 . S
C1520 H1512 0.929 . S
C1520 C1521 1.377 . S
C1520 C1522 1.384 . S
C1521 C1520 1.377 . S
C1521 C1527 1.390 . S
C1522 H1513 0.930 . S
C1522 C1520 1.384 . S
C1522 C1523 1.372 . S
C1523 C1522 1.372 . S
C1523 C1524 1.400 . S
C1523 C1528 1.490 . S
C1524 H1514 0.930 . S
C1524 C1523 1.400 . S
C1524 C1527 1.386 . S
H1525 C1541 0.930 . S
H1526 C1542 0.931 . S
C1527 H1515 0.929 . S
C1527 C1521 1.390 . S
C1527 C1524 1.386 . S
C1528 C1523 1.490 . S
C1528 C1530 1.395 . S
C1528 C1531 1.403 . S
H1529 C1535 0.930 . S
C1530 H1516 0.930 . S
C1530 C1528 1.395 . S
C1530 C1533 1.403 . S
C1531 C1528 1.403 . S
C1531 C1532 1.524 . S
C1531 C1535 1.400 . S
C1532 H1517 0.960 . S
C1532 H1518 0.960 . S
C1532 H1519 0.960 . S
C1532 C1531 1.524 . S
C1533 C1530 1.403 . S
C1533 C1534 1.392 . S
C1533 C1537 1.495 . S
C1534 C1533 1.392 . S
C1534 C1535 1.385 . S
C1534 C1536 1.478 . S
C1535 H1529 0.930 . S
C1535 C1531 1.400 . S
C1535 C1534 1.385 . S
C1536 C1534 1.478 . S
C1536 C1538 1.381 . S
C1536 C1542 1.383 . S
C1537 C1533 1.495 . S
C1537 H1543 0.959 . S
C1537 H1544 0.961 . S
C1537 H1545 0.960 . S
C1538 C1536 1.381 . S
C1538 C1539 1.394 . S
C1538 H1546 0.930 . S
C1539 C1538 1.394 . S
C1539 C1540 1.383 . S
C1539 H1547 0.929 1_545 S
C1540 C1539 1.383 . S
C1540 C1541 1.377 . S
C1541 H1525 0.930 . S
C1541 C1540 1.377 . S
C1541 C1542 1.379 . S
C1542 H1526 0.931 . S
C1542 C1536 1.383 . S
C1542 C1541 1.379 . S
H1543 C1537 0.959 . S
H1544 C1537 0.961 . S
H1545 C1537 0.960 . S
H1546 C1538 0.930 . S
H1547 C1539 0.929 1_565 S
H1548 C1556 0.929 . S
H1549 C1558 0.930 . S
H1550 C1560 0.930 . S
H1551 C1563 0.929 . S
H1552 C1566 0.930 . S
H1553 C1568 0.960 . S
H1554 C1568 0.960 . S
H1555 C1568 0.960 . S
C1556 H1548 0.929 . S
C1556 C1557 1.377 . S
C1556 C1558 1.384 1_455 S
C1557 C1556 1.377 . S
C1557 C1563 1.390 . S
C1558 H1549 0.930 . S
C1558 C1556 1.384 1_655 S
C1558 C1559 1.372 . S
C1559 C1558 1.372 . S
C1559 C1560 1.400 . S
C1559 C1564 1.490 . S
C1560 H1550 0.930 . S
C1560 C1559 1.400 . S
C1560 C1563 1.386 1_655 S
H1561 C1577 0.930 . S
H1562 C1578 0.931 . S
C1563 H1551 0.929 . S
C1563 C1557 1.390 . S
C1563 C1560 1.386 1_455 S
C1564 C1559 1.490 . S
C1564 C1566 1.395 . S
C1564 C1567 1.403 . S
H1565 C1571 0.930 . S
C1566 H1552 0.930 . S
C1566 C1564 1.395 . S
C1566 C1569 1.403 . S
C1567 C1564 1.403 . S
C1567 C1568 1.524 . S
C1567 C1571 1.400 . S
C1568 H1553 0.960 . S
C1568 H1554 0.960 . S
C1568 H1555 0.960 . S
C1568 C1567 1.524 . S
C1569 C1566 1.403 . S
C1569 C1570 1.392 . S
C1569 C1573 1.495 . S
C1570 C1569 1.392 . S
C1570 C1571 1.385 . S
C1570 C1572 1.478 . S
C1571 H1565 0.930 . S
C1571 C1567 1.400 . S
C1571 C1570 1.385 . S
C1572 C1570 1.478 . S
C1572 C1574 1.381 . S
C1572 C1578 1.383 . S
C1573 C1569 1.495 . S
C1573 H1579 0.959 . S
C1573 H1580 0.961 . S
C1573 H1581 0.960 . S
C1574 C1572 1.381 . S
C1574 C1575 1.394 . S
C1574 H1582 0.930 . S
C1575 C1574 1.394 . S
C1575 C1576 1.383 . S
C1575 H1583 0.929 . S
C1576 C1575 1.383 . S
C1576 C1577 1.377 . S
C1577 H1561 0.930 . S
C1577 C1576 1.377 . S
C1577 C1578 1.379 . S
C1578 H1562 0.931 . S
C1578 C1572 1.383 . S
C1578 C1577 1.379 . S
H1579 C1573 0.959 . S
H1580 C1573 0.961 . S
H1581 C1573 0.960 . S
H1582 C1574 0.930 . S
H1583 C1575 0.929 . S
H1584 C1592 0.929 . S
H1585 C1594 0.930 . S
H1586 C1596 0.930 . S
H1587 C1599 0.929 . S
H1588 C1602 0.930 . S
H1589 C1604 0.960 . S
H1590 C1604 0.960 . S
H1591 C1604 0.960 . S
C1592 H1584 0.929 . S
C1592 C1593 1.377 . S
C1592 C1594 1.384 . S
C1593 C1592 1.377 . S
C1593 C1599 1.390 . S
C1594 H1585 0.930 . S
C1594 C1592 1.384 . S
C1594 C1595 1.372 . S
C1595 C1594 1.372 . S
C1595 C1596 1.400 . S
C1595 C1600 1.490 . S
C1596 H1586 0.930 . S
C1596 C1595 1.400 . S
C1596 C1599 1.386 . S
H1597 C1613 0.930 . S
H1598 C1614 0.931 . S
C1599 H1587 0.929 . S
C1599 C1593 1.390 . S
C1599 C1596 1.386 . S
C1600 C1595 1.490 . S
C1600 C1602 1.395 . S
C1600 C1603 1.403 . S
H1601 C1607 0.930 . S
C1602 H1588 0.930 . S
C1602 C1600 1.395 . S
C1602 C1605 1.403 . S
C1603 C1600 1.403 . S
C1603 C1604 1.524 . S
C1603 C1607 1.400 . S
C1604 H1589 0.960 . S
C1604 H1590 0.960 . S
C1604 H1591 0.960 . S
C1604 C1603 1.524 . S
C1605 C1602 1.403 . S
C1605 C1606 1.392 . S
C1605 C1609 1.495 . S
C1606 C1605 1.392 . S
C1606 C1607 1.385 . S
C1606 C1608 1.478 . S
C1607 H1601 0.930 . S
C1607 C1603 1.400 . S
C1607 C1606 1.385 . S
C1608 C1606 1.478 . S
C1608 C1610 1.381 . S
C1608 C1614 1.383 . S
C1609 C1605 1.495 . S
C1609 H1615 0.959 . S
C1609 H1616 0.961 . S
C1609 H1617 0.960 . S
C1610 C1608 1.381 . S
C1610 C1611 1.394 . S
C1610 H1618 0.930 . S
C1611 C1610 1.394 . S
C1611 C1612 1.383 . S
C1611 H1619 0.929 . S
C1612 C1611 1.383 . S
C1612 C1613 1.377 . S
C1613 H1597 0.930 . S
C1613 C1612 1.377 . S
C1613 C1614 1.379 . S
C1614 H1598 0.931 . S
C1614 C1608 1.383 . S
C1614 C1613 1.379 . S
H1615 C1609 0.959 . S
H1616 C1609 0.961 . S
H1617 C1609 0.960 . S
H1618 C1610 0.930 . S
H1619 C1611 0.929 . S
H1620 C1628 0.929 . S
H1621 C1630 0.930 . S
H1622 C1632 0.930 . S
H1623 C1635 0.929 . S
H1624 C1638 0.930 . S
H1625 C1640 0.960 . S
H1626 C1640 0.960 . S
H1627 C1640 0.960 . S
C1628 H1620 0.929 . S
C1628 C1629 1.377 . S
C1628 C1630 1.384 . S
C1629 C1628 1.377 . S
C1629 C1635 1.390 . S
C1630 H1621 0.930 . S
C1630 C1628 1.384 . S
C1630 C1631 1.372 . S
C1631 C1630 1.372 . S
C1631 C1632 1.400 . S
C1631 C1636 1.490 . S
C1632 H1622 0.930 . S
C1632 C1631 1.400 . S
C1632 C1635 1.386 . S
H1633 C1649 0.930 . S
H1634 C1650 0.931 . S
C1635 H1623 0.929 . S
C1635 C1629 1.390 . S
C1635 C1632 1.386 . S
C1636 C1631 1.490 . S
C1636 C1638 1.395 . S
C1636 C1639 1.403 . S
H1637 C1643 0.930 . S
C1638 H1624 0.930 . S
C1638 C1636 1.395 . S
C1638 C1641 1.403 . S
C1639 C1636 1.403 . S
C1639 C1640 1.524 . S
C1639 C1643 1.400 . S
C1640 H1625 0.960 . S
C1640 H1626 0.960 . S
C1640 H1627 0.960 . S
C1640 C1639 1.524 . S
C1641 C1638 1.403 . S
C1641 C1642 1.392 . S
C1641 C1645 1.495 . S
C1642 C1641 1.392 . S
C1642 C1643 1.385 . S
C1642 C1644 1.478 . S
C1643 H1637 0.930 . S
C1643 C1639 1.400 . S
C1643 C1642 1.385 . S
C1644 C1642 1.478 . S
C1644 C1646 1.381 . S
C1644 C1650 1.383 . S
C1645 C1641 1.495 . S
C1645 H1651 0.959 . S
C1645 H1652 0.961 . S
C1645 H1653 0.960 . S
C1646 C1644 1.381 . S
C1646 C1647 1.394 . S
C1646 H1654 0.930 . S
C1647 C1646 1.394 . S
C1647 C1648 1.383 . S
C1647 H1655 0.929 . S
C1648 C1647 1.383 . S
C1648 C1649 1.377 . S
C1649 H1633 0.930 . S
C1649 C1648 1.377 . S
C1649 C1650 1.379 . S
C1650 H1634 0.931 . S
C1650 C1644 1.383 . S
C1650 C1649 1.379 . S
H1651 C1645 0.959 . S
H1652 C1645 0.961 . S
H1653 C1645 0.960 . S
H1654 C1646 0.930 . S
H1655 C1647 0.929 . S
H1656 C1664 0.929 . S
H1657 C1666 0.930 . S
H1658 C1668 0.930 . S
H1659 C1671 0.929 . S
H1660 C1674 0.930 . S
H1661 C1676 0.960 . S
H1662 C1676 0.960 . S
H1663 C1676 0.960 . S
C1664 H1656 0.929 . S
C1664 C1665 1.377 . S
C1664 C1666 1.384 . S
C1665 C1664 1.377 . S
C1665 C1671 1.390 . S
C1666 H1657 0.930 . S
C1666 C1664 1.384 . S
C1666 C1667 1.372 . S
C1667 C1666 1.372 . S
C1667 C1668 1.400 . S
C1667 C1672 1.490 . S
C1668 H1658 0.930 . S
C1668 C1667 1.400 . S
C1668 C1671 1.386 . S
H1669 C1685 0.930 . S
H1670 C1686 0.931 . S
C1671 H1659 0.929 . S
C1671 C1665 1.390 . S
C1671 C1668 1.386 . S
C1672 C1667 1.490 . S
C1672 C1674 1.395 . S
C1672 C1675 1.403 . S
H1673 C1679 0.930 . S
C1674 H1660 0.930 . S
C1674 C1672 1.395 . S
C1674 C1677 1.403 . S
C1675 C1672 1.403 . S
C1675 C1676 1.524 . S
C1675 C1679 1.400 . S
C1676 H1661 0.960 . S
C1676 H1662 0.960 . S
C1676 H1663 0.960 . S
C1676 C1675 1.524 . S
C1677 C1674 1.403 . S
C1677 C1678 1.392 . S
C1677 C1681 1.495 . S
C1678 C1677 1.392 . S
C1678 C1679 1.385 . S
C1678 C1680 1.478 . S
C1679 H1673 0.930 . S
C1679 C1675 1.400 . S
C1679 C1678 1.385 . S
C1680 C1678 1.478 . S
C1680 C1682 1.381 . S
C1680 C1686 1.383 . S
C1681 C1677 1.495 . S
C1681 H1687 0.959 . S
C1681 H1688 0.961 . S
C1681 H1689 0.960 . S
C1682 C1680 1.381 . S
C1682 C1683 1.394 . S
C1682 H1690 0.930 . S
C1683 C1682 1.394 . S
C1683 C1684 1.383 . S
C1683 H1691 0.929 . S
C1684 C1683 1.383 . S
C1684 C1685 1.377 . S
C1685 H1669 0.930 . S
C1685 C1684 1.377 . S
C1685 C1686 1.379 . S
C1686 H1670 0.931 . S
C1686 C1680 1.383 . S
C1686 C1685 1.379 . S
H1687 C1681 0.959 . S
H1688 C1681 0.961 . S
H1689 C1681 0.960 . S
H1690 C1682 0.930 . S
H1691 C1683 0.929 . S
H1692 C1700 0.929 . S
H1693 C1702 0.930 . S
H1694 C1704 0.930 . S
H1695 C1707 0.929 . S
H1696 C1710 0.930 . S
H1697 C1712 0.960 . S
H1698 C1712 0.960 . S
H1699 C1712 0.960 . S
C1700 H1692 0.929 . S
C1700 C1701 1.377 . S
C1700 C1702 1.384 . S
C1701 C1700 1.377 . S
C1701 C1707 1.390 . S
C1702 H1693 0.930 . S
C1702 C1700 1.384 . S
C1702 C1703 1.372 . S
C1703 C1702 1.372 . S
C1703 C1704 1.400 . S
C1703 C1708 1.490 . S
C1704 H1694 0.930 . S
C1704 C1703 1.400 . S
C1704 C1707 1.386 . S
H1705 C1721 0.930 . S
H1706 C1722 0.931 . S
C1707 H1695 0.929 . S
C1707 C1701 1.390 . S
C1707 C1704 1.386 . S
C1708 C1703 1.490 . S
C1708 C1710 1.395 . S
C1708 C1711 1.403 . S
H1709 C1715 0.930 . S
C1710 H1696 0.930 . S
C1710 C1708 1.395 . S
C1710 C1713 1.403 . S
C1711 C1708 1.403 . S
C1711 C1712 1.524 . S
C1711 C1715 1.400 . S
C1712 H1697 0.960 . S
C1712 H1698 0.960 . S
C1712 H1699 0.960 . S
C1712 C1711 1.524 . S
C1713 C1710 1.403 . S
C1713 C1714 1.392 . S
C1713 C1717 1.495 . S
C1714 C1713 1.392 . S
C1714 C1715 1.385 . S
C1714 C1716 1.478 . S
C1715 H1709 0.930 . S
C1715 C1711 1.400 . S
C1715 C1714 1.385 . S
C1716 C1714 1.478 . S
C1716 C1718 1.381 . S
C1716 C1722 1.383 . S
C1717 C1713 1.495 . S
C1717 H1723 0.959 . S
C1717 H1724 0.961 . S
C1717 H1725 0.960 . S
C1718 C1716 1.381 . S
C1718 C1719 1.394 . S
C1718 H1726 0.930 . S
C1719 C1718 1.394 . S
C1719 C1720 1.383 . S
C1719 H1727 0.929 . S
C1720 C1719 1.383 . S
C1720 C1721 1.377 . S
C1721 H1705 0.930 . S
C1721 C1720 1.377 . S
C1721 C1722 1.379 . S
C1722 H1706 0.931 . S
C1722 C1716 1.383 . S
C1722 C1721 1.379 . S
H1723 C1717 0.959 . S
H1724 C1717 0.961 . S
H1725 C1717 0.960 . S
H1726 C1718 0.930 . S
H1727 C1719 0.929 . S
H1728 C1736 0.929 . S
H1729 C1738 0.930 . S
H1730 C1740 0.930 . S
H1731 C1743 0.929 . S
H1732 C1746 0.930 . S
H1733 C1748 0.960 . S
H1734 C1748 0.960 . S
H1735 C1748 0.960 . S
C1736 H1728 0.929 . S
C1736 C1737 1.377 . S
C1736 C1738 1.384 . S
C1737 C1736 1.377 . S
C1737 C1743 1.390 . S
C1738 H1729 0.930 . S
C1738 C1736 1.384 . S
C1738 C1739 1.372 . S
C1739 C1738 1.372 . S
C1739 C1740 1.400 . S
C1739 C1744 1.490 . S
C1740 H1730 0.930 . S
C1740 C1739 1.400 . S
C1740 C1743 1.386 . S
H1741 C1757 0.930 . S
H1742 C1758 0.931 . S
C1743 H1731 0.929 . S
C1743 C1737 1.390 . S
C1743 C1740 1.386 . S
C1744 C1739 1.490 . S
C1744 C1746 1.395 . S
C1744 C1747 1.403 . S
H1745 C1751 0.930 . S
C1746 H1732 0.930 . S
C1746 C1744 1.395 . S
C1746 C1749 1.403 . S
C1747 C1744 1.403 . S
C1747 C1748 1.524 . S
C1747 C1751 1.400 . S
C1748 H1733 0.960 . S
C1748 H1734 0.960 . S
C1748 H1735 0.960 . S
C1748 C1747 1.524 . S
C1749 C1746 1.403 . S
C1749 C1750 1.392 . S
C1749 C1753 1.495 . S
C1750 C1749 1.392 . S
C1750 C1751 1.385 . S
C1750 C1752 1.478 . S
C1751 H1745 0.930 . S
C1751 C1747 1.400 . S
C1751 C1750 1.385 . S
C1752 C1750 1.478 . S
C1752 C1754 1.381 . S
C1752 C1758 1.383 . S
C1753 C1749 1.495 . S
C1753 H1759 0.959 . S
C1753 H1760 0.961 . S
C1753 H1761 0.960 . S
C1754 C1752 1.381 . S
C1754 C1755 1.394 . S
C1754 H1762 0.930 . S
C1755 C1754 1.394 . S
C1755 C1756 1.383 . S
C1755 H1763 0.929 . S
C1756 C1755 1.383 . S
C1756 C1757 1.377 . S
C1757 H1741 0.930 . S
C1757 C1756 1.377 . S
C1757 C1758 1.379 . S
C1758 H1742 0.931 . S
C1758 C1752 1.383 . S
C1758 C1757 1.379 . S
H1759 C1753 0.959 . S
H1760 C1753 0.961 . S
H1761 C1753 0.960 . S
H1762 C1754 0.930 . S
H1763 C1755 0.929 . S
H1764 C1772 0.929 . S
H1765 C1774 0.930 . S
H1766 C1776 0.930 . S
H1767 C1779 0.929 . S
H1768 C1782 0.951 . S
H1769 C1784 0.960 . S
H1770 C1784 0.960 . S
H1771 C1784 0.960 . S
C1772 H1764 0.929 . S
C1772 C1773 1.377 . S
C1772 C1774 1.384 . S
C1773 C1772 1.377 . S
C1773 C1779 1.390 . S
C1774 H1765 0.930 . S
C1774 C1772 1.384 . S
C1774 C1775 1.372 . S
C1775 C1774 1.372 . S
C1775 C1776 1.400 . S
C1775 C1780 1.490 . S
C1776 H1766 0.930 . S
C1776 C1775 1.400 . S
C1776 C1779 1.386 . S
H1777 C1793 0.930 . S
H1778 C1794 0.931 . S
C1779 H1767 0.929 . S
C1779 C1773 1.390 . S
C1779 C1776 1.386 . S
C1780 C1775 1.490 . S
C1780 C1782 1.395 . S
C1780 C1783 1.403 . S
H1781 C1787 0.930 . S
C1782 H1768 0.951 . S
C1782 C1780 1.395 . S
C1782 C1785 1.403 . S
C1783 C1780 1.403 . S
C1783 C1784 1.524 . S
C1783 C1787 1.400 . S
C1784 H1769 0.960 . S
C1784 H1770 0.960 . S
C1784 H1771 0.960 . S
C1784 C1783 1.524 . S
C1785 C1782 1.403 . S
C1785 C1786 1.392 . S
C1785 C1789 1.495 1_565 S
C1786 C1785 1.392 . S
C1786 C1787 1.385 . S
C1786 C1788 1.478 . S
C1787 H1781 0.930 . S
C1787 C1783 1.400 . S
C1787 C1786 1.385 . S
C1788 C1786 1.478 . S
C1788 C1790 1.381 . S
C1788 C1794 1.383 . S
C1789 C1785 1.495 1_545 S
C1789 H1795 0.959 . S
C1789 H1796 0.961 . S
C1789 H1797 0.960 . S
C1790 C1788 1.381 . S
C1790 C1791 1.394 . S
C1790 H1798 0.930 . S
C1791 C1790 1.394 . S
C1791 C1792 1.383 . S
C1791 H1799 0.929 1_565 S
C1792 C1791 1.383 . S
C1792 C1793 1.377 . S
C1793 H1777 0.930 . S
C1793 C1792 1.377 . S
C1793 C1794 1.379 . S
C1794 H1778 0.931 . S
C1794 C1788 1.383 . S
C1794 C1793 1.379 . S
H1795 C1789 0.959 . S
H1796 C1789 0.961 . S
H1797 C1789 0.960 . S
H1798 C1790 0.930 . S
H1799 C1791 0.929 1_545 S
H1800 C1808 0.929 . S
H1801 C1810 0.930 . S
H1802 C1812 0.930 . S
H1803 C1815 0.930 1_556 S
H1804 C1818 0.930 . S
H1805 C1820 0.960 . S
H1806 C1820 0.960 . S
H1807 C1820 0.960 . S
C1808 H1800 0.929 . S
C1808 C1809 1.377 . S
C1808 C1810 1.384 1_556 S
C1809 C1808 1.377 . S
C1809 C1815 1.390 1_556 S
C1810 H1801 0.930 . S
C1810 C1808 1.384 1_554 S
C1810 C1811 1.372 . S
C1811 C1810 1.372 . S
C1811 C1812 1.400 . S
C1811 C1816 1.490 . S
C1812 H1802 0.930 . S
C1812 C1811 1.400 . S
C1812 C1815 1.385 . S
H1813 C1829 0.930 . S
H1814 C1830 0.931 . S
C1815 H1803 0.930 1_554 S
C1815 C1809 1.390 1_554 S
C1815 C1812 1.385 . S
C1816 C1811 1.490 . S
C1816 C1818 1.395 . S
C1816 C1819 1.403 . S
H1817 C1823 0.930 . S
C1818 H1804 0.930 . S
C1818 C1816 1.395 . S
C1818 C1821 1.403 . S
C1819 C1816 1.403 . S
C1819 C1820 1.524 . S
C1819 C1823 1.400 . S
C1820 H1805 0.960 . S
C1820 H1806 0.960 . S
C1820 H1807 0.960 . S
C1820 C1819 1.524 . S
C1821 C1818 1.403 . S
C1821 C1822 1.392 . S
C1821 C1825 1.495 . S
C1822 C1821 1.392 . S
C1822 C1823 1.385 . S
C1822 C1824 1.478 . S
C1823 H1817 0.930 . S
C1823 C1819 1.400 . S
C1823 C1822 1.385 . S
C1824 C1822 1.478 . S
C1824 C1826 1.381 . S
C1824 C1830 1.383 . S
C1825 C1821 1.495 . S
C1825 H1831 0.959 . S
C1825 H1832 0.961 . S
C1825 H1833 0.960 . S
C1826 C1824 1.381 . S
C1826 C1827 1.394 . S
C1826 H1834 0.930 . S
C1827 C1826 1.394 . S
C1827 C1828 1.383 . S
C1827 H1835 0.929 . S
C1828 C1827 1.383 . S
C1828 C1829 1.377 . S
C1829 H1813 0.930 . S
C1829 C1828 1.377 . S
C1829 C1830 1.379 . S
C1830 H1814 0.931 . S
C1830 C1824 1.383 . S
C1830 C1829 1.379 . S
H1831 C1825 0.959 . S
H1832 C1825 0.961 . S
H1833 C1825 0.960 . S
H1834 C1826 0.930 . S
H1835 C1827 0.929 . S
H1836 C1844 0.929 . S
H1837 C1846 0.930 . S
H1838 C1848 0.930 . S
H1839 C1851 0.929 . S
H1840 C1854 0.930 1_455 S
H1841 C1856 0.960 . S
H1842 C1856 0.960 . S
H1843 C1856 0.960 . S
C1844 H1836 0.929 . S
C1844 C1845 1.377 . S
C1844 C1846 1.384 . S
C1845 C1844 1.377 . S
C1845 C1851 1.390 . S
C1846 H1837 0.930 . S
C1846 C1844 1.384 . S
C1846 C1847 1.372 . S
C1847 C1846 1.372 . S
C1847 C1848 1.400 . S
C1847 C1852 1.490 . S
C1848 H1838 0.930 . S
C1848 C1847 1.400 . S
C1848 C1851 1.386 . S
H1849 C1865 0.930 . S
H1850 C1866 0.931 . S
C1851 H1839 0.929 . S
C1851 C1845 1.390 . S
C1851 C1848 1.386 . S
C1852 C1847 1.490 . S
C1852 C1854 1.395 . S
C1852 C1855 1.403 . S
H1853 C1859 0.930 . S
C1854 H1840 0.930 1_655 S
C1854 C1852 1.395 . S
C1854 C1857 1.403 . S
C1855 C1852 1.403 . S
C1855 C1856 1.524 . S
C1855 C1859 1.400 . S
C1856 H1841 0.960 . S
C1856 H1842 0.960 . S
C1856 H1843 0.960 . S
C1856 C1855 1.524 . S
C1857 C1854 1.403 . S
C1857 C1858 1.392 . S
C1857 C1861 1.495 1_655 S
C1858 C1857 1.392 . S
C1858 C1859 1.385 . S
C1858 C1860 1.478 . S
C1859 H1853 0.930 . S
C1859 C1855 1.400 . S
C1859 C1858 1.385 . S
C1860 C1858 1.478 . S
C1860 C1862 1.381 . S
C1860 C1866 1.383 . S
C1861 C1857 1.495 1_455 S
C1861 H1867 0.959 . S
C1861 H1868 0.961 . S
C1861 H1869 0.960 . S
C1862 C1860 1.381 . S
C1862 C1863 1.394 1_554 S
C1862 H1870 0.930 . S
C1863 C1862 1.394 1_556 S
C1863 C1864 1.383 . S
C1863 H1871 0.929 . S
C1864 C1863 1.383 . S
C1864 C1865 1.377 . S
C1865 H1849 0.930 . S
C1865 C1864 1.377 . S
C1865 C1866 1.379 1_556 S
C1866 H1850 0.931 . S
C1866 C1860 1.383 . S
C1866 C1865 1.379 1_554 S
H1867 C1861 0.959 . S
H1868 C1861 0.961 . S
H1869 C1861 0.960 . S
H1870 C1862 0.930 . S
H1871 C1863 0.929 . S
H1872 C1880 0.929 . S
H1873 C1882 0.930 . S
H1874 C1884 0.930 . S
H1875 C1887 0.929 . S
H1876 C1890 0.930 . S
H1877 C1892 0.960 . S
H1878 C1892 0.960 . S
H1879 C1892 0.960 . S
C1880 H1872 0.929 . S
C1880 C1881 1.377 . S
C1880 C1882 1.384 . S
C1881 C1880 1.377 . S
C1881 C1887 1.390 . S
C1882 H1873 0.930 . S
C1882 C1880 1.384 . S
C1882 C1883 1.372 . S
C1883 C1882 1.372 . S
C1883 C1884 1.400 . S
C1883 C1888 1.490 . S
C1884 H1874 0.930 . S
C1884 C1883 1.400 . S
C1884 C1887 1.386 . S
H1885 C1901 0.926 1_556 S
H1886 C1902 0.931 . S
C1887 H1875 0.929 . S
C1887 C1881 1.390 . S
C1887 C1884 1.386 . S
C1888 C1883 1.490 . S
C1888 C1890 1.395 . S
C1888 C1891 1.403 . S
H1889 C1895 0.930 . S
C1890 H1876 0.930 . S
C1890 C1888 1.395 . S
C1890 C1893 1.403 . S
C1891 C1888 1.403 . S
C1891 C1892 1.524 . S
C1891 C1895 1.400 . S
C1892 H1877 0.960 . S
C1892 H1878 0.960 . S
C1892 H1879 0.960 . S
C1892 C1891 1.524 . S
C1893 C1890 1.403 . S
C1893 C1894 1.392 . S
C1893 C1897 1.495 . S
C1894 C1893 1.392 . S
C1894 C1895 1.385 . S
C1894 C1896 1.478 . S
C1895 H1889 0.930 . S
C1895 C1891 1.400 . S
C1895 C1894 1.385 . S
C1896 C1894 1.478 . S
C1896 C1898 1.381 . S
C1896 C1902 1.383 . S
C1897 C1893 1.495 . S
C1897 H1903 0.959 . S
C1897 H1904 0.961 . S
C1897 H1905 0.960 . S
C1898 C1896 1.381 . S
C1898 C1899 1.394 1_554 S
C1898 H1906 0.930 . S
C1899 C1898 1.394 1_556 S
C1899 C1900 1.383 . S
C1899 H1907 0.929 . S
C1900 C1899 1.383 . S
C1900 C1901 1.365 1_556 S
C1901 H1885 0.926 1_554 S
C1901 C1900 1.365 1_554 S
C1901 C1902 1.394 . S
C1902 H1886 0.931 . S
C1902 C1896 1.383 . S
C1902 C1901 1.394 . S
H1903 C1897 0.959 . S
H1904 C1897 0.961 . S
H1905 C1897 0.960 . S
H1906 C1898 0.930 . S
H1907 C1899 0.929 . S
H1908 C1916 0.929 . S
H1909 C1918 0.930 1_455 S
H1910 C1920 0.930 . S
H1911 C1923 0.929 . S
H1912 C1926 0.930 . S
H1913 C1928 0.960 . S
H1914 C1928 0.960 . S
H1915 C1928 0.960 . S
C1916 H1908 0.929 . S
C1916 C1917 1.377 1_455 S
C1916 C1918 1.384 1_455 S
C1917 C1916 1.377 1_655 S
C1917 C1923 1.390 . S
C1918 H1909 0.930 1_655 S
C1918 C1916 1.384 1_655 S
C1918 C1919 1.372 . S
C1919 C1918 1.372 . S
C1919 C1920 1.400 . S
C1919 C1924 1.490 . S
C1920 H1910 0.930 . S
C1920 C1919 1.400 . S
C1920 C1923 1.386 . S
H1921 C1937 0.930 . S
H1922 C1938 0.931 . S
C1923 H1911 0.929 . S
C1923 C1917 1.390 . S
C1923 C1920 1.386 . S
C1924 C1919 1.490 . S
C1924 C1926 1.395 . S
C1924 C1927 1.403 . S
H1925 C1931 0.930 . S
C1926 H1912 0.930 . S
C1926 C1924 1.395 . S
C1926 C1929 1.403 . S
C1927 C1924 1.403 . S
C1927 C1928 1.524 . S
C1927 C1931 1.400 . S
C1928 H1913 0.960 . S
C1928 H1914 0.960 . S
C1928 H1915 0.960 . S
C1928 C1927 1.524 . S
C1929 C1926 1.403 . S
C1929 C1930 1.392 . S
C1929 C1933 1.495 . S
C1930 C1929 1.392 . S
C1930 C1931 1.385 . S
C1930 C1932 1.478 . S
C1931 H1925 0.930 . S
C1931 C1927 1.400 . S
C1931 C1930 1.385 . S
C1932 C1930 1.478 . S
C1932 C1934 1.381 . S
C1932 C1938 1.383 . S
C1933 C1929 1.495 . S
C1933 H1939 0.959 . S
C1933 H1940 0.961 . S
C1933 H1941 0.960 . S
C1934 C1932 1.381 . S
C1934 C1935 1.394 . S
C1934 H1942 0.930 . S
C1935 C1934 1.394 . S
C1935 C1936 1.383 . S
C1935 H1943 0.929 . S
C1936 C1935 1.383 . S
C1936 C1937 1.377 . S
C1937 H1921 0.930 . S
C1937 C1936 1.377 . S
C1937 C1938 1.379 . S
C1938 H1922 0.931 . S
C1938 C1932 1.383 . S
C1938 C1937 1.379 . S
H1939 C1933 0.959 . S
H1940 C1933 0.961 . S
H1941 C1933 0.960 . S
H1942 C1934 0.930 . S
H1943 C1935 0.929 . S
H1944 C1952 0.929 . S
H1945 C1954 0.930 . S
H1946 C1956 0.930 . S
H1947 C1959 0.929 . S
H1948 C1962 0.930 . S
H1949 C1964 0.960 . S
H1950 C1964 0.960 . S
H1951 C1964 0.960 . S
C1952 H1944 0.929 . S
C1952 C1953 1.377 . S
C1952 C1954 1.384 . S
C1953 C1952 1.377 . S
C1953 C1959 1.390 . S
C1954 H1945 0.930 . S
C1954 C1952 1.384 . S
C1954 C1955 1.372 . S
C1955 C1954 1.372 . S
C1955 C1956 1.400 . S
C1955 C1960 1.490 . S
C1956 H1946 0.930 . S
C1956 C1955 1.400 . S
C1956 C1959 1.386 . S
H1957 C1973 0.930 . S
H1958 C1974 0.931 . S
C1959 H1947 0.929 . S
C1959 C1953 1.390 . S
C1959 C1956 1.386 . S
C1960 C1955 1.490 . S
C1960 C1962 1.395 . S
C1960 C1963 1.403 . S
H1961 C1967 0.930 . S
C1962 H1948 0.930 . S
C1962 C1960 1.395 . S
C1962 C1965 1.403 . S
C1963 C1960 1.403 . S
C1963 C1964 1.524 . S
C1963 C1967 1.400 . S
C1964 H1949 0.960 . S
C1964 H1950 0.960 . S
C1964 H1951 0.960 . S
C1964 C1963 1.524 . S
C1965 C1962 1.403 . S
C1965 C1966 1.392 . S
C1965 C1969 1.495 . S
C1966 C1965 1.392 . S
C1966 C1967 1.385 . S
C1966 C1968 1.478 . S
C1967 H1961 0.930 . S
C1967 C1963 1.400 . S
C1967 C1966 1.385 . S
C1968 C1966 1.478 . S
C1968 C1970 1.381 . S
C1968 C1974 1.383 . S
C1969 C1965 1.495 . S
C1969 H1975 0.959 . S
C1969 H1976 0.961 . S
C1969 H1977 0.960 . S
C1970 C1968 1.381 . S
C1970 C1971 1.394 . S
C1970 H1978 0.930 . S
C1971 C1970 1.394 . S
C1971 C1972 1.383 . S
C1971 H1979 0.929 . S
C1972 C1971 1.383 . S
C1972 C1973 1.377 . S
C1973 H1957 0.930 . S
C1973 C1972 1.377 . S
C1973 C1974 1.379 . S
C1974 H1958 0.931 . S
C1974 C1968 1.383 . S
C1974 C1973 1.379 . S
H1975 C1969 0.959 . S
H1976 C1969 0.961 . S
H1977 C1969 0.960 . S
H1978 C1970 0.930 . S
H1979 C1971 0.929 . S
H1980 C1988 0.929 . S
H1981 C1990 0.930 . S
H1982 C1992 0.930 . S
H1983 C1995 0.929 . S
H1984 C1998 0.930 . S
H1985 C2000 0.960 . S
H1986 C2000 0.960 . S
H1987 C2000 0.960 . S
C1988 H1980 0.929 . S
C1988 C1989 1.377 . S
C1988 C1990 1.384 . S
C1989 C1988 1.377 . S
C1989 C1995 1.390 . S
C1990 H1981 0.930 . S
C1990 C1988 1.384 . S
C1990 C1991 1.372 . S
C1991 C1990 1.372 . S
C1991 C1992 1.400 . S
C1991 C1996 1.490 . S
C1992 H1982 0.930 . S
C1992 C1991 1.400 . S
C1992 C1995 1.386 . S
H1993 C2009 0.930 . S
H1994 C2010 0.931 . S
C1995 H1983 0.929 . S
C1995 C1989 1.390 . S
C1995 C1992 1.386 . S
C1996 C1991 1.490 . S
C1996 C1998 1.395 . S
C1996 C1999 1.403 . S
H1997 C2003 0.930 . S
C1998 H1984 0.930 . S
C1998 C1996 1.395 . S
C1998 C2001 1.403 . S
C1999 C1996 1.403 . S
C1999 C2000 1.524 . S
C1999 C2003 1.400 . S
C2000 H1985 0.960 . S
C2000 H1986 0.960 . S
C2000 H1987 0.960 . S
C2000 C1999 1.524 . S
C2001 C1998 1.403 . S
C2001 C2002 1.392 . S
C2001 C2005 1.495 . S
C2002 C2001 1.392 . S
C2002 C2003 1.385 . S
C2002 C2004 1.478 . S
C2003 H1997 0.930 . S
C2003 C1999 1.400 . S
C2003 C2002 1.385 . S
C2004 C2002 1.478 . S
C2004 C2006 1.381 . S
C2004 C2010 1.383 . S
C2005 C2001 1.495 . S
C2005 H2011 0.959 . S
C2005 H2012 0.961 . S
C2005 H2013 0.960 . S
C2006 C2004 1.381 . S
C2006 C2007 1.394 . S
C2006 H2014 0.930 . S
C2007 C2006 1.394 . S
C2007 C2008 1.383 . S
C2007 H2015 0.929 . S
C2008 C2007 1.383 . S
C2008 C2009 1.377 . S
C2009 H1993 0.930 . S
C2009 C2008 1.377 . S
C2009 C2010 1.379 . S
C2010 H1994 0.931 . S
C2010 C2004 1.383 . S
C2010 C2009 1.379 . S
H2011 C2005 0.959 . S
H2012 C2005 0.961 . S
H2013 C2005 0.960 . S
H2014 C2006 0.930 . S
H2015 C2007 0.929 . S
H2016 C2024 0.929 1_545 S
H2017 C2026 0.930 1_545 S
H2018 C2028 0.930 . S
H2019 C2031 0.929 . S
H2020 C2034 0.930 . S
H2021 C2036 0.960 . S
H2022 C2036 0.960 . S
H2023 C2036 0.960 . S
C2024 H2016 0.929 1_565 S
C2024 C2025 1.377 . S
C2024 C2026 1.384 . S
C2025 C2024 1.377 . S
C2025 C2031 1.390 . S
C2026 H2017 0.930 1_565 S
C2026 C2024 1.384 . S
C2026 C2027 1.372 . S
C2027 C2026 1.372 . S
C2027 C2028 1.400 . S
C2027 C2032 1.490 . S
C2028 H2018 0.930 . S
C2028 C2027 1.400 . S
C2028 C2031 1.386 . S
H2029 C2045 0.930 . S
H2030 C2046 0.931 . S
C2031 H2019 0.929 . S
C2031 C2025 1.390 . S
C2031 C2028 1.386 . S
C2032 C2027 1.490 . S
C2032 C2034 1.395 . S
C2032 C2035 1.403 . S
H2033 C2039 0.930 . S
C2034 H2020 0.930 . S
C2034 C2032 1.395 . S
C2034 C2037 1.403 . S
C2035 C2032 1.403 . S
C2035 C2036 1.524 . S
C2035 C2039 1.400 . S
C2036 H2021 0.960 . S
C2036 H2022 0.960 . S
C2036 H2023 0.960 . S
C2036 C2035 1.524 . S
C2037 C2034 1.403 . S
C2037 C2038 1.392 . S
C2037 C2041 1.495 . S
C2038 C2037 1.392 . S
C2038 C2039 1.385 . S
C2038 C2040 1.478 . S
C2039 H2033 0.930 . S
C2039 C2035 1.400 . S
C2039 C2038 1.385 . S
C2040 C2038 1.478 . S
C2040 C2042 1.381 . S
C2040 C2046 1.383 . S
C2041 C2037 1.495 . S
C2041 H2047 0.959 . S
C2041 H2048 0.961 . S
C2041 H2049 0.960 . S
C2042 C2040 1.381 . S
C2042 C2043 1.394 1_556 S
C2042 H2050 0.930 . S
C2043 C2042 1.394 1_554 S
C2043 C2044 1.383 . S
C2043 H2051 0.929 . S
C2044 C2043 1.383 . S
C2044 C2045 1.377 . S
C2045 H2029 0.930 . S
C2045 C2044 1.377 . S
C2045 C2046 1.379 1_554 S
C2046 H2030 0.931 . S
C2046 C2040 1.383 . S
C2046 C2045 1.379 1_556 S
H2047 C2041 0.959 . S
H2048 C2041 0.961 . S
H2049 C2041 0.960 . S
H2050 C2042 0.930 . S
H2051 C2043 0.929 . S
H2052 C2060 0.929 1_554 S
H2053 C2062 0.930 . S
H2054 C2064 0.930 . S
H2055 C2067 0.929 . S
H2056 C2070 0.930 . S
H2057 C2072 0.960 . S
H2058 C2072 0.960 . S
H2059 C2072 0.960 . S
C2060 H2052 0.929 1_556 S
C2060 C2061 1.377 1_556 S
C2060 C2062 1.384 . S
C2061 C2060 1.377 1_554 S
C2061 C2067 1.390 . S
C2062 H2053 0.930 . S
C2062 C2060 1.384 . S
C2062 C2063 1.372 . S
C2063 C2062 1.372 . S
C2063 C2064 1.400 . S
C2063 C2068 1.490 . S
C2064 H2054 0.930 . S
C2064 C2063 1.400 . S
C2064 C2067 1.386 1_556 S
H2065 C2081 0.930 . S
H2066 C2082 0.931 . S
C2067 H2055 0.929 . S
C2067 C2061 1.390 . S
C2067 C2064 1.386 1_554 S
C2068 C2063 1.490 . S
C2068 C2070 1.395 . S
C2068 C2071 1.403 . S
H2069 C2075 0.930 . S
C2070 H2056 0.930 . S
C2070 C2068 1.395 . S
C2070 C2073 1.403 . S
C2071 C2068 1.403 . S
C2071 C2072 1.524 . S
C2071 C2075 1.400 . S
C2072 H2057 0.960 . S
C2072 H2058 0.960 . S
C2072 H2059 0.960 . S
C2072 C2071 1.524 . S
C2073 C2070 1.403 . S
C2073 C2074 1.392 . S
C2073 C2077 1.495 . S
C2074 C2073 1.392 . S
C2074 C2075 1.385 . S
C2074 C2076 1.478 . S
C2075 H2069 0.930 . S
C2075 C2071 1.400 . S
C2075 C2074 1.385 . S
C2076 C2074 1.478 . S
C2076 C2078 1.381 . S
C2076 C2082 1.383 . S
C2077 C2073 1.495 . S
C2077 H2083 0.959 . S
C2077 H2084 0.961 . S
C2077 H2085 0.960 . S
C2078 C2076 1.381 . S
C2078 C2079 1.394 . S
C2078 H2086 0.930 . S
C2079 C2078 1.394 . S
C2079 C2080 1.383 . S
C2079 H2087 0.929 . S
C2080 C2079 1.383 . S
C2080 C2081 1.377 . S
C2081 H2065 0.930 . S
C2081 C2080 1.377 . S
C2081 C2082 1.379 . S
C2082 H2066 0.931 . S
C2082 C2076 1.383 . S
C2082 C2081 1.379 . S
H2083 C2077 0.959 . S
H2084 C2077 0.961 . S
H2085 C2077 0.960 . S
H2086 C2078 0.930 . S
H2087 C2079 0.929 . S
H2088 C2096 0.929 . S
H2089 C2098 0.930 . S
H2090 C2100 0.930 . S
H2091 C2103 0.929 . S
H2092 C2106 0.930 . S
H2093 C2108 0.960 . S
H2094 C2108 0.960 . S
H2095 C2108 0.960 . S
C2096 H2088 0.929 . S
C2096 C2097 1.377 . S
C2096 C2098 1.384 . S
C2097 C2096 1.377 . S
C2097 C2103 1.390 . S
C2098 H2089 0.930 . S
C2098 C2096 1.384 . S
C2098 C2099 1.372 . S
C2099 C2098 1.372 . S
C2099 C2100 1.400 . S
C2099 C2104 1.490 . S
C2100 H2090 0.930 . S
C2100 C2099 1.400 . S
C2100 C2103 1.386 . S
H2101 C2117 0.930 . S
H2102 C2118 0.931 . S
C2103 H2091 0.929 . S
C2103 C2097 1.390 . S
C2103 C2100 1.386 . S
C2104 C2099 1.490 . S
C2104 C2106 1.395 . S
C2104 C2107 1.403 . S
H2105 C2111 0.930 . S
C2106 H2092 0.930 . S
C2106 C2104 1.395 . S
C2106 C2109 1.403 . S
C2107 C2104 1.403 . S
C2107 C2108 1.524 . S
C2107 C2111 1.400 . S
C2108 H2093 0.960 . S
C2108 H2094 0.960 . S
C2108 H2095 0.960 . S
C2108 C2107 1.524 . S
C2109 C2106 1.403 . S
C2109 C2110 1.392 . S
C2109 C2113 1.495 . S
C2110 C2109 1.392 . S
C2110 C2111 1.385 . S
C2110 C2112 1.478 . S
C2111 H2105 0.930 . S
C2111 C2107 1.400 . S
C2111 C2110 1.385 . S
C2112 C2110 1.478 . S
C2112 C2114 1.381 . S
C2112 C2118 1.383 . S
C2113 C2109 1.495 . S
C2113 H2119 0.959 . S
C2113 H2120 0.961 . S
C2113 H2121 0.960 . S
C2114 C2112 1.381 . S
C2114 C2115 1.394 1_556 S
C2114 H2122 0.930 . S
C2115 C2114 1.394 1_554 S
C2115 C2116 1.383 . S
C2115 H2123 0.929 . S
C2116 C2115 1.383 . S
C2116 C2117 1.377 . S
C2117 H2101 0.930 . S
C2117 C2116 1.377 . S
C2117 C2118 1.379 1_554 S
C2118 H2102 0.931 . S
C2118 C2112 1.383 . S
C2118 C2117 1.379 1_556 S
H2119 C2113 0.959 . S
H2120 C2113 0.961 . S
H2121 C2113 0.960 . S
H2122 C2114 0.930 . S
H2123 C2115 0.929 . S
H2124 C2132 0.929 . S
H2125 C2134 0.930 . S
H2126 C2136 0.930 . S
H2127 C2139 0.921 1_545 S
H2128 C2142 0.930 . S
H2129 C2144 0.960 . S
H2130 C2144 0.960 . S
H2131 C2144 0.960 . S
C2132 H2124 0.929 . S
C2132 C2133 1.377 . S
C2132 C2134 1.384 . S
C2133 C2132 1.377 . S
C2133 C2139 1.415 . S
C2134 H2125 0.930 . S
C2134 C2132 1.384 . S
C2134 C2135 1.372 . S
C2135 C2134 1.372 . S
C2135 C2136 1.400 1_565 S
C2135 C2140 1.490 1_565 S
C2136 H2126 0.930 . S
C2136 C2135 1.400 1_545 S
C2136 C2139 1.372 1_545 S
H2137 C2153 0.930 . S
H2138 C2154 0.931 . S
C2139 H2127 0.921 1_565 S
C2139 C2133 1.415 . S
C2139 C2136 1.372 1_565 S
C2140 C2135 1.490 1_545 S
C2140 C2142 1.395 1_545 S
C2140 C2143 1.403 . S
H2141 C2147 0.930 . S
C2142 H2128 0.930 . S
C2142 C2140 1.395 1_565 S
C2142 C2145 1.403 . S
C2143 C2140 1.403 . S
C2143 C2144 1.524 . S
C2143 C2147 1.400 . S
C2144 H2129 0.960 . S
C2144 H2130 0.960 . S
C2144 H2131 0.960 . S
C2144 C2143 1.524 . S
C2145 C2142 1.403 . S
C2145 C2146 1.392 1_565 S
C2145 C2149 1.495 . S
C2146 C2145 1.392 1_545 S
C2146 C2147 1.385 . S
C2146 C2148 1.478 . S
C2147 H2141 0.930 . S
C2147 C2143 1.400 . S
C2147 C2146 1.385 . S
C2148 C2146 1.478 . S
C2148 C2150 1.381 . S
C2148 C2154 1.383 . S
C2149 C2145 1.495 . S
C2149 H2155 0.959 . S
C2149 H2156 0.961 . S
C2149 H2157 0.960 . S
C2150 C2148 1.381 . S
C2150 C2151 1.394 . S
C2150 H2158 0.930 . S
C2151 C2150 1.394 . S
C2151 C2152 1.383 . S
C2151 H2159 0.929 . S
C2152 C2151 1.383 . S
C2152 C2153 1.377 . S
C2153 H2137 0.930 . S
C2153 C2152 1.377 . S
C2153 C2154 1.379 . S
C2154 H2138 0.931 . S
C2154 C2148 1.383 . S
C2154 C2153 1.379 . S
H2155 C2149 0.959 . S
H2156 C2149 0.961 . S
H2157 C2149 0.960 . S
H2158 C2150 0.930 . S
H2159 C2151 0.929 . S
H2160 C2168 0.929 . S
H2161 C2170 0.930 . S
H2162 C2172 0.930 1_655 S
H2163 C2175 0.929 . S
H2164 C2178 0.930 . S
H2165 C2180 0.960 . S
H2166 C2180 0.960 1_455 S
H2167 C2180 0.960 . S
C2168 H2160 0.929 . S
C2168 C2169 1.377 . S
C2168 C2170 1.384 . S
C2169 C2168 1.377 . S
C2169 C2175 1.390 . S
C2170 H2161 0.930 . S
C2170 C2168 1.384 . S
C2170 C2171 1.372 . S
C2171 C2170 1.372 . S
C2171 C2172 1.400 . S
C2171 C2176 1.490 . S
C2172 H2162 0.930 1_455 S
C2172 C2171 1.400 . S
C2172 C2175 1.386 . S
H2173 C2189 0.930 . S
H2174 C2190 0.931 . S
C2175 H2163 0.929 . S
C2175 C2169 1.390 . S
C2175 C2172 1.386 . S
C2176 C2171 1.490 . S
C2176 C2178 1.395 . S
C2176 C2179 1.403 . S
H2177 C2183 0.930 . S
C2178 H2164 0.930 . S
C2178 C2176 1.395 . S
C2178 C2181 1.403 . S
C2179 C2176 1.403 . S
C2179 C2180 1.524 1_455 S
C2179 C2183 1.400 1_455 S
C2180 H2165 0.960 . S
C2180 H2166 0.960 1_655 S
C2180 H2167 0.960 . S
C2180 C2179 1.524 1_655 S
C2181 C2178 1.403 . S
C2181 C2182 1.392 . S
C2181 C2185 1.495 . S
C2182 C2181 1.392 . S
C2182 C2183 1.385 1_455 S
C2182 C2184 1.478 1_455 S
C2183 H2177 0.930 . S
C2183 C2179 1.400 1_655 S
C2183 C2182 1.385 1_655 S
C2184 C2182 1.478 1_655 S
C2184 C2186 1.381 1_655 S
C2184 C2190 1.383 . S
C2185 C2181 1.495 . S
C2185 H2191 0.959 . S
C2185 H2192 0.961 . S
C2185 H2193 0.960 . S
C2186 C2184 1.381 1_455 S
C2186 C2187 1.394 . S
C2186 H2194 0.930 . S
C2187 C2186 1.394 . S
C2187 C2188 1.383 1_455 S
C2187 H2195 0.929 . S
C2188 C2187 1.383 1_655 S
C2188 C2189 1.377 . S
C2189 H2173 0.930 . S
C2189 C2188 1.377 . S
C2189 C2190 1.379 . S
C2190 H2174 0.931 . S
C2190 C2184 1.383 . S
C2190 C2189 1.379 . S
H2191 C2185 0.959 . S
H2192 C2185 0.961 . S
H2193 C2185 0.960 . S
H2194 C2186 0.930 . S
H2195 C2187 0.929 . S
H2196 C2204 0.929 . S
H2197 C2206 0.930 . S
H2198 C2208 0.930 . S
H2199 C2211 0.929 . S
H2200 C2214 0.930 . S
H2201 C2216 0.960 . S
H2202 C2216 0.960 . S
H2203 C2216 0.960 . S
C2204 H2196 0.929 . S
C2204 C2205 1.377 . S
C2204 C2206 1.384 . S
C2205 C2204 1.377 . S
C2205 C2211 1.390 . S
C2206 H2197 0.930 . S
C2206 C2204 1.384 . S
C2206 C2207 1.372 . S
C2207 C2206 1.372 . S
C2207 C2208 1.400 . S
C2207 C2212 1.490 . S
C2208 H2198 0.930 . S
C2208 C2207 1.400 . S
C2208 C2211 1.386 . S
H2209 C2225 0.930 . S
H2210 C2226 0.931 . S
C2211 H2199 0.929 . S
C2211 C2205 1.390 . S
C2211 C2208 1.386 . S
C2212 C2207 1.490 . S
C2212 C2214 1.395 . S
C2212 C2215 1.403 . S
H2213 C2219 0.930 . S
C2214 H2200 0.930 . S
C2214 C2212 1.395 . S
C2214 C2217 1.403 . S
C2215 C2212 1.403 . S
C2215 C2216 1.524 . S
C2215 C2219 1.400 . S
C2216 H2201 0.960 . S
C2216 H2202 0.960 . S
C2216 H2203 0.960 . S
C2216 C2215 1.524 . S
C2217 C2214 1.403 . S
C2217 C2218 1.392 . S
C2217 C2221 1.495 . S
C2218 C2217 1.392 . S
C2218 C2219 1.385 . S
C2218 C2220 1.478 . S
C2219 H2213 0.930 . S
C2219 C2215 1.400 . S
C2219 C2218 1.385 . S
C2220 C2218 1.478 . S
C2220 C2222 1.381 . S
C2220 C2226 1.383 . S
C2221 C2217 1.495 . S
C2221 H2227 0.959 . S
C2221 H2228 0.961 . S
C2221 H2229 0.960 . S
C2222 C2220 1.381 . S
C2222 C2223 1.394 . S
C2222 H2230 0.930 . S
C2223 C2222 1.394 . S
C2223 C2224 1.383 . S
C2223 H2231 0.929 . S
C2224 C2223 1.383 . S
C2224 C2225 1.377 . S
C2225 H2209 0.930 . S
C2225 C2224 1.377 . S
C2225 C2226 1.379 . S
C2226 H2210 0.931 . S
C2226 C2220 1.383 . S
C2226 C2225 1.379 . S
H2227 C2221 0.959 . S
H2228 C2221 0.961 . S
H2229 C2221 0.960 . S
H2230 C2222 0.930 . S
H2231 C2223 0.929 . S
H2232 C2240 0.929 . S
H2233 C2242 0.930 . S
H2234 C2244 0.930 . S
H2235 C2247 0.929 . S
H2236 C2250 0.930 . S
H2237 C2252 0.960 . S
H2238 C2252 0.960 . S
H2239 C2252 0.960 . S
C2240 H2232 0.929 . S
C2240 C2241 1.377 . S
C2240 C2242 1.384 . S
C2241 C2240 1.377 . S
C2241 C2247 1.390 . S
C2242 H2233 0.930 . S
C2242 C2240 1.384 . S
C2242 C2243 1.372 . S
C2243 C2242 1.372 . S
C2243 C2244 1.400 . S
C2243 C2248 1.490 . S
C2244 H2234 0.930 . S
C2244 C2243 1.400 . S
C2244 C2247 1.386 . S
H2245 C2261 0.930 . S
H2246 C2262 0.931 . S
C2247 H2235 0.929 . S
C2247 C2241 1.390 . S
C2247 C2244 1.386 . S
C2248 C2243 1.490 . S
C2248 C2250 1.395 . S
C2248 C2251 1.403 1_455 S
H2249 C2255 0.930 . S
C2250 H2236 0.930 . S
C2250 C2248 1.395 . S
C2250 C2253 1.403 . S
C2251 C2248 1.403 1_655 S
C2251 C2252 1.524 . S
C2251 C2255 1.400 . S
C2252 H2237 0.960 . S
C2252 H2238 0.960 . S
C2252 H2239 0.960 . S
C2252 C2251 1.524 . S
C2253 C2250 1.403 . S
C2253 C2254 1.392 . S
C2253 C2257 1.495 . S
C2254 C2253 1.392 . S
C2254 C2255 1.385 1_455 S
C2254 C2256 1.478 1_455 S
C2255 H2249 0.930 . S
C2255 C2251 1.400 . S
C2255 C2254 1.385 1_655 S
C2256 C2254 1.478 1_655 S
C2256 C2258 1.381 1_655 S
C2256 C2262 1.383 . S
C2257 C2253 1.495 . S
C2257 H2263 0.959 . S
C2257 H2264 0.961 . S
C2257 H2265 0.960 . S
C2258 C2256 1.381 1_455 S
C2258 C2259 1.394 1_455 S
C2258 H2266 0.930 . S
C2259 C2258 1.394 1_655 S
C2259 C2260 1.383 . S
C2259 H2267 0.929 . S
C2260 C2259 1.383 . S
C2260 C2261 1.377 . S
C2261 H2245 0.930 . S
C2261 C2260 1.377 . S
C2261 C2262 1.379 . S
C2262 H2246 0.931 . S
C2262 C2256 1.383 . S
C2262 C2261 1.379 . S
H2263 C2257 0.959 . S
H2264 C2257 0.961 . S
H2265 C2257 0.960 . S
H2266 C2258 0.930 . S
H2267 C2259 0.929 . S
H2268 C2276 0.929 . S
H2269 C2278 0.930 . S
H2270 C2280 0.930 . S
H2271 C2283 0.929 . S
H2272 C2286 0.930 . S
H2273 C2288 0.960 . S
H2274 C2288 0.960 . S
H2275 C2288 0.960 . S
C2276 H2268 0.929 . S
C2276 C2277 1.377 . S
C2276 C2278 1.384 . S
C2277 C2276 1.377 . S
C2277 C2283 1.390 . S
C2278 H2269 0.930 . S
C2278 C2276 1.384 . S
C2278 C2279 1.372 . S
C2279 C2278 1.372 . S
C2279 C2280 1.400 . S
C2279 C2284 1.490 . S
C2280 H2270 0.930 . S
C2280 C2279 1.400 . S
C2280 C2283 1.386 . S
H2281 C2297 0.930 . S
H2282 C2298 0.931 . S
C2283 H2271 0.929 . S
C2283 C2277 1.390 . S
C2283 C2280 1.386 . S
C2284 C2279 1.490 . S
C2284 C2286 1.395 . S
C2284 C2287 1.403 . S
H2285 C2291 0.930 . S
C2286 H2272 0.930 . S
C2286 C2284 1.395 . S
C2286 C2289 1.403 . S
C2287 C2284 1.403 . S
C2287 C2288 1.524 . S
C2287 C2291 1.400 . S
C2288 H2273 0.960 . S
C2288 H2274 0.960 . S
C2288 H2275 0.960 . S
C2288 C2287 1.524 . S
C2289 C2286 1.403 . S
C2289 C2290 1.392 . S
C2289 C2293 1.495 . S
C2290 C2289 1.392 . S
C2290 C2291 1.385 . S
C2290 C2292 1.478 . S
C2291 H2285 0.930 . S
C2291 C2287 1.400 . S
C2291 C2290 1.385 . S
C2292 C2290 1.478 . S
C2292 C2294 1.381 . S
C2292 C2298 1.383 . S
C2293 C2289 1.495 . S
C2293 H2299 0.959 . S
C2293 H2300 0.961 . S
C2293 H2301 0.960 . S
C2294 C2292 1.381 . S
C2294 C2295 1.394 . S
C2294 H2302 0.930 . S
C2295 C2294 1.394 . S
C2295 C2296 1.383 . S
C2295 H2303 0.929 . S
C2296 C2295 1.383 . S
C2296 C2297 1.377 . S
C2297 H2281 0.930 . S
C2297 C2296 1.377 . S
C2297 C2298 1.379 . S
C2298 H2282 0.931 . S
C2298 C2292 1.383 . S
C2298 C2297 1.379 . S
H2299 C2293 0.959 . S
H2300 C2293 0.961 . S
H2301 C2293 0.960 . S
H2302 C2294 0.930 . S
H2303 C2295 0.929 . S
H2304 C2312 0.929 . S
H2305 C2314 0.930 . S
H2306 C2316 0.930 . S
H2307 C2319 0.929 . S
H2308 C2322 0.930 1_565 S
H2309 C2324 0.960 . S
H2310 C2324 0.960 . S
H2311 C2324 0.960 . S
C2312 H2304 0.929 . S
C2312 C2313 1.377 . S
C2312 C2314 1.384 . S
C2313 C2312 1.377 . S
C2313 C2319 1.390 . S
C2314 H2305 0.930 . S
C2314 C2312 1.384 . S
C2314 C2315 1.372 . S
C2315 C2314 1.372 . S
C2315 C2316 1.400 . S
C2315 C2320 1.490 . S
C2316 H2306 0.930 . S
C2316 C2315 1.400 . S
C2316 C2319 1.386 . S
H2317 C2333 0.930 . S
H2318 C2334 0.931 . S
C2319 H2307 0.929 . S
C2319 C2313 1.390 . S
C2319 C2316 1.386 . S
C2320 C2315 1.490 . S
C2320 C2322 1.395 . S
C2320 C2323 1.403 . S
H2321 C2327 0.930 . S
C2322 H2308 0.930 1_545 S
C2322 C2320 1.395 . S
C2322 C2325 1.403 1_545 S
C2323 C2320 1.403 . S
C2323 C2324 1.524 . S
C2323 C2327 1.400 . S
C2324 H2309 0.960 . S
C2324 H2310 0.960 . S
C2324 H2311 0.960 . S
C2324 C2323 1.524 . S
C2325 C2322 1.403 1_565 S
C2325 C2326 1.375 1_565 S
C2325 C2329 1.495 . S
C2326 C2325 1.375 1_545 S
C2326 C2327 1.412 . S
C2326 C2328 1.470 1_545 S
C2327 H2321 0.930 . S
C2327 C2323 1.400 . S
C2327 C2326 1.412 . S
C2328 C2326 1.470 1_565 S
C2328 C2330 1.381 . S
C2328 C2334 1.383 . S
C2329 C2325 1.495 . S
C2329 H2335 0.959 . S
C2329 H2336 0.961 . S
C2329 H2337 0.960 . S
C2330 C2328 1.381 . S
C2330 C2331 1.394 . S
C2330 H2338 0.930 1_565 S
C2331 C2330 1.394 . S
C2331 C2332 1.383 . S
C2331 H2339 0.929 . S
C2332 C2331 1.383 . S
C2332 C2333 1.377 . S
C2333 H2317 0.930 . S
C2333 C2332 1.377 . S
C2333 C2334 1.379 . S
C2334 H2318 0.931 . S
C2334 C2328 1.383 . S
C2334 C2333 1.379 . S
H2335 C2329 0.959 . S
H2336 C2329 0.961 . S
H2337 C2329 0.960 . S
H2338 C2330 0.930 1_545 S
H2339 C2331 0.929 . S
C405 C249 1.205 . S
C424 C8 1.220 . S
C441 C29 1.235 . S
C460 C213 1.246 . S
C477 C62 1.186 . S
C496 C241 1.183 . S
C513 C337 1.191 . S
C532 C51 1.181 . S
C549 C21 1.183 . S
C568 C370 1.154 . S
C585 C40 1.191 . S
C604 C381 1.185 . S
C621 C316 1.137 . S
C640 C84 1.138 . S
C657 C103 1.172 . S
C676 C282 1.137 . S
C693 C118 1.168 . S
C712 C307 1.175 . S
C729 C147 1.193 . S
C748 C131 1.225 . S
C765 C73 1.253 . S
C784 C175 1.215 . S
C801 C191 1.180 . S
C820 C98 1.196 . S
C837 C382 1.174 . S
C856 C140 1.192 . S
C873 C338 1.117 . S
C892 C172 1.128 . S
C909 C367 1.161 . S
C928 C184 1.187 . S
C945 C87 1.203 . S
C964 C197 1.217 . S
C981 C96 1.216 . S
C1000 C153 1.234 . S
C1017 C161 1.254 . S
C1036 C125 1.232 . S
C1053 C54 1.225 . S
C1072 C219 1.230 . S
C1089 C18 1.178 . S
C1108 C227 1.185 . S
C1125 C257 1.216 . S
C1144 C43 1.234 . S
C1161 C252 1.159 . S
C1180 C279 1.157 . S
C1197 C206 1.171 . S
C1216 C296 1.178 . S
C1233 C238 1.212 . S
C1252 C315 1.161 . S
C1269 C272 1.186 . S
C1288 C128 1.150 . S
C1305 C293 1.203 . S
C1324 C76 1.184 . S
C1341 C318 1.206 . S
C1360 C95 1.159 . S
C1377 C323 1.167 . S
C1396 C216 1.166 . S
C1413 C285 1.217 . S
C1432 C230 1.229 1_545 S
C1449 C304 1.166 . S
C1468 C250 1.169 . S
C1485 C340 1.190 . S
C1504 C194 1.146 . S
C1521 C373 1.190 . S
C1540 C150 1.203 1_545 S
C1557 C164 1.126 . S
C1576 C384 1.137 . S
C1593 C15 1.235 . S
C1612 C389 1.261 . S
C1629 C32 1.222 . S
C1648 C345 1.216 . S
C1665 C360 1.227 . S
C1684 C65 1.230 . S
C1701 C162 0.980 . S
C1720 C7 0.978 . S
C1737 C186 0.950 . S
C1756 C30 0.958 . S
C1773 C142 0.986 . S
C1792 C59 0.985 . S
C1809 C294 0.959 . S
C1828 C52 0.957 . S
C1845 C10 1.000 . S
C1864 C329 1.001 . S
C1881 C37 1.042 . S
C1900 C271 1.042 . S
C1917 C81 1.041 . S
C1936 C359 1.038 . S
C1953 C106 0.959 . S
C1972 C392 0.966 . S
C1989 C117 1.000 . S
C2008 C348 0.982 . S
C2025 C120 0.952 . S
C2044 C228 0.940 . S
C2061 C260 0.949 . S
C2080 C74 0.947 . S
C2097 C109 0.985 . S
C2116 C208 0.993 . S
C2133 C139 1.045 . S
C2152 C301 1.045 . S
C2169 C169 1.018 . S
C2188 C326 1.025 . S
C2205 C183 1.014 . S
C2224 C274 1.022 . S
C2241 C263 1.017 . S
C2260 C362 1.024 . S
C2277 C395 1.047 . S
C2296 C205 1.049 . S
C2313 C351 1.044 . S
C2332 C235 1.040 . S
