# Generated by pormake.
# Topology ull, (4)-cn, num edge types: 1
# Building blocks:
#     Node 0, Type 0, BuildingBlock: QUQFOY_clean_sbu_3, # of connection points: 4
#     Node 1, Type 0, BuildingBlock: QUQFOY_clean_sbu_3, # of connection points: 4
#     Node 2, Type 0, BuildingBlock: QUQFOY_clean_sbu_3, # of connection points: 4
#     Node 3, Type 0, BuildingBlock: QUQFOY_clean_sbu_3, # of connection points: 4
#     Node 4, Type 0, BuildingBlock: QUQFOY_clean_sbu_3, # of connection points: 4
#     Node 5, Type 0, BuildingBlock: QUQFOY_clean_sbu_3, # of connection points: 4
#     Node 6, Type 0, BuildingBlock: QUQFOY_clean_sbu_3, # of connection points: 4
#     Node 7, Type 0, BuildingBlock: QUQFOY_clean_sbu_3, # of connection points: 4
#     Node 8, Type 0, BuildingBlock: QUQFOY_clean_sbu_3, # of connection points: 4
#     Node 9, Type 0, BuildingBlock: QUQFOY_clean_sbu_3, # of connection points: 4
#     Node 10, Type 0, BuildingBlock: QUQFOY_clean_sbu_3, # of connection points: 4
#     Node 11, Type 0, BuildingBlock: QUQFOY_clean_sbu_3, # of connection points: 4
#     Node 12, Type 0, BuildingBlock: QUQFOY_clean_sbu_3, # of connection points: 4
#     Node 13, Type 0, BuildingBlock: QUQFOY_clean_sbu_3, # of connection points: 4
#     Node 14, Type 0, BuildingBlock: QUQFOY_clean_sbu_3, # of connection points: 4
#     Node 15, Type 0, BuildingBlock: QUQFOY_clean_sbu_3, # of connection points: 4
#     Node 16, Type 0, BuildingBlock: QUQFOY_clean_sbu_3, # of connection points: 4
#     Node 17, Type 0, BuildingBlock: QUQFOY_clean_sbu_3, # of connection points: 4
#     Node 18, Type 0, BuildingBlock: QUQFOY_clean_sbu_3, # of connection points: 4
#     Node 19, Type 0, BuildingBlock: QUQFOY_clean_sbu_3, # of connection points: 4
#     Node 20, Type 0, BuildingBlock: QUQFOY_clean_sbu_3, # of connection points: 4
#     Node 21, Type 0, BuildingBlock: QUQFOY_clean_sbu_3, # of connection points: 4
#     Node 22, Type 0, BuildingBlock: QUQFOY_clean_sbu_3, # of connection points: 4
#     Node 23, Type 0, BuildingBlock: QUQFOY_clean_sbu_3, # of connection points: 4
#     Node 24, Type 0, BuildingBlock: QUQFOY_clean_sbu_3, # of connection points: 4
#     Node 25, Type 0, BuildingBlock: QUQFOY_clean_sbu_3, # of connection points: 4
#     Node 26, Type 0, BuildingBlock: QUQFOY_clean_sbu_3, # of connection points: 4
#     Node 27, Type 0, BuildingBlock: QUQFOY_clean_sbu_3, # of connection points: 4
#     Node 28, Type 0, BuildingBlock: QUQFOY_clean_sbu_3, # of connection points: 4
#     Node 29, Type 0, BuildingBlock: QUQFOY_clean_sbu_3, # of connection points: 4
#     Node 30, Type 0, BuildingBlock: QUQFOY_clean_sbu_3, # of connection points: 4
#     Node 31, Type 0, BuildingBlock: QUQFOY_clean_sbu_3, # of connection points: 4
#     Node 32, Type 0, BuildingBlock: QUQFOY_clean_sbu_3, # of connection points: 4
#     Node 33, Type 0, BuildingBlock: QUQFOY_clean_sbu_3, # of connection points: 4
#     Node 34, Type 0, BuildingBlock: QUQFOY_clean_sbu_3, # of connection points: 4
#     Node 35, Type 0, BuildingBlock: QUQFOY_clean_sbu_3, # of connection points: 4
#     Node 36, Type 0, BuildingBlock: QUQFOY_clean_sbu_3, # of connection points: 4
#     Node 37, Type 0, BuildingBlock: QUQFOY_clean_sbu_3, # of connection points: 4
#     Node 38, Type 0, BuildingBlock: QUQFOY_clean_sbu_3, # of connection points: 4
#     Node 39, Type 0, BuildingBlock: QUQFOY_clean_sbu_3, # of connection points: 4
#     Node 40, Type 0, BuildingBlock: QUQFOY_clean_sbu_3, # of connection points: 4
#     Node 41, Type 0, BuildingBlock: QUQFOY_clean_sbu_3, # of connection points: 4
#     Node 42, Type 0, BuildingBlock: QUQFOY_clean_sbu_3, # of connection points: 4
#     Node 43, Type 0, BuildingBlock: QUQFOY_clean_sbu_3, # of connection points: 4
#     Node 44, Type 0, BuildingBlock: QUQFOY_clean_sbu_3, # of connection points: 4
#     Node 45, Type 0, BuildingBlock: QUQFOY_clean_sbu_3, # of connection points: 4
#     Node 46, Type 0, BuildingBlock: QUQFOY_clean_sbu_3, # of connection points: 4
#     Node 47, Type 0, BuildingBlock: QUQFOY_clean_sbu_3, # of connection points: 4
#     Edge 48, Type (0, 0), BuildingBlock: TEMPAE_clean_linker_10, # of connection points: 2
#     Edge 49, Type (0, 0), BuildingBlock: TEMPAE_clean_linker_10, # of connection points: 2
#     Edge 50, Type (0, 0), BuildingBlock: TEMPAE_clean_linker_10, # of connection points: 2
#     Edge 51, Type (0, 0), BuildingBlock: TEMPAE_clean_linker_10, # of connection points: 2
#     Edge 52, Type (0, 0), BuildingBlock: TEMPAE_clean_linker_10, # of connection points: 2
#     Edge 53, Type (0, 0), BuildingBlock: TEMPAE_clean_linker_10, # of connection points: 2
#     Edge 54, Type (0, 0), BuildingBlock: TEMPAE_clean_linker_10, # of connection points: 2
#     Edge 55, Type (0, 0), BuildingBlock: TEMPAE_clean_linker_10, # of connection points: 2
#     Edge 56, Type (0, 0), BuildingBlock: TEMPAE_clean_linker_10, # of connection points: 2
#     Edge 57, Type (0, 0), BuildingBlock: TEMPAE_clean_linker_10, # of connection points: 2
#     Edge 58, Type (0, 0), BuildingBlock: TEMPAE_clean_linker_10, # of connection points: 2
#     Edge 59, Type (0, 0), BuildingBlock: TEMPAE_clean_linker_10, # of connection points: 2
#     Edge 60, Type (0, 0), BuildingBlock: TEMPAE_clean_linker_10, # of connection points: 2
#     Edge 61, Type (0, 0), BuildingBlock: TEMPAE_clean_linker_10, # of connection points: 2
#     Edge 62, Type (0, 0), BuildingBlock: TEMPAE_clean_linker_10, # of connection points: 2
#     Edge 63, Type (0, 0), BuildingBlock: TEMPAE_clean_linker_10, # of connection points: 2
#     Edge 64, Type (0, 0), BuildingBlock: TEMPAE_clean_linker_10, # of connection points: 2
#     Edge 65, Type (0, 0), BuildingBlock: TEMPAE_clean_linker_10, # of connection points: 2
#     Edge 66, Type (0, 0), BuildingBlock: TEMPAE_clean_linker_10, # of connection points: 2
#     Edge 67, Type (0, 0), BuildingBlock: TEMPAE_clean_linker_10, # of connection points: 2
#     Edge 68, Type (0, 0), BuildingBlock: TEMPAE_clean_linker_10, # of connection points: 2
#     Edge 69, Type (0, 0), BuildingBlock: TEMPAE_clean_linker_10, # of connection points: 2
#     Edge 70, Type (0, 0), BuildingBlock: TEMPAE_clean_linker_10, # of connection points: 2
#     Edge 71, Type (0, 0), BuildingBlock: TEMPAE_clean_linker_10, # of connection points: 2
#     Edge 72, Type (0, 0), BuildingBlock: TEMPAE_clean_linker_10, # of connection points: 2
#     Edge 73, Type (0, 0), BuildingBlock: TEMPAE_clean_linker_10, # of connection points: 2
#     Edge 74, Type (0, 0), BuildingBlock: TEMPAE_clean_linker_10, # of connection points: 2
#     Edge 75, Type (0, 0), BuildingBlock: TEMPAE_clean_linker_10, # of connection points: 2
#     Edge 76, Type (0, 0), BuildingBlock: TEMPAE_clean_linker_10, # of connection points: 2
#     Edge 77, Type (0, 0), BuildingBlock: TEMPAE_clean_linker_10, # of connection points: 2
#     Edge 78, Type (0, 0), BuildingBlock: TEMPAE_clean_linker_10, # of connection points: 2
#     Edge 79, Type (0, 0), BuildingBlock: TEMPAE_clean_linker_10, # of connection points: 2
#     Edge 80, Type (0, 0), BuildingBlock: TEMPAE_clean_linker_10, # of connection points: 2
#     Edge 81, Type (0, 0), BuildingBlock: TEMPAE_clean_linker_10, # of connection points: 2
#     Edge 82, Type (0, 0), BuildingBlock: TEMPAE_clean_linker_10, # of connection points: 2
#     Edge 83, Type (0, 0), BuildingBlock: TEMPAE_clean_linker_10, # of connection points: 2
#     Edge 84, Type (0, 0), BuildingBlock: TEMPAE_clean_linker_10, # of connection points: 2
#     Edge 85, Type (0, 0), BuildingBlock: TEMPAE_clean_linker_10, # of connection points: 2
#     Edge 86, Type (0, 0), BuildingBlock: TEMPAE_clean_linker_10, # of connection points: 2
#     Edge 87, Type (0, 0), BuildingBlock: TEMPAE_clean_linker_10, # of connection points: 2
#     Edge 88, Type (0, 0), BuildingBlock: TEMPAE_clean_linker_10, # of connection points: 2
#     Edge 89, Type (0, 0), BuildingBlock: TEMPAE_clean_linker_10, # of connection points: 2
#     Edge 90, Type (0, 0), BuildingBlock: TEMPAE_clean_linker_10, # of connection points: 2
#     Edge 91, Type (0, 0), BuildingBlock: TEMPAE_clean_linker_10, # of connection points: 2
#     Edge 92, Type (0, 0), BuildingBlock: TEMPAE_clean_linker_10, # of connection points: 2
#     Edge 93, Type (0, 0), BuildingBlock: TEMPAE_clean_linker_10, # of connection points: 2
#     Edge 94, Type (0, 0), BuildingBlock: TEMPAE_clean_linker_10, # of connection points: 2
#     Edge 95, Type (0, 0), BuildingBlock: TEMPAE_clean_linker_10, # of connection points: 2
#     Edge 96, Type (0, 0), BuildingBlock: TEMPAE_clean_linker_10, # of connection points: 2
#     Edge 97, Type (0, 0), BuildingBlock: TEMPAE_clean_linker_10, # of connection points: 2
#     Edge 98, Type (0, 0), BuildingBlock: TEMPAE_clean_linker_10, # of connection points: 2
#     Edge 99, Type (0, 0), BuildingBlock: TEMPAE_clean_linker_10, # of connection points: 2
#     Edge 100, Type (0, 0), BuildingBlock: TEMPAE_clean_linker_10, # of connection points: 2
#     Edge 101, Type (0, 0), BuildingBlock: TEMPAE_clean_linker_10, # of connection points: 2
#     Edge 102, Type (0, 0), BuildingBlock: TEMPAE_clean_linker_10, # of connection points: 2
#     Edge 103, Type (0, 0), BuildingBlock: TEMPAE_clean_linker_10, # of connection points: 2
#     Edge 104, Type (0, 0), BuildingBlock: TEMPAE_clean_linker_10, # of connection points: 2
#     Edge 105, Type (0, 0), BuildingBlock: TEMPAE_clean_linker_10, # of connection points: 2
#     Edge 106, Type (0, 0), BuildingBlock: TEMPAE_clean_linker_10, # of connection points: 2
#     Edge 107, Type (0, 0), BuildingBlock: TEMPAE_clean_linker_10, # of connection points: 2
#     Edge 108, Type (0, 0), BuildingBlock: TEMPAE_clean_linker_10, # of connection points: 2
#     Edge 109, Type (0, 0), BuildingBlock: TEMPAE_clean_linker_10, # of connection points: 2
#     Edge 110, Type (0, 0), BuildingBlock: TEMPAE_clean_linker_10, # of connection points: 2
#     Edge 111, Type (0, 0), BuildingBlock: TEMPAE_clean_linker_10, # of connection points: 2
#     Edge 112, Type (0, 0), BuildingBlock: TEMPAE_clean_linker_10, # of connection points: 2
#     Edge 113, Type (0, 0), BuildingBlock: TEMPAE_clean_linker_10, # of connection points: 2
#     Edge 114, Type (0, 0), BuildingBlock: TEMPAE_clean_linker_10, # of connection points: 2
#     Edge 115, Type (0, 0), BuildingBlock: TEMPAE_clean_linker_10, # of connection points: 2
#     Edge 116, Type (0, 0), BuildingBlock: TEMPAE_clean_linker_10, # of connection points: 2
#     Edge 117, Type (0, 0), BuildingBlock: TEMPAE_clean_linker_10, # of connection points: 2
#     Edge 118, Type (0, 0), BuildingBlock: TEMPAE_clean_linker_10, # of connection points: 2
#     Edge 119, Type (0, 0), BuildingBlock: TEMPAE_clean_linker_10, # of connection points: 2
#     Edge 120, Type (0, 0), BuildingBlock: TEMPAE_clean_linker_10, # of connection points: 2
#     Edge 121, Type (0, 0), BuildingBlock: TEMPAE_clean_linker_10, # of connection points: 2
#     Edge 122, Type (0, 0), BuildingBlock: TEMPAE_clean_linker_10, # of connection points: 2
#     Edge 123, Type (0, 0), BuildingBlock: TEMPAE_clean_linker_10, # of connection points: 2
#     Edge 124, Type (0, 0), BuildingBlock: TEMPAE_clean_linker_10, # of connection points: 2
#     Edge 125, Type (0, 0), BuildingBlock: TEMPAE_clean_linker_10, # of connection points: 2
#     Edge 126, Type (0, 0), BuildingBlock: TEMPAE_clean_linker_10, # of connection points: 2
#     Edge 127, Type (0, 0), BuildingBlock: TEMPAE_clean_linker_10, # of connection points: 2
#     Edge 128, Type (0, 0), BuildingBlock: TEMPAE_clean_linker_10, # of connection points: 2
#     Edge 129, Type (0, 0), BuildingBlock: TEMPAE_clean_linker_10, # of connection points: 2
#     Edge 130, Type (0, 0), BuildingBlock: TEMPAE_clean_linker_10, # of connection points: 2
#     Edge 131, Type (0, 0), BuildingBlock: TEMPAE_clean_linker_10, # of connection points: 2
#     Edge 132, Type (0, 0), BuildingBlock: TEMPAE_clean_linker_10, # of connection points: 2
#     Edge 133, Type (0, 0), BuildingBlock: TEMPAE_clean_linker_10, # of connection points: 2
#     Edge 134, Type (0, 0), BuildingBlock: TEMPAE_clean_linker_10, # of connection points: 2
#     Edge 135, Type (0, 0), BuildingBlock: TEMPAE_clean_linker_10, # of connection points: 2
#     Edge 136, Type (0, 0), BuildingBlock: TEMPAE_clean_linker_10, # of connection points: 2
#     Edge 137, Type (0, 0), BuildingBlock: TEMPAE_clean_linker_10, # of connection points: 2
#     Edge 138, Type (0, 0), BuildingBlock: TEMPAE_clean_linker_10, # of connection points: 2
#     Edge 139, Type (0, 0), BuildingBlock: TEMPAE_clean_linker_10, # of connection points: 2
#     Edge 140, Type (0, 0), BuildingBlock: TEMPAE_clean_linker_10, # of connection points: 2
#     Edge 141, Type (0, 0), BuildingBlock: TEMPAE_clean_linker_10, # of connection points: 2
#     Edge 142, Type (0, 0), BuildingBlock: TEMPAE_clean_linker_10, # of connection points: 2
#     Edge 143, Type (0, 0), BuildingBlock: TEMPAE_clean_linker_10, # of connection points: 2
# Relax obj value: 0.026
# Max RMSD: 0.091
# Mean RMSD: 0.091
data_MOF--net-ull--node1-QUQFOY_clean_sbu_3--edge1-TEMPAE_clean_linker_10
_symmetry_space_group_name_H-M    P1
_symmetry_Int_Tables_number       1
_symmetry_cell_setting            triclinic
loop_
_symmetry_equiv_pos_as_xyz
'x, y, z'
_cell_length_a     63.447472
_cell_length_b     63.450631
_cell_length_c     63.445104
_cell_angle_alpha  90.009805
_cell_angle_beta   90.018153
_cell_angle_gamma 90.001372
loop_
_atom_site_label
_atom_site_type_symbol
_atom_site_fract_x
_atom_site_fract_y
_atom_site_fract_z
_atom_type_partial_charge
C0 C 0.03255 0.33168 0.14336 0.0
O1 O 0.02886 0.31289 0.14915 0.0
Cd2 Cd 0.00032 0.30402 0.17142 0.0
O3 O 0.02232 0.34717 0.15115 0.0
Cd4 Cd -0.00404 0.35403 0.17993 0.0
C5 C 0.96038 0.3329 0.14717 0.0
O6 O 0.00775 0.32502 0.20148 0.0
O7 O 0.97912 0.33959 0.21218 0.0
O8 O 0.02062 0.3817 0.18838 0.0
C9 C -0.00654 0.32604 0.2153 0.0
O10 O 0.96985 0.31555 0.15069 0.0
C11 C 0.00708 0.39505 0.19455 0.0
O12 O 0.96631 0.34993 0.15595 0.0
O13 O 0.98783 0.3897 0.19322 0.0
C14 C 0.64853 0.03416 0.13634 0.0
O15 O 0.66694 0.02631 0.13714 0.0
Cd16 Cd 0.67801 0.00096 0.16292 0.0
O17 O 0.63419 0.02805 0.14897 0.0
Cd18 Cd 0.62999 0.00165 0.17743 0.0
C19 C 0.64604 0.96087 0.14701 0.0
O20 O 0.66227 0.01249 0.19504 0.0
O21 O 0.64663 0.98561 0.20863 0.0
O22 O 0.60423 0.02731 0.18853 0.0
C23 C 0.66136 -0.00094 0.20975 0.0
O24 O 0.66473 0.96727 0.15044 0.0
C25 C 0.59095 0.01423 0.19575 0.0
O26 O 0.63015 0.97138 0.15334 0.0
O27 O 0.59548 -0.0052 0.19395 0.0
C28 C 0.94855 0.65249 0.14368 0.0
O29 O 0.95314 0.67129 0.14874 0.0
Cd30 Cd 0.98222 0.67999 0.17051 0.0
O31 O 0.95844 0.63685 0.1516 0.0
Cd32 Cd 0.9857 0.62983 0.17944 0.0
C33 C 0.02173 0.65045 0.14665 0.0
O34 O 0.97465 0.65927 0.20078 0.0
O35 O 0.00276 0.64396 0.21177 0.0
O36 O 0.9614 0.60198 0.18838 0.0
C37 C 0.98888 0.65801 0.21464 0.0
O38 O 0.01273 0.66807 0.15003 0.0
C39 C 0.97521 0.58856 0.19379 0.0
O40 O 0.01519 0.63362 0.15536 0.0
O41 O -0.00563 0.59405 0.19194 0.0
C42 C 0.33787 0.95369 0.13522 0.0
O43 O 0.32016 0.96277 0.13744 0.0
Cd44 Cd 0.31085 0.98513 0.16626 0.0
O45 O 0.35288 0.95699 0.14817 0.0
Cd46 Cd 0.35889 0.9799 0.17938 0.0
C47 C 0.34482 0.02459 0.15386 0.0
O48 O 0.32654 0.96824 0.19584 0.0
O49 O 0.3426 -0.00687 0.21227 0.0
O50 O 0.38441 0.95301 0.18847 0.0
C51 C 0.32773 0.9798 0.21201 0.0
O52 O 0.32581 0.01925 0.15735 0.0
C53 C 0.39774 0.96547 0.19667 0.0
O54 O 0.36001 0.01234 0.15851 0.0
O55 O 0.39341 0.985 0.1961 0.0
C56 C 0.0351 0.65888 0.85178 0.0
O57 O 0.02978 0.67761 0.84721 0.0
Cd58 Cd 0.00015 0.68525 0.82581 0.0
O59 O 0.02583 0.6431 0.84341 0.0
Cd60 Cd -0.00096 0.63601 0.81524 0.0
C61 C 0.96225 0.65311 0.84888 0.0
O62 O 0.00866 0.66653 0.79444 0.0
O63 O 0.98071 0.6503 0.78409 0.0
O64 O 0.02485 0.61004 0.80495 0.0
C65 C -0.00578 0.66463 0.78083 0.0
O66 O 0.97036 0.67126 0.84604 0.0
C67 C 0.01172 0.59645 0.79842 0.0
O68 O 0.96953 0.63695 0.83953 0.0
O69 O -0.0077 0.6008 0.80057 0.0
C70 C 0.32892 0.04351 0.84132 0.0
O71 O 0.31008 0.03897 0.8363 0.0
Cd72 Cd 0.30106 0.01174 0.81194 0.0
O73 O 0.34446 0.03437 0.83246 0.0
Cd74 Cd 0.35064 0.00862 0.80356 0.0
C75 C 0.32934 0.97076 0.83383 0.0
O76 O 0.32155 0.02027 0.78186 0.0
O77 O 0.33582 0.99121 0.77192 0.0
O78 O 0.37824 0.03298 0.79417 0.0
C79 C 0.32251 0.00567 0.76834 0.0
O80 O 0.31154 0.97862 0.82887 0.0
C81 C 0.3915 0.01917 0.78838 0.0
O82 O 0.34648 0.9793 0.82786 0.0
O83 O 0.38613 -1e-05 0.79046 0.0
C84 C 0.93994 0.32477 0.83973 0.0
O85 O 0.94418 0.30608 0.83398 0.0
Cd86 Cd 0.97353 0.2985 0.81212 0.0
O87 O 0.94973 0.3405 0.83189 0.0
Cd88 Cd 0.97567 0.34813 0.80311 0.0
C89 C 0.01191 0.32952 0.83637 0.0
O90 O 0.96619 0.31826 0.78114 0.0
O91 O -0.00545 0.33465 0.77213 0.0
O92 O 0.94938 0.37382 0.79331 0.0
C93 C 0.98107 0.32049 0.76804 0.0
O94 O 0.00326 0.31172 0.83295 0.0
C95 C 0.96221 0.38779 0.787 0.0
O96 O 0.00527 0.34618 0.8274 0.0
O97 O 0.98173 0.38382 0.78911 0.0
C98 C 0.66061 0.95088 0.85155 0.0
O99 O 0.67759 0.96149 0.85176 0.0
Cd100 Cd 0.68566 0.98924 0.82734 0.0
O101 O 0.64608 0.95505 0.83835 0.0
Cd102 Cd 0.63963 0.98129 0.81026 0.0
C103 C 0.64708 0.02365 0.84177 0.0
O104 O 0.67382 0.97795 0.7936 0.0
O105 O 0.65416 0.0032 0.78194 0.0
O106 O 0.62389 0.95415 0.78915 0.0
C107 C 0.67076 -0.00778 0.77998 0.0
O108 O 0.66666 0.01999 0.83955 0.0
C109 C 0.60603 0.96282 0.78697 0.0
O110 O 0.63327 0.01106 0.83439 0.0
O111 O 0.60307 0.9802 0.79649 0.0
C112 C 0.13795 0.0395 0.32236 0.0
O113 O 0.14064 0.03357 0.30345 0.0
Cd114 Cd 0.15924 0.00216 0.29492 0.0
O115 O 0.14712 0.03006 0.33756 0.0
Cd116 Cd 0.17437 0.00197 0.34234 0.0
C117 C 0.13782 0.96601 0.32982 0.0
O118 O 0.19339 0.00717 0.30963 0.0
O119 O 0.20108 0.97874 0.32674 0.0
O120 O 0.19705 0.0255 0.36131 0.0
C121 C 0.20517 0.99117 0.31163 0.0
O122 O 0.13911 0.97368 0.31132 0.0
C123 C 0.1974 0.0153 0.37847 0.0
O124 O 0.14904 0.97321 0.3448 0.0
O125 O 0.18613 -0.00123 0.37951 0.0
C126 C 0.9478 0.13979 0.33165 0.0
O127 O 0.95165 0.14529 0.31281 0.0
Cd128 Cd 0.9799 0.16791 0.3037 0.0
O129 O 0.95797 0.14778 0.34709 0.0
Cd130 Cd 0.98453 0.1766 0.35303 0.0
C131 C 0.02102 0.145 0.33153 0.0
O132 O 0.97211 0.19837 0.32418 0.0
O133 O 0.00091 0.20893 0.33857 0.0
O134 O 0.96093 0.18585 0.38141 0.0
C135 C 0.98633 0.21227 0.32534 0.0
O136 O 0.01138 0.14818 0.31421 0.0
C137 C 0.97508 0.1915 0.39437 0.0
O138 O 0.01472 0.15344 0.34859 0.0
O139 O -0.0059 0.18939 0.38847 0.0
C140 C 0.84835 0.94593 0.3262 0.0
O141 O 0.84473 0.95114 0.30723 0.0
Cd142 Cd 0.82422 0.98113 0.29833 0.0
O143 O 0.83942 0.95551 0.34148 0.0
Cd144 Cd 0.81134 0.98282 0.3468 0.0
C145 C 0.84623 0.01915 0.33101 0.0
O146 O 0.79153 0.97368 0.31528 0.0
O147 O 0.78138 0.00192 0.33114 0.0
O148 O 0.79887 0.9575 0.37233 0.0
C149 C 0.7783 0.98853 0.31665 0.0
O150 O 0.84409 0.01098 0.31279 0.0
C151 C 0.79282 0.97084 0.38593 0.0
O152 O 0.83614 0.01198 0.34678 0.0
O153 O 0.79599 0.99015 0.38173 0.0
C154 C 0.03772 0.84462 0.33113 0.0
O155 O 0.0336 0.83954 0.31222 0.0
Cd156 Cd 0.00499 0.81726 0.30316 0.0
O157 O 0.02783 0.83623 0.34651 0.0
Cd158 Cd 0.00158 0.80724 0.35251 0.0
C159 C 0.96499 0.83989 0.33306 0.0
O160 O 0.01297 0.78622 0.32263 0.0
O161 O 0.98455 0.77556 0.33778 0.0
O162 O 0.02657 0.79784 0.37956 0.0
C163 C -0.00134 0.77241 0.32402 0.0
O164 O 0.97415 0.83703 0.31543 0.0
C165 C 0.01314 0.79132 0.39285 0.0
O166 O 0.97154 0.83087 0.34973 0.0
O167 O -0.00617 0.79298 0.38779 0.0
C168 C 0.1315 0.95127 0.66031 0.0
O169 O 0.13382 0.96024 0.67804 0.0
Cd170 Cd 0.15837 0.98782 0.68471 0.0
O171 O 0.14233 0.9569 0.64433 0.0
Cd172 Cd 0.16982 0.9837 0.63577 0.0
C173 C 0.13811 0.02406 0.65012 0.0
O174 O 0.19001 0.97638 0.66752 0.0
O175 O 0.20163 0.00183 0.64829 0.0
O176 O 0.18159 0.95756 0.61053 0.0
C177 C 0.20426 0.98991 0.66407 0.0
O178 O 0.141 0.01816 0.66906 0.0
C179 C 0.18613 0.9706 0.59605 0.0
O180 O 0.14628 0.01404 0.6348 0.0
O181 O 0.18235 0.98989 0.59974 0.0
C182 C 0.03972 0.14596 0.64292 0.0
O183 O 0.03608 0.15135 0.66184 0.0
Cd184 Cd 0.00689 0.17239 0.67171 0.0
O185 O 0.02892 0.15341 0.62767 0.0
Cd186 Cd 0.00137 0.18111 0.62173 0.0
C187 C 0.96695 0.14758 0.64337 0.0
O188 O 0.01259 0.20284 0.65081 0.0
O189 O 0.98341 0.21247 0.63661 0.0
O190 O 0.02481 0.19115 0.5937 0.0
C191 C -0.00234 0.21599 0.65015 0.0
O192 O 0.97647 0.15124 0.66068 0.0
C193 C 0.01062 0.1964 0.58063 0.0
O194 O 0.97267 0.15639 0.6263 0.0
O195 O 0.99161 0.19377 0.58632 0.0
C196 C 0.84977 0.04253 0.65554 0.0
O197 O 0.84479 0.03924 0.67463 0.0
Cd198 Cd 0.82229 0.01141 0.6852 0.0
O199 O 0.84144 0.03191 0.64062 0.0
Cd200 Cd 0.81292 0.00505 0.63578 0.0
C201 C 0.84476 0.96939 0.65839 0.0
O202 O 0.79183 0.01852 0.66445 0.0
O203 O 0.78078 0.98934 0.65129 0.0
O204 O 0.80367 0.02752 0.60653 0.0
C205 C 0.77785 0.00435 0.66413 0.0
O206 O 0.84181 0.97951 0.67547 0.0
C207 C 0.79789 0.01287 0.59421 0.0
O208 O 0.83616 0.97523 0.64125 0.0
O209 O 0.79982 -0.00589 0.60092 0.0
C210 C 0.94678 0.84859 0.66414 0.0
O211 O 0.95288 0.84371 0.68257 0.0
Cd212 Cd 0.98016 0.81881 0.68961 0.0
O213 O 0.95444 0.83952 0.64792 0.0
Cd214 Cd 0.97969 0.81045 0.64028 0.0
C215 C 0.01963 0.83983 0.65905 0.0
O216 O 0.96871 0.78908 0.66986 0.0
O217 O -0.00344 0.77803 0.6541 0.0
O218 O 0.95506 0.80084 0.61272 0.0
C219 C 0.98249 0.77485 0.6679 0.0
O220 O 0.01311 0.835 0.67741 0.0
C221 C 0.96896 0.79531 0.59943 0.0
O222 O 0.00962 0.83404 0.64268 0.0
O223 O 0.98809 0.79777 0.60478 0.0
C224 C 0.33029 0.13115 0.04123 0.0
O225 O 0.31131 0.13122 0.03486 0.0
Cd226 Cd 0.29849 0.15384 0.00782 0.0
O227 O 0.34392 0.14354 0.03322 0.0
Cd228 Cd 0.34615 0.17151 0.00575 0.0
C229 C 0.33124 0.13731 0.96774 0.0
O230 O 0.313 0.18759 0.01624 0.0
O231 O 0.32795 0.20119 0.98894 0.0
O232 O 0.3713 0.18484 0.0309 0.0
C233 C 0.31301 0.20175 0.00218 0.0
O234 O 0.31309 0.1379 0.97625 0.0
C235 C 0.38431 0.19204 0.01755 0.0
O236 O 0.34664 0.14769 0.97538 0.0
O237 O 0.37988 0.18933 -0.00179 0.0
C238 C 0.32052 0.85868 0.94511 0.0
O239 O 0.30324 0.85748 0.95513 0.0
Cd240 Cd 0.29612 0.83143 0.9816 0.0
O241 O 0.33587 0.84652 0.94955 0.0
Cd242 Cd 0.34347 0.81881 0.97594 0.0
C243 C 0.33104 0.84879 0.01814 0.0
O244 O 0.31114 0.79933 0.96869 0.0
O245 O 0.32998 0.78761 -0.0056 0.0
O246 O 0.36787 0.80646 0.94929 0.0
C247 C 0.31436 0.78504 0.98222 0.0
O248 O 0.31188 0.84461 0.01397 0.0
C249 C 0.38222 0.80093 0.96208 0.0
O250 O 0.34576 0.843 0.00582 0.0
O251 O 0.37892 0.8045 0.98149 0.0
C252 C 0.12558 0.31981 0.94512 0.0
O253 O 0.12799 0.30079 0.95078 0.0
Cd254 Cd 0.14777 0.29148 0.98118 0.0
O255 O 0.13538 0.3347 0.95442 0.0
Cd256 Cd 0.16366 0.33851 0.98167 0.0
C257 C 0.12818 0.32626 0.01856 0.0
O258 O 0.18185 0.30556 0.97384 0.0
O259 O 0.19186 0.32164 0.00204 0.0
O260 O 0.17827 0.36222 0.95571 0.0
C261 C 0.19471 0.30676 0.98905 0.0
O262 O 0.12918 0.30772 0.01092 0.0
C263 C 0.18532 0.37562 0.96876 0.0
O264 O 0.13903 0.3412 0.01079 0.0
O265 O 0.18162 0.37225 0.98814 0.0
C266 C 0.64555 0.13221 0.95412 0.0
O267 O 0.66367 0.13303 0.9626 0.0
Cd268 Cd 0.67428 0.15941 0.98747 0.0
O269 O 0.63128 0.14539 0.95917 0.0
Cd270 Cd 0.62723 0.17509 0.98426 0.0
C271 C 0.64026 0.14575 0.02665 0.0
O272 O 0.66037 0.1917 0.97424 0.0
O273 O 0.64432 0.20581 0.00061 0.0
O274 O 0.60322 0.18644 0.95704 0.0
C275 C 0.6593 0.20662 0.98743 0.0
O276 O 0.65928 0.14855 0.02095 0.0
C277 C 0.59001 0.19519 0.96922 0.0
O278 O 0.62498 0.15203 0.01524 0.0
O279 O 0.59356 0.1939 0.98889 0.0
C280 C 0.84498 0.65374 0.95418 0.0
O281 O 0.84032 0.6726 0.95897 0.0
Cd282 Cd 0.81889 0.68122 0.98827 0.0
O283 O 0.83671 0.63817 0.96388 0.0
Cd284 Cd 0.80855 0.63148 0.99086 0.0
C285 C 0.84209 0.65026 0.02712 0.0
O286 O 0.78799 0.6616 0.98025 0.0
O287 O 0.77676 0.64635 0.0083 0.0
O288 O 0.79888 0.60469 0.96573 0.0
C289 C 0.77414 0.66055 -0.0055 0.0
O290 O 0.83919 0.66812 0.01842 0.0
C291 C 0.79292 0.59104 0.97907 0.0
O292 O 0.8328 0.63383 0.02037 0.0
O293 O 0.79481 0.59587 -0.00159 0.0
C294 C 0.65552 0.84988 0.03596 0.0
O295 O 0.67393 0.84833 0.02825 0.0
Cd296 Cd 0.68392 0.82188 0.00311 0.0
O297 O 0.64073 0.83782 0.02974 0.0
Cd298 Cd 0.63582 0.80963 0.0032 0.0
C299 C 0.65358 0.83908 0.96245 0.0
O300 O 0.66694 0.79029 0.0147 0.0
O301 O 0.651 0.77764 0.98751 0.0
O302 O 0.60895 0.79964 0.02818 0.0
C303 C 0.66524 0.77556 0.00136 0.0
O304 O 0.67204 0.83489 0.96909 0.0
C305 C 0.59585 0.79277 0.01473 0.0
O306 O 0.63736 0.8334 0.97281 0.0
O307 O 0.60095 0.79443 -0.00456 0.0
C308 C 0.13915 0.65835 0.04161 0.0
O309 O 0.14352 0.67739 0.03736 0.0
Cd310 Cd 0.16431 0.68696 0.00784 0.0
O311 O 0.14753 0.64322 0.03133 0.0
Cd312 Cd 0.17556 0.63798 0.004 0.0
C313 C 0.14123 0.65655 0.96859 0.0
O314 O 0.19622 0.66833 0.01431 0.0
O315 O 0.2059 0.65375 0.98529 0.0
O316 O 0.18716 0.61114 0.02827 0.0
C317 C 0.20922 0.66766 -0.00076 0.0
O318 O 0.14391 0.67431 0.97756 0.0
C319 C 0.19273 0.59785 0.01441 0.0
O320 O 0.15083 0.64016 0.97498 0.0
O321 O 0.1897 0.60289 -0.00473 0.0
C322 C 0.84684 0.32246 0.03772 0.0
O323 O 0.84282 0.30349 0.0328 0.0
Cd324 Cd 0.82126 0.29441 0.00355 0.0
O325 O 0.83798 0.33776 0.02814 0.0
Cd326 Cd 0.80964 0.34346 0.00124 0.0
C327 C 0.84265 0.32563 0.96404 0.0
O328 O 0.78935 0.31263 0.01142 0.0
O329 O 0.77857 0.32851 0.98343 0.0
O330 O 0.79902 0.36989 0.02644 0.0
C331 C 0.7757 0.31411 -0.00305 0.0
O332 O 0.84034 0.30764 0.97265 0.0
C333 C 0.79298 0.38345 0.01307 0.0
O334 O 0.83338 0.34185 0.9713 0.0
O335 O 0.79523 0.37876 -0.00627 0.0
C336 C 0.53863 0.81827 0.63185 0.0
O337 O 0.52897 0.80083 0.63024 0.0
Cd338 Cd 0.4986 0.79152 0.65012 0.0
O339 O 0.53241 0.83234 0.64479 0.0
Cd340 Cd 0.50334 0.83683 0.67091 0.0
C341 C 0.46535 0.83111 0.63404 0.0
O342 O 0.50575 0.80168 0.68567 0.0
O343 O 0.47924 0.82032 0.69615 0.0
O344 O 0.52644 0.85222 0.69687 0.0
C345 C 0.49023 0.80373 0.69807 0.0
O346 O 0.47089 0.81185 0.63355 0.0
C347 C 0.51786 0.87025 0.69723 0.0
O348 O 0.47462 0.84423 0.64607 0.0
O349 O 0.50252 0.8733 0.68473 0.0
C350 C 0.15557 0.53518 0.63825 0.0
O351 O 0.1731 0.52564 0.63982 0.0
Cd352 Cd 0.18058 0.49921 0.6657 0.0
O353 O 0.14014 0.53039 0.65016 0.0
Cd354 Cd 0.13284 0.50389 0.67794 0.0
C355 C 0.14622 0.46268 0.64708 0.0
O356 O 0.16482 0.51181 0.69748 0.0
O357 O 0.14704 0.48523 0.70884 0.0
O358 O 0.10799 0.53028 0.68978 0.0
C359 C 0.16217 0.49796 0.71159 0.0
O360 O 0.16526 0.46699 0.65165 0.0
C361 C 0.094 0.51735 0.69588 0.0
O362 O 0.13123 0.47461 0.65304 0.0
O363 O 0.09768 0.49791 0.69288 0.0
C364 C 0.45713 0.15464 0.62716 0.0
O365 O 0.4663 0.17243 0.62755 0.0
Cd366 Cd 0.49244 0.18205 0.65312 0.0
O367 O 0.46241 0.14007 0.63993 0.0
Cd368 Cd 0.48933 0.1348 0.66782 0.0
C369 C 0.53076 0.1483 0.63715 0.0
O370 O 0.48007 0.16753 0.68557 0.0
O371 O 0.50649 0.1508 0.69876 0.0
O372 O 0.46309 0.1099 0.67965 0.0
C373 C 0.49351 0.16591 0.70021 0.0
O374 O 0.52551 0.16733 0.64063 0.0
C375 C 0.47594 0.09647 0.68701 0.0
O376 O 0.51932 0.1331 0.6435 0.0
O377 O 0.49544 0.10044 0.6848 0.0
C378 C 0.8177 0.45077 0.62828 0.0
O379 O 0.80039 0.4608 0.62886 0.0
Cd380 Cd 0.79346 0.48844 0.65378 0.0
O381 O 0.8329 0.45582 0.64039 0.0
Cd382 Cd 0.84046 0.48326 0.6671 0.0
C383 C 0.82856 0.52417 0.6351 0.0
O384 O 0.80795 0.47676 0.68665 0.0
O385 O 0.8269 0.50278 0.69757 0.0
O386 O 0.86434 0.45624 0.6796 0.0
C387 C 0.81129 0.4907 0.70055 0.0
O388 O 0.80937 0.52014 0.63928 0.0
C389 C 0.87865 0.46875 0.68583 0.0
O390 O 0.84325 0.51216 0.64161 0.0
O391 O 0.87563 0.48827 0.68261 0.0
C392 C 0.53345 0.1549 0.35163 0.0
O393 O 0.52705 0.17383 0.35071 0.0
Cd394 Cd 0.4992 0.18487 0.32814 0.0
O395 O 0.52502 0.14057 0.34033 0.0
Cd396 Cd 0.49666 0.1363 0.31346 0.0
C397 C 0.45984 0.15306 0.34803 0.0
O398 O 0.50721 0.16824 0.29519 0.0
O399 O 0.47967 0.15268 0.28279 0.0
O400 O 0.52183 0.1102 0.30218 0.0
C401 C 0.49313 0.16733 0.28108 0.0
O402 O 0.46843 0.17109 0.34625 0.0
C403 C 0.50857 0.09703 0.29513 0.0
O404 O 0.46693 0.13712 0.33811 0.0
O405 O 0.48921 0.10176 0.29707 0.0
C406 C 0.83673 0.53191 0.34689 0.0
O407 O 0.81771 0.52582 0.34569 0.0
Cd408 Cd 0.80619 0.49837 0.32292 0.0
O409 O 0.85105 0.52336 0.33567 0.0
Cd410 Cd 0.85474 0.49487 0.30872 0.0
C411 C 0.83692 0.45849 0.34328 0.0
O412 O 0.82321 0.50622 0.29019 0.0
O413 O 0.83799 0.47823 0.27794 0.0
O414 O 0.88187 0.51895 0.29755 0.0
C415 C 0.82373 0.4921 0.27612 0.0
O416 O 0.819 0.46723 0.34114 0.0
C417 C 0.89464 0.50514 0.2908 0.0
O418 O 0.85306 0.46543 0.33359 0.0
O419 O 0.88915 0.48599 0.29279 0.0
C420 C 0.44867 0.82166 0.35295 0.0
O421 O 0.45301 0.80246 0.3494 0.0
Cd422 Cd 0.48278 0.79233 0.32911 0.0
O423 O 0.45903 0.83643 0.34408 0.0
Cd424 Cd 0.4867 0.84075 0.31634 0.0
C425 C 0.52196 0.82329 0.35154 0.0
O426 O 0.47642 0.80973 0.29638 0.0
O427 O 0.50526 0.82464 0.2864 0.0
O428 O 0.46201 0.86696 0.30421 0.0
C429 C 0.49136 0.81067 0.2832 0.0
O430 O 0.51294 0.80548 0.3494 0.0
C431 C 0.47563 0.88016 0.29791 0.0
O432 O 0.5157 0.83935 0.34131 0.0
O433 O 0.49487 0.87545 0.30084 0.0
C434 C 0.15512 0.45607 0.34437 0.0
O435 O 0.17317 0.46449 0.34236 0.0
Cd436 Cd 0.18172 0.49012 0.31606 0.0
O437 O 0.13965 0.46187 0.33293 0.0
Cd438 Cd 0.13263 0.48879 0.30539 0.0
C439 C 0.15061 0.52919 0.33548 0.0
O440 O 0.16335 0.47788 0.28561 0.0
O441 O 0.14702 0.50473 0.27286 0.0
O442 O 0.10533 0.46382 0.29621 0.0
C443 C 0.16146 0.49108 0.27081 0.0
O444 O 0.16912 0.52336 0.33045 0.0
C445 C 0.092 0.47732 0.28991 0.0
O446 O 0.13454 0.51851 0.32995 0.0
O447 O 0.09724 0.49658 0.29143 0.0
C448 C 0.64267 0.54549 0.83606 0.0
O449 O 0.64718 0.54292 0.81673 0.0
Cd450 Cd 0.66789 0.5145 0.80411 0.0
O451 O 0.65079 0.53379 0.85027 0.0
Cd452 Cd 0.67848 0.5058 0.8536 0.0
C453 C 0.6443 0.47257 0.83057 0.0
O454 O 0.69902 0.51863 0.82436 0.0
O455 O 0.70945 0.48893 0.83678 0.0
O456 O 0.68895 0.52808 0.88243 0.0
C457 C 0.71222 0.50374 0.82369 0.0
O458 O 0.64729 0.48329 0.81385 0.0
C459 C 0.69468 0.51344 0.89478 0.0
O460 O 0.65365 0.4772 0.84772 0.0
O461 O 0.69234 0.49465 0.88826 0.0
C462 C 0.44491 0.62862 0.83704 0.0
O463 O 0.45152 0.62885 0.81815 0.0
Cd464 Cd 0.47699 0.65281 0.80494 0.0
O465 O 0.45181 0.64177 0.85059 0.0
Cd466 Cd 0.47758 0.67146 0.85198 0.0
C467 C 0.51742 0.63902 0.83857 0.0
O468 O 0.46575 0.68602 0.81857 0.0
O469 O 0.49287 0.70109 0.83234 0.0
O470 O 0.45209 0.68446 0.87707 0.0
C471 C 0.47901 0.7009 0.81797 0.0
O472 O 0.50921 0.63906 0.82027 0.0
C473 C 0.46525 0.69365 0.88898 0.0
O474 O 0.509 0.64914 0.85371 0.0
O475 O 0.4846 0.69186 0.8842 0.0
C476 C 0.34914 0.4495 0.82741 0.0
O477 O 0.34672 0.46047 0.81084 0.0
Cd478 Cd 0.31853 0.48492 0.8054 0.0
O479 O 0.3369 0.4518 0.84318 0.0
Cd480 Cd 0.30705 0.47538 0.85258 0.0
C481 C 0.33361 0.52032 0.84259 0.0
O482 O 0.2882 0.46823 0.82003 0.0
O483 O 0.27467 0.49245 0.83952 0.0
O484 O 0.29683 0.44673 0.87578 0.0
C485 C 0.273 0.48064 0.82351 0.0
O486 O 0.3293 0.51705 0.82327 0.0
C487 C 0.28998 0.45846 0.89047 0.0
O488 O 0.32913 0.50668 0.85658 0.0
O489 O 0.29196 0.47821 0.88795 0.0
C490 C 0.54064 0.35364 0.81695 0.0
O491 O 0.53484 0.34956 0.79823 0.0
Cd492 Cd 0.50738 0.32513 0.78985 0.0
O493 O 0.53272 0.34384 0.8326 0.0
Cd494 Cd 0.5075 0.31447 0.83883 0.0
C495 C 0.46776 0.34486 0.82123 0.0
O496 O 0.51788 0.29408 0.80812 0.0
O497 O 0.49002 0.28306 0.82403 0.0
O498 O 0.5326 0.30338 0.86536 0.0
C499 C 0.50379 0.2801 0.80987 0.0
O500 O 0.47447 0.3409 0.80272 0.0
C501 C 0.51898 0.29782 0.87891 0.0
O502 O 0.47759 0.33825 0.83741 0.0
O503 O 0.49975 0.3008 0.87418 0.0
C504 C 0.63738 0.45105 0.15422 0.0
O505 O 0.63844 0.45983 0.17218 0.0
Cd506 Cd 0.66443 0.4856 0.18154 0.0
O507 O 0.64984 0.4564 0.1394 0.0
Cd508 Cd 0.6782 0.48266 0.13364 0.0
C509 C 0.64775 0.524 0.14805 0.0
O510 O 0.69626 0.47292 0.16599 0.0
O511 O 0.70976 0.49917 0.14924 0.0
O512 O 0.68879 0.45635 0.10828 0.0
C513 C 0.7111 0.48613 0.16431 0.0
O514 O 0.65145 0.5186 0.16701 0.0
C515 C 0.69588 0.46913 0.09464 0.0
O516 O 0.65407 0.51275 0.13268 0.0
O517 O 0.69425 0.48865 0.09881 0.0
C518 C 0.53307 0.63117 0.15268 0.0
O519 O 0.52461 0.63179 0.17082 0.0
Cd520 Cd 0.49936 0.65773 0.18158 0.0
O521 O 0.52754 0.64403 0.13829 0.0
Cd522 Cd 0.50128 0.6726 0.1338 0.0
C523 C 0.4598 0.64262 0.14871 0.0
O524 O 0.51195 0.68967 0.16633 0.0
O525 O 0.48552 0.70394 0.15055 0.0
O526 O 0.52699 0.68396 0.10815 0.0
C527 C 0.49887 0.70467 0.16539 0.0
O528 O 0.46574 0.64584 0.16759 0.0
C529 C 0.51387 0.69139 0.09502 0.0
O530 O 0.47081 0.64892 0.13316 0.0
O531 O 0.49446 0.68949 0.09955 0.0
C532 C 0.34864 0.53156 0.15267 0.0
O533 O 0.34692 0.52315 0.17076 0.0
Cd534 Cd 0.32062 0.49749 0.17949 0.0
O535 O 0.33684 0.52582 0.13747 0.0
Cd536 Cd 0.30895 0.49927 0.13102 0.0
C537 C 0.3389 0.45844 0.14764 0.0
O538 O 0.28952 0.50982 0.16223 0.0
O539 O 0.27678 0.48312 0.1456 0.0
O540 O 0.29959 0.52506 0.10471 0.0
C541 C 0.27473 0.49661 0.16018 0.0
O542 O 0.33437 0.46424 0.1663 0.0
C543 C 0.29256 0.51205 0.09125 0.0
O544 O 0.33319 0.4693 0.13177 0.0
O545 O 0.29384 0.49262 0.0959 0.0
C546 C 0.45348 0.35084 0.15564 0.0
O547 O 0.46206 0.35005 0.17372 0.0
Cd548 Cd 0.48765 0.32401 0.18348 0.0
O549 O 0.45901 0.3382 0.14106 0.0
Cd550 Cd 0.48499 0.30964 0.13552 0.0
C551 C 0.52669 0.33953 0.15 0.0
O552 O 0.47481 0.29223 0.16801 0.0
O553 O 0.50083 0.27797 0.15154 0.0
O554 O 0.45823 0.29954 0.11045 0.0
C555 C 0.48777 0.27715 0.16663 0.0
O556 O 0.52091 0.33627 0.16892 0.0
C557 C 0.47067 0.29182 0.09684 0.0
O558 O 0.51557 0.33322 0.13453 0.0
O559 O 0.49026 0.29289 0.10086 0.0
C560 C 0.83602 0.63465 0.52292 0.0
O561 O 0.81872 0.63638 0.51299 0.0
Cd562 Cd 0.81141 0.66378 0.48808 0.0
O563 O 0.85131 0.64712 0.51915 0.0
Cd564 Cd 0.85857 0.67635 0.49415 0.0
C565 C 0.84623 0.64814 0.45073 0.0
O566 O 0.82627 0.69478 0.50342 0.0
O567 O 0.84406 0.70862 0.47806 0.0
O568 O 0.88306 0.68614 0.52167 0.0
C569 C 0.82889 0.71012 0.49096 0.0
O570 O 0.82711 0.6523 0.45507 0.0
C571 C 0.8968 0.69412 0.50954 0.0
O572 O 0.86101 0.65332 0.46327 0.0
O573 O 0.89328 0.69296 0.48987 0.0
C574 C 0.83266 0.34008 0.44743 0.0
O575 O 0.81386 0.33482 0.45186 0.0
Cd576 Cd 0.805 0.31117 0.4797 0.0
O577 O 0.84826 0.33204 0.45723 0.0
Cd578 Cd 0.85475 0.30455 0.48453 0.0
C579 C 0.83121 0.33531 0.52078 0.0
O580 O 0.82691 0.28185 0.47188 0.0
O581 O 0.84061 0.27207 0.50125 0.0
O582 O 0.88375 0.29661 0.46137 0.0
C583 C 0.82797 0.26816 0.48628 0.0
O584 O 0.81382 0.32959 0.51253 0.0
C585 C 0.89656 0.29084 0.4756 0.0
O586 O 0.84877 0.32951 0.51301 0.0
O587 O 0.89029 0.2923 0.49456 0.0
C588 C 0.64264 0.82446 0.45401 0.0
O589 O 0.64833 0.80625 0.46004 0.0
Cd590 Cd 0.67453 0.80038 0.48629 0.0
O591 O 0.65154 0.84101 0.46119 0.0
Cd592 Cd 0.68156 0.84984 0.48511 0.0
C593 C 0.6545 0.83091 0.52649 0.0
O594 O 0.70312 0.82075 0.47325 0.0
O595 O 0.71509 0.83668 0.5006 0.0
O596 O 0.68839 0.87681 0.45905 0.0
C597 C 0.71792 0.82295 0.48637 0.0
O598 O 0.65943 0.8127 0.51965 0.0
C599 C 0.69509 0.89058 0.47192 0.0
O600 O 0.65945 0.84744 0.51628 0.0
O601 O 0.69461 0.8858 0.49136 0.0
C602 C 0.1583 0.63609 0.45121 0.0
O603 O 0.17633 0.63745 0.45981 0.0
Cd604 Cd 0.18514 0.66323 0.48608 0.0
O605 O 0.14317 0.64788 0.45714 0.0
Cd606 Cd 0.13686 0.67514 0.48435 0.0
C607 C 0.15339 0.64504 0.52515 0.0
O608 O 0.16828 0.69489 0.47457 0.0
O609 O 0.15108 0.70698 0.50124 0.0
O610 O 0.11046 0.68578 0.45905 0.0
C611 C 0.16593 0.70935 0.4881 0.0
O612 O 0.17207 0.64948 0.51938 0.0
C613 C 0.09691 0.69185 0.47244 0.0
O614 O 0.13756 0.65074 0.51422 0.0
O615 O 0.10159 0.68947 0.49176 0.0
C616 C 0.34128 0.16075 0.45117 0.0
O617 O 0.33922 0.17952 0.45779 0.0
Cd618 Cd 0.31812 0.18894 0.48755 0.0
O619 O 0.3309 0.14568 0.45945 0.0
Cd620 Cd 0.30302 0.14131 0.48665 0.0
C621 C 0.33766 0.1545 0.52465 0.0
O622 O 0.28478 0.17398 0.48001 0.0
O623 O 0.2751 0.15788 0.50834 0.0
O624 O 0.28195 0.12222 0.4619 0.0
C625 C 0.27211 0.1728 0.49535 0.0
O626 O 0.33499 0.17339 0.51844 0.0
C627 C 0.28024 0.10541 0.47252 0.0
O628 O 0.32889 0.13913 0.51517 0.0
O629 O 0.29011 0.10451 0.48995 0.0
C630 C 0.14812 0.35743 0.53062 0.0
O631 O 0.16652 0.35601 0.52286 0.0
Cd632 Cd 0.17735 0.32926 0.49855 0.0
O633 O 0.13339 0.3452 0.52456 0.0
Cd634 Cd 0.12927 0.31717 0.49765 0.0
C635 C 0.14845 0.34606 0.45706 0.0
O636 O 0.15973 0.29851 0.5113 0.0
O637 O 0.14537 0.28447 0.48398 0.0
O638 O 0.10021 0.3073 0.52023 0.0
C639 C 0.1588 0.28312 0.49869 0.0
O640 O 0.16679 0.34165 0.46382 0.0
C641 C 0.08837 0.30052 0.50559 0.0
O642 O 0.1321 0.34071 0.46736 0.0
O643 O 0.09523 0.30224 0.48688 0.0
C644 C 0.64186 0.14876 0.5258 0.0
O645 O 0.64357 0.16664 0.51695 0.0
Cd646 Cd 0.67009 0.17512 0.49143 0.0
O647 O 0.65382 0.1335 0.52058 0.0
Cd648 Cd 0.68202 0.12679 0.49434 0.0
C649 C 0.65233 0.14248 0.45289 0.0
O650 O 0.70108 0.15833 0.50459 0.0
O651 O 0.71447 0.14125 0.47851 0.0
O652 O 0.69152 0.10076 0.52036 0.0
C653 C 0.71614 0.15614 0.49172 0.0
O654 O 0.6568 0.16128 0.45824 0.0
C655 C 0.69844 0.08715 0.50745 0.0
O656 O 0.65797 0.1269 0.46419 0.0
O657 O 0.69703 0.09159 0.48798 0.0
C658 C 0.34213 0.83834 0.5396 0.0
O659 O 0.33758 0.81912 0.53644 0.0
Cd660 Cd 0.31695 0.80784 0.50749 0.0
O661 O 0.33393 0.85289 0.5284 0.0
Cd662 Cd 0.30582 0.85656 0.5008 0.0
C663 C 0.34051 0.83628 0.46687 0.0
O664 O 0.28519 0.82683 0.51285 0.0
O665 O 0.27553 0.83964 0.483 0.0
O666 O 0.2954 0.88424 0.52449 0.0
C667 C 0.27219 0.82661 0.49775 0.0
O668 O 0.33761 0.81915 0.47694 0.0
C669 C 0.2881 0.89656 0.51056 0.0
O670 O 0.33084 0.85308 0.47199 0.0
O671 O 0.28979 0.89074 0.49147 0.0
C672 C 0.06604 0.44953 0.28067 0.0
C673 C 0.07252 0.47056 0.2791 0.0
C674 C 0.05074 0.44135 0.26706 0.0
C675 C 0.04181 0.45451 0.25139 0.0
C676 C 0.04666 0.47628 0.25117 0.0
C677 C 0.06203 0.48411 0.2651 0.0
C678 C 0.04568 0.4181 0.2682 0.0
C679 C 0.03705 0.49093 0.23509 0.0
C680 C 0.03477 0.42135 0.2029 0.0
C681 C 0.01391 0.41455 0.20525 0.0
C682 C 0.04345 0.43625 0.21664 0.0
C683 C 0.03096 0.44444 0.23323 0.0
C684 C 0.00923 0.43944 0.23422 0.0
C685 C 0.00091 0.42446 0.22014 0.0
C686 C 0.06659 0.44149 0.21467 0.0
C687 C -0.00476 0.44827 0.25128 0.0
H688 H 0.07382 0.43911 0.29176 0.0
H689 H 0.06683 0.50046 0.26398 0.0
H690 H 0.0284 0.41554 0.26754 0.0
H691 H 0.05277 0.40992 0.25446 0.0
H692 H 0.05187 0.41071 0.28281 0.0
H693 H 0.03883 0.50771 0.23976 0.0
H694 H 0.04502 0.48865 0.2197 0.0
H695 H 0.02007 0.48745 0.2328 0.0
H696 H 0.04475 0.41401 0.19113 0.0
H697 H 0.98468 0.4194 0.22189 0.0
H698 H 0.07544 0.43374 0.22763 0.0
H699 H 0.06915 0.45872 0.2161 0.0
H700 H 0.0733 0.43609 0.19943 0.0
H701 H -0.00264 0.43889 0.26589 0.0
H702 H 0.97834 0.44751 0.24673 0.0
H703 H -0.00062 0.46486 0.25495 0.0
C704 C 0.56636 0.04284 0.2061 0.0
C705 C 0.57236 0.02166 0.2076 0.0
C706 C 0.55185 0.05155 0.22023 0.0
C707 C 0.54322 0.03876 0.23635 0.0
C708 C 0.5477 0.0169 0.23673 0.0
C709 C 0.56227 0.00856 0.22228 0.0
C710 C 0.54723 0.07488 0.21899 0.0
C711 C 0.53852 0.00267 0.25342 0.0
C712 C 0.53681 0.07193 0.28506 0.0
C713 C 0.51576 0.07833 0.28331 0.0
C714 C 0.54545 0.0574 0.27091 0.0
C715 C 0.53273 0.04918 0.2545 0.0
C716 C 0.51096 0.05403 0.25388 0.0
C717 C 0.50267 0.06861 0.26837 0.0
C718 C 0.56867 0.05236 0.27241 0.0
C719 C 0.49681 0.04527 0.23689 0.0
H720 H 0.57386 0.05295 0.19453 0.0
H721 H 0.56676 -0.00789 0.2234 0.0
H722 H 0.53004 0.0778 0.22012 0.0
H723 H 0.55487 0.08305 0.23245 0.0
H724 H 0.55315 0.08201 0.20414 0.0
H725 H 0.53936 0.98583 0.2487 0.0
H726 H 0.54754 0.00464 0.26827 0.0
H727 H 0.52185 0.0068 0.25674 0.0
H728 H 0.54688 0.07914 0.29683 0.0
H729 H 0.48633 0.07342 0.26705 0.0
H730 H 0.57716 0.06003 0.25918 0.0
H731 H 0.57131 0.03513 0.2711 0.0
H732 H 0.57569 0.05796 0.28745 0.0
H733 H 0.49922 0.05434 0.22213 0.0
H734 H 0.47991 0.04645 0.24133 0.0
H735 H 0.50063 0.02855 0.23352 0.0
C736 C 0.94792 0.56199 0.20257 0.0
C737 C 0.96888 0.5687 0.20412 0.0
C738 C 0.93995 0.54658 0.21616 0.0
C739 C 0.95327 0.53777 0.23176 0.0
C740 C 0.97504 0.54266 0.23175 0.0
C741 C 0.98264 0.55817 0.21786 0.0
C742 C 0.91671 0.54146 0.21525 0.0
C743 C 0.98989 0.53308 0.24766 0.0
C744 C 0.92086 0.53234 0.28091 0.0
C745 C 0.91375 0.51153 0.27919 0.0
C746 C 0.9356 0.54048 0.2667 0.0
C747 C 0.94335 0.52747 0.25029 0.0
C748 C 0.938 0.50581 0.24989 0.0
C749 C 0.92316 0.49804 0.26441 0.0
C750 C 0.94119 0.56359 0.26805 0.0
C751 C 0.94641 0.49127 0.23307 0.0
H752 H 0.93734 0.56977 0.19163 0.0
H753 H -0.00104 0.56313 0.21892 0.0
H754 H 0.91416 0.5242 0.21619 0.0
H755 H 0.90861 0.54878 0.22892 0.0
H756 H 0.90922 0.54741 0.20058 0.0
H757 H 0.00658 0.53453 0.24257 0.0
H758 H 0.98811 0.54136 0.26295 0.0
H759 H 0.98621 0.51619 0.25031 0.0
H760 H 0.91395 0.54269 0.29263 0.0
H761 H 0.91787 0.48184 0.26317 0.0
H762 H 0.93356 0.5722 0.25487 0.0
H763 H 0.95846 0.56584 0.26656 0.0
H764 H 0.93592 0.5708 0.28311 0.0
H765 H 0.93676 0.49301 0.21859 0.0
H766 H 0.94563 0.47452 0.23812 0.0
H767 H 0.96295 0.49519 0.22896 0.0
C768 C 0.44809 0.90552 0.28662 0.0
C769 C 0.46909 0.89882 0.28567 0.0
C770 C 0.44017 0.92006 0.27207 0.0
C771 C 0.45355 0.92793 0.25604 0.0
C772 C 0.47523 0.92265 0.25612 0.0
C773 C 0.4828 0.90812 0.27104 0.0
C774 C 0.41702 0.9256 0.27284 0.0
C775 C 0.49005 0.93094 0.23948 0.0
C776 C 0.42129 0.93588 0.20691 0.0
C777 C 0.41596 0.95723 0.20858 0.0
C778 C 0.43522 0.92653 0.22124 0.0
C779 C 0.4439 0.93885 0.23772 0.0
C780 C 0.44018 0.96083 0.23826 0.0
C781 C 0.42621 0.96981 0.22361 0.0
C782 C 0.4391 0.90309 0.21984 0.0
C783 C 0.44942 0.97455 0.25535 0.0
H784 H 0.43753 0.89858 0.29813 0.0
H785 H 0.49909 0.90302 0.2703 0.0
H786 H 0.41482 0.94289 0.27153 0.0
H787 H 0.40879 0.91819 0.25929 0.0
H788 H 0.40939 0.9201 0.2876 0.0
H789 H 0.50679 0.92929 0.24434 0.0
H790 H 0.48773 0.92191 0.22469 0.0
H791 H 0.4868 0.94776 0.23598 0.0
H792 H 0.41366 0.92616 0.19509 0.0
H793 H 0.42227 0.98639 0.22487 0.0
H794 H 0.43071 0.89501 0.23289 0.0
H795 H 0.45614 0.89957 0.22154 0.0
H796 H 0.43348 0.89637 0.20467 0.0
H797 H 0.44009 0.97256 0.27 0.0
H798 H 0.44909 0.99149 0.25091 0.0
H799 H 0.4659 0.96994 0.25891 0.0
C800 C 0.07026 0.54607 0.70787 0.0
C801 C 0.07564 0.52468 0.70811 0.0
C802 C 0.05594 0.5543 0.72247 0.0
C803 C 0.04697 0.5408 0.73783 0.0
C804 C 0.05096 0.51888 0.73702 0.0
C805 C 0.06525 0.51102 0.72205 0.0
C806 C 0.05176 0.57774 0.72251 0.0
C807 C 0.04156 0.50397 0.75298 0.0
C808 C 0.04003 0.57156 0.78803 0.0
C809 C 0.019 0.578 0.78633 0.0
C810 C 0.04883 0.5577 0.77331 0.0
C811 C 0.03632 0.55035 0.75634 0.0
C812 C 0.01456 0.55521 0.75569 0.0
C813 C 0.00608 0.56897 0.77082 0.0
C814 C 0.07201 0.55252 0.77487 0.0
C815 C 0.00066 0.54749 0.738 0.0
H816 H 0.07805 0.55662 0.6969 0.0
H817 H 0.06932 0.49443 0.72223 0.0
H818 H 0.03461 0.58091 0.72374 0.0
H819 H 0.05949 0.58502 0.73641 0.0
H820 H 0.05787 0.58555 0.70808 0.0
H821 H 0.04238 0.48734 0.74756 0.0
H822 H 0.05042 0.50528 0.768 0.0
H823 H 0.02488 0.50803 0.75631 0.0
H824 H 0.04996 0.5783 0.80021 0.0
H825 H 0.98977 0.57389 0.76949 0.0
H826 H 0.08073 0.56103 0.76232 0.0
H827 H 0.07466 0.53541 0.77247 0.0
H828 H 0.07877 0.55712 0.79037 0.0
H829 H 0.00347 0.55728 0.72378 0.0
H830 H 0.98368 0.54861 0.74215 0.0
H831 H 0.00439 0.53093 0.73383 0.0
C832 C 0.41774 0.04642 0.77849 0.0
C833 C 0.41086 0.0255 0.77718 0.0
C834 C 0.43258 0.05437 0.76425 0.0
C835 C 0.44058 0.04107 0.74821 0.0
C836 C 0.43536 0.01938 0.74819 0.0
C837 C 0.42052 0.01179 0.76277 0.0
C838 C 0.43806 0.07752 0.76514 0.0
C839 C 0.44388 0.00461 0.73161 0.0
C840 C 0.44697 0.07288 0.69857 0.0
C841 C 0.46828 0.07848 0.69959 0.0
C842 C 0.43815 0.05911 0.71336 0.0
C843 C 0.45097 0.05086 0.72967 0.0
C844 C 0.47291 0.05494 0.72966 0.0
C845 C 0.48136 0.06874 0.71453 0.0
C846 C 0.41473 0.05487 0.71253 0.0
C847 C 0.48715 0.04618 0.74657 0.0
H848 H 0.41056 0.05697 0.78986 0.0
H849 H 0.41533 -0.00446 0.76179 0.0
H850 H 0.45531 0.07983 0.76355 0.0
H851 H 0.43036 0.08583 0.7518 0.0
H852 H 0.43277 0.08498 0.78007 0.0
H853 H 0.44245 0.98787 0.73655 0.0
H854 H 0.4348 0.00672 0.71681 0.0
H855 H 0.46065 0.00809 0.7281 0.0
H856 H 0.43688 0.08012 0.68682 0.0
H857 H 0.4979 0.07294 0.71531 0.0
H858 H 0.40686 0.06303 0.72586 0.0
H859 H 0.41154 0.03777 0.71419 0.0
H860 H 0.40751 0.06048 0.6976 0.0
H861 H 0.4855 0.05583 0.76106 0.0
H862 H 0.50395 0.04652 0.74166 0.0
H863 H 0.48276 0.02974 0.75062 0.0
C864 C 0.90728 0.47421 0.71238 0.0
C865 C 0.89669 0.4609 0.69825 0.0
C866 C 0.92149 0.46595 0.72723 0.0
C867 C 0.92523 0.44396 0.72771 0.0
C868 C 0.91592 0.43079 0.71227 0.0
C869 C 0.90165 0.43941 0.69782 0.0
C870 C 0.93117 0.48051 0.74336 0.0
C871 C 0.91982 0.4073 0.71194 0.0
C872 C 0.96699 0.41549 0.75946 0.0
C873 C 0.95451 0.40627 0.77519 0.0
C874 C 0.95808 0.42931 0.74462 0.0
C875 C 0.93631 0.43407 0.74582 0.0
C876 C 0.92423 0.42645 0.76297 0.0
C877 C 0.93346 0.41251 0.77736 0.0
C878 C 0.9715 0.43722 0.72666 0.0
C879 C 0.90107 0.43153 0.76512 0.0
H880 H 0.90348 0.49087 0.71275 0.0
H881 H 0.89369 0.42912 0.68673 0.0
H882 H 0.9227 0.47872 0.75856 0.0
H883 H 0.94794 0.47647 0.74618 0.0
H884 H 0.93012 0.49728 0.73843 0.0
H885 H 0.91337 0.39973 0.69753 0.0
H886 H 0.93696 0.40393 0.71283 0.0
H887 H 0.91227 0.39994 0.7259 0.0
H888 H 0.9833 0.41069 0.75773 0.0
H889 H 0.92385 0.40559 0.78968 0.0
H890 H 0.96781 0.4539 0.72294 0.0
H891 H 0.96813 0.42775 0.71235 0.0
H892 H 0.98859 0.43586 0.73025 0.0
H893 H 0.89831 0.44865 0.76294 0.0
H894 H 0.89471 0.42676 0.78072 0.0
H895 H 0.89209 0.4231 0.75269 0.0
C896 C 0.56845 0.95495 0.77756 0.0
C897 C 0.59002 0.95314 0.77322 0.0
C898 C 0.55356 0.94386 0.76541 0.0
C899 C 0.56053 0.93121 0.74837 0.0
C900 C 0.58222 0.93048 0.74324 0.0
C901 C 0.5967 0.94123 0.7559 0.0
C902 C 0.5306 0.94473 0.77153 0.0
C903 C 0.5903 0.91757 0.72492 0.0
C904 C 0.53472 0.88069 0.73085 0.0
C905 C 0.52572 0.88667 0.71162 0.0
C906 C 0.54451 0.89553 0.74389 0.0
C907 C 0.54585 0.91678 0.73722 0.0
C908 C 0.53577 0.92313 0.71833 0.0
C909 C 0.52555 0.90796 0.7058 0.0
C910 C 0.55462 0.88817 0.76416 0.0
C911 C 0.53711 0.94556 0.71056 0.0
H912 H 0.56332 0.9642 0.79097 0.0
H913 H 0.61338 0.94013 0.75234 0.0
H914 H 0.52055 0.94733 0.75747 0.0
H915 H 0.5259 0.92941 0.77853 0.0
H916 H 0.5274 0.95738 0.78321 0.0
H917 H 0.60724 0.92059 0.72165 0.0
H918 H 0.58832 0.90055 0.72841 0.0
H919 H 0.58112 0.92109 0.71046 0.0
H920 H 0.53453 0.86425 0.7355 0.0
H921 H 0.51853 0.91256 0.69091 0.0
H922 H 0.55067 0.89902 0.77729 0.0
H923 H 0.57202 0.8882 0.76236 0.0
H924 H 0.54957 0.87199 0.76853 0.0
H925 H 0.53405 0.95684 0.72356 0.0
H926 H 0.52579 0.94868 0.69756 0.0
H927 H 0.55328 0.94866 0.70465 0.0
C928 C 0.22943 0.03329 0.39135 0.0
C929 C 0.21074 0.02257 0.39601 0.0
C930 C 0.24128 0.04289 0.40725 0.0
C931 C 0.23397 0.04217 0.42831 0.0
C932 C 0.21583 0.03013 0.43334 0.0
C933 C 0.20445 0.02025 0.41705 0.0
C934 C 0.26078 0.05516 0.4012 0.0
C935 C 0.20753 0.02902 0.45559 0.0
C936 C 0.27268 0.0671 0.46648 0.0
C937 C 0.26668 0.08827 0.46481 0.0
C938 C 0.26122 0.05132 0.45589 0.0
C939 C 0.24328 0.05701 0.44384 0.0
C940 C 0.2362 0.07816 0.44382 0.0
C941 C 0.24815 0.09355 0.45407 0.0
C942 C 0.26926 0.02895 0.45626 0.0
C943 C 0.21691 0.08489 0.43157 0.0
H944 H 0.23451 0.03471 0.37509 0.0
H945 H 0.19003 0.01183 0.42063 0.0
H946 H 0.25751 0.07229 0.40246 0.0
H947 H 0.27398 0.05148 0.41207 0.0
H948 H 0.2659 0.05173 0.38481 0.0
H949 H 0.1962 0.01583 0.45763 0.0
H950 H 0.22059 0.02712 0.46706 0.0
H951 H 0.1993 0.04397 0.45941 0.0
H952 H 0.287 0.06307 0.47488 0.0
H953 H 0.24333 0.10993 0.45314 0.0
H954 H 0.27765 0.02561 0.44129 0.0
H955 H 0.25605 0.01757 0.45754 0.0
H956 H 0.28039 0.02628 0.46952 0.0
H957 H 0.22036 0.08426 0.41444 0.0
H958 H 0.21192 0.10119 0.43557 0.0
H959 H 0.20356 0.07405 0.43468 0.0
C960 C 0.92376 0.28173 0.4491 0.0
C961 C 0.91634 0.28005 0.46981 0.0
C962 C 0.93843 0.26733 0.44114 0.0
C963 C 0.94581 0.25084 0.45426 0.0
C964 C 0.94041 0.25069 0.47591 0.0
C965 C 0.92564 0.26538 0.48349 0.0
C966 C 0.94402 0.26837 0.41802 0.0
C967 C 0.94857 0.2338 0.49052 0.0
C968 C 0.94836 0.20208 0.42086 0.0
C969 C 0.96931 0.20262 0.41398 0.0
C970 C 0.94099 0.21649 0.43583 0.0
C971 C 0.95496 0.23184 0.4441 0.0
C972 C 0.97666 0.23091 0.43901 0.0
C973 C 0.98363 0.21625 0.42391 0.0
C974 C 0.91774 0.21665 0.44101 0.0
C975 C -0.00787 0.24659 0.44794 0.0
H976 H 0.91692 0.29336 0.4386 0.0
H977 H 0.92013 0.2642 0.49962 0.0
H978 H 0.9612 0.26621 0.41571 0.0
H979 H 0.93586 0.25545 0.40948 0.0
H980 H 0.93928 0.28359 0.41077 0.0
H981 H 0.94576 0.23783 0.50733 0.0
H982 H 0.94048 0.21869 0.48707 0.0
H983 H 0.96569 0.23126 0.48807 0.0
H984 H 0.93733 0.19129 0.41351 0.0
H985 H -8e-05 0.21658 0.41879 0.0
H986 H 0.91021 0.23056 0.43354 0.0
H987 H 0.91528 0.21793 0.45826 0.0
H988 H 0.90959 0.20225 0.43527 0.0
H989 H 0.99058 0.26179 0.43944 0.0
H990 H 0.00863 0.24103 0.44618 0.0
H991 H 0.98891 0.24966 0.46485 0.0
C992 C 0.72098 0.9199 0.47656 0.0
C993 C 0.70571 0.90977 0.46418 0.0
C994 C 0.73507 0.93439 0.46749 0.0
C995 C 0.73365 0.93877 0.44566 0.0
C996 C 0.71669 0.93043 0.43377 0.0
C997 C 0.70299 0.91592 0.44316 0.0
C998 C 0.75264 0.94329 0.48081 0.0
C999 C 0.71426 0.93513 0.41056 0.0
C1000 C 0.76668 0.97776 0.41467 0.0
C1001 C 0.78074 0.96399 0.40459 0.0
C1002 C 0.75207 0.97014 0.42949 0.0
C1003 C 0.75171 0.94835 0.43426 0.0
C1004 C 0.76718 0.93483 0.42552 0.0
C1005 C 0.78143 0.94281 0.41071 0.0
C1006 C 0.73606 0.98512 0.4387 0.0
C1007 C 0.76769 0.91155 0.43051 0.0
H1008 H 0.72304 0.91531 0.49289 0.0
H1009 H 0.69095 0.9084 0.43365 0.0
H1010 H 0.76718 0.93394 0.47815 0.0
H1011 H 0.75611 0.95986 0.47643 0.0
H1012 H 0.74876 0.94263 0.49788 0.0
H1013 H 0.6987 0.92997 0.4044 0.0
H1014 H 0.71609 0.95225 0.40752 0.0
H1015 H 0.72677 0.92679 0.40161 0.0
H1016 H 0.76616 -0.00581 0.41004 0.0
H1017 H 0.79251 0.9322 0.40318 0.0
H1018 H 0.73263 0.98125 0.4554 0.0
H1019 H 0.72109 0.98373 0.42975 0.0
H1020 H 0.74148 0.00174 0.43772 0.0
H1021 H 0.76706 0.90899 0.44779 0.0
H1022 H 0.78205 0.90374 0.42423 0.0
H1023 H 0.75367 0.90377 0.4235 0.0
C1024 C 0.00714 0.76448 0.42106 0.0
C1025 C 0.02008 0.77984 0.41184 0.0
C1026 C 0.01553 0.74977 0.43535 0.0
C1027 C 0.03724 0.75064 0.44042 0.0
C1028 C 0.04969 0.76759 0.43294 0.0
C1029 C 0.04096 0.78193 0.41865 0.0
C1030 C 0.00162 0.73223 0.44336 0.0
C1031 C 0.07281 0.76941 0.43833 0.0
C1032 C 0.06741 0.71708 0.47943 0.0
C1033 C 0.07789 0.70336 0.46561 0.0
C1034 C 0.05248 0.73157 0.47181 0.0
C1035 C 0.04805 0.73219 0.44995 0.0
C1036 C 0.05704 0.71691 0.43638 0.0
C1037 C 0.0719 0.70273 0.44438 0.0
C1038 C 0.0429 0.74729 0.48686 0.0
C1039 C 0.05242 0.71671 0.41302 0.0
H1040 H 0.99092 0.7629 0.41593 0.0
H1041 H 0.0509 0.79404 0.41181 0.0
H1042 H 0.00405 0.718 0.4335 0.0
H1043 H 0.00563 0.72802 0.45986 0.0
H1044 H 0.98468 0.7366 0.44256 0.0
H1045 H 0.0795 0.78487 0.43354 0.0
H1046 H 0.07531 0.76733 0.45551 0.0
H1047 H 0.08171 0.75678 0.43011 0.0
H1048 H 0.07187 0.71752 0.49592 0.0
H1049 H 0.07971 0.69189 0.43372 0.0
H1050 H 0.02625 0.75069 0.48271 0.0
H1051 H 0.05179 0.76232 0.48591 0.0
H1052 H 0.04358 0.74159 0.5034 0.0
H1053 H 0.0352 0.71757 0.41015 0.0
H1054 H 0.05868 0.70237 0.40517 0.0
H1055 H 0.05974 0.73072 0.40552 0.0
C1056 C 0.19919 0.94219 0.57248 0.0
C1057 C 0.19749 0.96372 0.57695 0.0
C1058 C 0.21331 0.93489 0.5572 0.0
C1059 C 0.22615 0.9495 0.54624 0.0
C1060 C 0.22313 0.97138 0.54931 0.0
C1061 C 0.20876 0.97827 0.56469 0.0
C1062 C 0.21573 0.91139 0.55413 0.0
C1063 C 0.23623 0.98746 0.53769 0.0
C1064 C 0.2785 0.92359 0.53703 0.0
C1065 C 0.27558 0.91506 0.51689 0.0
C1066 C 0.26335 0.93686 0.54597 0.0
C1067 C 0.24475 0.94149 0.53453 0.0
C1068 C 0.24284 0.93484 0.51332 0.0
C1069 C 0.25841 0.92168 0.50466 0.0
C1070 C 0.26628 0.94405 0.56848 0.0
C1071 C 0.22346 0.93981 0.50047 0.0
H1072 H 0.19025 0.93091 0.58168 0.0
H1073 H 0.20739 -0.00502 0.56799 0.0
H1074 H 0.21569 0.9074 0.53711 0.0
H1075 H 0.23108 0.9062 0.56074 0.0
H1076 H 0.20299 0.90234 0.56201 0.0
H1077 H 0.22865 0.00325 0.53782 0.0
H1078 H 0.25184 0.98885 0.54544 0.0
H1079 H 0.23894 0.98262 0.52111 0.0
H1080 H 0.29197 0.91873 0.54637 0.0
H1081 H 0.25616 0.91517 0.48902 0.0
H1082 H 0.25554 0.93499 0.57891 0.0
H1083 H 0.26224 0.96097 0.57013 0.0
H1084 H 0.28271 0.94165 0.57407 0.0
H1085 H 0.21067 0.92871 0.50483 0.0
H1086 H 0.22652 0.93814 0.48331 0.0
H1087 H 0.21775 0.95602 0.50368 0.0
C1088 C 0.03731 0.20756 0.55445 0.0
C1089 C 0.01632 0.2078 0.56119 0.0
C1090 C 0.04476 0.22258 0.54016 0.0
C1091 C 0.03079 0.2382 0.53245 0.0
C1092 C 0.00902 0.23686 0.53711 0.0
C1093 C 0.00197 0.22159 0.55153 0.0
C1094 C 0.06807 0.22313 0.53531 0.0
C1095 C -0.00643 0.25272 0.52843 0.0
C1096 C 0.06127 0.28878 0.53121 0.0
C1097 C 0.06907 0.28855 0.51058 0.0
C1098 C 0.04677 0.27362 0.53797 0.0
C1099 C 0.03994 0.25785 0.52369 0.0
C1100 C 0.0458 0.25909 0.50221 0.0
C1101 C 0.0604 0.27449 0.49587 0.0
C1102 C 0.04068 0.27313 0.56099 0.0
C1103 C 0.03842 0.24297 0.48637 0.0
H1104 H 0.04834 0.19659 0.56154 0.0
H1105 H 0.98562 0.22161 0.55649 0.0
H1106 H 0.07075 0.22531 0.51819 0.0
H1107 H 0.07542 0.23667 0.54361 0.0
H1108 H 0.07622 0.20849 0.5404 0.0
H1109 H 0.97698 0.24788 0.53121 0.0
H1110 H -0.00385 0.26822 0.53609 0.0
H1111 H -0.00395 0.2549 0.51125 0.0
H1112 H 0.06762 0.29991 0.54253 0.0
H1113 H 0.06618 0.27442 0.47979 0.0
H1114 H 0.04872 0.25973 0.56885 0.0
H1115 H 0.02346 0.27076 0.56277 0.0
H1116 H 0.04516 0.28788 0.56931 0.0
H1117 H 0.04857 0.22878 0.4874 0.0
H1118 H 0.03945 0.24918 0.47004 0.0
H1119 H 0.02197 0.238 0.48957 0.0
C1120 C 0.78805 0.03837 0.56627 0.0
C1121 C 0.7869 0.01787 0.57433 0.0
C1122 C 0.77387 0.04526 0.55086 0.0
C1123 C 0.75809 0.03131 0.54345 0.0
C1124 C 0.7584 0.00991 0.54976 0.0
C1125 C 0.77287 0.0034 0.56522 0.0
C1126 C 0.77446 0.06811 0.54418 0.0
C1127 C 0.74227 -0.0056 0.54174 0.0
C1128 C 0.70862 0.06296 0.53642 0.0
C1129 C 0.70999 0.06847 0.5151 0.0
C1130 C 0.72308 0.04898 0.54543 0.0
C1131 C 0.73934 0.04036 0.53279 0.0
C1132 C 0.73934 0.044 0.51078 0.0
C1133 C 0.7246 0.05811 0.50214 0.0
C1134 C 0.72217 0.04516 0.56892 0.0
C1135 C 0.75599 0.03462 0.49664 0.0
H1136 H 0.79917 0.04948 0.57298 0.0
H1137 H 0.77208 0.98744 0.57126 0.0
H1138 H 0.77313 0.06946 0.52681 0.0
H1139 H 0.76086 0.07658 0.55121 0.0
H1140 H 0.78917 0.0761 0.5493 0.0
H1141 H 0.74786 0.97789 0.54348 0.0
H1142 H 0.72752 -0.00387 0.55097 0.0
H1143 H 0.73843 -0.00265 0.52493 0.0
H1144 H 0.69706 0.07062 0.54641 0.0
H1145 H 0.72557 0.06215 0.48556 0.0
H1146 H 0.73544 0.05351 0.5767 0.0
H1147 H 0.72386 0.02812 0.57244 0.0
H1148 H 0.70719 0.05086 0.57596 0.0
H1149 H 0.77028 0.04469 0.49713 0.0
H1150 H 0.75051 0.03378 0.48003 0.0
H1151 H 0.76055 0.01859 0.50193 0.0
C1152 C 0.9238 0.72258 0.50619 0.0
C1153 C 0.9144 0.70659 0.51822 0.0
C1154 C 0.93674 0.73779 0.51577 0.0
C1155 C 0.94034 0.73677 0.53776 0.0
C1156 C 0.93261 0.7194 0.54946 0.0
C1157 C 0.91963 0.70458 0.53955 0.0
C1158 C 0.94493 0.75588 0.50269 0.0
C1159 C 0.93649 0.71743 0.57288 0.0
C1160 C 0.97743 0.77061 0.56993 0.0
C1161 C 0.96299 0.78399 0.58001 0.0
C1162 C 0.97065 0.7561 0.55464 0.0
C1163 C 0.94901 0.75516 0.54934 0.0
C1164 C 0.93482 0.77009 0.55795 0.0
C1165 C 0.94197 0.78426 0.57328 0.0
C1166 C 0.98631 0.74066 0.5456 0.0
C1167 C 0.91168 0.76995 0.55235 0.0
H1168 H 0.91986 0.72415 0.48964 0.0
H1169 H 0.91263 0.69204 0.54882 0.0
H1170 H 0.93456 0.76978 0.50498 0.0
H1171 H 0.96107 0.76045 0.50763 0.0
H1172 H 0.94511 0.75194 0.48563 0.0
H1173 H 0.9317 0.70177 0.57906 0.0
H1174 H 0.95341 0.71995 0.57653 0.0
H1175 H 0.92737 0.72972 0.58135 0.0
H1176 H -0.00625 0.77042 0.57502 0.0
H1177 H 0.93083 0.7948 0.58081 0.0
H1178 H 0.98323 0.73775 0.52863 0.0
H1179 H 0.98478 0.72536 0.55394 0.0
H1180 H 0.00278 0.74629 0.54749 0.0
H1181 H 0.90956 0.7691 0.53502 0.0
H1182 H 0.90336 0.78416 0.55832 0.0
H1183 H 0.90409 0.7558 0.5593 0.0
C1184 C 0.44109 0.28242 0.073 0.0
C1185 C 0.46233 0.28014 0.07853 0.0
C1186 C 0.43148 0.26842 0.05892 0.0
C1187 C 0.44339 0.25164 0.05031 0.0
C1188 C 0.46532 0.25045 0.05428 0.0
C1189 C 0.47459 0.2648 0.06838 0.0
C1190 C 0.40811 0.27051 0.05482 0.0
C1191 C 0.47861 0.23298 0.04513 0.0
C1192 C 0.40901 0.20349 0.04563 0.0
C1193 C 0.40264 0.20453 0.02453 0.0
C1194 C 0.42366 0.21779 0.05378 0.0
C1195 C 0.43204 0.23366 0.04051 0.0
C1196 C 0.42697 0.23376 0.01878 0.0
C1197 C 0.41229 0.2191 0.01099 0.0
C1198 C 0.42891 0.21688 0.077 0.0
C1199 C 0.43577 0.25026 0.00409 0.0
H1200 H 0.43164 0.29449 0.08056 0.0
H1201 H 0.49108 0.26307 0.07251 0.0
H1202 H 0.4047 0.26894 0.03775 0.0
H1203 H 0.39958 0.25768 0.06311 0.0
H1204 H 0.40178 0.28585 0.06041 0.0
H1205 H 0.49569 0.23682 0.04582 0.0
H1206 H 0.47593 0.21832 0.05427 0.0
H1207 H 0.47418 0.22976 0.02853 0.0
H1208 H 0.40182 0.19202 0.05607 0.0
H1209 H 0.40746 0.21989 -0.00538 0.0
H1210 H 0.42181 0.23065 0.08513 0.0
H1211 H 0.4462 0.21768 0.07941 0.0
H1212 H 0.42288 0.2023 0.08458 0.0
H1213 H 0.42713 0.26528 0.00645 0.0
H1214 H 0.43408 0.24554 0.98731 0.0
H1215 H 0.45265 0.2533 0.00747 0.0
C1216 C 0.405 0.78743 0.9332 0.0
C1217 C 0.40059 0.78866 0.95479 0.0
C1218 C 0.41943 0.77268 0.92543 0.0
C1219 C 0.42954 0.7587 0.9396 0.0
C1220 C 0.42651 0.76107 0.96156 0.0
C1221 C 0.41206 0.77613 0.96894 0.0
C1222 C 0.42253 0.77095 0.90188 0.0
C1223 C 0.43716 0.74662 0.97717 0.0
C1224 C 0.43715 0.70611 0.91317 0.0
C1225 C 0.45793 0.70775 0.90594 0.0
C1226 C 0.42827 0.72189 0.92575 0.0
C1227 C 0.44042 0.73985 0.93102 0.0
C1228 C 0.46196 0.74075 0.92527 0.0
C1229 C 0.47053 0.72457 0.91281 0.0
C1230 C 0.40534 0.7201 0.93192 0.0
C1231 C 0.47547 0.75954 0.93076 0.0
H1232 H 0.39638 0.79732 0.92224 0.0
H1233 H 0.40877 0.77709 0.98568 0.0
H1234 H 0.43954 0.76997 0.898 0.0
H1235 H 0.41494 0.7563 0.89606 0.0
H1236 H 0.41559 0.78454 0.89329 0.0
H1237 H 0.4367 0.75314 -0.00658 0.0
H1238 H 0.42897 0.73117 0.97723 0.0
H1239 H 0.45381 0.74374 0.9727 0.0
H1240 H 0.42746 0.69296 0.90812 0.0
H1241 H 0.48664 0.72587 0.90728 0.0
H1242 H 0.39593 0.73171 0.92283 0.0
H1243 H 0.40326 0.72376 0.94889 0.0
H1244 H 0.39888 0.70413 0.9288 0.0
H1245 H 0.47159 0.77275 0.91999 0.0
H1246 H 0.49253 0.75595 0.92912 0.0
H1247 H 0.47236 0.76495 0.94709 0.0
C1248 C 0.26338 0.46206 0.91922 0.0
C1249 C 0.2779 0.44954 0.90821 0.0
C1250 C 0.24851 0.45287 0.93278 0.0
C1251 C 0.24844 0.43073 0.93549 0.0
C1252 C 0.26437 0.41833 0.92597 0.0
C1253 C 0.27882 0.42788 0.9123 0.0
C1254 C 0.23184 0.46663 0.9427 0.0
C1255 C 0.26513 0.39471 0.92886 0.0
C1256 C 0.21454 0.40127 0.97494 0.0
C1257 C 0.19899 0.39297 0.9616 0.0
C1258 C 0.23025 0.4147 0.96699 0.0
C1259 C 0.2301 0.42005 0.94533 0.0
C1260 C 0.21341 0.41304 0.93226 0.0
C1261 C 0.19816 0.39943 0.94053 0.0
C1262 C 0.24778 0.42184 0.9814 0.0
C1263 C 0.21241 0.41877 0.90917 0.0
H1264 H 0.26264 0.47885 0.91614 0.0
H1265 H 0.29022 0.4182 0.90403 0.0
H1266 H 0.21685 0.46479 0.93386 0.0
H1267 H 0.22881 0.46185 0.95924 0.0
H1268 H 0.23635 0.48354 0.94243 0.0
H1269 H 0.28005 0.38782 0.92281 0.0
H1270 H 0.26347 0.39053 0.94575 0.0
H1271 H 0.25179 0.38736 0.92025 0.0
H1272 H 0.21523 0.39624 0.99126 0.0
H1273 H 0.186 0.39319 0.93026 0.0
H1274 H 0.25163 0.43867 0.97869 0.0
H1275 H 0.2622 0.41255 0.97797 0.0
H1276 H 0.24367 0.41962 -0.00173 0.0
H1277 H 0.21442 0.43601 0.90707 0.0
H1278 H 0.19725 0.41397 0.90181 0.0
H1279 H 0.22544 0.41085 0.90061 0.0
C1280 C 0.56454 0.22512 0.97223 0.0
C1281 C 0.57294 0.20837 0.96051 0.0
C1282 C 0.55206 0.2406 0.96246 0.0
C1283 C 0.54788 0.23907 0.94059 0.0
C1284 C 0.55467 0.22109 0.92924 0.0
C1285 C 0.56721 0.20602 0.93932 0.0
C1286 C 0.54491 0.2594 0.97515 0.0
C1287 C 0.55021 0.21862 0.90597 0.0
C1288 C 0.51083 0.27334 0.90871 0.0
C1289 C 0.52532 0.28619 0.89804 0.0
C1290 C 0.51767 0.25885 0.924 0.0
C1291 C 0.53943 0.25738 0.9287 0.0
C1292 C 0.55378 0.27169 0.91935 0.0
C1293 C 0.54655 0.28586 0.90406 0.0
C1294 C 0.50186 0.24403 0.9338 0.0
C1295 C 0.57708 0.27092 0.9242 0.0
H1296 H 0.56891 0.22697 0.98865 0.0
H1297 H 0.57345 0.19291 0.9303 0.0
H1298 H 0.55546 0.27294 0.97183 0.0
H1299 H 0.52867 0.26415 0.97072 0.0
H1300 H 0.54539 0.25616 -0.00765 0.0
H1301 H 0.55436 0.20265 0.90012 0.0
H1302 H 0.53331 0.22158 0.90262 0.0
H1303 H 0.55952 0.23038 0.89698 0.0
H1304 H 0.49436 0.2736 0.90418 0.0
H1305 H 0.55775 0.29598 0.89606 0.0
H1306 H 0.5052 0.24165 0.9508 0.0
H1307 H 0.50296 0.22843 0.92597 0.0
H1308 H 0.48547 0.24993 0.93201 0.0
H1309 H 0.57973 0.27045 0.94147 0.0
H1310 H 0.58566 0.28468 0.91759 0.0
H1311 H 0.58396 0.25634 0.91741 0.0
C1312 C 0.70426 0.53899 0.92272 0.0
C1313 C 0.70581 0.51856 0.91455 0.0
C1314 C 0.71846 0.54621 0.93795 0.0
C1315 C 0.73468 0.53264 0.9451 0.0
C1316 C 0.73478 0.51124 0.93876 0.0
C1317 C 0.72028 0.5044 0.92344 0.0
C1318 C 0.71742 0.56904 0.94464 0.0
C1319 C 0.75134 0.49608 0.94657 0.0
C1320 C 0.78324 0.56585 0.9508 0.0
C1321 C 0.78198 0.57175 0.97202 0.0
C1322 C 0.76918 0.55116 0.94228 0.0
C1323 C 0.75343 0.54222 0.95533 0.0
C1324 C 0.75369 0.54624 0.97728 0.0
C1325 C 0.76801 0.56108 0.98542 0.0
C1326 C 0.76983 0.54698 0.91884 0.0
C1327 C 0.73767 0.53645 0.99186 0.0
H1328 H 0.69277 0.54984 0.91619 0.0
H1329 H 0.72138 0.48849 0.91733 0.0
H1330 H 0.71888 0.57043 0.962 0.0
H1331 H 0.73074 0.57782 0.93747 0.0
H1332 H 0.70247 0.57669 0.93967 0.0
H1333 H 0.74587 0.47949 0.94532 0.0
H1334 H 0.76576 0.49777 0.93683 0.0
H1335 H 0.75568 0.4994 0.96319 0.0
H1336 H 0.79435 0.57373 0.94048 0.0
H1337 H 0.76715 0.5654 0.00193 0.0
H1338 H 0.75616 0.55475 0.91116 0.0
H1339 H 0.76869 0.52984 0.91562 0.0
H1340 H 0.78449 0.55308 0.91146 0.0
H1341 H 0.72304 0.54601 0.99159 0.0
H1342 H 0.74354 0.53599 0.00836 0.0
H1343 H 0.73357 0.52021 0.98684 0.0
C1344 C 0.54242 0.70269 0.07079 0.0
C1345 C 0.52119 0.7037 0.0767 0.0
C1346 C 0.55094 0.71727 0.05662 0.0
C1347 C 0.53789 0.73334 0.04826 0.0
C1348 C 0.51602 0.73325 0.05263 0.0
C1349 C 0.50787 0.71835 0.06685 0.0
C1350 C 0.57431 0.71654 0.05208 0.0
C1351 C 0.50153 0.74987 0.04372 0.0
C1352 C 0.57042 0.78254 0.04263 0.0
C1353 C 0.57698 0.78105 0.02161 0.0
C1354 C 0.55597 0.76815 0.05101 0.0
C1355 C 0.54801 0.75181 0.03805 0.0
C1356 C 0.55293 0.75152 0.0163 0.0
C1357 C 0.56741 0.76624 0.00827 0.0
C1358 C 0.55082 0.76929 0.07423 0.0
C1359 C 0.54444 0.73461 0.00189 0.0
H1360 H 0.5527 0.69115 0.0781 0.0
H1361 H 0.49139 0.7191 0.07127 0.0
H1362 H 0.57726 0.71795 0.03491 0.0
H1363 H 0.58219 0.73005 0.05993 0.0
H1364 H 0.5817 0.70175 0.05782 0.0
H1365 H 0.48477 0.74487 0.04442 0.0
H1366 H 0.50323 0.76458 0.05303 0.0
H1367 H 0.50565 0.75358 0.02714 0.0
H1368 H 0.57752 0.79421 0.05289 0.0
H1369 H 0.57233 0.76513 0.99195 0.0
H1370 H 0.55872 0.75611 0.0826 0.0
H1371 H 0.53362 0.76762 0.07679 0.0
H1372 H 0.55612 0.78435 0.08143 0.0
H1373 H 0.55374 0.71997 0.0041 0.0
H1374 H 0.54556 0.73932 0.98506 0.0
H1375 H 0.52777 0.73092 0.00565 0.0
C1376 C 0.2037 0.57193 0.04153 0.0
C1377 C 0.20434 0.57867 0.02053 0.0
C1378 C 0.21798 0.5569 0.04903 0.0
C1379 C 0.23337 0.54854 0.03519 0.0
C1380 C 0.23277 0.55375 0.01351 0.0
C1381 C 0.21817 0.56881 0.00638 0.0
C1382 C 0.21776 0.55147 0.07222 0.0
C1383 C 0.24863 0.54487 -0.00181 0.0
C1384 C 0.28304 0.5407 0.06641 0.0
C1385 C 0.28102 0.5196 0.07254 0.0
C1386 C 0.26869 0.54982 0.05237 0.0
C1387 C 0.25185 0.53753 0.0444 0.0
C1388 C 0.25107 0.51567 0.04874 0.0
C1389 C 0.26575 0.5069 0.06282 0.0
C1390 C 0.27039 0.57313 0.0478 0.0
C1391 C 0.23364 0.50194 0.04017 0.0
H1392 H 0.19277 0.57927 0.05242 0.0
H1393 H 0.21861 0.57389 0.99007 0.0
H1394 H 0.21871 0.53417 0.07447 0.0
H1395 H 0.23171 0.5586 0.08001 0.0
H1396 H 0.20336 0.55736 0.08025 0.0
H1397 H 0.243 0.54612 0.98165 0.0
H1398 H 0.26359 0.55383 -0.00046 0.0
H1399 H 0.25215 0.52811 0.00173 0.0
H1400 H 0.29507 0.55047 0.07362 0.0
H1401 H 0.26424 0.4905 0.06739 0.0
H1402 H 0.25768 0.58165 0.05626 0.0
H1403 H 0.26836 0.57621 0.03071 0.0
H1404 H 0.28579 0.57974 0.05289 0.0
H1405 H 0.21931 0.50405 0.04997 0.0
H1406 H 0.23805 0.485 0.04052 0.0
H1407 H 0.22957 0.50642 0.02376 0.0
C1408 C 0.70556 0.4401 0.07027 0.0
C1409 C 0.70743 0.46132 0.07603 0.0
C1410 C 0.71944 0.43104 0.05575 0.0
C1411 C 0.73573 0.44349 0.04691 0.0
C1412 C 0.73645 0.46539 0.05112 0.0
C1413 C 0.72221 0.4741 0.06568 0.0
C1414 C 0.7178 0.40769 0.05135 0.0
C1415 C 0.7533 0.47928 0.04171 0.0
C1416 C 0.78366 0.40921 0.04097 0.0
C1417 C 0.78178 0.40261 0.02 0.0
C1418 C 0.7699 0.42423 0.04939 0.0
C1419 C 0.7537 0.43266 0.03655 0.0
C1420 C 0.753 0.42759 0.01483 0.0
C1421 C 0.76715 0.41257 0.00675 0.0
C1422 C 0.77154 0.42957 0.07254 0.0
C1423 C 0.73623 0.43653 0.00055 0.0
H1424 H 0.69389 0.43026 0.07796 0.0
H1425 H 0.72361 0.49058 0.06998 0.0
H1426 H 0.71888 0.40459 0.03418 0.0
H1427 H 0.7311 0.39936 0.05908 0.0
H1428 H 0.70281 0.40089 0.05732 0.0
H1429 H 0.74868 0.49617 0.04213 0.0
H1430 H 0.76806 0.47743 0.0509 0.0
H1431 H 0.75672 0.47475 0.02517 0.0
H1432 H 0.79522 0.40178 0.05115 0.0
H1433 H 0.76573 0.40759 0.99046 0.0
H1434 H 0.7582 0.42222 0.08116 0.0
H1435 H 0.77051 0.44685 0.07494 0.0
H1436 H 0.7865 0.42382 0.0796 0.0
H1437 H 0.72134 0.42767 0.00291 0.0
H1438 H 0.74075 0.43522 0.98368 0.0
H1439 H 0.73306 0.45332 0.00428 0.0
C1440 C 0.00078 0.24711 0.31384 0.0
C1441 C 0.98673 0.23035 0.31069 0.0
C1442 C 0.00162 0.26401 0.29958 0.0
C1443 C 0.98832 0.26392 0.28165 0.0
C1444 C 0.9739 0.24719 0.2786 0.0
C1445 C 0.97318 0.23068 0.29324 0.0
C1446 C 0.017 0.28175 0.30347 0.0
C1447 C 0.95966 0.24638 0.25952 0.0
C1448 C 0.97845 0.3135 0.24957 0.0
C1449 C -0.00744 0.31074 0.23281 0.0
C1450 C 0.97729 0.29868 0.26597 0.0
C1451 C 0.99033 0.28058 0.26534 0.0
C1452 C 0.00474 0.27784 0.24855 0.0
C1453 C 0.00578 0.29303 0.23257 0.0
C1454 C 0.96195 0.30222 0.2838 0.0
C1455 C 0.01872 0.25861 0.24718 0.0
H1456 H 0.01117 0.24699 0.32741 0.0
H1457 H 0.9623 0.21775 0.29072 0.0
H1458 H 0.02909 0.28195 0.29084 0.0
H1459 H 0.0087 0.29714 0.30295 0.0
H1460 H 0.0251 0.28024 0.31892 0.0
H1461 H 0.94882 0.23264 0.25987 0.0
H1462 H 0.95011 0.26099 0.2585 0.0
H1463 H 0.96933 0.24546 0.24498 0.0
H1464 H 0.96831 0.32725 0.24987 0.0
H1465 H 0.0167 0.29078 0.21962 0.0
H1466 H 0.97029 0.30141 0.29916 0.0
H1467 H 0.94985 0.2896 0.2838 0.0
H1468 H 0.95385 0.3177 0.28261 0.0
H1469 H 0.02845 0.2572 0.26163 0.0
H1470 H 0.02937 0.25909 0.23329 0.0
H1471 H 0.00886 0.2442 0.24612 0.0
C1472 C 0.75976 0.97722 0.28387 0.0
C1473 C 0.76063 0.9904 0.30159 0.0
C1474 C 0.7432 0.97875 0.26934 0.0
C1475 C 0.727 -0.00629 0.27271 0.0
C1476 C 0.72766 0.00694 0.29067 0.0
C1477 C 0.74455 0.0052 0.30487 0.0
C1478 C 0.74314 0.96451 0.25026 0.0
C1479 C 0.71056 0.02295 0.29484 0.0
C1480 C 0.6957 0.01091 0.22481 0.0
C1481 C 0.67772 -0.00185 0.22631 0.0
C1482 C 0.71174 0.00981 0.23996 0.0
C1483 C 0.70964 -0.00425 0.25714 0.0
C1484 C 0.69133 0.98312 0.25899 0.0
C1485 C 0.67561 0.9844 0.24348 0.0
C1486 C 0.73112 0.02338 0.23736 0.0
C1487 C 0.68849 0.96808 0.27721 0.0
H1488 H 0.77217 0.96577 0.28123 0.0
H1489 H 0.7451 0.01536 0.3186 0.0
H1490 H 0.72849 0.95497 0.24994 0.0
H1491 H 0.74338 0.97413 0.23566 0.0
H1492 H 0.75688 0.95365 0.25001 0.0
H1493 H 0.71311 0.03166 0.30982 0.0
H1494 H 0.70988 0.03449 0.28173 0.0
H1495 H 0.69499 0.01501 0.29556 0.0
H1496 H 0.69744 0.02156 0.21156 0.0
H1497 H 0.66168 0.97459 0.24477 0.0
H1498 H 0.74527 0.01324 0.23568 0.0
H1499 H 0.7335 0.03327 0.25158 0.0
H1500 H 0.73008 0.03386 0.22337 0.0
H1501 H 0.70102 0.95589 0.27684 0.0
H1502 H 0.67291 0.96009 0.27687 0.0
H1503 H 0.69007 0.97666 0.29238 0.0
C1504 C 0.97721 0.69141 0.23166 0.0
C1505 C 0.9902 0.67353 0.23196 0.0
C1506 C 0.97863 0.70676 0.24745 0.0
C1507 C -0.0068 0.70404 0.26411 0.0
C1508 C 0.00605 0.6858 0.26478 0.0
C1509 C 0.00449 0.67079 0.24858 0.0
C1510 C 0.96483 0.72612 0.24605 0.0
C1511 C 0.02158 0.68229 0.28246 0.0
C1512 C 0.01109 0.75394 0.29164 0.0
C1513 C -0.0022 0.75439 0.30929 0.0
C1514 C 0.01003 0.7374 0.27703 0.0
C1515 C -0.00449 0.72079 0.2803 0.0
C1516 C 0.98243 0.72086 0.29838 0.0
C1517 C 0.98364 0.73777 0.31262 0.0
C1518 C 0.02405 0.73801 0.2578 0.0
C1519 C 0.96694 0.70328 0.30248 0.0
H1520 H 0.96616 0.69364 0.21882 0.0
H1521 H 0.01447 0.65692 0.24893 0.0
H1522 H 0.95525 0.72774 0.26058 0.0
H1523 H 0.97482 0.74043 0.2448 0.0
H1524 H 0.95404 0.72564 0.23227 0.0
H1525 H 0.0296 0.66677 0.28126 0.0
H1526 H 0.03373 0.69487 0.28227 0.0
H1527 H 0.01342 0.68322 0.2979 0.0
H1528 H 0.02206 0.76675 0.28897 0.0
H1529 H 0.97344 0.73798 0.32634 0.0
H1530 H 0.01422 0.73891 0.24336 0.0
H1531 H 0.03348 0.72333 0.25675 0.0
H1532 H 0.03498 0.75169 0.25796 0.0
H1533 H 0.95477 0.70307 0.28993 0.0
H1534 H 0.95893 0.70497 0.31797 0.0
H1535 H 0.97511 0.68783 0.30205 0.0
C1536 C 0.2386 0.97259 0.30199 0.0
C1537 C 0.22327 0.98783 0.2974 0.0
C1538 C 0.2564 0.97018 0.28906 0.0
C1539 C 0.25874 0.9832 0.2711 0.0
C1540 C 0.24314 -0.00162 0.26625 0.0
C1541 C 0.22564 0.00056 0.2795 0.0
C1542 C 0.27279 0.95389 0.29472 0.0
C1543 C 0.24497 0.0124 0.24708 0.0
C1544 C 0.31201 -0.00717 0.24576 0.0
C1545 C 0.31091 0.97961 0.2281 0.0
C1546 C 0.29543 -0.00641 0.26037 0.0
C1547 C 0.27734 0.98092 0.25712 0.0
C1548 C 0.27643 0.9671 0.23966 0.0
C1549 C 0.29326 0.96656 0.22539 0.0
C1550 C 0.29698 0.0084 0.27894 0.0
C1551 C 0.25735 0.95344 0.23561 0.0
H1552 H 0.23688 0.96278 0.31586 0.0
H1553 H 0.2138 0.01232 0.27584 0.0
H1554 H 0.27473 0.94253 0.28157 0.0
H1555 H 0.28828 0.96164 0.29718 0.0
H1556 H 0.26862 0.94501 0.30923 0.0
H1557 H 0.23135 0.02327 0.24544 0.0
H1558 H 0.25961 0.02192 0.24804 0.0
H1559 H 0.24606 0.00263 0.23262 0.0
H1560 H 0.32568 0.00283 0.24799 0.0
H1561 H 0.29234 0.95623 0.21181 0.0
H1562 H 0.29378 -0.0002 0.29382 0.0
H1563 H 0.28488 0.02094 0.27748 0.0
H1564 H 0.31272 0.01597 0.28009 0.0
H1565 H 0.2536 0.94391 0.24978 0.0
H1566 H 0.25967 0.94262 0.22204 0.0
H1567 H 0.24347 0.96356 0.23233 0.0
C1568 C 0.00528 0.69745 0.76239 0.0
C1569 C -0.00738 0.67934 0.76289 0.0
C1570 C 0.00365 0.71198 0.74588 0.0
C1571 C 0.98919 0.70819 0.72933 0.0
C1572 C 0.97672 0.68969 0.72945 0.0
C1573 C 0.97847 0.67552 0.74635 0.0
C1574 C 0.01704 0.73167 0.74642 0.0
C1575 C 0.96131 0.68507 0.7119 0.0
C1576 C 0.97013 0.75671 0.7004 0.0
C1577 C 0.98346 0.75701 0.68278 0.0
C1578 C 0.9715 0.74059 0.71541 0.0
C1579 C 0.9864 0.72425 0.71258 0.0
C1580 C -0.00057 0.72406 0.69446 0.0
C1581 C -0.00211 0.74056 0.6798 0.0
C1582 C 0.95748 0.74145 0.73464 0.0
C1583 C 0.0153 0.70671 0.69084 0.0
H1584 H 0.01623 0.70049 0.77516 0.0
H1585 H 0.96878 0.66146 0.74661 0.0
H1586 H 0.02649 0.73293 0.73177 0.0
H1587 H 0.00675 0.74579 0.74721 0.0
H1588 H 0.02793 0.73195 0.76013 0.0
H1589 H 0.95378 0.66936 0.71366 0.0
H1590 H 0.94878 0.69726 0.71167 0.0
H1591 H 0.96944 0.6857 0.69644 0.0
H1592 H 0.95892 0.76938 0.70279 0.0
H1593 H 0.0081 0.74066 0.66611 0.0
H1594 H 0.9673 0.74318 0.74901 0.0
H1595 H 0.9485 0.72654 0.73624 0.0
H1596 H 0.94613 0.75476 0.73402 0.0
H1597 H 0.02764 0.70734 0.70321 0.0
H1598 H 0.02305 0.70799 0.67518 0.0
H1599 H 0.00755 0.69109 0.69201 0.0
C1600 C 0.22313 0.98116 0.69741 0.0
C1601 C 0.22264 -0.00797 0.67818 0.0
C1602 C 0.24025 0.98327 0.71121 0.0
C1603 C 0.25736 -0.00361 0.70552 0.0
C1604 C 0.25716 0.00708 0.68595 0.0
C1605 C 0.23971 0.00487 0.67254 0.0
C1606 C 0.23981 0.97178 0.73206 0.0
C1607 C 0.27526 0.02103 0.67931 0.0
C1608 C 0.28974 0.01816 0.75067 0.0
C1609 C 0.30673 0.00402 0.75131 0.0
C1610 C 0.2738 0.01609 0.73555 0.0
C1611 C 0.27498 -0.00039 0.72057 0.0
C1612 C 0.29242 0.9857 0.72068 0.0
C1613 C 0.30808 0.98801 0.73615 0.0
C1614 C 0.25535 0.03114 0.73602 0.0
C1615 C 0.29429 0.9681 0.70477 0.0
H1616 H 0.20996 0.97122 0.70185 0.0
H1617 H 0.23946 0.01318 0.65762 0.0
H1618 H 0.25395 0.96162 0.73363 0.0
H1619 H 0.24024 0.98333 0.74519 0.0
H1620 H 0.22553 0.96181 0.73387 0.0
H1621 H 0.27316 0.02737 0.66312 0.0
H1622 H 0.27676 0.03447 0.6904 0.0
H1623 H 0.29028 0.0121 0.67994 0.0
H1624 H 0.28861 0.03059 0.76234 0.0
H1625 H 0.32124 0.97712 0.73652 0.0
H1626 H 0.24061 0.02231 0.73928 0.0
H1627 H 0.25345 0.03885 0.72045 0.0
H1628 H 0.25721 0.04357 0.74822 0.0
H1629 H 0.28126 0.95666 0.70707 0.0
H1630 H 0.30951 0.95955 0.7061 0.0
H1631 H 0.29281 0.97445 0.68855 0.0
C1632 C 0.0089 0.23264 0.68386 0.0
C1633 C -0.00426 0.2328 0.6661 0.0
C1634 C 0.00668 0.24774 0.69979 0.0
C1635 C 0.99111 0.26357 0.69776 0.0
C1636 C 0.97816 0.26421 0.67959 0.0
C1637 C 0.98054 0.24868 0.664 0.0
C1638 C 0.0206 0.24641 0.71907 0.0
C1639 C 0.9616 0.28106 0.67679 0.0
C1640 C 0.97118 0.2879 0.7485 0.0
C1641 C 0.98322 0.30638 0.74969 0.0
C1642 C 0.9734 0.27397 0.73151 0.0
C1643 C 0.98779 0.27882 0.71518 0.0
C1644 C -0.00035 0.2977 0.71604 0.0
C1645 C -0.00267 0.31121 0.7334 0.0
C1646 C 0.9607 0.25383 0.73129 0.0
C1647 C 0.01494 0.30349 0.69875 0.0
H1648 H 0.02067 0.22037 0.68558 0.0
H1649 H 0.97043 0.24892 0.65023 0.0
H1650 H 0.02918 0.26146 0.72137 0.0
H1651 H 0.01076 0.24382 0.7333 0.0
H1652 H 0.0323 0.23343 0.71795 0.0
H1653 H 0.95376 0.28013 0.66116 0.0
H1654 H 0.94942 0.2795 0.68923 0.0
H1655 H 0.9688 0.29691 0.67854 0.0
H1656 H 0.96027 0.28408 0.76109 0.0
H1657 H 0.00655 0.32557 0.73419 0.0
H1658 H 0.97147 0.24005 0.73149 0.0
H1659 H 0.95126 0.25282 0.71661 0.0
H1660 H 0.94987 0.25263 0.74499 0.0
H1661 H 0.0278 0.29167 0.69802 0.0
H1662 H 0.02204 0.31931 0.70118 0.0
H1663 H 0.00683 0.30329 0.68325 0.0
C1664 C 0.76007 0.0193 0.69579 0.0
C1665 C 0.76055 0.00418 0.67966 0.0
C1666 C 0.74462 0.01861 0.71154 0.0
C1667 C 0.72921 0.00252 0.71103 0.0
C1668 C 0.72912 0.98768 0.69436 0.0
C1669 C 0.74488 0.98864 0.67889 0.0
C1670 C 0.74528 0.03463 0.72915 0.0
C1671 C 0.71279 0.97041 0.69324 0.0
C1672 C 0.70537 0.98526 0.76289 0.0
C1673 C 0.68584 -0.00442 0.7626 0.0
C1674 C 0.71965 0.98752 0.74624 0.0
C1675 C 0.71418 0.00027 0.72878 0.0
C1676 C 0.69454 0.01084 0.72841 0.0
C1677 C 0.6806 0.00845 0.74542 0.0
C1678 C 0.74057 0.97619 0.7473 0.0
C1679 C 0.68818 0.02446 0.70996 0.0
H1680 H 0.77211 0.0314 0.69644 0.0
H1681 H 0.7451 0.97702 0.66636 0.0
H1682 H 0.72973 0.04243 0.73085 0.0
H1683 H 0.74873 0.02657 0.74429 0.0
H1684 H 0.75746 0.04692 0.72651 0.0
H1685 H 0.71389 0.96119 0.6784 0.0
H1686 H 0.71485 0.95948 0.70674 0.0
H1687 H 0.69672 0.97719 0.69445 0.0
H1688 H 0.70953 0.97535 0.77618 0.0
H1689 H 0.66547 0.01637 0.7451 0.0
H1690 H 0.75367 0.98771 0.74607 0.0
H1691 H 0.74206 0.96516 0.73382 0.0
H1692 H 0.74251 0.96713 0.76215 0.0
H1693 H 0.69987 0.03726 0.70767 0.0
H1694 H 0.67236 0.03165 0.71214 0.0
H1695 H 0.68802 0.01491 0.69531 0.0
C1696 C 0.21282 0.27342 0.97871 0.0
C1697 C 0.21201 0.29139 0.99155 0.0
C1698 C 0.22927 0.25881 0.98066 0.0
C1699 C 0.24538 0.26238 -0.00434 0.0
C1700 C 0.24467 0.28049 0.00867 0.0
C1701 C 0.2279 0.29475 0.00653 0.0
C1702 C 0.22941 0.23956 0.96665 0.0
C1703 C 0.26169 0.28487 0.02473 0.0
C1704 C 0.27791 0.21549 0.01339 0.0
C1705 C 0.29593 0.21748 0.00075 0.0
C1706 C 0.26137 0.23006 0.01196 0.0
C1707 C 0.26299 0.24712 -0.0023 0.0
C1708 C 0.28126 0.24938 0.98509 0.0
C1709 C 0.29748 0.23445 0.9867 0.0
C1710 C 0.24204 0.22706 0.02553 0.0
C1711 C 0.28359 0.2675 0.96983 0.0
H1712 H 0.20052 0.27071 0.96715 0.0
H1713 H 0.22738 0.30866 0.01643 0.0
H1714 H 0.24392 0.23939 0.9569 0.0
H1715 H 0.22956 0.22507 0.97643 0.0
H1716 H 0.21553 0.23896 0.95599 0.0
H1717 H 0.25884 0.29973 0.03356 0.0
H1718 H 0.26265 0.27168 0.03616 0.0
H1719 H 0.27722 0.28598 0.01678 0.0
H1720 H 0.27661 0.20237 0.02426 0.0
H1721 H 0.31143 0.23611 0.97696 0.0
H1722 H 0.22791 0.22517 0.01539 0.0
H1723 H 0.23943 0.24121 0.03546 0.0
H1724 H 0.24334 0.21306 0.03597 0.0
H1725 H 0.27089 0.26684 0.95783 0.0
H1726 H 0.29905 0.26732 0.96161 0.0
H1727 H 0.28194 0.28271 0.97831 0.0
C1728 C 0.22641 0.70104 0.0107 0.0
C1729 C 0.22594 0.68368 -0.00297 0.0
C1730 C 0.24154 0.71694 0.00836 0.0
C1731 C 0.25669 0.71533 -0.00792 0.0
C1732 C 0.25664 0.69759 0.97854 0.0
C1733 C 0.24116 0.68199 0.98111 0.0
C1734 C 0.241 0.73572 0.023 0.0
C1735 C 0.27272 0.69527 0.96115 0.0
C1736 C 0.28092 0.76649 0.97314 0.0
C1737 C 0.29998 0.76687 0.98432 0.0
C1738 C 0.26682 0.74963 0.97531 0.0
C1739 C 0.27203 0.73266 0.9888 0.0
C1740 C 0.29144 0.73273 -0.00019 0.0
C1741 C 0.30516 0.74993 -0.00248 0.0
C1742 C 0.24616 0.75019 0.96347 0.0
C1743 C 0.29758 0.71479 0.01418 0.0
H1744 H 0.21468 0.70244 0.02304 0.0
H1745 H 0.24092 0.66854 0.97058 0.0
H1746 H 0.25642 0.73753 0.03104 0.0
H1747 H 0.23819 0.75032 0.0138 0.0
H1748 H 0.22849 0.73431 0.03517 0.0
H1749 H 0.2712 0.68001 0.95269 0.0
H1750 H 0.27085 0.70825 0.9496 0.0
H1751 H 0.28888 0.69646 0.96773 0.0
H1752 H 0.27683 0.77956 0.96292 0.0
H1753 H 0.31995 0.75009 0.00608 0.0
H1754 H 0.23285 0.7502 0.97482 0.0
H1755 H 0.24452 0.73589 0.95355 0.0
H1756 H 0.24474 0.76431 0.95321 0.0
H1757 H 0.28626 0.71369 0.02745 0.0
H1758 H 0.3137 0.71675 0.02075 0.0
H1759 H 0.29687 0.69963 0.00549 0.0
C1760 C 0.75721 0.28154 0.00887 0.0
C1761 C 0.75798 0.29908 -0.00456 0.0
C1762 C 0.74072 0.26691 0.00751 0.0
C1763 C 0.72453 0.26999 -0.00752 0.0
C1764 C 0.72507 0.28779 0.97904 0.0
C1765 C 0.74187 0.3021 0.98062 0.0
C1766 C 0.74076 0.24802 0.022 0.0
C1767 C 0.70797 0.29164 0.96293 0.0
C1768 C 0.69368 0.22165 0.97569 0.0
C1769 C 0.67561 0.22322 0.98831 0.0
C1770 C 0.70961 0.23693 0.97671 0.0
C1771 C 0.70732 0.25426 0.99056 0.0
C1772 C 0.68894 0.25614 0.00306 0.0
C1773 C 0.67332 0.24052 0.00186 0.0
C1774 C 0.72907 0.23431 0.96326 0.0
C1775 C 0.68589 0.27452 0.01788 0.0
H1776 H 0.76964 0.2791 0.02034 0.0
H1777 H 0.74236 0.31568 0.97026 0.0
H1778 H 0.72605 0.24768 0.03144 0.0
H1779 H 0.74122 0.2333 0.01257 0.0
H1780 H 0.75442 0.24805 0.03296 0.0
H1781 H 0.7104 0.30656 0.9541 0.0
H1782 H 0.70748 0.27841 0.95151 0.0
H1783 H 0.69237 0.29226 0.9708 0.0
H1784 H 0.69555 0.2083 0.9652 0.0
H1785 H 0.65932 0.24186 0.01156 0.0
H1786 H 0.7432 0.23289 0.97348 0.0
H1787 H 0.73136 0.24841 0.95319 0.0
H1788 H 0.7282 0.22017 0.95296 0.0
H1789 H 0.6984 0.27441 0.03011 0.0
H1790 H 0.67031 0.27412 0.02585 0.0
H1791 H 0.68733 0.28958 0.00913 0.0
C1792 C 0.74066 0.67408 0.01045 0.0
C1793 C 0.75704 0.67629 -0.0042 0.0
C1794 C 0.72459 0.68926 0.01185 0.0
C1795 C 0.72513 0.70708 -0.00157 0.0
C1796 C 0.74157 0.70929 0.98354 0.0
C1797 C 0.75726 0.69381 0.98233 0.0
C1798 C 0.70716 0.68632 0.02776 0.0
C1799 C 0.7428 0.72817 0.96908 0.0
C1800 C 0.67649 0.74025 0.98794 0.0
C1801 C 0.67996 0.75752 0.00127 0.0
C1802 C 0.69071 0.72332 0.98736 0.0
C1803 C 0.70891 0.72385 0.00026 0.0
C1804 C 0.7123 0.74108 0.01402 0.0
C1805 C 0.69772 0.75767 0.01443 0.0
C1806 C 0.6865 0.70509 0.97265 0.0
C1807 C 0.73164 0.74229 0.02785 0.0
H1808 H 0.74038 0.66051 0.02081 0.0
H1809 H 0.7699 0.69563 0.97099 0.0
H1810 H 0.70742 0.69943 0.03933 0.0
H1811 H 0.69161 0.68678 0.01976 0.0
H1812 H 0.70857 0.67118 0.03645 0.0
H1813 H 0.7565 0.72738 0.95821 0.0
H1814 H 0.72819 0.72939 0.95955 0.0
H1815 H 0.74406 0.74282 0.97856 0.0
H1816 H 0.66269 0.73999 0.97785 0.0
H1817 H 0.70048 0.77097 0.02479 0.0
H1818 H 0.68712 0.68999 0.98143 0.0
H1819 H 0.69891 0.70445 0.96035 0.0
H1820 H 0.67092 0.70639 0.96476 0.0
H1821 H 0.73288 0.72795 0.03777 0.0
H1822 H 0.73148 0.75634 0.03831 0.0
H1823 H 0.74599 0.74296 0.01788 0.0
C1824 C 0.46491 0.71423 0.78374 0.0
C1825 C 0.47905 0.71639 0.8006 0.0
C1826 C 0.46515 0.72845 0.76683 0.0
C1827 C 0.47982 0.74524 0.76687 0.0
C1828 C 0.49384 0.74775 0.78405 0.0
C1829 C 0.49332 0.73324 0.80071 0.0
C1830 C 0.45003 0.72525 0.74872 0.0
C1831 C 0.50963 0.76555 0.78466 0.0
C1832 C 0.49757 0.76919 0.7152 0.0
C1833 C 0.48615 0.78809 0.7148 0.0
C1834 C 0.49524 0.75486 0.73182 0.0
C1835 C 0.48123 0.75962 0.7485 0.0
C1836 C 0.46922 0.77842 0.74793 0.0
C1837 C 0.47178 0.79243 0.73101 0.0
C1838 C 0.50817 0.73486 0.73179 0.0
C1839 C 0.45416 0.784 0.76549 0.0
H1840 H 0.45381 0.70125 0.78359 0.0
H1841 H 0.5042 0.73504 0.81377 0.0
H1842 H 0.44069 0.73978 0.74602 0.0
H1843 H 0.45898 0.72205 0.73404 0.0
H1844 H 0.439 0.71194 0.75153 0.0
H1845 H 0.51876 0.76584 0.79961 0.0
H1846 H 0.52084 0.76396 0.77133 0.0
H1847 H 0.50147 0.78089 0.78279 0.0
H1848 H 0.50862 0.7657 0.70265 0.0
H1849 H 0.46293 0.80705 0.73079 0.0
H1850 H 0.49774 0.72094 0.73349 0.0
H1851 H 0.5191 0.73487 0.74545 0.0
H1852 H 0.51758 0.73304 0.71714 0.0
H1853 H 0.44277 0.77098 0.76803 0.0
H1854 H 0.44524 0.79869 0.76216 0.0
H1855 H 0.46303 0.78612 0.78041 0.0
C1856 C 0.23863 0.49647 0.81241 0.0
C1857 C 0.2554 0.48265 0.80841 0.0
C1858 C 0.22226 0.49897 0.79774 0.0
C1859 C 0.2228 0.48745 0.77864 0.0
C1860 C 0.2395 0.47321 0.77471 0.0
C1861 C 0.25557 0.47094 0.78967 0.0
C1862 C 0.2046 0.51421 0.80248 0.0
C1863 C 0.24066 0.46071 0.75447 0.0
C1864 C 0.17378 0.48064 0.74505 0.0
C1865 C 0.1771 0.4958 0.72932 0.0
C1866 C 0.18827 0.47809 0.76157 0.0
C1867 C 0.20649 0.49094 0.76225 0.0
C1868 C 0.20972 0.50651 0.74662 0.0
C1869 C 0.19495 0.50879 0.73037 0.0
C1870 C 0.18429 0.46141 0.77807 0.0
C1871 C 0.22903 0.52044 0.74678 0.0
H1872 H 0.23837 0.50548 0.82693 0.0
H1873 H 0.26846 0.46019 0.78651 0.0
H1874 H 0.20475 0.52723 0.79081 0.0
H1875 H 0.18915 0.50615 0.80105 0.0
H1876 H 0.2059 0.52108 0.81853 0.0
H1877 H 0.25432 0.44977 0.75417 0.0
H1878 H 0.22601 0.45142 0.75228 0.0
H1879 H 0.24197 0.47162 0.74086 0.0
H1880 H 0.15994 0.47064 0.74437 0.0
H1881 H 0.19758 0.52057 0.71829 0.0
H1882 H 0.18487 0.46848 0.79405 0.0
H1883 H 0.19684 0.44925 0.77732 0.0
H1884 H 0.16878 0.45355 0.77596 0.0
H1885 H 0.2303 0.52881 0.76208 0.0
H1886 H 0.22878 0.53231 0.73391 0.0
H1887 H 0.2434 0.51063 0.74502 0.0
C1888 C 0.48782 0.24608 0.79785 0.0
C1889 C 0.50254 0.26229 0.79491 0.0
C1890 C 0.48629 0.22939 0.78341 0.0
C1891 C 0.49967 0.22906 0.76556 0.0
C1892 C 0.51471 0.24526 0.76265 0.0
C1893 C 0.51603 0.26163 0.77742 0.0
C1894 C 0.47018 0.21226 0.78708 0.0
C1895 C 0.52914 0.24554 0.74372 0.0
C1896 C 0.50837 0.17868 0.73445 0.0
C1897 C 0.49471 0.18165 0.71733 0.0
C1898 C 0.5098 0.19377 0.75057 0.0
C1899 C 0.49742 0.21229 0.74939 0.0
C1900 C 0.48345 0.21525 0.73226 0.0
C1901 C 0.48219 0.19984 0.71648 0.0
C1902 C 0.52474 0.19003 0.76872 0.0
C1903 C 0.47012 0.23489 0.73037 0.0
H1904 H 0.47744 0.24647 0.81142 0.0
H1905 H 0.52745 0.27412 0.77505 0.0
H1906 H 0.45847 0.21226 0.7741 0.0
H1907 H 0.47796 0.1966 0.78704 0.0
H1908 H 0.46169 0.21427 0.80226 0.0
H1909 H 0.54033 0.25901 0.74407 0.0
H1910 H 0.53832 0.23068 0.74293 0.0
H1911 H 0.51965 0.24657 0.72906 0.0
H1912 H 0.51798 0.16458 0.73524 0.0
H1913 H 0.4716 0.20223 0.70329 0.0
H1914 H 0.51615 0.19119 0.78391 0.0
H1915 H 0.53713 0.20237 0.76883 0.0
H1916 H 0.53249 0.17435 0.76783 0.0
H1917 H 0.46022 0.23683 0.74464 0.0
H1918 H 0.45966 0.23452 0.71632 0.0
H1919 H 0.48044 0.24896 0.72925 0.0
C1920 C 0.80343 0.5057 0.73611 0.0
C1921 C 0.79749 0.49282 0.71916 0.0
C1922 C 0.79054 0.50761 0.75397 0.0
C1923 C 0.77117 0.49658 0.75473 0.0
C1924 C 0.76509 0.48357 0.73765 0.0
C1925 C 0.77839 0.48175 0.72012 0.0
C1926 C 0.7976 0.52147 0.772 0.0
C1927 C 0.74442 0.47175 0.7378 0.0
C1928 C 0.74349 0.48663 0.80683 0.0
C1929 C 0.7281 0.50248 0.80672 0.0
C1930 C 0.758 0.48483 0.79023 0.0
C1931 C 0.75689 0.49907 0.77309 0.0
C1932 C 0.74159 0.51528 0.77307 0.0
C1933 C 0.72745 0.51686 0.78995 0.0
C1934 C 0.7743 0.4675 0.79087 0.0
C1935 C 0.73979 0.53065 0.75497 0.0
H1936 H 0.81825 0.51418 0.73549 0.0
H1937 H 0.77371 0.4718 0.70703 0.0
H1938 H 0.78614 0.53446 0.77435 0.0
H1939 H 0.79805 0.51221 0.78683 0.0
H1940 H 0.81343 0.52842 0.76924 0.0
H1941 H 0.74211 0.46217 0.72332 0.0
H1942 H 0.74369 0.46115 0.75168 0.0
H1943 H 0.73114 0.48304 0.73918 0.0
H1944 H 0.74411 0.47555 0.81982 0.0
H1945 H 0.71556 0.52913 0.78976 0.0
H1946 H 0.79032 0.47424 0.78892 0.0
H1947 H 0.77168 0.45643 0.77759 0.0
H1948 H 0.77379 0.45846 0.80585 0.0
H1949 H 0.75504 0.53883 0.75249 0.0
H1950 H 0.72737 0.54268 0.75765 0.0
H1951 H 0.73608 0.522 0.74022 0.0
C1952 C 0.50606 0.20016 0.26374 0.0
C1953 C 0.49238 0.1828 0.2637 0.0
C1954 C 0.50551 0.21509 0.24748 0.0
C1955 C 0.49103 0.21252 0.23071 0.0
C1956 C 0.47734 0.1949 0.23044 0.0
C1957 C 0.47812 0.18028 0.24701 0.0
C1958 C 0.52025 0.23377 0.24838 0.0
C1959 C 0.46177 0.19161 0.21273 0.0
C1960 C 0.47541 0.2616 0.20052 0.0
C1961 C 0.48838 0.26029 0.18267 0.0
C1962 C 0.47599 0.24604 0.21617 0.0
C1963 C 0.48977 0.22867 0.21384 0.0
C1964 C 0.5027 0.22708 0.19573 0.0
C1965 C 0.5019 0.24297 0.18036 0.0
C1966 C 0.46206 0.24835 0.23535 0.0
C1967 C 0.51749 0.20868 0.19268 0.0
H1968 H 0.51711 0.2022 0.27662 0.0
H1969 H 0.46758 0.16683 0.24685 0.0
H1970 H 0.53008 0.23435 0.23394 0.0
H1971 H 0.51099 0.2486 0.24896 0.0
H1972 H 0.53083 0.23325 0.26233 0.0
H1973 H 0.45273 0.17672 0.2145 0.0
H1974 H 0.45048 0.20495 0.2122 0.0
H1975 H 0.47014 0.19129 0.19738 0.0
H1976 H 0.46492 0.27495 0.20241 0.0
H1977 H 0.51189 0.24185 0.16654 0.0
H1978 H 0.47192 0.24926 0.24976 0.0
H1979 H 0.45175 0.23432 0.23698 0.0
H1980 H 0.45197 0.26264 0.23458 0.0
H1981 H 0.52929 0.20836 0.20558 0.0
H1982 H 0.52596 0.20943 0.17738 0.0
H1983 H 0.50858 0.19365 0.19342 0.0
C1984 C 0.79075 0.50532 0.25927 0.0
C1985 C 0.80796 0.49146 0.25898 0.0
C1986 C 0.7754 0.50475 0.24339 0.0
C1987 C 0.77741 0.49007 0.22672 0.0
C1988 C 0.79491 0.47624 0.22615 0.0
C1989 C 0.80995 0.47703 0.24236 0.0
C1990 C 0.75686 0.51964 0.24462 0.0
C1991 C 0.79762 0.46047 0.20852 0.0
C1992 C 0.72744 0.47426 0.19803 0.0
C1993 C 0.72832 0.48698 0.17998 0.0
C1994 C 0.7434 0.47502 0.21328 0.0
C1995 C 0.76075 0.48871 0.21032 0.0
C1996 C 0.76189 0.50141 0.192 0.0
C1997 C 0.74558 0.50045 0.17706 0.0
C1998 C 0.74156 0.46136 0.2327 0.0
C1999 C 0.78025 0.51607 0.18827 0.0
H2000 H 0.7891 0.51652 0.2721 0.0
H2001 H 0.82326 0.46637 0.242 0.0
H2002 H 0.7559 0.52926 0.23005 0.0
H2003 H 0.74199 0.51049 0.24577 0.0
H2004 H 0.75787 0.53041 0.25839 0.0
H2005 H 0.81254 0.45143 0.20993 0.0
H2006 H 0.78424 0.44921 0.20853 0.0
H2007 H 0.79747 0.46867 0.19307 0.0
H2008 H 0.71412 0.46382 0.2004 0.0
H2009 H 0.74638 0.51024 0.16309 0.0
H2010 H 0.74116 0.47141 0.24701 0.0
H2011 H 0.75554 0.45095 0.23405 0.0
H2012 H 0.72717 0.45138 0.23248 0.0
H2013 H 0.78102 0.528 0.20104 0.0
H2014 H 0.77909 0.5244 0.17291 0.0
H2015 H 0.79525 0.5071 0.18866 0.0
C2016 C 0.51087 0.71919 0.19987 0.0
C2017 C 0.49825 0.72114 0.18182 0.0
C2018 C 0.51011 0.73427 0.21597 0.0
C2019 C 0.49653 0.75184 0.21388 0.0
C2020 C 0.48405 0.75413 0.19552 0.0
C2021 C 0.48497 0.73867 0.17973 0.0
C2022 C 0.52352 0.73119 0.23541 0.0
C2023 C 0.46954 0.77279 0.1927 0.0
C2024 C 0.47884 0.77861 0.26423 0.0
C2025 C 0.49264 0.79583 0.26531 0.0
C2026 C 0.47984 0.76427 0.24747 0.0
C2027 C 0.49488 0.76735 0.2313 0.0
C2028 C 0.5087 0.78485 0.23215 0.0
C2029 C 0.50749 0.79885 0.24923 0.0
C2030 C 0.46498 0.74567 0.24721 0.0
C2031 C 0.52482 0.7887 0.21507 0.0
H2032 H 0.52116 0.70565 0.20159 0.0
H2033 H 0.47528 0.7403 0.16575 0.0
H2034 H 0.53383 0.7451 0.23786 0.0
H2035 H 0.51328 0.72977 0.24951 0.0
H2036 H 0.53358 0.7169 0.23436 0.0
H2037 H 0.4616 0.77273 0.17709 0.0
H2038 H 0.45729 0.7727 0.20518 0.0
H2039 H 0.47854 0.78769 0.19437 0.0
H2040 H 0.46734 0.77619 0.27664 0.0
H2041 H 0.51812 0.81221 0.24995 0.0
H2042 H 0.47413 0.73076 0.24744 0.0
H2043 H 0.45554 0.74573 0.23249 0.0
H2044 H 0.45403 0.7457 0.26087 0.0
H2045 H 0.53604 0.7753 0.21437 0.0
H2046 H 0.5339 0.80344 0.2177 0.0
H2047 H 0.51693 0.78967 0.1995 0.0
C2048 C 0.25687 0.50947 0.19271 0.0
C2049 C 0.25681 0.49621 0.17502 0.0
C2050 C 0.24039 0.50891 0.20738 0.0
C2051 C 0.22336 0.49487 0.20421 0.0
C2052 C 0.22294 0.48179 0.18613 0.0
C2053 C 0.23975 0.48255 0.17177 0.0
C2054 C 0.24149 0.52297 0.22657 0.0
C2055 C 0.20493 0.46675 0.18218 0.0
C2056 C 0.19411 0.47801 0.25338 0.0
C2057 C 0.17664 0.49154 0.25317 0.0
C2058 C 0.2092 0.47866 0.23729 0.0
C2059 C 0.20667 0.49309 0.22049 0.0
C2060 C 0.1888 0.50645 0.21988 0.0
C2061 C 0.174 0.50558 0.23631 0.0
C2062 C 0.22813 0.46427 0.23857 0.0
C2063 C 0.18554 0.5219 0.20208 0.0
H2064 H 0.27 0.52008 0.1953 0.0
H2065 H 0.23957 0.47237 0.15804 0.0
H2066 H 0.22707 0.53279 0.22767 0.0
H2067 H 0.24223 0.51318 0.24104 0.0
H2068 H 0.25544 0.53355 0.2263 0.0
H2069 H 0.20632 0.45863 0.16672 0.0
H2070 H 0.20447 0.45465 0.19479 0.0
H2071 H 0.1897 0.47532 0.18266 0.0
H2072 H 0.19623 0.46709 0.26636 0.0
H2073 H 0.16046 0.51597 0.23602 0.0
H2074 H 0.24273 0.47381 0.23981 0.0
H2075 H 0.2294 0.45468 0.22401 0.0
H2076 H 0.22737 0.45346 0.25233 0.0
H2077 H 0.19837 0.53378 0.20215 0.0
H2078 H 0.1702 0.53025 0.20327 0.0
H2079 H 0.18623 0.5136 0.1867 0.0
C2080 C 0.79596 0.72761 0.50329 0.0
C2081 C 0.81415 0.72814 0.49076 0.0
C2082 C 0.78141 0.74421 0.5029 0.0
C2083 C 0.78523 0.76184 0.48979 0.0
C2084 C 0.80384 0.76274 0.47751 0.0
C2085 C 0.81806 0.7458 0.47806 0.0
C2086 C 0.76166 0.7426 0.5161 0.0
C2087 C 0.80848 0.78138 0.46348 0.0
C2088 C 0.73659 0.79149 0.47217 0.0
C2089 C 0.73599 0.80827 0.48656 0.0
C2090 C 0.75284 0.77659 0.47274 0.0
C2091 C 0.76901 0.77859 0.48797 0.0
C2092 C 0.7689 0.79586 0.50211 0.0
C2093 C 0.75231 0.81049 0.50129 0.0
C2094 C 0.75233 0.75831 0.45747 0.0
C2095 C 0.78602 0.79857 0.51842 0.0
H2096 H 0.79287 0.71403 0.51317 0.0
H2097 H 0.83219 0.74634 0.46847 0.0
H2098 H 0.76014 0.75662 0.52643 0.0
H2099 H 0.74761 0.74228 0.50567 0.0
H2100 H 0.76148 0.72823 0.5261 0.0
H2101 H 0.82432 0.78034 0.45609 0.0
H2102 H 0.79648 0.78236 0.4508 0.0
H2103 H 0.80754 0.79623 0.47267 0.0
H2104 H 0.72406 0.7897 0.46069 0.0
H2105 H 0.75198 0.82351 0.51236 0.0
H2106 H 0.75065 0.74331 0.46629 0.0
H2107 H 0.76736 0.75746 0.44858 0.0
H2108 H 0.73913 0.75955 0.44603 0.0
H2109 H 0.78537 0.78539 0.52989 0.0
H2110 H 0.7845 0.81365 0.52718 0.0
H2111 H 0.80175 0.79805 0.51081 0.0
C2112 C 0.73299 0.1896 0.50346 0.0
C2113 C 0.73394 0.17113 0.49138 0.0
C2114 C 0.74935 0.20441 0.50293 0.0
C2115 C 0.76723 0.20052 0.49017 0.0
C2116 C 0.76856 0.18164 0.47834 0.0
C2117 C 0.7518 0.1672 0.47898 0.0
C2118 C 0.74725 0.22447 0.51558 0.0
C2119 C 0.7875 0.17689 0.46476 0.0
C2120 C 0.79687 0.24897 0.47197 0.0
C2121 C 0.81331 0.25008 0.48671 0.0
C2122 C 0.78206 0.23263 0.47265 0.0
C2123 C 0.78386 0.21687 0.48832 0.0
C2124 C 0.80079 0.21751 0.50286 0.0
C2125 C 0.81528 0.23422 0.50196 0.0
C2126 C 0.7641 0.23261 0.457 0.0
C2127 C 0.80331 0.20082 0.51962 0.0
H2128 H 0.71922 0.19273 0.51308 0.0
H2129 H 0.75267 0.15285 0.46974 0.0
H2130 H 0.76099 0.22637 0.52621 0.0
H2131 H 0.74706 0.23825 0.5048 0.0
H2132 H 0.73264 0.22477 0.52522 0.0
H2133 H 0.78675 0.1609 0.45767 0.0
H2134 H 0.78861 0.18864 0.45186 0.0
H2135 H 0.80216 0.17817 0.47421 0.0
H2136 H 0.79526 0.26117 0.46012 0.0
H2137 H 0.82805 0.23495 0.51329 0.0
H2138 H 0.74889 0.2343 0.46547 0.0
H2139 H 0.7636 0.21739 0.4484 0.0
H2140 H 0.76543 0.24558 0.44532 0.0
H2141 H 0.78986 0.20156 0.53076 0.0
H2142 H 0.81817 0.20272 0.52869 0.0
H2143 H 0.80315 0.18491 0.51235 0.0
C2144 C 0.25529 0.79366 0.51079 0.0
C2145 C 0.25542 0.81053 0.49652 0.0
C2146 C 0.24005 0.77776 0.50945 0.0
C2147 C 0.22439 0.77889 0.4936 0.0
C2148 C 0.22412 0.79613 0.47943 0.0
C2149 C 0.23976 0.81171 0.48098 0.0
C2150 C 0.24097 0.7595 0.5247 0.0
C2151 C 0.2075 0.79795 0.4625 0.0
C2152 C 0.19913 0.72732 0.47725 0.0
C2153 C 0.18049 0.72747 0.4891 0.0
C2154 C 0.21343 0.74412 0.47836 0.0
C2155 C 0.20882 0.76158 0.49145 0.0
C2156 C 0.18982 0.76203 0.50312 0.0
C2157 C 0.17591 0.74487 0.50191 0.0
C2158 C 0.23367 0.74297 0.46588 0.0
C2159 C 0.1843 0.78052 0.51705 0.0
H2160 H 0.26739 0.79265 0.52282 0.0
H2161 H 0.23973 0.8248 0.47 0.0
H2162 H 0.22585 0.75812 0.53335 0.0
H2163 H 0.24331 0.74456 0.51591 0.0
H2164 H 0.25393 0.7612 0.53636 0.0
H2165 H 0.20886 0.81287 0.45344 0.0
H2166 H 0.20886 0.78453 0.45138 0.0
H2167 H 0.19155 0.79716 0.46964 0.0
H2168 H 0.20276 0.71388 0.46733 0.0
H2169 H 0.16144 0.74511 0.51099 0.0
H2170 H 0.24736 0.74327 0.47676 0.0
H2171 H 0.23506 0.75689 0.4554 0.0
H2172 H 0.23464 0.72848 0.45609 0.0
H2173 H 0.19608 0.78199 0.5299 0.0
H2174 H 0.16841 0.77893 0.52422 0.0
H2175 H 0.18483 0.79536 0.50782 0.0
C2176 C 0.1722 0.24803 0.48672 0.0
C2177 C 0.1739 0.26547 0.50017 0.0
C2178 C 0.18716 0.23174 0.48737 0.0
C2179 C 0.20425 0.2331 0.50166 0.0
C2180 C 0.20565 0.25033 0.51573 0.0
C2181 C 0.19041 0.26628 0.51486 0.0
C2182 C 0.18508 0.21348 0.47225 0.0
C2183 C 0.22374 0.2524 0.53108 0.0
C2184 C 0.23832 0.18487 0.51184 0.0
C2185 C 0.25501 0.18837 0.4978 0.0
C2186 C 0.22155 0.19926 0.51327 0.0
C2187 C 0.22171 0.21759 0.50053 0.0
C2188 C 0.23872 0.22132 0.48662 0.0
C2189 C 0.25509 0.20662 0.48535 0.0
C2190 C 0.20357 0.19476 0.52818 0.0
C2191 C 0.23959 0.24082 0.47297 0.0
H2192 H 0.15936 0.24724 0.47548 0.0
H2193 H 0.19176 0.27968 0.52538 0.0
H2194 H 0.19813 0.21398 0.46062 0.0
H2195 H 0.18635 0.19831 0.48085 0.0
H2196 H 0.16988 0.21377 0.46355 0.0
H2197 H 0.22164 0.26589 0.54204 0.0
H2198 H 0.22545 0.23776 0.54048 0.0
H2199 H 0.23867 0.25468 0.52226 0.0
H2200 H 0.23817 0.17072 0.5214 0.0
H2201 H 0.26802 0.20946 0.47455 0.0
H2202 H 0.18858 0.19369 0.51923 0.0
H2203 H 0.20183 0.20789 0.5396 0.0
H2204 H 0.20588 0.17986 0.53706 0.0
H2205 H 0.22573 0.24126 0.46231 0.0
H2206 H 0.25412 0.2415 0.46322 0.0
H2207 H 0.23893 0.25515 0.48297 0.0
C2208 C 0.04504 0.35032 0.11104 0.0
C2209 C 0.0484 0.33521 0.12678 0.0
C2210 C 0.05846 0.35148 0.09347 0.0
C2211 C 0.07587 0.33757 0.09204 0.0
C2212 C 0.08009 0.32331 0.10867 0.0
C2213 C 0.06612 0.32209 0.1257 0.0
C2214 C 0.05322 0.36659 0.07587 0.0
C2215 C 0.09881 0.30861 0.10801 0.0
C2216 C 0.09596 0.31816 0.03936 0.0
C2217 C 0.11419 0.33031 0.03667 0.0
C2218 C 0.08284 0.32113 0.05685 0.0
C2219 C 0.08841 0.33621 0.07233 0.0
C2220 C 0.10663 0.34879 0.06954 0.0
C2221 C 0.11919 0.34587 0.05155 0.0
C2222 C 0.06327 0.30773 0.059 0.0
C2223 C 0.11331 0.36468 0.08595 0.0
H2224 H 0.03124 0.36037 0.11186 0.0
H2225 H 0.06882 0.31056 0.13801 0.0
H2226 H 0.06739 0.37564 0.07109 0.0
H2227 H 0.04786 0.35755 0.06188 0.0
H2228 H 0.0406 0.37785 0.08038 0.0
H2229 H 0.10131 0.30042 0.12328 0.0
H2230 H 0.09633 0.29653 0.09561 0.0
H2231 H 0.11335 0.31742 0.10392 0.0
H2232 H 0.09193 0.30631 0.02772 0.0
H2233 H 0.13335 0.35522 0.04951 0.0
H2234 H 0.04933 0.31784 0.06206 0.0
H2235 H 0.06499 0.29694 0.07265 0.0
H2236 H 0.06019 0.29812 0.04469 0.0
H2237 H 0.10008 0.37546 0.08974 0.0
H2238 H 0.12703 0.37421 0.08074 0.0
H2239 H 0.11759 0.35635 0.10072 0.0
C2240 C 0.62884 0.06643 0.12525 0.0
C2241 C 0.64391 0.05087 0.12084 0.0
C2242 C 0.6254 0.0832 0.11121 0.0
C2243 C 0.63692 0.08403 0.09213 0.0
C2244 C 0.65155 0.06787 0.08728 0.0
C2245 C 0.65508 0.05165 0.10183 0.0
C2246 C 0.61006 0.10039 0.11713 0.0
C2247 C 0.66381 0.06793 0.06686 0.0
C2248 C 0.62069 0.11722 0.04518 0.0
C2249 C 0.63633 0.1328 0.0455 0.0
C2250 C 0.6199 0.10172 0.06096 0.0
C2251 C 0.63476 0.10227 0.07762 0.0
C2252 C 0.64936 0.11909 0.07892 0.0
C2253 C 0.65019 0.13398 0.06264 0.0
C2254 C 0.60433 0.08385 0.05883 0.0
C2255 C 0.66506 0.12059 0.09675 0.0
H2256 H 0.62028 0.06591 0.14003 0.0
H2257 H 0.66657 0.03951 0.09831 0.0
H2258 H 0.61871 0.11543 0.11934 0.0
H2259 H 0.59848 0.10293 0.10429 0.0
H2260 H 0.60138 0.09673 0.1319 0.0
H2261 H 0.67328 0.05335 0.06476 0.0
H2262 H 0.6529 0.0695 0.05328 0.0
H2263 H 0.67463 0.08165 0.06651 0.0
H2264 H 0.6101 0.11621 0.0318 0.0
H2265 H 0.66219 0.14614 0.06292 0.0
H2266 H 0.59641 0.08067 0.07407 0.0
H2267 H 0.61287 0.06929 0.05424 0.0
H2268 H 0.59213 0.08717 0.04671 0.0
H2269 H 0.65714 0.11802 0.11213 0.0
H2270 H 0.67313 0.13613 0.09711 0.0
H2271 H 0.67718 0.10813 0.09493 0.0
C2272 C 0.93352 0.63353 0.11266 0.0
C2273 C 0.93155 0.64899 0.12829 0.0
C2274 C 0.9185 0.63188 0.09648 0.0
C2275 C 0.90087 0.64559 0.09643 0.0
C2276 C 0.89824 0.66036 0.11293 0.0
C2277 C 0.91382 0.66212 0.12847 0.0
C2278 C 0.9221 0.61631 0.07885 0.0
C2279 C 0.87936 0.67484 0.11377 0.0
C2280 C 0.87491 0.6617 0.04517 0.0
C2281 C 0.85718 0.64857 0.0447 0.0
C2282 C 0.88962 0.66031 0.06157 0.0
C2283 C 0.88615 0.64589 0.07823 0.0
C2284 C 0.86822 0.63259 0.07787 0.0
C2285 C 0.85408 0.63386 0.06088 0.0
C2286 C 0.90882 0.6744 0.06111 0.0
C2287 C 0.86371 0.61748 0.09568 0.0
H2288 H 0.94733 0.62347 0.1125 0.0
H2289 H 0.91222 0.67393 0.14073 0.0
H2290 H 0.90786 0.60651 0.07632 0.0
H2291 H 0.92514 0.62498 0.06396 0.0
H2292 H 0.93571 0.60576 0.08202 0.0
H2293 H 0.87844 0.68363 0.12889 0.0
H2294 H 0.88024 0.68642 0.1007 0.0
H2295 H 0.86459 0.6657 0.11168 0.0
H2296 H 0.87745 0.67289 0.0325 0.0
H2297 H 0.84031 0.62375 0.06052 0.0
H2298 H 0.92335 0.66483 0.06291 0.0
H2299 H 0.90827 0.68561 0.07451 0.0
H2300 H 0.90996 0.68358 0.04625 0.0
H2301 H 0.87726 0.60671 0.09806 0.0
H2302 H 0.84935 0.60788 0.09276 0.0
H2303 H 0.86153 0.62642 0.11056 0.0
C2304 C 0.3224 0.86158 0.0542 0.0
C2305 C 0.33588 0.86187 0.03673 0.0
C2306 C 0.32529 0.87565 0.07097 0.0
C2307 C 0.34171 0.89072 0.06993 0.0
C2308 C 0.35588 0.89055 0.0527 0.0
C2309 C 0.35293 0.87591 0.03637 0.0
C2310 C 0.31016 0.87499 0.08934 0.0
C2311 C 0.37332 0.90663 0.05087 0.0
C2312 C 0.32894 0.94105 0.09921 0.0
C2313 C 0.34063 0.93859 0.11778 0.0
C2314 C 0.33 0.92602 0.08308 0.0
C2315 C 0.34263 0.90784 0.08585 0.0
C2316 C 0.35489 0.90552 0.10435 0.0
C2317 C 0.35394 0.92111 0.12004 0.0
C2318 C 0.31707 0.92931 0.06335 0.0
C2319 C 0.36821 0.88615 0.10801 0.0
H2320 H 0.30934 0.85057 0.05458 0.0
H2321 H 0.3633 0.87623 0.02279 0.0
H2322 H 0.31894 0.87509 0.10446 0.0
H2323 H 0.30001 0.88923 0.08908 0.0
H2324 H 0.29986 0.86084 0.08891 0.0
H2325 H 0.38424 0.90305 0.03765 0.0
H2326 H 0.36637 0.92245 0.04819 0.0
H2327 H 0.38253 0.90744 0.06571 0.0
H2328 H 0.31881 0.95469 0.09735 0.0
H2329 H 0.36289 0.91915 0.13447 0.0
H2330 H 0.30444 0.91725 0.06249 0.0
H2331 H 0.3271 0.92739 0.04915 0.0
H2332 H 0.30964 0.94515 0.06285 0.0
H2333 H 0.35783 0.87217 0.10964 0.0
H2334 H 0.37805 0.8875 0.12243 0.0
H2335 H 0.37868 0.88325 0.09431 0.0
C2336 C 0.06939 0.66933 0.86746 0.0
C2337 C 0.05213 0.65559 0.86717 0.0
C2338 C 0.08497 0.66764 0.88301 0.0
C2339 C 0.08277 0.6523 0.89905 0.0
C2340 C 0.06562 0.63802 0.89853 0.0
C2341 C 0.05062 0.63963 0.88233 0.0
C2342 C 0.10337 0.68274 0.88267 0.0
C2343 C 0.06247 0.62183 0.91567 0.0
C2344 C 0.12976 0.64084 0.93436 0.0
C2345 C 0.12619 0.65493 0.95098 0.0
C2346 C 0.11573 0.63972 0.91727 0.0
C2347 C 0.09744 0.6525 0.91727 0.0
C2348 C 0.09349 0.66628 0.93438 0.0
C2349 C 0.1081 0.66757 0.95087 0.0
C2350 C 0.12075 0.62533 0.899 0.0
C2351 C 0.07388 0.67976 0.93521 0.0
H2352 H 0.07063 0.68154 0.85556 0.0
H2353 H 0.03716 0.6291 0.88212 0.0
H2354 H 0.1021 0.69387 0.89609 0.0
H2355 H 0.11842 0.67402 0.88452 0.0
H2356 H 0.10403 0.69201 0.86784 0.0
H2357 H 0.04917 0.61098 0.91218 0.0
H2358 H 0.07699 0.61237 0.91791 0.0
H2359 H 0.0592 0.62996 0.93082 0.0
H2360 H 0.14383 0.63114 0.93444 0.0
H2361 H 0.10522 0.67827 0.96388 0.0
H2362 H 0.12267 0.6348 0.88442 0.0
H2363 H 0.10755 0.61422 0.89623 0.0
H2364 H 0.13539 0.6161 0.90165 0.0
H2365 H 0.07413 0.6914 0.92218 0.0
H2366 H 0.07242 0.68844 0.95036 0.0
H2367 H 0.05965 0.66983 0.93307 0.0
C2368 C 0.31852 0.07582 0.86094 0.0
C2369 C 0.33268 0.05913 0.85808 0.0
C2370 C 0.32079 0.08982 0.87786 0.0
C2371 C 0.33723 0.08663 0.89261 0.0
C2372 C 0.352 0.07021 0.8894 0.0
C2373 C 0.34971 0.0568 0.87195 0.0
C2374 C 0.30503 0.10748 0.88043 0.0
C2375 C 0.36943 0.066 0.90505 0.0
C2376 C 0.3476 0.13004 0.93261 0.0
C2377 C 0.33428 0.12385 0.94909 0.0
C2378 C 0.34906 0.11792 0.91412 0.0
C2379 C 0.33739 0.09896 0.91249 0.0
C2380 C 0.3247 0.09222 0.92955 0.0
C2381 C 0.32306 0.10491 0.9475 0.0
C2382 C 0.36235 0.12582 0.89604 0.0
C2383 C 0.31243 0.07182 0.92867 0.0
H2384 H 0.30549 0.07778 0.85004 0.0
H2385 H 0.36062 0.04383 0.86976 0.0
H2386 H 0.29471 0.10418 0.89415 0.0
H2387 H 0.31327 0.12258 0.88359 0.0
H2388 H 0.29493 0.10943 0.86626 0.0
H2389 H 0.38081 0.05405 0.89921 0.0
H2390 H 0.37811 0.08073 0.90871 0.0
H2391 H 0.36249 0.06021 0.92003 0.0
H2392 H 0.3562 0.14476 0.93384 0.0
H2393 H 0.31296 0.1 0.96039 0.0
H2394 H 0.35201 0.12966 0.88246 0.0
H2395 H 0.37344 0.1134 0.89074 0.0
H2396 H 0.37151 0.14011 0.90031 0.0
H2397 H 0.29997 0.07294 0.91644 0.0
H2398 H 0.30483 0.06798 0.94396 0.0
H2399 H 0.32297 0.05861 0.92419 0.0
C2400 C 0.85205 0.34225 0.92961 0.0
C2401 C 0.85655 0.32763 0.94554 0.0
C2402 C 0.86479 0.3436 0.91156 0.0
C2403 C 0.88274 0.33046 0.90982 0.0
C2404 C 0.88768 0.31615 0.92622 0.0
C2405 C 0.87433 0.31468 0.94373 0.0
C2406 C 0.85871 0.35859 0.89412 0.0
C2407 C 0.907 0.30226 0.9252 0.0
C2408 C 0.90654 0.31462 0.85749 0.0
C2409 C 0.92403 0.32802 0.85629 0.0
C2410 C 0.89225 0.31612 0.87425 0.0
C2411 C 0.89599 0.33091 0.89054 0.0
C2412 C 0.91335 0.34487 0.88912 0.0
C2413 C 0.92703 0.34347 0.87178 0.0
C2414 C 0.87357 0.30138 0.8749 0.0
C2415 C 0.91815 0.36047 0.90644 0.0
H2416 H 0.83822 0.35219 0.93098 0.0
H2417 H 0.87793 0.30353 0.95618 0.0
H2418 H 0.87193 0.36948 0.89062 0.0
H2419 H 0.85543 0.34957 0.87949 0.0
H2420 H 0.84455 0.36807 0.89814 0.0
H2421 H 0.90941 0.29313 0.93995 0.0
H2422 H 0.90551 0.29101 0.9119 0.0
H2423 H 0.92124 0.31197 0.92225 0.0
H2424 H 0.90414 0.3028 0.84538 0.0
H2425 H 0.94067 0.35372 0.8709 0.0
H2426 H 0.85889 0.31031 0.87814 0.0
H2427 H 0.87564 0.28983 0.88786 0.0
H2428 H 0.87159 0.29256 0.8599 0.0
H2429 H 0.90403 0.37011 0.91008 0.0
H2430 H 0.93134 0.37118 0.90225 0.0
H2431 H 0.92243 0.35182 0.92103 0.0
C2432 C 0.66675 0.85198 0.92782 0.0
C2433 C 0.65133 0.85249 0.94362 0.0
C2434 C 0.66659 0.86668 0.91134 0.0
C2435 C 0.65098 0.88262 0.91104 0.0
C2436 C 0.63484 0.88266 0.92646 0.0
C2437 C 0.63506 0.86737 0.94245 0.0
C2438 C 0.68372 0.86576 0.89485 0.0
C2439 C 0.61818 0.89964 0.9269 0.0
C2440 C 0.66816 0.93417 0.88627 0.0
C2441 C 0.6577 0.93359 0.86683 0.0
C2442 C 0.66565 0.91789 0.90098 0.0
C2443 C 0.65281 0.90036 0.89588 0.0
C2444 C 0.64227 0.89964 0.87623 0.0
C2445 C 0.64462 0.91644 0.86202 0.0
C2446 C 0.6768 0.91945 0.92197 0.0
C2447 C 0.62889 0.88095 0.87006 0.0
H2448 H 0.67925 0.84035 0.92863 0.0
H2449 H 0.62322 0.86788 0.95476 0.0
H2450 H 0.67684 0.86712 0.87882 0.0
H2451 H 0.69466 0.87923 0.89701 0.0
H2452 H 0.69296 0.85092 0.89576 0.0
H2453 H 0.6057 0.89636 0.93873 0.0
H2454 H 0.62563 0.91498 0.9308 0.0
H2455 H 0.61071 0.90133 0.91119 0.0
H2456 H 0.67812 0.94751 0.89009 0.0
H2457 H 0.63662 0.91591 0.84693 0.0
H2458 H 0.68838 0.90646 0.92352 0.0
H2459 H 0.66527 0.91776 0.93501 0.0
H2460 H 0.68524 0.93467 0.92391 0.0
H2461 H 0.63871 0.86648 0.86986 0.0
H2462 H 0.62154 0.88295 0.85429 0.0
H2463 H 0.61624 0.87843 0.88185 0.0
C2464 C 0.12236 0.07415 0.31283 0.0
C2465 C 0.12327 0.05695 0.32661 0.0
C2466 C 0.10706 0.08988 0.31534 0.0
C2467 C 0.09183 0.08786 0.33152 0.0
C2468 C 0.09306 0.07078 0.34586 0.0
C2469 C 0.10905 0.05567 0.34342 0.0
C2470 C 0.10668 0.1082 0.30016 0.0
C2471 C 0.07677 0.06775 0.36292 0.0
C2472 C 0.05649 0.13436 0.34497 0.0
C2473 C 0.03913 0.1305 0.33187 0.0
C2474 C 0.07392 0.1207 0.34495 0.0
C2475 C 0.07354 0.10245 0.33211 0.0
C2476 C 0.05576 0.09826 0.31928 0.0
C2477 C 0.03893 0.11254 0.31904 0.0
C2478 C 0.0929 0.12602 0.35829 0.0
C2479 C 0.05447 0.07866 0.30581 0.0
H2480 H 0.13352 0.07518 0.29992 0.0
H2481 H 0.10969 0.04223 0.35396 0.0
H2482 H 0.09286 0.10678 0.28955 0.0
H2483 H 0.10508 0.12329 0.30886 0.0
H2484 H 0.12115 0.1089 0.29031 0.0
H2485 H 0.08083 0.05456 0.3737 0.0
H2486 H 0.07497 0.08235 0.37235 0.0
H2487 H 0.06124 0.06436 0.35559 0.0
H2488 H 0.05664 0.14833 0.3548 0.0
H2489 H 0.02537 0.10945 0.3091 0.0
H2490 H 0.10698 0.12779 0.34807 0.0
H2491 H 0.09625 0.11302 0.36948 0.0
H2492 H 0.09069 0.14081 0.36739 0.0
H2493 H 0.06695 0.07901 0.29359 0.0
H2494 H 0.03896 0.07707 0.29783 0.0
H2495 H 0.05718 0.06444 0.31563 0.0
C2496 C 0.93447 0.10791 0.3505 0.0
C2497 C 0.93149 0.1237 0.33537 0.0
C2498 C 0.92026 0.09099 0.35207 0.0
C2499 C 0.90245 0.09031 0.3386 0.0
C2500 C 0.89875 0.10698 0.32425 0.0
C2501 C 0.91351 0.1233 0.32258 0.0
C2502 C 0.92498 0.07327 0.36722 0.0
C2503 C 0.87965 0.10715 0.31003 0.0
C2504 C 0.87882 0.03846 0.3209 0.0
C2505 C 0.86099 0.0369 0.33382 0.0
C2506 C 0.89291 0.05532 0.32298 0.0
C2507 C 0.88874 0.07134 0.33795 0.0
C2508 C 0.87085 0.06977 0.3512 0.0
C2509 C 0.85731 0.05236 0.34917 0.0
C2510 C 0.91209 0.05616 0.3089 0.0
C2511 C 0.86561 0.08682 0.36694 0.0
H2512 H 0.94847 0.1082 0.36029 0.0
H2513 H 0.91112 0.13567 0.31103 0.0
H2514 H 0.91091 0.06956 0.3769 0.0
H2515 H 0.92902 0.05884 0.35819 0.0
H2516 H 0.93833 0.07707 0.3779 0.0
H2517 H 0.87781 0.1224 0.30163 0.0
H2518 H 0.88108 0.09443 0.29812 0.0
H2519 H 0.86514 0.10405 0.31928 0.0
H2520 H 0.88184 0.02636 0.30921 0.0
H2521 H 0.84348 0.05119 0.35913 0.0
H2522 H 0.92652 0.05853 0.31849 0.0
H2523 H 0.91079 0.06974 0.29796 0.0
H2524 H 0.914 0.04157 0.2994 0.0
H2525 H 0.87927 0.08983 0.37742 0.0
H2526 H 0.85175 0.0827 0.37681 0.0
H2527 H 0.86219 0.10174 0.35848 0.0
C2528 C 0.87796 0.93034 0.34686 0.0
C2529 C 0.86337 0.92874 0.33037 0.0
C2530 C 0.89399 0.91525 0.34924 0.0
C2531 C 0.89491 0.8979 0.3352 0.0
C2532 C 0.87934 0.89559 0.31938 0.0
C2533 C 0.86398 0.91126 0.31692 0.0
C2534 C 0.91063 0.91855 0.36593 0.0
C2535 C 0.87939 0.87701 0.3045 0.0
C2536 C 0.94723 0.87275 0.32142 0.0
C2537 C 0.94718 0.85476 0.33419 0.0
C2538 C 0.93063 0.88727 0.3222 0.0
C2539 C 0.91322 0.88332 0.33558 0.0
C2540 C 0.91305 0.86512 0.34851 0.0
C2541 C 0.93026 0.85119 0.34792 0.0
C2542 C 0.93168 0.90678 0.30859 0.0
C2543 C 0.89447 0.86008 0.36248 0.0
H2544 H 0.87752 0.94396 0.35717 0.0
H2545 H 0.85251 0.90995 0.3043 0.0
H2546 H 0.91271 0.90407 0.37547 0.0
H2547 H 0.92597 0.92195 0.35824 0.0
H2548 H 0.90671 0.93184 0.37664 0.0
H2549 H 0.86476 0.87618 0.29492 0.0
H2550 H 0.89303 0.87821 0.29363 0.0
H2551 H 0.88112 0.86207 0.31343 0.0
H2552 H 0.96047 0.87565 0.311 0.0
H2553 H 0.93023 0.83721 0.35774 0.0
H2554 H 0.92918 0.92107 0.31836 0.0
H2555 H 0.91895 0.90635 0.29661 0.0
H2556 H 0.94703 0.90828 0.30031 0.0
H2557 H 0.8913 0.87337 0.37338 0.0
H2558 H 0.89701 0.84556 0.37192 0.0
H2559 H 0.88015 0.85793 0.35265 0.0
C2560 C 0.10429 0.94735 0.32198 0.0
C2561 C 0.12296 0.94857 0.3337 0.0
C2562 C 0.09044 0.93035 0.32442 0.0
C2563 C 0.0957 0.91386 0.3385 0.0
C2564 C 0.11431 0.91522 0.35076 0.0
C2565 C 0.12762 0.93277 0.34841 0.0
C2566 C 0.07049 0.92975 0.31143 0.0
C2567 C 0.12065 0.89772 0.36557 0.0
C2568 C 0.05133 0.87571 0.3511 0.0
C2569 C 0.05392 0.86079 0.33503 0.0
C2570 C 0.06532 0.89278 0.35303 0.0
C2571 C 0.0825 0.89452 0.33888 0.0
C2572 C 0.08588 0.87869 0.32353 0.0
C2573 C 0.07136 0.86219 0.32158 0.0
C2574 C 0.06095 0.90957 0.3693 0.0
C2575 C 0.10432 0.87967 0.3085 0.0
H2576 H 0.10054 0.95972 0.31079 0.0
H2577 H 0.14211 0.93369 0.35743 0.0
H2578 H 0.07148 0.91681 0.2997 0.0
H2579 H 0.05669 0.92649 0.32166 0.0
H2580 H 0.06769 0.94476 0.30287 0.0
H2581 H 0.1346 0.90198 0.37526 0.0
H2582 H 0.10742 0.89364 0.37624 0.0
H2583 H 0.12446 0.88337 0.35632 0.0
H2584 H 0.03776 0.87465 0.36143 0.0
H2585 H 0.07348 0.8505 0.3093 0.0
H2586 H 0.0559 0.92426 0.36125 0.0
H2587 H 0.07543 0.91331 0.37834 0.0
H2588 H 0.04838 0.90478 0.38051 0.0
H2589 H 0.10208 0.89292 0.29732 0.0
H2590 H 0.10612 0.8649 0.29927 0.0
H2591 H 0.11917 0.88266 0.31726 0.0
C2592 C 0.05426 0.85339 0.6718 0.0
C2593 C 0.03802 0.85384 0.65686 0.0
C2594 C 0.07085 0.86797 0.67092 0.0
C2595 C 0.07073 0.88378 0.65516 0.0
C2596 C 0.05462 0.88395 0.63972 0.0
C2597 C 0.03861 0.86874 0.64057 0.0
C2598 C 0.08811 0.86691 0.68728 0.0
C2599 C 0.0536 0.9009 0.62304 0.0
C2600 C 0.09722 0.93512 0.67011 0.0
C2601 C 0.11586 0.93423 0.65833 0.0
C2602 C 0.08222 0.91899 0.66883 0.0
C2603 C 0.08631 0.9012 0.65598 0.0
C2604 C 0.10521 0.90014 0.64415 0.0
C2605 C 0.11964 0.91689 0.6452 0.0
C2606 C 0.06199 0.921 0.68122 0.0
C2607 C 0.11035 0.88114 0.63078 0.0
H2608 H 0.05388 0.84174 0.6843 0.0
H2609 H 0.02593 0.86921 0.62911 0.0
H2610 H 0.1038 0.86781 0.67962 0.0
H2611 H 0.08679 0.88056 0.69812 0.0
H2612 H 0.0873 0.85222 0.69677 0.0
H2613 H 0.04081 0.89803 0.61143 0.0
H2614 H 0.05083 0.9164 0.63065 0.0
H2615 H 0.06879 0.90197 0.61447 0.0
H2616 H 0.09424 0.94864 0.68013 0.0
H2617 H 0.13417 0.91615 0.63624 0.0
H2618 H 0.06095 0.90818 0.69305 0.0
H2619 H 0.04823 0.91935 0.67053 0.0
H2620 H 0.06078 0.93635 0.68955 0.0
H2621 H 0.11072 0.86681 0.64079 0.0
H2622 H 0.12578 0.88272 0.62266 0.0
H2623 H 0.09791 0.87871 0.61873 0.0
C2624 C 0.1281 0.05574 0.62891 0.0
C2625 C 0.12433 0.04227 0.646 0.0
C2626 C 0.11535 0.07352 0.62551 0.0
C2627 C 0.09815 0.07742 0.63917 0.0
C2628 C 0.09389 0.06339 0.656 0.0
C2629 C 0.10724 0.04617 0.65938 0.0
C2630 C 0.12067 0.08846 0.60778 0.0
C2631 C 0.07539 0.0667 0.67062 0.0
C2632 C 0.07498 0.13097 0.65054 0.0
C2633 C 0.05622 0.1302 0.63896 0.0
C2634 C 0.08968 0.11456 0.64934 0.0
C2635 C 0.08508 0.09667 0.63683 0.0
C2636 C 0.0666 0.09629 0.6243 0.0
C2637 C 0.05247 0.1133 0.62529 0.0
C2638 C 0.10951 0.11584 0.66245 0.0
C2639 C 0.06092 0.07729 0.61116 0.0
H2640 H 0.14139 0.05272 0.6186 0.0
H2641 H 0.10415 0.03557 0.67243 0.0
H2642 H 0.10674 0.09092 0.59752 0.0
H2643 H 0.12504 0.10406 0.6144 0.0
H2644 H 0.13394 0.08264 0.59796 0.0
H2645 H 0.07332 0.05342 0.68184 0.0
H2646 H 0.07768 0.08139 0.67983 0.0
H2647 H 0.06065 0.06855 0.66138 0.0
H2648 H 0.07791 0.1442 0.66096 0.0
H2649 H 0.03785 0.11273 0.61644 0.0
H2650 H 0.12343 0.11105 0.653 0.0
H2651 H 0.1083 0.10483 0.67598 0.0
H2652 H 0.11223 0.13197 0.6687 0.0
H2653 H 0.07461 0.07201 0.60167 0.0
H2654 H 0.04749 0.08051 0.60039 0.0
H2655 H 0.0565 0.06408 0.62173 0.0
C2656 C 0.94962 0.11525 0.65705 0.0
C2657 C 0.94944 0.13235 0.64311 0.0
C2658 C 0.93319 0.10052 0.65712 0.0
C2659 C 0.91586 0.10337 0.64335 0.0
C2660 C 0.9156 0.12061 0.62919 0.0
C2661 C 0.9326 0.13477 0.62902 0.0
C2662 C 0.93428 0.08204 0.67209 0.0
C2663 C 0.8971 0.12445 0.61472 0.0
C2664 C 0.88041 0.05593 0.63489 0.0
C2665 C 0.86546 0.05893 0.65083 0.0
C2666 C 0.89674 0.07056 0.63186 0.0
C2667 C 0.89761 0.08882 0.64468 0.0
C2668 C 0.88182 0.09242 0.66002 0.0
C2669 C 0.86612 0.07724 0.66313 0.0
C2670 C 0.91361 0.06596 0.61573 0.0
C2671 C 0.88188 0.11198 0.67359 0.0
H2672 H 0.96279 0.11323 0.66776 0.0
H2673 H 0.93245 0.14806 0.61829 0.0
H2674 H 0.92147 0.08323 0.68392 0.0
H2675 H 0.93193 0.06707 0.66335 0.0
H2676 H 0.94959 0.08124 0.68056 0.0
H2677 H 0.89964 0.13822 0.60421 0.0
H2678 H 0.89411 0.11034 0.60484 0.0
H2679 H 0.88269 0.12725 0.62422 0.0
H2680 H 0.87991 0.04168 0.62546 0.0
H2681 H 0.85437 0.07964 0.67531 0.0
H2682 H 0.92887 0.06331 0.62386 0.0
H2683 H 0.91573 0.07962 0.60504 0.0
H2684 H 0.90988 0.05181 0.6061 0.0
H2685 H 0.89556 0.11157 0.68447 0.0
H2686 H 0.86727 0.11346 0.68313 0.0
H2687 H 0.88354 0.12627 0.66364 0.0
C2688 C 0.91409 0.86652 0.67613 0.0
C2689 C 0.93068 0.86508 0.66165 0.0
C2690 C 0.89909 0.88265 0.67459 0.0
C2691 C 0.90125 0.89811 0.65865 0.0
C2692 C 0.9179 0.89661 0.64386 0.0
C2693 C 0.93224 0.87983 0.64532 0.0
C2694 C 0.88116 0.88335 0.69023 0.0
C2695 C 0.92106 0.91316 0.62706 0.0
C2696 C 0.85494 0.93368 0.64545 0.0
C2697 C 0.85903 0.9511 0.65837 0.0
C2698 C 0.86843 0.91614 0.64552 0.0
C2699 C 0.88676 0.91648 0.65825 0.0
C2700 C 0.89116 0.93427 0.67098 0.0
C2701 C 0.87702 0.95123 0.67116 0.0
C2702 C 0.8629 0.89715 0.63229 0.0
C2703 C 0.91086 0.93547 0.68431 0.0
H2704 H 0.91281 0.85493 0.68863 0.0
H2705 H 0.94519 0.87874 0.63423 0.0
H2706 H 0.88284 0.89736 0.70054 0.0
H2707 H 0.86589 0.88485 0.68183 0.0
H2708 H 0.88064 0.86906 0.70034 0.0
H2709 H 0.93447 0.90937 0.61645 0.0
H2710 H 0.9066 0.91484 0.6174 0.0
H2711 H 0.9241 0.92865 0.63459 0.0
H2712 H 0.84094 0.93358 0.63565 0.0
H2713 H 0.88028 0.96485 0.68097 0.0
H2714 H 0.86146 0.88303 0.64252 0.0
H2715 H 0.87564 0.89392 0.62079 0.0
H2716 H 0.84788 0.89929 0.62355 0.0
H2717 H 0.91062 0.92289 0.69644 0.0
H2718 H 0.91251 0.95093 0.69237 0.0
H2719 H 0.92498 0.93283 0.67434 0.0
C2720 C 0.33489 0.06093 0.14309 0.0
C2721 C 0.34868 0.04379 0.1414 0.0
C2722 C 0.33525 0.07724 0.12821 0.0
C2723 C 0.3493 0.07596 0.11092 0.0
C2724 C 0.36434 0.0595 0.11005 0.0
C2725 C 0.36402 0.04368 0.12551 0.0
C2726 C 0.3194 0.09489 0.13006 0.0
C2727 C 0.37938 0.0574 0.09174 0.0
C2728 C 0.3259 0.09733 0.06044 0.0
C2729 C 0.3364 0.11661 0.05829 0.0
C2730 C 0.33062 0.08365 0.07708 0.0
C2731 C 0.34582 0.08968 0.09229 0.0
C2732 C 0.3567 0.10903 0.09007 0.0
C2733 C 0.35204 0.1222 0.07288 0.0
C2734 C 0.31902 0.06291 0.07858 0.0
C2735 C 0.37263 0.11617 0.10624 0.0
H2736 H 0.32315 0.06109 0.15551 0.0
H2737 H 0.37462 0.03035 0.12412 0.0
H2738 H 0.32688 0.1103 0.12655 0.0
H2739 H 0.30659 0.09245 0.1184 0.0
H2740 H 0.31224 0.09559 0.14603 0.0
H2741 H 0.39218 0.04593 0.09507 0.0
H2742 H 0.37056 0.05189 0.07766 0.0
H2743 H 0.38654 0.07283 0.08773 0.0
H2744 H 0.31396 0.09292 0.04903 0.0
H2745 H 0.36006 0.1372 0.07128 0.0
H2746 H 0.3089 0.06282 0.09284 0.0
H2747 H 0.3304 0.04972 0.08015 0.0
H2748 H 0.3089 0.05991 0.0646 0.0
H2749 H 0.36455 0.11915 0.12146 0.0
H2750 H 0.38091 0.13081 0.10136 0.0
H2751 H 0.38452 0.10366 0.10906 0.0
C2752 C 0.34585 0.95086 0.86336 0.0
C2753 C 0.32995 0.95246 0.84811 0.0
C2754 C 0.34524 0.93497 0.87871 0.0
C2755 C 0.32869 0.92 0.87834 0.0
C2756 C 0.31321 0.92093 0.86229 0.0
C2757 C 0.31383 0.93739 0.84755 0.0
C2758 C 0.3617 0.93483 0.89592 0.0
C2759 C 0.29569 0.90487 0.861 0.0
C2760 C 0.33563 0.87009 0.91063 0.0
C2761 C 0.32282 0.87436 0.92812 0.0
C2762 C 0.33748 0.88468 0.89411 0.0
C2763 C 0.32679 0.90421 0.89551 0.0
C2764 C 0.31416 0.90873 0.91335 0.0
C2765 C 0.31206 0.89359 0.92929 0.0
C2766 C 0.35057 0.87908 0.87505 0.0
C2767 C 0.30297 0.92962 0.91567 0.0
H2768 H 0.35821 0.96265 0.86391 0.0
H2769 H 0.30162 0.93856 0.83565 0.0
H2770 H 0.35403 0.93767 0.91138 0.0
H2771 H 0.36946 0.9192 0.89678 0.0
H2772 H 0.37398 0.94706 0.89346 0.0
H2773 H 0.28625 0.90653 0.84635 0.0
H2774 H 0.30227 0.88867 0.86164 0.0
H2775 H 0.285 0.9067 0.87471 0.0
H2776 H 0.34381 0.85512 0.90965 0.0
H2777 H 0.30229 0.89695 0.9429 0.0
H2778 H 0.36352 0.89064 0.87306 0.0
H2779 H 0.34069 0.87985 0.86063 0.0
H2780 H 0.35752 0.86305 0.87623 0.0
H2781 H 0.31449 0.94273 0.91446 0.0
H2782 H 0.29453 0.93099 0.93094 0.0
H2783 H 0.29139 0.93165 0.90273 0.0
C2784 C 0.0282 0.31835 0.87008 0.0
C2785 C 0.02915 0.33075 0.85186 0.0
C2786 C 0.04442 0.31891 0.88503 0.0
C2787 C 0.06237 0.33163 0.88128 0.0
C2788 C 0.06337 0.34429 0.86291 0.0
C2789 C 0.04651 0.34397 0.84854 0.0
C2790 C 0.04246 0.30564 0.9047 0.0
C2791 C 0.08253 0.35754 0.8581 0.0
C2792 C 0.09725 0.34168 0.92886 0.0
C2793 C 0.11107 0.32452 0.92765 0.0
C2794 C 0.08165 0.34471 0.91344 0.0
C2795 C 0.08042 0.33061 0.89616 0.0
C2796 C 0.09528 0.31408 0.89424 0.0
C2797 C 0.11019 0.311 0.91024 0.0
C2798 C 0.06572 0.36214 0.91633 0.0
C2799 C 0.09491 0.2991 0.87574 0.0
H2800 H 0.01461 0.30834 0.87275 0.0
H2801 H 0.04721 0.3535 0.83437 0.0
H2802 H 0.0546 0.29306 0.9046 0.0
H2803 H 0.04522 0.31546 0.91891 0.0
H2804 H 0.02671 0.29811 0.90608 0.0
H2805 H 0.08046 0.36716 0.84362 0.0
H2806 H 0.08606 0.36821 0.87149 0.0
H2807 H 0.09644 0.34715 0.85598 0.0
H2808 H 0.09791 0.35205 0.94243 0.0
H2809 H 0.12108 0.29787 0.90923 0.0
H2810 H 0.05003 0.35517 0.91967 0.0
H2811 H 0.06419 0.37157 0.9017 0.0
H2812 H 0.06997 0.37286 0.92952 0.0
H2813 H 0.08081 0.28882 0.87678 0.0
H2814 H 0.10914 0.28892 0.87521 0.0
H2815 H 0.0938 0.308 0.86072 0.0
C2816 C 0.65325 0.09762 0.93722 0.0
C2817 C 0.64132 0.11619 0.93776 0.0
C2818 C 0.65059 0.08289 0.92099 0.0
C2819 C 0.63596 0.08705 0.90464 0.0
C2820 C 0.62339 0.10546 0.90542 0.0
C2821 C 0.62608 0.11975 0.92213 0.0
C2822 C 0.66401 0.06322 0.92097 0.0
C2823 C 0.60788 0.11057 0.88812 0.0
C2824 C 0.6531 0.0601 0.8545 0.0
C2825 C 0.64085 0.04175 0.8549 0.0
C2826 C 0.65037 0.07588 0.86968 0.0
C2827 C 0.63541 0.07293 0.88596 0.0
C2828 C 0.62203 0.05505 0.88563 0.0
C2829 C 0.62478 0.03971 0.86989 0.0
C2830 C 0.66458 0.09497 0.86914 0.0
C2831 C 0.60606 0.05124 0.90283 0.0
H2832 H 0.66485 0.09469 0.94942 0.0
H2833 H 0.61686 0.13413 0.92247 0.0
H2834 H 0.654 0.04905 0.91879 0.0
H2835 H 0.67526 0.0638 0.9076 0.0
H2836 H 0.67314 0.0614 0.9358 0.0
H2837 H 0.59772 0.12424 0.89219 0.0
H2838 H 0.61659 0.11431 0.87343 0.0
H2839 H 0.59768 0.09678 0.88473 0.0
H2840 H 0.66542 0.06173 0.84277 0.0
H2841 H 0.61541 0.02542 0.87026 0.0
H2842 H 0.67634 0.09386 0.88204 0.0
H2843 H 0.65533 0.10959 0.8717 0.0
H2844 H 0.67317 0.09634 0.85395 0.0
H2845 H 0.61439 0.04659 0.91749 0.0
H2846 H 0.59479 0.03852 0.89859 0.0
H2847 H 0.59708 0.06582 0.90632 0.0
C2848 C 0.94379 0.6638 0.8817 0.0
C2849 C 0.94466 0.65083 0.86386 0.0
C2850 C 0.92728 0.662 0.89622 0.0
C2851 C 0.91089 0.64733 0.89244 0.0
C2852 C 0.9117 0.63415 0.87445 0.0
C2853 C 0.92881 0.63583 0.8605 0.0
C2854 C 0.92727 0.67598 0.9155 0.0
C2855 C 0.8942 0.61877 0.86961 0.0
C2856 C 0.87601 0.6347 0.93936 0.0
C2857 C 0.86036 0.65011 0.93723 0.0
C2858 C 0.89232 0.63308 0.92448 0.0
C2859 C 0.89247 0.64677 0.90684 0.0
C2860 C 0.87589 0.66142 0.904 0.0
C2861 C 0.86022 0.66316 0.91944 0.0
C2862 C 0.91001 0.61765 0.92832 0.0
C2863 C 0.87514 0.67586 0.88509 0.0
H2864 H 0.95621 0.67521 0.88444 0.0
H2865 H 0.92948 0.62585 0.84664 0.0
H2866 H 0.91378 0.68708 0.91476 0.0
H2867 H 0.92531 0.66632 0.92995 0.0
H2868 H 0.94203 0.6853 0.91697 0.0
H2869 H 0.89757 0.60913 0.85538 0.0
H2870 H 0.89162 0.60805 0.88317 0.0
H2871 H 0.87927 0.6275 0.86702 0.0
H2872 H 0.87612 0.62471 0.95322 0.0
H2873 H 0.84794 0.67493 0.91773 0.0
H2874 H 0.92473 0.62644 0.93179 0.0
H2875 H 0.91297 0.60802 0.91403 0.0
H2876 H 0.90664 0.60692 0.94173 0.0
H2877 H 0.88802 0.68764 0.88618 0.0
H2878 H 0.85991 0.68442 0.88391 0.0
H2879 H 0.87761 0.66675 0.87036 0.0
C2880 C 0.65739 0.92538 0.13494 0.0
C2881 C 0.64312 0.94216 0.13359 0.0
C2882 C 0.65707 0.90903 0.1201 0.0
C2883 C 0.64262 0.90992 0.10312 0.0
C2884 C 0.62754 0.92637 0.10223 0.0
C2885 C 0.62779 0.94218 0.11771 0.0
C2886 C 0.67296 0.89141 0.12198 0.0
C2887 C 0.61219 0.92812 0.08413 0.0
C2888 C 0.66276 0.88449 0.053 0.0
C2889 C 0.65135 0.86561 0.05256 0.0
C2890 C 0.65945 0.89936 0.06898 0.0
C2891 C 0.64483 0.89494 0.08526 0.0
C2892 C 0.63317 0.87593 0.08485 0.0
C2893 C 0.63636 0.86159 0.06829 0.0
C2894 C 0.67181 0.91971 0.06857 0.0
C2895 C 0.61789 0.87043 0.10223 0.0
H2896 H 0.66917 0.92534 0.14733 0.0
H2897 H 0.6169 0.95531 0.11656 0.0
H2898 H 0.66518 0.8759 0.11977 0.0
H2899 H 0.68504 0.89305 0.10946 0.0
H2900 H 0.68106 0.89148 0.13751 0.0
H2901 H 0.60013 0.94051 0.08688 0.0
H2902 H 0.62093 0.93206 0.06949 0.0
H2903 H 0.60409 0.91288 0.08139 0.0
H2904 H 0.67421 0.88769 0.04072 0.0
H2905 H 0.62762 0.84691 0.06803 0.0
H2906 H 0.68261 0.92036 0.08231 0.0
H2907 H 0.66096 0.93337 0.0698 0.0
H2908 H 0.68132 0.92141 0.05397 0.0
H2909 H 0.62653 0.86896 0.11738 0.0
H2910 H 0.60944 0.85541 0.09913 0.0
H2911 H 0.60611 0.88319 0.10423 0.0
C2912 C 0.03988 0.66312 0.11436 0.0
C2913 C 0.0395 0.64952 0.13173 0.0
C2914 C 0.05649 0.6625 0.09985 0.0
C2915 C 0.07346 0.6484 0.10319 0.0
C2916 C 0.07319 0.63464 0.12076 0.0
C2917 C 0.05599 0.63513 0.13468 0.0
C2918 C 0.05594 0.67706 0.08101 0.0
C2919 C 0.0913 0.61985 0.12514 0.0
C2920 C 0.10866 0.63812 0.05594 0.0
C2921 C 0.12383 0.65394 0.05844 0.0
C2922 C 0.09241 0.63565 0.07075 0.0
C2923 C 0.09183 0.6489 0.08871 0.0
C2924 C 0.10792 0.66402 0.0919 0.0
C2925 C 0.12353 0.66661 0.07651 0.0
C2926 C 0.07522 0.61974 0.06654 0.0
C2927 C 0.10821 0.67802 0.11115 0.0
H2928 H 0.02698 0.67407 0.11193 0.0
H2929 H 0.0557 0.62467 0.14818 0.0
H2930 H 0.06905 0.68857 0.08203 0.0
H2931 H 0.05816 0.6679 0.06627 0.0
H2932 H 0.04087 0.68591 0.07988 0.0
H2933 H 0.08843 0.60981 0.13919 0.0
H2934 H 0.09414 0.6095 0.11134 0.0
H2935 H 0.10593 0.62908 0.12777 0.0
H2936 H 0.10887 0.62843 0.04185 0.0
H2937 H 0.13544 0.67871 0.07851 0.0
H2938 H 0.06017 0.62811 0.06347 0.0
H2939 H 0.07273 0.60957 0.08053 0.0
H2940 H 0.07884 0.60956 0.05276 0.0
H2941 H 0.09491 0.68933 0.1104 0.0
H2942 H 0.12312 0.6871 0.11249 0.0
H2943 H 0.10615 0.66846 0.12565 0.0
C2944 C 0.94421 0.32024 0.11388 0.0
C2945 C 0.94311 0.33329 0.13164 0.0
C2946 C 0.92819 0.32037 0.09869 0.0
C2947 C 0.91031 0.33335 0.10172 0.0
C2948 C 0.90908 0.34656 0.11968 0.0
C2949 C 0.92573 0.34664 0.1343 0.0
C2950 C 0.93038 0.30649 0.07945 0.0
C2951 C 0.88996 0.36013 0.12374 0.0
C2952 C 0.87627 0.34329 0.05347 0.0
C2953 C 0.86187 0.32663 0.05491 0.0
C2954 C 0.89191 0.34606 0.06891 0.0
C2955 C 0.89259 0.33225 0.08644 0.0
C2956 C 0.87731 0.31613 0.08848 0.0
C2957 C 0.86235 0.31329 0.07248 0.0
C2958 C 0.90831 0.36303 0.06589 0.0
C2959 C 0.87713 0.30148 0.10724 0.0
H2960 H 0.95781 0.31014 0.11168 0.0
H2961 H 0.9249 0.35669 0.1481 0.0
H2962 H 0.91797 0.29419 0.07957 0.0
H2963 H 0.9282 0.31597 0.06492 0.0
H2964 H 0.94599 0.2986 0.0787 0.0
H2965 H 0.89165 0.36982 0.13822 0.0
H2966 H 0.8871 0.37077 0.11017 0.0
H2967 H 0.87581 0.34998 0.12541 0.0
H2968 H 0.87591 0.35353 0.0398 0.0
H2969 H 0.85101 0.30055 0.07369 0.0
H2970 H 0.92396 0.35563 0.06341 0.0
H2971 H 0.9095 0.37299 0.0802 0.0
H2972 H 0.90476 0.37331 0.05216 0.0
H2973 H 0.89116 0.29107 0.10672 0.0
H2974 H 0.8628 0.29142 0.10763 0.0
H2975 H 0.87796 0.31065 0.12212 0.0
C2976 C 0.64133 0.81676 0.56071 0.0
C2977 C 0.64092 0.83256 0.54529 0.0
C2978 C 0.62637 0.81642 0.57697 0.0
C2979 C 0.61029 0.83188 0.57739 0.0
C2980 C 0.61048 0.8485 0.56251 0.0
C2981 C 0.626 0.84879 0.54676 0.0
C2982 C 0.62704 0.79877 0.59292 0.0
C2983 C 0.59337 0.86503 0.56216 0.0
C2984 C 0.55778 0.81272 0.59817 0.0
C2985 C 0.55687 0.82232 0.61803 0.0
C2986 C 0.57489 0.81612 0.58469 0.0
C2987 C 0.59181 0.829 0.59146 0.0
C2988 C 0.59106 0.8387 0.61155 0.0
C2989 C 0.57339 0.83548 0.62453 0.0
C2990 C 0.57485 0.80588 0.56318 0.0
C2991 C 0.60906 0.8521 0.61947 0.0
H2992 H 0.65301 0.80433 0.55972 0.0
H2993 H 0.62559 0.86098 0.53479 0.0
H2994 H 0.62465 0.80501 0.60908 0.0
H2995 H 0.6141 0.78747 0.58967 0.0
H2996 H 0.64222 0.79005 0.59243 0.0
H2997 H 0.59712 0.87819 0.55123 0.0
H2998 H 0.57834 0.85769 0.55701 0.0
H2999 H 0.59077 0.87158 0.57814 0.0
H3000 H 0.54491 0.80272 0.59303 0.0
H3001 H 0.57274 0.84282 0.63995 0.0
H3002 H 0.58817 0.79463 0.56192 0.0
H3003 H 0.57706 0.818 0.55076 0.0
H3004 H 0.55997 0.79723 0.55994 0.0
H3005 H 0.62366 0.8425 0.62018 0.0
H3006 H 0.60592 0.85872 0.63537 0.0
H3007 H 0.61209 0.86528 0.6084 0.0
C3008 C 0.16485 0.55117 0.60367 0.0
C3009 C 0.15313 0.55195 0.62235 0.0
C3010 C 0.16299 0.56705 0.58844 0.0
C3011 C 0.14953 0.58443 0.5923 0.0
C3012 C 0.13767 0.58533 0.61117 0.0
C3013 C 0.13938 0.56888 0.62587 0.0
C3014 C 0.17553 0.56526 0.56828 0.0
C3015 C 0.1236 0.60389 0.61603 0.0
C3016 C 0.16484 0.63249 0.56051 0.0
C3017 C 0.15042 0.63155 0.54382 0.0
C3018 C 0.16385 0.61801 0.57716 0.0
C3019 C 0.14848 0.60185 0.57671 0.0
C3020 C 0.13339 0.6013 0.56027 0.0
C3021 C 0.13437 0.61639 0.54413 0.0
C3022 C 0.17984 0.61947 0.59474 0.0
C3023 C 0.11708 0.58403 0.55899 0.0
H3024 H 0.17534 0.53797 0.60084 0.0
H3025 H 0.13041 0.56955 0.6404 0.0
H3026 H 0.16489 0.5666 0.55446 0.0
H3027 H 0.18706 0.57836 0.56728 0.0
H3028 H 0.18424 0.55011 0.56718 0.0
H3029 H 0.11515 0.60201 0.63125 0.0
H3030 H 0.13317 0.61851 0.61671 0.0
H3031 H 0.1118 0.60603 0.60331 0.0
H3032 H 0.17715 0.64434 0.56035 0.0
H3033 H 0.12331 0.61557 0.53112 0.0
H3034 H 0.19106 0.60611 0.59359 0.0
H3035 H 0.17192 0.61833 0.61029 0.0
H3036 H 0.18895 0.63441 0.59415 0.0
H3037 H 0.12503 0.56874 0.55597 0.0
H3038 H 0.10542 0.58685 0.54622 0.0
H3039 H 0.10853 0.58252 0.57416 0.0
C3040 C 0.36666 0.13353 0.5409 0.0
C3041 C 0.35265 0.15057 0.54195 0.0
C3042 C 0.38336 0.13173 0.55533 0.0
C3043 C 0.38565 0.14703 0.57143 0.0
C3044 C 0.37062 0.16341 0.57338 0.0
C3045 C 0.35449 0.16518 0.55839 0.0
C3046 C 0.39932 0.11432 0.55245 0.0
C3047 C 0.37214 0.17967 0.5907 0.0
C3048 C 0.42277 0.13794 0.61757 0.0
C3049 C 0.43965 0.15117 0.61221 0.0
C3050 C 0.40516 0.13607 0.60427 0.0
C3051 C 0.40477 0.14726 0.58497 0.0
C3052 C 0.42223 0.15985 0.57909 0.0
C3053 C 0.43933 0.1619 0.59293 0.0
C3054 C 0.38663 0.12291 0.6113 0.0
C3055 C 0.42265 0.1716 0.55838 0.0
H3056 H 0.36534 0.12235 0.52805 0.0
H3057 H 0.34355 0.17827 0.55926 0.0
H3058 H 0.41451 0.1212 0.54718 0.0
H3059 H 0.40232 0.10614 0.5676 0.0
H3060 H 0.39415 0.10252 0.5406 0.0
H3061 H 0.35783 0.18972 0.59158 0.0
H3062 H 0.3745 0.17189 0.60618 0.0
H3063 H 0.38597 0.18999 0.58786 0.0
H3064 H 0.42295 0.12974 0.63256 0.0
H3065 H 0.45246 0.17197 0.58869 0.0
H3066 H 0.38215 0.11151 0.59883 0.0
H3067 H 0.37282 0.13328 0.61403 0.0
H3068 H 0.38999 0.11409 0.62605 0.0
H3069 H 0.41902 0.16072 0.54518 0.0
H3070 H 0.43817 0.17911 0.55534 0.0
H3071 H 0.41039 0.18406 0.55842 0.0
C3072 C 0.84632 0.366 0.54004 0.0
C3073 C 0.83085 0.35032 0.53852 0.0
C3074 C 0.84484 0.38195 0.55528 0.0
C3075 C 0.82782 0.38177 0.56972 0.0
C3076 C 0.81274 0.36534 0.5689 0.0
C3077 C 0.81423 0.35 0.55305 0.0
C3078 C 0.86091 0.39951 0.55529 0.0
C3079 C 0.79475 0.36426 0.58444 0.0
C3080 C 0.83311 0.41591 0.61861 0.0
C3081 C 0.82025 0.4331 0.6134 0.0
C3082 C 0.83542 0.39885 0.60472 0.0
C3083 C 0.82517 0.39939 0.58491 0.0
C3084 C 0.8124 0.41688 0.57947 0.0
C3085 C 0.80983 0.43338 0.59395 0.0
C3086 C 0.84863 0.38018 0.6113 0.0
C3087 C 0.80167 0.4183 0.55826 0.0
H3088 H 0.85906 0.36638 0.52865 0.0
H3089 H 0.80233 0.33778 0.55194 0.0
H3090 H 0.85298 0.41471 0.55186 0.0
H3091 H 0.8683 0.40097 0.57106 0.0
H3092 H 0.87352 0.39698 0.54342 0.0
H3093 H 0.78562 0.34939 0.58295 0.0
H3094 H 0.80081 0.36553 0.6008 0.0
H3095 H 0.78389 0.37771 0.58185 0.0
H3096 H 0.84103 0.41561 0.63376 0.0
H3097 H 0.80001 0.44676 0.58986 0.0
H3098 H 0.86203 0.37814 0.60028 0.0
H3099 H 0.83904 0.36557 0.61056 0.0
H3100 H 0.85497 0.38192 0.62754 0.0
H3101 H 0.81354 0.41697 0.54548 0.0
H3102 H 0.79291 0.43332 0.55622 0.0
H3103 H 0.79046 0.40503 0.55633 0.0
C3104 C 0.55383 0.16084 0.38455 0.0
C3105 C 0.55114 0.14964 0.36573 0.0
C3106 C 0.57106 0.15685 0.39775 0.0
C3107 C 0.5863 0.14173 0.39164 0.0
C3108 C 0.58357 0.1302 0.37273 0.0
C3109 C 0.5658 0.1341 0.3601 0.0
C3110 C 0.5731 0.16909 0.41808 0.0
C3111 C 0.59977 0.11437 0.36547 0.0
C3112 C 0.63855 0.15316 0.41777 0.0
C3113 C 0.63802 0.13925 0.43489 0.0
C3114 C 0.62261 0.15289 0.40247 0.0
C3115 C 0.60543 0.13883 0.40481 0.0
C3116 C 0.60547 0.12393 0.42142 0.0
C3117 C 0.62198 0.12413 0.43614 0.0
C3118 C 0.62347 0.16859 0.38461 0.0
C3119 C 0.58724 0.10899 0.4247 0.0
H3120 H 0.54238 0.17273 0.38898 0.0
H3121 H 0.56378 0.12555 0.34545 0.0
H3122 H 0.57533 0.15812 0.43152 0.0
H3123 H 0.58718 0.17943 0.41738 0.0
H3124 H 0.55907 0.17907 0.42127 0.0
H3125 H 0.59475 0.10592 0.35098 0.0
H3126 H 0.61488 0.12255 0.36222 0.0
H3127 H 0.60287 0.10262 0.37804 0.0
H3128 H 0.65106 0.16476 0.41674 0.0
H3129 H 0.62148 0.11348 0.4495 0.0
H3130 H 0.61168 0.1812 0.38735 0.0
H3131 H 0.61948 0.16086 0.36944 0.0
H3132 H 0.63926 0.17602 0.38318 0.0
H3133 H 0.57332 0.11802 0.43023 0.0
H3134 H 0.59091 0.09665 0.43657 0.0
H3135 H 0.58279 0.10121 0.40969 0.0
C3136 C 0.83049 0.5519 0.37996 0.0
C3137 C 0.84207 0.54929 0.36137 0.0
C3138 C 0.83444 0.56887 0.3935 0.0
C3139 C 0.84995 0.58395 0.38799 0.0
C3140 C 0.86193 0.58125 0.36935 0.0
C3141 C 0.85802 0.56374 0.35636 0.0
C3142 C 0.82166 0.57087 0.4135 0.0
C3143 C 0.87823 0.59726 0.36275 0.0
C3144 C 0.83767 0.63568 0.41456 0.0
C3145 C 0.85066 0.63462 0.43237 0.0
C3146 C 0.83873 0.6202 0.39885 0.0
C3147 C 0.85263 0.60294 0.40141 0.0
C3148 C 0.8668 0.60257 0.41866 0.0
C3149 C 0.86582 0.61863 0.43385 0.0
C3150 C 0.82381 0.6215 0.38035 0.0
C3151 C 0.88161 0.58428 0.42215 0.0
H3152 H 0.8183 0.54061 0.38395 0.0
H3153 H 0.86689 0.56177 0.34188 0.0
H3154 H 0.83228 0.57282 0.42727 0.0
H3155 H 0.81153 0.58509 0.41264 0.0
H3156 H 0.81142 0.55694 0.41627 0.0
H3157 H 0.88727 0.59208 0.34867 0.0
H3158 H 0.87034 0.61242 0.35903 0.0
H3159 H 0.88944 0.60033 0.37581 0.0
H3160 H 0.82607 0.64818 0.41334 0.0
H3161 H 0.87579 0.61773 0.44771 0.0
H3162 H 0.81093 0.60984 0.38241 0.0
H3163 H 0.8321 0.6176 0.36545 0.0
H3164 H 0.81664 0.6374 0.37882 0.0
H3165 H 0.87242 0.57037 0.42743 0.0
H3166 H 0.89369 0.58786 0.43432 0.0
H3167 H 0.8897 0.57988 0.4073 0.0
C3168 C 0.37404 0.82391 0.451 0.0
C3169 C 0.35603 0.83659 0.44961 0.0
C3170 C 0.38896 0.8236 0.43476 0.0
C3171 C 0.38544 0.83577 0.4164 0.0
C3172 C 0.36732 0.84872 0.41494 0.0
C3173 C 0.35294 0.84923 0.43178 0.0
C3174 C 0.40837 0.81001 0.43716 0.0
C3175 C 0.36278 0.86146 0.39537 0.0
C3176 C 0.43311 0.84411 0.38125 0.0
C3177 C 0.4315 0.82674 0.36772 0.0
C3178 C 0.41783 0.84772 0.39685 0.0
C3179 C 0.40032 0.83396 0.39844 0.0
C3180 C 0.39806 0.81713 0.38396 0.0
C3181 C 0.41387 0.81352 0.36899 0.0
C3182 C 0.42106 0.86549 0.41235 0.0
C3183 C 0.37933 0.80246 0.38477 0.0
H3184 H 0.37656 0.81434 0.46493 0.0
H3185 H 0.33894 0.85898 0.43072 0.0
H3186 H 0.40808 0.79713 0.42534 0.0
H3187 H 0.42277 0.81949 0.43422 0.0
H3188 H 0.40955 0.80286 0.45311 0.0
H3189 H 0.34842 0.87133 0.39705 0.0
H3190 H 0.37633 0.87184 0.39161 0.0
H3191 H 0.36059 0.85069 0.38175 0.0
H3192 H 0.44681 0.85427 0.38029 0.0
H3193 H 0.41252 0.80023 0.35833 0.0
H3194 H 0.42409 0.85886 0.42825 0.0
H3195 H 0.40665 0.87531 0.41349 0.0
H3196 H 0.43453 0.87576 0.40793 0.0
H3197 H 0.38016 0.79266 0.39922 0.0
H3198 H 0.37867 0.7918 0.37089 0.0
H3199 H 0.36445 0.81163 0.38551 0.0
C3200 C 0.16366 0.4397 0.37894 0.0
C3201 C 0.15216 0.43926 0.36011 0.0
C3202 C 0.16136 0.42371 0.39398 0.0
C3203 C 0.14775 0.40653 0.38973 0.0
C3204 C 0.13619 0.40594 0.37066 0.0
C3205 C 0.13828 0.42254 0.35618 0.0
C3206 C 0.17352 0.4252 0.4144 0.0
C3207 C 0.12202 0.38756 0.36535 0.0
C3208 C 0.16131 0.35825 0.42204 0.0
C3209 C 0.14636 0.35946 0.43823 0.0
C3210 C 0.16107 0.37271 0.40533 0.0
C3211 C 0.14597 0.38914 0.40528 0.0
C3212 C 0.13039 0.38998 0.42123 0.0
C3213 C 0.13059 0.37489 0.43738 0.0
C3214 C 0.17752 0.37092 0.38823 0.0
C3215 C 0.11439 0.40758 0.42203 0.0
H3216 H 0.17427 0.45274 0.38203 0.0
H3217 H 0.12953 0.42213 0.3415 0.0
H3218 H 0.16258 0.424 0.42799 0.0
H3219 H 0.1848 0.4119 0.41559 0.0
H3220 H 0.18247 0.44019 0.41574 0.0
H3221 H 0.11409 0.38954 0.34986 0.0
H3222 H 0.1314 0.3728 0.36501 0.0
H3223 H 0.1098 0.38562 0.37768 0.0
H3224 H 0.17341 0.3462 0.42264 0.0
H3225 H 0.11914 0.37593 0.45002 0.0
H3226 H 0.189 0.38401 0.38974 0.0
H3227 H 0.17008 0.37226 0.37245 0.0
H3228 H 0.18626 0.35577 0.38906 0.0
H3229 H 0.12257 0.42273 0.42515 0.0
H3230 H 0.10239 0.40506 0.43453 0.0
H3231 H 0.10622 0.40915 0.40666 0.0
C3232 C 0.62566 0.58013 0.82957 0.0
C3233 C 0.62712 0.56177 0.84173 0.0
C3234 C 0.6091 0.5944 0.83254 0.0
C3235 C 0.59332 0.58984 0.84764 0.0
C3236 C 0.59545 0.57199 0.86088 0.0
C3237 C 0.61254 0.55824 0.85791 0.0
C3238 C 0.60769 0.61353 0.81846 0.0
C3239 C 0.57881 0.56645 0.87694 0.0
C3240 C 0.55148 0.63172 0.85728 0.0
C3241 C 0.53637 0.62607 0.84217 0.0
C3242 C 0.57005 0.61985 0.85967 0.0
C3243 C 0.57318 0.60174 0.84699 0.0
C3244 C 0.5575 0.59554 0.83238 0.0
C3245 C 0.53943 0.60792 0.82999 0.0
C3246 C 0.58663 0.62711 0.87511 0.0
C3247 C 0.56001 0.57609 0.81885 0.0
H3248 H 0.63715 0.58302 0.81725 0.0
H3249 H 0.61368 0.54401 0.86731 0.0
H3250 H 0.59509 0.6111 0.80657 0.0
H3251 H 0.60349 0.62773 0.82776 0.0
H3252 H 0.62272 0.61658 0.81001 0.0
H3253 H 0.58434 0.55416 0.88812 0.0
H3254 H 0.57398 0.58058 0.88603 0.0
H3255 H 0.56462 0.56042 0.86868 0.0
H3256 H 0.54911 0.64578 0.86669 0.0
H3257 H 0.52761 0.60333 0.81853 0.0
H3258 H 0.60082 0.63238 0.86636 0.0
H3259 H 0.59154 0.61392 0.88547 0.0
H3260 H 0.581 0.64035 0.88509 0.0
H3261 H 0.57332 0.57831 0.80774 0.0
H3262 H 0.5456 0.57255 0.80955 0.0
H3263 H 0.56375 0.56222 0.82882 0.0
C3264 C 0.42756 0.59393 0.83211 0.0
C3265 C 0.42868 0.6131 0.84296 0.0
C3266 C 0.41123 0.57965 0.83596 0.0
C3267 C 0.39533 0.5849 0.85072 0.0
C3268 C 0.39675 0.60392 0.86231 0.0
C3269 C 0.41359 0.61777 0.85842 0.0
C3270 C 0.41056 0.5593 0.82359 0.0
C3271 C 0.37996 0.61013 0.87797 0.0
C3272 C 0.34524 0.55704 0.83541 0.0
C3273 C 0.34625 0.53901 0.8481 0.0
C3274 C 0.36007 0.57324 0.83758 0.0
C3275 C 0.37655 0.57106 0.85246 0.0
C3276 C 0.37665 0.55369 0.86646 0.0
C3277 C 0.36132 0.5379 0.86423 0.0
C3278 C 0.35909 0.5918 0.82271 0.0
C3279 C 0.39403 0.55075 0.88243 0.0
H3280 H 0.43938 0.59019 0.82035 0.0
H3281 H 0.41442 0.63265 0.86678 0.0
H3282 H 0.40853 0.5457 0.83439 0.0
H3283 H 0.39687 0.55947 0.81271 0.0
H3284 H 0.42509 0.5568 0.81413 0.0
H3285 H 0.38475 0.62393 0.88762 0.0
H3286 H 0.36527 0.61419 0.86939 0.0
H3287 H 0.37622 0.5968 0.88864 0.0
H3288 H 0.3334 0.55804 0.82312 0.0
H3289 H 0.36214 0.52395 0.87407 0.0
H3290 H 0.37161 0.5902 0.8106 0.0
H3291 H 0.36194 0.60675 0.83132 0.0
H3292 H 0.34364 0.59285 0.81454 0.0
H3293 H 0.40857 0.54552 0.87422 0.0
H3294 H 0.38987 0.53872 0.89445 0.0
H3295 H 0.39771 0.56579 0.89053 0.0
C3296 C 0.38493 0.43732 0.81697 0.0
C3297 C 0.36624 0.43379 0.82818 0.0
C3298 C 0.40118 0.42237 0.81703 0.0
C3299 C 0.39838 0.40316 0.82803 0.0
C3300 C 0.3795 0.39949 0.83935 0.0
C3301 C 0.36375 0.41503 0.83955 0.0
C3302 C 0.42132 0.42712 0.80525 0.0
C3303 C 0.37576 0.37897 0.8508 0.0
C3304 C 0.4332 0.35867 0.80857 0.0
C3305 C 0.44908 0.35842 0.8239 0.0
C3306 C 0.41604 0.37252 0.81025 0.0
C3307 C 0.41516 0.38687 0.82733 0.0
C3308 C 0.43102 0.38645 0.84303 0.0
C3309 C 0.44765 0.37199 0.84127 0.0
C3310 C 0.39912 0.37211 0.79352 0.0
C3311 C 0.43092 0.40188 0.86115 0.0
H3312 H 0.38692 0.45192 0.80831 0.0
H3313 H 0.34921 0.41223 0.84808 0.0
H3314 H 0.43506 0.42542 0.81595 0.0
H3315 H 0.42343 0.41566 0.79222 0.0
H3316 H 0.42143 0.44327 0.79851 0.0
H3317 H 0.36023 0.37861 0.85888 0.0
H3318 H 0.37648 0.36567 0.83945 0.0
H3319 H 0.3883 0.37632 0.86267 0.0
H3320 H 0.43421 0.34806 0.79521 0.0
H3321 H 0.46004 0.37193 0.85306 0.0
H3322 H 0.39952 0.38698 0.78434 0.0
H3323 H 0.38332 0.37099 0.80093 0.0
H3324 H 0.40108 0.35869 0.78243 0.0
H3325 H 0.43248 0.41817 0.85498 0.0
H3326 H 0.44396 0.39893 0.87247 0.0
H3327 H 0.41574 0.40104 0.86977 0.0
C3328 C 0.5732 0.37263 0.80612 0.0
C3329 C 0.55668 0.37003 0.82053 0.0
C3330 C 0.58825 0.38856 0.8089 0.0
C3331 C 0.58625 0.40266 0.82608 0.0
C3332 C 0.56963 0.40003 0.84075 0.0
C3333 C 0.55522 0.38347 0.83798 0.0
C3334 C 0.60612 0.39048 0.79329 0.0
C3335 C 0.56661 0.41515 0.85888 0.0
C3336 C 0.63319 0.43648 0.84163 0.0
C3337 C 0.62933 0.45485 0.83002 0.0
C3338 C 0.61933 0.41925 0.84047 0.0
C3339 C 0.60089 0.42083 0.82798 0.0
C3340 C 0.59665 0.43963 0.81674 0.0
C3341 C 0.61112 0.45628 0.81761 0.0
C3342 C 0.62468 0.39922 0.85214 0.0
C3343 C 0.57685 0.44215 0.80376 0.0
H3344 H 0.57442 0.36207 0.79274 0.0
H3345 H 0.54233 0.3815 0.84903 0.0
H3346 H 0.60452 0.40536 0.78427 0.0
H3347 H 0.62144 0.3911 0.80172 0.0
H3348 H 0.60647 0.37713 0.78196 0.0
H3349 H 0.5532 0.41059 0.86917 0.0
H3350 H 0.58111 0.41593 0.86861 0.0
H3351 H 0.56367 0.43123 0.85267 0.0
H3352 H 0.64736 0.43536 0.85112 0.0
H3353 H 0.60805 0.47061 0.80881 0.0
H3354 H 0.62621 0.38601 0.84077 0.0
H3355 H 0.61181 0.39506 0.86319 0.0
H3356 H 0.63961 0.40059 0.86119 0.0
H3357 H 0.57692 0.43074 0.79052 0.0
H3358 H 0.57524 0.45829 0.79716 0.0
H3359 H 0.56277 0.43868 0.81354 0.0
C3360 C 0.56228 0.35211 0.16055 0.0
C3361 C 0.5454 0.35278 0.14634 0.0
C3362 C 0.57863 0.36691 0.15943 0.0
C3363 C 0.57768 0.38313 0.14415 0.0
C3364 C 0.56119 0.38325 0.12909 0.0
C3365 C 0.54535 0.36785 0.1302 0.0
C3366 C 0.59628 0.36586 0.17537 0.0
C3367 C 0.55941 0.40053 0.11283 0.0
C3368 C 0.60276 0.4343 0.16192 0.0
C3369 C 0.62172 0.43424 0.15064 0.0
C3370 C 0.58798 0.41811 0.1593 0.0
C3371 C 0.59256 0.40115 0.14552 0.0
C3372 C 0.61163 0.40109 0.13395 0.0
C3373 C 0.62589 0.41783 0.13644 0.0
C3374 C 0.56758 0.41901 0.17155 0.0
C3375 C 0.61726 0.38302 0.11953 0.0
H3376 H 0.56238 0.34033 0.17294 0.0
H3377 H 0.53218 0.36847 0.11931 0.0
H3378 H 0.61177 0.36775 0.16749 0.0
H3379 H 0.5946 0.37896 0.18684 0.0
H3380 H 0.59627 0.35075 0.18422 0.0
H3381 H 0.5471 0.39707 0.10086 0.0
H3382 H 0.55534 0.41556 0.12079 0.0
H3383 H 0.57467 0.40293 0.10467 0.0
H3384 H 0.59943 0.44709 0.17275 0.0
H3385 H 0.64064 0.41772 0.1278 0.0
H3386 H 0.56696 0.4058 0.18299 0.0
H3387 H 0.55396 0.41719 0.16072 0.0
H3388 H 0.56577 0.43404 0.18035 0.0
H3389 H 0.61889 0.36834 0.1289 0.0
H3390 H 0.63224 0.38584 0.11091 0.0
H3391 H 0.6045 0.38033 0.10788 0.0
C3392 C 0.63387 0.55915 0.15844 0.0
C3393 C 0.63389 0.54224 0.14426 0.0
C3394 C 0.61848 0.57493 0.15721 0.0
C3395 C 0.60239 0.57336 0.14182 0.0
C3396 C 0.60296 0.55688 0.12678 0.0
C3397 C 0.61893 0.54161 0.12803 0.0
C3398 C 0.61876 0.59261 0.17315 0.0
C3399 C 0.58588 0.55446 0.1104 0.0
C3400 C 0.55043 0.59668 0.1596 0.0
C3401 C 0.54999 0.61577 0.14856 0.0
C3402 C 0.567 0.58236 0.15681 0.0
C3403 C 0.58382 0.58755 0.14309 0.0
C3404 C 0.58331 0.60668 0.13163 0.0
C3405 C 0.56621 0.62048 0.1343 0.0
C3406 C 0.56673 0.56187 0.16894 0.0
C3407 C 0.60118 0.61294 0.11723 0.0
H3408 H 0.64557 0.5597 0.1709 0.0
H3409 H 0.61884 0.52842 0.11715 0.0
H3410 H 0.61639 0.60802 0.16523 0.0
H3411 H 0.60563 0.59046 0.18449 0.0
H3412 H 0.63378 0.59314 0.18213 0.0
H3413 H 0.58992 0.54236 0.0984 0.0
H3414 H 0.57098 0.54971 0.11824 0.0
H3415 H 0.58288 0.56964 0.10229 0.0
H3416 H 0.53779 0.59293 0.17047 0.0
H3417 H 0.56594 0.63533 0.12585 0.0
H3418 H 0.57984 0.56167 0.1805 0.0
H3419 H 0.56913 0.54838 0.15806 0.0
H3420 H 0.55169 0.55947 0.17758 0.0
H3421 H 0.61571 0.61534 0.12667 0.0
H3422 H 0.59774 0.62768 0.10842 0.0
H3423 H 0.60452 0.60019 0.10574 0.0
C3424 C 0.44112 0.61416 0.1292 0.0
C3425 C 0.44105 0.62943 0.14514 0.0
C3426 C 0.4252 0.59883 0.12819 0.0
C3427 C 0.40862 0.59926 0.14311 0.0
C3428 C 0.40767 0.61568 0.15819 0.0
C3429 C 0.42411 0.63038 0.15925 0.0
C3430 C 0.42701 0.58132 0.11217 0.0
C3431 C 0.3899 0.61706 0.17396 0.0
C3432 C 0.36039 0.5647 0.13501 0.0
C3433 C 0.36432 0.54838 0.14937 0.0
C3434 C 0.3747 0.58141 0.13267 0.0
C3435 C 0.39359 0.58138 0.14454 0.0
C3436 C 0.39791 0.56454 0.15854 0.0
C3437 C 0.38305 0.5484 0.16102 0.0
C3438 C 0.36933 0.59939 0.11804 0.0
C3439 C 0.41813 0.56367 0.1711 0.0
H3440 H 0.45434 0.61333 0.11841 0.0
H3441 H 0.42402 0.64232 0.17149 0.0
H3442 H 0.43079 0.56634 0.12038 0.0
H3443 H 0.41183 0.57898 0.10383 0.0
H3444 H 0.43951 0.58446 0.10033 0.0
H3445 H 0.38993 0.63229 0.1826 0.0
H3446 H 0.37446 0.61516 0.16596 0.0
H3447 H 0.3914 0.60411 0.18562 0.0
H3448 H 0.3458 0.56475 0.1261 0.0
H3449 H 0.38618 0.53567 0.17199 0.0
H3450 H 0.38216 0.6018 0.10642 0.0
H3451 H 0.36785 0.61419 0.12724 0.0
H3452 H 0.35435 0.59666 0.10938 0.0
H3453 H 0.4319 0.56526 0.16044 0.0
H3454 H 0.41972 0.54874 0.18011 0.0
H3455 H 0.41868 0.57702 0.18238 0.0
C3456 C 0.43591 0.38519 0.1629 0.0
C3457 C 0.43646 0.36617 0.15172 0.0
C3458 C 0.41942 0.39958 0.15996 0.0
C3459 C 0.40279 0.39453 0.14594 0.0
C3460 C 0.40333 0.3754 0.13449 0.0
C3461 C 0.42035 0.36154 0.13731 0.0
C3462 C 0.41967 0.42007 0.17209 0.0
C3463 C 0.38562 0.36926 0.11981 0.0
C3464 C 0.35253 0.4236 0.15937 0.0
C3465 C 0.35299 0.44021 0.14484 0.0
C3466 C 0.36792 0.40777 0.15897 0.0
C3467 C 0.3845 0.40899 0.14409 0.0
C3468 C 0.38451 0.42523 0.12878 0.0
C3469 C 0.36854 0.44053 0.12917 0.0
C3470 C 0.36702 0.39034 0.17515 0.0
C3471 C 0.40215 0.42731 0.11294 0.0
H3472 H 0.44846 0.38886 0.17391 0.0
H3473 H 0.42068 0.34675 0.12876 0.0
H3474 H 0.41778 0.43357 0.16113 0.0
H3475 H 0.40623 0.4205 0.18326 0.0
H3476 H 0.43449 0.42225 0.18116 0.0
H3477 H 0.38884 0.35422 0.11145 0.0
H3478 H 0.3708 0.36753 0.12893 0.0
H3479 H 0.38294 0.38181 0.10795 0.0
H3480 H 0.3404 0.42329 0.1714 0.0
H3481 H 0.36901 0.4535 0.11805 0.0
H3482 H 0.3799 0.39248 0.18679 0.0
H3483 H 0.36938 0.37479 0.16751 0.0
H3484 H 0.35177 0.39013 0.18376 0.0
H3485 H 0.41692 0.43164 0.12126 0.0
H3486 H 0.39878 0.43952 0.10086 0.0
H3487 H 0.40501 0.41207 0.10487 0.0
C3488 C 0.85019 0.54077 0.60674 0.0
C3489 C 0.83341 0.54204 0.62105 0.0
C3490 C 0.85294 0.55621 0.59113 0.0
C3491 C 0.83886 0.57351 0.59022 0.0
C3492 C 0.82274 0.57552 0.60551 0.0
C3493 C 0.82003 0.55959 0.62057 0.0
C3494 C 0.87005 0.55332 0.57486 0.0
C3495 C 0.80775 0.59401 0.60541 0.0
C3496 C 0.85148 0.62152 0.55671 0.0
C3497 C 0.83809 0.61837 0.53941 0.0
C3498 C 0.85221 0.60688 0.5733 0.0
C3499 C 0.83964 0.58848 0.57223 0.0
C3500 C 0.82676 0.58484 0.55436 0.0
C3501 C 0.82594 0.59997 0.53829 0.0
C3502 C 0.86577 0.61149 0.5923 0.0
C3503 C 0.81348 0.56518 0.55241 0.0
H3504 H 0.86045 0.52711 0.607 0.0
H3505 H 0.80715 0.56067 0.63175 0.0
H3506 H 0.86277 0.54994 0.55931 0.0
H3507 H 0.87942 0.56797 0.57313 0.0
H3508 H 0.88087 0.54017 0.57891 0.0
H3509 H 0.79772 0.59446 0.61975 0.0
H3510 H 0.81663 0.60903 0.60429 0.0
H3511 H 0.79732 0.59303 0.5914 0.0
H3512 H 0.8608 0.63581 0.55765 0.0
H3513 H 0.81573 0.5974 0.52483 0.0
H3514 H 0.87635 0.59799 0.59567 0.0
H3515 H 0.85559 0.61371 0.60635 0.0
H3516 H 0.87553 0.62587 0.59016 0.0
H3517 H 0.82335 0.55095 0.55488 0.0
H3518 H 0.80569 0.56394 0.53677 0.0
H3519 H 0.80111 0.56516 0.56476 0.0
C3520 C 0.85281 0.42405 0.35417 0.0
C3521 C 0.83893 0.44076 0.35813 0.0
C3522 C 0.85382 0.40671 0.36792 0.0
C3523 C 0.84113 0.40653 0.38629 0.0
C3524 C 0.8277 0.42379 0.39069 0.0
C3525 C 0.82654 0.44053 0.37639 0.0
C3526 C 0.86789 0.38833 0.36246 0.0
C3527 C 0.81433 0.42446 0.41039 0.0
C3528 C 0.82277 0.35672 0.41336 0.0
C3529 C 0.83631 0.35583 0.43076 0.0
C3530 C 0.82508 0.37241 0.398 0.0
C3531 C 0.84089 0.38796 0.40052 0.0
C3532 C 0.85498 0.38679 0.4178 0.0
C3533 C 0.85271 0.3705 0.43259 0.0
C3534 C 0.81011 0.37278 0.37948 0.0
C3535 C 0.87166 0.4034 0.42131 0.0
H3536 H 0.86234 0.42424 0.33998 0.0
H3537 H 0.816 0.4536 0.3796 0.0
H3538 H 0.87872 0.38482 0.37573 0.0
H3539 H 0.85812 0.37406 0.35985 0.0
H3540 H 0.87741 0.3913 0.34807 0.0
H3541 H 0.80605 0.43978 0.41228 0.0
H3542 H 0.80234 0.41175 0.40984 0.0
H3543 H 0.82425 0.42169 0.42452 0.0
H3544 H 0.81025 0.34519 0.41181 0.0
H3545 H 0.86313 0.36981 0.44612 0.0
H3546 H 0.81897 0.37471 0.36453 0.0
H3547 H 0.79929 0.38644 0.38095 0.0
H3548 H 0.80049 0.35819 0.37847 0.0
H3549 H 0.88111 0.40576 0.40681 0.0
H3550 H 0.88246 0.39926 0.43446 0.0
H3551 H 0.86397 0.41866 0.42503 0.0
C3552 C 0.55664 0.83861 0.36212 0.0
C3553 C 0.5396 0.82528 0.36651 0.0
C3554 C 0.5739 0.83984 0.37594 0.0
C3555 C 0.57367 0.82799 0.39486 0.0
C3556 C 0.55611 0.8151 0.39967 0.0
C3557 C 0.53944 0.81362 0.38525 0.0
C3558 C 0.59263 0.85324 0.36998 0.0
C3559 C 0.555 0.80269 0.41996 0.0
C3560 C 0.62407 0.8113 0.42214 0.0
C3561 C 0.62568 0.82629 0.43826 0.0
C3562 C 0.6077 0.81225 0.40734 0.0
C3563 C 0.59217 0.82816 0.4092 0.0
C3564 C 0.59381 0.84346 0.42539 0.0
C3565 C 0.61081 0.84254 0.43956 0.0
C3566 C 0.60686 0.79604 0.38993 0.0
C3567 C 0.57721 0.86026 0.42824 0.0
H3568 H 0.55677 0.84755 0.34756 0.0
H3569 H 0.52612 0.80351 0.38875 0.0
H3570 H 0.59601 0.86487 0.38258 0.0
H3571 H 0.60681 0.84312 0.36835 0.0
H3572 H 0.59013 0.86184 0.35493 0.0
H3573 H 0.5395 0.79482 0.42208 0.0
H3574 H 0.56748 0.79046 0.42012 0.0
H3575 H 0.55785 0.81323 0.43363 0.0
H3576 H 0.63574 0.79886 0.42102 0.0
H3577 H 0.61203 0.85405 0.45213 0.0
H3578 H 0.60522 0.80394 0.37441 0.0
H3579 H 0.59287 0.78578 0.39206 0.0
H3580 H 0.62114 0.78592 0.38959 0.0
H3581 H 0.57522 0.86939 0.41347 0.0
H3582 H 0.58115 0.87136 0.44121 0.0
H3583 H 0.56182 0.85275 0.43179 0.0
C3584 C 0.14049 0.62543 0.41777 0.0
C3585 C 0.15499 0.62099 0.43384 0.0
C3586 C 0.13801 0.61168 0.4006 0.0
C3587 C 0.14989 0.59281 0.39989 0.0
C3588 C 0.16411 0.588 0.41642 0.0
C3589 C 0.16672 0.60231 0.43304 0.0
C3590 C 0.12314 0.6176 0.38299 0.0
C3591 C 0.17667 0.56777 0.41649 0.0
C3592 C 0.1329 0.54671 0.36581 0.0
C3593 C 0.1482 0.54724 0.3499 0.0
C3594 C 0.13279 0.56189 0.38191 0.0
C3595 C 0.14798 0.57824 0.38166 0.0
C3596 C 0.16254 0.57961 0.36481 0.0
C3597 C 0.1627 0.56388 0.3493 0.0
C3598 C 0.11734 0.55962 0.39986 0.0
C3599 C 0.17857 0.59717 0.36366 0.0
H3600 H 0.13153 0.63997 0.41829 0.0
H3601 H 0.17781 0.59879 0.44556 0.0
H3602 H 0.13206 0.61909 0.36801 0.0
H3603 H 0.11122 0.60503 0.38066 0.0
H3604 H 0.11484 0.6327 0.38609 0.0
H3605 H 0.18604 0.56581 0.43116 0.0
H3606 H 0.16595 0.55405 0.41482 0.0
H3607 H 0.18761 0.56753 0.40286 0.0
H3608 H 0.12182 0.53371 0.3664 0.0
H3609 H 0.17446 0.56433 0.33691 0.0
H3610 H 0.10894 0.57468 0.40267 0.0
H3611 H 0.12601 0.55568 0.41453 0.0
H3612 H 0.1055 0.54706 0.39685 0.0
H3613 H 0.17082 0.61266 0.36611 0.0
H3614 H 0.18696 0.59743 0.3483 0.0
H3615 H 0.1904 0.59517 0.37638 0.0
C3616 C 0.42418 0.13902 0.35721 0.0
C3617 C 0.44205 0.15075 0.3627 0.0
C3618 C 0.40653 0.13846 0.37059 0.0
C3619 C 0.40721 0.14932 0.3901 0.0
C3620 C 0.42568 0.16032 0.39606 0.0
C3621 C 0.44273 0.1612 0.38211 0.0
C3622 C 0.38689 0.12707 0.36349 0.0
C3623 C 0.4273 0.17159 0.41699 0.0
C3624 C 0.35929 0.17116 0.41797 0.0
C3625 C 0.3564 0.1564 0.43411 0.0
C3626 C 0.37487 0.16822 0.4026 0.0
C3627 C 0.38833 0.15046 0.40389 0.0
C3628 C 0.38503 0.13516 0.41979 0.0
C3629 C 0.36883 0.13817 0.43457 0.0
C3630 C 0.37749 0.18459 0.38552 0.0
C3631 C 0.39941 0.11634 0.42204 0.0
H3632 H 0.42369 0.13105 0.3421 0.0
H3633 H 0.4567 0.17007 0.38641 0.0
H3634 H 0.38155 0.11586 0.37577 0.0
H3635 H 0.37399 0.13865 0.36109 0.0
H3636 H 0.38937 0.1183 0.34854 0.0
H3637 H 0.44344 0.17767 0.42003 0.0
H3638 H 0.41618 0.18508 0.4173 0.0
H3639 H 0.42283 0.16083 0.43002 0.0
H3640 H 0.34948 0.18515 0.4175 0.0
H3641 H 0.36663 0.12681 0.44715 0.0
H3642 H 0.37891 0.17691 0.36987 0.0
H3643 H 0.39219 0.19364 0.38828 0.0
H3644 H 0.36408 0.19585 0.38506 0.0
H3645 H 0.40128 0.10815 0.40671 0.0
H3646 H 0.39348 0.10487 0.43386 0.0
H3647 H 0.41528 0.12174 0.42702 0.0
C3648 C 0.12596 0.44657 0.61755 0.0
C3649 C 0.14196 0.44496 0.6327 0.0
C3650 C 0.12426 0.43169 0.60128 0.0
C3651 C 0.13858 0.41459 0.60056 0.0
C3652 C 0.15371 0.41206 0.61677 0.0
C3653 C 0.15542 0.42747 0.63249 0.0
C3654 C 0.10818 0.43513 0.58407 0.0
C3655 C 0.16887 0.39372 0.61687 0.0
C3656 C 0.12949 0.36849 0.56347 0.0
C3657 C 0.14416 0.37285 0.54754 0.0
C3658 C 0.12716 0.38211 0.58076 0.0
C3659 C 0.13943 0.40072 0.58174 0.0
C3660 C 0.15355 0.40563 0.56517 0.0
C3661 C 0.15595 0.39148 0.54841 0.0
C3662 C 0.11231 0.37615 0.59836 0.0
C3663 C 0.16653 0.42559 0.5654 0.0
H3664 H 0.11564 0.46019 0.61762 0.0
H3665 H 0.16769 0.42614 0.64433 0.0
H3666 H 0.11639 0.43976 0.56934 0.0
H3667 H 0.09944 0.42037 0.58073 0.0
H3668 H 0.09669 0.44767 0.5882 0.0
H3669 H 0.17768 0.39254 0.63196 0.0
H3670 H 0.16033 0.37871 0.61415 0.0
H3671 H 0.18042 0.39561 0.60388 0.0
H3672 H 0.12047 0.35398 0.56288 0.0
H3673 H 0.16716 0.39494 0.53598 0.0
H3674 H 0.10142 0.38936 0.6019 0.0
H3675 H 0.12149 0.37298 0.61291 0.0
H3676 H 0.10285 0.36193 0.59451 0.0
H3677 H 0.15622 0.43948 0.56798 0.0
H3678 H 0.1754 0.4279 0.55048 0.0
H3679 H 0.17798 0.42504 0.5786 0.0
C3680 C 0.62964 0.1316 0.55907 0.0
C3681 C 0.62601 0.14581 0.54254 0.0
C3682 C 0.61522 0.1297 0.57576 0.0
C3683 C 0.59654 0.14189 0.57552 0.0
C3684 C 0.59249 0.1557 0.55846 0.0
C3685 C 0.60743 0.15772 0.54233 0.0
C3686 C 0.6203 0.11523 0.59395 0.0
C3687 C 0.57251 0.16861 0.55737 0.0
C3688 C 0.54879 0.12809 0.60871 0.0
C3689 C 0.54929 0.14423 0.62377 0.0
C3690 C 0.5646 0.12651 0.59331 0.0
C3691 C 0.58152 0.14108 0.59345 0.0
C3692 C 0.58286 0.15638 0.60964 0.0
C3693 C 0.56654 0.15799 0.62441 0.0
C3694 C 0.5624 0.11026 0.57607 0.0
C3695 C 0.60096 0.1718 0.61069 0.0
H3696 H 0.64409 0.12248 0.55931 0.0
H3697 H 0.60452 0.16856 0.52944 0.0
H3698 H 0.62208 0.12463 0.60859 0.0
H3699 H 0.6072 0.10397 0.59659 0.0
H3700 H 0.63505 0.10617 0.5913 0.0
H3701 H 0.57107 0.17738 0.54229 0.0
H3702 H 0.55854 0.15823 0.55916 0.0
H3703 H 0.57218 0.18012 0.57052 0.0
H3704 H 0.53534 0.11755 0.60811 0.0
H3705 H 0.56698 0.17037 0.63619 0.0
H3706 H 0.57738 0.10155 0.57385 0.0
H3707 H 0.55875 0.1183 0.56097 0.0
H3708 H 0.54964 0.09874 0.57945 0.0
H3709 H 0.61623 0.16344 0.60895 0.0
H3710 H 0.60113 0.18074 0.62575 0.0
H3711 H 0.5997 0.18322 0.59751 0.0
C3712 C 0.43362 0.85339 0.62655 0.0
C3713 C 0.44805 0.83795 0.62015 0.0
C3714 C 0.41564 0.85779 0.61433 0.0
C3715 C 0.41243 0.84673 0.5952 0.0
C3716 C 0.42779 0.83221 0.58805 0.0
C3717 C 0.44527 0.82784 0.60073 0.0
C3718 C 0.39952 0.87322 0.62252 0.0
C3719 C 0.42523 0.8204 0.56752 0.0
C3720 C 0.35959 0.83047 0.57369 0.0
C3721 C 0.35782 0.84345 0.55594 0.0
C3722 C 0.37639 0.83277 0.58779 0.0
C3723 C 0.39208 0.8481 0.58372 0.0
C3724 C 0.3896 0.86223 0.56661 0.0
C3725 C 0.37231 0.85985 0.55297 0.0
C3726 C 0.37817 0.81768 0.60612 0.0
C3727 C 0.40605 0.87868 0.56169 0.0
H3728 H 0.43579 0.86122 0.64159 0.0
H3729 H 0.45663 0.81614 0.59561 0.0
H3730 H 0.39404 0.88385 0.60977 0.0
H3731 H 0.38557 0.86444 0.62836 0.0
H3732 H 0.40584 0.88293 0.63566 0.0
H3733 H 0.43965 0.81148 0.56317 0.0
H3734 H 0.41196 0.80908 0.56889 0.0
H3735 H 0.42138 0.83146 0.55455 0.0
H3736 H 0.34817 0.81799 0.57618 0.0
H3737 H 0.37092 0.86992 0.53923 0.0
H3738 H 0.38239 0.82627 0.62076 0.0
H3739 H 0.3909 0.80612 0.60293 0.0
H3740 H 0.36329 0.80888 0.60886 0.0
H3741 H 0.41146 0.88667 0.57626 0.0
H3742 H 0.40006 0.89073 0.55049 0.0
H3743 H 0.41997 0.87091 0.55448 0.0
loop_
_geom_bond_atom_site_label_1
_geom_bond_atom_site_label_2
_geom_bond_distance
_geom_bond_site_symmetry_2
_ccdc_geom_bond_type
C0 O1 1.306 . S
C0 O3 1.160 . S
O1 C0 1.306 . S
O1 Cd2 2.228 . S
Cd2 O1 2.228 . S
Cd2 O6 2.273 . S
Cd2 O10 2.277 . S
O3 C0 1.160 . S
O3 Cd4 2.203 . S
Cd4 O3 2.203 . S
Cd4 O6 2.411 . S
Cd4 O7 2.333 . S
Cd4 O8 2.352 . S
Cd4 O12 2.277 . S
Cd4 O13 2.356 . S
C5 O10 1.209 1_655 S
C5 O12 1.226 1_655 S
O6 Cd2 2.273 . S
O6 Cd4 2.411 . S
O6 C9 1.320 . S
O7 Cd4 2.333 . S
O7 C9 1.214 . S
O8 Cd4 2.352 . S
O8 C11 1.258 . S
C9 O6 1.320 . S
C9 O7 1.214 . S
O10 Cd2 2.277 . S
O10 C5 1.209 1_455 S
C11 O8 1.258 . S
C11 O13 1.282 . S
O12 Cd4 2.277 . S
O12 C5 1.226 1_455 S
O13 Cd4 2.356 . S
O13 C11 1.282 . S
C14 O15 1.306 . S
C14 O17 1.160 . S
O15 C14 1.306 . S
O15 Cd16 2.228 . S
Cd16 O15 2.228 . S
Cd16 O20 2.273 . S
Cd16 O24 2.277 . S
O17 C14 1.160 . S
O17 Cd18 2.203 . S
Cd18 O17 2.203 . S
Cd18 O20 2.411 . S
Cd18 O21 2.333 . S
Cd18 O22 2.352 . S
Cd18 O26 2.277 . S
Cd18 O27 2.356 . S
C19 O24 1.209 1_565 S
C19 O26 1.226 1_565 S
O20 Cd16 2.273 . S
O20 Cd18 2.411 . S
O20 C23 1.320 . S
O21 Cd18 2.333 . S
O21 C23 1.214 . S
O22 Cd18 2.352 . S
O22 C25 1.258 . S
C23 O20 1.320 . S
C23 O21 1.214 . S
O24 Cd16 2.277 . S
O24 C19 1.209 1_545 S
C25 O22 1.258 . S
C25 O27 1.282 . S
O26 Cd18 2.277 . S
O26 C19 1.226 1_545 S
O27 Cd18 2.356 . S
O27 C25 1.282 . S
C28 O29 1.306 . S
C28 O31 1.160 . S
O29 C28 1.306 . S
O29 Cd30 2.228 . S
Cd30 O29 2.228 . S
Cd30 O34 2.273 . S
Cd30 O38 2.277 . S
O31 C28 1.160 . S
O31 Cd32 2.203 . S
Cd32 O31 2.203 . S
Cd32 O34 2.411 . S
Cd32 O35 2.333 . S
Cd32 O36 2.352 . S
Cd32 O40 2.277 . S
Cd32 O41 2.356 . S
C33 O38 1.209 1_455 S
C33 O40 1.226 1_455 S
O34 Cd30 2.273 . S
O34 Cd32 2.411 . S
O34 C37 1.320 . S
O35 Cd32 2.333 . S
O35 C37 1.214 . S
O36 Cd32 2.352 . S
O36 C39 1.258 . S
C37 O34 1.320 . S
C37 O35 1.214 . S
O38 Cd30 2.277 . S
O38 C33 1.209 1_655 S
C39 O36 1.258 . S
C39 O41 1.282 . S
O40 Cd32 2.277 . S
O40 C33 1.226 1_655 S
O41 Cd32 2.356 . S
O41 C39 1.282 . S
C42 O43 1.306 . S
C42 O45 1.160 . S
O43 C42 1.306 . S
O43 Cd44 2.228 . S
Cd44 O43 2.228 . S
Cd44 O48 2.273 . S
Cd44 O52 2.277 . S
O45 C42 1.160 . S
O45 Cd46 2.203 . S
Cd46 O45 2.203 . S
Cd46 O48 2.411 . S
Cd46 O49 2.333 . S
Cd46 O50 2.352 . S
Cd46 O54 2.277 . S
Cd46 O55 2.356 . S
C47 O52 1.209 1_545 S
C47 O54 1.226 1_545 S
O48 Cd44 2.273 . S
O48 Cd46 2.411 . S
O48 C51 1.320 . S
O49 Cd46 2.333 . S
O49 C51 1.214 . S
O50 Cd46 2.352 . S
O50 C53 1.258 . S
C51 O48 1.320 . S
C51 O49 1.214 . S
O52 Cd44 2.277 . S
O52 C47 1.209 1_565 S
C53 O50 1.258 . S
C53 O55 1.282 . S
O54 Cd46 2.277 . S
O54 C47 1.226 1_565 S
O55 Cd46 2.356 . S
O55 C53 1.282 . S
C56 O57 1.306 . S
C56 O59 1.160 . S
O57 C56 1.306 . S
O57 Cd58 2.228 . S
Cd58 O57 2.228 . S
Cd58 O62 2.273 . S
Cd58 O66 2.277 . S
O59 C56 1.160 . S
O59 Cd60 2.203 . S
Cd60 O59 2.203 . S
Cd60 O62 2.411 . S
Cd60 O63 2.333 . S
Cd60 O64 2.352 . S
Cd60 O68 2.277 . S
Cd60 O69 2.356 . S
C61 O66 1.209 1_655 S
C61 O68 1.226 1_655 S
O62 Cd58 2.273 . S
O62 Cd60 2.411 . S
O62 C65 1.320 . S
O63 Cd60 2.333 . S
O63 C65 1.214 . S
O64 Cd60 2.352 . S
O64 C67 1.258 . S
C65 O62 1.320 . S
C65 O63 1.214 . S
O66 Cd58 2.277 . S
O66 C61 1.209 1_455 S
C67 O64 1.258 . S
C67 O69 1.282 . S
O68 Cd60 2.277 . S
O68 C61 1.226 1_455 S
O69 Cd60 2.356 . S
O69 C67 1.282 . S
C70 O71 1.306 . S
C70 O73 1.160 . S
O71 C70 1.306 . S
O71 Cd72 2.228 . S
Cd72 O71 2.228 . S
Cd72 O76 2.273 . S
Cd72 O80 2.277 . S
O73 C70 1.160 . S
O73 Cd74 2.203 . S
Cd74 O73 2.203 . S
Cd74 O76 2.411 . S
Cd74 O77 2.333 . S
Cd74 O78 2.352 . S
Cd74 O82 2.277 . S
Cd74 O83 2.356 . S
C75 O80 1.209 1_565 S
C75 O82 1.226 1_565 S
O76 Cd72 2.273 . S
O76 Cd74 2.411 . S
O76 C79 1.320 . S
O77 Cd74 2.333 . S
O77 C79 1.214 . S
O78 Cd74 2.352 . S
O78 C81 1.258 . S
C79 O76 1.320 . S
C79 O77 1.214 . S
O80 Cd72 2.277 . S
O80 C75 1.209 1_545 S
C81 O78 1.258 . S
C81 O83 1.282 . S
O82 Cd74 2.277 . S
O82 C75 1.226 1_545 S
O83 Cd74 2.356 . S
O83 C81 1.282 . S
C84 O85 1.306 . S
C84 O87 1.160 . S
O85 C84 1.306 . S
O85 Cd86 2.228 . S
Cd86 O85 2.228 . S
Cd86 O90 2.273 . S
Cd86 O94 2.277 . S
O87 C84 1.160 . S
O87 Cd88 2.203 . S
Cd88 O87 2.203 . S
Cd88 O90 2.411 . S
Cd88 O91 2.333 . S
Cd88 O92 2.352 . S
Cd88 O96 2.277 . S
Cd88 O97 2.356 . S
C89 O94 1.209 1_455 S
C89 O96 1.226 1_455 S
O90 Cd86 2.273 . S
O90 Cd88 2.411 . S
O90 C93 1.320 . S
O91 Cd88 2.333 . S
O91 C93 1.214 . S
O92 Cd88 2.352 . S
O92 C95 1.258 . S
C93 O90 1.320 . S
C93 O91 1.214 . S
O94 Cd86 2.277 . S
O94 C89 1.209 1_655 S
C95 O92 1.258 . S
C95 O97 1.282 . S
O96 Cd88 2.277 . S
O96 C89 1.226 1_655 S
O97 Cd88 2.356 . S
O97 C95 1.282 . S
C98 O99 1.306 . S
C98 O101 1.160 . S
O99 C98 1.306 . S
O99 Cd100 2.228 . S
Cd100 O99 2.228 . S
Cd100 O104 2.273 . S
Cd100 O108 2.277 . S
O101 C98 1.160 . S
O101 Cd102 2.203 . S
Cd102 O101 2.203 . S
Cd102 O104 2.411 . S
Cd102 O105 2.333 . S
Cd102 O106 2.352 . S
Cd102 O110 2.277 . S
Cd102 O111 2.356 . S
C103 O108 1.209 1_545 S
C103 O110 1.226 1_545 S
O104 Cd100 2.273 . S
O104 Cd102 2.411 . S
O104 C107 1.320 . S
O105 Cd102 2.333 . S
O105 C107 1.214 . S
O106 Cd102 2.352 . S
O106 C109 1.258 . S
C107 O104 1.320 . S
C107 O105 1.214 . S
O108 Cd100 2.277 . S
O108 C103 1.209 1_565 S
C109 O106 1.258 . S
C109 O111 1.282 . S
O110 Cd102 2.277 . S
O110 C103 1.226 1_565 S
O111 Cd102 2.356 . S
O111 C109 1.282 . S
C112 O113 1.306 . S
C112 O115 1.160 . S
O113 C112 1.306 . S
O113 Cd114 2.228 . S
Cd114 O113 2.228 . S
Cd114 O118 2.273 . S
Cd114 O122 2.277 . S
O115 C112 1.160 . S
O115 Cd116 2.203 . S
Cd116 O115 2.203 . S
Cd116 O118 2.411 . S
Cd116 O119 2.333 . S
Cd116 O120 2.352 . S
Cd116 O124 2.277 . S
Cd116 O125 2.356 . S
C117 O122 1.209 1_565 S
C117 O124 1.226 1_565 S
O118 Cd114 2.273 . S
O118 Cd116 2.411 . S
O118 C121 1.320 . S
O119 Cd116 2.333 . S
O119 C121 1.214 . S
O120 Cd116 2.352 . S
O120 C123 1.258 . S
C121 O118 1.320 . S
C121 O119 1.214 . S
O122 Cd114 2.277 . S
O122 C117 1.209 1_545 S
C123 O120 1.258 . S
C123 O125 1.282 . S
O124 Cd116 2.277 . S
O124 C117 1.226 1_545 S
O125 Cd116 2.356 . S
O125 C123 1.282 . S
C126 O127 1.306 . S
C126 O129 1.160 . S
O127 C126 1.306 . S
O127 Cd128 2.228 . S
Cd128 O127 2.228 . S
Cd128 O132 2.273 . S
Cd128 O136 2.277 . S
O129 C126 1.160 . S
O129 Cd130 2.203 . S
Cd130 O129 2.203 . S
Cd130 O132 2.411 . S
Cd130 O133 2.333 . S
Cd130 O134 2.352 . S
Cd130 O138 2.277 . S
Cd130 O139 2.356 . S
C131 O136 1.209 1_455 S
C131 O138 1.226 1_455 S
O132 Cd128 2.273 . S
O132 Cd130 2.411 . S
O132 C135 1.320 . S
O133 Cd130 2.333 . S
O133 C135 1.214 . S
O134 Cd130 2.352 . S
O134 C137 1.258 . S
C135 O132 1.320 . S
C135 O133 1.214 . S
O136 Cd128 2.277 . S
O136 C131 1.209 1_655 S
C137 O134 1.258 . S
C137 O139 1.282 . S
O138 Cd130 2.277 . S
O138 C131 1.226 1_655 S
O139 Cd130 2.356 . S
O139 C137 1.282 . S
C140 O141 1.306 . S
C140 O143 1.160 . S
O141 C140 1.306 . S
O141 Cd142 2.228 . S
Cd142 O141 2.228 . S
Cd142 O146 2.273 . S
Cd142 O150 2.277 . S
O143 C140 1.160 . S
O143 Cd144 2.203 . S
Cd144 O143 2.203 . S
Cd144 O146 2.411 . S
Cd144 O147 2.333 . S
Cd144 O148 2.352 . S
Cd144 O152 2.277 . S
Cd144 O153 2.356 . S
C145 O150 1.209 1_545 S
C145 O152 1.226 1_545 S
O146 Cd142 2.273 . S
O146 Cd144 2.411 . S
O146 C149 1.320 . S
O147 Cd144 2.333 . S
O147 C149 1.214 . S
O148 Cd144 2.352 . S
O148 C151 1.258 . S
C149 O146 1.320 . S
C149 O147 1.214 . S
O150 Cd142 2.277 . S
O150 C145 1.209 1_565 S
C151 O148 1.258 . S
C151 O153 1.282 . S
O152 Cd144 2.277 . S
O152 C145 1.226 1_565 S
O153 Cd144 2.356 . S
O153 C151 1.282 . S
C154 O155 1.306 . S
C154 O157 1.160 . S
O155 C154 1.306 . S
O155 Cd156 2.228 . S
Cd156 O155 2.228 . S
Cd156 O160 2.273 . S
Cd156 O164 2.277 . S
O157 C154 1.160 . S
O157 Cd158 2.203 . S
Cd158 O157 2.203 . S
Cd158 O160 2.411 . S
Cd158 O161 2.333 . S
Cd158 O162 2.352 . S
Cd158 O166 2.277 . S
Cd158 O167 2.356 . S
C159 O164 1.209 1_655 S
C159 O166 1.226 1_655 S
O160 Cd156 2.273 . S
O160 Cd158 2.411 . S
O160 C163 1.320 . S
O161 Cd158 2.333 . S
O161 C163 1.214 . S
O162 Cd158 2.352 . S
O162 C165 1.258 . S
C163 O160 1.320 . S
C163 O161 1.214 . S
O164 Cd156 2.277 . S
O164 C159 1.209 1_455 S
C165 O162 1.258 . S
C165 O167 1.282 . S
O166 Cd158 2.277 . S
O166 C159 1.226 1_455 S
O167 Cd158 2.356 . S
O167 C165 1.282 . S
C168 O169 1.306 . S
C168 O171 1.160 . S
O169 C168 1.306 . S
O169 Cd170 2.228 . S
Cd170 O169 2.228 . S
Cd170 O174 2.273 . S
Cd170 O178 2.277 . S
O171 C168 1.160 . S
O171 Cd172 2.203 . S
Cd172 O171 2.203 . S
Cd172 O174 2.411 . S
Cd172 O175 2.333 . S
Cd172 O176 2.352 . S
Cd172 O180 2.277 . S
Cd172 O181 2.356 . S
C173 O178 1.209 1_545 S
C173 O180 1.226 1_545 S
O174 Cd170 2.273 . S
O174 Cd172 2.411 . S
O174 C177 1.320 . S
O175 Cd172 2.333 . S
O175 C177 1.214 . S
O176 Cd172 2.352 . S
O176 C179 1.258 . S
C177 O174 1.320 . S
C177 O175 1.214 . S
O178 Cd170 2.277 . S
O178 C173 1.209 1_565 S
C179 O176 1.258 . S
C179 O181 1.282 . S
O180 Cd172 2.277 . S
O180 C173 1.226 1_565 S
O181 Cd172 2.356 . S
O181 C179 1.282 . S
C182 O183 1.306 . S
C182 O185 1.160 . S
O183 C182 1.306 . S
O183 Cd184 2.228 . S
Cd184 O183 2.228 . S
Cd184 O188 2.273 . S
Cd184 O192 2.277 . S
O185 C182 1.160 . S
O185 Cd186 2.203 . S
Cd186 O185 2.203 . S
Cd186 O188 2.411 . S
Cd186 O189 2.333 . S
Cd186 O190 2.352 . S
Cd186 O194 2.277 . S
Cd186 O195 2.356 . S
C187 O192 1.209 1_655 S
C187 O194 1.226 1_655 S
O188 Cd184 2.273 . S
O188 Cd186 2.411 . S
O188 C191 1.320 . S
O189 Cd186 2.333 . S
O189 C191 1.214 . S
O190 Cd186 2.352 . S
O190 C193 1.258 . S
C191 O188 1.320 . S
C191 O189 1.214 . S
O192 Cd184 2.277 . S
O192 C187 1.209 1_455 S
C193 O190 1.258 . S
C193 O195 1.282 . S
O194 Cd186 2.277 . S
O194 C187 1.226 1_455 S
O195 Cd186 2.356 . S
O195 C193 1.282 . S
C196 O197 1.306 . S
C196 O199 1.160 . S
O197 C196 1.306 . S
O197 Cd198 2.228 . S
Cd198 O197 2.228 . S
Cd198 O202 2.273 . S
Cd198 O206 2.277 . S
O199 C196 1.160 . S
O199 Cd200 2.203 . S
Cd200 O199 2.203 . S
Cd200 O202 2.411 . S
Cd200 O203 2.333 . S
Cd200 O204 2.352 . S
Cd200 O208 2.277 . S
Cd200 O209 2.356 . S
C201 O206 1.209 1_565 S
C201 O208 1.226 1_565 S
O202 Cd198 2.273 . S
O202 Cd200 2.411 . S
O202 C205 1.320 . S
O203 Cd200 2.333 . S
O203 C205 1.214 . S
O204 Cd200 2.352 . S
O204 C207 1.258 . S
C205 O202 1.320 . S
C205 O203 1.214 . S
O206 Cd198 2.277 . S
O206 C201 1.209 1_545 S
C207 O204 1.258 . S
C207 O209 1.282 . S
O208 Cd200 2.277 . S
O208 C201 1.226 1_545 S
O209 Cd200 2.356 . S
O209 C207 1.282 . S
C210 O211 1.306 . S
C210 O213 1.160 . S
O211 C210 1.306 . S
O211 Cd212 2.228 . S
Cd212 O211 2.228 . S
Cd212 O216 2.273 . S
Cd212 O220 2.277 . S
O213 C210 1.160 . S
O213 Cd214 2.203 . S
Cd214 O213 2.203 . S
Cd214 O216 2.411 . S
Cd214 O217 2.333 . S
Cd214 O218 2.352 . S
Cd214 O222 2.277 . S
Cd214 O223 2.356 . S
C215 O220 1.209 1_455 S
C215 O222 1.226 1_455 S
O216 Cd212 2.273 . S
O216 Cd214 2.411 . S
O216 C219 1.320 . S
O217 Cd214 2.333 . S
O217 C219 1.214 . S
O218 Cd214 2.352 . S
O218 C221 1.258 . S
C219 O216 1.320 . S
C219 O217 1.214 . S
O220 Cd212 2.277 . S
O220 C215 1.209 1_655 S
C221 O218 1.258 . S
C221 O223 1.282 . S
O222 Cd214 2.277 . S
O222 C215 1.226 1_655 S
O223 Cd214 2.356 . S
O223 C221 1.282 . S
C224 O225 1.306 . S
C224 O227 1.160 . S
O225 C224 1.306 . S
O225 Cd226 2.228 . S
Cd226 O225 2.228 . S
Cd226 O230 2.273 . S
Cd226 O234 2.277 . S
O227 C224 1.160 . S
O227 Cd228 2.203 . S
Cd228 O227 2.203 . S
Cd228 O230 2.411 . S
Cd228 O231 2.333 . S
Cd228 O232 2.352 . S
Cd228 O236 2.277 . S
Cd228 O237 2.356 . S
C229 O234 1.209 1_556 S
C229 O236 1.226 1_556 S
O230 Cd226 2.273 . S
O230 Cd228 2.411 . S
O230 C233 1.320 . S
O231 Cd228 2.333 . S
O231 C233 1.214 . S
O232 Cd228 2.352 . S
O232 C235 1.258 . S
C233 O230 1.320 . S
C233 O231 1.214 . S
O234 Cd226 2.277 . S
O234 C229 1.209 1_554 S
C235 O232 1.258 . S
C235 O237 1.282 . S
O236 Cd228 2.277 . S
O236 C229 1.226 1_554 S
O237 Cd228 2.356 . S
O237 C235 1.282 . S
C238 O239 1.306 . S
C238 O241 1.160 . S
O239 C238 1.306 . S
O239 Cd240 2.228 . S
Cd240 O239 2.228 . S
Cd240 O244 2.273 . S
Cd240 O248 2.277 . S
O241 C238 1.160 . S
O241 Cd242 2.203 . S
Cd242 O241 2.203 . S
Cd242 O244 2.411 . S
Cd242 O245 2.333 . S
Cd242 O246 2.352 . S
Cd242 O250 2.277 . S
Cd242 O251 2.356 . S
C243 O248 1.209 1_554 S
C243 O250 1.226 1_554 S
O244 Cd240 2.273 . S
O244 Cd242 2.411 . S
O244 C247 1.320 . S
O245 Cd242 2.333 . S
O245 C247 1.214 . S
O246 Cd242 2.352 . S
O246 C249 1.258 . S
C247 O244 1.320 . S
C247 O245 1.214 . S
O248 Cd240 2.277 . S
O248 C243 1.209 1_556 S
C249 O246 1.258 . S
C249 O251 1.282 . S
O250 Cd242 2.277 . S
O250 C243 1.226 1_556 S
O251 Cd242 2.356 . S
O251 C249 1.282 . S
C252 O253 1.306 . S
C252 O255 1.160 . S
O253 C252 1.306 . S
O253 Cd254 2.228 . S
Cd254 O253 2.228 . S
Cd254 O258 2.273 . S
Cd254 O262 2.277 . S
O255 C252 1.160 . S
O255 Cd256 2.203 . S
Cd256 O255 2.203 . S
Cd256 O258 2.411 . S
Cd256 O259 2.333 . S
Cd256 O260 2.352 . S
Cd256 O264 2.277 . S
Cd256 O265 2.356 . S
C257 O262 1.209 1_554 S
C257 O264 1.226 1_554 S
O258 Cd254 2.273 . S
O258 Cd256 2.411 . S
O258 C261 1.320 . S
O259 Cd256 2.333 . S
O259 C261 1.214 . S
O260 Cd256 2.352 . S
O260 C263 1.258 . S
C261 O258 1.320 . S
C261 O259 1.214 . S
O262 Cd254 2.277 . S
O262 C257 1.209 1_556 S
C263 O260 1.258 . S
C263 O265 1.282 . S
O264 Cd256 2.277 . S
O264 C257 1.226 1_556 S
O265 Cd256 2.356 . S
O265 C263 1.282 . S
C266 O267 1.306 . S
C266 O269 1.160 . S
O267 C266 1.306 . S
O267 Cd268 2.228 . S
Cd268 O267 2.228 . S
Cd268 O272 2.273 . S
Cd268 O276 2.277 . S
O269 C266 1.160 . S
O269 Cd270 2.203 . S
Cd270 O269 2.203 . S
Cd270 O272 2.411 . S
Cd270 O273 2.333 . S
Cd270 O274 2.352 . S
Cd270 O278 2.277 . S
Cd270 O279 2.356 . S
C271 O276 1.209 1_554 S
C271 O278 1.226 1_554 S
O272 Cd268 2.273 . S
O272 Cd270 2.411 . S
O272 C275 1.320 . S
O273 Cd270 2.333 . S
O273 C275 1.214 . S
O274 Cd270 2.352 . S
O274 C277 1.258 . S
C275 O272 1.320 . S
C275 O273 1.214 . S
O276 Cd268 2.277 . S
O276 C271 1.209 1_556 S
C277 O274 1.258 . S
C277 O279 1.282 . S
O278 Cd270 2.277 . S
O278 C271 1.226 1_556 S
O279 Cd270 2.356 . S
O279 C277 1.282 . S
C280 O281 1.306 . S
C280 O283 1.160 . S
O281 C280 1.306 . S
O281 Cd282 2.228 . S
Cd282 O281 2.228 . S
Cd282 O286 2.273 . S
Cd282 O290 2.277 . S
O283 C280 1.160 . S
O283 Cd284 2.203 . S
Cd284 O283 2.203 . S
Cd284 O286 2.411 . S
Cd284 O287 2.333 . S
Cd284 O288 2.352 . S
Cd284 O292 2.277 . S
Cd284 O293 2.356 . S
C285 O290 1.209 1_554 S
C285 O292 1.226 1_554 S
O286 Cd282 2.273 . S
O286 Cd284 2.411 . S
O286 C289 1.320 . S
O287 Cd284 2.333 . S
O287 C289 1.214 . S
O288 Cd284 2.352 . S
O288 C291 1.258 . S
C289 O286 1.320 . S
C289 O287 1.214 . S
O290 Cd282 2.277 . S
O290 C285 1.209 1_556 S
C291 O288 1.258 . S
C291 O293 1.282 . S
O292 Cd284 2.277 . S
O292 C285 1.226 1_556 S
O293 Cd284 2.356 . S
O293 C291 1.282 . S
C294 O295 1.306 . S
C294 O297 1.160 . S
O295 C294 1.306 . S
O295 Cd296 2.228 . S
Cd296 O295 2.228 . S
Cd296 O300 2.273 . S
Cd296 O304 2.277 . S
O297 C294 1.160 . S
O297 Cd298 2.203 . S
Cd298 O297 2.203 . S
Cd298 O300 2.411 . S
Cd298 O301 2.333 . S
Cd298 O302 2.352 . S
Cd298 O306 2.277 . S
Cd298 O307 2.356 . S
C299 O304 1.209 1_556 S
C299 O306 1.226 1_556 S
O300 Cd296 2.273 . S
O300 Cd298 2.411 . S
O300 C303 1.320 . S
O301 Cd298 2.333 . S
O301 C303 1.214 . S
O302 Cd298 2.352 . S
O302 C305 1.258 . S
C303 O300 1.320 . S
C303 O301 1.214 . S
O304 Cd296 2.277 . S
O304 C299 1.209 1_554 S
C305 O302 1.258 . S
C305 O307 1.282 . S
O306 Cd298 2.277 . S
O306 C299 1.226 1_554 S
O307 Cd298 2.356 . S
O307 C305 1.282 . S
C308 O309 1.306 . S
C308 O311 1.160 . S
O309 C308 1.306 . S
O309 Cd310 2.228 . S
Cd310 O309 2.228 . S
Cd310 O314 2.273 . S
Cd310 O318 2.277 . S
O311 C308 1.160 . S
O311 Cd312 2.203 . S
Cd312 O311 2.203 . S
Cd312 O314 2.411 . S
Cd312 O315 2.333 . S
Cd312 O316 2.352 . S
Cd312 O320 2.277 . S
Cd312 O321 2.356 . S
C313 O318 1.209 1_556 S
C313 O320 1.226 1_556 S
O314 Cd310 2.273 . S
O314 Cd312 2.411 . S
O314 C317 1.320 . S
O315 Cd312 2.333 . S
O315 C317 1.214 . S
O316 Cd312 2.352 . S
O316 C319 1.258 . S
C317 O314 1.320 . S
C317 O315 1.214 . S
O318 Cd310 2.277 . S
O318 C313 1.209 1_554 S
C319 O316 1.258 . S
C319 O321 1.282 . S
O320 Cd312 2.277 . S
O320 C313 1.226 1_554 S
O321 Cd312 2.356 . S
O321 C319 1.282 . S
C322 O323 1.306 . S
C322 O325 1.160 . S
O323 C322 1.306 . S
O323 Cd324 2.228 . S
Cd324 O323 2.228 . S
Cd324 O328 2.273 . S
Cd324 O332 2.277 . S
O325 C322 1.160 . S
O325 Cd326 2.203 . S
Cd326 O325 2.203 . S
Cd326 O328 2.411 . S
Cd326 O329 2.333 . S
Cd326 O330 2.352 . S
Cd326 O334 2.277 . S
Cd326 O335 2.356 . S
C327 O332 1.209 1_556 S
C327 O334 1.226 1_556 S
O328 Cd324 2.273 . S
O328 Cd326 2.411 . S
O328 C331 1.320 . S
O329 Cd326 2.333 . S
O329 C331 1.214 . S
O330 Cd326 2.352 . S
O330 C333 1.258 . S
C331 O328 1.320 . S
C331 O329 1.214 . S
O332 Cd324 2.277 . S
O332 C327 1.209 1_554 S
C333 O330 1.258 . S
C333 O335 1.282 . S
O334 Cd326 2.277 . S
O334 C327 1.226 1_554 S
O335 Cd326 2.356 . S
O335 C333 1.282 . S
C336 O337 1.306 . S
C336 O339 1.160 . S
O337 C336 1.306 . S
O337 Cd338 2.228 . S
Cd338 O337 2.228 . S
Cd338 O342 2.273 . S
Cd338 O346 2.277 . S
O339 C336 1.160 . S
O339 Cd340 2.203 . S
Cd340 O339 2.203 . S
Cd340 O342 2.411 . S
Cd340 O343 2.333 . S
Cd340 O344 2.352 . S
Cd340 O348 2.277 . S
Cd340 O349 2.356 . S
C341 O346 1.209 . S
C341 O348 1.226 . S
O342 Cd338 2.273 . S
O342 Cd340 2.411 . S
O342 C345 1.320 . S
O343 Cd340 2.333 . S
O343 C345 1.214 . S
O344 Cd340 2.352 . S
O344 C347 1.258 . S
C345 O342 1.320 . S
C345 O343 1.214 . S
O346 Cd338 2.277 . S
O346 C341 1.209 . S
C347 O344 1.258 . S
C347 O349 1.282 . S
O348 Cd340 2.277 . S
O348 C341 1.226 . S
O349 Cd340 2.356 . S
O349 C347 1.282 . S
C350 O351 1.306 . S
C350 O353 1.160 . S
O351 C350 1.306 . S
O351 Cd352 2.228 . S
Cd352 O351 2.228 . S
Cd352 O356 2.273 . S
Cd352 O360 2.277 . S
O353 C350 1.160 . S
O353 Cd354 2.203 . S
Cd354 O353 2.203 . S
Cd354 O356 2.411 . S
Cd354 O357 2.333 . S
Cd354 O358 2.352 . S
Cd354 O362 2.277 . S
Cd354 O363 2.356 . S
C355 O360 1.209 . S
C355 O362 1.226 . S
O356 Cd352 2.273 . S
O356 Cd354 2.411 . S
O356 C359 1.320 . S
O357 Cd354 2.333 . S
O357 C359 1.214 . S
O358 Cd354 2.352 . S
O358 C361 1.258 . S
C359 O356 1.320 . S
C359 O357 1.214 . S
O360 Cd352 2.277 . S
O360 C355 1.209 . S
C361 O358 1.258 . S
C361 O363 1.282 . S
O362 Cd354 2.277 . S
O362 C355 1.226 . S
O363 Cd354 2.356 . S
O363 C361 1.282 . S
C364 O365 1.306 . S
C364 O367 1.160 . S
O365 C364 1.306 . S
O365 Cd366 2.228 . S
Cd366 O365 2.228 . S
Cd366 O370 2.273 . S
Cd366 O374 2.277 . S
O367 C364 1.160 . S
O367 Cd368 2.203 . S
Cd368 O367 2.203 . S
Cd368 O370 2.411 . S
Cd368 O371 2.333 . S
Cd368 O372 2.352 . S
Cd368 O376 2.277 . S
Cd368 O377 2.356 . S
C369 O374 1.209 . S
C369 O376 1.226 . S
O370 Cd366 2.273 . S
O370 Cd368 2.411 . S
O370 C373 1.320 . S
O371 Cd368 2.333 . S
O371 C373 1.214 . S
O372 Cd368 2.352 . S
O372 C375 1.258 . S
C373 O370 1.320 . S
C373 O371 1.214 . S
O374 Cd366 2.277 . S
O374 C369 1.209 . S
C375 O372 1.258 . S
C375 O377 1.282 . S
O376 Cd368 2.277 . S
O376 C369 1.226 . S
O377 Cd368 2.356 . S
O377 C375 1.282 . S
C378 O379 1.306 . S
C378 O381 1.160 . S
O379 C378 1.306 . S
O379 Cd380 2.228 . S
Cd380 O379 2.228 . S
Cd380 O384 2.273 . S
Cd380 O388 2.277 . S
O381 C378 1.160 . S
O381 Cd382 2.203 . S
Cd382 O381 2.203 . S
Cd382 O384 2.411 . S
Cd382 O385 2.333 . S
Cd382 O386 2.352 . S
Cd382 O390 2.277 . S
Cd382 O391 2.356 . S
C383 O388 1.209 . S
C383 O390 1.226 . S
O384 Cd380 2.273 . S
O384 Cd382 2.411 . S
O384 C387 1.320 . S
O385 Cd382 2.333 . S
O385 C387 1.214 . S
O386 Cd382 2.352 . S
O386 C389 1.258 . S
C387 O384 1.320 . S
C387 O385 1.214 . S
O388 Cd380 2.277 . S
O388 C383 1.209 . S
C389 O386 1.258 . S
C389 O391 1.282 . S
O390 Cd382 2.277 . S
O390 C383 1.226 . S
O391 Cd382 2.356 . S
O391 C389 1.282 . S
C392 O393 1.306 . S
C392 O395 1.160 . S
O393 C392 1.306 . S
O393 Cd394 2.228 . S
Cd394 O393 2.228 . S
Cd394 O398 2.273 . S
Cd394 O402 2.277 . S
O395 C392 1.160 . S
O395 Cd396 2.203 . S
Cd396 O395 2.203 . S
Cd396 O398 2.411 . S
Cd396 O399 2.333 . S
Cd396 O400 2.352 . S
Cd396 O404 2.277 . S
Cd396 O405 2.356 . S
C397 O402 1.209 . S
C397 O404 1.226 . S
O398 Cd394 2.273 . S
O398 Cd396 2.411 . S
O398 C401 1.320 . S
O399 Cd396 2.333 . S
O399 C401 1.214 . S
O400 Cd396 2.352 . S
O400 C403 1.258 . S
C401 O398 1.320 . S
C401 O399 1.214 . S
O402 Cd394 2.277 . S
O402 C397 1.209 . S
C403 O400 1.258 . S
C403 O405 1.282 . S
O404 Cd396 2.277 . S
O404 C397 1.226 . S
O405 Cd396 2.356 . S
O405 C403 1.282 . S
C406 O407 1.306 . S
C406 O409 1.160 . S
O407 C406 1.306 . S
O407 Cd408 2.228 . S
Cd408 O407 2.228 . S
Cd408 O412 2.273 . S
Cd408 O416 2.277 . S
O409 C406 1.160 . S
O409 Cd410 2.203 . S
Cd410 O409 2.203 . S
Cd410 O412 2.411 . S
Cd410 O413 2.333 . S
Cd410 O414 2.352 . S
Cd410 O418 2.277 . S
Cd410 O419 2.356 . S
C411 O416 1.209 . S
C411 O418 1.226 . S
O412 Cd408 2.273 . S
O412 Cd410 2.411 . S
O412 C415 1.320 . S
O413 Cd410 2.333 . S
O413 C415 1.214 . S
O414 Cd410 2.352 . S
O414 C417 1.258 . S
C415 O412 1.320 . S
C415 O413 1.214 . S
O416 Cd408 2.277 . S
O416 C411 1.209 . S
C417 O414 1.258 . S
C417 O419 1.282 . S
O418 Cd410 2.277 . S
O418 C411 1.226 . S
O419 Cd410 2.356 . S
O419 C417 1.282 . S
C420 O421 1.306 . S
C420 O423 1.160 . S
O421 C420 1.306 . S
O421 Cd422 2.228 . S
Cd422 O421 2.228 . S
Cd422 O426 2.273 . S
Cd422 O430 2.277 . S
O423 C420 1.160 . S
O423 Cd424 2.203 . S
Cd424 O423 2.203 . S
Cd424 O426 2.411 . S
Cd424 O427 2.333 . S
Cd424 O428 2.352 . S
Cd424 O432 2.277 . S
Cd424 O433 2.356 . S
C425 O430 1.209 . S
C425 O432 1.226 . S
O426 Cd422 2.273 . S
O426 Cd424 2.411 . S
O426 C429 1.320 . S
O427 Cd424 2.333 . S
O427 C429 1.214 . S
O428 Cd424 2.352 . S
O428 C431 1.258 . S
C429 O426 1.320 . S
C429 O427 1.214 . S
O430 Cd422 2.277 . S
O430 C425 1.209 . S
C431 O428 1.258 . S
C431 O433 1.282 . S
O432 Cd424 2.277 . S
O432 C425 1.226 . S
O433 Cd424 2.356 . S
O433 C431 1.282 . S
C434 O435 1.306 . S
C434 O437 1.160 . S
O435 C434 1.306 . S
O435 Cd436 2.228 . S
Cd436 O435 2.228 . S
Cd436 O440 2.273 . S
Cd436 O444 2.277 . S
O437 C434 1.160 . S
O437 Cd438 2.203 . S
Cd438 O437 2.203 . S
Cd438 O440 2.411 . S
Cd438 O441 2.333 . S
Cd438 O442 2.352 . S
Cd438 O446 2.277 . S
Cd438 O447 2.356 . S
C439 O444 1.209 . S
C439 O446 1.226 . S
O440 Cd436 2.273 . S
O440 Cd438 2.411 . S
O440 C443 1.320 . S
O441 Cd438 2.333 . S
O441 C443 1.214 . S
O442 Cd438 2.352 . S
O442 C445 1.258 . S
C443 O440 1.320 . S
C443 O441 1.214 . S
O444 Cd436 2.277 . S
O444 C439 1.209 . S
C445 O442 1.258 . S
C445 O447 1.282 . S
O446 Cd438 2.277 . S
O446 C439 1.226 . S
O447 Cd438 2.356 . S
O447 C445 1.282 . S
C448 O449 1.306 . S
C448 O451 1.160 . S
O449 C448 1.306 . S
O449 Cd450 2.228 . S
Cd450 O449 2.228 . S
Cd450 O454 2.273 . S
Cd450 O458 2.277 . S
O451 C448 1.160 . S
O451 Cd452 2.203 . S
Cd452 O451 2.203 . S
Cd452 O454 2.411 . S
Cd452 O455 2.333 . S
Cd452 O456 2.352 . S
Cd452 O460 2.277 . S
Cd452 O461 2.356 . S
C453 O458 1.209 . S
C453 O460 1.226 . S
O454 Cd450 2.273 . S
O454 Cd452 2.411 . S
O454 C457 1.320 . S
O455 Cd452 2.333 . S
O455 C457 1.214 . S
O456 Cd452 2.352 . S
O456 C459 1.258 . S
C457 O454 1.320 . S
C457 O455 1.214 . S
O458 Cd450 2.277 . S
O458 C453 1.209 . S
C459 O456 1.258 . S
C459 O461 1.282 . S
O460 Cd452 2.277 . S
O460 C453 1.226 . S
O461 Cd452 2.356 . S
O461 C459 1.282 . S
C462 O463 1.306 . S
C462 O465 1.160 . S
O463 C462 1.306 . S
O463 Cd464 2.228 . S
Cd464 O463 2.228 . S
Cd464 O468 2.273 . S
Cd464 O472 2.277 . S
O465 C462 1.160 . S
O465 Cd466 2.203 . S
Cd466 O465 2.203 . S
Cd466 O468 2.411 . S
Cd466 O469 2.333 . S
Cd466 O470 2.352 . S
Cd466 O474 2.277 . S
Cd466 O475 2.356 . S
C467 O472 1.209 . S
C467 O474 1.226 . S
O468 Cd464 2.273 . S
O468 Cd466 2.411 . S
O468 C471 1.320 . S
O469 Cd466 2.333 . S
O469 C471 1.214 . S
O470 Cd466 2.352 . S
O470 C473 1.258 . S
C471 O468 1.320 . S
C471 O469 1.214 . S
O472 Cd464 2.277 . S
O472 C467 1.209 . S
C473 O470 1.258 . S
C473 O475 1.282 . S
O474 Cd466 2.277 . S
O474 C467 1.226 . S
O475 Cd466 2.356 . S
O475 C473 1.282 . S
C476 O477 1.306 . S
C476 O479 1.160 . S
O477 C476 1.306 . S
O477 Cd478 2.228 . S
Cd478 O477 2.228 . S
Cd478 O482 2.273 . S
Cd478 O486 2.277 . S
O479 C476 1.160 . S
O479 Cd480 2.203 . S
Cd480 O479 2.203 . S
Cd480 O482 2.411 . S
Cd480 O483 2.333 . S
Cd480 O484 2.352 . S
Cd480 O488 2.277 . S
Cd480 O489 2.356 . S
C481 O486 1.209 . S
C481 O488 1.226 . S
O482 Cd478 2.273 . S
O482 Cd480 2.411 . S
O482 C485 1.320 . S
O483 Cd480 2.333 . S
O483 C485 1.214 . S
O484 Cd480 2.352 . S
O484 C487 1.258 . S
C485 O482 1.320 . S
C485 O483 1.214 . S
O486 Cd478 2.277 . S
O486 C481 1.209 . S
C487 O484 1.258 . S
C487 O489 1.282 . S
O488 Cd480 2.277 . S
O488 C481 1.226 . S
O489 Cd480 2.356 . S
O489 C487 1.282 . S
C490 O491 1.306 . S
C490 O493 1.160 . S
O491 C490 1.306 . S
O491 Cd492 2.228 . S
Cd492 O491 2.228 . S
Cd492 O496 2.273 . S
Cd492 O500 2.277 . S
O493 C490 1.160 . S
O493 Cd494 2.203 . S
Cd494 O493 2.203 . S
Cd494 O496 2.411 . S
Cd494 O497 2.333 . S
Cd494 O498 2.352 . S
Cd494 O502 2.277 . S
Cd494 O503 2.356 . S
C495 O500 1.209 . S
C495 O502 1.226 . S
O496 Cd492 2.273 . S
O496 Cd494 2.411 . S
O496 C499 1.320 . S
O497 Cd494 2.333 . S
O497 C499 1.214 . S
O498 Cd494 2.352 . S
O498 C501 1.258 . S
C499 O496 1.320 . S
C499 O497 1.214 . S
O500 Cd492 2.277 . S
O500 C495 1.209 . S
C501 O498 1.258 . S
C501 O503 1.282 . S
O502 Cd494 2.277 . S
O502 C495 1.226 . S
O503 Cd494 2.356 . S
O503 C501 1.282 . S
C504 O505 1.306 . S
C504 O507 1.160 . S
O505 C504 1.306 . S
O505 Cd506 2.228 . S
Cd506 O505 2.228 . S
Cd506 O510 2.273 . S
Cd506 O514 2.277 . S
O507 C504 1.160 . S
O507 Cd508 2.203 . S
Cd508 O507 2.203 . S
Cd508 O510 2.411 . S
Cd508 O511 2.333 . S
Cd508 O512 2.352 . S
Cd508 O516 2.277 . S
Cd508 O517 2.356 . S
C509 O514 1.209 . S
C509 O516 1.226 . S
O510 Cd506 2.273 . S
O510 Cd508 2.411 . S
O510 C513 1.320 . S
O511 Cd508 2.333 . S
O511 C513 1.214 . S
O512 Cd508 2.352 . S
O512 C515 1.258 . S
C513 O510 1.320 . S
C513 O511 1.214 . S
O514 Cd506 2.277 . S
O514 C509 1.209 . S
C515 O512 1.258 . S
C515 O517 1.282 . S
O516 Cd508 2.277 . S
O516 C509 1.226 . S
O517 Cd508 2.356 . S
O517 C515 1.282 . S
C518 O519 1.306 . S
C518 O521 1.160 . S
O519 C518 1.306 . S
O519 Cd520 2.228 . S
Cd520 O519 2.228 . S
Cd520 O524 2.273 . S
Cd520 O528 2.277 . S
O521 C518 1.160 . S
O521 Cd522 2.203 . S
Cd522 O521 2.203 . S
Cd522 O524 2.411 . S
Cd522 O525 2.333 . S
Cd522 O526 2.352 . S
Cd522 O530 2.277 . S
Cd522 O531 2.356 . S
C523 O528 1.209 . S
C523 O530 1.226 . S
O524 Cd520 2.273 . S
O524 Cd522 2.411 . S
O524 C527 1.320 . S
O525 Cd522 2.333 . S
O525 C527 1.214 . S
O526 Cd522 2.352 . S
O526 C529 1.258 . S
C527 O524 1.320 . S
C527 O525 1.214 . S
O528 Cd520 2.277 . S
O528 C523 1.209 . S
C529 O526 1.258 . S
C529 O531 1.282 . S
O530 Cd522 2.277 . S
O530 C523 1.226 . S
O531 Cd522 2.356 . S
O531 C529 1.282 . S
C532 O533 1.306 . S
C532 O535 1.160 . S
O533 C532 1.306 . S
O533 Cd534 2.228 . S
Cd534 O533 2.228 . S
Cd534 O538 2.273 . S
Cd534 O542 2.277 . S
O535 C532 1.160 . S
O535 Cd536 2.203 . S
Cd536 O535 2.203 . S
Cd536 O538 2.411 . S
Cd536 O539 2.333 . S
Cd536 O540 2.352 . S
Cd536 O544 2.277 . S
Cd536 O545 2.356 . S
C537 O542 1.209 . S
C537 O544 1.226 . S
O538 Cd534 2.273 . S
O538 Cd536 2.411 . S
O538 C541 1.320 . S
O539 Cd536 2.333 . S
O539 C541 1.214 . S
O540 Cd536 2.352 . S
O540 C543 1.258 . S
C541 O538 1.320 . S
C541 O539 1.214 . S
O542 Cd534 2.277 . S
O542 C537 1.209 . S
C543 O540 1.258 . S
C543 O545 1.282 . S
O544 Cd536 2.277 . S
O544 C537 1.226 . S
O545 Cd536 2.356 . S
O545 C543 1.282 . S
C546 O547 1.306 . S
C546 O549 1.160 . S
O547 C546 1.306 . S
O547 Cd548 2.228 . S
Cd548 O547 2.228 . S
Cd548 O552 2.273 . S
Cd548 O556 2.277 . S
O549 C546 1.160 . S
O549 Cd550 2.203 . S
Cd550 O549 2.203 . S
Cd550 O552 2.411 . S
Cd550 O553 2.333 . S
Cd550 O554 2.352 . S
Cd550 O558 2.277 . S
Cd550 O559 2.356 . S
C551 O556 1.209 . S
C551 O558 1.226 . S
O552 Cd548 2.273 . S
O552 Cd550 2.411 . S
O552 C555 1.320 . S
O553 Cd550 2.333 . S
O553 C555 1.214 . S
O554 Cd550 2.352 . S
O554 C557 1.258 . S
C555 O552 1.320 . S
C555 O553 1.214 . S
O556 Cd548 2.277 . S
O556 C551 1.209 . S
C557 O554 1.258 . S
C557 O559 1.282 . S
O558 Cd550 2.277 . S
O558 C551 1.226 . S
O559 Cd550 2.356 . S
O559 C557 1.282 . S
C560 O561 1.306 . S
C560 O563 1.160 . S
O561 C560 1.306 . S
O561 Cd562 2.228 . S
Cd562 O561 2.228 . S
Cd562 O566 2.273 . S
Cd562 O570 2.277 . S
O563 C560 1.160 . S
O563 Cd564 2.203 . S
Cd564 O563 2.203 . S
Cd564 O566 2.411 . S
Cd564 O567 2.333 . S
Cd564 O568 2.352 . S
Cd564 O572 2.277 . S
Cd564 O573 2.356 . S
C565 O570 1.209 . S
C565 O572 1.226 . S
O566 Cd562 2.273 . S
O566 Cd564 2.411 . S
O566 C569 1.320 . S
O567 Cd564 2.333 . S
O567 C569 1.214 . S
O568 Cd564 2.352 . S
O568 C571 1.258 . S
C569 O566 1.320 . S
C569 O567 1.214 . S
O570 Cd562 2.277 . S
O570 C565 1.209 . S
C571 O568 1.258 . S
C571 O573 1.282 . S
O572 Cd564 2.277 . S
O572 C565 1.226 . S
O573 Cd564 2.356 . S
O573 C571 1.282 . S
C574 O575 1.306 . S
C574 O577 1.160 . S
O575 C574 1.306 . S
O575 Cd576 2.228 . S
Cd576 O575 2.228 . S
Cd576 O580 2.273 . S
Cd576 O584 2.277 . S
O577 C574 1.160 . S
O577 Cd578 2.203 . S
Cd578 O577 2.203 . S
Cd578 O580 2.411 . S
Cd578 O581 2.333 . S
Cd578 O582 2.352 . S
Cd578 O586 2.277 . S
Cd578 O587 2.356 . S
C579 O584 1.209 . S
C579 O586 1.226 . S
O580 Cd576 2.273 . S
O580 Cd578 2.411 . S
O580 C583 1.320 . S
O581 Cd578 2.333 . S
O581 C583 1.214 . S
O582 Cd578 2.352 . S
O582 C585 1.258 . S
C583 O580 1.320 . S
C583 O581 1.214 . S
O584 Cd576 2.277 . S
O584 C579 1.209 . S
C585 O582 1.258 . S
C585 O587 1.282 . S
O586 Cd578 2.277 . S
O586 C579 1.226 . S
O587 Cd578 2.356 . S
O587 C585 1.282 . S
C588 O589 1.306 . S
C588 O591 1.160 . S
O589 C588 1.306 . S
O589 Cd590 2.228 . S
Cd590 O589 2.228 . S
Cd590 O594 2.273 . S
Cd590 O598 2.277 . S
O591 C588 1.160 . S
O591 Cd592 2.203 . S
Cd592 O591 2.203 . S
Cd592 O594 2.411 . S
Cd592 O595 2.333 . S
Cd592 O596 2.352 . S
Cd592 O600 2.277 . S
Cd592 O601 2.356 . S
C593 O598 1.209 . S
C593 O600 1.226 . S
O594 Cd590 2.273 . S
O594 Cd592 2.411 . S
O594 C597 1.320 . S
O595 Cd592 2.333 . S
O595 C597 1.214 . S
O596 Cd592 2.352 . S
O596 C599 1.258 . S
C597 O594 1.320 . S
C597 O595 1.214 . S
O598 Cd590 2.277 . S
O598 C593 1.209 . S
C599 O596 1.258 . S
C599 O601 1.282 . S
O600 Cd592 2.277 . S
O600 C593 1.226 . S
O601 Cd592 2.356 . S
O601 C599 1.282 . S
C602 O603 1.306 . S
C602 O605 1.160 . S
O603 C602 1.306 . S
O603 Cd604 2.228 . S
Cd604 O603 2.228 . S
Cd604 O608 2.273 . S
Cd604 O612 2.277 . S
O605 C602 1.160 . S
O605 Cd606 2.203 . S
Cd606 O605 2.203 . S
Cd606 O608 2.411 . S
Cd606 O609 2.333 . S
Cd606 O610 2.352 . S
Cd606 O614 2.277 . S
Cd606 O615 2.356 . S
C607 O612 1.209 . S
C607 O614 1.226 . S
O608 Cd604 2.273 . S
O608 Cd606 2.411 . S
O608 C611 1.320 . S
O609 Cd606 2.333 . S
O609 C611 1.214 . S
O610 Cd606 2.352 . S
O610 C613 1.258 . S
C611 O608 1.320 . S
C611 O609 1.214 . S
O612 Cd604 2.277 . S
O612 C607 1.209 . S
C613 O610 1.258 . S
C613 O615 1.282 . S
O614 Cd606 2.277 . S
O614 C607 1.226 . S
O615 Cd606 2.356 . S
O615 C613 1.282 . S
C616 O617 1.306 . S
C616 O619 1.160 . S
O617 C616 1.306 . S
O617 Cd618 2.228 . S
Cd618 O617 2.228 . S
Cd618 O622 2.273 . S
Cd618 O626 2.277 . S
O619 C616 1.160 . S
O619 Cd620 2.203 . S
Cd620 O619 2.203 . S
Cd620 O622 2.411 . S
Cd620 O623 2.333 . S
Cd620 O624 2.352 . S
Cd620 O628 2.277 . S
Cd620 O629 2.356 . S
C621 O626 1.209 . S
C621 O628 1.226 . S
O622 Cd618 2.273 . S
O622 Cd620 2.411 . S
O622 C625 1.320 . S
O623 Cd620 2.333 . S
O623 C625 1.214 . S
O624 Cd620 2.352 . S
O624 C627 1.258 . S
C625 O622 1.320 . S
C625 O623 1.214 . S
O626 Cd618 2.277 . S
O626 C621 1.209 . S
C627 O624 1.258 . S
C627 O629 1.282 . S
O628 Cd620 2.277 . S
O628 C621 1.226 . S
O629 Cd620 2.356 . S
O629 C627 1.282 . S
C630 O631 1.306 . S
C630 O633 1.160 . S
O631 C630 1.306 . S
O631 Cd632 2.228 . S
Cd632 O631 2.228 . S
Cd632 O636 2.273 . S
Cd632 O640 2.277 . S
O633 C630 1.160 . S
O633 Cd634 2.203 . S
Cd634 O633 2.203 . S
Cd634 O636 2.411 . S
Cd634 O637 2.333 . S
Cd634 O638 2.352 . S
Cd634 O642 2.277 . S
Cd634 O643 2.356 . S
C635 O640 1.209 . S
C635 O642 1.226 . S
O636 Cd632 2.273 . S
O636 Cd634 2.411 . S
O636 C639 1.320 . S
O637 Cd634 2.333 . S
O637 C639 1.214 . S
O638 Cd634 2.352 . S
O638 C641 1.258 . S
C639 O636 1.320 . S
C639 O637 1.214 . S
O640 Cd632 2.277 . S
O640 C635 1.209 . S
C641 O638 1.258 . S
C641 O643 1.282 . S
O642 Cd634 2.277 . S
O642 C635 1.226 . S
O643 Cd634 2.356 . S
O643 C641 1.282 . S
C644 O645 1.306 . S
C644 O647 1.160 . S
O645 C644 1.306 . S
O645 Cd646 2.228 . S
Cd646 O645 2.228 . S
Cd646 O650 2.273 . S
Cd646 O654 2.277 . S
O647 C644 1.160 . S
O647 Cd648 2.203 . S
Cd648 O647 2.203 . S
Cd648 O650 2.411 . S
Cd648 O651 2.333 . S
Cd648 O652 2.352 . S
Cd648 O656 2.277 . S
Cd648 O657 2.356 . S
C649 O654 1.209 . S
C649 O656 1.226 . S
O650 Cd646 2.273 . S
O650 Cd648 2.411 . S
O650 C653 1.320 . S
O651 Cd648 2.333 . S
O651 C653 1.214 . S
O652 Cd648 2.352 . S
O652 C655 1.258 . S
C653 O650 1.320 . S
C653 O651 1.214 . S
O654 Cd646 2.277 . S
O654 C649 1.209 . S
C655 O652 1.258 . S
C655 O657 1.282 . S
O656 Cd648 2.277 . S
O656 C649 1.226 . S
O657 Cd648 2.356 . S
O657 C655 1.282 . S
C658 O659 1.306 . S
C658 O661 1.160 . S
O659 C658 1.306 . S
O659 Cd660 2.228 . S
Cd660 O659 2.228 . S
Cd660 O664 2.273 . S
Cd660 O668 2.277 . S
O661 C658 1.160 . S
O661 Cd662 2.203 . S
Cd662 O661 2.203 . S
Cd662 O664 2.411 . S
Cd662 O665 2.333 . S
Cd662 O666 2.352 . S
Cd662 O670 2.277 . S
Cd662 O671 2.356 . S
C663 O668 1.209 . S
C663 O670 1.226 . S
O664 Cd660 2.273 . S
O664 Cd662 2.411 . S
O664 C667 1.320 . S
O665 Cd662 2.333 . S
O665 C667 1.214 . S
O666 Cd662 2.352 . S
O666 C669 1.258 . S
C667 O664 1.320 . S
C667 O665 1.214 . S
O668 Cd660 2.277 . S
O668 C663 1.209 . S
C669 O666 1.258 . S
C669 O671 1.282 . S
O670 Cd662 2.277 . S
O670 C663 1.226 . S
O671 Cd662 2.356 . S
O671 C669 1.282 . S
C672 C673 1.391 . S
C672 C674 1.394 . S
C672 H688 0.931 . S
C673 C672 1.391 . S
C673 C677 1.376 . S
C674 C672 1.394 . S
C674 C675 1.369 . S
C674 C678 1.531 . S
C675 C674 1.369 . S
C675 C676 1.410 . S
C675 C683 1.503 . S
C676 C675 1.410 . S
C676 C677 1.392 . S
C676 C679 1.511 . S
C677 C673 1.376 . S
C677 C676 1.392 . S
C677 H689 0.929 . S
C678 C674 1.531 . S
C678 H690 0.960 . S
C678 H691 0.962 . S
C678 H692 0.960 . S
C679 C676 1.511 . S
C679 H693 0.961 . S
C679 H694 0.961 . S
C679 H695 0.961 . S
C680 C681 1.370 . S
C680 C682 1.363 . S
C680 H696 0.931 . S
C681 C680 1.370 . S
C681 C685 1.408 . S
C682 C680 1.363 . S
C682 C683 1.370 . S
C682 C686 1.524 . S
C683 C675 1.503 . S
C683 C682 1.370 . S
C683 C684 1.403 . S
C684 C683 1.403 . S
C684 C685 1.404 . S
C684 C687 1.539 . S
C685 C681 1.408 . S
C685 C684 1.404 . S
C685 H697 0.930 . S
C686 C682 1.524 . S
C686 H698 0.956 . S
C686 H699 0.961 . S
C686 H700 0.961 . S
C687 C684 1.539 . S
C687 H701 0.958 . S
C687 H702 0.961 . S
C687 H703 0.960 . S
H688 C672 0.931 . S
H689 C677 0.929 . S
H690 C678 0.960 . S
H691 C678 0.962 . S
H692 C678 0.960 . S
H693 C679 0.961 . S
H694 C679 0.961 . S
H695 C679 0.961 . S
H696 C680 0.931 . S
H697 C685 0.930 . S
H698 C686 0.956 . S
H699 C686 0.961 . S
H700 C686 0.961 . S
H701 C687 0.958 . S
H702 C687 0.961 . S
H703 C687 0.960 . S
C704 C705 1.391 . S
C704 C706 1.394 . S
C704 H720 0.931 . S
C705 C704 1.391 . S
C705 C709 1.376 . S
C706 C704 1.394 . S
C706 C707 1.369 . S
C706 C710 1.531 . S
C707 C706 1.369 . S
C707 C708 1.410 . S
C707 C715 1.503 . S
C708 C707 1.410 . S
C708 C709 1.392 . S
C708 C711 1.511 . S
C709 C705 1.376 . S
C709 C708 1.392 . S
C709 H721 0.929 . S
C710 C706 1.531 . S
C710 H722 0.960 . S
C710 H723 0.962 . S
C710 H724 0.960 . S
C711 C708 1.511 . S
C711 H725 0.961 . S
C711 H726 0.961 . S
C711 H727 0.961 . S
C712 C713 1.370 . S
C712 C714 1.363 . S
C712 H728 0.931 . S
C713 C712 1.370 . S
C713 C717 1.408 . S
C714 C712 1.363 . S
C714 C715 1.370 . S
C714 C718 1.524 . S
C715 C707 1.503 . S
C715 C714 1.370 . S
C715 C716 1.403 . S
C716 C715 1.403 . S
C716 C717 1.404 . S
C716 C719 1.539 . S
C717 C713 1.408 . S
C717 C716 1.404 . S
C717 H729 0.930 . S
C718 C714 1.524 . S
C718 H730 0.956 . S
C718 H731 0.961 . S
C718 H732 0.961 . S
C719 C716 1.539 . S
C719 H733 0.958 . S
C719 H734 0.961 . S
C719 H735 0.960 . S
H720 C704 0.931 . S
H721 C709 0.929 . S
H722 C710 0.960 . S
H723 C710 0.962 . S
H724 C710 0.960 . S
H725 C711 0.961 . S
H726 C711 0.961 . S
H727 C711 0.961 . S
H728 C712 0.931 . S
H729 C717 0.930 . S
H730 C718 0.956 . S
H731 C718 0.961 . S
H732 C718 0.961 . S
H733 C719 0.958 . S
H734 C719 0.961 . S
H735 C719 0.960 . S
C736 C737 1.391 . S
C736 C738 1.394 . S
C736 H752 0.931 . S
C737 C736 1.391 . S
C737 C741 1.376 . S
C738 C736 1.394 . S
C738 C739 1.369 . S
C738 C742 1.531 . S
C739 C738 1.369 . S
C739 C740 1.410 . S
C739 C747 1.503 . S
C740 C739 1.410 . S
C740 C741 1.392 . S
C740 C743 1.511 . S
C741 C737 1.376 . S
C741 C740 1.392 . S
C741 H753 0.929 . S
C742 C738 1.531 . S
C742 H754 0.960 . S
C742 H755 0.962 . S
C742 H756 0.960 . S
C743 C740 1.511 . S
C743 H757 0.961 . S
C743 H758 0.961 . S
C743 H759 0.961 . S
C744 C745 1.370 . S
C744 C746 1.363 . S
C744 H760 0.931 . S
C745 C744 1.370 . S
C745 C749 1.408 . S
C746 C744 1.363 . S
C746 C747 1.370 . S
C746 C750 1.524 . S
C747 C739 1.503 . S
C747 C746 1.370 . S
C747 C748 1.403 . S
C748 C747 1.403 . S
C748 C749 1.404 . S
C748 C751 1.539 . S
C749 C745 1.408 . S
C749 C748 1.404 . S
C749 H761 0.930 . S
C750 C746 1.524 . S
C750 H762 0.956 . S
C750 H763 0.961 . S
C750 H764 0.961 . S
C751 C748 1.539 . S
C751 H765 0.958 . S
C751 H766 0.961 . S
C751 H767 0.960 . S
H752 C736 0.931 . S
H753 C741 0.929 . S
H754 C742 0.960 . S
H755 C742 0.962 . S
H756 C742 0.960 . S
H757 C743 0.961 . S
H758 C743 0.961 . S
H759 C743 0.961 . S
H760 C744 0.931 . S
H761 C749 0.930 . S
H762 C750 0.956 . S
H763 C750 0.961 . S
H764 C750 0.961 . S
H765 C751 0.958 . S
H766 C751 0.961 . S
H767 C751 0.960 . S
C768 C769 1.391 . S
C768 C770 1.394 . S
C768 H784 0.931 . S
C769 C768 1.391 . S
C769 C773 1.376 . S
C770 C768 1.394 . S
C770 C771 1.369 . S
C770 C774 1.531 . S
C771 C770 1.369 . S
C771 C772 1.410 . S
C771 C779 1.503 . S
C772 C771 1.410 . S
C772 C773 1.392 . S
C772 C775 1.511 . S
C773 C769 1.376 . S
C773 C772 1.392 . S
C773 H785 0.929 . S
C774 C770 1.531 . S
C774 H786 0.960 . S
C774 H787 0.962 . S
C774 H788 0.960 . S
C775 C772 1.511 . S
C775 H789 0.961 . S
C775 H790 0.961 . S
C775 H791 0.961 . S
C776 C777 1.370 . S
C776 C778 1.363 . S
C776 H792 0.931 . S
C777 C776 1.370 . S
C777 C781 1.408 . S
C778 C776 1.363 . S
C778 C779 1.370 . S
C778 C782 1.524 . S
C779 C771 1.503 . S
C779 C778 1.370 . S
C779 C780 1.403 . S
C780 C779 1.403 . S
C780 C781 1.404 . S
C780 C783 1.539 . S
C781 C777 1.408 . S
C781 C780 1.404 . S
C781 H793 0.930 . S
C782 C778 1.524 . S
C782 H794 0.956 . S
C782 H795 0.961 . S
C782 H796 0.961 . S
C783 C780 1.539 . S
C783 H797 0.958 . S
C783 H798 0.961 . S
C783 H799 0.960 . S
H784 C768 0.931 . S
H785 C773 0.929 . S
H786 C774 0.960 . S
H787 C774 0.962 . S
H788 C774 0.960 . S
H789 C775 0.961 . S
H790 C775 0.961 . S
H791 C775 0.961 . S
H792 C776 0.931 . S
H793 C781 0.930 . S
H794 C782 0.956 . S
H795 C782 0.961 . S
H796 C782 0.961 . S
H797 C783 0.958 . S
H798 C783 0.961 . S
H799 C783 0.960 . S
C800 C801 1.391 . S
C800 C802 1.394 . S
C800 H816 0.931 . S
C801 C800 1.391 . S
C801 C805 1.376 . S
C802 C800 1.394 . S
C802 C803 1.369 . S
C802 C806 1.531 . S
C803 C802 1.369 . S
C803 C804 1.410 . S
C803 C811 1.503 . S
C804 C803 1.410 . S
C804 C805 1.392 . S
C804 C807 1.511 . S
C805 C801 1.376 . S
C805 C804 1.392 . S
C805 H817 0.929 . S
C806 C802 1.531 . S
C806 H818 0.960 . S
C806 H819 0.962 . S
C806 H820 0.960 . S
C807 C804 1.511 . S
C807 H821 0.961 . S
C807 H822 0.961 . S
C807 H823 0.961 . S
C808 C809 1.370 . S
C808 C810 1.363 . S
C808 H824 0.931 . S
C809 C808 1.370 . S
C809 C813 1.408 . S
C810 C808 1.363 . S
C810 C811 1.370 . S
C810 C814 1.524 . S
C811 C803 1.503 . S
C811 C810 1.370 . S
C811 C812 1.403 . S
C812 C811 1.403 . S
C812 C813 1.404 . S
C812 C815 1.539 . S
C813 C809 1.408 . S
C813 C812 1.404 . S
C813 H825 0.930 . S
C814 C810 1.524 . S
C814 H826 0.956 . S
C814 H827 0.961 . S
C814 H828 0.961 . S
C815 C812 1.539 . S
C815 H829 0.958 . S
C815 H830 0.961 . S
C815 H831 0.960 . S
H816 C800 0.931 . S
H817 C805 0.929 . S
H818 C806 0.960 . S
H819 C806 0.962 . S
H820 C806 0.960 . S
H821 C807 0.961 . S
H822 C807 0.961 . S
H823 C807 0.961 . S
H824 C808 0.931 . S
H825 C813 0.930 . S
H826 C814 0.956 . S
H827 C814 0.961 . S
H828 C814 0.961 . S
H829 C815 0.958 . S
H830 C815 0.961 . S
H831 C815 0.960 . S
C832 C833 1.391 . S
C832 C834 1.394 . S
C832 H848 0.931 . S
C833 C832 1.391 . S
C833 C837 1.376 . S
C834 C832 1.394 . S
C834 C835 1.369 . S
C834 C838 1.531 . S
C835 C834 1.369 . S
C835 C836 1.410 . S
C835 C843 1.503 . S
C836 C835 1.410 . S
C836 C837 1.392 . S
C836 C839 1.511 . S
C837 C833 1.376 . S
C837 C836 1.392 . S
C837 H849 0.929 . S
C838 C834 1.531 . S
C838 H850 0.960 . S
C838 H851 0.962 . S
C838 H852 0.960 . S
C839 C836 1.511 . S
C839 H853 0.961 . S
C839 H854 0.961 . S
C839 H855 0.961 . S
C840 C841 1.370 . S
C840 C842 1.363 . S
C840 H856 0.931 . S
C841 C840 1.370 . S
C841 C845 1.408 . S
C842 C840 1.363 . S
C842 C843 1.370 . S
C842 C846 1.524 . S
C843 C835 1.503 . S
C843 C842 1.370 . S
C843 C844 1.403 . S
C844 C843 1.403 . S
C844 C845 1.404 . S
C844 C847 1.539 . S
C845 C841 1.408 . S
C845 C844 1.404 . S
C845 H857 0.930 . S
C846 C842 1.524 . S
C846 H858 0.956 . S
C846 H859 0.961 . S
C846 H860 0.961 . S
C847 C844 1.539 . S
C847 H861 0.958 . S
C847 H862 0.961 . S
C847 H863 0.960 . S
H848 C832 0.931 . S
H849 C837 0.929 . S
H850 C838 0.960 . S
H851 C838 0.962 . S
H852 C838 0.960 . S
H853 C839 0.961 . S
H854 C839 0.961 . S
H855 C839 0.961 . S
H856 C840 0.931 . S
H857 C845 0.930 . S
H858 C846 0.956 . S
H859 C846 0.961 . S
H860 C846 0.961 . S
H861 C847 0.958 . S
H862 C847 0.961 . S
H863 C847 0.960 . S
C864 C865 1.391 . S
C864 C866 1.394 . S
C864 H880 0.931 . S
C865 C864 1.391 . S
C865 C869 1.376 . S
C866 C864 1.394 . S
C866 C867 1.369 . S
C866 C870 1.531 . S
C867 C866 1.369 . S
C867 C868 1.410 . S
C867 C875 1.503 . S
C868 C867 1.410 . S
C868 C869 1.392 . S
C868 C871 1.511 . S
C869 C865 1.376 . S
C869 C868 1.392 . S
C869 H881 0.929 . S
C870 C866 1.531 . S
C870 H882 0.960 . S
C870 H883 0.962 . S
C870 H884 0.960 . S
C871 C868 1.511 . S
C871 H885 0.961 . S
C871 H886 0.961 . S
C871 H887 0.961 . S
C872 C873 1.370 . S
C872 C874 1.363 . S
C872 H888 0.931 . S
C873 C872 1.370 . S
C873 C877 1.408 . S
C874 C872 1.363 . S
C874 C875 1.370 . S
C874 C878 1.524 . S
C875 C867 1.503 . S
C875 C874 1.370 . S
C875 C876 1.403 . S
C876 C875 1.403 . S
C876 C877 1.404 . S
C876 C879 1.539 . S
C877 C873 1.408 . S
C877 C876 1.404 . S
C877 H889 0.930 . S
C878 C874 1.524 . S
C878 H890 0.956 . S
C878 H891 0.961 . S
C878 H892 0.961 . S
C879 C876 1.539 . S
C879 H893 0.958 . S
C879 H894 0.961 . S
C879 H895 0.960 . S
H880 C864 0.931 . S
H881 C869 0.929 . S
H882 C870 0.960 . S
H883 C870 0.962 . S
H884 C870 0.960 . S
H885 C871 0.961 . S
H886 C871 0.961 . S
H887 C871 0.961 . S
H888 C872 0.931 . S
H889 C877 0.930 . S
H890 C878 0.956 . S
H891 C878 0.961 . S
H892 C878 0.961 . S
H893 C879 0.958 . S
H894 C879 0.961 . S
H895 C879 0.960 . S
C896 C897 1.391 . S
C896 C898 1.394 . S
C896 H912 0.931 . S
C897 C896 1.391 . S
C897 C901 1.376 . S
C898 C896 1.394 . S
C898 C899 1.369 . S
C898 C902 1.531 . S
C899 C898 1.369 . S
C899 C900 1.410 . S
C899 C907 1.503 . S
C900 C899 1.410 . S
C900 C901 1.392 . S
C900 C903 1.511 . S
C901 C897 1.376 . S
C901 C900 1.392 . S
C901 H913 0.929 . S
C902 C898 1.531 . S
C902 H914 0.960 . S
C902 H915 0.962 . S
C902 H916 0.960 . S
C903 C900 1.511 . S
C903 H917 0.961 . S
C903 H918 0.961 . S
C903 H919 0.961 . S
C904 C905 1.370 . S
C904 C906 1.363 . S
C904 H920 0.931 . S
C905 C904 1.370 . S
C905 C909 1.408 . S
C906 C904 1.363 . S
C906 C907 1.370 . S
C906 C910 1.524 . S
C907 C899 1.503 . S
C907 C906 1.370 . S
C907 C908 1.403 . S
C908 C907 1.403 . S
C908 C909 1.404 . S
C908 C911 1.539 . S
C909 C905 1.408 . S
C909 C908 1.404 . S
C909 H921 0.930 . S
C910 C906 1.524 . S
C910 H922 0.956 . S
C910 H923 0.961 . S
C910 H924 0.961 . S
C911 C908 1.539 . S
C911 H925 0.958 . S
C911 H926 0.961 . S
C911 H927 0.960 . S
H912 C896 0.931 . S
H913 C901 0.929 . S
H914 C902 0.960 . S
H915 C902 0.962 . S
H916 C902 0.960 . S
H917 C903 0.961 . S
H918 C903 0.961 . S
H919 C903 0.961 . S
H920 C904 0.931 . S
H921 C909 0.930 . S
H922 C910 0.956 . S
H923 C910 0.961 . S
H924 C910 0.961 . S
H925 C911 0.958 . S
H926 C911 0.961 . S
H927 C911 0.960 . S
C928 C929 1.391 . S
C928 C930 1.394 . S
C928 H944 0.931 . S
C929 C928 1.391 . S
C929 C933 1.376 . S
C930 C928 1.394 . S
C930 C931 1.369 . S
C930 C934 1.531 . S
C931 C930 1.369 . S
C931 C932 1.410 . S
C931 C939 1.503 . S
C932 C931 1.410 . S
C932 C933 1.392 . S
C932 C935 1.511 . S
C933 C929 1.376 . S
C933 C932 1.392 . S
C933 H945 0.929 . S
C934 C930 1.531 . S
C934 H946 0.960 . S
C934 H947 0.962 . S
C934 H948 0.960 . S
C935 C932 1.511 . S
C935 H949 0.961 . S
C935 H950 0.961 . S
C935 H951 0.961 . S
C936 C937 1.370 . S
C936 C938 1.363 . S
C936 H952 0.931 . S
C937 C936 1.370 . S
C937 C941 1.408 . S
C938 C936 1.363 . S
C938 C939 1.370 . S
C938 C942 1.524 . S
C939 C931 1.503 . S
C939 C938 1.370 . S
C939 C940 1.403 . S
C940 C939 1.403 . S
C940 C941 1.404 . S
C940 C943 1.539 . S
C941 C937 1.408 . S
C941 C940 1.404 . S
C941 H953 0.930 . S
C942 C938 1.524 . S
C942 H954 0.956 . S
C942 H955 0.961 . S
C942 H956 0.961 . S
C943 C940 1.539 . S
C943 H957 0.958 . S
C943 H958 0.961 . S
C943 H959 0.960 . S
H944 C928 0.931 . S
H945 C933 0.929 . S
H946 C934 0.960 . S
H947 C934 0.962 . S
H948 C934 0.960 . S
H949 C935 0.961 . S
H950 C935 0.961 . S
H951 C935 0.961 . S
H952 C936 0.931 . S
H953 C941 0.930 . S
H954 C942 0.956 . S
H955 C942 0.961 . S
H956 C942 0.961 . S
H957 C943 0.958 . S
H958 C943 0.961 . S
H959 C943 0.960 . S
C960 C961 1.391 . S
C960 C962 1.394 . S
C960 H976 0.931 . S
C961 C960 1.391 . S
C961 C965 1.376 . S
C962 C960 1.394 . S
C962 C963 1.369 . S
C962 C966 1.531 . S
C963 C962 1.369 . S
C963 C964 1.410 . S
C963 C971 1.503 . S
C964 C963 1.410 . S
C964 C965 1.392 . S
C964 C967 1.511 . S
C965 C961 1.376 . S
C965 C964 1.392 . S
C965 H977 0.929 . S
C966 C962 1.531 . S
C966 H978 0.960 . S
C966 H979 0.962 . S
C966 H980 0.960 . S
C967 C964 1.511 . S
C967 H981 0.961 . S
C967 H982 0.961 . S
C967 H983 0.961 . S
C968 C969 1.370 . S
C968 C970 1.363 . S
C968 H984 0.931 . S
C969 C968 1.370 . S
C969 C973 1.408 . S
C970 C968 1.363 . S
C970 C971 1.370 . S
C970 C974 1.524 . S
C971 C963 1.503 . S
C971 C970 1.370 . S
C971 C972 1.403 . S
C972 C971 1.403 . S
C972 C973 1.404 . S
C972 C975 1.539 . S
C973 C969 1.408 . S
C973 C972 1.404 . S
C973 H985 0.930 . S
C974 C970 1.524 . S
C974 H986 0.956 . S
C974 H987 0.961 . S
C974 H988 0.961 . S
C975 C972 1.539 . S
C975 H989 0.958 . S
C975 H990 0.961 . S
C975 H991 0.960 . S
H976 C960 0.931 . S
H977 C965 0.929 . S
H978 C966 0.960 . S
H979 C966 0.962 . S
H980 C966 0.960 . S
H981 C967 0.961 . S
H982 C967 0.961 . S
H983 C967 0.961 . S
H984 C968 0.931 . S
H985 C973 0.930 . S
H986 C974 0.956 . S
H987 C974 0.961 . S
H988 C974 0.961 . S
H989 C975 0.958 . S
H990 C975 0.961 . S
H991 C975 0.960 . S
C992 C993 1.391 . S
C992 C994 1.394 . S
C992 H1008 0.931 . S
C993 C992 1.391 . S
C993 C997 1.376 . S
C994 C992 1.394 . S
C994 C995 1.369 . S
C994 C998 1.531 . S
C995 C994 1.369 . S
C995 C996 1.410 . S
C995 C1003 1.503 . S
C996 C995 1.410 . S
C996 C997 1.392 . S
C996 C999 1.511 . S
C997 C993 1.376 . S
C997 C996 1.392 . S
C997 H1009 0.929 . S
C998 C994 1.531 . S
C998 H1010 0.960 . S
C998 H1011 0.962 . S
C998 H1012 0.960 . S
C999 C996 1.511 . S
C999 H1013 0.961 . S
C999 H1014 0.961 . S
C999 H1015 0.961 . S
C1000 C1001 1.370 . S
C1000 C1002 1.363 . S
C1000 H1016 0.931 . S
C1001 C1000 1.370 . S
C1001 C1005 1.408 . S
C1002 C1000 1.363 . S
C1002 C1003 1.370 . S
C1002 C1006 1.524 . S
C1003 C995 1.503 . S
C1003 C1002 1.370 . S
C1003 C1004 1.403 . S
C1004 C1003 1.403 . S
C1004 C1005 1.404 . S
C1004 C1007 1.539 . S
C1005 C1001 1.408 . S
C1005 C1004 1.404 . S
C1005 H1017 0.930 . S
C1006 C1002 1.524 . S
C1006 H1018 0.956 . S
C1006 H1019 0.961 . S
C1006 H1020 0.961 . S
C1007 C1004 1.539 . S
C1007 H1021 0.958 . S
C1007 H1022 0.961 . S
C1007 H1023 0.960 . S
H1008 C992 0.931 . S
H1009 C997 0.929 . S
H1010 C998 0.960 . S
H1011 C998 0.962 . S
H1012 C998 0.960 . S
H1013 C999 0.961 . S
H1014 C999 0.961 . S
H1015 C999 0.961 . S
H1016 C1000 0.931 . S
H1017 C1005 0.930 . S
H1018 C1006 0.956 . S
H1019 C1006 0.961 . S
H1020 C1006 0.961 . S
H1021 C1007 0.958 . S
H1022 C1007 0.961 . S
H1023 C1007 0.960 . S
C1024 C1025 1.391 . S
C1024 C1026 1.394 . S
C1024 H1040 0.931 . S
C1025 C1024 1.391 . S
C1025 C1029 1.376 . S
C1026 C1024 1.394 . S
C1026 C1027 1.369 . S
C1026 C1030 1.531 . S
C1027 C1026 1.369 . S
C1027 C1028 1.410 . S
C1027 C1035 1.503 . S
C1028 C1027 1.410 . S
C1028 C1029 1.392 . S
C1028 C1031 1.511 . S
C1029 C1025 1.376 . S
C1029 C1028 1.392 . S
C1029 H1041 0.929 . S
C1030 C1026 1.531 . S
C1030 H1042 0.960 . S
C1030 H1043 0.962 . S
C1030 H1044 0.960 . S
C1031 C1028 1.511 . S
C1031 H1045 0.961 . S
C1031 H1046 0.961 . S
C1031 H1047 0.961 . S
C1032 C1033 1.370 . S
C1032 C1034 1.363 . S
C1032 H1048 0.931 . S
C1033 C1032 1.370 . S
C1033 C1037 1.408 . S
C1034 C1032 1.363 . S
C1034 C1035 1.370 . S
C1034 C1038 1.524 . S
C1035 C1027 1.503 . S
C1035 C1034 1.370 . S
C1035 C1036 1.403 . S
C1036 C1035 1.403 . S
C1036 C1037 1.404 . S
C1036 C1039 1.539 . S
C1037 C1033 1.408 . S
C1037 C1036 1.404 . S
C1037 H1049 0.930 . S
C1038 C1034 1.524 . S
C1038 H1050 0.956 . S
C1038 H1051 0.961 . S
C1038 H1052 0.961 . S
C1039 C1036 1.539 . S
C1039 H1053 0.958 . S
C1039 H1054 0.961 . S
C1039 H1055 0.960 . S
H1040 C1024 0.931 . S
H1041 C1029 0.929 . S
H1042 C1030 0.960 . S
H1043 C1030 0.962 . S
H1044 C1030 0.960 . S
H1045 C1031 0.961 . S
H1046 C1031 0.961 . S
H1047 C1031 0.961 . S
H1048 C1032 0.931 . S
H1049 C1037 0.930 . S
H1050 C1038 0.956 . S
H1051 C1038 0.961 . S
H1052 C1038 0.961 . S
H1053 C1039 0.958 . S
H1054 C1039 0.961 . S
H1055 C1039 0.960 . S
C1056 C1057 1.391 . S
C1056 C1058 1.394 . S
C1056 H1072 0.931 . S
C1057 C1056 1.391 . S
C1057 C1061 1.376 . S
C1058 C1056 1.394 . S
C1058 C1059 1.369 . S
C1058 C1062 1.531 . S
C1059 C1058 1.369 . S
C1059 C1060 1.410 . S
C1059 C1067 1.503 . S
C1060 C1059 1.410 . S
C1060 C1061 1.392 . S
C1060 C1063 1.511 . S
C1061 C1057 1.376 . S
C1061 C1060 1.392 . S
C1061 H1073 0.929 . S
C1062 C1058 1.531 . S
C1062 H1074 0.960 . S
C1062 H1075 0.962 . S
C1062 H1076 0.960 . S
C1063 C1060 1.511 . S
C1063 H1077 0.961 . S
C1063 H1078 0.961 . S
C1063 H1079 0.961 . S
C1064 C1065 1.370 . S
C1064 C1066 1.363 . S
C1064 H1080 0.931 . S
C1065 C1064 1.370 . S
C1065 C1069 1.408 . S
C1066 C1064 1.363 . S
C1066 C1067 1.370 . S
C1066 C1070 1.524 . S
C1067 C1059 1.503 . S
C1067 C1066 1.370 . S
C1067 C1068 1.403 . S
C1068 C1067 1.403 . S
C1068 C1069 1.404 . S
C1068 C1071 1.539 . S
C1069 C1065 1.408 . S
C1069 C1068 1.404 . S
C1069 H1081 0.930 . S
C1070 C1066 1.524 . S
C1070 H1082 0.956 . S
C1070 H1083 0.961 . S
C1070 H1084 0.961 . S
C1071 C1068 1.539 . S
C1071 H1085 0.958 . S
C1071 H1086 0.961 . S
C1071 H1087 0.960 . S
H1072 C1056 0.931 . S
H1073 C1061 0.929 . S
H1074 C1062 0.960 . S
H1075 C1062 0.962 . S
H1076 C1062 0.960 . S
H1077 C1063 0.961 . S
H1078 C1063 0.961 . S
H1079 C1063 0.961 . S
H1080 C1064 0.931 . S
H1081 C1069 0.930 . S
H1082 C1070 0.956 . S
H1083 C1070 0.961 . S
H1084 C1070 0.961 . S
H1085 C1071 0.958 . S
H1086 C1071 0.961 . S
H1087 C1071 0.960 . S
C1088 C1089 1.391 . S
C1088 C1090 1.394 . S
C1088 H1104 0.931 . S
C1089 C1088 1.391 . S
C1089 C1093 1.376 . S
C1090 C1088 1.394 . S
C1090 C1091 1.369 . S
C1090 C1094 1.531 . S
C1091 C1090 1.369 . S
C1091 C1092 1.410 . S
C1091 C1099 1.503 . S
C1092 C1091 1.410 . S
C1092 C1093 1.392 . S
C1092 C1095 1.511 . S
C1093 C1089 1.376 . S
C1093 C1092 1.392 . S
C1093 H1105 0.929 . S
C1094 C1090 1.531 . S
C1094 H1106 0.960 . S
C1094 H1107 0.962 . S
C1094 H1108 0.960 . S
C1095 C1092 1.511 . S
C1095 H1109 0.961 . S
C1095 H1110 0.961 . S
C1095 H1111 0.961 . S
C1096 C1097 1.370 . S
C1096 C1098 1.363 . S
C1096 H1112 0.931 . S
C1097 C1096 1.370 . S
C1097 C1101 1.408 . S
C1098 C1096 1.363 . S
C1098 C1099 1.370 . S
C1098 C1102 1.524 . S
C1099 C1091 1.503 . S
C1099 C1098 1.370 . S
C1099 C1100 1.403 . S
C1100 C1099 1.403 . S
C1100 C1101 1.404 . S
C1100 C1103 1.539 . S
C1101 C1097 1.408 . S
C1101 C1100 1.404 . S
C1101 H1113 0.930 . S
C1102 C1098 1.524 . S
C1102 H1114 0.956 . S
C1102 H1115 0.961 . S
C1102 H1116 0.961 . S
C1103 C1100 1.539 . S
C1103 H1117 0.958 . S
C1103 H1118 0.961 . S
C1103 H1119 0.960 . S
H1104 C1088 0.931 . S
H1105 C1093 0.929 . S
H1106 C1094 0.960 . S
H1107 C1094 0.962 . S
H1108 C1094 0.960 . S
H1109 C1095 0.961 . S
H1110 C1095 0.961 . S
H1111 C1095 0.961 . S
H1112 C1096 0.931 . S
H1113 C1101 0.930 . S
H1114 C1102 0.956 . S
H1115 C1102 0.961 . S
H1116 C1102 0.961 . S
H1117 C1103 0.958 . S
H1118 C1103 0.961 . S
H1119 C1103 0.960 . S
C1120 C1121 1.391 . S
C1120 C1122 1.394 . S
C1120 H1136 0.931 . S
C1121 C1120 1.391 . S
C1121 C1125 1.376 . S
C1122 C1120 1.394 . S
C1122 C1123 1.369 . S
C1122 C1126 1.531 . S
C1123 C1122 1.369 . S
C1123 C1124 1.410 . S
C1123 C1131 1.503 . S
C1124 C1123 1.410 . S
C1124 C1125 1.392 . S
C1124 C1127 1.511 . S
C1125 C1121 1.376 . S
C1125 C1124 1.392 . S
C1125 H1137 0.929 . S
C1126 C1122 1.531 . S
C1126 H1138 0.960 . S
C1126 H1139 0.962 . S
C1126 H1140 0.960 . S
C1127 C1124 1.511 . S
C1127 H1141 0.961 . S
C1127 H1142 0.961 . S
C1127 H1143 0.961 . S
C1128 C1129 1.370 . S
C1128 C1130 1.363 . S
C1128 H1144 0.931 . S
C1129 C1128 1.370 . S
C1129 C1133 1.408 . S
C1130 C1128 1.363 . S
C1130 C1131 1.370 . S
C1130 C1134 1.524 . S
C1131 C1123 1.503 . S
C1131 C1130 1.370 . S
C1131 C1132 1.403 . S
C1132 C1131 1.403 . S
C1132 C1133 1.404 . S
C1132 C1135 1.539 . S
C1133 C1129 1.408 . S
C1133 C1132 1.404 . S
C1133 H1145 0.930 . S
C1134 C1130 1.524 . S
C1134 H1146 0.956 . S
C1134 H1147 0.961 . S
C1134 H1148 0.961 . S
C1135 C1132 1.539 . S
C1135 H1149 0.958 . S
C1135 H1150 0.961 . S
C1135 H1151 0.960 . S
H1136 C1120 0.931 . S
H1137 C1125 0.929 . S
H1138 C1126 0.960 . S
H1139 C1126 0.962 . S
H1140 C1126 0.960 . S
H1141 C1127 0.961 . S
H1142 C1127 0.961 . S
H1143 C1127 0.961 . S
H1144 C1128 0.931 . S
H1145 C1133 0.930 . S
H1146 C1134 0.956 . S
H1147 C1134 0.961 . S
H1148 C1134 0.961 . S
H1149 C1135 0.958 . S
H1150 C1135 0.961 . S
H1151 C1135 0.960 . S
C1152 C1153 1.391 . S
C1152 C1154 1.394 . S
C1152 H1168 0.931 . S
C1153 C1152 1.391 . S
C1153 C1157 1.376 . S
C1154 C1152 1.394 . S
C1154 C1155 1.369 . S
C1154 C1158 1.531 . S
C1155 C1154 1.369 . S
C1155 C1156 1.410 . S
C1155 C1163 1.503 . S
C1156 C1155 1.410 . S
C1156 C1157 1.392 . S
C1156 C1159 1.511 . S
C1157 C1153 1.376 . S
C1157 C1156 1.392 . S
C1157 H1169 0.929 . S
C1158 C1154 1.531 . S
C1158 H1170 0.960 . S
C1158 H1171 0.962 . S
C1158 H1172 0.960 . S
C1159 C1156 1.511 . S
C1159 H1173 0.961 . S
C1159 H1174 0.961 . S
C1159 H1175 0.961 . S
C1160 C1161 1.370 . S
C1160 C1162 1.363 . S
C1160 H1176 0.931 . S
C1161 C1160 1.370 . S
C1161 C1165 1.408 . S
C1162 C1160 1.363 . S
C1162 C1163 1.370 . S
C1162 C1166 1.524 . S
C1163 C1155 1.503 . S
C1163 C1162 1.370 . S
C1163 C1164 1.403 . S
C1164 C1163 1.403 . S
C1164 C1165 1.404 . S
C1164 C1167 1.539 . S
C1165 C1161 1.408 . S
C1165 C1164 1.404 . S
C1165 H1177 0.930 . S
C1166 C1162 1.524 . S
C1166 H1178 0.956 . S
C1166 H1179 0.961 . S
C1166 H1180 0.961 . S
C1167 C1164 1.539 . S
C1167 H1181 0.958 . S
C1167 H1182 0.961 . S
C1167 H1183 0.960 . S
H1168 C1152 0.931 . S
H1169 C1157 0.929 . S
H1170 C1158 0.960 . S
H1171 C1158 0.962 . S
H1172 C1158 0.960 . S
H1173 C1159 0.961 . S
H1174 C1159 0.961 . S
H1175 C1159 0.961 . S
H1176 C1160 0.931 . S
H1177 C1165 0.930 . S
H1178 C1166 0.956 . S
H1179 C1166 0.961 . S
H1180 C1166 0.961 . S
H1181 C1167 0.958 . S
H1182 C1167 0.961 . S
H1183 C1167 0.960 . S
C1184 C1185 1.391 . S
C1184 C1186 1.394 . S
C1184 H1200 0.931 . S
C1185 C1184 1.391 . S
C1185 C1189 1.376 . S
C1186 C1184 1.394 . S
C1186 C1187 1.369 . S
C1186 C1190 1.531 . S
C1187 C1186 1.369 . S
C1187 C1188 1.410 . S
C1187 C1195 1.503 . S
C1188 C1187 1.410 . S
C1188 C1189 1.392 . S
C1188 C1191 1.511 . S
C1189 C1185 1.376 . S
C1189 C1188 1.392 . S
C1189 H1201 0.929 . S
C1190 C1186 1.531 . S
C1190 H1202 0.960 . S
C1190 H1203 0.962 . S
C1190 H1204 0.960 . S
C1191 C1188 1.511 . S
C1191 H1205 0.961 . S
C1191 H1206 0.961 . S
C1191 H1207 0.961 . S
C1192 C1193 1.370 . S
C1192 C1194 1.363 . S
C1192 H1208 0.931 . S
C1193 C1192 1.370 . S
C1193 C1197 1.408 . S
C1194 C1192 1.363 . S
C1194 C1195 1.370 . S
C1194 C1198 1.524 . S
C1195 C1187 1.503 . S
C1195 C1194 1.370 . S
C1195 C1196 1.403 . S
C1196 C1195 1.403 . S
C1196 C1197 1.404 . S
C1196 C1199 1.539 . S
C1197 C1193 1.408 . S
C1197 C1196 1.404 . S
C1197 H1209 0.930 . S
C1198 C1194 1.524 . S
C1198 H1210 0.956 . S
C1198 H1211 0.961 . S
C1198 H1212 0.961 . S
C1199 C1196 1.539 . S
C1199 H1213 0.958 . S
C1199 H1214 0.961 . S
C1199 H1215 0.960 . S
H1200 C1184 0.931 . S
H1201 C1189 0.929 . S
H1202 C1190 0.960 . S
H1203 C1190 0.962 . S
H1204 C1190 0.960 . S
H1205 C1191 0.961 . S
H1206 C1191 0.961 . S
H1207 C1191 0.961 . S
H1208 C1192 0.931 . S
H1209 C1197 0.930 . S
H1210 C1198 0.956 . S
H1211 C1198 0.961 . S
H1212 C1198 0.961 . S
H1213 C1199 0.958 . S
H1214 C1199 0.961 . S
H1215 C1199 0.960 . S
C1216 C1217 1.391 . S
C1216 C1218 1.394 . S
C1216 H1232 0.931 . S
C1217 C1216 1.391 . S
C1217 C1221 1.376 . S
C1218 C1216 1.394 . S
C1218 C1219 1.369 . S
C1218 C1222 1.531 . S
C1219 C1218 1.369 . S
C1219 C1220 1.410 . S
C1219 C1227 1.503 . S
C1220 C1219 1.410 . S
C1220 C1221 1.392 . S
C1220 C1223 1.511 . S
C1221 C1217 1.376 . S
C1221 C1220 1.392 . S
C1221 H1233 0.929 . S
C1222 C1218 1.531 . S
C1222 H1234 0.960 . S
C1222 H1235 0.962 . S
C1222 H1236 0.960 . S
C1223 C1220 1.511 . S
C1223 H1237 0.961 . S
C1223 H1238 0.961 . S
C1223 H1239 0.961 . S
C1224 C1225 1.370 . S
C1224 C1226 1.363 . S
C1224 H1240 0.931 . S
C1225 C1224 1.370 . S
C1225 C1229 1.408 . S
C1226 C1224 1.363 . S
C1226 C1227 1.370 . S
C1226 C1230 1.524 . S
C1227 C1219 1.503 . S
C1227 C1226 1.370 . S
C1227 C1228 1.403 . S
C1228 C1227 1.403 . S
C1228 C1229 1.404 . S
C1228 C1231 1.539 . S
C1229 C1225 1.408 . S
C1229 C1228 1.404 . S
C1229 H1241 0.930 . S
C1230 C1226 1.524 . S
C1230 H1242 0.956 . S
C1230 H1243 0.961 . S
C1230 H1244 0.961 . S
C1231 C1228 1.539 . S
C1231 H1245 0.958 . S
C1231 H1246 0.961 . S
C1231 H1247 0.960 . S
H1232 C1216 0.931 . S
H1233 C1221 0.929 . S
H1234 C1222 0.960 . S
H1235 C1222 0.962 . S
H1236 C1222 0.960 . S
H1237 C1223 0.961 . S
H1238 C1223 0.961 . S
H1239 C1223 0.961 . S
H1240 C1224 0.931 . S
H1241 C1229 0.930 . S
H1242 C1230 0.956 . S
H1243 C1230 0.961 . S
H1244 C1230 0.961 . S
H1245 C1231 0.958 . S
H1246 C1231 0.961 . S
H1247 C1231 0.960 . S
C1248 C1249 1.391 . S
C1248 C1250 1.394 . S
C1248 H1264 0.931 . S
C1249 C1248 1.391 . S
C1249 C1253 1.376 . S
C1250 C1248 1.394 . S
C1250 C1251 1.369 . S
C1250 C1254 1.531 . S
C1251 C1250 1.369 . S
C1251 C1252 1.410 . S
C1251 C1259 1.503 . S
C1252 C1251 1.410 . S
C1252 C1253 1.392 . S
C1252 C1255 1.511 . S
C1253 C1249 1.376 . S
C1253 C1252 1.392 . S
C1253 H1265 0.929 . S
C1254 C1250 1.531 . S
C1254 H1266 0.960 . S
C1254 H1267 0.962 . S
C1254 H1268 0.960 . S
C1255 C1252 1.511 . S
C1255 H1269 0.961 . S
C1255 H1270 0.961 . S
C1255 H1271 0.961 . S
C1256 C1257 1.370 . S
C1256 C1258 1.363 . S
C1256 H1272 0.931 . S
C1257 C1256 1.370 . S
C1257 C1261 1.408 . S
C1258 C1256 1.363 . S
C1258 C1259 1.370 . S
C1258 C1262 1.524 . S
C1259 C1251 1.503 . S
C1259 C1258 1.370 . S
C1259 C1260 1.403 . S
C1260 C1259 1.403 . S
C1260 C1261 1.404 . S
C1260 C1263 1.539 . S
C1261 C1257 1.408 . S
C1261 C1260 1.404 . S
C1261 H1273 0.930 . S
C1262 C1258 1.524 . S
C1262 H1274 0.956 . S
C1262 H1275 0.961 . S
C1262 H1276 0.961 . S
C1263 C1260 1.539 . S
C1263 H1277 0.958 . S
C1263 H1278 0.961 . S
C1263 H1279 0.960 . S
H1264 C1248 0.931 . S
H1265 C1253 0.929 . S
H1266 C1254 0.960 . S
H1267 C1254 0.962 . S
H1268 C1254 0.960 . S
H1269 C1255 0.961 . S
H1270 C1255 0.961 . S
H1271 C1255 0.961 . S
H1272 C1256 0.931 . S
H1273 C1261 0.930 . S
H1274 C1262 0.956 . S
H1275 C1262 0.961 . S
H1276 C1262 0.961 . S
H1277 C1263 0.958 . S
H1278 C1263 0.961 . S
H1279 C1263 0.960 . S
C1280 C1281 1.391 . S
C1280 C1282 1.394 . S
C1280 H1296 0.931 . S
C1281 C1280 1.391 . S
C1281 C1285 1.376 . S
C1282 C1280 1.394 . S
C1282 C1283 1.369 . S
C1282 C1286 1.531 . S
C1283 C1282 1.369 . S
C1283 C1284 1.410 . S
C1283 C1291 1.503 . S
C1284 C1283 1.410 . S
C1284 C1285 1.392 . S
C1284 C1287 1.511 . S
C1285 C1281 1.376 . S
C1285 C1284 1.392 . S
C1285 H1297 0.929 . S
C1286 C1282 1.531 . S
C1286 H1298 0.960 . S
C1286 H1299 0.962 . S
C1286 H1300 0.960 . S
C1287 C1284 1.511 . S
C1287 H1301 0.961 . S
C1287 H1302 0.961 . S
C1287 H1303 0.961 . S
C1288 C1289 1.370 . S
C1288 C1290 1.363 . S
C1288 H1304 0.931 . S
C1289 C1288 1.370 . S
C1289 C1293 1.408 . S
C1290 C1288 1.363 . S
C1290 C1291 1.370 . S
C1290 C1294 1.524 . S
C1291 C1283 1.503 . S
C1291 C1290 1.370 . S
C1291 C1292 1.403 . S
C1292 C1291 1.403 . S
C1292 C1293 1.404 . S
C1292 C1295 1.539 . S
C1293 C1289 1.408 . S
C1293 C1292 1.404 . S
C1293 H1305 0.930 . S
C1294 C1290 1.524 . S
C1294 H1306 0.956 . S
C1294 H1307 0.961 . S
C1294 H1308 0.961 . S
C1295 C1292 1.539 . S
C1295 H1309 0.958 . S
C1295 H1310 0.961 . S
C1295 H1311 0.960 . S
H1296 C1280 0.931 . S
H1297 C1285 0.929 . S
H1298 C1286 0.960 . S
H1299 C1286 0.962 . S
H1300 C1286 0.960 . S
H1301 C1287 0.961 . S
H1302 C1287 0.961 . S
H1303 C1287 0.961 . S
H1304 C1288 0.931 . S
H1305 C1293 0.930 . S
H1306 C1294 0.956 . S
H1307 C1294 0.961 . S
H1308 C1294 0.961 . S
H1309 C1295 0.958 . S
H1310 C1295 0.961 . S
H1311 C1295 0.960 . S
C1312 C1313 1.391 . S
C1312 C1314 1.394 . S
C1312 H1328 0.931 . S
C1313 C1312 1.391 . S
C1313 C1317 1.376 . S
C1314 C1312 1.394 . S
C1314 C1315 1.369 . S
C1314 C1318 1.531 . S
C1315 C1314 1.369 . S
C1315 C1316 1.410 . S
C1315 C1323 1.503 . S
C1316 C1315 1.410 . S
C1316 C1317 1.392 . S
C1316 C1319 1.511 . S
C1317 C1313 1.376 . S
C1317 C1316 1.392 . S
C1317 H1329 0.929 . S
C1318 C1314 1.531 . S
C1318 H1330 0.960 . S
C1318 H1331 0.962 . S
C1318 H1332 0.960 . S
C1319 C1316 1.511 . S
C1319 H1333 0.961 . S
C1319 H1334 0.961 . S
C1319 H1335 0.961 . S
C1320 C1321 1.370 . S
C1320 C1322 1.363 . S
C1320 H1336 0.931 . S
C1321 C1320 1.370 . S
C1321 C1325 1.408 . S
C1322 C1320 1.363 . S
C1322 C1323 1.370 . S
C1322 C1326 1.524 . S
C1323 C1315 1.503 . S
C1323 C1322 1.370 . S
C1323 C1324 1.403 . S
C1324 C1323 1.403 . S
C1324 C1325 1.404 . S
C1324 C1327 1.539 . S
C1325 C1321 1.408 . S
C1325 C1324 1.404 . S
C1325 H1337 0.930 . S
C1326 C1322 1.524 . S
C1326 H1338 0.956 . S
C1326 H1339 0.961 . S
C1326 H1340 0.961 . S
C1327 C1324 1.539 . S
C1327 H1341 0.958 . S
C1327 H1342 0.961 . S
C1327 H1343 0.960 . S
H1328 C1312 0.931 . S
H1329 C1317 0.929 . S
H1330 C1318 0.960 . S
H1331 C1318 0.962 . S
H1332 C1318 0.960 . S
H1333 C1319 0.961 . S
H1334 C1319 0.961 . S
H1335 C1319 0.961 . S
H1336 C1320 0.931 . S
H1337 C1325 0.930 . S
H1338 C1326 0.956 . S
H1339 C1326 0.961 . S
H1340 C1326 0.961 . S
H1341 C1327 0.958 . S
H1342 C1327 0.961 . S
H1343 C1327 0.960 . S
C1344 C1345 1.391 . S
C1344 C1346 1.394 . S
C1344 H1360 0.931 . S
C1345 C1344 1.391 . S
C1345 C1349 1.376 . S
C1346 C1344 1.394 . S
C1346 C1347 1.369 . S
C1346 C1350 1.531 . S
C1347 C1346 1.369 . S
C1347 C1348 1.410 . S
C1347 C1355 1.503 . S
C1348 C1347 1.410 . S
C1348 C1349 1.392 . S
C1348 C1351 1.511 . S
C1349 C1345 1.376 . S
C1349 C1348 1.392 . S
C1349 H1361 0.929 . S
C1350 C1346 1.531 . S
C1350 H1362 0.960 . S
C1350 H1363 0.962 . S
C1350 H1364 0.960 . S
C1351 C1348 1.511 . S
C1351 H1365 0.961 . S
C1351 H1366 0.961 . S
C1351 H1367 0.961 . S
C1352 C1353 1.370 . S
C1352 C1354 1.363 . S
C1352 H1368 0.931 . S
C1353 C1352 1.370 . S
C1353 C1357 1.408 . S
C1354 C1352 1.363 . S
C1354 C1355 1.370 . S
C1354 C1358 1.524 . S
C1355 C1347 1.503 . S
C1355 C1354 1.370 . S
C1355 C1356 1.403 . S
C1356 C1355 1.403 . S
C1356 C1357 1.404 . S
C1356 C1359 1.539 . S
C1357 C1353 1.408 . S
C1357 C1356 1.404 . S
C1357 H1369 0.930 . S
C1358 C1354 1.524 . S
C1358 H1370 0.956 . S
C1358 H1371 0.961 . S
C1358 H1372 0.961 . S
C1359 C1356 1.539 . S
C1359 H1373 0.958 . S
C1359 H1374 0.961 . S
C1359 H1375 0.960 . S
H1360 C1344 0.931 . S
H1361 C1349 0.929 . S
H1362 C1350 0.960 . S
H1363 C1350 0.962 . S
H1364 C1350 0.960 . S
H1365 C1351 0.961 . S
H1366 C1351 0.961 . S
H1367 C1351 0.961 . S
H1368 C1352 0.931 . S
H1369 C1357 0.930 . S
H1370 C1358 0.956 . S
H1371 C1358 0.961 . S
H1372 C1358 0.961 . S
H1373 C1359 0.958 . S
H1374 C1359 0.961 . S
H1375 C1359 0.960 . S
C1376 C1377 1.391 . S
C1376 C1378 1.394 . S
C1376 H1392 0.931 . S
C1377 C1376 1.391 . S
C1377 C1381 1.376 . S
C1378 C1376 1.394 . S
C1378 C1379 1.369 . S
C1378 C1382 1.531 . S
C1379 C1378 1.369 . S
C1379 C1380 1.410 . S
C1379 C1387 1.503 . S
C1380 C1379 1.410 . S
C1380 C1381 1.392 . S
C1380 C1383 1.511 . S
C1381 C1377 1.376 . S
C1381 C1380 1.392 . S
C1381 H1393 0.929 . S
C1382 C1378 1.531 . S
C1382 H1394 0.960 . S
C1382 H1395 0.962 . S
C1382 H1396 0.960 . S
C1383 C1380 1.511 . S
C1383 H1397 0.961 . S
C1383 H1398 0.961 . S
C1383 H1399 0.961 . S
C1384 C1385 1.370 . S
C1384 C1386 1.363 . S
C1384 H1400 0.931 . S
C1385 C1384 1.370 . S
C1385 C1389 1.408 . S
C1386 C1384 1.363 . S
C1386 C1387 1.370 . S
C1386 C1390 1.524 . S
C1387 C1379 1.503 . S
C1387 C1386 1.370 . S
C1387 C1388 1.403 . S
C1388 C1387 1.403 . S
C1388 C1389 1.404 . S
C1388 C1391 1.539 . S
C1389 C1385 1.408 . S
C1389 C1388 1.404 . S
C1389 H1401 0.930 . S
C1390 C1386 1.524 . S
C1390 H1402 0.956 . S
C1390 H1403 0.961 . S
C1390 H1404 0.961 . S
C1391 C1388 1.539 . S
C1391 H1405 0.958 . S
C1391 H1406 0.961 . S
C1391 H1407 0.960 . S
H1392 C1376 0.931 . S
H1393 C1381 0.929 . S
H1394 C1382 0.960 . S
H1395 C1382 0.962 . S
H1396 C1382 0.960 . S
H1397 C1383 0.961 . S
H1398 C1383 0.961 . S
H1399 C1383 0.961 . S
H1400 C1384 0.931 . S
H1401 C1389 0.930 . S
H1402 C1390 0.956 . S
H1403 C1390 0.961 . S
H1404 C1390 0.961 . S
H1405 C1391 0.958 . S
H1406 C1391 0.961 . S
H1407 C1391 0.960 . S
C1408 C1409 1.391 . S
C1408 C1410 1.394 . S
C1408 H1424 0.931 . S
C1409 C1408 1.391 . S
C1409 C1413 1.376 . S
C1410 C1408 1.394 . S
C1410 C1411 1.369 . S
C1410 C1414 1.531 . S
C1411 C1410 1.369 . S
C1411 C1412 1.410 . S
C1411 C1419 1.503 . S
C1412 C1411 1.410 . S
C1412 C1413 1.392 . S
C1412 C1415 1.511 . S
C1413 C1409 1.376 . S
C1413 C1412 1.392 . S
C1413 H1425 0.929 . S
C1414 C1410 1.531 . S
C1414 H1426 0.960 . S
C1414 H1427 0.962 . S
C1414 H1428 0.960 . S
C1415 C1412 1.511 . S
C1415 H1429 0.961 . S
C1415 H1430 0.961 . S
C1415 H1431 0.961 . S
C1416 C1417 1.370 . S
C1416 C1418 1.363 . S
C1416 H1432 0.931 . S
C1417 C1416 1.370 . S
C1417 C1421 1.408 . S
C1418 C1416 1.363 . S
C1418 C1419 1.370 . S
C1418 C1422 1.524 . S
C1419 C1411 1.503 . S
C1419 C1418 1.370 . S
C1419 C1420 1.403 . S
C1420 C1419 1.403 . S
C1420 C1421 1.404 . S
C1420 C1423 1.539 . S
C1421 C1417 1.408 . S
C1421 C1420 1.404 . S
C1421 H1433 0.930 . S
C1422 C1418 1.524 . S
C1422 H1434 0.956 . S
C1422 H1435 0.961 . S
C1422 H1436 0.961 . S
C1423 C1420 1.539 . S
C1423 H1437 0.958 . S
C1423 H1438 0.961 . S
C1423 H1439 0.960 . S
H1424 C1408 0.931 . S
H1425 C1413 0.929 . S
H1426 C1414 0.960 . S
H1427 C1414 0.962 . S
H1428 C1414 0.960 . S
H1429 C1415 0.961 . S
H1430 C1415 0.961 . S
H1431 C1415 0.961 . S
H1432 C1416 0.931 . S
H1433 C1421 0.930 . S
H1434 C1422 0.956 . S
H1435 C1422 0.961 . S
H1436 C1422 0.961 . S
H1437 C1423 0.958 . S
H1438 C1423 0.961 . S
H1439 C1423 0.960 . S
C1440 C1441 1.406 . S
C1440 C1442 1.389 1_655 S
C1440 H1456 0.921 1_655 S
C1441 C1440 1.406 . S
C1441 C1445 1.376 . S
C1442 C1440 1.389 1_455 S
C1442 C1443 1.369 1_455 S
C1442 C1446 1.531 . S
C1443 C1442 1.369 1_655 S
C1443 C1444 1.410 . S
C1443 C1451 1.503 1_655 S
C1444 C1443 1.410 . S
C1444 C1445 1.392 . S
C1444 C1447 1.511 . S
C1445 C1441 1.376 . S
C1445 C1444 1.392 . S
C1445 H1457 0.929 . S
C1446 C1442 1.531 . S
C1446 H1458 0.960 . S
C1446 H1459 0.962 . S
C1446 H1460 0.960 . S
C1447 C1444 1.511 . S
C1447 H1461 0.961 . S
C1447 H1462 0.961 . S
C1447 H1463 0.961 . S
C1448 C1449 1.370 . S
C1448 C1450 1.363 . S
C1448 H1464 0.931 . S
C1449 C1448 1.370 . S
C1449 C1453 1.408 . S
C1450 C1448 1.363 . S
C1450 C1451 1.370 . S
C1450 C1454 1.524 . S
C1451 C1443 1.503 1_455 S
C1451 C1450 1.370 . S
C1451 C1452 1.403 1_455 S
C1452 C1451 1.403 1_655 S
C1452 C1453 1.404 1_655 S
C1452 C1455 1.539 . S
C1453 C1449 1.408 . S
C1453 C1452 1.404 1_455 S
C1453 H1465 0.930 1_455 S
C1454 C1450 1.524 . S
C1454 H1466 0.956 . S
C1454 H1467 0.961 . S
C1454 H1468 0.961 . S
C1455 C1452 1.539 . S
C1455 H1469 0.958 . S
C1455 H1470 0.961 . S
C1455 H1471 0.960 . S
H1456 C1440 0.921 1_455 S
H1457 C1445 0.929 . S
H1458 C1446 0.960 . S
H1459 C1446 0.962 . S
H1460 C1446 0.960 . S
H1461 C1447 0.961 . S
H1462 C1447 0.961 . S
H1463 C1447 0.961 . S
H1464 C1448 0.931 . S
H1465 C1453 0.930 1_655 S
H1466 C1454 0.956 . S
H1467 C1454 0.961 . S
H1468 C1454 0.961 . S
H1469 C1455 0.958 . S
H1470 C1455 0.961 . S
H1471 C1455 0.960 . S
C1472 C1473 1.391 . S
C1472 C1474 1.394 . S
C1472 H1488 0.931 . S
C1473 C1472 1.391 . S
C1473 C1477 1.376 1_565 S
C1474 C1472 1.394 . S
C1474 C1475 1.369 . S
C1474 C1478 1.531 . S
C1475 C1474 1.369 . S
C1475 C1476 1.410 1_565 S
C1475 C1483 1.503 1_565 S
C1476 C1475 1.410 1_545 S
C1476 C1477 1.392 . S
C1476 C1479 1.511 . S
C1477 C1473 1.376 1_545 S
C1477 C1476 1.392 . S
C1477 H1489 0.929 . S
C1478 C1474 1.531 . S
C1478 H1490 0.960 . S
C1478 H1491 0.962 . S
C1478 H1492 0.960 . S
C1479 C1476 1.511 . S
C1479 H1493 0.961 . S
C1479 H1494 0.961 . S
C1479 H1495 0.961 . S
C1480 C1481 1.370 . S
C1480 C1482 1.363 . S
C1480 H1496 0.931 . S
C1481 C1480 1.370 . S
C1481 C1485 1.408 . S
C1482 C1480 1.363 . S
C1482 C1483 1.370 . S
C1482 C1486 1.524 . S
C1483 C1475 1.503 1_545 S
C1483 C1482 1.370 . S
C1483 C1484 1.403 1_545 S
C1484 C1483 1.403 1_565 S
C1484 C1485 1.404 1_565 S
C1484 C1487 1.539 . S
C1485 C1481 1.408 . S
C1485 C1484 1.404 1_545 S
C1485 H1497 0.930 . S
C1486 C1482 1.524 . S
C1486 H1498 0.956 . S
C1486 H1499 0.961 . S
C1486 H1500 0.961 . S
C1487 C1484 1.539 . S
C1487 H1501 0.958 . S
C1487 H1502 0.961 . S
C1487 H1503 0.960 . S
H1488 C1472 0.931 . S
H1489 C1477 0.929 . S
H1490 C1478 0.960 . S
H1491 C1478 0.962 . S
H1492 C1478 0.960 . S
H1493 C1479 0.961 . S
H1494 C1479 0.961 . S
H1495 C1479 0.961 . S
H1496 C1480 0.931 . S
H1497 C1485 0.930 . S
H1498 C1486 0.956 . S
H1499 C1486 0.961 . S
H1500 C1486 0.961 . S
H1501 C1487 0.958 . S
H1502 C1487 0.961 . S
H1503 C1487 0.960 . S
C1504 C1505 1.391 . S
C1504 C1506 1.394 . S
C1504 H1520 0.931 . S
C1505 C1504 1.391 . S
C1505 C1509 1.376 1_655 S
C1506 C1504 1.394 . S
C1506 C1507 1.369 . S
C1506 C1510 1.531 . S
C1507 C1506 1.369 . S
C1507 C1508 1.410 1_655 S
C1507 C1515 1.503 1_655 S
C1508 C1507 1.410 1_455 S
C1508 C1509 1.392 . S
C1508 C1511 1.511 . S
C1509 C1505 1.376 1_455 S
C1509 C1508 1.392 . S
C1509 H1521 0.929 . S
C1510 C1506 1.531 . S
C1510 H1522 0.960 . S
C1510 H1523 0.962 . S
C1510 H1524 0.960 . S
C1511 C1508 1.511 . S
C1511 H1525 0.961 . S
C1511 H1526 0.961 . S
C1511 H1527 0.961 . S
C1512 C1513 1.370 . S
C1512 C1514 1.363 . S
C1512 H1528 0.931 . S
C1513 C1512 1.370 . S
C1513 C1517 1.408 . S
C1514 C1512 1.363 . S
C1514 C1515 1.370 . S
C1514 C1518 1.524 1_455 S
C1515 C1507 1.503 1_455 S
C1515 C1514 1.370 . S
C1515 C1516 1.403 . S
C1516 C1515 1.403 . S
C1516 C1517 1.404 . S
C1516 C1519 1.539 . S
C1517 C1513 1.408 . S
C1517 C1516 1.404 . S
C1517 H1529 0.930 . S
C1518 C1514 1.524 1_655 S
C1518 H1530 0.956 . S
C1518 H1531 0.961 1_655 S
C1518 H1532 0.961 . S
C1519 C1516 1.539 . S
C1519 H1533 0.957 1_455 S
C1519 H1534 0.961 . S
C1519 H1535 0.960 . S
H1520 C1504 0.931 . S
H1521 C1509 0.929 . S
H1522 C1510 0.960 . S
H1523 C1510 0.962 . S
H1524 C1510 0.960 . S
H1525 C1511 0.961 . S
H1526 C1511 0.961 . S
H1527 C1511 0.961 . S
H1528 C1512 0.931 . S
H1529 C1517 0.930 . S
H1530 C1518 0.956 . S
H1531 C1518 0.961 1_455 S
H1532 C1518 0.961 . S
H1533 C1519 0.957 1_655 S
H1534 C1519 0.961 . S
H1535 C1519 0.960 . S
C1536 C1537 1.391 . S
C1536 C1538 1.413 . S
C1536 H1552 0.931 . S
C1537 C1536 1.391 . S
C1537 C1541 1.376 . S
C1538 C1536 1.413 . S
C1538 C1539 1.365 1_545 S
C1538 C1542 1.518 1_545 S
C1539 C1538 1.365 1_565 S
C1539 C1540 1.410 1_565 S
C1539 C1547 1.503 . S
C1540 C1539 1.410 1_545 S
C1540 C1541 1.392 . S
C1540 C1543 1.511 . S
C1541 C1537 1.376 . S
C1541 C1540 1.392 . S
C1541 H1553 0.929 . S
C1542 C1538 1.518 1_565 S
C1542 H1554 0.960 . S
C1542 H1555 0.962 1_565 S
C1542 H1556 0.960 . S
C1543 C1540 1.511 . S
C1543 H1557 0.961 . S
C1543 H1558 0.961 . S
C1543 H1559 0.961 1_545 S
C1544 C1545 1.370 1_545 S
C1544 C1546 1.363 . S
C1544 H1560 0.931 . S
C1545 C1544 1.370 1_565 S
C1545 C1549 1.408 . S
C1546 C1544 1.363 . S
C1546 C1547 1.370 1_545 S
C1546 C1550 1.524 . S
C1547 C1539 1.503 . S
C1547 C1546 1.370 1_565 S
C1547 C1548 1.403 . S
C1548 C1547 1.403 . S
C1548 C1549 1.404 . S
C1548 C1551 1.539 . S
C1549 C1545 1.408 . S
C1549 C1548 1.404 . S
C1549 H1561 0.930 . S
C1550 C1546 1.524 . S
C1550 H1562 0.956 . S
C1550 H1563 0.961 . S
C1550 H1564 0.961 . S
C1551 C1548 1.539 . S
C1551 H1565 0.958 . S
C1551 H1566 0.961 . S
C1551 H1567 0.960 . S
H1552 C1536 0.931 . S
H1553 C1541 0.929 . S
H1554 C1542 0.960 . S
H1555 C1542 0.962 1_545 S
H1556 C1542 0.960 . S
H1557 C1543 0.961 . S
H1558 C1543 0.961 . S
H1559 C1543 0.961 1_565 S
H1560 C1544 0.931 . S
H1561 C1549 0.930 . S
H1562 C1550 0.956 . S
H1563 C1550 0.961 . S
H1564 C1550 0.961 . S
H1565 C1551 0.958 . S
H1566 C1551 0.961 . S
H1567 C1551 0.960 . S
C1568 C1569 1.391 . S
C1568 C1570 1.394 . S
C1568 H1584 0.931 . S
C1569 C1568 1.391 . S
C1569 C1573 1.376 1_455 S
C1570 C1568 1.394 . S
C1570 C1571 1.369 . S
C1570 C1574 1.531 . S
C1571 C1570 1.369 . S
C1571 C1572 1.410 1_455 S
C1571 C1579 1.503 1_455 S
C1572 C1571 1.410 1_655 S
C1572 C1573 1.392 . S
C1572 C1575 1.511 . S
C1573 C1569 1.376 1_655 S
C1573 C1572 1.392 . S
C1573 H1585 0.929 . S
C1574 C1570 1.531 . S
C1574 H1586 0.960 . S
C1574 H1587 0.962 . S
C1574 H1588 0.960 . S
C1575 C1572 1.511 . S
C1575 H1589 0.961 . S
C1575 H1590 0.961 . S
C1575 H1591 0.961 . S
C1576 C1577 1.370 . S
C1576 C1578 1.349 1_655 S
C1576 H1592 0.930 . S
C1577 C1576 1.370 . S
C1577 C1581 1.408 . S
C1578 C1576 1.349 1_455 S
C1578 C1579 1.356 1_455 S
C1578 C1582 1.556 . S
C1579 C1571 1.503 1_655 S
C1579 C1578 1.356 1_655 S
C1579 C1580 1.403 . S
C1580 C1579 1.403 . S
C1580 C1581 1.404 . S
C1580 C1583 1.539 . S
C1581 C1577 1.408 . S
C1581 C1580 1.404 . S
C1581 H1593 0.930 . S
C1582 C1578 1.556 . S
C1582 H1594 0.956 . S
C1582 H1595 0.961 . S
C1582 H1596 0.961 . S
C1583 C1580 1.539 . S
C1583 H1597 0.958 . S
C1583 H1598 0.961 . S
C1583 H1599 0.960 . S
H1584 C1568 0.931 . S
H1585 C1573 0.929 . S
H1586 C1574 0.960 . S
H1587 C1574 0.962 . S
H1588 C1574 0.960 . S
H1589 C1575 0.961 . S
H1590 C1575 0.961 . S
H1591 C1575 0.961 . S
H1592 C1576 0.930 . S
H1593 C1581 0.930 . S
H1594 C1582 0.956 . S
H1595 C1582 0.961 . S
H1596 C1582 0.961 . S
H1597 C1583 0.958 . S
H1598 C1583 0.961 . S
H1599 C1583 0.960 . S
C1600 C1601 1.391 . S
C1600 C1602 1.394 . S
C1600 H1616 0.931 . S
C1601 C1600 1.391 . S
C1601 C1605 1.376 . S
C1602 C1600 1.394 . S
C1602 C1603 1.369 . S
C1602 C1606 1.531 . S
C1603 C1602 1.369 . S
C1603 C1604 1.410 . S
C1603 C1611 1.502 1_565 S
C1604 C1603 1.410 . S
C1604 C1605 1.392 . S
C1604 C1607 1.511 . S
C1605 C1601 1.376 . S
C1605 C1604 1.392 . S
C1605 H1617 0.929 . S
C1606 C1602 1.531 . S
C1606 H1618 0.960 . S
C1606 H1619 0.962 1_565 S
C1606 H1620 0.960 . S
C1607 C1604 1.511 . S
C1607 H1621 0.961 . S
C1607 H1622 0.961 1_565 S
C1607 H1623 0.961 . S
C1608 C1609 1.370 . S
C1608 C1610 1.363 . S
C1608 H1624 0.931 . S
C1609 C1608 1.370 . S
C1609 C1613 1.408 1_545 S
C1610 C1608 1.363 . S
C1610 C1611 1.373 . S
C1610 C1614 1.524 . S
C1611 C1603 1.502 1_545 S
C1611 C1610 1.373 . S
C1611 C1612 1.401 1_545 S
C1612 C1611 1.401 1_565 S
C1612 C1613 1.404 . S
C1612 C1615 1.539 . S
C1613 C1609 1.408 1_565 S
C1613 C1612 1.404 . S
C1613 H1625 0.930 . S
C1614 C1610 1.524 . S
C1614 H1626 0.956 . S
C1614 H1627 0.961 . S
C1614 H1628 0.961 . S
C1615 C1612 1.539 . S
C1615 H1629 0.958 . S
C1615 H1630 0.961 . S
C1615 H1631 0.960 . S
H1616 C1600 0.931 . S
H1617 C1605 0.929 . S
H1618 C1606 0.960 . S
H1619 C1606 0.962 1_545 S
H1620 C1606 0.960 . S
H1621 C1607 0.961 . S
H1622 C1607 0.961 1_545 S
H1623 C1607 0.961 . S
H1624 C1608 0.931 . S
H1625 C1613 0.930 . S
H1626 C1614 0.956 . S
H1627 C1614 0.961 . S
H1628 C1614 0.961 . S
H1629 C1615 0.958 . S
H1630 C1615 0.961 . S
H1631 C1615 0.960 . S
C1632 C1633 1.391 . S
C1632 C1634 1.394 . S
C1632 H1648 0.931 . S
C1633 C1632 1.391 . S
C1633 C1637 1.344 1_455 S
C1634 C1632 1.394 . S
C1634 C1635 1.369 . S
C1634 C1638 1.531 . S
C1635 C1634 1.369 . S
C1635 C1636 1.410 1_455 S
C1635 C1643 1.503 1_455 S
C1636 C1635 1.410 1_655 S
C1636 C1637 1.403 . S
C1636 C1639 1.511 . S
C1637 C1633 1.344 1_655 S
C1637 C1636 1.403 . S
C1637 H1649 0.951 . S
C1638 C1634 1.531 . S
C1638 H1650 0.960 . S
C1638 H1651 0.962 . S
C1638 H1652 0.960 . S
C1639 C1636 1.511 . S
C1639 H1653 0.961 . S
C1639 H1654 0.961 . S
C1639 H1655 0.961 . S
C1640 C1641 1.370 . S
C1640 C1642 1.363 . S
C1640 H1656 0.931 . S
C1641 C1640 1.370 . S
C1641 C1645 1.408 . S
C1642 C1640 1.363 . S
C1642 C1643 1.370 . S
C1642 C1646 1.524 . S
C1643 C1635 1.503 1_655 S
C1643 C1642 1.370 . S
C1643 C1644 1.403 1_655 S
C1644 C1643 1.403 1_455 S
C1644 C1645 1.404 1_455 S
C1644 C1647 1.539 . S
C1645 C1641 1.408 . S
C1645 C1644 1.404 1_655 S
C1645 H1657 0.942 . S
C1646 C1642 1.524 . S
C1646 H1658 0.956 . S
C1646 H1659 0.961 . S
C1646 H1660 0.961 . S
C1647 C1644 1.539 . S
C1647 H1661 0.958 . S
C1647 H1662 0.961 . S
C1647 H1663 0.960 . S
H1648 C1632 0.931 . S
H1649 C1637 0.951 . S
H1650 C1638 0.960 . S
H1651 C1638 0.962 . S
H1652 C1638 0.960 . S
H1653 C1639 0.961 . S
H1654 C1639 0.961 . S
H1655 C1639 0.961 . S
H1656 C1640 0.931 . S
H1657 C1645 0.942 . S
H1658 C1646 0.956 . S
H1659 C1646 0.961 . S
H1660 C1646 0.961 . S
H1661 C1647 0.958 . S
H1662 C1647 0.961 . S
H1663 C1647 0.960 . S
C1664 C1665 1.391 . S
C1664 C1666 1.394 . S
C1664 H1680 0.931 . S
C1665 C1664 1.391 . S
C1665 C1669 1.376 . S
C1666 C1664 1.394 . S
C1666 C1667 1.369 . S
C1666 C1670 1.531 . S
C1667 C1666 1.369 . S
C1667 C1668 1.410 . S
C1667 C1675 1.502 1_545 S
C1668 C1667 1.410 . S
C1668 C1669 1.392 . S
C1668 C1671 1.511 . S
C1669 C1665 1.376 . S
C1669 C1668 1.392 . S
C1669 H1681 0.929 . S
C1670 C1666 1.531 . S
C1670 H1682 0.960 . S
C1670 H1683 0.962 1_545 S
C1670 H1684 0.960 . S
C1671 C1668 1.511 . S
C1671 H1685 0.950 1_545 S
C1671 H1686 0.961 1_545 S
C1671 H1687 0.961 . S
C1672 C1673 1.370 . S
C1672 C1674 1.363 . S
C1672 H1688 0.931 . S
C1673 C1672 1.370 . S
C1673 C1677 1.408 1_565 S
C1674 C1672 1.363 . S
C1674 C1675 1.374 . S
C1674 C1678 1.524 . S
C1675 C1667 1.502 1_565 S
C1675 C1674 1.374 . S
C1675 C1676 1.401 1_565 S
C1676 C1675 1.401 1_545 S
C1676 C1677 1.404 . S
C1676 C1679 1.539 . S
C1677 C1673 1.408 1_545 S
C1677 C1676 1.404 . S
C1677 H1689 0.930 . S
C1678 C1674 1.524 . S
C1678 H1690 0.956 . S
C1678 H1691 0.961 . S
C1678 H1692 0.961 . S
C1679 C1676 1.539 . S
C1679 H1693 0.958 . S
C1679 H1694 0.961 . S
C1679 H1695 0.960 . S
H1680 C1664 0.931 . S
H1681 C1669 0.929 . S
H1682 C1670 0.960 . S
H1683 C1670 0.962 1_565 S
H1684 C1670 0.960 . S
H1685 C1671 0.950 1_565 S
H1686 C1671 0.961 1_565 S
H1687 C1671 0.961 . S
H1688 C1672 0.931 . S
H1689 C1677 0.930 . S
H1690 C1678 0.956 . S
H1691 C1678 0.961 . S
H1692 C1678 0.961 . S
H1693 C1679 0.958 . S
H1694 C1679 0.961 . S
H1695 C1679 0.960 . S
C1696 C1697 1.391 . S
C1696 C1698 1.394 . S
C1696 H1712 0.931 . S
C1697 C1696 1.391 . S
C1697 C1701 1.376 . S
C1698 C1696 1.394 . S
C1698 C1699 1.369 . S
C1698 C1702 1.531 . S
C1699 C1698 1.369 . S
C1699 C1700 1.410 1_556 S
C1699 C1707 1.503 1_556 S
C1700 C1699 1.410 1_554 S
C1700 C1701 1.392 1_554 S
C1700 C1703 1.511 . S
C1701 C1697 1.376 . S
C1701 C1700 1.392 1_556 S
C1701 H1713 0.929 1_556 S
C1702 C1698 1.531 . S
C1702 H1714 0.960 . S
C1702 H1715 0.962 . S
C1702 H1716 0.960 . S
C1703 C1700 1.511 . S
C1703 H1717 0.961 . S
C1703 H1718 0.961 . S
C1703 H1719 0.961 . S
C1704 C1705 1.370 . S
C1704 C1706 1.363 . S
C1704 H1720 0.931 . S
C1705 C1704 1.370 . S
C1705 C1709 1.408 . S
C1706 C1704 1.363 . S
C1706 C1707 1.370 . S
C1706 C1710 1.524 . S
C1707 C1699 1.503 1_554 S
C1707 C1706 1.370 . S
C1707 C1708 1.403 1_554 S
C1708 C1707 1.403 1_556 S
C1708 C1709 1.404 1_556 S
C1708 C1711 1.539 . S
C1709 C1705 1.408 . S
C1709 C1708 1.404 1_554 S
C1709 H1721 0.930 1_554 S
C1710 C1706 1.524 . S
C1710 H1722 0.956 . S
C1710 H1723 0.961 . S
C1710 H1724 0.961 . S
C1711 C1708 1.539 . S
C1711 H1725 0.958 . S
C1711 H1726 0.961 . S
C1711 H1727 0.960 . S
H1712 C1696 0.931 . S
H1713 C1701 0.929 1_554 S
H1714 C1702 0.960 . S
H1715 C1702 0.962 . S
H1716 C1702 0.960 . S
H1717 C1703 0.961 . S
H1718 C1703 0.961 . S
H1719 C1703 0.961 . S
H1720 C1704 0.931 . S
H1721 C1709 0.930 1_556 S
H1722 C1710 0.956 . S
H1723 C1710 0.961 . S
H1724 C1710 0.961 . S
H1725 C1711 0.958 . S
H1726 C1711 0.961 . S
H1727 C1711 0.960 . S
C1728 C1729 1.391 . S
C1728 C1730 1.394 . S
C1728 H1744 0.931 . S
C1729 C1728 1.391 . S
C1729 C1733 1.376 . S
C1730 C1728 1.394 . S
C1730 C1731 1.369 . S
C1730 C1734 1.531 . S
C1731 C1730 1.369 . S
C1731 C1732 1.410 . S
C1731 C1739 1.501 1_554 S
C1732 C1731 1.410 . S
C1732 C1733 1.392 . S
C1732 C1735 1.511 . S
C1733 C1729 1.376 . S
C1733 C1732 1.392 . S
C1733 H1745 0.929 . S
C1734 C1730 1.531 . S
C1734 H1746 0.960 . S
C1734 H1747 0.962 1_554 S
C1734 H1748 0.960 . S
C1735 C1732 1.511 . S
C1735 H1749 0.961 . S
C1735 H1750 0.961 . S
C1735 H1751 0.961 . S
C1736 C1737 1.370 . S
C1736 C1738 1.363 . S
C1736 H1752 0.931 . S
C1737 C1736 1.370 . S
C1737 C1741 1.408 1_556 S
C1738 C1736 1.363 . S
C1738 C1739 1.376 . S
C1738 C1742 1.524 . S
C1739 C1731 1.501 1_556 S
C1739 C1738 1.376 . S
C1739 C1740 1.399 1_556 S
C1740 C1739 1.399 1_554 S
C1740 C1741 1.404 . S
C1740 C1743 1.539 . S
C1741 C1737 1.408 1_554 S
C1741 C1740 1.404 . S
C1741 H1753 0.930 . S
C1742 C1738 1.524 . S
C1742 H1754 0.956 . S
C1742 H1755 0.961 . S
C1742 H1756 0.961 . S
C1743 C1740 1.539 . S
C1743 H1757 0.958 . S
C1743 H1758 0.961 . S
C1743 H1759 0.960 . S
H1744 C1728 0.931 . S
H1745 C1733 0.929 . S
H1746 C1734 0.960 . S
H1747 C1734 0.962 1_556 S
H1748 C1734 0.960 . S
H1749 C1735 0.961 . S
H1750 C1735 0.961 . S
H1751 C1735 0.961 . S
H1752 C1736 0.931 . S
H1753 C1741 0.930 . S
H1754 C1742 0.956 . S
H1755 C1742 0.961 . S
H1756 C1742 0.961 . S
H1757 C1743 0.958 . S
H1758 C1743 0.961 . S
H1759 C1743 0.960 . S
C1760 C1761 1.391 . S
C1760 C1762 1.394 . S
C1760 H1776 0.931 . S
C1761 C1760 1.391 . S
C1761 C1765 1.376 . S
C1762 C1760 1.394 . S
C1762 C1763 1.369 . S
C1762 C1766 1.531 . S
C1763 C1762 1.369 . S
C1763 C1764 1.391 1_554 S
C1763 C1771 1.489 1_554 S
C1764 C1763 1.391 1_556 S
C1764 C1765 1.380 1_556 S
C1764 C1767 1.544 . S
C1765 C1761 1.376 . S
C1765 C1764 1.380 1_554 S
C1765 H1777 0.912 1_554 S
C1766 C1762 1.531 . S
C1766 H1778 0.960 . S
C1766 H1779 0.962 . S
C1766 H1780 0.960 . S
C1767 C1764 1.544 . S
C1767 H1781 0.961 . S
C1767 H1782 0.961 . S
C1767 H1783 0.961 . S
C1768 C1769 1.370 . S
C1768 C1770 1.363 . S
C1768 H1784 0.931 . S
C1769 C1768 1.370 . S
C1769 C1773 1.408 1_556 S
C1770 C1768 1.363 . S
C1770 C1771 1.406 . S
C1770 C1774 1.524 . S
C1771 C1763 1.489 1_556 S
C1771 C1770 1.406 . S
C1771 C1772 1.383 1_556 S
C1772 C1771 1.383 1_554 S
C1772 C1773 1.404 . S
C1772 C1775 1.539 . S
C1773 C1769 1.408 1_554 S
C1773 C1772 1.404 . S
C1773 H1785 0.930 . S
C1774 C1770 1.524 . S
C1774 H1786 0.956 . S
C1774 H1787 0.961 . S
C1774 H1788 0.961 . S
C1775 C1772 1.539 . S
C1775 H1789 0.958 . S
C1775 H1790 0.961 . S
C1775 H1791 0.960 . S
H1776 C1760 0.931 . S
H1777 C1765 0.912 1_556 S
H1778 C1766 0.960 . S
H1779 C1766 0.962 . S
H1780 C1766 0.960 . S
H1781 C1767 0.961 . S
H1782 C1767 0.961 . S
H1783 C1767 0.961 . S
H1784 C1768 0.931 . S
H1785 C1773 0.930 . S
H1786 C1774 0.956 . S
H1787 C1774 0.961 . S
H1788 C1774 0.961 . S
H1789 C1775 0.958 . S
H1790 C1775 0.961 . S
H1791 C1775 0.960 . S
C1792 C1793 1.391 . S
C1792 C1794 1.394 . S
C1792 H1808 0.931 . S
C1793 C1792 1.391 . S
C1793 C1797 1.376 . S
C1794 C1792 1.394 . S
C1794 C1795 1.355 1_556 S
C1794 C1798 1.531 . S
C1795 C1794 1.355 1_554 S
C1795 C1796 1.415 . S
C1795 C1803 1.510 . S
C1796 C1795 1.415 . S
C1796 C1797 1.392 1_554 S
C1796 C1799 1.511 . S
C1797 C1793 1.376 . S
C1797 C1796 1.392 1_556 S
C1797 H1809 0.928 1_556 S
C1798 C1794 1.531 . S
C1798 H1810 0.960 . S
C1798 H1811 0.962 . S
C1798 H1812 0.960 . S
C1799 C1796 1.511 . S
C1799 H1813 0.961 . S
C1799 H1814 0.961 . S
C1799 H1815 0.961 . S
C1800 C1801 1.370 1_556 S
C1800 C1802 1.363 . S
C1800 H1816 0.931 . S
C1801 C1800 1.370 1_554 S
C1801 C1805 1.408 . S
C1802 C1800 1.363 . S
C1802 C1803 1.370 1_556 S
C1802 C1806 1.524 . S
C1803 C1795 1.510 . S
C1803 C1802 1.370 1_554 S
C1803 C1804 1.403 . S
C1804 C1803 1.403 . S
C1804 C1805 1.404 . S
C1804 C1807 1.539 . S
C1805 C1801 1.408 . S
C1805 C1804 1.404 . S
C1805 H1817 0.930 . S
C1806 C1802 1.524 . S
C1806 H1818 0.956 . S
C1806 H1819 0.961 . S
C1806 H1820 0.961 . S
C1807 C1804 1.539 . S
C1807 H1821 0.958 . S
C1807 H1822 0.961 . S
C1807 H1823 0.960 . S
H1808 C1792 0.931 . S
H1809 C1797 0.928 1_554 S
H1810 C1798 0.960 . S
H1811 C1798 0.962 . S
H1812 C1798 0.960 . S
H1813 C1799 0.961 . S
H1814 C1799 0.961 . S
H1815 C1799 0.961 . S
H1816 C1800 0.931 . S
H1817 C1805 0.930 . S
H1818 C1806 0.956 . S
H1819 C1806 0.961 . S
H1820 C1806 0.961 . S
H1821 C1807 0.958 . S
H1822 C1807 0.961 . S
H1823 C1807 0.960 . S
C1824 C1825 1.391 . S
C1824 C1826 1.394 . S
C1824 H1840 0.931 . S
C1825 C1824 1.391 . S
C1825 C1829 1.376 . S
C1826 C1824 1.394 . S
C1826 C1827 1.369 . S
C1826 C1830 1.531 . S
C1827 C1826 1.369 . S
C1827 C1828 1.410 . S
C1827 C1835 1.503 . S
C1828 C1827 1.410 . S
C1828 C1829 1.392 . S
C1828 C1831 1.511 . S
C1829 C1825 1.376 . S
C1829 C1828 1.392 . S
C1829 H1841 0.929 . S
C1830 C1826 1.531 . S
C1830 H1842 0.960 . S
C1830 H1843 0.962 . S
C1830 H1844 0.960 . S
C1831 C1828 1.511 . S
C1831 H1845 0.961 . S
C1831 H1846 0.961 . S
C1831 H1847 0.961 . S
C1832 C1833 1.370 . S
C1832 C1834 1.363 . S
C1832 H1848 0.931 . S
C1833 C1832 1.370 . S
C1833 C1837 1.408 . S
C1834 C1832 1.363 . S
C1834 C1835 1.370 . S
C1834 C1838 1.524 . S
C1835 C1827 1.503 . S
C1835 C1834 1.370 . S
C1835 C1836 1.403 . S
C1836 C1835 1.403 . S
C1836 C1837 1.404 . S
C1836 C1839 1.539 . S
C1837 C1833 1.408 . S
C1837 C1836 1.404 . S
C1837 H1849 0.930 . S
C1838 C1834 1.524 . S
C1838 H1850 0.956 . S
C1838 H1851 0.961 . S
C1838 H1852 0.961 . S
C1839 C1836 1.539 . S
C1839 H1853 0.958 . S
C1839 H1854 0.961 . S
C1839 H1855 0.960 . S
H1840 C1824 0.931 . S
H1841 C1829 0.929 . S
H1842 C1830 0.960 . S
H1843 C1830 0.962 . S
H1844 C1830 0.960 . S
H1845 C1831 0.961 . S
H1846 C1831 0.961 . S
H1847 C1831 0.961 . S
H1848 C1832 0.931 . S
H1849 C1837 0.930 . S
H1850 C1838 0.956 . S
H1851 C1838 0.961 . S
H1852 C1838 0.961 . S
H1853 C1839 0.958 . S
H1854 C1839 0.961 . S
H1855 C1839 0.960 . S
C1856 C1857 1.391 . S
C1856 C1858 1.394 . S
C1856 H1872 0.931 . S
C1857 C1856 1.391 . S
C1857 C1861 1.376 . S
C1858 C1856 1.394 . S
C1858 C1859 1.369 . S
C1858 C1862 1.531 . S
C1859 C1858 1.369 . S
C1859 C1860 1.410 . S
C1859 C1867 1.503 . S
C1860 C1859 1.410 . S
C1860 C1861 1.392 . S
C1860 C1863 1.511 . S
C1861 C1857 1.376 . S
C1861 C1860 1.392 . S
C1861 H1873 0.929 . S
C1862 C1858 1.531 . S
C1862 H1874 0.960 . S
C1862 H1875 0.962 . S
C1862 H1876 0.960 . S
C1863 C1860 1.511 . S
C1863 H1877 0.961 . S
C1863 H1878 0.961 . S
C1863 H1879 0.961 . S
C1864 C1865 1.370 . S
C1864 C1866 1.363 . S
C1864 H1880 0.931 . S
C1865 C1864 1.370 . S
C1865 C1869 1.408 . S
C1866 C1864 1.363 . S
C1866 C1867 1.370 . S
C1866 C1870 1.524 . S
C1867 C1859 1.503 . S
C1867 C1866 1.370 . S
C1867 C1868 1.403 . S
C1868 C1867 1.403 . S
C1868 C1869 1.404 . S
C1868 C1871 1.539 . S
C1869 C1865 1.408 . S
C1869 C1868 1.404 . S
C1869 H1881 0.930 . S
C1870 C1866 1.524 . S
C1870 H1882 0.956 . S
C1870 H1883 0.961 . S
C1870 H1884 0.961 . S
C1871 C1868 1.539 . S
C1871 H1885 0.958 . S
C1871 H1886 0.961 . S
C1871 H1887 0.960 . S
H1872 C1856 0.931 . S
H1873 C1861 0.929 . S
H1874 C1862 0.960 . S
H1875 C1862 0.962 . S
H1876 C1862 0.960 . S
H1877 C1863 0.961 . S
H1878 C1863 0.961 . S
H1879 C1863 0.961 . S
H1880 C1864 0.931 . S
H1881 C1869 0.930 . S
H1882 C1870 0.956 . S
H1883 C1870 0.961 . S
H1884 C1870 0.961 . S
H1885 C1871 0.958 . S
H1886 C1871 0.961 . S
H1887 C1871 0.960 . S
C1888 C1889 1.391 . S
C1888 C1890 1.394 . S
C1888 H1904 0.931 . S
C1889 C1888 1.391 . S
C1889 C1893 1.376 . S
C1890 C1888 1.394 . S
C1890 C1891 1.369 . S
C1890 C1894 1.531 . S
C1891 C1890 1.369 . S
C1891 C1892 1.410 . S
C1891 C1899 1.503 . S
C1892 C1891 1.410 . S
C1892 C1893 1.392 . S
C1892 C1895 1.511 . S
C1893 C1889 1.376 . S
C1893 C1892 1.392 . S
C1893 H1905 0.929 . S
C1894 C1890 1.531 . S
C1894 H1906 0.960 . S
C1894 H1907 0.962 . S
C1894 H1908 0.960 . S
C1895 C1892 1.511 . S
C1895 H1909 0.961 . S
C1895 H1910 0.961 . S
C1895 H1911 0.961 . S
C1896 C1897 1.370 . S
C1896 C1898 1.363 . S
C1896 H1912 0.931 . S
C1897 C1896 1.370 . S
C1897 C1901 1.408 . S
C1898 C1896 1.363 . S
C1898 C1899 1.370 . S
C1898 C1902 1.524 . S
C1899 C1891 1.503 . S
C1899 C1898 1.370 . S
C1899 C1900 1.403 . S
C1900 C1899 1.403 . S
C1900 C1901 1.404 . S
C1900 C1903 1.539 . S
C1901 C1897 1.408 . S
C1901 C1900 1.404 . S
C1901 H1913 0.930 . S
C1902 C1898 1.524 . S
C1902 H1914 0.956 . S
C1902 H1915 0.961 . S
C1902 H1916 0.961 . S
C1903 C1900 1.539 . S
C1903 H1917 0.958 . S
C1903 H1918 0.961 . S
C1903 H1919 0.960 . S
H1904 C1888 0.931 . S
H1905 C1893 0.929 . S
H1906 C1894 0.960 . S
H1907 C1894 0.962 . S
H1908 C1894 0.960 . S
H1909 C1895 0.961 . S
H1910 C1895 0.961 . S
H1911 C1895 0.961 . S
H1912 C1896 0.931 . S
H1913 C1901 0.930 . S
H1914 C1902 0.956 . S
H1915 C1902 0.961 . S
H1916 C1902 0.961 . S
H1917 C1903 0.958 . S
H1918 C1903 0.961 . S
H1919 C1903 0.960 . S
C1920 C1921 1.391 . S
C1920 C1922 1.394 . S
C1920 H1936 0.931 . S
C1921 C1920 1.391 . S
C1921 C1925 1.376 . S
C1922 C1920 1.394 . S
C1922 C1923 1.369 . S
C1922 C1926 1.531 . S
C1923 C1922 1.369 . S
C1923 C1924 1.410 . S
C1923 C1931 1.503 . S
C1924 C1923 1.410 . S
C1924 C1925 1.392 . S
C1924 C1927 1.511 . S
C1925 C1921 1.376 . S
C1925 C1924 1.392 . S
C1925 H1937 0.929 . S
C1926 C1922 1.531 . S
C1926 H1938 0.960 . S
C1926 H1939 0.962 . S
C1926 H1940 0.960 . S
C1927 C1924 1.511 . S
C1927 H1941 0.961 . S
C1927 H1942 0.961 . S
C1927 H1943 0.961 . S
C1928 C1929 1.370 . S
C1928 C1930 1.363 . S
C1928 H1944 0.931 . S
C1929 C1928 1.370 . S
C1929 C1933 1.408 . S
C1930 C1928 1.363 . S
C1930 C1931 1.370 . S
C1930 C1934 1.524 . S
C1931 C1923 1.503 . S
C1931 C1930 1.370 . S
C1931 C1932 1.403 . S
C1932 C1931 1.403 . S
C1932 C1933 1.404 . S
C1932 C1935 1.539 . S
C1933 C1929 1.408 . S
C1933 C1932 1.404 . S
C1933 H1945 0.930 . S
C1934 C1930 1.524 . S
C1934 H1946 0.956 . S
C1934 H1947 0.961 . S
C1934 H1948 0.961 . S
C1935 C1932 1.539 . S
C1935 H1949 0.958 . S
C1935 H1950 0.961 . S
C1935 H1951 0.960 . S
H1936 C1920 0.931 . S
H1937 C1925 0.929 . S
H1938 C1926 0.960 . S
H1939 C1926 0.962 . S
H1940 C1926 0.960 . S
H1941 C1927 0.961 . S
H1942 C1927 0.961 . S
H1943 C1927 0.961 . S
H1944 C1928 0.931 . S
H1945 C1933 0.930 . S
H1946 C1934 0.956 . S
H1947 C1934 0.961 . S
H1948 C1934 0.961 . S
H1949 C1935 0.958 . S
H1950 C1935 0.961 . S
H1951 C1935 0.960 . S
C1952 C1953 1.391 . S
C1952 C1954 1.394 . S
C1952 H1968 0.931 . S
C1953 C1952 1.391 . S
C1953 C1957 1.376 . S
C1954 C1952 1.394 . S
C1954 C1955 1.369 . S
C1954 C1958 1.531 . S
C1955 C1954 1.369 . S
C1955 C1956 1.410 . S
C1955 C1963 1.503 . S
C1956 C1955 1.410 . S
C1956 C1957 1.392 . S
C1956 C1959 1.511 . S
C1957 C1953 1.376 . S
C1957 C1956 1.392 . S
C1957 H1969 0.929 . S
C1958 C1954 1.531 . S
C1958 H1970 0.960 . S
C1958 H1971 0.962 . S
C1958 H1972 0.960 . S
C1959 C1956 1.511 . S
C1959 H1973 0.961 . S
C1959 H1974 0.961 . S
C1959 H1975 0.961 . S
C1960 C1961 1.370 . S
C1960 C1962 1.363 . S
C1960 H1976 0.931 . S
C1961 C1960 1.370 . S
C1961 C1965 1.408 . S
C1962 C1960 1.363 . S
C1962 C1963 1.370 . S
C1962 C1966 1.524 . S
C1963 C1955 1.503 . S
C1963 C1962 1.370 . S
C1963 C1964 1.403 . S
C1964 C1963 1.403 . S
C1964 C1965 1.404 . S
C1964 C1967 1.539 . S
C1965 C1961 1.408 . S
C1965 C1964 1.404 . S
C1965 H1977 0.930 . S
C1966 C1962 1.524 . S
C1966 H1978 0.956 . S
C1966 H1979 0.961 . S
C1966 H1980 0.961 . S
C1967 C1964 1.539 . S
C1967 H1981 0.958 . S
C1967 H1982 0.961 . S
C1967 H1983 0.960 . S
H1968 C1952 0.931 . S
H1969 C1957 0.929 . S
H1970 C1958 0.960 . S
H1971 C1958 0.962 . S
H1972 C1958 0.960 . S
H1973 C1959 0.961 . S
H1974 C1959 0.961 . S
H1975 C1959 0.961 . S
H1976 C1960 0.931 . S
H1977 C1965 0.930 . S
H1978 C1966 0.956 . S
H1979 C1966 0.961 . S
H1980 C1966 0.961 . S
H1981 C1967 0.958 . S
H1982 C1967 0.961 . S
H1983 C1967 0.960 . S
C1984 C1985 1.391 . S
C1984 C1986 1.394 . S
C1984 H2000 0.931 . S
C1985 C1984 1.391 . S
C1985 C1989 1.376 . S
C1986 C1984 1.394 . S
C1986 C1987 1.369 . S
C1986 C1990 1.531 . S
C1987 C1986 1.369 . S
C1987 C1988 1.410 . S
C1987 C1995 1.503 . S
C1988 C1987 1.410 . S
C1988 C1989 1.392 . S
C1988 C1991 1.511 . S
C1989 C1985 1.376 . S
C1989 C1988 1.392 . S
C1989 H2001 0.929 . S
C1990 C1986 1.531 . S
C1990 H2002 0.960 . S
C1990 H2003 0.962 . S
C1990 H2004 0.960 . S
C1991 C1988 1.511 . S
C1991 H2005 0.961 . S
C1991 H2006 0.961 . S
C1991 H2007 0.961 . S
C1992 C1993 1.370 . S
C1992 C1994 1.363 . S
C1992 H2008 0.931 . S
C1993 C1992 1.370 . S
C1993 C1997 1.408 . S
C1994 C1992 1.363 . S
C1994 C1995 1.370 . S
C1994 C1998 1.524 . S
C1995 C1987 1.503 . S
C1995 C1994 1.370 . S
C1995 C1996 1.403 . S
C1996 C1995 1.403 . S
C1996 C1997 1.404 . S
C1996 C1999 1.539 . S
C1997 C1993 1.408 . S
C1997 C1996 1.404 . S
C1997 H2009 0.930 . S
C1998 C1994 1.524 . S
C1998 H2010 0.956 . S
C1998 H2011 0.961 . S
C1998 H2012 0.961 . S
C1999 C1996 1.539 . S
C1999 H2013 0.958 . S
C1999 H2014 0.961 . S
C1999 H2015 0.960 . S
H2000 C1984 0.931 . S
H2001 C1989 0.929 . S
H2002 C1990 0.960 . S
H2003 C1990 0.962 . S
H2004 C1990 0.960 . S
H2005 C1991 0.961 . S
H2006 C1991 0.961 . S
H2007 C1991 0.961 . S
H2008 C1992 0.931 . S
H2009 C1997 0.930 . S
H2010 C1998 0.956 . S
H2011 C1998 0.961 . S
H2012 C1998 0.961 . S
H2013 C1999 0.958 . S
H2014 C1999 0.961 . S
H2015 C1999 0.960 . S
C2016 C2017 1.391 . S
C2016 C2018 1.394 . S
C2016 H2032 0.931 . S
C2017 C2016 1.391 . S
C2017 C2021 1.376 . S
C2018 C2016 1.394 . S
C2018 C2019 1.369 . S
C2018 C2022 1.531 . S
C2019 C2018 1.369 . S
C2019 C2020 1.410 . S
C2019 C2027 1.503 . S
C2020 C2019 1.410 . S
C2020 C2021 1.392 . S
C2020 C2023 1.511 . S
C2021 C2017 1.376 . S
C2021 C2020 1.392 . S
C2021 H2033 0.929 . S
C2022 C2018 1.531 . S
C2022 H2034 0.960 . S
C2022 H2035 0.962 . S
C2022 H2036 0.960 . S
C2023 C2020 1.511 . S
C2023 H2037 0.961 . S
C2023 H2038 0.961 . S
C2023 H2039 0.961 . S
C2024 C2025 1.370 . S
C2024 C2026 1.363 . S
C2024 H2040 0.931 . S
C2025 C2024 1.370 . S
C2025 C2029 1.408 . S
C2026 C2024 1.363 . S
C2026 C2027 1.370 . S
C2026 C2030 1.524 . S
C2027 C2019 1.503 . S
C2027 C2026 1.370 . S
C2027 C2028 1.403 . S
C2028 C2027 1.403 . S
C2028 C2029 1.404 . S
C2028 C2031 1.539 . S
C2029 C2025 1.408 . S
C2029 C2028 1.404 . S
C2029 H2041 0.930 . S
C2030 C2026 1.524 . S
C2030 H2042 0.956 . S
C2030 H2043 0.961 . S
C2030 H2044 0.961 . S
C2031 C2028 1.539 . S
C2031 H2045 0.958 . S
C2031 H2046 0.961 . S
C2031 H2047 0.960 . S
H2032 C2016 0.931 . S
H2033 C2021 0.929 . S
H2034 C2022 0.960 . S
H2035 C2022 0.962 . S
H2036 C2022 0.960 . S
H2037 C2023 0.961 . S
H2038 C2023 0.961 . S
H2039 C2023 0.961 . S
H2040 C2024 0.931 . S
H2041 C2029 0.930 . S
H2042 C2030 0.956 . S
H2043 C2030 0.961 . S
H2044 C2030 0.961 . S
H2045 C2031 0.958 . S
H2046 C2031 0.961 . S
H2047 C2031 0.960 . S
C2048 C2049 1.391 . S
C2048 C2050 1.394 . S
C2048 H2064 0.931 . S
C2049 C2048 1.391 . S
C2049 C2053 1.376 . S
C2050 C2048 1.394 . S
C2050 C2051 1.369 . S
C2050 C2054 1.531 . S
C2051 C2050 1.369 . S
C2051 C2052 1.410 . S
C2051 C2059 1.503 . S
C2052 C2051 1.410 . S
C2052 C2053 1.392 . S
C2052 C2055 1.511 . S
C2053 C2049 1.376 . S
C2053 C2052 1.392 . S
C2053 H2065 0.929 . S
C2054 C2050 1.531 . S
C2054 H2066 0.960 . S
C2054 H2067 0.962 . S
C2054 H2068 0.960 . S
C2055 C2052 1.511 . S
C2055 H2069 0.961 . S
C2055 H2070 0.961 . S
C2055 H2071 0.961 . S
C2056 C2057 1.370 . S
C2056 C2058 1.363 . S
C2056 H2072 0.931 . S
C2057 C2056 1.370 . S
C2057 C2061 1.408 . S
C2058 C2056 1.363 . S
C2058 C2059 1.370 . S
C2058 C2062 1.524 . S
C2059 C2051 1.503 . S
C2059 C2058 1.370 . S
C2059 C2060 1.403 . S
C2060 C2059 1.403 . S
C2060 C2061 1.404 . S
C2060 C2063 1.539 . S
C2061 C2057 1.408 . S
C2061 C2060 1.404 . S
C2061 H2073 0.930 . S
C2062 C2058 1.524 . S
C2062 H2074 0.956 . S
C2062 H2075 0.961 . S
C2062 H2076 0.961 . S
C2063 C2060 1.539 . S
C2063 H2077 0.958 . S
C2063 H2078 0.961 . S
C2063 H2079 0.960 . S
H2064 C2048 0.931 . S
H2065 C2053 0.929 . S
H2066 C2054 0.960 . S
H2067 C2054 0.962 . S
H2068 C2054 0.960 . S
H2069 C2055 0.961 . S
H2070 C2055 0.961 . S
H2071 C2055 0.961 . S
H2072 C2056 0.931 . S
H2073 C2061 0.930 . S
H2074 C2062 0.956 . S
H2075 C2062 0.961 . S
H2076 C2062 0.961 . S
H2077 C2063 0.958 . S
H2078 C2063 0.961 . S
H2079 C2063 0.960 . S
C2080 C2081 1.391 . S
C2080 C2082 1.394 . S
C2080 H2096 0.931 . S
C2081 C2080 1.391 . S
C2081 C2085 1.376 . S
C2082 C2080 1.394 . S
C2082 C2083 1.369 . S
C2082 C2086 1.531 . S
C2083 C2082 1.369 . S
C2083 C2084 1.410 . S
C2083 C2091 1.503 . S
C2084 C2083 1.410 . S
C2084 C2085 1.392 . S
C2084 C2087 1.511 . S
C2085 C2081 1.376 . S
C2085 C2084 1.392 . S
C2085 H2097 0.929 . S
C2086 C2082 1.531 . S
C2086 H2098 0.960 . S
C2086 H2099 0.962 . S
C2086 H2100 0.960 . S
C2087 C2084 1.511 . S
C2087 H2101 0.961 . S
C2087 H2102 0.961 . S
C2087 H2103 0.961 . S
C2088 C2089 1.370 . S
C2088 C2090 1.363 . S
C2088 H2104 0.931 . S
C2089 C2088 1.370 . S
C2089 C2093 1.408 . S
C2090 C2088 1.363 . S
C2090 C2091 1.370 . S
C2090 C2094 1.524 . S
C2091 C2083 1.503 . S
C2091 C2090 1.370 . S
C2091 C2092 1.403 . S
C2092 C2091 1.403 . S
C2092 C2093 1.404 . S
C2092 C2095 1.539 . S
C2093 C2089 1.408 . S
C2093 C2092 1.404 . S
C2093 H2105 0.930 . S
C2094 C2090 1.524 . S
C2094 H2106 0.956 . S
C2094 H2107 0.961 . S
C2094 H2108 0.961 . S
C2095 C2092 1.539 . S
C2095 H2109 0.958 . S
C2095 H2110 0.961 . S
C2095 H2111 0.960 . S
H2096 C2080 0.931 . S
H2097 C2085 0.929 . S
H2098 C2086 0.960 . S
H2099 C2086 0.962 . S
H2100 C2086 0.960 . S
H2101 C2087 0.961 . S
H2102 C2087 0.961 . S
H2103 C2087 0.961 . S
H2104 C2088 0.931 . S
H2105 C2093 0.930 . S
H2106 C2094 0.956 . S
H2107 C2094 0.961 . S
H2108 C2094 0.961 . S
H2109 C2095 0.958 . S
H2110 C2095 0.961 . S
H2111 C2095 0.960 . S
C2112 C2113 1.391 . S
C2112 C2114 1.394 . S
C2112 H2128 0.931 . S
C2113 C2112 1.391 . S
C2113 C2117 1.376 . S
C2114 C2112 1.394 . S
C2114 C2115 1.369 . S
C2114 C2118 1.531 . S
C2115 C2114 1.369 . S
C2115 C2116 1.410 . S
C2115 C2123 1.503 . S
C2116 C2115 1.410 . S
C2116 C2117 1.392 . S
C2116 C2119 1.511 . S
C2117 C2113 1.376 . S
C2117 C2116 1.392 . S
C2117 H2129 0.929 . S
C2118 C2114 1.531 . S
C2118 H2130 0.960 . S
C2118 H2131 0.962 . S
C2118 H2132 0.960 . S
C2119 C2116 1.511 . S
C2119 H2133 0.961 . S
C2119 H2134 0.961 . S
C2119 H2135 0.961 . S
C2120 C2121 1.370 . S
C2120 C2122 1.363 . S
C2120 H2136 0.931 . S
C2121 C2120 1.370 . S
C2121 C2125 1.408 . S
C2122 C2120 1.363 . S
C2122 C2123 1.370 . S
C2122 C2126 1.524 . S
C2123 C2115 1.503 . S
C2123 C2122 1.370 . S
C2123 C2124 1.403 . S
C2124 C2123 1.403 . S
C2124 C2125 1.404 . S
C2124 C2127 1.539 . S
C2125 C2121 1.408 . S
C2125 C2124 1.404 . S
C2125 H2137 0.930 . S
C2126 C2122 1.524 . S
C2126 H2138 0.956 . S
C2126 H2139 0.961 . S
C2126 H2140 0.961 . S
C2127 C2124 1.539 . S
C2127 H2141 0.958 . S
C2127 H2142 0.961 . S
C2127 H2143 0.960 . S
H2128 C2112 0.931 . S
H2129 C2117 0.929 . S
H2130 C2118 0.960 . S
H2131 C2118 0.962 . S
H2132 C2118 0.960 . S
H2133 C2119 0.961 . S
H2134 C2119 0.961 . S
H2135 C2119 0.961 . S
H2136 C2120 0.931 . S
H2137 C2125 0.930 . S
H2138 C2126 0.956 . S
H2139 C2126 0.961 . S
H2140 C2126 0.961 . S
H2141 C2127 0.958 . S
H2142 C2127 0.961 . S
H2143 C2127 0.960 . S
C2144 C2145 1.391 . S
C2144 C2146 1.394 . S
C2144 H2160 0.931 . S
C2145 C2144 1.391 . S
C2145 C2149 1.376 . S
C2146 C2144 1.394 . S
C2146 C2147 1.369 . S
C2146 C2150 1.531 . S
C2147 C2146 1.369 . S
C2147 C2148 1.410 . S
C2147 C2155 1.503 . S
C2148 C2147 1.410 . S
C2148 C2149 1.392 . S
C2148 C2151 1.511 . S
C2149 C2145 1.376 . S
C2149 C2148 1.392 . S
C2149 H2161 0.929 . S
C2150 C2146 1.531 . S
C2150 H2162 0.960 . S
C2150 H2163 0.962 . S
C2150 H2164 0.960 . S
C2151 C2148 1.511 . S
C2151 H2165 0.961 . S
C2151 H2166 0.961 . S
C2151 H2167 0.961 . S
C2152 C2153 1.370 . S
C2152 C2154 1.363 . S
C2152 H2168 0.931 . S
C2153 C2152 1.370 . S
C2153 C2157 1.408 . S
C2154 C2152 1.363 . S
C2154 C2155 1.370 . S
C2154 C2158 1.524 . S
C2155 C2147 1.503 . S
C2155 C2154 1.370 . S
C2155 C2156 1.403 . S
C2156 C2155 1.403 . S
C2156 C2157 1.404 . S
C2156 C2159 1.539 . S
C2157 C2153 1.408 . S
C2157 C2156 1.404 . S
C2157 H2169 0.930 . S
C2158 C2154 1.524 . S
C2158 H2170 0.956 . S
C2158 H2171 0.961 . S
C2158 H2172 0.961 . S
C2159 C2156 1.539 . S
C2159 H2173 0.958 . S
C2159 H2174 0.961 . S
C2159 H2175 0.960 . S
H2160 C2144 0.931 . S
H2161 C2149 0.929 . S
H2162 C2150 0.960 . S
H2163 C2150 0.962 . S
H2164 C2150 0.960 . S
H2165 C2151 0.961 . S
H2166 C2151 0.961 . S
H2167 C2151 0.961 . S
H2168 C2152 0.931 . S
H2169 C2157 0.930 . S
H2170 C2158 0.956 . S
H2171 C2158 0.961 . S
H2172 C2158 0.961 . S
H2173 C2159 0.958 . S
H2174 C2159 0.961 . S
H2175 C2159 0.960 . S
C2176 C2177 1.391 . S
C2176 C2178 1.394 . S
C2176 H2192 0.931 . S
C2177 C2176 1.391 . S
C2177 C2181 1.376 . S
C2178 C2176 1.394 . S
C2178 C2179 1.369 . S
C2178 C2182 1.531 . S
C2179 C2178 1.369 . S
C2179 C2180 1.410 . S
C2179 C2187 1.503 . S
C2180 C2179 1.410 . S
C2180 C2181 1.392 . S
C2180 C2183 1.511 . S
C2181 C2177 1.376 . S
C2181 C2180 1.392 . S
C2181 H2193 0.929 . S
C2182 C2178 1.531 . S
C2182 H2194 0.960 . S
C2182 H2195 0.962 . S
C2182 H2196 0.960 . S
C2183 C2180 1.511 . S
C2183 H2197 0.961 . S
C2183 H2198 0.961 . S
C2183 H2199 0.961 . S
C2184 C2185 1.370 . S
C2184 C2186 1.363 . S
C2184 H2200 0.931 . S
C2185 C2184 1.370 . S
C2185 C2189 1.408 . S
C2186 C2184 1.363 . S
C2186 C2187 1.370 . S
C2186 C2190 1.524 . S
C2187 C2179 1.503 . S
C2187 C2186 1.370 . S
C2187 C2188 1.403 . S
C2188 C2187 1.403 . S
C2188 C2189 1.404 . S
C2188 C2191 1.539 . S
C2189 C2185 1.408 . S
C2189 C2188 1.404 . S
C2189 H2201 0.930 . S
C2190 C2186 1.524 . S
C2190 H2202 0.956 . S
C2190 H2203 0.961 . S
C2190 H2204 0.961 . S
C2191 C2188 1.539 . S
C2191 H2205 0.958 . S
C2191 H2206 0.961 . S
C2191 H2207 0.960 . S
H2192 C2176 0.931 . S
H2193 C2181 0.929 . S
H2194 C2182 0.960 . S
H2195 C2182 0.962 . S
H2196 C2182 0.960 . S
H2197 C2183 0.961 . S
H2198 C2183 0.961 . S
H2199 C2183 0.961 . S
H2200 C2184 0.931 . S
H2201 C2189 0.930 . S
H2202 C2190 0.956 . S
H2203 C2190 0.961 . S
H2204 C2190 0.961 . S
H2205 C2191 0.958 . S
H2206 C2191 0.961 . S
H2207 C2191 0.960 . S
C2208 C2209 1.391 . S
C2208 C2210 1.394 . S
C2208 H2224 0.931 . S
C2209 C2208 1.391 . S
C2209 C2213 1.376 . S
C2210 C2208 1.394 . S
C2210 C2211 1.369 . S
C2210 C2214 1.531 . S
C2211 C2210 1.369 . S
C2211 C2212 1.410 . S
C2211 C2219 1.503 . S
C2212 C2211 1.410 . S
C2212 C2213 1.392 . S
C2212 C2215 1.511 . S
C2213 C2209 1.376 . S
C2213 C2212 1.392 . S
C2213 H2225 0.929 . S
C2214 C2210 1.531 . S
C2214 H2226 0.960 . S
C2214 H2227 0.962 . S
C2214 H2228 0.960 . S
C2215 C2212 1.511 . S
C2215 H2229 0.961 . S
C2215 H2230 0.961 . S
C2215 H2231 0.961 . S
C2216 C2217 1.370 . S
C2216 C2218 1.363 . S
C2216 H2232 0.931 . S
C2217 C2216 1.370 . S
C2217 C2221 1.408 . S
C2218 C2216 1.363 . S
C2218 C2219 1.370 . S
C2218 C2222 1.524 . S
C2219 C2211 1.503 . S
C2219 C2218 1.370 . S
C2219 C2220 1.403 . S
C2220 C2219 1.403 . S
C2220 C2221 1.404 . S
C2220 C2223 1.539 . S
C2221 C2217 1.408 . S
C2221 C2220 1.404 . S
C2221 H2233 0.930 . S
C2222 C2218 1.524 . S
C2222 H2234 0.956 . S
C2222 H2235 0.961 . S
C2222 H2236 0.961 . S
C2223 C2220 1.539 . S
C2223 H2237 0.958 . S
C2223 H2238 0.961 . S
C2223 H2239 0.960 . S
H2224 C2208 0.931 . S
H2225 C2213 0.929 . S
H2226 C2214 0.960 . S
H2227 C2214 0.962 . S
H2228 C2214 0.960 . S
H2229 C2215 0.961 . S
H2230 C2215 0.961 . S
H2231 C2215 0.961 . S
H2232 C2216 0.931 . S
H2233 C2221 0.930 . S
H2234 C2222 0.956 . S
H2235 C2222 0.961 . S
H2236 C2222 0.961 . S
H2237 C2223 0.958 . S
H2238 C2223 0.961 . S
H2239 C2223 0.960 . S
C2240 C2241 1.391 . S
C2240 C2242 1.394 . S
C2240 H2256 0.931 . S
C2241 C2240 1.391 . S
C2241 C2245 1.376 . S
C2242 C2240 1.394 . S
C2242 C2243 1.369 . S
C2242 C2246 1.531 . S
C2243 C2242 1.369 . S
C2243 C2244 1.410 . S
C2243 C2251 1.503 . S
C2244 C2243 1.410 . S
C2244 C2245 1.392 . S
C2244 C2247 1.511 . S
C2245 C2241 1.376 . S
C2245 C2244 1.392 . S
C2245 H2257 0.929 . S
C2246 C2242 1.531 . S
C2246 H2258 0.960 . S
C2246 H2259 0.962 . S
C2246 H2260 0.960 . S
C2247 C2244 1.511 . S
C2247 H2261 0.961 . S
C2247 H2262 0.961 . S
C2247 H2263 0.961 . S
C2248 C2249 1.370 . S
C2248 C2250 1.363 . S
C2248 H2264 0.931 . S
C2249 C2248 1.370 . S
C2249 C2253 1.408 . S
C2250 C2248 1.363 . S
C2250 C2251 1.370 . S
C2250 C2254 1.524 . S
C2251 C2243 1.503 . S
C2251 C2250 1.370 . S
C2251 C2252 1.403 . S
C2252 C2251 1.403 . S
C2252 C2253 1.404 . S
C2252 C2255 1.539 . S
C2253 C2249 1.408 . S
C2253 C2252 1.404 . S
C2253 H2265 0.930 . S
C2254 C2250 1.524 . S
C2254 H2266 0.956 . S
C2254 H2267 0.961 . S
C2254 H2268 0.961 . S
C2255 C2252 1.539 . S
C2255 H2269 0.958 . S
C2255 H2270 0.961 . S
C2255 H2271 0.960 . S
H2256 C2240 0.931 . S
H2257 C2245 0.929 . S
H2258 C2246 0.960 . S
H2259 C2246 0.962 . S
H2260 C2246 0.960 . S
H2261 C2247 0.961 . S
H2262 C2247 0.961 . S
H2263 C2247 0.961 . S
H2264 C2248 0.931 . S
H2265 C2253 0.930 . S
H2266 C2254 0.956 . S
H2267 C2254 0.961 . S
H2268 C2254 0.961 . S
H2269 C2255 0.958 . S
H2270 C2255 0.961 . S
H2271 C2255 0.960 . S
C2272 C2273 1.391 . S
C2272 C2274 1.394 . S
C2272 H2288 0.931 . S
C2273 C2272 1.391 . S
C2273 C2277 1.376 . S
C2274 C2272 1.394 . S
C2274 C2275 1.369 . S
C2274 C2278 1.531 . S
C2275 C2274 1.369 . S
C2275 C2276 1.410 . S
C2275 C2283 1.503 . S
C2276 C2275 1.410 . S
C2276 C2277 1.392 . S
C2276 C2279 1.511 . S
C2277 C2273 1.376 . S
C2277 C2276 1.392 . S
C2277 H2289 0.929 . S
C2278 C2274 1.531 . S
C2278 H2290 0.960 . S
C2278 H2291 0.962 . S
C2278 H2292 0.960 . S
C2279 C2276 1.511 . S
C2279 H2293 0.961 . S
C2279 H2294 0.961 . S
C2279 H2295 0.961 . S
C2280 C2281 1.370 . S
C2280 C2282 1.363 . S
C2280 H2296 0.931 . S
C2281 C2280 1.370 . S
C2281 C2285 1.408 . S
C2282 C2280 1.363 . S
C2282 C2283 1.370 . S
C2282 C2286 1.524 . S
C2283 C2275 1.503 . S
C2283 C2282 1.370 . S
C2283 C2284 1.403 . S
C2284 C2283 1.403 . S
C2284 C2285 1.404 . S
C2284 C2287 1.539 . S
C2285 C2281 1.408 . S
C2285 C2284 1.404 . S
C2285 H2297 0.930 . S
C2286 C2282 1.524 . S
C2286 H2298 0.956 . S
C2286 H2299 0.961 . S
C2286 H2300 0.961 . S
C2287 C2284 1.539 . S
C2287 H2301 0.958 . S
C2287 H2302 0.961 . S
C2287 H2303 0.960 . S
H2288 C2272 0.931 . S
H2289 C2277 0.929 . S
H2290 C2278 0.960 . S
H2291 C2278 0.962 . S
H2292 C2278 0.960 . S
H2293 C2279 0.961 . S
H2294 C2279 0.961 . S
H2295 C2279 0.961 . S
H2296 C2280 0.931 . S
H2297 C2285 0.930 . S
H2298 C2286 0.956 . S
H2299 C2286 0.961 . S
H2300 C2286 0.961 . S
H2301 C2287 0.958 . S
H2302 C2287 0.961 . S
H2303 C2287 0.960 . S
C2304 C2305 1.391 . S
C2304 C2306 1.394 . S
C2304 H2320 0.931 . S
C2305 C2304 1.391 . S
C2305 C2309 1.376 . S
C2306 C2304 1.394 . S
C2306 C2307 1.369 . S
C2306 C2310 1.531 . S
C2307 C2306 1.369 . S
C2307 C2308 1.410 . S
C2307 C2315 1.503 . S
C2308 C2307 1.410 . S
C2308 C2309 1.392 . S
C2308 C2311 1.511 . S
C2309 C2305 1.376 . S
C2309 C2308 1.392 . S
C2309 H2321 0.929 . S
C2310 C2306 1.531 . S
C2310 H2322 0.960 . S
C2310 H2323 0.962 . S
C2310 H2324 0.960 . S
C2311 C2308 1.511 . S
C2311 H2325 0.961 . S
C2311 H2326 0.961 . S
C2311 H2327 0.961 . S
C2312 C2313 1.370 . S
C2312 C2314 1.363 . S
C2312 H2328 0.931 . S
C2313 C2312 1.370 . S
C2313 C2317 1.408 . S
C2314 C2312 1.363 . S
C2314 C2315 1.370 . S
C2314 C2318 1.524 . S
C2315 C2307 1.503 . S
C2315 C2314 1.370 . S
C2315 C2316 1.403 . S
C2316 C2315 1.403 . S
C2316 C2317 1.404 . S
C2316 C2319 1.539 . S
C2317 C2313 1.408 . S
C2317 C2316 1.404 . S
C2317 H2329 0.930 . S
C2318 C2314 1.524 . S
C2318 H2330 0.956 . S
C2318 H2331 0.961 . S
C2318 H2332 0.961 . S
C2319 C2316 1.539 . S
C2319 H2333 0.958 . S
C2319 H2334 0.961 . S
C2319 H2335 0.960 . S
H2320 C2304 0.931 . S
H2321 C2309 0.929 . S
H2322 C2310 0.960 . S
H2323 C2310 0.962 . S
H2324 C2310 0.960 . S
H2325 C2311 0.961 . S
H2326 C2311 0.961 . S
H2327 C2311 0.961 . S
H2328 C2312 0.931 . S
H2329 C2317 0.930 . S
H2330 C2318 0.956 . S
H2331 C2318 0.961 . S
H2332 C2318 0.961 . S
H2333 C2319 0.958 . S
H2334 C2319 0.961 . S
H2335 C2319 0.960 . S
C2336 C2337 1.391 . S
C2336 C2338 1.394 . S
C2336 H2352 0.931 . S
C2337 C2336 1.391 . S
C2337 C2341 1.376 . S
C2338 C2336 1.394 . S
C2338 C2339 1.369 . S
C2338 C2342 1.531 . S
C2339 C2338 1.369 . S
C2339 C2340 1.410 . S
C2339 C2347 1.503 . S
C2340 C2339 1.410 . S
C2340 C2341 1.392 . S
C2340 C2343 1.511 . S
C2341 C2337 1.376 . S
C2341 C2340 1.392 . S
C2341 H2353 0.929 . S
C2342 C2338 1.531 . S
C2342 H2354 0.960 . S
C2342 H2355 0.962 . S
C2342 H2356 0.960 . S
C2343 C2340 1.511 . S
C2343 H2357 0.961 . S
C2343 H2358 0.961 . S
C2343 H2359 0.961 . S
C2344 C2345 1.370 . S
C2344 C2346 1.363 . S
C2344 H2360 0.931 . S
C2345 C2344 1.370 . S
C2345 C2349 1.408 . S
C2346 C2344 1.363 . S
C2346 C2347 1.370 . S
C2346 C2350 1.524 . S
C2347 C2339 1.503 . S
C2347 C2346 1.370 . S
C2347 C2348 1.403 . S
C2348 C2347 1.403 . S
C2348 C2349 1.404 . S
C2348 C2351 1.539 . S
C2349 C2345 1.408 . S
C2349 C2348 1.404 . S
C2349 H2361 0.930 . S
C2350 C2346 1.524 . S
C2350 H2362 0.956 . S
C2350 H2363 0.961 . S
C2350 H2364 0.961 . S
C2351 C2348 1.539 . S
C2351 H2365 0.958 . S
C2351 H2366 0.961 . S
C2351 H2367 0.960 . S
H2352 C2336 0.931 . S
H2353 C2341 0.929 . S
H2354 C2342 0.960 . S
H2355 C2342 0.962 . S
H2356 C2342 0.960 . S
H2357 C2343 0.961 . S
H2358 C2343 0.961 . S
H2359 C2343 0.961 . S
H2360 C2344 0.931 . S
H2361 C2349 0.930 . S
H2362 C2350 0.956 . S
H2363 C2350 0.961 . S
H2364 C2350 0.961 . S
H2365 C2351 0.958 . S
H2366 C2351 0.961 . S
H2367 C2351 0.960 . S
C2368 C2369 1.391 . S
C2368 C2370 1.394 . S
C2368 H2384 0.931 . S
C2369 C2368 1.391 . S
C2369 C2373 1.376 . S
C2370 C2368 1.394 . S
C2370 C2371 1.369 . S
C2370 C2374 1.531 . S
C2371 C2370 1.369 . S
C2371 C2372 1.410 . S
C2371 C2379 1.503 . S
C2372 C2371 1.410 . S
C2372 C2373 1.392 . S
C2372 C2375 1.511 . S
C2373 C2369 1.376 . S
C2373 C2372 1.392 . S
C2373 H2385 0.929 . S
C2374 C2370 1.531 . S
C2374 H2386 0.960 . S
C2374 H2387 0.962 . S
C2374 H2388 0.960 . S
C2375 C2372 1.511 . S
C2375 H2389 0.961 . S
C2375 H2390 0.961 . S
C2375 H2391 0.961 . S
C2376 C2377 1.370 . S
C2376 C2378 1.363 . S
C2376 H2392 0.931 . S
C2377 C2376 1.370 . S
C2377 C2381 1.408 . S
C2378 C2376 1.363 . S
C2378 C2379 1.370 . S
C2378 C2382 1.524 . S
C2379 C2371 1.503 . S
C2379 C2378 1.370 . S
C2379 C2380 1.403 . S
C2380 C2379 1.403 . S
C2380 C2381 1.404 . S
C2380 C2383 1.539 . S
C2381 C2377 1.408 . S
C2381 C2380 1.404 . S
C2381 H2393 0.930 . S
C2382 C2378 1.524 . S
C2382 H2394 0.956 . S
C2382 H2395 0.961 . S
C2382 H2396 0.961 . S
C2383 C2380 1.539 . S
C2383 H2397 0.958 . S
C2383 H2398 0.961 . S
C2383 H2399 0.960 . S
H2384 C2368 0.931 . S
H2385 C2373 0.929 . S
H2386 C2374 0.960 . S
H2387 C2374 0.962 . S
H2388 C2374 0.960 . S
H2389 C2375 0.961 . S
H2390 C2375 0.961 . S
H2391 C2375 0.961 . S
H2392 C2376 0.931 . S
H2393 C2381 0.930 . S
H2394 C2382 0.956 . S
H2395 C2382 0.961 . S
H2396 C2382 0.961 . S
H2397 C2383 0.958 . S
H2398 C2383 0.961 . S
H2399 C2383 0.960 . S
C2400 C2401 1.391 . S
C2400 C2402 1.394 . S
C2400 H2416 0.931 . S
C2401 C2400 1.391 . S
C2401 C2405 1.376 . S
C2402 C2400 1.394 . S
C2402 C2403 1.369 . S
C2402 C2406 1.531 . S
C2403 C2402 1.369 . S
C2403 C2404 1.410 . S
C2403 C2411 1.503 . S
C2404 C2403 1.410 . S
C2404 C2405 1.392 . S
C2404 C2407 1.511 . S
C2405 C2401 1.376 . S
C2405 C2404 1.392 . S
C2405 H2417 0.929 . S
C2406 C2402 1.531 . S
C2406 H2418 0.960 . S
C2406 H2419 0.962 . S
C2406 H2420 0.960 . S
C2407 C2404 1.511 . S
C2407 H2421 0.961 . S
C2407 H2422 0.961 . S
C2407 H2423 0.961 . S
C2408 C2409 1.370 . S
C2408 C2410 1.363 . S
C2408 H2424 0.931 . S
C2409 C2408 1.370 . S
C2409 C2413 1.408 . S
C2410 C2408 1.363 . S
C2410 C2411 1.370 . S
C2410 C2414 1.524 . S
C2411 C2403 1.503 . S
C2411 C2410 1.370 . S
C2411 C2412 1.403 . S
C2412 C2411 1.403 . S
C2412 C2413 1.404 . S
C2412 C2415 1.539 . S
C2413 C2409 1.408 . S
C2413 C2412 1.404 . S
C2413 H2425 0.930 . S
C2414 C2410 1.524 . S
C2414 H2426 0.956 . S
C2414 H2427 0.961 . S
C2414 H2428 0.961 . S
C2415 C2412 1.539 . S
C2415 H2429 0.958 . S
C2415 H2430 0.961 . S
C2415 H2431 0.960 . S
H2416 C2400 0.931 . S
H2417 C2405 0.929 . S
H2418 C2406 0.960 . S
H2419 C2406 0.962 . S
H2420 C2406 0.960 . S
H2421 C2407 0.961 . S
H2422 C2407 0.961 . S
H2423 C2407 0.961 . S
H2424 C2408 0.931 . S
H2425 C2413 0.930 . S
H2426 C2414 0.956 . S
H2427 C2414 0.961 . S
H2428 C2414 0.961 . S
H2429 C2415 0.958 . S
H2430 C2415 0.961 . S
H2431 C2415 0.960 . S
C2432 C2433 1.391 . S
C2432 C2434 1.394 . S
C2432 H2448 0.931 . S
C2433 C2432 1.391 . S
C2433 C2437 1.376 . S
C2434 C2432 1.394 . S
C2434 C2435 1.369 . S
C2434 C2438 1.531 . S
C2435 C2434 1.369 . S
C2435 C2436 1.410 . S
C2435 C2443 1.503 . S
C2436 C2435 1.410 . S
C2436 C2437 1.392 . S
C2436 C2439 1.511 . S
C2437 C2433 1.376 . S
C2437 C2436 1.392 . S
C2437 H2449 0.929 . S
C2438 C2434 1.531 . S
C2438 H2450 0.960 . S
C2438 H2451 0.962 . S
C2438 H2452 0.960 . S
C2439 C2436 1.511 . S
C2439 H2453 0.961 . S
C2439 H2454 0.961 . S
C2439 H2455 0.961 . S
C2440 C2441 1.370 . S
C2440 C2442 1.363 . S
C2440 H2456 0.931 . S
C2441 C2440 1.370 . S
C2441 C2445 1.408 . S
C2442 C2440 1.363 . S
C2442 C2443 1.370 . S
C2442 C2446 1.524 . S
C2443 C2435 1.503 . S
C2443 C2442 1.370 . S
C2443 C2444 1.403 . S
C2444 C2443 1.403 . S
C2444 C2445 1.404 . S
C2444 C2447 1.539 . S
C2445 C2441 1.408 . S
C2445 C2444 1.404 . S
C2445 H2457 0.930 . S
C2446 C2442 1.524 . S
C2446 H2458 0.956 . S
C2446 H2459 0.961 . S
C2446 H2460 0.961 . S
C2447 C2444 1.539 . S
C2447 H2461 0.958 . S
C2447 H2462 0.961 . S
C2447 H2463 0.960 . S
H2448 C2432 0.931 . S
H2449 C2437 0.929 . S
H2450 C2438 0.960 . S
H2451 C2438 0.962 . S
H2452 C2438 0.960 . S
H2453 C2439 0.961 . S
H2454 C2439 0.961 . S
H2455 C2439 0.961 . S
H2456 C2440 0.931 . S
H2457 C2445 0.930 . S
H2458 C2446 0.956 . S
H2459 C2446 0.961 . S
H2460 C2446 0.961 . S
H2461 C2447 0.958 . S
H2462 C2447 0.961 . S
H2463 C2447 0.960 . S
C2464 C2465 1.391 . S
C2464 C2466 1.394 . S
C2464 H2480 0.931 . S
C2465 C2464 1.391 . S
C2465 C2469 1.376 . S
C2466 C2464 1.394 . S
C2466 C2467 1.369 . S
C2466 C2470 1.531 . S
C2467 C2466 1.369 . S
C2467 C2468 1.410 . S
C2467 C2475 1.503 . S
C2468 C2467 1.410 . S
C2468 C2469 1.392 . S
C2468 C2471 1.511 . S
C2469 C2465 1.376 . S
C2469 C2468 1.392 . S
C2469 H2481 0.929 . S
C2470 C2466 1.531 . S
C2470 H2482 0.960 . S
C2470 H2483 0.962 . S
C2470 H2484 0.960 . S
C2471 C2468 1.511 . S
C2471 H2485 0.961 . S
C2471 H2486 0.961 . S
C2471 H2487 0.961 . S
C2472 C2473 1.370 . S
C2472 C2474 1.363 . S
C2472 H2488 0.931 . S
C2473 C2472 1.370 . S
C2473 C2477 1.408 . S
C2474 C2472 1.363 . S
C2474 C2475 1.370 . S
C2474 C2478 1.524 . S
C2475 C2467 1.503 . S
C2475 C2474 1.370 . S
C2475 C2476 1.403 . S
C2476 C2475 1.403 . S
C2476 C2477 1.404 . S
C2476 C2479 1.539 . S
C2477 C2473 1.408 . S
C2477 C2476 1.404 . S
C2477 H2489 0.930 . S
C2478 C2474 1.524 . S
C2478 H2490 0.956 . S
C2478 H2491 0.961 . S
C2478 H2492 0.961 . S
C2479 C2476 1.539 . S
C2479 H2493 0.958 . S
C2479 H2494 0.961 . S
C2479 H2495 0.960 . S
H2480 C2464 0.931 . S
H2481 C2469 0.929 . S
H2482 C2470 0.960 . S
H2483 C2470 0.962 . S
H2484 C2470 0.960 . S
H2485 C2471 0.961 . S
H2486 C2471 0.961 . S
H2487 C2471 0.961 . S
H2488 C2472 0.931 . S
H2489 C2477 0.930 . S
H2490 C2478 0.956 . S
H2491 C2478 0.961 . S
H2492 C2478 0.961 . S
H2493 C2479 0.958 . S
H2494 C2479 0.961 . S
H2495 C2479 0.960 . S
C2496 C2497 1.391 . S
C2496 C2498 1.394 . S
C2496 H2512 0.931 . S
C2497 C2496 1.391 . S
C2497 C2501 1.376 . S
C2498 C2496 1.394 . S
C2498 C2499 1.369 . S
C2498 C2502 1.531 . S
C2499 C2498 1.369 . S
C2499 C2500 1.410 . S
C2499 C2507 1.503 . S
C2500 C2499 1.410 . S
C2500 C2501 1.392 . S
C2500 C2503 1.511 . S
C2501 C2497 1.376 . S
C2501 C2500 1.392 . S
C2501 H2513 0.929 . S
C2502 C2498 1.531 . S
C2502 H2514 0.960 . S
C2502 H2515 0.962 . S
C2502 H2516 0.960 . S
C2503 C2500 1.511 . S
C2503 H2517 0.961 . S
C2503 H2518 0.961 . S
C2503 H2519 0.961 . S
C2504 C2505 1.370 . S
C2504 C2506 1.363 . S
C2504 H2520 0.931 . S
C2505 C2504 1.370 . S
C2505 C2509 1.408 . S
C2506 C2504 1.363 . S
C2506 C2507 1.370 . S
C2506 C2510 1.524 . S
C2507 C2499 1.503 . S
C2507 C2506 1.370 . S
C2507 C2508 1.403 . S
C2508 C2507 1.403 . S
C2508 C2509 1.404 . S
C2508 C2511 1.539 . S
C2509 C2505 1.408 . S
C2509 C2508 1.404 . S
C2509 H2521 0.930 . S
C2510 C2506 1.524 . S
C2510 H2522 0.956 . S
C2510 H2523 0.961 . S
C2510 H2524 0.961 . S
C2511 C2508 1.539 . S
C2511 H2525 0.958 . S
C2511 H2526 0.961 . S
C2511 H2527 0.960 . S
H2512 C2496 0.931 . S
H2513 C2501 0.929 . S
H2514 C2502 0.960 . S
H2515 C2502 0.962 . S
H2516 C2502 0.960 . S
H2517 C2503 0.961 . S
H2518 C2503 0.961 . S
H2519 C2503 0.961 . S
H2520 C2504 0.931 . S
H2521 C2509 0.930 . S
H2522 C2510 0.956 . S
H2523 C2510 0.961 . S
H2524 C2510 0.961 . S
H2525 C2511 0.958 . S
H2526 C2511 0.961 . S
H2527 C2511 0.960 . S
C2528 C2529 1.391 . S
C2528 C2530 1.394 . S
C2528 H2544 0.931 . S
C2529 C2528 1.391 . S
C2529 C2533 1.376 . S
C2530 C2528 1.394 . S
C2530 C2531 1.369 . S
C2530 C2534 1.531 . S
C2531 C2530 1.369 . S
C2531 C2532 1.410 . S
C2531 C2539 1.503 . S
C2532 C2531 1.410 . S
C2532 C2533 1.392 . S
C2532 C2535 1.511 . S
C2533 C2529 1.376 . S
C2533 C2532 1.392 . S
C2533 H2545 0.929 . S
C2534 C2530 1.531 . S
C2534 H2546 0.960 . S
C2534 H2547 0.962 . S
C2534 H2548 0.960 . S
C2535 C2532 1.511 . S
C2535 H2549 0.961 . S
C2535 H2550 0.961 . S
C2535 H2551 0.961 . S
C2536 C2537 1.370 . S
C2536 C2538 1.363 . S
C2536 H2552 0.931 . S
C2537 C2536 1.370 . S
C2537 C2541 1.408 . S
C2538 C2536 1.363 . S
C2538 C2539 1.370 . S
C2538 C2542 1.524 . S
C2539 C2531 1.503 . S
C2539 C2538 1.370 . S
C2539 C2540 1.403 . S
C2540 C2539 1.403 . S
C2540 C2541 1.404 . S
C2540 C2543 1.539 . S
C2541 C2537 1.408 . S
C2541 C2540 1.404 . S
C2541 H2553 0.930 . S
C2542 C2538 1.524 . S
C2542 H2554 0.956 . S
C2542 H2555 0.961 . S
C2542 H2556 0.961 . S
C2543 C2540 1.539 . S
C2543 H2557 0.958 . S
C2543 H2558 0.961 . S
C2543 H2559 0.960 . S
H2544 C2528 0.931 . S
H2545 C2533 0.929 . S
H2546 C2534 0.960 . S
H2547 C2534 0.962 . S
H2548 C2534 0.960 . S
H2549 C2535 0.961 . S
H2550 C2535 0.961 . S
H2551 C2535 0.961 . S
H2552 C2536 0.931 . S
H2553 C2541 0.930 . S
H2554 C2542 0.956 . S
H2555 C2542 0.961 . S
H2556 C2542 0.961 . S
H2557 C2543 0.958 . S
H2558 C2543 0.961 . S
H2559 C2543 0.960 . S
C2560 C2561 1.391 . S
C2560 C2562 1.394 . S
C2560 H2576 0.931 . S
C2561 C2560 1.391 . S
C2561 C2565 1.376 . S
C2562 C2560 1.394 . S
C2562 C2563 1.369 . S
C2562 C2566 1.531 . S
C2563 C2562 1.369 . S
C2563 C2564 1.410 . S
C2563 C2571 1.503 . S
C2564 C2563 1.410 . S
C2564 C2565 1.392 . S
C2564 C2567 1.511 . S
C2565 C2561 1.376 . S
C2565 C2564 1.392 . S
C2565 H2577 0.929 . S
C2566 C2562 1.531 . S
C2566 H2578 0.960 . S
C2566 H2579 0.962 . S
C2566 H2580 0.960 . S
C2567 C2564 1.511 . S
C2567 H2581 0.961 . S
C2567 H2582 0.961 . S
C2567 H2583 0.961 . S
C2568 C2569 1.370 . S
C2568 C2570 1.363 . S
C2568 H2584 0.931 . S
C2569 C2568 1.370 . S
C2569 C2573 1.408 . S
C2570 C2568 1.363 . S
C2570 C2571 1.370 . S
C2570 C2574 1.524 . S
C2571 C2563 1.503 . S
C2571 C2570 1.370 . S
C2571 C2572 1.403 . S
C2572 C2571 1.403 . S
C2572 C2573 1.404 . S
C2572 C2575 1.539 . S
C2573 C2569 1.408 . S
C2573 C2572 1.404 . S
C2573 H2585 0.930 . S
C2574 C2570 1.524 . S
C2574 H2586 0.956 . S
C2574 H2587 0.961 . S
C2574 H2588 0.961 . S
C2575 C2572 1.539 . S
C2575 H2589 0.958 . S
C2575 H2590 0.961 . S
C2575 H2591 0.960 . S
H2576 C2560 0.931 . S
H2577 C2565 0.929 . S
H2578 C2566 0.960 . S
H2579 C2566 0.962 . S
H2580 C2566 0.960 . S
H2581 C2567 0.961 . S
H2582 C2567 0.961 . S
H2583 C2567 0.961 . S
H2584 C2568 0.931 . S
H2585 C2573 0.930 . S
H2586 C2574 0.956 . S
H2587 C2574 0.961 . S
H2588 C2574 0.961 . S
H2589 C2575 0.958 . S
H2590 C2575 0.961 . S
H2591 C2575 0.960 . S
C2592 C2593 1.391 . S
C2592 C2594 1.394 . S
C2592 H2608 0.931 . S
C2593 C2592 1.391 . S
C2593 C2597 1.376 . S
C2594 C2592 1.394 . S
C2594 C2595 1.369 . S
C2594 C2598 1.531 . S
C2595 C2594 1.369 . S
C2595 C2596 1.410 . S
C2595 C2603 1.503 . S
C2596 C2595 1.410 . S
C2596 C2597 1.392 . S
C2596 C2599 1.511 . S
C2597 C2593 1.376 . S
C2597 C2596 1.392 . S
C2597 H2609 0.929 . S
C2598 C2594 1.531 . S
C2598 H2610 0.960 . S
C2598 H2611 0.962 . S
C2598 H2612 0.960 . S
C2599 C2596 1.511 . S
C2599 H2613 0.961 . S
C2599 H2614 0.961 . S
C2599 H2615 0.961 . S
C2600 C2601 1.370 . S
C2600 C2602 1.363 . S
C2600 H2616 0.931 . S
C2601 C2600 1.370 . S
C2601 C2605 1.408 . S
C2602 C2600 1.363 . S
C2602 C2603 1.370 . S
C2602 C2606 1.524 . S
C2603 C2595 1.503 . S
C2603 C2602 1.370 . S
C2603 C2604 1.403 . S
C2604 C2603 1.403 . S
C2604 C2605 1.404 . S
C2604 C2607 1.539 . S
C2605 C2601 1.408 . S
C2605 C2604 1.404 . S
C2605 H2617 0.930 . S
C2606 C2602 1.524 . S
C2606 H2618 0.956 . S
C2606 H2619 0.961 . S
C2606 H2620 0.961 . S
C2607 C2604 1.539 . S
C2607 H2621 0.958 . S
C2607 H2622 0.961 . S
C2607 H2623 0.960 . S
H2608 C2592 0.931 . S
H2609 C2597 0.929 . S
H2610 C2598 0.960 . S
H2611 C2598 0.962 . S
H2612 C2598 0.960 . S
H2613 C2599 0.961 . S
H2614 C2599 0.961 . S
H2615 C2599 0.961 . S
H2616 C2600 0.931 . S
H2617 C2605 0.930 . S
H2618 C2606 0.956 . S
H2619 C2606 0.961 . S
H2620 C2606 0.961 . S
H2621 C2607 0.958 . S
H2622 C2607 0.961 . S
H2623 C2607 0.960 . S
C2624 C2625 1.391 . S
C2624 C2626 1.394 . S
C2624 H2640 0.931 . S
C2625 C2624 1.391 . S
C2625 C2629 1.376 . S
C2626 C2624 1.394 . S
C2626 C2627 1.369 . S
C2626 C2630 1.531 . S
C2627 C2626 1.369 . S
C2627 C2628 1.410 . S
C2627 C2635 1.503 . S
C2628 C2627 1.410 . S
C2628 C2629 1.392 . S
C2628 C2631 1.511 . S
C2629 C2625 1.376 . S
C2629 C2628 1.392 . S
C2629 H2641 0.929 . S
C2630 C2626 1.531 . S
C2630 H2642 0.960 . S
C2630 H2643 0.962 . S
C2630 H2644 0.960 . S
C2631 C2628 1.511 . S
C2631 H2645 0.961 . S
C2631 H2646 0.961 . S
C2631 H2647 0.961 . S
C2632 C2633 1.370 . S
C2632 C2634 1.363 . S
C2632 H2648 0.931 . S
C2633 C2632 1.370 . S
C2633 C2637 1.408 . S
C2634 C2632 1.363 . S
C2634 C2635 1.370 . S
C2634 C2638 1.524 . S
C2635 C2627 1.503 . S
C2635 C2634 1.370 . S
C2635 C2636 1.403 . S
C2636 C2635 1.403 . S
C2636 C2637 1.404 . S
C2636 C2639 1.539 . S
C2637 C2633 1.408 . S
C2637 C2636 1.404 . S
C2637 H2649 0.930 . S
C2638 C2634 1.524 . S
C2638 H2650 0.956 . S
C2638 H2651 0.961 . S
C2638 H2652 0.961 . S
C2639 C2636 1.539 . S
C2639 H2653 0.958 . S
C2639 H2654 0.961 . S
C2639 H2655 0.960 . S
H2640 C2624 0.931 . S
H2641 C2629 0.929 . S
H2642 C2630 0.960 . S
H2643 C2630 0.962 . S
H2644 C2630 0.960 . S
H2645 C2631 0.961 . S
H2646 C2631 0.961 . S
H2647 C2631 0.961 . S
H2648 C2632 0.931 . S
H2649 C2637 0.930 . S
H2650 C2638 0.956 . S
H2651 C2638 0.961 . S
H2652 C2638 0.961 . S
H2653 C2639 0.958 . S
H2654 C2639 0.961 . S
H2655 C2639 0.960 . S
C2656 C2657 1.391 . S
C2656 C2658 1.394 . S
C2656 H2672 0.931 . S
C2657 C2656 1.391 . S
C2657 C2661 1.376 . S
C2658 C2656 1.394 . S
C2658 C2659 1.369 . S
C2658 C2662 1.531 . S
C2659 C2658 1.369 . S
C2659 C2660 1.410 . S
C2659 C2667 1.503 . S
C2660 C2659 1.410 . S
C2660 C2661 1.392 . S
C2660 C2663 1.511 . S
C2661 C2657 1.376 . S
C2661 C2660 1.392 . S
C2661 H2673 0.929 . S
C2662 C2658 1.531 . S
C2662 H2674 0.960 . S
C2662 H2675 0.962 . S
C2662 H2676 0.960 . S
C2663 C2660 1.511 . S
C2663 H2677 0.961 . S
C2663 H2678 0.961 . S
C2663 H2679 0.961 . S
C2664 C2665 1.370 . S
C2664 C2666 1.363 . S
C2664 H2680 0.931 . S
C2665 C2664 1.370 . S
C2665 C2669 1.408 . S
C2666 C2664 1.363 . S
C2666 C2667 1.370 . S
C2666 C2670 1.524 . S
C2667 C2659 1.503 . S
C2667 C2666 1.370 . S
C2667 C2668 1.403 . S
C2668 C2667 1.403 . S
C2668 C2669 1.404 . S
C2668 C2671 1.539 . S
C2669 C2665 1.408 . S
C2669 C2668 1.404 . S
C2669 H2681 0.930 . S
C2670 C2666 1.524 . S
C2670 H2682 0.956 . S
C2670 H2683 0.961 . S
C2670 H2684 0.961 . S
C2671 C2668 1.539 . S
C2671 H2685 0.958 . S
C2671 H2686 0.961 . S
C2671 H2687 0.960 . S
H2672 C2656 0.931 . S
H2673 C2661 0.929 . S
H2674 C2662 0.960 . S
H2675 C2662 0.962 . S
H2676 C2662 0.960 . S
H2677 C2663 0.961 . S
H2678 C2663 0.961 . S
H2679 C2663 0.961 . S
H2680 C2664 0.931 . S
H2681 C2669 0.930 . S
H2682 C2670 0.956 . S
H2683 C2670 0.961 . S
H2684 C2670 0.961 . S
H2685 C2671 0.958 . S
H2686 C2671 0.961 . S
H2687 C2671 0.960 . S
C2688 C2689 1.391 . S
C2688 C2690 1.394 . S
C2688 H2704 0.931 . S
C2689 C2688 1.391 . S
C2689 C2693 1.376 . S
C2690 C2688 1.394 . S
C2690 C2691 1.369 . S
C2690 C2694 1.531 . S
C2691 C2690 1.369 . S
C2691 C2692 1.410 . S
C2691 C2699 1.503 . S
C2692 C2691 1.410 . S
C2692 C2693 1.392 . S
C2692 C2695 1.511 . S
C2693 C2689 1.376 . S
C2693 C2692 1.392 . S
C2693 H2705 0.929 . S
C2694 C2690 1.531 . S
C2694 H2706 0.960 . S
C2694 H2707 0.962 . S
C2694 H2708 0.960 . S
C2695 C2692 1.511 . S
C2695 H2709 0.961 . S
C2695 H2710 0.961 . S
C2695 H2711 0.961 . S
C2696 C2697 1.370 . S
C2696 C2698 1.363 . S
C2696 H2712 0.931 . S
C2697 C2696 1.370 . S
C2697 C2701 1.408 . S
C2698 C2696 1.363 . S
C2698 C2699 1.370 . S
C2698 C2702 1.524 . S
C2699 C2691 1.503 . S
C2699 C2698 1.370 . S
C2699 C2700 1.403 . S
C2700 C2699 1.403 . S
C2700 C2701 1.404 . S
C2700 C2703 1.539 . S
C2701 C2697 1.408 . S
C2701 C2700 1.404 . S
C2701 H2713 0.930 . S
C2702 C2698 1.524 . S
C2702 H2714 0.956 . S
C2702 H2715 0.961 . S
C2702 H2716 0.961 . S
C2703 C2700 1.539 . S
C2703 H2717 0.958 . S
C2703 H2718 0.961 . S
C2703 H2719 0.960 . S
H2704 C2688 0.931 . S
H2705 C2693 0.929 . S
H2706 C2694 0.960 . S
H2707 C2694 0.962 . S
H2708 C2694 0.960 . S
H2709 C2695 0.961 . S
H2710 C2695 0.961 . S
H2711 C2695 0.961 . S
H2712 C2696 0.931 . S
H2713 C2701 0.930 . S
H2714 C2702 0.956 . S
H2715 C2702 0.961 . S
H2716 C2702 0.961 . S
H2717 C2703 0.958 . S
H2718 C2703 0.961 . S
H2719 C2703 0.960 . S
C2720 C2721 1.391 . S
C2720 C2722 1.394 . S
C2720 H2736 0.931 . S
C2721 C2720 1.391 . S
C2721 C2725 1.376 . S
C2722 C2720 1.394 . S
C2722 C2723 1.369 . S
C2722 C2726 1.531 . S
C2723 C2722 1.369 . S
C2723 C2724 1.410 . S
C2723 C2731 1.503 . S
C2724 C2723 1.410 . S
C2724 C2725 1.392 . S
C2724 C2727 1.511 . S
C2725 C2721 1.376 . S
C2725 C2724 1.392 . S
C2725 H2737 0.929 . S
C2726 C2722 1.531 . S
C2726 H2738 0.960 . S
C2726 H2739 0.962 . S
C2726 H2740 0.960 . S
C2727 C2724 1.511 . S
C2727 H2741 0.961 . S
C2727 H2742 0.961 . S
C2727 H2743 0.961 . S
C2728 C2729 1.370 . S
C2728 C2730 1.363 . S
C2728 H2744 0.931 . S
C2729 C2728 1.370 . S
C2729 C2733 1.408 . S
C2730 C2728 1.363 . S
C2730 C2731 1.370 . S
C2730 C2734 1.524 . S
C2731 C2723 1.503 . S
C2731 C2730 1.370 . S
C2731 C2732 1.403 . S
C2732 C2731 1.403 . S
C2732 C2733 1.404 . S
C2732 C2735 1.539 . S
C2733 C2729 1.408 . S
C2733 C2732 1.404 . S
C2733 H2745 0.930 . S
C2734 C2730 1.524 . S
C2734 H2746 0.956 . S
C2734 H2747 0.961 . S
C2734 H2748 0.961 . S
C2735 C2732 1.539 . S
C2735 H2749 0.958 . S
C2735 H2750 0.961 . S
C2735 H2751 0.960 . S
H2736 C2720 0.931 . S
H2737 C2725 0.929 . S
H2738 C2726 0.960 . S
H2739 C2726 0.962 . S
H2740 C2726 0.960 . S
H2741 C2727 0.961 . S
H2742 C2727 0.961 . S
H2743 C2727 0.961 . S
H2744 C2728 0.931 . S
H2745 C2733 0.930 . S
H2746 C2734 0.956 . S
H2747 C2734 0.961 . S
H2748 C2734 0.961 . S
H2749 C2735 0.958 . S
H2750 C2735 0.961 . S
H2751 C2735 0.960 . S
C2752 C2753 1.391 . S
C2752 C2754 1.394 . S
C2752 H2768 0.931 . S
C2753 C2752 1.391 . S
C2753 C2757 1.376 . S
C2754 C2752 1.394 . S
C2754 C2755 1.369 . S
C2754 C2758 1.531 . S
C2755 C2754 1.369 . S
C2755 C2756 1.410 . S
C2755 C2763 1.503 . S
C2756 C2755 1.410 . S
C2756 C2757 1.392 . S
C2756 C2759 1.511 . S
C2757 C2753 1.376 . S
C2757 C2756 1.392 . S
C2757 H2769 0.929 . S
C2758 C2754 1.531 . S
C2758 H2770 0.960 . S
C2758 H2771 0.962 . S
C2758 H2772 0.960 . S
C2759 C2756 1.511 . S
C2759 H2773 0.961 . S
C2759 H2774 0.961 . S
C2759 H2775 0.961 . S
C2760 C2761 1.370 . S
C2760 C2762 1.363 . S
C2760 H2776 0.931 . S
C2761 C2760 1.370 . S
C2761 C2765 1.408 . S
C2762 C2760 1.363 . S
C2762 C2763 1.370 . S
C2762 C2766 1.524 . S
C2763 C2755 1.503 . S
C2763 C2762 1.370 . S
C2763 C2764 1.403 . S
C2764 C2763 1.403 . S
C2764 C2765 1.404 . S
C2764 C2767 1.539 . S
C2765 C2761 1.408 . S
C2765 C2764 1.404 . S
C2765 H2777 0.930 . S
C2766 C2762 1.524 . S
C2766 H2778 0.956 . S
C2766 H2779 0.961 . S
C2766 H2780 0.961 . S
C2767 C2764 1.539 . S
C2767 H2781 0.958 . S
C2767 H2782 0.961 . S
C2767 H2783 0.960 . S
H2768 C2752 0.931 . S
H2769 C2757 0.929 . S
H2770 C2758 0.960 . S
H2771 C2758 0.962 . S
H2772 C2758 0.960 . S
H2773 C2759 0.961 . S
H2774 C2759 0.961 . S
H2775 C2759 0.961 . S
H2776 C2760 0.931 . S
H2777 C2765 0.930 . S
H2778 C2766 0.956 . S
H2779 C2766 0.961 . S
H2780 C2766 0.961 . S
H2781 C2767 0.958 . S
H2782 C2767 0.961 . S
H2783 C2767 0.960 . S
C2784 C2785 1.391 . S
C2784 C2786 1.394 . S
C2784 H2800 0.931 . S
C2785 C2784 1.391 . S
C2785 C2789 1.376 . S
C2786 C2784 1.394 . S
C2786 C2787 1.369 . S
C2786 C2790 1.531 . S
C2787 C2786 1.369 . S
C2787 C2788 1.410 . S
C2787 C2795 1.503 . S
C2788 C2787 1.410 . S
C2788 C2789 1.392 . S
C2788 C2791 1.511 . S
C2789 C2785 1.376 . S
C2789 C2788 1.392 . S
C2789 H2801 0.929 . S
C2790 C2786 1.531 . S
C2790 H2802 0.960 . S
C2790 H2803 0.962 . S
C2790 H2804 0.960 . S
C2791 C2788 1.511 . S
C2791 H2805 0.961 . S
C2791 H2806 0.961 . S
C2791 H2807 0.961 . S
C2792 C2793 1.370 . S
C2792 C2794 1.363 . S
C2792 H2808 0.931 . S
C2793 C2792 1.370 . S
C2793 C2797 1.408 . S
C2794 C2792 1.363 . S
C2794 C2795 1.370 . S
C2794 C2798 1.524 . S
C2795 C2787 1.503 . S
C2795 C2794 1.370 . S
C2795 C2796 1.403 . S
C2796 C2795 1.403 . S
C2796 C2797 1.404 . S
C2796 C2799 1.539 . S
C2797 C2793 1.408 . S
C2797 C2796 1.404 . S
C2797 H2809 0.930 . S
C2798 C2794 1.524 . S
C2798 H2810 0.956 . S
C2798 H2811 0.961 . S
C2798 H2812 0.961 . S
C2799 C2796 1.539 . S
C2799 H2813 0.958 . S
C2799 H2814 0.961 . S
C2799 H2815 0.960 . S
H2800 C2784 0.931 . S
H2801 C2789 0.929 . S
H2802 C2790 0.960 . S
H2803 C2790 0.962 . S
H2804 C2790 0.960 . S
H2805 C2791 0.961 . S
H2806 C2791 0.961 . S
H2807 C2791 0.961 . S
H2808 C2792 0.931 . S
H2809 C2797 0.930 . S
H2810 C2798 0.956 . S
H2811 C2798 0.961 . S
H2812 C2798 0.961 . S
H2813 C2799 0.958 . S
H2814 C2799 0.961 . S
H2815 C2799 0.960 . S
C2816 C2817 1.391 . S
C2816 C2818 1.394 . S
C2816 H2832 0.931 . S
C2817 C2816 1.391 . S
C2817 C2821 1.376 . S
C2818 C2816 1.394 . S
C2818 C2819 1.369 . S
C2818 C2822 1.531 . S
C2819 C2818 1.369 . S
C2819 C2820 1.410 . S
C2819 C2827 1.503 . S
C2820 C2819 1.410 . S
C2820 C2821 1.392 . S
C2820 C2823 1.511 . S
C2821 C2817 1.376 . S
C2821 C2820 1.392 . S
C2821 H2833 0.929 . S
C2822 C2818 1.531 . S
C2822 H2834 0.960 . S
C2822 H2835 0.962 . S
C2822 H2836 0.960 . S
C2823 C2820 1.511 . S
C2823 H2837 0.961 . S
C2823 H2838 0.961 . S
C2823 H2839 0.961 . S
C2824 C2825 1.370 . S
C2824 C2826 1.363 . S
C2824 H2840 0.931 . S
C2825 C2824 1.370 . S
C2825 C2829 1.408 . S
C2826 C2824 1.363 . S
C2826 C2827 1.370 . S
C2826 C2830 1.524 . S
C2827 C2819 1.503 . S
C2827 C2826 1.370 . S
C2827 C2828 1.403 . S
C2828 C2827 1.403 . S
C2828 C2829 1.404 . S
C2828 C2831 1.539 . S
C2829 C2825 1.408 . S
C2829 C2828 1.404 . S
C2829 H2841 0.930 . S
C2830 C2826 1.524 . S
C2830 H2842 0.956 . S
C2830 H2843 0.961 . S
C2830 H2844 0.961 . S
C2831 C2828 1.539 . S
C2831 H2845 0.958 . S
C2831 H2846 0.961 . S
C2831 H2847 0.960 . S
H2832 C2816 0.931 . S
H2833 C2821 0.929 . S
H2834 C2822 0.960 . S
H2835 C2822 0.962 . S
H2836 C2822 0.960 . S
H2837 C2823 0.961 . S
H2838 C2823 0.961 . S
H2839 C2823 0.961 . S
H2840 C2824 0.931 . S
H2841 C2829 0.930 . S
H2842 C2830 0.956 . S
H2843 C2830 0.961 . S
H2844 C2830 0.961 . S
H2845 C2831 0.958 . S
H2846 C2831 0.961 . S
H2847 C2831 0.960 . S
C2848 C2849 1.391 . S
C2848 C2850 1.394 . S
C2848 H2864 0.931 . S
C2849 C2848 1.391 . S
C2849 C2853 1.376 . S
C2850 C2848 1.394 . S
C2850 C2851 1.369 . S
C2850 C2854 1.531 . S
C2851 C2850 1.369 . S
C2851 C2852 1.410 . S
C2851 C2859 1.503 . S
C2852 C2851 1.410 . S
C2852 C2853 1.392 . S
C2852 C2855 1.511 . S
C2853 C2849 1.376 . S
C2853 C2852 1.392 . S
C2853 H2865 0.929 . S
C2854 C2850 1.531 . S
C2854 H2866 0.960 . S
C2854 H2867 0.962 . S
C2854 H2868 0.960 . S
C2855 C2852 1.511 . S
C2855 H2869 0.961 . S
C2855 H2870 0.961 . S
C2855 H2871 0.961 . S
C2856 C2857 1.370 . S
C2856 C2858 1.363 . S
C2856 H2872 0.931 . S
C2857 C2856 1.370 . S
C2857 C2861 1.408 . S
C2858 C2856 1.363 . S
C2858 C2859 1.370 . S
C2858 C2862 1.524 . S
C2859 C2851 1.503 . S
C2859 C2858 1.370 . S
C2859 C2860 1.403 . S
C2860 C2859 1.403 . S
C2860 C2861 1.404 . S
C2860 C2863 1.539 . S
C2861 C2857 1.408 . S
C2861 C2860 1.404 . S
C2861 H2873 0.930 . S
C2862 C2858 1.524 . S
C2862 H2874 0.956 . S
C2862 H2875 0.961 . S
C2862 H2876 0.961 . S
C2863 C2860 1.539 . S
C2863 H2877 0.958 . S
C2863 H2878 0.961 . S
C2863 H2879 0.960 . S
H2864 C2848 0.931 . S
H2865 C2853 0.929 . S
H2866 C2854 0.960 . S
H2867 C2854 0.962 . S
H2868 C2854 0.960 . S
H2869 C2855 0.961 . S
H2870 C2855 0.961 . S
H2871 C2855 0.961 . S
H2872 C2856 0.931 . S
H2873 C2861 0.930 . S
H2874 C2862 0.956 . S
H2875 C2862 0.961 . S
H2876 C2862 0.961 . S
H2877 C2863 0.958 . S
H2878 C2863 0.961 . S
H2879 C2863 0.960 . S
C2880 C2881 1.391 . S
C2880 C2882 1.394 . S
C2880 H2896 0.931 . S
C2881 C2880 1.391 . S
C2881 C2885 1.376 . S
C2882 C2880 1.394 . S
C2882 C2883 1.369 . S
C2882 C2886 1.531 . S
C2883 C2882 1.369 . S
C2883 C2884 1.410 . S
C2883 C2891 1.503 . S
C2884 C2883 1.410 . S
C2884 C2885 1.392 . S
C2884 C2887 1.511 . S
C2885 C2881 1.376 . S
C2885 C2884 1.392 . S
C2885 H2897 0.929 . S
C2886 C2882 1.531 . S
C2886 H2898 0.960 . S
C2886 H2899 0.962 . S
C2886 H2900 0.960 . S
C2887 C2884 1.511 . S
C2887 H2901 0.961 . S
C2887 H2902 0.961 . S
C2887 H2903 0.961 . S
C2888 C2889 1.370 . S
C2888 C2890 1.363 . S
C2888 H2904 0.931 . S
C2889 C2888 1.370 . S
C2889 C2893 1.408 . S
C2890 C2888 1.363 . S
C2890 C2891 1.370 . S
C2890 C2894 1.524 . S
C2891 C2883 1.503 . S
C2891 C2890 1.370 . S
C2891 C2892 1.403 . S
C2892 C2891 1.403 . S
C2892 C2893 1.404 . S
C2892 C2895 1.539 . S
C2893 C2889 1.408 . S
C2893 C2892 1.404 . S
C2893 H2905 0.930 . S
C2894 C2890 1.524 . S
C2894 H2906 0.956 . S
C2894 H2907 0.961 . S
C2894 H2908 0.961 . S
C2895 C2892 1.539 . S
C2895 H2909 0.958 . S
C2895 H2910 0.961 . S
C2895 H2911 0.960 . S
H2896 C2880 0.931 . S
H2897 C2885 0.929 . S
H2898 C2886 0.960 . S
H2899 C2886 0.962 . S
H2900 C2886 0.960 . S
H2901 C2887 0.961 . S
H2902 C2887 0.961 . S
H2903 C2887 0.961 . S
H2904 C2888 0.931 . S
H2905 C2893 0.930 . S
H2906 C2894 0.956 . S
H2907 C2894 0.961 . S
H2908 C2894 0.961 . S
H2909 C2895 0.958 . S
H2910 C2895 0.961 . S
H2911 C2895 0.960 . S
C2912 C2913 1.391 . S
C2912 C2914 1.394 . S
C2912 H2928 0.931 . S
C2913 C2912 1.391 . S
C2913 C2917 1.376 . S
C2914 C2912 1.394 . S
C2914 C2915 1.369 . S
C2914 C2918 1.531 . S
C2915 C2914 1.369 . S
C2915 C2916 1.410 . S
C2915 C2923 1.503 . S
C2916 C2915 1.410 . S
C2916 C2917 1.392 . S
C2916 C2919 1.511 . S
C2917 C2913 1.376 . S
C2917 C2916 1.392 . S
C2917 H2929 0.929 . S
C2918 C2914 1.531 . S
C2918 H2930 0.960 . S
C2918 H2931 0.962 . S
C2918 H2932 0.960 . S
C2919 C2916 1.511 . S
C2919 H2933 0.961 . S
C2919 H2934 0.961 . S
C2919 H2935 0.961 . S
C2920 C2921 1.370 . S
C2920 C2922 1.363 . S
C2920 H2936 0.931 . S
C2921 C2920 1.370 . S
C2921 C2925 1.408 . S
C2922 C2920 1.363 . S
C2922 C2923 1.370 . S
C2922 C2926 1.524 . S
C2923 C2915 1.503 . S
C2923 C2922 1.370 . S
C2923 C2924 1.403 . S
C2924 C2923 1.403 . S
C2924 C2925 1.404 . S
C2924 C2927 1.539 . S
C2925 C2921 1.408 . S
C2925 C2924 1.404 . S
C2925 H2937 0.930 . S
C2926 C2922 1.524 . S
C2926 H2938 0.956 . S
C2926 H2939 0.961 . S
C2926 H2940 0.961 . S
C2927 C2924 1.539 . S
C2927 H2941 0.958 . S
C2927 H2942 0.961 . S
C2927 H2943 0.960 . S
H2928 C2912 0.931 . S
H2929 C2917 0.929 . S
H2930 C2918 0.960 . S
H2931 C2918 0.962 . S
H2932 C2918 0.960 . S
H2933 C2919 0.961 . S
H2934 C2919 0.961 . S
H2935 C2919 0.961 . S
H2936 C2920 0.931 . S
H2937 C2925 0.930 . S
H2938 C2926 0.956 . S
H2939 C2926 0.961 . S
H2940 C2926 0.961 . S
H2941 C2927 0.958 . S
H2942 C2927 0.961 . S
H2943 C2927 0.960 . S
C2944 C2945 1.391 . S
C2944 C2946 1.394 . S
C2944 H2960 0.931 . S
C2945 C2944 1.391 . S
C2945 C2949 1.376 . S
C2946 C2944 1.394 . S
C2946 C2947 1.369 . S
C2946 C2950 1.531 . S
C2947 C2946 1.369 . S
C2947 C2948 1.410 . S
C2947 C2955 1.503 . S
C2948 C2947 1.410 . S
C2948 C2949 1.392 . S
C2948 C2951 1.511 . S
C2949 C2945 1.376 . S
C2949 C2948 1.392 . S
C2949 H2961 0.929 . S
C2950 C2946 1.531 . S
C2950 H2962 0.960 . S
C2950 H2963 0.962 . S
C2950 H2964 0.960 . S
C2951 C2948 1.511 . S
C2951 H2965 0.961 . S
C2951 H2966 0.961 . S
C2951 H2967 0.961 . S
C2952 C2953 1.370 . S
C2952 C2954 1.363 . S
C2952 H2968 0.931 . S
C2953 C2952 1.370 . S
C2953 C2957 1.408 . S
C2954 C2952 1.363 . S
C2954 C2955 1.370 . S
C2954 C2958 1.524 . S
C2955 C2947 1.503 . S
C2955 C2954 1.370 . S
C2955 C2956 1.403 . S
C2956 C2955 1.403 . S
C2956 C2957 1.404 . S
C2956 C2959 1.539 . S
C2957 C2953 1.408 . S
C2957 C2956 1.404 . S
C2957 H2969 0.930 . S
C2958 C2954 1.524 . S
C2958 H2970 0.956 . S
C2958 H2971 0.961 . S
C2958 H2972 0.961 . S
C2959 C2956 1.539 . S
C2959 H2973 0.958 . S
C2959 H2974 0.961 . S
C2959 H2975 0.960 . S
H2960 C2944 0.931 . S
H2961 C2949 0.929 . S
H2962 C2950 0.960 . S
H2963 C2950 0.962 . S
H2964 C2950 0.960 . S
H2965 C2951 0.961 . S
H2966 C2951 0.961 . S
H2967 C2951 0.961 . S
H2968 C2952 0.931 . S
H2969 C2957 0.930 . S
H2970 C2958 0.956 . S
H2971 C2958 0.961 . S
H2972 C2958 0.961 . S
H2973 C2959 0.958 . S
H2974 C2959 0.961 . S
H2975 C2959 0.960 . S
C2976 C2977 1.391 . S
C2976 C2978 1.394 . S
C2976 H2992 0.931 . S
C2977 C2976 1.391 . S
C2977 C2981 1.376 . S
C2978 C2976 1.394 . S
C2978 C2979 1.369 . S
C2978 C2982 1.531 . S
C2979 C2978 1.369 . S
C2979 C2980 1.410 . S
C2979 C2987 1.503 . S
C2980 C2979 1.410 . S
C2980 C2981 1.392 . S
C2980 C2983 1.511 . S
C2981 C2977 1.376 . S
C2981 C2980 1.392 . S
C2981 H2993 0.929 . S
C2982 C2978 1.531 . S
C2982 H2994 0.960 . S
C2982 H2995 0.962 . S
C2982 H2996 0.960 . S
C2983 C2980 1.511 . S
C2983 H2997 0.961 . S
C2983 H2998 0.961 . S
C2983 H2999 0.961 . S
C2984 C2985 1.370 . S
C2984 C2986 1.363 . S
C2984 H3000 0.931 . S
C2985 C2984 1.370 . S
C2985 C2989 1.408 . S
C2986 C2984 1.363 . S
C2986 C2987 1.370 . S
C2986 C2990 1.524 . S
C2987 C2979 1.503 . S
C2987 C2986 1.370 . S
C2987 C2988 1.403 . S
C2988 C2987 1.403 . S
C2988 C2989 1.404 . S
C2988 C2991 1.539 . S
C2989 C2985 1.408 . S
C2989 C2988 1.404 . S
C2989 H3001 0.930 . S
C2990 C2986 1.524 . S
C2990 H3002 0.956 . S
C2990 H3003 0.961 . S
C2990 H3004 0.961 . S
C2991 C2988 1.539 . S
C2991 H3005 0.958 . S
C2991 H3006 0.961 . S
C2991 H3007 0.960 . S
H2992 C2976 0.931 . S
H2993 C2981 0.929 . S
H2994 C2982 0.960 . S
H2995 C2982 0.962 . S
H2996 C2982 0.960 . S
H2997 C2983 0.961 . S
H2998 C2983 0.961 . S
H2999 C2983 0.961 . S
H3000 C2984 0.931 . S
H3001 C2989 0.930 . S
H3002 C2990 0.956 . S
H3003 C2990 0.961 . S
H3004 C2990 0.961 . S
H3005 C2991 0.958 . S
H3006 C2991 0.961 . S
H3007 C2991 0.960 . S
C3008 C3009 1.391 . S
C3008 C3010 1.394 . S
C3008 H3024 0.931 . S
C3009 C3008 1.391 . S
C3009 C3013 1.376 . S
C3010 C3008 1.394 . S
C3010 C3011 1.369 . S
C3010 C3014 1.531 . S
C3011 C3010 1.369 . S
C3011 C3012 1.410 . S
C3011 C3019 1.503 . S
C3012 C3011 1.410 . S
C3012 C3013 1.392 . S
C3012 C3015 1.511 . S
C3013 C3009 1.376 . S
C3013 C3012 1.392 . S
C3013 H3025 0.929 . S
C3014 C3010 1.531 . S
C3014 H3026 0.960 . S
C3014 H3027 0.962 . S
C3014 H3028 0.960 . S
C3015 C3012 1.511 . S
C3015 H3029 0.961 . S
C3015 H3030 0.961 . S
C3015 H3031 0.961 . S
C3016 C3017 1.370 . S
C3016 C3018 1.363 . S
C3016 H3032 0.931 . S
C3017 C3016 1.370 . S
C3017 C3021 1.408 . S
C3018 C3016 1.363 . S
C3018 C3019 1.370 . S
C3018 C3022 1.524 . S
C3019 C3011 1.503 . S
C3019 C3018 1.370 . S
C3019 C3020 1.403 . S
C3020 C3019 1.403 . S
C3020 C3021 1.404 . S
C3020 C3023 1.539 . S
C3021 C3017 1.408 . S
C3021 C3020 1.404 . S
C3021 H3033 0.930 . S
C3022 C3018 1.524 . S
C3022 H3034 0.956 . S
C3022 H3035 0.961 . S
C3022 H3036 0.961 . S
C3023 C3020 1.539 . S
C3023 H3037 0.958 . S
C3023 H3038 0.961 . S
C3023 H3039 0.960 . S
H3024 C3008 0.931 . S
H3025 C3013 0.929 . S
H3026 C3014 0.960 . S
H3027 C3014 0.962 . S
H3028 C3014 0.960 . S
H3029 C3015 0.961 . S
H3030 C3015 0.961 . S
H3031 C3015 0.961 . S
H3032 C3016 0.931 . S
H3033 C3021 0.930 . S
H3034 C3022 0.956 . S
H3035 C3022 0.961 . S
H3036 C3022 0.961 . S
H3037 C3023 0.958 . S
H3038 C3023 0.961 . S
H3039 C3023 0.960 . S
C3040 C3041 1.391 . S
C3040 C3042 1.394 . S
C3040 H3056 0.931 . S
C3041 C3040 1.391 . S
C3041 C3045 1.376 . S
C3042 C3040 1.394 . S
C3042 C3043 1.369 . S
C3042 C3046 1.531 . S
C3043 C3042 1.369 . S
C3043 C3044 1.410 . S
C3043 C3051 1.503 . S
C3044 C3043 1.410 . S
C3044 C3045 1.392 . S
C3044 C3047 1.511 . S
C3045 C3041 1.376 . S
C3045 C3044 1.392 . S
C3045 H3057 0.929 . S
C3046 C3042 1.531 . S
C3046 H3058 0.960 . S
C3046 H3059 0.962 . S
C3046 H3060 0.960 . S
C3047 C3044 1.511 . S
C3047 H3061 0.961 . S
C3047 H3062 0.961 . S
C3047 H3063 0.961 . S
C3048 C3049 1.370 . S
C3048 C3050 1.363 . S
C3048 H3064 0.931 . S
C3049 C3048 1.370 . S
C3049 C3053 1.408 . S
C3050 C3048 1.363 . S
C3050 C3051 1.370 . S
C3050 C3054 1.524 . S
C3051 C3043 1.503 . S
C3051 C3050 1.370 . S
C3051 C3052 1.403 . S
C3052 C3051 1.403 . S
C3052 C3053 1.404 . S
C3052 C3055 1.539 . S
C3053 C3049 1.408 . S
C3053 C3052 1.404 . S
C3053 H3065 0.930 . S
C3054 C3050 1.524 . S
C3054 H3066 0.956 . S
C3054 H3067 0.961 . S
C3054 H3068 0.961 . S
C3055 C3052 1.539 . S
C3055 H3069 0.958 . S
C3055 H3070 0.961 . S
C3055 H3071 0.960 . S
H3056 C3040 0.931 . S
H3057 C3045 0.929 . S
H3058 C3046 0.960 . S
H3059 C3046 0.962 . S
H3060 C3046 0.960 . S
H3061 C3047 0.961 . S
H3062 C3047 0.961 . S
H3063 C3047 0.961 . S
H3064 C3048 0.931 . S
H3065 C3053 0.930 . S
H3066 C3054 0.956 . S
H3067 C3054 0.961 . S
H3068 C3054 0.961 . S
H3069 C3055 0.958 . S
H3070 C3055 0.961 . S
H3071 C3055 0.960 . S
C3072 C3073 1.391 . S
C3072 C3074 1.394 . S
C3072 H3088 0.931 . S
C3073 C3072 1.391 . S
C3073 C3077 1.376 . S
C3074 C3072 1.394 . S
C3074 C3075 1.369 . S
C3074 C3078 1.531 . S
C3075 C3074 1.369 . S
C3075 C3076 1.410 . S
C3075 C3083 1.503 . S
C3076 C3075 1.410 . S
C3076 C3077 1.392 . S
C3076 C3079 1.511 . S
C3077 C3073 1.376 . S
C3077 C3076 1.392 . S
C3077 H3089 0.929 . S
C3078 C3074 1.531 . S
C3078 H3090 0.960 . S
C3078 H3091 0.962 . S
C3078 H3092 0.960 . S
C3079 C3076 1.511 . S
C3079 H3093 0.961 . S
C3079 H3094 0.961 . S
C3079 H3095 0.961 . S
C3080 C3081 1.370 . S
C3080 C3082 1.363 . S
C3080 H3096 0.931 . S
C3081 C3080 1.370 . S
C3081 C3085 1.408 . S
C3082 C3080 1.363 . S
C3082 C3083 1.370 . S
C3082 C3086 1.524 . S
C3083 C3075 1.503 . S
C3083 C3082 1.370 . S
C3083 C3084 1.403 . S
C3084 C3083 1.403 . S
C3084 C3085 1.404 . S
C3084 C3087 1.539 . S
C3085 C3081 1.408 . S
C3085 C3084 1.404 . S
C3085 H3097 0.930 . S
C3086 C3082 1.524 . S
C3086 H3098 0.956 . S
C3086 H3099 0.961 . S
C3086 H3100 0.961 . S
C3087 C3084 1.539 . S
C3087 H3101 0.958 . S
C3087 H3102 0.961 . S
C3087 H3103 0.960 . S
H3088 C3072 0.931 . S
H3089 C3077 0.929 . S
H3090 C3078 0.960 . S
H3091 C3078 0.962 . S
H3092 C3078 0.960 . S
H3093 C3079 0.961 . S
H3094 C3079 0.961 . S
H3095 C3079 0.961 . S
H3096 C3080 0.931 . S
H3097 C3085 0.930 . S
H3098 C3086 0.956 . S
H3099 C3086 0.961 . S
H3100 C3086 0.961 . S
H3101 C3087 0.958 . S
H3102 C3087 0.961 . S
H3103 C3087 0.960 . S
C3104 C3105 1.391 . S
C3104 C3106 1.394 . S
C3104 H3120 0.931 . S
C3105 C3104 1.391 . S
C3105 C3109 1.376 . S
C3106 C3104 1.394 . S
C3106 C3107 1.369 . S
C3106 C3110 1.531 . S
C3107 C3106 1.369 . S
C3107 C3108 1.410 . S
C3107 C3115 1.503 . S
C3108 C3107 1.410 . S
C3108 C3109 1.392 . S
C3108 C3111 1.511 . S
C3109 C3105 1.376 . S
C3109 C3108 1.392 . S
C3109 H3121 0.929 . S
C3110 C3106 1.531 . S
C3110 H3122 0.960 . S
C3110 H3123 0.962 . S
C3110 H3124 0.960 . S
C3111 C3108 1.511 . S
C3111 H3125 0.961 . S
C3111 H3126 0.961 . S
C3111 H3127 0.961 . S
C3112 C3113 1.370 . S
C3112 C3114 1.363 . S
C3112 H3128 0.931 . S
C3113 C3112 1.370 . S
C3113 C3117 1.408 . S
C3114 C3112 1.363 . S
C3114 C3115 1.370 . S
C3114 C3118 1.524 . S
C3115 C3107 1.503 . S
C3115 C3114 1.370 . S
C3115 C3116 1.403 . S
C3116 C3115 1.403 . S
C3116 C3117 1.404 . S
C3116 C3119 1.539 . S
C3117 C3113 1.408 . S
C3117 C3116 1.404 . S
C3117 H3129 0.930 . S
C3118 C3114 1.524 . S
C3118 H3130 0.956 . S
C3118 H3131 0.961 . S
C3118 H3132 0.961 . S
C3119 C3116 1.539 . S
C3119 H3133 0.958 . S
C3119 H3134 0.961 . S
C3119 H3135 0.960 . S
H3120 C3104 0.931 . S
H3121 C3109 0.929 . S
H3122 C3110 0.960 . S
H3123 C3110 0.962 . S
H3124 C3110 0.960 . S
H3125 C3111 0.961 . S
H3126 C3111 0.961 . S
H3127 C3111 0.961 . S
H3128 C3112 0.931 . S
H3129 C3117 0.930 . S
H3130 C3118 0.956 . S
H3131 C3118 0.961 . S
H3132 C3118 0.961 . S
H3133 C3119 0.958 . S
H3134 C3119 0.961 . S
H3135 C3119 0.960 . S
C3136 C3137 1.391 . S
C3136 C3138 1.394 . S
C3136 H3152 0.931 . S
C3137 C3136 1.391 . S
C3137 C3141 1.376 . S
C3138 C3136 1.394 . S
C3138 C3139 1.369 . S
C3138 C3142 1.531 . S
C3139 C3138 1.369 . S
C3139 C3140 1.410 . S
C3139 C3147 1.503 . S
C3140 C3139 1.410 . S
C3140 C3141 1.392 . S
C3140 C3143 1.511 . S
C3141 C3137 1.376 . S
C3141 C3140 1.392 . S
C3141 H3153 0.929 . S
C3142 C3138 1.531 . S
C3142 H3154 0.960 . S
C3142 H3155 0.962 . S
C3142 H3156 0.960 . S
C3143 C3140 1.511 . S
C3143 H3157 0.961 . S
C3143 H3158 0.961 . S
C3143 H3159 0.961 . S
C3144 C3145 1.370 . S
C3144 C3146 1.363 . S
C3144 H3160 0.931 . S
C3145 C3144 1.370 . S
C3145 C3149 1.408 . S
C3146 C3144 1.363 . S
C3146 C3147 1.370 . S
C3146 C3150 1.524 . S
C3147 C3139 1.503 . S
C3147 C3146 1.370 . S
C3147 C3148 1.403 . S
C3148 C3147 1.403 . S
C3148 C3149 1.404 . S
C3148 C3151 1.539 . S
C3149 C3145 1.408 . S
C3149 C3148 1.404 . S
C3149 H3161 0.930 . S
C3150 C3146 1.524 . S
C3150 H3162 0.956 . S
C3150 H3163 0.961 . S
C3150 H3164 0.961 . S
C3151 C3148 1.539 . S
C3151 H3165 0.958 . S
C3151 H3166 0.961 . S
C3151 H3167 0.960 . S
H3152 C3136 0.931 . S
H3153 C3141 0.929 . S
H3154 C3142 0.960 . S
H3155 C3142 0.962 . S
H3156 C3142 0.960 . S
H3157 C3143 0.961 . S
H3158 C3143 0.961 . S
H3159 C3143 0.961 . S
H3160 C3144 0.931 . S
H3161 C3149 0.930 . S
H3162 C3150 0.956 . S
H3163 C3150 0.961 . S
H3164 C3150 0.961 . S
H3165 C3151 0.958 . S
H3166 C3151 0.961 . S
H3167 C3151 0.960 . S
C3168 C3169 1.391 . S
C3168 C3170 1.394 . S
C3168 H3184 0.931 . S
C3169 C3168 1.391 . S
C3169 C3173 1.376 . S
C3170 C3168 1.394 . S
C3170 C3171 1.369 . S
C3170 C3174 1.531 . S
C3171 C3170 1.369 . S
C3171 C3172 1.410 . S
C3171 C3179 1.503 . S
C3172 C3171 1.410 . S
C3172 C3173 1.392 . S
C3172 C3175 1.511 . S
C3173 C3169 1.376 . S
C3173 C3172 1.392 . S
C3173 H3185 0.929 . S
C3174 C3170 1.531 . S
C3174 H3186 0.960 . S
C3174 H3187 0.962 . S
C3174 H3188 0.960 . S
C3175 C3172 1.511 . S
C3175 H3189 0.961 . S
C3175 H3190 0.961 . S
C3175 H3191 0.961 . S
C3176 C3177 1.370 . S
C3176 C3178 1.363 . S
C3176 H3192 0.931 . S
C3177 C3176 1.370 . S
C3177 C3181 1.408 . S
C3178 C3176 1.363 . S
C3178 C3179 1.370 . S
C3178 C3182 1.524 . S
C3179 C3171 1.503 . S
C3179 C3178 1.370 . S
C3179 C3180 1.403 . S
C3180 C3179 1.403 . S
C3180 C3181 1.404 . S
C3180 C3183 1.539 . S
C3181 C3177 1.408 . S
C3181 C3180 1.404 . S
C3181 H3193 0.930 . S
C3182 C3178 1.524 . S
C3182 H3194 0.956 . S
C3182 H3195 0.961 . S
C3182 H3196 0.961 . S
C3183 C3180 1.539 . S
C3183 H3197 0.958 . S
C3183 H3198 0.961 . S
C3183 H3199 0.960 . S
H3184 C3168 0.931 . S
H3185 C3173 0.929 . S
H3186 C3174 0.960 . S
H3187 C3174 0.962 . S
H3188 C3174 0.960 . S
H3189 C3175 0.961 . S
H3190 C3175 0.961 . S
H3191 C3175 0.961 . S
H3192 C3176 0.931 . S
H3193 C3181 0.930 . S
H3194 C3182 0.956 . S
H3195 C3182 0.961 . S
H3196 C3182 0.961 . S
H3197 C3183 0.958 . S
H3198 C3183 0.961 . S
H3199 C3183 0.960 . S
C3200 C3201 1.391 . S
C3200 C3202 1.394 . S
C3200 H3216 0.931 . S
C3201 C3200 1.391 . S
C3201 C3205 1.376 . S
C3202 C3200 1.394 . S
C3202 C3203 1.369 . S
C3202 C3206 1.531 . S
C3203 C3202 1.369 . S
C3203 C3204 1.410 . S
C3203 C3211 1.503 . S
C3204 C3203 1.410 . S
C3204 C3205 1.392 . S
C3204 C3207 1.511 . S
C3205 C3201 1.376 . S
C3205 C3204 1.392 . S
C3205 H3217 0.929 . S
C3206 C3202 1.531 . S
C3206 H3218 0.960 . S
C3206 H3219 0.962 . S
C3206 H3220 0.960 . S
C3207 C3204 1.511 . S
C3207 H3221 0.961 . S
C3207 H3222 0.961 . S
C3207 H3223 0.961 . S
C3208 C3209 1.370 . S
C3208 C3210 1.363 . S
C3208 H3224 0.931 . S
C3209 C3208 1.370 . S
C3209 C3213 1.408 . S
C3210 C3208 1.363 . S
C3210 C3211 1.370 . S
C3210 C3214 1.524 . S
C3211 C3203 1.503 . S
C3211 C3210 1.370 . S
C3211 C3212 1.403 . S
C3212 C3211 1.403 . S
C3212 C3213 1.404 . S
C3212 C3215 1.539 . S
C3213 C3209 1.408 . S
C3213 C3212 1.404 . S
C3213 H3225 0.930 . S
C3214 C3210 1.524 . S
C3214 H3226 0.956 . S
C3214 H3227 0.961 . S
C3214 H3228 0.961 . S
C3215 C3212 1.539 . S
C3215 H3229 0.958 . S
C3215 H3230 0.961 . S
C3215 H3231 0.960 . S
H3216 C3200 0.931 . S
H3217 C3205 0.929 . S
H3218 C3206 0.960 . S
H3219 C3206 0.962 . S
H3220 C3206 0.960 . S
H3221 C3207 0.961 . S
H3222 C3207 0.961 . S
H3223 C3207 0.961 . S
H3224 C3208 0.931 . S
H3225 C3213 0.930 . S
H3226 C3214 0.956 . S
H3227 C3214 0.961 . S
H3228 C3214 0.961 . S
H3229 C3215 0.958 . S
H3230 C3215 0.961 . S
H3231 C3215 0.960 . S
C3232 C3233 1.391 . S
C3232 C3234 1.394 . S
C3232 H3248 0.931 . S
C3233 C3232 1.391 . S
C3233 C3237 1.376 . S
C3234 C3232 1.394 . S
C3234 C3235 1.369 . S
C3234 C3238 1.531 . S
C3235 C3234 1.369 . S
C3235 C3236 1.410 . S
C3235 C3243 1.503 . S
C3236 C3235 1.410 . S
C3236 C3237 1.392 . S
C3236 C3239 1.511 . S
C3237 C3233 1.376 . S
C3237 C3236 1.392 . S
C3237 H3249 0.929 . S
C3238 C3234 1.531 . S
C3238 H3250 0.960 . S
C3238 H3251 0.962 . S
C3238 H3252 0.960 . S
C3239 C3236 1.511 . S
C3239 H3253 0.961 . S
C3239 H3254 0.961 . S
C3239 H3255 0.961 . S
C3240 C3241 1.370 . S
C3240 C3242 1.363 . S
C3240 H3256 0.931 . S
C3241 C3240 1.370 . S
C3241 C3245 1.408 . S
C3242 C3240 1.363 . S
C3242 C3243 1.370 . S
C3242 C3246 1.524 . S
C3243 C3235 1.503 . S
C3243 C3242 1.370 . S
C3243 C3244 1.403 . S
C3244 C3243 1.403 . S
C3244 C3245 1.404 . S
C3244 C3247 1.539 . S
C3245 C3241 1.408 . S
C3245 C3244 1.404 . S
C3245 H3257 0.930 . S
C3246 C3242 1.524 . S
C3246 H3258 0.956 . S
C3246 H3259 0.961 . S
C3246 H3260 0.961 . S
C3247 C3244 1.539 . S
C3247 H3261 0.958 . S
C3247 H3262 0.961 . S
C3247 H3263 0.960 . S
H3248 C3232 0.931 . S
H3249 C3237 0.929 . S
H3250 C3238 0.960 . S
H3251 C3238 0.962 . S
H3252 C3238 0.960 . S
H3253 C3239 0.961 . S
H3254 C3239 0.961 . S
H3255 C3239 0.961 . S
H3256 C3240 0.931 . S
H3257 C3245 0.930 . S
H3258 C3246 0.956 . S
H3259 C3246 0.961 . S
H3260 C3246 0.961 . S
H3261 C3247 0.958 . S
H3262 C3247 0.961 . S
H3263 C3247 0.960 . S
C3264 C3265 1.391 . S
C3264 C3266 1.394 . S
C3264 H3280 0.931 . S
C3265 C3264 1.391 . S
C3265 C3269 1.376 . S
C3266 C3264 1.394 . S
C3266 C3267 1.369 . S
C3266 C3270 1.531 . S
C3267 C3266 1.369 . S
C3267 C3268 1.410 . S
C3267 C3275 1.503 . S
C3268 C3267 1.410 . S
C3268 C3269 1.392 . S
C3268 C3271 1.511 . S
C3269 C3265 1.376 . S
C3269 C3268 1.392 . S
C3269 H3281 0.929 . S
C3270 C3266 1.531 . S
C3270 H3282 0.960 . S
C3270 H3283 0.962 . S
C3270 H3284 0.960 . S
C3271 C3268 1.511 . S
C3271 H3285 0.961 . S
C3271 H3286 0.961 . S
C3271 H3287 0.961 . S
C3272 C3273 1.370 . S
C3272 C3274 1.363 . S
C3272 H3288 0.931 . S
C3273 C3272 1.370 . S
C3273 C3277 1.408 . S
C3274 C3272 1.363 . S
C3274 C3275 1.370 . S
C3274 C3278 1.524 . S
C3275 C3267 1.503 . S
C3275 C3274 1.370 . S
C3275 C3276 1.403 . S
C3276 C3275 1.403 . S
C3276 C3277 1.404 . S
C3276 C3279 1.539 . S
C3277 C3273 1.408 . S
C3277 C3276 1.404 . S
C3277 H3289 0.930 . S
C3278 C3274 1.524 . S
C3278 H3290 0.956 . S
C3278 H3291 0.961 . S
C3278 H3292 0.961 . S
C3279 C3276 1.539 . S
C3279 H3293 0.958 . S
C3279 H3294 0.961 . S
C3279 H3295 0.960 . S
H3280 C3264 0.931 . S
H3281 C3269 0.929 . S
H3282 C3270 0.960 . S
H3283 C3270 0.962 . S
H3284 C3270 0.960 . S
H3285 C3271 0.961 . S
H3286 C3271 0.961 . S
H3287 C3271 0.961 . S
H3288 C3272 0.931 . S
H3289 C3277 0.930 . S
H3290 C3278 0.956 . S
H3291 C3278 0.961 . S
H3292 C3278 0.961 . S
H3293 C3279 0.958 . S
H3294 C3279 0.961 . S
H3295 C3279 0.960 . S
C3296 C3297 1.391 . S
C3296 C3298 1.394 . S
C3296 H3312 0.931 . S
C3297 C3296 1.391 . S
C3297 C3301 1.376 . S
C3298 C3296 1.394 . S
C3298 C3299 1.369 . S
C3298 C3302 1.531 . S
C3299 C3298 1.369 . S
C3299 C3300 1.410 . S
C3299 C3307 1.503 . S
C3300 C3299 1.410 . S
C3300 C3301 1.392 . S
C3300 C3303 1.511 . S
C3301 C3297 1.376 . S
C3301 C3300 1.392 . S
C3301 H3313 0.929 . S
C3302 C3298 1.531 . S
C3302 H3314 0.960 . S
C3302 H3315 0.962 . S
C3302 H3316 0.960 . S
C3303 C3300 1.511 . S
C3303 H3317 0.961 . S
C3303 H3318 0.961 . S
C3303 H3319 0.961 . S
C3304 C3305 1.370 . S
C3304 C3306 1.363 . S
C3304 H3320 0.931 . S
C3305 C3304 1.370 . S
C3305 C3309 1.408 . S
C3306 C3304 1.363 . S
C3306 C3307 1.370 . S
C3306 C3310 1.524 . S
C3307 C3299 1.503 . S
C3307 C3306 1.370 . S
C3307 C3308 1.403 . S
C3308 C3307 1.403 . S
C3308 C3309 1.404 . S
C3308 C3311 1.539 . S
C3309 C3305 1.408 . S
C3309 C3308 1.404 . S
C3309 H3321 0.930 . S
C3310 C3306 1.524 . S
C3310 H3322 0.956 . S
C3310 H3323 0.961 . S
C3310 H3324 0.961 . S
C3311 C3308 1.539 . S
C3311 H3325 0.958 . S
C3311 H3326 0.961 . S
C3311 H3327 0.960 . S
H3312 C3296 0.931 . S
H3313 C3301 0.929 . S
H3314 C3302 0.960 . S
H3315 C3302 0.962 . S
H3316 C3302 0.960 . S
H3317 C3303 0.961 . S
H3318 C3303 0.961 . S
H3319 C3303 0.961 . S
H3320 C3304 0.931 . S
H3321 C3309 0.930 . S
H3322 C3310 0.956 . S
H3323 C3310 0.961 . S
H3324 C3310 0.961 . S
H3325 C3311 0.958 . S
H3326 C3311 0.961 . S
H3327 C3311 0.960 . S
C3328 C3329 1.391 . S
C3328 C3330 1.394 . S
C3328 H3344 0.931 . S
C3329 C3328 1.391 . S
C3329 C3333 1.376 . S
C3330 C3328 1.394 . S
C3330 C3331 1.369 . S
C3330 C3334 1.531 . S
C3331 C3330 1.369 . S
C3331 C3332 1.410 . S
C3331 C3339 1.503 . S
C3332 C3331 1.410 . S
C3332 C3333 1.392 . S
C3332 C3335 1.511 . S
C3333 C3329 1.376 . S
C3333 C3332 1.392 . S
C3333 H3345 0.929 . S
C3334 C3330 1.531 . S
C3334 H3346 0.960 . S
C3334 H3347 0.962 . S
C3334 H3348 0.960 . S
C3335 C3332 1.511 . S
C3335 H3349 0.961 . S
C3335 H3350 0.961 . S
C3335 H3351 0.961 . S
C3336 C3337 1.370 . S
C3336 C3338 1.363 . S
C3336 H3352 0.931 . S
C3337 C3336 1.370 . S
C3337 C3341 1.408 . S
C3338 C3336 1.363 . S
C3338 C3339 1.370 . S
C3338 C3342 1.524 . S
C3339 C3331 1.503 . S
C3339 C3338 1.370 . S
C3339 C3340 1.403 . S
C3340 C3339 1.403 . S
C3340 C3341 1.404 . S
C3340 C3343 1.539 . S
C3341 C3337 1.408 . S
C3341 C3340 1.404 . S
C3341 H3353 0.930 . S
C3342 C3338 1.524 . S
C3342 H3354 0.956 . S
C3342 H3355 0.961 . S
C3342 H3356 0.961 . S
C3343 C3340 1.539 . S
C3343 H3357 0.958 . S
C3343 H3358 0.961 . S
C3343 H3359 0.960 . S
H3344 C3328 0.931 . S
H3345 C3333 0.929 . S
H3346 C3334 0.960 . S
H3347 C3334 0.962 . S
H3348 C3334 0.960 . S
H3349 C3335 0.961 . S
H3350 C3335 0.961 . S
H3351 C3335 0.961 . S
H3352 C3336 0.931 . S
H3353 C3341 0.930 . S
H3354 C3342 0.956 . S
H3355 C3342 0.961 . S
H3356 C3342 0.961 . S
H3357 C3343 0.958 . S
H3358 C3343 0.961 . S
H3359 C3343 0.960 . S
C3360 C3361 1.391 . S
C3360 C3362 1.394 . S
C3360 H3376 0.931 . S
C3361 C3360 1.391 . S
C3361 C3365 1.376 . S
C3362 C3360 1.394 . S
C3362 C3363 1.369 . S
C3362 C3366 1.531 . S
C3363 C3362 1.369 . S
C3363 C3364 1.410 . S
C3363 C3371 1.503 . S
C3364 C3363 1.410 . S
C3364 C3365 1.392 . S
C3364 C3367 1.511 . S
C3365 C3361 1.376 . S
C3365 C3364 1.392 . S
C3365 H3377 0.929 . S
C3366 C3362 1.531 . S
C3366 H3378 0.960 . S
C3366 H3379 0.962 . S
C3366 H3380 0.960 . S
C3367 C3364 1.511 . S
C3367 H3381 0.961 . S
C3367 H3382 0.961 . S
C3367 H3383 0.961 . S
C3368 C3369 1.370 . S
C3368 C3370 1.363 . S
C3368 H3384 0.931 . S
C3369 C3368 1.370 . S
C3369 C3373 1.408 . S
C3370 C3368 1.363 . S
C3370 C3371 1.370 . S
C3370 C3374 1.524 . S
C3371 C3363 1.503 . S
C3371 C3370 1.370 . S
C3371 C3372 1.403 . S
C3372 C3371 1.403 . S
C3372 C3373 1.404 . S
C3372 C3375 1.539 . S
C3373 C3369 1.408 . S
C3373 C3372 1.404 . S
C3373 H3385 0.930 . S
C3374 C3370 1.524 . S
C3374 H3386 0.956 . S
C3374 H3387 0.961 . S
C3374 H3388 0.961 . S
C3375 C3372 1.539 . S
C3375 H3389 0.958 . S
C3375 H3390 0.961 . S
C3375 H3391 0.960 . S
H3376 C3360 0.931 . S
H3377 C3365 0.929 . S
H3378 C3366 0.960 . S
H3379 C3366 0.962 . S
H3380 C3366 0.960 . S
H3381 C3367 0.961 . S
H3382 C3367 0.961 . S
H3383 C3367 0.961 . S
H3384 C3368 0.931 . S
H3385 C3373 0.930 . S
H3386 C3374 0.956 . S
H3387 C3374 0.961 . S
H3388 C3374 0.961 . S
H3389 C3375 0.958 . S
H3390 C3375 0.961 . S
H3391 C3375 0.960 . S
C3392 C3393 1.391 . S
C3392 C3394 1.394 . S
C3392 H3408 0.931 . S
C3393 C3392 1.391 . S
C3393 C3397 1.376 . S
C3394 C3392 1.394 . S
C3394 C3395 1.369 . S
C3394 C3398 1.531 . S
C3395 C3394 1.369 . S
C3395 C3396 1.410 . S
C3395 C3403 1.503 . S
C3396 C3395 1.410 . S
C3396 C3397 1.392 . S
C3396 C3399 1.511 . S
C3397 C3393 1.376 . S
C3397 C3396 1.392 . S
C3397 H3409 0.929 . S
C3398 C3394 1.531 . S
C3398 H3410 0.960 . S
C3398 H3411 0.962 . S
C3398 H3412 0.960 . S
C3399 C3396 1.511 . S
C3399 H3413 0.961 . S
C3399 H3414 0.961 . S
C3399 H3415 0.961 . S
C3400 C3401 1.370 . S
C3400 C3402 1.363 . S
C3400 H3416 0.931 . S
C3401 C3400 1.370 . S
C3401 C3405 1.408 . S
C3402 C3400 1.363 . S
C3402 C3403 1.370 . S
C3402 C3406 1.524 . S
C3403 C3395 1.503 . S
C3403 C3402 1.370 . S
C3403 C3404 1.403 . S
C3404 C3403 1.403 . S
C3404 C3405 1.404 . S
C3404 C3407 1.539 . S
C3405 C3401 1.408 . S
C3405 C3404 1.404 . S
C3405 H3417 0.930 . S
C3406 C3402 1.524 . S
C3406 H3418 0.956 . S
C3406 H3419 0.961 . S
C3406 H3420 0.961 . S
C3407 C3404 1.539 . S
C3407 H3421 0.958 . S
C3407 H3422 0.961 . S
C3407 H3423 0.960 . S
H3408 C3392 0.931 . S
H3409 C3397 0.929 . S
H3410 C3398 0.960 . S
H3411 C3398 0.962 . S
H3412 C3398 0.960 . S
H3413 C3399 0.961 . S
H3414 C3399 0.961 . S
H3415 C3399 0.961 . S
H3416 C3400 0.931 . S
H3417 C3405 0.930 . S
H3418 C3406 0.956 . S
H3419 C3406 0.961 . S
H3420 C3406 0.961 . S
H3421 C3407 0.958 . S
H3422 C3407 0.961 . S
H3423 C3407 0.960 . S
C3424 C3425 1.391 . S
C3424 C3426 1.394 . S
C3424 H3440 0.931 . S
C3425 C3424 1.391 . S
C3425 C3429 1.376 . S
C3426 C3424 1.394 . S
C3426 C3427 1.369 . S
C3426 C3430 1.531 . S
C3427 C3426 1.369 . S
C3427 C3428 1.410 . S
C3427 C3435 1.503 . S
C3428 C3427 1.410 . S
C3428 C3429 1.392 . S
C3428 C3431 1.511 . S
C3429 C3425 1.376 . S
C3429 C3428 1.392 . S
C3429 H3441 0.929 . S
C3430 C3426 1.531 . S
C3430 H3442 0.960 . S
C3430 H3443 0.962 . S
C3430 H3444 0.960 . S
C3431 C3428 1.511 . S
C3431 H3445 0.961 . S
C3431 H3446 0.961 . S
C3431 H3447 0.961 . S
C3432 C3433 1.370 . S
C3432 C3434 1.363 . S
C3432 H3448 0.931 . S
C3433 C3432 1.370 . S
C3433 C3437 1.408 . S
C3434 C3432 1.363 . S
C3434 C3435 1.370 . S
C3434 C3438 1.524 . S
C3435 C3427 1.503 . S
C3435 C3434 1.370 . S
C3435 C3436 1.403 . S
C3436 C3435 1.403 . S
C3436 C3437 1.404 . S
C3436 C3439 1.539 . S
C3437 C3433 1.408 . S
C3437 C3436 1.404 . S
C3437 H3449 0.930 . S
C3438 C3434 1.524 . S
C3438 H3450 0.956 . S
C3438 H3451 0.961 . S
C3438 H3452 0.961 . S
C3439 C3436 1.539 . S
C3439 H3453 0.958 . S
C3439 H3454 0.961 . S
C3439 H3455 0.960 . S
H3440 C3424 0.931 . S
H3441 C3429 0.929 . S
H3442 C3430 0.960 . S
H3443 C3430 0.962 . S
H3444 C3430 0.960 . S
H3445 C3431 0.961 . S
H3446 C3431 0.961 . S
H3447 C3431 0.961 . S
H3448 C3432 0.931 . S
H3449 C3437 0.930 . S
H3450 C3438 0.956 . S
H3451 C3438 0.961 . S
H3452 C3438 0.961 . S
H3453 C3439 0.958 . S
H3454 C3439 0.961 . S
H3455 C3439 0.960 . S
C3456 C3457 1.391 . S
C3456 C3458 1.394 . S
C3456 H3472 0.931 . S
C3457 C3456 1.391 . S
C3457 C3461 1.376 . S
C3458 C3456 1.394 . S
C3458 C3459 1.369 . S
C3458 C3462 1.531 . S
C3459 C3458 1.369 . S
C3459 C3460 1.410 . S
C3459 C3467 1.503 . S
C3460 C3459 1.410 . S
C3460 C3461 1.392 . S
C3460 C3463 1.511 . S
C3461 C3457 1.376 . S
C3461 C3460 1.392 . S
C3461 H3473 0.929 . S
C3462 C3458 1.531 . S
C3462 H3474 0.960 . S
C3462 H3475 0.962 . S
C3462 H3476 0.960 . S
C3463 C3460 1.511 . S
C3463 H3477 0.961 . S
C3463 H3478 0.961 . S
C3463 H3479 0.961 . S
C3464 C3465 1.370 . S
C3464 C3466 1.363 . S
C3464 H3480 0.931 . S
C3465 C3464 1.370 . S
C3465 C3469 1.408 . S
C3466 C3464 1.363 . S
C3466 C3467 1.370 . S
C3466 C3470 1.524 . S
C3467 C3459 1.503 . S
C3467 C3466 1.370 . S
C3467 C3468 1.403 . S
C3468 C3467 1.403 . S
C3468 C3469 1.404 . S
C3468 C3471 1.539 . S
C3469 C3465 1.408 . S
C3469 C3468 1.404 . S
C3469 H3481 0.930 . S
C3470 C3466 1.524 . S
C3470 H3482 0.956 . S
C3470 H3483 0.961 . S
C3470 H3484 0.961 . S
C3471 C3468 1.539 . S
C3471 H3485 0.958 . S
C3471 H3486 0.961 . S
C3471 H3487 0.960 . S
H3472 C3456 0.931 . S
H3473 C3461 0.929 . S
H3474 C3462 0.960 . S
H3475 C3462 0.962 . S
H3476 C3462 0.960 . S
H3477 C3463 0.961 . S
H3478 C3463 0.961 . S
H3479 C3463 0.961 . S
H3480 C3464 0.931 . S
H3481 C3469 0.930 . S
H3482 C3470 0.956 . S
H3483 C3470 0.961 . S
H3484 C3470 0.961 . S
H3485 C3471 0.958 . S
H3486 C3471 0.961 . S
H3487 C3471 0.960 . S
C3488 C3489 1.391 . S
C3488 C3490 1.394 . S
C3488 H3504 0.931 . S
C3489 C3488 1.391 . S
C3489 C3493 1.376 . S
C3490 C3488 1.394 . S
C3490 C3491 1.369 . S
C3490 C3494 1.531 . S
C3491 C3490 1.369 . S
C3491 C3492 1.410 . S
C3491 C3499 1.503 . S
C3492 C3491 1.410 . S
C3492 C3493 1.392 . S
C3492 C3495 1.511 . S
C3493 C3489 1.376 . S
C3493 C3492 1.392 . S
C3493 H3505 0.929 . S
C3494 C3490 1.531 . S
C3494 H3506 0.960 . S
C3494 H3507 0.962 . S
C3494 H3508 0.960 . S
C3495 C3492 1.511 . S
C3495 H3509 0.961 . S
C3495 H3510 0.961 . S
C3495 H3511 0.961 . S
C3496 C3497 1.370 . S
C3496 C3498 1.363 . S
C3496 H3512 0.931 . S
C3497 C3496 1.370 . S
C3497 C3501 1.408 . S
C3498 C3496 1.363 . S
C3498 C3499 1.370 . S
C3498 C3502 1.524 . S
C3499 C3491 1.503 . S
C3499 C3498 1.370 . S
C3499 C3500 1.403 . S
C3500 C3499 1.403 . S
C3500 C3501 1.404 . S
C3500 C3503 1.539 . S
C3501 C3497 1.408 . S
C3501 C3500 1.404 . S
C3501 H3513 0.930 . S
C3502 C3498 1.524 . S
C3502 H3514 0.956 . S
C3502 H3515 0.961 . S
C3502 H3516 0.961 . S
C3503 C3500 1.539 . S
C3503 H3517 0.958 . S
C3503 H3518 0.961 . S
C3503 H3519 0.960 . S
H3504 C3488 0.931 . S
H3505 C3493 0.929 . S
H3506 C3494 0.960 . S
H3507 C3494 0.962 . S
H3508 C3494 0.960 . S
H3509 C3495 0.961 . S
H3510 C3495 0.961 . S
H3511 C3495 0.961 . S
H3512 C3496 0.931 . S
H3513 C3501 0.930 . S
H3514 C3502 0.956 . S
H3515 C3502 0.961 . S
H3516 C3502 0.961 . S
H3517 C3503 0.958 . S
H3518 C3503 0.961 . S
H3519 C3503 0.960 . S
C3520 C3521 1.391 . S
C3520 C3522 1.394 . S
C3520 H3536 0.931 . S
C3521 C3520 1.391 . S
C3521 C3525 1.376 . S
C3522 C3520 1.394 . S
C3522 C3523 1.369 . S
C3522 C3526 1.531 . S
C3523 C3522 1.369 . S
C3523 C3524 1.410 . S
C3523 C3531 1.503 . S
C3524 C3523 1.410 . S
C3524 C3525 1.392 . S
C3524 C3527 1.511 . S
C3525 C3521 1.376 . S
C3525 C3524 1.392 . S
C3525 H3537 0.929 . S
C3526 C3522 1.531 . S
C3526 H3538 0.960 . S
C3526 H3539 0.962 . S
C3526 H3540 0.960 . S
C3527 C3524 1.511 . S
C3527 H3541 0.961 . S
C3527 H3542 0.961 . S
C3527 H3543 0.961 . S
C3528 C3529 1.370 . S
C3528 C3530 1.363 . S
C3528 H3544 0.931 . S
C3529 C3528 1.370 . S
C3529 C3533 1.408 . S
C3530 C3528 1.363 . S
C3530 C3531 1.370 . S
C3530 C3534 1.524 . S
C3531 C3523 1.503 . S
C3531 C3530 1.370 . S
C3531 C3532 1.403 . S
C3532 C3531 1.403 . S
C3532 C3533 1.404 . S
C3532 C3535 1.539 . S
C3533 C3529 1.408 . S
C3533 C3532 1.404 . S
C3533 H3545 0.930 . S
C3534 C3530 1.524 . S
C3534 H3546 0.956 . S
C3534 H3547 0.961 . S
C3534 H3548 0.961 . S
C3535 C3532 1.539 . S
C3535 H3549 0.958 . S
C3535 H3550 0.961 . S
C3535 H3551 0.960 . S
H3536 C3520 0.931 . S
H3537 C3525 0.929 . S
H3538 C3526 0.960 . S
H3539 C3526 0.962 . S
H3540 C3526 0.960 . S
H3541 C3527 0.961 . S
H3542 C3527 0.961 . S
H3543 C3527 0.961 . S
H3544 C3528 0.931 . S
H3545 C3533 0.930 . S
H3546 C3534 0.956 . S
H3547 C3534 0.961 . S
H3548 C3534 0.961 . S
H3549 C3535 0.958 . S
H3550 C3535 0.961 . S
H3551 C3535 0.960 . S
C3552 C3553 1.391 . S
C3552 C3554 1.394 . S
C3552 H3568 0.931 . S
C3553 C3552 1.391 . S
C3553 C3557 1.376 . S
C3554 C3552 1.394 . S
C3554 C3555 1.369 . S
C3554 C3558 1.531 . S
C3555 C3554 1.369 . S
C3555 C3556 1.410 . S
C3555 C3563 1.503 . S
C3556 C3555 1.410 . S
C3556 C3557 1.392 . S
C3556 C3559 1.511 . S
C3557 C3553 1.376 . S
C3557 C3556 1.392 . S
C3557 H3569 0.929 . S
C3558 C3554 1.531 . S
C3558 H3570 0.960 . S
C3558 H3571 0.962 . S
C3558 H3572 0.960 . S
C3559 C3556 1.511 . S
C3559 H3573 0.961 . S
C3559 H3574 0.961 . S
C3559 H3575 0.961 . S
C3560 C3561 1.370 . S
C3560 C3562 1.363 . S
C3560 H3576 0.931 . S
C3561 C3560 1.370 . S
C3561 C3565 1.408 . S
C3562 C3560 1.363 . S
C3562 C3563 1.370 . S
C3562 C3566 1.524 . S
C3563 C3555 1.503 . S
C3563 C3562 1.370 . S
C3563 C3564 1.403 . S
C3564 C3563 1.403 . S
C3564 C3565 1.404 . S
C3564 C3567 1.539 . S
C3565 C3561 1.408 . S
C3565 C3564 1.404 . S
C3565 H3577 0.930 . S
C3566 C3562 1.524 . S
C3566 H3578 0.956 . S
C3566 H3579 0.961 . S
C3566 H3580 0.961 . S
C3567 C3564 1.539 . S
C3567 H3581 0.958 . S
C3567 H3582 0.961 . S
C3567 H3583 0.960 . S
H3568 C3552 0.931 . S
H3569 C3557 0.929 . S
H3570 C3558 0.960 . S
H3571 C3558 0.962 . S
H3572 C3558 0.960 . S
H3573 C3559 0.961 . S
H3574 C3559 0.961 . S
H3575 C3559 0.961 . S
H3576 C3560 0.931 . S
H3577 C3565 0.930 . S
H3578 C3566 0.956 . S
H3579 C3566 0.961 . S
H3580 C3566 0.961 . S
H3581 C3567 0.958 . S
H3582 C3567 0.961 . S
H3583 C3567 0.960 . S
C3584 C3585 1.391 . S
C3584 C3586 1.394 . S
C3584 H3600 0.931 . S
C3585 C3584 1.391 . S
C3585 C3589 1.376 . S
C3586 C3584 1.394 . S
C3586 C3587 1.369 . S
C3586 C3590 1.531 . S
C3587 C3586 1.369 . S
C3587 C3588 1.410 . S
C3587 C3595 1.503 . S
C3588 C3587 1.410 . S
C3588 C3589 1.392 . S
C3588 C3591 1.511 . S
C3589 C3585 1.376 . S
C3589 C3588 1.392 . S
C3589 H3601 0.929 . S
C3590 C3586 1.531 . S
C3590 H3602 0.960 . S
C3590 H3603 0.962 . S
C3590 H3604 0.960 . S
C3591 C3588 1.511 . S
C3591 H3605 0.961 . S
C3591 H3606 0.961 . S
C3591 H3607 0.961 . S
C3592 C3593 1.370 . S
C3592 C3594 1.363 . S
C3592 H3608 0.931 . S
C3593 C3592 1.370 . S
C3593 C3597 1.408 . S
C3594 C3592 1.363 . S
C3594 C3595 1.370 . S
C3594 C3598 1.524 . S
C3595 C3587 1.503 . S
C3595 C3594 1.370 . S
C3595 C3596 1.403 . S
C3596 C3595 1.403 . S
C3596 C3597 1.404 . S
C3596 C3599 1.539 . S
C3597 C3593 1.408 . S
C3597 C3596 1.404 . S
C3597 H3609 0.930 . S
C3598 C3594 1.524 . S
C3598 H3610 0.956 . S
C3598 H3611 0.961 . S
C3598 H3612 0.961 . S
C3599 C3596 1.539 . S
C3599 H3613 0.958 . S
C3599 H3614 0.961 . S
C3599 H3615 0.960 . S
H3600 C3584 0.931 . S
H3601 C3589 0.929 . S
H3602 C3590 0.960 . S
H3603 C3590 0.962 . S
H3604 C3590 0.960 . S
H3605 C3591 0.961 . S
H3606 C3591 0.961 . S
H3607 C3591 0.961 . S
H3608 C3592 0.931 . S
H3609 C3597 0.930 . S
H3610 C3598 0.956 . S
H3611 C3598 0.961 . S
H3612 C3598 0.961 . S
H3613 C3599 0.958 . S
H3614 C3599 0.961 . S
H3615 C3599 0.960 . S
C3616 C3617 1.391 . S
C3616 C3618 1.394 . S
C3616 H3632 0.931 . S
C3617 C3616 1.391 . S
C3617 C3621 1.376 . S
C3618 C3616 1.394 . S
C3618 C3619 1.369 . S
C3618 C3622 1.531 . S
C3619 C3618 1.369 . S
C3619 C3620 1.410 . S
C3619 C3627 1.503 . S
C3620 C3619 1.410 . S
C3620 C3621 1.392 . S
C3620 C3623 1.511 . S
C3621 C3617 1.376 . S
C3621 C3620 1.392 . S
C3621 H3633 0.929 . S
C3622 C3618 1.531 . S
C3622 H3634 0.960 . S
C3622 H3635 0.962 . S
C3622 H3636 0.960 . S
C3623 C3620 1.511 . S
C3623 H3637 0.961 . S
C3623 H3638 0.961 . S
C3623 H3639 0.961 . S
C3624 C3625 1.370 . S
C3624 C3626 1.363 . S
C3624 H3640 0.931 . S
C3625 C3624 1.370 . S
C3625 C3629 1.408 . S
C3626 C3624 1.363 . S
C3626 C3627 1.370 . S
C3626 C3630 1.524 . S
C3627 C3619 1.503 . S
C3627 C3626 1.370 . S
C3627 C3628 1.403 . S
C3628 C3627 1.403 . S
C3628 C3629 1.404 . S
C3628 C3631 1.539 . S
C3629 C3625 1.408 . S
C3629 C3628 1.404 . S
C3629 H3641 0.930 . S
C3630 C3626 1.524 . S
C3630 H3642 0.956 . S
C3630 H3643 0.961 . S
C3630 H3644 0.961 . S
C3631 C3628 1.539 . S
C3631 H3645 0.958 . S
C3631 H3646 0.961 . S
C3631 H3647 0.960 . S
H3632 C3616 0.931 . S
H3633 C3621 0.929 . S
H3634 C3622 0.960 . S
H3635 C3622 0.962 . S
H3636 C3622 0.960 . S
H3637 C3623 0.961 . S
H3638 C3623 0.961 . S
H3639 C3623 0.961 . S
H3640 C3624 0.931 . S
H3641 C3629 0.930 . S
H3642 C3630 0.956 . S
H3643 C3630 0.961 . S
H3644 C3630 0.961 . S
H3645 C3631 0.958 . S
H3646 C3631 0.961 . S
H3647 C3631 0.960 . S
C3648 C3649 1.391 . S
C3648 C3650 1.394 . S
C3648 H3664 0.931 . S
C3649 C3648 1.391 . S
C3649 C3653 1.376 . S
C3650 C3648 1.394 . S
C3650 C3651 1.369 . S
C3650 C3654 1.531 . S
C3651 C3650 1.369 . S
C3651 C3652 1.410 . S
C3651 C3659 1.503 . S
C3652 C3651 1.410 . S
C3652 C3653 1.392 . S
C3652 C3655 1.511 . S
C3653 C3649 1.376 . S
C3653 C3652 1.392 . S
C3653 H3665 0.929 . S
C3654 C3650 1.531 . S
C3654 H3666 0.960 . S
C3654 H3667 0.962 . S
C3654 H3668 0.960 . S
C3655 C3652 1.511 . S
C3655 H3669 0.961 . S
C3655 H3670 0.961 . S
C3655 H3671 0.961 . S
C3656 C3657 1.370 . S
C3656 C3658 1.363 . S
C3656 H3672 0.931 . S
C3657 C3656 1.370 . S
C3657 C3661 1.408 . S
C3658 C3656 1.363 . S
C3658 C3659 1.370 . S
C3658 C3662 1.524 . S
C3659 C3651 1.503 . S
C3659 C3658 1.370 . S
C3659 C3660 1.403 . S
C3660 C3659 1.403 . S
C3660 C3661 1.404 . S
C3660 C3663 1.539 . S
C3661 C3657 1.408 . S
C3661 C3660 1.404 . S
C3661 H3673 0.930 . S
C3662 C3658 1.524 . S
C3662 H3674 0.956 . S
C3662 H3675 0.961 . S
C3662 H3676 0.961 . S
C3663 C3660 1.539 . S
C3663 H3677 0.958 . S
C3663 H3678 0.961 . S
C3663 H3679 0.960 . S
H3664 C3648 0.931 . S
H3665 C3653 0.929 . S
H3666 C3654 0.960 . S
H3667 C3654 0.962 . S
H3668 C3654 0.960 . S
H3669 C3655 0.961 . S
H3670 C3655 0.961 . S
H3671 C3655 0.961 . S
H3672 C3656 0.931 . S
H3673 C3661 0.930 . S
H3674 C3662 0.956 . S
H3675 C3662 0.961 . S
H3676 C3662 0.961 . S
H3677 C3663 0.958 . S
H3678 C3663 0.961 . S
H3679 C3663 0.960 . S
C3680 C3681 1.391 . S
C3680 C3682 1.394 . S
C3680 H3696 0.931 . S
C3681 C3680 1.391 . S
C3681 C3685 1.376 . S
C3682 C3680 1.394 . S
C3682 C3683 1.369 . S
C3682 C3686 1.531 . S
C3683 C3682 1.369 . S
C3683 C3684 1.410 . S
C3683 C3691 1.503 . S
C3684 C3683 1.410 . S
C3684 C3685 1.392 . S
C3684 C3687 1.511 . S
C3685 C3681 1.376 . S
C3685 C3684 1.392 . S
C3685 H3697 0.929 . S
C3686 C3682 1.531 . S
C3686 H3698 0.960 . S
C3686 H3699 0.962 . S
C3686 H3700 0.960 . S
C3687 C3684 1.511 . S
C3687 H3701 0.961 . S
C3687 H3702 0.961 . S
C3687 H3703 0.961 . S
C3688 C3689 1.370 . S
C3688 C3690 1.363 . S
C3688 H3704 0.931 . S
C3689 C3688 1.370 . S
C3689 C3693 1.408 . S
C3690 C3688 1.363 . S
C3690 C3691 1.370 . S
C3690 C3694 1.524 . S
C3691 C3683 1.503 . S
C3691 C3690 1.370 . S
C3691 C3692 1.403 . S
C3692 C3691 1.403 . S
C3692 C3693 1.404 . S
C3692 C3695 1.539 . S
C3693 C3689 1.408 . S
C3693 C3692 1.404 . S
C3693 H3705 0.930 . S
C3694 C3690 1.524 . S
C3694 H3706 0.956 . S
C3694 H3707 0.961 . S
C3694 H3708 0.961 . S
C3695 C3692 1.539 . S
C3695 H3709 0.958 . S
C3695 H3710 0.961 . S
C3695 H3711 0.960 . S
H3696 C3680 0.931 . S
H3697 C3685 0.929 . S
H3698 C3686 0.960 . S
H3699 C3686 0.962 . S
H3700 C3686 0.960 . S
H3701 C3687 0.961 . S
H3702 C3687 0.961 . S
H3703 C3687 0.961 . S
H3704 C3688 0.931 . S
H3705 C3693 0.930 . S
H3706 C3694 0.956 . S
H3707 C3694 0.961 . S
H3708 C3694 0.961 . S
H3709 C3695 0.958 . S
H3710 C3695 0.961 . S
H3711 C3695 0.960 . S
C3712 C3713 1.391 . S
C3712 C3714 1.394 . S
C3712 H3728 0.931 . S
C3713 C3712 1.391 . S
C3713 C3717 1.376 . S
C3714 C3712 1.394 . S
C3714 C3715 1.369 . S
C3714 C3718 1.531 . S
C3715 C3714 1.369 . S
C3715 C3716 1.410 . S
C3715 C3723 1.503 . S
C3716 C3715 1.410 . S
C3716 C3717 1.392 . S
C3716 C3719 1.511 . S
C3717 C3713 1.376 . S
C3717 C3716 1.392 . S
C3717 H3729 0.929 . S
C3718 C3714 1.531 . S
C3718 H3730 0.960 . S
C3718 H3731 0.962 . S
C3718 H3732 0.960 . S
C3719 C3716 1.511 . S
C3719 H3733 0.961 . S
C3719 H3734 0.961 . S
C3719 H3735 0.961 . S
C3720 C3721 1.370 . S
C3720 C3722 1.363 . S
C3720 H3736 0.931 . S
C3721 C3720 1.370 . S
C3721 C3725 1.408 . S
C3722 C3720 1.363 . S
C3722 C3723 1.370 . S
C3722 C3726 1.524 . S
C3723 C3715 1.503 . S
C3723 C3722 1.370 . S
C3723 C3724 1.403 . S
C3724 C3723 1.403 . S
C3724 C3725 1.404 . S
C3724 C3727 1.539 . S
C3725 C3721 1.408 . S
C3725 C3724 1.404 . S
C3725 H3737 0.930 . S
C3726 C3722 1.524 . S
C3726 H3738 0.956 . S
C3726 H3739 0.961 . S
C3726 H3740 0.961 . S
C3727 C3724 1.539 . S
C3727 H3741 0.958 . S
C3727 H3742 0.961 . S
C3727 H3743 0.960 . S
H3728 C3712 0.931 . S
H3729 C3717 0.929 . S
H3730 C3718 0.960 . S
H3731 C3718 0.962 . S
H3732 C3718 0.960 . S
H3733 C3719 0.961 . S
H3734 C3719 0.961 . S
H3735 C3719 0.961 . S
H3736 C3720 0.931 . S
H3737 C3725 0.930 . S
H3738 C3726 0.956 . S
H3739 C3726 0.961 . S
H3740 C3726 0.961 . S
H3741 C3727 0.958 . S
H3742 C3727 0.961 . S
H3743 C3727 0.960 . S
C673 C445 1.379 . S
C681 C11 1.373 . S
C705 C25 1.376 . S
C713 C403 1.375 . S
C737 C39 1.379 . S
C745 C417 1.373 . S
C769 C431 1.368 . S
C777 C53 1.378 . S
C801 C361 1.379 . S
C809 C67 1.373 . S
C833 C81 1.379 . S
C841 C375 1.373 . S
C865 C389 1.366 . S
C873 C95 1.379 . S
C897 C109 1.367 . S
C905 C347 1.378 . S
C929 C123 1.377 . S
C937 C627 1.374 . S
C961 C585 1.379 . S
C969 C137 1.373 . S
C993 C599 1.375 . S
C1001 C151 1.374 . S
C1025 C165 1.369 . S
C1033 C613 1.377 . S
C1057 C179 1.379 . S
C1065 C669 1.373 . S
C1089 C193 1.378 . S
C1097 C641 1.374 . S
C1121 C207 1.368 . S
C1129 C655 1.378 . S
C1153 C571 1.369 . S
C1161 C221 1.377 . S
C1185 C557 1.375 . S
C1193 C235 1.375 . S
C1217 C249 1.379 . S
C1225 C473 1.373 . S
C1249 C487 1.375 . S
C1257 C263 1.375 . S
C1281 C277 1.374 . S
C1289 C501 1.375 . S
C1313 C459 1.369 . S
C1321 C291 1.378 . S
C1345 C529 1.379 . S
C1353 C305 1.373 . S
C1377 C319 1.377 . S
C1385 C543 1.374 . S
C1409 C515 1.379 . S
C1417 C333 1.373 . S
C1441 C135 1.307 . S
C1449 C9 1.299 . S
C1473 C149 1.280 . S
C1481 C23 1.289 . S
C1505 C37 1.277 . S
C1513 C163 1.290 . S
C1537 C121 1.290 . S
C1545 C51 1.299 . S
C1569 C65 1.278 . S
C1577 C219 1.292 . S
C1601 C177 1.296 . S
C1609 C79 1.293 . S
C1633 C191 1.281 . S
C1641 C93 1.289 . S
C1665 C205 1.295 . S
C1673 C107 1.292 . S
C1697 C261 1.283 . S
C1705 C233 1.289 . S
C1729 C317 1.298 . S
C1737 C247 1.294 . S
C1761 C331 1.286 . S
C1769 C275 1.290 . S
C1793 C289 1.282 . S
C1801 C303 1.295 . S
C1825 C471 1.279 . S
C1833 C345 1.289 . S
C1857 C485 1.285 . S
C1865 C359 1.297 . S
C1889 C499 1.306 . S
C1897 C373 1.299 . S
C1921 C387 1.306 . S
C1929 C457 1.298 . S
C1953 C401 1.279 . S
C1961 C555 1.293 . S
C1985 C415 1.285 . S
C1993 C513 1.290 . S
C2017 C527 1.278 . S
C2025 C429 1.292 . S
C2049 C541 1.287 . S
C2057 C443 1.290 . S
C2081 C569 1.298 . S
C2089 C597 1.294 . S
C2113 C653 1.278 . S
C2121 C583 1.290 . S
C2145 C667 1.291 . S
C2153 C611 1.291 . S
C2177 C639 1.292 . S
C2185 C625 1.300 . S
C2209 C0 1.431 . S
C2217 C257 1.430 . S
C2241 C14 1.434 . S
C2249 C271 1.426 . S
C2273 C28 1.431 . S
C2281 C285 1.430 . S
C2305 C243 1.433 . S
C2313 C42 1.427 . S
C2337 C56 1.419 . S
C2345 C313 1.419 . S
C2369 C70 1.421 . S
C2377 C229 1.419 . S
C2401 C327 1.428 . S
C2409 C84 1.425 . S
C2433 C299 1.433 . S
C2441 C98 1.427 . S
C2465 C112 1.421 . S
C2473 C131 1.419 . S
C2497 C126 1.425 . S
C2505 C145 1.430 . S
C2529 C140 1.428 . S
C2537 C159 1.430 . S
C2561 C117 1.414 . S
C2569 C154 1.430 . S
C2593 C215 1.427 . S
C2601 C168 1.432 . S
C2625 C173 1.432 . S
C2633 C182 1.426 . S
C2657 C187 1.419 . S
C2665 C196 1.431 . S
C2689 C210 1.416 . S
C2697 C201 1.420 . S
C2721 C47 1.433 . S
C2729 C224 1.431 . S
C2753 C75 1.414 . S
C2761 C238 1.423 . S
C2785 C89 1.412 . S
C2793 C252 1.429 . S
C2817 C266 1.413 . S
C2825 C103 1.424 . S
C2849 C61 1.412 . S
C2857 C280 1.429 . S
C2881 C19 1.434 . S
C2889 C294 1.430 . S
C2913 C33 1.412 . S
C2921 C308 1.429 . S
C2945 C5 1.413 . S
C2953 C322 1.430 . S
C2977 C593 1.433 . S
C2985 C336 1.431 . S
C3009 C350 1.424 . S
C3017 C607 1.430 . S
C3041 C621 1.409 . S
C3049 C364 1.424 . S
C3073 C579 1.409 . S
C3081 C378 1.424 . S
C3105 C392 1.423 . S
C3113 C649 1.430 . S
C3137 C406 1.416 . S
C3145 C565 1.427 . S
C3169 C663 1.418 . S
C3177 C420 1.431 . S
C3201 C434 1.417 . S
C3209 C635 1.427 . S
C3233 C448 1.420 . S
C3241 C467 1.419 . S
C3265 C462 1.415 . S
C3273 C481 1.426 . S
C3297 C476 1.421 . S
C3305 C495 1.429 . S
C3329 C490 1.417 . S
C3337 C453 1.420 . S
C3361 C551 1.434 . S
C3369 C504 1.429 . S
C3393 C509 1.434 . S
C3401 C518 1.430 . S
C3425 C523 1.410 . S
C3433 C532 1.424 . S
C3457 C546 1.427 . S
C3465 C537 1.430 . S
C3489 C383 1.415 . S
C3497 C560 1.423 . S
C3521 C411 1.420 . S
C3529 C574 1.423 . S
C3553 C425 1.427 . S
C3561 C588 1.425 . S
C3585 C602 1.431 . S
C3593 C439 1.422 . S
C3617 C397 1.426 . S
C3625 C616 1.424 . S
C3649 C355 1.410 . S
C3657 C630 1.424 . S
C3681 C644 1.433 . S
C3689 C369 1.424 . S
C3713 C341 1.429 . S
C3721 C658 1.425 . S
