# Generated by pormake.
# Topology ukc, (4)-cn, num edge types: 1
# Building blocks:
#     Node 0, Type 0, BuildingBlock: QUQFOY_clean_sbu_1, # of connection points: 4
#     Node 1, Type 0, BuildingBlock: QUQFOY_clean_sbu_1, # of connection points: 4
#     Node 2, Type 0, BuildingBlock: QUQFOY_clean_sbu_1, # of connection points: 4
#     Node 3, Type 0, BuildingBlock: QUQFOY_clean_sbu_1, # of connection points: 4
#     Node 4, Type 0, BuildingBlock: QUQFOY_clean_sbu_1, # of connection points: 4
#     Node 5, Type 0, BuildingBlock: QUQFOY_clean_sbu_1, # of connection points: 4
#     Node 6, Type 0, BuildingBlock: QUQFOY_clean_sbu_1, # of connection points: 4
#     Node 7, Type 0, BuildingBlock: QUQFOY_clean_sbu_1, # of connection points: 4
#     Node 8, Type 0, BuildingBlock: QUQFOY_clean_sbu_1, # of connection points: 4
#     Node 9, Type 0, BuildingBlock: QUQFOY_clean_sbu_1, # of connection points: 4
#     Node 10, Type 0, BuildingBlock: QUQFOY_clean_sbu_1, # of connection points: 4
#     Node 11, Type 0, BuildingBlock: QUQFOY_clean_sbu_1, # of connection points: 4
#     Node 12, Type 0, BuildingBlock: QUQFOY_clean_sbu_1, # of connection points: 4
#     Node 13, Type 0, BuildingBlock: QUQFOY_clean_sbu_1, # of connection points: 4
#     Node 14, Type 0, BuildingBlock: QUQFOY_clean_sbu_1, # of connection points: 4
#     Node 15, Type 0, BuildingBlock: QUQFOY_clean_sbu_1, # of connection points: 4
#     Node 16, Type 0, BuildingBlock: QUQFOY_clean_sbu_1, # of connection points: 4
#     Node 17, Type 0, BuildingBlock: QUQFOY_clean_sbu_1, # of connection points: 4
#     Node 18, Type 0, BuildingBlock: QUQFOY_clean_sbu_1, # of connection points: 4
#     Node 19, Type 0, BuildingBlock: QUQFOY_clean_sbu_1, # of connection points: 4
#     Node 20, Type 0, BuildingBlock: QUQFOY_clean_sbu_1, # of connection points: 4
#     Node 21, Type 0, BuildingBlock: QUQFOY_clean_sbu_1, # of connection points: 4
#     Node 22, Type 0, BuildingBlock: QUQFOY_clean_sbu_1, # of connection points: 4
#     Node 23, Type 0, BuildingBlock: QUQFOY_clean_sbu_1, # of connection points: 4
#     Node 24, Type 0, BuildingBlock: QUQFOY_clean_sbu_1, # of connection points: 4
#     Node 25, Type 0, BuildingBlock: QUQFOY_clean_sbu_1, # of connection points: 4
#     Node 26, Type 0, BuildingBlock: QUQFOY_clean_sbu_1, # of connection points: 4
#     Node 27, Type 0, BuildingBlock: QUQFOY_clean_sbu_1, # of connection points: 4
#     Node 28, Type 0, BuildingBlock: QUQFOY_clean_sbu_1, # of connection points: 4
#     Node 29, Type 0, BuildingBlock: QUQFOY_clean_sbu_1, # of connection points: 4
#     Node 30, Type 0, BuildingBlock: QUQFOY_clean_sbu_1, # of connection points: 4
#     Node 31, Type 0, BuildingBlock: QUQFOY_clean_sbu_1, # of connection points: 4
#     Edge 32, Type (0, 0), BuildingBlock: MIFKUJ_clean_linker_0, # of connection points: 2
#     Edge 33, Type (0, 0), BuildingBlock: MIFKUJ_clean_linker_0, # of connection points: 2
#     Edge 34, Type (0, 0), BuildingBlock: MIFKUJ_clean_linker_0, # of connection points: 2
#     Edge 35, Type (0, 0), BuildingBlock: MIFKUJ_clean_linker_0, # of connection points: 2
#     Edge 36, Type (0, 0), BuildingBlock: MIFKUJ_clean_linker_0, # of connection points: 2
#     Edge 37, Type (0, 0), BuildingBlock: MIFKUJ_clean_linker_0, # of connection points: 2
#     Edge 38, Type (0, 0), BuildingBlock: MIFKUJ_clean_linker_0, # of connection points: 2
#     Edge 39, Type (0, 0), BuildingBlock: MIFKUJ_clean_linker_0, # of connection points: 2
#     Edge 40, Type (0, 0), BuildingBlock: MIFKUJ_clean_linker_0, # of connection points: 2
#     Edge 41, Type (0, 0), BuildingBlock: MIFKUJ_clean_linker_0, # of connection points: 2
#     Edge 42, Type (0, 0), BuildingBlock: MIFKUJ_clean_linker_0, # of connection points: 2
#     Edge 43, Type (0, 0), BuildingBlock: MIFKUJ_clean_linker_0, # of connection points: 2
#     Edge 44, Type (0, 0), BuildingBlock: MIFKUJ_clean_linker_0, # of connection points: 2
#     Edge 45, Type (0, 0), BuildingBlock: MIFKUJ_clean_linker_0, # of connection points: 2
#     Edge 46, Type (0, 0), BuildingBlock: MIFKUJ_clean_linker_0, # of connection points: 2
#     Edge 47, Type (0, 0), BuildingBlock: MIFKUJ_clean_linker_0, # of connection points: 2
#     Edge 48, Type (0, 0), BuildingBlock: MIFKUJ_clean_linker_0, # of connection points: 2
#     Edge 49, Type (0, 0), BuildingBlock: MIFKUJ_clean_linker_0, # of connection points: 2
#     Edge 50, Type (0, 0), BuildingBlock: MIFKUJ_clean_linker_0, # of connection points: 2
#     Edge 51, Type (0, 0), BuildingBlock: MIFKUJ_clean_linker_0, # of connection points: 2
#     Edge 52, Type (0, 0), BuildingBlock: MIFKUJ_clean_linker_0, # of connection points: 2
#     Edge 53, Type (0, 0), BuildingBlock: MIFKUJ_clean_linker_0, # of connection points: 2
#     Edge 54, Type (0, 0), BuildingBlock: MIFKUJ_clean_linker_0, # of connection points: 2
#     Edge 55, Type (0, 0), BuildingBlock: MIFKUJ_clean_linker_0, # of connection points: 2
#     Edge 56, Type (0, 0), BuildingBlock: MIFKUJ_clean_linker_0, # of connection points: 2
#     Edge 57, Type (0, 0), BuildingBlock: MIFKUJ_clean_linker_0, # of connection points: 2
#     Edge 58, Type (0, 0), BuildingBlock: MIFKUJ_clean_linker_0, # of connection points: 2
#     Edge 59, Type (0, 0), BuildingBlock: MIFKUJ_clean_linker_0, # of connection points: 2
#     Edge 60, Type (0, 0), BuildingBlock: MIFKUJ_clean_linker_0, # of connection points: 2
#     Edge 61, Type (0, 0), BuildingBlock: MIFKUJ_clean_linker_0, # of connection points: 2
#     Edge 62, Type (0, 0), BuildingBlock: MIFKUJ_clean_linker_0, # of connection points: 2
#     Edge 63, Type (0, 0), BuildingBlock: MIFKUJ_clean_linker_0, # of connection points: 2
#     Edge 64, Type (0, 0), BuildingBlock: MIFKUJ_clean_linker_0, # of connection points: 2
#     Edge 65, Type (0, 0), BuildingBlock: MIFKUJ_clean_linker_0, # of connection points: 2
#     Edge 66, Type (0, 0), BuildingBlock: MIFKUJ_clean_linker_0, # of connection points: 2
#     Edge 67, Type (0, 0), BuildingBlock: MIFKUJ_clean_linker_0, # of connection points: 2
#     Edge 68, Type (0, 0), BuildingBlock: MIFKUJ_clean_linker_0, # of connection points: 2
#     Edge 69, Type (0, 0), BuildingBlock: MIFKUJ_clean_linker_0, # of connection points: 2
#     Edge 70, Type (0, 0), BuildingBlock: MIFKUJ_clean_linker_0, # of connection points: 2
#     Edge 71, Type (0, 0), BuildingBlock: MIFKUJ_clean_linker_0, # of connection points: 2
#     Edge 72, Type (0, 0), BuildingBlock: MIFKUJ_clean_linker_0, # of connection points: 2
#     Edge 73, Type (0, 0), BuildingBlock: MIFKUJ_clean_linker_0, # of connection points: 2
#     Edge 74, Type (0, 0), BuildingBlock: MIFKUJ_clean_linker_0, # of connection points: 2
#     Edge 75, Type (0, 0), BuildingBlock: MIFKUJ_clean_linker_0, # of connection points: 2
#     Edge 76, Type (0, 0), BuildingBlock: MIFKUJ_clean_linker_0, # of connection points: 2
#     Edge 77, Type (0, 0), BuildingBlock: MIFKUJ_clean_linker_0, # of connection points: 2
#     Edge 78, Type (0, 0), BuildingBlock: MIFKUJ_clean_linker_0, # of connection points: 2
#     Edge 79, Type (0, 0), BuildingBlock: MIFKUJ_clean_linker_0, # of connection points: 2
#     Edge 80, Type (0, 0), BuildingBlock: MIFKUJ_clean_linker_0, # of connection points: 2
#     Edge 81, Type (0, 0), BuildingBlock: MIFKUJ_clean_linker_0, # of connection points: 2
#     Edge 82, Type (0, 0), BuildingBlock: MIFKUJ_clean_linker_0, # of connection points: 2
#     Edge 83, Type (0, 0), BuildingBlock: MIFKUJ_clean_linker_0, # of connection points: 2
#     Edge 84, Type (0, 0), BuildingBlock: MIFKUJ_clean_linker_0, # of connection points: 2
#     Edge 85, Type (0, 0), BuildingBlock: MIFKUJ_clean_linker_0, # of connection points: 2
#     Edge 86, Type (0, 0), BuildingBlock: MIFKUJ_clean_linker_0, # of connection points: 2
#     Edge 87, Type (0, 0), BuildingBlock: MIFKUJ_clean_linker_0, # of connection points: 2
#     Edge 88, Type (0, 0), BuildingBlock: MIFKUJ_clean_linker_0, # of connection points: 2
#     Edge 89, Type (0, 0), BuildingBlock: MIFKUJ_clean_linker_0, # of connection points: 2
#     Edge 90, Type (0, 0), BuildingBlock: MIFKUJ_clean_linker_0, # of connection points: 2
#     Edge 91, Type (0, 0), BuildingBlock: MIFKUJ_clean_linker_0, # of connection points: 2
#     Edge 92, Type (0, 0), BuildingBlock: MIFKUJ_clean_linker_0, # of connection points: 2
#     Edge 93, Type (0, 0), BuildingBlock: MIFKUJ_clean_linker_0, # of connection points: 2
#     Edge 94, Type (0, 0), BuildingBlock: MIFKUJ_clean_linker_0, # of connection points: 2
#     Edge 95, Type (0, 0), BuildingBlock: MIFKUJ_clean_linker_0, # of connection points: 2
# Relax obj value: 0.070
# Max RMSD: 0.148
# Mean RMSD: 0.148
data_MOF--net-ukc--node1-QUQFOY_clean_sbu_1--edge1-MIFKUJ_clean_linker_0
_symmetry_space_group_name_H-M    P1
_symmetry_Int_Tables_number       1
_symmetry_cell_setting            triclinic
loop_
_symmetry_equiv_pos_as_xyz
'x, y, z'
_cell_length_a     63.056273
_cell_length_b     63.034676
_cell_length_c     108.8714
_cell_angle_alpha  90.014308
_cell_angle_beta   90.009474
_cell_angle_gamma 89.996985
loop_
_atom_site_label
_atom_site_type_symbol
_atom_site_fract_x
_atom_site_fract_y
_atom_site_fract_z
_atom_type_partial_charge
O0 O 0.11332 0.37015 0.05312 0.0
Cd1 Cd 0.11168 0.36431 0.03454 0.0
Cd2 Cd 0.07384 0.38938 0.03836 0.0
O3 O 0.08583 0.39125 0.05605 0.0
O4 O 0.13966 0.35027 0.03185 0.0
O5 O 0.1307 0.38014 0.02264 0.0
C6 C 0.14473 0.36563 0.02465 0.0
C7 C 0.058 0.41954 0.02966 0.0
C8 C 0.10193 0.38143 0.0602 0.0
C9 C 0.0695 0.34381 0.02919 0.0
O10 O 0.06077 0.36085 0.03288 0.0
O11 O 0.0896 0.34222 0.02874 0.0
O12 O 0.04897 0.409 0.03833 0.0
O13 O 0.0765 0.41328 0.02606 0.0
O14 O 0.88744 0.86596 0.30285 0.0
Cd15 Cd 0.891 0.86345 0.28409 0.0
Cd16 Cd 0.86545 0.82695 0.28861 0.0
O17 O 0.86437 0.84016 0.30603 0.0
O18 O 0.90486 0.89077 0.27949 0.0
O19 O 0.87281 0.88193 0.27312 0.0
C20 C 0.88802 0.89565 0.27343 0.0
C21 C 0.83484 0.8111 0.28046 0.0
C22 C 0.87546 0.85554 0.31004 0.0
C23 C 0.91013 0.82069 0.27876 0.0
O24 O 0.89335 0.81256 0.2832 0.0
O25 O 0.91189 0.84071 0.2777 0.0
O26 O 0.8453 0.80255 0.28933 0.0
O27 O 0.84136 0.82922 0.2764 0.0
O28 O 0.38953 0.63748 0.55394 0.0
Cd29 Cd 0.39069 0.64425 0.53545 0.0
Cd30 Cd 0.428 0.61794 0.53813 0.0
O31 O 0.41667 0.61562 0.55593 0.0
O32 O 0.36254 0.65806 0.53297 0.0
O33 O 0.37173 0.62845 0.52352 0.0
C34 C 0.35754 0.64274 0.52571 0.0
C35 C 0.4439 0.58786 0.52934 0.0
C36 C 0.401 0.62548 0.56056 0.0
C37 C 0.43296 0.66392 0.5296 0.0
O38 O 0.44131 0.64636 0.53272 0.0
O39 O 0.41292 0.66628 0.52971 0.0
O40 O 0.45293 0.59842 0.53801 0.0
O41 O 0.42537 0.59407 0.52578 0.0
O42 O 0.61447 0.13944 0.80243 0.0
Cd43 Cd 0.6109 0.14202 0.78369 0.0
Cd44 Cd 0.63685 0.1782 0.78822 0.0
O45 O 0.63741 0.16529 0.80573 0.0
O46 O 0.59695 0.11476 0.77908 0.0
O47 O 0.62907 0.12343 0.77276 0.0
C48 C 0.61382 0.10976 0.77309 0.0
C49 C 0.66788 0.19328 0.78014 0.0
C50 C 0.6263 0.14989 0.80969 0.0
C51 C 0.59229 0.1849 0.77821 0.0
O52 O 0.60926 0.19285 0.78251 0.0
O53 O 0.59012 0.1649 0.77735 0.0
O54 O 0.65742 0.20225 0.78887 0.0
O55 O 0.6611 0.17519 0.77618 0.0
O56 O 0.11373 0.63394 0.44742 0.0
Cd57 Cd 0.11252 0.64124 0.46588 0.0
Cd58 Cd 0.07352 0.61718 0.46304 0.0
O59 O 0.08414 0.61556 0.44508 0.0
O60 O 0.14072 0.65498 0.46834 0.0
O61 O 0.13142 0.62562 0.47794 0.0
C62 C 0.14562 0.6399 0.47579 0.0
C63 C 0.05743 0.58709 0.47168 0.0
C64 C 0.10093 0.62368 0.44063 0.0
C65 C 0.07087 0.6629 0.47188 0.0
O66 O 0.06147 0.64579 0.46895 0.0
O67 O 0.091 0.66418 0.47146 0.0
O68 O 0.04813 0.59825 0.46337 0.0
O69 O 0.07629 0.59272 0.47498 0.0
O70 O 0.61508 0.86744 0.69706 0.0
Cd71 Cd 0.61108 0.86461 0.71576 0.0
Cd72 Cd 0.63671 0.82808 0.71123 0.0
O73 O 0.63749 0.84112 0.69374 0.0
O74 O 0.59742 0.89198 0.72044 0.0
O75 O 0.62926 0.88267 0.72695 0.0
C76 C 0.61422 0.89657 0.72662 0.0
C77 C 0.66752 0.81261 0.71936 0.0
C78 C 0.62677 0.85682 0.6898 0.0
C79 C 0.59198 0.82184 0.72108 0.0
O80 O 0.60896 0.8137 0.7169 0.0
O81 O 0.58995 0.84186 0.72186 0.0
O82 O 0.65707 0.80384 0.71056 0.0
O83 O 0.66088 0.83074 0.72335 0.0
O84 O 0.38878 0.36779 0.94669 0.0
Cd85 Cd 0.3901 0.3619 0.96529 0.0
Cd86 Cd 0.42753 0.3877 0.96198 0.0
O87 O 0.41567 0.38984 0.94429 0.0
O88 O 0.36225 0.34763 0.96802 0.0
O89 O 0.37073 0.37793 0.97691 0.0
C90 C 0.35688 0.36319 0.97501 0.0
C91 C 0.44342 0.41778 0.97075 0.0
C92 C 0.4 0.37967 0.93987 0.0
C93 C 0.43244 0.34209 0.97096 0.0
O94 O 0.44093 0.35928 0.96733 0.0
O95 O 0.41236 0.34018 0.97132 0.0
O96 O 0.4524 0.40731 0.96204 0.0
O97 O 0.42493 0.41152 0.97435 0.0
O98 O 0.88963 0.13906 0.1985 0.0
Cd99 Cd 0.89289 0.14168 0.21729 0.0
Cd100 Cd 0.86764 0.17813 0.21247 0.0
O101 O 0.86677 0.16493 0.19506 0.0
O102 O 0.90668 0.11435 0.22192 0.0
O103 O 0.87448 0.12308 0.22807 0.0
C104 C 0.88968 0.10935 0.2278 0.0
C105 C 0.83696 0.19361 0.2207 0.0
C106 C 0.87784 0.14944 0.19118 0.0
C107 C 0.91205 0.18442 0.22262 0.0
O108 O 0.89545 0.19254 0.21797 0.0
O109 O 0.9137 0.16442 0.22382 0.0
O110 O 0.84727 0.20234 0.21183 0.0
O111 O 0.84366 0.17551 0.2247 0.0
O112 O 0.88859 0.6399 0.94733 0.0
Cd113 Cd 0.89108 0.64472 0.96598 0.0
Cd114 Cd 0.92783 0.61896 0.9615 0.0
O115 O 0.91499 0.61762 0.94398 0.0
O116 O 0.86341 0.65877 0.96958 0.0
O117 O 0.87254 0.62805 0.97774 0.0
C118 C 0.85855 0.64284 0.97642 0.0
C119 C 0.94315 0.58832 0.96996 0.0
C120 C 0.89922 0.62824 0.94006 0.0
C121 C 0.93382 0.66408 0.97103 0.0
O122 O 0.94196 0.64702 0.96694 0.0
O123 O 0.9138 0.66607 0.97188 0.0
O124 O 0.95212 0.59863 0.96116 0.0
O125 O 0.92496 0.59507 0.97379 0.0
O126 O 0.119 0.13714 0.69739 0.0
Cd127 Cd 0.11217 0.13843 0.71588 0.0
Cd128 Cd 0.13827 0.17626 0.71288 0.0
O129 O 0.1401 0.16482 0.69506 0.0
O130 O 0.09785 0.11051 0.71833 0.0
O131 O 0.12757 0.11911 0.7278 0.0
C132 C 0.11301 0.10519 0.72562 0.0
C133 C 0.16844 0.19242 0.72142 0.0
C134 C 0.13052 0.14882 0.69061 0.0
C135 C 0.09242 0.18084 0.72169 0.0
O136 O 0.10989 0.18932 0.71854 0.0
O137 O 0.09018 0.16078 0.72156 0.0
O138 O 0.1576 0.20137 0.71285 0.0
O139 O 0.16249 0.17382 0.72502 0.0
O140 O 0.61461 0.36827 0.44684 0.0
Cd141 Cd 0.61282 0.36396 0.46559 0.0
Cd142 Cd 0.57551 0.38895 0.4619 0.0
O143 O 0.58744 0.38993 0.44419 0.0
O144 O 0.64038 0.35017 0.46975 0.0
O145 O 0.63155 0.382 0.47652 0.0
C146 C 0.64534 0.36687 0.47592 0.0
C147 C 0.56008 0.41965 0.47018 0.0
C148 C 0.60317 0.37971 0.43987 0.0
C149 C 0.5705 0.34412 0.47163 0.0
O150 O 0.56179 0.36098 0.4677 0.0
O151 O 0.5906 0.34252 0.47203 0.0
O152 O 0.55099 0.40896 0.46158 0.0
O153 O 0.57844 0.41324 0.47392 0.0
O154 O 0.38812 0.86327 0.1981 0.0
Cd155 Cd 0.39295 0.86134 0.2168 0.0
Cd156 Cd 0.36751 0.82427 0.21274 0.0
O157 O 0.36628 0.83639 0.19507 0.0
O158 O 0.40676 0.88918 0.22028 0.0
O159 O 0.37601 0.88 0.22835 0.0
C160 C 0.39074 0.89406 0.22704 0.0
C161 C 0.33691 0.809 0.22121 0.0
C162 C 0.37665 0.85218 0.19096 0.0
C163 C 0.41254 0.81886 0.22241 0.0
O164 O 0.39555 0.81047 0.21841 0.0
O165 O 0.41442 0.83893 0.22298 0.0
O166 O 0.34741 0.79981 0.21258 0.0
O167 O 0.34344 0.82737 0.22488 0.0
O168 O 0.8875 0.36575 0.55279 0.0
Cd169 Cd 0.89004 0.36156 0.53408 0.0
Cd170 Cd 0.92726 0.38616 0.53851 0.0
O171 O 0.91468 0.3871 0.5561 0.0
O172 O 0.86238 0.34825 0.52962 0.0
O173 O 0.87209 0.37977 0.52282 0.0
C174 C 0.85797 0.36495 0.52331 0.0
C175 C 0.94285 0.41682 0.53029 0.0
C176 C 0.89864 0.37693 0.56005 0.0
C177 C 0.93232 0.34132 0.52865 0.0
O178 O 0.94096 0.3581 0.53276 0.0
O179 O 0.91224 0.33985 0.52794 0.0
O180 O 0.95184 0.40612 0.53891 0.0
O181 O 0.92449 0.41047 0.52651 0.0
O182 O 0.38132 0.14052 0.30394 0.0
Cd183 Cd 0.38975 0.14004 0.28563 0.0
Cd184 Cd 0.3668 0.18027 0.28717 0.0
O185 O 0.3646 0.17124 0.30539 0.0
O186 O 0.40264 0.11119 0.28442 0.0
O187 O 0.37455 0.12064 0.27363 0.0
C188 C 0.38807 0.10617 0.27667 0.0
C189 C 0.33735 0.19706 0.27822 0.0
C190 C 0.37162 0.15434 0.31031 0.0
C191 C 0.41288 0.18048 0.27874 0.0
O192 O 0.39589 0.19061 0.28099 0.0
O193 O 0.41366 0.16041 0.27997 0.0
O194 O 0.34908 0.20648 0.28622 0.0
O195 O 0.34209 0.17774 0.27538 0.0
O196 O 0.61513 0.63284 0.05529 0.0
Cd197 Cd 0.61395 0.64056 0.03689 0.0
Cd198 Cd 0.57545 0.61532 0.03965 0.0
O199 O 0.58627 0.61334 0.05755 0.0
O200 O 0.64203 0.65471 0.03479 0.0
O201 O 0.63325 0.62558 0.02476 0.0
C202 C 0.64727 0.63988 0.02726 0.0
C203 C 0.55934 0.58536 0.03087 0.0
C204 C 0.6028 0.62193 0.06202 0.0
C205 C 0.57188 0.66127 0.03102 0.0
O206 O 0.563 0.64389 0.03396 0.0
O207 O 0.59197 0.66312 0.03135 0.0
O208 O 0.55018 0.59625 0.03934 0.0
O209 O 0.57811 0.59115 0.0275 0.0
O210 O 0.12014 0.86278 0.80504 0.0
Cd211 Cd 0.1126 0.86091 0.78662 0.0
Cd212 Cd 0.1382 0.82307 0.78954 0.0
O213 O 0.14034 0.8344 0.80731 0.0
O214 O 0.09857 0.8889 0.78388 0.0
O215 O 0.12795 0.87949 0.7743 0.0
C216 C 0.11359 0.89366 0.77636 0.0
C217 C 0.16826 0.80737 0.78062 0.0
C218 C 0.13142 0.85077 0.81177 0.0
C219 C 0.09227 0.81845 0.78125 0.0
O220 O 0.10976 0.80986 0.78426 0.0
O221 O 0.09025 0.83854 0.78129 0.0
O222 O 0.1579 0.79826 0.78933 0.0
O223 O 0.16186 0.82586 0.77708 0.0
O224 O 0.6147 0.87027 0.55295 0.0
Cd225 Cd 0.61352 0.86371 0.53441 0.0
Cd226 Cd 0.57588 0.88968 0.53749 0.0
O227 O 0.58766 0.89219 0.55519 0.0
O228 O 0.64142 0.8493 0.53208 0.0
O229 O 0.63309 0.87911 0.52261 0.0
C230 C 0.64691 0.8645 0.52486 0.0
C231 C 0.55983 0.91955 0.52856 0.0
C232 C 0.60338 0.88222 0.55968 0.0
C233 C 0.57113 0.84377 0.52889 0.0
O234 O 0.56263 0.86107 0.53234 0.0
O235 O 0.59121 0.84182 0.52859 0.0
O236 O 0.55093 0.9092 0.53735 0.0
O237 O 0.57831 0.91327 0.52496 0.0
O238 O 0.38699 0.36611 0.80248 0.0
Cd239 Cd 0.39123 0.36364 0.78378 0.0
Cd240 Cd 0.36681 0.32612 0.78823 0.0
O241 O 0.36569 0.33888 0.80577 0.0
O242 O 0.40481 0.39125 0.77948 0.0
O243 O 0.37324 0.38194 0.77258 0.0
C244 C 0.38818 0.39592 0.77318 0.0
C245 C 0.3363 0.31021 0.78002 0.0
C246 C 0.37579 0.35497 0.80973 0.0
C247 C 0.41165 0.32138 0.77837 0.0
O248 O 0.39499 0.31262 0.78254 0.0
O249 O 0.41293 0.34147 0.77761 0.0
O250 O 0.34701 0.30142 0.78871 0.0
O251 O 0.34257 0.32855 0.77615 0.0
O252 O 0.8896 0.13675 0.05433 0.0
Cd253 Cd 0.89067 0.14334 0.03581 0.0
Cd254 Cd 0.92826 0.11708 0.0386 0.0
O255 O 0.91683 0.115 0.0564 0.0
O256 O 0.86274 0.15757 0.0333 0.0
O257 O 0.87137 0.12767 0.02401 0.0
C258 C 0.85745 0.14226 0.0261 0.0
C259 C 0.94445 0.08699 0.02999 0.0
C260 C 0.90113 0.12488 0.06099 0.0
C261 C 0.93297 0.16297 0.02984 0.0
O262 O 0.94142 0.1455 0.03304 0.0
O263 O 0.91293 0.16523 0.02996 0.0
O264 O 0.95337 0.09778 0.0386 0.0
O265 O 0.92586 0.09296 0.02639 0.0
O266 O 0.11772 0.64047 0.30407 0.0
Cd267 Cd 0.11161 0.64258 0.28551 0.0
Cd268 Cd 0.13648 0.68042 0.28925 0.0
O269 O 0.13754 0.6689 0.30705 0.0
O270 O 0.09779 0.61469 0.28223 0.0
O271 O 0.12812 0.62402 0.2737 0.0
C272 C 0.11354 0.60988 0.27524 0.0
C273 C 0.16701 0.69581 0.28076 0.0
C274 C 0.12843 0.65236 0.31116 0.0
C275 C 0.09124 0.68481 0.2798 0.0
O276 O 0.10838 0.69356 0.28328 0.0
O277 O 0.08943 0.66471 0.27976 0.0
O278 O 0.15625 0.70514 0.28924 0.0
O279 O 0.16077 0.67724 0.27727 0.0
O280 O 0.6147 0.13643 0.94659 0.0
Cd281 Cd 0.6133 0.1431 0.9651 0.0
Cd282 Cd 0.57594 0.11688 0.96224 0.0
O283 O 0.58737 0.11486 0.94443 0.0
O284 O 0.64133 0.15698 0.96784 0.0
O285 O 0.63201 0.12728 0.97713 0.0
C286 C 0.64617 0.14169 0.97516 0.0
C287 C 0.56011 0.0867 0.97095 0.0
C288 C 0.60316 0.12465 0.93989 0.0
C289 C 0.57097 0.16277 0.97089 0.0
O290 O 0.5626 0.14523 0.96777 0.0
O291 O 0.59101 0.16511 0.97076 0.0
O292 O 0.55105 0.09729 0.96231 0.0
O293 O 0.57864 0.09291 0.97451 0.0
O294 O 0.11523 0.36675 0.19729 0.0
Cd295 Cd 0.11018 0.36518 0.21594 0.0
Cd296 Cd 0.13592 0.32783 0.21241 0.0
O297 O 0.13664 0.33942 0.19458 0.0
O298 O 0.09646 0.39306 0.21939 0.0
O299 O 0.12737 0.38394 0.2273 0.0
C300 C 0.11263 0.398 0.22602 0.0
C301 C 0.1667 0.31213 0.22044 0.0
C302 C 0.12654 0.35525 0.1903 0.0
C303 C 0.09082 0.32293 0.22223 0.0
O304 O 0.10804 0.31445 0.21866 0.0
O305 O 0.08859 0.34298 0.22218 0.0
O306 O 0.1555 0.30294 0.21211 0.0
O307 O 0.16078 0.33074 0.22405 0.0
O308 O 0.89026 0.86965 0.44717 0.0
Cd309 Cd 0.89241 0.86356 0.46572 0.0
Cd310 Cd 0.92958 0.88984 0.46189 0.0
O311 O 0.9172 0.89148 0.44429 0.0
O312 O 0.86476 0.8491 0.46881 0.0
O313 O 0.87348 0.87935 0.47768 0.0
C314 C 0.85962 0.86456 0.47594 0.0
C315 C 0.94549 0.92017 0.47038 0.0
C316 C 0.90128 0.88137 0.44014 0.0
C317 C 0.93523 0.84432 0.47096 0.0
O318 O 0.94337 0.86167 0.46732 0.0
O319 O 0.9152 0.84203 0.4714 0.0
O320 O 0.95423 0.90973 0.46156 0.0
O321 O 0.9272 0.91376 0.47422 0.0
O322 O 0.38972 0.63898 0.69819 0.0
Cd323 Cd 0.39275 0.64181 0.71697 0.0
Cd324 Cd 0.36755 0.67801 0.71206 0.0
O325 O 0.36674 0.6647 0.69466 0.0
O326 O 0.40653 0.61456 0.72177 0.0
O327 O 0.37425 0.62332 0.72776 0.0
C328 C 0.38948 0.60962 0.7276 0.0
C329 C 0.33662 0.69287 0.72037 0.0
C330 C 0.37793 0.64926 0.69083 0.0
C331 C 0.41191 0.68459 0.72216 0.0
O332 O 0.39529 0.69269 0.7175 0.0
O333 O 0.41353 0.6646 0.72341 0.0
O334 O 0.3467 0.70183 0.71148 0.0
O335 O 0.34376 0.67493 0.72436 0.0
O336 O 0.38863 0.14018 0.44736 0.0
Cd337 Cd 0.39163 0.14417 0.46608 0.0
Cd338 Cd 0.42836 0.11874 0.46128 0.0
O339 O 0.41565 0.11874 0.44375 0.0
O340 O 0.36447 0.15826 0.47076 0.0
O341 O 0.37315 0.12618 0.47717 0.0
C342 C 0.35951 0.14146 0.47684 0.0
C343 C 0.44352 0.08761 0.46917 0.0
C344 C 0.3996 0.12909 0.43996 0.0
C345 C 0.43461 0.16315 0.47149 0.0
O346 O 0.44274 0.14624 0.46722 0.0
O347 O 0.41458 0.16516 0.47226 0.0
O348 O 0.45248 0.09827 0.46052 0.0
O349 O 0.42539 0.09424 0.47315 0.0
O350 O 0.61668 0.63665 0.19878 0.0
Cd351 Cd 0.61137 0.63839 0.21745 0.0
Cd352 Cd 0.63701 0.676 0.214 0.0
O353 O 0.63754 0.66449 0.19619 0.0
O354 O 0.59735 0.61076 0.22124 0.0
O355 O 0.62881 0.61946 0.22859 0.0
C356 C 0.61376 0.60565 0.22763 0.0
C357 C 0.66769 0.69198 0.22201 0.0
C358 C 0.6278 0.64847 0.19186 0.0
C359 C 0.59199 0.68094 0.22367 0.0
O360 O 0.60919 0.68944 0.22011 0.0
O361 O 0.58985 0.66086 0.22366 0.0
O362 O 0.65657 0.7009 0.21354 0.0
O363 O 0.66177 0.67345 0.22574 0.0
O364 O 0.11792 0.86872 0.94838 0.0
Cd365 Cd 0.11542 0.86304 0.96698 0.0
Cd366 Cd 0.07791 0.88832 0.96315 0.0
O367 O 0.08985 0.88912 0.94545 0.0
O368 O 0.14303 0.84923 0.97107 0.0
O369 O 0.13357 0.88035 0.9786 0.0
C370 C 0.14759 0.86549 0.97773 0.0
C371 C 0.06201 0.91893 0.97128 0.0
C372 C 0.1062 0.87968 0.94132 0.0
C373 C 0.07288 0.84312 0.9725 0.0
O374 O 0.06437 0.86037 0.969 0.0
O375 O 0.09296 0.84111 0.97267 0.0
O376 O 0.05312 0.90801 0.96272 0.0
O377 O 0.08046 0.91285 0.97506 0.0
O378 O 0.88713 0.36331 0.69716 0.0
Cd379 Cd 0.89308 0.36174 0.71575 0.0
Cd380 Cd 0.86727 0.32436 0.71235 0.0
O381 O 0.86508 0.33643 0.6947 0.0
O382 O 0.90703 0.38971 0.71867 0.0
O383 O 0.87694 0.38062 0.72758 0.0
C384 C 0.89149 0.3947 0.72576 0.0
C385 C 0.83718 0.30841 0.72107 0.0
C386 C 0.87522 0.35214 0.69032 0.0
C387 C 0.91296 0.31935 0.72122 0.0
O388 O 0.89573 0.3109 0.71762 0.0
O389 O 0.91489 0.33943 0.72163 0.0
O390 O 0.84763 0.29951 0.71231 0.0
O391 O 0.8435 0.32684 0.72475 0.0
O392 O 0.39097 0.8655 0.05358 0.0
Cd393 Cd 0.39325 0.86174 0.03481 0.0
Cd394 Cd 0.42974 0.88744 0.03903 0.0
O395 O 0.41704 0.88833 0.05657 0.0
O396 O 0.36592 0.84781 0.03029 0.0
O397 O 0.37458 0.87993 0.02394 0.0
C398 C 0.3609 0.86468 0.0243 0.0
C399 C 0.44501 0.91826 0.03078 0.0
C400 C 0.40165 0.87739 0.0607 0.0
C401 C 0.43604 0.84273 0.02928 0.0
O402 O 0.4442 0.85966 0.03352 0.0
O403 O 0.41602 0.84082 0.02844 0.0
O404 O 0.45392 0.90786 0.03955 0.0
O405 O 0.42688 0.91153 0.02686 0.0
O406 O 0.8831 0.63928 0.80313 0.0
Cd407 Cd 0.88986 0.64064 0.78464 0.0
Cd408 Cd 0.8643 0.67871 0.78782 0.0
O409 O 0.86207 0.66699 0.80555 0.0
O410 O 0.90442 0.61281 0.78233 0.0
O411 O 0.87474 0.62106 0.77271 0.0
C412 C 0.88938 0.60729 0.77501 0.0
C413 C 0.83441 0.69494 0.77901 0.0
C414 C 0.87161 0.65091 0.80995 0.0
C415 C 0.91019 0.683 0.77924 0.0
O416 O 0.89291 0.69172 0.78252 0.0
O417 O 0.91199 0.66289 0.77908 0.0
O418 O 0.84493 0.70379 0.78776 0.0
O419 O 0.84051 0.6764 0.77539 0.0
O420 O 0.11686 0.14048 0.55306 0.0
Cd421 Cd 0.11436 0.14446 0.53433 0.0
Cd422 Cd 0.07866 0.11764 0.53837 0.0
O423 O 0.09173 0.11654 0.55584 0.0
O424 O 0.14161 0.1584 0.52971 0.0
O425 O 0.13269 0.12641 0.52323 0.0
C426 C 0.14642 0.14161 0.52356 0.0
C427 C 0.06342 0.0868 0.5301 0.0
C428 C 0.1067 0.12795 0.56006 0.0
C429 C 0.0713 0.16252 0.52891 0.0
O430 O 0.06364 0.14527 0.53301 0.0
O431 O 0.09125 0.16508 0.52812 0.0
O432 O 0.0547 0.09697 0.53902 0.0
O433 O 0.08138 0.09375 0.52605 0.0
O434 O 0.61402 0.36251 0.30238 0.0
Cd435 Cd 0.61105 0.35942 0.2836 0.0
Cd436 Cd 0.63832 0.32478 0.28849 0.0
O437 O 0.63884 0.3385 0.30578 0.0
O438 O 0.59682 0.38628 0.27845 0.0
O439 O 0.62939 0.37793 0.27275 0.0
C440 C 0.61391 0.39136 0.27267 0.0
C441 C 0.6695 0.31013 0.28035 0.0
C442 C 0.62669 0.35314 0.30967 0.0
C443 C 0.5941 0.31578 0.27864 0.0
O444 O 0.61118 0.30879 0.28333 0.0
O445 O 0.59133 0.33561 0.2772 0.0
O446 O 0.65963 0.30142 0.28939 0.0
O447 O 0.6621 0.3278 0.27614 0.0
H448 H 0.98159 0.57153 0.96383 0.0
H449 H 1.0006 0.54273 0.97392 0.0
H450 H 0.94858 0.53455 0.99921 0.0
H451 H 0.9295 0.56376 0.98924 0.0
H452 H 0.98576 0.53449 0.01112 0.0
H453 H 0.95758 0.49898 0.97582 0.0
H454 H 0.95036 0.49355 0.95378 0.0
H455 H 0.0172 0.49001 0.94652 0.0
H456 H 0.02483 0.49572 0.9685 0.0
H457 H 0.01923 0.43578 0.03557 0.0
H458 H 1.00002 0.46439 0.02541 0.0
H459 H 0.05224 0.47318 1.00034 0.0
H460 H 0.07154 0.4442 0.01039 0.0
H461 H 0.01487 0.47285 0.98833 0.0
H462 H 0.043 0.50844 0.02367 0.0
H463 H 0.05014 0.5138 0.04572 0.0
H464 H 0.98327 0.51708 0.05292 0.0
H465 H 0.97572 0.51145 0.03092 0.0
C466 C 0.97407 0.56354 0.97148 0.0
C467 C 0.95397 0.56993 0.97571 0.0
C468 C 0.98496 0.54698 0.97722 0.0
C469 C 0.97595 0.53628 0.98725 0.0
C470 C 0.95583 0.54255 0.99147 0.0
C471 C 0.94491 0.55918 0.98573 0.0
C472 C 0.98786 0.51901 0.99352 0.0
C473 C 0.99184 0.52084 0.00617 0.0
C474 C 0.99631 0.50147 0.98702 0.0
C475 C 0.99177 0.49798 0.97379 0.0
C476 C 0.97074 0.49721 0.96951 0.0
C477 C 0.96658 0.49405 0.95703 0.0
C478 C 0.98331 0.49149 0.94875 0.0
C479 C 0.00425 0.49202 0.95294 0.0
C480 C 0.00851 0.4952 0.96541 0.0
C481 C 0.02674 0.44386 0.02795 0.0
C482 C 0.04698 0.43772 0.02382 0.0
C483 C 0.01573 0.4603 0.02217 0.0
C484 C 0.02475 0.47112 0.01219 0.0
C485 C 0.04498 0.46508 0.00804 0.0
C486 C 0.05603 0.44858 0.01383 0.0
C487 C 0.01278 0.48834 0.00592 0.0
C488 C 0.00879 0.4865 0.99328 0.0
C489 C 0.0043 0.50586 0.01243 0.0
C490 C 0.0088 0.50932 0.02566 0.0
C491 C 0.02981 0.51014 0.02996 0.0
C492 C 0.03394 0.51325 0.04245 0.0
C493 C 0.01717 0.51573 0.05072 0.0
C494 C 0.99624 0.51514 0.04651 0.0
C495 C 0.99203 0.51201 0.03403 0.0
H496 H 0.02039 0.51814 0.06038 0.0
H497 H 0.98006 0.48904 0.93909 0.0
H498 H 0.69308 0.67907 0.24111 0.0
H499 H 0.72167 0.69917 0.25097 0.0
H500 H 0.71178 0.75068 0.22554 0.0
H501 H 0.68352 0.73065 0.21555 0.0
H502 H 0.75315 0.74382 0.22883 0.0
H503 H 0.69214 0.75267 0.25484 0.0
H504 H 0.66215 0.7407 0.26762 0.0
H505 H 0.70523 0.70825 0.2917 0.0
H506 H 0.73547 0.7198 0.27897 0.0
H507 H 0.80993 0.82383 0.26111 0.0
H508 H 0.78139 0.80377 0.25118 0.0
H509 H 0.79052 0.75258 0.27694 0.0
H510 H 0.81867 0.77261 0.28701 0.0
H511 H 0.7495 0.75928 0.27346 0.0
H512 H 0.81052 0.75035 0.24747 0.0
H513 H 0.84055 0.76222 0.23469 0.0
H514 H 0.79755 0.79468 0.21056 0.0
H515 H 0.76728 0.78323 0.22329 0.0
C516 C 0.69711 0.6946 0.23756 0.0
C517 C 0.68595 0.70328 0.22757 0.0
C518 C 0.71338 0.70613 0.24325 0.0
C519 C 0.71869 0.72658 0.2391 0.0
C520 C 0.70796 0.73497 0.22892 0.0
C521 C 0.69175 0.72349 0.22323 0.0
C522 C 0.73516 0.73945 0.24545 0.0
C523 C 0.75222 0.7474 0.23856 0.0
C524 C 0.73419 0.74382 0.2582 0.0
C525 C 0.71604 0.73691 0.26588 0.0
C526 C 0.6952 0.74284 0.26281 0.0
C527 C 0.67816 0.73616 0.27005 0.0
C528 C 0.68178 0.72367 0.28045 0.0
C529 C 0.70245 0.71789 0.28364 0.0
C530 C 0.71955 0.72451 0.27642 0.0
C531 C 0.80574 0.80837 0.26471 0.0
C532 C 0.81664 0.7998 0.27482 0.0
C533 C 0.78951 0.79686 0.25898 0.0
C534 C 0.784 0.7765 0.2632 0.0
C535 C 0.79449 0.76821 0.2735 0.0
C536 C 0.81064 0.7797 0.27923 0.0
C537 C 0.76752 0.76364 0.25684 0.0
C538 C 0.75045 0.75569 0.26373 0.0
C539 C 0.76849 0.75926 0.24409 0.0
C540 C 0.78666 0.76611 0.23641 0.0
C541 C 0.80749 0.76015 0.23949 0.0
C542 C 0.82455 0.76678 0.23224 0.0
C543 C 0.82096 0.77924 0.22184 0.0
C544 C 0.8003 0.78505 0.21863 0.0
C545 C 0.78319 0.77849 0.22586 0.0
H546 H 0.83419 0.78436 0.21624 0.0
H547 H 0.66856 0.71852 0.28605 0.0
H548 H 0.52206 0.4368 0.46356 0.0
H549 H 0.50283 0.46561 0.47352 0.0
H550 H 0.55384 0.47311 0.49956 0.0
H551 H 0.57318 0.44396 0.48969 0.0
H552 H 0.51575 0.47273 0.51088 0.0
H553 H 0.54635 0.50912 0.47659 0.0
H554 H 0.55494 0.51519 0.45478 0.0
H555 H 0.48862 0.5196 0.4462 0.0
H556 H 0.47961 0.51326 0.46794 0.0
H557 H 0.48224 0.57111 0.53566 0.0
H558 H 0.50159 0.54255 0.52554 0.0
H559 H 0.45036 0.53491 0.49965 0.0
H560 H 0.43089 0.5638 0.50969 0.0
H561 H 0.48854 0.53538 0.48823 0.0
H562 H 0.45796 0.49896 0.52252 0.0
H563 H 0.44937 0.4929 0.54433 0.0
H564 H 0.5157 0.48856 0.5529 0.0
H565 H 0.5247 0.49489 0.53116 0.0
C566 C 0.52932 0.44465 0.47135 0.0
C567 C 0.5492 0.43809 0.47582 0.0
C568 C 0.5183 0.4612 0.47701 0.0
C569 C 0.52696 0.47168 0.48722 0.0
C570 C 0.54687 0.46527 0.49167 0.0
C571 C 0.55794 0.44868 0.486 0.0
C572 C 0.51485 0.48884 0.49344 0.0
C573 C 0.51008 0.4866 0.50597 0.0
C574 C 0.50693 0.50664 0.48696 0.0
C575 C 0.5123 0.51052 0.47388 0.0
C576 C 0.53359 0.51122 0.47004 0.0
C577 C 0.53854 0.51474 0.45769 0.0
C578 C 0.52234 0.51773 0.44911 0.0
C579 C 0.50115 0.51726 0.45286 0.0
C580 C 0.49612 0.51372 0.4652 0.0
C581 C 0.47497 0.56329 0.52786 0.0
C582 C 0.45496 0.56971 0.5235 0.0
C583 C 0.48605 0.54689 0.5221 0.0
C584 C 0.47736 0.53642 0.5119 0.0
C585 C 0.45736 0.54274 0.50753 0.0
C586 C 0.44621 0.55919 0.5133 0.0
C587 C 0.48945 0.51928 0.50566 0.0
C588 C 0.49421 0.52151 0.49314 0.0
C589 C 0.49736 0.50147 0.51214 0.0
C590 C 0.492 0.4976 0.52522 0.0
C591 C 0.47072 0.49688 0.52907 0.0
C592 C 0.46578 0.49337 0.54142 0.0
C593 C 0.48198 0.4904 0.55 0.0
C594 C 0.50317 0.49089 0.54625 0.0
C595 C 0.5082 0.49442 0.53391 0.0
H596 H 0.47812 0.48768 0.55956 0.0
H597 H 0.52621 0.52046 0.43955 0.0
H598 H 0.81245 0.32179 0.74035 0.0
H599 H 0.78374 0.30224 0.75045 0.0
H600 H 0.79268 0.25014 0.72527 0.0
H601 H 0.82103 0.26964 0.71505 0.0
H602 H 0.75157 0.25772 0.72845 0.0
H603 H 0.81214 0.2484 0.75476 0.0
H604 H 0.8422 0.26011 0.76756 0.0
H605 H 0.79945 0.29382 0.79127 0.0
H606 H 0.76915 0.28253 0.7785 0.0
H607 H 0.69288 0.17959 0.76105 0.0
H608 H 0.722 0.19884 0.75115 0.0
H609 H 0.71343 0.25083 0.77644 0.0
H610 H 0.6847 0.23161 0.78649 0.0
H611 H 0.75442 0.24325 0.77321 0.0
H612 H 0.69389 0.25274 0.74689 0.0
H613 H 0.66379 0.24113 0.73408 0.0
H614 H 0.70643 0.20724 0.7104 0.0
H615 H 0.73677 0.21843 0.72317 0.0
C616 C 0.80821 0.30623 0.73693 0.0
C617 C 0.81909 0.29727 0.72692 0.0
C618 C 0.79188 0.29501 0.74275 0.0
C619 C 0.78622 0.27457 0.73872 0.0
C620 C 0.79676 0.26584 0.72856 0.0
C621 C 0.81302 0.27703 0.72274 0.0
C622 C 0.76947 0.26213 0.74511 0.0
C623 C 0.75233 0.25434 0.73821 0.0
C624 C 0.77021 0.25804 0.75789 0.0
C625 C 0.7884 0.26479 0.7656 0.0
C626 C 0.80917 0.25844 0.76264 0.0
C627 C 0.82625 0.26498 0.76991 0.0
C628 C 0.82275 0.27775 0.7802 0.0
C629 C 0.80215 0.28395 0.78328 0.0
C630 C 0.78501 0.27748 0.77604 0.0
C631 C 0.69732 0.19505 0.76456 0.0
C632 C 0.6864 0.20408 0.77453 0.0
C633 C 0.71388 0.2061 0.75884 0.0
C634 C 0.71972 0.22644 0.76293 0.0
C635 C 0.70921 0.2352 0.7731 0.0
C636 C 0.69273 0.22417 0.77882 0.0
C637 C 0.73652 0.23883 0.75655 0.0
C638 C 0.75366 0.24662 0.76345 0.0
C639 C 0.73578 0.24293 0.74377 0.0
C640 C 0.71757 0.23624 0.73606 0.0
C641 C 0.69683 0.24268 0.73901 0.0
C642 C 0.67973 0.2362 0.73174 0.0
C643 C 0.68319 0.22341 0.72145 0.0
C644 C 0.70377 0.21712 0.71838 0.0
C645 C 0.72092 0.22354 0.72563 0.0
H646 H 0.66993 0.21841 0.71584 0.0
H647 H 0.83599 0.28279 0.78581 0.0
H648 H 0.92844 0.44328 0.51206 0.0
H649 H 0.94771 0.47242 0.5022 0.0
H650 H 1.00156 0.46059 0.52567 0.0
H651 H 0.9823 0.43188 0.53571 0.0
H652 H 0.99524 0.50175 0.52371 0.0
H653 H 1.00001 0.44336 0.49541 0.0
H654 H 0.98617 0.41477 0.48217 0.0
H655 H 0.95141 0.46045 0.46094 0.0
H656 H 0.96483 0.48929 0.47416 0.0
H657 H 0.07196 0.56047 0.48981 0.0
H658 H 0.05263 0.53146 0.49977 0.0
H659 H 0.99834 0.54397 0.47677 0.0
H660 H 0.0176 0.57262 0.46666 0.0
H661 H 0.00495 0.50247 0.47849 0.0
H662 H 1.00037 0.56088 0.50686 0.0
H663 H 0.01445 0.58936 0.52009 0.0
H664 H 0.04919 0.54346 0.54117 0.0
H665 H 0.03553 0.51472 0.52796 0.0
C666 C 0.94433 0.44698 0.51516 0.0
C667 C 0.95384 0.4352 0.52464 0.0
C668 C 0.95539 0.46357 0.50947 0.0
C669 C 0.97624 0.46853 0.51306 0.0
C670 C 0.98553 0.45708 0.52272 0.0
C671 C 0.97448 0.44061 0.52844 0.0
C672 C 0.98853 0.48548 0.50674 0.0
C673 C 0.99757 0.50175 0.51383 0.0
C674 C 0.99129 0.48575 0.49383 0.0
C675 C 0.98325 0.46845 0.48585 0.0
C676 C 0.98929 0.44729 0.48798 0.0
C677 C 0.98154 0.43104 0.48047 0.0
C678 C 0.96788 0.43579 0.47074 0.0
C679 C 0.96197 0.4568 0.46849 0.0
C680 C 0.96966 0.4731 0.47598 0.0
C681 C 0.05595 0.55696 0.48684 0.0
C682 C 0.04632 0.56891 0.47747 0.0
C683 C 0.04487 0.54045 0.49258 0.0
C684 C 0.0239 0.5357 0.48913 0.0
C685 C 0.01446 0.54734 0.47961 0.0
C686 C 0.02552 0.56377 0.47385 0.0
C687 C 0.01165 0.51873 0.49546 0.0
C688 C 0.00262 0.50246 0.48837 0.0
C689 C 0.00893 0.51844 0.50837 0.0
C690 C 0.0171 0.53568 0.51635 0.0
C691 C 0.01114 0.55688 0.51426 0.0
C692 C 0.01902 0.57306 0.52177 0.0
C693 C 0.03275 0.56822 0.53144 0.0
C694 C 0.03858 0.54718 0.53366 0.0
C695 C 0.03076 0.53094 0.52617 0.0
H696 H 0.03883 0.58078 0.53724 0.0
H697 H 0.9619 0.42319 0.46494 0.0
H698 H 0.68481 0.77476 0.71249 0.0
H699 H 0.71325 0.7551 0.72254 0.0
H700 H 0.72002 0.80523 0.74922 0.0
H701 H 0.6916 0.82522 0.73909 0.0
H702 H 0.75835 0.79062 0.74157 0.0
H703 H 0.69364 0.76003 0.75648 0.0
H704 H 0.65829 0.74358 0.75473 0.0
H705 H 0.68521 0.69109 0.73501 0.0
H706 H 0.7207 0.70738 0.73649 0.0
H707 H 0.8178 0.73335 0.7854 0.0
H708 H 0.78972 0.75314 0.77511 0.0
H709 H 0.78252 0.70247 0.7488 0.0
H710 H 0.81054 0.68233 0.7592 0.0
H711 H 0.74447 0.71734 0.75617 0.0
H712 H 0.8092 0.7478 0.7413 0.0
H713 H 0.84456 0.76423 0.74301 0.0
H714 H 0.81767 0.81693 0.76256 0.0
H715 H 0.78217 0.80066 0.76112 0.0
C716 C 0.69241 0.78172 0.72045 0.0
C717 C 0.68584 0.80154 0.72502 0.0
C718 C 0.70862 0.77038 0.72623 0.0
C719 C 0.71854 0.77851 0.73676 0.0
C720 C 0.71252 0.7986 0.74114 0.0
C721 C 0.69627 0.81 0.73534 0.0
C722 C 0.73501 0.76588 0.74326 0.0
C723 C 0.75523 0.77471 0.74491 0.0
C724 C 0.73111 0.7449 0.74737 0.0
C725 C 0.7098 0.73503 0.7465 0.0
C726 C 0.692 0.74506 0.75169 0.0
C727 C 0.67194 0.73575 0.75075 0.0
C728 C 0.6695 0.71633 0.74473 0.0
C729 C 0.68712 0.70615 0.73966 0.0
C730 C 0.70722 0.7154 0.74055 0.0
C731 C 0.81021 0.72632 0.77745 0.0
C732 C 0.81651 0.70627 0.77308 0.0
C733 C 0.79421 0.73774 0.77154 0.0
C734 C 0.78424 0.72948 0.76105 0.0
C735 C 0.79006 0.70921 0.75684 0.0
C736 C 0.80609 0.69772 0.76279 0.0
C737 C 0.76783 0.74208 0.75448 0.0
C738 C 0.74761 0.73324 0.75281 0.0
C739 C 0.77173 0.76305 0.75036 0.0
C740 C 0.79306 0.77291 0.7512 0.0
C741 C 0.81085 0.76281 0.74605 0.0
C742 C 0.83091 0.77211 0.74695 0.0
C743 C 0.83337 0.79159 0.75292 0.0
C744 C 0.81575 0.80183 0.75796 0.0
C745 C 0.79565 0.79259 0.75709 0.0
H746 H 0.84892 0.79876 0.75361 0.0
H747 H 0.65396 0.70915 0.74402 0.0
H748 H 0.48259 0.43337 0.96518 0.0
H749 H 0.50199 0.4617 0.9755 0.0
H750 H 0.44932 0.47129 1.00015 0.0
H751 H 0.42961 0.44292 0.98976 0.0
H752 H 0.46578 0.50884 0.99202 0.0
H753 H 0.49258 0.44464 0.00975 0.0
H754 H 0.50806 0.40872 0.0096 0.0
H755 H 0.56354 0.43247 0.99134 0.0
H756 H 0.54825 0.4685 0.99122 0.0
H757 H 0.52001 0.57008 0.03635 0.0
H758 H 0.50058 0.54171 0.0261 0.0
H759 H 0.55345 0.53152 0.00167 0.0
H760 H 0.57321 0.55989 0.01202 0.0
H761 H 0.53685 0.49424 0.0097 0.0
H762 H 0.51007 0.5584 0.99192 0.0
H763 H 0.4946 0.59432 0.99201 0.0
H764 H 0.43911 0.57067 0.0103 0.0
H765 H 0.45439 0.53464 0.01048 0.0
C766 C 0.47503 0.44153 0.97276 0.0
C767 C 0.45456 0.43581 0.97668 0.0
C768 C 0.48622 0.45768 0.97869 0.0
C769 C 0.47725 0.46841 0.98872 0.0
C770 C 0.45658 0.46315 0.99246 0.0
C771 C 0.44535 0.44693 0.98653 0.0
C772 C 0.48956 0.48501 0.99529 0.0
C773 C 0.48118 0.50558 0.99605 0.0
C774 C 0.50991 0.48088 1.00028 0.0
C775 C 0.51917 0.45923 1.00037 0.0
C776 C 0.50801 0.44217 0.00561 0.0
C777 C 0.51676 0.4218 0.00559 0.0
C778 C 0.53675 0.4183 1.00043 0.0
C779 C 0.54804 0.43519 0.99531 0.0
C780 C 0.53935 0.4556 0.9953 0.0
C781 C 0.5276 0.56178 0.02883 0.0
C782 C 0.54815 0.56734 0.02497 0.0
C783 C 0.51639 0.54561 0.02294 0.0
C784 C 0.52541 0.5347 0.01299 0.0
C785 C 0.54615 0.5398 0.0093 0.0
C786 C 0.55741 0.55602 0.01521 0.0
C787 C 0.51307 0.51808 0.00643 0.0
C788 C 0.52145 0.4975 0.00568 0.0
C789 C 0.49273 0.52221 0.00144 0.0
C790 C 0.48347 0.54385 0.00132 0.0
C791 C 0.49465 0.56089 0.99605 0.0
C792 C 0.4859 0.58127 0.99604 0.0
C793 C 0.46591 0.58479 0.00119 0.0
C794 C 0.4546 0.56792 0.00633 0.0
C795 C 0.46329 0.54752 0.00638 0.0
H796 H 0.45916 0.60058 0.00117 0.0
H797 H 0.5435 0.40251 1.00043 0.0
H798 H 0.81991 0.23168 0.21403 0.0
H799 H 0.79164 0.25138 0.22422 0.0
H800 H 0.78463 0.20091 0.25065 0.0
H801 H 0.81289 0.18089 0.2404 0.0
H802 H 0.74638 0.21579 0.24301 0.0
H803 H 0.81112 0.24572 0.25821 0.0
H804 H 0.84659 0.26195 0.25668 0.0
H805 H 0.82022 0.31503 0.23725 0.0
H806 H 0.7846 0.29896 0.23851 0.0
H807 H 0.68747 0.2726 0.2872 0.0
H808 H 0.71592 0.25325 0.27698 0.0
H809 H 0.72169 0.30342 0.25026 0.0
H810 H 0.69316 0.32307 0.26053 0.0
H811 H 0.76053 0.28882 0.25799 0.0
H812 H 0.69573 0.25879 0.24287 0.0
H813 H 0.66029 0.24252 0.24451 0.0
H814 H 0.68689 0.18954 0.26392 0.0
H815 H 0.72247 0.20565 0.26256 0.0
C816 C 0.8123 0.22465 0.22197 0.0
C817 C 0.81875 0.20473 0.22644 0.0
C818 C 0.79619 0.23602 0.22782 0.0
C819 C 0.78624 0.22779 0.23832 0.0
C820 C 0.79216 0.20761 0.24259 0.0
C821 C 0.80832 0.19619 0.23673 0.0
C822 C 0.76983 0.2404 0.24487 0.0
C823 C 0.74957 0.23164 0.24644 0.0
C824 C 0.77383 0.26129 0.24909 0.0
C825 C 0.79522 0.27103 0.24835 0.0
C826 C 0.8129 0.26077 0.25352 0.0
C827 C 0.83304 0.26995 0.25272 0.0
C828 C 0.83567 0.28948 0.24684 0.0
C829 C 0.81816 0.29989 0.24178 0.0
C830 C 0.79799 0.29076 0.24255 0.0
C831 C 0.69485 0.27965 0.2792 0.0
C832 C 0.68795 0.29937 0.27464 0.0
C833 C 0.71107 0.26848 0.27333 0.0
C834 C 0.72071 0.27671 0.26274 0.0
C835 C 0.71439 0.29673 0.25839 0.0
C836 C 0.69809 0.30793 0.26426 0.0
C837 C 0.7371 0.26419 0.25613 0.0
C838 C 0.75736 0.27297 0.25455 0.0
C839 C 0.73311 0.2433 0.25191 0.0
C840 C 0.71174 0.23353 0.25271 0.0
C841 C 0.694 0.24376 0.24758 0.0
C842 C 0.67389 0.23455 0.24844 0.0
C843 C 0.67133 0.21503 0.25435 0.0
C844 C 0.68889 0.20467 0.25937 0.0
C845 C 0.70904 0.21382 0.25854 0.0
H846 H 0.65575 0.20793 0.25501 0.0
H847 H 0.85127 0.29657 0.24623 0.0
H848 H 0.31115 0.3233 0.76086 0.0
H849 H 0.28213 0.30363 0.7511 0.0
H850 H 0.29166 0.25193 0.77646 0.0
H851 H 0.3203 0.27153 0.78634 0.0
H852 H 0.28263 0.26627 0.73929 0.0
H853 H 0.24511 0.22698 0.78219 0.0
H854 H 0.23958 0.23473 0.80417 0.0
H855 H 0.2419 0.30157 0.79669 0.0
H856 H 0.24714 0.29423 0.77466 0.0
H857 H 0.19356 0.17922 0.74057 0.0
H858 H 0.22245 0.19893 0.75046 0.0
H859 H 0.21262 0.25097 0.72538 0.0
H860 H 0.18411 0.23137 0.71539 0.0
H861 H 0.22179 0.2364 0.76243 0.0
H862 H 0.25925 0.27577 0.71956 0.0
H863 H 0.2647 0.2681 0.69756 0.0
H864 H 0.26242 0.20123 0.70497 0.0
H865 H 0.25725 0.20849 0.72702 0.0
C866 C 0.30691 0.30783 0.76443 0.0
C867 C 0.318 0.29903 0.77441 0.0
C868 C 0.29039 0.29657 0.75881 0.0
C869 C 0.28456 0.27637 0.76311 0.0
C870 C 0.29558 0.26762 0.7731 0.0
C871 C 0.31204 0.27885 0.77872 0.0
C872 C 0.26742 0.2641 0.75695 0.0
C873 C 0.26915 0.26002 0.74432 0.0
C874 C 0.25013 0.25542 0.76356 0.0
C875 C 0.24674 0.26003 0.77679 0.0
C876 C 0.24436 0.24333 0.78523 0.0
C877 C 0.24129 0.24765 0.7977 0.0
C878 C 0.24046 0.26862 0.80183 0.0
C879 C 0.24263 0.28533 0.79349 0.0
C880 C 0.24568 0.28109 0.78101 0.0
C881 C 0.1977 0.19478 0.7371 0.0
C882 C 0.18658 0.20367 0.72716 0.0
C883 C 0.21414 0.20606 0.74279 0.0
C884 C 0.21986 0.22636 0.7386 0.0
C885 C 0.20878 0.23521 0.72866 0.0
C886 C 0.19239 0.22397 0.72298 0.0
C887 C 0.237 0.23859 0.74477 0.0
C888 C 0.23527 0.24265 0.75741 0.0
C889 C 0.25429 0.24727 0.73816 0.0
C890 C 0.25764 0.2427 0.72493 0.0
C891 C 0.25999 0.25943 0.7165 0.0
C892 C 0.26302 0.25515 0.70402 0.0
C893 C 0.26383 0.23419 0.69986 0.0
C894 C 0.2617 0.21746 0.70819 0.0
C895 C 0.25869 0.22165 0.72068 0.0
H896 H 0.26616 0.23092 0.6902 0.0
H897 H 0.2381 0.27193 0.81149 0.0
H898 H 0.18309 0.73478 0.28641 0.0
H899 H 0.21183 0.75375 0.27622 0.0
H900 H 0.22103 0.70084 0.25167 0.0
H901 H 0.19229 0.68155 0.26195 0.0
H902 H 0.25861 0.71674 0.25974 0.0
H903 H 0.19493 0.74467 0.242 0.0
H904 H 0.15929 0.76075 0.2421 0.0
H905 H 0.18386 0.8158 0.26047 0.0
H906 H 0.21962 0.79991 0.26064 0.0
H907 H 0.32058 0.7702 0.21544 0.0
H908 H 0.29181 0.75125 0.22561 0.0
H909 H 0.28299 0.80393 0.25038 0.0
H910 H 0.31179 0.82318 0.24013 0.0
H911 H 0.24521 0.78815 0.24217 0.0
H912 H 0.30893 0.76013 0.25989 0.0
H913 H 0.34456 0.74401 0.25972 0.0
H914 H 0.31986 0.68907 0.2413 0.0
H915 H 0.28412 0.705 0.2412 0.0
C916 C 0.19126 0.72708 0.27888 0.0
C917 C 0.18531 0.70665 0.27496 0.0
C918 C 0.20764 0.73802 0.27302 0.0
C919 C 0.21837 0.72887 0.26305 0.0
C920 C 0.2129 0.70824 0.25931 0.0
C921 C 0.19646 0.69725 0.26519 0.0
C922 C 0.23518 0.74095 0.25651 0.0
C923 C 0.2556 0.73222 0.25575 0.0
C924 C 0.2314 0.76138 0.25155 0.0
C925 C 0.20992 0.77101 0.25144 0.0
C926 C 0.19271 0.76013 0.24615 0.0
C927 C 0.17249 0.76922 0.24615 0.0
C928 C 0.1693 0.78926 0.25132 0.0
C929 C 0.18635 0.80027 0.25648 0.0
C930 C 0.2066 0.79123 0.25653 0.0
C931 C 0.31249 0.77785 0.22301 0.0
C932 C 0.31857 0.79819 0.227 0.0
C933 C 0.29609 0.76692 0.22886 0.0
C934 C 0.28545 0.77602 0.23888 0.0
C935 C 0.29105 0.79657 0.24269 0.0
C936 C 0.30752 0.80754 0.23684 0.0
C937 C 0.26863 0.76394 0.24541 0.0
C938 C 0.24821 0.77267 0.24617 0.0
C939 C 0.27241 0.7435 0.25036 0.0
C940 C 0.29388 0.73385 0.25043 0.0
C941 C 0.31113 0.74468 0.25571 0.0
C942 C 0.33134 0.73557 0.25568 0.0
C943 C 0.33448 0.71555 0.25048 0.0
C944 C 0.31741 0.70459 0.24532 0.0
C945 C 0.29716 0.71364 0.24531 0.0
H946 H 0.35014 0.70852 0.25046 0.0
H947 H 0.15363 0.79628 0.2513 0.0
H948 H 0.32499 0.23796 0.28213 0.0
H949 H 0.29625 0.25731 0.27221 0.0
H950 H 0.28013 0.20159 0.25119 0.0
H951 H 0.30926 0.18211 0.26098 0.0
H952 H 0.28039 0.23643 0.23693 0.0
H953 H 0.24981 0.21743 0.27574 0.0
H954 H 0.24817 0.21483 0.29832 0.0
H955 H 0.25014 0.28274 0.30121 0.0
H956 H 0.25208 0.28574 0.27864 0.0
H957 H 0.18035 0.27189 0.21577 0.0
H958 H 0.20953 0.25285 0.22544 0.0
H959 H 0.22437 0.30814 0.24717 0.0
H960 H 0.1947 0.32723 0.23769 0.0
H961 H 0.22493 0.27359 0.26106 0.0
H962 H 0.2554 0.29274 0.22229 0.0
H963 H 0.25721 0.29546 0.19972 0.0
H964 H 0.25566 0.22756 0.19671 0.0
H965 H 0.25355 0.22443 0.21927 0.0
C966 C 0.3153 0.22974 0.27544 0.0
C967 C 0.31939 0.20843 0.27239 0.0
C968 C 0.29879 0.24083 0.2698 0.0
C969 C 0.28582 0.23085 0.26106 0.0
C970 C 0.28989 0.2096 0.25794 0.0
C971 C 0.30649 0.19847 0.26357 0.0
C972 C 0.2683 0.24278 0.25505 0.0
C973 C 0.26807 0.2443 0.24219 0.0
C974 C 0.25256 0.25355 0.26193 0.0
C975 C 0.25128 0.25179 0.2755 0.0
C976 C 0.25005 0.2318 0.28119 0.0
C977 C 0.24904 0.23026 0.29399 0.0
C978 C 0.2491 0.2486 0.3012 0.0
C979 C 0.25011 0.26854 0.29562 0.0
C980 C 0.25115 0.27017 0.28282 0.0
C981 C 0.18988 0.28011 0.22254 0.0
C982 C 0.18522 0.30114 0.22592 0.0
C983 C 0.20666 0.26919 0.22803 0.0
C984 C 0.21938 0.27912 0.23692 0.0
C985 C 0.21482 0.30015 0.24031 0.0
C986 C 0.19791 0.31108 0.23485 0.0
C987 C 0.23699 0.26727 0.24291 0.0
C988 C 0.23724 0.26576 0.25578 0.0
C989 C 0.25277 0.25653 0.23604 0.0
C990 C 0.25413 0.25836 0.22247 0.0
C991 C 0.25529 0.27839 0.21682 0.0
C992 C 0.25639 0.28001 0.20403 0.0
C993 C 0.25649 0.2617 0.19679 0.0
C994 C 0.25555 0.24173 0.20233 0.0
C995 C 0.25443 0.24002 0.21512 0.0
H996 H 0.25735 0.26298 0.18689 0.0
H997 H 0.24832 0.24737 0.3111 0.0
H998 H 0.19086 0.81981 0.76029 0.0
H999 H 0.2194 0.80032 0.74997 0.0
H1000 H 0.21484 0.7506 0.77705 0.0
H1001 H 0.18653 0.76998 0.78744 0.0
H1002 H 0.2557 0.76014 0.77218 0.0
H1003 H 0.19282 0.74439 0.74897 0.0
H1004 H 0.1607 0.7528 0.737 0.0
H1005 H 0.19858 0.78524 0.71015 0.0
H1006 H 0.23092 0.77726 0.72205 0.0
H1007 H 0.31391 0.68037 0.74063 0.0
H1008 H 0.28502 0.69962 0.75076 0.0
H1009 H 0.28901 0.74887 0.72336 0.0
H1010 H 0.31762 0.72968 0.71314 0.0
H1011 H 0.24841 0.73961 0.72838 0.0
H1012 H 0.31124 0.75551 0.75156 0.0
H1013 H 0.34342 0.74725 0.76351 0.0
H1014 H 0.3057 0.71474 0.79041 0.0
H1015 H 0.27331 0.72257 0.77852 0.0
C1016 C 0.19604 0.8048 0.76409 0.0
C1017 C 0.18637 0.79642 0.77467 0.0
C1018 C 0.21227 0.79362 0.75814 0.0
C1019 C 0.21909 0.77387 0.76266 0.0
C1020 C 0.20982 0.76578 0.77339 0.0
C1021 C 0.19359 0.77688 0.7793 0.0
C1022 C 0.2357 0.76143 0.75616 0.0
C1023 C 0.25399 0.75543 0.76264 0.0
C1024 C 0.23367 0.75562 0.74365 0.0
C1025 C 0.21426 0.76042 0.73647 0.0
C1026 C 0.19428 0.75347 0.74056 0.0
C1027 C 0.17604 0.75813 0.73378 0.0
C1028 C 0.17759 0.7696 0.72284 0.0
C1029 C 0.1974 0.77638 0.71864 0.0
C1030 C 0.21569 0.77178 0.72539 0.0
C1031 C 0.30851 0.69521 0.73671 0.0
C1032 C 0.31814 0.70353 0.7261 0.0
C1033 C 0.29208 0.70626 0.74255 0.0
C1034 C 0.28503 0.72585 0.73792 0.0
C1035 C 0.29419 0.73383 0.72712 0.0
C1036 C 0.3106 0.72283 0.7213 0.0
C1037 C 0.26841 0.7383 0.7444 0.0
C1038 C 0.25012 0.74431 0.73792 0.0
C1039 C 0.27045 0.74414 0.75691 0.0
C1040 C 0.28989 0.73943 0.76408 0.0
C1041 C 0.30983 0.74645 0.75997 0.0
C1042 C 0.3281 0.74187 0.76674 0.0
C1043 C 0.32661 0.73042 0.7777 0.0
C1044 C 0.30684 0.72358 0.78192 0.0
C1045 C 0.28851 0.72809 0.77517 0.0
H1046 H 0.34078 0.7269 0.78293 0.0
H1047 H 0.16345 0.77319 0.7176 0.0
H1048 H 0.52145 0.93632 0.5348 0.0
H1049 H 0.50189 0.96449 0.52445 0.0
H1050 H 0.5528 0.97143 0.4983 0.0
H1051 H 0.5727 0.9433 0.50876 0.0
H1052 H 0.53808 0.00959 0.50573 0.0
H1053 H 0.50749 0.94511 0.49059 0.0
H1054 H 0.49089 0.9098 0.49214 0.0
H1055 H 0.43812 0.93678 0.51157 0.0
H1056 H 0.45456 0.97223 0.51028 0.0
H1057 H 0.48126 0.07018 0.46223 0.0
H1058 H 0.50069 0.04143 0.47214 0.0
H1059 H 0.4504 0.03447 0.49868 0.0
H1060 H 0.43064 0.0632 0.48869 0.0
H1061 H 0.46488 0.99619 0.49087 0.0
H1062 H 0.49565 0.0606 0.50616 0.0
H1063 H 0.51226 0.09591 0.5046 0.0
H1064 H 0.56473 0.069 0.48487 0.0
H1065 H 0.54828 0.03356 0.48616 0.0
C1066 C 0.52858 0.94386 0.52688 0.0
C1067 C 0.54863 0.93747 0.52258 0.0
C1068 C 0.5173 0.95992 0.52093 0.0
C1069 C 0.5257 0.96985 0.51047 0.0
C1070 C 0.54596 0.96392 0.50632 0.0
C1071 C 0.55731 0.94783 0.5123 0.0
C1072 C 0.51326 0.98637 0.50389 0.0
C1073 C 0.5222 0.00656 0.50232 0.0
C1074 C 0.49232 0.98259 0.49969 0.0
C1075 C 0.48236 0.9613 0.50044 0.0
C1076 C 0.49243 0.94349 0.49528 0.0
C1077 C 0.48303 0.92345 0.49609 0.0
C1078 C 0.46349 0.92104 0.50197 0.0
C1079 C 0.45327 0.93867 0.50703 0.0
C1080 C 0.46261 0.95874 0.50625 0.0
C1081 C 0.47422 0.06248 0.47013 0.0
C1082 C 0.45442 0.06908 0.47471 0.0
C1083 C 0.48543 0.04609 0.47582 0.0
C1084 C 0.47719 0.03602 0.48628 0.0
C1085 C 0.45711 0.04208 0.49065 0.0
C1086 C 0.44584 0.0585 0.48494 0.0
C1087 C 0.48971 0.01941 0.49273 0.0
C1088 C 0.48077 0.9992 0.49427 0.0
C1089 C 0.51066 0.02317 0.4969 0.0
C1090 C 0.52063 0.04446 0.49615 0.0
C1091 C 0.51065 0.06224 0.5014 0.0
C1092 C 0.52005 0.08228 0.50058 0.0
C1093 C 0.53951 0.08471 0.49461 0.0
C1094 C 0.54964 0.0671 0.48948 0.0
C1095 C 0.54029 0.04703 0.49026 0.0
H1096 H 0.54676 0.10024 0.49399 0.0
H1097 H 0.45624 0.90551 0.50259 0.0
H1098 H 0.07537 0.94463 0.99014 0.0
H1099 H 0.05553 0.9734 1.00001 0.0
H1100 H 0.00329 0.9629 0.97515 0.0
H1101 H 0.02308 0.9345 0.96514 0.0
H1102 H 0.00997 0.0042 0.97802 0.0
H1103 H 0.00236 0.94404 0.00479 0.0
H1104 H 0.01484 0.91446 0.01773 0.0
H1105 H 0.04812 0.95835 0.04095 0.0
H1106 H 0.03605 0.98818 0.02804 0.0
H1107 H 0.93105 0.06156 0.01101 0.0
H1108 H 0.95086 0.03292 0.00099 0.0
H1109 H 0.00332 0.04333 0.02571 0.0
H1110 H 0.98357 0.0716 0.03585 0.0
H1111 H 0.99643 1.00202 0.02289 0.0
H1112 H 0.00401 0.0622 0.99607 0.0
H1113 H 0.99143 0.09173 0.98312 0.0
H1114 H 0.95808 0.04775 0.96 0.0
H1115 H 0.97025 0.01797 0.97291 0.0
C1116 C 0.05972 0.94856 0.98673 0.0
C1117 C 0.05079 0.93721 0.97688 0.0
C1118 C 0.04834 0.96493 0.99242 0.0
C1119 C 0.02777 0.97013 0.98844 0.0
C1120 C 0.0191 0.95918 0.97841 0.0
C1121 C 0.03045 0.94289 0.97271 0.0
C1122 C 0.0151 0.98677 0.99477 0.0
C1123 C 0.0068 0.00358 0.98781 0.0
C1124 C 0.01125 0.98621 0.00759 0.0
C1125 C 0.01848 0.96831 0.01537 0.0
C1126 C 0.01247 0.94736 0.0126 0.0
C1127 C 0.01945 0.93056 0.01994 0.0
C1128 C 0.03232 0.93452 0.03013 0.0
C1129 C 0.03818 0.9553 0.03303 0.0
C1130 C 0.03126 0.97216 0.02571 0.0
C1131 C 0.94675 0.05765 0.01435 0.0
C1132 C 0.95574 0.06892 0.02421 0.0
C1133 C 0.95811 0.04136 0.00857 0.0
C1134 C 0.97872 0.03614 0.01249 0.0
C1135 C 0.98748 0.04706 0.02251 0.0
C1136 C 0.97615 0.06328 0.02828 0.0
C1137 C 0.99132 0.01947 0.00613 0.0
C1138 C 0.99959 0.00264 0.0131 0.0
C1139 C 0.99513 0.02001 0.99332 0.0
C1140 C 0.98786 0.03789 0.98553 0.0
C1141 C 0.99386 0.05885 0.98828 0.0
C1142 C 0.98683 0.07563 0.98094 0.0
C1143 C 0.97392 0.07163 0.97076 0.0
C1144 C 0.96806 0.05083 0.96789 0.0
C1145 C 0.97503 0.03399 0.97521 0.0
H1146 H 0.96849 0.08464 0.96509 0.0
H1147 H 0.0377 0.92149 0.03581 0.0
H1148 H 0.57334 0.06243 0.99046 0.0
H1149 H 0.55378 0.03385 0.00067 0.0
H1150 H 0.50234 0.04149 0.97492 0.0
H1151 H 0.52158 0.07016 0.96482 0.0
H1152 H 0.48741 0.03866 0.99771 0.0
H1153 H 0.53677 0.99946 0.97297 0.0
H1154 H 0.57201 0.98935 0.9651 0.0
H1155 H 0.59153 0.97156 0.00145 0.0
H1156 H 0.55647 0.98185 0.00958 0.0
H1157 H 0.43183 0.94261 0.0113 0.0
H1158 H 0.45128 0.97146 0.00127 0.0
H1159 H 0.50229 0.96422 0.02734 0.0
H1160 H 0.48313 0.93533 0.03729 0.0
H1161 H 0.51744 0.96687 0.00445 0.0
H1162 H 0.46791 0.00597 0.02914 0.0
H1163 H 0.43259 0.016 0.03694 0.0
H1164 H 0.4133 0.03384 0.00055 0.0
H1165 H 0.44844 0.02365 0.9925 0.0
C1166 C 0.55793 0.05792 0.98693 0.0
C1167 C 0.54905 0.06857 0.97681 0.0
C1168 C 0.54678 0.04154 0.99276 0.0
C1169 C 0.52661 0.03541 0.98852 0.0
C1170 C 0.51782 0.04595 0.97838 0.0
C1171 C 0.52892 0.0623 0.97257 0.0
C1172 C 0.51442 0.01833 0.99477 0.0
C1173 C 0.49389 0.02288 0.99904 0.0
C1174 C 0.52299 0.99786 0.99676 0.0
C1175 C 0.54407 0.99163 0.9919 0.0
C1176 C 0.54863 0.99356 0.9793 0.0
C1177 C 0.56857 0.98776 0.97479 0.0
C1178 C 0.58402 0.97987 0.98277 0.0
C1179 C 0.57955 0.97771 0.99528 0.0
C1180 C 0.55965 0.9835 0.99984 0.0
C1181 C 0.4471 0.94728 0.01495 0.0
C1182 C 0.4559 0.93667 0.02511 0.0
C1183 C 0.4582 0.9638 0.00923 0.0
C1184 C 0.47823 0.97009 0.01359 0.0
C1185 C 0.48691 0.95963 0.02379 0.0
C1186 C 0.47586 0.94315 0.0295 0.0
C1187 C 0.49044 0.9872 0.00738 0.0
C1188 C 0.51097 0.98266 0.00312 0.0
C1189 C 0.48185 0.00766 0.00539 0.0
C1190 C 0.46073 0.01384 0.0102 0.0
C1191 C 0.45608 0.01187 0.02279 0.0
C1192 C 0.4361 0.01762 0.02725 0.0
C1193 C 0.42069 0.0255 0.01924 0.0
C1194 C 0.42525 0.02771 0.00674 0.0
C1195 C 0.44519 0.02196 0.00223 0.0
H1196 H 0.40524 0.02994 0.02271 0.0
H1197 H 0.59944 0.97539 0.97926 0.0
H1198 H 0.07563 0.06361 0.50994 0.0
H1199 H 0.05587 0.03503 0.49983 0.0
H1200 H 0.00647 0.04038 0.52706 0.0
H1201 H 0.02618 0.06863 0.53727 0.0
H1202 H 0.01468 0.99965 0.52225 0.0
H1203 H 1.00086 0.06253 0.49859 0.0
H1204 H 0.01025 0.09421 0.48648 0.0
H1205 H 0.04209 0.055 0.46001 0.0
H1206 H 0.03313 0.02309 0.47207 0.0
H1207 H 0.9335 0.94345 0.49054 0.0
H1208 H 0.95356 0.97177 0.5007 0.0
H1209 H 0.00309 0.96577 0.4736 0.0
H1210 H 0.98311 0.93773 0.46336 0.0
H1211 H 0.99491 0.00674 0.47833 0.0
H1212 H 0.00855 0.94383 0.50198 0.0
H1213 H 0.99904 0.91218 0.5141 0.0
H1214 H 0.9674 0.95153 0.54058 0.0
H1215 H 0.97647 0.9834 0.52852 0.0
C1216 C 0.06065 0.05857 0.51383 0.0
C1217 C 0.05246 0.06847 0.52438 0.0
C1218 C 0.04931 0.04232 0.508 0.0
C1219 C 0.02952 0.03575 0.51259 0.0
C1220 C 0.02165 0.04519 0.52333 0.0
C1221 C 0.03296 0.06139 0.52915 0.0
C1222 C 0.01675 0.01933 0.50612 0.0
C1223 C 0.01015 1.00133 0.51268 0.0
C1224 C 0.01114 0.02129 0.49357 0.0
C1225 C 0.01652 0.04045 0.4863 0.0
C1226 C 0.01001 0.06068 0.49024 0.0
C1227 C 0.01523 0.07867 0.48338 0.0
C1228 C 0.02681 0.07663 0.4725 0.0
C1229 C 0.03315 0.05657 0.46845 0.0
C1230 C 0.02799 0.03852 0.47529 0.0
C1231 C 0.94858 0.94828 0.4867 0.0
C1232 C 0.95673 0.93826 0.47617 0.0
C1233 C 0.96009 0.96438 0.49255 0.0
C1234 C 0.97998 0.97071 0.488 0.0
C1235 C 0.98783 0.96114 0.4773 0.0
C1236 C 0.97637 0.94505 0.47146 0.0
C1237 C 0.99283 0.98707 0.49445 0.0
C1238 C 0.99944 0.00506 0.48789 0.0
C1239 C 0.99844 0.9851 0.507 0.0
C1240 C 0.993 0.96597 0.51428 0.0
C1241 C 0.99941 0.94572 0.51033 0.0
C1242 C 0.99413 0.92774 0.5172 0.0
C1243 C 0.98257 0.92984 0.52808 0.0
C1244 C 0.97632 0.94992 0.53214 0.0
C1245 C 0.98154 0.96795 0.52529 0.0
H1246 H 0.9785 0.9159 0.53339 0.0
H1247 H 0.03083 0.09058 0.46719 0.0
H1248 H 0.97566 0.1624 0.02555 0.0
H1249 H 0.99919 0.19269 0.02262 0.0
H1250 H 0.94563 0.23513 0.02455 0.0
H1251 H 0.92183 0.2048 0.0272 0.0
H1252 H 0.97355 0.24848 0.00757 0.0
H1253 H 0.9767 0.22613 0.04969 0.0
H1254 H 0.98163 0.20072 0.06668 0.0
H1255 H 0.04552 0.18899 0.05485 0.0
H1256 H 0.04087 0.21413 0.03769 0.0
H1257 H 0.02623 0.34239 0.0275 0.0
H1258 H 0.00387 0.31118 0.02469 0.0
H1259 H 0.05957 0.27188 0.02139 0.0
H1260 H 0.08215 0.30305 0.02429 0.0
H1261 H 0.03162 0.25626 0.038 0.0
H1262 H 0.02867 0.28144 0.99656 0.0
H1263 H 0.02312 0.30775 0.98012 0.0
H1264 H 0.95825 0.31537 0.99126 0.0
H1265 H 0.96348 0.28931 0.00788 0.0
C1266 C 0.96881 0.17815 0.02522 0.0
C1267 C 0.94686 0.18118 0.02675 0.0
C1268 C 0.98232 0.19547 0.02358 0.0
C1269 C 0.97423 0.21621 0.02362 0.0
C1270 C 0.95223 0.21926 0.02454 0.0
C1271 C 0.93865 0.2019 0.02608 0.0
C1272 C 0.98883 0.23471 0.02336 0.0
C1273 C 0.98613 0.25029 0.01428 0.0
C1274 C 0.0055 0.2369 0.03199 0.0
C1275 C 0.00836 0.22183 0.04233 0.0
C1276 C 0.99174 0.21801 0.05066 0.0
C1277 C 0.9945 0.20367 0.06033 0.0
C1278 C 0.01385 0.1932 0.06182 0.0
C1279 C 0.03052 0.19708 0.05367 0.0
C1280 C 0.02784 0.21138 0.04398 0.0
C1281 C 0.03378 0.32717 0.02603 0.0
C1282 C 0.05602 0.32523 0.02618 0.0
C1283 C 0.02094 0.30933 0.02435 0.0
C1284 C 0.03004 0.28921 0.02276 0.0
C1285 C 0.05222 0.28728 0.02259 0.0
C1286 C 0.0651 0.30513 0.02421 0.0
C1287 C 0.0164 0.27004 0.02219 0.0
C1288 C 0.0192 0.25436 0.03119 0.0
C1289 C 0.99976 0.2679 0.01355 0.0
C1290 C 0.99653 0.28354 0.00354 0.0
C1291 C 0.01327 0.28885 0.99557 0.0
C1292 C 0.01017 0.3037 0.9862 0.0
C1293 C 0.99036 0.31326 0.98466 0.0
C1294 C 0.97359 0.30796 0.99247 0.0
C1295 C 0.97661 0.29313 0.00185 0.0
H1296 H 0.98799 0.32476 0.9774 0.0
H1297 H 0.01596 0.18211 0.06931 0.0
H1298 H 0.04962 0.67305 0.27713 0.0
H1299 H 0.01905 0.69632 0.27408 0.0
H1300 H 0.06075 0.75046 0.27192 0.0
H1301 H 0.09128 0.72741 0.27529 0.0
H1302 H 0.03013 0.75839 0.28721 0.0
H1303 H 0.03354 0.73053 0.24637 0.0
H1304 H 0.03514 0.70277 0.23043 0.0
H1305 H 0.97503 0.67831 0.24238 0.0
H1306 H 0.9732 0.70575 0.25851 0.0
H1307 H 0.95038 0.83246 0.27214 0.0
H1308 H 0.98121 0.80941 0.26941 0.0
H1309 H 0.94208 0.75442 0.27581 0.0
H1310 H 0.91113 0.77728 0.27849 0.0
H1311 H 0.9717 0.74777 0.25731 0.0
H1312 H 0.9698 0.77415 0.29888 0.0
H1313 H 0.96818 0.8019 0.31483 0.0
H1314 H 0.026 0.82912 0.30121 0.0
H1315 H 0.02779 0.80169 0.28506 0.0
C1316 C 0.05231 0.68987 0.27583 0.0
C1317 C 0.07289 0.69838 0.27653 0.0
C1318 C 0.0348 0.70316 0.27403 0.0
C1319 C 0.03757 0.72517 0.2727 0.0
C1320 C 0.05819 0.73356 0.27297 0.0
C1321 C 0.07564 0.72034 0.27487 0.0
C1322 C 0.01899 0.73964 0.27195 0.0
C1323 C 0.01758 0.75627 0.2805 0.0
C1324 C 0.00229 0.7366 0.26342 0.0
C1325 C 0.00333 0.72009 0.25372 0.0
C1326 C 0.02074 0.71913 0.24566 0.0
C1327 C 0.02167 0.70347 0.23658 0.0
C1328 C 0.00522 0.68876 0.23541 0.0
C1329 C 0.98777 0.68971 0.24331 0.0
C1330 C 0.98677 0.70532 0.25241 0.0
C1331 C 0.94824 0.81546 0.2728 0.0
C1332 C 0.9283 0.80675 0.27567 0.0
C1333 C 0.9659 0.80231 0.27126 0.0
C1334 C 0.96397 0.78023 0.27257 0.0
C1335 C 0.94391 0.77142 0.27479 0.0
C1336 C 0.92626 0.78454 0.27637 0.0
C1337 C 0.98304 0.76646 0.2725 0.0
C1338 C 0.98444 0.74995 0.26389 0.0
C1339 C 0.9998 0.76958 0.28095 0.0
C1340 C 0.9988 0.78602 0.29069 0.0
C1341 C 0.98207 0.78616 0.29923 0.0
C1342 C 0.98114 0.80181 0.30832 0.0
C1343 C 0.99694 0.8173 0.30901 0.0
C1344 C 0.01375 0.81713 0.30065 0.0
C1345 C 0.01474 0.80154 0.29153 0.0
H1346 H 0.99619 0.8294 0.31606 0.0
H1347 H 0.00598 0.67665 0.22838 0.0
H1348 H 0.42213 0.70586 0.52701 0.0
H1349 H 0.44608 0.73598 0.52419 0.0
H1350 H 0.4994 0.69319 0.5224 0.0
H1351 H 0.47568 0.66311 0.5255 0.0
H1352 H 0.5075 0.72393 0.53781 0.0
H1353 H 0.48069 0.72038 0.4967 0.0
H1354 H 0.45328 0.71905 0.48056 0.0
H1355 H 0.42966 0.77978 0.49205 0.0
H1356 H 0.45676 0.78135 0.50838 0.0
H1357 H 0.58314 0.80293 0.52356 0.0
H1358 H 0.5601 0.77204 0.52092 0.0
H1359 H 0.50498 0.81185 0.52527 0.0
H1360 H 0.5278 0.84282 0.52777 0.0
H1361 H 0.49884 0.78202 0.50748 0.0
H1362 H 0.52381 0.78424 0.54932 0.0
H1363 H 0.55092 0.78567 0.56563 0.0
H1364 H 0.57766 0.72712 0.5527 0.0
H1365 H 0.55086 0.72551 0.5362 0.0
C1366 C 0.43892 0.70283 0.52585 0.0
C1367 C 0.44698 0.68206 0.52655 0.0
C1368 C 0.4526 0.72008 0.52418 0.0
C1369 C 0.47457 0.71687 0.52301 0.0
C1370 C 0.48254 0.69609 0.52332 0.0
C1371 C 0.46892 0.67888 0.52507 0.0
C1372 C 0.48941 0.73516 0.52231 0.0
C1373 C 0.50581 0.73641 0.53101 0.0
C1374 C 0.48693 0.75176 0.51366 0.0
C1375 C 0.47065 0.75089 0.50383 0.0
C1376 C 0.46955 0.73338 0.49585 0.0
C1377 C 0.45409 0.73259 0.48666 0.0
C1378 C 0.43971 0.7493 0.4853 0.0
C1379 C 0.4408 0.76685 0.49312 0.0
C1380 C 0.45622 0.7677 0.50234 0.0
C1381 C 0.56612 0.80518 0.5238 0.0
C1382 C 0.55735 0.82535 0.526 0.0
C1383 C 0.55297 0.78749 0.52233 0.0
C1384 C 0.53083 0.7896 0.52308 0.0
C1385 C 0.52202 0.80984 0.52469 0.0
C1386 C 0.53513 0.82753 0.52617 0.0
C1387 C 0.51686 0.77065 0.52293 0.0
C1388 C 0.5006 0.76936 0.51415 0.0
C1389 C 0.51942 0.75398 0.53151 0.0
C1390 C 0.53549 0.75488 0.54145 0.0
C1391 C 0.53557 0.77176 0.54989 0.0
C1392 C 0.55086 0.77259 0.55918 0.0
C1393 C 0.56604 0.75653 0.56018 0.0
C1394 C 0.56592 0.73957 0.55191 0.0
C1395 C 0.55068 0.73869 0.54259 0.0
H1396 H 0.57786 0.75719 0.56738 0.0
H1397 H 0.42775 0.74866 0.47818 0.0
H1398 H 0.59318 0.22796 0.77533 0.0
H1399 H 0.56309 0.25179 0.77242 0.0
H1400 H 0.52067 0.19812 0.77149 0.0
H1401 H 0.5508 0.17409 0.77405 0.0
H1402 H 0.50799 0.2273 0.75547 0.0
H1403 H 0.52821 0.22699 0.79794 0.0
H1404 H 0.55264 0.23047 0.81552 0.0
H1405 H 0.56484 0.29535 0.8058 0.0
H1406 H 0.54068 0.29216 0.78805 0.0
H1407 H 0.41318 0.27816 0.77615 0.0
H1408 H 0.44452 0.25599 0.7731 0.0
H1409 H 0.48358 0.31197 0.77058 0.0
H1410 H 0.4523 0.33433 0.77363 0.0
H1411 H 0.4986 0.28285 0.78731 0.0
H1412 H 0.47497 0.28289 0.74545 0.0
H1413 H 0.44917 0.27835 0.72864 0.0
H1414 H 0.4416 0.2127 0.73818 0.0
H1415 H 0.46714 0.21691 0.75517 0.0
C1416 C 0.57749 0.22118 0.77436 0.0
C1417 C 0.57438 0.19912 0.77505 0.0
C1418 C 0.56027 0.23485 0.77274 0.0
C1419 C 0.53955 0.22679 0.77201 0.0
C1420 C 0.5365 0.20472 0.77208 0.0
C1421 C 0.55375 0.191 0.77357 0.0
C1422 C 0.52103 0.24137 0.77185 0.0
C1423 C 0.50584 0.23933 0.76249 0.0
C1424 C 0.51834 0.25728 0.78091 0.0
C1425 C 0.53282 0.25927 0.79159 0.0
C1426 C 0.53623 0.24195 0.7995 0.0
C1427 C 0.55 0.24387 0.8095 0.0
C1428 C 0.56033 0.2631 0.81175 0.0
C1429 C 0.55686 0.28045 0.80403 0.0
C1430 C 0.54312 0.2786 0.794 0.0
C1431 C 0.42838 0.2858 0.77479 0.0
C1432 C 0.43023 0.30804 0.77519 0.0
C1433 C 0.44627 0.27309 0.77299 0.0
C1434 C 0.46636 0.28234 0.77157 0.0
C1435 C 0.46821 0.30453 0.77164 0.0
C1436 C 0.45029 0.31728 0.77335 0.0
C1437 C 0.48559 0.26882 0.77093 0.0
C1438 C 0.50086 0.27098 0.78021 0.0
C1439 C 0.48815 0.25287 0.7619 0.0
C1440 C 0.47284 0.25027 0.75166 0.0
C1441 C 0.46768 0.26752 0.74403 0.0
C1442 C 0.45312 0.265 0.73445 0.0
C1443 C 0.44372 0.24526 0.73236 0.0
C1444 C 0.44889 0.22798 0.73982 0.0
C1445 C 0.46342 0.23042 0.74942 0.0
H1446 H 0.43245 0.24334 0.72494 0.0
H1447 H 0.57099 0.26456 0.8195 0.0
H1448 H 0.97829 0.84508 0.47373 0.0
H1449 H 0.00208 0.815 0.47668 0.0
H1450 H 0.94843 0.77259 0.47775 0.0
H1451 H 0.92439 0.80273 0.47503 0.0
H1452 H 0.97814 0.76085 0.49427 0.0
H1453 H 0.9768 0.77913 0.45144 0.0
H1454 H 0.97992 0.80288 0.43354 0.0
H1455 H 0.04493 0.81553 0.44272 0.0
H1456 H 0.04211 0.79206 0.46079 0.0
H1457 H 0.02799 0.66495 0.47543 0.0
H1458 H 0.00628 0.6966 0.47821 0.0
H1459 H 0.06253 0.73553 0.47797 0.0
H1460 H 0.08446 0.70388 0.47508 0.0
H1461 H 0.03284 0.74996 0.46212 0.0
H1462 H 0.03443 0.72874 0.50428 0.0
H1463 H 0.0307 0.70408 0.52172 0.0
H1464 H 0.96467 0.69582 0.51334 0.0
H1465 H 0.96807 0.7202 0.49573 0.0
C1466 C 0.97149 0.82939 0.47471 0.0
C1467 C 0.94942 0.8263 0.474 0.0
C1468 C 0.98514 0.81219 0.47637 0.0
C1469 C 0.97707 0.79149 0.4772 0.0
C1470 C 0.95501 0.78843 0.47708 0.0
C1471 C 0.94129 0.80567 0.4755 0.0
C1472 C 0.99168 0.77301 0.47754 0.0
C1473 C 0.98998 0.75835 0.48719 0.0
C1474 C 0.00741 0.76996 0.46842 0.0
C1475 C 0.00917 0.78403 0.45754 0.0
C1476 C 0.99171 0.78711 0.4497 0.0
C1477 C 0.99343 0.8005 0.43951 0.0
C1478 C 0.01259 0.81076 0.43701 0.0
C1479 C 0.03009 0.8076 0.44468 0.0
C1480 C 0.02844 0.79425 0.45489 0.0
C1481 C 0.03583 0.6802 0.47612 0.0
C1482 C 0.058 0.68186 0.47497 0.0
C1483 C 0.02336 0.69829 0.47778 0.0
C1484 C 0.03278 0.71843 0.47837 0.0
C1485 C 0.05494 0.72013 0.47756 0.0
C1486 C 0.06746 0.70201 0.47595 0.0
C1487 C 0.01934 0.73776 0.47886 0.0
C1488 C 0.02118 0.75256 0.46929 0.0
C1489 C 0.00367 0.7408 0.488 0.0
C1490 C 1.00155 0.72617 0.49861 0.0
C1491 C 0.01915 0.72153 0.50609 0.0
C1492 C 0.01709 0.70763 0.51602 0.0
C1493 C 0.99747 0.69835 0.51862 0.0
C1494 C 0.97986 0.703 0.51131 0.0
C1495 C 0.98184 0.71689 0.50136 0.0
H1496 H 0.99591 0.68759 0.52631 0.0
H1497 H 0.0139 0.82112 0.42912 0.0
H1498 H 0.55037 0.8328 0.72447 0.0
H1499 H 0.52026 0.809 0.7275 0.0
H1500 H 0.56273 0.75532 0.72818 0.0
H1501 H 0.59282 0.77896 0.72475 0.0
H1502 H 0.53168 0.74724 0.71353 0.0
H1503 H 0.53592 0.77413 0.75452 0.0
H1504 H 0.53779 0.80144 0.7707 0.0
H1505 H 0.47721 0.82586 0.75952 0.0
H1506 H 0.47511 0.79887 0.74316 0.0
H1507 H 0.45216 0.67273 0.72871 0.0
H1508 H 0.48305 0.69572 0.73142 0.0
H1509 H 0.44396 0.75081 0.72522 0.0
H1510 H 0.41295 0.728 0.72252 0.0
H1511 H 0.47381 0.75695 0.74389 0.0
H1512 H 0.47132 0.73145 0.70208 0.0
H1513 H 0.46955 0.70396 0.68599 0.0
H1514 H 0.52759 0.67662 0.69923 0.0
H1515 H 0.52953 0.7038 0.71552 0.0
C1516 C 0.55333 0.81596 0.72544 0.0
C1517 C 0.57399 0.80778 0.72432 0.0
C1518 C 0.53609 0.80235 0.72723 0.0
C1519 C 0.53919 0.78033 0.72818 0.0
C1520 C 0.5599 0.77223 0.72745 0.0
C1521 C 0.5771 0.78578 0.72551 0.0
C1522 C 0.52079 0.76562 0.72901 0.0
C1523 C 0.51927 0.74916 0.72035 0.0
C1524 C 0.50426 0.76836 0.73769 0.0
C1525 C 0.50545 0.78458 0.74754 0.0
C1526 C 0.52307 0.78542 0.75545 0.0
C1527 C 0.52416 0.80083 0.76467 0.0
C1528 C 0.50765 0.81541 0.76612 0.0
C1529 C 0.49 0.81457 0.75838 0.0
C1530 C 0.48884 0.79921 0.74914 0.0
C1531 C 0.45004 0.68975 0.72809 0.0
C1532 C 0.4301 0.69851 0.72527 0.0
C1533 C 0.46773 0.70286 0.72962 0.0
C1534 C 0.46582 0.72494 0.72837 0.0
C1535 C 0.44577 0.7338 0.7262 0.0
C1536 C 0.42809 0.72072 0.72461 0.0
C1537 C 0.48491 0.73869 0.72847 0.0
C1538 C 0.48644 0.75497 0.73722 0.0
C1539 C 0.50154 0.73578 0.71992 0.0
C1540 C 0.50044 0.7195 0.7101 0.0
C1541 C 0.4836 0.71947 0.70162 0.0
C1542 C 0.48259 0.70397 0.69245 0.0
C1543 C 0.49841 0.68851 0.69161 0.0
C1544 C 0.51532 0.68857 0.69991 0.0
C1545 C 0.51639 0.70403 0.7091 0.0
H1546 H 0.4976 0.67653 0.68451 0.0
H1547 H 0.50853 0.82732 0.77326 0.0
H1548 H 0.52842 0.16192 0.97554 0.0
H1549 H 0.50467 0.19206 0.97839 0.0
H1550 H 0.55777 0.23495 0.97566 0.0
H1551 H 0.58179 0.20476 0.97308 0.0
H1552 H 0.53011 0.24859 0.99268 0.0
H1553 H 0.52619 0.22491 0.95083 0.0
H1554 H 0.52116 0.19893 0.93414 0.0
H1555 H 0.4577 0.18682 0.94659 0.0
H1556 H 0.46245 0.21253 0.96347 0.0
H1557 H 0.47574 0.34126 0.97243 0.0
H1558 H 0.49856 0.31042 0.97535 0.0
H1559 H 0.44344 0.27047 0.97923 0.0
H1560 H 0.4204 0.30127 0.97621 0.0
H1561 H 0.47118 0.25473 0.96268 0.0
H1562 H 0.47492 0.28127 0.00386 0.0
H1563 H 0.4806 0.30824 0.01993 0.0
H1564 H 0.54504 0.31628 0.00807 0.0
H1565 H 0.53967 0.28955 0.99181 0.0
C1566 C 0.53512 0.17774 0.97567 0.0
C1567 C 0.557 0.18093 0.97394 0.0
C1568 C 0.52149 0.19497 0.97727 0.0
C1569 C 0.52937 0.21579 0.97698 0.0
C1570 C 0.55132 0.21902 0.97586 0.0
C1571 C 0.56503 0.20174 0.97437 0.0
C1572 C 0.51459 0.23415 0.97717 0.0
C1573 C 0.51733 0.25004 0.98606 0.0
C1574 C 0.49769 0.23588 0.96865 0.0
C1575 C 0.49476 0.22047 0.95849 0.0
C1576 C 0.51122 0.21659 0.95006 0.0
C1577 C 0.50841 0.20193 0.94056 0.0
C1578 C 0.48914 0.19119 0.93933 0.0
C1579 C 0.47262 0.19513 0.94757 0.0
C1580 C 0.47536 0.20975 0.9571 0.0
C1581 C 0.46841 0.32598 0.97406 0.0
C1582 C 0.4462 0.32375 0.97403 0.0
C1583 C 0.48152 0.30836 0.97579 0.0
C1584 C 0.47271 0.28815 0.97758 0.0
C1585 C 0.45056 0.28593 0.97788 0.0
C1586 C 0.43742 0.30357 0.97618 0.0
C1587 C 0.48662 0.26918 0.97822 0.0
C1588 C 0.48379 0.25319 0.96941 0.0
C1589 C 0.50352 0.26751 0.98673 0.0
C1590 C 0.50683 0.28352 0.99655 0.0
C1591 C 0.49026 0.2889 0.00461 0.0
C1592 C 0.49343 0.30412 0.01377 0.0
C1593 C 0.51316 0.314 0.015 0.0
C1594 C 0.52977 0.30863 0.0071 0.0
C1595 C 0.52668 0.29342 0.99792 0.0
H1596 H 0.51558 0.32579 0.0221 0.0
H1597 H 0.487 0.17985 0.93196 0.0
H1598 H 0.092 0.28088 0.22824 0.0
H1599 H 0.06198 0.25711 0.23155 0.0
H1600 H 0.01875 0.30953 0.22677 0.0
H1601 H 0.04879 0.33357 0.22386 0.0
H1602 H 0.00415 0.28369 0.24395 0.0
H1603 H 0.03089 0.27519 0.20292 0.0
H1604 H 0.05807 0.26838 0.18711 0.0
H1605 H 0.06936 0.20651 0.20226 0.0
H1606 H 0.04244 0.21307 0.21827 0.0
H1607 H 0.91312 0.22781 0.22261 0.0
H1608 H 0.94383 0.2507 0.22579 0.0
H1609 H 0.98272 0.19583 0.23307 0.0
H1610 H 0.95207 0.17271 0.2298 0.0
H1611 H 1.00023 0.22167 0.21598 0.0
H1612 H 0.97 0.22997 0.25607 0.0
H1613 H 0.94158 0.23753 0.271 0.0
H1614 H 0.93527 0.30062 0.25659 0.0
H1615 H 0.96347 0.29335 0.24146 0.0
C1616 C 0.07611 0.28742 0.22805 0.0
C1617 C 0.07277 0.30908 0.22565 0.0
C1618 C 0.05895 0.27379 0.2299 0.0
C1619 C 0.03807 0.28143 0.22912 0.0
C1620 C 0.03471 0.30324 0.22735 0.0
C1621 C 0.05191 0.31697 0.22567 0.0
C1622 C 0.0198 0.26653 0.22944 0.0
C1623 C 0.00321 0.27023 0.23777 0.0
C1624 C 0.01869 0.24873 0.22151 0.0
C1625 C 0.03482 0.24471 0.21187 0.0
C1626 C 0.03928 0.26019 0.20293 0.0
C1627 C 0.05462 0.25637 0.19393 0.0
C1628 C 0.06548 0.23705 0.1937 0.0
C1629 C 0.06097 0.22148 0.20246 0.0
C1630 C 0.04566 0.22524 0.2115 0.0
C1631 C 0.92813 0.22057 0.22504 0.0
C1632 C 0.93013 0.19838 0.22589 0.0
C1633 C 0.94566 0.23373 0.22692 0.0
C1634 C 0.96555 0.22499 0.22974 0.0
C1635 C 0.9675 0.2029 0.23092 0.0
C1636 C 0.94994 0.18971 0.22908 0.0
C1637 C 0.98457 0.23881 0.23048 0.0
C1638 C 1.00128 0.23497 0.22228 0.0
C1639 C 0.98561 0.25657 0.23842 0.0
C1640 C 0.96875 0.26105 0.24757 0.0
C1641 C 0.96245 0.24541 0.25603 0.0
C1642 C 0.9464 0.24965 0.26453 0.0
C1643 C 0.93659 0.26953 0.26472 0.0
C1644 C 0.94287 0.28522 0.25642 0.0
C1645 C 0.95891 0.28106 0.24789 0.0
H1646 H 0.92416 0.27278 0.27131 0.0
H1647 H 0.07735 0.23411 0.18673 0.0
H1648 H 0.97719 0.66443 0.97206 0.0
H1649 H 1.00041 0.69497 0.97511 0.0
H1650 H 0.9458 0.73535 0.97984 0.0
H1651 H 0.92237 0.70488 0.97673 0.0
H1652 H 0.97374 0.75111 0.96308 0.0
H1653 H 0.97711 0.72345 0.0041 0.0
H1654 H 0.98266 0.69596 0.01988 0.0
H1655 H 0.04706 0.68798 0.00793 0.0
H1656 H 0.04181 0.71523 0.99195 0.0
H1657 H 0.03031 0.84359 0.97704 0.0
H1658 H 0.00674 0.81322 0.97952 0.0
H1659 H 0.06022 0.77079 0.97683 0.0
H1660 H 0.08406 0.80122 0.97465 0.0
H1661 H 0.03229 0.75633 0.99339 0.0
H1662 H 0.02916 0.7811 0.95182 0.0
H1663 H 0.02454 0.80744 0.93529 0.0
H1664 H 0.96078 0.8193 0.94732 0.0
H1665 H 0.96512 0.79322 0.96403 0.0
C1666 C 0.97007 0.67975 0.97389 0.0
C1667 C 0.94788 0.6822 0.9741 0.0
C1668 C 0.9834 0.69718 0.9757 0.0
C1669 C 0.97484 0.71742 0.97777 0.0
C1670 C 0.95273 0.71986 0.97827 0.0
C1671 C 0.93936 0.7024 0.97652 0.0
C1672 C 0.98894 0.73623 0.97855 0.0
C1673 C 0.98628 0.75244 0.96986 0.0
C1674 C 0.00577 0.7376 0.98712 0.0
C1675 C 0.009 0.72127 0.99676 0.0
C1676 C 0.9924 0.71572 0.00477 0.0
C1677 C 0.99551 0.7002 0.01376 0.0
C1678 C 0.01519 0.6902 0.01489 0.0
C1679 C 0.03182 0.69573 0.00704 0.0
C1680 C 0.0288 0.71123 0.99802 0.0
C1681 C 0.03713 0.82782 0.97712 0.0
C1682 C 0.05906 0.82483 0.9755 0.0
C1683 C 0.02361 0.81046 0.9785 0.0
C1684 C 0.03164 0.7897 0.97809 0.0
C1685 C 0.05365 0.78666 0.97712 0.0
C1686 C 0.06726 0.80408 0.97586 0.0
C1687 C 0.01697 0.77125 0.97796 0.0
C1688 C 0.01961 0.75508 0.9867 0.0
C1689 C 1.00023 0.76974 0.96933 0.0
C1690 C 0.99754 0.78537 0.95925 0.0
C1691 C 0.01421 0.78944 0.951 0.0
C1692 C 0.01163 0.8043 0.94159 0.0
C1693 C 0.9924 0.81508 0.94028 0.0
C1694 C 0.97568 0.81097 0.94836 0.0
C1695 C 0.97818 0.79613 0.95779 0.0
H1696 H 0.99044 0.82658 0.93298 0.0
H1697 H 0.01756 0.67818 0.02186 0.0
H1698 H 0.91386 0.276 0.7223 0.0
H1699 H 0.94466 0.25315 0.72525 0.0
H1700 H 0.98445 0.30825 0.72982 0.0
H1701 H 0.9537 0.33132 0.72675 0.0
H1702 H 1.00076 0.28086 0.71334 0.0
H1703 H 0.97291 0.27619 0.75417 0.0
H1704 H 0.94547 0.27014 0.76991 0.0
H1705 H 0.93789 0.20592 0.7575 0.0
H1706 H 0.96509 0.21167 0.74157 0.0
H1707 H 0.09316 0.2233 0.72669 0.0
H1708 H 0.06295 0.24701 0.72943 0.0
H1709 H 0.02016 0.19396 0.72594 0.0
H1710 H 0.0504 0.16996 0.72349 0.0
H1711 H 0.00598 0.22126 0.74295 0.0
H1712 H 0.03106 0.22618 0.70139 0.0
H1713 H 0.05762 0.23165 0.68507 0.0
H1714 H 0.06921 0.29482 0.69821 0.0
H1715 H 0.04292 0.28962 0.71473 0.0
C1716 C 0.9291 0.28331 0.72408 0.0
C1717 C 0.93129 0.30554 0.72424 0.0
C1718 C 0.9467 0.27019 0.72583 0.0
C1719 C 0.96685 0.27897 0.72784 0.0
C1720 C 0.96903 0.30113 0.7283 0.0
C1721 C 0.95142 0.31429 0.72657 0.0
C1722 C 0.98581 0.26505 0.72858 0.0
C1723 C 0.00209 0.2681 0.71998 0.0
C1724 C 0.98723 0.24797 0.73699 0.0
C1725 C 0.97093 0.24443 0.7466 0.0
C1726 C 0.96528 0.26083 0.75473 0.0
C1727 C 0.94979 0.25744 0.76371 0.0
C1728 C 0.93991 0.23768 0.76469 0.0
C1729 C 0.94555 0.22123 0.75672 0.0
C1730 C 0.96102 0.22454 0.74773 0.0
C1731 C 0.07734 0.2166 0.72663 0.0
C1732 C 0.07419 0.19475 0.72473 0.0
C1733 C 0.06007 0.23021 0.72817 0.0
C1734 C 0.03927 0.22234 0.72762 0.0
C1735 C 0.03607 0.2004 0.72634 0.0
C1736 C 0.05338 0.18671 0.72492 0.0
C1737 C 0.02091 0.23713 0.72772 0.0
C1738 C 0.00472 0.23418 0.73641 0.0
C1739 C 0.01944 0.25423 0.71932 0.0
C1740 C 0.03519 0.25743 0.70937 0.0
C1741 C 0.03939 0.24118 0.70085 0.0
C1742 C 0.05438 0.24424 0.69156 0.0
C1743 C 0.06514 0.26355 0.69062 0.0
C1744 C 0.06089 0.27986 0.69896 0.0
C1745 C 0.04594 0.27688 0.70828 0.0
H1746 H 0.07673 0.26589 0.68342 0.0
H1747 H 0.92792 0.23509 0.77164 0.0
H1748 H 0.58314 0.30335 0.4764 0.0
H1749 H 0.56053 0.27223 0.47927 0.0
H1750 H 0.50488 0.31179 0.47697 0.0
H1751 H 0.52732 0.34302 0.4741 0.0
H1752 H 0.50136 0.28012 0.49491 0.0
H1753 H 0.52033 0.28687 0.4522 0.0
H1754 H 0.54513 0.2905 0.43481 0.0
H1755 H 0.57461 0.23143 0.44452 0.0
H1756 H 0.55016 0.2276 0.46208 0.0
H1757 H 0.4235 0.20438 0.47635 0.0
H1758 H 0.44726 0.23459 0.47928 0.0
H1759 H 0.50134 0.19283 0.47701 0.0
H1760 H 0.47775 0.16266 0.4738 0.0
H1761 H 0.5067 0.22521 0.4624 0.0
H1762 H 0.48603 0.21703 0.50441 0.0
H1763 H 0.46118 0.21347 0.52176 0.0
H1764 H 0.43487 0.27471 0.51363 0.0
H1765 H 0.45937 0.27852 0.49611 0.0
C1766 C 0.56611 0.30551 0.47669 0.0
C1767 C 0.55705 0.32567 0.47489 0.0
C1768 C 0.55321 0.28769 0.4783 0.0
C1769 C 0.53104 0.28969 0.47819 0.0
C1770 C 0.52196 0.30991 0.47707 0.0
C1771 C 0.53483 0.32773 0.47537 0.0
C1772 C 0.51731 0.2706 0.47832 0.0
C1773 C 0.50238 0.26815 0.48778 0.0
C1774 C 0.51893 0.25485 0.46912 0.0
C1775 C 0.53358 0.25707 0.45853 0.0
C1776 C 0.53222 0.27475 0.45069 0.0
C1777 C 0.54619 0.27682 0.44079 0.0
C1778 C 0.56148 0.26124 0.43858 0.0
C1779 C 0.56279 0.24351 0.44625 0.0
C1780 C 0.54887 0.24137 0.45617 0.0
C1781 C 0.44043 0.20157 0.47666 0.0
C1782 C 0.44871 0.1811 0.47477 0.0
C1783 C 0.45402 0.21887 0.47839 0.0
C1784 C 0.47613 0.216 0.47843 0.0
C1785 C 0.48436 0.19546 0.47698 0.0
C1786 C 0.47082 0.17821 0.47516 0.0
C1787 C 0.4907 0.23451 0.47905 0.0
C1788 C 0.50576 0.23697 0.46966 0.0
C1789 C 0.48916 0.2502 0.48833 0.0
C1790 C 0.47442 0.24797 0.49887 0.0
C1791 C 0.47483 0.22967 0.50626 0.0
C1792 C 0.46083 0.22762 0.51614 0.0
C1793 C 0.44642 0.24383 0.51878 0.0
C1794 C 0.44602 0.26215 0.51156 0.0
C1795 C 0.45998 0.26428 0.50166 0.0
H1796 H 0.43559 0.24221 0.52644 0.0
H1797 H 0.57227 0.26287 0.43091 0.0
H1798 H 0.45294 0.83078 0.22874 0.0
H1799 H 0.48362 0.80769 0.23197 0.0
H1800 H 0.44415 0.75262 0.22653 0.0
H1801 H 0.41338 0.77549 0.22339 0.0
H1802 H 0.47313 0.74647 0.24505 0.0
H1803 H 0.47282 0.7714 0.20317 0.0
H1804 H 0.47208 0.79855 0.18687 0.0
H1805 H 0.52984 0.82551 0.20077 0.0
H1806 H 0.53076 0.79867 0.21726 0.0
H1807 H 0.55015 0.66991 0.22635 0.0
H1808 H 0.51997 0.69378 0.22915 0.0
H1809 H 0.56263 0.74717 0.23132 0.0
H1810 H 0.59278 0.72352 0.22823 0.0
H1811 H 0.53254 0.75524 0.21563 0.0
H1812 H 0.53439 0.72848 0.25673 0.0
H1813 H 0.53508 0.70114 0.27292 0.0
H1814 H 0.47486 0.67743 0.26066 0.0
H1815 H 0.47393 0.70446 0.24428 0.0
C1816 C 0.4507 0.81375 0.22839 0.0
C1817 C 0.43071 0.80501 0.22568 0.0
C1818 C 0.46828 0.80058 0.23021 0.0
C1819 C 0.46621 0.77845 0.22933 0.0
C1820 C 0.44611 0.76965 0.22723 0.0
C1821 C 0.42855 0.78279 0.22538 0.0
C1822 C 0.48516 0.7645 0.22978 0.0
C1823 C 0.48608 0.74826 0.23858 0.0
C1824 C 0.50221 0.7671 0.22147 0.0
C1825 C 0.50173 0.78318 0.21153 0.0
C1826 C 0.48527 0.78322 0.20281 0.0
C1827 C 0.48483 0.79853 0.19352 0.0
C1828 C 0.50087 0.81378 0.1928 0.0
C1829 C 0.51741 0.81371 0.20135 0.0
C1830 C 0.5179 0.79845 0.21066 0.0
C1831 C 0.55313 0.68668 0.22762 0.0
C1832 C 0.57388 0.69481 0.22699 0.0
C1833 C 0.53585 0.70033 0.22927 0.0
C1834 C 0.539 0.7223 0.2305 0.0
C1835 C 0.55977 0.7303 0.23035 0.0
C1836 C 0.57701 0.71673 0.2286 0.0
C1837 C 0.52068 0.73715 0.23096 0.0
C1838 C 0.51978 0.75353 0.22224 0.0
C1839 C 0.5037 0.73464 0.23935 0.0
C1840 C 0.50419 0.71839 0.24921 0.0
C1841 C 0.52137 0.71733 0.25743 0.0
C1842 C 0.52179 0.70191 0.26665 0.0
C1843 C 0.50505 0.68753 0.2678 0.0
C1844 C 0.48782 0.68857 0.25975 0.0
C1845 C 0.48733 0.70396 0.2505 0.0
H1846 H 0.5054 0.6756 0.27495 0.0
H1847 H 0.50051 0.82562 0.18561 0.0
H1848 H 0.97551 0.34023 0.52631 0.0
H1849 H 0.99798 0.30909 0.52335 0.0
H1850 H 0.94244 0.26937 0.52112 0.0
H1851 H 0.91976 0.30046 0.52408 0.0
H1852 H 0.97174 0.25481 0.5378 0.0
H1853 H 0.97137 0.27792 0.49589 0.0
H1854 H 0.97549 0.30353 0.47895 0.0
H1855 H 0.04104 0.31216 0.4884 0.0
H1856 H 0.03724 0.28682 0.50552 0.0
H1857 H 0.02825 0.16091 0.5261 0.0
H1858 H 0.00391 0.19059 0.52316 0.0
H1859 H 0.05682 0.23395 0.52223 0.0
H1860 H 0.08136 0.20423 0.52483 0.0
H1861 H 0.0275 0.24588 0.50606 0.0
H1862 H 0.02794 0.2261 0.54863 0.0
H1863 H 0.02473 0.20175 0.56626 0.0
H1864 H 0.96012 0.18849 0.55643 0.0
H1865 H 0.96304 0.21256 0.53863 0.0
C1866 C 0.96802 0.32492 0.52503 0.0
C1867 C 0.94581 0.32284 0.52549 0.0
C1868 C 0.98091 0.30714 0.52328 0.0
C1869 C 0.97188 0.28693 0.52197 0.0
C1870 C 0.94972 0.28484 0.5221 0.0
C1871 C 0.93679 0.30265 0.52375 0.0
C1872 C 0.98562 0.26784 0.52139 0.0
C1873 C 0.98365 0.25264 0.53072 0.0
C1874 C 1.0016 0.26539 0.51237 0.0
C1875 C 0.00396 0.28059 0.50206 0.0
C1876 C 0.98662 0.2854 0.49442 0.0
C1877 C 0.98891 0.29985 0.48477 0.0
C1878 C 0.0085 0.3095 0.48261 0.0
C1879 C 0.02587 0.30469 0.49009 0.0
C1880 C 0.02366 0.29026 0.49976 0.0
C1881 C 0.03476 0.17673 0.52514 0.0
C1882 C 0.05676 0.18022 0.52583 0.0
C1883 C 0.0208 0.1937 0.5235 0.0
C1884 C 0.0285 0.21456 0.52274 0.0
C1885 C 0.0505 0.218 0.52284 0.0
C1886 C 0.06451 0.20099 0.52436 0.0
C1887 C 0.0136 0.23283 0.52248 0.0
C1888 C 0.01542 0.24793 0.51306 0.0
C1889 C 0.99761 0.23537 0.5315 0.0
C1890 C 0.99578 0.22094 0.54222 0.0
C1891 C 0.0131 0.21786 0.55017 0.0
C1892 C 0.01133 0.20414 0.5602 0.0
C1893 C 0.99225 0.19353 0.56244 0.0
C1894 C 0.9749 0.19669 0.55467 0.0
C1895 C 0.9766 0.21038 0.54461 0.0
H1896 H 0.99091 0.18291 0.57021 0.0
H1897 H 0.01024 0.32068 0.47514 0.0
H1898 H 0.45392 0.16606 0.27787 0.0
H1899 H 0.4861 0.1872 0.275 0.0
H1900 H 0.44806 0.24329 0.26966 0.0
H1901 H 0.41585 0.22235 0.27246 0.0
H1902 H 0.48253 0.24192 0.25389 0.0
H1903 H 0.46801 0.23372 0.29714 0.0
H1904 H 0.46106 0.2135 0.31611 0.0
H1905 H 0.5211 0.18196 0.31245 0.0
H1906 H 0.52826 0.20179 0.29336 0.0
H1907 H 0.5536 0.32477 0.27101 0.0
H1908 H 0.52433 0.29981 0.26818 0.0
H1909 H 0.56619 0.24764 0.27655 0.0
H1910 H 0.59542 0.27245 0.27958 0.0
H1911 H 0.53112 0.24498 0.2897 0.0
H1912 H 0.54717 0.25571 0.24729 0.0
H1913 H 0.55405 0.27623 0.22843 0.0
H1914 H 0.4916 0.3032 0.23037 0.0
H1915 H 0.48444 0.28306 0.24935 0.0
C1916 C 0.45237 0.18282 0.27589 0.0
C1917 C 0.4323 0.19254 0.27552 0.0
C1918 C 0.47079 0.19489 0.2743 0.0
C1919 C 0.46946 0.21686 0.27227 0.0
C1920 C 0.44944 0.22638 0.27123 0.0
C1921 C 0.43104 0.21437 0.2729 0.0
C1922 C 0.48882 0.23022 0.27211 0.0
C1923 C 0.49312 0.24272 0.26173 0.0
C1924 C 0.50281 0.23094 0.28226 0.0
C1925 C 0.49856 0.21904 0.29375 0.0
C1926 C 0.47965 0.22234 0.30033 0.0
C1927 C 0.47568 0.21097 0.31111 0.0
C1928 C 0.4906 0.1964 0.31546 0.0
C1929 C 0.50954 0.19321 0.30906 0.0
C1930 C 0.51356 0.20452 0.29826 0.0
C1931 C 0.55666 0.30796 0.27209 0.0
C1932 C 0.57686 0.30065 0.27559 0.0
C1933 C 0.53992 0.29369 0.27041 0.0
C1934 C 0.54307 0.27181 0.27209 0.0
C1935 C 0.56336 0.26444 0.27523 0.0
C1936 C 0.58008 0.27868 0.27693 0.0
C1937 C 0.52494 0.25678 0.27146 0.0
C1938 C 0.52077 0.24403 0.28175 0.0
C1939 C 0.51111 0.25587 0.26123 0.0
C1940 C 0.51534 0.26801 0.24981 0.0
C1941 C 0.53496 0.26615 0.24376 0.0
C1942 C 0.5389 0.27769 0.23303 0.0
C1943 C 0.52329 0.29105 0.22822 0.0
C1944 C 0.50369 0.29286 0.23412 0.0
C1945 C 0.49967 0.28137 0.24485 0.0
H1946 H 0.52637 0.29997 0.21992 0.0
H1947 H 0.48751 0.18762 0.32382 0.0
H1948 H 0.42441 0.80185 0.02398 0.0
H1949 H 0.4477 0.7711 0.02161 0.0
H1950 H 0.5025 0.81144 0.02555 0.0
H1951 H 0.47939 0.84231 0.02791 0.0
H1952 H 0.50809 0.77998 0.00771 0.0
H1953 H 0.48555 0.78601 0.04979 0.0
H1954 H 0.45942 0.78927 0.06654 0.0
H1955 H 0.43123 0.73003 0.05591 0.0
H1956 H 0.45702 0.72658 0.03897 0.0
H1957 H 0.58403 0.70273 0.02769 0.0
H1958 H 0.56096 0.73353 0.02471 0.0
H1959 H 0.5062 0.69252 0.02432 0.0
H1960 H 0.52901 0.66179 0.02748 0.0
H1961 H 0.50027 0.72438 0.03964 0.0
H1962 H 0.52417 0.71733 0.99807 0.0
H1963 H 0.55042 0.7142 0.98139 0.0
H1964 H 0.57631 0.775 0.99097 0.0
H1965 H 0.55038 0.77837 0.00783 0.0
C1966 C 0.44141 0.80427 0.02416 0.0
C1967 C 0.45002 0.82454 0.02626 0.0
C1968 C 0.45469 0.78666 0.02283 0.0
C1969 C 0.47681 0.78897 0.02356 0.0
C1970 C 0.48548 0.80931 0.02498 0.0
C1971 C 0.47222 0.82692 0.02638 0.0
C1972 C 0.4908 0.77006 0.02376 0.0
C1973 C 0.50654 0.76787 0.01473 0.0
C1974 C 0.48853 0.75416 0.03283 0.0
C1975 C 0.47306 0.75616 0.04303 0.0
C1976 C 0.47366 0.77377 0.05096 0.0
C1977 C 0.45894 0.77564 0.0605 0.0
C1978 C 0.44364 0.7599 0.06226 0.0
C1979 C 0.44307 0.74223 0.05451 0.0
C1980 C 0.45774 0.7403 0.04495 0.0
C1981 C 0.5671 0.70024 0.02681 0.0
C1982 C 0.55838 0.67978 0.0279 0.0
C1983 C 0.55393 0.71787 0.02506 0.0
C1984 C 0.53183 0.71534 0.02425 0.0
C1985 C 0.52319 0.69487 0.02496 0.0
C1986 C 0.53629 0.6773 0.02675 0.0
C1987 C 0.51755 0.73406 0.0235 0.0
C1988 C 0.50178 0.73632 0.03252 0.0
C1989 C 0.51985 0.74997 0.01442 0.0
C1990 C 0.53546 0.748 0.00429 0.0
C1991 C 0.53557 0.72995 0.99669 0.0
C1992 C 0.55037 0.72815 0.98719 0.0
C1993 C 0.56506 0.74437 0.98514 0.0
C1994 C 0.56494 0.76244 0.99258 0.0
C1995 C 0.55018 0.76431 0.0021 0.0
H1996 H 0.57651 0.74295 0.97778 0.0
H1997 H 0.43225 0.76137 0.06965 0.0
H1998 H 0.95162 0.67075 0.77644 0.0
H1999 H 0.98268 0.69372 0.77438 0.0
H2000 H 0.94216 0.74882 0.77394 0.0
H2001 H 0.911 0.72603 0.77598 0.0
H2002 H 0.97568 0.75186 0.75724 0.0
H2003 H 0.96448 0.73569 0.79988 0.0
H2004 H 0.95901 0.71224 0.81772 0.0
H2005 H 0.01927 0.68262 0.81112 0.0
H2006 H 0.02495 0.7057 0.79311 0.0
H2007 H 0.05115 0.83031 0.77643 0.0
H2008 H 0.02043 0.80704 0.77365 0.0
H2009 H 0.06096 0.75219 0.77683 0.0
H2010 H 0.09161 0.7752 0.77974 0.0
H2011 H 0.02737 0.74879 0.79156 0.0
H2012 H 0.03929 0.76638 0.74929 0.0
H2013 H 0.0445 0.79014 0.73155 0.0
H2014 H 0.98303 0.81755 0.73753 0.0
H2015 H 0.97756 0.79415 0.75542 0.0
C2016 C 0.94926 0.68773 0.77572 0.0
C2017 C 0.92882 0.69656 0.77649 0.0
C2018 C 0.96704 0.70083 0.77458 0.0
C2019 C 0.96472 0.72298 0.77416 0.0
C2020 C 0.9443 0.73177 0.77427 0.0
C2021 C 0.92651 0.71871 0.77549 0.0
C2022 C 0.98359 0.737 0.77444 0.0
C2023 C 0.98692 0.75136 0.76478 0.0
C2024 C 0.99836 0.73611 0.78421 0.0
C2025 C 0.99502 0.72226 0.79506 0.0
C2026 C 0.97648 0.72405 0.80216 0.0
C2027 C 0.97336 0.71085 0.81232 0.0
C2028 C 0.98876 0.69591 0.81553 0.0
C2029 C 0.00734 0.69418 0.80861 0.0
C2030 C 0.01052 0.70732 0.79843 0.0
C2031 C 0.05357 0.8133 0.77639 0.0
C2032 C 0.07386 0.80465 0.77837 0.0
C2033 C 0.03599 0.80001 0.77476 0.0
C2034 C 0.0384 0.77786 0.775 0.0
C2035 C 0.05871 0.76923 0.77665 0.0
C2036 C 0.07624 0.78245 0.77828 0.0
C2037 C 0.01968 0.7636 0.77428 0.0
C2038 C 0.01629 0.74924 0.78394 0.0
C2039 C 0.00488 0.76457 0.76452 0.0
C2040 C 0.00811 0.77866 0.75377 0.0
C2041 C 0.02696 0.7776 0.74689 0.0
C2042 C 0.02994 0.79098 0.73679 0.0
C2043 C 0.01413 0.80538 0.73344 0.0
C2044 C 0.99527 0.80641 0.74015 0.0
C2045 C 0.99222 0.79308 0.75026 0.0
H2046 H 0.01647 0.81572 0.72562 0.0
H2047 H 0.98632 0.68571 0.8234 0.0
H2048 H 0.32265 0.33978 0.9682 0.0
H2049 H 0.28654 0.34189 0.976 0.0
H2050 H 0.30574 0.39051 0.00162 0.0
H2051 H 0.34193 0.38908 0.99341 0.0
H2052 H 0.26976 0.33329 0.99628 0.0
H2053 H 0.26431 0.42278 0.0086 0.0
H2054 H 0.27881 0.45698 0.00147 0.0
H2055 H 0.2887 0.4308 0.96551 0.0
H2056 H 0.27402 0.39654 0.97238 0.0
H2057 H 0.18039 0.34687 0.03339 0.0
H2058 H 0.21607 0.34815 0.02488 0.0
H2059 H 0.19361 0.38733 0.99508 0.0
H2060 H 0.15787 0.38704 0.00403 0.0
H2061 H 0.23032 0.40082 0.00132 0.0
H2062 H 0.20365 0.33193 0.99195 0.0
H2063 H 0.18716 0.29716 0.99602 0.0
H2064 H 0.23814 0.28111 0.02047 0.0
H2065 H 0.25481 0.31591 0.01666 0.0
C2066 C 0.31923 0.35096 0.9755 0.0
C2067 C 0.33517 0.36428 0.98019 0.0
C2068 C 0.29852 0.35213 0.97997 0.0
C2069 C 0.29324 0.36648 0.98935 0.0
C2070 C 0.30924 0.37961 0.99421 0.0
C2071 C 0.32997 0.37868 0.98958 0.0
C2072 C 0.27107 0.36724 0.99411 0.0
C2073 C 0.26118 0.34809 0.99737 0.0
C2074 C 0.25956 0.38645 0.9953 0.0
C2075 C 0.26828 0.40704 0.99106 0.0
C2076 C 0.26952 0.42435 0.99917 0.0
C2077 C 0.27778 0.44374 0.99517 0.0
C2078 C 0.28474 0.44604 0.98306 0.0
C2079 C 0.28339 0.42897 0.9749 0.0
C2080 C 0.27513 0.40956 0.97885 0.0
C2081 C 0.18302 0.35576 0.02502 0.0
C2082 C 0.16628 0.36666 0.0193 0.0
C2083 C 0.20346 0.35641 0.02012 0.0
C2084 C 0.20754 0.36739 0.00914 0.0
C2085 C 0.1909 0.37866 0.00352 0.0
C2086 C 0.17046 0.37842 0.0086 0.0
C2087 C 0.22913 0.36687 0.00356 0.0
C2088 C 0.23892 0.38604 1.0002 0.0
C2089 C 0.24031 0.34759 0.00181 0.0
C2090 C 0.23038 0.3266 0.0041 0.0
C2091 C 0.21128 0.32104 0.99825 0.0
C2092 C 0.20191 0.30132 1.00051 0.0
C2093 C 0.21157 0.28696 0.00852 0.0
C2094 C 0.23066 0.29226 0.01427 0.0
C2095 C 0.24009 0.31197 0.01206 0.0
H2096 H 0.2043 0.2717 0.01025 0.0
H2097 H 0.29114 0.46106 0.97998 0.0
H2098 H 0.92135 0.08158 0.23317 0.0
H2099 H 0.91808 0.04523 0.24055 0.0
H2100 H 0.85004 0.05202 0.24199 0.0
H2101 H 0.85331 0.08888 0.23498 0.0
H2102 H 0.86298 0.02963 0.26097 0.0
H2103 H 0.87496 0.02574 0.21787 0.0
H2104 H 0.89268 0.03335 0.19816 0.0
H2105 H 0.95001 0.00473 0.21151 0.0
H2106 H 0.93273 0.99721 0.23137 0.0
H2107 H 0.85199 0.91588 0.26546 0.0
H2108 H 0.84926 0.95202 0.25715 0.0
H2109 H 0.91714 0.95897 0.25976 0.0
H2110 H 0.91997 0.92316 0.26815 0.0
H2111 H 0.9001 0.97344 0.23736 0.0
H2112 H 0.88757 0.98015 0.28116 0.0
H2113 H 0.8688 0.97224 0.30049 0.0
H2114 H 0.81052 0.99487 0.28484 0.0
H2115 H 0.82892 0.00264 0.26534 0.0
C2116 C 0.90568 0.07542 0.23515 0.0
C2117 C 0.88757 0.08805 0.2334 0.0
C2118 C 0.90382 0.05455 0.2393 0.0
C2119 C 0.88377 0.04563 0.24151 0.0
C2120 C 0.86567 0.05847 0.24025 0.0
C2121 C 0.86755 0.07954 0.23625 0.0
C2122 C 0.88189 0.02284 0.24495 0.0
C2123 C 0.87078 0.01732 0.25567 0.0
C2124 C 0.89214 0.00668 0.2381 0.0
C2125 C 0.90258 0.01106 0.22614 0.0
C2126 C 0.89139 0.02119 0.21663 0.0
C2127 C 0.90135 0.02547 0.20543 0.0
C2128 C 0.92247 0.01956 0.2036 0.0
C2129 C 0.93366 0.00931 0.21295 0.0
C2130 C 0.92378 0.00501 0.22417 0.0
C2131 C 0.86633 0.92506 0.26415 0.0
C2132 C 0.88619 0.9167 0.26748 0.0
C2133 C 0.86473 0.94572 0.25946 0.0
C2134 C 0.883 0.9582 0.25792 0.0
C2135 C 0.90286 0.94961 0.26088 0.0
C2136 C 0.90443 0.92915 0.26571 0.0
C2137 C 0.88162 0.98041 0.25346 0.0
C2138 C 0.8921 0.98577 0.24254 0.0
C2139 C 0.87059 0.99633 0.26003 0.0
C2140 C 0.85956 0.99172 0.27175 0.0
C2141 C 0.87072 0.98325 0.28181 0.0
C2142 C 0.86015 0.97884 0.2928 0.0
C2143 C 0.83846 0.98299 0.29388 0.0
C2144 C 0.82731 0.99162 0.28398 0.0
C2145 C 0.8378 0.99604 0.27296 0.0
H2146 H 0.83031 0.97957 0.3024 0.0
H2147 H 0.93015 0.02289 0.19492 0.0
H2148 H 0.15992 0.6139 0.4943 0.0
H2149 H 0.19553 0.61321 0.50341 0.0
H2150 H 0.2155 0.66243 0.47842 0.0
H2151 H 0.18002 0.66367 0.46963 0.0
H2152 H 0.23364 0.6044 0.49533 0.0
H2153 H 0.25061 0.69491 0.4913 0.0
H2154 H 0.23093 0.72873 0.49202 0.0
H2155 H 0.18195 0.69926 0.51345 0.0
H2156 H 0.20146 0.66537 0.513 0.0
H2157 H 0.34413 0.62173 0.505 0.0
H2158 H 0.30795 0.62013 0.49677 0.0
H2159 H 0.28572 0.65781 0.5273 0.0
H2160 H 0.32184 0.66047 0.53505 0.0
H2161 H 0.26747 0.67149 0.50886 0.0
H2162 H 0.27777 0.60104 0.52409 0.0
H2163 H 0.29557 0.5664 0.52627 0.0
H2164 H 0.28678 0.55423 0.4878 0.0
H2165 H 0.26915 0.58892 0.48536 0.0
C2166 C 0.17191 0.62462 0.49081 0.0
C2167 C 0.16707 0.639 0.48134 0.0
C2168 C 0.19227 0.62415 0.49598 0.0
C2169 C 0.20816 0.638 0.49175 0.0
C2170 C 0.20343 0.65193 0.48207 0.0
C2171 C 0.1831 0.65258 0.47702 0.0
C2172 C 0.22964 0.63814 0.49744 0.0
C2173 C 0.24104 0.61906 0.49833 0.0
C2174 C 0.23919 0.65716 0.50161 0.0
C2175 C 0.22742 0.67755 0.502 0.0
C2176 C 0.23568 0.69567 0.4962 0.0
C2177 C 0.22455 0.71485 0.49656 0.0
C2178 C 0.20518 0.71612 0.50274 0.0
C2179 C 0.19692 0.69824 0.50862 0.0
C2180 C 0.208 0.67903 0.50831 0.0
C2181 C 0.33148 0.62968 0.5099 0.0
C2182 C 0.33582 0.6413 0.52062 0.0
C2183 C 0.31075 0.62863 0.50526 0.0
C2184 C 0.29389 0.63861 0.51148 0.0
C2185 C 0.29833 0.65005 0.52225 0.0
C2186 C 0.31904 0.65155 0.5267 0.0
C2187 C 0.2717 0.63775 0.50671 0.0
C2188 C 0.26015 0.65677 0.50593 0.0
C2189 C 0.26179 0.61854 0.50308 0.0
C2190 C 0.27232 0.59766 0.50452 0.0
C2191 C 0.27976 0.59103 0.51608 0.0
C2192 C 0.28979 0.57138 0.51737 0.0
C2193 C 0.29235 0.55815 0.50718 0.0
C2194 C 0.28481 0.56451 0.49568 0.0
C2195 C 0.27478 0.58415 0.49434 0.0
H2196 H 0.30013 0.54294 0.50819 0.0
H2197 H 0.19658 0.73098 0.503 0.0
H2198 H 0.64998 0.08919 0.76566 0.0
H2199 H 0.65294 0.05259 0.75824 0.0
H2200 H 0.58488 0.04602 0.76004 0.0
H2201 H 0.58195 0.08214 0.76785 0.0
H2202 H 0.60184 0.01313 0.76985 0.0
H2203 H 0.61375 0.0513 0.7322 0.0
H2204 H 0.63133 0.07713 0.71858 0.0
H2205 H 0.69053 0.04433 0.72301 0.0
H2206 H 0.67334 0.01844 0.73679 0.0
H2207 H 0.5826 0.92469 0.73155 0.0
H2208 H 0.58577 0.96028 0.7402 0.0
H2209 H 0.65339 0.95201 0.74367 0.0
H2210 H 0.65032 0.91606 0.73509 0.0
H2211 H 0.64061 0.99115 0.73231 0.0
H2212 H 0.62628 0.9509 0.76872 0.0
H2213 H 0.607 0.92493 0.78145 0.0
H2214 H 0.55015 0.96202 0.7783 0.0
H2215 H 0.56901 0.98807 0.76541 0.0
C2216 C 0.63566 0.07999 0.76433 0.0
C2217 C 0.61574 0.08853 0.76736 0.0
C2218 C 0.63735 0.05907 0.76006 0.0
C2219 C 0.61912 0.04648 0.75851 0.0
C2220 C 0.5992 0.05529 0.76123 0.0
C2221 C 0.59754 0.07601 0.76565 0.0
C2222 C 0.6206 0.02391 0.75452 0.0
C2223 C 0.61016 0.00842 0.76157 0.0
C2224 C 0.63196 0.01754 0.74391 0.0
C2225 C 0.64232 0.03309 0.73564 0.0
C2226 C 0.63056 0.0497 0.73035 0.0
C2227 C 0.64044 0.06433 0.72258 0.0
C2228 C 0.66205 0.06241 0.71996 0.0
C2229 C 0.6738 0.04582 0.72507 0.0
C2230 C 0.664 0.03116 0.73285 0.0
C2231 C 0.59815 0.93033 0.73424 0.0
C2232 C 0.61621 0.91753 0.73266 0.0
C2233 C 0.59992 0.95068 0.7392 0.0
C2234 C 0.6198 0.95875 0.74261 0.0
C2235 C 0.6379 0.94604 0.7411 0.0
C2236 C 0.6361 0.92549 0.73627 0.0
C2237 C 0.62146 0.98066 0.7475 0.0
C2238 C 0.63249 0.99595 0.74065 0.0
C2239 C 0.61041 0.98694 0.7582 0.0
C2240 C 0.59904 0.97136 0.76602 0.0
C2241 C 0.60963 0.95344 0.77066 0.0
C2242 C 0.59878 0.93872 0.77792 0.0
C2243 C 0.57735 0.9418 0.78066 0.0
C2244 C 0.56674 0.95965 0.77617 0.0
C2245 C 0.57752 0.97441 0.7689 0.0
H2246 H 0.56898 0.93038 0.78628 0.0
H2247 H 0.66967 0.07376 0.71395 0.0
H2248 H 0.66133 0.61867 0.00675 0.0
H2249 H 0.6975 0.6181 0.99846 0.0
H2250 H 0.71851 0.65775 0.02844 0.0
H2251 H 0.6824 0.65926 0.03629 0.0
H2252 H 0.73593 0.67146 0.0096 0.0
H2253 H 0.72881 0.60169 0.02616 0.0
H2254 H 0.71259 0.56647 0.02917 0.0
H2255 H 0.72139 0.55225 0.99094 0.0
H2256 H 0.73743 0.58751 0.98767 0.0
H2257 H 0.84529 0.61671 0.99512 0.0
H2258 H 0.80989 0.61525 0.00447 0.0
H2259 H 0.78818 0.6635 0.97932 0.0
H2260 H 0.8235 0.66566 0.97038 0.0
H2261 H 0.77231 0.60514 0.99706 0.0
H2262 H 0.75152 0.69461 0.99153 0.0
H2263 H 0.76975 0.72924 0.99153 0.0
H2264 H 0.82023 0.70305 0.01323 0.0
H2265 H 0.80218 0.66835 0.0135 0.0
C2266 C 0.67371 0.62727 0.01153 0.0
C2267 C 0.66901 0.63908 0.02213 0.0
C2268 C 0.69443 0.62682 0.00685 0.0
C2269 C 0.71093 0.63767 0.01289 0.0
C2270 C 0.70615 0.64932 0.02353 0.0
C2271 C 0.68545 0.65015 0.02804 0.0
C2272 C 0.73308 0.63748 0.00805 0.0
C2273 C 0.74382 0.65691 0.00688 0.0
C2274 C 0.74374 0.61853 0.00472 0.0
C2275 C 0.73413 0.59731 0.00665 0.0
C2276 C 0.72715 0.59111 0.01838 0.0
C2277 C 0.71801 0.57113 0.02013 0.0
C2278 C 0.71591 0.55716 0.01025 0.0
C2279 C 0.723 0.56311 0.99859 0.0
C2280 C 0.73213 0.58307 0.99678 0.0
C2281 C 0.83296 0.62708 0.99166 0.0
C2282 C 0.83727 0.64149 0.98213 0.0
C2283 C 0.81272 0.62617 0.99696 0.0
C2284 C 0.79638 0.63954 0.99276 0.0
C2285 C 0.80058 0.65344 0.98298 0.0
C2286 C 0.82082 0.65461 0.97784 0.0
C2287 C 0.77497 0.63912 0.99855 0.0
C2288 C 0.76437 0.61964 0.99984 0.0
C2289 C 0.76469 0.65795 0.00245 0.0
C2290 C 0.77558 0.67883 0.00243 0.0
C2291 C 0.76647 0.69627 0.99634 0.0
C2292 C 0.77678 0.7159 0.99629 0.0
C2293 C 0.79617 0.71832 0.00235 0.0
C2294 C 0.80525 0.70113 0.00851 0.0
C2295 C 0.795 0.68147 0.0086 0.0
H2296 H 0.80413 0.73353 0.00229 0.0
H2297 H 0.70883 0.5417 0.01162 0.0
H2298 H 0.09219 0.92898 0.78357 0.0
H2299 H 0.09354 0.96437 0.77466 0.0
H2300 H 0.13782 0.94228 0.74727 0.0
H2301 H 0.13722 0.90681 0.75656 0.0
H2302 H 0.14943 0.97963 0.75424 0.0
H2303 H 0.08368 0.95076 0.74082 0.0
H2304 H 0.04888 0.93321 0.74272 0.0
H2305 H 0.02664 0.98396 0.76566 0.0
H2306 H 0.06141 1.00169 0.76403 0.0
H2307 H 0.09177 0.07039 0.71756 0.0
H2308 H 0.09358 0.03428 0.72541 0.0
H2309 H 0.13728 0.05467 0.75357 0.0
H2310 H 0.1363 0.09083 0.74528 0.0
H2311 H 0.08213 0.01704 0.74491 0.0
H2312 H 0.16885 0.01425 0.76279 0.0
H2313 H 0.20374 0.02978 0.75784 0.0
H2314 H 0.18427 0.03888 0.72042 0.0
H2315 H 0.14937 0.02317 0.7251 0.0
C2316 C 0.1022 0.93159 0.77562 0.0
C2317 C 0.11445 0.91502 0.77069 0.0
C2318 C 0.1029 0.95188 0.7705 0.0
C2319 C 0.11544 0.95599 0.76011 0.0
C2320 C 0.12795 0.93952 0.75525 0.0
C2321 C 0.12754 0.91923 0.76053 0.0
C2322 C 0.11533 0.97746 0.75436 0.0
C2323 C 0.13471 0.98779 0.75217 0.0
C2324 C 0.09618 0.98804 0.75139 0.0
C2325 C 0.07521 0.97746 0.75239 0.0
C2326 C 0.07141 0.95811 0.74634 0.0
C2327 C 0.05169 0.94814 0.74736 0.0
C2328 C 0.03558 0.95744 0.75433 0.0
C2329 C 0.03914 0.97676 0.76027 0.0
C2330 C 0.05885 0.98679 0.7593 0.0
C2331 C 0.10181 0.06721 0.72541 0.0
C2332 C 0.11391 0.08348 0.7308 0.0
C2333 C 0.10281 0.04651 0.72992 0.0
C2334 C 0.11571 0.04155 0.74004 0.0
C2335 C 0.12757 0.05788 0.74559 0.0
C2336 C 0.12689 0.0786 0.74091 0.0
C2337 C 0.11623 0.01938 0.74486 0.0
C2338 C 0.09689 0.00892 0.74693 0.0
C2339 C 0.13543 0.00843 0.74727 0.0
C2340 C 0.15643 0.01774 0.74434 0.0
C2341 C 0.17204 0.01951 0.7535 0.0
C2342 C 0.19182 0.02835 0.75074 0.0
C2343 C 0.19619 0.03537 0.73884 0.0
C2344 C 0.18083 0.0335 0.72965 0.0
C2345 C 0.16104 0.02466 0.73235 0.0
H2346 H 0.2115 0.04222 0.73672 0.0
H2347 H 0.02031 0.9497 0.7551 0.0
H2348 H 0.82878 0.33384 0.51947 0.0
H2349 H 0.79337 0.33728 0.51067 0.0
H2350 H 0.8038 0.40416 0.50495 0.0
H2351 H 0.83956 0.40082 0.51374 0.0
H2352 H 0.76421 0.39414 0.51631 0.0
H2353 H 0.80453 0.37373 0.48085 0.0
H2354 H 0.82993 0.35184 0.46919 0.0
H2355 H 0.79054 0.29704 0.47448 0.0
H2356 H 0.76503 0.31854 0.48632 0.0
H2357 H 0.66686 0.40301 0.48238 0.0
H2358 H 0.70345 0.40555 0.48984 0.0
H2359 H 0.70797 0.33721 0.49008 0.0
H2360 H 0.67193 0.33469 0.48211 0.0
H2361 H 0.74145 0.35173 0.48026 0.0
H2362 H 0.70313 0.36966 0.51711 0.0
H2363 H 0.67779 0.38987 0.5298 0.0
H2364 H 0.71289 0.4471 0.52313 0.0
H2365 H 0.7383 0.42726 0.51028 0.0
C2366 C 0.82366 0.34928 0.51627 0.0
C2367 C 0.83702 0.36706 0.51727 0.0
C2368 C 0.8034 0.3512 0.51122 0.0
C2369 C 0.79599 0.37095 0.50711 0.0
C2370 C 0.80925 0.38877 0.50807 0.0
C2371 C 0.82969 0.38682 0.51302 0.0
C2372 C 0.77422 0.37277 0.50202 0.0
C2373 C 0.75925 0.3852 0.50829 0.0
C2374 C 0.76771 0.36068 0.49175 0.0
C2375 C 0.78294 0.34773 0.48455 0.0
C2376 C 0.80135 0.35698 0.4796 0.0
C2377 C 0.81576 0.34464 0.47295 0.0
C2378 C 0.81187 0.32305 0.47112 0.0
C2379 C 0.79353 0.31376 0.47591 0.0
C2380 C 0.77908 0.32603 0.48258 0.0
C2381 C 0.67563 0.38856 0.48416 0.0
C2382 C 0.66655 0.36866 0.48165 0.0
C2383 C 0.69654 0.39001 0.48846 0.0
C2384 C 0.70855 0.37156 0.49063 0.0
C2385 C 0.69918 0.3517 0.48842 0.0
C2386 C 0.67851 0.35026 0.48391 0.0
C2387 C 0.73109 0.3727 0.49472 0.0
C2388 C 0.7463 0.36086 0.48823 0.0
C2389 C 0.73772 0.38509 0.5049 0.0
C2390 C 0.72247 0.39702 0.51262 0.0
C2391 C 0.70535 0.38659 0.51828 0.0
C2392 C 0.69099 0.39797 0.52551 0.0
C2393 C 0.69369 0.41977 0.52724 0.0
C2394 C 0.71079 0.43022 0.52176 0.0
C2395 C 0.72519 0.41891 0.51451 0.0
H2396 H 0.68256 0.42855 0.53284 0.0
H2397 H 0.82304 0.31353 0.46596 0.0
H2398 H 0.36886 0.09222 0.2555 0.0
H2399 H 0.36795 0.05582 0.24755 0.0
H2400 H 0.40237 0.03425 0.27948 0.0
H2401 H 0.40431 0.07057 0.28703 0.0
H2402 H 0.41816 0.01591 0.26154 0.0
H2403 H 0.3464 0.02572 0.27442 0.0
H2404 H 0.31146 0.04319 0.27551 0.0
H2405 H 0.30288 0.03401 0.23674 0.0
H2406 H 0.33791 0.01671 0.2354 0.0
H2407 H 0.3628 0.90799 0.24468 0.0
H2408 H 0.36102 0.94346 0.25394 0.0
H2409 H 0.41278 0.96393 0.23089 0.0
H2410 H 0.41512 0.92857 0.222 0.0
H2411 H 0.35285 0.98148 0.24581 0.0
H2412 H 0.44341 0.99938 0.24478 0.0
H2413 H 0.47728 0.98002 0.24656 0.0
H2414 H 0.44628 0.93058 0.26689 0.0
H2415 H 0.4123 0.94977 0.26538 0.0
C2416 C 0.3762 0.07966 0.26079 0.0
C2417 C 0.38674 0.08425 0.27185 0.0
C2418 C 0.37555 0.05882 0.2563 0.0
C2419 C 0.38487 0.04209 0.26296 0.0
C2420 C 0.39515 0.04676 0.27409 0.0
C2421 C 0.39622 0.06758 0.27842 0.0
C2422 C 0.38466 0.01984 0.25827 0.0
C2423 C 0.40382 0.00845 0.25813 0.0
C2424 C 0.36594 0.00975 0.25402 0.0
C2425 C 0.34486 0.0201 0.25479 0.0
C2426 C 0.33713 0.02756 0.26612 0.0
C2427 C 0.3173 0.03741 0.26678 0.0
C2428 C 0.30498 0.03976 0.25619 0.0
C2429 C 0.31245 0.0322 0.24493 0.0
C2430 C 0.33228 0.02235 0.24421 0.0
C2431 C 0.37385 0.92005 0.24166 0.0
C2432 C 0.38926 0.91538 0.23272 0.0
C2433 C 0.37277 0.94034 0.24691 0.0
C2434 C 0.38699 0.95634 0.24326 0.0
C2435 C 0.40197 0.95178 0.2341 0.0
C2436 C 0.40325 0.93151 0.22899 0.0
C2437 C 0.38636 0.97778 0.24901 0.0
C2438 C 0.36711 0.989 0.24929 0.0
C2439 C 0.40484 0.9875 0.25381 0.0
C2440 C 0.42527 0.97593 0.25486 0.0
C2441 C 0.44384 0.98442 0.24967 0.0
C2442 C 0.46306 0.97347 0.25063 0.0
C2443 C 0.46392 0.95406 0.2568 0.0
C2444 C 0.44558 0.94558 0.26207 0.0
C2445 C 0.42633 0.95647 0.26115 0.0
H2446 H 0.47881 0.9456 0.25752 0.0
H2447 H 0.28963 0.04739 0.25673 0.0
H2448 H 0.84567 0.88958 0.49498 0.0
H2449 H 0.81 0.89035 0.504 0.0
H2450 H 0.78933 0.84327 0.47782 0.0
H2451 H 0.82491 0.84179 0.4692 0.0
H2452 H 0.77265 0.90068 0.4964 0.0
H2453 H 0.75235 0.81146 0.48908 0.0
H2454 H 0.77069 0.7769 0.4887 0.0
H2455 H 0.82037 0.80213 0.51138 0.0
H2456 H 0.8022 0.83675 0.51203 0.0
H2457 H 0.66149 0.88667 0.50483 0.0
H2458 H 0.69784 0.88757 0.49684 0.0
H2459 H 0.71804 0.84625 0.52622 0.0
H2460 H 0.68175 0.84441 0.53375 0.0
H2461 H 0.73609 0.83364 0.50736 0.0
H2462 H 0.72831 0.90251 0.52509 0.0
H2463 H 0.7119 0.93751 0.52857 0.0
H2464 H 0.72175 0.95374 0.49069 0.0
H2465 H 0.73798 0.91871 0.48696 0.0
C2466 C 0.83351 0.87932 0.49122 0.0
C2467 C 0.83818 0.86543 0.48149 0.0
C2468 C 0.81311 0.87983 0.49634 0.0
C2469 C 0.79698 0.8666 0.49175 0.0
C2470 C 0.80156 0.85321 0.48178 0.0
C2471 C 0.82195 0.85243 0.47682 0.0
C2472 C 0.77538 0.86665 0.49731 0.0
C2473 C 0.76468 0.88602 0.49883 0.0
C2474 C 0.76503 0.8476 0.50076 0.0
C2475 C 0.77599 0.82676 0.5005 0.0
C2476 C 0.76714 0.80961 0.49403 0.0
C2477 C 0.77752 0.79001 0.49375 0.0
C2478 C 0.79672 0.78734 0.49998 0.0
C2479 C 0.80554 0.80424 0.50652 0.0
C2480 C 0.79522 0.82386 0.50683 0.0
C2481 C 0.67372 0.87776 0.50953 0.0
C2482 C 0.66875 0.86541 0.51988 0.0
C2483 C 0.69455 0.87841 0.50503 0.0
C2484 C 0.71089 0.8672 0.511 0.0
C2485 C 0.70583 0.85497 0.52138 0.0
C2486 C 0.68502 0.85395 0.5257 0.0
C2487 C 0.73319 0.86768 0.50638 0.0
C2488 C 0.74402 0.84835 0.50498 0.0
C2489 C 0.74389 0.88683 0.50351 0.0
C2490 C 0.73417 0.90791 0.50572 0.0
C2491 C 0.72684 0.91349 0.51749 0.0
C2492 C 0.71759 0.93334 0.51951 0.0
C2493 C 0.71573 0.94782 0.50985 0.0
C2494 C 0.72317 0.9425 0.49816 0.0
C2495 C 0.73242 0.92265 0.49609 0.0
H2496 H 0.70857 0.96318 0.51143 0.0
H2497 H 0.80473 0.77216 0.49975 0.0
H2498 H 0.35305 0.58885 0.73434 0.0
H2499 H 0.34988 0.5522 0.74163 0.0
H2500 H 0.41806 0.54608 0.74119 0.0
H2501 H 0.42121 0.58225 0.73349 0.0
H2502 H 0.40197 0.51323 0.73091 0.0
H2503 H 0.38733 0.55085 0.76846 0.0
H2504 H 0.36864 0.57637 0.78179 0.0
H2505 H 0.31008 0.5431 0.77593 0.0
H2506 H 0.32839 0.51752 0.76243 0.0
H2507 H 0.41974 0.42446 0.76904 0.0
H2508 H 0.41669 0.46017 0.76058 0.0
H2509 H 0.34938 0.45135 0.75583 0.0
H2510 H 0.35233 0.41528 0.76424 0.0
H2511 H 0.36107 0.49048 0.76752 0.0
H2512 H 0.37804 0.45078 0.73127 0.0
H2513 H 0.39834 0.42513 0.71885 0.0
H2514 H 0.45462 0.46269 0.72334 0.0
H2515 H 0.43472 0.48842 0.73594 0.0
C2516 C 0.36734 0.57974 0.73595 0.0
C2517 C 0.38737 0.58841 0.73332 0.0
C2518 C 0.36553 0.55879 0.74014 0.0
C2519 C 0.38374 0.5463 0.74202 0.0
C2520 C 0.40375 0.55526 0.73973 0.0
C2521 C 0.40554 0.57601 0.73538 0.0
C2522 C 0.38218 0.52367 0.74589 0.0
C2523 C 0.39318 0.50836 0.739 0.0
C2524 C 0.3702 0.51707 0.75622 0.0
C2525 C 0.35918 0.53243 0.76432 0.0
C2526 C 0.37043 0.54908 0.76993 0.0
C2527 C 0.35991 0.56354 0.77753 0.0
C2528 C 0.33817 0.5614 0.77967 0.0
C2529 C 0.32691 0.54476 0.77425 0.0
C2530 C 0.33735 0.53028 0.76663 0.0
C2531 C 0.40429 0.43001 0.76612 0.0
C2532 C 0.38627 0.41701 0.76729 0.0
C2533 C 0.40259 0.45043 0.76127 0.0
C2534 C 0.38283 0.45838 0.75754 0.0
C2535 C 0.36477 0.44548 0.75865 0.0
C2536 C 0.36651 0.42487 0.76338 0.0
C2537 C 0.38126 0.48033 0.7527 0.0
C2538 C 0.36966 0.49544 0.75938 0.0
C2539 C 0.39291 0.48683 0.74227 0.0
C2540 C 0.4049 0.47145 0.73463 0.0
C2541 C 0.39478 0.45349 0.72969 0.0
C2542 C 0.40621 0.43895 0.7226 0.0
C2543 C 0.42776 0.44226 0.72033 0.0
C2544 C 0.43792 0.46014 0.72511 0.0
C2545 C 0.42656 0.47473 0.73221 0.0
H2546 H 0.43659 0.43098 0.71484 0.0
H2547 H 0.33006 0.5726 0.78556 0.0
H2548 H 0.82285 0.16446 0.03359 0.0
H2549 H 0.78682 0.16262 0.02563 0.0
H2550 H 0.80686 0.1168 0.99854 0.0
H2551 H 0.84295 0.11789 0.00691 0.0
H2552 H 0.77007 0.17301 0.00569 0.0
H2553 H 0.76601 0.08497 0.99014 0.0
H2554 H 0.7809 0.05025 0.99608 0.0
H2555 H 0.78997 0.0726 0.03297 0.0
H2556 H 0.77489 0.10734 0.02729 0.0
H2557 H 0.6818 0.1618 0.96735 0.0
H2558 H 0.71725 0.1603 0.97619 0.0
H2559 H 0.69457 0.11822 0.00456 0.0
H2560 H 0.65906 0.11886 0.99531 0.0
H2561 H 0.73165 0.10564 0.99802 0.0
H2562 H 0.70384 0.17297 0.00963 0.0
H2563 H 0.68692 0.20789 0.00673 0.0
H2564 H 0.73812 0.22729 0.98328 0.0
H2565 H 0.75522 0.19238 0.98592 0.0
C2566 C 0.81962 0.15394 0.02594 0.0
C2567 C 0.83577 0.14131 0.02088 0.0
C2568 C 0.79896 0.15293 0.02138 0.0
C2569 C 0.79393 0.13944 0.01153 0.0
C2570 C 0.81014 0.127 0.00631 0.0
C2571 C 0.83082 0.12774 0.01104 0.0
C2572 C 0.77183 0.1389 0.00665 0.0
C2573 C 0.76172 0.15824 0.00403 0.0
C2574 C 0.7606 0.11971 0.00471 0.0
C2575 C 0.76954 0.09882 0.00824 0.0
C2576 C 0.77112 0.08244 0.99952 0.0
C2577 C 0.7796 0.06277 0.00285 0.0
C2578 C 0.78644 0.05925 0.01488 0.0
C2579 C 0.78475 0.07537 0.02364 0.0
C2580 C 0.77626 0.09507 0.02036 0.0
C2581 C 0.68432 0.15223 0.97549 0.0
C2582 C 0.66758 0.14061 0.98072 0.0
C2583 C 0.70462 0.15145 0.98057 0.0
C2584 C 0.70858 0.13954 0.99123 0.0
C2585 C 0.69195 0.1276 0.99637 0.0
C2586 C 0.67164 0.12804 0.99112 0.0
C2587 C 0.73004 0.13974 0.99699 0.0
C2588 C 0.74003 0.12038 0.99972 0.0
C2589 C 0.74091 0.15894 0.99948 0.0
C2590 C 0.73071 0.17999 0.99789 0.0
C2591 C 0.71142 0.18464 0.00379 0.0
C2592 C 0.70181 0.20443 0.0022 0.0
C2593 C 0.71141 0.21978 0.9948 0.0
C2594 C 0.73068 0.21538 0.989 0.0
C2595 C 0.74035 0.1956 0.99055 0.0
H2596 H 0.70394 0.2351 0.99358 0.0
H2597 H 0.79301 0.04401 0.01743 0.0
H2598 H 0.14339 0.59472 0.25903 0.0
H2599 H 0.14592 0.55868 0.25058 0.0
H2600 H 0.08971 0.54069 0.27059 0.0
H2601 H 0.08706 0.57641 0.27902 0.0
H2602 H 0.1209 0.51105 0.27288 0.0
H2603 H 0.08668 0.55085 0.24055 0.0
H2604 H 0.08359 0.57979 0.22542 0.0
H2605 H 0.14096 0.55904 0.20789 0.0
H2606 H 0.14453 0.53013 0.22304 0.0
H2607 H 0.08489 0.43082 0.22351 0.0
H2608 H 0.08783 0.4666 0.23181 0.0
H2609 H 0.14715 0.45004 0.24906 0.0
H2610 H 0.14427 0.41393 0.24078 0.0
H2611 H 0.11729 0.49704 0.22808 0.0
H2612 H 0.1499 0.47884 0.2763 0.0
H2613 H 0.14987 0.44986 0.29155 0.0
H2614 H 0.09044 0.42728 0.2774 0.0
H2615 H 0.09 0.45626 0.26219 0.0
C2616 C 0.13155 0.58309 0.26159 0.0
C2617 C 0.115 0.58847 0.26967 0.0
C2618 C 0.13301 0.56252 0.25676 0.0
C2619 C 0.118 0.547 0.25997 0.0
C2620 C 0.10153 0.55237 0.26804 0.0
C2621 C 0.09998 0.57287 0.27279 0.0
C2622 C 0.11911 0.52516 0.25488 0.0
C2623 C 0.1203 0.50799 0.26307 0.0
C2624 C 0.11814 0.52114 0.24211 0.0
C2625 C 0.11601 0.5385 0.23301 0.0
C2626 C 0.09873 0.55258 0.23354 0.0
C2627 C 0.09687 0.56895 0.22494 0.0
C2628 C 0.1121 0.5713 0.21572 0.0
C2629 C 0.1292 0.55723 0.21506 0.0
C2630 C 0.13114 0.54085 0.22364 0.0
C2631 C 0.09856 0.43469 0.2291 0.0
C2632 C 0.11433 0.41946 0.23151 0.0
C2633 C 0.10026 0.45523 0.23379 0.0
C2634 C 0.11769 0.46102 0.24106 0.0
C2635 C 0.13348 0.44588 0.24353 0.0
C2636 C 0.13182 0.42526 0.2388 0.0
C2637 C 0.11899 0.48291 0.24608 0.0
C2638 C 0.11827 0.50009 0.23788 0.0
C2639 C 0.12009 0.48693 0.25885 0.0
C2640 C 0.12007 0.46955 0.26802 0.0
C2641 C 0.13681 0.4677 0.27647 0.0
C2642 C 0.13688 0.45129 0.2851 0.0
C2643 C 0.1202 0.43669 0.28541 0.0
C2644 C 0.10339 0.43853 0.27712 0.0
C2645 C 0.10324 0.45493 0.26848 0.0
H2646 H 0.12029 0.42398 0.2921 0.0
H2647 H 0.11063 0.58398 0.20907 0.0
H2648 H 0.16608 0.10574 0.51488 0.0
H2649 H 0.20209 0.10294 0.50641 0.0
H2650 H 0.21011 0.17054 0.51032 0.0
H2651 H 0.17441 0.17344 0.51884 0.0
H2652 H 0.22418 0.15489 0.48766 0.0
H2653 H 0.23106 0.13885 0.53108 0.0
H2654 H 0.22296 0.11873 0.54993 0.0
H2655 H 0.24428 0.06128 0.53268 0.0
H2656 H 0.25224 0.08104 0.51366 0.0
H2657 H 0.33273 0.17358 0.48294 0.0
H2658 H 0.2965 0.1709 0.49058 0.0
H2659 H 0.30157 0.10262 0.49089 0.0
H2660 H 0.33835 0.10531 0.48367 0.0
H2661 H 0.27982 0.11481 0.51004 0.0
H2662 H 0.27546 0.13 0.46727 0.0
H2663 H 0.28314 0.14897 0.44797 0.0
H2664 H 0.25625 0.20598 0.46292 0.0
H2665 H 0.24867 0.18743 0.48238 0.0
C2666 C 0.17547 0.12001 0.51383 0.0
C2667 C 0.16743 0.1398 0.51756 0.0
C2668 C 0.19605 0.11837 0.50905 0.0
C2669 C 0.20881 0.13652 0.50782 0.0
C2670 C 0.20054 0.15634 0.5112 0.0
C2671 C 0.18014 0.15795 0.51609 0.0
C2672 C 0.23095 0.13506 0.50326 0.0
C2673 C 0.2364 0.14625 0.49259 0.0
C2674 C 0.2467 0.12321 0.50947 0.0
C2675 C 0.242 0.11137 0.52091 0.0
C2676 C 0.23385 0.12189 0.53127 0.0
C2677 C 0.22932 0.11056 0.54199 0.0
C2678 C 0.23304 0.08873 0.54249 0.0
C2679 C 0.24136 0.07819 0.53228 0.0
C2680 C 0.2459 0.08945 0.52153 0.0
C2681 C 0.32622 0.15798 0.48473 0.0
C2682 C 0.33833 0.13964 0.48261 0.0
C2683 C 0.30541 0.15646 0.48903 0.0
C2684 C 0.29602 0.13653 0.49099 0.0
C2685 C 0.30838 0.11818 0.48935 0.0
C2686 C 0.3294 0.11972 0.48524 0.0
C2687 C 0.27325 0.13504 0.49454 0.0
C2688 C 0.26763 0.12327 0.50501 0.0
C2689 C 0.25723 0.14615 0.48804 0.0
C2690 C 0.26164 0.15735 0.47632 0.0
C2691 C 0.27131 0.14662 0.46647 0.0
C2692 C 0.27563 0.15729 0.4555 0.0
C2693 C 0.27022 0.17868 0.45423 0.0
C2694 C 0.26044 0.18942 0.46392 0.0
C2695 C 0.2561 0.17883 0.47492 0.0
H2696 H 0.27359 0.18691 0.44573 0.0
H2697 H 0.22953 0.07998 0.5508 0.0
H2698 H 0.65008 0.41212 0.26546 0.0
H2699 H 0.6528 0.44832 0.25725 0.0
H2700 H 0.58469 0.45419 0.25826 0.0
H2701 H 0.58186 0.4183 0.26657 0.0
H2702 H 0.6032 0.46929 0.2363 0.0
H2703 H 0.61221 0.4756 0.28041 0.0
H2704 H 0.62955 0.46765 0.30019 0.0
H2705 H 0.68872 0.49112 0.28619 0.0
H2706 H 0.67178 0.49894 0.26626 0.0
H2707 H 0.58179 0.57752 0.23166 0.0
H2708 H 0.58452 0.54106 0.23893 0.0
H2709 H 0.65227 0.54818 0.2427 0.0
H2710 H 0.64949 0.58515 0.23582 0.0
H2711 H 0.63787 0.52559 0.26105 0.0
H2712 H 0.62953 0.52187 0.21766 0.0
H2713 H 0.61344 0.52944 0.19748 0.0
H2714 H 0.55524 0.50038 0.20915 0.0
H2715 H 0.57088 0.4929 0.22946 0.0
C2716 C 0.63569 0.42107 0.26381 0.0
C2717 C 0.61576 0.41238 0.26669 0.0
C2718 C 0.63728 0.44176 0.25918 0.0
C2719 C 0.61895 0.45397 0.25723 0.0
C2720 C 0.59903 0.44504 0.2597 0.0
C2721 C 0.59745 0.42454 0.26448 0.0
C2722 C 0.62032 0.47627 0.25291 0.0
C2723 C 0.61065 0.48165 0.24174 0.0
C2724 C 0.63064 0.49224 0.25982 0.0
C2725 C 0.64079 0.48762 0.2718 0.0
C2726 C 0.62896 0.47889 0.28152 0.0
C2727 C 0.63871 0.47444 0.29276 0.0
C2728 C 0.66024 0.47881 0.29443 0.0
C2729 C 0.67206 0.4877 0.28487 0.0
C2730 C 0.66239 0.49216 0.2736 0.0
C2731 C 0.59727 0.57141 0.23412 0.0
C2732 C 0.61545 0.58418 0.23308 0.0
C2733 C 0.59884 0.55047 0.2382 0.0
C2734 C 0.61868 0.54161 0.24106 0.0
C2735 C 0.6368 0.55457 0.24046 0.0
C2736 C 0.63519 0.5757 0.23654 0.0
C2737 C 0.62035 0.51879 0.24451 0.0
C2738 C 0.63061 0.51327 0.25551 0.0
C2739 C 0.61079 0.5026 0.23735 0.0
C2740 C 0.60134 0.50697 0.22512 0.0
C2741 C 0.61325 0.51722 0.21595 0.0
C2742 C 0.60422 0.52148 0.20449 0.0
C2743 C 0.58332 0.51543 0.20204 0.0
C2744 C 0.57143 0.50507 0.21106 0.0
C2745 C 0.58038 0.50079 0.22254 0.0
H2746 H 0.57636 0.51875 0.19316 0.0
H2747 H 0.66775 0.47536 0.30314 0.0
H2748 H 0.17638 0.83386 0.98118 0.0
H2749 H 0.212 0.83658 0.98982 0.0
H2750 H 0.20257 0.90345 0.99616 0.0
H2751 H 0.16661 0.90081 0.98757 0.0
H2752 H 0.24183 0.89297 0.98432 0.0
H2753 H 0.20193 0.87281 0.01999 0.0
H2754 H 0.17647 0.85116 0.03174 0.0
H2755 H 0.215 0.79587 0.026 0.0
H2756 H 0.24055 0.81714 0.01406 0.0
H2757 H 0.3395 0.90093 0.01794 0.0
H2758 H 0.30289 0.90368 0.01055 0.0
H2759 H 0.29806 0.83536 0.01015 0.0
H2760 H 0.33416 0.83263 0.01803 0.0
H2761 H 0.26469 0.85003 0.02012 0.0
H2762 H 0.3027 0.86777 0.98319 0.0
H2763 H 0.32807 0.88774 0.97041 0.0
H2764 H 0.29361 0.9453 0.97724 0.0
H2765 H 0.26816 0.92571 0.99019 0.0
C2766 C 0.18177 0.84914 0.98449 0.0
C2767 C 0.16864 0.86712 0.98372 0.0
C2768 C 0.20214 0.85065 0.98944 0.0
C2769 C 0.2099 0.87019 0.99366 0.0
C2770 C 0.19686 0.88821 0.99295 0.0
C2771 C 0.1763 0.88666 0.98812 0.0
C2772 C 0.2318 0.87163 0.9986 0.0
C2773 C 0.24682 0.88391 0.99228 0.0
C2774 C 0.23835 0.85936 0.00879 0.0
C2775 C 0.22308 0.84655 0.01605 0.0
C2776 C 0.2049 0.85601 0.02115 0.0
C2777 C 0.19046 0.84381 0.02786 0.0
C2778 C 0.19409 0.82215 0.02959 0.0
C2779 C 0.2122 0.81265 0.02464 0.0
C2780 C 0.22668 0.82478 0.01792 0.0
C2781 C 0.33067 0.88652 0.01613 0.0
C2782 C 0.33968 0.86657 0.01857 0.0
C2783 C 0.30974 0.88809 0.01187 0.0
C2784 C 0.29763 0.86972 0.00969 0.0
C2785 C 0.30693 0.8498 0.01182 0.0
C2786 C 0.32764 0.84824 0.01628 0.0
C2787 C 0.27505 0.87101 0.00567 0.0
C2788 C 0.25982 0.85926 0.0122 0.0
C2789 C 0.2684 0.88352 0.99555 0.0
C2790 C 0.28367 0.89532 0.98777 0.0
C2791 C 0.30063 0.88472 0.98205 0.0
C2792 C 0.31501 0.89596 0.97476 0.0
C2793 C 0.31249 0.91779 0.97305 0.0
C2794 C 0.29556 0.9284 0.97859 0.0
C2795 C 0.28115 0.91724 0.9859 0.0
H2796 H 0.32364 0.92646 0.9674 0.0
H2797 H 0.1829 0.81273 0.03479 0.0
H2798 H 0.91277 0.42996 0.71843 0.0
H2799 H 0.91088 0.46559 0.727 0.0
H2800 H 0.86605 0.44389 0.75419 0.0
H2801 H 0.86716 0.40818 0.7452 0.0
H2802 H 0.85439 0.48094 0.74691 0.0
H2803 H 0.92016 0.45293 0.76095 0.0
H2804 H 0.95514 0.43564 0.75939 0.0
H2805 H 0.97734 0.48602 0.73618 0.0
H2806 H 0.94239 0.50349 0.73747 0.0
H2807 H 0.91073 0.57278 0.78337 0.0
H2808 H 0.9093 0.53654 0.7757 0.0
H2809 H 0.86591 0.55613 0.74719 0.0
H2810 H 0.86649 0.59243 0.7553 0.0
H2811 H 0.92122 0.51909 0.75637 0.0
H2812 H 0.83484 0.51525 0.73802 0.0
H2813 H 0.79973 0.53058 0.74267 0.0
H2814 H 0.81848 0.54052 0.78015 0.0
H2815 H 0.85359 0.52502 0.77576 0.0
C2816 C 0.90253 0.43272 0.72626 0.0
C2817 C 0.89027 0.41619 0.73122 0.0
C2818 C 0.90152 0.45314 0.73119 0.0
C2819 C 0.88868 0.45743 0.74143 0.0
C2820 C 0.87615 0.441 0.74631 0.0
C2821 C 0.87686 0.42058 0.74121 0.0
C2822 C 0.88851 0.47904 0.747 0.0
C2823 C 0.86901 0.48926 0.74901 0.0
C2824 C 0.90752 0.48984 0.75002 0.0
C2825 C 0.92859 0.47942 0.74922 0.0
C2826 C 0.93246 0.46025 0.75544 0.0
C2827 C 0.95228 0.45043 0.75462 0.0
C2828 C 0.96843 0.4597 0.74767 0.0
C2829 C 0.9648 0.47885 0.74155 0.0
C2830 C 0.945 0.48873 0.74234 0.0
C2831 C 0.90083 0.5694 0.77547 0.0
C2832 C 0.88871 0.58548 0.76994 0.0
C2833 C 0.90005 0.54862 0.77107 0.0
C2834 C 0.88736 0.5434 0.76091 0.0
C2835 C 0.87547 0.55955 0.75521 0.0
C2836 C 0.87592 0.58035 0.75979 0.0
C2837 C 0.8871 0.52115 0.75622 0.0
C2838 C 0.90656 0.51081 0.75432 0.0
C2839 C 0.86803 0.51 0.75376 0.0
C2840 C 0.84691 0.51919 0.75652 0.0
C2841 C 0.83144 0.52065 0.74726 0.0
C2842 C 0.81155 0.52938 0.74985 0.0
C2843 C 0.80691 0.53659 0.76169 0.0
C2844 C 0.82213 0.53501 0.77098 0.0
C2845 C 0.84203 0.52628 0.76844 0.0
H2846 H 0.79151 0.54335 0.76367 0.0
H2847 H 0.98377 0.45207 0.74704 0.0
H2848 H 0.13236 0.35867 0.07221 0.0
H2849 H 0.13846 0.35643 0.09427 0.0
H2850 H 0.08899 0.40236 0.1006 0.0
H2851 H 0.0826 0.40469 0.07841 0.0
H2852 H 0.12627 0.40841 0.11533 0.0
H2853 H 0.07683 0.35334 0.10454 0.0
H2854 H 0.06403 0.32262 0.09264 0.0
H2855 H 0.11825 0.28641 0.10403 0.0
H2856 H 0.13155 0.31705 0.11586 0.0
H2857 H 0.10575 0.38697 0.17814 0.0
H2858 H 0.1043 0.39322 0.15608 0.0
H2859 H 0.14687 0.34068 0.15002 0.0
H2860 H 0.1481 0.33399 0.17216 0.0
H2861 H 0.11402 0.33841 0.13495 0.0
H2862 H 0.16319 0.39257 0.1463 0.0
H2863 H 0.17666 0.42317 0.15806 0.0
H2864 H 0.12422 0.46096 0.14563 0.0
H2865 H 0.11027 0.43048 0.13393 0.0
C2866 C 0.12286 0.3685 0.07824 0.0
C2867 C 0.10685 0.38177 0.07352 0.0
C2868 C 0.12637 0.36714 0.09087 0.0
C2869 C 0.11403 0.37905 0.09906 0.0
C2870 C 0.09865 0.39301 0.09441 0.0
C2871 C 0.09499 0.39428 0.08174 0.0
C2872 C 0.11658 0.37606 0.11247 0.0
C2873 C 0.12335 0.39321 0.11968 0.0
C2874 C 0.1133 0.35605 0.11804 0.0
C2875 C 0.1053 0.33757 0.11098 0.0
C2876 C 0.08612 0.33889 0.10442 0.0
C2877 C 0.07876 0.32148 0.0977 0.0
C2878 C 0.09035 0.30259 0.09755 0.0
C2879 C 0.1093 0.30106 0.10414 0.0
C2880 C 0.11676 0.31844 0.11086 0.0
C2881 C 0.11499 0.37682 0.17216 0.0
C2882 C 0.12704 0.35993 0.17695 0.0
C2883 C 0.11422 0.38051 0.15952 0.0
C2884 C 0.12565 0.36757 0.15139 0.0
C2885 C 0.13795 0.35089 0.15613 0.0
C2886 C 0.13868 0.34713 0.16879 0.0
C2887 C 0.12379 0.37077 0.13791 0.0
C2888 C 0.11707 0.35364 0.13065 0.0
C2889 C 0.12723 0.39078 0.13232 0.0
C2890 C 0.13558 0.40917 0.13933 0.0
C2891 C 0.15443 0.40735 0.14616 0.0
C2892 C 0.16217 0.42469 0.15279 0.0
C2893 C 0.15127 0.44398 0.15261 0.0
C2894 C 0.13263 0.44599 0.14577 0.0
C2895 C 0.12481 0.4287 0.13912 0.0
H2896 H 0.15729 0.45739 0.15776 0.0
H2897 H 0.08462 0.28912 0.09235 0.0
H2898 H 0.92253 0.90224 0.42171 0.0
H2899 H 0.91557 0.90037 0.39962 0.0
H2900 H 0.86154 0.86009 0.40639 0.0
H2901 H 0.86842 0.8617 0.4284 0.0
H2902 H 0.88719 0.8436 0.38909 0.0
H2903 H 0.85497 0.91125 0.39727 0.0
H2904 H 0.85369 0.94793 0.40511 0.0
H2905 H 0.90457 0.96549 0.38095 0.0
H2906 H 0.90635 0.92883 0.37308 0.0
H2907 H 0.84966 0.83935 0.32804 0.0
H2908 H 0.85143 0.84626 0.35012 0.0
H2909 H 0.90324 0.8898 0.34425 0.0
H2910 H 0.90119 0.88346 0.32218 0.0
H2911 H 0.87767 0.90509 0.3612 0.0
H2912 H 0.91162 0.83807 0.3538 0.0
H2913 H 0.91434 0.80142 0.34602 0.0
H2914 H 0.86205 0.78271 0.36884 0.0
H2915 H 0.85884 0.81934 0.37664 0.0
C2916 C 0.90902 0.8932 0.41852 0.0
C2917 C 0.8961 0.88206 0.42685 0.0
C2918 C 0.90502 0.89219 0.40588 0.0
C2919 C 0.88799 0.88013 0.40136 0.0
C2920 C 0.87479 0.86944 0.40967 0.0
C2921 C 0.87875 0.87044 0.42227 0.0
C2922 C 0.88456 0.87761 0.38794 0.0
C2923 C 0.88476 0.85704 0.38302 0.0
C2924 C 0.88202 0.89517 0.37998 0.0
C2925 C 0.88092 0.91724 0.38467 0.0
C2926 C 0.866 0.92289 0.3937 0.0
C2927 C 0.86517 0.94369 0.39814 0.0
C2928 C 0.87908 0.95902 0.39356 0.0
C2929 C 0.89382 0.95359 0.38451 0.0
C2930 C 0.89473 0.93281 0.38004 0.0
C2931 C 0.86132 0.85053 0.33143 0.0
C2932 C 0.87539 0.86071 0.32333 0.0
C2933 C 0.86237 0.8544 0.34407 0.0
C2934 C 0.87773 0.86827 0.34888 0.0
C2935 C 0.89129 0.879 0.34077 0.0
C2936 C 0.89012 0.87529 0.32814 0.0
C2937 C 0.88022 0.87106 0.36236 0.0
C2938 C 0.87995 0.89166 0.36729 0.0
C2939 C 0.8829 0.85353 0.37034 0.0
C2940 C 0.88485 0.83149 0.3657 0.0
C2941 C 0.9006 0.82617 0.35709 0.0
C2942 C 0.90225 0.8054 0.35269 0.0
C2943 C 0.88834 0.78976 0.35691 0.0
C2944 C 0.87279 0.79485 0.36557 0.0
C2945 C 0.87106 0.81561 0.36999 0.0
H2946 H 0.88964 0.77369 0.35349 0.0
H2947 H 0.8784 0.97511 0.397 0.0
H2948 H 0.35376 0.66626 0.6723 0.0
H2949 H 0.35606 0.65856 0.65031 0.0
H2950 H 0.40494 0.61228 0.65736 0.0
H2951 H 0.40282 0.61985 0.67931 0.0
H2952 H 0.41597 0.63973 0.63914 0.0
H2953 H 0.35623 0.59615 0.64937 0.0
H2954 H 0.32104 0.58833 0.65814 0.0
H2955 H 0.29247 0.63366 0.6338 0.0
H2956 H 0.32754 0.64198 0.62499 0.0
H2957 H 0.42231 0.60223 0.57797 0.0
H2958 H 0.41677 0.60264 0.60021 0.0
H2959 H 0.36482 0.64648 0.59568 0.0
H2960 H 0.36991 0.64583 0.57349 0.0
H2961 H 0.35543 0.61805 0.61286 0.0
H2962 H 0.41449 0.66368 0.60371 0.0
H2963 H 0.44942 0.67285 0.59502 0.0
H2964 H 0.47895 0.62525 0.61746 0.0
H2965 H 0.44413 0.6156 0.62617 0.0
C2966 C 0.36486 0.65431 0.66919 0.0
C2967 C 0.37813 0.64372 0.67759 0.0
C2968 C 0.36611 0.64987 0.65662 0.0
C2969 C 0.38061 0.63477 0.65221 0.0
C2970 C 0.39364 0.62398 0.66057 0.0
C2971 C 0.39235 0.62832 0.67313 0.0
C2972 C 0.38296 0.63095 0.63883 0.0
C2973 C 0.40282 0.63463 0.63342 0.0
C2974 C 0.36567 0.62483 0.63134 0.0
C2975 C 0.34455 0.61983 0.6366 0.0
C2976 C 0.34247 0.60459 0.64596 0.0
C2977 C 0.32254 0.60004 0.65092 0.0
C2978 C 0.30454 0.61053 0.64655 0.0
C2979 C 0.30643 0.62556 0.63718 0.0
C2980 C 0.32633 0.63018 0.6322 0.0
C2981 C 0.40957 0.61178 0.58169 0.0
C2982 C 0.39669 0.62414 0.57393 0.0
C2983 C 0.40647 0.61207 0.59441 0.0
C2984 C 0.39059 0.62486 0.59963 0.0
C2985 C 0.3772 0.63653 0.59187 0.0
C2986 C 0.3802 0.63618 0.57917 0.0
C2987 C 0.38844 0.62689 0.61317 0.0
C2988 C 0.36862 0.62296 0.6186 0.0
C2989 C 0.40573 0.63296 0.62069 0.0
C2990 C 0.42668 0.63876 0.61548 0.0
C2991 C 0.42841 0.65506 0.60672 0.0
C2992 C 0.44819 0.66036 0.6018 0.0
C2993 C 0.46638 0.6496 0.60566 0.0
C2994 C 0.46484 0.63355 0.61446 0.0
C2995 C 0.44509 0.62816 0.6194 0.0
H2996 H 0.48168 0.65373 0.60184 0.0
H2997 H 0.28912 0.60698 0.6504 0.0
H2998 H 0.60234 0.1199 0.82135 0.0
H2999 H 0.6002 0.11282 0.84334 0.0
H3000 H 0.64763 0.16065 0.85021 0.0
H3001 H 0.64997 0.16787 0.82814 0.0
H3002 H 0.65354 0.12399 0.86425 0.0
H3003 H 0.59736 0.17283 0.85448 0.0
H3004 H 0.56601 0.18544 0.84307 0.0
H3005 H 0.53106 0.1304 0.85447 0.0
H3006 H 0.56232 0.1173 0.86581 0.0
H3007 H 0.63439 0.14509 0.92714 0.0
H3008 H 0.63979 0.1459 0.905 0.0
H3009 H 0.58754 0.10256 0.90005 0.0
H3010 H 0.58169 0.10199 0.92228 0.0
H3011 H 0.58415 0.13499 0.88479 0.0
H3012 H 0.63962 0.08688 0.89554 0.0
H3013 H 0.67094 0.07412 0.90691 0.0
H3014 H 0.70721 0.1271 0.89376 0.0
H3015 H 0.67602 0.14034 0.88244 0.0
C3016 C 0.61247 0.12885 0.8275 0.0
C3017 C 0.62623 0.14459 0.82297 0.0
C3018 C 0.61117 0.12479 0.84008 0.0
C3019 C 0.62357 0.13638 0.84841 0.0
C3020 C 0.63789 0.15156 0.84392 0.0
C3021 C 0.63916 0.15571 0.83131 0.0
C3022 C 0.62094 0.13319 0.86182 0.0
C3023 C 0.63845 0.12659 0.86879 0.0
C3024 C 0.6011 0.13608 0.86765 0.0
C3025 C 0.58225 0.14397 0.86088 0.0
C3026 C 0.58304 0.16332 0.85447 0.0
C3027 C 0.56529 0.17058 0.84803 0.0
C3028 C 0.54658 0.1587 0.84802 0.0
C3029 C 0.54558 0.13957 0.85447 0.0
C3030 C 0.5633 0.13223 0.86092 0.0
C3031 C 0.62415 0.13551 0.92138 0.0
C3032 C 0.60756 0.12349 0.92651 0.0
C3033 C 0.62735 0.13592 0.9087 0.0
C3034 C 0.61422 0.12413 0.90085 0.0
C3035 C 0.59789 0.11177 0.90593 0.0
C3036 C 0.59461 0.11141 0.91865 0.0
C3037 C 0.61677 0.12577 0.88731 0.0
C3038 C 0.59924 0.13217 0.88028 0.0
C3039 C 0.63659 0.12265 0.88145 0.0
C3040 C 0.65542 0.1147 0.88822 0.0
C3041 C 0.65423 0.0959 0.89514 0.0
C3042 C 0.67197 0.08856 0.90157 0.0
C3043 C 0.69104 0.09982 0.90108 0.0
C3044 C 0.69242 0.11841 0.89414 0.0
C3045 C 0.67472 0.12582 0.8877 0.0
H3046 H 0.70475 0.09411 0.90606 0.0
H3047 H 0.53284 0.16434 0.84303 0.0
H3048 H 0.11793 0.61501 0.3223 0.0
H3049 H 0.11526 0.60792 0.34431 0.0
H3050 H 0.13724 0.67126 0.35217 0.0
H3051 H 0.14008 0.67852 0.33012 0.0
H3052 H 0.14431 0.6096 0.36394 0.0
H3053 H 0.10531 0.68944 0.3759 0.0
H3054 H 0.08425 0.71755 0.36588 0.0
H3055 H 0.05912 0.67206 0.34037 0.0
H3056 H 0.07979 0.64366 0.35034 0.0
H3057 H 0.13836 0.63089 0.42869 0.0
H3058 H 0.1443 0.63266 0.40651 0.0
H3059 H 0.07878 0.61654 0.4001 0.0
H3060 H 0.07271 0.61449 0.42229 0.0
H3061 H 0.09265 0.65307 0.38739 0.0
H3062 H 0.1138 0.58079 0.39392 0.0
H3063 H 0.13385 0.55184 0.40377 0.0
H3064 H 0.19243 0.58009 0.39208 0.0
H3065 H 0.17272 0.60939 0.38231 0.0
C3066 C 0.12244 0.62738 0.3287 0.0
C3067 C 0.12908 0.6474 0.32445 0.0
C3068 C 0.12099 0.62325 0.34127 0.0
C3069 C 0.12586 0.63911 0.34984 0.0
C3070 C 0.13326 0.65885 0.34567 0.0
C3071 C 0.13494 0.66295 0.33308 0.0
C3072 C 0.12195 0.63538 0.36309 0.0
C3073 C 0.1331 0.61915 0.36909 0.0
C3074 C 0.10705 0.64762 0.36973 0.0
C3075 C 0.09428 0.6645 0.36379 0.0
C3076 C 0.09523 0.68544 0.36818 0.0
C3077 C 0.08337 0.70142 0.3625 0.0
C3078 C 0.07042 0.69661 0.35247 0.0
C3079 C 0.06923 0.67579 0.34811 0.0
C3080 C 0.08103 0.65975 0.35376 0.0
C3081 C 0.12526 0.62746 0.42257 0.0
C3082 C 0.10504 0.62258 0.42725 0.0
C3083 C 0.1287 0.62844 0.4099 0.0
C3084 C 0.11197 0.62475 0.40169 0.0
C3085 C 0.09188 0.61946 0.40631 0.0
C3086 C 0.08848 0.61818 0.41898 0.0
C3087 C 0.11521 0.62747 0.38831 0.0
C3088 C 0.10394 0.64356 0.38227 0.0
C3089 C 0.1299 0.61501 0.38164 0.0
C3090 C 0.14178 0.59739 0.38749 0.0
C3091 C 0.13096 0.58093 0.39355 0.0
C3092 C 0.14227 0.56444 0.39909 0.0
C3093 C 0.1644 0.56415 0.39858 0.0
C3094 C 0.17528 0.58034 0.39248 0.0
C3095 C 0.16405 0.59689 0.38693 0.0
H3096 H 0.17313 0.55136 0.40288 0.0
H3097 H 0.06126 0.70901 0.34808 0.0
H3098 H 0.60432 0.88811 0.67827 0.0
H3099 H 0.60235 0.89542 0.6563 0.0
H3100 H 0.64724 0.84528 0.64921 0.0
H3101 H 0.64944 0.83785 0.67126 0.0
H3102 H 0.65478 0.88137 0.6351 0.0
H3103 H 0.59602 0.83582 0.64527 0.0
H3104 H 0.56417 0.82515 0.65686 0.0
H3105 H 0.53234 0.88208 0.6455 0.0
H3106 H 0.56414 0.89324 0.63397 0.0
H3107 H 0.6338 0.86058 0.57243 0.0
H3108 H 0.63944 0.85987 0.59453 0.0
H3109 H 0.58931 0.90568 0.59945 0.0
H3110 H 0.58316 0.9061 0.57725 0.0
H3111 H 0.58459 0.874 0.61493 0.0
H3112 H 0.64243 0.91881 0.60368 0.0
H3113 H 0.67422 0.92968 0.5921 0.0
H3114 H 0.70778 0.87503 0.60538 0.0
H3115 H 0.67609 0.86366 0.61691 0.0
C3116 C 0.61394 0.8787 0.67208 0.0
C3117 C 0.62692 0.86225 0.67655 0.0
C3118 C 0.61274 0.8829 0.65951 0.0
C3119 C 0.62444 0.87072 0.65112 0.0
C3120 C 0.63804 0.85483 0.65554 0.0
C3121 C 0.63923 0.85057 0.66814 0.0
C3122 C 0.62177 0.87402 0.63772 0.0
C3123 C 0.6395 0.87957 0.63064 0.0
C3124 C 0.6017 0.8722 0.63199 0.0
C3125 C 0.58254 0.86547 0.63887 0.0
C3126 C 0.58229 0.84615 0.64533 0.0
C3127 C 0.56424 0.84 0.65187 0.0
C3128 C 0.54626 0.85296 0.65195 0.0
C3129 C 0.54629 0.87207 0.64545 0.0
C3130 C 0.56431 0.87831 0.6389 0.0
C3131 C 0.62408 0.87071 0.57816 0.0
C3132 C 0.60798 0.88339 0.57303 0.0
C3133 C 0.62743 0.87037 0.59083 0.0
C3134 C 0.61497 0.8829 0.59867 0.0
C3135 C 0.59915 0.8959 0.59358 0.0
C3136 C 0.59569 0.89617 0.58088 0.0
C3137 C 0.61763 0.88136 0.61221 0.0
C3138 C 0.59988 0.87604 0.61935 0.0
C3139 C 0.63768 0.88347 0.61797 0.0
C3140 C 0.65681 0.89029 0.61108 0.0
C3141 C 0.65653 0.90902 0.60406 0.0
C3142 C 0.67455 0.91529 0.59752 0.0
C3143 C 0.69299 0.90303 0.59798 0.0
C3144 C 0.69347 0.8845 0.60502 0.0
C3145 C 0.6755 0.87815 0.61158 0.0
H3146 H 0.70692 0.9079 0.59291 0.0
H3147 H 0.5323 0.84817 0.65701 0.0
H3148 H 0.39678 0.38725 0.82128 0.0
H3149 H 0.39878 0.39432 0.84328 0.0
H3150 H 0.35662 0.34188 0.85036 0.0
H3151 H 0.35438 0.33468 0.82829 0.0
H3152 H 0.34757 0.37723 0.86475 0.0
H3153 H 0.40843 0.335 0.85384 0.0
H3154 H 0.44056 0.32629 0.84195 0.0
H3155 H 0.46956 0.38459 0.85353 0.0
H3156 H 0.43746 0.3938 0.86536 0.0
H3157 H 0.37059 0.35664 0.92716 0.0
H3158 H 0.36471 0.35588 0.90507 0.0
H3159 H 0.4126 0.404 0.90012 0.0
H3160 H 0.41903 0.40447 0.92229 0.0
H3161 H 0.41847 0.37307 0.88439 0.0
H3162 H 0.35862 0.41462 0.89635 0.0
H3163 H 0.32656 0.42358 0.90823 0.0
H3164 H 0.29562 0.36751 0.89479 0.0
H3165 H 0.3276 0.35805 0.88295 0.0
C3166 C 0.38776 0.37728 0.82748 0.0
C3167 C 0.37554 0.36025 0.823 0.0
C3168 C 0.38898 0.38135 0.84006 0.0
C3169 C 0.37808 0.36846 0.84845 0.0
C3170 C 0.3652 0.35198 0.84403 0.0
C3171 C 0.36399 0.34785 0.83141 0.0
C3172 C 0.38086 0.37165 0.86185 0.0
C3173 C 0.36302 0.37613 0.86909 0.0
C3174 C 0.40112 0.37075 0.86743 0.0
C3175 C 0.42046 0.36519 0.86038 0.0
C3176 C 0.42159 0.34604 0.85377 0.0
C3177 C 0.43981 0.341 0.84706 0.0
C3178 C 0.45706 0.3549 0.84695 0.0
C3179 C 0.45616 0.37386 0.8536 0.0
C3180 C 0.43797 0.37899 0.86032 0.0
C3181 C 0.37977 0.36726 0.92142 0.0
C3182 C 0.39532 0.38062 0.92653 0.0
C3183 C 0.37627 0.36687 0.90876 0.0
C3184 C 0.38801 0.38007 0.90092 0.0
C3185 C 0.40332 0.3937 0.90599 0.0
C3186 C 0.40694 0.39399 0.91868 0.0
C3187 C 0.38515 0.37865 0.88739 0.0
C3188 C 0.40301 0.37441 0.88009 0.0
C3189 C 0.3649 0.37985 0.88177 0.0
C3190 C 0.34559 0.38554 0.88884 0.0
C3191 C 0.34504 0.40411 0.89599 0.0
C3192 C 0.32686 0.4093 0.90271 0.0
C3193 C 0.30908 0.3961 0.90228 0.0
C3194 C 0.30941 0.37771 0.89512 0.0
C3195 C 0.32755 0.37245 0.88839 0.0
H3196 H 0.29503 0.40014 0.90749 0.0
H3197 H 0.47115 0.35097 0.84175 0.0
H3198 H 0.90114 0.11868 0.1797 0.0
H3199 H 0.90334 0.11135 0.15773 0.0
H3200 H 0.85729 0.16039 0.15056 0.0
H3201 H 0.85486 0.16783 0.17259 0.0
H3202 H 0.8505 0.12425 0.13653 0.0
H3203 H 0.90848 0.17087 0.14667 0.0
H3204 H 0.9402 0.18209 0.15822 0.0
H3205 H 0.97299 0.12576 0.14675 0.0
H3206 H 0.94133 0.11406 0.13526 0.0
H3207 H 0.87063 0.14606 0.07392 0.0
H3208 H 0.86524 0.1465 0.09606 0.0
H3209 H 0.9161 0.10141 0.10065 0.0
H3210 H 0.92198 0.10124 0.07842 0.0
H3211 H 0.92043 0.13306 0.11626 0.0
H3212 H 0.86337 0.08731 0.10496 0.0
H3213 H 0.83172 0.07595 0.0934 0.0
H3214 H 0.79722 0.12984 0.10693 0.0
H3215 H 0.82876 0.14169 0.11845 0.0
C3216 C 0.89132 0.12784 0.17349 0.0
C3217 C 0.87793 0.14398 0.17793 0.0
C3218 C 0.89266 0.12364 0.16092 0.0
C3219 C 0.88068 0.13551 0.15251 0.0
C3220 C 0.86671 0.15108 0.15691 0.0
C3221 C 0.86539 0.15535 0.1695 0.0
C3222 C 0.88339 0.13221 0.13911 0.0
C3223 C 0.86573 0.12636 0.13205 0.0
C3224 C 0.90339 0.13443 0.13336 0.0
C3225 C 0.92246 0.14148 0.14022 0.0
C3226 C 0.92239 0.1608 0.14669 0.0
C3227 C 0.94037 0.16726 0.15321 0.0
C3228 C 0.95858 0.15462 0.15325 0.0
C3229 C 0.95886 0.13552 0.14673 0.0
C3230 C 0.94091 0.12897 0.14021 0.0
C3231 C 0.88057 0.13604 0.07959 0.0
C3232 C 0.89678 0.12362 0.07436 0.0
C3233 C 0.87736 0.13622 0.09228 0.0
C3234 C 0.89009 0.1238 0.10003 0.0
C3235 C 0.90605 0.11109 0.09484 0.0
C3236 C 0.90935 0.11097 0.08213 0.0
C3237 C 0.88751 0.12513 0.11358 0.0
C3238 C 0.90521 0.1307 0.1207 0.0
C3239 C 0.86755 0.12259 0.11937 0.0
C3240 C 0.8485 0.11548 0.11249 0.0
C3241 C 0.84909 0.09683 0.1054 0.0
C3242 C 0.83115 0.09028 0.09887 0.0
C3243 C 0.81249 0.10219 0.09941 0.0
C3244 C 0.8117 0.12064 0.10651 0.0
C3245 C 0.82959 0.12726 0.11306 0.0
H3246 H 0.79862 0.0971 0.09435 0.0
H3247 H 0.97248 0.15965 0.1583 0.0
H3248 H 0.85067 0.67323 0.82792 0.0
H3249 H 0.85239 0.6675 0.85012 0.0
H3250 H 0.89264 0.61304 0.84445 0.0
H3251 H 0.89069 0.61835 0.82231 0.0
H3252 H 0.86523 0.60536 0.86249 0.0
H3253 H 0.91367 0.66105 0.852 0.0
H3254 H 0.92473 0.6951 0.84287 0.0
H3255 H 0.88099 0.72836 0.86618 0.0
H3256 H 0.86946 0.69445 0.87533 0.0
H3257 H 0.91568 0.60312 0.92174 0.0
H3258 H 0.90799 0.60507 0.8997 0.0
H3259 H 0.86304 0.65532 0.90637 0.0
H3260 H 0.87047 0.65346 0.92832 0.0
H3261 H 0.89191 0.6649 0.88799 0.0
H3262 H 0.84512 0.60781 0.89915 0.0
H3263 H 0.8359 0.57322 0.90828 0.0
H3264 H 0.87901 0.54195 0.88369 0.0
H3265 H 0.88872 0.57641 0.87453 0.0
C3266 C 0.85967 0.65988 0.83138 0.0
C3267 C 0.8707 0.64638 0.82331 0.0
C3268 C 0.86072 0.65668 0.84408 0.0
C3269 C 0.87295 0.64005 0.84896 0.0
C3270 C 0.88317 0.62601 0.84091 0.0
C3271 C 0.88208 0.62914 0.82823 0.0
C3272 C 0.87596 0.63781 0.86243 0.0
C3273 C 0.87124 0.61832 0.86805 0.0
C3274 C 0.88362 0.65478 0.86972 0.0
C3275 C 0.89053 0.67519 0.86425 0.0
C3276 C 0.90629 0.67561 0.85511 0.0
C3277 C 0.91266 0.69488 0.84994 0.0
C3278 C 0.90352 0.71387 0.85391 0.0
C3279 C 0.88803 0.71363 0.86309 0.0
C3280 C 0.88157 0.69439 0.86828 0.0
C3281 C 0.90402 0.61445 0.91853 0.0
C3282 C 0.89373 0.62815 0.92681 0.0
C3283 C 0.89961 0.6155 0.90594 0.0
C3284 C 0.88491 0.63032 0.90142 0.0
C3285 C 0.87444 0.64379 0.90967 0.0
C3286 C 0.87869 0.64263 0.92223 0.0
C3287 C 0.88108 0.6325 0.88804 0.0
C3288 C 0.88576 0.65198 0.88244 0.0
C3289 C 0.87365 0.61545 0.88077 0.0
C3290 C 0.86781 0.59472 0.88624 0.0
C3291 C 0.85278 0.59358 0.89577 0.0
C3292 C 0.84743 0.57399 0.90093 0.0
C3293 C 0.8569 0.55541 0.89659 0.0
C3294 C 0.87171 0.55637 0.88706 0.0
C3295 C 0.87712 0.57592 0.88187 0.0
H3296 H 0.85274 0.54026 0.9006 0.0
H3297 H 0.90848 0.72878 0.84991 0.0
H3298 H 0.09168 0.10054 0.57759 0.0
H3299 H 0.09834 0.10159 0.59971 0.0
H3300 H 0.13913 0.15589 0.59481 0.0
H3301 H 0.13308 0.15457 0.5727 0.0
H3302 H 0.15568 0.1305 0.61134 0.0
H3303 H 0.0868 0.16087 0.60443 0.0
H3304 H 0.05007 0.16183 0.59666 0.0
H3305 H 0.03446 0.10739 0.61857 0.0
H3306 H 0.07119 0.10594 0.62635 0.0
H3307 H 0.15036 0.17198 0.67258 0.0
H3308 H 0.14891 0.16602 0.65038 0.0
H3309 H 0.1115 0.10962 0.65619 0.0
H3310 H 0.11267 0.11551 0.67831 0.0
H3311 H 0.09374 0.13502 0.6393 0.0
H3312 H 0.16316 0.10641 0.64701 0.0
H3313 H 0.19984 0.10692 0.65487 0.0
H3314 H 0.21434 0.15997 0.6316 0.0
H3315 H 0.17765 0.15995 0.62372 0.0
C3316 C 0.1022 0.1126 0.58121 0.0
C3317 C 0.11171 0.12756 0.57337 0.0
C3318 C 0.10593 0.11325 0.59387 0.0
C3319 C 0.11894 0.12907 0.59897 0.0
C3320 C 0.129 0.14357 0.59111 0.0
C3321 C 0.12545 0.14281 0.57845 0.0
C3322 C 0.12156 0.13102 0.61249 0.0
C3323 C 0.14213 0.13169 0.61744 0.0
C3324 C 0.10391 0.13227 0.6205 0.0
C3325 C 0.08179 0.13316 0.61587 0.0
C3326 C 0.07557 0.14901 0.60752 0.0
C3327 C 0.05475 0.14966 0.60313 0.0
C3328 C 0.03995 0.13464 0.60709 0.0
C3329 C 0.04594 0.11899 0.61549 0.0
C3330 C 0.06675 0.11825 0.6199 0.0
C3331 C 0.14205 0.15816 0.66915 0.0
C3332 C 0.13157 0.14429 0.67724 0.0
C3333 C 0.14128 0.15474 0.65645 0.0
C3334 C 0.13014 0.13732 0.65162 0.0
C3335 C 0.12014 0.12318 0.6597 0.0
C3336 C 0.12088 0.12658 0.67237 0.0
C3337 C 0.12784 0.13443 0.63815 0.0
C3338 C 0.10729 0.13368 0.63321 0.0
C3339 C 0.14551 0.13332 0.63017 0.0
C3340 C 0.1676 0.1333 0.63486 0.0
C3341 C 0.17412 0.11829 0.64364 0.0
C3342 C 0.19492 0.11847 0.64808 0.0
C3343 C 0.20939 0.1335 0.64376 0.0
C3344 C 0.2031 0.14835 0.63495 0.0
C3345 C 0.18232 0.14824 0.63048 0.0
H3346 H 0.22549 0.13362 0.64721 0.0
H3347 H 0.02384 0.13517 0.60368 0.0
H3348 H 0.5807 0.40011 0.42183 0.0
H3349 H 0.58642 0.39826 0.39965 0.0
H3350 H 0.64099 0.35821 0.40538 0.0
H3351 H 0.63559 0.36016 0.42756 0.0
H3352 H 0.6483 0.387 0.38738 0.0
H3353 H 0.59422 0.33656 0.39764 0.0
H3354 H 0.56056 0.32439 0.40676 0.0
H3355 H 0.52596 0.36749 0.38371 0.0
H3356 H 0.55946 0.38014 0.37457 0.0
H3357 H 0.65287 0.33844 0.32793 0.0
H3358 H 0.65054 0.34588 0.34995 0.0
H3359 H 0.59745 0.38752 0.34344 0.0
H3360 H 0.59961 0.38021 0.32146 0.0
H3361 H 0.5896 0.35887 0.36175 0.0
H3362 H 0.64452 0.40806 0.35084 0.0
H3363 H 0.67854 0.41916 0.34173 0.0
H3364 H 0.71201 0.37704 0.36591 0.0
H3365 H 0.67814 0.36546 0.37506 0.0
C3366 C 0.59405 0.39107 0.4184 0.0
C3367 C 0.60757 0.38014 0.42649 0.0
C3368 C 0.59725 0.38997 0.40571 0.0
C3369 C 0.61396 0.37784 0.40086 0.0
C3370 C 0.62797 0.36762 0.40892 0.0
C3371 C 0.62479 0.3687 0.42161 0.0
C3372 C 0.61629 0.37507 0.38739 0.0
C3373 C 0.63555 0.38066 0.38178 0.0
C3374 C 0.59954 0.36707 0.38007 0.0
C3375 C 0.57936 0.35946 0.38552 0.0
C3376 C 0.57944 0.34357 0.39459 0.0
C3377 C 0.56039 0.33656 0.39975 0.0
C3378 C 0.54113 0.3452 0.39584 0.0
C3379 C 0.54089 0.36083 0.38674 0.0
C3380 C 0.5599 0.36792 0.38156 0.0
C3381 C 0.64082 0.34933 0.33116 0.0
C3382 C 0.6264 0.35868 0.32291 0.0
C3383 C 0.63955 0.35362 0.34375 0.0
C3384 C 0.62386 0.36731 0.34832 0.0
C3385 C 0.60966 0.37689 0.3401 0.0
C3386 C 0.61099 0.37273 0.32753 0.0
C3387 C 0.62157 0.3709 0.36172 0.0
C3388 C 0.60232 0.36535 0.36733 0.0
C3389 C 0.63838 0.37878 0.36903 0.0
C3390 C 0.65877 0.38574 0.36355 0.0
C3391 C 0.65911 0.40102 0.35415 0.0
C3392 C 0.67838 0.40743 0.34899 0.0
C3393 C 0.69742 0.39877 0.35322 0.0
C3394 C 0.69725 0.38372 0.36264 0.0
C3395 C 0.67802 0.37724 0.36782 0.0
H3396 H 0.71232 0.40376 0.34921 0.0
H3397 H 0.5264 0.33975 0.39985 0.0
H3398 H 0.42091 0.90061 0.07886 0.0
H3399 H 0.41454 0.89856 0.10098 0.0
H3400 H 0.36545 0.85208 0.09488 0.0
H3401 H 0.3714 0.8543 0.07277 0.0
H3402 H 0.35373 0.87926 0.11243 0.0
H3403 H 0.41507 0.837 0.10364 0.0
H3404 H 0.45062 0.82952 0.09525 0.0
H3405 H 0.47741 0.87777 0.11838 0.0
H3406 H 0.44194 0.88574 0.12679 0.0
H3407 H 0.35346 0.83299 0.1727 0.0
H3408 H 0.35557 0.83965 0.15057 0.0
H3409 H 0.40173 0.88891 0.15694 0.0
H3410 H 0.39979 0.88242 0.17899 0.0
H3411 H 0.41452 0.86084 0.13933 0.0
H3412 H 0.35227 0.9018 0.14866 0.0
H3413 H 0.31648 0.90788 0.15707 0.0
H3414 H 0.29114 0.86022 0.133 0.0
H3415 H 0.32685 0.85364 0.12456 0.0
C3416 C 0.40863 0.89008 0.08221 0.0
C3417 C 0.39679 0.87749 0.07403 0.0
C3418 C 0.40506 0.88887 0.09486 0.0
C3419 C 0.38974 0.87491 0.0996 0.0
C3420 C 0.37738 0.86292 0.09144 0.0
C3421 C 0.38087 0.86418 0.07879 0.0
C3422 C 0.38714 0.87218 0.11307 0.0
C3423 C 0.36697 0.87503 0.1183 0.0
C3424 C 0.40447 0.8669 0.12076 0.0
C3425 C 0.42582 0.86212 0.11574 0.0
C3426 C 0.42851 0.84613 0.10686 0.0
C3427 C 0.44865 0.84178 0.10212 0.0
C3428 C 0.46625 0.8532 0.10625 0.0
C3429 C 0.46375 0.86896 0.11517 0.0
C3430 C 0.44364 0.87339 0.11993 0.0
C3431 C 0.3639 0.84538 0.16941 0.0
C3432 C 0.37649 0.85712 0.17764 0.0
C3433 C 0.36504 0.84921 0.15676 0.0
C3434 C 0.37877 0.86482 0.15212 0.0
C3435 C 0.39106 0.87678 0.16033 0.0
C3436 C 0.38985 0.87306 0.17295 0.0
C3437 C 0.38116 0.86806 0.1387 0.0
C3438 C 0.40129 0.86519 0.13347 0.0
C3439 C 0.36377 0.87312 0.13102 0.0
C3440 C 0.34228 0.87708 0.13607 0.0
C3441 C 0.3391 0.89248 0.14523 0.0
C3442 C 0.31882 0.89605 0.14999 0.0
C3443 C 0.30156 0.88441 0.1456 0.0
C3444 C 0.30453 0.86921 0.13641 0.0
C3445 C 0.32478 0.86557 0.13163 0.0
H3446 H 0.28587 0.88719 0.14929 0.0
H3447 H 0.48183 0.84981 0.10257 0.0
H3448 H 0.84965 0.33395 0.67281 0.0
H3449 H 0.85029 0.34021 0.65063 0.0
H3450 H 0.8998 0.38672 0.65546 0.0
H3451 H 0.89884 0.38104 0.67759 0.0
H3452 H 0.87315 0.40008 0.63871 0.0
H3453 H 0.91045 0.33486 0.64642 0.0
H3454 H 0.91499 0.29856 0.65445 0.0
H3455 H 0.86318 0.27697 0.6321 0.0
H3456 H 0.85816 0.31323 0.62406 0.0
H3457 H 0.91897 0.39826 0.57864 0.0
H3458 H 0.91176 0.39607 0.60068 0.0
H3459 H 0.85947 0.35369 0.59361 0.0
H3460 H 0.86659 0.35564 0.57162 0.0
H3461 H 0.8855 0.33846 0.61127 0.0
H3462 H 0.85042 0.40437 0.60249 0.0
H3463 H 0.84756 0.44077 0.59437 0.0
H3464 H 0.89726 0.4612 0.6186 0.0
H3465 H 0.90063 0.42484 0.62675 0.0
C3466 C 0.86054 0.34565 0.66916 0.0
C3467 C 0.8743 0.35687 0.67698 0.0
C3468 C 0.86096 0.34915 0.65647 0.0
C3469 C 0.87537 0.36368 0.65134 0.0
C3470 C 0.88858 0.3754 0.65918 0.0
C3471 C 0.88803 0.37207 0.67185 0.0
C3472 C 0.87732 0.36618 0.63781 0.0
C3473 C 0.87603 0.38662 0.63272 0.0
C3474 C 0.88076 0.34861 0.62995 0.0
C3475 C 0.88378 0.32679 0.63475 0.0
C3476 C 0.89992 0.3224 0.64329 0.0
C3477 C 0.9026 0.30183 0.64783 0.0
C3478 C 0.88934 0.28548 0.64381 0.0
C3479 C 0.87341 0.28966 0.63522 0.0
C3480 C 0.87065 0.31021 0.63066 0.0
C3481 C 0.9058 0.38864 0.58175 0.0
C3482 C 0.89341 0.37708 0.57334 0.0
C3483 C 0.90165 0.38747 0.59436 0.0
C3484 C 0.885 0.37479 0.59879 0.0
C3485 C 0.8724 0.36355 0.5904 0.0
C3486 C 0.87649 0.36475 0.57782 0.0
C3487 C 0.88137 0.37234 0.61218 0.0
C3488 C 0.88244 0.3519 0.61725 0.0
C3489 C 0.87796 0.38993 0.62001 0.0
C3490 C 0.8759 0.41183 0.61515 0.0
C3491 C 0.86086 0.41658 0.60602 0.0
C3492 C 0.85912 0.43722 0.60142 0.0
C3493 C 0.87225 0.45328 0.60595 0.0
C3494 C 0.88712 0.44874 0.6151 0.0
C3495 C 0.88893 0.42813 0.61972 0.0
H3496 H 0.87089 0.46924 0.60238 0.0
H3497 H 0.89144 0.26956 0.64734 0.0
H3498 H 0.37617 0.11739 0.32314 0.0
H3499 H 0.37714 0.11288 0.34544 0.0
H3500 H 0.36497 0.17967 0.35025 0.0
H3501 H 0.36373 0.18433 0.32792 0.0
H3502 H 0.40034 0.1646 0.36346 0.0
H3503 H 0.32713 0.14723 0.3572 0.0
H3504 H 0.29706 0.12838 0.34769 0.0
H3505 H 0.32173 0.0689 0.36055 0.0
H3506 H 0.35213 0.08738 0.37 0.0
H3507 H 0.36279 0.14267 0.42929 0.0
H3508 H 0.35511 0.14606 0.40736 0.0
H3509 H 0.41647 0.11986 0.3987 0.0
H3510 H 0.42428 0.11624 0.42064 0.0
H3511 H 0.35429 0.11648 0.38777 0.0
H3512 H 0.43596 0.1507 0.37485 0.0
H3513 H 0.46536 0.17048 0.38449 0.0
H3514 H 0.42191 0.19851 0.41016 0.0
H3515 H 0.39223 0.17915 0.40057 0.0
C3516 C 0.37343 0.13109 0.32894 0.0
C3517 C 0.36992 0.15124 0.32376 0.0
C3518 C 0.37393 0.12846 0.34167 0.0
C3519 C 0.37113 0.14594 0.34947 0.0
C3520 C 0.36717 0.16599 0.34436 0.0
C3521 C 0.36636 0.1686 0.33161 0.0
C3522 C 0.37353 0.14345 0.36293 0.0
C3523 C 0.39024 0.15411 0.36878 0.0
C3524 C 0.36029 0.12983 0.36985 0.0
C3525 C 0.34201 0.11868 0.36421 0.0
C3526 C 0.32624 0.13011 0.35791 0.0
C3527 C 0.30912 0.1195 0.35255 0.0
C3528 C 0.30751 0.09745 0.35349 0.0
C3529 C 0.32301 0.08598 0.35982 0.0
C3530 C 0.34017 0.09652 0.36519 0.0
C3531 C 0.37459 0.13742 0.42273 0.0
C3532 C 0.39421 0.12929 0.42672 0.0
C3533 C 0.37012 0.1393 0.41021 0.0
C3534 C 0.38529 0.13338 0.40144 0.0
C3535 C 0.40462 0.12465 0.40535 0.0
C3536 C 0.40902 0.12253 0.41788 0.0
C3537 C 0.38131 0.13736 0.38823 0.0
C3538 C 0.36437 0.12695 0.38243 0.0
C3539 C 0.39426 0.1513 0.38134 0.0
C3540 C 0.41193 0.1633 0.38707 0.0
C3541 C 0.43268 0.16115 0.38253 0.0
C3542 C 0.44939 0.17228 0.38798 0.0
C3543 C 0.44552 0.18568 0.39796 0.0
C3544 C 0.4249 0.18805 0.40247 0.0
C3545 C 0.40814 0.17698 0.39703 0.0
H3546 H 0.45847 0.19427 0.40218 0.0
H3547 H 0.29424 0.08926 0.34933 0.0
H3548 H 0.61763 0.61151 0.18011 0.0
H3549 H 0.61598 0.60517 0.15794 0.0
H3550 H 0.63693 0.66923 0.15121 0.0
H3551 H 0.63894 0.67564 0.17337 0.0
H3552 H 0.59967 0.65714 0.13811 0.0
H3553 H 0.67051 0.63238 0.14597 0.0
H3554 H 0.69776 0.61095 0.15645 0.0
H3555 H 0.66689 0.55377 0.14462 0.0
H3556 H 0.63926 0.57488 0.13421 0.0
H3557 H 0.63997 0.63065 0.07386 0.0
H3558 H 0.64601 0.6326 0.09602 0.0
H3559 H 0.58157 0.61276 0.10259 0.0
H3560 H 0.57539 0.61059 0.08041 0.0
H3561 H 0.64181 0.6031 0.11564 0.0
H3562 H 0.56335 0.64594 0.12585 0.0
H3563 H 0.5369 0.66823 0.11523 0.0
H3564 H 0.58508 0.69122 0.09075 0.0
H3565 H 0.61184 0.66931 0.10133 0.0
C3566 C 0.62208 0.62419 0.17391 0.0
C3567 C 0.62839 0.6441 0.17849 0.0
C3568 C 0.62117 0.62052 0.16126 0.0
C3569 C 0.62632 0.63674 0.15297 0.0
C3570 C 0.63288 0.65653 0.15749 0.0
C3571 C 0.63411 0.66012 0.17014 0.0
C3572 C 0.62403 0.63332 0.13958 0.0
C3573 C 0.60887 0.64531 0.1332 0.0
C3574 C 0.63609 0.61794 0.13319 0.0
C3575 C 0.6527 0.60522 0.13942 0.0
C3576 C 0.66942 0.61524 0.1457 0.0
C3577 C 0.68496 0.60315 0.15161 0.0
C3578 C 0.68403 0.58101 0.15123 0.0
C3579 C 0.66757 0.57092 0.14492 0.0
C3580 C 0.65198 0.58294 0.13901 0.0
C3581 C 0.62715 0.62641 0.08001 0.0
C3582 C 0.60714 0.6206 0.07537 0.0
C3583 C 0.63067 0.62745 0.09267 0.0
C3584 C 0.6142 0.623 0.10091 0.0
C3585 C 0.59445 0.61637 0.09635 0.0
C3586 C 0.59097 0.61508 0.08368 0.0
C3587 C 0.61728 0.62675 0.11423 0.0
C3588 C 0.63254 0.61483 0.12058 0.0
C3589 C 0.60539 0.64228 0.1206 0.0
C3590 C 0.58952 0.65581 0.1143 0.0
C3591 C 0.5683 0.65581 0.11822 0.0
C3592 C 0.55325 0.66838 0.11221 0.0
C3593 C 0.55929 0.68108 0.10229 0.0
C3594 C 0.58041 0.68131 0.0984 0.0
C3595 C 0.59551 0.66881 0.10439 0.0
H3596 H 0.54762 0.69077 0.09764 0.0
H3597 H 0.69607 0.57168 0.15581 0.0
H3598 H 0.12236 0.88793 0.82361 0.0
H3599 H 0.12137 0.89424 0.84578 0.0
H3600 H 0.14196 0.82999 0.8523 0.0
H3601 H 0.14326 0.82358 0.83012 0.0
H3602 H 0.10513 0.84198 0.86554 0.0
H3603 H 0.17576 0.86722 0.85757 0.0
H3604 H 0.2028 0.88885 0.84705 0.0
H3605 H 0.17163 0.94581 0.85897 0.0
H3606 H 0.14421 0.92451 0.86942 0.0
H3607 H 0.14356 0.86957 0.93004 0.0
H3608 H 0.15036 0.86678 0.90798 0.0
H3609 H 0.08656 0.88759 0.9004 0.0
H3610 H 0.07964 0.89068 0.92247 0.0
H3611 H 0.1468 0.89648 0.88795 0.0
H3612 H 0.06869 0.85321 0.87756 0.0
H3613 H 0.04207 0.83124 0.88825 0.0
H3614 H 0.08987 0.80886 0.91318 0.0
H3615 H 0.11681 0.83045 0.90253 0.0
C3616 C 0.12693 0.87521 0.82975 0.0
C3617 C 0.13286 0.85523 0.8251 0.0
C3618 C 0.12639 0.87886 0.84241 0.0
C3619 C 0.13158 0.86257 0.85065 0.0
C3620 C 0.13789 0.84275 0.84606 0.0
C3621 C 0.13873 0.83916 0.83339 0.0
C3622 C 0.12938 0.86592 0.86406 0.0
C3623 C 0.11426 0.85388 0.87044 0.0
C3624 C 0.14132 0.88143 0.87042 0.0
C3625 C 0.15782 0.89426 0.86418 0.0
C3626 C 0.17456 0.88436 0.85786 0.0
C3627 C 0.18998 0.89656 0.85193 0.0
C3628 C 0.1889 0.91869 0.85232 0.0
C3629 C 0.17243 0.92867 0.85867 0.0
C3630 C 0.15696 0.91654 0.86461 0.0
C3631 C 0.13105 0.87383 0.92369 0.0
C3632 C 0.11101 0.88023 0.92801 0.0
C3633 C 0.13501 0.87231 0.91109 0.0
C3634 C 0.11892 0.87683 0.9026 0.0
C3635 C 0.09914 0.88394 0.90684 0.0
C3636 C 0.09525 0.88574 0.91944 0.0
C3637 C 0.12239 0.87272 0.88936 0.0
C3638 C 0.13767 0.88462 0.88302 0.0
C3639 C 0.11065 0.85704 0.88301 0.0
C3640 C 0.0947 0.84362 0.88932 0.0
C3641 C 0.07352 0.84353 0.88529 0.0
C3642 C 0.05838 0.83115 0.89135 0.0
C3643 C 0.06426 0.81872 0.90141 0.0
C3644 C 0.08532 0.81856 0.90541 0.0
C3645 C 0.10052 0.83088 0.89938 0.0
H3646 H 0.05251 0.80918 0.9061 0.0
H3647 H 0.20086 0.92811 0.84772 0.0
loop_
_geom_bond_atom_site_label_1
_geom_bond_atom_site_label_2
_geom_bond_distance
_geom_bond_site_symmetry_2
_ccdc_geom_bond_type
O0 Cd1 2.223 . S
O0 C8 1.315 . S
Cd1 O0 2.223 . S
Cd1 O4 2.297 . S
Cd1 O5 2.439 . S
Cd1 O11 2.240 . S
Cd2 O3 2.240 . S
Cd2 O10 2.223 . S
Cd2 O12 2.297 . S
Cd2 O13 2.439 . S
O3 Cd2 2.240 . S
O3 C8 1.279 . S
O4 Cd1 2.297 . S
O4 C6 1.247 . S
O5 Cd1 2.439 . S
O5 C6 1.208 . S
C6 O4 1.247 . S
C6 O5 1.208 . S
C7 O12 1.247 . S
C7 O13 1.208 . S
C8 O0 1.315 . S
C8 O3 1.279 . S
C9 O10 1.315 . S
C9 O11 1.279 . S
O10 Cd2 2.223 . S
O10 C9 1.315 . S
O11 Cd1 2.240 . S
O11 C9 1.279 . S
O12 Cd2 2.297 . S
O12 C7 1.247 . S
O13 Cd2 2.439 . S
O13 C7 1.208 . S
O14 Cd15 2.223 . S
O14 C22 1.315 . S
Cd15 O14 2.223 . S
Cd15 O18 2.297 . S
Cd15 O19 2.439 . S
Cd15 O25 2.240 . S
Cd16 O17 2.240 . S
Cd16 O24 2.223 . S
Cd16 O26 2.297 . S
Cd16 O27 2.439 . S
O17 Cd16 2.240 . S
O17 C22 1.279 . S
O18 Cd15 2.297 . S
O18 C20 1.247 . S
O19 Cd15 2.439 . S
O19 C20 1.208 . S
C20 O18 1.247 . S
C20 O19 1.208 . S
C21 O26 1.247 . S
C21 O27 1.208 . S
C22 O14 1.315 . S
C22 O17 1.279 . S
C23 O24 1.315 . S
C23 O25 1.279 . S
O24 Cd16 2.223 . S
O24 C23 1.315 . S
O25 Cd15 2.240 . S
O25 C23 1.279 . S
O26 Cd16 2.297 . S
O26 C21 1.247 . S
O27 Cd16 2.439 . S
O27 C21 1.208 . S
O28 Cd29 2.223 . S
O28 C36 1.315 . S
Cd29 O28 2.223 . S
Cd29 O32 2.297 . S
Cd29 O33 2.439 . S
Cd29 O39 2.240 . S
Cd30 O31 2.240 . S
Cd30 O38 2.223 . S
Cd30 O40 2.297 . S
Cd30 O41 2.439 . S
O31 Cd30 2.240 . S
O31 C36 1.279 . S
O32 Cd29 2.297 . S
O32 C34 1.247 . S
O33 Cd29 2.439 . S
O33 C34 1.208 . S
C34 O32 1.247 . S
C34 O33 1.208 . S
C35 O40 1.247 . S
C35 O41 1.208 . S
C36 O28 1.315 . S
C36 O31 1.279 . S
C37 O38 1.315 . S
C37 O39 1.279 . S
O38 Cd30 2.223 . S
O38 C37 1.315 . S
O39 Cd29 2.240 . S
O39 C37 1.279 . S
O40 Cd30 2.297 . S
O40 C35 1.247 . S
O41 Cd30 2.439 . S
O41 C35 1.208 . S
O42 Cd43 2.223 . S
O42 C50 1.315 . S
Cd43 O42 2.223 . S
Cd43 O46 2.297 . S
Cd43 O47 2.439 . S
Cd43 O53 2.240 . S
Cd44 O45 2.240 . S
Cd44 O52 2.223 . S
Cd44 O54 2.297 . S
Cd44 O55 2.439 . S
O45 Cd44 2.240 . S
O45 C50 1.279 . S
O46 Cd43 2.297 . S
O46 C48 1.247 . S
O47 Cd43 2.439 . S
O47 C48 1.208 . S
C48 O46 1.247 . S
C48 O47 1.208 . S
C49 O54 1.247 . S
C49 O55 1.208 . S
C50 O42 1.315 . S
C50 O45 1.279 . S
C51 O52 1.315 . S
C51 O53 1.279 . S
O52 Cd44 2.223 . S
O52 C51 1.315 . S
O53 Cd43 2.240 . S
O53 C51 1.279 . S
O54 Cd44 2.297 . S
O54 C49 1.247 . S
O55 Cd44 2.439 . S
O55 C49 1.208 . S
O56 Cd57 2.223 . S
O56 C64 1.315 . S
Cd57 O56 2.223 . S
Cd57 O60 2.297 . S
Cd57 O61 2.439 . S
Cd57 O67 2.240 . S
Cd58 O59 2.240 . S
Cd58 O66 2.223 . S
Cd58 O68 2.297 . S
Cd58 O69 2.439 . S
O59 Cd58 2.240 . S
O59 C64 1.279 . S
O60 Cd57 2.297 . S
O60 C62 1.247 . S
O61 Cd57 2.439 . S
O61 C62 1.208 . S
C62 O60 1.247 . S
C62 O61 1.208 . S
C63 O68 1.247 . S
C63 O69 1.208 . S
C64 O56 1.315 . S
C64 O59 1.279 . S
C65 O66 1.315 . S
C65 O67 1.279 . S
O66 Cd58 2.223 . S
O66 C65 1.315 . S
O67 Cd57 2.240 . S
O67 C65 1.279 . S
O68 Cd58 2.297 . S
O68 C63 1.247 . S
O69 Cd58 2.439 . S
O69 C63 1.208 . S
O70 Cd71 2.223 . S
O70 C78 1.315 . S
Cd71 O70 2.223 . S
Cd71 O74 2.297 . S
Cd71 O75 2.439 . S
Cd71 O81 2.240 . S
Cd72 O73 2.240 . S
Cd72 O80 2.223 . S
Cd72 O82 2.297 . S
Cd72 O83 2.439 . S
O73 Cd72 2.240 . S
O73 C78 1.279 . S
O74 Cd71 2.297 . S
O74 C76 1.247 . S
O75 Cd71 2.439 . S
O75 C76 1.208 . S
C76 O74 1.247 . S
C76 O75 1.208 . S
C77 O82 1.247 . S
C77 O83 1.208 . S
C78 O70 1.315 . S
C78 O73 1.279 . S
C79 O80 1.315 . S
C79 O81 1.279 . S
O80 Cd72 2.223 . S
O80 C79 1.315 . S
O81 Cd71 2.240 . S
O81 C79 1.279 . S
O82 Cd72 2.297 . S
O82 C77 1.247 . S
O83 Cd72 2.439 . S
O83 C77 1.208 . S
O84 Cd85 2.223 . S
O84 C92 1.315 . S
Cd85 O84 2.223 . S
Cd85 O88 2.297 . S
Cd85 O89 2.439 . S
Cd85 O95 2.240 . S
Cd86 O87 2.240 . S
Cd86 O94 2.223 . S
Cd86 O96 2.297 . S
Cd86 O97 2.439 . S
O87 Cd86 2.240 . S
O87 C92 1.279 . S
O88 Cd85 2.297 . S
O88 C90 1.247 . S
O89 Cd85 2.439 . S
O89 C90 1.208 . S
C90 O88 1.247 . S
C90 O89 1.208 . S
C91 O96 1.247 . S
C91 O97 1.208 . S
C92 O84 1.315 . S
C92 O87 1.279 . S
C93 O94 1.315 . S
C93 O95 1.279 . S
O94 Cd86 2.223 . S
O94 C93 1.315 . S
O95 Cd85 2.240 . S
O95 C93 1.279 . S
O96 Cd86 2.297 . S
O96 C91 1.247 . S
O97 Cd86 2.439 . S
O97 C91 1.208 . S
O98 Cd99 2.223 . S
O98 C106 1.315 . S
Cd99 O98 2.223 . S
Cd99 O102 2.297 . S
Cd99 O103 2.439 . S
Cd99 O109 2.240 . S
Cd100 O101 2.240 . S
Cd100 O108 2.223 . S
Cd100 O110 2.297 . S
Cd100 O111 2.439 . S
O101 Cd100 2.240 . S
O101 C106 1.279 . S
O102 Cd99 2.297 . S
O102 C104 1.247 . S
O103 Cd99 2.439 . S
O103 C104 1.208 . S
C104 O102 1.247 . S
C104 O103 1.208 . S
C105 O110 1.247 . S
C105 O111 1.208 . S
C106 O98 1.315 . S
C106 O101 1.279 . S
C107 O108 1.315 . S
C107 O109 1.279 . S
O108 Cd100 2.223 . S
O108 C107 1.315 . S
O109 Cd99 2.240 . S
O109 C107 1.279 . S
O110 Cd100 2.297 . S
O110 C105 1.247 . S
O111 Cd100 2.439 . S
O111 C105 1.208 . S
O112 Cd113 2.223 . S
O112 C120 1.315 . S
Cd113 O112 2.223 . S
Cd113 O116 2.297 . S
Cd113 O117 2.439 . S
Cd113 O123 2.240 . S
Cd114 O115 2.240 . S
Cd114 O122 2.223 . S
Cd114 O124 2.297 . S
Cd114 O125 2.439 . S
O115 Cd114 2.240 . S
O115 C120 1.279 . S
O116 Cd113 2.297 . S
O116 C118 1.247 . S
O117 Cd113 2.439 . S
O117 C118 1.208 . S
C118 O116 1.247 . S
C118 O117 1.208 . S
C119 O124 1.247 . S
C119 O125 1.208 . S
C120 O112 1.315 . S
C120 O115 1.279 . S
C121 O122 1.315 . S
C121 O123 1.279 . S
O122 Cd114 2.223 . S
O122 C121 1.315 . S
O123 Cd113 2.240 . S
O123 C121 1.279 . S
O124 Cd114 2.297 . S
O124 C119 1.247 . S
O125 Cd114 2.439 . S
O125 C119 1.208 . S
O126 Cd127 2.223 . S
O126 C134 1.315 . S
Cd127 O126 2.223 . S
Cd127 O130 2.297 . S
Cd127 O131 2.439 . S
Cd127 O137 2.240 . S
Cd128 O129 2.240 . S
Cd128 O136 2.223 . S
Cd128 O138 2.297 . S
Cd128 O139 2.439 . S
O129 Cd128 2.240 . S
O129 C134 1.279 . S
O130 Cd127 2.297 . S
O130 C132 1.247 . S
O131 Cd127 2.439 . S
O131 C132 1.208 . S
C132 O130 1.247 . S
C132 O131 1.208 . S
C133 O138 1.247 . S
C133 O139 1.208 . S
C134 O126 1.315 . S
C134 O129 1.279 . S
C135 O136 1.315 . S
C135 O137 1.279 . S
O136 Cd128 2.223 . S
O136 C135 1.315 . S
O137 Cd127 2.240 . S
O137 C135 1.279 . S
O138 Cd128 2.297 . S
O138 C133 1.247 . S
O139 Cd128 2.439 . S
O139 C133 1.208 . S
O140 Cd141 2.223 . S
O140 C148 1.315 . S
Cd141 O140 2.223 . S
Cd141 O144 2.297 . S
Cd141 O145 2.439 . S
Cd141 O151 2.240 . S
Cd142 O143 2.240 . S
Cd142 O150 2.223 . S
Cd142 O152 2.297 . S
Cd142 O153 2.439 . S
O143 Cd142 2.240 . S
O143 C148 1.279 . S
O144 Cd141 2.297 . S
O144 C146 1.247 . S
O145 Cd141 2.439 . S
O145 C146 1.208 . S
C146 O144 1.247 . S
C146 O145 1.208 . S
C147 O152 1.247 . S
C147 O153 1.208 . S
C148 O140 1.315 . S
C148 O143 1.279 . S
C149 O150 1.315 . S
C149 O151 1.279 . S
O150 Cd142 2.223 . S
O150 C149 1.315 . S
O151 Cd141 2.240 . S
O151 C149 1.279 . S
O152 Cd142 2.297 . S
O152 C147 1.247 . S
O153 Cd142 2.439 . S
O153 C147 1.208 . S
O154 Cd155 2.223 . S
O154 C162 1.315 . S
Cd155 O154 2.223 . S
Cd155 O158 2.297 . S
Cd155 O159 2.439 . S
Cd155 O165 2.240 . S
Cd156 O157 2.240 . S
Cd156 O164 2.223 . S
Cd156 O166 2.297 . S
Cd156 O167 2.439 . S
O157 Cd156 2.240 . S
O157 C162 1.279 . S
O158 Cd155 2.297 . S
O158 C160 1.247 . S
O159 Cd155 2.439 . S
O159 C160 1.208 . S
C160 O158 1.247 . S
C160 O159 1.208 . S
C161 O166 1.247 . S
C161 O167 1.208 . S
C162 O154 1.315 . S
C162 O157 1.279 . S
C163 O164 1.315 . S
C163 O165 1.279 . S
O164 Cd156 2.223 . S
O164 C163 1.315 . S
O165 Cd155 2.240 . S
O165 C163 1.279 . S
O166 Cd156 2.297 . S
O166 C161 1.247 . S
O167 Cd156 2.439 . S
O167 C161 1.208 . S
O168 Cd169 2.223 . S
O168 C176 1.315 . S
Cd169 O168 2.223 . S
Cd169 O172 2.297 . S
Cd169 O173 2.439 . S
Cd169 O179 2.240 . S
Cd170 O171 2.240 . S
Cd170 O178 2.223 . S
Cd170 O180 2.297 . S
Cd170 O181 2.439 . S
O171 Cd170 2.240 . S
O171 C176 1.279 . S
O172 Cd169 2.297 . S
O172 C174 1.247 . S
O173 Cd169 2.439 . S
O173 C174 1.208 . S
C174 O172 1.247 . S
C174 O173 1.208 . S
C175 O180 1.247 . S
C175 O181 1.208 . S
C176 O168 1.315 . S
C176 O171 1.279 . S
C177 O178 1.315 . S
C177 O179 1.279 . S
O178 Cd170 2.223 . S
O178 C177 1.315 . S
O179 Cd169 2.240 . S
O179 C177 1.279 . S
O180 Cd170 2.297 . S
O180 C175 1.247 . S
O181 Cd170 2.439 . S
O181 C175 1.208 . S
O182 Cd183 2.223 . S
O182 C190 1.315 . S
Cd183 O182 2.223 . S
Cd183 O186 2.297 . S
Cd183 O187 2.439 . S
Cd183 O193 2.240 . S
Cd184 O185 2.240 . S
Cd184 O192 2.223 . S
Cd184 O194 2.297 . S
Cd184 O195 2.439 . S
O185 Cd184 2.240 . S
O185 C190 1.279 . S
O186 Cd183 2.297 . S
O186 C188 1.247 . S
O187 Cd183 2.439 . S
O187 C188 1.208 . S
C188 O186 1.247 . S
C188 O187 1.208 . S
C189 O194 1.247 . S
C189 O195 1.208 . S
C190 O182 1.315 . S
C190 O185 1.279 . S
C191 O192 1.315 . S
C191 O193 1.279 . S
O192 Cd184 2.223 . S
O192 C191 1.315 . S
O193 Cd183 2.240 . S
O193 C191 1.279 . S
O194 Cd184 2.297 . S
O194 C189 1.247 . S
O195 Cd184 2.439 . S
O195 C189 1.208 . S
O196 Cd197 2.223 . S
O196 C204 1.315 . S
Cd197 O196 2.223 . S
Cd197 O200 2.297 . S
Cd197 O201 2.439 . S
Cd197 O207 2.240 . S
Cd198 O199 2.240 . S
Cd198 O206 2.223 . S
Cd198 O208 2.297 . S
Cd198 O209 2.439 . S
O199 Cd198 2.240 . S
O199 C204 1.279 . S
O200 Cd197 2.297 . S
O200 C202 1.247 . S
O201 Cd197 2.439 . S
O201 C202 1.208 . S
C202 O200 1.247 . S
C202 O201 1.208 . S
C203 O208 1.247 . S
C203 O209 1.208 . S
C204 O196 1.315 . S
C204 O199 1.279 . S
C205 O206 1.315 . S
C205 O207 1.279 . S
O206 Cd198 2.223 . S
O206 C205 1.315 . S
O207 Cd197 2.240 . S
O207 C205 1.279 . S
O208 Cd198 2.297 . S
O208 C203 1.247 . S
O209 Cd198 2.439 . S
O209 C203 1.208 . S
O210 Cd211 2.223 . S
O210 C218 1.315 . S
Cd211 O210 2.223 . S
Cd211 O214 2.297 . S
Cd211 O215 2.439 . S
Cd211 O221 2.240 . S
Cd212 O213 2.240 . S
Cd212 O220 2.223 . S
Cd212 O222 2.297 . S
Cd212 O223 2.439 . S
O213 Cd212 2.240 . S
O213 C218 1.279 . S
O214 Cd211 2.297 . S
O214 C216 1.247 . S
O215 Cd211 2.439 . S
O215 C216 1.208 . S
C216 O214 1.247 . S
C216 O215 1.208 . S
C217 O222 1.247 . S
C217 O223 1.208 . S
C218 O210 1.315 . S
C218 O213 1.279 . S
C219 O220 1.315 . S
C219 O221 1.279 . S
O220 Cd212 2.223 . S
O220 C219 1.315 . S
O221 Cd211 2.240 . S
O221 C219 1.279 . S
O222 Cd212 2.297 . S
O222 C217 1.247 . S
O223 Cd212 2.439 . S
O223 C217 1.208 . S
O224 Cd225 2.223 . S
O224 C232 1.315 . S
Cd225 O224 2.223 . S
Cd225 O228 2.297 . S
Cd225 O229 2.439 . S
Cd225 O235 2.240 . S
Cd226 O227 2.240 . S
Cd226 O234 2.223 . S
Cd226 O236 2.297 . S
Cd226 O237 2.439 . S
O227 Cd226 2.240 . S
O227 C232 1.279 . S
O228 Cd225 2.297 . S
O228 C230 1.247 . S
O229 Cd225 2.439 . S
O229 C230 1.208 . S
C230 O228 1.247 . S
C230 O229 1.208 . S
C231 O236 1.247 . S
C231 O237 1.208 . S
C232 O224 1.315 . S
C232 O227 1.279 . S
C233 O234 1.315 . S
C233 O235 1.279 . S
O234 Cd226 2.223 . S
O234 C233 1.315 . S
O235 Cd225 2.240 . S
O235 C233 1.279 . S
O236 Cd226 2.297 . S
O236 C231 1.247 . S
O237 Cd226 2.439 . S
O237 C231 1.208 . S
O238 Cd239 2.223 . S
O238 C246 1.315 . S
Cd239 O238 2.223 . S
Cd239 O242 2.297 . S
Cd239 O243 2.439 . S
Cd239 O249 2.240 . S
Cd240 O241 2.240 . S
Cd240 O248 2.223 . S
Cd240 O250 2.297 . S
Cd240 O251 2.439 . S
O241 Cd240 2.240 . S
O241 C246 1.279 . S
O242 Cd239 2.297 . S
O242 C244 1.247 . S
O243 Cd239 2.439 . S
O243 C244 1.208 . S
C244 O242 1.247 . S
C244 O243 1.208 . S
C245 O250 1.247 . S
C245 O251 1.208 . S
C246 O238 1.315 . S
C246 O241 1.279 . S
C247 O248 1.315 . S
C247 O249 1.279 . S
O248 Cd240 2.223 . S
O248 C247 1.315 . S
O249 Cd239 2.240 . S
O249 C247 1.279 . S
O250 Cd240 2.297 . S
O250 C245 1.247 . S
O251 Cd240 2.439 . S
O251 C245 1.208 . S
O252 Cd253 2.223 . S
O252 C260 1.315 . S
Cd253 O252 2.223 . S
Cd253 O256 2.297 . S
Cd253 O257 2.439 . S
Cd253 O263 2.240 . S
Cd254 O255 2.240 . S
Cd254 O262 2.223 . S
Cd254 O264 2.297 . S
Cd254 O265 2.439 . S
O255 Cd254 2.240 . S
O255 C260 1.279 . S
O256 Cd253 2.297 . S
O256 C258 1.247 . S
O257 Cd253 2.439 . S
O257 C258 1.208 . S
C258 O256 1.247 . S
C258 O257 1.208 . S
C259 O264 1.247 . S
C259 O265 1.208 . S
C260 O252 1.315 . S
C260 O255 1.279 . S
C261 O262 1.315 . S
C261 O263 1.279 . S
O262 Cd254 2.223 . S
O262 C261 1.315 . S
O263 Cd253 2.240 . S
O263 C261 1.279 . S
O264 Cd254 2.297 . S
O264 C259 1.247 . S
O265 Cd254 2.439 . S
O265 C259 1.208 . S
O266 Cd267 2.223 . S
O266 C274 1.315 . S
Cd267 O266 2.223 . S
Cd267 O270 2.297 . S
Cd267 O271 2.439 . S
Cd267 O277 2.240 . S
Cd268 O269 2.240 . S
Cd268 O276 2.223 . S
Cd268 O278 2.297 . S
Cd268 O279 2.439 . S
O269 Cd268 2.240 . S
O269 C274 1.279 . S
O270 Cd267 2.297 . S
O270 C272 1.247 . S
O271 Cd267 2.439 . S
O271 C272 1.208 . S
C272 O270 1.247 . S
C272 O271 1.208 . S
C273 O278 1.247 . S
C273 O279 1.208 . S
C274 O266 1.315 . S
C274 O269 1.279 . S
C275 O276 1.315 . S
C275 O277 1.279 . S
O276 Cd268 2.223 . S
O276 C275 1.315 . S
O277 Cd267 2.240 . S
O277 C275 1.279 . S
O278 Cd268 2.297 . S
O278 C273 1.247 . S
O279 Cd268 2.439 . S
O279 C273 1.208 . S
O280 Cd281 2.223 . S
O280 C288 1.315 . S
Cd281 O280 2.223 . S
Cd281 O284 2.297 . S
Cd281 O285 2.439 . S
Cd281 O291 2.240 . S
Cd282 O283 2.240 . S
Cd282 O290 2.223 . S
Cd282 O292 2.297 . S
Cd282 O293 2.439 . S
O283 Cd282 2.240 . S
O283 C288 1.279 . S
O284 Cd281 2.297 . S
O284 C286 1.247 . S
O285 Cd281 2.439 . S
O285 C286 1.208 . S
C286 O284 1.247 . S
C286 O285 1.208 . S
C287 O292 1.247 . S
C287 O293 1.208 . S
C288 O280 1.315 . S
C288 O283 1.279 . S
C289 O290 1.315 . S
C289 O291 1.279 . S
O290 Cd282 2.223 . S
O290 C289 1.315 . S
O291 Cd281 2.240 . S
O291 C289 1.279 . S
O292 Cd282 2.297 . S
O292 C287 1.247 . S
O293 Cd282 2.439 . S
O293 C287 1.208 . S
O294 Cd295 2.223 . S
O294 C302 1.315 . S
Cd295 O294 2.223 . S
Cd295 O298 2.297 . S
Cd295 O299 2.439 . S
Cd295 O305 2.240 . S
Cd296 O297 2.240 . S
Cd296 O304 2.223 . S
Cd296 O306 2.297 . S
Cd296 O307 2.439 . S
O297 Cd296 2.240 . S
O297 C302 1.279 . S
O298 Cd295 2.297 . S
O298 C300 1.247 . S
O299 Cd295 2.439 . S
O299 C300 1.208 . S
C300 O298 1.247 . S
C300 O299 1.208 . S
C301 O306 1.247 . S
C301 O307 1.208 . S
C302 O294 1.315 . S
C302 O297 1.279 . S
C303 O304 1.315 . S
C303 O305 1.279 . S
O304 Cd296 2.223 . S
O304 C303 1.315 . S
O305 Cd295 2.240 . S
O305 C303 1.279 . S
O306 Cd296 2.297 . S
O306 C301 1.247 . S
O307 Cd296 2.439 . S
O307 C301 1.208 . S
O308 Cd309 2.223 . S
O308 C316 1.315 . S
Cd309 O308 2.223 . S
Cd309 O312 2.297 . S
Cd309 O313 2.439 . S
Cd309 O319 2.240 . S
Cd310 O311 2.240 . S
Cd310 O318 2.223 . S
Cd310 O320 2.297 . S
Cd310 O321 2.439 . S
O311 Cd310 2.240 . S
O311 C316 1.279 . S
O312 Cd309 2.297 . S
O312 C314 1.247 . S
O313 Cd309 2.439 . S
O313 C314 1.208 . S
C314 O312 1.247 . S
C314 O313 1.208 . S
C315 O320 1.247 . S
C315 O321 1.208 . S
C316 O308 1.315 . S
C316 O311 1.279 . S
C317 O318 1.315 . S
C317 O319 1.279 . S
O318 Cd310 2.223 . S
O318 C317 1.315 . S
O319 Cd309 2.240 . S
O319 C317 1.279 . S
O320 Cd310 2.297 . S
O320 C315 1.247 . S
O321 Cd310 2.439 . S
O321 C315 1.208 . S
O322 Cd323 2.223 . S
O322 C330 1.315 . S
Cd323 O322 2.223 . S
Cd323 O326 2.297 . S
Cd323 O327 2.439 . S
Cd323 O333 2.240 . S
Cd324 O325 2.240 . S
Cd324 O332 2.223 . S
Cd324 O334 2.297 . S
Cd324 O335 2.439 . S
O325 Cd324 2.240 . S
O325 C330 1.279 . S
O326 Cd323 2.297 . S
O326 C328 1.247 . S
O327 Cd323 2.439 . S
O327 C328 1.208 . S
C328 O326 1.247 . S
C328 O327 1.208 . S
C329 O334 1.247 . S
C329 O335 1.208 . S
C330 O322 1.315 . S
C330 O325 1.279 . S
C331 O332 1.315 . S
C331 O333 1.279 . S
O332 Cd324 2.223 . S
O332 C331 1.315 . S
O333 Cd323 2.240 . S
O333 C331 1.279 . S
O334 Cd324 2.297 . S
O334 C329 1.247 . S
O335 Cd324 2.439 . S
O335 C329 1.208 . S
O336 Cd337 2.223 . S
O336 C344 1.315 . S
Cd337 O336 2.223 . S
Cd337 O340 2.297 . S
Cd337 O341 2.439 . S
Cd337 O347 2.240 . S
Cd338 O339 2.240 . S
Cd338 O346 2.223 . S
Cd338 O348 2.297 . S
Cd338 O349 2.439 . S
O339 Cd338 2.240 . S
O339 C344 1.279 . S
O340 Cd337 2.297 . S
O340 C342 1.247 . S
O341 Cd337 2.439 . S
O341 C342 1.208 . S
C342 O340 1.247 . S
C342 O341 1.208 . S
C343 O348 1.247 . S
C343 O349 1.208 . S
C344 O336 1.315 . S
C344 O339 1.279 . S
C345 O346 1.315 . S
C345 O347 1.279 . S
O346 Cd338 2.223 . S
O346 C345 1.315 . S
O347 Cd337 2.240 . S
O347 C345 1.279 . S
O348 Cd338 2.297 . S
O348 C343 1.247 . S
O349 Cd338 2.439 . S
O349 C343 1.208 . S
O350 Cd351 2.223 . S
O350 C358 1.315 . S
Cd351 O350 2.223 . S
Cd351 O354 2.297 . S
Cd351 O355 2.439 . S
Cd351 O361 2.240 . S
Cd352 O353 2.240 . S
Cd352 O360 2.223 . S
Cd352 O362 2.297 . S
Cd352 O363 2.439 . S
O353 Cd352 2.240 . S
O353 C358 1.279 . S
O354 Cd351 2.297 . S
O354 C356 1.247 . S
O355 Cd351 2.439 . S
O355 C356 1.208 . S
C356 O354 1.247 . S
C356 O355 1.208 . S
C357 O362 1.247 . S
C357 O363 1.208 . S
C358 O350 1.315 . S
C358 O353 1.279 . S
C359 O360 1.315 . S
C359 O361 1.279 . S
O360 Cd352 2.223 . S
O360 C359 1.315 . S
O361 Cd351 2.240 . S
O361 C359 1.279 . S
O362 Cd352 2.297 . S
O362 C357 1.247 . S
O363 Cd352 2.439 . S
O363 C357 1.208 . S
O364 Cd365 2.223 . S
O364 C372 1.315 . S
Cd365 O364 2.223 . S
Cd365 O368 2.297 . S
Cd365 O369 2.439 . S
Cd365 O375 2.240 . S
Cd366 O367 2.240 . S
Cd366 O374 2.223 . S
Cd366 O376 2.297 . S
Cd366 O377 2.439 . S
O367 Cd366 2.240 . S
O367 C372 1.279 . S
O368 Cd365 2.297 . S
O368 C370 1.247 . S
O369 Cd365 2.439 . S
O369 C370 1.208 . S
C370 O368 1.247 . S
C370 O369 1.208 . S
C371 O376 1.247 . S
C371 O377 1.208 . S
C372 O364 1.315 . S
C372 O367 1.279 . S
C373 O374 1.315 . S
C373 O375 1.279 . S
O374 Cd366 2.223 . S
O374 C373 1.315 . S
O375 Cd365 2.240 . S
O375 C373 1.279 . S
O376 Cd366 2.297 . S
O376 C371 1.247 . S
O377 Cd366 2.439 . S
O377 C371 1.208 . S
O378 Cd379 2.223 . S
O378 C386 1.315 . S
Cd379 O378 2.223 . S
Cd379 O382 2.297 . S
Cd379 O383 2.439 . S
Cd379 O389 2.240 . S
Cd380 O381 2.240 . S
Cd380 O388 2.223 . S
Cd380 O390 2.297 . S
Cd380 O391 2.439 . S
O381 Cd380 2.240 . S
O381 C386 1.279 . S
O382 Cd379 2.297 . S
O382 C384 1.247 . S
O383 Cd379 2.439 . S
O383 C384 1.208 . S
C384 O382 1.247 . S
C384 O383 1.208 . S
C385 O390 1.247 . S
C385 O391 1.208 . S
C386 O378 1.315 . S
C386 O381 1.279 . S
C387 O388 1.315 . S
C387 O389 1.279 . S
O388 Cd380 2.223 . S
O388 C387 1.315 . S
O389 Cd379 2.240 . S
O389 C387 1.279 . S
O390 Cd380 2.297 . S
O390 C385 1.247 . S
O391 Cd380 2.439 . S
O391 C385 1.208 . S
O392 Cd393 2.223 . S
O392 C400 1.315 . S
Cd393 O392 2.223 . S
Cd393 O396 2.297 . S
Cd393 O397 2.439 . S
Cd393 O403 2.240 . S
Cd394 O395 2.240 . S
Cd394 O402 2.223 . S
Cd394 O404 2.297 . S
Cd394 O405 2.439 . S
O395 Cd394 2.240 . S
O395 C400 1.279 . S
O396 Cd393 2.297 . S
O396 C398 1.247 . S
O397 Cd393 2.439 . S
O397 C398 1.208 . S
C398 O396 1.247 . S
C398 O397 1.208 . S
C399 O404 1.247 . S
C399 O405 1.208 . S
C400 O392 1.315 . S
C400 O395 1.279 . S
C401 O402 1.315 . S
C401 O403 1.279 . S
O402 Cd394 2.223 . S
O402 C401 1.315 . S
O403 Cd393 2.240 . S
O403 C401 1.279 . S
O404 Cd394 2.297 . S
O404 C399 1.247 . S
O405 Cd394 2.439 . S
O405 C399 1.208 . S
O406 Cd407 2.223 . S
O406 C414 1.315 . S
Cd407 O406 2.223 . S
Cd407 O410 2.297 . S
Cd407 O411 2.439 . S
Cd407 O417 2.240 . S
Cd408 O409 2.240 . S
Cd408 O416 2.223 . S
Cd408 O418 2.297 . S
Cd408 O419 2.439 . S
O409 Cd408 2.240 . S
O409 C414 1.279 . S
O410 Cd407 2.297 . S
O410 C412 1.247 . S
O411 Cd407 2.439 . S
O411 C412 1.208 . S
C412 O410 1.247 . S
C412 O411 1.208 . S
C413 O418 1.247 . S
C413 O419 1.208 . S
C414 O406 1.315 . S
C414 O409 1.279 . S
C415 O416 1.315 . S
C415 O417 1.279 . S
O416 Cd408 2.223 . S
O416 C415 1.315 . S
O417 Cd407 2.240 . S
O417 C415 1.279 . S
O418 Cd408 2.297 . S
O418 C413 1.247 . S
O419 Cd408 2.439 . S
O419 C413 1.208 . S
O420 Cd421 2.223 . S
O420 C428 1.315 . S
Cd421 O420 2.223 . S
Cd421 O424 2.297 . S
Cd421 O425 2.439 . S
Cd421 O431 2.240 . S
Cd422 O423 2.240 . S
Cd422 O430 2.223 . S
Cd422 O432 2.297 . S
Cd422 O433 2.439 . S
O423 Cd422 2.240 . S
O423 C428 1.279 . S
O424 Cd421 2.297 . S
O424 C426 1.247 . S
O425 Cd421 2.439 . S
O425 C426 1.208 . S
C426 O424 1.247 . S
C426 O425 1.208 . S
C427 O432 1.247 . S
C427 O433 1.208 . S
C428 O420 1.315 . S
C428 O423 1.279 . S
C429 O430 1.315 . S
C429 O431 1.279 . S
O430 Cd422 2.223 . S
O430 C429 1.315 . S
O431 Cd421 2.240 . S
O431 C429 1.279 . S
O432 Cd422 2.297 . S
O432 C427 1.247 . S
O433 Cd422 2.439 . S
O433 C427 1.208 . S
O434 Cd435 2.223 . S
O434 C442 1.315 . S
Cd435 O434 2.223 . S
Cd435 O438 2.297 . S
Cd435 O439 2.439 . S
Cd435 O445 2.240 . S
Cd436 O437 2.240 . S
Cd436 O444 2.223 . S
Cd436 O446 2.297 . S
Cd436 O447 2.439 . S
O437 Cd436 2.240 . S
O437 C442 1.279 . S
O438 Cd435 2.297 . S
O438 C440 1.247 . S
O439 Cd435 2.439 . S
O439 C440 1.208 . S
C440 O438 1.247 . S
C440 O439 1.208 . S
C441 O446 1.247 . S
C441 O447 1.208 . S
C442 O434 1.315 . S
C442 O437 1.279 . S
C443 O444 1.315 . S
C443 O445 1.279 . S
O444 Cd436 2.223 . S
O444 C443 1.315 . S
O445 Cd435 2.240 . S
O445 C443 1.279 . S
O446 Cd436 2.297 . S
O446 C441 1.247 . S
O447 Cd436 2.439 . S
O447 C441 1.208 . S
H448 C466 0.951 . S
H449 C468 0.978 . S
H450 C470 0.950 . S
H451 C471 0.950 . S
H452 C473 0.950 . S
H453 C476 0.950 . S
H454 C477 0.950 . S
H455 C479 0.950 . S
H456 C480 0.950 . S
H457 C481 0.951 . S
H458 C483 0.978 . S
H459 C485 0.950 . S
H460 C486 0.950 . S
H461 C488 0.950 . S
H462 C491 0.950 . S
H463 C492 0.950 . S
H464 C494 0.950 . S
H465 C495 0.950 . S
C466 H448 0.951 . S
C466 C467 1.366 . S
C466 C468 1.388 . S
C467 C466 1.366 . S
C467 C471 1.385 . S
C468 H449 0.978 . S
C468 C466 1.388 . S
C468 C469 1.366 . S
C469 C468 1.366 . S
C469 C470 1.414 . S
C469 C472 1.499 . S
C470 H450 0.950 . S
C470 C469 1.414 . S
C470 C471 1.374 . S
C471 H451 0.950 . S
C471 C467 1.385 . S
C471 C470 1.374 . S
C472 C469 1.499 . S
C472 C473 1.373 1_556 S
C472 C474 1.389 1_655 S
C473 H452 0.950 . S
C473 C472 1.373 1_554 S
C473 C489 1.377 . S
C474 C472 1.389 1_455 S
C474 C475 1.524 . S
C474 C488 1.377 . S
C475 C474 1.524 . S
C475 C476 1.397 1_455 S
C475 C480 1.363 . S
C476 H453 0.950 . S
C476 C475 1.397 1_655 S
C476 C477 1.334 . S
C477 H454 0.950 . S
C477 C476 1.334 . S
C477 C478 1.287 1_655 S
C478 C477 1.287 1_455 S
C478 C479 1.524 . S
C478 H497 0.913 . S
C479 H455 0.950 . S
C479 C478 1.524 . S
C479 C480 1.415 . S
C480 H456 0.950 . S
C480 C475 1.363 . S
C480 C479 1.415 . S
C481 H457 0.951 . S
C481 C482 1.366 . S
C481 C483 1.388 . S
C482 C481 1.366 . S
C482 C486 1.385 . S
C483 H458 0.978 . S
C483 C481 1.388 . S
C483 C484 1.366 . S
C484 C483 1.366 . S
C484 C485 1.414 . S
C484 C487 1.499 . S
C485 H459 0.950 . S
C485 C484 1.414 . S
C485 C486 1.374 . S
C486 H460 0.950 . S
C486 C482 1.385 . S
C486 C485 1.374 . S
C487 C484 1.499 . S
C487 C488 1.373 1_554 S
C487 C489 1.389 1_455 S
C488 H461 0.950 . S
C488 C474 1.377 . S
C488 C487 1.373 1_556 S
C489 C473 1.377 . S
C489 C487 1.389 1_655 S
C489 C490 1.524 . S
C490 C489 1.524 . S
C490 C491 1.397 1_655 S
C490 C495 1.363 . S
C491 H462 0.950 . S
C491 C490 1.397 1_455 S
C491 C492 1.334 . S
C492 H463 0.950 . S
C492 C491 1.334 . S
C492 C493 1.287 1_455 S
C493 C492 1.287 1_655 S
C493 C494 1.524 . S
C493 H496 0.999 . S
C494 H464 0.950 . S
C494 C493 1.524 . S
C494 C495 1.415 . S
C495 H465 0.950 . S
C495 C490 1.363 . S
C495 C494 1.415 . S
H496 C493 0.999 . S
H497 C478 0.913 . S
H498 C516 0.951 . S
H499 C518 0.951 . S
H500 C520 0.950 . S
H501 C521 0.950 . S
H502 C523 0.950 . S
H503 C526 0.950 . S
H504 C527 0.950 . S
H505 C529 0.950 . S
H506 C530 0.950 . S
H507 C531 0.951 . S
H508 C533 0.951 . S
H509 C535 0.950 . S
H510 C536 0.950 . S
H511 C538 0.950 . S
H512 C541 0.950 . S
H513 C542 0.950 . S
H514 C544 0.950 . S
H515 C545 0.950 . S
C516 H498 0.951 . S
C516 C517 1.366 . S
C516 C518 1.388 . S
C517 C516 1.366 . S
C517 C521 1.385 . S
C518 H499 0.951 . S
C518 C516 1.388 . S
C518 C519 1.366 . S
C519 C518 1.366 . S
C519 C520 1.414 . S
C519 C522 1.499 . S
C520 H500 0.950 . S
C520 C519 1.414 . S
C520 C521 1.374 . S
C521 H501 0.950 . S
C521 C517 1.385 . S
C521 C520 1.374 . S
C522 C519 1.499 . S
C522 C523 1.373 . S
C522 C524 1.389 . S
C523 H502 0.950 . S
C523 C522 1.373 . S
C523 C539 1.377 . S
C524 C522 1.389 . S
C524 C525 1.524 . S
C524 C538 1.377 . S
C525 C524 1.524 . S
C525 C526 1.397 . S
C525 C530 1.363 . S
C526 H503 0.950 . S
C526 C525 1.397 . S
C526 C527 1.334 . S
C527 H504 0.950 . S
C527 C526 1.334 . S
C527 C528 1.287 . S
C528 C527 1.287 . S
C528 C529 1.524 . S
C528 H547 0.913 . S
C529 H505 0.950 . S
C529 C528 1.524 . S
C529 C530 1.415 . S
C530 H506 0.950 . S
C530 C525 1.363 . S
C530 C529 1.415 . S
C531 H507 0.951 . S
C531 C532 1.366 . S
C531 C533 1.388 . S
C532 C531 1.366 . S
C532 C536 1.385 . S
C533 H508 0.951 . S
C533 C531 1.388 . S
C533 C534 1.366 . S
C534 C533 1.366 . S
C534 C535 1.414 . S
C534 C537 1.499 . S
C535 H509 0.950 . S
C535 C534 1.414 . S
C535 C536 1.374 . S
C536 H510 0.950 . S
C536 C532 1.385 . S
C536 C535 1.374 . S
C537 C534 1.499 . S
C537 C538 1.373 . S
C537 C539 1.389 . S
C538 H511 0.950 . S
C538 C524 1.377 . S
C538 C537 1.373 . S
C539 C523 1.377 . S
C539 C537 1.389 . S
C539 C540 1.524 . S
C540 C539 1.524 . S
C540 C541 1.397 . S
C540 C545 1.363 . S
C541 H512 0.950 . S
C541 C540 1.397 . S
C541 C542 1.334 . S
C542 H513 0.950 . S
C542 C541 1.334 . S
C542 C543 1.287 . S
C543 C542 1.287 . S
C543 C544 1.524 . S
C543 H546 0.999 . S
C544 H514 0.950 . S
C544 C543 1.524 . S
C544 C545 1.415 . S
C545 H515 0.950 . S
C545 C540 1.363 . S
C545 C544 1.415 . S
H546 C543 0.999 . S
H547 C528 0.913 . S
H548 C566 0.951 . S
H549 C568 0.951 . S
H550 C570 0.950 . S
H551 C571 0.950 . S
H552 C573 0.950 . S
H553 C576 0.950 . S
H554 C577 0.950 . S
H555 C579 0.950 . S
H556 C580 0.950 . S
H557 C581 0.951 . S
H558 C583 0.951 . S
H559 C585 0.950 . S
H560 C586 0.950 . S
H561 C588 0.950 . S
H562 C591 0.950 . S
H563 C592 0.950 . S
H564 C594 0.950 . S
H565 C595 0.950 . S
C566 H548 0.951 . S
C566 C567 1.366 . S
C566 C568 1.388 . S
C567 C566 1.366 . S
C567 C571 1.385 . S
C568 H549 0.951 . S
C568 C566 1.388 . S
C568 C569 1.366 . S
C569 C568 1.366 . S
C569 C570 1.414 . S
C569 C572 1.499 . S
C570 H550 0.950 . S
C570 C569 1.414 . S
C570 C571 1.374 . S
C571 H551 0.950 . S
C571 C567 1.385 . S
C571 C570 1.374 . S
C572 C569 1.499 . S
C572 C573 1.373 . S
C572 C574 1.389 . S
C573 H552 0.950 . S
C573 C572 1.373 . S
C573 C589 1.377 . S
C574 C572 1.389 . S
C574 C575 1.524 . S
C574 C588 1.377 . S
C575 C574 1.524 . S
C575 C576 1.397 . S
C575 C580 1.363 . S
C576 H553 0.950 . S
C576 C575 1.397 . S
C576 C577 1.334 . S
C577 H554 0.950 . S
C577 C576 1.334 . S
C577 C578 1.287 . S
C578 C577 1.287 . S
C578 C579 1.524 . S
C578 H597 0.913 . S
C579 H555 0.950 . S
C579 C578 1.524 . S
C579 C580 1.415 . S
C580 H556 0.950 . S
C580 C575 1.363 . S
C580 C579 1.415 . S
C581 H557 0.951 . S
C581 C582 1.366 . S
C581 C583 1.388 . S
C582 C581 1.366 . S
C582 C586 1.385 . S
C583 H558 0.951 . S
C583 C581 1.388 . S
C583 C584 1.366 . S
C584 C583 1.366 . S
C584 C585 1.414 . S
C584 C587 1.499 . S
C585 H559 0.950 . S
C585 C584 1.414 . S
C585 C586 1.374 . S
C586 H560 0.950 . S
C586 C582 1.385 . S
C586 C585 1.374 . S
C587 C584 1.499 . S
C587 C588 1.373 . S
C587 C589 1.389 . S
C588 H561 0.950 . S
C588 C574 1.377 . S
C588 C587 1.373 . S
C589 C573 1.377 . S
C589 C587 1.389 . S
C589 C590 1.524 . S
C590 C589 1.524 . S
C590 C591 1.397 . S
C590 C595 1.363 . S
C591 H562 0.950 . S
C591 C590 1.397 . S
C591 C592 1.334 . S
C592 H563 0.950 . S
C592 C591 1.334 . S
C592 C593 1.287 . S
C593 C592 1.287 . S
C593 C594 1.524 . S
C593 H596 0.999 . S
C594 H564 0.950 . S
C594 C593 1.524 . S
C594 C595 1.415 . S
C595 H565 0.950 . S
C595 C590 1.363 . S
C595 C594 1.415 . S
H596 C593 0.999 . S
H597 C578 0.913 . S
H598 C616 0.951 . S
H599 C618 0.951 . S
H600 C620 0.950 . S
H601 C621 0.950 . S
H602 C623 0.950 . S
H603 C626 0.950 . S
H604 C627 0.950 . S
H605 C629 0.950 . S
H606 C630 0.950 . S
H607 C631 0.951 . S
H608 C633 0.951 . S
H609 C635 0.950 . S
H610 C636 0.950 . S
H611 C638 0.950 . S
H612 C641 0.950 . S
H613 C642 0.950 . S
H614 C644 0.950 . S
H615 C645 0.950 . S
C616 H598 0.951 . S
C616 C617 1.366 . S
C616 C618 1.388 . S
C617 C616 1.366 . S
C617 C621 1.385 . S
C618 H599 0.951 . S
C618 C616 1.388 . S
C618 C619 1.366 . S
C619 C618 1.366 . S
C619 C620 1.414 . S
C619 C622 1.499 . S
C620 H600 0.950 . S
C620 C619 1.414 . S
C620 C621 1.374 . S
C621 H601 0.950 . S
C621 C617 1.385 . S
C621 C620 1.374 . S
C622 C619 1.499 . S
C622 C623 1.373 . S
C622 C624 1.389 . S
C623 H602 0.950 . S
C623 C622 1.373 . S
C623 C639 1.377 . S
C624 C622 1.389 . S
C624 C625 1.524 . S
C624 C638 1.377 . S
C625 C624 1.524 . S
C625 C626 1.397 . S
C625 C630 1.363 . S
C626 H603 0.950 . S
C626 C625 1.397 . S
C626 C627 1.334 . S
C627 H604 0.950 . S
C627 C626 1.334 . S
C627 C628 1.287 . S
C628 C627 1.287 . S
C628 C629 1.524 . S
C628 H647 0.913 . S
C629 H605 0.950 . S
C629 C628 1.524 . S
C629 C630 1.415 . S
C630 H606 0.950 . S
C630 C625 1.363 . S
C630 C629 1.415 . S
C631 H607 0.951 . S
C631 C632 1.366 . S
C631 C633 1.388 . S
C632 C631 1.366 . S
C632 C636 1.385 . S
C633 H608 0.951 . S
C633 C631 1.388 . S
C633 C634 1.366 . S
C634 C633 1.366 . S
C634 C635 1.414 . S
C634 C637 1.499 . S
C635 H609 0.950 . S
C635 C634 1.414 . S
C635 C636 1.374 . S
C636 H610 0.950 . S
C636 C632 1.385 . S
C636 C635 1.374 . S
C637 C634 1.499 . S
C637 C638 1.373 . S
C637 C639 1.389 . S
C638 H611 0.950 . S
C638 C624 1.377 . S
C638 C637 1.373 . S
C639 C623 1.377 . S
C639 C637 1.389 . S
C639 C640 1.524 . S
C640 C639 1.524 . S
C640 C641 1.397 . S
C640 C645 1.363 . S
C641 H612 0.950 . S
C641 C640 1.397 . S
C641 C642 1.334 . S
C642 H613 0.950 . S
C642 C641 1.334 . S
C642 C643 1.287 . S
C643 C642 1.287 . S
C643 C644 1.524 . S
C643 H646 0.999 . S
C644 H614 0.950 . S
C644 C643 1.524 . S
C644 C645 1.415 . S
C645 H615 0.950 . S
C645 C640 1.363 . S
C645 C644 1.415 . S
H646 C643 0.999 . S
H647 C628 0.913 . S
H648 C666 0.951 . S
H649 C668 0.951 . S
H650 C670 0.950 . S
H651 C671 0.950 . S
H652 C673 0.950 . S
H653 C676 0.950 . S
H654 C677 0.950 . S
H655 C679 0.950 . S
H656 C680 0.950 . S
H657 C681 0.951 . S
H658 C683 0.951 . S
H659 C685 0.950 . S
H660 C686 0.950 . S
H661 C688 0.950 . S
H662 C691 0.950 . S
H663 C692 0.950 . S
H664 C694 0.950 . S
H665 C695 0.950 . S
C666 H648 0.951 . S
C666 C667 1.366 . S
C666 C668 1.388 . S
C667 C666 1.366 . S
C667 C671 1.385 . S
C668 H649 0.951 . S
C668 C666 1.388 . S
C668 C669 1.366 . S
C669 C668 1.366 . S
C669 C670 1.414 . S
C669 C672 1.499 . S
C670 H650 0.950 . S
C670 C669 1.414 . S
C670 C671 1.374 . S
C671 H651 0.950 . S
C671 C667 1.385 . S
C671 C670 1.374 . S
C672 C669 1.499 . S
C672 C673 1.373 1_655 S
C672 C674 1.389 . S
C673 H652 0.950 . S
C673 C672 1.373 1_455 S
C673 C689 1.377 . S
C674 C672 1.389 . S
C674 C675 1.524 . S
C674 C688 1.377 . S
C675 C674 1.524 . S
C675 C676 1.397 . S
C675 C680 1.363 . S
C676 H653 0.950 . S
C676 C675 1.397 . S
C676 C677 1.334 . S
C677 H654 0.950 . S
C677 C676 1.334 . S
C677 C678 1.287 . S
C678 C677 1.287 . S
C678 C679 1.524 . S
C678 H697 0.913 . S
C679 H655 0.950 . S
C679 C678 1.524 . S
C679 C680 1.415 . S
C680 H656 0.950 . S
C680 C675 1.363 . S
C680 C679 1.415 . S
C681 H657 0.951 . S
C681 C682 1.366 . S
C681 C683 1.388 . S
C682 C681 1.366 . S
C682 C686 1.385 . S
C683 H658 0.951 . S
C683 C681 1.388 . S
C683 C684 1.366 . S
C684 C683 1.366 . S
C684 C685 1.414 . S
C684 C687 1.499 . S
C685 H659 0.950 . S
C685 C684 1.414 . S
C685 C686 1.374 . S
C686 H660 0.950 . S
C686 C682 1.385 . S
C686 C685 1.374 . S
C687 C684 1.499 . S
C687 C688 1.373 1_455 S
C687 C689 1.389 . S
C688 H661 0.950 . S
C688 C674 1.377 . S
C688 C687 1.373 1_655 S
C689 C673 1.377 . S
C689 C687 1.389 . S
C689 C690 1.524 . S
C690 C689 1.524 . S
C690 C691 1.397 . S
C690 C695 1.363 . S
C691 H662 0.950 . S
C691 C690 1.397 . S
C691 C692 1.334 . S
C692 H663 0.950 . S
C692 C691 1.334 . S
C692 C693 1.287 . S
C693 C692 1.287 . S
C693 C694 1.524 . S
C693 H696 0.999 . S
C694 H664 0.950 . S
C694 C693 1.524 . S
C694 C695 1.415 . S
C695 H665 0.950 . S
C695 C690 1.363 . S
C695 C694 1.415 . S
H696 C693 0.999 . S
H697 C678 0.913 . S
H698 C716 0.951 . S
H699 C718 0.951 . S
H700 C720 0.950 . S
H701 C721 0.950 . S
H702 C723 0.950 . S
H703 C726 0.950 . S
H704 C727 0.950 . S
H705 C729 0.950 . S
H706 C730 0.950 . S
H707 C731 0.951 . S
H708 C733 0.951 . S
H709 C735 0.950 . S
H710 C736 0.950 . S
H711 C738 0.950 . S
H712 C741 0.950 . S
H713 C742 0.950 . S
H714 C744 0.950 . S
H715 C745 0.950 . S
C716 H698 0.951 . S
C716 C717 1.366 . S
C716 C718 1.388 . S
C717 C716 1.366 . S
C717 C721 1.385 . S
C718 H699 0.951 . S
C718 C716 1.388 . S
C718 C719 1.366 . S
C719 C718 1.366 . S
C719 C720 1.414 . S
C719 C722 1.499 . S
C720 H700 0.950 . S
C720 C719 1.414 . S
C720 C721 1.374 . S
C721 H701 0.950 . S
C721 C717 1.385 . S
C721 C720 1.374 . S
C722 C719 1.499 . S
C722 C723 1.373 . S
C722 C724 1.389 . S
C723 H702 0.950 . S
C723 C722 1.373 . S
C723 C739 1.377 . S
C724 C722 1.389 . S
C724 C725 1.524 . S
C724 C738 1.377 . S
C725 C724 1.524 . S
C725 C726 1.397 . S
C725 C730 1.363 . S
C726 H703 0.950 . S
C726 C725 1.397 . S
C726 C727 1.334 . S
C727 H704 0.950 . S
C727 C726 1.334 . S
C727 C728 1.287 . S
C728 C727 1.287 . S
C728 C729 1.524 . S
C728 H747 0.913 . S
C729 H705 0.950 . S
C729 C728 1.524 . S
C729 C730 1.415 . S
C730 H706 0.950 . S
C730 C725 1.363 . S
C730 C729 1.415 . S
C731 H707 0.951 . S
C731 C732 1.366 . S
C731 C733 1.388 . S
C732 C731 1.366 . S
C732 C736 1.385 . S
C733 H708 0.951 . S
C733 C731 1.388 . S
C733 C734 1.366 . S
C734 C733 1.366 . S
C734 C735 1.414 . S
C734 C737 1.499 . S
C735 H709 0.950 . S
C735 C734 1.414 . S
C735 C736 1.374 . S
C736 H710 0.950 . S
C736 C732 1.385 . S
C736 C735 1.374 . S
C737 C734 1.499 . S
C737 C738 1.373 . S
C737 C739 1.389 . S
C738 H711 0.950 . S
C738 C724 1.377 . S
C738 C737 1.373 . S
C739 C723 1.377 . S
C739 C737 1.389 . S
C739 C740 1.524 . S
C740 C739 1.524 . S
C740 C741 1.397 . S
C740 C745 1.363 . S
C741 H712 0.950 . S
C741 C740 1.397 . S
C741 C742 1.334 . S
C742 H713 0.950 . S
C742 C741 1.334 . S
C742 C743 1.287 . S
C743 C742 1.287 . S
C743 C744 1.524 . S
C743 H746 0.999 . S
C744 H714 0.950 . S
C744 C743 1.524 . S
C744 C745 1.415 . S
C745 H715 0.950 . S
C745 C740 1.363 . S
C745 C744 1.415 . S
H746 C743 0.999 . S
H747 C728 0.913 . S
H748 C766 0.951 . S
H749 C768 0.951 . S
H750 C770 0.950 . S
H751 C771 0.950 . S
H752 C773 0.950 . S
H753 C776 0.950 . S
H754 C777 0.950 . S
H755 C779 0.950 . S
H756 C780 0.950 . S
H757 C781 0.951 . S
H758 C783 0.951 . S
H759 C785 0.950 . S
H760 C786 0.950 . S
H761 C788 0.950 . S
H762 C791 0.950 . S
H763 C792 0.950 . S
H764 C794 0.950 . S
H765 C795 0.950 . S
C766 H748 0.951 . S
C766 C767 1.366 . S
C766 C768 1.388 . S
C767 C766 1.366 . S
C767 C771 1.385 . S
C768 H749 0.951 . S
C768 C766 1.388 . S
C768 C769 1.366 . S
C769 C768 1.366 . S
C769 C770 1.414 . S
C769 C772 1.499 . S
C770 H750 0.950 . S
C770 C769 1.414 . S
C770 C771 1.374 . S
C771 H751 0.950 . S
C771 C767 1.385 . S
C771 C770 1.374 . S
C772 C769 1.499 . S
C772 C773 1.373 . S
C772 C774 1.389 1_556 S
C773 H752 0.950 . S
C773 C772 1.373 . S
C773 C789 1.377 . S
C774 C772 1.389 1_554 S
C774 C775 1.524 . S
C774 C788 1.377 . S
C775 C774 1.524 . S
C775 C776 1.397 . S
C775 C780 1.363 . S
C776 H753 0.950 . S
C776 C775 1.397 . S
C776 C777 1.334 . S
C777 H754 0.950 . S
C777 C776 1.334 . S
C777 C778 1.287 . S
C778 C777 1.287 . S
C778 C779 1.524 . S
C778 H797 0.913 . S
C779 H755 0.950 . S
C779 C778 1.524 . S
C779 C780 1.415 . S
C780 H756 0.950 . S
C780 C775 1.363 . S
C780 C779 1.415 . S
C781 H757 0.951 . S
C781 C782 1.366 . S
C781 C783 1.388 . S
C782 C781 1.366 . S
C782 C786 1.385 . S
C783 H758 0.951 . S
C783 C781 1.388 . S
C783 C784 1.366 . S
C784 C783 1.366 . S
C784 C785 1.414 . S
C784 C787 1.499 . S
C785 H759 0.950 . S
C785 C784 1.414 . S
C785 C786 1.374 . S
C786 H760 0.950 . S
C786 C782 1.385 . S
C786 C785 1.374 . S
C787 C784 1.499 . S
C787 C788 1.373 . S
C787 C789 1.389 1_554 S
C788 H761 0.950 . S
C788 C774 1.377 . S
C788 C787 1.373 . S
C789 C773 1.377 . S
C789 C787 1.389 1_556 S
C789 C790 1.524 . S
C790 C789 1.524 . S
C790 C791 1.397 . S
C790 C795 1.363 . S
C791 H762 0.950 . S
C791 C790 1.397 . S
C791 C792 1.334 . S
C792 H763 0.950 . S
C792 C791 1.334 . S
C792 C793 1.287 . S
C793 C792 1.287 . S
C793 C794 1.524 . S
C793 H796 0.999 . S
C794 H764 0.950 . S
C794 C793 1.524 . S
C794 C795 1.415 . S
C795 H765 0.950 . S
C795 C790 1.363 . S
C795 C794 1.415 . S
H796 C793 0.999 . S
H797 C778 0.913 . S
H798 C816 0.951 . S
H799 C818 0.951 . S
H800 C820 0.950 . S
H801 C821 0.950 . S
H802 C823 0.950 . S
H803 C826 0.950 . S
H804 C827 0.950 . S
H805 C829 0.950 . S
H806 C830 0.950 . S
H807 C831 0.951 . S
H808 C833 0.951 . S
H809 C835 0.950 . S
H810 C836 0.950 . S
H811 C838 0.950 . S
H812 C841 0.950 . S
H813 C842 0.950 . S
H814 C844 0.950 . S
H815 C845 0.950 . S
C816 H798 0.951 . S
C816 C817 1.366 . S
C816 C818 1.388 . S
C817 C816 1.366 . S
C817 C821 1.385 . S
C818 H799 0.951 . S
C818 C816 1.388 . S
C818 C819 1.366 . S
C819 C818 1.366 . S
C819 C820 1.414 . S
C819 C822 1.499 . S
C820 H800 0.950 . S
C820 C819 1.414 . S
C820 C821 1.374 . S
C821 H801 0.950 . S
C821 C817 1.385 . S
C821 C820 1.374 . S
C822 C819 1.499 . S
C822 C823 1.373 . S
C822 C824 1.389 . S
C823 H802 0.950 . S
C823 C822 1.373 . S
C823 C839 1.377 . S
C824 C822 1.389 . S
C824 C825 1.524 . S
C824 C838 1.377 . S
C825 C824 1.524 . S
C825 C826 1.397 . S
C825 C830 1.363 . S
C826 H803 0.950 . S
C826 C825 1.397 . S
C826 C827 1.334 . S
C827 H804 0.950 . S
C827 C826 1.334 . S
C827 C828 1.287 . S
C828 C827 1.287 . S
C828 C829 1.524 . S
C828 H847 0.913 . S
C829 H805 0.950 . S
C829 C828 1.524 . S
C829 C830 1.415 . S
C830 H806 0.950 . S
C830 C825 1.363 . S
C830 C829 1.415 . S
C831 H807 0.951 . S
C831 C832 1.366 . S
C831 C833 1.388 . S
C832 C831 1.366 . S
C832 C836 1.385 . S
C833 H808 0.951 . S
C833 C831 1.388 . S
C833 C834 1.366 . S
C834 C833 1.366 . S
C834 C835 1.414 . S
C834 C837 1.499 . S
C835 H809 0.950 . S
C835 C834 1.414 . S
C835 C836 1.374 . S
C836 H810 0.950 . S
C836 C832 1.385 . S
C836 C835 1.374 . S
C837 C834 1.499 . S
C837 C838 1.373 . S
C837 C839 1.389 . S
C838 H811 0.950 . S
C838 C824 1.377 . S
C838 C837 1.373 . S
C839 C823 1.377 . S
C839 C837 1.389 . S
C839 C840 1.524 . S
C840 C839 1.524 . S
C840 C841 1.397 . S
C840 C845 1.363 . S
C841 H812 0.950 . S
C841 C840 1.397 . S
C841 C842 1.334 . S
C842 H813 0.950 . S
C842 C841 1.334 . S
C842 C843 1.287 . S
C843 C842 1.287 . S
C843 C844 1.524 . S
C843 H846 0.999 . S
C844 H814 0.950 . S
C844 C843 1.524 . S
C844 C845 1.415 . S
C845 H815 0.950 . S
C845 C840 1.363 . S
C845 C844 1.415 . S
H846 C843 0.999 . S
H847 C828 0.913 . S
H848 C866 0.951 . S
H849 C868 0.951 . S
H850 C870 0.950 . S
H851 C871 0.950 . S
H852 C873 0.950 . S
H853 C876 0.950 . S
H854 C877 0.950 . S
H855 C879 0.950 . S
H856 C880 0.950 . S
H857 C881 0.951 . S
H858 C883 0.951 . S
H859 C885 0.950 . S
H860 C886 0.950 . S
H861 C888 0.950 . S
H862 C891 0.950 . S
H863 C892 0.950 . S
H864 C894 0.950 . S
H865 C895 0.950 . S
C866 H848 0.951 . S
C866 C867 1.366 . S
C866 C868 1.388 . S
C867 C866 1.366 . S
C867 C871 1.385 . S
C868 H849 0.951 . S
C868 C866 1.388 . S
C868 C869 1.366 . S
C869 C868 1.366 . S
C869 C870 1.414 . S
C869 C872 1.499 . S
C870 H850 0.950 . S
C870 C869 1.414 . S
C870 C871 1.374 . S
C871 H851 0.950 . S
C871 C867 1.385 . S
C871 C870 1.374 . S
C872 C869 1.499 . S
C872 C873 1.373 . S
C872 C874 1.389 . S
C873 H852 0.950 . S
C873 C872 1.373 . S
C873 C889 1.377 . S
C874 C872 1.389 . S
C874 C875 1.524 . S
C874 C888 1.377 . S
C875 C874 1.524 . S
C875 C876 1.397 . S
C875 C880 1.363 . S
C876 H853 0.950 . S
C876 C875 1.397 . S
C876 C877 1.334 . S
C877 H854 0.950 . S
C877 C876 1.334 . S
C877 C878 1.287 . S
C878 C877 1.287 . S
C878 C879 1.524 . S
C878 H897 0.913 . S
C879 H855 0.950 . S
C879 C878 1.524 . S
C879 C880 1.415 . S
C880 H856 0.950 . S
C880 C875 1.363 . S
C880 C879 1.415 . S
C881 H857 0.951 . S
C881 C882 1.366 . S
C881 C883 1.388 . S
C882 C881 1.366 . S
C882 C886 1.385 . S
C883 H858 0.951 . S
C883 C881 1.388 . S
C883 C884 1.366 . S
C884 C883 1.366 . S
C884 C885 1.414 . S
C884 C887 1.499 . S
C885 H859 0.950 . S
C885 C884 1.414 . S
C885 C886 1.374 . S
C886 H860 0.950 . S
C886 C882 1.385 . S
C886 C885 1.374 . S
C887 C884 1.499 . S
C887 C888 1.373 . S
C887 C889 1.389 . S
C888 H861 0.950 . S
C888 C874 1.377 . S
C888 C887 1.373 . S
C889 C873 1.377 . S
C889 C887 1.389 . S
C889 C890 1.524 . S
C890 C889 1.524 . S
C890 C891 1.397 . S
C890 C895 1.363 . S
C891 H862 0.950 . S
C891 C890 1.397 . S
C891 C892 1.334 . S
C892 H863 0.950 . S
C892 C891 1.334 . S
C892 C893 1.287 . S
C893 C892 1.287 . S
C893 C894 1.524 . S
C893 H896 0.999 . S
C894 H864 0.950 . S
C894 C893 1.524 . S
C894 C895 1.415 . S
C895 H865 0.950 . S
C895 C890 1.363 . S
C895 C894 1.415 . S
H896 C893 0.999 . S
H897 C878 0.913 . S
H898 C916 0.951 . S
H899 C918 0.951 . S
H900 C920 0.950 . S
H901 C921 0.950 . S
H902 C923 0.950 . S
H903 C926 0.950 . S
H904 C927 0.950 . S
H905 C929 0.950 . S
H906 C930 0.950 . S
H907 C931 0.951 . S
H908 C933 0.951 . S
H909 C935 0.950 . S
H910 C936 0.950 . S
H911 C938 0.950 . S
H912 C941 0.950 . S
H913 C942 0.950 . S
H914 C944 0.950 . S
H915 C945 0.950 . S
C916 H898 0.951 . S
C916 C917 1.366 . S
C916 C918 1.388 . S
C917 C916 1.366 . S
C917 C921 1.385 . S
C918 H899 0.951 . S
C918 C916 1.388 . S
C918 C919 1.366 . S
C919 C918 1.366 . S
C919 C920 1.414 . S
C919 C922 1.499 . S
C920 H900 0.950 . S
C920 C919 1.414 . S
C920 C921 1.374 . S
C921 H901 0.950 . S
C921 C917 1.385 . S
C921 C920 1.374 . S
C922 C919 1.499 . S
C922 C923 1.373 . S
C922 C924 1.389 . S
C923 H902 0.950 . S
C923 C922 1.373 . S
C923 C939 1.377 . S
C924 C922 1.389 . S
C924 C925 1.524 . S
C924 C938 1.377 . S
C925 C924 1.524 . S
C925 C926 1.397 . S
C925 C930 1.363 . S
C926 H903 0.950 . S
C926 C925 1.397 . S
C926 C927 1.334 . S
C927 H904 0.950 . S
C927 C926 1.334 . S
C927 C928 1.287 . S
C928 C927 1.287 . S
C928 C929 1.524 . S
C928 H947 0.913 . S
C929 H905 0.950 . S
C929 C928 1.524 . S
C929 C930 1.415 . S
C930 H906 0.950 . S
C930 C925 1.363 . S
C930 C929 1.415 . S
C931 H907 0.951 . S
C931 C932 1.366 . S
C931 C933 1.388 . S
C932 C931 1.366 . S
C932 C936 1.385 . S
C933 H908 0.951 . S
C933 C931 1.388 . S
C933 C934 1.366 . S
C934 C933 1.366 . S
C934 C935 1.414 . S
C934 C937 1.499 . S
C935 H909 0.950 . S
C935 C934 1.414 . S
C935 C936 1.374 . S
C936 H910 0.950 . S
C936 C932 1.385 . S
C936 C935 1.374 . S
C937 C934 1.499 . S
C937 C938 1.373 . S
C937 C939 1.389 . S
C938 H911 0.950 . S
C938 C924 1.377 . S
C938 C937 1.373 . S
C939 C923 1.377 . S
C939 C937 1.389 . S
C939 C940 1.524 . S
C940 C939 1.524 . S
C940 C941 1.397 . S
C940 C945 1.363 . S
C941 H912 0.950 . S
C941 C940 1.397 . S
C941 C942 1.334 . S
C942 H913 0.950 . S
C942 C941 1.334 . S
C942 C943 1.287 . S
C943 C942 1.287 . S
C943 C944 1.524 . S
C943 H946 0.999 . S
C944 H914 0.950 . S
C944 C943 1.524 . S
C944 C945 1.415 . S
C945 H915 0.950 . S
C945 C940 1.363 . S
C945 C944 1.415 . S
H946 C943 0.999 . S
H947 C928 0.913 . S
H948 C966 0.951 . S
H949 C968 0.951 . S
H950 C970 0.950 . S
H951 C971 0.950 . S
H952 C973 0.950 . S
H953 C976 0.950 . S
H954 C977 0.950 . S
H955 C979 0.950 . S
H956 C980 0.950 . S
H957 C981 0.951 . S
H958 C983 0.951 . S
H959 C985 0.950 . S
H960 C986 0.950 . S
H961 C988 0.950 . S
H962 C991 0.950 . S
H963 C992 0.950 . S
H964 C994 0.950 . S
H965 C995 0.950 . S
C966 H948 0.951 . S
C966 C967 1.366 . S
C966 C968 1.388 . S
C967 C966 1.366 . S
C967 C971 1.385 . S
C968 H949 0.951 . S
C968 C966 1.388 . S
C968 C969 1.366 . S
C969 C968 1.366 . S
C969 C970 1.414 . S
C969 C972 1.499 . S
C970 H950 0.950 . S
C970 C969 1.414 . S
C970 C971 1.374 . S
C971 H951 0.950 . S
C971 C967 1.385 . S
C971 C970 1.374 . S
C972 C969 1.499 . S
C972 C973 1.373 . S
C972 C974 1.389 . S
C973 H952 0.950 . S
C973 C972 1.373 . S
C973 C989 1.377 . S
C974 C972 1.389 . S
C974 C975 1.524 . S
C974 C988 1.377 . S
C975 C974 1.524 . S
C975 C976 1.397 . S
C975 C980 1.363 . S
C976 H953 0.950 . S
C976 C975 1.397 . S
C976 C977 1.334 . S
C977 H954 0.950 . S
C977 C976 1.334 . S
C977 C978 1.287 . S
C978 C977 1.287 . S
C978 C979 1.524 . S
C978 H997 0.913 . S
C979 H955 0.950 . S
C979 C978 1.524 . S
C979 C980 1.415 . S
C980 H956 0.950 . S
C980 C975 1.363 . S
C980 C979 1.415 . S
C981 H957 0.951 . S
C981 C982 1.366 . S
C981 C983 1.388 . S
C982 C981 1.366 . S
C982 C986 1.385 . S
C983 H958 0.951 . S
C983 C981 1.388 . S
C983 C984 1.366 . S
C984 C983 1.366 . S
C984 C985 1.414 . S
C984 C987 1.499 . S
C985 H959 0.950 . S
C985 C984 1.414 . S
C985 C986 1.374 . S
C986 H960 0.950 . S
C986 C982 1.385 . S
C986 C985 1.374 . S
C987 C984 1.499 . S
C987 C988 1.373 . S
C987 C989 1.389 . S
C988 H961 0.950 . S
C988 C974 1.377 . S
C988 C987 1.373 . S
C989 C973 1.377 . S
C989 C987 1.389 . S
C989 C990 1.524 . S
C990 C989 1.524 . S
C990 C991 1.397 . S
C990 C995 1.363 . S
C991 H962 0.950 . S
C991 C990 1.397 . S
C991 C992 1.334 . S
C992 H963 0.950 . S
C992 C991 1.334 . S
C992 C993 1.287 . S
C993 C992 1.287 . S
C993 C994 1.524 . S
C993 H996 0.999 . S
C994 H964 0.950 . S
C994 C993 1.524 . S
C994 C995 1.415 . S
C995 H965 0.950 . S
C995 C990 1.363 . S
C995 C994 1.415 . S
H996 C993 0.999 . S
H997 C978 0.913 . S
H998 C1016 0.951 . S
H999 C1018 0.951 . S
H1000 C1020 0.950 . S
H1001 C1021 0.950 . S
H1002 C1023 0.950 . S
H1003 C1026 0.950 . S
H1004 C1027 0.950 . S
H1005 C1029 0.950 . S
H1006 C1030 0.950 . S
H1007 C1031 0.951 . S
H1008 C1033 0.951 . S
H1009 C1035 0.950 . S
H1010 C1036 0.950 . S
H1011 C1038 0.950 . S
H1012 C1041 0.950 . S
H1013 C1042 0.950 . S
H1014 C1044 0.950 . S
H1015 C1045 0.950 . S
C1016 H998 0.951 . S
C1016 C1017 1.366 . S
C1016 C1018 1.388 . S
C1017 C1016 1.366 . S
C1017 C1021 1.385 . S
C1018 H999 0.951 . S
C1018 C1016 1.388 . S
C1018 C1019 1.366 . S
C1019 C1018 1.366 . S
C1019 C1020 1.414 . S
C1019 C1022 1.499 . S
C1020 H1000 0.950 . S
C1020 C1019 1.414 . S
C1020 C1021 1.374 . S
C1021 H1001 0.950 . S
C1021 C1017 1.385 . S
C1021 C1020 1.374 . S
C1022 C1019 1.499 . S
C1022 C1023 1.373 . S
C1022 C1024 1.389 . S
C1023 H1002 0.950 . S
C1023 C1022 1.373 . S
C1023 C1039 1.377 . S
C1024 C1022 1.389 . S
C1024 C1025 1.524 . S
C1024 C1038 1.377 . S
C1025 C1024 1.524 . S
C1025 C1026 1.397 . S
C1025 C1030 1.363 . S
C1026 H1003 0.950 . S
C1026 C1025 1.397 . S
C1026 C1027 1.334 . S
C1027 H1004 0.950 . S
C1027 C1026 1.334 . S
C1027 C1028 1.287 . S
C1028 C1027 1.287 . S
C1028 C1029 1.524 . S
C1028 H1047 0.913 . S
C1029 H1005 0.950 . S
C1029 C1028 1.524 . S
C1029 C1030 1.415 . S
C1030 H1006 0.950 . S
C1030 C1025 1.363 . S
C1030 C1029 1.415 . S
C1031 H1007 0.951 . S
C1031 C1032 1.366 . S
C1031 C1033 1.388 . S
C1032 C1031 1.366 . S
C1032 C1036 1.385 . S
C1033 H1008 0.951 . S
C1033 C1031 1.388 . S
C1033 C1034 1.366 . S
C1034 C1033 1.366 . S
C1034 C1035 1.414 . S
C1034 C1037 1.499 . S
C1035 H1009 0.950 . S
C1035 C1034 1.414 . S
C1035 C1036 1.374 . S
C1036 H1010 0.950 . S
C1036 C1032 1.385 . S
C1036 C1035 1.374 . S
C1037 C1034 1.499 . S
C1037 C1038 1.373 . S
C1037 C1039 1.389 . S
C1038 H1011 0.950 . S
C1038 C1024 1.377 . S
C1038 C1037 1.373 . S
C1039 C1023 1.377 . S
C1039 C1037 1.389 . S
C1039 C1040 1.524 . S
C1040 C1039 1.524 . S
C1040 C1041 1.397 . S
C1040 C1045 1.363 . S
C1041 H1012 0.950 . S
C1041 C1040 1.397 . S
C1041 C1042 1.334 . S
C1042 H1013 0.950 . S
C1042 C1041 1.334 . S
C1042 C1043 1.287 . S
C1043 C1042 1.287 . S
C1043 C1044 1.524 . S
C1043 H1046 0.999 . S
C1044 H1014 0.950 . S
C1044 C1043 1.524 . S
C1044 C1045 1.415 . S
C1045 H1015 0.950 . S
C1045 C1040 1.363 . S
C1045 C1044 1.415 . S
H1046 C1043 0.999 . S
H1047 C1028 0.913 . S
H1048 C1066 0.951 . S
H1049 C1068 0.951 . S
H1050 C1070 0.950 . S
H1051 C1071 0.950 . S
H1052 C1073 0.950 . S
H1053 C1076 0.950 . S
H1054 C1077 0.950 . S
H1055 C1079 0.950 . S
H1056 C1080 0.950 . S
H1057 C1081 0.951 . S
H1058 C1083 0.951 . S
H1059 C1085 0.950 . S
H1060 C1086 0.950 . S
H1061 C1088 0.950 . S
H1062 C1091 0.950 . S
H1063 C1092 0.950 . S
H1064 C1094 0.950 . S
H1065 C1095 0.950 . S
C1066 H1048 0.951 . S
C1066 C1067 1.366 . S
C1066 C1068 1.388 . S
C1067 C1066 1.366 . S
C1067 C1071 1.385 . S
C1068 H1049 0.951 . S
C1068 C1066 1.388 . S
C1068 C1069 1.366 . S
C1069 C1068 1.366 . S
C1069 C1070 1.414 . S
C1069 C1072 1.499 . S
C1070 H1050 0.950 . S
C1070 C1069 1.414 . S
C1070 C1071 1.374 . S
C1071 H1051 0.950 . S
C1071 C1067 1.385 . S
C1071 C1070 1.374 . S
C1072 C1069 1.499 . S
C1072 C1073 1.373 1_565 S
C1072 C1074 1.389 . S
C1073 H1052 0.950 . S
C1073 C1072 1.373 1_545 S
C1073 C1089 1.377 . S
C1074 C1072 1.389 . S
C1074 C1075 1.524 . S
C1074 C1088 1.377 . S
C1075 C1074 1.524 . S
C1075 C1076 1.397 . S
C1075 C1080 1.363 . S
C1076 H1053 0.950 . S
C1076 C1075 1.397 . S
C1076 C1077 1.334 . S
C1077 H1054 0.950 . S
C1077 C1076 1.334 . S
C1077 C1078 1.287 . S
C1078 C1077 1.287 . S
C1078 C1079 1.524 . S
C1078 H1097 0.913 . S
C1079 H1055 0.950 . S
C1079 C1078 1.524 . S
C1079 C1080 1.415 . S
C1080 H1056 0.950 . S
C1080 C1075 1.363 . S
C1080 C1079 1.415 . S
C1081 H1057 0.951 . S
C1081 C1082 1.366 . S
C1081 C1083 1.388 . S
C1082 C1081 1.366 . S
C1082 C1086 1.385 . S
C1083 H1058 0.951 . S
C1083 C1081 1.388 . S
C1083 C1084 1.366 . S
C1084 C1083 1.366 . S
C1084 C1085 1.414 . S
C1084 C1087 1.499 . S
C1085 H1059 0.950 . S
C1085 C1084 1.414 . S
C1085 C1086 1.374 . S
C1086 H1060 0.950 . S
C1086 C1082 1.385 . S
C1086 C1085 1.374 . S
C1087 C1084 1.499 . S
C1087 C1088 1.373 1_545 S
C1087 C1089 1.389 . S
C1088 H1061 0.950 . S
C1088 C1074 1.377 . S
C1088 C1087 1.373 1_565 S
C1089 C1073 1.377 . S
C1089 C1087 1.389 . S
C1089 C1090 1.524 . S
C1090 C1089 1.524 . S
C1090 C1091 1.397 . S
C1090 C1095 1.363 . S
C1091 H1062 0.950 . S
C1091 C1090 1.397 . S
C1091 C1092 1.334 . S
C1092 H1063 0.950 . S
C1092 C1091 1.334 . S
C1092 C1093 1.287 . S
C1093 C1092 1.287 . S
C1093 C1094 1.524 . S
C1093 H1096 0.999 . S
C1094 H1064 0.950 . S
C1094 C1093 1.524 . S
C1094 C1095 1.415 . S
C1095 H1065 0.950 . S
C1095 C1090 1.363 . S
C1095 C1094 1.415 . S
H1096 C1093 0.999 . S
H1097 C1078 0.913 . S
H1098 C1116 0.951 . S
H1099 C1118 0.951 . S
H1100 C1120 0.958 . S
H1101 C1121 0.950 . S
H1102 C1123 0.950 . S
H1103 C1126 0.950 . S
H1104 C1127 0.950 . S
H1105 C1129 0.950 1_545 S
H1106 C1130 0.950 . S
H1107 C1131 0.951 . S
H1108 C1133 0.951 . S
H1109 C1135 0.958 . S
H1110 C1136 0.950 . S
H1111 C1138 0.950 . S
H1112 C1141 0.950 . S
H1113 C1142 0.950 . S
H1114 C1144 0.950 1_565 S
H1115 C1145 0.950 . S
C1116 H1098 0.951 . S
C1116 C1117 1.366 . S
C1116 C1118 1.388 . S
C1117 C1116 1.366 . S
C1117 C1121 1.385 . S
C1118 H1099 0.951 . S
C1118 C1116 1.388 . S
C1118 C1119 1.366 . S
C1119 C1118 1.366 . S
C1119 C1120 1.414 . S
C1119 C1122 1.499 . S
C1120 H1100 0.958 . S
C1120 C1119 1.414 . S
C1120 C1121 1.374 . S
C1121 H1101 0.950 . S
C1121 C1117 1.385 . S
C1121 C1120 1.374 . S
C1122 C1119 1.499 . S
C1122 C1123 1.373 1_455 S
C1122 C1124 1.389 1_556 S
C1123 H1102 0.950 . S
C1123 C1122 1.373 1_655 S
C1123 C1139 1.377 1_565 S
C1124 C1122 1.389 1_554 S
C1124 C1125 1.524 . S
C1124 C1138 1.377 1_565 S
C1125 C1124 1.524 . S
C1125 C1126 1.397 . S
C1125 C1130 1.363 1_565 S
C1126 H1103 0.950 . S
C1126 C1125 1.397 . S
C1126 C1127 1.334 . S
C1127 H1104 0.950 . S
C1127 C1126 1.334 . S
C1127 C1128 1.287 . S
C1128 C1127 1.287 . S
C1128 C1129 1.524 . S
C1128 H1147 0.913 . S
C1129 H1105 0.950 1_565 S
C1129 C1128 1.524 . S
C1129 C1130 1.415 1_565 S
C1130 H1106 0.950 . S
C1130 C1125 1.363 1_545 S
C1130 C1129 1.415 1_545 S
C1131 H1107 0.951 . S
C1131 C1132 1.366 . S
C1131 C1133 1.388 . S
C1132 C1131 1.366 . S
C1132 C1136 1.385 . S
C1133 H1108 0.951 . S
C1133 C1131 1.388 . S
C1133 C1134 1.366 . S
C1134 C1133 1.366 . S
C1134 C1135 1.414 . S
C1134 C1137 1.499 . S
C1135 H1109 0.958 . S
C1135 C1134 1.414 . S
C1135 C1136 1.374 . S
C1136 H1110 0.950 . S
C1136 C1132 1.385 . S
C1136 C1135 1.374 . S
C1137 C1134 1.499 . S
C1137 C1138 1.373 1_655 S
C1137 C1139 1.389 1_554 S
C1138 H1111 0.950 . S
C1138 C1124 1.377 1_545 S
C1138 C1137 1.373 1_455 S
C1139 C1123 1.377 1_545 S
C1139 C1137 1.389 1_556 S
C1139 C1140 1.524 . S
C1140 C1139 1.524 . S
C1140 C1141 1.397 . S
C1140 C1145 1.363 1_545 S
C1141 H1112 0.950 . S
C1141 C1140 1.397 . S
C1141 C1142 1.334 . S
C1142 H1113 0.950 . S
C1142 C1141 1.334 . S
C1142 C1143 1.287 . S
C1143 C1142 1.287 . S
C1143 C1144 1.524 . S
C1143 H1146 0.999 . S
C1144 H1114 0.950 1_545 S
C1144 C1143 1.524 . S
C1144 C1145 1.415 1_545 S
C1145 H1115 0.950 . S
C1145 C1140 1.363 1_565 S
C1145 C1144 1.415 1_565 S
H1146 C1143 0.999 . S
H1147 C1128 0.913 . S
H1148 C1166 0.951 . S
H1149 C1168 0.951 . S
H1150 C1170 0.950 . S
H1151 C1171 0.950 . S
H1152 C1173 0.950 . S
H1153 C1176 0.950 1_545 S
H1154 C1177 0.950 . S
H1155 C1179 0.950 . S
H1156 C1180 0.950 . S
H1157 C1181 0.951 . S
H1158 C1183 0.951 . S
H1159 C1185 0.950 . S
H1160 C1186 0.950 . S
H1161 C1188 0.950 . S
H1162 C1191 0.950 1_565 S
H1163 C1192 0.950 . S
H1164 C1194 0.950 . S
H1165 C1195 0.950 . S
C1166 H1148 0.951 . S
C1166 C1167 1.366 . S
C1166 C1168 1.388 . S
C1167 C1166 1.366 . S
C1167 C1171 1.385 . S
C1168 H1149 0.951 . S
C1168 C1166 1.388 . S
C1168 C1169 1.366 . S
C1169 C1168 1.366 . S
C1169 C1170 1.414 . S
C1169 C1172 1.499 . S
C1170 H1150 0.950 . S
C1170 C1169 1.414 . S
C1170 C1171 1.374 . S
C1171 H1151 0.950 . S
C1171 C1167 1.385 . S
C1171 C1170 1.374 . S
C1172 C1169 1.499 . S
C1172 C1173 1.373 1_556 S
C1172 C1174 1.389 1_545 S
C1173 H1152 0.950 . S
C1173 C1172 1.373 1_554 S
C1173 C1189 1.377 . S
C1174 C1172 1.389 1_565 S
C1174 C1175 1.524 . S
C1174 C1188 1.377 . S
C1175 C1174 1.524 . S
C1175 C1176 1.397 . S
C1175 C1180 1.363 . S
C1176 H1153 0.950 1_565 S
C1176 C1175 1.397 . S
C1176 C1177 1.334 . S
C1177 H1154 0.950 . S
C1177 C1176 1.334 . S
C1177 C1178 1.287 . S
C1178 C1177 1.287 . S
C1178 C1179 1.524 . S
C1178 H1197 0.913 . S
C1179 H1155 0.950 . S
C1179 C1178 1.524 . S
C1179 C1180 1.415 . S
C1180 H1156 0.950 . S
C1180 C1175 1.363 . S
C1180 C1179 1.415 . S
C1181 H1157 0.951 . S
C1181 C1182 1.366 . S
C1181 C1183 1.388 . S
C1182 C1181 1.366 . S
C1182 C1186 1.385 . S
C1183 H1158 0.951 . S
C1183 C1181 1.388 . S
C1183 C1184 1.366 . S
C1184 C1183 1.366 . S
C1184 C1185 1.414 . S
C1184 C1187 1.499 . S
C1185 H1159 0.950 . S
C1185 C1184 1.414 . S
C1185 C1186 1.374 . S
C1186 H1160 0.950 . S
C1186 C1182 1.385 . S
C1186 C1185 1.374 . S
C1187 C1184 1.499 . S
C1187 C1188 1.373 1_554 S
C1187 C1189 1.389 1_565 S
C1188 H1161 0.950 . S
C1188 C1174 1.377 . S
C1188 C1187 1.373 1_556 S
C1189 C1173 1.377 . S
C1189 C1187 1.389 1_545 S
C1189 C1190 1.524 . S
C1190 C1189 1.524 . S
C1190 C1191 1.397 . S
C1190 C1195 1.363 . S
C1191 H1162 0.950 1_545 S
C1191 C1190 1.397 . S
C1191 C1192 1.334 . S
C1192 H1163 0.950 . S
C1192 C1191 1.334 . S
C1192 C1193 1.287 . S
C1193 C1192 1.287 . S
C1193 C1194 1.524 . S
C1193 H1196 0.999 . S
C1194 H1164 0.950 . S
C1194 C1193 1.524 . S
C1194 C1195 1.415 . S
C1195 H1165 0.950 . S
C1195 C1190 1.363 . S
C1195 C1194 1.415 . S
H1196 C1193 0.999 . S
H1197 C1178 0.913 . S
H1198 C1216 0.951 . S
H1199 C1218 0.951 . S
H1200 C1220 0.950 . S
H1201 C1221 0.950 . S
H1202 C1223 0.955 . S
H1203 C1226 0.950 . S
H1204 C1227 0.950 . S
H1205 C1229 0.950 . S
H1206 C1230 0.942 1_455 S
H1207 C1231 0.951 . S
H1208 C1233 0.951 . S
H1209 C1235 0.950 . S
H1210 C1236 0.950 . S
H1211 C1238 0.955 . S
H1212 C1241 0.950 . S
H1213 C1242 0.950 . S
H1214 C1244 0.950 . S
H1215 C1245 0.942 1_655 S
C1216 H1198 0.951 . S
C1216 C1217 1.366 . S
C1216 C1218 1.388 . S
C1217 C1216 1.366 . S
C1217 C1221 1.385 . S
C1218 H1199 0.951 . S
C1218 C1216 1.388 . S
C1218 C1219 1.366 . S
C1219 C1218 1.366 . S
C1219 C1220 1.414 . S
C1219 C1222 1.499 . S
C1220 H1200 0.950 . S
C1220 C1219 1.414 . S
C1220 C1221 1.374 . S
C1221 H1201 0.950 . S
C1221 C1217 1.385 . S
C1221 C1220 1.374 . S
C1222 C1219 1.499 . S
C1222 C1223 1.325 1_545 S
C1222 C1224 1.373 1_455 S
C1223 H1202 0.955 . S
C1223 C1222 1.325 1_565 S
C1223 C1239 1.438 . S
C1224 C1222 1.373 1_655 S
C1224 C1225 1.529 . S
C1224 C1238 1.438 . S
C1225 C1224 1.529 . S
C1225 C1226 1.397 . S
C1225 C1230 1.367 . S
C1226 H1203 0.950 . S
C1226 C1225 1.397 . S
C1226 C1227 1.334 . S
C1227 H1204 0.950 . S
C1227 C1226 1.334 . S
C1227 C1228 1.287 . S
C1228 C1227 1.287 . S
C1228 C1229 1.524 . S
C1228 H1247 0.913 . S
C1229 H1205 0.950 . S
C1229 C1228 1.524 . S
C1229 C1230 1.420 . S
C1230 H1206 0.942 1_655 S
C1230 C1225 1.367 . S
C1230 C1229 1.420 . S
C1231 H1207 0.951 . S
C1231 C1232 1.366 . S
C1231 C1233 1.388 . S
C1232 C1231 1.366 . S
C1232 C1236 1.385 . S
C1233 H1208 0.951 . S
C1233 C1231 1.388 . S
C1233 C1234 1.366 . S
C1234 C1233 1.366 . S
C1234 C1235 1.414 . S
C1234 C1237 1.499 . S
C1235 H1209 0.950 . S
C1235 C1234 1.414 . S
C1235 C1236 1.374 . S
C1236 H1210 0.950 . S
C1236 C1232 1.385 . S
C1236 C1235 1.374 . S
C1237 C1234 1.499 . S
C1237 C1238 1.325 1_565 S
C1237 C1239 1.373 1_655 S
C1238 H1211 0.955 . S
C1238 C1224 1.438 . S
C1238 C1237 1.325 1_545 S
C1239 C1223 1.438 . S
C1239 C1237 1.373 1_455 S
C1239 C1240 1.529 . S
C1240 C1239 1.529 . S
C1240 C1241 1.397 . S
C1240 C1245 1.367 . S
C1241 H1212 0.950 . S
C1241 C1240 1.397 . S
C1241 C1242 1.334 . S
C1242 H1213 0.950 . S
C1242 C1241 1.334 . S
C1242 C1243 1.287 . S
C1243 C1242 1.287 . S
C1243 C1244 1.524 . S
C1243 H1246 0.999 . S
C1244 H1214 0.950 . S
C1244 C1243 1.524 . S
C1244 C1245 1.420 . S
C1245 H1215 0.942 1_455 S
C1245 C1240 1.367 . S
C1245 C1244 1.420 . S
H1246 C1243 0.999 . S
H1247 C1228 0.913 . S
H1248 C1266 0.951 . S
H1249 C1268 0.938 1_455 S
H1250 C1270 0.950 . S
H1251 C1271 0.950 . S
H1252 C1273 0.950 . S
H1253 C1276 0.950 . S
H1254 C1277 0.950 . S
H1255 C1279 0.950 . S
H1256 C1280 0.950 . S
H1257 C1281 0.951 . S
H1258 C1283 0.938 1_655 S
H1259 C1285 0.950 . S
H1260 C1286 0.950 . S
H1261 C1288 0.950 . S
H1262 C1291 0.950 . S
H1263 C1292 0.950 1_556 S
H1264 C1294 0.950 . S
H1265 C1295 0.950 . S
C1266 H1248 0.951 . S
C1266 C1267 1.366 . S
C1266 C1268 1.388 . S
C1267 C1266 1.366 . S
C1267 C1271 1.385 . S
C1268 H1249 0.938 1_655 S
C1268 C1266 1.388 . S
C1268 C1269 1.366 . S
C1269 C1268 1.366 . S
C1269 C1270 1.414 . S
C1269 C1272 1.499 . S
C1270 H1250 0.950 . S
C1270 C1269 1.414 . S
C1270 C1271 1.374 . S
C1271 H1251 0.950 . S
C1271 C1267 1.385 . S
C1271 C1270 1.374 . S
C1272 C1269 1.499 . S
C1272 C1273 1.373 . S
C1272 C1274 1.389 1_655 S
C1273 H1252 0.950 . S
C1273 C1272 1.373 . S
C1273 C1289 1.377 . S
C1274 C1272 1.389 1_455 S
C1274 C1275 1.524 . S
C1274 C1288 1.377 . S
C1275 C1274 1.524 . S
C1275 C1276 1.397 1_455 S
C1275 C1280 1.363 . S
C1276 H1253 0.950 . S
C1276 C1275 1.397 1_655 S
C1276 C1277 1.334 . S
C1277 H1254 0.950 . S
C1277 C1276 1.334 . S
C1277 C1278 1.287 1_655 S
C1278 C1277 1.287 1_455 S
C1278 C1279 1.524 . S
C1278 H1297 0.913 . S
C1279 H1255 0.950 . S
C1279 C1278 1.524 . S
C1279 C1280 1.415 . S
C1280 H1256 0.950 . S
C1280 C1275 1.363 . S
C1280 C1279 1.415 . S
C1281 H1257 0.951 . S
C1281 C1282 1.366 . S
C1281 C1283 1.388 . S
C1282 C1281 1.366 . S
C1282 C1286 1.385 . S
C1283 H1258 0.938 1_455 S
C1283 C1281 1.388 . S
C1283 C1284 1.366 . S
C1284 C1283 1.366 . S
C1284 C1285 1.414 . S
C1284 C1287 1.499 . S
C1285 H1259 0.950 . S
C1285 C1284 1.414 . S
C1285 C1286 1.374 . S
C1286 H1260 0.950 . S
C1286 C1282 1.385 . S
C1286 C1285 1.374 . S
C1287 C1284 1.499 . S
C1287 C1288 1.373 . S
C1287 C1289 1.389 1_455 S
C1288 H1261 0.950 . S
C1288 C1274 1.377 . S
C1288 C1287 1.373 . S
C1289 C1273 1.377 . S
C1289 C1287 1.389 1_655 S
C1289 C1290 1.524 . S
C1290 C1289 1.524 . S
C1290 C1291 1.397 1_655 S
C1290 C1295 1.363 . S
C1291 H1262 0.950 . S
C1291 C1290 1.397 1_455 S
C1291 C1292 1.334 . S
C1292 H1263 0.950 1_554 S
C1292 C1291 1.334 . S
C1292 C1293 1.277 1_454 S
C1293 C1292 1.277 1_656 S
C1293 C1294 1.498 1_556 S
C1293 H1296 1.038 . S
C1294 H1264 0.950 . S
C1294 C1293 1.498 1_554 S
C1294 C1295 1.415 . S
C1295 H1265 0.950 . S
C1295 C1290 1.363 . S
C1295 C1294 1.415 . S
H1296 C1293 1.038 . S
H1297 C1278 0.913 . S
H1298 C1316 0.951 . S
H1299 C1318 0.951 . S
H1300 C1320 0.950 . S
H1301 C1321 0.950 . S
H1302 C1323 0.950 . S
H1303 C1326 0.950 . S
H1304 C1327 0.950 . S
H1305 C1329 0.950 . S
H1306 C1330 0.950 . S
H1307 C1331 0.951 . S
H1308 C1333 0.951 . S
H1309 C1335 0.950 . S
H1310 C1336 0.950 . S
H1311 C1338 0.950 . S
H1312 C1341 0.950 . S
H1313 C1342 0.950 . S
H1314 C1344 0.950 . S
H1315 C1345 0.950 . S
C1316 H1298 0.951 . S
C1316 C1317 1.366 . S
C1316 C1318 1.388 . S
C1317 C1316 1.366 . S
C1317 C1321 1.385 . S
C1318 H1299 0.951 . S
C1318 C1316 1.388 . S
C1318 C1319 1.366 . S
C1319 C1318 1.366 . S
C1319 C1320 1.414 . S
C1319 C1322 1.499 . S
C1320 H1300 0.950 . S
C1320 C1319 1.414 . S
C1320 C1321 1.374 . S
C1321 H1301 0.950 . S
C1321 C1317 1.385 . S
C1321 C1320 1.374 . S
C1322 C1319 1.499 . S
C1322 C1323 1.373 . S
C1322 C1324 1.396 . S
C1323 H1302 0.950 . S
C1323 C1322 1.373 . S
C1323 C1339 1.370 1_455 S
C1324 C1322 1.396 . S
C1324 C1325 1.523 1_455 S
C1324 C1338 1.370 1_455 S
C1325 C1324 1.523 1_655 S
C1325 C1326 1.373 1_655 S
C1325 C1330 1.390 . S
C1326 H1303 0.950 . S
C1326 C1325 1.373 1_455 S
C1326 C1327 1.334 . S
C1327 H1304 0.950 . S
C1327 C1326 1.334 . S
C1327 C1328 1.250 1_455 S
C1328 C1327 1.250 1_655 S
C1328 C1329 1.560 . S
C1328 H1347 0.913 . S
C1329 H1305 0.950 . S
C1329 C1328 1.560 . S
C1329 C1330 1.415 . S
C1330 H1306 0.950 . S
C1330 C1325 1.390 . S
C1330 C1329 1.415 . S
C1331 H1307 0.951 . S
C1331 C1332 1.366 . S
C1331 C1333 1.388 . S
C1332 C1331 1.366 . S
C1332 C1336 1.385 . S
C1333 H1308 0.951 . S
C1333 C1331 1.388 . S
C1333 C1334 1.366 . S
C1334 C1333 1.366 . S
C1334 C1335 1.414 . S
C1334 C1337 1.499 . S
C1335 H1309 0.950 . S
C1335 C1334 1.414 . S
C1335 C1336 1.374 . S
C1336 H1310 0.950 . S
C1336 C1332 1.385 . S
C1336 C1335 1.374 . S
C1337 C1334 1.499 . S
C1337 C1338 1.373 . S
C1337 C1339 1.396 . S
C1338 H1311 0.950 . S
C1338 C1324 1.370 1_655 S
C1338 C1337 1.373 . S
C1339 C1323 1.370 1_655 S
C1339 C1337 1.396 . S
C1339 C1340 1.523 1_655 S
C1340 C1339 1.523 1_455 S
C1340 C1341 1.373 1_455 S
C1340 C1345 1.390 . S
C1341 H1312 0.950 . S
C1341 C1340 1.373 1_655 S
C1341 C1342 1.334 . S
C1342 H1313 0.950 . S
C1342 C1341 1.334 . S
C1342 C1343 1.250 1_655 S
C1343 C1342 1.250 1_455 S
C1343 C1344 1.560 . S
C1343 H1346 1.003 . S
C1344 H1314 0.950 . S
C1344 C1343 1.560 . S
C1344 C1345 1.415 . S
C1345 H1315 0.950 . S
C1345 C1340 1.390 . S
C1345 C1344 1.415 . S
H1346 C1343 1.003 . S
H1347 C1328 0.913 . S
H1348 C1366 0.951 . S
H1349 C1368 0.951 . S
H1350 C1370 0.950 . S
H1351 C1371 0.950 . S
H1352 C1373 0.950 . S
H1353 C1376 0.950 . S
H1354 C1377 0.950 . S
H1355 C1379 0.950 . S
H1356 C1380 0.950 . S
H1357 C1381 0.951 . S
H1358 C1383 0.951 . S
H1359 C1385 0.950 . S
H1360 C1386 0.950 . S
H1361 C1388 0.950 . S
H1362 C1391 0.950 . S
H1363 C1392 0.950 . S
H1364 C1394 0.950 . S
H1365 C1395 0.950 . S
C1366 H1348 0.951 . S
C1366 C1367 1.366 . S
C1366 C1368 1.388 . S
C1367 C1366 1.366 . S
C1367 C1371 1.385 . S
C1368 H1349 0.951 . S
C1368 C1366 1.388 . S
C1368 C1369 1.366 . S
C1369 C1368 1.366 . S
C1369 C1370 1.414 . S
C1369 C1372 1.499 . S
C1370 H1350 0.950 . S
C1370 C1369 1.414 . S
C1370 C1371 1.374 . S
C1371 H1351 0.950 . S
C1371 C1367 1.385 . S
C1371 C1370 1.374 . S
C1372 C1369 1.499 . S
C1372 C1373 1.373 . S
C1372 C1374 1.389 . S
C1373 H1352 0.950 . S
C1373 C1372 1.373 . S
C1373 C1389 1.377 . S
C1374 C1372 1.389 . S
C1374 C1375 1.524 . S
C1374 C1388 1.377 . S
C1375 C1374 1.524 . S
C1375 C1376 1.397 . S
C1375 C1380 1.363 . S
C1376 H1353 0.950 . S
C1376 C1375 1.397 . S
C1376 C1377 1.334 . S
C1377 H1354 0.950 . S
C1377 C1376 1.334 . S
C1377 C1378 1.287 . S
C1378 C1377 1.287 . S
C1378 C1379 1.524 . S
C1378 H1397 0.913 . S
C1379 H1355 0.950 . S
C1379 C1378 1.524 . S
C1379 C1380 1.415 . S
C1380 H1356 0.950 . S
C1380 C1375 1.363 . S
C1380 C1379 1.415 . S
C1381 H1357 0.951 . S
C1381 C1382 1.366 . S
C1381 C1383 1.388 . S
C1382 C1381 1.366 . S
C1382 C1386 1.385 . S
C1383 H1358 0.951 . S
C1383 C1381 1.388 . S
C1383 C1384 1.366 . S
C1384 C1383 1.366 . S
C1384 C1385 1.414 . S
C1384 C1387 1.499 . S
C1385 H1359 0.950 . S
C1385 C1384 1.414 . S
C1385 C1386 1.374 . S
C1386 H1360 0.950 . S
C1386 C1382 1.385 . S
C1386 C1385 1.374 . S
C1387 C1384 1.499 . S
C1387 C1388 1.373 . S
C1387 C1389 1.389 . S
C1388 H1361 0.950 . S
C1388 C1374 1.377 . S
C1388 C1387 1.373 . S
C1389 C1373 1.377 . S
C1389 C1387 1.389 . S
C1389 C1390 1.524 . S
C1390 C1389 1.524 . S
C1390 C1391 1.397 . S
C1390 C1395 1.363 . S
C1391 H1362 0.950 . S
C1391 C1390 1.397 . S
C1391 C1392 1.334 . S
C1392 H1363 0.950 . S
C1392 C1391 1.334 . S
C1392 C1393 1.287 . S
C1393 C1392 1.287 . S
C1393 C1394 1.524 . S
C1393 H1396 0.999 . S
C1394 H1364 0.950 . S
C1394 C1393 1.524 . S
C1394 C1395 1.415 . S
C1395 H1365 0.950 . S
C1395 C1390 1.363 . S
C1395 C1394 1.415 . S
H1396 C1393 0.999 . S
H1397 C1378 0.913 . S
H1398 C1416 0.951 . S
H1399 C1418 0.951 . S
H1400 C1420 0.950 . S
H1401 C1421 0.950 . S
H1402 C1423 0.950 . S
H1403 C1426 0.950 . S
H1404 C1427 0.950 . S
H1405 C1429 0.950 . S
H1406 C1430 0.950 . S
H1407 C1431 0.951 . S
H1408 C1433 0.951 . S
H1409 C1435 0.950 . S
H1410 C1436 0.950 . S
H1411 C1438 0.950 . S
H1412 C1441 0.950 . S
H1413 C1442 0.950 . S
H1414 C1444 0.950 . S
H1415 C1445 0.950 . S
C1416 H1398 0.951 . S
C1416 C1417 1.366 . S
C1416 C1418 1.388 . S
C1417 C1416 1.366 . S
C1417 C1421 1.385 . S
C1418 H1399 0.951 . S
C1418 C1416 1.388 . S
C1418 C1419 1.366 . S
C1419 C1418 1.366 . S
C1419 C1420 1.414 . S
C1419 C1422 1.499 . S
C1420 H1400 0.950 . S
C1420 C1419 1.414 . S
C1420 C1421 1.374 . S
C1421 H1401 0.950 . S
C1421 C1417 1.385 . S
C1421 C1420 1.374 . S
C1422 C1419 1.499 . S
C1422 C1423 1.373 . S
C1422 C1424 1.389 . S
C1423 H1402 0.950 . S
C1423 C1422 1.373 . S
C1423 C1439 1.377 . S
C1424 C1422 1.389 . S
C1424 C1425 1.524 . S
C1424 C1438 1.377 . S
C1425 C1424 1.524 . S
C1425 C1426 1.397 . S
C1425 C1430 1.363 . S
C1426 H1403 0.950 . S
C1426 C1425 1.397 . S
C1426 C1427 1.334 . S
C1427 H1404 0.950 . S
C1427 C1426 1.334 . S
C1427 C1428 1.287 . S
C1428 C1427 1.287 . S
C1428 C1429 1.524 . S
C1428 H1447 0.913 . S
C1429 H1405 0.950 . S
C1429 C1428 1.524 . S
C1429 C1430 1.415 . S
C1430 H1406 0.950 . S
C1430 C1425 1.363 . S
C1430 C1429 1.415 . S
C1431 H1407 0.951 . S
C1431 C1432 1.366 . S
C1431 C1433 1.388 . S
C1432 C1431 1.366 . S
C1432 C1436 1.385 . S
C1433 H1408 0.951 . S
C1433 C1431 1.388 . S
C1433 C1434 1.366 . S
C1434 C1433 1.366 . S
C1434 C1435 1.414 . S
C1434 C1437 1.499 . S
C1435 H1409 0.950 . S
C1435 C1434 1.414 . S
C1435 C1436 1.374 . S
C1436 H1410 0.950 . S
C1436 C1432 1.385 . S
C1436 C1435 1.374 . S
C1437 C1434 1.499 . S
C1437 C1438 1.373 . S
C1437 C1439 1.389 . S
C1438 H1411 0.950 . S
C1438 C1424 1.377 . S
C1438 C1437 1.373 . S
C1439 C1423 1.377 . S
C1439 C1437 1.389 . S
C1439 C1440 1.524 . S
C1440 C1439 1.524 . S
C1440 C1441 1.397 . S
C1440 C1445 1.363 . S
C1441 H1412 0.950 . S
C1441 C1440 1.397 . S
C1441 C1442 1.334 . S
C1442 H1413 0.950 . S
C1442 C1441 1.334 . S
C1442 C1443 1.287 . S
C1443 C1442 1.287 . S
C1443 C1444 1.524 . S
C1443 H1446 0.999 . S
C1444 H1414 0.950 . S
C1444 C1443 1.524 . S
C1444 C1445 1.415 . S
C1445 H1415 0.950 . S
C1445 C1440 1.363 . S
C1445 C1444 1.415 . S
H1446 C1443 0.999 . S
H1447 C1428 0.913 . S
H1448 C1466 0.951 . S
H1449 C1468 0.979 . S
H1450 C1470 0.950 . S
H1451 C1471 0.950 . S
H1452 C1473 0.950 . S
H1453 C1476 0.950 . S
H1454 C1477 0.950 . S
H1455 C1479 0.950 . S
H1456 C1480 0.950 . S
H1457 C1481 0.951 . S
H1458 C1483 0.979 . S
H1459 C1485 0.950 . S
H1460 C1486 0.950 . S
H1461 C1488 0.950 . S
H1462 C1491 0.950 . S
H1463 C1492 0.950 . S
H1464 C1494 0.950 . S
H1465 C1495 0.950 . S
C1466 H1448 0.951 . S
C1466 C1467 1.366 . S
C1466 C1468 1.388 . S
C1467 C1466 1.366 . S
C1467 C1471 1.385 . S
C1468 H1449 0.979 . S
C1468 C1466 1.388 . S
C1468 C1469 1.366 . S
C1469 C1468 1.366 . S
C1469 C1470 1.414 . S
C1469 C1472 1.499 . S
C1470 H1450 0.950 . S
C1470 C1469 1.414 . S
C1470 C1471 1.374 . S
C1471 H1451 0.950 . S
C1471 C1467 1.385 . S
C1471 C1470 1.374 . S
C1472 C1469 1.499 . S
C1472 C1473 1.373 . S
C1472 C1474 1.389 1_655 S
C1473 H1452 0.950 . S
C1473 C1472 1.373 . S
C1473 C1489 1.377 . S
C1474 C1472 1.389 1_455 S
C1474 C1475 1.524 . S
C1474 C1488 1.377 . S
C1475 C1474 1.524 . S
C1475 C1476 1.397 1_455 S
C1475 C1480 1.363 . S
C1476 H1453 0.950 . S
C1476 C1475 1.397 1_655 S
C1476 C1477 1.334 . S
C1477 H1454 0.950 . S
C1477 C1476 1.334 . S
C1477 C1478 1.287 1_655 S
C1478 C1477 1.287 1_455 S
C1478 C1479 1.524 . S
C1478 H1497 0.915 . S
C1479 H1455 0.950 . S
C1479 C1478 1.524 . S
C1479 C1480 1.415 . S
C1480 H1456 0.950 . S
C1480 C1475 1.363 . S
C1480 C1479 1.415 . S
C1481 H1457 0.951 . S
C1481 C1482 1.366 . S
C1481 C1483 1.388 . S
C1482 C1481 1.366 . S
C1482 C1486 1.385 . S
C1483 H1458 0.979 . S
C1483 C1481 1.388 . S
C1483 C1484 1.366 . S
C1484 C1483 1.366 . S
C1484 C1485 1.414 . S
C1484 C1487 1.499 . S
C1485 H1459 0.950 . S
C1485 C1484 1.414 . S
C1485 C1486 1.374 . S
C1486 H1460 0.950 . S
C1486 C1482 1.385 . S
C1486 C1485 1.374 . S
C1487 C1484 1.499 . S
C1487 C1488 1.373 . S
C1487 C1489 1.389 1_455 S
C1488 H1461 0.950 . S
C1488 C1474 1.377 . S
C1488 C1487 1.373 . S
C1489 C1473 1.377 . S
C1489 C1487 1.389 1_655 S
C1489 C1490 1.524 . S
C1490 C1489 1.524 . S
C1490 C1491 1.397 1_655 S
C1490 C1495 1.363 . S
C1491 H1462 0.950 . S
C1491 C1490 1.397 1_455 S
C1491 C1492 1.334 . S
C1492 H1463 0.950 . S
C1492 C1491 1.334 . S
C1492 C1493 1.287 1_455 S
C1493 C1492 1.287 1_655 S
C1493 C1494 1.524 . S
C1493 H1496 0.999 . S
C1494 H1464 0.950 . S
C1494 C1493 1.524 . S
C1494 C1495 1.415 . S
C1495 H1465 0.950 . S
C1495 C1490 1.363 . S
C1495 C1494 1.415 . S
H1496 C1493 0.999 . S
H1497 C1478 0.915 . S
H1498 C1516 0.951 . S
H1499 C1518 0.951 . S
H1500 C1520 0.950 . S
H1501 C1521 0.950 . S
H1502 C1523 0.950 . S
H1503 C1526 0.950 . S
H1504 C1527 0.950 . S
H1505 C1529 0.950 . S
H1506 C1530 0.950 . S
H1507 C1531 0.951 . S
H1508 C1533 0.951 . S
H1509 C1535 0.950 . S
H1510 C1536 0.950 . S
H1511 C1538 0.950 . S
H1512 C1541 0.950 . S
H1513 C1542 0.950 . S
H1514 C1544 0.950 . S
H1515 C1545 0.950 . S
C1516 H1498 0.951 . S
C1516 C1517 1.366 . S
C1516 C1518 1.388 . S
C1517 C1516 1.366 . S
C1517 C1521 1.385 . S
C1518 H1499 0.951 . S
C1518 C1516 1.388 . S
C1518 C1519 1.366 . S
C1519 C1518 1.366 . S
C1519 C1520 1.414 . S
C1519 C1522 1.499 . S
C1520 H1500 0.950 . S
C1520 C1519 1.414 . S
C1520 C1521 1.374 . S
C1521 H1501 0.950 . S
C1521 C1517 1.385 . S
C1521 C1520 1.374 . S
C1522 C1519 1.499 . S
C1522 C1523 1.373 . S
C1522 C1524 1.389 . S
C1523 H1502 0.950 . S
C1523 C1522 1.373 . S
C1523 C1539 1.377 . S
C1524 C1522 1.389 . S
C1524 C1525 1.524 . S
C1524 C1538 1.377 . S
C1525 C1524 1.524 . S
C1525 C1526 1.397 . S
C1525 C1530 1.363 . S
C1526 H1503 0.950 . S
C1526 C1525 1.397 . S
C1526 C1527 1.334 . S
C1527 H1504 0.950 . S
C1527 C1526 1.334 . S
C1527 C1528 1.287 . S
C1528 C1527 1.287 . S
C1528 C1529 1.524 . S
C1528 H1547 0.913 . S
C1529 H1505 0.950 . S
C1529 C1528 1.524 . S
C1529 C1530 1.415 . S
C1530 H1506 0.950 . S
C1530 C1525 1.363 . S
C1530 C1529 1.415 . S
C1531 H1507 0.951 . S
C1531 C1532 1.366 . S
C1531 C1533 1.388 . S
C1532 C1531 1.366 . S
C1532 C1536 1.385 . S
C1533 H1508 0.951 . S
C1533 C1531 1.388 . S
C1533 C1534 1.366 . S
C1534 C1533 1.366 . S
C1534 C1535 1.414 . S
C1534 C1537 1.499 . S
C1535 H1509 0.950 . S
C1535 C1534 1.414 . S
C1535 C1536 1.374 . S
C1536 H1510 0.950 . S
C1536 C1532 1.385 . S
C1536 C1535 1.374 . S
C1537 C1534 1.499 . S
C1537 C1538 1.373 . S
C1537 C1539 1.389 . S
C1538 H1511 0.950 . S
C1538 C1524 1.377 . S
C1538 C1537 1.373 . S
C1539 C1523 1.377 . S
C1539 C1537 1.389 . S
C1539 C1540 1.524 . S
C1540 C1539 1.524 . S
C1540 C1541 1.397 . S
C1540 C1545 1.363 . S
C1541 H1512 0.950 . S
C1541 C1540 1.397 . S
C1541 C1542 1.334 . S
C1542 H1513 0.950 . S
C1542 C1541 1.334 . S
C1542 C1543 1.287 . S
C1543 C1542 1.287 . S
C1543 C1544 1.524 . S
C1543 H1546 0.999 . S
C1544 H1514 0.950 . S
C1544 C1543 1.524 . S
C1544 C1545 1.415 . S
C1545 H1515 0.950 . S
C1545 C1540 1.363 . S
C1545 C1544 1.415 . S
H1546 C1543 0.999 . S
H1547 C1528 0.913 . S
H1548 C1566 0.951 . S
H1549 C1568 0.951 . S
H1550 C1570 0.950 . S
H1551 C1571 0.950 . S
H1552 C1573 0.950 . S
H1553 C1576 0.950 . S
H1554 C1577 0.950 . S
H1555 C1579 0.950 . S
H1556 C1580 0.950 . S
H1557 C1581 0.951 . S
H1558 C1583 0.951 . S
H1559 C1585 0.950 . S
H1560 C1586 0.950 . S
H1561 C1588 0.950 . S
H1562 C1591 0.950 . S
H1563 C1592 0.950 1_554 S
H1564 C1594 0.950 . S
H1565 C1595 0.950 . S
C1566 H1548 0.951 . S
C1566 C1567 1.366 . S
C1566 C1568 1.388 . S
C1567 C1566 1.366 . S
C1567 C1571 1.385 . S
C1568 H1549 0.951 . S
C1568 C1566 1.388 . S
C1568 C1569 1.366 . S
C1569 C1568 1.366 . S
C1569 C1570 1.414 . S
C1569 C1572 1.499 . S
C1570 H1550 0.950 . S
C1570 C1569 1.414 . S
C1570 C1571 1.374 . S
C1571 H1551 0.950 . S
C1571 C1567 1.385 . S
C1571 C1570 1.374 . S
C1572 C1569 1.499 . S
C1572 C1573 1.373 . S
C1572 C1574 1.389 . S
C1573 H1552 0.950 . S
C1573 C1572 1.373 . S
C1573 C1589 1.377 . S
C1574 C1572 1.389 . S
C1574 C1575 1.524 . S
C1574 C1588 1.377 . S
C1575 C1574 1.524 . S
C1575 C1576 1.397 . S
C1575 C1580 1.363 . S
C1576 H1553 0.950 . S
C1576 C1575 1.397 . S
C1576 C1577 1.334 . S
C1577 H1554 0.950 . S
C1577 C1576 1.334 . S
C1577 C1578 1.287 . S
C1578 C1577 1.287 . S
C1578 C1579 1.524 . S
C1578 H1597 0.913 . S
C1579 H1555 0.950 . S
C1579 C1578 1.524 . S
C1579 C1580 1.415 . S
C1580 H1556 0.950 . S
C1580 C1575 1.363 . S
C1580 C1579 1.415 . S
C1581 H1557 0.951 . S
C1581 C1582 1.366 . S
C1581 C1583 1.388 . S
C1582 C1581 1.366 . S
C1582 C1586 1.385 . S
C1583 H1558 0.951 . S
C1583 C1581 1.388 . S
C1583 C1584 1.366 . S
C1584 C1583 1.366 . S
C1584 C1585 1.414 . S
C1584 C1587 1.499 . S
C1585 H1559 0.950 . S
C1585 C1584 1.414 . S
C1585 C1586 1.374 . S
C1586 H1560 0.950 . S
C1586 C1582 1.385 . S
C1586 C1585 1.374 . S
C1587 C1584 1.499 . S
C1587 C1588 1.373 . S
C1587 C1589 1.389 . S
C1588 H1561 0.950 . S
C1588 C1574 1.377 . S
C1588 C1587 1.373 . S
C1589 C1573 1.377 . S
C1589 C1587 1.389 . S
C1589 C1590 1.524 . S
C1590 C1589 1.524 . S
C1590 C1591 1.397 . S
C1590 C1595 1.363 . S
C1591 H1562 0.950 . S
C1591 C1590 1.397 . S
C1591 C1592 1.334 . S
C1592 H1563 0.950 1_556 S
C1592 C1591 1.334 . S
C1592 C1593 1.287 1_556 S
C1593 C1592 1.287 1_554 S
C1593 C1594 1.524 1_554 S
C1593 H1596 0.999 . S
C1594 H1564 0.950 . S
C1594 C1593 1.524 1_556 S
C1594 C1595 1.415 . S
C1595 H1565 0.950 . S
C1595 C1590 1.363 . S
C1595 C1594 1.415 . S
H1596 C1593 0.999 . S
H1597 C1578 0.913 . S
H1598 C1616 0.951 . S
H1599 C1618 0.951 . S
H1600 C1620 0.950 . S
H1601 C1621 0.950 . S
H1602 C1623 0.950 . S
H1603 C1626 0.950 . S
H1604 C1627 0.950 . S
H1605 C1629 0.950 . S
H1606 C1630 0.950 . S
H1607 C1631 0.951 . S
H1608 C1633 0.951 . S
H1609 C1635 0.950 . S
H1610 C1636 0.950 . S
H1611 C1638 0.950 . S
H1612 C1641 0.950 . S
H1613 C1642 0.950 . S
H1614 C1644 0.950 . S
H1615 C1645 0.950 . S
C1616 H1598 0.951 . S
C1616 C1617 1.366 . S
C1616 C1618 1.388 . S
C1617 C1616 1.366 . S
C1617 C1621 1.385 . S
C1618 H1599 0.951 . S
C1618 C1616 1.388 . S
C1618 C1619 1.366 . S
C1619 C1618 1.366 . S
C1619 C1620 1.414 . S
C1619 C1622 1.499 . S
C1620 H1600 0.950 . S
C1620 C1619 1.414 . S
C1620 C1621 1.374 . S
C1621 H1601 0.950 . S
C1621 C1617 1.385 . S
C1621 C1620 1.374 . S
C1622 C1619 1.499 . S
C1622 C1623 1.373 1_455 S
C1622 C1624 1.389 . S
C1623 H1602 0.950 . S
C1623 C1622 1.373 1_655 S
C1623 C1639 1.377 . S
C1624 C1622 1.389 . S
C1624 C1625 1.524 . S
C1624 C1638 1.377 . S
C1625 C1624 1.524 . S
C1625 C1626 1.397 . S
C1625 C1630 1.363 . S
C1626 H1603 0.950 . S
C1626 C1625 1.397 . S
C1626 C1627 1.334 . S
C1627 H1604 0.950 . S
C1627 C1626 1.334 . S
C1627 C1628 1.287 . S
C1628 C1627 1.287 . S
C1628 C1629 1.524 . S
C1628 H1647 0.913 . S
C1629 H1605 0.950 . S
C1629 C1628 1.524 . S
C1629 C1630 1.415 . S
C1630 H1606 0.950 . S
C1630 C1625 1.363 . S
C1630 C1629 1.415 . S
C1631 H1607 0.951 . S
C1631 C1632 1.366 . S
C1631 C1633 1.388 . S
C1632 C1631 1.366 . S
C1632 C1636 1.385 . S
C1633 H1608 0.951 . S
C1633 C1631 1.388 . S
C1633 C1634 1.366 . S
C1634 C1633 1.366 . S
C1634 C1635 1.414 . S
C1634 C1637 1.499 . S
C1635 H1609 0.950 . S
C1635 C1634 1.414 . S
C1635 C1636 1.374 . S
C1636 H1610 0.950 . S
C1636 C1632 1.385 . S
C1636 C1635 1.374 . S
C1637 C1634 1.499 . S
C1637 C1638 1.373 1_655 S
C1637 C1639 1.389 . S
C1638 H1611 0.950 . S
C1638 C1624 1.377 . S
C1638 C1637 1.373 1_455 S
C1639 C1623 1.377 . S
C1639 C1637 1.389 . S
C1639 C1640 1.524 . S
C1640 C1639 1.524 . S
C1640 C1641 1.397 . S
C1640 C1645 1.363 . S
C1641 H1612 0.950 . S
C1641 C1640 1.397 . S
C1641 C1642 1.334 . S
C1642 H1613 0.950 . S
C1642 C1641 1.334 . S
C1642 C1643 1.287 . S
C1643 C1642 1.287 . S
C1643 C1644 1.524 . S
C1643 H1646 0.999 . S
C1644 H1614 0.950 . S
C1644 C1643 1.524 . S
C1644 C1645 1.415 . S
C1645 H1615 0.950 . S
C1645 C1640 1.363 . S
C1645 C1644 1.415 . S
H1646 C1643 0.999 . S
H1647 C1628 0.913 . S
H1648 C1666 0.951 . S
H1649 C1668 0.951 . S
H1650 C1670 0.950 . S
H1651 C1671 0.950 . S
H1652 C1673 0.950 . S
H1653 C1676 0.950 . S
H1654 C1677 0.950 . S
H1655 C1679 0.950 . S
H1656 C1680 0.950 . S
H1657 C1681 0.951 . S
H1658 C1683 0.951 . S
H1659 C1685 0.950 . S
H1660 C1686 0.950 . S
H1661 C1688 0.950 . S
H1662 C1691 0.950 . S
H1663 C1692 0.950 . S
H1664 C1694 0.950 . S
H1665 C1695 0.950 . S
C1666 H1648 0.951 . S
C1666 C1667 1.366 . S
C1666 C1668 1.388 . S
C1667 C1666 1.366 . S
C1667 C1671 1.385 . S
C1668 H1649 0.951 . S
C1668 C1666 1.388 . S
C1668 C1669 1.366 . S
C1669 C1668 1.366 . S
C1669 C1670 1.414 . S
C1669 C1672 1.499 . S
C1670 H1650 0.950 . S
C1670 C1669 1.414 . S
C1670 C1671 1.374 . S
C1671 H1651 0.950 . S
C1671 C1667 1.385 . S
C1671 C1670 1.374 . S
C1672 C1669 1.499 . S
C1672 C1673 1.373 . S
C1672 C1674 1.389 1_655 S
C1673 H1652 0.950 . S
C1673 C1672 1.373 . S
C1673 C1689 1.377 . S
C1674 C1672 1.389 1_455 S
C1674 C1675 1.524 . S
C1674 C1688 1.377 . S
C1675 C1674 1.524 . S
C1675 C1676 1.397 . S
C1675 C1680 1.363 . S
C1676 H1653 0.950 . S
C1676 C1675 1.397 . S
C1676 C1677 1.334 . S
C1677 H1654 0.950 . S
C1677 C1676 1.334 . S
C1677 C1678 1.287 . S
C1678 C1677 1.287 . S
C1678 C1679 1.524 . S
C1678 H1697 0.913 . S
C1679 H1655 0.950 . S
C1679 C1678 1.524 . S
C1679 C1680 1.415 . S
C1680 H1656 0.950 . S
C1680 C1675 1.363 . S
C1680 C1679 1.415 . S
C1681 H1657 0.951 . S
C1681 C1682 1.366 . S
C1681 C1683 1.388 . S
C1682 C1681 1.366 . S
C1682 C1686 1.385 . S
C1683 H1658 0.951 . S
C1683 C1681 1.388 . S
C1683 C1684 1.366 . S
C1684 C1683 1.366 . S
C1684 C1685 1.414 . S
C1684 C1687 1.499 . S
C1685 H1659 0.950 . S
C1685 C1684 1.414 . S
C1685 C1686 1.374 . S
C1686 H1660 0.950 . S
C1686 C1682 1.385 . S
C1686 C1685 1.374 . S
C1687 C1684 1.499 . S
C1687 C1688 1.373 . S
C1687 C1689 1.389 1_455 S
C1688 H1661 0.950 . S
C1688 C1674 1.377 . S
C1688 C1687 1.373 . S
C1689 C1673 1.377 . S
C1689 C1687 1.389 1_655 S
C1689 C1690 1.524 . S
C1690 C1689 1.524 . S
C1690 C1691 1.397 . S
C1690 C1695 1.363 . S
C1691 H1662 0.950 . S
C1691 C1690 1.397 . S
C1691 C1692 1.334 . S
C1692 H1663 0.950 . S
C1692 C1691 1.334 . S
C1692 C1693 1.287 . S
C1693 C1692 1.287 . S
C1693 C1694 1.524 . S
C1693 H1696 0.999 . S
C1694 H1664 0.950 . S
C1694 C1693 1.524 . S
C1694 C1695 1.415 . S
C1695 H1665 0.950 . S
C1695 C1690 1.363 . S
C1695 C1694 1.415 . S
H1696 C1693 0.999 . S
H1697 C1678 0.913 . S
H1698 C1716 0.951 . S
H1699 C1718 0.951 . S
H1700 C1720 0.950 . S
H1701 C1721 0.950 . S
H1702 C1723 0.953 . S
H1703 C1726 0.950 . S
H1704 C1727 0.950 . S
H1705 C1729 0.950 . S
H1706 C1730 0.950 . S
H1707 C1731 0.951 . S
H1708 C1733 0.951 . S
H1709 C1735 0.950 . S
H1710 C1736 0.950 . S
H1711 C1738 0.953 . S
H1712 C1741 0.950 . S
H1713 C1742 0.950 . S
H1714 C1744 0.950 . S
H1715 C1745 0.950 . S
C1716 H1698 0.951 . S
C1716 C1717 1.366 . S
C1716 C1718 1.388 . S
C1717 C1716 1.366 . S
C1717 C1721 1.385 . S
C1718 H1699 0.951 . S
C1718 C1716 1.388 . S
C1718 C1719 1.366 . S
C1719 C1718 1.366 . S
C1719 C1720 1.414 . S
C1719 C1722 1.499 . S
C1720 H1700 0.950 . S
C1720 C1719 1.414 . S
C1720 C1721 1.374 . S
C1721 H1701 0.950 . S
C1721 C1717 1.385 . S
C1721 C1720 1.374 . S
C1722 C1719 1.499 . S
C1722 C1723 1.415 . S
C1722 C1724 1.389 . S
C1723 H1702 0.953 . S
C1723 C1722 1.415 . S
C1723 C1739 1.334 1_655 S
C1724 C1722 1.389 . S
C1724 C1725 1.524 . S
C1724 C1738 1.334 1_655 S
C1725 C1724 1.524 . S
C1725 C1726 1.397 . S
C1725 C1730 1.363 . S
C1726 H1703 0.950 . S
C1726 C1725 1.397 . S
C1726 C1727 1.334 . S
C1727 H1704 0.950 . S
C1727 C1726 1.334 . S
C1727 C1728 1.287 . S
C1728 C1727 1.287 . S
C1728 C1729 1.524 . S
C1728 H1747 0.913 . S
C1729 H1705 0.950 . S
C1729 C1728 1.524 . S
C1729 C1730 1.415 . S
C1730 H1706 0.950 . S
C1730 C1725 1.363 . S
C1730 C1729 1.415 . S
C1731 H1707 0.951 . S
C1731 C1732 1.366 . S
C1731 C1733 1.388 . S
C1732 C1731 1.366 . S
C1732 C1736 1.385 . S
C1733 H1708 0.951 . S
C1733 C1731 1.388 . S
C1733 C1734 1.366 . S
C1734 C1733 1.366 . S
C1734 C1735 1.414 . S
C1734 C1737 1.499 . S
C1735 H1709 0.950 . S
C1735 C1734 1.414 . S
C1735 C1736 1.374 . S
C1736 H1710 0.950 . S
C1736 C1732 1.385 . S
C1736 C1735 1.374 . S
C1737 C1734 1.499 . S
C1737 C1738 1.415 . S
C1737 C1739 1.389 . S
C1738 H1711 0.953 . S
C1738 C1724 1.334 1_455 S
C1738 C1737 1.415 . S
C1739 C1723 1.334 1_455 S
C1739 C1737 1.389 . S
C1739 C1740 1.524 . S
C1740 C1739 1.524 . S
C1740 C1741 1.397 . S
C1740 C1745 1.363 . S
C1741 H1712 0.950 . S
C1741 C1740 1.397 . S
C1741 C1742 1.334 . S
C1742 H1713 0.950 . S
C1742 C1741 1.334 . S
C1742 C1743 1.287 . S
C1743 C1742 1.287 . S
C1743 C1744 1.524 . S
C1743 H1746 0.999 . S
C1744 H1714 0.950 . S
C1744 C1743 1.524 . S
C1744 C1745 1.415 . S
C1745 H1715 0.950 . S
C1745 C1740 1.363 . S
C1745 C1744 1.415 . S
H1746 C1743 0.999 . S
H1747 C1728 0.913 . S
H1748 C1766 0.951 . S
H1749 C1768 0.951 . S
H1750 C1770 0.950 . S
H1751 C1771 0.950 . S
H1752 C1773 0.950 . S
H1753 C1776 0.950 . S
H1754 C1777 0.950 . S
H1755 C1779 0.950 . S
H1756 C1780 0.950 . S
H1757 C1781 0.951 . S
H1758 C1783 0.951 . S
H1759 C1785 0.950 . S
H1760 C1786 0.950 . S
H1761 C1788 0.950 . S
H1762 C1791 0.950 . S
H1763 C1792 0.950 . S
H1764 C1794 0.950 . S
H1765 C1795 0.950 . S
C1766 H1748 0.951 . S
C1766 C1767 1.366 . S
C1766 C1768 1.388 . S
C1767 C1766 1.366 . S
C1767 C1771 1.385 . S
C1768 H1749 0.951 . S
C1768 C1766 1.388 . S
C1768 C1769 1.366 . S
C1769 C1768 1.366 . S
C1769 C1770 1.414 . S
C1769 C1772 1.499 . S
C1770 H1750 0.950 . S
C1770 C1769 1.414 . S
C1770 C1771 1.374 . S
C1771 H1751 0.950 . S
C1771 C1767 1.385 . S
C1771 C1770 1.374 . S
C1772 C1769 1.499 . S
C1772 C1773 1.373 . S
C1772 C1774 1.389 . S
C1773 H1752 0.950 . S
C1773 C1772 1.373 . S
C1773 C1789 1.377 . S
C1774 C1772 1.389 . S
C1774 C1775 1.524 . S
C1774 C1788 1.377 . S
C1775 C1774 1.524 . S
C1775 C1776 1.397 . S
C1775 C1780 1.363 . S
C1776 H1753 0.950 . S
C1776 C1775 1.397 . S
C1776 C1777 1.334 . S
C1777 H1754 0.950 . S
C1777 C1776 1.334 . S
C1777 C1778 1.287 . S
C1778 C1777 1.287 . S
C1778 C1779 1.524 . S
C1778 H1797 0.913 . S
C1779 H1755 0.950 . S
C1779 C1778 1.524 . S
C1779 C1780 1.415 . S
C1780 H1756 0.950 . S
C1780 C1775 1.363 . S
C1780 C1779 1.415 . S
C1781 H1757 0.951 . S
C1781 C1782 1.366 . S
C1781 C1783 1.388 . S
C1782 C1781 1.366 . S
C1782 C1786 1.385 . S
C1783 H1758 0.951 . S
C1783 C1781 1.388 . S
C1783 C1784 1.366 . S
C1784 C1783 1.366 . S
C1784 C1785 1.414 . S
C1784 C1787 1.499 . S
C1785 H1759 0.950 . S
C1785 C1784 1.414 . S
C1785 C1786 1.374 . S
C1786 H1760 0.950 . S
C1786 C1782 1.385 . S
C1786 C1785 1.374 . S
C1787 C1784 1.499 . S
C1787 C1788 1.373 . S
C1787 C1789 1.389 . S
C1788 H1761 0.950 . S
C1788 C1774 1.377 . S
C1788 C1787 1.373 . S
C1789 C1773 1.377 . S
C1789 C1787 1.389 . S
C1789 C1790 1.524 . S
C1790 C1789 1.524 . S
C1790 C1791 1.397 . S
C1790 C1795 1.363 . S
C1791 H1762 0.950 . S
C1791 C1790 1.397 . S
C1791 C1792 1.334 . S
C1792 H1763 0.950 . S
C1792 C1791 1.334 . S
C1792 C1793 1.287 . S
C1793 C1792 1.287 . S
C1793 C1794 1.524 . S
C1793 H1796 0.999 . S
C1794 H1764 0.950 . S
C1794 C1793 1.524 . S
C1794 C1795 1.415 . S
C1795 H1765 0.950 . S
C1795 C1790 1.363 . S
C1795 C1794 1.415 . S
H1796 C1793 0.999 . S
H1797 C1778 0.913 . S
H1798 C1816 0.951 . S
H1799 C1818 0.951 . S
H1800 C1820 0.950 . S
H1801 C1821 0.950 . S
H1802 C1823 0.950 . S
H1803 C1826 0.950 . S
H1804 C1827 0.950 . S
H1805 C1829 0.950 . S
H1806 C1830 0.950 . S
H1807 C1831 0.951 . S
H1808 C1833 0.951 . S
H1809 C1835 0.950 . S
H1810 C1836 0.950 . S
H1811 C1838 0.950 . S
H1812 C1841 0.950 . S
H1813 C1842 0.950 . S
H1814 C1844 0.950 . S
H1815 C1845 0.950 . S
C1816 H1798 0.951 . S
C1816 C1817 1.366 . S
C1816 C1818 1.388 . S
C1817 C1816 1.366 . S
C1817 C1821 1.385 . S
C1818 H1799 0.951 . S
C1818 C1816 1.388 . S
C1818 C1819 1.366 . S
C1819 C1818 1.366 . S
C1819 C1820 1.414 . S
C1819 C1822 1.499 . S
C1820 H1800 0.950 . S
C1820 C1819 1.414 . S
C1820 C1821 1.374 . S
C1821 H1801 0.950 . S
C1821 C1817 1.385 . S
C1821 C1820 1.374 . S
C1822 C1819 1.499 . S
C1822 C1823 1.373 . S
C1822 C1824 1.389 . S
C1823 H1802 0.950 . S
C1823 C1822 1.373 . S
C1823 C1839 1.377 . S
C1824 C1822 1.389 . S
C1824 C1825 1.524 . S
C1824 C1838 1.377 . S
C1825 C1824 1.524 . S
C1825 C1826 1.397 . S
C1825 C1830 1.363 . S
C1826 H1803 0.950 . S
C1826 C1825 1.397 . S
C1826 C1827 1.334 . S
C1827 H1804 0.950 . S
C1827 C1826 1.334 . S
C1827 C1828 1.287 . S
C1828 C1827 1.287 . S
C1828 C1829 1.524 . S
C1828 H1847 0.913 . S
C1829 H1805 0.950 . S
C1829 C1828 1.524 . S
C1829 C1830 1.415 . S
C1830 H1806 0.950 . S
C1830 C1825 1.363 . S
C1830 C1829 1.415 . S
C1831 H1807 0.951 . S
C1831 C1832 1.366 . S
C1831 C1833 1.388 . S
C1832 C1831 1.366 . S
C1832 C1836 1.385 . S
C1833 H1808 0.951 . S
C1833 C1831 1.388 . S
C1833 C1834 1.366 . S
C1834 C1833 1.366 . S
C1834 C1835 1.414 . S
C1834 C1837 1.499 . S
C1835 H1809 0.950 . S
C1835 C1834 1.414 . S
C1835 C1836 1.374 . S
C1836 H1810 0.950 . S
C1836 C1832 1.385 . S
C1836 C1835 1.374 . S
C1837 C1834 1.499 . S
C1837 C1838 1.373 . S
C1837 C1839 1.389 . S
C1838 H1811 0.950 . S
C1838 C1824 1.377 . S
C1838 C1837 1.373 . S
C1839 C1823 1.377 . S
C1839 C1837 1.389 . S
C1839 C1840 1.524 . S
C1840 C1839 1.524 . S
C1840 C1841 1.397 . S
C1840 C1845 1.363 . S
C1841 H1812 0.950 . S
C1841 C1840 1.397 . S
C1841 C1842 1.334 . S
C1842 H1813 0.950 . S
C1842 C1841 1.334 . S
C1842 C1843 1.287 . S
C1843 C1842 1.287 . S
C1843 C1844 1.524 . S
C1843 H1846 0.999 . S
C1844 H1814 0.950 . S
C1844 C1843 1.524 . S
C1844 C1845 1.415 . S
C1845 H1815 0.950 . S
C1845 C1840 1.363 . S
C1845 C1844 1.415 . S
H1846 C1843 0.999 . S
H1847 C1828 0.913 . S
H1848 C1866 0.951 . S
H1849 C1868 0.934 1_455 S
H1850 C1870 0.950 . S
H1851 C1871 0.950 . S
H1852 C1873 0.950 . S
H1853 C1876 0.950 . S
H1854 C1877 0.950 . S
H1855 C1879 0.950 . S
H1856 C1880 0.950 . S
H1857 C1881 0.951 . S
H1858 C1883 0.934 1_655 S
H1859 C1885 0.950 . S
H1860 C1886 0.950 . S
H1861 C1888 0.950 . S
H1862 C1891 0.950 . S
H1863 C1892 0.950 . S
H1864 C1894 0.950 . S
H1865 C1895 0.950 . S
C1866 H1848 0.951 . S
C1866 C1867 1.366 . S
C1866 C1868 1.388 . S
C1867 C1866 1.366 . S
C1867 C1871 1.385 . S
C1868 H1849 0.934 1_655 S
C1868 C1866 1.388 . S
C1868 C1869 1.366 . S
C1869 C1868 1.366 . S
C1869 C1870 1.414 . S
C1869 C1872 1.499 . S
C1870 H1850 0.950 . S
C1870 C1869 1.414 . S
C1870 C1871 1.374 . S
C1871 H1851 0.950 . S
C1871 C1867 1.385 . S
C1871 C1870 1.374 . S
C1872 C1869 1.499 . S
C1872 C1873 1.373 . S
C1872 C1874 1.389 1_655 S
C1873 H1852 0.950 . S
C1873 C1872 1.373 . S
C1873 C1889 1.377 . S
C1874 C1872 1.389 1_455 S
C1874 C1875 1.524 . S
C1874 C1888 1.377 . S
C1875 C1874 1.524 . S
C1875 C1876 1.397 1_455 S
C1875 C1880 1.363 . S
C1876 H1853 0.950 . S
C1876 C1875 1.397 1_655 S
C1876 C1877 1.334 . S
C1877 H1854 0.950 . S
C1877 C1876 1.334 . S
C1877 C1878 1.287 1_655 S
C1878 C1877 1.287 1_455 S
C1878 C1879 1.524 . S
C1878 H1897 0.913 . S
C1879 H1855 0.950 . S
C1879 C1878 1.524 . S
C1879 C1880 1.415 . S
C1880 H1856 0.950 . S
C1880 C1875 1.363 . S
C1880 C1879 1.415 . S
C1881 H1857 0.951 . S
C1881 C1882 1.366 . S
C1881 C1883 1.388 . S
C1882 C1881 1.366 . S
C1882 C1886 1.385 . S
C1883 H1858 0.934 1_455 S
C1883 C1881 1.388 . S
C1883 C1884 1.366 . S
C1884 C1883 1.366 . S
C1884 C1885 1.414 . S
C1884 C1887 1.499 . S
C1885 H1859 0.950 . S
C1885 C1884 1.414 . S
C1885 C1886 1.374 . S
C1886 H1860 0.950 . S
C1886 C1882 1.385 . S
C1886 C1885 1.374 . S
C1887 C1884 1.499 . S
C1887 C1888 1.373 . S
C1887 C1889 1.389 1_455 S
C1888 H1861 0.950 . S
C1888 C1874 1.377 . S
C1888 C1887 1.373 . S
C1889 C1873 1.377 . S
C1889 C1887 1.389 1_655 S
C1889 C1890 1.524 . S
C1890 C1889 1.524 . S
C1890 C1891 1.397 1_655 S
C1890 C1895 1.363 . S
C1891 H1862 0.950 . S
C1891 C1890 1.397 1_455 S
C1891 C1892 1.334 . S
C1892 H1863 0.950 . S
C1892 C1891 1.334 . S
C1892 C1893 1.287 1_455 S
C1893 C1892 1.287 1_655 S
C1893 C1894 1.524 . S
C1893 H1896 0.999 . S
C1894 H1864 0.950 . S
C1894 C1893 1.524 . S
C1894 C1895 1.415 . S
C1895 H1865 0.950 . S
C1895 C1890 1.363 . S
C1895 C1894 1.415 . S
H1896 C1893 0.999 . S
H1897 C1878 0.913 . S
H1898 C1916 0.951 . S
H1899 C1918 0.951 . S
H1900 C1920 0.950 . S
H1901 C1921 0.950 . S
H1902 C1923 0.950 . S
H1903 C1926 0.950 . S
H1904 C1927 0.950 . S
H1905 C1929 0.950 . S
H1906 C1930 0.950 . S
H1907 C1931 0.951 . S
H1908 C1933 0.951 . S
H1909 C1935 0.950 . S
H1910 C1936 0.950 . S
H1911 C1938 0.950 . S
H1912 C1941 0.950 . S
H1913 C1942 0.950 . S
H1914 C1944 0.950 . S
H1915 C1945 0.950 . S
C1916 H1898 0.951 . S
C1916 C1917 1.366 . S
C1916 C1918 1.388 . S
C1917 C1916 1.366 . S
C1917 C1921 1.385 . S
C1918 H1899 0.951 . S
C1918 C1916 1.388 . S
C1918 C1919 1.366 . S
C1919 C1918 1.366 . S
C1919 C1920 1.414 . S
C1919 C1922 1.499 . S
C1920 H1900 0.950 . S
C1920 C1919 1.414 . S
C1920 C1921 1.374 . S
C1921 H1901 0.950 . S
C1921 C1917 1.385 . S
C1921 C1920 1.374 . S
C1922 C1919 1.499 . S
C1922 C1923 1.373 . S
C1922 C1924 1.389 . S
C1923 H1902 0.950 . S
C1923 C1922 1.373 . S
C1923 C1939 1.377 . S
C1924 C1922 1.389 . S
C1924 C1925 1.524 . S
C1924 C1938 1.377 . S
C1925 C1924 1.524 . S
C1925 C1926 1.397 . S
C1925 C1930 1.363 . S
C1926 H1903 0.950 . S
C1926 C1925 1.397 . S
C1926 C1927 1.334 . S
C1927 H1904 0.950 . S
C1927 C1926 1.334 . S
C1927 C1928 1.287 . S
C1928 C1927 1.287 . S
C1928 C1929 1.524 . S
C1928 H1947 0.913 . S
C1929 H1905 0.950 . S
C1929 C1928 1.524 . S
C1929 C1930 1.415 . S
C1930 H1906 0.950 . S
C1930 C1925 1.363 . S
C1930 C1929 1.415 . S
C1931 H1907 0.951 . S
C1931 C1932 1.366 . S
C1931 C1933 1.388 . S
C1932 C1931 1.366 . S
C1932 C1936 1.385 . S
C1933 H1908 0.951 . S
C1933 C1931 1.388 . S
C1933 C1934 1.366 . S
C1934 C1933 1.366 . S
C1934 C1935 1.414 . S
C1934 C1937 1.499 . S
C1935 H1909 0.950 . S
C1935 C1934 1.414 . S
C1935 C1936 1.374 . S
C1936 H1910 0.950 . S
C1936 C1932 1.385 . S
C1936 C1935 1.374 . S
C1937 C1934 1.499 . S
C1937 C1938 1.373 . S
C1937 C1939 1.389 . S
C1938 H1911 0.950 . S
C1938 C1924 1.377 . S
C1938 C1937 1.373 . S
C1939 C1923 1.377 . S
C1939 C1937 1.389 . S
C1939 C1940 1.524 . S
C1940 C1939 1.524 . S
C1940 C1941 1.397 . S
C1940 C1945 1.363 . S
C1941 H1912 0.950 . S
C1941 C1940 1.397 . S
C1941 C1942 1.334 . S
C1942 H1913 0.950 . S
C1942 C1941 1.334 . S
C1942 C1943 1.287 . S
C1943 C1942 1.287 . S
C1943 C1944 1.524 . S
C1943 H1946 0.999 . S
C1944 H1914 0.950 . S
C1944 C1943 1.524 . S
C1944 C1945 1.415 . S
C1945 H1915 0.950 . S
C1945 C1940 1.363 . S
C1945 C1944 1.415 . S
H1946 C1943 0.999 . S
H1947 C1928 0.913 . S
H1948 C1966 0.951 . S
H1949 C1968 0.951 . S
H1950 C1970 0.950 . S
H1951 C1971 0.950 . S
H1952 C1973 0.950 . S
H1953 C1976 0.950 . S
H1954 C1977 0.950 . S
H1955 C1979 0.950 . S
H1956 C1980 0.950 . S
H1957 C1981 0.951 . S
H1958 C1983 0.951 . S
H1959 C1985 0.950 . S
H1960 C1986 0.950 . S
H1961 C1988 0.950 . S
H1962 C1991 0.950 . S
H1963 C1992 0.950 . S
H1964 C1994 0.950 . S
H1965 C1995 0.950 . S
C1966 H1948 0.951 . S
C1966 C1967 1.366 . S
C1966 C1968 1.388 . S
C1967 C1966 1.366 . S
C1967 C1971 1.385 . S
C1968 H1949 0.951 . S
C1968 C1966 1.388 . S
C1968 C1969 1.366 . S
C1969 C1968 1.366 . S
C1969 C1970 1.414 . S
C1969 C1972 1.499 . S
C1970 H1950 0.950 . S
C1970 C1969 1.414 . S
C1970 C1971 1.374 . S
C1971 H1951 0.950 . S
C1971 C1967 1.385 . S
C1971 C1970 1.374 . S
C1972 C1969 1.499 . S
C1972 C1973 1.373 . S
C1972 C1974 1.389 . S
C1973 H1952 0.950 . S
C1973 C1972 1.373 . S
C1973 C1989 1.377 . S
C1974 C1972 1.389 . S
C1974 C1975 1.524 . S
C1974 C1988 1.377 . S
C1975 C1974 1.524 . S
C1975 C1976 1.397 . S
C1975 C1980 1.363 . S
C1976 H1953 0.950 . S
C1976 C1975 1.397 . S
C1976 C1977 1.334 . S
C1977 H1954 0.950 . S
C1977 C1976 1.334 . S
C1977 C1978 1.287 . S
C1978 C1977 1.287 . S
C1978 C1979 1.524 . S
C1978 H1997 0.913 . S
C1979 H1955 0.950 . S
C1979 C1978 1.524 . S
C1979 C1980 1.415 . S
C1980 H1956 0.950 . S
C1980 C1975 1.363 . S
C1980 C1979 1.415 . S
C1981 H1957 0.951 . S
C1981 C1982 1.366 . S
C1981 C1983 1.388 . S
C1982 C1981 1.366 . S
C1982 C1986 1.385 . S
C1983 H1958 0.951 . S
C1983 C1981 1.388 . S
C1983 C1984 1.366 . S
C1984 C1983 1.366 . S
C1984 C1985 1.414 . S
C1984 C1987 1.499 . S
C1985 H1959 0.950 . S
C1985 C1984 1.414 . S
C1985 C1986 1.374 . S
C1986 H1960 0.950 . S
C1986 C1982 1.385 . S
C1986 C1985 1.374 . S
C1987 C1984 1.499 . S
C1987 C1988 1.373 . S
C1987 C1989 1.389 . S
C1988 H1961 0.950 . S
C1988 C1974 1.377 . S
C1988 C1987 1.373 . S
C1989 C1973 1.377 . S
C1989 C1987 1.389 . S
C1989 C1990 1.524 . S
C1990 C1989 1.524 . S
C1990 C1991 1.397 . S
C1990 C1995 1.363 . S
C1991 H1962 0.950 . S
C1991 C1990 1.397 . S
C1991 C1992 1.334 . S
C1992 H1963 0.950 . S
C1992 C1991 1.334 . S
C1992 C1993 1.287 1_554 S
C1993 C1992 1.287 1_556 S
C1993 C1994 1.524 . S
C1993 H1996 0.999 . S
C1994 H1964 0.950 . S
C1994 C1993 1.524 . S
C1994 C1995 1.415 1_556 S
C1995 H1965 0.950 . S
C1995 C1990 1.363 . S
C1995 C1994 1.415 1_554 S
H1996 C1993 0.999 . S
H1997 C1978 0.913 . S
H1998 C2016 0.951 . S
H1999 C2018 0.951 . S
H2000 C2020 0.950 . S
H2001 C2021 0.950 . S
H2002 C2023 0.950 . S
H2003 C2026 0.950 . S
H2004 C2027 0.950 . S
H2005 C2029 0.950 . S
H2006 C2030 0.950 . S
H2007 C2031 0.951 . S
H2008 C2033 0.951 . S
H2009 C2035 0.950 . S
H2010 C2036 0.950 . S
H2011 C2038 0.950 . S
H2012 C2041 0.950 . S
H2013 C2042 0.950 . S
H2014 C2044 0.950 . S
H2015 C2045 0.950 . S
C2016 H1998 0.951 . S
C2016 C2017 1.366 . S
C2016 C2018 1.388 . S
C2017 C2016 1.366 . S
C2017 C2021 1.385 . S
C2018 H1999 0.951 . S
C2018 C2016 1.388 . S
C2018 C2019 1.366 . S
C2019 C2018 1.366 . S
C2019 C2020 1.414 . S
C2019 C2022 1.499 . S
C2020 H2000 0.950 . S
C2020 C2019 1.414 . S
C2020 C2021 1.374 . S
C2021 H2001 0.950 . S
C2021 C2017 1.385 . S
C2021 C2020 1.374 . S
C2022 C2019 1.499 . S
C2022 C2023 1.373 . S
C2022 C2024 1.389 . S
C2023 H2002 0.950 . S
C2023 C2022 1.373 . S
C2023 C2039 1.377 1_655 S
C2024 C2022 1.389 . S
C2024 C2025 1.524 . S
C2024 C2038 1.377 1_655 S
C2025 C2024 1.524 . S
C2025 C2026 1.397 . S
C2025 C2030 1.363 . S
C2026 H2003 0.950 . S
C2026 C2025 1.397 . S
C2026 C2027 1.334 . S
C2027 H2004 0.950 . S
C2027 C2026 1.334 . S
C2027 C2028 1.287 . S
C2028 C2027 1.287 . S
C2028 C2029 1.524 . S
C2028 H2047 0.913 . S
C2029 H2005 0.950 . S
C2029 C2028 1.524 . S
C2029 C2030 1.415 . S
C2030 H2006 0.950 . S
C2030 C2025 1.363 . S
C2030 C2029 1.415 . S
C2031 H2007 0.951 . S
C2031 C2032 1.366 . S
C2031 C2033 1.388 . S
C2032 C2031 1.366 . S
C2032 C2036 1.385 . S
C2033 H2008 0.951 . S
C2033 C2031 1.388 . S
C2033 C2034 1.366 . S
C2034 C2033 1.366 . S
C2034 C2035 1.414 . S
C2034 C2037 1.499 . S
C2035 H2009 0.950 . S
C2035 C2034 1.414 . S
C2035 C2036 1.374 . S
C2036 H2010 0.950 . S
C2036 C2032 1.385 . S
C2036 C2035 1.374 . S
C2037 C2034 1.499 . S
C2037 C2038 1.373 . S
C2037 C2039 1.389 . S
C2038 H2011 0.950 . S
C2038 C2024 1.377 1_455 S
C2038 C2037 1.373 . S
C2039 C2023 1.377 1_455 S
C2039 C2037 1.389 . S
C2039 C2040 1.524 . S
C2040 C2039 1.524 . S
C2040 C2041 1.397 . S
C2040 C2045 1.363 . S
C2041 H2012 0.950 . S
C2041 C2040 1.397 . S
C2041 C2042 1.334 . S
C2042 H2013 0.950 . S
C2042 C2041 1.334 . S
C2042 C2043 1.287 . S
C2043 C2042 1.287 . S
C2043 C2044 1.524 . S
C2043 H2046 0.999 . S
C2044 H2014 0.950 . S
C2044 C2043 1.524 . S
C2044 C2045 1.415 . S
C2045 H2015 0.950 . S
C2045 C2040 1.363 . S
C2045 C2044 1.415 . S
H2046 C2043 0.999 . S
H2047 C2028 0.913 . S
H2048 C2066 0.951 . S
H2049 C2068 0.951 . S
H2050 C2070 0.950 1_554 S
H2051 C2071 0.950 . S
H2052 C2073 0.950 . S
H2053 C2076 0.950 . S
H2054 C2077 0.950 . S
H2055 C2079 0.950 . S
H2056 C2080 0.950 . S
H2057 C2081 0.951 . S
H2058 C2083 0.951 . S
H2059 C2085 0.950 1_556 S
H2060 C2086 0.950 . S
H2061 C2088 0.950 . S
H2062 C2091 0.950 . S
H2063 C2092 0.950 . S
H2064 C2094 0.950 . S
H2065 C2095 0.950 . S
C2066 H2048 0.951 . S
C2066 C2067 1.366 . S
C2066 C2068 1.388 . S
C2067 C2066 1.366 . S
C2067 C2071 1.385 . S
C2068 H2049 0.951 . S
C2068 C2066 1.388 . S
C2068 C2069 1.366 . S
C2069 C2068 1.366 . S
C2069 C2070 1.414 . S
C2069 C2072 1.499 . S
C2070 H2050 0.950 1_556 S
C2070 C2069 1.414 . S
C2070 C2071 1.374 . S
C2071 H2051 0.950 . S
C2071 C2067 1.385 . S
C2071 C2070 1.374 . S
C2072 C2069 1.499 . S
C2072 C2073 1.373 1_556 S
C2072 C2074 1.389 . S
C2073 H2052 0.950 . S
C2073 C2072 1.373 1_554 S
C2073 C2089 1.377 . S
C2074 C2072 1.389 . S
C2074 C2075 1.524 . S
C2074 C2088 1.377 . S
C2075 C2074 1.524 . S
C2075 C2076 1.397 . S
C2075 C2080 1.363 . S
C2076 H2053 0.950 . S
C2076 C2075 1.397 . S
C2076 C2077 1.334 . S
C2077 H2054 0.950 . S
C2077 C2076 1.334 . S
C2077 C2078 1.287 . S
C2078 C2077 1.287 . S
C2078 C2079 1.524 . S
C2078 H2097 0.913 . S
C2079 H2055 0.950 . S
C2079 C2078 1.524 . S
C2079 C2080 1.415 . S
C2080 H2056 0.950 . S
C2080 C2075 1.363 . S
C2080 C2079 1.415 . S
C2081 H2057 0.951 . S
C2081 C2082 1.366 . S
C2081 C2083 1.388 . S
C2082 C2081 1.366 . S
C2082 C2086 1.385 . S
C2083 H2058 0.951 . S
C2083 C2081 1.388 . S
C2083 C2084 1.366 . S
C2084 C2083 1.366 . S
C2084 C2085 1.414 . S
C2084 C2087 1.499 . S
C2085 H2059 0.950 1_554 S
C2085 C2084 1.414 . S
C2085 C2086 1.374 . S
C2086 H2060 0.950 . S
C2086 C2082 1.385 . S
C2086 C2085 1.374 . S
C2087 C2084 1.499 . S
C2087 C2088 1.373 1_554 S
C2087 C2089 1.389 . S
C2088 H2061 0.950 . S
C2088 C2074 1.377 . S
C2088 C2087 1.373 1_556 S
C2089 C2073 1.377 . S
C2089 C2087 1.389 . S
C2089 C2090 1.524 . S
C2090 C2089 1.524 . S
C2090 C2091 1.397 . S
C2090 C2095 1.363 . S
C2091 H2062 0.950 . S
C2091 C2090 1.397 . S
C2091 C2092 1.334 . S
C2092 H2063 0.950 . S
C2092 C2091 1.334 . S
C2092 C2093 1.287 . S
C2093 C2092 1.287 . S
C2093 C2094 1.524 . S
C2093 H2096 0.999 . S
C2094 H2064 0.950 . S
C2094 C2093 1.524 . S
C2094 C2095 1.415 . S
C2095 H2065 0.950 . S
C2095 C2090 1.363 . S
C2095 C2094 1.415 . S
H2096 C2093 0.999 . S
H2097 C2078 0.913 . S
H2098 C2116 0.951 . S
H2099 C2118 0.951 . S
H2100 C2120 0.950 . S
H2101 C2121 0.950 . S
H2102 C2123 0.950 . S
H2103 C2126 0.950 . S
H2104 C2127 0.950 . S
H2105 C2129 0.950 . S
H2106 C2130 0.950 . S
H2107 C2131 0.951 . S
H2108 C2133 0.951 . S
H2109 C2135 0.950 . S
H2110 C2136 0.950 . S
H2111 C2138 0.950 . S
H2112 C2141 0.950 . S
H2113 C2142 0.950 . S
H2114 C2144 0.950 . S
H2115 C2145 0.950 . S
C2116 H2098 0.951 . S
C2116 C2117 1.366 . S
C2116 C2118 1.388 . S
C2117 C2116 1.366 . S
C2117 C2121 1.385 . S
C2118 H2099 0.951 . S
C2118 C2116 1.388 . S
C2118 C2119 1.366 . S
C2119 C2118 1.366 . S
C2119 C2120 1.414 . S
C2119 C2122 1.499 . S
C2120 H2100 0.950 . S
C2120 C2119 1.414 . S
C2120 C2121 1.374 . S
C2121 H2101 0.950 . S
C2121 C2117 1.385 . S
C2121 C2120 1.374 . S
C2122 C2119 1.499 . S
C2122 C2123 1.373 . S
C2122 C2124 1.389 . S
C2123 H2102 0.950 . S
C2123 C2122 1.373 . S
C2123 C2139 1.377 1_545 S
C2124 C2122 1.389 . S
C2124 C2125 1.524 . S
C2124 C2138 1.377 1_545 S
C2125 C2124 1.524 . S
C2125 C2126 1.397 . S
C2125 C2130 1.363 . S
C2126 H2103 0.950 . S
C2126 C2125 1.397 . S
C2126 C2127 1.334 . S
C2127 H2104 0.950 . S
C2127 C2126 1.334 . S
C2127 C2128 1.287 . S
C2128 C2127 1.287 . S
C2128 C2129 1.524 . S
C2128 H2147 0.913 . S
C2129 H2105 0.950 . S
C2129 C2128 1.524 . S
C2129 C2130 1.415 . S
C2130 H2106 0.950 . S
C2130 C2125 1.363 . S
C2130 C2129 1.415 . S
C2131 H2107 0.951 . S
C2131 C2132 1.366 . S
C2131 C2133 1.388 . S
C2132 C2131 1.366 . S
C2132 C2136 1.385 . S
C2133 H2108 0.951 . S
C2133 C2131 1.388 . S
C2133 C2134 1.366 . S
C2134 C2133 1.366 . S
C2134 C2135 1.414 . S
C2134 C2137 1.499 . S
C2135 H2109 0.950 . S
C2135 C2134 1.414 . S
C2135 C2136 1.374 . S
C2136 H2110 0.950 . S
C2136 C2132 1.385 . S
C2136 C2135 1.374 . S
C2137 C2134 1.499 . S
C2137 C2138 1.373 . S
C2137 C2139 1.389 . S
C2138 H2111 0.950 . S
C2138 C2124 1.377 1_565 S
C2138 C2137 1.373 . S
C2139 C2123 1.377 1_565 S
C2139 C2137 1.389 . S
C2139 C2140 1.524 . S
C2140 C2139 1.524 . S
C2140 C2141 1.397 . S
C2140 C2145 1.363 . S
C2141 H2112 0.950 . S
C2141 C2140 1.397 . S
C2141 C2142 1.334 . S
C2142 H2113 0.950 . S
C2142 C2141 1.334 . S
C2142 C2143 1.287 . S
C2143 C2142 1.287 . S
C2143 C2144 1.524 . S
C2143 H2146 0.999 . S
C2144 H2114 0.950 . S
C2144 C2143 1.524 . S
C2144 C2145 1.415 . S
C2145 H2115 0.950 . S
C2145 C2140 1.363 . S
C2145 C2144 1.415 . S
H2146 C2143 0.999 . S
H2147 C2128 0.913 . S
H2148 C2166 0.951 . S
H2149 C2168 0.951 . S
H2150 C2170 0.950 . S
H2151 C2171 0.950 . S
H2152 C2173 0.950 . S
H2153 C2176 0.950 . S
H2154 C2177 0.950 . S
H2155 C2179 0.950 . S
H2156 C2180 0.950 . S
H2157 C2181 0.951 . S
H2158 C2183 0.951 . S
H2159 C2185 0.950 . S
H2160 C2186 0.950 . S
H2161 C2188 0.950 . S
H2162 C2191 0.950 . S
H2163 C2192 0.950 . S
H2164 C2194 0.950 . S
H2165 C2195 0.950 . S
C2166 H2148 0.951 . S
C2166 C2167 1.366 . S
C2166 C2168 1.388 . S
C2167 C2166 1.366 . S
C2167 C2171 1.385 . S
C2168 H2149 0.951 . S
C2168 C2166 1.388 . S
C2168 C2169 1.366 . S
C2169 C2168 1.366 . S
C2169 C2170 1.414 . S
C2169 C2172 1.499 . S
C2170 H2150 0.950 . S
C2170 C2169 1.414 . S
C2170 C2171 1.374 . S
C2171 H2151 0.950 . S
C2171 C2167 1.385 . S
C2171 C2170 1.374 . S
C2172 C2169 1.499 . S
C2172 C2173 1.373 . S
C2172 C2174 1.389 . S
C2173 H2152 0.950 . S
C2173 C2172 1.373 . S
C2173 C2189 1.377 . S
C2174 C2172 1.389 . S
C2174 C2175 1.524 . S
C2174 C2188 1.377 . S
C2175 C2174 1.524 . S
C2175 C2176 1.397 . S
C2175 C2180 1.363 . S
C2176 H2153 0.950 . S
C2176 C2175 1.397 . S
C2176 C2177 1.334 . S
C2177 H2154 0.950 . S
C2177 C2176 1.334 . S
C2177 C2178 1.287 . S
C2178 C2177 1.287 . S
C2178 C2179 1.524 . S
C2178 H2197 0.913 . S
C2179 H2155 0.950 . S
C2179 C2178 1.524 . S
C2179 C2180 1.415 . S
C2180 H2156 0.950 . S
C2180 C2175 1.363 . S
C2180 C2179 1.415 . S
C2181 H2157 0.951 . S
C2181 C2182 1.366 . S
C2181 C2183 1.388 . S
C2182 C2181 1.366 . S
C2182 C2186 1.385 . S
C2183 H2158 0.951 . S
C2183 C2181 1.388 . S
C2183 C2184 1.366 . S
C2184 C2183 1.366 . S
C2184 C2185 1.414 . S
C2184 C2187 1.499 . S
C2185 H2159 0.950 . S
C2185 C2184 1.414 . S
C2185 C2186 1.374 . S
C2186 H2160 0.950 . S
C2186 C2182 1.385 . S
C2186 C2185 1.374 . S
C2187 C2184 1.499 . S
C2187 C2188 1.373 . S
C2187 C2189 1.389 . S
C2188 H2161 0.950 . S
C2188 C2174 1.377 . S
C2188 C2187 1.373 . S
C2189 C2173 1.377 . S
C2189 C2187 1.389 . S
C2189 C2190 1.524 . S
C2190 C2189 1.524 . S
C2190 C2191 1.397 . S
C2190 C2195 1.363 . S
C2191 H2162 0.950 . S
C2191 C2190 1.397 . S
C2191 C2192 1.334 . S
C2192 H2163 0.950 . S
C2192 C2191 1.334 . S
C2192 C2193 1.287 . S
C2193 C2192 1.287 . S
C2193 C2194 1.524 . S
C2193 H2196 0.999 . S
C2194 H2164 0.950 . S
C2194 C2193 1.524 . S
C2194 C2195 1.415 . S
C2195 H2165 0.950 . S
C2195 C2190 1.363 . S
C2195 C2194 1.415 . S
H2196 C2193 0.999 . S
H2197 C2178 0.913 . S
H2198 C2216 0.951 . S
H2199 C2218 0.951 . S
H2200 C2220 0.950 . S
H2201 C2221 0.950 . S
H2202 C2223 0.950 . S
H2203 C2226 0.950 . S
H2204 C2227 0.950 . S
H2205 C2229 0.950 . S
H2206 C2230 0.950 . S
H2207 C2231 0.951 . S
H2208 C2233 0.951 . S
H2209 C2235 0.950 . S
H2210 C2236 0.950 . S
H2211 C2238 0.950 . S
H2212 C2241 0.950 . S
H2213 C2242 0.950 . S
H2214 C2244 0.950 . S
H2215 C2245 0.950 . S
C2216 H2198 0.951 . S
C2216 C2217 1.366 . S
C2216 C2218 1.388 . S
C2217 C2216 1.366 . S
C2217 C2221 1.385 . S
C2218 H2199 0.951 . S
C2218 C2216 1.388 . S
C2218 C2219 1.366 . S
C2219 C2218 1.366 . S
C2219 C2220 1.414 . S
C2219 C2222 1.499 . S
C2220 H2200 0.950 . S
C2220 C2219 1.414 . S
C2220 C2221 1.374 . S
C2221 H2201 0.950 . S
C2221 C2217 1.385 . S
C2221 C2220 1.374 . S
C2222 C2219 1.499 . S
C2222 C2223 1.373 . S
C2222 C2224 1.389 . S
C2223 H2202 0.950 . S
C2223 C2222 1.373 . S
C2223 C2239 1.377 1_545 S
C2224 C2222 1.389 . S
C2224 C2225 1.524 . S
C2224 C2238 1.377 1_545 S
C2225 C2224 1.524 . S
C2225 C2226 1.397 . S
C2225 C2230 1.363 . S
C2226 H2203 0.950 . S
C2226 C2225 1.397 . S
C2226 C2227 1.334 . S
C2227 H2204 0.950 . S
C2227 C2226 1.334 . S
C2227 C2228 1.287 . S
C2228 C2227 1.287 . S
C2228 C2229 1.524 . S
C2228 H2247 0.913 . S
C2229 H2205 0.950 . S
C2229 C2228 1.524 . S
C2229 C2230 1.415 . S
C2230 H2206 0.950 . S
C2230 C2225 1.363 . S
C2230 C2229 1.415 . S
C2231 H2207 0.951 . S
C2231 C2232 1.366 . S
C2231 C2233 1.388 . S
C2232 C2231 1.366 . S
C2232 C2236 1.385 . S
C2233 H2208 0.951 . S
C2233 C2231 1.388 . S
C2233 C2234 1.366 . S
C2234 C2233 1.366 . S
C2234 C2235 1.414 . S
C2234 C2237 1.499 . S
C2235 H2209 0.950 . S
C2235 C2234 1.414 . S
C2235 C2236 1.374 . S
C2236 H2210 0.950 . S
C2236 C2232 1.385 . S
C2236 C2235 1.374 . S
C2237 C2234 1.499 . S
C2237 C2238 1.373 . S
C2237 C2239 1.389 . S
C2238 H2211 0.950 . S
C2238 C2224 1.377 1_565 S
C2238 C2237 1.373 . S
C2239 C2223 1.377 1_565 S
C2239 C2237 1.389 . S
C2239 C2240 1.524 . S
C2240 C2239 1.524 . S
C2240 C2241 1.397 . S
C2240 C2245 1.363 . S
C2241 H2212 0.950 . S
C2241 C2240 1.397 . S
C2241 C2242 1.334 . S
C2242 H2213 0.950 . S
C2242 C2241 1.334 . S
C2242 C2243 1.287 . S
C2243 C2242 1.287 . S
C2243 C2244 1.524 . S
C2243 H2246 0.999 . S
C2244 H2214 0.950 . S
C2244 C2243 1.524 . S
C2244 C2245 1.415 . S
C2245 H2215 0.950 . S
C2245 C2240 1.363 . S
C2245 C2244 1.415 . S
H2246 C2243 0.999 . S
H2247 C2228 0.913 . S
H2248 C2266 0.951 . S
H2249 C2268 0.951 1_556 S
H2250 C2270 0.950 . S
H2251 C2271 0.950 . S
H2252 C2273 0.950 . S
H2253 C2276 0.950 . S
H2254 C2277 0.950 . S
H2255 C2279 0.950 . S
H2256 C2280 0.950 . S
H2257 C2281 0.951 . S
H2258 C2283 0.951 1_554 S
H2259 C2285 0.950 . S
H2260 C2286 0.950 . S
H2261 C2288 0.950 . S
H2262 C2291 0.950 . S
H2263 C2292 0.950 . S
H2264 C2294 0.950 . S
H2265 C2295 0.950 . S
C2266 H2248 0.951 . S
C2266 C2267 1.366 . S
C2266 C2268 1.388 . S
C2267 C2266 1.366 . S
C2267 C2271 1.385 . S
C2268 H2249 0.951 1_554 S
C2268 C2266 1.388 . S
C2268 C2269 1.366 . S
C2269 C2268 1.366 . S
C2269 C2270 1.414 . S
C2269 C2272 1.499 . S
C2270 H2250 0.950 . S
C2270 C2269 1.414 . S
C2270 C2271 1.374 . S
C2271 H2251 0.950 . S
C2271 C2267 1.385 . S
C2271 C2270 1.374 . S
C2272 C2269 1.499 . S
C2272 C2273 1.373 . S
C2272 C2274 1.389 1_554 S
C2273 H2252 0.950 . S
C2273 C2272 1.373 . S
C2273 C2289 1.377 . S
C2274 C2272 1.389 1_556 S
C2274 C2275 1.524 . S
C2274 C2288 1.377 . S
C2275 C2274 1.524 . S
C2275 C2276 1.397 1_556 S
C2275 C2280 1.363 . S
C2276 H2253 0.950 . S
C2276 C2275 1.397 1_554 S
C2276 C2277 1.334 . S
C2277 H2254 0.950 . S
C2277 C2276 1.334 . S
C2277 C2278 1.287 1_554 S
C2278 C2277 1.287 1_556 S
C2278 C2279 1.524 . S
C2278 H2297 0.913 . S
C2279 H2255 0.950 . S
C2279 C2278 1.524 . S
C2279 C2280 1.415 . S
C2280 H2256 0.950 . S
C2280 C2275 1.363 . S
C2280 C2279 1.415 . S
C2281 H2257 0.951 . S
C2281 C2282 1.366 . S
C2281 C2283 1.388 . S
C2282 C2281 1.366 . S
C2282 C2286 1.385 . S
C2283 H2258 0.951 1_556 S
C2283 C2281 1.388 . S
C2283 C2284 1.366 . S
C2284 C2283 1.366 . S
C2284 C2285 1.414 . S
C2284 C2287 1.499 . S
C2285 H2259 0.950 . S
C2285 C2284 1.414 . S
C2285 C2286 1.374 . S
C2286 H2260 0.950 . S
C2286 C2282 1.385 . S
C2286 C2285 1.374 . S
C2287 C2284 1.499 . S
C2287 C2288 1.373 . S
C2287 C2289 1.389 1_556 S
C2288 H2261 0.950 . S
C2288 C2274 1.377 . S
C2288 C2287 1.373 . S
C2289 C2273 1.377 . S
C2289 C2287 1.389 1_554 S
C2289 C2290 1.524 . S
C2290 C2289 1.524 . S
C2290 C2291 1.397 1_554 S
C2290 C2295 1.363 . S
C2291 H2262 0.950 . S
C2291 C2290 1.397 1_556 S
C2291 C2292 1.334 . S
C2292 H2263 0.950 . S
C2292 C2291 1.334 . S
C2292 C2293 1.287 1_556 S
C2293 C2292 1.287 1_554 S
C2293 C2294 1.524 . S
C2293 H2296 0.999 . S
C2294 H2264 0.950 . S
C2294 C2293 1.524 . S
C2294 C2295 1.415 . S
C2295 H2265 0.950 . S
C2295 C2290 1.363 . S
C2295 C2294 1.415 . S
H2296 C2293 0.999 . S
H2297 C2278 0.913 . S
H2298 C2316 0.951 . S
H2299 C2318 0.951 . S
H2300 C2320 0.950 . S
H2301 C2321 0.950 . S
H2302 C2323 0.950 . S
H2303 C2326 0.950 . S
H2304 C2327 0.950 . S
H2305 C2329 0.950 . S
H2306 C2330 0.950 1_545 S
H2307 C2331 0.951 . S
H2308 C2333 0.951 . S
H2309 C2335 0.950 . S
H2310 C2336 0.950 . S
H2311 C2338 0.950 . S
H2312 C2341 0.950 . S
H2313 C2342 0.950 . S
H2314 C2344 0.950 . S
H2315 C2345 0.950 1_565 S
C2316 H2298 0.951 . S
C2316 C2317 1.366 . S
C2316 C2318 1.388 . S
C2317 C2316 1.366 . S
C2317 C2321 1.385 . S
C2318 H2299 0.951 . S
C2318 C2316 1.388 . S
C2318 C2319 1.366 . S
C2319 C2318 1.366 . S
C2319 C2320 1.414 . S
C2319 C2322 1.499 . S
C2320 H2300 0.950 . S
C2320 C2319 1.414 . S
C2320 C2321 1.374 . S
C2321 H2301 0.950 . S
C2321 C2317 1.385 . S
C2321 C2320 1.374 . S
C2322 C2319 1.499 . S
C2322 C2323 1.373 . S
C2322 C2324 1.389 . S
C2323 H2302 0.950 . S
C2323 C2322 1.373 . S
C2323 C2339 1.377 1_565 S
C2324 C2322 1.389 . S
C2324 C2325 1.524 . S
C2324 C2338 1.377 1_565 S
C2325 C2324 1.524 . S
C2325 C2326 1.397 . S
C2325 C2330 1.363 . S
C2326 H2303 0.950 . S
C2326 C2325 1.397 . S
C2326 C2327 1.334 . S
C2327 H2304 0.950 . S
C2327 C2326 1.334 . S
C2327 C2328 1.287 . S
C2328 C2327 1.287 . S
C2328 C2329 1.524 . S
C2328 H2347 0.913 . S
C2329 H2305 0.950 . S
C2329 C2328 1.524 . S
C2329 C2330 1.415 . S
C2330 H2306 0.950 1_565 S
C2330 C2325 1.363 . S
C2330 C2329 1.415 . S
C2331 H2307 0.951 . S
C2331 C2332 1.366 . S
C2331 C2333 1.388 . S
C2332 C2331 1.366 . S
C2332 C2336 1.385 . S
C2333 H2308 0.951 . S
C2333 C2331 1.388 . S
C2333 C2334 1.366 . S
C2334 C2333 1.366 . S
C2334 C2335 1.414 . S
C2334 C2337 1.499 . S
C2335 H2309 0.950 . S
C2335 C2334 1.414 . S
C2335 C2336 1.374 . S
C2336 H2310 0.950 . S
C2336 C2332 1.385 . S
C2336 C2335 1.374 . S
C2337 C2334 1.499 . S
C2337 C2338 1.373 . S
C2337 C2339 1.389 . S
C2338 H2311 0.950 . S
C2338 C2324 1.377 1_545 S
C2338 C2337 1.373 . S
C2339 C2323 1.377 1_545 S
C2339 C2337 1.389 . S
C2339 C2340 1.524 . S
C2340 C2339 1.524 . S
C2340 C2341 1.397 . S
C2340 C2345 1.363 . S
C2341 H2312 0.950 . S
C2341 C2340 1.397 . S
C2341 C2342 1.334 . S
C2342 H2313 0.950 . S
C2342 C2341 1.334 . S
C2342 C2343 1.287 . S
C2343 C2342 1.287 . S
C2343 C2344 1.524 . S
C2343 H2346 0.999 . S
C2344 H2314 0.950 . S
C2344 C2343 1.524 . S
C2344 C2345 1.415 . S
C2345 H2315 0.950 1_545 S
C2345 C2340 1.363 . S
C2345 C2344 1.415 . S
H2346 C2343 0.999 . S
H2347 C2328 0.913 . S
H2348 C2366 0.951 . S
H2349 C2368 0.951 . S
H2350 C2370 0.950 . S
H2351 C2371 0.950 . S
H2352 C2373 0.950 . S
H2353 C2376 0.950 . S
H2354 C2377 0.950 . S
H2355 C2379 0.950 . S
H2356 C2380 0.950 . S
H2357 C2381 0.951 . S
H2358 C2383 0.951 . S
H2359 C2385 0.950 . S
H2360 C2386 0.950 . S
H2361 C2388 0.950 . S
H2362 C2391 0.950 . S
H2363 C2392 0.950 . S
H2364 C2394 0.950 . S
H2365 C2395 0.950 . S
C2366 H2348 0.951 . S
C2366 C2367 1.366 . S
C2366 C2368 1.388 . S
C2367 C2366 1.366 . S
C2367 C2371 1.385 . S
C2368 H2349 0.951 . S
C2368 C2366 1.388 . S
C2368 C2369 1.366 . S
C2369 C2368 1.366 . S
C2369 C2370 1.414 . S
C2369 C2372 1.499 . S
C2370 H2350 0.950 . S
C2370 C2369 1.414 . S
C2370 C2371 1.374 . S
C2371 H2351 0.950 . S
C2371 C2367 1.385 . S
C2371 C2370 1.374 . S
C2372 C2369 1.499 . S
C2372 C2373 1.373 . S
C2372 C2374 1.389 . S
C2373 H2352 0.950 . S
C2373 C2372 1.373 . S
C2373 C2389 1.377 . S
C2374 C2372 1.389 . S
C2374 C2375 1.524 . S
C2374 C2388 1.377 . S
C2375 C2374 1.524 . S
C2375 C2376 1.397 . S
C2375 C2380 1.363 . S
C2376 H2353 0.950 . S
C2376 C2375 1.397 . S
C2376 C2377 1.334 . S
C2377 H2354 0.950 . S
C2377 C2376 1.334 . S
C2377 C2378 1.287 . S
C2378 C2377 1.287 . S
C2378 C2379 1.524 . S
C2378 H2397 0.913 . S
C2379 H2355 0.950 . S
C2379 C2378 1.524 . S
C2379 C2380 1.415 . S
C2380 H2356 0.950 . S
C2380 C2375 1.363 . S
C2380 C2379 1.415 . S
C2381 H2357 0.951 . S
C2381 C2382 1.366 . S
C2381 C2383 1.388 . S
C2382 C2381 1.366 . S
C2382 C2386 1.385 . S
C2383 H2358 0.951 . S
C2383 C2381 1.388 . S
C2383 C2384 1.366 . S
C2384 C2383 1.366 . S
C2384 C2385 1.414 . S
C2384 C2387 1.499 . S
C2385 H2359 0.950 . S
C2385 C2384 1.414 . S
C2385 C2386 1.374 . S
C2386 H2360 0.950 . S
C2386 C2382 1.385 . S
C2386 C2385 1.374 . S
C2387 C2384 1.499 . S
C2387 C2388 1.373 . S
C2387 C2389 1.389 . S
C2388 H2361 0.950 . S
C2388 C2374 1.377 . S
C2388 C2387 1.373 . S
C2389 C2373 1.377 . S
C2389 C2387 1.389 . S
C2389 C2390 1.524 . S
C2390 C2389 1.524 . S
C2390 C2391 1.397 . S
C2390 C2395 1.363 . S
C2391 H2362 0.950 . S
C2391 C2390 1.397 . S
C2391 C2392 1.334 . S
C2392 H2363 0.950 . S
C2392 C2391 1.334 . S
C2392 C2393 1.287 . S
C2393 C2392 1.287 . S
C2393 C2394 1.524 . S
C2393 H2396 0.999 . S
C2394 H2364 0.950 . S
C2394 C2393 1.524 . S
C2394 C2395 1.415 . S
C2395 H2365 0.950 . S
C2395 C2390 1.363 . S
C2395 C2394 1.415 . S
H2396 C2393 0.999 . S
H2397 C2378 0.913 . S
H2398 C2416 0.951 . S
H2399 C2418 0.951 . S
H2400 C2420 0.950 . S
H2401 C2421 0.950 . S
H2402 C2423 0.950 . S
H2403 C2426 0.950 . S
H2404 C2427 0.950 . S
H2405 C2429 0.950 . S
H2406 C2430 0.950 . S
H2407 C2431 0.951 . S
H2408 C2433 0.951 . S
H2409 C2435 0.950 . S
H2410 C2436 0.950 . S
H2411 C2438 0.950 . S
H2412 C2441 0.950 . S
H2413 C2442 0.950 . S
H2414 C2444 0.950 . S
H2415 C2445 0.950 . S
C2416 H2398 0.951 . S
C2416 C2417 1.366 . S
C2416 C2418 1.388 . S
C2417 C2416 1.366 . S
C2417 C2421 1.385 . S
C2418 H2399 0.951 . S
C2418 C2416 1.388 . S
C2418 C2419 1.366 . S
C2419 C2418 1.366 . S
C2419 C2420 1.414 . S
C2419 C2422 1.499 . S
C2420 H2400 0.950 . S
C2420 C2419 1.414 . S
C2420 C2421 1.374 . S
C2421 H2401 0.950 . S
C2421 C2417 1.385 . S
C2421 C2420 1.374 . S
C2422 C2419 1.499 . S
C2422 C2423 1.373 . S
C2422 C2424 1.389 . S
C2423 H2402 0.950 . S
C2423 C2422 1.373 . S
C2423 C2439 1.377 1_545 S
C2424 C2422 1.389 . S
C2424 C2425 1.524 . S
C2424 C2438 1.377 1_545 S
C2425 C2424 1.524 . S
C2425 C2426 1.397 . S
C2425 C2430 1.363 . S
C2426 H2403 0.950 . S
C2426 C2425 1.397 . S
C2426 C2427 1.334 . S
C2427 H2404 0.950 . S
C2427 C2426 1.334 . S
C2427 C2428 1.287 . S
C2428 C2427 1.287 . S
C2428 C2429 1.524 . S
C2428 H2447 0.913 . S
C2429 H2405 0.950 . S
C2429 C2428 1.524 . S
C2429 C2430 1.415 . S
C2430 H2406 0.950 . S
C2430 C2425 1.363 . S
C2430 C2429 1.415 . S
C2431 H2407 0.951 . S
C2431 C2432 1.366 . S
C2431 C2433 1.388 . S
C2432 C2431 1.366 . S
C2432 C2436 1.385 . S
C2433 H2408 0.951 . S
C2433 C2431 1.388 . S
C2433 C2434 1.366 . S
C2434 C2433 1.366 . S
C2434 C2435 1.414 . S
C2434 C2437 1.499 . S
C2435 H2409 0.950 . S
C2435 C2434 1.414 . S
C2435 C2436 1.374 . S
C2436 H2410 0.950 . S
C2436 C2432 1.385 . S
C2436 C2435 1.374 . S
C2437 C2434 1.499 . S
C2437 C2438 1.373 . S
C2437 C2439 1.389 . S
C2438 H2411 0.950 . S
C2438 C2424 1.377 1_565 S
C2438 C2437 1.373 . S
C2439 C2423 1.377 1_565 S
C2439 C2437 1.389 . S
C2439 C2440 1.524 . S
C2440 C2439 1.524 . S
C2440 C2441 1.397 . S
C2440 C2445 1.363 . S
C2441 H2412 0.950 . S
C2441 C2440 1.397 . S
C2441 C2442 1.334 . S
C2442 H2413 0.950 . S
C2442 C2441 1.334 . S
C2442 C2443 1.287 . S
C2443 C2442 1.287 . S
C2443 C2444 1.524 . S
C2443 H2446 0.999 . S
C2444 H2414 0.950 . S
C2444 C2443 1.524 . S
C2444 C2445 1.415 . S
C2445 H2415 0.950 . S
C2445 C2440 1.363 . S
C2445 C2444 1.415 . S
H2446 C2443 0.999 . S
H2447 C2428 0.913 . S
H2448 C2466 0.951 . S
H2449 C2468 0.951 . S
H2450 C2470 0.950 . S
H2451 C2471 0.950 . S
H2452 C2473 0.950 . S
H2453 C2476 0.950 . S
H2454 C2477 0.950 . S
H2455 C2479 0.950 . S
H2456 C2480 0.950 . S
H2457 C2481 0.951 . S
H2458 C2483 0.951 . S
H2459 C2485 0.950 . S
H2460 C2486 0.950 . S
H2461 C2488 0.950 . S
H2462 C2491 0.950 . S
H2463 C2492 0.950 . S
H2464 C2494 0.950 . S
H2465 C2495 0.950 . S
C2466 H2448 0.951 . S
C2466 C2467 1.366 . S
C2466 C2468 1.388 . S
C2467 C2466 1.366 . S
C2467 C2471 1.385 . S
C2468 H2449 0.951 . S
C2468 C2466 1.388 . S
C2468 C2469 1.366 . S
C2469 C2468 1.366 . S
C2469 C2470 1.414 . S
C2469 C2472 1.499 . S
C2470 H2450 0.950 . S
C2470 C2469 1.414 . S
C2470 C2471 1.374 . S
C2471 H2451 0.950 . S
C2471 C2467 1.385 . S
C2471 C2470 1.374 . S
C2472 C2469 1.499 . S
C2472 C2473 1.373 . S
C2472 C2474 1.389 . S
C2473 H2452 0.950 . S
C2473 C2472 1.373 . S
C2473 C2489 1.377 . S
C2474 C2472 1.389 . S
C2474 C2475 1.524 . S
C2474 C2488 1.377 . S
C2475 C2474 1.524 . S
C2475 C2476 1.397 . S
C2475 C2480 1.363 . S
C2476 H2453 0.950 . S
C2476 C2475 1.397 . S
C2476 C2477 1.334 . S
C2477 H2454 0.950 . S
C2477 C2476 1.334 . S
C2477 C2478 1.287 . S
C2478 C2477 1.287 . S
C2478 C2479 1.524 . S
C2478 H2497 0.913 . S
C2479 H2455 0.950 . S
C2479 C2478 1.524 . S
C2479 C2480 1.415 . S
C2480 H2456 0.950 . S
C2480 C2475 1.363 . S
C2480 C2479 1.415 . S
C2481 H2457 0.951 . S
C2481 C2482 1.366 . S
C2481 C2483 1.388 . S
C2482 C2481 1.366 . S
C2482 C2486 1.385 . S
C2483 H2458 0.951 . S
C2483 C2481 1.388 . S
C2483 C2484 1.366 . S
C2484 C2483 1.366 . S
C2484 C2485 1.414 . S
C2484 C2487 1.499 . S
C2485 H2459 0.950 . S
C2485 C2484 1.414 . S
C2485 C2486 1.374 . S
C2486 H2460 0.950 . S
C2486 C2482 1.385 . S
C2486 C2485 1.374 . S
C2487 C2484 1.499 . S
C2487 C2488 1.373 . S
C2487 C2489 1.389 . S
C2488 H2461 0.950 . S
C2488 C2474 1.377 . S
C2488 C2487 1.373 . S
C2489 C2473 1.377 . S
C2489 C2487 1.389 . S
C2489 C2490 1.524 . S
C2490 C2489 1.524 . S
C2490 C2491 1.397 . S
C2490 C2495 1.363 . S
C2491 H2462 0.950 . S
C2491 C2490 1.397 . S
C2491 C2492 1.334 . S
C2492 H2463 0.950 . S
C2492 C2491 1.334 . S
C2492 C2493 1.287 . S
C2493 C2492 1.287 . S
C2493 C2494 1.524 . S
C2493 H2496 0.999 . S
C2494 H2464 0.950 . S
C2494 C2493 1.524 . S
C2494 C2495 1.415 . S
C2495 H2465 0.950 . S
C2495 C2490 1.363 . S
C2495 C2494 1.415 . S
H2496 C2493 0.999 . S
H2497 C2478 0.913 . S
H2498 C2516 0.951 . S
H2499 C2518 0.951 . S
H2500 C2520 0.950 . S
H2501 C2521 0.950 . S
H2502 C2523 0.950 . S
H2503 C2526 0.950 . S
H2504 C2527 0.950 . S
H2505 C2529 0.950 . S
H2506 C2530 0.950 . S
H2507 C2531 0.951 . S
H2508 C2533 0.951 . S
H2509 C2535 0.950 . S
H2510 C2536 0.950 . S
H2511 C2538 0.950 . S
H2512 C2541 0.950 . S
H2513 C2542 0.950 . S
H2514 C2544 0.950 . S
H2515 C2545 0.950 . S
C2516 H2498 0.951 . S
C2516 C2517 1.366 . S
C2516 C2518 1.388 . S
C2517 C2516 1.366 . S
C2517 C2521 1.385 . S
C2518 H2499 0.951 . S
C2518 C2516 1.388 . S
C2518 C2519 1.366 . S
C2519 C2518 1.366 . S
C2519 C2520 1.414 . S
C2519 C2522 1.499 . S
C2520 H2500 0.950 . S
C2520 C2519 1.414 . S
C2520 C2521 1.374 . S
C2521 H2501 0.950 . S
C2521 C2517 1.385 . S
C2521 C2520 1.374 . S
C2522 C2519 1.499 . S
C2522 C2523 1.373 . S
C2522 C2524 1.389 . S
C2523 H2502 0.950 . S
C2523 C2522 1.373 . S
C2523 C2539 1.377 . S
C2524 C2522 1.389 . S
C2524 C2525 1.524 . S
C2524 C2538 1.377 . S
C2525 C2524 1.524 . S
C2525 C2526 1.397 . S
C2525 C2530 1.363 . S
C2526 H2503 0.950 . S
C2526 C2525 1.397 . S
C2526 C2527 1.334 . S
C2527 H2504 0.950 . S
C2527 C2526 1.334 . S
C2527 C2528 1.287 . S
C2528 C2527 1.287 . S
C2528 C2529 1.524 . S
C2528 H2547 0.913 . S
C2529 H2505 0.950 . S
C2529 C2528 1.524 . S
C2529 C2530 1.415 . S
C2530 H2506 0.950 . S
C2530 C2525 1.363 . S
C2530 C2529 1.415 . S
C2531 H2507 0.951 . S
C2531 C2532 1.366 . S
C2531 C2533 1.388 . S
C2532 C2531 1.366 . S
C2532 C2536 1.385 . S
C2533 H2508 0.951 . S
C2533 C2531 1.388 . S
C2533 C2534 1.366 . S
C2534 C2533 1.366 . S
C2534 C2535 1.414 . S
C2534 C2537 1.499 . S
C2535 H2509 0.950 . S
C2535 C2534 1.414 . S
C2535 C2536 1.374 . S
C2536 H2510 0.950 . S
C2536 C2532 1.385 . S
C2536 C2535 1.374 . S
C2537 C2534 1.499 . S
C2537 C2538 1.373 . S
C2537 C2539 1.389 . S
C2538 H2511 0.950 . S
C2538 C2524 1.377 . S
C2538 C2537 1.373 . S
C2539 C2523 1.377 . S
C2539 C2537 1.389 . S
C2539 C2540 1.524 . S
C2540 C2539 1.524 . S
C2540 C2541 1.397 . S
C2540 C2545 1.363 . S
C2541 H2512 0.950 . S
C2541 C2540 1.397 . S
C2541 C2542 1.334 . S
C2542 H2513 0.950 . S
C2542 C2541 1.334 . S
C2542 C2543 1.287 . S
C2543 C2542 1.287 . S
C2543 C2544 1.524 . S
C2543 H2546 0.999 . S
C2544 H2514 0.950 . S
C2544 C2543 1.524 . S
C2544 C2545 1.415 . S
C2545 H2515 0.950 . S
C2545 C2540 1.363 . S
C2545 C2544 1.415 . S
H2546 C2543 0.999 . S
H2547 C2528 0.913 . S
H2548 C2566 0.951 . S
H2549 C2568 0.951 . S
H2550 C2570 0.950 1_556 S
H2551 C2571 0.950 . S
H2552 C2573 0.950 . S
H2553 C2576 0.950 . S
H2554 C2577 0.950 . S
H2555 C2579 0.950 . S
H2556 C2580 0.950 . S
H2557 C2581 0.951 . S
H2558 C2583 0.951 . S
H2559 C2585 0.950 1_554 S
H2560 C2586 0.950 . S
H2561 C2588 0.950 . S
H2562 C2591 0.950 . S
H2563 C2592 0.950 . S
H2564 C2594 0.950 . S
H2565 C2595 0.950 . S
C2566 H2548 0.951 . S
C2566 C2567 1.366 . S
C2566 C2568 1.388 . S
C2567 C2566 1.366 . S
C2567 C2571 1.385 . S
C2568 H2549 0.951 . S
C2568 C2566 1.388 . S
C2568 C2569 1.366 . S
C2569 C2568 1.366 . S
C2569 C2570 1.414 . S
C2569 C2572 1.499 . S
C2570 H2550 0.950 1_554 S
C2570 C2569 1.414 . S
C2570 C2571 1.374 . S
C2571 H2551 0.950 . S
C2571 C2567 1.385 . S
C2571 C2570 1.374 . S
C2572 C2569 1.499 . S
C2572 C2573 1.373 1_554 S
C2572 C2574 1.389 . S
C2573 H2552 0.950 . S
C2573 C2572 1.373 1_556 S
C2573 C2589 1.377 . S
C2574 C2572 1.389 . S
C2574 C2575 1.524 . S
C2574 C2588 1.377 . S
C2575 C2574 1.524 . S
C2575 C2576 1.397 . S
C2575 C2580 1.363 . S
C2576 H2553 0.950 . S
C2576 C2575 1.397 . S
C2576 C2577 1.334 . S
C2577 H2554 0.950 . S
C2577 C2576 1.334 . S
C2577 C2578 1.287 . S
C2578 C2577 1.287 . S
C2578 C2579 1.524 . S
C2578 H2597 0.913 . S
C2579 H2555 0.950 . S
C2579 C2578 1.524 . S
C2579 C2580 1.415 . S
C2580 H2556 0.950 . S
C2580 C2575 1.363 . S
C2580 C2579 1.415 . S
C2581 H2557 0.951 . S
C2581 C2582 1.366 . S
C2581 C2583 1.388 . S
C2582 C2581 1.366 . S
C2582 C2586 1.385 . S
C2583 H2558 0.951 . S
C2583 C2581 1.388 . S
C2583 C2584 1.366 . S
C2584 C2583 1.366 . S
C2584 C2585 1.414 . S
C2584 C2587 1.499 . S
C2585 H2559 0.950 1_556 S
C2585 C2584 1.414 . S
C2585 C2586 1.374 . S
C2586 H2560 0.950 . S
C2586 C2582 1.385 . S
C2586 C2585 1.374 . S
C2587 C2584 1.499 . S
C2587 C2588 1.373 1_556 S
C2587 C2589 1.389 . S
C2588 H2561 0.950 . S
C2588 C2574 1.377 . S
C2588 C2587 1.373 1_554 S
C2589 C2573 1.377 . S
C2589 C2587 1.389 . S
C2589 C2590 1.524 . S
C2590 C2589 1.524 . S
C2590 C2591 1.397 . S
C2590 C2595 1.363 . S
C2591 H2562 0.950 . S
C2591 C2590 1.397 . S
C2591 C2592 1.334 . S
C2592 H2563 0.950 . S
C2592 C2591 1.334 . S
C2592 C2593 1.287 . S
C2593 C2592 1.287 . S
C2593 C2594 1.524 . S
C2593 H2596 0.999 . S
C2594 H2564 0.950 . S
C2594 C2593 1.524 . S
C2594 C2595 1.415 . S
C2595 H2565 0.950 . S
C2595 C2590 1.363 . S
C2595 C2594 1.415 . S
H2596 C2593 0.999 . S
H2597 C2578 0.913 . S
H2598 C2616 0.951 . S
H2599 C2618 0.951 . S
H2600 C2620 0.950 . S
H2601 C2621 0.950 . S
H2602 C2623 0.950 . S
H2603 C2626 0.950 . S
H2604 C2627 0.950 . S
H2605 C2629 0.950 . S
H2606 C2630 0.950 . S
H2607 C2631 0.951 . S
H2608 C2633 0.951 . S
H2609 C2635 0.950 . S
H2610 C2636 0.950 . S
H2611 C2638 0.950 . S
H2612 C2641 0.950 . S
H2613 C2642 0.950 . S
H2614 C2644 0.950 . S
H2615 C2645 0.950 . S
C2616 H2598 0.951 . S
C2616 C2617 1.366 . S
C2616 C2618 1.388 . S
C2617 C2616 1.366 . S
C2617 C2621 1.385 . S
C2618 H2599 0.951 . S
C2618 C2616 1.388 . S
C2618 C2619 1.366 . S
C2619 C2618 1.366 . S
C2619 C2620 1.414 . S
C2619 C2622 1.499 . S
C2620 H2600 0.950 . S
C2620 C2619 1.414 . S
C2620 C2621 1.374 . S
C2621 H2601 0.950 . S
C2621 C2617 1.385 . S
C2621 C2620 1.374 . S
C2622 C2619 1.499 . S
C2622 C2623 1.373 . S
C2622 C2624 1.389 . S
C2623 H2602 0.950 . S
C2623 C2622 1.373 . S
C2623 C2639 1.377 . S
C2624 C2622 1.389 . S
C2624 C2625 1.524 . S
C2624 C2638 1.377 . S
C2625 C2624 1.524 . S
C2625 C2626 1.397 . S
C2625 C2630 1.363 . S
C2626 H2603 0.950 . S
C2626 C2625 1.397 . S
C2626 C2627 1.334 . S
C2627 H2604 0.950 . S
C2627 C2626 1.334 . S
C2627 C2628 1.287 . S
C2628 C2627 1.287 . S
C2628 C2629 1.524 . S
C2628 H2647 0.913 . S
C2629 H2605 0.950 . S
C2629 C2628 1.524 . S
C2629 C2630 1.415 . S
C2630 H2606 0.950 . S
C2630 C2625 1.363 . S
C2630 C2629 1.415 . S
C2631 H2607 0.951 . S
C2631 C2632 1.366 . S
C2631 C2633 1.388 . S
C2632 C2631 1.366 . S
C2632 C2636 1.385 . S
C2633 H2608 0.951 . S
C2633 C2631 1.388 . S
C2633 C2634 1.366 . S
C2634 C2633 1.366 . S
C2634 C2635 1.414 . S
C2634 C2637 1.499 . S
C2635 H2609 0.950 . S
C2635 C2634 1.414 . S
C2635 C2636 1.374 . S
C2636 H2610 0.950 . S
C2636 C2632 1.385 . S
C2636 C2635 1.374 . S
C2637 C2634 1.499 . S
C2637 C2638 1.373 . S
C2637 C2639 1.389 . S
C2638 H2611 0.950 . S
C2638 C2624 1.377 . S
C2638 C2637 1.373 . S
C2639 C2623 1.377 . S
C2639 C2637 1.389 . S
C2639 C2640 1.524 . S
C2640 C2639 1.524 . S
C2640 C2641 1.397 . S
C2640 C2645 1.363 . S
C2641 H2612 0.950 . S
C2641 C2640 1.397 . S
C2641 C2642 1.334 . S
C2642 H2613 0.950 . S
C2642 C2641 1.334 . S
C2642 C2643 1.287 . S
C2643 C2642 1.287 . S
C2643 C2644 1.524 . S
C2643 H2646 0.999 . S
C2644 H2614 0.950 . S
C2644 C2643 1.524 . S
C2644 C2645 1.415 . S
C2645 H2615 0.950 . S
C2645 C2640 1.363 . S
C2645 C2644 1.415 . S
H2646 C2643 0.999 . S
H2647 C2628 0.913 . S
H2648 C2666 0.951 . S
H2649 C2668 0.951 . S
H2650 C2670 0.950 . S
H2651 C2671 0.950 . S
H2652 C2673 0.950 . S
H2653 C2676 0.950 . S
H2654 C2677 0.950 . S
H2655 C2679 0.950 . S
H2656 C2680 0.950 . S
H2657 C2681 0.951 . S
H2658 C2683 0.951 . S
H2659 C2685 0.950 . S
H2660 C2686 0.950 . S
H2661 C2688 0.950 . S
H2662 C2691 0.950 . S
H2663 C2692 0.950 . S
H2664 C2694 0.950 . S
H2665 C2695 0.950 . S
C2666 H2648 0.951 . S
C2666 C2667 1.366 . S
C2666 C2668 1.388 . S
C2667 C2666 1.366 . S
C2667 C2671 1.385 . S
C2668 H2649 0.951 . S
C2668 C2666 1.388 . S
C2668 C2669 1.366 . S
C2669 C2668 1.366 . S
C2669 C2670 1.414 . S
C2669 C2672 1.499 . S
C2670 H2650 0.950 . S
C2670 C2669 1.414 . S
C2670 C2671 1.374 . S
C2671 H2651 0.950 . S
C2671 C2667 1.385 . S
C2671 C2670 1.374 . S
C2672 C2669 1.499 . S
C2672 C2673 1.373 . S
C2672 C2674 1.389 . S
C2673 H2652 0.950 . S
C2673 C2672 1.373 . S
C2673 C2689 1.377 . S
C2674 C2672 1.389 . S
C2674 C2675 1.524 . S
C2674 C2688 1.377 . S
C2675 C2674 1.524 . S
C2675 C2676 1.397 . S
C2675 C2680 1.363 . S
C2676 H2653 0.950 . S
C2676 C2675 1.397 . S
C2676 C2677 1.334 . S
C2677 H2654 0.950 . S
C2677 C2676 1.334 . S
C2677 C2678 1.287 . S
C2678 C2677 1.287 . S
C2678 C2679 1.524 . S
C2678 H2697 0.913 . S
C2679 H2655 0.950 . S
C2679 C2678 1.524 . S
C2679 C2680 1.415 . S
C2680 H2656 0.950 . S
C2680 C2675 1.363 . S
C2680 C2679 1.415 . S
C2681 H2657 0.951 . S
C2681 C2682 1.366 . S
C2681 C2683 1.388 . S
C2682 C2681 1.366 . S
C2682 C2686 1.385 . S
C2683 H2658 0.951 . S
C2683 C2681 1.388 . S
C2683 C2684 1.366 . S
C2684 C2683 1.366 . S
C2684 C2685 1.414 . S
C2684 C2687 1.499 . S
C2685 H2659 0.950 . S
C2685 C2684 1.414 . S
C2685 C2686 1.374 . S
C2686 H2660 0.950 . S
C2686 C2682 1.385 . S
C2686 C2685 1.374 . S
C2687 C2684 1.499 . S
C2687 C2688 1.373 . S
C2687 C2689 1.389 . S
C2688 H2661 0.950 . S
C2688 C2674 1.377 . S
C2688 C2687 1.373 . S
C2689 C2673 1.377 . S
C2689 C2687 1.389 . S
C2689 C2690 1.524 . S
C2690 C2689 1.524 . S
C2690 C2691 1.397 . S
C2690 C2695 1.363 . S
C2691 H2662 0.950 . S
C2691 C2690 1.397 . S
C2691 C2692 1.334 . S
C2692 H2663 0.950 . S
C2692 C2691 1.334 . S
C2692 C2693 1.287 . S
C2693 C2692 1.287 . S
C2693 C2694 1.524 . S
C2693 H2696 0.999 . S
C2694 H2664 0.950 . S
C2694 C2693 1.524 . S
C2694 C2695 1.415 . S
C2695 H2665 0.950 . S
C2695 C2690 1.363 . S
C2695 C2694 1.415 . S
H2696 C2693 0.999 . S
H2697 C2678 0.913 . S
H2698 C2716 0.951 . S
H2699 C2718 0.951 . S
H2700 C2720 0.950 . S
H2701 C2721 0.950 . S
H2702 C2723 0.950 . S
H2703 C2726 0.950 . S
H2704 C2727 0.950 . S
H2705 C2729 0.950 . S
H2706 C2730 0.950 . S
H2707 C2731 0.951 . S
H2708 C2733 0.951 . S
H2709 C2735 0.950 . S
H2710 C2736 0.950 . S
H2711 C2738 0.950 . S
H2712 C2741 0.950 . S
H2713 C2742 0.950 . S
H2714 C2744 0.950 . S
H2715 C2745 0.950 . S
C2716 H2698 0.951 . S
C2716 C2717 1.366 . S
C2716 C2718 1.388 . S
C2717 C2716 1.366 . S
C2717 C2721 1.385 . S
C2718 H2699 0.951 . S
C2718 C2716 1.388 . S
C2718 C2719 1.366 . S
C2719 C2718 1.366 . S
C2719 C2720 1.414 . S
C2719 C2722 1.499 . S
C2720 H2700 0.950 . S
C2720 C2719 1.414 . S
C2720 C2721 1.374 . S
C2721 H2701 0.950 . S
C2721 C2717 1.385 . S
C2721 C2720 1.374 . S
C2722 C2719 1.499 . S
C2722 C2723 1.373 . S
C2722 C2724 1.389 . S
C2723 H2702 0.950 . S
C2723 C2722 1.373 . S
C2723 C2739 1.377 . S
C2724 C2722 1.389 . S
C2724 C2725 1.524 . S
C2724 C2738 1.377 . S
C2725 C2724 1.524 . S
C2725 C2726 1.397 . S
C2725 C2730 1.363 . S
C2726 H2703 0.950 . S
C2726 C2725 1.397 . S
C2726 C2727 1.334 . S
C2727 H2704 0.950 . S
C2727 C2726 1.334 . S
C2727 C2728 1.287 . S
C2728 C2727 1.287 . S
C2728 C2729 1.524 . S
C2728 H2747 0.913 . S
C2729 H2705 0.950 . S
C2729 C2728 1.524 . S
C2729 C2730 1.415 . S
C2730 H2706 0.950 . S
C2730 C2725 1.363 . S
C2730 C2729 1.415 . S
C2731 H2707 0.951 . S
C2731 C2732 1.366 . S
C2731 C2733 1.388 . S
C2732 C2731 1.366 . S
C2732 C2736 1.385 . S
C2733 H2708 0.951 . S
C2733 C2731 1.388 . S
C2733 C2734 1.366 . S
C2734 C2733 1.366 . S
C2734 C2735 1.414 . S
C2734 C2737 1.499 . S
C2735 H2709 0.950 . S
C2735 C2734 1.414 . S
C2735 C2736 1.374 . S
C2736 H2710 0.950 . S
C2736 C2732 1.385 . S
C2736 C2735 1.374 . S
C2737 C2734 1.499 . S
C2737 C2738 1.373 . S
C2737 C2739 1.389 . S
C2738 H2711 0.950 . S
C2738 C2724 1.377 . S
C2738 C2737 1.373 . S
C2739 C2723 1.377 . S
C2739 C2737 1.389 . S
C2739 C2740 1.524 . S
C2740 C2739 1.524 . S
C2740 C2741 1.397 . S
C2740 C2745 1.363 . S
C2741 H2712 0.950 . S
C2741 C2740 1.397 . S
C2741 C2742 1.334 . S
C2742 H2713 0.950 . S
C2742 C2741 1.334 . S
C2742 C2743 1.287 . S
C2743 C2742 1.287 . S
C2743 C2744 1.524 . S
C2743 H2746 0.999 . S
C2744 H2714 0.950 . S
C2744 C2743 1.524 . S
C2744 C2745 1.415 . S
C2745 H2715 0.950 . S
C2745 C2740 1.363 . S
C2745 C2744 1.415 . S
H2746 C2743 0.999 . S
H2747 C2728 0.913 . S
H2748 C2766 0.951 . S
H2749 C2768 0.951 . S
H2750 C2770 0.877 1_554 S
H2751 C2771 0.950 . S
H2752 C2773 0.950 . S
H2753 C2776 0.950 1_554 S
H2754 C2777 0.950 1_554 S
H2755 C2779 0.950 . S
H2756 C2780 0.950 . S
H2757 C2781 0.951 . S
H2758 C2783 0.951 . S
H2759 C2785 0.877 1_556 S
H2760 C2786 0.950 . S
H2761 C2788 0.950 . S
H2762 C2791 0.950 1_556 S
H2763 C2792 0.950 1_556 S
H2764 C2794 0.950 . S
H2765 C2795 0.950 . S
C2766 H2748 0.951 . S
C2766 C2767 1.366 . S
C2766 C2768 1.388 . S
C2767 C2766 1.366 . S
C2767 C2771 1.385 . S
C2768 H2749 0.951 . S
C2768 C2766 1.388 . S
C2768 C2769 1.366 . S
C2769 C2768 1.366 . S
C2769 C2770 1.414 . S
C2769 C2772 1.499 . S
C2770 H2750 0.877 1_556 S
C2770 C2769 1.414 . S
C2770 C2771 1.374 . S
C2771 H2751 0.950 . S
C2771 C2767 1.385 . S
C2771 C2770 1.374 . S
C2772 C2769 1.499 . S
C2772 C2773 1.373 . S
C2772 C2774 1.389 . S
C2773 H2752 0.950 . S
C2773 C2772 1.373 . S
C2773 C2789 1.377 1_556 S
C2774 C2772 1.389 . S
C2774 C2775 1.524 . S
C2774 C2788 1.377 1_556 S
C2775 C2774 1.524 . S
C2775 C2776 1.396 . S
C2775 C2780 1.363 . S
C2776 H2753 0.950 1_556 S
C2776 C2775 1.396 . S
C2776 C2777 1.334 . S
C2777 H2754 0.950 1_556 S
C2777 C2776 1.334 . S
C2777 C2778 1.287 . S
C2778 C2777 1.287 . S
C2778 C2779 1.524 . S
C2778 H2797 0.913 . S
C2779 H2755 0.950 . S
C2779 C2778 1.524 . S
C2779 C2780 1.415 . S
C2780 H2756 0.950 . S
C2780 C2775 1.363 . S
C2780 C2779 1.415 . S
C2781 H2757 0.951 . S
C2781 C2782 1.366 . S
C2781 C2783 1.388 . S
C2782 C2781 1.366 . S
C2782 C2786 1.385 . S
C2783 H2758 0.951 . S
C2783 C2781 1.388 . S
C2783 C2784 1.366 . S
C2784 C2783 1.366 . S
C2784 C2785 1.414 . S
C2784 C2787 1.499 . S
C2785 H2759 0.877 1_554 S
C2785 C2784 1.414 . S
C2785 C2786 1.374 . S
C2786 H2760 0.950 . S
C2786 C2782 1.385 . S
C2786 C2785 1.374 . S
C2787 C2784 1.499 . S
C2787 C2788 1.373 . S
C2787 C2789 1.389 . S
C2788 H2761 0.950 . S
C2788 C2774 1.377 1_554 S
C2788 C2787 1.373 . S
C2789 C2773 1.377 1_554 S
C2789 C2787 1.389 . S
C2789 C2790 1.524 . S
C2790 C2789 1.524 . S
C2790 C2791 1.396 . S
C2790 C2795 1.363 . S
C2791 H2762 0.950 1_554 S
C2791 C2790 1.396 . S
C2791 C2792 1.334 . S
C2792 H2763 0.950 1_554 S
C2792 C2791 1.334 . S
C2792 C2793 1.287 . S
C2793 C2792 1.287 . S
C2793 C2794 1.524 . S
C2793 H2796 0.999 . S
C2794 H2764 0.950 . S
C2794 C2793 1.524 . S
C2794 C2795 1.415 . S
C2795 H2765 0.950 . S
C2795 C2790 1.363 . S
C2795 C2794 1.415 . S
H2796 C2793 0.999 . S
H2797 C2778 0.913 . S
H2798 C2816 0.951 . S
H2799 C2818 0.951 . S
H2800 C2820 0.950 . S
H2801 C2821 0.950 . S
H2802 C2823 0.950 . S
H2803 C2826 0.950 . S
H2804 C2827 0.950 . S
H2805 C2829 0.950 . S
H2806 C2830 0.950 . S
H2807 C2831 0.951 . S
H2808 C2833 0.951 . S
H2809 C2835 0.950 . S
H2810 C2836 0.950 . S
H2811 C2838 0.950 . S
H2812 C2841 0.950 . S
H2813 C2842 0.950 . S
H2814 C2844 0.950 . S
H2815 C2845 0.950 . S
C2816 H2798 0.951 . S
C2816 C2817 1.366 . S
C2816 C2818 1.388 . S
C2817 C2816 1.366 . S
C2817 C2821 1.385 . S
C2818 H2799 0.951 . S
C2818 C2816 1.388 . S
C2818 C2819 1.366 . S
C2819 C2818 1.366 . S
C2819 C2820 1.414 . S
C2819 C2822 1.499 . S
C2820 H2800 0.950 . S
C2820 C2819 1.414 . S
C2820 C2821 1.374 . S
C2821 H2801 0.950 . S
C2821 C2817 1.385 . S
C2821 C2820 1.374 . S
C2822 C2819 1.499 . S
C2822 C2823 1.373 . S
C2822 C2824 1.389 . S
C2823 H2802 0.950 . S
C2823 C2822 1.373 . S
C2823 C2839 1.377 . S
C2824 C2822 1.389 . S
C2824 C2825 1.524 . S
C2824 C2838 1.377 . S
C2825 C2824 1.524 . S
C2825 C2826 1.397 . S
C2825 C2830 1.363 . S
C2826 H2803 0.950 . S
C2826 C2825 1.397 . S
C2826 C2827 1.334 . S
C2827 H2804 0.950 . S
C2827 C2826 1.334 . S
C2827 C2828 1.287 . S
C2828 C2827 1.287 . S
C2828 C2829 1.524 . S
C2828 H2847 0.913 . S
C2829 H2805 0.950 . S
C2829 C2828 1.524 . S
C2829 C2830 1.415 . S
C2830 H2806 0.950 . S
C2830 C2825 1.363 . S
C2830 C2829 1.415 . S
C2831 H2807 0.951 . S
C2831 C2832 1.366 . S
C2831 C2833 1.388 . S
C2832 C2831 1.366 . S
C2832 C2836 1.385 . S
C2833 H2808 0.951 . S
C2833 C2831 1.388 . S
C2833 C2834 1.366 . S
C2834 C2833 1.366 . S
C2834 C2835 1.414 . S
C2834 C2837 1.499 . S
C2835 H2809 0.950 . S
C2835 C2834 1.414 . S
C2835 C2836 1.374 . S
C2836 H2810 0.950 . S
C2836 C2832 1.385 . S
C2836 C2835 1.374 . S
C2837 C2834 1.499 . S
C2837 C2838 1.373 . S
C2837 C2839 1.389 . S
C2838 H2811 0.950 . S
C2838 C2824 1.377 . S
C2838 C2837 1.373 . S
C2839 C2823 1.377 . S
C2839 C2837 1.389 . S
C2839 C2840 1.524 . S
C2840 C2839 1.524 . S
C2840 C2841 1.397 . S
C2840 C2845 1.363 . S
C2841 H2812 0.950 . S
C2841 C2840 1.397 . S
C2841 C2842 1.334 . S
C2842 H2813 0.950 . S
C2842 C2841 1.334 . S
C2842 C2843 1.287 . S
C2843 C2842 1.287 . S
C2843 C2844 1.524 . S
C2843 H2846 0.999 . S
C2844 H2814 0.950 . S
C2844 C2843 1.524 . S
C2844 C2845 1.415 . S
C2845 H2815 0.950 . S
C2845 C2840 1.363 . S
C2845 C2844 1.415 . S
H2846 C2843 0.999 . S
H2847 C2828 0.913 . S
H2848 C2866 0.951 . S
H2849 C2868 0.951 . S
H2850 C2870 0.950 . S
H2851 C2871 0.950 . S
H2852 C2873 0.950 . S
H2853 C2876 0.950 . S
H2854 C2877 0.950 . S
H2855 C2879 0.950 . S
H2856 C2880 0.950 . S
H2857 C2881 0.951 . S
H2858 C2883 0.951 . S
H2859 C2885 0.950 . S
H2860 C2886 0.950 . S
H2861 C2888 0.950 . S
H2862 C2891 0.950 . S
H2863 C2892 0.950 . S
H2864 C2894 0.950 . S
H2865 C2895 0.950 . S
C2866 H2848 0.951 . S
C2866 C2867 1.366 . S
C2866 C2868 1.388 . S
C2867 C2866 1.366 . S
C2867 C2871 1.385 . S
C2868 H2849 0.951 . S
C2868 C2866 1.388 . S
C2868 C2869 1.366 . S
C2869 C2868 1.366 . S
C2869 C2870 1.414 . S
C2869 C2872 1.499 . S
C2870 H2850 0.950 . S
C2870 C2869 1.414 . S
C2870 C2871 1.374 . S
C2871 H2851 0.950 . S
C2871 C2867 1.385 . S
C2871 C2870 1.374 . S
C2872 C2869 1.499 . S
C2872 C2873 1.373 . S
C2872 C2874 1.389 . S
C2873 H2852 0.950 . S
C2873 C2872 1.373 . S
C2873 C2889 1.377 . S
C2874 C2872 1.389 . S
C2874 C2875 1.524 . S
C2874 C2888 1.377 . S
C2875 C2874 1.524 . S
C2875 C2876 1.397 . S
C2875 C2880 1.363 . S
C2876 H2853 0.950 . S
C2876 C2875 1.397 . S
C2876 C2877 1.334 . S
C2877 H2854 0.950 . S
C2877 C2876 1.334 . S
C2877 C2878 1.287 . S
C2878 C2877 1.287 . S
C2878 C2879 1.524 . S
C2878 H2897 0.913 . S
C2879 H2855 0.950 . S
C2879 C2878 1.524 . S
C2879 C2880 1.415 . S
C2880 H2856 0.950 . S
C2880 C2875 1.363 . S
C2880 C2879 1.415 . S
C2881 H2857 0.951 . S
C2881 C2882 1.366 . S
C2881 C2883 1.388 . S
C2882 C2881 1.366 . S
C2882 C2886 1.385 . S
C2883 H2858 0.951 . S
C2883 C2881 1.388 . S
C2883 C2884 1.366 . S
C2884 C2883 1.366 . S
C2884 C2885 1.414 . S
C2884 C2887 1.499 . S
C2885 H2859 0.950 . S
C2885 C2884 1.414 . S
C2885 C2886 1.374 . S
C2886 H2860 0.950 . S
C2886 C2882 1.385 . S
C2886 C2885 1.374 . S
C2887 C2884 1.499 . S
C2887 C2888 1.373 . S
C2887 C2889 1.389 . S
C2888 H2861 0.950 . S
C2888 C2874 1.377 . S
C2888 C2887 1.373 . S
C2889 C2873 1.377 . S
C2889 C2887 1.389 . S
C2889 C2890 1.524 . S
C2890 C2889 1.524 . S
C2890 C2891 1.397 . S
C2890 C2895 1.363 . S
C2891 H2862 0.950 . S
C2891 C2890 1.397 . S
C2891 C2892 1.334 . S
C2892 H2863 0.950 . S
C2892 C2891 1.334 . S
C2892 C2893 1.287 . S
C2893 C2892 1.287 . S
C2893 C2894 1.524 . S
C2893 H2896 0.999 . S
C2894 H2864 0.950 . S
C2894 C2893 1.524 . S
C2894 C2895 1.415 . S
C2895 H2865 0.950 . S
C2895 C2890 1.363 . S
C2895 C2894 1.415 . S
H2896 C2893 0.999 . S
H2897 C2878 0.913 . S
H2898 C2916 0.951 . S
H2899 C2918 0.951 . S
H2900 C2920 0.950 . S
H2901 C2921 0.950 . S
H2902 C2923 0.950 . S
H2903 C2926 0.950 . S
H2904 C2927 0.950 . S
H2905 C2929 0.950 . S
H2906 C2930 0.950 . S
H2907 C2931 0.951 . S
H2908 C2933 0.951 . S
H2909 C2935 0.950 . S
H2910 C2936 0.950 . S
H2911 C2938 0.950 . S
H2912 C2941 0.950 . S
H2913 C2942 0.950 . S
H2914 C2944 0.950 . S
H2915 C2945 0.950 . S
C2916 H2898 0.951 . S
C2916 C2917 1.366 . S
C2916 C2918 1.388 . S
C2917 C2916 1.366 . S
C2917 C2921 1.385 . S
C2918 H2899 0.951 . S
C2918 C2916 1.388 . S
C2918 C2919 1.366 . S
C2919 C2918 1.366 . S
C2919 C2920 1.414 . S
C2919 C2922 1.499 . S
C2920 H2900 0.950 . S
C2920 C2919 1.414 . S
C2920 C2921 1.374 . S
C2921 H2901 0.950 . S
C2921 C2917 1.385 . S
C2921 C2920 1.374 . S
C2922 C2919 1.499 . S
C2922 C2923 1.373 . S
C2922 C2924 1.389 . S
C2923 H2902 0.950 . S
C2923 C2922 1.373 . S
C2923 C2939 1.377 . S
C2924 C2922 1.389 . S
C2924 C2925 1.524 . S
C2924 C2938 1.377 . S
C2925 C2924 1.524 . S
C2925 C2926 1.397 . S
C2925 C2930 1.363 . S
C2926 H2903 0.950 . S
C2926 C2925 1.397 . S
C2926 C2927 1.334 . S
C2927 H2904 0.950 . S
C2927 C2926 1.334 . S
C2927 C2928 1.287 . S
C2928 C2927 1.287 . S
C2928 C2929 1.524 . S
C2928 H2947 0.913 . S
C2929 H2905 0.950 . S
C2929 C2928 1.524 . S
C2929 C2930 1.415 . S
C2930 H2906 0.950 . S
C2930 C2925 1.363 . S
C2930 C2929 1.415 . S
C2931 H2907 0.951 . S
C2931 C2932 1.366 . S
C2931 C2933 1.388 . S
C2932 C2931 1.366 . S
C2932 C2936 1.385 . S
C2933 H2908 0.951 . S
C2933 C2931 1.388 . S
C2933 C2934 1.366 . S
C2934 C2933 1.366 . S
C2934 C2935 1.414 . S
C2934 C2937 1.499 . S
C2935 H2909 0.950 . S
C2935 C2934 1.414 . S
C2935 C2936 1.374 . S
C2936 H2910 0.950 . S
C2936 C2932 1.385 . S
C2936 C2935 1.374 . S
C2937 C2934 1.499 . S
C2937 C2938 1.373 . S
C2937 C2939 1.389 . S
C2938 H2911 0.950 . S
C2938 C2924 1.377 . S
C2938 C2937 1.373 . S
C2939 C2923 1.377 . S
C2939 C2937 1.389 . S
C2939 C2940 1.524 . S
C2940 C2939 1.524 . S
C2940 C2941 1.397 . S
C2940 C2945 1.363 . S
C2941 H2912 0.950 . S
C2941 C2940 1.397 . S
C2941 C2942 1.334 . S
C2942 H2913 0.950 . S
C2942 C2941 1.334 . S
C2942 C2943 1.287 . S
C2943 C2942 1.287 . S
C2943 C2944 1.524 . S
C2943 H2946 0.999 . S
C2944 H2914 0.950 . S
C2944 C2943 1.524 . S
C2944 C2945 1.415 . S
C2945 H2915 0.950 . S
C2945 C2940 1.363 . S
C2945 C2944 1.415 . S
H2946 C2943 0.999 . S
H2947 C2928 0.913 . S
H2948 C2966 0.951 . S
H2949 C2968 0.951 . S
H2950 C2970 0.950 . S
H2951 C2971 0.950 . S
H2952 C2973 0.950 . S
H2953 C2976 0.950 . S
H2954 C2977 0.950 . S
H2955 C2979 0.950 . S
H2956 C2980 0.950 . S
H2957 C2981 0.951 . S
H2958 C2983 0.951 . S
H2959 C2985 0.950 . S
H2960 C2986 0.950 . S
H2961 C2988 0.950 . S
H2962 C2991 0.950 . S
H2963 C2992 0.950 . S
H2964 C2994 0.950 . S
H2965 C2995 0.950 . S
C2966 H2948 0.951 . S
C2966 C2967 1.366 . S
C2966 C2968 1.388 . S
C2967 C2966 1.366 . S
C2967 C2971 1.385 . S
C2968 H2949 0.951 . S
C2968 C2966 1.388 . S
C2968 C2969 1.366 . S
C2969 C2968 1.366 . S
C2969 C2970 1.414 . S
C2969 C2972 1.499 . S
C2970 H2950 0.950 . S
C2970 C2969 1.414 . S
C2970 C2971 1.374 . S
C2971 H2951 0.950 . S
C2971 C2967 1.385 . S
C2971 C2970 1.374 . S
C2972 C2969 1.499 . S
C2972 C2973 1.373 . S
C2972 C2974 1.389 . S
C2973 H2952 0.950 . S
C2973 C2972 1.373 . S
C2973 C2989 1.377 . S
C2974 C2972 1.389 . S
C2974 C2975 1.524 . S
C2974 C2988 1.377 . S
C2975 C2974 1.524 . S
C2975 C2976 1.397 . S
C2975 C2980 1.363 . S
C2976 H2953 0.950 . S
C2976 C2975 1.397 . S
C2976 C2977 1.334 . S
C2977 H2954 0.950 . S
C2977 C2976 1.334 . S
C2977 C2978 1.287 . S
C2978 C2977 1.287 . S
C2978 C2979 1.524 . S
C2978 H2997 0.913 . S
C2979 H2955 0.950 . S
C2979 C2978 1.524 . S
C2979 C2980 1.415 . S
C2980 H2956 0.950 . S
C2980 C2975 1.363 . S
C2980 C2979 1.415 . S
C2981 H2957 0.951 . S
C2981 C2982 1.366 . S
C2981 C2983 1.388 . S
C2982 C2981 1.366 . S
C2982 C2986 1.385 . S
C2983 H2958 0.951 . S
C2983 C2981 1.388 . S
C2983 C2984 1.366 . S
C2984 C2983 1.366 . S
C2984 C2985 1.414 . S
C2984 C2987 1.499 . S
C2985 H2959 0.950 . S
C2985 C2984 1.414 . S
C2985 C2986 1.374 . S
C2986 H2960 0.950 . S
C2986 C2982 1.385 . S
C2986 C2985 1.374 . S
C2987 C2984 1.499 . S
C2987 C2988 1.373 . S
C2987 C2989 1.389 . S
C2988 H2961 0.950 . S
C2988 C2974 1.377 . S
C2988 C2987 1.373 . S
C2989 C2973 1.377 . S
C2989 C2987 1.389 . S
C2989 C2990 1.524 . S
C2990 C2989 1.524 . S
C2990 C2991 1.397 . S
C2990 C2995 1.363 . S
C2991 H2962 0.950 . S
C2991 C2990 1.397 . S
C2991 C2992 1.334 . S
C2992 H2963 0.950 . S
C2992 C2991 1.334 . S
C2992 C2993 1.287 . S
C2993 C2992 1.287 . S
C2993 C2994 1.524 . S
C2993 H2996 0.999 . S
C2994 H2964 0.950 . S
C2994 C2993 1.524 . S
C2994 C2995 1.415 . S
C2995 H2965 0.950 . S
C2995 C2990 1.363 . S
C2995 C2994 1.415 . S
H2996 C2993 0.999 . S
H2997 C2978 0.913 . S
H2998 C3016 0.951 . S
H2999 C3018 0.951 . S
H3000 C3020 0.950 . S
H3001 C3021 0.950 . S
H3002 C3023 0.950 . S
H3003 C3026 0.950 . S
H3004 C3027 0.950 . S
H3005 C3029 0.950 . S
H3006 C3030 0.950 . S
H3007 C3031 0.951 . S
H3008 C3033 0.951 . S
H3009 C3035 0.950 . S
H3010 C3036 0.950 . S
H3011 C3038 0.950 . S
H3012 C3041 0.950 . S
H3013 C3042 0.950 . S
H3014 C3044 0.950 . S
H3015 C3045 0.950 . S
C3016 H2998 0.951 . S
C3016 C3017 1.366 . S
C3016 C3018 1.388 . S
C3017 C3016 1.366 . S
C3017 C3021 1.385 . S
C3018 H2999 0.951 . S
C3018 C3016 1.388 . S
C3018 C3019 1.366 . S
C3019 C3018 1.366 . S
C3019 C3020 1.414 . S
C3019 C3022 1.499 . S
C3020 H3000 0.950 . S
C3020 C3019 1.414 . S
C3020 C3021 1.374 . S
C3021 H3001 0.950 . S
C3021 C3017 1.385 . S
C3021 C3020 1.374 . S
C3022 C3019 1.499 . S
C3022 C3023 1.373 . S
C3022 C3024 1.389 . S
C3023 H3002 0.950 . S
C3023 C3022 1.373 . S
C3023 C3039 1.377 . S
C3024 C3022 1.389 . S
C3024 C3025 1.524 . S
C3024 C3038 1.377 . S
C3025 C3024 1.524 . S
C3025 C3026 1.397 . S
C3025 C3030 1.363 . S
C3026 H3003 0.950 . S
C3026 C3025 1.397 . S
C3026 C3027 1.334 . S
C3027 H3004 0.950 . S
C3027 C3026 1.334 . S
C3027 C3028 1.287 . S
C3028 C3027 1.287 . S
C3028 C3029 1.524 . S
C3028 H3047 0.913 . S
C3029 H3005 0.950 . S
C3029 C3028 1.524 . S
C3029 C3030 1.415 . S
C3030 H3006 0.950 . S
C3030 C3025 1.363 . S
C3030 C3029 1.415 . S
C3031 H3007 0.951 . S
C3031 C3032 1.366 . S
C3031 C3033 1.388 . S
C3032 C3031 1.366 . S
C3032 C3036 1.385 . S
C3033 H3008 0.951 . S
C3033 C3031 1.388 . S
C3033 C3034 1.366 . S
C3034 C3033 1.366 . S
C3034 C3035 1.414 . S
C3034 C3037 1.499 . S
C3035 H3009 0.950 . S
C3035 C3034 1.414 . S
C3035 C3036 1.374 . S
C3036 H3010 0.950 . S
C3036 C3032 1.385 . S
C3036 C3035 1.374 . S
C3037 C3034 1.499 . S
C3037 C3038 1.373 . S
C3037 C3039 1.389 . S
C3038 H3011 0.950 . S
C3038 C3024 1.377 . S
C3038 C3037 1.373 . S
C3039 C3023 1.377 . S
C3039 C3037 1.389 . S
C3039 C3040 1.524 . S
C3040 C3039 1.524 . S
C3040 C3041 1.397 . S
C3040 C3045 1.363 . S
C3041 H3012 0.950 . S
C3041 C3040 1.397 . S
C3041 C3042 1.334 . S
C3042 H3013 0.950 . S
C3042 C3041 1.334 . S
C3042 C3043 1.287 . S
C3043 C3042 1.287 . S
C3043 C3044 1.524 . S
C3043 H3046 0.999 . S
C3044 H3014 0.950 . S
C3044 C3043 1.524 . S
C3044 C3045 1.415 . S
C3045 H3015 0.950 . S
C3045 C3040 1.363 . S
C3045 C3044 1.415 . S
H3046 C3043 0.999 . S
H3047 C3028 0.913 . S
H3048 C3066 0.951 . S
H3049 C3068 0.951 . S
H3050 C3070 0.950 . S
H3051 C3071 0.950 . S
H3052 C3073 0.950 . S
H3053 C3076 0.950 . S
H3054 C3077 0.950 . S
H3055 C3079 0.950 . S
H3056 C3080 0.950 . S
H3057 C3081 0.951 . S
H3058 C3083 0.951 . S
H3059 C3085 0.950 . S
H3060 C3086 0.950 . S
H3061 C3088 0.950 . S
H3062 C3091 0.950 . S
H3063 C3092 0.950 . S
H3064 C3094 0.950 . S
H3065 C3095 0.950 . S
C3066 H3048 0.951 . S
C3066 C3067 1.366 . S
C3066 C3068 1.388 . S
C3067 C3066 1.366 . S
C3067 C3071 1.385 . S
C3068 H3049 0.951 . S
C3068 C3066 1.388 . S
C3068 C3069 1.366 . S
C3069 C3068 1.366 . S
C3069 C3070 1.414 . S
C3069 C3072 1.499 . S
C3070 H3050 0.950 . S
C3070 C3069 1.414 . S
C3070 C3071 1.374 . S
C3071 H3051 0.950 . S
C3071 C3067 1.385 . S
C3071 C3070 1.374 . S
C3072 C3069 1.499 . S
C3072 C3073 1.373 . S
C3072 C3074 1.389 . S
C3073 H3052 0.950 . S
C3073 C3072 1.373 . S
C3073 C3089 1.377 . S
C3074 C3072 1.389 . S
C3074 C3075 1.524 . S
C3074 C3088 1.377 . S
C3075 C3074 1.524 . S
C3075 C3076 1.397 . S
C3075 C3080 1.363 . S
C3076 H3053 0.950 . S
C3076 C3075 1.397 . S
C3076 C3077 1.334 . S
C3077 H3054 0.950 . S
C3077 C3076 1.334 . S
C3077 C3078 1.287 . S
C3078 C3077 1.287 . S
C3078 C3079 1.524 . S
C3078 H3097 0.913 . S
C3079 H3055 0.950 . S
C3079 C3078 1.524 . S
C3079 C3080 1.415 . S
C3080 H3056 0.950 . S
C3080 C3075 1.363 . S
C3080 C3079 1.415 . S
C3081 H3057 0.951 . S
C3081 C3082 1.366 . S
C3081 C3083 1.388 . S
C3082 C3081 1.366 . S
C3082 C3086 1.385 . S
C3083 H3058 0.951 . S
C3083 C3081 1.388 . S
C3083 C3084 1.366 . S
C3084 C3083 1.366 . S
C3084 C3085 1.414 . S
C3084 C3087 1.499 . S
C3085 H3059 0.950 . S
C3085 C3084 1.414 . S
C3085 C3086 1.374 . S
C3086 H3060 0.950 . S
C3086 C3082 1.385 . S
C3086 C3085 1.374 . S
C3087 C3084 1.499 . S
C3087 C3088 1.373 . S
C3087 C3089 1.389 . S
C3088 H3061 0.950 . S
C3088 C3074 1.377 . S
C3088 C3087 1.373 . S
C3089 C3073 1.377 . S
C3089 C3087 1.389 . S
C3089 C3090 1.524 . S
C3090 C3089 1.524 . S
C3090 C3091 1.397 . S
C3090 C3095 1.363 . S
C3091 H3062 0.950 . S
C3091 C3090 1.397 . S
C3091 C3092 1.334 . S
C3092 H3063 0.950 . S
C3092 C3091 1.334 . S
C3092 C3093 1.287 . S
C3093 C3092 1.287 . S
C3093 C3094 1.524 . S
C3093 H3096 0.999 . S
C3094 H3064 0.950 . S
C3094 C3093 1.524 . S
C3094 C3095 1.415 . S
C3095 H3065 0.950 . S
C3095 C3090 1.363 . S
C3095 C3094 1.415 . S
H3096 C3093 0.999 . S
H3097 C3078 0.913 . S
H3098 C3116 0.951 . S
H3099 C3118 0.951 . S
H3100 C3120 0.950 . S
H3101 C3121 0.950 . S
H3102 C3123 0.950 . S
H3103 C3126 0.950 . S
H3104 C3127 0.950 . S
H3105 C3129 0.950 . S
H3106 C3130 0.950 . S
H3107 C3131 0.951 . S
H3108 C3133 0.951 . S
H3109 C3135 0.950 . S
H3110 C3136 0.950 . S
H3111 C3138 0.950 . S
H3112 C3141 0.950 . S
H3113 C3142 0.950 . S
H3114 C3144 0.950 . S
H3115 C3145 0.950 . S
C3116 H3098 0.951 . S
C3116 C3117 1.366 . S
C3116 C3118 1.388 . S
C3117 C3116 1.366 . S
C3117 C3121 1.385 . S
C3118 H3099 0.951 . S
C3118 C3116 1.388 . S
C3118 C3119 1.366 . S
C3119 C3118 1.366 . S
C3119 C3120 1.414 . S
C3119 C3122 1.499 . S
C3120 H3100 0.950 . S
C3120 C3119 1.414 . S
C3120 C3121 1.374 . S
C3121 H3101 0.950 . S
C3121 C3117 1.385 . S
C3121 C3120 1.374 . S
C3122 C3119 1.499 . S
C3122 C3123 1.373 . S
C3122 C3124 1.389 . S
C3123 H3102 0.950 . S
C3123 C3122 1.373 . S
C3123 C3139 1.377 . S
C3124 C3122 1.389 . S
C3124 C3125 1.524 . S
C3124 C3138 1.377 . S
C3125 C3124 1.524 . S
C3125 C3126 1.397 . S
C3125 C3130 1.363 . S
C3126 H3103 0.950 . S
C3126 C3125 1.397 . S
C3126 C3127 1.334 . S
C3127 H3104 0.950 . S
C3127 C3126 1.334 . S
C3127 C3128 1.287 . S
C3128 C3127 1.287 . S
C3128 C3129 1.524 . S
C3128 H3147 0.913 . S
C3129 H3105 0.950 . S
C3129 C3128 1.524 . S
C3129 C3130 1.415 . S
C3130 H3106 0.950 . S
C3130 C3125 1.363 . S
C3130 C3129 1.415 . S
C3131 H3107 0.951 . S
C3131 C3132 1.366 . S
C3131 C3133 1.388 . S
C3132 C3131 1.366 . S
C3132 C3136 1.385 . S
C3133 H3108 0.951 . S
C3133 C3131 1.388 . S
C3133 C3134 1.366 . S
C3134 C3133 1.366 . S
C3134 C3135 1.414 . S
C3134 C3137 1.499 . S
C3135 H3109 0.950 . S
C3135 C3134 1.414 . S
C3135 C3136 1.374 . S
C3136 H3110 0.950 . S
C3136 C3132 1.385 . S
C3136 C3135 1.374 . S
C3137 C3134 1.499 . S
C3137 C3138 1.373 . S
C3137 C3139 1.389 . S
C3138 H3111 0.950 . S
C3138 C3124 1.377 . S
C3138 C3137 1.373 . S
C3139 C3123 1.377 . S
C3139 C3137 1.389 . S
C3139 C3140 1.524 . S
C3140 C3139 1.524 . S
C3140 C3141 1.397 . S
C3140 C3145 1.363 . S
C3141 H3112 0.950 . S
C3141 C3140 1.397 . S
C3141 C3142 1.334 . S
C3142 H3113 0.950 . S
C3142 C3141 1.334 . S
C3142 C3143 1.287 . S
C3143 C3142 1.287 . S
C3143 C3144 1.524 . S
C3143 H3146 0.999 . S
C3144 H3114 0.950 . S
C3144 C3143 1.524 . S
C3144 C3145 1.415 . S
C3145 H3115 0.950 . S
C3145 C3140 1.363 . S
C3145 C3144 1.415 . S
H3146 C3143 0.999 . S
H3147 C3128 0.913 . S
H3148 C3166 0.951 . S
H3149 C3168 0.951 . S
H3150 C3170 0.950 . S
H3151 C3171 0.950 . S
H3152 C3173 0.950 . S
H3153 C3176 0.950 . S
H3154 C3177 0.950 . S
H3155 C3179 0.950 . S
H3156 C3180 0.950 . S
H3157 C3181 0.951 . S
H3158 C3183 0.951 . S
H3159 C3185 0.950 . S
H3160 C3186 0.950 . S
H3161 C3188 0.950 . S
H3162 C3191 0.950 . S
H3163 C3192 0.950 . S
H3164 C3194 0.950 . S
H3165 C3195 0.950 . S
C3166 H3148 0.951 . S
C3166 C3167 1.366 . S
C3166 C3168 1.388 . S
C3167 C3166 1.366 . S
C3167 C3171 1.385 . S
C3168 H3149 0.951 . S
C3168 C3166 1.388 . S
C3168 C3169 1.366 . S
C3169 C3168 1.366 . S
C3169 C3170 1.414 . S
C3169 C3172 1.499 . S
C3170 H3150 0.950 . S
C3170 C3169 1.414 . S
C3170 C3171 1.374 . S
C3171 H3151 0.950 . S
C3171 C3167 1.385 . S
C3171 C3170 1.374 . S
C3172 C3169 1.499 . S
C3172 C3173 1.373 . S
C3172 C3174 1.389 . S
C3173 H3152 0.950 . S
C3173 C3172 1.373 . S
C3173 C3189 1.377 . S
C3174 C3172 1.389 . S
C3174 C3175 1.524 . S
C3174 C3188 1.377 . S
C3175 C3174 1.524 . S
C3175 C3176 1.397 . S
C3175 C3180 1.363 . S
C3176 H3153 0.950 . S
C3176 C3175 1.397 . S
C3176 C3177 1.334 . S
C3177 H3154 0.950 . S
C3177 C3176 1.334 . S
C3177 C3178 1.287 . S
C3178 C3177 1.287 . S
C3178 C3179 1.524 . S
C3178 H3197 0.913 . S
C3179 H3155 0.950 . S
C3179 C3178 1.524 . S
C3179 C3180 1.415 . S
C3180 H3156 0.950 . S
C3180 C3175 1.363 . S
C3180 C3179 1.415 . S
C3181 H3157 0.951 . S
C3181 C3182 1.366 . S
C3181 C3183 1.388 . S
C3182 C3181 1.366 . S
C3182 C3186 1.385 . S
C3183 H3158 0.951 . S
C3183 C3181 1.388 . S
C3183 C3184 1.366 . S
C3184 C3183 1.366 . S
C3184 C3185 1.414 . S
C3184 C3187 1.499 . S
C3185 H3159 0.950 . S
C3185 C3184 1.414 . S
C3185 C3186 1.374 . S
C3186 H3160 0.950 . S
C3186 C3182 1.385 . S
C3186 C3185 1.374 . S
C3187 C3184 1.499 . S
C3187 C3188 1.373 . S
C3187 C3189 1.389 . S
C3188 H3161 0.950 . S
C3188 C3174 1.377 . S
C3188 C3187 1.373 . S
C3189 C3173 1.377 . S
C3189 C3187 1.389 . S
C3189 C3190 1.524 . S
C3190 C3189 1.524 . S
C3190 C3191 1.397 . S
C3190 C3195 1.363 . S
C3191 H3162 0.950 . S
C3191 C3190 1.397 . S
C3191 C3192 1.334 . S
C3192 H3163 0.950 . S
C3192 C3191 1.334 . S
C3192 C3193 1.287 . S
C3193 C3192 1.287 . S
C3193 C3194 1.524 . S
C3193 H3196 0.999 . S
C3194 H3164 0.950 . S
C3194 C3193 1.524 . S
C3194 C3195 1.415 . S
C3195 H3165 0.950 . S
C3195 C3190 1.363 . S
C3195 C3194 1.415 . S
H3196 C3193 0.999 . S
H3197 C3178 0.913 . S
H3198 C3216 0.951 . S
H3199 C3218 0.951 . S
H3200 C3220 0.950 . S
H3201 C3221 0.950 . S
H3202 C3223 0.950 . S
H3203 C3226 0.950 . S
H3204 C3227 0.950 . S
H3205 C3229 0.950 . S
H3206 C3230 0.950 . S
H3207 C3231 0.951 . S
H3208 C3233 0.951 . S
H3209 C3235 0.950 . S
H3210 C3236 0.950 . S
H3211 C3238 0.950 . S
H3212 C3241 0.950 . S
H3213 C3242 0.950 . S
H3214 C3244 0.950 . S
H3215 C3245 0.950 . S
C3216 H3198 0.951 . S
C3216 C3217 1.366 . S
C3216 C3218 1.388 . S
C3217 C3216 1.366 . S
C3217 C3221 1.385 . S
C3218 H3199 0.951 . S
C3218 C3216 1.388 . S
C3218 C3219 1.366 . S
C3219 C3218 1.366 . S
C3219 C3220 1.414 . S
C3219 C3222 1.499 . S
C3220 H3200 0.950 . S
C3220 C3219 1.414 . S
C3220 C3221 1.374 . S
C3221 H3201 0.950 . S
C3221 C3217 1.385 . S
C3221 C3220 1.374 . S
C3222 C3219 1.499 . S
C3222 C3223 1.373 . S
C3222 C3224 1.389 . S
C3223 H3202 0.950 . S
C3223 C3222 1.373 . S
C3223 C3239 1.377 . S
C3224 C3222 1.389 . S
C3224 C3225 1.524 . S
C3224 C3238 1.377 . S
C3225 C3224 1.524 . S
C3225 C3226 1.397 . S
C3225 C3230 1.363 . S
C3226 H3203 0.950 . S
C3226 C3225 1.397 . S
C3226 C3227 1.334 . S
C3227 H3204 0.950 . S
C3227 C3226 1.334 . S
C3227 C3228 1.287 . S
C3228 C3227 1.287 . S
C3228 C3229 1.524 . S
C3228 H3247 0.913 . S
C3229 H3205 0.950 . S
C3229 C3228 1.524 . S
C3229 C3230 1.415 . S
C3230 H3206 0.950 . S
C3230 C3225 1.363 . S
C3230 C3229 1.415 . S
C3231 H3207 0.951 . S
C3231 C3232 1.366 . S
C3231 C3233 1.388 . S
C3232 C3231 1.366 . S
C3232 C3236 1.385 . S
C3233 H3208 0.951 . S
C3233 C3231 1.388 . S
C3233 C3234 1.366 . S
C3234 C3233 1.366 . S
C3234 C3235 1.414 . S
C3234 C3237 1.499 . S
C3235 H3209 0.950 . S
C3235 C3234 1.414 . S
C3235 C3236 1.374 . S
C3236 H3210 0.950 . S
C3236 C3232 1.385 . S
C3236 C3235 1.374 . S
C3237 C3234 1.499 . S
C3237 C3238 1.373 . S
C3237 C3239 1.389 . S
C3238 H3211 0.950 . S
C3238 C3224 1.377 . S
C3238 C3237 1.373 . S
C3239 C3223 1.377 . S
C3239 C3237 1.389 . S
C3239 C3240 1.524 . S
C3240 C3239 1.524 . S
C3240 C3241 1.397 . S
C3240 C3245 1.363 . S
C3241 H3212 0.950 . S
C3241 C3240 1.397 . S
C3241 C3242 1.334 . S
C3242 H3213 0.950 . S
C3242 C3241 1.334 . S
C3242 C3243 1.287 . S
C3243 C3242 1.287 . S
C3243 C3244 1.524 . S
C3243 H3246 0.999 . S
C3244 H3214 0.950 . S
C3244 C3243 1.524 . S
C3244 C3245 1.415 . S
C3245 H3215 0.950 . S
C3245 C3240 1.363 . S
C3245 C3244 1.415 . S
H3246 C3243 0.999 . S
H3247 C3228 0.913 . S
H3248 C3266 0.951 . S
H3249 C3268 0.951 . S
H3250 C3270 0.950 . S
H3251 C3271 0.950 . S
H3252 C3273 0.950 . S
H3253 C3276 0.950 . S
H3254 C3277 0.950 . S
H3255 C3279 0.950 . S
H3256 C3280 0.950 . S
H3257 C3281 0.951 . S
H3258 C3283 0.951 . S
H3259 C3285 0.950 . S
H3260 C3286 0.950 . S
H3261 C3288 0.950 . S
H3262 C3291 0.950 . S
H3263 C3292 0.950 . S
H3264 C3294 0.950 . S
H3265 C3295 0.950 . S
C3266 H3248 0.951 . S
C3266 C3267 1.366 . S
C3266 C3268 1.388 . S
C3267 C3266 1.366 . S
C3267 C3271 1.385 . S
C3268 H3249 0.951 . S
C3268 C3266 1.388 . S
C3268 C3269 1.366 . S
C3269 C3268 1.366 . S
C3269 C3270 1.414 . S
C3269 C3272 1.499 . S
C3270 H3250 0.950 . S
C3270 C3269 1.414 . S
C3270 C3271 1.374 . S
C3271 H3251 0.950 . S
C3271 C3267 1.385 . S
C3271 C3270 1.374 . S
C3272 C3269 1.499 . S
C3272 C3273 1.373 . S
C3272 C3274 1.389 . S
C3273 H3252 0.950 . S
C3273 C3272 1.373 . S
C3273 C3289 1.377 . S
C3274 C3272 1.389 . S
C3274 C3275 1.524 . S
C3274 C3288 1.377 . S
C3275 C3274 1.524 . S
C3275 C3276 1.397 . S
C3275 C3280 1.363 . S
C3276 H3253 0.950 . S
C3276 C3275 1.397 . S
C3276 C3277 1.334 . S
C3277 H3254 0.950 . S
C3277 C3276 1.334 . S
C3277 C3278 1.287 . S
C3278 C3277 1.287 . S
C3278 C3279 1.524 . S
C3278 H3297 0.913 . S
C3279 H3255 0.950 . S
C3279 C3278 1.524 . S
C3279 C3280 1.415 . S
C3280 H3256 0.950 . S
C3280 C3275 1.363 . S
C3280 C3279 1.415 . S
C3281 H3257 0.951 . S
C3281 C3282 1.366 . S
C3281 C3283 1.388 . S
C3282 C3281 1.366 . S
C3282 C3286 1.385 . S
C3283 H3258 0.951 . S
C3283 C3281 1.388 . S
C3283 C3284 1.366 . S
C3284 C3283 1.366 . S
C3284 C3285 1.414 . S
C3284 C3287 1.499 . S
C3285 H3259 0.950 . S
C3285 C3284 1.414 . S
C3285 C3286 1.374 . S
C3286 H3260 0.950 . S
C3286 C3282 1.385 . S
C3286 C3285 1.374 . S
C3287 C3284 1.499 . S
C3287 C3288 1.373 . S
C3287 C3289 1.389 . S
C3288 H3261 0.950 . S
C3288 C3274 1.377 . S
C3288 C3287 1.373 . S
C3289 C3273 1.377 . S
C3289 C3287 1.389 . S
C3289 C3290 1.524 . S
C3290 C3289 1.524 . S
C3290 C3291 1.397 . S
C3290 C3295 1.363 . S
C3291 H3262 0.950 . S
C3291 C3290 1.397 . S
C3291 C3292 1.334 . S
C3292 H3263 0.950 . S
C3292 C3291 1.334 . S
C3292 C3293 1.287 . S
C3293 C3292 1.287 . S
C3293 C3294 1.524 . S
C3293 H3296 0.999 . S
C3294 H3264 0.950 . S
C3294 C3293 1.524 . S
C3294 C3295 1.415 . S
C3295 H3265 0.950 . S
C3295 C3290 1.363 . S
C3295 C3294 1.415 . S
H3296 C3293 0.999 . S
H3297 C3278 0.913 . S
H3298 C3316 0.951 . S
H3299 C3318 0.951 . S
H3300 C3320 0.950 . S
H3301 C3321 0.950 . S
H3302 C3323 0.950 . S
H3303 C3326 0.950 . S
H3304 C3327 0.950 . S
H3305 C3329 0.950 . S
H3306 C3330 0.950 . S
H3307 C3331 0.951 . S
H3308 C3333 0.951 . S
H3309 C3335 0.950 . S
H3310 C3336 0.950 . S
H3311 C3338 0.950 . S
H3312 C3341 0.950 . S
H3313 C3342 0.950 . S
H3314 C3344 0.950 . S
H3315 C3345 0.950 . S
C3316 H3298 0.951 . S
C3316 C3317 1.366 . S
C3316 C3318 1.388 . S
C3317 C3316 1.366 . S
C3317 C3321 1.385 . S
C3318 H3299 0.951 . S
C3318 C3316 1.388 . S
C3318 C3319 1.366 . S
C3319 C3318 1.366 . S
C3319 C3320 1.414 . S
C3319 C3322 1.499 . S
C3320 H3300 0.950 . S
C3320 C3319 1.414 . S
C3320 C3321 1.374 . S
C3321 H3301 0.950 . S
C3321 C3317 1.385 . S
C3321 C3320 1.374 . S
C3322 C3319 1.499 . S
C3322 C3323 1.373 . S
C3322 C3324 1.389 . S
C3323 H3302 0.950 . S
C3323 C3322 1.373 . S
C3323 C3339 1.377 . S
C3324 C3322 1.389 . S
C3324 C3325 1.524 . S
C3324 C3338 1.377 . S
C3325 C3324 1.524 . S
C3325 C3326 1.397 . S
C3325 C3330 1.363 . S
C3326 H3303 0.950 . S
C3326 C3325 1.397 . S
C3326 C3327 1.334 . S
C3327 H3304 0.950 . S
C3327 C3326 1.334 . S
C3327 C3328 1.287 . S
C3328 C3327 1.287 . S
C3328 C3329 1.524 . S
C3328 H3347 0.913 . S
C3329 H3305 0.950 . S
C3329 C3328 1.524 . S
C3329 C3330 1.415 . S
C3330 H3306 0.950 . S
C3330 C3325 1.363 . S
C3330 C3329 1.415 . S
C3331 H3307 0.951 . S
C3331 C3332 1.366 . S
C3331 C3333 1.388 . S
C3332 C3331 1.366 . S
C3332 C3336 1.385 . S
C3333 H3308 0.951 . S
C3333 C3331 1.388 . S
C3333 C3334 1.366 . S
C3334 C3333 1.366 . S
C3334 C3335 1.414 . S
C3334 C3337 1.499 . S
C3335 H3309 0.950 . S
C3335 C3334 1.414 . S
C3335 C3336 1.374 . S
C3336 H3310 0.950 . S
C3336 C3332 1.385 . S
C3336 C3335 1.374 . S
C3337 C3334 1.499 . S
C3337 C3338 1.373 . S
C3337 C3339 1.389 . S
C3338 H3311 0.950 . S
C3338 C3324 1.377 . S
C3338 C3337 1.373 . S
C3339 C3323 1.377 . S
C3339 C3337 1.389 . S
C3339 C3340 1.524 . S
C3340 C3339 1.524 . S
C3340 C3341 1.397 . S
C3340 C3345 1.363 . S
C3341 H3312 0.950 . S
C3341 C3340 1.397 . S
C3341 C3342 1.334 . S
C3342 H3313 0.950 . S
C3342 C3341 1.334 . S
C3342 C3343 1.287 . S
C3343 C3342 1.287 . S
C3343 C3344 1.524 . S
C3343 H3346 0.999 . S
C3344 H3314 0.950 . S
C3344 C3343 1.524 . S
C3344 C3345 1.415 . S
C3345 H3315 0.950 . S
C3345 C3340 1.363 . S
C3345 C3344 1.415 . S
H3346 C3343 0.999 . S
H3347 C3328 0.913 . S
H3348 C3366 0.951 . S
H3349 C3368 0.951 . S
H3350 C3370 0.950 . S
H3351 C3371 0.950 . S
H3352 C3373 0.950 . S
H3353 C3376 0.950 . S
H3354 C3377 0.950 . S
H3355 C3379 0.950 . S
H3356 C3380 0.950 . S
H3357 C3381 0.951 . S
H3358 C3383 0.951 . S
H3359 C3385 0.950 . S
H3360 C3386 0.950 . S
H3361 C3388 0.950 . S
H3362 C3391 0.950 . S
H3363 C3392 0.950 . S
H3364 C3394 0.950 . S
H3365 C3395 0.950 . S
C3366 H3348 0.951 . S
C3366 C3367 1.366 . S
C3366 C3368 1.388 . S
C3367 C3366 1.366 . S
C3367 C3371 1.385 . S
C3368 H3349 0.951 . S
C3368 C3366 1.388 . S
C3368 C3369 1.366 . S
C3369 C3368 1.366 . S
C3369 C3370 1.414 . S
C3369 C3372 1.499 . S
C3370 H3350 0.950 . S
C3370 C3369 1.414 . S
C3370 C3371 1.374 . S
C3371 H3351 0.950 . S
C3371 C3367 1.385 . S
C3371 C3370 1.374 . S
C3372 C3369 1.499 . S
C3372 C3373 1.373 . S
C3372 C3374 1.389 . S
C3373 H3352 0.950 . S
C3373 C3372 1.373 . S
C3373 C3389 1.377 . S
C3374 C3372 1.389 . S
C3374 C3375 1.524 . S
C3374 C3388 1.377 . S
C3375 C3374 1.524 . S
C3375 C3376 1.397 . S
C3375 C3380 1.363 . S
C3376 H3353 0.950 . S
C3376 C3375 1.397 . S
C3376 C3377 1.334 . S
C3377 H3354 0.950 . S
C3377 C3376 1.334 . S
C3377 C3378 1.287 . S
C3378 C3377 1.287 . S
C3378 C3379 1.524 . S
C3378 H3397 0.913 . S
C3379 H3355 0.950 . S
C3379 C3378 1.524 . S
C3379 C3380 1.415 . S
C3380 H3356 0.950 . S
C3380 C3375 1.363 . S
C3380 C3379 1.415 . S
C3381 H3357 0.951 . S
C3381 C3382 1.366 . S
C3381 C3383 1.388 . S
C3382 C3381 1.366 . S
C3382 C3386 1.385 . S
C3383 H3358 0.951 . S
C3383 C3381 1.388 . S
C3383 C3384 1.366 . S
C3384 C3383 1.366 . S
C3384 C3385 1.414 . S
C3384 C3387 1.499 . S
C3385 H3359 0.950 . S
C3385 C3384 1.414 . S
C3385 C3386 1.374 . S
C3386 H3360 0.950 . S
C3386 C3382 1.385 . S
C3386 C3385 1.374 . S
C3387 C3384 1.499 . S
C3387 C3388 1.373 . S
C3387 C3389 1.389 . S
C3388 H3361 0.950 . S
C3388 C3374 1.377 . S
C3388 C3387 1.373 . S
C3389 C3373 1.377 . S
C3389 C3387 1.389 . S
C3389 C3390 1.524 . S
C3390 C3389 1.524 . S
C3390 C3391 1.397 . S
C3390 C3395 1.363 . S
C3391 H3362 0.950 . S
C3391 C3390 1.397 . S
C3391 C3392 1.334 . S
C3392 H3363 0.950 . S
C3392 C3391 1.334 . S
C3392 C3393 1.287 . S
C3393 C3392 1.287 . S
C3393 C3394 1.524 . S
C3393 H3396 0.999 . S
C3394 H3364 0.950 . S
C3394 C3393 1.524 . S
C3394 C3395 1.415 . S
C3395 H3365 0.950 . S
C3395 C3390 1.363 . S
C3395 C3394 1.415 . S
H3396 C3393 0.999 . S
H3397 C3378 0.913 . S
H3398 C3416 0.951 . S
H3399 C3418 0.951 . S
H3400 C3420 0.950 . S
H3401 C3421 0.950 . S
H3402 C3423 0.950 . S
H3403 C3426 0.950 . S
H3404 C3427 0.950 . S
H3405 C3429 0.950 . S
H3406 C3430 0.950 . S
H3407 C3431 0.951 . S
H3408 C3433 0.951 . S
H3409 C3435 0.950 . S
H3410 C3436 0.950 . S
H3411 C3438 0.950 . S
H3412 C3441 0.950 . S
H3413 C3442 0.950 . S
H3414 C3444 0.950 . S
H3415 C3445 0.950 . S
C3416 H3398 0.951 . S
C3416 C3417 1.366 . S
C3416 C3418 1.388 . S
C3417 C3416 1.366 . S
C3417 C3421 1.385 . S
C3418 H3399 0.951 . S
C3418 C3416 1.388 . S
C3418 C3419 1.366 . S
C3419 C3418 1.366 . S
C3419 C3420 1.414 . S
C3419 C3422 1.499 . S
C3420 H3400 0.950 . S
C3420 C3419 1.414 . S
C3420 C3421 1.374 . S
C3421 H3401 0.950 . S
C3421 C3417 1.385 . S
C3421 C3420 1.374 . S
C3422 C3419 1.499 . S
C3422 C3423 1.373 . S
C3422 C3424 1.389 . S
C3423 H3402 0.950 . S
C3423 C3422 1.373 . S
C3423 C3439 1.377 . S
C3424 C3422 1.389 . S
C3424 C3425 1.524 . S
C3424 C3438 1.377 . S
C3425 C3424 1.524 . S
C3425 C3426 1.397 . S
C3425 C3430 1.363 . S
C3426 H3403 0.950 . S
C3426 C3425 1.397 . S
C3426 C3427 1.334 . S
C3427 H3404 0.950 . S
C3427 C3426 1.334 . S
C3427 C3428 1.287 . S
C3428 C3427 1.287 . S
C3428 C3429 1.524 . S
C3428 H3447 0.913 . S
C3429 H3405 0.950 . S
C3429 C3428 1.524 . S
C3429 C3430 1.415 . S
C3430 H3406 0.950 . S
C3430 C3425 1.363 . S
C3430 C3429 1.415 . S
C3431 H3407 0.951 . S
C3431 C3432 1.366 . S
C3431 C3433 1.388 . S
C3432 C3431 1.366 . S
C3432 C3436 1.385 . S
C3433 H3408 0.951 . S
C3433 C3431 1.388 . S
C3433 C3434 1.366 . S
C3434 C3433 1.366 . S
C3434 C3435 1.414 . S
C3434 C3437 1.499 . S
C3435 H3409 0.950 . S
C3435 C3434 1.414 . S
C3435 C3436 1.374 . S
C3436 H3410 0.950 . S
C3436 C3432 1.385 . S
C3436 C3435 1.374 . S
C3437 C3434 1.499 . S
C3437 C3438 1.373 . S
C3437 C3439 1.389 . S
C3438 H3411 0.950 . S
C3438 C3424 1.377 . S
C3438 C3437 1.373 . S
C3439 C3423 1.377 . S
C3439 C3437 1.389 . S
C3439 C3440 1.524 . S
C3440 C3439 1.524 . S
C3440 C3441 1.397 . S
C3440 C3445 1.363 . S
C3441 H3412 0.950 . S
C3441 C3440 1.397 . S
C3441 C3442 1.334 . S
C3442 H3413 0.950 . S
C3442 C3441 1.334 . S
C3442 C3443 1.287 . S
C3443 C3442 1.287 . S
C3443 C3444 1.524 . S
C3443 H3446 0.999 . S
C3444 H3414 0.950 . S
C3444 C3443 1.524 . S
C3444 C3445 1.415 . S
C3445 H3415 0.950 . S
C3445 C3440 1.363 . S
C3445 C3444 1.415 . S
H3446 C3443 0.999 . S
H3447 C3428 0.913 . S
H3448 C3466 0.951 . S
H3449 C3468 0.951 . S
H3450 C3470 0.950 . S
H3451 C3471 0.950 . S
H3452 C3473 0.950 . S
H3453 C3476 0.950 . S
H3454 C3477 0.950 . S
H3455 C3479 0.950 . S
H3456 C3480 0.950 . S
H3457 C3481 0.951 . S
H3458 C3483 0.951 . S
H3459 C3485 0.950 . S
H3460 C3486 0.950 . S
H3461 C3488 0.950 . S
H3462 C3491 0.950 . S
H3463 C3492 0.950 . S
H3464 C3494 0.950 . S
H3465 C3495 0.950 . S
C3466 H3448 0.951 . S
C3466 C3467 1.366 . S
C3466 C3468 1.388 . S
C3467 C3466 1.366 . S
C3467 C3471 1.385 . S
C3468 H3449 0.951 . S
C3468 C3466 1.388 . S
C3468 C3469 1.366 . S
C3469 C3468 1.366 . S
C3469 C3470 1.414 . S
C3469 C3472 1.499 . S
C3470 H3450 0.950 . S
C3470 C3469 1.414 . S
C3470 C3471 1.374 . S
C3471 H3451 0.950 . S
C3471 C3467 1.385 . S
C3471 C3470 1.374 . S
C3472 C3469 1.499 . S
C3472 C3473 1.373 . S
C3472 C3474 1.389 . S
C3473 H3452 0.950 . S
C3473 C3472 1.373 . S
C3473 C3489 1.377 . S
C3474 C3472 1.389 . S
C3474 C3475 1.524 . S
C3474 C3488 1.377 . S
C3475 C3474 1.524 . S
C3475 C3476 1.397 . S
C3475 C3480 1.363 . S
C3476 H3453 0.950 . S
C3476 C3475 1.397 . S
C3476 C3477 1.334 . S
C3477 H3454 0.950 . S
C3477 C3476 1.334 . S
C3477 C3478 1.287 . S
C3478 C3477 1.287 . S
C3478 C3479 1.524 . S
C3478 H3497 0.913 . S
C3479 H3455 0.950 . S
C3479 C3478 1.524 . S
C3479 C3480 1.415 . S
C3480 H3456 0.950 . S
C3480 C3475 1.363 . S
C3480 C3479 1.415 . S
C3481 H3457 0.951 . S
C3481 C3482 1.366 . S
C3481 C3483 1.388 . S
C3482 C3481 1.366 . S
C3482 C3486 1.385 . S
C3483 H3458 0.951 . S
C3483 C3481 1.388 . S
C3483 C3484 1.366 . S
C3484 C3483 1.366 . S
C3484 C3485 1.414 . S
C3484 C3487 1.499 . S
C3485 H3459 0.950 . S
C3485 C3484 1.414 . S
C3485 C3486 1.374 . S
C3486 H3460 0.950 . S
C3486 C3482 1.385 . S
C3486 C3485 1.374 . S
C3487 C3484 1.499 . S
C3487 C3488 1.373 . S
C3487 C3489 1.389 . S
C3488 H3461 0.950 . S
C3488 C3474 1.377 . S
C3488 C3487 1.373 . S
C3489 C3473 1.377 . S
C3489 C3487 1.389 . S
C3489 C3490 1.524 . S
C3490 C3489 1.524 . S
C3490 C3491 1.397 . S
C3490 C3495 1.363 . S
C3491 H3462 0.950 . S
C3491 C3490 1.397 . S
C3491 C3492 1.334 . S
C3492 H3463 0.950 . S
C3492 C3491 1.334 . S
C3492 C3493 1.287 . S
C3493 C3492 1.287 . S
C3493 C3494 1.524 . S
C3493 H3496 0.999 . S
C3494 H3464 0.950 . S
C3494 C3493 1.524 . S
C3494 C3495 1.415 . S
C3495 H3465 0.950 . S
C3495 C3490 1.363 . S
C3495 C3494 1.415 . S
H3496 C3493 0.999 . S
H3497 C3478 0.913 . S
H3498 C3516 0.951 . S
H3499 C3518 0.951 . S
H3500 C3520 0.950 . S
H3501 C3521 0.950 . S
H3502 C3523 0.950 . S
H3503 C3526 0.950 . S
H3504 C3527 0.950 . S
H3505 C3529 0.950 . S
H3506 C3530 0.950 . S
H3507 C3531 0.951 . S
H3508 C3533 0.951 . S
H3509 C3535 0.950 . S
H3510 C3536 0.950 . S
H3511 C3538 0.950 . S
H3512 C3541 0.950 . S
H3513 C3542 0.950 . S
H3514 C3544 0.950 . S
H3515 C3545 0.950 . S
C3516 H3498 0.951 . S
C3516 C3517 1.366 . S
C3516 C3518 1.388 . S
C3517 C3516 1.366 . S
C3517 C3521 1.385 . S
C3518 H3499 0.951 . S
C3518 C3516 1.388 . S
C3518 C3519 1.366 . S
C3519 C3518 1.366 . S
C3519 C3520 1.414 . S
C3519 C3522 1.499 . S
C3520 H3500 0.950 . S
C3520 C3519 1.414 . S
C3520 C3521 1.374 . S
C3521 H3501 0.950 . S
C3521 C3517 1.385 . S
C3521 C3520 1.374 . S
C3522 C3519 1.499 . S
C3522 C3523 1.373 . S
C3522 C3524 1.389 . S
C3523 H3502 0.950 . S
C3523 C3522 1.373 . S
C3523 C3539 1.377 . S
C3524 C3522 1.389 . S
C3524 C3525 1.524 . S
C3524 C3538 1.377 . S
C3525 C3524 1.524 . S
C3525 C3526 1.397 . S
C3525 C3530 1.363 . S
C3526 H3503 0.950 . S
C3526 C3525 1.397 . S
C3526 C3527 1.334 . S
C3527 H3504 0.950 . S
C3527 C3526 1.334 . S
C3527 C3528 1.287 . S
C3528 C3527 1.287 . S
C3528 C3529 1.524 . S
C3528 H3547 0.913 . S
C3529 H3505 0.950 . S
C3529 C3528 1.524 . S
C3529 C3530 1.415 . S
C3530 H3506 0.950 . S
C3530 C3525 1.363 . S
C3530 C3529 1.415 . S
C3531 H3507 0.951 . S
C3531 C3532 1.366 . S
C3531 C3533 1.388 . S
C3532 C3531 1.366 . S
C3532 C3536 1.385 . S
C3533 H3508 0.951 . S
C3533 C3531 1.388 . S
C3533 C3534 1.366 . S
C3534 C3533 1.366 . S
C3534 C3535 1.414 . S
C3534 C3537 1.499 . S
C3535 H3509 0.950 . S
C3535 C3534 1.414 . S
C3535 C3536 1.374 . S
C3536 H3510 0.950 . S
C3536 C3532 1.385 . S
C3536 C3535 1.374 . S
C3537 C3534 1.499 . S
C3537 C3538 1.373 . S
C3537 C3539 1.389 . S
C3538 H3511 0.950 . S
C3538 C3524 1.377 . S
C3538 C3537 1.373 . S
C3539 C3523 1.377 . S
C3539 C3537 1.389 . S
C3539 C3540 1.524 . S
C3540 C3539 1.524 . S
C3540 C3541 1.397 . S
C3540 C3545 1.363 . S
C3541 H3512 0.950 . S
C3541 C3540 1.397 . S
C3541 C3542 1.334 . S
C3542 H3513 0.950 . S
C3542 C3541 1.334 . S
C3542 C3543 1.287 . S
C3543 C3542 1.287 . S
C3543 C3544 1.524 . S
C3543 H3546 0.999 . S
C3544 H3514 0.950 . S
C3544 C3543 1.524 . S
C3544 C3545 1.415 . S
C3545 H3515 0.950 . S
C3545 C3540 1.363 . S
C3545 C3544 1.415 . S
H3546 C3543 0.999 . S
H3547 C3528 0.913 . S
H3548 C3566 0.951 . S
H3549 C3568 0.951 . S
H3550 C3570 0.950 . S
H3551 C3571 0.950 . S
H3552 C3573 0.950 . S
H3553 C3576 0.950 . S
H3554 C3577 0.950 . S
H3555 C3579 0.950 . S
H3556 C3580 0.950 . S
H3557 C3581 0.951 . S
H3558 C3583 0.951 . S
H3559 C3585 0.950 . S
H3560 C3586 0.950 . S
H3561 C3588 0.950 . S
H3562 C3591 0.950 . S
H3563 C3592 0.950 . S
H3564 C3594 0.950 . S
H3565 C3595 0.950 . S
C3566 H3548 0.951 . S
C3566 C3567 1.366 . S
C3566 C3568 1.388 . S
C3567 C3566 1.366 . S
C3567 C3571 1.385 . S
C3568 H3549 0.951 . S
C3568 C3566 1.388 . S
C3568 C3569 1.366 . S
C3569 C3568 1.366 . S
C3569 C3570 1.414 . S
C3569 C3572 1.499 . S
C3570 H3550 0.950 . S
C3570 C3569 1.414 . S
C3570 C3571 1.374 . S
C3571 H3551 0.950 . S
C3571 C3567 1.385 . S
C3571 C3570 1.374 . S
C3572 C3569 1.499 . S
C3572 C3573 1.373 . S
C3572 C3574 1.389 . S
C3573 H3552 0.950 . S
C3573 C3572 1.373 . S
C3573 C3589 1.377 . S
C3574 C3572 1.389 . S
C3574 C3575 1.524 . S
C3574 C3588 1.377 . S
C3575 C3574 1.524 . S
C3575 C3576 1.397 . S
C3575 C3580 1.363 . S
C3576 H3553 0.950 . S
C3576 C3575 1.397 . S
C3576 C3577 1.334 . S
C3577 H3554 0.950 . S
C3577 C3576 1.334 . S
C3577 C3578 1.287 . S
C3578 C3577 1.287 . S
C3578 C3579 1.524 . S
C3578 H3597 0.913 . S
C3579 H3555 0.950 . S
C3579 C3578 1.524 . S
C3579 C3580 1.415 . S
C3580 H3556 0.950 . S
C3580 C3575 1.363 . S
C3580 C3579 1.415 . S
C3581 H3557 0.951 . S
C3581 C3582 1.366 . S
C3581 C3583 1.388 . S
C3582 C3581 1.366 . S
C3582 C3586 1.385 . S
C3583 H3558 0.951 . S
C3583 C3581 1.388 . S
C3583 C3584 1.366 . S
C3584 C3583 1.366 . S
C3584 C3585 1.414 . S
C3584 C3587 1.499 . S
C3585 H3559 0.950 . S
C3585 C3584 1.414 . S
C3585 C3586 1.374 . S
C3586 H3560 0.950 . S
C3586 C3582 1.385 . S
C3586 C3585 1.374 . S
C3587 C3584 1.499 . S
C3587 C3588 1.373 . S
C3587 C3589 1.389 . S
C3588 H3561 0.950 . S
C3588 C3574 1.377 . S
C3588 C3587 1.373 . S
C3589 C3573 1.377 . S
C3589 C3587 1.389 . S
C3589 C3590 1.524 . S
C3590 C3589 1.524 . S
C3590 C3591 1.397 . S
C3590 C3595 1.363 . S
C3591 H3562 0.950 . S
C3591 C3590 1.397 . S
C3591 C3592 1.334 . S
C3592 H3563 0.950 . S
C3592 C3591 1.334 . S
C3592 C3593 1.287 . S
C3593 C3592 1.287 . S
C3593 C3594 1.524 . S
C3593 H3596 0.999 . S
C3594 H3564 0.950 . S
C3594 C3593 1.524 . S
C3594 C3595 1.415 . S
C3595 H3565 0.950 . S
C3595 C3590 1.363 . S
C3595 C3594 1.415 . S
H3596 C3593 0.999 . S
H3597 C3578 0.913 . S
H3598 C3616 0.951 . S
H3599 C3618 0.951 . S
H3600 C3620 0.950 . S
H3601 C3621 0.950 . S
H3602 C3623 0.950 . S
H3603 C3626 0.950 . S
H3604 C3627 0.950 . S
H3605 C3629 0.950 . S
H3606 C3630 0.950 . S
H3607 C3631 0.951 . S
H3608 C3633 0.951 . S
H3609 C3635 0.950 . S
H3610 C3636 0.950 . S
H3611 C3638 0.950 . S
H3612 C3641 0.950 . S
H3613 C3642 0.950 . S
H3614 C3644 0.950 . S
H3615 C3645 0.950 . S
C3616 H3598 0.951 . S
C3616 C3617 1.366 . S
C3616 C3618 1.388 . S
C3617 C3616 1.366 . S
C3617 C3621 1.385 . S
C3618 H3599 0.951 . S
C3618 C3616 1.388 . S
C3618 C3619 1.366 . S
C3619 C3618 1.366 . S
C3619 C3620 1.414 . S
C3619 C3622 1.499 . S
C3620 H3600 0.950 . S
C3620 C3619 1.414 . S
C3620 C3621 1.374 . S
C3621 H3601 0.950 . S
C3621 C3617 1.385 . S
C3621 C3620 1.374 . S
C3622 C3619 1.499 . S
C3622 C3623 1.373 . S
C3622 C3624 1.389 . S
C3623 H3602 0.950 . S
C3623 C3622 1.373 . S
C3623 C3639 1.377 . S
C3624 C3622 1.389 . S
C3624 C3625 1.524 . S
C3624 C3638 1.377 . S
C3625 C3624 1.524 . S
C3625 C3626 1.397 . S
C3625 C3630 1.363 . S
C3626 H3603 0.950 . S
C3626 C3625 1.397 . S
C3626 C3627 1.334 . S
C3627 H3604 0.950 . S
C3627 C3626 1.334 . S
C3627 C3628 1.287 . S
C3628 C3627 1.287 . S
C3628 C3629 1.524 . S
C3628 H3647 0.913 . S
C3629 H3605 0.950 . S
C3629 C3628 1.524 . S
C3629 C3630 1.415 . S
C3630 H3606 0.950 . S
C3630 C3625 1.363 . S
C3630 C3629 1.415 . S
C3631 H3607 0.951 . S
C3631 C3632 1.366 . S
C3631 C3633 1.388 . S
C3632 C3631 1.366 . S
C3632 C3636 1.385 . S
C3633 H3608 0.951 . S
C3633 C3631 1.388 . S
C3633 C3634 1.366 . S
C3634 C3633 1.366 . S
C3634 C3635 1.414 . S
C3634 C3637 1.499 . S
C3635 H3609 0.950 . S
C3635 C3634 1.414 . S
C3635 C3636 1.374 . S
C3636 H3610 0.950 . S
C3636 C3632 1.385 . S
C3636 C3635 1.374 . S
C3637 C3634 1.499 . S
C3637 C3638 1.373 . S
C3637 C3639 1.389 . S
C3638 H3611 0.950 . S
C3638 C3624 1.377 . S
C3638 C3637 1.373 . S
C3639 C3623 1.377 . S
C3639 C3637 1.389 . S
C3639 C3640 1.524 . S
C3640 C3639 1.524 . S
C3640 C3641 1.397 . S
C3640 C3645 1.363 . S
C3641 H3612 0.950 . S
C3641 C3640 1.397 . S
C3641 C3642 1.334 . S
C3642 H3613 0.950 . S
C3642 C3641 1.334 . S
C3642 C3643 1.287 . S
C3643 C3642 1.287 . S
C3643 C3644 1.524 . S
C3643 H3646 0.999 . S
C3644 H3614 0.950 . S
C3644 C3643 1.524 . S
C3644 C3645 1.415 . S
C3645 H3615 0.950 . S
C3645 C3640 1.363 . S
C3645 C3644 1.415 . S
H3646 C3643 0.999 . S
H3647 C3628 0.913 . S
C467 C119 1.361 . S
C482 C7 1.361 . S
C517 C357 1.360 . S
C532 C21 1.360 . S
C567 C147 1.361 . S
C582 C35 1.361 . S
C617 C385 1.360 . S
C632 C49 1.360 . S
C667 C175 1.360 . S
C682 C63 1.360 . S
C717 C77 1.360 . S
C732 C413 1.360 . S
C767 C91 1.360 . S
C782 C203 1.360 . S
C817 C105 1.360 . S
C832 C441 1.360 . S
C867 C245 1.361 . S
C882 C133 1.361 . S
C917 C273 1.360 . S
C932 C161 1.360 . S
C967 C189 1.361 . S
C982 C301 1.361 . S
C1017 C217 1.361 . S
C1032 C329 1.361 . S
C1067 C231 1.360 . S
C1082 C343 1.360 . S
C1117 C371 1.360 . S
C1132 C259 1.360 . S
C1167 C287 1.361 . S
C1182 C399 1.361 . S
C1217 C427 1.360 . S
C1232 C315 1.360 . S
C1267 C261 2.097 . S
C1282 C9 2.097 . S
C1317 C275 2.097 . S
C1332 C23 2.097 . S
C1367 C37 2.097 . S
C1382 C233 2.097 . S
C1417 C51 2.097 . S
C1432 C247 2.097 . S
C1467 C317 2.097 . S
C1482 C65 2.097 . S
C1517 C79 2.097 . S
C1532 C331 2.097 . S
C1567 C289 2.097 . S
C1582 C93 2.097 . S
C1617 C303 2.097 . S
C1632 C107 2.097 . S
C1667 C121 2.097 . S
C1682 C373 2.097 . S
C1717 C387 2.097 . S
C1732 C135 2.097 . S
C1767 C149 2.097 . S
C1782 C345 2.097 . S
C1817 C163 2.097 . S
C1832 C359 2.097 . S
C1867 C177 2.097 . S
C1882 C429 2.097 . S
C1917 C191 2.097 . S
C1932 C443 2.097 . S
C1967 C401 2.097 . S
C1982 C205 2.097 . S
C2017 C415 2.097 . S
C2032 C219 2.097 . S
C2067 C90 1.595 . S
C2082 C6 1.596 . S
C2117 C104 1.596 . S
C2132 C20 1.595 . S
C2167 C62 1.596 . S
C2182 C34 1.595 . S
C2217 C48 1.595 . S
C2232 C76 1.596 . S
C2267 C202 1.595 . S
C2282 C118 1.596 . S
C2317 C216 1.596 . S
C2332 C132 1.595 . S
C2367 C174 1.596 . S
C2382 C146 1.595 . S
C2417 C188 1.595 . S
C2432 C160 1.596 . S
C2467 C314 1.596 . S
C2482 C230 1.595 . S
C2517 C328 1.595 . S
C2532 C244 1.596 . S
C2567 C258 1.595 . S
C2582 C286 1.596 . S
C2617 C272 1.596 . S
C2632 C300 1.595 . S
C2667 C426 1.595 . S
C2682 C342 1.596 . S
C2717 C440 1.595 . S
C2732 C356 1.596 . S
C2767 C370 1.596 . S
C2782 C398 1.595 . S
C2817 C384 1.596 . S
C2832 C412 1.595 . S
C2867 C8 1.547 . S
C2882 C302 1.547 . S
C2917 C316 1.547 . S
C2932 C22 1.547 . S
C2967 C330 1.547 . S
C2982 C36 1.547 . S
C3017 C50 1.547 . S
C3032 C288 1.547 . S
C3067 C274 1.547 . S
C3082 C64 1.547 . S
C3117 C78 1.547 . S
C3132 C232 1.547 . S
C3167 C246 1.547 . S
C3182 C92 1.547 . S
C3217 C106 1.547 . S
C3232 C260 1.547 . S
C3267 C414 1.547 . S
C3282 C120 1.547 . S
C3317 C428 1.547 . S
C3332 C134 1.547 . S
C3367 C148 1.547 . S
C3382 C442 1.547 . S
C3417 C400 1.547 . S
C3432 C162 1.547 . S
C3467 C386 1.547 . S
C3482 C176 1.547 . S
C3517 C190 1.547 . S
C3532 C344 1.547 . S
C3567 C358 1.547 . S
C3582 C204 1.547 . S
C3617 C218 1.547 . S
C3632 C372 1.547 . S
