# Generated by pormake.
# Topology ukm, (4)-cn, num edge types: 1
# Building blocks:
#     Node 0, Type 0, BuildingBlock: GALJAG_clean_sbu_0, # of connection points: 4
#     Node 1, Type 0, BuildingBlock: GALJAG_clean_sbu_0, # of connection points: 4
#     Node 2, Type 0, BuildingBlock: GALJAG_clean_sbu_0, # of connection points: 4
#     Node 3, Type 0, BuildingBlock: GALJAG_clean_sbu_0, # of connection points: 4
#     Node 4, Type 0, BuildingBlock: GALJAG_clean_sbu_0, # of connection points: 4
#     Node 5, Type 0, BuildingBlock: GALJAG_clean_sbu_0, # of connection points: 4
#     Node 6, Type 0, BuildingBlock: GALJAG_clean_sbu_0, # of connection points: 4
#     Node 7, Type 0, BuildingBlock: GALJAG_clean_sbu_0, # of connection points: 4
#     Node 8, Type 0, BuildingBlock: GALJAG_clean_sbu_0, # of connection points: 4
#     Node 9, Type 0, BuildingBlock: GALJAG_clean_sbu_0, # of connection points: 4
#     Node 10, Type 0, BuildingBlock: GALJAG_clean_sbu_0, # of connection points: 4
#     Node 11, Type 0, BuildingBlock: GALJAG_clean_sbu_0, # of connection points: 4
#     Node 12, Type 0, BuildingBlock: GALJAG_clean_sbu_0, # of connection points: 4
#     Node 13, Type 0, BuildingBlock: GALJAG_clean_sbu_0, # of connection points: 4
#     Node 14, Type 0, BuildingBlock: GALJAG_clean_sbu_0, # of connection points: 4
#     Node 15, Type 0, BuildingBlock: GALJAG_clean_sbu_0, # of connection points: 4
#     Node 16, Type 0, BuildingBlock: GALJAG_clean_sbu_0, # of connection points: 4
#     Node 17, Type 0, BuildingBlock: GALJAG_clean_sbu_0, # of connection points: 4
#     Node 18, Type 0, BuildingBlock: GALJAG_clean_sbu_0, # of connection points: 4
#     Node 19, Type 0, BuildingBlock: GALJAG_clean_sbu_0, # of connection points: 4
#     Node 20, Type 0, BuildingBlock: GALJAG_clean_sbu_0, # of connection points: 4
#     Node 21, Type 0, BuildingBlock: GALJAG_clean_sbu_0, # of connection points: 4
#     Node 22, Type 0, BuildingBlock: GALJAG_clean_sbu_0, # of connection points: 4
#     Node 23, Type 0, BuildingBlock: GALJAG_clean_sbu_0, # of connection points: 4
#     Node 24, Type 0, BuildingBlock: GALJAG_clean_sbu_0, # of connection points: 4
#     Node 25, Type 0, BuildingBlock: GALJAG_clean_sbu_0, # of connection points: 4
#     Node 26, Type 0, BuildingBlock: GALJAG_clean_sbu_0, # of connection points: 4
#     Node 27, Type 0, BuildingBlock: GALJAG_clean_sbu_0, # of connection points: 4
#     Node 28, Type 0, BuildingBlock: GALJAG_clean_sbu_0, # of connection points: 4
#     Node 29, Type 0, BuildingBlock: GALJAG_clean_sbu_0, # of connection points: 4
#     Node 30, Type 0, BuildingBlock: GALJAG_clean_sbu_0, # of connection points: 4
#     Node 31, Type 0, BuildingBlock: GALJAG_clean_sbu_0, # of connection points: 4
#     Edge 32, Type (0, 0), BuildingBlock: XIVTED_clean_linker_0, # of connection points: 2
#     Edge 33, Type (0, 0), BuildingBlock: XIVTED_clean_linker_0, # of connection points: 2
#     Edge 34, Type (0, 0), BuildingBlock: XIVTED_clean_linker_0, # of connection points: 2
#     Edge 35, Type (0, 0), BuildingBlock: XIVTED_clean_linker_0, # of connection points: 2
#     Edge 36, Type (0, 0), BuildingBlock: XIVTED_clean_linker_0, # of connection points: 2
#     Edge 37, Type (0, 0), BuildingBlock: XIVTED_clean_linker_0, # of connection points: 2
#     Edge 38, Type (0, 0), BuildingBlock: XIVTED_clean_linker_0, # of connection points: 2
#     Edge 39, Type (0, 0), BuildingBlock: XIVTED_clean_linker_0, # of connection points: 2
#     Edge 40, Type (0, 0), BuildingBlock: XIVTED_clean_linker_0, # of connection points: 2
#     Edge 41, Type (0, 0), BuildingBlock: XIVTED_clean_linker_0, # of connection points: 2
#     Edge 42, Type (0, 0), BuildingBlock: XIVTED_clean_linker_0, # of connection points: 2
#     Edge 43, Type (0, 0), BuildingBlock: XIVTED_clean_linker_0, # of connection points: 2
#     Edge 44, Type (0, 0), BuildingBlock: XIVTED_clean_linker_0, # of connection points: 2
#     Edge 45, Type (0, 0), BuildingBlock: XIVTED_clean_linker_0, # of connection points: 2
#     Edge 46, Type (0, 0), BuildingBlock: XIVTED_clean_linker_0, # of connection points: 2
#     Edge 47, Type (0, 0), BuildingBlock: XIVTED_clean_linker_0, # of connection points: 2
#     Edge 48, Type (0, 0), BuildingBlock: XIVTED_clean_linker_0, # of connection points: 2
#     Edge 49, Type (0, 0), BuildingBlock: XIVTED_clean_linker_0, # of connection points: 2
#     Edge 50, Type (0, 0), BuildingBlock: XIVTED_clean_linker_0, # of connection points: 2
#     Edge 51, Type (0, 0), BuildingBlock: XIVTED_clean_linker_0, # of connection points: 2
#     Edge 52, Type (0, 0), BuildingBlock: XIVTED_clean_linker_0, # of connection points: 2
#     Edge 53, Type (0, 0), BuildingBlock: XIVTED_clean_linker_0, # of connection points: 2
#     Edge 54, Type (0, 0), BuildingBlock: XIVTED_clean_linker_0, # of connection points: 2
#     Edge 55, Type (0, 0), BuildingBlock: XIVTED_clean_linker_0, # of connection points: 2
#     Edge 56, Type (0, 0), BuildingBlock: XIVTED_clean_linker_0, # of connection points: 2
#     Edge 57, Type (0, 0), BuildingBlock: XIVTED_clean_linker_0, # of connection points: 2
#     Edge 58, Type (0, 0), BuildingBlock: XIVTED_clean_linker_0, # of connection points: 2
#     Edge 59, Type (0, 0), BuildingBlock: XIVTED_clean_linker_0, # of connection points: 2
#     Edge 60, Type (0, 0), BuildingBlock: XIVTED_clean_linker_0, # of connection points: 2
#     Edge 61, Type (0, 0), BuildingBlock: XIVTED_clean_linker_0, # of connection points: 2
#     Edge 62, Type (0, 0), BuildingBlock: XIVTED_clean_linker_0, # of connection points: 2
#     Edge 63, Type (0, 0), BuildingBlock: XIVTED_clean_linker_0, # of connection points: 2
#     Edge 64, Type (0, 0), BuildingBlock: XIVTED_clean_linker_0, # of connection points: 2
#     Edge 65, Type (0, 0), BuildingBlock: XIVTED_clean_linker_0, # of connection points: 2
#     Edge 66, Type (0, 0), BuildingBlock: XIVTED_clean_linker_0, # of connection points: 2
#     Edge 67, Type (0, 0), BuildingBlock: XIVTED_clean_linker_0, # of connection points: 2
#     Edge 68, Type (0, 0), BuildingBlock: XIVTED_clean_linker_0, # of connection points: 2
#     Edge 69, Type (0, 0), BuildingBlock: XIVTED_clean_linker_0, # of connection points: 2
#     Edge 70, Type (0, 0), BuildingBlock: XIVTED_clean_linker_0, # of connection points: 2
#     Edge 71, Type (0, 0), BuildingBlock: XIVTED_clean_linker_0, # of connection points: 2
#     Edge 72, Type (0, 0), BuildingBlock: XIVTED_clean_linker_0, # of connection points: 2
#     Edge 73, Type (0, 0), BuildingBlock: XIVTED_clean_linker_0, # of connection points: 2
#     Edge 74, Type (0, 0), BuildingBlock: XIVTED_clean_linker_0, # of connection points: 2
#     Edge 75, Type (0, 0), BuildingBlock: XIVTED_clean_linker_0, # of connection points: 2
#     Edge 76, Type (0, 0), BuildingBlock: XIVTED_clean_linker_0, # of connection points: 2
#     Edge 77, Type (0, 0), BuildingBlock: XIVTED_clean_linker_0, # of connection points: 2
#     Edge 78, Type (0, 0), BuildingBlock: XIVTED_clean_linker_0, # of connection points: 2
#     Edge 79, Type (0, 0), BuildingBlock: XIVTED_clean_linker_0, # of connection points: 2
#     Edge 80, Type (0, 0), BuildingBlock: XIVTED_clean_linker_0, # of connection points: 2
#     Edge 81, Type (0, 0), BuildingBlock: XIVTED_clean_linker_0, # of connection points: 2
#     Edge 82, Type (0, 0), BuildingBlock: XIVTED_clean_linker_0, # of connection points: 2
#     Edge 83, Type (0, 0), BuildingBlock: XIVTED_clean_linker_0, # of connection points: 2
#     Edge 84, Type (0, 0), BuildingBlock: XIVTED_clean_linker_0, # of connection points: 2
#     Edge 85, Type (0, 0), BuildingBlock: XIVTED_clean_linker_0, # of connection points: 2
#     Edge 86, Type (0, 0), BuildingBlock: XIVTED_clean_linker_0, # of connection points: 2
#     Edge 87, Type (0, 0), BuildingBlock: XIVTED_clean_linker_0, # of connection points: 2
#     Edge 88, Type (0, 0), BuildingBlock: XIVTED_clean_linker_0, # of connection points: 2
#     Edge 89, Type (0, 0), BuildingBlock: XIVTED_clean_linker_0, # of connection points: 2
#     Edge 90, Type (0, 0), BuildingBlock: XIVTED_clean_linker_0, # of connection points: 2
#     Edge 91, Type (0, 0), BuildingBlock: XIVTED_clean_linker_0, # of connection points: 2
#     Edge 92, Type (0, 0), BuildingBlock: XIVTED_clean_linker_0, # of connection points: 2
#     Edge 93, Type (0, 0), BuildingBlock: XIVTED_clean_linker_0, # of connection points: 2
#     Edge 94, Type (0, 0), BuildingBlock: XIVTED_clean_linker_0, # of connection points: 2
#     Edge 95, Type (0, 0), BuildingBlock: XIVTED_clean_linker_0, # of connection points: 2
# Relax obj value: 0.098
# Max RMSD: 0.122
# Mean RMSD: 0.122
data_MOF--net-ukm--node1-GALJAG_clean_sbu_0--edge1-XIVTED_clean_linker_0
_symmetry_space_group_name_H-M    P1
_symmetry_Int_Tables_number       1
_symmetry_cell_setting            triclinic
loop_
_symmetry_equiv_pos_as_xyz
'x, y, z'
_cell_length_a     25.129008
_cell_length_b     103.30332
_cell_length_c     45.293245
_cell_angle_alpha  89.95503
_cell_angle_beta   90.029855
_cell_angle_gamma 90.02378
loop_
_atom_site_label
_atom_site_type_symbol
_atom_site_fract_x
_atom_site_fract_y
_atom_site_fract_z
_atom_type_partial_charge
In0 In 0.09805 0.31246 0.28928 0.0
O1 O 0.04823 0.32089 0.32695 0.0
O2 O 0.06875 0.33319 0.29113 0.0
C3 C 0.06284 0.28782 0.28627 0.0
C4 C 0.19288 0.31231 0.31721 0.0
C5 C 0.09662 0.3188 0.23188 0.0
O6 O 0.03249 0.29716 0.29246 0.0
O7 O 0.11096 0.29088 0.28289 0.0
O8 O 0.1364 0.32093 0.24822 0.0
O9 O 0.05731 0.31365 0.24465 0.0
C10 C 0.04565 0.33205 0.31565 0.0
O11 O 0.18857 0.31265 0.2895 0.0
O12 O 0.14927 0.31194 0.33098 0.0
In13 In 0.14354 0.92896 0.29008 0.0
O14 O 0.05313 0.92879 0.29011 0.0
O15 O 0.09199 0.9304 0.33161 0.0
C16 C 0.14296 0.92149 0.23346 0.0
C17 C 0.19732 0.90982 0.31738 0.0
C18 C 0.18022 0.95339 0.28457 0.0
O19 O 0.10369 0.91973 0.25037 0.0
O20 O 0.18267 0.92692 0.24524 0.0
O21 O 0.20999 0.94408 0.29167 0.0
O22 O 0.13191 0.95046 0.28151 0.0
C23 C 0.0485 0.92978 0.31771 0.0
O24 O 0.19265 0.92094 0.32864 0.0
O25 O 0.17499 0.90846 0.29272 0.0
In26 In 0.1109 0.9272 0.95935 0.0
O27 O 0.05871 0.91923 0.92204 0.0
O28 O 0.08308 0.90639 0.95609 0.0
C29 C 0.07249 0.95125 0.96857 0.0
C30 C 0.20109 0.92814 0.92726 0.0
C31 C 0.12035 0.92008 0.01596 0.0
O32 O 0.04283 0.94185 0.96189 0.0
O33 O 0.12135 0.94861 0.96934 0.0
O34 O 0.16009 0.9216 -0.00072 0.0
O35 O 0.0757 0.92203 0.00395 0.0
C36 C 0.05762 0.90789 0.93239 0.0
O37 O 0.19964 0.9241 0.9535 0.0
O38 O 0.15676 0.9317 0.91693 0.0
In39 In 0.13588 0.31191 0.95644 0.0
O40 O 0.05102 0.31841 0.94806 0.0
O41 O 0.08719 0.30653 0.91546 0.0
C42 C 0.12147 0.31781 0.01352 0.0
C43 C 0.19264 0.33061 0.92958 0.0
C44 C 0.17737 0.28811 0.96514 0.0
O45 O 0.08419 0.31381 -0.00276 0.0
O46 O 0.16604 0.3189 0.00092 0.0
O47 O 0.20589 0.2979 0.96015 0.0
O48 O 0.12805 0.29022 0.96448 0.0
C49 C 0.04633 0.31265 0.92368 0.0
O50 O 0.1679 0.33236 0.95343 0.0
O51 O 0.18896 0.31933 0.91908 0.0
In52 In 0.89844 0.67687 0.70295 0.0
O53 O 0.81333 0.67027 0.69515 0.0
O54 O 0.84697 0.68332 0.66402 0.0
C55 C 0.88838 0.67003 0.75975 0.0
C56 C 0.95431 0.65851 0.67418 0.0
C57 C 0.936 0.70101 0.71202 0.0
O58 O 0.84876 0.67206 0.74325 0.0
O59 O 0.93317 0.67138 0.74751 0.0
O60 O 0.96565 0.69181 0.70402 0.0
O61 O 0.88754 0.69811 0.71443 0.0
C62 C 0.80692 0.6768 0.67189 0.0
O63 O 0.94584 0.66954 0.66316 0.0
O64 O 0.93534 0.65689 0.69961 0.0
In65 In 0.86365 0.06319 0.70777 0.0
O66 O 0.80994 0.0715 0.67173 0.0
O67 O 0.83927 0.08427 0.70471 0.0
C68 C 0.81885 0.03949 0.71214 0.0
C69 C 0.95528 0.06388 0.67694 0.0
C70 C 0.87645 0.06771 0.76563 0.0
O71 O 0.79194 0.04976 0.71271 0.0
O72 O 0.86798 0.04114 0.70827 0.0
O73 O 0.91295 0.06315 0.74964 0.0
O74 O 0.83329 0.07004 0.7524 0.0
C75 C 0.81149 0.08289 0.68175 0.0
O76 O 0.95168 0.0677 0.70328 0.0
O77 O 0.91236 0.05978 0.66583 0.0
In78 In 0.9012 0.06128 0.04222 0.0
O79 O 0.81082 0.06173 0.04379 0.0
O80 O 0.852 0.06005 0.08459 0.0
C81 C 0.90054 0.06699 0.98453 0.0
C82 C 0.95482 0.08126 0.06632 0.0
C83 C 0.93719 0.03674 0.03922 0.0
O84 O 0.86124 0.06927 0.0011 0.0
O85 O 0.94027 0.06198 -0.00281 0.0
O86 O 0.96726 0.04614 0.04541 0.0
O87 O 0.88894 0.03968 0.03584 0.0
C88 C 0.80777 0.06076 0.07148 0.0
O89 O 0.95373 0.07022 0.07825 0.0
O90 O 0.92906 0.08213 0.04257 0.0
In91 In 0.86015 0.67864 0.0339 0.0
O92 O 0.95033 0.67761 0.0369 0.0
O93 O 0.90783 0.68177 0.0763 0.0
C94 C 0.863 0.67103 0.97739 0.0
C95 C 0.80744 0.65936 0.0614 0.0
C96 C 0.82358 0.70294 0.026 0.0
O97 O 0.90313 0.67038 0.99411 0.0
O98 O 0.82131 0.6754 0.98932 0.0
O99 O 0.7936 0.69373 0.03361 0.0
O100 O 0.87196 0.69998 0.02356 0.0
C101 C 0.95243 0.68002 0.06414 0.0
O102 O 0.80825 0.67074 0.07148 0.0
O103 O 0.83286 0.65781 0.03774 0.0
In104 In 0.10816 0.81168 0.78528 0.0
O105 O 0.05315 0.81941 0.82147 0.0
O106 O 0.08623 0.83277 0.79087 0.0
C107 C 0.07125 0.78733 0.77835 0.0
C108 C 0.20034 0.81024 0.81558 0.0
C109 C 0.11052 0.81947 0.72882 0.0
O110 O 0.04132 0.79664 0.78528 0.0
O111 O 0.1197 0.79024 0.77593 0.0
O112 O 0.15115 0.8196 0.74519 0.0
O113 O 0.06839 0.81553 0.74105 0.0
C114 C 0.05696 0.83103 0.81308 0.0
O115 O 0.19834 0.81175 0.788 0.0
O116 O 0.15561 0.80935 0.8281 0.0
In117 In 0.1531 0.42704 0.78586 0.0
O118 O 0.2057 0.41956 0.82356 0.0
O119 O 0.18084 0.4063 0.79052 0.0
C120 C 0.18825 0.45142 0.77711 0.0
C121 C 0.06121 0.4283 0.81645 0.0
C122 C 0.14934 0.41906 0.72963 0.0
O123 O 0.219 0.44232 0.78446 0.0
O124 O 0.13996 0.44829 0.77528 0.0
O125 O 0.1092 0.4188 0.74637 0.0
O126 O 0.19159 0.42321 0.7414 0.0
C127 C 0.20653 0.40808 0.81402 0.0
O128 O 0.06307 0.4257 0.78929 0.0
O129 O 0.10588 0.43028 0.82838 0.0
In130 In 0.11942 0.42955 0.45681 0.0
O131 O 0.20949 0.43175 0.45448 0.0
O132 O 0.1677 0.42942 0.41405 0.0
C133 C 0.12526 0.42127 0.51288 0.0
C134 C 0.06535 0.41044 0.42977 0.0
C135 C 0.07883 0.45363 0.46271 0.0
O136 O 0.16392 0.42036 0.49522 0.0
O137 O 0.0837 0.42626 0.50216 0.0
O138 O 0.05034 0.44395 0.45666 0.0
O139 O 0.12781 0.45125 0.46461 0.0
C140 C 0.21201 0.43083 0.42677 0.0
O141 O 0.0899 0.40888 0.45377 0.0
O142 O 0.06808 0.42172 0.41909 0.0
In143 In 0.14423 0.81146 0.45511 0.0
O144 O 0.19558 0.81972 0.41785 0.0
O145 O 0.17295 0.83219 0.45301 0.0
C146 C 0.18289 0.78718 0.4603 0.0
C147 C 0.05131 0.81059 0.42535 0.0
C148 C 0.13958 0.81899 0.51168 0.0
O149 O 0.21234 0.79675 0.45475 0.0
O150 O 0.13409 0.78979 0.46189 0.0
O151 O 0.10029 0.81992 0.49444 0.0
O152 O 0.18126 0.81437 0.50027 0.0
C153 C 0.19769 0.83091 0.42901 0.0
O154 O 0.05405 0.80998 0.4531 0.0
O155 O 0.09562 0.81155 0.41241 0.0
In156 In 0.89323 0.17793 0.20458 0.0
O157 O 0.94109 0.17094 0.16456 0.0
O158 O 0.93543 0.1586 0.2019 0.0
C159 C 0.9299 0.20201 0.21567 0.0
C160 C 0.80306 0.1773 0.17234 0.0
C161 C 0.87973 0.17037 0.26069 0.0
O162 O 0.95975 0.19305 0.20661 0.0
O163 O 0.88161 0.19895 0.21799 0.0
O164 O 0.84112 0.17316 0.24403 0.0
O165 O 0.92512 0.17137 0.24898 0.0
C166 C 0.95307 0.16022 0.17617 0.0
O167 O 0.81071 0.17014 0.19449 0.0
O168 O 0.8413 0.18474 0.16608 0.0
In169 In 0.85923 0.56025 0.19864 0.0
O170 O 0.94948 0.56176 0.197 0.0
O171 O 0.90905 0.55776 0.15682 0.0
C172 C 0.85664 0.56642 0.25607 0.0
C173 C 0.80723 0.57999 0.17247 0.0
C174 C 0.8243 0.53566 0.2033 0.0
O175 O 0.81656 0.56204 0.24256 0.0
O176 O 0.89788 0.56784 0.24047 0.0
O177 O 0.79428 0.54482 0.1954 0.0
O178 O 0.87206 0.53884 0.2076 0.0
C179 C 0.95296 0.55961 0.16968 0.0
O180 O 0.80688 0.56869 0.1619 0.0
O181 O 0.83346 0.58123 0.19597 0.0
In182 In 0.87975 0.56188 0.53288 0.0
O183 O 0.93176 0.56991 0.57008 0.0
O184 O 0.9113 0.58241 0.53459 0.0
C185 C 0.92109 0.53793 0.52679 0.0
C186 C 0.78926 0.56276 0.56477 0.0
C187 C 0.86906 0.56694 0.4751 0.0
O188 O 0.94947 0.54771 0.53223 0.0
O189 O 0.87188 0.54017 0.52558 0.0
O190 O 0.83027 0.5636 0.49108 0.0
O191 O 0.91312 0.56778 0.48834 0.0
C192 C 0.93558 0.58103 0.55871 0.0
O193 O 0.79474 0.56859 0.5405 0.0
O194 O 0.82972 0.55654 0.57323 0.0
In195 In 0.85503 0.17802 0.53356 0.0
O196 O 0.80405 0.17146 0.57266 0.0
O197 O 0.8231 0.1577 0.53942 0.0
C198 C 0.82179 0.20269 0.52681 0.0
C199 C 0.9496 0.1783 0.56159 0.0
C200 C 0.85407 0.16963 0.47753 0.0
O201 O 0.79015 0.19347 0.53182 0.0
O202 O 0.87018 0.19956 0.52662 0.0
O203 O 0.89369 0.16805 0.4943 0.0
O204 O 0.81489 0.17529 0.48919 0.0
C205 C 0.8 0.15995 0.56356 0.0
O206 O 0.94563 0.17846 0.53383 0.0
O207 O 0.90585 0.17811 0.57525 0.0
In208 In 0.6041 0.31057 0.7873 0.0
O209 O 0.69433 0.31344 0.78872 0.0
O210 O 0.65486 0.30945 0.82906 0.0
C211 C 0.61719 0.31247 0.72867 0.0
C212 C 0.5512 0.33066 0.81092 0.0
C213 C 0.5507 0.28795 0.78688 0.0
O214 O 0.63493 0.30308 0.74352 0.0
O215 O 0.59381 0.3211 0.7435 0.0
O216 O 0.52908 0.2985 0.77967 0.0
O217 O 0.59791 0.28897 0.79596 0.0
C218 C 0.69827 0.31171 0.81616 0.0
O219 O 0.54949 0.31947 0.82215 0.0
O220 O 0.57865 0.33156 0.78772 0.0
In221 In 0.62936 0.9295 0.77853 0.0
O222 O 0.54006 0.92709 0.78327 0.0
O223 O 0.58337 0.93287 0.8214 0.0
C224 C 0.61918 0.92303 0.72145 0.0
C225 C 0.67932 0.9099 0.80619 0.0
C226 C 0.67249 0.95328 0.77171 0.0
O227 O 0.58049 0.92681 0.73691 0.0
O228 O 0.66316 0.92245 0.73484 0.0
O229 O 0.70025 0.94315 0.77322 0.0
O230 O 0.62326 0.95146 0.77471 0.0
C231 C 0.53875 0.9301 0.81021 0.0
O232 O 0.68465 0.92152 0.81428 0.0
O233 O 0.64903 0.90826 0.78434 0.0
In234 In 0.59872 0.92987 0.44632 0.0
O235 O 0.68888 0.92831 0.44619 0.0
O236 O 0.65086 0.93232 0.40528 0.0
C237 C 0.59621 0.92307 0.50338 0.0
C238 C 0.54696 0.91044 0.41889 0.0
C239 C 0.56318 0.95439 0.45168 0.0
O240 O 0.63743 0.92186 0.4877 0.0
O241 O 0.55607 0.92758 0.49013 0.0
O242 O 0.53323 0.9452 0.44389 0.0
O243 O 0.61116 0.95129 0.45542 0.0
C244 C 0.69398 0.93042 0.41893 0.0
O245 O 0.54969 0.92165 0.40791 0.0
O246 O 0.56998 0.90915 0.44339 0.0
In247 In 0.63906 0.31062 0.44996 0.0
O248 O 0.55054 0.31566 0.44792 0.0
O249 O 0.58639 0.30839 0.40905 0.0
C250 C 0.62321 0.31266 0.50838 0.0
C251 C 0.70063 0.32924 0.42601 0.0
C252 C 0.68942 0.28765 0.45185 0.0
O253 O 0.61557 0.3023 0.49433 0.0
O254 O 0.63759 0.32219 0.49282 0.0
O255 O 0.71264 0.29814 0.45809 0.0
O256 O 0.64198 0.28889 0.44322 0.0
C257 C 0.54467 0.31242 0.42134 0.0
O258 O 0.67821 0.33041 0.45073 0.0
O259 O 0.69287 0.31851 0.41343 0.0
In260 In 0.38704 0.67746 0.20741 0.0
O261 O 0.29681 0.67785 0.20447 0.0
O262 O 0.34014 0.68063 0.1647 0.0
C263 C 0.38569 0.66916 0.26351 0.0
C264 C 0.43615 0.65797 0.17901 0.0
C265 C 0.42658 0.70149 0.21548 0.0
O266 O 0.34438 0.66959 0.2477 0.0
O267 O 0.42788 0.67283 0.25091 0.0
O268 O 0.45508 0.69216 0.20702 0.0
O269 O 0.37812 0.69878 0.21886 0.0
C270 C 0.29521 0.67977 0.177 0.0
O271 O 0.44204 0.66964 0.17133 0.0
O272 O 0.40562 0.65625 0.2007 0.0
In273 In 0.3621 0.06205 0.20398 0.0
O274 O 0.45226 0.06292 0.20198 0.0
O275 O 0.41114 0.05889 0.16202 0.0
C276 C 0.36266 0.07011 0.2602 0.0
C277 C 0.31008 0.08105 0.17525 0.0
C278 C 0.3257 0.03777 0.21245 0.0
O279 O 0.40343 0.0706 0.24398 0.0
O280 O 0.32139 0.06569 0.24791 0.0
O281 O 0.29581 0.04691 0.20432 0.0
O282 O 0.37403 0.04078 0.21507 0.0
C283 C 0.45532 0.06059 0.17473 0.0
O284 O 0.30862 0.06944 0.16659 0.0
O285 O 0.33754 0.08295 0.19809 0.0
In286 In 0.39071 0.06359 0.53442 0.0
O287 O 0.30225 0.06732 0.53909 0.0
O288 O 0.34266 0.05982 0.57659 0.0
C289 C 0.38286 0.07065 0.47768 0.0
C290 C 0.44585 0.08262 0.56127 0.0
C291 C 0.42775 0.03934 0.52596 0.0
O292 O 0.34271 0.06919 0.49406 0.0
O293 O 0.42716 0.06864 0.49002 0.0
O294 O 0.45772 0.04865 0.53276 0.0
O295 O 0.37907 0.04214 0.52474 0.0
C296 C 0.29922 0.06359 0.56551 0.0
O297 O 0.44307 0.07134 0.57188 0.0
O298 O 0.42093 0.0842 0.53743 0.0
In299 In 0.36364 0.67797 0.53659 0.0
O300 O 0.45396 0.67916 0.53874 0.0
O301 O 0.41215 0.67742 0.5793 0.0
C302 C 0.36571 0.66984 0.4804 0.0
C303 C 0.30683 0.65928 0.56329 0.0
C304 C 0.32783 0.70248 0.53058 0.0
O305 O 0.40536 0.66874 0.49734 0.0
O306 O 0.32513 0.67495 0.49191 0.0
O307 O 0.29771 0.69321 0.53749 0.0
O308 O 0.37612 0.69949 0.52801 0.0
C309 C 0.45655 0.67834 0.56647 0.0
O310 O 0.31033 0.67056 0.57388 0.0
O311 O 0.33223 0.65751 0.53967 0.0
In312 In 0.61306 0.81119 0.28506 0.0
O313 O 0.56198 0.8195 0.32241 0.0
O314 O 0.58239 0.83179 0.28658 0.0
C315 C 0.57373 0.78704 0.27914 0.0
C316 C 0.70469 0.81166 0.31607 0.0
C317 C 0.62019 0.81663 0.22734 0.0
O318 O 0.54506 0.79651 0.28656 0.0
O319 O 0.62227 0.78968 0.27578 0.0
O320 O 0.66055 0.81436 0.24311 0.0
O321 O 0.57618 0.81616 0.24074 0.0
C322 C 0.55852 0.83058 0.31085 0.0
O323 O 0.69909 0.8173 0.2916 0.0
O324 O 0.66375 0.80582 0.32523 0.0
In325 In 0.6492 0.42652 0.28601 0.0
O326 O 0.56257 0.42104 0.29306 0.0
O327 O 0.59915 0.4329 0.32558 0.0
C328 C 0.64214 0.41949 0.22919 0.0
C329 C 0.70359 0.40784 0.31469 0.0
C330 C 0.68722 0.45054 0.27598 0.0
O331 O 0.60162 0.42156 0.24496 0.0
O332 O 0.68623 0.42085 0.24221 0.0
O333 O 0.7166 0.44141 0.2847 0.0
O334 O 0.63873 0.44766 0.27355 0.0
C335 C 0.55759 0.42716 0.31696 0.0
O336 O 0.6993 0.41915 0.32493 0.0
O337 O 0.68079 0.40608 0.29029 0.0
In338 In 0.62108 0.42804 0.9545 0.0
O339 O 0.56603 0.42039 0.9182 0.0
O340 O 0.59938 0.40692 0.94845 0.0
C341 C 0.58395 0.45236 0.96122 0.0
C342 C 0.71351 0.42953 0.92444 0.0
C343 C 0.62079 0.42044 0.01118 0.0
O344 O 0.55447 0.44306 0.95361 0.0
O345 O 0.63229 0.44947 0.96441 0.0
O346 O 0.6622 0.4202 -0.00456 0.0
O347 O 0.57939 0.42437 -0.00181 0.0
C348 C 0.56986 0.40874 0.92635 0.0
O349 O 0.71143 0.42763 0.9519 0.0
O350 O 0.66884 0.43077 0.912 0.0
In351 In 0.64307 0.81234 0.95122 0.0
O352 O 0.55303 0.81414 0.94869 0.0
O353 O 0.59414 0.80902 0.9094 0.0
C354 C 0.64272 0.81849 0.00865 0.0
C355 C 0.693 0.83223 0.92443 0.0
C356 C 0.67998 0.78796 0.95669 0.0
O357 O 0.60121 0.81888 0.99295 0.0
O358 O 0.68456 0.81518 -0.00479 0.0
O359 O 0.70983 0.79731 0.94981 0.0
O360 O 0.6316 0.79085 0.95956 0.0
C361 C 0.55006 0.81132 0.92167 0.0
O362 O 0.69352 0.82093 0.91389 0.0
O363 O 0.66787 0.83339 0.94831 0.0
In364 In 0.38683 0.17845 0.70214 0.0
O365 O 0.44044 0.17156 0.66436 0.0
O366 O 0.42107 0.15828 0.69853 0.0
C367 C 0.4223 0.20276 0.71138 0.0
C368 C 0.2967 0.17719 0.6701 0.0
C369 C 0.37628 0.17203 0.75918 0.0
O370 O 0.45328 0.19337 0.70697 0.0
O371 O 0.3736 0.2 0.70971 0.0
O372 O 0.33703 0.17505 0.7432 0.0
O373 O 0.42078 0.17218 0.74629 0.0
C374 C 0.44534 0.16026 0.67464 0.0
O375 O 0.30225 0.17155 0.69461 0.0
O376 O 0.33702 0.18343 0.66143 0.0
In377 In 0.34886 0.5628 0.70282 0.0
O378 O 0.29633 0.5705 0.66547 0.0
O379 O 0.31603 0.58317 0.70079 0.0
C380 C 0.31359 0.5382 0.70811 0.0
C381 C 0.44126 0.56257 0.67252 0.0
C382 C 0.35463 0.57061 0.75917 0.0
O383 O 0.28277 0.54753 0.70271 0.0
O384 O 0.362 0.54123 0.70966 0.0
O385 O 0.39261 0.57207 0.74125 0.0
O386 O 0.31358 0.56532 0.74854 0.0
C387 C 0.29202 0.58165 0.67662 0.0
O388 O 0.43913 0.56173 0.70025 0.0
O389 O 0.39664 0.56345 0.65988 0.0
In390 In 0.39336 0.56162 0.03169 0.0
O391 O 0.30306 0.56096 0.03359 0.0
O392 O 0.34489 0.5597 0.07425 0.0
C393 C 0.38693 0.56979 0.97563 0.0
C394 C 0.44515 0.58096 0.05941 0.0
C395 C 0.43333 0.53755 0.02465 0.0
O396 O 0.3481 0.57036 0.99324 0.0
O397 O 0.42925 0.56519 0.98642 0.0
O398 O 0.46223 0.54712 0.03108 0.0
O399 O 0.38445 0.54005 0.02284 0.0
C400 C 0.30043 0.55997 0.06128 0.0
O401 O 0.44275 0.56967 0.07004 0.0
O402 O 0.42184 0.58237 0.03502 0.0
In403 In 0.36191 0.17882 0.03487 0.0
O404 O 0.45218 0.18082 0.03618 0.0
O405 O 0.4121 0.17768 0.07685 0.0
C406 C 0.36135 0.17246 0.97748 0.0
C407 C 0.30928 0.15891 0.05963 0.0
C408 C 0.32325 0.20317 0.0331 0.0
O409 O 0.40113 0.17044 0.99388 0.0
O410 O 0.32195 0.17759 0.99012 0.0
O411 O 0.29434 0.19352 0.03889 0.0
O412 O 0.37178 0.20058 0.02956 0.0
C413 C 0.45587 0.17932 0.06373 0.0
O414 O 0.30962 0.17007 0.07107 0.0
O415 O 0.33535 0.1579 0.036 0.0
H416 H 0.04131 0.38671 0.45217 0.0
H417 H 0.02646 0.3561 0.29339 0.0
H418 H 0.03237 0.40934 0.37224 0.0
H419 H 0.01696 0.33376 0.37374 0.0
H420 H 0.01015 0.37576 0.32173 0.0
H421 H 0.01449 0.36757 0.42442 0.0
C422 C 0.0329 0.38767 0.42881 0.0
C423 C 0.04011 0.39953 0.41429 0.0
C424 C 0.01057 0.36655 0.33315 0.0
C425 C 0.01012 0.37766 0.38231 0.0
C426 C 0.01989 0.35532 0.31697 0.0
C427 C 0.0242 0.34335 0.3314 0.0
C428 C 0.00643 0.36581 0.36402 0.0
C429 C 0.01464 0.34284 0.36185 0.0
C430 C 0.01745 0.37675 0.41298 0.0
C431 C 0.02789 0.40032 0.38416 0.0
N432 N 0.00728 0.35396 0.37728 0.0
N433 N 0.01448 0.38945 0.369 0.0
H434 H 0.22351 0.88634 0.29448 0.0
H435 H 0.22006 0.85454 0.45238 0.0
H436 H 0.22569 0.90819 0.3756 0.0
H437 H 0.2296 0.83271 0.3714 0.0
H438 H 0.24264 0.87417 0.42518 0.0
H439 H 0.24627 0.86684 0.32211 0.0
C440 C 0.2297 0.88706 0.3181 0.0
C441 C 0.22151 0.89879 0.33295 0.0
C442 C 0.2408 0.86506 0.41338 0.0
C443 C 0.24676 0.87652 0.36475 0.0
C444 C 0.22783 0.85386 0.4289 0.0
C445 C 0.22177 0.84208 0.41392 0.0
C446 C 0.2468 0.8645 0.38259 0.0
C447 C 0.23315 0.84166 0.38367 0.0
C448 C 0.24277 0.87593 0.33387 0.0
C449 C 0.23089 0.89927 0.36341 0.0
N450 N 0.24405 0.85278 0.36884 0.0
N451 N 0.24197 0.88821 0.37844 0.0
H452 H 0.03922 0.88372 0.95389 0.0
H453 H 0.00434 0.8305 0.86608 0.0
H454 H 0.02327 0.90688 0.87511 0.0
H455 H 0.05702 0.85644 0.79732 0.0
H456 H 0.98116 0.84922 0.89649 0.0
H457 H 0.01796 0.8645 0.92543 0.0
C458 C 0.02983 0.88478 0.93066 0.0
C459 C 0.03388 0.89684 0.91667 0.0
C460 C 0.99785 0.85083 0.87479 0.0
C461 C 0.00884 0.87486 0.88379 0.0
C462 C 0.01056 0.84014 0.85731 0.0
C463 C 0.03404 0.84196 0.82955 0.0
C464 C 0.00941 0.86336 0.86442 0.0
C465 C 0.04019 0.85462 0.81894 0.0
C466 C 0.0171 0.87378 0.91438 0.0
C467 C 0.02103 0.89772 0.88664 0.0
N468 N 0.02868 0.86485 0.83656 0.0
N469 N 0.01025 0.8868 0.87102 0.0
H470 H 0.23985 0.40771 0.87157 0.0
H471 H 0.23202 0.33076 0.87328 0.0
H472 H 0.2253 0.38369 0.79409 0.0
H473 H 0.2123 0.35491 0.95019 0.0
H474 H 0.25879 0.34986 0.84495 0.0
H475 H 0.25922 0.38835 0.90092 0.0
C476 C 0.24198 0.3984 0.86064 0.0
C477 C 0.22972 0.3972 0.83058 0.0
C478 C 0.24957 0.35093 0.86817 0.0
C479 C 0.25141 0.37512 0.86384 0.0
C480 C 0.23437 0.34004 0.88433 0.0
C481 C 0.21871 0.34135 0.91387 0.0
C482 C 0.24892 0.36317 0.88172 0.0
C483 C 0.22301 0.35354 0.92725 0.0
C484 C 0.25287 0.38736 0.87737 0.0
C485 C 0.23342 0.38496 0.81738 0.0
N486 N 0.23692 0.36403 0.91095 0.0
N487 N 0.24312 0.37436 0.8342 0.0
H488 H 0.95734 0.60484 0.53585 0.0
H489 H 0.98442 0.63487 0.69496 0.0
H490 H 0.97297 0.58215 0.61539 0.0
H491 H 0.97574 0.65753 0.61504 0.0
H492 H 0.0023 0.61561 0.66546 0.0
H493 H 0.98527 0.62402 0.56314 0.0
C494 C 0.96748 0.60387 0.559 0.0
C495 C 0.96167 0.59198 0.57362 0.0
C496 C 0.99754 0.62483 0.65434 0.0
C497 C 0.99302 0.6139 0.60505 0.0
C498 C 0.98736 0.63583 0.67119 0.0
C499 C 0.97732 0.64771 0.65731 0.0
C500 C 0.99679 0.62572 0.62341 0.0
C501 C 0.98244 0.64848 0.62655 0.0
C502 C 0.98353 0.61482 0.57457 0.0
C503 C 0.97616 0.59119 0.60344 0.0
N504 N 0.9907 0.63756 0.61055 0.0
N505 N 0.99019 0.60207 0.61835 0.0
H506 H 0.76493 0.08332 0.62717 0.0
H507 H 0.77373 0.16032 0.62217 0.0
H508 H 0.8029 0.10769 0.7016 0.0
H509 H 0.77437 0.13564 0.54537 0.0
H510 H 0.75499 0.14138 0.65302 0.0
H511 H 0.73946 0.10261 0.59908 0.0
C512 C 0.76696 0.09271 0.63776 0.0
C513 C 0.78719 0.09399 0.66645 0.0
C514 C 0.75814 0.14017 0.62934 0.0
C515 C 0.75835 0.11599 0.63458 0.0
C516 C 0.76861 0.15097 0.61174 0.0
C517 C 0.77679 0.14944 0.58134 0.0
C518 C 0.75581 0.12784 0.61632 0.0
C519 C 0.7694 0.13716 0.56886 0.0
C520 C 0.75248 0.1037 0.62174 0.0
C521 C 0.78849 0.10633 0.67929 0.0
N522 N 0.76012 0.12677 0.58647 0.0
N523 N 0.77503 0.11689 0.66311 0.0
H524 H 0.99103 0.13753 0.1984 0.0
H525 H 0.97212 0.1049 0.04155 0.0
H526 H 0.97329 0.15876 0.11692 0.0
H527 H 0.99209 0.08366 0.12285 0.0
H528 H 0.99518 0.12483 0.06736 0.0
H529 H 0.01454 0.11826 0.17023 0.0
C530 C 0.99312 0.13819 0.17455 0.0
C531 C 0.97896 0.14964 0.15987 0.0
C532 C 0.9955 0.1158 0.0795 0.0
C533 C 0.00495 0.12759 0.1275 0.0
C534 C 0.98226 0.10441 0.06478 0.0
C535 C 0.97898 0.09269 0.08032 0.0
C536 C 0.00468 0.11547 0.11007 0.0
C537 C 0.99339 0.09255 0.1102 0.0
C538 C 0.00654 0.12718 0.15847 0.0
C539 C 0.98316 0.15005 0.12904 0.0
N540 N 0.00458 0.10383 0.12428 0.0
N541 N 0.9947 0.13908 0.11381 0.0
H542 H 0.76903 0.58129 0.11593 0.0
H543 H 0.7741 0.65839 0.1189 0.0
H544 H 0.79314 0.60428 0.19432 0.0
H545 H 0.78796 0.63522 0.04007 0.0
H546 H 0.75245 0.63879 0.14694 0.0
H547 H 0.74732 0.60106 0.08858 0.0
C548 C 0.76867 0.59046 0.1275 0.0
C549 C 0.78404 0.59123 0.15719 0.0
C550 C 0.75924 0.63805 0.12339 0.0
C551 C 0.75959 0.61378 0.12619 0.0
C552 C 0.77143 0.64922 0.1074 0.0
C553 C 0.78397 0.64833 0.07733 0.0
C554 C 0.75956 0.62598 0.10909 0.0
C555 C 0.77959 0.63626 0.06339 0.0
C556 C 0.75641 0.60173 0.1119 0.0
C557 C 0.78251 0.60332 0.17125 0.0
N558 N 0.76847 0.62551 0.07947 0.0
N559 N 0.77131 0.61416 0.15551 0.0
H560 H 0.51739 0.40942 0.87329 0.0
H561 H 0.53911 0.3548 0.78783 0.0
H562 H 0.56695 0.38339 0.94258 0.0
H563 H 0.51589 0.33281 0.86779 0.0
H564 H 0.52376 0.37466 0.81527 0.0
H565 H 0.49001 0.39076 0.84367 0.0
C566 C 0.52209 0.39978 0.88233 0.0
C567 C 0.54574 0.39789 0.91004 0.0
C568 C 0.51999 0.36553 0.82676 0.0
C569 C 0.51595 0.37655 0.87616 0.0
C570 C 0.52923 0.35416 0.81106 0.0
C571 C 0.52959 0.3422 0.8257 0.0
C572 C 0.51159 0.36491 0.8574 0.0
C573 C 0.51639 0.34187 0.85575 0.0
C574 C 0.50692 0.38912 0.86532 0.0
C575 C 0.54999 0.38524 0.92101 0.0
N576 N 0.50918 0.35311 0.87078 0.0
N577 N 0.53585 0.37504 0.90389 0.0
H578 H 0.70821 0.85649 0.94613 0.0
H579 H 0.73415 0.91036 0.8585 0.0
H580 H 0.72424 0.83382 0.8667 0.0
H581 H 0.67768 0.88447 0.79063 0.0
H582 H 0.75969 0.89161 0.88835 0.0
H583 H 0.7245 0.87604 0.91768 0.0
C584 C 0.71661 0.85562 0.92276 0.0
C585 C 0.7141 0.84357 0.90862 0.0
C586 C 0.74164 0.89002 0.86697 0.0
C587 C 0.73331 0.86593 0.87576 0.0
C588 C 0.72754 0.90072 0.84981 0.0
C589 C 0.70249 0.89892 0.82246 0.0
C590 C 0.73008 0.8775 0.85666 0.0
C591 C 0.69579 0.88627 0.81193 0.0
C592 C 0.72646 0.86681 0.90648 0.0
C593 C 0.72546 0.84295 0.87837 0.0
N594 N 0.7089 0.87603 0.82922 0.0
N595 N 0.73337 0.85403 0.86279 0.0
H596 H 0.52094 0.83199 0.36748 0.0
H597 H 0.51667 0.90891 0.36091 0.0
H598 H 0.53949 0.85448 0.28782 0.0
H599 H 0.5265 0.88649 0.44113 0.0
H600 H 0.49744 0.88903 0.33349 0.0
H601 H 0.49559 0.85171 0.39386 0.0
C602 C 0.51867 0.84104 0.35543 0.0
C603 C 0.53353 0.8417 0.32566 0.0
C604 C 0.5028 0.88851 0.35719 0.0
C605 C 0.50498 0.86423 0.35557 0.0
C606 C 0.51362 0.89985 0.37282 0.0
C607 C 0.52443 0.89925 0.40314 0.0
C608 C 0.50293 0.87656 0.37208 0.0
C609 C 0.51952 0.8873 0.41761 0.0
C610 C 0.50429 0.85229 0.37048 0.0
C611 C 0.52938 0.85362 0.31097 0.0
N612 N 0.50995 0.87639 0.40187 0.0
N613 N 0.51628 0.86446 0.32619 0.0
H614 H 0.73997 0.33036 0.36977 0.0
H615 H 0.73348 0.40719 0.37286 0.0
H616 H 0.72031 0.35322 0.44873 0.0
H617 H 0.72854 0.38393 0.29383 0.0
H618 H 0.75625 0.3878 0.40137 0.0
H619 H 0.76401 0.35 0.34275 0.0
C620 C 0.74185 0.33947 0.38156 0.0
C621 C 0.72684 0.34025 0.4113 0.0
C622 C 0.75121 0.387 0.37769 0.0
C623 C 0.75358 0.36272 0.38055 0.0
C624 C 0.73834 0.39805 0.36144 0.0
C625 C 0.7279 0.39705 0.33113 0.0
C626 C 0.75353 0.37493 0.36343 0.0
C627 C 0.73517 0.38504 0.31731 0.0
C628 C 0.75543 0.35069 0.36612 0.0
C629 C 0.73057 0.35225 0.42562 0.0
N630 N 0.74673 0.3744 0.33364 0.0
N631 N 0.74261 0.36307 0.40997 0.0
H632 H 0.46471 0.60512 0.03814 0.0
H633 H 0.49144 0.65853 0.12684 0.0
H634 H 0.47487 0.58211 0.11745 0.0
H635 H 0.43357 0.63251 0.19414 0.0
H636 H 0.51653 0.63984 0.09677 0.0
H637 H 0.48273 0.62444 0.06696 0.0
C638 C 0.47219 0.60411 0.06159 0.0
C639 C 0.46742 0.59206 0.07557 0.0
C640 C 0.49824 0.63821 0.11807 0.0
C641 C 0.48867 0.61415 0.10887 0.0
C642 C 0.4844 0.64888 0.13534 0.0
C643 C 0.45907 0.64703 0.16259 0.0
C644 C 0.48607 0.62567 0.12813 0.0
C645 C 0.45186 0.63435 0.17291 0.0
C646 C 0.48303 0.61517 0.07809 0.0
C647 C 0.47774 0.59126 0.10591 0.0
N648 N 0.46466 0.62415 0.1555 0.0
N649 N 0.48671 0.60222 0.12169 0.0
H650 H 0.29509 0.13489 0.03637 0.0
H651 H 0.26259 0.08046 0.12072 0.0
H652 H 0.27077 0.15701 0.11596 0.0
H653 H 0.30357 0.10624 0.19212 0.0
H654 H 0.23876 0.09922 0.09049 0.0
H655 H 0.27389 0.11522 0.06322 0.0
C656 C 0.28389 0.13562 0.05941 0.0
C657 C 0.28565 0.14754 0.07416 0.0
C658 C 0.25304 0.10079 0.11273 0.0
C659 C 0.26059 0.12502 0.10519 0.0
C660 C 0.26609 0.09007 0.13008 0.0
C661 C 0.28656 0.09186 0.15858 0.0
C662 C 0.26123 0.11333 0.12399 0.0
C663 C 0.28922 0.10446 0.16994 0.0
C664 C 0.27119 0.12435 0.07476 0.0
C665 C 0.27044 0.14798 0.10388 0.0
N666 N 0.27749 0.11473 0.15246 0.0
N667 N 0.25969 0.13682 0.11861 0.0
H668 H 0.48414 0.08322 0.61785 0.0
H669 H 0.47936 0.16005 0.61723 0.0
H670 H 0.46453 0.10684 0.54 0.0
H671 H 0.47019 0.13632 0.69549 0.0
H672 H 0.50354 0.14084 0.58859 0.0
H673 H 0.50843 0.10261 0.64581 0.0
C674 C 0.48604 0.09244 0.60652 0.0
C675 C 0.47099 0.09353 0.57683 0.0
C676 C 0.4973 0.1399 0.61215 0.0
C677 C 0.49829 0.11567 0.60853 0.0
C678 C 0.48365 0.15085 0.62848 0.0
C679 C 0.47143 0.14966 0.65854 0.0
C680 C 0.49851 0.12773 0.62607 0.0
C681 C 0.47811 0.13757 0.67217 0.0
C682 C 0.49982 0.1035 0.62246 0.0
C683 C 0.4747 0.10566 0.56307 0.0
N684 N 0.49032 0.12702 0.65573 0.0
N685 N 0.48713 0.11631 0.57916 0.0
H686 H 0.27991 0.63583 0.5405 0.0
H687 H 0.26718 0.60533 0.69909 0.0
H688 H 0.27257 0.65833 0.62059 0.0
H689 H 0.26185 0.583 0.61869 0.0
H690 H 0.24682 0.62481 0.67083 0.0
H691 H 0.25152 0.61676 0.56806 0.0
C692 C 0.27146 0.63678 0.56386 0.0
C693 C 0.27982 0.64855 0.57851 0.0
C694 C 0.24899 0.61563 0.65938 0.0
C695 C 0.24813 0.62676 0.61027 0.0
C696 C 0.26064 0.6045 0.67552 0.0
C697 C 0.26753 0.59263 0.66102 0.0
C698 C 0.24521 0.61488 0.6285 0.0
C699 C 0.25772 0.59202 0.63061 0.0
C700 C 0.25512 0.6259 0.57958 0.0
C701 C 0.26736 0.64936 0.6086 0.0
N702 N 0.24822 0.60307 0.61521 0.0
N703 N 0.25321 0.63851 0.62366 0.0
H704 H 0.44786 0.31854 0.44491 0.0
H705 H 0.29134 0.3108 0.29207 0.0
H706 H 0.52359 0.3075 0.36323 0.0
H707 H 0.21285 0.31421 0.37643 0.0
H708 H 0.37739 0.31121 0.31722 0.0
H709 H 0.36187 0.31874 0.41958 0.0
C710 C 0.44637 0.3162 0.42161 0.0
C711 C 0.49282 0.31297 0.40612 0.0
C712 C 0.34136 0.31185 0.33025 0.0
C713 C 0.39473 0.31318 0.37704 0.0
C714 C 0.29225 0.31163 0.31591 0.0
C715 C 0.24497 0.31244 0.33223 0.0
C716 C 0.34321 0.31298 0.36112 0.0
C717 C 0.24841 0.31352 0.36304 0.0
C718 C 0.39729 0.31627 0.4072 0.0
C719 C 0.48868 0.31001 0.376 0.0
N720 N 0.29674 0.31378 0.3765 0.0
N721 N 0.44047 0.3102 0.36242 0.0
H722 H 0.95055 0.93013 0.29176 0.0
H723 H 0.79164 0.928 0.44467 0.0
H724 H 0.02736 0.93017 0.377 0.0
H725 H 0.71561 0.93313 0.36002 0.0
H726 H 0.87825 0.92802 0.42021 0.0
H727 H 0.86402 0.93048 0.31628 0.0
C728 C 0.94917 0.93022 0.31566 0.0
C729 C 0.99615 0.93012 0.33241 0.0
C730 C 0.84267 0.92918 0.40697 0.0
C731 C 0.89727 0.9305 0.36061 0.0
C732 C 0.79321 0.92914 0.42091 0.0
C733 C 0.74643 0.93057 0.40431 0.0
C734 C 0.84538 0.93058 0.37617 0.0
C735 C 0.75074 0.93202 0.37363 0.0
C736 C 0.89976 0.93044 0.32964 0.0
C737 C 0.99208 0.93025 0.36328 0.0
N738 N 0.79938 0.93196 0.36052 0.0
N739 N 0.94345 0.9304 0.3764 0.0
H740 H 0.43757 0.92834 0.78888 0.0
H741 H 0.30199 0.92443 0.94763 0.0
H742 H 0.52626 0.93211 0.87004 0.0
H743 H 0.21367 0.93305 0.86828 0.0
H744 H 0.38458 0.92525 0.91921 0.0
H745 H 0.35488 0.92815 0.8173 0.0
C746 C 0.43959 0.92914 0.8127 0.0
C747 C 0.48874 0.93024 0.82718 0.0
C748 C 0.34715 0.92701 0.90804 0.0
C749 C 0.39446 0.92994 0.85977 0.0
C750 C 0.30001 0.9265 0.9242 0.0
C751 C 0.251 0.92868 0.91023 0.0
C752 C 0.3452 0.92958 0.87763 0.0
C753 C 0.25068 0.93134 0.87987 0.0
C754 C 0.39241 0.92907 0.82888 0.0
C755 C 0.48914 0.93127 0.85804 0.0
N756 N 0.29713 0.93165 0.86452 0.0
N757 N 0.44266 0.93102 0.87336 0.0
H758 H 0.71465 0.31311 0.87557 0.0
H759 H 0.02933 0.30461 0.86679 0.0
H760 H 0.79834 0.31125 0.79252 0.0
H761 H 0.9493 0.321 0.94228 0.0
H762 H 0.94449 0.30464 0.83988 0.0
H763 H 0.80012 0.31362 0.90141 0.0
C764 C 0.75107 0.3128 0.8628 0.0
C765 C 0.74957 0.31215 0.8319 0.0
C766 C 0.9457 0.30827 0.8623 0.0
C767 C 0.84727 0.31262 0.86126 0.0
C768 C 0.99394 0.30822 0.87765 0.0
C769 C 0.99621 0.31281 0.90675 0.0
C770 C 0.89945 0.31276 0.87638 0.0
C771 C 0.9493 0.31741 0.91983 0.0
C772 C 0.79977 0.31314 0.87753 0.0
C773 C 0.79787 0.3118 0.81638 0.0
N774 N 0.90276 0.31718 0.90462 0.0
N775 N 0.84488 0.31195 0.83125 0.0
H776 H 0.78584 0.68781 0.61819 0.0
H777 H 0.47411 0.67267 0.62463 0.0
H778 H 0.71215 0.66633 0.68898 0.0
H779 H 0.55515 0.68384 0.54458 0.0
H780 H 0.55982 0.67225 0.65034 0.0
H781 H 0.70019 0.68833 0.59236 0.0
C782 C 0.75164 0.6832 0.62825 0.0
C783 C 0.756 0.67701 0.65571 0.0
C784 C 0.55881 0.67479 0.62715 0.0
C785 C 0.65809 0.67764 0.6265 0.0
C786 C 0.50994 0.67508 0.61251 0.0
C787 C 0.50766 0.67829 0.58246 0.0
C788 C 0.60558 0.67787 0.61167 0.0
C789 C 0.55524 0.68129 0.56776 0.0
C790 C 0.70286 0.68347 0.61351 0.0
C791 C 0.71051 0.67118 0.6678 0.0
N792 N 0.60228 0.68105 0.58254 0.0
N793 N 0.66336 0.67169 0.65317 0.0
H794 H 0.0548 0.06733 0.69958 0.0
H795 H 0.19984 0.06755 0.5433 0.0
H796 H 0.97142 0.06064 0.61768 0.0
H797 H 0.28324 0.0598 0.62474 0.0
H798 H 0.11579 0.06767 0.57041 0.0
H799 H 0.13917 0.06721 0.67262 0.0
C800 C 0.05428 0.06587 0.67589 0.0
C801 C 0.00617 0.06398 0.66078 0.0
C802 C 0.15246 0.0659 0.58232 0.0
C803 C 0.1023 0.06392 0.6299 0.0
C804 C 0.20044 0.06587 0.56692 0.0
C805 C 0.24849 0.06363 0.58184 0.0
C806 C 0.15259 0.06385 0.61294 0.0
C807 C 0.247 0.06152 0.61241 0.0
C808 C 0.10241 0.06575 0.66058 0.0
C809 C 0.0077 0.0621 0.63014 0.0
N810 N 0.19975 0.06174 0.62703 0.0
N811 N 0.05505 0.06218 0.61565 0.0
H812 H 0.47286 0.05758 0.11548 0.0
H813 H 0.79036 0.06029 0.13108 0.0
H814 H 0.55469 0.06257 0.19849 0.0
H815 H 0.70823 0.06049 0.04738 0.0
H816 H 0.70436 0.05988 0.15636 0.0
H817 H 0.55892 0.05733 0.09017 0.0
C818 C 0.50896 0.05859 0.12836 0.0
C819 C 0.50673 0.06012 0.15909 0.0
C820 C 0.70515 0.06002 0.13246 0.0
C821 C 0.60514 0.05983 0.13038 0.0
C822 C 0.75421 0.06024 0.11804 0.0
C823 C 0.75633 0.06045 0.08712 0.0
C824 C 0.65793 0.05994 0.11581 0.0
C825 C 0.70833 0.06036 0.07128 0.0
C826 C 0.55803 0.05847 0.11393 0.0
C827 C 0.55464 0.06139 0.17474 0.0
N828 N 0.66108 0.06011 0.0858 0.0
N829 N 0.60188 0.06122 0.16022 0.0
H830 H 0.05288 0.67826 0.04167 0.0
H831 H 0.19465 0.68005 0.19962 0.0
H832 H 0.96749 0.6831 0.12356 0.0
H833 H 0.28064 0.68131 0.11722 0.0
H834 H 0.11095 0.68069 0.17221 0.0
H835 H 0.1367 0.67883 0.06899 0.0
C836 C 0.05181 0.67947 0.06542 0.0
C837 C 0.00322 0.68062 0.08042 0.0
C838 C 0.14809 0.68088 0.16011 0.0
C839 C 0.09894 0.68125 0.11181 0.0
C840 C 0.19588 0.6805 0.17574 0.0
C841 C 0.24459 0.68061 0.16063 0.0
C842 C 0.149 0.68128 0.12913 0.0
C843 C 0.24392 0.68122 0.12971 0.0
C844 C 0.09967 0.67982 0.08099 0.0
C845 C 0.00411 0.68218 0.11116 0.0
N846 N 0.19682 0.68147 0.11495 0.0
N847 N 0.05124 0.6824 0.12588 0.0
H848 H 0.53366 0.8075 0.86264 0.0
H849 H 0.21585 0.80954 0.8754 0.0
H850 H 0.45016 0.81384 0.9446 0.0
H851 H 0.3005 0.81 0.79252 0.0
H852 H 0.30119 0.80943 0.90154 0.0
H853 H 0.44822 0.80675 0.8368 0.0
C854 C 0.49732 0.80871 0.87518 0.0
C855 C 0.4989 0.81076 0.90576 0.0
C856 C 0.30105 0.80955 0.87763 0.0
C857 C 0.40113 0.80988 0.87644 0.0
C858 C 0.2524 0.80957 0.86273 0.0
C859 C 0.25121 0.8098 0.83179 0.0
C860 C 0.34874 0.80967 0.86143 0.0
C861 C 0.29967 0.80985 0.81642 0.0
C862 C 0.44859 0.80831 0.86044 0.0
C863 C 0.45068 0.81228 0.92097 0.0
N864 N 0.34647 0.80978 0.8314 0.0
N865 N 0.40372 0.81179 0.90615 0.0
H866 H 0.72845 0.43111 0.86474 0.0
H867 H 0.04661 0.43155 0.87587 0.0
H868 H 0.81408 0.42898 0.94722 0.0
H869 H 0.96062 0.42658 0.79415 0.0
H870 H 0.96177 0.43238 0.90236 0.0
H871 H 0.81335 0.43127 0.83832 0.0
C872 C 0.76514 0.43072 0.87727 0.0
C873 C 0.76432 0.43 0.90818 0.0
C874 C 0.96149 0.43111 0.87863 0.0
C875 C 0.86146 0.43019 0.87818 0.0
C876 C 0.00987 0.43066 0.86352 0.0
C877 C 0.01056 0.42897 0.83281 0.0
C878 C 0.91355 0.42995 0.86287 0.0
C879 C 0.96185 0.42786 0.81786 0.0
C880 C 0.81356 0.43078 0.8622 0.0
C881 C 0.81297 0.42951 0.92335 0.0
N882 N 0.91531 0.42838 0.83303 0.0
N883 N 0.8596 0.42961 0.9082 0.0
H884 H 0.461 0.41811 0.29893 0.0
H885 H 0.31085 0.43624 0.44865 0.0
H886 H 0.53829 0.43759 0.37149 0.0
H887 H 0.22918 0.4256 0.36841 0.0
H888 H 0.39547 0.43558 0.42198 0.0
H889 H 0.37654 0.4194 0.32542 0.0
C890 C 0.46018 0.42264 0.32049 0.0
C891 C 0.50666 0.42775 0.33307 0.0
C892 C 0.35901 0.43345 0.41019 0.0
C893 C 0.41017 0.42925 0.36351 0.0
C894 C 0.31075 0.43381 0.42538 0.0
C895 C 0.26301 0.43097 0.41068 0.0
C896 C 0.35955 0.4301 0.38015 0.0
C897 C 0.26509 0.42788 0.38056 0.0
C898 C 0.41192 0.42342 0.33554 0.0
C899 C 0.50332 0.43354 0.36101 0.0
N900 N 0.31263 0.42746 0.36632 0.0
N901 N 0.45587 0.4341 0.37537 0.0
H902 H 0.8 0.82129 0.29749 0.0
H903 H 0.95286 0.80543 0.44785 0.0
H904 H 0.72538 0.80204 0.37125 0.0
H905 H 0.03329 0.81545 0.36683 0.0
H906 H 0.86795 0.80567 0.42145 0.0
H907 H 0.88469 0.8209 0.32399 0.0
C908 C 0.80144 0.817 0.31931 0.0
C909 C 0.75567 0.81168 0.33222 0.0
C910 C 0.90418 0.80778 0.40943 0.0
C911 C 0.85239 0.81122 0.36265 0.0
C912 C 0.95262 0.80767 0.42448 0.0
C913 C 1.0001 0.81042 0.40946 0.0
C914 C 0.90319 0.8108 0.37921 0.0
C915 C 0.99757 0.81324 0.37921 0.0
C916 C 0.84983 0.81675 0.33437 0.0
C917 C 0.75978 0.80624 0.36051 0.0
N918 N 0.94985 0.81342 0.36509 0.0
N919 N 0.80733 0.80617 0.37483 0.0
H920 H 0.71129 0.16475 0.18681 0.0
H921 H 0.55319 0.18626 0.04198 0.0
H922 H 0.77969 0.1897 0.12044 0.0
H923 H 0.47588 0.17206 0.12065 0.0
H924 H 0.63867 0.18565 0.06795 0.0
H925 H 0.62675 0.16522 0.16017 0.0
C926 C 0.70854 0.17029 0.16655 0.0
C927 C 0.75247 0.17722 0.15581 0.0
C928 C 0.60296 0.1827 0.07952 0.0
C929 C 0.65592 0.17778 0.12523 0.0
C930 C 0.55424 0.18302 0.06472 0.0
C931 C 0.50747 0.17923 0.07925 0.0
C932 C 0.60492 0.17839 0.1089 0.0
C933 C 0.511 0.17512 0.1087 0.0
C934 C 0.66023 0.1706 0.15144 0.0
C935 C 0.7467 0.18425 0.12949 0.0
N936 N 0.55896 0.17475 0.12252 0.0
N937 N 0.69927 0.18433 0.11502 0.0
H938 H 0.20083 0.55903 0.03744 0.0
H939 H 0.05231 0.56198 0.19347 0.0
H940 H 0.28344 0.55971 0.12098 0.0
H941 H 0.97076 0.55665 0.11049 0.0
H942 H 0.13732 0.56171 0.1673 0.0
H943 H 0.11609 0.55864 0.06378 0.0
C944 C 0.20111 0.55907 0.06136 0.0
C945 C 0.24918 0.55941 0.07708 0.0
C946 C 0.10086 0.56057 0.15481 0.0
C947 C 0.15234 0.55901 0.10738 0.0
C948 C 0.05233 0.56074 0.16973 0.0
C949 C 0.00447 0.55934 0.15409 0.0
C950 C 0.10154 0.55904 0.12401 0.0
C951 C 0.00677 0.55776 0.12338 0.0
C952 C 0.15271 0.55884 0.07638 0.0
C953 C 0.24725 0.55944 0.10802 0.0
N954 N 0.05452 0.55768 0.10932 0.0
N955 N 0.19956 0.55929 0.12218 0.0
H956 H 0.76998 0.55318 0.62009 0.0
H957 H 0.45766 0.56769 0.61398 0.0
H958 H 0.6938 0.57267 0.54713 0.0
H959 H 0.54047 0.55762 0.69427 0.0
H960 H 0.54287 0.56794 0.5878 0.0
H961 H 0.68506 0.55318 0.64659 0.0
C962 C 0.73539 0.55748 0.60969 0.0
C963 C 0.73883 0.56294 0.58141 0.0
C964 C 0.54237 0.56569 0.61116 0.0
C965 C 0.64171 0.56288 0.61141 0.0
C966 C 0.49378 0.5655 0.62606 0.0
C967 C 0.49212 0.56263 0.6563 0.0
C968 C 0.5895 0.56286 0.62657 0.0
C969 C 0.54005 0.5599 0.67094 0.0
C970 C 0.68701 0.55749 0.62482 0.0
C971 C 0.69287 0.56838 0.56893 0.0
N972 N 0.58681 0.56004 0.6559 0.0
N973 N 0.64612 0.56816 0.58396 0.0
H974 H 0.04823 0.18221 0.53777 0.0
H975 H 0.20199 0.16713 0.68821 0.0
H976 H 0.96867 0.17393 0.62006 0.0
H977 H 0.27647 0.18646 0.61451 0.0
H978 H 0.11763 0.16721 0.66144 0.0
H979 H 0.13385 0.18166 0.56363 0.0
C980 C 0.04882 0.18028 0.56127 0.0
C981 C 0.0014 0.17814 0.57686 0.0
C982 C 0.15241 0.17144 0.65111 0.0
C983 C 0.09891 0.17739 0.60642 0.0
C984 C 0.20061 0.17135 0.66632 0.0
C985 C 0.24619 0.17683 0.65356 0.0
C986 C 0.14983 0.17695 0.62282 0.0
C987 C 0.24216 0.18217 0.62516 0.0
C988 C 0.09762 0.17999 0.576 0.0
C989 C 0.00433 0.17568 0.60726 0.0
N990 N 0.19475 0.18208 0.61067 0.0
N991 N 0.05231 0.17532 0.62103 0.0
H992 H 0.03314 0.21039 0.21684 0.0
H993 H 0.95996 0.27917 0.28756 0.0
H994 H 0.87278 0.2224 0.23706 0.0
H995 H 0.12058 0.26675 0.26937 0.0
H996 H 0.92732 0.25813 0.27069 0.0
H997 H 0.06609 0.23096 0.23633 0.0
C998 C 0.00487 0.2174 0.22518 0.0
C999 C 0.95019 0.21472 0.22528 0.0
C1000 C 0.96974 0.25998 0.27058 0.0
C1001 C 0.9875 0.23819 0.24788 0.0
C1002 C 0.98838 0.27196 0.28035 0.0
C1003 C 0.043 0.2747 0.27977 0.0
C1004 C 0.00603 0.25071 0.26006 0.0
C1005 C 0.07811 0.26503 0.27014 0.0
C1006 C 0.02368 0.22911 0.23645 0.0
C1007 C 0.91528 0.2241 0.2365 0.0
N1008 N 0.05899 0.25349 0.26049 0.0
N1009 N 0.93454 0.23541 0.24739 0.0
H1010 H 0.12353 0.97452 0.26687 0.0
H1011 H 0.38249 0.01701 0.23232 0.0
H1012 H 0.2838 0.96152 0.28402 0.0
H1013 H 0.22224 0.0296 0.21356 0.0
H1014 H 0.34719 -0.00335 0.25152 0.0
H1015 H 0.1589 -0.00495 0.24872 0.0
C1016 C 0.16618 0.97605 0.2671 0.0
C1017 C 0.20085 0.96632 0.27691 0.0
C1018 C 0.31973 0.00383 0.24309 0.0
C1019 C 0.24164 0.98971 0.25582 0.0
C1020 C 0.33987 0.01543 0.23199 0.0
C1021 C 0.30518 0.02499 0.22132 0.0
C1022 C 0.26449 0.00179 0.24358 0.0
C1023 C 0.25036 0.02247 0.22152 0.0
C1024 C 0.18637 0.98774 0.25659 0.0
C1025 C 0.25571 0.96879 0.27667 0.0
N1026 N 0.23167 0.01112 0.23259 0.0
N1027 N 0.27446 0.98023 0.26614 0.0
H1028 H 0.04056 0.02849 0.03927 0.0
H1029 H 0.96853 0.95889 0.97234 0.0
H1030 H 0.87996 0.01543 0.02327 0.0
H1031 H 0.12916 0.97237 0.98632 0.0
H1032 H 0.93508 0.97942 0.99172 0.0
H1033 H 0.07374 0.00757 0.02206 0.0
C1034 C 0.01228 0.02116 0.03248 0.0
C1035 C 0.95749 0.02369 0.03261 0.0
C1036 C 0.97766 0.97791 0.99046 0.0
C1037 C 0.99505 -0.00016 0.01251 0.0
C1038 C 0.99673 0.96622 0.97925 0.0
C1039 C 0.05165 0.96396 0.97768 0.0
C1040 C 0.01381 0.98737 0.0002 0.0
C1041 C 0.08648 0.97374 0.98709 0.0
C1042 C 0.03121 0.00925 0.02248 0.0
C1043 C 0.92256 0.01388 0.02348 0.0
N1044 N 0.06696 0.98501 -0.00199 0.0
N1045 N 0.94195 0.0024 0.01364 0.0
H1046 H 0.21885 0.2106 0.03309 0.0
H1047 H 0.2822 0.28148 0.97044 0.0
H1048 H 0.37779 0.22508 0.0184 0.0
H1049 H 0.12336 0.26622 0.98071 0.0
H1050 H 0.31812 0.26108 0.98926 0.0
H1051 H 0.18304 0.23139 0.0166 0.0
C1052 C 0.24621 0.21822 0.02675 0.0
C1053 C 0.30132 0.21612 0.02702 0.0
C1054 C 0.27541 0.26218 0.98731 0.0
C1055 C 0.26074 0.23983 0.00776 0.0
C1056 C 0.25493 0.27379 0.97643 0.0
C1057 C 0.19977 0.27551 0.97397 0.0
C1058 C 0.24043 0.25224 -0.00415 0.0
C1059 C 0.16618 0.26527 0.98218 0.0
C1060 C 0.22577 0.23005 0.01716 0.0
C1061 C 0.335 0.22629 0.01848 0.0
N1062 N 0.18705 0.25408 0.99284 0.0
N1063 N 0.31416 0.23769 0.00905 0.0
H1064 H 0.03944 0.70927 0.71217 0.0
H1065 H 0.96799 0.77897 0.77875 0.0
H1066 H 0.87938 0.72186 0.73128 0.0
H1067 H 0.12823 0.76629 0.76048 0.0
H1068 H 0.93477 0.75795 0.76217 0.0
H1069 H 0.07287 0.73017 0.72952 0.0
C1070 C 0.01134 0.71648 0.71981 0.0
C1071 C 0.95661 0.71386 0.72028 0.0
C1072 C 0.97722 0.75974 0.7619 0.0
C1073 C 0.99445 0.7377 0.7404 0.0
C1074 C 0.99618 0.77172 0.77149 0.0
C1075 C 0.05089 0.77435 0.77096 0.0
C1076 C 0.01327 0.75036 0.75167 0.0
C1077 C 0.08571 0.76464 0.76125 0.0
C1078 C 0.03041 0.72838 0.72983 0.0
C1079 C 0.92191 0.7235 0.73051 0.0
N1080 N 0.06629 0.75308 0.75188 0.0
N1081 N 0.94143 0.73499 0.74023 0.0
H1082 H 0.77616 0.95918 0.75957 0.0
H1083 H 0.71513 0.03371 0.72456 0.0
H1084 H 0.6201 0.97632 0.76665 0.0
H1085 H 0.87004 0.01621 0.71472 0.0
H1086 H 0.67925 0.01271 0.73956 0.0
H1087 H 0.81157 0.98009 0.7437 0.0
C1088 C 0.74945 0.96738 0.75801 0.0
C1089 C 0.69516 0.96604 0.76444 0.0
C1090 C 0.72104 0.01345 0.73398 0.0
C1091 C 0.7352 0.98994 0.74604 0.0
C1092 C 0.74146 0.02541 0.72529 0.0
C1093 C 0.79561 0.02668 0.71842 0.0
C1094 C 0.75507 0.00269 0.73587 0.0
C1095 C 0.82803 0.01565 0.71983 0.0
C1096 C 0.76961 0.9793 0.74881 0.0
C1097 C 0.66225 0.97695 0.76192 0.0
N1098 N 0.80729 0.00412 0.72852 0.0
N1099 N 0.68278 0.98844 0.75286 0.0
H1100 H 0.62291 0.76674 0.97334 0.0
H1101 H 0.88083 0.72388 0.0076 0.0
H1102 H 0.78358 0.77983 0.95777 0.0
H1103 H 0.72013 0.71111 0.02446 0.0
H1104 H 0.84607 0.74444 0.98924 0.0
H1105 H 0.65777 0.74607 0.99086 0.0
C1106 C 0.66555 0.7652 0.97333 0.0
C1107 C 0.70047 0.775 0.96413 0.0
C1108 C 0.81839 0.73717 -0.00294 0.0
C1109 C 0.74067 0.75143 0.9845 0.0
C1110 C 0.83821 0.72546 0.00768 0.0
C1111 C 0.80325 0.7158 0.01758 0.0
C1112 C 0.76318 0.73922 -0.00373 0.0
C1113 C 0.74845 0.71832 0.01709 0.0
C1114 C 0.68544 0.75342 0.98348 0.0
C1115 C 0.75531 0.77252 0.96464 0.0
N1116 N 0.73007 0.72979 0.0065 0.0
N1117 N 0.77377 0.76099 0.9748 0.0
H1118 H 0.21072 0.52959 0.71017 0.0
H1119 H 0.2911 0.46003 0.77459 0.0
H1120 H 0.37295 0.51713 0.72323 0.0
H1121 H 0.12897 0.47212 0.75946 0.0
H1122 H 0.32196 0.48101 0.75624 0.0
H1123 H 0.17988 0.50843 0.72738 0.0
C1124 C 0.23983 0.52235 0.71637 0.0
C1125 C 0.29442 0.5251 0.71533 0.0
C1126 C 0.27962 0.47909 0.75702 0.0
C1127 C 0.25956 0.50097 0.73538 0.0
C1128 C 0.26202 0.46715 0.76764 0.0
C1129 C 0.20745 0.46437 0.76856 0.0
C1130 C 0.24234 0.48828 0.74726 0.0
C1131 C 0.17143 0.47389 0.75915 0.0
C1132 C 0.22224 0.5103 0.72634 0.0
C1133 C 0.33047 0.5154 0.72371 0.0
N1134 N 0.18953 0.48542 0.74883 0.0
N1135 N 0.31239 0.50379 0.73352 0.0
H1136 H 0.13256 0.47561 0.47788 0.0
H1137 H 0.86762 0.5158 0.51262 0.0
H1138 H 0.97398 0.46057 0.46499 0.0
H1139 H 0.02609 0.53117 0.52374 0.0
H1140 H 0.90592 0.49532 0.4961 0.0
H1141 H 0.09438 0.49608 0.49455 0.0
C1142 C 0.08968 0.47667 0.4783 0.0
C1143 C 0.05633 0.4664 0.47004 0.0
C1144 C 0.93235 0.50315 0.50226 0.0
C1145 C 0.01238 0.48972 0.48941 0.0
C1146 C 0.91052 0.51482 0.51182 0.0
C1147 C 0.94379 0.52518 0.51953 0.0
C1148 C 0.98787 0.50185 0.50034 0.0
C1149 C 0.99904 0.52341 0.51803 0.0
C1150 C 0.0679 0.48833 0.48795 0.0
C1151 C 0.0011 0.46826 0.47111 0.0
N1152 N 0.01938 0.51197 0.5085 0.0
N1153 N 0.98083 0.47969 0.48075 0.0
H1154 H 0.38518 0.72364 0.51347 0.0
H1155 H 0.12656 0.76558 0.47508 0.0
H1156 H 0.22438 0.71056 0.5287 0.0
H1157 H 0.28705 0.77961 0.46373 0.0
H1158 H 0.16194 0.74506 0.49322 0.0
H1159 H 0.35031 0.74419 0.49502 0.0
C1160 C 0.34253 0.72515 0.51322 0.0
C1161 C 0.30756 0.7154 0.52261 0.0
C1162 C 0.18948 0.75259 0.48664 0.0
C1163 C 0.26739 0.73879 0.50116 0.0
C1164 C 0.1693 0.76428 0.47612 0.0
C1165 C 0.20398 0.7743 0.46793 0.0
C1166 C 0.24475 0.75091 0.48903 0.0
C1167 C 0.25896 0.77212 0.46979 0.0
C1168 C 0.32265 0.73685 0.50254 0.0
C1169 C 0.25271 0.71784 0.52171 0.0
N1170 N 0.27769 0.76067 0.48027 0.0
N1171 N 0.23429 0.72927 0.51103 0.0
H1172 H 0.79086 0.45867 0.27548 0.0
H1173 H 0.72169 0.52692 0.20059 0.0
H1174 H 0.63134 0.47107 0.25433 0.0
H1175 H 0.88109 0.51492 0.22318 0.0
H1176 H 0.68816 0.5061 0.21832 0.0
H1177 H 0.82503 0.47911 0.2558 0.0
C1178 C 0.76303 0.46575 0.26692 0.0
C1179 C 0.70823 0.46321 0.26658 0.0
C1180 C 0.73051 0.50799 0.21924 0.0
C1181 C 0.74693 0.4865 0.24372 0.0
C1182 C 0.74967 0.51984 0.20896 0.0
C1183 C 0.80418 0.52264 0.2105 0.0
C1184 C 0.76616 0.4989 0.23118 0.0
C1185 C 0.83871 0.51314 0.22164 0.0
C1186 C 0.78253 0.47738 0.25555 0.0
C1187 C 0.6739 0.47266 0.25508 0.0
N1188 N 0.81908 0.50172 0.2317 0.0
N1189 N 0.69383 0.48388 0.24405 0.0
H1190 H 0.88208 0.22438 0.51811 0.0
H1191 H 0.64122 0.26412 0.4474 0.0
H1192 H 0.72038 0.21037 0.51449 0.0
H1193 H 0.78897 0.28221 0.4732 0.0
H1194 H 0.67419 0.24351 0.46624 0.0
H1195 H 0.85214 0.24511 0.49775 0.0
C1196 C 0.8402 0.22572 0.51332 0.0
C1197 C 0.80357 0.21568 0.51801 0.0
C1198 C 0.69954 0.25196 0.46764 0.0
C1199 C 0.7694 0.23919 0.49423 0.0
C1200 C 0.68095 0.26371 0.45664 0.0
C1201 C 0.71239 0.27489 0.45884 0.0
C1202 C 0.75006 0.25136 0.4808 0.0
C1203 C 0.76348 0.2738 0.47111 0.0
C1204 C 0.82322 0.23752 0.50162 0.0
C1205 C 0.74987 0.21789 0.51133 0.0
N1206 N 0.78072 0.26223 0.48176 0.0
N1207 N 0.73446 0.22938 0.49956 0.0
H1208 H 0.45111 0.28294 0.76508 0.0
H1209 H 0.52352 0.20974 0.72618 0.0
H1210 H 0.59635 0.26418 0.79262 0.0
H1211 H 0.3637 0.22475 0.71957 0.0
H1212 H 0.55241 0.23034 0.7472 0.0
H1213 H 0.41838 0.26212 0.74657 0.0
C1214 C 0.4757 0.2744 0.76767 0.0
C1215 C 0.52654 0.27527 0.78031 0.0
C1216 C 0.51102 0.22914 0.74111 0.0
C1217 C 0.49001 0.25158 0.75865 0.0
C1218 C 0.49464 0.21743 0.72887 0.0
C1219 C 0.44119 0.21557 0.72112 0.0
C1220 C 0.47377 0.2391 0.74543 0.0
C1221 C 0.40533 0.22582 0.72526 0.0
C1222 C 0.45715 0.26255 0.75697 0.0
C1223 C 0.55691 0.26394 0.783 0.0
N1224 N 0.42228 0.23717 0.73713 0.0
N1225 N 0.53841 0.25259 0.77196 0.0
H1226 H 0.53135 0.03134 0.52384 0.0
H1227 H 0.46003 0.96283 0.45107 0.0
H1228 H 0.37085 0.01846 0.50678 0.0
H1229 H 0.62017 0.97523 0.47079 0.0
H1230 H 0.42666 0.9835 0.46972 0.0
H1231 H 0.56479 0.01088 0.50413 0.0
C1232 C 0.50315 0.02415 0.5162 0.0
C1233 C 0.44829 0.02658 0.51695 0.0
C1234 C 0.46913 0.98173 0.46982 0.0
C1235 C 0.48618 0.00324 0.49403 0.0
C1236 C 0.48819 0.96997 0.459 0.0
C1237 C 0.5429 0.96733 0.45943 0.0
C1238 C 0.50508 0.99089 0.48116 0.0
C1239 C 0.57765 0.97688 0.47007 0.0
C1240 C 0.52224 0.0125 0.50481 0.0
C1241 C 0.41349 0.01696 0.50665 0.0
N1242 N 0.55813 0.98822 0.48064 0.0
N1243 N 0.43303 0.00573 0.49551 0.0
H1244 H 0.46987 0.77922 0.28181 0.0
H1245 H 0.53048 0.70929 0.21328 0.0
H1246 H 0.62752 0.76571 0.26003 0.0
H1247 H 0.37298 0.72259 0.23605 0.0
H1248 H 0.56681 0.72999 0.22998 0.0
H1249 H 0.43361 0.75839 0.26586 0.0
C1250 C 0.49687 0.77182 0.27391 0.0
C1251 C 0.55172 0.77417 0.27221 0.0
C1252 C 0.52428 0.7284 0.23124 0.0
C1253 C 0.5106 0.75041 0.25362 0.0
C1254 C 0.50353 0.71661 0.22159 0.0
C1255 C 0.44869 0.71425 0.22327 0.0
C1256 C 0.48989 0.73787 0.24269 0.0
C1257 C 0.41554 0.72403 0.23433 0.0
C1258 C 0.47616 0.75996 0.26469 0.0
C1259 C 0.58494 0.76428 0.26172 0.0
N1260 N 0.43669 0.73541 0.24369 0.0
N1261 N 0.56383 0.75285 0.25271 0.0
H1262 H 0.63974 0.47362 0.97922 0.0
H1263 H 0.37835 0.51598 0.00818 0.0
H1264 H 0.48035 0.46036 0.96059 0.0
H1265 H 0.53775 0.53006 0.02336 0.0
H1266 H 0.41513 0.49535 0.99175 0.0
H1267 H 0.60342 0.49437 -0.00451 0.0
C1268 C 0.59711 0.47513 0.97832 0.0
C1269 C 0.56295 0.46528 0.96855 0.0
C1270 C 0.44211 0.50292 -0.00124 0.0
C1271 C 0.5211 0.48891 0.98743 0.0
C1272 C 0.42113 0.51468 0.00827 0.0
C1273 C 0.45511 0.52473 0.01715 0.0
C1274 C 0.49752 0.50119 -0.00192 0.0
C1275 C 0.51018 0.52255 0.01674 0.0
C1276 C 0.57639 0.48695 0.98772 0.0
C1277 C 0.50808 0.46771 0.96792 0.0
N1278 N 0.52971 0.51101 0.00728 0.0
N1279 N 0.48883 0.47927 0.97736 0.0
H1280 H 0.17775 0.3289 0.19908 0.0
H1281 H 0.03069 0.31502 0.04591 0.0
H1282 H 0.01703 0.31445 0.19213 0.0
H1283 H 0.19544 0.32645 0.053 0.0
H1284 H 0.0212 0.31762 0.09923 0.0
H1285 H 0.18106 0.33098 0.14538 0.0
C1286 C 0.14299 0.32629 0.18624 0.0
C1287 C 0.09725 0.32137 0.19995 0.0
C1288 C 0.05932 0.31966 0.08911 0.0
C1289 C 0.10081 0.32365 0.13865 0.0
C1290 C 0.06474 0.31818 0.05869 0.0
C1291 C 0.11407 0.3204 0.04517 0.0
C1292 C 0.10359 0.32336 0.10606 0.0
C1293 C 0.15682 0.32454 0.06266 0.0
C1294 C 0.14491 0.32746 0.15561 0.0
C1295 C 0.05323 0.31819 0.18237 0.0
N1296 N 0.1507 0.3258 0.09228 0.0
N1297 N 0.05625 0.31929 0.15256 0.0
H1298 H 0.21203 0.91818 0.0479 0.0
H1299 H 0.0588 0.9122 0.20179 0.0
H1300 H 0.04125 0.91529 0.05576 0.0
H1301 H 0.22382 0.92325 0.19354 0.0
H1302 H 0.05486 0.90892 0.14838 0.0
H1303 H 0.21983 0.91564 0.10136 0.0
C1304 C 0.17623 0.91686 0.06086 0.0
C1305 C 0.12588 0.91711 0.04755 0.0
C1306 C 0.09204 0.91195 0.15831 0.0
C1307 C 0.13447 0.91423 0.10852 0.0
C1308 C 0.09434 0.9138 0.18875 0.0
C1309 C 0.14152 0.91816 0.20194 0.0
C1310 C 0.13729 0.91445 0.14106 0.0
C1311 C 0.1865 0.92001 0.18414 0.0
C1312 C 0.18069 0.91544 0.09134 0.0
C1313 C 0.08078 0.91529 0.06527 0.0
N1314 N 0.18317 0.91824 0.15453 0.0
N1315 N 0.08611 0.91403 0.09495 0.0
H1316 H 0.79659 0.6681 0.79158 0.0
H1317 H 0.94972 0.66326 0.94576 0.0
H1318 H 0.96736 0.66531 0.79974 0.0
H1319 H 0.78189 0.67137 0.93736 0.0
H1320 H 0.95477 0.66013 0.89236 0.0
H1321 H 0.78858 0.66546 0.84499 0.0
C1322 C 0.83236 0.6668 0.80461 0.0
C1323 C 0.88275 0.66709 0.79137 0.0
C1324 C 0.91675 0.66248 0.90224 0.0
C1325 C 0.87394 0.66412 0.85234 0.0
C1326 C 0.91383 0.66424 0.93269 0.0
C1327 C 0.86545 0.66773 0.94585 0.0
C1328 C 0.87095 0.66423 0.88492 0.0
C1329 C 0.82009 0.66881 0.928 0.0
C1330 C 0.82778 0.66531 0.83507 0.0
C1331 C 0.92778 0.66528 0.80917 0.0
N1332 N 0.82404 0.66717 0.89836 0.0
N1333 N 0.92234 0.66398 0.83884 0.0
H1334 H 0.96525 0.06317 0.79856 0.0
H1335 H 0.81892 0.077 0.95185 0.0
H1336 H 0.80312 0.07665 0.80518 0.0
H1337 H 0.97926 0.06237 0.94456 0.0
H1338 H 0.81531 0.07916 0.89814 0.0
H1339 H 0.97405 0.065 0.85203 0.0
C1340 C 0.9316 0.0666 0.81129 0.0
C1341 C 0.88323 0.06966 0.79755 0.0
C1342 C 0.85142 0.07557 0.90831 0.0
C1343 C 0.8929 0.07173 0.85868 0.0
C1344 C 0.8535 0.07434 0.93893 0.0
C1345 C 0.89928 0.06939 0.95254 0.0
C1346 C 0.89541 0.07177 0.89127 0.0
C1347 C 0.94305 0.06615 0.93488 0.0
C1348 C 0.93663 0.06764 0.84181 0.0
C1349 C 0.841 0.07412 0.815 0.0
N1350 N 0.93989 0.06731 0.9051 0.0
N1351 N 0.84669 0.07494 0.84475 0.0
H1352 H 0.02828 0.82099 0.68952 0.0
H1353 H 0.22099 0.82054 0.55125 0.0
H1354 H 0.19868 0.82532 0.69644 0.0
H1355 H 0.05074 0.8249 0.54357 0.0
H1356 H 0.21372 0.82372 0.60447 0.0
H1357 H 0.03506 0.82389 0.6361 0.0
C1358 C 0.06703 0.8227 0.6798 0.0
C1359 C 0.11308 0.82276 0.69727 0.0
C1360 C 0.17799 0.82415 0.59114 0.0
C1361 C 0.12121 0.82596 0.63635 0.0
C1362 C 0.18213 0.8223 0.56078 0.0
C1363 C 0.13631 0.82231 0.54315 0.0
C1364 C 0.12757 0.82584 0.60393 0.0
C1365 C 0.08699 0.82474 0.55649 0.0
C1366 C 0.07088 0.82438 0.64934 0.0
C1367 C 0.16225 0.8251 0.68368 0.0
N1368 N 0.08381 0.82623 0.58621 0.0
N1369 N 0.16511 0.82644 0.65393 0.0
H1370 H 0.06075 0.41274 0.69794 0.0
H1371 H 0.2143 0.41427 0.54359 0.0
H1372 H 0.23062 0.41783 0.68976 0.0
H1373 H 0.04484 0.41967 0.55302 0.0
H1374 H 0.2208 0.41038 0.5968 0.0
H1375 H 0.05473 0.41 0.64446 0.0
C1376 C 0.09686 0.41311 0.68491 0.0
C1377 C 0.14615 0.41571 0.69813 0.0
C1378 C 0.18216 0.41228 0.58712 0.0
C1379 C 0.13954 0.41261 0.63715 0.0
C1380 C 0.17841 0.41447 0.55682 0.0
C1381 C 0.12907 0.41747 0.54408 0.0
C1382 C 0.13618 0.41303 0.60464 0.0
C1383 C 0.08374 0.41755 0.5621 0.0
C1384 C 0.09337 0.41157 0.65443 0.0
C1385 C 0.19175 0.416 0.68032 0.0
N1386 N 0.08844 0.41546 0.59155 0.0
N1387 N 0.18729 0.41459 0.65063 0.0
H1388 H 0.78705 0.16955 0.29202 0.0
H1389 H 0.93688 0.15963 0.44587 0.0
H1390 H 0.95627 0.16338 0.30033 0.0
H1391 H 0.7731 0.17171 0.43776 0.0
H1392 H 0.94058 0.15662 0.39237 0.0
H1393 H 0.7775 0.16609 0.34513 0.0
C1394 C 0.8221 0.16733 0.305 0.0
C1395 C 0.87262 0.16693 0.29194 0.0
C1396 C 0.90367 0.15979 0.40235 0.0
C1397 C 0.86207 0.163 0.35254 0.0
C1398 C 0.90152 0.16149 0.43285 0.0
C1399 C 0.85486 0.16611 0.44609 0.0
C1400 C 0.85884 0.16276 0.38509 0.0
C1401 C 0.81006 0.16828 0.42832 0.0
C1402 C 0.81665 0.16536 0.33528 0.0
C1403 C 0.91668 0.16392 0.30965 0.0
N1404 N 0.81331 0.16671 0.39864 0.0
N1405 N 0.91045 0.16218 0.33915 0.0
H1406 H 0.77997 0.56431 0.4411 0.0
H1407 H 0.93807 0.57548 0.29017 0.0
H1408 H 0.9464 0.57447 0.43653 0.0
H1409 H 0.77419 0.56309 0.29451 0.0
H1410 H 0.93879 0.57776 0.34383 0.0
H1411 H 0.77408 0.56634 0.38744 0.0
C1412 C 0.81515 0.56707 0.42879 0.0
C1413 C 0.86386 0.56911 0.44315 0.0
C1414 C 0.90254 0.57463 0.33304 0.0
C1415 C 0.85751 0.57142 0.38191 0.0
C1416 C 0.90211 0.57335 0.30242 0.0
C1417 C 0.85615 0.56898 0.288 0.0
C1418 C 0.85673 0.57148 0.34928 0.0
C1419 C 0.81057 0.56641 0.30485 0.0
C1420 C 0.81179 0.56822 0.39819 0.0
C1421 C 0.90817 0.57272 0.42625 0.0
N1422 N 0.81213 0.5676 0.33467 0.0
N1423 N 0.90402 0.57368 0.39646 0.0
H1424 H 0.6254 0.33414 0.54377 0.0
H1425 H 0.64618 0.29294 0.69184 0.0
H1426 H 0.61328 0.29247 0.54644 0.0
H1427 H 0.59541 0.33286 0.69201 0.0
H1428 H 0.64654 0.29327 0.63796 0.0
H1429 H 0.62468 0.33451 0.59796 0.0
C1430 C 0.62229 0.3251 0.55577 0.0
C1431 C 0.61935 0.31326 0.54073 0.0
C1432 C 0.63537 0.30196 0.64979 0.0
C1433 C 0.61939 0.31361 0.60225 0.0
C1434 C 0.6355 0.30181 0.6805 0.0
C1435 C 0.62065 0.31289 0.69629 0.0
C1436 C 0.62091 0.31332 0.63479 0.0
C1437 C 0.60695 0.32411 0.68056 0.0
C1438 C 0.62187 0.32532 0.58658 0.0
C1439 C 0.61545 0.30181 0.55721 0.0
N1440 N 0.60753 0.32406 0.65056 0.0
N1441 N 0.616 0.30226 0.58712 0.0
H1442 H 0.51287 0.9251 0.54165 0.0
H1443 H 0.69631 0.91474 0.68346 0.0
H1444 H 0.67891 0.91459 0.53732 0.0
H1445 H 0.52991 0.92493 0.68753 0.0
H1446 H 0.68821 0.91208 0.63005 0.0
H1447 H 0.51566 0.9225 0.5952 0.0
C1448 C 0.54978 0.92212 0.55198 0.0
C1449 C 0.5959 0.9202 0.53517 0.0
C1450 C 0.65335 0.91478 0.64265 0.0
C1451 C 0.59954 0.91729 0.59632 0.0
C1452 C 0.65797 0.9163 0.67311 0.0
C1453 C 0.61385 0.9202 0.68978 0.0
C1454 C 0.60432 0.91725 0.62884 0.0
C1455 C 0.56502 0.92202 0.67539 0.0
C1456 C 0.55138 0.92064 0.58254 0.0
C1457 C 0.64257 0.91627 0.54956 0.0
N1458 N 0.56167 0.92064 0.64567 0.0
N1459 N 0.64335 0.91507 0.57939 0.0
H1460 H 0.28253 0.66828 0.44205 0.0
H1461 H 0.46937 0.6666 0.30155 0.0
H1462 H 0.45268 0.66317 0.44765 0.0
H1463 H 0.29822 0.66372 0.29683 0.0
H1464 H 0.46454 0.66343 0.35495 0.0
H1465 H 0.28721 0.66474 0.38888 0.0
C1466 C 0.32082 0.66627 0.43207 0.0
C1467 C 0.3674 0.66618 0.44908 0.0
C1468 C 0.4281 0.66331 0.34219 0.0
C1469 C 0.3732 0.66225 0.38833 0.0
C1470 C 0.43084 0.66514 0.31174 0.0
C1471 C 0.38405 0.66561 0.29492 0.0
C1472 C 0.37816 0.66209 0.35583 0.0
C1473 C 0.3352 0.66356 0.30909 0.0
C1474 C 0.32349 0.66422 0.40174 0.0
C1475 C 0.41591 0.66342 0.43519 0.0
N1476 N 0.33346 0.66206 0.33883 0.0
N1477 N 0.41768 0.66174 0.40549 0.0
H1478 H 0.29186 0.07318 0.44538 0.0
H1479 H 0.44833 0.0781 0.29241 0.0
H1480 H 0.46298 0.07507 0.43829 0.0
H1481 H 0.28043 0.06981 0.2995 0.0
H1482 H 0.45211 0.08121 0.34583 0.0
H1483 H 0.28502 0.07607 0.39199 0.0
C1484 C 0.32796 0.07435 0.4326 0.0
C1485 C 0.37809 0.07373 0.44611 0.0
C1486 C 0.41435 0.07884 0.33566 0.0
C1487 C 0.3706 0.077 0.38519 0.0
C1488 C 0.41214 0.07709 0.30519 0.0
C1489 C 0.36413 0.07353 0.29167 0.0
C1490 C 0.36821 0.07701 0.35262 0.0
C1491 C 0.31836 0.07242 0.30916 0.0
C1492 C 0.32404 0.07598 0.40215 0.0
C1493 C 0.42359 0.07536 0.42862 0.0
N1494 N 0.32162 0.07404 0.33883 0.0
N1495 N 0.41878 0.07682 0.39897 0.0
H1496 H 0.72637 0.81792 0.04706 0.0
H1497 H 0.53944 0.82221 0.1891 0.0
H1498 H 0.55677 0.82428 0.04295 0.0
H1499 H 0.70965 0.81689 0.19325 0.0
H1500 H 0.54607 0.82501 0.13568 0.0
H1501 H 0.72234 0.81963 0.10078 0.0
C1502 C 0.68837 0.81981 0.05748 0.0
C1503 C 0.64174 0.82084 0.04065 0.0
C1504 C 0.58203 0.82332 0.14829 0.0
C1505 C 0.63672 0.82271 0.10198 0.0
C1506 C 0.57825 0.82171 0.17875 0.0
C1507 C 0.62402 0.8192 0.19548 0.0
C1508 C 0.63192 0.82234 0.1345 0.0
C1509 C 0.67334 0.81872 0.18108 0.0
C1510 C 0.68606 0.82077 0.08813 0.0
C1511 C 0.59359 0.82334 0.05518 0.0
N1512 N 0.67594 0.82018 0.15134 0.0
N1513 N 0.59224 0.82407 0.08508 0.0
H1514 H 0.53678 0.41996 0.04932 0.0
H1515 H 0.72327 0.41425 0.191 0.0
H1516 H 0.70643 0.41374 0.04495 0.0
H1517 H 0.55244 0.41813 0.19535 0.0
H1518 H 0.71685 0.41169 0.13753 0.0
H1519 H 0.54041 0.41695 0.10276 0.0
C1520 C 0.57471 0.41783 0.05961 0.0
C1521 C 0.62148 0.41724 0.04282 0.0
C1522 C 0.6807 0.41296 0.15019 0.0
C1523 C 0.62604 0.41389 0.10386 0.0
C1524 C 0.68436 0.41443 0.1807 0.0
C1525 C 0.63836 0.41655 0.19749 0.0
C1526 C 0.6307 0.41372 0.13641 0.0
C1527 C 0.58893 0.41662 0.18313 0.0
C1528 C 0.57678 0.41611 0.0901 0.0
C1529 C 0.66951 0.41437 0.05716 0.0
N1530 N 0.58644 0.41536 0.15334 0.0
N1531 N 0.67065 0.41294 0.08694 0.0
H1532 H 0.28592 0.17264 0.7925 0.0
H1533 H 0.44348 0.16312 0.94425 0.0
H1534 H 0.45469 0.16523 0.79786 0.0
H1535 H 0.27958 0.17536 0.93852 0.0
H1536 H 0.44496 0.16038 0.89063 0.0
H1537 H 0.27961 0.17017 0.84602 0.0
C1538 C 0.32155 0.17037 0.80494 0.0
C1539 C 0.371 0.16929 0.79089 0.0
C1540 C 0.40856 0.16357 0.90115 0.0
C1541 C 0.36418 0.1665 0.85196 0.0
C1542 C 0.40769 0.16511 0.93171 0.0
C1543 C 0.36153 0.16961 0.94569 0.0
C1544 C 0.36292 0.16655 0.88457 0.0
C1545 C 0.31615 0.17199 0.92852 0.0
C1546 C 0.31795 0.16898 0.83546 0.0
C1547 C 0.41587 0.16626 0.80794 0.0
N1548 N 0.3181 0.17052 0.89879 0.0
N1549 N 0.41147 0.16507 0.83768 0.0
H1550 H 0.29684 0.5764 0.94562 0.0
H1551 H 0.44368 0.57797 0.78931 0.0
H1552 H 0.46621 0.57139 0.93464 0.0
H1553 H 0.2755 0.57095 0.80029 0.0
H1554 H 0.45184 0.58102 0.84269 0.0
H1555 H 0.28834 0.57988 0.89242 0.0
C1556 C 0.33231 0.5762 0.93204 0.0
C1557 C 0.3822 0.57342 0.94436 0.0
C1558 C 0.41309 0.57896 0.83333 0.0
C1559 C 0.37277 0.5774 0.88376 0.0
C1560 C 0.40838 0.57725 0.80293 0.0
C1561 C 0.35898 0.57403 0.79056 0.0
C1562 C 0.36801 0.57752 0.85131 0.0
C1563 C 0.31444 0.57327 0.80908 0.0
C1564 C 0.32741 0.57816 0.90174 0.0
C1565 C 0.42693 0.57335 0.92589 0.0
N1566 N 0.32007 0.57491 0.83863 0.0
N1567 N 0.42111 0.57521 0.8964 0.0
loop_
_geom_bond_atom_site_label_1
_geom_bond_atom_site_label_2
_geom_bond_distance
_geom_bond_site_symmetry_2
_ccdc_geom_bond_type
In0 O1 2.294 . S
In0 O2 2.326 . S
In0 O6 2.266 . S
In0 O7 2.326 . S
In0 O8 2.266 . S
In0 O9 2.326 . S
In0 O11 2.294 . S
In0 O12 2.326 . S
O1 In0 2.294 . S
O1 C10 1.240 . S
O2 In0 2.326 . S
O2 C10 1.252 . S
C3 O6 1.252 . S
C3 O7 1.260 . S
C4 O11 1.240 . S
C4 O12 1.252 . S
C5 O8 1.252 . S
C5 O9 1.260 . S
O6 In0 2.266 . S
O6 C3 1.252 . S
O7 In0 2.326 . S
O7 C3 1.260 . S
O8 In0 2.266 . S
O8 C5 1.252 . S
O9 In0 2.326 . S
O9 C5 1.260 . S
C10 O1 1.240 . S
C10 O2 1.252 . S
O11 In0 2.294 . S
O11 C4 1.240 . S
O12 In0 2.326 . S
O12 C4 1.252 . S
In13 O14 2.294 . S
In13 O15 2.326 . S
In13 O19 2.266 . S
In13 O20 2.326 . S
In13 O21 2.266 . S
In13 O22 2.326 . S
In13 O24 2.294 . S
In13 O25 2.326 . S
O14 In13 2.294 . S
O14 C23 1.240 . S
O15 In13 2.326 . S
O15 C23 1.252 . S
C16 O19 1.252 . S
C16 O20 1.260 . S
C17 O24 1.240 . S
C17 O25 1.252 . S
C18 O21 1.252 . S
C18 O22 1.260 . S
O19 In13 2.266 . S
O19 C16 1.252 . S
O20 In13 2.326 . S
O20 C16 1.260 . S
O21 In13 2.266 . S
O21 C18 1.252 . S
O22 In13 2.326 . S
O22 C18 1.260 . S
C23 O14 1.240 . S
C23 O15 1.252 . S
O24 In13 2.294 . S
O24 C17 1.240 . S
O25 In13 2.326 . S
O25 C17 1.252 . S
In26 O27 2.294 . S
In26 O28 2.326 . S
In26 O32 2.266 . S
In26 O33 2.326 . S
In26 O34 2.266 1_556 S
In26 O35 2.326 1_556 S
In26 O37 2.294 . S
In26 O38 2.326 . S
O27 In26 2.294 . S
O27 C36 1.240 . S
O28 In26 2.326 . S
O28 C36 1.252 . S
C29 O32 1.252 . S
C29 O33 1.260 . S
C30 O37 1.240 . S
C30 O38 1.252 . S
C31 O34 1.252 . S
C31 O35 1.260 . S
O32 In26 2.266 . S
O32 C29 1.252 . S
O33 In26 2.326 . S
O33 C29 1.260 . S
O34 In26 2.266 1_554 S
O34 C31 1.252 . S
O35 In26 2.326 1_554 S
O35 C31 1.260 . S
C36 O27 1.240 . S
C36 O28 1.252 . S
O37 In26 2.294 . S
O37 C30 1.240 . S
O38 In26 2.326 . S
O38 C30 1.252 . S
In39 O40 2.294 . S
In39 O41 2.326 . S
In39 O45 2.266 1_556 S
In39 O46 2.326 1_556 S
In39 O47 2.266 . S
In39 O48 2.326 . S
In39 O50 2.294 . S
In39 O51 2.326 . S
O40 In39 2.294 . S
O40 C49 1.240 . S
O41 In39 2.326 . S
O41 C49 1.252 . S
C42 O45 1.252 . S
C42 O46 1.260 . S
C43 O50 1.240 . S
C43 O51 1.252 . S
C44 O47 1.252 . S
C44 O48 1.260 . S
O45 In39 2.266 1_554 S
O45 C42 1.252 . S
O46 In39 2.326 1_554 S
O46 C42 1.260 . S
O47 In39 2.266 . S
O47 C44 1.252 . S
O48 In39 2.326 . S
O48 C44 1.260 . S
C49 O40 1.240 . S
C49 O41 1.252 . S
O50 In39 2.294 . S
O50 C43 1.240 . S
O51 In39 2.326 . S
O51 C43 1.252 . S
In52 O53 2.294 . S
In52 O54 2.326 . S
In52 O58 2.266 . S
In52 O59 2.326 . S
In52 O60 2.266 . S
In52 O61 2.326 . S
In52 O63 2.294 . S
In52 O64 2.326 . S
O53 In52 2.294 . S
O53 C62 1.240 . S
O54 In52 2.326 . S
O54 C62 1.252 . S
C55 O58 1.252 . S
C55 O59 1.260 . S
C56 O63 1.240 . S
C56 O64 1.252 . S
C57 O60 1.252 . S
C57 O61 1.260 . S
O58 In52 2.266 . S
O58 C55 1.252 . S
O59 In52 2.326 . S
O59 C55 1.260 . S
O60 In52 2.266 . S
O60 C57 1.252 . S
O61 In52 2.326 . S
O61 C57 1.260 . S
C62 O53 1.240 . S
C62 O54 1.252 . S
O63 In52 2.294 . S
O63 C56 1.240 . S
O64 In52 2.326 . S
O64 C56 1.252 . S
In65 O66 2.294 . S
In65 O67 2.326 . S
In65 O71 2.266 . S
In65 O72 2.326 . S
In65 O73 2.266 . S
In65 O74 2.326 . S
In65 O76 2.294 . S
In65 O77 2.326 . S
O66 In65 2.294 . S
O66 C75 1.240 . S
O67 In65 2.326 . S
O67 C75 1.252 . S
C68 O71 1.252 . S
C68 O72 1.260 . S
C69 O76 1.240 . S
C69 O77 1.252 . S
C70 O73 1.252 . S
C70 O74 1.260 . S
O71 In65 2.266 . S
O71 C68 1.252 . S
O72 In65 2.326 . S
O72 C68 1.260 . S
O73 In65 2.266 . S
O73 C70 1.252 . S
O74 In65 2.326 . S
O74 C70 1.260 . S
C75 O66 1.240 . S
C75 O67 1.252 . S
O76 In65 2.294 . S
O76 C69 1.240 . S
O77 In65 2.326 . S
O77 C69 1.252 . S
In78 O79 2.294 . S
In78 O80 2.326 . S
In78 O84 2.266 1_554 S
In78 O85 2.326 1_554 S
In78 O86 2.266 . S
In78 O87 2.326 . S
In78 O89 2.294 . S
In78 O90 2.326 . S
O79 In78 2.294 . S
O79 C88 1.240 . S
O80 In78 2.326 . S
O80 C88 1.252 . S
C81 O84 1.252 . S
C81 O85 1.260 . S
C82 O89 1.240 . S
C82 O90 1.252 . S
C83 O86 1.252 . S
C83 O87 1.260 . S
O84 In78 2.266 1_556 S
O84 C81 1.252 . S
O85 In78 2.326 1_556 S
O85 C81 1.260 . S
O86 In78 2.266 . S
O86 C83 1.252 . S
O87 In78 2.326 . S
O87 C83 1.260 . S
C88 O79 1.240 . S
C88 O80 1.252 . S
O89 In78 2.294 . S
O89 C82 1.240 . S
O90 In78 2.326 . S
O90 C82 1.252 . S
In91 O92 2.294 . S
In91 O93 2.326 . S
In91 O97 2.266 1_554 S
In91 O98 2.326 1_554 S
In91 O99 2.266 . S
In91 O100 2.326 . S
In91 O102 2.294 . S
In91 O103 2.326 . S
O92 In91 2.294 . S
O92 C101 1.240 . S
O93 In91 2.326 . S
O93 C101 1.252 . S
C94 O97 1.252 . S
C94 O98 1.260 . S
C95 O102 1.240 . S
C95 O103 1.252 . S
C96 O99 1.252 . S
C96 O100 1.260 . S
O97 In91 2.266 1_556 S
O97 C94 1.252 . S
O98 In91 2.326 1_556 S
O98 C94 1.260 . S
O99 In91 2.266 . S
O99 C96 1.252 . S
O100 In91 2.326 . S
O100 C96 1.260 . S
C101 O92 1.240 . S
C101 O93 1.252 . S
O102 In91 2.294 . S
O102 C95 1.240 . S
O103 In91 2.326 . S
O103 C95 1.252 . S
In104 O105 2.294 . S
In104 O106 2.326 . S
In104 O110 2.266 . S
In104 O111 2.326 . S
In104 O112 2.266 . S
In104 O113 2.326 . S
In104 O115 2.294 . S
In104 O116 2.326 . S
O105 In104 2.294 . S
O105 C114 1.240 . S
O106 In104 2.326 . S
O106 C114 1.252 . S
C107 O110 1.252 . S
C107 O111 1.260 . S
C108 O115 1.240 . S
C108 O116 1.252 . S
C109 O112 1.252 . S
C109 O113 1.260 . S
O110 In104 2.266 . S
O110 C107 1.252 . S
O111 In104 2.326 . S
O111 C107 1.260 . S
O112 In104 2.266 . S
O112 C109 1.252 . S
O113 In104 2.326 . S
O113 C109 1.260 . S
C114 O105 1.240 . S
C114 O106 1.252 . S
O115 In104 2.294 . S
O115 C108 1.240 . S
O116 In104 2.326 . S
O116 C108 1.252 . S
In117 O118 2.294 . S
In117 O119 2.326 . S
In117 O123 2.266 . S
In117 O124 2.326 . S
In117 O125 2.266 . S
In117 O126 2.326 . S
In117 O128 2.294 . S
In117 O129 2.326 . S
O118 In117 2.294 . S
O118 C127 1.240 . S
O119 In117 2.326 . S
O119 C127 1.252 . S
C120 O123 1.252 . S
C120 O124 1.260 . S
C121 O128 1.240 . S
C121 O129 1.252 . S
C122 O125 1.252 . S
C122 O126 1.260 . S
O123 In117 2.266 . S
O123 C120 1.252 . S
O124 In117 2.326 . S
O124 C120 1.260 . S
O125 In117 2.266 . S
O125 C122 1.252 . S
O126 In117 2.326 . S
O126 C122 1.260 . S
C127 O118 1.240 . S
C127 O119 1.252 . S
O128 In117 2.294 . S
O128 C121 1.240 . S
O129 In117 2.326 . S
O129 C121 1.252 . S
In130 O131 2.294 . S
In130 O132 2.326 . S
In130 O136 2.266 . S
In130 O137 2.326 . S
In130 O138 2.266 . S
In130 O139 2.326 . S
In130 O141 2.294 . S
In130 O142 2.326 . S
O131 In130 2.294 . S
O131 C140 1.240 . S
O132 In130 2.326 . S
O132 C140 1.252 . S
C133 O136 1.252 . S
C133 O137 1.260 . S
C134 O141 1.240 . S
C134 O142 1.252 . S
C135 O138 1.252 . S
C135 O139 1.260 . S
O136 In130 2.266 . S
O136 C133 1.252 . S
O137 In130 2.326 . S
O137 C133 1.260 . S
O138 In130 2.266 . S
O138 C135 1.252 . S
O139 In130 2.326 . S
O139 C135 1.260 . S
C140 O131 1.240 . S
C140 O132 1.252 . S
O141 In130 2.294 . S
O141 C134 1.240 . S
O142 In130 2.326 . S
O142 C134 1.252 . S
In143 O144 2.294 . S
In143 O145 2.326 . S
In143 O149 2.266 . S
In143 O150 2.326 . S
In143 O151 2.266 . S
In143 O152 2.326 . S
In143 O154 2.294 . S
In143 O155 2.326 . S
O144 In143 2.294 . S
O144 C153 1.240 . S
O145 In143 2.326 . S
O145 C153 1.252 . S
C146 O149 1.252 . S
C146 O150 1.260 . S
C147 O154 1.240 . S
C147 O155 1.252 . S
C148 O151 1.252 . S
C148 O152 1.260 . S
O149 In143 2.266 . S
O149 C146 1.252 . S
O150 In143 2.326 . S
O150 C146 1.260 . S
O151 In143 2.266 . S
O151 C148 1.252 . S
O152 In143 2.326 . S
O152 C148 1.260 . S
C153 O144 1.240 . S
C153 O145 1.252 . S
O154 In143 2.294 . S
O154 C147 1.240 . S
O155 In143 2.326 . S
O155 C147 1.252 . S
In156 O157 2.294 . S
In156 O158 2.326 . S
In156 O162 2.266 . S
In156 O163 2.326 . S
In156 O164 2.266 . S
In156 O165 2.326 . S
In156 O167 2.294 . S
In156 O168 2.326 . S
O157 In156 2.294 . S
O157 C166 1.240 . S
O158 In156 2.326 . S
O158 C166 1.252 . S
C159 O162 1.252 . S
C159 O163 1.260 . S
C160 O167 1.240 . S
C160 O168 1.252 . S
C161 O164 1.252 . S
C161 O165 1.260 . S
O162 In156 2.266 . S
O162 C159 1.252 . S
O163 In156 2.326 . S
O163 C159 1.260 . S
O164 In156 2.266 . S
O164 C161 1.252 . S
O165 In156 2.326 . S
O165 C161 1.260 . S
C166 O157 1.240 . S
C166 O158 1.252 . S
O167 In156 2.294 . S
O167 C160 1.240 . S
O168 In156 2.326 . S
O168 C160 1.252 . S
In169 O170 2.294 . S
In169 O171 2.326 . S
In169 O175 2.266 . S
In169 O176 2.326 . S
In169 O177 2.266 . S
In169 O178 2.326 . S
In169 O180 2.294 . S
In169 O181 2.326 . S
O170 In169 2.294 . S
O170 C179 1.240 . S
O171 In169 2.326 . S
O171 C179 1.252 . S
C172 O175 1.252 . S
C172 O176 1.260 . S
C173 O180 1.240 . S
C173 O181 1.252 . S
C174 O177 1.252 . S
C174 O178 1.260 . S
O175 In169 2.266 . S
O175 C172 1.252 . S
O176 In169 2.326 . S
O176 C172 1.260 . S
O177 In169 2.266 . S
O177 C174 1.252 . S
O178 In169 2.326 . S
O178 C174 1.260 . S
C179 O170 1.240 . S
C179 O171 1.252 . S
O180 In169 2.294 . S
O180 C173 1.240 . S
O181 In169 2.326 . S
O181 C173 1.252 . S
In182 O183 2.294 . S
In182 O184 2.326 . S
In182 O188 2.266 . S
In182 O189 2.326 . S
In182 O190 2.266 . S
In182 O191 2.326 . S
In182 O193 2.294 . S
In182 O194 2.326 . S
O183 In182 2.294 . S
O183 C192 1.240 . S
O184 In182 2.326 . S
O184 C192 1.252 . S
C185 O188 1.252 . S
C185 O189 1.260 . S
C186 O193 1.240 . S
C186 O194 1.252 . S
C187 O190 1.252 . S
C187 O191 1.260 . S
O188 In182 2.266 . S
O188 C185 1.252 . S
O189 In182 2.326 . S
O189 C185 1.260 . S
O190 In182 2.266 . S
O190 C187 1.252 . S
O191 In182 2.326 . S
O191 C187 1.260 . S
C192 O183 1.240 . S
C192 O184 1.252 . S
O193 In182 2.294 . S
O193 C186 1.240 . S
O194 In182 2.326 . S
O194 C186 1.252 . S
In195 O196 2.294 . S
In195 O197 2.326 . S
In195 O201 2.266 . S
In195 O202 2.326 . S
In195 O203 2.266 . S
In195 O204 2.326 . S
In195 O206 2.294 . S
In195 O207 2.326 . S
O196 In195 2.294 . S
O196 C205 1.240 . S
O197 In195 2.326 . S
O197 C205 1.252 . S
C198 O201 1.252 . S
C198 O202 1.260 . S
C199 O206 1.240 . S
C199 O207 1.252 . S
C200 O203 1.252 . S
C200 O204 1.260 . S
O201 In195 2.266 . S
O201 C198 1.252 . S
O202 In195 2.326 . S
O202 C198 1.260 . S
O203 In195 2.266 . S
O203 C200 1.252 . S
O204 In195 2.326 . S
O204 C200 1.260 . S
C205 O196 1.240 . S
C205 O197 1.252 . S
O206 In195 2.294 . S
O206 C199 1.240 . S
O207 In195 2.326 . S
O207 C199 1.252 . S
In208 O209 2.294 . S
In208 O210 2.326 . S
In208 O214 2.266 . S
In208 O215 2.326 . S
In208 O216 2.266 . S
In208 O217 2.326 . S
In208 O219 2.294 . S
In208 O220 2.326 . S
O209 In208 2.294 . S
O209 C218 1.240 . S
O210 In208 2.326 . S
O210 C218 1.252 . S
C211 O214 1.252 . S
C211 O215 1.260 . S
C212 O219 1.240 . S
C212 O220 1.252 . S
C213 O216 1.252 . S
C213 O217 1.260 . S
O214 In208 2.266 . S
O214 C211 1.252 . S
O215 In208 2.326 . S
O215 C211 1.260 . S
O216 In208 2.266 . S
O216 C213 1.252 . S
O217 In208 2.326 . S
O217 C213 1.260 . S
C218 O209 1.240 . S
C218 O210 1.252 . S
O219 In208 2.294 . S
O219 C212 1.240 . S
O220 In208 2.326 . S
O220 C212 1.252 . S
In221 O222 2.294 . S
In221 O223 2.326 . S
In221 O227 2.266 . S
In221 O228 2.326 . S
In221 O229 2.266 . S
In221 O230 2.326 . S
In221 O232 2.294 . S
In221 O233 2.326 . S
O222 In221 2.294 . S
O222 C231 1.240 . S
O223 In221 2.326 . S
O223 C231 1.252 . S
C224 O227 1.252 . S
C224 O228 1.260 . S
C225 O232 1.240 . S
C225 O233 1.252 . S
C226 O229 1.252 . S
C226 O230 1.260 . S
O227 In221 2.266 . S
O227 C224 1.252 . S
O228 In221 2.326 . S
O228 C224 1.260 . S
O229 In221 2.266 . S
O229 C226 1.252 . S
O230 In221 2.326 . S
O230 C226 1.260 . S
C231 O222 1.240 . S
C231 O223 1.252 . S
O232 In221 2.294 . S
O232 C225 1.240 . S
O233 In221 2.326 . S
O233 C225 1.252 . S
In234 O235 2.294 . S
In234 O236 2.326 . S
In234 O240 2.266 . S
In234 O241 2.326 . S
In234 O242 2.266 . S
In234 O243 2.326 . S
In234 O245 2.294 . S
In234 O246 2.326 . S
O235 In234 2.294 . S
O235 C244 1.240 . S
O236 In234 2.326 . S
O236 C244 1.252 . S
C237 O240 1.252 . S
C237 O241 1.260 . S
C238 O245 1.240 . S
C238 O246 1.252 . S
C239 O242 1.252 . S
C239 O243 1.260 . S
O240 In234 2.266 . S
O240 C237 1.252 . S
O241 In234 2.326 . S
O241 C237 1.260 . S
O242 In234 2.266 . S
O242 C239 1.252 . S
O243 In234 2.326 . S
O243 C239 1.260 . S
C244 O235 1.240 . S
C244 O236 1.252 . S
O245 In234 2.294 . S
O245 C238 1.240 . S
O246 In234 2.326 . S
O246 C238 1.252 . S
In247 O248 2.294 . S
In247 O249 2.326 . S
In247 O253 2.266 . S
In247 O254 2.326 . S
In247 O255 2.266 . S
In247 O256 2.326 . S
In247 O258 2.294 . S
In247 O259 2.326 . S
O248 In247 2.294 . S
O248 C257 1.240 . S
O249 In247 2.326 . S
O249 C257 1.252 . S
C250 O253 1.252 . S
C250 O254 1.260 . S
C251 O258 1.240 . S
C251 O259 1.252 . S
C252 O255 1.252 . S
C252 O256 1.260 . S
O253 In247 2.266 . S
O253 C250 1.252 . S
O254 In247 2.326 . S
O254 C250 1.260 . S
O255 In247 2.266 . S
O255 C252 1.252 . S
O256 In247 2.326 . S
O256 C252 1.260 . S
C257 O248 1.240 . S
C257 O249 1.252 . S
O258 In247 2.294 . S
O258 C251 1.240 . S
O259 In247 2.326 . S
O259 C251 1.252 . S
In260 O261 2.294 . S
In260 O262 2.326 . S
In260 O266 2.266 . S
In260 O267 2.326 . S
In260 O268 2.266 . S
In260 O269 2.326 . S
In260 O271 2.294 . S
In260 O272 2.326 . S
O261 In260 2.294 . S
O261 C270 1.240 . S
O262 In260 2.326 . S
O262 C270 1.252 . S
C263 O266 1.252 . S
C263 O267 1.260 . S
C264 O271 1.240 . S
C264 O272 1.252 . S
C265 O268 1.252 . S
C265 O269 1.260 . S
O266 In260 2.266 . S
O266 C263 1.252 . S
O267 In260 2.326 . S
O267 C263 1.260 . S
O268 In260 2.266 . S
O268 C265 1.252 . S
O269 In260 2.326 . S
O269 C265 1.260 . S
C270 O261 1.240 . S
C270 O262 1.252 . S
O271 In260 2.294 . S
O271 C264 1.240 . S
O272 In260 2.326 . S
O272 C264 1.252 . S
In273 O274 2.294 . S
In273 O275 2.326 . S
In273 O279 2.266 . S
In273 O280 2.326 . S
In273 O281 2.266 . S
In273 O282 2.326 . S
In273 O284 2.294 . S
In273 O285 2.326 . S
O274 In273 2.294 . S
O274 C283 1.240 . S
O275 In273 2.326 . S
O275 C283 1.252 . S
C276 O279 1.252 . S
C276 O280 1.260 . S
C277 O284 1.240 . S
C277 O285 1.252 . S
C278 O281 1.252 . S
C278 O282 1.260 . S
O279 In273 2.266 . S
O279 C276 1.252 . S
O280 In273 2.326 . S
O280 C276 1.260 . S
O281 In273 2.266 . S
O281 C278 1.252 . S
O282 In273 2.326 . S
O282 C278 1.260 . S
C283 O274 1.240 . S
C283 O275 1.252 . S
O284 In273 2.294 . S
O284 C277 1.240 . S
O285 In273 2.326 . S
O285 C277 1.252 . S
In286 O287 2.294 . S
In286 O288 2.326 . S
In286 O292 2.266 . S
In286 O293 2.326 . S
In286 O294 2.266 . S
In286 O295 2.326 . S
In286 O297 2.294 . S
In286 O298 2.326 . S
O287 In286 2.294 . S
O287 C296 1.240 . S
O288 In286 2.326 . S
O288 C296 1.252 . S
C289 O292 1.252 . S
C289 O293 1.260 . S
C290 O297 1.240 . S
C290 O298 1.252 . S
C291 O294 1.252 . S
C291 O295 1.260 . S
O292 In286 2.266 . S
O292 C289 1.252 . S
O293 In286 2.326 . S
O293 C289 1.260 . S
O294 In286 2.266 . S
O294 C291 1.252 . S
O295 In286 2.326 . S
O295 C291 1.260 . S
C296 O287 1.240 . S
C296 O288 1.252 . S
O297 In286 2.294 . S
O297 C290 1.240 . S
O298 In286 2.326 . S
O298 C290 1.252 . S
In299 O300 2.294 . S
In299 O301 2.326 . S
In299 O305 2.266 . S
In299 O306 2.326 . S
In299 O307 2.266 . S
In299 O308 2.326 . S
In299 O310 2.294 . S
In299 O311 2.326 . S
O300 In299 2.294 . S
O300 C309 1.240 . S
O301 In299 2.326 . S
O301 C309 1.252 . S
C302 O305 1.252 . S
C302 O306 1.260 . S
C303 O310 1.240 . S
C303 O311 1.252 . S
C304 O307 1.252 . S
C304 O308 1.260 . S
O305 In299 2.266 . S
O305 C302 1.252 . S
O306 In299 2.326 . S
O306 C302 1.260 . S
O307 In299 2.266 . S
O307 C304 1.252 . S
O308 In299 2.326 . S
O308 C304 1.260 . S
C309 O300 1.240 . S
C309 O301 1.252 . S
O310 In299 2.294 . S
O310 C303 1.240 . S
O311 In299 2.326 . S
O311 C303 1.252 . S
In312 O313 2.294 . S
In312 O314 2.326 . S
In312 O318 2.266 . S
In312 O319 2.326 . S
In312 O320 2.266 . S
In312 O321 2.326 . S
In312 O323 2.294 . S
In312 O324 2.326 . S
O313 In312 2.294 . S
O313 C322 1.240 . S
O314 In312 2.326 . S
O314 C322 1.252 . S
C315 O318 1.252 . S
C315 O319 1.260 . S
C316 O323 1.240 . S
C316 O324 1.252 . S
C317 O320 1.252 . S
C317 O321 1.260 . S
O318 In312 2.266 . S
O318 C315 1.252 . S
O319 In312 2.326 . S
O319 C315 1.260 . S
O320 In312 2.266 . S
O320 C317 1.252 . S
O321 In312 2.326 . S
O321 C317 1.260 . S
C322 O313 1.240 . S
C322 O314 1.252 . S
O323 In312 2.294 . S
O323 C316 1.240 . S
O324 In312 2.326 . S
O324 C316 1.252 . S
In325 O326 2.294 . S
In325 O327 2.326 . S
In325 O331 2.266 . S
In325 O332 2.326 . S
In325 O333 2.266 . S
In325 O334 2.326 . S
In325 O336 2.294 . S
In325 O337 2.326 . S
O326 In325 2.294 . S
O326 C335 1.240 . S
O327 In325 2.326 . S
O327 C335 1.252 . S
C328 O331 1.252 . S
C328 O332 1.260 . S
C329 O336 1.240 . S
C329 O337 1.252 . S
C330 O333 1.252 . S
C330 O334 1.260 . S
O331 In325 2.266 . S
O331 C328 1.252 . S
O332 In325 2.326 . S
O332 C328 1.260 . S
O333 In325 2.266 . S
O333 C330 1.252 . S
O334 In325 2.326 . S
O334 C330 1.260 . S
C335 O326 1.240 . S
C335 O327 1.252 . S
O336 In325 2.294 . S
O336 C329 1.240 . S
O337 In325 2.326 . S
O337 C329 1.252 . S
In338 O339 2.294 . S
In338 O340 2.326 . S
In338 O344 2.266 . S
In338 O345 2.326 . S
In338 O346 2.266 1_556 S
In338 O347 2.326 1_556 S
In338 O349 2.294 . S
In338 O350 2.326 . S
O339 In338 2.294 . S
O339 C348 1.240 . S
O340 In338 2.326 . S
O340 C348 1.252 . S
C341 O344 1.252 . S
C341 O345 1.260 . S
C342 O349 1.240 . S
C342 O350 1.252 . S
C343 O346 1.252 . S
C343 O347 1.260 . S
O344 In338 2.266 . S
O344 C341 1.252 . S
O345 In338 2.326 . S
O345 C341 1.260 . S
O346 In338 2.266 1_554 S
O346 C343 1.252 . S
O347 In338 2.326 1_554 S
O347 C343 1.260 . S
C348 O339 1.240 . S
C348 O340 1.252 . S
O349 In338 2.294 . S
O349 C342 1.240 . S
O350 In338 2.326 . S
O350 C342 1.252 . S
In351 O352 2.294 . S
In351 O353 2.326 . S
In351 O357 2.266 1_556 S
In351 O358 2.326 1_556 S
In351 O359 2.266 . S
In351 O360 2.326 . S
In351 O362 2.294 . S
In351 O363 2.326 . S
O352 In351 2.294 . S
O352 C361 1.240 . S
O353 In351 2.326 . S
O353 C361 1.252 . S
C354 O357 1.252 . S
C354 O358 1.260 . S
C355 O362 1.240 . S
C355 O363 1.252 . S
C356 O359 1.252 . S
C356 O360 1.260 . S
O357 In351 2.266 1_554 S
O357 C354 1.252 . S
O358 In351 2.326 1_554 S
O358 C354 1.260 . S
O359 In351 2.266 . S
O359 C356 1.252 . S
O360 In351 2.326 . S
O360 C356 1.260 . S
C361 O352 1.240 . S
C361 O353 1.252 . S
O362 In351 2.294 . S
O362 C355 1.240 . S
O363 In351 2.326 . S
O363 C355 1.252 . S
In364 O365 2.294 . S
In364 O366 2.326 . S
In364 O370 2.266 . S
In364 O371 2.326 . S
In364 O372 2.266 . S
In364 O373 2.326 . S
In364 O375 2.294 . S
In364 O376 2.326 . S
O365 In364 2.294 . S
O365 C374 1.240 . S
O366 In364 2.326 . S
O366 C374 1.252 . S
C367 O370 1.252 . S
C367 O371 1.260 . S
C368 O375 1.240 . S
C368 O376 1.252 . S
C369 O372 1.252 . S
C369 O373 1.260 . S
O370 In364 2.266 . S
O370 C367 1.252 . S
O371 In364 2.326 . S
O371 C367 1.260 . S
O372 In364 2.266 . S
O372 C369 1.252 . S
O373 In364 2.326 . S
O373 C369 1.260 . S
C374 O365 1.240 . S
C374 O366 1.252 . S
O375 In364 2.294 . S
O375 C368 1.240 . S
O376 In364 2.326 . S
O376 C368 1.252 . S
In377 O378 2.294 . S
In377 O379 2.326 . S
In377 O383 2.266 . S
In377 O384 2.326 . S
In377 O385 2.266 . S
In377 O386 2.326 . S
In377 O388 2.294 . S
In377 O389 2.326 . S
O378 In377 2.294 . S
O378 C387 1.240 . S
O379 In377 2.326 . S
O379 C387 1.252 . S
C380 O383 1.252 . S
C380 O384 1.260 . S
C381 O388 1.240 . S
C381 O389 1.252 . S
C382 O385 1.252 . S
C382 O386 1.260 . S
O383 In377 2.266 . S
O383 C380 1.252 . S
O384 In377 2.326 . S
O384 C380 1.260 . S
O385 In377 2.266 . S
O385 C382 1.252 . S
O386 In377 2.326 . S
O386 C382 1.260 . S
C387 O378 1.240 . S
C387 O379 1.252 . S
O388 In377 2.294 . S
O388 C381 1.240 . S
O389 In377 2.326 . S
O389 C381 1.252 . S
In390 O391 2.294 . S
In390 O392 2.326 . S
In390 O396 2.266 1_554 S
In390 O397 2.326 1_554 S
In390 O398 2.266 . S
In390 O399 2.326 . S
In390 O401 2.294 . S
In390 O402 2.326 . S
O391 In390 2.294 . S
O391 C400 1.240 . S
O392 In390 2.326 . S
O392 C400 1.252 . S
C393 O396 1.252 . S
C393 O397 1.260 . S
C394 O401 1.240 . S
C394 O402 1.252 . S
C395 O398 1.252 . S
C395 O399 1.260 . S
O396 In390 2.266 1_556 S
O396 C393 1.252 . S
O397 In390 2.326 1_556 S
O397 C393 1.260 . S
O398 In390 2.266 . S
O398 C395 1.252 . S
O399 In390 2.326 . S
O399 C395 1.260 . S
C400 O391 1.240 . S
C400 O392 1.252 . S
O401 In390 2.294 . S
O401 C394 1.240 . S
O402 In390 2.326 . S
O402 C394 1.252 . S
In403 O404 2.294 . S
In403 O405 2.326 . S
In403 O409 2.266 1_554 S
In403 O410 2.326 1_554 S
In403 O411 2.266 . S
In403 O412 2.326 . S
In403 O414 2.294 . S
In403 O415 2.326 . S
O404 In403 2.294 . S
O404 C413 1.240 . S
O405 In403 2.326 . S
O405 C413 1.252 . S
C406 O409 1.252 . S
C406 O410 1.260 . S
C407 O414 1.240 . S
C407 O415 1.252 . S
C408 O411 1.252 . S
C408 O412 1.260 . S
O409 In403 2.266 1_556 S
O409 C406 1.252 . S
O410 In403 2.326 1_556 S
O410 C406 1.260 . S
O411 In403 2.266 . S
O411 C408 1.252 . S
O412 In403 2.326 . S
O412 C408 1.260 . S
C413 O404 1.240 . S
C413 O405 1.252 . S
O414 In403 2.294 . S
O414 C407 1.240 . S
O415 In403 2.326 . S
O415 C407 1.252 . S
H416 C422 0.930 . S
H417 C426 0.930 . S
H418 C431 0.929 . S
H419 C429 0.929 . S
H420 C424 0.929 . S
H421 C430 0.929 . S
C422 H416 0.930 . S
C422 C423 1.367 . S
C422 C430 1.378 . S
C423 C422 1.367 . S
C423 C431 1.433 . S
C424 H420 0.929 . S
C424 C426 1.378 . S
C424 C428 1.350 . S
C425 C428 1.463 . S
C425 C430 1.350 . S
C425 N433 1.427 . S
C426 H417 0.930 . S
C426 C424 1.378 . S
C426 C427 1.367 . S
C427 C426 1.367 . S
C427 C429 1.433 . S
C428 C424 1.350 . S
C428 C425 1.463 . S
C428 N432 1.427 . S
C429 H419 0.929 . S
C429 C427 1.433 . S
C429 N432 1.384 . S
C430 H421 0.929 . S
C430 C422 1.378 . S
C430 C425 1.350 . S
C431 H418 0.929 . S
C431 C423 1.433 . S
C431 N433 1.384 . S
N432 C428 1.427 . S
N432 C429 1.384 . S
N433 C425 1.427 . S
N433 C431 1.384 . S
H434 C440 0.930 . S
H435 C444 0.930 . S
H436 C449 0.929 . S
H437 C447 0.929 . S
H438 C442 0.929 . S
H439 C448 0.929 . S
C440 H434 0.930 . S
C440 C441 1.367 . S
C440 C448 1.378 . S
C441 C440 1.367 . S
C441 C449 1.433 . S
C442 H438 0.929 . S
C442 C444 1.378 . S
C442 C446 1.350 . S
C443 C446 1.463 . S
C443 C448 1.350 . S
C443 N451 1.427 . S
C444 H435 0.930 . S
C444 C442 1.378 . S
C444 C445 1.367 . S
C445 C444 1.367 . S
C445 C447 1.433 . S
C446 C442 1.350 . S
C446 C443 1.463 . S
C446 N450 1.427 . S
C447 H437 0.929 . S
C447 C445 1.433 . S
C447 N450 1.384 . S
C448 H439 0.929 . S
C448 C440 1.378 . S
C448 C443 1.350 . S
C449 H436 0.929 . S
C449 C441 1.433 . S
C449 N451 1.384 . S
N450 C446 1.427 . S
N450 C447 1.384 . S
N451 C443 1.427 . S
N451 C449 1.384 . S
H452 C458 0.930 . S
H453 C462 0.930 . S
H454 C467 0.929 . S
H455 C465 0.929 . S
H456 C460 0.929 . S
H457 C466 0.929 . S
C458 H452 0.930 . S
C458 C459 1.367 . S
C458 C466 1.378 . S
C459 C458 1.367 . S
C459 C467 1.433 . S
C460 H456 0.929 . S
C460 C462 1.378 . S
C460 C464 1.350 . S
C461 C464 1.463 . S
C461 C466 1.350 . S
C461 N469 1.427 . S
C462 H453 0.930 . S
C462 C460 1.378 . S
C462 C463 1.367 . S
C463 C462 1.367 . S
C463 C465 1.433 . S
C464 C460 1.350 . S
C464 C461 1.463 . S
C464 N468 1.427 . S
C465 H455 0.929 . S
C465 C463 1.433 . S
C465 N468 1.384 . S
C466 H457 0.929 . S
C466 C458 1.378 . S
C466 C461 1.350 . S
C467 H454 0.929 . S
C467 C459 1.433 . S
C467 N469 1.384 . S
N468 C464 1.427 . S
N468 C465 1.384 . S
N469 C461 1.427 . S
N469 C467 1.384 . S
H470 C476 0.930 . S
H471 C480 0.930 . S
H472 C485 0.929 . S
H473 C483 0.929 . S
H474 C478 0.929 . S
H475 C484 0.929 . S
C476 H470 0.930 . S
C476 C477 1.367 . S
C476 C484 1.378 . S
C477 C476 1.367 . S
C477 C485 1.433 . S
C478 H474 0.929 . S
C478 C480 1.378 . S
C478 C482 1.350 . S
C479 C482 1.463 . S
C479 C484 1.350 . S
C479 N487 1.427 . S
C480 H471 0.930 . S
C480 C478 1.378 . S
C480 C481 1.367 . S
C481 C480 1.367 . S
C481 C483 1.433 . S
C482 C478 1.350 . S
C482 C479 1.463 . S
C482 N486 1.427 . S
C483 H473 0.929 . S
C483 C481 1.433 . S
C483 N486 1.384 . S
C484 H475 0.929 . S
C484 C476 1.378 . S
C484 C479 1.350 . S
C485 H472 0.929 . S
C485 C477 1.433 . S
C485 N487 1.384 . S
N486 C482 1.427 . S
N486 C483 1.384 . S
N487 C479 1.427 . S
N487 C485 1.384 . S
H488 C494 0.930 . S
H489 C498 0.930 . S
H490 C503 0.929 . S
H491 C501 0.929 . S
H492 C496 0.929 . S
H493 C502 0.929 . S
C494 H488 0.930 . S
C494 C495 1.367 . S
C494 C502 1.378 . S
C495 C494 1.367 . S
C495 C503 1.433 . S
C496 H492 0.929 . S
C496 C498 1.378 . S
C496 C500 1.350 . S
C497 C500 1.463 . S
C497 C502 1.350 . S
C497 N505 1.427 . S
C498 H489 0.930 . S
C498 C496 1.378 . S
C498 C499 1.367 . S
C499 C498 1.367 . S
C499 C501 1.433 . S
C500 C496 1.350 . S
C500 C497 1.463 . S
C500 N504 1.427 . S
C501 H491 0.929 . S
C501 C499 1.433 . S
C501 N504 1.384 . S
C502 H493 0.929 . S
C502 C494 1.378 . S
C502 C497 1.350 . S
C503 H490 0.929 . S
C503 C495 1.433 . S
C503 N505 1.384 . S
N504 C500 1.427 . S
N504 C501 1.384 . S
N505 C497 1.427 . S
N505 C503 1.384 . S
H506 C512 0.930 . S
H507 C516 0.930 . S
H508 C521 0.929 . S
H509 C519 0.929 . S
H510 C514 0.929 . S
H511 C520 0.929 . S
C512 H506 0.930 . S
C512 C513 1.367 . S
C512 C520 1.378 . S
C513 C512 1.367 . S
C513 C521 1.433 . S
C514 H510 0.929 . S
C514 C516 1.378 . S
C514 C518 1.350 . S
C515 C518 1.463 . S
C515 C520 1.350 . S
C515 N523 1.427 . S
C516 H507 0.930 . S
C516 C514 1.378 . S
C516 C517 1.367 . S
C517 C516 1.367 . S
C517 C519 1.433 . S
C518 C514 1.350 . S
C518 C515 1.463 . S
C518 N522 1.427 . S
C519 H509 0.929 . S
C519 C517 1.433 . S
C519 N522 1.384 . S
C520 H511 0.929 . S
C520 C512 1.378 . S
C520 C515 1.350 . S
C521 H508 0.929 . S
C521 C513 1.433 . S
C521 N523 1.384 . S
N522 C518 1.427 . S
N522 C519 1.384 . S
N523 C515 1.427 . S
N523 C521 1.384 . S
H524 C530 0.930 . S
H525 C534 0.930 . S
H526 C539 0.929 . S
H527 C537 0.929 . S
H528 C532 0.929 . S
H529 C538 0.929 . S
C530 H524 0.930 . S
C530 C531 1.367 . S
C530 C538 1.378 . S
C531 C530 1.367 . S
C531 C539 1.433 . S
C532 H528 0.929 . S
C532 C534 1.378 . S
C532 C536 1.350 . S
C533 C536 1.463 . S
C533 C538 1.350 . S
C533 N541 1.427 . S
C534 H525 0.930 . S
C534 C532 1.378 . S
C534 C535 1.367 . S
C535 C534 1.367 . S
C535 C537 1.433 . S
C536 C532 1.350 . S
C536 C533 1.463 . S
C536 N540 1.427 . S
C537 H527 0.929 . S
C537 C535 1.433 . S
C537 N540 1.384 . S
C538 H529 0.929 . S
C538 C530 1.378 . S
C538 C533 1.350 . S
C539 H526 0.929 . S
C539 C531 1.433 . S
C539 N541 1.384 . S
N540 C536 1.427 . S
N540 C537 1.384 . S
N541 C533 1.427 . S
N541 C539 1.384 . S
H542 C548 0.930 . S
H543 C552 0.930 . S
H544 C557 0.929 . S
H545 C555 0.929 . S
H546 C550 0.929 . S
H547 C556 0.929 . S
C548 H542 0.930 . S
C548 C549 1.367 . S
C548 C556 1.378 . S
C549 C548 1.367 . S
C549 C557 1.433 . S
C550 H546 0.929 . S
C550 C552 1.378 . S
C550 C554 1.350 . S
C551 C554 1.463 . S
C551 C556 1.350 . S
C551 N559 1.427 . S
C552 H543 0.930 . S
C552 C550 1.378 . S
C552 C553 1.367 . S
C553 C552 1.367 . S
C553 C555 1.433 . S
C554 C550 1.350 . S
C554 C551 1.463 . S
C554 N558 1.427 . S
C555 H545 0.929 . S
C555 C553 1.433 . S
C555 N558 1.384 . S
C556 H547 0.929 . S
C556 C548 1.378 . S
C556 C551 1.350 . S
C557 H544 0.929 . S
C557 C549 1.433 . S
C557 N559 1.384 . S
N558 C554 1.427 . S
N558 C555 1.384 . S
N559 C551 1.427 . S
N559 C557 1.384 . S
H560 C566 0.930 . S
H561 C570 0.930 . S
H562 C575 0.929 . S
H563 C573 0.929 . S
H564 C568 0.929 . S
H565 C574 0.929 . S
C566 H560 0.930 . S
C566 C567 1.367 . S
C566 C574 1.378 . S
C567 C566 1.367 . S
C567 C575 1.433 . S
C568 H564 0.929 . S
C568 C570 1.378 . S
C568 C572 1.350 . S
C569 C572 1.463 . S
C569 C574 1.350 . S
C569 N577 1.427 . S
C570 H561 0.930 . S
C570 C568 1.378 . S
C570 C571 1.367 . S
C571 C570 1.367 . S
C571 C573 1.433 . S
C572 C568 1.350 . S
C572 C569 1.463 . S
C572 N576 1.427 . S
C573 H563 0.929 . S
C573 C571 1.433 . S
C573 N576 1.384 . S
C574 H565 0.929 . S
C574 C566 1.378 . S
C574 C569 1.350 . S
C575 H562 0.929 . S
C575 C567 1.433 . S
C575 N577 1.384 . S
N576 C572 1.427 . S
N576 C573 1.384 . S
N577 C569 1.427 . S
N577 C575 1.384 . S
H578 C584 0.930 . S
H579 C588 0.930 . S
H580 C593 0.929 . S
H581 C591 0.929 . S
H582 C586 0.929 . S
H583 C592 0.929 . S
C584 H578 0.930 . S
C584 C585 1.367 . S
C584 C592 1.378 . S
C585 C584 1.367 . S
C585 C593 1.433 . S
C586 H582 0.929 . S
C586 C588 1.378 . S
C586 C590 1.350 . S
C587 C590 1.463 . S
C587 C592 1.350 . S
C587 N595 1.427 . S
C588 H579 0.930 . S
C588 C586 1.378 . S
C588 C589 1.367 . S
C589 C588 1.367 . S
C589 C591 1.433 . S
C590 C586 1.350 . S
C590 C587 1.463 . S
C590 N594 1.427 . S
C591 H581 0.929 . S
C591 C589 1.433 . S
C591 N594 1.384 . S
C592 H583 0.929 . S
C592 C584 1.378 . S
C592 C587 1.350 . S
C593 H580 0.929 . S
C593 C585 1.433 . S
C593 N595 1.384 . S
N594 C590 1.427 . S
N594 C591 1.384 . S
N595 C587 1.427 . S
N595 C593 1.384 . S
H596 C602 0.930 . S
H597 C606 0.930 . S
H598 C611 0.929 . S
H599 C609 0.929 . S
H600 C604 0.929 . S
H601 C610 0.929 . S
C602 H596 0.930 . S
C602 C603 1.367 . S
C602 C610 1.378 . S
C603 C602 1.367 . S
C603 C611 1.433 . S
C604 H600 0.929 . S
C604 C606 1.378 . S
C604 C608 1.350 . S
C605 C608 1.463 . S
C605 C610 1.350 . S
C605 N613 1.427 . S
C606 H597 0.930 . S
C606 C604 1.378 . S
C606 C607 1.367 . S
C607 C606 1.367 . S
C607 C609 1.433 . S
C608 C604 1.350 . S
C608 C605 1.463 . S
C608 N612 1.427 . S
C609 H599 0.929 . S
C609 C607 1.433 . S
C609 N612 1.384 . S
C610 H601 0.929 . S
C610 C602 1.378 . S
C610 C605 1.350 . S
C611 H598 0.929 . S
C611 C603 1.433 . S
C611 N613 1.384 . S
N612 C608 1.427 . S
N612 C609 1.384 . S
N613 C605 1.427 . S
N613 C611 1.384 . S
H614 C620 0.930 . S
H615 C624 0.930 . S
H616 C629 0.929 . S
H617 C627 0.929 . S
H618 C622 0.929 . S
H619 C628 0.929 . S
C620 H614 0.930 . S
C620 C621 1.367 . S
C620 C628 1.378 . S
C621 C620 1.367 . S
C621 C629 1.433 . S
C622 H618 0.929 . S
C622 C624 1.378 . S
C622 C626 1.350 . S
C623 C626 1.463 . S
C623 C628 1.350 . S
C623 N631 1.427 . S
C624 H615 0.930 . S
C624 C622 1.378 . S
C624 C625 1.367 . S
C625 C624 1.367 . S
C625 C627 1.433 . S
C626 C622 1.350 . S
C626 C623 1.463 . S
C626 N630 1.427 . S
C627 H617 0.929 . S
C627 C625 1.433 . S
C627 N630 1.384 . S
C628 H619 0.929 . S
C628 C620 1.378 . S
C628 C623 1.350 . S
C629 H616 0.929 . S
C629 C621 1.433 . S
C629 N631 1.384 . S
N630 C626 1.427 . S
N630 C627 1.384 . S
N631 C623 1.427 . S
N631 C629 1.384 . S
H632 C638 0.930 . S
H633 C642 0.930 . S
H634 C647 0.929 . S
H635 C645 0.929 . S
H636 C640 0.929 . S
H637 C646 0.929 . S
C638 H632 0.930 . S
C638 C639 1.367 . S
C638 C646 1.378 . S
C639 C638 1.367 . S
C639 C647 1.433 . S
C640 H636 0.929 . S
C640 C642 1.378 . S
C640 C644 1.350 . S
C641 C644 1.463 . S
C641 C646 1.350 . S
C641 N649 1.427 . S
C642 H633 0.930 . S
C642 C640 1.378 . S
C642 C643 1.367 . S
C643 C642 1.367 . S
C643 C645 1.433 . S
C644 C640 1.350 . S
C644 C641 1.463 . S
C644 N648 1.427 . S
C645 H635 0.929 . S
C645 C643 1.433 . S
C645 N648 1.384 . S
C646 H637 0.929 . S
C646 C638 1.378 . S
C646 C641 1.350 . S
C647 H634 0.929 . S
C647 C639 1.433 . S
C647 N649 1.384 . S
N648 C644 1.427 . S
N648 C645 1.384 . S
N649 C641 1.427 . S
N649 C647 1.384 . S
H650 C656 0.930 . S
H651 C660 0.930 . S
H652 C665 0.929 . S
H653 C663 0.929 . S
H654 C658 0.929 . S
H655 C664 0.929 . S
C656 H650 0.930 . S
C656 C657 1.367 . S
C656 C664 1.378 . S
C657 C656 1.367 . S
C657 C665 1.433 . S
C658 H654 0.929 . S
C658 C660 1.378 . S
C658 C662 1.350 . S
C659 C662 1.463 . S
C659 C664 1.350 . S
C659 N667 1.427 . S
C660 H651 0.930 . S
C660 C658 1.378 . S
C660 C661 1.367 . S
C661 C660 1.367 . S
C661 C663 1.433 . S
C662 C658 1.350 . S
C662 C659 1.463 . S
C662 N666 1.427 . S
C663 H653 0.929 . S
C663 C661 1.433 . S
C663 N666 1.384 . S
C664 H655 0.929 . S
C664 C656 1.378 . S
C664 C659 1.350 . S
C665 H652 0.929 . S
C665 C657 1.433 . S
C665 N667 1.384 . S
N666 C662 1.427 . S
N666 C663 1.384 . S
N667 C659 1.427 . S
N667 C665 1.384 . S
H668 C674 0.930 . S
H669 C678 0.930 . S
H670 C683 0.929 . S
H671 C681 0.929 . S
H672 C676 0.929 . S
H673 C682 0.929 . S
C674 H668 0.930 . S
C674 C675 1.367 . S
C674 C682 1.378 . S
C675 C674 1.367 . S
C675 C683 1.433 . S
C676 H672 0.929 . S
C676 C678 1.378 . S
C676 C680 1.350 . S
C677 C680 1.463 . S
C677 C682 1.350 . S
C677 N685 1.427 . S
C678 H669 0.930 . S
C678 C676 1.378 . S
C678 C679 1.367 . S
C679 C678 1.367 . S
C679 C681 1.433 . S
C680 C676 1.350 . S
C680 C677 1.463 . S
C680 N684 1.427 . S
C681 H671 0.929 . S
C681 C679 1.433 . S
C681 N684 1.384 . S
C682 H673 0.929 . S
C682 C674 1.378 . S
C682 C677 1.350 . S
C683 H670 0.929 . S
C683 C675 1.433 . S
C683 N685 1.384 . S
N684 C680 1.427 . S
N684 C681 1.384 . S
N685 C677 1.427 . S
N685 C683 1.384 . S
H686 C692 0.930 . S
H687 C696 0.930 . S
H688 C701 0.929 . S
H689 C699 0.929 . S
H690 C694 0.929 . S
H691 C700 0.929 . S
C692 H686 0.930 . S
C692 C693 1.367 . S
C692 C700 1.378 . S
C693 C692 1.367 . S
C693 C701 1.433 . S
C694 H690 0.929 . S
C694 C696 1.378 . S
C694 C698 1.350 . S
C695 C698 1.463 . S
C695 C700 1.350 . S
C695 N703 1.427 . S
C696 H687 0.930 . S
C696 C694 1.378 . S
C696 C697 1.367 . S
C697 C696 1.367 . S
C697 C699 1.433 . S
C698 C694 1.350 . S
C698 C695 1.463 . S
C698 N702 1.427 . S
C699 H689 0.929 . S
C699 C697 1.433 . S
C699 N702 1.384 . S
C700 H691 0.929 . S
C700 C692 1.378 . S
C700 C695 1.350 . S
C701 H688 0.929 . S
C701 C693 1.433 . S
C701 N703 1.384 . S
N702 C698 1.427 . S
N702 C699 1.384 . S
N703 C695 1.427 . S
N703 C701 1.384 . S
H704 C710 0.930 . S
H705 C714 0.930 . S
H706 C719 0.929 . S
H707 C717 0.929 . S
H708 C712 0.929 . S
H709 C718 0.929 . S
C710 H704 0.930 . S
C710 C711 1.367 . S
C710 C718 1.378 . S
C711 C710 1.367 . S
C711 C719 1.433 . S
C712 H708 0.929 . S
C712 C714 1.378 . S
C712 C716 1.350 . S
C713 C716 1.463 . S
C713 C718 1.350 . S
C713 N721 1.427 . S
C714 H705 0.930 . S
C714 C712 1.378 . S
C714 C715 1.367 . S
C715 C714 1.367 . S
C715 C717 1.433 . S
C716 C712 1.350 . S
C716 C713 1.463 . S
C716 N720 1.427 . S
C717 H707 0.929 . S
C717 C715 1.433 . S
C717 N720 1.384 . S
C718 H709 0.929 . S
C718 C710 1.378 . S
C718 C713 1.350 . S
C719 H706 0.929 . S
C719 C711 1.433 . S
C719 N721 1.384 . S
N720 C716 1.427 . S
N720 C717 1.384 . S
N721 C713 1.427 . S
N721 C719 1.384 . S
H722 C728 0.930 . S
H723 C732 0.930 . S
H724 C737 0.929 1_455 S
H725 C735 0.929 . S
H726 C730 0.929 . S
H727 C736 0.929 . S
C728 H722 0.930 . S
C728 C729 1.367 . S
C728 C736 1.378 . S
C729 C728 1.367 . S
C729 C737 1.433 . S
C730 H726 0.929 . S
C730 C732 1.378 . S
C730 C734 1.350 . S
C731 C734 1.463 . S
C731 C736 1.350 . S
C731 N739 1.427 . S
C732 H723 0.930 . S
C732 C730 1.378 . S
C732 C733 1.367 . S
C733 C732 1.367 . S
C733 C735 1.433 . S
C734 C730 1.350 . S
C734 C731 1.463 . S
C734 N738 1.427 . S
C735 H725 0.929 . S
C735 C733 1.433 . S
C735 N738 1.384 . S
C736 H727 0.929 . S
C736 C728 1.378 . S
C736 C731 1.350 . S
C737 H724 0.929 1_655 S
C737 C729 1.433 . S
C737 N739 1.384 . S
N738 C734 1.427 . S
N738 C735 1.384 . S
N739 C731 1.427 . S
N739 C737 1.384 . S
H740 C746 0.930 . S
H741 C750 0.930 . S
H742 C755 0.929 . S
H743 C753 0.929 . S
H744 C748 0.929 . S
H745 C754 0.929 . S
C746 H740 0.930 . S
C746 C747 1.367 . S
C746 C754 1.378 . S
C747 C746 1.367 . S
C747 C755 1.433 . S
C748 H744 0.929 . S
C748 C750 1.378 . S
C748 C752 1.350 . S
C749 C752 1.463 . S
C749 C754 1.350 . S
C749 N757 1.427 . S
C750 H741 0.930 . S
C750 C748 1.378 . S
C750 C751 1.367 . S
C751 C750 1.367 . S
C751 C753 1.433 . S
C752 C748 1.350 . S
C752 C749 1.463 . S
C752 N756 1.427 . S
C753 H743 0.929 . S
C753 C751 1.433 . S
C753 N756 1.384 . S
C754 H745 0.929 . S
C754 C746 1.378 . S
C754 C749 1.350 . S
C755 H742 0.929 . S
C755 C747 1.433 . S
C755 N757 1.384 . S
N756 C752 1.427 . S
N756 C753 1.384 . S
N757 C749 1.427 . S
N757 C755 1.384 . S
H758 C764 0.930 . S
H759 C768 0.930 1_455 S
H760 C773 0.929 . S
H761 C771 0.929 . S
H762 C766 0.929 . S
H763 C772 0.929 . S
C764 H758 0.930 . S
C764 C765 1.367 . S
C764 C772 1.378 . S
C765 C764 1.367 . S
C765 C773 1.433 . S
C766 H762 0.929 . S
C766 C768 1.378 . S
C766 C770 1.350 . S
C767 C770 1.463 . S
C767 C772 1.350 . S
C767 N775 1.427 . S
C768 H759 0.930 1_655 S
C768 C766 1.378 . S
C768 C769 1.367 . S
C769 C768 1.367 . S
C769 C771 1.433 . S
C770 C766 1.350 . S
C770 C767 1.463 . S
C770 N774 1.427 . S
C771 H761 0.929 . S
C771 C769 1.433 . S
C771 N774 1.384 . S
C772 H763 0.929 . S
C772 C764 1.378 . S
C772 C767 1.350 . S
C773 H760 0.929 . S
C773 C765 1.433 . S
C773 N775 1.384 . S
N774 C770 1.427 . S
N774 C771 1.384 . S
N775 C767 1.427 . S
N775 C773 1.384 . S
H776 C782 0.930 . S
H777 C786 0.930 . S
H778 C791 0.929 . S
H779 C789 0.929 . S
H780 C784 0.929 . S
H781 C790 0.929 . S
C782 H776 0.930 . S
C782 C783 1.367 . S
C782 C790 1.378 . S
C783 C782 1.367 . S
C783 C791 1.433 . S
C784 H780 0.929 . S
C784 C786 1.378 . S
C784 C788 1.350 . S
C785 C788 1.463 . S
C785 C790 1.350 . S
C785 N793 1.427 . S
C786 H777 0.930 . S
C786 C784 1.378 . S
C786 C787 1.367 . S
C787 C786 1.367 . S
C787 C789 1.433 . S
C788 C784 1.350 . S
C788 C785 1.463 . S
C788 N792 1.427 . S
C789 H779 0.929 . S
C789 C787 1.433 . S
C789 N792 1.384 . S
C790 H781 0.929 . S
C790 C782 1.378 . S
C790 C785 1.350 . S
C791 H778 0.929 . S
C791 C783 1.433 . S
C791 N793 1.384 . S
N792 C788 1.427 . S
N792 C789 1.384 . S
N793 C785 1.427 . S
N793 C791 1.384 . S
H794 C800 0.930 . S
H795 C804 0.930 . S
H796 C809 0.929 1_655 S
H797 C807 0.929 . S
H798 C802 0.929 . S
H799 C808 0.929 . S
C800 H794 0.930 . S
C800 C801 1.367 . S
C800 C808 1.378 . S
C801 C800 1.367 . S
C801 C809 1.433 . S
C802 H798 0.929 . S
C802 C804 1.378 . S
C802 C806 1.350 . S
C803 C806 1.463 . S
C803 C808 1.350 . S
C803 N811 1.427 . S
C804 H795 0.930 . S
C804 C802 1.378 . S
C804 C805 1.367 . S
C805 C804 1.367 . S
C805 C807 1.433 . S
C806 C802 1.350 . S
C806 C803 1.463 . S
C806 N810 1.427 . S
C807 H797 0.929 . S
C807 C805 1.433 . S
C807 N810 1.384 . S
C808 H799 0.929 . S
C808 C800 1.378 . S
C808 C803 1.350 . S
C809 H796 0.929 1_455 S
C809 C801 1.433 . S
C809 N811 1.384 . S
N810 C806 1.427 . S
N810 C807 1.384 . S
N811 C803 1.427 . S
N811 C809 1.384 . S
H812 C818 0.930 . S
H813 C822 0.930 . S
H814 C827 0.929 . S
H815 C825 0.929 . S
H816 C820 0.929 . S
H817 C826 0.929 . S
C818 H812 0.930 . S
C818 C819 1.367 . S
C818 C826 1.378 . S
C819 C818 1.367 . S
C819 C827 1.433 . S
C820 H816 0.929 . S
C820 C822 1.378 . S
C820 C824 1.350 . S
C821 C824 1.463 . S
C821 C826 1.350 . S
C821 N829 1.427 . S
C822 H813 0.930 . S
C822 C820 1.378 . S
C822 C823 1.367 . S
C823 C822 1.367 . S
C823 C825 1.433 . S
C824 C820 1.350 . S
C824 C821 1.463 . S
C824 N828 1.427 . S
C825 H815 0.929 . S
C825 C823 1.433 . S
C825 N828 1.384 . S
C826 H817 0.929 . S
C826 C818 1.378 . S
C826 C821 1.350 . S
C827 H814 0.929 . S
C827 C819 1.433 . S
C827 N829 1.384 . S
N828 C824 1.427 . S
N828 C825 1.384 . S
N829 C821 1.427 . S
N829 C827 1.384 . S
H830 C836 0.930 . S
H831 C840 0.930 . S
H832 C845 0.929 1_655 S
H833 C843 0.929 . S
H834 C838 0.929 . S
H835 C844 0.929 . S
C836 H830 0.930 . S
C836 C837 1.367 . S
C836 C844 1.378 . S
C837 C836 1.367 . S
C837 C845 1.433 . S
C838 H834 0.929 . S
C838 C840 1.378 . S
C838 C842 1.350 . S
C839 C842 1.463 . S
C839 C844 1.350 . S
C839 N847 1.427 . S
C840 H831 0.930 . S
C840 C838 1.378 . S
C840 C841 1.367 . S
C841 C840 1.367 . S
C841 C843 1.433 . S
C842 C838 1.350 . S
C842 C839 1.463 . S
C842 N846 1.427 . S
C843 H833 0.929 . S
C843 C841 1.433 . S
C843 N846 1.384 . S
C844 H835 0.929 . S
C844 C836 1.378 . S
C844 C839 1.350 . S
C845 H832 0.929 1_455 S
C845 C837 1.433 . S
C845 N847 1.384 . S
N846 C842 1.427 . S
N846 C843 1.384 . S
N847 C839 1.427 . S
N847 C845 1.384 . S
H848 C854 0.930 . S
H849 C858 0.930 . S
H850 C863 0.929 . S
H851 C861 0.929 . S
H852 C856 0.929 . S
H853 C862 0.929 . S
C854 H848 0.930 . S
C854 C855 1.367 . S
C854 C862 1.378 . S
C855 C854 1.367 . S
C855 C863 1.433 . S
C856 H852 0.929 . S
C856 C858 1.378 . S
C856 C860 1.350 . S
C857 C860 1.463 . S
C857 C862 1.350 . S
C857 N865 1.427 . S
C858 H849 0.930 . S
C858 C856 1.378 . S
C858 C859 1.367 . S
C859 C858 1.367 . S
C859 C861 1.433 . S
C860 C856 1.350 . S
C860 C857 1.463 . S
C860 N864 1.427 . S
C861 H851 0.929 . S
C861 C859 1.433 . S
C861 N864 1.384 . S
C862 H853 0.929 . S
C862 C854 1.378 . S
C862 C857 1.350 . S
C863 H850 0.929 . S
C863 C855 1.433 . S
C863 N865 1.384 . S
N864 C860 1.427 . S
N864 C861 1.384 . S
N865 C857 1.427 . S
N865 C863 1.384 . S
H866 C872 0.930 . S
H867 C876 0.930 1_455 S
H868 C881 0.929 . S
H869 C879 0.929 . S
H870 C874 0.929 . S
H871 C880 0.929 . S
C872 H866 0.930 . S
C872 C873 1.367 . S
C872 C880 1.378 . S
C873 C872 1.367 . S
C873 C881 1.433 . S
C874 H870 0.929 . S
C874 C876 1.378 . S
C874 C878 1.350 . S
C875 C878 1.463 . S
C875 C880 1.350 . S
C875 N883 1.427 . S
C876 H867 0.930 1_655 S
C876 C874 1.378 . S
C876 C877 1.367 . S
C877 C876 1.367 . S
C877 C879 1.433 . S
C878 C874 1.350 . S
C878 C875 1.463 . S
C878 N882 1.427 . S
C879 H869 0.929 . S
C879 C877 1.433 . S
C879 N882 1.384 . S
C880 H871 0.929 . S
C880 C872 1.378 . S
C880 C875 1.350 . S
C881 H868 0.929 . S
C881 C873 1.433 . S
C881 N883 1.384 . S
N882 C878 1.427 . S
N882 C879 1.384 . S
N883 C875 1.427 . S
N883 C881 1.384 . S
H884 C890 0.930 . S
H885 C894 0.930 . S
H886 C899 0.929 . S
H887 C897 0.929 . S
H888 C892 0.929 . S
H889 C898 0.929 . S
C890 H884 0.930 . S
C890 C891 1.367 . S
C890 C898 1.378 . S
C891 C890 1.367 . S
C891 C899 1.433 . S
C892 H888 0.929 . S
C892 C894 1.378 . S
C892 C896 1.350 . S
C893 C896 1.463 . S
C893 C898 1.350 . S
C893 N901 1.427 . S
C894 H885 0.930 . S
C894 C892 1.378 . S
C894 C895 1.367 . S
C895 C894 1.367 . S
C895 C897 1.433 . S
C896 C892 1.350 . S
C896 C893 1.463 . S
C896 N900 1.427 . S
C897 H887 0.929 . S
C897 C895 1.433 . S
C897 N900 1.384 . S
C898 H889 0.929 . S
C898 C890 1.378 . S
C898 C893 1.350 . S
C899 H886 0.929 . S
C899 C891 1.433 . S
C899 N901 1.384 . S
N900 C896 1.427 . S
N900 C897 1.384 . S
N901 C893 1.427 . S
N901 C899 1.384 . S
H902 C908 0.930 . S
H903 C912 0.930 . S
H904 C917 0.929 . S
H905 C915 0.929 1_455 S
H906 C910 0.929 . S
H907 C916 0.929 . S
C908 H902 0.930 . S
C908 C909 1.367 . S
C908 C916 1.378 . S
C909 C908 1.367 . S
C909 C917 1.433 . S
C910 H906 0.929 . S
C910 C912 1.378 . S
C910 C914 1.350 . S
C911 C914 1.463 . S
C911 C916 1.350 . S
C911 N919 1.427 . S
C912 H903 0.930 . S
C912 C910 1.378 . S
C912 C913 1.367 . S
C913 C912 1.367 . S
C913 C915 1.433 . S
C914 C910 1.350 . S
C914 C911 1.463 . S
C914 N918 1.427 . S
C915 H905 0.929 1_655 S
C915 C913 1.433 . S
C915 N918 1.384 . S
C916 H907 0.929 . S
C916 C908 1.378 . S
C916 C911 1.350 . S
C917 H904 0.929 . S
C917 C909 1.433 . S
C917 N919 1.384 . S
N918 C914 1.427 . S
N918 C915 1.384 . S
N919 C911 1.427 . S
N919 C917 1.384 . S
H920 C926 0.930 . S
H921 C930 0.930 . S
H922 C935 0.929 . S
H923 C933 0.929 . S
H924 C928 0.929 . S
H925 C934 0.929 . S
C926 H920 0.930 . S
C926 C927 1.367 . S
C926 C934 1.378 . S
C927 C926 1.367 . S
C927 C935 1.433 . S
C928 H924 0.929 . S
C928 C930 1.378 . S
C928 C932 1.350 . S
C929 C932 1.463 . S
C929 C934 1.350 . S
C929 N937 1.427 . S
C930 H921 0.930 . S
C930 C928 1.378 . S
C930 C931 1.367 . S
C931 C930 1.367 . S
C931 C933 1.433 . S
C932 C928 1.350 . S
C932 C929 1.463 . S
C932 N936 1.427 . S
C933 H923 0.929 . S
C933 C931 1.433 . S
C933 N936 1.384 . S
C934 H925 0.929 . S
C934 C926 1.378 . S
C934 C929 1.350 . S
C935 H922 0.929 . S
C935 C927 1.433 . S
C935 N937 1.384 . S
N936 C932 1.427 . S
N936 C933 1.384 . S
N937 C929 1.427 . S
N937 C935 1.384 . S
H938 C944 0.930 . S
H939 C948 0.930 . S
H940 C953 0.929 . S
H941 C951 0.929 1_655 S
H942 C946 0.929 . S
H943 C952 0.929 . S
C944 H938 0.930 . S
C944 C945 1.367 . S
C944 C952 1.378 . S
C945 C944 1.367 . S
C945 C953 1.433 . S
C946 H942 0.929 . S
C946 C948 1.378 . S
C946 C950 1.350 . S
C947 C950 1.463 . S
C947 C952 1.350 . S
C947 N955 1.427 . S
C948 H939 0.930 . S
C948 C946 1.378 . S
C948 C949 1.367 . S
C949 C948 1.367 . S
C949 C951 1.433 . S
C950 C946 1.350 . S
C950 C947 1.463 . S
C950 N954 1.427 . S
C951 H941 0.929 1_455 S
C951 C949 1.433 . S
C951 N954 1.384 . S
C952 H943 0.929 . S
C952 C944 1.378 . S
C952 C947 1.350 . S
C953 H940 0.929 . S
C953 C945 1.433 . S
C953 N955 1.384 . S
N954 C950 1.427 . S
N954 C951 1.384 . S
N955 C947 1.427 . S
N955 C953 1.384 . S
H956 C962 0.930 . S
H957 C966 0.930 . S
H958 C971 0.929 . S
H959 C969 0.929 . S
H960 C964 0.929 . S
H961 C970 0.929 . S
C962 H956 0.930 . S
C962 C963 1.367 . S
C962 C970 1.378 . S
C963 C962 1.367 . S
C963 C971 1.433 . S
C964 H960 0.929 . S
C964 C966 1.378 . S
C964 C968 1.350 . S
C965 C968 1.463 . S
C965 C970 1.350 . S
C965 N973 1.427 . S
C966 H957 0.930 . S
C966 C964 1.378 . S
C966 C967 1.367 . S
C967 C966 1.367 . S
C967 C969 1.433 . S
C968 C964 1.350 . S
C968 C965 1.463 . S
C968 N972 1.427 . S
C969 H959 0.929 . S
C969 C967 1.433 . S
C969 N972 1.384 . S
C970 H961 0.929 . S
C970 C962 1.378 . S
C970 C965 1.350 . S
C971 H958 0.929 . S
C971 C963 1.433 . S
C971 N973 1.384 . S
N972 C968 1.427 . S
N972 C969 1.384 . S
N973 C965 1.427 . S
N973 C971 1.384 . S
H974 C980 0.930 . S
H975 C984 0.930 . S
H976 C989 0.929 1_655 S
H977 C987 0.929 . S
H978 C982 0.929 . S
H979 C988 0.929 . S
C980 H974 0.930 . S
C980 C981 1.367 . S
C980 C988 1.378 . S
C981 C980 1.367 . S
C981 C989 1.433 . S
C982 H978 0.929 . S
C982 C984 1.378 . S
C982 C986 1.350 . S
C983 C986 1.463 . S
C983 C988 1.350 . S
C983 N991 1.427 . S
C984 H975 0.930 . S
C984 C982 1.378 . S
C984 C985 1.367 . S
C985 C984 1.367 . S
C985 C987 1.433 . S
C986 C982 1.350 . S
C986 C983 1.463 . S
C986 N990 1.427 . S
C987 H977 0.929 . S
C987 C985 1.433 . S
C987 N990 1.384 . S
C988 H979 0.929 . S
C988 C980 1.378 . S
C988 C983 1.350 . S
C989 H976 0.929 1_455 S
C989 C981 1.433 . S
C989 N991 1.384 . S
N990 C986 1.427 . S
N990 C987 1.384 . S
N991 C983 1.427 . S
N991 C989 1.384 . S
H992 C998 0.930 1_455 S
H993 C1002 0.930 1_655 S
H994 C1007 0.929 . S
H995 C1005 0.929 . S
H996 C1000 0.929 . S
H997 C1006 0.929 . S
C998 H992 0.930 1_655 S
C998 C999 1.367 . S
C998 C1006 1.378 1_655 S
C999 C998 1.367 . S
C999 C1007 1.433 . S
C1000 H996 0.929 . S
C1000 C1002 1.378 1_655 S
C1000 C1004 1.350 1_655 S
C1001 C1004 1.463 1_655 S
C1001 C1006 1.350 1_655 S
C1001 N1009 1.427 . S
C1002 H993 0.930 1_455 S
C1002 C1000 1.378 1_455 S
C1002 C1003 1.367 . S
C1003 C1002 1.367 . S
C1003 C1005 1.433 . S
C1004 C1000 1.350 1_455 S
C1004 C1001 1.463 1_455 S
C1004 N1008 1.427 . S
C1005 H995 0.929 . S
C1005 C1003 1.433 . S
C1005 N1008 1.384 . S
C1006 H997 0.929 . S
C1006 C998 1.378 1_455 S
C1006 C1001 1.350 1_455 S
C1007 H994 0.929 . S
C1007 C999 1.433 . S
C1007 N1009 1.384 . S
N1008 C1004 1.427 . S
N1008 C1005 1.384 . S
N1009 C1001 1.427 . S
N1009 C1007 1.384 . S
H1010 C1016 0.930 . S
H1011 C1020 0.930 . S
H1012 C1025 0.929 . S
H1013 C1023 0.929 . S
H1014 C1018 0.929 . S
H1015 C1024 0.929 . S
C1016 H1010 0.930 . S
C1016 C1017 1.367 . S
C1016 C1024 1.378 . S
C1017 C1016 1.367 . S
C1017 C1025 1.433 . S
C1018 H1014 0.929 . S
C1018 C1020 1.378 . S
C1018 C1022 1.350 . S
C1019 C1022 1.463 1_565 S
C1019 C1024 1.350 . S
C1019 N1027 1.427 . S
C1020 H1011 0.930 . S
C1020 C1018 1.378 . S
C1020 C1021 1.367 . S
C1021 C1020 1.367 . S
C1021 C1023 1.433 . S
C1022 C1018 1.350 . S
C1022 C1019 1.463 1_545 S
C1022 N1026 1.427 . S
C1023 H1013 0.929 . S
C1023 C1021 1.433 . S
C1023 N1026 1.384 . S
C1024 H1015 0.929 . S
C1024 C1016 1.378 . S
C1024 C1019 1.350 . S
C1025 H1012 0.929 . S
C1025 C1017 1.433 . S
C1025 N1027 1.384 . S
N1026 C1022 1.427 . S
N1026 C1023 1.384 . S
N1027 C1019 1.427 . S
N1027 C1025 1.384 . S
H1028 C1034 0.930 1_556 S
H1029 C1038 0.930 1_554 S
H1030 C1043 0.929 . S
H1031 C1041 0.929 . S
H1032 C1036 0.929 . S
H1033 C1042 0.929 . S
C1034 H1028 0.930 1_554 S
C1034 C1035 1.367 . S
C1034 C1042 1.378 1_654 S
C1035 C1034 1.367 . S
C1035 C1043 1.433 . S
C1036 H1032 0.929 . S
C1036 C1038 1.378 1_654 S
C1036 C1040 1.350 1_654 S
C1037 C1040 1.463 1_644 S
C1037 C1042 1.350 1_654 S
C1037 N1045 1.427 . S
C1038 H1029 0.930 1_556 S
C1038 C1036 1.378 1_456 S
C1038 C1039 1.367 . S
C1039 C1038 1.367 . S
C1039 C1041 1.433 . S
C1040 C1036 1.350 1_456 S
C1040 C1037 1.463 1_466 S
C1040 N1044 1.427 . S
C1041 H1031 0.929 . S
C1041 C1039 1.433 . S
C1041 N1044 1.384 . S
C1042 H1033 0.929 . S
C1042 C1034 1.378 1_456 S
C1042 C1037 1.350 1_456 S
C1043 H1030 0.929 . S
C1043 C1035 1.433 . S
C1043 N1045 1.384 . S
N1044 C1040 1.427 . S
N1044 C1041 1.384 . S
N1045 C1037 1.427 . S
N1045 C1043 1.384 . S
H1046 C1052 0.938 . S
H1047 C1056 0.938 . S
H1048 C1061 0.929 . S
H1049 C1059 0.929 . S
H1050 C1054 0.929 . S
H1051 C1060 0.929 . S
C1052 H1046 0.938 . S
C1052 C1053 1.355 1_556 S
C1052 C1060 1.383 . S
C1053 C1052 1.355 1_554 S
C1053 C1061 1.433 . S
C1054 H1050 0.929 . S
C1054 C1056 1.383 . S
C1054 C1058 1.350 1_554 S
C1055 C1058 1.463 1_554 S
C1055 C1060 1.350 1_554 S
C1055 N1063 1.427 . S
C1056 H1047 0.938 . S
C1056 C1054 1.383 . S
C1056 C1057 1.355 1_554 S
C1057 C1056 1.355 1_556 S
C1057 C1059 1.433 . S
C1058 C1054 1.350 1_556 S
C1058 C1055 1.463 1_556 S
C1058 N1062 1.427 . S
C1059 H1049 0.929 . S
C1059 C1057 1.433 . S
C1059 N1062 1.384 . S
C1060 H1051 0.929 . S
C1060 C1052 1.383 . S
C1060 C1055 1.350 1_556 S
C1061 H1048 0.929 . S
C1061 C1053 1.433 . S
C1061 N1063 1.384 . S
N1062 C1058 1.427 . S
N1062 C1059 1.384 . S
N1063 C1055 1.427 . S
N1063 C1061 1.384 . S
H1064 C1070 0.930 1_455 S
H1065 C1074 0.930 1_655 S
H1066 C1079 0.929 . S
H1067 C1077 0.929 . S
H1068 C1072 0.929 . S
H1069 C1078 0.929 . S
C1070 H1064 0.930 1_655 S
C1070 C1071 1.367 . S
C1070 C1078 1.378 1_655 S
C1071 C1070 1.367 . S
C1071 C1079 1.433 . S
C1072 H1068 0.929 . S
C1072 C1074 1.378 1_655 S
C1072 C1076 1.350 1_655 S
C1073 C1076 1.463 1_655 S
C1073 C1078 1.350 1_655 S
C1073 N1081 1.427 . S
C1074 H1065 0.930 1_455 S
C1074 C1072 1.378 1_455 S
C1074 C1075 1.367 . S
C1075 C1074 1.367 . S
C1075 C1077 1.433 . S
C1076 C1072 1.350 1_455 S
C1076 C1073 1.463 1_455 S
C1076 N1080 1.427 . S
C1077 H1067 0.929 . S
C1077 C1075 1.433 . S
C1077 N1080 1.384 . S
C1078 H1069 0.929 . S
C1078 C1070 1.378 1_455 S
C1078 C1073 1.350 1_455 S
C1079 H1066 0.929 . S
C1079 C1071 1.433 . S
C1079 N1081 1.384 . S
N1080 C1076 1.427 . S
N1080 C1077 1.384 . S
N1081 C1073 1.427 . S
N1081 C1079 1.384 . S
H1082 C1088 0.930 . S
H1083 C1092 0.930 . S
H1084 C1097 0.929 . S
H1085 C1095 0.929 . S
H1086 C1090 0.929 . S
H1087 C1096 0.929 . S
C1088 H1082 0.930 . S
C1088 C1089 1.367 . S
C1088 C1096 1.378 . S
C1089 C1088 1.367 . S
C1089 C1097 1.433 . S
C1090 H1086 0.929 . S
C1090 C1092 1.378 . S
C1090 C1094 1.350 . S
C1091 C1094 1.463 1_565 S
C1091 C1096 1.350 . S
C1091 N1099 1.427 . S
C1092 H1083 0.930 . S
C1092 C1090 1.378 . S
C1092 C1093 1.367 . S
C1093 C1092 1.367 . S
C1093 C1095 1.433 . S
C1094 C1090 1.350 . S
C1094 C1091 1.463 1_545 S
C1094 N1098 1.427 . S
C1095 H1085 0.929 . S
C1095 C1093 1.433 . S
C1095 N1098 1.384 . S
C1096 H1087 0.929 . S
C1096 C1088 1.378 . S
C1096 C1091 1.350 . S
C1097 H1084 0.929 . S
C1097 C1089 1.433 . S
C1097 N1099 1.384 . S
N1098 C1094 1.427 . S
N1098 C1095 1.384 . S
N1099 C1091 1.427 . S
N1099 C1097 1.384 . S
H1100 C1106 0.930 . S
H1101 C1110 0.930 . S
H1102 C1115 0.929 . S
H1103 C1113 0.929 . S
H1104 C1108 0.929 1_556 S
H1105 C1114 0.929 1_554 S
C1106 H1100 0.930 . S
C1106 C1107 1.367 . S
C1106 C1114 1.378 . S
C1107 C1106 1.367 . S
C1107 C1115 1.433 . S
C1108 H1104 0.929 1_554 S
C1108 C1110 1.378 . S
C1108 C1112 1.350 . S
C1109 C1112 1.463 1_556 S
C1109 C1114 1.350 . S
C1109 N1117 1.427 . S
C1110 H1101 0.930 . S
C1110 C1108 1.378 . S
C1110 C1111 1.367 . S
C1111 C1110 1.367 . S
C1111 C1113 1.433 . S
C1112 C1108 1.350 . S
C1112 C1109 1.463 1_554 S
C1112 N1116 1.427 . S
C1113 H1103 0.929 . S
C1113 C1111 1.433 . S
C1113 N1116 1.384 . S
C1114 H1105 0.929 1_556 S
C1114 C1106 1.378 . S
C1114 C1109 1.350 . S
C1115 H1102 0.929 . S
C1115 C1107 1.433 . S
C1115 N1117 1.384 . S
N1116 C1112 1.427 . S
N1116 C1113 1.384 . S
N1117 C1109 1.427 . S
N1117 C1115 1.384 . S
H1118 C1124 0.930 . S
H1119 C1128 0.930 . S
H1120 C1133 0.929 . S
H1121 C1131 0.929 . S
H1122 C1126 0.929 . S
H1123 C1132 0.929 . S
C1124 H1118 0.930 . S
C1124 C1125 1.367 . S
C1124 C1132 1.378 . S
C1125 C1124 1.367 . S
C1125 C1133 1.433 . S
C1126 H1122 0.929 . S
C1126 C1128 1.378 . S
C1126 C1130 1.350 . S
C1127 C1130 1.463 . S
C1127 C1132 1.350 . S
C1127 N1135 1.427 . S
C1128 H1119 0.930 . S
C1128 C1126 1.378 . S
C1128 C1129 1.367 . S
C1129 C1128 1.367 . S
C1129 C1131 1.433 . S
C1130 C1126 1.350 . S
C1130 C1127 1.463 . S
C1130 N1134 1.427 . S
C1131 H1121 0.929 . S
C1131 C1129 1.433 . S
C1131 N1134 1.384 . S
C1132 H1123 0.929 . S
C1132 C1124 1.378 . S
C1132 C1127 1.350 . S
C1133 H1120 0.929 . S
C1133 C1125 1.433 . S
C1133 N1135 1.384 . S
N1134 C1130 1.427 . S
N1134 C1131 1.384 . S
N1135 C1127 1.427 . S
N1135 C1133 1.384 . S
H1136 C1142 0.930 . S
H1137 C1146 0.930 . S
H1138 C1151 0.929 . S
H1139 C1149 0.929 . S
H1140 C1144 0.929 . S
H1141 C1150 0.929 . S
C1142 H1136 0.930 . S
C1142 C1143 1.367 . S
C1142 C1150 1.378 . S
C1143 C1142 1.367 . S
C1143 C1151 1.433 . S
C1144 H1140 0.929 . S
C1144 C1146 1.378 . S
C1144 C1148 1.350 . S
C1145 C1148 1.463 1_455 S
C1145 C1150 1.350 . S
C1145 N1153 1.430 . S
C1146 H1137 0.930 . S
C1146 C1144 1.378 . S
C1146 C1147 1.367 . S
C1147 C1146 1.367 . S
C1147 C1149 1.433 . S
C1148 C1144 1.350 . S
C1148 C1145 1.463 1_655 S
C1148 N1152 1.430 . S
C1149 H1139 0.929 . S
C1149 C1147 1.433 . S
C1149 N1152 1.389 . S
C1150 H1141 0.929 . S
C1150 C1142 1.378 . S
C1150 C1145 1.350 . S
C1151 H1138 0.929 . S
C1151 C1143 1.433 . S
C1151 N1153 1.389 . S
N1152 C1148 1.430 . S
N1152 C1149 1.389 . S
N1153 C1145 1.430 . S
N1153 C1151 1.389 . S
H1154 C1160 0.930 . S
H1155 C1164 0.930 . S
H1156 C1169 0.929 . S
H1157 C1167 0.929 . S
H1158 C1162 0.929 . S
H1159 C1168 0.929 . S
C1160 H1154 0.930 . S
C1160 C1161 1.367 . S
C1160 C1168 1.378 . S
C1161 C1160 1.367 . S
C1161 C1169 1.433 . S
C1162 H1158 0.929 . S
C1162 C1164 1.378 . S
C1162 C1166 1.350 . S
C1163 C1166 1.463 . S
C1163 C1168 1.350 . S
C1163 N1171 1.427 . S
C1164 H1155 0.930 . S
C1164 C1162 1.378 . S
C1164 C1165 1.367 . S
C1165 C1164 1.367 . S
C1165 C1167 1.433 . S
C1166 C1162 1.350 . S
C1166 C1163 1.463 . S
C1166 N1170 1.427 . S
C1167 H1157 0.929 . S
C1167 C1165 1.433 . S
C1167 N1170 1.384 . S
C1168 H1159 0.929 . S
C1168 C1160 1.378 . S
C1168 C1163 1.350 . S
C1169 H1156 0.929 . S
C1169 C1161 1.433 . S
C1169 N1171 1.384 . S
N1170 C1166 1.427 . S
N1170 C1167 1.384 . S
N1171 C1163 1.427 . S
N1171 C1169 1.384 . S
H1172 C1178 0.930 . S
H1173 C1182 0.930 . S
H1174 C1187 0.929 . S
H1175 C1185 0.929 . S
H1176 C1180 0.929 . S
H1177 C1186 0.929 . S
C1178 H1172 0.930 . S
C1178 C1179 1.367 . S
C1178 C1186 1.378 . S
C1179 C1178 1.367 . S
C1179 C1187 1.433 . S
C1180 H1176 0.929 . S
C1180 C1182 1.378 . S
C1180 C1184 1.350 . S
C1181 C1184 1.463 . S
C1181 C1186 1.350 . S
C1181 N1189 1.427 . S
C1182 H1173 0.930 . S
C1182 C1180 1.378 . S
C1182 C1183 1.367 . S
C1183 C1182 1.367 . S
C1183 C1185 1.433 . S
C1184 C1180 1.350 . S
C1184 C1181 1.463 . S
C1184 N1188 1.427 . S
C1185 H1175 0.929 . S
C1185 C1183 1.433 . S
C1185 N1188 1.384 . S
C1186 H1177 0.929 . S
C1186 C1178 1.378 . S
C1186 C1181 1.350 . S
C1187 H1174 0.929 . S
C1187 C1179 1.433 . S
C1187 N1189 1.384 . S
N1188 C1184 1.427 . S
N1188 C1185 1.384 . S
N1189 C1181 1.427 . S
N1189 C1187 1.384 . S
H1190 C1196 0.930 . S
H1191 C1200 0.930 . S
H1192 C1205 0.929 . S
H1193 C1203 0.929 . S
H1194 C1198 0.929 . S
H1195 C1204 0.929 . S
C1196 H1190 0.930 . S
C1196 C1197 1.367 . S
C1196 C1204 1.378 . S
C1197 C1196 1.367 . S
C1197 C1205 1.433 . S
C1198 H1194 0.929 . S
C1198 C1200 1.378 . S
C1198 C1202 1.350 . S
C1199 C1202 1.463 . S
C1199 C1204 1.350 . S
C1199 N1207 1.427 . S
C1200 H1191 0.930 . S
C1200 C1198 1.378 . S
C1200 C1201 1.367 . S
C1201 C1200 1.367 . S
C1201 C1203 1.433 . S
C1202 C1198 1.350 . S
C1202 C1199 1.463 . S
C1202 N1206 1.427 . S
C1203 H1193 0.929 . S
C1203 C1201 1.433 . S
C1203 N1206 1.384 . S
C1204 H1195 0.929 . S
C1204 C1196 1.378 . S
C1204 C1199 1.350 . S
C1205 H1192 0.929 . S
C1205 C1197 1.433 . S
C1205 N1207 1.384 . S
N1206 C1202 1.427 . S
N1206 C1203 1.384 . S
N1207 C1199 1.427 . S
N1207 C1205 1.384 . S
H1208 C1214 0.930 . S
H1209 C1218 0.930 . S
H1210 C1223 0.929 . S
H1211 C1221 0.929 . S
H1212 C1216 0.929 . S
H1213 C1222 0.929 . S
C1214 H1208 0.930 . S
C1214 C1215 1.367 . S
C1214 C1222 1.378 . S
C1215 C1214 1.367 . S
C1215 C1223 1.433 . S
C1216 H1212 0.929 . S
C1216 C1218 1.378 . S
C1216 C1220 1.350 . S
C1217 C1220 1.463 . S
C1217 C1222 1.350 . S
C1217 N1225 1.427 . S
C1218 H1209 0.930 . S
C1218 C1216 1.378 . S
C1218 C1219 1.367 . S
C1219 C1218 1.367 . S
C1219 C1221 1.433 . S
C1220 C1216 1.350 . S
C1220 C1217 1.463 . S
C1220 N1224 1.427 . S
C1221 H1211 0.929 . S
C1221 C1219 1.433 . S
C1221 N1224 1.384 . S
C1222 H1213 0.929 . S
C1222 C1214 1.378 . S
C1222 C1217 1.350 . S
C1223 H1210 0.929 . S
C1223 C1215 1.433 . S
C1223 N1225 1.384 . S
N1224 C1220 1.427 . S
N1224 C1221 1.384 . S
N1225 C1217 1.427 . S
N1225 C1223 1.384 . S
H1226 C1232 0.930 . S
H1227 C1236 0.930 . S
H1228 C1241 0.929 . S
H1229 C1239 0.929 . S
H1230 C1234 0.929 . S
H1231 C1240 0.929 . S
C1232 H1226 0.930 . S
C1232 C1233 1.367 . S
C1232 C1240 1.378 . S
C1233 C1232 1.367 . S
C1233 C1241 1.433 . S
C1234 H1230 0.929 . S
C1234 C1236 1.378 . S
C1234 C1238 1.350 . S
C1235 C1238 1.463 1_545 S
C1235 C1240 1.350 . S
C1235 N1243 1.427 . S
C1236 H1227 0.930 . S
C1236 C1234 1.378 . S
C1236 C1237 1.367 . S
C1237 C1236 1.367 . S
C1237 C1239 1.433 . S
C1238 C1234 1.350 . S
C1238 C1235 1.463 1_565 S
C1238 N1242 1.427 . S
C1239 H1229 0.929 . S
C1239 C1237 1.433 . S
C1239 N1242 1.384 . S
C1240 H1231 0.929 . S
C1240 C1232 1.378 . S
C1240 C1235 1.350 . S
C1241 H1228 0.929 . S
C1241 C1233 1.433 . S
C1241 N1243 1.384 . S
N1242 C1238 1.427 . S
N1242 C1239 1.384 . S
N1243 C1235 1.427 . S
N1243 C1241 1.384 . S
H1244 C1250 0.930 . S
H1245 C1254 0.930 . S
H1246 C1259 0.929 . S
H1247 C1257 0.929 . S
H1248 C1252 0.929 . S
H1249 C1258 0.929 . S
C1250 H1244 0.930 . S
C1250 C1251 1.367 . S
C1250 C1258 1.378 . S
C1251 C1250 1.367 . S
C1251 C1259 1.433 . S
C1252 H1248 0.929 . S
C1252 C1254 1.378 . S
C1252 C1256 1.350 . S
C1253 C1256 1.463 . S
C1253 C1258 1.350 . S
C1253 N1261 1.427 . S
C1254 H1245 0.930 . S
C1254 C1252 1.378 . S
C1254 C1255 1.367 . S
C1255 C1254 1.367 . S
C1255 C1257 1.433 . S
C1256 C1252 1.350 . S
C1256 C1253 1.463 . S
C1256 N1260 1.427 . S
C1257 H1247 0.929 . S
C1257 C1255 1.433 . S
C1257 N1260 1.384 . S
C1258 H1249 0.929 . S
C1258 C1250 1.378 . S
C1258 C1253 1.350 . S
C1259 H1246 0.929 . S
C1259 C1251 1.433 . S
C1259 N1261 1.384 . S
N1260 C1256 1.427 . S
N1260 C1257 1.384 . S
N1261 C1253 1.427 . S
N1261 C1259 1.384 . S
H1262 C1268 0.930 . S
H1263 C1272 0.930 . S
H1264 C1277 0.929 . S
H1265 C1275 0.929 . S
H1266 C1270 0.929 . S
H1267 C1276 0.929 . S
C1268 H1262 0.930 . S
C1268 C1269 1.367 1_554 S
C1268 C1276 1.378 . S
C1269 C1268 1.367 1_556 S
C1269 C1277 1.433 . S
C1270 H1266 0.929 . S
C1270 C1272 1.378 . S
C1270 C1274 1.350 1_556 S
C1271 C1274 1.463 1_556 S
C1271 C1276 1.350 1_556 S
C1271 N1279 1.427 . S
C1272 H1263 0.930 . S
C1272 C1270 1.378 . S
C1272 C1273 1.367 1_556 S
C1273 C1272 1.367 1_554 S
C1273 C1275 1.433 . S
C1274 C1270 1.350 1_554 S
C1274 C1271 1.463 1_554 S
C1274 N1278 1.427 . S
C1275 H1265 0.929 . S
C1275 C1273 1.433 . S
C1275 N1278 1.384 . S
C1276 H1267 0.929 . S
C1276 C1268 1.378 . S
C1276 C1271 1.350 1_554 S
C1277 H1264 0.929 . S
C1277 C1269 1.433 . S
C1277 N1279 1.384 . S
N1278 C1274 1.427 . S
N1278 C1275 1.384 . S
N1279 C1271 1.427 . S
N1279 C1277 1.384 . S
H1280 C1286 0.930 . S
H1281 C1290 0.930 . S
H1282 C1295 0.929 . S
H1283 C1293 0.929 . S
H1284 C1288 0.929 . S
H1285 C1294 0.929 . S
C1286 H1280 0.930 . S
C1286 C1287 1.367 . S
C1286 C1294 1.378 . S
C1287 C1286 1.367 . S
C1287 C1295 1.433 . S
C1288 H1284 0.929 . S
C1288 C1290 1.378 . S
C1288 C1292 1.350 . S
C1289 C1292 1.463 . S
C1289 C1294 1.350 . S
C1289 N1297 1.427 . S
C1290 H1281 0.930 . S
C1290 C1288 1.378 . S
C1290 C1291 1.367 . S
C1291 C1290 1.367 . S
C1291 C1293 1.433 . S
C1292 C1288 1.350 . S
C1292 C1289 1.463 . S
C1292 N1296 1.427 . S
C1293 H1283 0.929 . S
C1293 C1291 1.433 . S
C1293 N1296 1.384 . S
C1294 H1285 0.929 . S
C1294 C1286 1.378 . S
C1294 C1289 1.350 . S
C1295 H1282 0.929 . S
C1295 C1287 1.433 . S
C1295 N1297 1.384 . S
N1296 C1292 1.427 . S
N1296 C1293 1.384 . S
N1297 C1289 1.427 . S
N1297 C1295 1.384 . S
H1298 C1304 0.930 . S
H1299 C1308 0.930 . S
H1300 C1313 0.929 . S
H1301 C1311 0.929 . S
H1302 C1306 0.929 . S
H1303 C1312 0.929 . S
C1304 H1298 0.930 . S
C1304 C1305 1.367 . S
C1304 C1312 1.378 . S
C1305 C1304 1.367 . S
C1305 C1313 1.433 . S
C1306 H1302 0.929 . S
C1306 C1308 1.378 . S
C1306 C1310 1.350 . S
C1307 C1310 1.463 . S
C1307 C1312 1.350 . S
C1307 N1315 1.427 . S
C1308 H1299 0.930 . S
C1308 C1306 1.378 . S
C1308 C1309 1.367 . S
C1309 C1308 1.367 . S
C1309 C1311 1.433 . S
C1310 C1306 1.350 . S
C1310 C1307 1.463 . S
C1310 N1314 1.427 . S
C1311 H1301 0.929 . S
C1311 C1309 1.433 . S
C1311 N1314 1.384 . S
C1312 H1303 0.929 . S
C1312 C1304 1.378 . S
C1312 C1307 1.350 . S
C1313 H1300 0.929 . S
C1313 C1305 1.433 . S
C1313 N1315 1.384 . S
N1314 C1310 1.427 . S
N1314 C1311 1.384 . S
N1315 C1307 1.427 . S
N1315 C1313 1.384 . S
H1316 C1322 0.930 . S
H1317 C1326 0.930 . S
H1318 C1331 0.929 . S
H1319 C1329 0.929 . S
H1320 C1324 0.929 . S
H1321 C1330 0.929 . S
C1322 H1316 0.930 . S
C1322 C1323 1.367 . S
C1322 C1330 1.378 . S
C1323 C1322 1.367 . S
C1323 C1331 1.433 . S
C1324 H1320 0.929 . S
C1324 C1326 1.378 . S
C1324 C1328 1.350 . S
C1325 C1328 1.463 . S
C1325 C1330 1.350 . S
C1325 N1333 1.427 . S
C1326 H1317 0.930 . S
C1326 C1324 1.378 . S
C1326 C1327 1.367 . S
C1327 C1326 1.367 . S
C1327 C1329 1.433 . S
C1328 C1324 1.350 . S
C1328 C1325 1.463 . S
C1328 N1332 1.427 . S
C1329 H1319 0.929 . S
C1329 C1327 1.433 . S
C1329 N1332 1.384 . S
C1330 H1321 0.929 . S
C1330 C1322 1.378 . S
C1330 C1325 1.350 . S
C1331 H1318 0.929 . S
C1331 C1323 1.433 . S
C1331 N1333 1.384 . S
N1332 C1328 1.427 . S
N1332 C1329 1.384 . S
N1333 C1325 1.427 . S
N1333 C1331 1.384 . S
H1334 C1340 0.930 . S
H1335 C1344 0.930 . S
H1336 C1349 0.929 . S
H1337 C1347 0.929 . S
H1338 C1342 0.929 . S
H1339 C1348 0.929 . S
C1340 H1334 0.930 . S
C1340 C1341 1.367 . S
C1340 C1348 1.378 . S
C1341 C1340 1.367 . S
C1341 C1349 1.433 . S
C1342 H1338 0.929 . S
C1342 C1344 1.378 . S
C1342 C1346 1.350 . S
C1343 C1346 1.463 . S
C1343 C1348 1.350 . S
C1343 N1351 1.427 . S
C1344 H1335 0.930 . S
C1344 C1342 1.378 . S
C1344 C1345 1.367 . S
C1345 C1344 1.367 . S
C1345 C1347 1.433 . S
C1346 C1342 1.350 . S
C1346 C1343 1.463 . S
C1346 N1350 1.427 . S
C1347 H1337 0.929 . S
C1347 C1345 1.433 . S
C1347 N1350 1.384 . S
C1348 H1339 0.929 . S
C1348 C1340 1.378 . S
C1348 C1343 1.350 . S
C1349 H1336 0.929 . S
C1349 C1341 1.433 . S
C1349 N1351 1.384 . S
N1350 C1346 1.427 . S
N1350 C1347 1.384 . S
N1351 C1343 1.427 . S
N1351 C1349 1.384 . S
H1352 C1358 0.930 . S
H1353 C1362 0.930 . S
H1354 C1367 0.929 . S
H1355 C1365 0.929 . S
H1356 C1360 0.929 . S
H1357 C1366 0.929 . S
C1358 H1352 0.930 . S
C1358 C1359 1.367 . S
C1358 C1366 1.378 . S
C1359 C1358 1.367 . S
C1359 C1367 1.433 . S
C1360 H1356 0.929 . S
C1360 C1362 1.378 . S
C1360 C1364 1.350 . S
C1361 C1364 1.463 . S
C1361 C1366 1.350 . S
C1361 N1369 1.427 . S
C1362 H1353 0.930 . S
C1362 C1360 1.378 . S
C1362 C1363 1.367 . S
C1363 C1362 1.367 . S
C1363 C1365 1.433 . S
C1364 C1360 1.350 . S
C1364 C1361 1.463 . S
C1364 N1368 1.427 . S
C1365 H1355 0.929 . S
C1365 C1363 1.433 . S
C1365 N1368 1.384 . S
C1366 H1357 0.929 . S
C1366 C1358 1.378 . S
C1366 C1361 1.350 . S
C1367 H1354 0.929 . S
C1367 C1359 1.433 . S
C1367 N1369 1.384 . S
N1368 C1364 1.427 . S
N1368 C1365 1.384 . S
N1369 C1361 1.427 . S
N1369 C1367 1.384 . S
H1370 C1376 0.930 . S
H1371 C1380 0.930 . S
H1372 C1385 0.929 . S
H1373 C1383 0.929 . S
H1374 C1378 0.929 . S
H1375 C1384 0.929 . S
C1376 H1370 0.930 . S
C1376 C1377 1.367 . S
C1376 C1384 1.378 . S
C1377 C1376 1.367 . S
C1377 C1385 1.433 . S
C1378 H1374 0.929 . S
C1378 C1380 1.378 . S
C1378 C1382 1.350 . S
C1379 C1382 1.463 . S
C1379 C1384 1.350 . S
C1379 N1387 1.427 . S
C1380 H1371 0.930 . S
C1380 C1378 1.378 . S
C1380 C1381 1.367 . S
C1381 C1380 1.367 . S
C1381 C1383 1.433 . S
C1382 C1378 1.350 . S
C1382 C1379 1.463 . S
C1382 N1386 1.427 . S
C1383 H1373 0.929 . S
C1383 C1381 1.433 . S
C1383 N1386 1.384 . S
C1384 H1375 0.929 . S
C1384 C1376 1.378 . S
C1384 C1379 1.350 . S
C1385 H1372 0.929 . S
C1385 C1377 1.433 . S
C1385 N1387 1.384 . S
N1386 C1382 1.427 . S
N1386 C1383 1.384 . S
N1387 C1379 1.427 . S
N1387 C1385 1.384 . S
H1388 C1394 0.930 . S
H1389 C1398 0.930 . S
H1390 C1403 0.929 . S
H1391 C1401 0.929 . S
H1392 C1396 0.929 . S
H1393 C1402 0.929 . S
C1394 H1388 0.930 . S
C1394 C1395 1.367 . S
C1394 C1402 1.378 . S
C1395 C1394 1.367 . S
C1395 C1403 1.433 . S
C1396 H1392 0.929 . S
C1396 C1398 1.378 . S
C1396 C1400 1.350 . S
C1397 C1400 1.463 . S
C1397 C1402 1.350 . S
C1397 N1405 1.427 . S
C1398 H1389 0.930 . S
C1398 C1396 1.378 . S
C1398 C1399 1.367 . S
C1399 C1398 1.367 . S
C1399 C1401 1.433 . S
C1400 C1396 1.350 . S
C1400 C1397 1.463 . S
C1400 N1404 1.427 . S
C1401 H1391 0.929 . S
C1401 C1399 1.433 . S
C1401 N1404 1.384 . S
C1402 H1393 0.929 . S
C1402 C1394 1.378 . S
C1402 C1397 1.350 . S
C1403 H1390 0.929 . S
C1403 C1395 1.433 . S
C1403 N1405 1.384 . S
N1404 C1400 1.427 . S
N1404 C1401 1.384 . S
N1405 C1397 1.427 . S
N1405 C1403 1.384 . S
H1406 C1412 0.930 . S
H1407 C1416 0.930 . S
H1408 C1421 0.929 . S
H1409 C1419 0.929 . S
H1410 C1414 0.929 . S
H1411 C1420 0.929 . S
C1412 H1406 0.930 . S
C1412 C1413 1.367 . S
C1412 C1420 1.378 . S
C1413 C1412 1.367 . S
C1413 C1421 1.433 . S
C1414 H1410 0.929 . S
C1414 C1416 1.378 . S
C1414 C1418 1.350 . S
C1415 C1418 1.463 . S
C1415 C1420 1.350 . S
C1415 N1423 1.427 . S
C1416 H1407 0.930 . S
C1416 C1414 1.378 . S
C1416 C1417 1.367 . S
C1417 C1416 1.367 . S
C1417 C1419 1.433 . S
C1418 C1414 1.350 . S
C1418 C1415 1.463 . S
C1418 N1422 1.427 . S
C1419 H1409 0.929 . S
C1419 C1417 1.433 . S
C1419 N1422 1.384 . S
C1420 H1411 0.929 . S
C1420 C1412 1.378 . S
C1420 C1415 1.350 . S
C1421 H1408 0.929 . S
C1421 C1413 1.433 . S
C1421 N1423 1.384 . S
N1422 C1418 1.427 . S
N1422 C1419 1.384 . S
N1423 C1415 1.427 . S
N1423 C1421 1.384 . S
H1424 C1430 0.930 . S
H1425 C1434 0.930 . S
H1426 C1439 0.929 . S
H1427 C1437 0.929 . S
H1428 C1432 0.929 . S
H1429 C1438 0.929 . S
C1430 H1424 0.930 . S
C1430 C1431 1.367 . S
C1430 C1438 1.378 . S
C1431 C1430 1.367 . S
C1431 C1439 1.433 . S
C1432 H1428 0.929 . S
C1432 C1434 1.378 . S
C1432 C1436 1.350 . S
C1433 C1436 1.463 . S
C1433 C1438 1.350 . S
C1433 N1441 1.427 . S
C1434 H1425 0.930 . S
C1434 C1432 1.378 . S
C1434 C1435 1.367 . S
C1435 C1434 1.367 . S
C1435 C1437 1.433 . S
C1436 C1432 1.350 . S
C1436 C1433 1.463 . S
C1436 N1440 1.427 . S
C1437 H1427 0.929 . S
C1437 C1435 1.433 . S
C1437 N1440 1.384 . S
C1438 H1429 0.929 . S
C1438 C1430 1.378 . S
C1438 C1433 1.350 . S
C1439 H1426 0.929 . S
C1439 C1431 1.433 . S
C1439 N1441 1.384 . S
N1440 C1436 1.427 . S
N1440 C1437 1.384 . S
N1441 C1433 1.427 . S
N1441 C1439 1.384 . S
H1442 C1448 0.930 . S
H1443 C1452 0.930 . S
H1444 C1457 0.929 . S
H1445 C1455 0.929 . S
H1446 C1450 0.929 . S
H1447 C1456 0.929 . S
C1448 H1442 0.930 . S
C1448 C1449 1.367 . S
C1448 C1456 1.378 . S
C1449 C1448 1.367 . S
C1449 C1457 1.433 . S
C1450 H1446 0.929 . S
C1450 C1452 1.378 . S
C1450 C1454 1.350 . S
C1451 C1454 1.463 . S
C1451 C1456 1.350 . S
C1451 N1459 1.427 . S
C1452 H1443 0.930 . S
C1452 C1450 1.378 . S
C1452 C1453 1.367 . S
C1453 C1452 1.367 . S
C1453 C1455 1.433 . S
C1454 C1450 1.350 . S
C1454 C1451 1.463 . S
C1454 N1458 1.427 . S
C1455 H1445 0.929 . S
C1455 C1453 1.433 . S
C1455 N1458 1.384 . S
C1456 H1447 0.929 . S
C1456 C1448 1.378 . S
C1456 C1451 1.350 . S
C1457 H1444 0.929 . S
C1457 C1449 1.433 . S
C1457 N1459 1.384 . S
N1458 C1454 1.427 . S
N1458 C1455 1.384 . S
N1459 C1451 1.427 . S
N1459 C1457 1.384 . S
H1460 C1466 0.930 . S
H1461 C1470 0.930 . S
H1462 C1475 0.929 . S
H1463 C1473 0.929 . S
H1464 C1468 0.929 . S
H1465 C1474 0.929 . S
C1466 H1460 0.930 . S
C1466 C1467 1.367 . S
C1466 C1474 1.378 . S
C1467 C1466 1.367 . S
C1467 C1475 1.433 . S
C1468 H1464 0.929 . S
C1468 C1470 1.378 . S
C1468 C1472 1.350 . S
C1469 C1472 1.463 . S
C1469 C1474 1.350 . S
C1469 N1477 1.427 . S
C1470 H1461 0.930 . S
C1470 C1468 1.378 . S
C1470 C1471 1.367 . S
C1471 C1470 1.367 . S
C1471 C1473 1.433 . S
C1472 C1468 1.350 . S
C1472 C1469 1.463 . S
C1472 N1476 1.427 . S
C1473 H1463 0.929 . S
C1473 C1471 1.433 . S
C1473 N1476 1.384 . S
C1474 H1465 0.929 . S
C1474 C1466 1.378 . S
C1474 C1469 1.350 . S
C1475 H1462 0.929 . S
C1475 C1467 1.433 . S
C1475 N1477 1.384 . S
N1476 C1472 1.427 . S
N1476 C1473 1.384 . S
N1477 C1469 1.427 . S
N1477 C1475 1.384 . S
H1478 C1484 0.930 . S
H1479 C1488 0.930 . S
H1480 C1493 0.929 . S
H1481 C1491 0.929 . S
H1482 C1486 0.929 . S
H1483 C1492 0.929 . S
C1484 H1478 0.930 . S
C1484 C1485 1.367 . S
C1484 C1492 1.378 . S
C1485 C1484 1.367 . S
C1485 C1493 1.433 . S
C1486 H1482 0.929 . S
C1486 C1488 1.378 . S
C1486 C1490 1.350 . S
C1487 C1490 1.463 . S
C1487 C1492 1.350 . S
C1487 N1495 1.427 . S
C1488 H1479 0.930 . S
C1488 C1486 1.378 . S
C1488 C1489 1.367 . S
C1489 C1488 1.367 . S
C1489 C1491 1.433 . S
C1490 C1486 1.350 . S
C1490 C1487 1.463 . S
C1490 N1494 1.427 . S
C1491 H1481 0.929 . S
C1491 C1489 1.433 . S
C1491 N1494 1.384 . S
C1492 H1483 0.929 . S
C1492 C1484 1.378 . S
C1492 C1487 1.350 . S
C1493 H1480 0.929 . S
C1493 C1485 1.433 . S
C1493 N1495 1.384 . S
N1494 C1490 1.427 . S
N1494 C1491 1.384 . S
N1495 C1487 1.427 . S
N1495 C1493 1.384 . S
H1496 C1502 0.930 . S
H1497 C1506 0.930 . S
H1498 C1511 0.929 . S
H1499 C1509 0.929 . S
H1500 C1504 0.929 . S
H1501 C1510 0.929 . S
C1502 H1496 0.930 . S
C1502 C1503 1.367 . S
C1502 C1510 1.378 . S
C1503 C1502 1.367 . S
C1503 C1511 1.433 . S
C1504 H1500 0.929 . S
C1504 C1506 1.378 . S
C1504 C1508 1.350 . S
C1505 C1508 1.463 . S
C1505 C1510 1.350 . S
C1505 N1513 1.427 . S
C1506 H1497 0.930 . S
C1506 C1504 1.378 . S
C1506 C1507 1.367 . S
C1507 C1506 1.367 . S
C1507 C1509 1.433 . S
C1508 C1504 1.350 . S
C1508 C1505 1.463 . S
C1508 N1512 1.427 . S
C1509 H1499 0.929 . S
C1509 C1507 1.433 . S
C1509 N1512 1.384 . S
C1510 H1501 0.929 . S
C1510 C1502 1.378 . S
C1510 C1505 1.350 . S
C1511 H1498 0.929 . S
C1511 C1503 1.433 . S
C1511 N1513 1.384 . S
N1512 C1508 1.427 . S
N1512 C1509 1.384 . S
N1513 C1505 1.427 . S
N1513 C1511 1.384 . S
H1514 C1520 0.930 . S
H1515 C1524 0.930 . S
H1516 C1529 0.929 . S
H1517 C1527 0.929 . S
H1518 C1522 0.929 . S
H1519 C1528 0.929 . S
C1520 H1514 0.930 . S
C1520 C1521 1.367 . S
C1520 C1528 1.378 . S
C1521 C1520 1.367 . S
C1521 C1529 1.433 . S
C1522 H1518 0.929 . S
C1522 C1524 1.378 . S
C1522 C1526 1.350 . S
C1523 C1526 1.463 . S
C1523 C1528 1.350 . S
C1523 N1531 1.427 . S
C1524 H1515 0.930 . S
C1524 C1522 1.378 . S
C1524 C1525 1.367 . S
C1525 C1524 1.367 . S
C1525 C1527 1.433 . S
C1526 C1522 1.350 . S
C1526 C1523 1.463 . S
C1526 N1530 1.427 . S
C1527 H1517 0.929 . S
C1527 C1525 1.433 . S
C1527 N1530 1.384 . S
C1528 H1519 0.929 . S
C1528 C1520 1.378 . S
C1528 C1523 1.350 . S
C1529 H1516 0.929 . S
C1529 C1521 1.433 . S
C1529 N1531 1.384 . S
N1530 C1526 1.427 . S
N1530 C1527 1.384 . S
N1531 C1523 1.427 . S
N1531 C1529 1.384 . S
H1532 C1538 0.930 . S
H1533 C1542 0.930 . S
H1534 C1547 0.929 . S
H1535 C1545 0.929 . S
H1536 C1540 0.929 . S
H1537 C1546 0.929 . S
C1538 H1532 0.930 . S
C1538 C1539 1.367 . S
C1538 C1546 1.378 . S
C1539 C1538 1.367 . S
C1539 C1547 1.433 . S
C1540 H1536 0.929 . S
C1540 C1542 1.378 . S
C1540 C1544 1.350 . S
C1541 C1544 1.463 . S
C1541 C1546 1.350 . S
C1541 N1549 1.427 . S
C1542 H1533 0.930 . S
C1542 C1540 1.378 . S
C1542 C1543 1.367 . S
C1543 C1542 1.367 . S
C1543 C1545 1.433 . S
C1544 C1540 1.350 . S
C1544 C1541 1.463 . S
C1544 N1548 1.427 . S
C1545 H1535 0.929 . S
C1545 C1543 1.433 . S
C1545 N1548 1.384 . S
C1546 H1537 0.929 . S
C1546 C1538 1.378 . S
C1546 C1541 1.350 . S
C1547 H1534 0.929 . S
C1547 C1539 1.433 . S
C1547 N1549 1.384 . S
N1548 C1544 1.427 . S
N1548 C1545 1.384 . S
N1549 C1541 1.427 . S
N1549 C1547 1.384 . S
H1550 C1556 0.930 . S
H1551 C1560 0.930 . S
H1552 C1565 0.929 . S
H1553 C1563 0.929 . S
H1554 C1558 0.929 . S
H1555 C1564 0.929 . S
C1556 H1550 0.930 . S
C1556 C1557 1.367 . S
C1556 C1564 1.378 . S
C1557 C1556 1.367 . S
C1557 C1565 1.433 . S
C1558 H1554 0.929 . S
C1558 C1560 1.378 . S
C1558 C1562 1.350 . S
C1559 C1562 1.463 . S
C1559 C1564 1.350 . S
C1559 N1567 1.427 . S
C1560 H1551 0.930 . S
C1560 C1558 1.378 . S
C1560 C1561 1.367 . S
C1561 C1560 1.367 . S
C1561 C1563 1.433 . S
C1562 C1558 1.350 . S
C1562 C1559 1.463 . S
C1562 N1566 1.427 . S
C1563 H1553 0.929 . S
C1563 C1561 1.433 . S
C1563 N1566 1.384 . S
C1564 H1555 0.929 . S
C1564 C1556 1.378 . S
C1564 C1559 1.350 . S
C1565 H1552 0.929 . S
C1565 C1557 1.433 . S
C1565 N1567 1.384 . S
N1566 C1562 1.427 . S
N1566 C1563 1.384 . S
N1567 C1559 1.427 . S
N1567 C1565 1.384 . S
C423 C134 1.366 . S
C427 C10 1.360 . S
C441 C17 1.365 . S
C445 C153 1.362 . S
C459 C36 1.359 . S
C463 C114 1.365 . S
C477 C127 1.362 . S
C481 C43 1.357 . S
C495 C192 1.360 . S
C499 C56 1.366 . S
C513 C75 1.362 . S
C517 C205 1.357 . S
C531 C166 1.362 . S
C535 C82 1.365 . S
C549 C173 1.361 . S
C553 C95 1.357 . S
C567 C348 1.365 . S
C571 C212 1.359 . S
C585 C355 1.358 . S
C589 C225 1.364 . S
C603 C322 1.360 . S
C607 C238 1.358 . S
C621 C251 1.357 . S
C625 C329 1.362 . S
C639 C394 1.360 . S
C643 C264 1.366 . S
C657 C407 1.357 . S
C661 C277 1.363 . S
C675 C290 1.358 . S
C679 C374 1.359 . S
C693 C303 1.364 . S
C697 C387 1.364 . S
C711 C257 1.324 . S
C715 C4 1.321 . S
C729 C23 1.325 1_655 S
C733 C244 1.321 . S
C747 C231 1.322 . S
C751 C30 1.323 . S
C765 C218 1.328 . S
C769 C49 1.326 1_655 S
C783 C62 1.328 . S
C787 C309 1.326 . S
C801 C69 1.321 1_455 S
C805 C296 1.323 . S
C819 C283 1.329 . S
C823 C88 1.325 . S
C837 C101 1.322 1_455 S
C841 C270 1.322 . S
C855 C361 1.323 . S
C859 C108 1.328 . S
C873 C342 1.324 . S
C877 C121 1.329 1_655 S
C891 C335 1.321 . S
C895 C140 1.326 . S
C909 C316 1.321 . S
C913 C147 1.324 1_655 S
C927 C160 1.322 . S
C931 C413 1.322 . S
C945 C400 1.323 . S
C949 C179 1.321 1_455 S
C963 C186 1.329 . S
C967 C381 1.325 . S
C981 C199 1.322 1_455 S
C985 C368 1.322 . S
C999 C159 1.363 . S
C1003 C3 1.363 . S
C1017 C18 1.359 . S
C1021 C278 1.359 . S
C1035 C83 1.362 . S
C1039 C29 1.362 . S
C1053 C408 1.361 . S
C1057 C44 1.361 . S
C1071 C57 1.364 . S
C1075 C107 1.364 . S
C1089 C226 1.359 . S
C1093 C68 1.359 . S
C1107 C356 1.362 . S
C1111 C96 1.362 . S
C1125 C380 1.361 . S
C1129 C120 1.361 . S
C1143 C135 1.359 . S
C1147 C185 1.359 . S
C1161 C304 1.362 . S
C1165 C146 1.362 . S
C1179 C330 1.362 . S
C1183 C174 1.362 . S
C1197 C198 1.368 . S
C1201 C252 1.368 . S
C1215 C213 1.361 . S
C1219 C367 1.361 . S
C1233 C291 1.364 . S
C1237 C239 1.364 . S
C1251 C315 1.369 . S
C1255 C265 1.369 . S
C1269 C341 1.359 . S
C1273 C395 1.359 . S
C1287 C5 1.272 . S
C1291 C42 1.268 . S
C1305 C31 1.268 . S
C1309 C16 1.271 . S
C1323 C55 1.268 . S
C1327 C94 1.271 . S
C1341 C70 1.269 . S
C1345 C81 1.274 . S
C1359 C109 1.272 . S
C1363 C148 1.276 . S
C1377 C122 1.272 . S
C1381 C133 1.268 . S
C1395 C161 1.268 . S
C1399 C200 1.272 . S
C1413 C187 1.269 . S
C1417 C172 1.274 . S
C1431 C250 1.275 . S
C1435 C211 1.270 . S
C1449 C237 1.272 . S
C1453 C224 1.276 . S
C1467 C302 1.273 . S
C1471 C263 1.276 . S
C1485 C289 1.268 . S
C1489 C276 1.271 . S
C1503 C354 1.274 . S
C1507 C317 1.276 . S
C1521 C343 1.272 . S
C1525 C328 1.276 . S
C1539 C369 1.268 . S
C1543 C406 1.271 . S
C1557 C393 1.268 . S
C1561 C382 1.271 . S
