# Generated by pormake.
# Topology smd, (6)-cn, num edge types: 1
# Building blocks:
#     Node 0, Type 0, BuildingBlock: BETDIP_clean_sbu_0, # of connection points: 6
#     Node 1, Type 0, BuildingBlock: BETDIP_clean_sbu_0, # of connection points: 6
#     Node 2, Type 0, BuildingBlock: BETDIP_clean_sbu_0, # of connection points: 6
#     Node 3, Type 0, BuildingBlock: BETDIP_clean_sbu_0, # of connection points: 6
#     Node 4, Type 0, BuildingBlock: BETDIP_clean_sbu_0, # of connection points: 6
#     Node 5, Type 0, BuildingBlock: BETDIP_clean_sbu_0, # of connection points: 6
#     Node 6, Type 0, BuildingBlock: BETDIP_clean_sbu_0, # of connection points: 6
#     Node 7, Type 0, BuildingBlock: BETDIP_clean_sbu_0, # of connection points: 6
#     Node 8, Type 0, BuildingBlock: BETDIP_clean_sbu_0, # of connection points: 6
#     Node 9, Type 0, BuildingBlock: BETDIP_clean_sbu_0, # of connection points: 6
#     Node 10, Type 0, BuildingBlock: BETDIP_clean_sbu_0, # of connection points: 6
#     Node 11, Type 0, BuildingBlock: BETDIP_clean_sbu_0, # of connection points: 6
#     Node 12, Type 0, BuildingBlock: BETDIP_clean_sbu_0, # of connection points: 6
#     Node 13, Type 0, BuildingBlock: BETDIP_clean_sbu_0, # of connection points: 6
#     Node 14, Type 0, BuildingBlock: BETDIP_clean_sbu_0, # of connection points: 6
#     Node 15, Type 0, BuildingBlock: BETDIP_clean_sbu_0, # of connection points: 6
#     Node 16, Type 0, BuildingBlock: BETDIP_clean_sbu_0, # of connection points: 6
#     Node 17, Type 0, BuildingBlock: BETDIP_clean_sbu_0, # of connection points: 6
#     Edge 18, Type (0, 0), BuildingBlock: UVAHIK_clean_linker_0, # of connection points: 2
#     Edge 19, Type (0, 0), BuildingBlock: UVAHIK_clean_linker_0, # of connection points: 2
#     Edge 20, Type (0, 0), BuildingBlock: UVAHIK_clean_linker_0, # of connection points: 2
#     Edge 21, Type (0, 0), BuildingBlock: UVAHIK_clean_linker_0, # of connection points: 2
#     Edge 22, Type (0, 0), BuildingBlock: UVAHIK_clean_linker_0, # of connection points: 2
#     Edge 23, Type (0, 0), BuildingBlock: UVAHIK_clean_linker_0, # of connection points: 2
#     Edge 24, Type (0, 0), BuildingBlock: UVAHIK_clean_linker_0, # of connection points: 2
#     Edge 25, Type (0, 0), BuildingBlock: UVAHIK_clean_linker_0, # of connection points: 2
#     Edge 26, Type (0, 0), BuildingBlock: UVAHIK_clean_linker_0, # of connection points: 2
#     Edge 27, Type (0, 0), BuildingBlock: UVAHIK_clean_linker_0, # of connection points: 2
#     Edge 28, Type (0, 0), BuildingBlock: UVAHIK_clean_linker_0, # of connection points: 2
#     Edge 29, Type (0, 0), BuildingBlock: UVAHIK_clean_linker_0, # of connection points: 2
#     Edge 30, Type (0, 0), BuildingBlock: UVAHIK_clean_linker_0, # of connection points: 2
#     Edge 31, Type (0, 0), BuildingBlock: UVAHIK_clean_linker_0, # of connection points: 2
#     Edge 32, Type (0, 0), BuildingBlock: UVAHIK_clean_linker_0, # of connection points: 2
#     Edge 33, Type (0, 0), BuildingBlock: UVAHIK_clean_linker_0, # of connection points: 2
#     Edge 34, Type (0, 0), BuildingBlock: UVAHIK_clean_linker_0, # of connection points: 2
#     Edge 35, Type (0, 0), BuildingBlock: UVAHIK_clean_linker_0, # of connection points: 2
#     Edge 36, Type (0, 0), BuildingBlock: UVAHIK_clean_linker_0, # of connection points: 2
#     Edge 37, Type (0, 0), BuildingBlock: UVAHIK_clean_linker_0, # of connection points: 2
#     Edge 38, Type (0, 0), BuildingBlock: UVAHIK_clean_linker_0, # of connection points: 2
#     Edge 39, Type (0, 0), BuildingBlock: UVAHIK_clean_linker_0, # of connection points: 2
#     Edge 40, Type (0, 0), BuildingBlock: UVAHIK_clean_linker_0, # of connection points: 2
#     Edge 41, Type (0, 0), BuildingBlock: UVAHIK_clean_linker_0, # of connection points: 2
#     Edge 42, Type (0, 0), BuildingBlock: UVAHIK_clean_linker_0, # of connection points: 2
#     Edge 43, Type (0, 0), BuildingBlock: UVAHIK_clean_linker_0, # of connection points: 2
#     Edge 44, Type (0, 0), BuildingBlock: UVAHIK_clean_linker_0, # of connection points: 2
#     Edge 45, Type (0, 0), BuildingBlock: UVAHIK_clean_linker_0, # of connection points: 2
#     Edge 46, Type (0, 0), BuildingBlock: UVAHIK_clean_linker_0, # of connection points: 2
#     Edge 47, Type (0, 0), BuildingBlock: UVAHIK_clean_linker_0, # of connection points: 2
#     Edge 48, Type (0, 0), BuildingBlock: UVAHIK_clean_linker_0, # of connection points: 2
#     Edge 49, Type (0, 0), BuildingBlock: UVAHIK_clean_linker_0, # of connection points: 2
#     Edge 50, Type (0, 0), BuildingBlock: UVAHIK_clean_linker_0, # of connection points: 2
#     Edge 51, Type (0, 0), BuildingBlock: UVAHIK_clean_linker_0, # of connection points: 2
#     Edge 52, Type (0, 0), BuildingBlock: UVAHIK_clean_linker_0, # of connection points: 2
#     Edge 53, Type (0, 0), BuildingBlock: UVAHIK_clean_linker_0, # of connection points: 2
#     Edge 54, Type (0, 0), BuildingBlock: UVAHIK_clean_linker_0, # of connection points: 2
#     Edge 55, Type (0, 0), BuildingBlock: UVAHIK_clean_linker_0, # of connection points: 2
#     Edge 56, Type (0, 0), BuildingBlock: UVAHIK_clean_linker_0, # of connection points: 2
#     Edge 57, Type (0, 0), BuildingBlock: UVAHIK_clean_linker_0, # of connection points: 2
#     Edge 58, Type (0, 0), BuildingBlock: UVAHIK_clean_linker_0, # of connection points: 2
#     Edge 59, Type (0, 0), BuildingBlock: UVAHIK_clean_linker_0, # of connection points: 2
#     Edge 60, Type (0, 0), BuildingBlock: UVAHIK_clean_linker_0, # of connection points: 2
#     Edge 61, Type (0, 0), BuildingBlock: UVAHIK_clean_linker_0, # of connection points: 2
#     Edge 62, Type (0, 0), BuildingBlock: UVAHIK_clean_linker_0, # of connection points: 2
#     Edge 63, Type (0, 0), BuildingBlock: UVAHIK_clean_linker_0, # of connection points: 2
#     Edge 64, Type (0, 0), BuildingBlock: UVAHIK_clean_linker_0, # of connection points: 2
#     Edge 65, Type (0, 0), BuildingBlock: UVAHIK_clean_linker_0, # of connection points: 2
#     Edge 66, Type (0, 0), BuildingBlock: UVAHIK_clean_linker_0, # of connection points: 2
#     Edge 67, Type (0, 0), BuildingBlock: UVAHIK_clean_linker_0, # of connection points: 2
#     Edge 68, Type (0, 0), BuildingBlock: UVAHIK_clean_linker_0, # of connection points: 2
#     Edge 69, Type (0, 0), BuildingBlock: UVAHIK_clean_linker_0, # of connection points: 2
#     Edge 70, Type (0, 0), BuildingBlock: UVAHIK_clean_linker_0, # of connection points: 2
#     Edge 71, Type (0, 0), BuildingBlock: UVAHIK_clean_linker_0, # of connection points: 2
# Relax obj value: 0.276
# Max RMSD: 0.341
# Mean RMSD: 0.309
data_MOF--net-smd--node1-BETDIP_clean_sbu_0--edge1-UVAHIK_clean_linker_0
_symmetry_space_group_name_H-M    P1
_symmetry_Int_Tables_number       1
_symmetry_cell_setting            triclinic
loop_
_symmetry_equiv_pos_as_xyz
'x, y, z'
_cell_length_a     84.504337
_cell_length_b     84.637885
_cell_length_c     29.923748
_cell_angle_alpha  93.498781
_cell_angle_beta   93.550383
_cell_angle_gamma 119.87609
loop_
_atom_site_label
_atom_site_type_symbol
_atom_site_fract_x
_atom_site_fract_y
_atom_site_fract_z
_atom_type_partial_charge
Tb0 Tb 0.03261 0.25414 0.5545 0.0
Tb1 Tb 1.01585 0.23993 0.45939 0.0
C2 C 0.04371 0.2704 0.63303 0.0
C3 C 0.04537 0.26662 0.68004 0.0
C4 C 0.03343 0.24952 0.69447 0.0
C5 C 0.03376 0.24705 0.74036 0.0
C6 C 0.046 0.26164 0.77265 0.0
C7 C 0.05839 0.27849 0.75764 0.0
C8 C 0.05804 0.28094 0.71186 0.0
C9 C 0.04399 0.23328 0.5141 0.0
C10 C 0.99915 0.2138 0.53239 0.0
C11 C 1.00697 0.22968 0.37645 0.0
C12 C 1.01448 0.23291 0.33254 0.0
C13 C 0.02884 0.25009 0.32417 0.0
C14 C 0.03433 0.2531 0.28072 0.0
C15 C 0.02557 0.23899 0.24488 0.0
C16 C 1.01154 0.2217 0.25397 0.0
C17 C 1.00608 0.21872 0.29728 0.0
C18 C 0.99872 0.25222 0.511 0.0
C19 C 0.04983 0.27963 0.47604 0.0
O20 O 0.02695 0.2637 0.61387 0.0
O21 O 0.0545 0.2688 0.60576 0.0
O22 O 0.04086 0.24478 0.49645 0.0
O23 O 0.04086 0.23349 0.55588 0.0
O24 O 1.0069 0.22854 0.56241 0.0
O25 O 1.00409 0.21486 0.49123 0.0
O26 O 1.01251 0.22154 0.40412 0.0
O27 O 1.00561 0.24298 0.39711 0.0
O28 O 1.01558 0.25884 0.50963 0.0
O29 O 0.99035 0.23807 0.48134 0.0
O30 O 0.03976 0.26511 0.44682 0.0
O31 O 0.04829 0.27905 0.51996 0.0
H32 H 0.02347 0.23828 0.67045 0.0
H33 H 0.02393 0.23393 0.75068 0.0
H34 H 0.06822 0.28992 0.78139 0.0
H35 H 0.06736 0.29424 0.70142 0.0
H36 H 0.03553 0.26126 0.35091 0.0
H37 H 0.04533 0.26652 0.27512 0.0
H38 H 1.00428 0.21059 0.22726 0.0
H39 H 0.9949 0.20541 0.30296 0.0
Tb40 Tb 0.79 0.78289 0.48689 0.0
Tb41 Tb 0.79382 0.80329 0.57443 0.0
C42 C 0.78363 0.76925 0.40585 0.0
C43 C 0.78469 0.77427 0.35922 0.0
C44 C 0.77886 0.78617 0.34436 0.0
C45 C 0.77964 0.79002 0.29928 0.0
C46 C 0.78635 0.78213 0.26839 0.0
C47 C 0.79221 0.77031 0.28373 0.0
C48 C 0.79137 0.76644 0.32852 0.0
C49 C 0.82008 0.79176 0.53929 0.0
C50 C 0.80502 0.82625 0.49528 0.0
C51 C 0.80094 0.81688 0.65559 0.0
C52 C 0.79696 0.81126 0.70141 0.0
C53 C 0.80064 0.79817 0.71858 0.0
C54 C 0.79828 0.79443 0.76348 0.0
C55 C 0.79213 0.80362 0.79209 0.0
C56 C 0.78799 0.81631 0.77435 0.0
C57 C 0.79044 0.82012 0.72962 0.0
C58 C 0.76301 0.79241 0.52149 0.0
C59 C 0.77766 0.75998 0.56912 0.0
O60 O 0.77129 0.76998 0.42883 0.0
O61 O 0.79926 0.77533 0.43042 0.0
O62 O 0.81342 0.80211 0.53361 0.0
O63 O 0.81007 0.77637 0.51453 0.0
O64 O 0.79578 0.81037 0.4694 0.0
O65 O 0.8091 0.82671 0.53866 0.0
O66 O 0.81138 0.81221 0.63458 0.0
O67 O 0.78732 0.81526 0.62867 0.0
O68 O 0.77109 0.78362 0.52835 0.0
O69 O 0.77179 0.80796 0.54643 0.0
O70 O 0.78553 0.77596 0.59418 0.0
O71 O 0.77585 0.75901 0.52449 0.0
H72 H 0.77367 0.79242 0.36745 0.0
H73 H 0.77515 0.7993 0.28872 0.0
H74 H 0.79715 0.76372 0.26088 0.0
H75 H 0.79583 0.75713 0.33915 0.0
H76 H 0.80562 0.79105 0.69762 0.0
H77 H 0.80137 0.78441 0.77587 0.0
H78 H 0.78343 0.82379 0.79546 0.0
H79 H 0.78763 0.83034 0.71731 0.0
Tb80 Tb 0.24717 1.00989 0.54012 0.0
Tb81 Tb 0.23791 0.01998 0.45419 0.0
C82 C 0.25929 1.00889 0.61859 0.0
C83 C 0.25762 1.01264 0.66634 0.0
C84 C 0.27307 0.01917 0.69783 0.0
C85 C 0.27161 0.02108 0.74388 0.0
C86 C 0.25461 0.01645 0.75949 0.0
C87 C 0.23924 1.01051 0.72765 0.0
C88 C 0.24073 1.00862 0.68148 0.0
C89 C 0.2142 0.98585 0.50017 0.0
C90 C 0.23165 0.03771 0.53758 0.0
C91 C 0.22594 0.02132 0.376 0.0
C92 C 0.22871 0.01907 0.32839 0.0
C93 C 0.21385 1.01329 0.29548 0.0
C94 C 0.21622 1.01243 0.24978 0.0
C95 C 0.23358 0.0174 0.23593 0.0
C96 C 0.24837 0.02266 0.26915 0.0
C97 C 0.24596 0.02349 0.31501 0.0
C98 C 0.27164 0.04256 0.49502 0.0
C99 C 0.2546 0.99355 0.45291 0.0
O100 O 0.26738 0.02297 0.59561 0.0
O101 O 0.24496 0.99509 0.59524 0.0
O102 O 0.22132 1.00311 0.50293 0.0
O103 O 0.22524 0.98184 0.52163 0.0
O104 O 0.2422 0.03275 0.56035 0.0
O105 O 0.22469 0.03049 0.49596 0.0
O106 O 0.21874 1.00657 0.39701 0.0
O107 O 0.23922 0.03549 0.40117 0.0
O108 O 0.26292 0.02544 0.49089 0.0
O109 O 0.26167 0.04802 0.47406 0.0
O110 O 0.24413 0.9987 0.43096 0.0
O111 O 0.26028 0.9991 0.4963 0.0
H112 H 0.28624 0.0224 0.68683 0.0
H113 H 0.2838 0.02603 0.76731 0.0
H114 H 0.22591 1.00671 0.73842 0.0
H115 H 0.2286 1.00358 0.65776 0.0
H116 H 0.20041 1.00975 0.30514 0.0
H117 H 0.20444 1.00795 0.22525 0.0
H118 H 0.26194 0.02667 0.25974 0.0
H119 H 0.25762 0.02795 0.33992 0.0
Tb120 Tb 0.0255 0.80397 0.59326 0.0
Tb121 Tb 1.00877 0.78377 0.50312 0.0
C122 C 0.03249 0.8177 0.67427 0.0
C123 C 0.03029 0.8122 0.72052 0.0
C124 C 1.01332 0.79887 0.73313 0.0
C125 C 1.01154 0.79503 0.7781 0.0
C126 C 0.0267 0.80434 0.81124 0.0
C127 C 0.0437 0.81736 0.79812 0.0
C128 C 0.04544 0.82126 0.75335 0.0
C129 C 0.04459 0.79188 0.54999 0.0
C130 C 0.9971 0.76091 0.58526 0.0
C131 C 1.00127 0.76991 0.42209 0.0
C132 C 1.00495 0.77486 0.37583 0.0
C133 C 0.02256 0.78735 0.36484 0.0
C134 C 0.02541 0.79114 0.32004 0.0
C135 C 1.01069 0.78258 0.28556 0.0
C136 C 0.99312 0.77018 0.29704 0.0
C137 C 0.99032 0.76638 0.34157 0.0
C138 C 0.98807 0.79327 0.54631 0.0
C139 C 0.03888 0.82682 0.51424 0.0
O140 O 1.0177 0.81397 0.6485 0.0
O141 O 0.04391 0.81493 0.65225 0.0
O142 O 0.02764 0.78371 0.55216 0.0
O143 O 0.05196 0.80757 0.57411 0.0
O144 O 1.00477 0.77688 0.61035 0.0
O145 O 0.99914 0.76 0.54173 0.0
O146 O 1.01468 0.77112 0.44921 0.0
O147 O 0.99155 0.77563 0.44248 0.0
O148 O 1.00521 0.80336 0.54488 0.0
O149 O 0.9822 0.77786 0.52205 0.0
O150 O 0.03143 0.81086 0.48882 0.0
O151 O 0.03523 0.8276 0.5562 0.0
H152 H 1.0014 0.7916 0.70846 0.0
H153 H 0.9983 0.78477 0.78693 0.0
H154 H 0.0556 0.82497 0.82274 0.0
H155 H 0.05863 0.83166 0.7445 0.0
H156 H 0.03409 0.79412 0.39073 0.0
H157 H 0.03909 0.80088 0.31247 0.0
H158 H 0.98153 0.76309 0.27141 0.0
H159 H 0.97665 0.75662 0.34923 0.0
Tb160 Tb 0.24162 0.23206 0.46111 0.0
Tb161 Tb 0.24273 0.2479 0.55415 0.0
C162 C 0.23687 0.2206 0.37899 0.0
C163 C 0.23253 0.22412 0.33328 0.0
C164 C 0.22088 0.20915 0.30167 0.0
C165 C 0.21872 0.2116 0.25635 0.0
C166 C 0.22827 0.22913 0.24145 0.0
C167 C 0.23923 0.24427 0.27367 0.0
C168 C 0.24135 0.2418 0.31913 0.0
C169 C 0.27292 0.24476 0.51444 0.0
C170 C 0.25065 0.27287 0.47308 0.0
C171 C 0.2498 0.26489 0.63154 0.0
C172 C 0.24429 0.26122 0.67726 0.0
C173 C 0.25205 0.27572 0.71177 0.0
C174 C 0.24837 0.27245 0.75627 0.0
C175 C 0.23683 0.25456 0.76728 0.0
C176 C 0.22875 0.24007 0.73225 0.0
C177 C 0.23247 0.24337 0.68764 0.0
C178 C 0.20897 0.22712 0.51205 0.0
C179 C 0.23493 0.20741 0.53805 0.0
O180 O 0.22372 0.21414 0.40555 0.0
O181 O 0.2528 0.23271 0.40048 0.0
O182 O 0.26269 0.25143 0.51102 0.0
O183 O 0.26601 0.23022 0.48603 0.0
O184 O 0.24451 0.25794 0.44492 0.0
O185 O 0.25267 0.27255 0.51741 0.0
O186 O 0.25871 0.25704 0.61647 0.0
O187 O 0.23758 0.26402 0.60074 0.0
O188 O 0.22315 0.23822 0.4949 0.0
O189 O 0.21377 0.22753 0.55419 0.0
O190 O 0.24341 0.22273 0.56606 0.0
O191 O 0.2294 0.20757 0.49593 0.0
H192 H 0.21394 0.1954 0.31175 0.0
H193 H 0.20985 0.19967 0.23277 0.0
H194 H 0.24686 0.25795 0.26351 0.0
H195 H 0.25043 0.25363 0.34281 0.0
H196 H 0.26135 0.28957 0.70446 0.0
H197 H 0.25507 0.28391 0.78226 0.0
H198 H 0.21963 0.22615 0.73931 0.0
H199 H 0.22639 0.23198 0.66141 0.0
Tb200 Tb 0.79995 1.01351 0.56926 0.0
Tb201 Tb 0.80009 0.02555 0.47923 0.0
C202 C 0.8072 1.00466 0.6434 0.0
C203 C 0.80726 1.00886 0.69176 0.0
C204 C 0.8165 1.00363 0.72255 0.0
C205 C 0.81602 1.00653 0.76875 0.0
C206 C 0.80624 0.01471 0.78505 0.0
C207 C 0.7972 0.02021 0.75397 0.0
C208 C 0.79774 0.01734 0.70764 0.0
C209 C 0.76798 0.99627 0.51836 0.0
C210 C 0.78895 0.04263 0.56301 0.0
C211 C 0.79272 0.03429 0.405 0.0
C212 C 0.79231 0.02983 0.35662 0.0
C213 C 0.7829 0.03494 0.32601 0.0
C214 C 0.78313 0.03188 0.27975 0.0
C215 C 0.79283 0.02365 0.26321 0.0
C216 C 0.80199 0.01821 0.29412 0.0
C217 C 0.80169 0.02124 0.34051 0.0
C218 C 0.83256 0.04285 0.52753 0.0
C219 C 0.81026 0.99525 0.48795 0.0
O220 O 0.81947 0.01781 0.6227 0.0
O221 O 0.79113 0.99587 0.61983 0.0
O222 O 0.78353 1.00094 0.50654 0.0
O223 O 0.76964 1.00068 0.56136 0.0
O224 O 0.79654 0.03623 0.59078 0.0
O225 O 0.78709 0.03842 0.5187 0.0
O226 O 0.78046 0.0214 0.42622 0.0
O227 O 0.80889 0.04293 0.4281 0.0
O228 O 0.81728 0.03871 0.54156 0.0
O229 O 0.82974 0.03732 0.48496 0.0
O230 O 0.80299 1.00183 0.45932 0.0
O231 O 0.81265 1.00034 0.53171 0.0
H232 H 0.82386 0.99701 0.7108 0.0
H233 H 0.82291 1.0019 0.79166 0.0
H234 H 0.78972 0.02672 0.76547 0.0
H235 H 0.79057 0.02152 0.68423 0.0
H236 H 0.77562 0.04162 0.33794 0.0
H237 H 0.77615 0.03645 0.25697 0.0
H238 H 0.8094 1.01165 0.28243 0.0
H239 H 0.80898 0.01713 0.36377 0.0
Tb240 Tb 0.68399 0.56889 0.777 0.0
Tb241 Tb 0.70152 0.57388 0.86997 0.0
C242 C 0.67147 0.57227 0.70149 0.0
C243 C 0.67534 0.57283 0.65401 0.0
C244 C 0.69245 0.57636 0.64146 0.0
C245 C 0.69549 0.5765 0.59583 0.0
C246 C 0.68144 0.57301 0.56197 0.0
C247 C 0.66439 0.56961 0.57503 0.0
C248 C 0.6614 0.56952 0.62048 0.0
C249 C 0.66963 0.53875 0.81874 0.0
C250 C 0.71624 0.56096 0.78801 0.0
C251 C 0.71395 0.57077 0.9458 0.0
C252 C 0.7107 0.57173 0.99357 0.0
C253 C 0.69383 0.56887 1.00639 0.0
C254 C 0.69112 0.56955 0.05213 0.0
C255 C 0.70527 0.57321 0.08588 0.0
C256 C 0.72216 0.57618 0.07262 0.0
C257 C 0.72482 0.57544 0.02703 0.0
C258 C 0.71484 0.60356 0.82625 0.0
C259 C 0.67032 0.58254 0.86204 0.0
O260 O 0.68328 0.58611 0.73017 0.0
O261 O 0.66586 0.5566 0.71785 0.0
O262 O 0.67483 0.55479 0.83601 0.0
O263 O 0.67221 0.53937 0.77653 0.0
O264 O 0.70767 0.56653 0.76009 0.0
O265 O 0.71372 0.56053 0.83125 0.0
O266 O 0.70103 0.55694 0.91887 0.0
O267 O 0.72076 0.58612 0.92729 0.0
O268 O 0.71004 0.58754 0.8108 0.0
O269 O 0.7131 0.60375 0.86897 0.0
O270 O 0.67905 0.57693 0.88877 0.0
O271 O 0.67159 0.58212 0.81784 0.0
H272 H 0.70338 0.57888 0.66686 0.0
H273 H 0.70873 0.57901 0.58705 0.0
H274 H 0.65335 0.56718 0.5501 0.0
H275 H 0.64811 0.56682 0.62947 0.0
H276 H 0.68276 0.56605 0.98109 0.0
H277 H 0.67802 0.56739 0.06105 0.0
H278 H 0.73327 0.57876 0.0975 0.0
H279 H 0.73792 0.57765 0.01785 0.0
Tb280 Tb 0.45949 0.12268 0.78939 0.0
Tb281 Tb 0.46254 0.14321 0.87628 0.0
C282 C 0.45362 0.10874 0.70867 0.0
C283 C 0.45422 0.11336 0.66169 0.0
C284 C 0.4487 0.1255 0.64691 0.0
C285 C 0.44929 0.12916 0.60164 0.0
C286 C 0.4555 0.12083 0.57047 0.0
C287 C 0.46097 0.1087 0.58573 0.0
C288 C 0.46033 0.10504 0.63069 0.0
C289 C 0.48997 0.13312 0.84181 0.0
C290 C 0.47228 0.16556 0.79624 0.0
C291 C 0.46917 0.15707 0.95718 0.0
C292 C 0.46558 0.15153 1.00324 0.0
C293 C 0.4694 0.13848 0.02 0.0
C294 C 0.46725 0.13469 0.06495 0.0
C295 C 0.46118 0.14381 0.09408 0.0
C296 C 0.45698 0.15653 0.07676 0.0
C297 C 0.4592 0.16036 0.03197 0.0
C298 C 0.43124 0.13038 0.8235 0.0
C299 C 0.44867 0.1004 0.87302 0.0
O300 O 0.44092 0.10876 0.73149 0.0
O301 O 0.4694 0.1158 0.73319 0.0
O302 O 0.4826 0.14283 0.83562 0.0
O303 O 0.48052 0.11756 0.81742 0.0
O304 O 0.46353 0.14949 0.77105 0.0
O305 O 0.47678 0.16654 0.83959 0.0
O306 O 0.4802 0.15322 0.93637 0.0
O307 O 0.45514 0.15449 0.93016 0.0
O308 O 0.44021 0.1225 0.83092 0.0
O309 O 0.43941 0.14614 0.84761 0.0
O310 O 0.45598 0.1165 0.89722 0.0
O311 O 0.44653 0.09898 0.82831 0.0
H312 H 0.44396 0.13213 0.67024 0.0
H313 H 0.44511 0.13868 0.5912 0.0
H314 H 0.4655 0.10177 0.56272 0.0
H315 H 0.46456 0.09555 0.64127 0.0
H316 H 0.47431 0.1314 0.99864 0.0
H317 H 0.47039 0.12463 0.07692 0.0
H318 H 0.45251 0.164 0.09822 0.0
H319 H 0.45628 0.17056 0.01999 0.0
Tb320 Tb 0.91613 0.35409 0.77911 0.0
Tb321 Tb 0.90519 0.34174 0.8668 0.0
C322 C 0.9322 0.36315 0.70901 0.0
C323 C 0.92819 0.36001 0.65984 0.0
C324 C 0.91347 0.3436 0.63804 0.0
C325 C 0.91025 0.34111 0.59097 0.0
C326 C 0.92163 0.35505 0.56522 0.0
C327 C 0.9363 0.37144 0.58746 0.0
C328 C 0.93953 0.37387 0.63431 0.0
C329 C 0.90025 0.37041 0.8185 0.0
C330 C 0.87551 0.32414 0.78101 0.0
C331 C 0.88976 0.33086 0.93704 0.0
C332 C 0.89442 0.33333 0.98598 0.0
C333 C 0.90965 0.34935 1.00776 0.0
C334 C 0.9134 0.35139 0.05465 0.0
C335 C 0.90205 0.33738 0.08026 0.0
C336 C 0.88696 0.3213 0.05802 0.0
C337 C 0.88319 0.31933 1.01132 0.0
C338 C 0.9205 0.32576 0.82155 0.0
C339 C 0.94466 0.37242 0.86962 0.0
O340 O 0.93036 0.34932 0.73003 0.0
O341 O 0.92578 0.3724 0.72995 0.0
O342 O 0.91163 0.36674 0.83789 0.0
O343 O 0.89771 0.36493 0.7759 0.0
O344 O 0.88903 0.33047 0.75483 0.0
O345 O 0.87888 0.32929 0.82474 0.0
O346 O 0.89105 0.34498 0.9184 0.0
O347 O 0.89623 0.32229 0.91346 0.0
O348 O 0.90872 0.32948 0.80683 0.0
O349 O 0.92448 0.33106 0.86434 0.0
O350 O 0.93074 0.36529 0.89379 0.0
O351 O 0.94232 0.36806 0.82526 0.0
H352 H 0.90451 0.33276 0.65732 0.0
H353 H 0.89876 0.3284 0.57477 0.0
H354 H 0.94548 0.38231 0.56862 0.0
H355 H 0.95098 0.3866 0.65066 0.0
H356 H 0.91855 0.36027 0.98861 0.0
H357 H 0.92522 0.36386 0.07083 0.0
H358 H 0.87782 0.31038 0.07681 0.0
H359 H 0.87138 0.30688 0.99498 0.0
Tb360 Tb 0.69362 0.14158 0.87849 0.0
Tb361 Tb 0.67416 0.12112 0.78924 0.0
C362 C 0.70196 0.15545 0.95964 0.0
C363 C 0.69928 0.14999 1.006 0.0
C364 C 0.68185 0.1379 0.0188 0.0
C365 C 0.67969 0.13414 0.06379 0.0
C366 C 0.6949 0.14235 0.09697 0.0
C367 C 0.71234 0.15415 0.08369 0.0
C368 C 0.71447 0.15792 0.03884 0.0
C369 C 0.71086 0.12844 0.83101 0.0
C370 C 0.66413 0.0988 0.87285 0.0
C371 C 0.66421 0.10752 0.70789 0.0
C372 C 0.66833 0.11214 0.6615 0.0
C373 C 0.68625 0.12365 0.65067 0.0
C374 C 0.68946 0.12725 0.60586 0.0
C375 C 0.67482 0.11949 0.57111 0.0
C376 C 0.65694 0.10804 0.58245 0.0
C377 C 0.65377 0.10444 0.62701 0.0
C378 C 0.65558 0.13184 0.83772 0.0
C379 C 0.70587 0.16357 0.7976 0.0
O380 O 0.68766 0.15322 0.93425 0.0
O381 O 0.71231 0.15118 0.93708 0.0
O382 O 0.694 0.12082 0.83485 0.0
O383 O 0.71915 0.14393 0.85634 0.0
O384 O 0.67324 0.1149 0.89736 0.0
O385 O 0.66421 0.09741 0.82838 0.0
O386 O 0.67634 0.10605 0.73387 0.0
O387 O 0.65702 0.11584 0.72961 0.0
O388 O 0.67257 0.14134 0.83352 0.0
O389 O 0.64862 0.11631 0.8132 0.0
O390 O 0.69724 0.14745 0.77266 0.0
O391 O 0.70363 0.16493 0.84055 0.0
H392 H 0.66986 0.13154 0.99422 0.0
H393 H 0.66609 0.12481 0.0726 0.0
H394 H 0.72433 0.16093 0.10823 0.0
H395 H 0.72803 0.16739 0.02994 0.0
H396 H 0.69772 0.12981 0.67674 0.0
H397 H 0.70338 0.13626 0.59851 0.0
H398 H 0.64536 0.10156 0.55671 0.0
H399 H 0.63985 0.09545 0.63452 0.0
Tb400 Tb 0.91215 0.57475 0.88506 0.0
Tb401 Tb 0.92596 0.57343 0.79589 0.0
C402 C 0.90289 0.57219 0.96377 0.0
C403 C 0.90781 0.56855 1.00896 0.0
C404 C 0.89876 0.55076 0.02236 0.0
C405 C 0.90169 0.54775 0.06685 0.0
C406 C 0.91367 0.56247 0.09903 0.0
C407 C 0.9231 0.58018 0.08522 0.0
C408 C 0.92016 0.58319 0.04083 0.0
C409 C 0.92253 0.60416 0.84072 0.0
C410 C 0.95274 0.5828 0.88571 0.0
C411 C 0.94184 0.58017 0.72524 0.0
C412 C 0.93838 0.5754 0.67604 0.0
C413 C 0.94745 0.58941 0.64855 0.0
C414 C 0.94487 0.58562 0.60178 0.0
C415 C 0.93317 0.56765 0.5813 0.0
C416 C 0.92388 0.5536 0.60897 0.0
C417 C 0.92646 0.55744 0.656 0.0
C418 C 0.90664 0.54088 0.82581 0.0
C419 C 0.88502 0.56394 0.79978 0.0
O420 O 0.89519 0.55849 0.93169 0.0
O421 O 0.91468 0.58763 0.94915 0.0
O422 O 0.93002 0.59467 0.84414 0.0
O423 O 0.90858 0.59755 0.86385 0.0
O424 O 0.93857 0.57835 0.90881 0.0
O425 O 0.95138 0.58312 0.84135 0.0
O426 O 0.93443 0.58932 0.74189 0.0
O427 O 0.94095 0.56773 0.75068 0.0
O428 O 0.91794 0.55577 0.84893 0.0
O429 O 0.9063 0.54403 0.78402 0.0
O430 O 0.89954 0.57203 0.77695 0.0
O431 O 0.88669 0.56022 0.84137 0.0
H432 H 0.88901 0.5392 0.99883 0.0
H433 H 0.89436 0.53391 0.0762 0.0
H434 H 0.93221 0.59188 0.10917 0.0
H435 H 0.92715 0.59711 0.03193 0.0
H436 H 0.95659 0.60338 0.66336 0.0
H437 H 0.95194 0.59685 0.58162 0.0
H438 H 0.91485 0.5396 0.59432 0.0
H439 H 0.91925 0.54641 0.67661 0.0
Tb440 Tb 0.46748 0.3511 0.89238 0.0
Tb441 Tb 0.46531 0.3651 0.80471 0.0
C442 C 0.47308 0.34551 0.972 0.0
C443 C 0.47687 0.35407 0.01909 0.0
C444 C 0.49237 0.35671 0.04602 0.0
C445 C 0.49479 0.36207 0.0923 0.0
C446 C 0.48163 0.36473 0.11297 0.0
C447 C 0.46654 0.36289 0.08547 0.0
C448 C 0.46421 0.35768 0.03913 0.0
C449 C 0.43576 0.33166 0.84017 0.0
C450 C 0.4588 0.38317 0.89355 0.0
C451 C 0.45808 0.37443 0.73135 0.0
C452 C 0.46345 0.37553 0.68494 0.0
C453 C 0.46381 0.3609 0.66111 0.0
C454 C 0.4675 0.36165 0.61606 0.0
C455 C 0.47104 0.37711 0.59378 0.0
C456 C 0.47114 0.39193 0.61824 0.0
C457 C 0.46733 0.3911 0.66321 0.0
C458 C 0.49941 0.37774 0.8418 0.0
C459 C 0.47332 0.33254 0.80845 0.0
O460 O 0.48612 0.35279 0.94536 0.0
O461 O 0.45681 0.34003 0.9513 0.0
O462 O 0.4457 0.34873 0.84675 0.0
O463 O 0.44331 0.32448 0.86417 0.0
O464 O 0.46411 0.37363 0.91694 0.0
O465 O 0.45707 0.38127 0.84874 0.0
O466 O 0.44856 0.35797 0.74397 0.0
O467 O 0.47057 0.38606 0.76322 0.0
O468 O 0.48585 0.37541 0.86214 0.0
O469 O 0.49378 0.37279 0.79946 0.0
O470 O 0.46444 0.33904 0.78456 0.0
O471 O 0.47935 0.33866 0.85119 0.0
H472 H 0.50233 0.35401 0.03151 0.0
H473 H 0.50681 0.36375 0.11202 0.0
H474 H 0.45601 0.36464 0.09995 0.0
H475 H 0.45209 0.35578 0.01941 0.0
H476 H 0.46089 0.34869 0.67696 0.0
H477 H 0.46706 0.34987 0.59837 0.0
H478 H 0.47413 0.40419 0.60264 0.0
H479 H 0.46717 0.40257 0.68089 0.0
Tb480 Tb 0.36829 0.92254 0.21581 0.0
Tb481 Tb 0.3519 0.90206 0.11793 0.0
C482 C 0.37119 0.93844 0.2922 0.0
C483 C 0.37362 0.93589 0.3399 0.0
C484 C 0.3766 0.9497 0.3733 0.0
C485 C 0.37745 0.94704 0.41889 0.0
C486 C 0.37529 0.93044 0.43204 0.0
C487 C 0.37265 0.91673 0.39829 0.0
C488 C 0.37183 0.91943 0.35264 0.0
C489 C 0.38602 0.90582 0.18733 0.0
C490 C 0.33783 0.87957 0.19923 0.0
C491 C 0.3462 0.88876 0.03713 0.0
C492 C 0.35297 0.89392 0.9929 0.0
C493 C 0.35267 0.88058 0.96216 0.0
C494 C 0.35677 0.88425 0.91807 0.0
C495 C 0.36117 0.90135 0.90358 0.0
C496 C 0.36224 0.915 0.93513 0.0
C497 C 0.35817 0.91132 0.97936 0.0
C498 C 0.33374 0.91526 0.16124 0.0
C499 C 0.38288 0.94423 0.13009 0.0
O500 O 0.35549 0.92612 0.26987 0.0
O501 O 0.38517 0.94266 0.2688 0.0
O502 O 0.37275 0.90635 0.16778 0.0
O503 O 0.3896 0.91483 0.22673 0.0
O504 O 0.34525 0.89524 0.2261 0.0
O505 O 0.34108 0.87882 0.15668 0.0
O506 O 0.35702 0.88716 0.06762 0.0
O507 O 0.33764 0.89666 0.05416 0.0
O508 O 0.35077 0.92227 0.16163 0.0
O509 O 0.32582 0.90023 0.13404 0.0
O510 O 0.37432 0.92841 0.1042 0.0
O511 O 0.38099 0.94548 0.1739 0.0
H512 H 0.37785 0.96243 0.36409 0.0
H513 H 0.37923 0.95779 0.44378 0.0
H514 H 0.37116 0.90387 0.40715 0.0
H515 H 0.36948 0.90858 0.32727 0.0
H516 H 0.34875 0.86709 0.9719 0.0
H517 H 0.35619 0.87354 0.89509 0.0
H518 H 0.36548 0.9283 0.92522 0.0
H519 H 0.35851 0.92187 1.00248 0.0
Tb520 Tb 0.13259 0.45794 0.13588 0.0
Tb521 Tb 0.13944 0.47754 0.23364 0.0
C522 C 0.11713 0.44198 0.05896 0.0
C523 C 0.12074 0.44415 0.01158 0.0
C524 C 0.10819 0.43068 0.97792 0.0
C525 C 0.11081 0.43278 0.93249 0.0
C526 C 0.12604 0.44845 0.91975 0.0
C527 C 0.13875 0.46184 0.95382 0.0
C528 C 0.13611 0.45971 0.99935 0.0
C529 C 0.16815 0.47553 0.16498 0.0
C530 C 0.14455 0.50054 0.15384 0.0
C531 C 0.14973 0.49078 0.31476 0.0
C532 C 0.14922 0.48455 0.35988 0.0
C533 C 0.16182 0.49685 0.39533 0.0
C534 C 0.16061 0.49201 0.43936 0.0
C535 C 0.14669 0.47474 0.4489 0.0
C536 C 0.13439 0.46221 0.41297 0.0
C537 C 0.13568 0.46705 0.36881 0.0
C538 C 0.10617 0.46284 0.18874 0.0
C539 C 0.12862 0.4356 0.22127 0.0
O540 O 0.11476 0.45462 0.0798 0.0
O541 O 0.12737 0.43758 0.08399 0.0
O542 O 0.15505 0.47462 0.18464 0.0
O543 O 0.16124 0.46651 0.12555 0.0
O544 O 0.13513 0.48494 0.12663 0.0
O545 O 0.15078 0.50098 0.1958 0.0
O546 O 0.16029 0.48855 0.28787 0.0
O547 O 0.13391 0.48678 0.29381 0.0
O548 O 0.117 0.45684 0.18921 0.0
O549 O 0.11363 0.47786 0.21591 0.0
O550 O 0.13557 0.45104 0.2483 0.0
O551 O 0.12456 0.43472 0.17701 0.0
H552 H 0.09625 0.41858 0.98676 0.0
H553 H 0.10091 0.42205 0.90734 0.0
H554 H 0.15051 0.47417 0.9453 0.0
H555 H 0.1459 0.4703 0.02496 0.0
H556 H 0.17232 0.51044 0.38913 0.0
H557 H 0.17017 0.50207 0.46617 0.0
H558 H 0.12368 0.44871 0.41904 0.0
H559 H 0.12585 0.45731 0.34185 0.0
Tb560 Tb 0.57999 0.68105 0.21254 0.0
Tb561 Tb 0.57551 0.69676 0.13062 0.0
C562 C 0.58678 0.67403 0.28991 0.0
C563 C 0.58633 0.67807 0.33833 0.0
C564 C 0.58946 0.69512 0.3572 0.0
C565 C 0.58882 0.69815 0.40361 0.0
C566 C 0.58492 0.68413 0.43172 0.0
C567 C 0.58193 0.66717 0.41237 0.0
C568 C 0.58262 0.6642 0.36631 0.0
C569 C 0.54934 0.65931 0.16001 0.0
C570 C 0.56561 0.70968 0.21549 0.0
C571 C 0.56771 0.70269 0.05293 0.0
C572 C 0.57207 0.70171 1.00602 0.0
C573 C 0.57084 0.68582 0.98459 0.0
C574 C 0.57356 0.68483 0.93899 0.0
C575 C 0.57759 0.6997 0.91386 0.0
C576 C 0.57923 0.71571 0.93581 0.0
C577 C 0.57647 0.71667 0.98129 0.0
C578 C 0.60713 0.71688 0.18266 0.0
C579 C 0.59134 0.6695 0.12421 0.0
O580 O 0.59901 0.68704 0.2688 0.0
O581 O 0.57091 0.66465 0.26566 0.0
O582 O 0.55618 0.67644 0.1695 0.0
O583 O 0.55957 0.65415 0.18079 0.0
O584 O 0.57551 0.70377 0.23735 0.0
O585 O 0.56032 0.70473 0.17224 0.0
O586 O 0.55815 0.6872 0.07012 0.0
O587 O 0.5808 0.71527 0.082 0.0
O588 O 0.59852 0.69991 0.17239 0.0
O589 O 0.59834 0.7237 0.1621 0.0
O590 O 0.58332 0.67736 0.10306 0.0
O591 O 0.59366 0.67093 0.16887 0.0
H592 H 0.59231 0.70602 0.33616 0.0
H593 H 0.59108 0.71133 0.41733 0.0
H594 H 0.57925 0.65619 0.43296 0.0
H595 H 0.58026 0.65098 0.35246 0.0
H596 H 0.56747 0.67405 1.00279 0.0
H597 H 0.57244 0.67238 0.92337 0.0
H598 H 0.58209 0.72734 0.91749 0.0
H599 H 0.57736 0.72901 0.99696 0.0
Tb600 Tb 0.36377 0.47261 0.23955 0.0
Tb601 Tb 0.34875 0.45285 0.14135 0.0
C602 C 0.36908 0.48517 0.32084 0.0
C603 C 0.36188 0.47936 0.3643 0.0
C604 C 0.36224 0.49234 0.39639 0.0
C605 C 0.35771 0.48791 0.43987 0.0
C606 C 0.35282 0.4704 0.45222 0.0
C607 C 0.35176 0.45717 0.41937 0.0
C608 C 0.35619 0.46158 0.37576 0.0
C609 C 0.38279 0.4603 0.19668 0.0
C610 C 0.33274 0.4305 0.22516 0.0
C611 C 0.34682 0.43699 0.06571 0.0
C612 C 0.34489 0.43932 0.01772 0.0
C613 C 0.34313 0.42574 0.98529 0.0
C614 C 0.34253 0.42811 0.93952 0.0
C615 C 0.34374 0.44418 0.92519 0.0
C616 C 0.34511 0.45763 0.95791 0.0
C617 C 0.34571 0.45523 1.00382 0.0
C618 C 0.33022 0.46895 0.16766 0.0
C619 C 0.37847 0.49603 0.16026 0.0
O620 O 0.3585 0.48716 0.29045 0.0
O621 O 0.3777 0.4774 0.30345 0.0
O622 O 0.36573 0.45283 0.19622 0.0
O623 O 0.39029 0.47556 0.22295 0.0
O624 O 0.34094 0.44613 0.25178 0.0
O625 O 0.33548 0.42958 0.18193 0.0
O626 O 0.36229 0.44938 0.0888 0.0
O627 O 0.33251 0.43277 0.08781 0.0
O628 O 0.34319 0.46841 0.18891 0.0
O629 O 0.32749 0.46037 0.12806 0.0
O630 O 0.37176 0.48056 0.13281 0.0
O631 O 0.37437 0.49622 0.20218 0.0
H632 H 0.36665 0.50614 0.38829 0.0
H633 H 0.35881 0.49847 0.46437 0.0
H634 H 0.34779 0.44348 0.42761 0.0
H635 H 0.35568 0.45127 0.35147 0.0
H636 H 0.34249 0.41337 0.99543 0.0
H637 H 0.34115 0.41733 0.91532 0.0
H638 H 0.34623 0.47023 0.94816 0.0
H639 H 0.34716 0.46591 0.02849 0.0
Tb640 Tb 0.57932 0.89988 0.12921 0.0
Tb641 Tb 0.58155 0.92065 0.21557 0.0
C642 C 0.57333 0.88586 0.04858 0.0
C643 C 0.57639 0.89131 1.00227 0.0
C644 C 0.57149 0.90361 0.98533 0.0
C645 C 0.57331 0.90737 0.94028 0.0
C646 C 0.58008 0.89894 0.91115 0.0
C647 C 0.58529 0.88693 0.92861 0.0
C648 C 0.58344 0.88317 0.97353 0.0
C649 C 0.61018 0.91309 0.18359 0.0
C650 C 0.59253 0.94254 0.13143 0.0
C651 C 0.58702 0.93471 0.29606 0.0
C652 C 0.58624 0.93003 0.34307 0.0
C653 C 0.59222 0.91828 0.35829 0.0
C654 C 0.59162 0.91465 0.40358 0.0
C655 C 0.58496 0.92262 0.43444 0.0
C656 C 0.57898 0.93432 0.41874 0.0
C657 C 0.57963 0.93795 0.37372 0.0
C658 C 0.55119 0.9092 0.16123 0.0
C659 C 0.56916 0.87784 0.21012 0.0
O660 O 0.56159 0.88864 0.0693 0.0
O661 O 0.58781 0.88962 0.0756 0.0
O662 O 0.60115 0.92082 0.17518 0.0
O663 O 0.60232 0.89726 0.15982 0.0
O664 O 0.58531 0.92635 0.10765 0.0
O665 O 0.59461 0.94416 0.17616 0.0
O666 O 0.59988 0.93478 0.27371 0.0
O667 O 0.57134 0.92763 0.27105 0.0
O668 O 0.55907 0.90011 0.16903 0.0
O669 O 0.55995 0.92478 0.18587 0.0
O670 O 0.57755 0.89397 0.23509 0.0
O671 O 0.56519 0.87664 0.16638 0.0
H672 H 0.56602 0.91012 1.00665 0.0
H673 H 0.56938 0.91687 0.92826 0.0
H674 H 0.59031 0.87999 0.90721 0.0
H675 H 0.58718 0.87354 0.98562 0.0
H676 H 0.59736 0.91195 0.33528 0.0
H677 H 0.59618 0.90545 0.4143 0.0
H678 H 0.57408 0.94098 0.44147 0.0
H679 H 0.57506 0.94714 0.36285 0.0
Tb680 Tb 0.14149 0.6852 0.26195 0.0
Tb681 Tb 0.13486 0.69897 0.17798 0.0
C682 C 0.15191 0.68162 0.33967 0.0
C683 C 0.1486 0.68315 0.38715 0.0
C684 C 0.16157 0.68447 0.42091 0.0
C685 C 0.15852 0.68495 0.46623 0.0
C686 C 0.14235 0.68405 0.47892 0.0
C687 C 0.12951 0.68315 0.44491 0.0
C688 C 0.1326 0.68268 0.39939 0.0
C689 C 0.10923 0.66375 0.2142 0.0
C690 C 0.12492 0.71208 0.26652 0.0
C691 C 0.12655 0.70377 0.09941 0.0
C692 C 0.12516 0.69728 0.05144 0.0
C693 C 0.10994 0.69404 0.02237 0.0
C694 C 0.10939 0.69048 0.97582 0.0
C695 C 0.12413 0.69013 0.95718 0.0
C696 C 0.13902 0.69256 0.98665 0.0
C697 C 0.13953 0.6961 0.03327 0.0
C698 C 0.16643 0.72142 0.22644 0.0
C699 C 0.14893 0.67005 0.17616 0.0
O700 O 0.16002 0.69686 0.32069 0.0
O701 O 0.13854 0.66822 0.31275 0.0
O702 O 0.11768 0.68085 0.22169 0.0
O703 O 0.11852 0.65766 0.23571 0.0
O704 O 0.13324 0.70452 0.28799 0.0
O705 O 0.1221 0.71009 0.22186 0.0
O706 O 0.11451 0.69253 0.12429 0.0
O707 O 0.143 0.7131 0.12108 0.0
O708 O 0.15936 0.70423 0.21864 0.0
O709 O 0.15591 0.72634 0.20602 0.0
O710 O 0.13867 0.67568 0.1548 0.0
O711 O 0.15539 0.67601 0.21868 0.0
H712 H 0.17405 0.68495 0.41217 0.0
H713 H 0.1689 0.68605 0.49139 0.0
H714 H 0.11687 0.68234 0.45334 0.0
H715 H 0.12241 0.68169 0.37378 0.0
H716 H 0.09867 0.69485 0.03557 0.0
H717 H 0.09754 0.6883 0.95435 0.0
H718 H 0.15066 0.69251 0.97361 0.0
H719 H 0.15147 0.69853 0.05486 0.0
C720 C 0.10772 0.40188 0.22669 0.0
C721 C 0.12327 0.41868 0.24355 0.0
C722 C 0.10111 0.38686 0.25223 0.0
C723 C 0.10421 0.37609 0.37127 0.0
H724 H 0.07854 0.32604 0.31539 0.0
C725 C 0.06397 0.31364 0.47271 0.0
C726 C 0.06229 0.29684 0.4571 0.0
C727 C 0.07267 0.32889 0.44824 0.0
C728 C 0.08591 0.33991 0.33186 0.0
H729 H 0.14466 0.43259 0.29924 0.0
H730 H 0.1338 0.4064 0.34244 0.0
H731 H 0.09157 0.35104 0.26863 0.0
H732 H 0.06944 0.28313 0.40549 0.0
H733 H 0.08537 0.3097 0.36452 0.0
H734 H 0.09915 0.36492 0.43461 0.0
C735 C 0.12615 0.40484 0.3105 0.0
C736 C 0.09315 0.35435 0.30474 0.0
C737 C 0.13256 0.41986 0.28537 0.0
C738 C 0.07043 0.29589 0.41823 0.0
C739 C 0.07936 0.31112 0.39432 0.0
C740 C 0.09717 0.36164 0.39843 0.0
C741 C 0.11004 0.38822 0.295 0.0
C742 C 0.10242 0.3727 0.32395 0.0
C743 C 0.08009 0.32771 0.40796 0.0
C744 C 0.08789 0.34329 0.3792 0.0
H745 H 0.10012 0.4006 0.19486 0.0
H746 H 0.08857 0.37443 0.2391 0.0
H747 H 0.1109 0.38996 0.38759 0.0
H748 H 0.05759 0.31468 0.50218 0.0
H749 H 0.07279 0.34131 0.45987 0.0
C750 C 0.74034 0.79791 0.47622 0.0
C751 C 0.74656 0.78602 0.4887 0.0
C752 C 0.72498 0.79166 0.44429 0.0
C753 C 0.68413 0.74846 0.38968 0.0
H754 H 0.68342 0.77865 0.29807 0.0
C755 C 0.63258 0.71747 0.23099 0.0
C756 C 0.62353 0.72666 0.21635 0.0
C757 C 0.64727 0.72579 0.26487 0.0
C758 C 0.68332 0.77013 0.32375 0.0
H759 H 0.74147 0.75828 0.47793 0.0
H760 H 0.71514 0.74751 0.42205 0.0
H761 H 0.70953 0.79109 0.35634 0.0
H762 H 0.62322 0.75208 0.22476 0.0
H763 H 0.64927 0.76687 0.28406 0.0
H764 H 0.65817 0.72742 0.3568 0.0
C765 C 0.72181 0.76157 0.43709 0.0
C766 C 0.69828 0.77727 0.35725 0.0
C767 C 0.73707 0.7678 0.4689 0.0
C768 C 0.62994 0.74468 0.23538 0.0
C769 C 0.64484 0.75312 0.26928 0.0
C770 C 0.66929 0.74134 0.35621 0.0
C771 C 0.71547 0.77336 0.42432 0.0
C772 C 0.69904 0.76641 0.39029 0.0
C773 C 0.6535 0.74363 0.28493 0.0
C774 C 0.6688 0.75195 0.32233 0.0
H775 H 0.7474 0.81204 0.49091 0.0
H776 H 0.72045 0.80111 0.43566 0.0
H777 H 0.68392 0.73981 0.41512 0.0
H778 H 0.62816 0.70368 0.21651 0.0
H779 H 0.65382 0.7182 0.27531 0.0
C780 C 0.27926 0.98608 0.43831 0.0
C781 C 0.26162 0.98332 0.4267 0.0
C782 C 0.28657 0.97794 0.41042 0.0
C783 C 0.27604 0.9398 0.32871 0.0
H784 H 0.31951 0.97308 0.27484 0.0
C785 C 0.30564 0.91291 0.19226 0.0
C786 C 0.32466 0.92264 0.18986 0.0
C787 C 0.29746 0.91997 0.22063 0.0
C788 C 0.30762 0.96344 0.29011 0.0
H789 H 0.23755 0.9693 0.37785 0.0
H790 H 0.25007 0.95448 0.33025 0.0
H791 H 0.30664 0.98523 0.32815 0.0
H792 H 0.34995 0.94763 0.21425 0.0
H793 H 0.33618 0.95927 0.26551 0.0
H794 H 0.27729 0.91792 0.29255 0.0
C795 C 0.25831 0.96317 0.36046 0.0
C796 C 0.30018 0.97051 0.32053 0.0
C797 C 0.25119 0.97168 0.38765 0.0
C798 C 0.33526 0.93966 0.21574 0.0
C799 C 0.32723 0.9465 0.24482 0.0
C800 C 0.28374 0.93266 0.29911 0.0
C801 C 0.27619 0.96649 0.3711 0.0
C802 C 0.2843 0.95879 0.34003 0.0
C803 C 0.30817 0.93683 0.2478 0.0
C804 C 0.29968 0.94436 0.27917 0.0
H805 H 0.28768 0.99509 0.46795 0.0
H806 H 0.3004 0.9807 0.41933 0.0
H807 H 0.26378 0.93046 0.34337 0.0
H808 H 0.29708 0.89983 0.17233 0.0
H809 H 0.28272 0.9122 0.22087 0.0
C810 C 0.29925 0.04594 0.53971 0.0
C811 C 0.28908 0.05395 0.52463 0.0
C812 C 0.31512 0.0559 0.56986 0.0
C813 C 0.33912 0.09638 0.65549 0.0
H814 H 0.37962 0.08755 0.64446 0.0
C815 C 0.40788 0.13419 0.77581 0.0
C816 C 0.41489 0.12311 0.78983 0.0
C817 C 0.39287 0.12718 0.74242 0.0
C818 C 0.3684 0.0901 0.64829 0.0
H819 H 0.28772 0.07885 0.52895 0.0
H820 H 0.31576 0.09652 0.58151 0.0
H821 H 0.35335 0.07321 0.58731 0.0
H822 H 0.41127 0.09587 0.7811 0.0
H823 H 0.38537 0.08375 0.7231 0.0
H824 H 0.35433 0.11328 0.7168 0.0
C825 C 0.31129 0.08239 0.57029 0.0
C826 C 0.35327 0.08185 0.61544 0.0
C827 C 0.29533 0.07235 0.53986 0.0
C828 C 0.40639 0.10485 0.77051 0.0
C829 C 0.39155 0.09791 0.73709 0.0
C830 C 0.35435 0.10473 0.68839 0.0
C831 C 0.3214 0.07426 0.58579 0.0
C832 C 0.33822 0.08454 0.61894 0.0
C833 C 0.38465 0.10899 0.72222 0.0
C834 C 0.36903 0.1014 0.68567 0.0
H835 H 0.29478 0.03177 0.52867 0.0
H836 H 0.32224 0.049 0.58147 0.0
H837 H 0.32777 0.09869 0.65959 0.0
H838 H 0.41417 0.14833 0.7901 0.0
H839 H 0.38797 0.13612 0.73171 0.0
C840 C 0.91828 0.30644 0.75254 0.0
C841 C 0.9284 0.31709 0.79286 0.0
C842 C 0.92562 0.29885 0.72338 0.0
C843 C 0.96507 0.29013 0.7147 0.0
H844 H 0.94847 0.28221 0.58725 0.0
C845 C 1.00135 0.27543 0.5717 0.0
C846 C 0.99022 0.25933 0.54253 0.0
C847 C 0.99368 0.28193 0.60293 0.0
C848 C 0.95314 0.28423 0.62278 0.0
H849 H 0.95429 0.32828 0.83421 0.0
H850 H 0.96765 0.31585 0.78237 0.0
H851 H 0.93618 0.29523 0.64 0.0
H852 H 0.96218 0.23789 0.52192 0.0
H853 H 0.94863 0.24978 0.5753 0.0
H854 H 0.98284 0.27999 0.69625 0.0
C855 C 0.95369 0.3127 0.77372 0.0
C856 C 0.94599 0.2916 0.65338 0.0
C857 C 0.9461 0.31995 0.80356 0.0
C858 C 0.97112 0.25025 0.54415 0.0
C859 C 0.96338 0.25704 0.57468 0.0
C860 C 0.97254 0.28318 0.68385 0.0
C861 C 0.9436 0.30207 0.73288 0.0
C862 C 0.95167 0.29454 0.70004 0.0
C863 C 0.97462 0.27283 0.60478 0.0
C864 C 0.96656 0.28003 0.63761 0.0
H865 H 0.90452 0.3039 0.74351 0.0
H866 H 0.91702 0.29036 0.69339 0.0
H867 H 0.96969 0.29178 0.7501 0.0
H868 H 1.01606 0.28304 0.57049 0.0
H869 H 1.00265 0.29427 0.6252 0.0
C870 C 0.76949 0.74437 0.63962 0.0
C871 C 0.77032 0.74309 0.59275 0.0
C872 C 0.76287 0.72883 0.66284 0.0
C873 C 0.75575 0.68213 0.65788 0.0
H874 H 0.72359 0.67624 0.75034 0.0
C875 C 0.72369 0.61733 0.75364 0.0
C876 C 0.72128 0.61939 0.79926 0.0
C877 C 0.72924 0.632 0.72742 0.0
C878 C 0.73277 0.67775 0.72515 0.0
H879 H 0.7648 0.72424 0.53373 0.0
H880 H 0.7533 0.69695 0.5746 0.0
H881 H 0.73368 0.70214 0.70596 0.0
H882 H 0.72327 0.63861 0.85349 0.0
H883 H 0.73351 0.66445 0.80831 0.0
H884 H 0.75519 0.65798 0.67762 0.0
C885 C 0.75783 0.71012 0.59321 0.0
C886 C 0.73849 0.6926 0.69948 0.0
C887 C 0.76433 0.72574 0.56974 0.0
C888 C 0.7249 0.63658 0.81836 0.0
C889 C 0.73062 0.65134 0.79223 0.0
C890 C 0.75014 0.66732 0.68382 0.0
C891 C 0.75697 0.71149 0.64009 0.0
C892 C 0.75015 0.69507 0.66568 0.0
C893 C 0.73278 0.64926 0.74624 0.0
C894 C 0.73863 0.66495 0.71806 0.0
H895 H 0.77397 0.75746 0.65869 0.0
H896 H 0.76265 0.73047 0.69895 0.0
H897 H 0.7649 0.68372 0.63253 0.0
H898 H 0.72115 0.60428 0.73799 0.0
H899 H 0.73047 0.62968 0.69215 0.0
C900 C 0.97816 0.74407 0.64571 0.0
C901 C 0.98708 0.74395 0.60772 0.0
C902 C 0.96964 0.72857 0.66906 0.0
C903 C 0.95538 0.67837 0.6626 0.0
H904 H 0.95355 0.68596 0.79089 0.0
C905 C 0.94488 0.62613 0.79249 0.0
C906 C 0.92886 0.62016 0.81425 0.0
C907 C 0.95072 0.64076 0.76609 0.0
C908 C 0.95385 0.68366 0.75502 0.0
H909 H 0.99409 0.72745 0.56441 0.0
H910 H 0.98019 0.70074 0.60627 0.0
H911 H 0.96653 0.71219 0.74735 0.0
H912 H 0.90686 0.62542 0.82695 0.0
H913 H 0.91767 0.65173 0.7823 0.0
H914 H 0.9437 0.64982 0.67168 0.0
C915 C 0.97903 0.71249 0.61739 0.0
C916 C 0.96118 0.69869 0.72971 0.0
C917 C 0.98715 0.72789 0.5933 0.0
C918 C 0.91917 0.62961 0.81033 0.0
C919 C 0.92532 0.64462 0.7848 0.0
C920 C 0.94848 0.66342 0.68821 0.0
C921 C 0.97021 0.71258 0.65596 0.0
C922 C 0.96207 0.69636 0.68294 0.0
C923 C 0.94103 0.65017 0.76203 0.0
C924 C 0.94762 0.66592 0.73461 0.0
H925 H 0.97773 0.75621 0.65741 0.0
H926 H 0.9626 0.72924 0.69748 0.0
H927 H 0.95534 0.67572 0.62676 0.0
H928 H 0.95295 0.61948 0.79583 0.0
H929 H 0.96301 0.64493 0.74938 0.0
C930 C 0.29458 0.26824 0.57588 0.0
C931 C 0.28979 0.2526 0.54661 0.0
C932 C 0.30986 0.27566 0.6079 0.0
C933 C 0.34721 0.26753 0.65885 0.0
H934 H 0.36626 0.31772 0.70807 0.0
C935 C 0.4085 0.30257 0.80132 0.0
C936 C 0.41895 0.32178 0.80769 0.0
C937 C 0.39273 0.29362 0.76997 0.0
C938 C 0.3617 0.30385 0.69435 0.0
H939 H 0.29797 0.23299 0.52624 0.0
H940 H 0.32581 0.24692 0.57914 0.0
H941 H 0.34123 0.30422 0.65062 0.0
H942 H 0.42074 0.34662 0.78716 0.0
H943 H 0.39527 0.33158 0.72956 0.0
H944 H 0.36916 0.26799 0.6995 0.0
C945 C 0.31711 0.2529 0.57973 0.0
C946 C 0.34657 0.2957 0.66167 0.0
C947 C 0.3012 0.24495 0.54878 0.0
C948 C 0.4133 0.3318 0.78226 0.0
C949 C 0.39815 0.32297 0.74969 0.0
C950 C 0.36294 0.27598 0.69031 0.0
C951 C 0.32172 0.26842 0.61017 0.0
C952 C 0.33871 0.27725 0.64373 0.0
C953 C 0.3873 0.30366 0.74313 0.0
C954 C 0.37046 0.29433 0.70902 0.0
H955 H 0.28639 0.2748 0.57437 0.0
H956 H 0.31209 0.28707 0.63098 0.0
H957 H 0.34173 0.25327 0.64687 0.0
H958 H 0.41239 0.29445 0.82087 0.0
H959 H 0.38481 0.27883 0.76741 0.0
C960 C 0.70869 0.10312 0.77861 0.0
C961 C 0.71947 0.12067 0.80193 0.0
C962 C 0.71632 0.09578 0.74966 0.0
C963 C 0.7589 0.10835 0.69188 0.0
H964 H 0.73692 0.05553 0.67339 0.0
C965 C 0.79187 0.06649 0.62163 0.0
C966 C 0.78213 0.05429 0.58286 0.0
C967 C 0.78458 0.07597 0.64428 0.0
C968 C 0.74308 0.0703 0.67794 0.0
H969 H 0.74698 0.14403 0.81463 0.0
H970 H 0.76071 0.13085 0.76649 0.0
H971 H 0.7241 0.06888 0.72347 0.0
H972 H 0.75721 0.04254 0.53716 0.0
H973 H 0.74407 0.05867 0.57807 0.0
H974 H 0.77866 0.10944 0.64826 0.0
C975 C 0.74608 0.12298 0.76861 0.0
C976 C 0.73567 0.07805 0.70652 0.0
C977 C 0.73827 0.13052 0.79678 0.0
C978 C 0.76509 0.05203 0.56662 0.0
C979 C 0.75755 0.06115 0.59009 0.0
C980 C 0.76658 0.10055 0.66418 0.0
C981 C 0.7352 0.10548 0.74427 0.0
C982 C 0.74337 0.09724 0.71389 0.0
C983 C 0.76718 0.07307 0.62936 0.0
C984 C 0.75866 0.08145 0.65678 0.0
H985 H 0.69423 0.09498 0.78261 0.0
H986 H 0.70723 0.08249 0.73124 0.0
H987 H 0.76513 0.12311 0.69564 0.0
H988 H 0.80501 0.06844 0.63495 0.0
H989 H 0.79221 0.08499 0.67459 0.0
C990 C 0.63175 0.90886 0.23678 0.0
C991 C 0.62589 0.9203 0.21901 0.0
C992 C 0.64618 0.91584 0.27165 0.0
C993 C 0.67288 0.95558 0.36007 0.0
H994 H 0.70869 0.93973 0.35942 0.0
C995 C 0.73372 0.98246 0.50151 0.0
C996 C 0.75073 0.98632 0.48746 0.0
C997 C 0.71767 0.97327 0.47119 0.0
C998 C 0.69889 0.94442 0.36007 0.0
H999 H 0.63077 0.94803 0.22298 0.0
H1000 H 0.656 0.96025 0.28284 0.0
H1001 H 0.68266 0.92622 0.30158 0.0
H1002 H 0.7642 0.98337 0.43083 0.0
H1003 H 0.73659 0.96788 0.37816 0.0
H1004 H 0.6895 0.97427 0.41759 0.0
C1005 C 0.64928 0.94581 0.27095 0.0
C1006 C 0.68377 0.93646 0.32711 0.0
C1007 C 0.63488 0.93884 0.23631 0.0
C1008 C 0.75133 0.98067 0.44275 0.0
C1009 C 0.73539 0.97158 0.41256 0.0
C1010 C 0.68804 0.96357 0.39299 0.0
C1011 C 0.65512 0.93442 0.28936 0.0
C1012 C 0.67066 0.94209 0.32622 0.0
C1013 C 0.7183 0.96772 0.4262 0.0
C1014 C 0.70141 0.9583 0.39312 0.0
H1015 H 0.62499 0.89448 0.22428 0.0
H1016 H 0.65013 0.90658 0.28518 0.0
H1017 H 0.66294 0.96008 0.36108 0.0
H1018 H 0.73283 0.98661 0.53579 0.0
H1019 H 0.70476 0.9704 0.48312 0.0
C1020 C 0.07156 0.79649 0.50901 0.0
C1021 C 0.0539 0.78488 0.52115 0.0
C1022 C 0.07976 0.78956 0.48034 0.0
C1023 C 0.07771 0.74616 0.44139 0.0
H1024 H 0.10359 0.77193 0.34299 0.0
C1025 C 0.10882 0.73045 0.27438 0.0
C1026 C 0.11777 0.72194 0.29416 0.0
C1027 C 0.10168 0.73912 0.30128 0.0
C1028 C 0.09633 0.76453 0.37019 0.0
H1029 H 0.03103 0.75699 0.51305 0.0
H1030 H 0.04526 0.74495 0.46362 0.0
H1031 H 0.09001 0.78527 0.39176 0.0
H1032 H 0.1265 0.71629 0.35813 0.0
H1033 H 0.11415 0.73122 0.40434 0.0
H1034 H 0.08381 0.72538 0.41995 0.0
C1035 C 0.05288 0.75935 0.47616 0.0
C1036 C 0.08871 0.77226 0.39842 0.0
C1037 C 0.04468 0.76627 0.50436 0.0
C1038 C 0.11962 0.72257 0.34143 0.0
C1039 C 0.11243 0.73108 0.36812 0.0
C1040 C 0.08542 0.73853 0.41352 0.0
C1041 C 0.07054 0.77085 0.46377 0.0
C1042 C 0.07923 0.76311 0.43428 0.0
C1043 C 0.1032 0.73933 0.3485 0.0
C1044 C 0.09484 0.74758 0.37753 0.0
H1045 H 0.07892 0.81092 0.52125 0.0
H1046 H 0.09343 0.79878 0.47169 0.0
H1047 H 0.07065 0.73879 0.46887 0.0
H1048 H 0.10717 0.73027 0.23815 0.0
H1049 H 0.09457 0.74525 0.28504 0.0
C1050 C 0.31264 0.41418 0.28444 0.0
C1051 C 0.32151 0.41351 0.24667 0.0
C1052 C 0.30372 0.3989 0.30836 0.0
C1053 C 0.3057 0.35926 0.3403 0.0
H1054 H 0.2556 0.34008 0.36872 0.0
C1055 C 0.27286 0.30652 0.4711 0.0
C1056 C 0.25679 0.29037 0.45296 0.0
C1057 C 0.28029 0.32205 0.44728 0.0
C1058 C 0.26963 0.34536 0.36121 0.0
H1059 H 0.32787 0.39617 0.20436 0.0
H1060 H 0.31265 0.36951 0.24711 0.0
H1061 H 0.26916 0.36563 0.32214 0.0
H1062 H 0.23552 0.27809 0.39669 0.0
H1063 H 0.24801 0.30539 0.35635 0.0
H1064 H 0.30631 0.33926 0.3802 0.0
C1065 C 0.31243 0.38187 0.25765 0.0
C1066 C 0.27738 0.35995 0.33458 0.0
C1067 C 0.321 0.39706 0.23297 0.0
C1068 C 0.24786 0.29037 0.41168 0.0
C1069 C 0.25501 0.30599 0.38852 0.0
C1070 C 0.2981 0.34496 0.36783 0.0
C1071 C 0.30381 0.38269 0.29582 0.0
C1072 C 0.29546 0.36697 0.32351 0.0
C1073 C 0.27154 0.32186 0.40547 0.0
C1074 C 0.27994 0.33777 0.37838 0.0
H1075 H 0.31283 0.42667 0.29598 0.0
H1076 H 0.29728 0.39998 0.33769 0.0
H1077 H 0.31971 0.36449 0.33266 0.0
H1078 H 0.28018 0.30684 0.50248 0.0
H1079 H 0.29302 0.33413 0.46121 0.0
C1080 C 0.97794 0.38275 0.88974 0.0
C1081 C 0.96294 0.38536 0.89382 0.0
C1082 C 0.9941 0.39295 0.91936 0.0
C1083 C 1.01061 0.42161 0.03186 0.0
H1084 H 0.05795 0.42995 1.00188 0.0
C1085 C 0.07984 0.46468 0.14944 0.0
C1086 C 0.08929 0.45517 0.15674 0.0
C1087 C 0.06459 0.45745 0.1167 0.0
C1088 C 0.0448 0.42775 1.01064 0.0
H1089 H 0.95331 0.40128 0.93 0.0
H1090 H 0.98167 0.41994 0.97914 0.0
H1091 H 0.0318 0.41592 0.94401 0.0
H1092 H 0.0897 0.43031 0.13692 0.0
H1093 H 0.06367 0.41814 0.07911 0.0
H1094 H 0.02397 0.43396 0.09833 0.0
C1095 C 0.98094 0.4095 0.95495 0.0
C1096 C 0.0297 0.41953 0.97754 0.0
C1097 C 0.9647 0.39899 0.92624 0.0
C1098 C 0.0829 0.43812 0.13163 0.0
C1099 C 0.06802 0.43115 0.09839 0.0
C1100 C 0.02581 0.43019 0.06461 0.0
C1101 C 0.99573 0.40626 0.95316 0.0
C1102 C 1.01225 0.41607 0.98768 0.0
C1103 C 0.05876 0.44076 0.09029 0.0
C1104 C 0.04299 0.43311 0.05455 0.0
H1105 H 0.97679 0.37209 0.86549 0.0
H1106 H 1.00493 0.38975 0.91687 0.0
H1107 H 0.99747 0.41888 0.04187 0.0
H1108 H 0.0844 0.47779 0.16844 0.0
H1109 H 0.05761 0.46509 0.11126 0.0
C1110 C 0.65553 0.58616 0.92839 0.0
C1111 C 0.65926 0.58948 0.88362 0.0
C1112 C 0.64726 0.59429 0.95198 0.0
C1113 C 0.61968 0.6167 0.94193 0.0
H1114 H 0.64256 0.63823 0.06329 0.0
C1115 C 0.59876 0.66114 0.04975 0.0
C1116 C 0.59864 0.65989 0.09645 0.0
C1117 C 0.60569 0.65237 0.02299 0.0
C1118 C 0.63579 0.63207 0.02978 0.0
H1119 H 0.65636 0.60336 0.82793 0.0
H1120 H 0.64162 0.61761 0.86948 0.0
H1121 H 0.65501 0.62332 0.01689 0.0
H1122 H 0.60562 0.64821 0.15145 0.0
H1123 H 0.61742 0.63256 0.10463 0.0
H1124 H 0.60029 0.62524 0.95505 0.0
C1125 C 0.64525 0.60867 0.88612 0.0
C1126 C 0.643 0.62358 1.00304 0.0
C1127 C 0.65366 0.60051 0.8623 0.0
C1128 C 0.60558 0.64954 0.11568 0.0
C1129 C 0.61244 0.64065 0.08877 0.0
C1130 C 0.61237 0.62511 0.96885 0.0
C1131 C 0.64239 0.60599 0.93164 0.0
C1132 C 0.63498 0.61568 0.95889 0.0
C1133 C 0.61264 0.64199 0.04202 0.0
C1134 C 0.62029 0.63287 0.01326 0.0
H1135 H 0.65936 0.57753 0.94586 0.0
H1136 H 0.64486 0.59156 0.98656 0.0
H1137 H 0.61309 0.61061 0.90825 0.0
H1138 H 0.5937 0.66911 0.03366 0.0
H1139 H 0.6059 0.65405 0.98741 0.0
C1140 C 0.43697 0.06652 0.87622 0.0
C1141 C 0.4424 0.08393 0.89794 0.0
C1142 C 0.4316 0.0514 0.90112 0.0
C1143 C 0.43437 0.03972 0.01918 0.0
H1144 H 0.39421 0.99186 0.97078 0.0
C1145 C 0.39826 0.97855 0.12731 0.0
C1146 C 0.39303 0.96101 0.10675 0.0
C1147 C 0.40555 0.99378 0.10241 0.0
C1148 C 0.40559 1.0051 0.98468 0.0
H1149 H 0.44598 0.09886 0.96302 0.0
H1150 H 0.43636 0.07277 1.00555 0.0
H1151 H 0.40416 0.01747 0.92537 0.0
H1152 H 0.39239 0.94605 0.04432 0.0
H1153 H 0.40501 0.97236 1.0016 0.0
H1154 H 0.43553 0.02733 0.07883 0.0
C1155 C 0.43668 0.07072 0.96962 0.0
C1156 C 0.41134 0.01981 0.9585 0.0
C1157 C 0.4421 0.08575 0.94494 0.0
C1158 C 0.39601 0.95926 0.06135 0.0
C1159 C 0.40318 0.97437 0.03659 0.0
C1160 C 0.42853 0.02502 0.04547 0.0
C1161 C 0.43146 0.05332 0.94828 0.0
C1162 C 0.42577 0.03738 0.97541 0.0
C1163 C 0.4077 0.99177 0.05642 0.0
C1164 C 0.41405 1.00751 0.0286 0.0
H1165 H 0.43709 0.06463 0.84015 0.0
H1166 H 0.42783 0.03826 0.88346 0.0
H1167 H 0.44576 0.05292 0.03319 0.0
H1168 H 0.3961 0.98042 0.16208 0.0
H1169 H 0.40886 1.00699 0.11875 0.0
C1170 C 0.64667 0.06438 0.87537 0.0
C1171 C 0.65481 0.08223 0.89739 0.0
C1172 C 0.63896 0.0491 0.90002 0.0
C1173 C 0.6226 0.03496 0.01227 0.0
H1174 H 0.63059 0.9946 0.98055 0.0
C1175 C 0.60718 0.97681 0.12777 0.0
C1176 C 0.59902 0.95891 0.10601 0.0
C1177 C 0.61353 0.99195 0.10259 0.0
C1178 C 0.62807 1.00567 0.98968 0.0
H1179 H 0.66086 0.09784 0.96282 0.0
H1180 H 0.64784 0.07155 1.00515 0.0
H1181 H 0.64166 0.02021 0.93493 0.0
H1182 H 0.591 0.94305 0.04034 0.0
H1183 H 0.60184 0.96911 0.99722 0.0
H1184 H 0.60917 0.02044 0.06735 0.0
C1185 C 0.64709 0.06918 0.96891 0.0
C1186 C 0.63437 0.02036 0.96333 0.0
C1187 C 0.65473 0.08436 0.94443 0.0
C1188 C 0.59725 0.95657 0.05858 0.0
C1189 C 0.60361 0.97159 0.03361 0.0
C1190 C 0.61636 0.02029 0.03873 0.0
C1191 C 0.63919 0.05132 0.94724 0.0
C1192 C 0.63177 0.03525 0.97425 0.0
C1193 C 0.61196 0.98951 0.05514 0.0
C1194 C 0.61899 1.00543 0.02777 0.0
H1195 H 0.64646 0.06222 0.83924 0.0
H1196 H 0.6328 0.03554 0.88204 0.0
H1197 H 0.62007 0.04602 0.02144 0.0
H1198 H 0.60878 0.97915 0.16418 0.0
H1199 H 0.61998 1.00558 0.12031 0.0
C1200 C 0.08342 0.66105 0.16311 0.0
C1201 C 0.09373 0.65326 0.17866 0.0
C1202 C 0.06973 0.65219 0.12699 0.0
C1203 C 0.03864 0.60704 0.06392 0.0
H1204 H 0.03256 0.63636 0.97716 0.0
C1205 C 0.98742 0.599 0.89511 0.0
C1206 C 0.9705 0.58797 0.91168 0.0
C1207 C 1.00396 0.60551 0.92279 0.0
C1208 C 0.0342 0.62789 1.00059 0.0
H1209 H 0.09755 0.62986 0.16941 0.0
H1210 H 0.07336 0.61412 0.10622 0.0
H1211 H 0.05867 0.65073 0.0351 0.0
H1212 H 0.95777 0.57436 0.9695 0.0
H1213 H 0.98628 0.58561 0.01713 0.0
H1214 H 1.01408 0.58424 0.02965 0.0
C1215 C 0.07592 0.62716 0.12198 0.0
C1216 C 0.04905 0.63618 0.03423 0.0
C1217 C 0.08972 0.63611 0.1582 0.0
C1218 C 0.97053 0.58292 0.95561 0.0
C1219 C 0.98695 0.58926 0.98295 0.0
C1220 C 0.02376 0.59875 0.03033 0.0
C1221 C 0.06589 0.63521 0.10559 0.0
C1222 C 0.05122 0.62596 0.06701 0.0
C1223 C 1.00389 0.60093 0.96734 0.0
C1224 C 1.02109 0.60915 0.99887 0.0
H1225 H 0.08609 0.67417 0.17862 0.0
H1226 H 0.06203 0.65861 0.11605 0.0
H1227 H 0.03985 0.59874 0.08857 0.0
H1228 H 0.98786 0.60315 0.86148 0.0
H1229 H 1.01679 0.61436 0.90957 0.0
C1230 C 0.38279 0.43564 0.14672 0.0
C1231 C 0.39198 0.45404 0.16533 0.0
C1232 C 0.39057 0.42945 0.11524 0.0
C1233 C 0.42433 0.44407 0.03178 0.0
H1234 H 0.42229 0.398 0.04785 0.0
C1235 C 0.45834 0.39851 0.96707 0.0
C1236 C 0.45365 0.39516 0.92005 0.0
C1237 C 0.45158 0.40726 0.99431 0.0
C1238 C 0.42298 0.41089 0.0428 0.0
H1239 H 0.41657 0.48045 0.1654 0.0
H1240 H 0.43034 0.46957 0.11008 0.0
H1241 H 0.40928 0.41005 0.10114 0.0
H1242 H 0.43893 0.39952 0.8648 0.0
H1243 H 0.42721 0.41524 0.91299 0.0
H1244 H 0.4381 0.44471 0.97306 0.0
C1245 C 0.41701 0.45997 0.11984 0.0
C1246 C 0.41542 0.41776 0.07326 0.0
C1247 C 0.40924 0.46616 0.15185 0.0
C1248 C 0.44282 0.40186 0.9008 0.0
C1249 C 0.4361 0.41084 0.92838 0.0
C1250 C 0.43172 0.43702 1.00076 0.0
C1251 C 0.40777 0.44149 0.10127 0.0
C1252 C 0.41605 0.43447 0.0684 0.0
C1253 C 0.44 0.41312 0.97561 0.0
C1254 C 0.43129 0.42042 1.00625 0.0
H1255 H 0.36941 0.426 0.15625 0.0
H1256 H 0.38297 0.4152 0.10134 0.0
H1257 H 0.42491 0.4569 0.02684 0.0
H1258 H 0.46685 0.39385 0.98337 0.0
H1259 H 0.45513 0.4091 0.03042 0.0
C1260 C 0.06177 0.21716 0.5248 0.0
C1261 C 0.0577 0.22842 0.49963 0.0
C1262 C 0.07653 0.21466 0.51629 0.0
C1263 C 0.12121 0.23768 0.46935 0.0
H1264 H 0.12031 0.1922 0.48615 0.0
C1265 C 0.18683 0.23197 0.46234 0.0
C1266 C 0.19013 0.22321 0.49717 0.0
C1267 C 0.16965 0.23074 0.45432 0.0
C1268 C 0.12087 0.20505 0.48154 0.0
H1269 H 0.06552 0.24529 0.44437 0.0
H1270 H 0.0913 0.24083 0.42919 0.0
H1271 H 0.09208 0.19338 0.48699 0.0
H1272 H 0.17771 0.20554 0.54924 0.0
H1273 H 0.14796 0.20333 0.53536 0.0
H1274 H 0.15008 0.24947 0.46505 0.0
C1275 C 0.08317 0.23408 0.45595 0.0
C1276 C 0.10463 0.20573 0.48201 0.0
C1277 C 0.06828 0.2365 0.46433 0.0
C1278 C 0.1756 0.21242 0.52207 0.0
C1279 C 0.15847 0.21111 0.51396 0.0
C1280 C 0.13747 0.237 0.46892 0.0
C1281 C 0.08772 0.22339 0.4824 0.0
C1282 C 0.10461 0.22214 0.47684 0.0
C1283 C 0.15533 0.2206 0.48071 0.0
C1284 C 0.13763 0.22077 0.47593 0.0
H1285 H 0.05392 0.21078 0.5523 0.0
H1286 H 0.07964 0.20649 0.53773 0.0
H1287 H 0.12184 0.25063 0.46576 0.0
H1288 H 0.19775 0.24044 0.44262 0.0
H1289 H 0.1677 0.23803 0.42799 0.0
C1290 C 0.82507 0.97639 0.50053 0.0
C1291 C 0.81336 0.97999 0.47309 0.0
C1292 C 0.82596 0.96046 0.49132 0.0
C1293 C 0.79784 0.91297 0.43935 0.0
H1294 H 0.84312 0.91224 0.46195 0.0
C1295 C 0.79824 0.84437 0.4409 0.0
C1296 C 0.80904 0.84383 0.47784 0.0
C1297 C 0.80001 0.86113 0.43041 0.0
C1298 C 0.83031 0.91213 0.45564 0.0
H1299 H 0.79374 0.96983 0.4135 0.0
H1300 H 0.79521 0.94181 0.39744 0.0
H1301 H 0.84403 0.94147 0.46174 0.0
H1302 H 0.83083 0.86061 0.53108 0.0
H1303 H 0.83392 0.88948 0.513 0.0
H1304 H 0.78405 0.88363 0.43502 0.0
C1305 C 0.80373 0.95141 0.42616 0.0
C1306 C 0.83085 0.92894 0.45545 0.0
C1307 C 0.80304 0.96755 0.43507 0.0
C1308 C 0.82228 0.86048 0.50237 0.0
C1309 C 0.82413 0.87714 0.49179 0.0
C1310 C 0.79729 0.89611 0.43976 0.0
C1311 C 0.81499 0.94752 0.45465 0.0
C1312 C 0.81459 0.92962 0.44845 0.0
C1313 C 0.81274 0.87773 0.45635 0.0
C1314 C 0.81349 0.89546 0.44914 0.0
H1315 H 0.83318 0.98565 0.53014 0.0
H1316 H 0.83465 0.9579 0.51429 0.0
H1317 H 0.78503 0.91294 0.4342 0.0
H1318 H 0.78781 0.83178 0.42153 0.0
H1319 H 0.79114 0.86104 0.40257 0.0
C1320 C 0.05831 0.86114 0.51996 0.0
C1321 C 0.0537 0.84387 0.49865 0.0
C1322 C 0.07421 0.87708 0.51146 0.0
C1323 C 0.12037 0.89162 0.48065 0.0
H1324 H 0.12394 0.9386 0.46847 0.0
C1325 C 0.1907 0.95474 0.46561 0.0
C1326 C 0.19472 0.97179 0.48656 0.0
C1327 C 0.17273 0.93986 0.45992 0.0
C1328 C 0.12331 0.92568 0.47237 0.0
H1329 H 0.06201 0.82998 0.45048 0.0
H1330 H 0.08991 0.85779 0.43601 0.0
H1331 H 0.09392 0.91138 0.47131 0.0
H1332 H 0.18299 0.98685 0.51716 0.0
H1333 H 0.15156 0.9607 0.509 0.0
H1334 H 0.14957 0.90571 0.48417 0.0
C1335 C 0.08112 0.85898 0.45922 0.0
C1336 C 0.10601 0.91001 0.47372 0.0
C1337 C 0.06503 0.84305 0.46716 0.0
C1338 C 0.18022 0.9739 0.50025 0.0
C1339 C 0.16218 0.95882 0.49554 0.0
C1340 C 0.13763 0.90726 0.48004 0.0
C1341 C 0.08613 0.87616 0.48199 0.0
C1342 C 0.10432 0.89276 0.47788 0.0
C1343 C 0.15821 0.94138 0.47638 0.0
C1344 C 0.13947 0.92461 0.47582 0.0
H1345 H 0.04993 0.86228 0.5445 0.0
H1346 H 0.07765 0.89001 0.52978 0.0
H1347 H 0.11966 0.87867 0.48486 0.0
H1348 H 0.20163 0.95275 0.45466 0.0
H1349 H 0.17037 0.92701 0.44349 0.0
C1350 C 0.21975 0.17315 0.52742 0.0
C1351 C 0.23284 0.18989 0.55188 0.0
C1352 C 0.21885 0.1567 0.53644 0.0
C1353 C 0.24723 0.13825 0.5808 0.0
H1354 H 0.20041 0.09322 0.57528 0.0
C1355 C 0.24285 0.06744 0.58682 0.0
C1356 C 0.22953 0.05336 0.55514 0.0
C1357 C 0.24272 0.08391 0.59574 0.0
C1358 C 0.21364 0.10561 0.57664 0.0
H1359 H 0.25516 0.20233 0.60566 0.0
H1360 H 0.25372 0.17349 0.62121 0.0
H1361 H 0.20127 0.12236 0.57305 0.0
H1362 H 0.20511 0.04527 0.50983 0.0
H1363 H 0.20485 0.07358 0.52511 0.0
H1364 H 0.25959 0.12144 0.58265 0.0
C1365 C 0.24408 0.17316 0.59505 0.0
C1366 C 0.21412 0.12237 0.57547 0.0
C1367 C 0.2448 0.18967 0.58642 0.0
C1368 C 0.21557 0.05576 0.53456 0.0
C1369 C 0.21538 0.07208 0.54353 0.0
C1370 C 0.24675 0.12142 0.58165 0.0
C1371 C 0.23117 0.15646 0.56986 0.0
C1372 C 0.23088 0.1389 0.57654 0.0
C1373 C 0.22919 0.08663 0.57341 0.0
C1374 C 0.22991 0.10478 0.57852 0.0
H1375 H 0.21033 0.17277 0.50053 0.0
H1376 H 0.20887 0.1442 0.51599 0.0
H1377 H 0.26039 0.15066 0.58136 0.0
H1378 H 0.25394 0.06615 0.60292 0.0
H1379 H 0.25346 0.09466 0.6194 0.0
C1380 C 0.85142 0.07549 0.56206 0.0
C1381 C 0.85033 0.05896 0.54635 0.0
C1382 C 0.8685 0.09177 0.57013 0.0
C1383 C 0.90678 0.12541 0.59324 0.0
H1384 H 0.94252 0.12784 0.51482 0.0
C1385 C 0.97737 0.19276 0.58523 0.0
C1386 C 0.98354 0.19591 0.54227 0.0
C1387 C 0.96206 0.17585 0.59231 0.0
C1388 C 0.9327 0.12758 0.53676 0.0
H1389 H 0.86614 0.04616 0.52982 0.0
H1390 H 0.89588 0.07397 0.54729 0.0
H1391 H 0.91423 0.09938 0.51532 0.0
H1392 H 0.97802 0.18366 0.47301 0.0
H1393 H 0.95162 0.1551 0.48481 0.0
H1394 H 0.92502 0.15421 0.61196 0.0
C1395 C 0.8837 0.07485 0.55119 0.0
C1396 C 0.91643 0.11096 0.53781 0.0
C1397 C 0.86663 0.05874 0.54187 0.0
C1398 C 0.97399 0.18181 0.50682 0.0
C1399 C 0.95876 0.16518 0.5137 0.0
C1400 C 0.92302 0.14222 0.59156 0.0
C1401 C 0.88495 0.09185 0.56353 0.0
C1402 C 0.90301 0.10953 0.56564 0.0
C1403 C 0.95255 0.16177 0.55652 0.0
C1404 C 0.93607 0.14364 0.56254 0.0
H1405 H 0.83901 0.07608 0.56516 0.0
H1406 H 0.86862 0.10441 0.57913 0.0
H1407 H 0.8971 0.12499 0.61586 0.0
H1408 H 0.98431 0.20332 0.61329 0.0
H1409 H 0.9578 0.17378 0.62586 0.0
C1410 C 0.97595 0.81513 0.55371 0.0
C1411 C 0.97512 0.79866 0.56293 0.0
C1412 C 0.96078 0.81753 0.55913 0.0
C1413 C 0.91047 0.78818 0.55685 0.0
H1414 H 0.91012 0.83242 0.59689 0.0
C1415 C 0.84215 0.7842 0.5758 0.0
C1416 C 0.83908 0.79737 0.55717 0.0
C1417 C 0.85987 0.78695 0.58308 0.0
C1418 C 0.91002 0.82 0.58535 0.0
H1419 H 0.95865 0.77254 0.58838 0.0
H1420 H 0.93279 0.77695 0.59963 0.0
H1421 H 0.93943 0.83272 0.59812 0.0
H1422 H 0.85226 0.82426 0.53366 0.0
H1423 H 0.88353 0.82907 0.54582 0.0
H1424 H 0.88139 0.77542 0.54341 0.0
C1425 C 0.94469 0.78781 0.58681 0.0
C1426 C 0.92681 0.82017 0.58606 0.0
C1427 C 0.95961 0.78535 0.58088 0.0
C1428 C 0.85429 0.81398 0.5486 0.0
C1429 C 0.87217 0.81667 0.55541 0.0
C1430 C 0.89386 0.78801 0.55615 0.0
C1431 C 0.94465 0.80352 0.57403 0.0
C1432 C 0.92719 0.80412 0.57248 0.0
C1433 C 0.87507 0.80282 0.57104 0.0
C1434 C 0.89327 0.80378 0.57105 0.0
H1435 H 0.98768 0.82551 0.53927 0.0
H1436 H 0.96127 0.82982 0.54902 0.0
H1437 H 0.91017 0.77571 0.54463 0.0
H1438 H 0.83068 0.7713 0.5828 0.0
H1439 H 0.86155 0.7762 0.5964 0.0
C1440 C 0.85103 0.54787 0.80103 0.0
C1441 C 0.86661 0.56029 0.78135 0.0
C1442 C 0.83392 0.54612 0.78957 0.0
C1443 C 0.8129 0.5721 0.74613 0.0
H1444 H 0.76794 0.52609 0.75167 0.0
C1445 C 0.741 0.56634 0.73781 0.0
C1446 C 0.73088 0.5576 0.77324 0.0
C1447 C 0.75663 0.56532 0.72894 0.0
C1448 C 0.78036 0.53905 0.74993 0.0
H1449 H 0.87619 0.58015 0.73271 0.0
H1450 H 0.84606 0.57696 0.7121 0.0
H1451 H 0.79706 0.52664 0.75223 0.0
H1452 H 0.72874 0.54025 0.82562 0.0
H1453 H 0.75557 0.53815 0.80961 0.0
H1454 H 0.79606 0.5845 0.74457 0.0
C1455 C 0.84721 0.56869 0.73688 0.0
C1456 C 0.7971 0.53939 0.75038 0.0
C1457 C 0.86445 0.57038 0.74829 0.0
C1458 C 0.73621 0.54713 0.79807 0.0
C1459 C 0.75158 0.54587 0.78876 0.0
C1460 C 0.79608 0.57173 0.74532 0.0
C1461 C 0.83176 0.55673 0.758 0.0
C1462 C 0.81371 0.55601 0.74998 0.0
C1463 C 0.76224 0.55525 0.75475 0.0
C1464 C 0.77967 0.55527 0.74858 0.0
H1465 H 0.85214 0.53985 0.8266 0.0
H1466 H 0.82253 0.53697 0.80716 0.0
H1467 H 0.82535 0.58518 0.74613 0.0
H1468 H 0.73734 0.57463 0.7183 0.0
H1469 H 0.76449 0.57262 0.70235 0.0
C1470 C 0.46224 0.30364 0.75591 0.0
C1471 C 0.47515 0.31691 0.78972 0.0
C1472 C 0.46258 0.28746 0.74408 0.0
C1473 C 0.49221 0.26631 0.75534 0.0
H1474 H 0.44628 0.22046 0.75153 0.0
C1475 C 0.48884 0.19969 0.79978 0.0
C1476 C 0.47498 0.18265 0.77833 0.0
C1477 C 0.48951 0.21594 0.78998 0.0
C1478 C 0.4592 0.2331 0.75157 0.0
H1479 H 0.49902 0.32394 0.836 0.0
H1480 H 0.49974 0.29614 0.81532 0.0
H1481 H 0.44619 0.24933 0.75437 0.0
H1482 H 0.45125 0.16938 0.72847 0.0
H1483 H 0.4524 0.19792 0.71113 0.0
H1484 H 0.50529 0.2502 0.75401 0.0
C1485 C 0.48934 0.29807 0.79771 0.0
C1486 C 0.45915 0.2497 0.75322 0.0
C1487 C 0.48887 0.31403 0.80979 0.0
C1488 C 0.46224 0.18232 0.74517 0.0
C1489 C 0.46277 0.19865 0.73569 0.0
C1490 C 0.49226 0.24977 0.7537 0.0
C1491 C 0.47601 0.28435 0.76535 0.0
C1492 C 0.47571 0.26658 0.75647 0.0
C1493 C 0.47622 0.21566 0.7587 0.0
C1494 C 0.47582 0.23294 0.75313 0.0
H1495 H 0.45139 0.30537 0.74011 0.0
H1496 H 0.45217 0.27726 0.7188 0.0
H1497 H 0.5052 0.27899 0.75683 0.0
H1498 H 0.49882 0.20043 0.82564 0.0
H1499 H 0.49994 0.22866 0.80881 0.0
C1500 C 0.72595 0.19765 0.80165 0.0
C1501 C 0.72009 0.18023 0.77935 0.0
C1502 C 0.74111 0.21328 0.78934 0.0
C1503 C 0.78427 0.22775 0.73905 0.0
H1504 H 0.7866 0.27476 0.74579 0.0
C1505 C 0.85285 0.29581 0.72966 0.0
C1506 C 0.85647 0.30967 0.76391 0.0
C1507 C 0.83519 0.28024 0.7207 0.0
C1508 C 0.78624 0.26176 0.74382 0.0
H1509 H 0.72536 0.16569 0.72556 0.0
H1510 H 0.75201 0.19311 0.70405 0.0
H1511 H 0.75739 0.24693 0.75009 0.0
H1512 H 0.8442 0.31855 0.81372 0.0
H1513 H 0.81371 0.29186 0.79801 0.0
H1514 H 0.81329 0.2427 0.73445 0.0
C1515 C 0.7448 0.19461 0.7312 0.0
C1516 C 0.76945 0.24577 0.74628 0.0
C1517 C 0.72942 0.17892 0.74322 0.0
C1518 C 0.84187 0.30814 0.78704 0.0
C1519 C 0.8243 0.2928 0.77785 0.0
C1520 C 0.80112 0.24379 0.7367 0.0
C1521 C 0.75101 0.21198 0.75459 0.0
C1522 C 0.76831 0.22859 0.74522 0.0
C1523 C 0.82076 0.27838 0.74539 0.0
C1524 C 0.80244 0.26109 0.74038 0.0
H1525 H 0.71913 0.19919 0.82967 0.0
H1526 H 0.74556 0.22633 0.80852 0.0
H1527 H 0.78397 0.21479 0.73843 0.0
H1528 H 0.86386 0.2965 0.71158 0.0
H1529 H 0.83293 0.26948 0.69519 0.0
C1530 C 0.89049 0.50681 0.8089 0.0
C1531 C 0.90227 0.52254 0.83844 0.0
C1532 C 0.88827 0.48972 0.8169 0.0
C1533 C 0.913 0.46932 0.87119 0.0
H1534 H 0.86645 0.42413 0.84297 0.0
C1535 C 0.9081 0.3983 0.87158 0.0
C1536 C 0.89733 0.38565 0.83432 0.0
C1537 C 0.90722 0.41432 0.88099 0.0
C1538 C 0.8796 0.43659 0.85078 0.0
H1539 H 0.92047 0.53259 0.90059 0.0
H1540 H 0.91668 0.50269 0.9145 0.0
H1541 H 0.86754 0.45346 0.84267 0.0
H1542 H 0.87654 0.37938 0.77925 0.0
H1543 H 0.87503 0.40703 0.79521 0.0
H1544 H 0.92519 0.45251 0.87756 0.0
C1545 C 0.9092 0.5036 0.88499 0.0
C1546 C 0.88021 0.45344 0.85069 0.0
C1547 C 0.91126 0.5207 0.87723 0.0
C1548 C 0.88501 0.38886 0.80823 0.0
C1549 C 0.88409 0.40474 0.81761 0.0
C1550 C 0.91242 0.45245 0.87099 0.0
C1551 C 0.89791 0.48794 0.85449 0.0
C1552 C 0.89696 0.47004 0.85993 0.0
C1553 C 0.89545 0.41795 0.85349 0.0
C1554 C 0.89576 0.43583 0.85973 0.0
H1555 H 0.88342 0.5078 0.77869 0.0
H1556 H 0.8796 0.47804 0.79247 0.0
H1557 H 0.92617 0.48182 0.87807 0.0
H1558 H 0.91777 0.39624 0.89225 0.0
H1559 H 0.916 0.42403 0.90927 0.0
C1560 C 0.52344 0.40602 0.89099 0.0
C1561 C 0.51877 0.39209 0.85602 0.0
C1562 C 0.54126 0.4214 0.8978 0.0
C1563 C 0.58909 0.43944 0.86614 0.0
H1564 H 0.59197 0.48667 0.87951 0.0
C1565 C 0.64938 0.50471 0.81137 0.0
C1566 C 0.65531 0.5218 0.83555 0.0
C1567 C 0.63422 0.48881 0.82272 0.0
C1568 C 0.59153 0.47364 0.87659 0.0
H1569 H 0.5293 0.38285 0.80248 0.0
H1570 H 0.56015 0.40935 0.81435 0.0
H1571 H 0.56279 0.45883 0.88444 0.0
H1572 H 0.65037 0.53552 0.89187 0.0
H1573 H 0.62382 0.50767 0.9119 0.0
H1574 H 0.61768 0.45419 0.85695 0.0
C1575 C 0.55025 0.40856 0.83676 0.0
C1576 C 0.57474 0.45761 0.87947 0.0
C1577 C 0.53251 0.39334 0.82982 0.0
C1578 C 0.64615 0.52254 0.8726 0.0
C1579 C 0.63084 0.5066 0.88382 0.0
C1580 C 0.60584 0.45543 0.86321 0.0
C1581 C 0.55481 0.42307 0.87006 0.0
C1582 C 0.57317 0.44024 0.8732 0.0
C1583 C 0.62448 0.48954 0.85853 0.0
C1584 C 0.60722 0.47274 0.86731 0.0
H1585 H 0.51312 0.4055 0.91158 0.0
H1586 H 0.5443 0.43219 0.92412 0.0
H1587 H 0.58855 0.42637 0.86205 0.0
H1588 H 0.65612 0.50369 0.78259 0.0
H1589 H 0.62968 0.47604 0.8021 0.0
C1590 C 0.64393 0.15406 0.84306 0.0
C1591 C 0.64363 0.13823 0.856 0.0
C1592 C 0.62915 0.15691 0.85007 0.0
C1593 C 0.57949 0.12859 0.86191 0.0
H1594 H 0.58067 0.17466 0.88698 0.0
C1595 C 0.51262 0.12758 0.88327 0.0
C1596 C 0.50916 0.13955 0.85972 0.0
C1597 C 0.53034 0.13029 0.88999 0.0
C1598 C 0.58012 0.1617 0.87974 0.0
H1599 H 0.62855 0.1138 0.88925 0.0
H1600 H 0.60348 0.11914 0.90353 0.0
H1601 H 0.60958 0.17431 0.88619 0.0
H1602 H 0.52168 0.16432 0.82649 0.0
H1603 H 0.55291 0.16905 0.83774 0.0
H1604 H 0.55031 0.11591 0.85467 0.0
C1605 C 0.61461 0.12909 0.8866 0.0
C1606 C 0.5967 0.16149 0.87927 0.0
C1607 C 0.62913 0.12613 0.87902 0.0
C1608 C 0.52404 0.15507 0.84549 0.0
C1609 C 0.5419 0.15769 0.85174 0.0
C1610 C 0.56308 0.12879 0.86244 0.0
C1611 C 0.61391 0.14402 0.87031 0.0
C1612 C 0.59659 0.14485 0.87084 0.0
C1613 C 0.54512 0.14485 0.8724 0.0
C1614 C 0.56307 0.14527 0.87186 0.0
H1615 H 0.65482 0.16344 0.82454 0.0
H1616 H 0.62913 0.16856 0.83705 0.0
H1617 H 0.5787 0.11556 0.85369 0.0
H1618 H 0.50137 0.11547 0.8944 0.0
H1619 H 0.5323 0.12039 0.90717 0.0
C1620 C 0.51803 0.88868 0.16976 0.0
C1621 C 0.53159 0.90137 0.14551 0.0
C1622 C 0.49991 0.88511 0.16308 0.0
C1623 C 0.47418 0.9074 0.1189 0.0
H1624 H 0.43251 0.86397 0.15363 0.0
C1625 C 0.4028 0.90124 0.12591 0.0
C1626 C 0.39732 0.89855 0.16948 0.0
C1627 C 0.41694 0.8982 0.11356 0.0
C1628 C 0.444 0.87612 0.14343 0.0
H1629 H 0.53683 0.91955 0.09368 0.0
H1630 H 0.5051 0.91239 0.07932 0.0
H1631 H 0.46148 0.86459 0.14744 0.0
H1632 H 0.40141 0.88964 0.23324 0.0
H1633 H 0.42536 0.88355 0.21113 0.0
H1634 H 0.45652 0.9188 0.11481 0.0
C1635 C 0.50835 0.90566 0.10493 0.0
C1636 C 0.46073 0.87659 0.14029 0.0
C1637 C 0.52653 0.90954 0.11246 0.0
C1638 C 0.40529 0.89165 0.19929 0.0
C1639 C 0.41899 0.88816 0.18663 0.0
C1640 C 0.45736 0.90676 0.12115 0.0
C1641 C 0.49487 0.894 0.13149 0.0
C1642 C 0.47628 0.89244 0.12917 0.0
C1643 C 0.42544 0.89198 0.14421 0.0
C1644 C 0.44221 0.8913 0.13454 0.0
H1645 H 0.52172 0.88255 0.19623 0.0
H1646 H 0.49021 0.87624 0.18479 0.0
H1647 H 0.48573 0.92005 0.11113 0.0
H1648 H 0.39708 0.90685 0.1026 0.0
H1649 H 0.42165 0.90127 0.08064 0.0
C1650 C 0.1648 0.65178 0.17435 0.0
C1651 C 0.15088 0.65469 0.15581 0.0
C1652 C 0.16488 0.6356 0.1621 0.0
C1653 C 0.13324 0.58702 0.11994 0.0
H1654 H 0.17851 0.58588 0.11881 0.0
C1655 C 0.13416 0.51837 0.10748 0.0
C1656 C 0.14694 0.51806 0.13936 0.0
C1657 C 0.135 0.53501 0.0998 0.0
C1658 C 0.16572 0.58591 0.11909 0.0
H1659 H 0.12642 0.64301 0.10838 0.0
H1660 H 0.12661 0.61469 0.08657 0.0
H1661 H 0.17943 0.61517 0.12186 0.0
H1662 H 0.17111 0.53513 0.18647 0.0
H1663 H 0.17268 0.56385 0.17285 0.0
H1664 H 0.1196 0.55772 0.11827 0.0
C1665 C 0.13744 0.62496 0.11093 0.0
C1666 C 0.16624 0.60275 0.12088 0.0
C1667 C 0.13746 0.64131 0.12297 0.0
C1668 C 0.16103 0.53482 0.16167 0.0
C1669 C 0.16199 0.55137 0.15366 0.0
C1670 C 0.13271 0.57013 0.11805 0.0
C1671 C 0.15096 0.62172 0.13106 0.0
C1672 C 0.15007 0.60362 0.12257 0.0
C1673 C 0.14879 0.55172 0.12334 0.0
C1674 C 0.149 0.56937 0.11883 0.0
H1675 H 0.17531 0.66174 0.19986 0.0
H1676 H 0.1754 0.63363 0.17882 0.0
H1677 H 0.12051 0.58708 0.12159 0.0
H1678 H 0.12304 0.5057 0.09001 0.0
H1679 H 0.12468 0.53475 0.07595 0.0
C1680 C 0.51543 0.64819 0.15537 0.0
C1681 C 0.52997 0.64573 0.14373 0.0
C1682 C 0.49726 0.63336 0.14889 0.0
C1683 C 0.46699 0.58604 0.09118 0.0
H1684 H 0.44162 0.57756 0.19834 0.0
C1685 C 0.40571 0.5146 0.11814 0.0
C1686 C 0.39264 0.51377 0.14621 0.0
C1687 C 0.42099 0.53155 0.11187 0.0
C1688 C 0.44819 0.57976 0.16758 0.0
H1689 H 0.53689 0.62631 0.11396 0.0
H1690 H 0.50539 0.60077 0.10143 0.0
H1691 H 0.47032 0.60599 0.1963 0.0
H1692 H 0.38475 0.53014 0.18729 0.0
H1693 H 0.41065 0.55953 0.17469 0.0
H1694 H 0.44492 0.55981 0.0624 0.0
C1695 C 0.50783 0.61396 0.11572 0.0
C1696 C 0.46477 0.59617 0.16653 0.0
C1697 C 0.52591 0.62861 0.12291 0.0
C1698 C 0.39464 0.53029 0.16571 0.0
C1699 C 0.40969 0.54719 0.15886 0.0
C1700 C 0.45027 0.56969 0.092 0.0
C1701 C 0.49331 0.61593 0.12994 0.0
C1702 C 0.47456 0.59943 0.12862 0.0
C1703 C 0.42346 0.54813 0.13304 0.0
C1704 C 0.4407 0.56613 0.13051 0.0
H1705 H 0.51819 0.66117 0.17203 0.0
H1706 H 0.48638 0.63539 0.15994 0.0
H1707 H 0.4741 0.58815 0.06126 0.0
H1708 H 0.4047 0.50211 0.10313 0.0
H1709 H 0.43128 0.53152 0.09209 0.0
C1710 C 0.54732 0.72526 0.22051 0.0
C1711 C 0.56293 0.72448 0.23594 0.0
C1712 C 0.54665 0.74135 0.22858 0.0
C1713 C 0.56934 0.78833 0.28995 0.0
H1714 H 0.55164 0.79899 0.17977 0.0
C1715 C 0.57938 0.86055 0.2585 0.0
C1716 C 0.56587 0.86079 0.22911 0.0
C1717 C 0.57811 0.8438 0.26712 0.0
C1718 C 0.55631 0.79621 0.21124 0.0
H1719 H 0.58967 0.73966 0.27442 0.0
H1720 H 0.58857 0.76799 0.28845 0.0
H1721 H 0.55088 0.77013 0.18203 0.0
H1722 H 0.53981 0.8438 0.18873 0.0
H1723 H 0.5371 0.81483 0.20533 0.0
H1724 H 0.57494 0.81475 0.31883 0.0
C1725 C 0.57674 0.75603 0.27046 0.0
C1726 C 0.5559 0.77954 0.2125 0.0
C1727 C 0.57733 0.73976 0.26268 0.0
C1728 C 0.55048 0.84404 0.21133 0.0
C1729 C 0.54907 0.82741 0.22045 0.0
C1730 C 0.56968 0.80511 0.28876 0.0
C1731 C 0.5617 0.75725 0.25175 0.0
C1732 C 0.56225 0.77523 0.25187 0.0
C1733 C 0.56324 0.827 0.24678 0.0
C1734 C 0.56301 0.80922 0.24938 0.0
H1735 H 0.536 0.71371 0.19987 0.0
H1736 H 0.53463 0.74157 0.21469 0.0
H1737 H 0.57438 0.7855 0.32083 0.0
H1738 H 0.59153 0.87327 0.27219 0.0
H1739 H 0.58932 0.8441 0.28752 0.0
C1740 C 0.31189 0.86232 0.24583 0.0
C1741 C 0.32385 0.86227 0.21531 0.0
C1742 C 0.29677 0.84582 0.25498 0.0
C1743 C 0.26753 0.79709 0.20442 0.0
H1744 H 0.2445 0.79179 0.31486 0.0
C1745 C 0.19992 0.73117 0.22899 0.0
C1746 C 0.18605 0.73482 0.23998 0.0
C1747 C 0.21832 0.74542 0.23313 0.0
C1748 C 0.25084 0.79304 0.2839 0.0
H1749 H 0.33006 0.84485 0.17286 0.0
H1750 H 0.30447 0.81617 0.19053 0.0
H1751 H 0.27403 0.81913 0.30898 0.0
H1752 H 0.18054 0.75577 0.2664 0.0
H1753 H 0.21256 0.78039 0.27506 0.0
H1754 H 0.2443 0.77095 0.17955 0.0
C1755 C 0.30613 0.82887 0.20604 0.0
C1756 C 0.26773 0.80881 0.2803 0.0
C1757 C 0.32099 0.84535 0.19622 0.0
C1758 C 0.19101 0.75259 0.25793 0.0
C1759 C 0.20935 0.76668 0.26293 0.0
C1760 C 0.25082 0.78123 0.20831 0.0
C1761 C 0.2934 0.82881 0.23441 0.0
C1762 C 0.2762 0.81127 0.24015 0.0
C1763 C 0.22316 0.76343 0.24923 0.0
C1764 C 0.24209 0.77915 0.24775 0.0
H1765 H 0.31361 0.87515 0.26069 0.0
H1766 H 0.28729 0.84653 0.27658 0.0
H1767 H 0.27323 0.79847 0.17253 0.0
H1768 H 0.19645 0.71763 0.21462 0.0
H1769 H 0.22869 0.74247 0.2225 0.0
C1770 C 0.31411 0.48589 0.15158 0.0
C1771 C 0.31922 0.47705 0.18257 0.0
C1772 C 0.30011 0.48964 0.1589 0.0
C1773 C 0.26798 0.48957 0.23947 0.0
H1774 H 0.23636 0.47755 0.12824 0.0
C1775 C 0.19252 0.4775 0.22155 0.0
C1776 C 0.18757 0.48308 0.18237 0.0
C1777 C 0.21018 0.47972 0.22927 0.0
C1778 C 0.24512 0.48125 0.1596 0.0
H1779 H 0.31434 0.46593 0.24677 0.0
H1780 H 0.28927 0.47207 0.25934 0.0
H1781 H 0.26412 0.47599 0.12776 0.0
H1782 H 0.19741 0.49663 0.12276 0.0
H1783 H 0.22818 0.50127 0.13703 0.0
H1784 H 0.24831 0.49438 0.27118 0.0
C1785 C 0.29641 0.47647 0.2297 0.0
C1786 C 0.26116 0.48038 0.15933 0.0
C1787 C 0.3108 0.47302 0.22266 0.0
C1788 C 0.20092 0.49229 0.15333 0.0
C1789 C 0.21848 0.49472 0.16125 0.0
C1790 C 0.25171 0.49039 0.23976 0.0
C1791 C 0.29037 0.48414 0.19684 0.0
C1792 C 0.27304 0.48482 0.19898 0.0
C1793 C 0.22307 0.4876 0.19793 0.0
C1794 C 0.24024 0.48652 0.19955 0.0
H1795 H 0.32041 0.48916 0.12042 0.0
H1796 H 0.29632 0.49611 0.13353 0.0
H1797 H 0.27673 0.49299 0.27069 0.0
H1798 H 0.18232 0.47003 0.24399 0.0
H1799 H 0.21324 0.47408 0.25786 0.0
C1800 C 0.03043 0.2288 0.1685 0.0
C1801 C 0.03029 0.24238 0.19779 0.0
C1802 C 0.03336 0.23137 0.12332 0.0
C1803 C 0.03003 0.2583 0.03388 0.0
H1804 H 0.05755 0.24037 0.9704 0.0
C1805 C 0.04695 0.2739 0.85211 0.0
C1806 C 0.04528 0.25964 0.82183 0.0
C1807 C 0.04583 0.27201 0.89809 0.0
C1808 C 0.04967 0.24529 0.98752 0.0
H1809 H 0.03355 0.26954 0.2023 0.0
H1810 H 0.03913 0.27421 0.12397 0.0
H1811 H 0.05489 0.2371 0.05053 0.0
H1812 H 0.04136 0.23222 0.81665 0.0
H1813 H 0.03918 0.22882 0.89694 0.0
H1814 H 0.02477 0.26646 0.97097 0.0
C1815 C 0.03665 0.26141 0.13576 0.0
C1816 C 0.04814 0.24343 0.03352 0.0
C1817 C 0.0337 0.25883 0.18094 0.0
C1818 C 0.04257 0.24344 0.8389 0.0
C1819 C 0.04151 0.24156 0.88503 0.0
C1820 C 0.03158 0.2602 0.98799 0.0
C1821 C 0.03626 0.24761 0.10615 0.0
C1822 C 0.03829 0.24991 0.05734 0.0
C1823 C 0.04302 0.2558 0.91519 0.0
C1824 C 0.04141 0.25372 0.96416 0.0
H1825 H 0.02809 0.21605 0.18037 0.0
H1826 H 0.03284 0.22038 0.10155 0.0
H1827 H 0.02201 0.26312 0.05078 0.0
H1828 H 0.0488 0.28648 0.84019 0.0
H1829 H 0.04726 0.28334 0.92033 0.0
C1830 C 0.80211 0.78823 0.19748 0.0
C1831 C 0.78711 0.7859 0.2202 0.0
C1832 C 0.80244 0.79067 0.15166 0.0
C1833 C 0.77187 0.78263 0.04795 0.0
H1834 H 0.81761 0.81526 1.00118 0.0
C1835 C 0.77591 0.79953 0.86216 0.0
C1836 C 0.79072 0.8006 0.84067 0.0
C1837 C 0.77511 0.79766 0.90829 0.0
C1838 C 0.80475 0.80594 0.01359 0.0
H1839 H 0.76079 0.78458 0.21226 0.0
H1840 H 0.76154 0.78921 0.13243 0.0
H1841 H 0.81702 0.81294 0.08188 0.0
H1842 H 0.81628 0.80048 0.85113 0.0
H1843 H 0.81479 0.79703 0.93138 0.0
H1844 H 0.75962 0.77569 0.9795 0.0
C1845 C 0.77295 0.78889 0.15002 0.0
C1846 C 0.8044 0.8046 0.05996 0.0
C1847 C 0.77262 0.78646 0.19598 0.0
C1848 C 0.80459 0.79952 0.86643 0.0
C1849 C 0.80384 0.79776 0.9126 0.0
C1850 C 0.77221 0.78401 1.00154 0.0
C1851 C 0.78781 0.79088 0.12714 0.0
C1852 C 0.78799 0.79284 0.07781 0.0
C1853 C 0.78917 0.79694 0.93423 0.0
C1854 C 0.78868 0.7956 0.98371 0.0
H1855 H 0.81363 0.78812 0.21511 0.0
H1856 H 0.81404 0.79197 0.13525 0.0
H1857 H 0.75903 0.77322 0.06029 0.0
H1858 H 0.76492 0.80015 0.84328 0.0
H1859 H 0.76366 0.79717 0.92384 0.0
C1860 C 0.24752 1.01153 0.16921 0.0
C1861 C 0.23621 0.01758 0.18709 0.0
C1862 C 0.24977 1.01161 0.1232 0.0
C1863 C 0.2278 1.01242 0.01282 0.0
H1864 H 0.27565 0.02757 0.97303 0.0
C1865 C 0.24168 0.02333 0.82692 0.0
C1866 C 0.25283 0.01714 0.80877 0.0
C1867 C 0.23985 0.02365 0.87312 0.0
C1868 C 0.26214 0.02311 0.98352 0.0
H1869 H 0.21886 0.02899 0.17053 0.0
H1870 H 0.22272 0.02908 0.09063 0.0
H1871 H 0.27212 0.02742 0.05332 0.0
H1872 H 0.27053 1.0061 0.82518 0.0
H1873 H 0.26737 1.00668 0.90546 0.0
H1874 H 0.2178 1.00807 0.94307 0.0
C1875 C 0.22958 0.02393 0.11195 0.0
C1876 C 0.26012 0.02302 0.0296 0.0
C1877 C 0.22736 0.02386 0.15785 0.0
C1878 C 0.26211 1.0113 0.83803 0.0
C1879 C 0.26028 1.01162 0.88416 0.0
C1880 C 0.22982 1.01251 0.96676 0.0
C1881 C 0.24076 0.01775 0.09395 0.0
C1882 C 0.24293 0.01769 0.04486 0.0
C1883 C 0.24911 0.01777 0.90234 0.0
C1884 C 0.24701 0.01786 0.95148 0.0
H1885 H 0.25439 1.00642 0.19062 0.0
H1886 H 0.25831 1.00656 0.11041 0.0
H1887 H 0.21429 1.00796 0.02329 0.0
H1888 H 0.23451 0.02815 0.80551 0.0
H1889 H 0.23133 0.02872 0.88603 0.0
C1890 C 0.03858 0.80031 0.88652 0.0
C1891 C 0.02477 0.80105 0.85956 0.0
C1892 C 0.03729 0.79829 0.93248 0.0
C1893 C 1.0149 0.80546 0.02786 0.0
H1894 H 0.02925 0.77407 0.08569 0.0
C1895 C 1.00034 0.78779 0.20995 0.0
C1896 C 1.01348 0.78625 0.23765 0.0
C1897 C 1.00228 0.79013 0.16435 0.0
C1898 C 0.02543 0.78311 0.07025 0.0
H1899 H 0.99865 0.80009 0.86002 0.0
H1900 H 0.99627 0.79632 0.93999 0.0
H1901 H 0.03112 0.77649 1.00513 0.0
H1902 H 0.03915 0.78624 0.23886 0.0
H1903 H 0.04274 0.7907 0.15942 0.0
H1904 H 1.00925 0.81213 0.09288 0.0
C1905 C 1.00821 0.79748 0.92565 0.0
C1906 C 0.02646 0.78446 0.02397 0.0
C1907 C 1.00947 0.79941 0.87963 0.0
C1908 C 0.02883 0.7875 0.21866 0.0
C1909 C 0.03077 0.78983 0.17293 0.0
C1910 C 1.01391 0.80415 0.07413 0.0
C1911 C 0.02218 0.79704 0.95277 0.0
C1912 C 1.02113 0.79559 1.00211 0.0
C1913 C 1.01744 0.79103 0.14506 0.0
C1914 C 1.01908 0.79289 0.09596 0.0
H1915 H 0.05047 0.80135 0.87211 0.0
H1916 H 0.04835 0.79812 0.95233 0.0
H1917 H 1.01101 0.81444 0.01237 0.0
H1918 H 0.98845 0.78712 0.2235 0.0
H1919 H 0.99164 0.79083 0.14399 0.0
C1920 C 0.22797 0.2185 0.16083 0.0
C1921 C 0.22766 0.23137 0.19231 0.0
C1922 C 0.2281 0.22077 0.11493 0.0
C1923 C 0.21804 0.245 0.02821 0.0
H1924 H 0.24962 0.23384 0.96075 0.0
C1925 C 0.23225 0.26343 0.84549 0.0
C1926 C 0.23391 0.25105 0.81528 0.0
C1927 C 0.23066 0.26072 0.89109 0.0
C1928 C 0.24052 0.23678 0.97884 0.0
H1929 H 0.22694 0.25664 0.19962 0.0
H1930 H 0.22743 0.26076 0.11946 0.0
H1931 H 0.24853 0.22993 0.0406 0.0
H1932 H 0.23495 0.22591 0.80977 0.0
H1933 H 0.23173 0.22096 0.88882 0.0
H1934 H 0.21007 0.25189 0.9663 0.0
C1935 C 0.22741 0.24879 0.13039 0.0
C1936 C 0.23991 0.23456 0.02477 0.0
C1937 C 0.22732 0.24653 0.17645 0.0
C1938 C 0.23353 0.23566 0.83181 0.0
C1939 C 0.23193 0.23295 0.87739 0.0
C1940 C 0.21864 0.24721 0.98217 0.0
C1941 C 0.22794 0.236 0.09905 0.0
C1942 C 0.22864 0.23859 0.05011 0.0
C1943 C 0.23068 0.24555 0.90779 0.0
C1944 C 0.22986 0.2431 0.95682 0.0
H1945 H 0.22851 0.20679 0.1717 0.0
H1946 H 0.22827 0.21051 0.09181 0.0
H1947 H 0.20903 0.24802 0.04648 0.0
H1948 H 0.23226 0.27532 0.83395 0.0
H1949 H 0.22985 0.27079 0.91345 0.0
C1950 C 0.77838 0.01592 0.1831 0.0
C1951 C 0.79389 0.02144 0.214 0.0
C1952 C 0.77965 0.01498 0.13677 0.0
C1953 C 0.81332 0.03337 0.05381 0.0
H1954 H 0.77453 0.9938 0.97189 0.0
C1955 C 0.82051 0.02242 0.86529 0.0
C1956 C 0.80506 0.01689 0.8342 0.0
C1957 C 0.81916 0.02338 0.91157 0.0
C1958 C 0.78538 1.00507 0.99426 0.0
H1959 H 0.82285 0.03009 0.22031 0.0
H1960 H 0.82499 0.02813 0.13944 0.0
H1961 H 0.77214 0.99402 0.05269 0.0
H1962 H 0.7761 1.00823 0.82749 0.0
H1963 H 0.77381 1.01023 0.9083 0.0
H1964 H 0.82656 0.04442 0.99539 0.0
C1965 C 0.81189 0.02474 0.15109 0.0
C1966 C 0.78402 1.00518 0.04059 0.0
C1967 C 0.81061 0.02564 0.19744 0.0
C1968 C 0.7883 1.01269 0.85051 0.0
C1969 C 0.78693 1.01361 0.89683 0.0
C1970 C 0.81468 0.03326 1.00749 0.0
C1971 C 0.79646 0.01957 0.1202 0.0
C1972 C 0.79798 0.01932 0.07093 0.0
C1973 C 0.80231 0.01881 0.92791 0.0
C1974 C 0.80073 0.01911 0.97715 0.0
H1975 H 0.76525 1.01241 0.19474 0.0
H1976 H 0.76753 1.01108 0.11394 0.0
H1977 H 0.82417 0.04464 0.07618 0.0
H1978 H 0.83368 0.02594 0.85384 0.0
H1979 H 0.83124 0.02729 0.93455 0.0
C1980 C 0.71662 0.58684 0.16667 0.0
C1981 C 0.70249 0.57373 0.1347 0.0
C1982 C 0.71433 0.58692 0.21263 0.0
C1983 C 0.68665 0.55702 0.2964 0.0
H1984 H 0.70593 0.60286 0.37226 0.0
C1985 C 0.67036 0.55975 0.48093 0.0
C1986 C 0.68437 0.57283 0.5132 0.0
C1987 C 0.67277 0.55984 0.43506 0.0
C1988 C 0.70066 0.58993 0.35172 0.0
H1989 H 0.67477 0.55044 0.12644 0.0
H1990 H 0.67067 0.55076 0.20646 0.0
H1991 H 0.70939 0.60322 0.29195 0.0
H1992 H 0.712 0.59625 0.52208 0.0
H1993 H 0.71634 0.59623 0.44213 0.0
H1994 H 0.67793 0.54372 0.35613 0.0
C1995 C 0.68363 0.56089 0.19599 0.0
C1996 C 0.70262 0.59013 0.30556 0.0
C1997 C 0.6859 0.56084 0.14997 0.0
C1998 C 0.70096 0.58588 0.49829 0.0
C1999 C 0.70337 0.586 0.45232 0.0
C2000 C 0.68469 0.55681 0.34255 0.0
C2001 C 0.69785 0.57387 0.22801 0.0
C2002 C 0.69563 0.57368 0.27722 0.0
C2003 C 0.68927 0.57302 0.42003 0.0
C2004 C 0.69164 0.57326 0.37089 0.0
H2005 H 0.7295 0.59712 0.15619 0.0
H2006 H 0.72565 0.59704 0.23621 0.0
H2007 H 0.68137 0.54408 0.27587 0.0
H2008 H 0.65748 0.54934 0.49111 0.0
H2009 H 0.66154 0.54973 0.41129 0.0
C2010 C 0.44205 0.12572 0.4983 0.0
C2011 C 0.45624 0.12454 0.52217 0.0
C2012 C 0.44239 0.1282 0.45234 0.0
C2013 C 0.47372 0.1431 0.36179 0.0
H2014 H 0.42861 0.11587 0.2817 0.0
C2015 C 0.47354 0.13909 0.16791 0.0
C2016 C 0.45985 0.14063 0.14267 0.0
C2017 C 0.47283 0.13711 0.21402 0.0
C2018 C 0.44131 0.12373 0.30362 0.0
H2019 H 0.48225 0.1257 0.51633 0.0
H2020 H 0.48267 0.12964 0.43652 0.0
H2021 H 0.42802 0.11307 0.36235 0.0
H2022 H 0.43436 0.14075 0.14632 0.0
H2023 H 0.4332 0.13745 0.2267 0.0
H2024 H 0.48704 0.15366 0.30306 0.0
C2025 C 0.47129 0.12878 0.45321 0.0
C2026 C 0.44097 0.12216 0.34998 0.0
C2027 C 0.47094 0.12629 0.49902 0.0
C2028 C 0.44524 0.1398 0.16471 0.0
C2029 C 0.44448 0.13772 0.21079 0.0
C2030 C 0.47407 0.14464 0.31546 0.0
C2031 C 0.45697 0.12964 0.42905 0.0
C2032 C 0.45719 0.13176 0.37974 0.0
C2033 C 0.45836 0.13652 0.23619 0.0
C2034 C 0.45789 0.13492 0.28567 0.0
H2035 H 0.43044 0.12431 0.51486 0.0
H2036 H 0.43121 0.12902 0.43507 0.0
H2037 H 0.48645 0.15098 0.38361 0.0
H2038 H 0.48509 0.13985 0.15226 0.0
H2039 H 0.48364 0.13599 0.2323 0.0
C2040 C 0.90999 0.35611 0.1551 0.0
C2041 C 0.90555 0.33957 0.13009 0.0
C2042 C 0.9121 0.35773 0.20215 0.0
C2043 C 0.89891 0.32966 0.29756 0.0
H2044 H 0.93691 0.37437 0.36672 0.0
C2045 C 0.9145 0.33604 0.49104 0.0
C2046 C 0.91851 0.35259 0.5153 0.0
C2047 C 0.9127 0.33421 0.44396 0.0
C2048 C 0.9261 0.36186 0.34788 0.0
H2049 H 0.90058 0.31202 0.13475 0.0
H2050 H 0.90437 0.31489 0.21682 0.0
H2051 H 0.93487 0.37185 0.28473 0.0
H2052 H 0.923 0.37989 0.5092 0.0
H2053 H 0.9198 0.37666 0.42717 0.0
H2054 H 0.89014 0.31968 0.36075 0.0
C2055 C 0.90584 0.32648 0.20011 0.0
C2056 C 0.92494 0.36042 0.30089 0.0
C2057 C 0.9037 0.32485 0.15311 0.0
C2058 C 0.92024 0.36708 0.49148 0.0
C2059 C 0.91844 0.36525 0.44449 0.0
C2060 C 0.90008 0.33109 0.34455 0.0
C2061 C 0.90985 0.34287 0.2252 0.0
C2062 C 0.91131 0.34432 0.27518 0.0
C2063 C 0.91486 0.34887 0.42018 0.0
C2064 C 0.91365 0.34723 0.37024 0.0
H2065 H 0.91128 0.36762 0.13834 0.0
H2066 H 0.91497 0.37048 0.22047 0.0
H2067 H 0.88806 0.31717 0.27873 0.0
H2068 H 0.9133 0.3247 0.50845 0.0
H2069 H 0.91011 0.32147 0.42621 0.0
C2070 C 0.70569 0.13733 0.17267 0.0
C2071 C 0.69262 0.13917 0.14543 0.0
C2072 C 0.70403 0.13523 0.21856 0.0
C2073 C 0.68197 0.14353 0.31376 0.0
H2074 H 0.69391 0.11039 0.37115 0.0
C2075 C 0.66551 0.12548 0.49509 0.0
C2076 C 0.67797 0.12306 0.52314 0.0
C2077 C 0.66783 0.12789 0.44959 0.0
C2078 C 0.69075 0.11991 0.35588 0.0
H2079 H 0.66746 0.14013 0.14563 0.0
H2080 H 0.6644 0.13617 0.2253 0.0
H2081 H 0.69654 0.11321 0.29093 0.0
H2082 H 0.70285 0.12152 0.52486 0.0
H2083 H 0.70711 0.12609 0.44569 0.0
H2084 H 0.6762 0.15026 0.3786 0.0
C2085 C 0.67608 0.13655 0.21126 0.0
C2086 C 0.69224 0.1215 0.30973 0.0
C2087 C 0.6777 0.13859 0.16533 0.0
C2088 C 0.69304 0.12347 0.50446 0.0
C2089 C 0.69535 0.12586 0.45883 0.0
C2090 C 0.68051 0.14196 0.35987 0.0
C2091 C 0.68928 0.13497 0.23864 0.0
C2092 C 0.68779 0.13329 0.28794 0.0
C2093 C 0.68271 0.128 0.43064 0.0
C2094 C 0.6848 0.13006 0.38162 0.0
H2095 H 0.71726 0.13752 0.15851 0.0
H2096 H 0.71454 0.13419 0.23851 0.0
H2097 H 0.67876 0.15301 0.29845 0.0
H2098 H 0.65387 0.12549 0.50829 0.0
H2099 H 0.65769 0.12931 0.42904 0.0
C2100 C 0.90003 0.54789 0.16826 0.0
C2101 C 0.91555 0.55965 0.14733 0.0
C2102 C 0.9015 0.54635 0.21443 0.0
C2103 C 0.93497 0.55578 0.31323 0.0
H2104 H 0.89796 0.55703 0.38132 0.0
C2105 C 0.94583 0.57271 0.50631 0.0
C2106 C 0.93075 0.56383 0.53129 0.0
C2107 C 0.94351 0.57012 0.45928 0.0
C2108 C 0.90826 0.55636 0.36283 0.0
H2109 H 0.94493 0.57845 0.15845 0.0
H2110 H 0.94744 0.57598 0.23902 0.0
H2111 H 0.89484 0.55622 0.29965 0.0
H2112 H 0.90142 0.54487 0.52607 0.0
H2113 H 0.89742 0.54004 0.44388 0.0
H2114 H 0.94851 0.55616 0.3765 0.0
C2115 C 0.93414 0.56785 0.21969 0.0
C2116 C 0.90648 0.5559 0.3159 0.0
C2117 C 0.93266 0.56942 0.17353 0.0
C2118 C 0.91335 0.55186 0.50796 0.0
C2119 C 0.91103 0.54925 0.4608 0.0
C2120 C 0.93674 0.5562 0.36016 0.0
C2121 C 0.91853 0.55649 0.24085 0.0
C2122 C 0.91991 0.55582 0.29053 0.0
C2123 C 0.92605 0.55852 0.43584 0.0
C2124 C 0.92352 0.55673 0.38564 0.0
H2125 H 0.8866 0.5403 0.14928 0.0
H2126 H 0.88925 0.5373 0.22951 0.0
H2127 H 0.94541 0.55543 0.2947 0.0
H2128 H 0.95948 0.5818 0.52313 0.0
H2129 H 0.95538 0.57763 0.44129 0.0
C2130 C 0.47687 0.37937 0.18331 0.0
C2131 C 0.48298 0.36818 0.16311 0.0
C2132 C 0.47692 0.38144 0.23016 0.0
C2133 C 0.47791 0.35862 0.33203 0.0
H2134 H 0.48733 0.4042 0.39597 0.0
C2135 C 0.48354 0.36937 0.52651 0.0
C2136 C 0.47405 0.37751 0.545 0.0
C2137 C 0.48565 0.36907 0.48046 0.0
C2138 C 0.48455 0.39134 0.37854 0.0
H2139 H 0.4942 0.35062 0.17725 0.0
H2140 H 0.49501 0.35485 0.25847 0.0
H2141 H 0.48949 0.4024 0.31503 0.0
H2142 H 0.45938 0.39176 0.52881 0.0
H2143 H 0.46336 0.3915 0.44887 0.0
H2144 H 0.47311 0.34763 0.39563 0.0
C2145 C 0.48977 0.36173 0.23809 0.0
C2146 C 0.48574 0.39027 0.33205 0.0
C2147 C 0.48959 0.35954 0.1913 0.0
C2148 C 0.46704 0.38564 0.51616 0.0
C2149 C 0.46928 0.38546 0.47018 0.0
C2150 C 0.47687 0.35974 0.37851 0.0
C2151 C 0.48318 0.37248 0.25823 0.0
C2152 C 0.48237 0.37387 0.30805 0.0
C2153 C 0.47846 0.37701 0.45166 0.0
C2154 C 0.48009 0.37608 0.40234 0.0
H2155 H 0.47191 0.38646 0.16292 0.0
H2156 H 0.4716 0.38972 0.24422 0.0
H2157 H 0.47482 0.34563 0.31479 0.0
H2158 H 0.48945 0.36328 0.54763 0.0
H2159 H 0.49304 0.36269 0.46741 0.0
C2160 C 0.38713 0.94141 0.51402 0.0
C2161 C 0.3751 0.92726 0.48062 0.0
C2162 C 0.38631 0.93867 0.55972 0.0
C2163 C 0.35471 0.90907 0.63806 0.0
H2164 H 0.39884 0.92923 0.72146 0.0
C2165 C 0.35228 0.89056 0.82086 0.0
C2166 C 0.36368 0.90453 0.85528 0.0
C2167 C 0.35416 0.8935 0.77553 0.0
C2168 C 0.38637 0.92369 0.69874 0.0
H2169 H 0.35281 0.89905 0.46951 0.0
H2170 H 0.35161 0.89418 0.54894 0.0
H2171 H 0.40133 0.93385 0.64187 0.0
H2172 H 0.38618 0.93258 0.86855 0.0
H2173 H 0.38925 0.93782 0.78934 0.0
H2174 H 0.33974 0.89896 0.69475 0.0
C2175 C 0.36157 0.90749 0.53984 0.0
C2176 C 0.3878 0.92632 0.65304 0.0
C2177 C 0.36242 0.91021 0.49417 0.0
C2178 C 0.37707 0.92154 0.84301 0.0
C2179 C 0.37896 0.92449 0.79754 0.0
C2180 C 0.35329 0.90645 0.68367 0.0
C2181 C 0.37339 0.92173 0.57328 0.0
C2182 C 0.37198 0.91899 0.62204 0.0
C2183 C 0.36745 0.91052 0.76318 0.0
C2184 C 0.36909 0.91365 0.71465 0.0
H2185 H 0.39721 0.95466 0.50486 0.0
H2186 H 0.39554 0.94999 0.58447 0.0
H2187 H 0.34222 0.90354 0.61542 0.0
H2188 H 0.34163 0.87737 0.82886 0.0
H2189 H 0.3452 0.88234 0.7501 0.0
C2190 C 0.11312 0.44573 0.83969 0.0
C2191 C 0.1284 0.45089 0.87114 0.0
C2192 C 0.11521 0.44788 0.79406 0.0
C2193 C 0.14718 0.45407 0.70817 0.0
H2194 H 0.11814 0.47012 0.64031 0.0
C2195 C 0.15999 0.47554 0.52736 0.0
C2196 C 0.14455 0.47029 0.49641 0.0
C2197 C 0.15803 0.47249 0.57267 0.0
C2198 C 0.12619 0.46541 0.65859 0.0
H2199 H 0.1579 0.46233 0.87881 0.0
H2200 H 0.1616 0.46646 0.79936 0.0
H2201 H 0.11494 0.46659 0.71997 0.0
H2202 H 0.11489 0.4575 0.48903 0.0
H2203 H 0.11145 0.45195 0.56784 0.0
H2204 H 0.15854 0.45305 0.64668 0.0
C2205 C 0.14794 0.46051 0.80996 0.0
C2206 C 0.12436 0.46338 0.70436 0.0
C2207 C 0.14585 0.45835 0.85567 0.0
C2208 C 0.12707 0.46157 0.51179 0.0
C2209 C 0.12511 0.4586 0.55713 0.0
C2210 C 0.14905 0.45615 0.66236 0.0
C2211 C 0.13264 0.45531 0.77853 0.0
C2212 C 0.13479 0.45764 0.72979 0.0
C2213 C 0.14058 0.46419 0.58827 0.0
C2214 C 0.13855 0.4618 0.63696 0.0
H2215 H 0.0995 0.44017 0.85036 0.0
H2216 H 0.10308 0.44352 0.77087 0.0
H2217 H 0.15524 0.44936 0.72645 0.0
H2218 H 0.17365 0.48214 0.51659 0.0
H2219 H 0.17025 0.47708 0.59573 0.0
C2220 C 0.56731 0.68218 0.8366 0.0
C2221 C 0.5794 0.69833 0.86463 0.0
C2222 C 0.56844 0.68112 0.79013 0.0
C2223 C 0.58635 0.71015 0.69658 0.0
H2224 H 0.57775 0.66489 0.63262 0.0
C2225 C 0.59685 0.70335 0.50714 0.0
C2226 C 0.58398 0.68694 0.48103 0.0
C2227 C 0.59656 0.70533 0.55394 0.0
C2228 C 0.58 0.67758 0.64984 0.0
H2229 H 0.60248 0.72591 0.86557 0.0
H2230 H 0.60454 0.72402 0.78463 0.0
H2231 H 0.57712 0.66706 0.71391 0.0
H2232 H 0.56012 0.66011 0.48366 0.0
H2233 H 0.55963 0.66355 0.56479 0.0
H2234 H 0.58928 0.72065 0.63229 0.0
C2235 C 0.59394 0.71226 0.79847 0.0
C2236 C 0.57963 0.67883 0.69657 0.0
C2237 C 0.59278 0.71333 0.84496 0.0
C2238 C 0.57051 0.67279 0.50275 0.0
C2239 C 0.57023 0.67475 0.54937 0.0
C2240 C 0.58677 0.70891 0.64977 0.0
C2241 C 0.58172 0.69617 0.77035 0.0
C2242 C 0.58267 0.69508 0.72061 0.0
C2243 C 0.58339 0.69094 0.57573 0.0
C2244 C 0.58345 0.69255 0.62574 0.0
H2245 H 0.55663 0.67046 0.85039 0.0
H2246 H 0.55859 0.6686 0.76957 0.0
H2247 H 0.58852 0.72281 0.71379 0.0
H2248 H 0.6075 0.71447 0.49163 0.0
H2249 H 0.60698 0.71794 0.5732 0.0
C2250 C 0.33467 0.45505 0.85662 0.0
C2251 C 0.34411 0.44703 0.87644 0.0
C2252 C 0.33507 0.4576 0.81075 0.0
C2253 C 0.36185 0.46042 0.71455 0.0
H2254 H 0.31794 0.4512 0.64172 0.0
C2255 C 0.35792 0.4572 0.52094 0.0
C2256 C 0.35004 0.46642 0.49986 0.0
C2257 C 0.35657 0.45464 0.56659 0.0
C2258 C 0.33036 0.45399 0.66169 0.0
H2259 H 0.36165 0.43571 0.86343 0.0
H2260 H 0.36199 0.43974 0.7837 0.0
H2261 H 0.31698 0.44746 0.72202 0.0
H2262 H 0.33403 0.47967 0.51007 0.0
H2263 H 0.3317 0.47523 0.5899 0.0
H2264 H 0.37519 0.46681 0.65428 0.0
C2265 C 0.35441 0.44424 0.80355 0.0
C2266 C 0.32983 0.45189 0.70778 0.0
C2267 C 0.354 0.4417 0.84927 0.0
C2268 C 0.34038 0.47264 0.52536 0.0
C2269 C 0.33892 0.46996 0.57101 0.0
C2270 C 0.36235 0.46244 0.66855 0.0
C2271 C 0.34497 0.45225 0.78362 0.0
C2272 C 0.34555 0.45497 0.73478 0.0
C2273 C 0.34723 0.46116 0.59234 0.0
C2274 C 0.3466 0.45916 0.64146 0.0
H2275 H 0.32679 0.45919 0.87643 0.0
H2276 H 0.32778 0.46396 0.7967 0.0
H2277 H 0.37433 0.4633 0.73438 0.0
H2278 H 0.36562 0.45241 0.50247 0.0
H2279 H 0.36294 0.44761 0.5818 0.0
C2280 C 0.56711 0.9031 0.83731 0.0
C2281 C 0.58119 0.90215 0.86247 0.0
C2282 C 0.56771 0.90521 0.79122 0.0
C2283 C 0.59933 0.91984 0.70158 0.0
H2284 H 0.55433 0.89202 0.62139 0.0
C2285 C 0.5987 0.91821 0.5069 0.0
C2286 C 0.5843 0.919 0.48287 0.0
C2287 C 0.59841 0.91574 0.55288 0.0
C2288 C 0.56701 0.90006 0.64327 0.0
H2289 H 0.60724 0.9032 0.85858 0.0
H2290 H 0.60817 0.90664 0.7783 0.0
H2291 H 0.5538 0.88908 0.70183 0.0
H2292 H 0.55799 0.91719 0.48854 0.0
H2293 H 0.55763 0.91324 0.56838 0.0
H2294 H 0.61253 0.93088 0.64299 0.0
C2295 C 0.59667 0.90584 0.79425 0.0
C2296 C 0.5667 0.89838 0.68956 0.0
C2297 C 0.59604 0.90367 0.8403 0.0
C2298 C 0.56945 0.9169 0.50594 0.0
C2299 C 0.56914 0.91441 0.55178 0.0
C2300 C 0.59964 0.92154 0.65526 0.0
C2301 C 0.58244 0.90649 0.76892 0.0
C2302 C 0.58284 0.90828 0.71945 0.0
C2303 C 0.58366 0.91391 0.57607 0.0
C2304 C 0.58347 0.91173 0.6254 0.0
H2305 H 0.55537 0.9018 0.85299 0.0
H2306 H 0.55661 0.90589 0.77306 0.0
H2307 H 0.612 0.92787 0.72353 0.0
H2308 H 0.61043 0.91991 0.49045 0.0
H2309 H 0.60974 0.9152 0.57021 0.0
C2310 C 0.14385 0.67391 0.55573 0.0
C2311 C 0.13892 0.68379 0.52737 0.0
C2312 C 0.14119 0.67398 0.60141 0.0
C2313 C 0.1347 0.70058 0.69433 0.0
H2314 H 0.11957 0.6566 0.75409 0.0
C2315 C 0.11808 0.69721 0.87949 0.0
C2316 C 0.1244 0.68822 0.90726 0.0
C2317 C 0.119 0.69615 0.83294 0.0
C2318 C 0.12398 0.66906 0.73807 0.0
H2319 H 0.12712 0.70138 0.52525 0.0
H2320 H 0.12213 0.70123 0.6048 0.0
H2321 H 0.12244 0.65567 0.67352 0.0
H2322 H 0.13636 0.67073 0.90721 0.0
H2323 H 0.13823 0.6691 0.82613 0.0
H2324 H 0.13632 0.71398 0.75891 0.0
C2325 C 0.12832 0.69361 0.59172 0.0
C2326 C 0.12563 0.66853 0.69177 0.0
C2327 C 0.13098 0.69353 0.54592 0.0
C2328 C 0.1315 0.67796 0.88702 0.0
C2329 C 0.1324 0.67687 0.84039 0.0
C2330 C 0.13304 0.7011 0.74062 0.0
C2331 C 0.13346 0.6839 0.62016 0.0
C2332 C 0.1311 0.6843 0.66927 0.0
C2333 C 0.12628 0.68605 0.81273 0.0
C2334 C 0.12773 0.68537 0.76319 0.0
H2335 H 0.14975 0.66602 0.5426 0.0
H2336 H 0.14551 0.6665 0.62221 0.0
H2337 H 0.13924 0.71307 0.67842 0.0
H2338 H 0.11274 0.70544 0.89382 0.0
H2339 H 0.11396 0.70322 0.81274 0.0
loop_
_geom_bond_atom_site_label_1
_geom_bond_atom_site_label_2
_geom_bond_distance
_geom_bond_site_symmetry_2
_ccdc_geom_bond_type
Tb0 C2 2.809 . S
Tb0 O20 2.484 1_455 S
Tb0 O21 2.440 . S
Tb0 O22 2.658 . S
Tb0 O23 2.409 . S
Tb0 O24 2.372 1_455 S
Tb0 O28 2.325 1_455 S
Tb0 O31 2.341 . S
Tb1 C11 2.809 . S
Tb1 O22 2.325 1_655 S
Tb1 O25 2.341 . S
Tb1 O26 2.484 1_655 S
Tb1 O27 2.440 . S
Tb1 O28 2.658 . S
Tb1 O29 2.409 . S
Tb1 O30 2.378 1_655 S
C2 Tb0 2.809 . S
C2 C3 1.514 . S
C2 O20 1.248 1_455 S
C2 O21 1.266 . S
C3 C2 1.514 . S
C3 C4 1.359 1_455 S
C3 C8 1.348 . S
C4 C3 1.359 1_655 S
C4 C5 1.380 . S
C4 H32 0.929 . S
C5 C4 1.380 . S
C5 C6 1.333 1_655 S
C5 H33 0.931 . S
C6 C5 1.333 1_455 S
C6 C7 1.384 . S
C7 C6 1.384 . S
C7 C8 1.408 . S
C7 H34 0.930 . S
C8 C3 1.348 . S
C8 C7 1.408 . S
C8 H35 0.930 . S
C9 O22 1.281 . S
C9 O23 1.254 . S
C10 O24 1.277 . S
C10 O25 1.266 . S
C11 Tb1 2.809 . S
C11 C12 1.514 1_655 S
C11 O26 1.248 1_655 S
C11 O27 1.266 . S
C12 C11 1.514 1_455 S
C12 C13 1.359 . S
C12 C17 1.348 1_455 S
C13 C12 1.359 . S
C13 C14 1.380 . S
C13 H36 0.929 . S
C14 C13 1.380 . S
C14 C15 1.347 . S
C14 H37 0.931 . S
C15 C14 1.347 . S
C15 C16 1.369 1_455 S
C16 C15 1.369 1_655 S
C16 C17 1.408 . S
C16 H38 0.930 . S
C17 C12 1.348 1_655 S
C17 C16 1.408 . S
C17 H39 0.930 . S
C18 O28 1.281 . S
C18 O29 1.254 . S
C19 O30 1.236 . S
C19 O31 1.266 . S
O20 Tb0 2.484 1_655 S
O20 C2 1.248 1_655 S
O21 Tb0 2.440 . S
O21 C2 1.266 . S
O22 Tb0 2.658 . S
O22 Tb1 2.325 1_455 S
O22 C9 1.281 . S
O23 Tb0 2.409 . S
O23 C9 1.254 . S
O24 Tb0 2.372 1_655 S
O24 C10 1.277 . S
O25 Tb1 2.341 . S
O25 C10 1.266 . S
O26 Tb1 2.484 1_455 S
O26 C11 1.248 1_455 S
O27 Tb1 2.440 . S
O27 C11 1.266 . S
O28 Tb0 2.325 1_655 S
O28 Tb1 2.658 . S
O28 C18 1.281 . S
O29 Tb1 2.409 . S
O29 C18 1.254 . S
O30 Tb1 2.378 1_455 S
O30 C19 1.236 . S
O31 Tb0 2.341 . S
O31 C19 1.266 . S
H32 C4 0.929 . S
H33 C5 0.931 . S
H34 C7 0.930 . S
H35 C8 0.930 . S
H36 C13 0.929 . S
H37 C14 0.931 . S
H38 C16 0.930 . S
H39 C17 0.930 . S
Tb40 C42 2.809 . S
Tb40 O60 2.484 . S
Tb40 O61 2.440 . S
Tb40 O62 2.658 . S
Tb40 O63 2.409 . S
Tb40 O64 2.378 . S
Tb40 O68 2.325 . S
Tb40 O71 2.341 . S
Tb41 C51 2.809 . S
Tb41 O62 2.325 . S
Tb41 O65 2.341 . S
Tb41 O66 2.484 . S
Tb41 O67 2.440 . S
Tb41 O68 2.658 . S
Tb41 O69 2.409 . S
Tb41 O70 2.378 . S
C42 Tb40 2.809 . S
C42 C43 1.514 . S
C42 O60 1.248 . S
C42 O61 1.266 . S
C43 C42 1.514 . S
C43 C44 1.359 . S
C43 C48 1.348 . S
C44 C43 1.359 . S
C44 C45 1.380 . S
C44 H72 0.929 . S
C45 C44 1.380 . S
C45 C46 1.347 . S
C45 H73 0.931 . S
C46 C45 1.347 . S
C46 C47 1.369 . S
C47 C46 1.369 . S
C47 C48 1.408 . S
C47 H74 0.930 . S
C48 C43 1.348 . S
C48 C47 1.408 . S
C48 H75 0.930 . S
C49 O62 1.281 . S
C49 O63 1.254 . S
C50 O64 1.236 . S
C50 O65 1.266 . S
C51 Tb41 2.809 . S
C51 C52 1.514 . S
C51 O66 1.248 . S
C51 O67 1.266 . S
C52 C51 1.514 . S
C52 C53 1.359 . S
C52 C57 1.348 . S
C53 C52 1.359 . S
C53 C54 1.380 . S
C53 H76 0.929 . S
C54 C53 1.380 . S
C54 C55 1.347 . S
C54 H77 0.931 . S
C55 C54 1.347 . S
C55 C56 1.369 . S
C56 C55 1.369 . S
C56 C57 1.408 . S
C56 H78 0.930 . S
C57 C52 1.348 . S
C57 C56 1.408 . S
C57 H79 0.930 . S
C58 O68 1.281 . S
C58 O69 1.254 . S
C59 O70 1.236 . S
C59 O71 1.266 . S
O60 Tb40 2.484 . S
O60 C42 1.248 . S
O61 Tb40 2.440 . S
O61 C42 1.266 . S
O62 Tb40 2.658 . S
O62 Tb41 2.325 . S
O62 C49 1.281 . S
O63 Tb40 2.409 . S
O63 C49 1.254 . S
O64 Tb40 2.378 . S
O64 C50 1.236 . S
O65 Tb41 2.341 . S
O65 C50 1.266 . S
O66 Tb41 2.484 . S
O66 C51 1.248 . S
O67 Tb41 2.440 . S
O67 C51 1.266 . S
O68 Tb40 2.325 . S
O68 Tb41 2.658 . S
O68 C58 1.281 . S
O69 Tb41 2.409 . S
O69 C58 1.254 . S
O70 Tb41 2.378 . S
O70 C59 1.236 . S
O71 Tb40 2.341 . S
O71 C59 1.266 . S
H72 C44 0.929 . S
H73 C45 0.931 . S
H74 C47 0.930 . S
H75 C48 0.930 . S
H76 C53 0.929 . S
H77 C54 0.931 . S
H78 C56 0.930 . S
H79 C57 0.930 . S
Tb80 C82 2.809 1_565 S
Tb80 O100 2.484 1_565 S
Tb80 O101 2.440 . S
Tb80 O102 2.658 . S
Tb80 O103 2.409 . S
Tb80 O104 2.378 1_565 S
Tb80 O108 2.325 1_565 S
Tb80 O111 2.341 . S
Tb81 C91 2.809 . S
Tb81 O102 2.325 1_545 S
Tb81 O105 2.341 . S
Tb81 O106 2.484 1_545 S
Tb81 O107 2.440 . S
Tb81 O108 2.658 . S
Tb81 O109 2.409 . S
Tb81 O110 2.378 1_545 S
C82 Tb80 2.809 1_545 S
C82 C83 1.514 . S
C82 O100 1.248 . S
C82 O101 1.266 1_545 S
C83 C82 1.514 . S
C83 C84 1.359 . S
C83 C88 1.348 1_545 S
C84 C83 1.359 . S
C84 C85 1.380 . S
C84 H112 0.929 . S
C85 C84 1.380 . S
C85 C86 1.347 . S
C85 H113 0.931 . S
C86 C85 1.347 . S
C86 C87 1.369 . S
C87 C86 1.369 . S
C87 C88 1.408 1_545 S
C87 H114 0.930 1_545 S
C88 C83 1.348 1_565 S
C88 C87 1.408 1_565 S
C88 H115 0.930 . S
C89 O102 1.281 . S
C89 O103 1.254 . S
C90 O104 1.236 . S
C90 O105 1.266 . S
C91 Tb81 2.809 . S
C91 C92 1.496 1_545 S
C91 O106 1.248 1_545 S
C91 O107 1.266 . S
C92 C91 1.496 1_565 S
C92 C93 1.400 . S
C92 C97 1.331 1_565 S
C93 C92 1.400 . S
C93 C94 1.380 . S
C93 H116 0.929 . S
C94 C93 1.380 . S
C94 C95 1.347 . S
C94 H117 0.931 . S
C95 C94 1.347 . S
C95 C96 1.369 1_565 S
C96 C95 1.369 1_545 S
C96 C97 1.408 . S
C96 H118 0.930 . S
C97 C92 1.331 1_545 S
C97 C96 1.408 . S
C97 H119 0.930 . S
C98 O108 1.281 . S
C98 O109 1.254 . S
C99 O110 1.236 . S
C99 O111 1.266 . S
O100 Tb80 2.484 1_545 S
O100 C82 1.248 . S
O101 Tb80 2.440 . S
O101 C82 1.266 1_565 S
O102 Tb80 2.658 . S
O102 Tb81 2.325 1_565 S
O102 C89 1.281 . S
O103 Tb80 2.409 . S
O103 C89 1.254 . S
O104 Tb80 2.378 1_545 S
O104 C90 1.236 . S
O105 Tb81 2.341 . S
O105 C90 1.266 . S
O106 Tb81 2.484 1_565 S
O106 C91 1.248 1_565 S
O107 Tb81 2.440 . S
O107 C91 1.266 . S
O108 Tb80 2.325 1_545 S
O108 Tb81 2.658 . S
O108 C98 1.281 . S
O109 Tb81 2.409 . S
O109 C98 1.254 . S
O110 Tb81 2.378 1_565 S
O110 C99 1.236 . S
O111 Tb80 2.341 . S
O111 C99 1.266 . S
H112 C84 0.929 . S
H113 C85 0.931 . S
H114 C87 0.930 1_565 S
H115 C88 0.930 . S
H116 C93 0.929 . S
H117 C94 0.931 . S
H118 C96 0.930 . S
H119 C97 0.930 . S
Tb120 C122 2.809 . S
Tb120 O140 2.484 1_455 S
Tb120 O141 2.440 . S
Tb120 O142 2.658 . S
Tb120 O143 2.409 . S
Tb120 O144 2.378 1_455 S
Tb120 O148 2.325 1_455 S
Tb120 O151 2.341 . S
Tb121 C131 2.809 . S
Tb121 O142 2.325 1_655 S
Tb121 O145 2.341 . S
Tb121 O146 2.484 1_655 S
Tb121 O147 2.440 . S
Tb121 O148 2.658 . S
Tb121 O149 2.409 . S
Tb121 O150 2.378 1_655 S
C122 Tb120 2.809 . S
C122 C123 1.514 . S
C122 O140 1.248 1_455 S
C122 O141 1.266 . S
C123 C122 1.514 . S
C123 C124 1.359 1_455 S
C123 C128 1.348 . S
C124 C123 1.359 1_655 S
C124 C125 1.380 . S
C124 H152 0.929 . S
C125 C124 1.380 . S
C125 C126 1.332 1_655 S
C125 H153 0.931 . S
C126 C125 1.332 1_455 S
C126 C127 1.386 . S
C127 C126 1.386 . S
C127 C128 1.408 . S
C127 H154 0.930 . S
C128 C123 1.348 . S
C128 C127 1.408 . S
C128 H155 0.930 . S
C129 O142 1.281 . S
C129 O143 1.254 . S
C130 O144 1.236 . S
C130 O145 1.266 . S
C131 Tb121 2.809 . S
C131 C132 1.514 1_655 S
C131 O146 1.248 1_655 S
C131 O147 1.266 . S
C132 C131 1.514 1_455 S
C132 C133 1.359 . S
C132 C137 1.348 1_455 S
C133 C132 1.359 . S
C133 C134 1.380 . S
C133 H156 0.929 . S
C134 C133 1.380 . S
C134 C135 1.347 . S
C134 H157 0.931 . S
C135 C134 1.347 . S
C135 C136 1.369 1_455 S
C136 C135 1.369 1_655 S
C136 C137 1.408 . S
C136 H158 0.930 . S
C137 C132 1.348 1_655 S
C137 C136 1.408 . S
C137 H159 0.930 . S
C138 O148 1.281 . S
C138 O149 1.254 . S
C139 O150 1.236 . S
C139 O151 1.266 . S
O140 Tb120 2.484 1_655 S
O140 C122 1.248 1_655 S
O141 Tb120 2.440 . S
O141 C122 1.266 . S
O142 Tb120 2.658 . S
O142 Tb121 2.325 1_455 S
O142 C129 1.281 . S
O143 Tb120 2.409 . S
O143 C129 1.254 . S
O144 Tb120 2.378 1_655 S
O144 C130 1.236 . S
O145 Tb121 2.341 . S
O145 C130 1.266 . S
O146 Tb121 2.484 1_455 S
O146 C131 1.248 1_455 S
O147 Tb121 2.440 . S
O147 C131 1.266 . S
O148 Tb120 2.325 1_655 S
O148 Tb121 2.658 . S
O148 C138 1.281 . S
O149 Tb121 2.409 . S
O149 C138 1.254 . S
O150 Tb121 2.378 1_455 S
O150 C139 1.236 . S
O151 Tb120 2.341 . S
O151 C139 1.266 . S
H152 C124 0.929 . S
H153 C125 0.931 . S
H154 C127 0.930 . S
H155 C128 0.930 . S
H156 C133 0.929 . S
H157 C134 0.931 . S
H158 C136 0.930 . S
H159 C137 0.930 . S
Tb160 C162 2.809 . S
Tb160 O180 2.484 . S
Tb160 O181 2.440 . S
Tb160 O182 2.658 . S
Tb160 O183 2.409 . S
Tb160 O184 2.378 . S
Tb160 O188 2.325 . S
Tb160 O191 2.341 . S
Tb161 C171 2.809 . S
Tb161 O182 2.325 . S
Tb161 O185 2.341 . S
Tb161 O186 2.484 . S
Tb161 O187 2.440 . S
Tb161 O188 2.658 . S
Tb161 O189 2.409 . S
Tb161 O190 2.378 . S
C162 Tb160 2.809 . S
C162 C163 1.514 . S
C162 O180 1.248 . S
C162 O181 1.266 . S
C163 C162 1.514 . S
C163 C164 1.359 . S
C163 C168 1.348 . S
C164 C163 1.359 . S
C164 C165 1.380 . S
C164 H192 0.929 . S
C165 C164 1.380 . S
C165 C166 1.347 . S
C165 H193 0.931 . S
C166 C165 1.347 . S
C166 C167 1.369 . S
C167 C166 1.369 . S
C167 C168 1.408 . S
C167 H194 0.930 . S
C168 C163 1.348 . S
C168 C167 1.408 . S
C168 H195 0.930 . S
C169 O182 1.281 . S
C169 O183 1.254 . S
C170 O184 1.236 . S
C170 O185 1.266 . S
C171 Tb161 2.809 . S
C171 C172 1.514 . S
C171 O186 1.248 . S
C171 O187 1.266 . S
C172 C171 1.514 . S
C172 C173 1.359 . S
C172 C177 1.348 . S
C173 C172 1.359 . S
C173 C174 1.380 . S
C173 H196 0.929 . S
C174 C173 1.380 . S
C174 C175 1.347 . S
C174 H197 0.931 . S
C175 C174 1.347 . S
C175 C176 1.369 . S
C176 C175 1.369 . S
C176 C177 1.408 . S
C176 H198 0.930 . S
C177 C172 1.348 . S
C177 C176 1.408 . S
C177 H199 0.930 . S
C178 O188 1.281 . S
C178 O189 1.254 . S
C179 O190 1.236 . S
C179 O191 1.266 . S
O180 Tb160 2.484 . S
O180 C162 1.248 . S
O181 Tb160 2.440 . S
O181 C162 1.266 . S
O182 Tb160 2.658 . S
O182 Tb161 2.325 . S
O182 C169 1.281 . S
O183 Tb160 2.409 . S
O183 C169 1.254 . S
O184 Tb160 2.378 . S
O184 C170 1.236 . S
O185 Tb161 2.341 . S
O185 C170 1.266 . S
O186 Tb161 2.484 . S
O186 C171 1.248 . S
O187 Tb161 2.440 . S
O187 C171 1.266 . S
O188 Tb160 2.325 . S
O188 Tb161 2.658 . S
O188 C178 1.281 . S
O189 Tb161 2.409 . S
O189 C178 1.254 . S
O190 Tb161 2.378 . S
O190 C179 1.236 . S
O191 Tb160 2.341 . S
O191 C179 1.266 . S
H192 C164 0.929 . S
H193 C165 0.931 . S
H194 C167 0.930 . S
H195 C168 0.930 . S
H196 C173 0.929 . S
H197 C174 0.931 . S
H198 C176 0.930 . S
H199 C177 0.930 . S
Tb200 C202 2.809 1_565 S
Tb200 O220 2.484 1_565 S
Tb200 O221 2.440 . S
Tb200 O222 2.658 . S
Tb200 O223 2.409 . S
Tb200 O224 2.378 1_565 S
Tb200 O228 2.325 1_565 S
Tb200 O231 2.341 . S
Tb201 C211 2.809 . S
Tb201 O222 2.325 1_545 S
Tb201 O225 2.341 . S
Tb201 O226 2.484 1_545 S
Tb201 O227 2.440 . S
Tb201 O228 2.658 . S
Tb201 O229 2.409 . S
Tb201 O230 2.375 . S
C202 Tb200 2.809 1_545 S
C202 C203 1.514 . S
C202 O220 1.248 . S
C202 O221 1.266 1_545 S
C203 C202 1.514 . S
C203 C204 1.359 . S
C203 C208 1.362 . S
C204 C203 1.359 . S
C204 C205 1.380 . S
C204 H232 0.929 . S
C205 C204 1.380 . S
C205 C206 1.347 . S
C205 H233 0.931 . S
C206 C205 1.347 . S
C206 C207 1.369 . S
C207 C206 1.369 . S
C207 C208 1.421 . S
C207 H234 0.930 1_545 S
C208 C203 1.362 . S
C208 C207 1.421 . S
C208 H235 0.907 1_545 S
C209 O222 1.281 . S
C209 O223 1.254 . S
C210 O224 1.236 . S
C210 O225 1.266 . S
C211 Tb201 2.809 . S
C211 C212 1.514 . S
C211 O226 1.248 1_545 S
C211 O227 1.266 . S
C212 C211 1.514 . S
C212 C213 1.359 1_545 S
C212 C217 1.348 . S
C213 C212 1.359 1_565 S
C213 C214 1.380 . S
C213 H236 0.929 . S
C214 C213 1.380 . S
C214 C215 1.347 . S
C214 H237 0.931 . S
C215 C214 1.347 . S
C215 C216 1.369 1_565 S
C216 C215 1.369 1_545 S
C216 C217 1.408 . S
C216 H238 0.930 . S
C217 C212 1.348 . S
C217 C216 1.408 . S
C217 H239 0.930 . S
C218 O228 1.281 . S
C218 O229 1.254 . S
C219 O230 1.240 1_565 S
C219 O231 1.266 . S
O220 Tb200 2.484 1_545 S
O220 C202 1.248 . S
O221 Tb200 2.440 . S
O221 C202 1.266 1_565 S
O222 Tb200 2.658 . S
O222 Tb201 2.325 1_565 S
O222 C209 1.281 . S
O223 Tb200 2.409 . S
O223 C209 1.254 . S
O224 Tb200 2.378 1_545 S
O224 C210 1.236 . S
O225 Tb201 2.341 . S
O225 C210 1.266 . S
O226 Tb201 2.484 1_565 S
O226 C211 1.248 1_565 S
O227 Tb201 2.440 . S
O227 C211 1.266 . S
O228 Tb200 2.325 1_545 S
O228 Tb201 2.658 . S
O228 C218 1.281 . S
O229 Tb201 2.409 . S
O229 C218 1.254 . S
O230 Tb201 2.375 . S
O230 C219 1.240 1_545 S
O231 Tb200 2.341 . S
O231 C219 1.266 . S
H232 C204 0.929 . S
H233 C205 0.931 . S
H234 C207 0.930 1_565 S
H235 C208 0.907 1_565 S
H236 C213 0.929 . S
H237 C214 0.931 . S
H238 C216 0.930 . S
H239 C217 0.930 . S
Tb240 C242 2.809 . S
Tb240 O260 2.484 . S
Tb240 O261 2.440 . S
Tb240 O262 2.658 . S
Tb240 O263 2.409 . S
Tb240 O264 2.378 . S
Tb240 O268 2.325 . S
Tb240 O271 2.341 . S
Tb241 C251 2.809 . S
Tb241 O262 2.325 . S
Tb241 O265 2.341 . S
Tb241 O266 2.484 . S
Tb241 O267 2.440 . S
Tb241 O268 2.658 . S
Tb241 O269 2.409 . S
Tb241 O270 2.378 . S
C242 Tb240 2.809 . S
C242 C243 1.514 . S
C242 O260 1.248 . S
C242 O261 1.266 . S
C243 C242 1.514 . S
C243 C244 1.359 . S
C243 C248 1.348 . S
C244 C243 1.359 . S
C244 C245 1.380 . S
C244 H272 0.929 . S
C245 C244 1.380 . S
C245 C246 1.347 . S
C245 H273 0.931 . S
C246 C245 1.347 . S
C246 C247 1.369 . S
C247 C246 1.369 . S
C247 C248 1.408 . S
C247 H274 0.930 . S
C248 C243 1.348 . S
C248 C247 1.408 . S
C248 H275 0.930 . S
C249 O262 1.281 . S
C249 O263 1.254 . S
C250 O264 1.236 . S
C250 O265 1.266 . S
C251 Tb241 2.809 . S
C251 C252 1.514 . S
C251 O266 1.248 . S
C251 O267 1.266 . S
C252 C251 1.514 . S
C252 C253 1.359 . S
C252 C257 1.359 . S
C253 C252 1.359 . S
C253 C254 1.380 1_556 S
C253 H276 0.929 . S
C254 C253 1.380 1_554 S
C254 C255 1.347 . S
C254 H277 0.931 . S
C255 C254 1.347 . S
C255 C256 1.369 . S
C256 C255 1.369 . S
C256 C257 1.386 1_554 S
C256 H278 0.930 . S
C257 C252 1.359 . S
C257 C256 1.386 1_556 S
C257 H279 0.942 . S
C258 O268 1.281 . S
C258 O269 1.254 . S
C259 O270 1.236 . S
C259 O271 1.266 . S
O260 Tb240 2.484 . S
O260 C242 1.248 . S
O261 Tb240 2.440 . S
O261 C242 1.266 . S
O262 Tb240 2.658 . S
O262 Tb241 2.325 . S
O262 C249 1.281 . S
O263 Tb240 2.409 . S
O263 C249 1.254 . S
O264 Tb240 2.378 . S
O264 C250 1.236 . S
O265 Tb241 2.341 . S
O265 C250 1.266 . S
O266 Tb241 2.484 . S
O266 C251 1.248 . S
O267 Tb241 2.440 . S
O267 C251 1.266 . S
O268 Tb240 2.325 . S
O268 Tb241 2.658 . S
O268 C258 1.281 . S
O269 Tb241 2.409 . S
O269 C258 1.254 . S
O270 Tb241 2.378 . S
O270 C259 1.236 . S
O271 Tb240 2.341 . S
O271 C259 1.266 . S
H272 C244 0.929 . S
H273 C245 0.931 . S
H274 C247 0.930 . S
H275 C248 0.930 . S
H276 C253 0.929 . S
H277 C254 0.931 . S
H278 C256 0.930 . S
H279 C257 0.942 . S
Tb280 C282 2.809 . S
Tb280 O300 2.484 . S
Tb280 O301 2.440 . S
Tb280 O302 2.658 . S
Tb280 O303 2.409 . S
Tb280 O304 2.378 . S
Tb280 O308 2.325 . S
Tb280 O311 2.341 . S
Tb281 C291 2.809 . S
Tb281 O302 2.325 . S
Tb281 O305 2.341 . S
Tb281 O306 2.484 . S
Tb281 O307 2.440 . S
Tb281 O308 2.658 . S
Tb281 O309 2.409 . S
Tb281 O310 2.378 . S
C282 Tb280 2.809 . S
C282 C283 1.514 . S
C282 O300 1.248 . S
C282 O301 1.266 . S
C283 C282 1.514 . S
C283 C284 1.359 . S
C283 C288 1.348 . S
C284 C283 1.359 . S
C284 C285 1.380 . S
C284 H312 0.929 . S
C285 C284 1.380 . S
C285 C286 1.347 . S
C285 H313 0.931 . S
C286 C285 1.347 . S
C286 C287 1.369 . S
C287 C286 1.369 . S
C287 C288 1.408 . S
C287 H314 0.930 . S
C288 C283 1.348 . S
C288 C287 1.408 . S
C288 H315 0.930 . S
C289 O302 1.281 . S
C289 O303 1.254 . S
C290 O304 1.236 . S
C290 O305 1.266 . S
C291 Tb281 2.809 . S
C291 C292 1.514 . S
C291 O306 1.248 . S
C291 O307 1.266 . S
C292 C291 1.514 . S
C292 C293 1.359 . S
C292 C297 1.348 . S
C293 C292 1.359 . S
C293 C294 1.380 1_556 S
C293 H316 0.929 . S
C294 C293 1.380 1_554 S
C294 C295 1.347 . S
C294 H317 0.931 . S
C295 C294 1.347 . S
C295 C296 1.369 . S
C296 C295 1.369 . S
C296 C297 1.408 1_554 S
C296 H318 0.930 . S
C297 C292 1.348 . S
C297 C296 1.408 1_556 S
C297 H319 0.930 . S
C298 O308 1.281 . S
C298 O309 1.254 . S
C299 O310 1.236 . S
C299 O311 1.266 . S
O300 Tb280 2.484 . S
O300 C282 1.248 . S
O301 Tb280 2.440 . S
O301 C282 1.266 . S
O302 Tb280 2.658 . S
O302 Tb281 2.325 . S
O302 C289 1.281 . S
O303 Tb280 2.409 . S
O303 C289 1.254 . S
O304 Tb280 2.378 . S
O304 C290 1.236 . S
O305 Tb281 2.341 . S
O305 C290 1.266 . S
O306 Tb281 2.484 . S
O306 C291 1.248 . S
O307 Tb281 2.440 . S
O307 C291 1.266 . S
O308 Tb280 2.325 . S
O308 Tb281 2.658 . S
O308 C298 1.281 . S
O309 Tb281 2.409 . S
O309 C298 1.254 . S
O310 Tb281 2.378 . S
O310 C299 1.236 . S
O311 Tb280 2.341 . S
O311 C299 1.266 . S
H312 C284 0.929 . S
H313 C285 0.931 . S
H314 C287 0.930 . S
H315 C288 0.930 . S
H316 C293 0.929 . S
H317 C294 0.931 . S
H318 C296 0.930 . S
H319 C297 0.930 . S
Tb320 C322 2.809 . S
Tb320 O340 2.484 . S
Tb320 O341 2.440 . S
Tb320 O342 2.658 . S
Tb320 O343 2.409 . S
Tb320 O344 2.378 . S
Tb320 O348 2.325 . S
Tb320 O351 2.341 . S
Tb321 C331 2.809 . S
Tb321 O342 2.325 . S
Tb321 O345 2.341 . S
Tb321 O346 2.484 . S
Tb321 O347 2.440 . S
Tb321 O348 2.658 . S
Tb321 O349 2.409 . S
Tb321 O350 2.378 . S
C322 Tb320 2.809 . S
C322 C323 1.514 . S
C322 O340 1.248 . S
C322 O341 1.266 . S
C323 C322 1.514 . S
C323 C324 1.359 . S
C323 C328 1.348 . S
C324 C323 1.359 . S
C324 C325 1.380 . S
C324 H352 0.929 . S
C325 C324 1.380 . S
C325 C326 1.347 . S
C325 H353 0.931 . S
C326 C325 1.347 . S
C326 C327 1.369 . S
C327 C326 1.369 . S
C327 C328 1.408 . S
C327 H354 0.930 . S
C328 C323 1.348 . S
C328 C327 1.408 . S
C328 H355 0.930 . S
C329 O342 1.281 . S
C329 O343 1.254 . S
C330 O344 1.236 . S
C330 O345 1.266 . S
C331 Tb321 2.809 . S
C331 C332 1.514 . S
C331 O346 1.248 . S
C331 O347 1.266 . S
C332 C331 1.514 . S
C332 C333 1.359 . S
C332 C337 1.348 . S
C333 C332 1.359 . S
C333 C334 1.380 1_556 S
C333 H356 0.929 . S
C334 C333 1.380 1_554 S
C334 C335 1.347 . S
C334 H357 0.931 . S
C335 C334 1.347 . S
C335 C336 1.369 . S
C336 C335 1.369 . S
C336 C337 1.408 1_554 S
C336 H358 0.930 . S
C337 C332 1.348 . S
C337 C336 1.408 1_556 S
C337 H359 0.930 . S
C338 O348 1.281 . S
C338 O349 1.254 . S
C339 O350 1.236 . S
C339 O351 1.266 . S
O340 Tb320 2.484 . S
O340 C322 1.248 . S
O341 Tb320 2.440 . S
O341 C322 1.266 . S
O342 Tb320 2.658 . S
O342 Tb321 2.325 . S
O342 C329 1.281 . S
O343 Tb320 2.409 . S
O343 C329 1.254 . S
O344 Tb320 2.378 . S
O344 C330 1.236 . S
O345 Tb321 2.341 . S
O345 C330 1.266 . S
O346 Tb321 2.484 . S
O346 C331 1.248 . S
O347 Tb321 2.440 . S
O347 C331 1.266 . S
O348 Tb320 2.325 . S
O348 Tb321 2.658 . S
O348 C338 1.281 . S
O349 Tb321 2.409 . S
O349 C338 1.254 . S
O350 Tb321 2.378 . S
O350 C339 1.236 . S
O351 Tb320 2.341 . S
O351 C339 1.266 . S
H352 C324 0.929 . S
H353 C325 0.931 . S
H354 C327 0.930 . S
H355 C328 0.930 . S
H356 C333 0.929 . S
H357 C334 0.931 . S
H358 C336 0.930 . S
H359 C337 0.930 . S
Tb360 C362 2.809 . S
Tb360 O380 2.484 . S
Tb360 O381 2.440 . S
Tb360 O382 2.658 . S
Tb360 O383 2.409 . S
Tb360 O384 2.378 . S
Tb360 O388 2.325 . S
Tb360 O391 2.341 . S
Tb361 C371 2.809 . S
Tb361 O382 2.325 . S
Tb361 O385 2.341 . S
Tb361 O386 2.484 . S
Tb361 O387 2.440 . S
Tb361 O388 2.658 . S
Tb361 O389 2.409 . S
Tb361 O390 2.378 . S
C362 Tb360 2.809 . S
C362 C363 1.514 . S
C362 O380 1.248 . S
C362 O381 1.266 . S
C363 C362 1.514 . S
C363 C364 1.359 1_556 S
C363 C368 1.348 1_556 S
C364 C363 1.359 1_554 S
C364 C365 1.380 . S
C364 H392 0.929 1_554 S
C365 C364 1.380 . S
C365 C366 1.347 . S
C365 H393 0.931 . S
C366 C365 1.347 . S
C366 C367 1.369 . S
C367 C366 1.369 . S
C367 C368 1.408 . S
C367 H394 0.930 . S
C368 C363 1.348 1_554 S
C368 C367 1.408 . S
C368 H395 0.930 1_554 S
C369 O382 1.281 . S
C369 O383 1.254 . S
C370 O384 1.236 . S
C370 O385 1.266 . S
C371 Tb361 2.809 . S
C371 C372 1.514 . S
C371 O386 1.248 . S
C371 O387 1.266 . S
C372 C371 1.514 . S
C372 C373 1.359 . S
C372 C377 1.348 . S
C373 C372 1.359 . S
C373 C374 1.380 . S
C373 H396 0.929 . S
C374 C373 1.380 . S
C374 C375 1.347 . S
C374 H397 0.931 . S
C375 C374 1.347 . S
C375 C376 1.369 . S
C376 C375 1.369 . S
C376 C377 1.408 . S
C376 H398 0.930 . S
C377 C372 1.348 . S
C377 C376 1.408 . S
C377 H399 0.930 . S
C378 O388 1.281 . S
C378 O389 1.254 . S
C379 O390 1.236 . S
C379 O391 1.266 . S
O380 Tb360 2.484 . S
O380 C362 1.248 . S
O381 Tb360 2.440 . S
O381 C362 1.266 . S
O382 Tb360 2.658 . S
O382 Tb361 2.325 . S
O382 C369 1.281 . S
O383 Tb360 2.409 . S
O383 C369 1.254 . S
O384 Tb360 2.378 . S
O384 C370 1.236 . S
O385 Tb361 2.341 . S
O385 C370 1.266 . S
O386 Tb361 2.484 . S
O386 C371 1.248 . S
O387 Tb361 2.440 . S
O387 C371 1.266 . S
O388 Tb360 2.325 . S
O388 Tb361 2.658 . S
O388 C378 1.281 . S
O389 Tb361 2.409 . S
O389 C378 1.254 . S
O390 Tb361 2.378 . S
O390 C379 1.236 . S
O391 Tb360 2.341 . S
O391 C379 1.266 . S
H392 C364 0.929 1_556 S
H393 C365 0.931 . S
H394 C367 0.930 . S
H395 C368 0.930 1_556 S
H396 C373 0.929 . S
H397 C374 0.931 . S
H398 C376 0.930 . S
H399 C377 0.930 . S
Tb400 C402 2.809 . S
Tb400 O420 2.484 . S
Tb400 O421 2.440 . S
Tb400 O422 2.658 . S
Tb400 O423 2.409 . S
Tb400 O424 2.378 . S
Tb400 O428 2.325 . S
Tb400 O431 2.341 . S
Tb401 C411 2.809 . S
Tb401 O422 2.325 . S
Tb401 O425 2.341 . S
Tb401 O426 2.484 . S
Tb401 O427 2.440 . S
Tb401 O428 2.658 . S
Tb401 O429 2.409 . S
Tb401 O430 2.378 . S
C402 Tb400 2.809 . S
C402 C403 1.514 1_556 S
C402 O420 1.248 . S
C402 O421 1.266 . S
C403 C402 1.514 1_554 S
C403 C404 1.359 . S
C403 C408 1.348 . S
C404 C403 1.359 . S
C404 C405 1.380 . S
C404 H432 0.929 . S
C405 C404 1.380 . S
C405 C406 1.347 . S
C405 H433 0.931 . S
C406 C405 1.347 . S
C406 C407 1.369 . S
C407 C406 1.369 . S
C407 C408 1.408 . S
C407 H434 0.930 . S
C408 C403 1.348 . S
C408 C407 1.408 . S
C408 H435 0.930 . S
C409 O422 1.281 . S
C409 O423 1.254 . S
C410 O424 1.236 . S
C410 O425 1.266 . S
C411 Tb401 2.809 . S
C411 C412 1.514 . S
C411 O426 1.248 . S
C411 O427 1.266 . S
C412 C411 1.514 . S
C412 C413 1.359 . S
C412 C417 1.348 . S
C413 C412 1.359 . S
C413 C414 1.380 . S
C413 H436 0.929 . S
C414 C413 1.380 . S
C414 C415 1.347 . S
C414 H437 0.931 . S
C415 C414 1.347 . S
C415 C416 1.369 . S
C416 C415 1.369 . S
C416 C417 1.408 . S
C416 H438 0.930 . S
C417 C412 1.348 . S
C417 C416 1.408 . S
C417 H439 0.930 . S
C418 O428 1.281 . S
C418 O429 1.254 . S
C419 O430 1.236 . S
C419 O431 1.266 . S
O420 Tb400 2.484 . S
O420 C402 1.248 . S
O421 Tb400 2.440 . S
O421 C402 1.266 . S
O422 Tb400 2.658 . S
O422 Tb401 2.325 . S
O422 C409 1.281 . S
O423 Tb400 2.409 . S
O423 C409 1.254 . S
O424 Tb400 2.378 . S
O424 C410 1.236 . S
O425 Tb401 2.341 . S
O425 C410 1.266 . S
O426 Tb401 2.484 . S
O426 C411 1.248 . S
O427 Tb401 2.440 . S
O427 C411 1.266 . S
O428 Tb400 2.325 . S
O428 Tb401 2.658 . S
O428 C418 1.281 . S
O429 Tb401 2.409 . S
O429 C418 1.254 . S
O430 Tb401 2.378 . S
O430 C419 1.236 . S
O431 Tb400 2.341 . S
O431 C419 1.266 . S
H432 C404 0.929 . S
H433 C405 0.931 . S
H434 C407 0.930 . S
H435 C408 0.930 . S
H436 C413 0.929 . S
H437 C414 0.931 . S
H438 C416 0.930 . S
H439 C417 0.930 . S
Tb440 C442 2.809 . S
Tb440 O460 2.484 . S
Tb440 O461 2.440 . S
Tb440 O462 2.658 . S
Tb440 O463 2.409 . S
Tb440 O464 2.378 . S
Tb440 O468 2.325 . S
Tb440 O471 2.341 . S
Tb441 C451 2.809 . S
Tb441 O462 2.325 . S
Tb441 O465 2.341 . S
Tb441 O466 2.484 . S
Tb441 O467 2.440 . S
Tb441 O468 2.658 . S
Tb441 O469 2.409 . S
Tb441 O470 2.378 . S
C442 Tb440 2.809 . S
C442 C443 1.514 . S
C442 O460 1.248 . S
C442 O461 1.266 . S
C443 C442 1.514 . S
C443 C444 1.359 1_556 S
C443 C448 1.348 1_556 S
C444 C443 1.359 1_554 S
C444 C445 1.380 . S
C444 H472 0.929 1_554 S
C445 C444 1.380 . S
C445 C446 1.347 . S
C445 H473 0.931 . S
C446 C445 1.347 . S
C446 C447 1.369 . S
C447 C446 1.369 . S
C447 C448 1.408 . S
C447 H474 0.930 . S
C448 C443 1.348 1_554 S
C448 C447 1.408 . S
C448 H475 0.930 1_554 S
C449 O462 1.281 . S
C449 O463 1.254 . S
C450 O464 1.236 . S
C450 O465 1.266 . S
C451 Tb441 2.809 . S
C451 C452 1.514 . S
C451 O466 1.248 . S
C451 O467 1.266 . S
C452 C451 1.514 . S
C452 C453 1.359 . S
C452 C457 1.348 . S
C453 C452 1.359 . S
C453 C454 1.380 . S
C453 H476 0.929 . S
C454 C453 1.380 . S
C454 C455 1.347 . S
C454 H477 0.931 . S
C455 C454 1.347 . S
C455 C456 1.369 . S
C456 C455 1.369 . S
C456 C457 1.408 . S
C456 H478 0.930 . S
C457 C452 1.348 . S
C457 C456 1.408 . S
C457 H479 0.930 . S
C458 O468 1.281 . S
C458 O469 1.254 . S
C459 O470 1.236 . S
C459 O471 1.266 . S
O460 Tb440 2.484 . S
O460 C442 1.248 . S
O461 Tb440 2.440 . S
O461 C442 1.266 . S
O462 Tb440 2.658 . S
O462 Tb441 2.325 . S
O462 C449 1.281 . S
O463 Tb440 2.409 . S
O463 C449 1.254 . S
O464 Tb440 2.378 . S
O464 C450 1.236 . S
O465 Tb441 2.341 . S
O465 C450 1.266 . S
O466 Tb441 2.484 . S
O466 C451 1.248 . S
O467 Tb441 2.440 . S
O467 C451 1.266 . S
O468 Tb440 2.325 . S
O468 Tb441 2.658 . S
O468 C458 1.281 . S
O469 Tb441 2.409 . S
O469 C458 1.254 . S
O470 Tb441 2.378 . S
O470 C459 1.236 . S
O471 Tb440 2.341 . S
O471 C459 1.266 . S
H472 C444 0.929 1_556 S
H473 C445 0.931 . S
H474 C447 0.930 . S
H475 C448 0.930 1_556 S
H476 C453 0.929 . S
H477 C454 0.931 . S
H478 C456 0.930 . S
H479 C457 0.930 . S
Tb480 C482 2.809 . S
Tb480 O500 2.484 . S
Tb480 O501 2.440 . S
Tb480 O502 2.658 . S
Tb480 O503 2.409 . S
Tb480 O504 2.378 . S
Tb480 O508 2.325 . S
Tb480 O511 2.341 . S
Tb481 C491 2.809 . S
Tb481 O502 2.325 . S
Tb481 O505 2.341 . S
Tb481 O506 2.484 . S
Tb481 O507 2.440 . S
Tb481 O508 2.658 . S
Tb481 O509 2.409 . S
Tb481 O510 2.378 . S
C482 Tb480 2.809 . S
C482 C483 1.514 . S
C482 O500 1.248 . S
C482 O501 1.266 . S
C483 C482 1.514 . S
C483 C484 1.359 . S
C483 C488 1.348 . S
C484 C483 1.359 . S
C484 C485 1.380 . S
C484 H512 0.929 . S
C485 C484 1.380 . S
C485 C486 1.347 . S
C485 H513 0.931 . S
C486 C485 1.347 . S
C486 C487 1.369 . S
C487 C486 1.369 . S
C487 C488 1.408 . S
C487 H514 0.930 . S
C488 C483 1.348 . S
C488 C487 1.408 . S
C488 H515 0.930 . S
C489 O502 1.281 . S
C489 O503 1.254 . S
C490 O504 1.236 . S
C490 O505 1.266 . S
C491 Tb481 2.809 . S
C491 C492 1.514 1_554 S
C491 O506 1.248 . S
C491 O507 1.266 . S
C492 C491 1.514 1_556 S
C492 C493 1.359 . S
C492 C497 1.348 . S
C493 C492 1.359 . S
C493 C494 1.380 . S
C493 H516 0.929 . S
C494 C493 1.380 . S
C494 C495 1.347 . S
C494 H517 0.931 . S
C495 C494 1.347 . S
C495 C496 1.369 . S
C496 C495 1.369 . S
C496 C497 1.408 . S
C496 H518 0.930 . S
C497 C492 1.348 . S
C497 C496 1.408 . S
C497 H519 0.930 . S
C498 O508 1.281 . S
C498 O509 1.254 . S
C499 O510 1.236 . S
C499 O511 1.266 . S
O500 Tb480 2.484 . S
O500 C482 1.248 . S
O501 Tb480 2.440 . S
O501 C482 1.266 . S
O502 Tb480 2.658 . S
O502 Tb481 2.325 . S
O502 C489 1.281 . S
O503 Tb480 2.409 . S
O503 C489 1.254 . S
O504 Tb480 2.378 . S
O504 C490 1.236 . S
O505 Tb481 2.341 . S
O505 C490 1.266 . S
O506 Tb481 2.484 . S
O506 C491 1.248 . S
O507 Tb481 2.440 . S
O507 C491 1.266 . S
O508 Tb480 2.325 . S
O508 Tb481 2.658 . S
O508 C498 1.281 . S
O509 Tb481 2.409 . S
O509 C498 1.254 . S
O510 Tb481 2.378 . S
O510 C499 1.236 . S
O511 Tb480 2.341 . S
O511 C499 1.266 . S
H512 C484 0.929 . S
H513 C485 0.931 . S
H514 C487 0.930 . S
H515 C488 0.930 . S
H516 C493 0.929 . S
H517 C494 0.931 . S
H518 C496 0.930 . S
H519 C497 0.930 . S
Tb520 C522 2.809 . S
Tb520 O540 2.484 . S
Tb520 O541 2.440 . S
Tb520 O542 2.658 . S
Tb520 O543 2.409 . S
Tb520 O544 2.378 . S
Tb520 O548 2.325 . S
Tb520 O551 2.341 . S
Tb521 C531 2.809 . S
Tb521 O542 2.325 . S
Tb521 O545 2.341 . S
Tb521 O546 2.484 . S
Tb521 O547 2.440 . S
Tb521 O548 2.658 . S
Tb521 O549 2.409 . S
Tb521 O550 2.378 . S
C522 Tb520 2.809 . S
C522 C523 1.514 1_554 S
C522 O540 1.248 . S
C522 O541 1.266 . S
C523 C522 1.514 1_556 S
C523 C524 1.359 . S
C523 C528 1.348 . S
C524 C523 1.359 . S
C524 C525 1.380 . S
C524 H552 0.929 . S
C525 C524 1.380 . S
C525 C526 1.347 . S
C525 H553 0.931 . S
C526 C525 1.347 . S
C526 C527 1.369 . S
C527 C526 1.369 . S
C527 C528 1.408 . S
C527 H554 0.930 . S
C528 C523 1.348 . S
C528 C527 1.408 . S
C528 H555 0.930 . S
C529 O542 1.281 . S
C529 O543 1.254 . S
C530 O544 1.236 . S
C530 O545 1.266 . S
C531 Tb521 2.809 . S
C531 C532 1.514 . S
C531 O546 1.248 . S
C531 O547 1.266 . S
C532 C531 1.514 . S
C532 C533 1.359 . S
C532 C537 1.348 . S
C533 C532 1.359 . S
C533 C534 1.380 . S
C533 H556 0.929 . S
C534 C533 1.380 . S
C534 C535 1.347 . S
C534 H557 0.931 . S
C535 C534 1.347 . S
C535 C536 1.369 . S
C536 C535 1.369 . S
C536 C537 1.408 . S
C536 H558 0.930 . S
C537 C532 1.348 . S
C537 C536 1.408 . S
C537 H559 0.930 . S
C538 O548 1.281 . S
C538 O549 1.254 . S
C539 O550 1.236 . S
C539 O551 1.266 . S
O540 Tb520 2.484 . S
O540 C522 1.248 . S
O541 Tb520 2.440 . S
O541 C522 1.266 . S
O542 Tb520 2.658 . S
O542 Tb521 2.325 . S
O542 C529 1.281 . S
O543 Tb520 2.409 . S
O543 C529 1.254 . S
O544 Tb520 2.378 . S
O544 C530 1.236 . S
O545 Tb521 2.341 . S
O545 C530 1.266 . S
O546 Tb521 2.484 . S
O546 C531 1.248 . S
O547 Tb521 2.440 . S
O547 C531 1.266 . S
O548 Tb520 2.325 . S
O548 Tb521 2.658 . S
O548 C538 1.281 . S
O549 Tb521 2.409 . S
O549 C538 1.254 . S
O550 Tb521 2.378 . S
O550 C539 1.236 . S
O551 Tb520 2.341 . S
O551 C539 1.266 . S
H552 C524 0.929 . S
H553 C525 0.931 . S
H554 C527 0.930 . S
H555 C528 0.930 . S
H556 C533 0.929 . S
H557 C534 0.931 . S
H558 C536 0.930 . S
H559 C537 0.930 . S
Tb560 C562 2.809 . S
Tb560 O580 2.484 . S
Tb560 O581 2.440 . S
Tb560 O582 2.658 . S
Tb560 O583 2.409 . S
Tb560 O584 2.378 . S
Tb560 O588 2.325 . S
Tb560 O591 2.341 . S
Tb561 C571 2.809 . S
Tb561 O582 2.325 . S
Tb561 O585 2.341 . S
Tb561 O586 2.484 . S
Tb561 O587 2.440 . S
Tb561 O588 2.658 . S
Tb561 O589 2.409 . S
Tb561 O590 2.378 . S
C562 Tb560 2.809 . S
C562 C563 1.514 . S
C562 O580 1.248 . S
C562 O581 1.266 . S
C563 C562 1.514 . S
C563 C564 1.359 . S
C563 C568 1.348 . S
C564 C563 1.359 . S
C564 C565 1.380 . S
C564 H592 0.929 . S
C565 C564 1.380 . S
C565 C566 1.347 . S
C565 H593 0.931 . S
C566 C565 1.347 . S
C566 C567 1.369 . S
C567 C566 1.369 . S
C567 C568 1.408 . S
C567 H594 0.930 . S
C568 C563 1.348 . S
C568 C567 1.408 . S
C568 H595 0.930 . S
C569 O582 1.281 . S
C569 O583 1.254 . S
C570 O584 1.236 . S
C570 O585 1.266 . S
C571 Tb561 2.809 . S
C571 C572 1.514 . S
C571 O586 1.248 . S
C571 O587 1.266 . S
C572 C571 1.514 . S
C572 C573 1.359 1_554 S
C572 C577 1.348 1_554 S
C573 C572 1.359 1_556 S
C573 C574 1.380 . S
C573 H596 0.929 . S
C574 C573 1.380 . S
C574 C575 1.347 . S
C574 H597 0.931 . S
C575 C574 1.347 . S
C575 C576 1.369 . S
C576 C575 1.369 . S
C576 C577 1.408 . S
C576 H598 0.930 . S
C577 C572 1.348 1_556 S
C577 C576 1.408 . S
C577 H599 0.932 . S
C578 O588 1.281 . S
C578 O589 1.254 . S
C579 O590 1.236 . S
C579 O591 1.266 . S
O580 Tb560 2.484 . S
O580 C562 1.248 . S
O581 Tb560 2.440 . S
O581 C562 1.266 . S
O582 Tb560 2.658 . S
O582 Tb561 2.325 . S
O582 C569 1.281 . S
O583 Tb560 2.409 . S
O583 C569 1.254 . S
O584 Tb560 2.378 . S
O584 C570 1.236 . S
O585 Tb561 2.341 . S
O585 C570 1.266 . S
O586 Tb561 2.484 . S
O586 C571 1.248 . S
O587 Tb561 2.440 . S
O587 C571 1.266 . S
O588 Tb560 2.325 . S
O588 Tb561 2.658 . S
O588 C578 1.281 . S
O589 Tb561 2.409 . S
O589 C578 1.254 . S
O590 Tb561 2.378 . S
O590 C579 1.236 . S
O591 Tb560 2.341 . S
O591 C579 1.266 . S
H592 C564 0.929 . S
H593 C565 0.931 . S
H594 C567 0.930 . S
H595 C568 0.930 . S
H596 C573 0.929 . S
H597 C574 0.931 . S
H598 C576 0.930 . S
H599 C577 0.932 . S
Tb600 C602 2.809 . S
Tb600 O620 2.484 . S
Tb600 O621 2.440 . S
Tb600 O622 2.658 . S
Tb600 O623 2.409 . S
Tb600 O624 2.378 . S
Tb600 O628 2.325 . S
Tb600 O631 2.341 . S
Tb601 C611 2.809 . S
Tb601 O622 2.325 . S
Tb601 O625 2.341 . S
Tb601 O626 2.484 . S
Tb601 O627 2.440 . S
Tb601 O628 2.658 . S
Tb601 O629 2.409 . S
Tb601 O630 2.378 . S
C602 Tb600 2.809 . S
C602 C603 1.514 . S
C602 O620 1.248 . S
C602 O621 1.266 . S
C603 C602 1.514 . S
C603 C604 1.359 . S
C603 C608 1.348 . S
C604 C603 1.359 . S
C604 C605 1.380 . S
C604 H632 0.929 . S
C605 C604 1.380 . S
C605 C606 1.347 . S
C605 H633 0.931 . S
C606 C605 1.347 . S
C606 C607 1.369 . S
C607 C606 1.369 . S
C607 C608 1.408 . S
C607 H634 0.930 . S
C608 C603 1.348 . S
C608 C607 1.408 . S
C608 H635 0.930 . S
C609 O622 1.281 . S
C609 O623 1.254 . S
C610 O624 1.236 . S
C610 O625 1.266 . S
C611 Tb601 2.809 . S
C611 C612 1.514 1_554 S
C611 O626 1.248 . S
C611 O627 1.266 . S
C612 C611 1.514 1_556 S
C612 C613 1.359 . S
C612 C617 1.348 . S
C613 C612 1.359 . S
C613 C614 1.380 . S
C613 H636 0.929 . S
C614 C613 1.380 . S
C614 C615 1.347 . S
C614 H637 0.931 . S
C615 C614 1.347 . S
C615 C616 1.369 . S
C616 C615 1.369 . S
C616 C617 1.408 . S
C616 H638 0.930 . S
C617 C612 1.348 . S
C617 C616 1.408 . S
C617 H639 0.930 . S
C618 O628 1.281 . S
C618 O629 1.254 . S
C619 O630 1.236 . S
C619 O631 1.266 . S
O620 Tb600 2.484 . S
O620 C602 1.248 . S
O621 Tb600 2.440 . S
O621 C602 1.266 . S
O622 Tb600 2.658 . S
O622 Tb601 2.325 . S
O622 C609 1.281 . S
O623 Tb600 2.409 . S
O623 C609 1.254 . S
O624 Tb600 2.378 . S
O624 C610 1.236 . S
O625 Tb601 2.341 . S
O625 C610 1.266 . S
O626 Tb601 2.484 . S
O626 C611 1.248 . S
O627 Tb601 2.440 . S
O627 C611 1.266 . S
O628 Tb600 2.325 . S
O628 Tb601 2.658 . S
O628 C618 1.281 . S
O629 Tb601 2.409 . S
O629 C618 1.254 . S
O630 Tb601 2.378 . S
O630 C619 1.236 . S
O631 Tb600 2.341 . S
O631 C619 1.266 . S
H632 C604 0.929 . S
H633 C605 0.931 . S
H634 C607 0.930 . S
H635 C608 0.930 . S
H636 C613 0.929 . S
H637 C614 0.931 . S
H638 C616 0.930 . S
H639 C617 0.930 . S
Tb640 C642 2.809 . S
Tb640 O660 2.484 . S
Tb640 O661 2.440 . S
Tb640 O662 2.658 . S
Tb640 O663 2.409 . S
Tb640 O664 2.378 . S
Tb640 O668 2.325 . S
Tb640 O671 2.341 . S
Tb641 C651 2.809 . S
Tb641 O662 2.325 . S
Tb641 O665 2.341 . S
Tb641 O666 2.484 . S
Tb641 O667 2.440 . S
Tb641 O668 2.658 . S
Tb641 O669 2.409 . S
Tb641 O670 2.378 . S
C642 Tb640 2.809 . S
C642 C643 1.514 . S
C642 O660 1.248 . S
C642 O661 1.266 . S
C643 C642 1.514 . S
C643 C644 1.359 . S
C643 C648 1.348 . S
C644 C643 1.359 . S
C644 C645 1.380 1_554 S
C644 H672 0.929 . S
C645 C644 1.380 1_556 S
C645 C646 1.347 . S
C645 H673 0.931 . S
C646 C645 1.347 . S
C646 C647 1.369 . S
C647 C646 1.369 . S
C647 C648 1.408 1_556 S
C647 H674 0.930 . S
C648 C643 1.348 . S
C648 C647 1.408 1_554 S
C648 H675 0.930 . S
C649 O662 1.281 . S
C649 O663 1.254 . S
C650 O664 1.236 . S
C650 O665 1.266 . S
C651 Tb641 2.809 . S
C651 C652 1.514 . S
C651 O666 1.248 . S
C651 O667 1.266 . S
C652 C651 1.514 . S
C652 C653 1.359 . S
C652 C657 1.348 . S
C653 C652 1.359 . S
C653 C654 1.380 . S
C653 H676 0.929 . S
C654 C653 1.380 . S
C654 C655 1.347 . S
C654 H677 0.931 . S
C655 C654 1.347 . S
C655 C656 1.369 . S
C656 C655 1.369 . S
C656 C657 1.408 . S
C656 H678 0.930 . S
C657 C652 1.348 . S
C657 C656 1.408 . S
C657 H679 0.930 . S
C658 O668 1.281 . S
C658 O669 1.254 . S
C659 O670 1.236 . S
C659 O671 1.266 . S
O660 Tb640 2.484 . S
O660 C642 1.248 . S
O661 Tb640 2.440 . S
O661 C642 1.266 . S
O662 Tb640 2.658 . S
O662 Tb641 2.325 . S
O662 C649 1.281 . S
O663 Tb640 2.409 . S
O663 C649 1.254 . S
O664 Tb640 2.378 . S
O664 C650 1.236 . S
O665 Tb641 2.341 . S
O665 C650 1.266 . S
O666 Tb641 2.484 . S
O666 C651 1.248 . S
O667 Tb641 2.440 . S
O667 C651 1.266 . S
O668 Tb640 2.325 . S
O668 Tb641 2.658 . S
O668 C658 1.281 . S
O669 Tb641 2.409 . S
O669 C658 1.254 . S
O670 Tb641 2.378 . S
O670 C659 1.236 . S
O671 Tb640 2.341 . S
O671 C659 1.266 . S
H672 C644 0.929 . S
H673 C645 0.931 . S
H674 C647 0.930 . S
H675 C648 0.930 . S
H676 C653 0.929 . S
H677 C654 0.931 . S
H678 C656 0.930 . S
H679 C657 0.930 . S
Tb680 C682 2.809 . S
Tb680 O700 2.484 . S
Tb680 O701 2.440 . S
Tb680 O702 2.658 . S
Tb680 O703 2.409 . S
Tb680 O704 2.378 . S
Tb680 O708 2.325 . S
Tb680 O711 2.341 . S
Tb681 C691 2.809 . S
Tb681 O702 2.325 . S
Tb681 O705 2.341 . S
Tb681 O706 2.484 . S
Tb681 O707 2.440 . S
Tb681 O708 2.658 . S
Tb681 O709 2.409 . S
Tb681 O710 2.378 . S
C682 Tb680 2.809 . S
C682 C683 1.514 . S
C682 O700 1.248 . S
C682 O701 1.266 . S
C683 C682 1.514 . S
C683 C684 1.359 . S
C683 C688 1.348 . S
C684 C683 1.359 . S
C684 C685 1.380 . S
C684 H712 0.929 . S
C685 C684 1.380 . S
C685 C686 1.347 . S
C685 H713 0.931 . S
C686 C685 1.347 . S
C686 C687 1.369 . S
C687 C686 1.369 . S
C687 C688 1.408 . S
C687 H714 0.930 . S
C688 C683 1.348 . S
C688 C687 1.408 . S
C688 H715 0.930 . S
C689 O702 1.281 . S
C689 O703 1.254 . S
C690 O704 1.236 . S
C690 O705 1.266 . S
C691 Tb681 2.809 . S
C691 C692 1.514 . S
C691 O706 1.248 . S
C691 O707 1.266 . S
C692 C691 1.514 . S
C692 C693 1.359 . S
C692 C697 1.348 . S
C693 C692 1.359 . S
C693 C694 1.380 1_554 S
C693 H716 0.929 . S
C694 C693 1.380 1_556 S
C694 C695 1.347 . S
C694 H717 0.931 . S
C695 C694 1.347 . S
C695 C696 1.369 . S
C696 C695 1.369 . S
C696 C697 1.408 1_556 S
C696 H718 0.930 . S
C697 C692 1.348 . S
C697 C696 1.408 1_554 S
C697 H719 0.930 . S
C698 O708 1.281 . S
C698 O709 1.254 . S
C699 O710 1.236 . S
C699 O711 1.266 . S
O700 Tb680 2.484 . S
O700 C682 1.248 . S
O701 Tb680 2.440 . S
O701 C682 1.266 . S
O702 Tb680 2.658 . S
O702 Tb681 2.325 . S
O702 C689 1.281 . S
O703 Tb680 2.409 . S
O703 C689 1.254 . S
O704 Tb680 2.378 . S
O704 C690 1.236 . S
O705 Tb681 2.341 . S
O705 C690 1.266 . S
O706 Tb681 2.484 . S
O706 C691 1.248 . S
O707 Tb681 2.440 . S
O707 C691 1.266 . S
O708 Tb680 2.325 . S
O708 Tb681 2.658 . S
O708 C698 1.281 . S
O709 Tb681 2.409 . S
O709 C698 1.254 . S
O710 Tb681 2.378 . S
O710 C699 1.236 . S
O711 Tb680 2.341 . S
O711 C699 1.266 . S
H712 C684 0.929 . S
H713 C685 0.931 . S
H714 C687 0.930 . S
H715 C688 0.930 . S
H716 C693 0.929 . S
H717 C694 0.931 . S
H718 C696 0.930 . S
H719 C697 0.930 . S
C720 C721 1.349 . S
C720 C722 1.327 . S
C720 H745 0.950 . S
C721 C720 1.349 . S
C721 C737 1.349 . S
C722 C720 1.327 . S
C722 C741 1.429 . S
C722 H746 0.950 . S
C723 C740 1.574 . S
C723 C742 1.368 . S
C723 H747 0.949 . S
H724 C728 0.949 . S
C725 C726 1.349 . S
C725 C727 1.327 . S
C725 H748 0.950 . S
C726 C725 1.349 . S
C726 C738 1.349 . S
C727 C725 1.327 . S
C727 C743 1.429 . S
C727 H749 0.950 . S
C728 H724 0.949 . S
C728 C736 1.574 . S
C728 C744 1.368 . S
H729 C737 0.950 . S
H730 C735 0.950 . S
H731 C736 0.949 . S
H732 C738 0.950 . S
H733 C739 0.950 . S
H734 C740 0.949 . S
C735 H730 0.950 . S
C735 C737 1.327 . S
C735 C741 1.429 . S
C736 C728 1.574 . S
C736 H731 0.949 . S
C736 C742 1.368 . S
C737 C721 1.349 . S
C737 H729 0.950 . S
C737 C735 1.327 . S
C738 C726 1.349 . S
C738 H732 0.950 . S
C738 C739 1.327 . S
C739 H733 0.950 . S
C739 C738 1.327 . S
C739 C743 1.429 . S
C740 C723 1.574 . S
C740 H734 0.949 . S
C740 C744 1.368 . S
C741 C722 1.429 . S
C741 C735 1.429 . S
C741 C742 1.523 . S
C742 C723 1.368 . S
C742 C736 1.368 . S
C742 C741 1.523 . S
C743 C727 1.429 . S
C743 C739 1.429 . S
C743 C744 1.523 . S
C744 C728 1.368 . S
C744 C740 1.368 . S
C744 C743 1.523 . S
H745 C720 0.950 . S
H746 C722 0.950 . S
H747 C723 0.949 . S
H748 C725 0.950 . S
H749 C727 0.950 . S
C750 C751 1.349 . S
C750 C752 1.327 . S
C750 H775 0.950 . S
C751 C750 1.349 . S
C751 C767 1.349 . S
C752 C750 1.327 . S
C752 C771 1.429 . S
C752 H776 0.950 . S
C753 C770 1.574 . S
C753 C772 1.368 . S
C753 H777 0.949 . S
H754 C758 0.949 . S
C755 C756 1.349 . S
C755 C757 1.327 . S
C755 H778 0.950 . S
C756 C755 1.349 . S
C756 C768 1.349 . S
C757 C755 1.327 . S
C757 C773 1.429 . S
C757 H779 0.950 . S
C758 H754 0.949 . S
C758 C766 1.574 . S
C758 C774 1.368 . S
H759 C767 0.950 . S
H760 C765 0.950 . S
H761 C766 0.949 . S
H762 C768 0.950 . S
H763 C769 0.950 . S
H764 C770 0.949 . S
C765 H760 0.950 . S
C765 C767 1.327 . S
C765 C771 1.429 . S
C766 C758 1.574 . S
C766 H761 0.949 . S
C766 C772 1.368 . S
C767 C751 1.349 . S
C767 H759 0.950 . S
C767 C765 1.327 . S
C768 C756 1.349 . S
C768 H762 0.950 . S
C768 C769 1.327 . S
C769 H763 0.950 . S
C769 C768 1.327 . S
C769 C773 1.429 . S
C770 C753 1.574 . S
C770 H764 0.949 . S
C770 C774 1.368 . S
C771 C752 1.429 . S
C771 C765 1.429 . S
C771 C772 1.523 . S
C772 C753 1.368 . S
C772 C766 1.368 . S
C772 C771 1.523 . S
C773 C757 1.429 . S
C773 C769 1.429 . S
C773 C774 1.523 . S
C774 C758 1.368 . S
C774 C770 1.368 . S
C774 C773 1.523 . S
H775 C750 0.950 . S
H776 C752 0.950 . S
H777 C753 0.949 . S
H778 C755 0.950 . S
H779 C757 0.950 . S
C780 C781 1.349 . S
C780 C782 1.327 . S
C780 H805 0.950 . S
C781 C780 1.349 . S
C781 C797 1.349 . S
C782 C780 1.327 . S
C782 C801 1.429 . S
C782 H806 0.950 . S
C783 C800 1.574 . S
C783 C802 1.368 . S
C783 H807 0.949 . S
H784 C788 0.949 . S
C785 C786 1.349 . S
C785 C787 1.327 . S
C785 H808 0.950 . S
C786 C785 1.349 . S
C786 C798 1.349 . S
C787 C785 1.327 . S
C787 C803 1.429 . S
C787 H809 0.950 . S
C788 H784 0.949 . S
C788 C796 1.574 . S
C788 C804 1.368 . S
H789 C797 0.950 . S
H790 C795 0.950 . S
H791 C796 0.949 . S
H792 C798 0.950 . S
H793 C799 0.950 . S
H794 C800 0.949 . S
C795 H790 0.950 . S
C795 C797 1.327 . S
C795 C801 1.429 . S
C796 C788 1.574 . S
C796 H791 0.949 . S
C796 C802 1.368 . S
C797 C781 1.349 . S
C797 H789 0.950 . S
C797 C795 1.327 . S
C798 C786 1.349 . S
C798 H792 0.950 . S
C798 C799 1.327 . S
C799 H793 0.950 . S
C799 C798 1.327 . S
C799 C803 1.429 . S
C800 C783 1.574 . S
C800 H794 0.949 . S
C800 C804 1.368 . S
C801 C782 1.429 . S
C801 C795 1.429 . S
C801 C802 1.523 . S
C802 C783 1.368 . S
C802 C796 1.368 . S
C802 C801 1.523 . S
C803 C787 1.429 . S
C803 C799 1.429 . S
C803 C804 1.523 . S
C804 C788 1.368 . S
C804 C800 1.368 . S
C804 C803 1.523 . S
H805 C780 0.950 . S
H806 C782 0.950 . S
H807 C783 0.949 . S
H808 C785 0.950 . S
H809 C787 0.950 . S
C810 C811 1.349 . S
C810 C812 1.327 . S
C810 H835 0.950 . S
C811 C810 1.349 . S
C811 C827 1.349 . S
C812 C810 1.327 . S
C812 C831 1.429 . S
C812 H836 0.950 . S
C813 C830 1.574 . S
C813 C832 1.368 . S
C813 H837 0.949 . S
H814 C818 0.949 . S
C815 C816 1.349 . S
C815 C817 1.327 . S
C815 H838 0.950 . S
C816 C815 1.349 . S
C816 C828 1.349 . S
C817 C815 1.327 . S
C817 C833 1.429 . S
C817 H839 0.950 . S
C818 H814 0.949 . S
C818 C826 1.574 . S
C818 C834 1.368 . S
H819 C827 0.950 . S
H820 C825 0.950 . S
H821 C826 0.949 . S
H822 C828 0.950 . S
H823 C829 0.950 . S
H824 C830 0.949 . S
C825 H820 0.950 . S
C825 C827 1.327 . S
C825 C831 1.429 . S
C826 C818 1.574 . S
C826 H821 0.949 . S
C826 C832 1.368 . S
C827 C811 1.349 . S
C827 H819 0.950 . S
C827 C825 1.327 . S
C828 C816 1.349 . S
C828 H822 0.950 . S
C828 C829 1.327 . S
C829 H823 0.950 . S
C829 C828 1.327 . S
C829 C833 1.429 . S
C830 C813 1.574 . S
C830 H824 0.949 . S
C830 C834 1.368 . S
C831 C812 1.429 . S
C831 C825 1.429 . S
C831 C832 1.523 . S
C832 C813 1.368 . S
C832 C826 1.368 . S
C832 C831 1.523 . S
C833 C817 1.429 . S
C833 C829 1.429 . S
C833 C834 1.523 . S
C834 C818 1.368 . S
C834 C830 1.368 . S
C834 C833 1.523 . S
H835 C810 0.950 . S
H836 C812 0.950 . S
H837 C813 0.949 . S
H838 C815 0.950 . S
H839 C817 0.950 . S
C840 C841 1.349 . S
C840 C842 1.327 . S
C840 H865 0.950 . S
C841 C840 1.349 . S
C841 C857 1.349 . S
C842 C840 1.327 . S
C842 C861 1.429 . S
C842 H866 0.950 . S
C843 C860 1.574 . S
C843 C862 1.368 . S
C843 H867 0.949 . S
H844 C848 0.949 . S
C845 C846 1.349 . S
C845 C847 1.327 . S
C845 H868 0.950 . S
C846 C845 1.349 . S
C846 C858 1.349 . S
C847 C845 1.327 . S
C847 C863 1.429 . S
C847 H869 0.950 . S
C848 H844 0.949 . S
C848 C856 1.574 . S
C848 C864 1.368 . S
H849 C857 0.950 . S
H850 C855 0.950 . S
H851 C856 0.949 . S
H852 C858 0.950 . S
H853 C859 0.950 . S
H854 C860 0.949 . S
C855 H850 0.950 . S
C855 C857 1.327 . S
C855 C861 1.429 . S
C856 C848 1.574 . S
C856 H851 0.949 . S
C856 C862 1.368 . S
C857 C841 1.349 . S
C857 H849 0.950 . S
C857 C855 1.327 . S
C858 C846 1.349 . S
C858 H852 0.950 . S
C858 C859 1.327 . S
C859 H853 0.950 . S
C859 C858 1.327 . S
C859 C863 1.429 . S
C860 C843 1.574 . S
C860 H854 0.949 . S
C860 C864 1.368 . S
C861 C842 1.429 . S
C861 C855 1.429 . S
C861 C862 1.523 . S
C862 C843 1.368 . S
C862 C856 1.368 . S
C862 C861 1.523 . S
C863 C847 1.429 . S
C863 C859 1.429 . S
C863 C864 1.523 . S
C864 C848 1.368 . S
C864 C860 1.368 . S
C864 C863 1.523 . S
H865 C840 0.950 . S
H866 C842 0.950 . S
H867 C843 0.949 . S
H868 C845 0.950 . S
H869 C847 0.950 . S
C870 C871 1.349 . S
C870 C872 1.327 . S
C870 H895 0.950 . S
C871 C870 1.349 . S
C871 C887 1.349 . S
C872 C870 1.327 . S
C872 C891 1.429 . S
C872 H896 0.950 . S
C873 C890 1.574 . S
C873 C892 1.368 . S
C873 H897 0.949 . S
H874 C878 0.949 . S
C875 C876 1.349 . S
C875 C877 1.327 . S
C875 H898 0.950 . S
C876 C875 1.349 . S
C876 C888 1.349 . S
C877 C875 1.327 . S
C877 C893 1.429 . S
C877 H899 0.950 . S
C878 H874 0.949 . S
C878 C886 1.574 . S
C878 C894 1.368 . S
H879 C887 0.950 . S
H880 C885 0.950 . S
H881 C886 0.949 . S
H882 C888 0.950 . S
H883 C889 0.950 . S
H884 C890 0.949 . S
C885 H880 0.950 . S
C885 C887 1.327 . S
C885 C891 1.429 . S
C886 C878 1.574 . S
C886 H881 0.949 . S
C886 C892 1.368 . S
C887 C871 1.349 . S
C887 H879 0.950 . S
C887 C885 1.327 . S
C888 C876 1.349 . S
C888 H882 0.950 . S
C888 C889 1.327 . S
C889 H883 0.950 . S
C889 C888 1.327 . S
C889 C893 1.429 . S
C890 C873 1.574 . S
C890 H884 0.949 . S
C890 C894 1.368 . S
C891 C872 1.429 . S
C891 C885 1.429 . S
C891 C892 1.523 . S
C892 C873 1.368 . S
C892 C886 1.368 . S
C892 C891 1.523 . S
C893 C877 1.429 . S
C893 C889 1.429 . S
C893 C894 1.523 . S
C894 C878 1.368 . S
C894 C890 1.368 . S
C894 C893 1.523 . S
H895 C870 0.950 . S
H896 C872 0.950 . S
H897 C873 0.949 . S
H898 C875 0.950 . S
H899 C877 0.950 . S
C900 C901 1.349 . S
C900 C902 1.327 . S
C900 H925 0.950 . S
C901 C900 1.349 . S
C901 C917 1.349 . S
C902 C900 1.327 . S
C902 C921 1.429 . S
C902 H926 0.950 . S
C903 C920 1.574 . S
C903 C922 1.368 . S
C903 H927 0.949 . S
H904 C908 0.949 . S
C905 C906 1.349 . S
C905 C907 1.327 . S
C905 H928 0.950 . S
C906 C905 1.349 . S
C906 C918 1.349 . S
C907 C905 1.327 . S
C907 C923 1.429 . S
C907 H929 0.950 . S
C908 H904 0.949 . S
C908 C916 1.574 . S
C908 C924 1.368 . S
H909 C917 0.950 . S
H910 C915 0.950 . S
H911 C916 0.949 . S
H912 C918 0.950 . S
H913 C919 0.950 . S
H914 C920 0.949 . S
C915 H910 0.950 . S
C915 C917 1.327 . S
C915 C921 1.429 . S
C916 C908 1.574 . S
C916 H911 0.949 . S
C916 C922 1.368 . S
C917 C901 1.349 . S
C917 H909 0.950 . S
C917 C915 1.327 . S
C918 C906 1.349 . S
C918 H912 0.950 . S
C918 C919 1.327 . S
C919 H913 0.950 . S
C919 C918 1.327 . S
C919 C923 1.429 . S
C920 C903 1.574 . S
C920 H914 0.949 . S
C920 C924 1.368 . S
C921 C902 1.429 . S
C921 C915 1.429 . S
C921 C922 1.523 . S
C922 C903 1.368 . S
C922 C916 1.368 . S
C922 C921 1.523 . S
C923 C907 1.429 . S
C923 C919 1.429 . S
C923 C924 1.523 . S
C924 C908 1.368 . S
C924 C920 1.368 . S
C924 C923 1.523 . S
H925 C900 0.950 . S
H926 C902 0.950 . S
H927 C903 0.949 . S
H928 C905 0.950 . S
H929 C907 0.950 . S
C930 C931 1.349 . S
C930 C932 1.327 . S
C930 H955 0.950 . S
C931 C930 1.349 . S
C931 C947 1.349 . S
C932 C930 1.327 . S
C932 C951 1.429 . S
C932 H956 0.950 . S
C933 C950 1.574 . S
C933 C952 1.368 . S
C933 H957 0.949 . S
H934 C938 0.949 . S
C935 C936 1.349 . S
C935 C937 1.327 . S
C935 H958 0.950 . S
C936 C935 1.349 . S
C936 C948 1.349 . S
C937 C935 1.327 . S
C937 C953 1.429 . S
C937 H959 0.950 . S
C938 H934 0.949 . S
C938 C946 1.574 . S
C938 C954 1.368 . S
H939 C947 0.950 . S
H940 C945 0.950 . S
H941 C946 0.949 . S
H942 C948 0.950 . S
H943 C949 0.950 . S
H944 C950 0.949 . S
C945 H940 0.950 . S
C945 C947 1.327 . S
C945 C951 1.429 . S
C946 C938 1.574 . S
C946 H941 0.949 . S
C946 C952 1.368 . S
C947 C931 1.349 . S
C947 H939 0.950 . S
C947 C945 1.327 . S
C948 C936 1.349 . S
C948 H942 0.950 . S
C948 C949 1.327 . S
C949 H943 0.950 . S
C949 C948 1.327 . S
C949 C953 1.429 . S
C950 C933 1.574 . S
C950 H944 0.949 . S
C950 C954 1.368 . S
C951 C932 1.429 . S
C951 C945 1.429 . S
C951 C952 1.523 . S
C952 C933 1.368 . S
C952 C946 1.368 . S
C952 C951 1.523 . S
C953 C937 1.429 . S
C953 C949 1.429 . S
C953 C954 1.523 . S
C954 C938 1.368 . S
C954 C950 1.368 . S
C954 C953 1.523 . S
H955 C930 0.950 . S
H956 C932 0.950 . S
H957 C933 0.949 . S
H958 C935 0.950 . S
H959 C937 0.950 . S
C960 C961 1.349 . S
C960 C962 1.327 . S
C960 H985 0.950 . S
C961 C960 1.349 . S
C961 C977 1.349 . S
C962 C960 1.327 . S
C962 C981 1.429 . S
C962 H986 0.950 . S
C963 C980 1.574 . S
C963 C982 1.368 . S
C963 H987 0.949 . S
H964 C968 0.949 . S
C965 C966 1.349 . S
C965 C967 1.327 . S
C965 H988 0.950 . S
C966 C965 1.349 . S
C966 C978 1.349 . S
C967 C965 1.327 . S
C967 C983 1.429 . S
C967 H989 0.950 . S
C968 H964 0.949 . S
C968 C976 1.574 . S
C968 C984 1.368 . S
H969 C977 0.950 . S
H970 C975 0.950 . S
H971 C976 0.949 . S
H972 C978 0.950 . S
H973 C979 0.950 . S
H974 C980 0.949 . S
C975 H970 0.950 . S
C975 C977 1.327 . S
C975 C981 1.429 . S
C976 C968 1.574 . S
C976 H971 0.949 . S
C976 C982 1.368 . S
C977 C961 1.349 . S
C977 H969 0.950 . S
C977 C975 1.327 . S
C978 C966 1.349 . S
C978 H972 0.950 . S
C978 C979 1.327 . S
C979 H973 0.950 . S
C979 C978 1.327 . S
C979 C983 1.429 . S
C980 C963 1.574 . S
C980 H974 0.949 . S
C980 C984 1.368 . S
C981 C962 1.429 . S
C981 C975 1.429 . S
C981 C982 1.523 . S
C982 C963 1.368 . S
C982 C976 1.368 . S
C982 C981 1.523 . S
C983 C967 1.429 . S
C983 C979 1.429 . S
C983 C984 1.523 . S
C984 C968 1.368 . S
C984 C980 1.368 . S
C984 C983 1.523 . S
H985 C960 0.950 . S
H986 C962 0.950 . S
H987 C963 0.949 . S
H988 C965 0.950 . S
H989 C967 0.950 . S
C990 C991 1.349 . S
C990 C992 1.327 . S
C990 H1015 0.950 . S
C991 C990 1.349 . S
C991 C1007 1.349 . S
C992 C990 1.327 . S
C992 C1011 1.429 . S
C992 H1016 0.950 . S
C993 C1010 1.574 . S
C993 C1012 1.368 . S
C993 H1017 0.949 . S
H994 C998 0.949 . S
C995 C996 1.349 . S
C995 C997 1.327 . S
C995 H1018 0.950 . S
C996 C995 1.349 . S
C996 C1008 1.349 . S
C997 C995 1.327 . S
C997 C1013 1.429 . S
C997 H1019 0.950 . S
C998 H994 0.949 . S
C998 C1006 1.574 . S
C998 C1014 1.368 . S
H999 C1007 0.950 . S
H1000 C1005 0.950 . S
H1001 C1006 0.949 . S
H1002 C1008 0.950 . S
H1003 C1009 0.950 . S
H1004 C1010 0.949 . S
C1005 H1000 0.950 . S
C1005 C1007 1.327 . S
C1005 C1011 1.429 . S
C1006 C998 1.574 . S
C1006 H1001 0.949 . S
C1006 C1012 1.368 . S
C1007 C991 1.349 . S
C1007 H999 0.950 . S
C1007 C1005 1.327 . S
C1008 C996 1.349 . S
C1008 H1002 0.950 . S
C1008 C1009 1.327 . S
C1009 H1003 0.950 . S
C1009 C1008 1.327 . S
C1009 C1013 1.429 . S
C1010 C993 1.574 . S
C1010 H1004 0.949 . S
C1010 C1014 1.368 . S
C1011 C992 1.429 . S
C1011 C1005 1.429 . S
C1011 C1012 1.523 . S
C1012 C993 1.368 . S
C1012 C1006 1.368 . S
C1012 C1011 1.523 . S
C1013 C997 1.429 . S
C1013 C1009 1.429 . S
C1013 C1014 1.523 . S
C1014 C998 1.368 . S
C1014 C1010 1.368 . S
C1014 C1013 1.523 . S
H1015 C990 0.950 . S
H1016 C992 0.950 . S
H1017 C993 0.949 . S
H1018 C995 0.950 . S
H1019 C997 0.950 . S
C1020 C1021 1.349 . S
C1020 C1022 1.327 . S
C1020 H1045 0.950 . S
C1021 C1020 1.349 . S
C1021 C1037 1.349 . S
C1022 C1020 1.327 . S
C1022 C1041 1.429 . S
C1022 H1046 0.950 . S
C1023 C1040 1.574 . S
C1023 C1042 1.368 . S
C1023 H1047 0.949 . S
H1024 C1028 0.949 . S
C1025 C1026 1.349 . S
C1025 C1027 1.327 . S
C1025 H1048 0.950 . S
C1026 C1025 1.349 . S
C1026 C1038 1.349 . S
C1027 C1025 1.327 . S
C1027 C1043 1.429 . S
C1027 H1049 0.950 . S
C1028 H1024 0.949 . S
C1028 C1036 1.574 . S
C1028 C1044 1.368 . S
H1029 C1037 0.950 . S
H1030 C1035 0.950 . S
H1031 C1036 0.949 . S
H1032 C1038 0.950 . S
H1033 C1039 0.950 . S
H1034 C1040 0.949 . S
C1035 H1030 0.950 . S
C1035 C1037 1.327 . S
C1035 C1041 1.429 . S
C1036 C1028 1.574 . S
C1036 H1031 0.949 . S
C1036 C1042 1.368 . S
C1037 C1021 1.349 . S
C1037 H1029 0.950 . S
C1037 C1035 1.327 . S
C1038 C1026 1.349 . S
C1038 H1032 0.950 . S
C1038 C1039 1.327 . S
C1039 H1033 0.950 . S
C1039 C1038 1.327 . S
C1039 C1043 1.429 . S
C1040 C1023 1.574 . S
C1040 H1034 0.949 . S
C1040 C1044 1.368 . S
C1041 C1022 1.429 . S
C1041 C1035 1.429 . S
C1041 C1042 1.523 . S
C1042 C1023 1.368 . S
C1042 C1036 1.368 . S
C1042 C1041 1.523 . S
C1043 C1027 1.429 . S
C1043 C1039 1.429 . S
C1043 C1044 1.523 . S
C1044 C1028 1.368 . S
C1044 C1040 1.368 . S
C1044 C1043 1.523 . S
H1045 C1020 0.950 . S
H1046 C1022 0.950 . S
H1047 C1023 0.949 . S
H1048 C1025 0.950 . S
H1049 C1027 0.950 . S
C1050 C1051 1.349 . S
C1050 C1052 1.327 . S
C1050 H1075 0.950 . S
C1051 C1050 1.349 . S
C1051 C1067 1.349 . S
C1052 C1050 1.327 . S
C1052 C1071 1.429 . S
C1052 H1076 0.950 . S
C1053 C1070 1.574 . S
C1053 C1072 1.368 . S
C1053 H1077 0.949 . S
H1054 C1058 0.949 . S
C1055 C1056 1.349 . S
C1055 C1057 1.327 . S
C1055 H1078 0.950 . S
C1056 C1055 1.349 . S
C1056 C1068 1.349 . S
C1057 C1055 1.327 . S
C1057 C1073 1.429 . S
C1057 H1079 0.950 . S
C1058 H1054 0.949 . S
C1058 C1066 1.574 . S
C1058 C1074 1.368 . S
H1059 C1067 0.950 . S
H1060 C1065 0.950 . S
H1061 C1066 0.949 . S
H1062 C1068 0.950 . S
H1063 C1069 0.950 . S
H1064 C1070 0.949 . S
C1065 H1060 0.950 . S
C1065 C1067 1.327 . S
C1065 C1071 1.429 . S
C1066 C1058 1.574 . S
C1066 H1061 0.949 . S
C1066 C1072 1.368 . S
C1067 C1051 1.349 . S
C1067 H1059 0.950 . S
C1067 C1065 1.327 . S
C1068 C1056 1.349 . S
C1068 H1062 0.950 . S
C1068 C1069 1.327 . S
C1069 H1063 0.950 . S
C1069 C1068 1.327 . S
C1069 C1073 1.429 . S
C1070 C1053 1.574 . S
C1070 H1064 0.949 . S
C1070 C1074 1.368 . S
C1071 C1052 1.429 . S
C1071 C1065 1.429 . S
C1071 C1072 1.523 . S
C1072 C1053 1.368 . S
C1072 C1066 1.368 . S
C1072 C1071 1.523 . S
C1073 C1057 1.429 . S
C1073 C1069 1.429 . S
C1073 C1074 1.523 . S
C1074 C1058 1.368 . S
C1074 C1070 1.368 . S
C1074 C1073 1.523 . S
H1075 C1050 0.950 . S
H1076 C1052 0.950 . S
H1077 C1053 0.949 . S
H1078 C1055 0.950 . S
H1079 C1057 0.950 . S
C1080 C1081 1.349 . S
C1080 C1082 1.327 . S
C1080 H1105 0.950 . S
C1081 C1080 1.349 . S
C1081 C1097 1.349 . S
C1082 C1080 1.327 . S
C1082 C1101 1.429 . S
C1082 H1106 0.950 . S
C1083 C1100 1.574 1_656 S
C1083 C1102 1.368 . S
C1083 H1107 0.949 . S
H1084 C1088 0.949 . S
C1085 C1086 1.349 . S
C1085 C1087 1.327 . S
C1085 H1108 0.950 . S
C1086 C1085 1.349 . S
C1086 C1098 1.349 . S
C1087 C1085 1.327 . S
C1087 C1103 1.429 . S
C1087 H1109 0.950 . S
C1088 H1084 0.949 . S
C1088 C1096 1.574 1_455 S
C1088 C1104 1.368 1_556 S
H1089 C1097 0.950 . S
H1090 C1095 0.950 . S
H1091 C1096 0.949 . S
H1092 C1098 0.950 . S
H1093 C1099 0.950 . S
H1094 C1100 0.949 . S
C1095 H1090 0.950 . S
C1095 C1097 1.327 . S
C1095 C1101 1.429 . S
C1096 C1088 1.574 1_655 S
C1096 H1091 0.949 . S
C1096 C1102 1.368 . S
C1097 C1081 1.349 . S
C1097 H1089 0.950 . S
C1097 C1095 1.327 . S
C1098 C1086 1.349 . S
C1098 H1092 0.950 . S
C1098 C1099 1.327 . S
C1099 H1093 0.950 . S
C1099 C1098 1.327 . S
C1099 C1103 1.429 . S
C1100 C1083 1.574 1_454 S
C1100 H1094 0.949 . S
C1100 C1104 1.368 . S
C1101 C1082 1.429 . S
C1101 C1095 1.429 . S
C1101 C1102 1.523 . S
C1102 C1083 1.368 . S
C1102 C1096 1.368 . S
C1102 C1101 1.523 . S
C1103 C1087 1.429 . S
C1103 C1099 1.429 . S
C1103 C1104 1.523 . S
C1104 C1088 1.368 1_554 S
C1104 C1100 1.368 . S
C1104 C1103 1.523 . S
H1105 C1080 0.950 . S
H1106 C1082 0.950 . S
H1107 C1083 0.949 . S
H1108 C1085 0.950 . S
H1109 C1087 0.950 . S
C1110 C1111 1.349 . S
C1110 C1112 1.327 . S
C1110 H1135 0.950 . S
C1111 C1110 1.349 . S
C1111 C1127 1.349 . S
C1112 C1110 1.327 . S
C1112 C1131 1.429 . S
C1112 H1136 0.950 . S
C1113 C1130 1.574 . S
C1113 C1132 1.368 . S
C1113 H1137 0.949 . S
H1114 C1118 0.949 . S
C1115 C1116 1.349 . S
C1115 C1117 1.327 . S
C1115 H1138 0.950 . S
C1116 C1115 1.349 . S
C1116 C1128 1.349 . S
C1117 C1115 1.327 . S
C1117 C1133 1.429 . S
C1117 H1139 0.950 . S
C1118 H1114 0.949 . S
C1118 C1126 1.574 1_554 S
C1118 C1134 1.368 . S
H1119 C1127 0.950 . S
H1120 C1125 0.950 . S
H1121 C1126 0.949 . S
H1122 C1128 0.950 . S
H1123 C1129 0.950 . S
H1124 C1130 0.949 . S
C1125 H1120 0.950 . S
C1125 C1127 1.327 . S
C1125 C1131 1.429 . S
C1126 C1118 1.574 1_556 S
C1126 H1121 0.949 . S
C1126 C1132 1.368 . S
C1127 C1111 1.349 . S
C1127 H1119 0.950 . S
C1127 C1125 1.327 . S
C1128 C1116 1.349 . S
C1128 H1122 0.950 . S
C1128 C1129 1.327 . S
C1129 H1123 0.950 . S
C1129 C1128 1.327 . S
C1129 C1133 1.429 . S
C1130 C1113 1.574 . S
C1130 H1124 0.949 . S
C1130 C1134 1.368 1_556 S
C1131 C1112 1.429 . S
C1131 C1125 1.429 . S
C1131 C1132 1.523 . S
C1132 C1113 1.368 . S
C1132 C1126 1.368 . S
C1132 C1131 1.523 . S
C1133 C1117 1.429 . S
C1133 C1129 1.429 . S
C1133 C1134 1.523 . S
C1134 C1118 1.368 . S
C1134 C1130 1.368 1_554 S
C1134 C1133 1.523 . S
H1135 C1110 0.950 . S
H1136 C1112 0.950 . S
H1137 C1113 0.949 . S
H1138 C1115 0.950 . S
H1139 C1117 0.950 . S
C1140 C1141 1.349 . S
C1140 C1142 1.327 . S
C1140 H1165 0.950 . S
C1141 C1140 1.349 . S
C1141 C1157 1.349 . S
C1142 C1140 1.327 . S
C1142 C1161 1.429 . S
C1142 H1166 0.950 . S
C1143 C1160 1.574 1_545 S
C1143 C1162 1.368 . S
C1143 H1167 0.949 . S
H1144 C1148 0.949 . S
C1145 C1146 1.349 . S
C1145 C1147 1.327 . S
C1145 H1168 0.950 . S
C1146 C1145 1.349 . S
C1146 C1158 1.349 . S
C1147 C1145 1.327 . S
C1147 C1163 1.429 . S
C1147 H1169 0.950 . S
C1148 H1144 0.949 . S
C1148 C1156 1.574 1_565 S
C1148 C1164 1.368 . S
H1149 C1157 0.950 . S
H1150 C1155 0.950 . S
H1151 C1156 0.949 . S
H1152 C1158 0.950 . S
H1153 C1159 0.950 . S
H1154 C1160 0.949 . S
C1155 H1150 0.950 . S
C1155 C1157 1.327 . S
C1155 C1161 1.429 . S
C1156 C1148 1.574 1_545 S
C1156 H1151 0.949 . S
C1156 C1162 1.368 . S
C1157 C1141 1.349 . S
C1157 H1149 0.950 . S
C1157 C1155 1.327 . S
C1158 C1146 1.349 . S
C1158 H1152 0.950 . S
C1158 C1159 1.327 . S
C1159 H1153 0.950 . S
C1159 C1158 1.327 . S
C1159 C1163 1.429 . S
C1160 C1143 1.574 1_565 S
C1160 H1154 0.949 . S
C1160 C1164 1.368 . S
C1161 C1142 1.429 . S
C1161 C1155 1.429 . S
C1161 C1162 1.523 . S
C1162 C1143 1.368 . S
C1162 C1156 1.368 . S
C1162 C1161 1.523 . S
C1163 C1147 1.429 . S
C1163 C1159 1.429 . S
C1163 C1164 1.523 1_554 S
C1164 C1148 1.368 . S
C1164 C1160 1.368 . S
C1164 C1163 1.523 1_556 S
H1165 C1140 0.950 . S
H1166 C1142 0.950 . S
H1167 C1143 0.949 . S
H1168 C1145 0.950 . S
H1169 C1147 0.950 . S
C1170 C1171 1.349 . S
C1170 C1172 1.327 . S
C1170 H1195 0.950 . S
C1171 C1170 1.349 . S
C1171 C1187 1.349 . S
C1172 C1170 1.327 . S
C1172 C1191 1.429 . S
C1172 H1196 0.950 . S
C1173 C1190 1.574 . S
C1173 C1192 1.368 1_554 S
C1173 H1197 0.949 . S
H1174 C1178 0.949 . S
C1175 C1176 1.349 . S
C1175 C1177 1.327 . S
C1175 H1198 0.950 . S
C1176 C1175 1.349 . S
C1176 C1188 1.349 . S
C1177 C1175 1.327 . S
C1177 C1193 1.429 . S
C1177 H1199 0.950 . S
C1178 H1174 0.949 . S
C1178 C1186 1.574 1_565 S
C1178 C1194 1.368 1_556 S
H1179 C1187 0.950 . S
H1180 C1185 0.950 . S
H1181 C1186 0.946 . S
H1182 C1188 0.950 . S
H1183 C1189 0.950 . S
H1184 C1190 0.949 . S
C1185 H1180 0.950 . S
C1185 C1187 1.327 . S
C1185 C1191 1.429 . S
C1186 C1178 1.574 1_545 S
C1186 H1181 0.946 . S
C1186 C1192 1.368 . S
C1187 C1171 1.349 . S
C1187 H1179 0.950 . S
C1187 C1185 1.327 . S
C1188 C1176 1.349 . S
C1188 H1182 0.950 . S
C1188 C1189 1.327 . S
C1189 H1183 0.950 . S
C1189 C1188 1.327 . S
C1189 C1193 1.429 . S
C1190 C1173 1.574 . S
C1190 H1184 0.949 . S
C1190 C1194 1.368 1_545 S
C1191 C1172 1.429 . S
C1191 C1185 1.429 . S
C1191 C1192 1.523 . S
C1192 C1173 1.368 1_556 S
C1192 C1186 1.368 . S
C1192 C1191 1.523 . S
C1193 C1177 1.429 . S
C1193 C1189 1.429 . S
C1193 C1194 1.523 . S
C1194 C1178 1.368 1_554 S
C1194 C1190 1.368 1_565 S
C1194 C1193 1.523 . S
H1195 C1170 0.950 . S
H1196 C1172 0.950 . S
H1197 C1173 0.949 . S
H1198 C1175 0.950 . S
H1199 C1177 0.950 . S
C1200 C1201 1.349 . S
C1200 C1202 1.327 . S
C1200 H1225 0.950 . S
C1201 C1200 1.349 . S
C1201 C1217 1.349 . S
C1202 C1200 1.327 . S
C1202 C1221 1.429 . S
C1202 H1226 0.950 . S
C1203 C1220 1.574 1_554 S
C1203 C1222 1.368 . S
C1203 H1227 0.949 . S
H1204 C1208 0.949 . S
C1205 C1206 1.349 . S
C1205 C1207 1.327 . S
C1205 H1228 0.950 . S
C1206 C1205 1.349 . S
C1206 C1218 1.349 . S
C1207 C1205 1.327 . S
C1207 C1223 1.429 . S
C1207 H1229 0.950 . S
C1208 H1204 0.949 . S
C1208 C1216 1.574 1_655 S
C1208 C1224 1.368 . S
H1209 C1217 0.950 . S
H1210 C1215 0.950 . S
H1211 C1216 0.949 . S
H1212 C1218 0.950 . S
H1213 C1219 0.950 1_554 S
H1214 C1220 0.949 . S
C1215 H1210 0.950 . S
C1215 C1217 1.327 . S
C1215 C1221 1.429 . S
C1216 C1208 1.574 1_455 S
C1216 H1211 0.949 . S
C1216 C1222 1.368 . S
C1217 C1201 1.349 . S
C1217 H1209 0.950 . S
C1217 C1215 1.327 . S
C1218 C1206 1.349 . S
C1218 H1212 0.950 . S
C1218 C1219 1.327 . S
C1219 H1213 0.950 1_556 S
C1219 C1218 1.327 . S
C1219 C1223 1.429 . S
C1220 C1203 1.574 1_556 S
C1220 H1214 0.949 . S
C1220 C1224 1.368 1_456 S
C1221 C1202 1.429 . S
C1221 C1215 1.429 . S
C1221 C1222 1.523 . S
C1222 C1203 1.368 . S
C1222 C1216 1.368 . S
C1222 C1221 1.523 . S
C1223 C1207 1.429 . S
C1223 C1219 1.429 . S
C1223 C1224 1.523 1_556 S
C1224 C1208 1.368 . S
C1224 C1220 1.368 1_654 S
C1224 C1223 1.523 1_554 S
H1225 C1200 0.950 . S
H1226 C1202 0.950 . S
H1227 C1203 0.949 . S
H1228 C1205 0.950 . S
H1229 C1207 0.950 . S
C1230 C1231 1.349 . S
C1230 C1232 1.327 . S
C1230 H1255 0.950 . S
C1231 C1230 1.349 . S
C1231 C1247 1.349 . S
C1232 C1230 1.327 . S
C1232 C1251 1.429 . S
C1232 H1256 0.950 . S
C1233 C1250 1.574 1_554 S
C1233 C1252 1.368 . S
C1233 H1257 0.949 . S
H1234 C1238 0.949 . S
C1235 C1236 1.349 . S
C1235 C1237 1.327 . S
C1235 H1258 0.950 . S
C1236 C1235 1.349 . S
C1236 C1248 1.349 . S
C1237 C1235 1.327 . S
C1237 C1253 1.429 . S
C1237 H1259 0.950 . S
C1238 H1234 0.949 . S
C1238 C1246 1.574 1_556 S
C1238 C1254 1.368 . S
H1239 C1247 0.950 . S
H1240 C1245 0.950 . S
H1241 C1246 0.949 . S
H1242 C1248 0.950 . S
H1243 C1249 0.950 . S
H1244 C1250 0.949 . S
C1245 H1240 0.950 . S
C1245 C1247 1.327 . S
C1245 C1251 1.429 . S
C1246 C1238 1.574 1_554 S
C1246 H1241 0.949 . S
C1246 C1252 1.368 . S
C1247 C1231 1.349 . S
C1247 H1239 0.950 . S
C1247 C1245 1.327 . S
C1248 C1236 1.349 . S
C1248 H1242 0.950 . S
C1248 C1249 1.327 . S
C1249 H1243 0.950 . S
C1249 C1248 1.327 . S
C1249 C1253 1.429 . S
C1250 C1233 1.574 1_556 S
C1250 H1244 0.949 . S
C1250 C1254 1.368 . S
C1251 C1232 1.429 . S
C1251 C1245 1.429 . S
C1251 C1252 1.523 . S
C1252 C1233 1.368 . S
C1252 C1246 1.368 . S
C1252 C1251 1.523 . S
C1253 C1237 1.429 . S
C1253 C1249 1.429 . S
C1253 C1254 1.523 . S
C1254 C1238 1.368 . S
C1254 C1250 1.368 . S
C1254 C1253 1.523 . S
H1255 C1230 0.950 . S
H1256 C1232 0.950 . S
H1257 C1233 0.949 . S
H1258 C1235 0.950 . S
H1259 C1237 0.950 . S
C1260 C1261 1.349 . S
C1260 C1262 1.327 . S
C1260 H1285 0.950 . S
C1261 C1260 1.349 . S
C1261 C1277 1.349 . S
C1262 C1260 1.327 . S
C1262 C1281 1.429 . S
C1262 H1286 0.950 . S
C1263 C1280 1.574 . S
C1263 C1282 1.368 . S
C1263 H1287 0.949 . S
H1264 C1268 0.949 . S
C1265 C1266 1.349 . S
C1265 C1267 1.327 . S
C1265 H1288 0.950 . S
C1266 C1265 1.349 . S
C1266 C1278 1.349 . S
C1267 C1265 1.327 . S
C1267 C1283 1.429 . S
C1267 H1289 0.950 . S
C1268 H1264 0.949 . S
C1268 C1276 1.574 . S
C1268 C1284 1.368 . S
H1269 C1277 0.950 . S
H1270 C1275 0.950 . S
H1271 C1276 0.949 . S
H1272 C1278 0.950 . S
H1273 C1279 0.950 . S
H1274 C1280 0.949 . S
C1275 H1270 0.950 . S
C1275 C1277 1.327 . S
C1275 C1281 1.429 . S
C1276 C1268 1.574 . S
C1276 H1271 0.949 . S
C1276 C1282 1.368 . S
C1277 C1261 1.349 . S
C1277 H1269 0.950 . S
C1277 C1275 1.327 . S
C1278 C1266 1.349 . S
C1278 H1272 0.950 . S
C1278 C1279 1.327 . S
C1279 H1273 0.950 . S
C1279 C1278 1.327 . S
C1279 C1283 1.429 . S
C1280 C1263 1.574 . S
C1280 H1274 0.949 . S
C1280 C1284 1.368 . S
C1281 C1262 1.429 . S
C1281 C1275 1.429 . S
C1281 C1282 1.523 . S
C1282 C1263 1.368 . S
C1282 C1276 1.368 . S
C1282 C1281 1.523 . S
C1283 C1267 1.429 . S
C1283 C1279 1.429 . S
C1283 C1284 1.523 . S
C1284 C1268 1.368 . S
C1284 C1280 1.368 . S
C1284 C1283 1.523 . S
H1285 C1260 0.950 . S
H1286 C1262 0.950 . S
H1287 C1263 0.949 . S
H1288 C1265 0.950 . S
H1289 C1267 0.950 . S
C1290 C1291 1.349 . S
C1290 C1292 1.327 . S
C1290 H1315 0.950 . S
C1291 C1290 1.349 . S
C1291 C1307 1.349 . S
C1292 C1290 1.327 . S
C1292 C1311 1.429 . S
C1292 H1316 0.950 . S
C1293 C1310 1.574 . S
C1293 C1312 1.368 . S
C1293 H1317 0.949 . S
H1294 C1298 0.949 . S
C1295 C1296 1.349 . S
C1295 C1297 1.327 . S
C1295 H1318 0.950 . S
C1296 C1295 1.349 . S
C1296 C1308 1.349 . S
C1297 C1295 1.327 . S
C1297 C1313 1.429 . S
C1297 H1319 0.950 . S
C1298 H1294 0.949 . S
C1298 C1306 1.574 . S
C1298 C1314 1.368 . S
H1299 C1307 0.950 . S
H1300 C1305 0.950 . S
H1301 C1306 0.949 . S
H1302 C1308 0.950 . S
H1303 C1309 0.950 . S
H1304 C1310 0.949 . S
C1305 H1300 0.950 . S
C1305 C1307 1.327 . S
C1305 C1311 1.429 . S
C1306 C1298 1.574 . S
C1306 H1301 0.949 . S
C1306 C1312 1.368 . S
C1307 C1291 1.349 . S
C1307 H1299 0.950 . S
C1307 C1305 1.327 . S
C1308 C1296 1.349 . S
C1308 H1302 0.950 . S
C1308 C1309 1.327 . S
C1309 H1303 0.950 . S
C1309 C1308 1.327 . S
C1309 C1313 1.429 . S
C1310 C1293 1.574 . S
C1310 H1304 0.949 . S
C1310 C1314 1.368 . S
C1311 C1292 1.429 . S
C1311 C1305 1.429 . S
C1311 C1312 1.523 . S
C1312 C1293 1.368 . S
C1312 C1306 1.368 . S
C1312 C1311 1.523 . S
C1313 C1297 1.429 . S
C1313 C1309 1.429 . S
C1313 C1314 1.523 . S
C1314 C1298 1.368 . S
C1314 C1310 1.368 . S
C1314 C1313 1.523 . S
H1315 C1290 0.950 . S
H1316 C1292 0.950 . S
H1317 C1293 0.949 . S
H1318 C1295 0.950 . S
H1319 C1297 0.950 . S
C1320 C1321 1.349 . S
C1320 C1322 1.327 . S
C1320 H1345 0.950 . S
C1321 C1320 1.349 . S
C1321 C1337 1.349 . S
C1322 C1320 1.327 . S
C1322 C1341 1.429 . S
C1322 H1346 0.950 . S
C1323 C1340 1.574 . S
C1323 C1342 1.368 . S
C1323 H1347 0.949 . S
H1324 C1328 0.949 . S
C1325 C1326 1.349 . S
C1325 C1327 1.327 . S
C1325 H1348 0.950 . S
C1326 C1325 1.349 . S
C1326 C1338 1.349 . S
C1327 C1325 1.327 . S
C1327 C1343 1.429 . S
C1327 H1349 0.950 . S
C1328 H1324 0.949 . S
C1328 C1336 1.574 . S
C1328 C1344 1.368 . S
H1329 C1337 0.950 . S
H1330 C1335 0.950 . S
H1331 C1336 0.949 . S
H1332 C1338 0.950 . S
H1333 C1339 0.950 . S
H1334 C1340 0.949 . S
C1335 H1330 0.950 . S
C1335 C1337 1.327 . S
C1335 C1341 1.429 . S
C1336 C1328 1.574 . S
C1336 H1331 0.949 . S
C1336 C1342 1.368 . S
C1337 C1321 1.349 . S
C1337 H1329 0.950 . S
C1337 C1335 1.327 . S
C1338 C1326 1.349 . S
C1338 H1332 0.950 . S
C1338 C1339 1.327 . S
C1339 H1333 0.950 . S
C1339 C1338 1.327 . S
C1339 C1343 1.429 . S
C1340 C1323 1.574 . S
C1340 H1334 0.949 . S
C1340 C1344 1.368 . S
C1341 C1322 1.429 . S
C1341 C1335 1.429 . S
C1341 C1342 1.523 . S
C1342 C1323 1.368 . S
C1342 C1336 1.368 . S
C1342 C1341 1.523 . S
C1343 C1327 1.429 . S
C1343 C1339 1.429 . S
C1343 C1344 1.523 . S
C1344 C1328 1.368 . S
C1344 C1340 1.368 . S
C1344 C1343 1.523 . S
H1345 C1320 0.950 . S
H1346 C1322 0.950 . S
H1347 C1323 0.949 . S
H1348 C1325 0.950 . S
H1349 C1327 0.950 . S
C1350 C1351 1.349 . S
C1350 C1352 1.327 . S
C1350 H1375 0.950 . S
C1351 C1350 1.349 . S
C1351 C1367 1.349 . S
C1352 C1350 1.327 . S
C1352 C1371 1.429 . S
C1352 H1376 0.950 . S
C1353 C1370 1.574 . S
C1353 C1372 1.368 . S
C1353 H1377 0.949 . S
H1354 C1358 0.949 . S
C1355 C1356 1.349 . S
C1355 C1357 1.327 . S
C1355 H1378 0.950 . S
C1356 C1355 1.349 . S
C1356 C1368 1.349 . S
C1357 C1355 1.327 . S
C1357 C1373 1.429 . S
C1357 H1379 0.950 . S
C1358 H1354 0.949 . S
C1358 C1366 1.574 . S
C1358 C1374 1.368 . S
H1359 C1367 0.950 . S
H1360 C1365 0.950 . S
H1361 C1366 0.949 . S
H1362 C1368 0.950 . S
H1363 C1369 0.950 . S
H1364 C1370 0.949 . S
C1365 H1360 0.950 . S
C1365 C1367 1.327 . S
C1365 C1371 1.429 . S
C1366 C1358 1.574 . S
C1366 H1361 0.949 . S
C1366 C1372 1.368 . S
C1367 C1351 1.349 . S
C1367 H1359 0.950 . S
C1367 C1365 1.327 . S
C1368 C1356 1.349 . S
C1368 H1362 0.950 . S
C1368 C1369 1.327 . S
C1369 H1363 0.950 . S
C1369 C1368 1.327 . S
C1369 C1373 1.429 . S
C1370 C1353 1.574 . S
C1370 H1364 0.949 . S
C1370 C1374 1.368 . S
C1371 C1352 1.429 . S
C1371 C1365 1.429 . S
C1371 C1372 1.523 . S
C1372 C1353 1.368 . S
C1372 C1366 1.368 . S
C1372 C1371 1.523 . S
C1373 C1357 1.429 . S
C1373 C1369 1.429 . S
C1373 C1374 1.523 . S
C1374 C1358 1.368 . S
C1374 C1370 1.368 . S
C1374 C1373 1.523 . S
H1375 C1350 0.950 . S
H1376 C1352 0.950 . S
H1377 C1353 0.949 . S
H1378 C1355 0.950 . S
H1379 C1357 0.950 . S
C1380 C1381 1.349 . S
C1380 C1382 1.327 . S
C1380 H1405 0.950 . S
C1381 C1380 1.349 . S
C1381 C1397 1.349 . S
C1382 C1380 1.327 . S
C1382 C1401 1.429 . S
C1382 H1406 0.950 . S
C1383 C1400 1.574 . S
C1383 C1402 1.368 . S
C1383 H1407 0.949 . S
H1384 C1388 0.949 . S
C1385 C1386 1.349 . S
C1385 C1387 1.327 . S
C1385 H1408 0.950 . S
C1386 C1385 1.349 . S
C1386 C1398 1.349 . S
C1387 C1385 1.327 . S
C1387 C1403 1.429 . S
C1387 H1409 0.950 . S
C1388 H1384 0.949 . S
C1388 C1396 1.574 . S
C1388 C1404 1.368 . S
H1389 C1397 0.950 . S
H1390 C1395 0.950 . S
H1391 C1396 0.949 . S
H1392 C1398 0.950 . S
H1393 C1399 0.950 . S
H1394 C1400 0.949 . S
C1395 H1390 0.950 . S
C1395 C1397 1.327 . S
C1395 C1401 1.429 . S
C1396 C1388 1.574 . S
C1396 H1391 0.949 . S
C1396 C1402 1.368 . S
C1397 C1381 1.349 . S
C1397 H1389 0.950 . S
C1397 C1395 1.327 . S
C1398 C1386 1.349 . S
C1398 H1392 0.950 . S
C1398 C1399 1.327 . S
C1399 H1393 0.950 . S
C1399 C1398 1.327 . S
C1399 C1403 1.429 . S
C1400 C1383 1.574 . S
C1400 H1394 0.949 . S
C1400 C1404 1.368 . S
C1401 C1382 1.429 . S
C1401 C1395 1.429 . S
C1401 C1402 1.523 . S
C1402 C1383 1.368 . S
C1402 C1396 1.368 . S
C1402 C1401 1.523 . S
C1403 C1387 1.429 . S
C1403 C1399 1.429 . S
C1403 C1404 1.523 . S
C1404 C1388 1.368 . S
C1404 C1400 1.368 . S
C1404 C1403 1.523 . S
H1405 C1380 0.950 . S
H1406 C1382 0.950 . S
H1407 C1383 0.949 . S
H1408 C1385 0.950 . S
H1409 C1387 0.950 . S
C1410 C1411 1.349 . S
C1410 C1412 1.327 . S
C1410 H1435 0.950 . S
C1411 C1410 1.349 . S
C1411 C1427 1.349 . S
C1412 C1410 1.327 . S
C1412 C1431 1.429 . S
C1412 H1436 0.950 . S
C1413 C1430 1.574 . S
C1413 C1432 1.368 . S
C1413 H1437 0.949 . S
H1414 C1418 0.949 . S
C1415 C1416 1.349 . S
C1415 C1417 1.327 . S
C1415 H1438 0.950 . S
C1416 C1415 1.349 . S
C1416 C1428 1.349 . S
C1417 C1415 1.327 . S
C1417 C1433 1.429 . S
C1417 H1439 0.950 . S
C1418 H1414 0.949 . S
C1418 C1426 1.574 . S
C1418 C1434 1.368 . S
H1419 C1427 0.950 . S
H1420 C1425 0.950 . S
H1421 C1426 0.949 . S
H1422 C1428 0.950 . S
H1423 C1429 0.950 . S
H1424 C1430 0.949 . S
C1425 H1420 0.950 . S
C1425 C1427 1.327 . S
C1425 C1431 1.429 . S
C1426 C1418 1.574 . S
C1426 H1421 0.949 . S
C1426 C1432 1.368 . S
C1427 C1411 1.349 . S
C1427 H1419 0.950 . S
C1427 C1425 1.327 . S
C1428 C1416 1.349 . S
C1428 H1422 0.950 . S
C1428 C1429 1.327 . S
C1429 H1423 0.950 . S
C1429 C1428 1.327 . S
C1429 C1433 1.429 . S
C1430 C1413 1.574 . S
C1430 H1424 0.949 . S
C1430 C1434 1.368 . S
C1431 C1412 1.429 . S
C1431 C1425 1.429 . S
C1431 C1432 1.523 . S
C1432 C1413 1.368 . S
C1432 C1426 1.368 . S
C1432 C1431 1.523 . S
C1433 C1417 1.429 . S
C1433 C1429 1.429 . S
C1433 C1434 1.523 . S
C1434 C1418 1.368 . S
C1434 C1430 1.368 . S
C1434 C1433 1.523 . S
H1435 C1410 0.950 . S
H1436 C1412 0.950 . S
H1437 C1413 0.949 . S
H1438 C1415 0.950 . S
H1439 C1417 0.950 . S
C1440 C1441 1.349 . S
C1440 C1442 1.327 . S
C1440 H1465 0.950 . S
C1441 C1440 1.349 . S
C1441 C1457 1.349 . S
C1442 C1440 1.327 . S
C1442 C1461 1.429 . S
C1442 H1466 0.950 . S
C1443 C1460 1.574 . S
C1443 C1462 1.368 . S
C1443 H1467 0.949 . S
H1444 C1448 0.949 . S
C1445 C1446 1.349 . S
C1445 C1447 1.327 . S
C1445 H1468 0.950 . S
C1446 C1445 1.349 . S
C1446 C1458 1.349 . S
C1447 C1445 1.327 . S
C1447 C1463 1.429 . S
C1447 H1469 0.950 . S
C1448 H1444 0.949 . S
C1448 C1456 1.574 . S
C1448 C1464 1.368 . S
H1449 C1457 0.950 . S
H1450 C1455 0.950 . S
H1451 C1456 0.949 . S
H1452 C1458 0.950 . S
H1453 C1459 0.950 . S
H1454 C1460 0.949 . S
C1455 H1450 0.950 . S
C1455 C1457 1.327 . S
C1455 C1461 1.429 . S
C1456 C1448 1.574 . S
C1456 H1451 0.949 . S
C1456 C1462 1.368 . S
C1457 C1441 1.349 . S
C1457 H1449 0.950 . S
C1457 C1455 1.327 . S
C1458 C1446 1.349 . S
C1458 H1452 0.950 . S
C1458 C1459 1.327 . S
C1459 H1453 0.950 . S
C1459 C1458 1.327 . S
C1459 C1463 1.429 . S
C1460 C1443 1.574 . S
C1460 H1454 0.949 . S
C1460 C1464 1.368 . S
C1461 C1442 1.429 . S
C1461 C1455 1.429 . S
C1461 C1462 1.523 . S
C1462 C1443 1.368 . S
C1462 C1456 1.368 . S
C1462 C1461 1.523 . S
C1463 C1447 1.429 . S
C1463 C1459 1.429 . S
C1463 C1464 1.523 . S
C1464 C1448 1.368 . S
C1464 C1460 1.368 . S
C1464 C1463 1.523 . S
H1465 C1440 0.950 . S
H1466 C1442 0.950 . S
H1467 C1443 0.949 . S
H1468 C1445 0.950 . S
H1469 C1447 0.950 . S
C1470 C1471 1.349 . S
C1470 C1472 1.327 . S
C1470 H1495 0.950 . S
C1471 C1470 1.349 . S
C1471 C1487 1.349 . S
C1472 C1470 1.327 . S
C1472 C1491 1.429 . S
C1472 H1496 0.950 . S
C1473 C1490 1.574 . S
C1473 C1492 1.368 . S
C1473 H1497 0.949 . S
H1474 C1478 0.949 . S
C1475 C1476 1.349 . S
C1475 C1477 1.327 . S
C1475 H1498 0.950 . S
C1476 C1475 1.349 . S
C1476 C1488 1.349 . S
C1477 C1475 1.327 . S
C1477 C1493 1.429 . S
C1477 H1499 0.950 . S
C1478 H1474 0.949 . S
C1478 C1486 1.574 . S
C1478 C1494 1.368 . S
H1479 C1487 0.950 . S
H1480 C1485 0.950 . S
H1481 C1486 0.949 . S
H1482 C1488 0.950 . S
H1483 C1489 0.950 . S
H1484 C1490 0.949 . S
C1485 H1480 0.950 . S
C1485 C1487 1.327 . S
C1485 C1491 1.429 . S
C1486 C1478 1.574 . S
C1486 H1481 0.949 . S
C1486 C1492 1.368 . S
C1487 C1471 1.349 . S
C1487 H1479 0.950 . S
C1487 C1485 1.327 . S
C1488 C1476 1.349 . S
C1488 H1482 0.950 . S
C1488 C1489 1.327 . S
C1489 H1483 0.950 . S
C1489 C1488 1.327 . S
C1489 C1493 1.429 . S
C1490 C1473 1.574 . S
C1490 H1484 0.949 . S
C1490 C1494 1.368 . S
C1491 C1472 1.429 . S
C1491 C1485 1.429 . S
C1491 C1492 1.523 . S
C1492 C1473 1.368 . S
C1492 C1486 1.368 . S
C1492 C1491 1.523 . S
C1493 C1477 1.429 . S
C1493 C1489 1.429 . S
C1493 C1494 1.523 . S
C1494 C1478 1.368 . S
C1494 C1490 1.368 . S
C1494 C1493 1.523 . S
H1495 C1470 0.950 . S
H1496 C1472 0.950 . S
H1497 C1473 0.949 . S
H1498 C1475 0.950 . S
H1499 C1477 0.950 . S
C1500 C1501 1.349 . S
C1500 C1502 1.327 . S
C1500 H1525 0.950 . S
C1501 C1500 1.349 . S
C1501 C1517 1.349 . S
C1502 C1500 1.327 . S
C1502 C1521 1.429 . S
C1502 H1526 0.950 . S
C1503 C1520 1.574 . S
C1503 C1522 1.368 . S
C1503 H1527 0.949 . S
H1504 C1508 0.949 . S
C1505 C1506 1.349 . S
C1505 C1507 1.327 . S
C1505 H1528 0.950 . S
C1506 C1505 1.349 . S
C1506 C1518 1.349 . S
C1507 C1505 1.327 . S
C1507 C1523 1.429 . S
C1507 H1529 0.950 . S
C1508 H1504 0.949 . S
C1508 C1516 1.574 . S
C1508 C1524 1.368 . S
H1509 C1517 0.950 . S
H1510 C1515 0.950 . S
H1511 C1516 0.949 . S
H1512 C1518 0.950 . S
H1513 C1519 0.950 . S
H1514 C1520 0.949 . S
C1515 H1510 0.950 . S
C1515 C1517 1.327 . S
C1515 C1521 1.429 . S
C1516 C1508 1.574 . S
C1516 H1511 0.949 . S
C1516 C1522 1.368 . S
C1517 C1501 1.349 . S
C1517 H1509 0.950 . S
C1517 C1515 1.327 . S
C1518 C1506 1.349 . S
C1518 H1512 0.950 . S
C1518 C1519 1.327 . S
C1519 H1513 0.950 . S
C1519 C1518 1.327 . S
C1519 C1523 1.429 . S
C1520 C1503 1.574 . S
C1520 H1514 0.949 . S
C1520 C1524 1.368 . S
C1521 C1502 1.429 . S
C1521 C1515 1.429 . S
C1521 C1522 1.523 . S
C1522 C1503 1.368 . S
C1522 C1516 1.368 . S
C1522 C1521 1.523 . S
C1523 C1507 1.429 . S
C1523 C1519 1.429 . S
C1523 C1524 1.523 . S
C1524 C1508 1.368 . S
C1524 C1520 1.368 . S
C1524 C1523 1.523 . S
H1525 C1500 0.950 . S
H1526 C1502 0.950 . S
H1527 C1503 0.949 . S
H1528 C1505 0.950 . S
H1529 C1507 0.950 . S
C1530 C1531 1.349 . S
C1530 C1532 1.327 . S
C1530 H1555 0.950 . S
C1531 C1530 1.349 . S
C1531 C1547 1.349 . S
C1532 C1530 1.327 . S
C1532 C1551 1.429 . S
C1532 H1556 0.950 . S
C1533 C1550 1.574 . S
C1533 C1552 1.368 . S
C1533 H1557 0.949 . S
H1534 C1538 0.949 . S
C1535 C1536 1.349 . S
C1535 C1537 1.327 . S
C1535 H1558 0.950 . S
C1536 C1535 1.349 . S
C1536 C1548 1.349 . S
C1537 C1535 1.327 . S
C1537 C1553 1.429 . S
C1537 H1559 0.950 . S
C1538 H1534 0.949 . S
C1538 C1546 1.574 . S
C1538 C1554 1.368 . S
H1539 C1547 0.950 . S
H1540 C1545 0.950 . S
H1541 C1546 0.949 . S
H1542 C1548 0.950 . S
H1543 C1549 0.950 . S
H1544 C1550 0.949 . S
C1545 H1540 0.950 . S
C1545 C1547 1.327 . S
C1545 C1551 1.429 . S
C1546 C1538 1.574 . S
C1546 H1541 0.949 . S
C1546 C1552 1.368 . S
C1547 C1531 1.349 . S
C1547 H1539 0.950 . S
C1547 C1545 1.327 . S
C1548 C1536 1.349 . S
C1548 H1542 0.950 . S
C1548 C1549 1.327 . S
C1549 H1543 0.950 . S
C1549 C1548 1.327 . S
C1549 C1553 1.429 . S
C1550 C1533 1.574 . S
C1550 H1544 0.949 . S
C1550 C1554 1.368 . S
C1551 C1532 1.429 . S
C1551 C1545 1.429 . S
C1551 C1552 1.523 . S
C1552 C1533 1.368 . S
C1552 C1546 1.368 . S
C1552 C1551 1.523 . S
C1553 C1537 1.429 . S
C1553 C1549 1.429 . S
C1553 C1554 1.523 . S
C1554 C1538 1.368 . S
C1554 C1550 1.368 . S
C1554 C1553 1.523 . S
H1555 C1530 0.950 . S
H1556 C1532 0.950 . S
H1557 C1533 0.949 . S
H1558 C1535 0.950 . S
H1559 C1537 0.950 . S
C1560 C1561 1.349 . S
C1560 C1562 1.327 . S
C1560 H1585 0.950 . S
C1561 C1560 1.349 . S
C1561 C1577 1.349 . S
C1562 C1560 1.327 . S
C1562 C1581 1.429 . S
C1562 H1586 0.950 . S
C1563 C1580 1.574 . S
C1563 C1582 1.368 . S
C1563 H1587 0.949 . S
H1564 C1568 0.949 . S
C1565 C1566 1.349 . S
C1565 C1567 1.327 . S
C1565 H1588 0.950 . S
C1566 C1565 1.349 . S
C1566 C1578 1.349 . S
C1567 C1565 1.327 . S
C1567 C1583 1.429 . S
C1567 H1589 0.950 . S
C1568 H1564 0.949 . S
C1568 C1576 1.574 . S
C1568 C1584 1.368 . S
H1569 C1577 0.950 . S
H1570 C1575 0.950 . S
H1571 C1576 0.949 . S
H1572 C1578 0.950 . S
H1573 C1579 0.950 . S
H1574 C1580 0.949 . S
C1575 H1570 0.950 . S
C1575 C1577 1.327 . S
C1575 C1581 1.429 . S
C1576 C1568 1.574 . S
C1576 H1571 0.949 . S
C1576 C1582 1.368 . S
C1577 C1561 1.349 . S
C1577 H1569 0.950 . S
C1577 C1575 1.327 . S
C1578 C1566 1.349 . S
C1578 H1572 0.950 . S
C1578 C1579 1.327 . S
C1579 H1573 0.950 . S
C1579 C1578 1.327 . S
C1579 C1583 1.429 . S
C1580 C1563 1.574 . S
C1580 H1574 0.949 . S
C1580 C1584 1.368 . S
C1581 C1562 1.429 . S
C1581 C1575 1.429 . S
C1581 C1582 1.523 . S
C1582 C1563 1.368 . S
C1582 C1576 1.368 . S
C1582 C1581 1.523 . S
C1583 C1567 1.429 . S
C1583 C1579 1.429 . S
C1583 C1584 1.523 . S
C1584 C1568 1.368 . S
C1584 C1580 1.368 . S
C1584 C1583 1.523 . S
H1585 C1560 0.950 . S
H1586 C1562 0.950 . S
H1587 C1563 0.949 . S
H1588 C1565 0.950 . S
H1589 C1567 0.950 . S
C1590 C1591 1.349 . S
C1590 C1592 1.327 . S
C1590 H1615 0.950 . S
C1591 C1590 1.349 . S
C1591 C1607 1.349 . S
C1592 C1590 1.327 . S
C1592 C1611 1.429 . S
C1592 H1616 0.950 . S
C1593 C1610 1.574 . S
C1593 C1612 1.368 . S
C1593 H1617 0.949 . S
H1594 C1598 0.949 . S
C1595 C1596 1.349 . S
C1595 C1597 1.327 . S
C1595 H1618 0.950 . S
C1596 C1595 1.349 . S
C1596 C1608 1.349 . S
C1597 C1595 1.327 . S
C1597 C1613 1.429 . S
C1597 H1619 0.950 . S
C1598 H1594 0.949 . S
C1598 C1606 1.574 . S
C1598 C1614 1.368 . S
H1599 C1607 0.950 . S
H1600 C1605 0.950 . S
H1601 C1606 0.949 . S
H1602 C1608 0.950 . S
H1603 C1609 0.950 . S
H1604 C1610 0.949 . S
C1605 H1600 0.950 . S
C1605 C1607 1.327 . S
C1605 C1611 1.429 . S
C1606 C1598 1.574 . S
C1606 H1601 0.949 . S
C1606 C1612 1.368 . S
C1607 C1591 1.349 . S
C1607 H1599 0.950 . S
C1607 C1605 1.327 . S
C1608 C1596 1.349 . S
C1608 H1602 0.950 . S
C1608 C1609 1.327 . S
C1609 H1603 0.950 . S
C1609 C1608 1.327 . S
C1609 C1613 1.429 . S
C1610 C1593 1.574 . S
C1610 H1604 0.949 . S
C1610 C1614 1.368 . S
C1611 C1592 1.429 . S
C1611 C1605 1.429 . S
C1611 C1612 1.523 . S
C1612 C1593 1.368 . S
C1612 C1606 1.368 . S
C1612 C1611 1.523 . S
C1613 C1597 1.429 . S
C1613 C1609 1.429 . S
C1613 C1614 1.523 . S
C1614 C1598 1.368 . S
C1614 C1610 1.368 . S
C1614 C1613 1.523 . S
H1615 C1590 0.950 . S
H1616 C1592 0.950 . S
H1617 C1593 0.949 . S
H1618 C1595 0.950 . S
H1619 C1597 0.950 . S
C1620 C1621 1.349 . S
C1620 C1622 1.327 . S
C1620 H1645 0.950 . S
C1621 C1620 1.349 . S
C1621 C1637 1.349 . S
C1622 C1620 1.327 . S
C1622 C1641 1.429 . S
C1622 H1646 0.950 . S
C1623 C1640 1.574 . S
C1623 C1642 1.368 . S
C1623 H1647 0.949 . S
H1624 C1628 0.949 . S
C1625 C1626 1.349 . S
C1625 C1627 1.327 . S
C1625 H1648 0.950 . S
C1626 C1625 1.349 . S
C1626 C1638 1.349 . S
C1627 C1625 1.327 . S
C1627 C1643 1.429 . S
C1627 H1649 0.950 . S
C1628 H1624 0.949 . S
C1628 C1636 1.574 . S
C1628 C1644 1.368 . S
H1629 C1637 0.950 . S
H1630 C1635 0.950 . S
H1631 C1636 0.949 . S
H1632 C1638 0.950 . S
H1633 C1639 0.950 . S
H1634 C1640 0.949 . S
C1635 H1630 0.950 . S
C1635 C1637 1.327 . S
C1635 C1641 1.429 . S
C1636 C1628 1.574 . S
C1636 H1631 0.949 . S
C1636 C1642 1.368 . S
C1637 C1621 1.349 . S
C1637 H1629 0.950 . S
C1637 C1635 1.327 . S
C1638 C1626 1.349 . S
C1638 H1632 0.950 . S
C1638 C1639 1.327 . S
C1639 H1633 0.950 . S
C1639 C1638 1.327 . S
C1639 C1643 1.429 . S
C1640 C1623 1.574 . S
C1640 H1634 0.949 . S
C1640 C1644 1.368 . S
C1641 C1622 1.429 . S
C1641 C1635 1.429 . S
C1641 C1642 1.523 . S
C1642 C1623 1.368 . S
C1642 C1636 1.368 . S
C1642 C1641 1.523 . S
C1643 C1627 1.429 . S
C1643 C1639 1.429 . S
C1643 C1644 1.523 . S
C1644 C1628 1.368 . S
C1644 C1640 1.368 . S
C1644 C1643 1.523 . S
H1645 C1620 0.950 . S
H1646 C1622 0.950 . S
H1647 C1623 0.949 . S
H1648 C1625 0.950 . S
H1649 C1627 0.950 . S
C1650 C1651 1.349 . S
C1650 C1652 1.327 . S
C1650 H1675 0.950 . S
C1651 C1650 1.349 . S
C1651 C1667 1.349 . S
C1652 C1650 1.327 . S
C1652 C1671 1.429 . S
C1652 H1676 0.950 . S
C1653 C1670 1.574 . S
C1653 C1672 1.368 . S
C1653 H1677 0.949 . S
H1654 C1658 0.949 . S
C1655 C1656 1.349 . S
C1655 C1657 1.327 . S
C1655 H1678 0.950 . S
C1656 C1655 1.349 . S
C1656 C1668 1.349 . S
C1657 C1655 1.327 . S
C1657 C1673 1.429 . S
C1657 H1679 0.950 . S
C1658 H1654 0.949 . S
C1658 C1666 1.574 . S
C1658 C1674 1.368 . S
H1659 C1667 0.950 . S
H1660 C1665 0.950 . S
H1661 C1666 0.949 . S
H1662 C1668 0.950 . S
H1663 C1669 0.950 . S
H1664 C1670 0.949 . S
C1665 H1660 0.950 . S
C1665 C1667 1.327 . S
C1665 C1671 1.429 . S
C1666 C1658 1.574 . S
C1666 H1661 0.949 . S
C1666 C1672 1.368 . S
C1667 C1651 1.349 . S
C1667 H1659 0.950 . S
C1667 C1665 1.327 . S
C1668 C1656 1.349 . S
C1668 H1662 0.950 . S
C1668 C1669 1.327 . S
C1669 H1663 0.950 . S
C1669 C1668 1.327 . S
C1669 C1673 1.429 . S
C1670 C1653 1.574 . S
C1670 H1664 0.949 . S
C1670 C1674 1.368 . S
C1671 C1652 1.429 . S
C1671 C1665 1.429 . S
C1671 C1672 1.523 . S
C1672 C1653 1.368 . S
C1672 C1666 1.368 . S
C1672 C1671 1.523 . S
C1673 C1657 1.429 . S
C1673 C1669 1.429 . S
C1673 C1674 1.523 . S
C1674 C1658 1.368 . S
C1674 C1670 1.368 . S
C1674 C1673 1.523 . S
H1675 C1650 0.950 . S
H1676 C1652 0.950 . S
H1677 C1653 0.949 . S
H1678 C1655 0.950 . S
H1679 C1657 0.950 . S
C1680 C1681 1.349 . S
C1680 C1682 1.327 . S
C1680 H1705 0.950 . S
C1681 C1680 1.349 . S
C1681 C1697 1.349 . S
C1682 C1680 1.327 . S
C1682 C1701 1.429 . S
C1682 H1706 0.950 . S
C1683 C1700 1.574 . S
C1683 C1702 1.368 . S
C1683 H1707 0.949 . S
H1684 C1688 0.949 . S
C1685 C1686 1.349 . S
C1685 C1687 1.327 . S
C1685 H1708 0.950 . S
C1686 C1685 1.349 . S
C1686 C1698 1.349 . S
C1687 C1685 1.327 . S
C1687 C1703 1.429 . S
C1687 H1709 0.950 . S
C1688 H1684 0.949 . S
C1688 C1696 1.574 . S
C1688 C1704 1.368 . S
H1689 C1697 0.950 . S
H1690 C1695 0.950 . S
H1691 C1696 0.949 . S
H1692 C1698 0.950 . S
H1693 C1699 0.950 . S
H1694 C1700 0.949 . S
C1695 H1690 0.950 . S
C1695 C1697 1.327 . S
C1695 C1701 1.429 . S
C1696 C1688 1.574 . S
C1696 H1691 0.949 . S
C1696 C1702 1.368 . S
C1697 C1681 1.349 . S
C1697 H1689 0.950 . S
C1697 C1695 1.327 . S
C1698 C1686 1.349 . S
C1698 H1692 0.950 . S
C1698 C1699 1.327 . S
C1699 H1693 0.950 . S
C1699 C1698 1.327 . S
C1699 C1703 1.429 . S
C1700 C1683 1.574 . S
C1700 H1694 0.949 . S
C1700 C1704 1.368 . S
C1701 C1682 1.429 . S
C1701 C1695 1.429 . S
C1701 C1702 1.523 . S
C1702 C1683 1.368 . S
C1702 C1696 1.368 . S
C1702 C1701 1.523 . S
C1703 C1687 1.429 . S
C1703 C1699 1.429 . S
C1703 C1704 1.523 . S
C1704 C1688 1.368 . S
C1704 C1700 1.368 . S
C1704 C1703 1.523 . S
H1705 C1680 0.950 . S
H1706 C1682 0.950 . S
H1707 C1683 0.949 . S
H1708 C1685 0.950 . S
H1709 C1687 0.950 . S
C1710 C1711 1.349 . S
C1710 C1712 1.327 . S
C1710 H1735 0.950 . S
C1711 C1710 1.349 . S
C1711 C1727 1.349 . S
C1712 C1710 1.327 . S
C1712 C1731 1.429 . S
C1712 H1736 0.950 . S
C1713 C1730 1.574 . S
C1713 C1732 1.368 . S
C1713 H1737 0.949 . S
H1714 C1718 0.949 . S
C1715 C1716 1.349 . S
C1715 C1717 1.327 . S
C1715 H1738 0.950 . S
C1716 C1715 1.349 . S
C1716 C1728 1.349 . S
C1717 C1715 1.327 . S
C1717 C1733 1.429 . S
C1717 H1739 0.950 . S
C1718 H1714 0.949 . S
C1718 C1726 1.574 . S
C1718 C1734 1.368 . S
H1719 C1727 0.950 . S
H1720 C1725 0.950 . S
H1721 C1726 0.949 . S
H1722 C1728 0.950 . S
H1723 C1729 0.950 . S
H1724 C1730 0.949 . S
C1725 H1720 0.950 . S
C1725 C1727 1.327 . S
C1725 C1731 1.429 . S
C1726 C1718 1.574 . S
C1726 H1721 0.949 . S
C1726 C1732 1.368 . S
C1727 C1711 1.349 . S
C1727 H1719 0.950 . S
C1727 C1725 1.327 . S
C1728 C1716 1.349 . S
C1728 H1722 0.950 . S
C1728 C1729 1.327 . S
C1729 H1723 0.950 . S
C1729 C1728 1.327 . S
C1729 C1733 1.429 . S
C1730 C1713 1.574 . S
C1730 H1724 0.949 . S
C1730 C1734 1.368 . S
C1731 C1712 1.429 . S
C1731 C1725 1.429 . S
C1731 C1732 1.523 . S
C1732 C1713 1.368 . S
C1732 C1726 1.368 . S
C1732 C1731 1.523 . S
C1733 C1717 1.429 . S
C1733 C1729 1.429 . S
C1733 C1734 1.523 . S
C1734 C1718 1.368 . S
C1734 C1730 1.368 . S
C1734 C1733 1.523 . S
H1735 C1710 0.950 . S
H1736 C1712 0.950 . S
H1737 C1713 0.949 . S
H1738 C1715 0.950 . S
H1739 C1717 0.950 . S
C1740 C1741 1.349 . S
C1740 C1742 1.327 . S
C1740 H1765 0.950 . S
C1741 C1740 1.349 . S
C1741 C1757 1.349 . S
C1742 C1740 1.327 . S
C1742 C1761 1.429 . S
C1742 H1766 0.950 . S
C1743 C1760 1.574 . S
C1743 C1762 1.368 . S
C1743 H1767 0.949 . S
H1744 C1748 0.949 . S
C1745 C1746 1.349 . S
C1745 C1747 1.327 . S
C1745 H1768 0.950 . S
C1746 C1745 1.349 . S
C1746 C1758 1.349 . S
C1747 C1745 1.327 . S
C1747 C1763 1.429 . S
C1747 H1769 0.950 . S
C1748 H1744 0.949 . S
C1748 C1756 1.574 . S
C1748 C1764 1.368 . S
H1749 C1757 0.950 . S
H1750 C1755 0.950 . S
H1751 C1756 0.949 . S
H1752 C1758 0.950 . S
H1753 C1759 0.950 . S
H1754 C1760 0.949 . S
C1755 H1750 0.950 . S
C1755 C1757 1.327 . S
C1755 C1761 1.429 . S
C1756 C1748 1.574 . S
C1756 H1751 0.949 . S
C1756 C1762 1.368 . S
C1757 C1741 1.349 . S
C1757 H1749 0.950 . S
C1757 C1755 1.327 . S
C1758 C1746 1.349 . S
C1758 H1752 0.950 . S
C1758 C1759 1.327 . S
C1759 H1753 0.950 . S
C1759 C1758 1.327 . S
C1759 C1763 1.429 . S
C1760 C1743 1.574 . S
C1760 H1754 0.949 . S
C1760 C1764 1.368 . S
C1761 C1742 1.429 . S
C1761 C1755 1.429 . S
C1761 C1762 1.523 . S
C1762 C1743 1.368 . S
C1762 C1756 1.368 . S
C1762 C1761 1.523 . S
C1763 C1747 1.429 . S
C1763 C1759 1.429 . S
C1763 C1764 1.523 . S
C1764 C1748 1.368 . S
C1764 C1760 1.368 . S
C1764 C1763 1.523 . S
H1765 C1740 0.950 . S
H1766 C1742 0.950 . S
H1767 C1743 0.949 . S
H1768 C1745 0.950 . S
H1769 C1747 0.950 . S
C1770 C1771 1.349 . S
C1770 C1772 1.327 . S
C1770 H1795 0.950 . S
C1771 C1770 1.349 . S
C1771 C1787 1.349 . S
C1772 C1770 1.327 . S
C1772 C1791 1.429 . S
C1772 H1796 0.950 . S
C1773 C1790 1.574 . S
C1773 C1792 1.368 . S
C1773 H1797 0.949 . S
H1774 C1778 0.949 . S
C1775 C1776 1.349 . S
C1775 C1777 1.327 . S
C1775 H1798 0.950 . S
C1776 C1775 1.349 . S
C1776 C1788 1.349 . S
C1777 C1775 1.327 . S
C1777 C1793 1.429 . S
C1777 H1799 0.950 . S
C1778 H1774 0.949 . S
C1778 C1786 1.574 . S
C1778 C1794 1.368 . S
H1779 C1787 0.950 . S
H1780 C1785 0.950 . S
H1781 C1786 0.949 . S
H1782 C1788 0.950 . S
H1783 C1789 0.950 . S
H1784 C1790 0.949 . S
C1785 H1780 0.950 . S
C1785 C1787 1.327 . S
C1785 C1791 1.429 . S
C1786 C1778 1.574 . S
C1786 H1781 0.949 . S
C1786 C1792 1.368 . S
C1787 C1771 1.349 . S
C1787 H1779 0.950 . S
C1787 C1785 1.327 . S
C1788 C1776 1.349 . S
C1788 H1782 0.950 . S
C1788 C1789 1.327 . S
C1789 H1783 0.950 . S
C1789 C1788 1.327 . S
C1789 C1793 1.429 . S
C1790 C1773 1.574 . S
C1790 H1784 0.949 . S
C1790 C1794 1.368 . S
C1791 C1772 1.429 . S
C1791 C1785 1.429 . S
C1791 C1792 1.523 . S
C1792 C1773 1.368 . S
C1792 C1786 1.368 . S
C1792 C1791 1.523 . S
C1793 C1777 1.429 . S
C1793 C1789 1.429 . S
C1793 C1794 1.523 . S
C1794 C1778 1.368 . S
C1794 C1790 1.368 . S
C1794 C1793 1.523 . S
H1795 C1770 0.950 . S
H1796 C1772 0.950 . S
H1797 C1773 0.949 . S
H1798 C1775 0.950 . S
H1799 C1777 0.950 . S
C1800 C1801 1.349 1_655 S
C1800 C1802 1.327 . S
C1800 H1825 0.950 . S
C1801 C1800 1.349 1_455 S
C1801 C1817 1.349 . S
C1802 C1800 1.327 . S
C1802 C1821 1.429 1_655 S
C1802 H1826 0.950 . S
C1803 C1820 1.574 . S
C1803 C1822 1.368 . S
C1803 H1827 0.949 . S
H1804 C1808 0.949 1_556 S
C1805 C1806 1.345 1_455 S
C1805 C1807 1.327 . S
C1805 H1828 0.950 . S
C1806 C1805 1.345 1_655 S
C1806 C1818 1.354 . S
C1807 C1805 1.327 . S
C1807 C1823 1.429 . S
C1807 H1829 0.950 . S
C1808 H1804 0.949 1_554 S
C1808 C1816 1.574 . S
C1808 C1824 1.368 1_654 S
H1809 C1817 0.950 . S
H1810 C1815 0.950 . S
H1811 C1816 0.949 . S
H1812 C1818 0.950 . S
H1813 C1819 0.950 . S
H1814 C1820 0.949 1_556 S
C1815 H1810 0.950 . S
C1815 C1817 1.327 . S
C1815 C1821 1.429 . S
C1816 C1808 1.574 . S
C1816 H1811 0.949 . S
C1816 C1822 1.368 1_655 S
C1817 C1801 1.349 . S
C1817 H1809 0.950 . S
C1817 C1815 1.327 . S
C1818 C1806 1.354 . S
C1818 H1812 0.950 . S
C1818 C1819 1.327 . S
C1819 H1813 0.950 . S
C1819 C1818 1.327 . S
C1819 C1823 1.429 1_655 S
C1820 C1803 1.574 . S
C1820 H1814 0.949 1_554 S
C1820 C1824 1.368 1_554 S
C1821 C1802 1.429 1_455 S
C1821 C1815 1.429 . S
C1821 C1822 1.523 . S
C1822 C1803 1.368 . S
C1822 C1816 1.368 1_455 S
C1822 C1821 1.523 . S
C1823 C1807 1.429 . S
C1823 C1819 1.429 1_455 S
C1823 C1824 1.523 . S
C1824 C1808 1.368 1_456 S
C1824 C1820 1.368 1_556 S
C1824 C1823 1.523 . S
H1825 C1800 0.950 . S
H1826 C1802 0.950 . S
H1827 C1803 0.949 . S
H1828 C1805 0.950 . S
H1829 C1807 0.950 . S
C1830 C1831 1.349 . S
C1830 C1832 1.327 . S
C1830 H1855 0.950 . S
C1831 C1830 1.349 . S
C1831 C1847 1.349 . S
C1832 C1830 1.327 . S
C1832 C1851 1.429 . S
C1832 H1856 0.950 . S
C1833 C1850 1.574 1_554 S
C1833 C1852 1.368 . S
C1833 H1857 0.949 . S
H1834 C1838 0.949 . S
C1835 C1836 1.349 . S
C1835 C1837 1.327 . S
C1835 H1858 0.950 . S
C1836 C1835 1.349 . S
C1836 C1848 1.349 . S
C1837 C1835 1.327 . S
C1837 C1853 1.429 . S
C1837 H1859 0.950 . S
C1838 H1834 0.949 . S
C1838 C1846 1.574 1_556 S
C1838 C1854 1.368 . S
H1839 C1847 0.950 . S
H1840 C1845 0.950 . S
H1841 C1846 0.949 . S
H1842 C1848 0.950 . S
H1843 C1849 0.950 . S
H1844 C1850 0.949 . S
C1845 H1840 0.950 . S
C1845 C1847 1.327 . S
C1845 C1851 1.429 . S
C1846 C1838 1.574 1_554 S
C1846 H1841 0.949 . S
C1846 C1852 1.368 . S
C1847 C1831 1.349 . S
C1847 H1839 0.950 . S
C1847 C1845 1.327 . S
C1848 C1836 1.349 . S
C1848 H1842 0.950 . S
C1848 C1849 1.327 . S
C1849 H1843 0.950 . S
C1849 C1848 1.327 . S
C1849 C1853 1.429 . S
C1850 C1833 1.574 1_556 S
C1850 H1844 0.949 . S
C1850 C1854 1.368 . S
C1851 C1832 1.429 . S
C1851 C1845 1.429 . S
C1851 C1852 1.523 . S
C1852 C1833 1.368 . S
C1852 C1846 1.368 . S
C1852 C1851 1.523 . S
C1853 C1837 1.429 . S
C1853 C1849 1.429 . S
C1853 C1854 1.523 . S
C1854 C1838 1.368 . S
C1854 C1850 1.368 . S
C1854 C1853 1.523 . S
H1855 C1830 0.950 . S
H1856 C1832 0.950 . S
H1857 C1833 0.949 . S
H1858 C1835 0.950 . S
H1859 C1837 0.950 . S
C1860 C1861 1.349 1_545 S
C1860 C1862 1.327 . S
C1860 H1885 0.950 . S
C1861 C1860 1.349 1_565 S
C1861 C1877 1.349 . S
C1862 C1860 1.327 . S
C1862 C1881 1.429 1_545 S
C1862 H1886 0.950 . S
C1863 C1880 1.574 1_554 S
C1863 C1882 1.367 1_565 S
C1863 H1887 0.949 . S
H1864 C1868 0.949 . S
C1865 C1866 1.349 . S
C1865 C1867 1.327 . S
C1865 H1888 0.950 1_545 S
C1866 C1865 1.349 . S
C1866 C1878 1.349 . S
C1867 C1865 1.327 . S
C1867 C1883 1.429 . S
C1867 H1889 0.950 1_545 S
C1868 H1864 0.949 . S
C1868 C1876 1.574 1_556 S
C1868 C1884 1.368 . S
H1869 C1877 0.950 . S
H1870 C1875 0.950 . S
H1871 C1876 0.949 . S
H1872 C1878 0.950 . S
H1873 C1879 0.950 . S
H1874 C1880 0.949 . S
C1875 H1870 0.950 . S
C1875 C1877 1.327 . S
C1875 C1881 1.429 . S
C1876 C1868 1.574 1_554 S
C1876 H1871 0.949 . S
C1876 C1882 1.374 . S
C1877 C1861 1.349 . S
C1877 H1869 0.950 . S
C1877 C1875 1.327 . S
C1878 C1866 1.349 . S
C1878 H1872 0.950 . S
C1878 C1879 1.327 . S
C1879 H1873 0.950 . S
C1879 C1878 1.327 . S
C1879 C1883 1.429 . S
C1880 C1863 1.574 1_556 S
C1880 H1874 0.949 . S
C1880 C1884 1.368 1_565 S
C1881 C1862 1.429 1_565 S
C1881 C1875 1.429 . S
C1881 C1882 1.517 1_565 S
C1882 C1863 1.367 1_545 S
C1882 C1876 1.374 . S
C1882 C1881 1.517 1_545 S
C1883 C1867 1.429 . S
C1883 C1879 1.429 . S
C1883 C1884 1.523 . S
C1884 C1868 1.368 . S
C1884 C1880 1.368 1_545 S
C1884 C1883 1.523 . S
H1885 C1860 0.950 . S
H1886 C1862 0.950 . S
H1887 C1863 0.949 . S
H1888 C1865 0.950 1_565 S
H1889 C1867 0.950 1_565 S
C1890 C1891 1.347 1_455 S
C1890 C1892 1.327 . S
C1890 H1915 0.950 . S
C1891 C1890 1.347 1_655 S
C1891 C1907 1.352 . S
C1892 C1890 1.327 . S
C1892 C1911 1.429 . S
C1892 H1916 0.950 . S
C1893 C1910 1.567 . S
C1893 C1912 1.410 . S
C1893 H1917 0.922 1_454 S
H1894 C1898 0.949 . S
C1895 C1896 1.349 . S
C1895 C1897 1.327 . S
C1895 H1918 0.950 . S
C1896 C1895 1.349 . S
C1896 C1908 1.349 . S
C1897 C1895 1.327 . S
C1897 C1913 1.429 . S
C1897 H1919 0.950 . S
C1898 H1894 0.949 . S
C1898 C1906 1.574 . S
C1898 C1914 1.368 . S
H1899 C1907 0.950 . S
H1900 C1905 0.950 . S
H1901 C1906 0.949 . S
H1902 C1908 0.950 . S
H1903 C1909 0.950 . S
H1904 C1910 0.987 . S
C1905 H1900 0.950 . S
C1905 C1907 1.327 . S
C1905 C1911 1.429 1_655 S
C1906 C1898 1.574 . S
C1906 H1901 0.949 . S
C1906 C1912 1.368 . S
C1907 C1891 1.352 . S
C1907 H1899 0.950 . S
C1907 C1905 1.327 . S
C1908 C1896 1.349 . S
C1908 H1902 0.950 . S
C1908 C1909 1.327 . S
C1909 H1903 0.950 . S
C1909 C1908 1.327 . S
C1909 C1913 1.429 . S
C1910 C1893 1.567 . S
C1910 H1904 0.987 . S
C1910 C1914 1.368 . S
C1911 C1892 1.429 . S
C1911 C1905 1.429 1_455 S
C1911 C1912 1.523 1_556 S
C1912 C1893 1.410 . S
C1912 C1906 1.368 . S
C1912 C1911 1.523 1_554 S
C1913 C1897 1.429 . S
C1913 C1909 1.429 . S
C1913 C1914 1.523 . S
C1914 C1898 1.368 . S
C1914 C1910 1.368 . S
C1914 C1913 1.523 . S
H1915 C1890 0.950 . S
H1916 C1892 0.950 . S
H1917 C1893 0.922 1_656 S
H1918 C1895 0.950 . S
H1919 C1897 0.950 . S
C1920 C1921 1.349 . S
C1920 C1922 1.327 . S
C1920 H1945 0.950 . S
C1921 C1920 1.349 . S
C1921 C1937 1.349 . S
C1922 C1920 1.327 . S
C1922 C1941 1.429 . S
C1922 H1946 0.950 . S
C1923 C1940 1.574 . S
C1923 C1942 1.368 . S
C1923 H1947 0.949 . S
H1924 C1928 0.949 . S
C1925 C1926 1.349 . S
C1925 C1927 1.327 . S
C1925 H1948 0.950 . S
C1926 C1925 1.349 . S
C1926 C1938 1.349 . S
C1927 C1925 1.327 . S
C1927 C1943 1.429 . S
C1927 H1949 0.950 . S
C1928 H1924 0.949 . S
C1928 C1936 1.574 . S
C1928 C1944 1.368 . S
H1929 C1937 0.950 . S
H1930 C1935 0.950 . S
H1931 C1936 0.949 . S
H1932 C1938 0.950 . S
H1933 C1939 0.950 . S
H1934 C1940 0.949 . S
C1935 H1930 0.950 . S
C1935 C1937 1.327 . S
C1935 C1941 1.429 . S
C1936 C1928 1.574 . S
C1936 H1931 0.949 . S
C1936 C1942 1.368 . S
C1937 C1921 1.349 . S
C1937 H1929 0.950 . S
C1937 C1935 1.327 . S
C1938 C1926 1.349 . S
C1938 H1932 0.950 . S
C1938 C1939 1.327 . S
C1939 H1933 0.950 . S
C1939 C1938 1.327 . S
C1939 C1943 1.429 . S
C1940 C1923 1.574 . S
C1940 H1934 0.949 . S
C1940 C1944 1.368 . S
C1941 C1922 1.429 . S
C1941 C1935 1.429 . S
C1941 C1942 1.523 . S
C1942 C1923 1.368 . S
C1942 C1936 1.368 . S
C1942 C1941 1.523 . S
C1943 C1927 1.429 . S
C1943 C1939 1.429 . S
C1943 C1944 1.523 1_556 S
C1944 C1928 1.368 . S
C1944 C1940 1.368 . S
C1944 C1943 1.523 1_554 S
H1945 C1920 0.950 . S
H1946 C1922 0.950 . S
H1947 C1923 0.949 . S
H1948 C1925 0.950 . S
H1949 C1927 0.950 . S
C1950 C1951 1.349 . S
C1950 C1952 1.327 . S
C1950 H1975 0.950 . S
C1951 C1950 1.349 . S
C1951 C1967 1.349 1_565 S
C1952 C1950 1.327 . S
C1952 C1971 1.397 1_565 S
C1952 H1976 0.950 . S
C1953 C1970 1.574 . S
C1953 C1972 1.368 . S
C1953 H1977 0.949 . S
H1954 C1958 0.949 . S
C1955 C1956 1.349 . S
C1955 C1957 1.327 . S
C1955 H1978 0.950 . S
C1956 C1955 1.349 . S
C1956 C1968 1.349 . S
C1957 C1955 1.327 . S
C1957 C1973 1.429 . S
C1957 H1979 0.950 . S
C1958 H1954 0.949 . S
C1958 C1966 1.574 1_556 S
C1958 C1974 1.368 1_565 S
H1959 C1967 0.950 . S
H1960 C1965 0.950 . S
H1961 C1966 0.949 . S
H1962 C1968 0.950 1_565 S
H1963 C1969 0.950 1_565 S
H1964 C1970 0.949 1_556 S
C1965 H1960 0.950 . S
C1965 C1967 1.327 . S
C1965 C1971 1.444 . S
C1966 C1958 1.574 1_554 S
C1966 H1961 0.949 . S
C1966 C1972 1.368 1_565 S
C1967 C1951 1.349 1_545 S
C1967 H1959 0.950 . S
C1967 C1965 1.327 . S
C1968 C1956 1.349 . S
C1968 H1962 0.950 1_545 S
C1968 C1969 1.327 . S
C1969 H1963 0.950 1_545 S
C1969 C1968 1.327 . S
C1969 C1973 1.429 . S
C1970 C1953 1.574 . S
C1970 H1964 0.949 1_554 S
C1970 C1974 1.368 1_554 S
C1971 C1952 1.397 1_545 S
C1971 C1965 1.444 . S
C1971 C1972 1.541 . S
C1972 C1953 1.368 . S
C1972 C1966 1.368 1_545 S
C1972 C1971 1.541 . S
C1973 C1957 1.429 . S
C1973 C1969 1.429 . S
C1973 C1974 1.523 . S
C1974 C1958 1.368 1_545 S
C1974 C1970 1.368 1_556 S
C1974 C1973 1.523 . S
H1975 C1950 0.950 . S
H1976 C1952 0.950 . S
H1977 C1953 0.949 . S
H1978 C1955 0.950 . S
H1979 C1957 0.950 . S
C1980 C1981 1.349 . S
C1980 C1982 1.327 . S
C1980 H2005 0.950 . S
C1981 C1980 1.349 . S
C1981 C1997 1.349 . S
C1982 C1980 1.327 . S
C1982 C2001 1.429 . S
C1982 H2006 0.950 . S
C1983 C2000 1.574 . S
C1983 C2002 1.368 . S
C1983 H2007 0.949 . S
H1984 C1988 0.949 . S
C1985 C1986 1.349 . S
C1985 C1987 1.327 . S
C1985 H2008 0.950 . S
C1986 C1985 1.349 . S
C1986 C1998 1.349 . S
C1987 C1985 1.327 . S
C1987 C2003 1.429 . S
C1987 H2009 0.950 . S
C1988 H1984 0.949 . S
C1988 C1996 1.574 . S
C1988 C2004 1.368 . S
H1989 C1997 0.950 . S
H1990 C1995 0.950 . S
H1991 C1996 0.949 . S
H1992 C1998 0.950 . S
H1993 C1999 0.950 . S
H1994 C2000 0.949 . S
C1995 H1990 0.950 . S
C1995 C1997 1.327 . S
C1995 C2001 1.429 . S
C1996 C1988 1.574 . S
C1996 H1991 0.949 . S
C1996 C2002 1.368 . S
C1997 C1981 1.349 . S
C1997 H1989 0.950 . S
C1997 C1995 1.327 . S
C1998 C1986 1.349 . S
C1998 H1992 0.950 . S
C1998 C1999 1.327 . S
C1999 H1993 0.950 . S
C1999 C1998 1.327 . S
C1999 C2003 1.429 . S
C2000 C1983 1.574 . S
C2000 H1994 0.949 . S
C2000 C2004 1.368 . S
C2001 C1982 1.429 . S
C2001 C1995 1.429 . S
C2001 C2002 1.523 . S
C2002 C1983 1.368 . S
C2002 C1996 1.368 . S
C2002 C2001 1.523 . S
C2003 C1987 1.429 . S
C2003 C1999 1.429 . S
C2003 C2004 1.523 . S
C2004 C1988 1.368 . S
C2004 C2000 1.368 . S
C2004 C2003 1.523 . S
H2005 C1980 0.950 . S
H2006 C1982 0.950 . S
H2007 C1983 0.949 . S
H2008 C1985 0.950 . S
H2009 C1987 0.950 . S
C2010 C2011 1.349 . S
C2010 C2012 1.327 . S
C2010 H2035 0.950 . S
C2011 C2010 1.349 . S
C2011 C2027 1.349 . S
C2012 C2010 1.327 . S
C2012 C2031 1.429 . S
C2012 H2036 0.950 . S
C2013 C2030 1.574 . S
C2013 C2032 1.368 . S
C2013 H2037 0.949 . S
H2014 C2018 0.949 . S
C2015 C2016 1.349 . S
C2015 C2017 1.327 . S
C2015 H2038 0.950 . S
C2016 C2015 1.349 . S
C2016 C2028 1.349 . S
C2017 C2015 1.327 . S
C2017 C2033 1.429 . S
C2017 H2039 0.950 . S
C2018 H2014 0.949 . S
C2018 C2026 1.574 . S
C2018 C2034 1.368 . S
H2019 C2027 0.950 . S
H2020 C2025 0.950 . S
H2021 C2026 0.949 . S
H2022 C2028 0.950 . S
H2023 C2029 0.950 . S
H2024 C2030 0.949 . S
C2025 H2020 0.950 . S
C2025 C2027 1.327 . S
C2025 C2031 1.429 . S
C2026 C2018 1.574 . S
C2026 H2021 0.949 . S
C2026 C2032 1.368 . S
C2027 C2011 1.349 . S
C2027 H2019 0.950 . S
C2027 C2025 1.327 . S
C2028 C2016 1.349 . S
C2028 H2022 0.950 . S
C2028 C2029 1.327 . S
C2029 H2023 0.950 . S
C2029 C2028 1.327 . S
C2029 C2033 1.429 . S
C2030 C2013 1.574 . S
C2030 H2024 0.949 . S
C2030 C2034 1.368 . S
C2031 C2012 1.429 . S
C2031 C2025 1.429 . S
C2031 C2032 1.523 . S
C2032 C2013 1.368 . S
C2032 C2026 1.368 . S
C2032 C2031 1.523 . S
C2033 C2017 1.429 . S
C2033 C2029 1.429 . S
C2033 C2034 1.523 . S
C2034 C2018 1.368 . S
C2034 C2030 1.368 . S
C2034 C2033 1.523 . S
H2035 C2010 0.950 . S
H2036 C2012 0.950 . S
H2037 C2013 0.949 . S
H2038 C2015 0.950 . S
H2039 C2017 0.950 . S
C2040 C2041 1.349 . S
C2040 C2042 1.327 . S
C2040 H2065 0.950 . S
C2041 C2040 1.349 . S
C2041 C2057 1.349 . S
C2042 C2040 1.327 . S
C2042 C2061 1.429 . S
C2042 H2066 0.950 . S
C2043 C2060 1.574 . S
C2043 C2062 1.368 . S
C2043 H2067 0.949 . S
H2044 C2048 0.949 . S
C2045 C2046 1.349 . S
C2045 C2047 1.327 . S
C2045 H2068 0.950 . S
C2046 C2045 1.349 . S
C2046 C2058 1.349 . S
C2047 C2045 1.327 . S
C2047 C2063 1.429 . S
C2047 H2069 0.950 . S
C2048 H2044 0.949 . S
C2048 C2056 1.574 . S
C2048 C2064 1.368 . S
H2049 C2057 0.950 . S
H2050 C2055 0.950 . S
H2051 C2056 0.949 . S
H2052 C2058 0.950 . S
H2053 C2059 0.950 . S
H2054 C2060 0.949 . S
C2055 H2050 0.950 . S
C2055 C2057 1.327 . S
C2055 C2061 1.429 . S
C2056 C2048 1.574 . S
C2056 H2051 0.949 . S
C2056 C2062 1.368 . S
C2057 C2041 1.349 . S
C2057 H2049 0.950 . S
C2057 C2055 1.327 . S
C2058 C2046 1.349 . S
C2058 H2052 0.950 . S
C2058 C2059 1.327 . S
C2059 H2053 0.950 . S
C2059 C2058 1.327 . S
C2059 C2063 1.429 . S
C2060 C2043 1.574 . S
C2060 H2054 0.949 . S
C2060 C2064 1.368 . S
C2061 C2042 1.429 . S
C2061 C2055 1.429 . S
C2061 C2062 1.523 . S
C2062 C2043 1.368 . S
C2062 C2056 1.368 . S
C2062 C2061 1.523 . S
C2063 C2047 1.429 . S
C2063 C2059 1.429 . S
C2063 C2064 1.523 . S
C2064 C2048 1.368 . S
C2064 C2060 1.368 . S
C2064 C2063 1.523 . S
H2065 C2040 0.950 . S
H2066 C2042 0.950 . S
H2067 C2043 0.949 . S
H2068 C2045 0.950 . S
H2069 C2047 0.950 . S
C2070 C2071 1.349 . S
C2070 C2072 1.327 . S
C2070 H2095 0.950 . S
C2071 C2070 1.349 . S
C2071 C2087 1.349 . S
C2072 C2070 1.327 . S
C2072 C2091 1.429 . S
C2072 H2096 0.950 . S
C2073 C2090 1.574 . S
C2073 C2092 1.368 . S
C2073 H2097 0.949 . S
H2074 C2078 0.949 . S
C2075 C2076 1.349 . S
C2075 C2077 1.327 . S
C2075 H2098 0.950 . S
C2076 C2075 1.349 . S
C2076 C2088 1.349 . S
C2077 C2075 1.327 . S
C2077 C2093 1.429 . S
C2077 H2099 0.950 . S
C2078 H2074 0.949 . S
C2078 C2086 1.574 . S
C2078 C2094 1.368 . S
H2079 C2087 0.950 . S
H2080 C2085 0.950 . S
H2081 C2086 0.949 . S
H2082 C2088 0.950 . S
H2083 C2089 0.950 . S
H2084 C2090 0.949 . S
C2085 H2080 0.950 . S
C2085 C2087 1.327 . S
C2085 C2091 1.429 . S
C2086 C2078 1.574 . S
C2086 H2081 0.949 . S
C2086 C2092 1.368 . S
C2087 C2071 1.349 . S
C2087 H2079 0.950 . S
C2087 C2085 1.327 . S
C2088 C2076 1.349 . S
C2088 H2082 0.950 . S
C2088 C2089 1.327 . S
C2089 H2083 0.950 . S
C2089 C2088 1.327 . S
C2089 C2093 1.429 . S
C2090 C2073 1.574 . S
C2090 H2084 0.949 . S
C2090 C2094 1.368 . S
C2091 C2072 1.429 . S
C2091 C2085 1.429 . S
C2091 C2092 1.523 . S
C2092 C2073 1.368 . S
C2092 C2086 1.368 . S
C2092 C2091 1.523 . S
C2093 C2077 1.429 . S
C2093 C2089 1.429 . S
C2093 C2094 1.523 . S
C2094 C2078 1.368 . S
C2094 C2090 1.368 . S
C2094 C2093 1.523 . S
H2095 C2070 0.950 . S
H2096 C2072 0.950 . S
H2097 C2073 0.949 . S
H2098 C2075 0.950 . S
H2099 C2077 0.950 . S
C2100 C2101 1.349 . S
C2100 C2102 1.327 . S
C2100 H2125 0.950 . S
C2101 C2100 1.349 . S
C2101 C2117 1.349 . S
C2102 C2100 1.327 . S
C2102 C2121 1.429 . S
C2102 H2126 0.950 . S
C2103 C2120 1.574 . S
C2103 C2122 1.368 . S
C2103 H2127 0.949 . S
H2104 C2108 0.949 . S
C2105 C2106 1.349 . S
C2105 C2107 1.327 . S
C2105 H2128 0.950 . S
C2106 C2105 1.349 . S
C2106 C2118 1.349 . S
C2107 C2105 1.327 . S
C2107 C2123 1.429 . S
C2107 H2129 0.950 . S
C2108 H2104 0.949 . S
C2108 C2116 1.574 . S
C2108 C2124 1.368 . S
H2109 C2117 0.950 . S
H2110 C2115 0.950 . S
H2111 C2116 0.949 . S
H2112 C2118 0.950 . S
H2113 C2119 0.950 . S
H2114 C2120 0.949 . S
C2115 H2110 0.950 . S
C2115 C2117 1.327 . S
C2115 C2121 1.429 . S
C2116 C2108 1.574 . S
C2116 H2111 0.949 . S
C2116 C2122 1.368 . S
C2117 C2101 1.349 . S
C2117 H2109 0.950 . S
C2117 C2115 1.327 . S
C2118 C2106 1.349 . S
C2118 H2112 0.950 . S
C2118 C2119 1.327 . S
C2119 H2113 0.950 . S
C2119 C2118 1.327 . S
C2119 C2123 1.429 . S
C2120 C2103 1.574 . S
C2120 H2114 0.949 . S
C2120 C2124 1.368 . S
C2121 C2102 1.429 . S
C2121 C2115 1.429 . S
C2121 C2122 1.523 . S
C2122 C2103 1.368 . S
C2122 C2116 1.368 . S
C2122 C2121 1.523 . S
C2123 C2107 1.429 . S
C2123 C2119 1.429 . S
C2123 C2124 1.523 . S
C2124 C2108 1.368 . S
C2124 C2120 1.368 . S
C2124 C2123 1.523 . S
H2125 C2100 0.950 . S
H2126 C2102 0.950 . S
H2127 C2103 0.949 . S
H2128 C2105 0.950 . S
H2129 C2107 0.950 . S
C2130 C2131 1.349 . S
C2130 C2132 1.327 . S
C2130 H2155 0.950 . S
C2131 C2130 1.349 . S
C2131 C2147 1.349 . S
C2132 C2130 1.327 . S
C2132 C2151 1.429 . S
C2132 H2156 0.950 . S
C2133 C2150 1.574 . S
C2133 C2152 1.368 . S
C2133 H2157 0.949 . S
H2134 C2138 0.949 . S
C2135 C2136 1.349 . S
C2135 C2137 1.327 . S
C2135 H2158 0.950 . S
C2136 C2135 1.349 . S
C2136 C2148 1.349 . S
C2137 C2135 1.327 . S
C2137 C2153 1.429 . S
C2137 H2159 0.950 . S
C2138 H2134 0.949 . S
C2138 C2146 1.574 . S
C2138 C2154 1.368 . S
H2139 C2147 0.950 . S
H2140 C2145 0.950 . S
H2141 C2146 0.949 . S
H2142 C2148 0.950 . S
H2143 C2149 0.950 . S
H2144 C2150 0.949 . S
C2145 H2140 0.950 . S
C2145 C2147 1.327 . S
C2145 C2151 1.429 . S
C2146 C2138 1.574 . S
C2146 H2141 0.949 . S
C2146 C2152 1.368 . S
C2147 C2131 1.349 . S
C2147 H2139 0.950 . S
C2147 C2145 1.327 . S
C2148 C2136 1.349 . S
C2148 H2142 0.950 . S
C2148 C2149 1.327 . S
C2149 H2143 0.950 . S
C2149 C2148 1.327 . S
C2149 C2153 1.429 . S
C2150 C2133 1.574 . S
C2150 H2144 0.949 . S
C2150 C2154 1.368 . S
C2151 C2132 1.429 . S
C2151 C2145 1.429 . S
C2151 C2152 1.523 . S
C2152 C2133 1.368 . S
C2152 C2146 1.368 . S
C2152 C2151 1.523 . S
C2153 C2137 1.429 . S
C2153 C2149 1.429 . S
C2153 C2154 1.523 . S
C2154 C2138 1.368 . S
C2154 C2150 1.368 . S
C2154 C2153 1.523 . S
H2155 C2130 0.950 . S
H2156 C2132 0.950 . S
H2157 C2133 0.949 . S
H2158 C2135 0.950 . S
H2159 C2137 0.950 . S
C2160 C2161 1.349 . S
C2160 C2162 1.327 . S
C2160 H2185 0.950 . S
C2161 C2160 1.349 . S
C2161 C2177 1.349 . S
C2162 C2160 1.327 . S
C2162 C2181 1.429 . S
C2162 H2186 0.950 . S
C2163 C2180 1.574 . S
C2163 C2182 1.368 . S
C2163 H2187 0.949 . S
H2164 C2168 0.949 . S
C2165 C2166 1.349 . S
C2165 C2167 1.327 . S
C2165 H2188 0.950 . S
C2166 C2165 1.349 . S
C2166 C2178 1.349 . S
C2167 C2165 1.327 . S
C2167 C2183 1.429 . S
C2167 H2189 0.950 . S
C2168 H2164 0.949 . S
C2168 C2176 1.574 . S
C2168 C2184 1.368 . S
H2169 C2177 0.950 . S
H2170 C2175 0.950 . S
H2171 C2176 0.949 . S
H2172 C2178 0.950 . S
H2173 C2179 0.950 . S
H2174 C2180 0.949 . S
C2175 H2170 0.950 . S
C2175 C2177 1.327 . S
C2175 C2181 1.429 . S
C2176 C2168 1.574 . S
C2176 H2171 0.949 . S
C2176 C2182 1.368 . S
C2177 C2161 1.349 . S
C2177 H2169 0.950 . S
C2177 C2175 1.327 . S
C2178 C2166 1.349 . S
C2178 H2172 0.950 . S
C2178 C2179 1.327 . S
C2179 H2173 0.950 . S
C2179 C2178 1.327 . S
C2179 C2183 1.429 . S
C2180 C2163 1.574 . S
C2180 H2174 0.949 . S
C2180 C2184 1.368 . S
C2181 C2162 1.429 . S
C2181 C2175 1.429 . S
C2181 C2182 1.523 . S
C2182 C2163 1.368 . S
C2182 C2176 1.368 . S
C2182 C2181 1.523 . S
C2183 C2167 1.429 . S
C2183 C2179 1.429 . S
C2183 C2184 1.523 . S
C2184 C2168 1.368 . S
C2184 C2180 1.368 . S
C2184 C2183 1.523 . S
H2185 C2160 0.950 . S
H2186 C2162 0.950 . S
H2187 C2163 0.949 . S
H2188 C2165 0.950 . S
H2189 C2167 0.950 . S
C2190 C2191 1.349 . S
C2190 C2192 1.327 . S
C2190 H2215 0.950 . S
C2191 C2190 1.349 . S
C2191 C2207 1.349 . S
C2192 C2190 1.327 . S
C2192 C2211 1.429 . S
C2192 H2216 0.950 . S
C2193 C2210 1.574 . S
C2193 C2212 1.368 . S
C2193 H2217 0.949 . S
H2194 C2198 0.949 . S
C2195 C2196 1.349 . S
C2195 C2197 1.327 . S
C2195 H2218 0.950 . S
C2196 C2195 1.349 . S
C2196 C2208 1.349 . S
C2197 C2195 1.327 . S
C2197 C2213 1.429 . S
C2197 H2219 0.950 . S
C2198 H2194 0.949 . S
C2198 C2206 1.574 . S
C2198 C2214 1.368 . S
H2199 C2207 0.950 . S
H2200 C2205 0.950 . S
H2201 C2206 0.949 . S
H2202 C2208 0.950 . S
H2203 C2209 0.950 . S
H2204 C2210 0.949 . S
C2205 H2200 0.950 . S
C2205 C2207 1.327 . S
C2205 C2211 1.429 . S
C2206 C2198 1.574 . S
C2206 H2201 0.949 . S
C2206 C2212 1.368 . S
C2207 C2191 1.349 . S
C2207 H2199 0.950 . S
C2207 C2205 1.327 . S
C2208 C2196 1.349 . S
C2208 H2202 0.950 . S
C2208 C2209 1.327 . S
C2209 H2203 0.950 . S
C2209 C2208 1.327 . S
C2209 C2213 1.429 . S
C2210 C2193 1.574 . S
C2210 H2204 0.949 . S
C2210 C2214 1.368 . S
C2211 C2192 1.429 . S
C2211 C2205 1.429 . S
C2211 C2212 1.523 . S
C2212 C2193 1.368 . S
C2212 C2206 1.368 . S
C2212 C2211 1.523 . S
C2213 C2197 1.429 . S
C2213 C2209 1.429 . S
C2213 C2214 1.523 . S
C2214 C2198 1.368 . S
C2214 C2210 1.368 . S
C2214 C2213 1.523 . S
H2215 C2190 0.950 . S
H2216 C2192 0.950 . S
H2217 C2193 0.949 . S
H2218 C2195 0.950 . S
H2219 C2197 0.950 . S
C2220 C2221 1.349 . S
C2220 C2222 1.327 . S
C2220 H2245 0.950 . S
C2221 C2220 1.349 . S
C2221 C2237 1.349 . S
C2222 C2220 1.327 . S
C2222 C2241 1.429 . S
C2222 H2246 0.950 . S
C2223 C2240 1.574 . S
C2223 C2242 1.368 . S
C2223 H2247 0.949 . S
H2224 C2228 0.949 . S
C2225 C2226 1.349 . S
C2225 C2227 1.327 . S
C2225 H2248 0.950 . S
C2226 C2225 1.349 . S
C2226 C2238 1.349 . S
C2227 C2225 1.327 . S
C2227 C2243 1.429 . S
C2227 H2249 0.950 . S
C2228 H2224 0.949 . S
C2228 C2236 1.574 . S
C2228 C2244 1.368 . S
H2229 C2237 0.950 . S
H2230 C2235 0.950 . S
H2231 C2236 0.949 . S
H2232 C2238 0.950 . S
H2233 C2239 0.950 . S
H2234 C2240 0.949 . S
C2235 H2230 0.950 . S
C2235 C2237 1.327 . S
C2235 C2241 1.429 . S
C2236 C2228 1.574 . S
C2236 H2231 0.949 . S
C2236 C2242 1.368 . S
C2237 C2221 1.349 . S
C2237 H2229 0.950 . S
C2237 C2235 1.327 . S
C2238 C2226 1.349 . S
C2238 H2232 0.950 . S
C2238 C2239 1.327 . S
C2239 H2233 0.950 . S
C2239 C2238 1.327 . S
C2239 C2243 1.429 . S
C2240 C2223 1.574 . S
C2240 H2234 0.949 . S
C2240 C2244 1.368 . S
C2241 C2222 1.429 . S
C2241 C2235 1.429 . S
C2241 C2242 1.523 . S
C2242 C2223 1.368 . S
C2242 C2236 1.368 . S
C2242 C2241 1.523 . S
C2243 C2227 1.429 . S
C2243 C2239 1.429 . S
C2243 C2244 1.523 . S
C2244 C2228 1.368 . S
C2244 C2240 1.368 . S
C2244 C2243 1.523 . S
H2245 C2220 0.950 . S
H2246 C2222 0.950 . S
H2247 C2223 0.949 . S
H2248 C2225 0.950 . S
H2249 C2227 0.950 . S
C2250 C2251 1.349 . S
C2250 C2252 1.327 . S
C2250 H2275 0.950 . S
C2251 C2250 1.349 . S
C2251 C2267 1.349 . S
C2252 C2250 1.327 . S
C2252 C2271 1.429 . S
C2252 H2276 0.950 . S
C2253 C2270 1.574 . S
C2253 C2272 1.368 . S
C2253 H2277 0.949 . S
H2254 C2258 0.949 . S
C2255 C2256 1.349 . S
C2255 C2257 1.327 . S
C2255 H2278 0.950 . S
C2256 C2255 1.349 . S
C2256 C2268 1.349 . S
C2257 C2255 1.327 . S
C2257 C2273 1.429 . S
C2257 H2279 0.950 . S
C2258 H2254 0.949 . S
C2258 C2266 1.574 . S
C2258 C2274 1.368 . S
H2259 C2267 0.950 . S
H2260 C2265 0.950 . S
H2261 C2266 0.949 . S
H2262 C2268 0.950 . S
H2263 C2269 0.950 . S
H2264 C2270 0.949 . S
C2265 H2260 0.950 . S
C2265 C2267 1.327 . S
C2265 C2271 1.429 . S
C2266 C2258 1.574 . S
C2266 H2261 0.949 . S
C2266 C2272 1.368 . S
C2267 C2251 1.349 . S
C2267 H2259 0.950 . S
C2267 C2265 1.327 . S
C2268 C2256 1.349 . S
C2268 H2262 0.950 . S
C2268 C2269 1.327 . S
C2269 H2263 0.950 . S
C2269 C2268 1.327 . S
C2269 C2273 1.429 . S
C2270 C2253 1.574 . S
C2270 H2264 0.949 . S
C2270 C2274 1.368 . S
C2271 C2252 1.429 . S
C2271 C2265 1.429 . S
C2271 C2272 1.523 . S
C2272 C2253 1.368 . S
C2272 C2266 1.368 . S
C2272 C2271 1.523 . S
C2273 C2257 1.429 . S
C2273 C2269 1.429 . S
C2273 C2274 1.523 . S
C2274 C2258 1.368 . S
C2274 C2270 1.368 . S
C2274 C2273 1.523 . S
H2275 C2250 0.950 . S
H2276 C2252 0.950 . S
H2277 C2253 0.949 . S
H2278 C2255 0.950 . S
H2279 C2257 0.950 . S
C2280 C2281 1.349 . S
C2280 C2282 1.327 . S
C2280 H2305 0.950 . S
C2281 C2280 1.349 . S
C2281 C2297 1.349 . S
C2282 C2280 1.327 . S
C2282 C2301 1.429 . S
C2282 H2306 0.950 . S
C2283 C2300 1.574 . S
C2283 C2302 1.368 . S
C2283 H2307 0.949 . S
H2284 C2288 0.949 . S
C2285 C2286 1.349 . S
C2285 C2287 1.327 . S
C2285 H2308 0.950 . S
C2286 C2285 1.349 . S
C2286 C2298 1.349 . S
C2287 C2285 1.327 . S
C2287 C2303 1.429 . S
C2287 H2309 0.950 . S
C2288 H2284 0.949 . S
C2288 C2296 1.574 . S
C2288 C2304 1.368 . S
H2289 C2297 0.950 . S
H2290 C2295 0.950 . S
H2291 C2296 0.949 . S
H2292 C2298 0.950 . S
H2293 C2299 0.950 . S
H2294 C2300 0.949 . S
C2295 H2290 0.950 . S
C2295 C2297 1.327 . S
C2295 C2301 1.429 . S
C2296 C2288 1.574 . S
C2296 H2291 0.949 . S
C2296 C2302 1.368 . S
C2297 C2281 1.349 . S
C2297 H2289 0.950 . S
C2297 C2295 1.327 . S
C2298 C2286 1.349 . S
C2298 H2292 0.950 . S
C2298 C2299 1.327 . S
C2299 H2293 0.950 . S
C2299 C2298 1.327 . S
C2299 C2303 1.429 . S
C2300 C2283 1.574 . S
C2300 H2294 0.949 . S
C2300 C2304 1.368 . S
C2301 C2282 1.429 . S
C2301 C2295 1.429 . S
C2301 C2302 1.523 . S
C2302 C2283 1.368 . S
C2302 C2296 1.368 . S
C2302 C2301 1.523 . S
C2303 C2287 1.429 . S
C2303 C2299 1.429 . S
C2303 C2304 1.523 . S
C2304 C2288 1.368 . S
C2304 C2300 1.368 . S
C2304 C2303 1.523 . S
H2305 C2280 0.950 . S
H2306 C2282 0.950 . S
H2307 C2283 0.949 . S
H2308 C2285 0.950 . S
H2309 C2287 0.950 . S
C2310 C2311 1.349 . S
C2310 C2312 1.327 . S
C2310 H2335 0.950 . S
C2311 C2310 1.349 . S
C2311 C2327 1.349 . S
C2312 C2310 1.327 . S
C2312 C2331 1.429 . S
C2312 H2336 0.950 . S
C2313 C2330 1.574 . S
C2313 C2332 1.368 . S
C2313 H2337 0.949 . S
H2314 C2318 0.949 . S
C2315 C2316 1.349 . S
C2315 C2317 1.327 . S
C2315 H2338 0.950 . S
C2316 C2315 1.349 . S
C2316 C2328 1.349 . S
C2317 C2315 1.327 . S
C2317 C2333 1.429 . S
C2317 H2339 0.950 . S
C2318 H2314 0.949 . S
C2318 C2326 1.574 . S
C2318 C2334 1.368 . S
H2319 C2327 0.950 . S
H2320 C2325 0.950 . S
H2321 C2326 0.949 . S
H2322 C2328 0.950 . S
H2323 C2329 0.950 . S
H2324 C2330 0.949 . S
C2325 H2320 0.950 . S
C2325 C2327 1.327 . S
C2325 C2331 1.429 . S
C2326 C2318 1.574 . S
C2326 H2321 0.949 . S
C2326 C2332 1.368 . S
C2327 C2311 1.349 . S
C2327 H2319 0.950 . S
C2327 C2325 1.327 . S
C2328 C2316 1.349 . S
C2328 H2322 0.950 . S
C2328 C2329 1.327 . S
C2329 H2323 0.950 . S
C2329 C2328 1.327 . S
C2329 C2333 1.429 . S
C2330 C2313 1.574 . S
C2330 H2324 0.949 . S
C2330 C2334 1.368 . S
C2331 C2312 1.429 . S
C2331 C2325 1.429 . S
C2331 C2332 1.523 . S
C2332 C2313 1.368 . S
C2332 C2326 1.368 . S
C2332 C2331 1.523 . S
C2333 C2317 1.429 . S
C2333 C2329 1.429 . S
C2333 C2334 1.523 . S
C2334 C2318 1.368 . S
C2334 C2330 1.368 . S
C2334 C2333 1.523 . S
H2335 C2310 0.950 . S
H2336 C2312 0.950 . S
H2337 C2313 0.949 . S
H2338 C2315 0.950 . S
H2339 C2317 0.950 . S
C721 C539 2.454 . S
C726 C19 2.458 . S
C751 C58 1.580 . S
C756 C578 1.582 . S
C781 C99 2.046 . S
C786 C498 2.089 . S
C811 C98 1.396 . S
C816 C298 1.392 . S
C841 C338 1.771 . S
C846 C18 1.768 . S
C871 C59 2.135 . S
C876 C258 2.173 . S
C901 C130 2.046 . S
C906 C409 2.074 . S
C931 C169 1.257 . S
C936 C449 1.259 . S
C961 C369 1.720 . S
C966 C210 1.680 . S
C991 C649 1.593 . S
C996 C209 1.598 . S
C1021 C129 2.079 . S
C1026 C690 2.044 . S
C1051 C610 2.472 . S
C1056 C170 2.452 . S
C1081 C339 1.905 . S
C1086 C538 1.946 . S
C1111 C259 2.338 . S
C1116 C579 2.328 . S
C1141 C299 2.660 . S
C1146 C499 2.676 . S
C1171 C370 2.803 . S
C1176 C650 2.796 . S
C1201 C689 2.102 . S
C1206 C410 2.069 . S
C1231 C609 2.451 . S
C1236 C450 2.406 . S
C1261 C9 1.318 . S
C1266 C178 1.321 . S
C1291 C219 1.728 . S
C1296 C50 1.727 . S
C1321 C139 1.524 . S
C1326 C89 1.377 . S
C1351 C179 1.789 . S
C1356 C90 1.823 . S
C1381 C218 1.513 . S
C1386 C10 1.605 . S
C1411 C138 1.437 . S
C1416 C49 1.474 . S
C1441 C419 1.885 . S
C1446 C250 1.874 . S
C1471 C459 1.957 . S
C1476 C290 1.946 . S
C1501 C379 1.944 . S
C1506 C330 1.877 . S
C1531 C418 1.385 . S
C1536 C329 1.390 . S
C1561 C458 1.335 . S
C1566 C249 1.406 . S
C1591 C378 1.351 . S
C1596 C289 1.362 . S
C1621 C658 1.489 . S
C1626 C489 1.453 . S
C1651 C699 1.831 . S
C1656 C530 1.798 . S
C1681 C569 1.527 . S
C1686 C619 1.619 . S
C1711 C570 2.005 . S
C1716 C659 2.005 . S
C1741 C490 1.757 . S
C1746 C698 1.591 . S
C1771 C618 1.483 . S
C1776 C529 1.484 . S
C1801 C15 1.287 . S
C1806 C6 1.285 1_655 S
C1831 C46 1.411 . S
C1836 C55 1.411 . S
C1861 C95 1.401 . S
C1866 C86 1.401 . S
C1891 C126 1.344 1_655 S
C1896 C135 1.346 . S
C1921 C166 1.335 . S
C1926 C175 1.335 . S
C1951 C215 1.508 . S
C1956 C206 1.508 . S
C1981 C255 1.509 . S
C1986 C246 1.509 . S
C2011 C286 1.296 . S
C2016 C295 1.296 . S
C2041 C335 1.620 . S
C2046 C326 1.620 . S
C2071 C366 1.241 . S
C2076 C375 1.241 . S
C2101 C406 1.522 . S
C2106 C415 1.522 . S
C2131 C446 1.366 . S
C2136 C455 1.366 . S
C2161 C486 1.245 . S
C2166 C495 1.245 . S
C2191 C526 1.379 . S
C2196 C535 1.379 . S
C2221 C575 1.359 . S
C2226 C566 1.359 . S
C2251 C615 1.362 . S
C2256 C606 1.362 . S
C2281 C646 1.285 . S
C2286 C655 1.285 . S
C2311 C686 1.420 . S
C2316 C695 1.420 . S
