# Generated by pormake.
# Topology uob, (4)-cn, num edge types: 1
# Building blocks:
#     Node 0, Type 0, BuildingBlock: QUQFOY_clean_sbu_1, # of connection points: 4
#     Node 1, Type 0, BuildingBlock: QUQFOY_clean_sbu_1, # of connection points: 4
#     Node 2, Type 0, BuildingBlock: QUQFOY_clean_sbu_1, # of connection points: 4
#     Node 3, Type 0, BuildingBlock: QUQFOY_clean_sbu_1, # of connection points: 4
#     Node 4, Type 0, BuildingBlock: QUQFOY_clean_sbu_1, # of connection points: 4
#     Node 5, Type 0, BuildingBlock: QUQFOY_clean_sbu_1, # of connection points: 4
#     Node 6, Type 0, BuildingBlock: QUQFOY_clean_sbu_1, # of connection points: 4
#     Node 7, Type 0, BuildingBlock: QUQFOY_clean_sbu_1, # of connection points: 4
#     Node 8, Type 0, BuildingBlock: QUQFOY_clean_sbu_1, # of connection points: 4
#     Node 9, Type 0, BuildingBlock: QUQFOY_clean_sbu_1, # of connection points: 4
#     Node 10, Type 0, BuildingBlock: QUQFOY_clean_sbu_1, # of connection points: 4
#     Node 11, Type 0, BuildingBlock: QUQFOY_clean_sbu_1, # of connection points: 4
#     Node 12, Type 0, BuildingBlock: QUQFOY_clean_sbu_1, # of connection points: 4
#     Node 13, Type 0, BuildingBlock: QUQFOY_clean_sbu_1, # of connection points: 4
#     Node 14, Type 0, BuildingBlock: QUQFOY_clean_sbu_1, # of connection points: 4
#     Node 15, Type 0, BuildingBlock: QUQFOY_clean_sbu_1, # of connection points: 4
#     Edge 16, Type (0, 0), BuildingBlock: CIFDUS_clean_linker_0, # of connection points: 2
#     Edge 17, Type (0, 0), BuildingBlock: CIFDUS_clean_linker_0, # of connection points: 2
#     Edge 18, Type (0, 0), BuildingBlock: CIFDUS_clean_linker_0, # of connection points: 2
#     Edge 19, Type (0, 0), BuildingBlock: CIFDUS_clean_linker_0, # of connection points: 2
#     Edge 20, Type (0, 0), BuildingBlock: CIFDUS_clean_linker_0, # of connection points: 2
#     Edge 21, Type (0, 0), BuildingBlock: CIFDUS_clean_linker_0, # of connection points: 2
#     Edge 22, Type (0, 0), BuildingBlock: CIFDUS_clean_linker_0, # of connection points: 2
#     Edge 23, Type (0, 0), BuildingBlock: CIFDUS_clean_linker_0, # of connection points: 2
#     Edge 24, Type (0, 0), BuildingBlock: CIFDUS_clean_linker_0, # of connection points: 2
#     Edge 25, Type (0, 0), BuildingBlock: CIFDUS_clean_linker_0, # of connection points: 2
#     Edge 26, Type (0, 0), BuildingBlock: CIFDUS_clean_linker_0, # of connection points: 2
#     Edge 27, Type (0, 0), BuildingBlock: CIFDUS_clean_linker_0, # of connection points: 2
#     Edge 28, Type (0, 0), BuildingBlock: CIFDUS_clean_linker_0, # of connection points: 2
#     Edge 29, Type (0, 0), BuildingBlock: CIFDUS_clean_linker_0, # of connection points: 2
#     Edge 30, Type (0, 0), BuildingBlock: CIFDUS_clean_linker_0, # of connection points: 2
#     Edge 31, Type (0, 0), BuildingBlock: CIFDUS_clean_linker_0, # of connection points: 2
#     Edge 32, Type (0, 0), BuildingBlock: CIFDUS_clean_linker_0, # of connection points: 2
#     Edge 33, Type (0, 0), BuildingBlock: CIFDUS_clean_linker_0, # of connection points: 2
#     Edge 34, Type (0, 0), BuildingBlock: CIFDUS_clean_linker_0, # of connection points: 2
#     Edge 35, Type (0, 0), BuildingBlock: CIFDUS_clean_linker_0, # of connection points: 2
#     Edge 36, Type (0, 0), BuildingBlock: CIFDUS_clean_linker_0, # of connection points: 2
#     Edge 37, Type (0, 0), BuildingBlock: CIFDUS_clean_linker_0, # of connection points: 2
#     Edge 38, Type (0, 0), BuildingBlock: CIFDUS_clean_linker_0, # of connection points: 2
#     Edge 39, Type (0, 0), BuildingBlock: CIFDUS_clean_linker_0, # of connection points: 2
#     Edge 40, Type (0, 0), BuildingBlock: CIFDUS_clean_linker_0, # of connection points: 2
#     Edge 41, Type (0, 0), BuildingBlock: CIFDUS_clean_linker_0, # of connection points: 2
#     Edge 42, Type (0, 0), BuildingBlock: CIFDUS_clean_linker_0, # of connection points: 2
#     Edge 43, Type (0, 0), BuildingBlock: CIFDUS_clean_linker_0, # of connection points: 2
#     Edge 44, Type (0, 0), BuildingBlock: CIFDUS_clean_linker_0, # of connection points: 2
#     Edge 45, Type (0, 0), BuildingBlock: CIFDUS_clean_linker_0, # of connection points: 2
#     Edge 46, Type (0, 0), BuildingBlock: CIFDUS_clean_linker_0, # of connection points: 2
#     Edge 47, Type (0, 0), BuildingBlock: CIFDUS_clean_linker_0, # of connection points: 2
# Relax obj value: 0.043
# Max RMSD: 0.119
# Mean RMSD: 0.119
data_MOF--net-uob--node1-QUQFOY_clean_sbu_1--edge1-CIFDUS_clean_linker_0
_symmetry_space_group_name_H-M    P1
_symmetry_Int_Tables_number       1
_symmetry_cell_setting            triclinic
loop_
_symmetry_equiv_pos_as_xyz
'x, y, z'
_cell_length_a     48.840752
_cell_length_b     49.223661
_cell_length_c     24.738429
_cell_angle_alpha  89.928488
_cell_angle_beta   90.095322
_cell_angle_gamma 89.972548
loop_
_atom_site_label
_atom_site_type_symbol
_atom_site_fract_x
_atom_site_fract_y
_atom_site_fract_z
_atom_type_partial_charge
O0 O 0.14986 0.07538 0.40501 0.0
Cd1 Cd 0.14752 0.04524 0.34849 0.0
Cd2 Cd 0.12862 0.09314 0.29411 0.0
O3 O 0.14334 0.11398 0.36133 0.0
O4 O 0.16553 0.01632 0.3931 0.0
O5 O 0.18467 0.03354 0.32009 0.0
C6 C 0.18695 0.01887 0.36323 0.0
C7 C 0.13703 0.10461 0.20337 0.0
C8 C 0.14956 0.10113 0.40433 0.0
C9 C 0.08819 0.04729 0.31726 0.0
O10 O 0.09259 0.07213 0.30588 0.0
O11 O 0.10805 0.03153 0.32958 0.0
O12 O 0.1207 0.11887 0.23295 0.0
O13 O 0.15003 0.08483 0.22644 0.0
O14 O 0.95125 0.64517 0.65126 0.0
Cd15 Cd 0.97976 0.64659 0.59074 0.0
Cd16 Cd 0.93432 0.62145 0.54137 0.0
O17 O 0.91307 0.63259 0.61064 0.0
O18 O 1.00738 0.66977 0.6287 0.0
O19 O 0.98496 0.68341 0.556 0.0
C20 C 1.00106 0.68913 0.59592 0.0
C21 C 0.92003 0.62973 0.45225 0.0
C22 C 0.92568 0.64077 0.65264 0.0
C23 C 0.98597 0.5882 0.55884 0.0
O24 O 0.96033 0.58868 0.54969 0.0
O25 O 0.99876 0.61003 0.57053 0.0
O26 O 0.90837 0.61143 0.48171 0.0
O27 O 0.93872 0.64456 0.47468 0.0
O28 O 0.38202 0.43757 0.92611 0.0
Cd29 Cd 0.38399 0.47221 0.88004 0.0
Cd30 Cd 0.40309 0.42837 0.81134 0.0
O31 O 0.38959 0.40293 0.87166 0.0
O32 O 0.36844 0.49745 0.9354 0.0
O33 O 0.34704 0.48796 0.85925 0.0
C34 C 0.34653 0.49899 0.90661 0.0
C35 C 0.39563 0.41857 0.7201 0.0
C36 C 0.38311 0.41216 0.91777 0.0
C37 C 0.44277 0.47318 0.84458 0.0
O38 O 0.43876 0.44928 0.82681 0.0
O39 O 0.42289 0.48741 0.86235 0.0
O40 O 0.41272 0.40473 0.7488 0.0
O41 O 0.38171 0.43738 0.74402 0.0
O42 O 0.58759 0.87755 0.1481 0.0
Cd43 Cd 0.55379 0.87585 0.09852 0.0
Cd44 Cd 0.59427 0.90137 0.03329 0.0
O45 O 0.62085 0.89134 0.09449 0.0
O46 O 0.52953 0.85297 0.14522 0.0
O47 O 0.5453 0.83909 0.06636 0.0
C48 C 0.53246 0.83363 0.1107 0.0
C49 C 0.60662 0.89429 0.9433 0.0
C50 C 0.61273 0.88272 0.14006 0.0
C51 C 0.54392 0.93381 0.06492 0.0
O52 O 0.56832 0.93366 0.04711 0.0
O53 O 0.53293 0.91206 0.08267 0.0
O54 O 0.6175 0.91342 0.97164 0.0
O55 O 0.58914 0.87849 0.96675 0.0
O56 O 0.15009 0.45019 0.95598 0.0
Cd57 Cd 0.15134 0.48024 1.01309 0.0
Cd58 Cd 0.12635 0.4338 0.06648 0.0
O59 O 0.13764 0.41246 0.99747 0.0
O60 O 0.16992 0.50795 0.9667 0.0
O61 O 0.18964 0.48995 0.03846 0.0
C62 C 0.19169 0.50462 0.99531 0.0
C63 C 0.13436 0.41965 0.15588 0.0
C64 C 0.14586 0.42478 0.95525 0.0
C65 C 0.09246 0.48494 0.04791 0.0
O66 O 0.09331 0.45958 0.05786 0.0
O67 O 0.11414 0.49786 0.03497 0.0
O68 O 0.116 0.40811 0.12616 0.0
O69 O 0.14943 0.43813 0.13359 0.0
O70 O 0.58857 0.64404 0.20514 0.0
Cd71 Cd 0.55432 0.64488 0.25339 0.0
Cd72 Cd 0.59591 0.61729 0.31867 0.0
O73 O 0.62171 0.62888 0.25786 0.0
O74 O 0.53021 0.66758 0.20584 0.0
O75 O 0.54495 0.68146 0.28552 0.0
C76 C 0.53252 0.68688 0.24062 0.0
C77 C 0.6129 0.6182 0.40689 0.0
C78 C 0.61368 0.63864 0.21314 0.0
C79 C 0.54441 0.58647 0.28473 0.0
O80 O 0.56879 0.58625 0.30282 0.0
O81 O 0.53357 0.60845 0.26755 0.0
O82 O 0.62108 0.60042 0.3724 0.0
O83 O 0.59527 0.63608 0.3909 0.0
O84 O 0.38096 0.08068 0.42318 0.0
Cd85 Cd 0.38227 0.04626 0.46999 0.0
Cd86 Cd 0.40057 0.08993 0.5391 0.0
O87 O 0.3871 0.11529 0.47845 0.0
O88 O 0.36512 0.02101 0.41622 0.0
O89 O 0.34491 0.03215 0.49263 0.0
C90 C 0.34342 0.02075 0.44569 0.0
C91 C 0.39347 0.10012 0.63038 0.0
C92 C 0.38151 0.10609 0.43182 0.0
C93 C 0.44095 0.04549 0.50608 0.0
O94 O 0.43642 0.0693 0.52386 0.0
O95 O 0.42133 0.0309 0.48808 0.0
O96 O 0.41036 0.11388 0.60124 0.0
O97 O 0.3795 0.0812 0.60691 0.0
O98 O 0.94466 0.87922 0.69459 0.0
Cd99 Cd 0.97914 0.87731 0.74221 0.0
Cd100 Cd 0.9386 0.90189 0.81105 0.0
O101 O 0.91188 0.89289 0.74947 0.0
O102 O 1.00291 0.85531 0.69289 0.0
O103 O 0.98875 0.84028 0.77216 0.0
C104 C 1.00088 0.83553 0.72676 0.0
C105 C 0.92541 0.89463 0.90068 0.0
C106 C 0.91964 0.88453 0.70348 0.0
C107 C 0.98884 0.93489 0.77896 0.0
O108 O 0.96481 0.93411 0.79862 0.0
O109 O 0.99966 0.91365 0.75853 0.0
O110 O 0.91508 0.91404 0.87221 0.0
O111 O 0.94286 0.87867 0.87762 0.0
O112 O 0.64833 0.58563 0.92829 0.0
Cd113 Cd 0.64591 0.55273 0.87751 0.0
Cd114 Cd 0.62536 0.5972 0.81504 0.0
O115 O 0.64052 0.62103 0.87583 0.0
O116 O 0.66645 0.52603 0.92316 0.0
O117 O 0.68161 0.54065 0.84424 0.0
C118 C 0.68601 0.52727 0.8884 0.0
C119 C 0.62827 0.61242 0.72593 0.0
C120 C 0.64742 0.61116 0.92118 0.0
C121 C 0.58672 0.55127 0.84725 0.0
O122 O 0.59025 0.57561 0.83151 0.0
O123 O 0.60704 0.53679 0.86219 0.0
O124 O 0.61237 0.62395 0.76043 0.0
O125 O 0.6435 0.59263 0.74261 0.0
O126 O 0.44147 0.14226 0.14878 0.0
Cd127 Cd 0.4767 0.14382 0.10349 0.0
Cd128 Cd 0.43503 0.1184 0.03356 0.0
O129 O 0.40836 0.12863 0.09443 0.0
O130 O 0.50045 0.16148 0.15932 0.0
O131 O 0.48919 0.18181 0.08308 0.0
C132 C 0.50033 0.18322 0.13039 0.0
C133 C 0.42282 0.12488 0.94298 0.0
C134 C 0.41635 0.13729 0.1401 0.0
C135 C 0.48542 0.08581 0.06663 0.0
O136 O 0.4611 0.08623 0.04816 0.0
O137 O 0.49648 0.10731 0.08543 0.0
O138 O 0.4119 0.10594 0.97178 0.0
O139 O 0.44018 0.14088 0.96628 0.0
O140 O 0.88291 0.94092 0.41691 0.0
Cd141 Cd 0.8832 0.97217 0.36181 0.0
Cd142 Cd 0.90106 0.92882 0.30208 0.0
O143 O 0.8874 0.90496 0.36465 0.0
O144 O 0.85941 0.99907 0.4003 0.0
O145 O 0.84726 0.97902 0.32398 0.0
C146 C 0.8407 0.99404 0.36483 0.0
C147 C 0.89321 0.91788 0.21168 0.0
C148 C 0.88286 0.91531 0.41074 0.0
C149 C 0.94158 0.97357 0.3286 0.0
O150 O 0.93734 0.949 0.31528 0.0
O151 O 0.92163 0.98869 0.34299 0.0
O152 O 0.90986 0.90392 0.24114 0.0
O153 O 0.87974 0.93734 0.23456 0.0
O154 O 0.0718 0.37807 0.66612 0.0
Cd155 Cd 0.04474 0.37644 0.603 0.0
Cd156 Cd 0.09134 0.40039 0.55715 0.0
O157 O 0.11121 0.38827 0.62781 0.0
O158 O 0.0162 0.35374 0.63932 0.0
O159 O 0.04017 0.33937 0.56929 0.0
C160 C 0.02326 0.33406 0.60803 0.0
C161 C 0.10587 0.39162 0.4685 0.0
C162 C 0.09752 0.38114 0.66923 0.0
C163 C 0.04006 0.43454 0.56862 0.0
O164 O 0.06596 0.4338 0.56332 0.0
O165 O 0.02668 0.41286 0.57876 0.0
O166 O 0.11805 0.40945 0.49828 0.0
O167 O 0.08662 0.37736 0.49053 0.0
O168 O 0.64801 0.93857 0.42556 0.0
Cd169 Cd 0.64666 0.97064 0.47844 0.0
Cd170 Cd 0.62825 0.92775 0.54001 0.0
O171 O 0.64229 0.90317 0.47898 0.0
O172 O 0.66999 0.99728 0.43811 0.0
O173 O 0.68229 0.9791 0.51623 0.0
C174 C 0.68867 0.99342 0.47423 0.0
C175 C 0.636 0.91769 0.63094 0.0
C176 C 0.6477 0.91304 0.43281 0.0
C177 C 0.58777 0.972 0.50899 0.0
O178 O 0.59203 0.94778 0.52478 0.0
O179 O 0.60776 0.98692 0.49396 0.0
O180 O 0.61931 0.90352 0.60204 0.0
O181 O 0.64942 0.93697 0.60733 0.0
O182 O 0.07865 0.14737 0.69096 0.0
Cd183 Cd 0.04919 0.14708 0.74969 0.0
Cd184 Cd 0.09579 0.12162 0.7989 0.0
O185 O 0.11703 0.1347 0.73078 0.0
O186 O 0.02112 0.16825 0.70826 0.0
O187 O 0.04082 0.18381 0.78236 0.0
C188 C 0.02544 0.18822 0.7407 0.0
C189 C 0.10921 0.1295 0.88877 0.0
C190 C 0.10432 0.14364 0.68945 0.0
C191 C 0.04454 0.08802 0.77996 0.0
O192 O 0.07024 0.08856 0.78848 0.0
O193 O 0.03143 0.10985 0.76947 0.0
O194 O 0.12146 0.11163 0.85926 0.0
O195 O 0.09035 0.14407 0.8661 0.0
O196 O 0.87991 0.56696 0.94304 0.0
Cd197 Cd 0.87852 0.54142 1.00836 0.0
Cd198 Cd 0.90202 0.58736 0.05128 0.0
O199 O 0.88947 0.60648 0.98035 0.0
O200 O 0.85398 0.51296 0.97724 0.0
O201 O 0.84194 0.53919 0.04569 0.0
C202 C 0.83515 0.52152 1.00945 0.0
C203 C 0.89259 0.60174 0.13955 0.0
C204 C 0.8826 0.59252 0.93923 0.0
C205 C 0.93705 0.53703 0.0414 0.0
O206 O 0.93612 0.56277 0.04552 0.0
O207 O 0.91523 0.52352 0.03246 0.0
O208 O 0.91041 0.61416 0.10997 0.0
O209 O 0.87869 0.5823 0.11748 0.0
O210 O 0.44171 0.37762 0.20212 0.0
Cd211 Cd 0.47689 0.37646 0.24783 0.0
Cd212 Cd 0.4352 0.40213 0.31631 0.0
O213 O 0.40847 0.39154 0.25566 0.0
O214 O 0.50077 0.35871 0.19249 0.0
O215 O 0.48951 0.33857 0.26883 0.0
C216 C 0.50067 0.33705 0.22163 0.0
C217 C 0.42355 0.39525 0.40687 0.0
C218 C 0.41655 0.38256 0.21034 0.0
C219 C 0.48536 0.43474 0.28339 0.0
O220 O 0.461 0.43443 0.30142 0.0
O221 O 0.4965 0.41311 0.26538 0.0
O222 O 0.41228 0.41418 0.37848 0.0
O223 O 0.44098 0.3795 0.38315 0.0
H224 H 0.29547 1.00866 0.49813 0.0
H225 H 0.33099 0.0153 0.33912 0.0
H226 H 0.28571 0.0124 0.29813 0.0
H227 H 0.23542 0.01438 0.30799 0.0
H228 H 0.20001 1.00501 0.46658 0.0
H229 H 0.2455 1.00208 0.50658 0.0
C230 C 0.29334 1.0088 0.45449 0.0
C231 C 0.31666 0.01252 0.42196 0.0
C232 C 0.2671 1.00688 0.43085 0.0
C233 C 0.31349 0.01246 0.36535 0.0
C234 C 0.28749 0.01099 0.34172 0.0
C235 C 0.23765 0.01099 0.35109 0.0
C236 C 0.21422 1.01026 0.3841 0.0
C237 C 0.26405 1.00914 0.37412 0.0
C238 C 0.21758 1.00567 0.43995 0.0
C239 C 0.24369 1.0042 0.46311 0.0
H240 H 1.00592 0.81597 0.62485 0.0
H241 H 1.01159 0.79193 0.79223 0.0
H242 H 0.01658 0.74438 0.76504 0.0
H243 H 1.01366 0.7094 0.69456 0.0
H244 H 1.00258 0.73312 0.52805 0.0
H245 H 1.00576 0.78105 0.55382 0.0
C246 C 1.00888 0.8004 0.65537 0.0
C247 C 1.0085 0.80751 0.71057 0.0
C248 C 1.01053 0.773 0.63948 0.0
C249 C 1.01186 0.78701 0.74957 0.0
C250 C 0.01461 0.75982 0.73399 0.0
C251 C 1.01261 0.72503 0.66367 0.0
C252 C 1.00804 0.71768 0.60932 0.0
C253 C 1.01318 0.75251 0.67917 0.0
C254 C 1.00619 0.73822 0.57004 0.0
C255 C 1.00787 0.76563 0.58485 0.0
H256 H 0.2985 0.51269 0.85613 0.0
H257 H 0.33579 0.50513 1.01367 0.0
H258 H 0.29113 0.50924 0.05651 0.0
H259 H 0.24076 0.50821 0.04862 0.0
H260 H 0.20362 0.51824 0.89148 0.0
H261 H 0.24867 0.52041 0.84966 0.0
C262 C 0.29691 0.51263 0.89986 0.0
C263 C 0.32047 0.50822 0.93144 0.0
C264 C 0.27104 0.51516 0.92454 0.0
C265 C 0.31805 0.50844 0.98816 0.0
C266 C 0.29242 0.51059 1.01286 0.0
C267 C 0.24254 0.51156 1.00543 0.0
C268 C 0.21878 0.51266 0.97332 0.0
C269 C 0.26865 0.51295 0.98139 0.0
C270 C 0.2215 0.51726 0.91737 0.0
C271 C 0.24733 0.51831 0.89319 0.0
H272 H 0.52326 0.81346 0.21116 0.0
H273 H 0.52639 0.78995 0.04334 0.0
H274 H 0.52241 0.74213 0.06931 0.0
H275 H 0.5239 0.70701 0.13989 0.0
H276 H 0.52557 0.73051 0.30781 0.0
H277 H 0.52145 0.77832 0.2817 0.0
C278 C 0.52244 0.79793 0.18014 0.0
C279 C 0.52509 0.8053 0.12529 0.0
C280 C 0.52128 0.77043 0.19553 0.0
C281 C 0.52438 0.78485 0.08576 0.0
C282 C 0.52222 0.75749 0.10065 0.0
C283 C 0.52273 0.72252 0.17089 0.0
C284 C 0.52501 0.71516 0.22582 0.0
C285 C 0.5215 0.75001 0.15546 0.0
C286 C 0.52385 0.7356 0.26533 0.0
C287 C 0.52161 0.76295 0.25036 0.0
H288 H 0.707 0.52151 0.98903 0.0
H289 H 0.72796 0.51338 0.82054 0.0
H290 H 0.77602 0.5061 0.84503 0.0
H291 H 0.81261 0.50821 0.91318 0.0
H292 H 0.79217 0.52243 0.08029 0.0
H293 H 0.74334 0.52078 0.0578 0.0
C294 C 0.72197 0.51745 0.95772 0.0
C295 C 0.7139 0.51782 0.90298 0.0
C296 C 0.74971 0.51465 0.97199 0.0
C297 C 0.73364 0.51311 0.86288 0.0
C298 C 0.76113 0.50907 0.87691 0.0
C299 C 0.79746 0.51023 0.94494 0.0
C300 C 0.80599 0.51524 0.99848 0.0
C301 C 0.76951 0.51066 0.93119 0.0
C302 C 0.78612 0.51843 0.03891 0.0
C303 C 0.75822 0.51763 0.02596 0.0
H304 H 0.50855 0.28835 0.273 0.0
H305 H 0.51011 0.32608 0.1155 0.0
H306 H 0.51304 0.28167 0.07263 0.0
H307 H 0.50882 0.23185 0.07929 0.0
H308 H 0.50919 0.1941 0.2368 0.0
H309 H 0.51228 0.23849 0.27977 0.0
C310 C 0.51016 0.28687 0.22939 0.0
C311 C 0.50872 0.31057 0.19766 0.0
C312 C 0.51191 0.26114 0.20472 0.0
C313 C 0.51108 0.30825 0.14111 0.0
C314 C 0.51259 0.28278 0.11638 0.0
C315 C 0.51019 0.23332 0.12295 0.0
C316 C 0.50838 0.20964 0.15462 0.0
C317 C 0.51206 0.25903 0.14767 0.0
C318 C 0.51045 0.21193 0.21123 0.0
C319 C 0.51205 0.23739 0.23601 0.0
H320 H 0.817 1.00347 0.46212 0.0
H321 H 0.79898 0.99952 0.2916 0.0
H322 H 0.74998 1.00337 0.31087 0.0
H323 H 0.71223 1.00205 0.37651 0.0
H324 H 0.73027 1.00057 0.5472 0.0
H325 H 0.7792 1.005 0.52772 0.0
C326 C 0.8024 1.00414 0.42906 0.0
C327 C 0.81168 1.00138 0.37538 0.0
C328 C 0.77419 1.0051 0.44066 0.0
C329 C 0.79242 1.0017 0.33317 0.0
C330 C 0.76438 1.00378 0.34424 0.0
C331 C 0.7268 1.00337 0.40953 0.0
C332 C 0.71755 1.00114 0.46334 0.0
C333 C 0.75499 1.00466 0.39789 0.0
C334 C 0.7368 1.00233 0.50552 0.0
C335 C 0.76481 1.00474 0.49434 0.0
H336 H 1.01269 0.31429 0.70781 0.0
H337 H 0.01991 0.28993 0.54106 0.0
H338 H 0.01663 0.24211 0.5679 0.0
H339 H 0.01758 0.20744 0.63946 0.0
H340 H 0.01667 0.23198 0.80672 0.0
H341 H 1.01127 0.27953 0.7792 0.0
C342 C 1.01283 0.29854 0.67718 0.0
C343 C 0.01628 0.30565 0.62238 0.0
C344 C 1.01235 0.27111 0.69324 0.0
C345 C 0.01711 0.28498 0.58337 0.0
C346 C 0.01537 0.25765 0.59879 0.0
C347 C 0.0155 0.22313 0.66994 0.0
C348 C 0.01727 0.21618 0.72515 0.0
C349 C 1.01381 0.25048 0.65372 0.0
C350 C 0.01521 0.2368 0.76407 0.0
C351 C 1.01226 0.26398 0.74828 0.0
H352 H 0.06943 0.99499 0.32704 0.0
H353 H 0.04167 0.07783 0.3098 0.0
H354 H 0.99422 0.06287 0.31358 0.0
H355 H 0.96002 0.02618 0.32161 0.0
H356 H 0.98792 0.94325 0.33511 0.0
H357 H 0.03537 0.95832 0.33325 0.0
C358 C 0.05302 1.00977 0.32404 0.0
C359 C 0.05933 0.03749 0.31814 0.0
C360 C 0.02554 1.00103 0.32574 0.0
C361 C 0.03763 0.0563 0.31416 0.0
C362 C 1.01035 0.04781 0.31647 0.0
C363 C 0.9765 0.01146 0.32436 0.0
C364 C 0.97029 0.98364 0.3285 0.0
C365 C 1.00399 0.02021 0.32232 0.0
C366 C 0.99198 0.96481 0.33156 0.0
C367 C 0.01923 0.97339 0.33057 0.0
H368 H 0.96322 0.53779 0.5551 0.0
H369 H 0.04133 0.5787 0.56183 0.0
H370 H 0.06479 0.5348 0.56379 0.0
H371 H 0.06307 0.48492 0.56565 0.0
H372 H 0.98484 0.44412 0.56227 0.0
H373 H 0.9615 0.48798 0.5569 0.0
C374 C 0.9854 0.53719 0.55666 0.0
C375 C 1.00047 0.56163 0.55814 0.0
C376 C 0.99873 0.51189 0.55855 0.0
C377 C 0.02919 0.5603 0.56065 0.0
C378 C 0.04262 0.53518 0.56179 0.0
C379 C 0.0409 0.48554 0.56348 0.0
C380 C 0.02576 0.46113 0.56427 0.0
C381 C 0.02759 0.51085 0.56106 0.0
C382 C 0.99704 0.46248 0.56183 0.0
C383 C 0.98367 0.48759 0.55872 0.0
H384 H 0.45973 0.52601 0.85178 0.0
H385 H 0.48999 0.44385 0.84012 0.0
H386 H 0.53702 0.46033 0.84203 0.0
H387 H 0.56996 0.4982 0.84575 0.0
H388 H 0.53956 0.58045 0.85249 0.0
H389 H 0.49259 0.56386 0.85388 0.0
C390 C 0.47662 0.51173 0.8498 0.0
C391 C 0.47124 0.48376 0.84581 0.0
C392 C 0.50377 0.52136 0.85 0.0
C393 C 0.49344 0.46554 0.84288 0.0
C394 C 0.52043 0.47492 0.84412 0.0
C395 C 0.55305 0.51245 0.84776 0.0
C396 C 0.55835 0.5405 0.84905 0.0
C397 C 0.52589 0.5028 0.8475 0.0
C398 C 0.53614 0.55872 0.85116 0.0
C399 C 0.50919 0.54927 0.85206 0.0
H400 H 0.56534 0.98468 0.06569 0.0
H401 H 0.48838 0.94166 0.06699 0.0
H402 H 0.46362 0.98493 0.06666 0.0
H403 H 0.46391 0.03493 0.06537 0.0
H404 H 0.54089 0.07787 0.06951 0.0
H405 H 0.56562 0.03461 0.06843 0.0
C406 C 0.54313 0.98475 0.06574 0.0
C407 C 0.52872 0.95993 0.06586 0.0
C408 C 0.52907 1.00967 0.06656 0.0
C409 C 0.49996 0.96042 0.06685 0.0
C410 C 0.48581 0.98516 0.06656 0.0
C411 C 0.48611 0.03485 0.06587 0.0
C412 C 0.50054 0.05965 0.06702 0.0
C413 C 0.50016 1.0099 0.06626 0.0
C414 C 0.52929 0.05913 0.06858 0.0
C415 C 0.54343 0.03439 0.06786 0.0
H416 H 0.04192 0.46185 0.05396 0.0
H417 H 0.08229 0.53972 0.04382 0.0
H418 H 0.03782 0.56254 0.04264 0.0
H419 H 0.98759 0.56034 0.04235 0.0
H420 H 0.94725 0.48238 0.04912 0.0
H421 H 0.99171 0.45966 0.0538 0.0
C422 C 0.04108 0.48385 0.05184 0.0
C423 C 0.06553 0.49903 0.04915 0.0
C424 C 0.01543 0.49681 0.0504 0.0
C425 C 0.06389 0.52749 0.04592 0.0
C426 C 0.03844 0.54057 0.04523 0.0
C427 C 0.98844 0.53837 0.04512 0.0
C428 C 0.964 0.52311 0.04549 0.0
C429 C 1.01409 0.52542 0.04713 0.0
C430 C 0.96564 0.49465 0.04869 0.0
C431 C 0.99109 0.48164 0.0514 0.0
H432 H 0.46394 0.48574 0.28364 0.0
H433 H 0.54082 0.44249 0.28093 0.0
H434 H 0.56566 0.48564 0.28162 0.0
H435 H 0.56554 0.53551 0.28387 0.0
H436 H 0.48879 0.57895 0.28149 0.0
H437 H 0.46384 0.53578 0.28172 0.0
C438 C 0.48615 0.48573 0.28335 0.0
C439 C 0.50052 0.46087 0.28273 0.0
C440 C 0.50028 0.51063 0.28276 0.0
C441 C 0.52927 0.46128 0.28145 0.0
C442 C 0.54347 0.48595 0.28194 0.0
C443 C 0.54334 0.53558 0.28351 0.0
C444 C 0.52904 0.56047 0.28316 0.0
C445 C 0.52919 0.51073 0.28276 0.0
C446 C 0.50028 0.56013 0.2818 0.0
C447 C 0.48603 0.53544 0.28206 0.0
H448 H 0.45974 0.99299 0.50211 0.0
H449 H 0.48716 0.07625 0.5079 0.0
H450 H 0.53472 0.06135 0.50741 0.0
H451 H 0.56904 0.02459 0.50682 0.0
H452 H 0.54155 0.9413 0.50596 0.0
H453 H 0.49404 0.95623 0.50302 0.0
C454 C 0.47613 1.00784 0.50307 0.0
C455 C 0.46976 0.03567 0.50506 0.0
C456 C 0.50365 0.99913 0.50379 0.0
C457 C 0.49135 0.05464 0.50671 0.0
C458 C 0.51866 0.04617 0.5063 0.0
C459 C 0.55265 1.00975 0.50581 0.0
C460 C 0.559 0.98189 0.50664 0.0
C461 C 0.52513 0.01846 0.50509 0.0
C462 C 0.53739 0.96292 0.50571 0.0
C463 C 0.5101 0.97141 0.50389 0.0
H464 H 0.06691 0.03749 0.77173 0.0
H465 H 0.98955 0.07882 0.79073 0.0
H466 H 0.96583 0.03511 0.79335 0.0
H467 H 0.96698 0.98531 0.7899 0.0
H468 H 0.04392 0.94387 0.76631 0.0
H469 H 0.0679 0.98755 0.76581 0.0
C470 C 0.04486 0.03697 0.77665 0.0
C471 C 0.03006 0.06148 0.78137 0.0
C472 C 0.03129 0.01176 0.77725 0.0
C473 C 1.00146 0.06035 0.78699 0.0
C474 C 0.98788 0.03534 0.78857 0.0
C475 C 0.98903 0.98576 0.78489 0.0
C476 C 1.00365 0.96126 0.77855 0.0
C477 C 1.00258 0.01094 0.78373 0.0
C478 C 0.03216 0.96235 0.7713 0.0
C479 C 0.04588 0.98734 0.77108 0.0
H480 H 0.15017 0.11815 0.6518 0.0
H481 H 0.08842 0.17681 0.60758 0.0
H482 H 0.10156 0.17335 0.51292 0.0
H483 H 0.12348 0.14628 0.44151 0.0
H484 H 0.18342 0.08586 0.48554 0.0
H485 H 0.17875 0.09785 0.58067 0.0
C486 C 0.14027 0.13084 0.62167 0.0
C487 C 0.11797 0.1472 0.63652 0.0
C488 C 0.14737 0.12815 0.5668 0.0
C489 C 0.10534 0.16361 0.597 0.0
C490 C 0.11278 0.16161 0.54272 0.0
C491 C 0.13629 0.13656 0.47175 0.0
C492 C 0.15341 0.11497 0.45674 0.0
C493 C 0.13272 0.14284 0.52679 0.0
C494 C 0.16981 0.10238 0.49634 0.0
C495 C 0.16703 0.10908 0.55084 0.0
H496 H 0.88314 0.61028 0.68957 0.0
H497 H 0.93886 0.67406 0.73595 0.0
H498 H 0.92647 0.66806 0.83066 0.0
H499 H 0.90665 0.63879 0.90116 0.0
H500 H 0.85308 0.57319 0.85463 0.0
H501 H 0.85734 0.58602 0.75987 0.0
C502 C 0.89182 0.62345 0.72024 0.0
C503 C 0.91213 0.64228 0.70594 0.0
C504 C 0.88536 0.61921 0.77502 0.0
C505 C 0.92338 0.65916 0.74614 0.0
C506 C 0.91642 0.65566 0.80039 0.0
C507 C 0.8953 0.62784 0.8704 0.0
C508 C 0.88003 0.60479 0.8848 0.0
C509 C 0.89849 0.63482 0.81558 0.0
C510 C 0.86539 0.59077 0.84447 0.0
C511 C 0.86784 0.59805 0.79017 0.0
H512 H 0.42207 0.35187 0.12051 0.0
H513 H 0.36949 0.41159 0.19464 0.0
H514 H 0.3485 0.42129 0.10704 0.0
H515 H 0.35393 0.42096 1.0085 0.0
H516 H 0.40895 0.36361 0.93409 0.0
H517 H 0.41956 0.34416 0.02263 0.0
C518 C 0.40543 0.36643 0.11769 0.0
C519 C 0.39788 0.38162 0.16347 0.0
C520 C 0.39417 0.37253 0.067 0.0
C521 C 0.37587 0.39989 0.1598 0.0
C522 C 0.36403 0.4056 0.10962 0.0
C523 C 0.36753 0.40358 1.01158 0.0
C524 C 0.38127 0.39419 0.96529 0.0
C525 C 0.37433 0.39331 0.06267 0.0
C526 C 0.39834 0.37133 0.9693 0.0
C527 C 0.40465 0.36043 0.02 0.0
H528 H 0.67531 0.92302 0.34062 0.0
H529 H 0.6224 0.8643 0.41688 0.0
H530 H 0.61126 0.84487 0.32872 0.0
H531 H 0.60788 0.85248 0.23082 0.0
H532 H 0.65899 0.9129 0.15483 0.0
H533 H 0.68008 0.92335 0.24191 0.0
C534 C 0.66206 0.90538 0.33796 0.0
C535 C 0.64907 0.89553 0.3847 0.0
C536 C 0.65508 0.89496 0.28715 0.0
C537 C 0.63243 0.87235 0.38127 0.0
C538 C 0.62583 0.86144 0.33082 0.0
C539 C 0.62422 0.86737 0.23315 0.0
C540 C 0.63133 0.8825 0.18701 0.0
C541 C 0.63565 0.87378 0.28349 0.0
C542 C 0.65295 0.90123 0.19001 0.0
C543 C 0.66486 0.90736 0.23987 0.0
H544 H 0.14402 0.40558 0.70693 0.0
H545 H 0.07892 0.35128 0.75373 0.0
H546 H 0.09189 0.35572 0.8484 0.0
H547 H 0.11583 0.38189 0.91864 0.0
H548 H 0.17938 0.43795 0.87201 0.0
H549 H 0.17345 0.42551 0.77736 0.0
C550 C 0.13325 0.3941 0.73771 0.0
C551 C 0.11023 0.37861 0.72341 0.0
C552 C 0.14033 0.39733 0.79254 0.0
C553 C 0.09646 0.36379 0.7638 0.0
C554 C 0.10381 0.36633 0.81808 0.0
C555 C 0.12901 0.39064 0.88795 0.0
C556 C 0.14768 0.41108 0.90218 0.0
C557 C 0.12484 0.38409 0.83317 0.0
C558 C 0.16457 0.42237 0.86191 0.0
C559 C 0.1611 0.41539 0.80767 0.0
H560 H 0.60882 0.67029 0.12429 0.0
H561 H 0.66047 0.60938 0.19776 0.0
H562 H 0.68171 0.60018 0.11048 0.0
H563 H 0.67639 0.60115 1.01195 0.0
H564 H 0.62261 0.66006 0.93814 0.0
H565 H 0.61206 0.679 0.02685 0.0
C566 C 0.62532 0.65559 0.1214 0.0
C567 C 0.63246 0.63986 0.16673 0.0
C568 C 0.63679 0.64984 0.07089 0.0
C569 C 0.65435 0.62144 0.16313 0.0
C570 C 0.66635 0.61602 0.11315 0.0
C571 C 0.6631 0.61875 0.01525 0.0
C572 C 0.64957 0.62867 0.96912 0.0
C573 C 0.65637 0.6288 0.0664 0.0
C574 C 0.63297 0.65187 0.97332 0.0
C575 C 0.62671 0.66251 0.02409 0.0
H576 H 0.35311 0.09747 0.33992 0.0
H577 H 0.40746 0.15464 0.41694 0.0
H578 H 0.41859 0.17445 0.32904 0.0
H579 H 0.42156 0.1673 0.23101 0.0
H580 H 0.36941 0.10798 0.1543 0.0
H581 H 0.34817 0.09765 0.24123 0.0
C582 C 0.36667 0.11489 0.33753 0.0
C583 C 0.38006 0.12416 0.3844 0.0
C584 C 0.37372 0.12542 0.28682 0.0
C585 C 0.39711 0.14704 0.38127 0.0
C586 C 0.40371 0.15815 0.33094 0.0
C587 C 0.40496 0.15269 0.23312 0.0
C588 C 0.3976 0.1378 0.18678 0.0
C589 C 0.39352 0.14626 0.28342 0.0
C590 C 0.37565 0.11945 0.18957 0.0
C591 C 0.36367 0.11338 0.23937 0.0
H592 H 0.92319 0.85425 0.61274 0.0
H593 H 0.87409 0.91591 0.68972 0.0
H594 H 0.85279 0.927 0.60307 0.0
H595 H 0.8568 0.92648 0.50418 0.0
H596 H 0.90753 0.86625 0.42693 0.0
H597 H 0.919 0.84674 0.51498 0.0
C598 C 0.90722 0.86956 0.61073 0.0
C599 C 0.90074 0.88481 0.657 0.0
C600 C 0.89567 0.8763 0.56064 0.0
C601 C 0.87961 0.90412 0.65444 0.0
C602 C 0.86761 0.91062 0.60481 0.0
C603 C 0.86967 0.90853 0.50663 0.0
C604 C 0.88194 0.89822 0.45956 0.0
C605 C 0.87677 0.89799 0.55735 0.0
C606 C 0.89807 0.87466 0.46278 0.0
C607 C 0.90484 0.86368 0.51314 0.0
H608 H 0.14519 0.09933 0.94858 0.0
H609 H 0.08573 0.16383 0.96228 0.0
H610 H 0.09086 0.16338 0.06051 0.0
H611 H 0.10933 0.14217 0.14303 0.0
H612 H 0.168 0.07695 0.12947 0.0
H613 H 0.16624 0.08041 0.03099 0.0
C614 C 0.1336 0.11355 0.97293 0.0
C615 C 0.11497 0.1315 0.94781 0.0
C616 C 0.13639 0.11296 0.02965 0.0
C617 C 0.10017 0.14976 0.98027 0.0
C618 C 0.10303 0.14946 0.0366 0.0
C619 C 0.12204 0.12894 0.11863 0.0
C620 C 0.13868 0.10921 0.14391 0.0
C621 C 0.12065 0.13078 0.06183 0.0
C622 C 0.15497 0.09228 0.11136 0.0
C623 C 0.15391 0.09419 0.0549 0.0
H624 H 0.88284 0.60049 0.39388 0.0
H625 H 0.94421 0.66301 0.3776 0.0
H626 H 0.93921 0.66169 0.27938 0.0
H627 H 0.92066 0.63974 0.19781 0.0
H628 H 0.85992 0.57661 0.21414 0.0
H629 H 0.86124 0.58146 0.31234 0.0
C630 C 0.89486 0.61413 0.36896 0.0
C631 C 0.91405 0.63169 0.39333 0.0
C632 C 0.89212 0.61304 0.3123 0.0
C633 C 0.92934 0.64924 0.36017 0.0
C634 C 0.92657 0.64843 0.30385 0.0
C635 C 0.90738 0.62731 0.22273 0.0
C636 C 0.89034 0.60768 0.19838 0.0
C637 C 0.9085 0.62995 0.2794 0.0
C638 C 0.87327 0.59183 0.23155 0.0
C639 C 0.8741 0.59452 0.28786 0.0
H640 H 0.423 0.38119 0.66006 0.0
H641 H 0.36486 0.44696 0.64674 0.0
H642 H 0.36677 0.44398 0.54823 0.0
H643 H 0.38792 0.42538 0.46624 0.0
H644 H 0.44687 0.36033 0.4797 0.0
H645 H 0.44148 0.36025 0.57786 0.0
C646 C 0.41047 0.39468 0.63568 0.0
C647 C 0.39396 0.41443 0.66084 0.0
C648 C 0.41196 0.39311 0.57907 0.0
C649 C 0.37779 0.43162 0.62852 0.0
C650 C 0.37895 0.43 0.57214 0.0
C651 C 0.3994 0.41096 0.49054 0.0
C652 C 0.41797 0.39304 0.46559 0.0
C653 C 0.39643 0.41124 0.54702 0.0
C654 C 0.43252 0.37441 0.49777 0.0
C655 C 0.4295 0.3744 0.55396 0.0
H656 H 0.60905 0.87981 0.69051 0.0
H657 H 0.66625 0.94628 0.70462 0.0
H658 H 0.66391 0.94325 0.80309 0.0
H659 H 0.64243 0.92454 0.88467 0.0
H660 H 0.58427 0.85891 0.8704 0.0
H661 H 0.59037 0.85869 0.77239 0.0
C662 C 0.6213 0.89343 0.71505 0.0
C663 C 0.63763 0.91341 0.69015 0.0
C664 C 0.61952 0.89186 0.77162 0.0
C665 C 0.65345 0.93078 0.72266 0.0
C666 C 0.65204 0.92912 0.77901 0.0
C667 C 0.63129 0.90997 0.86024 0.0
C668 C 0.61271 0.89193 0.88485 0.0
C669 C 0.63464 0.91018 0.80387 0.0
C670 C 0.5986 0.87309 0.85254 0.0
C671 C 0.60203 0.873 0.79645 0.0
H672 H 0.14388 0.42004 0.41056 0.0
H673 H 0.0808 0.35927 0.39338 0.0
H674 H 0.08575 0.36088 0.2952 0.0
H675 H 0.10491 0.38257 0.21388 0.0
H676 H 0.16748 0.44385 0.23105 0.0
H677 H 0.16595 0.43878 0.32923 0.0
C678 C 0.13147 0.40683 0.38545 0.0
C679 C 0.11184 0.38968 0.40959 0.0
C680 C 0.13419 0.40809 0.32878 0.0
C681 C 0.09604 0.3727 0.37616 0.0
C682 C 0.09877 0.37369 0.31985 0.0
C683 C 0.11851 0.39456 0.23899 0.0
C684 C 0.13615 0.41372 0.21486 0.0
C685 C 0.11732 0.39176 0.29565 0.0
C686 C 0.15365 0.42899 0.24828 0.0
C687 C 0.15272 0.42618 0.30458 0.0
H688 H 0.65328 0.58772 0.6409 0.0
H689 H 0.60008 0.6547 0.68145 0.0
H690 H 0.59242 0.66396 0.5858 0.0
H691 H 0.59726 0.65033 0.49089 0.0
H692 H 0.64962 0.58267 0.45049 0.0
H693 H 0.66128 0.5766 0.54556 0.0
C694 C 0.64036 0.6046 0.62881 0.0
C695 C 0.62707 0.62029 0.66827 0.0
C696 C 0.63565 0.60958 0.57366 0.0
C697 C 0.61042 0.64214 0.65191 0.0
C698 C 0.60595 0.64744 0.59717 0.0
C699 C 0.61147 0.63447 0.50281 0.0
C700 C 0.62228 0.61682 0.46369 0.0
C701 C 0.61788 0.63085 0.55772 0.0
C702 C 0.6408 0.59645 0.47981 0.0
C703 C 0.64749 0.59291 0.53423 0.0
H704 H 0.42093 0.13787 0.68951 0.0
H705 H 0.36326 0.07188 0.70464 0.0
H706 H 0.36566 0.07526 0.80307 0.0
H707 H 0.3871 0.0943 0.88452 0.0
H708 H 0.44554 0.15963 0.86926 0.0
H709 H 0.43968 0.15926 0.77116 0.0
C710 C 0.40861 0.12442 0.71427 0.0
C711 C 0.39209 0.1045 0.68963 0.0
C712 C 0.41037 0.12623 0.77085 0.0
C713 C 0.37619 0.08735 0.72244 0.0
C714 C 0.37764 0.0892 0.77878 0.0
C715 C 0.39836 0.10868 0.85984 0.0
C716 C 0.41693 0.12682 0.88427 0.0
C717 C 0.39512 0.10816 0.80339 0.0
C718 C 0.4312 0.14539 0.8516 0.0
C719 C 0.42791 0.14514 0.79544 0.0
H720 H 0.92064 0.8799 0.15333 0.0
H721 H 0.86316 0.94607 0.1369 0.0
H722 H 0.86635 0.94302 0.03856 0.0
H723 H 0.88878 0.92454 0.95787 0.0
H724 H 0.94723 0.85923 0.97443 0.0
H725 H 0.94016 0.85887 0.07219 0.0
C726 C 0.90849 0.89343 0.1283 0.0
C727 C 0.89185 0.91336 0.15253 0.0
C728 C 0.91078 0.89187 0.07181 0.0
C729 C 0.87618 0.93061 0.11939 0.0
C730 C 0.87809 0.92895 0.06311 0.0
C731 C 0.89977 0.91001 0.98274 0.0
C732 C 0.91873 0.89212 0.95886 0.0
C733 C 0.89585 0.91013 0.03896 0.0
C734 C 0.93262 0.8733 0.99172 0.0
C735 C 0.92863 0.87313 0.04767 0.0
loop_
_geom_bond_atom_site_label_1
_geom_bond_atom_site_label_2
_geom_bond_distance
_geom_bond_site_symmetry_2
_ccdc_geom_bond_type
O0 Cd1 2.223 . S
O0 C8 1.315 . S
Cd1 O0 2.223 . S
Cd1 O4 2.297 . S
Cd1 O5 2.439 . S
Cd1 O11 2.240 . S
Cd2 O3 2.240 . S
Cd2 O10 2.223 . S
Cd2 O12 2.297 . S
Cd2 O13 2.439 . S
O3 Cd2 2.240 . S
O3 C8 1.279 . S
O4 Cd1 2.297 . S
O4 C6 1.247 . S
O5 Cd1 2.439 . S
O5 C6 1.208 . S
C6 O4 1.247 . S
C6 O5 1.208 . S
C7 O12 1.247 . S
C7 O13 1.208 . S
C8 O0 1.315 . S
C8 O3 1.279 . S
C9 O10 1.315 . S
C9 O11 1.279 . S
O10 Cd2 2.223 . S
O10 C9 1.315 . S
O11 Cd1 2.240 . S
O11 C9 1.279 . S
O12 Cd2 2.297 . S
O12 C7 1.247 . S
O13 Cd2 2.439 . S
O13 C7 1.208 . S
O14 Cd15 2.223 . S
O14 C22 1.315 . S
Cd15 O14 2.223 . S
Cd15 O18 2.297 . S
Cd15 O19 2.439 . S
Cd15 O25 2.240 . S
Cd16 O17 2.240 . S
Cd16 O24 2.223 . S
Cd16 O26 2.297 . S
Cd16 O27 2.439 . S
O17 Cd16 2.240 . S
O17 C22 1.279 . S
O18 Cd15 2.297 . S
O18 C20 1.247 . S
O19 Cd15 2.439 . S
O19 C20 1.208 . S
C20 O18 1.247 . S
C20 O19 1.208 . S
C21 O26 1.247 . S
C21 O27 1.208 . S
C22 O14 1.315 . S
C22 O17 1.279 . S
C23 O24 1.315 . S
C23 O25 1.279 . S
O24 Cd16 2.223 . S
O24 C23 1.315 . S
O25 Cd15 2.240 . S
O25 C23 1.279 . S
O26 Cd16 2.297 . S
O26 C21 1.247 . S
O27 Cd16 2.439 . S
O27 C21 1.208 . S
O28 Cd29 2.223 . S
O28 C36 1.315 . S
Cd29 O28 2.223 . S
Cd29 O32 2.297 . S
Cd29 O33 2.439 . S
Cd29 O39 2.240 . S
Cd30 O31 2.240 . S
Cd30 O38 2.223 . S
Cd30 O40 2.297 . S
Cd30 O41 2.439 . S
O31 Cd30 2.240 . S
O31 C36 1.279 . S
O32 Cd29 2.297 . S
O32 C34 1.247 . S
O33 Cd29 2.439 . S
O33 C34 1.208 . S
C34 O32 1.247 . S
C34 O33 1.208 . S
C35 O40 1.247 . S
C35 O41 1.208 . S
C36 O28 1.315 . S
C36 O31 1.279 . S
C37 O38 1.315 . S
C37 O39 1.279 . S
O38 Cd30 2.223 . S
O38 C37 1.315 . S
O39 Cd29 2.240 . S
O39 C37 1.279 . S
O40 Cd30 2.297 . S
O40 C35 1.247 . S
O41 Cd30 2.439 . S
O41 C35 1.208 . S
O42 Cd43 2.223 . S
O42 C50 1.315 . S
Cd43 O42 2.223 . S
Cd43 O46 2.297 . S
Cd43 O47 2.439 . S
Cd43 O53 2.240 . S
Cd44 O45 2.240 . S
Cd44 O52 2.223 . S
Cd44 O54 2.297 1_554 S
Cd44 O55 2.439 1_554 S
O45 Cd44 2.240 . S
O45 C50 1.279 . S
O46 Cd43 2.297 . S
O46 C48 1.247 . S
O47 Cd43 2.439 . S
O47 C48 1.208 . S
C48 O46 1.247 . S
C48 O47 1.208 . S
C49 O54 1.247 . S
C49 O55 1.208 . S
C50 O42 1.315 . S
C50 O45 1.279 . S
C51 O52 1.315 . S
C51 O53 1.279 . S
O52 Cd44 2.223 . S
O52 C51 1.315 . S
O53 Cd43 2.240 . S
O53 C51 1.279 . S
O54 Cd44 2.297 1_556 S
O54 C49 1.247 . S
O55 Cd44 2.439 1_556 S
O55 C49 1.208 . S
O56 Cd57 2.223 . S
O56 C64 1.315 . S
Cd57 O56 2.223 . S
Cd57 O60 2.297 . S
Cd57 O61 2.439 1_556 S
Cd57 O67 2.240 1_556 S
Cd58 O59 2.240 1_554 S
Cd58 O66 2.223 . S
Cd58 O68 2.297 . S
Cd58 O69 2.439 . S
O59 Cd58 2.240 1_556 S
O59 C64 1.279 . S
O60 Cd57 2.297 . S
O60 C62 1.247 . S
O61 Cd57 2.439 1_554 S
O61 C62 1.208 1_554 S
C62 O60 1.247 . S
C62 O61 1.208 1_556 S
C63 O68 1.247 . S
C63 O69 1.208 . S
C64 O56 1.315 . S
C64 O59 1.279 . S
C65 O66 1.315 . S
C65 O67 1.279 . S
O66 Cd58 2.223 . S
O66 C65 1.315 . S
O67 Cd57 2.240 1_554 S
O67 C65 1.279 . S
O68 Cd58 2.297 . S
O68 C63 1.247 . S
O69 Cd58 2.439 . S
O69 C63 1.208 . S
O70 Cd71 2.223 . S
O70 C78 1.315 . S
Cd71 O70 2.223 . S
Cd71 O74 2.297 . S
Cd71 O75 2.439 . S
Cd71 O81 2.240 . S
Cd72 O73 2.240 . S
Cd72 O80 2.223 . S
Cd72 O82 2.297 . S
Cd72 O83 2.439 . S
O73 Cd72 2.240 . S
O73 C78 1.279 . S
O74 Cd71 2.297 . S
O74 C76 1.247 . S
O75 Cd71 2.439 . S
O75 C76 1.208 . S
C76 O74 1.247 . S
C76 O75 1.208 . S
C77 O82 1.247 . S
C77 O83 1.208 . S
C78 O70 1.315 . S
C78 O73 1.279 . S
C79 O80 1.315 . S
C79 O81 1.279 . S
O80 Cd72 2.223 . S
O80 C79 1.315 . S
O81 Cd71 2.240 . S
O81 C79 1.279 . S
O82 Cd72 2.297 . S
O82 C77 1.247 . S
O83 Cd72 2.439 . S
O83 C77 1.208 . S
O84 Cd85 2.223 . S
O84 C92 1.315 . S
Cd85 O84 2.223 . S
Cd85 O88 2.297 . S
Cd85 O89 2.439 . S
Cd85 O95 2.240 . S
Cd86 O87 2.240 . S
Cd86 O94 2.223 . S
Cd86 O96 2.297 . S
Cd86 O97 2.439 . S
O87 Cd86 2.240 . S
O87 C92 1.279 . S
O88 Cd85 2.297 . S
O88 C90 1.247 . S
O89 Cd85 2.439 . S
O89 C90 1.208 . S
C90 O88 1.247 . S
C90 O89 1.208 . S
C91 O96 1.247 . S
C91 O97 1.208 . S
C92 O84 1.315 . S
C92 O87 1.279 . S
C93 O94 1.315 . S
C93 O95 1.279 . S
O94 Cd86 2.223 . S
O94 C93 1.315 . S
O95 Cd85 2.240 . S
O95 C93 1.279 . S
O96 Cd86 2.297 . S
O96 C91 1.247 . S
O97 Cd86 2.439 . S
O97 C91 1.208 . S
O98 Cd99 2.223 . S
O98 C106 1.315 . S
Cd99 O98 2.223 . S
Cd99 O102 2.297 . S
Cd99 O103 2.439 . S
Cd99 O109 2.240 . S
Cd100 O101 2.240 . S
Cd100 O108 2.223 . S
Cd100 O110 2.297 . S
Cd100 O111 2.439 . S
O101 Cd100 2.240 . S
O101 C106 1.279 . S
O102 Cd99 2.297 . S
O102 C104 1.247 . S
O103 Cd99 2.439 . S
O103 C104 1.208 . S
C104 O102 1.247 . S
C104 O103 1.208 . S
C105 O110 1.247 . S
C105 O111 1.208 . S
C106 O98 1.315 . S
C106 O101 1.279 . S
C107 O108 1.315 . S
C107 O109 1.279 . S
O108 Cd100 2.223 . S
O108 C107 1.315 . S
O109 Cd99 2.240 . S
O109 C107 1.279 . S
O110 Cd100 2.297 . S
O110 C105 1.247 . S
O111 Cd100 2.439 . S
O111 C105 1.208 . S
O112 Cd113 2.223 . S
O112 C120 1.315 . S
Cd113 O112 2.223 . S
Cd113 O116 2.297 . S
Cd113 O117 2.439 . S
Cd113 O123 2.240 . S
Cd114 O115 2.240 . S
Cd114 O122 2.223 . S
Cd114 O124 2.297 . S
Cd114 O125 2.439 . S
O115 Cd114 2.240 . S
O115 C120 1.279 . S
O116 Cd113 2.297 . S
O116 C118 1.247 . S
O117 Cd113 2.439 . S
O117 C118 1.208 . S
C118 O116 1.247 . S
C118 O117 1.208 . S
C119 O124 1.247 . S
C119 O125 1.208 . S
C120 O112 1.315 . S
C120 O115 1.279 . S
C121 O122 1.315 . S
C121 O123 1.279 . S
O122 Cd114 2.223 . S
O122 C121 1.315 . S
O123 Cd113 2.240 . S
O123 C121 1.279 . S
O124 Cd114 2.297 . S
O124 C119 1.247 . S
O125 Cd114 2.439 . S
O125 C119 1.208 . S
O126 Cd127 2.223 . S
O126 C134 1.315 . S
Cd127 O126 2.223 . S
Cd127 O130 2.297 . S
Cd127 O131 2.439 . S
Cd127 O137 2.240 . S
Cd128 O129 2.240 . S
Cd128 O136 2.223 . S
Cd128 O138 2.297 1_554 S
Cd128 O139 2.439 1_554 S
O129 Cd128 2.240 . S
O129 C134 1.279 . S
O130 Cd127 2.297 . S
O130 C132 1.247 . S
O131 Cd127 2.439 . S
O131 C132 1.208 . S
C132 O130 1.247 . S
C132 O131 1.208 . S
C133 O138 1.247 . S
C133 O139 1.208 . S
C134 O126 1.315 . S
C134 O129 1.279 . S
C135 O136 1.315 . S
C135 O137 1.279 . S
O136 Cd128 2.223 . S
O136 C135 1.315 . S
O137 Cd127 2.240 . S
O137 C135 1.279 . S
O138 Cd128 2.297 1_556 S
O138 C133 1.247 . S
O139 Cd128 2.439 1_556 S
O139 C133 1.208 . S
O140 Cd141 2.223 . S
O140 C148 1.315 . S
Cd141 O140 2.223 . S
Cd141 O144 2.297 . S
Cd141 O145 2.439 . S
Cd141 O151 2.240 . S
Cd142 O143 2.240 . S
Cd142 O150 2.223 . S
Cd142 O152 2.297 . S
Cd142 O153 2.439 . S
O143 Cd142 2.240 . S
O143 C148 1.279 . S
O144 Cd141 2.297 . S
O144 C146 1.247 . S
O145 Cd141 2.439 . S
O145 C146 1.208 . S
C146 O144 1.247 . S
C146 O145 1.208 . S
C147 O152 1.247 . S
C147 O153 1.208 . S
C148 O140 1.315 . S
C148 O143 1.279 . S
C149 O150 1.315 . S
C149 O151 1.279 . S
O150 Cd142 2.223 . S
O150 C149 1.315 . S
O151 Cd141 2.240 . S
O151 C149 1.279 . S
O152 Cd142 2.297 . S
O152 C147 1.247 . S
O153 Cd142 2.439 . S
O153 C147 1.208 . S
O154 Cd155 2.223 . S
O154 C162 1.315 . S
Cd155 O154 2.223 . S
Cd155 O158 2.297 . S
Cd155 O159 2.439 . S
Cd155 O165 2.240 . S
Cd156 O157 2.240 . S
Cd156 O164 2.223 . S
Cd156 O166 2.297 . S
Cd156 O167 2.439 . S
O157 Cd156 2.240 . S
O157 C162 1.279 . S
O158 Cd155 2.297 . S
O158 C160 1.247 . S
O159 Cd155 2.439 . S
O159 C160 1.208 . S
C160 O158 1.247 . S
C160 O159 1.208 . S
C161 O166 1.247 . S
C161 O167 1.208 . S
C162 O154 1.315 . S
C162 O157 1.279 . S
C163 O164 1.315 . S
C163 O165 1.279 . S
O164 Cd156 2.223 . S
O164 C163 1.315 . S
O165 Cd155 2.240 . S
O165 C163 1.279 . S
O166 Cd156 2.297 . S
O166 C161 1.247 . S
O167 Cd156 2.439 . S
O167 C161 1.208 . S
O168 Cd169 2.223 . S
O168 C176 1.315 . S
Cd169 O168 2.223 . S
Cd169 O172 2.297 . S
Cd169 O173 2.439 . S
Cd169 O179 2.240 . S
Cd170 O171 2.240 . S
Cd170 O178 2.223 . S
Cd170 O180 2.297 . S
Cd170 O181 2.439 . S
O171 Cd170 2.240 . S
O171 C176 1.279 . S
O172 Cd169 2.297 . S
O172 C174 1.247 . S
O173 Cd169 2.439 . S
O173 C174 1.208 . S
C174 O172 1.247 . S
C174 O173 1.208 . S
C175 O180 1.247 . S
C175 O181 1.208 . S
C176 O168 1.315 . S
C176 O171 1.279 . S
C177 O178 1.315 . S
C177 O179 1.279 . S
O178 Cd170 2.223 . S
O178 C177 1.315 . S
O179 Cd169 2.240 . S
O179 C177 1.279 . S
O180 Cd170 2.297 . S
O180 C175 1.247 . S
O181 Cd170 2.439 . S
O181 C175 1.208 . S
O182 Cd183 2.223 . S
O182 C190 1.315 . S
Cd183 O182 2.223 . S
Cd183 O186 2.297 . S
Cd183 O187 2.439 . S
Cd183 O193 2.240 . S
Cd184 O185 2.240 . S
Cd184 O192 2.223 . S
Cd184 O194 2.297 . S
Cd184 O195 2.439 . S
O185 Cd184 2.240 . S
O185 C190 1.279 . S
O186 Cd183 2.297 . S
O186 C188 1.247 . S
O187 Cd183 2.439 . S
O187 C188 1.208 . S
C188 O186 1.247 . S
C188 O187 1.208 . S
C189 O194 1.247 . S
C189 O195 1.208 . S
C190 O182 1.315 . S
C190 O185 1.279 . S
C191 O192 1.315 . S
C191 O193 1.279 . S
O192 Cd184 2.223 . S
O192 C191 1.315 . S
O193 Cd183 2.240 . S
O193 C191 1.279 . S
O194 Cd184 2.297 . S
O194 C189 1.247 . S
O195 Cd184 2.439 . S
O195 C189 1.208 . S
O196 Cd197 2.223 . S
O196 C204 1.315 . S
Cd197 O196 2.223 . S
Cd197 O200 2.297 . S
Cd197 O201 2.439 1_556 S
Cd197 O207 2.240 1_556 S
Cd198 O199 2.240 1_554 S
Cd198 O206 2.223 . S
Cd198 O208 2.297 . S
Cd198 O209 2.439 . S
O199 Cd198 2.240 1_556 S
O199 C204 1.279 . S
O200 Cd197 2.297 . S
O200 C202 1.247 . S
O201 Cd197 2.439 1_554 S
O201 C202 1.208 1_554 S
C202 O200 1.247 . S
C202 O201 1.208 1_556 S
C203 O208 1.247 . S
C203 O209 1.208 . S
C204 O196 1.315 . S
C204 O199 1.279 . S
C205 O206 1.315 . S
C205 O207 1.279 . S
O206 Cd198 2.223 . S
O206 C205 1.315 . S
O207 Cd197 2.240 1_554 S
O207 C205 1.279 . S
O208 Cd198 2.297 . S
O208 C203 1.247 . S
O209 Cd198 2.439 . S
O209 C203 1.208 . S
O210 Cd211 2.223 . S
O210 C218 1.315 . S
Cd211 O210 2.223 . S
Cd211 O214 2.297 . S
Cd211 O215 2.439 . S
Cd211 O221 2.240 . S
Cd212 O213 2.240 . S
Cd212 O220 2.223 . S
Cd212 O222 2.297 . S
Cd212 O223 2.439 . S
O213 Cd212 2.240 . S
O213 C218 1.279 . S
O214 Cd211 2.297 . S
O214 C216 1.247 . S
O215 Cd211 2.439 . S
O215 C216 1.208 . S
C216 O214 1.247 . S
C216 O215 1.208 . S
C217 O222 1.247 . S
C217 O223 1.208 . S
C218 O210 1.315 . S
C218 O213 1.279 . S
C219 O220 1.315 . S
C219 O221 1.279 . S
O220 Cd212 2.223 . S
O220 C219 1.315 . S
O221 Cd211 2.240 . S
O221 C219 1.279 . S
O222 Cd212 2.297 . S
O222 C217 1.247 . S
O223 Cd212 2.439 . S
O223 C217 1.208 . S
H224 C230 0.930 . S
H225 C233 0.930 . S
H226 C234 0.930 . S
H227 C235 0.930 . S
H228 C238 0.930 . S
H229 C239 0.930 . S
C230 H224 0.930 . S
C230 C231 1.355 . S
C230 C232 1.415 . S
C231 C230 1.355 . S
C231 C233 1.419 . S
C232 C230 1.415 . S
C232 C237 1.425 . S
C232 C239 1.409 . S
C233 H225 0.930 . S
C233 C231 1.419 . S
C233 C234 1.362 . S
C234 H226 0.930 . S
C234 C233 1.362 . S
C234 C237 1.409 . S
C235 H227 0.930 . S
C235 C236 1.355 . S
C235 C237 1.415 . S
C236 C235 1.355 . S
C236 C238 1.419 . S
C237 C232 1.425 . S
C237 C234 1.409 . S
C237 C235 1.415 . S
C238 H228 0.930 . S
C238 C236 1.419 . S
C238 C239 1.362 . S
C239 H229 0.930 . S
C239 C232 1.409 . S
C239 C238 1.362 . S
H240 C246 0.930 . S
H241 C249 0.930 . S
H242 C250 0.930 . S
H243 C251 0.930 . S
H244 C254 0.930 . S
H245 C255 0.930 1_455 S
C246 H240 0.930 . S
C246 C247 1.355 . S
C246 C248 1.415 . S
C247 C246 1.355 . S
C247 C249 1.419 . S
C248 C246 1.415 . S
C248 C253 1.425 . S
C248 C255 1.409 . S
C249 H241 0.930 . S
C249 C247 1.419 . S
C249 C250 1.362 . S
C250 H242 0.930 . S
C250 C249 1.362 . S
C250 C253 1.409 . S
C251 H243 0.930 . S
C251 C252 1.355 . S
C251 C253 1.415 . S
C252 C251 1.355 . S
C252 C254 1.419 . S
C253 C248 1.425 . S
C253 C250 1.409 . S
C253 C251 1.415 . S
C254 H244 0.930 . S
C254 C252 1.419 . S
C254 C255 1.362 . S
C255 H245 0.930 1_655 S
C255 C248 1.409 . S
C255 C254 1.362 . S
H256 C262 0.930 . S
H257 C265 0.930 . S
H258 C266 0.930 . S
H259 C267 0.930 1_554 S
H260 C270 0.930 . S
H261 C271 0.930 . S
C262 H256 0.930 . S
C262 C263 1.355 . S
C262 C264 1.415 . S
C263 C262 1.355 . S
C263 C265 1.419 . S
C264 C262 1.415 . S
C264 C269 1.425 . S
C264 C271 1.409 . S
C265 H257 0.930 . S
C265 C263 1.419 . S
C265 C266 1.362 . S
C266 H258 0.930 . S
C266 C265 1.362 . S
C266 C269 1.409 . S
C267 H259 0.930 1_556 S
C267 C268 1.355 . S
C267 C269 1.415 . S
C268 C267 1.355 . S
C268 C270 1.419 . S
C269 C264 1.425 . S
C269 C266 1.409 . S
C269 C267 1.415 . S
C270 H260 0.930 . S
C270 C268 1.419 . S
C270 C271 1.362 . S
C271 H261 0.930 . S
C271 C264 1.409 . S
C271 C270 1.362 . S
H272 C278 0.930 . S
H273 C281 0.930 . S
H274 C282 0.930 . S
H275 C283 0.930 . S
H276 C286 0.930 . S
H277 C287 0.930 . S
C278 H272 0.930 . S
C278 C279 1.355 . S
C278 C280 1.415 . S
C279 C278 1.355 . S
C279 C281 1.419 . S
C280 C278 1.415 . S
C280 C285 1.425 . S
C280 C287 1.409 . S
C281 H273 0.930 . S
C281 C279 1.419 . S
C281 C282 1.362 . S
C282 H274 0.930 . S
C282 C281 1.362 . S
C282 C285 1.409 . S
C283 H275 0.930 . S
C283 C284 1.355 . S
C283 C285 1.415 . S
C284 C283 1.355 . S
C284 C286 1.419 . S
C285 C280 1.425 . S
C285 C282 1.409 . S
C285 C283 1.415 . S
C286 H276 0.930 . S
C286 C284 1.419 . S
C286 C287 1.362 . S
C287 H277 0.930 . S
C287 C280 1.409 . S
C287 C286 1.362 . S
H288 C294 0.930 . S
H289 C297 0.930 . S
H290 C298 0.930 . S
H291 C299 0.930 . S
H292 C302 0.930 . S
H293 C303 0.930 . S
C294 H288 0.930 . S
C294 C295 1.355 . S
C294 C296 1.415 . S
C295 C294 1.355 . S
C295 C297 1.419 . S
C296 C294 1.415 . S
C296 C301 1.425 . S
C296 C303 1.409 . S
C297 H289 0.930 . S
C297 C295 1.419 . S
C297 C298 1.362 . S
C298 H290 0.930 . S
C298 C297 1.362 . S
C298 C301 1.409 . S
C299 H291 0.930 . S
C299 C300 1.355 . S
C299 C301 1.415 . S
C300 C299 1.355 . S
C300 C302 1.419 . S
C301 C296 1.425 . S
C301 C298 1.409 . S
C301 C299 1.415 . S
C302 H292 0.930 . S
C302 C300 1.419 . S
C302 C303 1.362 . S
C303 H293 0.930 . S
C303 C296 1.409 . S
C303 C302 1.362 . S
H304 C310 0.930 . S
H305 C313 0.930 . S
H306 C314 0.930 . S
H307 C315 0.930 . S
H308 C318 0.930 . S
H309 C319 0.930 . S
C310 H304 0.930 . S
C310 C311 1.355 . S
C310 C312 1.415 . S
C311 C310 1.355 . S
C311 C313 1.419 . S
C312 C310 1.415 . S
C312 C317 1.425 . S
C312 C319 1.409 . S
C313 H305 0.930 . S
C313 C311 1.419 . S
C313 C314 1.362 . S
C314 H306 0.930 . S
C314 C313 1.362 . S
C314 C317 1.409 . S
C315 H307 0.930 . S
C315 C316 1.355 . S
C315 C317 1.415 . S
C316 C315 1.355 . S
C316 C318 1.419 . S
C317 C312 1.425 . S
C317 C314 1.409 . S
C317 C315 1.415 . S
C318 H308 0.930 . S
C318 C316 1.419 . S
C318 C319 1.362 . S
C319 H309 0.930 . S
C319 C312 1.409 . S
C319 C318 1.362 . S
H320 C326 0.930 . S
H321 C329 0.930 . S
H322 C330 0.930 1_545 S
H323 C331 0.930 . S
H324 C334 0.930 . S
H325 C335 0.930 . S
C326 H320 0.930 . S
C326 C327 1.355 . S
C326 C328 1.415 . S
C327 C326 1.355 . S
C327 C329 1.419 . S
C328 C326 1.415 . S
C328 C333 1.425 . S
C328 C335 1.409 . S
C329 H321 0.930 . S
C329 C327 1.419 . S
C329 C330 1.362 . S
C330 H322 0.930 1_565 S
C330 C329 1.362 . S
C330 C333 1.409 . S
C331 H323 0.930 . S
C331 C332 1.355 . S
C331 C333 1.415 . S
C332 C331 1.355 . S
C332 C334 1.419 . S
C333 C328 1.425 . S
C333 C330 1.409 . S
C333 C331 1.415 . S
C334 H324 0.930 . S
C334 C332 1.419 . S
C334 C335 1.362 . S
C335 H325 0.930 . S
C335 C328 1.409 . S
C335 C334 1.362 . S
H336 C342 0.930 . S
H337 C345 0.930 . S
H338 C346 0.930 . S
H339 C347 0.930 . S
H340 C350 0.930 . S
H341 C351 0.930 . S
C342 H336 0.930 . S
C342 C343 1.355 . S
C342 C344 1.415 . S
C343 C342 1.355 . S
C343 C345 1.419 . S
C344 C342 1.415 . S
C344 C349 1.425 . S
C344 C351 1.409 . S
C345 H337 0.930 . S
C345 C343 1.419 . S
C345 C346 1.362 . S
C346 H338 0.930 . S
C346 C345 1.362 . S
C346 C349 1.409 . S
C347 H339 0.930 . S
C347 C348 1.355 . S
C347 C349 1.415 . S
C348 C347 1.355 . S
C348 C350 1.419 . S
C349 C344 1.425 . S
C349 C346 1.409 . S
C349 C347 1.415 . S
C350 H340 0.930 . S
C350 C348 1.419 . S
C350 C351 1.362 . S
C351 H341 0.930 . S
C351 C344 1.409 . S
C351 C350 1.362 . S
H352 C358 0.930 . S
H353 C361 0.930 . S
H354 C362 0.930 1_655 S
H355 C363 0.930 . S
H356 C366 0.930 . S
H357 C367 0.930 1_455 S
C358 H352 0.930 . S
C358 C359 1.355 1_565 S
C358 C360 1.415 . S
C359 C358 1.355 1_545 S
C359 C361 1.419 . S
C360 C358 1.415 . S
C360 C365 1.425 1_465 S
C360 C367 1.409 1_455 S
C361 H353 0.930 . S
C361 C359 1.419 . S
C361 C362 1.362 . S
C362 H354 0.930 1_455 S
C362 C361 1.362 . S
C362 C365 1.409 1_455 S
C363 H355 0.930 . S
C363 C364 1.355 1_545 S
C363 C365 1.415 . S
C364 C363 1.355 1_565 S
C364 C366 1.419 . S
C365 C360 1.425 1_645 S
C365 C362 1.409 1_655 S
C365 C363 1.415 . S
C366 H356 0.930 . S
C366 C364 1.419 . S
C366 C367 1.362 . S
C367 H357 0.930 1_655 S
C367 C360 1.409 1_655 S
C367 C366 1.362 . S
H368 C374 0.930 1_455 S
H369 C377 0.930 . S
H370 C378 0.930 . S
H371 C379 0.930 1_655 S
H372 C382 0.930 . S
H373 C383 0.930 . S
C374 H368 0.930 1_655 S
C374 C375 1.355 . S
C374 C376 1.415 1_655 S
C375 C374 1.355 . S
C375 C377 1.419 . S
C376 C374 1.415 1_455 S
C376 C381 1.425 1_455 S
C376 C383 1.409 . S
C377 H369 0.930 . S
C377 C375 1.419 . S
C377 C378 1.362 . S
C378 H370 0.930 . S
C378 C377 1.362 . S
C378 C381 1.409 . S
C379 H371 0.930 1_455 S
C379 C380 1.355 . S
C379 C381 1.415 1_455 S
C380 C379 1.355 . S
C380 C382 1.419 . S
C381 C376 1.425 1_655 S
C381 C378 1.409 . S
C381 C379 1.415 1_655 S
C382 H372 0.930 . S
C382 C380 1.419 . S
C382 C383 1.362 . S
C383 H373 0.930 . S
C383 C376 1.409 . S
C383 C382 1.362 . S
H384 C390 0.930 . S
H385 C393 0.930 . S
H386 C394 0.930 . S
H387 C395 0.930 . S
H388 C398 0.930 . S
H389 C399 0.930 . S
C390 H384 0.930 . S
C390 C391 1.355 . S
C390 C392 1.415 . S
C391 C390 1.355 . S
C391 C393 1.419 . S
C392 C390 1.415 . S
C392 C397 1.425 . S
C392 C399 1.409 . S
C393 H385 0.930 . S
C393 C391 1.419 . S
C393 C394 1.362 . S
C394 H386 0.930 . S
C394 C393 1.362 . S
C394 C397 1.409 . S
C395 H387 0.930 . S
C395 C396 1.355 . S
C395 C397 1.415 . S
C396 C395 1.355 . S
C396 C398 1.419 . S
C397 C392 1.425 . S
C397 C394 1.409 . S
C397 C395 1.415 . S
C398 H388 0.930 . S
C398 C396 1.419 . S
C398 C399 1.362 . S
C399 H389 0.930 . S
C399 C392 1.409 . S
C399 C398 1.362 . S
H400 C406 0.930 . S
H401 C409 0.930 . S
H402 C410 0.930 . S
H403 C411 0.930 . S
H404 C414 0.930 1_556 S
H405 C415 0.930 1_556 S
C406 H400 0.930 . S
C406 C407 1.355 . S
C406 C408 1.415 . S
C407 C406 1.355 . S
C407 C409 1.419 . S
C408 C406 1.415 . S
C408 C413 1.425 1_565 S
C408 C415 1.409 1_565 S
C409 H401 0.930 . S
C409 C407 1.419 . S
C409 C410 1.362 . S
C410 H402 0.930 . S
C410 C409 1.362 . S
C410 C413 1.409 1_565 S
C411 H403 0.930 . S
C411 C412 1.355 . S
C411 C413 1.415 . S
C412 C411 1.355 . S
C412 C414 1.419 . S
C413 C408 1.425 1_545 S
C413 C410 1.409 1_545 S
C413 C411 1.415 . S
C414 H404 0.930 1_554 S
C414 C412 1.419 . S
C414 C415 1.362 . S
C415 H405 0.930 1_554 S
C415 C408 1.409 1_545 S
C415 C414 1.362 . S
H416 C422 0.930 . S
H417 C425 0.930 . S
H418 C426 0.930 . S
H419 C427 0.930 . S
H420 C430 0.930 . S
H421 C431 0.930 . S
C422 H416 0.930 . S
C422 C423 1.355 1_554 S
C422 C424 1.413 1_455 S
C423 C422 1.355 1_556 S
C423 C425 1.419 . S
C424 C422 1.413 1_655 S
C424 C429 1.425 1_654 S
C424 C431 1.411 . S
C425 H417 0.930 . S
C425 C423 1.419 . S
C425 C426 1.362 . S
C426 H418 0.930 . S
C426 C425 1.362 . S
C426 C429 1.411 . S
C427 H419 0.930 . S
C427 C428 1.355 1_556 S
C427 C429 1.413 1_655 S
C428 C427 1.355 1_554 S
C428 C430 1.419 . S
C429 C424 1.425 1_456 S
C429 C426 1.411 . S
C429 C427 1.413 1_455 S
C430 H420 0.930 . S
C430 C428 1.419 . S
C430 C431 1.362 . S
C431 H421 0.930 . S
C431 C424 1.411 . S
C431 C430 1.362 . S
H432 C438 0.930 . S
H433 C441 0.930 . S
H434 C442 0.930 . S
H435 C443 0.930 . S
H436 C446 0.930 . S
H437 C447 0.930 . S
C438 H432 0.930 . S
C438 C439 1.355 . S
C438 C440 1.415 . S
C439 C438 1.355 . S
C439 C441 1.419 . S
C440 C438 1.415 . S
C440 C445 1.425 . S
C440 C447 1.409 . S
C441 H433 0.930 . S
C441 C439 1.419 . S
C441 C442 1.362 . S
C442 H434 0.930 . S
C442 C441 1.362 . S
C442 C445 1.409 . S
C443 H435 0.930 . S
C443 C444 1.355 . S
C443 C445 1.415 . S
C444 C443 1.355 . S
C444 C446 1.419 . S
C445 C440 1.425 . S
C445 C442 1.409 . S
C445 C443 1.415 . S
C446 H436 0.930 . S
C446 C444 1.419 . S
C446 C447 1.362 . S
C447 H437 0.930 . S
C447 C440 1.409 . S
C447 C446 1.362 . S
H448 C454 0.930 . S
H449 C457 0.930 . S
H450 C458 0.930 . S
H451 C459 0.930 . S
H452 C462 0.930 . S
H453 C463 0.930 . S
C454 H448 0.930 . S
C454 C455 1.355 1_565 S
C454 C456 1.415 . S
C455 C454 1.355 1_545 S
C455 C457 1.419 . S
C456 C454 1.415 . S
C456 C461 1.425 1_565 S
C456 C463 1.409 . S
C457 H449 0.930 . S
C457 C455 1.419 . S
C457 C458 1.362 . S
C458 H450 0.930 . S
C458 C457 1.362 . S
C458 C461 1.409 . S
C459 H451 0.930 . S
C459 C460 1.355 1_545 S
C459 C461 1.415 . S
C460 C459 1.355 1_565 S
C460 C462 1.419 . S
C461 C456 1.425 1_545 S
C461 C458 1.409 . S
C461 C459 1.415 . S
C462 H452 0.930 . S
C462 C460 1.419 . S
C462 C463 1.362 . S
C463 H453 0.930 . S
C463 C456 1.409 . S
C463 C462 1.362 . S
H464 C470 0.930 . S
H465 C473 0.930 . S
H466 C474 0.930 . S
H467 C475 0.930 . S
H468 C478 0.930 . S
H469 C479 0.930 . S
C470 H464 0.930 . S
C470 C471 1.355 . S
C470 C472 1.422 . S
C471 C470 1.355 . S
C471 C473 1.419 1_455 S
C472 C470 1.422 . S
C472 C477 1.425 1_445 S
C472 C479 1.402 1_545 S
C473 H465 0.930 . S
C473 C471 1.419 1_655 S
C473 C474 1.362 . S
C474 H466 0.930 . S
C474 C473 1.362 . S
C474 C477 1.402 1_545 S
C475 H467 0.930 . S
C475 C476 1.355 . S
C475 C477 1.422 . S
C476 C475 1.355 . S
C476 C478 1.419 1_655 S
C477 C472 1.425 1_665 S
C477 C474 1.402 1_565 S
C477 C475 1.422 . S
C478 H468 0.930 . S
C478 C476 1.419 1_455 S
C478 C479 1.362 . S
C479 H469 0.930 . S
C479 C472 1.402 1_565 S
C479 C478 1.362 . S
H480 C486 0.930 . S
H481 C489 0.930 . S
H482 C490 0.930 . S
H483 C491 0.930 . S
H484 C494 0.930 . S
H485 C495 0.930 . S
C486 H480 0.930 . S
C486 C487 1.355 . S
C486 C488 1.415 . S
C487 C486 1.355 . S
C487 C489 1.419 . S
C488 C486 1.415 . S
C488 C493 1.425 . S
C488 C495 1.409 . S
C489 H481 0.930 . S
C489 C487 1.419 . S
C489 C490 1.362 . S
C490 H482 0.930 . S
C490 C489 1.362 . S
C490 C493 1.409 . S
C491 H483 0.930 . S
C491 C492 1.355 . S
C491 C493 1.415 . S
C492 C491 1.355 . S
C492 C494 1.419 . S
C493 C488 1.425 . S
C493 C490 1.409 . S
C493 C491 1.415 . S
C494 H484 0.930 . S
C494 C492 1.419 . S
C494 C495 1.362 . S
C495 H485 0.930 . S
C495 C488 1.409 . S
C495 C494 1.362 . S
H496 C502 0.930 . S
H497 C505 0.930 . S
H498 C506 0.930 . S
H499 C507 0.930 . S
H500 C510 0.930 . S
H501 C511 0.930 . S
C502 H496 0.930 . S
C502 C503 1.355 . S
C502 C504 1.415 . S
C503 C502 1.355 . S
C503 C505 1.419 . S
C504 C502 1.415 . S
C504 C509 1.425 . S
C504 C511 1.409 . S
C505 H497 0.930 . S
C505 C503 1.419 . S
C505 C506 1.362 . S
C506 H498 0.930 . S
C506 C505 1.362 . S
C506 C509 1.409 . S
C507 H499 0.930 . S
C507 C508 1.355 . S
C507 C509 1.415 . S
C508 C507 1.355 . S
C508 C510 1.419 . S
C509 C504 1.425 . S
C509 C506 1.409 . S
C509 C507 1.415 . S
C510 H500 0.930 . S
C510 C508 1.419 . S
C510 C511 1.362 . S
C511 H501 0.930 . S
C511 C504 1.409 . S
C511 C510 1.362 . S
H512 C518 0.930 . S
H513 C521 0.930 . S
H514 C522 0.930 . S
H515 C523 0.930 . S
H516 C526 0.930 . S
H517 C527 0.930 1_554 S
C518 H512 0.930 . S
C518 C519 1.355 . S
C518 C520 1.415 . S
C519 C518 1.355 . S
C519 C521 1.419 . S
C520 C518 1.415 . S
C520 C525 1.425 . S
C520 C527 1.410 1_554 S
C521 H513 0.930 . S
C521 C519 1.419 . S
C521 C522 1.362 . S
C522 H514 0.930 . S
C522 C521 1.362 . S
C522 C525 1.409 . S
C523 H515 0.930 . S
C523 C524 1.355 . S
C523 C525 1.415 1_556 S
C524 C523 1.355 . S
C524 C526 1.419 . S
C525 C520 1.425 . S
C525 C522 1.409 . S
C525 C523 1.415 1_554 S
C526 H516 0.930 . S
C526 C524 1.419 . S
C526 C527 1.362 . S
C527 H517 0.930 1_556 S
C527 C520 1.410 1_556 S
C527 C526 1.362 . S
H528 C534 0.930 . S
H529 C537 0.930 . S
H530 C538 0.930 . S
H531 C539 0.930 . S
H532 C542 0.930 . S
H533 C543 0.930 . S
C534 H528 0.930 . S
C534 C535 1.355 . S
C534 C536 1.415 . S
C535 C534 1.355 . S
C535 C537 1.419 . S
C536 C534 1.415 . S
C536 C541 1.425 . S
C536 C543 1.409 . S
C537 H529 0.930 . S
C537 C535 1.419 . S
C537 C538 1.362 . S
C538 H530 0.930 . S
C538 C537 1.362 . S
C538 C541 1.409 . S
C539 H531 0.930 . S
C539 C540 1.355 . S
C539 C541 1.415 . S
C540 C539 1.355 . S
C540 C542 1.419 . S
C541 C536 1.425 . S
C541 C538 1.409 . S
C541 C539 1.415 . S
C542 H532 0.930 . S
C542 C540 1.419 . S
C542 C543 1.362 . S
C543 H533 0.930 . S
C543 C536 1.409 . S
C543 C542 1.362 . S
H544 C550 0.930 . S
H545 C553 0.930 . S
H546 C554 0.930 . S
H547 C555 0.930 . S
H548 C558 0.930 . S
H549 C559 0.930 . S
C550 H544 0.930 . S
C550 C551 1.355 . S
C550 C552 1.415 . S
C551 C550 1.355 . S
C551 C553 1.419 . S
C552 C550 1.415 . S
C552 C557 1.425 . S
C552 C559 1.409 . S
C553 H545 0.930 . S
C553 C551 1.419 . S
C553 C554 1.362 . S
C554 H546 0.930 . S
C554 C553 1.362 . S
C554 C557 1.409 . S
C555 H547 0.930 . S
C555 C556 1.355 . S
C555 C557 1.415 . S
C556 C555 1.355 . S
C556 C558 1.419 . S
C557 C552 1.425 . S
C557 C554 1.409 . S
C557 C555 1.415 . S
C558 H548 0.930 . S
C558 C556 1.419 . S
C558 C559 1.362 . S
C559 H549 0.930 . S
C559 C552 1.409 . S
C559 C558 1.362 . S
H560 C566 0.930 . S
H561 C569 0.930 . S
H562 C570 0.930 . S
H563 C571 0.930 . S
H564 C574 0.930 . S
H565 C575 0.930 . S
C566 H560 0.930 . S
C566 C567 1.355 . S
C566 C568 1.415 . S
C567 C566 1.355 . S
C567 C569 1.419 . S
C568 C566 1.415 . S
C568 C573 1.425 . S
C568 C575 1.409 . S
C569 H561 0.930 . S
C569 C567 1.419 . S
C569 C570 1.362 . S
C570 H562 0.930 . S
C570 C569 1.362 . S
C570 C573 1.409 . S
C571 H563 0.930 . S
C571 C572 1.355 . S
C571 C573 1.415 1_556 S
C572 C571 1.355 . S
C572 C574 1.419 . S
C573 C568 1.425 . S
C573 C570 1.409 . S
C573 C571 1.415 1_554 S
C574 H564 0.930 . S
C574 C572 1.419 . S
C574 C575 1.362 1_556 S
C575 H565 0.930 . S
C575 C568 1.409 . S
C575 C574 1.362 1_554 S
H576 C582 0.930 . S
H577 C585 0.930 . S
H578 C586 0.930 . S
H579 C587 0.930 . S
H580 C590 0.930 . S
H581 C591 0.930 . S
C582 H576 0.930 . S
C582 C583 1.355 . S
C582 C584 1.415 . S
C583 C582 1.355 . S
C583 C585 1.419 . S
C584 C582 1.415 . S
C584 C589 1.425 . S
C584 C591 1.409 . S
C585 H577 0.930 . S
C585 C583 1.419 . S
C585 C586 1.362 . S
C586 H578 0.930 . S
C586 C585 1.362 . S
C586 C589 1.409 . S
C587 H579 0.930 . S
C587 C588 1.355 . S
C587 C589 1.415 . S
C588 C587 1.355 . S
C588 C590 1.419 . S
C589 C584 1.425 . S
C589 C586 1.409 . S
C589 C587 1.415 . S
C590 H580 0.930 . S
C590 C588 1.419 . S
C590 C591 1.362 . S
C591 H581 0.930 . S
C591 C584 1.409 . S
C591 C590 1.362 . S
H592 C598 0.930 . S
H593 C601 0.930 . S
H594 C602 0.930 . S
H595 C603 0.930 . S
H596 C606 0.930 . S
H597 C607 0.930 . S
C598 H592 0.930 . S
C598 C599 1.355 . S
C598 C600 1.415 . S
C599 C598 1.355 . S
C599 C601 1.419 . S
C600 C598 1.415 . S
C600 C605 1.425 . S
C600 C607 1.409 . S
C601 H593 0.930 . S
C601 C599 1.419 . S
C601 C602 1.362 . S
C602 H594 0.930 . S
C602 C601 1.362 . S
C602 C605 1.409 . S
C603 H595 0.930 . S
C603 C604 1.355 . S
C603 C605 1.415 . S
C604 C603 1.355 . S
C604 C606 1.419 . S
C605 C600 1.425 . S
C605 C602 1.409 . S
C605 C603 1.415 . S
C606 H596 0.930 . S
C606 C604 1.419 . S
C606 C607 1.362 . S
C607 H597 0.930 . S
C607 C600 1.409 . S
C607 C606 1.362 . S
H608 C614 0.930 . S
H609 C617 0.930 . S
H610 C618 0.930 . S
H611 C619 0.930 . S
H612 C622 0.930 . S
H613 C623 0.930 . S
C614 H608 0.930 . S
C614 C615 1.355 . S
C614 C616 1.415 1_556 S
C615 C614 1.355 . S
C615 C617 1.419 . S
C616 C614 1.415 1_554 S
C616 C621 1.425 . S
C616 C623 1.409 . S
C617 H609 0.930 . S
C617 C615 1.419 . S
C617 C618 1.362 1_556 S
C618 H610 0.930 . S
C618 C617 1.362 1_554 S
C618 C621 1.409 . S
C619 H611 0.930 . S
C619 C620 1.355 . S
C619 C621 1.415 . S
C620 C619 1.355 . S
C620 C622 1.419 . S
C621 C616 1.425 . S
C621 C618 1.409 . S
C621 C619 1.415 . S
C622 H612 0.930 . S
C622 C620 1.419 . S
C622 C623 1.362 . S
C623 H613 0.930 . S
C623 C616 1.409 . S
C623 C622 1.362 . S
H624 C630 0.930 . S
H625 C633 0.930 . S
H626 C634 0.930 . S
H627 C635 0.930 . S
H628 C638 0.930 . S
H629 C639 0.930 . S
C630 H624 0.930 . S
C630 C631 1.355 . S
C630 C632 1.415 . S
C631 C630 1.355 . S
C631 C633 1.419 . S
C632 C630 1.415 . S
C632 C637 1.425 . S
C632 C639 1.409 . S
C633 H625 0.930 . S
C633 C631 1.419 . S
C633 C634 1.362 . S
C634 H626 0.930 . S
C634 C633 1.362 . S
C634 C637 1.409 . S
C635 H627 0.930 . S
C635 C636 1.355 . S
C635 C637 1.415 . S
C636 C635 1.355 . S
C636 C638 1.419 . S
C637 C632 1.425 . S
C637 C634 1.409 . S
C637 C635 1.415 . S
C638 H628 0.930 . S
C638 C636 1.419 . S
C638 C639 1.362 . S
C639 H629 0.930 . S
C639 C632 1.409 . S
C639 C638 1.362 . S
H640 C646 0.930 . S
H641 C649 0.930 . S
H642 C650 0.930 . S
H643 C651 0.930 . S
H644 C654 0.930 . S
H645 C655 0.930 . S
C646 H640 0.930 . S
C646 C647 1.355 . S
C646 C648 1.415 . S
C647 C646 1.355 . S
C647 C649 1.419 . S
C648 C646 1.415 . S
C648 C653 1.425 . S
C648 C655 1.409 . S
C649 H641 0.930 . S
C649 C647 1.419 . S
C649 C650 1.362 . S
C650 H642 0.930 . S
C650 C649 1.362 . S
C650 C653 1.409 . S
C651 H643 0.930 . S
C651 C652 1.355 . S
C651 C653 1.415 . S
C652 C651 1.355 . S
C652 C654 1.419 . S
C653 C648 1.425 . S
C653 C650 1.409 . S
C653 C651 1.415 . S
C654 H644 0.930 . S
C654 C652 1.419 . S
C654 C655 1.362 . S
C655 H645 0.930 . S
C655 C648 1.409 . S
C655 C654 1.362 . S
H656 C662 0.930 . S
H657 C665 0.930 . S
H658 C666 0.930 . S
H659 C667 0.930 . S
H660 C670 0.930 . S
H661 C671 0.930 . S
C662 H656 0.930 . S
C662 C663 1.355 . S
C662 C664 1.415 . S
C663 C662 1.355 . S
C663 C665 1.419 . S
C664 C662 1.415 . S
C664 C669 1.425 . S
C664 C671 1.409 . S
C665 H657 0.930 . S
C665 C663 1.419 . S
C665 C666 1.362 . S
C666 H658 0.930 . S
C666 C665 1.362 . S
C666 C669 1.409 . S
C667 H659 0.930 . S
C667 C668 1.355 . S
C667 C669 1.415 . S
C668 C667 1.355 . S
C668 C670 1.419 . S
C669 C664 1.425 . S
C669 C666 1.409 . S
C669 C667 1.415 . S
C670 H660 0.930 . S
C670 C668 1.419 . S
C670 C671 1.362 . S
C671 H661 0.930 . S
C671 C664 1.409 . S
C671 C670 1.362 . S
H672 C678 0.930 . S
H673 C681 0.930 . S
H674 C682 0.930 . S
H675 C683 0.930 . S
H676 C686 0.930 . S
H677 C687 0.930 . S
C678 H672 0.930 . S
C678 C679 1.355 . S
C678 C680 1.415 . S
C679 C678 1.355 . S
C679 C681 1.419 . S
C680 C678 1.415 . S
C680 C685 1.425 . S
C680 C687 1.409 . S
C681 H673 0.930 . S
C681 C679 1.419 . S
C681 C682 1.362 . S
C682 H674 0.930 . S
C682 C681 1.362 . S
C682 C685 1.409 . S
C683 H675 0.930 . S
C683 C684 1.355 . S
C683 C685 1.415 . S
C684 C683 1.355 . S
C684 C686 1.419 . S
C685 C680 1.425 . S
C685 C682 1.409 . S
C685 C683 1.415 . S
C686 H676 0.930 . S
C686 C684 1.419 . S
C686 C687 1.362 . S
C687 H677 0.930 . S
C687 C680 1.409 . S
C687 C686 1.362 . S
H688 C694 0.930 . S
H689 C697 0.930 . S
H690 C698 0.930 . S
H691 C699 0.930 . S
H692 C702 0.930 . S
H693 C703 0.930 . S
C694 H688 0.930 . S
C694 C695 1.355 . S
C694 C696 1.415 . S
C695 C694 1.355 . S
C695 C697 1.419 . S
C696 C694 1.415 . S
C696 C701 1.425 . S
C696 C703 1.409 . S
C697 H689 0.930 . S
C697 C695 1.419 . S
C697 C698 1.362 . S
C698 H690 0.930 . S
C698 C697 1.362 . S
C698 C701 1.409 . S
C699 H691 0.930 . S
C699 C700 1.355 . S
C699 C701 1.415 . S
C700 C699 1.355 . S
C700 C702 1.419 . S
C701 C696 1.425 . S
C701 C698 1.409 . S
C701 C699 1.415 . S
C702 H692 0.930 . S
C702 C700 1.419 . S
C702 C703 1.362 . S
C703 H693 0.930 . S
C703 C696 1.409 . S
C703 C702 1.362 . S
H704 C710 0.930 . S
H705 C713 0.930 . S
H706 C714 0.930 . S
H707 C715 0.930 . S
H708 C718 0.930 . S
H709 C719 0.930 . S
C710 H704 0.930 . S
C710 C711 1.355 . S
C710 C712 1.415 . S
C711 C710 1.355 . S
C711 C713 1.419 . S
C712 C710 1.415 . S
C712 C717 1.425 . S
C712 C719 1.409 . S
C713 H705 0.930 . S
C713 C711 1.419 . S
C713 C714 1.362 . S
C714 H706 0.930 . S
C714 C713 1.362 . S
C714 C717 1.409 . S
C715 H707 0.930 . S
C715 C716 1.355 . S
C715 C717 1.415 . S
C716 C715 1.355 . S
C716 C718 1.419 . S
C717 C712 1.425 . S
C717 C714 1.409 . S
C717 C715 1.415 . S
C718 H708 0.930 . S
C718 C716 1.419 . S
C718 C719 1.362 . S
C719 H709 0.930 . S
C719 C712 1.409 . S
C719 C718 1.362 . S
H720 C726 0.930 . S
H721 C729 0.930 . S
H722 C730 0.930 . S
H723 C731 0.930 . S
H724 C734 0.930 . S
H725 C735 0.930 . S
C726 H720 0.930 . S
C726 C727 1.355 . S
C726 C728 1.415 . S
C727 C726 1.355 . S
C727 C729 1.419 . S
C728 C726 1.415 . S
C728 C733 1.425 . S
C728 C735 1.409 . S
C729 H721 0.930 . S
C729 C727 1.419 . S
C729 C730 1.362 . S
C730 H722 0.930 . S
C730 C729 1.362 . S
C730 C733 1.409 . S
C731 H723 0.930 . S
C731 C732 1.355 . S
C731 C733 1.415 1_556 S
C732 C731 1.355 . S
C732 C734 1.419 . S
C733 C728 1.425 . S
C733 C730 1.409 . S
C733 C731 1.415 1_554 S
C734 H724 0.930 . S
C734 C732 1.419 . S
C734 C735 1.362 1_556 S
C735 H725 0.930 . S
C735 C728 1.409 . S
C735 C734 1.362 1_554 S
C231 C90 1.384 . S
C236 C6 1.395 . S
C247 C104 1.423 . S
C252 C20 1.395 . S
C263 C34 1.388 . S
C268 C62 1.387 . S
C279 C48 1.443 . S
C284 C76 1.416 . S
C295 C118 1.407 . S
C300 C202 1.386 . S
C311 C216 1.386 . S
C316 C132 1.409 . S
C327 C146 1.409 . S
C332 C174 1.437 . S
C343 C160 1.412 . S
C348 C188 1.388 . S
C359 C9 1.313 . S
C364 C149 1.330 . S
C375 C23 1.333 . S
C380 C163 1.314 . S
C391 C37 1.315 . S
C396 C121 1.314 . S
C407 C51 1.359 . S
C412 C135 1.330 . S
C423 C65 1.396 1_556 S
C428 C205 1.380 . S
C439 C219 1.387 . S
C444 C79 1.361 . S
C455 C93 1.312 . S
C460 C177 1.317 . S
C471 C191 1.392 . S
C476 C107 1.397 . S
C487 C190 0.877 . S
C492 C8 0.865 . S
C503 C22 0.875 . S
C508 C204 0.863 . S
C519 C218 0.982 . S
C524 C36 0.976 . S
C535 C176 0.935 . S
C540 C50 0.917 . S
C551 C162 0.887 . S
C556 C64 0.873 . S
C567 C78 0.926 . S
C572 C120 0.943 . S
C583 C92 0.920 . S
C588 C134 0.938 . S
C599 C106 0.929 . S
C604 C148 0.911 . S
C615 C189 1.506 . S
C620 C7 1.520 . S
C631 C21 1.489 . S
C636 C203 1.509 . S
C647 C35 1.493 . S
C652 C217 1.513 . S
C663 C175 1.516 . S
C668 C49 1.520 . S
C679 C161 1.518 . S
C684 C63 1.519 . S
C695 C119 1.501 . S
C700 C77 1.482 . S
C711 C91 1.501 . S
C716 C133 1.518 . S
C727 C147 1.516 . S
C732 C105 1.520 . S
