# Generated by pormake.
# Topology snz, (6)-cn, num edge types: 1
# Building blocks:
#     Node 0, Type 0, BuildingBlock: VOLQOD_clean_sbu_1, # of connection points: 6
#     Node 1, Type 0, BuildingBlock: VOLQOD_clean_sbu_1, # of connection points: 6
#     Node 2, Type 0, BuildingBlock: VOLQOD_clean_sbu_1, # of connection points: 6
#     Node 3, Type 0, BuildingBlock: VOLQOD_clean_sbu_1, # of connection points: 6
#     Node 4, Type 0, BuildingBlock: VOLQOD_clean_sbu_1, # of connection points: 6
#     Node 5, Type 0, BuildingBlock: VOLQOD_clean_sbu_1, # of connection points: 6
#     Node 6, Type 0, BuildingBlock: VOLQOD_clean_sbu_1, # of connection points: 6
#     Node 7, Type 0, BuildingBlock: VOLQOD_clean_sbu_1, # of connection points: 6
#     Node 8, Type 0, BuildingBlock: VOLQOD_clean_sbu_1, # of connection points: 6
#     Edge 9, Type (0, 0), BuildingBlock: XUDNAN_clean_linker_2, # of connection points: 2
#     Edge 10, Type (0, 0), BuildingBlock: XUDNAN_clean_linker_2, # of connection points: 2
#     Edge 11, Type (0, 0), BuildingBlock: XUDNAN_clean_linker_2, # of connection points: 2
#     Edge 12, Type (0, 0), BuildingBlock: XUDNAN_clean_linker_2, # of connection points: 2
#     Edge 13, Type (0, 0), BuildingBlock: XUDNAN_clean_linker_2, # of connection points: 2
#     Edge 14, Type (0, 0), BuildingBlock: XUDNAN_clean_linker_2, # of connection points: 2
#     Edge 15, Type (0, 0), BuildingBlock: XUDNAN_clean_linker_2, # of connection points: 2
#     Edge 16, Type (0, 0), BuildingBlock: XUDNAN_clean_linker_2, # of connection points: 2
#     Edge 17, Type (0, 0), BuildingBlock: XUDNAN_clean_linker_2, # of connection points: 2
#     Edge 18, Type (0, 0), BuildingBlock: XUDNAN_clean_linker_2, # of connection points: 2
#     Edge 19, Type (0, 0), BuildingBlock: XUDNAN_clean_linker_2, # of connection points: 2
#     Edge 20, Type (0, 0), BuildingBlock: XUDNAN_clean_linker_2, # of connection points: 2
#     Edge 21, Type (0, 0), BuildingBlock: XUDNAN_clean_linker_2, # of connection points: 2
#     Edge 22, Type (0, 0), BuildingBlock: XUDNAN_clean_linker_2, # of connection points: 2
#     Edge 23, Type (0, 0), BuildingBlock: XUDNAN_clean_linker_2, # of connection points: 2
#     Edge 24, Type (0, 0), BuildingBlock: XUDNAN_clean_linker_2, # of connection points: 2
#     Edge 25, Type (0, 0), BuildingBlock: XUDNAN_clean_linker_2, # of connection points: 2
#     Edge 26, Type (0, 0), BuildingBlock: XUDNAN_clean_linker_2, # of connection points: 2
#     Edge 27, Type (0, 0), BuildingBlock: XUDNAN_clean_linker_2, # of connection points: 2
#     Edge 28, Type (0, 0), BuildingBlock: XUDNAN_clean_linker_2, # of connection points: 2
#     Edge 29, Type (0, 0), BuildingBlock: XUDNAN_clean_linker_2, # of connection points: 2
#     Edge 30, Type (0, 0), BuildingBlock: XUDNAN_clean_linker_2, # of connection points: 2
#     Edge 31, Type (0, 0), BuildingBlock: XUDNAN_clean_linker_2, # of connection points: 2
#     Edge 32, Type (0, 0), BuildingBlock: XUDNAN_clean_linker_2, # of connection points: 2
#     Edge 33, Type (0, 0), BuildingBlock: XUDNAN_clean_linker_2, # of connection points: 2
#     Edge 34, Type (0, 0), BuildingBlock: XUDNAN_clean_linker_2, # of connection points: 2
#     Edge 35, Type (0, 0), BuildingBlock: XUDNAN_clean_linker_2, # of connection points: 2
# Relax obj value: 0.409
# Max RMSD: 0.302
# Mean RMSD: 0.293
data_MOF--net-snz--node1-VOLQOD_clean_sbu_1--edge1-XUDNAN_clean_linker_2
_symmetry_space_group_name_H-M    P1
_symmetry_Int_Tables_number       1
_symmetry_cell_setting            triclinic
loop_
_symmetry_equiv_pos_as_xyz
'x, y, z'
_cell_length_a     52.755062
_cell_length_b     52.646749
_cell_length_c     15.468207
_cell_angle_alpha  90.135718
_cell_angle_beta   89.82556
_cell_angle_gamma 120.16808
loop_
_atom_site_label
_atom_site_type_symbol
_atom_site_fract_x
_atom_site_fract_y
_atom_site_fract_z
_atom_type_partial_charge
O0 O 0.05553 0.54234 0.98065 0.0
Zn1 Zn 0.02832 0.55459 0.92515 0.0
O2 O 0.98852 0.53046 0.97078 0.0
Zn3 Zn 0.96857 0.50385 0.87838 0.0
Zn4 Zn 0.98687 0.50721 0.06598 0.0
Zn5 Zn 0.97128 0.55428 -0.0012 0.0
O6 O 0.9454 0.51768 0.81303 0.0
O7 O 0.94243 0.549 0.90469 0.0
O8 O 0.02561 0.55229 0.79351 0.0
O9 O -0.00058 0.50475 0.80356 0.0
O10 O 0.94252 0.46275 0.91604 0.0
O11 O 0.95882 0.46392 0.04849 0.0
O12 O 0.9731 0.51925 0.16822 0.0
O13 O 0.04324 0.59619 0.96022 0.0
O14 O 0.95352 0.54538 0.11912 0.0
O15 O 0.00358 0.59659 0.00765 0.0
C16 C 0.05161 0.52749 0.04973 0.0
C17 C 0.93577 0.53469 0.83358 0.0
C18 C 0.94204 0.44982 0.9857 0.0
C19 C 0.01117 0.52744 0.75646 0.0
C20 C 0.95903 0.5327 0.18022 0.0
C21 C 0.03101 0.60969 0.99198 0.0
O22 O 0.02682 0.51423 0.08769 0.0
O23 O 0.52873 0.55812 0.09537 0.0
Zn24 Zn 0.5058 0.51713 0.04305 0.0
O25 O 0.51577 0.49027 0.09852 0.0
Zn26 Zn 0.54116 0.48426 0.02397 0.0
Zn27 Zn 0.53788 0.50824 0.1995 0.0
Zn28 Zn 0.48061 0.45279 0.1184 0.0
O29 O 0.52112 0.4446 0.9716 0.0
O30 O 0.47583 0.42321 0.02504 0.0
O31 O 0.51079 0.51339 0.91562 0.0
O32 O 0.55193 0.51256 0.92745 0.0
O33 O 0.57801 0.49133 0.07854 0.0
O34 O 0.58054 0.51934 0.18874 0.0
O35 O 0.51901 0.47982 0.29467 0.0
O36 O 0.46328 0.50368 0.06446 0.0
O37 O 0.48176 0.43875 0.23908 0.0
O38 O 0.44588 0.45871 0.11757 0.0
C39 C 0.53655 0.56403 0.17442 0.0
C40 C 0.49497 0.42323 0.97429 0.0
C41 C 0.59227 0.50861 0.13995 0.0
C42 C 0.53164 0.51142 0.88081 0.0
C43 C 0.49817 0.45339 0.30212 0.0
C44 C 0.4423 0.47996 0.09517 0.0
O45 O 0.53772 0.54531 0.22375 0.0
O46 O 0.41743 0.94736 0.03167 0.0
Zn47 Zn 0.45379 0.96621 0.96038 0.0
O48 O 0.47753 0.00689 -0.00591 0.0
Zn49 Zn 0.49674 0.02527 0.8903 0.0
Zn50 Zn 0.4518 0.02025 0.03352 0.0
Zn51 Zn 0.50639 0.01244 0.07565 0.0
O52 O 0.53896 0.05451 0.90674 0.0
O53 O 0.54746 0.04221 0.03612 0.0
O54 O 0.44516 0.96584 0.83333 0.0
O55 O 0.49244 0.99313 0.81385 0.0
O56 O 0.47629 0.04427 0.83635 0.0
O57 O 0.44489 0.04186 0.93715 0.0
O58 O 0.46749 0.04373 0.1424 0.0
O59 O 0.47504 0.94474 0.98861 0.0
O60 O 0.49695 0.02694 0.18308 0.0
O61 O 0.50443 0.9738 0.09313 0.0
C62 C 0.40448 0.95817 0.07449 0.0
C63 C 0.55641 0.0577 0.9677 0.0
C64 C 0.45626 0.0493 0.86182 0.0
C65 C 0.46689 0.9787 0.78213 0.0
C66 C 0.48288 0.04027 0.19951 0.0
C67 C 0.49285 0.94976 0.05055 0.0
O68 O 0.41421 0.98574 0.07588 0.0
O69 O 0.72494 0.91368 0.31205 0.0
Zn70 Zn 0.70422 0.86962 0.29801 0.0
O71 O 0.66275 0.85239 0.32291 0.0
Zn72 Zn 0.65079 0.82695 0.42155 0.0
Zn73 Zn 0.65571 0.88362 0.35459 0.0
Zn74 Zn 0.63796 0.82962 0.23029 0.0
O75 O 0.62639 0.78428 0.39081 0.0
O76 O 0.61814 0.7862 0.25142 0.0
O77 O 0.72265 0.85519 0.38488 0.0
O78 O 0.68655 0.83276 0.48116 0.0
O79 O 0.62921 0.83809 0.50432 0.0
O80 O 0.65644 0.88547 0.48323 0.0
O81 O 0.61793 0.87628 0.30432 0.0
O82 O 0.70987 0.86191 0.17333 0.0
O83 O 0.60719 0.8407 0.20833 0.0
O84 O 0.66337 0.83781 0.12867 0.0
C85 C 0.71581 0.93191 0.31581 0.0
C86 C 0.61528 0.7715 0.31948 0.0
C87 C 0.64365 0.86392 0.53473 0.0
C88 C 0.71312 0.84302 0.45835 0.0
C89 C 0.60157 0.85903 0.24498 0.0
C90 C 0.69074 0.84946 0.11405 0.0
O91 O 0.68856 0.92319 0.32076 0.0
O92 O 0.11604 0.85259 0.4425 0.0
Zn93 Zn 0.15924 0.86918 0.42088 0.0
O94 O 0.17228 0.84689 0.4843 0.0
Zn95 Zn 0.2004 0.86991 0.56832 0.0
Zn96 Zn 0.14053 0.81027 0.52045 0.0
Zn97 Zn 0.19539 0.83871 0.40973 0.0
O98 O 0.24144 0.88206 0.52552 0.0
O99 O 0.22875 0.83905 0.46908 0.0
O100 O 0.18006 0.9107 0.46485 0.0
O101 O 0.19857 0.90673 0.59036 0.0
O102 O 0.19108 0.8435 0.66966 0.0
O103 O 0.15082 0.80077 0.63639 0.0
O104 O 0.13107 0.77906 0.42827 0.0
O105 O 0.1674 0.86548 0.29585 0.0
O106 O 0.17133 0.80131 0.348 0.0
O107 O 0.21048 0.87009 0.32188 0.0
C108 C 0.09841 0.83206 0.49275 0.0
C109 C 0.24863 0.86422 0.49384 0.0
C110 C 0.17196 0.81691 0.68704 0.0
C111 C 0.19227 0.92134 0.53748 0.0
C112 C 0.14589 0.77965 0.36213 0.0
C113 C 0.19122 0.86766 0.26833 0.0
O114 O 0.10565 0.81524 0.53107 0.0
O115 O 0.16269 0.32562 0.36124 0.0
Zn116 Zn 0.14412 0.35119 0.35601 0.0
O117 O 0.17259 0.39263 0.37892 0.0
Zn118 Zn 0.15643 0.40915 0.45932 0.0
Zn119 Zn 0.20712 0.3955 0.42709 0.0
Zn120 Zn 0.18492 0.41574 0.27681 0.0
O121 O 0.15263 0.44222 0.4049 0.0
O122 O 0.17873 0.44969 0.28509 0.0
O123 O 0.11143 0.33626 0.44314 0.0
O124 O 0.11776 0.37702 0.50651 0.0
O125 O 0.18137 0.42323 0.56553 0.0
O126 O 0.20428 0.39788 0.55307 0.0
O127 O 0.24457 0.42676 0.37464 0.0
O128 O 0.12813 0.34666 0.23622 0.0
O129 O 0.22747 0.43136 0.24825 0.0
O130 O 0.15924 0.39094 0.18249 0.0
C131 C 0.18879 0.33272 0.38151 0.0
C132 C 0.1645 0.45686 0.33622 0.0
C133 C 0.1933 0.40983 0.59961 0.0
C134 C 0.10355 0.34916 0.49765 0.0
C135 C 0.2488 0.43616 0.29716 0.0
C136 C 0.13739 0.36508 0.17446 0.0
O137 O 0.20714 0.35863 0.4058 0.0
O138 O 0.41506 0.25187 0.52603 0.0
Zn139 Zn 0.38506 0.21342 0.47384 0.0
O140 O 0.34768 0.20576 0.51299 0.0
Zn141 Zn 0.33905 0.18469 0.61695 0.0
Zn142 Zn 0.35354 0.24455 0.52427 0.0
Zn143 Zn 0.31709 0.18397 0.43338 0.0
O144 O 0.29865 0.14954 0.61523 0.0
O145 O 0.29232 0.14202 0.47348 0.0
O146 O 0.39304 0.18195 0.5113 0.0
O147 O 0.36573 0.168 0.6304 0.0
O148 O 0.34508 0.21229 0.71224 0.0
O149 O 0.35504 0.25428 0.64802 0.0
O150 O 0.32109 0.24702 0.46938 0.0
O151 O 0.38453 0.21692 0.34729 0.0
O152 O 0.29106 0.20184 0.42121 0.0
O153 O 0.33663 0.1894 0.31936 0.0
C154 C 0.4149 0.27581 0.51708 0.0
C155 C 0.2852 0.13298 0.55116 0.0
C156 C 0.35141 0.23903 0.71504 0.0
C157 C 0.38452 0.16698 0.58068 0.0
C158 C 0.29702 0.22816 0.43475 0.0
C159 C 0.36317 0.20549 0.29452 0.0
O160 O 0.39292 0.27553 0.4825 0.0
O161 O 0.7812 0.17432 0.79215 0.0
Zn162 Zn 0.82198 0.19307 0.74685 0.0
O163 O 0.84122 0.17218 0.7862 0.0
Zn164 Zn 0.86656 0.1926 0.87921 0.0
Zn165 Zn 0.81128 0.13262 0.81519 0.0
Zn166 Zn 0.86534 0.17274 0.69181 0.0
O167 O 0.90937 0.21125 0.84608 0.0
O168 O 0.90781 0.19059 0.71993 0.0
O169 O 0.84267 0.23454 0.79396 0.0
O170 O 0.86052 0.22576 0.91351 0.0
O171 O 0.8565 0.16462 0.97684 0.0
O172 O 0.82015 0.12136 0.93116 0.0
O173 O 0.80812 0.10586 0.71659 0.0
O174 O 0.81825 0.18773 0.61773 0.0
O175 O 0.84836 0.1329 0.63767 0.0
O176 O 0.86395 0.19881 0.60191 0.0
C177 C 0.76386 0.14896 0.82257 0.0
C178 C 0.92235 0.20773 0.78156 0.0
C179 C 0.8383 0.13743 0.98928 0.0
C180 C 0.85373 0.24193 0.8696 0.0
C181 C 0.82459 0.10895 0.65199 0.0
C182 C 0.83924 0.19143 0.56891 0.0
O183 O 0.772 0.1301 0.83242 0.0
O184 O 0.80743 0.61477 0.62409 0.0
Zn185 Zn 0.78831 0.63912 0.64262 0.0
O186 O 0.81691 0.6787 0.67451 0.0
Zn187 Zn 0.80547 0.69182 0.77571 0.0
Zn188 Zn 0.85189 0.67891 0.70788 0.0
Zn189 Zn 0.82599 0.70619 0.58516 0.0
O190 O 0.79582 0.72348 0.75037 0.0
O191 O 0.81273 0.73421 0.61604 0.0
O192 O 0.76046 0.62038 0.7425 0.0
O193 O 0.77262 0.65698 0.83623 0.0
O194 O 0.83964 0.70763 0.85464 0.0
O195 O 0.8484 0.67158 0.83556 0.0
O196 O 0.88697 0.71676 0.67479 0.0
O197 O 0.77066 0.63886 0.52646 0.0
O198 O 0.86955 0.73039 0.56458 0.0
O199 O 0.80376 0.68396 0.48196 0.0
C200 C 0.83422 0.62163 0.62355 0.0
C201 C 0.80127 0.73888 0.68215 0.0
C202 C 0.8436 0.68769 0.88639 0.0
C203 C 0.75757 0.6299 0.81573 0.0
C204 C 0.89089 0.73368 0.61115 0.0
C205 C 0.78169 0.65856 0.46779 0.0
O206 O 0.8544 0.64652 0.64975 0.0
H207 H 0.02841 0.57013 0.63024 0.0
H208 H 0.96116 0.48082 0.69361 0.0
H209 H 0.93335 0.47921 0.56541 0.0
H210 H 0.97919 0.59334 0.52926 0.0
H211 H 0.00503 0.61353 0.44442 0.0
H212 H 0.01799 0.61027 0.54926 0.0
H213 H 0.04743 0.58804 0.47968 0.0
H214 H 0.03544 0.59254 0.37529 0.0
H215 H 0.02884 0.55688 0.40834 0.0
H216 H 0.91468 0.48442 0.42715 0.0
H217 H 0.91297 0.49171 0.27051 0.0
H218 H 0.99171 0.57675 0.28963 0.0
C219 C 0.00778 0.55033 0.61713 0.0
C220 C -0.00308 0.5258 0.67277 0.0
C221 C 0.97007 0.50003 0.65243 0.0
C222 C 0.95375 0.499 0.58035 0.0
C223 C 0.96462 0.52373 0.52807 0.0
C224 C 0.99137 0.54865 0.54397 0.0
C225 C -4e-05 0.57038 0.47031 0.0
C226 C 0.00057 0.59855 0.50013 0.0
C227 C 0.02965 0.57733 0.43105 0.0
C228 C 0.97469 0.55292 0.40863 0.0
C229 C 0.95388 0.52664 0.44527 0.0
C230 C 0.93034 0.50516 0.3981 0.0
C231 C 0.92928 0.50958 0.30942 0.0
C232 C 0.95169 0.53511 0.26954 0.0
C233 C 0.97365 0.55773 0.32017 0.0
H234 H 0.49538 0.50958 0.75152 0.0
H235 H 0.55475 0.47844 0.82166 0.0
H236 H 0.54062 0.44775 0.69109 0.0
H237 H 0.43814 0.44201 0.64555 0.0
H238 H 0.43301 0.46212 0.5601 0.0
H239 H 0.44406 0.47826 0.66612 0.0
H240 H 0.48973 0.52362 0.60108 0.0
H241 H 0.47802 0.50799 0.49541 0.0
H242 H 0.51424 0.51807 0.53253 0.0
H243 H 0.52575 0.42589 0.54663 0.0
H244 H 0.51778 0.4219 0.38871 0.0
H245 H 0.4665 0.46479 0.41185 0.0
C246 C 0.50527 0.49618 0.73942 0.0
C247 C 0.52611 0.49643 0.79669 0.0
C248 C 0.5389 0.47888 0.77831 0.0
C249 C 0.53061 0.4609 0.7051 0.0
C250 C 0.50966 0.46079 0.65057 0.0
C251 C 0.49753 0.47835 0.66597 0.0
C252 C 0.47894 0.47762 0.59087 0.0
C253 C 0.44662 0.46419 0.61729 0.0
C254 C 0.49097 0.50864 0.55271 0.0
C255 C 0.48328 0.4576 0.52978 0.0
C256 C 0.50058 0.44761 0.56621 0.0
C257 C 0.51152 0.4328 0.51782 0.0
C258 C 0.50661 0.43023 0.42848 0.0
C259 C 0.4908 0.44223 0.38987 0.0
C260 C 0.47743 0.45426 0.44149 0.0
H261 H 0.50859 0.00512 0.6594 0.0
H262 H 0.4164 0.97293 0.71017 0.0
H263 H 0.41319 0.99587 0.57409 0.0
H264 H 0.52472 0.07532 0.56717 0.0
H265 H 0.55009 0.07505 0.48931 0.0
H266 H 0.54529 0.05745 0.5927 0.0
H267 H 0.53206 0.00808 0.51754 0.0
H268 H 0.53808 0.02593 0.4147 0.0
H269 H 0.50351 0.99326 0.43712 0.0
H270 H 0.41997 0.01995 0.42837 0.0
H271 H 0.43335 0.03404 0.27584 0.0
H272 H 0.52184 0.05307 0.32821 0.0
C273 C 0.48763 0.00274 0.64197 0.0
C274 C 0.46276 0.98721 0.69508 0.0
C275 C 0.4357 0.98449 0.66979 0.0
C276 C 0.43382 0.99792 0.59362 0.0
C277 C 0.45924 0.01418 0.54471 0.0
C278 C 0.4855 0.01625 0.56761 0.0
C279 C 0.50923 0.03301 0.50181 0.0
C280 C 0.53378 0.06193 0.54006 0.0
C281 C 0.52139 0.01393 0.46563 0.0
C282 C 0.49187 0.03873 0.43525 0.0
C283 C 0.46329 0.02852 0.46206 0.0
C284 C 0.44236 0.02846 0.40716 0.0
C285 C 0.45028 0.03687 0.32084 0.0
C286 C 0.47869 0.04469 0.29094 0.0
C287 C 0.50015 0.04759 0.35019 0.0
H288 H 0.62723 0.82159 0.65829 0.0
H289 H 0.68841 0.91392 0.60813 0.0
H290 H 0.71532 0.91666 0.74106 0.0
H291 H 0.62304 0.82943 0.88296 0.0
H292 H 0.6194 0.79426 0.90707 0.0
H293 H 0.60711 0.80004 0.80483 0.0
H294 H 0.64086 0.78408 0.72666 0.0
H295 H 0.65305 0.77884 0.8304 0.0
H296 H 0.6794 0.8028 0.75191 0.0
H297 H 0.73384 0.91013 0.8826 0.0
H298 H 0.73514 0.89771 0.03575 0.0
H299 H 0.66364 0.80937 0.98913 0.0
C300 C 0.6462 0.84247 0.67529 0.0
C301 C 0.65578 0.86744 0.62244 0.0
C302 C 0.68056 0.89442 0.64765 0.0
C303 C 0.69635 0.89609 0.72214 0.0
C304 C 0.68713 0.87061 0.77032 0.0
C305 C 0.66226 0.84448 0.74882 0.0
C306 C 0.65497 0.8211 0.81606 0.0
C307 C 0.62435 0.81063 0.85507 0.0
C308 C 0.65721 0.79519 0.77894 0.0
C309 C 0.67915 0.83843 0.8803 0.0
C310 C 0.69797 0.86675 0.8519 0.0
C311 C 0.71967 0.88789 0.90507 0.0
C312 C 0.72054 0.88058 0.99167 0.0
C313 C 0.69952 0.8526 0.0232 0.0
C314 C 0.68023 0.83073 0.9655 0.0
H315 H 0.13085 0.80168 0.80923 0.0
H316 H 0.21677 0.81362 0.75833 0.0
H317 H 0.22741 0.81876 0.9142 0.0
H318 H 0.15209 0.85616 0.93295 0.0
H319 H 0.12329 0.84251 0.0129 0.0
H320 H 0.11591 0.82635 0.90726 0.0
H321 H 0.09827 0.77509 0.97139 0.0
H322 H 0.10478 0.79028 0.07913 0.0
H323 H 0.12146 0.76938 0.0442 0.0
H324 H 0.23533 0.8394 0.05842 0.0
H325 H 0.23679 0.86537 0.19229 0.0
H326 H 0.14635 0.84269 0.15126 0.0
C327 C 0.15089 0.80306 0.83223 0.0
C328 C 0.17282 0.80666 0.77352 0.0
C329 C 0.1996 0.81016 0.80359 0.0
C330 C 0.2058 0.81321 0.89188 0.0
C331 C 0.18496 0.81278 0.94828 0.0
C332 C 0.15758 0.80692 0.92023 0.0
C333 C 0.14168 0.81379 0.98993 0.0
C334 C 0.13277 0.83602 0.95882 0.0
C335 C 0.11497 0.78546 0.0232 0.0
C336 C 0.16547 0.82714 0.05748 0.0
C337 C 0.1899 0.82561 0.03325 0.0
C338 C 0.21595 0.83973 0.07986 0.0
C339 C 0.21673 0.8549 0.15491 0.0
C340 C 0.19166 0.85603 0.18221 0.0
C341 C 0.16585 0.84215 0.13223 0.0
H342 H 0.16907 0.42852 0.72343 0.0
H343 H 0.19586 0.3641 0.67361 0.0
H344 H 0.16917 0.3367 0.80279 0.0
H345 H 0.1804 0.43138 0.94708 0.0
H346 H 0.15007 0.43682 0.97244 0.0
H347 H 0.16815 0.44848 0.86977 0.0
H348 H 0.11755 0.41656 0.79445 0.0
H349 H 0.10002 0.40423 0.8984 0.0
H350 H 0.09641 0.37784 0.81796 0.0
H351 H 0.14201 0.31726 0.93789 0.0
H352 H 0.13184 0.31711 0.09332 0.0
H353 H 0.12326 0.39399 0.05944 0.0
C354 C 0.16947 0.40875 0.74002 0.0
C355 C 0.18425 0.39835 0.68773 0.0
C356 C 0.18467 0.37262 0.71243 0.0
C357 C 0.16896 0.35643 0.78461 0.0
C358 C 0.15317 0.36635 0.8318 0.0
C359 C 0.15419 0.39247 0.81244 0.0
C360 C 0.13931 0.40072 0.88131 0.0
C361 C 0.16076 0.43111 0.91998 0.0
C362 C 0.11168 0.39978 0.84584 0.0
C363 C 0.13138 0.37604 0.94495 0.0
C364 C 0.13814 0.35558 0.91291 0.0
C365 C 0.13614 0.33276 0.96351 0.0
C366 C 0.12996 0.33257 0.05151 0.0
C367 C 0.12684 0.35557 0.08691 0.0
C368 C 0.12502 0.37594 0.03235 0.0
H369 H 0.32201 0.20207 0.18388 0.0
H370 H 0.41571 0.23657 0.20883 0.0
H371 H 0.42378 0.26272 0.06997 0.0
H372 H 0.31579 0.186 0.97086 0.0
H373 H 0.28846 0.19624 0.95048 0.0
H374 H 0.2919 0.18476 0.05643 0.0
H375 H 0.29859 0.23382 0.11768 0.0
H376 H 0.29638 0.24582 0.01027 0.0
H377 H 0.32778 0.26829 0.07713 0.0
H378 H 0.42083 0.27849 0.92289 0.0
H379 H 0.40631 0.27418 0.76997 0.0
H380 H 0.31513 0.23213 0.84477 0.0
C381 C 0.3443 0.21504 0.16035 0.0
C382 C 0.36823 0.21714 0.2065 0.0
C383 C 0.39703 0.23455 0.17381 0.0
C384 C 0.40186 0.24994 0.09619 0.0
C385 C 0.37772 0.24813 0.05382 0.0
C386 C 0.34949 0.23085 0.08452 0.0
C387 C 0.32689 0.22934 0.02239 0.0
C388 C 0.3045 0.19721 -0.00142 0.0
C389 C 0.31152 0.24528 0.05908 0.0
C390 C 0.34663 0.24612 0.94773 0.0
C391 C 0.37603 0.25807 0.96861 0.0
C392 C 0.39808 0.27017 0.90629 0.0
C393 C 0.38971 0.26779 0.81982 0.0
C394 C 0.35973 0.25346 0.79792 0.0
C395 C 0.33814 0.24423 0.86195 0.0
H396 H 0.87873 0.19614 0.4479 0.0
H397 H 0.78525 0.15295 0.49929 0.0
H398 H 0.77575 0.12324 0.36662 0.0
H399 H 0.8756 0.20389 0.22818 0.0
H400 H 0.90533 0.19741 0.20374 0.0
H401 H 0.90364 0.2118 0.30738 0.0
H402 H 0.90583 0.16849 0.38005 0.0
H403 H 0.90624 0.15332 0.27574 0.0
H404 H 0.87847 0.13121 0.35407 0.0
H405 H 0.77643 0.10216 0.22191 0.0
H406 H 0.78641 0.09958 0.0674 0.0
H407 H 0.87947 0.155 0.11407 0.0
C408 C 0.85622 0.18044 0.43136 0.0
C409 C 0.83276 0.17699 0.48359 0.0
C410 C 0.8036 0.15626 0.45958 0.0
C411 C 0.79803 0.13886 0.38535 0.0
C412 C 0.82184 0.14231 0.33659 0.0
C413 C 0.85032 0.16289 0.35826 0.0
C414 C 0.87194 0.16477 0.29094 0.0
C415 C 0.89015 0.19631 0.25543 0.0
C416 C 0.89179 0.15378 0.3274 0.0
C417 C 0.85102 0.14366 0.22437 0.0
C418 C 0.82228 0.12994 0.25331 0.0
C419 C 0.79884 0.11229 0.19906 0.0
C420 C 0.80474 0.11067 0.11139 0.0
C421 C 0.83375 0.1272 0.07935 0.0
C422 C 0.85719 0.14189 0.13764 0.0
H423 H 0.78276 0.69488 0.3442 0.0
H424 H 0.76486 0.60617 0.38779 0.0
H425 H 0.77326 0.60161 0.23291 0.0
H426 H 0.75898 0.6869 0.10176 0.0
H427 H 0.78935 0.72339 0.0855 0.0
H428 H 0.76999 0.71373 0.18725 0.0
H429 H 0.82105 0.7329 0.26005 0.0
H430 H 0.83921 0.73923 0.15751 0.0
H431 H 0.84184 0.71514 0.23496 0.0
H432 H 0.79637 0.61152 0.08604 0.0
H433 H 0.8252 0.63258 0.95249 0.0
H434 H 0.83136 0.71618 0.01126 0.0
C435 C 0.77878 0.67388 0.3198 0.0
C436 C 0.77316 0.65089 0.37711 0.0
C437 C 0.76874 0.62387 0.34431 0.0
C438 C 0.77379 0.62124 0.25656 0.0
C439 C 0.78261 0.64562 0.20323 0.0
C440 C 0.7842 0.6712 0.23313 0.0
C441 C 0.79932 0.69601 0.16884 0.0
C442 C 0.77812 0.70552 0.13384 0.0
C443 C 0.82697 0.72233 0.20772 0.0
C444 C 0.80723 0.68086 0.10017 0.0
C445 C 0.79704 0.65172 0.12002 0.0
C446 C 0.80387 0.63413 0.06889 0.0
C447 C 0.82071 0.64644 -0.00592 0.0
C448 C 0.83063 0.6761 0.97183 0.0
C449 C 0.82404 0.69344 0.02645 0.0
H450 H 0.118 0.46339 0.38069 0.0
H451 H 0.19588 0.50038 0.21957 0.0
H452 H 0.17837 0.52896 0.13951 0.0
H453 H 0.07072 0.44948 0.22255 0.0
H454 H 0.04616 0.45842 0.27836 0.0
H455 H 0.06785 0.44722 0.33882 0.0
H456 H 0.09023 0.49518 0.42904 0.0
H457 H 0.06801 0.50635 0.37015 0.0
H458 H 0.10721 0.5302 0.37471 0.0
H459 H 0.14783 0.54479 0.05757 0.0
H460 H 0.1081 0.54954 0.9886 0.0
H461 H 0.05046 0.50174 0.20302 0.0
C462 C 0.13204 0.47864 0.33156 0.0
C463 C 0.15827 0.47976 0.30652 0.0
C464 C 0.17568 0.49926 0.23992 0.0
C465 C 0.16596 0.51565 0.1941 0.0
C466 C 0.13898 0.51254 0.21639 0.0
C467 C 0.12253 0.49498 0.28482 0.0
C468 C 0.09263 0.49226 0.28836 0.0
C469 C 0.06792 0.45994 0.28156 0.0
C470 C 0.08934 0.50688 0.37043 0.0
C471 C 0.09423 0.50945 0.20844 0.0
C472 C 0.12125 0.5215 0.16853 0.0
C473 C 0.12679 0.53609 0.08937 0.0
C474 C 0.10406 0.53848 0.05031 0.0
C475 C 0.07616 0.52599 0.09016 0.0
C476 C 0.07153 0.51166 0.17069 0.0
H477 H 0.5508 0.6154 0.08814 0.0
H478 H 0.54092 0.57829 0.34506 0.0
H479 H 0.55682 0.6267 0.40945 0.0
H480 H 0.61567 0.68227 0.13261 0.0
H481 H 0.60636 0.70474 0.06748 0.0
H482 H 0.59181 0.66662 0.04064 0.0
H483 H 0.53899 0.65808 0.04784 0.0
H484 H 0.55342 0.69624 0.07463 0.0
H485 H 0.5268 0.66801 0.14449 0.0
H486 H 0.57661 0.67907 0.44676 0.0
H487 H 0.59949 0.73293 0.45441 0.0
H488 H 0.59677 0.73674 0.17418 0.0
C489 C 0.55157 0.6174 0.1579 0.0
C490 C 0.54461 0.59303 0.21144 0.0
C491 C 0.54627 0.59664 0.30254 0.0
C492 C 0.55515 0.62403 0.33994 0.0
C493 C 0.56228 0.64767 0.28553 0.0
C494 C 0.56058 0.64473 0.19655 0.0
C495 C 0.57102 0.67414 0.15313 0.0
C496 C 0.59781 0.68242 0.09507 0.0
C497 C 0.54606 0.67411 0.10202 0.0
C498 C 0.57927 0.69399 0.23166 0.0
C499 C 0.57383 0.67819 0.30731 0.0
C500 C 0.58073 0.69172 0.38807 0.0
C501 C 0.59379 0.72233 0.39171 0.0
C502 C 0.59984 0.73907 0.31499 0.0
C503 C 0.59215 0.72456 0.23407 0.0
H504 H 0.37458 0.97402 0.18749 0.0
H505 H 0.38201 0.89932 0.10203 0.0
H506 H 0.3487 0.86935 0.21913 0.0
H507 H 0.37165 0.95986 0.41667 0.0
H508 H 0.34484 0.97069 0.43862 0.0
H509 H 0.37012 0.98705 0.34981 0.0
H510 H 0.32712 0.97109 0.24219 0.0
H511 H 0.3018 0.95576 0.33097 0.0
H512 H 0.29834 0.93313 0.23903 0.0
H513 H 0.31414 0.84722 0.34231 0.0
H514 H 0.27359 0.83187 0.4465 0.0
H515 H 0.28893 0.92092 0.45299 0.0
C516 C 0.36905 0.9513 0.19279 0.0
C517 C 0.38099 0.93908 0.1355 0.0
C518 C 0.37312 0.90921 0.14489 0.0
C519 C 0.35451 0.89209 0.2119 0.0
C520 C 0.344 0.90514 0.26898 0.0
C521 C 0.35051 0.93387 0.25921 0.0
C522 C 0.33475 0.94201 0.32586 0.0
C523 C 0.35665 0.96634 0.38633 0.0
C524 C 0.31428 0.951 0.28188 0.0
C525 C 0.31767 0.91305 0.37312 0.0
C526 C 0.32387 0.89229 0.34046 0.0
C527 C 0.30925 0.8633 0.36902 0.0
C528 C 0.28638 0.85483 0.42857 0.0
C529 C 0.27822 0.87523 0.45792 0.0
C530 C 0.29508 0.905 0.43322 0.0
H531 H 0.41813 0.069 0.89652 0.0
H532 H 0.47203 0.06361 0.69231 0.0
H533 H 0.45748 0.09103 0.59502 0.0
H534 H 0.35902 0.06158 0.75596 0.0
H535 H 0.35331 0.08713 0.81897 0.0
H536 H 0.36637 0.06522 0.87044 0.0
H537 H 0.41128 0.11256 0.92943 0.0
H538 H 0.39846 0.1346 0.87788 0.0
H539 H 0.43479 0.14115 0.85506 0.0
H540 H 0.44015 0.12232 0.524 0.0
H541 H 0.4196 0.15357 0.48239 0.0
H542 H 0.37668 0.13762 0.73275 0.0
C543 C 0.42665 0.0733 0.83111 0.0
C544 C 0.44634 0.06434 0.80229 0.0
C545 C 0.45706 0.07046 0.71615 0.0
C546 C 0.44886 0.08594 0.66022 0.0
C547 C 0.42986 0.09496 0.69134 0.0
C548 C 0.41871 0.08867 0.77449 0.0
C549 C 0.39946 0.10171 0.79303 0.0
C550 C 0.36765 0.07746 0.81061 0.0
C551 C 0.41175 0.12382 0.86828 0.0
C552 C 0.4021 0.1169 0.708 0.0
C553 C 0.41958 0.11264 0.65001 0.0
C554 C 0.42616 0.12558 0.56846 0.0
C555 C 0.41449 0.14337 0.54562 0.0
C556 C 0.3965 0.14798 0.60426 0.0
C557 C 0.39017 0.13437 0.68619 0.0
H558 H 0.85951 0.29025 0.78465 0.0
H559 H 0.86359 0.25795 0.03924 0.0
H560 H 0.88038 0.30701 0.1008 0.0
H561 H 0.92367 0.35582 0.80109 0.0
H562 H 0.91167 0.37764 0.74362 0.0
H563 H 0.89491 0.33898 0.72167 0.0
H564 H 0.84371 0.33208 0.75636 0.0
H565 H 0.86036 0.37087 0.77805 0.0
H566 H 0.83757 0.34455 0.85876 0.0
H567 H 0.90337 0.36037 0.1312 0.0
H568 H 0.93068 0.41459 0.12784 0.0
H569 H 0.91142 0.41224 0.85415 0.0
C570 C 0.86309 0.29331 0.85372 0.0
C571 C 0.86021 0.27033 0.90713 0.0
C572 C 0.86574 0.27531 -0.00301 0.0
C573 C 0.8751 0.30304 0.03276 0.0
C574 C 0.87864 0.32551 0.97797 0.0
C575 C 0.87261 0.32094 0.89047 0.0
C576 C 0.88119 0.34946 0.84439 0.0
C577 C 0.90423 0.35584 0.77357 0.0
C578 C 0.85408 0.34922 0.80722 0.0
C579 C 0.89409 0.37082 0.91898 0.0
C580 C 0.89199 0.35654 -0.00427 0.0
C581 C 0.90464 0.37183 0.07192 0.0
C582 C 0.92022 0.4026 0.06931 0.0
C583 C 0.92307 0.41763 0.9909 0.0
C584 C 0.90927 0.40142 0.91544 0.0
H585 H 0.72998 0.63897 0.95302 0.0
H586 H 0.74303 0.57265 0.82755 0.0
H587 H 0.71111 0.53624 0.93543 0.0
H588 H 0.71804 0.60726 0.18501 0.0
H589 H 0.69023 0.61689 0.20359 0.0
H590 H 0.72098 0.63941 0.13437 0.0
H591 H 0.68441 0.63299 0.01148 0.0
H592 H 0.65425 0.6104 0.08143 0.0
H593 H 0.65744 0.59636 0.97799 0.0
H594 H 0.67182 0.50531 0.03507 0.0
H595 H 0.62264 0.48102 0.10074 0.0
H596 H 0.63291 0.56589 0.16314 0.0
C597 C 0.7266 0.61693 0.94986 0.0
C598 C 0.73878 0.60853 0.8819 0.0
C599 C 0.73361 0.57945 0.87858 0.0
C600 C 0.71595 0.55875 0.9406 0.0
C601 C 0.70362 0.56742 0.00577 0.0
C602 C 0.70853 0.5958 0.01064 0.0
C603 C 0.68823 0.59794 0.07605 0.0
C604 C 0.70542 0.6165 0.15438 0.0
C605 C 0.67 0.6101 0.03419 0.0
C606 C 0.66951 0.56592 0.1013 0.0
C607 C 0.67976 0.54896 0.06334 0.0
C608 C 0.66399 0.51837 0.06711 0.0
C609 C 0.63612 0.50471 0.10492 0.0
C610 C 0.62428 0.52167 0.13759 0.0
C611 C 0.64194 0.55253 0.14112 0.0
H612 H 0.81654 0.5742 0.72169 0.0
H613 H 0.87176 0.62089 0.5039 0.0
H614 H 0.89592 0.59114 0.51398 0.0
H615 H 0.86977 0.58292 0.84128 0.0
H616 H 0.85228 0.54863 0.89954 0.0
H617 H 0.83047 0.56256 0.85454 0.0
H618 H 0.79984 0.51451 0.76772 0.0
H619 H 0.82119 0.49991 0.81425 0.0
H620 H 0.81807 0.50104 0.69849 0.0
H621 H 0.92181 0.5664 0.56836 0.0
H622 H 0.94948 0.55249 0.66762 0.0
H623 H 0.88188 0.52733 0.86187 0.0
C624 C 0.83237 0.57658 0.67288 0.0
C625 C 0.84178 0.59881 0.61029 0.0
C626 C 0.86383 0.60316 0.55047 0.0
C627 C 0.87756 0.58632 0.55581 0.0
C628 C 0.86928 0.56581 0.62248 0.0
C629 C 0.84707 0.56086 0.68013 0.0
C630 C 0.84731 0.5438 0.75842 0.0
C631 C 0.85016 0.56051 0.84331 0.0
C632 C 0.81998 0.51298 0.75974 0.0
C633 C 0.87457 0.54221 0.73963 0.0
C634 C 0.88602 0.55356 0.6589 0.0
C635 C 0.91266 0.55686 0.63071 0.0
C636 C 0.92826 0.54903 0.68727 0.0
C637 C 0.9175 0.53895 0.77139 0.0
C638 C 0.89018 0.5349 0.79726 0.0
H639 H 0.44676 0.39794 0.87013 0.0
H640 H 0.52626 0.39692 0.93294 0.0
H641 H 0.51632 0.36143 0.81466 0.0
H642 H 0.4028 0.32443 0.81812 0.0
H643 H 0.38481 0.32793 0.72364 0.0
H644 H 0.39716 0.35514 0.80813 0.0
H645 H 0.42979 0.39771 0.70978 0.0
H646 H 0.41613 0.37282 0.61915 0.0
H647 H 0.45503 0.39492 0.63698 0.0
H648 H 0.49726 0.32551 0.69205 0.0
H649 H 0.46923 0.28995 0.57627 0.0
H650 H 0.40396 0.31702 0.58723 0.0
C651 C 0.46168 0.38972 0.85981 0.0
C652 C 0.48687 0.39945 0.91143 0.0
C653 C 0.50658 0.3892 0.89455 0.0
C654 C 0.50125 0.36929 0.82729 0.0
C655 C 0.47647 0.36046 0.7764 0.0
C656 C 0.45708 0.37042 0.79146 0.0
C657 C 0.43242 0.3579 0.7262 0.0
C658 C 0.40252 0.34024 0.77153 0.0
C659 C 0.43342 0.38231 0.66959 0.0
C660 C 0.4404 0.33848 0.67422 0.0
C661 C 0.46607 0.34054 0.70357 0.0
C662 C 0.4773 0.32391 0.66773 0.0
C663 C 0.46137 0.30394 0.6017 0.0
C664 C 0.43472 0.30105 0.57182 0.0
C665 C 0.42462 0.31919 0.60716 0.0
H666 H 0.72337 0.10201 0.91883 0.0
H667 H 0.73616 0.17908 0.77896 0.0
H668 H 0.68561 0.16643 0.81392 0.0
H669 H 0.6508 0.05438 0.85265 0.0
H670 H 0.63847 0.03574 0.95494 0.0
H671 H 0.67639 0.05192 0.92424 0.0
H672 H 0.69182 0.08239 0.0659 0.0
H673 H 0.65386 0.06636 0.09684 0.0
H674 H 0.67689 0.10572 0.09103 0.0
H675 H 0.63279 0.14313 0.84991 0.0
H676 H 0.58072 0.11086 0.88897 0.0
H677 H 0.60234 0.05045 0.01331 0.0
C678 C 0.7156 0.11634 0.89614 0.0
C679 C 0.73372 0.1415 0.84602 0.0
C680 C 0.72275 0.15972 0.81766 0.0
C681 C 0.69407 0.15279 0.83733 0.0
C682 C 0.67676 0.1278 0.88644 0.0
C683 C 0.68709 0.10994 0.91611 0.0
C684 C 0.6635 0.08377 0.96502 0.0
C685 C 0.6569 0.05474 0.92158 0.0
C686 C 0.67204 0.08463 0.06036 0.0
C687 C 0.63808 0.08927 0.95576 0.0
C688 C 0.6463 0.11487 0.91043 0.0
C689 C 0.62617 0.12336 0.88701 0.0
C690 C 0.59671 0.10493 0.90927 0.0
C691 C 0.58781 0.07857 0.95526 0.0
C692 C 0.60883 0.07095 0.98031 0.0
H693 H 0.51996 0.94791 0.19733 0.0
H694 H 0.48393 0.90173 0.95575 0.0
H695 H 0.50165 0.8675 0.99093 0.0
H696 H 0.58413 0.9477 0.18826 0.0
H697 H 0.58664 0.94261 0.30246 0.0
H698 H 0.56671 0.95982 0.2653 0.0
H699 H 0.52038 0.92106 0.34732 0.0
H700 H 0.54025 0.90366 0.38501 0.0
H701 H 0.5063 0.88252 0.32714 0.0
H702 H 0.52972 0.84345 0.04254 0.0
H703 H 0.56583 0.832 0.10525 0.0
H704 H 0.58219 0.89387 0.31335 0.0
C705 C 0.51527 0.93027 0.15242 0.0
C706 C 0.50072 0.9275 0.07373 0.0
C707 C 0.49501 0.90415 0.01665 0.0
C708 C 0.50487 0.88456 0.03623 0.0
C709 C 0.51985 0.88842 0.11364 0.0
C710 C 0.52474 0.91056 0.17115 0.0
C711 C 0.54378 0.91203 0.24573 0.0
C712 C 0.57197 0.94232 0.25061 0.0
C713 C 0.52664 0.90434 0.33136 0.0
C714 C 0.55018 0.88825 0.21899 0.0
C715 C 0.53579 0.87445 0.1436 0.0
C716 C 0.54062 0.85365 0.10255 0.0
C717 C 0.56121 0.84734 0.13854 0.0
C718 C 0.57684 0.86209 0.21413 0.0
C719 C 0.57049 0.88208 0.25585 0.0
H720 H 0.08956 0.73237 0.35557 0.0
H721 H 0.17259 0.77463 0.21694 0.0
H722 H 0.15052 0.7383 0.10024 0.0
H723 H 0.06939 0.65835 0.30081 0.0
H724 H 0.03097 0.64619 0.28948 0.0
H725 H 0.05329 0.67594 0.36177 0.0
H726 H 0.03739 0.70896 0.28199 0.0
H727 H 0.01541 0.67942 0.20837 0.0
H728 H 0.04327 0.71448 0.16704 0.0
H729 H 0.12045 0.69691 0.00079 0.0
H730 H 0.08474 0.65046 0.92993 0.0
H731 H 0.02073 0.63593 0.12914 0.0
C732 C 0.10314 0.73389 0.30094 0.0
C733 C 0.13285 0.7563 0.29586 0.0
C734 C 0.14982 0.75759 0.22286 0.0
C735 C 0.13747 0.73713 0.15582 0.0
C736 C 0.10804 0.71569 0.16208 0.0
C737 C 0.09111 0.71373 0.23292 0.0
C738 C 0.06022 0.68792 0.22446 0.0
C739 C 0.05306 0.6658 0.29848 0.0
C740 C 0.03775 0.69833 0.2202 0.0
C741 C 0.06267 0.67549 0.13848 0.0
C742 C 0.09038 0.69202 0.10332 0.0
C743 C 0.09855 0.68391 0.02704 0.0
C744 C 0.07815 0.65759 0.98717 0.0
C745 C 0.04993 0.63989 0.02351 0.0
C746 C 0.04188 0.64943 0.09871 0.0
H747 H 0.40215 0.44678 0.21751 0.0
H748 H 0.41855 0.50897 0.01135 0.0
H749 H 0.37119 0.50626 0.04351 0.0
H750 H 0.32513 0.40178 0.18736 0.0
H751 H 0.31682 0.39605 0.30105 0.0
H752 H 0.35171 0.40245 0.26183 0.0
H753 H 0.37878 0.44637 0.36658 0.0
H754 H 0.34407 0.43995 0.40773 0.0
H755 H 0.37033 0.47557 0.36557 0.0
H756 H 0.32052 0.49432 0.09459 0.0
H757 H 0.27205 0.47595 0.16455 0.0
H758 H 0.29187 0.42511 0.34378 0.0
C759 C 0.39568 0.45965 0.17858 0.0
C760 C 0.41375 0.47783 0.11133 0.0
C761 C 0.40486 0.49481 0.06297 0.0
C762 C 0.37808 0.49343 0.08082 0.0
C763 C 0.36085 0.47539 0.14816 0.0
C764 C 0.36946 0.45901 0.19664 0.0
C765 C 0.34741 0.44176 0.26647 0.0
C766 C 0.33453 0.40854 0.25331 0.0
C767 C 0.36097 0.45151 0.35693 0.0
C768 C 0.32483 0.45074 0.24941 0.0
C769 C 0.33276 0.46994 0.1805 0.0
C770 C 0.31429 0.47964 0.14946 0.0
C771 C 0.28688 0.46915 0.18946 0.0
C772 C 0.27856 0.4496 0.26039 0.0
C773 C 0.298 0.44067 0.29117 0.0
H774 H 0.81211 0.77622 0.54808 0.0
H775 H 0.77223 0.75343 0.80299 0.0
H776 H 0.75417 0.78819 0.78338 0.0
H777 H 0.82935 0.85542 0.54594 0.0
H778 H 0.82001 0.85256 0.43295 0.0
H779 H 0.83609 0.83204 0.47579 0.0
H780 H 0.79229 0.78382 0.41675 0.0
H781 H 0.77616 0.80406 0.37409 0.0
H782 H 0.75551 0.77405 0.4477 0.0
H783 H 0.73279 0.81722 0.72577 0.0
H784 H 0.70763 0.83569 0.63281 0.0
H785 H 0.76097 0.83888 0.41484 0.0
C786 C 0.80032 0.77912 0.60104 0.0
C787 C 0.79352 0.76211 0.67702 0.0
C788 C 0.77776 0.76632 0.74428 0.0
C789 C 0.76763 0.78618 0.73395 0.0
C790 C 0.77383 0.80183 0.65664 0.0
C791 C 0.79002 0.79864 0.59154 0.0
C792 C 0.7899 0.81422 0.50972 0.0
C793 C 0.82067 0.8401 0.48998 0.0
C794 C 0.77772 0.79275 0.43264 0.0
C795 C 0.76933 0.8249 0.53672 0.0
C796 C 0.76105 0.81839 0.62254 0.0
C797 C 0.73951 0.82293 0.65913 0.0
C798 C 0.72521 0.83319 0.60577 0.0
C799 C 0.73234 0.83843 0.51682 0.0
C800 C 0.75552 0.83549 0.48298 0.0
H801 H 0.25534 0.08926 0.43216 0.0
H802 H 0.26757 0.10577 0.70842 0.0
H803 H 0.23944 0.05257 0.73598 0.0
H804 H 0.18004 0.02196 0.44657 0.0
H805 H 0.18808 0.00461 0.35852 0.0
H806 H 0.20456 0.04403 0.36126 0.0
H807 H 0.25604 0.04938 0.34924 0.0
H808 H 0.23984 0.01012 0.34764 0.0
H809 H 0.26702 0.03157 0.42791 0.0
H810 H 0.21838 -0.00169 0.7326 0.0
H811 H 0.20186 0.94641 0.6982 0.0
H812 H 0.20172 0.96506 0.42512 0.0
C813 C 0.25129 0.08177 0.49858 0.0
C814 C 0.26372 0.10173 0.56799 0.0
C815 C 0.25826 0.09095 0.654 0.0
C816 C 0.24225 0.06073 0.67045 0.0
C817 C 0.23144 0.0416 0.60036 0.0
C818 C 0.23524 0.05168 0.51616 0.0
C819 C 0.2237 0.02655 0.45216 0.0
C820 C 0.19753 0.02415 0.40166 0.0
C821 C 0.24811 0.0296 0.39069 0.0
C822 C 0.21411 0.00095 0.51339 0.0
C823 C 0.21852 0.01004 0.59864 0.0
C824 C 0.21409 0.99077 0.66627 0.0
C825 C 0.20494 0.96142 0.64612 0.0
C826 C 0.20024 0.95173 0.55916 0.0
C827 C 0.2045 0.97172 0.49234 0.0
H828 H 0.95703 0.20706 0.65051 0.0
H829 H 0.95904 0.25581 0.87976 0.0
H830 H 0.00758 0.29647 0.83616 0.0
H831 H 0.03799 0.23459 0.64128 0.0
H832 H 0.03786 0.23564 0.52482 0.0
H833 H 0.00589 0.20853 0.58229 0.0
H834 H 0.97452 0.22636 0.50281 0.0
H835 H 0.0064 0.25399 0.44682 0.0
H836 H 0.98443 0.26444 0.51061 0.0
H837 H 0.05145 0.33492 0.75509 0.0
H838 H 0.09108 0.36586 0.65249 0.0
H839 H 0.06045 0.29168 0.47718 0.0
C840 C 0.96808 0.2258 0.69332 0.0
C841 C 0.95414 0.22817 0.76863 0.0
C842 C 0.96929 0.25331 0.82211 0.0
C843 C -0.00316 0.27663 0.79762 0.0
C844 C 0.00912 0.27428 0.72025 0.0
C845 C -0.00445 0.2492 0.66994 0.0
C846 C 0.01229 0.25295 0.58676 0.0
C847 C 0.02422 0.23167 0.58364 0.0
C848 C 0.99327 0.24922 0.50711 0.0
C849 C 0.0368 0.28443 0.59665 0.0
C850 C 0.03466 0.29634 0.67414 0.0
C851 C 0.05374 0.32569 0.69502 0.0
C852 C 0.07594 0.34315 0.63589 0.0
C853 C 0.07887 0.33118 0.55684 0.0
C854 C 0.05895 0.30142 0.53734 0.0
H855 H 0.30501 0.28289 0.45162 0.0
H856 H 0.24074 0.19461 0.36987 0.0
H857 H 0.20514 0.21141 0.34223 0.0
H858 H 0.25603 0.29756 0.56493 0.0
H859 H 0.27462 0.33581 0.53491 0.0
H860 H 0.29486 0.31678 0.54285 0.0
H861 H 0.31314 0.33121 0.38459 0.0
H862 H 0.29319 0.35055 0.37768 0.0
H863 H 0.28676 0.32254 0.29934 0.0
H864 H 0.17613 0.23902 0.32973 0.0
H865 H 0.15767 0.27414 0.33211 0.0
H866 H 0.24268 0.34243 0.42386 0.0
C867 C 0.28356 0.26693 0.42728 0.0
C868 C 0.27565 0.23743 0.41296 0.0
C869 C 0.24728 0.2174 0.38118 0.0
C870 C 0.22695 0.22673 0.36539 0.0
C871 C 0.23551 0.25606 0.38162 0.0
C872 C 0.26327 0.27574 0.41163 0.0
C873 C 0.26732 0.30577 0.42711 0.0
C874 C 0.27356 0.31446 0.52314 0.0
C875 C 0.29154 0.32885 0.36858 0.0
C876 C 0.2375 0.30016 0.40101 0.0
C877 C 0.21925 0.27148 0.3749 0.0
C878 C 0.19035 0.26155 0.34969 0.0
C879 C 0.18006 0.28159 0.35132 0.0
C880 C 0.19871 0.31104 0.37806 0.0
C881 C 0.22774 0.32016 0.40282 0.0
H882 H 0.7047 0.97156 0.39379 0.0
H883 H 0.7751 0.96193 0.28349 0.0
H884 H 0.81137 0.01013 0.34477 0.0
H885 H 0.74209 0.05455 0.38176 0.0
H886 H 0.72657 0.05572 0.4846 0.0
H887 H 0.70658 0.02479 0.41336 0.0
H888 H 0.70269 0.98987 0.53729 0.0
H889 H 0.72334 0.02059 0.60796 0.0
H890 H 0.73574 0.99487 0.58726 0.0
H891 H 0.83991 0.0563 0.43444 0.0
H892 H 0.85787 0.09527 0.54642 0.0
H893 H 0.76818 0.07083 0.60753 0.0
C894 C 0.72767 0.98013 0.37906 0.0
C895 C 0.73708 0.96319 0.33284 0.0
C896 C 0.76742 0.97473 0.31788 0.0
C897 C 0.78816 0.00209 0.35242 0.0
C898 C 0.77814 0.01747 0.40189 0.0
C899 C 0.74854 0.00694 0.41459 0.0
C900 C 0.74332 0.0252 0.48011 0.0
C901 C 0.72878 0.041 0.43738 0.0
C902 C 0.72522 0.00651 0.55769 0.0
C903 C 0.77452 0.04673 0.50567 0.0
C904 C 0.79439 0.04262 0.45805 0.0
C905 C 0.82453 0.05976 0.47175 0.0
C906 C 0.83451 0.08164 0.53575 0.0
C907 C 0.81433 0.08548 0.58666 0.0
C908 C 0.78404 0.06789 0.57081 0.0
H909 H 0.94089 0.74577 0.69556 0.0
H910 H 0.90919 0.77271 0.47532 0.0
H911 H 0.96039 0.80705 0.43132 0.0
H912 H 0.00796 0.81795 0.7374 0.0
H913 H 0.02867 0.80039 0.76498 0.0
H914 H 0.98986 0.78212 0.78698 0.0
H915 H 0.98244 0.73689 0.69892 0.0
H916 H 0.02105 0.75499 0.67641 0.0
H917 H 0.99515 0.74181 0.58855 0.0
H918 H 0.01489 0.83362 0.40186 0.0
H919 H 0.06733 0.84857 0.3875 0.0
H920 H 0.06183 0.80285 0.62605 0.0
C921 C 0.94458 0.75934 0.6392 0.0
C922 C 0.92107 0.75657 0.58897 0.0
C923 C 0.92693 0.77454 0.51503 0.0
C924 C 0.95591 0.7942 0.48971 0.0
C925 C 0.97861 0.79573 0.53959 0.0
C926 C 0.97318 0.77885 0.61307 0.0
C927 C 0.00098 0.78199 0.65053 0.0
C928 C 0.00723 0.79648 0.74029 0.0
C929 C -0.00018 0.75216 0.65369 0.0
C930 C 0.02283 0.80225 0.58448 0.0
C931 C 0.00975 0.81054 0.52194 0.0
C932 C 0.02545 0.82767 0.45121 0.0
C933 C 0.05517 0.83602 0.44354 0.0
C934 C 0.06848 0.82672 0.50553 0.0
C935 C 0.0522 0.81025 0.57763 0.0
loop_
_geom_bond_atom_site_label_1
_geom_bond_atom_site_label_2
_geom_bond_distance
_geom_bond_site_symmetry_2
_ccdc_geom_bond_type
O0 Zn1 1.953 . S
O0 C16 1.225 1_556 S
Zn1 O0 1.953 . S
Zn1 O2 1.949 1_556 S
Zn1 O8 1.919 . S
Zn1 O13 1.924 1_556 S
O2 Zn1 1.949 1_554 S
O2 Zn3 1.923 1_454 S
O2 Zn4 1.950 . S
O2 Zn5 1.945 . S
Zn3 O2 1.923 1_656 S
Zn3 O6 1.933 . S
Zn3 O9 1.941 . S
Zn3 O10 1.965 . S
Zn4 O2 1.950 . S
Zn4 O11 1.938 1_455 S
Zn4 O12 1.906 1_455 S
Zn4 O22 1.953 . S
Zn5 O2 1.945 . S
Zn5 O7 1.932 1_455 S
Zn5 O14 1.977 1_455 S
Zn5 O15 1.910 . S
O6 Zn3 1.933 . S
O6 C17 1.226 . S
O7 Zn5 1.932 1_655 S
O7 C17 1.307 1_554 S
O8 Zn1 1.919 . S
O8 C19 1.253 . S
O9 Zn3 1.941 . S
O9 C19 1.283 1_655 S
O10 Zn3 1.965 . S
O10 C18 1.303 . S
O11 Zn4 1.938 1_655 S
O11 C18 1.247 1_554 S
O12 Zn4 1.906 1_655 S
O12 C20 1.304 . S
O13 Zn1 1.924 1_554 S
O13 C21 1.311 . S
O14 Zn5 1.977 1_655 S
O14 C20 1.272 . S
O15 Zn5 1.910 . S
O15 C21 1.231 . S
C16 O0 1.225 1_554 S
C16 O22 1.298 . S
C17 O6 1.226 . S
C17 O7 1.307 1_556 S
C18 O10 1.303 . S
C18 O11 1.247 1_556 S
C19 O8 1.253 . S
C19 O9 1.283 1_455 S
C20 O12 1.304 . S
C20 O14 1.272 . S
C21 O13 1.311 . S
C21 O15 1.231 . S
O22 Zn4 1.953 . S
O22 C16 1.298 . S
O23 Zn24 1.953 . S
O23 C39 1.225 1_556 S
Zn24 O23 1.953 . S
Zn24 O25 1.949 1_556 S
Zn24 O31 1.919 . S
Zn24 O36 1.924 1_556 S
O25 Zn24 1.949 1_554 S
O25 Zn26 1.923 1_554 S
O25 Zn27 1.950 . S
O25 Zn28 1.945 . S
Zn26 O25 1.923 1_556 S
Zn26 O29 1.933 . S
Zn26 O32 1.941 . S
Zn26 O33 1.965 . S
Zn27 O25 1.950 . S
Zn27 O34 1.938 . S
Zn27 O35 1.906 . S
Zn27 O45 1.953 . S
Zn28 O25 1.945 . S
Zn28 O30 1.932 . S
Zn28 O37 1.977 . S
Zn28 O38 1.910 . S
O29 Zn26 1.933 . S
O29 C40 1.226 . S
O30 Zn28 1.932 . S
O30 C40 1.307 1_554 S
O31 Zn24 1.919 . S
O31 C42 1.253 . S
O32 Zn26 1.941 . S
O32 C42 1.283 . S
O33 Zn26 1.965 . S
O33 C41 1.303 . S
O34 Zn27 1.938 . S
O34 C41 1.247 1_554 S
O35 Zn27 1.906 . S
O35 C43 1.304 . S
O36 Zn24 1.924 1_554 S
O36 C44 1.311 . S
O37 Zn28 1.977 . S
O37 C43 1.272 . S
O38 Zn28 1.910 . S
O38 C44 1.231 . S
C39 O23 1.225 1_554 S
C39 O45 1.298 . S
C40 O29 1.226 . S
C40 O30 1.307 1_556 S
C41 O33 1.303 . S
C41 O34 1.247 1_556 S
C42 O31 1.253 . S
C42 O32 1.283 . S
C43 O35 1.304 . S
C43 O37 1.272 . S
C44 O36 1.311 . S
C44 O38 1.231 . S
O45 Zn27 1.953 . S
O45 C39 1.298 . S
O46 Zn47 1.953 . S
O46 C62 1.225 1_556 S
Zn47 O46 1.953 . S
Zn47 O48 1.949 1_566 S
Zn47 O54 1.919 . S
Zn47 O59 1.924 1_556 S
O48 Zn47 1.949 1_544 S
O48 Zn49 1.923 1_554 S
O48 Zn50 1.950 . S
O48 Zn51 1.945 . S
Zn49 O48 1.923 1_556 S
Zn49 O52 1.933 . S
Zn49 O55 1.941 . S
Zn49 O56 1.965 . S
Zn50 O48 1.950 . S
Zn50 O57 1.938 . S
Zn50 O58 1.906 . S
Zn50 O68 1.953 1_545 S
Zn51 O48 1.945 . S
Zn51 O53 1.932 . S
Zn51 O60 1.977 . S
Zn51 O61 1.910 1_545 S
O52 Zn49 1.933 . S
O52 C63 1.226 . S
O53 Zn51 1.932 . S
O53 C63 1.307 1_554 S
O54 Zn47 1.919 . S
O54 C65 1.253 1_565 S
O55 Zn49 1.941 . S
O55 C65 1.283 . S
O56 Zn49 1.965 . S
O56 C64 1.303 . S
O57 Zn50 1.938 . S
O57 C64 1.247 1_554 S
O58 Zn50 1.906 . S
O58 C66 1.304 . S
O59 Zn47 1.924 1_554 S
O59 C67 1.311 . S
O60 Zn51 1.977 . S
O60 C66 1.272 . S
O61 Zn51 1.910 1_565 S
O61 C67 1.231 . S
C62 O46 1.225 1_554 S
C62 O68 1.298 . S
C63 O52 1.226 . S
C63 O53 1.307 1_556 S
C64 O56 1.303 . S
C64 O57 1.247 1_556 S
C65 O54 1.253 1_545 S
C65 O55 1.283 . S
C66 O58 1.304 . S
C66 O60 1.272 . S
C67 O59 1.311 . S
C67 O61 1.231 . S
O68 Zn50 1.953 1_565 S
O68 C62 1.298 . S
O69 Zn70 1.953 . S
O69 C85 1.225 . S
Zn70 O69 1.953 . S
Zn70 O71 1.949 . S
Zn70 O77 1.919 . S
Zn70 O82 1.924 . S
O71 Zn70 1.949 . S
O71 Zn72 1.923 . S
O71 Zn73 1.950 . S
O71 Zn74 1.945 . S
Zn72 O71 1.923 . S
Zn72 O75 1.933 . S
Zn72 O78 1.941 . S
Zn72 O79 1.965 . S
Zn73 O71 1.950 . S
Zn73 O80 1.938 . S
Zn73 O81 1.906 . S
Zn73 O91 1.953 . S
Zn74 O71 1.945 . S
Zn74 O76 1.932 . S
Zn74 O83 1.977 . S
Zn74 O84 1.910 . S
O75 Zn72 1.933 . S
O75 C86 1.226 . S
O76 Zn74 1.932 . S
O76 C86 1.307 . S
O77 Zn70 1.919 . S
O77 C88 1.253 . S
O78 Zn72 1.941 . S
O78 C88 1.283 . S
O79 Zn72 1.965 . S
O79 C87 1.303 . S
O80 Zn73 1.938 . S
O80 C87 1.247 . S
O81 Zn73 1.906 . S
O81 C89 1.304 . S
O82 Zn70 1.924 . S
O82 C90 1.311 . S
O83 Zn74 1.977 . S
O83 C89 1.272 . S
O84 Zn74 1.910 . S
O84 C90 1.231 . S
C85 O69 1.225 . S
C85 O91 1.298 . S
C86 O75 1.226 . S
C86 O76 1.307 . S
C87 O79 1.303 . S
C87 O80 1.247 . S
C88 O77 1.253 . S
C88 O78 1.283 . S
C89 O81 1.304 . S
C89 O83 1.272 . S
C90 O82 1.311 . S
C90 O84 1.231 . S
O91 Zn73 1.953 . S
O91 C85 1.298 . S
O92 Zn93 1.953 . S
O92 C108 1.225 . S
Zn93 O92 1.953 . S
Zn93 O94 1.949 . S
Zn93 O100 1.919 . S
Zn93 O105 1.924 . S
O94 Zn93 1.949 . S
O94 Zn95 1.923 . S
O94 Zn96 1.950 . S
O94 Zn97 1.945 . S
Zn95 O94 1.923 . S
Zn95 O98 1.933 . S
Zn95 O101 1.941 . S
Zn95 O102 1.965 . S
Zn96 O94 1.950 . S
Zn96 O103 1.938 . S
Zn96 O104 1.906 . S
Zn96 O114 1.953 . S
Zn97 O94 1.945 . S
Zn97 O99 1.932 . S
Zn97 O106 1.977 . S
Zn97 O107 1.910 . S
O98 Zn95 1.933 . S
O98 C109 1.226 . S
O99 Zn97 1.932 . S
O99 C109 1.307 . S
O100 Zn93 1.919 . S
O100 C111 1.253 . S
O101 Zn95 1.941 . S
O101 C111 1.283 . S
O102 Zn95 1.965 . S
O102 C110 1.303 . S
O103 Zn96 1.938 . S
O103 C110 1.247 . S
O104 Zn96 1.906 . S
O104 C112 1.304 . S
O105 Zn93 1.924 . S
O105 C113 1.311 . S
O106 Zn97 1.977 . S
O106 C112 1.272 . S
O107 Zn97 1.910 . S
O107 C113 1.231 . S
C108 O92 1.225 . S
C108 O114 1.298 . S
C109 O98 1.226 . S
C109 O99 1.307 . S
C110 O102 1.303 . S
C110 O103 1.247 . S
C111 O100 1.253 . S
C111 O101 1.283 . S
C112 O104 1.304 . S
C112 O106 1.272 . S
C113 O105 1.311 . S
C113 O107 1.231 . S
O114 Zn96 1.953 . S
O114 C108 1.298 . S
O115 Zn116 1.953 . S
O115 C131 1.225 . S
Zn116 O115 1.953 . S
Zn116 O117 1.949 . S
Zn116 O123 1.919 . S
Zn116 O128 1.924 . S
O117 Zn116 1.949 . S
O117 Zn118 1.923 . S
O117 Zn119 1.950 . S
O117 Zn120 1.945 . S
Zn118 O117 1.923 . S
Zn118 O121 1.933 . S
Zn118 O124 1.941 . S
Zn118 O125 1.965 . S
Zn119 O117 1.950 . S
Zn119 O126 1.938 . S
Zn119 O127 1.906 . S
Zn119 O137 1.953 . S
Zn120 O117 1.945 . S
Zn120 O122 1.932 . S
Zn120 O129 1.977 . S
Zn120 O130 1.910 . S
O121 Zn118 1.933 . S
O121 C132 1.226 . S
O122 Zn120 1.932 . S
O122 C132 1.307 . S
O123 Zn116 1.919 . S
O123 C134 1.253 . S
O124 Zn118 1.941 . S
O124 C134 1.283 . S
O125 Zn118 1.965 . S
O125 C133 1.303 . S
O126 Zn119 1.938 . S
O126 C133 1.247 . S
O127 Zn119 1.906 . S
O127 C135 1.304 . S
O128 Zn116 1.924 . S
O128 C136 1.311 . S
O129 Zn120 1.977 . S
O129 C135 1.272 . S
O130 Zn120 1.910 . S
O130 C136 1.231 . S
C131 O115 1.225 . S
C131 O137 1.298 . S
C132 O121 1.226 . S
C132 O122 1.307 . S
C133 O125 1.303 . S
C133 O126 1.247 . S
C134 O123 1.253 . S
C134 O124 1.283 . S
C135 O127 1.304 . S
C135 O129 1.272 . S
C136 O128 1.311 . S
C136 O130 1.231 . S
O137 Zn119 1.953 . S
O137 C131 1.298 . S
O138 Zn139 1.953 . S
O138 C154 1.225 . S
Zn139 O138 1.953 . S
Zn139 O140 1.949 . S
Zn139 O146 1.919 . S
Zn139 O151 1.924 . S
O140 Zn139 1.949 . S
O140 Zn141 1.923 . S
O140 Zn142 1.950 . S
O140 Zn143 1.945 . S
Zn141 O140 1.923 . S
Zn141 O144 1.933 . S
Zn141 O147 1.941 . S
Zn141 O148 1.965 . S
Zn142 O140 1.950 . S
Zn142 O149 1.938 . S
Zn142 O150 1.906 . S
Zn142 O160 1.953 . S
Zn143 O140 1.945 . S
Zn143 O145 1.932 . S
Zn143 O152 1.977 . S
Zn143 O153 1.910 . S
O144 Zn141 1.933 . S
O144 C155 1.226 . S
O145 Zn143 1.932 . S
O145 C155 1.307 . S
O146 Zn139 1.919 . S
O146 C157 1.253 . S
O147 Zn141 1.941 . S
O147 C157 1.283 . S
O148 Zn141 1.965 . S
O148 C156 1.303 . S
O149 Zn142 1.938 . S
O149 C156 1.247 . S
O150 Zn142 1.906 . S
O150 C158 1.304 . S
O151 Zn139 1.924 . S
O151 C159 1.311 . S
O152 Zn143 1.977 . S
O152 C158 1.272 . S
O153 Zn143 1.910 . S
O153 C159 1.231 . S
C154 O138 1.225 . S
C154 O160 1.298 . S
C155 O144 1.226 . S
C155 O145 1.307 . S
C156 O148 1.303 . S
C156 O149 1.247 . S
C157 O146 1.253 . S
C157 O147 1.283 . S
C158 O150 1.304 . S
C158 O152 1.272 . S
C159 O151 1.311 . S
C159 O153 1.231 . S
O160 Zn142 1.953 . S
O160 C154 1.298 . S
O161 Zn162 1.953 . S
O161 C177 1.225 . S
Zn162 O161 1.953 . S
Zn162 O163 1.949 . S
Zn162 O169 1.919 . S
Zn162 O174 1.924 . S
O163 Zn162 1.949 . S
O163 Zn164 1.923 . S
O163 Zn165 1.950 . S
O163 Zn166 1.945 . S
Zn164 O163 1.923 . S
Zn164 O167 1.933 . S
Zn164 O170 1.941 . S
Zn164 O171 1.965 . S
Zn165 O163 1.950 . S
Zn165 O172 1.938 . S
Zn165 O173 1.906 . S
Zn165 O183 1.953 . S
Zn166 O163 1.945 . S
Zn166 O168 1.932 . S
Zn166 O175 1.977 . S
Zn166 O176 1.910 . S
O167 Zn164 1.933 . S
O167 C178 1.226 . S
O168 Zn166 1.932 . S
O168 C178 1.307 . S
O169 Zn162 1.919 . S
O169 C180 1.253 . S
O170 Zn164 1.941 . S
O170 C180 1.283 . S
O171 Zn164 1.965 . S
O171 C179 1.303 . S
O172 Zn165 1.938 . S
O172 C179 1.247 . S
O173 Zn165 1.906 . S
O173 C181 1.304 . S
O174 Zn162 1.924 . S
O174 C182 1.311 . S
O175 Zn166 1.977 . S
O175 C181 1.272 . S
O176 Zn166 1.910 . S
O176 C182 1.231 . S
C177 O161 1.225 . S
C177 O183 1.298 . S
C178 O167 1.226 . S
C178 O168 1.307 . S
C179 O171 1.303 . S
C179 O172 1.247 . S
C180 O169 1.253 . S
C180 O170 1.283 . S
C181 O173 1.304 . S
C181 O175 1.272 . S
C182 O174 1.311 . S
C182 O176 1.231 . S
O183 Zn165 1.953 . S
O183 C177 1.298 . S
O184 Zn185 1.953 . S
O184 C200 1.225 . S
Zn185 O184 1.953 . S
Zn185 O186 1.949 . S
Zn185 O192 1.919 . S
Zn185 O197 1.924 . S
O186 Zn185 1.949 . S
O186 Zn187 1.923 . S
O186 Zn188 1.950 . S
O186 Zn189 1.945 . S
Zn187 O186 1.923 . S
Zn187 O190 1.933 . S
Zn187 O193 1.941 . S
Zn187 O194 1.965 . S
Zn188 O186 1.950 . S
Zn188 O195 1.938 . S
Zn188 O196 1.906 . S
Zn188 O206 1.953 . S
Zn189 O186 1.945 . S
Zn189 O191 1.932 . S
Zn189 O198 1.977 . S
Zn189 O199 1.910 . S
O190 Zn187 1.933 . S
O190 C201 1.226 . S
O191 Zn189 1.932 . S
O191 C201 1.307 . S
O192 Zn185 1.919 . S
O192 C203 1.253 . S
O193 Zn187 1.941 . S
O193 C203 1.283 . S
O194 Zn187 1.965 . S
O194 C202 1.303 . S
O195 Zn188 1.938 . S
O195 C202 1.247 . S
O196 Zn188 1.906 . S
O196 C204 1.304 . S
O197 Zn185 1.924 . S
O197 C205 1.311 . S
O198 Zn189 1.977 . S
O198 C204 1.272 . S
O199 Zn189 1.910 . S
O199 C205 1.231 . S
C200 O184 1.225 . S
C200 O206 1.298 . S
C201 O190 1.226 . S
C201 O191 1.307 . S
C202 O194 1.303 . S
C202 O195 1.247 . S
C203 O192 1.253 . S
C203 O193 1.283 . S
C204 O196 1.304 . S
C204 O198 1.272 . S
C205 O197 1.311 . S
C205 O199 1.231 . S
O206 Zn188 1.953 . S
O206 C200 1.298 . S
H207 C219 0.930 . S
H208 C221 0.930 . S
H209 C222 0.930 1_655 S
H210 C226 0.959 . S
H211 C226 0.959 . S
H212 C226 0.961 1_455 S
H213 C227 0.960 . S
H214 C227 0.961 . S
H215 C227 0.959 . S
H216 C230 0.929 . S
H217 C231 0.931 . S
H218 C233 0.930 . S
C219 H207 0.930 . S
C219 C220 1.399 . S
C219 C224 1.399 . S
C220 C219 1.399 . S
C220 C221 1.376 . S
C221 H208 0.930 . S
C221 C220 1.376 . S
C221 C222 1.388 . S
C222 H209 0.930 1_455 S
C222 C221 1.388 . S
C222 C223 1.390 . S
C223 C222 1.390 . S
C223 C224 1.394 . S
C223 C229 1.465 1_455 S
C224 C219 1.399 . S
C224 C223 1.394 . S
C224 C225 1.516 . S
C225 C224 1.516 . S
C225 C226 1.502 1_455 S
C225 C227 1.561 . S
C225 C228 1.526 1_455 S
C226 H210 0.959 . S
C226 H211 0.959 . S
C226 H212 0.961 1_655 S
C226 C225 1.502 1_655 S
C227 H213 0.960 . S
C227 H214 0.961 . S
C227 H215 0.959 . S
C227 C225 1.561 . S
C228 C225 1.526 1_655 S
C228 C229 1.396 . S
C228 C233 1.390 . S
C229 C223 1.465 1_655 S
C229 C228 1.396 . S
C229 C230 1.399 . S
C230 H216 0.929 . S
C230 C229 1.399 . S
C230 C231 1.385 . S
C231 H217 0.931 . S
C231 C230 1.385 . S
C231 C232 1.389 . S
C232 C231 1.389 . S
C232 C233 1.387 . S
C233 H218 0.930 . S
C233 C228 1.390 . S
C233 C232 1.387 . S
H234 C246 0.930 . S
H235 C248 0.930 . S
H236 C249 0.930 . S
H237 C253 0.959 . S
H238 C253 0.959 . S
H239 C253 0.961 . S
H240 C254 0.960 . S
H241 C254 0.961 . S
H242 C254 0.959 . S
H243 C257 0.929 . S
H244 C258 0.931 . S
H245 C260 0.930 . S
C246 H234 0.930 . S
C246 C247 1.399 . S
C246 C251 1.399 . S
C247 C246 1.399 . S
C247 C248 1.376 . S
C248 H235 0.930 . S
C248 C247 1.376 . S
C248 C249 1.388 . S
C249 H236 0.930 . S
C249 C248 1.388 . S
C249 C250 1.390 . S
C250 C249 1.390 . S
C250 C251 1.394 . S
C250 C256 1.465 . S
C251 C246 1.399 . S
C251 C250 1.394 . S
C251 C252 1.516 . S
C252 C251 1.516 . S
C252 C253 1.502 . S
C252 C254 1.561 . S
C252 C255 1.526 . S
C253 H237 0.959 . S
C253 H238 0.959 . S
C253 H239 0.961 . S
C253 C252 1.502 . S
C254 H240 0.960 . S
C254 H241 0.961 . S
C254 H242 0.959 . S
C254 C252 1.561 . S
C255 C252 1.526 . S
C255 C256 1.396 . S
C255 C260 1.390 . S
C256 C250 1.465 . S
C256 C255 1.396 . S
C256 C257 1.399 . S
C257 H243 0.929 . S
C257 C256 1.399 . S
C257 C258 1.385 . S
C258 H244 0.931 . S
C258 C257 1.385 . S
C258 C259 1.389 . S
C259 C258 1.389 . S
C259 C260 1.387 . S
C260 H245 0.930 . S
C260 C255 1.390 . S
C260 C259 1.387 . S
H261 C273 0.930 . S
H262 C275 0.930 . S
H263 C276 0.930 . S
H264 C280 0.959 . S
H265 C280 0.959 . S
H266 C280 0.961 1_565 S
H267 C281 0.960 . S
H268 C281 0.961 . S
H269 C281 0.959 . S
H270 C284 0.929 . S
H271 C285 0.931 . S
H272 C287 0.930 . S
C273 H261 0.930 . S
C273 C274 1.399 1_565 S
C273 C278 1.399 1_565 S
C274 C273 1.399 1_545 S
C274 C275 1.376 . S
C275 H262 0.930 . S
C275 C274 1.376 . S
C275 C276 1.388 . S
C276 H263 0.930 . S
C276 C275 1.388 . S
C276 C277 1.390 . S
C277 C276 1.390 . S
C277 C278 1.394 . S
C277 C283 1.465 . S
C278 C273 1.399 1_545 S
C278 C277 1.394 . S
C278 C279 1.516 . S
C279 C278 1.516 . S
C279 C280 1.502 . S
C279 C281 1.561 1_545 S
C279 C282 1.526 . S
C280 H264 0.959 . S
C280 H265 0.959 . S
C280 H266 0.961 1_545 S
C280 C279 1.502 . S
C281 H267 0.960 . S
C281 H268 0.961 . S
C281 H269 0.959 . S
C281 C279 1.561 1_565 S
C282 C279 1.526 . S
C282 C283 1.396 . S
C282 C287 1.390 . S
C283 C277 1.465 . S
C283 C282 1.396 . S
C283 C284 1.399 . S
C284 H270 0.929 . S
C284 C283 1.399 . S
C284 C285 1.385 . S
C285 H271 0.931 . S
C285 C284 1.385 . S
C285 C286 1.389 . S
C286 C285 1.389 . S
C286 C287 1.387 . S
C287 H272 0.930 . S
C287 C282 1.390 . S
C287 C286 1.387 . S
H288 C300 0.930 . S
H289 C302 0.930 . S
H290 C303 0.930 . S
H291 C307 0.959 . S
H292 C307 0.959 . S
H293 C307 0.961 . S
H294 C308 0.960 . S
H295 C308 0.961 . S
H296 C308 0.959 . S
H297 C311 0.929 . S
H298 C312 0.931 . S
H299 C314 0.930 . S
C300 H288 0.930 . S
C300 C301 1.399 . S
C300 C305 1.399 . S
C301 C300 1.399 . S
C301 C302 1.376 . S
C302 H289 0.930 . S
C302 C301 1.376 . S
C302 C303 1.388 . S
C303 H290 0.930 . S
C303 C302 1.388 . S
C303 C304 1.390 . S
C304 C303 1.390 . S
C304 C305 1.394 . S
C304 C310 1.465 . S
C305 C300 1.399 . S
C305 C304 1.394 . S
C305 C306 1.516 . S
C306 C305 1.516 . S
C306 C307 1.502 . S
C306 C308 1.561 . S
C306 C309 1.526 . S
C307 H291 0.959 . S
C307 H292 0.959 . S
C307 H293 0.961 . S
C307 C306 1.502 . S
C308 H294 0.960 . S
C308 H295 0.961 . S
C308 H296 0.959 . S
C308 C306 1.561 . S
C309 C306 1.526 . S
C309 C310 1.396 . S
C309 C314 1.390 1_556 S
C310 C304 1.465 . S
C310 C309 1.396 . S
C310 C311 1.399 . S
C311 H297 0.929 . S
C311 C310 1.399 . S
C311 C312 1.385 1_556 S
C312 H298 0.931 . S
C312 C311 1.385 1_554 S
C312 C313 1.389 . S
C313 C312 1.389 . S
C313 C314 1.387 . S
C314 H299 0.930 . S
C314 C309 1.390 1_554 S
C314 C313 1.387 . S
H315 C327 0.930 . S
H316 C329 0.930 . S
H317 C330 0.930 . S
H318 C334 0.959 . S
H319 C334 0.959 . S
H320 C334 0.961 . S
H321 C335 0.960 . S
H322 C335 0.961 . S
H323 C335 0.959 . S
H324 C338 0.929 . S
H325 C339 0.931 . S
H326 C341 0.930 . S
C327 H315 0.930 . S
C327 C328 1.399 . S
C327 C332 1.399 . S
C328 C327 1.399 . S
C328 C329 1.376 . S
C329 H316 0.930 . S
C329 C328 1.376 . S
C329 C330 1.388 . S
C330 H317 0.930 . S
C330 C329 1.388 . S
C330 C331 1.390 . S
C331 C330 1.390 . S
C331 C332 1.394 . S
C331 C337 1.465 . S
C332 C327 1.399 . S
C332 C331 1.394 . S
C332 C333 1.516 . S
C333 C332 1.516 . S
C333 C334 1.502 . S
C333 C335 1.561 . S
C333 C336 1.526 . S
C334 H318 0.959 . S
C334 H319 0.959 . S
C334 H320 0.961 . S
C334 C333 1.502 . S
C335 H321 0.960 . S
C335 H322 0.961 . S
C335 H323 0.959 . S
C335 C333 1.561 . S
C336 C333 1.526 . S
C336 C337 1.396 . S
C336 C341 1.390 1_556 S
C337 C331 1.465 . S
C337 C336 1.396 . S
C337 C338 1.399 1_556 S
C338 H324 0.929 . S
C338 C337 1.399 1_554 S
C338 C339 1.385 . S
C339 H325 0.931 . S
C339 C338 1.385 . S
C339 C340 1.389 . S
C340 C339 1.389 . S
C340 C341 1.387 . S
C341 H326 0.930 . S
C341 C336 1.390 1_554 S
C341 C340 1.387 . S
H342 C354 0.930 . S
H343 C356 0.930 . S
H344 C357 0.930 . S
H345 C361 0.959 . S
H346 C361 0.959 . S
H347 C361 0.961 . S
H348 C362 0.960 . S
H349 C362 0.961 . S
H350 C362 0.959 . S
H351 C365 0.929 1_556 S
H352 C366 0.931 . S
H353 C368 0.930 . S
C354 H342 0.930 . S
C354 C355 1.399 . S
C354 C359 1.399 . S
C355 C354 1.399 . S
C355 C356 1.376 . S
C356 H343 0.930 . S
C356 C355 1.376 . S
C356 C357 1.388 . S
C357 H344 0.930 . S
C357 C356 1.388 . S
C357 C358 1.390 . S
C358 C357 1.390 . S
C358 C359 1.394 . S
C358 C364 1.465 . S
C359 C354 1.399 . S
C359 C358 1.394 . S
C359 C360 1.516 . S
C360 C359 1.516 . S
C360 C361 1.502 . S
C360 C362 1.561 . S
C360 C363 1.526 . S
C361 H345 0.959 . S
C361 H346 0.959 . S
C361 H347 0.961 . S
C361 C360 1.502 . S
C362 H348 0.960 . S
C362 H349 0.961 . S
C362 H350 0.959 . S
C362 C360 1.561 . S
C363 C360 1.526 . S
C363 C364 1.396 . S
C363 C368 1.390 1_556 S
C364 C358 1.465 . S
C364 C363 1.396 . S
C364 C365 1.399 1_556 S
C365 H351 0.929 1_554 S
C365 C364 1.399 1_554 S
C365 C366 1.385 . S
C366 H352 0.931 . S
C366 C365 1.385 . S
C366 C367 1.389 . S
C367 C366 1.389 . S
C367 C368 1.387 . S
C368 H353 0.930 . S
C368 C363 1.390 1_554 S
C368 C367 1.387 . S
H369 C381 0.930 . S
H370 C383 0.930 . S
H371 C384 0.930 . S
H372 C388 0.959 . S
H373 C388 0.959 . S
H374 C388 0.961 . S
H375 C389 0.960 . S
H376 C389 0.961 . S
H377 C389 0.959 . S
H378 C392 0.929 . S
H379 C393 0.931 1_556 S
H380 C395 0.930 . S
C381 H369 0.930 . S
C381 C382 1.399 . S
C381 C386 1.399 . S
C382 C381 1.399 . S
C382 C383 1.376 . S
C383 H370 0.930 . S
C383 C382 1.376 . S
C383 C384 1.388 . S
C384 H371 0.930 . S
C384 C383 1.388 . S
C384 C385 1.390 . S
C385 C384 1.390 . S
C385 C386 1.394 . S
C385 C391 1.465 . S
C386 C381 1.399 . S
C386 C385 1.394 . S
C386 C387 1.516 . S
C387 C386 1.516 . S
C387 C388 1.502 . S
C387 C389 1.561 . S
C387 C390 1.526 . S
C388 H372 0.959 . S
C388 H373 0.959 . S
C388 H374 0.961 . S
C388 C387 1.502 . S
C389 H375 0.960 . S
C389 H376 0.961 . S
C389 H377 0.959 . S
C389 C387 1.561 . S
C390 C387 1.526 . S
C390 C391 1.396 . S
C390 C395 1.390 . S
C391 C385 1.465 . S
C391 C390 1.396 . S
C391 C392 1.399 . S
C392 H378 0.929 . S
C392 C391 1.399 . S
C392 C393 1.385 . S
C393 H379 0.931 1_554 S
C393 C392 1.385 . S
C393 C394 1.389 . S
C394 C393 1.389 . S
C394 C395 1.387 . S
C395 H380 0.930 . S
C395 C390 1.390 . S
C395 C394 1.387 . S
H396 C408 0.930 . S
H397 C410 0.930 . S
H398 C411 0.930 . S
H399 C415 0.959 . S
H400 C415 0.959 . S
H401 C415 0.961 . S
H402 C416 0.960 . S
H403 C416 0.961 . S
H404 C416 0.959 . S
H405 C419 0.929 . S
H406 C420 0.931 1_556 S
H407 C422 0.930 . S
C408 H396 0.930 . S
C408 C409 1.399 . S
C408 C413 1.399 . S
C409 C408 1.399 . S
C409 C410 1.376 . S
C410 H397 0.930 . S
C410 C409 1.376 . S
C410 C411 1.388 . S
C411 H398 0.930 . S
C411 C410 1.388 . S
C411 C412 1.390 . S
C412 C411 1.390 . S
C412 C413 1.394 . S
C412 C418 1.465 . S
C413 C408 1.399 . S
C413 C412 1.394 . S
C413 C414 1.516 . S
C414 C413 1.516 . S
C414 C415 1.502 . S
C414 C416 1.561 . S
C414 C417 1.526 . S
C415 H399 0.959 . S
C415 H400 0.959 . S
C415 H401 0.961 . S
C415 C414 1.502 . S
C416 H402 0.960 . S
C416 H403 0.961 . S
C416 H404 0.959 . S
C416 C414 1.561 . S
C417 C414 1.526 . S
C417 C418 1.396 . S
C417 C422 1.390 . S
C418 C412 1.465 . S
C418 C417 1.396 . S
C418 C419 1.399 . S
C419 H405 0.929 . S
C419 C418 1.399 . S
C419 C420 1.385 . S
C420 H406 0.931 1_554 S
C420 C419 1.385 . S
C420 C421 1.390 1_554 S
C421 C420 1.390 1_556 S
C421 C422 1.388 1_556 S
C422 H407 0.930 . S
C422 C417 1.390 . S
C422 C421 1.388 1_554 S
H423 C435 0.930 . S
H424 C437 0.930 . S
H425 C438 0.930 . S
H426 C442 0.959 . S
H427 C442 0.959 . S
H428 C442 0.961 . S
H429 C443 0.960 . S
H430 C443 0.961 . S
H431 C443 0.959 . S
H432 C446 0.929 . S
H433 C447 0.931 1_556 S
H434 C449 0.930 . S
C435 H423 0.930 . S
C435 C436 1.399 . S
C435 C440 1.399 . S
C436 C435 1.399 . S
C436 C437 1.376 . S
C437 H424 0.930 . S
C437 C436 1.376 . S
C437 C438 1.388 . S
C438 H425 0.930 . S
C438 C437 1.388 . S
C438 C439 1.390 . S
C439 C438 1.390 . S
C439 C440 1.394 . S
C439 C445 1.465 . S
C440 C435 1.399 . S
C440 C439 1.394 . S
C440 C441 1.516 . S
C441 C440 1.516 . S
C441 C442 1.502 . S
C441 C443 1.561 . S
C441 C444 1.526 . S
C442 H426 0.959 . S
C442 H427 0.959 . S
C442 H428 0.961 . S
C442 C441 1.502 . S
C443 H429 0.960 . S
C443 H430 0.961 . S
C443 H431 0.959 . S
C443 C441 1.561 . S
C444 C441 1.526 . S
C444 C445 1.396 . S
C444 C449 1.390 . S
C445 C439 1.465 . S
C445 C444 1.396 . S
C445 C446 1.399 . S
C446 H432 0.929 . S
C446 C445 1.399 . S
C446 C447 1.385 . S
C447 H433 0.931 1_554 S
C447 C446 1.385 . S
C447 C448 1.390 . S
C448 C447 1.390 . S
C448 C449 1.388 . S
C449 H434 0.930 . S
C449 C444 1.390 . S
C449 C448 1.388 . S
H450 C462 0.930 . S
H451 C464 0.930 . S
H452 C465 0.930 . S
H453 C469 0.959 . S
H454 C469 0.959 . S
H455 C469 0.961 . S
H456 C470 0.960 . S
H457 C470 0.961 . S
H458 C470 0.959 . S
H459 C473 0.929 . S
H460 C474 0.931 . S
H461 C476 0.930 . S
C462 H450 0.930 . S
C462 C463 1.399 . S
C462 C467 1.399 . S
C463 C462 1.399 . S
C463 C464 1.376 . S
C464 H451 0.930 . S
C464 C463 1.376 . S
C464 C465 1.388 . S
C465 H452 0.930 . S
C465 C464 1.388 . S
C465 C466 1.390 . S
C466 C465 1.390 . S
C466 C467 1.394 . S
C466 C472 1.465 . S
C467 C462 1.399 . S
C467 C466 1.394 . S
C467 C468 1.516 . S
C468 C467 1.516 . S
C468 C469 1.502 . S
C468 C470 1.561 . S
C468 C471 1.526 . S
C469 H453 0.959 . S
C469 H454 0.959 . S
C469 H455 0.961 . S
C469 C468 1.502 . S
C470 H456 0.960 . S
C470 H457 0.961 . S
C470 H458 0.959 . S
C470 C468 1.561 . S
C471 C468 1.526 . S
C471 C472 1.396 . S
C471 C476 1.390 . S
C472 C466 1.465 . S
C472 C471 1.396 . S
C472 C473 1.399 . S
C473 H459 0.929 . S
C473 C472 1.399 . S
C473 C474 1.385 . S
C474 H460 0.931 . S
C474 C473 1.385 . S
C474 C475 1.389 . S
C475 C474 1.389 . S
C475 C476 1.387 . S
C476 H461 0.930 . S
C476 C471 1.390 . S
C476 C475 1.387 . S
H477 C489 0.930 . S
H478 C491 0.930 . S
H479 C492 0.930 . S
H480 C496 0.959 . S
H481 C496 0.959 . S
H482 C496 0.961 . S
H483 C497 0.960 1_556 S
H484 C497 0.961 . S
H485 C497 0.959 . S
H486 C500 0.929 . S
H487 C501 0.931 . S
H488 C503 0.930 . S
C489 H477 0.930 . S
C489 C490 1.399 . S
C489 C494 1.399 . S
C490 C489 1.399 . S
C490 C491 1.376 . S
C491 H478 0.930 . S
C491 C490 1.376 . S
C491 C492 1.388 . S
C492 H479 0.930 . S
C492 C491 1.388 . S
C492 C493 1.390 . S
C493 C492 1.390 . S
C493 C494 1.394 . S
C493 C499 1.465 . S
C494 C489 1.399 . S
C494 C493 1.394 . S
C494 C495 1.516 . S
C495 C494 1.516 . S
C495 C496 1.502 . S
C495 C497 1.561 . S
C495 C498 1.526 . S
C496 H480 0.959 . S
C496 H481 0.959 . S
C496 H482 0.961 . S
C496 C495 1.502 . S
C497 H483 0.960 1_554 S
C497 H484 0.961 . S
C497 H485 0.959 . S
C497 C495 1.561 . S
C498 C495 1.526 . S
C498 C499 1.396 . S
C498 C503 1.390 . S
C499 C493 1.465 . S
C499 C498 1.396 . S
C499 C500 1.399 . S
C500 H486 0.929 . S
C500 C499 1.399 . S
C500 C501 1.385 . S
C501 H487 0.931 . S
C501 C500 1.385 . S
C501 C502 1.389 . S
C502 C501 1.389 . S
C502 C503 1.387 . S
C503 H488 0.930 . S
C503 C498 1.390 . S
C503 C502 1.387 . S
H504 C516 0.930 . S
H505 C518 0.930 1_556 S
H506 C519 0.930 . S
H507 C523 0.959 . S
H508 C523 0.959 . S
H509 C523 0.961 . S
H510 C524 0.960 . S
H511 C524 0.961 . S
H512 C524 0.959 . S
H513 C527 0.929 . S
H514 C528 0.931 . S
H515 C530 0.930 . S
C516 H504 0.930 . S
C516 C517 1.399 . S
C516 C521 1.399 . S
C517 C516 1.399 . S
C517 C518 1.376 . S
C518 H505 0.930 1_554 S
C518 C517 1.376 . S
C518 C519 1.388 . S
C519 H506 0.930 . S
C519 C518 1.388 . S
C519 C520 1.390 . S
C520 C519 1.390 . S
C520 C521 1.394 . S
C520 C526 1.465 . S
C521 C516 1.399 . S
C521 C520 1.394 . S
C521 C522 1.516 . S
C522 C521 1.516 . S
C522 C523 1.502 . S
C522 C524 1.561 . S
C522 C525 1.526 . S
C523 H507 0.959 . S
C523 H508 0.959 . S
C523 H509 0.961 . S
C523 C522 1.502 . S
C524 H510 0.960 . S
C524 H511 0.961 . S
C524 H512 0.959 . S
C524 C522 1.561 . S
C525 C522 1.526 . S
C525 C526 1.396 . S
C525 C530 1.390 . S
C526 C520 1.465 . S
C526 C525 1.396 . S
C526 C527 1.399 . S
C527 H513 0.929 . S
C527 C526 1.399 . S
C527 C528 1.385 . S
C528 H514 0.931 . S
C528 C527 1.385 . S
C528 C529 1.389 . S
C529 C528 1.389 . S
C529 C530 1.387 . S
C530 H515 0.930 . S
C530 C525 1.390 . S
C530 C529 1.387 . S
H531 C543 0.930 1_554 S
H532 C545 0.930 . S
H533 C546 0.930 . S
H534 C550 0.959 . S
H535 C550 0.959 . S
H536 C550 0.961 . S
H537 C551 0.960 1_554 S
H538 C551 0.961 1_554 S
H539 C551 0.959 . S
H540 C554 0.929 . S
H541 C555 0.931 . S
H542 C557 0.930 . S
C543 H531 0.930 1_556 S
C543 C544 1.399 . S
C543 C548 1.399 . S
C544 C543 1.399 . S
C544 C545 1.376 . S
C545 H532 0.930 . S
C545 C544 1.376 . S
C545 C546 1.388 . S
C546 H533 0.930 . S
C546 C545 1.388 . S
C546 C547 1.390 . S
C547 C546 1.390 . S
C547 C548 1.394 . S
C547 C553 1.465 . S
C548 C543 1.399 . S
C548 C547 1.394 . S
C548 C549 1.516 . S
C549 C548 1.516 . S
C549 C550 1.502 1_556 S
C549 C551 1.561 . S
C549 C552 1.526 . S
C550 H534 0.959 . S
C550 H535 0.959 . S
C550 H536 0.961 . S
C550 C549 1.502 1_554 S
C551 H537 0.960 1_556 S
C551 H538 0.961 1_556 S
C551 H539 0.959 . S
C551 C549 1.561 . S
C552 C549 1.526 . S
C552 C553 1.396 . S
C552 C557 1.390 . S
C553 C547 1.465 . S
C553 C552 1.396 . S
C553 C554 1.399 . S
C554 H540 0.929 . S
C554 C553 1.399 . S
C554 C555 1.385 . S
C555 H541 0.931 . S
C555 C554 1.385 . S
C555 C556 1.389 . S
C556 C555 1.389 . S
C556 C557 1.387 . S
C557 H542 0.930 . S
C557 C552 1.390 . S
C557 C556 1.387 . S
H558 C570 0.930 . S
H559 C572 0.930 . S
H560 C573 0.930 . S
H561 C577 0.959 . S
H562 C577 0.959 . S
H563 C577 0.961 . S
H564 C578 0.960 . S
H565 C578 0.961 . S
H566 C578 0.959 . S
H567 C581 0.929 . S
H568 C582 0.931 . S
H569 C584 0.930 . S
C570 H558 0.930 . S
C570 C571 1.399 . S
C570 C575 1.399 . S
C571 C570 1.399 . S
C571 C572 1.376 . S
C572 H559 0.930 . S
C572 C571 1.376 . S
C572 C573 1.388 . S
C573 H560 0.930 . S
C573 C572 1.388 . S
C573 C574 1.390 . S
C574 C573 1.390 . S
C574 C575 1.394 . S
C574 C580 1.465 . S
C575 C570 1.399 . S
C575 C574 1.394 . S
C575 C576 1.516 . S
C576 C575 1.516 . S
C576 C577 1.502 . S
C576 C578 1.561 . S
C576 C579 1.526 . S
C577 H561 0.959 . S
C577 H562 0.959 . S
C577 H563 0.961 . S
C577 C576 1.502 . S
C578 H564 0.960 . S
C578 H565 0.961 . S
C578 H566 0.959 . S
C578 C576 1.561 . S
C579 C576 1.526 . S
C579 C580 1.396 . S
C579 C584 1.390 . S
C580 C574 1.465 . S
C580 C579 1.396 . S
C580 C581 1.399 1_556 S
C581 H567 0.929 . S
C581 C580 1.399 1_554 S
C581 C582 1.385 . S
C582 H568 0.931 . S
C582 C581 1.385 . S
C582 C583 1.389 1_554 S
C583 C582 1.389 1_556 S
C583 C584 1.387 . S
C584 H569 0.930 . S
C584 C579 1.390 . S
C584 C583 1.387 . S
H585 C597 0.930 . S
H586 C599 0.930 . S
H587 C600 0.930 . S
H588 C604 0.959 . S
H589 C604 0.959 . S
H590 C604 0.961 . S
H591 C605 0.961 . S
H592 C605 0.961 1_554 S
H593 C605 0.959 . S
H594 C608 0.929 . S
H595 C609 0.931 . S
H596 C611 0.930 1_554 S
C597 H585 0.930 . S
C597 C598 1.399 . S
C597 C602 1.399 . S
C598 C597 1.399 . S
C598 C599 1.376 . S
C599 H586 0.930 . S
C599 C598 1.376 . S
C599 C600 1.388 . S
C600 H587 0.930 . S
C600 C599 1.388 . S
C600 C601 1.390 . S
C601 C600 1.390 . S
C601 C602 1.394 . S
C601 C607 1.465 . S
C602 C597 1.399 . S
C602 C601 1.394 . S
C602 C603 1.516 . S
C603 C602 1.516 . S
C603 C604 1.502 1_556 S
C603 C605 1.561 . S
C603 C606 1.526 . S
C604 H588 0.959 . S
C604 H589 0.959 . S
C604 H590 0.961 . S
C604 C603 1.502 1_554 S
C605 H591 0.961 . S
C605 H592 0.961 1_556 S
C605 H593 0.959 . S
C605 C603 1.561 . S
C606 C603 1.526 . S
C606 C607 1.396 . S
C606 C611 1.390 . S
C607 C601 1.465 . S
C607 C606 1.396 . S
C607 C608 1.399 . S
C608 H594 0.929 . S
C608 C607 1.399 . S
C608 C609 1.385 . S
C609 H595 0.931 . S
C609 C608 1.385 . S
C609 C610 1.389 . S
C610 C609 1.389 . S
C610 C611 1.387 . S
C611 H596 0.930 1_556 S
C611 C606 1.390 . S
C611 C610 1.387 . S
H612 C624 0.930 . S
H613 C626 0.930 . S
H614 C627 0.930 . S
H615 C631 0.959 . S
H616 C631 0.959 . S
H617 C631 0.961 . S
H618 C632 0.960 . S
H619 C632 0.961 1_554 S
H620 C632 0.959 . S
H621 C635 0.929 . S
H622 C636 0.931 . S
H623 C638 0.930 1_554 S
C624 H612 0.930 . S
C624 C625 1.399 . S
C624 C629 1.399 . S
C625 C624 1.399 . S
C625 C626 1.376 . S
C626 H613 0.930 . S
C626 C625 1.376 . S
C626 C627 1.388 . S
C627 H614 0.930 . S
C627 C626 1.388 . S
C627 C628 1.390 . S
C628 C627 1.390 . S
C628 C629 1.394 . S
C628 C634 1.465 . S
C629 C624 1.399 . S
C629 C628 1.394 . S
C629 C630 1.516 . S
C630 C629 1.516 . S
C630 C631 1.502 1_556 S
C630 C632 1.561 . S
C630 C633 1.526 . S
C631 H615 0.959 . S
C631 H616 0.959 . S
C631 H617 0.961 . S
C631 C630 1.502 1_554 S
C632 H618 0.960 . S
C632 H619 0.961 1_556 S
C632 H620 0.959 . S
C632 C630 1.561 . S
C633 C630 1.526 . S
C633 C634 1.396 . S
C633 C638 1.390 . S
C634 C628 1.465 . S
C634 C633 1.396 . S
C634 C635 1.399 . S
C635 H621 0.929 . S
C635 C634 1.399 . S
C635 C636 1.385 . S
C636 H622 0.931 . S
C636 C635 1.385 . S
C636 C637 1.389 . S
C637 C636 1.389 . S
C637 C638 1.387 . S
C638 H623 0.930 1_556 S
C638 C633 1.390 . S
C638 C637 1.387 . S
H639 C651 0.930 . S
H640 C653 0.930 . S
H641 C654 0.930 1_554 S
H642 C658 0.959 . S
H643 C658 0.959 . S
H644 C658 0.961 . S
H645 C659 0.960 . S
H646 C659 0.961 . S
H647 C659 0.959 . S
H648 C662 0.929 . S
H649 C663 0.931 . S
H650 C665 0.930 . S
C651 H639 0.930 . S
C651 C652 1.399 . S
C651 C656 1.399 . S
C652 C651 1.399 . S
C652 C653 1.376 1_556 S
C653 H640 0.930 . S
C653 C652 1.376 1_554 S
C653 C654 1.388 1_554 S
C654 H641 0.930 1_556 S
C654 C653 1.388 1_556 S
C654 C655 1.390 . S
C655 C654 1.390 . S
C655 C656 1.394 . S
C655 C661 1.465 . S
C656 C651 1.399 . S
C656 C655 1.394 . S
C656 C657 1.516 . S
C657 C656 1.516 . S
C657 C658 1.502 . S
C657 C659 1.561 . S
C657 C660 1.526 . S
C658 H642 0.959 . S
C658 H643 0.959 . S
C658 H644 0.961 . S
C658 C657 1.502 . S
C659 H645 0.960 . S
C659 H646 0.961 . S
C659 H647 0.959 . S
C659 C657 1.561 . S
C660 C657 1.526 . S
C660 C661 1.396 . S
C660 C665 1.390 . S
C661 C655 1.465 . S
C661 C660 1.396 . S
C661 C662 1.399 . S
C662 H648 0.929 . S
C662 C661 1.399 . S
C662 C663 1.385 . S
C663 H649 0.931 . S
C663 C662 1.385 . S
C663 C664 1.389 . S
C664 C663 1.389 . S
C664 C665 1.387 . S
C665 H650 0.930 . S
C665 C660 1.390 . S
C665 C664 1.387 . S
H666 C678 0.930 . S
H667 C680 0.930 . S
H668 C681 0.930 . S
H669 C685 0.959 . S
H670 C685 0.959 . S
H671 C685 0.961 . S
H672 C686 0.960 . S
H673 C686 0.961 1_554 S
H674 C686 0.959 1_554 S
H675 C689 0.929 . S
H676 C690 0.931 . S
H677 C692 0.930 . S
C678 H666 0.930 . S
C678 C679 1.399 . S
C678 C683 1.399 . S
C679 C678 1.399 . S
C679 C680 1.376 . S
C680 H667 0.930 . S
C680 C679 1.376 . S
C680 C681 1.388 . S
C681 H668 0.930 . S
C681 C680 1.388 . S
C681 C682 1.390 . S
C682 C681 1.390 . S
C682 C683 1.394 . S
C682 C688 1.465 . S
C683 C678 1.399 . S
C683 C682 1.394 . S
C683 C684 1.516 . S
C684 C683 1.516 . S
C684 C685 1.502 . S
C684 C686 1.561 . S
C684 C687 1.526 . S
C685 H669 0.959 . S
C685 H670 0.959 . S
C685 H671 0.961 . S
C685 C684 1.502 . S
C686 H672 0.960 . S
C686 H673 0.961 1_556 S
C686 H674 0.959 1_556 S
C686 C684 1.561 . S
C687 C684 1.526 . S
C687 C688 1.396 . S
C687 C692 1.390 . S
C688 C682 1.465 . S
C688 C687 1.396 . S
C688 C689 1.399 . S
C689 H675 0.929 . S
C689 C688 1.399 . S
C689 C690 1.385 . S
C690 H676 0.931 . S
C690 C689 1.385 . S
C690 C691 1.389 . S
C691 C690 1.389 . S
C691 C692 1.387 . S
C692 H677 0.930 . S
C692 C687 1.390 . S
C692 C691 1.387 . S
H693 C705 0.930 . S
H694 C707 0.930 . S
H695 C708 0.930 . S
H696 C712 0.959 . S
H697 C712 0.959 . S
H698 C712 0.961 . S
H699 C713 0.960 . S
H700 C713 0.961 . S
H701 C713 0.959 . S
H702 C716 0.929 . S
H703 C717 0.931 . S
H704 C719 0.930 . S
C705 H693 0.930 . S
C705 C706 1.399 . S
C705 C710 1.399 . S
C706 C705 1.399 . S
C706 C707 1.376 . S
C707 H694 0.930 . S
C707 C706 1.376 . S
C707 C708 1.388 . S
C708 H695 0.930 . S
C708 C707 1.388 . S
C708 C709 1.390 . S
C709 C708 1.390 . S
C709 C710 1.394 . S
C709 C715 1.465 . S
C710 C705 1.399 . S
C710 C709 1.394 . S
C710 C711 1.516 . S
C711 C710 1.516 . S
C711 C712 1.502 . S
C711 C713 1.561 . S
C711 C714 1.526 . S
C712 H696 0.959 . S
C712 H697 0.959 . S
C712 H698 0.961 . S
C712 C711 1.502 . S
C713 H699 0.960 . S
C713 H700 0.961 . S
C713 H701 0.959 . S
C713 C711 1.561 . S
C714 C711 1.526 . S
C714 C715 1.396 . S
C714 C719 1.390 . S
C715 C709 1.465 . S
C715 C714 1.396 . S
C715 C716 1.399 . S
C716 H702 0.929 . S
C716 C715 1.399 . S
C716 C717 1.385 . S
C717 H703 0.931 . S
C717 C716 1.385 . S
C717 C718 1.389 . S
C718 C717 1.389 . S
C718 C719 1.387 . S
C719 H704 0.930 . S
C719 C714 1.390 . S
C719 C718 1.387 . S
H720 C732 0.930 . S
H721 C734 0.930 . S
H722 C735 0.930 . S
H723 C739 0.959 . S
H724 C739 0.959 1_556 S
H725 C739 0.961 . S
H726 C740 0.960 . S
H727 C740 0.961 1_556 S
H728 C740 0.959 . S
H729 C743 0.929 . S
H730 C744 0.931 . S
H731 C746 0.930 . S
C732 H720 0.930 . S
C732 C733 1.399 . S
C732 C737 1.399 . S
C733 C732 1.399 . S
C733 C734 1.376 . S
C734 H721 0.930 . S
C734 C733 1.376 . S
C734 C735 1.388 . S
C735 H722 0.930 . S
C735 C734 1.388 . S
C735 C736 1.390 . S
C736 C735 1.390 . S
C736 C737 1.394 . S
C736 C742 1.465 . S
C737 C732 1.399 . S
C737 C736 1.394 . S
C737 C738 1.516 . S
C738 C737 1.516 . S
C738 C739 1.502 . S
C738 C740 1.561 . S
C738 C741 1.526 . S
C739 H723 0.959 . S
C739 H724 0.959 1_554 S
C739 H725 0.961 . S
C739 C738 1.502 . S
C740 H726 0.960 . S
C740 H727 0.961 1_554 S
C740 H728 0.959 . S
C740 C738 1.561 . S
C741 C738 1.526 . S
C741 C742 1.396 . S
C741 C746 1.390 . S
C742 C736 1.465 . S
C742 C741 1.396 . S
C742 C743 1.399 . S
C743 H729 0.929 . S
C743 C742 1.399 . S
C743 C744 1.385 . S
C744 H730 0.931 . S
C744 C743 1.385 . S
C744 C745 1.389 . S
C745 C744 1.389 . S
C745 C746 1.387 . S
C746 H731 0.930 . S
C746 C741 1.390 . S
C746 C745 1.387 . S
H747 C759 0.930 . S
H748 C761 0.930 . S
H749 C762 0.930 . S
H750 C766 0.959 . S
H751 C766 0.959 . S
H752 C766 0.961 . S
H753 C767 0.960 . S
H754 C767 0.961 . S
H755 C767 0.959 . S
H756 C770 0.929 . S
H757 C771 0.931 . S
H758 C773 0.930 . S
C759 H747 0.930 . S
C759 C760 1.399 . S
C759 C764 1.399 . S
C760 C759 1.399 . S
C760 C761 1.376 . S
C761 H748 0.930 . S
C761 C760 1.376 . S
C761 C762 1.388 . S
C762 H749 0.930 . S
C762 C761 1.388 . S
C762 C763 1.390 . S
C763 C762 1.390 . S
C763 C764 1.394 . S
C763 C769 1.465 . S
C764 C759 1.399 . S
C764 C763 1.394 . S
C764 C765 1.516 . S
C765 C764 1.516 . S
C765 C766 1.502 . S
C765 C767 1.561 . S
C765 C768 1.526 . S
C766 H750 0.959 . S
C766 H751 0.959 . S
C766 H752 0.961 . S
C766 C765 1.502 . S
C767 H753 0.960 . S
C767 H754 0.961 . S
C767 H755 0.959 . S
C767 C765 1.561 . S
C768 C765 1.526 . S
C768 C769 1.396 . S
C768 C773 1.390 . S
C769 C763 1.465 . S
C769 C768 1.396 . S
C769 C770 1.399 . S
C770 H756 0.929 . S
C770 C769 1.399 . S
C770 C771 1.385 . S
C771 H757 0.931 . S
C771 C770 1.385 . S
C771 C772 1.389 . S
C772 C771 1.389 . S
C772 C773 1.387 . S
C773 H758 0.930 . S
C773 C768 1.390 . S
C773 C772 1.387 . S
H774 C786 0.930 . S
H775 C788 0.930 . S
H776 C789 0.930 . S
H777 C793 0.959 . S
H778 C793 0.959 . S
H779 C793 0.961 . S
H780 C794 0.960 . S
H781 C794 0.961 . S
H782 C794 0.959 . S
H783 C797 0.929 . S
H784 C798 0.931 . S
H785 C800 0.930 . S
C786 H774 0.930 . S
C786 C787 1.399 . S
C786 C791 1.399 . S
C787 C786 1.399 . S
C787 C788 1.376 . S
C788 H775 0.930 . S
C788 C787 1.376 . S
C788 C789 1.388 . S
C789 H776 0.930 . S
C789 C788 1.388 . S
C789 C790 1.390 . S
C790 C789 1.390 . S
C790 C791 1.394 . S
C790 C796 1.465 . S
C791 C786 1.399 . S
C791 C790 1.394 . S
C791 C792 1.516 . S
C792 C791 1.516 . S
C792 C793 1.502 . S
C792 C794 1.561 . S
C792 C795 1.526 . S
C793 H777 0.959 . S
C793 H778 0.959 . S
C793 H779 0.961 . S
C793 C792 1.502 . S
C794 H780 0.960 . S
C794 H781 0.961 . S
C794 H782 0.959 . S
C794 C792 1.561 . S
C795 C792 1.526 . S
C795 C796 1.396 . S
C795 C800 1.390 . S
C796 C790 1.465 . S
C796 C795 1.396 . S
C796 C797 1.399 . S
C797 H783 0.929 . S
C797 C796 1.399 . S
C797 C798 1.385 . S
C798 H784 0.931 . S
C798 C797 1.385 . S
C798 C799 1.389 . S
C799 C798 1.389 . S
C799 C800 1.387 . S
C800 H785 0.930 . S
C800 C795 1.390 . S
C800 C799 1.387 . S
H801 C813 0.930 . S
H802 C815 0.930 . S
H803 C816 0.930 . S
H804 C820 0.959 . S
H805 C820 0.959 . S
H806 C820 0.961 . S
H807 C821 0.960 . S
H808 C821 0.961 . S
H809 C821 0.959 . S
H810 C824 0.929 . S
H811 C825 0.931 . S
H812 C827 0.930 . S
C813 H801 0.930 . S
C813 C814 1.399 . S
C813 C818 1.399 . S
C814 C813 1.399 . S
C814 C815 1.376 . S
C815 H802 0.930 . S
C815 C814 1.376 . S
C815 C816 1.388 . S
C816 H803 0.930 . S
C816 C815 1.388 . S
C816 C817 1.390 . S
C817 C816 1.390 . S
C817 C818 1.394 . S
C817 C823 1.465 . S
C818 C813 1.399 . S
C818 C817 1.394 . S
C818 C819 1.516 . S
C819 C818 1.516 . S
C819 C820 1.502 . S
C819 C821 1.561 . S
C819 C822 1.526 . S
C820 H804 0.959 . S
C820 H805 0.959 . S
C820 H806 0.961 . S
C820 C819 1.502 . S
C821 H807 0.960 . S
C821 H808 0.961 . S
C821 H809 0.959 . S
C821 C819 1.561 . S
C822 C819 1.526 . S
C822 C823 1.396 . S
C822 C827 1.390 1_545 S
C823 C817 1.465 . S
C823 C822 1.396 . S
C823 C824 1.399 1_545 S
C824 H810 0.929 . S
C824 C823 1.399 1_565 S
C824 C825 1.385 . S
C825 H811 0.931 . S
C825 C824 1.385 . S
C825 C826 1.389 . S
C826 C825 1.389 . S
C826 C827 1.387 . S
C827 H812 0.930 . S
C827 C822 1.390 1_565 S
C827 C826 1.387 . S
H828 C840 0.930 . S
H829 C842 0.930 . S
H830 C843 0.930 . S
H831 C847 0.959 1_455 S
H832 C847 0.959 1_455 S
H833 C847 0.961 . S
H834 C848 0.960 . S
H835 C848 0.961 . S
H836 C848 0.959 . S
H837 C851 0.929 . S
H838 C852 0.931 . S
H839 C854 0.930 . S
C840 H828 0.930 . S
C840 C841 1.399 . S
C840 C845 1.399 . S
C841 C840 1.399 . S
C841 C842 1.376 . S
C842 H829 0.930 . S
C842 C841 1.376 . S
C842 C843 1.388 . S
C843 H830 0.930 . S
C843 C842 1.388 . S
C843 C844 1.390 . S
C844 C843 1.390 . S
C844 C845 1.394 . S
C844 C850 1.465 1_655 S
C845 C840 1.399 . S
C845 C844 1.394 . S
C845 C846 1.516 . S
C846 C845 1.516 . S
C846 C847 1.502 . S
C846 C848 1.561 . S
C846 C849 1.526 1_655 S
C847 H831 0.959 1_655 S
C847 H832 0.959 1_655 S
C847 H833 0.961 . S
C847 C846 1.502 . S
C848 H834 0.960 . S
C848 H835 0.961 . S
C848 H836 0.959 . S
C848 C846 1.561 . S
C849 C846 1.526 1_455 S
C849 C850 1.396 . S
C849 C854 1.390 . S
C850 C844 1.465 1_455 S
C850 C849 1.396 . S
C850 C851 1.399 . S
C851 H837 0.929 . S
C851 C850 1.399 . S
C851 C852 1.385 . S
C852 H838 0.931 . S
C852 C851 1.385 . S
C852 C853 1.389 . S
C853 C852 1.389 . S
C853 C854 1.387 . S
C854 H839 0.930 . S
C854 C849 1.390 . S
C854 C853 1.387 . S
H855 C867 0.930 . S
H856 C869 0.930 . S
H857 C870 0.930 . S
H858 C874 0.959 . S
H859 C874 0.959 . S
H860 C874 0.961 . S
H861 C875 0.960 . S
H862 C875 0.961 . S
H863 C875 0.959 . S
H864 C878 0.929 . S
H865 C879 0.931 . S
H866 C881 0.930 . S
C867 H855 0.930 . S
C867 C868 1.399 . S
C867 C872 1.399 . S
C868 C867 1.399 . S
C868 C869 1.376 . S
C869 H856 0.930 . S
C869 C868 1.376 . S
C869 C870 1.388 . S
C870 H857 0.930 . S
C870 C869 1.388 . S
C870 C871 1.390 . S
C871 C870 1.390 . S
C871 C872 1.394 . S
C871 C877 1.465 . S
C872 C867 1.399 . S
C872 C871 1.394 . S
C872 C873 1.516 . S
C873 C872 1.516 . S
C873 C874 1.502 . S
C873 C875 1.561 . S
C873 C876 1.526 . S
C874 H858 0.959 . S
C874 H859 0.959 . S
C874 H860 0.961 . S
C874 C873 1.502 . S
C875 H861 0.960 . S
C875 H862 0.961 . S
C875 H863 0.959 . S
C875 C873 1.561 . S
C876 C873 1.526 . S
C876 C877 1.396 . S
C876 C881 1.390 . S
C877 C871 1.465 . S
C877 C876 1.396 . S
C877 C878 1.399 . S
C878 H864 0.929 . S
C878 C877 1.399 . S
C878 C879 1.385 . S
C879 H865 0.931 . S
C879 C878 1.385 . S
C879 C880 1.389 . S
C880 C879 1.389 . S
C880 C881 1.387 . S
C881 H866 0.930 . S
C881 C876 1.390 . S
C881 C880 1.387 . S
H882 C894 0.930 . S
H883 C896 0.930 . S
H884 C897 0.930 . S
H885 C901 0.959 . S
H886 C901 0.959 . S
H887 C901 0.961 1_565 S
H888 C902 0.960 1_565 S
H889 C902 0.961 . S
H890 C902 0.959 . S
H891 C905 0.929 . S
H892 C906 0.931 . S
H893 C908 0.930 . S
C894 H882 0.930 . S
C894 C895 1.399 . S
C894 C899 1.399 1_565 S
C895 C894 1.399 . S
C895 C896 1.376 . S
C896 H883 0.930 . S
C896 C895 1.376 . S
C896 C897 1.388 1_565 S
C897 H884 0.930 . S
C897 C896 1.388 1_545 S
C897 C898 1.390 . S
C898 C897 1.390 . S
C898 C899 1.394 . S
C898 C904 1.465 . S
C899 C894 1.399 1_545 S
C899 C898 1.394 . S
C899 C900 1.516 . S
C900 C899 1.516 . S
C900 C901 1.502 . S
C900 C902 1.561 . S
C900 C903 1.526 . S
C901 H885 0.959 . S
C901 H886 0.959 . S
C901 H887 0.961 1_545 S
C901 C900 1.502 . S
C902 H888 0.960 1_545 S
C902 H889 0.961 . S
C902 H890 0.959 . S
C902 C900 1.561 . S
C903 C900 1.526 . S
C903 C904 1.396 . S
C903 C908 1.390 . S
C904 C898 1.465 . S
C904 C903 1.396 . S
C904 C905 1.399 . S
C905 H891 0.929 . S
C905 C904 1.399 . S
C905 C906 1.385 . S
C906 H892 0.931 . S
C906 C905 1.385 . S
C906 C907 1.389 . S
C907 C906 1.389 . S
C907 C908 1.387 . S
C908 H893 0.930 . S
C908 C903 1.390 . S
C908 C907 1.387 . S
H909 C921 0.930 . S
H910 C923 0.930 . S
H911 C924 0.930 . S
H912 C928 0.959 . S
H913 C928 0.959 . S
H914 C928 0.961 . S
H915 C929 0.960 . S
H916 C929 0.961 . S
H917 C929 0.959 . S
H918 C932 0.929 1_655 S
H919 C933 0.931 . S
H920 C935 0.930 . S
C921 H909 0.930 . S
C921 C922 1.399 . S
C921 C926 1.399 . S
C922 C921 1.399 . S
C922 C923 1.376 . S
C923 H910 0.930 . S
C923 C922 1.376 . S
C923 C924 1.388 . S
C924 H911 0.930 . S
C924 C923 1.388 . S
C924 C925 1.390 . S
C925 C924 1.390 . S
C925 C926 1.394 . S
C925 C931 1.430 1_655 S
C926 C921 1.399 . S
C926 C925 1.394 . S
C926 C927 1.516 1_655 S
C927 C926 1.516 1_455 S
C927 C928 1.502 . S
C927 C929 1.561 . S
C927 C930 1.526 . S
C928 H912 0.959 . S
C928 H913 0.959 . S
C928 H914 0.961 . S
C928 C927 1.502 . S
C929 H915 0.960 . S
C929 H916 0.961 . S
C929 H917 0.959 . S
C929 C927 1.561 . S
C930 C927 1.526 . S
C930 C931 1.417 . S
C930 C935 1.390 . S
C931 C925 1.430 1_455 S
C931 C930 1.417 . S
C931 C932 1.416 . S
C932 H918 0.929 1_455 S
C932 C931 1.416 . S
C932 C933 1.385 . S
C933 H919 0.931 . S
C933 C932 1.385 . S
C933 C934 1.389 . S
C934 C933 1.389 . S
C934 C935 1.387 . S
C935 H920 0.930 . S
C935 C930 1.390 . S
C935 C934 1.387 . S
C220 C19 0.984 . S
C232 C20 0.953 . S
C247 C42 0.974 . S
C259 C43 1.041 . S
C274 C65 0.972 . S
C286 C66 0.988 . S
C301 C87 1.077 . S
C313 C90 1.081 . S
C328 C110 1.090 . S
C340 C113 0.930 . S
C355 C133 1.088 . S
C367 C136 0.996 . S
C382 C159 0.958 . S
C394 C156 1.042 1_554 S
C409 C182 1.029 . S
C421 C179 1.040 . S
C436 C205 1.047 . S
C448 C202 1.044 1_554 S
C463 C132 1.461 . S
C475 C16 1.453 . S
C490 C39 1.447 . S
C502 C86 1.464 . S
C517 C62 1.452 . S
C529 C109 1.434 . S
C544 C64 1.194 . S
C556 C157 1.221 . S
C571 C180 1.145 . S
C583 C18 1.188 . S
C598 C203 1.222 . S
C610 C41 1.202 . S
C625 C200 1.032 . S
C637 C17 0.992 . S
C652 C40 1.033 . S
C664 C154 1.003 . S
C679 C177 1.031 . S
C691 C63 1.020 . S
C706 C67 1.238 . S
C718 C89 1.235 . S
C733 C112 1.241 . S
C745 C21 1.204 . S
C760 C44 1.218 . S
C772 C135 1.244 . S
C787 C201 1.316 . S
C799 C88 1.225 . S
C814 C155 1.291 . S
C826 C111 1.251 . S
C841 C178 1.289 . S
C853 C134 1.255 . S
C868 C158 0.974 . S
C880 C131 1.097 . S
C895 C85 1.131 . S
C907 C181 1.025 . S
C922 C204 0.971 . S
C934 C108 1.117 . S
