# Generated by pormake.
# Topology uky, (4)-cn, num edge types: 1
# Building blocks:
#     Node 0, Type 0, BuildingBlock: QUQFOY_clean_sbu_1, # of connection points: 4
#     Node 1, Type 0, BuildingBlock: QUQFOY_clean_sbu_1, # of connection points: 4
#     Node 2, Type 0, BuildingBlock: QUQFOY_clean_sbu_1, # of connection points: 4
#     Node 3, Type 0, BuildingBlock: QUQFOY_clean_sbu_1, # of connection points: 4
#     Node 4, Type 0, BuildingBlock: QUQFOY_clean_sbu_1, # of connection points: 4
#     Node 5, Type 0, BuildingBlock: QUQFOY_clean_sbu_1, # of connection points: 4
#     Node 6, Type 0, BuildingBlock: QUQFOY_clean_sbu_1, # of connection points: 4
#     Node 7, Type 0, BuildingBlock: QUQFOY_clean_sbu_1, # of connection points: 4
#     Node 8, Type 0, BuildingBlock: QUQFOY_clean_sbu_1, # of connection points: 4
#     Node 9, Type 0, BuildingBlock: QUQFOY_clean_sbu_1, # of connection points: 4
#     Node 10, Type 0, BuildingBlock: QUQFOY_clean_sbu_1, # of connection points: 4
#     Node 11, Type 0, BuildingBlock: QUQFOY_clean_sbu_1, # of connection points: 4
#     Node 12, Type 0, BuildingBlock: QUQFOY_clean_sbu_1, # of connection points: 4
#     Node 13, Type 0, BuildingBlock: QUQFOY_clean_sbu_1, # of connection points: 4
#     Node 14, Type 0, BuildingBlock: QUQFOY_clean_sbu_1, # of connection points: 4
#     Node 15, Type 0, BuildingBlock: QUQFOY_clean_sbu_1, # of connection points: 4
#     Node 16, Type 0, BuildingBlock: QUQFOY_clean_sbu_1, # of connection points: 4
#     Node 17, Type 0, BuildingBlock: QUQFOY_clean_sbu_1, # of connection points: 4
#     Node 18, Type 0, BuildingBlock: QUQFOY_clean_sbu_1, # of connection points: 4
#     Node 19, Type 0, BuildingBlock: QUQFOY_clean_sbu_1, # of connection points: 4
#     Node 20, Type 0, BuildingBlock: QUQFOY_clean_sbu_1, # of connection points: 4
#     Node 21, Type 0, BuildingBlock: QUQFOY_clean_sbu_1, # of connection points: 4
#     Node 22, Type 0, BuildingBlock: QUQFOY_clean_sbu_1, # of connection points: 4
#     Node 23, Type 0, BuildingBlock: QUQFOY_clean_sbu_1, # of connection points: 4
#     Node 24, Type 0, BuildingBlock: QUQFOY_clean_sbu_1, # of connection points: 4
#     Node 25, Type 0, BuildingBlock: QUQFOY_clean_sbu_1, # of connection points: 4
#     Node 26, Type 0, BuildingBlock: QUQFOY_clean_sbu_1, # of connection points: 4
#     Node 27, Type 0, BuildingBlock: QUQFOY_clean_sbu_1, # of connection points: 4
#     Node 28, Type 0, BuildingBlock: QUQFOY_clean_sbu_1, # of connection points: 4
#     Node 29, Type 0, BuildingBlock: QUQFOY_clean_sbu_1, # of connection points: 4
#     Node 30, Type 0, BuildingBlock: QUQFOY_clean_sbu_1, # of connection points: 4
#     Node 31, Type 0, BuildingBlock: QUQFOY_clean_sbu_1, # of connection points: 4
#     Node 32, Type 0, BuildingBlock: QUQFOY_clean_sbu_1, # of connection points: 4
#     Node 33, Type 0, BuildingBlock: QUQFOY_clean_sbu_1, # of connection points: 4
#     Node 34, Type 0, BuildingBlock: QUQFOY_clean_sbu_1, # of connection points: 4
#     Node 35, Type 0, BuildingBlock: QUQFOY_clean_sbu_1, # of connection points: 4
#     Node 36, Type 0, BuildingBlock: QUQFOY_clean_sbu_1, # of connection points: 4
#     Node 37, Type 0, BuildingBlock: QUQFOY_clean_sbu_1, # of connection points: 4
#     Node 38, Type 0, BuildingBlock: QUQFOY_clean_sbu_1, # of connection points: 4
#     Node 39, Type 0, BuildingBlock: QUQFOY_clean_sbu_1, # of connection points: 4
#     Node 40, Type 0, BuildingBlock: QUQFOY_clean_sbu_1, # of connection points: 4
#     Node 41, Type 0, BuildingBlock: QUQFOY_clean_sbu_1, # of connection points: 4
#     Node 42, Type 0, BuildingBlock: QUQFOY_clean_sbu_1, # of connection points: 4
#     Node 43, Type 0, BuildingBlock: QUQFOY_clean_sbu_1, # of connection points: 4
#     Node 44, Type 0, BuildingBlock: QUQFOY_clean_sbu_1, # of connection points: 4
#     Node 45, Type 0, BuildingBlock: QUQFOY_clean_sbu_1, # of connection points: 4
#     Node 46, Type 0, BuildingBlock: QUQFOY_clean_sbu_1, # of connection points: 4
#     Node 47, Type 0, BuildingBlock: QUQFOY_clean_sbu_1, # of connection points: 4
#     Edge 48, Type (0, 0), BuildingBlock: XIVTED_clean_linker_0, # of connection points: 2
#     Edge 49, Type (0, 0), BuildingBlock: XIVTED_clean_linker_0, # of connection points: 2
#     Edge 50, Type (0, 0), BuildingBlock: XIVTED_clean_linker_0, # of connection points: 2
#     Edge 51, Type (0, 0), BuildingBlock: XIVTED_clean_linker_0, # of connection points: 2
#     Edge 52, Type (0, 0), BuildingBlock: XIVTED_clean_linker_0, # of connection points: 2
#     Edge 53, Type (0, 0), BuildingBlock: XIVTED_clean_linker_0, # of connection points: 2
#     Edge 54, Type (0, 0), BuildingBlock: XIVTED_clean_linker_0, # of connection points: 2
#     Edge 55, Type (0, 0), BuildingBlock: XIVTED_clean_linker_0, # of connection points: 2
#     Edge 56, Type (0, 0), BuildingBlock: XIVTED_clean_linker_0, # of connection points: 2
#     Edge 57, Type (0, 0), BuildingBlock: XIVTED_clean_linker_0, # of connection points: 2
#     Edge 58, Type (0, 0), BuildingBlock: XIVTED_clean_linker_0, # of connection points: 2
#     Edge 59, Type (0, 0), BuildingBlock: XIVTED_clean_linker_0, # of connection points: 2
#     Edge 60, Type (0, 0), BuildingBlock: XIVTED_clean_linker_0, # of connection points: 2
#     Edge 61, Type (0, 0), BuildingBlock: XIVTED_clean_linker_0, # of connection points: 2
#     Edge 62, Type (0, 0), BuildingBlock: XIVTED_clean_linker_0, # of connection points: 2
#     Edge 63, Type (0, 0), BuildingBlock: XIVTED_clean_linker_0, # of connection points: 2
#     Edge 64, Type (0, 0), BuildingBlock: XIVTED_clean_linker_0, # of connection points: 2
#     Edge 65, Type (0, 0), BuildingBlock: XIVTED_clean_linker_0, # of connection points: 2
#     Edge 66, Type (0, 0), BuildingBlock: XIVTED_clean_linker_0, # of connection points: 2
#     Edge 67, Type (0, 0), BuildingBlock: XIVTED_clean_linker_0, # of connection points: 2
#     Edge 68, Type (0, 0), BuildingBlock: XIVTED_clean_linker_0, # of connection points: 2
#     Edge 69, Type (0, 0), BuildingBlock: XIVTED_clean_linker_0, # of connection points: 2
#     Edge 70, Type (0, 0), BuildingBlock: XIVTED_clean_linker_0, # of connection points: 2
#     Edge 71, Type (0, 0), BuildingBlock: XIVTED_clean_linker_0, # of connection points: 2
#     Edge 72, Type (0, 0), BuildingBlock: XIVTED_clean_linker_0, # of connection points: 2
#     Edge 73, Type (0, 0), BuildingBlock: XIVTED_clean_linker_0, # of connection points: 2
#     Edge 74, Type (0, 0), BuildingBlock: XIVTED_clean_linker_0, # of connection points: 2
#     Edge 75, Type (0, 0), BuildingBlock: XIVTED_clean_linker_0, # of connection points: 2
#     Edge 76, Type (0, 0), BuildingBlock: XIVTED_clean_linker_0, # of connection points: 2
#     Edge 77, Type (0, 0), BuildingBlock: XIVTED_clean_linker_0, # of connection points: 2
#     Edge 78, Type (0, 0), BuildingBlock: XIVTED_clean_linker_0, # of connection points: 2
#     Edge 79, Type (0, 0), BuildingBlock: XIVTED_clean_linker_0, # of connection points: 2
#     Edge 80, Type (0, 0), BuildingBlock: XIVTED_clean_linker_0, # of connection points: 2
#     Edge 81, Type (0, 0), BuildingBlock: XIVTED_clean_linker_0, # of connection points: 2
#     Edge 82, Type (0, 0), BuildingBlock: XIVTED_clean_linker_0, # of connection points: 2
#     Edge 83, Type (0, 0), BuildingBlock: XIVTED_clean_linker_0, # of connection points: 2
#     Edge 84, Type (0, 0), BuildingBlock: XIVTED_clean_linker_0, # of connection points: 2
#     Edge 85, Type (0, 0), BuildingBlock: XIVTED_clean_linker_0, # of connection points: 2
#     Edge 86, Type (0, 0), BuildingBlock: XIVTED_clean_linker_0, # of connection points: 2
#     Edge 87, Type (0, 0), BuildingBlock: XIVTED_clean_linker_0, # of connection points: 2
#     Edge 88, Type (0, 0), BuildingBlock: XIVTED_clean_linker_0, # of connection points: 2
#     Edge 89, Type (0, 0), BuildingBlock: XIVTED_clean_linker_0, # of connection points: 2
#     Edge 90, Type (0, 0), BuildingBlock: XIVTED_clean_linker_0, # of connection points: 2
#     Edge 91, Type (0, 0), BuildingBlock: XIVTED_clean_linker_0, # of connection points: 2
#     Edge 92, Type (0, 0), BuildingBlock: XIVTED_clean_linker_0, # of connection points: 2
#     Edge 93, Type (0, 0), BuildingBlock: XIVTED_clean_linker_0, # of connection points: 2
#     Edge 94, Type (0, 0), BuildingBlock: XIVTED_clean_linker_0, # of connection points: 2
#     Edge 95, Type (0, 0), BuildingBlock: XIVTED_clean_linker_0, # of connection points: 2
#     Edge 96, Type (0, 0), BuildingBlock: XIVTED_clean_linker_0, # of connection points: 2
#     Edge 97, Type (0, 0), BuildingBlock: XIVTED_clean_linker_0, # of connection points: 2
#     Edge 98, Type (0, 0), BuildingBlock: XIVTED_clean_linker_0, # of connection points: 2
#     Edge 99, Type (0, 0), BuildingBlock: XIVTED_clean_linker_0, # of connection points: 2
#     Edge 100, Type (0, 0), BuildingBlock: XIVTED_clean_linker_0, # of connection points: 2
#     Edge 101, Type (0, 0), BuildingBlock: XIVTED_clean_linker_0, # of connection points: 2
#     Edge 102, Type (0, 0), BuildingBlock: XIVTED_clean_linker_0, # of connection points: 2
#     Edge 103, Type (0, 0), BuildingBlock: XIVTED_clean_linker_0, # of connection points: 2
#     Edge 104, Type (0, 0), BuildingBlock: XIVTED_clean_linker_0, # of connection points: 2
#     Edge 105, Type (0, 0), BuildingBlock: XIVTED_clean_linker_0, # of connection points: 2
#     Edge 106, Type (0, 0), BuildingBlock: XIVTED_clean_linker_0, # of connection points: 2
#     Edge 107, Type (0, 0), BuildingBlock: XIVTED_clean_linker_0, # of connection points: 2
#     Edge 108, Type (0, 0), BuildingBlock: XIVTED_clean_linker_0, # of connection points: 2
#     Edge 109, Type (0, 0), BuildingBlock: XIVTED_clean_linker_0, # of connection points: 2
#     Edge 110, Type (0, 0), BuildingBlock: XIVTED_clean_linker_0, # of connection points: 2
#     Edge 111, Type (0, 0), BuildingBlock: XIVTED_clean_linker_0, # of connection points: 2
#     Edge 112, Type (0, 0), BuildingBlock: XIVTED_clean_linker_0, # of connection points: 2
#     Edge 113, Type (0, 0), BuildingBlock: XIVTED_clean_linker_0, # of connection points: 2
#     Edge 114, Type (0, 0), BuildingBlock: XIVTED_clean_linker_0, # of connection points: 2
#     Edge 115, Type (0, 0), BuildingBlock: XIVTED_clean_linker_0, # of connection points: 2
#     Edge 116, Type (0, 0), BuildingBlock: XIVTED_clean_linker_0, # of connection points: 2
#     Edge 117, Type (0, 0), BuildingBlock: XIVTED_clean_linker_0, # of connection points: 2
#     Edge 118, Type (0, 0), BuildingBlock: XIVTED_clean_linker_0, # of connection points: 2
#     Edge 119, Type (0, 0), BuildingBlock: XIVTED_clean_linker_0, # of connection points: 2
#     Edge 120, Type (0, 0), BuildingBlock: XIVTED_clean_linker_0, # of connection points: 2
#     Edge 121, Type (0, 0), BuildingBlock: XIVTED_clean_linker_0, # of connection points: 2
#     Edge 122, Type (0, 0), BuildingBlock: XIVTED_clean_linker_0, # of connection points: 2
#     Edge 123, Type (0, 0), BuildingBlock: XIVTED_clean_linker_0, # of connection points: 2
#     Edge 124, Type (0, 0), BuildingBlock: XIVTED_clean_linker_0, # of connection points: 2
#     Edge 125, Type (0, 0), BuildingBlock: XIVTED_clean_linker_0, # of connection points: 2
#     Edge 126, Type (0, 0), BuildingBlock: XIVTED_clean_linker_0, # of connection points: 2
#     Edge 127, Type (0, 0), BuildingBlock: XIVTED_clean_linker_0, # of connection points: 2
#     Edge 128, Type (0, 0), BuildingBlock: XIVTED_clean_linker_0, # of connection points: 2
#     Edge 129, Type (0, 0), BuildingBlock: XIVTED_clean_linker_0, # of connection points: 2
#     Edge 130, Type (0, 0), BuildingBlock: XIVTED_clean_linker_0, # of connection points: 2
#     Edge 131, Type (0, 0), BuildingBlock: XIVTED_clean_linker_0, # of connection points: 2
#     Edge 132, Type (0, 0), BuildingBlock: XIVTED_clean_linker_0, # of connection points: 2
#     Edge 133, Type (0, 0), BuildingBlock: XIVTED_clean_linker_0, # of connection points: 2
#     Edge 134, Type (0, 0), BuildingBlock: XIVTED_clean_linker_0, # of connection points: 2
#     Edge 135, Type (0, 0), BuildingBlock: XIVTED_clean_linker_0, # of connection points: 2
#     Edge 136, Type (0, 0), BuildingBlock: XIVTED_clean_linker_0, # of connection points: 2
#     Edge 137, Type (0, 0), BuildingBlock: XIVTED_clean_linker_0, # of connection points: 2
#     Edge 138, Type (0, 0), BuildingBlock: XIVTED_clean_linker_0, # of connection points: 2
#     Edge 139, Type (0, 0), BuildingBlock: XIVTED_clean_linker_0, # of connection points: 2
#     Edge 140, Type (0, 0), BuildingBlock: XIVTED_clean_linker_0, # of connection points: 2
#     Edge 141, Type (0, 0), BuildingBlock: XIVTED_clean_linker_0, # of connection points: 2
#     Edge 142, Type (0, 0), BuildingBlock: XIVTED_clean_linker_0, # of connection points: 2
#     Edge 143, Type (0, 0), BuildingBlock: XIVTED_clean_linker_0, # of connection points: 2
# Relax obj value: 0.296
# Max RMSD: 0.255
# Mean RMSD: 0.253
data_MOF--net-uky--node1-QUQFOY_clean_sbu_1--edge1-XIVTED_clean_linker_0
_symmetry_space_group_name_H-M    P1
_symmetry_Int_Tables_number       1
_symmetry_cell_setting            triclinic
loop_
_symmetry_equiv_pos_as_xyz
'x, y, z'
_cell_length_a     63.974878
_cell_length_b     63.977315
_cell_length_c     63.962917
_cell_angle_alpha  89.99858
_cell_angle_beta   89.97791
_cell_angle_gamma 89.984541
loop_
_atom_site_label
_atom_site_type_symbol
_atom_site_fract_x
_atom_site_fract_y
_atom_site_fract_z
_atom_type_partial_charge
O0 O 0.24498 0.17223 0.41118 0.0
Cd1 Cd 0.23457 0.1704 0.38057 0.0
Cd2 Cd 0.23913 0.21192 0.38137 0.0
O3 O 0.23973 0.20626 0.41307 0.0
O4 O 0.21381 0.14721 0.37794 0.0
O5 O 0.20549 0.18091 0.37748 0.0
C6 C 0.19961 0.16159 0.37759 0.0
C7 C 0.22124 0.24088 0.36791 0.0
C8 C 0.24388 0.18894 0.42192 0.0
C9 C 0.2678 0.18721 0.35341 0.0
O10 O 0.26487 0.20387 0.36381 0.0
O11 O 0.25574 0.17161 0.35595 0.0
O12 O 0.23823 0.24295 0.37852 0.0
O13 O 0.21372 0.22228 0.36574 0.0
O14 O 0.07784 0.99329 0.66414 0.0
Cd15 Cd 0.07975 0.98378 0.6333 0.0
Cd16 Cd 0.03823 0.98744 0.63432 0.0
O17 O 0.04403 0.98681 0.66607 0.0
O18 O 0.10315 0.96332 0.63005 0.0
O19 O 0.06952 0.95473 0.62949 0.0
C20 C 0.0889 0.94901 0.62944 0.0
C21 C 0.00983 0.96927 0.62 0.0
C22 C 0.06126 0.99124 0.67495 0.0
C23 C 0.06229 0.01767 0.60751 0.0
O24 O 0.04573 0.01409 0.61788 0.0
O25 O 0.07806 0.00572 0.60944 0.0
O26 O 0.00722 0.98565 0.63143 0.0
O27 O 0.02866 0.9625 0.61744 0.0
O28 O 0.26064 0.82181 0.91441 0.0
Cd29 Cd 0.26854 0.82449 0.88316 0.0
Cd30 Cd 0.26553 0.78277 0.88455 0.0
O31 O 0.26545 0.78776 0.91641 0.0
O32 O 0.28623 0.85001 0.88049 0.0
O33 O 0.29807 0.81776 0.87567 0.0
C34 C 0.30174 0.8376 0.87683 0.0
C35 C 0.28467 0.75514 0.87005 0.0
C36 C 0.2618 0.80519 0.92524 0.0
C37 C 0.23411 0.8066 0.85839 0.0
O38 O 0.23878 0.78984 0.86798 0.0
O39 O 0.24528 0.82289 0.86065 0.0
O40 O 0.2681 0.75192 0.88103 0.0
O41 O 0.29106 0.77417 0.86804 0.0
O42 O 0.42823 0.00822 0.16031 0.0
Cd43 Cd 0.42506 0.017 0.12931 0.0
Cd44 Cd 0.46674 0.01353 0.12989 0.0
O45 O 0.46225 0.01329 0.16178 0.0
O46 O 0.39889 0.03377 0.12774 0.0
O47 O 0.43052 0.04712 0.12291 0.0
C48 C 0.41056 0.04993 0.12458 0.0
C49 C 0.49478 0.03209 0.1155 0.0
C50 C 0.44503 0.00939 0.17087 0.0
C51 C 0.4423 0.98303 0.10342 0.0
O52 O 0.45916 0.98707 0.11311 0.0
O53 O 0.42628 0.99452 0.106 0.0
O54 O 0.49759 0.01536 0.12635 0.0
O55 O 0.47591 0.03896 0.1135 0.0
O56 O 0.24231 0.82532 0.09088 0.0
Cd57 Cd 0.23411 0.82954 0.12194 0.0
Cd58 Cd 0.23707 0.7877 0.1227 0.0
O59 O 0.23733 0.79125 0.09071 0.0
O60 O 0.2168 0.85538 0.12318 0.0
O61 O 0.20439 0.8236 0.12947 0.0
C62 C 0.20106 0.84343 0.12733 0.0
C63 C 0.21901 0.75946 0.13742 0.0
C64 C 0.24112 0.80813 0.08097 0.0
C65 C 0.26814 0.81291 0.14799 0.0
O66 O 0.26359 0.79571 0.13917 0.0
O67 O 0.25702 0.82907 0.14482 0.0
O68 O 0.23583 0.75689 0.12667 0.0
O69 O 0.21179 0.77822 0.13923 0.0
O70 O 0.42794 0.99188 0.33702 0.0
Cd71 Cd 0.42419 0.98393 0.36817 0.0
Cd72 Cd 0.46604 0.9875 0.36846 0.0
O73 O 0.46212 0.98765 0.33648 0.0
O74 O 0.39857 0.96634 0.36979 0.0
O75 O 0.43055 0.95435 0.37585 0.0
C76 C 0.41075 0.95077 0.37391 0.0
C77 C 0.49424 0.96927 0.38303 0.0
C78 C 0.44504 0.99097 0.32691 0.0
C79 C 0.44067 0.01831 0.39399 0.0
O80 O 0.4579 0.0139 0.38512 0.0
O81 O 0.4246 0.00705 0.39084 0.0
O82 O 0.49688 0.98613 0.37236 0.0
O83 O 0.47544 0.96213 0.38484 0.0
O84 O 0.25817 0.17083 0.589 0.0
Cd85 Cd 0.26764 0.16909 0.61989 0.0
Cd86 Cd 0.26393 0.21073 0.61869 0.0
O87 O 0.26431 0.2047 0.58702 0.0
O88 O 0.28847 0.14603 0.62326 0.0
O89 O 0.29651 0.17978 0.62381 0.0
C90 C 0.30255 0.16051 0.62392 0.0
C91 C 0.28176 0.23971 0.63224 0.0
C92 C 0.26002 0.18742 0.57817 0.0
C93 C 0.2338 0.18663 0.64575 0.0
O94 O 0.23747 0.20321 0.63545 0.0
O95 O 0.24563 0.17078 0.64371 0.0
O96 O 0.26517 0.24181 0.62103 0.0
O97 O 0.2889 0.22106 0.63507 0.0
O98 O 0.08093 0.00643 0.84182 0.0
Cd99 Cd 0.08287 0.01689 0.8724 0.0
Cd100 Cd 0.04131 0.01201 0.87194 0.0
O101 O 0.04683 0.01129 0.84019 0.0
O102 O 0.10564 0.03813 0.87483 0.0
O103 O 0.07178 0.0457 0.87567 0.0
C104 C 0.09096 0.052 0.87538 0.0
C105 C 0.01209 0.02964 0.88526 0.0
C106 C 0.06412 0.00731 0.83121 0.0
C107 C 0.0666 0.98366 0.89981 0.0
O108 O 0.04978 0.98648 0.88964 0.0
O109 O 0.08211 0.99576 0.89702 0.0
O110 O 0.01026 0.01254 0.8748 0.0
O111 O 0.03058 0.03739 0.88743 0.0
O112 O 0.40909 0.24069 0.16911 0.0
Cd113 Cd 0.37823 0.23142 0.16606 0.0
Cd114 Cd 0.37857 0.23519 0.20764 0.0
O115 O 0.41045 0.23565 0.20314 0.0
O116 O 0.37683 0.21245 0.1414 0.0
O117 O 0.372 0.20194 0.17412 0.0
C118 C 0.37376 0.19738 0.1545 0.0
C119 C 0.36468 0.21745 0.23653 0.0
C120 C 0.41957 0.23968 0.18596 0.0
C121 C 0.35221 0.26543 0.18251 0.0
O122 O 0.36177 0.26146 0.19946 0.0
O123 O 0.35475 0.2538 0.16659 0.0
O124 O 0.37538 0.23437 0.2386 0.0
O125 O 0.36243 0.20998 0.21792 0.0
O126 O 0.00785 0.16332 0.42685 0.0
Cd127 Cd 0.01748 0.1325 0.42492 0.0
Cd128 Cd 0.01398 0.13364 0.46647 0.0
O129 O 0.01429 0.16534 0.46067 0.0
O130 O 0.03786 0.12925 0.40144 0.0
O131 O 0.04657 0.12861 0.43504 0.0
C132 C 0.05223 0.12854 0.41564 0.0
C133 C 0.03213 0.11958 0.49502 0.0
C134 C 0.00975 0.17416 0.44343 0.0
C135 C 0.98365 0.10678 0.44257 0.0
O136 O 0.98736 0.11713 0.4591 0.0
O137 O 0.99552 0.10866 0.42672 0.0
O138 O 0.01565 0.13089 0.49751 0.0
O139 O 0.039 0.11699 0.47623 0.0
O140 O 0.08954 0.75574 0.67597 0.0
Cd141 Cd 0.12005 0.76641 0.67415 0.0
Cd142 Cd 0.11943 0.76065 0.71549 0.0
O143 O 0.08767 0.75982 0.71016 0.0
O144 O 0.12242 0.78726 0.65103 0.0
O145 O 0.12327 0.79544 0.68476 0.0
C146 C 0.12304 0.8014 0.66545 0.0
C147 C 0.13312 0.77817 0.74456 0.0
C148 C 0.07883 0.75612 0.69274 0.0
C149 C 0.14741 0.73286 0.68982 0.0
O150 O 0.13712 0.73524 0.70664 0.0
O151 O 0.14471 0.74535 0.6746 0.0
O152 O 0.12268 0.76106 0.7465 0.0
O153 O 0.13499 0.78601 0.72606 0.0
O154 O 0.49194 0.83896 0.92033 0.0
Cd155 Cd 0.483 0.86991 0.91722 0.0
Cd156 Cd 0.48678 0.86952 0.95879 0.0
O157 O 0.48662 0.83766 0.95433 0.0
O158 O 0.46507 0.87138 0.89183 0.0
O159 O 0.45315 0.87609 0.92407 0.0
C160 C 0.44943 0.87431 0.90428 0.0
C161 C 0.46924 0.88391 0.98752 0.0
C162 C 0.49059 0.82848 0.93717 0.0
C163 C 0.51724 0.8956 0.93377 0.0
O164 O 0.51331 0.88592 0.95067 0.0
O165 O 0.50549 0.89324 0.91791 0.0
O166 O 0.48596 0.87291 0.98971 0.0
O167 O 0.4618 0.88609 0.96888 0.0
O168 O 0.41235 0.76068 0.32983 0.0
Cd169 Cd 0.38129 0.76902 0.33341 0.0
Cd170 Cd 0.38117 0.76636 0.29168 0.0
O171 O 0.41307 0.76635 0.29587 0.0
O172 O 0.37964 0.78742 0.35848 0.0
O173 O 0.37421 0.79848 0.32603 0.0
C174 C 0.37606 0.80267 0.34572 0.0
C175 C 0.36692 0.78448 0.26324 0.0
C176 C 0.42255 0.76227 0.31284 0.0
C177 C 0.35566 0.73499 0.31639 0.0
O178 O 0.36477 0.73969 0.29937 0.0
O179 O 0.35841 0.74611 0.33264 0.0
O180 O 0.37777 0.76771 0.26078 0.0
O181 O 0.36472 0.79159 0.282 0.0
O182 O 0.49469 0.16012 0.57736 0.0
Cd183 Cd 0.48488 0.12936 0.57941 0.0
Cd184 Cd 0.48764 0.13036 0.53762 0.0
O185 O 0.48831 0.16202 0.54352 0.0
O186 O 0.46461 0.1262 0.60298 0.0
O187 O 0.45571 0.12562 0.56942 0.0
C188 C 0.45017 0.12555 0.58885 0.0
C189 C 0.46948 0.11757 0.50849 0.0
C190 C 0.49298 0.17087 0.5607 0.0
C191 C 0.51784 0.10283 0.56133 0.0
O192 O 0.51373 0.11289 0.54471 0.0
O193 O 0.50663 0.10534 0.57756 0.0
O194 O 0.48637 0.12832 0.50654 0.0
O195 O 0.46221 0.11478 0.52711 0.0
O196 O 0.08838 0.24335 0.82585 0.0
Cd197 Cd 0.11926 0.23396 0.82782 0.0
Cd198 Cd 0.11799 0.2368 0.78622 0.0
O199 O 0.0863 0.23653 0.79211 0.0
O200 O 0.12279 0.21414 0.8517 0.0
O201 O 0.12333 0.2047 0.81829 0.0
C202 C 0.12357 0.19948 0.8378 0.0
C203 C 0.13204 0.21817 0.75796 0.0
C204 C 0.07751 0.24123 0.80933 0.0
C205 C 0.14479 0.2676 0.80958 0.0
O206 O 0.13445 0.26358 0.79311 0.0
O207 O 0.14295 0.256 0.82562 0.0
O208 O 0.12068 0.23458 0.75521 0.0
O209 O 0.13468 0.21164 0.77686 0.0
O210 O 0.01148 0.83993 0.08218 0.0
Cd211 Cd 0.0194 0.87099 0.0865 0.0
Cd212 Cd 0.01891 0.87198 0.04461 0.0
O213 O 0.01975 0.84004 0.04875 0.0
O214 O 0.03717 0.87259 0.112 0.0
O215 O 0.04895 0.87836 0.07984 0.0
C216 C 0.05269 0.87639 0.09962 0.0
C217 C 0.03715 0.88635 0.01625 0.0
C218 C 0.01468 0.83011 0.0652 0.0
C219 C 0.9861 0.89674 0.06837 0.0
O220 O 0.99167 0.88794 0.05144 0.0
O221 O 0.99643 0.89377 0.08508 0.0
O222 O 0.02071 0.87504 0.01369 0.0
O223 O 0.04386 0.88903 0.03509 0.0
O224 O 0.17523 0.41147 0.24281 0.0
Cd225 Cd 0.17164 0.38044 0.23445 0.0
Cd226 Cd 0.21335 0.38086 0.23519 0.0
O227 O 0.20892 0.41278 0.23576 0.0
O228 O 0.14546 0.37842 0.2177 0.0
O229 O 0.1772 0.37368 0.20452 0.0
C230 C 0.15725 0.37515 0.20162 0.0
C231 C 0.24028 0.36643 0.21498 0.0
C232 C 0.19198 0.42194 0.24066 0.0
C233 C 0.19067 0.35482 0.26753 0.0
O234 O 0.20735 0.36419 0.26215 0.0
O235 O 0.17392 0.35748 0.25718 0.0
O236 O 0.24406 0.37732 0.23149 0.0
O237 O 0.22103 0.36439 0.20929 0.0
O238 O 0.67606 0.08832 0.75522 0.0
Cd239 Cd 0.67253 0.11932 0.76387 0.0
Cd240 Cd 0.71415 0.11923 0.7608 0.0
O241 O 0.70998 0.0873 0.76097 0.0
O242 O 0.64662 0.12081 0.78106 0.0
O243 O 0.67846 0.1258 0.79384 0.0
C244 C 0.65858 0.12403 0.79701 0.0
C245 C 0.74197 0.13415 0.77927 0.0
C246 C 0.69294 0.07796 0.75685 0.0
C247 C 0.68969 0.14523 0.72995 0.0
O248 O 0.70657 0.13562 0.73409 0.0
O249 O 0.67364 0.14264 0.74138 0.0
O250 O 0.74495 0.12307 0.76272 0.0
O251 O 0.72305 0.13609 0.78603 0.0
O252 O 0.16393 0.42366 0.01343 0.0
Cd253 Cd 0.13266 0.42 0.02081 0.0
Cd254 Cd 0.13256 0.46188 0.01998 0.0
O255 O 0.16444 0.45722 0.02109 0.0
O256 O 0.13003 0.39471 0.03879 0.0
O257 O 0.12465 0.42709 0.05008 0.0
C258 C 0.126 0.40732 0.05406 0.0
C259 C 0.11816 0.49024 0.03823 0.0
C260 C 0.17407 0.44049 0.01637 0.0
C261 C 0.10801 0.43844 0.98682 0.0
O262 O 0.11692 0.45526 0.99252 0.0
O263 O 0.11051 0.42173 0.99729 0.0
O264 O 0.12972 0.49283 0.02196 0.0
O265 O 0.11529 0.47137 0.04479 0.0
O266 O 0.82339 0.91435 0.2574 0.0
Cd267 Cd 0.82602 0.88368 0.26742 0.0
Cd268 Cd 0.78459 0.88406 0.26416 0.0
O269 O 0.78957 0.91586 0.26394 0.0
O270 O 0.85003 0.88105 0.28725 0.0
O271 O 0.81669 0.87994 0.29684 0.0
C272 C 0.83622 0.88021 0.30199 0.0
C273 C 0.75657 0.86954 0.28271 0.0
C274 C 0.80661 0.9249 0.25914 0.0
C275 C 0.80869 0.85739 0.23389 0.0
O276 O 0.79202 0.86753 0.23758 0.0
O277 O 0.82453 0.85959 0.2457 0.0
O278 O 0.75368 0.88068 0.26619 0.0
O279 O 0.77548 0.86739 0.28941 0.0
O280 O 0.83892 0.07319 0.00791 0.0
Cd281 Cd 0.86982 0.07662 0.01682 0.0
Cd282 Cd 0.86944 0.03482 0.01435 0.0
O283 O 0.83755 0.03924 0.01348 0.0
O284 O 0.87129 0.10228 0.03443 0.0
O285 O 0.87636 0.07021 0.04666 0.0
C286 C 0.8746 0.09004 0.05016 0.0
C287 C 0.88354 0.00697 0.03349 0.0
C288 C 0.82844 0.05636 0.00918 0.0
C289 C 0.89597 0.0589 0.98338 0.0
O290 O 0.88654 0.04203 0.98798 0.0
O291 O 0.89314 0.07525 0.99433 0.0
O292 O 0.87299 0.00397 0.01661 0.0
O293 O 0.88541 0.02592 0.04016 0.0
O294 O 0.33017 0.58814 0.74068 0.0
Cd295 Cd 0.33458 0.61928 0.73304 0.0
Cd296 Cd 0.29277 0.62045 0.73401 0.0
O297 O 0.29672 0.58853 0.7326 0.0
O298 O 0.35971 0.621 0.71473 0.0
O299 O 0.32735 0.62702 0.70372 0.0
C300 C 0.34703 0.62502 0.69953 0.0
C301 C 0.26421 0.63517 0.71642 0.0
C302 C 0.31312 0.57845 0.73747 0.0
C303 C 0.31692 0.64452 0.76697 0.0
O304 O 0.29993 0.6358 0.76148 0.0
O305 O 0.33349 0.64178 0.75633 0.0
O306 O 0.26185 0.62359 0.73271 0.0
O307 O 0.28296 0.63795 0.70949 0.0
O308 O 0.16166 0.5762 0.49513 0.0
Cd309 Cd 0.13092 0.58099 0.48619 0.0
Cd310 Cd 0.12934 0.5393 0.48779 0.0
O311 O 0.16135 0.54257 0.48782 0.0
O312 O 0.12424 0.57451 0.45642 0.0
O313 O 0.13041 0.6065 0.46837 0.0
C314 C 0.12673 0.59424 0.45275 0.0
C315 C 0.11448 0.51125 0.46955 0.0
C316 C 0.17133 0.55899 0.4928 0.0
C317 C 0.1042 0.56407 0.51936 0.0
O318 O 0.11304 0.54694 0.51455 0.0
O319 O 0.10746 0.58042 0.50854 0.0
O320 O 0.12536 0.50849 0.48624 0.0
O321 O 0.11257 0.53008 0.46256 0.0
O322 O 0.33933 0.42309 0.99358 0.0
Cd323 Cd 0.36967 0.41999 0.98264 0.0
Cd324 Cd 0.37021 0.46169 0.98534 0.0
O325 O 0.33842 0.45687 0.98676 0.0
O326 O 0.37158 0.39657 0.96205 0.0
O327 O 0.37282 0.43018 0.95347 0.0
C328 C 0.3723 0.41082 0.94774 0.0
C329 C 0.38348 0.49048 0.96695 0.0
C330 C 0.32912 0.4401 0.99197 0.0
C331 C 0.39767 0.43713 0.0148 0.0
O332 O 0.38792 0.45404 0.01111 0.0
O333 O 0.39449 0.42108 0.00353 0.0
O334 O 0.37319 0.49269 0.98412 0.0
O335 O 0.38555 0.47181 0.95958 0.0
O336 O 0.73931 0.67316 0.91224 0.0
Cd337 Cd 0.73084 0.67025 0.88115 0.0
Cd338 Cd 0.73379 0.712 0.88194 0.0
O339 O 0.73383 0.70712 0.91377 0.0
O340 O 0.71353 0.64449 0.87903 0.0
O341 O 0.70098 0.67651 0.87448 0.0
C342 C 0.69769 0.65661 0.87586 0.0
C343 C 0.71562 0.74059 0.86805 0.0
C344 C 0.73785 0.6899 0.92284 0.0
C345 C 0.76485 0.68782 0.85569 0.0
O346 O 0.76041 0.70464 0.86528 0.0
O347 O 0.75359 0.67163 0.85813 0.0
O348 O 0.73231 0.74294 0.87905 0.0
O349 O 0.70857 0.72185 0.86557 0.0
O350 O 0.57761 0.49299 0.16066 0.0
Cd351 Cd 0.58178 0.48523 0.1295 0.0
Cd352 Cd 0.53994 0.48678 0.12877 0.0
O353 O 0.54383 0.48633 0.16073 0.0
O354 O 0.57513 0.45573 0.12195 0.0
O355 O 0.60726 0.46743 0.12783 0.0
C356 C 0.59489 0.45196 0.1239 0.0
C357 C 0.51196 0.46827 0.11411 0.0
C358 C 0.56053 0.49068 0.17056 0.0
C359 C 0.56411 0.51894 0.10377 0.0
O360 O 0.5471 0.51379 0.11266 0.0
O361 O 0.58061 0.50827 0.10674 0.0
O362 O 0.53088 0.46161 0.11183 0.0
O363 O 0.5091 0.48481 0.12521 0.0
O364 O 0.75367 0.32756 0.40955 0.0
Cd365 Cd 0.76387 0.32942 0.3789 0.0
Cd366 Cd 0.75955 0.28804 0.38 0.0
O367 O 0.75967 0.29368 0.41174 0.0
O368 O 0.78453 0.35271 0.37619 0.0
O369 O 0.79294 0.31905 0.37561 0.0
C370 C 0.79877 0.33838 0.37578 0.0
C371 C 0.77771 0.25963 0.3657 0.0
C372 C 0.75525 0.311 0.42046 0.0
C373 C 0.73014 0.3125 0.35268 0.0
O374 O 0.73324 0.29597 0.36324 0.0
O375 O 0.74239 0.32803 0.35461 0.0
O376 O 0.76109 0.25704 0.37678 0.0
O377 O 0.78472 0.27842 0.36352 0.0
O378 O 0.92357 0.50917 0.66457 0.0
Cd379 Cd 0.91931 0.51713 0.6335 0.0
Cd380 Cd 0.96124 0.51494 0.63254 0.0
O381 O 0.95754 0.51479 0.66453 0.0
O382 O 0.8936 0.53462 0.63221 0.0
O383 O 0.9255 0.54678 0.62601 0.0
C384 C 0.90571 0.55028 0.62821 0.0
C385 C 0.98934 0.53345 0.6181 0.0
C386 C 0.94076 0.51082 0.67439 0.0
C387 C 0.93644 0.48339 0.60731 0.0
O388 O 0.95364 0.48835 0.61593 0.0
O389 O 0.92006 0.49412 0.6107 0.0
O390 O 0.99207 0.5166 0.62876 0.0
O391 O 0.97049 0.5404 0.61617 0.0
O392 O 0.74069 0.32902 0.58688 0.0
Cd393 Cd 0.733 0.33243 0.61812 0.0
Cd394 Cd 0.73645 0.29056 0.61823 0.0
O395 O 0.73617 0.29488 0.58632 0.0
O396 O 0.71431 0.35725 0.62028 0.0
O397 O 0.70383 0.32466 0.62592 0.0
C398 C 0.69934 0.3443 0.62428 0.0
C399 C 0.71875 0.26184 0.63248 0.0
C400 C 0.73948 0.31197 0.57674 0.0
C401 C 0.76753 0.31584 0.64359 0.0
O402 O 0.76296 0.29867 0.63471 0.0
O403 O 0.7563 0.33197 0.64062 0.0
O404 O 0.73556 0.25963 0.62163 0.0
O405 O 0.71137 0.2805 0.6347 0.0
O406 O 0.92859 0.4951 0.84167 0.0
Cd407 Cd 0.92716 0.48478 0.87228 0.0
Cd408 Cd 0.96858 0.48876 0.87045 0.0
O409 O 0.96244 0.48922 0.83881 0.0
O410 O 0.90323 0.46495 0.87532 0.0
O411 O 0.93658 0.45532 0.87529 0.0
C412 C 0.91704 0.4502 0.87546 0.0
C413 C 0.99692 0.47001 0.88404 0.0
C414 C 0.94497 0.49369 0.83045 0.0
C415 C 0.94491 0.51813 0.89855 0.0
O416 O 0.9613 0.51488 0.8878 0.0
O417 O 0.92916 0.50616 0.89659 0.0
O418 O 0.99958 0.48677 0.87319 0.0
O419 O 0.97808 0.46318 0.88632 0.0
O420 O 0.75791 0.67498 0.08917 0.0
Cd421 Cd 0.76788 0.67295 0.11989 0.0
Cd422 Cd 0.76358 0.71439 0.11913 0.0
O423 O 0.76336 0.70898 0.08737 0.0
O424 O 0.78856 0.6497 0.12289 0.0
O425 O 0.79691 0.68338 0.12362 0.0
C426 C 0.80277 0.66404 0.12362 0.0
C427 C 0.78145 0.74309 0.13317 0.0
C428 C 0.75914 0.69171 0.07846 0.0
C429 C 0.734 0.68975 0.14618 0.0
O430 O 0.73735 0.70646 0.13599 0.0
O431 O 0.74607 0.67411 0.14394 0.0
O432 O 0.76475 0.7454 0.12217 0.0
O433 O 0.78872 0.72441 0.13543 0.0
O434 O 0.57242 0.50534 0.33804 0.0
Cd435 Cd 0.5735 0.51558 0.36871 0.0
Cd436 Cd 0.53215 0.51039 0.36686 0.0
O437 O 0.53837 0.50991 0.33522 0.0
O438 O 0.59722 0.53561 0.37194 0.0
O439 O 0.5638 0.54496 0.37188 0.0
C440 C 0.5833 0.55024 0.37221 0.0
C441 C 0.50344 0.52872 0.38026 0.0
C442 C 0.556 0.50611 0.32684 0.0
C443 C 0.55647 0.48188 0.39523 0.0
O444 O 0.53999 0.4846 0.38449 0.0
O445 O 0.57192 0.49419 0.39307 0.0
O446 O 0.50112 0.51182 0.36954 0.0
O447 O 0.52216 0.53589 0.38255 0.0
O448 O 0.91251 0.73959 0.67624 0.0
Cd449 Cd 0.8813 0.73174 0.6728 0.0
Cd450 Cd 0.88153 0.7346 0.71452 0.0
O451 O 0.91343 0.734 0.7102 0.0
O452 O 0.87934 0.71423 0.64714 0.0
O453 O 0.87386 0.7021 0.67919 0.0
C454 C 0.87557 0.69859 0.65935 0.0
C455 C 0.86662 0.71639 0.74255 0.0
C456 C 0.92283 0.73785 0.69313 0.0
C457 C 0.85609 0.7661 0.69009 0.0
O458 O 0.86544 0.76152 0.70701 0.0
O459 O 0.85859 0.75484 0.6739 0.0
O460 O 0.87782 0.73287 0.74537 0.0
O461 O 0.86454 0.70956 0.72367 0.0
O462 O 0.50791 0.66212 0.92221 0.0
Cd463 Cd 0.51604 0.63098 0.91908 0.0
Cd464 Cd 0.51326 0.63148 0.96093 0.0
O465 O 0.513 0.66334 0.95626 0.0
O466 O 0.53444 0.62875 0.89403 0.0
O467 O 0.54539 0.62369 0.92657 0.0
C468 C 0.54962 0.62512 0.90686 0.0
C469 C 0.5319 0.61753 0.9892 0.0
C470 C 0.50921 0.67256 0.93908 0.0
C471 C 0.48205 0.60546 0.93656 0.0
O472 O 0.48676 0.61469 0.95351 0.0
O473 O 0.49305 0.60821 0.92023 0.0
O474 O 0.51505 0.62822 0.99185 0.0
O475 O 0.53878 0.61536 0.97035 0.0
O476 O 0.58538 0.26148 0.17097 0.0
Cd477 Cd 0.6165 0.26974 0.16774 0.0
Cd478 Cd 0.6162 0.26597 0.20943 0.0
O479 O 0.58428 0.26573 0.20513 0.0
O480 O 0.6184 0.28752 0.14226 0.0
O481 O 0.62383 0.29934 0.17442 0.0
C482 C 0.62221 0.30303 0.1546 0.0
C483 C 0.63062 0.28422 0.23767 0.0
C484 C 0.575 0.2623 0.1879 0.0
C485 C 0.64222 0.23539 0.1844 0.0
O486 O 0.63296 0.23959 0.20148 0.0
O487 O 0.63936 0.2468 0.16838 0.0
O488 O 0.61984 0.26743 0.2403 0.0
O489 O 0.63255 0.29132 0.21887 0.0
O490 O 0.99055 0.34062 0.4245 0.0
Cd491 Cd 0.98025 0.37124 0.42263 0.0
Cd492 Cd 0.9842 0.37033 0.4642 0.0
O493 O 0.98496 0.33864 0.45847 0.0
O494 O 0.96006 0.37405 0.399 0.0
O495 O 0.95097 0.37462 0.43252 0.0
C496 C 0.94554 0.37459 0.41305 0.0
C497 C 0.96629 0.3834 0.49336 0.0
C498 C 0.98935 0.32985 0.44119 0.0
C499 C 0.01345 0.39805 0.43977 0.0
O500 O 0.0101 0.38781 0.45646 0.0
O501 O 0.00163 0.39558 0.42399 0.0
O502 O 0.98327 0.37275 0.49526 0.0
O503 O 0.9588 0.38591 0.47479 0.0
O504 O 0.911 0.25955 0.82481 0.0
Cd505 Cd 0.88045 0.26997 0.82696 0.0
Cd506 Cd 0.88122 0.26674 0.78533 0.0
O507 O 0.91293 0.26594 0.79098 0.0
O508 O 0.87798 0.29025 0.85058 0.0
O509 O 0.87727 0.29923 0.81705 0.0
C510 C 0.87758 0.30473 0.83649 0.0
C511 C 0.86803 0.28519 0.75655 0.0
C512 C 0.92175 0.26115 0.80814 0.0
C513 C 0.85358 0.23706 0.80938 0.0
O514 O 0.8638 0.2407 0.79273 0.0
O515 O 0.85604 0.24865 0.82535 0.0
O516 O 0.8787 0.26827 0.75429 0.0
O517 O 0.86554 0.29229 0.77528 0.0
O518 O 0.99716 0.66404 0.08044 0.0
Cd519 Cd 0.98669 0.63351 0.08316 0.0
Cd520 Cd 0.99117 0.633 0.04167 0.0
O521 O 0.99129 0.66484 0.04648 0.0
O522 O 0.96541 0.63143 0.10596 0.0
O523 O 0.95787 0.63 0.07211 0.0
C524 C 0.95154 0.63055 0.09129 0.0
C525 C 0.97391 0.61886 0.01264 0.0
C526 C 0.9957 0.67426 0.06342 0.0
C527 C 0.02006 0.60608 0.06725 0.0
O528 O 0.01711 0.61601 0.0503 0.0
O529 O 0.00791 0.60892 0.08273 0.0
O530 O 0.99076 0.6297 0.01068 0.0
O531 O 0.96619 0.61675 0.03116 0.0
O532 O 0.58917 0.74262 0.32757 0.0
Cd533 Cd 0.61967 0.73207 0.32917 0.0
Cd534 Cd 0.61834 0.73635 0.28782 0.0
O535 O 0.58665 0.73657 0.29372 0.0
O536 O 0.6223 0.71107 0.35218 0.0
O537 O 0.6226 0.70311 0.3184 0.0
C538 C 0.62245 0.69701 0.33766 0.0
C539 C 0.63218 0.71839 0.25904 0.0
C540 C 0.57812 0.74117 0.31109 0.0
C541 C 0.64585 0.76573 0.31217 0.0
O542 O 0.63527 0.76257 0.29567 0.0
O543 O 0.64399 0.7535 0.32773 0.0
O544 O 0.62109 0.73505 0.25676 0.0
O545 O 0.63464 0.71123 0.27774 0.0
O546 O 0.50892 0.33754 0.57901 0.0
Cd547 Cd 0.51716 0.36872 0.58175 0.0
Cd548 Cd 0.51288 0.36793 0.54011 0.0
O549 O 0.51368 0.33611 0.54493 0.0
O550 O 0.5349 0.37089 0.6072 0.0
O551 O 0.54687 0.37557 0.57498 0.0
C552 C 0.55052 0.37416 0.59482 0.0
C553 C 0.52994 0.38235 0.5111 0.0
C554 C 0.51022 0.32697 0.56222 0.0
C555 C 0.4824 0.39386 0.56516 0.0
O556 O 0.48622 0.38409 0.5483 0.0
O557 O 0.4943 0.39168 0.58092 0.0
O558 O 0.51343 0.37101 0.50914 0.0
O559 O 0.53748 0.38485 0.52967 0.0
O560 O 0.67456 0.9114 0.74102 0.0
Cd561 Cd 0.67141 0.88021 0.733 0.0
Cd562 Cd 0.71313 0.88041 0.73751 0.0
O563 O 0.70881 0.91234 0.73752 0.0
O564 O 0.64644 0.87821 0.71451 0.0
O565 O 0.67892 0.87266 0.70365 0.0
C566 C 0.65923 0.8743 0.69938 0.0
C567 C 0.74164 0.86598 0.71964 0.0
C568 C 0.69154 0.92171 0.74045 0.0
C569 C 0.68745 0.8545 0.7677 0.0
O570 O 0.70464 0.86363 0.76372 0.0
O571 O 0.6716 0.85746 0.75607 0.0
O572 O 0.74402 0.87666 0.73654 0.0
O573 O 0.72295 0.86412 0.71225 0.0
O574 O 0.17744 0.58776 0.26254 0.0
Cd575 Cd 0.17404 0.61874 0.27129 0.0
Cd576 Cd 0.21567 0.61846 0.26787 0.0
O577 O 0.21153 0.58654 0.26722 0.0
O578 O 0.14833 0.62021 0.28879 0.0
O579 O 0.1803 0.62554 0.30113 0.0
C580 C 0.16045 0.62373 0.30454 0.0
C581 C 0.24354 0.63296 0.28661 0.0
C582 C 0.19435 0.57734 0.26342 0.0
C583 C 0.19095 0.64474 0.23732 0.0
O584 O 0.20794 0.63533 0.24151 0.0
O585 O 0.17488 0.64196 0.24869 0.0
O586 O 0.24649 0.62233 0.26976 0.0
O587 O 0.22464 0.63466 0.29349 0.0
O588 O 0.663 0.92145 0.5097 0.0
Cd589 Cd 0.63194 0.91795 0.51804 0.0
Cd590 Cd 0.63194 0.95974 0.51641 0.0
O591 O 0.66382 0.95514 0.51672 0.0
O592 O 0.63005 0.89219 0.53539 0.0
O593 O 0.62526 0.92421 0.54788 0.0
C594 C 0.62685 0.90433 0.55122 0.0
C595 C 0.61786 0.98805 0.53486 0.0
C596 C 0.67327 0.9383 0.51206 0.0
C597 C 0.60622 0.93612 0.48454 0.0
O598 O 0.61561 0.95293 0.48945 0.0
O599 O 0.60887 0.91965 0.49535 0.0
O600 O 0.62925 0.99066 0.51847 0.0
O601 O 0.61498 0.96919 0.54143 0.0
O602 O 0.32641 0.41221 0.75439 0.0
Cd603 Cd 0.32896 0.38156 0.76444 0.0
Cd604 Cd 0.2873 0.3817 0.76115 0.0
O605 O 0.29258 0.41347 0.76095 0.0
O606 O 0.35206 0.37887 0.78535 0.0
O607 O 0.31831 0.37783 0.79337 0.0
C608 C 0.33757 0.37803 0.79942 0.0
C609 C 0.25873 0.3678 0.77938 0.0
C610 C 0.30957 0.42266 0.75625 0.0
C611 C 0.31175 0.35471 0.73126 0.0
O612 O 0.29497 0.36468 0.73492 0.0
O613 O 0.32766 0.35733 0.74288 0.0
O614 O 0.25629 0.37867 0.7626 0.0
O615 O 0.27747 0.36555 0.78647 0.0
O616 O 0.33691 0.57433 0.51052 0.0
Cd617 Cd 0.36813 0.57843 0.51792 0.0
Cd618 Cd 0.36871 0.53654 0.51667 0.0
O619 O 0.33676 0.54057 0.51731 0.0
O620 O 0.3702 0.60405 0.5355 0.0
O621 O 0.37624 0.57201 0.54735 0.0
C622 C 0.37446 0.59181 0.55099 0.0
C623 C 0.38338 0.50859 0.53524 0.0
C624 C 0.32697 0.55729 0.51293 0.0
C625 C 0.39327 0.5605 0.48389 0.0
O626 O 0.38463 0.5435 0.48946 0.0
O627 O 0.39035 0.57713 0.49439 0.0
O628 O 0.37222 0.50569 0.51874 0.0
O629 O 0.38568 0.52753 0.54182 0.0
O630 O 0.82298 0.0911 0.23823 0.0
Cd631 Cd 0.8257 0.12211 0.22944 0.0
Cd632 Cd 0.78406 0.12086 0.23208 0.0
O633 O 0.78917 0.08908 0.2321 0.0
O634 O 0.85176 0.1241 0.21254 0.0
O635 O 0.81997 0.12823 0.19933 0.0
C636 C 0.83993 0.12681 0.1964 0.0
C637 C 0.75562 0.13472 0.2137 0.0
C638 C 0.80641 0.08027 0.2365 0.0
C639 C 0.80761 0.1473 0.26337 0.0
O640 O 0.79101 0.13737 0.25887 0.0
O641 O 0.82385 0.14526 0.25208 0.0
O642 O 0.75313 0.12361 0.2303 0.0
O643 O 0.77444 0.1373 0.20684 0.0
O644 O 0.6628 0.07572 0.98684 0.0
Cd645 Cd 0.63177 0.07909 0.97838 0.0
Cd646 Cd 0.63192 0.0374 0.98162 0.0
O647 O 0.66385 0.04163 0.98208 0.0
O648 O 0.62997 0.10418 0.96 0.0
O649 O 0.62466 0.07174 0.94893 0.0
C650 C 0.62632 0.09144 0.94475 0.0
C651 C 0.61756 0.00931 0.96307 0.0
C652 C 0.67314 0.05877 0.98584 0.0
C653 C 0.60596 0.06224 0.0125 0.0
O654 O 0.61513 0.04518 0.00804 0.0
O655 O 0.60883 0.07839 0.00128 0.0
O656 O 0.62824 0.00654 0.97991 0.0
O657 O 0.61568 0.02816 0.95611 0.0
O658 O 0.84029 0.92381 0.49474 0.0
Cd659 Cd 0.87092 0.92238 0.48441 0.0
Cd660 Cd 0.8694 0.96378 0.48907 0.0
O661 O 0.83773 0.95775 0.48925 0.0
O662 O 0.87386 0.89951 0.46325 0.0
O663 O 0.87398 0.93333 0.45551 0.0
C664 C 0.87404 0.91412 0.44929 0.0
C665 C 0.88318 0.99255 0.47109 0.0
C666 C 0.82922 0.94029 0.49351 0.0
C667 C 0.89713 0.93941 0.51821 0.0
O668 O 0.88646 0.95588 0.51517 0.0
O669 O 0.89523 0.92388 0.50593 0.0
O670 O 0.87216 0.99483 0.48781 0.0
O671 O 0.88556 0.97387 0.46388 0.0
H672 H 0.2544 0.15313 0.55272 0.0
H673 H 0.24642 0.22214 0.4486 0.0
H674 H 0.26001 0.22038 0.55105 0.0
H675 H 0.24818 0.15467 0.44765 0.0
H676 H 0.25034 0.22139 0.48641 0.0
H677 H 0.25089 0.15298 0.51455 0.0
C678 C 0.25485 0.16785 0.54437 0.0
C679 C 0.25749 0.1868 0.55515 0.0
C680 C 0.24993 0.20671 0.47798 0.0
C681 C 0.25351 0.18671 0.51152 0.0
C682 C 0.24767 0.20713 0.45633 0.0
C683 C 0.24696 0.18843 0.44487 0.0
C684 C 0.25139 0.18746 0.48842 0.0
C685 C 0.2487 0.16947 0.45583 0.0
C686 C 0.2529 0.16774 0.52258 0.0
C687 C 0.25802 0.20538 0.54347 0.0
N688 N 0.25077 0.16946 0.47702 0.0
N689 N 0.25602 0.20485 0.52236 0.0
H690 H 0.02834 0.99084 0.70217 0.0
H691 H 0.09826 0.00302 0.80531 0.0
H692 H 0.09553 0.99698 0.70034 0.0
H693 H 0.03078 0.0046 0.8047 0.0
H694 H 0.09802 0.999 0.76719 0.0
H695 H 0.02939 0.9942 0.74005 0.0
C696 C 0.04335 0.99292 0.70972 0.0
C697 C 0.06188 0.99366 0.69799 0.0
C698 C 0.08329 1.00021 0.77544 0.0
C699 C 0.06319 0.99746 0.74159 0.0
C700 C 0.08341 0.00244 0.7972 0.0
C701 C 0.06451 0.00418 0.80826 0.0
C702 C 0.06415 0.99961 0.76469 0.0
C703 C 0.04574 0.00338 0.7969 0.0
C704 C 0.04393 0.99485 0.73141 0.0
C705 C 0.08085 0.99638 0.70873 0.0
N706 N 0.04606 0.00115 0.7758 0.0
N707 N 0.08102 0.99815 0.72994 0.0
H708 H 0.25664 0.83987 0.94998 0.0
H709 H 0.24262 0.77387 0.05539 0.0
H710 H 0.26018 0.77253 0.9529 0.0
H711 H 0.24664 0.84124 0.05415 0.0
H712 H 0.24768 0.77324 0.01761 0.0
H713 H 0.25165 0.84083 0.98787 0.0
C714 C 0.25636 0.82528 0.95856 0.0
C715 C 0.25883 0.80608 0.9482 0.0
C716 C 0.24748 0.78817 0.02558 0.0
C717 C 0.25309 0.80709 0.9916 0.0
C718 C 0.24455 0.78856 0.04719 0.0
C719 C 0.2442 0.80765 0.05801 0.0
C720 C 0.25 0.80701 0.01461 0.0
C721 C 0.24683 0.82615 0.04648 0.0
C722 C 0.25355 0.82585 0.98021 0.0
C723 C 0.25837 0.7877 0.96018 0.0
N724 N 0.24958 0.82537 0.02541 0.0
N725 N 0.25552 0.78866 0.98121 0.0
H726 H 0.47888 0.99265 0.30074 0.0
H727 H 0.41084 0.00384 0.19626 0.0
H728 H 0.41143 0.99541 0.30055 0.0
H729 H 0.47819 0.00812 0.19791 0.0
H730 H 0.41063 0.99929 0.23422 0.0
H731 H 0.47879 0.99691 0.26285 0.0
C732 C 0.46403 0.99415 0.29275 0.0
C733 C 0.44513 0.99368 0.3039 0.0
C734 C 0.42544 0.00123 0.22627 0.0
C735 C 0.44493 0.99854 0.26038 0.0
C736 C 0.42559 0.00379 0.20457 0.0
C737 C 0.44457 0.00638 0.19384 0.0
C738 C 0.44441 0.00117 0.23732 0.0
C739 C 0.46317 0.00622 0.20548 0.0
C740 C 0.464 0.99661 0.27108 0.0
C741 C 0.42639 0.99572 0.29264 0.0
N742 N 0.46262 0.00363 0.22656 0.0
N743 N 0.42677 0.99803 0.2715 0.0
H744 H 0.54836 0.26039 0.22135 0.0
H745 H 0.44517 0.2458 0.152 0.0
H746 H 0.54924 0.25719 0.15392 0.0
H747 H 0.4462 0.24168 0.21938 0.0
H748 H 0.48299 0.25153 0.15221 0.0
H749 H 0.51061 0.25513 0.22074 0.0
C750 C 0.54063 0.2586 0.20639 0.0
C751 C 0.55205 0.2592 0.18765 0.0
C752 C 0.47492 0.24935 0.16693 0.0
C753 C 0.50869 0.25319 0.18685 0.0
C754 C 0.45332 0.24611 0.16684 0.0
C755 C 0.44246 0.24323 0.1857 0.0
C756 C 0.48574 0.24982 0.18604 0.0
C757 C 0.45388 0.24378 0.20444 0.0
C758 C 0.51905 0.25556 0.20606 0.0
C759 C 0.54112 0.25678 0.16876 0.0
N760 N 0.47485 0.24703 0.20412 0.0
N761 N 0.52005 0.2539 0.16884 0.0
H762 H 0.99482 0.30432 0.40695 0.0
H763 H 0.00936 0.20124 0.47643 0.0
H764 H 0.99175 0.30313 0.47439 0.0
H765 H 0.00354 0.1995 0.40919 0.0
H766 H 0.0048 0.23898 0.47552 0.0
H767 H 0.99992 0.26633 0.407 0.0
C768 C 0.99527 0.29611 0.42175 0.0
C769 C 0.99283 0.30696 0.44069 0.0
C770 C 0.00449 0.23039 0.46094 0.0
C771 C 0.99867 0.26356 0.44085 0.0
C772 C 0.00712 0.20878 0.46144 0.0
C773 C 0.00681 0.19712 0.44286 0.0
C774 C 0.0016 0.24056 0.4417 0.0
C775 C 0.00383 0.20784 0.42391 0.0
C776 C 0.99812 0.27443 0.42176 0.0
C777 C 0.9935 0.29548 0.45939 0.0
N778 N 0.00137 0.22898 0.42381 0.0
N779 N 0.99637 0.27447 0.45898 0.0
H780 H 0.05344 0.75155 0.65834 0.0
H781 H 0.94939 0.73758 0.72665 0.0
H782 H 0.05196 0.75281 0.72582 0.0
H783 H 0.94889 0.74341 0.65939 0.0
H784 H 0.98728 0.74139 0.72631 0.0
H785 H 0.01546 0.74674 0.65808 0.0
C786 C 0.04517 0.75075 0.67309 0.0
C787 C 0.05594 0.75263 0.69213 0.0
C788 C 0.97891 0.74186 0.71161 0.0
C789 C 0.0125 0.74713 0.69194 0.0
C790 C 0.95723 0.73966 0.71178 0.0
C791 C 0.94588 0.74021 0.69301 0.0
C792 C 0.98944 0.74456 0.69253 0.0
C793 C 0.95697 0.74294 0.67424 0.0
C794 C 0.02348 0.74805 0.67293 0.0
C795 C 0.04437 0.75151 0.71076 0.0
N796 N 0.97814 0.745 0.67447 0.0
N797 N 0.02332 0.74883 0.71018 0.0
H798 H 0.49598 0.80277 0.90317 0.0
H799 H 0.50791 0.69924 0.97248 0.0
H800 H 0.49187 0.80178 0.97056 0.0
H801 H 0.50416 0.69834 0.90508 0.0
H802 H 0.50353 0.73708 0.97185 0.0
H803 H 0.5005 0.76478 0.90334 0.0
C804 C 0.49606 0.79459 0.918 0.0
C805 C 0.49353 0.80551 0.93688 0.0
C806 C 0.50363 0.72862 0.95719 0.0
C807 C 0.49872 0.76205 0.93717 0.0
C808 C 0.50617 0.70698 0.95753 0.0
C809 C 0.5064 0.69554 0.9388 0.0
C810 C 0.5014 0.73902 0.93798 0.0
C811 C 0.50404 0.7065 0.91991 0.0
C812 C 0.49859 0.7729 0.91808 0.0
C813 C 0.49373 0.79406 0.95561 0.0
N814 N 0.50168 0.72763 0.91998 0.0
N815 N 0.4963 0.77299 0.95527 0.0
H816 H 0.55345 0.74743 0.34574 0.0
H817 H 0.44856 0.76125 0.27893 0.0
H818 H 0.55062 0.74291 0.27844 0.0
H819 H 0.44895 0.75673 0.34629 0.0
H820 H 0.48634 0.75648 0.27874 0.0
H821 H 0.51555 0.75277 0.34653 0.0
C822 C 0.5449 0.7476 0.33113 0.0
C823 C 0.55526 0.7447 0.31199 0.0
C824 C 0.47819 0.7565 0.29358 0.0
C825 C 0.51193 0.75083 0.3128 0.0
C826 C 0.45658 0.75927 0.29371 0.0
C827 C 0.44552 0.75937 0.31267 0.0
C828 C 0.48894 0.75391 0.31254 0.0
C829 C 0.45682 0.7567 0.33131 0.0
C830 C 0.52326 0.7506 0.33161 0.0
C831 C 0.54333 0.74503 0.29357 0.0
N832 N 0.47792 0.75411 0.33078 0.0
N833 N 0.52235 0.74807 0.29444 0.0
H834 H 0.50591 0.3013 0.59646 0.0
H835 H 0.49418 0.19762 0.52745 0.0
H836 H 0.5091 0.30006 0.52903 0.0
H837 H 0.49882 0.19651 0.59479 0.0
H838 H 0.49853 0.23539 0.5281 0.0
H839 H 0.50214 0.2632 0.59652 0.0
C840 C 0.50579 0.29305 0.58167 0.0
C841 C 0.50781 0.30394 0.5627 0.0
C842 C 0.49865 0.22693 0.54276 0.0
C843 C 0.50349 0.26036 0.56269 0.0
C844 C 0.49614 0.2053 0.54241 0.0
C845 C 0.49612 0.19381 0.56111 0.0
C846 C 0.50106 0.23729 0.56195 0.0
C847 C 0.49877 0.20471 0.57999 0.0
C848 C 0.50369 0.2713 0.58173 0.0
C849 C 0.50761 0.29239 0.54404 0.0
N850 N 0.50107 0.22586 0.57994 0.0
N851 N 0.50545 0.27128 0.54452 0.0
H852 H 0.9484 0.25913 0.77484 0.0
H853 H 0.05223 0.24749 0.8436 0.0
H854 H 0.94737 0.25547 0.84225 0.0
H855 H 0.05036 0.24153 0.77638 0.0
H856 H 0.01418 0.25201 0.84379 0.0
H857 H 0.98611 0.25422 0.77547 0.0
C858 C 0.95609 0.25727 0.78981 0.0
C859 C 0.94465 0.25772 0.80853 0.0
C860 C 0.02214 0.24968 0.82902 0.0
C861 C 0.98805 0.25213 0.80936 0.0
C862 C 0.04386 0.24716 0.82889 0.0
C863 C 0.05454 0.24413 0.80994 0.0
C864 C 0.01106 0.24931 0.81006 0.0
C865 C 0.04285 0.24379 0.79137 0.0
C866 C 0.97768 0.25443 0.79015 0.0
C867 C 0.95554 0.25518 0.82743 0.0
N868 N 0.0218 0.24638 0.79191 0.0
N869 N 0.97666 0.25257 0.82737 0.0
H870 H 0.99365 0.70031 0.0297 0.0
H871 H 0.02173 0.80443 0.03181 0.0
H872 H 0.00457 0.70067 0.09631 0.0
H873 H 0.00318 0.80311 0.09672 0.0
H874 H 0.01821 0.76668 0.03037 0.0
H875 H 0.99817 0.73793 0.02904 0.0
C876 C 0.99726 0.70827 0.0442 0.0
C877 C 0.9989 0.6972 0.06307 0.0
C878 C 0.01446 0.77458 0.04484 0.0
C879 C 0.00475 0.74059 0.06234 0.0
C880 C 0.01668 0.79622 0.04574 0.0
C881 C 0.01252 0.80706 0.06436 0.0
C882 C 0.00782 0.76357 0.06265 0.0
C883 C 0.00638 0.79545 0.08198 0.0
C884 C 1.00008 0.72985 0.04376 0.0
C885 C 0.00332 0.70852 0.08138 0.0
N886 N 0.00422 0.77431 0.08069 0.0
N887 N 0.00603 0.72962 0.08056 0.0
H888 H 0.15829 0.44753 0.24797 0.0
H889 H 0.22781 0.55081 0.26046 0.0
H890 H 0.22541 0.44868 0.24083 0.0
H891 H 0.16034 0.5516 0.25858 0.0
H892 H 0.22715 0.51309 0.25487 0.0
H893 H 0.15866 0.48537 0.25344 0.0
C894 C 0.17311 0.45571 0.24756 0.0
C895 C 0.19185 0.44487 0.24393 0.0
C896 C 0.21248 0.52151 0.25565 0.0
C897 C 0.19236 0.4882 0.25023 0.0
C898 C 0.21284 0.54307 0.25888 0.0
C899 C 0.19409 0.55444 0.25999 0.0
C900 C 0.19324 0.51114 0.2536 0.0
C901 C 0.17518 0.54351 0.25779 0.0
C902 C 0.17329 0.47733 0.25065 0.0
C903 C 0.21056 0.45635 0.24354 0.0
N904 N 0.17524 0.52247 0.25475 0.0
N905 N 0.21034 0.47734 0.24669 0.0
H906 H 0.72646 0.05135 0.75656 0.0
H907 H 0.65749 0.94765 0.74401 0.0
H908 H 0.65919 0.05204 0.75113 0.0
H909 H 0.72497 0.94834 0.74267 0.0
H910 H 0.65761 0.98569 0.74785 0.0
H911 H 0.72602 0.01343 0.75264 0.0
C912 C 0.71157 0.04355 0.75453 0.0
C913 C 0.69282 0.05495 0.75418 0.0
C914 C 0.67238 0.9775 0.74671 0.0
C915 C 0.69222 0.0114 0.74972 0.0
C916 C 0.67233 0.95577 0.74456 0.0
C917 C 0.69126 0.94474 0.74301 0.0
C918 C 0.69148 0.98831 0.74741 0.0
C919 C 0.71 0.95614 0.74377 0.0
C920 C 0.71134 0.02186 0.75227 0.0
C921 C 0.67403 0.04393 0.75147 0.0
N922 N 0.70962 0.97726 0.74594 0.0
N923 N 0.6742 0.02277 0.74939 0.0
H924 H 0.20048 0.47336 0.02307 0.0
H925 H 0.3033 0.47402 0.99062 0.0
H926 H 0.2003 0.40843 0.00464 0.0
H927 H 0.30283 0.40755 0.00237 0.0
H928 H 0.26594 0.47511 0.9969 0.0
H929 H 0.23815 0.47421 0.01847 0.0
C930 C 0.20834 0.4593 0.01786 0.0
C931 C 0.19711 0.44087 0.01398 0.0
C932 C 0.27397 0.46033 0.9986 0.0
C933 C 0.24046 0.44189 0.00801 0.0
C934 C 0.29538 0.45964 0.99476 0.0
C935 C 0.30633 0.44068 0.99612 0.0
C936 C 0.26329 0.44193 0.00399 0.0
C937 C 0.29507 0.42255 0.00129 0.0
C938 C 0.22992 0.45986 0.015 0.0
C939 C 0.20828 0.42305 0.00762 0.0
N940 N 0.27412 0.42361 0.00497 0.0
N941 N 0.22935 0.42401 0.00481 0.0
H942 H 0.8408 0.05523 0.24248 0.0
H943 H 0.77302 0.95124 0.25761 0.0
H944 H 0.7735 0.05301 0.23779 0.0
H945 H 0.84034 0.95078 0.25262 0.0
H946 H 0.7732 0.98889 0.252 0.0
H947 H 0.84123 0.01733 0.2478 0.0
C948 C 0.82612 0.0468 0.24258 0.0
C949 C 0.80708 0.05735 0.23969 0.0
C950 C 0.78795 0.98058 0.25209 0.0
C951 C 0.80748 0.01401 0.24581 0.0
C952 C 0.78787 0.95904 0.25534 0.0
C953 C 0.80671 0.94778 0.25559 0.0
C954 C 0.807 0.99107 0.24917 0.0
C955 C 0.82544 0.95881 0.25251 0.0
C956 C 0.82639 0.02516 0.24557 0.0
C957 C 0.78856 0.04559 0.23992 0.0
N958 N 0.82512 0.97986 0.24948 0.0
N959 N 0.78923 0.0246 0.24297 0.0
H960 H 0.69898 0.09262 0.99126 0.0
H961 H 0.80171 0.02298 0.00749 0.0
H962 H 0.69962 0.0252 0.98798 0.0
H963 H 0.80294 0.09031 0.00282 0.0
H964 H 0.76403 0.02367 0.00173 0.0
H965 H 0.7368 0.09225 0.99684 0.0
C966 C 0.70704 0.07774 0.99172 0.0
C967 C 0.69606 0.05891 0.98915 0.0
C968 C 0.77253 0.0383 0.00194 0.0
C969 C 0.73937 0.0584 0.99557 0.0
C970 C 0.79407 0.03793 0.00526 0.0
C971 C 0.80556 0.05663 0.00564 0.0
C972 C 0.76229 0.05751 0.99905 0.0
C973 C 0.79475 0.07551 0.00262 0.0
C974 C 0.72865 0.07755 0.99487 0.0
C975 C 0.70739 0.04011 0.98985 0.0
N976 N 0.77373 0.07547 0.9995 0.0
N977 N 0.72838 0.04034 0.99304 0.0
H978 H 0.27625 0.44919 0.75883 0.0
H979 H 0.2795 0.55315 0.73041 0.0
H980 H 0.34271 0.44858 0.74699 0.0
H981 H 0.34444 0.55109 0.74868 0.0
H982 H 0.27765 0.51542 0.73391 0.0
H983 H 0.27608 0.48683 0.7543 0.0
C984 C 0.29082 0.45694 0.75502 0.0
C985 C 0.30951 0.44561 0.75311 0.0
C986 C 0.29222 0.52316 0.7376 0.0
C987 C 0.30933 0.48898 0.74727 0.0
C988 C 0.29335 0.54478 0.73538 0.0
C989 C 0.3121 0.5554 0.73949 0.0
C990 C 0.30992 0.51194 0.74418 0.0
C991 C 0.32961 0.54359 0.74553 0.0
C992 C 0.29066 0.47852 0.75221 0.0
C993 C 0.32791 0.45665 0.74845 0.0
N994 N 0.32809 0.52247 0.74769 0.0
N995 N 0.32737 0.47776 0.74575 0.0
H996 H 0.30096 0.52373 0.51769 0.0
H997 H 0.19661 0.52473 0.4892 0.0
H998 H 0.30039 0.58961 0.50304 0.0
H999 H 0.19844 0.59076 0.50303 0.0
H1000 H 0.23423 0.52301 0.49391 0.0
H1001 H 0.26322 0.52283 0.5136 0.0
C1002 C 0.29291 0.538 0.5134 0.0
C1003 C 0.30395 0.55674 0.51051 0.0
C1004 C 0.22646 0.53781 0.49638 0.0
C1005 C 0.26052 0.55571 0.50516 0.0
C1006 C 0.2049 0.53886 0.49346 0.0
C1007 C 0.19426 0.5579 0.49588 0.0
C1008 C 0.23757 0.55593 0.50192 0.0
C1009 C 0.20595 0.57572 0.50114 0.0
C1010 C 0.27129 0.53743 0.51083 0.0
C1011 C 0.29257 0.57478 0.50527 0.0
N1012 N 0.22699 0.5743 0.50393 0.0
N1013 N 0.27147 0.57381 0.50278 0.0
H1014 H 0.75714 0.72497 0.05174 0.0
H1015 H 0.74355 0.6558 0.94837 0.0
H1016 H 0.75343 0.65758 0.0529 0.0
H1017 H 0.739 0.72313 0.94972 0.0
H1018 H 0.74852 0.65583 0.98633 0.0
H1019 H 0.75187 0.72428 0.01406 0.0
C1020 C 0.75521 0.70999 0.04408 0.0
C1021 C 0.75573 0.6913 0.05556 0.0
C1022 C 0.7464 0.67058 0.9783 0.0
C1023 C 0.74971 0.69041 0.01221 0.0
C1024 C 0.7436 0.67058 0.95662 0.0
C1025 C 0.74086 0.6895 0.9458 0.0
C1026 C 0.74657 0.68963 0.98922 0.0
C1027 C 0.74103 0.70816 0.95735 0.0
C1028 C 0.75216 0.70962 0.02252 0.0
C1029 C 0.7531 0.67239 0.0447 0.0
N1030 N 0.74388 0.70774 0.97838 0.0
N1031 N 0.75025 0.67242 0.02362 0.0
H1032 H 0.59117 0.50205 0.30243 0.0
H1033 H 0.52627 0.48971 0.19611 0.0
H1034 H 0.52378 0.5034 0.29889 0.0
H1035 H 0.59341 0.49647 0.19765 0.0
H1036 H 0.52542 0.49292 0.23404 0.0
H1037 H 0.59264 0.49811 0.26437 0.0
C1038 C 0.57669 0.50144 0.29369 0.0
C1039 C 0.55732 0.50308 0.30391 0.0
C1040 C 0.54035 0.49374 0.22612 0.0
C1041 C 0.55891 0.49859 0.26037 0.0
C1042 C 0.54087 0.49188 0.20441 0.0
C1043 C 0.55995 0.49285 0.19362 0.0
C1044 C 0.55907 0.49649 0.23725 0.0
C1045 C 0.57833 0.49569 0.2053 0.0
C1046 C 0.57755 0.49925 0.27196 0.0
C1047 C 0.53908 0.50225 0.29173 0.0
N1048 N 0.57744 0.49738 0.22649 0.0
N1049 N 0.54033 0.50005 0.27066 0.0
H1050 H 0.7495 0.34549 0.44548 0.0
H1051 H 0.74068 0.27813 0.55065 0.0
H1052 H 0.75443 0.27821 0.44786 0.0
H1053 H 0.74338 0.34557 0.55022 0.0
H1054 H 0.74408 0.27811 0.51271 0.0
H1055 H 0.74552 0.34607 0.48356 0.0
C1056 C 0.74968 0.33084 0.45397 0.0
C1057 C 0.75232 0.31177 0.44342 0.0
C1058 C 0.74396 0.29294 0.52089 0.0
C1059 C 0.74779 0.31235 0.48698 0.0
C1060 C 0.74199 0.29296 0.54259 0.0
C1061 C 0.74176 0.31189 0.55369 0.0
C1062 C 0.74563 0.31197 0.51008 0.0
C1063 C 0.74354 0.33061 0.54233 0.0
C1064 C 0.74747 0.3312 0.47571 0.0
C1065 C 0.75248 0.2933 0.45528 0.0
N1066 N 0.74536 0.33018 0.52114 0.0
N1067 N 0.75024 0.29406 0.47637 0.0
H1068 H 0.97513 0.51023 0.69981 0.0
H1069 H 0.90997 0.49928 0.80615 0.0
H1070 H 0.90779 0.50586 0.70152 0.0
H1071 H 0.97725 0.49522 0.80246 0.0
H1072 H 0.90863 0.50359 0.76814 0.0
H1073 H 0.97595 0.50652 0.73771 0.0
C1074 C 0.96049 0.50848 0.70814 0.0
C1075 C 0.94135 0.50834 0.69741 0.0
C1076 C 0.92367 0.50176 0.77568 0.0
C1077 C 0.9422 0.50412 0.74097 0.0
C1078 C 0.92446 0.49936 0.79739 0.0
C1079 C 0.94376 0.49686 0.80754 0.0
C1080 C 0.94231 0.50178 0.76406 0.0
C1081 C 0.96201 0.49704 0.79534 0.0
C1082 C 0.96098 0.50634 0.72982 0.0
C1083 C 0.9229 0.50601 0.70911 0.0
N1084 N 0.96083 0.49947 0.77429 0.0
N1085 N 0.92379 0.50403 0.73027 0.0
H1086 H 0.80445 0.9055 0.49851 0.0
H1087 H 0.69939 0.9721 0.51251 0.0
H1088 H 0.80169 0.97289 0.49586 0.0
H1089 H 0.69968 0.90494 0.50579 0.0
H1090 H 0.73724 0.9723 0.50841 0.0
H1091 H 0.76645 0.90461 0.50319 0.0
C1092 C 0.79589 0.9201 0.49896 0.0
C1093 C 0.80631 0.9393 0.49676 0.0
C1094 C 0.72906 0.9575 0.5078 0.0
C1095 C 0.76286 0.93838 0.50213 0.0
C1096 C 0.7074 0.95736 0.51017 0.0
C1097 C 0.69628 0.93847 0.50947 0.0
C1098 C 0.73981 0.9386 0.50479 0.0
C1099 C 0.70759 0.91988 0.50638 0.0
C1100 C 0.7742 0.91957 0.50158 0.0
C1101 C 0.79438 0.95771 0.49743 0.0
N1102 N 0.72874 0.92041 0.50419 0.0
N1103 N 0.77334 0.95678 0.50008 0.0
H1104 H 0.21866 0.35478 0.29949 0.0
H1105 H 0.18821 0.24159 0.34035 0.0
H1106 H 0.16472 0.3216 0.27632 0.0
H1107 H 0.23361 0.2816 0.37016 0.0
H1108 H 0.17732 0.27109 0.31841 0.0
H1109 H 0.22258 0.32873 0.3269 0.0
C1110 C 0.20751 0.34205 0.30028 0.0
C1111 C 0.19145 0.34025 0.28547 0.0
C1112 C 0.18944 0.27346 0.32998 0.0
C1113 C 0.19599 0.31008 0.31682 0.0
C1114 C 0.19564 0.25664 0.34254 0.0
C1115 C 0.21203 0.25906 0.35694 0.0
C1116 C 0.19981 0.29273 0.33179 0.0
C1117 C 0.22107 0.27892 0.35912 0.0
C1118 C 0.20972 0.32718 0.316 0.0
C1119 C 0.17734 0.32355 0.28741 0.0
N1120 N 0.21502 0.29487 0.34652 0.0
N1121 N 0.18012 0.30889 0.30263 0.0
H1122 H 0.96848 0.9785 0.62466 0.0
H1123 H 0.93211 0.91469 0.52328 0.0
H1124 H 0.01036 0.93911 0.58933 0.0
H1125 H 0.89653 0.96367 0.55306 0.0
H1126 H 0.95871 0.91798 0.55086 0.0
H1127 H 0.93972 0.96732 0.6024 0.0
C1128 C 0.9716 0.96728 0.61236 0.0
C1129 C 0.99193 0.95995 0.60869 0.0
C1130 C 0.94494 0.92781 0.55142 0.0
C1131 C 0.95899 0.94722 0.58288 0.0
C1132 C 0.92974 0.92589 0.53576 0.0
C1133 C 0.91221 0.9391 0.53575 0.0
C1134 C 0.94239 0.94286 0.56725 0.0
C1135 C 0.90993 0.95335 0.55227 0.0
C1136 C 0.95515 0.96094 0.59959 0.0
C1137 C 0.99494 0.94526 0.59262 0.0
N1138 N 0.92485 0.95491 0.56724 0.0
N1139 N 0.97868 0.93956 0.58012 0.0
H1140 H 0.31644 0.75673 0.84101 0.0
H1141 H 0.29088 0.64241 0.80039 0.0
H1142 H 0.27528 0.71366 0.87268 0.0
H1143 H 0.34194 0.67858 0.77526 0.0
H1144 H 0.28702 0.66777 0.82845 0.0
H1145 H 0.32829 0.72807 0.81842 0.0
C1146 C 0.31016 0.7412 0.84347 0.0
C1147 C 0.29463 0.73766 0.85859 0.0
C1148 C 0.29926 0.67013 0.817 0.0
C1149 C 0.30794 0.70492 0.83272 0.0
C1150 C 0.30144 0.65564 0.80092 0.0
C1151 C 0.31663 0.6585 0.78538 0.0
C1152 C 0.3121 0.68793 0.81742 0.0
C1153 C 0.33001 0.67583 0.78695 0.0
C1154 C 0.31691 0.72486 0.83054 0.0
C1155 C 0.28708 0.71722 0.86109 0.0
N1156 N 0.32721 0.69012 0.80252 0.0
N1157 N 0.29362 0.70174 0.84814 0.0
H1158 H 0.57234 0.0883 0.0194 0.0
H1159 H 0.53614 0.023 0.11986 0.0
H1160 H 0.60632 0.03665 0.04637 0.0
H1161 H 0.494 0.0627 0.08521 0.0
H1162 H 0.56474 0.03436 0.09747 0.0
H1163 H 0.5462 0.08508 0.04747 0.0
C1164 C 0.57447 0.07653 0.03139 0.0
C1165 C 0.59138 0.06257 0.03045 0.0
C1166 C 0.54929 0.04078 0.09485 0.0
C1167 C 0.56177 0.0589 0.06247 0.0
C1168 C 0.53293 0.03434 0.10769 0.0
C1169 C 0.51257 0.04168 0.10421 0.0
C1170 C 0.54533 0.05462 0.07829 0.0
C1171 C 0.50944 0.05653 0.08834 0.0
C1172 C 0.55953 0.07465 0.04731 0.0
C1173 C 0.59339 0.04758 0.04633 0.0
N1174 N 0.52563 0.06234 0.07575 0.0
N1175 N 0.57875 0.0461 0.06159 0.0
H1176 H 0.18805 0.7598 0.1674 0.0
H1177 H 0.21567 0.64403 0.20285 0.0
H1178 H 0.22895 0.7183 0.13336 0.0
H1179 H 0.16587 0.67929 0.23159 0.0
H1180 H 0.21849 0.67055 0.17577 0.0
H1181 H 0.17724 0.73027 0.18944 0.0
C1182 C 0.19448 0.74444 0.16432 0.0
C1183 C 0.20964 0.74156 0.1487 0.0
C1184 C 0.20676 0.67248 0.18782 0.0
C1185 C 0.19752 0.70787 0.17388 0.0
C1186 C 0.20518 0.65732 0.20334 0.0
C1187 C 0.19064 0.65956 0.21959 0.0
C1188 C 0.19398 0.69031 0.18867 0.0
C1189 C 0.1773 0.677 0.21932 0.0
C1190 C 0.18834 0.72761 0.17692 0.0
C1191 C 0.21743 0.72133 0.14538 0.0
N1192 N 0.1795 0.69192 0.20426 0.0
N1193 N 0.21146 0.70537 0.158 0.0
H1194 H 0.57256 0.91034 0.47694 0.0
H1195 H 0.53545 0.97922 0.37925 0.0
H1196 H 0.60629 0.96299 0.45165 0.0
H1197 H 0.4938 0.93779 0.41244 0.0
H1198 H 0.56418 0.96741 0.40121 0.0
H1199 H 0.54618 0.91463 0.44928 0.0
C1200 C 0.57459 0.92256 0.4654 0.0
C1201 C 0.59151 0.93648 0.4667 0.0
C1202 C 0.54881 0.96073 0.40361 0.0
C1203 C 0.56159 0.94138 0.43514 0.0
C1204 C 0.53237 0.96743 0.39102 0.0
C1205 C 0.5121 0.9597 0.3942 0.0
C1206 C 0.54503 0.94621 0.41963 0.0
C1207 C 0.50916 0.94427 0.40956 0.0
C1208 C 0.5595 0.92505 0.44971 0.0
C1209 C 0.59336 0.95207 0.4514 0.0
N1210 N 0.52542 0.93819 0.4219 0.0
N1211 N 0.57858 0.95413 0.43636 0.0
H1212 H 0.27152 0.28075 0.62705 0.0
H1213 H 0.33746 0.32056 0.72569 0.0
H1214 H 0.31271 0.24043 0.66211 0.0
H1215 H 0.2863 0.3541 0.69726 0.0
H1216 H 0.33407 0.29347 0.69861 0.0
H1217 H 0.28267 0.31019 0.64842 0.0
C1218 C 0.28312 0.27812 0.63909 0.0
C1219 C 0.29098 0.25802 0.64297 0.0
C1220 C 0.32378 0.3069 0.69822 0.0
C1221 C 0.30369 0.29175 0.66775 0.0
C1222 C 0.32576 0.32239 0.71359 0.0
C1223 C 0.31198 0.33948 0.71385 0.0
C1224 C 0.30809 0.30873 0.68294 0.0
C1225 C 0.29708 0.34106 0.69784 0.0
C1226 C 0.28945 0.29496 0.65135 0.0
C1227 C 0.30614 0.25564 0.65869 0.0
N1228 N 0.29548 0.32587 0.68315 0.0
N1229 N 0.31184 0.27227 0.67069 0.0
H1230 H 0.89599 0.03264 0.95003 0.0
H1231 H 0.01095 0.06227 0.91329 0.0
H1232 H 0.92995 0.08449 0.97657 0.0
H1233 H 0.97136 0.01758 0.8819 0.0
H1234 H 0.98098 0.07312 0.93465 0.0
H1235 H 0.92266 0.02923 0.92316 0.0
C1236 C 0.90902 0.04345 0.95008 0.0
C1237 C 0.91086 0.05874 0.96569 0.0
C1238 C 0.97881 0.06116 0.92286 0.0
C1239 C 0.94178 0.05475 0.93498 0.0
C1240 C 0.9959 0.05499 0.91064 0.0
C1241 C 0.99372 0.03881 0.89596 0.0
C1242 C 0.9595 0.05099 0.92042 0.0
C1243 C 0.97386 0.02995 0.89318 0.0
C1244 C 0.92426 0.04153 0.93468 0.0
C1245 C 0.92797 0.07246 0.96483 0.0
N1246 N 0.95763 0.03599 0.90543 0.0
N1247 N 0.94298 0.06994 0.9499 0.0
H1248 H 0.37064 0.22707 0.27755 0.0
H1249 H 0.27169 0.16228 0.31844 0.0
H1250 H 0.33433 0.1869 0.23732 0.0
H1251 H 0.30255 0.21158 0.35257 0.0
H1252 H 0.29809 0.16569 0.29066 0.0
H1253 H 0.34973 0.21575 0.30724 0.0
C1254 C 0.35839 0.21567 0.27498 0.0
C1255 C 0.35406 0.20813 0.25486 0.0
C1256 C 0.29916 0.17556 0.30437 0.0
C1257 C 0.32978 0.19524 0.2889 0.0
C1258 C 0.28419 0.17356 0.32025 0.0
C1259 C 0.28481 0.18683 0.33772 0.0
C1260 C 0.31493 0.19076 0.30618 0.0
C1261 C 0.30129 0.20121 0.33926 0.0
C1262 C 0.3464 0.20923 0.29197 0.0
C1263 C 0.33812 0.1932 0.25257 0.0
N1264 N 0.31558 0.20284 0.32369 0.0
N1265 N 0.32635 0.18741 0.26936 0.0
H1266 H 0.08765 0.02379 0.57319 0.0
H1267 H 0.02228 0.12395 0.53627 0.0
H1268 H 0.03701 0.05184 0.60785 0.0
H1269 H 0.06285 0.08946 0.49481 0.0
H1270 H 0.03345 0.10176 0.56512 0.0
H1271 H 0.08424 0.05151 0.54677 0.0
C1272 C 0.07605 0.03592 0.5754 0.0
C1273 C 0.06243 0.03538 0.59262 0.0
C1274 C 0.04009 0.09914 0.54976 0.0
C1275 C 0.05852 0.06704 0.56263 0.0
C1276 C 0.03376 0.11187 0.53327 0.0
C1277 C 0.04143 0.10839 0.51302 0.0
C1278 C 0.05415 0.08268 0.54605 0.0
C1279 C 0.05643 0.0926 0.51015 0.0
C1280 C 0.07406 0.05167 0.5603 0.0
C1281 C 0.04766 0.05147 0.5947 0.0
N1282 N 0.06213 0.08014 0.52645 0.0
N1283 N 0.04606 0.06654 0.57987 0.0
H1284 H 0.16105 0.81088 0.74534 0.0
H1285 H 0.20091 0.78011 0.85897 0.0
H1286 H 0.1308 0.76567 0.78526 0.0
H1287 H 0.22633 0.83238 0.82476 0.0
H1288 H 0.17337 0.77684 0.83298 0.0
H1289 H 0.18315 0.82142 0.77484 0.0
C1290 C 0.1588 0.80342 0.76037 0.0
C1291 C 0.14422 0.78718 0.76276 0.0
C1292 C 0.1848 0.78919 0.83118 0.0
C1293 C 0.16956 0.799 0.79645 0.0
C1294 C 0.20059 0.79104 0.84603 0.0
C1295 C 0.21607 0.80641 0.84392 0.0
C1296 C 0.18458 0.8026 0.8138 0.0
C1297 C 0.21472 0.82028 0.82695 0.0
C1298 C 0.17146 0.80941 0.77719 0.0
C1299 C 0.14198 0.77809 0.78259 0.0
N1300 N 0.19941 0.81785 0.81234 0.0
N1301 N 0.15465 0.78395 0.79856 0.0
H1302 H 0.43802 0.91357 0.98806 0.0
H1303 H 0.4676 0.94892 0.10344 0.0
H1304 H 0.4803 0.87991 0.02844 0.0
H1305 H 0.41682 0.97716 0.0692 0.0
H1306 H 0.47034 0.92204 0.07669 0.0
H1307 H 0.42769 0.93541 0.01789 0.0
C1308 C 0.44486 0.91054 0.00324 0.0
C1309 C 0.46024 0.89506 0.0057 0.0
C1310 C 0.45842 0.93395 0.07504 0.0
C1311 C 0.44867 0.92004 0.03975 0.0
C1312 C 0.45688 0.94935 0.09033 0.0
C1313 C 0.44208 0.96541 0.08845 0.0
C1314 C 0.44531 0.93471 0.05745 0.0
C1315 C 0.42847 0.96506 0.07123 0.0
C1316 C 0.43899 0.92303 0.02025 0.0
C1317 C 0.46857 0.8918 0.02572 0.0
N1318 N 0.43061 0.95011 0.05619 0.0
N1319 N 0.46286 0.90432 0.04186 0.0
H1320 H 0.33731 0.81576 0.2632 0.0
H1321 H 0.30251 0.78807 0.14737 0.0
H1322 H 0.3714 0.7745 0.2221 0.0
H1323 H 0.27413 0.83838 0.18218 0.0
H1324 H 0.32953 0.78526 0.17394 0.0
H1325 H 0.31578 0.82682 0.23341 0.0
C1326 C 0.34051 0.8093 0.24787 0.0
C1327 C 0.35598 0.79396 0.24519 0.0
C1328 C 0.31759 0.79712 0.17575 0.0
C1329 C 0.33137 0.80638 0.2112 0.0
C1330 C 0.3021 0.79869 0.16056 0.0
C1331 C 0.28596 0.81335 0.16268 0.0
C1332 C 0.31678 0.81001 0.1935 0.0
C1333 C 0.28632 0.82685 0.17999 0.0
C1334 C 0.32819 0.81559 0.2309 0.0
C1335 C 0.35947 0.78615 0.22499 0.0
N1336 N 0.30131 0.82463 0.19496 0.0
N1337 N 0.34713 0.79226 0.20888 0.0
H1338 H 0.41375 0.02495 0.42694 0.0
H1339 H 0.47985 0.12307 0.46753 0.0
H1340 H 0.46651 0.05201 0.39479 0.0
H1341 H 0.4381 0.08815 0.50741 0.0
H1342 H 0.46877 0.1019 0.43791 0.0
H1343 H 0.41661 0.0524 0.45372 0.0
C1344 C 0.42568 0.03685 0.42533 0.0
C1345 C 0.44007 0.03608 0.40877 0.0
C1346 C 0.46184 0.09897 0.45308 0.0
C1347 C 0.44336 0.06741 0.43914 0.0
C1348 C 0.46812 0.11112 0.47002 0.0
C1349 C 0.46013 0.10717 0.49006 0.0
C1350 C 0.4475 0.08264 0.45613 0.0
C1351 C 0.44479 0.0916 0.49225 0.0
C1352 C 0.42736 0.05242 0.44064 0.0
C1353 C 0.45526 0.05184 0.40744 0.0
N1354 N 0.43915 0.0797 0.47553 0.0
N1355 N 0.45655 0.06675 0.42245 0.0
H1356 H 0.12745 0.22718 0.71655 0.0
H1357 H 0.22782 0.16165 0.68037 0.0
H1358 H 0.16231 0.1876 0.75863 0.0
H1359 H 0.19952 0.21171 0.64511 0.0
H1360 H 0.20012 0.16533 0.70682 0.0
H1361 H 0.14959 0.21557 0.68783 0.0
C1362 C 0.13961 0.21582 0.71972 0.0
C1363 C 0.1432 0.20857 0.7401 0.0
C1364 C 0.1999 0.17531 0.69315 0.0
C1365 C 0.16885 0.19535 0.7072 0.0
C1366 C 0.21563 0.17317 0.67804 0.0
C1367 C 0.2161 0.18656 0.66065 0.0
C1368 C 0.18447 0.19077 0.69064 0.0
C1369 C 0.19995 0.20124 0.6584 0.0
C1370 C 0.1523 0.20924 0.70329 0.0
C1371 C 0.15908 0.1937 0.74318 0.0
N1372 N 0.1849 0.20299 0.67323 0.0
N1373 N 0.17151 0.18775 0.72694 0.0
H1374 H 0.02932 0.87945 0.97502 0.0
H1375 H 0.09139 0.98042 0.93491 0.0
H1376 H 0.06643 0.91795 0.01614 0.0
H1377 H 0.04309 0.94835 0.90049 0.0
H1378 H 0.08843 0.95397 0.9627 0.0
H1379 H 0.0407 0.90054 0.94548 0.0
C1380 C 0.04008 0.89223 0.97782 0.0
C1381 C 0.04669 0.89713 0.99814 0.0
C1382 C 0.07869 0.95265 0.94892 0.0
C1383 C 0.05965 0.92159 0.96427 0.0
C1384 C 0.08044 0.96765 0.93304 0.0
C1385 C 0.0673 0.96668 0.91549 0.0
C1386 C 0.06391 0.9365 0.94701 0.0
C1387 C 0.05334 0.94986 0.91387 0.0
C1388 C 0.04654 0.90431 0.96092 0.0
C1389 C 0.06084 0.91372 0.00074 0.0
N1390 N 0.05196 0.93554 0.92943 0.0
N1391 N 0.06666 0.92556 0.98401 0.0
H1392 H 0.23765 0.33569 0.18493 0.0
H1393 H 0.35511 0.3012 0.20495 0.0
H1394 H 0.28211 0.37122 0.22112 0.0
H1395 H 0.31612 0.2703 0.15948 0.0
H1396 H 0.32909 0.32872 0.20823 0.0
H1397 H 0.26633 0.31344 0.17243 0.0
C1398 C 0.25347 0.33906 0.18994 0.0
C1399 C 0.25746 0.35515 0.20434 0.0
C1400 C 0.32622 0.3161 0.19732 0.0
C1401 C 0.29021 0.32972 0.19028 0.0
C1402 C 0.34109 0.30034 0.19548 0.0
C1403 C 0.33766 0.28336 0.18208 0.0
C1404 C 0.30746 0.31475 0.18601 0.0
C1405 C 0.31933 0.28315 0.17001 0.0
C1406 C 0.26982 0.32633 0.18283 0.0
C1407 C 0.27823 0.35883 0.21027 0.0
N1408 N 0.30469 0.29844 0.17252 0.0
N1409 N 0.29374 0.34608 0.20342 0.0
H1410 H 0.78342 0.12973 0.77069 0.0
H1411 H 0.81898 0.23136 0.83449 0.0
H1412 H 0.74076 0.16515 0.80916 0.0
H1413 H 0.85389 0.20283 0.7843 0.0
H1414 H 0.79254 0.2036 0.83118 0.0
H1415 H 0.81183 0.15239 0.78187 0.0
C1416 C 0.78006 0.14214 0.78171 0.0
C1417 C 0.75961 0.14572 0.78877 0.0
C1418 C 0.80612 0.20337 0.82108 0.0
C1419 C 0.79217 0.17198 0.8015 0.0
C1420 C 0.82123 0.21912 0.82301 0.0
C1421 C 0.83853 0.21951 0.8095 0.0
C1422 C 0.80859 0.18782 0.80574 0.0
C1423 C 0.84067 0.20332 0.79487 0.0
C1424 C 0.79631 0.15513 0.78805 0.0
C1425 C 0.75628 0.16192 0.80323 0.0
N1426 N 0.82588 0.18822 0.79335 0.0
N1427 N 0.77237 0.17465 0.80894 0.0
H1428 H 0.02356 0.57114 0.09224 0.0
H1429 H 0.1249 0.5315 0.03036 0.0
H1430 H 0.05548 0.60566 0.04387 0.0
H1431 H 0.08651 0.49026 0.06747 0.0
H1432 H 0.10365 0.56095 0.04168 0.0
H1433 H 0.05023 0.54354 0.0894 0.0
C1434 C 0.03635 0.57307 0.0813 0.0
C1435 C 0.0372 0.59059 0.0681 0.0
C1436 C 0.09994 0.54551 0.04754 0.0
C1437 C 0.06763 0.55929 0.06485 0.0
C1438 C 0.11212 0.52866 0.04111 0.0
C1439 C 0.1073 0.50833 0.04774 0.0
C1440 C 0.08265 0.5421 0.06063 0.0
C1441 C 0.09068 0.50567 0.06186 0.0
C1442 C 0.05148 0.5573 0.07963 0.0
C1443 C 0.05405 0.5923 0.05417 0.0
N1444 N 0.07876 0.52235 0.06766 0.0
N1445 N 0.06849 0.57684 0.05286 0.0
H1446 H 0.68066 0.77129 0.337 0.0
H1447 H 0.7151 0.87383 0.27403 0.0
H1448 H 0.64477 0.80061 0.28799 0.0
H1449 H 0.75779 0.83875 0.31274 0.0
H1450 H 0.68675 0.85104 0.28522 0.0
H1451 H 0.70672 0.79942 0.334 0.0
C1452 C 0.67812 0.78377 0.32585 0.0
C1453 C 0.66066 0.78349 0.31255 0.0
C1454 C 0.70227 0.84841 0.29146 0.0
C1455 C 0.69019 0.81561 0.30913 0.0
C1456 C 0.71848 0.86148 0.28512 0.0
C1457 C 0.73892 0.85802 0.29223 0.0
C1458 C 0.70647 0.8316 0.30495 0.0
C1459 C 0.74228 0.84188 0.30675 0.0
C1460 C 0.693 0.79975 0.3241 0.0
C1461 C 0.65812 0.80002 0.29836 0.0
N1462 N 0.72626 0.82907 0.31245 0.0
N1463 N 0.67274 0.8153 0.29698 0.0
H1464 H 0.87993 0.96554 0.02434 0.0
H1465 H 0.97752 0.93013 0.09422 0.0
H1466 H 0.91264 0.00808 0.06522 0.0
H1467 H 0.95355 0.89614 0.04113 0.0
H1468 H 0.94944 0.95605 0.08965 0.0
H1469 H 0.90204 0.93716 0.03671 0.0
C1470 C 0.8916 0.96889 0.03614 0.0
C1471 C 0.89463 0.9893 0.04353 0.0
C1472 C 0.95024 0.94276 0.0792 0.0
C1473 C 0.92023 0.95677 0.05766 0.0
C1474 C 0.96617 0.92794 0.08185 0.0
C1475 C 0.96797 0.9111 0.06789 0.0
C1476 C 0.93594 0.94045 0.06268 0.0
C1477 C 0.95291 0.90902 0.0521 0.0
C1478 C 0.90428 0.95265 0.04316 0.0
C1479 C 0.90988 0.9926 0.05899 0.0
N1480 N 0.93762 0.92353 0.04989 0.0
N1481 N 0.92231 0.97653 0.06538 0.0
H1482 H 0.22309 0.62814 0.72468 0.0
H1483 H 0.18231 0.73008 0.6647 0.0
H1484 H 0.26375 0.66722 0.68764 0.0
H1485 H 0.14836 0.69719 0.71283 0.0
H1486 H 0.21013 0.7036 0.66694 0.0
H1487 H 0.19343 0.6494 0.71402 0.0
C1488 C 0.22576 0.64108 0.71409 0.0
C1489 C 0.24599 0.64609 0.70729 0.0
C1490 C 0.19645 0.70211 0.6768 0.0
C1491 C 0.21198 0.67075 0.69515 0.0
C1492 C 0.18056 0.71713 0.67547 0.0
C1493 C 0.16312 0.71593 0.68877 0.0
C1494 C 0.19468 0.68572 0.69134 0.0
C1495 C 0.16164 0.69889 0.70247 0.0
C1496 C 0.20879 0.65327 0.70803 0.0
C1497 C 0.24842 0.6629 0.69337 0.0
N1498 N 0.17722 0.68455 0.70345 0.0
N1499 N 0.23163 0.67483 0.68795 0.0
H1500 H 0.0184 0.43276 0.41469 0.0
H1501 H 0.11967 0.46991 0.47807 0.0
H1502 H 0.04805 0.39803 0.46434 0.0
H1503 H 0.08344 0.51194 0.43969 0.0
H1504 H 0.09759 0.44108 0.46681 0.0
H1505 H 0.04578 0.45961 0.41782 0.0
C1506 C 0.03081 0.43064 0.426 0.0
C1507 C 0.03084 0.41327 0.43944 0.0
C1508 C 0.09454 0.45655 0.46066 0.0
C1509 C 0.06208 0.44369 0.443 0.0
C1510 C 0.10719 0.47305 0.46705 0.0
C1511 C 0.10321 0.49343 0.46004 0.0
C1512 C 0.07761 0.46039 0.44723 0.0
C1513 C 0.08696 0.49648 0.44558 0.0
C1514 C 0.04635 0.44597 0.42784 0.0
C1515 C 0.04724 0.41129 0.45385 0.0
N1516 N 0.07455 0.48015 0.43983 0.0
N1517 N 0.0621 0.42632 0.45529 0.0
H1518 H 0.44834 0.60616 0.96234 0.0
H1519 H 0.41174 0.49087 0.93448 0.0
H1520 H 0.47521 0.57132 0.91122 0.0
H1521 H 0.37974 0.53148 0.97784 0.0
H1522 H 0.43311 0.52062 0.9231 0.0
H1523 H 0.42122 0.57977 0.96577 0.0
C1524 C 0.4484 0.593 0.95168 0.0
C1525 C 0.46417 0.59082 0.93661 0.0
C1526 C 0.42118 0.52305 0.93487 0.0
C1527 C 0.43321 0.56021 0.94064 0.0
C1528 C 0.40895 0.50609 0.94134 0.0
C1529 C 0.39412 0.50863 0.95734 0.0
C1530 C 0.41858 0.5426 0.94456 0.0
C1531 C 0.39115 0.5287 0.96565 0.0
C1532 C 0.43286 0.57791 0.95361 0.0
C1533 C 0.46334 0.57355 0.92308 0.0
N1534 N 0.40342 0.54481 0.95934 0.0
N1535 N 0.44829 0.55869 0.92562 0.0
H1536 H 0.72496 0.78174 0.87365 0.0
H1537 H 0.66105 0.82097 0.77349 0.0
H1538 H 0.68525 0.7409 0.83752 0.0
H1539 H 0.71234 0.8541 0.80211 0.0
H1540 H 0.66371 0.79417 0.80095 0.0
H1541 H 0.71397 0.81105 0.85201 0.0
C1542 C 0.7137 0.77896 0.86131 0.0
C1543 C 0.70626 0.75876 0.8572 0.0
C1544 C 0.67418 0.80747 0.80131 0.0
C1545 C 0.69374 0.79235 0.83213 0.0
C1546 C 0.67261 0.82279 0.78573 0.0
C1547 C 0.68666 0.83965 0.78541 0.0
C1548 C 0.6897 0.80925 0.81675 0.0
C1549 C 0.70137 0.84123 0.80159 0.0
C1550 C 0.70747 0.79573 0.84891 0.0
C1551 C 0.6915 0.7562 0.84113 0.0
N1552 N 0.70256 0.8262 0.8165 0.0
N1553 N 0.68591 0.77278 0.82898 0.0
H1554 H 0.47058 0.47609 0.12 0.0
H1555 H 0.43249 0.41213 0.01941 0.0
H1556 H 0.51263 0.43857 0.0829 0.0
H1557 H 0.39799 0.4618 0.04928 0.0
H1558 H 0.45977 0.41558 0.04636 0.0
H1559 H 0.44156 0.4644 0.09839 0.0
C1560 C 0.47369 0.46518 0.10743 0.0
C1561 C 0.49412 0.45854 0.10306 0.0
C1562 C 0.44608 0.42552 0.04708 0.0
C1563 C 0.46086 0.44522 0.07801 0.0
C1564 C 0.43051 0.4235 0.0318 0.0
C1565 C 0.41309 0.43686 0.03201 0.0
C1566 C 0.44396 0.44078 0.06276 0.0
C1567 C 0.41128 0.45136 0.04835 0.0
C1568 C 0.45709 0.45854 0.09504 0.0
C1569 C 0.49713 0.44419 0.08671 0.0
N1570 N 0.42652 0.45296 0.06297 0.0
N1571 N 0.48069 0.43818 0.07456 0.0
H1572 H 0.80967 0.26013 0.33689 0.0
H1573 H 0.78171 0.14587 0.29699 0.0
H1574 H 0.76672 0.21851 0.36813 0.0
H1575 H 0.83252 0.18166 0.27079 0.0
H1576 H 0.7782 0.17161 0.32474 0.0
H1577 H 0.82066 0.23114 0.31433 0.0
C1578 C 0.80281 0.24484 0.33925 0.0
C1579 C 0.78706 0.24181 0.35426 0.0
C1580 C 0.79029 0.17382 0.31309 0.0
C1581 C 0.79939 0.20869 0.32841 0.0
C1582 C 0.79226 0.15912 0.29718 0.0
C1583 C 0.80729 0.16173 0.28143 0.0
C1584 C 0.8032 0.19157 0.31317 0.0
C1585 C 0.82069 0.17908 0.28262 0.0
C1586 C 0.80906 0.22831 0.32634 0.0
C1587 C 0.77874 0.22166 0.35663 0.0
N1588 N 0.81813 0.19354 0.29806 0.0
N1589 N 0.78483 0.20598 0.3437 0.0
H1590 H 0.98884 0.5648 0.58854 0.0
H1591 H 0.10508 0.53902 0.55353 0.0
H1592 H 0.03061 0.52407 0.62243 0.0
H1593 H 0.06964 0.58905 0.52547 0.0
H1594 H 0.0785 0.53565 0.5805 0.0
H1595 H 0.01843 0.57638 0.56698 0.0
C1596 C 0.00426 0.55856 0.59168 0.0
C1597 C 0.0072 0.54322 0.60711 0.0
C1598 C 0.07655 0.54756 0.56864 0.0
C1599 C 0.04098 0.55624 0.58248 0.0
C1600 C 0.09174 0.54946 0.55319 0.0
C1601 C 0.08946 0.56421 0.53715 0.0
C1602 C 0.05862 0.56022 0.5679 0.0
C1603 C 0.07196 0.57747 0.53759 0.0
C1604 C 0.02113 0.56516 0.57936 0.0
C1605 C 0.02752 0.53571 0.61053 0.0
N1606 N 0.05699 0.57493 0.55254 0.0
N1607 N 0.04352 0.54211 0.59819 0.0
H1608 H 0.68717 0.26128 0.66178 0.0
H1609 H 0.7148 0.14497 0.6957 0.0
H1610 H 0.72952 0.22088 0.62819 0.0
H1611 H 0.66463 0.17979 0.72434 0.0
H1612 H 0.71802 0.17195 0.66912 0.0
H1613 H 0.67618 0.23128 0.68304 0.0
C1614 C 0.6939 0.24607 0.65864 0.0
C1615 C 0.70949 0.24364 0.64336 0.0
C1616 C 0.70611 0.17368 0.68103 0.0
C1617 C 0.69714 0.20939 0.66767 0.0
C1618 C 0.70429 0.15825 0.69626 0.0
C1619 C 0.68955 0.16023 0.71236 0.0
C1620 C 0.69336 0.19152 0.68203 0.0
C1621 C 0.67622 0.17768 0.71219 0.0
C1622 C 0.68765 0.22896 0.6708 0.0
C1623 C 0.71765 0.22357 0.63995 0.0
N1624 N 0.67865 0.19286 0.69743 0.0
N1625 N 0.71155 0.20733 0.65214 0.0
H1626 H 0.10938 0.46578 0.95435 0.0
H1627 H 0.99643 0.43726 0.91193 0.0
H1628 H 0.07478 0.41272 0.97748 0.0
H1629 H 0.03804 0.48108 0.88192 0.0
H1630 H 0.02536 0.42585 0.93434 0.0
H1631 H 0.08411 0.46968 0.92621 0.0
C1632 C 0.09651 0.45481 0.95339 0.0
C1633 C 0.09406 0.43902 0.9684 0.0
C1634 C 0.02821 0.43772 0.92262 0.0
C1635 C 0.06477 0.44356 0.93624 0.0
C1636 C 0.01171 0.44423 0.9098 0.0
C1637 C 0.01475 0.46035 0.8952 0.0
C1638 C 0.04778 0.44754 0.92091 0.0
C1639 C 0.03489 0.46877 0.8931 0.0
C1640 C 0.08209 0.457 0.93725 0.0
C1641 C 0.07721 0.42513 0.96623 0.0
N1642 N 0.05052 0.46246 0.90597 0.0
N1643 N 0.06298 0.42792 0.95063 0.0
H1644 H 0.78401 0.85829 0.19938 0.0
H1645 H 0.81285 0.74315 0.16258 0.0
H1646 H 0.83363 0.82273 0.22803 0.0
H1647 H 0.77052 0.78413 0.1297 0.0
H1648 H 0.82331 0.77258 0.18482 0.0
H1649 H 0.7813 0.83203 0.17206 0.0
C1650 C 0.79447 0.84498 0.19983 0.0
C1651 C 0.80892 0.84258 0.21613 0.0
C1652 C 0.81198 0.77517 0.17253 0.0
C1653 C 0.80574 0.81215 0.18488 0.0
C1654 C 0.80603 0.75839 0.1598 0.0
C1655 C 0.79058 0.76112 0.14443 0.0
C1656 C 0.80232 0.79473 0.16989 0.0
C1657 C 0.7823 0.78121 0.1415 0.0
C1658 C 0.79295 0.82997 0.18416 0.0
C1659 C 0.82224 0.82514 0.21575 0.0
N1660 N 0.7881 0.79713 0.15425 0.0
N1661 N 0.82012 0.81038 0.20053 0.0
H1662 H 0.42555 0.58741 0.47443 0.0
H1663 H 0.46241 0.51753 0.37732 0.0
H1664 H 0.39318 0.5328 0.45167 0.0
H1665 H 0.50334 0.5611 0.40858 0.0
H1666 H 0.43375 0.52898 0.39964 0.0
H1667 H 0.45108 0.58351 0.44592 0.0
C1668 C 0.42363 0.57482 0.46327 0.0
C1669 C 0.40737 0.56026 0.46555 0.0
C1670 C 0.44893 0.53622 0.4015 0.0
C1671 C 0.43632 0.5558 0.43301 0.0
C1672 C 0.46532 0.52973 0.38869 0.0
C1673 C 0.4854 0.53815 0.39128 0.0
C1674 C 0.45258 0.55122 0.4171 0.0
C1675 C 0.48814 0.55407 0.40617 0.0
C1676 C 0.43823 0.57256 0.44709 0.0
C1677 C 0.40562 0.54423 0.45069 0.0
N1678 N 0.47196 0.55993 0.41872 0.0
N1679 N 0.41994 0.54239 0.43515 0.0
H1680 H 0.79882 0.71323 0.8567 0.0
H1681 H 0.83667 0.68546 0.74176 0.0
H1682 H 0.77156 0.66271 0.82134 0.0
H1683 H 0.86999 0.72636 0.78381 0.0
H1684 H 0.81415 0.67468 0.77091 0.0
H1685 H 0.82632 0.71629 0.83062 0.0
C1686 C 0.79873 0.70264 0.84348 0.0
C1687 C 0.78278 0.68782 0.84108 0.0
C1688 C 0.8266 0.68576 0.77378 0.0
C1689 C 0.8142 0.6914 0.81086 0.0
C1690 C 0.83949 0.6919 0.75717 0.0
C1691 C 0.85507 0.70704 0.76029 0.0
C1692 C 0.82929 0.69496 0.79356 0.0
C1693 C 0.85803 0.71484 0.78058 0.0
C1694 C 0.8145 0.70435 0.82858 0.0
C1695 C 0.78358 0.67436 0.82375 0.0
N1696 N 0.84513 0.7089 0.79633 0.0
N1697 N 0.79887 0.67668 0.80909 0.0
H1698 H 0.53821 0.55252 0.10477 0.0
H1699 H 0.56396 0.58878 0.98889 0.0
H1700 H 0.58915 0.52595 0.06944 0.0
H1701 H 0.52195 0.62139 0.03043 0.0
H1702 H 0.57583 0.5674 0.01847 0.0
H1703 H 0.53431 0.57956 0.07833 0.0
C1704 C 0.54874 0.55252 0.09149 0.0
C1705 C 0.5639 0.53687 0.08919 0.0
C1706 C 0.56425 0.57947 0.02113 0.0
C1707 C 0.55931 0.5677 0.05852 0.0
C1708 C 0.55749 0.59169 0.00427 0.0
C1709 C 0.54173 0.60671 0.00714 0.0
C1710 C 0.55508 0.58226 0.04091 0.0
C1711 C 0.53394 0.60983 0.0274 0.0
C1712 C 0.54654 0.56801 0.07638 0.0
C1713 C 0.57725 0.53775 0.07178 0.0
N1714 N 0.54051 0.59757 0.04341 0.0
N1715 N 0.57442 0.55273 0.05688 0.0
H1716 H 0.66072 0.315 0.23717 0.0
H1717 H 0.69479 0.28907 0.35392 0.0
H1718 H 0.62635 0.27467 0.27894 0.0
H1719 H 0.72562 0.33644 0.31712 0.0
H1720 H 0.66784 0.28629 0.32729 0.0
H1721 H 0.68274 0.32592 0.26664 0.0
C1722 C 0.65756 0.30872 0.25258 0.0
C1723 C 0.64184 0.29369 0.25554 0.0
C1724 C 0.68033 0.29748 0.32503 0.0
C1725 C 0.66702 0.30595 0.28919 0.0
C1726 C 0.69579 0.29904 0.34026 0.0
C1727 C 0.71259 0.31285 0.33763 0.0
C1728 C 0.68178 0.30957 0.30676 0.0
C1729 C 0.71293 0.32555 0.31972 0.0
C1730 C 0.67017 0.31492 0.26937 0.0
C1731 C 0.63844 0.2861 0.27584 0.0
N1732 N 0.69791 0.32338 0.30477 0.0
N1733 N 0.65104 0.29213 0.29178 0.0
H1734 H 0.90936 0.47577 0.57469 0.0
H1735 H 0.97742 0.37883 0.53424 0.0
H1736 H 0.96331 0.4505 0.60631 0.0
H1737 H 0.93441 0.41231 0.49447 0.0
H1738 H 0.96632 0.40023 0.5637 0.0
H1739 H 0.91271 0.44821 0.54807 0.0
C1740 C 0.92167 0.46425 0.57622 0.0
C1741 C 0.93623 0.46555 0.59259 0.0
C1742 C 0.95912 0.40279 0.54859 0.0
C1743 C 0.94007 0.43409 0.5624 0.0
C1744 C 0.96542 0.39051 0.53174 0.0
C1745 C 0.95705 0.39398 0.51177 0.0
C1746 C 0.94439 0.41876 0.54553 0.0
C1747 C 0.94139 0.40922 0.50957 0.0
C1748 C 0.92362 0.44861 0.561 0.0
C1749 C 0.95191 0.45026 0.59381 0.0
N1750 N 0.93572 0.42126 0.52621 0.0
N1751 N 0.95345 0.43527 0.5789 0.0
H1752 H 0.87294 0.27527 0.7154 0.0
H1753 H 0.7745 0.34225 0.6769 0.0
H1754 H 0.8387 0.31668 0.75623 0.0
H1755 H 0.8013 0.29009 0.64356 0.0
H1756 H 0.80223 0.33893 0.70334 0.0
H1757 H 0.85146 0.28685 0.68619 0.0
C1758 C 0.86106 0.28702 0.71819 0.0
C1759 C 0.85741 0.29479 0.73837 0.0
C1760 C 0.80213 0.32842 0.69007 0.0
C1761 C 0.83253 0.30798 0.70491 0.0
C1762 C 0.7864 0.33036 0.67496 0.0
C1763 C 0.78548 0.31626 0.65816 0.0
C1764 C 0.81711 0.31245 0.68815 0.0
C1765 C 0.80124 0.30112 0.6564 0.0
C1766 C 0.84875 0.29359 0.70148 0.0
C1767 C 0.84193 0.31017 0.74095 0.0
N1768 N 0.8163 0.29956 0.67124 0.0
N1769 N 0.82985 0.31608 0.72445 0.0
H1770 H 0.91936 0.5239 0.9328 0.0
H1771 H 0.98513 0.62299 0.97174 0.0
H1772 H 0.97062 0.55197 0.89907 0.0
H1773 H 0.94281 0.58916 0.01197 0.0
H1774 H 0.97449 0.60099 0.94257 0.0
H1775 H 0.9227 0.55125 0.95961 0.0
C1776 C 0.93111 0.53595 0.93089 0.0
C1777 C 0.94489 0.53553 0.9138 0.0
C1778 C 0.96736 0.59846 0.95772 0.0
C1779 C 0.94871 0.56676 0.94424 0.0
C1780 C 0.97339 0.61108 0.9744 0.0
C1781 C 0.96505 0.60774 0.9944 0.0
C1782 C 0.95293 0.58224 0.961 0.0
C1783 C 0.94974 0.59218 0.99683 0.0
C1784 C 0.93304 0.55148 0.94621 0.0
C1785 C 0.95983 0.5515 0.91211 0.0
N1786 N 0.94434 0.57981 0.98036 0.0
N1787 N 0.96138 0.56635 0.92715 0.0
H1788 H 0.6276 0.7284 0.21786 0.0
H1789 H 0.72834 0.66418 0.18043 0.0
H1790 H 0.66233 0.68771 0.25897 0.0
H1791 H 0.69945 0.71445 0.14596 0.0
H1792 H 0.70059 0.6671 0.20692 0.0
H1793 H 0.64976 0.71749 0.18889 0.0
C1794 C 0.63973 0.71695 0.22076 0.0
C1795 C 0.64329 0.70918 0.24095 0.0
C1796 C 0.70025 0.6773 0.19341 0.0
C1797 C 0.66898 0.69676 0.20777 0.0
C1798 C 0.71602 0.6756 0.17828 0.0
C1799 C 0.71633 0.68927 0.16111 0.0
C1800 C 0.68464 0.69261 0.19114 0.0
C1801 C 0.7 0.70378 0.15908 0.0
C1802 C 0.65244 0.71076 0.20419 0.0
C1803 C 0.65913 0.69421 0.24368 0.0
N1804 N 0.68493 0.70512 0.17394 0.0
N1805 N 0.67159 0.68866 0.22731 0.0
H1806 H 0.58211 0.47742 0.42957 0.0
H1807 H 0.51934 0.37706 0.47021 0.0
H1808 H 0.53162 0.4474 0.39643 0.0
H1809 H 0.55991 0.41325 0.51014 0.0
H1810 H 0.5294 0.39889 0.44072 0.0
H1811 H 0.57944 0.45055 0.45694 0.0
C1812 C 0.57068 0.46504 0.42791 0.0
C1813 C 0.55692 0.46476 0.41081 0.0
C1814 C 0.53628 0.40198 0.45587 0.0
C1815 C 0.55385 0.43407 0.44189 0.0
C1816 C 0.53058 0.38947 0.47275 0.0
C1817 C 0.53859 0.39349 0.49276 0.0
C1818 C 0.55004 0.41879 0.45895 0.0
C1819 C 0.55326 0.40968 0.495 0.0
C1820 C 0.56912 0.44979 0.44355 0.0
C1821 C 0.54239 0.4484 0.40945 0.0
N1822 N 0.55835 0.42192 0.47833 0.0
N1823 N 0.5412 0.43381 0.42479 0.0
H1824 H 0.7417 0.83704 0.68775 0.0
H1825 H 0.85698 0.80002 0.71559 0.0
H1826 H 0.78266 0.86927 0.73056 0.0
H1827 H 0.82183 0.77283 0.6649 0.0
H1828 H 0.83063 0.82722 0.71895 0.0
H1829 H 0.77125 0.81519 0.67668 0.0
C1830 C 0.75695 0.83976 0.69456 0.0
C1831 C 0.75965 0.85483 0.7103 0.0
C1832 C 0.8287 0.81548 0.7069 0.0
C1833 C 0.79339 0.82983 0.69786 0.0
C1834 C 0.84377 0.7999 0.70501 0.0
C1835 C 0.84149 0.78403 0.69007 0.0
C1836 C 0.81093 0.81508 0.69403 0.0
C1837 C 0.82415 0.78478 0.67664 0.0
C1838 C 0.77379 0.82726 0.68826 0.0
C1839 C 0.77976 0.85769 0.71857 0.0
N1840 N 0.80932 0.79988 0.67915 0.0
N1841 N 0.79574 0.84518 0.71242 0.0
H1842 H 0.24238 0.66245 0.31798 0.0
H1843 H 0.35737 0.70077 0.29143 0.0
H1844 H 0.28491 0.62966 0.27712 0.0
H1845 H 0.32123 0.72811 0.34138 0.0
H1846 H 0.33161 0.67303 0.28831 0.0
H1847 H 0.27135 0.68491 0.32931 0.0
C1848 C 0.25786 0.65972 0.31167 0.0
C1849 C 0.26117 0.64434 0.29636 0.0
C1850 C 0.32933 0.68491 0.30014 0.0
C1851 C 0.29424 0.67002 0.30908 0.0
C1852 C 0.34405 0.70081 0.3019 0.0
C1853 C 0.34132 0.71687 0.31655 0.0
C1854 C 0.31143 0.68518 0.31286 0.0
C1855 C 0.32388 0.71601 0.32985 0.0
C1856 C 0.27437 0.67257 0.31812 0.0
C1857 C 0.28154 0.64148 0.28875 0.0
N1858 N 0.30937 0.70059 0.32747 0.0
N1859 N 0.29719 0.65434 0.295 0.0
H1860 H 0.55034 0.10194 0.53406 0.0
H1861 H 0.62814 0.02913 0.53117 0.0
H1862 H 0.52537 0.06944 0.58766 0.0
H1863 H 0.58291 0.98821 0.55994 0.0
H1864 H 0.60707 0.05912 0.54145 0.0
H1865 H 0.57749 0.07573 0.53108 0.0
C1866 C 0.55078 0.08942 0.54546 0.0
C1867 C 0.53552 0.08789 0.56113 0.0
C1868 C 0.6016 0.04361 0.54541 0.0
C1869 C 0.56712 0.05776 0.55809 0.0
C1870 C 0.61378 0.02647 0.53975 0.0
C1871 C 0.60704 0.00614 0.54433 0.0
C1872 C 0.58226 0.04042 0.55532 0.0
C1873 C 0.58855 0.00365 0.55591 0.0
C1874 C 0.56653 0.07452 0.54391 0.0
C1875 C 0.5369 0.07125 0.5754 0.0
N1876 N 0.5766 0.02061 0.56075 0.0
N1877 N 0.55227 0.05662 0.57335 0.0
H1878 H 0.25886 0.33907 0.81138 0.0
H1879 H 0.14359 0.30159 0.78415 0.0
H1880 H 0.21763 0.37101 0.76859 0.0
H1881 H 0.17956 0.2741 0.83415 0.0
H1882 H 0.16977 0.3289 0.78066 0.0
H1883 H 0.2295 0.31709 0.82255 0.0
C1884 C 0.24358 0.3417 0.80459 0.0
C1885 C 0.24075 0.35672 0.78883 0.0
C1886 C 0.17193 0.31707 0.79257 0.0
C1887 C 0.20722 0.33155 0.80137 0.0
C1888 C 0.15697 0.3014 0.79454 0.0
C1889 C 0.15951 0.28542 0.80932 0.0
C1890 C 0.18984 0.31665 0.80524 0.0
C1891 C 0.17704 0.28612 0.82251 0.0
C1892 C 0.22684 0.32912 0.81094 0.0
C1893 C 0.22061 0.35948 0.78061 0.0
N1894 N 0.19173 0.30133 0.81996 0.0
N1895 N 0.20472 0.34687 0.7868 0.0
H1896 H 0.41357 0.50935 0.56593 0.0
H1897 H 0.44721 0.39234 0.54151 0.0
H1898 H 0.3787 0.46721 0.52646 0.0
H1899 H 0.47728 0.42909 0.58937 0.0
H1900 H 0.42022 0.41894 0.53841 0.0
H1901 H 0.43523 0.47985 0.57746 0.0
C1902 C 0.41024 0.49387 0.55996 0.0
C1903 C 0.39449 0.49079 0.54499 0.0
C1904 C 0.43254 0.42117 0.5498 0.0
C1905 C 0.41924 0.45709 0.55795 0.0
C1906 C 0.44799 0.40596 0.55154 0.0
C1907 C 0.46461 0.40861 0.56557 0.0
C1908 C 0.43383 0.43946 0.56189 0.0
C1909 C 0.46473 0.42647 0.57833 0.0
C1910 C 0.42262 0.47704 0.56652 0.0
C1911 C 0.39083 0.4704 0.53781 0.0
N1912 N 0.44974 0.44143 0.57595 0.0
N1913 N 0.40324 0.45442 0.54417 0.0
H1914 H 0.67575 0.22913 0.1581 0.0
H1915 H 0.71442 0.1294 0.223 0.0
H1916 H 0.64255 0.20139 0.20987 0.0
H1917 H 0.75555 0.1651 0.18317 0.0
H1918 H 0.68526 0.15114 0.21185 0.0
H1919 H 0.70243 0.2016 0.16111 0.0
C1920 C 0.6739 0.21708 0.16985 0.0
C1921 C 0.65704 0.21765 0.18391 0.0
C1922 C 0.70061 0.15412 0.20535 0.0
C1923 C 0.6873 0.18623 0.18735 0.0
C1924 C 0.71729 0.14166 0.21168 0.0
C1925 C 0.73754 0.14562 0.20424 0.0
C1926 C 0.70411 0.1708 0.19153 0.0
C1927 C 0.74022 0.1616 0.18941 0.0
C1928 C 0.68915 0.20146 0.17161 0.0
C1929 C 0.65542 0.20171 0.19887 0.0
N1930 N 0.72372 0.17381 0.18371 0.0
N1931 N 0.67037 0.18674 0.20024 0.0
H1932 H 0.58787 0.01008 0.9319 0.0
H1933 H 0.55227 0.8939 0.95759 0.0
H1934 H 0.62155 0.96798 0.97245 0.0
H1935 H 0.5228 0.93064 0.90934 0.0
H1936 H 0.57961 0.92013 0.96052 0.0
H1937 H 0.56585 0.98078 0.92057 0.0
C1938 C 0.59087 0.99464 0.93814 0.0
C1939 C 0.60638 0.99153 0.95337 0.0
C1940 C 0.56734 0.92245 0.94909 0.0
C1941 C 0.58121 0.95807 0.94063 0.0
C1942 C 0.55167 0.90746 0.94745 0.0
C1943 C 0.53513 0.91021 0.93335 0.0
C1944 C 0.56634 0.94063 0.93683 0.0
C1945 C 0.53528 0.92796 0.92044 0.0
C1946 C 0.57828 0.97793 0.9317 0.0
C1947 C 0.60961 0.97119 0.96089 0.0
N1948 N 0.55049 0.94271 0.92272 0.0
N1949 N 0.597 0.95534 0.95463 0.0
H1950 H 0.94928 0.10789 0.46749 0.0
H1951 H 0.91215 0.99267 0.43929 0.0
H1952 H 0.97757 0.07199 0.41788 0.0
H1953 H 0.87994 0.03358 0.48221 0.0
H1954 H 0.93426 0.02208 0.42855 0.0
H1955 H 0.92198 0.08165 0.47058 0.0
C1956 C 0.94965 0.09451 0.45711 0.0
C1957 C 0.96586 0.09201 0.44255 0.0
C1958 C 0.92214 0.02466 0.44009 0.0
C1959 C 0.93462 0.06161 0.44617 0.0
C1960 C 0.90948 0.00789 0.4462 0.0
C1961 C 0.89433 0.01061 0.46187 0.0
C1962 C 0.91967 0.04421 0.44981 0.0
C1963 C 0.89155 0.03068 0.47025 0.0
C1964 C 0.93399 0.07952 0.45885 0.0
C1965 C 0.96538 0.07448 0.42935 0.0
N1966 N 0.90424 0.0466 0.46429 0.0
N1967 N 0.95016 0.05975 0.43167 0.0
H1968 H 0.08371 0.14399 0.43953 0.0
H1969 H 0.17968 0.12526 0.36623 0.0
H1970 H 0.07128 0.11775 0.37862 0.0
H1971 H 0.16911 0.18529 0.39512 0.0
H1972 H 0.14335 0.11543 0.37464 0.0
H1973 H 0.11952 0.15163 0.42846 0.0
C1974 C 0.08863 0.13945 0.42397 0.0
C1975 C 0.07453 0.13026 0.40994 0.0
C1976 C 0.14906 0.13079 0.37888 0.0
C1977 C 0.1154 0.13883 0.39735 0.0
C1978 C 0.16966 0.13642 0.3741 0.0
C1979 C 0.17731 0.15615 0.37991 0.0
C1980 C 0.13646 0.14475 0.39015 0.0
C1981 C 0.16378 0.17 0.3902 0.0
C1982 C 0.10896 0.14399 0.41765 0.0
C1983 C 0.0817 0.12491 0.38987 0.0
N1984 N 0.14411 0.1639 0.39533 0.0
N1985 N 0.10177 0.12919 0.38415 0.0
H1986 H 0.12548 0.92954 0.61802 0.0
H1987 H 0.10697 0.83232 0.68971 0.0
H1988 H 0.0653 0.91805 0.64626 0.0
H1989 H 0.13387 0.82109 0.62884 0.0
H1990 H 0.09907 0.86824 0.67913 0.0
H1991 H 0.13556 0.89317 0.62598 0.0
C1992 C 0.11435 0.91932 0.62565 0.0
C1993 C 0.0945 0.92672 0.63141 0.0
C1994 C 0.1069 0.85792 0.66822 0.0
C1995 C 0.10617 0.88583 0.64115 0.0
C1996 C 0.11159 0.83753 0.67426 0.0
C1997 C 0.12104 0.82374 0.66009 0.0
C1998 C 0.1122 0.86471 0.64808 0.0
C1999 C 0.12649 0.83127 0.64018 0.0
C2000 C 0.12011 0.8987 0.63017 0.0
C2001 C 0.08068 0.91292 0.64138 0.0
N2002 N 0.12208 0.85137 0.63474 0.0
N2003 N 0.0869 0.89324 0.64627 0.0
H2004 H 0.43619 0.86079 0.86597 0.0
H2005 H 0.33633 0.81849 0.86042 0.0
H2006 H 0.41324 0.8851 0.9246 0.0
H2007 H 0.31644 0.87467 0.89202 0.0
H2008 H 0.37263 0.83016 0.86339 0.0
H2009 H 0.40015 0.85398 0.85515 0.0
C2010 C 0.42357 0.86497 0.87646 0.0
C2011 C 0.42774 0.87329 0.89635 0.0
C2012 C 0.36029 0.84018 0.8692 0.0
C2013 C 0.38656 0.86527 0.88414 0.0
C2014 C 0.33958 0.83345 0.86763 0.0
C2015 C 0.32337 0.84566 0.87593 0.0
C2016 C 0.3648 0.85906 0.87948 0.0
C2017 C 0.32847 0.86486 0.88528 0.0
C2018 C 0.40304 0.86087 0.87034 0.0
C2019 C 0.41074 0.87846 0.90924 0.0
N2020 N 0.34879 0.87079 0.88716 0.0
N2021 N 0.39087 0.87432 0.90293 0.0
H2022 H 0.35917 0.16283 0.17508 0.0
H2023 H 0.37154 0.06155 0.13754 0.0
H2024 H 0.39049 0.18183 0.11843 0.0
H2025 H 0.42907 0.08682 0.11294 0.0
H2026 H 0.35859 0.09714 0.1428 0.0
H2027 H 0.36468 0.12624 0.16533 0.0
C2028 C 0.36685 0.15929 0.16041 0.0
C2029 C 0.37432 0.17537 0.14751 0.0
C2030 C 0.37402 0.09486 0.13622 0.0
C2031 C 0.38079 0.13362 0.13632 0.0
C2032 C 0.38136 0.07457 0.133 0.0
C2033 C 0.40154 0.07122 0.12501 0.0
C2034 C 0.38688 0.11192 0.13125 0.0
C2035 C 0.41352 0.0887 0.11935 0.0
C2036 C 0.36988 0.13842 0.15478 0.0
C2037 C 0.38434 0.16991 0.12875 0.0
N2038 N 0.40601 0.10833 0.12261 0.0
N2039 N 0.38764 0.14948 0.1239 0.0
H2040 H 0.18744 0.88047 0.1111 0.0
H2041 H 0.06699 0.85978 0.13624 0.0
H2042 H 0.16576 0.82558 0.1438 0.0
H2043 H 0.0878 0.89204 0.08075 0.0
H2044 H 0.10353 0.8546 0.14644 0.0
H2045 H 0.15114 0.89206 0.10731 0.0
C2046 C 0.17508 0.87105 0.11783 0.0
C2047 C 0.17959 0.85194 0.12765 0.0
C2048 C 0.10003 0.86307 0.1322 0.0
C2049 C 0.13818 0.86521 0.12348 0.0
C2050 C 0.07922 0.86616 0.12642 0.0
C2051 C 0.07438 0.87623 0.10753 0.0
C2052 C 0.11607 0.87043 0.11919 0.0
C2053 C 0.09087 0.88406 0.09536 0.0
C2054 C 0.15441 0.87763 0.11556 0.0
C2055 C 0.16295 0.84033 0.13599 0.0
N2056 N 0.11101 0.88095 0.10137 0.0
N2057 N 0.14294 0.84713 0.13368 0.0
H2058 H 0.4291 0.91583 0.39053 0.0
H2059 H 0.3606 0.8374 0.32605 0.0
H2060 H 0.37394 0.93656 0.35771 0.0
H2061 H 0.39285 0.81773 0.38193 0.0
H2062 H 0.366 0.87391 0.33632 0.0
H2063 H 0.41716 0.87962 0.3868 0.0
C2064 C 0.41436 0.91278 0.38279 0.0
C2065 C 0.40253 0.92919 0.37435 0.0
C2066 C 0.37158 0.86157 0.34649 0.0
C2067 C 0.38904 0.88791 0.36968 0.0
C2068 C 0.36854 0.84077 0.34062 0.0
C2069 C 0.37634 0.82454 0.35313 0.0
C2070 C 0.38297 0.86614 0.36469 0.0
C2071 C 0.38654 0.82977 0.37185 0.0
C2072 C 0.40753 0.89215 0.38071 0.0
C2073 C 0.38353 0.92437 0.36447 0.0
N2074 N 0.38989 0.85013 0.37689 0.0
N2075 N 0.37754 0.90413 0.36208 0.0
H2076 H 0.43113 0.11377 0.62555 0.0
H2077 H 0.33354 0.18517 0.60867 0.0
H2078 H 0.41888 0.14236 0.56569 0.0
H2079 H 0.32235 0.12377 0.63431 0.0
H2080 H 0.36948 0.17483 0.60066 0.0
H2081 H 0.3948 0.12141 0.63604 0.0
C2082 C 0.42075 0.12142 0.61457 0.0
C2083 C 0.42793 0.12737 0.59469 0.0
C2084 C 0.35916 0.16375 0.60826 0.0
C2085 C 0.38707 0.13673 0.60683 0.0
C2086 C 0.33876 0.16965 0.61302 0.0
C2087 C 0.32496 0.15526 0.62212 0.0
C2088 C 0.36598 0.14352 0.61312 0.0
C2089 C 0.33253 0.13528 0.62721 0.0
C2090 C 0.40015 0.12575 0.62057 0.0
C2091 C 0.41393 0.13734 0.58108 0.0
N2092 N 0.35266 0.12996 0.62271 0.0
N2093 N 0.39427 0.14205 0.58753 0.0
H2094 H 0.13573 0.1812 0.87475 0.0
H2095 H 0.0658 0.08231 0.85959 0.0
H2096 H 0.10715 0.16762 0.81517 0.0
H2097 H 0.12742 0.07251 0.88525 0.0
H2098 H 0.07556 0.11826 0.85094 0.0
H2099 H 0.12867 0.14493 0.8858 0.0
C2100 C 0.12821 0.17054 0.86395 0.0
C2101 C 0.12208 0.17732 0.84399 0.0
C2102 C 0.08681 0.10825 0.85868 0.0
C2103 C 0.11338 0.13654 0.85677 0.0
C2104 C 0.08124 0.08784 0.86379 0.0
C2105 C 0.09586 0.07443 0.8731 0.0
C2106 C 0.10694 0.11545 0.86338 0.0
C2107 C 0.11574 0.08238 0.87801 0.0
C2108 C 0.1242 0.14998 0.87027 0.0
C2109 C 0.11229 0.16298 0.83062 0.0
N2110 N 0.12073 0.1025 0.87316 0.0
N2111 N 0.1079 0.14336 0.83738 0.0
H2112 H 0.11843 0.38826 0.18941 0.0
H2113 H 0.10967 0.42704 0.08835 0.0
H2114 H 0.17604 0.3628 0.16516 0.0
H2115 H 0.14111 0.37045 0.06936 0.0
H2116 H 0.11319 0.41624 0.12487 0.0
H2117 H 0.1062 0.39364 0.15355 0.0
C2118 C 0.1284 0.38352 0.17656 0.0
C2119 C 0.14842 0.37532 0.18026 0.0
C2120 C 0.11881 0.40592 0.11269 0.0
C2121 C 0.13462 0.38172 0.1393 0.0
C2122 C 0.11693 0.41214 0.09185 0.0
C2123 C 0.1251 0.39961 0.07582 0.0
C2124 C 0.12927 0.38721 0.11751 0.0
C2125 C 0.13449 0.38053 0.08124 0.0
C2126 C 0.12148 0.38682 0.15612 0.0
C2127 C 0.16061 0.3694 0.163 0.0
N2128 N 0.1367 0.3751 0.10167 0.0
N2129 N 0.15354 0.37278 0.14324 0.0
H2130 H 0.61986 0.11083 0.80938 0.0
H2131 H 0.6106 0.07159 0.91028 0.0
H2132 H 0.67778 0.13559 0.83354 0.0
H2133 H 0.64229 0.12795 0.92946 0.0
H2134 H 0.61477 0.08219 0.87376 0.0
H2135 H 0.60782 0.10507 0.84523 0.0
C2136 C 0.62995 0.11531 0.82222 0.0
C2137 C 0.64998 0.12347 0.81847 0.0
C2138 C 0.62033 0.09249 0.88597 0.0
C2139 C 0.63639 0.11664 0.85944 0.0
C2140 C 0.61808 0.08638 0.90681 0.0
C2141 C 0.62607 0.09893 0.9229 0.0
C2142 C 0.63098 0.11111 0.88122 0.0
C2143 C 0.63578 0.11787 0.91752 0.0
C2144 C 0.62313 0.11181 0.84265 0.0
C2145 C 0.66233 0.12905 0.83572 0.0
N2146 N 0.63832 0.1232 0.8971 0.0
N2147 N 0.65534 0.12548 0.85549 0.0
H2148 H 0.87332 0.8686 0.32029 0.0
H2149 H 0.85768 0.93894 0.41899 0.0
H2150 H 0.81359 0.8969 0.33376 0.0
H2151 H 0.88428 0.87771 0.42879 0.0
H2152 H 0.84895 0.92896 0.38311 0.0
H2153 H 0.8844 0.87603 0.35648 0.0
C2154 C 0.8625 0.87615 0.3309 0.0
C2155 C 0.84248 0.88206 0.32412 0.0
C2156 C 0.85691 0.91784 0.39311 0.0
C2157 C 0.85527 0.89119 0.36483 0.0
C2158 C 0.86207 0.92354 0.41347 0.0
C2159 C 0.87168 0.90909 0.42687 0.0
C2160 C 0.86187 0.89776 0.38591 0.0
C2161 C 0.87681 0.88926 0.41893 0.0
C2162 C 0.86883 0.88036 0.35143 0.0
C2163 C 0.82908 0.89191 0.33841 0.0
N2164 N 0.87191 0.88415 0.39884 0.0
N2165 N 0.83585 0.8965 0.35799 0.0
H2166 H 0.87909 0.11425 0.18481 0.0
H2167 H 0.88998 0.07154 0.08554 0.0
H2168 H 0.82087 0.1369 0.15932 0.0
H2169 H 0.85787 0.1268 0.06397 0.0
H2170 H 0.88512 0.08334 0.12162 0.0
H2171 H 0.89159 0.10754 0.14929 0.0
C2172 C 0.86903 0.11809 0.17175 0.0
C2173 C 0.84878 0.12591 0.17505 0.0
C2174 C 0.8796 0.09313 0.10897 0.0
C2175 C 0.86291 0.11799 0.13444 0.0
C2176 C 0.88225 0.08634 0.08839 0.0
C2177 C 0.87437 0.09824 0.07176 0.0
C2178 C 0.86866 0.11177 0.11293 0.0
C2179 C 0.86433 0.11723 0.07634 0.0
C2180 C 0.87612 0.11404 0.1515 0.0
C2181 C 0.83649 0.13065 0.1575 0.0
N2182 N 0.8614 0.12321 0.09653 0.0
N2183 N 0.84374 0.12656 0.13792 0.0
H2184 H 0.39141 0.57322 0.58563 0.0
H2185 H 0.32753 0.64124 0.66504 0.0
H2186 H 0.35859 0.62864 0.5656 0.0
H2187 H 0.38314 0.6082 0.68418 0.0
H2188 H 0.33776 0.63631 0.62844 0.0
H2189 H 0.38799 0.58488 0.62197 0.0
C2190 C 0.38375 0.58797 0.58887 0.0
C2191 C 0.37521 0.59995 0.57261 0.0
C2192 C 0.34788 0.63045 0.64068 0.0
C2193 C 0.37087 0.61312 0.61406 0.0
C2194 C 0.34204 0.63323 0.66154 0.0
C2195 C 0.35447 0.62506 0.67765 0.0
C2196 C 0.36598 0.61897 0.63592 0.0
C2197 C 0.37312 0.61479 0.67225 0.0
C2198 C 0.38184 0.59463 0.60957 0.0
C2199 C 0.36543 0.61895 0.57766 0.0
N2200 N 0.37812 0.6117 0.65182 0.0
N2201 N 0.3632 0.62478 0.59798 0.0
H2202 H 0.12327 0.60775 0.31805 0.0
H2203 H 0.14441 0.63051 0.43887 0.0
H2204 H 0.17881 0.63904 0.34009 0.0
H2205 H 0.11128 0.57587 0.41728 0.0
H2206 H 0.15005 0.64099 0.40246 0.0
H2207 H 0.11184 0.60333 0.35434 0.0
C2208 C 0.13287 0.61404 0.3305 0.0
C2209 C 0.15209 0.62367 0.32608 0.0
C2210 C 0.14131 0.62686 0.40576 0.0
C2211 C 0.13902 0.61876 0.36749 0.0
C2212 C 0.13796 0.62093 0.42649 0.0
C2213 C 0.12746 0.60221 0.43108 0.0
C2214 C 0.13377 0.6142 0.38954 0.0
C2215 C 0.11957 0.59034 0.41442 0.0
C2216 C 0.12638 0.61139 0.35116 0.0
C2217 C 0.16395 0.63141 0.34283 0.0
N2218 N 0.12291 0.59652 0.39435 0.0
N2219 N 0.15724 0.62876 0.36283 0.0
H2220 H 0.38365 0.37433 0.9281 0.0
H2221 H 0.31284 0.39329 0.83037 0.0
H2222 H 0.35523 0.43447 0.91696 0.0
H2223 H 0.37418 0.36744 0.81932 0.0
H2224 H 0.32292 0.40076 0.86651 0.0
H2225 H 0.376 0.36454 0.89158 0.0
C2226 C 0.37601 0.3855 0.91793 0.0
C2227 C 0.37014 0.40527 0.92545 0.0
C2228 C 0.33404 0.39324 0.85617 0.0
C2229 C 0.36079 0.39393 0.88437 0.0
C2230 C 0.32829 0.38881 0.83565 0.0
C2231 C 0.34273 0.37978 0.82185 0.0
C2232 C 0.35417 0.38812 0.8631 0.0
C2233 C 0.36264 0.37449 0.8295 0.0
C2234 C 0.37168 0.37991 0.89722 0.0
C2235 C 0.36018 0.41916 0.91172 0.0
N2236 N 0.3678 0.37866 0.84973 0.0
N2237 N 0.35549 0.41309 0.89194 0.0
H2238 H 0.58382 0.60894 0.92678 0.0
H2239 H 0.68499 0.61775 0.88826 0.0
H2240 H 0.56521 0.64108 0.87047 0.0
H2241 H 0.66139 0.67621 0.8642 0.0
H2242 H 0.64903 0.60584 0.89349 0.0
H2243 H 0.62043 0.61288 0.91641 0.0
C2244 C 0.58744 0.61646 0.91204 0.0
C2245 C 0.57148 0.62466 0.89944 0.0
C2246 C 0.65176 0.62123 0.88701 0.0
C2247 C 0.61326 0.62933 0.88754 0.0
C2248 C 0.67226 0.62798 0.88381 0.0
C2249 C 0.67619 0.64813 0.87603 0.0
C2250 C 0.63509 0.63467 0.88223 0.0
C2251 C 0.65906 0.66066 0.87047 0.0
C2252 C 0.60832 0.61859 0.90606 0.0
C2253 C 0.57704 0.63441 0.88057 0.0
N2254 N 0.63923 0.65374 0.87373 0.0
N2255 N 0.59751 0.63685 0.87538 0.0
H2256 H 0.60677 0.31734 0.11749 0.0
H2257 H 0.63125 0.4374 0.14083 0.0
H2258 H 0.6382 0.33799 0.1735 0.0
H2259 H 0.57625 0.41711 0.10748 0.0
H2260 H 0.64142 0.40077 0.14554 0.0
H2261 H 0.60313 0.35385 0.10654 0.0
C2262 C 0.61326 0.32952 0.12729 0.0
C2263 C 0.62267 0.32466 0.14652 0.0
C2264 C 0.6273 0.40441 0.13694 0.0
C2265 C 0.61867 0.36631 0.13399 0.0
C2266 C 0.62154 0.42526 0.13412 0.0
C2267 C 0.60279 0.43026 0.12387 0.0
C2268 C 0.61442 0.38849 0.12912 0.0
C2269 C 0.59074 0.41391 0.1156 0.0
C2270 C 0.61107 0.35031 0.12108 0.0
C2271 C 0.6307 0.34108 0.15864 0.0
N2272 N 0.59674 0.39372 0.11845 0.0
N2273 N 0.62848 0.36121 0.15219 0.0
H2274 H 0.82958 0.31407 0.39192 0.0
H2275 H 0.92668 0.38647 0.37635 0.0
H2276 H 0.81847 0.37526 0.36576 0.0
H2277 H 0.91425 0.35726 0.43587 0.0
H2278 H 0.89054 0.37854 0.36551 0.0
H2279 H 0.86525 0.32473 0.40067 0.0
C2280 C 0.83477 0.32961 0.38763 0.0
C2281 C 0.82107 0.34384 0.37813 0.0
C2282 C 0.8958 0.37413 0.38098 0.0
C2283 C 0.86178 0.35595 0.38798 0.0
C2284 C 0.91629 0.37863 0.38718 0.0
C2285 C 0.92336 0.37258 0.40706 0.0
C2286 C 0.88273 0.3629 0.39452 0.0
C2287 C 0.90937 0.36236 0.42049 0.0
C2288 C 0.85501 0.3357 0.39281 0.0
C2289 C 0.82857 0.36386 0.37314 0.0
N2290 N 0.88982 0.3575 0.41384 0.0
N2291 N 0.84855 0.36936 0.37804 0.0
H2292 H 0.89136 0.6847 0.62221 0.0
H2293 H 0.86908 0.56414 0.64517 0.0
H2294 H 0.85992 0.66331 0.67795 0.0
H2295 H 0.92381 0.58556 0.61203 0.0
H2296 H 0.8582 0.60054 0.64995 0.0
H2297 H 0.89576 0.6483 0.61119 0.0
C2298 C 0.88501 0.67238 0.63193 0.0
C2299 C 0.87538 0.67701 0.65111 0.0
C2300 C 0.87242 0.5972 0.64138 0.0
C2301 C 0.88027 0.63547 0.6385 0.0
C2302 C 0.87859 0.57647 0.63853 0.0
C2303 C 0.89746 0.57185 0.6283 0.0
C2304 C 0.88501 0.61338 0.63362 0.0
C2305 C 0.90923 0.58846 0.62013 0.0
C2306 C 0.88764 0.65165 0.62567 0.0
C2307 C 0.86756 0.66041 0.66313 0.0
N2308 N 0.90283 0.60852 0.623 0.0
N2309 N 0.87022 0.64034 0.65665 0.0
H2310 H 0.56391 0.36182 0.63347 0.0
H2311 H 0.66552 0.32411 0.64095 0.0
H2312 H 0.58645 0.38593 0.57459 0.0
H2313 H 0.68318 0.38041 0.60827 0.0
H2314 H 0.62876 0.33411 0.63743 0.0
H2315 H 0.60009 0.35679 0.6448 0.0
C2316 C 0.57646 0.36632 0.62302 0.0
C2317 C 0.57216 0.37407 0.60293 0.0
C2318 C 0.6407 0.34453 0.6315 0.0
C2319 C 0.6135 0.36808 0.61572 0.0
C2320 C 0.66167 0.33876 0.63339 0.0
C2321 C 0.6774 0.35147 0.62494 0.0
C2322 C 0.63545 0.36296 0.62075 0.0
C2323 C 0.67154 0.37023 0.61514 0.0
C2324 C 0.59708 0.36323 0.62943 0.0
C2325 C 0.58906 0.3797 0.59011 0.0
N2326 N 0.651 0.37521 0.61295 0.0
N2327 N 0.60902 0.37654 0.59671 0.0
H2328 H 0.89389 0.33585 0.81268 0.0
H2329 H 0.88008 0.43169 0.88718 0.0
H2330 H 0.86788 0.32382 0.87378 0.0
H2331 H 0.9393 0.41887 0.85749 0.0
H2332 H 0.86862 0.3959 0.87854 0.0
H2333 H 0.90312 0.3712 0.82403 0.0
C2334 C 0.88973 0.34078 0.82834 0.0
C2335 C 0.88014 0.32691 0.84235 0.0
C2336 C 0.88417 0.40099 0.87418 0.0
C2337 C 0.89054 0.36724 0.85526 0.0
C2338 C 0.89072 0.42128 0.87909 0.0
C2339 C 0.91069 0.42815 0.87311 0.0
C2340 C 0.89745 0.38794 0.86262 0.0
C2341 C 0.92385 0.41414 0.86255 0.0
C2342 C 0.89518 0.36084 0.83483 0.0
C2343 C 0.87532 0.33407 0.86255 0.0
N2344 N 0.91686 0.39481 0.85731 0.0
N2345 N 0.8805 0.35387 0.86844 0.0
H2346 H 0.82236 0.62778 0.1358 0.0
H2347 H 0.92114 0.64621 0.06616 0.0
H2348 H 0.83379 0.68763 0.10686 0.0
H2349 H 0.93103 0.62024 0.12764 0.0
H2350 H 0.88492 0.65403 0.07575 0.0
H2351 H 0.859 0.61799 0.12879 0.0
C2352 C 0.83262 0.6389 0.12819 0.0
C2353 C 0.82513 0.65858 0.12198 0.0
C2354 C 0.89502 0.64642 0.08702 0.0
C2355 C 0.86637 0.64723 0.11334 0.0
C2356 C 0.91558 0.64179 0.08154 0.0
C2357 C 0.92907 0.6326 0.09616 0.0
C2358 C 0.88774 0.64134 0.10705 0.0
C2359 C 0.92109 0.6274 0.11596 0.0
C2360 C 0.8534 0.63331 0.12422 0.0
C2361 C 0.83898 0.67239 0.11207 0.0
N2362 N 0.90082 0.63175 0.12084 0.0
N2363 N 0.85885 0.66631 0.10773 0.0
H2364 H 0.60597 0.66673 0.31292 0.0
H2365 H 0.61992 0.56877 0.38481 0.0
H2366 H 0.63209 0.6767 0.37432 0.0
H2367 H 0.56108 0.58177 0.35451 0.0
H2368 H 0.63118 0.60486 0.37724 0.0
H2369 H 0.59672 0.63105 0.3231 0.0
C2370 C 0.61014 0.66128 0.3284 0.0
C2371 C 0.61978 0.67468 0.34283 0.0
C2372 C 0.61575 0.59974 0.3725 0.0
C2373 C 0.60935 0.63394 0.35442 0.0
C2374 C 0.60932 0.57927 0.3768 0.0
C2375 C 0.58951 0.57238 0.37035 0.0
C2376 C 0.60254 0.61297 0.36108 0.0
C2377 C 0.57639 0.58652 0.35992 0.0
C2378 C 0.60468 0.64103 0.33423 0.0
C2379 C 0.62461 0.66685 0.36278 0.0
N2380 N 0.58328 0.60604 0.35528 0.0
N2381 N 0.61942 0.64687 0.36801 0.0
H2382 H 0.64011 0.86579 0.56407 0.0
H2383 H 0.67925 0.85816 0.66516 0.0
H2384 H 0.615 0.92389 0.58747 0.0
H2385 H 0.62267 0.88983 0.6838 0.0
H2386 H 0.66865 0.86168 0.62856 0.0
H2387 H 0.64584 0.85423 0.60008 0.0
C2388 C 0.63553 0.87601 0.57677 0.0
C2389 C 0.6273 0.89596 0.57276 0.0
C2390 C 0.65831 0.86738 0.64068 0.0
C2391 C 0.63409 0.88292 0.61391 0.0
C2392 C 0.66442 0.8655 0.66156 0.0
C2393 C 0.6518 0.87368 0.67752 0.0
C2394 C 0.63963 0.87785 0.63576 0.0
C2395 C 0.6328 0.88319 0.67198 0.0
C2396 C 0.63903 0.86947 0.5973 0.0
C2397 C 0.6216 0.90849 0.58985 0.0
N2398 N 0.62748 0.88537 0.65152 0.0
N2399 N 0.62516 0.90178 0.60971 0.0
loop_
_geom_bond_atom_site_label_1
_geom_bond_atom_site_label_2
_geom_bond_distance
_geom_bond_site_symmetry_2
_ccdc_geom_bond_type
O0 Cd1 2.223 . S
O0 C8 1.315 . S
Cd1 O0 2.223 . S
Cd1 O4 2.297 . S
Cd1 O5 2.439 . S
Cd1 O11 2.240 . S
Cd2 O3 2.240 . S
Cd2 O10 2.223 . S
Cd2 O12 2.297 . S
Cd2 O13 2.439 . S
O3 Cd2 2.240 . S
O3 C8 1.279 . S
O4 Cd1 2.297 . S
O4 C6 1.247 . S
O5 Cd1 2.439 . S
O5 C6 1.208 . S
C6 O4 1.247 . S
C6 O5 1.208 . S
C7 O12 1.247 . S
C7 O13 1.208 . S
C8 O0 1.315 . S
C8 O3 1.279 . S
C9 O10 1.315 . S
C9 O11 1.279 . S
O10 Cd2 2.223 . S
O10 C9 1.315 . S
O11 Cd1 2.240 . S
O11 C9 1.279 . S
O12 Cd2 2.297 . S
O12 C7 1.247 . S
O13 Cd2 2.439 . S
O13 C7 1.208 . S
O14 Cd15 2.223 . S
O14 C22 1.315 . S
Cd15 O14 2.223 . S
Cd15 O18 2.297 . S
Cd15 O19 2.439 . S
Cd15 O25 2.240 . S
Cd16 O17 2.240 . S
Cd16 O24 2.223 1_565 S
Cd16 O26 2.297 . S
Cd16 O27 2.439 . S
O17 Cd16 2.240 . S
O17 C22 1.279 1_655 S
O18 Cd15 2.297 . S
O18 C20 1.247 . S
O19 Cd15 2.439 . S
O19 C20 1.208 . S
C20 O18 1.247 . S
C20 O19 1.208 . S
C21 O26 1.247 . S
C21 O27 1.208 . S
C22 O14 1.315 . S
C22 O17 1.279 1_455 S
C23 O24 1.333 1_455 S
C23 O25 1.226 1_545 S
O24 Cd16 2.223 1_545 S
O24 C23 1.333 1_655 S
O25 Cd15 2.240 . S
O25 C23 1.226 1_565 S
O26 Cd16 2.297 . S
O26 C21 1.247 . S
O27 Cd16 2.439 . S
O27 C21 1.208 . S
O28 Cd29 2.223 . S
O28 C36 1.315 . S
Cd29 O28 2.223 . S
Cd29 O32 2.297 . S
Cd29 O33 2.439 . S
Cd29 O39 2.240 . S
Cd30 O31 2.240 . S
Cd30 O38 2.223 . S
Cd30 O40 2.297 . S
Cd30 O41 2.439 . S
O31 Cd30 2.240 . S
O31 C36 1.279 . S
O32 Cd29 2.297 . S
O32 C34 1.247 . S
O33 Cd29 2.439 . S
O33 C34 1.208 . S
C34 O32 1.247 . S
C34 O33 1.208 . S
C35 O40 1.247 . S
C35 O41 1.208 . S
C36 O28 1.315 . S
C36 O31 1.279 . S
C37 O38 1.315 . S
C37 O39 1.279 . S
O38 Cd30 2.223 . S
O38 C37 1.315 . S
O39 Cd29 2.240 . S
O39 C37 1.279 . S
O40 Cd30 2.297 . S
O40 C35 1.247 . S
O41 Cd30 2.439 . S
O41 C35 1.208 . S
O42 Cd43 2.223 . S
O42 C50 1.315 . S
Cd43 O42 2.223 . S
Cd43 O46 2.297 . S
Cd43 O47 2.439 . S
Cd43 O53 2.240 . S
Cd44 O45 2.240 . S
Cd44 O52 2.223 1_545 S
Cd44 O54 2.297 . S
Cd44 O55 2.439 . S
O45 Cd44 2.240 . S
O45 C50 1.279 . S
O46 Cd43 2.297 . S
O46 C48 1.247 . S
O47 Cd43 2.439 . S
O47 C48 1.208 . S
C48 O46 1.247 . S
C48 O47 1.208 . S
C49 O54 1.247 . S
C49 O55 1.208 . S
C50 O42 1.315 . S
C50 O45 1.279 . S
C51 O52 1.315 . S
C51 O53 1.279 1_565 S
O52 Cd44 2.223 1_565 S
O52 C51 1.315 . S
O53 Cd43 2.240 . S
O53 C51 1.279 1_545 S
O54 Cd44 2.297 . S
O54 C49 1.247 . S
O55 Cd44 2.439 . S
O55 C49 1.208 . S
O56 Cd57 2.223 . S
O56 C64 1.315 . S
Cd57 O56 2.223 . S
Cd57 O60 2.297 . S
Cd57 O61 2.439 . S
Cd57 O67 2.240 . S
Cd58 O59 2.240 . S
Cd58 O66 2.223 . S
Cd58 O68 2.297 . S
Cd58 O69 2.439 . S
O59 Cd58 2.240 . S
O59 C64 1.279 . S
O60 Cd57 2.297 . S
O60 C62 1.247 . S
O61 Cd57 2.439 . S
O61 C62 1.208 . S
C62 O60 1.247 . S
C62 O61 1.208 . S
C63 O68 1.247 . S
C63 O69 1.208 . S
C64 O56 1.315 . S
C64 O59 1.279 . S
C65 O66 1.315 . S
C65 O67 1.279 . S
O66 Cd58 2.223 . S
O66 C65 1.315 . S
O67 Cd57 2.240 . S
O67 C65 1.279 . S
O68 Cd58 2.297 . S
O68 C63 1.247 . S
O69 Cd58 2.439 . S
O69 C63 1.208 . S
O70 Cd71 2.223 . S
O70 C78 1.315 . S
Cd71 O70 2.223 . S
Cd71 O74 2.297 . S
Cd71 O75 2.439 . S
Cd71 O81 2.240 . S
Cd72 O73 2.240 . S
Cd72 O80 2.223 1_565 S
Cd72 O82 2.297 . S
Cd72 O83 2.439 . S
O73 Cd72 2.240 . S
O73 C78 1.279 . S
O74 Cd71 2.297 . S
O74 C76 1.247 . S
O75 Cd71 2.439 . S
O75 C76 1.208 . S
C76 O74 1.247 . S
C76 O75 1.208 . S
C77 O82 1.247 . S
C77 O83 1.208 . S
C78 O70 1.315 . S
C78 O73 1.279 . S
C79 O80 1.331 . S
C79 O81 1.231 1_545 S
O80 Cd72 2.223 1_545 S
O80 C79 1.331 . S
O81 Cd71 2.240 . S
O81 C79 1.231 1_565 S
O82 Cd72 2.297 . S
O82 C77 1.247 . S
O83 Cd72 2.439 . S
O83 C77 1.208 . S
O84 Cd85 2.223 . S
O84 C92 1.315 . S
Cd85 O84 2.223 . S
Cd85 O88 2.297 . S
Cd85 O89 2.439 . S
Cd85 O95 2.240 . S
Cd86 O87 2.240 . S
Cd86 O94 2.223 . S
Cd86 O96 2.297 . S
Cd86 O97 2.439 . S
O87 Cd86 2.240 . S
O87 C92 1.279 . S
O88 Cd85 2.297 . S
O88 C90 1.247 . S
O89 Cd85 2.439 . S
O89 C90 1.208 . S
C90 O88 1.247 . S
C90 O89 1.208 . S
C91 O96 1.247 . S
C91 O97 1.208 . S
C92 O84 1.315 . S
C92 O87 1.279 . S
C93 O94 1.315 . S
C93 O95 1.279 . S
O94 Cd86 2.223 . S
O94 C93 1.315 . S
O95 Cd85 2.240 . S
O95 C93 1.279 . S
O96 Cd86 2.297 . S
O96 C91 1.247 . S
O97 Cd86 2.439 . S
O97 C91 1.208 . S
O98 Cd99 2.223 . S
O98 C106 1.315 . S
Cd99 O98 2.223 . S
Cd99 O102 2.297 . S
Cd99 O103 2.439 . S
Cd99 O109 2.240 . S
Cd100 O101 2.240 . S
Cd100 O108 2.223 1_545 S
Cd100 O110 2.297 . S
Cd100 O111 2.439 . S
O101 Cd100 2.240 . S
O101 C106 1.279 1_655 S
O102 Cd99 2.297 . S
O102 C104 1.247 . S
O103 Cd99 2.439 . S
O103 C104 1.208 . S
C104 O102 1.247 . S
C104 O103 1.208 . S
C105 O110 1.247 . S
C105 O111 1.208 . S
C106 O98 1.315 . S
C106 O101 1.279 1_455 S
C107 O108 1.315 1_455 S
C107 O109 1.279 1_565 S
O108 Cd100 2.223 1_565 S
O108 C107 1.315 1_655 S
O109 Cd99 2.240 . S
O109 C107 1.279 1_545 S
O110 Cd100 2.297 . S
O110 C105 1.247 . S
O111 Cd100 2.439 . S
O111 C105 1.208 . S
O112 Cd113 2.223 . S
O112 C120 1.315 . S
Cd113 O112 2.223 . S
Cd113 O116 2.297 . S
Cd113 O117 2.439 . S
Cd113 O123 2.240 . S
Cd114 O115 2.240 . S
Cd114 O122 2.223 . S
Cd114 O124 2.297 . S
Cd114 O125 2.439 . S
O115 Cd114 2.240 . S
O115 C120 1.279 . S
O116 Cd113 2.297 . S
O116 C118 1.247 . S
O117 Cd113 2.439 . S
O117 C118 1.208 . S
C118 O116 1.247 . S
C118 O117 1.208 . S
C119 O124 1.247 . S
C119 O125 1.208 . S
C120 O112 1.315 . S
C120 O115 1.279 . S
C121 O122 1.315 . S
C121 O123 1.279 . S
O122 Cd114 2.223 . S
O122 C121 1.315 . S
O123 Cd113 2.240 . S
O123 C121 1.279 . S
O124 Cd114 2.297 . S
O124 C119 1.247 . S
O125 Cd114 2.439 . S
O125 C119 1.208 . S
O126 Cd127 2.223 . S
O126 C134 1.315 . S
Cd127 O126 2.223 . S
Cd127 O130 2.297 . S
Cd127 O131 2.439 . S
Cd127 O137 2.240 . S
Cd128 O129 2.240 . S
Cd128 O136 2.223 1_455 S
Cd128 O138 2.297 . S
Cd128 O139 2.439 . S
O129 Cd128 2.240 . S
O129 C134 1.279 . S
O130 Cd127 2.297 . S
O130 C132 1.247 . S
O131 Cd127 2.439 . S
O131 C132 1.208 . S
C132 O130 1.247 . S
C132 O131 1.208 . S
C133 O138 1.247 . S
C133 O139 1.208 . S
C134 O126 1.315 . S
C134 O129 1.279 . S
C135 O136 1.315 . S
C135 O137 1.279 1_655 S
O136 Cd128 2.223 1_655 S
O136 C135 1.315 . S
O137 Cd127 2.240 . S
O137 C135 1.279 1_455 S
O138 Cd128 2.297 . S
O138 C133 1.247 . S
O139 Cd128 2.439 . S
O139 C133 1.208 . S
O140 Cd141 2.223 . S
O140 C148 1.315 . S
Cd141 O140 2.223 . S
Cd141 O144 2.297 . S
Cd141 O145 2.439 . S
Cd141 O151 2.240 . S
Cd142 O143 2.240 . S
Cd142 O150 2.223 . S
Cd142 O152 2.297 . S
Cd142 O153 2.439 . S
O143 Cd142 2.240 . S
O143 C148 1.279 . S
O144 Cd141 2.297 . S
O144 C146 1.247 . S
O145 Cd141 2.439 . S
O145 C146 1.208 . S
C146 O144 1.247 . S
C146 O145 1.208 . S
C147 O152 1.247 . S
C147 O153 1.208 . S
C148 O140 1.315 . S
C148 O143 1.279 . S
C149 O150 1.315 . S
C149 O151 1.279 . S
O150 Cd142 2.223 . S
O150 C149 1.315 . S
O151 Cd141 2.240 . S
O151 C149 1.279 . S
O152 Cd142 2.297 . S
O152 C147 1.247 . S
O153 Cd142 2.439 . S
O153 C147 1.208 . S
O154 Cd155 2.223 . S
O154 C162 1.315 . S
Cd155 O154 2.223 . S
Cd155 O158 2.297 . S
Cd155 O159 2.439 . S
Cd155 O165 2.240 . S
Cd156 O157 2.240 . S
Cd156 O164 2.223 . S
Cd156 O166 2.297 . S
Cd156 O167 2.439 . S
O157 Cd156 2.240 . S
O157 C162 1.279 1_554 S
O158 Cd155 2.297 . S
O158 C160 1.247 . S
O159 Cd155 2.439 . S
O159 C160 1.208 . S
C160 O158 1.247 . S
C160 O159 1.208 . S
C161 O166 1.247 . S
C161 O167 1.208 . S
C162 O154 1.315 . S
C162 O157 1.279 1_556 S
C163 O164 1.315 1_556 S
C163 O165 1.279 . S
O164 Cd156 2.223 . S
O164 C163 1.315 1_554 S
O165 Cd155 2.240 . S
O165 C163 1.279 . S
O166 Cd156 2.297 . S
O166 C161 1.247 . S
O167 Cd156 2.439 . S
O167 C161 1.208 . S
O168 Cd169 2.223 . S
O168 C176 1.315 . S
Cd169 O168 2.223 . S
Cd169 O172 2.297 . S
Cd169 O173 2.439 . S
Cd169 O179 2.240 . S
Cd170 O171 2.240 . S
Cd170 O178 2.223 . S
Cd170 O180 2.297 . S
Cd170 O181 2.439 . S
O171 Cd170 2.240 . S
O171 C176 1.279 . S
O172 Cd169 2.297 . S
O172 C174 1.247 . S
O173 Cd169 2.439 . S
O173 C174 1.208 . S
C174 O172 1.247 . S
C174 O173 1.208 . S
C175 O180 1.247 . S
C175 O181 1.208 . S
C176 O168 1.315 . S
C176 O171 1.279 . S
C177 O178 1.315 . S
C177 O179 1.279 . S
O178 Cd170 2.223 . S
O178 C177 1.315 . S
O179 Cd169 2.240 . S
O179 C177 1.279 . S
O180 Cd170 2.297 . S
O180 C175 1.247 . S
O181 Cd170 2.439 . S
O181 C175 1.208 . S
O182 Cd183 2.223 . S
O182 C190 1.315 . S
Cd183 O182 2.223 . S
Cd183 O186 2.297 . S
Cd183 O187 2.439 . S
Cd183 O193 2.240 . S
Cd184 O185 2.240 . S
Cd184 O192 2.223 . S
Cd184 O194 2.297 . S
Cd184 O195 2.439 . S
O185 Cd184 2.240 . S
O185 C190 1.279 . S
O186 Cd183 2.297 . S
O186 C188 1.247 . S
O187 Cd183 2.439 . S
O187 C188 1.208 . S
C188 O186 1.247 . S
C188 O187 1.208 . S
C189 O194 1.247 . S
C189 O195 1.208 . S
C190 O182 1.315 . S
C190 O185 1.279 . S
C191 O192 1.315 . S
C191 O193 1.279 . S
O192 Cd184 2.223 . S
O192 C191 1.315 . S
O193 Cd183 2.240 . S
O193 C191 1.279 . S
O194 Cd184 2.297 . S
O194 C189 1.247 . S
O195 Cd184 2.439 . S
O195 C189 1.208 . S
O196 Cd197 2.223 . S
O196 C204 1.315 . S
Cd197 O196 2.223 . S
Cd197 O200 2.297 . S
Cd197 O201 2.439 . S
Cd197 O207 2.240 . S
Cd198 O199 2.240 . S
Cd198 O206 2.223 . S
Cd198 O208 2.297 . S
Cd198 O209 2.439 . S
O199 Cd198 2.240 . S
O199 C204 1.279 . S
O200 Cd197 2.297 . S
O200 C202 1.247 . S
O201 Cd197 2.439 . S
O201 C202 1.208 . S
C202 O200 1.247 . S
C202 O201 1.208 . S
C203 O208 1.247 . S
C203 O209 1.208 . S
C204 O196 1.315 . S
C204 O199 1.279 . S
C205 O206 1.315 . S
C205 O207 1.279 . S
O206 Cd198 2.223 . S
O206 C205 1.315 . S
O207 Cd197 2.240 . S
O207 C205 1.279 . S
O208 Cd198 2.297 . S
O208 C203 1.247 . S
O209 Cd198 2.439 . S
O209 C203 1.208 . S
O210 Cd211 2.223 . S
O210 C218 1.315 . S
Cd211 O210 2.223 . S
Cd211 O214 2.297 . S
Cd211 O215 2.439 . S
Cd211 O221 2.240 . S
Cd212 O213 2.240 . S
Cd212 O220 2.223 1_455 S
Cd212 O222 2.297 . S
Cd212 O223 2.439 . S
O213 Cd212 2.240 . S
O213 C218 1.279 1_556 S
O214 Cd211 2.297 . S
O214 C216 1.247 . S
O215 Cd211 2.439 . S
O215 C216 1.208 . S
C216 O214 1.247 . S
C216 O215 1.208 . S
C217 O222 1.247 . S
C217 O223 1.208 . S
C218 O210 1.315 . S
C218 O213 1.279 1_554 S
C219 O220 1.315 1_554 S
C219 O221 1.279 1_655 S
O220 Cd212 2.223 1_655 S
O220 C219 1.315 1_556 S
O221 Cd211 2.240 . S
O221 C219 1.279 1_455 S
O222 Cd212 2.297 . S
O222 C217 1.247 . S
O223 Cd212 2.439 . S
O223 C217 1.208 . S
O224 Cd225 2.223 . S
O224 C232 1.315 . S
Cd225 O224 2.223 . S
Cd225 O228 2.297 . S
Cd225 O229 2.439 . S
Cd225 O235 2.240 . S
Cd226 O227 2.240 . S
Cd226 O234 2.223 . S
Cd226 O236 2.297 . S
Cd226 O237 2.439 . S
O227 Cd226 2.240 . S
O227 C232 1.279 . S
O228 Cd225 2.297 . S
O228 C230 1.247 . S
O229 Cd225 2.439 . S
O229 C230 1.208 . S
C230 O228 1.247 . S
C230 O229 1.208 . S
C231 O236 1.247 . S
C231 O237 1.208 . S
C232 O224 1.315 . S
C232 O227 1.279 . S
C233 O234 1.315 . S
C233 O235 1.279 . S
O234 Cd226 2.223 . S
O234 C233 1.315 . S
O235 Cd225 2.240 . S
O235 C233 1.279 . S
O236 Cd226 2.297 . S
O236 C231 1.247 . S
O237 Cd226 2.439 . S
O237 C231 1.208 . S
O238 Cd239 2.223 . S
O238 C246 1.315 . S
Cd239 O238 2.223 . S
Cd239 O242 2.297 . S
Cd239 O243 2.439 . S
Cd239 O249 2.240 . S
Cd240 O241 2.240 . S
Cd240 O248 2.223 . S
Cd240 O250 2.297 . S
Cd240 O251 2.439 . S
O241 Cd240 2.240 . S
O241 C246 1.279 . S
O242 Cd239 2.297 . S
O242 C244 1.247 . S
O243 Cd239 2.439 . S
O243 C244 1.208 . S
C244 O242 1.247 . S
C244 O243 1.208 . S
C245 O250 1.247 . S
C245 O251 1.208 . S
C246 O238 1.315 . S
C246 O241 1.279 . S
C247 O248 1.315 . S
C247 O249 1.279 . S
O248 Cd240 2.223 . S
O248 C247 1.315 . S
O249 Cd239 2.240 . S
O249 C247 1.279 . S
O250 Cd240 2.297 . S
O250 C245 1.247 . S
O251 Cd240 2.439 . S
O251 C245 1.208 . S
O252 Cd253 2.223 . S
O252 C260 1.315 . S
Cd253 O252 2.223 . S
Cd253 O256 2.297 . S
Cd253 O257 2.439 . S
Cd253 O263 2.240 . S
Cd254 O255 2.240 . S
Cd254 O262 2.223 1_554 S
Cd254 O264 2.297 . S
Cd254 O265 2.439 . S
O255 Cd254 2.240 . S
O255 C260 1.279 . S
O256 Cd253 2.297 . S
O256 C258 1.247 . S
O257 Cd253 2.439 . S
O257 C258 1.208 . S
C258 O256 1.247 . S
C258 O257 1.208 . S
C259 O264 1.247 . S
C259 O265 1.208 . S
C260 O252 1.315 . S
C260 O255 1.279 . S
C261 O262 1.315 . S
C261 O263 1.279 1_556 S
O262 Cd254 2.223 1_556 S
O262 C261 1.315 . S
O263 Cd253 2.240 . S
O263 C261 1.279 1_554 S
O264 Cd254 2.297 . S
O264 C259 1.247 . S
O265 Cd254 2.439 . S
O265 C259 1.208 . S
O266 Cd267 2.223 . S
O266 C274 1.315 . S
Cd267 O266 2.223 . S
Cd267 O270 2.297 . S
Cd267 O271 2.439 . S
Cd267 O277 2.240 . S
Cd268 O269 2.240 . S
Cd268 O276 2.223 . S
Cd268 O278 2.297 . S
Cd268 O279 2.439 . S
O269 Cd268 2.240 . S
O269 C274 1.279 . S
O270 Cd267 2.297 . S
O270 C272 1.247 . S
O271 Cd267 2.439 . S
O271 C272 1.208 . S
C272 O270 1.247 . S
C272 O271 1.208 . S
C273 O278 1.247 . S
C273 O279 1.208 . S
C274 O266 1.315 . S
C274 O269 1.279 . S
C275 O276 1.315 . S
C275 O277 1.279 . S
O276 Cd268 2.223 . S
O276 C275 1.315 . S
O277 Cd267 2.240 . S
O277 C275 1.279 . S
O278 Cd268 2.297 . S
O278 C273 1.247 . S
O279 Cd268 2.439 . S
O279 C273 1.208 . S
O280 Cd281 2.223 . S
O280 C288 1.315 . S
Cd281 O280 2.223 . S
Cd281 O284 2.297 . S
Cd281 O285 2.439 . S
Cd281 O291 2.240 . S
Cd282 O283 2.240 . S
Cd282 O290 2.223 1_554 S
Cd282 O292 2.297 . S
Cd282 O293 2.439 . S
O283 Cd282 2.240 . S
O283 C288 1.279 1_565 S
O284 Cd281 2.297 . S
O284 C286 1.247 . S
O285 Cd281 2.439 . S
O285 C286 1.208 . S
C286 O284 1.247 . S
C286 O285 1.208 . S
C287 O292 1.247 . S
C287 O293 1.208 . S
C288 O280 1.315 . S
C288 O283 1.279 1_545 S
C289 O290 1.315 1_545 S
C289 O291 1.279 1_556 S
O290 Cd282 2.223 1_556 S
O290 C289 1.315 1_565 S
O291 Cd281 2.240 . S
O291 C289 1.279 1_554 S
O292 Cd282 2.297 . S
O292 C287 1.247 . S
O293 Cd282 2.439 . S
O293 C287 1.208 . S
O294 Cd295 2.223 . S
O294 C302 1.315 . S
Cd295 O294 2.223 . S
Cd295 O298 2.297 . S
Cd295 O299 2.439 . S
Cd295 O305 2.240 . S
Cd296 O297 2.240 . S
Cd296 O304 2.223 . S
Cd296 O306 2.297 . S
Cd296 O307 2.439 . S
O297 Cd296 2.240 . S
O297 C302 1.279 . S
O298 Cd295 2.297 . S
O298 C300 1.247 . S
O299 Cd295 2.439 . S
O299 C300 1.208 . S
C300 O298 1.247 . S
C300 O299 1.208 . S
C301 O306 1.247 . S
C301 O307 1.208 . S
C302 O294 1.315 . S
C302 O297 1.279 . S
C303 O304 1.315 . S
C303 O305 1.279 . S
O304 Cd296 2.223 . S
O304 C303 1.315 . S
O305 Cd295 2.240 . S
O305 C303 1.279 . S
O306 Cd296 2.297 . S
O306 C301 1.247 . S
O307 Cd296 2.439 . S
O307 C301 1.208 . S
O308 Cd309 2.223 . S
O308 C316 1.315 . S
Cd309 O308 2.223 . S
Cd309 O312 2.297 . S
Cd309 O313 2.439 . S
Cd309 O319 2.240 . S
Cd310 O311 2.240 . S
Cd310 O318 2.223 . S
Cd310 O320 2.297 . S
Cd310 O321 2.439 . S
O311 Cd310 2.240 . S
O311 C316 1.279 . S
O312 Cd309 2.297 . S
O312 C314 1.247 . S
O313 Cd309 2.439 . S
O313 C314 1.208 . S
C314 O312 1.247 . S
C314 O313 1.208 . S
C315 O320 1.247 . S
C315 O321 1.208 . S
C316 O308 1.315 . S
C316 O311 1.279 . S
C317 O318 1.315 . S
C317 O319 1.279 . S
O318 Cd310 2.223 . S
O318 C317 1.315 . S
O319 Cd309 2.240 . S
O319 C317 1.279 . S
O320 Cd310 2.297 . S
O320 C315 1.247 . S
O321 Cd310 2.439 . S
O321 C315 1.208 . S
O322 Cd323 2.223 . S
O322 C330 1.315 . S
Cd323 O322 2.223 . S
Cd323 O326 2.297 . S
Cd323 O327 2.439 . S
Cd323 O333 2.240 . S
Cd324 O325 2.240 . S
Cd324 O332 2.223 1_556 S
Cd324 O334 2.297 . S
Cd324 O335 2.439 . S
O325 Cd324 2.240 . S
O325 C330 1.279 . S
O326 Cd323 2.297 . S
O326 C328 1.247 . S
O327 Cd323 2.439 . S
O327 C328 1.208 . S
C328 O326 1.247 . S
C328 O327 1.208 . S
C329 O334 1.247 . S
C329 O335 1.208 . S
C330 O322 1.315 . S
C330 O325 1.279 . S
C331 O332 1.331 . S
C331 O333 1.231 1_554 S
O332 Cd324 2.223 1_554 S
O332 C331 1.331 . S
O333 Cd323 2.240 . S
O333 C331 1.231 1_556 S
O334 Cd324 2.297 . S
O334 C329 1.247 . S
O335 Cd324 2.439 . S
O335 C329 1.208 . S
O336 Cd337 2.223 . S
O336 C344 1.315 . S
Cd337 O336 2.223 . S
Cd337 O340 2.297 . S
Cd337 O341 2.439 . S
Cd337 O347 2.240 . S
Cd338 O339 2.240 . S
Cd338 O346 2.223 . S
Cd338 O348 2.297 . S
Cd338 O349 2.439 . S
O339 Cd338 2.240 . S
O339 C344 1.279 . S
O340 Cd337 2.297 . S
O340 C342 1.247 . S
O341 Cd337 2.439 . S
O341 C342 1.208 . S
C342 O340 1.247 . S
C342 O341 1.208 . S
C343 O348 1.247 . S
C343 O349 1.208 . S
C344 O336 1.315 . S
C344 O339 1.279 . S
C345 O346 1.315 . S
C345 O347 1.279 . S
O346 Cd338 2.223 . S
O346 C345 1.315 . S
O347 Cd337 2.240 . S
O347 C345 1.279 . S
O348 Cd338 2.297 . S
O348 C343 1.247 . S
O349 Cd338 2.439 . S
O349 C343 1.208 . S
O350 Cd351 2.223 . S
O350 C358 1.315 . S
Cd351 O350 2.223 . S
Cd351 O354 2.297 . S
Cd351 O355 2.439 . S
Cd351 O361 2.240 . S
Cd352 O353 2.240 . S
Cd352 O360 2.223 . S
Cd352 O362 2.297 . S
Cd352 O363 2.439 . S
O353 Cd352 2.240 . S
O353 C358 1.279 . S
O354 Cd351 2.297 . S
O354 C356 1.247 . S
O355 Cd351 2.439 . S
O355 C356 1.208 . S
C356 O354 1.247 . S
C356 O355 1.208 . S
C357 O362 1.247 . S
C357 O363 1.208 . S
C358 O350 1.315 . S
C358 O353 1.279 . S
C359 O360 1.315 . S
C359 O361 1.279 . S
O360 Cd352 2.223 . S
O360 C359 1.315 . S
O361 Cd351 2.240 . S
O361 C359 1.279 . S
O362 Cd352 2.297 . S
O362 C357 1.247 . S
O363 Cd352 2.439 . S
O363 C357 1.208 . S
O364 Cd365 2.223 . S
O364 C372 1.315 . S
Cd365 O364 2.223 . S
Cd365 O368 2.297 . S
Cd365 O369 2.439 . S
Cd365 O375 2.240 . S
Cd366 O367 2.240 . S
Cd366 O374 2.223 . S
Cd366 O376 2.297 . S
Cd366 O377 2.439 . S
O367 Cd366 2.240 . S
O367 C372 1.279 . S
O368 Cd365 2.297 . S
O368 C370 1.247 . S
O369 Cd365 2.439 . S
O369 C370 1.208 . S
C370 O368 1.247 . S
C370 O369 1.208 . S
C371 O376 1.247 . S
C371 O377 1.208 . S
C372 O364 1.315 . S
C372 O367 1.279 . S
C373 O374 1.315 . S
C373 O375 1.279 . S
O374 Cd366 2.223 . S
O374 C373 1.315 . S
O375 Cd365 2.240 . S
O375 C373 1.279 . S
O376 Cd366 2.297 . S
O376 C371 1.247 . S
O377 Cd366 2.439 . S
O377 C371 1.208 . S
O378 Cd379 2.223 . S
O378 C386 1.315 . S
Cd379 O378 2.223 . S
Cd379 O382 2.297 . S
Cd379 O383 2.439 . S
Cd379 O389 2.240 . S
Cd380 O381 2.240 . S
Cd380 O388 2.223 . S
Cd380 O390 2.297 . S
Cd380 O391 2.439 . S
O381 Cd380 2.240 . S
O381 C386 1.279 1_455 S
O382 Cd379 2.297 . S
O382 C384 1.247 . S
O383 Cd379 2.439 . S
O383 C384 1.208 . S
C384 O382 1.247 . S
C384 O383 1.208 . S
C385 O390 1.247 . S
C385 O391 1.208 . S
C386 O378 1.315 . S
C386 O381 1.279 1_655 S
C387 O388 1.315 1_655 S
C387 O389 1.279 . S
O388 Cd380 2.223 . S
O388 C387 1.315 1_455 S
O389 Cd379 2.240 . S
O389 C387 1.279 . S
O390 Cd380 2.297 . S
O390 C385 1.247 . S
O391 Cd380 2.439 . S
O391 C385 1.208 . S
O392 Cd393 2.223 . S
O392 C400 1.315 . S
Cd393 O392 2.223 . S
Cd393 O396 2.297 . S
Cd393 O397 2.439 . S
Cd393 O403 2.240 . S
Cd394 O395 2.240 . S
Cd394 O402 2.223 . S
Cd394 O404 2.297 . S
Cd394 O405 2.439 . S
O395 Cd394 2.240 . S
O395 C400 1.279 . S
O396 Cd393 2.297 . S
O396 C398 1.247 . S
O397 Cd393 2.439 . S
O397 C398 1.208 . S
C398 O396 1.247 . S
C398 O397 1.208 . S
C399 O404 1.247 . S
C399 O405 1.208 . S
C400 O392 1.315 . S
C400 O395 1.279 . S
C401 O402 1.315 . S
C401 O403 1.279 . S
O402 Cd394 2.223 . S
O402 C401 1.315 . S
O403 Cd393 2.240 . S
O403 C401 1.279 . S
O404 Cd394 2.297 . S
O404 C399 1.247 . S
O405 Cd394 2.439 . S
O405 C399 1.208 . S
O406 Cd407 2.223 . S
O406 C414 1.315 . S
Cd407 O406 2.223 . S
Cd407 O410 2.297 . S
Cd407 O411 2.439 . S
Cd407 O417 2.240 . S
Cd408 O409 2.240 . S
Cd408 O416 2.223 . S
Cd408 O418 2.297 . S
Cd408 O419 2.439 . S
O409 Cd408 2.240 . S
O409 C414 1.279 1_455 S
O410 Cd407 2.297 . S
O410 C412 1.247 . S
O411 Cd407 2.439 . S
O411 C412 1.208 . S
C412 O410 1.247 . S
C412 O411 1.208 . S
C413 O418 1.247 . S
C413 O419 1.208 . S
C414 O406 1.315 . S
C414 O409 1.279 1_655 S
C415 O416 1.315 1_655 S
C415 O417 1.279 . S
O416 Cd408 2.223 . S
O416 C415 1.315 1_455 S
O417 Cd407 2.240 . S
O417 C415 1.279 . S
O418 Cd408 2.297 . S
O418 C413 1.247 . S
O419 Cd408 2.439 . S
O419 C413 1.208 . S
O420 Cd421 2.223 . S
O420 C428 1.315 . S
Cd421 O420 2.223 . S
Cd421 O424 2.297 . S
Cd421 O425 2.439 . S
Cd421 O431 2.240 . S
Cd422 O423 2.240 . S
Cd422 O430 2.223 . S
Cd422 O432 2.297 . S
Cd422 O433 2.439 . S
O423 Cd422 2.240 . S
O423 C428 1.279 . S
O424 Cd421 2.297 . S
O424 C426 1.247 . S
O425 Cd421 2.439 . S
O425 C426 1.208 . S
C426 O424 1.247 . S
C426 O425 1.208 . S
C427 O432 1.247 . S
C427 O433 1.208 . S
C428 O420 1.315 . S
C428 O423 1.279 . S
C429 O430 1.315 . S
C429 O431 1.279 . S
O430 Cd422 2.223 . S
O430 C429 1.315 . S
O431 Cd421 2.240 . S
O431 C429 1.279 . S
O432 Cd422 2.297 . S
O432 C427 1.247 . S
O433 Cd422 2.439 . S
O433 C427 1.208 . S
O434 Cd435 2.223 . S
O434 C442 1.315 . S
Cd435 O434 2.223 . S
Cd435 O438 2.297 . S
Cd435 O439 2.439 . S
Cd435 O445 2.240 . S
Cd436 O437 2.240 . S
Cd436 O444 2.223 . S
Cd436 O446 2.297 . S
Cd436 O447 2.439 . S
O437 Cd436 2.240 . S
O437 C442 1.279 . S
O438 Cd435 2.297 . S
O438 C440 1.247 . S
O439 Cd435 2.439 . S
O439 C440 1.208 . S
C440 O438 1.247 . S
C440 O439 1.208 . S
C441 O446 1.247 . S
C441 O447 1.208 . S
C442 O434 1.315 . S
C442 O437 1.279 . S
C443 O444 1.315 . S
C443 O445 1.279 . S
O444 Cd436 2.223 . S
O444 C443 1.315 . S
O445 Cd435 2.240 . S
O445 C443 1.279 . S
O446 Cd436 2.297 . S
O446 C441 1.247 . S
O447 Cd436 2.439 . S
O447 C441 1.208 . S
O448 Cd449 2.223 . S
O448 C456 1.315 . S
Cd449 O448 2.223 . S
Cd449 O452 2.297 . S
Cd449 O453 2.439 . S
Cd449 O459 2.240 . S
Cd450 O451 2.240 . S
Cd450 O458 2.223 . S
Cd450 O460 2.297 . S
Cd450 O461 2.439 . S
O451 Cd450 2.240 . S
O451 C456 1.279 . S
O452 Cd449 2.297 . S
O452 C454 1.247 . S
O453 Cd449 2.439 . S
O453 C454 1.208 . S
C454 O452 1.247 . S
C454 O453 1.208 . S
C455 O460 1.247 . S
C455 O461 1.208 . S
C456 O448 1.315 . S
C456 O451 1.279 . S
C457 O458 1.315 . S
C457 O459 1.279 . S
O458 Cd450 2.223 . S
O458 C457 1.315 . S
O459 Cd449 2.240 . S
O459 C457 1.279 . S
O460 Cd450 2.297 . S
O460 C455 1.247 . S
O461 Cd450 2.439 . S
O461 C455 1.208 . S
O462 Cd463 2.223 . S
O462 C470 1.315 . S
Cd463 O462 2.223 . S
Cd463 O466 2.297 . S
Cd463 O467 2.439 . S
Cd463 O473 2.240 . S
Cd464 O465 2.240 . S
Cd464 O472 2.223 . S
Cd464 O474 2.297 . S
Cd464 O475 2.439 . S
O465 Cd464 2.240 . S
O465 C470 1.279 1_554 S
O466 Cd463 2.297 . S
O466 C468 1.247 . S
O467 Cd463 2.439 . S
O467 C468 1.208 . S
C468 O466 1.247 . S
C468 O467 1.208 . S
C469 O474 1.247 . S
C469 O475 1.208 . S
C470 O462 1.315 . S
C470 O465 1.279 1_556 S
C471 O472 1.315 1_556 S
C471 O473 1.279 . S
O472 Cd464 2.223 . S
O472 C471 1.315 1_554 S
O473 Cd463 2.240 . S
O473 C471 1.279 . S
O474 Cd464 2.297 . S
O474 C469 1.247 . S
O475 Cd464 2.439 . S
O475 C469 1.208 . S
O476 Cd477 2.223 . S
O476 C484 1.315 . S
Cd477 O476 2.223 . S
Cd477 O480 2.297 . S
Cd477 O481 2.439 . S
Cd477 O487 2.240 . S
Cd478 O479 2.240 . S
Cd478 O486 2.223 . S
Cd478 O488 2.297 . S
Cd478 O489 2.439 . S
O479 Cd478 2.240 . S
O479 C484 1.279 . S
O480 Cd477 2.297 . S
O480 C482 1.247 . S
O481 Cd477 2.439 . S
O481 C482 1.208 . S
C482 O480 1.247 . S
C482 O481 1.208 . S
C483 O488 1.247 . S
C483 O489 1.208 . S
C484 O476 1.315 . S
C484 O479 1.279 . S
C485 O486 1.315 . S
C485 O487 1.279 . S
O486 Cd478 2.223 . S
O486 C485 1.315 . S
O487 Cd477 2.240 . S
O487 C485 1.279 . S
O488 Cd478 2.297 . S
O488 C483 1.247 . S
O489 Cd478 2.439 . S
O489 C483 1.208 . S
O490 Cd491 2.223 . S
O490 C498 1.315 . S
Cd491 O490 2.223 . S
Cd491 O494 2.297 . S
Cd491 O495 2.439 . S
Cd491 O501 2.240 . S
Cd492 O493 2.240 . S
Cd492 O500 2.223 1_655 S
Cd492 O502 2.297 . S
Cd492 O503 2.439 . S
O493 Cd492 2.240 . S
O493 C498 1.279 . S
O494 Cd491 2.297 . S
O494 C496 1.247 . S
O495 Cd491 2.439 . S
O495 C496 1.208 . S
C496 O494 1.247 . S
C496 O495 1.208 . S
C497 O502 1.247 . S
C497 O503 1.208 . S
C498 O490 1.315 . S
C498 O493 1.279 . S
C499 O500 1.331 . S
C499 O501 1.231 1_455 S
O500 Cd492 2.223 1_455 S
O500 C499 1.331 . S
O501 Cd491 2.240 . S
O501 C499 1.231 1_655 S
O502 Cd492 2.297 . S
O502 C497 1.247 . S
O503 Cd492 2.439 . S
O503 C497 1.208 . S
O504 Cd505 2.223 . S
O504 C512 1.315 . S
Cd505 O504 2.223 . S
Cd505 O508 2.297 . S
Cd505 O509 2.439 . S
Cd505 O515 2.240 . S
Cd506 O507 2.240 . S
Cd506 O514 2.223 . S
Cd506 O516 2.297 . S
Cd506 O517 2.439 . S
O507 Cd506 2.240 . S
O507 C512 1.279 . S
O508 Cd505 2.297 . S
O508 C510 1.247 . S
O509 Cd505 2.439 . S
O509 C510 1.208 . S
C510 O508 1.247 . S
C510 O509 1.208 . S
C511 O516 1.247 . S
C511 O517 1.208 . S
C512 O504 1.315 . S
C512 O507 1.279 . S
C513 O514 1.315 . S
C513 O515 1.279 . S
O514 Cd506 2.223 . S
O514 C513 1.315 . S
O515 Cd505 2.240 . S
O515 C513 1.279 . S
O516 Cd506 2.297 . S
O516 C511 1.247 . S
O517 Cd506 2.439 . S
O517 C511 1.208 . S
O518 Cd519 2.223 . S
O518 C526 1.315 . S
Cd519 O518 2.223 . S
Cd519 O522 2.297 . S
Cd519 O523 2.439 . S
Cd519 O529 2.240 . S
Cd520 O521 2.240 . S
Cd520 O528 2.223 1_655 S
Cd520 O530 2.297 . S
Cd520 O531 2.439 . S
O521 Cd520 2.240 . S
O521 C526 1.279 1_556 S
O522 Cd519 2.297 . S
O522 C524 1.247 . S
O523 Cd519 2.439 . S
O523 C524 1.208 . S
C524 O522 1.247 . S
C524 O523 1.208 . S
C525 O530 1.247 . S
C525 O531 1.208 . S
C526 O518 1.315 . S
C526 O521 1.279 1_554 S
C527 O528 1.333 1_554 S
C527 O529 1.226 1_455 S
O528 Cd520 2.223 1_455 S
O528 C527 1.333 1_556 S
O529 Cd519 2.240 . S
O529 C527 1.226 1_655 S
O530 Cd520 2.297 . S
O530 C525 1.247 . S
O531 Cd520 2.439 . S
O531 C525 1.208 . S
O532 Cd533 2.223 . S
O532 C540 1.315 . S
Cd533 O532 2.223 . S
Cd533 O536 2.297 . S
Cd533 O537 2.439 . S
Cd533 O543 2.240 . S
Cd534 O535 2.240 . S
Cd534 O542 2.223 . S
Cd534 O544 2.297 . S
Cd534 O545 2.439 . S
O535 Cd534 2.240 . S
O535 C540 1.279 . S
O536 Cd533 2.297 . S
O536 C538 1.247 . S
O537 Cd533 2.439 . S
O537 C538 1.208 . S
C538 O536 1.247 . S
C538 O537 1.208 . S
C539 O544 1.247 . S
C539 O545 1.208 . S
C540 O532 1.315 . S
C540 O535 1.279 . S
C541 O542 1.315 . S
C541 O543 1.279 . S
O542 Cd534 2.223 . S
O542 C541 1.315 . S
O543 Cd533 2.240 . S
O543 C541 1.279 . S
O544 Cd534 2.297 . S
O544 C539 1.247 . S
O545 Cd534 2.439 . S
O545 C539 1.208 . S
O546 Cd547 2.223 . S
O546 C554 1.315 . S
Cd547 O546 2.223 . S
Cd547 O550 2.297 . S
Cd547 O551 2.439 . S
Cd547 O557 2.240 . S
Cd548 O549 2.240 . S
Cd548 O556 2.223 . S
Cd548 O558 2.297 . S
Cd548 O559 2.439 . S
O549 Cd548 2.240 . S
O549 C554 1.279 . S
O550 Cd547 2.297 . S
O550 C552 1.247 . S
O551 Cd547 2.439 . S
O551 C552 1.208 . S
C552 O550 1.247 . S
C552 O551 1.208 . S
C553 O558 1.247 . S
C553 O559 1.208 . S
C554 O546 1.315 . S
C554 O549 1.279 . S
C555 O556 1.315 . S
C555 O557 1.279 . S
O556 Cd548 2.223 . S
O556 C555 1.315 . S
O557 Cd547 2.240 . S
O557 C555 1.279 . S
O558 Cd548 2.297 . S
O558 C553 1.247 . S
O559 Cd548 2.439 . S
O559 C553 1.208 . S
O560 Cd561 2.223 . S
O560 C568 1.315 . S
Cd561 O560 2.223 . S
Cd561 O564 2.297 . S
Cd561 O565 2.439 . S
Cd561 O571 2.240 . S
Cd562 O563 2.240 . S
Cd562 O570 2.223 . S
Cd562 O572 2.297 . S
Cd562 O573 2.439 . S
O563 Cd562 2.240 . S
O563 C568 1.279 . S
O564 Cd561 2.297 . S
O564 C566 1.247 . S
O565 Cd561 2.439 . S
O565 C566 1.208 . S
C566 O564 1.247 . S
C566 O565 1.208 . S
C567 O572 1.247 . S
C567 O573 1.208 . S
C568 O560 1.315 . S
C568 O563 1.279 . S
C569 O570 1.315 . S
C569 O571 1.279 . S
O570 Cd562 2.223 . S
O570 C569 1.315 . S
O571 Cd561 2.240 . S
O571 C569 1.279 . S
O572 Cd562 2.297 . S
O572 C567 1.247 . S
O573 Cd562 2.439 . S
O573 C567 1.208 . S
O574 Cd575 2.223 . S
O574 C582 1.315 . S
Cd575 O574 2.223 . S
Cd575 O578 2.297 . S
Cd575 O579 2.439 . S
Cd575 O585 2.240 . S
Cd576 O577 2.240 . S
Cd576 O584 2.223 . S
Cd576 O586 2.297 . S
Cd576 O587 2.439 . S
O577 Cd576 2.240 . S
O577 C582 1.279 . S
O578 Cd575 2.297 . S
O578 C580 1.247 . S
O579 Cd575 2.439 . S
O579 C580 1.208 . S
C580 O578 1.247 . S
C580 O579 1.208 . S
C581 O586 1.247 . S
C581 O587 1.208 . S
C582 O574 1.315 . S
C582 O577 1.279 . S
C583 O584 1.315 . S
C583 O585 1.279 . S
O584 Cd576 2.223 . S
O584 C583 1.315 . S
O585 Cd575 2.240 . S
O585 C583 1.279 . S
O586 Cd576 2.297 . S
O586 C581 1.247 . S
O587 Cd576 2.439 . S
O587 C581 1.208 . S
O588 Cd589 2.223 . S
O588 C596 1.315 . S
Cd589 O588 2.223 . S
Cd589 O592 2.297 . S
Cd589 O593 2.439 . S
Cd589 O599 2.240 . S
Cd590 O591 2.240 . S
Cd590 O598 2.223 . S
Cd590 O600 2.297 . S
Cd590 O601 2.439 . S
O591 Cd590 2.240 . S
O591 C596 1.279 1_545 S
O592 Cd589 2.297 . S
O592 C594 1.247 . S
O593 Cd589 2.439 . S
O593 C594 1.208 . S
C594 O592 1.247 . S
C594 O593 1.208 . S
C595 O600 1.247 . S
C595 O601 1.208 . S
C596 O588 1.315 . S
C596 O591 1.279 1_565 S
C597 O598 1.315 1_565 S
C597 O599 1.279 . S
O598 Cd590 2.223 . S
O598 C597 1.315 1_545 S
O599 Cd589 2.240 . S
O599 C597 1.279 . S
O600 Cd590 2.297 . S
O600 C595 1.247 . S
O601 Cd590 2.439 . S
O601 C595 1.208 . S
O602 Cd603 2.223 . S
O602 C610 1.315 . S
Cd603 O602 2.223 . S
Cd603 O606 2.297 . S
Cd603 O607 2.439 . S
Cd603 O613 2.240 . S
Cd604 O605 2.240 . S
Cd604 O612 2.223 . S
Cd604 O614 2.297 . S
Cd604 O615 2.439 . S
O605 Cd604 2.240 . S
O605 C610 1.279 . S
O606 Cd603 2.297 . S
O606 C608 1.247 . S
O607 Cd603 2.439 . S
O607 C608 1.208 . S
C608 O606 1.247 . S
C608 O607 1.208 . S
C609 O614 1.247 . S
C609 O615 1.208 . S
C610 O602 1.315 . S
C610 O605 1.279 . S
C611 O612 1.315 . S
C611 O613 1.279 . S
O612 Cd604 2.223 . S
O612 C611 1.315 . S
O613 Cd603 2.240 . S
O613 C611 1.279 . S
O614 Cd604 2.297 . S
O614 C609 1.247 . S
O615 Cd604 2.439 . S
O615 C609 1.208 . S
O616 Cd617 2.223 . S
O616 C624 1.315 . S
Cd617 O616 2.223 . S
Cd617 O620 2.297 . S
Cd617 O621 2.439 . S
Cd617 O627 2.240 . S
Cd618 O619 2.240 . S
Cd618 O626 2.223 . S
Cd618 O628 2.297 . S
Cd618 O629 2.439 . S
O619 Cd618 2.240 . S
O619 C624 1.279 . S
O620 Cd617 2.297 . S
O620 C622 1.247 . S
O621 Cd617 2.439 . S
O621 C622 1.208 . S
C622 O620 1.247 . S
C622 O621 1.208 . S
C623 O628 1.247 . S
C623 O629 1.208 . S
C624 O616 1.315 . S
C624 O619 1.279 . S
C625 O626 1.315 . S
C625 O627 1.279 . S
O626 Cd618 2.223 . S
O626 C625 1.315 . S
O627 Cd617 2.240 . S
O627 C625 1.279 . S
O628 Cd618 2.297 . S
O628 C623 1.247 . S
O629 Cd618 2.439 . S
O629 C623 1.208 . S
O630 Cd631 2.223 . S
O630 C638 1.315 . S
Cd631 O630 2.223 . S
Cd631 O634 2.297 . S
Cd631 O635 2.439 . S
Cd631 O641 2.240 . S
Cd632 O633 2.240 . S
Cd632 O640 2.223 . S
Cd632 O642 2.297 . S
Cd632 O643 2.439 . S
O633 Cd632 2.240 . S
O633 C638 1.279 . S
O634 Cd631 2.297 . S
O634 C636 1.247 . S
O635 Cd631 2.439 . S
O635 C636 1.208 . S
C636 O634 1.247 . S
C636 O635 1.208 . S
C637 O642 1.247 . S
C637 O643 1.208 . S
C638 O630 1.315 . S
C638 O633 1.279 . S
C639 O640 1.315 . S
C639 O641 1.279 . S
O640 Cd632 2.223 . S
O640 C639 1.315 . S
O641 Cd631 2.240 . S
O641 C639 1.279 . S
O642 Cd632 2.297 . S
O642 C637 1.247 . S
O643 Cd632 2.439 . S
O643 C637 1.208 . S
O644 Cd645 2.223 . S
O644 C652 1.315 . S
Cd645 O644 2.223 . S
Cd645 O648 2.297 . S
Cd645 O649 2.439 . S
Cd645 O655 2.240 . S
Cd646 O647 2.240 . S
Cd646 O654 2.223 1_556 S
Cd646 O656 2.297 . S
Cd646 O657 2.439 . S
O647 Cd646 2.240 . S
O647 C652 1.279 1_565 S
O648 Cd645 2.297 . S
O648 C650 1.247 . S
O649 Cd645 2.439 . S
O649 C650 1.208 . S
C650 O648 1.247 . S
C650 O649 1.208 . S
C651 O656 1.247 . S
C651 O657 1.208 . S
C652 O644 1.315 . S
C652 O647 1.279 1_545 S
C653 O654 1.333 1_545 S
C653 O655 1.226 1_554 S
O654 Cd646 2.223 1_554 S
O654 C653 1.333 1_565 S
O655 Cd645 2.240 . S
O655 C653 1.226 1_556 S
O656 Cd646 2.297 . S
O656 C651 1.247 . S
O657 Cd646 2.439 . S
O657 C651 1.208 . S
O658 Cd659 2.223 . S
O658 C666 1.315 . S
Cd659 O658 2.223 . S
Cd659 O662 2.297 . S
Cd659 O663 2.439 . S
Cd659 O669 2.240 . S
Cd660 O661 2.240 . S
Cd660 O668 2.223 . S
Cd660 O670 2.297 . S
Cd660 O671 2.439 . S
O661 Cd660 2.240 . S
O661 C666 1.279 1_545 S
O662 Cd659 2.297 . S
O662 C664 1.247 . S
O663 Cd659 2.439 . S
O663 C664 1.208 . S
C664 O662 1.247 . S
C664 O663 1.208 . S
C665 O670 1.247 . S
C665 O671 1.208 . S
C666 O658 1.315 . S
C666 O661 1.279 1_565 S
C667 O668 1.315 1_565 S
C667 O669 1.279 . S
O668 Cd660 2.223 . S
O668 C667 1.315 1_545 S
O669 Cd659 2.240 . S
O669 C667 1.279 . S
O670 Cd660 2.297 . S
O670 C665 1.247 . S
O671 Cd660 2.439 . S
O671 C665 1.208 . S
H672 C678 0.930 . S
H673 C682 0.930 . S
H674 C687 0.929 . S
H675 C685 0.929 . S
H676 C680 0.929 . S
H677 C686 0.929 . S
C678 H672 0.930 . S
C678 C679 1.367 . S
C678 C686 1.378 . S
C679 C678 1.367 . S
C679 C687 1.433 . S
C680 H676 0.929 . S
C680 C682 1.378 . S
C680 C684 1.350 . S
C681 C684 1.463 . S
C681 C686 1.350 . S
C681 N689 1.427 . S
C682 H673 0.930 . S
C682 C680 1.378 . S
C682 C683 1.367 . S
C683 C682 1.367 . S
C683 C685 1.433 . S
C684 C680 1.350 . S
C684 C681 1.463 . S
C684 N688 1.427 . S
C685 H675 0.929 . S
C685 C683 1.433 . S
C685 N688 1.384 . S
C686 H677 0.929 . S
C686 C678 1.378 . S
C686 C681 1.350 . S
C687 H674 0.929 . S
C687 C679 1.433 . S
C687 N689 1.384 . S
N688 C684 1.427 . S
N688 C685 1.384 . S
N689 C681 1.427 . S
N689 C687 1.384 . S
H690 C696 0.930 . S
H691 C700 0.930 . S
H692 C705 0.929 . S
H693 C703 0.929 . S
H694 C698 0.929 . S
H695 C704 0.929 . S
C696 H690 0.930 . S
C696 C697 1.367 1_645 S
C696 C704 1.378 . S
C697 C696 1.367 1_465 S
C697 C705 1.433 . S
C698 H694 0.929 . S
C698 C700 1.378 . S
C698 C702 1.350 1_565 S
C699 C702 1.463 1_565 S
C699 C704 1.350 1_465 S
C699 N707 1.427 . S
C700 H691 0.930 . S
C700 C698 1.378 . S
C700 C701 1.367 1_565 S
C701 C700 1.367 1_545 S
C701 C703 1.433 1_455 S
C702 C698 1.350 1_545 S
C702 C699 1.463 1_545 S
C702 N706 1.427 1_455 S
C703 H693 0.929 . S
C703 C701 1.433 1_655 S
C703 N706 1.384 . S
C704 H695 0.929 . S
C704 C696 1.378 . S
C704 C699 1.350 1_645 S
C705 H692 0.929 . S
C705 C697 1.433 . S
C705 N707 1.384 . S
N706 C702 1.427 1_655 S
N706 C703 1.384 . S
N707 C699 1.427 . S
N707 C705 1.384 . S
H708 C714 0.930 . S
H709 C718 0.930 . S
H710 C723 0.929 . S
H711 C721 0.929 . S
H712 C716 0.929 . S
H713 C722 0.929 . S
C714 H708 0.930 . S
C714 C715 1.367 . S
C714 C722 1.378 . S
C715 C714 1.367 . S
C715 C723 1.433 . S
C716 H712 0.929 . S
C716 C718 1.378 . S
C716 C720 1.350 . S
C717 C720 1.463 1_556 S
C717 C722 1.350 . S
C717 N725 1.427 . S
C718 H709 0.930 . S
C718 C716 1.378 . S
C718 C719 1.367 . S
C719 C718 1.367 . S
C719 C721 1.433 . S
C720 C716 1.350 . S
C720 C717 1.463 1_554 S
C720 N724 1.427 . S
C721 H711 0.929 . S
C721 C719 1.433 . S
C721 N724 1.384 . S
C722 H713 0.929 . S
C722 C714 1.378 . S
C722 C717 1.350 . S
C723 H710 0.929 . S
C723 C715 1.433 . S
C723 N725 1.384 . S
N724 C720 1.427 . S
N724 C721 1.384 . S
N725 C717 1.427 . S
N725 C723 1.384 . S
H726 C732 0.932 1_545 S
H727 C736 0.944 . S
H728 C741 0.929 . S
H729 C739 0.929 . S
H730 C734 0.929 . S
H731 C740 0.929 . S
C732 H726 0.932 1_565 S
C732 C733 1.364 . S
C732 C740 1.379 1_565 S
C733 C732 1.364 . S
C733 C741 1.433 . S
C734 H730 0.929 . S
C734 C736 1.387 . S
C734 C738 1.350 1_565 S
C735 C738 1.463 1_565 S
C735 C740 1.350 1_565 S
C735 N743 1.427 . S
C736 H727 0.944 . S
C736 C734 1.387 . S
C736 C737 1.346 1_565 S
C737 C736 1.346 1_545 S
C737 C739 1.433 . S
C738 C734 1.350 1_545 S
C738 C735 1.463 1_545 S
C738 N742 1.427 . S
C739 H729 0.929 . S
C739 C737 1.433 . S
C739 N742 1.384 . S
C740 H731 0.929 . S
C740 C732 1.379 1_545 S
C740 C735 1.350 1_545 S
C741 H728 0.929 . S
C741 C733 1.433 . S
C741 N743 1.384 . S
N742 C738 1.427 . S
N742 C739 1.384 . S
N743 C735 1.427 . S
N743 C741 1.384 . S
H744 C750 0.930 . S
H745 C754 0.930 . S
H746 C759 0.929 . S
H747 C757 0.929 . S
H748 C752 0.929 . S
H749 C758 0.929 . S
C750 H744 0.930 . S
C750 C751 1.367 . S
C750 C758 1.378 . S
C751 C750 1.367 . S
C751 C759 1.433 . S
C752 H748 0.929 . S
C752 C754 1.378 . S
C752 C756 1.350 . S
C753 C756 1.463 . S
C753 C758 1.350 . S
C753 N761 1.427 . S
C754 H745 0.930 . S
C754 C752 1.378 . S
C754 C755 1.367 . S
C755 C754 1.367 . S
C755 C757 1.433 . S
C756 C752 1.350 . S
C756 C753 1.463 . S
C756 N760 1.427 . S
C757 H747 0.929 . S
C757 C755 1.433 . S
C757 N760 1.384 . S
C758 H749 0.929 . S
C758 C750 1.378 . S
C758 C753 1.350 . S
C759 H746 0.929 . S
C759 C751 1.433 . S
C759 N761 1.384 . S
N760 C756 1.427 . S
N760 C757 1.384 . S
N761 C753 1.427 . S
N761 C759 1.384 . S
H762 C768 0.933 . S
H763 C772 0.927 1_655 S
H764 C777 0.929 . S
H765 C775 0.929 . S
H766 C770 0.929 . S
H767 C776 0.929 . S
C768 H762 0.933 . S
C768 C769 1.367 . S
C768 C776 1.378 1_655 S
C769 C768 1.367 . S
C769 C777 1.433 . S
C770 H766 0.929 . S
C770 C772 1.378 1_655 S
C770 C774 1.350 1_655 S
C771 C774 1.463 1_655 S
C771 C776 1.350 1_655 S
C771 N779 1.427 . S
C772 H763 0.927 1_455 S
C772 C770 1.378 1_455 S
C772 C773 1.367 . S
C773 C772 1.367 . S
C773 C775 1.433 . S
C774 C770 1.350 1_455 S
C774 C771 1.463 1_455 S
C774 N778 1.427 . S
C775 H765 0.929 . S
C775 C773 1.433 . S
C775 N778 1.384 . S
C776 H767 0.929 . S
C776 C768 1.378 1_455 S
C776 C771 1.350 1_455 S
C777 H764 0.929 . S
C777 C769 1.433 . S
C777 N779 1.384 . S
N778 C774 1.427 . S
N778 C775 1.384 . S
N779 C771 1.427 . S
N779 C777 1.384 . S
H780 C786 0.930 . S
H781 C790 0.930 . S
H782 C795 0.929 . S
H783 C793 0.929 . S
H784 C788 0.929 . S
H785 C794 0.929 . S
C786 H780 0.930 . S
C786 C787 1.367 . S
C786 C794 1.378 . S
C787 C786 1.367 . S
C787 C795 1.433 . S
C788 H784 0.929 . S
C788 C790 1.378 . S
C788 C792 1.350 . S
C789 C792 1.463 1_455 S
C789 C794 1.350 . S
C789 N797 1.427 . S
C790 H781 0.930 . S
C790 C788 1.378 . S
C790 C791 1.367 . S
C791 C790 1.367 . S
C791 C793 1.433 . S
C792 C788 1.350 . S
C792 C789 1.463 1_655 S
C792 N796 1.427 . S
C793 H783 0.929 . S
C793 C791 1.433 . S
C793 N796 1.384 . S
C794 H785 0.929 . S
C794 C786 1.378 . S
C794 C789 1.350 . S
C795 H782 0.929 . S
C795 C787 1.433 . S
C795 N797 1.384 . S
N796 C792 1.427 . S
N796 C793 1.384 . S
N797 C789 1.427 . S
N797 C795 1.384 . S
H798 C804 0.930 . S
H799 C808 0.930 . S
H800 C813 0.929 . S
H801 C811 0.929 . S
H802 C806 0.929 . S
H803 C812 0.929 . S
C804 H798 0.930 . S
C804 C805 1.367 . S
C804 C812 1.378 . S
C805 C804 1.367 . S
C805 C813 1.433 1_556 S
C806 H802 0.929 . S
C806 C808 1.378 . S
C806 C810 1.350 1_554 S
C807 C810 1.463 . S
C807 C812 1.350 . S
C807 N815 1.427 1_556 S
C808 H799 0.930 . S
C808 C806 1.378 . S
C808 C809 1.367 1_554 S
C809 C808 1.367 1_556 S
C809 C811 1.433 . S
C810 C806 1.350 1_556 S
C810 C807 1.463 . S
C810 N814 1.427 . S
C811 H801 0.929 . S
C811 C809 1.433 . S
C811 N814 1.384 . S
C812 H803 0.929 . S
C812 C804 1.378 . S
C812 C807 1.350 . S
C813 H800 0.929 . S
C813 C805 1.433 1_554 S
C813 N815 1.384 . S
N814 C810 1.427 . S
N814 C811 1.384 . S
N815 C807 1.427 1_554 S
N815 C813 1.384 . S
H816 C822 0.930 . S
H817 C826 0.930 . S
H818 C831 0.929 . S
H819 C829 0.929 . S
H820 C824 0.929 . S
H821 C830 0.929 . S
C822 H816 0.930 . S
C822 C823 1.367 . S
C822 C830 1.378 . S
C823 C822 1.367 . S
C823 C831 1.433 . S
C824 H820 0.929 . S
C824 C826 1.378 . S
C824 C828 1.350 . S
C825 C828 1.463 . S
C825 C830 1.350 . S
C825 N833 1.427 . S
C826 H817 0.930 . S
C826 C824 1.378 . S
C826 C827 1.367 . S
C827 C826 1.367 . S
C827 C829 1.433 . S
C828 C824 1.350 . S
C828 C825 1.463 . S
C828 N832 1.427 . S
C829 H819 0.929 . S
C829 C827 1.433 . S
C829 N832 1.384 . S
C830 H821 0.929 . S
C830 C822 1.378 . S
C830 C825 1.350 . S
C831 H818 0.929 . S
C831 C823 1.433 . S
C831 N833 1.384 . S
N832 C828 1.427 . S
N832 C829 1.384 . S
N833 C825 1.427 . S
N833 C831 1.384 . S
H834 C840 0.930 . S
H835 C844 0.930 . S
H836 C849 0.929 . S
H837 C847 0.929 . S
H838 C842 0.929 . S
H839 C848 0.929 . S
C840 H834 0.930 . S
C840 C841 1.367 . S
C840 C848 1.378 . S
C841 C840 1.367 . S
C841 C849 1.433 . S
C842 H838 0.929 . S
C842 C844 1.378 . S
C842 C846 1.350 . S
C843 C846 1.463 . S
C843 C848 1.350 . S
C843 N851 1.427 . S
C844 H835 0.930 . S
C844 C842 1.378 . S
C844 C845 1.367 . S
C845 C844 1.367 . S
C845 C847 1.433 . S
C846 C842 1.350 . S
C846 C843 1.463 . S
C846 N850 1.427 . S
C847 H837 0.929 . S
C847 C845 1.433 . S
C847 N850 1.384 . S
C848 H839 0.929 . S
C848 C840 1.378 . S
C848 C843 1.350 . S
C849 H836 0.929 . S
C849 C841 1.433 . S
C849 N851 1.384 . S
N850 C846 1.427 . S
N850 C847 1.384 . S
N851 C843 1.427 . S
N851 C849 1.384 . S
H852 C858 0.930 . S
H853 C862 0.930 . S
H854 C867 0.929 . S
H855 C865 0.929 . S
H856 C860 0.929 . S
H857 C866 0.929 . S
C858 H852 0.930 . S
C858 C859 1.367 . S
C858 C866 1.378 . S
C859 C858 1.367 . S
C859 C867 1.433 . S
C860 H856 0.929 . S
C860 C862 1.378 . S
C860 C864 1.350 . S
C861 C864 1.463 1_655 S
C861 C866 1.350 . S
C861 N869 1.427 . S
C862 H853 0.930 . S
C862 C860 1.378 . S
C862 C863 1.367 . S
C863 C862 1.367 . S
C863 C865 1.433 . S
C864 C860 1.350 . S
C864 C861 1.463 1_455 S
C864 N868 1.427 . S
C865 H855 0.929 . S
C865 C863 1.433 . S
C865 N868 1.384 . S
C866 H857 0.929 . S
C866 C858 1.378 . S
C866 C861 1.350 . S
C867 H854 0.929 . S
C867 C859 1.433 . S
C867 N869 1.384 . S
N868 C864 1.427 . S
N868 C865 1.384 . S
N869 C861 1.427 . S
N869 C867 1.384 . S
H870 C876 0.930 . S
H871 C880 0.930 . S
H872 C885 0.929 . S
H873 C883 0.929 . S
H874 C878 0.929 . S
H875 C884 0.929 . S
C876 H870 0.930 . S
C876 C877 1.367 . S
C876 C884 1.378 . S
C877 C876 1.367 . S
C877 C885 1.433 1_655 S
C878 H874 0.929 . S
C878 C880 1.378 . S
C878 C882 1.350 . S
C879 C882 1.463 1_655 S
C879 C884 1.350 . S
C879 N887 1.427 1_655 S
C880 H871 0.930 . S
C880 C878 1.378 . S
C880 C881 1.367 . S
C881 C880 1.367 . S
C881 C883 1.433 1_455 S
C882 C878 1.350 . S
C882 C879 1.463 1_455 S
C882 N886 1.427 1_455 S
C883 H873 0.929 . S
C883 C881 1.433 1_655 S
C883 N886 1.384 . S
C884 H875 0.929 . S
C884 C876 1.378 . S
C884 C879 1.350 . S
C885 H872 0.929 . S
C885 C877 1.433 1_455 S
C885 N887 1.384 . S
N886 C882 1.427 1_655 S
N886 C883 1.384 . S
N887 C879 1.427 1_455 S
N887 C885 1.384 . S
H888 C894 0.930 . S
H889 C898 0.930 . S
H890 C903 0.929 . S
H891 C901 0.929 . S
H892 C896 0.929 . S
H893 C902 0.929 . S
C894 H888 0.930 . S
C894 C895 1.367 . S
C894 C902 1.378 . S
C895 C894 1.367 . S
C895 C903 1.433 . S
C896 H892 0.929 . S
C896 C898 1.378 . S
C896 C900 1.350 . S
C897 C900 1.463 . S
C897 C902 1.350 . S
C897 N905 1.427 . S
C898 H889 0.930 . S
C898 C896 1.378 . S
C898 C899 1.367 . S
C899 C898 1.367 . S
C899 C901 1.433 . S
C900 C896 1.350 . S
C900 C897 1.463 . S
C900 N904 1.427 . S
C901 H891 0.929 . S
C901 C899 1.433 . S
C901 N904 1.384 . S
C902 H893 0.929 . S
C902 C894 1.378 . S
C902 C897 1.350 . S
C903 H890 0.929 . S
C903 C895 1.433 . S
C903 N905 1.384 . S
N904 C900 1.427 . S
N904 C901 1.384 . S
N905 C897 1.427 . S
N905 C903 1.384 . S
H906 C912 0.930 . S
H907 C916 0.930 . S
H908 C921 0.929 . S
H909 C919 0.929 . S
H910 C914 0.929 . S
H911 C920 0.929 . S
C912 H906 0.930 . S
C912 C913 1.367 . S
C912 C920 1.378 . S
C913 C912 1.367 . S
C913 C921 1.433 . S
C914 H910 0.929 . S
C914 C916 1.378 . S
C914 C918 1.350 . S
C915 C918 1.463 1_545 S
C915 C920 1.350 . S
C915 N923 1.427 . S
C916 H907 0.930 . S
C916 C914 1.378 . S
C916 C917 1.367 . S
C917 C916 1.367 . S
C917 C919 1.433 . S
C918 C914 1.350 . S
C918 C915 1.463 1_565 S
C918 N922 1.427 . S
C919 H909 0.929 . S
C919 C917 1.433 . S
C919 N922 1.384 . S
C920 H911 0.929 . S
C920 C912 1.378 . S
C920 C915 1.350 . S
C921 H908 0.929 . S
C921 C913 1.433 . S
C921 N923 1.384 . S
N922 C918 1.427 . S
N922 C919 1.384 . S
N923 C915 1.427 . S
N923 C921 1.384 . S
H924 C930 0.930 . S
H925 C934 0.930 . S
H926 C939 0.929 . S
H927 C937 0.929 . S
H928 C932 0.929 . S
H929 C938 0.929 . S
C930 H924 0.930 . S
C930 C931 1.367 . S
C930 C938 1.378 . S
C931 C930 1.367 . S
C931 C939 1.433 1_554 S
C932 H928 0.929 . S
C932 C934 1.378 . S
C932 C936 1.350 . S
C933 C936 1.463 1_554 S
C933 C938 1.350 . S
C933 N941 1.427 1_554 S
C934 H925 0.930 . S
C934 C932 1.378 . S
C934 C935 1.367 . S
C935 C934 1.367 . S
C935 C937 1.433 1_556 S
C936 C932 1.350 . S
C936 C933 1.463 1_556 S
C936 N940 1.427 1_556 S
C937 H927 0.929 . S
C937 C935 1.433 1_554 S
C937 N940 1.384 . S
C938 H929 0.929 . S
C938 C930 1.378 . S
C938 C933 1.350 . S
C939 H926 0.929 . S
C939 C931 1.433 1_556 S
C939 N941 1.384 . S
N940 C936 1.427 1_554 S
N940 C937 1.384 . S
N941 C933 1.427 1_556 S
N941 C939 1.384 . S
H942 C948 0.930 . S
H943 C952 0.930 . S
H944 C957 0.929 . S
H945 C955 0.929 . S
H946 C950 0.929 . S
H947 C956 0.929 . S
C948 H942 0.930 . S
C948 C949 1.367 . S
C948 C956 1.378 . S
C949 C948 1.367 . S
C949 C957 1.433 . S
C950 H946 0.929 . S
C950 C952 1.378 . S
C950 C954 1.350 . S
C951 C954 1.463 1_545 S
C951 C956 1.350 . S
C951 N959 1.427 . S
C952 H943 0.930 . S
C952 C950 1.378 . S
C952 C953 1.367 . S
C953 C952 1.367 . S
C953 C955 1.433 . S
C954 C950 1.350 . S
C954 C951 1.463 1_565 S
C954 N958 1.427 . S
C955 H945 0.929 . S
C955 C953 1.433 . S
C955 N958 1.384 . S
C956 H947 0.929 . S
C956 C948 1.378 . S
C956 C951 1.350 . S
C957 H944 0.929 . S
C957 C949 1.433 . S
C957 N959 1.384 . S
N958 C954 1.427 . S
N958 C955 1.384 . S
N959 C951 1.427 . S
N959 C957 1.384 . S
H960 C966 0.930 . S
H961 C970 0.930 . S
H962 C975 0.929 . S
H963 C973 0.929 . S
H964 C968 0.929 . S
H965 C974 0.929 . S
C966 H960 0.930 . S
C966 C967 1.367 . S
C966 C974 1.378 . S
C967 C966 1.367 . S
C967 C975 1.433 1_545 S
C968 H964 0.929 . S
C968 C970 1.378 . S
C968 C972 1.350 1_565 S
C969 C972 1.463 1_556 S
C969 C974 1.350 . S
C969 N977 1.432 1_545 S
C970 H961 0.930 . S
C970 C968 1.378 . S
C970 C971 1.367 1_565 S
C971 C970 1.367 1_545 S
C971 C973 1.433 . S
C972 C968 1.350 1_545 S
C972 C969 1.463 1_554 S
C972 N976 1.427 . S
C973 H963 0.929 . S
C973 C971 1.433 . S
C973 N976 1.383 . S
C974 H965 0.929 . S
C974 C966 1.378 . S
C974 C969 1.350 . S
C975 H962 0.929 . S
C975 C967 1.433 1_565 S
C975 N977 1.393 . S
N976 C972 1.427 . S
N976 C973 1.383 . S
N977 C969 1.432 1_565 S
N977 C975 1.393 . S
H978 C984 0.930 . S
H979 C988 0.930 . S
H980 C993 0.929 . S
H981 C991 0.929 . S
H982 C986 0.929 . S
H983 C992 0.929 . S
C984 H978 0.930 . S
C984 C985 1.367 . S
C984 C992 1.378 . S
C985 C984 1.367 . S
C985 C993 1.433 . S
C986 H982 0.929 . S
C986 C988 1.378 . S
C986 C990 1.350 . S
C987 C990 1.463 . S
C987 C992 1.350 . S
C987 N995 1.427 . S
C988 H979 0.930 . S
C988 C986 1.378 . S
C988 C989 1.367 . S
C989 C988 1.367 . S
C989 C991 1.433 . S
C990 C986 1.350 . S
C990 C987 1.463 . S
C990 N994 1.427 . S
C991 H981 0.929 . S
C991 C989 1.433 . S
C991 N994 1.384 . S
C992 H983 0.929 . S
C992 C984 1.378 . S
C992 C987 1.350 . S
C993 H980 0.929 . S
C993 C985 1.433 . S
C993 N995 1.384 . S
N994 C990 1.427 . S
N994 C991 1.384 . S
N995 C987 1.427 . S
N995 C993 1.384 . S
H996 C1002 0.930 . S
H997 C1006 0.930 . S
H998 C1011 0.929 . S
H999 C1009 0.929 . S
H1000 C1004 0.929 . S
H1001 C1010 0.929 . S
C1002 H996 0.930 . S
C1002 C1003 1.367 . S
C1002 C1010 1.378 . S
C1003 C1002 1.367 . S
C1003 C1011 1.433 . S
C1004 H1000 0.929 . S
C1004 C1006 1.378 . S
C1004 C1008 1.350 . S
C1005 C1008 1.463 . S
C1005 C1010 1.350 . S
C1005 N1013 1.427 . S
C1006 H997 0.930 . S
C1006 C1004 1.378 . S
C1006 C1007 1.367 . S
C1007 C1006 1.367 . S
C1007 C1009 1.433 . S
C1008 C1004 1.350 . S
C1008 C1005 1.463 . S
C1008 N1012 1.427 . S
C1009 H999 0.929 . S
C1009 C1007 1.433 . S
C1009 N1012 1.384 . S
C1010 H1001 0.929 . S
C1010 C1002 1.378 . S
C1010 C1005 1.350 . S
C1011 H998 0.929 . S
C1011 C1003 1.433 . S
C1011 N1013 1.384 . S
N1012 C1008 1.427 . S
N1012 C1009 1.384 . S
N1013 C1005 1.427 . S
N1013 C1011 1.384 . S
H1014 C1020 0.930 . S
H1015 C1024 0.930 . S
H1016 C1029 0.929 . S
H1017 C1027 0.929 . S
H1018 C1022 0.929 . S
H1019 C1028 0.929 . S
C1020 H1014 0.930 . S
C1020 C1021 1.367 . S
C1020 C1028 1.378 . S
C1021 C1020 1.367 . S
C1021 C1029 1.433 . S
C1022 H1018 0.929 . S
C1022 C1024 1.378 . S
C1022 C1026 1.350 . S
C1023 C1026 1.463 1_554 S
C1023 C1028 1.350 . S
C1023 N1031 1.427 . S
C1024 H1015 0.930 . S
C1024 C1022 1.378 . S
C1024 C1025 1.367 . S
C1025 C1024 1.367 . S
C1025 C1027 1.433 . S
C1026 C1022 1.350 . S
C1026 C1023 1.463 1_556 S
C1026 N1030 1.427 . S
C1027 H1017 0.929 . S
C1027 C1025 1.433 . S
C1027 N1030 1.384 . S
C1028 H1019 0.929 . S
C1028 C1020 1.378 . S
C1028 C1023 1.350 . S
C1029 H1016 0.929 . S
C1029 C1021 1.433 . S
C1029 N1031 1.384 . S
N1030 C1026 1.427 . S
N1030 C1027 1.384 . S
N1031 C1023 1.427 . S
N1031 C1029 1.384 . S
H1032 C1038 0.930 . S
H1033 C1042 0.930 . S
H1034 C1047 0.929 . S
H1035 C1045 0.929 . S
H1036 C1040 0.929 . S
H1037 C1046 0.929 . S
C1038 H1032 0.930 . S
C1038 C1039 1.367 . S
C1038 C1046 1.378 . S
C1039 C1038 1.367 . S
C1039 C1047 1.433 . S
C1040 H1036 0.929 . S
C1040 C1042 1.378 . S
C1040 C1044 1.350 . S
C1041 C1044 1.463 . S
C1041 C1046 1.350 . S
C1041 N1049 1.427 . S
C1042 H1033 0.930 . S
C1042 C1040 1.378 . S
C1042 C1043 1.367 . S
C1043 C1042 1.367 . S
C1043 C1045 1.433 . S
C1044 C1040 1.350 . S
C1044 C1041 1.463 . S
C1044 N1048 1.427 . S
C1045 H1035 0.929 . S
C1045 C1043 1.433 . S
C1045 N1048 1.384 . S
C1046 H1037 0.929 . S
C1046 C1038 1.378 . S
C1046 C1041 1.350 . S
C1047 H1034 0.929 . S
C1047 C1039 1.433 . S
C1047 N1049 1.384 . S
N1048 C1044 1.427 . S
N1048 C1045 1.384 . S
N1049 C1041 1.427 . S
N1049 C1047 1.384 . S
H1050 C1056 0.930 . S
H1051 C1060 0.930 . S
H1052 C1065 0.929 . S
H1053 C1063 0.929 . S
H1054 C1058 0.929 . S
H1055 C1064 0.929 . S
C1056 H1050 0.930 . S
C1056 C1057 1.367 . S
C1056 C1064 1.378 . S
C1057 C1056 1.367 . S
C1057 C1065 1.433 . S
C1058 H1054 0.929 . S
C1058 C1060 1.378 . S
C1058 C1062 1.350 . S
C1059 C1062 1.463 . S
C1059 C1064 1.350 . S
C1059 N1067 1.427 . S
C1060 H1051 0.930 . S
C1060 C1058 1.378 . S
C1060 C1061 1.367 . S
C1061 C1060 1.367 . S
C1061 C1063 1.433 . S
C1062 C1058 1.350 . S
C1062 C1059 1.463 . S
C1062 N1066 1.427 . S
C1063 H1053 0.929 . S
C1063 C1061 1.433 . S
C1063 N1066 1.384 . S
C1064 H1055 0.929 . S
C1064 C1056 1.378 . S
C1064 C1059 1.350 . S
C1065 H1052 0.929 . S
C1065 C1057 1.433 . S
C1065 N1067 1.384 . S
N1066 C1062 1.427 . S
N1066 C1063 1.384 . S
N1067 C1059 1.427 . S
N1067 C1065 1.384 . S
H1068 C1074 0.930 . S
H1069 C1078 0.930 . S
H1070 C1083 0.929 . S
H1071 C1081 0.929 . S
H1072 C1076 0.929 . S
H1073 C1082 0.929 . S
C1074 H1068 0.930 . S
C1074 C1075 1.367 1_455 S
C1074 C1082 1.378 . S
C1075 C1074 1.367 1_655 S
C1075 C1083 1.433 . S
C1076 H1072 0.929 . S
C1076 C1078 1.378 . S
C1076 C1080 1.350 . S
C1077 C1080 1.463 . S
C1077 C1082 1.350 1_655 S
C1077 N1085 1.427 . S
C1078 H1069 0.930 . S
C1078 C1076 1.378 . S
C1078 C1079 1.367 . S
C1079 C1078 1.367 . S
C1079 C1081 1.433 1_655 S
C1080 C1076 1.350 . S
C1080 C1077 1.463 . S
C1080 N1084 1.427 1_655 S
C1081 H1071 0.929 . S
C1081 C1079 1.433 1_455 S
C1081 N1084 1.384 . S
C1082 H1073 0.929 . S
C1082 C1074 1.378 . S
C1082 C1077 1.350 1_455 S
C1083 H1070 0.929 . S
C1083 C1075 1.433 . S
C1083 N1085 1.384 . S
N1084 C1080 1.427 1_455 S
N1084 C1081 1.384 . S
N1085 C1077 1.427 . S
N1085 C1083 1.384 . S
H1086 C1092 0.930 . S
H1087 C1096 0.930 . S
H1088 C1101 0.929 . S
H1089 C1099 0.929 . S
H1090 C1094 0.929 . S
H1091 C1100 0.929 . S
C1092 H1086 0.930 . S
C1092 C1093 1.367 . S
C1092 C1100 1.378 . S
C1093 C1092 1.367 . S
C1093 C1101 1.433 1_565 S
C1094 H1090 0.929 . S
C1094 C1096 1.378 . S
C1094 C1098 1.350 1_545 S
C1095 C1098 1.463 . S
C1095 C1100 1.350 . S
C1095 N1103 1.427 1_565 S
C1096 H1087 0.930 . S
C1096 C1094 1.378 . S
C1096 C1097 1.367 1_545 S
C1097 C1096 1.367 1_565 S
C1097 C1099 1.433 . S
C1098 C1094 1.350 1_565 S
C1098 C1095 1.463 . S
C1098 N1102 1.427 . S
C1099 H1089 0.929 . S
C1099 C1097 1.433 . S
C1099 N1102 1.384 . S
C1100 H1091 0.929 . S
C1100 C1092 1.378 . S
C1100 C1095 1.350 . S
C1101 H1088 0.929 . S
C1101 C1093 1.433 1_545 S
C1101 N1103 1.384 . S
N1102 C1098 1.427 . S
N1102 C1099 1.384 . S
N1103 C1095 1.427 1_545 S
N1103 C1101 1.384 . S
H1104 C1110 0.930 . S
H1105 C1114 0.930 . S
H1106 C1119 0.929 . S
H1107 C1117 0.929 . S
H1108 C1112 0.929 . S
H1109 C1118 0.929 . S
C1110 H1104 0.930 . S
C1110 C1111 1.367 . S
C1110 C1118 1.378 . S
C1111 C1110 1.367 . S
C1111 C1119 1.433 . S
C1112 H1108 0.929 . S
C1112 C1114 1.378 . S
C1112 C1116 1.350 . S
C1113 C1116 1.463 . S
C1113 C1118 1.350 . S
C1113 N1121 1.427 . S
C1114 H1105 0.930 . S
C1114 C1112 1.378 . S
C1114 C1115 1.367 . S
C1115 C1114 1.367 . S
C1115 C1117 1.433 . S
C1116 C1112 1.350 . S
C1116 C1113 1.463 . S
C1116 N1120 1.427 . S
C1117 H1107 0.929 . S
C1117 C1115 1.433 . S
C1117 N1120 1.384 . S
C1118 H1109 0.929 . S
C1118 C1110 1.378 . S
C1118 C1113 1.350 . S
C1119 H1106 0.929 . S
C1119 C1111 1.433 . S
C1119 N1121 1.384 . S
N1120 C1116 1.427 . S
N1120 C1117 1.384 . S
N1121 C1113 1.427 . S
N1121 C1119 1.384 . S
H1122 C1128 0.930 . S
H1123 C1132 0.930 . S
H1124 C1137 0.929 . S
H1125 C1135 0.929 1_545 S
H1126 C1130 0.929 . S
H1127 C1136 0.929 . S
C1128 H1122 0.930 . S
C1128 C1129 1.367 . S
C1128 C1136 1.378 . S
C1129 C1128 1.367 . S
C1129 C1137 1.433 . S
C1130 H1126 0.929 . S
C1130 C1132 1.378 . S
C1130 C1134 1.350 . S
C1131 C1134 1.463 . S
C1131 C1136 1.350 . S
C1131 N1139 1.427 . S
C1132 H1123 0.930 . S
C1132 C1130 1.378 . S
C1132 C1133 1.367 . S
C1133 C1132 1.367 . S
C1133 C1135 1.433 . S
C1134 C1130 1.350 . S
C1134 C1131 1.463 . S
C1134 N1138 1.427 . S
C1135 H1125 0.929 1_565 S
C1135 C1133 1.433 . S
C1135 N1138 1.384 . S
C1136 H1127 0.929 . S
C1136 C1128 1.378 . S
C1136 C1131 1.350 . S
C1137 H1124 0.929 . S
C1137 C1129 1.433 . S
C1137 N1139 1.384 . S
N1138 C1134 1.427 . S
N1138 C1135 1.384 . S
N1139 C1131 1.427 . S
N1139 C1137 1.384 . S
H1140 C1146 0.930 . S
H1141 C1150 0.930 . S
H1142 C1155 0.929 . S
H1143 C1153 0.929 . S
H1144 C1148 0.929 . S
H1145 C1154 0.929 . S
C1146 H1140 0.930 . S
C1146 C1147 1.367 . S
C1146 C1154 1.378 . S
C1147 C1146 1.367 . S
C1147 C1155 1.433 . S
C1148 H1144 0.929 . S
C1148 C1150 1.378 . S
C1148 C1152 1.350 . S
C1149 C1152 1.463 . S
C1149 C1154 1.350 . S
C1149 N1157 1.427 . S
C1150 H1141 0.930 . S
C1150 C1148 1.378 . S
C1150 C1151 1.367 . S
C1151 C1150 1.367 . S
C1151 C1153 1.433 . S
C1152 C1148 1.350 . S
C1152 C1149 1.463 . S
C1152 N1156 1.427 . S
C1153 H1143 0.929 . S
C1153 C1151 1.433 . S
C1153 N1156 1.384 . S
C1154 H1145 0.929 . S
C1154 C1146 1.378 . S
C1154 C1149 1.350 . S
C1155 H1142 0.929 . S
C1155 C1147 1.433 . S
C1155 N1157 1.384 . S
N1156 C1152 1.427 . S
N1156 C1153 1.384 . S
N1157 C1149 1.427 . S
N1157 C1155 1.384 . S
H1158 C1164 0.960 . S
H1159 C1168 0.930 . S
H1160 C1173 0.929 1_565 S
H1161 C1171 0.929 . S
H1162 C1166 0.929 . S
H1163 C1172 0.929 . S
C1164 H1158 0.960 . S
C1164 C1165 1.367 . S
C1164 C1172 1.378 . S
C1165 C1164 1.367 . S
C1165 C1173 1.433 . S
C1166 H1162 0.929 . S
C1166 C1168 1.378 . S
C1166 C1170 1.350 . S
C1167 C1170 1.463 . S
C1167 C1172 1.350 . S
C1167 N1175 1.427 . S
C1168 H1159 0.930 . S
C1168 C1166 1.378 . S
C1168 C1169 1.367 . S
C1169 C1168 1.367 . S
C1169 C1171 1.433 . S
C1170 C1166 1.350 . S
C1170 C1167 1.463 . S
C1170 N1174 1.427 . S
C1171 H1161 0.929 . S
C1171 C1169 1.433 . S
C1171 N1174 1.384 . S
C1172 H1163 0.929 . S
C1172 C1164 1.378 . S
C1172 C1167 1.350 . S
C1173 H1160 0.929 1_545 S
C1173 C1165 1.433 . S
C1173 N1175 1.384 . S
N1174 C1170 1.427 . S
N1174 C1171 1.384 . S
N1175 C1167 1.427 . S
N1175 C1173 1.384 . S
H1176 C1182 0.930 . S
H1177 C1186 0.930 . S
H1178 C1191 0.929 . S
H1179 C1189 0.929 . S
H1180 C1184 0.929 . S
H1181 C1190 0.929 . S
C1182 H1176 0.930 . S
C1182 C1183 1.367 . S
C1182 C1190 1.378 . S
C1183 C1182 1.367 . S
C1183 C1191 1.433 . S
C1184 H1180 0.929 . S
C1184 C1186 1.378 . S
C1184 C1188 1.350 . S
C1185 C1188 1.463 . S
C1185 C1190 1.350 . S
C1185 N1193 1.427 . S
C1186 H1177 0.930 . S
C1186 C1184 1.378 . S
C1186 C1187 1.367 . S
C1187 C1186 1.367 . S
C1187 C1189 1.433 . S
C1188 C1184 1.350 . S
C1188 C1185 1.463 . S
C1188 N1192 1.427 . S
C1189 H1179 0.929 . S
C1189 C1187 1.433 . S
C1189 N1192 1.384 . S
C1190 H1181 0.929 . S
C1190 C1182 1.378 . S
C1190 C1185 1.350 . S
C1191 H1178 0.929 . S
C1191 C1183 1.433 . S
C1191 N1193 1.384 . S
N1192 C1188 1.427 . S
N1192 C1189 1.384 . S
N1193 C1185 1.427 . S
N1193 C1191 1.384 . S
H1194 C1200 0.930 . S
H1195 C1204 0.930 . S
H1196 C1209 0.929 1_545 S
H1197 C1207 0.929 . S
H1198 C1202 0.929 . S
H1199 C1208 0.929 . S
C1200 H1194 0.930 . S
C1200 C1201 1.367 . S
C1200 C1208 1.378 . S
C1201 C1200 1.367 . S
C1201 C1209 1.433 . S
C1202 H1198 0.929 . S
C1202 C1204 1.378 . S
C1202 C1206 1.350 . S
C1203 C1206 1.463 . S
C1203 C1208 1.350 . S
C1203 N1211 1.427 . S
C1204 H1195 0.930 . S
C1204 C1202 1.378 . S
C1204 C1205 1.367 . S
C1205 C1204 1.367 . S
C1205 C1207 1.433 . S
C1206 C1202 1.350 . S
C1206 C1203 1.463 . S
C1206 N1210 1.427 . S
C1207 H1197 0.929 . S
C1207 C1205 1.433 . S
C1207 N1210 1.384 . S
C1208 H1199 0.929 . S
C1208 C1200 1.378 . S
C1208 C1203 1.350 . S
C1209 H1196 0.929 1_565 S
C1209 C1201 1.433 . S
C1209 N1211 1.384 . S
N1210 C1206 1.427 . S
N1210 C1207 1.384 . S
N1211 C1203 1.427 . S
N1211 C1209 1.384 . S
H1212 C1218 0.930 . S
H1213 C1222 0.930 . S
H1214 C1227 0.929 . S
H1215 C1225 0.929 . S
H1216 C1220 0.929 . S
H1217 C1226 0.929 . S
C1218 H1212 0.930 . S
C1218 C1219 1.367 . S
C1218 C1226 1.378 . S
C1219 C1218 1.367 . S
C1219 C1227 1.433 . S
C1220 H1216 0.929 . S
C1220 C1222 1.378 . S
C1220 C1224 1.350 . S
C1221 C1224 1.463 . S
C1221 C1226 1.350 . S
C1221 N1229 1.427 . S
C1222 H1213 0.930 . S
C1222 C1220 1.378 . S
C1222 C1223 1.367 . S
C1223 C1222 1.367 . S
C1223 C1225 1.433 . S
C1224 C1220 1.350 . S
C1224 C1221 1.463 . S
C1224 N1228 1.427 . S
C1225 H1215 0.929 . S
C1225 C1223 1.433 . S
C1225 N1228 1.384 . S
C1226 H1217 0.929 . S
C1226 C1218 1.378 . S
C1226 C1221 1.350 . S
C1227 H1214 0.929 . S
C1227 C1219 1.433 . S
C1227 N1229 1.384 . S
N1228 C1224 1.427 . S
N1228 C1225 1.384 . S
N1229 C1221 1.427 . S
N1229 C1227 1.384 . S
H1230 C1236 0.930 1_565 S
H1231 C1240 0.930 . S
H1232 C1245 0.929 . S
H1233 C1243 0.929 . S
H1234 C1238 0.929 . S
H1235 C1244 0.896 1_565 S
C1236 H1230 0.930 1_545 S
C1236 C1237 1.367 . S
C1236 C1244 1.378 . S
C1237 C1236 1.367 . S
C1237 C1245 1.433 . S
C1238 H1234 0.929 . S
C1238 C1240 1.378 . S
C1238 C1242 1.350 . S
C1239 C1242 1.463 . S
C1239 C1244 1.350 . S
C1239 N1247 1.427 . S
C1240 H1231 0.930 . S
C1240 C1238 1.378 . S
C1240 C1241 1.367 . S
C1241 C1240 1.367 . S
C1241 C1243 1.433 . S
C1242 C1238 1.350 . S
C1242 C1239 1.463 . S
C1242 N1246 1.427 . S
C1243 H1233 0.929 . S
C1243 C1241 1.433 . S
C1243 N1246 1.384 . S
C1244 H1235 0.896 1_545 S
C1244 C1236 1.378 . S
C1244 C1239 1.350 . S
C1245 H1232 0.929 . S
C1245 C1237 1.433 . S
C1245 N1247 1.384 . S
N1246 C1242 1.427 . S
N1246 C1243 1.384 . S
N1247 C1239 1.427 . S
N1247 C1245 1.384 . S
H1248 C1254 0.930 . S
H1249 C1258 0.930 . S
H1250 C1263 0.929 . S
H1251 C1261 0.929 . S
H1252 C1256 0.929 . S
H1253 C1262 0.929 . S
C1254 H1248 0.930 . S
C1254 C1255 1.367 . S
C1254 C1262 1.378 . S
C1255 C1254 1.367 . S
C1255 C1263 1.433 . S
C1256 H1252 0.929 . S
C1256 C1258 1.378 . S
C1256 C1260 1.350 . S
C1257 C1260 1.463 . S
C1257 C1262 1.350 . S
C1257 N1265 1.427 . S
C1258 H1249 0.930 . S
C1258 C1256 1.378 . S
C1258 C1259 1.367 . S
C1259 C1258 1.367 . S
C1259 C1261 1.433 . S
C1260 C1256 1.350 . S
C1260 C1257 1.463 . S
C1260 N1264 1.427 . S
C1261 H1251 0.929 . S
C1261 C1259 1.433 . S
C1261 N1264 1.384 . S
C1262 H1253 0.929 . S
C1262 C1254 1.378 . S
C1262 C1257 1.350 . S
C1263 H1250 0.929 . S
C1263 C1255 1.433 . S
C1263 N1265 1.384 . S
N1264 C1260 1.427 . S
N1264 C1261 1.384 . S
N1265 C1257 1.427 . S
N1265 C1263 1.384 . S
H1266 C1272 0.930 1_565 S
H1267 C1276 0.930 . S
H1268 C1281 0.929 . S
H1269 C1279 0.929 . S
H1270 C1274 0.929 . S
H1271 C1280 0.929 . S
C1272 H1266 0.930 1_545 S
C1272 C1273 1.367 . S
C1272 C1280 1.378 . S
C1273 C1272 1.367 . S
C1273 C1281 1.433 . S
C1274 H1270 0.929 . S
C1274 C1276 1.378 . S
C1274 C1278 1.350 . S
C1275 C1278 1.463 . S
C1275 C1280 1.350 . S
C1275 N1283 1.427 . S
C1276 H1267 0.930 . S
C1276 C1274 1.378 . S
C1276 C1277 1.367 . S
C1277 C1276 1.367 . S
C1277 C1279 1.433 . S
C1278 C1274 1.350 . S
C1278 C1275 1.463 . S
C1278 N1282 1.427 . S
C1279 H1269 0.929 . S
C1279 C1277 1.433 . S
C1279 N1282 1.384 . S
C1280 H1271 0.929 . S
C1280 C1272 1.378 . S
C1280 C1275 1.350 . S
C1281 H1268 0.929 . S
C1281 C1273 1.433 . S
C1281 N1283 1.384 . S
N1282 C1278 1.427 . S
N1282 C1279 1.384 . S
N1283 C1275 1.427 . S
N1283 C1281 1.384 . S
H1284 C1290 0.930 . S
H1285 C1294 0.930 . S
H1286 C1299 0.929 . S
H1287 C1297 0.929 . S
H1288 C1292 0.929 . S
H1289 C1298 0.929 . S
C1290 H1284 0.930 . S
C1290 C1291 1.367 . S
C1290 C1298 1.378 . S
C1291 C1290 1.367 . S
C1291 C1299 1.433 . S
C1292 H1288 0.929 . S
C1292 C1294 1.378 . S
C1292 C1296 1.350 . S
C1293 C1296 1.463 . S
C1293 C1298 1.350 . S
C1293 N1301 1.427 . S
C1294 H1285 0.930 . S
C1294 C1292 1.378 . S
C1294 C1295 1.367 . S
C1295 C1294 1.367 . S
C1295 C1297 1.433 . S
C1296 C1292 1.350 . S
C1296 C1293 1.463 . S
C1296 N1300 1.427 . S
C1297 H1287 0.929 . S
C1297 C1295 1.433 . S
C1297 N1300 1.384 . S
C1298 H1289 0.929 . S
C1298 C1290 1.378 . S
C1298 C1293 1.350 . S
C1299 H1286 0.929 . S
C1299 C1291 1.433 . S
C1299 N1301 1.384 . S
N1300 C1296 1.427 . S
N1300 C1297 1.384 . S
N1301 C1293 1.427 . S
N1301 C1299 1.384 . S
H1302 C1308 0.930 . S
H1303 C1312 0.930 . S
H1304 C1317 0.929 . S
H1305 C1315 0.929 1_545 S
H1306 C1310 0.929 . S
H1307 C1316 0.929 . S
C1308 H1302 0.930 . S
C1308 C1309 1.367 . S
C1308 C1316 1.378 . S
C1309 C1308 1.367 . S
C1309 C1317 1.433 . S
C1310 H1306 0.929 . S
C1310 C1312 1.378 . S
C1310 C1314 1.350 . S
C1311 C1314 1.463 . S
C1311 C1316 1.350 . S
C1311 N1319 1.427 . S
C1312 H1303 0.930 . S
C1312 C1310 1.378 . S
C1312 C1313 1.367 . S
C1313 C1312 1.367 . S
C1313 C1315 1.433 . S
C1314 C1310 1.350 . S
C1314 C1311 1.463 . S
C1314 N1318 1.427 . S
C1315 H1305 0.929 1_565 S
C1315 C1313 1.433 . S
C1315 N1318 1.384 . S
C1316 H1307 0.929 . S
C1316 C1308 1.378 . S
C1316 C1311 1.350 . S
C1317 H1304 0.929 . S
C1317 C1309 1.433 . S
C1317 N1319 1.384 . S
N1318 C1314 1.427 . S
N1318 C1315 1.384 . S
N1319 C1311 1.427 . S
N1319 C1317 1.384 . S
H1320 C1326 0.930 . S
H1321 C1330 0.930 . S
H1322 C1335 0.929 . S
H1323 C1333 0.929 . S
H1324 C1328 0.929 . S
H1325 C1334 0.929 . S
C1326 H1320 0.930 . S
C1326 C1327 1.367 . S
C1326 C1334 1.378 . S
C1327 C1326 1.367 . S
C1327 C1335 1.433 . S
C1328 H1324 0.929 . S
C1328 C1330 1.378 . S
C1328 C1332 1.350 . S
C1329 C1332 1.463 . S
C1329 C1334 1.350 . S
C1329 N1337 1.427 . S
C1330 H1321 0.930 . S
C1330 C1328 1.378 . S
C1330 C1331 1.367 . S
C1331 C1330 1.367 . S
C1331 C1333 1.433 . S
C1332 C1328 1.350 . S
C1332 C1329 1.463 . S
C1332 N1336 1.427 . S
C1333 H1323 0.929 . S
C1333 C1331 1.433 . S
C1333 N1336 1.384 . S
C1334 H1325 0.929 . S
C1334 C1326 1.378 . S
C1334 C1329 1.350 . S
C1335 H1322 0.929 . S
C1335 C1327 1.433 . S
C1335 N1337 1.384 . S
N1336 C1332 1.427 . S
N1336 C1333 1.384 . S
N1337 C1329 1.427 . S
N1337 C1335 1.384 . S
H1338 C1344 0.930 1_565 S
H1339 C1348 0.930 . S
H1340 C1353 0.929 . S
H1341 C1351 0.929 . S
H1342 C1346 0.929 . S
H1343 C1352 0.929 . S
C1344 H1338 0.930 1_545 S
C1344 C1345 1.367 . S
C1344 C1352 1.378 . S
C1345 C1344 1.367 . S
C1345 C1353 1.433 . S
C1346 H1342 0.929 . S
C1346 C1348 1.378 . S
C1346 C1350 1.350 . S
C1347 C1350 1.463 . S
C1347 C1352 1.350 . S
C1347 N1355 1.427 . S
C1348 H1339 0.930 . S
C1348 C1346 1.378 . S
C1348 C1349 1.367 . S
C1349 C1348 1.367 . S
C1349 C1351 1.433 . S
C1350 C1346 1.350 . S
C1350 C1347 1.463 . S
C1350 N1354 1.427 . S
C1351 H1341 0.929 . S
C1351 C1349 1.433 . S
C1351 N1354 1.384 . S
C1352 H1343 0.929 . S
C1352 C1344 1.378 . S
C1352 C1347 1.350 . S
C1353 H1340 0.929 . S
C1353 C1345 1.433 . S
C1353 N1355 1.384 . S
N1354 C1350 1.427 . S
N1354 C1351 1.384 . S
N1355 C1347 1.427 . S
N1355 C1353 1.384 . S
H1356 C1362 0.930 . S
H1357 C1366 0.930 . S
H1358 C1371 0.929 . S
H1359 C1369 0.929 . S
H1360 C1364 0.929 . S
H1361 C1370 0.929 . S
C1362 H1356 0.930 . S
C1362 C1363 1.367 . S
C1362 C1370 1.378 . S
C1363 C1362 1.367 . S
C1363 C1371 1.433 . S
C1364 H1360 0.929 . S
C1364 C1366 1.378 . S
C1364 C1368 1.350 . S
C1365 C1368 1.463 . S
C1365 C1370 1.350 . S
C1365 N1373 1.427 . S
C1366 H1357 0.930 . S
C1366 C1364 1.378 . S
C1366 C1367 1.367 . S
C1367 C1366 1.367 . S
C1367 C1369 1.433 . S
C1368 C1364 1.350 . S
C1368 C1365 1.463 . S
C1368 N1372 1.427 . S
C1369 H1359 0.929 . S
C1369 C1367 1.433 . S
C1369 N1372 1.384 . S
C1370 H1361 0.929 . S
C1370 C1362 1.378 . S
C1370 C1365 1.350 . S
C1371 H1358 0.929 . S
C1371 C1363 1.433 . S
C1371 N1373 1.384 . S
N1372 C1368 1.427 . S
N1372 C1369 1.384 . S
N1373 C1365 1.427 . S
N1373 C1371 1.384 . S
H1374 C1380 0.930 . S
H1375 C1384 0.930 . S
H1376 C1389 0.929 . S
H1377 C1387 0.929 1_655 S
H1378 C1382 0.929 . S
H1379 C1388 0.929 . S
C1380 H1374 0.930 . S
C1380 C1381 1.367 . S
C1380 C1388 1.378 . S
C1381 C1380 1.367 . S
C1381 C1389 1.433 . S
C1382 H1378 0.929 . S
C1382 C1384 1.378 . S
C1382 C1386 1.350 . S
C1383 C1386 1.463 . S
C1383 C1388 1.350 . S
C1383 N1391 1.427 . S
C1384 H1375 0.930 . S
C1384 C1382 1.378 . S
C1384 C1385 1.367 . S
C1385 C1384 1.367 . S
C1385 C1387 1.433 . S
C1386 C1382 1.350 . S
C1386 C1383 1.463 . S
C1386 N1390 1.427 . S
C1387 H1377 0.929 1_455 S
C1387 C1385 1.433 . S
C1387 N1390 1.384 . S
C1388 H1379 0.929 . S
C1388 C1380 1.378 . S
C1388 C1383 1.350 . S
C1389 H1376 0.929 . S
C1389 C1381 1.433 . S
C1389 N1391 1.384 . S
N1390 C1386 1.427 . S
N1390 C1387 1.384 . S
N1391 C1383 1.427 . S
N1391 C1389 1.384 . S
H1392 C1398 0.930 . S
H1393 C1402 0.930 . S
H1394 C1407 0.929 . S
H1395 C1405 0.929 . S
H1396 C1400 0.929 . S
H1397 C1406 0.929 . S
C1398 H1392 0.930 . S
C1398 C1399 1.367 . S
C1398 C1406 1.378 . S
C1399 C1398 1.367 . S
C1399 C1407 1.433 . S
C1400 H1396 0.929 . S
C1400 C1402 1.378 . S
C1400 C1404 1.350 . S
C1401 C1404 1.463 . S
C1401 C1406 1.350 . S
C1401 N1409 1.427 . S
C1402 H1393 0.930 . S
C1402 C1400 1.378 . S
C1402 C1403 1.367 . S
C1403 C1402 1.367 . S
C1403 C1405 1.433 . S
C1404 C1400 1.350 . S
C1404 C1401 1.463 . S
C1404 N1408 1.427 . S
C1405 H1395 0.929 . S
C1405 C1403 1.433 . S
C1405 N1408 1.384 . S
C1406 H1397 0.929 . S
C1406 C1398 1.378 . S
C1406 C1401 1.350 . S
C1407 H1394 0.929 . S
C1407 C1399 1.433 . S
C1407 N1409 1.384 . S
N1408 C1404 1.427 . S
N1408 C1405 1.384 . S
N1409 C1401 1.427 . S
N1409 C1407 1.384 . S
H1410 C1416 0.930 . S
H1411 C1420 0.930 . S
H1412 C1425 0.929 . S
H1413 C1423 0.929 . S
H1414 C1418 0.929 . S
H1415 C1424 0.929 . S
C1416 H1410 0.930 . S
C1416 C1417 1.367 . S
C1416 C1424 1.378 . S
C1417 C1416 1.367 . S
C1417 C1425 1.433 . S
C1418 H1414 0.929 . S
C1418 C1420 1.378 . S
C1418 C1422 1.350 . S
C1419 C1422 1.463 . S
C1419 C1424 1.350 . S
C1419 N1427 1.427 . S
C1420 H1411 0.930 . S
C1420 C1418 1.378 . S
C1420 C1421 1.367 . S
C1421 C1420 1.367 . S
C1421 C1423 1.433 . S
C1422 C1418 1.350 . S
C1422 C1419 1.463 . S
C1422 N1426 1.427 . S
C1423 H1413 0.929 . S
C1423 C1421 1.433 . S
C1423 N1426 1.384 . S
C1424 H1415 0.929 . S
C1424 C1416 1.378 . S
C1424 C1419 1.350 . S
C1425 H1412 0.929 . S
C1425 C1417 1.433 . S
C1425 N1427 1.384 . S
N1426 C1422 1.427 . S
N1426 C1423 1.384 . S
N1427 C1419 1.427 . S
N1427 C1425 1.384 . S
H1428 C1434 0.930 . S
H1429 C1438 0.930 . S
H1430 C1443 0.929 1_556 S
H1431 C1441 0.929 . S
H1432 C1436 0.929 . S
H1433 C1442 0.929 . S
C1434 H1428 0.930 . S
C1434 C1435 1.367 . S
C1434 C1442 1.378 . S
C1435 C1434 1.367 . S
C1435 C1443 1.433 . S
C1436 H1432 0.929 . S
C1436 C1438 1.378 . S
C1436 C1440 1.350 . S
C1437 C1440 1.463 . S
C1437 C1442 1.350 . S
C1437 N1445 1.427 . S
C1438 H1429 0.930 . S
C1438 C1436 1.378 . S
C1438 C1439 1.367 . S
C1439 C1438 1.367 . S
C1439 C1441 1.433 . S
C1440 C1436 1.350 . S
C1440 C1437 1.463 . S
C1440 N1444 1.427 . S
C1441 H1431 0.929 . S
C1441 C1439 1.433 . S
C1441 N1444 1.384 . S
C1442 H1433 0.929 . S
C1442 C1434 1.378 . S
C1442 C1437 1.350 . S
C1443 H1430 0.929 1_554 S
C1443 C1435 1.433 . S
C1443 N1445 1.384 . S
N1444 C1440 1.427 . S
N1444 C1441 1.384 . S
N1445 C1437 1.427 . S
N1445 C1443 1.384 . S
H1446 C1452 0.930 . S
H1447 C1456 0.930 . S
H1448 C1461 0.929 . S
H1449 C1459 0.929 . S
H1450 C1454 0.929 . S
H1451 C1460 0.929 . S
C1452 H1446 0.930 . S
C1452 C1453 1.367 . S
C1452 C1460 1.378 . S
C1453 C1452 1.367 . S
C1453 C1461 1.433 . S
C1454 H1450 0.929 . S
C1454 C1456 1.378 . S
C1454 C1458 1.350 . S
C1455 C1458 1.463 . S
C1455 C1460 1.350 . S
C1455 N1463 1.427 . S
C1456 H1447 0.930 . S
C1456 C1454 1.378 . S
C1456 C1457 1.367 . S
C1457 C1456 1.367 . S
C1457 C1459 1.433 . S
C1458 C1454 1.350 . S
C1458 C1455 1.463 . S
C1458 N1462 1.427 . S
C1459 H1449 0.929 . S
C1459 C1457 1.433 . S
C1459 N1462 1.384 . S
C1460 H1451 0.929 . S
C1460 C1452 1.378 . S
C1460 C1455 1.350 . S
C1461 H1448 0.929 . S
C1461 C1453 1.433 . S
C1461 N1463 1.384 . S
N1462 C1458 1.427 . S
N1462 C1459 1.384 . S
N1463 C1455 1.427 . S
N1463 C1461 1.384 . S
H1464 C1470 0.930 . S
H1465 C1474 0.930 1_455 S
H1466 C1479 0.929 . S
H1467 C1477 0.929 . S
H1468 C1472 0.929 . S
H1469 C1478 0.929 . S
C1470 H1464 0.930 . S
C1470 C1471 1.367 . S
C1470 C1478 1.378 . S
C1471 C1470 1.367 . S
C1471 C1479 1.433 . S
C1472 H1468 0.929 . S
C1472 C1474 1.378 . S
C1472 C1476 1.350 . S
C1473 C1476 1.463 . S
C1473 C1478 1.350 . S
C1473 N1481 1.427 . S
C1474 H1465 0.930 1_655 S
C1474 C1472 1.378 . S
C1474 C1475 1.367 . S
C1475 C1474 1.367 . S
C1475 C1477 1.433 . S
C1476 C1472 1.350 . S
C1476 C1473 1.463 . S
C1476 N1480 1.427 . S
C1477 H1467 0.929 . S
C1477 C1475 1.433 . S
C1477 N1480 1.384 . S
C1478 H1469 0.929 . S
C1478 C1470 1.378 . S
C1478 C1473 1.350 . S
C1479 H1466 0.929 . S
C1479 C1471 1.433 . S
C1479 N1481 1.384 . S
N1480 C1476 1.427 . S
N1480 C1477 1.384 . S
N1481 C1473 1.427 . S
N1481 C1479 1.384 . S
H1482 C1488 0.930 . S
H1483 C1492 0.930 . S
H1484 C1497 0.929 . S
H1485 C1495 0.929 . S
H1486 C1490 0.929 . S
H1487 C1496 0.929 . S
C1488 H1482 0.930 . S
C1488 C1489 1.367 . S
C1488 C1496 1.378 . S
C1489 C1488 1.367 . S
C1489 C1497 1.433 . S
C1490 H1486 0.929 . S
C1490 C1492 1.378 . S
C1490 C1494 1.350 . S
C1491 C1494 1.463 . S
C1491 C1496 1.350 . S
C1491 N1499 1.427 . S
C1492 H1483 0.930 . S
C1492 C1490 1.378 . S
C1492 C1493 1.367 . S
C1493 C1492 1.367 . S
C1493 C1495 1.433 . S
C1494 C1490 1.350 . S
C1494 C1491 1.463 . S
C1494 N1498 1.427 . S
C1495 H1485 0.929 . S
C1495 C1493 1.433 . S
C1495 N1498 1.384 . S
C1496 H1487 0.929 . S
C1496 C1488 1.378 . S
C1496 C1491 1.350 . S
C1497 H1484 0.929 . S
C1497 C1489 1.433 . S
C1497 N1499 1.384 . S
N1498 C1494 1.427 . S
N1498 C1495 1.384 . S
N1499 C1491 1.427 . S
N1499 C1497 1.384 . S
H1500 C1506 0.930 1_655 S
H1501 C1510 0.930 . S
H1502 C1515 0.929 . S
H1503 C1513 0.929 . S
H1504 C1508 0.929 . S
H1505 C1514 0.929 . S
C1506 H1500 0.930 1_455 S
C1506 C1507 1.367 . S
C1506 C1514 1.378 . S
C1507 C1506 1.367 . S
C1507 C1515 1.433 . S
C1508 H1504 0.929 . S
C1508 C1510 1.378 . S
C1508 C1512 1.350 . S
C1509 C1512 1.463 . S
C1509 C1514 1.350 . S
C1509 N1517 1.427 . S
C1510 H1501 0.930 . S
C1510 C1508 1.378 . S
C1510 C1511 1.367 . S
C1511 C1510 1.367 . S
C1511 C1513 1.433 . S
C1512 C1508 1.350 . S
C1512 C1509 1.463 . S
C1512 N1516 1.427 . S
C1513 H1503 0.929 . S
C1513 C1511 1.433 . S
C1513 N1516 1.384 . S
C1514 H1505 0.929 . S
C1514 C1506 1.378 . S
C1514 C1509 1.350 . S
C1515 H1502 0.929 . S
C1515 C1507 1.433 . S
C1515 N1517 1.384 . S
N1516 C1512 1.427 . S
N1516 C1513 1.384 . S
N1517 C1509 1.427 . S
N1517 C1515 1.384 . S
H1518 C1524 0.930 1_554 S
H1519 C1528 0.930 . S
H1520 C1533 0.929 . S
H1521 C1531 0.929 . S
H1522 C1526 0.929 . S
H1523 C1532 0.929 1_554 S
C1524 H1518 0.930 1_556 S
C1524 C1525 1.367 . S
C1524 C1532 1.378 . S
C1525 C1524 1.367 . S
C1525 C1533 1.433 . S
C1526 H1522 0.929 . S
C1526 C1528 1.378 . S
C1526 C1530 1.350 . S
C1527 C1530 1.463 . S
C1527 C1532 1.350 . S
C1527 N1535 1.427 . S
C1528 H1519 0.930 . S
C1528 C1526 1.378 . S
C1528 C1529 1.367 . S
C1529 C1528 1.367 . S
C1529 C1531 1.433 . S
C1530 C1526 1.350 . S
C1530 C1527 1.463 . S
C1530 N1534 1.427 . S
C1531 H1521 0.929 . S
C1531 C1529 1.433 . S
C1531 N1534 1.384 . S
C1532 H1523 0.929 1_556 S
C1532 C1524 1.378 . S
C1532 C1527 1.350 . S
C1533 H1520 0.929 . S
C1533 C1525 1.433 . S
C1533 N1535 1.384 . S
N1534 C1530 1.427 . S
N1534 C1531 1.384 . S
N1535 C1527 1.427 . S
N1535 C1533 1.384 . S
H1536 C1542 0.930 . S
H1537 C1546 0.930 . S
H1538 C1551 0.929 . S
H1539 C1549 0.929 . S
H1540 C1544 0.929 . S
H1541 C1550 0.929 . S
C1542 H1536 0.930 . S
C1542 C1543 1.367 . S
C1542 C1550 1.378 . S
C1543 C1542 1.367 . S
C1543 C1551 1.433 . S
C1544 H1540 0.929 . S
C1544 C1546 1.378 . S
C1544 C1548 1.350 . S
C1545 C1548 1.463 . S
C1545 C1550 1.350 . S
C1545 N1553 1.427 . S
C1546 H1537 0.930 . S
C1546 C1544 1.378 . S
C1546 C1547 1.367 . S
C1547 C1546 1.367 . S
C1547 C1549 1.433 . S
C1548 C1544 1.350 . S
C1548 C1545 1.463 . S
C1548 N1552 1.427 . S
C1549 H1539 0.929 . S
C1549 C1547 1.433 . S
C1549 N1552 1.384 . S
C1550 H1541 0.929 . S
C1550 C1542 1.378 . S
C1550 C1545 1.350 . S
C1551 H1538 0.929 . S
C1551 C1543 1.433 . S
C1551 N1553 1.384 . S
N1552 C1548 1.427 . S
N1552 C1549 1.384 . S
N1553 C1545 1.427 . S
N1553 C1551 1.384 . S
H1554 C1560 0.930 . S
H1555 C1564 0.930 1_556 S
H1556 C1569 0.929 . S
H1557 C1567 0.929 . S
H1558 C1562 0.929 . S
H1559 C1568 0.929 . S
C1560 H1554 0.930 . S
C1560 C1561 1.367 . S
C1560 C1568 1.378 . S
C1561 C1560 1.367 . S
C1561 C1569 1.433 . S
C1562 H1558 0.929 . S
C1562 C1564 1.378 . S
C1562 C1566 1.350 . S
C1563 C1566 1.463 . S
C1563 C1568 1.350 . S
C1563 N1571 1.427 . S
C1564 H1555 0.930 1_554 S
C1564 C1562 1.378 . S
C1564 C1565 1.367 . S
C1565 C1564 1.367 . S
C1565 C1567 1.433 . S
C1566 C1562 1.350 . S
C1566 C1563 1.463 . S
C1566 N1570 1.427 . S
C1567 H1557 0.929 . S
C1567 C1565 1.433 . S
C1567 N1570 1.384 . S
C1568 H1559 0.929 . S
C1568 C1560 1.378 . S
C1568 C1563 1.350 . S
C1569 H1556 0.929 . S
C1569 C1561 1.433 . S
C1569 N1571 1.384 . S
N1570 C1566 1.427 . S
N1570 C1567 1.384 . S
N1571 C1563 1.427 . S
N1571 C1569 1.384 . S
H1572 C1578 0.930 . S
H1573 C1582 0.930 . S
H1574 C1587 0.929 . S
H1575 C1585 0.929 . S
H1576 C1580 0.929 . S
H1577 C1586 0.929 . S
C1578 H1572 0.930 . S
C1578 C1579 1.367 . S
C1578 C1586 1.378 . S
C1579 C1578 1.367 . S
C1579 C1587 1.433 . S
C1580 H1576 0.929 . S
C1580 C1582 1.378 . S
C1580 C1584 1.350 . S
C1581 C1584 1.463 . S
C1581 C1586 1.350 . S
C1581 N1589 1.427 . S
C1582 H1573 0.930 . S
C1582 C1580 1.378 . S
C1582 C1583 1.367 . S
C1583 C1582 1.367 . S
C1583 C1585 1.433 . S
C1584 C1580 1.350 . S
C1584 C1581 1.463 . S
C1584 N1588 1.427 . S
C1585 H1575 0.929 . S
C1585 C1583 1.433 . S
C1585 N1588 1.384 . S
C1586 H1577 0.929 . S
C1586 C1578 1.378 . S
C1586 C1581 1.350 . S
C1587 H1574 0.929 . S
C1587 C1579 1.433 . S
C1587 N1589 1.384 . S
N1588 C1584 1.427 . S
N1588 C1585 1.384 . S
N1589 C1581 1.427 . S
N1589 C1587 1.384 . S
H1590 C1596 0.930 . S
H1591 C1600 0.930 . S
H1592 C1605 0.929 . S
H1593 C1603 0.929 . S
H1594 C1598 0.929 . S
H1595 C1604 0.929 . S
C1596 H1590 0.930 . S
C1596 C1597 1.367 . S
C1596 C1604 1.378 . S
C1597 C1596 1.367 . S
C1597 C1605 1.433 . S
C1598 H1594 0.929 . S
C1598 C1600 1.378 . S
C1598 C1602 1.350 . S
C1599 C1602 1.463 . S
C1599 C1604 1.350 . S
C1599 N1607 1.427 . S
C1600 H1591 0.930 . S
C1600 C1598 1.378 . S
C1600 C1601 1.367 . S
C1601 C1600 1.367 . S
C1601 C1603 1.433 . S
C1602 C1598 1.350 . S
C1602 C1599 1.463 . S
C1602 N1606 1.427 . S
C1603 H1593 0.929 . S
C1603 C1601 1.433 . S
C1603 N1606 1.384 . S
C1604 H1595 0.929 . S
C1604 C1596 1.378 . S
C1604 C1599 1.350 . S
C1605 H1592 0.929 . S
C1605 C1597 1.433 . S
C1605 N1607 1.384 . S
N1606 C1602 1.427 . S
N1606 C1603 1.384 . S
N1607 C1599 1.427 . S
N1607 C1605 1.384 . S
H1608 C1614 0.930 . S
H1609 C1618 0.930 . S
H1610 C1623 0.929 . S
H1611 C1621 0.929 . S
H1612 C1616 0.929 . S
H1613 C1622 0.929 . S
C1614 H1608 0.930 . S
C1614 C1615 1.367 . S
C1614 C1622 1.378 . S
C1615 C1614 1.367 . S
C1615 C1623 1.433 . S
C1616 H1612 0.929 . S
C1616 C1618 1.378 . S
C1616 C1620 1.350 . S
C1617 C1620 1.463 . S
C1617 C1622 1.350 . S
C1617 N1625 1.427 . S
C1618 H1609 0.930 . S
C1618 C1616 1.378 . S
C1618 C1619 1.367 . S
C1619 C1618 1.367 . S
C1619 C1621 1.433 . S
C1620 C1616 1.350 . S
C1620 C1617 1.463 . S
C1620 N1624 1.427 . S
C1621 H1611 0.929 . S
C1621 C1619 1.433 . S
C1621 N1624 1.384 . S
C1622 H1613 0.929 . S
C1622 C1614 1.378 . S
C1622 C1617 1.350 . S
C1623 H1610 0.929 . S
C1623 C1615 1.433 . S
C1623 N1625 1.384 . S
N1624 C1620 1.427 . S
N1624 C1621 1.384 . S
N1625 C1617 1.427 . S
N1625 C1623 1.384 . S
H1626 C1632 0.930 . S
H1627 C1636 0.930 . S
H1628 C1641 0.929 1_554 S
H1629 C1639 0.929 . S
H1630 C1634 0.929 . S
H1631 C1640 0.929 . S
C1632 H1626 0.930 . S
C1632 C1633 1.367 . S
C1632 C1640 1.378 . S
C1633 C1632 1.367 . S
C1633 C1641 1.433 . S
C1634 H1630 0.929 . S
C1634 C1636 1.378 . S
C1634 C1638 1.350 . S
C1635 C1638 1.463 . S
C1635 C1640 1.350 . S
C1635 N1643 1.427 . S
C1636 H1627 0.930 . S
C1636 C1634 1.378 . S
C1636 C1637 1.367 . S
C1637 C1636 1.367 . S
C1637 C1639 1.433 . S
C1638 C1634 1.350 . S
C1638 C1635 1.463 . S
C1638 N1642 1.427 . S
C1639 H1629 0.929 . S
C1639 C1637 1.433 . S
C1639 N1642 1.384 . S
C1640 H1631 0.929 . S
C1640 C1632 1.378 . S
C1640 C1635 1.350 . S
C1641 H1628 0.929 1_556 S
C1641 C1633 1.433 . S
C1641 N1643 1.384 . S
N1642 C1638 1.427 . S
N1642 C1639 1.384 . S
N1643 C1635 1.427 . S
N1643 C1641 1.384 . S
H1644 C1650 0.930 . S
H1645 C1654 0.930 . S
H1646 C1659 0.929 . S
H1647 C1657 0.929 . S
H1648 C1652 0.929 . S
H1649 C1658 0.929 . S
C1650 H1644 0.930 . S
C1650 C1651 1.367 . S
C1650 C1658 1.378 . S
C1651 C1650 1.367 . S
C1651 C1659 1.433 . S
C1652 H1648 0.929 . S
C1652 C1654 1.378 . S
C1652 C1656 1.350 . S
C1653 C1656 1.463 . S
C1653 C1658 1.350 . S
C1653 N1661 1.427 . S
C1654 H1645 0.930 . S
C1654 C1652 1.378 . S
C1654 C1655 1.367 . S
C1655 C1654 1.367 . S
C1655 C1657 1.433 . S
C1656 C1652 1.350 . S
C1656 C1653 1.463 . S
C1656 N1660 1.427 . S
C1657 H1647 0.929 . S
C1657 C1655 1.433 . S
C1657 N1660 1.384 . S
C1658 H1649 0.929 . S
C1658 C1650 1.378 . S
C1658 C1653 1.350 . S
C1659 H1646 0.929 . S
C1659 C1651 1.433 . S
C1659 N1661 1.384 . S
N1660 C1656 1.427 . S
N1660 C1657 1.384 . S
N1661 C1653 1.427 . S
N1661 C1659 1.384 . S
H1662 C1668 0.930 . S
H1663 C1672 0.930 . S
H1664 C1677 0.929 . S
H1665 C1675 0.929 . S
H1666 C1670 0.929 . S
H1667 C1676 0.929 . S
C1668 H1662 0.930 . S
C1668 C1669 1.367 . S
C1668 C1676 1.378 . S
C1669 C1668 1.367 . S
C1669 C1677 1.433 . S
C1670 H1666 0.929 . S
C1670 C1672 1.378 . S
C1670 C1674 1.350 . S
C1671 C1674 1.463 . S
C1671 C1676 1.350 . S
C1671 N1679 1.427 . S
C1672 H1663 0.930 . S
C1672 C1670 1.378 . S
C1672 C1673 1.367 . S
C1673 C1672 1.367 . S
C1673 C1675 1.433 . S
C1674 C1670 1.350 . S
C1674 C1671 1.463 . S
C1674 N1678 1.427 . S
C1675 H1665 0.929 . S
C1675 C1673 1.433 . S
C1675 N1678 1.384 . S
C1676 H1667 0.929 . S
C1676 C1668 1.378 . S
C1676 C1671 1.350 . S
C1677 H1664 0.929 . S
C1677 C1669 1.433 . S
C1677 N1679 1.384 . S
N1678 C1674 1.427 . S
N1678 C1675 1.384 . S
N1679 C1671 1.427 . S
N1679 C1677 1.384 . S
H1680 C1686 0.930 . S
H1681 C1690 0.930 . S
H1682 C1695 0.929 . S
H1683 C1693 0.929 . S
H1684 C1688 0.929 . S
H1685 C1694 0.929 . S
C1686 H1680 0.930 . S
C1686 C1687 1.367 . S
C1686 C1694 1.378 . S
C1687 C1686 1.367 . S
C1687 C1695 1.433 . S
C1688 H1684 0.929 . S
C1688 C1690 1.378 . S
C1688 C1692 1.350 . S
C1689 C1692 1.463 . S
C1689 C1694 1.350 . S
C1689 N1697 1.427 . S
C1690 H1681 0.930 . S
C1690 C1688 1.378 . S
C1690 C1691 1.367 . S
C1691 C1690 1.367 . S
C1691 C1693 1.433 . S
C1692 C1688 1.350 . S
C1692 C1689 1.463 . S
C1692 N1696 1.427 . S
C1693 H1683 0.929 . S
C1693 C1691 1.433 . S
C1693 N1696 1.384 . S
C1694 H1685 0.929 . S
C1694 C1686 1.378 . S
C1694 C1689 1.350 . S
C1695 H1682 0.929 . S
C1695 C1687 1.433 . S
C1695 N1697 1.384 . S
N1696 C1692 1.427 . S
N1696 C1693 1.384 . S
N1697 C1689 1.427 . S
N1697 C1695 1.384 . S
H1698 C1704 0.930 . S
H1699 C1708 0.930 . S
H1700 C1713 0.929 . S
H1701 C1711 0.929 . S
H1702 C1706 0.929 . S
H1703 C1712 0.929 . S
C1704 H1698 0.930 . S
C1704 C1705 1.367 . S
C1704 C1712 1.378 . S
C1705 C1704 1.367 . S
C1705 C1713 1.433 . S
C1706 H1702 0.929 . S
C1706 C1708 1.378 . S
C1706 C1710 1.350 . S
C1707 C1710 1.463 . S
C1707 C1712 1.350 . S
C1707 N1715 1.427 . S
C1708 H1699 0.930 . S
C1708 C1706 1.378 . S
C1708 C1709 1.367 . S
C1709 C1708 1.367 . S
C1709 C1711 1.433 . S
C1710 C1706 1.350 . S
C1710 C1707 1.463 . S
C1710 N1714 1.427 . S
C1711 H1701 0.929 . S
C1711 C1709 1.433 . S
C1711 N1714 1.384 . S
C1712 H1703 0.929 . S
C1712 C1704 1.378 . S
C1712 C1707 1.350 . S
C1713 H1700 0.929 . S
C1713 C1705 1.433 . S
C1713 N1715 1.384 . S
N1714 C1710 1.427 . S
N1714 C1711 1.384 . S
N1715 C1707 1.427 . S
N1715 C1713 1.384 . S
H1716 C1722 0.930 . S
H1717 C1726 0.930 . S
H1718 C1731 0.929 . S
H1719 C1729 0.929 . S
H1720 C1724 0.929 . S
H1721 C1730 0.929 . S
C1722 H1716 0.930 . S
C1722 C1723 1.367 . S
C1722 C1730 1.378 . S
C1723 C1722 1.367 . S
C1723 C1731 1.433 . S
C1724 H1720 0.929 . S
C1724 C1726 1.378 . S
C1724 C1728 1.350 . S
C1725 C1728 1.463 . S
C1725 C1730 1.350 . S
C1725 N1733 1.427 . S
C1726 H1717 0.930 . S
C1726 C1724 1.378 . S
C1726 C1727 1.367 . S
C1727 C1726 1.367 . S
C1727 C1729 1.433 . S
C1728 C1724 1.350 . S
C1728 C1725 1.463 . S
C1728 N1732 1.427 . S
C1729 H1719 0.929 . S
C1729 C1727 1.433 . S
C1729 N1732 1.384 . S
C1730 H1721 0.929 . S
C1730 C1722 1.378 . S
C1730 C1725 1.350 . S
C1731 H1718 0.929 . S
C1731 C1723 1.433 . S
C1731 N1733 1.384 . S
N1732 C1728 1.427 . S
N1732 C1729 1.384 . S
N1733 C1725 1.427 . S
N1733 C1731 1.384 . S
H1734 C1740 0.930 . S
H1735 C1744 0.930 . S
H1736 C1749 0.929 . S
H1737 C1747 0.929 . S
H1738 C1742 0.929 . S
H1739 C1748 0.929 . S
C1740 H1734 0.930 . S
C1740 C1741 1.367 . S
C1740 C1748 1.378 . S
C1741 C1740 1.367 . S
C1741 C1749 1.433 . S
C1742 H1738 0.929 . S
C1742 C1744 1.378 . S
C1742 C1746 1.350 . S
C1743 C1746 1.463 . S
C1743 C1748 1.350 . S
C1743 N1751 1.427 . S
C1744 H1735 0.930 . S
C1744 C1742 1.378 . S
C1744 C1745 1.367 . S
C1745 C1744 1.367 . S
C1745 C1747 1.433 . S
C1746 C1742 1.350 . S
C1746 C1743 1.463 . S
C1746 N1750 1.427 . S
C1747 H1737 0.929 . S
C1747 C1745 1.433 . S
C1747 N1750 1.384 . S
C1748 H1739 0.929 . S
C1748 C1740 1.378 . S
C1748 C1743 1.350 . S
C1749 H1736 0.929 . S
C1749 C1741 1.433 . S
C1749 N1751 1.384 . S
N1750 C1746 1.427 . S
N1750 C1747 1.384 . S
N1751 C1743 1.427 . S
N1751 C1749 1.384 . S
H1752 C1758 0.930 . S
H1753 C1762 0.930 . S
H1754 C1767 0.929 . S
H1755 C1765 0.929 . S
H1756 C1760 0.929 . S
H1757 C1766 0.929 . S
C1758 H1752 0.930 . S
C1758 C1759 1.367 . S
C1758 C1766 1.378 . S
C1759 C1758 1.367 . S
C1759 C1767 1.433 . S
C1760 H1756 0.929 . S
C1760 C1762 1.378 . S
C1760 C1764 1.350 . S
C1761 C1764 1.463 . S
C1761 C1766 1.350 . S
C1761 N1769 1.427 . S
C1762 H1753 0.930 . S
C1762 C1760 1.378 . S
C1762 C1763 1.367 . S
C1763 C1762 1.367 . S
C1763 C1765 1.433 . S
C1764 C1760 1.350 . S
C1764 C1761 1.463 . S
C1764 N1768 1.427 . S
C1765 H1755 0.929 . S
C1765 C1763 1.433 . S
C1765 N1768 1.384 . S
C1766 H1757 0.929 . S
C1766 C1758 1.378 . S
C1766 C1761 1.350 . S
C1767 H1754 0.929 . S
C1767 C1759 1.433 . S
C1767 N1769 1.384 . S
N1768 C1764 1.427 . S
N1768 C1765 1.384 . S
N1769 C1761 1.427 . S
N1769 C1767 1.384 . S
H1770 C1776 0.930 1_455 S
H1771 C1780 0.930 . S
H1772 C1785 0.929 . S
H1773 C1783 0.929 . S
H1774 C1778 0.929 . S
H1775 C1784 0.929 . S
C1776 H1770 0.930 1_655 S
C1776 C1777 1.367 . S
C1776 C1784 1.378 . S
C1777 C1776 1.367 . S
C1777 C1785 1.433 . S
C1778 H1774 0.929 . S
C1778 C1780 1.378 . S
C1778 C1782 1.350 . S
C1779 C1782 1.463 . S
C1779 C1784 1.350 . S
C1779 N1787 1.427 . S
C1780 H1771 0.930 . S
C1780 C1778 1.378 . S
C1780 C1781 1.367 . S
C1781 C1780 1.367 . S
C1781 C1783 1.433 . S
C1782 C1778 1.350 . S
C1782 C1779 1.463 . S
C1782 N1786 1.427 . S
C1783 H1773 0.929 . S
C1783 C1781 1.433 . S
C1783 N1786 1.384 . S
C1784 H1775 0.929 . S
C1784 C1776 1.378 . S
C1784 C1779 1.350 . S
C1785 H1772 0.929 . S
C1785 C1777 1.433 . S
C1785 N1787 1.384 . S
N1786 C1782 1.427 . S
N1786 C1783 1.384 . S
N1787 C1779 1.427 . S
N1787 C1785 1.384 . S
H1788 C1794 0.930 . S
H1789 C1798 0.930 . S
H1790 C1803 0.929 . S
H1791 C1801 0.929 . S
H1792 C1796 0.929 . S
H1793 C1802 0.929 . S
C1794 H1788 0.930 . S
C1794 C1795 1.367 . S
C1794 C1802 1.378 . S
C1795 C1794 1.367 . S
C1795 C1803 1.433 . S
C1796 H1792 0.929 . S
C1796 C1798 1.378 . S
C1796 C1800 1.350 . S
C1797 C1800 1.463 . S
C1797 C1802 1.350 . S
C1797 N1805 1.427 . S
C1798 H1789 0.930 . S
C1798 C1796 1.378 . S
C1798 C1799 1.367 . S
C1799 C1798 1.367 . S
C1799 C1801 1.433 . S
C1800 C1796 1.350 . S
C1800 C1797 1.463 . S
C1800 N1804 1.427 . S
C1801 H1791 0.929 . S
C1801 C1799 1.433 . S
C1801 N1804 1.384 . S
C1802 H1793 0.929 . S
C1802 C1794 1.378 . S
C1802 C1797 1.350 . S
C1803 H1790 0.929 . S
C1803 C1795 1.433 . S
C1803 N1805 1.384 . S
N1804 C1800 1.427 . S
N1804 C1801 1.384 . S
N1805 C1797 1.427 . S
N1805 C1803 1.384 . S
H1806 C1812 0.930 . S
H1807 C1816 0.930 . S
H1808 C1821 0.929 . S
H1809 C1819 0.929 . S
H1810 C1814 0.929 . S
H1811 C1820 0.929 . S
C1812 H1806 0.930 . S
C1812 C1813 1.367 . S
C1812 C1820 1.378 . S
C1813 C1812 1.367 . S
C1813 C1821 1.433 . S
C1814 H1810 0.929 . S
C1814 C1816 1.378 . S
C1814 C1818 1.350 . S
C1815 C1818 1.463 . S
C1815 C1820 1.350 . S
C1815 N1823 1.427 . S
C1816 H1807 0.930 . S
C1816 C1814 1.378 . S
C1816 C1817 1.367 . S
C1817 C1816 1.367 . S
C1817 C1819 1.433 . S
C1818 C1814 1.350 . S
C1818 C1815 1.463 . S
C1818 N1822 1.427 . S
C1819 H1809 0.929 . S
C1819 C1817 1.433 . S
C1819 N1822 1.384 . S
C1820 H1811 0.929 . S
C1820 C1812 1.378 . S
C1820 C1815 1.350 . S
C1821 H1808 0.929 . S
C1821 C1813 1.433 . S
C1821 N1823 1.384 . S
N1822 C1818 1.427 . S
N1822 C1819 1.384 . S
N1823 C1815 1.427 . S
N1823 C1821 1.384 . S
H1824 C1830 0.930 . S
H1825 C1834 0.930 . S
H1826 C1839 0.929 . S
H1827 C1837 0.929 . S
H1828 C1832 0.929 . S
H1829 C1838 0.929 . S
C1830 H1824 0.930 . S
C1830 C1831 1.367 . S
C1830 C1838 1.378 . S
C1831 C1830 1.367 . S
C1831 C1839 1.433 . S
C1832 H1828 0.929 . S
C1832 C1834 1.378 . S
C1832 C1836 1.350 . S
C1833 C1836 1.463 . S
C1833 C1838 1.350 . S
C1833 N1841 1.427 . S
C1834 H1825 0.930 . S
C1834 C1832 1.378 . S
C1834 C1835 1.367 . S
C1835 C1834 1.367 . S
C1835 C1837 1.433 . S
C1836 C1832 1.350 . S
C1836 C1833 1.463 . S
C1836 N1840 1.427 . S
C1837 H1827 0.929 . S
C1837 C1835 1.433 . S
C1837 N1840 1.384 . S
C1838 H1829 0.929 . S
C1838 C1830 1.378 . S
C1838 C1833 1.350 . S
C1839 H1826 0.929 . S
C1839 C1831 1.433 . S
C1839 N1841 1.384 . S
N1840 C1836 1.427 . S
N1840 C1837 1.384 . S
N1841 C1833 1.427 . S
N1841 C1839 1.384 . S
H1842 C1848 0.930 . S
H1843 C1852 0.930 . S
H1844 C1857 0.929 . S
H1845 C1855 0.929 . S
H1846 C1850 0.929 . S
H1847 C1856 0.929 . S
C1848 H1842 0.930 . S
C1848 C1849 1.367 . S
C1848 C1856 1.378 . S
C1849 C1848 1.367 . S
C1849 C1857 1.433 . S
C1850 H1846 0.929 . S
C1850 C1852 1.378 . S
C1850 C1854 1.350 . S
C1851 C1854 1.463 . S
C1851 C1856 1.350 . S
C1851 N1859 1.427 . S
C1852 H1843 0.930 . S
C1852 C1850 1.378 . S
C1852 C1853 1.367 . S
C1853 C1852 1.367 . S
C1853 C1855 1.433 . S
C1854 C1850 1.350 . S
C1854 C1851 1.463 . S
C1854 N1858 1.427 . S
C1855 H1845 0.929 . S
C1855 C1853 1.433 . S
C1855 N1858 1.384 . S
C1856 H1847 0.929 . S
C1856 C1848 1.378 . S
C1856 C1851 1.350 . S
C1857 H1844 0.929 . S
C1857 C1849 1.433 . S
C1857 N1859 1.384 . S
N1858 C1854 1.427 . S
N1858 C1855 1.384 . S
N1859 C1851 1.427 . S
N1859 C1857 1.384 . S
H1860 C1866 0.930 . S
H1861 C1870 0.930 . S
H1862 C1875 0.929 . S
H1863 C1873 0.929 . S
H1864 C1868 0.929 . S
H1865 C1874 0.929 . S
C1866 H1860 0.930 . S
C1866 C1867 1.367 . S
C1866 C1874 1.378 . S
C1867 C1866 1.367 . S
C1867 C1875 1.433 . S
C1868 H1864 0.929 . S
C1868 C1870 1.378 . S
C1868 C1872 1.350 . S
C1869 C1872 1.463 . S
C1869 C1874 1.350 . S
C1869 N1877 1.427 . S
C1870 H1861 0.930 . S
C1870 C1868 1.378 . S
C1870 C1871 1.367 . S
C1871 C1870 1.367 . S
C1871 C1873 1.433 . S
C1872 C1868 1.350 . S
C1872 C1869 1.463 . S
C1872 N1876 1.427 . S
C1873 H1863 0.929 . S
C1873 C1871 1.433 . S
C1873 N1876 1.384 . S
C1874 H1865 0.929 . S
C1874 C1866 1.378 . S
C1874 C1869 1.350 . S
C1875 H1862 0.929 . S
C1875 C1867 1.433 . S
C1875 N1877 1.384 . S
N1876 C1872 1.427 . S
N1876 C1873 1.384 . S
N1877 C1869 1.427 . S
N1877 C1875 1.384 . S
H1878 C1884 0.930 . S
H1879 C1888 0.930 . S
H1880 C1893 0.929 . S
H1881 C1891 0.929 . S
H1882 C1886 0.929 . S
H1883 C1892 0.929 . S
C1884 H1878 0.930 . S
C1884 C1885 1.367 . S
C1884 C1892 1.378 . S
C1885 C1884 1.367 . S
C1885 C1893 1.433 . S
C1886 H1882 0.929 . S
C1886 C1888 1.378 . S
C1886 C1890 1.350 . S
C1887 C1890 1.463 . S
C1887 C1892 1.350 . S
C1887 N1895 1.427 . S
C1888 H1879 0.930 . S
C1888 C1886 1.378 . S
C1888 C1889 1.367 . S
C1889 C1888 1.367 . S
C1889 C1891 1.433 . S
C1890 C1886 1.350 . S
C1890 C1887 1.463 . S
C1890 N1894 1.427 . S
C1891 H1881 0.929 . S
C1891 C1889 1.433 . S
C1891 N1894 1.384 . S
C1892 H1883 0.929 . S
C1892 C1884 1.378 . S
C1892 C1887 1.350 . S
C1893 H1880 0.929 . S
C1893 C1885 1.433 . S
C1893 N1895 1.384 . S
N1894 C1890 1.427 . S
N1894 C1891 1.384 . S
N1895 C1887 1.427 . S
N1895 C1893 1.384 . S
H1896 C1902 0.930 . S
H1897 C1906 0.930 . S
H1898 C1911 0.929 . S
H1899 C1909 0.929 . S
H1900 C1904 0.929 . S
H1901 C1910 0.929 . S
C1902 H1896 0.930 . S
C1902 C1903 1.367 . S
C1902 C1910 1.378 . S
C1903 C1902 1.367 . S
C1903 C1911 1.433 . S
C1904 H1900 0.929 . S
C1904 C1906 1.378 . S
C1904 C1908 1.350 . S
C1905 C1908 1.463 . S
C1905 C1910 1.350 . S
C1905 N1913 1.427 . S
C1906 H1897 0.930 . S
C1906 C1904 1.378 . S
C1906 C1907 1.367 . S
C1907 C1906 1.367 . S
C1907 C1909 1.433 . S
C1908 C1904 1.350 . S
C1908 C1905 1.463 . S
C1908 N1912 1.427 . S
C1909 H1899 0.929 . S
C1909 C1907 1.433 . S
C1909 N1912 1.384 . S
C1910 H1901 0.929 . S
C1910 C1902 1.378 . S
C1910 C1905 1.350 . S
C1911 H1898 0.929 . S
C1911 C1903 1.433 . S
C1911 N1913 1.384 . S
N1912 C1908 1.427 . S
N1912 C1909 1.384 . S
N1913 C1905 1.427 . S
N1913 C1911 1.384 . S
H1914 C1920 0.930 . S
H1915 C1924 0.930 . S
H1916 C1929 0.929 . S
H1917 C1927 0.929 . S
H1918 C1922 0.929 . S
H1919 C1928 0.929 . S
C1920 H1914 0.930 . S
C1920 C1921 1.367 . S
C1920 C1928 1.378 . S
C1921 C1920 1.367 . S
C1921 C1929 1.433 . S
C1922 H1918 0.929 . S
C1922 C1924 1.378 . S
C1922 C1926 1.350 . S
C1923 C1926 1.463 . S
C1923 C1928 1.350 . S
C1923 N1931 1.427 . S
C1924 H1915 0.930 . S
C1924 C1922 1.378 . S
C1924 C1925 1.367 . S
C1925 C1924 1.367 . S
C1925 C1927 1.433 . S
C1926 C1922 1.350 . S
C1926 C1923 1.463 . S
C1926 N1930 1.427 . S
C1927 H1917 0.929 . S
C1927 C1925 1.433 . S
C1927 N1930 1.384 . S
C1928 H1919 0.929 . S
C1928 C1920 1.378 . S
C1928 C1923 1.350 . S
C1929 H1916 0.929 . S
C1929 C1921 1.433 . S
C1929 N1931 1.384 . S
N1930 C1926 1.427 . S
N1930 C1927 1.384 . S
N1931 C1923 1.427 . S
N1931 C1929 1.384 . S
H1932 C1938 0.930 . S
H1933 C1942 0.930 1_554 S
H1934 C1947 0.929 . S
H1935 C1945 0.929 . S
H1936 C1940 0.929 1_554 S
H1937 C1946 0.929 . S
C1938 H1932 0.930 . S
C1938 C1939 1.367 . S
C1938 C1946 1.378 . S
C1939 C1938 1.367 . S
C1939 C1947 1.433 . S
C1940 H1936 0.929 1_556 S
C1940 C1942 1.378 . S
C1940 C1944 1.350 . S
C1941 C1944 1.463 . S
C1941 C1946 1.350 . S
C1941 N1949 1.427 . S
C1942 H1933 0.930 1_556 S
C1942 C1940 1.378 . S
C1942 C1943 1.367 . S
C1943 C1942 1.367 . S
C1943 C1945 1.433 . S
C1944 C1940 1.350 . S
C1944 C1941 1.463 . S
C1944 N1948 1.427 . S
C1945 H1935 0.929 . S
C1945 C1943 1.433 . S
C1945 N1948 1.384 . S
C1946 H1937 0.929 . S
C1946 C1938 1.378 . S
C1946 C1941 1.350 . S
C1947 H1934 0.929 . S
C1947 C1939 1.433 . S
C1947 N1949 1.384 . S
N1948 C1944 1.427 . S
N1948 C1945 1.384 . S
N1949 C1941 1.427 . S
N1949 C1947 1.384 . S
H1950 C1956 0.930 . S
H1951 C1960 0.930 . S
H1952 C1965 0.929 . S
H1953 C1963 0.929 . S
H1954 C1958 0.929 . S
H1955 C1964 0.929 . S
C1956 H1950 0.930 . S
C1956 C1957 1.367 . S
C1956 C1964 1.378 . S
C1957 C1956 1.367 . S
C1957 C1965 1.433 . S
C1958 H1954 0.929 . S
C1958 C1960 1.378 . S
C1958 C1962 1.350 . S
C1959 C1962 1.463 . S
C1959 C1964 1.350 . S
C1959 N1967 1.427 . S
C1960 H1951 0.930 . S
C1960 C1958 1.378 . S
C1960 C1961 1.367 . S
C1961 C1960 1.367 . S
C1961 C1963 1.433 . S
C1962 C1958 1.350 . S
C1962 C1959 1.463 . S
C1962 N1966 1.427 . S
C1963 H1953 0.929 . S
C1963 C1961 1.433 . S
C1963 N1966 1.384 . S
C1964 H1955 0.929 . S
C1964 C1956 1.378 . S
C1964 C1959 1.350 . S
C1965 H1952 0.929 . S
C1965 C1957 1.433 . S
C1965 N1967 1.384 . S
N1966 C1962 1.427 . S
N1966 C1963 1.384 . S
N1967 C1959 1.427 . S
N1967 C1965 1.384 . S
H1968 C1974 0.930 . S
H1969 C1978 0.930 . S
H1970 C1983 0.929 . S
H1971 C1981 0.929 . S
H1972 C1976 0.929 . S
H1973 C1982 0.929 . S
C1974 H1968 0.930 . S
C1974 C1975 1.367 . S
C1974 C1982 1.378 . S
C1975 C1974 1.367 . S
C1975 C1983 1.433 . S
C1976 H1972 0.929 . S
C1976 C1978 1.378 . S
C1976 C1980 1.350 . S
C1977 C1980 1.463 . S
C1977 C1982 1.350 . S
C1977 N1985 1.427 . S
C1978 H1969 0.930 . S
C1978 C1976 1.378 . S
C1978 C1979 1.367 . S
C1979 C1978 1.367 . S
C1979 C1981 1.433 . S
C1980 C1976 1.350 . S
C1980 C1977 1.463 . S
C1980 N1984 1.427 . S
C1981 H1971 0.929 . S
C1981 C1979 1.433 . S
C1981 N1984 1.384 . S
C1982 H1973 0.929 . S
C1982 C1974 1.378 . S
C1982 C1977 1.350 . S
C1983 H1970 0.929 . S
C1983 C1975 1.433 . S
C1983 N1985 1.384 . S
N1984 C1980 1.427 . S
N1984 C1981 1.384 . S
N1985 C1977 1.427 . S
N1985 C1983 1.384 . S
H1986 C1992 0.930 . S
H1987 C1996 0.930 . S
H1988 C2001 0.929 . S
H1989 C1999 0.929 . S
H1990 C1994 0.929 . S
H1991 C2000 0.929 . S
C1992 H1986 0.930 . S
C1992 C1993 1.367 . S
C1992 C2000 1.378 . S
C1993 C1992 1.367 . S
C1993 C2001 1.433 . S
C1994 H1990 0.929 . S
C1994 C1996 1.378 . S
C1994 C1998 1.350 . S
C1995 C1998 1.463 . S
C1995 C2000 1.350 . S
C1995 N2003 1.427 . S
C1996 H1987 0.930 . S
C1996 C1994 1.378 . S
C1996 C1997 1.367 . S
C1997 C1996 1.367 . S
C1997 C1999 1.433 . S
C1998 C1994 1.350 . S
C1998 C1995 1.463 . S
C1998 N2002 1.427 . S
C1999 H1989 0.929 . S
C1999 C1997 1.433 . S
C1999 N2002 1.384 . S
C2000 H1991 0.929 . S
C2000 C1992 1.378 . S
C2000 C1995 1.350 . S
C2001 H1988 0.929 . S
C2001 C1993 1.433 . S
C2001 N2003 1.384 . S
N2002 C1998 1.427 . S
N2002 C1999 1.384 . S
N2003 C1995 1.427 . S
N2003 C2001 1.384 . S
H2004 C2010 0.930 . S
H2005 C2014 0.930 . S
H2006 C2019 0.929 . S
H2007 C2017 0.929 . S
H2008 C2012 0.929 . S
H2009 C2018 0.929 . S
C2010 H2004 0.930 . S
C2010 C2011 1.367 . S
C2010 C2018 1.378 . S
C2011 C2010 1.367 . S
C2011 C2019 1.433 . S
C2012 H2008 0.929 . S
C2012 C2014 1.378 . S
C2012 C2016 1.350 . S
C2013 C2016 1.463 . S
C2013 C2018 1.350 . S
C2013 N2021 1.427 . S
C2014 H2005 0.930 . S
C2014 C2012 1.378 . S
C2014 C2015 1.367 . S
C2015 C2014 1.367 . S
C2015 C2017 1.433 . S
C2016 C2012 1.350 . S
C2016 C2013 1.463 . S
C2016 N2020 1.427 . S
C2017 H2007 0.929 . S
C2017 C2015 1.433 . S
C2017 N2020 1.384 . S
C2018 H2009 0.929 . S
C2018 C2010 1.378 . S
C2018 C2013 1.350 . S
C2019 H2006 0.929 . S
C2019 C2011 1.433 . S
C2019 N2021 1.384 . S
N2020 C2016 1.427 . S
N2020 C2017 1.384 . S
N2021 C2013 1.427 . S
N2021 C2019 1.384 . S
H2022 C2028 0.930 . S
H2023 C2032 0.930 . S
H2024 C2037 0.929 . S
H2025 C2035 0.929 . S
H2026 C2030 0.929 . S
H2027 C2036 0.929 . S
C2028 H2022 0.930 . S
C2028 C2029 1.367 . S
C2028 C2036 1.378 . S
C2029 C2028 1.367 . S
C2029 C2037 1.433 . S
C2030 H2026 0.929 . S
C2030 C2032 1.378 . S
C2030 C2034 1.350 . S
C2031 C2034 1.463 . S
C2031 C2036 1.350 . S
C2031 N2039 1.427 . S
C2032 H2023 0.930 . S
C2032 C2030 1.378 . S
C2032 C2033 1.367 . S
C2033 C2032 1.367 . S
C2033 C2035 1.433 . S
C2034 C2030 1.350 . S
C2034 C2031 1.463 . S
C2034 N2038 1.427 . S
C2035 H2025 0.929 . S
C2035 C2033 1.433 . S
C2035 N2038 1.384 . S
C2036 H2027 0.929 . S
C2036 C2028 1.378 . S
C2036 C2031 1.350 . S
C2037 H2024 0.929 . S
C2037 C2029 1.433 . S
C2037 N2039 1.384 . S
N2038 C2034 1.427 . S
N2038 C2035 1.384 . S
N2039 C2031 1.427 . S
N2039 C2037 1.384 . S
H2040 C2046 0.930 . S
H2041 C2050 0.930 . S
H2042 C2055 0.929 . S
H2043 C2053 0.929 . S
H2044 C2048 0.929 . S
H2045 C2054 0.929 . S
C2046 H2040 0.930 . S
C2046 C2047 1.367 . S
C2046 C2054 1.378 . S
C2047 C2046 1.367 . S
C2047 C2055 1.433 . S
C2048 H2044 0.929 . S
C2048 C2050 1.378 . S
C2048 C2052 1.350 . S
C2049 C2052 1.463 . S
C2049 C2054 1.350 . S
C2049 N2057 1.427 . S
C2050 H2041 0.930 . S
C2050 C2048 1.378 . S
C2050 C2051 1.367 . S
C2051 C2050 1.367 . S
C2051 C2053 1.433 . S
C2052 C2048 1.350 . S
C2052 C2049 1.463 . S
C2052 N2056 1.427 . S
C2053 H2043 0.929 . S
C2053 C2051 1.433 . S
C2053 N2056 1.384 . S
C2054 H2045 0.929 . S
C2054 C2046 1.378 . S
C2054 C2049 1.350 . S
C2055 H2042 0.929 . S
C2055 C2047 1.433 . S
C2055 N2057 1.384 . S
N2056 C2052 1.427 . S
N2056 C2053 1.384 . S
N2057 C2049 1.427 . S
N2057 C2055 1.384 . S
H2058 C2064 0.930 . S
H2059 C2068 0.930 . S
H2060 C2073 0.929 . S
H2061 C2071 0.929 . S
H2062 C2066 0.929 . S
H2063 C2072 0.929 . S
C2064 H2058 0.930 . S
C2064 C2065 1.367 . S
C2064 C2072 1.378 . S
C2065 C2064 1.367 . S
C2065 C2073 1.433 . S
C2066 H2062 0.929 . S
C2066 C2068 1.378 . S
C2066 C2070 1.350 . S
C2067 C2070 1.463 . S
C2067 C2072 1.350 . S
C2067 N2075 1.427 . S
C2068 H2059 0.930 . S
C2068 C2066 1.378 . S
C2068 C2069 1.367 . S
C2069 C2068 1.367 . S
C2069 C2071 1.433 . S
C2070 C2066 1.350 . S
C2070 C2067 1.463 . S
C2070 N2074 1.427 . S
C2071 H2061 0.929 . S
C2071 C2069 1.433 . S
C2071 N2074 1.384 . S
C2072 H2063 0.929 . S
C2072 C2064 1.378 . S
C2072 C2067 1.350 . S
C2073 H2060 0.929 . S
C2073 C2065 1.433 . S
C2073 N2075 1.384 . S
N2074 C2070 1.427 . S
N2074 C2071 1.384 . S
N2075 C2067 1.427 . S
N2075 C2073 1.384 . S
H2076 C2082 0.930 . S
H2077 C2086 0.930 . S
H2078 C2091 0.929 . S
H2079 C2089 0.929 . S
H2080 C2084 0.929 . S
H2081 C2090 0.929 . S
C2082 H2076 0.930 . S
C2082 C2083 1.367 . S
C2082 C2090 1.378 . S
C2083 C2082 1.367 . S
C2083 C2091 1.433 . S
C2084 H2080 0.929 . S
C2084 C2086 1.378 . S
C2084 C2088 1.350 . S
C2085 C2088 1.463 . S
C2085 C2090 1.350 . S
C2085 N2093 1.427 . S
C2086 H2077 0.930 . S
C2086 C2084 1.378 . S
C2086 C2087 1.367 . S
C2087 C2086 1.367 . S
C2087 C2089 1.433 . S
C2088 C2084 1.350 . S
C2088 C2085 1.463 . S
C2088 N2092 1.427 . S
C2089 H2079 0.929 . S
C2089 C2087 1.433 . S
C2089 N2092 1.384 . S
C2090 H2081 0.929 . S
C2090 C2082 1.378 . S
C2090 C2085 1.350 . S
C2091 H2078 0.929 . S
C2091 C2083 1.433 . S
C2091 N2093 1.384 . S
N2092 C2088 1.427 . S
N2092 C2089 1.384 . S
N2093 C2085 1.427 . S
N2093 C2091 1.384 . S
H2094 C2100 0.930 . S
H2095 C2104 0.930 . S
H2096 C2109 0.929 . S
H2097 C2107 0.929 . S
H2098 C2102 0.929 . S
H2099 C2108 0.929 . S
C2100 H2094 0.930 . S
C2100 C2101 1.367 . S
C2100 C2108 1.378 . S
C2101 C2100 1.367 . S
C2101 C2109 1.433 . S
C2102 H2098 0.929 . S
C2102 C2104 1.378 . S
C2102 C2106 1.350 . S
C2103 C2106 1.463 . S
C2103 C2108 1.350 . S
C2103 N2111 1.427 . S
C2104 H2095 0.930 . S
C2104 C2102 1.378 . S
C2104 C2105 1.367 . S
C2105 C2104 1.367 . S
C2105 C2107 1.433 . S
C2106 C2102 1.350 . S
C2106 C2103 1.463 . S
C2106 N2110 1.427 . S
C2107 H2097 0.929 . S
C2107 C2105 1.433 . S
C2107 N2110 1.384 . S
C2108 H2099 0.929 . S
C2108 C2100 1.378 . S
C2108 C2103 1.350 . S
C2109 H2096 0.929 . S
C2109 C2101 1.433 . S
C2109 N2111 1.384 . S
N2110 C2106 1.427 . S
N2110 C2107 1.384 . S
N2111 C2103 1.427 . S
N2111 C2109 1.384 . S
H2112 C2118 0.930 . S
H2113 C2122 0.930 . S
H2114 C2127 0.929 . S
H2115 C2125 0.929 . S
H2116 C2120 0.929 . S
H2117 C2126 0.929 . S
C2118 H2112 0.930 . S
C2118 C2119 1.367 . S
C2118 C2126 1.378 . S
C2119 C2118 1.367 . S
C2119 C2127 1.433 . S
C2120 H2116 0.929 . S
C2120 C2122 1.378 . S
C2120 C2124 1.350 . S
C2121 C2124 1.463 . S
C2121 C2126 1.350 . S
C2121 N2129 1.427 . S
C2122 H2113 0.930 . S
C2122 C2120 1.378 . S
C2122 C2123 1.367 . S
C2123 C2122 1.367 . S
C2123 C2125 1.433 . S
C2124 C2120 1.350 . S
C2124 C2121 1.463 . S
C2124 N2128 1.427 . S
C2125 H2115 0.929 . S
C2125 C2123 1.433 . S
C2125 N2128 1.384 . S
C2126 H2117 0.929 . S
C2126 C2118 1.378 . S
C2126 C2121 1.350 . S
C2127 H2114 0.929 . S
C2127 C2119 1.433 . S
C2127 N2129 1.384 . S
N2128 C2124 1.427 . S
N2128 C2125 1.384 . S
N2129 C2121 1.427 . S
N2129 C2127 1.384 . S
H2130 C2136 0.930 . S
H2131 C2140 0.930 . S
H2132 C2145 0.929 . S
H2133 C2143 0.929 . S
H2134 C2138 0.929 . S
H2135 C2144 0.929 . S
C2136 H2130 0.930 . S
C2136 C2137 1.367 . S
C2136 C2144 1.378 . S
C2137 C2136 1.367 . S
C2137 C2145 1.433 . S
C2138 H2134 0.929 . S
C2138 C2140 1.378 . S
C2138 C2142 1.350 . S
C2139 C2142 1.463 . S
C2139 C2144 1.350 . S
C2139 N2147 1.427 . S
C2140 H2131 0.930 . S
C2140 C2138 1.378 . S
C2140 C2141 1.367 . S
C2141 C2140 1.367 . S
C2141 C2143 1.433 . S
C2142 C2138 1.350 . S
C2142 C2139 1.463 . S
C2142 N2146 1.427 . S
C2143 H2133 0.929 . S
C2143 C2141 1.433 . S
C2143 N2146 1.384 . S
C2144 H2135 0.929 . S
C2144 C2136 1.378 . S
C2144 C2139 1.350 . S
C2145 H2132 0.929 . S
C2145 C2137 1.433 . S
C2145 N2147 1.384 . S
N2146 C2142 1.427 . S
N2146 C2143 1.384 . S
N2147 C2139 1.427 . S
N2147 C2145 1.384 . S
H2148 C2154 0.930 . S
H2149 C2158 0.930 . S
H2150 C2163 0.929 . S
H2151 C2161 0.929 . S
H2152 C2156 0.929 . S
H2153 C2162 0.929 . S
C2154 H2148 0.930 . S
C2154 C2155 1.367 . S
C2154 C2162 1.378 . S
C2155 C2154 1.367 . S
C2155 C2163 1.433 . S
C2156 H2152 0.929 . S
C2156 C2158 1.378 . S
C2156 C2160 1.350 . S
C2157 C2160 1.463 . S
C2157 C2162 1.350 . S
C2157 N2165 1.427 . S
C2158 H2149 0.930 . S
C2158 C2156 1.378 . S
C2158 C2159 1.367 . S
C2159 C2158 1.367 . S
C2159 C2161 1.433 . S
C2160 C2156 1.350 . S
C2160 C2157 1.463 . S
C2160 N2164 1.427 . S
C2161 H2151 0.929 . S
C2161 C2159 1.433 . S
C2161 N2164 1.384 . S
C2162 H2153 0.929 . S
C2162 C2154 1.378 . S
C2162 C2157 1.350 . S
C2163 H2150 0.929 . S
C2163 C2155 1.433 . S
C2163 N2165 1.384 . S
N2164 C2160 1.427 . S
N2164 C2161 1.384 . S
N2165 C2157 1.427 . S
N2165 C2163 1.384 . S
H2166 C2172 0.930 . S
H2167 C2176 0.930 . S
H2168 C2181 0.929 . S
H2169 C2179 0.929 . S
H2170 C2174 0.929 . S
H2171 C2180 0.929 . S
C2172 H2166 0.930 . S
C2172 C2173 1.367 . S
C2172 C2180 1.378 . S
C2173 C2172 1.367 . S
C2173 C2181 1.433 . S
C2174 H2170 0.929 . S
C2174 C2176 1.378 . S
C2174 C2178 1.350 . S
C2175 C2178 1.463 . S
C2175 C2180 1.350 . S
C2175 N2183 1.427 . S
C2176 H2167 0.930 . S
C2176 C2174 1.378 . S
C2176 C2177 1.367 . S
C2177 C2176 1.367 . S
C2177 C2179 1.433 . S
C2178 C2174 1.350 . S
C2178 C2175 1.463 . S
C2178 N2182 1.427 . S
C2179 H2169 0.929 . S
C2179 C2177 1.433 . S
C2179 N2182 1.384 . S
C2180 H2171 0.929 . S
C2180 C2172 1.378 . S
C2180 C2175 1.350 . S
C2181 H2168 0.929 . S
C2181 C2173 1.433 . S
C2181 N2183 1.384 . S
N2182 C2178 1.427 . S
N2182 C2179 1.384 . S
N2183 C2175 1.427 . S
N2183 C2181 1.384 . S
H2184 C2190 0.930 . S
H2185 C2194 0.930 . S
H2186 C2199 0.929 . S
H2187 C2197 0.929 . S
H2188 C2192 0.929 . S
H2189 C2198 0.929 . S
C2190 H2184 0.930 . S
C2190 C2191 1.367 . S
C2190 C2198 1.378 . S
C2191 C2190 1.367 . S
C2191 C2199 1.433 . S
C2192 H2188 0.929 . S
C2192 C2194 1.378 . S
C2192 C2196 1.350 . S
C2193 C2196 1.463 . S
C2193 C2198 1.350 . S
C2193 N2201 1.427 . S
C2194 H2185 0.930 . S
C2194 C2192 1.378 . S
C2194 C2195 1.367 . S
C2195 C2194 1.367 . S
C2195 C2197 1.433 . S
C2196 C2192 1.350 . S
C2196 C2193 1.463 . S
C2196 N2200 1.427 . S
C2197 H2187 0.929 . S
C2197 C2195 1.433 . S
C2197 N2200 1.384 . S
C2198 H2189 0.929 . S
C2198 C2190 1.378 . S
C2198 C2193 1.350 . S
C2199 H2186 0.929 . S
C2199 C2191 1.433 . S
C2199 N2201 1.384 . S
N2200 C2196 1.427 . S
N2200 C2197 1.384 . S
N2201 C2193 1.427 . S
N2201 C2199 1.384 . S
H2202 C2208 0.930 . S
H2203 C2212 0.930 . S
H2204 C2217 0.929 . S
H2205 C2215 0.929 . S
H2206 C2210 0.929 . S
H2207 C2216 0.929 . S
C2208 H2202 0.930 . S
C2208 C2209 1.367 . S
C2208 C2216 1.378 . S
C2209 C2208 1.367 . S
C2209 C2217 1.433 . S
C2210 H2206 0.929 . S
C2210 C2212 1.378 . S
C2210 C2214 1.350 . S
C2211 C2214 1.463 . S
C2211 C2216 1.350 . S
C2211 N2219 1.427 . S
C2212 H2203 0.930 . S
C2212 C2210 1.378 . S
C2212 C2213 1.367 . S
C2213 C2212 1.367 . S
C2213 C2215 1.433 . S
C2214 C2210 1.350 . S
C2214 C2211 1.463 . S
C2214 N2218 1.427 . S
C2215 H2205 0.929 . S
C2215 C2213 1.433 . S
C2215 N2218 1.384 . S
C2216 H2207 0.929 . S
C2216 C2208 1.378 . S
C2216 C2211 1.350 . S
C2217 H2204 0.929 . S
C2217 C2209 1.433 . S
C2217 N2219 1.384 . S
N2218 C2214 1.427 . S
N2218 C2215 1.384 . S
N2219 C2211 1.427 . S
N2219 C2217 1.384 . S
H2220 C2226 0.930 . S
H2221 C2230 0.930 . S
H2222 C2235 0.929 . S
H2223 C2233 0.929 . S
H2224 C2228 0.929 . S
H2225 C2234 0.929 . S
C2226 H2220 0.930 . S
C2226 C2227 1.367 . S
C2226 C2234 1.378 . S
C2227 C2226 1.367 . S
C2227 C2235 1.433 . S
C2228 H2224 0.929 . S
C2228 C2230 1.378 . S
C2228 C2232 1.350 . S
C2229 C2232 1.463 . S
C2229 C2234 1.350 . S
C2229 N2237 1.427 . S
C2230 H2221 0.930 . S
C2230 C2228 1.378 . S
C2230 C2231 1.367 . S
C2231 C2230 1.367 . S
C2231 C2233 1.433 . S
C2232 C2228 1.350 . S
C2232 C2229 1.463 . S
C2232 N2236 1.427 . S
C2233 H2223 0.929 . S
C2233 C2231 1.433 . S
C2233 N2236 1.384 . S
C2234 H2225 0.929 . S
C2234 C2226 1.378 . S
C2234 C2229 1.350 . S
C2235 H2222 0.929 . S
C2235 C2227 1.433 . S
C2235 N2237 1.384 . S
N2236 C2232 1.427 . S
N2236 C2233 1.384 . S
N2237 C2229 1.427 . S
N2237 C2235 1.384 . S
H2238 C2244 0.930 . S
H2239 C2248 0.930 . S
H2240 C2253 0.929 . S
H2241 C2251 0.929 . S
H2242 C2246 0.929 . S
H2243 C2252 0.929 . S
C2244 H2238 0.930 . S
C2244 C2245 1.367 . S
C2244 C2252 1.378 . S
C2245 C2244 1.367 . S
C2245 C2253 1.433 . S
C2246 H2242 0.929 . S
C2246 C2248 1.378 . S
C2246 C2250 1.350 . S
C2247 C2250 1.463 . S
C2247 C2252 1.350 . S
C2247 N2255 1.427 . S
C2248 H2239 0.930 . S
C2248 C2246 1.378 . S
C2248 C2249 1.367 . S
C2249 C2248 1.367 . S
C2249 C2251 1.433 . S
C2250 C2246 1.350 . S
C2250 C2247 1.463 . S
C2250 N2254 1.427 . S
C2251 H2241 0.929 . S
C2251 C2249 1.433 . S
C2251 N2254 1.384 . S
C2252 H2243 0.929 . S
C2252 C2244 1.378 . S
C2252 C2247 1.350 . S
C2253 H2240 0.929 . S
C2253 C2245 1.433 . S
C2253 N2255 1.384 . S
N2254 C2250 1.427 . S
N2254 C2251 1.384 . S
N2255 C2247 1.427 . S
N2255 C2253 1.384 . S
H2256 C2262 0.930 . S
H2257 C2266 0.930 . S
H2258 C2271 0.929 . S
H2259 C2269 0.929 . S
H2260 C2264 0.929 . S
H2261 C2270 0.929 . S
C2262 H2256 0.930 . S
C2262 C2263 1.367 . S
C2262 C2270 1.378 . S
C2263 C2262 1.367 . S
C2263 C2271 1.433 . S
C2264 H2260 0.929 . S
C2264 C2266 1.378 . S
C2264 C2268 1.350 . S
C2265 C2268 1.463 . S
C2265 C2270 1.350 . S
C2265 N2273 1.427 . S
C2266 H2257 0.930 . S
C2266 C2264 1.378 . S
C2266 C2267 1.367 . S
C2267 C2266 1.367 . S
C2267 C2269 1.433 . S
C2268 C2264 1.350 . S
C2268 C2265 1.463 . S
C2268 N2272 1.427 . S
C2269 H2259 0.929 . S
C2269 C2267 1.433 . S
C2269 N2272 1.384 . S
C2270 H2261 0.929 . S
C2270 C2262 1.378 . S
C2270 C2265 1.350 . S
C2271 H2258 0.929 . S
C2271 C2263 1.433 . S
C2271 N2273 1.384 . S
N2272 C2268 1.427 . S
N2272 C2269 1.384 . S
N2273 C2265 1.427 . S
N2273 C2271 1.384 . S
H2274 C2280 0.930 . S
H2275 C2284 0.930 . S
H2276 C2289 0.929 . S
H2277 C2287 0.929 . S
H2278 C2282 0.929 . S
H2279 C2288 0.929 . S
C2280 H2274 0.930 . S
C2280 C2281 1.367 . S
C2280 C2288 1.378 . S
C2281 C2280 1.367 . S
C2281 C2289 1.433 . S
C2282 H2278 0.929 . S
C2282 C2284 1.378 . S
C2282 C2286 1.350 . S
C2283 C2286 1.463 . S
C2283 C2288 1.350 . S
C2283 N2291 1.427 . S
C2284 H2275 0.930 . S
C2284 C2282 1.378 . S
C2284 C2285 1.367 . S
C2285 C2284 1.367 . S
C2285 C2287 1.433 . S
C2286 C2282 1.350 . S
C2286 C2283 1.463 . S
C2286 N2290 1.427 . S
C2287 H2277 0.929 . S
C2287 C2285 1.433 . S
C2287 N2290 1.384 . S
C2288 H2279 0.929 . S
C2288 C2280 1.378 . S
C2288 C2283 1.350 . S
C2289 H2276 0.929 . S
C2289 C2281 1.433 . S
C2289 N2291 1.384 . S
N2290 C2286 1.427 . S
N2290 C2287 1.384 . S
N2291 C2283 1.427 . S
N2291 C2289 1.384 . S
H2292 C2298 0.930 . S
H2293 C2302 0.930 . S
H2294 C2307 0.929 . S
H2295 C2305 0.929 . S
H2296 C2300 0.929 . S
H2297 C2306 0.929 . S
C2298 H2292 0.930 . S
C2298 C2299 1.367 . S
C2298 C2306 1.378 . S
C2299 C2298 1.367 . S
C2299 C2307 1.433 . S
C2300 H2296 0.929 . S
C2300 C2302 1.378 . S
C2300 C2304 1.350 . S
C2301 C2304 1.463 . S
C2301 C2306 1.350 . S
C2301 N2309 1.427 . S
C2302 H2293 0.930 . S
C2302 C2300 1.378 . S
C2302 C2303 1.367 . S
C2303 C2302 1.367 . S
C2303 C2305 1.433 . S
C2304 C2300 1.350 . S
C2304 C2301 1.463 . S
C2304 N2308 1.427 . S
C2305 H2295 0.929 . S
C2305 C2303 1.433 . S
C2305 N2308 1.384 . S
C2306 H2297 0.929 . S
C2306 C2298 1.378 . S
C2306 C2301 1.350 . S
C2307 H2294 0.929 . S
C2307 C2299 1.433 . S
C2307 N2309 1.384 . S
N2308 C2304 1.427 . S
N2308 C2305 1.384 . S
N2309 C2301 1.427 . S
N2309 C2307 1.384 . S
H2310 C2316 0.930 . S
H2311 C2320 0.930 . S
H2312 C2325 0.929 . S
H2313 C2323 0.929 . S
H2314 C2318 0.929 . S
H2315 C2324 0.929 . S
C2316 H2310 0.930 . S
C2316 C2317 1.367 . S
C2316 C2324 1.378 . S
C2317 C2316 1.367 . S
C2317 C2325 1.433 . S
C2318 H2314 0.929 . S
C2318 C2320 1.378 . S
C2318 C2322 1.350 . S
C2319 C2322 1.463 . S
C2319 C2324 1.350 . S
C2319 N2327 1.427 . S
C2320 H2311 0.930 . S
C2320 C2318 1.378 . S
C2320 C2321 1.367 . S
C2321 C2320 1.367 . S
C2321 C2323 1.433 . S
C2322 C2318 1.350 . S
C2322 C2319 1.463 . S
C2322 N2326 1.427 . S
C2323 H2313 0.929 . S
C2323 C2321 1.433 . S
C2323 N2326 1.384 . S
C2324 H2315 0.929 . S
C2324 C2316 1.378 . S
C2324 C2319 1.350 . S
C2325 H2312 0.929 . S
C2325 C2317 1.433 . S
C2325 N2327 1.384 . S
N2326 C2322 1.427 . S
N2326 C2323 1.384 . S
N2327 C2319 1.427 . S
N2327 C2325 1.384 . S
H2328 C2334 0.930 . S
H2329 C2338 0.930 . S
H2330 C2343 0.929 . S
H2331 C2341 0.929 . S
H2332 C2336 0.929 . S
H2333 C2342 0.929 . S
C2334 H2328 0.930 . S
C2334 C2335 1.367 . S
C2334 C2342 1.378 . S
C2335 C2334 1.367 . S
C2335 C2343 1.433 . S
C2336 H2332 0.929 . S
C2336 C2338 1.378 . S
C2336 C2340 1.350 . S
C2337 C2340 1.463 . S
C2337 C2342 1.350 . S
C2337 N2345 1.427 . S
C2338 H2329 0.930 . S
C2338 C2336 1.378 . S
C2338 C2339 1.367 . S
C2339 C2338 1.367 . S
C2339 C2341 1.433 . S
C2340 C2336 1.350 . S
C2340 C2337 1.463 . S
C2340 N2344 1.427 . S
C2341 H2331 0.929 . S
C2341 C2339 1.433 . S
C2341 N2344 1.384 . S
C2342 H2333 0.929 . S
C2342 C2334 1.378 . S
C2342 C2337 1.350 . S
C2343 H2330 0.929 . S
C2343 C2335 1.433 . S
C2343 N2345 1.384 . S
N2344 C2340 1.427 . S
N2344 C2341 1.384 . S
N2345 C2337 1.427 . S
N2345 C2343 1.384 . S
H2346 C2352 0.930 . S
H2347 C2356 0.930 . S
H2348 C2361 0.929 . S
H2349 C2359 0.929 . S
H2350 C2354 0.929 . S
H2351 C2360 0.929 . S
C2352 H2346 0.930 . S
C2352 C2353 1.367 . S
C2352 C2360 1.378 . S
C2353 C2352 1.367 . S
C2353 C2361 1.433 . S
C2354 H2350 0.929 . S
C2354 C2356 1.378 . S
C2354 C2358 1.350 . S
C2355 C2358 1.463 . S
C2355 C2360 1.350 . S
C2355 N2363 1.427 . S
C2356 H2347 0.930 . S
C2356 C2354 1.378 . S
C2356 C2357 1.367 . S
C2357 C2356 1.367 . S
C2357 C2359 1.433 . S
C2358 C2354 1.350 . S
C2358 C2355 1.463 . S
C2358 N2362 1.427 . S
C2359 H2349 0.929 . S
C2359 C2357 1.433 . S
C2359 N2362 1.384 . S
C2360 H2351 0.929 . S
C2360 C2352 1.378 . S
C2360 C2355 1.350 . S
C2361 H2348 0.929 . S
C2361 C2353 1.433 . S
C2361 N2363 1.384 . S
N2362 C2358 1.427 . S
N2362 C2359 1.384 . S
N2363 C2355 1.427 . S
N2363 C2361 1.384 . S
H2364 C2370 0.930 . S
H2365 C2374 0.930 . S
H2366 C2379 0.929 . S
H2367 C2377 0.929 . S
H2368 C2372 0.929 . S
H2369 C2378 0.929 . S
C2370 H2364 0.930 . S
C2370 C2371 1.367 . S
C2370 C2378 1.378 . S
C2371 C2370 1.367 . S
C2371 C2379 1.433 . S
C2372 H2368 0.929 . S
C2372 C2374 1.378 . S
C2372 C2376 1.350 . S
C2373 C2376 1.463 . S
C2373 C2378 1.350 . S
C2373 N2381 1.427 . S
C2374 H2365 0.930 . S
C2374 C2372 1.378 . S
C2374 C2375 1.367 . S
C2375 C2374 1.367 . S
C2375 C2377 1.433 . S
C2376 C2372 1.350 . S
C2376 C2373 1.463 . S
C2376 N2380 1.427 . S
C2377 H2367 0.929 . S
C2377 C2375 1.433 . S
C2377 N2380 1.384 . S
C2378 H2369 0.929 . S
C2378 C2370 1.378 . S
C2378 C2373 1.350 . S
C2379 H2366 0.929 . S
C2379 C2371 1.433 . S
C2379 N2381 1.384 . S
N2380 C2376 1.427 . S
N2380 C2377 1.384 . S
N2381 C2373 1.427 . S
N2381 C2379 1.384 . S
H2382 C2388 0.930 . S
H2383 C2392 0.930 . S
H2384 C2397 0.929 . S
H2385 C2395 0.929 . S
H2386 C2390 0.929 . S
H2387 C2396 0.929 . S
C2388 H2382 0.930 . S
C2388 C2389 1.367 . S
C2388 C2396 1.378 . S
C2389 C2388 1.367 . S
C2389 C2397 1.433 . S
C2390 H2386 0.929 . S
C2390 C2392 1.378 . S
C2390 C2394 1.350 . S
C2391 C2394 1.463 . S
C2391 C2396 1.350 . S
C2391 N2399 1.427 . S
C2392 H2383 0.930 . S
C2392 C2390 1.378 . S
C2392 C2393 1.367 . S
C2393 C2392 1.367 . S
C2393 C2395 1.433 . S
C2394 C2390 1.350 . S
C2394 C2391 1.463 . S
C2394 N2398 1.427 . S
C2395 H2385 0.929 . S
C2395 C2393 1.433 . S
C2395 N2398 1.384 . S
C2396 H2387 0.929 . S
C2396 C2388 1.378 . S
C2396 C2391 1.350 . S
C2397 H2384 0.929 . S
C2397 C2389 1.433 . S
C2397 N2399 1.384 . S
N2398 C2394 1.427 . S
N2398 C2395 1.384 . S
N2399 C2391 1.427 . S
N2399 C2397 1.384 . S
C679 C92 1.188 . S
C683 C8 1.194 . S
C697 C22 1.205 . S
C701 C106 1.196 . S
C715 C36 1.189 . S
C719 C64 1.199 . S
C733 C78 1.198 . S
C737 C50 1.189 . S
C751 C484 1.181 . S
C755 C120 1.178 . S
C769 C498 1.187 . S
C773 C134 1.197 . S
C787 C148 1.178 . S
C791 C456 1.188 . S
C805 C162 1.187 . S
C809 C470 1.197 . S
C823 C540 1.178 . S
C827 C176 1.183 . S
C841 C554 1.175 . S
C845 C190 1.182 . S
C859 C512 1.189 . S
C863 C204 1.183 . S
C877 C526 1.190 . S
C881 C218 1.190 . S
C895 C232 1.177 . S
C899 C582 1.184 . S
C913 C246 1.190 . S
C917 C568 1.183 . S
C931 C260 1.185 . S
C935 C330 1.182 . S
C949 C638 1.197 . S
C953 C274 1.200 . S
C967 C652 1.190 . S
C971 C288 1.201 . S
C985 C610 1.166 . S
C989 C302 1.170 . S
C1003 C624 1.177 . S
C1007 C316 1.177 . S
C1021 C428 1.177 . S
C1025 C344 1.173 . S
C1039 C442 1.175 . S
C1043 C358 1.180 . S
C1057 C372 1.167 . S
C1061 C400 1.170 . S
C1075 C386 1.195 . S
C1079 C414 1.184 . S
C1093 C666 1.188 . S
C1097 C596 1.197 . S
C1111 C233 1.192 . S
C1115 C7 1.164 . S
C1129 C21 1.158 . S
C1133 C667 1.202 . S
C1147 C35 1.172 . S
C1151 C303 1.193 . S
C1165 C653 1.230 . S
C1169 C49 1.149 . S
C1183 C63 1.172 . S
C1187 C583 1.181 . S
C1201 C597 1.193 . S
C1205 C77 1.150 . S
C1219 C91 1.154 . S
C1223 C611 1.190 . S
C1237 C289 1.185 . S
C1241 C105 1.182 . S
C1255 C119 1.163 . S
C1259 C9 1.180 . S
C1273 C23 1.221 . S
C1277 C133 1.158 . S
C1291 C147 1.156 . S
C1295 C37 1.194 . S
C1309 C161 1.179 . S
C1313 C51 1.197 . S
C1327 C175 1.152 . S
C1331 C65 1.195 . S
C1345 C79 1.226 . S
C1349 C189 1.159 . S
C1363 C203 1.150 . S
C1367 C93 1.196 . S
C1381 C217 1.154 . S
C1385 C107 1.196 . S
C1399 C231 1.151 . S
C1403 C121 1.197 . S
C1417 C245 1.148 . S
C1421 C513 1.195 . S
C1435 C527 1.233 . S
C1439 C259 1.149 . S
C1453 C541 1.184 . S
C1457 C273 1.165 . S
C1471 C287 1.157 . S
C1475 C219 1.190 . S
C1489 C301 1.147 . S
C1493 C149 1.193 . S
C1507 C499 1.230 . S
C1511 C315 1.155 . S
C1525 C471 1.178 . S
C1529 C329 1.173 . S
C1543 C343 1.160 . S
C1547 C569 1.180 . S
C1561 C357 1.153 . S
C1565 C331 1.233 . S
C1579 C371 1.161 . S
C1583 C639 1.190 . S
C1597 C385 1.165 . S
C1601 C317 1.211 . S
C1615 C399 1.169 . S
C1619 C247 1.186 . S
C1633 C261 1.195 . S
C1637 C413 1.182 . S
C1651 C275 1.181 . S
C1655 C427 1.170 . S
C1669 C625 1.187 . S
C1673 C441 1.172 . S
C1687 C345 1.179 . S
C1691 C455 1.170 . S
C1705 C359 1.204 . S
C1709 C469 1.179 . S
C1723 C483 1.158 . S
C1727 C373 1.199 . S
C1741 C387 1.179 . S
C1745 C497 1.164 . S
C1759 C511 1.153 . S
C1763 C401 1.194 . S
C1777 C415 1.186 . S
C1781 C525 1.178 . S
C1795 C539 1.161 . S
C1799 C429 1.179 . S
C1813 C443 1.189 . S
C1817 C553 1.167 . S
C1831 C567 1.163 . S
C1835 C457 1.192 . S
C1849 C581 1.173 . S
C1853 C177 1.187 . S
C1867 C191 1.190 . S
C1871 C595 1.182 . S
C1885 C609 1.167 . S
C1889 C205 1.177 . S
C1903 C623 1.169 . S
C1907 C555 1.201 . S
C1921 C485 1.194 . S
C1925 C637 1.150 . S
C1939 C651 1.180 . S
C1943 C163 1.187 . S
C1957 C135 1.190 . S
C1961 C665 1.184 . S
C1975 C132 0.810 . S
C1979 C6 0.804 . S
C1993 C20 0.776 . S
C1997 C146 0.782 . S
C2011 C160 0.787 . S
C2015 C34 0.793 . S
C2029 C118 0.789 . S
C2033 C48 0.783 . S
C2047 C62 0.773 . S
C2051 C216 0.774 . S
C2065 C76 0.806 . S
C2069 C174 0.802 . S
C2083 C188 0.796 . S
C2087 C90 0.804 . S
C2101 C202 0.776 . S
C2105 C104 0.782 . S
C2119 C230 0.791 . S
C2123 C258 0.799 . S
C2137 C244 0.786 . S
C2141 C650 0.793 . S
C2155 C272 0.796 . S
C2159 C664 0.802 . S
C2173 C636 0.794 . S
C2177 C286 0.801 . S
C2191 C622 0.807 . S
C2195 C300 0.806 . S
C2209 C580 0.784 . S
C2213 C314 0.781 . S
C2227 C328 0.774 . S
C2231 C608 0.779 . S
C2245 C468 0.791 . S
C2249 C342 0.781 . S
C2263 C482 0.785 . S
C2267 C356 0.781 . S
C2281 C370 0.801 . S
C2285 C496 0.793 . S
C2299 C454 0.766 . S
C2303 C384 0.765 . S
C2317 C552 0.777 . S
C2321 C398 0.784 . S
C2335 C510 0.796 . S
C2339 C412 0.788 . S
C2353 C426 0.774 . S
C2357 C524 0.782 . S
C2371 C538 0.785 . S
C2375 C440 0.778 . S
C2389 C594 0.785 . S
C2393 C566 0.790 . S
