# Generated by pormake.
# Topology lcy-a, (4)-cn, num edge types: 1
# Building blocks:
#     Node 0, Type 0, BuildingBlock: GALJAG_clean_sbu_0, # of connection points: 4
#     Node 1, Type 0, BuildingBlock: GALJAG_clean_sbu_0, # of connection points: 4
#     Node 2, Type 0, BuildingBlock: GALJAG_clean_sbu_0, # of connection points: 4
#     Node 3, Type 0, BuildingBlock: GALJAG_clean_sbu_0, # of connection points: 4
#     Node 4, Type 0, BuildingBlock: GALJAG_clean_sbu_0, # of connection points: 4
#     Node 5, Type 0, BuildingBlock: GALJAG_clean_sbu_0, # of connection points: 4
#     Node 6, Type 0, BuildingBlock: GALJAG_clean_sbu_0, # of connection points: 4
#     Node 7, Type 0, BuildingBlock: GALJAG_clean_sbu_0, # of connection points: 4
#     Node 8, Type 0, BuildingBlock: GALJAG_clean_sbu_0, # of connection points: 4
#     Node 9, Type 0, BuildingBlock: GALJAG_clean_sbu_0, # of connection points: 4
#     Node 10, Type 0, BuildingBlock: GALJAG_clean_sbu_0, # of connection points: 4
#     Node 11, Type 0, BuildingBlock: GALJAG_clean_sbu_0, # of connection points: 4
#     Node 12, Type 0, BuildingBlock: GALJAG_clean_sbu_0, # of connection points: 4
#     Node 13, Type 0, BuildingBlock: GALJAG_clean_sbu_0, # of connection points: 4
#     Node 14, Type 0, BuildingBlock: GALJAG_clean_sbu_0, # of connection points: 4
#     Node 15, Type 0, BuildingBlock: GALJAG_clean_sbu_0, # of connection points: 4
#     Node 16, Type 0, BuildingBlock: GALJAG_clean_sbu_0, # of connection points: 4
#     Node 17, Type 0, BuildingBlock: GALJAG_clean_sbu_0, # of connection points: 4
#     Node 18, Type 0, BuildingBlock: GALJAG_clean_sbu_0, # of connection points: 4
#     Node 19, Type 0, BuildingBlock: GALJAG_clean_sbu_0, # of connection points: 4
#     Node 20, Type 0, BuildingBlock: GALJAG_clean_sbu_0, # of connection points: 4
#     Node 21, Type 0, BuildingBlock: GALJAG_clean_sbu_0, # of connection points: 4
#     Node 22, Type 0, BuildingBlock: GALJAG_clean_sbu_0, # of connection points: 4
#     Node 23, Type 0, BuildingBlock: GALJAG_clean_sbu_0, # of connection points: 4
#     Edge 24, Type (0, 0), BuildingBlock: OJICUG_clean_linker_0, # of connection points: 2
#     Edge 25, Type (0, 0), BuildingBlock: OJICUG_clean_linker_0, # of connection points: 2
#     Edge 26, Type (0, 0), BuildingBlock: OJICUG_clean_linker_0, # of connection points: 2
#     Edge 27, Type (0, 0), BuildingBlock: OJICUG_clean_linker_0, # of connection points: 2
#     Edge 28, Type (0, 0), BuildingBlock: OJICUG_clean_linker_0, # of connection points: 2
#     Edge 29, Type (0, 0), BuildingBlock: OJICUG_clean_linker_0, # of connection points: 2
#     Edge 30, Type (0, 0), BuildingBlock: OJICUG_clean_linker_0, # of connection points: 2
#     Edge 31, Type (0, 0), BuildingBlock: OJICUG_clean_linker_0, # of connection points: 2
#     Edge 32, Type (0, 0), BuildingBlock: OJICUG_clean_linker_0, # of connection points: 2
#     Edge 33, Type (0, 0), BuildingBlock: OJICUG_clean_linker_0, # of connection points: 2
#     Edge 34, Type (0, 0), BuildingBlock: OJICUG_clean_linker_0, # of connection points: 2
#     Edge 35, Type (0, 0), BuildingBlock: OJICUG_clean_linker_0, # of connection points: 2
#     Edge 36, Type (0, 0), BuildingBlock: OJICUG_clean_linker_0, # of connection points: 2
#     Edge 37, Type (0, 0), BuildingBlock: OJICUG_clean_linker_0, # of connection points: 2
#     Edge 38, Type (0, 0), BuildingBlock: OJICUG_clean_linker_0, # of connection points: 2
#     Edge 39, Type (0, 0), BuildingBlock: OJICUG_clean_linker_0, # of connection points: 2
#     Edge 40, Type (0, 0), BuildingBlock: OJICUG_clean_linker_0, # of connection points: 2
#     Edge 41, Type (0, 0), BuildingBlock: OJICUG_clean_linker_0, # of connection points: 2
#     Edge 42, Type (0, 0), BuildingBlock: OJICUG_clean_linker_0, # of connection points: 2
#     Edge 43, Type (0, 0), BuildingBlock: OJICUG_clean_linker_0, # of connection points: 2
#     Edge 44, Type (0, 0), BuildingBlock: OJICUG_clean_linker_0, # of connection points: 2
#     Edge 45, Type (0, 0), BuildingBlock: OJICUG_clean_linker_0, # of connection points: 2
#     Edge 46, Type (0, 0), BuildingBlock: OJICUG_clean_linker_0, # of connection points: 2
#     Edge 47, Type (0, 0), BuildingBlock: OJICUG_clean_linker_0, # of connection points: 2
#     Edge 48, Type (0, 0), BuildingBlock: OJICUG_clean_linker_0, # of connection points: 2
#     Edge 49, Type (0, 0), BuildingBlock: OJICUG_clean_linker_0, # of connection points: 2
#     Edge 50, Type (0, 0), BuildingBlock: OJICUG_clean_linker_0, # of connection points: 2
#     Edge 51, Type (0, 0), BuildingBlock: OJICUG_clean_linker_0, # of connection points: 2
#     Edge 52, Type (0, 0), BuildingBlock: OJICUG_clean_linker_0, # of connection points: 2
#     Edge 53, Type (0, 0), BuildingBlock: OJICUG_clean_linker_0, # of connection points: 2
#     Edge 54, Type (0, 0), BuildingBlock: OJICUG_clean_linker_0, # of connection points: 2
#     Edge 55, Type (0, 0), BuildingBlock: OJICUG_clean_linker_0, # of connection points: 2
#     Edge 56, Type (0, 0), BuildingBlock: OJICUG_clean_linker_0, # of connection points: 2
#     Edge 57, Type (0, 0), BuildingBlock: OJICUG_clean_linker_0, # of connection points: 2
#     Edge 58, Type (0, 0), BuildingBlock: OJICUG_clean_linker_0, # of connection points: 2
#     Edge 59, Type (0, 0), BuildingBlock: OJICUG_clean_linker_0, # of connection points: 2
#     Edge 60, Type (0, 0), BuildingBlock: OJICUG_clean_linker_0, # of connection points: 2
#     Edge 61, Type (0, 0), BuildingBlock: OJICUG_clean_linker_0, # of connection points: 2
#     Edge 62, Type (0, 0), BuildingBlock: OJICUG_clean_linker_0, # of connection points: 2
#     Edge 63, Type (0, 0), BuildingBlock: OJICUG_clean_linker_0, # of connection points: 2
#     Edge 64, Type (0, 0), BuildingBlock: OJICUG_clean_linker_0, # of connection points: 2
#     Edge 65, Type (0, 0), BuildingBlock: OJICUG_clean_linker_0, # of connection points: 2
#     Edge 66, Type (0, 0), BuildingBlock: OJICUG_clean_linker_0, # of connection points: 2
#     Edge 67, Type (0, 0), BuildingBlock: OJICUG_clean_linker_0, # of connection points: 2
#     Edge 68, Type (0, 0), BuildingBlock: OJICUG_clean_linker_0, # of connection points: 2
#     Edge 69, Type (0, 0), BuildingBlock: OJICUG_clean_linker_0, # of connection points: 2
#     Edge 70, Type (0, 0), BuildingBlock: OJICUG_clean_linker_0, # of connection points: 2
#     Edge 71, Type (0, 0), BuildingBlock: OJICUG_clean_linker_0, # of connection points: 2
# Relax obj value: 0.436
# Max RMSD: 0.150
# Mean RMSD: 0.150
data_MOF--net-lcy-a--node1-GALJAG_clean_sbu_0--edge1-OJICUG_clean_linker_0
_symmetry_space_group_name_H-M    P1
_symmetry_Int_Tables_number       1
_symmetry_cell_setting            triclinic
loop_
_symmetry_equiv_pos_as_xyz
'x, y, z'
_cell_length_a     41.087241
_cell_length_b     41.477943
_cell_length_c     41.502082
_cell_angle_alpha  90.034694
_cell_angle_beta   89.983559
_cell_angle_gamma 90.03503
loop_
_atom_site_label
_atom_site_type_symbol
_atom_site_fract_x
_atom_site_fract_y
_atom_site_fract_z
_atom_type_partial_charge
In0 In 0.18082 0.23369 0.34155 0.0
O1 O 0.16504 0.28431 0.3556 0.0
O2 O 0.18702 0.25539 0.39176 0.0
C3 C 0.24446 0.21836 0.34436 0.0
C4 C 0.13448 0.19111 0.35994 0.0
C5 C 0.1818 0.25362 0.27956 0.0
O6 O 0.23355 0.24554 0.35257 0.0
O7 O 0.22314 0.19847 0.33509 0.0
O8 O 0.19084 0.22572 0.28771 0.0
O9 O 0.16974 0.27 0.30215 0.0
C10 C 0.17512 0.28242 0.38423 0.0
O11 O 0.12852 0.21406 0.34095 0.0
O12 O 0.16375 0.18914 0.3685 0.0
In13 In 0.91941 0.95662 0.66429 0.0
O14 O 0.92899 0.90562 0.68268 0.0
O15 O 0.95827 0.94357 0.70087 0.0
C16 C 0.86815 0.93863 0.6279 0.0
C17 C 0.88798 0.0011 0.69954 0.0
C18 C 0.96274 0.98449 0.6243 0.0
O19 O 0.89704 0.93758 0.61769 0.0
O20 O 0.86554 0.94633 0.65712 0.0
O21 O 0.95595 -0.00414 0.65171 0.0
O22 O 0.94839 0.95846 0.61745 0.0
C23 C 0.95147 0.91404 0.70155 0.0
O24 O 0.90176 0.00793 0.67321 0.0
O25 O 0.89066 0.97208 0.70823 0.0
In26 In 0.31876 0.71964 0.8243 0.0
O27 O 0.37429 0.72494 0.82829 0.0
O28 O 0.34498 0.76516 0.84012 0.0
C29 C 0.31718 0.69576 0.76372 0.0
C30 C 0.3099 0.6693 0.86457 0.0
C31 C 0.26182 0.75154 0.83162 0.0
O32 O 0.30799 0.72395 0.77049 0.0
O33 O 0.3298 0.68079 0.78698 0.0
O34 O 0.27149 0.73027 0.85105 0.0
O35 O 0.28129 0.75744 0.80888 0.0
C36 C 0.3732 0.75366 0.83807 0.0
O37 O 0.30151 0.66909 0.83535 0.0
O38 O 0.32288 0.69531 0.87397 0.0
In39 In 0.52149 -0.00043 0.13545 0.0
O40 O 0.52428 0.05037 0.15536 0.0
O41 O 0.48342 0.02198 0.1686 0.0
C42 C 0.57296 0.01848 0.10032 0.0
C43 C 0.54853 0.95628 0.17547 0.0
C44 C 0.48033 0.97083 0.09377 0.0
O45 O 0.54469 0.01649 0.08859 0.0
O46 O 0.57478 0.01253 0.13006 0.0
O47 O 0.4917 0.95666 0.11816 0.0
O48 O 0.48782 0.00025 0.09175 0.0
C49 C 0.49892 0.04797 0.1722 0.0
O50 O 0.52561 0.97464 0.18396 0.0
O51 O 0.55651 0.95845 0.14621 0.0
In52 In 0.68465 0.24087 0.65115 0.0
O53 O 0.66937 0.18979 0.63795 0.0
O54 O 0.68881 0.21933 0.6008 0.0
C55 C 0.7484 0.25509 0.64554 0.0
C56 C 0.63721 0.28158 0.63168 0.0
C57 C 0.68708 0.22577 0.7145 0.0
O58 O 0.73718 0.22709 0.64142 0.0
O59 O 0.72732 0.27628 0.65201 0.0
O60 O 0.69457 0.25336 0.70407 0.0
O61 O 0.67564 0.20709 0.69341 0.0
C62 C 0.67764 0.19212 0.60877 0.0
O63 O 0.63147 0.25772 0.64962 0.0
O64 O 0.66683 0.28573 0.62525 0.0
In65 In 0.02816 0.48613 0.83372 0.0
O66 O 0.06151 0.52887 0.82405 0.0
O67 O 0.03055 0.51308 0.78617 0.0
C68 C 0.98572 0.51182 0.87627 0.0
C69 C 0.00774 0.43768 0.7957 0.0
C70 C 0.07989 0.46745 0.8686 0.0
O71 O -0.00358 0.52719 0.85228 0.0
O72 O -0.00517 0.48284 0.87764 0.0
O73 O 0.05131 0.46711 0.87976 0.0
O74 O 0.08205 0.47596 0.83952 0.0
C75 C 0.05295 0.53192 0.79504 0.0
O76 O 0.03412 0.43683 0.81103 0.0
O77 O 0.99044 0.46218 0.80111 0.0
In78 In 0.81383 0.76287 0.15142 0.0
O79 O 0.86924 0.75681 0.14646 0.0
O80 O 0.83897 0.71726 0.13447 0.0
C81 C 0.81409 0.78986 0.21073 0.0
C82 C 0.80075 0.81279 0.11186 0.0
C83 C 0.75934 0.72711 0.14512 0.0
O84 O 0.80611 0.7609 0.20595 0.0
O85 O 0.82507 0.80397 0.18616 0.0
O86 O 0.76953 0.74569 0.12326 0.0
O87 O 0.77714 0.72591 0.16987 0.0
C88 C 0.86742 0.72827 0.13616 0.0
O89 O 0.78573 0.80756 0.13781 0.0
O90 O 0.8224 0.79223 0.10507 0.0
In91 In 0.43662 0.51825 0.32317 0.0
O92 O 0.44235 0.56972 0.30435 0.0
O93 O 0.4768 0.53466 0.28945 0.0
C94 C 0.38343 0.53449 0.35764 0.0
C95 C 0.40826 0.47459 0.28457 0.0
C96 C 0.47915 0.48933 0.36331 0.0
O97 O 0.4119 0.53729 0.3687 0.0
O98 O 0.38219 0.52614 0.32851 0.0
O99 O 0.47233 0.47831 0.33578 0.0
O100 O 0.4656 0.51578 0.37005 0.0
C101 C 0.46665 0.56315 0.28696 0.0
O102 O 0.4147 0.46858 0.3137 0.0
O103 O 0.41688 0.50214 0.27497 0.0
In104 In 0.44075 0.19294 0.29739 0.0
O105 O 0.47948 0.22501 0.32002 0.0
O106 O 0.45921 0.18785 0.34901 0.0
C107 C 0.42703 0.22453 0.24239 0.0
C108 C 0.46778 0.14115 0.26988 0.0
C109 C 0.38083 0.19794 0.32273 0.0
O110 O 0.44615 0.23606 0.26331 0.0
O111 O 0.41515 0.19745 0.2494 0.0
O112 O 0.39349 0.17096 0.31616 0.0
O113 O 0.39875 0.22205 0.31731 0.0
C114 C 0.47826 0.21167 0.34733 0.0
O115 O 0.44206 0.13933 0.28641 0.0
O116 O 0.48128 0.16846 0.26985 0.0
In117 In -0.00073 0.12525 0.49265 0.0
O118 O 0.98742 0.17758 0.50471 0.0
O119 O 0.02535 0.15469 0.53097 0.0
C120 C 0.9347 0.11559 0.48559 0.0
C121 C 0.0383 0.13414 0.44094 0.0
C122 C 0.00834 0.0729 0.53018 0.0
O123 O 0.94676 0.13271 0.50765 0.0
O124 O 0.95522 0.10406 0.46607 0.0
O125 O -0.0012 0.07068 0.50134 0.0
O126 O 0.0152 0.10113 0.53907 0.0
C127 C 0.0082 0.17961 0.52705 0.0
O128 O 0.04631 0.11678 0.46454 0.0
O129 O 0.01028 0.14622 0.44302 0.0
In130 In 0.06621 0.77783 0.79518 0.0
O131 O 0.04998 0.83032 0.79146 0.0
O132 O 0.01872 0.79347 0.77349 0.0
C133 C 0.12739 0.78148 0.81806 0.0
C134 C 0.03827 0.74881 0.84582 0.0
C135 C 0.0789 0.75141 0.73723 0.0
O136 O 0.1142 0.80509 0.80389 0.0
O137 O 0.10957 0.75697 0.82109 0.0
O138 O 0.09237 0.77688 0.74701 0.0
O139 O 0.05909 0.73893 0.75687 0.0
C140 C 0.02382 0.8232 0.77704 0.0
O141 O 0.04508 0.7342 0.81995 0.0
O142 O 0.04452 0.77869 0.84582 0.0
In143 In 0.51114 0.8397 0.95708 0.0
O144 O 0.50615 0.79143 0.98396 0.0
O145 O 0.52924 0.83068 0.00776 0.0
C146 C 0.57085 0.85832 0.93614 0.0
C147 C 0.47474 0.81645 0.90808 0.0
C148 C 0.47844 0.88595 0.98928 0.0
O149 O 0.56576 0.83175 0.94994 0.0
O150 O 0.54556 0.8748 0.9314 0.0
O151 O 0.50061 0.89228 0.96917 0.0
O152 O 0.47161 0.85641 -0.00822 0.0
C153 C 0.51945 0.80191 0.00935 0.0
O154 O 0.46933 0.84316 0.92144 0.0
O155 O 0.49914 0.80159 0.91887 0.0
In156 In 0.9469 0.28516 0.68188 0.0
O157 O 0.94631 0.33919 0.69041 0.0
O158 O 0.98854 0.313 0.70424 0.0
C159 C 0.88551 0.27747 0.6608 0.0
C160 C 0.98179 0.26489 0.63075 0.0
C161 C 0.93856 0.25507 0.73881 0.0
O162 O 0.89813 0.30501 0.66454 0.0
O163 O 0.90411 0.25409 0.66696 0.0
O164 O 0.95536 0.24295 0.71635 0.0
O165 O 0.92641 0.28218 0.73246 0.0
C166 C 0.97366 0.33958 0.7042 0.0
O167 O 0.98578 0.25373 0.65875 0.0
O168 O 0.9613 0.28746 0.62885 0.0
In169 In 0.00342 0.64128 0.01481 0.0
O170 O 0.96136 0.63797 0.05038 0.0
O171 O 0.99131 0.67949 0.05277 0.0
C172 C 0.97303 0.59344 0.98281 0.0
C173 C 0.01138 0.67813 0.96197 0.0
C174 C 0.06411 0.62556 0.03464 0.0
O175 O -0.00509 0.58818 0.00354 0.0
O176 O 0.96488 0.62265 0.9801 0.0
O177 O 0.05756 0.65162 0.02054 0.0
O178 O 0.03965 0.6082 0.04062 0.0
C179 C 0.96687 0.66472 0.06365 0.0
O180 O 0.02115 0.64943 0.96404 0.0
O181 O -0.00216 0.68901 0.98709 0.0
In182 In 0.56448 0.70024 0.17793 0.0
O183 O 0.54556 0.74438 0.15244 0.0
O184 O 0.54224 0.69967 0.12726 0.0
C185 C 0.57724 0.73117 0.23365 0.0
C186 C 0.5245 0.65381 0.19931 0.0
C187 C 0.62589 0.69339 0.15593 0.0
O188 O 0.5553 0.74048 0.21454 0.0
O189 O 0.59282 0.70677 0.22436 0.0
O190 O 0.6131 0.673 0.17466 0.0
O191 O 0.60744 0.71615 0.14773 0.0
C192 C 0.53803 0.72992 0.1267 0.0
O193 O 0.54972 0.64742 0.18308 0.0
O194 O 0.51836 0.68339 0.20224 0.0
In195 In 0.50494 0.34319 0.492 0.0
O196 O 0.52901 0.31537 0.45121 0.0
O197 O 0.49204 0.29149 0.4779 0.0
C198 C 0.4405 0.35407 0.49896 0.0
C199 C 0.54314 0.33248 0.54409 0.0
C200 C 0.51652 0.39674 0.45679 0.0
O201 O 0.45236 0.33755 0.47636 0.0
O202 O 0.46114 0.3645 0.51896 0.0
O203 O 0.5041 0.39794 0.4846 0.0
O204 O 0.52474 0.36889 0.44782 0.0
C205 C 0.51167 0.29047 0.45449 0.0
O206 O 0.55135 0.35093 0.52141 0.0
O207 O 0.51557 0.31969 0.54069 0.0
In208 In 0.3085 0.34837 0.16003 0.0
O209 O 0.32293 0.36318 0.21121 0.0
O210 O 0.33422 0.39471 0.17228 0.0
C211 C 0.25532 0.31948 0.18505 0.0
C212 C 0.29147 0.38422 0.10898 0.0
C213 C 0.35825 0.30603 0.15844 0.0
O214 O 0.26554 0.34659 0.19442 0.0
O215 O 0.27147 0.30708 0.16232 0.0
O216 O 0.32935 0.29784 0.15216 0.0
O217 O 0.36219 0.33584 0.16229 0.0
C218 C 0.33576 0.38937 0.20213 0.0
O219 O 0.31137 0.36122 0.10599 0.0
O220 O 0.27858 0.38665 0.13633 0.0
In221 In 0.81988 0.13719 0.83014 0.0
O222 O 0.83443 0.12463 0.77879 0.0
O223 O 0.81596 0.08709 0.80855 0.0
C224 C 0.76504 0.16725 0.8101 0.0
C225 C 0.81765 0.10626 0.8873 0.0
C226 C 0.87281 0.17542 0.82633 0.0
O227 O 0.76889 0.13714 0.80834 0.0
O228 O 0.78831 0.18211 0.82327 0.0
O229 O 0.84629 0.18517 0.83823 0.0
O230 O 0.87303 0.146 0.81898 0.0
C231 C 0.82816 0.095 0.78178 0.0
O232 O 0.79711 0.12752 0.87972 0.0
O233 O 0.84027 0.10266 0.86729 0.0
In234 In 0.23036 0.52705 0.98406 0.0
O235 O 0.24806 0.54577 0.9361 0.0
O236 O 0.26845 0.56727 0.97799 0.0
C237 C 0.18776 0.4918 0.94958 0.0
C238 C 0.26679 0.48609 0.01916 0.0
C239 C 0.18644 0.56505 0.01442 0.0
O240 O 0.21487 0.50063 0.93837 0.0
O241 O 0.18248 0.5003 0.97824 0.0
O242 O 0.19263 0.53668 0.02337 0.0
O243 O 0.2031 0.57461 -0.00925 0.0
C244 C 0.2669 0.56683 0.94756 0.0
O245 O 0.25908 0.51384 0.02885 0.0
O246 O 0.2582 0.47988 -0.00924 0.0
In247 In 0.66999 0.87241 0.31585 0.0
O248 O 0.6574 0.882 0.26299 0.0
O249 O 0.62711 0.90213 0.29938 0.0
C250 C 0.72946 0.85438 0.29565 0.0
C251 C 0.68009 0.91426 0.36418 0.0
C252 C 0.63316 0.81886 0.32024 0.0
O253 O 0.71377 0.87714 0.28265 0.0
O254 O 0.71556 0.84147 0.31955 0.0
O255 O 0.66375 0.81804 0.31853 0.0
O256 O 0.62151 0.84676 0.32325 0.0
C257 C 0.63227 0.8982 0.26971 0.0
O258 O 0.66994 0.886 0.36936 0.0
O259 O 0.68593 0.92062 0.33514 0.0
In260 In 0.25677 0.43905 0.47583 0.0
O261 O 0.2398 0.45122 0.52641 0.0
O262 O 0.22146 0.4794 0.48769 0.0
C263 C 0.31092 0.40485 0.48895 0.0
C264 C 0.21522 0.39375 0.45406 0.0
C265 C 0.28708 0.48388 0.43984 0.0
O266 O 0.2977 0.42299 0.5096 0.0
O267 O 0.2965 0.40365 0.46214 0.0
O268 O 0.26555 0.46539 0.42836 0.0
O269 O 0.29291 0.47988 0.46938 0.0
C270 C 0.22263 0.47485 0.51767 0.0
O271 O 0.22218 0.41872 0.4381 0.0
O272 O 0.2282 0.39231 0.48155 0.0
In273 In 0.17445 0.61603 0.65508 0.0
O274 O 0.17768 0.59988 0.60224 0.0
O275 O 0.18959 0.56648 0.63916 0.0
C276 C 0.13811 0.66954 0.64813 0.0
C277 C 0.13505 0.59266 0.70124 0.0
C278 C 0.23357 0.63405 0.67601 0.0
O279 O 0.16837 0.67038 0.65288 0.0
O280 O 0.12696 0.6417 0.64305 0.0
O281 O 0.21744 0.61159 0.68903 0.0
O282 O 0.22023 0.64684 0.65172 0.0
C283 C 0.18634 0.57159 0.6095 0.0
O284 O 0.16107 0.60743 0.70793 0.0
O285 O 0.12966 0.58905 0.67158 0.0
In286 In 0.73012 0.95971 -0.00864 0.0
O287 O 0.73757 0.93582 0.03954 0.0
O288 O 0.77041 0.92277 0.00213 0.0
C289 C 0.68381 -0.00797 0.02355 0.0
C290 C 0.77047 0.00487 0.96679 0.0
C291 C 0.69151 0.92201 0.95401 0.0
O292 O 0.68077 0.98414 -0.00566 0.0
O293 O 0.71034 0.98372 0.03646 0.0
O294 O 0.69541 0.95171 0.94867 0.0
O295 O 0.70856 0.9112 0.97676 0.0
C296 C 0.76126 0.91856 0.03093 0.0
O297 O 0.76805 0.97712 0.95453 0.0
O298 O 0.75355 0.00917 -0.00841 0.0
In299 In 0.74783 0.03612 0.50785 0.0
O300 O 0.73006 0.02884 0.45664 0.0
O301 O 0.71192 -0.00269 0.49274 0.0
C302 C 0.80375 0.06796 0.49561 0.0
C303 C 0.70884 0.08195 0.5328 0.0
C304 C 0.77515 0.98893 0.54309 0.0
O305 O 0.7902 0.05013 0.47492 0.0
O306 O 0.78885 0.07 0.52211 0.0
O307 O 0.7534 0.0073 0.55426 0.0
O308 O 0.78268 -0.00582 0.51412 0.0
C309 C 0.71285 0.00457 0.4633 0.0
O310 O 0.71471 0.05578 0.54713 0.0
O311 O 0.72143 0.08433 0.50518 0.0
C312 C 0.0524 0.1659 0.39172 0.0
C313 C 0.06147 0.14344 0.41543 0.0
H314 H 0.0686 0.19845 0.355 0.0
C315 C 0.09395 0.13308 0.41695 0.0
H316 H 0.02747 0.17415 0.38985 0.0
C317 C 0.11745 0.147 0.39704 0.0
C318 C 0.10885 0.17144 0.37521 0.0
H319 H 0.1016 0.11562 0.43481 0.0
H320 H 0.14263 0.1399 0.40006 0.0
C321 C 0.07593 0.17977 0.37172 0.0
C322 C 0.99453 0.90187 0.74213 0.0
C323 C 0.96844 0.89133 0.7229 0.0
H324 H 0.03245 0.88846 0.77489 0.0
C325 C 0.9589 0.85891 0.72407 0.0
H326 H 0.00218 0.92686 0.74188 0.0
C327 C 0.97596 0.83709 0.74316 0.0
C328 C 0.00295 0.8473 0.76131 0.0
H329 H 0.93865 0.85024 0.70976 0.0
H330 H 0.96866 0.81199 0.74282 0.0
C331 C 0.0117 0.87999 0.76118 0.0
C332 C 0.39879 0.80377 0.85909 0.0
C333 C 0.40183 0.77124 0.85024 0.0
H334 H 0.41985 0.84375 0.88396 0.0
C335 C 0.43108 0.75497 0.85669 0.0
H336 H 0.3766 0.81698 0.85416 0.0
C337 C 0.45589 0.77031 0.87395 0.0
C338 C 0.4518 0.80214 0.88482 0.0
H339 H 0.43406 0.72988 0.85005 0.0
H340 H 0.4775 0.75673 0.88018 0.0
C341 C 0.42357 0.8191 0.87615 0.0
C342 C 0.46455 0.06637 0.2183 0.0
C343 C 0.49065 0.07181 0.19714 0.0
H344 H 0.4373 0.08379 0.25867 0.0
C345 C 0.51049 0.09901 0.20161 0.0
H346 H 0.44916 0.04533 0.21566 0.0
C347 C 0.50403 0.12072 0.22643 0.0
C348 C 0.47758 0.11564 0.24724 0.0
H349 H 0.53105 0.10358 0.1859 0.0
H350 H 0.5193 0.14189 0.22881 0.0
C351 C 0.45808 0.08811 0.24318 0.0
C352 C 0.57906 0.2886 0.61545 0.0
C353 C 0.61144 0.29944 0.61454 0.0
H354 H 0.53183 0.29073 0.59373 0.0
C355 C 0.61989 0.3244 0.59324 0.0
H356 H 0.57185 0.2694 0.63164 0.0
C357 C 0.59706 0.33653 0.57151 0.0
C358 C 0.56537 0.32389 0.57067 0.0
H359 H 0.64464 0.33335 0.5921 0.0
H360 H 0.60472 0.35463 0.55429 0.0
C361 C 0.5562 0.30072 0.59365 0.0
C362 C 0.01317 0.3644 0.74222 0.0
C363 C 0.9843 0.36681 0.72431 0.0
H364 H 0.0429 0.38473 0.77926 0.0
C365 C 0.96357 0.39326 0.72935 0.0
H366 H 0.0295 0.34417 0.73897 0.0
C367 C 0.97104 0.41632 0.75273 0.0
C368 C -0.00062 0.41327 0.77136 0.0
H369 H 0.94102 0.39558 0.71603 0.0
H370 H 0.95449 0.43629 0.75644 0.0
C371 C 0.02063 0.38742 0.76554 0.0
C372 C 0.92498 0.72615 0.11658 0.0
C373 C 0.89545 0.71038 0.12308 0.0
H374 H 0.9711 0.72387 0.09254 0.0
C375 C 0.89149 0.67815 0.11346 0.0
H376 H 0.92866 0.75099 0.12377 0.0
C377 C 0.91569 0.66265 0.09573 0.0
C378 C 0.94425 0.67915 0.08717 0.0
H379 H 0.86905 0.66532 0.11836 0.0
H380 H 0.91131 0.63828 0.08742 0.0
C381 C 0.9492 0.71065 0.09867 0.0
C382 C 0.5191 0.59785 0.22069 0.0
C383 C 0.50711 0.62944 0.21854 0.0
H384 H 0.51597 0.55224 0.2445 0.0
C385 C 0.48102 0.6388 0.23838 0.0
H386 H 0.53935 0.59006 0.20589 0.0
C387 C 0.46787 0.61728 0.26071 0.0
C388 C 0.4806 0.58605 0.26362 0.0
H389 H 0.47138 0.66307 0.23736 0.0
H390 H 0.44802 0.62525 0.27595 0.0
C391 C 0.50598 0.57634 0.24307 0.0
C392 C 0.29162 0.40466 0.05197 0.0
C393 C 0.2876 0.41004 0.08509 0.0
H394 H 0.28807 0.42505 0.00454 0.0
C395 C 0.28051 0.44124 0.09619 0.0
H396 H 0.29755 0.38085 0.04298 0.0
C397 C 0.27625 0.46645 0.07461 0.0
C398 C 0.27824 0.4609 0.04137 0.0
H399 H 0.27806 0.4462 0.12171 0.0
H400 H 0.26981 0.48998 0.08402 0.0
C401 C 0.28652 0.42993 0.03013 0.0
C402 C 0.77738 0.06354 0.95651 0.0
C403 C 0.78763 0.03166 0.95097 0.0
H404 H 0.7789 0.11259 0.94029 0.0
C405 C 0.81168 0.02563 0.92782 0.0
H406 H 0.75883 0.06881 0.97429 0.0
C407 C 0.82384 0.05085 0.90909 0.0
C408 C 0.8114 0.08226 0.91264 0.0
H409 H 0.82006 0.00129 0.92328 0.0
H410 H 0.84115 0.04525 0.8902 0.0
C411 C 0.78886 0.08861 0.93716 0.0
C412 C 0.69604 0.96933 0.38164 0.0
C413 C 0.6851 0.93829 0.38974 0.0
H414 H 0.71283 0.01498 0.39874 0.0
C415 C 0.67976 0.93049 0.4222 0.0
H416 H 0.69997 0.97614 0.35674 0.0
C417 C 0.6869 0.95292 0.44629 0.0
C418 C 0.69952 0.98336 0.43819 0.0
H419 H 0.67101 0.90682 0.42901 0.0
H420 H 0.68389 0.9459 0.47126 0.0
C421 C 0.7032 -0.00833 0.40565 0.0
C422 C 0.18904 0.55193 0.55256 0.0
C423 C 0.19265 0.54612 0.58565 0.0
H424 H 0.19525 0.53337 0.5048 0.0
C425 C 0.20307 0.51563 0.59615 0.0
H426 H 0.18077 0.57514 0.54389 0.0
C427 C 0.21125 0.49182 0.57395 0.0
C428 C 0.20903 0.49802 0.54083 0.0
H429 H 0.20576 0.51036 0.62158 0.0
H430 H 0.22031 0.46893 0.58273 0.0
C431 C 0.19711 0.52797 0.53027 0.0
C432 C 0.20012 0.33546 0.4537 0.0
C433 C 0.19795 0.36615 0.43954 0.0
H434 H 0.19438 0.28454 0.44715 0.0
C435 C 0.1832 0.36928 0.4092 0.0
H436 H 0.21132 0.33234 0.47712 0.0
C437 C 0.1732 0.34196 0.39221 0.0
C438 C 0.17816 0.31104 0.40512 0.0
H439 H 0.18103 0.39268 0.39782 0.0
H440 H 0.16363 0.34499 0.36808 0.0
C441 C 0.19047 0.30808 0.43654 0.0
C442 C 0.85233 0.01519 0.74597 0.0
C443 C 0.86995 0.02501 0.71869 0.0
H444 H 0.82455 0.02976 0.78702 0.0
C445 C 0.8707 0.0578 0.71039 0.0
H446 H 0.85104 0.99 0.7527 0.0
C447 C 0.85547 0.08061 0.73003 0.0
C448 C 0.83913 0.0709 0.75814 0.0
H449 H 0.8839 0.06596 0.68931 0.0
H450 H 0.85755 0.10589 0.72385 0.0
C451 C 0.83696 0.03794 0.76547 0.0
C452 C 0.2893 0.61358 0.87305 0.0
C453 C 0.30286 0.6418 0.88605 0.0
H454 H 0.26785 0.56765 0.88232 0.0
C455 C 0.30764 0.6439 0.91953 0.0
H456 H 0.28554 0.61111 0.84733 0.0
C457 C 0.29746 0.61876 0.93975 0.0
C458 C 0.28242 0.59123 0.92671 0.0
H459 H 0.31814 0.66536 0.93017 0.0
H460 H 0.30017 0.62144 0.96557 0.0
C461 C 0.27923 0.5886 0.89313 0.0
C462 C 0.59603 0.92131 0.18922 0.0
C463 C 0.56778 0.93776 0.19894 0.0
H464 H 0.63889 0.89593 0.20416 0.0
C465 C 0.56013 0.93954 0.23184 0.0
H466 H 0.60257 0.91969 0.16398 0.0
C467 C 0.58101 0.9263 0.25471 0.0
C468 C 0.60988 0.91093 0.24514 0.0
H469 H 0.53856 0.95212 0.24002 0.0
H470 H 0.57475 0.92863 0.27997 0.0
C471 C 0.61692 0.90793 0.21218 0.0
C472 C 0.68889 0.1677 0.55491 0.0
C473 C 0.67871 0.16404 0.58701 0.0
H474 H 0.70582 0.14425 0.51215 0.0
C475 C 0.67343 0.13289 0.5992 0.0
H476 H 0.69291 0.19145 0.54482 0.0
C477 C 0.68099 0.10587 0.58057 0.0
C478 C 0.69368 0.10958 0.54937 0.0
H479 H 0.66541 0.12934 0.62381 0.0
H480 H 0.67863 0.08216 0.59127 0.0
C481 C 0.69618 0.14067 0.53618 0.0
C482 C 0.12026 0.58206 0.75876 0.0
C483 C 0.11251 0.58025 0.72588 0.0
H484 H 0.10699 0.56845 0.80677 0.0
C485 C 0.08317 0.56565 0.71642 0.0
H486 H 0.14259 0.59345 0.7667 0.0
C487 C 0.06273 0.55162 0.73926 0.0
C488 C 0.07128 0.55188 0.77198 0.0
H489 H 0.07637 0.56427 0.69124 0.0
H490 H 0.0409 0.53944 0.7311 0.0
C491 C 0.09979 0.56794 0.78167 0.0
C492 C 0.79739 0.87068 0.04108 0.0
C493 C 0.7744 0.89319 0.05219 0.0
H494 H 0.82394 0.82725 0.05137 0.0
C495 C 0.76167 0.88982 0.0834 0.0
H496 H 0.80752 0.87267 0.01705 0.0
C497 C 0.77077 0.86394 0.10272 0.0
C498 C 0.79294 0.84083 0.0914 0.0
H499 H 0.74394 0.90676 0.09271 0.0
H500 H 0.75997 0.86183 0.12645 0.0
C501 C 0.80668 0.84468 0.06061 0.0
C502 C 0.35939 0.40271 0.25611 0.0
C503 C 0.35337 0.41121 0.22391 0.0
H504 H 0.382 0.41614 0.3007 0.0
C505 C 0.36569 0.4404 0.21192 0.0
H506 H 0.35028 0.38023 0.26585 0.0
C507 C 0.38382 0.46073 0.23165 0.0
C508 C 0.39006 0.45225 0.26377 0.0
H509 H 0.36146 0.44756 0.18716 0.0
H510 H 0.3929 0.48313 0.22169 0.0
C511 C 0.37768 0.42311 0.27591 0.0
C512 C 0.52423 0.27076 0.39908 0.0
C513 C 0.50979 0.26536 0.42931 0.0
H514 H 0.52555 0.25773 0.34917 0.0
C515 C 0.48939 0.23847 0.43335 0.0
H516 H 0.54015 0.29124 0.39524 0.0
C517 C 0.48135 0.21902 0.40698 0.0
C518 C 0.49324 0.22645 0.37611 0.0
H519 H 0.47804 0.23364 0.45641 0.0
H520 H 0.46392 0.19971 0.41038 0.0
C521 C 0.51584 0.25161 0.37265 0.0
C522 C 0.02467 0.20292 0.57998 0.0
C523 C 0.00811 0.20632 0.55056 0.0
H524 H 0.0294 0.21922 0.62871 0.0
C525 C 0.9875 0.23294 0.5461 0.0
H526 H 0.04086 0.18273 0.58407 0.0
C527 C 0.98121 0.25406 0.57161 0.0
C528 C -0.00484 0.24863 0.60203 0.0
H529 H 0.9746 0.23627 0.52359 0.0
H530 H 0.96352 0.2731 0.56814 0.0
C531 C 0.0181 0.22381 0.60558 0.0
C532 C 0.01346 0.73058 0.93188 0.0
C533 C 0.01535 0.69678 0.93204 0.0
H534 H 0.01942 0.77387 0.90415 0.0
C535 C 0.02217 0.68041 0.90321 0.0
H536 H 0.00813 0.74371 0.95382 0.0
C537 C 0.02805 0.69746 0.87492 0.0
C538 C 0.02768 0.73129 0.87491 0.0
H539 H 0.0234 0.65432 0.90256 0.0
H540 H 0.034 0.68406 0.8533 0.0
C541 C 0.01985 0.74776 0.90351 0.0
C542 C 0.52201 0.73188 0.06821 0.0
C543 C 0.52977 0.7479 0.09708 0.0
H544 H 0.51239 0.73651 0.01751 0.0
C545 C 0.5327 0.78164 0.09691 0.0
H546 H 0.51972 0.70587 0.06764 0.0
C547 C 0.52918 0.79892 0.06836 0.0
C548 C 0.52219 0.78298 0.03934 0.0
H549 H 0.53876 0.79473 0.11869 0.0
H550 H 0.53216 0.82487 0.06904 0.0
C551 C 0.51798 0.74935 0.03956 0.0
C552 C 0.18972 0.30255 0.2458 0.0
C553 C 0.19248 0.26894 0.24919 0.0
H554 H 0.20779 0.34503 0.22263 0.0
C555 C 0.21133 0.25166 0.2268 0.0
H556 H 0.17526 0.31656 0.26255 0.0
C557 C 0.2297 0.26806 0.20358 0.0
C558 C 0.22976 0.30193 0.20279 0.0
H559 H 0.21388 0.22574 0.22879 0.0
H560 H 0.24589 0.25438 0.18816 0.0
C561 C 0.20846 0.31891 0.22302 0.0
C562 C 0.78706 0.96433 0.59658 0.0
C563 C 0.79408 0.96686 0.56359 0.0
H564 H 0.80513 0.95201 0.64323 0.0
C565 C 0.82233 0.95219 0.5514 0.0
H566 H 0.76517 0.97496 0.60652 0.0
C567 C 0.84526 0.93904 0.57241 0.0
C568 C 0.84014 0.94036 0.60583 0.0
H569 H 0.8281 0.95333 0.52595 0.0
H570 H 0.86822 0.93066 0.56267 0.0
C571 C 0.8099 0.95101 0.61757 0.0
C572 C 0.26956 0.68091 0.68807 0.0
C573 C 0.26254 0.64795 0.69167 0.0
H574 H 0.29311 0.72229 0.70842 0.0
C575 C 0.27982 0.6299 0.71455 0.0
H576 H 0.2566 0.69536 0.67053 0.0
C577 C 0.3013 0.64517 0.73571 0.0
C578 C 0.30512 0.67884 0.73481 0.0
H579 H 0.27504 0.60439 0.71758 0.0
H580 H 0.31227 0.63101 0.75475 0.0
C581 C 0.2905 0.69632 0.70971 0.0
C582 C 0.59939 0.01867 0.04633 0.0
C583 C 0.60221 0.02051 0.08 0.0
H584 H 0.62342 0.00821 0.00182 0.0
C585 C 0.63316 0.01842 0.09421 0.0
H586 H 0.57583 0.02034 0.03474 0.0
C587 C 0.66035 0.01137 0.07539 0.0
C588 C 0.65696 0.00633 0.04212 0.0
H589 H 0.63605 0.01998 0.12011 0.0
H590 H 0.68359 0.00787 0.08721 0.0
C591 C 0.6266 0.01158 0.02751 0.0
C592 C 0.7204 0.23212 0.7645 0.0
C593 C 0.69902 0.21343 0.74577 0.0
H594 H 0.75809 0.23203 0.80014 0.0
C595 C 0.69489 0.18067 0.75341 0.0
H596 H 0.72404 0.25745 0.75926 0.0
C597 C 0.71454 0.16607 0.77668 0.0
C598 C 0.73853 0.18402 0.7928 0.0
H599 H 0.67845 0.16566 0.73957 0.0
H600 H 0.71257 0.14027 0.78025 0.0
C601 C 0.74 0.21751 0.78788 0.0
C602 C 0.13173 0.46995 0.94288 0.0
C603 C 0.16224 0.47722 0.92944 0.0
H604 H 0.08141 0.4604 0.93382 0.0
C605 C 0.16656 0.47476 0.89599 0.0
H606 H 0.12784 0.47131 0.96866 0.0
C607 C 0.13997 0.46854 0.87604 0.0
C608 C 0.10877 0.46461 0.88932 0.0
H609 H 0.18993 0.47993 0.88504 0.0
H610 H 0.14347 0.46912 0.85017 0.0
C611 C 0.10517 0.46361 0.92294 0.0
C612 C 0.77548 0.85745 0.25657 0.0
C613 C 0.75861 0.84026 0.28041 0.0
H614 H 0.80787 0.85493 0.21636 0.0
C615 C 0.76638 0.8077 0.2857 0.0
H616 H 0.77017 0.88266 0.25221 0.0
C617 C 0.78766 0.79163 0.26486 0.0
C618 C 0.80185 0.80806 0.23882 0.0
H619 H 0.75382 0.79389 0.30404 0.0
H620 H 0.79084 0.76584 0.26755 0.0
C621 C 0.79724 0.84156 0.23615 0.0
C622 C 0.30169 0.50693 0.38623 0.0
C623 C 0.30724 0.50513 0.41953 0.0
H624 H 0.32148 0.51899 0.34018 0.0
C625 C 0.33488 0.52023 0.4326 0.0
H626 H 0.28033 0.49592 0.37558 0.0
C627 C 0.3585 0.53346 0.41234 0.0
C628 C 0.35471 0.53181 0.37876 0.0
H629 H 0.33955 0.51961 0.45828 0.0
H630 H 0.38089 0.54237 0.42287 0.0
C631 C 0.3252 0.52033 0.36598 0.0
C632 C 0.29119 0.18104 0.33396 0.0
C633 C 0.27966 0.21162 0.34298 0.0
H634 H 0.33267 0.15252 0.32094 0.0
C635 C 0.30206 0.23661 0.34844 0.0
H636 H 0.27444 0.16132 0.32973 0.0
C637 C 0.33521 0.23167 0.3432 0.0
C638 C 0.34662 0.20155 0.33274 0.0
H639 H 0.2939 0.26042 0.35553 0.0
H640 H 0.35177 0.25175 0.34639 0.0
C641 C 0.32448 0.17599 0.32904 0.0
C642 C 0.97975 -0.00487 0.56747 0.0
C643 C 0.98175 0.00288 0.60038 0.0
H644 H 0.98706 0.01138 0.519 0.0
C645 C -0.00173 0.03098 0.60974 0.0
H646 H 0.96726 0.97351 0.55958 0.0
C647 C 0.0099 0.05245 0.58655 0.0
C648 C 0.00488 0.04635 0.55361 0.0
H649 H 0.00047 0.03737 0.63496 0.0
H650 H 0.02063 0.07494 0.59455 0.0
C651 C 0.99113 0.01678 0.54422 0.0
C652 C 0.20546 0.75103 0.8536 0.0
C653 C 0.22852 0.76483 0.83279 0.0
H654 H 0.155 0.74581 0.86519 0.0
C655 C 0.21842 0.78841 0.81061 0.0
H656 H 0.21252 0.73292 0.87105 0.0
C657 C 0.1854 0.79623 0.80769 0.0
C658 C 0.16213 0.78016 0.82654 0.0
H659 H 0.23574 0.79953 0.79438 0.0
H660 H 0.17791 0.81296 0.78908 0.0
C661 C 0.17253 0.75841 0.85029 0.0
C662 C 0.45779 0.92042 0.07004 0.0
C663 C 0.46799 0.95246 0.06593 0.0
H664 H 0.45205 0.87408 0.04818 0.0
C665 C 0.47383 0.96402 0.03462 0.0
H666 H 0.45301 0.91098 0.09391 0.0
C667 C 0.47402 0.94274 0.00851 0.0
C668 C 0.46761 0.90985 0.0133 0.0
H669 H 0.48174 0.98864 0.03074 0.0
H670 H 0.48183 0.9515 0.98516 0.0
C671 C 0.45725 0.89932 0.04381 0.0
C672 C 0.80585 0.23615 0.64268 0.0
C673 C 0.78366 0.26173 0.6455 0.0
H674 H 0.85557 0.22117 0.64522 0.0
C675 C 0.7955 0.29312 0.65047 0.0
H676 H 0.79745 0.2117 0.63874 0.0
C677 C 0.82891 0.29859 0.65393 0.0
C678 C 0.85091 0.2727 0.65275 0.0
H679 H 0.77891 0.3133 0.65263 0.0
H680 H 0.83735 0.32285 0.65881 0.0
C681 C 0.83914 0.24156 0.6464 0.0
C682 C 0.95869 0.55981 0.90044 0.0
C683 C 0.97131 0.52861 0.90415 0.0
H684 H 0.94804 0.6048 0.92323 0.0
C685 C 0.97671 0.51661 0.93536 0.0
H686 H 0.95416 0.56954 0.87664 0.0
C687 C 0.97385 0.537 0.96205 0.0
C688 C 0.96488 0.56938 0.95788 0.0
H689 H 0.98643 0.4926 0.93893 0.0
H690 H 0.98134 0.5282 0.98547 0.0
C691 C 0.95512 0.57995 0.92719 0.0
C692 C 0.67196 0.7127 0.12239 0.0
C693 C 0.66093 0.69447 0.14869 0.0
H694 H 0.71217 0.73672 0.10022 0.0
C695 C 0.6836 0.68252 0.17098 0.0
H696 H 0.65491 0.72209 0.10482 0.0
C697 C 0.71638 0.69138 0.16869 0.0
C698 C 0.72691 0.71187 0.14381 0.0
H699 H 0.67564 0.66855 0.19158 0.0
H700 H 0.73305 0.68375 0.18741 0.0
C701 C 0.70473 0.7211 0.11979 0.0
C702 C 0.49281 0.4766 0.42055 0.0
C703 C 0.49654 0.46987 0.38756 0.0
H704 H 0.4965 0.45849 0.46876 0.0
C705 C 0.51262 0.44152 0.37821 0.0
H706 H 0.48055 0.49834 0.42844 0.0
C707 C 0.52206 0.41891 0.40129 0.0
C708 C 0.51521 0.42409 0.43406 0.0
H709 H 0.51605 0.43586 0.35296 0.0
H710 H 0.53247 0.39633 0.39316 0.0
C711 C 0.50192 0.45379 0.44365 0.0
C712 C 0.39089 0.23018 0.19454 0.0
C713 C 0.41576 0.24284 0.21409 0.0
H714 H 0.3533 0.24047 0.16042 0.0
C715 C 0.4265 0.27449 0.20883 0.0
H716 H 0.38248 0.20563 0.19769 0.0
C717 C 0.41007 0.29432 0.18707 0.0
C718 C 0.38246 0.28282 0.17061 0.0
H719 H 0.44597 0.28468 0.2232 0.0
H720 H 0.41712 0.31945 0.18553 0.0
C721 C 0.3743 0.25006 0.17297 0.0
C722 C 0.92289 0.18517 0.79414 0.0
C723 C 0.89736 0.19764 0.813 0.0
H724 H 0.95625 0.19389 0.7555 0.0
C725 C 0.89107 0.23087 0.81224 0.0
H726 H 0.92853 0.15966 0.79449 0.0
C727 C 0.90696 0.25045 0.78985 0.0
C728 C 0.92931 0.23702 0.76799 0.0
H729 H 0.87173 0.2412 0.82667 0.0
H730 H 0.89969 0.27548 0.78792 0.0
C731 C 0.93869 0.20473 0.77168 0.0
C732 C 0.10388 0.58259 0.04982 0.0
C733 C 0.09779 0.61345 0.03727 0.0
H734 H 0.13731 0.54312 0.05283 0.0
C735 C 0.12328 0.6303 0.0222 0.0
H736 H 0.08474 0.56909 0.06166 0.0
C737 C 0.15321 0.61532 0.0168 0.0
C738 C 0.1583 0.58339 0.02676 0.0
H739 H 0.11937 0.6542 0.01241 0.0
H740 H 0.17165 0.62806 0.00316 0.0
C741 C 0.13399 0.56773 0.04474 0.0
C742 C 0.62834 0.76207 0.30206 0.0
C743 C 0.6134 0.79188 0.30807 0.0
H744 H 0.6283 0.71915 0.27357 0.0
C745 C 0.58278 0.79831 0.29439 0.0
H746 H 0.65185 0.75643 0.31244 0.0
C747 C 0.56957 0.77725 0.27162 0.0
C748 C 0.5866 0.74932 0.2627 0.0
H749 H 0.57063 0.8211 0.29865 0.0
H750 H 0.54732 0.784 0.25939 0.0
C751 C 0.61498 0.74088 0.27956 0.0
C752 C 0.36209 0.39671 0.52077 0.0
C753 C 0.3423 0.38847 0.49439 0.0
H754 H 0.40899 0.39216 0.54301 0.0
C755 C 0.35392 0.36629 0.47159 0.0
H756 H 0.3537 0.41376 0.53871 0.0
C757 C 0.38532 0.35381 0.47415 0.0
C758 C 0.40585 0.36345 0.49945 0.0
H759 H 0.33912 0.35932 0.45112 0.0
H760 H 0.39393 0.33761 0.45553 0.0
C761 C 0.3937 0.38437 0.52321 0.0
C762 C 0.08649 0.688 0.67293 0.0
C763 C 0.11722 0.69573 0.66016 0.0
H764 H 0.0503 0.69964 0.70818 0.0
C765 C 0.13126 0.72567 0.66769 0.0
H766 H 0.07502 0.6651 0.66752 0.0
C767 C 0.11701 0.74546 0.69094 0.0
C768 C 0.08872 0.73541 0.70708 0.0
H769 H 0.15485 0.73227 0.65806 0.0
H770 H 0.12975 0.76716 0.69823 0.0
C771 C 0.07249 0.70757 0.69653 0.0
C772 C 0.60826 0.90352 0.92108 0.0
C773 C 0.60395 0.87171 0.93198 0.0
H774 H 0.64002 0.94444 0.91891 0.0
C775 C 0.63098 0.85479 0.94394 0.0
H776 H 0.58792 0.9171 0.91156 0.0
C777 C 0.66078 0.87047 0.94824 0.0
C778 C 0.66411 0.90328 0.94049 0.0
H779 H 0.62852 0.83017 0.95229 0.0
H780 H 0.68045 0.85754 0.95984 0.0
C781 C 0.63816 0.91916 0.92521 0.0
C782 C 0.84785 0.10531 0.51309 0.0
C783 C 0.83574 0.08325 0.49042 0.0
H784 H 0.88849 0.13326 0.52895 0.0
C785 C 0.85543 0.07427 0.4642 0.0
H786 H 0.83315 0.11281 0.53344 0.0
C787 C 0.88733 0.08587 0.46172 0.0
C788 C 0.89989 0.10681 0.48525 0.0
H789 H 0.84667 0.0573 0.44636 0.0
H790 H 0.90248 0.07758 0.44201 0.0
C791 C 0.87954 0.11708 0.51047 0.0
loop_
_geom_bond_atom_site_label_1
_geom_bond_atom_site_label_2
_geom_bond_distance
_geom_bond_site_symmetry_2
_ccdc_geom_bond_type
In0 O1 2.294 . S
In0 O2 2.326 . S
In0 O6 2.266 . S
In0 O7 2.326 . S
In0 O8 2.266 . S
In0 O9 2.326 . S
In0 O11 2.294 . S
In0 O12 2.326 . S
O1 In0 2.294 . S
O1 C10 1.240 . S
O2 In0 2.326 . S
O2 C10 1.252 . S
C3 O6 1.252 . S
C3 O7 1.260 . S
C4 O11 1.240 . S
C4 O12 1.252 . S
C5 O8 1.252 . S
C5 O9 1.260 . S
O6 In0 2.266 . S
O6 C3 1.252 . S
O7 In0 2.326 . S
O7 C3 1.260 . S
O8 In0 2.266 . S
O8 C5 1.252 . S
O9 In0 2.326 . S
O9 C5 1.260 . S
C10 O1 1.240 . S
C10 O2 1.252 . S
O11 In0 2.294 . S
O11 C4 1.240 . S
O12 In0 2.326 . S
O12 C4 1.252 . S
In13 O14 2.294 . S
In13 O15 2.326 . S
In13 O19 2.266 . S
In13 O20 2.326 . S
In13 O21 2.266 . S
In13 O22 2.326 . S
In13 O24 2.294 . S
In13 O25 2.326 . S
O14 In13 2.294 . S
O14 C23 1.240 . S
O15 In13 2.326 . S
O15 C23 1.252 . S
C16 O19 1.252 . S
C16 O20 1.260 . S
C17 O24 1.240 . S
C17 O25 1.252 . S
C18 O21 1.252 . S
C18 O22 1.260 . S
O19 In13 2.266 . S
O19 C16 1.252 . S
O20 In13 2.326 . S
O20 C16 1.260 . S
O21 In13 2.266 . S
O21 C18 1.252 . S
O22 In13 2.326 . S
O22 C18 1.260 . S
C23 O14 1.240 . S
C23 O15 1.252 . S
O24 In13 2.294 . S
O24 C17 1.240 . S
O25 In13 2.326 . S
O25 C17 1.252 . S
In26 O27 2.294 . S
In26 O28 2.326 . S
In26 O32 2.266 . S
In26 O33 2.326 . S
In26 O34 2.266 . S
In26 O35 2.326 . S
In26 O37 2.294 . S
In26 O38 2.326 . S
O27 In26 2.294 . S
O27 C36 1.240 . S
O28 In26 2.326 . S
O28 C36 1.252 . S
C29 O32 1.252 . S
C29 O33 1.260 . S
C30 O37 1.240 . S
C30 O38 1.252 . S
C31 O34 1.252 . S
C31 O35 1.260 . S
O32 In26 2.266 . S
O32 C29 1.252 . S
O33 In26 2.326 . S
O33 C29 1.260 . S
O34 In26 2.266 . S
O34 C31 1.252 . S
O35 In26 2.326 . S
O35 C31 1.260 . S
C36 O27 1.240 . S
C36 O28 1.252 . S
O37 In26 2.294 . S
O37 C30 1.240 . S
O38 In26 2.326 . S
O38 C30 1.252 . S
In39 O40 2.294 . S
In39 O41 2.326 . S
In39 O45 2.266 . S
In39 O46 2.326 . S
In39 O47 2.266 . S
In39 O48 2.326 . S
In39 O50 2.294 . S
In39 O51 2.326 . S
O40 In39 2.294 . S
O40 C49 1.240 . S
O41 In39 2.326 . S
O41 C49 1.252 . S
C42 O45 1.252 . S
C42 O46 1.260 . S
C43 O50 1.240 . S
C43 O51 1.252 . S
C44 O47 1.252 . S
C44 O48 1.260 . S
O45 In39 2.266 . S
O45 C42 1.252 . S
O46 In39 2.326 . S
O46 C42 1.260 . S
O47 In39 2.266 . S
O47 C44 1.252 . S
O48 In39 2.326 . S
O48 C44 1.260 . S
C49 O40 1.240 . S
C49 O41 1.252 . S
O50 In39 2.294 . S
O50 C43 1.240 . S
O51 In39 2.326 . S
O51 C43 1.252 . S
In52 O53 2.294 . S
In52 O54 2.326 . S
In52 O58 2.266 . S
In52 O59 2.326 . S
In52 O60 2.266 . S
In52 O61 2.326 . S
In52 O63 2.294 . S
In52 O64 2.326 . S
O53 In52 2.294 . S
O53 C62 1.240 . S
O54 In52 2.326 . S
O54 C62 1.252 . S
C55 O58 1.252 . S
C55 O59 1.260 . S
C56 O63 1.240 . S
C56 O64 1.252 . S
C57 O60 1.252 . S
C57 O61 1.260 . S
O58 In52 2.266 . S
O58 C55 1.252 . S
O59 In52 2.326 . S
O59 C55 1.260 . S
O60 In52 2.266 . S
O60 C57 1.252 . S
O61 In52 2.326 . S
O61 C57 1.260 . S
C62 O53 1.240 . S
C62 O54 1.252 . S
O63 In52 2.294 . S
O63 C56 1.240 . S
O64 In52 2.326 . S
O64 C56 1.252 . S
In65 O66 2.294 . S
In65 O67 2.326 . S
In65 O71 2.266 . S
In65 O72 2.326 . S
In65 O73 2.266 . S
In65 O74 2.326 . S
In65 O76 2.294 . S
In65 O77 2.326 . S
O66 In65 2.294 . S
O66 C75 1.240 . S
O67 In65 2.326 . S
O67 C75 1.252 . S
C68 O71 1.252 . S
C68 O72 1.260 . S
C69 O76 1.240 . S
C69 O77 1.252 . S
C70 O73 1.252 . S
C70 O74 1.260 . S
O71 In65 2.266 . S
O71 C68 1.252 . S
O72 In65 2.326 . S
O72 C68 1.260 . S
O73 In65 2.266 . S
O73 C70 1.252 . S
O74 In65 2.326 . S
O74 C70 1.260 . S
C75 O66 1.240 . S
C75 O67 1.252 . S
O76 In65 2.294 . S
O76 C69 1.240 . S
O77 In65 2.326 . S
O77 C69 1.252 . S
In78 O79 2.294 . S
In78 O80 2.326 . S
In78 O84 2.266 . S
In78 O85 2.326 . S
In78 O86 2.266 . S
In78 O87 2.326 . S
In78 O89 2.294 . S
In78 O90 2.326 . S
O79 In78 2.294 . S
O79 C88 1.240 . S
O80 In78 2.326 . S
O80 C88 1.252 . S
C81 O84 1.252 . S
C81 O85 1.260 . S
C82 O89 1.240 . S
C82 O90 1.252 . S
C83 O86 1.252 . S
C83 O87 1.260 . S
O84 In78 2.266 . S
O84 C81 1.252 . S
O85 In78 2.326 . S
O85 C81 1.260 . S
O86 In78 2.266 . S
O86 C83 1.252 . S
O87 In78 2.326 . S
O87 C83 1.260 . S
C88 O79 1.240 . S
C88 O80 1.252 . S
O89 In78 2.294 . S
O89 C82 1.240 . S
O90 In78 2.326 . S
O90 C82 1.252 . S
In91 O92 2.294 . S
In91 O93 2.326 . S
In91 O97 2.266 . S
In91 O98 2.326 . S
In91 O99 2.266 . S
In91 O100 2.326 . S
In91 O102 2.294 . S
In91 O103 2.326 . S
O92 In91 2.294 . S
O92 C101 1.240 . S
O93 In91 2.326 . S
O93 C101 1.252 . S
C94 O97 1.252 . S
C94 O98 1.260 . S
C95 O102 1.240 . S
C95 O103 1.252 . S
C96 O99 1.252 . S
C96 O100 1.260 . S
O97 In91 2.266 . S
O97 C94 1.252 . S
O98 In91 2.326 . S
O98 C94 1.260 . S
O99 In91 2.266 . S
O99 C96 1.252 . S
O100 In91 2.326 . S
O100 C96 1.260 . S
C101 O92 1.240 . S
C101 O93 1.252 . S
O102 In91 2.294 . S
O102 C95 1.240 . S
O103 In91 2.326 . S
O103 C95 1.252 . S
In104 O105 2.294 . S
In104 O106 2.326 . S
In104 O110 2.266 . S
In104 O111 2.326 . S
In104 O112 2.266 . S
In104 O113 2.326 . S
In104 O115 2.294 . S
In104 O116 2.326 . S
O105 In104 2.294 . S
O105 C114 1.240 . S
O106 In104 2.326 . S
O106 C114 1.252 . S
C107 O110 1.252 . S
C107 O111 1.260 . S
C108 O115 1.240 . S
C108 O116 1.252 . S
C109 O112 1.252 . S
C109 O113 1.260 . S
O110 In104 2.266 . S
O110 C107 1.252 . S
O111 In104 2.326 . S
O111 C107 1.260 . S
O112 In104 2.266 . S
O112 C109 1.252 . S
O113 In104 2.326 . S
O113 C109 1.260 . S
C114 O105 1.240 . S
C114 O106 1.252 . S
O115 In104 2.294 . S
O115 C108 1.240 . S
O116 In104 2.326 . S
O116 C108 1.252 . S
In117 O118 2.294 . S
In117 O119 2.326 . S
In117 O123 2.266 . S
In117 O124 2.326 . S
In117 O125 2.266 . S
In117 O126 2.326 . S
In117 O128 2.294 . S
In117 O129 2.326 . S
O118 In117 2.294 . S
O118 C127 1.240 . S
O119 In117 2.326 . S
O119 C127 1.252 . S
C120 O123 1.252 . S
C120 O124 1.260 . S
C121 O128 1.240 . S
C121 O129 1.252 . S
C122 O125 1.252 . S
C122 O126 1.260 . S
O123 In117 2.266 . S
O123 C120 1.252 . S
O124 In117 2.326 . S
O124 C120 1.260 . S
O125 In117 2.266 . S
O125 C122 1.252 . S
O126 In117 2.326 . S
O126 C122 1.260 . S
C127 O118 1.240 . S
C127 O119 1.252 . S
O128 In117 2.294 . S
O128 C121 1.240 . S
O129 In117 2.326 . S
O129 C121 1.252 . S
In130 O131 2.294 . S
In130 O132 2.326 . S
In130 O136 2.266 . S
In130 O137 2.326 . S
In130 O138 2.266 . S
In130 O139 2.326 . S
In130 O141 2.294 . S
In130 O142 2.326 . S
O131 In130 2.294 . S
O131 C140 1.240 . S
O132 In130 2.326 . S
O132 C140 1.252 . S
C133 O136 1.252 . S
C133 O137 1.260 . S
C134 O141 1.240 . S
C134 O142 1.252 . S
C135 O138 1.252 . S
C135 O139 1.260 . S
O136 In130 2.266 . S
O136 C133 1.252 . S
O137 In130 2.326 . S
O137 C133 1.260 . S
O138 In130 2.266 . S
O138 C135 1.252 . S
O139 In130 2.326 . S
O139 C135 1.260 . S
C140 O131 1.240 . S
C140 O132 1.252 . S
O141 In130 2.294 . S
O141 C134 1.240 . S
O142 In130 2.326 . S
O142 C134 1.252 . S
In143 O144 2.294 . S
In143 O145 2.326 . S
In143 O149 2.266 . S
In143 O150 2.326 . S
In143 O151 2.266 . S
In143 O152 2.326 . S
In143 O154 2.294 . S
In143 O155 2.326 . S
O144 In143 2.294 . S
O144 C153 1.240 . S
O145 In143 2.326 . S
O145 C153 1.252 . S
C146 O149 1.252 . S
C146 O150 1.260 . S
C147 O154 1.240 . S
C147 O155 1.252 . S
C148 O151 1.252 . S
C148 O152 1.260 . S
O149 In143 2.266 . S
O149 C146 1.252 . S
O150 In143 2.326 . S
O150 C146 1.260 . S
O151 In143 2.266 . S
O151 C148 1.252 . S
O152 In143 2.326 . S
O152 C148 1.260 . S
C153 O144 1.240 . S
C153 O145 1.252 . S
O154 In143 2.294 . S
O154 C147 1.240 . S
O155 In143 2.326 . S
O155 C147 1.252 . S
In156 O157 2.294 . S
In156 O158 2.326 . S
In156 O162 2.266 . S
In156 O163 2.326 . S
In156 O164 2.266 . S
In156 O165 2.326 . S
In156 O167 2.294 . S
In156 O168 2.326 . S
O157 In156 2.294 . S
O157 C166 1.240 . S
O158 In156 2.326 . S
O158 C166 1.252 . S
C159 O162 1.252 . S
C159 O163 1.260 . S
C160 O167 1.240 . S
C160 O168 1.252 . S
C161 O164 1.252 . S
C161 O165 1.260 . S
O162 In156 2.266 . S
O162 C159 1.252 . S
O163 In156 2.326 . S
O163 C159 1.260 . S
O164 In156 2.266 . S
O164 C161 1.252 . S
O165 In156 2.326 . S
O165 C161 1.260 . S
C166 O157 1.240 . S
C166 O158 1.252 . S
O167 In156 2.294 . S
O167 C160 1.240 . S
O168 In156 2.326 . S
O168 C160 1.252 . S
In169 O170 2.294 . S
In169 O171 2.326 . S
In169 O175 2.266 . S
In169 O176 2.326 . S
In169 O177 2.266 . S
In169 O178 2.326 . S
In169 O180 2.294 . S
In169 O181 2.326 . S
O170 In169 2.294 . S
O170 C179 1.240 . S
O171 In169 2.326 . S
O171 C179 1.252 . S
C172 O175 1.252 . S
C172 O176 1.260 . S
C173 O180 1.240 . S
C173 O181 1.252 . S
C174 O177 1.252 . S
C174 O178 1.260 . S
O175 In169 2.266 . S
O175 C172 1.252 . S
O176 In169 2.326 . S
O176 C172 1.260 . S
O177 In169 2.266 . S
O177 C174 1.252 . S
O178 In169 2.326 . S
O178 C174 1.260 . S
C179 O170 1.240 . S
C179 O171 1.252 . S
O180 In169 2.294 . S
O180 C173 1.240 . S
O181 In169 2.326 . S
O181 C173 1.252 . S
In182 O183 2.294 . S
In182 O184 2.326 . S
In182 O188 2.266 . S
In182 O189 2.326 . S
In182 O190 2.266 . S
In182 O191 2.326 . S
In182 O193 2.294 . S
In182 O194 2.326 . S
O183 In182 2.294 . S
O183 C192 1.240 . S
O184 In182 2.326 . S
O184 C192 1.252 . S
C185 O188 1.252 . S
C185 O189 1.260 . S
C186 O193 1.240 . S
C186 O194 1.252 . S
C187 O190 1.252 . S
C187 O191 1.260 . S
O188 In182 2.266 . S
O188 C185 1.252 . S
O189 In182 2.326 . S
O189 C185 1.260 . S
O190 In182 2.266 . S
O190 C187 1.252 . S
O191 In182 2.326 . S
O191 C187 1.260 . S
C192 O183 1.240 . S
C192 O184 1.252 . S
O193 In182 2.294 . S
O193 C186 1.240 . S
O194 In182 2.326 . S
O194 C186 1.252 . S
In195 O196 2.294 . S
In195 O197 2.326 . S
In195 O201 2.266 . S
In195 O202 2.326 . S
In195 O203 2.266 . S
In195 O204 2.326 . S
In195 O206 2.294 . S
In195 O207 2.326 . S
O196 In195 2.294 . S
O196 C205 1.240 . S
O197 In195 2.326 . S
O197 C205 1.252 . S
C198 O201 1.252 . S
C198 O202 1.260 . S
C199 O206 1.240 . S
C199 O207 1.252 . S
C200 O203 1.252 . S
C200 O204 1.260 . S
O201 In195 2.266 . S
O201 C198 1.252 . S
O202 In195 2.326 . S
O202 C198 1.260 . S
O203 In195 2.266 . S
O203 C200 1.252 . S
O204 In195 2.326 . S
O204 C200 1.260 . S
C205 O196 1.240 . S
C205 O197 1.252 . S
O206 In195 2.294 . S
O206 C199 1.240 . S
O207 In195 2.326 . S
O207 C199 1.252 . S
In208 O209 2.294 . S
In208 O210 2.326 . S
In208 O214 2.266 . S
In208 O215 2.326 . S
In208 O216 2.266 . S
In208 O217 2.326 . S
In208 O219 2.294 . S
In208 O220 2.326 . S
O209 In208 2.294 . S
O209 C218 1.240 . S
O210 In208 2.326 . S
O210 C218 1.252 . S
C211 O214 1.252 . S
C211 O215 1.260 . S
C212 O219 1.240 . S
C212 O220 1.252 . S
C213 O216 1.252 . S
C213 O217 1.260 . S
O214 In208 2.266 . S
O214 C211 1.252 . S
O215 In208 2.326 . S
O215 C211 1.260 . S
O216 In208 2.266 . S
O216 C213 1.252 . S
O217 In208 2.326 . S
O217 C213 1.260 . S
C218 O209 1.240 . S
C218 O210 1.252 . S
O219 In208 2.294 . S
O219 C212 1.240 . S
O220 In208 2.326 . S
O220 C212 1.252 . S
In221 O222 2.294 . S
In221 O223 2.326 . S
In221 O227 2.266 . S
In221 O228 2.326 . S
In221 O229 2.266 . S
In221 O230 2.326 . S
In221 O232 2.294 . S
In221 O233 2.326 . S
O222 In221 2.294 . S
O222 C231 1.240 . S
O223 In221 2.326 . S
O223 C231 1.252 . S
C224 O227 1.252 . S
C224 O228 1.260 . S
C225 O232 1.240 . S
C225 O233 1.252 . S
C226 O229 1.252 . S
C226 O230 1.260 . S
O227 In221 2.266 . S
O227 C224 1.252 . S
O228 In221 2.326 . S
O228 C224 1.260 . S
O229 In221 2.266 . S
O229 C226 1.252 . S
O230 In221 2.326 . S
O230 C226 1.260 . S
C231 O222 1.240 . S
C231 O223 1.252 . S
O232 In221 2.294 . S
O232 C225 1.240 . S
O233 In221 2.326 . S
O233 C225 1.252 . S
In234 O235 2.294 . S
In234 O236 2.326 . S
In234 O240 2.266 . S
In234 O241 2.326 . S
In234 O242 2.266 . S
In234 O243 2.326 . S
In234 O245 2.294 . S
In234 O246 2.326 . S
O235 In234 2.294 . S
O235 C244 1.240 . S
O236 In234 2.326 . S
O236 C244 1.252 . S
C237 O240 1.252 . S
C237 O241 1.260 . S
C238 O245 1.240 . S
C238 O246 1.252 . S
C239 O242 1.252 . S
C239 O243 1.260 . S
O240 In234 2.266 . S
O240 C237 1.252 . S
O241 In234 2.326 . S
O241 C237 1.260 . S
O242 In234 2.266 . S
O242 C239 1.252 . S
O243 In234 2.326 . S
O243 C239 1.260 . S
C244 O235 1.240 . S
C244 O236 1.252 . S
O245 In234 2.294 . S
O245 C238 1.240 . S
O246 In234 2.326 . S
O246 C238 1.252 . S
In247 O248 2.294 . S
In247 O249 2.326 . S
In247 O253 2.266 . S
In247 O254 2.326 . S
In247 O255 2.266 . S
In247 O256 2.326 . S
In247 O258 2.294 . S
In247 O259 2.326 . S
O248 In247 2.294 . S
O248 C257 1.240 . S
O249 In247 2.326 . S
O249 C257 1.252 . S
C250 O253 1.252 . S
C250 O254 1.260 . S
C251 O258 1.240 . S
C251 O259 1.252 . S
C252 O255 1.252 . S
C252 O256 1.260 . S
O253 In247 2.266 . S
O253 C250 1.252 . S
O254 In247 2.326 . S
O254 C250 1.260 . S
O255 In247 2.266 . S
O255 C252 1.252 . S
O256 In247 2.326 . S
O256 C252 1.260 . S
C257 O248 1.240 . S
C257 O249 1.252 . S
O258 In247 2.294 . S
O258 C251 1.240 . S
O259 In247 2.326 . S
O259 C251 1.252 . S
In260 O261 2.294 . S
In260 O262 2.326 . S
In260 O266 2.266 . S
In260 O267 2.326 . S
In260 O268 2.266 . S
In260 O269 2.326 . S
In260 O271 2.294 . S
In260 O272 2.326 . S
O261 In260 2.294 . S
O261 C270 1.240 . S
O262 In260 2.326 . S
O262 C270 1.252 . S
C263 O266 1.252 . S
C263 O267 1.260 . S
C264 O271 1.240 . S
C264 O272 1.252 . S
C265 O268 1.252 . S
C265 O269 1.260 . S
O266 In260 2.266 . S
O266 C263 1.252 . S
O267 In260 2.326 . S
O267 C263 1.260 . S
O268 In260 2.266 . S
O268 C265 1.252 . S
O269 In260 2.326 . S
O269 C265 1.260 . S
C270 O261 1.240 . S
C270 O262 1.252 . S
O271 In260 2.294 . S
O271 C264 1.240 . S
O272 In260 2.326 . S
O272 C264 1.252 . S
In273 O274 2.294 . S
In273 O275 2.326 . S
In273 O279 2.266 . S
In273 O280 2.326 . S
In273 O281 2.266 . S
In273 O282 2.326 . S
In273 O284 2.294 . S
In273 O285 2.326 . S
O274 In273 2.294 . S
O274 C283 1.240 . S
O275 In273 2.326 . S
O275 C283 1.252 . S
C276 O279 1.252 . S
C276 O280 1.260 . S
C277 O284 1.240 . S
C277 O285 1.252 . S
C278 O281 1.252 . S
C278 O282 1.260 . S
O279 In273 2.266 . S
O279 C276 1.252 . S
O280 In273 2.326 . S
O280 C276 1.260 . S
O281 In273 2.266 . S
O281 C278 1.252 . S
O282 In273 2.326 . S
O282 C278 1.260 . S
C283 O274 1.240 . S
C283 O275 1.252 . S
O284 In273 2.294 . S
O284 C277 1.240 . S
O285 In273 2.326 . S
O285 C277 1.252 . S
In286 O287 2.294 . S
In286 O288 2.326 . S
In286 O292 2.266 . S
In286 O293 2.326 . S
In286 O294 2.266 . S
In286 O295 2.326 . S
In286 O297 2.294 . S
In286 O298 2.326 . S
O287 In286 2.294 . S
O287 C296 1.240 . S
O288 In286 2.326 . S
O288 C296 1.252 . S
C289 O292 1.252 . S
C289 O293 1.260 . S
C290 O297 1.240 . S
C290 O298 1.252 . S
C291 O294 1.252 . S
C291 O295 1.260 . S
O292 In286 2.266 . S
O292 C289 1.252 . S
O293 In286 2.326 . S
O293 C289 1.260 . S
O294 In286 2.266 . S
O294 C291 1.252 . S
O295 In286 2.326 . S
O295 C291 1.260 . S
C296 O287 1.240 . S
C296 O288 1.252 . S
O297 In286 2.294 . S
O297 C290 1.240 . S
O298 In286 2.326 . S
O298 C290 1.252 . S
In299 O300 2.294 . S
In299 O301 2.326 . S
In299 O305 2.266 . S
In299 O306 2.326 . S
In299 O307 2.266 . S
In299 O308 2.326 . S
In299 O310 2.294 . S
In299 O311 2.326 . S
O300 In299 2.294 . S
O300 C309 1.240 . S
O301 In299 2.326 . S
O301 C309 1.252 . S
C302 O305 1.252 . S
C302 O306 1.260 . S
C303 O310 1.240 . S
C303 O311 1.252 . S
C304 O307 1.252 . S
C304 O308 1.260 . S
O305 In299 2.266 . S
O305 C302 1.252 . S
O306 In299 2.326 . S
O306 C302 1.260 . S
O307 In299 2.266 . S
O307 C304 1.252 . S
O308 In299 2.326 . S
O308 C304 1.260 . S
C309 O300 1.240 . S
C309 O301 1.252 . S
O310 In299 2.294 . S
O310 C303 1.240 . S
O311 In299 2.326 . S
O311 C303 1.252 . S
C312 C313 1.387 . S
C312 H316 0.950 . S
C312 C321 1.390 . S
C313 C312 1.387 . S
C313 C315 1.387 . S
H314 C321 0.950 . S
C315 C313 1.387 . S
C315 C317 1.390 . S
C315 H319 0.950 . S
H316 C312 0.950 . S
C317 C315 1.390 . S
C317 C318 1.387 . S
C317 H320 0.950 . S
C318 C317 1.387 . S
C318 C321 1.387 . S
H319 C315 0.950 . S
H320 C317 0.950 . S
C321 C312 1.390 . S
C321 H314 0.950 . S
C321 C318 1.387 . S
C322 C323 1.387 1_455 S
C322 H326 0.950 1_455 S
C322 C331 1.390 . S
C323 C322 1.387 1_655 S
C323 C325 1.387 1_655 S
H324 C331 0.950 . S
C325 C323 1.387 1_455 S
C325 C327 1.390 . S
C325 H329 0.950 . S
H326 C322 0.950 1_655 S
C327 C325 1.390 . S
C327 C328 1.387 . S
C327 H330 0.950 . S
C328 C327 1.387 . S
C328 C331 1.387 . S
H329 C325 0.950 . S
H330 C327 0.950 . S
C331 C322 1.390 . S
C331 H324 0.950 . S
C331 C328 1.387 . S
C332 C333 1.387 . S
C332 H336 0.950 . S
C332 C341 1.390 . S
C333 C332 1.387 . S
C333 C335 1.387 . S
H334 C341 0.950 . S
C335 C333 1.387 . S
C335 C337 1.390 1_556 S
C335 H339 0.950 . S
H336 C332 0.950 . S
C337 C335 1.390 1_554 S
C337 C338 1.387 . S
C337 H340 0.950 . S
C338 C337 1.387 . S
C338 C341 1.387 1_554 S
H339 C335 0.950 . S
H340 C337 0.950 . S
C341 C332 1.390 . S
C341 H334 0.950 . S
C341 C338 1.387 1_556 S
C342 C343 1.387 . S
C342 H346 0.950 . S
C342 C351 1.390 . S
C343 C342 1.387 . S
C343 C345 1.387 . S
H344 C351 0.950 . S
C345 C343 1.387 . S
C345 C347 1.390 . S
C345 H349 0.950 . S
H346 C342 0.950 . S
C347 C345 1.390 . S
C347 C348 1.387 . S
C347 H350 0.950 . S
C348 C347 1.387 . S
C348 C351 1.387 . S
H349 C345 0.950 . S
H350 C347 0.950 . S
C351 C342 1.390 . S
C351 H344 0.950 . S
C351 C348 1.387 . S
C352 C353 1.387 . S
C352 H356 0.950 . S
C352 C361 1.390 . S
C353 C352 1.387 . S
C353 C355 1.387 . S
H354 C361 0.950 . S
C355 C353 1.387 . S
C355 C357 1.390 . S
C355 H359 0.950 . S
H356 C352 0.950 . S
C357 C355 1.390 . S
C357 C358 1.387 . S
C357 H360 0.950 . S
C358 C357 1.387 . S
C358 C361 1.387 . S
H359 C355 0.950 . S
H360 C357 0.950 . S
C361 C352 1.390 . S
C361 H354 0.950 . S
C361 C358 1.387 . S
C362 C363 1.387 . S
C362 H366 0.950 . S
C362 C371 1.390 . S
C363 C362 1.387 . S
C363 C365 1.387 . S
H364 C371 0.950 1_455 S
C365 C363 1.387 . S
C365 C367 1.390 . S
C365 H369 0.950 . S
H366 C362 0.950 . S
C367 C365 1.390 . S
C367 C368 1.387 1_655 S
C367 H370 0.950 . S
C368 C367 1.387 1_455 S
C368 C371 1.387 1_455 S
H369 C365 0.950 . S
H370 C367 0.950 . S
C371 C362 1.390 . S
C371 H364 0.950 1_655 S
C371 C368 1.387 1_655 S
C372 C373 1.387 . S
C372 H376 0.950 . S
C372 C381 1.390 . S
C373 C372 1.387 . S
C373 C375 1.387 . S
H374 C381 0.950 1_556 S
C375 C373 1.387 . S
C375 C377 1.390 . S
C375 H379 0.950 . S
H376 C372 0.950 . S
C377 C375 1.390 . S
C377 C378 1.387 1_554 S
C377 H380 0.950 . S
C378 C377 1.387 1_556 S
C378 C381 1.387 1_556 S
H379 C375 0.950 . S
H380 C377 0.950 . S
C381 C372 1.390 . S
C381 H374 0.950 1_554 S
C381 C378 1.387 1_554 S
C382 C383 1.387 . S
C382 H386 0.950 . S
C382 C391 1.390 . S
C383 C382 1.387 . S
C383 C385 1.387 . S
H384 C391 0.950 . S
C385 C383 1.387 . S
C385 C387 1.390 . S
C385 H389 0.950 . S
H386 C382 0.950 . S
C387 C385 1.390 . S
C387 C388 1.387 . S
C387 H390 0.950 . S
C388 C387 1.387 . S
C388 C391 1.387 . S
H389 C385 0.950 . S
H390 C387 0.950 . S
C391 C382 1.390 . S
C391 H384 0.950 . S
C391 C388 1.387 . S
C392 C393 1.387 . S
C392 H396 0.950 . S
C392 C401 1.390 . S
C393 C392 1.387 . S
C393 C395 1.387 . S
H394 C401 0.950 . S
C395 C393 1.387 . S
C395 C397 1.390 . S
C395 H399 0.950 . S
H396 C392 0.950 . S
C397 C395 1.390 . S
C397 C398 1.387 . S
C397 H400 0.950 . S
C398 C397 1.387 . S
C398 C401 1.387 . S
H399 C395 0.950 . S
H400 C397 0.950 . S
C401 C392 1.390 . S
C401 H394 0.950 . S
C401 C398 1.387 . S
C402 C403 1.387 1_545 S
C402 H406 0.950 . S
C402 C411 1.390 . S
C403 C402 1.387 1_565 S
C403 C405 1.387 1_565 S
H404 C411 0.950 . S
C405 C403 1.387 1_545 S
C405 C407 1.390 . S
C405 H409 0.950 1_545 S
H406 C402 0.950 . S
C407 C405 1.390 . S
C407 C408 1.387 . S
C407 H410 0.950 . S
C408 C407 1.387 . S
C408 C411 1.387 . S
H409 C405 0.950 1_565 S
H410 C407 0.950 . S
C411 C402 1.390 . S
C411 H404 0.950 . S
C411 C408 1.387 . S
C412 C413 1.387 . S
C412 H416 0.950 . S
C412 C421 1.390 1_565 S
C413 C412 1.387 . S
C413 C415 1.387 . S
H414 C421 0.950 . S
C415 C413 1.387 . S
C415 C417 1.390 . S
C415 H419 0.950 . S
H416 C412 0.950 . S
C417 C415 1.390 . S
C417 C418 1.387 1_565 S
C417 H420 0.950 . S
C418 C417 1.387 1_545 S
C418 C421 1.387 . S
H419 C415 0.950 . S
H420 C417 0.950 . S
C421 C412 1.390 1_545 S
C421 H414 0.950 . S
C421 C418 1.387 . S
C422 C423 1.387 . S
C422 H426 0.950 . S
C422 C431 1.390 . S
C423 C422 1.387 . S
C423 C425 1.387 . S
H424 C431 0.950 . S
C425 C423 1.387 . S
C425 C427 1.390 . S
C425 H429 0.950 . S
H426 C422 0.950 . S
C427 C425 1.390 . S
C427 C428 1.387 . S
C427 H430 0.950 . S
C428 C427 1.387 . S
C428 C431 1.387 . S
H429 C425 0.950 . S
H430 C427 0.950 . S
C431 C422 1.390 . S
C431 H424 0.950 . S
C431 C428 1.387 . S
C432 C433 1.387 . S
C432 H436 0.950 . S
C432 C441 1.390 . S
C433 C432 1.387 . S
C433 C435 1.387 . S
H434 C441 0.950 . S
C435 C433 1.387 . S
C435 C437 1.390 . S
C435 H439 0.950 . S
H436 C432 0.950 . S
C437 C435 1.390 . S
C437 C438 1.387 . S
C437 H440 0.950 . S
C438 C437 1.387 . S
C438 C441 1.387 . S
H439 C435 0.950 . S
H440 C437 0.950 . S
C441 C432 1.390 . S
C441 H434 0.950 . S
C441 C438 1.387 . S
C442 C443 1.387 . S
C442 H446 0.950 . S
C442 C451 1.390 . S
C443 C442 1.387 . S
C443 C445 1.387 1_565 S
H444 C451 0.950 . S
C445 C443 1.387 1_545 S
C445 C447 1.390 . S
C445 H449 0.950 . S
H446 C442 0.950 . S
C447 C445 1.390 . S
C447 C448 1.387 . S
C447 H450 0.950 . S
C448 C447 1.387 . S
C448 C451 1.387 1_545 S
H449 C445 0.950 . S
H450 C447 0.950 . S
C451 C442 1.390 . S
C451 H444 0.950 . S
C451 C448 1.387 1_565 S
C452 C453 1.387 . S
C452 H456 0.950 . S
C452 C461 1.390 1_556 S
C453 C452 1.387 . S
C453 C455 1.387 1_556 S
H454 C461 0.950 . S
C455 C453 1.387 1_554 S
C455 C457 1.390 . S
C455 H459 0.950 . S
H456 C452 0.950 . S
C457 C455 1.390 . S
C457 C458 1.387 . S
C457 H460 0.950 . S
C458 C457 1.387 . S
C458 C461 1.387 . S
H459 C455 0.950 . S
H460 C457 0.950 . S
C461 C452 1.390 1_554 S
C461 H454 0.950 . S
C461 C458 1.387 . S
C462 C463 1.387 . S
C462 H466 0.950 . S
C462 C471 1.390 1_545 S
C463 C462 1.387 . S
C463 C465 1.387 . S
H464 C471 0.950 . S
C465 C463 1.387 . S
C465 C467 1.390 1_545 S
C465 H469 0.950 . S
H466 C462 0.950 . S
C467 C465 1.390 1_565 S
C467 C468 1.387 . S
C467 H470 0.950 . S
C468 C467 1.387 . S
C468 C471 1.387 . S
H469 C465 0.950 . S
H470 C467 0.950 . S
C471 C462 1.390 1_565 S
C471 H464 0.950 . S
C471 C468 1.387 . S
C472 C473 1.387 . S
C472 H476 0.950 . S
C472 C481 1.390 . S
C473 C472 1.387 . S
C473 C475 1.387 . S
H474 C481 0.950 . S
C475 C473 1.387 . S
C475 C477 1.390 . S
C475 H479 0.950 . S
H476 C472 0.950 . S
C477 C475 1.390 . S
C477 C478 1.387 . S
C477 H480 0.950 . S
C478 C477 1.387 . S
C478 C481 1.387 . S
H479 C475 0.950 . S
H480 C477 0.950 . S
C481 C472 1.390 . S
C481 H474 0.950 . S
C481 C478 1.387 . S
C482 C483 1.387 . S
C482 H486 0.950 . S
C482 C491 1.390 . S
C483 C482 1.387 . S
C483 C485 1.387 . S
H484 C491 0.950 . S
C485 C483 1.387 . S
C485 C487 1.390 . S
C485 H489 0.950 . S
H486 C482 0.950 . S
C487 C485 1.390 . S
C487 C488 1.387 . S
C487 H490 0.950 . S
C488 C487 1.387 . S
C488 C491 1.387 . S
H489 C485 0.950 . S
H490 C487 0.950 . S
C491 C482 1.390 . S
C491 H484 0.950 . S
C491 C488 1.387 . S
C492 C493 1.387 . S
C492 H496 0.950 . S
C492 C501 1.390 . S
C493 C492 1.387 . S
C493 C495 1.387 1_556 S
H494 C501 0.950 . S
C495 C493 1.387 1_554 S
C495 C497 1.390 . S
C495 H499 0.950 . S
H496 C492 0.950 . S
C497 C495 1.390 . S
C497 C498 1.387 . S
C497 H500 0.950 . S
C498 C497 1.387 . S
C498 C501 1.387 1_554 S
H499 C495 0.950 . S
H500 C497 0.950 . S
C501 C492 1.390 . S
C501 H494 0.950 . S
C501 C498 1.387 1_556 S
C502 C503 1.387 . S
C502 H506 0.950 . S
C502 C511 1.390 . S
C503 C502 1.387 . S
C503 C505 1.387 . S
H504 C511 0.950 . S
C505 C503 1.387 . S
C505 C507 1.390 . S
C505 H509 0.950 . S
H506 C502 0.950 . S
C507 C505 1.390 . S
C507 C508 1.387 . S
C507 H510 0.950 . S
C508 C507 1.387 . S
C508 C511 1.387 . S
H509 C505 0.950 . S
H510 C507 0.950 . S
C511 C502 1.390 . S
C511 H504 0.950 . S
C511 C508 1.387 . S
C512 C513 1.387 . S
C512 H516 0.950 . S
C512 C521 1.390 . S
C513 C512 1.387 . S
C513 C515 1.387 . S
H514 C521 0.950 . S
C515 C513 1.387 . S
C515 C517 1.390 . S
C515 H519 0.950 . S
H516 C512 0.950 . S
C517 C515 1.390 . S
C517 C518 1.387 . S
C517 H520 0.950 . S
C518 C517 1.387 . S
C518 C521 1.387 . S
H519 C515 0.950 . S
H520 C517 0.950 . S
C521 C512 1.390 . S
C521 H514 0.950 . S
C521 C518 1.387 . S
C522 C523 1.387 . S
C522 H526 0.950 . S
C522 C531 1.390 . S
C523 C522 1.387 . S
C523 C525 1.387 . S
H524 C531 0.950 . S
C525 C523 1.387 . S
C525 C527 1.390 1_455 S
C525 H529 0.950 . S
H526 C522 0.950 . S
C527 C525 1.390 1_655 S
C527 C528 1.387 . S
C527 H530 0.950 . S
C528 C527 1.387 . S
C528 C531 1.387 1_655 S
H529 C525 0.950 . S
H530 C527 0.950 . S
C531 C522 1.390 . S
C531 H524 0.950 . S
C531 C528 1.387 1_455 S
C532 C533 1.387 . S
C532 H536 0.950 . S
C532 C541 1.390 1_655 S
C533 C532 1.387 . S
C533 C535 1.387 . S
H534 C541 0.950 . S
C535 C533 1.387 . S
C535 C537 1.390 1_655 S
C535 H539 0.950 . S
H536 C532 0.950 . S
C537 C535 1.390 1_455 S
C537 C538 1.387 . S
C537 H540 0.950 . S
C538 C537 1.387 . S
C538 C541 1.387 . S
H539 C535 0.950 . S
H540 C537 0.950 . S
C541 C532 1.390 1_455 S
C541 H534 0.950 . S
C541 C538 1.387 . S
C542 C543 1.387 . S
C542 H546 0.950 . S
C542 C551 1.390 . S
C543 C542 1.387 . S
C543 C545 1.387 . S
H544 C551 0.950 . S
C545 C543 1.387 . S
C545 C547 1.390 . S
C545 H549 0.950 . S
H546 C542 0.950 . S
C547 C545 1.390 . S
C547 C548 1.387 . S
C547 H550 0.950 . S
C548 C547 1.387 . S
C548 C551 1.387 . S
H549 C545 0.950 . S
H550 C547 0.950 . S
C551 C542 1.390 . S
C551 H544 0.950 . S
C551 C548 1.387 . S
C552 C553 1.387 . S
C552 H556 0.950 . S
C552 C561 1.390 . S
C553 C552 1.387 . S
C553 C555 1.387 . S
H554 C561 0.950 . S
C555 C553 1.387 . S
C555 C557 1.390 . S
C555 H559 0.950 . S
H556 C552 0.950 . S
C557 C555 1.390 . S
C557 C558 1.387 . S
C557 H560 0.950 . S
C558 C557 1.387 . S
C558 C561 1.387 . S
H559 C555 0.950 . S
H560 C557 0.950 . S
C561 C552 1.390 . S
C561 H554 0.950 . S
C561 C558 1.387 . S
C562 C563 1.387 . S
C562 H566 0.950 . S
C562 C571 1.390 . S
C563 C562 1.387 . S
C563 C565 1.387 . S
H564 C571 0.950 . S
C565 C563 1.387 . S
C565 C567 1.390 . S
C565 H569 0.950 . S
H566 C562 0.950 . S
C567 C565 1.390 . S
C567 C568 1.387 . S
C567 H570 0.950 . S
C568 C567 1.387 . S
C568 C571 1.387 . S
H569 C565 0.950 . S
H570 C567 0.950 . S
C571 C562 1.390 . S
C571 H564 0.950 . S
C571 C568 1.387 . S
C572 C573 1.387 . S
C572 H576 0.950 . S
C572 C581 1.390 . S
C573 C572 1.387 . S
C573 C575 1.387 . S
H574 C581 0.950 . S
C575 C573 1.387 . S
C575 C577 1.390 . S
C575 H579 0.950 . S
H576 C572 0.950 . S
C577 C575 1.390 . S
C577 C578 1.387 . S
C577 H580 0.950 . S
C578 C577 1.387 . S
C578 C581 1.387 . S
H579 C575 0.950 . S
H580 C577 0.950 . S
C581 C572 1.390 . S
C581 H574 0.950 . S
C581 C578 1.387 . S
C582 C583 1.387 . S
C582 H586 0.950 . S
C582 C591 1.390 . S
C583 C582 1.387 . S
C583 C585 1.387 . S
H584 C591 0.950 1_565 S
C585 C583 1.387 . S
C585 C587 1.390 . S
C585 H589 0.950 . S
H586 C582 0.950 . S
C587 C585 1.390 . S
C587 C588 1.394 . S
C587 H590 0.950 1_554 S
C588 C587 1.394 . S
C588 C591 1.404 . S
H589 C585 0.950 . S
H590 C587 0.950 1_556 S
C591 C582 1.390 . S
C591 H584 0.950 1_545 S
C591 C588 1.404 . S
C592 C593 1.387 . S
C592 H596 0.950 . S
C592 C601 1.390 . S
C593 C592 1.387 . S
C593 C595 1.387 . S
H594 C601 0.950 . S
C595 C593 1.387 . S
C595 C597 1.390 . S
C595 H599 0.950 . S
H596 C592 0.950 . S
C597 C595 1.390 . S
C597 C598 1.387 . S
C597 H600 0.950 . S
C598 C597 1.387 . S
C598 C601 1.387 . S
H599 C595 0.950 . S
H600 C597 0.950 . S
C601 C592 1.390 . S
C601 H594 0.950 . S
C601 C598 1.387 . S
C602 C603 1.396 . S
C602 H606 0.950 1_556 S
C602 C611 1.390 . S
C603 C602 1.396 . S
C603 C605 1.402 . S
H604 C611 0.950 . S
C605 C603 1.402 . S
C605 C607 1.390 . S
C605 H609 0.950 . S
H606 C602 0.950 1_554 S
C607 C605 1.390 . S
C607 C608 1.387 . S
C607 H610 0.950 . S
C608 C607 1.387 . S
C608 C611 1.387 . S
H609 C605 0.950 . S
H610 C607 0.950 . S
C611 C602 1.390 . S
C611 H604 0.950 . S
C611 C608 1.387 . S
C612 C613 1.387 . S
C612 H616 0.950 . S
C612 C621 1.390 . S
C613 C612 1.387 . S
C613 C615 1.387 . S
H614 C621 0.950 . S
C615 C613 1.387 . S
C615 C617 1.390 . S
C615 H619 0.950 . S
H616 C612 0.950 . S
C617 C615 1.390 . S
C617 C618 1.387 . S
C617 H620 0.950 . S
C618 C617 1.387 . S
C618 C621 1.387 . S
H619 C615 0.950 . S
H620 C617 0.950 . S
C621 C612 1.390 . S
C621 H614 0.950 . S
C621 C618 1.387 . S
C622 C623 1.387 . S
C622 H626 0.950 . S
C622 C631 1.390 . S
C623 C622 1.387 . S
C623 C625 1.387 . S
H624 C631 0.950 . S
C625 C623 1.387 . S
C625 C627 1.390 . S
C625 H629 0.950 . S
H626 C622 0.950 . S
C627 C625 1.390 . S
C627 C628 1.387 . S
C627 H630 0.950 . S
C628 C627 1.387 . S
C628 C631 1.387 . S
H629 C625 0.950 . S
H630 C627 0.950 . S
C631 C622 1.390 . S
C631 H624 0.950 . S
C631 C628 1.387 . S
C632 C633 1.387 . S
C632 H636 0.950 . S
C632 C641 1.390 . S
C633 C632 1.387 . S
C633 C635 1.387 . S
H634 C641 0.950 . S
C635 C633 1.387 . S
C635 C637 1.390 . S
C635 H639 0.950 . S
H636 C632 0.950 . S
C637 C635 1.390 . S
C637 C638 1.387 . S
C637 H640 0.950 . S
C638 C637 1.387 . S
C638 C641 1.387 . S
H639 C635 0.950 . S
H640 C637 0.950 . S
C641 C632 1.390 . S
C641 H634 0.950 . S
C641 C638 1.387 . S
C642 C643 1.397 . S
C642 H646 0.960 . S
C642 C651 1.390 . S
C643 C642 1.397 . S
C643 C645 1.402 . S
H644 C651 0.950 . S
C645 C643 1.402 . S
C645 C647 1.390 . S
C645 H649 0.950 . S
H646 C642 0.960 . S
C647 C645 1.390 . S
C647 C648 1.387 . S
C647 H650 0.950 . S
C648 C647 1.387 . S
C648 C651 1.387 . S
H649 C645 0.950 . S
H650 C647 0.950 . S
C651 C642 1.390 . S
C651 H644 0.950 . S
C651 C648 1.387 . S
C652 C653 1.387 . S
C652 H656 0.950 . S
C652 C661 1.390 . S
C653 C652 1.387 . S
C653 C655 1.387 . S
H654 C661 0.950 . S
C655 C653 1.387 . S
C655 C657 1.390 . S
C655 H659 0.950 . S
H656 C652 0.950 . S
C657 C655 1.390 . S
C657 C658 1.387 . S
C657 H660 0.950 . S
C658 C657 1.387 . S
C658 C661 1.387 . S
H659 C655 0.950 . S
H660 C657 0.950 . S
C661 C652 1.390 . S
C661 H654 0.950 . S
C661 C658 1.387 . S
C662 C663 1.403 . S
C662 H666 0.950 . S
C662 C671 1.390 . S
C663 C662 1.403 . S
C663 C665 1.401 . S
H664 C671 0.950 . S
C665 C663 1.401 . S
C665 C667 1.390 . S
C665 H669 0.950 . S
H666 C662 0.950 . S
C667 C665 1.390 . S
C667 C668 1.387 . S
C667 H670 0.950 . S
C668 C667 1.387 . S
C668 C671 1.387 . S
H669 C665 0.950 . S
H670 C667 0.950 . S
C671 C662 1.390 . S
C671 H664 0.950 . S
C671 C668 1.387 . S
C672 C673 1.387 . S
C672 H676 0.950 . S
C672 C681 1.390 . S
C673 C672 1.387 . S
C673 C675 1.387 . S
H674 C681 0.950 . S
C675 C673 1.387 . S
C675 C677 1.390 . S
C675 H679 0.950 . S
H676 C672 0.950 . S
C677 C675 1.390 . S
C677 C678 1.387 . S
C677 H680 0.950 . S
C678 C677 1.387 . S
C678 C681 1.387 . S
H679 C675 0.950 . S
H680 C677 0.950 . S
C681 C672 1.390 . S
C681 H674 0.950 . S
C681 C678 1.387 . S
C682 C683 1.387 . S
C682 H686 0.950 . S
C682 C691 1.390 . S
C683 C682 1.387 . S
C683 C685 1.387 . S
H684 C691 0.950 . S
C685 C683 1.387 . S
C685 C687 1.390 . S
C685 H689 0.950 . S
H686 C682 0.950 . S
C687 C685 1.390 . S
C687 C688 1.387 . S
C687 H690 0.950 . S
C688 C687 1.387 . S
C688 C691 1.387 . S
H689 C685 0.950 . S
H690 C687 0.950 . S
C691 C682 1.390 . S
C691 H684 0.950 . S
C691 C688 1.387 . S
C692 C693 1.387 . S
C692 H696 0.950 . S
C692 C701 1.390 . S
C693 C692 1.387 . S
C693 C695 1.387 . S
H694 C701 0.950 . S
C695 C693 1.387 . S
C695 C697 1.390 . S
C695 H699 0.950 . S
H696 C692 0.950 . S
C697 C695 1.390 . S
C697 C698 1.387 . S
C697 H700 0.950 . S
C698 C697 1.387 . S
C698 C701 1.387 . S
H699 C695 0.950 . S
H700 C697 0.950 . S
C701 C692 1.390 . S
C701 H694 0.950 . S
C701 C698 1.387 . S
C702 C703 1.387 . S
C702 H706 0.950 . S
C702 C711 1.390 . S
C703 C702 1.387 . S
C703 C705 1.387 . S
H704 C711 0.950 . S
C705 C703 1.387 . S
C705 C707 1.390 . S
C705 H709 0.950 . S
H706 C702 0.950 . S
C707 C705 1.390 . S
C707 C708 1.387 . S
C707 H710 0.950 . S
C708 C707 1.387 . S
C708 C711 1.387 . S
H709 C705 0.950 . S
H710 C707 0.950 . S
C711 C702 1.390 . S
C711 H704 0.950 . S
C711 C708 1.387 . S
C712 C713 1.387 . S
C712 H716 0.950 . S
C712 C721 1.390 . S
C713 C712 1.387 . S
C713 C715 1.387 . S
H714 C721 0.950 . S
C715 C713 1.387 . S
C715 C717 1.390 . S
C715 H719 0.950 . S
H716 C712 0.950 . S
C717 C715 1.390 . S
C717 C718 1.387 . S
C717 H720 0.950 . S
C718 C717 1.387 . S
C718 C721 1.387 . S
H719 C715 0.950 . S
H720 C717 0.950 . S
C721 C712 1.390 . S
C721 H714 0.950 . S
C721 C718 1.387 . S
C722 C723 1.387 . S
C722 H726 0.950 . S
C722 C731 1.390 . S
C723 C722 1.387 . S
C723 C725 1.387 . S
H724 C731 0.950 . S
C725 C723 1.387 . S
C725 C727 1.390 . S
C725 H729 0.950 . S
H726 C722 0.950 . S
C727 C725 1.390 . S
C727 C728 1.387 . S
C727 H730 0.950 . S
C728 C727 1.387 . S
C728 C731 1.387 . S
H729 C725 0.950 . S
H730 C727 0.950 . S
C731 C722 1.390 . S
C731 H724 0.950 . S
C731 C728 1.387 . S
C732 C733 1.398 . S
C732 H736 0.950 . S
C732 C741 1.390 . S
C733 C732 1.398 . S
C733 C735 1.401 . S
H734 C741 0.950 . S
C735 C733 1.401 . S
C735 C737 1.390 . S
C735 H739 0.950 . S
H736 C732 0.950 . S
C737 C735 1.390 . S
C737 C738 1.387 . S
C737 H740 0.950 . S
C738 C737 1.387 . S
C738 C741 1.387 . S
H739 C735 0.950 . S
H740 C737 0.950 . S
C741 C732 1.390 . S
C741 H734 0.950 . S
C741 C738 1.387 . S
C742 C743 1.387 . S
C742 H746 0.950 . S
C742 C751 1.390 . S
C743 C742 1.387 . S
C743 C745 1.387 . S
H744 C751 0.950 . S
C745 C743 1.387 . S
C745 C747 1.390 . S
C745 H749 0.950 . S
H746 C742 0.950 . S
C747 C745 1.390 . S
C747 C748 1.387 . S
C747 H750 0.950 . S
C748 C747 1.387 . S
C748 C751 1.387 . S
H749 C745 0.950 . S
H750 C747 0.950 . S
C751 C742 1.390 . S
C751 H744 0.950 . S
C751 C748 1.387 . S
C752 C753 1.387 . S
C752 H756 0.950 . S
C752 C761 1.390 . S
C753 C752 1.387 . S
C753 C755 1.387 . S
H754 C761 0.950 . S
C755 C753 1.387 . S
C755 C757 1.390 . S
C755 H759 0.950 . S
H756 C752 0.950 . S
C757 C755 1.390 . S
C757 C758 1.387 . S
C757 H760 0.950 . S
C758 C757 1.387 . S
C758 C761 1.387 . S
H759 C755 0.950 . S
H760 C757 0.950 . S
C761 C752 1.390 . S
C761 H754 0.950 . S
C761 C758 1.387 . S
C762 C763 1.387 . S
C762 H766 0.950 . S
C762 C771 1.390 . S
C763 C762 1.387 . S
C763 C765 1.387 . S
H764 C771 0.950 . S
C765 C763 1.387 . S
C765 C767 1.390 . S
C765 H769 0.950 . S
H766 C762 0.950 . S
C767 C765 1.390 . S
C767 C768 1.387 . S
C767 H770 0.950 . S
C768 C767 1.387 . S
C768 C771 1.387 . S
H769 C765 0.950 . S
H770 C767 0.950 . S
C771 C762 1.390 . S
C771 H764 0.950 . S
C771 C768 1.387 . S
C772 C773 1.387 . S
C772 H776 0.950 . S
C772 C781 1.390 . S
C773 C772 1.387 . S
C773 C775 1.387 . S
H774 C781 0.950 . S
C775 C773 1.387 . S
C775 C777 1.390 . S
C775 H779 0.950 . S
H776 C772 0.950 . S
C777 C775 1.390 . S
C777 C778 1.387 . S
C777 H780 0.950 . S
C778 C777 1.387 . S
C778 C781 1.387 . S
H779 C775 0.950 . S
H780 C777 0.950 . S
C781 C772 1.390 . S
C781 H774 0.950 . S
C781 C778 1.387 . S
C782 C783 1.387 . S
C782 H786 0.950 . S
C782 C791 1.390 . S
C783 C782 1.387 . S
C783 C785 1.387 . S
H784 C791 0.950 . S
C785 C783 1.387 . S
C785 C787 1.390 . S
C785 H789 0.950 . S
H786 C782 0.950 . S
C787 C785 1.390 . S
C787 C788 1.402 . S
C787 H790 0.950 . S
C788 C787 1.402 . S
C788 C791 1.403 . S
H789 C785 0.950 . S
H790 C787 0.950 . S
C791 C782 1.390 . S
C791 H784 0.950 . S
C791 C788 1.403 . S
C313 C121 1.348 . S
C318 C4 1.348 . S
C323 C23 1.346 . S
C328 C140 1.346 . S
C333 C36 1.348 . S
C338 C147 1.348 . S
C343 C49 1.348 . S
C348 C108 1.348 . S
C353 C56 1.346 . S
C358 C199 1.346 . S
C363 C166 1.347 . S
C368 C69 1.347 . S
C373 C88 1.346 . S
C378 C179 1.346 . S
C383 C186 1.347 . S
C388 C101 1.347 . S
C393 C212 1.348 . S
C398 C238 1.348 . S
C403 C290 1.347 . S
C408 C225 1.347 . S
C413 C251 1.346 . S
C418 C309 1.346 . S
C423 C283 1.347 . S
C428 C270 1.347 . S
C433 C264 1.885 . S
C438 C10 1.885 . S
C443 C17 1.885 . S
C448 C231 1.885 . S
C453 C30 1.884 . S
C458 C244 1.883 . S
C463 C43 1.883 . S
C468 C257 1.885 . S
C473 C62 1.885 . S
C478 C303 1.884 . S
C483 C277 1.883 . S
C488 C75 1.883 . S
C493 C296 1.884 . S
C498 C82 1.885 . S
C503 C218 1.883 . S
C508 C95 1.884 . S
C513 C205 1.883 . S
C518 C114 1.883 . S
C523 C127 1.883 . S
C528 C160 1.885 . S
C533 C173 1.885 . S
C538 C134 1.884 . S
C543 C192 1.884 . S
C548 C153 1.885 . S
C553 C5 1.430 . S
C558 C211 1.473 . S
C563 C304 1.473 1_565 S
C568 C16 1.430 . S
C573 C278 1.475 . S
C578 C29 1.427 . S
C583 C42 1.428 . S
C588 C289 1.456 1_544 S
C593 C57 1.427 . S
C598 C224 1.475 . S
C603 C237 1.455 1_556 S
C608 C70 1.427 . S
C613 C250 1.473 . S
C618 C81 1.430 . S
C623 C265 1.475 . S
C628 C94 1.430 . S
C633 C3 1.475 . S
C638 C109 1.427 . S
C643 C18 1.455 1_445 S
C648 C122 1.427 . S
C653 C31 1.473 . S
C658 C133 1.430 . S
C663 C44 1.449 1_565 S
C668 C148 1.430 . S
C673 C55 1.473 . S
C678 C159 1.430 . S
C683 C68 1.473 1_655 S
C688 C172 1.430 . S
C693 C187 1.430 . S
C698 C83 1.473 . S
C703 C96 1.475 . S
C708 C200 1.427 . S
C713 C107 1.474 . S
C718 C213 1.427 . S
C723 C226 1.429 . S
C728 C161 1.473 . S
C733 C174 1.455 1_454 S
C738 C239 1.427 . S
C743 C252 1.427 . S
C748 C185 1.474 . S
C753 C263 1.428 . S
C758 C198 1.475 . S
C763 C276 1.429 . S
C768 C135 1.473 . S
C773 C146 1.475 1_556 S
C778 C291 1.428 . S
C783 C302 1.430 . S
C788 C120 1.449 1_655 S
