# Generated by pormake.
# Topology zfs, (5)-cn, num edge types: 1
# Building blocks:
#     Node 0, Type 0, BuildingBlock: BEQFEK_clean_sbu_0, # of connection points: 5
#     Node 1, Type 0, BuildingBlock: BEQFEK_clean_sbu_0, # of connection points: 5
#     Node 2, Type 0, BuildingBlock: BEQFEK_clean_sbu_0, # of connection points: 5
#     Node 3, Type 0, BuildingBlock: BEQFEK_clean_sbu_0, # of connection points: 5
#     Node 4, Type 0, BuildingBlock: BEQFEK_clean_sbu_0, # of connection points: 5
#     Node 5, Type 0, BuildingBlock: BEQFEK_clean_sbu_0, # of connection points: 5
#     Node 6, Type 0, BuildingBlock: BEQFEK_clean_sbu_0, # of connection points: 5
#     Node 7, Type 0, BuildingBlock: BEQFEK_clean_sbu_0, # of connection points: 5
#     Edge 8, Type (0, 0), BuildingBlock: TEMPAE_clean_linker_10, # of connection points: 2
#     Edge 9, Type (0, 0), BuildingBlock: TEMPAE_clean_linker_10, # of connection points: 2
#     Edge 10, Type (0, 0), BuildingBlock: TEMPAE_clean_linker_10, # of connection points: 2
#     Edge 11, Type (0, 0), BuildingBlock: TEMPAE_clean_linker_10, # of connection points: 2
#     Edge 12, Type (0, 0), BuildingBlock: TEMPAE_clean_linker_10, # of connection points: 2
#     Edge 13, Type (0, 0), BuildingBlock: TEMPAE_clean_linker_10, # of connection points: 2
#     Edge 14, Type (0, 0), BuildingBlock: TEMPAE_clean_linker_10, # of connection points: 2
#     Edge 15, Type (0, 0), BuildingBlock: TEMPAE_clean_linker_10, # of connection points: 2
#     Edge 16, Type (0, 0), BuildingBlock: TEMPAE_clean_linker_10, # of connection points: 2
#     Edge 17, Type (0, 0), BuildingBlock: TEMPAE_clean_linker_10, # of connection points: 2
#     Edge 18, Type (0, 0), BuildingBlock: TEMPAE_clean_linker_10, # of connection points: 2
#     Edge 19, Type (0, 0), BuildingBlock: TEMPAE_clean_linker_10, # of connection points: 2
#     Edge 20, Type (0, 0), BuildingBlock: TEMPAE_clean_linker_10, # of connection points: 2
#     Edge 21, Type (0, 0), BuildingBlock: TEMPAE_clean_linker_10, # of connection points: 2
#     Edge 22, Type (0, 0), BuildingBlock: TEMPAE_clean_linker_10, # of connection points: 2
#     Edge 23, Type (0, 0), BuildingBlock: TEMPAE_clean_linker_10, # of connection points: 2
#     Edge 24, Type (0, 0), BuildingBlock: TEMPAE_clean_linker_10, # of connection points: 2
#     Edge 25, Type (0, 0), BuildingBlock: TEMPAE_clean_linker_10, # of connection points: 2
#     Edge 26, Type (0, 0), BuildingBlock: TEMPAE_clean_linker_10, # of connection points: 2
#     Edge 27, Type (0, 0), BuildingBlock: TEMPAE_clean_linker_10, # of connection points: 2
# Relax obj value: 0.291
# Max RMSD: 0.155
# Mean RMSD: 0.155
data_MOF--net-zfs--node1-BEQFEK_clean_sbu_0--edge1-TEMPAE_clean_linker_10
_symmetry_space_group_name_H-M    P1
_symmetry_Int_Tables_number       1
_symmetry_cell_setting            triclinic
loop_
_symmetry_equiv_pos_as_xyz
'x, y, z'
_cell_length_a     32.814016
_cell_length_b     32.849336
_cell_length_c     42.420598
_cell_angle_alpha  89.988892
_cell_angle_beta   89.996833
_cell_angle_gamma 89.998005
loop_
_atom_site_label
_atom_site_type_symbol
_atom_site_fract_x
_atom_site_fract_y
_atom_site_fract_z
_atom_type_partial_charge
Co0 Co 0.06469 0.27227 0.25035 0.0
Co1 Co 0.99483 0.2811 0.20117 0.0
C2 C 0.03331 0.35337 0.23597 0.0
O3 O 0.05936 0.3316 0.25032 0.0
O4 O 0.00735 0.3373 0.21738 0.0
C5 C 0.13405 0.28047 0.29199 0.0
O6 O 0.12924 0.31992 0.28859 0.0
C7 C 0.98246 0.30882 0.1383 0.0
C8 C 0.93206 0.27096 0.12045 0.0
C9 C 0.96274 0.2973 0.11079 0.0
N10 N 0.96571 0.28882 0.16267 0.0
N11 N 0.93461 0.26724 0.15209 0.0
C12 C 0.01838 0.33673 0.1415 0.0
H13 H 0.02377 0.35441 0.11961 0.0
H14 H 0.0129 0.35855 0.16092 0.0
H15 H 0.04595 0.31877 0.14748 0.0
C16 C 0.10589 0.23281 0.19575 0.0
N17 N 0.07406 0.25196 0.20939 0.0
N18 N 0.0427 0.251 0.19026 0.0
C19 C 0.05264 0.22874 0.16466 0.0
C20 C 0.09346 0.21739 0.16664 0.0
C21 C 0.14741 0.23053 0.21021 0.0
H22 H 0.15324 0.25805 0.22466 0.0
H23 H 0.17132 0.22794 0.19182 0.0
H24 H 0.149 0.2035 0.22586 0.0
O25 O 0.01406 0.24776 0.26898 0.0
O26 O 0.96369 0.25121 0.23396 0.0
H27 H 0.03117 0.18184 0.13316 0.0
H28 H 0.02006 0.23293 0.12108 0.0
C29 C 0.02206 0.21245 0.1417 0.0
H30 H 0.99173 0.21009 0.153 0.0
H31 H 0.91762 0.24713 0.16588 0.0
O32 O 0.11024 0.25611 0.27778 0.0
C33 C 0.97713 0.24084 0.26105 0.0
Co34 Co 0.74334 0.06167 0.50144 0.0
Co35 Co 0.73054 0.9949 0.44981 0.0
C36 C 0.65944 0.03209 0.48344 0.0
O37 O 0.68299 0.05475 0.49963 0.0
O38 O 0.67375 0.00732 0.46316 0.0
C39 C 0.73004 0.13149 0.54216 0.0
O40 O 0.69092 0.12505 0.53798 0.0
C41 C 0.70298 0.96294 0.38951 0.0
C42 C 0.7594 0.93465 0.37191 0.0
C43 C 0.72161 0.9489 0.36199 0.0
N44 N 0.72984 0.96049 0.41334 0.0
N45 N 0.76274 0.94161 0.40305 0.0
C46 C 0.66063 0.97889 0.39366 0.0
H47 H 0.66138 0.01258 0.39565 0.0
H48 H 0.64053 0.96942 0.37395 0.0
H49 H 0.64775 0.96652 0.4158 0.0
C50 C 0.78891 0.10195 0.44989 0.0
N51 N 0.76563 0.07135 0.46116 0.0
N52 N 0.75908 0.04449 0.43872 0.0
C53 C 0.77697 0.05826 0.41201 0.0
C54 C 0.79704 0.09459 0.41828 0.0
C55 C 0.80532 0.1358 0.46979 0.0
H56 H 0.81817 0.12307 0.49188 0.0
H57 H 0.78002 0.15659 0.47628 0.0
H58 H 0.82936 0.1533 0.45738 0.0
O59 O 0.76951 0.01333 0.52045 0.0
O60 O 0.75908 0.9648 0.48481 0.0
H61 H 0.79158 0.01172 0.37883 0.0
H62 H 0.78166 0.06041 0.36106 0.0
C63 C 0.77236 0.03933 0.38018 0.0
H64 H 0.74005 0.0315 0.37629 0.0
H65 H 0.78916 0.93754 0.41638 0.0
O66 O 0.7559 0.10832 0.52892 0.0
C67 C 0.77309 0.97658 0.51136 0.0
Co68 Co 0.94229 0.73557 0.75151 0.0
Co69 Co 0.01292 0.72868 0.70282 0.0
C70 C 0.97411 0.65492 0.73566 0.0
O71 O 0.94802 0.67627 0.75034 0.0
O72 O 1.00033 0.67159 0.71758 0.0
C73 C 0.87078 0.72592 0.791 0.0
O74 O 0.87498 0.68658 0.78651 0.0
C75 C 0.02699 0.70443 0.63926 0.0
C76 C 0.07739 0.74377 0.62341 0.0
C77 C 0.04715 0.7178 0.61243 0.0
N78 N 0.04303 0.7231 0.66452 0.0
N79 N 0.07415 0.74556 0.6551 0.0
C80 C 0.9913 0.67602 0.64105 0.0
H81 H 0.9633 0.69346 0.64675 0.0
H82 H 0.98698 0.65911 0.61867 0.0
H83 H 0.99627 0.6536 0.66016 0.0
C84 C 0.90167 0.77639 0.69721 0.0
N85 N 0.93341 0.75703 0.7108 0.0
N86 N 0.96508 0.75888 0.69201 0.0
C87 C 0.95545 0.78208 0.66684 0.0
C88 C 0.9145 0.793 0.6686 0.0
C89 C 0.85983 0.77774 0.71119 0.0
H90 H 0.8539 0.7495 0.72477 0.0
H91 H 0.83628 0.78101 0.6926 0.0
H92 H 0.85772 0.804 0.72756 0.0
O93 O 0.99231 0.76019 0.77127 0.0
O94 O 0.04304 0.758 0.73646 0.0
H95 H 0.97709 0.83076 0.63707 0.0
H96 H 0.98898 0.78048 0.62358 0.0
C97 C 0.98635 0.79983 0.64479 0.0
H98 H 0.01641 0.80192 0.65654 0.0
H99 H 0.09062 0.765 0.6698 0.0
O100 O 0.89585 0.7505 0.77841 0.0
C101 C 0.02923 0.7677 0.76359 0.0
Co102 Co 0.26503 0.94851 0.00208 0.0
Co103 Co 0.27986 0.01386 0.94976 0.0
C104 C 0.34911 0.976 0.98674 0.0
O105 O 0.32528 0.95318 0.00243 0.0
O106 O 0.33514 1.00052 0.9662 0.0
C107 C 0.27425 0.87704 0.04104 0.0
O108 O 0.31288 0.87836 0.03301 0.0
C109 C 0.3141 0.03303 0.88888 0.0
C110 C 0.26912 0.07544 0.86867 0.0
C111 C 0.3021 0.05101 0.86071 0.0
N112 N 0.28802 0.04423 0.91171 0.0
N113 N 0.2622 0.07098 0.89981 0.0
C114 C 0.34822 1.00344 0.8939 0.0
H115 H 0.33559 0.97324 0.90043 0.0
H116 H 0.36802 1.00076 0.87281 0.0
H117 H 0.36744 0.01419 0.91363 0.0
C118 C 0.22055 0.90729 0.9504 0.0
N119 N 0.24422 0.93772 0.96144 0.0
N120 N 0.24895 0.9655 0.93941 0.0
C121 C 0.22794 0.9535 0.91356 0.0
C122 C 0.20935 0.91624 0.9196 0.0
C123 C 0.20588 0.87248 0.97014 0.0
H124 H 0.19037 0.88454 0.99141 0.0
H125 H 0.23242 0.85425 0.97809 0.0
H126 H 0.18436 0.85261 0.95713 0.0
O127 O 0.23953 0.99905 0.01871 0.0
O128 O 0.25048 0.04693 0.98245 0.0
H129 H 0.21346 0.00774 0.88807 0.0
H130 H 0.20693 0.96176 0.86528 0.0
C131 C 0.22582 0.97695 0.88341 0.0
H132 H 0.2568 0.97968 0.87369 0.0
H133 H 0.23752 0.08313 0.91215 0.0
O134 O 0.24975 0.90379 0.03056 0.0
C135 C 0.23603 0.03563 0.00902 0.0
Co136 Co 0.06623 0.73812 0.25287 0.0
Co137 Co 0.99486 0.73294 0.30079 0.0
C138 C 0.03368 0.65795 0.27091 0.0
O139 O 0.0596 0.67897 0.25574 0.0
O140 O 0.00732 0.67501 0.28862 0.0
C141 C 0.13219 0.72519 0.20896 0.0
O142 O 0.11984 0.68717 0.20823 0.0
C143 C 0.97298 0.71203 0.36406 0.0
C144 C 0.91993 0.75126 0.37399 0.0
C145 C 0.94764 0.72503 0.38808 0.0
N146 N 0.96122 0.72998 0.33715 0.0
N147 N 0.92866 0.75245 0.34294 0.0
C148 C 0.01222 0.68916 0.36775 0.0
H149 H 0.03088 0.69091 0.34603 0.0
H150 H 0.02995 0.70146 0.3879 0.0
H151 H 0.00535 0.65675 0.37289 0.0
C152 C 0.10603 0.78064 0.30656 0.0
N153 N 0.07417 0.76132 0.29316 0.0
N154 N 0.0427 0.76294 0.3122 0.0
C155 C 0.05279 0.78555 0.33762 0.0
C156 C 0.09363 0.79687 0.33538 0.0
C157 C 0.14781 0.78168 0.29243 0.0
H158 H 0.1537 0.75314 0.27923 0.0
H159 H 0.1715 0.78537 0.31087 0.0
H160 H 0.14981 0.80754 0.27566 0.0
O161 O 0.01754 0.76222 0.2312 0.0
O162 O 0.96634 0.76038 0.26545 0.0
H163 H 0.03176 0.83125 0.37037 0.0
H164 H 0.02139 0.7796 0.38161 0.0
C165 C 0.02268 0.80086 0.36136 0.0
H166 H 0.99204 0.80339 0.35062 0.0
H167 H 0.91467 0.77129 0.32635 0.0
O168 O 0.11371 0.75072 0.22632 0.0
C169 C 0.98043 0.76945 0.23832 0.0
Co170 Co 0.27111 0.06341 0.50231 0.0
Co171 Co 0.28319 0.99474 0.5519 0.0
C172 C 0.35446 0.03482 0.5194 0.0
O173 O 0.33143 0.05844 0.50369 0.0
O174 O 0.33948 0.00899 0.53849 0.0
C175 C 0.28234 0.12965 0.45835 0.0
O176 O 0.32092 0.11904 0.45842 0.0
C177 C 0.31079 0.97287 0.61364 0.0
C178 C 0.27246 0.92004 0.62604 0.0
C179 C 0.30028 0.94756 0.63847 0.0
N180 N 0.2896 0.96143 0.58809 0.0
N181 N 0.26773 0.92896 0.59525 0.0
C182 C 0.33475 0.0117 0.61543 0.0
H183 H 0.32675 0.03232 0.59571 0.0
H184 H 0.32923 0.02768 0.63807 0.0
H185 H 0.36771 0.00441 0.61394 0.0
C186 C 0.22512 0.10147 0.55472 0.0
N187 N 0.24856 0.07146 0.54284 0.0
N188 N 0.25165 0.04188 0.5636 0.0
C189 C 0.22948 0.052 0.58935 0.0
C190 C 0.21218 0.09024 0.58467 0.0
C191 C 0.21251 0.13834 0.53641 0.0
H192 H 0.19643 0.12855 0.51469 0.0
H193 H 0.24006 0.15553 0.52913 0.0
H194 H 0.19206 0.15848 0.55017 0.0
O195 O 0.24578 0.01432 0.48281 0.0
O196 O 0.25552 0.96412 0.51729 0.0
H197 H 0.22024 0.99364 0.61091 0.0
H198 H 0.19933 0.03526 0.63325 0.0
C199 C 0.22494 0.02571 0.61802 0.0
H200 H 0.25292 0.02797 0.63244 0.0
H201 H 0.24708 0.91509 0.57993 0.0
O202 O 0.25706 0.11014 0.47529 0.0
C203 C 0.24194 0.97715 0.49097 0.0
Co204 Co 0.9437 0.26797 0.75195 0.0
Co205 Co 0.01324 0.27646 0.80127 0.0
C206 C 0.97462 0.34971 0.76961 0.0
O207 O 0.94954 0.32774 0.75437 0.0
O208 O 1.0007 0.33366 0.78807 0.0
C209 C 0.87447 0.28039 0.71042 0.0
O210 O 0.88227 0.31948 0.7128 0.0
C211 C 0.03888 0.30167 0.86306 0.0
C212 C 0.0889 0.25899 0.87388 0.0
C213 C 0.06394 0.2884 0.88726 0.0
N214 N 0.04794 0.28047 0.83695 0.0
N215 N 0.07888 0.25603 0.84317 0.0
C216 C 1.00212 0.32855 0.86598 0.0
H217 H 0.97995 0.32207 0.84691 0.0
H218 H 0.987 0.32448 0.88916 0.0
H219 H 0.0119 0.36078 0.86404 0.0
C220 C 0.90497 0.22158 0.80409 0.0
N221 N 0.93567 0.24421 0.79224 0.0
N222 N 0.96522 0.24655 0.8131 0.0
C223 C 0.95438 0.22473 0.83886 0.0
C224 C 0.91572 0.2084 0.83409 0.0
C225 C 0.86764 0.21022 0.78583 0.0
H226 H 0.87687 0.19435 0.76388 0.0
H227 H 0.85103 0.23828 0.77896 0.0
H228 H 0.8471 0.19002 0.79947 0.0
O229 O 0.99256 0.24434 0.7309 0.0
O230 O 0.04219 0.24753 0.76646 0.0
H231 H 0.01205 0.21304 0.86083 0.0
H232 H 0.96918 0.19553 0.88356 0.0
C233 C 0.98024 0.21986 0.86772 0.0
H234 H 0.97953 0.24848 0.88142 0.0
H235 H 0.09065 0.2348 0.82729 0.0
O236 O 0.89662 0.25488 0.72504 0.0
C237 C 0.02931 0.23755 0.73915 0.0
Co238 Co 0.73603 0.94189 0.99996 0.0
Co239 Co 0.72861 0.00934 0.05165 0.0
C240 C 0.65437 0.97188 0.02128 0.0
O241 O 0.67626 0.94793 0.00485 0.0
O242 O 0.67063 0.99755 0.04001 0.0
C243 C 0.72101 0.87658 0.95537 0.0
O244 O 0.68284 0.88862 0.95539 0.0
C245 C 0.70351 0.04224 0.11225 0.0
C246 C 0.7612 0.06836 0.12935 0.0
C247 C 0.72305 0.05555 0.13958 0.0
N248 N 0.73003 0.04375 0.08815 0.0
N249 N 0.76378 0.06137 0.09815 0.0
C250 C 0.66039 0.02837 0.10849 0.0
H251 H 0.64769 0.042 0.08673 0.0
H252 H 0.65952 0.99475 0.10597 0.0
H253 H 0.64118 0.03822 0.12862 0.0
C254 C 0.7863 0.90231 0.0494 0.0
N255 N 0.76205 0.93276 0.03912 0.0
N256 N 0.75712 0.95964 0.06178 0.0
C257 C 0.77703 0.94607 0.08766 0.0
C258 C 0.79683 0.90987 0.08056 0.0
C259 C 0.80124 0.86837 0.0289 0.0
H260 H 0.81263 0.88104 0.00632 0.0
H261 H 0.77548 0.84765 0.02346 0.0
H262 H 0.82603 0.85082 0.04036 0.0
O263 O 0.75873 0.99066 0.979 0.0
O264 O 0.75665 0.03852 0.01597 0.0
H265 H 0.79511 0.99187 0.12045 0.0
H266 H 0.78417 0.94353 0.13838 0.0
C267 C 0.7747 0.96507 0.11962 0.0
H268 H 0.74295 0.97419 0.12452 0.0
H269 H 0.79012 0.06448 0.08457 0.0
O270 O 0.74699 0.89509 0.97232 0.0
C271 C 0.76576 0.02693 0.9881 0.0
C272 C 0.05999 0.59465 0.24508 0.0
C273 C 0.0336 0.61302 0.26693 0.0
C274 C 0.05966 0.55243 0.24016 0.0
C275 C 0.03242 0.52778 0.25759 0.0
C276 C 0.00594 0.54596 0.27989 0.0
C277 C 0.00679 0.58838 0.28427 0.0
C278 C 0.08837 0.53424 0.21614 0.0
C279 C 0.97664 0.5206 0.29906 0.0
C280 C 0.00669 0.42342 0.22418 0.0
C281 C 0.03283 0.39802 0.24146 0.0
C282 C 0.00598 0.46566 0.22936 0.0
C283 C 0.03188 0.48293 0.25248 0.0
C284 C 0.05814 0.45746 0.27013 0.0
C285 C 0.05838 0.4154 0.26436 0.0
C286 C 0.97776 0.49188 0.20991 0.0
C287 C 0.08619 0.47469 0.29501 0.0
H288 H 0.08081 0.6133 0.2315 0.0
H289 H 0.98635 0.60222 0.30124 0.0
H290 H 0.10861 0.51163 0.22764 0.0
H291 H 0.07075 0.51788 0.19777 0.0
H292 H 0.10762 0.55764 0.20449 0.0
H293 H 0.9583 0.53932 0.31561 0.0
H294 H 0.9556 0.50399 0.28314 0.0
H295 H 0.99367 0.49744 0.31281 0.0
H296 H 0.98684 0.41036 0.20644 0.0
H297 H 0.0786 0.3961 0.27796 0.0
H298 H 0.99574 0.51442 0.19627 0.0
H299 H 0.957 0.50922 0.22559 0.0
H300 H 0.9591 0.4737 0.1932 0.0
H301 H 0.10775 0.49656 0.28411 0.0
H302 H 0.10403 0.45066 0.30722 0.0
H303 H 0.06825 0.49171 0.31284 0.0
C304 C 0.58815 0.00865 0.47179 0.0
C305 C 0.61463 0.03425 0.4886 0.0
C306 C 0.54585 0.00988 0.47673 0.0
C307 C 0.52945 0.03729 0.49914 0.0
C308 C 0.55587 0.0634 0.51609 0.0
C309 C 0.59808 0.06159 0.51061 0.0
C310 C 0.51872 0.98155 0.45814 0.0
C311 C 0.53957 0.09303 0.5402 0.0
C312 C 0.41664 0.0629 0.4925 0.0
C313 C 0.39937 0.03669 0.51499 0.0
C314 C 0.45895 0.06384 0.48739 0.0
C315 C 0.4847 0.03799 0.50521 0.0
C316 C 0.46757 0.01197 0.52828 0.0
C317 C 0.42519 0.01163 0.53289 0.0
C318 C 0.47605 0.09205 0.4626 0.0
C319 C 0.49398 0.98403 0.54783 0.0
H320 H 0.60041 0.98729 0.45486 0.0
H321 H 0.61812 0.08153 0.52378 0.0
H322 H 0.50214 0.96097 0.47444 0.0
H323 H 0.49552 0.99932 0.44501 0.0
H324 H 0.53614 0.96269 0.44108 0.0
H325 H 0.56406 0.11177 0.55099 0.0
H326 H 0.51699 0.11366 0.52908 0.0
H327 H 0.52355 0.07623 0.55921 0.0
H328 H 0.39707 0.08244 0.47856 0.0
H329 H 0.41228 0.99139 0.55044 0.0
H330 H 0.49146 0.07404 0.44396 0.0
H331 H 0.4993 0.11239 0.47319 0.0
H332 H 0.45209 0.11111 0.45142 0.0
H333 H 0.51008 0.9622 0.53224 0.0
H334 H 0.47608 0.96653 0.56546 0.0
H335 H 0.5176 1.00191 0.56041 0.0
C336 C 0.94716 0.5919 0.76172 0.0
C337 C 0.9742 0.61002 0.7402 0.0
C338 C 0.94709 0.54967 0.76678 0.0
C339 C 0.97464 0.52473 0.74988 0.0
C340 C 1.00189 0.54269 0.72802 0.0
C341 C 1.00139 0.5851 0.72346 0.0
C342 C 0.91754 0.53174 0.7903 0.0
C343 C 0.03159 0.51708 0.70943 0.0
C344 C 0.99947 0.41993 0.78314 0.0
C345 C 0.97419 0.39459 0.76503 0.0
C346 C 0.99997 0.46229 0.77843 0.0
C347 C 0.9747 0.47981 0.75499 0.0
C348 C 0.94906 0.45445 0.73671 0.0
C349 C 0.94905 0.41224 0.74198 0.0
C350 C 0.02753 0.48833 0.79857 0.0
C351 C 0.92168 0.47191 0.71148 0.0
H352 H 0.92603 0.61076 0.77484 0.0
H353 H 0.02235 0.5987 0.70676 0.0
H354 H 0.89744 0.50932 0.77845 0.0
H355 H 0.93448 0.51521 0.80897 0.0
H356 H 0.89818 0.55532 0.80161 0.0
H357 H 0.05069 0.53565 0.69328 0.0
H358 H 0.05192 0.50023 0.72576 0.0
H359 H 0.01482 0.49413 0.6953 0.0
H360 H 0.01894 0.40669 0.80105 0.0
H361 H 0.92948 0.39303 0.72776 0.0
H362 H 0.00918 0.51108 0.81169 0.0
H363 H 0.0491 0.50543 0.78339 0.0
H364 H 0.04532 0.47005 0.81578 0.0
H365 H 0.90019 0.49412 0.72206 0.0
H366 H 0.90377 0.44804 0.69914 0.0
H367 H 0.94017 0.48859 0.6938 0.0
C368 C 0.42028 1.00066 0.9765 0.0
C369 C 0.39378 0.97425 0.99255 0.0
C370 C 0.46253 0.99936 0.98158 0.0
C371 C 0.47884 0.97127 0.00352 0.0
C372 C 0.45236 0.94469 0.01998 0.0
C373 C 0.41019 0.94642 0.01425 0.0
C374 C 0.48974 0.02812 0.96344 0.0
C375 C 0.46856 0.91449 0.0437 0.0
C376 C 0.59119 0.94471 0.99534 0.0
C377 C 0.60926 0.97048 0.01777 0.0
C378 C 0.54878 0.94421 0.99078 0.0
C379 C 0.52366 0.96991 0.00921 0.0
C380 C 0.54153 0.99539 0.0323 0.0
C381 C 0.58405 0.99547 0.03621 0.0
C382 C 0.53094 0.91672 0.96581 0.0
C383 C 0.51578 0.02308 0.05257 0.0
H384 H 0.40805 0.02262 0.95999 0.0
H385 H 0.39008 0.92594 0.02687 0.0
H386 H 0.50665 0.048 0.98004 0.0
H387 H 0.51266 0.01059 0.94982 0.0
H388 H 0.47234 0.04768 0.94684 0.0
H389 H 0.44394 0.89607 0.05465 0.0
H390 H 0.49051 0.89358 0.03215 0.0
H391 H 0.48532 0.93073 0.06262 0.0
H392 H 0.61022 0.92523 0.98091 0.0
H393 H 0.59747 0.01546 0.05358 0.0
H394 H 0.5154 0.93533 0.94758 0.0
H395 H 0.50766 0.89639 0.97637 0.0
H396 H 0.55448 0.89767 0.95412 0.0
H397 H 0.49996 0.04574 0.03752 0.0
H398 H 0.53415 0.03963 0.07045 0.0
H399 H 0.49194 0.00518 0.06489 0.0
C400 C 0.22678 0.17429 0.43835 0.0
C401 C 0.26727 0.161 0.43631 0.0
C402 C 0.20997 0.19938 0.41509 0.0
C403 C 0.23428 0.21141 0.38916 0.0
C404 C 0.27599 0.20056 0.38811 0.0
C405 C 0.29207 0.17541 0.41179 0.0
C406 C 0.16541 0.21064 0.41721 0.0
C407 C 0.30291 0.21321 0.36097 0.0
C408 C 0.17195 0.22201 0.31495 0.0
C409 C 0.16452 0.26402 0.31418 0.0
C410 C 0.19663 0.20484 0.3383 0.0
C411 C 0.21436 0.23032 0.36143 0.0
C412 C 0.20914 0.27302 0.35965 0.0
C413 C 0.18418 0.28944 0.33596 0.0
C414 C 0.20174 0.15913 0.33923 0.0
C415 C 0.22798 0.3011 0.38374 0.0
H416 H 0.20763 0.16382 0.45754 0.0
H417 H 0.32352 0.16553 0.41023 0.0
H418 H 0.16126 0.24375 0.41326 0.0
H419 H 0.14817 0.19443 0.39853 0.0
H420 H 0.15198 0.20255 0.44042 0.0
H421 H 0.33571 0.20836 0.36626 0.0
H422 H 0.29493 0.19506 0.3398 0.0
H423 H 0.29805 0.24574 0.35502 0.0
H424 H 0.15738 0.20225 0.29787 0.0
H425 H 0.17878 0.32199 0.33534 0.0
H426 H 0.18623 0.14673 0.36041 0.0
H427 H 0.23446 0.151 0.34104 0.0
H428 H 0.18879 0.14405 0.31804 0.0
H429 H 0.21149 0.29799 0.40645 0.0
H430 H 0.22652 0.33348 0.37625 0.0
H431 H 0.26027 0.29282 0.38808 0.0
C432 C 0.71801 0.18005 0.5867 0.0
C433 C 0.74446 0.16291 0.56438 0.0
C434 C 0.73302 0.20538 0.61071 0.0
C435 C 0.77531 0.21362 0.61219 0.0
C436 C 0.80155 0.19878 0.58833 0.0
C437 C 0.7858 0.17356 0.56475 0.0
C438 C 0.70409 0.22105 0.63555 0.0
C439 C 0.84682 0.20724 0.58886 0.0
C440 C 0.82662 0.29091 0.66515 0.0
C441 C 0.84315 0.26532 0.68833 0.0
C442 C 0.80176 0.27506 0.64116 0.0
C443 C 0.79344 0.2328 0.64054 0.0
C444 C 0.80749 0.20751 0.66526 0.0
C445 C 0.83219 0.2241 0.68885 0.0
C446 C 0.78682 0.30301 0.6154 0.0
C447 C 0.79894 0.16231 0.66564 0.0
H448 H 0.68594 0.17214 0.58637 0.0
H449 H 0.80627 0.16099 0.54721 0.0
H450 H 0.70817 0.2032 0.65754 0.0
H451 H 0.71066 0.25336 0.64121 0.0
H452 H 0.67177 0.21836 0.62803 0.0
H453 H 0.86223 0.19688 0.56696 0.0
H454 H 0.85259 0.24027 0.59189 0.0
H455 H 0.8609 0.19128 0.60919 0.0
H456 H 0.8347 0.3229 0.66479 0.0
H457 H 0.84427 0.20429 0.70703 0.0
H458 H 0.75466 0.29621 0.60929 0.0
H459 H 0.80537 0.29816 0.59385 0.0
H460 H 0.78927 0.33556 0.62226 0.0
H461 H 0.766 0.15645 0.66194 0.0
H462 H 0.80839 0.14781 0.68815 0.0
H463 H 0.81571 0.14741 0.64607 0.0
C464 C 0.77508 0.82994 0.93583 0.0
C465 C 0.73511 0.84465 0.93343 0.0
C466 C 0.79147 0.80456 0.91262 0.0
C467 C 0.76723 0.79355 0.88638 0.0
C468 C 0.72585 0.80557 0.88507 0.0
C469 C 0.7102 0.83112 0.90869 0.0
C470 C 0.83569 0.79211 0.91505 0.0
C471 C 0.69894 0.79384 0.8577 0.0
C472 C 0.8317 0.78394 0.81332 0.0
C473 C 0.83913 0.74195 0.81237 0.0
C474 C 0.80602 0.80078 0.83614 0.0
C475 C 0.78727 0.77497 0.85857 0.0
C476 C 0.7923 0.73228 0.8564 0.0
C477 C 0.8183 0.71618 0.83324 0.0
C478 C 0.80119 0.84651 0.83748 0.0
C479 C 0.77232 0.70383 0.87967 0.0
H480 H 0.79428 0.83964 0.95521 0.0
H481 H 0.67911 0.84203 0.90689 0.0
H482 H 0.83907 0.75896 0.91084 0.0
H483 H 0.85364 0.80816 0.89668 0.0
H484 H 0.84897 0.7995 0.93845 0.0
H485 H 0.66617 0.79877 0.86305 0.0
H486 H 0.70705 0.81257 0.83686 0.0
H487 H 0.70359 0.76145 0.8512 0.0
H488 H 0.84712 0.80395 0.79686 0.0
H489 H 0.82366 0.68363 0.83243 0.0
H490 H 0.8163 0.85841 0.85899 0.0
H491 H 0.76849 0.85485 0.8389 0.0
H492 H 0.81475 0.86186 0.81663 0.0
H493 H 0.78863 0.70551 0.90254 0.0
H494 H 0.77298 0.67175 0.87141 0.0
H495 H 0.74022 0.71284 0.884 0.0
C496 C 0.21731 0.83998 0.06682 0.0
C497 C 0.25931 0.84629 0.06357 0.0
C498 C 0.20195 0.8144 0.09031 0.0
C499 C 0.22929 0.79481 0.11119 0.0
C500 C 0.27184 0.79921 0.10697 0.0
C501 C 0.28643 0.82494 0.08305 0.0
C502 C 0.15631 0.8101 0.0938 0.0
C503 C 0.30184 0.77861 0.12871 0.0
C504 C 0.17894 0.7795 0.18999 0.0
C505 C 0.16376 0.73982 0.18693 0.0
C506 C 0.2033 0.79672 0.16645 0.0
C507 C 0.21265 0.77366 0.13923 0.0
C508 C 0.20041 0.73243 0.13726 0.0
C509 C 0.17601 0.71591 0.16124 0.0
C510 C 0.21619 0.84069 0.16961 0.0
C511 C 0.21034 0.70676 0.10878 0.0
H512 H 0.19625 0.85591 0.05146 0.0
H513 H 0.31896 0.8296 0.08052 0.0
H514 H 0.14765 0.77749 0.09485 0.0
H515 H 0.14637 0.82444 0.1162 0.0
H516 H 0.13945 0.82466 0.07408 0.0
H517 H 0.33338 0.77954 0.11921 0.0
H518 H 0.30164 0.79418 0.15192 0.0
H519 H 0.29312 0.74642 0.13281 0.0
H520 H 0.17023 0.79787 0.21013 0.0
H521 H 0.16474 0.68504 0.15892 0.0
H522 H 0.19863 0.8596 0.15271 0.0
H523 H 0.24895 0.84422 0.1638 0.0
H524 H 0.21087 0.85269 0.19375 0.0
H525 H 0.19042 0.71593 0.08887 0.0
H526 H 0.2055 0.67382 0.11341 0.0
H527 H 0.24237 0.71152 0.10125 0.0
C528 C 0.95157 0.30305 0.05259 0.0
C529 C 0.97848 0.30052 0.07813 0.0
C530 C 0.9662 0.30293 0.02143 0.0
C531 C 0.0087 0.30016 0.01584 0.0
C532 C 0.03596 0.29764 0.04154 0.0
C533 C 0.02049 0.29728 0.07227 0.0
C534 C 0.93618 0.30469 0.9945 0.0
C535 C 0.08148 0.29467 0.0366 0.0
C536 C 0.04556 0.25648 0.93825 0.0
C537 C 0.05449 0.2918 0.92111 0.0
C538 C 0.03037 0.25883 0.96904 0.0
C539 C 0.02471 0.29747 0.98316 0.0
C540 C 0.03496 0.33324 0.96627 0.0
C541 C 0.04942 0.32997 0.93521 0.0
C542 C 0.0194 0.22001 0.98616 0.0
C543 C 0.03005 0.37487 0.98082 0.0
H544 H 0.91906 0.30467 0.057 0.0
H545 H 0.04153 0.29309 0.09161 0.0
H546 H 0.94366 0.33046 0.97862 0.0
H547 H 0.93832 0.27638 0.98032 0.0
H548 H 0.90427 0.30823 0.0028 0.0
H549 H 0.09843 0.29139 0.05913 0.0
H550 H 0.08889 0.2683 0.02132 0.0
H551 H 0.09254 0.32238 0.02433 0.0
H552 H 0.04875 0.22699 0.92703 0.0
H553 H 0.0561 0.3572 0.92172 0.0
H554 H 0.98648 0.22015 0.99214 0.0
H555 H 0.03652 0.21793 0.00864 0.0
H556 H 0.02604 0.19242 0.97191 0.0
H557 H 0.99758 0.38021 0.98678 0.0
H558 H 0.0405 0.39956 0.96484 0.0
H559 H 0.04763 0.37665 0.00312 0.0
C560 C 0.73749 0.06121 0.19733 0.0
C561 C 0.71455 0.04367 0.1729 0.0
C562 C 0.73651 0.04519 0.22804 0.0
C563 C 0.71063 0.01183 0.23485 0.0
C564 C 0.68576 0.99539 0.21088 0.0
C565 C 0.68908 0.01048 0.18011 0.0
C566 C 0.76463 0.06269 0.25277 0.0
C567 C 0.65657 0.96082 0.21744 0.0
C568 C 0.73585 0.94309 0.30423 0.0
C569 C 0.71326 0.96107 0.32869 0.0
C570 C 0.73544 0.95931 0.27359 0.0
C571 C 0.71039 0.9933 0.26681 0.0
C572 C 0.68576 0.01017 0.29075 0.0
C573 C 0.68855 0.99483 0.32148 0.0
C574 C 0.76329 0.94129 0.2489 0.0
C575 C 0.6574 0.04542 0.28419 0.0
H576 H 0.75782 0.08633 0.19211 0.0
H577 H 0.67307 0.99436 0.16183 0.0
H578 H 0.74687 0.07341 0.27338 0.0
H579 H 0.78568 0.03864 0.26132 0.0
H580 H 0.78304 0.08852 0.24364 0.0
H581 H 0.6739 0.93237 0.22171 0.0
H582 H 0.63841 0.96721 0.23896 0.0
H583 H 0.6353 0.9555 0.19749 0.0
H584 H 0.75556 0.91746 0.3094 0.0
H585 H 0.67276 0.0112 0.33973 0.0
H586 H 0.78474 0.96496 0.24031 0.0
H587 H 0.74535 0.93081 0.2283 0.0
H588 H 0.78126 0.91518 0.25806 0.0
H589 H 0.6754 0.07347 0.27998 0.0
H590 H 0.6362 0.0512 0.30412 0.0
H591 H 0.63917 0.03949 0.26264 0.0
C592 C 0.05969 0.7159 0.55419 0.0
C593 C 0.03219 0.71634 0.57945 0.0
C594 C 0.04569 0.71704 0.52286 0.0
C595 C 1.00324 0.71861 0.51681 0.0
C596 C 0.97543 0.71953 0.54222 0.0
C597 C 0.99025 0.71897 0.57313 0.0
C598 C 0.07626 0.71705 0.49626 0.0
C599 C 0.92993 0.72122 0.5368 0.0
C600 C 0.96474 0.75918 0.43855 0.0
C601 C 0.95747 0.72311 0.42191 0.0
C602 C 0.98019 0.75817 0.46935 0.0
C603 C 0.98765 0.72012 0.48396 0.0
C604 C 0.97921 0.68359 0.46748 0.0
C605 C 0.96459 0.68555 0.43644 0.0
C606 C 0.9894 0.79778 0.48597 0.0
C607 C 0.98604 0.64251 0.48253 0.0
H608 H 0.09213 0.71485 0.55897 0.0
H609 H 0.96871 0.72169 0.59229 0.0
H610 H 0.07114 0.69029 0.48082 0.0
H611 H 0.07213 0.74464 0.48151 0.0
H612 H 0.1082 0.71629 0.50493 0.0
H613 H 0.9125 0.72396 0.55915 0.0
H614 H 0.92201 0.74738 0.52145 0.0
H615 H 0.9199 0.6932 0.52442 0.0
H616 H 0.96 0.78822 0.42695 0.0
H617 H 0.95915 0.65774 0.42333 0.0
H618 H 0.02231 0.79925 0.49188 0.0
H619 H 0.97228 0.79951 0.50847 0.0
H620 H 0.98147 0.82474 0.4714 0.0
H621 H 0.01862 0.63897 0.48893 0.0
H622 H 0.97725 0.61703 0.4667 0.0
H623 H 0.9681 0.64016 0.50463 0.0
C624 C 0.34308 0.96879 0.68429 0.0
C625 C 0.30503 0.95753 0.67216 0.0
C626 C 0.34662 0.98443 0.71496 0.0
C627 C 0.3112 0.98898 0.73369 0.0
C628 C 0.27286 0.97652 0.72177 0.0
C629 C 0.2703 0.96072 0.69117 0.0
C630 C 0.38804 0.99672 0.72713 0.0
C631 C 0.23436 0.98088 0.74103 0.0
C632 C 0.31584 0.99444 0.82254 0.0
C633 C 0.31038 0.03623 0.82827 0.0
C634 C 0.31839 0.97906 0.79187 0.0
C635 C 0.31403 0.00585 0.76607 0.0
C636 C 0.30902 0.04814 0.77146 0.0
C637 C 0.30725 0.06284 0.80256 0.0
C638 C 0.32356 0.93375 0.78717 0.0
C639 C 0.30369 0.07755 0.74443 0.0
H640 H 0.36989 0.96621 0.66949 0.0
H641 H 0.24077 0.95256 0.6816 0.0
H642 H 0.38818 0.02969 0.73279 0.0
H643 H 0.39493 0.98009 0.74927 0.0
H644 H 0.41266 0.99049 0.70981 0.0
H645 H 0.20701 0.9697 0.72826 0.0
H646 H 0.23723 0.96368 0.76342 0.0
H647 H 0.22953 0.01333 0.74726 0.0
H648 H 0.31605 0.97303 0.84187 0.0
H649 H 0.30222 0.09499 0.80681 0.0
H650 H 0.34795 0.92754 0.76971 0.0
H651 H 0.2949 0.92062 0.77774 0.0
H652 H 0.3312 0.91776 0.80949 0.0
H653 H 0.32861 0.07367 0.72701 0.0
H654 H 0.30327 0.10974 0.75244 0.0
H655 H 0.27461 0.07101 0.73207 0.0
C656 C 0.14533 0.16387 0.15207 0.0
C657 C 0.11718 0.19371 0.14286 0.0
C658 C 0.16646 0.14055 0.12955 0.0
C659 C 0.15792 0.14584 0.09703 0.0
C660 C 0.12948 0.1759 0.08762 0.0
C661 C 0.11045 0.20017 0.11056 0.0
C662 C 0.19744 0.10972 0.14062 0.0
C663 C 0.11849 0.18221 0.05339 0.0
C664 C 0.23127 0.10392 0.03512 0.0
C665 C 0.21485 0.0652 0.02961 0.0
C666 C 0.21328 0.13049 0.05716 0.0
C667 C 0.17723 0.11855 0.07312 0.0
C668 C 0.1597 0.08006 0.06655 0.0
C669 C 0.17919 0.05356 0.04539 0.0
C670 C 0.23348 0.17077 0.06407 0.0
C671 C 0.12028 0.06687 0.08182 0.0
H672 H 0.15032 0.15805 0.17689 0.0
H673 H 0.08974 0.22397 0.10309 0.0
H674 H 0.18619 0.07851 0.1358 0.0
H675 H 0.22645 0.11359 0.1275 0.0
H676 H 0.20378 0.1124 0.16626 0.0
H677 H 0.08995 0.20008 0.05077 0.0
H678 H 0.14337 0.19899 0.04139 0.0
H679 H 0.11452 0.15266 0.04111 0.0
H680 H 0.25909 0.11275 0.02314 0.0
H681 H 0.16634 0.02368 0.04097 0.0
H682 H 0.24031 0.1731 0.08964 0.0
H683 H 0.21255 0.1961 0.05808 0.0
H684 H 0.26226 0.17484 0.05063 0.0
H685 H 0.12447 0.06412 0.10767 0.0
H686 H 0.10926 0.03719 0.0726 0.0
H687 H 0.09636 0.09019 0.07774 0.0
C688 C 0.9617 0.21683 0.31586 0.0
C689 C 0.94956 0.2209 0.28425 0.0
C690 C 0.93643 0.19799 0.33824 0.0
C691 C 0.89812 0.18235 0.32885 0.0
C692 C 0.88549 0.18649 0.29706 0.0
C693 C 0.91125 0.20591 0.27518 0.0
C694 C 0.95096 0.19445 0.37192 0.0
C695 C 0.84506 0.16977 0.28604 0.0
C696 C 0.8533 0.09723 0.37872 0.0
C697 C 0.82364 0.1178 0.39636 0.0
C698 C 0.87736 0.11778 0.35648 0.0
C699 C 0.87212 0.16019 0.35209 0.0
C700 C 0.84265 0.18131 0.37027 0.0
C701 C 0.81861 0.15979 0.39213 0.0
C702 C 0.90829 0.09403 0.33759 0.0
C703 C 0.83642 0.22657 0.36651 0.0
H704 H 0.99106 0.22852 0.32326 0.0
H705 H 0.90158 0.20883 0.25085 0.0
H706 H 0.92825 0.20814 0.38813 0.0
H707 H 0.95402 0.16189 0.37846 0.0
H708 H 0.9808 0.20966 0.37571 0.0
H709 H 0.83923 0.17633 0.26075 0.0
H710 H 0.84428 0.13631 0.28958 0.0
H711 H 0.81993 0.18295 0.30024 0.0
H712 H 0.85752 0.06481 0.38222 0.0
H713 H 0.79545 0.17566 0.40559 0.0
H714 H 0.93932 0.10612 0.34208 0.0
H715 H 0.90212 0.09762 0.31203 0.0
H716 H 0.908 0.06105 0.34341 0.0
H717 H 0.86541 0.24288 0.37115 0.0
H718 H 0.81267 0.23857 0.38269 0.0
H719 H 0.82738 0.23357 0.3419 0.0
C720 C 0.8288 0.9593 0.54903 0.0
C721 C 0.79386 0.9473 0.53247 0.0
C722 C 0.84817 0.93273 0.57021 0.0
C723 C 0.83122 0.89377 0.57601 0.0
C724 C 0.7958 0.88155 0.55937 0.0
C725 C 0.77797 0.9082 0.53732 0.0
C726 C 0.88698 0.94627 0.58622 0.0
C727 C 0.77617 0.84075 0.56545 0.0
C728 C 0.89854 0.81203 0.61269 0.0
C729 C 0.89103 0.81727 0.64503 0.0
C730 C 0.87967 0.83682 0.59001 0.0
C731 C 0.8506 0.86614 0.59966 0.0
C732 C 0.84134 0.87024 0.63216 0.0
C733 C 0.86232 0.84644 0.65447 0.0
C734 C 0.89145 0.83179 0.55581 0.0
C735 C 0.80965 0.90021 0.64344 0.0
H736 H 0.84129 0.98944 0.5451 0.0
H737 H 0.75072 0.89906 0.52473 0.0
H738 H 0.88224 0.94804 0.61207 0.0
H739 H 0.91148 0.92362 0.58196 0.0
H740 H 0.89751 0.97648 0.57773 0.0
H741 H 0.74759 0.83665 0.55178 0.0
H742 H 0.79757 0.81596 0.55909 0.0
H743 H 0.76917 0.83749 0.59092 0.0
H744 H 0.9197 0.78875 0.60501 0.0
H745 H 0.85673 0.85134 0.67933 0.0
H746 H 0.89511 0.86179 0.54412 0.0
H747 H 0.86713 0.81494 0.54321 0.0
H748 H 0.92036 0.81453 0.5532 0.0
H749 H 0.82042 0.93174 0.63924 0.0
H750 H 0.80293 0.89668 0.66896 0.0
H751 H 0.78093 0.89621 0.62996 0.0
C752 C 0.09236 0.80737 0.77737 0.0
C753 C 0.05633 0.78794 0.78694 0.0
C754 C 0.11748 0.82751 0.79929 0.0
C755 C 0.10677 0.8276 0.83167 0.0
C756 C 0.07087 0.80736 0.84153 0.0
C757 C 0.04596 0.78814 0.81907 0.0
C758 C 0.15514 0.84931 0.78773 0.0
C759 C 0.05864 0.80615 0.87584 0.0
C760 C 0.19021 0.85193 0.8914 0.0
C761 C 0.18198 0.89279 0.8984 0.0
C762 C 0.16566 0.83011 0.87008 0.0
C763 C 0.13246 0.84983 0.8551 0.0
C764 C 0.12378 0.89099 0.8625 0.0
C765 C 0.14832 0.91175 0.88435 0.0
C766 C 0.17548 0.78607 0.86335 0.0
C767 C 0.08894 0.91332 0.84695 0.0
H768 H 0.10056 0.80754 0.75262 0.0
H769 H 0.01838 0.77293 0.82677 0.0
H770 H 0.1531 0.88216 0.79363 0.0
H771 H 0.18255 0.8371 0.79976 0.0
H772 H 0.15938 0.84622 0.76185 0.0
H773 H 0.03075 0.78768 0.87984 0.0
H774 H 0.08378 0.79327 0.89022 0.0
H775 H 0.05297 0.83749 0.88452 0.0
H776 H 0.21625 0.83725 0.90227 0.0
H777 H 0.14154 0.94317 0.89017 0.0
H778 H 0.18346 0.78234 0.83811 0.0
H779 H 0.14836 0.7668 0.86797 0.0
H780 H 0.20125 0.77472 0.87789 0.0
H781 H 0.09301 0.9131 0.82098 0.0
H782 H 0.08657 0.94543 0.85498 0.0
H783 H 0.05974 0.89767 0.85212 0.0
C784 C 0.14561 0.85072 0.34846 0.0
C785 C 0.11766 0.82117 0.35855 0.0
C786 C 0.16763 0.87431 0.37026 0.0
C787 C 0.16022 0.86958 0.40297 0.0
C788 C 0.13186 0.83994 0.41331 0.0
C789 C 0.11178 0.81547 0.39104 0.0
C790 C 0.19846 0.90469 0.35822 0.0
C791 C 0.12198 0.83465 0.44785 0.0
C792 C 0.23643 0.91014 0.46319 0.0
C793 C 0.22065 0.94895 0.46937 0.0
C794 C 0.21744 0.88413 0.44128 0.0
C795 C 0.18094 0.89668 0.42625 0.0
C796 C 0.16431 0.93545 0.43324 0.0
C797 C 0.18484 0.96143 0.4542 0.0
C798 C 0.23697 0.84373 0.43363 0.0
C799 C 0.12469 0.94943 0.41873 0.0
H800 H 0.14988 0.85598 0.32348 0.0
H801 H 0.09107 0.79204 0.39915 0.0
H802 H 0.18779 0.93607 0.36316 0.0
H803 H 0.22798 0.9006 0.37061 0.0
H804 H 0.20369 0.90171 0.33245 0.0
H805 H 0.09743 0.81192 0.45182 0.0
H806 H 0.14954 0.82472 0.46087 0.0
H807 H 0.11222 0.86417 0.45809 0.0
H808 H 0.26435 0.90068 0.47472 0.0
H809 H 0.1725 0.99137 0.45918 0.0
H810 H 0.24341 0.84196 0.40798 0.0
H811 H 0.21581 0.81849 0.43938 0.0
H812 H 0.26589 0.83894 0.44673 0.0
H813 H 0.1281 0.95211 0.3928 0.0
H814 H 0.11457 0.97933 0.42815 0.0
H815 H 0.10043 0.92662 0.42326 0.0
C816 C 0.14939 0.09542 0.61798 0.0
C817 C 0.18513 0.11324 0.60635 0.0
C818 C 0.12466 0.11593 0.63985 0.0
C819 C 0.13522 0.15584 0.64952 0.0
C820 C 0.17062 0.17452 0.63698 0.0
C821 C 0.19536 0.15282 0.61574 0.0
C822 C 0.08748 0.09468 0.65286 0.0
C823 C 0.1824 0.21736 0.64603 0.0
C824 C 0.04938 0.21989 0.68387 0.0
C825 C 0.05729 0.21766 0.71635 0.0
C826 C 0.07504 0.20079 0.66187 0.0
C827 C 0.10897 0.17804 0.67257 0.0
C828 C 0.11716 0.17567 0.70533 0.0
C829 C 0.09151 0.19591 0.7268 0.0
C830 C 0.06572 0.20487 0.62715 0.0
C831 C 0.15254 0.15102 0.71774 0.0
H832 H 0.14092 0.06519 0.6101 0.0
H833 H 0.22295 0.16666 0.60663 0.0
H834 H 0.08921 0.09345 0.67897 0.0
H835 H 0.05962 0.11206 0.64668 0.0
H836 H 0.08426 0.06316 0.64371 0.0
H837 H 0.21 0.22803 0.6333 0.0
H838 H 0.15691 0.23854 0.64087 0.0
H839 H 0.18835 0.21898 0.67174 0.0
H840 H 0.02321 0.23695 0.67557 0.0
H841 H 0.09769 0.19387 0.75186 0.0
H842 H 0.05881 0.17453 0.617 0.0
H843 H 0.09272 0.21695 0.61447 0.0
H844 H 0.03941 0.22534 0.62261 0.0
H845 H 0.14916 0.11875 0.71045 0.0
H846 H 0.15484 0.15226 0.74385 0.0
H847 H 0.18152 0.16231 0.70751 0.0
C848 C 0.85255 0.19319 0.86514 0.0
C849 C 0.89196 0.18204 0.85583 0.0
C850 C 0.83028 0.16915 0.88653 0.0
C851 C 0.84819 0.13349 0.89929 0.0
C852 C 0.88795 0.12205 0.88972 0.0
C853 C 0.90903 0.1461 0.86773 0.0
C854 C 0.78763 0.18188 0.89547 0.0
C855 C 0.90838 0.08454 0.90291 0.0
C856 C 0.80723 0.08955 0.97632 0.0
C857 C 0.78519 0.05568 0.9656 0.0
C858 C 0.82764 0.11536 0.95502 0.0
C859 C 0.82522 0.10763 0.92218 0.0
C860 C 0.80198 0.0742 0.91122 0.0
C861 C 0.78265 0.04845 0.93303 0.0
C862 C 0.8527 0.15025 0.96768 0.0
C863 C 0.79788 0.0653 0.87644 0.0
H864 H 0.8393 0.22095 0.85586 0.0
H865 H 0.93915 0.13697 0.85997 0.0
H866 H 0.76587 0.15697 0.89011 0.0
H867 H 0.78596 0.18766 0.9212 0.0
H868 H 0.77769 0.20978 0.88281 0.0
H869 H 0.93997 0.08073 0.89396 0.0
H870 H 0.90937 0.08628 0.92903 0.0
H871 H 0.89054 0.05704 0.89663 0.0
H872 H 0.8095 0.09523 0.00143 0.0
H873 H 0.76538 0.02257 0.92449 0.0
H874 H 0.84222 0.17939 0.95725 0.0
H875 H 0.88509 0.14619 0.96082 0.0
H876 H 0.85094 0.15263 0.99377 0.0
H877 H 0.78666 0.09269 0.86382 0.0
H878 H 0.77671 0.03964 0.87169 0.0
H879 H 0.82813 0.05761 0.8664 0.0
C880 C 0.9655 0.79081 0.18268 0.0
C881 C 0.95323 0.78833 0.21435 0.0
C882 C 0.94028 0.80856 0.15971 0.0
C883 C 0.90197 0.82474 0.16857 0.0
C884 C 0.88928 0.82224 0.20045 0.0
C885 C 0.91492 0.80386 0.22289 0.0
C886 C 0.95482 0.81035 0.12596 0.0
C887 C 0.8489 0.83964 0.21096 0.0
C888 C 0.85578 0.90807 0.11768 0.0
C889 C 0.8252 0.88704 0.10135 0.0
C890 C 0.88098 0.88815 0.13949 0.0
C891 C 0.87595 0.84589 0.14479 0.0
C892 C 0.84586 0.8242 0.12766 0.0
C893 C 0.82066 0.84511 0.10621 0.0
C894 C 0.91251 0.91252 0.15728 0.0
C895 C 0.83984 0.77907 0.13239 0.0
H896 H 0.99487 0.77867 0.17574 0.0
H897 H 0.90515 0.8022 0.24727 0.0
H898 H 0.93203 0.79596 0.11017 0.0
H899 H 0.95803 0.84253 0.11844 0.0
H900 H 0.98459 0.79481 0.12264 0.0
H901 H 0.84308 0.83448 0.23644 0.0
H902 H 0.84818 0.87288 0.20633 0.0
H903 H 0.82371 0.82575 0.19723 0.0
H904 H 0.85963 0.94044 0.11365 0.0
H905 H 0.79682 0.82887 0.09378 0.0
H906 H 0.94331 0.89971 0.15309 0.0
H907 H 0.90652 0.91058 0.18298 0.0
H908 H 0.91264 0.94512 0.15029 0.0
H909 H 0.86898 0.76271 0.12843 0.0
H910 H 0.8164 0.76633 0.11627 0.0
H911 H 0.8304 0.77301 0.15706 0.0
loop_
_geom_bond_atom_site_label_1
_geom_bond_atom_site_label_2
_geom_bond_distance
_geom_bond_site_symmetry_2
_ccdc_geom_bond_type
Co0 O3 1.970 . S
Co0 N17 1.989 . S
Co0 O25 1.967 . S
Co0 O32 1.920 . S
Co1 O4 1.966 . S
Co1 N10 2.022 . S
Co1 N18 1.993 . S
Co1 O26 1.941 . S
C2 O3 1.258 . S
C2 O4 1.263 . S
O3 Co0 1.970 . S
O3 C2 1.258 . S
O4 Co1 1.966 . S
O4 C2 1.263 . S
C5 O6 1.235 . S
C5 O32 1.289 . S
O6 C5 1.235 . S
C7 C9 1.400 . S
C7 N10 1.351 . S
C7 C12 1.501 . S
C8 C9 1.387 . S
C8 N11 1.341 . S
C9 C7 1.400 . S
C9 C8 1.387 . S
N10 Co1 2.022 . S
N10 C7 1.351 . S
N10 N11 1.365 . S
N11 C8 1.341 . S
N11 N10 1.365 . S
N11 H31 0.862 . S
C12 C7 1.501 . S
C12 H13 0.961 . S
C12 H14 0.961 . S
C12 H15 0.960 . S
H13 C12 0.961 . S
H14 C12 0.961 . S
H15 C12 0.960 . S
C16 N17 1.342 . S
C16 C20 1.401 . S
C16 C21 1.499 . S
N17 Co0 1.989 . S
N17 C16 1.342 . S
N17 N18 1.388 . S
N18 Co1 1.993 . S
N18 N17 1.388 . S
N18 C19 1.346 . S
C19 N18 1.346 . S
C19 C20 1.396 . S
C19 C29 1.510 . S
C20 C16 1.401 . S
C20 C19 1.396 . S
C21 C16 1.499 . S
C21 H22 0.959 . S
C21 H23 0.960 . S
C21 H24 0.961 . S
H22 C21 0.959 . S
H23 C21 0.960 . S
H24 C21 0.961 . S
O25 Co0 1.967 . S
O25 C33 1.258 . S
O26 Co1 1.941 . S
O26 C33 1.266 . S
H27 C29 0.959 . S
H28 C29 0.961 . S
C29 C19 1.510 . S
C29 H27 0.959 . S
C29 H28 0.961 . S
C29 H30 0.960 . S
H30 C29 0.960 . S
H31 N11 0.862 . S
O32 Co0 1.920 . S
O32 C5 1.289 . S
C33 O25 1.258 . S
C33 O26 1.266 . S
Co34 O37 1.970 . S
Co34 N51 1.989 . S
Co34 O59 1.967 . S
Co34 O66 1.920 . S
Co35 O38 1.966 . S
Co35 N44 2.022 . S
Co35 N52 1.993 . S
Co35 O60 1.941 . S
C36 O37 1.258 . S
C36 O38 1.263 . S
O37 Co34 1.970 . S
O37 C36 1.258 . S
O38 Co35 1.966 . S
O38 C36 1.263 . S
C39 O40 1.235 . S
C39 O66 1.289 . S
O40 C39 1.235 . S
C41 C43 1.400 . S
C41 N44 1.351 . S
C41 C46 1.501 . S
C42 C43 1.387 . S
C42 N45 1.341 . S
C43 C41 1.400 . S
C43 C42 1.387 . S
N44 Co35 2.022 . S
N44 C41 1.351 . S
N44 N45 1.365 . S
N45 C42 1.341 . S
N45 N44 1.365 . S
N45 H65 0.862 . S
C46 C41 1.501 . S
C46 H47 0.961 . S
C46 H48 0.961 . S
C46 H49 0.960 . S
H47 C46 0.961 . S
H48 C46 0.961 . S
H49 C46 0.960 . S
C50 N51 1.342 . S
C50 C54 1.401 . S
C50 C55 1.499 . S
N51 Co34 1.989 . S
N51 C50 1.342 . S
N51 N52 1.388 . S
N52 Co35 1.993 . S
N52 N51 1.388 . S
N52 C53 1.346 . S
C53 N52 1.346 . S
C53 C54 1.396 . S
C53 C63 1.510 . S
C54 C50 1.401 . S
C54 C53 1.396 . S
C55 C50 1.499 . S
C55 H56 0.959 . S
C55 H57 0.960 . S
C55 H58 0.961 . S
H56 C55 0.959 . S
H57 C55 0.960 . S
H58 C55 0.961 . S
O59 Co34 1.967 . S
O59 C67 1.258 . S
O60 Co35 1.941 . S
O60 C67 1.266 . S
H61 C63 0.959 . S
H62 C63 0.961 . S
C63 C53 1.510 . S
C63 H61 0.959 . S
C63 H62 0.961 . S
C63 H64 0.960 . S
H64 C63 0.960 . S
H65 N45 0.862 . S
O66 Co34 1.920 . S
O66 C39 1.289 . S
C67 O59 1.258 . S
C67 O60 1.266 . S
Co68 O71 1.970 . S
Co68 N85 1.989 . S
Co68 O93 1.967 . S
Co68 O100 1.920 . S
Co69 O72 1.966 . S
Co69 N78 2.022 . S
Co69 N86 1.993 . S
Co69 O94 1.941 . S
C70 O71 1.258 . S
C70 O72 1.263 . S
O71 Co68 1.970 . S
O71 C70 1.258 . S
O72 Co69 1.966 . S
O72 C70 1.263 . S
C73 O74 1.235 . S
C73 O100 1.289 . S
O74 C73 1.235 . S
C75 C77 1.400 . S
C75 N78 1.351 . S
C75 C80 1.501 . S
C76 C77 1.387 . S
C76 N79 1.341 . S
C77 C75 1.400 . S
C77 C76 1.387 . S
N78 Co69 2.022 . S
N78 C75 1.351 . S
N78 N79 1.365 . S
N79 C76 1.341 . S
N79 N78 1.365 . S
N79 H99 0.862 . S
C80 C75 1.501 . S
C80 H81 0.961 . S
C80 H82 0.961 . S
C80 H83 0.960 . S
H81 C80 0.961 . S
H82 C80 0.961 . S
H83 C80 0.960 . S
C84 N85 1.342 . S
C84 C88 1.401 . S
C84 C89 1.499 . S
N85 Co68 1.989 . S
N85 C84 1.342 . S
N85 N86 1.388 . S
N86 Co69 1.993 . S
N86 N85 1.388 . S
N86 C87 1.346 . S
C87 N86 1.346 . S
C87 C88 1.396 . S
C87 C97 1.510 . S
C88 C84 1.401 . S
C88 C87 1.396 . S
C89 C84 1.499 . S
C89 H90 0.959 . S
C89 H91 0.960 . S
C89 H92 0.961 . S
H90 C89 0.959 . S
H91 C89 0.960 . S
H92 C89 0.961 . S
O93 Co68 1.967 . S
O93 C101 1.258 . S
O94 Co69 1.941 . S
O94 C101 1.266 . S
H95 C97 0.959 . S
H96 C97 0.961 . S
C97 C87 1.510 . S
C97 H95 0.959 . S
C97 H96 0.961 . S
C97 H98 0.960 . S
H98 C97 0.960 . S
H99 N79 0.862 . S
O100 Co68 1.920 . S
O100 C73 1.289 . S
C101 O93 1.258 . S
C101 O94 1.266 . S
Co102 O105 1.970 . S
Co102 N119 1.989 . S
Co102 O127 1.967 1_556 S
Co102 O134 1.920 1_556 S
Co103 O106 1.966 . S
Co103 N112 2.022 . S
Co103 N120 1.993 . S
Co103 O128 1.941 . S
C104 O105 1.258 . S
C104 O106 1.263 . S
O105 Co102 1.970 . S
O105 C104 1.258 . S
O106 Co103 1.966 . S
O106 C104 1.263 . S
C107 O108 1.235 . S
C107 O134 1.289 . S
O108 C107 1.235 . S
C109 C111 1.400 . S
C109 N112 1.351 . S
C109 C114 1.501 . S
C110 C111 1.387 . S
C110 N113 1.341 . S
C111 C109 1.400 . S
C111 C110 1.387 . S
N112 Co103 2.022 . S
N112 C109 1.351 . S
N112 N113 1.365 . S
N113 C110 1.341 . S
N113 N112 1.365 . S
N113 H133 0.862 . S
C114 C109 1.501 . S
C114 H115 0.961 . S
C114 H116 0.961 . S
C114 H117 0.960 . S
H115 C114 0.961 . S
H116 C114 0.961 . S
H117 C114 0.960 . S
C118 N119 1.342 . S
C118 C122 1.401 . S
C118 C123 1.499 . S
N119 Co102 1.989 . S
N119 C118 1.342 . S
N119 N120 1.388 . S
N120 Co103 1.993 . S
N120 N119 1.388 . S
N120 C121 1.346 . S
C121 N120 1.346 . S
C121 C122 1.396 . S
C121 C131 1.510 . S
C122 C118 1.401 . S
C122 C121 1.396 . S
C123 C118 1.499 . S
C123 H124 0.959 . S
C123 H125 0.960 . S
C123 H126 0.961 . S
H124 C123 0.959 . S
H125 C123 0.960 . S
H126 C123 0.961 . S
O127 Co102 1.967 1_554 S
O127 C135 1.258 1_554 S
O128 Co103 1.941 . S
O128 C135 1.266 . S
H129 C131 0.959 . S
H130 C131 0.961 . S
C131 C121 1.510 . S
C131 H129 0.959 . S
C131 H130 0.961 . S
C131 H132 0.960 . S
H132 C131 0.960 . S
H133 N113 0.862 . S
O134 Co102 1.920 1_554 S
O134 C107 1.289 . S
C135 O127 1.258 1_556 S
C135 O128 1.266 . S
Co136 O139 1.970 . S
Co136 N153 1.989 . S
Co136 O161 1.967 . S
Co136 O168 1.920 . S
Co137 O140 1.966 . S
Co137 N146 2.022 . S
Co137 N154 1.993 . S
Co137 O162 1.941 . S
C138 O139 1.258 . S
C138 O140 1.263 . S
O139 Co136 1.970 . S
O139 C138 1.258 . S
O140 Co137 1.966 . S
O140 C138 1.263 . S
C141 O142 1.235 . S
C141 O168 1.289 . S
O142 C141 1.235 . S
C143 C145 1.400 . S
C143 N146 1.351 . S
C143 C148 1.501 . S
C144 C145 1.387 . S
C144 N147 1.341 . S
C145 C143 1.400 . S
C145 C144 1.387 . S
N146 Co137 2.022 . S
N146 C143 1.351 . S
N146 N147 1.365 . S
N147 C144 1.341 . S
N147 N146 1.365 . S
N147 H167 0.862 . S
C148 C143 1.501 . S
C148 H149 0.961 . S
C148 H150 0.961 . S
C148 H151 0.960 . S
H149 C148 0.961 . S
H150 C148 0.961 . S
H151 C148 0.960 . S
C152 N153 1.342 . S
C152 C156 1.401 . S
C152 C157 1.499 . S
N153 Co136 1.989 . S
N153 C152 1.342 . S
N153 N154 1.388 . S
N154 Co137 1.993 . S
N154 N153 1.388 . S
N154 C155 1.346 . S
C155 N154 1.346 . S
C155 C156 1.396 . S
C155 C165 1.510 . S
C156 C152 1.401 . S
C156 C155 1.396 . S
C157 C152 1.499 . S
C157 H158 0.959 . S
C157 H159 0.960 . S
C157 H160 0.961 . S
H158 C157 0.959 . S
H159 C157 0.960 . S
H160 C157 0.961 . S
O161 Co136 1.967 . S
O161 C169 1.258 . S
O162 Co137 1.941 . S
O162 C169 1.266 . S
H163 C165 0.959 . S
H164 C165 0.961 . S
C165 C155 1.510 . S
C165 H163 0.959 . S
C165 H164 0.961 . S
C165 H166 0.960 . S
H166 C165 0.960 . S
H167 N147 0.862 . S
O168 Co136 1.920 . S
O168 C141 1.289 . S
C169 O161 1.258 . S
C169 O162 1.266 . S
Co170 O173 1.970 . S
Co170 N187 1.989 . S
Co170 O195 1.967 . S
Co170 O202 1.920 . S
Co171 O174 1.966 . S
Co171 N180 2.022 . S
Co171 N188 1.993 . S
Co171 O196 1.941 . S
C172 O173 1.258 . S
C172 O174 1.263 . S
O173 Co170 1.970 . S
O173 C172 1.258 . S
O174 Co171 1.966 . S
O174 C172 1.263 . S
C175 O176 1.235 . S
C175 O202 1.289 . S
O176 C175 1.235 . S
C177 C179 1.400 . S
C177 N180 1.351 . S
C177 C182 1.501 . S
C178 C179 1.387 . S
C178 N181 1.341 . S
C179 C177 1.400 . S
C179 C178 1.387 . S
N180 Co171 2.022 . S
N180 C177 1.351 . S
N180 N181 1.365 . S
N181 C178 1.341 . S
N181 N180 1.365 . S
N181 H201 0.862 . S
C182 C177 1.501 . S
C182 H183 0.961 . S
C182 H184 0.961 . S
C182 H185 0.960 . S
H183 C182 0.961 . S
H184 C182 0.961 . S
H185 C182 0.960 . S
C186 N187 1.342 . S
C186 C190 1.401 . S
C186 C191 1.499 . S
N187 Co170 1.989 . S
N187 C186 1.342 . S
N187 N188 1.388 . S
N188 Co171 1.993 . S
N188 N187 1.388 . S
N188 C189 1.346 . S
C189 N188 1.346 . S
C189 C190 1.396 . S
C189 C199 1.510 . S
C190 C186 1.401 . S
C190 C189 1.396 . S
C191 C186 1.499 . S
C191 H192 0.959 . S
C191 H193 0.960 . S
C191 H194 0.961 . S
H192 C191 0.959 . S
H193 C191 0.960 . S
H194 C191 0.961 . S
O195 Co170 1.967 . S
O195 C203 1.258 . S
O196 Co171 1.941 . S
O196 C203 1.266 . S
H197 C199 0.959 . S
H198 C199 0.961 . S
C199 C189 1.510 . S
C199 H197 0.959 . S
C199 H198 0.961 . S
C199 H200 0.960 . S
H200 C199 0.960 . S
H201 N181 0.862 . S
O202 Co170 1.920 . S
O202 C175 1.289 . S
C203 O195 1.258 . S
C203 O196 1.266 . S
Co204 O207 1.970 . S
Co204 N221 1.989 . S
Co204 O229 1.967 . S
Co204 O236 1.920 . S
Co205 O208 1.966 . S
Co205 N214 2.022 . S
Co205 N222 1.993 . S
Co205 O230 1.941 . S
C206 O207 1.258 . S
C206 O208 1.263 . S
O207 Co204 1.970 . S
O207 C206 1.258 . S
O208 Co205 1.966 . S
O208 C206 1.263 . S
C209 O210 1.235 . S
C209 O236 1.289 . S
O210 C209 1.235 . S
C211 C213 1.400 . S
C211 N214 1.351 . S
C211 C216 1.501 . S
C212 C213 1.387 . S
C212 N215 1.341 . S
C213 C211 1.400 . S
C213 C212 1.387 . S
N214 Co205 2.022 . S
N214 C211 1.351 . S
N214 N215 1.365 . S
N215 C212 1.341 . S
N215 N214 1.365 . S
N215 H235 0.862 . S
C216 C211 1.501 . S
C216 H217 0.961 . S
C216 H218 0.961 . S
C216 H219 0.960 . S
H217 C216 0.961 . S
H218 C216 0.961 . S
H219 C216 0.960 . S
C220 N221 1.342 . S
C220 C224 1.401 . S
C220 C225 1.499 . S
N221 Co204 1.989 . S
N221 C220 1.342 . S
N221 N222 1.388 . S
N222 Co205 1.993 . S
N222 N221 1.388 . S
N222 C223 1.346 . S
C223 N222 1.346 . S
C223 C224 1.396 . S
C223 C233 1.510 . S
C224 C220 1.401 . S
C224 C223 1.396 . S
C225 C220 1.499 . S
C225 H226 0.959 . S
C225 H227 0.960 . S
C225 H228 0.961 . S
H226 C225 0.959 . S
H227 C225 0.960 . S
H228 C225 0.961 . S
O229 Co204 1.967 . S
O229 C237 1.258 . S
O230 Co205 1.941 . S
O230 C237 1.266 . S
H231 C233 0.959 . S
H232 C233 0.961 . S
C233 C223 1.510 . S
C233 H231 0.959 . S
C233 H232 0.961 . S
C233 H234 0.960 . S
H234 C233 0.960 . S
H235 N215 0.862 . S
O236 Co204 1.920 . S
O236 C209 1.289 . S
C237 O229 1.258 . S
C237 O230 1.266 . S
Co238 O241 1.970 . S
Co238 N255 1.989 . S
Co238 O263 1.967 1_554 S
Co238 O270 1.920 1_554 S
Co239 O242 1.966 . S
Co239 N248 2.022 . S
Co239 N256 1.993 . S
Co239 O264 1.941 . S
C240 O241 1.258 . S
C240 O242 1.263 . S
O241 Co238 1.970 . S
O241 C240 1.258 . S
O242 Co239 1.966 . S
O242 C240 1.263 . S
C243 O244 1.235 . S
C243 O270 1.289 . S
O244 C243 1.235 . S
C245 C247 1.400 . S
C245 N248 1.351 . S
C245 C250 1.501 . S
C246 C247 1.387 . S
C246 N249 1.341 . S
C247 C245 1.400 . S
C247 C246 1.387 . S
N248 Co239 2.022 . S
N248 C245 1.351 . S
N248 N249 1.365 . S
N249 C246 1.341 . S
N249 N248 1.365 . S
N249 H269 0.862 . S
C250 C245 1.501 . S
C250 H251 0.961 . S
C250 H252 0.961 . S
C250 H253 0.960 . S
H251 C250 0.961 . S
H252 C250 0.961 . S
H253 C250 0.960 . S
C254 N255 1.342 . S
C254 C258 1.401 . S
C254 C259 1.499 . S
N255 Co238 1.989 . S
N255 C254 1.342 . S
N255 N256 1.388 . S
N256 Co239 1.993 . S
N256 N255 1.388 . S
N256 C257 1.346 . S
C257 N256 1.346 . S
C257 C258 1.396 . S
C257 C267 1.510 . S
C258 C254 1.401 . S
C258 C257 1.396 . S
C259 C254 1.499 . S
C259 H260 0.959 . S
C259 H261 0.960 . S
C259 H262 0.961 . S
H260 C259 0.959 . S
H261 C259 0.960 . S
H262 C259 0.961 . S
O263 Co238 1.967 1_556 S
O263 C271 1.258 1_556 S
O264 Co239 1.941 . S
O264 C271 1.266 . S
H265 C267 0.959 . S
H266 C267 0.961 . S
C267 C257 1.510 . S
C267 H265 0.959 . S
C267 H266 0.961 . S
C267 H268 0.960 . S
H268 C267 0.960 . S
H269 N249 0.862 . S
O270 Co238 1.920 1_556 S
O270 C243 1.289 . S
C271 O263 1.258 1_554 S
C271 O264 1.266 . S
C272 C273 1.391 . S
C272 C274 1.394 . S
C272 H288 0.931 . S
C273 C272 1.391 . S
C273 C277 1.376 . S
C274 C272 1.394 . S
C274 C275 1.369 . S
C274 C278 1.531 . S
C275 C274 1.369 . S
C275 C276 1.410 . S
C275 C283 1.503 . S
C276 C275 1.410 . S
C276 C277 1.392 . S
C276 C279 1.511 . S
C277 C273 1.376 . S
C277 C276 1.392 . S
C277 H289 0.929 . S
C278 C274 1.531 . S
C278 H290 0.960 . S
C278 H291 0.962 . S
C278 H292 0.960 . S
C279 C276 1.511 . S
C279 H293 0.961 . S
C279 H294 0.961 . S
C279 H295 0.961 . S
C280 C281 1.370 . S
C280 C282 1.363 . S
C280 H296 0.931 . S
C281 C280 1.370 . S
C281 C285 1.408 . S
C282 C280 1.363 . S
C282 C283 1.370 . S
C282 C286 1.524 . S
C283 C275 1.503 . S
C283 C282 1.370 . S
C283 C284 1.403 . S
C284 C283 1.403 . S
C284 C285 1.404 . S
C284 C287 1.539 . S
C285 C281 1.408 . S
C285 C284 1.404 . S
C285 H297 0.930 . S
C286 C282 1.524 . S
C286 H298 0.956 . S
C286 H299 0.961 . S
C286 H300 0.961 . S
C287 C284 1.539 . S
C287 H301 0.958 . S
C287 H302 0.961 . S
C287 H303 0.960 . S
H288 C272 0.931 . S
H289 C277 0.929 . S
H290 C278 0.960 . S
H291 C278 0.962 . S
H292 C278 0.960 . S
H293 C279 0.961 . S
H294 C279 0.961 . S
H295 C279 0.961 . S
H296 C280 0.931 . S
H297 C285 0.930 . S
H298 C286 0.956 . S
H299 C286 0.961 . S
H300 C286 0.961 . S
H301 C287 0.958 . S
H302 C287 0.961 . S
H303 C287 0.960 . S
C304 C305 1.391 . S
C304 C306 1.394 . S
C304 H320 0.931 . S
C305 C304 1.391 . S
C305 C309 1.376 . S
C306 C304 1.394 . S
C306 C307 1.369 . S
C306 C310 1.531 . S
C307 C306 1.369 . S
C307 C308 1.410 . S
C307 C315 1.503 . S
C308 C307 1.410 . S
C308 C309 1.392 . S
C308 C311 1.511 . S
C309 C305 1.376 . S
C309 C308 1.392 . S
C309 H321 0.929 . S
C310 C306 1.531 . S
C310 H322 0.960 . S
C310 H323 0.962 . S
C310 H324 0.960 . S
C311 C308 1.511 . S
C311 H325 0.961 . S
C311 H326 0.961 . S
C311 H327 0.961 . S
C312 C313 1.370 . S
C312 C314 1.363 . S
C312 H328 0.931 . S
C313 C312 1.370 . S
C313 C317 1.408 . S
C314 C312 1.363 . S
C314 C315 1.370 . S
C314 C318 1.524 . S
C315 C307 1.503 . S
C315 C314 1.370 . S
C315 C316 1.403 . S
C316 C315 1.403 . S
C316 C317 1.404 . S
C316 C319 1.539 . S
C317 C313 1.408 . S
C317 C316 1.404 . S
C317 H329 0.930 . S
C318 C314 1.524 . S
C318 H330 0.956 . S
C318 H331 0.961 . S
C318 H332 0.961 . S
C319 C316 1.539 . S
C319 H333 0.958 . S
C319 H334 0.961 . S
C319 H335 0.960 . S
H320 C304 0.931 . S
H321 C309 0.929 . S
H322 C310 0.960 . S
H323 C310 0.962 . S
H324 C310 0.960 . S
H325 C311 0.961 . S
H326 C311 0.961 . S
H327 C311 0.961 . S
H328 C312 0.931 . S
H329 C317 0.930 . S
H330 C318 0.956 . S
H331 C318 0.961 . S
H332 C318 0.961 . S
H333 C319 0.958 . S
H334 C319 0.961 . S
H335 C319 0.960 . S
C336 C337 1.391 . S
C336 C338 1.394 . S
C336 H352 0.931 . S
C337 C336 1.391 . S
C337 C341 1.376 . S
C338 C336 1.394 . S
C338 C339 1.369 . S
C338 C342 1.531 . S
C339 C338 1.369 . S
C339 C340 1.410 . S
C339 C347 1.503 . S
C340 C339 1.410 . S
C340 C341 1.392 . S
C340 C343 1.511 . S
C341 C337 1.376 . S
C341 C340 1.392 . S
C341 H353 0.929 . S
C342 C338 1.531 . S
C342 H354 0.960 . S
C342 H355 0.962 . S
C342 H356 0.960 . S
C343 C340 1.511 . S
C343 H357 0.961 . S
C343 H358 0.961 . S
C343 H359 0.961 . S
C344 C345 1.370 . S
C344 C346 1.363 . S
C344 H360 0.931 . S
C345 C344 1.370 . S
C345 C349 1.408 . S
C346 C344 1.363 . S
C346 C347 1.370 . S
C346 C350 1.524 . S
C347 C339 1.503 . S
C347 C346 1.370 . S
C347 C348 1.403 . S
C348 C347 1.403 . S
C348 C349 1.404 . S
C348 C351 1.539 . S
C349 C345 1.408 . S
C349 C348 1.404 . S
C349 H361 0.930 . S
C350 C346 1.524 . S
C350 H362 0.956 . S
C350 H363 0.961 . S
C350 H364 0.961 . S
C351 C348 1.539 . S
C351 H365 0.958 . S
C351 H366 0.961 . S
C351 H367 0.960 . S
H352 C336 0.931 . S
H353 C341 0.929 . S
H354 C342 0.960 . S
H355 C342 0.962 . S
H356 C342 0.960 . S
H357 C343 0.961 . S
H358 C343 0.961 . S
H359 C343 0.961 . S
H360 C344 0.931 . S
H361 C349 0.930 . S
H362 C350 0.956 . S
H363 C350 0.961 . S
H364 C350 0.961 . S
H365 C351 0.958 . S
H366 C351 0.961 . S
H367 C351 0.960 . S
C368 C369 1.391 . S
C368 C370 1.394 . S
C368 H384 0.931 . S
C369 C368 1.391 . S
C369 C373 1.376 1_556 S
C370 C368 1.394 . S
C370 C371 1.369 . S
C370 C374 1.531 . S
C371 C370 1.369 . S
C371 C372 1.410 1_556 S
C371 C379 1.503 1_556 S
C372 C371 1.410 1_554 S
C372 C373 1.392 . S
C372 C375 1.511 . S
C373 C369 1.376 1_554 S
C373 C372 1.392 . S
C373 H385 0.929 . S
C374 C370 1.531 . S
C374 H386 0.960 . S
C374 H387 0.962 . S
C374 H388 0.960 . S
C375 C372 1.511 . S
C375 H389 0.961 . S
C375 H390 0.961 . S
C375 H391 0.961 . S
C376 C377 1.370 . S
C376 C378 1.363 . S
C376 H392 0.931 . S
C377 C376 1.370 . S
C377 C381 1.408 . S
C378 C376 1.363 . S
C378 C379 1.370 . S
C378 C382 1.524 1_554 S
C379 C371 1.503 1_554 S
C379 C378 1.370 . S
C379 C380 1.403 . S
C380 C379 1.403 . S
C380 C381 1.404 . S
C380 C383 1.539 . S
C381 C377 1.408 . S
C381 C380 1.404 . S
C381 H393 0.930 . S
C382 C378 1.524 1_556 S
C382 H394 0.956 . S
C382 H395 0.961 1_556 S
C382 H396 0.961 . S
C383 C380 1.539 . S
C383 H397 0.940 1_554 S
C383 H398 0.961 . S
C383 H399 0.960 . S
H384 C368 0.931 . S
H385 C373 0.929 . S
H386 C374 0.960 . S
H387 C374 0.962 . S
H388 C374 0.960 . S
H389 C375 0.961 . S
H390 C375 0.961 . S
H391 C375 0.961 . S
H392 C376 0.931 . S
H393 C381 0.930 . S
H394 C382 0.956 . S
H395 C382 0.961 1_554 S
H396 C382 0.961 . S
H397 C383 0.940 1_556 S
H398 C383 0.961 . S
H399 C383 0.960 . S
C400 C401 1.391 . S
C400 C402 1.394 . S
C400 H416 0.931 . S
C401 C400 1.391 . S
C401 C405 1.376 . S
C402 C400 1.394 . S
C402 C403 1.369 . S
C402 C406 1.531 . S
C403 C402 1.369 . S
C403 C404 1.410 . S
C403 C411 1.503 . S
C404 C403 1.410 . S
C404 C405 1.392 . S
C404 C407 1.511 . S
C405 C401 1.376 . S
C405 C404 1.392 . S
C405 H417 0.929 . S
C406 C402 1.531 . S
C406 H418 0.960 . S
C406 H419 0.962 . S
C406 H420 0.960 . S
C407 C404 1.511 . S
C407 H421 0.961 . S
C407 H422 0.961 . S
C407 H423 0.961 . S
C408 C409 1.370 . S
C408 C410 1.363 . S
C408 H424 0.931 . S
C409 C408 1.370 . S
C409 C413 1.408 . S
C410 C408 1.363 . S
C410 C411 1.370 . S
C410 C414 1.524 . S
C411 C403 1.503 . S
C411 C410 1.370 . S
C411 C412 1.403 . S
C412 C411 1.403 . S
C412 C413 1.404 . S
C412 C415 1.539 . S
C413 C409 1.408 . S
C413 C412 1.404 . S
C413 H425 0.930 . S
C414 C410 1.524 . S
C414 H426 0.956 . S
C414 H427 0.961 . S
C414 H428 0.961 . S
C415 C412 1.539 . S
C415 H429 0.958 . S
C415 H430 0.961 . S
C415 H431 0.960 . S
H416 C400 0.931 . S
H417 C405 0.929 . S
H418 C406 0.960 . S
H419 C406 0.962 . S
H420 C406 0.960 . S
H421 C407 0.961 . S
H422 C407 0.961 . S
H423 C407 0.961 . S
H424 C408 0.931 . S
H425 C413 0.930 . S
H426 C414 0.956 . S
H427 C414 0.961 . S
H428 C414 0.961 . S
H429 C415 0.958 . S
H430 C415 0.961 . S
H431 C415 0.960 . S
C432 C433 1.391 . S
C432 C434 1.394 . S
C432 H448 0.931 . S
C433 C432 1.391 . S
C433 C437 1.376 . S
C434 C432 1.394 . S
C434 C435 1.369 . S
C434 C438 1.531 . S
C435 C434 1.369 . S
C435 C436 1.410 . S
C435 C443 1.503 . S
C436 C435 1.410 . S
C436 C437 1.392 . S
C436 C439 1.511 . S
C437 C433 1.376 . S
C437 C436 1.392 . S
C437 H449 0.929 . S
C438 C434 1.531 . S
C438 H450 0.960 . S
C438 H451 0.962 . S
C438 H452 0.960 . S
C439 C436 1.511 . S
C439 H453 0.961 . S
C439 H454 0.961 . S
C439 H455 0.961 . S
C440 C441 1.370 . S
C440 C442 1.363 . S
C440 H456 0.931 . S
C441 C440 1.370 . S
C441 C445 1.408 . S
C442 C440 1.363 . S
C442 C443 1.370 . S
C442 C446 1.524 . S
C443 C435 1.503 . S
C443 C442 1.370 . S
C443 C444 1.403 . S
C444 C443 1.403 . S
C444 C445 1.404 . S
C444 C447 1.539 . S
C445 C441 1.408 . S
C445 C444 1.404 . S
C445 H457 0.930 . S
C446 C442 1.524 . S
C446 H458 0.956 . S
C446 H459 0.961 . S
C446 H460 0.961 . S
C447 C444 1.539 . S
C447 H461 0.958 . S
C447 H462 0.961 . S
C447 H463 0.960 . S
H448 C432 0.931 . S
H449 C437 0.929 . S
H450 C438 0.960 . S
H451 C438 0.962 . S
H452 C438 0.960 . S
H453 C439 0.961 . S
H454 C439 0.961 . S
H455 C439 0.961 . S
H456 C440 0.931 . S
H457 C445 0.930 . S
H458 C446 0.956 . S
H459 C446 0.961 . S
H460 C446 0.961 . S
H461 C447 0.958 . S
H462 C447 0.961 . S
H463 C447 0.960 . S
C464 C465 1.391 . S
C464 C466 1.394 . S
C464 H480 0.931 . S
C465 C464 1.391 . S
C465 C469 1.376 . S
C466 C464 1.394 . S
C466 C467 1.369 . S
C466 C470 1.531 . S
C467 C466 1.369 . S
C467 C468 1.410 . S
C467 C475 1.503 . S
C468 C467 1.410 . S
C468 C469 1.392 . S
C468 C471 1.511 . S
C469 C465 1.376 . S
C469 C468 1.392 . S
C469 H481 0.929 . S
C470 C466 1.531 . S
C470 H482 0.960 . S
C470 H483 0.962 . S
C470 H484 0.960 . S
C471 C468 1.511 . S
C471 H485 0.961 . S
C471 H486 0.961 . S
C471 H487 0.961 . S
C472 C473 1.370 . S
C472 C474 1.363 . S
C472 H488 0.931 . S
C473 C472 1.370 . S
C473 C477 1.408 . S
C474 C472 1.363 . S
C474 C475 1.370 . S
C474 C478 1.524 . S
C475 C467 1.503 . S
C475 C474 1.370 . S
C475 C476 1.403 . S
C476 C475 1.403 . S
C476 C477 1.404 . S
C476 C479 1.539 . S
C477 C473 1.408 . S
C477 C476 1.404 . S
C477 H489 0.930 . S
C478 C474 1.524 . S
C478 H490 0.956 . S
C478 H491 0.961 . S
C478 H492 0.961 . S
C479 C476 1.539 . S
C479 H493 0.958 . S
C479 H494 0.961 . S
C479 H495 0.960 . S
H480 C464 0.931 . S
H481 C469 0.929 . S
H482 C470 0.960 . S
H483 C470 0.962 . S
H484 C470 0.960 . S
H485 C471 0.961 . S
H486 C471 0.961 . S
H487 C471 0.961 . S
H488 C472 0.931 . S
H489 C477 0.930 . S
H490 C478 0.956 . S
H491 C478 0.961 . S
H492 C478 0.961 . S
H493 C479 0.958 . S
H494 C479 0.961 . S
H495 C479 0.960 . S
C496 C497 1.391 . S
C496 C498 1.394 . S
C496 H512 0.931 . S
C497 C496 1.391 . S
C497 C501 1.376 . S
C498 C496 1.394 . S
C498 C499 1.369 . S
C498 C502 1.531 . S
C499 C498 1.369 . S
C499 C500 1.410 . S
C499 C507 1.503 . S
C500 C499 1.410 . S
C500 C501 1.392 . S
C500 C503 1.511 . S
C501 C497 1.376 . S
C501 C500 1.392 . S
C501 H513 0.929 . S
C502 C498 1.531 . S
C502 H514 0.960 . S
C502 H515 0.962 . S
C502 H516 0.960 . S
C503 C500 1.511 . S
C503 H517 0.961 . S
C503 H518 0.961 . S
C503 H519 0.961 . S
C504 C505 1.370 . S
C504 C506 1.363 . S
C504 H520 0.931 . S
C505 C504 1.370 . S
C505 C509 1.408 . S
C506 C504 1.363 . S
C506 C507 1.370 . S
C506 C510 1.524 . S
C507 C499 1.503 . S
C507 C506 1.370 . S
C507 C508 1.403 . S
C508 C507 1.403 . S
C508 C509 1.404 . S
C508 C511 1.539 . S
C509 C505 1.408 . S
C509 C508 1.404 . S
C509 H521 0.930 . S
C510 C506 1.524 . S
C510 H522 0.956 . S
C510 H523 0.961 . S
C510 H524 0.961 . S
C511 C508 1.539 . S
C511 H525 0.958 . S
C511 H526 0.961 . S
C511 H527 0.960 . S
H512 C496 0.931 . S
H513 C501 0.929 . S
H514 C502 0.960 . S
H515 C502 0.962 . S
H516 C502 0.960 . S
H517 C503 0.961 . S
H518 C503 0.961 . S
H519 C503 0.961 . S
H520 C504 0.931 . S
H521 C509 0.930 . S
H522 C510 0.956 . S
H523 C510 0.961 . S
H524 C510 0.961 . S
H525 C511 0.958 . S
H526 C511 0.961 . S
H527 C511 0.960 . S
C528 C529 1.391 . S
C528 C530 1.394 . S
C528 H544 0.931 . S
C529 C528 1.391 . S
C529 C533 1.376 . S
C530 C528 1.394 . S
C530 C531 1.369 . S
C530 C534 1.531 1_455 S
C531 C530 1.369 . S
C531 C532 1.410 . S
C531 C539 1.503 1_454 S
C532 C531 1.410 . S
C532 C533 1.392 . S
C532 C535 1.511 1_554 S
C533 C529 1.376 . S
C533 C532 1.392 . S
C533 H545 0.929 . S
C534 C530 1.531 1_655 S
C534 H546 0.960 . S
C534 H547 0.962 . S
C534 H548 0.960 . S
C535 C532 1.511 1_556 S
C535 H549 0.961 1_556 S
C535 H550 0.961 . S
C535 H551 0.961 . S
C536 C537 1.370 . S
C536 C538 1.363 . S
C536 H552 0.931 . S
C537 C536 1.370 . S
C537 C541 1.408 . S
C538 C536 1.363 . S
C538 C539 1.370 . S
C538 C542 1.524 1_556 S
C539 C531 1.503 1_656 S
C539 C538 1.370 . S
C539 C540 1.403 1_655 S
C540 C539 1.403 1_455 S
C540 C541 1.404 1_455 S
C540 C543 1.539 . S
C541 C537 1.408 . S
C541 C540 1.404 1_655 S
C541 H553 0.930 1_655 S
C542 C538 1.524 1_554 S
C542 H554 0.956 . S
C542 H555 0.961 . S
C542 H556 0.961 1_554 S
C543 C540 1.539 . S
C543 H557 0.958 . S
C543 H558 0.961 . S
C543 H559 0.960 . S
H544 C528 0.931 . S
H545 C533 0.929 . S
H546 C534 0.960 . S
H547 C534 0.962 . S
H548 C534 0.960 . S
H549 C535 0.961 1_554 S
H550 C535 0.961 . S
H551 C535 0.961 . S
H552 C536 0.931 . S
H553 C541 0.930 1_455 S
H554 C542 0.956 . S
H555 C542 0.961 . S
H556 C542 0.961 1_556 S
H557 C543 0.958 . S
H558 C543 0.961 . S
H559 C543 0.960 . S
C560 C561 1.391 . S
C560 C562 1.394 1_565 S
C560 H576 0.931 . S
C561 C560 1.391 . S
C561 C565 1.376 . S
C562 C560 1.394 1_545 S
C562 C563 1.369 1_545 S
C562 C566 1.531 . S
C563 C562 1.369 1_565 S
C563 C564 1.410 . S
C563 C571 1.503 1_565 S
C564 C563 1.410 . S
C564 C565 1.392 . S
C564 C567 1.511 . S
C565 C561 1.376 . S
C565 C564 1.392 . S
C565 H577 0.929 . S
C566 C562 1.531 . S
C566 H578 0.960 . S
C566 H579 0.962 . S
C566 H580 0.960 . S
C567 C564 1.511 . S
C567 H581 0.961 . S
C567 H582 0.961 . S
C567 H583 0.961 . S
C568 C569 1.370 . S
C568 C570 1.363 1_545 S
C568 H584 0.931 1_545 S
C569 C568 1.370 . S
C569 C573 1.408 . S
C570 C568 1.363 1_565 S
C570 C571 1.370 1_565 S
C570 C574 1.524 . S
C571 C563 1.503 1_545 S
C571 C570 1.370 1_545 S
C571 C572 1.403 . S
C572 C571 1.403 . S
C572 C573 1.404 . S
C572 C575 1.539 . S
C573 C569 1.408 . S
C573 C572 1.404 . S
C573 H585 0.930 . S
C574 C570 1.524 . S
C574 H586 0.956 . S
C574 H587 0.961 . S
C574 H588 0.961 . S
C575 C572 1.539 . S
C575 H589 0.958 . S
C575 H590 0.961 . S
C575 H591 0.960 . S
H576 C560 0.931 . S
H577 C565 0.929 . S
H578 C566 0.960 . S
H579 C566 0.962 . S
H580 C566 0.960 . S
H581 C567 0.961 . S
H582 C567 0.961 . S
H583 C567 0.961 . S
H584 C568 0.931 1_565 S
H585 C573 0.930 . S
H586 C574 0.956 . S
H587 C574 0.961 . S
H588 C574 0.961 . S
H589 C575 0.958 . S
H590 C575 0.961 . S
H591 C575 0.960 . S
C592 C593 1.391 . S
C592 C594 1.394 1_655 S
C592 H608 0.931 1_655 S
C593 C592 1.391 . S
C593 C597 1.376 . S
C594 C592 1.394 1_455 S
C594 C595 1.369 1_455 S
C594 C598 1.531 . S
C595 C594 1.369 1_655 S
C595 C596 1.410 . S
C595 C603 1.503 1_655 S
C596 C595 1.410 . S
C596 C597 1.392 . S
C596 C599 1.511 . S
C597 C593 1.376 . S
C597 C596 1.392 . S
C597 H609 0.929 . S
C598 C594 1.531 . S
C598 H610 0.960 . S
C598 H611 0.962 . S
C598 H612 0.960 . S
C599 C596 1.511 . S
C599 H613 0.961 . S
C599 H614 0.961 . S
C599 H615 0.961 . S
C600 C601 1.370 . S
C600 C602 1.363 . S
C600 H616 0.931 . S
C601 C600 1.370 . S
C601 C605 1.408 . S
C602 C600 1.363 . S
C602 C603 1.370 . S
C602 C606 1.524 . S
C603 C595 1.503 1_455 S
C603 C602 1.370 . S
C603 C604 1.403 . S
C604 C603 1.403 . S
C604 C605 1.404 . S
C604 C607 1.539 1_455 S
C605 C601 1.408 . S
C605 C604 1.404 . S
C605 H617 0.930 . S
C606 C602 1.524 . S
C606 H618 0.956 . S
C606 H619 0.961 . S
C606 H620 0.961 . S
C607 C604 1.539 1_655 S
C607 H621 0.958 . S
C607 H622 0.961 . S
C607 H623 0.960 . S
H608 C592 0.931 1_455 S
H609 C597 0.929 . S
H610 C598 0.960 . S
H611 C598 0.962 . S
H612 C598 0.960 . S
H613 C599 0.961 . S
H614 C599 0.961 . S
H615 C599 0.961 . S
H616 C600 0.931 . S
H617 C605 0.930 . S
H618 C606 0.956 . S
H619 C606 0.961 . S
H620 C606 0.961 . S
H621 C607 0.958 . S
H622 C607 0.961 . S
H623 C607 0.960 . S
C624 C625 1.391 . S
C624 C626 1.394 . S
C624 H640 0.931 . S
C625 C624 1.391 . S
C625 C629 1.376 . S
C626 C624 1.394 . S
C626 C627 1.369 . S
C626 C630 1.531 . S
C627 C626 1.369 . S
C627 C628 1.410 . S
C627 C635 1.503 1_545 S
C628 C627 1.410 . S
C628 C629 1.392 . S
C628 C631 1.511 . S
C629 C625 1.376 . S
C629 C628 1.392 . S
C629 H641 0.929 . S
C630 C626 1.531 . S
C630 H642 0.960 . S
C630 H643 0.962 1_545 S
C630 H644 0.960 . S
C631 C628 1.511 . S
C631 H645 0.961 . S
C631 H646 0.961 . S
C631 H647 0.961 . S
C632 C633 1.370 . S
C632 C634 1.363 . S
C632 H648 0.931 . S
C633 C632 1.370 . S
C633 C637 1.408 1_565 S
C634 C632 1.363 . S
C634 C635 1.370 . S
C634 C638 1.524 . S
C635 C627 1.503 1_565 S
C635 C634 1.370 . S
C635 C636 1.403 1_565 S
C636 C635 1.403 1_545 S
C636 C637 1.404 . S
C636 C639 1.539 . S
C637 C633 1.408 1_545 S
C637 C636 1.404 . S
C637 H649 0.930 . S
C638 C634 1.524 . S
C638 H650 0.956 . S
C638 H651 0.961 . S
C638 H652 0.961 . S
C639 C636 1.539 . S
C639 H653 0.958 . S
C639 H654 0.961 . S
C639 H655 0.960 . S
H640 C624 0.931 . S
H641 C629 0.929 . S
H642 C630 0.960 . S
H643 C630 0.962 1_565 S
H644 C630 0.960 . S
H645 C631 0.961 . S
H646 C631 0.961 . S
H647 C631 0.961 . S
H648 C632 0.931 . S
H649 C637 0.930 . S
H650 C638 0.956 . S
H651 C638 0.961 . S
H652 C638 0.961 . S
H653 C639 0.958 . S
H654 C639 0.961 . S
H655 C639 0.960 . S
C656 C657 1.391 . S
C656 C658 1.394 . S
C656 H672 0.931 . S
C657 C656 1.391 . S
C657 C661 1.376 . S
C658 C656 1.394 . S
C658 C659 1.369 . S
C658 C662 1.531 . S
C659 C658 1.369 . S
C659 C660 1.410 . S
C659 C667 1.503 . S
C660 C659 1.410 . S
C660 C661 1.392 . S
C660 C663 1.511 . S
C661 C657 1.376 . S
C661 C660 1.392 . S
C661 H673 0.929 . S
C662 C658 1.531 . S
C662 H674 0.960 . S
C662 H675 0.962 . S
C662 H676 0.960 . S
C663 C660 1.511 . S
C663 H677 0.961 . S
C663 H678 0.961 . S
C663 H679 0.961 . S
C664 C665 1.370 . S
C664 C666 1.363 . S
C664 H680 0.931 . S
C665 C664 1.370 . S
C665 C669 1.408 . S
C666 C664 1.363 . S
C666 C667 1.370 . S
C666 C670 1.524 . S
C667 C659 1.503 . S
C667 C666 1.370 . S
C667 C668 1.403 . S
C668 C667 1.403 . S
C668 C669 1.404 . S
C668 C671 1.539 . S
C669 C665 1.408 . S
C669 C668 1.404 . S
C669 H681 0.930 1_545 S
C670 C666 1.524 . S
C670 H682 0.956 . S
C670 H683 0.961 . S
C670 H684 0.961 . S
C671 C668 1.539 . S
C671 H685 0.958 . S
C671 H686 0.961 . S
C671 H687 0.960 . S
H672 C656 0.931 . S
H673 C661 0.929 . S
H674 C662 0.960 . S
H675 C662 0.962 . S
H676 C662 0.960 . S
H677 C663 0.961 . S
H678 C663 0.961 . S
H679 C663 0.961 . S
H680 C664 0.931 . S
H681 C669 0.930 1_565 S
H682 C670 0.956 . S
H683 C670 0.961 . S
H684 C670 0.961 . S
H685 C671 0.958 . S
H686 C671 0.961 . S
H687 C671 0.960 . S
C688 C689 1.391 . S
C688 C690 1.394 . S
C688 H704 0.931 1_655 S
C689 C688 1.391 . S
C689 C693 1.376 . S
C690 C688 1.394 . S
C690 C691 1.369 . S
C690 C694 1.531 . S
C691 C690 1.369 . S
C691 C692 1.410 . S
C691 C699 1.503 . S
C692 C691 1.410 . S
C692 C693 1.392 . S
C692 C695 1.511 . S
C693 C689 1.376 . S
C693 C692 1.392 . S
C693 H705 0.929 . S
C694 C690 1.531 . S
C694 H706 0.960 . S
C694 H707 0.962 . S
C694 H708 0.960 . S
C695 C692 1.511 . S
C695 H709 0.961 . S
C695 H710 0.961 . S
C695 H711 0.961 . S
C696 C697 1.370 . S
C696 C698 1.363 . S
C696 H712 0.931 . S
C697 C696 1.370 . S
C697 C701 1.408 . S
C698 C696 1.363 . S
C698 C699 1.370 . S
C698 C702 1.524 . S
C699 C691 1.503 . S
C699 C698 1.370 . S
C699 C700 1.403 . S
C700 C699 1.403 . S
C700 C701 1.404 . S
C700 C703 1.539 . S
C701 C697 1.408 . S
C701 C700 1.404 . S
C701 H713 0.930 . S
C702 C698 1.524 . S
C702 H714 0.956 . S
C702 H715 0.961 . S
C702 H716 0.961 . S
C703 C700 1.539 . S
C703 H717 0.958 . S
C703 H718 0.961 . S
C703 H719 0.960 . S
H704 C688 0.931 1_455 S
H705 C693 0.929 . S
H706 C694 0.960 . S
H707 C694 0.962 . S
H708 C694 0.960 . S
H709 C695 0.961 . S
H710 C695 0.961 . S
H711 C695 0.961 . S
H712 C696 0.931 . S
H713 C701 0.930 . S
H714 C702 0.956 . S
H715 C702 0.961 . S
H716 C702 0.961 . S
H717 C703 0.958 . S
H718 C703 0.961 . S
H719 C703 0.960 . S
C720 C721 1.391 . S
C720 C722 1.394 . S
C720 H736 0.931 1_565 S
C721 C720 1.391 . S
C721 C725 1.376 . S
C722 C720 1.394 . S
C722 C723 1.369 . S
C722 C726 1.531 . S
C723 C722 1.369 . S
C723 C724 1.410 . S
C723 C731 1.503 . S
C724 C723 1.410 . S
C724 C725 1.392 . S
C724 C727 1.511 . S
C725 C721 1.376 . S
C725 C724 1.392 . S
C725 H737 0.929 . S
C726 C722 1.531 . S
C726 H738 0.960 . S
C726 H739 0.962 . S
C726 H740 0.960 . S
C727 C724 1.511 . S
C727 H741 0.961 . S
C727 H742 0.961 . S
C727 H743 0.961 . S
C728 C729 1.370 . S
C728 C730 1.363 . S
C728 H744 0.931 . S
C729 C728 1.370 . S
C729 C733 1.408 . S
C730 C728 1.363 . S
C730 C731 1.370 . S
C730 C734 1.524 . S
C731 C723 1.503 . S
C731 C730 1.370 . S
C731 C732 1.403 . S
C732 C731 1.403 . S
C732 C733 1.404 . S
C732 C735 1.539 . S
C733 C729 1.408 . S
C733 C732 1.404 . S
C733 H745 0.930 . S
C734 C730 1.524 . S
C734 H746 0.956 . S
C734 H747 0.961 . S
C734 H748 0.961 . S
C735 C732 1.539 . S
C735 H749 0.958 . S
C735 H750 0.961 . S
C735 H751 0.960 . S
H736 C720 0.931 1_545 S
H737 C725 0.929 . S
H738 C726 0.960 . S
H739 C726 0.962 . S
H740 C726 0.960 . S
H741 C727 0.961 . S
H742 C727 0.961 . S
H743 C727 0.961 . S
H744 C728 0.931 . S
H745 C733 0.930 . S
H746 C734 0.956 . S
H747 C734 0.961 . S
H748 C734 0.961 . S
H749 C735 0.958 . S
H750 C735 0.961 . S
H751 C735 0.960 . S
C752 C753 1.391 . S
C752 C754 1.394 . S
C752 H768 0.931 . S
C753 C752 1.391 . S
C753 C757 1.376 . S
C754 C752 1.394 . S
C754 C755 1.369 . S
C754 C758 1.531 . S
C755 C754 1.369 . S
C755 C756 1.410 . S
C755 C763 1.503 . S
C756 C755 1.410 . S
C756 C757 1.392 . S
C756 C759 1.511 . S
C757 C753 1.376 . S
C757 C756 1.392 . S
C757 H769 0.929 1_455 S
C758 C754 1.531 . S
C758 H770 0.960 . S
C758 H771 0.962 . S
C758 H772 0.960 . S
C759 C756 1.511 . S
C759 H773 0.961 1_455 S
C759 H774 0.961 . S
C759 H775 0.961 . S
C760 C761 1.370 . S
C760 C762 1.363 . S
C760 H776 0.931 . S
C761 C760 1.370 . S
C761 C765 1.408 . S
C762 C760 1.363 . S
C762 C763 1.370 . S
C762 C766 1.524 . S
C763 C755 1.503 . S
C763 C762 1.370 . S
C763 C764 1.403 . S
C764 C763 1.403 . S
C764 C765 1.404 . S
C764 C767 1.539 . S
C765 C761 1.408 . S
C765 C764 1.404 . S
C765 H777 0.930 . S
C766 C762 1.524 . S
C766 H778 0.956 . S
C766 H779 0.961 . S
C766 H780 0.961 . S
C767 C764 1.539 . S
C767 H781 0.958 . S
C767 H782 0.961 . S
C767 H783 0.960 . S
H768 C752 0.931 . S
H769 C757 0.929 1_655 S
H770 C758 0.960 . S
H771 C758 0.962 . S
H772 C758 0.960 . S
H773 C759 0.961 1_655 S
H774 C759 0.961 . S
H775 C759 0.961 . S
H776 C760 0.931 . S
H777 C765 0.930 . S
H778 C766 0.956 . S
H779 C766 0.961 . S
H780 C766 0.961 . S
H781 C767 0.958 . S
H782 C767 0.961 . S
H783 C767 0.960 . S
C784 C785 1.391 . S
C784 C786 1.394 . S
C784 H800 0.931 . S
C785 C784 1.391 . S
C785 C789 1.376 . S
C786 C784 1.394 . S
C786 C787 1.369 . S
C786 C790 1.531 . S
C787 C786 1.369 . S
C787 C788 1.410 . S
C787 C795 1.503 . S
C788 C787 1.410 . S
C788 C789 1.392 . S
C788 C791 1.511 . S
C789 C785 1.376 . S
C789 C788 1.392 . S
C789 H801 0.929 . S
C790 C786 1.531 . S
C790 H802 0.960 . S
C790 H803 0.962 . S
C790 H804 0.960 . S
C791 C788 1.511 . S
C791 H805 0.961 . S
C791 H806 0.961 . S
C791 H807 0.961 . S
C792 C793 1.370 . S
C792 C794 1.363 . S
C792 H808 0.931 . S
C793 C792 1.370 . S
C793 C797 1.408 . S
C794 C792 1.363 . S
C794 C795 1.370 . S
C794 C798 1.524 . S
C795 C787 1.503 . S
C795 C794 1.370 . S
C795 C796 1.403 . S
C796 C795 1.403 . S
C796 C797 1.404 . S
C796 C799 1.539 . S
C797 C793 1.408 . S
C797 C796 1.404 . S
C797 H809 0.930 1_565 S
C798 C794 1.524 . S
C798 H810 0.956 . S
C798 H811 0.961 . S
C798 H812 0.961 . S
C799 C796 1.539 . S
C799 H813 0.958 . S
C799 H814 0.961 . S
C799 H815 0.960 . S
H800 C784 0.931 . S
H801 C789 0.929 . S
H802 C790 0.960 . S
H803 C790 0.962 . S
H804 C790 0.960 . S
H805 C791 0.961 . S
H806 C791 0.961 . S
H807 C791 0.961 . S
H808 C792 0.931 . S
H809 C797 0.930 1_545 S
H810 C798 0.956 . S
H811 C798 0.961 . S
H812 C798 0.961 . S
H813 C799 0.958 . S
H814 C799 0.961 . S
H815 C799 0.960 . S
C816 C817 1.391 . S
C816 C818 1.394 . S
C816 H832 0.931 . S
C817 C816 1.391 . S
C817 C821 1.376 . S
C818 C816 1.394 . S
C818 C819 1.369 . S
C818 C822 1.531 . S
C819 C818 1.369 . S
C819 C820 1.410 . S
C819 C827 1.503 . S
C820 C819 1.410 . S
C820 C821 1.392 . S
C820 C823 1.511 . S
C821 C817 1.376 . S
C821 C820 1.392 . S
C821 H833 0.929 . S
C822 C818 1.531 . S
C822 H834 0.960 . S
C822 H835 0.962 . S
C822 H836 0.960 . S
C823 C820 1.511 . S
C823 H837 0.961 . S
C823 H838 0.961 . S
C823 H839 0.961 . S
C824 C825 1.370 . S
C824 C826 1.363 . S
C824 H840 0.931 1_455 S
C825 C824 1.370 . S
C825 C829 1.408 . S
C826 C824 1.363 . S
C826 C827 1.370 . S
C826 C830 1.524 . S
C827 C819 1.503 . S
C827 C826 1.370 . S
C827 C828 1.403 . S
C828 C827 1.403 . S
C828 C829 1.404 . S
C828 C831 1.539 . S
C829 C825 1.408 . S
C829 C828 1.404 . S
C829 H841 0.930 . S
C830 C826 1.524 . S
C830 H842 0.956 . S
C830 H843 0.961 . S
C830 H844 0.961 . S
C831 C828 1.539 . S
C831 H845 0.958 . S
C831 H846 0.961 . S
C831 H847 0.960 . S
H832 C816 0.931 . S
H833 C821 0.929 . S
H834 C822 0.960 . S
H835 C822 0.962 . S
H836 C822 0.960 . S
H837 C823 0.961 . S
H838 C823 0.961 . S
H839 C823 0.961 . S
H840 C824 0.931 1_655 S
H841 C829 0.930 . S
H842 C830 0.956 . S
H843 C830 0.961 . S
H844 C830 0.961 . S
H845 C831 0.958 . S
H846 C831 0.961 . S
H847 C831 0.960 . S
C848 C849 1.391 . S
C848 C850 1.394 . S
C848 H864 0.931 . S
C849 C848 1.391 . S
C849 C853 1.376 . S
C850 C848 1.394 . S
C850 C851 1.369 . S
C850 C854 1.531 . S
C851 C850 1.369 . S
C851 C852 1.410 . S
C851 C859 1.503 . S
C852 C851 1.410 . S
C852 C853 1.392 . S
C852 C855 1.511 . S
C853 C849 1.376 . S
C853 C852 1.392 . S
C853 H865 0.929 . S
C854 C850 1.531 . S
C854 H866 0.960 . S
C854 H867 0.962 . S
C854 H868 0.960 . S
C855 C852 1.511 . S
C855 H869 0.961 . S
C855 H870 0.961 . S
C855 H871 0.961 . S
C856 C857 1.370 . S
C856 C858 1.363 . S
C856 H872 0.931 . S
C857 C856 1.370 . S
C857 C861 1.408 1_545 S
C858 C856 1.363 . S
C858 C859 1.370 . S
C858 C862 1.524 . S
C859 C851 1.503 . S
C859 C858 1.370 . S
C859 C860 1.403 . S
C860 C859 1.403 . S
C860 C861 1.404 1_545 S
C860 C863 1.539 . S
C861 C857 1.408 1_565 S
C861 C860 1.404 1_565 S
C861 H873 0.930 . S
C862 C858 1.524 . S
C862 H874 0.956 . S
C862 H875 0.961 . S
C862 H876 0.961 . S
C863 C860 1.539 . S
C863 H877 0.958 . S
C863 H878 0.961 1_545 S
C863 H879 0.960 . S
H864 C848 0.931 . S
H865 C853 0.929 . S
H866 C854 0.960 . S
H867 C854 0.962 . S
H868 C854 0.960 . S
H869 C855 0.961 . S
H870 C855 0.961 . S
H871 C855 0.961 . S
H872 C856 0.931 . S
H873 C861 0.930 . S
H874 C862 0.956 . S
H875 C862 0.961 . S
H876 C862 0.961 . S
H877 C863 0.958 . S
H878 C863 0.961 1_565 S
H879 C863 0.960 . S
C880 C881 1.391 . S
C880 C882 1.394 . S
C880 H896 0.931 1_655 S
C881 C880 1.391 . S
C881 C885 1.376 . S
C882 C880 1.394 . S
C882 C883 1.369 . S
C882 C886 1.531 . S
C883 C882 1.369 . S
C883 C884 1.410 . S
C883 C891 1.503 . S
C884 C883 1.410 . S
C884 C885 1.392 . S
C884 C887 1.511 . S
C885 C881 1.376 . S
C885 C884 1.392 . S
C885 H897 0.929 . S
C886 C882 1.531 . S
C886 H898 0.960 . S
C886 H899 0.962 . S
C886 H900 0.960 . S
C887 C884 1.511 . S
C887 H901 0.961 . S
C887 H902 0.961 . S
C887 H903 0.961 . S
C888 C889 1.370 . S
C888 C890 1.363 . S
C888 H904 0.931 . S
C889 C888 1.370 . S
C889 C893 1.408 . S
C890 C888 1.363 . S
C890 C891 1.370 . S
C890 C894 1.524 . S
C891 C883 1.503 . S
C891 C890 1.370 . S
C891 C892 1.403 . S
C892 C891 1.403 . S
C892 C893 1.404 . S
C892 C895 1.539 . S
C893 C889 1.408 . S
C893 C892 1.404 . S
C893 H905 0.930 . S
C894 C890 1.524 . S
C894 H906 0.956 . S
C894 H907 0.961 . S
C894 H908 0.961 . S
C895 C892 1.539 . S
C895 H909 0.958 . S
C895 H910 0.961 . S
C895 H911 0.960 . S
H896 C880 0.931 1_455 S
H897 C885 0.929 . S
H898 C886 0.960 . S
H899 C886 0.962 . S
H900 C886 0.960 . S
H901 C887 0.961 . S
H902 C887 0.961 . S
H903 C887 0.961 . S
H904 C888 0.931 . S
H905 C893 0.930 . S
H906 C894 0.956 . S
H907 C894 0.961 . S
H908 C894 0.961 . S
H909 C895 0.958 . S
H910 C895 0.961 . S
H911 C895 0.960 . S
C273 C138 1.074 . S
C281 C2 1.067 . S
C305 C36 1.064 . S
C313 C172 1.071 . S
C337 C70 1.073 . S
C345 C206 1.068 . S
C369 C104 1.065 . S
C377 C240 1.071 . S
C401 C175 0.729 . S
C409 C5 0.729 . S
C433 C39 0.718 . S
C441 C209 0.725 . S
C465 C243 0.735 . S
C473 C73 0.726 . S
C497 C107 0.732 . S
C505 C141 0.728 . S
C529 C9 0.850 . S
C537 C213 0.769 . S
C561 C247 0.773 . S
C569 C43 0.807 . S
C593 C77 0.851 . S
C601 C145 0.784 . S
C625 C179 0.830 . S
C633 C111 0.753 . S
C657 C20 2.378 . S
C665 C135 2.386 1_544 S
C689 C33 2.385 1_655 S
C697 C54 2.384 . S
C721 C67 2.379 1_565 S
C729 C88 2.386 . S
C753 C101 2.382 1_455 S
C761 C122 2.381 . S
C785 C156 2.378 . S
C793 C203 2.386 1_565 S
C817 C190 2.372 . S
C825 C237 2.389 1_455 S
C849 C224 2.381 . S
C857 C271 2.385 1_546 S
C881 C169 2.385 1_655 S
C889 C258 2.383 . S
