# Generated by pormake.
# Topology umb, (4)-cn, num edge types: 1
# Building blocks:
#     Node 0, Type 0, BuildingBlock: KUFVIS_clean_sbu_0, # of connection points: 4
#     Node 1, Type 0, BuildingBlock: KUFVIS_clean_sbu_0, # of connection points: 4
#     Node 2, Type 0, BuildingBlock: KUFVIS_clean_sbu_0, # of connection points: 4
#     Node 3, Type 0, BuildingBlock: KUFVIS_clean_sbu_0, # of connection points: 4
#     Node 4, Type 0, BuildingBlock: KUFVIS_clean_sbu_0, # of connection points: 4
#     Node 5, Type 0, BuildingBlock: KUFVIS_clean_sbu_0, # of connection points: 4
#     Node 6, Type 0, BuildingBlock: KUFVIS_clean_sbu_0, # of connection points: 4
#     Node 7, Type 0, BuildingBlock: KUFVIS_clean_sbu_0, # of connection points: 4
#     Node 8, Type 0, BuildingBlock: KUFVIS_clean_sbu_0, # of connection points: 4
#     Node 9, Type 0, BuildingBlock: KUFVIS_clean_sbu_0, # of connection points: 4
#     Node 10, Type 0, BuildingBlock: KUFVIS_clean_sbu_0, # of connection points: 4
#     Node 11, Type 0, BuildingBlock: KUFVIS_clean_sbu_0, # of connection points: 4
#     Edge 12, Type (0, 0), BuildingBlock: XIVTED_clean_linker_0, # of connection points: 2
#     Edge 13, Type (0, 0), BuildingBlock: XIVTED_clean_linker_0, # of connection points: 2
#     Edge 14, Type (0, 0), BuildingBlock: XIVTED_clean_linker_0, # of connection points: 2
#     Edge 15, Type (0, 0), BuildingBlock: XIVTED_clean_linker_0, # of connection points: 2
#     Edge 16, Type (0, 0), BuildingBlock: XIVTED_clean_linker_0, # of connection points: 2
#     Edge 17, Type (0, 0), BuildingBlock: XIVTED_clean_linker_0, # of connection points: 2
#     Edge 18, Type (0, 0), BuildingBlock: XIVTED_clean_linker_0, # of connection points: 2
#     Edge 19, Type (0, 0), BuildingBlock: XIVTED_clean_linker_0, # of connection points: 2
#     Edge 20, Type (0, 0), BuildingBlock: XIVTED_clean_linker_0, # of connection points: 2
#     Edge 21, Type (0, 0), BuildingBlock: XIVTED_clean_linker_0, # of connection points: 2
#     Edge 22, Type (0, 0), BuildingBlock: XIVTED_clean_linker_0, # of connection points: 2
#     Edge 23, Type (0, 0), BuildingBlock: XIVTED_clean_linker_0, # of connection points: 2
#     Edge 24, Type (0, 0), BuildingBlock: XIVTED_clean_linker_0, # of connection points: 2
#     Edge 25, Type (0, 0), BuildingBlock: XIVTED_clean_linker_0, # of connection points: 2
#     Edge 26, Type (0, 0), BuildingBlock: XIVTED_clean_linker_0, # of connection points: 2
#     Edge 27, Type (0, 0), BuildingBlock: XIVTED_clean_linker_0, # of connection points: 2
#     Edge 28, Type (0, 0), BuildingBlock: XIVTED_clean_linker_0, # of connection points: 2
#     Edge 29, Type (0, 0), BuildingBlock: XIVTED_clean_linker_0, # of connection points: 2
#     Edge 30, Type (0, 0), BuildingBlock: XIVTED_clean_linker_0, # of connection points: 2
#     Edge 31, Type (0, 0), BuildingBlock: XIVTED_clean_linker_0, # of connection points: 2
#     Edge 32, Type (0, 0), BuildingBlock: XIVTED_clean_linker_0, # of connection points: 2
#     Edge 33, Type (0, 0), BuildingBlock: XIVTED_clean_linker_0, # of connection points: 2
#     Edge 34, Type (0, 0), BuildingBlock: XIVTED_clean_linker_0, # of connection points: 2
#     Edge 35, Type (0, 0), BuildingBlock: XIVTED_clean_linker_0, # of connection points: 2
# Relax obj value: 0.255
# Max RMSD: 0.281
# Mean RMSD: 0.280
data_MOF--net-umb--node1-KUFVIS_clean_sbu_0--edge1-XIVTED_clean_linker_0
_symmetry_space_group_name_H-M    P1
_symmetry_Int_Tables_number       1
_symmetry_cell_setting            triclinic
loop_
_symmetry_equiv_pos_as_xyz
'x, y, z'
_cell_length_a     45.351196
_cell_length_b     45.428086
_cell_length_c     38.949168
_cell_angle_alpha  89.720429
_cell_angle_beta   90.143822
_cell_angle_gamma 119.94281
loop_
_atom_site_label
_atom_site_type_symbol
_atom_site_fract_x
_atom_site_fract_y
_atom_site_fract_z
_atom_type_partial_charge
Mn0 Mn 0.55659 0.15489 0.29723 0.0
Mn1 Mn 0.61296 0.12753 0.3113 0.0
C2 C 0.6133 0.19342 0.30371 0.0
C3 C 0.52823 0.16976 0.25498 0.0
C4 C 0.56865 0.13136 0.36782 0.0
O5 O 0.52841 0.10384 0.28854 0.0
O6 O 0.57063 0.09136 0.29109 0.0
C7 C 0.62574 0.12027 0.23822 0.0
N8 N 0.63779 0.13376 0.26977 0.0
C9 C 0.69536 0.16405 0.24883 0.0
C10 C 0.68361 0.15028 0.21616 0.0
C11 C 0.64863 0.12836 0.21082 0.0
C12 C 0.67133 0.15518 0.27509 0.0
H13 H 0.59886 0.10355 0.23398 0.0
C14 C 0.53974 0.08327 0.28557 0.0
O15 O 0.5173 0.16306 0.28652 0.0
O16 O 0.55376 0.16573 0.24789 0.0
N17 N 0.65587 0.15945 0.33099 0.0
C18 C 0.66328 0.16871 0.36454 0.0
C19 C 0.69725 0.19024 0.37438 0.0
C20 C 0.72333 0.2012 0.34987 0.0
C21 C 0.71527 0.18987 0.3159 0.0
C22 C 0.68097 0.16829 0.30766 0.0
H23 H 0.6434 0.16006 0.38361 0.0
O24 O 0.59098 0.20316 0.30532 0.0
O25 O 0.60221 0.16191 0.29599 0.0
O26 O 0.55468 0.14525 0.3501 0.0
O27 O 0.58876 0.12205 0.35511 0.0
C28 C 0.73992 0.19908 0.2899 0.0
C29 C 0.72996 0.1863 0.25635 0.0
H30 H 0.70119 0.15642 0.19497 0.0
H31 H 0.63935 0.11775 0.18564 0.0
H32 H 0.7033 0.19838 0.40079 0.0
H33 H 0.74948 0.218 0.35749 0.0
H34 H 0.76661 0.21597 0.29543 0.0
H35 H 0.74913 0.19364 0.23655 0.0
Mn36 Mn 0.35782 0.57616 0.674 0.0
Mn37 Mn 0.43588 0.58264 0.68106 0.0
C38 C 0.40639 0.6289 0.67771 0.0
C39 C 0.31347 0.56855 0.63556 0.0
C40 C 0.39029 0.5706 0.74293 0.0
O41 O 0.34703 0.52768 0.66471 0.0
O42 O 0.40068 0.53744 0.66622 0.0
C43 C 0.44337 0.57641 0.60632 0.0
N44 N 0.45542 0.59411 0.63607 0.0
C45 C 0.50323 0.63948 0.60662 0.0
C46 C 0.49145 0.62158 0.57574 0.0
C47 C 0.46134 0.58992 0.5756 0.0
C48 C 0.48404 0.62485 0.63637 0.0
H49 H 0.4201 0.55228 0.60595 0.0
C50 C 0.36886 0.51819 0.66134 0.0
O51 O 0.30781 0.56197 0.66821 0.0
O52 O 0.3444 0.57953 0.6256 0.0
N53 N 0.47398 0.62501 0.69488 0.0
C54 C 0.48503 0.63594 0.72743 0.0
C55 C 0.5154 0.66677 0.73242 0.0
C56 C 0.53511 0.68505 0.70397 0.0
C57 C 0.52481 0.67171 0.6709 0.0
C58 C 0.49413 0.641 0.66758 0.0
H59 H 0.47034 0.62155 0.74942 0.0
O60 O 0.37647 0.62567 0.6806 0.0
O61 O 0.40714 0.6018 0.6689 0.0
O62 O 0.36546 0.57115 0.72691 0.0
O63 O 0.41642 0.57277 0.72776 0.0
C64 C 0.54429 0.68715 0.64126 0.0
C65 C 0.53341 0.67112 0.60909 0.0
H66 H 0.50534 0.63186 0.55202 0.0
H67 H 0.45199 0.57599 0.55186 0.0
H68 H 0.52373 0.67626 0.75813 0.0
H69 H 0.55862 0.70873 0.70789 0.0
H70 H 0.56796 0.71107 0.64298 0.0
H71 H 0.54874 0.68308 0.58651 0.0
Mn72 Mn 0.79729 0.3421 0.9808 0.0
Mn73 Mn 0.85338 0.42651 0.98477 0.0
C74 C 0.77781 0.37989 0.97678 0.0
C75 C 0.7719 0.29497 0.94281 0.0
C76 C 0.82644 0.38156 0.04839 0.0
O77 O 0.84336 0.3447 0.9777 0.0
O78 O 0.87642 0.40125 0.97067 0.0
C79 C 0.86795 0.43705 0.91025 0.0
N80 N 0.85749 0.4451 0.9397 0.0
C81 C 0.84672 0.48522 0.90968 0.0
C82 C 0.85784 0.47769 0.87913 0.0
C83 C 0.8684 0.45342 0.87942 0.0
C84 C 0.84679 0.46805 0.93961 0.0
H85 H 0.87563 0.4181 0.91024 0.0
C86 C 0.8716 0.37102 0.97044 0.0
O87 O 0.77185 0.29053 0.97588 0.0
O88 O 0.78717 0.32606 0.93235 0.0
N89 N 0.83522 0.45496 0.99762 0.0
C90 C 0.82737 0.461 0.02964 0.0
C91 C 0.81644 0.48475 0.03385 0.0
C92 C 0.81468 0.50281 1.00531 0.0
C93 C 0.82469 0.49755 0.97295 0.0
C94 C 0.83548 0.47364 0.97036 0.0
H95 H 0.82901 0.44753 0.05179 0.0
O96 O 0.75674 0.34785 0.98134 0.0
O97 O 0.80939 0.38858 0.97195 0.0
O98 O 0.80451 0.35371 0.03349 0.0
O99 O 0.84807 0.40828 0.03203 0.0
C100 C 0.82448 0.5152 0.94319 0.0
C101 C 0.83536 0.50894 0.91154 0.0
H102 H 0.85819 0.49024 0.85529 0.0
H103 H 0.87675 0.44725 0.8559 0.0
H104 H 0.80938 0.48911 0.05904 0.0
H105 H 0.80606 0.52097 1.00862 0.0
H106 H 0.81603 0.53365 0.94436 0.0
H107 H 0.835 0.52258 0.88881 0.0
Mn108 Mn 0.46755 0.79315 0.37468 0.0
Mn109 Mn 0.40327 0.80546 0.39967 0.0
C110 C 0.41177 0.74975 0.37145 0.0
C111 C 0.49995 0.79086 0.32782 0.0
C112 C 0.44852 0.79626 0.45048 0.0
O113 O 0.48962 0.84475 0.37237 0.0
O114 O 0.44454 0.84918 0.38979 0.0
C115 C 0.39316 0.83464 0.33558 0.0
N116 N 0.38054 0.8106 0.36084 0.0
C117 C 0.32314 0.79079 0.34241 0.0
C118 C 0.33541 0.81529 0.31616 0.0
C119 C 0.37064 0.83704 0.31247 0.0
C120 C 0.34681 0.78883 0.36388 0.0
H121 H 0.42015 0.85211 0.33334 0.0
C122 C 0.4751 0.86208 0.37883 0.0
O123 O 0.51023 0.79249 0.35936 0.0
O124 O 0.47243 0.79211 0.32384 0.0
N125 N 0.36127 0.76491 0.40913 0.0
C126 C 0.35382 0.74116 0.43412 0.0
C127 C 0.31978 0.71602 0.4397 0.0
C128 C 0.29375 0.71627 0.42026 0.0
C129 C 0.30214 0.74115 0.39481 0.0
C130 C 0.33658 0.7646 0.38945 0.0
H131 H 0.37368 0.74158 0.44976 0.0
O132 O 0.43618 0.74287 0.37415 0.0
O133 O 0.4206 0.78156 0.37253 0.0
O134 O 0.4686 0.79363 0.4289 0.0
O135 O 0.42387 0.80039 0.44159 0.0
C136 C 0.27774 0.74398 0.37486 0.0
C137 C 0.28834 0.76871 0.34858 0.0
H138 H 0.31802 0.81764 0.29876 0.0
H139 H 0.38035 0.85606 0.29233 0.0
H140 H 0.31355 0.69693 0.45942 0.0
H141 H 0.26746 0.6973 0.42509 0.0
H142 H 0.25083 0.72687 0.37902 0.0
H143 H 0.26972 0.77073 0.3332 0.0
Mn144 Mn 0.5793 0.43924 0.63408 0.0
Mn145 Mn 0.49979 0.37715 0.65577 0.0
C146 C 0.56763 0.38425 0.64083 0.0
C147 C 0.61771 0.46886 0.58866 0.0
C148 C 0.55089 0.4238 0.70852 0.0
O149 O 0.55141 0.46278 0.62638 0.0
O150 O 0.50027 0.41849 0.64049 0.0
C151 C 0.47259 0.36699 0.58498 0.0
N152 N 0.47809 0.35406 0.61438 0.0
C153 C 0.44925 0.29752 0.59146 0.0
C154 C 0.44294 0.31011 0.56106 0.0
C155 C 0.45489 0.34506 0.55773 0.0
C156 C 0.46754 0.32068 0.61751 0.0
H157 H 0.48167 0.39379 0.58231 0.0
C158 C 0.51926 0.4488 0.62996 0.0
O159 O 0.62366 0.48088 0.61976 0.0
O160 O 0.58909 0.44135 0.58398 0.0
N161 N 0.49397 0.33457 0.67103 0.0
C162 C 0.50068 0.3263 0.70264 0.0
C163 C 0.49037 0.2923 0.71025 0.0
C164 C 0.47213 0.26702 0.68578 0.0
C165 C 0.46411 0.2759 0.65399 0.0
C166 C 0.47544 0.31025 0.64772 0.0
H167 H 0.51398 0.34555 0.72185 0.0
O168 O 0.5987 0.40904 0.64091 0.0
O169 O 0.54406 0.39188 0.63498 0.0
O170 O 0.57552 0.44208 0.68764 0.0
O171 O 0.52178 0.39965 0.6991 0.0
C172 C 0.4448 0.25205 0.62847 0.0
C173 C 0.43778 0.26286 0.59709 0.0
H174 H 0.42899 0.29319 0.54013 0.0
H175 H 0.45031 0.35506 0.5343 0.0
H176 H 0.49618 0.28555 0.73502 0.0
H177 H 0.46416 0.24093 0.692 0.0
H178 H 0.43475 0.22528 0.63268 0.0
H179 H 0.42314 0.24423 0.57764 0.0
Mn180 Mn 0.133 0.56668 1.01674 0.0
Mn181 Mn 0.15622 0.51343 0.05164 0.0
C182 C 0.18294 0.58795 0.04637 0.0
C183 C 0.13858 0.59813 0.9658 0.0
C184 C 0.10466 0.52842 0.08515 0.0
O185 O 0.10075 0.5216 0.99463 0.0
O186 O 0.12028 0.48855 1.01664 0.0
C187 C 0.18878 0.5038 0.99035 0.0
N188 N 0.19088 0.5139 0.02355 0.0
C189 C 0.24947 0.52817 0.02733 0.0
C190 C 0.24781 0.51756 0.99333 0.0
C191 C 0.21743 0.5055 0.97467 0.0
C192 C 0.22014 0.52594 0.04157 0.0
H193 H 0.1654 0.49446 0.97601 0.0
C194 C 0.1001 0.49327 0.99731 0.0
O195 O 0.11547 0.59299 0.98858 0.0
O196 O 0.15662 0.58422 0.97208 0.0
N197 N 0.19081 0.53402 0.08601 0.0
C198 C 0.18809 0.54315 0.11863 0.0
C199 C 0.21642 0.55606 0.14056 0.0
C200 C 0.24709 0.55906 0.1289 0.0
C201 C 0.24913 0.54907 0.09538 0.0
C202 C 0.22005 0.53636 0.07471 0.0
H203 H 0.16451 0.54066 0.12783 0.0
O204 O 0.1697 0.60693 0.04046 0.0
O205 O 0.16698 0.55754 0.0337 0.0
O206 O 0.10577 0.55042 0.0632 0.0
O207 O 0.12165 0.51305 0.08186 0.0
C208 C 0.27883 0.55112 0.0817 0.0
C209 C 0.27904 0.54082 0.04767 0.0
H210 H 0.26967 0.51851 0.98137 0.0
H211 H 0.21608 0.49741 0.94834 0.0
H212 H 0.21461 0.56362 0.16642 0.0
H213 H 0.26887 0.569 0.1459 0.0
H214 H 0.30167 0.56059 0.09711 0.0
H215 H 0.30203 0.54263 0.03746 0.0
Mn216 Mn 0.79934 0.46458 0.35978 0.0
Mn217 Mn 0.85935 0.44125 0.35057 0.0
C218 C 0.78322 0.4082 0.35829 0.0
C219 C 0.77086 0.48124 0.39954 0.0
C220 C 0.83023 0.46094 0.29012 0.0
O221 O 0.84374 0.50879 0.36733 0.0
O222 O 0.87961 0.48802 0.36832 0.0
C223 C 0.87493 0.4412 0.4245 0.0
N224 N 0.86473 0.42455 0.39398 0.0
C225 C 0.85734 0.37297 0.4196 0.0
C226 C 0.8679 0.38963 0.45124 0.0
C227 C 0.8767 0.42389 0.45369 0.0
C228 C 0.85594 0.3915 0.39142 0.0
H229 H 0.88158 0.46745 0.42659 0.0
C230 C 0.87278 0.51181 0.37276 0.0
O231 O 0.7717 0.48809 0.36694 0.0
O232 O 0.7868 0.46557 0.40866 0.0
N233 N 0.84398 0.39616 0.33415 0.0
C234 C 0.83742 0.38464 0.30118 0.0
C235 C 0.82884 0.351 0.29416 0.0
C236 C 0.82822 0.32985 0.32088 0.0
C237 C 0.83708 0.34285 0.35423 0.0
C238 C 0.84548 0.37663 0.35965 0.0
H239 H 0.83828 0.40082 0.28038 0.0
O240 O 0.76076 0.41771 0.35524 0.0
O241 O 0.81418 0.43167 0.36488 0.0
O242 O 0.80789 0.46508 0.30667 0.0
O243 O 0.85298 0.45639 0.30487 0.0
C244 C 0.83816 0.32368 0.38224 0.0
C245 C 0.84816 0.33869 0.41494 0.0
H246 H 0.86935 0.37638 0.47381 0.0
H247 H 0.88481 0.43693 0.47804 0.0
H248 H 0.82275 0.3414 0.2682 0.0
H249 H 0.82143 0.30386 0.31541 0.0
H250 H 0.83151 0.29742 0.37889 0.0
H251 H 0.84894 0.32372 0.43628 0.0
Mn252 Mn 0.35143 0.78546 0.7611 0.0
Mn253 Mn 0.43354 0.85056 0.7605 0.0
C254 C 0.39571 0.77486 0.77078 0.0
C255 C 0.30063 0.7542 0.79349 0.0
C256 C 0.39565 0.81558 0.69496 0.0
O257 O 0.34532 0.82699 0.75976 0.0
O258 O 0.40063 0.86629 0.76316 0.0
C259 C 0.43082 0.87056 0.83218 0.0
N260 N 0.44574 0.86091 0.80778 0.0
C261 C 0.48586 0.8616 0.84879 0.0
C262 C 0.47106 0.87177 0.87427 0.0
C263 C 0.44336 0.87618 0.86593 0.0
C264 C 0.47194 0.85592 0.81571 0.0
H265 H 0.40938 0.87376 0.82601 0.0
C266 C 0.36924 0.85754 0.76256 0.0
O267 O 0.30029 0.75399 0.76009 0.0
O268 O 0.33 0.7728 0.80769 0.0
N269 N 0.47007 0.84096 0.75837 0.0
C270 C 0.48541 0.8377 0.72972 0.0
C271 C 0.51459 0.83462 0.73308 0.0
C272 C 0.52878 0.83675 0.76568 0.0
C273 C 0.51436 0.8432 0.79443 0.0
C274 C 0.48519 0.84591 0.78943 0.0
H275 H 0.47512 0.83698 0.7045 0.0
O276 O 0.36511 0.75028 0.76516 0.0
O277 O 0.39903 0.80475 0.77432 0.0
O278 O 0.36725 0.79377 0.70937 0.0
O279 O 0.42129 0.83847 0.71168 0.0
C280 C 0.52852 0.84832 0.82759 0.0
C281 C 0.51411 0.85728 0.85482 0.0
H282 H 0.48083 0.87637 0.90028 0.0
H283 H 0.43171 0.88391 0.88547 0.0
H284 H 0.52624 0.83084 0.71057 0.0
H285 H 0.55137 0.8345 0.76819 0.0
H286 H 0.55084 0.84604 0.8323 0.0
H287 H 0.5254 0.86146 0.88015 0.0
Mn288 Mn 0.53414 0.36725 0.03568 0.0
Mn289 Mn 0.57585 0.45241 1.0199 0.0
C290 C 0.59136 0.39565 0.02397 0.0
C291 C 0.51546 0.3236 0.07809 0.0
C292 C 0.53581 0.40018 0.96499 0.0
O293 O 0.49924 0.38074 0.05017 0.0
O294 O 0.53141 0.43722 0.0416 0.0
C295 C 0.58711 0.47318 0.09288 0.0
N296 N 0.59981 0.47444 0.06092 0.0
C297 C 0.65711 0.51128 0.08041 0.0
C298 C 0.64461 0.51056 0.11348 0.0
C299 C 0.60946 0.49136 0.11975 0.0
C300 C 0.63361 0.49255 0.0547 0.0
H301 H 0.56013 0.45834 0.09787 0.0
C302 C 0.50421 0.4109 0.05154 0.0
O303 O 0.5023 0.31745 0.04742 0.0
O304 O 0.53802 0.35479 0.08419 0.0
N305 N 0.6198 0.47188 0.99893 0.0
C306 C 0.6275 0.47181 0.96512 0.0
C307 C 0.66159 0.49021 0.95441 0.0
C308 C 0.68729 0.50925 0.97834 0.0
C309 C 0.67857 0.51037 1.01263 0.0
C310 C 0.64414 0.49165 0.02175 0.0
H311 H 0.60783 0.45747 0.94653 0.0
O312 O 0.57394 0.36283 0.02268 0.0
O313 O 0.57555 0.41109 0.03453 0.0
O314 O 0.52623 0.37315 0.98343 0.0
O315 O 0.55271 0.43043 0.97679 0.0
C316 C 0.70267 0.52944 0.03808 0.0
C317 C 0.69196 0.52979 0.07198 0.0
H318 H 0.66177 0.52458 0.13427 0.0
H319 H 0.59962 0.49057 0.14523 0.0
H320 H 0.66803 0.48967 0.92777 0.0
H321 H 0.71358 0.52324 0.97003 0.0
H322 H 0.7295 0.54396 0.03184 0.0
H323 H 0.71073 0.5445 0.09133 0.0
Mn324 Mn 0.14038 0.57404 0.39237 0.0
Mn325 Mn 0.13503 0.62914 0.33684 0.0
C326 C 0.18301 0.60287 0.35253 0.0
C327 C 0.15924 0.56569 0.44691 0.0
C328 C 0.09668 0.5528 0.32695 0.0
O329 O 0.10235 0.58029 0.41275 0.0
O330 O 0.10576 0.62111 0.37717 0.0
C331 C 0.1634 0.69244 0.37725 0.0
N332 N 0.16366 0.67573 0.34844 0.0
C333 C 0.2 0.72828 0.31896 0.0
C334 C 0.19998 0.74612 0.34827 0.0
C335 C 0.18194 0.72812 0.37766 0.0
C336 C 0.1813 0.69282 0.32018 0.0
H337 H 0.14862 0.67864 0.39943 0.0
C338 C 0.09366 0.60197 0.40359 0.0
O339 O 0.13624 0.54032 0.42925 0.0
O340 O 0.16977 0.59547 0.43381 0.0
N341 N 0.16201 0.6395 0.29622 0.0
C342 C 0.16098 0.61828 0.27105 0.0
C343 C 0.18021 0.63209 0.24104 0.0
C344 C 0.19961 0.66753 0.23692 0.0
C345 C 0.19995 0.68882 0.26308 0.0
C346 C 0.18082 0.67358 0.29266 0.0
H347 H 0.14557 0.59107 0.27384 0.0
O348 O 0.17925 0.5759 0.36798 0.0
O349 O 0.16271 0.61391 0.36221 0.0
O350 O 0.10853 0.54394 0.35254 0.0
O351 O 0.10433 0.5833 0.32105 0.0
C352 C 0.21849 0.72454 0.261 0.0
C353 C 0.21808 0.74425 0.2887 0.0
H354 H 0.21407 0.77364 0.34863 0.0
H355 H 0.18191 0.74172 0.40038 0.0
H356 H 0.17973 0.61549 0.22095 0.0
H357 H 0.21414 0.6781 0.2136 0.0
H358 H 0.2332 0.73713 0.23827 0.0
H359 H 0.23244 0.7717 0.28678 0.0
Mn360 Mn 0.59112 0.1374 0.70129 0.0
Mn361 Mn 0.51326 0.11429 0.66796 0.0
C362 C 0.57698 0.17775 0.68661 0.0
C363 C 0.62593 0.15018 0.75096 0.0
C364 C 0.57124 0.12138 0.62419 0.0
O365 O 0.56447 0.0865 0.71219 0.0
O366 O 0.51549 0.07551 0.68677 0.0
C367 C 0.47814 0.0956 0.73524 0.0
N368 N 0.48568 0.11355 0.7053 0.0
C369 C 0.449 0.13562 0.71984 0.0
C370 C 0.4406 0.11717 0.7507 0.0
C371 C 0.45549 0.09729 0.75856 0.0
C372 C 0.47239 0.1336 0.698 0.0
H373 H 0.48927 0.08008 0.7413 0.0
C374 C 0.53393 0.06624 0.70288 0.0
O375 O 0.63493 0.14314 0.7218 0.0
O376 O 0.59649 0.14812 0.75143 0.0
N377 N 0.50558 0.14854 0.64848 0.0
C378 C 0.51483 0.16321 0.6168 0.0
C379 C 0.50205 0.18387 0.60491 0.0
C380 C 0.47875 0.18801 0.62501 0.0
C381 C 0.46833 0.17139 0.65684 0.0
C382 C 0.48247 0.15169 0.66765 0.0
H383 H 0.53193 0.15926 0.60077 0.0
O384 O 0.60852 0.186 0.69063 0.0
O385 O 0.55415 0.14644 0.69297 0.0
O386 O 0.59317 0.12845 0.64853 0.0
O387 O 0.54098 0.11568 0.62884 0.0
C388 C 0.44375 0.17269 0.67785 0.0
C389 C 0.43456 0.15539 0.70957 0.0
H390 H 0.42273 0.11804 0.76848 0.0
H391 H 0.44926 0.08303 0.78236 0.0
H392 H 0.50977 0.19619 0.58009 0.0
H393 H 0.4687 0.20357 0.61537 0.0
H394 H 0.43124 0.18644 0.66982 0.0
H395 H 0.41589 0.15695 0.72557 0.0
Mn396 Mn 0.4671 0.65687 0.0619 0.0
Mn397 Mn 0.39502 0.58842 0.04109 0.0
C398 C 0.41936 0.6623 0.05896 0.0
C399 C 0.50086 0.68534 0.1107 0.0
C400 C 0.45154 0.62341 0.99296 0.0
O401 O 0.47264 0.61486 0.06853 0.0
O402 O 0.41742 0.57708 0.07848 0.0
C403 C 0.3692 0.51454 0.04034 0.0
N404 N 0.37026 0.54238 0.02579 0.0
C405 C 0.33459 0.50892 0.97919 0.0
C406 C 0.33343 0.48 0.99353 0.0
C407 C 0.35064 0.4828 0.02439 0.0
C408 C 0.3529 0.5398 0.9967 0.0
H409 H 0.38239 0.51648 0.06403 0.0
C410 C 0.44901 0.58567 0.07909 0.0
O411 O 0.51441 0.69062 0.08024 0.0
O412 O 0.46911 0.66306 0.11262 0.0
N413 N 0.37423 0.59813 1.0023 0.0
C414 C 0.3817 0.62871 0.98825 0.0
C415 C 0.36604 0.63004 0.95766 0.0
C416 C 0.34465 0.60008 0.93999 0.0
C417 C 0.3397 0.56914 0.95278 0.0
C418 C 0.35491 0.5692 0.98429 0.0
H419 H 0.40122 0.65222 0.99848 0.0
O420 O 0.44894 0.68963 0.05857 0.0
O421 O 0.41979 0.6343 0.05787 0.0
O422 O 0.46826 0.65247 1.00808 0.0
O423 O 0.43273 0.59638 1.01008 0.0
C424 C 0.32146 0.53846 0.9346 0.0
C425 C 0.31874 0.50833 0.94789 0.0
H426 H 0.31948 0.45555 0.98102 0.0
H427 H 0.3498 0.4606 0.03573 0.0
H428 H 0.37176 0.65434 0.94688 0.0
H429 H 0.33345 0.60132 0.9158 0.0
H430 H 0.3096 0.53781 0.91022 0.0
H431 H 0.30462 0.48488 0.9337 0.0
H432 H 0.55689 0.07672 0.40678 0.0
H433 H 0.60477 0.17802 0.58484 0.0
H434 H 0.57398 0.17857 0.41524 0.0
H435 H 0.5543 0.06896 0.57994 0.0
H436 H 0.6023 0.18035 0.52189 0.0
H437 H 0.56174 0.07441 0.46928 0.0
C438 C 0.56094 0.09837 0.42193 0.0
C439 C 0.56436 0.12765 0.40577 0.0
C440 C 0.59247 0.15593 0.53449 0.0
C441 C 0.57147 0.12574 0.47751 0.0
C442 C 0.59458 0.15464 0.57037 0.0
C443 C 0.58085 0.1233 0.58759 0.0
C444 C 0.57649 0.12561 0.51555 0.0
C445 C 0.56624 0.09367 0.56764 0.0
C446 C 0.56401 0.09714 0.45761 0.0
C447 C 0.57035 0.15522 0.42667 0.0
N448 N 0.56446 0.09554 0.53279 0.0
N449 N 0.57407 0.15373 0.46138 0.0
H450 H 0.41858 0.54288 0.78385 0.0
H451 H 0.44702 0.56999 0.95822 0.0
H452 H 0.3715 0.60492 0.78929 0.0
H453 H 0.44766 0.66407 0.94133 0.0
H454 H 0.42795 0.55326 0.89973 0.0
H455 H 0.43735 0.55722 0.84281 0.0
C456 C 0.41116 0.55871 0.79787 0.0
C457 C 0.39289 0.5722 0.78137 0.0
C458 C 0.4333 0.57813 0.90803 0.0
C459 C 0.41475 0.58921 0.85025 0.0
C460 C 0.44441 0.58783 0.9417 0.0
C461 C 0.44993 0.61897 0.95479 0.0
C462 C 0.42752 0.59962 0.88642 0.0
C463 C 0.44484 0.64034 0.93219 0.0
C464 C 0.42202 0.56702 0.83184 0.0
C465 C 0.38487 0.59327 0.80099 0.0
N466 N 0.43362 0.63015 0.89926 0.0
N467 N 0.39618 0.60145 0.83419 0.0
H468 H 0.77251 0.42667 0.24988 0.0
H469 H 0.88027 0.41543 0.09137 0.0
H470 H 0.88196 0.47879 0.24444 0.0
H471 H 0.77069 0.36209 0.0909 0.0
H472 H 0.88003 0.43697 0.14849 0.0
H473 H 0.76986 0.40371 0.19195 0.0
C474 C 0.79597 0.43429 0.23611 0.0
C475 C 0.82754 0.45519 0.2521 0.0
C476 C 0.85589 0.4202 0.13631 0.0
C477 C 0.8247 0.42785 0.18614 0.0
C478 C 0.85603 0.40746 0.10372 0.0
C479 C 0.82547 0.38635 0.0863 0.0
C480 C 0.82491 0.41234 0.15204 0.0
C481 C 0.79488 0.37759 0.10356 0.0
C482 C 0.79444 0.42062 0.20324 0.0
C483 C 0.85704 0.46312 0.23322 0.0
N484 N 0.79536 0.39082 0.13527 0.0
N485 N 0.85487 0.44939 0.20166 0.0
H486 H 0.48892 0.84878 0.49268 0.0
H487 H 0.36219 0.75954 0.65228 0.0
H488 H 0.41216 0.74304 0.49387 0.0
H489 H 0.44559 0.86282 0.65314 0.0
H490 H 0.38004 0.75246 0.59476 0.0
H491 H 0.47606 0.85313 0.55294 0.0
C492 C 0.47051 0.82604 0.50612 0.0
C493 C 0.4523 0.79528 0.4883 0.0
C494 C 0.39433 0.77672 0.60751 0.0
C495 C 0.43559 0.8005 0.55702 0.0
C496 C 0.38381 0.78093 0.64024 0.0
C497 C 0.40214 0.81192 0.65782 0.0
C498 C 0.42336 0.80371 0.59196 0.0
C499 C 0.43047 0.83843 0.64085 0.0
C500 C 0.46254 0.82868 0.54039 0.0
C501 C 0.42739 0.76708 0.50673 0.0
N502 N 0.44011 0.83372 0.60917 0.0
N503 N 0.41947 0.77043 0.53976 0.0
H504 H 0.54532 0.35959 0.91919 0.0
H505 H 0.53024 0.45659 0.75238 0.0
H506 H 0.51967 0.43888 0.92411 0.0
H507 H 0.57772 0.39495 0.75015 0.0
H508 H 0.52361 0.44852 0.81488 0.0
H509 H 0.5521 0.36785 0.85653 0.0
C510 C 0.54001 0.37793 0.907 0.0
C511 C 0.53137 0.39818 0.92696 0.0
C512 C 0.53611 0.43727 0.80091 0.0
C513 C 0.54014 0.40859 0.85533 0.0
C514 C 0.54039 0.44238 0.76529 0.0
C515 C 0.55575 0.42753 0.74625 0.0
C516 C 0.54638 0.4163 0.81765 0.0
C517 C 0.56687 0.40786 0.76407 0.0
C518 C 0.54451 0.3831 0.87129 0.0
C519 C 0.52599 0.42243 0.90976 0.0
N520 N 0.56178 0.40262 0.79862 0.0
N521 N 0.53048 0.42696 0.87517 0.0
H522 H 0.04403 0.5494 0.29071 0.0
H523 H 0.0821 0.47217 0.12543 0.0
H524 H 0.11118 0.50793 0.29424 0.0
H525 H 0.0874 0.5697 0.12271 0.0
H526 H 0.06922 0.46761 0.18659 0.0
H527 H 0.03587 0.53756 0.22912 0.0
C528 C 0.05563 0.53609 0.27893 0.0
C529 C 0.07856 0.52986 0.29779 0.0
C530 C 0.07241 0.48959 0.17242 0.0
C531 C 0.06927 0.5164 0.22717 0.0
C532 C 0.07964 0.49232 0.1374 0.0
C533 C 0.08649 0.52177 0.1187 0.0
C534 C 0.07095 0.51598 0.18907 0.0
C535 C 0.08238 0.54661 0.13585 0.0
C536 C 0.05142 0.52999 0.24364 0.0
C537 C 0.0931 0.51291 0.28098 0.0
N538 N 0.07519 0.54331 0.17022 0.0
N539 N 0.08863 0.50723 0.24645 0.0
H540 H 0.77547 0.35836 0.40232 0.0
H541 H 0.66787 0.22103 0.26119 0.0
H542 H 0.76651 0.38004 0.2962 0.0
H543 H 0.63629 0.2206 0.36556 0.0
H544 H 0.72449 0.26898 0.27535 0.0
H545 H 0.7453 0.29727 0.3889 0.0
C546 C 0.76819 0.35013 0.37606 0.0
C547 C 0.77336 0.37354 0.35009 0.0
C548 C 0.70545 0.25743 0.29534 0.0
C549 C 0.73944 0.30516 0.33486 0.0
C550 C 0.67339 0.23049 0.28726 0.0
C551 C 0.6482 0.2172 0.31253 0.0
C552 C 0.71161 0.2709 0.32863 0.0
C553 C 0.65559 0.23042 0.34569 0.0
C554 C 0.7513 0.31563 0.36842 0.0
C555 C 0.76292 0.36228 0.31662 0.0
N556 N 0.6868 0.25678 0.35286 0.0
N557 N 0.74621 0.32867 0.3099 0.0
H558 H 0.44015 0.76629 0.81199 0.0
H559 H 0.45798 0.6856 0.64718 0.0
H560 H 0.41228 0.76905 0.70676 0.0
H561 H 0.41813 0.63841 0.74515 0.0
H562 H 0.49177 0.74019 0.67658 0.0
H563 H 0.47807 0.74539 0.7921 0.0
C564 C 0.44327 0.76402 0.78474 0.0
C565 C 0.42359 0.76966 0.76075 0.0
C566 C 0.47737 0.71735 0.6918 0.0
C567 C 0.46696 0.74727 0.73814 0.0
C568 C 0.45757 0.68651 0.67495 0.0
C569 C 0.43474 0.65804 0.69395 0.0
C570 C 0.47206 0.71948 0.72713 0.0
C571 C 0.43491 0.66009 0.72972 0.0
C572 C 0.46532 0.75292 0.77342 0.0
C573 C 0.42762 0.76581 0.72588 0.0
N574 N 0.4534 0.69039 0.7453 0.0
N575 N 0.449 0.7551 0.71562 0.0
H576 H 0.61405 0.3946 0.96079 0.0
H577 H 0.76768 0.41747 0.92849 0.0
H578 H 0.64746 0.43302 0.06288 0.0
H579 H 0.75846 0.39337 0.03646 0.0
H580 H 0.73184 0.44345 0.93664 0.0
H581 H 0.67259 0.41292 0.94483 0.0
C582 C 0.63415 0.40796 0.97943 0.0
C583 C 0.62655 0.41285 1.0129 0.0
C584 C 0.73853 0.43333 0.95864 0.0
C585 C 0.69319 0.43331 0.99536 0.0
C586 C 0.75895 0.41874 0.95401 0.0
C587 C 0.76564 0.40354 0.98195 0.0
C588 C 0.72418 0.43135 0.99113 0.0
C589 C 0.75356 0.40498 1.01445 0.0
C590 C 0.66761 0.41896 0.97025 0.0
C591 C 0.65284 0.42941 0.03665 0.0
N592 N 0.7331 0.41842 1.01815 0.0
N593 N 0.68513 0.4385 0.02759 0.0
H594 H 0.37353 0.68165 0.38381 0.0
H595 H 0.21936 0.67129 0.34679 0.0
H596 H 0.38051 0.76189 0.31874 0.0
H597 H 0.22053 0.5804 0.31902 0.0
H598 H 0.27663 0.70498 0.32475 0.0
H599 H 0.31902 0.64216 0.35649 0.0
C600 C 0.36354 0.69079 0.36371 0.0
C601 C 0.37999 0.72523 0.35492 0.0
C602 C 0.2641 0.6777 0.32294 0.0
C603 C 0.31922 0.68063 0.32297 0.0
C604 C 0.23076 0.65852 0.33399 0.0
C605 C 0.21432 0.62319 0.33283 0.0
C606 C 0.28265 0.66142 0.31613 0.0
C607 C 0.23234 0.60779 0.32012 0.0
C608 C 0.33301 0.66826 0.34765 0.0
C609 C 0.36715 0.73586 0.32777 0.0
N610 N 0.26627 0.62696 0.31401 0.0
N611 N 0.33693 0.71381 0.31331 0.0
H612 H 0.53873 0.33119 0.59669 0.0
H613 H 0.59812 0.21698 0.62992 0.0
H614 H 0.58401 0.36127 0.6971 0.0
H615 H 0.53946 0.19814 0.72261 0.0
H616 H 0.58759 0.2637 0.61566 0.0
H617 H 0.53418 0.27518 0.60543 0.0
C618 C 0.54701 0.32558 0.62073 0.0
C619 C 0.56108 0.34999 0.64663 0.0
C620 C 0.57647 0.24874 0.63867 0.0
C621 C 0.55611 0.28749 0.65649 0.0
C622 C 0.58267 0.22257 0.64691 0.0
C623 C 0.56878 0.20364 0.67687 0.0
C624 C 0.5576 0.25661 0.66145 0.0
C625 C 0.54972 0.21196 0.69883 0.0
C626 C 0.54453 0.29404 0.62559 0.0
C627 C 0.57258 0.34254 0.67695 0.0
N628 N 0.54508 0.23846 0.69094 0.0
N629 N 0.56955 0.31159 0.68128 0.0
H630 H 0.21391 0.62113 0.10532 0.0
H631 H 0.37327 0.62693 0.10757 0.0
H632 H 0.2325 0.59469 1.00469 0.0
H633 H 0.39556 0.69937 0.02577 0.0
H634 H 0.31674 0.62079 0.11351 0.0
H635 H 0.27598 0.65194 0.11611 0.0
C636 C 0.23118 0.62191 0.0857 0.0
C637 C 0.21876 0.60452 0.05474 0.0
C638 C 0.33435 0.63856 0.09484 0.0
C639 C 0.28805 0.64114 0.06556 0.0
C640 C 0.36621 0.64179 0.09118 0.0
C641 C 0.38814 0.66285 0.06546 0.0
C642 C 0.32413 0.65507 0.07137 0.0
C643 C 0.37868 0.68233 0.04535 0.0
C644 C 0.26615 0.6397 0.09162 0.0
C645 C 0.24151 0.60693 0.02933 0.0
N646 N 0.34646 0.67675 0.04761 0.0
N647 N 0.27531 0.62497 0.03532 0.0
H648 H 0.48265 0.0473 0.32356 0.0
H649 H 0.51592 0.89038 0.32269 0.0
H650 H 0.54616 0.03615 0.2487 0.0
H651 H 0.46511 0.91211 0.40388 0.0
H652 H 0.52318 0.94056 0.29153 0.0
H653 H 0.46606 0.99087 0.34597 0.0
C654 C 0.49165 0.03222 0.31061 0.0
C655 C 0.51623 0.04651 0.28469 0.0
C656 C 0.51078 0.93451 0.31636 0.0
C657 C 0.49889 0.98292 0.31117 0.0
C658 C 0.50737 0.90635 0.33451 0.0
C659 C 0.49005 0.89719 0.36599 0.0
C660 C 0.49668 0.95342 0.32983 0.0
C661 C 0.47868 0.91832 0.37969 0.0
C662 C 0.48295 0.00036 0.32403 0.0
C663 C 0.52738 0.026 0.26904 0.0
N664 N 0.48189 0.94521 0.36138 0.0
N665 N 0.51939 -0.00446 0.28316 0.0
H666 H 0.36097 0.49642 0.59518 0.0
H667 H 0.51008 0.48599 0.67717 0.0
H668 H 0.35908 0.46351 0.69899 0.0
H669 H 0.48405 0.44912 0.57358 0.0
H670 H 0.45771 0.48871 0.68071 0.0
H671 H 0.4034 0.48015 0.58085 0.0
C672 C 0.36773 0.48358 0.61452 0.0
C673 C 0.35933 0.48427 0.64908 0.0
C674 C 0.4638 0.48061 0.65695 0.0
C675 C 0.40719 0.46595 0.63323 0.0
C676 C 0.49418 0.48021 0.65455 0.0
C677 C 0.50139 0.46768 0.62496 0.0
C678 C 0.44076 0.46872 0.62941 0.0
C679 C 0.47939 0.45932 0.59668 0.0
C680 C 0.39274 0.47527 0.60648 0.0
C681 C 0.36702 0.46559 0.67246 0.0
N682 N 0.44967 0.45968 0.59962 0.0
N683 N 0.39252 0.45929 0.66489 0.0
H684 H 0.9021 0.34576 1.01193 0.0
H685 H 0.0736 0.4261 1.01449 0.0
H686 H 0.90996 0.39156 0.91287 0.0
H687 H 0.06151 0.49205 0.94275 0.0
H688 H 0.01776 0.3796 0.99766 0.0
H689 H 0.96229 0.36289 1.00887 0.0
C690 C 0.9162 0.35789 0.98874 0.0
C691 C 0.90154 0.36792 0.96291 0.0
C692 C 0.02747 0.40411 0.98532 0.0
C693 C 0.97033 0.38811 0.95916 0.0
C694 C 0.05955 0.43063 0.99463 0.0
C695 C 0.07162 0.46333 0.98088 0.0
C696 C 0.00753 0.41057 0.96223 0.0
C697 C 0.05267 0.46753 0.95483 0.0
C698 C 0.95071 0.36781 0.98692 0.0
C699 C 0.92075 0.38401 0.93358 0.0
N700 N 0.02131 0.44161 0.94679 0.0
N701 N 0.95442 0.39442 0.93288 0.0
H702 H 0.04485 0.55337 0.44581 0.0
H703 H 0.8836 0.52139 0.44077 0.0
H704 H 0.07499 0.65038 0.39821 0.0
H705 H 0.92353 0.5687 0.34278 0.0
H706 H 0.94029 0.55578 0.46614 0.0
H707 H 0.98756 0.54462 0.45309 0.0
C708 C 0.03987 0.57344 0.43817 0.0
C709 C 0.06433 0.60197 0.42012 0.0
C710 C 0.93624 0.55965 0.43947 0.0
C711 C -0.00103 0.59201 0.42797 0.0
C712 C 0.90398 0.54037 0.42506 0.0
C713 C 0.89933 0.54217 0.38966 0.0
C714 C 0.96362 0.58087 0.41814 0.0
C715 C 0.9263 0.56674 0.37019 0.0
C716 C 0.00712 0.5685 0.44242 0.0
C717 C 0.05648 0.62732 0.41109 0.0
N718 N 0.95761 0.58483 0.38461 0.0
N719 N 0.02407 0.62112 0.41379 0.0
H720 H 0.50335 0.00975 0.66445 0.0
H721 H 0.3742 0.90251 0.8121 0.0
H722 H 0.51749 0.0451 0.76881 0.0
H723 H 0.3541 0.88121 0.7048 0.0
H724 H 0.42226 0.95835 0.79799 0.0
H725 H 0.4489 0.96086 0.68048 0.0
C726 C 0.4957 0.00619 0.69119 0.0
C727 C 0.51494 0.03126 0.71542 0.0
C728 C 0.40687 0.94186 0.77739 0.0
C729 C 0.4517 0.97669 0.73359 0.0
C730 C 0.3786 0.91038 0.78541 0.0
C731 C 0.36313 0.8861 0.75936 0.0
C732 C 0.4171 0.9493 0.74294 0.0
C733 C 0.36765 0.89843 0.72566 0.0
C734 C 0.46407 0.97896 0.70011 0.0
C735 C 0.50357 0.02599 0.74953 0.0
N736 N 0.39591 0.92846 0.71801 0.0
N737 N 0.47229 -0.00049 0.75757 0.0
H738 H 0.49219 0.5745 0.04112 0.0
H739 H 0.49329 0.42352 0.11691 0.0
H740 H 0.42127 0.53301 0.12542 0.0
H741 H 0.45986 0.41879 1.0125 0.0
H742 H 0.47478 0.46478 0.12982 0.0
H743 H 0.49453 0.52188 0.03905 0.0
C744 C 0.47796 0.55473 0.05989 0.0
C745 C 0.45667 0.55803 0.08361 0.0
C746 C 0.47006 0.45339 0.10458 0.0
C747 C 0.45889 0.498 0.08097 0.0
C748 C 0.48006 0.42952 0.09733 0.0
C749 C 0.47774 0.41767 0.06367 0.0
C750 C 0.45864 0.46571 0.07767 0.0
C751 C 0.46163 0.42711 0.03883 0.0
C752 C 0.47885 0.52462 0.05829 0.0
C753 C 0.43811 0.5313 0.1069 0.0
N754 N 0.45378 0.45157 0.04598 0.0
N755 N 0.43966 0.50216 0.10511 0.0
H756 H 0.52772 0.1639 0.18518 0.0
H757 H 0.51915 0.33044 0.14784 0.0
H758 H 0.50296 0.21319 0.26509 0.0
H759 H 0.49624 0.25601 0.06882 0.0
H760 H 0.51496 0.28908 0.19103 0.0
H761 H 0.51773 0.19756 0.14214 0.0
C762 C 0.51953 0.18136 0.19367 0.0
C763 C 0.51593 0.18545 0.22891 0.0
C764 C 0.51034 0.28156 0.16433 0.0
C765 C 0.50555 0.22513 0.17953 0.0
C766 C 0.51274 0.30519 0.13959 0.0
C767 C 0.5079 0.29673 0.10454 0.0
C768 C 0.50398 0.24929 0.15409 0.0
C769 C 0.49986 0.26361 0.09549 0.0
C770 C 0.51389 0.20064 0.16902 0.0
C771 C 0.50563 0.20881 0.23828 0.0
N772 N 0.49873 0.24136 0.11997 0.0
N773 N 0.50141 0.22815 0.21385 0.0
H774 H 0.18279 0.60742 0.50296 0.0
H775 H 0.30621 0.54573 0.56972 0.0
H776 H 0.17498 0.51581 0.46223 0.0
H777 H 0.25986 0.58092 0.64303 0.0
H778 H 0.26455 0.54103 0.52646 0.0
H779 H 0.21648 0.60476 0.55128 0.0
C780 C 0.18774 0.58646 0.50443 0.0
C781 C 0.17562 0.56157 0.47861 0.0
C782 C 0.2633 0.54951 0.55208 0.0
C783 C 0.21545 0.55917 0.5333 0.0
C784 C 0.28714 0.55232 0.57679 0.0
C785 C 0.28649 0.56358 0.61021 0.0
C786 C 0.23919 0.55917 0.56025 0.0
C787 C 0.26116 0.57184 0.61775 0.0
C788 C 0.207 0.585 0.53202 0.0
C789 C 0.1833 0.53525 0.48173 0.0
N790 N 0.23895 0.57006 0.59285 0.0
N791 N 0.2032 0.5351 0.50812 0.0
H792 H 0.79015 0.29375 0.87663 0.0
H793 H 0.60778 0.14887 0.81806 0.0
H794 H 0.71196 0.23358 0.95021 0.0
H795 H 0.69617 0.18342 0.75359 0.0
H796 H 0.64494 0.17871 0.86674 0.0
H797 H 0.75653 0.2534 0.83164 0.0
C798 C 0.76609 0.27167 0.88346 0.0
C799 C 0.75397 0.26705 0.91738 0.0
C800 C 0.6563 0.17937 0.84213 0.0
C801 C 0.71463 0.22095 0.86541 0.0
C802 C 0.63508 0.1623 0.81423 0.0
C803 C 0.6488 0.16355 0.78154 0.0
C804 C 0.69168 0.19865 0.83735 0.0
C805 C 0.68441 0.18152 0.77827 0.0
C806 C 0.74686 0.24861 0.85767 0.0
C807 C 0.72248 0.23801 0.92456 0.0
N808 N 0.70452 0.19877 0.8056 0.0
N809 N 0.70366 0.21641 0.89872 0.0
H810 H 0.50407 0.66208 0.17419 0.0
H811 H 0.50846 0.81809 0.26383 0.0
H812 H 0.53207 0.75446 0.1186 0.0
H813 H 0.52376 0.74587 0.32181 0.0
H814 H 0.52027 0.7971 0.2108 0.0
H815 H 0.51472 0.69303 0.22837 0.0
C816 C 0.51374 0.68923 0.1734 0.0
C817 C 0.51785 0.70582 0.14175 0.0
C818 C 0.52188 0.78631 0.2351 0.0
C819 C 0.52836 0.74123 0.20395 0.0
C820 C 0.51525 0.79839 0.26546 0.0
C821 C 0.51545 0.78397 0.29741 0.0
C822 C 0.52772 0.75872 0.23634 0.0
C823 C 0.52385 0.75809 0.29785 0.0
C824 C 0.51954 0.70686 0.2044 0.0
C825 C 0.52936 0.74082 0.14233 0.0
N826 N 0.52892 0.74582 0.26778 0.0
N827 N 0.5335 0.75717 0.17287 0.0
H828 H 0.68776 0.50256 0.59305 0.0
H829 H 0.71465 0.4891 0.39049 0.0
H830 H 0.60567 0.4635 0.51968 0.0
H831 H 0.78265 0.48981 0.46843 0.0
H832 H 0.67938 0.49364 0.4359 0.0
H833 H 0.72776 0.51243 0.54588 0.0
C834 C 0.67827 0.49697 0.56696 0.0
C835 C 0.64328 0.48217 0.56036 0.0
C836 C 0.70229 0.49325 0.44296 0.0
C837 C 0.68886 0.49317 0.50625 0.0
C838 C 0.72252 0.49087 0.41703 0.0
C839 C 0.75157 0.48888 0.42562 0.0
C840 C 0.71148 0.49427 0.47771 0.0
C841 C 0.76035 0.49101 0.46057 0.0
C842 C 0.70106 0.50226 0.54007 0.0
C843 C 0.63242 0.4749 0.526 0.0
N844 N 0.74046 0.49352 0.48522 0.0
N845 N 0.65499 0.48032 0.50035 0.0
H846 H 0.16216 0.66652 0.96659 0.0
H847 H 0.24148 0.6953 0.77645 0.0
H848 H 0.14183 0.58406 0.89865 0.0
H849 H 0.2897 0.76509 0.86004 0.0
H850 H 0.19435 0.65838 0.81522 0.0
H851 H 0.19741 0.70702 0.92156 0.0
C852 C 0.16377 0.65697 0.94164 0.0
C853 C 0.14843 0.62185 0.93613 0.0
C854 C 0.21506 0.68202 0.82489 0.0
C855 C 0.18954 0.66798 0.88478 0.0
C856 C 0.2419 0.70317 0.80273 0.0
C857 C 0.26976 0.73329 0.815 0.0
C858 C 0.21566 0.69136 0.85942 0.0
C859 C 0.26893 0.74202 0.84947 0.0
C860 C 0.1844 0.68006 0.91615 0.0
C861 C 0.15265 0.61091 0.90373 0.0
N862 N 0.24247 0.72125 0.87036 0.0
N863 N 0.17286 0.63378 0.8794 0.0
loop_
_geom_bond_atom_site_label_1
_geom_bond_atom_site_label_2
_geom_bond_distance
_geom_bond_site_symmetry_2
_ccdc_geom_bond_type
Mn0 O5 2.095 . S
Mn0 O15 2.162 . S
Mn0 O16 2.297 . S
Mn0 O24 2.385 . S
Mn0 O25 2.209 . S
Mn0 O26 2.094 . S
Mn1 O6 2.121 . S
Mn1 N8 2.257 . S
Mn1 N17 2.282 . S
Mn1 O25 2.215 . S
Mn1 O27 2.117 . S
C2 O24 1.234 . S
C2 O25 1.283 . S
C3 O15 1.281 . S
C3 O16 1.236 . S
C4 O26 1.240 . S
C4 O27 1.264 . S
O5 Mn0 2.095 . S
O5 C14 1.250 . S
O6 Mn1 2.121 . S
O6 C14 1.258 . S
C7 N8 1.326 . S
C7 C11 1.460 . S
C7 H13 0.929 . S
N8 Mn1 2.257 . S
N8 C7 1.326 . S
N8 C12 1.362 . S
C9 C10 1.258 . S
C9 C12 1.431 . S
C9 C29 1.449 . S
C10 C9 1.258 . S
C10 C11 1.477 . S
C10 H30 0.931 . S
C11 C7 1.460 . S
C11 C10 1.477 . S
C11 H31 0.930 . S
C12 N8 1.362 . S
C12 C9 1.431 . S
C12 C22 1.476 . S
H13 C7 0.929 . S
C14 O5 1.250 . S
C14 O6 1.258 . S
O15 Mn0 2.162 . S
O15 C3 1.281 . S
O16 Mn0 2.297 . S
O16 C3 1.236 . S
N17 Mn1 2.282 . S
N17 C18 1.328 . S
N17 C22 1.318 . S
C18 N17 1.328 . S
C18 C19 1.457 . S
C18 H23 0.929 . S
C19 C18 1.457 . S
C19 C20 1.291 . S
C19 H32 0.931 . S
C20 C19 1.291 . S
C20 C21 1.373 . S
C20 H33 0.929 . S
C21 C20 1.373 . S
C21 C22 1.396 . S
C21 C28 1.403 . S
C22 C12 1.476 . S
C22 N17 1.318 . S
C22 C21 1.396 . S
H23 C18 0.929 . S
O24 Mn0 2.385 . S
O24 C2 1.234 . S
O25 Mn0 2.209 . S
O25 Mn1 2.215 . S
O25 C2 1.283 . S
O26 Mn0 2.094 . S
O26 C4 1.240 . S
O27 Mn1 2.117 . S
O27 C4 1.264 . S
C28 C21 1.403 . S
C28 C29 1.399 . S
C28 H34 0.929 . S
C29 C9 1.449 . S
C29 C28 1.399 . S
C29 H35 0.930 . S
H30 C10 0.931 . S
H31 C11 0.930 . S
H32 C19 0.931 . S
H33 C20 0.929 . S
H34 C28 0.929 . S
H35 C29 0.930 . S
Mn36 O41 2.095 . S
Mn36 O51 2.162 . S
Mn36 O52 2.297 . S
Mn36 O60 2.385 . S
Mn36 O61 2.209 . S
Mn36 O62 2.094 . S
Mn37 O42 2.121 . S
Mn37 N44 2.257 . S
Mn37 N53 2.282 . S
Mn37 O61 2.215 . S
Mn37 O63 2.117 . S
C38 O60 1.234 . S
C38 O61 1.283 . S
C39 O51 1.281 . S
C39 O52 1.236 . S
C40 O62 1.240 . S
C40 O63 1.264 . S
O41 Mn36 2.095 . S
O41 C50 1.250 . S
O42 Mn37 2.121 . S
O42 C50 1.258 . S
C43 N44 1.326 . S
C43 C47 1.460 . S
C43 H49 0.929 . S
N44 Mn37 2.257 . S
N44 C43 1.326 . S
N44 C48 1.362 . S
C45 C46 1.258 . S
C45 C48 1.431 . S
C45 C65 1.449 . S
C46 C45 1.258 . S
C46 C47 1.477 . S
C46 H66 0.931 . S
C47 C43 1.460 . S
C47 C46 1.477 . S
C47 H67 0.930 . S
C48 N44 1.362 . S
C48 C45 1.431 . S
C48 C58 1.476 . S
H49 C43 0.929 . S
C50 O41 1.250 . S
C50 O42 1.258 . S
O51 Mn36 2.162 . S
O51 C39 1.281 . S
O52 Mn36 2.297 . S
O52 C39 1.236 . S
N53 Mn37 2.282 . S
N53 C54 1.328 . S
N53 C58 1.318 . S
C54 N53 1.328 . S
C54 C55 1.457 . S
C54 H59 0.929 . S
C55 C54 1.457 . S
C55 C56 1.291 . S
C55 H68 0.931 . S
C56 C55 1.291 . S
C56 C57 1.373 . S
C56 H69 0.929 . S
C57 C56 1.373 . S
C57 C58 1.396 . S
C57 C64 1.403 . S
C58 C48 1.476 . S
C58 N53 1.318 . S
C58 C57 1.396 . S
H59 C54 0.929 . S
O60 Mn36 2.385 . S
O60 C38 1.234 . S
O61 Mn36 2.209 . S
O61 Mn37 2.215 . S
O61 C38 1.283 . S
O62 Mn36 2.094 . S
O62 C40 1.240 . S
O63 Mn37 2.117 . S
O63 C40 1.264 . S
C64 C57 1.403 . S
C64 C65 1.399 . S
C64 H70 0.929 . S
C65 C45 1.449 . S
C65 C64 1.399 . S
C65 H71 0.930 . S
H66 C46 0.931 . S
H67 C47 0.930 . S
H68 C55 0.931 . S
H69 C56 0.929 . S
H70 C64 0.929 . S
H71 C65 0.930 . S
Mn72 O77 2.095 . S
Mn72 O87 2.162 . S
Mn72 O88 2.297 . S
Mn72 O96 2.385 . S
Mn72 O97 2.209 . S
Mn72 O98 2.094 1_556 S
Mn73 O78 2.121 1_554 S
Mn73 N80 2.257 . S
Mn73 N89 2.282 . S
Mn73 O97 2.215 1_554 S
Mn73 O99 2.117 . S
C74 O96 1.234 . S
C74 O97 1.283 . S
C75 O87 1.281 . S
C75 O88 1.236 . S
C76 O98 1.240 . S
C76 O99 1.264 . S
O77 Mn72 2.095 . S
O77 C86 1.250 . S
O78 Mn73 2.121 1_556 S
O78 C86 1.258 . S
C79 N80 1.326 1_556 S
C79 C83 1.460 . S
C79 H85 0.929 . S
N80 Mn73 2.257 . S
N80 C79 1.326 1_554 S
N80 C84 1.362 . S
C81 C82 1.258 1_554 S
C81 C84 1.431 . S
C81 C101 1.449 . S
C82 C81 1.258 1_556 S
C82 C83 1.477 . S
C82 H102 0.931 . S
C83 C79 1.460 . S
C83 C82 1.477 . S
C83 H103 0.930 . S
C84 N80 1.362 . S
C84 C81 1.431 . S
C84 C94 1.476 . S
H85 C79 0.929 . S
C86 O77 1.250 . S
C86 O78 1.258 . S
O87 Mn72 2.162 . S
O87 C75 1.281 . S
O88 Mn72 2.297 . S
O88 C75 1.236 . S
N89 Mn73 2.282 . S
N89 C90 1.328 . S
N89 C94 1.318 . S
C90 N89 1.328 . S
C90 C91 1.457 . S
C90 H95 0.929 . S
C91 C90 1.457 . S
C91 C92 1.291 . S
C91 H104 0.931 . S
C92 C91 1.291 . S
C92 C93 1.373 . S
C92 H105 0.929 . S
C93 C92 1.373 . S
C93 C94 1.396 . S
C93 C100 1.403 . S
C94 C84 1.476 . S
C94 N89 1.318 . S
C94 C93 1.396 . S
H95 C90 0.929 . S
O96 Mn72 2.385 . S
O96 C74 1.234 . S
O97 Mn72 2.209 . S
O97 Mn73 2.215 1_556 S
O97 C74 1.283 . S
O98 Mn72 2.094 1_554 S
O98 C76 1.240 . S
O99 Mn73 2.117 . S
O99 C76 1.264 . S
C100 C93 1.403 . S
C100 C101 1.399 . S
C100 H106 0.929 . S
C101 C81 1.449 . S
C101 C100 1.399 . S
C101 H107 0.930 . S
H102 C82 0.931 . S
H103 C83 0.930 . S
H104 C91 0.931 . S
H105 C92 0.929 . S
H106 C100 0.929 . S
H107 C101 0.930 . S
Mn108 O113 2.095 . S
Mn108 O123 2.162 . S
Mn108 O124 2.297 . S
Mn108 O132 2.385 . S
Mn108 O133 2.209 . S
Mn108 O134 2.094 . S
Mn109 O114 2.121 . S
Mn109 N116 2.257 . S
Mn109 N125 2.282 . S
Mn109 O133 2.215 . S
Mn109 O135 2.117 . S
C110 O132 1.234 . S
C110 O133 1.283 . S
C111 O123 1.281 . S
C111 O124 1.236 . S
C112 O134 1.240 . S
C112 O135 1.264 . S
O113 Mn108 2.095 . S
O113 C122 1.250 . S
O114 Mn109 2.121 . S
O114 C122 1.258 . S
C115 N116 1.326 . S
C115 C119 1.460 . S
C115 H121 0.929 . S
N116 Mn109 2.257 . S
N116 C115 1.326 . S
N116 C120 1.362 . S
C117 C118 1.258 . S
C117 C120 1.431 . S
C117 C137 1.449 . S
C118 C117 1.258 . S
C118 C119 1.477 . S
C118 H138 0.931 . S
C119 C115 1.460 . S
C119 C118 1.477 . S
C119 H139 0.930 . S
C120 N116 1.362 . S
C120 C117 1.431 . S
C120 C130 1.476 . S
H121 C115 0.929 . S
C122 O113 1.250 . S
C122 O114 1.258 . S
O123 Mn108 2.162 . S
O123 C111 1.281 . S
O124 Mn108 2.297 . S
O124 C111 1.236 . S
N125 Mn109 2.282 . S
N125 C126 1.328 . S
N125 C130 1.318 . S
C126 N125 1.328 . S
C126 C127 1.457 . S
C126 H131 0.929 . S
C127 C126 1.457 . S
C127 C128 1.291 . S
C127 H140 0.931 . S
C128 C127 1.291 . S
C128 C129 1.373 . S
C128 H141 0.929 . S
C129 C128 1.373 . S
C129 C130 1.396 . S
C129 C136 1.403 . S
C130 C120 1.476 . S
C130 N125 1.318 . S
C130 C129 1.396 . S
H131 C126 0.929 . S
O132 Mn108 2.385 . S
O132 C110 1.234 . S
O133 Mn108 2.209 . S
O133 Mn109 2.215 . S
O133 C110 1.283 . S
O134 Mn108 2.094 . S
O134 C112 1.240 . S
O135 Mn109 2.117 . S
O135 C112 1.264 . S
C136 C129 1.403 . S
C136 C137 1.399 . S
C136 H142 0.929 . S
C137 C117 1.449 . S
C137 C136 1.399 . S
C137 H143 0.930 . S
H138 C118 0.931 . S
H139 C119 0.930 . S
H140 C127 0.931 . S
H141 C128 0.929 . S
H142 C136 0.929 . S
H143 C137 0.930 . S
Mn144 O149 2.095 . S
Mn144 O159 2.162 . S
Mn144 O160 2.297 . S
Mn144 O168 2.385 . S
Mn144 O169 2.209 . S
Mn144 O170 2.094 . S
Mn145 O150 2.121 . S
Mn145 N152 2.257 . S
Mn145 N161 2.282 . S
Mn145 O169 2.215 . S
Mn145 O171 2.117 . S
C146 O168 1.234 . S
C146 O169 1.283 . S
C147 O159 1.281 . S
C147 O160 1.236 . S
C148 O170 1.240 . S
C148 O171 1.264 . S
O149 Mn144 2.095 . S
O149 C158 1.250 . S
O150 Mn145 2.121 . S
O150 C158 1.258 . S
C151 N152 1.326 . S
C151 C155 1.460 . S
C151 H157 0.929 . S
N152 Mn145 2.257 . S
N152 C151 1.326 . S
N152 C156 1.362 . S
C153 C154 1.258 . S
C153 C156 1.431 . S
C153 C173 1.449 . S
C154 C153 1.258 . S
C154 C155 1.477 . S
C154 H174 0.931 . S
C155 C151 1.460 . S
C155 C154 1.477 . S
C155 H175 0.930 . S
C156 N152 1.362 . S
C156 C153 1.431 . S
C156 C166 1.476 . S
H157 C151 0.929 . S
C158 O149 1.250 . S
C158 O150 1.258 . S
O159 Mn144 2.162 . S
O159 C147 1.281 . S
O160 Mn144 2.297 . S
O160 C147 1.236 . S
N161 Mn145 2.282 . S
N161 C162 1.328 . S
N161 C166 1.318 . S
C162 N161 1.328 . S
C162 C163 1.457 . S
C162 H167 0.929 . S
C163 C162 1.457 . S
C163 C164 1.291 . S
C163 H176 0.931 . S
C164 C163 1.291 . S
C164 C165 1.373 . S
C164 H177 0.929 . S
C165 C164 1.373 . S
C165 C166 1.396 . S
C165 C172 1.403 . S
C166 C156 1.476 . S
C166 N161 1.318 . S
C166 C165 1.396 . S
H167 C162 0.929 . S
O168 Mn144 2.385 . S
O168 C146 1.234 . S
O169 Mn144 2.209 . S
O169 Mn145 2.215 . S
O169 C146 1.283 . S
O170 Mn144 2.094 . S
O170 C148 1.240 . S
O171 Mn145 2.117 . S
O171 C148 1.264 . S
C172 C165 1.403 . S
C172 C173 1.399 . S
C172 H178 0.929 . S
C173 C153 1.449 . S
C173 C172 1.399 . S
C173 H179 0.930 . S
H174 C154 0.931 . S
H175 C155 0.930 . S
H176 C163 0.931 . S
H177 C164 0.929 . S
H178 C172 0.929 . S
H179 C173 0.930 . S
Mn180 O185 2.095 . S
Mn180 O195 2.162 . S
Mn180 O196 2.297 . S
Mn180 O204 2.385 . S
Mn180 O205 2.209 . S
Mn180 O206 2.094 1_556 S
Mn181 O186 2.121 1_554 S
Mn181 N188 2.257 . S
Mn181 N197 2.282 . S
Mn181 O205 2.215 1_554 S
Mn181 O207 2.117 . S
C182 O204 1.234 . S
C182 O205 1.283 . S
C183 O195 1.281 . S
C183 O196 1.236 . S
C184 O206 1.240 . S
C184 O207 1.264 . S
O185 Mn180 2.095 . S
O185 C194 1.250 . S
O186 Mn181 2.121 1_556 S
O186 C194 1.258 . S
C187 N188 1.326 1_556 S
C187 C191 1.460 . S
C187 H193 0.929 . S
N188 Mn181 2.257 . S
N188 C187 1.326 1_554 S
N188 C192 1.362 . S
C189 C190 1.258 1_554 S
C189 C192 1.431 . S
C189 C209 1.449 . S
C190 C189 1.258 1_556 S
C190 C191 1.477 . S
C190 H210 0.931 . S
C191 C187 1.460 . S
C191 C190 1.477 . S
C191 H211 0.930 . S
C192 N188 1.362 . S
C192 C189 1.431 . S
C192 C202 1.476 . S
H193 C187 0.929 . S
C194 O185 1.250 . S
C194 O186 1.258 . S
O195 Mn180 2.162 . S
O195 C183 1.281 . S
O196 Mn180 2.297 . S
O196 C183 1.236 . S
N197 Mn181 2.282 . S
N197 C198 1.328 . S
N197 C202 1.318 . S
C198 N197 1.328 . S
C198 C199 1.457 . S
C198 H203 0.929 . S
C199 C198 1.457 . S
C199 C200 1.291 . S
C199 H212 0.931 . S
C200 C199 1.291 . S
C200 C201 1.373 . S
C200 H213 0.929 . S
C201 C200 1.373 . S
C201 C202 1.396 . S
C201 C208 1.403 . S
C202 C192 1.476 . S
C202 N197 1.318 . S
C202 C201 1.396 . S
H203 C198 0.929 . S
O204 Mn180 2.385 . S
O204 C182 1.234 . S
O205 Mn180 2.209 . S
O205 Mn181 2.215 1_556 S
O205 C182 1.283 . S
O206 Mn180 2.094 1_554 S
O206 C184 1.240 . S
O207 Mn181 2.117 . S
O207 C184 1.264 . S
C208 C201 1.403 . S
C208 C209 1.399 . S
C208 H214 0.929 . S
C209 C189 1.449 . S
C209 C208 1.399 . S
C209 H215 0.930 . S
H210 C190 0.931 . S
H211 C191 0.930 . S
H212 C199 0.931 . S
H213 C200 0.929 . S
H214 C208 0.929 . S
H215 C209 0.930 . S
Mn216 O221 2.095 . S
Mn216 O231 2.162 . S
Mn216 O232 2.297 . S
Mn216 O240 2.385 . S
Mn216 O241 2.209 . S
Mn216 O242 2.094 . S
Mn217 O222 2.121 . S
Mn217 N224 2.257 . S
Mn217 N233 2.282 . S
Mn217 O241 2.215 . S
Mn217 O243 2.117 . S
C218 O240 1.234 . S
C218 O241 1.283 . S
C219 O231 1.281 . S
C219 O232 1.236 . S
C220 O242 1.240 . S
C220 O243 1.264 . S
O221 Mn216 2.095 . S
O221 C230 1.250 . S
O222 Mn217 2.121 . S
O222 C230 1.258 . S
C223 N224 1.326 . S
C223 C227 1.460 . S
C223 H229 0.929 . S
N224 Mn217 2.257 . S
N224 C223 1.326 . S
N224 C228 1.362 . S
C225 C226 1.258 . S
C225 C228 1.431 . S
C225 C245 1.449 . S
C226 C225 1.258 . S
C226 C227 1.477 . S
C226 H246 0.931 . S
C227 C223 1.460 . S
C227 C226 1.477 . S
C227 H247 0.930 . S
C228 N224 1.362 . S
C228 C225 1.431 . S
C228 C238 1.476 . S
H229 C223 0.929 . S
C230 O221 1.250 . S
C230 O222 1.258 . S
O231 Mn216 2.162 . S
O231 C219 1.281 . S
O232 Mn216 2.297 . S
O232 C219 1.236 . S
N233 Mn217 2.282 . S
N233 C234 1.328 . S
N233 C238 1.318 . S
C234 N233 1.328 . S
C234 C235 1.457 . S
C234 H239 0.929 . S
C235 C234 1.457 . S
C235 C236 1.291 . S
C235 H248 0.931 . S
C236 C235 1.291 . S
C236 C237 1.373 . S
C236 H249 0.929 . S
C237 C236 1.373 . S
C237 C238 1.396 . S
C237 C244 1.403 . S
C238 C228 1.476 . S
C238 N233 1.318 . S
C238 C237 1.396 . S
H239 C234 0.929 . S
O240 Mn216 2.385 . S
O240 C218 1.234 . S
O241 Mn216 2.209 . S
O241 Mn217 2.215 . S
O241 C218 1.283 . S
O242 Mn216 2.094 . S
O242 C220 1.240 . S
O243 Mn217 2.117 . S
O243 C220 1.264 . S
C244 C237 1.403 . S
C244 C245 1.399 . S
C244 H250 0.929 . S
C245 C225 1.449 . S
C245 C244 1.399 . S
C245 H251 0.930 . S
H246 C226 0.931 . S
H247 C227 0.930 . S
H248 C235 0.931 . S
H249 C236 0.929 . S
H250 C244 0.929 . S
H251 C245 0.930 . S
Mn252 O257 2.095 . S
Mn252 O267 2.162 . S
Mn252 O268 2.297 . S
Mn252 O276 2.385 . S
Mn252 O277 2.209 . S
Mn252 O278 2.094 . S
Mn253 O258 2.121 . S
Mn253 N260 2.257 . S
Mn253 N269 2.282 . S
Mn253 O277 2.215 . S
Mn253 O279 2.117 . S
C254 O276 1.234 . S
C254 O277 1.283 . S
C255 O267 1.281 . S
C255 O268 1.236 . S
C256 O278 1.240 . S
C256 O279 1.264 . S
O257 Mn252 2.095 . S
O257 C266 1.250 . S
O258 Mn253 2.121 . S
O258 C266 1.258 . S
C259 N260 1.326 . S
C259 C263 1.460 . S
C259 H265 0.929 . S
N260 Mn253 2.257 . S
N260 C259 1.326 . S
N260 C264 1.362 . S
C261 C262 1.258 . S
C261 C264 1.431 . S
C261 C281 1.449 . S
C262 C261 1.258 . S
C262 C263 1.477 . S
C262 H282 0.931 . S
C263 C259 1.460 . S
C263 C262 1.477 . S
C263 H283 0.930 . S
C264 N260 1.362 . S
C264 C261 1.431 . S
C264 C274 1.476 . S
H265 C259 0.929 . S
C266 O257 1.250 . S
C266 O258 1.258 . S
O267 Mn252 2.162 . S
O267 C255 1.281 . S
O268 Mn252 2.297 . S
O268 C255 1.236 . S
N269 Mn253 2.282 . S
N269 C270 1.328 . S
N269 C274 1.318 . S
C270 N269 1.328 . S
C270 C271 1.457 . S
C270 H275 0.929 . S
C271 C270 1.457 . S
C271 C272 1.291 . S
C271 H284 0.931 . S
C272 C271 1.291 . S
C272 C273 1.373 . S
C272 H285 0.929 . S
C273 C272 1.373 . S
C273 C274 1.396 . S
C273 C280 1.403 . S
C274 C264 1.476 . S
C274 N269 1.318 . S
C274 C273 1.396 . S
H275 C270 0.929 . S
O276 Mn252 2.385 . S
O276 C254 1.234 . S
O277 Mn252 2.209 . S
O277 Mn253 2.215 . S
O277 C254 1.283 . S
O278 Mn252 2.094 . S
O278 C256 1.240 . S
O279 Mn253 2.117 . S
O279 C256 1.264 . S
C280 C273 1.403 . S
C280 C281 1.399 . S
C280 H286 0.929 . S
C281 C261 1.449 . S
C281 C280 1.399 . S
C281 H287 0.930 . S
H282 C262 0.931 . S
H283 C263 0.930 . S
H284 C271 0.931 . S
H285 C272 0.929 . S
H286 C280 0.929 . S
H287 C281 0.930 . S
Mn288 O293 2.095 . S
Mn288 O303 2.162 . S
Mn288 O304 2.297 . S
Mn288 O312 2.385 . S
Mn288 O313 2.209 . S
Mn288 O314 2.094 1_554 S
Mn289 O294 2.121 1_556 S
Mn289 N296 2.257 . S
Mn289 N305 2.282 . S
Mn289 O313 2.215 1_556 S
Mn289 O315 2.117 . S
C290 O312 1.234 . S
C290 O313 1.283 . S
C291 O303 1.281 . S
C291 O304 1.236 . S
C292 O314 1.240 . S
C292 O315 1.264 . S
O293 Mn288 2.095 . S
O293 C302 1.250 . S
O294 Mn289 2.121 1_554 S
O294 C302 1.258 . S
C295 N296 1.326 1_554 S
C295 C299 1.460 . S
C295 H301 0.929 . S
N296 Mn289 2.257 . S
N296 C295 1.326 1_556 S
N296 C300 1.362 . S
C297 C298 1.258 1_556 S
C297 C300 1.431 . S
C297 C317 1.449 . S
C298 C297 1.258 1_554 S
C298 C299 1.477 . S
C298 H318 0.931 . S
C299 C295 1.460 . S
C299 C298 1.477 . S
C299 H319 0.930 . S
C300 N296 1.362 . S
C300 C297 1.431 . S
C300 C310 1.476 . S
H301 C295 0.929 . S
C302 O293 1.250 . S
C302 O294 1.258 . S
O303 Mn288 2.162 . S
O303 C291 1.281 . S
O304 Mn288 2.297 . S
O304 C291 1.236 . S
N305 Mn289 2.282 . S
N305 C306 1.328 . S
N305 C310 1.318 . S
C306 N305 1.328 . S
C306 C307 1.457 . S
C306 H311 0.929 . S
C307 C306 1.457 . S
C307 C308 1.291 . S
C307 H320 0.931 . S
C308 C307 1.291 . S
C308 C309 1.373 . S
C308 H321 0.929 . S
C309 C308 1.373 . S
C309 C310 1.396 . S
C309 C316 1.403 . S
C310 C300 1.476 . S
C310 N305 1.318 . S
C310 C309 1.396 . S
H311 C306 0.929 . S
O312 Mn288 2.385 . S
O312 C290 1.234 . S
O313 Mn288 2.209 . S
O313 Mn289 2.215 1_554 S
O313 C290 1.283 . S
O314 Mn288 2.094 1_556 S
O314 C292 1.240 . S
O315 Mn289 2.117 . S
O315 C292 1.264 . S
C316 C309 1.403 . S
C316 C317 1.399 . S
C316 H322 0.929 . S
C317 C297 1.449 . S
C317 C316 1.399 . S
C317 H323 0.930 . S
H318 C298 0.931 . S
H319 C299 0.930 . S
H320 C307 0.931 . S
H321 C308 0.929 . S
H322 C316 0.929 . S
H323 C317 0.930 . S
Mn324 O329 2.095 . S
Mn324 O339 2.162 . S
Mn324 O340 2.297 . S
Mn324 O348 2.385 . S
Mn324 O349 2.209 . S
Mn324 O350 2.094 . S
Mn325 O330 2.121 . S
Mn325 N332 2.257 . S
Mn325 N341 2.282 . S
Mn325 O349 2.215 . S
Mn325 O351 2.117 . S
C326 O348 1.234 . S
C326 O349 1.283 . S
C327 O339 1.281 . S
C327 O340 1.236 . S
C328 O350 1.240 . S
C328 O351 1.264 . S
O329 Mn324 2.095 . S
O329 C338 1.250 . S
O330 Mn325 2.121 . S
O330 C338 1.258 . S
C331 N332 1.326 . S
C331 C335 1.460 . S
C331 H337 0.929 . S
N332 Mn325 2.257 . S
N332 C331 1.326 . S
N332 C336 1.362 . S
C333 C334 1.258 . S
C333 C336 1.431 . S
C333 C353 1.449 . S
C334 C333 1.258 . S
C334 C335 1.477 . S
C334 H354 0.931 . S
C335 C331 1.460 . S
C335 C334 1.477 . S
C335 H355 0.930 . S
C336 N332 1.362 . S
C336 C333 1.431 . S
C336 C346 1.476 . S
H337 C331 0.929 . S
C338 O329 1.250 . S
C338 O330 1.258 . S
O339 Mn324 2.162 . S
O339 C327 1.281 . S
O340 Mn324 2.297 . S
O340 C327 1.236 . S
N341 Mn325 2.282 . S
N341 C342 1.328 . S
N341 C346 1.318 . S
C342 N341 1.328 . S
C342 C343 1.457 . S
C342 H347 0.929 . S
C343 C342 1.457 . S
C343 C344 1.291 . S
C343 H356 0.931 . S
C344 C343 1.291 . S
C344 C345 1.373 . S
C344 H357 0.929 . S
C345 C344 1.373 . S
C345 C346 1.396 . S
C345 C352 1.403 . S
C346 C336 1.476 . S
C346 N341 1.318 . S
C346 C345 1.396 . S
H347 C342 0.929 . S
O348 Mn324 2.385 . S
O348 C326 1.234 . S
O349 Mn324 2.209 . S
O349 Mn325 2.215 . S
O349 C326 1.283 . S
O350 Mn324 2.094 . S
O350 C328 1.240 . S
O351 Mn325 2.117 . S
O351 C328 1.264 . S
C352 C345 1.403 . S
C352 C353 1.399 . S
C352 H358 0.929 . S
C353 C333 1.449 . S
C353 C352 1.399 . S
C353 H359 0.930 . S
H354 C334 0.931 . S
H355 C335 0.930 . S
H356 C343 0.931 . S
H357 C344 0.929 . S
H358 C352 0.929 . S
H359 C353 0.930 . S
Mn360 O365 2.095 . S
Mn360 O375 2.162 . S
Mn360 O376 2.297 . S
Mn360 O384 2.385 . S
Mn360 O385 2.209 . S
Mn360 O386 2.094 . S
Mn361 O366 2.121 . S
Mn361 N368 2.257 . S
Mn361 N377 2.282 . S
Mn361 O385 2.215 . S
Mn361 O387 2.117 . S
C362 O384 1.234 . S
C362 O385 1.283 . S
C363 O375 1.281 . S
C363 O376 1.236 . S
C364 O386 1.240 . S
C364 O387 1.264 . S
O365 Mn360 2.095 . S
O365 C374 1.250 . S
O366 Mn361 2.121 . S
O366 C374 1.258 . S
C367 N368 1.326 . S
C367 C371 1.460 . S
C367 H373 0.929 . S
N368 Mn361 2.257 . S
N368 C367 1.326 . S
N368 C372 1.362 . S
C369 C370 1.258 . S
C369 C372 1.431 . S
C369 C389 1.449 . S
C370 C369 1.258 . S
C370 C371 1.477 . S
C370 H390 0.931 . S
C371 C367 1.460 . S
C371 C370 1.477 . S
C371 H391 0.930 . S
C372 N368 1.362 . S
C372 C369 1.431 . S
C372 C382 1.476 . S
H373 C367 0.929 . S
C374 O365 1.250 . S
C374 O366 1.258 . S
O375 Mn360 2.162 . S
O375 C363 1.281 . S
O376 Mn360 2.297 . S
O376 C363 1.236 . S
N377 Mn361 2.282 . S
N377 C378 1.328 . S
N377 C382 1.318 . S
C378 N377 1.328 . S
C378 C379 1.457 . S
C378 H383 0.929 . S
C379 C378 1.457 . S
C379 C380 1.291 . S
C379 H392 0.931 . S
C380 C379 1.291 . S
C380 C381 1.373 . S
C380 H393 0.929 . S
C381 C380 1.373 . S
C381 C382 1.396 . S
C381 C388 1.403 . S
C382 C372 1.476 . S
C382 N377 1.318 . S
C382 C381 1.396 . S
H383 C378 0.929 . S
O384 Mn360 2.385 . S
O384 C362 1.234 . S
O385 Mn360 2.209 . S
O385 Mn361 2.215 . S
O385 C362 1.283 . S
O386 Mn360 2.094 . S
O386 C364 1.240 . S
O387 Mn361 2.117 . S
O387 C364 1.264 . S
C388 C381 1.403 . S
C388 C389 1.399 . S
C388 H394 0.929 . S
C389 C369 1.449 . S
C389 C388 1.399 . S
C389 H395 0.930 . S
H390 C370 0.931 . S
H391 C371 0.930 . S
H392 C379 0.931 . S
H393 C380 0.929 . S
H394 C388 0.929 . S
H395 C389 0.930 . S
Mn396 O401 2.095 . S
Mn396 O411 2.162 . S
Mn396 O412 2.297 . S
Mn396 O420 2.385 . S
Mn396 O421 2.209 . S
Mn396 O422 2.094 1_554 S
Mn397 O402 2.121 1_556 S
Mn397 N404 2.257 . S
Mn397 N413 2.282 . S
Mn397 O421 2.215 1_556 S
Mn397 O423 2.117 . S
C398 O420 1.234 . S
C398 O421 1.283 . S
C399 O411 1.281 . S
C399 O412 1.236 . S
C400 O422 1.240 . S
C400 O423 1.264 . S
O401 Mn396 2.095 . S
O401 C410 1.250 . S
O402 Mn397 2.121 1_554 S
O402 C410 1.258 . S
C403 N404 1.326 1_554 S
C403 C407 1.460 . S
C403 H409 0.929 . S
N404 Mn397 2.257 . S
N404 C403 1.326 1_556 S
N404 C408 1.362 . S
C405 C406 1.258 1_556 S
C405 C408 1.431 . S
C405 C425 1.449 . S
C406 C405 1.258 1_554 S
C406 C407 1.477 . S
C406 H426 0.931 . S
C407 C403 1.460 . S
C407 C406 1.477 . S
C407 H427 0.930 . S
C408 N404 1.362 . S
C408 C405 1.431 . S
C408 C418 1.476 . S
H409 C403 0.929 . S
C410 O401 1.250 . S
C410 O402 1.258 . S
O411 Mn396 2.162 . S
O411 C399 1.281 . S
O412 Mn396 2.297 . S
O412 C399 1.236 . S
N413 Mn397 2.282 . S
N413 C414 1.328 . S
N413 C418 1.318 . S
C414 N413 1.328 . S
C414 C415 1.457 . S
C414 H419 0.929 . S
C415 C414 1.457 . S
C415 C416 1.291 . S
C415 H428 0.931 . S
C416 C415 1.291 . S
C416 C417 1.373 . S
C416 H429 0.929 . S
C417 C416 1.373 . S
C417 C418 1.396 . S
C417 C424 1.403 . S
C418 C408 1.476 . S
C418 N413 1.318 . S
C418 C417 1.396 . S
H419 C414 0.929 . S
O420 Mn396 2.385 . S
O420 C398 1.234 . S
O421 Mn396 2.209 . S
O421 Mn397 2.215 1_554 S
O421 C398 1.283 . S
O422 Mn396 2.094 1_556 S
O422 C400 1.240 . S
O423 Mn397 2.117 . S
O423 C400 1.264 . S
C424 C417 1.403 . S
C424 C425 1.399 . S
C424 H430 0.929 . S
C425 C405 1.449 . S
C425 C424 1.399 . S
C425 H431 0.930 . S
H426 C406 0.931 . S
H427 C407 0.930 . S
H428 C415 0.931 . S
H429 C416 0.929 . S
H430 C424 0.929 . S
H431 C425 0.930 . S
H432 C438 0.930 . S
H433 C442 0.930 . S
H434 C447 0.929 . S
H435 C445 0.929 . S
H436 C440 0.929 . S
H437 C446 0.929 . S
C438 H432 0.930 . S
C438 C439 1.367 . S
C438 C446 1.378 . S
C439 C438 1.367 . S
C439 C447 1.433 . S
C440 H436 0.929 . S
C440 C442 1.378 . S
C440 C444 1.350 . S
C441 C444 1.463 . S
C441 C446 1.350 . S
C441 N449 1.427 . S
C442 H433 0.930 . S
C442 C440 1.378 . S
C442 C443 1.367 . S
C443 C442 1.367 . S
C443 C445 1.433 . S
C444 C440 1.350 . S
C444 C441 1.463 . S
C444 N448 1.427 . S
C445 H435 0.929 . S
C445 C443 1.433 . S
C445 N448 1.384 . S
C446 H437 0.929 . S
C446 C438 1.378 . S
C446 C441 1.350 . S
C447 H434 0.929 . S
C447 C439 1.433 . S
C447 N449 1.384 . S
N448 C444 1.427 . S
N448 C445 1.384 . S
N449 C441 1.427 . S
N449 C447 1.384 . S
H450 C456 0.930 . S
H451 C460 0.930 . S
H452 C465 0.929 . S
H453 C463 0.929 . S
H454 C458 0.929 . S
H455 C464 0.929 . S
C456 H450 0.930 . S
C456 C457 1.367 . S
C456 C464 1.378 . S
C457 C456 1.367 . S
C457 C465 1.433 . S
C458 H454 0.929 . S
C458 C460 1.378 . S
C458 C462 1.350 . S
C459 C462 1.463 . S
C459 C464 1.350 . S
C459 N467 1.427 . S
C460 H451 0.930 . S
C460 C458 1.378 . S
C460 C461 1.367 . S
C461 C460 1.367 . S
C461 C463 1.433 . S
C462 C458 1.350 . S
C462 C459 1.463 . S
C462 N466 1.427 . S
C463 H453 0.929 . S
C463 C461 1.433 . S
C463 N466 1.384 . S
C464 H455 0.929 . S
C464 C456 1.378 . S
C464 C459 1.350 . S
C465 H452 0.929 . S
C465 C457 1.433 . S
C465 N467 1.384 . S
N466 C462 1.427 . S
N466 C463 1.384 . S
N467 C459 1.427 . S
N467 C465 1.384 . S
H468 C474 0.930 . S
H469 C478 0.930 . S
H470 C483 0.929 . S
H471 C481 0.929 . S
H472 C476 0.929 . S
H473 C482 0.929 . S
C474 H468 0.930 . S
C474 C475 1.367 . S
C474 C482 1.378 . S
C475 C474 1.367 . S
C475 C483 1.433 . S
C476 H472 0.929 . S
C476 C478 1.378 . S
C476 C480 1.350 . S
C477 C480 1.463 . S
C477 C482 1.350 . S
C477 N485 1.427 . S
C478 H469 0.930 . S
C478 C476 1.378 . S
C478 C479 1.367 . S
C479 C478 1.367 . S
C479 C481 1.433 . S
C480 C476 1.350 . S
C480 C477 1.463 . S
C480 N484 1.427 . S
C481 H471 0.929 . S
C481 C479 1.433 . S
C481 N484 1.384 . S
C482 H473 0.929 . S
C482 C474 1.378 . S
C482 C477 1.350 . S
C483 H470 0.929 . S
C483 C475 1.433 . S
C483 N485 1.384 . S
N484 C480 1.427 . S
N484 C481 1.384 . S
N485 C477 1.427 . S
N485 C483 1.384 . S
H486 C492 0.930 . S
H487 C496 0.930 . S
H488 C501 0.929 . S
H489 C499 0.929 . S
H490 C494 0.929 . S
H491 C500 0.929 . S
C492 H486 0.930 . S
C492 C493 1.367 . S
C492 C500 1.378 . S
C493 C492 1.367 . S
C493 C501 1.433 . S
C494 H490 0.929 . S
C494 C496 1.378 . S
C494 C498 1.350 . S
C495 C498 1.463 . S
C495 C500 1.350 . S
C495 N503 1.427 . S
C496 H487 0.930 . S
C496 C494 1.378 . S
C496 C497 1.367 . S
C497 C496 1.367 . S
C497 C499 1.433 . S
C498 C494 1.350 . S
C498 C495 1.463 . S
C498 N502 1.427 . S
C499 H489 0.929 . S
C499 C497 1.433 . S
C499 N502 1.384 . S
C500 H491 0.929 . S
C500 C492 1.378 . S
C500 C495 1.350 . S
C501 H488 0.929 . S
C501 C493 1.433 . S
C501 N503 1.384 . S
N502 C498 1.427 . S
N502 C499 1.384 . S
N503 C495 1.427 . S
N503 C501 1.384 . S
H504 C510 0.930 . S
H505 C514 0.930 . S
H506 C519 0.929 . S
H507 C517 0.929 . S
H508 C512 0.929 . S
H509 C518 0.929 . S
C510 H504 0.930 . S
C510 C511 1.367 . S
C510 C518 1.378 . S
C511 C510 1.367 . S
C511 C519 1.433 . S
C512 H508 0.929 . S
C512 C514 1.378 . S
C512 C516 1.350 . S
C513 C516 1.463 . S
C513 C518 1.350 . S
C513 N521 1.427 . S
C514 H505 0.930 . S
C514 C512 1.378 . S
C514 C515 1.367 . S
C515 C514 1.367 . S
C515 C517 1.433 . S
C516 C512 1.350 . S
C516 C513 1.463 . S
C516 N520 1.427 . S
C517 H507 0.929 . S
C517 C515 1.433 . S
C517 N520 1.384 . S
C518 H509 0.929 . S
C518 C510 1.378 . S
C518 C513 1.350 . S
C519 H506 0.929 . S
C519 C511 1.433 . S
C519 N521 1.384 . S
N520 C516 1.427 . S
N520 C517 1.384 . S
N521 C513 1.427 . S
N521 C519 1.384 . S
H522 C528 0.930 . S
H523 C532 0.930 . S
H524 C537 0.929 . S
H525 C535 0.929 . S
H526 C530 0.929 . S
H527 C536 0.929 . S
C528 H522 0.930 . S
C528 C529 1.367 . S
C528 C536 1.378 . S
C529 C528 1.367 . S
C529 C537 1.433 . S
C530 H526 0.929 . S
C530 C532 1.378 . S
C530 C534 1.350 . S
C531 C534 1.463 . S
C531 C536 1.350 . S
C531 N539 1.427 . S
C532 H523 0.930 . S
C532 C530 1.378 . S
C532 C533 1.367 . S
C533 C532 1.367 . S
C533 C535 1.433 . S
C534 C530 1.350 . S
C534 C531 1.463 . S
C534 N538 1.427 . S
C535 H525 0.929 . S
C535 C533 1.433 . S
C535 N538 1.384 . S
C536 H527 0.929 . S
C536 C528 1.378 . S
C536 C531 1.350 . S
C537 H524 0.929 . S
C537 C529 1.433 . S
C537 N539 1.384 . S
N538 C534 1.427 . S
N538 C535 1.384 . S
N539 C531 1.427 . S
N539 C537 1.384 . S
H540 C546 0.930 . S
H541 C550 0.930 . S
H542 C555 0.929 . S
H543 C553 0.929 . S
H544 C548 0.929 . S
H545 C554 0.929 . S
C546 H540 0.930 . S
C546 C547 1.367 . S
C546 C554 1.378 . S
C547 C546 1.367 . S
C547 C555 1.433 . S
C548 H544 0.929 . S
C548 C550 1.378 . S
C548 C552 1.350 . S
C549 C552 1.463 . S
C549 C554 1.350 . S
C549 N557 1.427 . S
C550 H541 0.930 . S
C550 C548 1.378 . S
C550 C551 1.367 . S
C551 C550 1.367 . S
C551 C553 1.433 . S
C552 C548 1.350 . S
C552 C549 1.463 . S
C552 N556 1.427 . S
C553 H543 0.929 . S
C553 C551 1.433 . S
C553 N556 1.384 . S
C554 H545 0.929 . S
C554 C546 1.378 . S
C554 C549 1.350 . S
C555 H542 0.929 . S
C555 C547 1.433 . S
C555 N557 1.384 . S
N556 C552 1.427 . S
N556 C553 1.384 . S
N557 C549 1.427 . S
N557 C555 1.384 . S
H558 C564 0.930 . S
H559 C568 0.930 . S
H560 C573 0.929 . S
H561 C571 0.929 . S
H562 C566 0.929 . S
H563 C572 0.929 . S
C564 H558 0.930 . S
C564 C565 1.367 . S
C564 C572 1.378 . S
C565 C564 1.367 . S
C565 C573 1.433 . S
C566 H562 0.929 . S
C566 C568 1.378 . S
C566 C570 1.350 . S
C567 C570 1.463 . S
C567 C572 1.350 . S
C567 N575 1.427 . S
C568 H559 0.930 . S
C568 C566 1.378 . S
C568 C569 1.367 . S
C569 C568 1.367 . S
C569 C571 1.433 . S
C570 C566 1.350 . S
C570 C567 1.463 . S
C570 N574 1.427 . S
C571 H561 0.929 . S
C571 C569 1.433 . S
C571 N574 1.384 . S
C572 H563 0.929 . S
C572 C564 1.378 . S
C572 C567 1.350 . S
C573 H560 0.929 . S
C573 C565 1.433 . S
C573 N575 1.384 . S
N574 C570 1.427 . S
N574 C571 1.384 . S
N575 C567 1.427 . S
N575 C573 1.384 . S
H576 C582 0.930 . S
H577 C586 0.930 . S
H578 C591 0.929 . S
H579 C589 0.929 . S
H580 C584 0.939 . S
H581 C590 0.934 . S
C582 H576 0.930 . S
C582 C583 1.367 . S
C582 C590 1.375 1_554 S
C583 C582 1.367 . S
C583 C591 1.433 . S
C584 H580 0.939 . S
C584 C586 1.372 1_554 S
C584 C588 1.347 1_554 S
C585 C588 1.463 1_554 S
C585 C590 1.348 1_554 S
C585 N593 1.427 . S
C586 H577 0.930 . S
C586 C584 1.372 1_556 S
C586 C587 1.367 . S
C587 C586 1.367 . S
C587 C589 1.433 . S
C588 C584 1.347 1_556 S
C588 C585 1.463 1_556 S
C588 N592 1.427 . S
C589 H579 0.929 . S
C589 C587 1.433 . S
C589 N592 1.384 . S
C590 H581 0.934 . S
C590 C582 1.375 1_556 S
C590 C585 1.348 1_556 S
C591 H578 0.929 . S
C591 C583 1.433 . S
C591 N593 1.384 . S
N592 C588 1.427 . S
N592 C589 1.384 . S
N593 C585 1.427 . S
N593 C591 1.384 . S
H594 C600 0.930 . S
H595 C604 0.930 . S
H596 C609 0.929 . S
H597 C607 0.929 . S
H598 C602 0.929 . S
H599 C608 0.929 . S
C600 H594 0.930 . S
C600 C601 1.367 . S
C600 C608 1.378 . S
C601 C600 1.367 . S
C601 C609 1.433 . S
C602 H598 0.929 . S
C602 C604 1.378 . S
C602 C606 1.350 . S
C603 C606 1.463 . S
C603 C608 1.350 . S
C603 N611 1.427 . S
C604 H595 0.930 . S
C604 C602 1.378 . S
C604 C605 1.367 . S
C605 C604 1.367 . S
C605 C607 1.433 . S
C606 C602 1.350 . S
C606 C603 1.463 . S
C606 N610 1.427 . S
C607 H597 0.929 . S
C607 C605 1.433 . S
C607 N610 1.384 . S
C608 H599 0.929 . S
C608 C600 1.378 . S
C608 C603 1.350 . S
C609 H596 0.929 . S
C609 C601 1.433 . S
C609 N611 1.384 . S
N610 C606 1.427 . S
N610 C607 1.384 . S
N611 C603 1.427 . S
N611 C609 1.384 . S
H612 C618 0.930 . S
H613 C622 0.930 . S
H614 C627 0.929 . S
H615 C625 0.929 . S
H616 C620 0.929 . S
H617 C626 0.929 . S
C618 H612 0.930 . S
C618 C619 1.367 . S
C618 C626 1.378 . S
C619 C618 1.367 . S
C619 C627 1.433 . S
C620 H616 0.929 . S
C620 C622 1.378 . S
C620 C624 1.350 . S
C621 C624 1.463 . S
C621 C626 1.350 . S
C621 N629 1.427 . S
C622 H613 0.930 . S
C622 C620 1.378 . S
C622 C623 1.367 . S
C623 C622 1.367 . S
C623 C625 1.433 . S
C624 C620 1.350 . S
C624 C621 1.463 . S
C624 N628 1.427 . S
C625 H615 0.929 . S
C625 C623 1.433 . S
C625 N628 1.384 . S
C626 H617 0.929 . S
C626 C618 1.378 . S
C626 C621 1.350 . S
C627 H614 0.929 . S
C627 C619 1.433 . S
C627 N629 1.384 . S
N628 C624 1.427 . S
N628 C625 1.384 . S
N629 C621 1.427 . S
N629 C627 1.384 . S
H630 C636 0.930 1_554 S
H631 C640 0.930 1_556 S
H632 C645 0.929 . S
H633 C643 0.929 . S
H634 C638 0.929 . S
H635 C644 0.929 . S
C636 H630 0.930 1_556 S
C636 C637 1.367 . S
C636 C644 1.378 1_556 S
C637 C636 1.367 . S
C637 C645 1.433 . S
C638 H634 0.929 . S
C638 C640 1.378 1_556 S
C638 C642 1.350 1_556 S
C639 C642 1.463 1_556 S
C639 C644 1.350 1_556 S
C639 N647 1.427 . S
C640 H631 0.930 1_554 S
C640 C638 1.378 1_554 S
C640 C641 1.367 . S
C641 C640 1.367 . S
C641 C643 1.433 . S
C642 C638 1.350 1_554 S
C642 C639 1.463 1_554 S
C642 N646 1.427 . S
C643 H633 0.929 . S
C643 C641 1.433 . S
C643 N646 1.384 . S
C644 H635 0.929 . S
C644 C636 1.378 1_554 S
C644 C639 1.350 1_554 S
C645 H632 0.929 . S
C645 C637 1.433 . S
C645 N647 1.384 . S
N646 C642 1.427 . S
N646 C643 1.384 . S
N647 C639 1.427 . S
N647 C645 1.384 . S
H648 C654 0.930 . S
H649 C658 0.930 . S
H650 C663 0.929 . S
H651 C661 0.929 . S
H652 C656 0.929 . S
H653 C662 0.929 . S
C654 H648 0.930 . S
C654 C655 1.367 . S
C654 C662 1.378 . S
C655 C654 1.367 . S
C655 C663 1.433 . S
C656 H652 0.929 . S
C656 C658 1.378 . S
C656 C660 1.350 . S
C657 C660 1.463 1_545 S
C657 C662 1.350 . S
C657 N665 1.427 . S
C658 H649 0.930 . S
C658 C656 1.378 . S
C658 C659 1.367 . S
C659 C658 1.367 . S
C659 C661 1.433 . S
C660 C656 1.350 . S
C660 C657 1.463 1_565 S
C660 N664 1.427 . S
C661 H651 0.929 . S
C661 C659 1.433 . S
C661 N664 1.384 . S
C662 H653 0.929 . S
C662 C654 1.378 . S
C662 C657 1.350 . S
C663 H650 0.929 . S
C663 C655 1.433 . S
C663 N665 1.384 . S
N664 C660 1.427 . S
N664 C661 1.384 . S
N665 C657 1.427 . S
N665 C663 1.384 . S
H666 C672 0.930 . S
H667 C676 0.930 . S
H668 C681 0.929 . S
H669 C679 0.929 . S
H670 C674 0.929 . S
H671 C680 0.929 . S
C672 H666 0.930 . S
C672 C673 1.367 . S
C672 C680 1.378 . S
C673 C672 1.367 . S
C673 C681 1.433 . S
C674 H670 0.929 . S
C674 C676 1.378 . S
C674 C678 1.350 . S
C675 C678 1.463 . S
C675 C680 1.350 . S
C675 N683 1.427 . S
C676 H667 0.930 . S
C676 C674 1.378 . S
C676 C677 1.367 . S
C677 C676 1.367 . S
C677 C679 1.433 . S
C678 C674 1.350 . S
C678 C675 1.463 . S
C678 N682 1.427 . S
C679 H669 0.929 . S
C679 C677 1.433 . S
C679 N682 1.384 . S
C680 H671 0.929 . S
C680 C672 1.378 . S
C680 C675 1.350 . S
C681 H668 0.929 . S
C681 C673 1.433 . S
C681 N683 1.384 . S
N682 C678 1.427 . S
N682 C679 1.384 . S
N683 C675 1.427 . S
N683 C681 1.384 . S
H684 C690 0.930 1_554 S
H685 C694 0.930 . S
H686 C699 0.929 . S
H687 C697 0.940 . S
H688 C692 0.929 . S
H689 C698 0.929 1_554 S
C690 H684 0.930 1_556 S
C690 C691 1.367 . S
C690 C698 1.378 . S
C691 C690 1.367 . S
C691 C699 1.433 . S
C692 H688 0.929 . S
C692 C694 1.378 . S
C692 C696 1.350 . S
C693 C696 1.463 1_655 S
C693 C698 1.350 . S
C693 N701 1.427 . S
C694 H685 0.930 . S
C694 C692 1.378 . S
C694 C695 1.367 . S
C695 C694 1.367 . S
C695 C697 1.422 1_556 S
C696 C692 1.350 . S
C696 C693 1.463 1_455 S
C696 N700 1.430 1_556 S
C697 H687 0.940 . S
C697 C695 1.422 1_554 S
C697 N700 1.383 . S
C698 H689 0.929 1_556 S
C698 C690 1.378 . S
C698 C693 1.350 . S
C699 H686 0.929 . S
C699 C691 1.433 . S
C699 N701 1.384 . S
N700 C696 1.430 1_554 S
N700 C697 1.383 . S
N701 C693 1.427 . S
N701 C699 1.384 . S
H702 C708 0.930 . S
H703 C712 0.930 . S
H704 C717 0.929 . S
H705 C715 0.929 . S
H706 C710 0.929 . S
H707 C716 0.929 . S
C708 H702 0.930 . S
C708 C709 1.367 . S
C708 C716 1.378 . S
C709 C708 1.367 . S
C709 C717 1.433 . S
C710 H706 0.929 . S
C710 C712 1.378 . S
C710 C714 1.350 . S
C711 C714 1.463 1_455 S
C711 C716 1.350 . S
C711 N719 1.427 . S
C712 H703 0.930 . S
C712 C710 1.378 . S
C712 C713 1.367 . S
C713 C712 1.367 . S
C713 C715 1.433 . S
C714 C710 1.350 . S
C714 C711 1.463 1_655 S
C714 N718 1.427 . S
C715 H705 0.929 . S
C715 C713 1.433 . S
C715 N718 1.384 . S
C716 H707 0.929 . S
C716 C708 1.378 . S
C716 C711 1.350 . S
C717 H704 0.929 . S
C717 C709 1.433 . S
C717 N719 1.384 . S
N718 C714 1.427 . S
N718 C715 1.384 . S
N719 C711 1.427 . S
N719 C717 1.384 . S
H720 C726 0.930 . S
H721 C730 0.930 . S
H722 C735 0.929 . S
H723 C733 0.929 . S
H724 C728 0.929 . S
H725 C734 0.929 . S
C726 H720 0.930 . S
C726 C727 1.367 . S
C726 C734 1.378 . S
C727 C726 1.367 . S
C727 C735 1.433 . S
C728 H724 0.929 . S
C728 C730 1.378 . S
C728 C732 1.350 . S
C729 C732 1.463 1_545 S
C729 C734 1.350 . S
C729 N737 1.427 . S
C730 H721 0.930 . S
C730 C728 1.378 . S
C730 C731 1.367 . S
C731 C730 1.367 . S
C731 C733 1.433 . S
C732 C728 1.350 . S
C732 C729 1.463 1_565 S
C732 N736 1.427 . S
C733 H723 0.929 . S
C733 C731 1.433 . S
C733 N736 1.384 . S
C734 H725 0.929 . S
C734 C726 1.378 . S
C734 C729 1.350 . S
C735 H722 0.929 . S
C735 C727 1.433 . S
C735 N737 1.384 . S
N736 C732 1.427 . S
N736 C733 1.384 . S
N737 C729 1.427 . S
N737 C735 1.384 . S
H738 C744 0.902 1_556 S
H739 C748 0.930 . S
H740 C753 0.929 . S
H741 C751 0.918 1_556 S
H742 C746 0.929 . S
H743 C752 0.901 1_556 S
C744 H738 0.902 1_554 S
C744 C745 1.395 . S
C744 C752 1.378 . S
C745 C744 1.395 . S
C745 C753 1.433 . S
C746 H742 0.929 . S
C746 C748 1.378 . S
C746 C750 1.350 . S
C747 C750 1.463 . S
C747 C752 1.378 . S
C747 N755 1.427 . S
C748 H739 0.930 . S
C748 C746 1.378 . S
C748 C749 1.367 . S
C749 C748 1.367 . S
C749 C751 1.444 . S
C750 C746 1.350 . S
C750 C747 1.463 . S
C750 N754 1.452 . S
C751 H741 0.918 1_554 S
C751 C749 1.444 . S
C751 N754 1.383 . S
C752 H743 0.901 1_554 S
C752 C744 1.378 . S
C752 C747 1.378 . S
C753 H740 0.929 . S
C753 C745 1.433 . S
C753 N755 1.384 . S
N754 C750 1.452 . S
N754 C751 1.383 . S
N755 C747 1.427 . S
N755 C753 1.384 . S
H756 C762 0.930 . S
H757 C766 0.930 . S
H758 C771 0.929 . S
H759 C769 0.929 . S
H760 C764 0.929 . S
H761 C770 0.929 . S
C762 H756 0.930 . S
C762 C763 1.367 . S
C762 C770 1.378 . S
C763 C762 1.367 . S
C763 C771 1.433 . S
C764 H760 0.929 . S
C764 C766 1.378 . S
C764 C768 1.350 . S
C765 C768 1.463 . S
C765 C770 1.350 . S
C765 N773 1.427 . S
C766 H757 0.930 . S
C766 C764 1.378 . S
C766 C767 1.367 . S
C767 C766 1.367 . S
C767 C769 1.433 . S
C768 C764 1.350 . S
C768 C765 1.463 . S
C768 N772 1.427 . S
C769 H759 0.929 . S
C769 C767 1.433 . S
C769 N772 1.384 . S
C770 H761 0.929 . S
C770 C762 1.378 . S
C770 C765 1.350 . S
C771 H758 0.929 . S
C771 C763 1.433 . S
C771 N773 1.384 . S
N772 C768 1.427 . S
N772 C769 1.384 . S
N773 C765 1.427 . S
N773 C771 1.384 . S
H774 C780 0.930 . S
H775 C784 0.930 . S
H776 C789 0.929 . S
H777 C787 0.929 . S
H778 C782 0.929 . S
H779 C788 0.929 . S
C780 H774 0.930 . S
C780 C781 1.367 . S
C780 C788 1.378 . S
C781 C780 1.367 . S
C781 C789 1.433 . S
C782 H778 0.929 . S
C782 C784 1.378 . S
C782 C786 1.350 . S
C783 C786 1.463 . S
C783 C788 1.350 . S
C783 N791 1.427 . S
C784 H775 0.930 . S
C784 C782 1.378 . S
C784 C785 1.367 . S
C785 C784 1.367 . S
C785 C787 1.433 . S
C786 C782 1.350 . S
C786 C783 1.463 . S
C786 N790 1.427 . S
C787 H777 0.929 . S
C787 C785 1.433 . S
C787 N790 1.384 . S
C788 H779 0.929 . S
C788 C780 1.378 . S
C788 C783 1.350 . S
C789 H776 0.929 . S
C789 C781 1.433 . S
C789 N791 1.384 . S
N790 C786 1.427 . S
N790 C787 1.384 . S
N791 C783 1.427 . S
N791 C789 1.384 . S
H792 C798 0.930 . S
H793 C802 0.930 . S
H794 C807 0.929 . S
H795 C805 0.929 . S
H796 C800 0.929 . S
H797 C806 0.929 . S
C798 H792 0.930 . S
C798 C799 1.367 . S
C798 C806 1.378 . S
C799 C798 1.367 . S
C799 C807 1.433 . S
C800 H796 0.929 . S
C800 C802 1.378 . S
C800 C804 1.350 . S
C801 C804 1.463 . S
C801 C806 1.350 . S
C801 N809 1.427 . S
C802 H793 0.930 . S
C802 C800 1.378 . S
C802 C803 1.367 . S
C803 C802 1.367 . S
C803 C805 1.433 . S
C804 C800 1.350 . S
C804 C801 1.463 . S
C804 N808 1.427 . S
C805 H795 0.929 . S
C805 C803 1.433 . S
C805 N808 1.384 . S
C806 H797 0.929 . S
C806 C798 1.378 . S
C806 C801 1.350 . S
C807 H794 0.929 . S
C807 C799 1.433 . S
C807 N809 1.384 . S
N808 C804 1.427 . S
N808 C805 1.384 . S
N809 C801 1.427 . S
N809 C807 1.384 . S
H810 C816 0.930 . S
H811 C820 0.930 . S
H812 C825 0.929 . S
H813 C823 0.929 . S
H814 C818 0.929 . S
H815 C824 0.929 . S
C816 H810 0.930 . S
C816 C817 1.367 . S
C816 C824 1.378 . S
C817 C816 1.367 . S
C817 C825 1.433 . S
C818 H814 0.929 . S
C818 C820 1.378 . S
C818 C822 1.350 . S
C819 C822 1.463 . S
C819 C824 1.350 . S
C819 N827 1.427 . S
C820 H811 0.930 . S
C820 C818 1.378 . S
C820 C821 1.367 . S
C821 C820 1.367 . S
C821 C823 1.433 . S
C822 C818 1.350 . S
C822 C819 1.463 . S
C822 N826 1.427 . S
C823 H813 0.929 . S
C823 C821 1.433 . S
C823 N826 1.384 . S
C824 H815 0.929 . S
C824 C816 1.378 . S
C824 C819 1.350 . S
C825 H812 0.929 . S
C825 C817 1.433 . S
C825 N827 1.384 . S
N826 C822 1.427 . S
N826 C823 1.384 . S
N827 C819 1.427 . S
N827 C825 1.384 . S
H828 C834 0.930 . S
H829 C838 0.930 . S
H830 C843 0.929 . S
H831 C841 0.929 . S
H832 C836 0.929 . S
H833 C842 0.929 . S
C834 H828 0.930 . S
C834 C835 1.367 . S
C834 C842 1.378 . S
C835 C834 1.367 . S
C835 C843 1.433 . S
C836 H832 0.929 . S
C836 C838 1.378 . S
C836 C840 1.350 . S
C837 C840 1.463 . S
C837 C842 1.350 . S
C837 N845 1.427 . S
C838 H829 0.930 . S
C838 C836 1.378 . S
C838 C839 1.367 . S
C839 C838 1.367 . S
C839 C841 1.433 . S
C840 C836 1.350 . S
C840 C837 1.463 . S
C840 N844 1.427 . S
C841 H831 0.929 . S
C841 C839 1.433 . S
C841 N844 1.384 . S
C842 H833 0.929 . S
C842 C834 1.378 . S
C842 C837 1.350 . S
C843 H830 0.929 . S
C843 C835 1.433 . S
C843 N845 1.384 . S
N844 C840 1.427 . S
N844 C841 1.384 . S
N845 C837 1.427 . S
N845 C843 1.384 . S
H846 C852 0.930 . S
H847 C856 0.930 . S
H848 C861 0.929 . S
H849 C859 0.929 . S
H850 C854 0.929 . S
H851 C860 0.929 . S
C852 H846 0.930 . S
C852 C853 1.367 . S
C852 C860 1.378 . S
C853 C852 1.367 . S
C853 C861 1.433 . S
C854 H850 0.929 . S
C854 C856 1.378 . S
C854 C858 1.350 . S
C855 C858 1.463 . S
C855 C860 1.350 . S
C855 N863 1.427 . S
C856 H847 0.930 . S
C856 C854 1.378 . S
C856 C857 1.367 . S
C857 C856 1.367 . S
C857 C859 1.433 . S
C858 C854 1.350 . S
C858 C855 1.463 . S
C858 N862 1.427 . S
C859 H849 0.929 . S
C859 C857 1.433 . S
C859 N862 1.384 . S
C860 H851 0.929 . S
C860 C852 1.378 . S
C860 C855 1.350 . S
C861 H848 0.929 . S
C861 C853 1.433 . S
C861 N863 1.384 . S
N862 C858 1.427 . S
N862 C859 1.384 . S
N863 C855 1.427 . S
N863 C861 1.384 . S
C439 C4 1.523 . S
C443 C364 1.522 . S
C457 C40 1.519 . S
C461 C400 1.520 . S
C475 C220 1.538 . S
C479 C76 1.539 . S
C493 C112 1.524 . S
C497 C256 1.522 . S
C511 C292 1.525 . S
C515 C148 1.527 . S
C529 C328 1.519 . S
C533 C184 1.518 . S
C547 C218 0.477 . S
C551 C2 0.472 . S
C565 C254 0.468 . S
C569 C38 0.479 . S
C583 C290 0.439 . S
C587 C74 0.471 . S
C601 C110 0.462 . S
C605 C326 0.481 . S
C619 C146 0.480 . S
C623 C362 0.451 . S
C637 C182 0.438 . S
C641 C398 0.468 . S
C655 C14 1.226 . S
C659 C122 1.231 . S
C673 C50 1.235 . S
C677 C158 1.219 . S
C691 C86 1.213 . S
C695 C194 1.231 . S
C709 C338 1.215 . S
C713 C230 1.234 . S
C727 C374 1.215 . S
C731 C266 1.234 . S
C745 C410 1.212 . S
C749 C302 1.230 . S
C763 C3 1.542 . S
C767 C291 1.533 . S
C781 C327 1.533 . S
C785 C39 1.543 . S
C799 C75 1.542 . S
C803 C363 1.533 . S
C817 C399 1.536 . S
C821 C111 1.538 . S
C835 C147 1.543 . S
C839 C219 1.534 . S
C853 C183 1.542 . S
C857 C255 1.536 . S
