# Generated by pormake.
# Topology loh, (5)-cn, num edge types: 1
# Building blocks:
#     Node 0, Type 0, BuildingBlock: XOMCOT_clean_sbu_0, # of connection points: 5
#     Node 1, Type 0, BuildingBlock: XOMCOT_clean_sbu_0, # of connection points: 5
#     Node 2, Type 0, BuildingBlock: XOMCOT_clean_sbu_0, # of connection points: 5
#     Node 3, Type 0, BuildingBlock: XOMCOT_clean_sbu_0, # of connection points: 5
#     Node 4, Type 0, BuildingBlock: XOMCOT_clean_sbu_0, # of connection points: 5
#     Node 5, Type 0, BuildingBlock: XOMCOT_clean_sbu_0, # of connection points: 5
#     Node 6, Type 0, BuildingBlock: XOMCOT_clean_sbu_0, # of connection points: 5
#     Node 7, Type 0, BuildingBlock: XOMCOT_clean_sbu_0, # of connection points: 5
#     Edge 8, Type (0, 0), BuildingBlock: MIFKUJ_clean_linker_0, # of connection points: 2
#     Edge 9, Type (0, 0), BuildingBlock: MIFKUJ_clean_linker_0, # of connection points: 2
#     Edge 10, Type (0, 0), BuildingBlock: MIFKUJ_clean_linker_0, # of connection points: 2
#     Edge 11, Type (0, 0), BuildingBlock: MIFKUJ_clean_linker_0, # of connection points: 2
#     Edge 12, Type (0, 0), BuildingBlock: MIFKUJ_clean_linker_0, # of connection points: 2
#     Edge 13, Type (0, 0), BuildingBlock: MIFKUJ_clean_linker_0, # of connection points: 2
#     Edge 14, Type (0, 0), BuildingBlock: MIFKUJ_clean_linker_0, # of connection points: 2
#     Edge 15, Type (0, 0), BuildingBlock: MIFKUJ_clean_linker_0, # of connection points: 2
#     Edge 16, Type (0, 0), BuildingBlock: MIFKUJ_clean_linker_0, # of connection points: 2
#     Edge 17, Type (0, 0), BuildingBlock: MIFKUJ_clean_linker_0, # of connection points: 2
#     Edge 18, Type (0, 0), BuildingBlock: MIFKUJ_clean_linker_0, # of connection points: 2
#     Edge 19, Type (0, 0), BuildingBlock: MIFKUJ_clean_linker_0, # of connection points: 2
#     Edge 20, Type (0, 0), BuildingBlock: MIFKUJ_clean_linker_0, # of connection points: 2
#     Edge 21, Type (0, 0), BuildingBlock: MIFKUJ_clean_linker_0, # of connection points: 2
#     Edge 22, Type (0, 0), BuildingBlock: MIFKUJ_clean_linker_0, # of connection points: 2
#     Edge 23, Type (0, 0), BuildingBlock: MIFKUJ_clean_linker_0, # of connection points: 2
#     Edge 24, Type (0, 0), BuildingBlock: MIFKUJ_clean_linker_0, # of connection points: 2
#     Edge 25, Type (0, 0), BuildingBlock: MIFKUJ_clean_linker_0, # of connection points: 2
#     Edge 26, Type (0, 0), BuildingBlock: MIFKUJ_clean_linker_0, # of connection points: 2
#     Edge 27, Type (0, 0), BuildingBlock: MIFKUJ_clean_linker_0, # of connection points: 2
# Relax obj value: 0.180
# Max RMSD: 0.132
# Mean RMSD: 0.132
data_MOF--net-loh--node1-XOMCOT_clean_sbu_0--edge1-MIFKUJ_clean_linker_0
_symmetry_space_group_name_H-M    P1
_symmetry_Int_Tables_number       1
_symmetry_cell_setting            triclinic
loop_
_symmetry_equiv_pos_as_xyz
'x, y, z'
_cell_length_a     34.672455
_cell_length_b     30.755494
_cell_length_c     52.724108
_cell_angle_alpha  89.945244
_cell_angle_beta   90.372045
_cell_angle_gamma 91.02442
loop_
_atom_site_label
_atom_site_type_symbol
_atom_site_fract_x
_atom_site_fract_y
_atom_site_fract_z
_atom_type_partial_charge
Co0 Co 0.04526 0.27366 0.15577 0.0
C1 C 0.04405 0.18807 0.18305 0.0
C2 C 0.06421 0.18319 0.14478 0.0
C3 C 0.06327 0.14229 0.15525 0.0
N4 N 0.05215 0.21205 0.16211 0.0
N5 N 0.05055 0.14525 0.17927 0.0
H6 H 1.03274 0.20127 0.20044 0.0
H7 H 0.07262 0.19095 0.12559 0.0
C8 C 0.08784 0.29389 0.10677 0.0
O9 O 0.05924 0.31859 0.09951 0.0
N10 N 0.03882 0.33512 0.14971 0.0
C11 C 1.00624 0.35778 0.14671 0.0
C12 C 1.01618 0.39959 0.13978 0.0
C13 C 0.06789 0.36402 0.1462 0.0
N14 N 0.05504 0.40323 0.13886 0.0
C15 C 0.96482 0.26118 0.14429 0.0
C16 C 0.97084 0.24337 0.09323 0.0
C17 C 0.93396 0.2503 0.10326 0.0
C18 C 0.9314 0.25721 0.12948 0.0
C19 C 1.00366 0.24672 0.10895 0.0
N20 N 1.00068 0.25899 0.13379 0.0
H21 H 0.96146 0.26809 0.16417 0.0
H22 H 1.03118 0.23981 0.10075 0.0
H23 H 0.97725 0.34483 0.14811 0.0
H24 H 0.09794 0.3552 0.14689 0.0
O25 O 1.01853 0.28112 0.18762 0.0
O26 O 0.0814 0.28926 0.18266 0.0
O27 O 0.085 0.27146 0.12726 0.0
C28 C 0.05158 0.29327 0.19728 0.0
H29 H 0.07149 0.1126 0.14587 0.0
H30 H 0.99614 0.42405 0.13357 0.0
H31 H 0.97471 0.23659 0.07329 0.0
H32 H 0.90375 0.26034 0.13866 0.0
Co33 Co 0.55134 0.77622 0.64805 0.0
C34 C 0.55251 0.85222 0.68389 0.0
C35 C 0.53422 0.8692 0.64624 0.0
C36 C 0.53615 0.90644 0.66055 0.0
N37 N 0.54473 0.83506 0.66067 0.0
N38 N 0.54753 0.89576 0.68413 0.0
H39 H 0.56263 0.83379 0.70002 0.0
H40 H 0.52632 0.86769 0.62642 0.0
C41 C 0.51325 0.77535 0.59606 0.0
O42 O 0.54332 0.75562 0.5867 0.0
N43 N 0.55745 0.71739 0.63546 0.0
C44 C 0.59019 0.69476 0.63322 0.0
C45 C 0.58258 0.65855 0.61866 0.0
C46 C 0.52988 0.69264 0.62405 0.0
N47 N 0.54484 0.65801 0.61228 0.0
C48 C 0.63283 0.78755 0.63967 0.0
C49 C 0.62898 0.82526 0.59226 0.0
C50 C 0.6648 0.81128 0.60127 0.0
C51 C 0.6667 0.7941 0.62582 0.0
C52 C 0.59588 0.81895 0.60706 0.0
N53 N 0.59747 0.79659 0.62949 0.0
H54 H 0.63518 0.77278 0.65815 0.0
H55 H 0.56912 0.83133 0.59991 0.0
H56 H 0.61817 0.70447 0.64041 0.0
H57 H 0.50021 0.70241 0.6219 0.0
O58 O 0.57579 0.75833 0.67948 0.0
O59 O 0.51324 0.75319 0.6715 0.0
O60 O 0.51373 0.78863 0.61911 0.0
C61 C 0.54188 0.74458 0.68666 0.0
H62 H 0.52976 0.93901 0.65415 0.0
H63 H 0.60378 0.63614 0.61171 0.0
H64 H 0.62653 0.84061 0.57383 0.0
H65 H 0.69391 0.78379 0.63382 0.0
Co66 Co 0.04444 0.75018 0.8952 0.0
C67 C 0.03842 0.83505 0.86856 0.0
C68 C 0.0918 0.82969 0.88913 0.0
C69 C 0.09124 0.86966 0.87739 0.0
N70 N 0.05861 0.80811 0.88377 0.0
N71 N 0.05774 0.87306 0.86443 0.0
H72 H 1.01021 0.82707 0.86078 0.0
H73 H 0.11519 0.81715 0.90045 0.0
C74 C 0.08195 0.74081 0.94765 0.0
O75 O 0.05075 0.72115 0.95634 0.0
N76 N 1.03039 0.6918 0.90591 0.0
C77 C 0.99524 0.67228 0.90556 0.0
C78 C 0.99794 0.63217 0.91683 0.0
C79 C 0.05434 0.66193 0.91557 0.0
N80 N 1.03505 0.62607 0.92344 0.0
C81 C 0.96461 0.76978 0.90298 0.0
C82 C 0.97128 0.79879 0.95232 0.0
C83 C 0.93422 0.78822 0.94286 0.0
C84 C 0.9313 0.77616 0.91723 0.0
C85 C 1.00389 0.79272 0.93713 0.0
N86 N 1.00046 0.77406 0.91368 0.0
H87 H 0.96127 0.75857 0.8837 0.0
H88 H 1.03174 0.80187 0.94474 0.0
H89 H 0.96904 0.68618 0.89839 0.0
H90 H 0.08478 0.66793 0.919 0.0
O91 O 1.01972 0.73741 0.86277 0.0
O92 O 0.08079 0.72503 0.87199 0.0
O93 O 0.08217 0.75665 0.9251 0.0
C94 C 0.05237 0.7209 0.85593 0.0
H95 H 0.11424 0.89391 0.87781 0.0
H96 H 0.97408 0.61045 0.92146 0.0
H97 H 0.9755 0.80995 0.97161 0.0
H98 H 0.9035 0.77033 0.90829 0.0
Co99 Co 0.53706 0.24937 0.39711 0.0
C100 C 0.53828 0.16798 0.36589 0.0
C101 C 0.50009 0.16249 0.39764 0.0
C102 C 0.49874 0.12402 0.3845 0.0
N103 N 0.52467 0.19038 0.38599 0.0
N104 N 0.52254 0.12733 0.36444 0.0
H105 H 0.55882 0.18119 0.35245 0.0
H106 H 0.48416 0.16899 0.41469 0.0
C107 C 0.49781 0.25977 0.44819 0.0
O108 O 0.52849 0.28049 0.4571 0.0
N109 N 0.54877 0.30827 0.40795 0.0
C110 C 0.58322 0.32892 0.41023 0.0
C111 C 0.57731 0.37032 0.419 0.0
C112 C 0.52241 0.33805 0.41418 0.0
N113 N 0.53903 0.3759 0.42172 0.0
C114 C 0.61681 0.23191 0.40709 0.0
C115 C 0.60884 0.19945 0.45561 0.0
C116 C 0.64611 0.20925 0.44672 0.0
C117 C 0.64974 0.22395 0.42167 0.0
C118 C 0.57653 0.2074 0.44015 0.0
N119 N 0.58065 0.22696 0.41699 0.0
H120 H 0.62073 0.24475 0.38823 0.0
H121 H 0.54842 0.19833 0.44718 0.0
H122 H 0.61091 0.31543 0.4061 0.0
H123 H 0.49166 0.33146 0.41389 0.0
O124 O 0.56323 0.2625 0.36541 0.0
O125 O 0.50145 0.2732 0.37247 0.0
O126 O 0.49827 0.24315 0.4259 0.0
C127 C 0.53075 0.27822 0.35741 0.0
H128 H 0.48182 0.09548 0.38964 0.0
H129 H 0.59975 0.3937 0.42402 0.0
H130 H 0.60464 0.18606 0.47442 0.0
H131 H 0.67781 0.23139 0.4137 0.0
Co132 Co 0.54707 0.75215 0.14685 0.0
C133 C 0.54703 0.66959 0.17729 0.0
C134 C 0.57194 0.66196 0.14044 0.0
C135 C 0.57348 0.62282 0.15297 0.0
N136 N 0.55566 0.69157 0.15566 0.0
N137 N 0.55793 0.6275 0.17616 0.0
H138 H 0.53357 0.68402 0.19362 0.0
H139 H 0.58184 0.66795 0.12136 0.0
C140 C 0.58766 0.76811 0.09651 0.0
O141 O 0.55786 0.79024 0.08852 0.0
N142 N 0.53904 0.81258 0.13843 0.0
C143 C 0.50601 0.83434 0.13497 0.0
C144 C 0.51508 0.87544 0.12628 0.0
C145 C 0.56752 0.84149 0.13335 0.0
N146 N 0.55381 0.87952 0.12476 0.0
C147 C 0.46647 0.73819 0.13646 0.0
C148 C 0.47205 0.71287 0.08646 0.0
C149 C 0.43539 0.72183 0.09618 0.0
C150 C 0.43294 0.73299 0.12186 0.0
C151 C 0.50501 0.71798 0.10193 0.0
N152 N 0.50224 0.73388 0.12607 0.0
H153 H 0.46337 0.74849 0.15585 0.0
H154 H 0.53253 0.70961 0.09416 0.0
H155 H 0.47724 0.82134 0.13741 0.0
H156 H 0.59776 0.83343 0.13404 0.0
O157 O 0.52123 0.76253 0.17878 0.0
O158 O 0.58372 0.77179 0.17255 0.0
O159 O 0.58611 0.74807 0.11791 0.0
C160 C 0.55439 0.77643 0.1875 0.0
H161 H 0.58468 0.59294 0.14536 0.0
H162 H 0.49458 0.89901 0.11954 0.0
H163 H 0.47527 0.70218 0.06704 0.0
H164 H 0.4054 0.73973 0.13045 0.0
Co165 Co 1.03666 0.24535 0.64799 0.0
C166 C 0.04131 0.32898 0.67732 0.0
C167 C 1.01475 0.33642 0.64074 0.0
C168 C 1.01416 0.37573 0.65302 0.0
N169 N 1.0315 0.3068 0.65593 0.0
N170 N 1.03069 0.37114 0.67603 0.0
H171 H 0.0549 0.31455 0.69374 0.0
H172 H 1.00328 0.33024 0.62198 0.0
C173 C 0.9968 0.23189 0.59733 0.0
O174 O 1.02632 0.20887 0.59003 0.0
N175 N 0.04037 0.18393 0.64036 0.0
C176 C 0.07135 0.15849 0.63789 0.0
C177 C 0.05893 0.11803 0.62985 0.0
C178 C 1.00966 0.15783 0.6353 0.0
N179 N 1.02005 0.11787 0.62776 0.0
C180 C 0.11743 0.25069 0.63624 0.0
C181 C 0.11153 0.28577 0.58822 0.0
C182 C 0.14794 0.27276 0.59689 0.0
C183 C 0.15063 0.25622 0.62159 0.0
C184 C 0.07896 0.28012 0.60371 0.0
N185 N 0.08168 0.25989 0.62678 0.0
H186 H 0.12065 0.23723 0.655 0.0
H187 H 0.05171 0.29178 0.59684 0.0
H188 H 0.10101 0.16836 0.64069 0.0
H189 H 0.98031 0.16913 0.63553 0.0
O190 O 0.06306 0.23455 0.6798 0.0
O191 O 0.99996 0.22941 0.67423 0.0
O192 O 0.99775 0.25102 0.61896 0.0
C193 C 1.02961 0.22342 0.68901 0.0
H194 H 1.0025 0.40556 0.64552 0.0
H195 H 0.07751 0.09197 0.6241 0.0
H196 H 0.10822 0.30039 0.56965 0.0
H197 H 0.17805 0.24617 0.62937 0.0
Co198 Co 0.54136 0.27526 0.90237 0.0
C199 C 0.53933 0.35309 0.86764 0.0
C200 C 0.56416 0.36738 0.90414 0.0
C201 C 0.56569 0.40447 0.88974 0.0
N202 N 0.54794 0.33484 0.89039 0.0
N203 N 0.55027 0.39563 0.86677 0.0
H204 H 0.52626 0.33564 0.85188 0.0
H205 H 0.57452 0.36473 0.92342 0.0
C206 C 0.58524 0.27334 0.95236 0.0
O207 O 0.55625 0.25262 0.96317 0.0
N208 N 0.53579 0.21588 0.91436 0.0
C209 C 0.50358 0.19122 0.91717 0.0
C210 C 0.51361 0.15193 0.92754 0.0
C211 C 0.565 0.19038 0.92181 0.0
N212 N 0.55227 0.15167 0.93077 0.0
C213 C 0.46156 0.28391 0.91511 0.0
C214 C 0.47089 0.322 0.96214 0.0
C215 C 0.43388 0.30775 0.95463 0.0
C216 C 0.42933 0.2901 0.93034 0.0
C217 C 0.5024 0.31604 0.94595 0.0
N218 N 0.49804 0.2938 0.92359 0.0
H219 H 0.45691 0.26908 0.89683 0.0
H220 H 0.53013 0.32882 0.95182 0.0
H221 H 0.47465 0.20073 0.91249 0.0
H222 H 0.59497 0.20069 0.92145 0.0
O223 O 0.51261 0.25852 0.8722 0.0
O224 O 0.57585 0.25418 0.8764 0.0
O225 O 0.58273 0.28631 0.92932 0.0
C226 C 0.54509 0.24564 0.86291 0.0
H227 H 0.57716 0.43579 0.89577 0.0
H228 H 0.49363 0.12653 0.93347 0.0
H229 H 0.47543 0.3376 0.98035 0.0
H230 H 0.40121 0.27942 0.92348 0.0
Co231 Co 0.04962 0.77367 0.39953 0.0
C232 C 0.04736 0.68931 0.37127 0.0
C233 C 1.02461 0.68317 0.40889 0.0
C234 C 1.02479 0.6426 0.39794 0.0
N235 N 0.03894 0.7126 0.39228 0.0
N236 N 0.03904 0.64648 0.37433 0.0
H237 H 0.06044 0.7029 0.35439 0.0
H238 H 1.01538 0.69023 0.42794 0.0
C239 C 1.01046 0.79257 0.4497 0.0
O240 O 0.04122 0.81491 0.45704 0.0
N241 N 0.06025 0.83468 0.40622 0.0
C242 C 0.09447 0.85621 0.40661 0.0
C243 C 0.08861 0.89801 0.41473 0.0
C244 C 1.03393 0.86459 0.4122 0.0
N245 N 0.05056 0.90291 0.4187 0.0
C246 C 0.12969 0.75991 0.41093 0.0
C247 C 0.12151 0.73525 0.46098 0.0
C248 C 0.15872 0.74338 0.45165 0.0
C249 C 0.16256 0.75415 0.42597 0.0
C250 C 0.08935 0.74067 0.44509 0.0
N251 N 0.09348 0.75636 0.42094 0.0
H252 H 0.13369 0.7694 0.39143 0.0
H253 H 0.06137 0.73263 0.45261 0.0
H254 H 0.1221 0.8426 0.40239 0.0
H255 H 1.00352 0.85707 0.41449 0.0
O256 O 0.07593 0.78156 0.36745 0.0
O257 O 1.01368 0.79149 0.37344 0.0
O258 O 1.01067 0.77175 0.42857 0.0
C259 C 0.04317 0.79485 0.3584 0.0
H260 H 1.01524 0.61245 0.40669 0.0
H261 H 0.1109 0.92181 0.41943 0.0
H262 H 0.11727 0.72492 0.48043 0.0
H263 H 0.19074 0.75999 0.41776 0.0
H264 H 0.42928 0.2801 1.00389 0.0
H265 H 0.37191 0.27711 0.03102 0.0
H266 H 0.30501 0.3363 0.97151 0.0
H267 H 0.36204 0.33887 0.94427 0.0
H268 H 0.29417 0.37299 1.02037 0.0
H269 H 0.29506 0.23216 0.9801 0.0
H270 H 0.3238 0.16223 0.96852 0.0
H271 H 0.33596 0.12941 0.04731 0.0
H272 H 0.3078 0.1995 0.05938 0.0
H273 H 0.10361 0.33934 0.06324 0.0
H274 H 0.16374 0.34298 0.03962 0.0
H275 H 0.21585 0.25533 0.09324 0.0
H276 H 0.15516 0.25066 0.11668 0.0
H277 H 0.237 0.23252 0.049 0.0
H278 H 0.24297 0.37084 0.09074 0.0
H279 H 0.22677 0.4448 0.10485 0.0
H280 H 0.20819 0.48329 0.02749 0.0
H281 H 0.22456 0.40992 1.01297 0.0
C282 C 0.40243 0.29293 0.99674 0.0
C283 C 0.40018 0.30979 0.97196 0.0
C284 C 0.36961 0.29084 1.01216 0.0
C285 C 0.33404 0.30609 1.00321 0.0
C286 C 0.33206 0.32416 0.97877 0.0
C287 C 0.36466 0.3256 0.96323 0.0
C288 C 0.29884 0.3035 1.01925 0.0
C289 C 0.28132 0.34227 0.02638 0.0
C290 C 0.28294 0.26348 0.02789 0.0
C291 C 0.29972 0.22129 1.02064 0.0
C292 C 0.30419 0.21022 0.99497 0.0
C293 C 0.32031 0.17051 0.98831 0.0
C294 C 0.33181 0.14145 1.00717 0.0
C295 C 0.3271 0.15199 0.03273 0.0
C296 C 0.31104 0.19168 0.03948 0.0
C297 C 0.12773 0.32057 0.07 0.0
C298 C 0.12429 0.29447 0.09187 0.0
C299 C 0.16244 0.32314 0.05659 0.0
C300 C 0.1949 0.30006 0.06477 0.0
C301 C 0.19143 0.27361 0.08647 0.0
C302 C 0.1566 0.2709 0.09988 0.0
C303 C 0.23181 0.30229 0.05013 0.0
C304 C 0.24971 0.26338 0.04315 0.0
C305 C 0.24859 0.34228 0.04199 0.0
C306 C 0.23474 0.38489 0.0508 0.0
C307 C 0.23494 0.395 0.07679 0.0
C308 C 0.22617 0.43696 0.08484 0.0
C309 C 0.21687 0.46891 0.06705 0.0
C310 C 0.21568 0.45876 0.04125 0.0
C311 C 0.22479 0.41703 0.03309 0.0
H312 H 0.21031 0.5014 0.07329 0.0
H313 H 0.34427 0.11072 1.00198 0.0
H314 H 0.44795 0.82249 0.60478 0.0
H315 H 0.38596 0.81697 0.58197 0.0
H316 H 0.43239 0.71886 0.53342 0.0
H317 H 0.49461 0.72519 0.55505 0.0
H318 H 0.39301 0.78593 0.50675 0.0
H319 H 0.37627 0.68706 0.5768 0.0
H320 H 0.37579 0.66675 0.62204 0.0
H321 H 0.28788 0.76016 0.63617 0.0
H322 H 0.28831 0.78155 0.59104 0.0
H323 H 0.22825 0.70534 0.44291 0.0
H324 H 0.28673 0.71 0.46903 0.0
H325 H 0.22633 0.78588 0.52439 0.0
H326 H 0.1674 0.78007 0.49863 0.0
H327 H 0.27274 0.73381 0.54826 0.0
H328 H 0.2886 0.83334 0.47898 0.0
H329 H 0.2898 0.85642 0.43418 0.0
H330 H 0.37964 0.76587 0.41904 0.0
H331 H 0.37854 0.74177 0.46367 0.0
C332 C 0.44514 0.80031 0.5889 0.0
C333 C 0.47652 0.77495 0.58144 0.0
C334 C 0.40967 0.79702 0.576 0.0
C335 C 0.40488 0.76797 0.55562 0.0
C336 C 0.43601 0.7425 0.54838 0.0
C337 C 0.4715 0.74611 0.56094 0.0
C338 C 0.36757 0.76373 0.54165 0.0
C339 C 0.36676 0.77418 0.51576 0.0
C340 C 0.33318 0.74934 0.55354 0.0
C341 C 0.33264 0.73627 0.58061 0.0
C342 C 0.35709 0.70356 0.5896 0.0
C343 C 0.35678 0.6918 0.61521 0.0
C344 C 0.3319 0.71224 0.63199 0.0
C345 C 0.30719 0.74441 0.62316 0.0
C346 C 0.30744 0.75635 0.59757 0.0
C347 C 0.22739 0.72276 0.46073 0.0
C348 C 0.19326 0.74257 0.46861 0.0
C349 C 0.2609 0.72561 0.47563 0.0
C350 C 0.26139 0.74924 0.49848 0.0
C351 C 0.22689 0.76762 0.50684 0.0
C352 C 0.19316 0.76422 0.49211 0.0
C353 C 0.29806 0.75583 0.51317 0.0
C354 C 0.29884 0.74582 0.53921 0.0
C355 C 0.33248 0.77104 0.50147 0.0
C356 C 0.3333 0.78555 0.47463 0.0
C357 C 0.30844 0.81817 0.46606 0.0
C358 C 0.30911 0.83144 0.44069 0.0
C359 C 0.33473 0.81257 0.42376 0.0
C360 C 0.35979 0.78044 0.43217 0.0
C361 C 0.35919 0.767 0.45751 0.0
H362 H 0.33521 0.8229 0.40413 0.0
H363 H 0.33169 0.70309 0.65181 0.0
H364 H 0.42708 0.75316 0.04766 0.0
H365 H 0.36782 0.75721 1.02221 0.0
H366 H 0.30403 0.69454 0.08236 0.0
H367 H 0.36316 0.68965 0.10764 0.0
H368 H 0.2838 0.66132 0.03726 0.0
H369 H 0.29931 0.80454 0.07224 0.0
H370 H 0.33361 0.87382 0.08116 0.0
H371 H 0.3416 0.89991 1.00132 0.0
H372 H 0.30781 0.83044 0.99191 0.0
H373 H 0.09355 0.70399 0.99449 0.0
H374 H 0.15348 0.70043 1.01892 0.0
H375 H 0.21293 0.77274 0.96044 0.0
H376 H 0.15283 0.77709 0.93608 0.0
H377 H 0.23643 0.80175 1.00426 0.0
H378 H 0.22226 0.65893 0.96897 0.0
H379 H 0.19614 0.58566 0.95935 0.0
H380 H 0.18939 0.55718 0.03895 0.0
H381 H 0.21469 0.63038 0.04906 0.0
C382 C 0.40054 0.7397 0.05534 0.0
C383 C 0.39998 0.72117 0.07978 0.0
C384 C 0.36654 0.74253 0.04087 0.0
C385 C 0.33118 0.72683 0.05047 0.0
C386 C 0.33079 0.7072 0.07455 0.0
C387 C 0.36467 0.70457 0.08905 0.0
C388 C 0.29461 0.73023 0.03543 0.0
C389 C 0.27311 0.69214 0.03038 0.0
C390 C 0.28116 0.77024 0.02575 0.0
C391 C 0.30138 0.81206 0.03136 0.0
C392 C 0.30866 0.82487 0.05657 0.0
C393 C 0.32796 0.86421 0.06172 0.0
C394 C 0.33987 0.89119 0.04182 0.0
C395 C 0.33241 0.87894 1.01672 0.0
C396 C 0.31316 0.8396 1.01147 0.0
C397 C 0.11925 0.71949 0.98685 0.0
C398 C 0.11811 0.74101 0.96325 0.0
C399 C 0.15376 0.71703 1.00079 0.0
C400 C 0.18819 0.73573 0.99147 0.0
C401 C 0.18694 0.75793 0.96814 0.0
C402 C 0.15243 0.76043 0.95418 0.0
C403 C 0.22528 0.73266 1.00613 0.0
C404 C 0.24694 0.77087 1.01115 0.0
C405 C 0.23899 0.69267 1.01577 0.0
C406 C 0.22011 0.65029 1.00976 0.0
C407 C 0.21452 0.63731 0.98442 0.0
C408 C 0.20003 0.59567 0.97888 0.0
C409 C 0.19126 0.56669 0.99852 0.0
C410 C 0.1963 0.57953 1.02374 0.0
C411 C 0.21059 0.62113 0.02939 0.0
H412 H 0.18062 0.53424 0.99421 0.0
H413 H 0.3548 0.92164 0.04584 0.0
H414 H 0.48737 0.28859 0.49676 0.0
H415 H 0.42738 0.29024 0.52087 0.0
H416 H 0.36611 0.23032 0.45836 0.0
H417 H 0.42603 0.22859 0.43399 0.0
H418 H 0.32636 0.29835 0.47747 0.0
H419 H 0.38743 0.172 0.51194 0.0
H420 H 0.44095 0.13143 0.53117 0.0
H421 H 0.44176 0.21737 0.59532 0.0
H422 H 0.38854 0.25879 0.57631 0.0
H423 H 0.15376 0.25096 0.54658 0.0
H424 H 0.21199 0.24892 0.52066 0.0
H425 H 0.27954 0.29784 0.58379 0.0
H426 H 0.22153 0.29928 0.60985 0.0
H427 H 0.31587 0.23404 0.5635 0.0
H428 H 0.25641 0.36121 0.52983 0.0
H429 H 0.20434 0.40435 0.51087 0.0
H430 H 0.20172 0.3206 0.44574 0.0
H431 H 0.25346 0.27658 0.46448 0.0
C432 C 0.46124 0.27544 0.48815 0.0
C433 C 0.46172 0.25823 0.46343 0.0
C434 C 0.42692 0.27642 0.50201 0.0
C435 C 0.39217 0.26021 0.49157 0.0
C436 C 0.39249 0.24302 0.46688 0.0
C437 C 0.42689 0.24182 0.45302 0.0
C438 C 0.35556 0.26175 0.50637 0.0
C439 C 0.32385 0.28369 0.49612 0.0
C440 C 0.35247 0.24376 0.53104 0.0
C441 C 0.38419 0.21865 0.54262 0.0
C442 C 0.39918 0.18239 0.53008 0.0
C443 C 0.42943 0.15923 0.54095 0.0
C444 C 0.44479 0.17186 0.56443 0.0
C445 C 0.42985 0.20763 0.57713 0.0
C446 C 0.3996 0.23092 0.56633 0.0
C447 C 0.18091 0.26194 0.55483 0.0
C448 C 0.18285 0.27526 0.58035 0.0
C449 C 0.21431 0.26075 0.53996 0.0
C450 C 0.25042 0.27352 0.55009 0.0
C451 C 0.25223 0.28757 0.57545 0.0
C452 C 0.21895 0.28841 0.59037 0.0
C453 C 0.28649 0.27086 0.53468 0.0
C454 C 0.3182 0.24867 0.54483 0.0
C455 C 0.28964 0.28895 0.51 0.0
C456 C 0.25853 0.31533 0.49869 0.0
C457 C 0.24452 0.35178 0.51156 0.0
C458 C 0.2151 0.37643 0.50083 0.0
C459 C 0.19965 0.36515 0.47715 0.0
C460 C 0.21367 0.32925 0.46411 0.0
C461 C 0.24306 0.30447 0.47476 0.0
H462 H 0.17688 0.38428 0.46887 0.0
H463 H 0.46822 0.1539 0.57281 0.0
H464 H 0.65717 0.73018 0.1076 0.0
H465 H 0.71779 0.73718 0.08428 0.0
H466 H 0.66205 0.81799 0.02862 0.0
H467 H 0.60174 0.81173 0.05202 0.0
H468 H 0.73952 0.7118 0.04137 0.0
H469 H 0.72279 0.88559 0.99938 0.0
H470 H 0.70708 0.96059 1.01155 0.0
H471 H 0.72518 0.92892 0.09001 0.0
H472 H 0.74096 0.85363 0.07829 0.0
H473 H 0.86987 0.73457 0.93985 0.0
H474 H 0.81331 0.73309 0.96678 0.0
H475 H 0.86291 0.83636 1.0124 0.0
H476 H 0.91849 0.84049 0.98429 0.0
H477 H 0.79211 0.85115 1.00784 0.0
H478 H 0.85959 0.72402 0.03127 0.0
H479 H 0.89278 0.65465 0.02495 0.0
H480 H 0.78869 0.59726 0.99441 0.0
H481 H 0.755 0.66649 1.00022 0.0
C482 C 0.65775 0.74936 0.09036 0.0
C483 C 0.62429 0.77007 0.08169 0.0
C484 C 0.69258 0.75348 0.07702 0.0
C485 C 0.69501 0.7786 0.0547 0.0
C486 C 0.66153 0.79916 0.04598 0.0
C487 C 0.62673 0.79502 0.05928 0.0
C488 C 0.73176 0.78114 0.03981 0.0
C489 C 0.75093 0.7424 0.03413 0.0
C490 C 0.74757 0.82092 0.03052 0.0
C491 C 0.73268 0.8639 0.03797 0.0
C492 C 0.7229 0.89449 1.01925 0.0
C493 C 0.71422 0.93709 0.02605 0.0
C494 C 0.71543 0.94958 0.05151 0.0
C495 C 0.72449 0.91922 0.07028 0.0
C496 C 0.73292 0.87645 0.06359 0.0
C497 C 0.86869 0.75773 0.95525 0.0
C498 C 0.8992 0.78787 0.95957 0.0
C499 C 0.83636 0.7562 0.97104 0.0
C500 C 0.83383 0.78396 0.99209 0.0
C501 C 0.86402 0.81432 0.99642 0.0
C502 C 0.89617 0.81634 0.98037 0.0
C503 C 0.79945 0.78192 1.00922 0.0
C504 C 0.78061 0.8206 1.01512 0.0
C505 C 0.78477 0.74232 1.01945 0.0
C506 C 0.80487 0.70057 1.01597 0.0
C507 C 0.84385 0.69669 1.02304 0.0
C508 C 0.86275 0.65739 1.01957 0.0
C509 C 0.84288 0.6216 1.00923 0.0
C510 C 0.80405 0.62502 1.00239 0.0
C511 C 0.78503 0.66428 1.00579 0.0
H512 H 0.85756 0.5912 1.00656 0.0
H513 H 0.70909 0.98271 0.05667 0.0
H514 H 0.92638 0.2665 0.60865 0.0
H515 H 0.86663 0.26133 0.58366 0.0
H516 H 0.9261 0.19121 0.52541 0.0
H517 H 0.98582 0.19616 0.5502 0.0
H518 H 0.8789 0.25427 0.50546 0.0
H519 H 0.86876 0.13661 0.56482 0.0
H520 H 0.86993 0.10313 0.60738 0.0
H521 H 0.77602 0.183 0.63031 0.0
H522 H 0.77473 0.21734 0.58797 0.0
H523 H 0.71756 0.17782 0.43505 0.0
H524 H 0.77619 0.1805 0.46105 0.0
H525 H 0.71277 0.2379 0.52224 0.0
H526 H 0.65384 0.23473 0.49639 0.0
H527 H 0.76213 0.18207 0.5411 0.0
H528 H 0.77157 0.29967 0.48163 0.0
H529 H 0.77146 0.33444 0.43946 0.0
H530 H 0.86707 0.25677 0.41699 0.0
H531 H 0.8674 0.22106 0.45892 0.0
C532 C 0.92687 0.25031 0.59042 0.0
C533 C 0.96107 0.23191 0.58146 0.0
C534 C 0.89259 0.24714 0.57621 0.0
C535 C 0.89171 0.2256 0.55269 0.0
C536 C 0.92599 0.20806 0.54345 0.0
C537 C 0.96018 0.21095 0.5577 0.0
C538 C 0.85506 0.22095 0.53781 0.0
C539 C 0.85351 0.23801 0.51314 0.0
C540 C 0.82158 0.20063 0.54797 0.0
C541 C 0.82196 0.17982 0.57335 0.0
C542 C 0.84861 0.14724 0.57903 0.0
C543 C 0.84926 0.12808 0.60308 0.0
C544 C 0.82315 0.14104 0.62156 0.0
C545 C 0.79627 0.17306 0.61598 0.0
C546 C 0.79555 0.19234 0.59196 0.0
C547 C 0.71602 0.19088 0.45408 0.0
C548 C 0.68094 0.20636 0.46352 0.0
C549 C 0.74966 0.19253 0.46894 0.0
C550 C 0.74932 0.21033 0.49351 0.0
C551 C 0.714 0.22417 0.50336 0.0
C552 C 0.68021 0.22219 0.48856 0.0
C553 C 0.78584 0.21539 0.50862 0.0
C554 C 0.78742 0.19842 0.53338 0.0
C555 C 0.81936 0.236 0.49856 0.0
C556 C 0.81925 0.2574 0.47333 0.0
C557 C 0.79238 0.28977 0.46763 0.0
C558 C 0.7923 0.30968 0.44378 0.0
C559 C 0.81918 0.29774 0.42554 0.0
C560 C 0.84623 0.26593 0.43113 0.0
C561 C 0.84639 0.24586 0.45493 0.0
H562 H 0.81909 0.31321 0.40709 0.0
H563 H 0.82369 0.12619 0.64017 0.0
H564 H 0.91754 0.20462 0.05896 0.0
H565 H 0.85998 0.20924 0.032 0.0
H566 H 0.8116 0.30225 0.08329 0.0
H567 H 0.86944 0.29986 0.10957 0.0
H568 H 0.75931 0.23306 0.06841 0.0
H569 H 0.84746 0.33927 0.03166 0.0
H570 H 0.90903 0.36321 1.01257 0.0
H571 H 0.89226 0.27148 0.95197 0.0
H572 H 0.83081 0.24656 0.97092 0.0
H573 H 0.59881 0.30569 0.9997 0.0
H574 H 0.65963 0.30525 1.02363 0.0
H575 H 0.71525 0.24358 0.9604 0.0
H576 H 0.65529 0.24791 0.93576 0.0
H577 H 0.76515 0.29267 0.98101 0.0
H578 H 0.67461 0.18915 1.01535 0.0
H579 H 0.61044 0.16979 0.03226 0.0
H580 H 0.63197 0.25047 0.09734 0.0
H581 H 0.69536 0.27247 0.08016 0.0
C582 C 0.89498 0.2265 0.06445 0.0
C583 C 0.8985 0.25163 0.08675 0.0
C584 C 0.86189 0.22883 0.04905 0.0
C585 C 0.8314 0.25599 0.05568 0.0
C586 C 0.83457 0.28073 0.07792 0.0
C587 C 0.86776 0.27898 0.09308 0.0
C588 C 0.7963 0.25935 0.03938 0.0
C589 C 0.76047 0.24629 0.04934 0.0
C590 C 0.79794 0.27564 1.0143 0.0
C591 C 0.83478 0.29071 1.00287 0.0
C592 C 0.85708 0.32393 1.01439 0.0
C593 C 0.89192 0.33773 1.00357 0.0
C594 C 0.90461 0.31878 0.98112 0.0
C595 C 0.88243 0.28607 0.96939 0.0
C596 C 0.84759 0.27211 0.98016 0.0
C597 C 0.6243 0.29281 0.99085 0.0
C598 C 0.6225 0.27679 0.96598 0.0
C599 C 0.65901 0.2921 1.00459 0.0
C600 C 0.69203 0.27295 0.99427 0.0
C601 C 0.69038 0.25829 0.969 0.0
C602 C 0.65607 0.26068 0.95491 0.0
C603 C 0.72767 0.26665 1.01001 0.0
C604 C 0.76374 0.27898 0.99996 0.0
C605 C 0.72629 0.24899 0.03492 0.0
C606 C 0.68964 0.23284 0.04631 0.0
C607 C 0.66571 0.20278 0.03328 0.0
C608 C 0.6294 0.19147 0.04285 0.0
C609 C 0.6172 0.20882 0.06585 0.0
C610 C 0.64143 0.2372 0.07947 0.0
C611 C 0.67748 0.2493 0.06976 0.0
H612 H 0.58891 0.20036 0.07307 0.0
H613 H 0.93158 0.32952 0.97276 0.0
H614 H 0.67146 0.78095 0.55292 0.0
H615 H 0.7299 0.77792 0.52698 0.0
H616 H 0.79521 0.84124 0.58666 0.0
H617 H 0.73698 0.84349 0.61292 0.0
H618 H 0.80502 0.87562 0.53412 0.0
H619 H 0.80773 0.7416 0.58234 0.0
H620 H 0.77968 0.67219 0.59756 0.0
H621 H 0.76743 0.62731 0.52078 0.0
H622 H 0.79487 0.69678 0.50508 0.0
H623 H 0.99692 0.84345 0.49129 0.0
H624 H 0.93752 0.84882 0.51569 0.0
H625 H 0.8826 0.75327 0.46701 0.0
H626 H 0.94219 0.74718 0.44272 0.0
H627 H 0.86536 0.73519 0.51348 0.0
H628 H 0.86511 0.86257 0.46389 0.0
H629 H 0.88028 0.9338 0.44476 0.0
H630 H 0.87745 0.99388 0.51815 0.0
H631 H 0.86374 0.92274 0.5379 0.0
C632 C 0.69821 0.79458 0.5604 0.0
C633 C 0.69964 0.81259 0.58491 0.0
C634 C 0.73159 0.79256 0.54564 0.0
C635 C 0.76692 0.80912 0.55496 0.0
C636 C 0.76825 0.82817 0.57915 0.0
C637 C 0.73503 0.82941 0.59412 0.0
C638 C 0.80251 0.80657 0.53945 0.0
C639 C 0.81891 0.84514 0.52994 0.0
C640 C 0.81916 0.76645 0.53309 0.0
C641 C 0.80298 0.72456 0.54253 0.0
C642 C 0.79873 0.71709 0.56869 0.0
C643 C 0.783 0.67771 0.57741 0.0
C644 C 0.77168 0.6454 0.56015 0.0
C645 C 0.77616 0.65238 0.53413 0.0
C646 C 0.79183 0.69174 0.52531 0.0
C647 C 0.97232 0.8233 0.48582 0.0
C648 C 0.97456 0.79457 0.46507 0.0
C649 C 0.93813 0.82681 0.49967 0.0
C650 C 0.90522 0.80187 0.49311 0.0
C651 C 0.90748 0.77294 0.47251 0.0
C652 C 0.94165 0.76946 0.45861 0.0
C653 C 0.86895 0.80472 0.50822 0.0
C654 C 0.85214 0.76604 0.51768 0.0
C655 C 0.85146 0.84492 0.51407 0.0
C656 C 0.86404 0.88692 0.5025 0.0
C657 C 0.86876 0.89066 0.4761 0.0
C658 C 0.87684 0.93116 0.4651 0.0
C659 C 0.87978 0.96835 0.48023 0.0
C660 C 0.87513 0.96505 0.50644 0.0
C661 C 0.86753 0.92458 0.51757 0.0
H662 H 0.88568 0.99974 0.47167 0.0
H663 H 0.75951 0.61493 0.56693 0.0
H664 H 0.99216 0.31531 0.22827 0.0
H665 H 0.99227 0.37339 0.25982 0.0
H666 H 0.11492 0.39195 0.25027 0.0
H667 H 0.11485 0.33442 0.21825 0.0
H668 H 1.02277 0.39273 0.3036 0.0
H669 H 0.13783 0.49826 0.25085 0.0
H670 H 0.16062 0.50987 0.20703 0.0
H671 H 0.05046 0.46682 0.17797 0.0
H672 H 1.02712 0.45497 0.22147 0.0
H673 H 0.06655 0.56715 0.38513 0.0
H674 H 0.0721 0.5055 0.35625 0.0
H675 H 1.02812 0.58389 0.29494 0.0
H676 H 1.02456 0.64638 0.32379 0.0
H677 H 0.07809 0.53493 0.27611 0.0
H678 H 0.97064 0.50619 0.32945 0.0
H679 H 0.93494 0.49771 0.3695 0.0
H680 H 1.00851 0.39324 0.39165 0.0
H681 H 0.045 0.4015 0.35185 0.0
C682 C 1.01936 0.331 0.2333 0.0
C683 C 0.05347 0.32029 0.2206 0.0
C684 C 1.01935 0.36438 0.25134 0.0
C685 C 0.05343 0.38784 0.25708 0.0
C686 C 0.08807 0.37503 0.24579 0.0
C687 C 0.08807 0.34172 0.22767 0.0
C688 C 0.05227 0.42711 0.27369 0.0
C689 C 1.03511 0.42373 0.29766 0.0
C690 C 0.06693 0.46814 0.26564 0.0
C691 C 0.08092 0.47529 0.23941 0.0
C692 C 0.11852 0.49128 0.23508 0.0
C693 C 0.13156 0.49781 0.21028 0.0
C694 C 0.10711 0.48879 0.18969 0.0
C695 C 0.06954 0.47338 0.19386 0.0
C696 C 0.05642 0.46667 0.21858 0.0
C697 C 0.05831 0.5712 0.36544 0.0
C698 C 0.04479 0.61136 0.35672 0.0
C699 C 0.06126 0.53587 0.34893 0.0
C700 C 0.04952 0.53937 0.32344 0.0
C701 C 1.03722 0.58005 0.31449 0.0
C702 C 1.03515 0.61579 0.33094 0.0
C703 C 0.04933 0.50043 0.3064 0.0
C704 C 0.06611 0.50388 0.28226 0.0
C705 C 1.03267 0.45991 0.31384 0.0
C706 C 1.01078 0.45476 0.33778 0.0
C707 C 0.97937 0.48161 0.34294 0.0
C708 C 0.95897 0.47682 0.36559 0.0
C709 C 0.96951 0.44503 0.38314 0.0
C710 C 1.00042 0.41789 0.37805 0.0
C711 C 1.02095 0.42259 0.35544 0.0
H712 H 0.95368 0.44136 0.40066 0.0
H713 H 0.11722 0.4939 0.17051 0.0
H714 H 0.47868 0.69428 0.69873 0.0
H715 H 0.4759 0.63352 0.72863 0.0
H716 H 0.59263 0.66305 0.75266 0.0
H717 H 0.59587 0.72311 0.72229 0.0
H718 H 0.58584 0.58023 0.74252 0.0
H719 H 0.51092 0.68062 0.79093 0.0
H720 H 0.45795 0.73138 0.79847 0.0
H721 H 0.37479 0.6294 0.78336 0.0
H722 H 0.4273 0.57814 0.7754 0.0
H723 H 0.60233 0.45815 0.85473 0.0
H724 H 0.59602 0.51483 0.82269 0.0
H725 H 0.48594 0.46008 0.79961 0.0
H726 H 0.49217 0.40287 0.83214 0.0
H727 H 0.48454 0.55066 0.80657 0.0
H728 H 0.56018 0.44912 0.76128 0.0
H729 H 0.61356 0.39857 0.75463 0.0
H730 H 0.6958 0.50334 0.76447 0.0
H731 H 0.64292 0.55444 0.77155 0.0
C732 C 0.50346 0.6885 0.7108 0.0
C733 C 0.53749 0.71367 0.70815 0.0
C734 C 0.50184 0.65362 0.72792 0.0
C735 C 0.53404 0.64351 0.74303 0.0
C736 C 0.56744 0.6699 0.74116 0.0
C737 C 0.56918 0.70452 0.72392 0.0
C738 C 0.53399 0.60401 0.75957 0.0
C739 C 0.56389 0.57417 0.75673 0.0
C740 C 0.50462 0.59492 0.77751 0.0
C741 C 0.47304 0.62568 0.7823 0.0
C742 C 0.48134 0.66911 0.78901 0.0
C743 C 0.4514 0.69795 0.7934 0.0
C744 C 0.41303 0.68365 0.79132 0.0
C745 C 0.40452 0.64044 0.78492 0.0
C746 C 0.43436 0.61148 0.78049 0.0
C747 C 0.57682 0.45801 0.84278 0.0
C748 C 0.54766 0.42615 0.84603 0.0
C749 C 0.57334 0.49033 0.82435 0.0
C750 C 0.54058 0.49172 0.80863 0.0
C751 C 0.5115 0.45962 0.81152 0.0
C752 C 0.51519 0.42679 0.82992 0.0
C753 C 0.53683 0.52768 0.78985 0.0
C754 C 0.50625 0.55671 0.79221 0.0
C755 C 0.56562 0.53617 0.77149 0.0
C756 C 0.59755 0.50557 0.76713 0.0
C757 C 0.58965 0.46134 0.76222 0.0
C758 C 0.61983 0.43259 0.75834 0.0
C759 C 0.65805 0.44772 0.75917 0.0
C760 C 0.66617 0.49166 0.76384 0.0
C761 C 0.63611 0.52055 0.76775 0.0
H762 H 0.68137 0.42541 0.75617 0.0
H763 H 0.38989 0.70603 0.79473 0.0
H764 H 0.08959 0.38373 0.70967 0.0
H765 H 0.09776 0.44469 0.73944 0.0
H766 H 0.98798 0.49489 0.71536 0.0
H767 H 0.9804 0.43498 0.68539 0.0
H768 H 1.03668 0.55862 0.71738 0.0
H769 H 1.00363 0.44163 0.77431 0.0
H770 H 1.01024 0.36968 0.79441 0.0
H771 H 0.12401 0.40536 0.82053 0.0
H772 H 0.11827 0.47736 0.80028 0.0
H773 H 0.9968 0.70239 0.82013 0.0
H774 H 0.99762 0.64472 0.78817 0.0
H775 H 0.11394 0.61374 0.81016 0.0
H776 H 0.11335 0.6713 0.84211 0.0
H777 H 0.06707 0.54142 0.80882 0.0
H778 H 0.09677 0.66123 0.75366 0.0
H779 H 0.08756 0.73344 0.73442 0.0
H780 H 0.97657 0.69222 0.70586 0.0
H781 H 0.98488 0.61992 0.72524 0.0
C782 C 0.06711 0.40758 0.711 0.0
C783 C 1.03449 0.4047 0.69509 0.0
C784 C 0.07174 0.44245 0.72802 0.0
C785 C 0.04341 0.47458 0.72981 0.0
C786 C 1.01046 0.47096 0.71427 0.0
C787 C 1.00612 0.43661 0.69712 0.0
C788 C 0.04806 0.51262 0.74728 0.0
C789 C 0.04291 0.55468 0.73744 0.0
C790 C 0.05716 0.50796 0.77338 0.0
C791 C 0.06069 0.46468 0.78552 0.0
C792 C 1.03018 0.434 0.78415 0.0
C793 C 1.03375 0.39324 0.79561 0.0
C794 C 0.06757 0.38291 0.80867 0.0
C795 C 0.09786 0.41337 0.81036 0.0
C796 C 0.09446 0.45417 0.79891 0.0
C797 C 1.02287 0.68397 0.81778 0.0
C798 C 0.05505 0.69162 0.83365 0.0
C799 C 1.02328 0.6509 0.79952 0.0
C800 C 0.05585 0.62477 0.79674 0.0
C801 C 0.08845 0.63334 0.81198 0.0
C802 C 0.08815 0.66655 0.83012 0.0
C803 C 0.05512 0.58711 0.77893 0.0
C804 C 0.06105 0.54522 0.78873 0.0
C805 C 0.04634 0.59186 0.75285 0.0
C806 C 0.04132 0.63527 0.74109 0.0
C807 C 0.07027 0.66767 0.74345 0.0
C808 C 0.06523 0.7086 0.73248 0.0
C809 C 1.03146 0.71745 0.71898 0.0
C810 C 1.0027 0.68534 0.71635 0.0
C811 C 1.00758 0.64436 0.72729 0.0
H812 H 1.02761 0.74916 0.71051 0.0
H813 H 0.07026 0.35134 0.81753 0.0
H814 H 0.47298 0.33336 0.34434 0.0
H815 H 0.47535 0.39182 0.31306 0.0
H816 H 0.58753 0.35008 0.28911 0.0
H817 H 0.58587 0.29243 0.32116 0.0
H818 H 0.59032 0.43292 0.29535 0.0
H819 H 0.50104 0.33797 0.2517 0.0
H820 H 0.44267 0.29175 0.24657 0.0
H821 H 0.3714 0.40137 0.26169 0.0
H822 H 0.42938 0.44815 0.26724 0.0
H823 H 0.6055 0.55983 0.18371 0.0
H824 H 0.598 0.50057 0.21415 0.0
H825 H 0.49495 0.5589 0.24291 0.0
H826 H 0.50211 0.61844 0.212 0.0
H827 H 0.48577 0.46978 0.23483 0.0
H828 H 0.57619 0.56468 0.27725 0.0
H829 H 0.6351 0.61028 0.2814 0.0
H830 H 0.70495 0.49907 0.26737 0.0
H831 H 0.64641 0.45289 0.26277 0.0
C832 C 0.49781 0.33594 0.33203 0.0
C833 C 0.52916 0.30797 0.33519 0.0
C834 C 0.49913 0.36953 0.31406 0.0
C835 C 0.53151 0.37549 0.29842 0.0
C836 C 0.56222 0.34644 0.30091 0.0
C837 C 0.56113 0.31318 0.31913 0.0
C838 C 0.53447 0.41348 0.28068 0.0
C839 C 0.56764 0.44042 0.28186 0.0
C840 C 0.50448 0.4245 0.26352 0.0
C841 C 0.46958 0.39646 0.26012 0.0
C842 C 0.47293 0.35215 0.25412 0.0
C843 C 0.43991 0.32586 0.2511 0.0
C844 C 0.40335 0.34359 0.25387 0.0
C845 C 0.39974 0.38767 0.25959 0.0
C846 C 0.43267 0.4141 0.26264 0.0
C847 C 0.58114 0.56011 0.19642 0.0
C848 C 0.55431 0.59391 0.1953 0.0
C849 C 0.57704 0.52628 0.21399 0.0
C850 C 0.54603 0.52526 0.23097 0.0
C851 C 0.51915 0.55897 0.23002 0.0
C852 C 0.52343 0.59317 0.2125 0.0
C853 C 0.54173 0.48858 0.24938 0.0
C854 C 0.50835 0.46208 0.24835 0.0
C855 C 0.57161 0.47774 0.26658 0.0
C856 C 0.60688 0.5054 0.26945 0.0
C857 C 0.6041 0.55001 0.27485 0.0
C858 C 0.63743 0.57595 0.27732 0.0
C859 C 0.67374 0.5576 0.2746 0.0
C860 C 0.6768 0.51324 0.26946 0.0
C861 C 0.64355 0.48716 0.26694 0.0
H862 H 0.69951 0.57774 0.27652 0.0
H863 H 0.37782 0.32318 0.25153 0.0
H864 H 0.61588 0.82633 0.20376 0.0
H865 H 0.61494 0.88526 0.23481 0.0
H866 H 0.49702 0.85165 0.25303 0.0
H867 H 0.49755 0.79324 0.22162 0.0
H868 H 0.50344 0.93534 0.24292 0.0
H869 H 0.57437 0.83578 0.29521 0.0
H870 H 0.62726 0.78604 0.30547 0.0
H871 H 0.71004 0.89003 0.29536 0.0
H872 H 0.65765 0.94027 0.28471 0.0
H873 H 0.47188 0.064 0.35001 0.0
H874 H 0.48266 1.00466 0.32065 0.0
H875 H 0.59727 0.05477 0.30587 0.0
H876 H 0.58697 0.11417 0.33619 0.0
H877 H 0.59694 0.96638 0.31244 0.0
H878 H 0.52638 0.06656 0.26198 0.0
H879 H 0.47386 0.11673 0.25167 0.0
H880 H 0.39095 1.01192 0.25774 0.0
H881 H 0.44292 0.96121 0.26844 0.0
C882 C 0.59007 0.83067 0.21487 0.0
C883 C 0.55678 0.80496 0.21019 0.0
C884 C 0.58955 0.86454 0.23264 0.0
C885 C 0.55588 0.87313 0.24633 0.0
C886 C 0.5233 0.84593 0.24264 0.0
C887 C 0.52373 0.81225 0.2248 0.0
C888 C 0.55343 0.91231 0.26295 0.0
C889 C 0.52361 0.94169 0.25835 0.0
C890 C 0.58061 0.92181 0.28246 0.0
C891 C 0.61211 0.89167 0.28891 0.0
C892 C 0.60387 0.84795 0.29497 0.0
C893 C 0.63376 0.81969 0.3009 0.0
C894 C 0.67199 0.83484 0.30099 0.0
C895 C 0.68041 0.87832 0.29524 0.0
C896 C 0.65063 0.90672 0.28928 0.0
C897 C 0.49954 0.06246 0.34072 0.0
C898 C 0.52865 0.09387 0.34567 0.0
C899 C 0.50553 0.02859 0.32366 0.0
C900 C 0.54065 0.0253 0.3108 0.0
C901 C 0.56988 0.05664 0.31552 0.0
C902 C 0.56385 0.09079 0.33268 0.0
C903 C 0.54643 0.98868 0.29273 0.0
C904 C 0.5769 0.95998 0.29695 0.0
C905 C 0.51991 0.97977 0.27277 0.0
C906 C 0.48855 1.01014 0.2662 0.0
C907 C 0.49692 0.05426 0.26129 0.0
C908 C 0.46725 0.08279 0.25535 0.0
C909 C 0.42909 0.06754 0.2541 0.0
C910 C 0.42053 0.0237 0.25873 0.0
C911 C 0.45009 0.99503 0.2647 0.0
H912 H 0.40615 0.08969 0.2495 0.0
H913 H 0.69509 0.8129 0.30559 0.0
H914 H 0.07541 0.95801 0.87217 0.0
H915 H 0.06159 0.01902 0.84402 0.0
H916 H 1.00113 0.93206 0.79275 0.0
H917 H 1.01522 0.87058 0.82095 0.0
H918 H 0.05192 0.98495 0.76766 0.0
H919 H 0.95092 1.00257 0.82696 0.0
H920 H 0.92096 1.00881 0.86904 0.0
H921 H 0.98834 0.1245 0.88412 0.0
H922 H 1.01917 0.11861 0.84226 0.0
H923 H 0.96422 0.19104 0.71196 0.0
H924 H 0.96081 0.13354 0.74424 0.0
H925 H 0.08489 0.13471 0.7497 0.0
H926 H 0.08858 0.19238 0.71789 0.0
H927 H 0.99205 0.12208 0.79576 0.0
H928 H 0.10971 0.02801 0.74304 0.0
H929 H 0.13451 0.02084 0.69947 0.0
H930 H 1.02353 0.05389 0.66922 0.0
H931 H 0.9981 0.06098 0.71251 0.0
C932 C 0.05903 0.95186 0.85496 0.0
C933 C 0.04654 0.90938 0.84876 0.0
C934 C 0.05089 0.98686 0.83895 0.0
C935 C 1.03014 0.98029 0.81628 0.0
C936 C 1.01712 0.93798 0.81016 0.0
C937 C 1.02493 0.90292 0.82636 0.0
C938 C 1.02391 0.01736 0.79853 0.0
C939 C 0.03865 0.01477 0.77384 0.0
C940 C 1.00602 0.05622 0.80632 0.0
C941 C 0.9876 0.05993 0.83153 0.0
C942 C 0.9596 0.02915 0.83933 0.0
C943 C 0.94241 0.03265 0.86313 0.0
C944 C 0.9528 0.06697 0.87927 0.0
C945 C 0.98035 0.09791 0.87161 0.0
C946 C 0.99766 0.09453 0.84783 0.0
C947 C 0.99072 0.17996 0.72058 0.0
C948 C 1.02668 0.1963 0.71227 0.0
C949 C 0.98872 0.14702 0.73899 0.0
C950 C 1.02261 0.12948 0.74912 0.0
C951 C 0.05838 0.14756 0.74199 0.0
C952 C 0.0604 0.18075 0.72387 0.0
C953 C 1.02116 0.08989 0.76538 0.0
C954 C 1.0051 0.09208 0.78968 0.0
C955 C 1.03716 0.05035 0.75713 0.0
C956 C 0.05214 0.04538 0.73102 0.0
C957 C 0.09061 0.0336 0.72707 0.0
C958 C 0.10479 0.02965 0.70242 0.0
C959 C 0.08067 0.03712 0.68158 0.0
C960 C 0.04228 0.04841 0.68534 0.0
C961 C 1.028 0.05248 0.70994 0.0
H962 H 0.09169 0.03402 0.66252 0.0
H963 H 0.93944 0.06965 0.89769 0.0
H964 H 0.59433 0.96613 0.68393 0.0
H965 H 0.59707 0.0245 0.71575 0.0
H966 H 0.51394 0.95414 0.76117 0.0
H967 H 0.51235 0.89486 0.72963 0.0
H968 H 0.50171 0.05377 0.74077 0.0
H969 H 0.58211 0.95511 0.78949 0.0
H970 H 0.6378 0.90708 0.79472 0.0
H971 H 0.715 1.01319 0.77663 0.0
H972 H 0.65966 0.06169 0.77089 0.0
H973 H 0.48587 0.19507 0.84529 0.0
H974 H 0.4888 0.13525 0.81532 0.0
H975 H 0.60878 0.1661 0.80135 0.0
H976 H 0.60645 0.22452 0.83292 0.0
H977 H 0.60367 0.08526 0.80491 0.0
H978 H 0.52941 0.18486 0.75657 0.0
H979 H 0.47721 0.23604 0.74728 0.0
H980 H 0.39274 0.13431 0.75893 0.0
H981 H 0.44442 0.08263 0.76861 0.0
C982 C 0.57749 0.96277 0.70107 0.0
C983 C 0.55344 0.92605 0.70459 0.0
C984 C 0.57895 0.99604 0.71913 0.0
C985 C 0.55573 0.99357 0.74078 0.0
C986 C 0.53225 0.95645 0.74464 0.0
C987 C 0.53152 0.9226 0.7268 0.0
C988 C 0.55393 0.03138 0.75817 0.0
C989 C 0.52358 0.06045 0.75513 0.0
C990 C 0.58349 0.04095 0.77595 0.0
C991 C 0.61673 1.01186 0.77945 0.0
C992 C 0.61092 0.96806 0.78633 0.0
C993 C 0.64243 0.94079 0.78946 0.0
C994 C 0.67991 0.95703 0.78592 0.0
C995 C 0.68595 1.00063 0.77932 0.0
C996 C 0.65453 0.02802 0.77614 0.0
C997 C 0.51271 0.18979 0.83545 0.0
C998 C 0.54584 0.21494 0.84126 0.0
C999 C 0.51436 0.15544 0.81817 0.0
C1000 C 0.54884 0.14622 0.80551 0.0
C1001 C 0.58175 0.17229 0.81076 0.0
C1002 C 0.58036 0.20601 0.82863 0.0
C1003 C 0.55091 0.1081 0.78793 0.0
C1004 C 0.58152 0.07895 0.7907 0.0
C1005 C 0.52198 0.099 0.76939 0.0
C1006 C 0.4908 0.12997 0.76354 0.0
C1007 C 0.4997 0.17348 0.75732 0.0
C1008 C 0.4702 0.20256 0.75196 0.0
C1009 C 0.43169 0.18846 0.75257 0.0
C1010 C 0.42259 0.1452 0.75849 0.0
C1011 C 0.45197 0.11598 0.76388 0.0
H1012 H 0.40889 0.21103 0.74842 0.0
H1013 H 0.70427 0.93588 0.78837 0.0
H1014 H 1.02907 0.06283 0.16742 0.0
H1015 H 1.02372 1.00071 0.19606 0.0
H1016 H 0.05483 0.08349 0.25926 0.0
H1017 H 0.05955 0.14614 0.23051 0.0
H1018 H 0.07461 0.96176 0.22291 0.0
H1019 H 1.01645 0.0428 0.31387 0.0
H1020 H 0.97484 0.10357 0.32591 0.0
H1021 H 0.91616 0.09479 0.25408 0.0
H1022 H 0.95704 0.03361 0.24175 0.0
H1023 H 0.10339 0.82739 0.33075 0.0
H1024 H 0.10107 0.88377 0.29826 0.0
H1025 H 0.97668 0.88033 0.3008 0.0
H1026 H 0.97895 0.82489 0.33408 0.0
H1027 H 0.99958 0.96018 0.30264 0.0
H1028 H 1.03021 0.84129 0.24858 0.0
H1029 H 0.06621 0.77749 0.23425 0.0
H1030 H 0.16923 0.85618 0.22783 0.0
H1031 H 0.13397 0.92035 0.24244 0.0
C1032 C 1.03472 0.06786 0.18743 0.0
C1033 C 0.04493 0.10941 0.19667 0.0
C1034 C 1.03163 0.03226 0.20381 0.0
C1035 C 0.03878 0.03717 0.2299 0.0
C1036 C 0.04855 0.07881 0.23929 0.0
C1037 C 0.05126 0.11466 0.22287 0.0
C1038 C 1.03707 0.99837 0.24694 0.0
C1039 C 0.05815 0.96147 0.24033 0.0
C1040 C 1.01509 0.99741 0.26949 0.0
C1041 C 0.99011 0.03393 0.2768 0.0
C1042 C 0.99458 0.05375 0.30068 0.0
C1043 C 0.97114 0.08828 0.30755 0.0
C1044 C 0.94297 0.10313 0.29073 0.0
C1045 C 0.93809 0.08337 0.26704 0.0
C1046 C 0.96143 0.04881 0.2601 0.0
C1047 C 0.07548 0.83778 0.32395 0.0
C1048 C 0.04133 0.82145 0.33495 0.0
C1049 C 0.07418 0.87019 0.30532 0.0
C1050 C 0.03867 0.88642 0.29688 0.0
C1051 C 1.00446 0.86862 0.30702 0.0
C1052 C 1.00577 0.83657 0.32589 0.0
C1053 C 1.03734 0.92366 0.27869 0.0
C1054 C 1.0159 0.96037 0.28516 0.0
C1055 C 0.05822 0.92405 0.25568 0.0
C1056 C 0.0795 0.88555 0.2468 0.0
C1057 C 0.0606 0.84493 0.24428 0.0
C1058 C 0.08087 0.80871 0.23608 0.0
C1059 C 0.12 0.81276 0.23018 0.0
C1060 C 0.13893 0.85308 0.23242 0.0
C1061 C 0.1188 0.8894 0.24063 0.0
H1062 H 0.13564 0.78468 0.22384 0.0
H1063 H 0.92486 0.12988 0.29607 0.0
H1064 H 0.10259 0.58383 0.92548 0.0
H1065 H 0.12924 0.54657 0.96286 0.0
H1066 H 1.02523 0.57289 1.00414 0.0
H1067 H 0.99815 0.60806 0.9668 0.0
H1068 H 0.09803 0.60332 0.02762 0.0
H1069 H 0.03906 0.47503 0.98401 0.0
H1070 H 1.03546 0.42317 0.94837 0.0
H1071 H 0.15509 0.39359 0.95897 0.0
H1072 H 0.15944 0.44577 0.99445 0.0
H1073 H 1.03573 0.48684 0.13004 0.0
H1074 H 0.0584 0.53071 0.09477 0.0
H1075 H 0.14525 0.43583 0.07886 0.0
H1076 H 0.12228 0.39167 0.11349 0.0
H1077 H 0.11117 0.44453 0.03985 0.0
H1078 H 0.16611 0.55157 0.09078 0.0
H1079 H 0.17751 0.60365 0.12554 0.0
H1080 H 0.0793 0.67654 0.10158 0.0
H1081 H 0.06689 0.62454 0.06688 0.0
C1082 C 0.08532 0.58056 0.94243 0.0
C1083 C 0.04828 0.5982 0.94331 0.0
C1084 C 0.10066 0.55993 0.96378 0.0
C1085 C 0.0795 0.55813 0.98635 0.0
C1086 C 0.04208 0.57446 0.98691 0.0
C1087 C 1.02645 0.59396 0.96551 0.0
C1088 C 0.0958 0.54039 1.00995 0.0
C1089 C 0.10089 0.56862 0.0306 0.0
C1090 C 0.1025 0.49567 1.01303 0.0
C1091 C 0.09972 0.46469 0.9916 0.0
C1092 C 0.06468 0.45781 0.97855 0.0
C1093 C 0.06247 0.42829 0.95842 0.0
C1094 C 0.09506 0.40523 0.95133 0.0
C1095 C 0.12989 0.41156 0.96442 0.0
C1096 C 0.13225 0.44109 0.98453 0.0
C1097 C 0.06052 0.47607 0.11955 0.0
C1098 C 0.07628 0.4351 0.12425 0.0
C1099 C 0.07399 0.50159 0.09949 0.0
C1100 C 0.10405 0.48703 0.08403 0.0
C1101 C 0.12257 0.44839 0.09058 0.0
C1102 C 0.1091 0.42287 0.11057 0.0
C1103 C 0.11016 0.50708 0.05868 0.0
C1104 C 0.1096 0.47946 0.03738 0.0
C1105 C 0.10881 0.55264 0.05497 0.0
C1106 C 0.11558 0.58392 0.07612 0.0
C1107 C 0.14676 0.57848 0.09297 0.0
C1108 C 0.15343 0.60807 0.11268 0.0
C1109 C 0.12915 0.6434 0.11577 0.0
C1110 C 0.09814 0.64919 0.09914 0.0
C1111 C 0.09134 0.61969 0.07939 0.0
H1112 H 0.13437 0.66629 0.13104 0.0
H1113 H 0.09329 0.38236 0.93576 0.0
H1114 H 0.58044 0.63868 0.5686 0.0
H1115 H 0.55246 0.60301 0.53159 0.0
H1116 H 0.44216 0.5944 0.56879 0.0
H1117 H 0.47049 0.63059 0.60645 0.0
H1118 H 0.47402 0.51415 0.55104 0.0
H1119 H 0.43126 0.64776 0.50295 0.0
H1120 H 0.44005 0.72361 0.48808 0.0
H1121 H 0.5572 0.69768 0.46815 0.0
H1122 H 0.54857 0.62133 0.48186 0.0
H1123 H 0.46899 0.37528 0.44505 0.0
H1124 H 0.44363 0.43224 0.47196 0.0
H1125 H 0.54329 0.51327 0.45543 0.0
H1126 H 0.56729 0.45801 0.42711 0.0
H1127 H 0.4865 0.56288 0.46173 0.0
H1128 H 0.53729 0.43889 0.50798 0.0
H1129 H 0.54001 0.36248 0.52209 0.0
H1130 H 0.42337 0.3687 0.54855 0.0
H1131 H 0.41987 0.44511 0.53433 0.0
C1132 C 0.55027 0.6291 0.56904 0.0
C1133 C 0.52787 0.63629 0.59068 0.0
C1134 C 0.53403 0.60972 0.54758 0.0
C1135 C 0.49501 0.59704 0.5472 0.0
C1136 C 0.47218 0.60473 0.56859 0.0
C1137 C 0.48842 0.62483 0.5901 0.0
C1138 C 0.48109 0.56916 0.52614 0.0
C1139 C 0.47511 0.52489 0.53143 0.0
C1140 C 0.48358 0.58305 0.50067 0.0
C1141 C 0.48946 0.62926 0.49379 0.0
C1142 C 0.45894 0.65843 0.49558 0.0
C1143 C 0.46379 0.70133 0.48715 0.0
C1144 C 0.49926 0.71556 0.47748 0.0
C1145 C 0.52981 0.68672 0.4758 0.0
C1146 C 0.52487 0.64358 0.48367 0.0
C1147 C 0.48495 0.40572 0.44641 0.0
C1148 C 0.52076 0.41163 0.43426 0.0
C1149 C 0.47051 0.43816 0.46208 0.0
C1150 C 0.492 0.47659 0.46628 0.0
C1151 C 0.5262 0.4838 0.45266 0.0
C1152 C 0.54025 0.45182 0.43669 0.0
C1153 C 0.48187 0.50746 0.48668 0.0
C1154 C 0.48316 0.55212 0.48122 0.0
C1155 C 0.47662 0.49369 0.51212 0.0
C1156 C 0.47814 0.44741 0.5198 0.0
C1157 C 0.51211 0.42379 0.51658 0.0
C1158 C 0.51383 0.38057 0.52466 0.0
C1159 C 0.48193 0.36083 0.53628 0.0
C1160 C 0.44808 0.3841 0.5396 0.0
C1161 C 0.44618 0.42733 0.5315 0.0
H1162 H 0.48348 0.32749 0.54275 0.0
H1163 H 0.50298 0.74885 0.47115 0.0
H1164 H 0.61985 0.16602 0.95635 0.0
H1165 H 0.64959 0.11747 0.98693 0.0
H1166 H 0.56164 0.01999 0.97083 0.0
H1167 H 0.5335 0.06712 0.93911 0.0
H1168 H 0.6231 0.09557 0.02808 0.0
H1169 H 0.58086 0.9219 0.98638 0.0
H1170 H 0.58889 0.88231 0.94622 0.0
H1171 H 0.67995 0.97097 0.92465 0.0
H1172 H 0.67297 1.01074 0.96486 0.0
H1173 H 0.53462 0.96301 0.11582 0.0
H1174 H 0.56099 1.00982 0.08273 0.0
H1175 H 0.64532 0.91288 0.06534 0.0
H1176 H 0.6191 0.86626 0.09796 0.0
H1177 H 0.61878 0.93464 0.02509 0.0
H1178 H 0.67256 0.02087 0.08914 0.0
H1179 H 0.6779 0.05942 0.12996 0.0
H1180 H 0.58653 0.14387 0.10758 0.0
H1181 H 0.58078 0.10607 0.06644 0.0
C1182 C 0.60769 0.13363 0.95853 0.0
C1183 C 0.57385 0.1207 0.94541 0.0
C1184 C 0.62465 0.10594 0.97625 0.0
C1185 C 0.60807 0.06487 0.98128 0.0
C1186 C 0.57569 0.05102 0.96706 0.0
C1187 C 0.55907 0.07841 0.94915 0.0
C1188 C 0.62011 0.03922 1.0038 0.0
C1189 C 0.62281 0.06044 0.02736 0.0
C1190 C 0.62218 0.99335 1.003 0.0
C1191 C 0.62625 0.96949 0.97868 0.0
C1192 C 0.60279 0.93284 0.97319 0.0
C1193 C 0.60712 0.91038 0.95037 0.0
C1194 C 0.63487 0.92416 0.93288 0.0
C1195 C 0.65838 0.96041 0.93818 0.0
C1196 C 0.65419 0.98299 0.96097 0.0
C1197 C 0.5595 0.9523 0.1054 0.0
C1198 C 0.57453 0.91083 0.10954 0.0
C1199 C 0.57495 0.97931 0.08663 0.0
C1200 C 0.60611 0.96561 0.07185 0.0
C1201 C 0.62224 0.92501 0.07685 0.0
C1202 C 0.60698 0.89815 0.09566 0.0
C1203 C 0.61809 0.99119 0.04926 0.0
C1204 C 0.62017 0.96986 0.02577 0.0
C1205 C 0.62262 0.03693 0.05014 0.0
C1206 C 0.62636 0.06065 0.07461 0.0
C1207 C 0.65367 0.04775 0.09284 0.0
C1208 C 0.65681 0.06953 0.11603 0.0
C1209 C 0.63268 0.10422 0.12129 0.0
C1210 C 0.6054 0.11722 0.10335 0.0
C1211 C 0.60234 0.09577 0.08003 0.0
H1212 H 0.63505 0.12095 0.1393 0.0
H1213 H 0.63818 0.90671 0.91523 0.0
H1214 H 0.98058 0.93986 0.4155 0.0
H1215 H 0.94751 0.97725 0.45024 0.0
H1216 H 0.04878 0.9646 0.49735 0.0
H1217 H 0.08217 0.92942 0.4627 0.0
H1218 H 0.97005 0.92496 0.51495 0.0
H1219 H 1.03509 0.056 0.47688 0.0
H1220 H 0.04174 0.10984 0.44241 0.0
H1221 H 0.92131 0.13862 0.44784 0.0
H1222 H 0.91388 0.08432 0.48207 0.0
H1223 H 1.03537 0.03336 0.6181 0.0
H1224 H 1.00908 0.99142 0.58294 0.0
H1225 H 0.92402 0.08968 0.56949 0.0
H1226 H 0.95154 0.13304 0.6036 0.0
H1227 H 0.95963 0.0833 0.52988 0.0
H1228 H 0.89863 0.97804 0.57658 0.0
H1229 H 0.88058 0.92399 0.60906 0.0
H1230 H 0.9744 0.84371 0.58659 0.0
H1231 H 0.99361 0.89753 0.5543 0.0
C1232 C 0.9959 0.94639 0.43309 0.0
C1233 C 1.03394 0.93233 0.43642 0.0
C1234 C 0.97691 0.96707 0.45293 0.0
C1235 C 0.99552 0.97254 0.47641 0.0
C1236 C 1.03397 0.96025 0.47934 0.0
C1237 C 0.05317 0.94073 0.45944 0.0
C1238 C 0.97537 0.98888 0.49881 0.0
C1239 C 0.96756 0.9595 0.51853 0.0
C1240 C 0.96912 0.03353 0.50241 0.0
C1241 C 0.97379 0.06559 0.48166 0.0
C1242 C 1.00993 0.07334 0.47046 0.0
C1243 C 1.01387 0.10405 0.45104 0.0
C1244 C 0.98193 0.12746 0.44284 0.0
C1245 C 0.94599 0.12031 0.45412 0.0
C1246 C 0.9419 0.08957 0.4735 0.0
C1247 C 1.01055 0.0457 0.60804 0.0
C1248 C 0.99683 0.08746 0.61313 0.0
C1249 C 0.99494 0.02121 0.58811 0.0
C1250 C 0.9647 0.0376 0.5732 0.0
C1251 C 0.94758 0.07657 0.58049 0.0
C1252 C 0.96349 0.10137 0.60021 0.0
C1253 C 0.95784 0.01957 0.5474 0.0
C1254 C 0.96047 0.04848 0.52673 0.0
C1255 C 0.95783 0.97424 0.5428 0.0
C1256 C 0.94766 0.94215 0.56294 0.0
C1257 C 0.91581 0.94918 0.57875 0.0
C1258 C 0.90526 0.91845 0.59709 0.0
C1259 C 0.92633 0.88045 0.59989 0.0
C1260 C 0.95806 0.87315 0.58437 0.0
C1261 C 0.96874 0.90376 0.56598 0.0
H1262 H 0.91806 0.85665 0.61408 0.0
H1263 H 0.98505 0.15128 0.42783 0.0
loop_
_geom_bond_atom_site_label_1
_geom_bond_atom_site_label_2
_geom_bond_distance
_geom_bond_site_symmetry_2
_ccdc_geom_bond_type
Co0 N4 2.148 . S
Co0 N10 2.128 . S
Co0 N20 2.194 1_455 S
Co0 O25 2.351 1_455 S
Co0 O26 2.155 . S
Co0 O27 2.096 . S
C1 N4 1.301 . S
C1 N5 1.328 . S
C1 H6 0.930 1_455 S
C2 C3 1.333 . S
C2 N4 1.317 . S
C2 H7 0.930 . S
C3 C2 1.333 . S
C3 N5 1.350 . S
C3 H29 0.931 . S
N4 Co0 2.148 . S
N4 C1 1.301 . S
N4 C2 1.317 . S
N5 C1 1.328 . S
N5 C3 1.350 . S
H6 C1 0.930 1_655 S
H7 C2 0.930 . S
C8 O9 1.224 . S
C8 O27 1.247 . S
O9 C8 1.224 . S
N10 Co0 2.128 . S
N10 C11 1.355 1_455 S
N10 C13 1.311 . S
C11 N10 1.355 1_655 S
C11 C12 1.363 . S
C11 H23 0.929 . S
C12 C11 1.363 . S
C12 N14 1.375 1_655 S
C12 H30 0.931 . S
C13 N10 1.311 . S
C13 N14 1.347 . S
C13 H24 0.929 . S
N14 C12 1.375 1_455 S
N14 C13 1.347 . S
C15 C18 1.365 . S
C15 N20 1.328 . S
C15 H21 0.929 . S
C16 C17 1.362 . S
C16 C19 1.378 . S
C16 H31 0.929 . S
C17 C16 1.362 . S
C17 C18 1.366 . S
C18 C15 1.365 . S
C18 C17 1.366 . S
C18 H32 0.930 . S
C19 C16 1.378 . S
C19 N20 1.315 . S
C19 H22 0.930 . S
N20 Co0 2.194 1_655 S
N20 C15 1.328 . S
N20 C19 1.315 . S
H21 C15 0.929 . S
H22 C19 0.930 . S
H23 C11 0.929 . S
H24 C13 0.929 . S
O25 Co0 2.351 1_655 S
O25 C28 1.244 1_655 S
O26 Co0 2.155 . S
O26 C28 1.240 . S
O27 Co0 2.096 . S
O27 C8 1.247 . S
C28 O25 1.244 1_455 S
C28 O26 1.240 . S
H29 C3 0.931 . S
H30 C12 0.931 . S
H31 C16 0.929 . S
H32 C18 0.930 . S
Co33 N37 2.148 . S
Co33 N43 2.128 . S
Co33 N53 2.194 . S
Co33 O58 2.351 . S
Co33 O59 2.155 . S
Co33 O60 2.096 . S
C34 N37 1.301 . S
C34 N38 1.328 . S
C34 H39 0.930 . S
C35 C36 1.333 . S
C35 N37 1.317 . S
C35 H40 0.930 . S
C36 C35 1.333 . S
C36 N38 1.350 . S
C36 H62 0.931 . S
N37 Co33 2.148 . S
N37 C34 1.301 . S
N37 C35 1.317 . S
N38 C34 1.328 . S
N38 C36 1.350 . S
H39 C34 0.930 . S
H40 C35 0.930 . S
C41 O42 1.224 . S
C41 O60 1.247 . S
O42 C41 1.224 . S
N43 Co33 2.128 . S
N43 C44 1.355 . S
N43 C46 1.311 . S
C44 N43 1.355 . S
C44 C45 1.363 . S
C44 H56 0.929 . S
C45 C44 1.363 . S
C45 N47 1.375 . S
C45 H63 0.931 . S
C46 N43 1.311 . S
C46 N47 1.347 . S
C46 H57 0.929 . S
N47 C45 1.375 . S
N47 C46 1.347 . S
C48 C51 1.365 . S
C48 N53 1.328 . S
C48 H54 0.929 . S
C49 C50 1.362 . S
C49 C52 1.378 . S
C49 H64 0.929 . S
C50 C49 1.362 . S
C50 C51 1.366 . S
C51 C48 1.365 . S
C51 C50 1.366 . S
C51 H65 0.930 . S
C52 C49 1.378 . S
C52 N53 1.315 . S
C52 H55 0.930 . S
N53 Co33 2.194 . S
N53 C48 1.328 . S
N53 C52 1.315 . S
H54 C48 0.929 . S
H55 C52 0.930 . S
H56 C44 0.929 . S
H57 C46 0.929 . S
O58 Co33 2.351 . S
O58 C61 1.244 . S
O59 Co33 2.155 . S
O59 C61 1.240 . S
O60 Co33 2.096 . S
O60 C41 1.247 . S
C61 O58 1.244 . S
C61 O59 1.240 . S
H62 C36 0.931 . S
H63 C45 0.931 . S
H64 C49 0.929 . S
H65 C51 0.930 . S
Co66 N70 2.148 . S
Co66 N76 2.128 . S
Co66 N86 2.194 1_455 S
Co66 O91 2.351 1_455 S
Co66 O92 2.155 . S
Co66 O93 2.096 . S
C67 N70 1.301 . S
C67 N71 1.328 . S
C67 H72 0.930 1_455 S
C68 C69 1.333 . S
C68 N70 1.317 . S
C68 H73 0.930 . S
C69 C68 1.333 . S
C69 N71 1.350 . S
C69 H95 0.931 . S
N70 Co66 2.148 . S
N70 C67 1.301 . S
N70 C68 1.317 . S
N71 C67 1.328 . S
N71 C69 1.350 . S
H72 C67 0.930 1_655 S
H73 C68 0.930 . S
C74 O75 1.224 . S
C74 O93 1.247 . S
O75 C74 1.224 . S
N76 Co66 2.128 . S
N76 C77 1.355 1_455 S
N76 C79 1.311 . S
C77 N76 1.355 1_655 S
C77 C78 1.363 . S
C77 H89 0.929 . S
C78 C77 1.363 . S
C78 N80 1.375 1_655 S
C78 H96 0.931 . S
C79 N76 1.311 . S
C79 N80 1.347 . S
C79 H90 0.929 . S
N80 C78 1.375 1_455 S
N80 C79 1.347 . S
C81 C84 1.365 . S
C81 N86 1.328 . S
C81 H87 0.929 . S
C82 C83 1.362 . S
C82 C85 1.378 . S
C82 H97 0.929 . S
C83 C82 1.362 . S
C83 C84 1.366 . S
C84 C81 1.365 . S
C84 C83 1.366 . S
C84 H98 0.930 . S
C85 C82 1.378 . S
C85 N86 1.315 . S
C85 H88 0.930 . S
N86 Co66 2.194 1_655 S
N86 C81 1.328 . S
N86 C85 1.315 . S
H87 C81 0.929 . S
H88 C85 0.930 . S
H89 C77 0.929 . S
H90 C79 0.929 . S
O91 Co66 2.351 1_655 S
O91 C94 1.244 1_655 S
O92 Co66 2.155 . S
O92 C94 1.240 . S
O93 Co66 2.096 . S
O93 C74 1.247 . S
C94 O91 1.244 1_455 S
C94 O92 1.240 . S
H95 C69 0.931 . S
H96 C78 0.931 . S
H97 C82 0.929 . S
H98 C84 0.930 . S
Co99 N103 2.148 . S
Co99 N109 2.128 . S
Co99 N119 2.194 . S
Co99 O124 2.351 . S
Co99 O125 2.155 . S
Co99 O126 2.096 . S
C100 N103 1.301 . S
C100 N104 1.328 . S
C100 H105 0.930 . S
C101 C102 1.333 . S
C101 N103 1.317 . S
C101 H106 0.930 . S
C102 C101 1.333 . S
C102 N104 1.350 . S
C102 H128 0.931 . S
N103 Co99 2.148 . S
N103 C100 1.301 . S
N103 C101 1.317 . S
N104 C100 1.328 . S
N104 C102 1.350 . S
H105 C100 0.930 . S
H106 C101 0.930 . S
C107 O108 1.224 . S
C107 O126 1.247 . S
O108 C107 1.224 . S
N109 Co99 2.128 . S
N109 C110 1.355 . S
N109 C112 1.311 . S
C110 N109 1.355 . S
C110 C111 1.363 . S
C110 H122 0.929 . S
C111 C110 1.363 . S
C111 N113 1.375 . S
C111 H129 0.931 . S
C112 N109 1.311 . S
C112 N113 1.347 . S
C112 H123 0.929 . S
N113 C111 1.375 . S
N113 C112 1.347 . S
C114 C117 1.365 . S
C114 N119 1.328 . S
C114 H120 0.929 . S
C115 C116 1.362 . S
C115 C118 1.378 . S
C115 H130 0.929 . S
C116 C115 1.362 . S
C116 C117 1.366 . S
C117 C114 1.365 . S
C117 C116 1.366 . S
C117 H131 0.930 . S
C118 C115 1.378 . S
C118 N119 1.315 . S
C118 H121 0.930 . S
N119 Co99 2.194 . S
N119 C114 1.328 . S
N119 C118 1.315 . S
H120 C114 0.929 . S
H121 C118 0.930 . S
H122 C110 0.929 . S
H123 C112 0.929 . S
O124 Co99 2.351 . S
O124 C127 1.244 . S
O125 Co99 2.155 . S
O125 C127 1.240 . S
O126 Co99 2.096 . S
O126 C107 1.247 . S
C127 O124 1.244 . S
C127 O125 1.240 . S
H128 C102 0.931 . S
H129 C111 0.931 . S
H130 C115 0.929 . S
H131 C117 0.930 . S
Co132 N136 2.148 . S
Co132 N142 2.128 . S
Co132 N152 2.194 . S
Co132 O157 2.351 . S
Co132 O158 2.155 . S
Co132 O159 2.096 . S
C133 N136 1.301 . S
C133 N137 1.328 . S
C133 H138 0.930 . S
C134 C135 1.333 . S
C134 N136 1.317 . S
C134 H139 0.930 . S
C135 C134 1.333 . S
C135 N137 1.350 . S
C135 H161 0.931 . S
N136 Co132 2.148 . S
N136 C133 1.301 . S
N136 C134 1.317 . S
N137 C133 1.328 . S
N137 C135 1.350 . S
H138 C133 0.930 . S
H139 C134 0.930 . S
C140 O141 1.224 . S
C140 O159 1.247 . S
O141 C140 1.224 . S
N142 Co132 2.128 . S
N142 C143 1.355 . S
N142 C145 1.311 . S
C143 N142 1.355 . S
C143 C144 1.363 . S
C143 H155 0.929 . S
C144 C143 1.363 . S
C144 N146 1.375 . S
C144 H162 0.931 . S
C145 N142 1.311 . S
C145 N146 1.347 . S
C145 H156 0.929 . S
N146 C144 1.375 . S
N146 C145 1.347 . S
C147 C150 1.365 . S
C147 N152 1.328 . S
C147 H153 0.929 . S
C148 C149 1.362 . S
C148 C151 1.378 . S
C148 H163 0.929 . S
C149 C148 1.362 . S
C149 C150 1.366 . S
C150 C147 1.365 . S
C150 C149 1.366 . S
C150 H164 0.930 . S
C151 C148 1.378 . S
C151 N152 1.315 . S
C151 H154 0.930 . S
N152 Co132 2.194 . S
N152 C147 1.328 . S
N152 C151 1.315 . S
H153 C147 0.929 . S
H154 C151 0.930 . S
H155 C143 0.929 . S
H156 C145 0.929 . S
O157 Co132 2.351 . S
O157 C160 1.244 . S
O158 Co132 2.155 . S
O158 C160 1.240 . S
O159 Co132 2.096 . S
O159 C140 1.247 . S
C160 O157 1.244 . S
C160 O158 1.240 . S
H161 C135 0.931 . S
H162 C144 0.931 . S
H163 C148 0.929 . S
H164 C150 0.930 . S
Co165 N169 2.148 . S
Co165 N175 2.128 1_655 S
Co165 N185 2.194 1_655 S
Co165 O190 2.351 1_655 S
Co165 O191 2.155 . S
Co165 O192 2.096 . S
C166 N169 1.301 1_455 S
C166 N170 1.328 1_455 S
C166 H171 0.930 . S
C167 C168 1.333 . S
C167 N169 1.317 . S
C167 H172 0.930 . S
C168 C167 1.333 . S
C168 N170 1.350 . S
C168 H194 0.931 . S
N169 Co165 2.148 . S
N169 C166 1.301 1_655 S
N169 C167 1.317 . S
N170 C166 1.328 1_655 S
N170 C168 1.350 . S
H171 C166 0.930 . S
H172 C167 0.930 . S
C173 O174 1.224 . S
C173 O192 1.247 . S
O174 C173 1.224 . S
N175 Co165 2.128 1_455 S
N175 C176 1.355 . S
N175 C178 1.311 1_455 S
C176 N175 1.355 . S
C176 C177 1.363 . S
C176 H188 0.929 . S
C177 C176 1.363 . S
C177 N179 1.375 1_455 S
C177 H195 0.931 . S
C178 N175 1.311 1_655 S
C178 N179 1.347 . S
C178 H189 0.929 . S
N179 C177 1.375 1_655 S
N179 C178 1.347 . S
C180 C183 1.365 . S
C180 N185 1.328 . S
C180 H186 0.929 . S
C181 C182 1.362 . S
C181 C184 1.378 . S
C181 H196 0.929 . S
C182 C181 1.362 . S
C182 C183 1.366 . S
C183 C180 1.365 . S
C183 C182 1.366 . S
C183 H197 0.930 . S
C184 C181 1.378 . S
C184 N185 1.315 . S
C184 H187 0.930 . S
N185 Co165 2.194 1_455 S
N185 C180 1.328 . S
N185 C184 1.315 . S
H186 C180 0.929 . S
H187 C184 0.930 . S
H188 C176 0.929 . S
H189 C178 0.929 . S
O190 Co165 2.351 1_455 S
O190 C193 1.244 . S
O191 Co165 2.155 . S
O191 C193 1.240 1_655 S
O192 Co165 2.096 . S
O192 C173 1.247 . S
C193 O190 1.244 . S
C193 O191 1.240 1_455 S
H194 C168 0.931 . S
H195 C177 0.931 . S
H196 C181 0.929 . S
H197 C183 0.930 . S
Co198 N202 2.148 . S
Co198 N208 2.128 . S
Co198 N218 2.194 . S
Co198 O223 2.351 . S
Co198 O224 2.155 . S
Co198 O225 2.096 . S
C199 N202 1.301 . S
C199 N203 1.328 . S
C199 H204 0.930 . S
C200 C201 1.333 . S
C200 N202 1.317 . S
C200 H205 0.930 . S
C201 C200 1.333 . S
C201 N203 1.350 . S
C201 H227 0.931 . S
N202 Co198 2.148 . S
N202 C199 1.301 . S
N202 C200 1.317 . S
N203 C199 1.328 . S
N203 C201 1.350 . S
H204 C199 0.930 . S
H205 C200 0.930 . S
C206 O207 1.224 . S
C206 O225 1.247 . S
O207 C206 1.224 . S
N208 Co198 2.128 . S
N208 C209 1.355 . S
N208 C211 1.311 . S
C209 N208 1.355 . S
C209 C210 1.363 . S
C209 H221 0.929 . S
C210 C209 1.363 . S
C210 N212 1.375 . S
C210 H228 0.931 . S
C211 N208 1.311 . S
C211 N212 1.347 . S
C211 H222 0.929 . S
N212 C210 1.375 . S
N212 C211 1.347 . S
C213 C216 1.365 . S
C213 N218 1.328 . S
C213 H219 0.929 . S
C214 C215 1.362 . S
C214 C217 1.378 . S
C214 H229 0.929 . S
C215 C214 1.362 . S
C215 C216 1.366 . S
C216 C213 1.365 . S
C216 C215 1.366 . S
C216 H230 0.930 . S
C217 C214 1.378 . S
C217 N218 1.315 . S
C217 H220 0.930 . S
N218 Co198 2.194 . S
N218 C213 1.328 . S
N218 C217 1.315 . S
H219 C213 0.929 . S
H220 C217 0.930 . S
H221 C209 0.929 . S
H222 C211 0.929 . S
O223 Co198 2.351 . S
O223 C226 1.244 . S
O224 Co198 2.155 . S
O224 C226 1.240 . S
O225 Co198 2.096 . S
O225 C206 1.247 . S
C226 O223 1.244 . S
C226 O224 1.240 . S
H227 C201 0.931 . S
H228 C210 0.931 . S
H229 C214 0.929 . S
H230 C216 0.930 . S
Co231 N235 2.148 . S
Co231 N241 2.128 1_655 S
Co231 N251 2.194 1_655 S
Co231 O256 2.351 1_655 S
Co231 O257 2.155 . S
Co231 O258 2.096 . S
C232 N235 1.301 1_455 S
C232 N236 1.328 1_455 S
C232 H237 0.930 . S
C233 C234 1.333 . S
C233 N235 1.317 . S
C233 H238 0.930 . S
C234 C233 1.333 . S
C234 N236 1.350 . S
C234 H260 0.931 . S
N235 Co231 2.148 . S
N235 C232 1.301 1_655 S
N235 C233 1.317 . S
N236 C232 1.328 1_655 S
N236 C234 1.350 . S
H237 C232 0.930 . S
H238 C233 0.930 . S
C239 O240 1.224 . S
C239 O258 1.247 . S
O240 C239 1.224 . S
N241 Co231 2.128 1_455 S
N241 C242 1.355 . S
N241 C244 1.311 1_455 S
C242 N241 1.355 . S
C242 C243 1.363 . S
C242 H254 0.929 . S
C243 C242 1.363 . S
C243 N245 1.375 1_455 S
C243 H261 0.931 . S
C244 N241 1.311 1_655 S
C244 N245 1.347 . S
C244 H255 0.929 . S
N245 C243 1.375 1_655 S
N245 C244 1.347 . S
C246 C249 1.365 . S
C246 N251 1.328 . S
C246 H252 0.929 . S
C247 C248 1.362 . S
C247 C250 1.378 . S
C247 H262 0.929 . S
C248 C247 1.362 . S
C248 C249 1.366 . S
C249 C246 1.365 . S
C249 C248 1.366 . S
C249 H263 0.930 . S
C250 C247 1.378 . S
C250 N251 1.315 . S
C250 H253 0.930 . S
N251 Co231 2.194 1_455 S
N251 C246 1.328 . S
N251 C250 1.315 . S
H252 C246 0.929 . S
H253 C250 0.930 . S
H254 C242 0.929 . S
H255 C244 0.929 . S
O256 Co231 2.351 1_455 S
O256 C259 1.244 . S
O257 Co231 2.155 . S
O257 C259 1.240 1_655 S
O258 Co231 2.096 . S
O258 C239 1.247 . S
C259 O256 1.244 . S
C259 O257 1.240 1_455 S
H260 C234 0.931 . S
H261 C243 0.931 . S
H262 C247 0.929 . S
H263 C249 0.930 . S
H264 C282 0.951 . S
H265 C284 0.951 . S
H266 C286 0.950 . S
H267 C287 0.950 . S
H268 C289 0.950 . S
H269 C292 0.950 . S
H270 C293 0.950 . S
H271 C295 0.950 . S
H272 C296 0.950 1_554 S
H273 C297 0.951 . S
H274 C299 0.951 . S
H275 C301 0.950 . S
H276 C302 0.950 . S
H277 C304 0.950 . S
H278 C307 0.950 . S
H279 C308 0.950 . S
H280 C310 0.950 . S
H281 C311 0.950 1_556 S
C282 H264 0.951 . S
C282 C283 1.366 . S
C282 C284 1.388 . S
C283 C282 1.366 . S
C283 C287 1.385 . S
C284 H265 0.951 . S
C284 C282 1.388 . S
C284 C285 1.366 . S
C285 C284 1.366 . S
C285 C286 1.414 . S
C285 C288 1.499 . S
C286 H266 0.950 . S
C286 C285 1.414 . S
C286 C287 1.374 . S
C287 H267 0.950 . S
C287 C283 1.385 . S
C287 C286 1.374 . S
C288 C285 1.499 . S
C288 C289 1.373 . S
C288 C290 1.389 . S
C289 H268 0.950 . S
C289 C288 1.373 . S
C289 C305 1.377 1_556 S
C290 C288 1.389 . S
C290 C291 1.524 . S
C290 C304 1.377 1_556 S
C291 C290 1.524 . S
C291 C292 1.397 . S
C291 C296 1.363 . S
C292 H269 0.950 . S
C292 C291 1.397 . S
C292 C293 1.334 . S
C293 H270 0.950 . S
C293 C292 1.334 . S
C293 C294 1.287 . S
C294 C293 1.287 . S
C294 C295 1.524 . S
C294 H313 0.913 . S
C295 H271 0.950 . S
C295 C294 1.524 . S
C295 C296 1.415 . S
C296 H272 0.950 1_556 S
C296 C291 1.363 . S
C296 C295 1.415 . S
C297 H273 0.951 . S
C297 C298 1.366 . S
C297 C299 1.388 . S
C298 C297 1.366 . S
C298 C302 1.385 . S
C299 H274 0.951 . S
C299 C297 1.388 . S
C299 C300 1.366 . S
C300 C299 1.366 . S
C300 C301 1.414 . S
C300 C303 1.499 . S
C301 H275 0.950 . S
C301 C300 1.414 . S
C301 C302 1.374 . S
C302 H276 0.950 . S
C302 C298 1.385 . S
C302 C301 1.374 . S
C303 C300 1.499 . S
C303 C304 1.373 . S
C303 C305 1.389 . S
C304 H277 0.950 . S
C304 C290 1.377 1_554 S
C304 C303 1.373 . S
C305 C289 1.377 1_554 S
C305 C303 1.389 . S
C305 C306 1.524 . S
C306 C305 1.524 . S
C306 C307 1.397 . S
C306 C311 1.363 . S
C307 H278 0.950 . S
C307 C306 1.397 . S
C307 C308 1.334 . S
C308 H279 0.950 . S
C308 C307 1.334 . S
C308 C309 1.287 . S
C309 C308 1.287 . S
C309 C310 1.524 . S
C309 H312 0.999 . S
C310 H280 0.950 . S
C310 C309 1.524 . S
C310 C311 1.415 . S
C311 H281 0.950 1_554 S
C311 C306 1.363 . S
C311 C310 1.415 . S
H312 C309 0.999 . S
H313 C294 0.913 . S
H314 C332 0.951 . S
H315 C334 0.951 . S
H316 C336 0.950 . S
H317 C337 0.950 . S
H318 C339 0.950 . S
H319 C342 0.950 . S
H320 C343 0.950 . S
H321 C345 0.950 . S
H322 C346 0.950 . S
H323 C347 0.951 . S
H324 C349 0.951 . S
H325 C351 0.950 . S
H326 C352 0.950 . S
H327 C354 0.950 . S
H328 C357 0.950 . S
H329 C358 0.950 . S
H330 C360 0.950 . S
H331 C361 0.950 . S
C332 H314 0.951 . S
C332 C333 1.366 . S
C332 C334 1.388 . S
C333 C332 1.366 . S
C333 C337 1.385 . S
C334 H315 0.951 . S
C334 C332 1.388 . S
C334 C335 1.366 . S
C335 C334 1.366 . S
C335 C336 1.414 . S
C335 C338 1.499 . S
C336 H316 0.950 . S
C336 C335 1.414 . S
C336 C337 1.374 . S
C337 H317 0.950 . S
C337 C333 1.385 . S
C337 C336 1.374 . S
C338 C335 1.499 . S
C338 C339 1.373 . S
C338 C340 1.389 . S
C339 H318 0.950 . S
C339 C338 1.373 . S
C339 C355 1.377 . S
C340 C338 1.389 . S
C340 C341 1.524 . S
C340 C354 1.377 . S
C341 C340 1.524 . S
C341 C342 1.397 . S
C341 C346 1.363 . S
C342 H319 0.950 . S
C342 C341 1.397 . S
C342 C343 1.334 . S
C343 H320 0.950 . S
C343 C342 1.334 . S
C343 C344 1.287 . S
C344 C343 1.287 . S
C344 C345 1.524 . S
C344 H363 0.913 . S
C345 H321 0.950 . S
C345 C344 1.524 . S
C345 C346 1.415 . S
C346 H322 0.950 . S
C346 C341 1.363 . S
C346 C345 1.415 . S
C347 H323 0.951 . S
C347 C348 1.366 . S
C347 C349 1.388 . S
C348 C347 1.366 . S
C348 C352 1.385 . S
C349 H324 0.951 . S
C349 C347 1.388 . S
C349 C350 1.366 . S
C350 C349 1.366 . S
C350 C351 1.414 . S
C350 C353 1.499 . S
C351 H325 0.950 . S
C351 C350 1.414 . S
C351 C352 1.374 . S
C352 H326 0.950 . S
C352 C348 1.385 . S
C352 C351 1.374 . S
C353 C350 1.499 . S
C353 C354 1.373 . S
C353 C355 1.389 . S
C354 H327 0.950 . S
C354 C340 1.377 . S
C354 C353 1.373 . S
C355 C339 1.377 . S
C355 C353 1.389 . S
C355 C356 1.524 . S
C356 C355 1.524 . S
C356 C357 1.397 . S
C356 C361 1.363 . S
C357 H328 0.950 . S
C357 C356 1.397 . S
C357 C358 1.334 . S
C358 H329 0.950 . S
C358 C357 1.334 . S
C358 C359 1.287 . S
C359 C358 1.287 . S
C359 C360 1.524 . S
C359 H362 0.999 . S
C360 H330 0.950 . S
C360 C359 1.524 . S
C360 C361 1.415 . S
C361 H331 0.950 . S
C361 C356 1.363 . S
C361 C360 1.415 . S
H362 C359 0.999 . S
H363 C344 0.913 . S
H364 C382 0.951 . S
H365 C384 0.951 . S
H366 C386 0.950 . S
H367 C387 0.950 . S
H368 C389 0.950 . S
H369 C392 0.950 . S
H370 C393 0.950 . S
H371 C395 0.950 . S
H372 C396 0.950 . S
H373 C397 0.951 . S
H374 C399 0.951 . S
H375 C401 0.950 . S
H376 C402 0.950 . S
H377 C404 0.950 . S
H378 C407 0.950 . S
H379 C408 0.950 . S
H380 C410 0.950 . S
H381 C411 0.950 . S
C382 H364 0.951 . S
C382 C383 1.366 . S
C382 C384 1.388 . S
C383 C382 1.366 . S
C383 C387 1.385 . S
C384 H365 0.951 . S
C384 C382 1.388 . S
C384 C385 1.366 . S
C385 C384 1.366 . S
C385 C386 1.414 . S
C385 C388 1.499 . S
C386 H366 0.950 . S
C386 C385 1.414 . S
C386 C387 1.374 . S
C387 H367 0.950 . S
C387 C383 1.385 . S
C387 C386 1.374 . S
C388 C385 1.499 . S
C388 C389 1.373 1_554 S
C388 C390 1.389 . S
C389 H368 0.950 . S
C389 C388 1.373 1_556 S
C389 C405 1.377 . S
C390 C388 1.389 . S
C390 C391 1.524 . S
C390 C404 1.377 1_554 S
C391 C390 1.524 . S
C391 C392 1.397 . S
C391 C396 1.363 . S
C392 H369 0.950 . S
C392 C391 1.397 . S
C392 C393 1.334 . S
C393 H370 0.950 . S
C393 C392 1.334 . S
C393 C394 1.287 . S
C394 C393 1.287 . S
C394 C395 1.524 . S
C394 H413 0.913 . S
C395 H371 0.950 . S
C395 C394 1.524 . S
C395 C396 1.415 . S
C396 H372 0.950 . S
C396 C391 1.363 . S
C396 C395 1.415 . S
C397 H373 0.951 . S
C397 C398 1.366 . S
C397 C399 1.388 . S
C398 C397 1.366 . S
C398 C402 1.385 . S
C399 H374 0.951 . S
C399 C397 1.388 . S
C399 C400 1.366 . S
C400 C399 1.366 . S
C400 C401 1.414 . S
C400 C403 1.499 . S
C401 H375 0.950 . S
C401 C400 1.414 . S
C401 C402 1.374 . S
C402 H376 0.950 . S
C402 C398 1.385 . S
C402 C401 1.374 . S
C403 C400 1.499 . S
C403 C404 1.373 . S
C403 C405 1.389 . S
C404 H377 0.950 . S
C404 C390 1.377 1_556 S
C404 C403 1.373 . S
C405 C389 1.377 . S
C405 C403 1.389 . S
C405 C406 1.524 . S
C406 C405 1.524 . S
C406 C407 1.397 . S
C406 C411 1.363 . S
C407 H378 0.950 . S
C407 C406 1.397 . S
C407 C408 1.334 . S
C408 H379 0.950 . S
C408 C407 1.334 . S
C408 C409 1.287 . S
C409 C408 1.287 . S
C409 C410 1.524 . S
C409 H412 0.999 . S
C410 H380 0.950 . S
C410 C409 1.524 . S
C410 C411 1.415 . S
C411 H381 0.950 . S
C411 C406 1.363 . S
C411 C410 1.415 . S
H412 C409 0.999 . S
H413 C394 0.913 . S
H414 C432 0.951 . S
H415 C434 0.951 . S
H416 C436 0.950 . S
H417 C437 0.950 . S
H418 C439 0.950 . S
H419 C442 0.950 . S
H420 C443 0.950 . S
H421 C445 0.950 . S
H422 C446 0.950 . S
H423 C447 0.951 . S
H424 C449 0.951 . S
H425 C451 0.950 . S
H426 C452 0.950 . S
H427 C454 0.950 . S
H428 C457 0.950 . S
H429 C458 0.950 . S
H430 C460 0.950 . S
H431 C461 0.950 . S
C432 H414 0.951 . S
C432 C433 1.366 . S
C432 C434 1.388 . S
C433 C432 1.366 . S
C433 C437 1.385 . S
C434 H415 0.951 . S
C434 C432 1.388 . S
C434 C435 1.366 . S
C435 C434 1.366 . S
C435 C436 1.414 . S
C435 C438 1.499 . S
C436 H416 0.950 . S
C436 C435 1.414 . S
C436 C437 1.374 . S
C437 H417 0.950 . S
C437 C433 1.385 . S
C437 C436 1.374 . S
C438 C435 1.499 . S
C438 C439 1.373 . S
C438 C440 1.389 . S
C439 H418 0.950 . S
C439 C438 1.373 . S
C439 C455 1.377 . S
C440 C438 1.389 . S
C440 C441 1.524 . S
C440 C454 1.377 . S
C441 C440 1.524 . S
C441 C442 1.397 . S
C441 C446 1.363 . S
C442 H419 0.950 . S
C442 C441 1.397 . S
C442 C443 1.334 . S
C443 H420 0.950 . S
C443 C442 1.334 . S
C443 C444 1.287 . S
C444 C443 1.287 . S
C444 C445 1.524 . S
C444 H463 0.913 . S
C445 H421 0.950 . S
C445 C444 1.524 . S
C445 C446 1.415 . S
C446 H422 0.950 . S
C446 C441 1.363 . S
C446 C445 1.415 . S
C447 H423 0.951 . S
C447 C448 1.366 . S
C447 C449 1.388 . S
C448 C447 1.366 . S
C448 C452 1.385 . S
C449 H424 0.951 . S
C449 C447 1.388 . S
C449 C450 1.366 . S
C450 C449 1.366 . S
C450 C451 1.414 . S
C450 C453 1.499 . S
C451 H425 0.950 . S
C451 C450 1.414 . S
C451 C452 1.374 . S
C452 H426 0.950 . S
C452 C448 1.385 . S
C452 C451 1.374 . S
C453 C450 1.499 . S
C453 C454 1.373 . S
C453 C455 1.389 . S
C454 H427 0.950 . S
C454 C440 1.377 . S
C454 C453 1.373 . S
C455 C439 1.377 . S
C455 C453 1.389 . S
C455 C456 1.524 . S
C456 C455 1.524 . S
C456 C457 1.397 . S
C456 C461 1.363 . S
C457 H428 0.950 . S
C457 C456 1.397 . S
C457 C458 1.334 . S
C458 H429 0.950 . S
C458 C457 1.334 . S
C458 C459 1.287 . S
C459 C458 1.287 . S
C459 C460 1.524 . S
C459 H462 0.999 . S
C460 H430 0.950 . S
C460 C459 1.524 . S
C460 C461 1.415 . S
C461 H431 0.950 . S
C461 C456 1.363 . S
C461 C460 1.415 . S
H462 C459 0.999 . S
H463 C444 0.913 . S
H464 C482 0.951 . S
H465 C484 0.951 . S
H466 C486 0.950 . S
H467 C487 0.950 . S
H468 C489 0.950 . S
H469 C492 0.962 . S
H470 C493 0.950 . S
H471 C495 0.950 . S
H472 C496 0.950 . S
H473 C497 0.951 . S
H474 C499 0.951 . S
H475 C501 0.950 . S
H476 C502 0.950 . S
H477 C504 0.950 . S
H478 C507 0.950 1_554 S
H479 C508 0.950 . S
H480 C510 0.950 . S
H481 C511 0.950 . S
C482 H464 0.951 . S
C482 C483 1.366 . S
C482 C484 1.388 . S
C483 C482 1.366 . S
C483 C487 1.385 . S
C484 H465 0.951 . S
C484 C482 1.388 . S
C484 C485 1.366 . S
C485 C484 1.366 . S
C485 C486 1.414 . S
C485 C488 1.499 . S
C486 H466 0.950 . S
C486 C485 1.414 . S
C486 C487 1.374 . S
C487 H467 0.950 . S
C487 C483 1.385 . S
C487 C486 1.374 . S
C488 C485 1.499 . S
C488 C489 1.373 . S
C488 C490 1.389 . S
C489 H468 0.950 . S
C489 C488 1.373 . S
C489 C505 1.377 1_554 S
C490 C488 1.389 . S
C490 C491 1.524 . S
C490 C504 1.377 1_554 S
C491 C490 1.524 . S
C491 C492 1.397 . S
C491 C496 1.363 . S
C492 H469 0.962 . S
C492 C491 1.397 . S
C492 C493 1.334 . S
C493 H470 0.950 . S
C493 C492 1.334 . S
C493 C494 1.287 . S
C494 C493 1.287 . S
C494 C495 1.524 . S
C494 H513 0.913 . S
C495 H471 0.950 . S
C495 C494 1.524 . S
C495 C496 1.415 . S
C496 H472 0.950 . S
C496 C491 1.363 . S
C496 C495 1.415 . S
C497 H473 0.951 . S
C497 C498 1.366 . S
C497 C499 1.388 . S
C498 C497 1.366 . S
C498 C502 1.385 . S
C499 H474 0.951 . S
C499 C497 1.388 . S
C499 C500 1.366 . S
C500 C499 1.366 . S
C500 C501 1.414 . S
C500 C503 1.499 . S
C501 H475 0.950 . S
C501 C500 1.414 . S
C501 C502 1.374 . S
C502 H476 0.950 . S
C502 C498 1.385 . S
C502 C501 1.374 . S
C503 C500 1.499 . S
C503 C504 1.373 . S
C503 C505 1.389 . S
C504 H477 0.950 . S
C504 C490 1.377 1_556 S
C504 C503 1.373 . S
C505 C489 1.377 1_556 S
C505 C503 1.389 . S
C505 C506 1.524 . S
C506 C505 1.524 . S
C506 C507 1.397 . S
C506 C511 1.363 . S
C507 H478 0.950 1_556 S
C507 C506 1.397 . S
C507 C508 1.334 . S
C508 H479 0.950 . S
C508 C507 1.334 . S
C508 C509 1.287 . S
C509 C508 1.287 . S
C509 C510 1.524 . S
C509 H512 0.999 . S
C510 H480 0.950 . S
C510 C509 1.524 . S
C510 C511 1.415 . S
C511 H481 0.950 . S
C511 C506 1.363 . S
C511 C510 1.415 . S
H512 C509 0.999 . S
H513 C494 0.913 . S
H514 C532 0.951 . S
H515 C534 0.951 . S
H516 C536 0.950 . S
H517 C537 0.950 . S
H518 C539 0.950 . S
H519 C542 0.950 . S
H520 C543 0.950 . S
H521 C545 0.950 . S
H522 C546 0.950 . S
H523 C547 0.951 . S
H524 C549 0.951 . S
H525 C551 0.950 . S
H526 C552 0.950 . S
H527 C554 0.950 . S
H528 C557 0.950 . S
H529 C558 0.950 . S
H530 C560 0.950 . S
H531 C561 0.950 . S
C532 H514 0.951 . S
C532 C533 1.366 . S
C532 C534 1.388 . S
C533 C532 1.366 . S
C533 C537 1.385 . S
C534 H515 0.951 . S
C534 C532 1.388 . S
C534 C535 1.366 . S
C535 C534 1.366 . S
C535 C536 1.414 . S
C535 C538 1.499 . S
C536 H516 0.950 . S
C536 C535 1.414 . S
C536 C537 1.374 . S
C537 H517 0.950 . S
C537 C533 1.385 . S
C537 C536 1.374 . S
C538 C535 1.499 . S
C538 C539 1.373 . S
C538 C540 1.389 . S
C539 H518 0.950 . S
C539 C538 1.373 . S
C539 C555 1.377 . S
C540 C538 1.389 . S
C540 C541 1.524 . S
C540 C554 1.377 . S
C541 C540 1.524 . S
C541 C542 1.397 . S
C541 C546 1.363 . S
C542 H519 0.950 . S
C542 C541 1.397 . S
C542 C543 1.334 . S
C543 H520 0.950 . S
C543 C542 1.334 . S
C543 C544 1.287 . S
C544 C543 1.287 . S
C544 C545 1.524 . S
C544 H563 0.913 . S
C545 H521 0.950 . S
C545 C544 1.524 . S
C545 C546 1.415 . S
C546 H522 0.950 . S
C546 C541 1.363 . S
C546 C545 1.415 . S
C547 H523 0.951 . S
C547 C548 1.366 . S
C547 C549 1.388 . S
C548 C547 1.366 . S
C548 C552 1.385 . S
C549 H524 0.951 . S
C549 C547 1.388 . S
C549 C550 1.366 . S
C550 C549 1.366 . S
C550 C551 1.414 . S
C550 C553 1.499 . S
C551 H525 0.950 . S
C551 C550 1.414 . S
C551 C552 1.374 . S
C552 H526 0.950 . S
C552 C548 1.385 . S
C552 C551 1.374 . S
C553 C550 1.499 . S
C553 C554 1.373 . S
C553 C555 1.389 . S
C554 H527 0.950 . S
C554 C540 1.377 . S
C554 C553 1.373 . S
C555 C539 1.377 . S
C555 C553 1.389 . S
C555 C556 1.524 . S
C556 C555 1.524 . S
C556 C557 1.397 . S
C556 C561 1.363 . S
C557 H528 0.950 . S
C557 C556 1.397 . S
C557 C558 1.334 . S
C558 H529 0.950 . S
C558 C557 1.334 . S
C558 C559 1.287 . S
C559 C558 1.287 . S
C559 C560 1.524 . S
C559 H562 0.999 . S
C560 H530 0.950 . S
C560 C559 1.524 . S
C560 C561 1.415 . S
C561 H531 0.950 . S
C561 C556 1.363 . S
C561 C560 1.415 . S
H562 C559 0.999 . S
H563 C544 0.913 . S
H564 C582 0.951 . S
H565 C584 0.951 . S
H566 C586 0.950 . S
H567 C587 0.950 . S
H568 C589 0.950 . S
H569 C592 0.950 . S
H570 C593 0.950 . S
H571 C595 0.950 . S
H572 C596 0.950 . S
H573 C597 0.951 . S
H574 C599 0.951 . S
H575 C601 0.950 . S
H576 C602 0.950 . S
H577 C604 0.950 . S
H578 C607 0.950 . S
H579 C608 0.950 . S
H580 C610 0.950 . S
H581 C611 0.950 . S
C582 H564 0.951 . S
C582 C583 1.366 . S
C582 C584 1.388 . S
C583 C582 1.366 . S
C583 C587 1.385 . S
C584 H565 0.951 . S
C584 C582 1.388 . S
C584 C585 1.366 . S
C585 C584 1.366 . S
C585 C586 1.414 . S
C585 C588 1.499 . S
C586 H566 0.950 . S
C586 C585 1.414 . S
C586 C587 1.374 . S
C587 H567 0.950 . S
C587 C583 1.385 . S
C587 C586 1.374 . S
C588 C585 1.499 . S
C588 C589 1.373 . S
C588 C590 1.389 1_554 S
C589 H568 0.950 . S
C589 C588 1.373 . S
C589 C605 1.377 . S
C590 C588 1.389 1_556 S
C590 C591 1.524 . S
C590 C604 1.377 . S
C591 C590 1.524 . S
C591 C592 1.397 . S
C591 C596 1.363 . S
C592 H569 0.950 . S
C592 C591 1.397 . S
C592 C593 1.334 . S
C593 H570 0.950 . S
C593 C592 1.334 . S
C593 C594 1.287 . S
C594 C593 1.287 . S
C594 C595 1.524 . S
C594 H613 0.913 . S
C595 H571 0.950 . S
C595 C594 1.524 . S
C595 C596 1.415 . S
C596 H572 0.950 . S
C596 C591 1.363 . S
C596 C595 1.415 . S
C597 H573 0.951 . S
C597 C598 1.366 . S
C597 C599 1.388 . S
C598 C597 1.366 . S
C598 C602 1.385 . S
C599 H574 0.951 . S
C599 C597 1.388 . S
C599 C600 1.366 . S
C600 C599 1.366 . S
C600 C601 1.414 . S
C600 C603 1.499 . S
C601 H575 0.950 . S
C601 C600 1.414 . S
C601 C602 1.374 . S
C602 H576 0.950 . S
C602 C598 1.385 . S
C602 C601 1.374 . S
C603 C600 1.499 . S
C603 C604 1.373 . S
C603 C605 1.389 1_556 S
C604 H577 0.950 . S
C604 C590 1.377 . S
C604 C603 1.373 . S
C605 C589 1.377 . S
C605 C603 1.389 1_554 S
C605 C606 1.524 . S
C606 C605 1.524 . S
C606 C607 1.397 . S
C606 C611 1.363 . S
C607 H578 0.950 . S
C607 C606 1.397 . S
C607 C608 1.334 . S
C608 H579 0.950 . S
C608 C607 1.334 . S
C608 C609 1.287 . S
C609 C608 1.287 . S
C609 C610 1.524 . S
C609 H612 0.999 . S
C610 H580 0.950 . S
C610 C609 1.524 . S
C610 C611 1.415 . S
C611 H581 0.950 . S
C611 C606 1.363 . S
C611 C610 1.415 . S
H612 C609 0.999 . S
H613 C594 0.913 . S
H614 C632 0.951 . S
H615 C634 0.951 . S
H616 C636 0.950 . S
H617 C637 0.950 . S
H618 C639 0.950 . S
H619 C642 0.950 . S
H620 C643 0.950 . S
H621 C645 0.950 . S
H622 C646 0.950 . S
H623 C647 0.951 . S
H624 C649 0.951 . S
H625 C651 0.950 . S
H626 C652 0.950 . S
H627 C654 0.950 . S
H628 C657 0.950 . S
H629 C658 0.950 . S
H630 C660 0.950 . S
H631 C661 0.950 . S
C632 H614 0.951 . S
C632 C633 1.366 . S
C632 C634 1.388 . S
C633 C632 1.366 . S
C633 C637 1.385 . S
C634 H615 0.951 . S
C634 C632 1.388 . S
C634 C635 1.366 . S
C635 C634 1.366 . S
C635 C636 1.414 . S
C635 C638 1.499 . S
C636 H616 0.950 . S
C636 C635 1.414 . S
C636 C637 1.374 . S
C637 H617 0.950 . S
C637 C633 1.385 . S
C637 C636 1.374 . S
C638 C635 1.499 . S
C638 C639 1.373 . S
C638 C640 1.389 . S
C639 H618 0.950 . S
C639 C638 1.373 . S
C639 C655 1.377 . S
C640 C638 1.389 . S
C640 C641 1.524 . S
C640 C654 1.377 . S
C641 C640 1.524 . S
C641 C642 1.397 . S
C641 C646 1.363 . S
C642 H619 0.950 . S
C642 C641 1.397 . S
C642 C643 1.334 . S
C643 H620 0.950 . S
C643 C642 1.334 . S
C643 C644 1.287 . S
C644 C643 1.287 . S
C644 C645 1.524 . S
C644 H663 0.913 . S
C645 H621 0.950 . S
C645 C644 1.524 . S
C645 C646 1.415 . S
C646 H622 0.950 . S
C646 C641 1.363 . S
C646 C645 1.415 . S
C647 H623 0.951 . S
C647 C648 1.366 . S
C647 C649 1.388 . S
C648 C647 1.366 . S
C648 C652 1.385 . S
C649 H624 0.951 . S
C649 C647 1.388 . S
C649 C650 1.366 . S
C650 C649 1.366 . S
C650 C651 1.414 . S
C650 C653 1.499 . S
C651 H625 0.950 . S
C651 C650 1.414 . S
C651 C652 1.374 . S
C652 H626 0.950 . S
C652 C648 1.385 . S
C652 C651 1.374 . S
C653 C650 1.499 . S
C653 C654 1.373 . S
C653 C655 1.389 . S
C654 H627 0.950 . S
C654 C640 1.377 . S
C654 C653 1.373 . S
C655 C639 1.377 . S
C655 C653 1.389 . S
C655 C656 1.524 . S
C656 C655 1.524 . S
C656 C657 1.397 . S
C656 C661 1.363 . S
C657 H628 0.950 . S
C657 C656 1.397 . S
C657 C658 1.334 . S
C658 H629 0.950 . S
C658 C657 1.334 . S
C658 C659 1.287 . S
C659 C658 1.287 . S
C659 C660 1.524 . S
C659 H662 0.999 . S
C660 H630 0.950 . S
C660 C659 1.524 . S
C660 C661 1.415 . S
C661 H631 0.950 . S
C661 C656 1.363 . S
C661 C660 1.415 . S
H662 C659 0.999 . S
H663 C644 0.913 . S
H664 C682 0.951 . S
H665 C684 0.951 . S
H666 C686 0.950 . S
H667 C687 0.950 . S
H668 C689 0.950 . S
H669 C692 0.950 . S
H670 C693 0.950 . S
H671 C695 0.950 . S
H672 C696 0.950 . S
H673 C697 0.951 . S
H674 C699 0.951 . S
H675 C701 0.949 1_655 S
H676 C702 0.948 1_655 S
H677 C704 0.950 . S
H678 C707 0.950 . S
H679 C708 0.950 . S
H680 C710 0.950 . S
H681 C711 0.950 . S
C682 H664 0.951 . S
C682 C683 1.366 . S
C682 C684 1.388 . S
C683 C682 1.366 . S
C683 C687 1.385 . S
C684 H665 0.951 . S
C684 C682 1.388 . S
C684 C685 1.366 . S
C685 C684 1.366 . S
C685 C686 1.414 . S
C685 C688 1.499 . S
C686 H666 0.950 . S
C686 C685 1.414 . S
C686 C687 1.374 . S
C687 H667 0.950 . S
C687 C683 1.385 . S
C687 C686 1.374 . S
C688 C685 1.499 . S
C688 C689 1.373 1_455 S
C688 C690 1.389 . S
C689 H668 0.950 . S
C689 C688 1.373 1_655 S
C689 C705 1.377 . S
C690 C688 1.389 . S
C690 C691 1.524 . S
C690 C704 1.377 . S
C691 C690 1.524 . S
C691 C692 1.397 . S
C691 C696 1.363 . S
C692 H669 0.950 . S
C692 C691 1.397 . S
C692 C693 1.334 . S
C693 H670 0.950 . S
C693 C692 1.334 . S
C693 C694 1.287 . S
C694 C693 1.287 . S
C694 C695 1.524 . S
C694 H713 0.913 . S
C695 H671 0.950 . S
C695 C694 1.524 . S
C695 C696 1.415 . S
C696 H672 0.950 . S
C696 C691 1.363 . S
C696 C695 1.415 . S
C697 H673 0.951 . S
C697 C698 1.366 . S
C697 C699 1.388 . S
C698 C697 1.366 . S
C698 C702 1.387 . S
C699 H674 0.951 . S
C699 C697 1.388 . S
C699 C700 1.366 . S
C700 C699 1.366 . S
C700 C701 1.416 . S
C700 C703 1.499 . S
C701 H675 0.949 1_455 S
C701 C700 1.416 . S
C701 C702 1.374 . S
C702 H676 0.948 1_455 S
C702 C698 1.387 . S
C702 C701 1.374 . S
C703 C700 1.499 . S
C703 C704 1.373 . S
C703 C705 1.389 1_455 S
C704 H677 0.950 . S
C704 C690 1.377 . S
C704 C703 1.373 . S
C705 C689 1.377 . S
C705 C703 1.389 1_655 S
C705 C706 1.524 . S
C706 C705 1.524 . S
C706 C707 1.397 . S
C706 C711 1.363 . S
C707 H678 0.950 . S
C707 C706 1.397 . S
C707 C708 1.334 . S
C708 H679 0.950 . S
C708 C707 1.334 . S
C708 C709 1.287 . S
C709 C708 1.287 . S
C709 C710 1.524 . S
C709 H712 0.999 . S
C710 H680 0.950 . S
C710 C709 1.524 . S
C710 C711 1.415 . S
C711 H681 0.950 . S
C711 C706 1.363 . S
C711 C710 1.415 . S
H712 C709 0.999 . S
H713 C694 0.913 . S
H714 C732 0.951 . S
H715 C734 0.951 . S
H716 C736 0.950 . S
H717 C737 0.950 . S
H718 C739 0.950 . S
H719 C742 0.950 . S
H720 C743 0.950 . S
H721 C745 0.950 . S
H722 C746 0.950 . S
H723 C747 0.951 . S
H724 C749 0.951 . S
H725 C751 0.950 . S
H726 C752 0.950 . S
H727 C754 0.950 . S
H728 C757 0.950 . S
H729 C758 0.950 . S
H730 C760 0.950 . S
H731 C761 0.950 . S
C732 H714 0.951 . S
C732 C733 1.366 . S
C732 C734 1.388 . S
C733 C732 1.366 . S
C733 C737 1.385 . S
C734 H715 0.951 . S
C734 C732 1.388 . S
C734 C735 1.366 . S
C735 C734 1.366 . S
C735 C736 1.414 . S
C735 C738 1.499 . S
C736 H716 0.950 . S
C736 C735 1.414 . S
C736 C737 1.374 . S
C737 H717 0.950 . S
C737 C733 1.385 . S
C737 C736 1.374 . S
C738 C735 1.499 . S
C738 C739 1.373 . S
C738 C740 1.389 . S
C739 H718 0.950 . S
C739 C738 1.373 . S
C739 C755 1.377 . S
C740 C738 1.389 . S
C740 C741 1.524 . S
C740 C754 1.377 . S
C741 C740 1.524 . S
C741 C742 1.397 . S
C741 C746 1.363 . S
C742 H719 0.950 . S
C742 C741 1.397 . S
C742 C743 1.334 . S
C743 H720 0.950 . S
C743 C742 1.334 . S
C743 C744 1.287 . S
C744 C743 1.287 . S
C744 C745 1.524 . S
C744 H763 0.913 . S
C745 H721 0.950 . S
C745 C744 1.524 . S
C745 C746 1.415 . S
C746 H722 0.950 . S
C746 C741 1.363 . S
C746 C745 1.415 . S
C747 H723 0.951 . S
C747 C748 1.366 . S
C747 C749 1.388 . S
C748 C747 1.366 . S
C748 C752 1.385 . S
C749 H724 0.951 . S
C749 C747 1.388 . S
C749 C750 1.366 . S
C750 C749 1.366 . S
C750 C751 1.414 . S
C750 C753 1.499 . S
C751 H725 0.950 . S
C751 C750 1.414 . S
C751 C752 1.374 . S
C752 H726 0.950 . S
C752 C748 1.385 . S
C752 C751 1.374 . S
C753 C750 1.499 . S
C753 C754 1.373 . S
C753 C755 1.389 . S
C754 H727 0.950 . S
C754 C740 1.377 . S
C754 C753 1.373 . S
C755 C739 1.377 . S
C755 C753 1.389 . S
C755 C756 1.524 . S
C756 C755 1.524 . S
C756 C757 1.397 . S
C756 C761 1.363 . S
C757 H728 0.950 . S
C757 C756 1.397 . S
C757 C758 1.334 . S
C758 H729 0.950 . S
C758 C757 1.334 . S
C758 C759 1.287 . S
C759 C758 1.287 . S
C759 C760 1.524 . S
C759 H762 0.999 . S
C760 H730 0.950 . S
C760 C759 1.524 . S
C760 C761 1.415 . S
C761 H731 0.950 . S
C761 C756 1.363 . S
C761 C760 1.415 . S
H762 C759 0.999 . S
H763 C744 0.913 . S
H764 C782 0.951 . S
H765 C784 0.951 . S
H766 C786 0.950 . S
H767 C787 0.950 . S
H768 C789 0.950 . S
H769 C792 0.950 . S
H770 C793 0.950 . S
H771 C795 0.950 . S
H772 C796 0.950 . S
H773 C797 0.951 . S
H774 C799 0.951 . S
H775 C801 0.950 . S
H776 C802 0.950 . S
H777 C804 0.950 . S
H778 C807 0.950 . S
H779 C808 0.950 . S
H780 C810 0.950 . S
H781 C811 0.950 . S
C782 H764 0.951 . S
C782 C783 1.366 . S
C782 C784 1.388 . S
C783 C782 1.366 . S
C783 C787 1.385 1_455 S
C784 H765 0.951 . S
C784 C782 1.388 . S
C784 C785 1.366 . S
C785 C784 1.366 . S
C785 C786 1.414 1_455 S
C785 C788 1.499 . S
C786 H766 0.950 . S
C786 C785 1.414 1_655 S
C786 C787 1.374 . S
C787 H767 0.950 . S
C787 C783 1.385 1_655 S
C787 C786 1.374 . S
C788 C785 1.499 . S
C788 C789 1.373 1_455 S
C788 C790 1.389 . S
C789 H768 0.950 . S
C789 C788 1.373 1_655 S
C789 C805 1.377 . S
C790 C788 1.389 . S
C790 C791 1.524 . S
C790 C804 1.377 . S
C791 C790 1.524 . S
C791 C792 1.397 . S
C791 C796 1.363 . S
C792 H769 0.950 . S
C792 C791 1.397 . S
C792 C793 1.334 . S
C793 H770 0.950 . S
C793 C792 1.334 . S
C793 C794 1.287 . S
C794 C793 1.287 . S
C794 C795 1.524 . S
C794 H813 0.913 . S
C795 H771 0.950 . S
C795 C794 1.524 . S
C795 C796 1.415 . S
C796 H772 0.950 . S
C796 C791 1.363 . S
C796 C795 1.415 . S
C797 H773 0.951 . S
C797 C798 1.366 1_655 S
C797 C799 1.388 . S
C798 C797 1.366 1_455 S
C798 C802 1.385 . S
C799 H774 0.951 . S
C799 C797 1.388 . S
C799 C800 1.366 1_655 S
C800 C799 1.366 1_455 S
C800 C801 1.414 . S
C800 C803 1.499 . S
C801 H775 0.950 . S
C801 C800 1.414 . S
C801 C802 1.374 . S
C802 H776 0.950 . S
C802 C798 1.385 . S
C802 C801 1.374 . S
C803 C800 1.499 . S
C803 C804 1.373 . S
C803 C805 1.389 1_455 S
C804 H777 0.950 . S
C804 C790 1.377 . S
C804 C803 1.373 . S
C805 C789 1.377 . S
C805 C803 1.389 1_655 S
C805 C806 1.524 . S
C806 C805 1.524 . S
C806 C807 1.397 . S
C806 C811 1.363 . S
C807 H778 0.950 . S
C807 C806 1.397 . S
C807 C808 1.334 . S
C808 H779 0.950 . S
C808 C807 1.334 . S
C808 C809 1.287 . S
C809 C808 1.287 . S
C809 C810 1.524 . S
C809 H812 0.999 . S
C810 H780 0.950 . S
C810 C809 1.524 . S
C810 C811 1.415 . S
C811 H781 0.950 . S
C811 C806 1.363 . S
C811 C810 1.415 . S
H812 C809 0.999 . S
H813 C794 0.913 . S
H814 C832 0.951 . S
H815 C834 0.951 . S
H816 C836 0.950 . S
H817 C837 0.950 . S
H818 C839 0.950 . S
H819 C842 0.950 . S
H820 C843 0.950 . S
H821 C845 0.950 . S
H822 C846 0.950 . S
H823 C847 0.951 . S
H824 C849 0.951 . S
H825 C851 0.950 . S
H826 C852 0.950 . S
H827 C854 0.950 . S
H828 C857 0.950 . S
H829 C858 0.950 . S
H830 C860 0.950 . S
H831 C861 0.950 . S
C832 H814 0.951 . S
C832 C833 1.366 . S
C832 C834 1.388 . S
C833 C832 1.366 . S
C833 C837 1.385 . S
C834 H815 0.951 . S
C834 C832 1.388 . S
C834 C835 1.366 . S
C835 C834 1.366 . S
C835 C836 1.414 . S
C835 C838 1.499 . S
C836 H816 0.950 . S
C836 C835 1.414 . S
C836 C837 1.374 . S
C837 H817 0.950 . S
C837 C833 1.385 . S
C837 C836 1.374 . S
C838 C835 1.499 . S
C838 C839 1.373 . S
C838 C840 1.389 . S
C839 H818 0.950 . S
C839 C838 1.373 . S
C839 C855 1.377 . S
C840 C838 1.389 . S
C840 C841 1.524 . S
C840 C854 1.377 . S
C841 C840 1.524 . S
C841 C842 1.397 . S
C841 C846 1.363 . S
C842 H819 0.950 . S
C842 C841 1.397 . S
C842 C843 1.334 . S
C843 H820 0.950 . S
C843 C842 1.334 . S
C843 C844 1.287 . S
C844 C843 1.287 . S
C844 C845 1.524 . S
C844 H863 0.913 . S
C845 H821 0.950 . S
C845 C844 1.524 . S
C845 C846 1.415 . S
C846 H822 0.950 . S
C846 C841 1.363 . S
C846 C845 1.415 . S
C847 H823 0.951 . S
C847 C848 1.366 . S
C847 C849 1.388 . S
C848 C847 1.366 . S
C848 C852 1.385 . S
C849 H824 0.951 . S
C849 C847 1.388 . S
C849 C850 1.366 . S
C850 C849 1.366 . S
C850 C851 1.414 . S
C850 C853 1.499 . S
C851 H825 0.950 . S
C851 C850 1.414 . S
C851 C852 1.374 . S
C852 H826 0.950 . S
C852 C848 1.385 . S
C852 C851 1.374 . S
C853 C850 1.499 . S
C853 C854 1.373 . S
C853 C855 1.389 . S
C854 H827 0.950 . S
C854 C840 1.377 . S
C854 C853 1.373 . S
C855 C839 1.377 . S
C855 C853 1.389 . S
C855 C856 1.524 . S
C856 C855 1.524 . S
C856 C857 1.397 . S
C856 C861 1.363 . S
C857 H828 0.950 . S
C857 C856 1.397 . S
C857 C858 1.334 . S
C858 H829 0.950 . S
C858 C857 1.334 . S
C858 C859 1.287 . S
C859 C858 1.287 . S
C859 C860 1.524 . S
C859 H862 0.999 . S
C860 H830 0.950 . S
C860 C859 1.524 . S
C860 C861 1.415 . S
C861 H831 0.950 . S
C861 C856 1.363 . S
C861 C860 1.415 . S
H862 C859 0.999 . S
H863 C844 0.913 . S
H864 C882 0.951 . S
H865 C884 0.951 . S
H866 C886 0.950 . S
H867 C887 0.950 . S
H868 C889 0.948 1_565 S
H869 C892 0.950 . S
H870 C893 0.950 . S
H871 C895 0.950 . S
H872 C896 0.950 . S
H873 C897 0.951 . S
H874 C899 0.951 . S
H875 C901 0.950 . S
H876 C902 0.950 . S
H877 C904 0.950 . S
H878 C907 0.950 . S
H879 C908 0.950 . S
H880 C910 0.950 . S
H881 C911 0.950 . S
C882 H864 0.951 . S
C882 C883 1.366 . S
C882 C884 1.388 . S
C883 C882 1.366 . S
C883 C887 1.385 . S
C884 H865 0.951 . S
C884 C882 1.388 . S
C884 C885 1.366 . S
C885 C884 1.366 . S
C885 C886 1.414 . S
C885 C888 1.499 . S
C886 H866 0.950 . S
C886 C885 1.414 . S
C886 C887 1.374 . S
C887 H867 0.950 . S
C887 C883 1.385 . S
C887 C886 1.374 . S
C888 C885 1.499 . S
C888 C889 1.361 1_565 S
C888 C890 1.389 . S
C889 H868 0.948 1_545 S
C889 C888 1.361 1_545 S
C889 C905 1.391 . S
C890 C888 1.389 . S
C890 C891 1.524 . S
C890 C904 1.377 1_565 S
C891 C890 1.524 . S
C891 C892 1.397 . S
C891 C896 1.363 . S
C892 H869 0.950 . S
C892 C891 1.397 . S
C892 C893 1.334 . S
C893 H870 0.950 . S
C893 C892 1.334 . S
C893 C894 1.287 . S
C894 C893 1.287 . S
C894 C895 1.524 . S
C894 H913 0.913 . S
C895 H871 0.950 . S
C895 C894 1.524 . S
C895 C896 1.415 . S
C896 H872 0.950 . S
C896 C891 1.363 . S
C896 C895 1.415 . S
C897 H873 0.951 . S
C897 C898 1.366 . S
C897 C899 1.388 . S
C898 C897 1.366 . S
C898 C902 1.385 . S
C899 H874 0.951 . S
C899 C897 1.388 . S
C899 C900 1.366 . S
C900 C899 1.366 . S
C900 C901 1.414 . S
C900 C903 1.499 . S
C901 H875 0.950 . S
C901 C900 1.414 . S
C901 C902 1.374 . S
C902 H876 0.950 . S
C902 C898 1.385 . S
C902 C901 1.374 . S
C903 C900 1.499 . S
C903 C904 1.373 . S
C903 C905 1.389 . S
C904 H877 0.950 . S
C904 C890 1.377 1_545 S
C904 C903 1.373 . S
C905 C889 1.391 . S
C905 C903 1.389 . S
C905 C906 1.524 . S
C906 C905 1.524 . S
C906 C907 1.397 . S
C906 C911 1.363 . S
C907 H878 0.950 . S
C907 C906 1.397 . S
C907 C908 1.334 . S
C908 H879 0.950 . S
C908 C907 1.334 . S
C908 C909 1.287 . S
C909 C908 1.287 . S
C909 C910 1.524 . S
C909 H912 0.999 . S
C910 H880 0.950 . S
C910 C909 1.524 . S
C910 C911 1.415 . S
C911 H881 0.950 . S
C911 C906 1.363 . S
C911 C910 1.415 . S
H912 C909 0.999 . S
H913 C894 0.913 . S
H914 C932 0.951 . S
H915 C934 0.951 . S
H916 C936 0.950 . S
H917 C937 0.950 . S
H918 C939 0.950 . S
H919 C942 0.950 . S
H920 C943 0.950 . S
H921 C945 0.950 . S
H922 C946 0.950 . S
H923 C947 0.951 . S
H924 C949 0.951 . S
H925 C951 0.950 . S
H926 C952 0.950 . S
H927 C954 0.950 . S
H928 C957 0.950 . S
H929 C958 0.950 . S
H930 C960 0.950 . S
H931 C961 0.950 . S
C932 H914 0.951 . S
C932 C933 1.366 . S
C932 C934 1.388 . S
C933 C932 1.366 . S
C933 C937 1.385 . S
C934 H915 0.951 . S
C934 C932 1.388 . S
C934 C935 1.366 . S
C935 C934 1.366 . S
C935 C936 1.414 . S
C935 C938 1.499 . S
C936 H916 0.950 . S
C936 C935 1.414 . S
C936 C937 1.374 . S
C937 H917 0.950 . S
C937 C933 1.385 . S
C937 C936 1.374 . S
C938 C935 1.499 . S
C938 C939 1.373 . S
C938 C940 1.389 1_455 S
C939 H918 0.950 . S
C939 C938 1.373 . S
C939 C955 1.377 . S
C940 C938 1.389 1_655 S
C940 C941 1.524 . S
C940 C954 1.377 1_565 S
C941 C940 1.524 . S
C941 C942 1.397 . S
C941 C946 1.363 1_565 S
C942 H919 0.950 . S
C942 C941 1.397 . S
C942 C943 1.334 . S
C943 H920 0.950 . S
C943 C942 1.334 . S
C943 C944 1.287 . S
C944 C943 1.287 . S
C944 C945 1.524 1_565 S
C944 H963 0.913 . S
C945 H921 0.950 . S
C945 C944 1.524 1_545 S
C945 C946 1.415 . S
C946 H922 0.950 . S
C946 C941 1.363 1_545 S
C946 C945 1.415 . S
C947 H923 0.951 . S
C947 C948 1.366 . S
C947 C949 1.388 . S
C948 C947 1.366 . S
C948 C952 1.385 . S
C949 H924 0.951 . S
C949 C947 1.388 . S
C949 C950 1.366 . S
C950 C949 1.366 . S
C950 C951 1.414 . S
C950 C953 1.499 . S
C951 H925 0.950 . S
C951 C950 1.414 . S
C951 C952 1.374 . S
C952 H926 0.950 . S
C952 C948 1.385 . S
C952 C951 1.374 . S
C953 C950 1.499 . S
C953 C954 1.373 1_455 S
C953 C955 1.389 1_545 S
C954 H927 0.950 . S
C954 C940 1.377 1_545 S
C954 C953 1.373 1_655 S
C955 C939 1.377 . S
C955 C953 1.389 1_565 S
C955 C956 1.524 . S
C956 C955 1.524 . S
C956 C957 1.397 1_565 S
C956 C961 1.363 . S
C957 H928 0.950 . S
C957 C956 1.397 1_545 S
C957 C958 1.334 . S
C958 H929 0.950 . S
C958 C957 1.334 . S
C958 C959 1.287 1_545 S
C959 C958 1.287 1_565 S
C959 C960 1.524 . S
C959 H962 0.999 . S
C960 H930 0.950 . S
C960 C959 1.524 . S
C960 C961 1.415 . S
C961 H931 0.950 . S
C961 C956 1.363 . S
C961 C960 1.415 . S
H962 C959 0.999 . S
H963 C944 0.913 . S
H964 C982 0.951 . S
H965 C984 0.951 . S
H966 C986 0.950 . S
H967 C987 0.950 . S
H968 C989 0.950 . S
H969 C992 0.950 . S
H970 C993 0.950 . S
H971 C995 0.950 . S
H972 C996 0.950 . S
H973 C997 0.951 . S
H974 C999 0.951 . S
H975 C1001 0.950 . S
H976 C1002 0.950 . S
H977 C1004 0.950 . S
H978 C1007 0.950 . S
H979 C1008 0.950 . S
H980 C1010 0.950 . S
H981 C1011 0.950 . S
C982 H964 0.951 . S
C982 C983 1.366 . S
C982 C984 1.388 . S
C983 C982 1.366 . S
C983 C987 1.385 . S
C984 H965 0.951 . S
C984 C982 1.388 . S
C984 C985 1.366 . S
C985 C984 1.366 . S
C985 C986 1.414 . S
C985 C988 1.499 . S
C986 H966 0.950 . S
C986 C985 1.414 . S
C986 C987 1.374 . S
C987 H967 0.950 . S
C987 C983 1.385 . S
C987 C986 1.374 . S
C988 C985 1.499 . S
C988 C989 1.373 . S
C988 C990 1.389 . S
C989 H968 0.950 . S
C989 C988 1.373 . S
C989 C1005 1.377 . S
C990 C988 1.389 . S
C990 C991 1.524 . S
C990 C1004 1.377 1_565 S
C991 C990 1.524 . S
C991 C992 1.397 . S
C991 C996 1.363 1_565 S
C992 H969 0.950 . S
C992 C991 1.397 . S
C992 C993 1.334 . S
C993 H970 0.950 . S
C993 C992 1.334 . S
C993 C994 1.287 . S
C994 C993 1.287 . S
C994 C995 1.524 1_565 S
C994 H1013 0.913 . S
C995 H971 0.950 . S
C995 C994 1.524 1_545 S
C995 C996 1.415 . S
C996 H972 0.950 . S
C996 C991 1.363 1_545 S
C996 C995 1.415 . S
C997 H973 0.951 . S
C997 C998 1.366 . S
C997 C999 1.388 . S
C998 C997 1.366 . S
C998 C1002 1.385 . S
C999 H974 0.951 . S
C999 C997 1.388 . S
C999 C1000 1.366 . S
C1000 C999 1.366 . S
C1000 C1001 1.414 . S
C1000 C1003 1.499 . S
C1001 H975 0.950 . S
C1001 C1000 1.414 . S
C1001 C1002 1.374 . S
C1002 H976 0.950 . S
C1002 C998 1.385 . S
C1002 C1001 1.374 . S
C1003 C1000 1.499 . S
C1003 C1004 1.373 . S
C1003 C1005 1.389 1_545 S
C1004 H977 0.950 . S
C1004 C990 1.377 1_545 S
C1004 C1003 1.373 . S
C1005 C989 1.377 . S
C1005 C1003 1.389 1_565 S
C1005 C1006 1.524 1_565 S
C1006 C1005 1.524 1_545 S
C1006 C1007 1.397 . S
C1006 C1011 1.363 1_545 S
C1007 H978 0.950 . S
C1007 C1006 1.397 . S
C1007 C1008 1.334 . S
C1008 H979 0.950 . S
C1008 C1007 1.334 . S
C1008 C1009 1.287 . S
C1009 C1008 1.287 . S
C1009 C1010 1.524 1_545 S
C1009 H1012 0.999 . S
C1010 H980 0.950 . S
C1010 C1009 1.524 1_565 S
C1010 C1011 1.415 . S
C1011 H981 0.950 . S
C1011 C1006 1.363 1_565 S
C1011 C1010 1.415 . S
H1012 C1009 0.999 . S
H1013 C994 0.913 . S
H1014 C1032 0.951 . S
H1015 C1034 0.951 . S
H1016 C1036 0.950 . S
H1017 C1037 0.950 . S
H1018 C1039 0.950 . S
H1019 C1042 0.950 . S
H1020 C1043 0.950 . S
H1021 C1045 0.954 . S
H1022 C1046 0.950 1_565 S
H1023 C1047 0.951 . S
H1024 C1049 0.951 . S
H1025 C1051 0.950 . S
H1026 C1052 0.950 . S
H1027 C1054 0.950 . S
H1028 C1057 0.950 . S
H1029 C1058 0.950 . S
H1030 C1060 0.950 1_545 S
H1031 C1061 0.950 . S
C1032 H1014 0.951 . S
C1032 C1033 1.366 1_655 S
C1032 C1034 1.388 . S
C1033 C1032 1.366 1_455 S
C1033 C1037 1.385 . S
C1034 H1015 0.951 . S
C1034 C1032 1.388 . S
C1034 C1035 1.366 1_655 S
C1035 C1034 1.366 1_455 S
C1035 C1036 1.414 . S
C1035 C1038 1.499 . S
C1036 H1016 0.950 . S
C1036 C1035 1.414 . S
C1036 C1037 1.374 . S
C1037 H1017 0.950 . S
C1037 C1033 1.385 . S
C1037 C1036 1.374 . S
C1038 C1035 1.499 . S
C1038 C1039 1.373 . S
C1038 C1040 1.389 1_455 S
C1039 H1018 0.950 . S
C1039 C1038 1.373 . S
C1039 C1055 1.377 1_545 S
C1040 C1038 1.389 1_655 S
C1040 C1041 1.524 . S
C1040 C1054 1.377 1_545 S
C1041 C1040 1.524 . S
C1041 C1042 1.397 . S
C1041 C1046 1.363 . S
C1042 H1019 0.950 . S
C1042 C1041 1.397 . S
C1042 C1043 1.334 . S
C1043 H1020 0.950 . S
C1043 C1042 1.334 . S
C1043 C1044 1.287 . S
C1044 C1043 1.287 . S
C1044 C1045 1.524 . S
C1044 H1063 0.913 . S
C1045 H1021 0.954 . S
C1045 C1044 1.524 . S
C1045 C1046 1.415 . S
C1046 H1022 0.950 1_545 S
C1046 C1041 1.363 . S
C1046 C1045 1.415 . S
C1047 H1023 0.951 . S
C1047 C1048 1.366 . S
C1047 C1049 1.388 . S
C1048 C1047 1.366 . S
C1048 C1052 1.385 1_455 S
C1049 H1024 0.951 . S
C1049 C1047 1.388 . S
C1049 C1050 1.366 . S
C1050 C1049 1.366 . S
C1050 C1051 1.414 1_455 S
C1050 C1053 1.499 . S
C1051 H1025 0.950 . S
C1051 C1050 1.414 1_655 S
C1051 C1052 1.374 . S
C1052 H1026 0.950 . S
C1052 C1048 1.385 1_655 S
C1052 C1051 1.374 . S
C1053 C1050 1.499 . S
C1053 C1054 1.373 1_455 S
C1053 C1055 1.389 . S
C1054 H1027 0.950 . S
C1054 C1040 1.377 1_565 S
C1054 C1053 1.373 1_655 S
C1055 C1039 1.377 1_565 S
C1055 C1053 1.389 . S
C1055 C1056 1.524 . S
C1056 C1055 1.524 . S
C1056 C1057 1.397 . S
C1056 C1061 1.363 1_565 S
C1057 H1028 0.950 . S
C1057 C1056 1.397 . S
C1057 C1058 1.334 . S
C1058 H1029 0.950 . S
C1058 C1057 1.334 . S
C1058 C1059 1.287 . S
C1059 C1058 1.287 . S
C1059 C1060 1.524 . S
C1059 H1062 0.999 . S
C1060 H1030 0.950 1_565 S
C1060 C1059 1.524 . S
C1060 C1061 1.415 1_565 S
C1061 H1031 0.950 . S
C1061 C1056 1.363 1_545 S
C1061 C1060 1.415 1_545 S
H1062 C1059 0.999 . S
H1063 C1044 0.913 . S
H1064 C1082 0.951 . S
H1065 C1084 0.951 . S
H1066 C1086 0.946 1_655 S
H1067 C1087 0.930 1_655 S
H1068 C1089 0.950 . S
H1069 C1092 0.950 . S
H1070 C1093 0.950 . S
H1071 C1095 0.950 . S
H1072 C1096 0.950 . S
H1073 C1097 0.951 1_655 S
H1074 C1099 0.951 1_655 S
H1075 C1101 0.950 . S
H1076 C1102 0.950 . S
H1077 C1104 0.950 . S
H1078 C1107 0.950 . S
H1079 C1108 0.950 . S
H1080 C1110 0.950 1_655 S
H1081 C1111 0.950 1_655 S
C1082 H1064 0.951 . S
C1082 C1083 1.366 . S
C1082 C1084 1.388 . S
C1083 C1082 1.366 . S
C1083 C1087 1.405 . S
C1084 H1065 0.951 . S
C1084 C1082 1.388 . S
C1084 C1085 1.366 . S
C1085 C1084 1.366 . S
C1085 C1086 1.419 . S
C1085 C1088 1.499 . S
C1086 H1066 0.946 1_455 S
C1086 C1085 1.419 . S
C1086 C1087 1.374 . S
C1087 H1067 0.930 1_455 S
C1087 C1083 1.405 . S
C1087 C1086 1.374 . S
C1088 C1085 1.499 . S
C1088 C1089 1.373 1_556 S
C1088 C1090 1.389 . S
C1089 H1068 0.950 . S
C1089 C1088 1.373 1_554 S
C1089 C1105 1.377 . S
C1090 C1088 1.389 . S
C1090 C1091 1.524 . S
C1090 C1104 1.377 . S
C1091 C1090 1.524 . S
C1091 C1092 1.397 1_455 S
C1091 C1096 1.363 . S
C1092 H1069 0.950 . S
C1092 C1091 1.397 1_655 S
C1092 C1093 1.334 . S
C1093 H1070 0.950 . S
C1093 C1092 1.334 . S
C1093 C1094 1.287 1_655 S
C1094 C1093 1.287 1_455 S
C1094 C1095 1.524 . S
C1094 H1113 0.911 1_455 S
C1095 H1071 0.950 . S
C1095 C1094 1.524 . S
C1095 C1096 1.415 . S
C1096 H1072 0.950 . S
C1096 C1091 1.363 . S
C1096 C1095 1.415 . S
C1097 H1073 0.951 1_455 S
C1097 C1098 1.366 . S
C1097 C1099 1.388 . S
C1098 C1097 1.366 . S
C1098 C1102 1.385 . S
C1099 H1074 0.951 1_455 S
C1099 C1097 1.388 . S
C1099 C1100 1.366 . S
C1100 C1099 1.366 . S
C1100 C1101 1.414 . S
C1100 C1103 1.499 . S
C1101 H1075 0.950 . S
C1101 C1100 1.414 . S
C1101 C1102 1.374 . S
C1102 H1076 0.950 . S
C1102 C1098 1.385 . S
C1102 C1101 1.374 . S
C1103 C1100 1.499 . S
C1103 C1104 1.373 1_554 S
C1103 C1105 1.389 . S
C1104 H1077 0.950 . S
C1104 C1090 1.377 . S
C1104 C1103 1.373 1_556 S
C1105 C1089 1.377 . S
C1105 C1103 1.389 . S
C1105 C1106 1.524 . S
C1106 C1105 1.524 . S
C1106 C1107 1.397 . S
C1106 C1111 1.363 . S
C1107 H1078 0.950 . S
C1107 C1106 1.397 . S
C1107 C1108 1.334 . S
C1108 H1079 0.950 . S
C1108 C1107 1.334 . S
C1108 C1109 1.287 . S
C1109 C1108 1.287 . S
C1109 C1110 1.524 . S
C1109 H1112 0.999 . S
C1110 H1080 0.950 1_455 S
C1110 C1109 1.524 . S
C1110 C1111 1.415 . S
C1111 H1081 0.950 1_455 S
C1111 C1106 1.363 . S
C1111 C1110 1.415 . S
H1112 C1109 0.999 . S
H1113 C1094 0.911 1_655 S
H1114 C1132 0.951 . S
H1115 C1134 0.951 . S
H1116 C1136 0.950 . S
H1117 C1137 0.950 . S
H1118 C1139 0.950 . S
H1119 C1142 0.950 . S
H1120 C1143 0.950 . S
H1121 C1145 0.950 . S
H1122 C1146 0.950 . S
H1123 C1147 0.951 . S
H1124 C1149 0.951 . S
H1125 C1151 0.950 . S
H1126 C1152 0.950 . S
H1127 C1154 0.950 . S
H1128 C1157 0.950 . S
H1129 C1158 0.950 . S
H1130 C1160 0.950 . S
H1131 C1161 0.950 . S
C1132 H1114 0.951 . S
C1132 C1133 1.366 . S
C1132 C1134 1.388 . S
C1133 C1132 1.366 . S
C1133 C1137 1.385 . S
C1134 H1115 0.951 . S
C1134 C1132 1.388 . S
C1134 C1135 1.366 . S
C1135 C1134 1.366 . S
C1135 C1136 1.414 . S
C1135 C1138 1.499 . S
C1136 H1116 0.950 . S
C1136 C1135 1.414 . S
C1136 C1137 1.374 . S
C1137 H1117 0.950 . S
C1137 C1133 1.385 . S
C1137 C1136 1.374 . S
C1138 C1135 1.499 . S
C1138 C1139 1.373 . S
C1138 C1140 1.389 . S
C1139 H1118 0.950 . S
C1139 C1138 1.373 . S
C1139 C1155 1.377 . S
C1140 C1138 1.389 . S
C1140 C1141 1.524 . S
C1140 C1154 1.377 . S
C1141 C1140 1.524 . S
C1141 C1142 1.397 . S
C1141 C1146 1.363 . S
C1142 H1119 0.950 . S
C1142 C1141 1.397 . S
C1142 C1143 1.334 . S
C1143 H1120 0.950 . S
C1143 C1142 1.334 . S
C1143 C1144 1.287 . S
C1144 C1143 1.287 . S
C1144 C1145 1.524 . S
C1144 H1163 0.913 . S
C1145 H1121 0.950 . S
C1145 C1144 1.524 . S
C1145 C1146 1.415 . S
C1146 H1122 0.950 . S
C1146 C1141 1.363 . S
C1146 C1145 1.415 . S
C1147 H1123 0.951 . S
C1147 C1148 1.366 . S
C1147 C1149 1.388 . S
C1148 C1147 1.366 . S
C1148 C1152 1.385 . S
C1149 H1124 0.951 . S
C1149 C1147 1.388 . S
C1149 C1150 1.366 . S
C1150 C1149 1.366 . S
C1150 C1151 1.414 . S
C1150 C1153 1.499 . S
C1151 H1125 0.950 . S
C1151 C1150 1.414 . S
C1151 C1152 1.374 . S
C1152 H1126 0.950 . S
C1152 C1148 1.385 . S
C1152 C1151 1.374 . S
C1153 C1150 1.499 . S
C1153 C1154 1.373 . S
C1153 C1155 1.389 . S
C1154 H1127 0.950 . S
C1154 C1140 1.377 . S
C1154 C1153 1.373 . S
C1155 C1139 1.377 . S
C1155 C1153 1.389 . S
C1155 C1156 1.524 . S
C1156 C1155 1.524 . S
C1156 C1157 1.397 . S
C1156 C1161 1.363 . S
C1157 H1128 0.950 . S
C1157 C1156 1.397 . S
C1157 C1158 1.334 . S
C1158 H1129 0.950 . S
C1158 C1157 1.334 . S
C1158 C1159 1.287 . S
C1159 C1158 1.287 . S
C1159 C1160 1.524 . S
C1159 H1162 0.999 . S
C1160 H1130 0.950 . S
C1160 C1159 1.524 . S
C1160 C1161 1.415 . S
C1161 H1131 0.950 . S
C1161 C1156 1.363 . S
C1161 C1160 1.415 . S
H1162 C1159 0.999 . S
H1163 C1144 0.913 . S
H1164 C1182 0.951 . S
H1165 C1184 0.951 . S
H1166 C1186 0.950 . S
H1167 C1187 0.950 . S
H1168 C1189 0.950 . S
H1169 C1192 0.950 1_545 S
H1170 C1193 0.950 . S
H1171 C1195 0.950 . S
H1172 C1196 0.950 . S
H1173 C1197 0.951 . S
H1174 C1199 0.951 . S
H1175 C1201 0.950 . S
H1176 C1202 0.950 . S
H1177 C1204 0.950 . S
H1178 C1207 0.950 1_565 S
H1179 C1208 0.950 . S
H1180 C1210 0.950 . S
H1181 C1211 0.950 . S
C1182 H1164 0.951 . S
C1182 C1183 1.366 . S
C1182 C1184 1.388 . S
C1183 C1182 1.366 . S
C1183 C1187 1.385 . S
C1184 H1165 0.951 . S
C1184 C1182 1.388 . S
C1184 C1185 1.366 . S
C1185 C1184 1.366 . S
C1185 C1186 1.414 . S
C1185 C1188 1.499 . S
C1186 H1166 0.950 . S
C1186 C1185 1.414 . S
C1186 C1187 1.374 . S
C1187 H1167 0.950 . S
C1187 C1183 1.385 . S
C1187 C1186 1.374 . S
C1188 C1185 1.499 . S
C1188 C1189 1.373 1_556 S
C1188 C1190 1.389 1_545 S
C1189 H1168 0.950 . S
C1189 C1188 1.373 1_554 S
C1189 C1205 1.377 . S
C1190 C1188 1.389 1_565 S
C1190 C1191 1.524 . S
C1190 C1204 1.377 . S
C1191 C1190 1.524 . S
C1191 C1192 1.397 . S
C1191 C1196 1.363 . S
C1192 H1169 0.950 1_565 S
C1192 C1191 1.397 . S
C1192 C1193 1.334 . S
C1193 H1170 0.950 . S
C1193 C1192 1.334 . S
C1193 C1194 1.287 . S
C1194 C1193 1.287 . S
C1194 C1195 1.524 . S
C1194 H1213 0.913 . S
C1195 H1171 0.950 . S
C1195 C1194 1.524 . S
C1195 C1196 1.415 . S
C1196 H1172 0.950 . S
C1196 C1191 1.363 . S
C1196 C1195 1.415 . S
C1197 H1173 0.951 . S
C1197 C1198 1.366 . S
C1197 C1199 1.388 . S
C1198 C1197 1.366 . S
C1198 C1202 1.385 . S
C1199 H1174 0.951 . S
C1199 C1197 1.388 . S
C1199 C1200 1.366 . S
C1200 C1199 1.366 . S
C1200 C1201 1.414 . S
C1200 C1203 1.499 . S
C1201 H1175 0.950 . S
C1201 C1200 1.414 . S
C1201 C1202 1.374 . S
C1202 H1176 0.950 . S
C1202 C1198 1.385 . S
C1202 C1201 1.374 . S
C1203 C1200 1.499 . S
C1203 C1204 1.373 1_554 S
C1203 C1205 1.389 1_565 S
C1204 H1177 0.950 . S
C1204 C1190 1.377 . S
C1204 C1203 1.373 1_556 S
C1205 C1189 1.377 . S
C1205 C1203 1.389 1_545 S
C1205 C1206 1.524 . S
C1206 C1205 1.524 . S
C1206 C1207 1.397 . S
C1206 C1211 1.363 . S
C1207 H1178 0.950 1_545 S
C1207 C1206 1.397 . S
C1207 C1208 1.334 . S
C1208 H1179 0.950 . S
C1208 C1207 1.334 . S
C1208 C1209 1.287 . S
C1209 C1208 1.287 . S
C1209 C1210 1.524 . S
C1209 H1212 0.999 . S
C1210 H1180 0.950 . S
C1210 C1209 1.524 . S
C1210 C1211 1.415 . S
C1211 H1181 0.950 . S
C1211 C1206 1.363 . S
C1211 C1210 1.415 . S
H1212 C1209 0.999 . S
H1213 C1194 0.913 . S
H1214 C1232 0.951 . S
H1215 C1234 0.951 . S
H1216 C1236 0.950 . S
H1217 C1237 0.950 . S
H1218 C1239 0.950 . S
H1219 C1242 0.950 . S
H1220 C1243 0.950 . S
H1221 C1245 0.950 . S
H1222 C1246 0.950 . S
H1223 C1247 0.951 . S
H1224 C1249 0.951 . S
H1225 C1251 0.950 . S
H1226 C1252 0.950 . S
H1227 C1254 0.950 . S
H1228 C1257 0.950 . S
H1229 C1258 0.950 . S
H1230 C1260 0.950 . S
H1231 C1261 0.950 . S
C1232 H1214 0.951 . S
C1232 C1233 1.366 . S
C1232 C1234 1.388 . S
C1233 C1232 1.366 . S
C1233 C1237 1.385 . S
C1234 H1215 0.951 . S
C1234 C1232 1.388 . S
C1234 C1235 1.366 . S
C1235 C1234 1.366 . S
C1235 C1236 1.414 . S
C1235 C1238 1.499 . S
C1236 H1216 0.950 . S
C1236 C1235 1.414 . S
C1236 C1237 1.374 . S
C1237 H1217 0.950 . S
C1237 C1233 1.385 . S
C1237 C1236 1.374 . S
C1238 C1235 1.499 . S
C1238 C1239 1.373 . S
C1238 C1240 1.393 1_655 S
C1239 H1218 0.950 . S
C1239 C1238 1.373 . S
C1239 C1255 1.373 1_565 S
C1240 C1238 1.393 1_455 S
C1240 C1241 1.524 1_565 S
C1240 C1254 1.373 1_565 S
C1241 C1240 1.524 1_545 S
C1241 C1242 1.397 1_545 S
C1241 C1246 1.363 . S
C1242 H1219 0.950 . S
C1242 C1241 1.397 1_565 S
C1242 C1243 1.334 . S
C1243 H1220 0.950 . S
C1243 C1242 1.334 . S
C1243 C1244 1.287 . S
C1244 C1243 1.287 . S
C1244 C1245 1.524 1_565 S
C1244 H1263 0.913 . S
C1245 H1221 0.950 . S
C1245 C1244 1.524 1_545 S
C1245 C1246 1.415 . S
C1246 H1222 0.950 . S
C1246 C1241 1.363 . S
C1246 C1245 1.415 . S
C1247 H1223 0.951 . S
C1247 C1248 1.366 . S
C1247 C1249 1.388 . S
C1248 C1247 1.366 . S
C1248 C1252 1.385 . S
C1249 H1224 0.951 . S
C1249 C1247 1.388 . S
C1249 C1250 1.366 . S
C1250 C1249 1.366 . S
C1250 C1251 1.414 . S
C1250 C1253 1.499 . S
C1251 H1225 0.950 . S
C1251 C1250 1.414 . S
C1251 C1252 1.374 . S
C1252 H1226 0.950 . S
C1252 C1248 1.385 . S
C1252 C1251 1.374 . S
C1253 C1250 1.499 . S
C1253 C1254 1.373 1_655 S
C1253 C1255 1.393 . S
C1254 H1227 0.950 . S
C1254 C1240 1.373 1_545 S
C1254 C1253 1.373 1_455 S
C1255 C1239 1.373 1_545 S
C1255 C1253 1.393 . S
C1255 C1256 1.524 1_545 S
C1256 C1255 1.524 1_565 S
C1256 C1257 1.397 1_565 S
C1256 C1261 1.363 . S
C1257 H1228 0.950 . S
C1257 C1256 1.397 1_545 S
C1257 C1258 1.334 . S
C1258 H1229 0.950 . S
C1258 C1257 1.334 . S
C1258 C1259 1.287 . S
C1259 C1258 1.287 . S
C1259 C1260 1.524 1_545 S
C1259 H1262 0.999 . S
C1260 H1230 0.950 . S
C1260 C1259 1.524 1_565 S
C1260 C1261 1.415 . S
C1261 H1231 0.950 . S
C1261 C1256 1.363 . S
C1261 C1260 1.415 . S
H1262 C1259 0.999 . S
H1263 C1244 0.913 . S
C283 C215 1.805 . S
C298 C8 1.807 . S
C333 C41 1.806 . S
C348 C248 1.805 . S
C383 C149 1.805 . S
C398 C74 1.807 . S
C433 C107 1.806 . S
C448 C182 1.805 . S
C483 C140 1.807 . S
C498 C83 1.806 . S
C533 C173 1.807 . S
C548 C116 1.805 . S
C583 C17 1.805 . S
C598 C206 1.807 . S
C633 C50 1.806 . S
C648 C239 1.807 . S
C683 C28 2.035 . S
C698 N236 2.016 1_455 S
C733 C61 2.035 . S
C748 N203 2.016 . S
C783 N170 2.015 1_455 S
C798 C94 2.035 . S
C833 C127 2.035 . S
C848 N137 2.016 . S
C883 C160 2.035 . S
C898 N104 2.016 . S
C933 N71 2.016 . S
C948 C193 2.035 . S
C983 N38 2.015 . S
C998 C226 2.035 . S
C1033 N5 2.015 . S
C1048 C259 2.035 . S
C1083 N80 0.985 . S
C1098 N14 0.985 . S
C1133 N47 0.984 . S
C1148 N113 0.985 . S
C1183 N212 0.985 . S
C1198 N146 0.985 . S
C1233 N245 0.986 . S
C1248 N179 0.984 . S
