# Generated by pormake.
# Topology yfa, (5)-cn, num edge types: 1
# Building blocks:
#     Node 0, Type 0, BuildingBlock: BEQFEK_clean_sbu_0, # of connection points: 5
#     Node 1, Type 0, BuildingBlock: BEQFEK_clean_sbu_0, # of connection points: 5
#     Node 2, Type 0, BuildingBlock: BEQFEK_clean_sbu_0, # of connection points: 5
#     Node 3, Type 0, BuildingBlock: BEQFEK_clean_sbu_0, # of connection points: 5
#     Node 4, Type 0, BuildingBlock: BEQFEK_clean_sbu_0, # of connection points: 5
#     Node 5, Type 0, BuildingBlock: BEQFEK_clean_sbu_0, # of connection points: 5
#     Node 6, Type 0, BuildingBlock: BEQFEK_clean_sbu_0, # of connection points: 5
#     Node 7, Type 0, BuildingBlock: BEQFEK_clean_sbu_0, # of connection points: 5
#     Node 8, Type 0, BuildingBlock: BEQFEK_clean_sbu_0, # of connection points: 5
#     Node 9, Type 0, BuildingBlock: BEQFEK_clean_sbu_0, # of connection points: 5
#     Node 10, Type 0, BuildingBlock: BEQFEK_clean_sbu_0, # of connection points: 5
#     Node 11, Type 0, BuildingBlock: BEQFEK_clean_sbu_0, # of connection points: 5
#     Node 12, Type 0, BuildingBlock: BEQFEK_clean_sbu_0, # of connection points: 5
#     Node 13, Type 0, BuildingBlock: BEQFEK_clean_sbu_0, # of connection points: 5
#     Node 14, Type 0, BuildingBlock: BEQFEK_clean_sbu_0, # of connection points: 5
#     Node 15, Type 0, BuildingBlock: BEQFEK_clean_sbu_0, # of connection points: 5
#     Edge 16, Type (0, 0), BuildingBlock: CIFDUS_clean_linker_0, # of connection points: 2
#     Edge 17, Type (0, 0), BuildingBlock: CIFDUS_clean_linker_0, # of connection points: 2
#     Edge 18, Type (0, 0), BuildingBlock: CIFDUS_clean_linker_0, # of connection points: 2
#     Edge 19, Type (0, 0), BuildingBlock: CIFDUS_clean_linker_0, # of connection points: 2
#     Edge 20, Type (0, 0), BuildingBlock: CIFDUS_clean_linker_0, # of connection points: 2
#     Edge 21, Type (0, 0), BuildingBlock: CIFDUS_clean_linker_0, # of connection points: 2
#     Edge 22, Type (0, 0), BuildingBlock: CIFDUS_clean_linker_0, # of connection points: 2
#     Edge 23, Type (0, 0), BuildingBlock: CIFDUS_clean_linker_0, # of connection points: 2
#     Edge 24, Type (0, 0), BuildingBlock: CIFDUS_clean_linker_0, # of connection points: 2
#     Edge 25, Type (0, 0), BuildingBlock: CIFDUS_clean_linker_0, # of connection points: 2
#     Edge 26, Type (0, 0), BuildingBlock: CIFDUS_clean_linker_0, # of connection points: 2
#     Edge 27, Type (0, 0), BuildingBlock: CIFDUS_clean_linker_0, # of connection points: 2
#     Edge 28, Type (0, 0), BuildingBlock: CIFDUS_clean_linker_0, # of connection points: 2
#     Edge 29, Type (0, 0), BuildingBlock: CIFDUS_clean_linker_0, # of connection points: 2
#     Edge 30, Type (0, 0), BuildingBlock: CIFDUS_clean_linker_0, # of connection points: 2
#     Edge 31, Type (0, 0), BuildingBlock: CIFDUS_clean_linker_0, # of connection points: 2
#     Edge 32, Type (0, 0), BuildingBlock: CIFDUS_clean_linker_0, # of connection points: 2
#     Edge 33, Type (0, 0), BuildingBlock: CIFDUS_clean_linker_0, # of connection points: 2
#     Edge 34, Type (0, 0), BuildingBlock: CIFDUS_clean_linker_0, # of connection points: 2
#     Edge 35, Type (0, 0), BuildingBlock: CIFDUS_clean_linker_0, # of connection points: 2
#     Edge 36, Type (0, 0), BuildingBlock: CIFDUS_clean_linker_0, # of connection points: 2
#     Edge 37, Type (0, 0), BuildingBlock: CIFDUS_clean_linker_0, # of connection points: 2
#     Edge 38, Type (0, 0), BuildingBlock: CIFDUS_clean_linker_0, # of connection points: 2
#     Edge 39, Type (0, 0), BuildingBlock: CIFDUS_clean_linker_0, # of connection points: 2
#     Edge 40, Type (0, 0), BuildingBlock: CIFDUS_clean_linker_0, # of connection points: 2
#     Edge 41, Type (0, 0), BuildingBlock: CIFDUS_clean_linker_0, # of connection points: 2
#     Edge 42, Type (0, 0), BuildingBlock: CIFDUS_clean_linker_0, # of connection points: 2
#     Edge 43, Type (0, 0), BuildingBlock: CIFDUS_clean_linker_0, # of connection points: 2
#     Edge 44, Type (0, 0), BuildingBlock: CIFDUS_clean_linker_0, # of connection points: 2
#     Edge 45, Type (0, 0), BuildingBlock: CIFDUS_clean_linker_0, # of connection points: 2
#     Edge 46, Type (0, 0), BuildingBlock: CIFDUS_clean_linker_0, # of connection points: 2
#     Edge 47, Type (0, 0), BuildingBlock: CIFDUS_clean_linker_0, # of connection points: 2
#     Edge 48, Type (0, 0), BuildingBlock: CIFDUS_clean_linker_0, # of connection points: 2
#     Edge 49, Type (0, 0), BuildingBlock: CIFDUS_clean_linker_0, # of connection points: 2
#     Edge 50, Type (0, 0), BuildingBlock: CIFDUS_clean_linker_0, # of connection points: 2
#     Edge 51, Type (0, 0), BuildingBlock: CIFDUS_clean_linker_0, # of connection points: 2
#     Edge 52, Type (0, 0), BuildingBlock: CIFDUS_clean_linker_0, # of connection points: 2
#     Edge 53, Type (0, 0), BuildingBlock: CIFDUS_clean_linker_0, # of connection points: 2
#     Edge 54, Type (0, 0), BuildingBlock: CIFDUS_clean_linker_0, # of connection points: 2
#     Edge 55, Type (0, 0), BuildingBlock: CIFDUS_clean_linker_0, # of connection points: 2
# Relax obj value: 0.802
# Max RMSD: 0.295
# Mean RMSD: 0.295
data_MOF--net-yfa--node1-BEQFEK_clean_sbu_0--edge1-CIFDUS_clean_linker_0
_symmetry_space_group_name_H-M    P1
_symmetry_Int_Tables_number       1
_symmetry_cell_setting            triclinic
loop_
_symmetry_equiv_pos_as_xyz
'x, y, z'
_cell_length_a     43.668994
_cell_length_b     43.688429
_cell_length_c     27.011949
_cell_angle_alpha  89.98673
_cell_angle_beta   90.219558
_cell_angle_gamma 89.983471
loop_
_atom_site_label
_atom_site_type_symbol
_atom_site_fract_x
_atom_site_fract_y
_atom_site_fract_z
_atom_type_partial_charge
Co0 Co 0.66567 0.00514 0.13687 0.0
Co1 Co 0.66037 0.06924 0.08392 0.0
C2 C 0.71457 0.03373 0.09552 0.0
O3 O 0.69947 0.00929 0.09056 0.0
O4 O 0.70415 0.05676 0.07232 0.0
C5 C 0.66704 0.93969 0.13705 0.0
O6 O 0.67404 0.94293 0.09008 0.0
C7 C 0.65568 0.10421 0.99404 0.0
C8 C 0.63417 0.14747 0.01804 0.0
C9 C 0.64389 0.13167 0.97635 0.0
N10 N 0.6527 0.1038 0.04339 0.0
N11 N 0.64047 0.12995 0.05783 0.0
C12 C 0.66604 0.07695 0.96489 0.0
H13 H 0.65099 0.07325 0.93225 0.0
H14 H 0.68972 0.08094 0.95164 0.0
H15 H 0.66607 0.0561 0.98836 0.0
C16 C 0.60448 0.99661 0.09301 0.0
N17 N 0.63048 0.01266 0.09922 0.0
N18 N 0.62879 0.03849 0.07406 0.0
C19 C 0.60122 0.03949 0.05103 0.0
C20 C 0.58527 0.0128 0.06194 0.0
C21 C 0.59668 0.96776 0.12005 0.0
H22 H 0.60534 0.94799 0.09859 0.0
H23 H 0.57152 0.96513 0.12395 0.0
H24 H 0.60724 0.96775 0.1574 0.0
O25 O 0.66622 0.03628 0.1911 0.0
O26 O 0.65892 0.08143 0.15423 0.0
H27 H 0.56567 0.06306 0.00938 0.0
H28 H 0.60371 0.06724 0.98613 0.0
C29 C 0.58998 0.06577 0.02037 0.0
H30 H 0.59272 0.08741 0.04129 0.0
H31 H 0.63505 0.13517 0.09445 0.0
O32 O 0.66476 0.96344 0.16402 0.0
C33 C 0.66267 0.06531 0.19318 0.0
Co34 Co 0.44563 0.6402 0.13352 0.0
Co35 Co 0.38037 0.63458 0.09402 0.0
C36 C 0.42061 0.69079 0.09541 0.0
O37 O 0.44352 0.67399 0.08739 0.0
O38 O 0.39432 0.67841 0.09687 0.0
C39 C 0.511 0.64388 0.13773 0.0
O40 O 0.50897 0.65097 0.09057 0.0
C41 C 0.34981 0.63444 8e-05 0.0
C42 C 0.30464 0.61428 0.01639 0.0
C43 C 0.32349 0.62319 0.97765 0.0
N44 N 0.34683 0.63177 0.04931 0.0
N45 N 0.31944 0.62053 0.05908 0.0
C46 C 0.37934 0.64284 0.97552 0.0
H47 H 0.38546 0.62558 0.94707 0.0
H48 H 0.37662 0.66525 0.95672 0.0
H49 H 0.39811 0.64476 0.00313 0.0
C50 C 0.45336 0.57929 0.08818 0.0
N51 N 0.43722 0.60469 0.09847 0.0
N52 N 0.4097 0.60261 0.07893 0.0
C53 C 0.40741 0.57531 0.05553 0.0
C54 C 0.43521 0.55986 0.06018 0.0
C55 C 0.48484 0.57281 0.10761 0.0
H56 H 0.48723 0.58158 0.1459 0.0
H57 H 0.50176 0.58449 0.08367 0.0
H58 H 0.48988 0.54792 0.10758 0.0
O59 O 0.41536 0.64436 0.18837 0.0
O60 O 0.36861 0.6301 0.16405 0.0
H61 H 0.35866 0.5699 0.05142 0.0
H62 H 0.37985 0.53949 0.02176 0.0
C63 C 0.37922 0.56438 0.02921 0.0
H64 H 0.37733 0.57625 0.9931 0.0
H65 H 0.31185 0.6149 0.09452 0.0
O66 O 0.48671 0.63925 0.16232 0.0
C67 C 0.38721 0.63891 0.19786 0.0
Co68 Co 0.87533 0.48918 0.19007 0.0
Co69 Co 0.87002 0.42648 0.1365 0.0
C70 C 0.81529 0.46426 0.16735 0.0
O71 O 0.83136 0.48684 0.18114 0.0
O72 O 0.82741 0.44006 0.15004 0.0
C73 C 0.87035 0.53811 0.25825 0.0
O74 O 0.8499 0.52034 0.27923 0.0
C75 C 0.86361 0.39676 0.04214 0.0
C76 C 0.881 0.35033 0.05761 0.0
C77 C 0.87283 0.36987 0.01911 0.0
N78 N 0.86758 0.39355 0.09115 0.0
N79 N 0.87683 0.36538 0.10047 0.0
C80 C 0.85489 0.42652 0.01829 0.0
H81 H 0.85208 0.44478 0.04643 0.0
H82 H 0.87228 0.43354 0.99072 0.0
H83 H 0.83275 0.42367 -0.0014 0.0
C84 C 0.91816 0.50224 0.10973 0.0
N85 N 0.8969 0.48434 0.13103 0.0
N86 N 0.89735 0.45705 0.11067 0.0
C87 C 0.9201 0.45634 0.07685 0.0
C88 C 0.93368 0.48511 0.07462 0.0
C89 C 0.92428 0.53465 0.12468 0.0
H90 H 0.93798 0.5348 0.15937 0.0
H91 H 0.90232 0.54658 0.13195 0.0
H92 H 0.93699 0.54716 0.0955 0.0
O93 O 0.88799 0.45729 0.23871 0.0
O94 O 0.88507 0.41201 0.20081 0.0
H95 H 0.958 0.42881 0.05202 0.0
H96 H 0.92382 0.42522 0.01585 0.0
C97 C 0.93264 0.42768 0.05416 0.0
H98 H 0.92608 0.40734 0.0762 0.0
H99 H 0.88284 0.35734 0.13557 0.0
O100 O 0.88401 0.52903 0.21951 0.0
C101 C 0.8908 0.42823 0.23885 0.0
Co102 Co 0.02295 0.8377 0.14927 0.0
Co103 Co 0.07333 0.83724 0.07115 0.0
C104 C 0.04886 0.78299 0.13196 0.0
O105 O 0.02246 0.79475 0.13395 0.0
O106 O 0.06971 0.79657 0.10745 0.0
C107 C 0.96854 0.83329 0.21342 0.0
O108 O 0.96265 0.80578 0.19625 0.0
C109 C 0.07944 0.83151 0.96447 0.0
C110 C 0.12888 0.83848 0.95309 0.0
C111 C 0.10123 0.83601 0.928 0.0
N112 N 0.09336 0.83212 0.00893 0.0
N113 N 0.12309 0.83541 0.00183 0.0
C114 C 0.04562 0.82802 0.95721 0.0
H115 H 0.03531 0.81624 0.98952 0.0
H116 H 0.03475 0.8508 0.95325 0.0
H117 H 0.04087 0.81492 0.92282 0.0
C118 C 0.9939 0.88223 0.08413 0.0
N119 N 0.0148 0.86017 0.09256 0.0
N120 N 0.03804 0.86352 0.06246 0.0
C121 C 0.03364 0.88963 0.03642 0.0
C122 C 0.0052 0.90189 0.04854 0.0
C123 C 0.96664 0.88797 0.11614 0.0
H124 H 0.95588 0.86595 0.12658 0.0
H125 H 0.94944 0.90241 0.09684 0.0
H126 H 0.97417 0.90018 0.15003 0.0
O127 O 0.0639 0.85069 0.17724 0.0
O128 O 0.09958 0.85767 0.11915 0.0
H129 H 0.07786 0.89061 0.00068 0.0
H130 H 0.0665 0.92561 0.02996 0.0
C131 C 0.05815 0.9058 0.00806 0.0
H132 H 0.04855 0.91487 0.9729 0.0
H133 H 0.13913 0.83782 0.03031 0.0
O134 O 0.99228 0.84749 0.19905 0.0
C135 C 0.09085 0.85871 0.16409 0.0
Co136 Co 0.59977 0.4621 0.29821 0.0
Co137 Co 0.6129 0.40821 0.37062 0.0
C138 C 0.66298 0.44369 0.32026 0.0
O139 O 0.64367 0.4614 0.30023 0.0
O140 O 0.65448 0.4223 0.34911 0.0
C141 C 0.60372 0.50536 0.22022 0.0
O142 O 0.62318 0.48586 0.20084 0.0
C143 C 0.62955 0.39214 0.4704 0.0
C144 C 0.61575 0.34376 0.47723 0.0
C145 C 0.62712 0.36836 0.50415 0.0
N146 N 0.61946 0.38232 0.42618 0.0
N147 N 0.61177 0.35319 0.43013 0.0
C148 C 0.64123 0.4239 0.47946 0.0
H149 H 0.65309 0.43258 0.44608 0.0
H150 H 0.62173 0.43945 0.48694 0.0
H151 H 0.65711 0.42437 0.51164 0.0
C152 C 0.56138 0.48352 0.37904 0.0
N153 N 0.58245 0.46415 0.36094 0.0
N154 N 0.58492 0.44015 0.38989 0.0
C155 C 0.56405 0.44282 0.42654 0.0
C156 C 0.54853 0.47057 0.42105 0.0
C157 C 0.55365 0.51363 0.35563 0.0
H158 H 0.57489 0.52482 0.34241 0.0
H159 H 0.54207 0.52913 0.38217 0.0
H160 H 0.53846 0.50972 0.32321 0.0
O161 O 0.58586 0.42487 0.26297 0.0
O162 O 0.59642 0.3854 0.3128 0.0
H163 H 0.53081 0.41795 0.46967 0.0
H164 H 0.5685 0.41995 0.49619 0.0
C165 C 0.55562 0.41735 0.46101 0.0
H166 H 0.56127 0.39487 0.4444 0.0
H167 H 0.60255 0.34015 0.40124 0.0
O168 O 0.58992 0.49873 0.26012 0.0
C169 C 0.58636 0.39619 0.27195 0.0
Co170 Co 0.05057 0.64966 0.3808 0.0
Co171 Co 0.11547 0.65007 0.42338 0.0
C172 C 0.07783 0.70574 0.39182 0.0
O173 O 0.053 0.69206 0.40092 0.0
O174 O 0.10317 0.69191 0.39846 0.0
C175 C 0.98536 0.65531 0.36131 0.0
O176 O 0.9833 0.67286 0.40062 0.0
C177 C 0.14798 0.65624 0.51571 0.0
C178 C 0.19341 0.63757 0.49698 0.0
C179 C 0.17516 0.64604 0.53667 0.0
N180 N 0.14977 0.65299 0.46643 0.0
N181 N 0.17742 0.64297 0.4552 0.0
C182 C 0.11894 0.66394 0.54229 0.0
H183 H 0.10026 0.66917 0.51564 0.0
H184 H 0.11206 0.64475 0.56672 0.0
H185 H 0.12283 0.68424 0.56617 0.0
C186 C 0.04013 0.60177 0.45484 0.0
N187 N 0.05702 0.62425 0.43477 0.0
N188 N 0.08515 0.62302 0.45199 0.0
C189 C 0.08738 0.59853 0.48248 0.0
C190 C 0.05884 0.58442 0.48557 0.0
C191 C 0.00702 0.59656 0.44307 0.0
H192 H 0.00483 0.58739 0.40491 0.0
H193 H 0.9946 0.61863 0.44472 0.0
H194 H 0.99624 0.58046 0.46953 0.0
O195 O 0.08138 0.63978 0.3283 0.0
O196 O 0.12776 0.63215 0.36108 0.0
H197 H 0.13635 0.59336 0.47772 0.0
H198 H 0.11629 0.56011 0.50069 0.0
C199 C 0.11703 0.58551 0.50093 0.0
H200 H 0.12092 0.59294 0.53968 0.0
H201 H 0.18426 0.63687 0.41956 0.0
O202 O 0.01071 0.64317 0.34961 0.0
C203 C 0.10953 0.63232 0.32425 0.0
Co204 Co 0.8441 0.02419 0.34687 0.0
Co205 Co 0.83091 0.08302 0.4034 0.0
C206 C 0.78466 0.03464 0.36552 0.0
O207 O 0.8037 0.0129 0.36881 0.0
O208 O 0.79287 0.06158 0.37797 0.0
C209 C 0.85592 0.96349 0.30618 0.0
O210 O 0.83116 0.95362 0.32857 0.0
C211 C 0.8162 0.09626 0.50354 0.0
C212 C 0.81955 0.14646 0.50958 0.0
C213 C 0.81613 0.11999 0.53748 0.0
N214 N 0.82019 0.10792 0.45815 0.0
N215 N 0.82153 0.13805 0.46161 0.0
C216 C 0.81367 0.06266 0.51379 0.0
H217 H 0.80218 0.051 0.4823 0.0
H218 H 0.83687 0.05263 0.51775 0.0
H219 H 0.80079 0.0585 0.54849 0.0
C220 C 0.89443 0.01828 0.41754 0.0
N221 N 0.86895 0.03207 0.40073 0.0
N222 N 0.86528 0.05839 0.42312 0.0
C223 C 0.88942 0.06289 0.45379 0.0
C224 C 0.90865 0.03751 0.45118 0.0
C225 C 0.90502 0.9873 0.40139 0.0
H226 H 0.91715 0.98945 0.3656 0.0
H227 H 0.88505 0.97195 0.39642 0.0
H228 H 0.92083 0.97698 0.42898 0.0
O229 O 0.8416 0.06117 0.30305 0.0
O230 O 0.84193 0.10572 0.34327 0.0
H231 H 0.8829 0.1114 0.46319 0.0
H232 H 0.92085 0.09745 0.47903 0.0
C233 C 0.89597 0.09229 0.4801 0.0
H234 H 0.88931 0.08999 0.51944 0.0
H235 H 0.82578 0.15266 0.43185 0.0
O236 O 0.86306 0.9916 0.3085 0.0
C237 C 0.84185 0.09045 0.30295 0.0
Co238 Co 0.4751 0.86326 0.31565 0.0
Co239 Co 0.4131 0.8556 0.37213 0.0
C240 C 0.44511 0.80312 0.32174 0.0
O241 O 0.468 0.81962 0.31085 0.0
O242 O 0.42334 0.81363 0.34801 0.0
C243 C 0.5305 0.85654 0.25599 0.0
O244 O 0.51577 0.83592 0.22975 0.0
C245 C 0.38311 0.84472 0.4663 0.0
C246 C 0.33692 0.86341 0.45292 0.0
C247 C 0.35601 0.85249 0.49027 0.0
N248 N 0.38032 0.8519 0.41809 0.0
N249 N 0.3523 0.86206 0.40996 0.0
C250 C 0.41244 0.83361 0.48903 0.0
H251 H 0.43103 0.83293 0.4612 0.0
H252 H 0.4193 0.84836 0.52058 0.0
H253 H 0.40903 0.81006 0.50334 0.0
C254 C 0.49069 0.89973 0.40194 0.0
N255 N 0.47219 0.87918 0.37992 0.0
N256 N 0.44528 0.87948 0.40136 0.0
C257 C 0.44534 0.90172 0.43627 0.0
C258 C 0.47437 0.91492 0.4383 0.0
C259 C 0.5214 0.90854 0.38214 0.0
H260 H 0.51857 0.91891 0.34492 0.0
H261 H 0.53557 0.88761 0.37879 0.0
H262 H 0.53354 0.9251 0.40624 0.0
O263 O 0.44362 0.88244 0.27155 0.0
O264 O 0.39916 0.876 0.31102 0.0
H265 H 0.39674 0.90999 0.43795 0.0
H266 H 0.41919 0.93762 0.47219 0.0
C267 C 0.41716 0.91317 0.46189 0.0
H268 H 0.41386 0.90021 0.49668 0.0
H269 H 0.34447 0.87023 0.37584 0.0
O270 O 0.51686 0.87051 0.29078 0.0
C271 C 0.41446 0.88496 0.27357 0.0
Co272 Co 0.38144 0.96002 0.8194 0.0
Co273 Co 0.36227 0.90123 0.87392 0.0
C274 C 0.31995 0.95222 0.8344 0.0
O275 O 0.34038 0.97268 0.8353 0.0
O276 O 0.32634 0.92483 0.84679 0.0
C277 C 0.38831 0.01529 0.76118 0.0
O278 O 0.35956 0.01166 0.74799 0.0
C279 C 0.34209 0.89069 0.97222 0.0
C280 C 0.34743 0.84108 0.98379 0.0
C281 C 0.34193 0.86837 0.00867 0.0
N282 N 0.34831 0.87751 0.92851 0.0
N283 N 0.35072 0.84767 0.93528 0.0
C284 C 0.3382 0.92452 0.9788 0.0
H285 H 0.32614 0.93435 0.94628 0.0
H286 H 0.36096 0.93564 0.98129 0.0
H287 H 0.32517 0.92964 0.01302 0.0
C288 C 0.42715 0.96304 0.89846 0.0
N289 N 0.40273 0.95019 0.87649 0.0
N290 N 0.3966 0.92394 0.89762 0.0
C291 C 0.4181 0.91841 0.93261 0.0
C292 C 0.43765 0.94347 0.93507 0.0
C293 C 0.44188 0.9919 0.88079 0.0
H294 H 0.42448 0.0104 0.88044 0.0
H295 H 0.46157 -0.00104 0.90405 0.0
H296 H 0.45015 0.9884 0.84244 0.0
O297 O 0.37905 0.9236 0.77385 0.0
O298 O 0.37433 0.87895 0.81386 0.0
H299 H 0.41123 0.86985 0.93875 0.0
H300 H 0.44521 0.88394 0.96991 0.0
C301 C 0.42099 0.889 0.96063 0.0
H302 H 0.40832 0.89087 0.99581 0.0
H303 H 0.35705 0.83216 0.90769 0.0
O304 O 0.40142 0.99526 0.78801 0.0
C305 C 0.37724 0.8943 0.77382 0.0
Co306 Co 0.51372 0.36162 0.81005 0.0
Co307 Co 0.57213 0.3526 0.87408 0.0
C308 C 0.53926 0.30154 0.8188 0.0
O309 O 0.51535 0.31725 0.81119 0.0
O310 O 0.56216 0.31285 0.8415 0.0
C311 C 0.45078 0.36039 0.78409 0.0
O312 O 0.44843 0.34256 0.82305 0.0
C313 C 0.58846 0.33119 0.97076 0.0
C314 C 0.63509 0.34898 0.98293 0.0
C315 C 0.6109 0.33465 0.00684 0.0
N316 N 0.59847 0.34371 0.92844 0.0
N317 N 0.62673 0.3536 0.93541 0.0
C318 C 0.55718 0.31761 0.97643 0.0
H319 H 0.55064 0.30527 0.94209 0.0
H320 H 0.54019 0.33613 0.98206 0.0
H321 H 0.55642 0.30172 0.00848 0.0
C322 C 0.49554 0.40133 0.89263 0.0
N323 N 0.51348 0.37944 0.87285 0.0
N324 N 0.53893 0.37719 0.89867 0.0
C325 C 0.53832 0.39832 0.93519 0.0
C326 C 0.51054 0.41384 0.93314 0.0
C327 C 0.46766 0.41421 0.86769 0.0
H328 H 0.47255 0.41859 0.82809 0.0
H329 H 0.44877 0.39737 0.87024 0.0
H330 H 0.45995 0.4359 0.88493 0.0
O331 O 0.54997 0.37692 0.77293 0.0
O332 O 0.59234 0.37457 0.81958 0.0
H333 H 0.58661 0.40552 0.94462 0.0
H334 H 0.56298 0.42913 0.9843 0.0
C335 C 0.56536 0.40628 0.96694 0.0
H336 H 0.56742 0.38928 -0.00293 0.0
H337 H 0.63945 0.36534 0.90884 0.0
O338 O 0.47661 0.3716 0.77252 0.0
C339 C 0.5786 0.3815 0.77931 0.0
Co340 Co 0.16514 0.52962 0.86862 0.0
Co341 Co 0.16874 0.59237 0.92336 0.0
C342 C 0.21953 0.55231 0.8969 0.0
O343 O 0.20331 0.52898 0.90518 0.0
O344 O 0.21213 0.57654 0.9198 0.0
C345 C 0.16684 0.46476 0.85058 0.0
O346 O 0.1805 0.46273 0.89386 0.0
C347 C 0.17347 0.61622 0.02077 0.0
C348 C 0.16078 0.66496 0.01433 0.0
C349 C 0.16785 0.64223 0.0484 0.0
N350 N 0.16926 0.62291 0.97288 0.0
N351 N 0.1623 0.65225 0.96886 0.0
C352 C 0.18172 0.58495 0.03935 0.0
H353 H 0.19723 0.5734 0.01289 0.0
H354 H 0.16073 0.5708 0.04234 0.0
H355 H 0.19285 0.58626 0.0763 0.0
C356 C 0.11008 0.52146 0.93057 0.0
N357 N 0.13488 0.53715 0.91543 0.0
N358 N 0.13597 0.56383 0.93794 0.0
C359 C 0.11071 0.56658 0.9663 0.0
C360 C 0.09383 0.53965 0.96346 0.0
C361 C 0.10335 0.48916 0.91555 0.0
H362 H 0.0996 0.48816 0.87493 0.0
H363 H 0.12342 0.47468 0.92456 0.0
H364 H 0.08323 0.47956 0.93493 0.0
O365 O 0.16404 0.56368 0.81881 0.0
O366 O 0.16144 0.60895 0.85675 0.0
H367 H 0.10886 0.61575 0.96853 0.0
H368 H 0.07512 0.59684 0.99207 0.0
C369 C 0.10048 0.59582 0.98991 0.0
H370 H 0.10968 0.59708 0.02802 0.0
H371 H 0.15718 0.66318 0.93548 0.0
O372 O 0.15868 0.49073 0.83411 0.0
C373 C 0.162 0.59288 0.81731 0.0
Co374 Co 0.94653 0.11801 0.86182 0.0
Co375 Co 0.88291 0.13168 0.90758 0.0
C376 C 0.92807 0.18096 0.87695 0.0
O377 O 0.94902 0.16169 0.86877 0.0
O378 O 0.90156 0.1726 0.89108 0.0
C379 C 0.00714 0.12137 0.81968 0.0
O380 O 0.00054 0.14971 0.80735 0.0
C381 C 0.85164 0.14416 -0.00128 0.0
C382 C 0.8043 0.12981 0.98229 0.0
C383 C 0.82368 0.13816 0.02095 0.0
N384 N 0.84907 0.13865 0.95001 0.0
N385 N 0.82043 0.13119 0.93999 0.0
C386 C 0.88161 0.1502 0.02408 0.0
H387 H 0.90059 0.15111 -0.00307 0.0
H388 H 0.88636 0.13229 0.0522 0.0
H389 H 0.88041 0.1725 0.04361 0.0
C390 C 0.95119 0.07498 0.94288 0.0
N391 N 0.93699 0.09872 0.92114 0.0
N392 N 0.90901 0.10128 0.93812 0.0
C393 C 0.90398 0.07777 0.96985 0.0
C394 C 0.93082 0.06061 0.97445 0.0
C395 C 0.98176 0.06329 0.92665 0.0
H396 H -0.00166 0.0825 0.92751 0.0
H397 H 0.99068 0.04459 0.95019 0.0
H398 H 0.97986 0.05461 0.88818 0.0
O399 O 0.91534 0.10775 0.81007 0.0
O400 O 0.86927 0.11617 0.84295 0.0
H401 H 0.87143 0.04497 -0.00117 0.0
H402 H 0.87003 0.08213 0.02611 0.0
C403 C 0.87328 0.06977 0.99073 0.0
H404 H 0.85483 0.07663 0.96469 0.0
H405 H 0.81262 0.12432 0.90515 0.0
O406 O 0.98709 0.10466 0.84025 0.0
C407 C 0.88612 0.10797 0.80688 0.0
Co408 Co 0.32385 0.5232 0.63169 0.0
Co409 Co 0.32181 0.5877 0.58642 0.0
C410 C 0.26795 0.54745 0.61433 0.0
O411 O 0.28293 0.52353 0.60409 0.0
O412 O 0.27964 0.57335 0.60412 0.0
C413 C 0.32267 0.47264 0.70071 0.0
O414 O 0.30384 0.48928 0.72733 0.0
C415 C 0.31015 0.61673 0.49325 0.0
C416 C 0.32787 0.66356 0.50363 0.0
C417 C 0.31655 0.64358 0.46796 0.0
N418 N 0.31776 0.62052 0.54099 0.0
N419 N 0.32751 0.64885 0.54747 0.0
C420 C 0.30151 0.5864 0.47147 0.0
H421 H 0.30185 0.5682 0.50011 0.0
H422 H 0.31739 0.58033 0.44102 0.0
H423 H 0.27807 0.58787 0.4557 0.0
C424 C 0.3747 0.51478 0.56259 0.0
N425 N 0.3515 0.53121 0.58144 0.0
N426 N 0.35096 0.55853 0.56124 0.0
C427 C 0.37461 0.5606 0.52922 0.0
C428 C 0.39037 0.53288 0.52906 0.0
C429 C 0.38136 0.48226 0.57638 0.0
H430 H 0.35968 0.46905 0.57717 0.0
H431 H 0.39728 0.47129 0.54985 0.0
H432 H 0.39161 0.48163 0.61402 0.0
O433 O 0.32779 0.55475 0.68493 0.0
O434 O 0.33571 0.60104 0.65262 0.0
H435 H 0.40907 0.58938 0.49599 0.0
H436 H 0.37179 0.59127 0.46778 0.0
C437 C 0.38411 0.58944 0.50363 0.0
H438 H 0.37829 0.60963 0.52659 0.0
H439 H 0.33605 0.65735 0.58087 0.0
O440 O 0.3326 0.48301 0.65993 0.0
C441 C 0.33325 0.58333 0.69008 0.0
Co442 Co 0.98983 0.36267 0.69273 0.0
Co443 Co 0.9273 0.36847 0.6394 0.0
C444 C 0.95621 0.30855 0.67699 0.0
O445 O 0.98299 0.31941 0.68206 0.0
O446 O 0.93437 0.32521 0.66103 0.0
C447 C 0.03771 0.35621 0.76577 0.0
O448 O 0.01821 0.33923 0.79048 0.0
C449 C 0.90366 0.35975 0.54186 0.0
C450 C 0.85716 0.37936 0.54385 0.0
C451 C 0.87893 0.36722 0.51209 0.0
N452 N 0.89721 0.36764 0.58861 0.0
N453 N 0.8691 0.37878 0.58998 0.0
C454 C 0.93354 0.34604 0.52622 0.0
H455 H 0.94337 0.33214 0.55679 0.0
H456 H 0.95007 0.36449 0.51751 0.0
H457 H 0.93043 0.33167 0.49268 0.0
C458 C 0.00905 0.40565 0.6155 0.0
N459 N 0.98861 0.38607 0.6351 0.0
N460 N 0.96162 0.39082 0.61516 0.0
C461 C 0.9637 0.41456 0.58339 0.0
C462 C 0.99394 0.4245 0.58199 0.0
C463 C 0.04197 0.40723 0.63084 0.0
H464 H 0.04384 0.4202 0.66604 0.0
H465 H 0.05094 0.3838 0.63725 0.0
H466 H 0.05602 0.41877 0.60223 0.0
O467 O 0.95712 0.37596 0.73929 0.0
O468 O 0.91311 0.38707 0.70125 0.0
H469 H 0.91567 0.4259 0.5836 0.0
H470 H 0.94055 0.45601 0.56149 0.0
C471 C 0.93659 0.43091 0.56195 0.0
H472 H 0.93305 0.42336 0.52327 0.0
H473 H 0.85876 0.38755 0.62177 0.0
O474 O 0.02974 0.36786 0.72464 0.0
C475 C 0.92927 0.38495 0.74057 0.0
Co476 Co 0.13571 0.97822 0.64302 0.0
Co477 Co 0.14573 0.9258 0.5681 0.0
C478 C 0.19749 0.95945 0.62051 0.0
O479 O 0.17931 0.97932 0.63751 0.0
O480 O 0.18765 0.93776 0.59319 0.0
C481 C 0.13822 0.03829 0.68417 0.0
O482 O 0.15911 0.04376 0.65045 0.0
C483 C 0.15639 0.91408 0.46464 0.0
C484 C 0.14544 0.86506 0.45656 0.0
C485 C 0.15242 0.8912 0.42961 0.0
N486 N 0.15119 0.90225 0.50969 0.0
N487 N 0.14534 0.87274 0.50486 0.0
C488 C 0.16481 0.94687 0.45599 0.0
H489 H 0.1438 0.96098 0.45295 0.0
H490 H 0.1781 0.94931 0.42126 0.0
H491 H 0.17832 0.95567 0.48783 0.0
C492 C 0.0928 0.00051 0.56823 0.0
N493 N 0.11578 0.98191 0.58241 0.0
N494 N 0.11694 0.958 0.55308 0.0
C495 C 0.0933 0.95981 0.52071 0.0
C496 C 0.07745 0.98702 0.52889 0.0
C497 C 0.08515 0.03012 0.5932 0.0
H498 H 0.07521 0.02543 0.63018 0.0
H499 H 0.10633 0.04369 0.59818 0.0
H500 H 0.06883 0.04399 0.57106 0.0
O501 O 0.12353 0.9391 0.67619 0.0
O502 O 0.12911 0.90081 0.62233 0.0
H503 H 0.05707 0.93291 0.48815 0.0
H504 H 0.09081 0.93665 0.45117 0.0
C505 C 0.08247 0.93361 0.48949 0.0
H506 H 0.09114 0.91158 0.5043 0.0
H507 H 0.13954 0.8583 0.53414 0.0
O508 O 0.12539 0.01221 0.68628 0.0
C509 C 0.12185 0.91069 0.66512 0.0
Co510 Co 0.55024 0.14161 0.62624 0.0
Co511 Co 0.61441 0.13467 0.58319 0.0
C512 C 0.57706 0.19266 0.59312 0.0
O513 O 0.55324 0.17723 0.58438 0.0
O514 O 0.6029 0.17929 0.59064 0.0
C515 C 0.48386 0.146 0.63847 0.0
O516 O 0.4822 0.15785 0.59384 0.0
C517 C 0.64777 0.13177 0.49152 0.0
C518 C 0.69197 0.11166 0.51462 0.0
C519 C 0.67477 0.11947 0.47319 0.0
N520 N 0.64881 0.13061 0.54108 0.0
N521 N 0.67563 0.11945 0.55486 0.0
C522 C 0.61951 0.14026 0.46302 0.0
H523 H 0.59978 0.14345 0.48826 0.0
H524 H 0.61402 0.12249 0.43503 0.0
H525 H 0.62361 0.16209 0.44315 0.0
C526 C 0.53889 0.08323 0.57541 0.0
N527 N 0.55634 0.10769 0.58625 0.0
N528 N 0.58345 0.10471 0.56589 0.0
C529 C 0.58433 0.07743 0.54216 0.0
C530 C 0.55589 0.06328 0.54681 0.0
C531 C 0.50773 0.07756 0.59652 0.0
H532 H 0.50792 0.08255 0.63674 0.0
H533 H 0.491 0.09298 0.57819 0.0
H534 H 0.5002 0.05355 0.59112 0.0
O535 O 0.5814 0.14166 0.6811 0.0
O536 O 0.62633 0.12611 0.65149 0.0
H537 H 0.63293 0.07013 0.54012 0.0
H538 H 0.61064 0.03922 0.51374 0.0
C539 C 0.61226 0.06438 0.51807 0.0
H540 H 0.61475 0.07442 0.48065 0.0
H541 H 0.68178 0.11492 0.59148 0.0
O542 O 0.50989 0.13965 0.65698 0.0
C543 C 0.60935 0.13386 0.68768 0.0
H544 H 0.65492 0.924 0.23138 0.0
H545 H 0.6429 0.8932 0.0809 0.0
H546 H 0.60094 0.85991 0.10667 0.0
H547 H 0.56085 0.84881 0.16864 0.0
H548 H 0.57193 0.88302 0.31747 0.0
H549 H 0.62076 0.90574 0.29573 0.0
C550 C 0.64373 0.90928 0.20446 0.0
C551 C 0.65131 0.91174 0.1542 0.0
C552 C 0.61876 0.89147 0.21904 0.0
C553 C 0.63724 0.892 0.11985 0.0
C554 C 0.61291 0.87328 0.13444 0.0
C555 C 0.5743 0.86069 0.19647 0.0
C556 C 0.56232 0.8651 0.24418 0.0
C557 C 0.6023 0.87431 0.18339 0.0
C558 C 0.58014 0.88017 0.28008 0.0
C559 C 0.60822 0.89303 0.26778 0.0
H560 H 0.58714 0.55745 0.26518 0.0
H561 H 0.60637 0.51911 0.12157 0.0
H562 H 0.58614 0.56531 0.08164 0.0
H563 H 0.55356 0.61103 0.08847 0.0
H564 H 0.53054 0.64612 0.23281 0.0
H565 H 0.56313 0.60763 0.27185 0.0
C566 C 0.58733 0.55945 0.22514 0.0
C567 C 0.59724 0.53478 0.19613 0.0
C568 C 0.57525 0.58563 0.20276 0.0
C569 C 0.59835 0.5378 0.14446 0.0
C570 C 0.58678 0.56415 0.12172 0.0
C571 C 0.55674 0.61099 0.12832 0.0
C572 C 0.53932 0.63079 0.15798 0.0
C573 C 0.57387 0.58754 0.15053 0.0
C574 C 0.5436 0.63076 0.2095 0.0
C575 C 0.56186 0.60854 0.23178 0.0
H576 H 0.90294 0.58367 0.21711 0.0
H577 H 0.86196 0.55531 0.35475 0.0
H578 H 0.89 0.59545 0.39886 0.0
H579 H 0.93379 0.63124 0.39994 0.0
H580 H 0.97752 0.65538 0.26264 0.0
H581 H 0.94039 0.62482 0.21639 0.0
C582 C 0.89968 0.58666 0.25663 0.0
C583 C 0.88112 0.56617 0.28292 0.0
C584 C 0.91652 0.609 0.28175 0.0
C585 C 0.87648 0.57065 0.33384 0.0
C586 C 0.89262 0.59348 0.3591 0.0
C587 C 0.93427 0.63066 0.35979 0.0
C588 C 0.95809 0.64527 0.33439 0.0
C589 C 0.9138 0.61179 0.33376 0.0
C590 C 0.95918 0.64415 0.28256 0.0
C591 C 0.93816 0.62655 0.25625 0.0
H592 H 0.97257 0.89233 0.2395 0.0
H593 H 0.91103 0.8151 0.24442 0.0
H594 H 0.87001 0.84867 0.27476 0.0
H595 H 0.85128 0.90114 0.29476 0.0
H596 H 0.91304 0.97759 0.27521 0.0
H597 H 0.95399 0.94308 0.25344 0.0
C598 C 0.95022 0.88257 0.24697 0.0
C599 C 0.94481 0.8513 0.23913 0.0
C600 C 0.92657 0.90207 0.26075 0.0
C601 C 0.91579 0.83917 0.25009 0.0
C602 C 0.89229 0.8584 0.2669 0.0
C603 C 0.87364 0.91016 0.28535 0.0
C604 C 0.87907 0.94191 0.2873 0.0
C605 C 0.89727 0.89009 0.27127 0.0
C606 C 0.90812 0.9533 0.27452 0.0
C607 C 0.93173 0.93358 0.26226 0.0
H608 H 0.37751 0.05491 0.68448 0.0
H609 H 0.43675 0.03925 0.81022 0.0
H610 H 0.4672 0.08345 0.78884 0.0
H611 H 0.48089 0.12245 0.72996 0.0
H612 H 0.42688 0.13546 0.59757 0.0
H613 H 0.38963 0.09774 0.62717 0.0
C614 C 0.39691 0.06145 0.70732 0.0
C615 C 0.40512 0.04347 0.74851 0.0
C616 C 0.41509 0.08668 0.69386 0.0
C617 C 0.43021 0.05223 0.77792 0.0
C618 C 0.44759 0.07772 0.76591 0.0
C619 C 0.4607 0.11748 0.70781 0.0
C620 C 0.45699 0.1312 0.66122 0.0
C621 C 0.44075 0.09453 0.7233 0.0
C622 C 0.43038 0.12502 0.63352 0.0
C623 C 0.40931 0.10315 0.65012 0.0
H624 H 0.36 0.43363 0.65275 0.0
H625 H 0.31797 0.44931 0.79487 0.0
H626 H 0.35111 0.41032 0.83211 0.0
H627 H 0.39794 0.37879 0.82659 0.0
H628 H 0.44338 0.36926 0.686 0.0
H629 H 0.40289 0.39873 0.6455 0.0
C630 C 0.35773 0.4283 0.69177 0.0
C631 C 0.33711 0.44485 0.72126 0.0
C632 C 0.37773 0.40712 0.71317 0.0
C633 C 0.33395 0.43711 0.77147 0.0
C634 C 0.35301 0.41496 0.79282 0.0
C635 C 0.39838 0.38252 0.78689 0.0
C636 C 0.4234 0.37212 0.75906 0.0
C637 C 0.37588 0.40084 0.76443 0.0
C638 C 0.42423 0.37728 0.70787 0.0
C639 C 0.4012 0.39416 0.68485 0.0
H640 H 0.08494 0.38325 0.7191 0.0
H641 H 0.05622 0.35083 0.86252 0.0
H642 H 0.09961 0.37704 0.90132 0.0
H643 H 0.13923 0.41705 0.89556 0.0
H644 H 0.16361 0.45323 0.75256 0.0
H645 H 0.12882 0.41719 0.71216 0.0
C646 C 0.08842 0.38147 0.75879 0.0
C647 C 0.06702 0.36584 0.78809 0.0
C648 C 0.11263 0.39741 0.78082 0.0
C649 C 0.07222 0.36308 0.83925 0.0
C650 C 0.09694 0.37817 0.86146 0.0
C651 C 0.13768 0.41616 0.85549 0.0
C652 C 0.15368 0.43763 0.82683 0.0
C653 C 0.11642 0.39654 0.83283 0.0
C654 C 0.15134 0.4368 0.77506 0.0
C655 C 0.13133 0.41641 0.75209 0.0
H656 H 0.11611 0.03438 0.77553 0.0
H657 H 0.12842 0.09734 0.65452 0.0
H658 H 0.09103 0.13243 0.69127 0.0
H659 H 0.04777 0.13952 0.74915 0.0
H660 H 0.03408 0.07327 0.86557 0.0
H661 H 0.07909 0.04529 0.83971 0.0
C662 C 0.1112 0.05624 0.75806 0.0
C663 C 0.12435 0.06324 0.71235 0.0
C664 C 0.08895 0.07537 0.77811 0.0
C665 C 0.11839 0.09163 0.68996 0.0
C666 C 0.09676 0.11145 0.7106 0.0
C667 C 0.05509 0.11933 0.76935 0.0
C668 C 0.03721 0.10803 0.80842 0.0
C669 C 0.08072 0.10272 0.7533 0.0
C670 C 0.047 0.08203 0.83467 0.0
C671 C 0.07285 0.06602 0.82002 0.0
H672 H 0.76591 0.07898 0.30166 0.0
H673 H 0.75433 0.9832 0.33621 0.0
H674 H 0.73315 0.97421 0.25363 0.0
H675 H 0.7238 0.99229 0.16929 0.0
H676 H 0.73463 0.08825 0.13478 0.0
H677 H 0.75183 0.09806 0.21943 0.0
C678 C 0.75786 0.05628 0.29188 0.0
C679 C 0.76182 0.03172 0.32519 0.0
C680 C 0.74701 0.05103 0.24366 0.0
C681 C 0.7514 0.00249 0.31143 0.0
C682 C 0.73987 -0.00276 0.2639 0.0
C683 C 0.72988 0.01541 0.18011 0.0
C684 C 0.72768 0.0395 0.14552 0.0
C685 C 0.73879 0.02109 0.22916 0.0
C686 C 0.73594 0.06924 0.16046 0.0
C687 C 0.74552 0.07494 0.20903 0.0
H688 H 0.38774 0.70658 0.17689 0.0
H689 H 0.46776 0.73117 0.09233 0.0
H690 H 0.485 0.76449 0.15957 0.0
H691 H 0.47814 0.78508 0.24228 0.0
H692 H 0.39783 0.76156 0.3271 0.0
H693 H 0.38095 0.72737 0.26066 0.0
C694 C 0.40857 0.7198 0.17254 0.0
C695 C 0.42625 0.71679 0.12917 0.0
C696 C 0.41896 0.73787 0.21214 0.0
C697 C 0.45352 0.73357 0.12486 0.0
C698 C 0.46363 0.75213 0.16364 0.0
C699 C 0.45715 0.77218 0.24695 0.0
C700 C 0.43928 0.77607 0.28987 0.0
C701 C 0.44683 0.75393 0.20772 0.0
C702 C 0.41218 0.75895 0.29476 0.0
C703 C 0.40224 0.73981 0.25637 0.0
H704 H 0.7908 0.41961 0.22187 0.0
H705 H 0.77132 0.50794 0.15799 0.0
H706 H 0.72321 0.51053 0.20427 0.0
H707 H 0.68803 0.48833 0.26426 0.0
H708 H 0.70836 0.40076 0.3311 0.0
H709 H 0.75598 0.39789 0.28395 0.0
C710 C 0.7755 0.43898 0.2171 0.0
C711 C 0.7838 0.46313 0.18552 0.0
C712 C 0.74888 0.44094 0.24566 0.0
C713 C 0.76473 0.4888 0.18114 0.0
C714 C 0.7376 0.49045 0.20812 0.0
C715 C 0.70299 0.4687 0.26905 0.0
C716 C 0.69458 0.44472 0.30108 0.0
C717 C 0.72977 0.46687 0.24103 0.0
C718 C 0.71439 0.41964 0.30704 0.0
C719 C 0.74136 0.41777 0.27952 0.0
H720 H 0.10967 0.70751 0.30622 0.0
H721 H 0.03922 0.75431 0.38825 0.0
H722 H 0.02336 0.78144 0.31325 0.0
H723 H 0.02608 0.78768 0.22404 0.0
H724 H 0.09581 0.74111 0.13999 0.0
H725 H 0.11496 0.71702 0.21637 0.0
C726 C 0.09164 0.72454 0.30805 0.0
C727 C 0.0759 0.72934 0.35294 0.0
C728 C 0.08171 0.73889 0.26422 0.0
C729 C 0.05198 0.75075 0.35441 0.0
C730 C 0.04258 0.76577 0.31137 0.0
C731 C 0.04517 0.77185 0.222 0.0
C732 C 0.05884 0.76531 0.17599 0.0
C733 C 0.05651 0.75909 0.2659 0.0
C734 C 0.08439 0.74582 0.1747 0.0
C735 C 0.09554 0.73241 0.21841 0.0
H736 H 0.22355 0.00105 0.68172 0.0
H737 H 0.23774 0.91101 0.61979 0.0
H738 H 0.27554 0.89997 0.6844 0.0
H739 H 0.30014 0.91393 0.76326 0.0
H740 H 0.28512 0.00357 0.82554 0.0
H741 H 0.25015 0.01604 0.75734 0.0
C742 C 0.23525 0.97914 0.68164 0.0
C743 C 0.22735 0.9567 0.64631 0.0
C744 C 0.25547 0.97231 0.72039 0.0
C745 C 0.24327 0.92872 0.64641 0.0
C746 C 0.26441 0.92215 0.68399 0.0
C747 C 0.28856 0.93591 0.76256 0.0
C748 C 0.29421 0.95748 0.80024 0.0
C749 C 0.26959 0.94327 0.72232 0.0
C750 C 0.28026 0.98635 0.79772 0.0
C751 C 0.26078 0.99363 0.75835 0.0
H752 H 0.52786 0.20463 0.65084 0.0
H753 H 0.62046 0.23443 0.62251 0.0
H754 H 0.61837 0.26777 0.69542 0.0
H755 H 0.59007 0.28808 0.76698 0.0
H756 H 0.4976 0.25787 0.79401 0.0
H757 H 0.50049 0.22339 0.72282 0.0
C758 C 0.54757 0.21866 0.65992 0.0
C759 C 0.57424 0.21723 0.6307 0.0
C760 C 0.54662 0.23667 0.7027 0.0
C761 C 0.59955 0.23538 0.64391 0.0
C762 C 0.59851 0.25407 0.68596 0.0
C763 C 0.57094 0.27316 0.75826 0.0
C764 C 0.54384 0.27493 0.78627 0.0
C765 C 0.57231 0.25451 0.71601 0.0
C766 C 0.51883 0.25635 0.77354 0.0
C767 C 0.52033 0.2371 0.73241 0.0
H768 H 0.21962 0.51 0.82272 0.0
H769 H 0.24272 0.60424 0.85389 0.0
H770 H 0.25465 0.61245 0.76677 0.0
H771 H 0.25998 0.5926 0.68287 0.0
H772 H 0.23668 0.49848 0.65137 0.0
H773 H 0.22132 0.4912 0.73747 0.0
C774 C 0.22725 0.53238 0.81065 0.0
C775 C 0.23007 0.55648 0.84508 0.0
C776 C 0.23326 0.53722 0.76031 0.0
C777 C 0.24022 0.58525 0.82842 0.0
C778 C 0.24679 0.59007 0.77848 0.0
C779 C 0.25091 0.57061 0.69427 0.0
C780 C 0.24976 0.54599 0.66051 0.0
C781 C 0.24334 0.56623 0.74415 0.0
C782 C 0.23779 0.5178 0.67644 0.0
C783 C 0.22949 0.51349 0.72585 0.0
H784 H 0.89418 0.20513 0.80413 0.0
H785 H 0.97438 0.2209 0.89392 0.0
H786 H 0.99189 0.26013 0.83585 0.0
H787 H 0.98622 0.28676 0.75703 0.0
H788 H 0.90645 0.27096 0.66575 0.0
H789 H 0.88755 0.2335 0.72588 0.0
C790 C 0.91483 0.21812 0.81188 0.0
C791 C 0.93257 0.21097 0.85389 0.0
C792 C 0.92554 0.23931 0.7769 0.0
C793 C 0.95998 0.22683 0.86258 0.0
C794 C 0.97028 0.24869 0.82885 0.0
C795 C 0.96499 0.27472 0.74959 0.0
C796 C 0.94807 0.2812 0.70634 0.0
C797 C 0.95373 0.25433 0.78515 0.0
C798 C 0.9202 0.26591 0.69822 0.0
C799 C 0.90916 0.24492 0.73297 0.0
H800 H 0.67723 0.12024 0.89293 0.0
H801 H 0.59312 0.16133 0.94352 0.0
H802 H 0.57585 0.16739 0.8581 0.0
H803 H 0.58233 0.15638 0.77015 0.0
H804 H 0.66519 0.11269 0.71925 0.0
H805 H 0.6849 0.1115 0.80401 0.0
C806 C 0.655 0.13021 0.8853 0.0
C807 C 0.63607 0.1394 0.92454 0.0
C808 C 0.64479 0.13273 0.83618 0.0
C809 C 0.60803 0.15381 0.91396 0.0
C810 C 0.598 0.15705 0.86516 0.0
C811 C 0.60472 0.14656 0.77746 0.0
C812 C 0.62203 0.13417 0.73849 0.0
C813 C 0.6158 0.14576 0.82615 0.0
C814 C 0.65124 0.12211 0.74862 0.0
C815 C 0.66256 0.12145 0.79705 0.0
H816 H 0.33817 0.65486 0.89374 0.0
H817 H 0.30214 0.56862 0.94511 0.0
H818 H 0.30325 0.54847 0.86098 0.0
H819 H 0.3158 0.55462 0.77398 0.0
H820 H 0.35084 0.64085 0.72043 0.0
H821 H 0.34925 0.66163 0.80464 0.0
C822 C 0.33059 0.63168 0.88638 0.0
C823 C 0.32045 0.61312 0.92561 0.0
C824 C 0.33142 0.62016 0.83781 0.0
C825 C 0.30995 0.58339 0.91552 0.0
C826 C 0.3109 0.57173 0.86753 0.0
C827 C 0.32343 0.5779 0.78055 0.0
C828 C 0.33383 0.59602 0.74093 0.0
C829 C 0.32192 0.58978 0.82859 0.0
C830 C 0.34294 0.62633 0.75027 0.0
C831 C 0.34191 0.63825 0.79836 0.0
H832 H 0.84749 0.39201 0.93266 0.0
H833 H 0.92468 0.34123 0.99038 0.0
H834 H 0.94925 0.34308 0.91007 0.0
H835 H 0.95043 0.36104 0.82561 0.0
H836 H 0.87404 0.41152 0.76485 0.0
H837 H 0.84815 0.40917 0.8453 0.0
C838 C 0.86977 0.38161 0.92776 0.0
C839 C 0.88444 0.36708 0.96791 0.0
C840 C 0.88426 0.38334 0.88147 0.0
C841 C 0.91276 0.35255 0.96027 0.0
C842 C 0.92708 0.3539 0.91447 0.0
C843 C 0.92829 0.372 0.82985 0.0
C844 C 0.91443 0.38696 0.7895 0.0
C845 C 0.91335 0.36977 0.87527 0.0
C846 C 0.88537 0.40024 0.79557 0.0
C847 C 0.87049 0.39866 0.84138 0.0
H848 H 0.08304 0.91894 0.74145 0.0
H849 H 0.14607 0.85379 0.67881 0.0
H850 H 0.14324 0.82263 0.75403 0.0
H851 H 0.12788 0.81784 0.84204 0.0
H852 H 0.06406 0.88302 0.90248 0.0
H853 H 0.0618 0.90996 0.82387 0.0
C854 C 0.09562 0.89757 0.74394 0.0
C855 C 0.11495 0.88879 0.70509 0.0
C856 C 0.09387 0.87986 0.7871 0.0
C857 C 0.13095 0.86094 0.70834 0.0
C858 C 0.12955 0.84326 0.75148 0.0
C859 C 0.11295 0.83749 0.83736 0.0
C860 C 0.09589 0.84822 0.87776 0.0
C861 C 0.11185 0.85305 0.79176 0.0
C862 C 0.07681 0.87385 0.87167 0.0
C863 C 0.07577 0.88952 0.82679 0.0
H864 H 0.61856 0.34528 0.7328 0.0
H865 H 0.57495 0.43358 0.72537 0.0
H866 H 0.59085 0.43926 0.63905 0.0
H867 H 0.60827 0.4149 0.56323 0.0
H868 H 0.64724 0.32425 0.56759 0.0
H869 H 0.64161 0.32323 0.65777 0.0
C870 C 0.6138 0.36628 0.7127 0.0
C871 C 0.59627 0.38932 0.73518 0.0
C872 C 0.62139 0.36845 0.66237 0.0
C873 C 0.58901 0.41595 0.70871 0.0
C874 C 0.59774 0.41896 0.65931 0.0
C875 C 0.6168 0.39544 0.58387 0.0
C876 C 0.62869 0.36989 0.5588 0.0
C877 C 0.61271 0.39477 0.63526 0.0
C878 C 0.63819 0.34425 0.5862 0.0
C879 C 0.63496 0.34367 0.63767 0.0
H880 H 0.17431 0.56656 0.72913 0.0
H881 H 0.15247 0.65363 0.79579 0.0
H882 H 0.15652 0.67855 0.71486 0.0
H883 H 0.16566 0.67512 0.62455 0.0
H884 H 0.18976 0.58794 0.56068 0.0
H885 H 0.18584 0.56358 0.64147 0.0
C886 C 0.17041 0.59101 0.7262 0.0
C887 C 0.16295 0.60815 0.76847 0.0
C888 C 0.17362 0.60522 0.68014 0.0
C889 C 0.15814 0.63985 0.76378 0.0
C890 C 0.1606 0.65413 0.71759 0.0
C891 C 0.17049 0.65092 0.62872 0.0
C892 C 0.17803 0.63334 0.58698 0.0
C893 C 0.16839 0.63702 0.67551 0.0
C894 C 0.18439 0.60201 0.59251 0.0
C895 C 0.18189 0.58801 0.63858 0.0
H896 H 0.85487 0.0817 0.58509 0.0
H897 H 0.79039 0.15466 0.6103 0.0
H898 H 0.80359 0.15455 0.69875 0.0
H899 H 0.83697 0.13655 0.76678 0.0
H900 H 0.90466 0.06696 0.73779 0.0
H901 H 0.88617 0.06223 0.65261 0.0
C902 C 0.843 0.09698 0.60997 0.0
C903 C 0.82122 0.11774 0.59144 0.0
C904 C 0.85143 0.09737 0.65996 0.0
C905 C 0.80702 0.13829 0.624 0.0
C906 C 0.81461 0.13823 0.6744 0.0
C907 C 0.84714 0.11989 0.74202 0.0
C908 C 0.87196 0.10194 0.75835 0.0
C909 C 0.83723 0.11824 0.69258 0.0
C910 C 0.88549 0.08091 0.72585 0.0
C911 C 0.875 0.0783 0.67723 0.0
H912 H 0.37822 0.82125 0.57215 0.0
H913 H 0.32402 0.89972 0.52912 0.0
H914 H 0.32465 0.91823 0.6137 0.0
H915 H 0.34539 0.9158 0.69707 0.0
H916 H 0.39972 0.83845 0.74312 0.0
H917 H 0.39509 0.81623 0.65963 0.0
C918 C 0.36678 0.84249 0.58113 0.0
C919 C 0.35207 0.85957 0.54366 0.0
C920 C 0.36778 0.85354 0.63008 0.0
C921 C 0.33586 0.88617 0.5568 0.0
C922 C 0.3364 0.89702 0.6052 0.0
C923 C 0.35627 0.89405 0.68885 0.0
C924 C 0.37358 0.87911 0.72547 0.0
C925 C 0.35317 0.88149 0.64157 0.0
C926 C 0.38667 0.8505 0.71505 0.0
C927 C 0.38397 0.83787 0.66746 0.0
H928 H 0.36484 0.85599 0.23755 0.0
H929 H 0.4285 0.92868 0.2054 0.0
H930 H 0.40751 0.9331 0.12149 0.0
H931 H 0.37656 0.91147 0.05525 0.0
H932 H 0.31796 0.83401 0.08325 0.0
H933 H 0.33135 0.8362 0.17144 0.0
C934 C 0.37342 0.87342 0.21256 0.0
C935 C 0.39787 0.8923 0.22754 0.0
C936 C 0.36246 0.87455 0.16368 0.0
C937 C 0.40951 0.91416 0.19459 0.0
C938 C 0.39765 0.9165 0.14666 0.0
C939 C 0.36595 0.89555 0.08054 0.0
C940 C 0.34593 0.8728 0.0627 0.0
C941 C 0.37487 0.89612 0.13039 0.0
C942 C 0.33325 0.85183 0.09621 0.0
C943 C 0.34099 0.85305 0.1465 0.0
H944 H 0.6256 0.35499 0.23481 0.0
H945 H 0.53596 0.39405 0.21331 0.0
H946 H 0.53343 0.37227 0.12997 0.0
H947 H 0.56075 0.35158 0.05953 0.0
H948 H 0.65322 0.31845 0.07639 0.0
H949 H 0.65083 0.3284 0.16557 0.0
C950 C 0.60507 0.35757 0.21243 0.0
C951 C 0.58079 0.37565 0.22995 0.0
C952 C 0.6047 0.34668 0.16351 0.0
C953 C 0.55465 0.37984 0.20047 0.0
C954 C 0.55339 0.36767 0.15276 0.0
C955 C 0.58 0.34531 0.08265 0.0
C956 C 0.60705 0.33395 0.06129 0.0
C957 C 0.57888 0.35237 0.13318 0.0
C958 C 0.63211 0.32709 0.09207 0.0
C959 C 0.63077 0.33289 0.14296 0.0
H960 H 0.13506 0.60245 0.10272 0.0
H961 H 0.18707 0.68599 0.11356 0.0
H962 H 0.17612 0.68857 0.20266 0.0
H963 H 0.14983 0.66765 0.27622 0.0
H964 H 0.09413 0.58675 0.26157 0.0
H965 H 0.10916 0.58177 0.17464 0.0
C966 C 0.14456 0.6209 0.12459 0.0
C967 C 0.16243 0.64363 0.10209 0.0
C968 C 0.13764 0.62243 0.1749 0.0
C969 C 0.17353 0.6681 0.13053 0.0
C970 C 0.16732 0.6695 0.18126 0.0
C971 C 0.14159 0.64868 0.25395 0.0
C972 C 0.12154 0.62716 0.27471 0.0
C973 C 0.14926 0.64684 0.20372 0.0
C974 C 0.11 0.60314 0.24591 0.0
C975 C 0.11842 0.60046 0.19642 0.0
H976 H 0.8172 0.06665 0.22065 0.0
H977 H 0.85857 0.14926 0.27716 0.0
H978 H 0.85396 0.173 0.19489 0.0
H979 H 0.84058 0.16858 0.10556 0.0
H980 H 0.79865 0.08528 0.05246 0.0
H981 H 0.80091 0.06353 0.13514 0.0
C982 C 0.82537 0.08985 0.21513 0.0
C983 C 0.83879 0.10599 0.25461 0.0
C984 C 0.82226 0.10326 0.16847 0.0
C985 C 0.84842 0.1363 0.24712 0.0
C986 C 0.84574 0.14984 0.20019 0.0
C987 C 0.83158 0.14587 0.11244 0.0
C988 C 0.81969 0.12848 0.07292 0.0
C989 C 0.83298 0.13335 0.16041 0.0
C990 C 0.80765 0.09925 0.08228 0.0
C991 C 0.80916 0.08666 0.12949 0.0
H992 H 0.33106 0.62574 0.23798 0.0
H993 H 0.41926 0.66532 0.27283 0.0
H994 H 0.40345 0.67369 0.35766 0.0
H995 H 0.36654 0.66627 0.42379 0.0
H996 H 0.27855 0.62612 0.39179 0.0
H997 H 0.29217 0.62176 0.30412 0.0
C998 C 0.34675 0.63624 0.26413 0.0
C999 C 0.37648 0.64434 0.24905 0.0
C1000 C 0.3376 0.64091 0.31346 0.0
C1001 C 0.39642 0.65826 0.28339 0.0
C1002 C 0.38739 0.66327 0.33203 0.0
C1003 C 0.35006 0.65719 0.39745 0.0
C1004 C 0.32177 0.64618 0.41414 0.0
C1005 C 0.35828 0.65424 0.34765 0.0
C1006 C 0.30072 0.63424 0.37977 0.0
C1007 C 0.30851 0.63174 0.32972 0.0
H1008 H 0.85323 0.38934 0.28547 0.0
H1009 H 0.94013 0.43534 0.29873 0.0
H1010 H 0.94579 0.41655 0.38377 0.0
H1011 H 0.92336 0.39214 0.45592 0.0
H1012 H 0.83349 0.35178 0.44725 0.0
H1013 H 0.83131 0.36325 0.3583 0.0
C1014 C 0.87369 0.3945 0.30683 0.0
C1015 C 0.89656 0.41311 0.28626 0.0
C1016 C 0.87592 0.38498 0.3563 0.0
C1017 C 0.92257 0.42067 0.31413 0.0
C1018 C 0.92567 0.4101 0.36261 0.0
C1019 C 0.90362 0.38513 0.4345 0.0
C1020 C 0.87882 0.37067 0.45779 0.0
C1021 C 0.90213 0.39292 0.38436 0.0
C1022 C 0.85292 0.36271 0.42978 0.0
C1023 C 0.85169 0.36931 0.37912 0.0
H1024 H 0.09254 0.90898 0.22131 0.0
H1025 H 0.1365 0.82221 0.19617 0.0
H1026 H 0.16347 0.82635 0.27562 0.0
H1027 H 0.16775 0.85111 0.35746 0.0
H1028 H 0.12336 0.93809 0.38126 0.0
H1029 H 0.1041 0.93792 0.29707 0.0
C1030 C 0.10891 0.89162 0.23266 0.0
C1031 C 0.1129 0.86551 0.2034 0.0
C1032 C 0.12403 0.89409 0.27836 0.0
C1033 C 0.13365 0.84274 0.2182 0.0
C1034 C 0.14876 0.84496 0.26375 0.0
C1035 C 0.15456 0.87038 0.34366 0.0
C1036 C 0.14708 0.89451 0.37578 0.0
C1037 C 0.14317 0.87 0.29497 0.0
C1038 C 0.12995 0.91937 0.35752 0.0
C1039 C 0.11855 0.91918 0.30927 0.0
H1040 H 0.68163 0.04062 0.28015 0.0
H1041 H 0.64901 0.12491 0.21516 0.0
H1042 H 0.65273 0.15024 0.29558 0.0
H1043 H 0.66333 0.14772 0.3851 0.0
H1044 H 0.69673 0.06349 0.44881 0.0
H1045 H 0.69602 0.03926 0.3675 0.0
C1046 C 0.67542 0.06457 0.28339 0.0
C1047 C 0.6648 0.08074 0.24175 0.0
C1048 C 0.67822 0.07913 0.32934 0.0
C1049 C 0.6571 0.11184 0.24668 0.0
C1050 C 0.65933 0.12639 0.2926 0.0
C1051 C 0.67051 0.12411 0.38102 0.0
C1052 C 0.67947 0.10723 0.42288 0.0
C1053 C 0.66961 0.11017 0.33426 0.0
C1054 C 0.6897 0.07695 0.41706 0.0
C1055 C 0.689 0.06298 0.37069 0.0
H1056 H 0.57147 0.96059 0.01436 0.0
H1057 H 0.53092 0.04257 0.07375 0.0
H1058 H 0.48022 0.02579 0.04542 0.0
H1059 H 0.4483 0.98925 -0.00104 0.0
H1060 H 0.48953 0.90893 0.93515 0.0
H1061 H 0.53902 0.9227 0.9718 0.0
C1062 C 0.55142 0.97463 0.02112 0.0
C1063 C 0.55471 0.003 0.04494 0.0
C1064 C 0.52257 0.96481 0.00477 0.0
C1065 C 0.5288 0.02103 0.05419 0.0
C1066 C 0.4999 0.01129 0.03848 0.0
C1067 C 0.46809 0.97452 0.99416 0.0
C1068 C 0.46546 0.94801 0.96514 0.0
C1069 C 0.49661 0.98342 0.01319 0.0
C1070 C 0.49103 0.92909 0.95836 0.0
C1071 C 0.51936 0.93723 0.97859 0.0
H1072 H 0.4615 0.42403 0.99149 0.0
H1073 H 0.53986 0.46842 0.92702 0.0
H1074 H 0.52302 0.51777 0.96013 0.0
H1075 H 0.48497 0.54846 0.00477 0.0
H1076 H 0.40723 0.50427 0.0716 0.0
H1077 H 0.42425 0.4547 0.03929 0.0
C1078 C 0.47499 0.44453 0.98549 0.0
C1079 C 0.50212 0.44274 0.95792 0.0
C1080 C 0.4649 0.47281 0.00406 0.0
C1081 C 0.51929 0.46933 0.94928 0.0
C1082 C 0.5095 0.49751 0.9677 0.0
C1083 C 0.47181 0.52791 0.01219 0.0
C1084 C 0.44457 0.52996 0.03945 0.0
C1085 C 0.48219 0.49955 0.99469 0.0
C1086 C 0.42775 0.5033 0.04928 0.0
C1087 C 0.43769 0.47495 0.03138 0.0
H1088 H 0.04112 0.51523 0.92642 0.0
H1089 H 0.08298 0.54752 0.06144 0.0
H1090 H 0.03687 0.53417 0.10775 0.0
H1091 H 0.98534 0.51165 0.1103 0.0
H1092 H 0.9439 0.47765 0.97617 0.0
H1093 H 0.98953 0.49226 0.92913 0.0
C1094 C 0.04019 0.519 0.96607 0.0
C1095 C 0.06543 0.53206 0.99065 0.0
C1096 C 0.01383 0.5107 0.99256 0.0
C1097 C 0.06373 0.53759 0.04176 0.0
C1098 C 0.03748 0.5298 0.06827 0.0
C1099 C 0.98621 0.50782 0.07067 0.0
C1100 C 0.96129 0.49399 0.04646 0.0
C1101 C 0.01247 0.51619 0.04411 0.0
C1102 C 0.96291 0.48832 0.9954 0.0
C1103 C 0.9889 0.49676 0.96857 0.0
H1104 H 0.95472 0.91971 -0.00217 0.0
H1105 H 0.03027 0.95416 0.08422 0.0
H1106 H 0.01047 0.00638 0.07631 0.0
H1107 H 0.97311 0.04247 0.041 0.0
H1108 H 0.90017 0.00874 0.94824 0.0
H1109 H 0.91631 0.95597 0.96427 0.0
C1110 C 0.96683 0.93881 0.01446 0.0
C1111 C 0.99425 0.93348 0.0404 0.0
C1112 C 0.95525 0.96871 0.00974 0.0
C1113 C 0.00961 0.95805 0.06281 0.0
C1114 C -0.00193 0.98777 0.05887 0.0
C1115 C 0.96034 0.02342 0.02549 0.0
C1116 C 0.93523 0.02933 0.99427 0.0
C1117 C 0.97103 0.99339 0.03216 0.0
C1118 C 0.91908 0.00467 0.97346 0.0
C1119 C 0.9287 0.97455 0.98181 0.0
H1120 H 0.44325 0.51073 0.56764 0.0
H1121 H 0.40038 0.5369 0.43009 0.0
H1122 H 0.4455 0.51951 0.38425 0.0
H1123 H 0.49585 0.4945 0.38341 0.0
H1124 H 0.54018 0.4709 0.52115 0.0
H1125 H 0.49524 0.48856 0.56703 0.0
C1126 C 0.44394 0.51264 0.52762 0.0
C1127 C 0.4186 0.52476 0.50201 0.0
C1128 C 0.46992 0.50266 0.50174 0.0
C1129 C 0.41973 0.52764 0.45036 0.0
C1130 C 0.4454 0.51755 0.42425 0.0
C1131 C 0.496 0.49384 0.42351 0.0
C1132 C 0.52144 0.48164 0.44889 0.0
C1133 C 0.47048 0.50475 0.44954 0.0
C1134 C 0.52079 0.47998 0.50079 0.0
C1135 C 0.49521 0.49027 0.527 0.0
H1136 H 0.03011 0.53548 0.44471 0.0
H1137 H 0.07103 0.5674 0.58061 0.0
H1138 H 0.05572 0.51999 0.62236 0.0
H1139 H 0.02792 0.47086 0.62109 0.0
H1140 H 0.98607 0.43969 0.48538 0.0
H1141 H 0.00366 0.48588 0.44279 0.0
C1142 C 0.03543 0.53212 0.48358 0.0
C1143 C 0.05117 0.55503 0.50992 0.0
C1144 C 0.02614 0.50512 0.50732 0.0
C1145 C 0.05882 0.55006 0.55977 0.0
C1146 C 0.04995 0.52307 0.58362 0.0
C1147 C 0.02314 0.47398 0.58199 0.0
C1148 C 0.00595 0.45188 0.55619 0.0
C1149 C 0.03326 0.50061 0.5579 0.0
C1150 C -0.00079 0.4565 0.5059 0.0
C1151 C 0.00932 0.48282 0.48158 0.0
H1152 H 0.02629 0.00642 0.57682 0.0
H1153 H 0.06229 0.9887 0.4312 0.0
H1154 H 0.01359 0.00463 0.394 0.0
H1155 H 0.96077 0.02308 0.40324 0.0
H1156 H 0.92489 0.04167 0.54852 0.0
H1157 H 0.97428 0.02754 0.58578 0.0
C1158 C 0.02367 0.00665 0.5369 0.0
C1159 C 0.04793 -0.00324 0.50665 0.0
C1160 C 0.99587 0.01636 0.5159 0.0
C1161 C 0.04389 0.99615 0.45512 0.0
C1162 C 0.01617 0.00544 0.43391 0.0
C1163 C 0.96387 0.02408 0.44307 0.0
C1164 C 0.93932 0.033 0.47333 0.0
C1165 C 0.99203 0.01552 0.46397 0.0
C1166 C 0.9436 0.0349 0.52469 0.0
C1167 C 0.97169 0.02657 0.54589 0.0
H1168 H 0.52092 0.92577 0.50219 0.0
H1169 H 0.44952 0.97059 0.41894 0.0
H1170 H 0.46897 0.02066 0.44453 0.0
H1171 H 0.50768 0.0517 0.48774 0.0
H1172 H 0.58012 0.00734 0.56916 0.0
H1173 H 0.55969 0.95702 0.54598 0.0
C1174 C 0.50942 0.94659 0.49055 0.0
C1175 C 0.4834 0.94466 0.45995 0.0
C1176 C 0.52148 0.97526 0.50385 0.0
C1177 C 0.46898 0.97161 0.44387 0.0
C1178 C 0.48039 0.00019 0.45782 0.0
C1179 C 0.51906 0.03092 0.4999 0.0
C1180 C 0.54564 0.03298 0.52909 0.0
C1181 C 0.50686 0.00228 0.48718 0.0
C1182 C 0.5601 0.00613 0.54544 0.0
C1183 C 0.54818 0.97745 0.53278 0.0
loop_
_geom_bond_atom_site_label_1
_geom_bond_atom_site_label_2
_geom_bond_distance
_geom_bond_site_symmetry_2
_ccdc_geom_bond_type
Co0 O3 1.970 . S
Co0 N17 1.989 . S
Co0 O25 1.967 . S
Co0 O32 1.945 . S
Co1 O4 1.966 . S
Co1 N10 2.022 . S
Co1 N18 1.993 . S
Co1 O26 1.941 . S
C2 O3 1.258 . S
C2 O4 1.263 . S
O3 Co0 1.970 . S
O3 C2 1.258 . S
O4 Co1 1.966 . S
O4 C2 1.263 . S
C5 O6 1.235 . S
C5 O32 1.251 1_565 S
O6 C5 1.235 . S
C7 C9 1.400 . S
C7 N10 1.351 1_556 S
C7 C12 1.501 . S
C8 C9 1.387 . S
C8 N11 1.341 1_556 S
C9 C7 1.400 . S
C9 C8 1.387 . S
N10 Co1 2.022 . S
N10 C7 1.351 1_554 S
N10 N11 1.365 . S
N11 C8 1.341 1_554 S
N11 N10 1.365 . S
N11 H31 0.862 . S
C12 C7 1.501 . S
C12 H13 0.961 1_556 S
C12 H14 0.961 . S
C12 H15 0.960 . S
H13 C12 0.961 1_554 S
H14 C12 0.961 . S
H15 C12 0.960 . S
C16 N17 1.342 . S
C16 C20 1.401 . S
C16 C21 1.499 1_545 S
N17 Co0 1.989 . S
N17 C16 1.342 . S
N17 N18 1.388 . S
N18 Co1 1.993 . S
N18 N17 1.388 . S
N18 C19 1.346 . S
C19 N18 1.346 . S
C19 C20 1.396 . S
C19 C29 1.510 1_554 S
C20 C16 1.401 . S
C20 C19 1.396 . S
C21 C16 1.499 1_565 S
C21 H22 0.959 . S
C21 H23 0.960 . S
C21 H24 0.961 . S
H22 C21 0.959 . S
H23 C21 0.960 . S
H24 C21 0.961 . S
O25 Co0 1.967 . S
O25 C33 1.258 . S
O26 Co1 1.941 . S
O26 C33 1.266 . S
H27 C29 0.959 . S
H28 C29 0.961 . S
C29 C19 1.510 1_556 S
C29 H27 0.959 . S
C29 H28 0.961 . S
C29 H30 0.960 . S
H30 C29 0.960 . S
H31 N11 0.862 . S
O32 Co0 1.945 . S
O32 C5 1.251 1_545 S
C33 O25 1.258 . S
C33 O26 1.266 . S
Co34 O37 1.970 . S
Co34 N51 1.989 . S
Co34 O59 1.967 . S
Co34 O66 1.920 . S
Co35 O38 1.966 . S
Co35 N44 2.022 . S
Co35 N52 1.993 . S
Co35 O60 1.941 . S
C36 O37 1.258 . S
C36 O38 1.263 . S
O37 Co34 1.970 . S
O37 C36 1.258 . S
O38 Co35 1.966 . S
O38 C36 1.263 . S
C39 O40 1.235 . S
C39 O66 1.289 . S
O40 C39 1.235 . S
C41 C43 1.400 . S
C41 N44 1.351 1_556 S
C41 C46 1.501 . S
C42 C43 1.387 . S
C42 N45 1.341 1_556 S
C43 C41 1.400 . S
C43 C42 1.387 . S
N44 Co35 2.022 . S
N44 C41 1.351 1_554 S
N44 N45 1.365 . S
N45 C42 1.341 1_554 S
N45 N44 1.365 . S
N45 H65 0.862 . S
C46 C41 1.501 . S
C46 H47 0.961 1_556 S
C46 H48 0.961 . S
C46 H49 0.960 . S
H47 C46 0.961 1_554 S
H48 C46 0.961 . S
H49 C46 0.960 . S
C50 N51 1.342 . S
C50 C54 1.401 . S
C50 C55 1.499 . S
N51 Co34 1.989 . S
N51 C50 1.342 . S
N51 N52 1.388 . S
N52 Co35 1.993 . S
N52 N51 1.388 . S
N52 C53 1.346 . S
C53 N52 1.346 . S
C53 C54 1.396 . S
C53 C63 1.510 1_554 S
C54 C50 1.401 . S
C54 C53 1.396 . S
C55 C50 1.499 . S
C55 H56 0.959 . S
C55 H57 0.960 . S
C55 H58 0.961 . S
H56 C55 0.959 . S
H57 C55 0.960 . S
H58 C55 0.961 . S
O59 Co34 1.967 . S
O59 C67 1.258 . S
O60 Co35 1.941 . S
O60 C67 1.266 . S
H61 C63 0.959 . S
H62 C63 0.961 . S
C63 C53 1.510 1_556 S
C63 H61 0.959 . S
C63 H62 0.961 . S
C63 H64 0.960 . S
H64 C63 0.960 . S
H65 N45 0.862 . S
O66 Co34 1.920 . S
O66 C39 1.289 . S
C67 O59 1.258 . S
C67 O60 1.266 . S
Co68 O71 1.970 . S
Co68 N85 1.989 . S
Co68 O93 1.967 . S
Co68 O100 1.920 . S
Co69 O72 1.966 . S
Co69 N78 2.022 . S
Co69 N86 1.993 . S
Co69 O94 1.941 . S
C70 O71 1.258 . S
C70 O72 1.263 . S
O71 Co68 1.970 . S
O71 C70 1.258 . S
O72 Co69 1.966 . S
O72 C70 1.263 . S
C73 O74 1.235 . S
C73 O100 1.289 . S
O74 C73 1.235 . S
C75 C77 1.400 . S
C75 N78 1.351 1_556 S
C75 C80 1.501 . S
C76 C77 1.387 . S
C76 N79 1.341 1_556 S
C77 C75 1.400 . S
C77 C76 1.387 . S
N78 Co69 2.022 . S
N78 C75 1.351 1_554 S
N78 N79 1.365 . S
N79 C76 1.341 1_554 S
N79 N78 1.365 . S
N79 H99 0.862 . S
C80 C75 1.501 . S
C80 H81 0.961 1_556 S
C80 H82 0.961 . S
C80 H83 0.960 . S
H81 C80 0.961 1_554 S
H82 C80 0.961 . S
H83 C80 0.960 . S
C84 N85 1.342 . S
C84 C88 1.401 . S
C84 C89 1.499 . S
N85 Co68 1.989 . S
N85 C84 1.342 . S
N85 N86 1.388 . S
N86 Co69 1.993 . S
N86 N85 1.388 . S
N86 C87 1.346 . S
C87 N86 1.346 . S
C87 C88 1.396 . S
C87 C97 1.510 1_554 S
C88 C84 1.401 . S
C88 C87 1.396 . S
C89 C84 1.499 . S
C89 H90 0.959 . S
C89 H91 0.960 . S
C89 H92 0.961 . S
H90 C89 0.959 . S
H91 C89 0.960 . S
H92 C89 0.961 . S
O93 Co68 1.967 . S
O93 C101 1.258 . S
O94 Co69 1.941 . S
O94 C101 1.266 . S
H95 C97 0.959 . S
H96 C97 0.961 . S
C97 C87 1.510 1_556 S
C97 H95 0.959 . S
C97 H96 0.961 . S
C97 H98 0.960 . S
H98 C97 0.960 . S
H99 N79 0.862 . S
O100 Co68 1.920 . S
O100 C73 1.289 . S
C101 O93 1.258 . S
C101 O94 1.266 . S
Co102 O105 1.970 . S
Co102 N119 1.989 . S
Co102 O127 1.967 . S
Co102 O134 1.945 . S
Co103 O106 1.966 . S
Co103 N112 2.022 . S
Co103 N120 1.993 . S
Co103 O128 1.941 . S
C104 O105 1.258 . S
C104 O106 1.263 . S
O105 Co102 1.970 . S
O105 C104 1.258 . S
O106 Co103 1.966 . S
O106 C104 1.263 . S
C107 O108 1.235 . S
C107 O134 1.251 1_655 S
O108 C107 1.235 . S
C109 C111 1.400 . S
C109 N112 1.351 1_556 S
C109 C114 1.501 . S
C110 C111 1.387 . S
C110 N113 1.341 1_556 S
C111 C109 1.400 . S
C111 C110 1.387 . S
N112 Co103 2.022 . S
N112 C109 1.351 1_554 S
N112 N113 1.365 . S
N113 C110 1.341 1_554 S
N113 N112 1.365 . S
N113 H133 0.862 . S
C114 C109 1.501 . S
C114 H115 0.961 1_556 S
C114 H116 0.961 . S
C114 H117 0.960 . S
H115 C114 0.961 1_554 S
H116 C114 0.961 . S
H117 C114 0.960 . S
C118 N119 1.342 . S
C118 C122 1.401 . S
C118 C123 1.499 1_455 S
N119 Co102 1.989 . S
N119 C118 1.342 . S
N119 N120 1.388 . S
N120 Co103 1.993 . S
N120 N119 1.388 . S
N120 C121 1.346 . S
C121 N120 1.346 . S
C121 C122 1.396 . S
C121 C131 1.510 1_554 S
C122 C118 1.401 . S
C122 C121 1.396 . S
C123 C118 1.499 1_655 S
C123 H124 0.959 . S
C123 H125 0.960 . S
C123 H126 0.961 . S
H124 C123 0.959 . S
H125 C123 0.960 . S
H126 C123 0.961 . S
O127 Co102 1.967 . S
O127 C135 1.258 . S
O128 Co103 1.941 . S
O128 C135 1.266 . S
H129 C131 0.959 . S
H130 C131 0.961 . S
C131 C121 1.510 1_556 S
C131 H129 0.959 . S
C131 H130 0.961 . S
C131 H132 0.960 . S
H132 C131 0.960 . S
H133 N113 0.862 . S
O134 Co102 1.945 . S
O134 C107 1.251 1_455 S
C135 O127 1.258 . S
C135 O128 1.266 . S
Co136 O139 1.970 . S
Co136 N153 1.989 . S
Co136 O161 1.967 . S
Co136 O168 1.920 . S
Co137 O140 1.966 . S
Co137 N146 2.022 . S
Co137 N154 1.993 . S
Co137 O162 1.941 . S
C138 O139 1.258 . S
C138 O140 1.263 . S
O139 Co136 1.970 . S
O139 C138 1.258 . S
O140 Co137 1.966 . S
O140 C138 1.263 . S
C141 O142 1.235 . S
C141 O168 1.289 . S
O142 C141 1.235 . S
C143 C145 1.400 . S
C143 N146 1.351 . S
C143 C148 1.501 . S
C144 C145 1.387 . S
C144 N147 1.341 . S
C145 C143 1.400 . S
C145 C144 1.387 . S
N146 Co137 2.022 . S
N146 C143 1.351 . S
N146 N147 1.365 . S
N147 C144 1.341 . S
N147 N146 1.365 . S
N147 H167 0.862 . S
C148 C143 1.501 . S
C148 H149 0.961 . S
C148 H150 0.961 . S
C148 H151 0.960 . S
H149 C148 0.961 . S
H150 C148 0.961 . S
H151 C148 0.960 . S
C152 N153 1.342 . S
C152 C156 1.401 . S
C152 C157 1.499 . S
N153 Co136 1.989 . S
N153 C152 1.342 . S
N153 N154 1.388 . S
N154 Co137 1.993 . S
N154 N153 1.388 . S
N154 C155 1.346 . S
C155 N154 1.346 . S
C155 C156 1.396 . S
C155 C165 1.510 . S
C156 C152 1.401 . S
C156 C155 1.396 . S
C157 C152 1.499 . S
C157 H158 0.959 . S
C157 H159 0.960 . S
C157 H160 0.961 . S
H158 C157 0.959 . S
H159 C157 0.960 . S
H160 C157 0.961 . S
O161 Co136 1.967 . S
O161 C169 1.258 . S
O162 Co137 1.941 . S
O162 C169 1.266 . S
H163 C165 0.959 . S
H164 C165 0.961 . S
C165 C155 1.510 . S
C165 H163 0.959 . S
C165 H164 0.961 . S
C165 H166 0.960 . S
H166 C165 0.960 . S
H167 N147 0.862 . S
O168 Co136 1.920 . S
O168 C141 1.289 . S
C169 O161 1.258 . S
C169 O162 1.266 . S
Co170 O173 1.970 . S
Co170 N187 1.989 . S
Co170 O195 1.967 . S
Co170 O202 1.945 . S
Co171 O174 1.966 . S
Co171 N180 2.022 . S
Co171 N188 1.993 . S
Co171 O196 1.941 . S
C172 O173 1.258 . S
C172 O174 1.263 . S
O173 Co170 1.970 . S
O173 C172 1.258 . S
O174 Co171 1.966 . S
O174 C172 1.263 . S
C175 O176 1.235 . S
C175 O202 1.251 1_655 S
O176 C175 1.235 . S
C177 C179 1.400 . S
C177 N180 1.351 . S
C177 C182 1.501 . S
C178 C179 1.387 . S
C178 N181 1.341 . S
C179 C177 1.400 . S
C179 C178 1.387 . S
N180 Co171 2.022 . S
N180 C177 1.351 . S
N180 N181 1.365 . S
N181 C178 1.341 . S
N181 N180 1.365 . S
N181 H201 0.862 . S
C182 C177 1.501 . S
C182 H183 0.961 . S
C182 H184 0.961 . S
C182 H185 0.960 . S
H183 C182 0.961 . S
H184 C182 0.961 . S
H185 C182 0.960 . S
C186 N187 1.342 . S
C186 C190 1.401 . S
C186 C191 1.499 1_455 S
N187 Co170 1.989 . S
N187 C186 1.342 . S
N187 N188 1.388 . S
N188 Co171 1.993 . S
N188 N187 1.388 . S
N188 C189 1.346 . S
C189 N188 1.346 . S
C189 C190 1.396 . S
C189 C199 1.510 . S
C190 C186 1.401 . S
C190 C189 1.396 . S
C191 C186 1.499 1_655 S
C191 H192 0.959 . S
C191 H193 0.960 . S
C191 H194 0.961 . S
H192 C191 0.959 . S
H193 C191 0.960 . S
H194 C191 0.961 . S
O195 Co170 1.967 . S
O195 C203 1.258 . S
O196 Co171 1.941 . S
O196 C203 1.266 . S
H197 C199 0.959 . S
H198 C199 0.961 . S
C199 C189 1.510 . S
C199 H197 0.959 . S
C199 H198 0.961 . S
C199 H200 0.960 . S
H200 C199 0.960 . S
H201 N181 0.862 . S
O202 Co170 1.945 . S
O202 C175 1.251 1_455 S
C203 O195 1.258 . S
C203 O196 1.266 . S
Co204 O207 1.970 . S
Co204 N221 1.989 . S
Co204 O229 1.967 . S
Co204 O236 1.945 . S
Co205 O208 1.966 . S
Co205 N214 2.022 . S
Co205 N222 1.993 . S
Co205 O230 1.941 . S
C206 O207 1.258 . S
C206 O208 1.263 . S
O207 Co204 1.970 . S
O207 C206 1.258 . S
O208 Co205 1.966 . S
O208 C206 1.263 . S
C209 O210 1.235 . S
C209 O236 1.251 1_565 S
O210 C209 1.235 . S
C211 C213 1.400 . S
C211 N214 1.351 . S
C211 C216 1.501 . S
C212 C213 1.387 . S
C212 N215 1.341 . S
C213 C211 1.400 . S
C213 C212 1.387 . S
N214 Co205 2.022 . S
N214 C211 1.351 . S
N214 N215 1.365 . S
N215 C212 1.341 . S
N215 N214 1.365 . S
N215 H235 0.862 . S
C216 C211 1.501 . S
C216 H217 0.961 . S
C216 H218 0.961 . S
C216 H219 0.960 . S
H217 C216 0.961 . S
H218 C216 0.961 . S
H219 C216 0.960 . S
C220 N221 1.342 . S
C220 C224 1.401 . S
C220 C225 1.499 1_545 S
N221 Co204 1.989 . S
N221 C220 1.342 . S
N221 N222 1.388 . S
N222 Co205 1.993 . S
N222 N221 1.388 . S
N222 C223 1.346 . S
C223 N222 1.346 . S
C223 C224 1.396 . S
C223 C233 1.510 . S
C224 C220 1.401 . S
C224 C223 1.396 . S
C225 C220 1.499 1_565 S
C225 H226 0.959 . S
C225 H227 0.960 . S
C225 H228 0.961 . S
H226 C225 0.959 . S
H227 C225 0.960 . S
H228 C225 0.961 . S
O229 Co204 1.967 . S
O229 C237 1.258 . S
O230 Co205 1.941 . S
O230 C237 1.266 . S
H231 C233 0.959 . S
H232 C233 0.961 . S
C233 C223 1.510 . S
C233 H231 0.959 . S
C233 H232 0.961 . S
C233 H234 0.960 . S
H234 C233 0.960 . S
H235 N215 0.862 . S
O236 Co204 1.945 . S
O236 C209 1.251 1_545 S
C237 O229 1.258 . S
C237 O230 1.266 . S
Co238 O241 1.970 . S
Co238 N255 1.989 . S
Co238 O263 1.967 . S
Co238 O270 1.920 . S
Co239 O242 1.966 . S
Co239 N248 2.022 . S
Co239 N256 1.993 . S
Co239 O264 1.941 . S
C240 O241 1.258 . S
C240 O242 1.263 . S
O241 Co238 1.970 . S
O241 C240 1.258 . S
O242 Co239 1.966 . S
O242 C240 1.263 . S
C243 O244 1.235 . S
C243 O270 1.289 . S
O244 C243 1.235 . S
C245 C247 1.400 . S
C245 N248 1.351 . S
C245 C250 1.501 . S
C246 C247 1.387 . S
C246 N249 1.341 . S
C247 C245 1.400 . S
C247 C246 1.387 . S
N248 Co239 2.022 . S
N248 C245 1.351 . S
N248 N249 1.365 . S
N249 C246 1.341 . S
N249 N248 1.365 . S
N249 H269 0.862 . S
C250 C245 1.501 . S
C250 H251 0.961 . S
C250 H252 0.961 . S
C250 H253 0.960 . S
H251 C250 0.961 . S
H252 C250 0.961 . S
H253 C250 0.960 . S
C254 N255 1.342 . S
C254 C258 1.401 . S
C254 C259 1.499 . S
N255 Co238 1.989 . S
N255 C254 1.342 . S
N255 N256 1.388 . S
N256 Co239 1.993 . S
N256 N255 1.388 . S
N256 C257 1.346 . S
C257 N256 1.346 . S
C257 C258 1.396 . S
C257 C267 1.510 . S
C258 C254 1.401 . S
C258 C257 1.396 . S
C259 C254 1.499 . S
C259 H260 0.959 . S
C259 H261 0.960 . S
C259 H262 0.961 . S
H260 C259 0.959 . S
H261 C259 0.960 . S
H262 C259 0.961 . S
O263 Co238 1.967 . S
O263 C271 1.258 . S
O264 Co239 1.941 . S
O264 C271 1.266 . S
H265 C267 0.959 . S
H266 C267 0.961 . S
C267 C257 1.510 . S
C267 H265 0.959 . S
C267 H266 0.961 . S
C267 H268 0.960 . S
H268 C267 0.960 . S
H269 N249 0.862 . S
O270 Co238 1.920 . S
O270 C243 1.289 . S
C271 O263 1.258 . S
C271 O264 1.266 . S
Co272 O275 1.970 . S
Co272 N289 1.989 . S
Co272 O297 1.967 . S
Co272 O304 1.945 . S
Co273 O276 1.966 . S
Co273 N282 2.022 . S
Co273 N290 1.993 . S
Co273 O298 1.941 . S
C274 O275 1.258 . S
C274 O276 1.263 . S
O275 Co272 1.970 . S
O275 C274 1.258 . S
O276 Co273 1.966 . S
O276 C274 1.263 . S
C277 O278 1.235 . S
C277 O304 1.251 1_545 S
O278 C277 1.235 . S
C279 C281 1.400 . S
C279 N282 1.351 1_554 S
C279 C284 1.501 . S
C280 C281 1.387 . S
C280 N283 1.341 1_554 S
C281 C279 1.400 . S
C281 C280 1.387 . S
N282 Co273 2.022 . S
N282 C279 1.351 1_556 S
N282 N283 1.365 . S
N283 C280 1.341 1_556 S
N283 N282 1.365 . S
N283 H303 0.862 . S
C284 C279 1.501 . S
C284 H285 0.961 1_554 S
C284 H286 0.961 . S
C284 H287 0.960 . S
H285 C284 0.961 1_556 S
H286 C284 0.961 . S
H287 C284 0.960 . S
C288 N289 1.342 . S
C288 C292 1.401 . S
C288 C293 1.499 1_565 S
N289 Co272 1.989 . S
N289 C288 1.342 . S
N289 N290 1.388 . S
N290 Co273 1.993 . S
N290 N289 1.388 . S
N290 C291 1.346 . S
C291 N290 1.346 . S
C291 C292 1.396 . S
C291 C301 1.510 1_556 S
C292 C288 1.401 . S
C292 C291 1.396 . S
C293 C288 1.499 1_545 S
C293 H294 0.959 . S
C293 H295 0.960 . S
C293 H296 0.961 . S
H294 C293 0.959 . S
H295 C293 0.960 . S
H296 C293 0.961 . S
O297 Co272 1.967 . S
O297 C305 1.258 . S
O298 Co273 1.941 . S
O298 C305 1.266 . S
H299 C301 0.959 . S
H300 C301 0.961 . S
C301 C291 1.510 1_554 S
C301 H299 0.959 . S
C301 H300 0.961 . S
C301 H302 0.960 . S
H302 C301 0.960 . S
H303 N283 0.862 . S
O304 Co272 1.945 . S
O304 C277 1.251 1_565 S
C305 O297 1.258 . S
C305 O298 1.266 . S
Co306 O309 1.970 . S
Co306 N323 1.989 . S
Co306 O331 1.967 . S
Co306 O338 1.920 . S
Co307 O310 1.966 . S
Co307 N316 2.022 . S
Co307 N324 1.993 . S
Co307 O332 1.941 . S
C308 O309 1.258 . S
C308 O310 1.263 . S
O309 Co306 1.970 . S
O309 C308 1.258 . S
O310 Co307 1.966 . S
O310 C308 1.263 . S
C311 O312 1.235 . S
C311 O338 1.289 . S
O312 C311 1.235 . S
C313 C315 1.400 . S
C313 N316 1.351 1_554 S
C313 C318 1.501 . S
C314 C315 1.387 . S
C314 N317 1.341 1_554 S
C315 C313 1.400 . S
C315 C314 1.387 . S
N316 Co307 2.022 . S
N316 C313 1.351 1_556 S
N316 N317 1.365 . S
N317 C314 1.341 1_556 S
N317 N316 1.365 . S
N317 H337 0.862 . S
C318 C313 1.501 . S
C318 H319 0.961 1_554 S
C318 H320 0.961 . S
C318 H321 0.960 . S
H319 C318 0.961 1_556 S
H320 C318 0.961 . S
H321 C318 0.960 . S
C322 N323 1.342 . S
C322 C326 1.401 . S
C322 C327 1.499 . S
N323 Co306 1.989 . S
N323 C322 1.342 . S
N323 N324 1.388 . S
N324 Co307 1.993 . S
N324 N323 1.388 . S
N324 C325 1.346 . S
C325 N324 1.346 . S
C325 C326 1.396 . S
C325 C335 1.510 1_556 S
C326 C322 1.401 . S
C326 C325 1.396 . S
C327 C322 1.499 . S
C327 H328 0.959 . S
C327 H329 0.960 . S
C327 H330 0.961 . S
H328 C327 0.959 . S
H329 C327 0.960 . S
H330 C327 0.961 . S
O331 Co306 1.967 . S
O331 C339 1.258 . S
O332 Co307 1.941 . S
O332 C339 1.266 . S
H333 C335 0.959 . S
H334 C335 0.961 . S
C335 C325 1.510 1_554 S
C335 H333 0.959 . S
C335 H334 0.961 . S
C335 H336 0.960 . S
H336 C335 0.960 . S
H337 N317 0.862 . S
O338 Co306 1.920 . S
O338 C311 1.289 . S
C339 O331 1.258 . S
C339 O332 1.266 . S
Co340 O343 1.970 . S
Co340 N357 1.989 . S
Co340 O365 1.967 . S
Co340 O372 1.920 . S
Co341 O344 1.966 . S
Co341 N350 2.022 . S
Co341 N358 1.993 . S
Co341 O366 1.941 . S
C342 O343 1.258 . S
C342 O344 1.263 . S
O343 Co340 1.970 . S
O343 C342 1.258 . S
O344 Co341 1.966 . S
O344 C342 1.263 . S
C345 O346 1.235 . S
C345 O372 1.289 . S
O346 C345 1.235 . S
C347 C349 1.400 . S
C347 N350 1.351 1_554 S
C347 C352 1.501 . S
C348 C349 1.387 . S
C348 N351 1.341 1_554 S
C349 C347 1.400 . S
C349 C348 1.387 . S
N350 Co341 2.022 . S
N350 C347 1.351 1_556 S
N350 N351 1.365 . S
N351 C348 1.341 1_556 S
N351 N350 1.365 . S
N351 H371 0.862 . S
C352 C347 1.501 . S
C352 H353 0.961 1_554 S
C352 H354 0.961 . S
C352 H355 0.960 . S
H353 C352 0.961 1_556 S
H354 C352 0.961 . S
H355 C352 0.960 . S
C356 N357 1.342 . S
C356 C360 1.401 . S
C356 C361 1.499 . S
N357 Co340 1.989 . S
N357 C356 1.342 . S
N357 N358 1.388 . S
N358 Co341 1.993 . S
N358 N357 1.388 . S
N358 C359 1.346 . S
C359 N358 1.346 . S
C359 C360 1.396 . S
C359 C369 1.510 1_556 S
C360 C356 1.401 . S
C360 C359 1.396 . S
C361 C356 1.499 . S
C361 H362 0.959 . S
C361 H363 0.960 . S
C361 H364 0.961 . S
H362 C361 0.959 . S
H363 C361 0.960 . S
H364 C361 0.961 . S
O365 Co340 1.967 . S
O365 C373 1.258 . S
O366 Co341 1.941 . S
O366 C373 1.266 . S
H367 C369 0.959 . S
H368 C369 0.961 . S
C369 C359 1.510 1_554 S
C369 H367 0.959 . S
C369 H368 0.961 . S
C369 H370 0.960 . S
H370 C369 0.960 . S
H371 N351 0.862 . S
O372 Co340 1.920 . S
O372 C345 1.289 . S
C373 O365 1.258 . S
C373 O366 1.266 . S
Co374 O377 1.970 . S
Co374 N391 1.989 . S
Co374 O399 1.967 . S
Co374 O406 1.945 . S
Co375 O378 1.966 . S
Co375 N384 2.022 . S
Co375 N392 1.993 . S
Co375 O400 1.941 . S
C376 O377 1.258 . S
C376 O378 1.263 . S
O377 Co374 1.970 . S
O377 C376 1.258 . S
O378 Co375 1.966 . S
O378 C376 1.263 . S
C379 O380 1.235 . S
C379 O406 1.251 1_455 S
O380 C379 1.235 . S
C381 C383 1.400 . S
C381 N384 1.351 1_554 S
C381 C386 1.501 . S
C382 C383 1.387 . S
C382 N385 1.341 1_554 S
C383 C381 1.400 . S
C383 C382 1.387 . S
N384 Co375 2.022 . S
N384 C381 1.351 1_556 S
N384 N385 1.365 . S
N385 C382 1.341 1_556 S
N385 N384 1.365 . S
N385 H405 0.862 . S
C386 C381 1.501 . S
C386 H387 0.961 1_554 S
C386 H388 0.961 . S
C386 H389 0.960 . S
H387 C386 0.961 1_556 S
H388 C386 0.961 . S
H389 C386 0.960 . S
C390 N391 1.342 . S
C390 C394 1.401 . S
C390 C395 1.499 1_655 S
N391 Co374 1.989 . S
N391 C390 1.342 . S
N391 N392 1.388 . S
N392 Co375 1.993 . S
N392 N391 1.388 . S
N392 C393 1.346 . S
C393 N392 1.346 . S
C393 C394 1.396 . S
C393 C403 1.510 1_556 S
C394 C390 1.401 . S
C394 C393 1.396 . S
C395 C390 1.499 1_455 S
C395 H396 0.959 . S
C395 H397 0.960 . S
C395 H398 0.961 . S
H396 C395 0.959 . S
H397 C395 0.960 . S
H398 C395 0.961 . S
O399 Co374 1.967 . S
O399 C407 1.258 . S
O400 Co375 1.941 . S
O400 C407 1.266 . S
H401 C403 0.959 . S
H402 C403 0.961 . S
C403 C393 1.510 1_554 S
C403 H401 0.959 . S
C403 H402 0.961 . S
C403 H404 0.960 . S
H404 C403 0.960 . S
H405 N385 0.862 . S
O406 Co374 1.945 . S
O406 C379 1.251 1_655 S
C407 O399 1.258 . S
C407 O400 1.266 . S
Co408 O411 1.970 . S
Co408 N425 1.989 . S
Co408 O433 1.967 . S
Co408 O440 1.920 . S
Co409 O412 1.966 . S
Co409 N418 2.022 . S
Co409 N426 1.993 . S
Co409 O434 1.941 . S
C410 O411 1.258 . S
C410 O412 1.263 . S
O411 Co408 1.970 . S
O411 C410 1.258 . S
O412 Co409 1.966 . S
O412 C410 1.263 . S
C413 O414 1.235 . S
C413 O440 1.289 . S
O414 C413 1.235 . S
C415 C417 1.400 . S
C415 N418 1.351 . S
C415 C420 1.501 . S
C416 C417 1.387 . S
C416 N419 1.341 . S
C417 C415 1.400 . S
C417 C416 1.387 . S
N418 Co409 2.022 . S
N418 C415 1.351 . S
N418 N419 1.365 . S
N419 C416 1.341 . S
N419 N418 1.365 . S
N419 H439 0.862 . S
C420 C415 1.501 . S
C420 H421 0.961 . S
C420 H422 0.961 . S
C420 H423 0.960 . S
H421 C420 0.961 . S
H422 C420 0.961 . S
H423 C420 0.960 . S
C424 N425 1.342 . S
C424 C428 1.401 . S
C424 C429 1.499 . S
N425 Co408 1.989 . S
N425 C424 1.342 . S
N425 N426 1.388 . S
N426 Co409 1.993 . S
N426 N425 1.388 . S
N426 C427 1.346 . S
C427 N426 1.346 . S
C427 C428 1.396 . S
C427 C437 1.510 . S
C428 C424 1.401 . S
C428 C427 1.396 . S
C429 C424 1.499 . S
C429 H430 0.959 . S
C429 H431 0.960 . S
C429 H432 0.961 . S
H430 C429 0.959 . S
H431 C429 0.960 . S
H432 C429 0.961 . S
O433 Co408 1.967 . S
O433 C441 1.258 . S
O434 Co409 1.941 . S
O434 C441 1.266 . S
H435 C437 0.959 . S
H436 C437 0.961 . S
C437 C427 1.510 . S
C437 H435 0.959 . S
C437 H436 0.961 . S
C437 H438 0.960 . S
H438 C437 0.960 . S
H439 N419 0.862 . S
O440 Co408 1.920 . S
O440 C413 1.289 . S
C441 O433 1.258 . S
C441 O434 1.266 . S
Co442 O445 1.970 . S
Co442 N459 1.989 . S
Co442 O467 1.967 . S
Co442 O474 1.945 . S
Co443 O446 1.966 . S
Co443 N452 2.022 . S
Co443 N460 1.993 . S
Co443 O468 1.941 . S
C444 O445 1.258 . S
C444 O446 1.263 . S
O445 Co442 1.970 . S
O445 C444 1.258 . S
O446 Co443 1.966 . S
O446 C444 1.263 . S
C447 O448 1.235 . S
C447 O474 1.251 1_455 S
O448 C447 1.235 . S
C449 C451 1.400 . S
C449 N452 1.351 . S
C449 C454 1.501 . S
C450 C451 1.387 . S
C450 N453 1.341 . S
C451 C449 1.400 . S
C451 C450 1.387 . S
N452 Co443 2.022 . S
N452 C449 1.351 . S
N452 N453 1.365 . S
N453 C450 1.341 . S
N453 N452 1.365 . S
N453 H473 0.862 . S
C454 C449 1.501 . S
C454 H455 0.961 . S
C454 H456 0.961 . S
C454 H457 0.960 . S
H455 C454 0.961 . S
H456 C454 0.961 . S
H457 C454 0.960 . S
C458 N459 1.342 . S
C458 C462 1.401 . S
C458 C463 1.499 1_655 S
N459 Co442 1.989 . S
N459 C458 1.342 . S
N459 N460 1.388 . S
N460 Co443 1.993 . S
N460 N459 1.388 . S
N460 C461 1.346 . S
C461 N460 1.346 . S
C461 C462 1.396 . S
C461 C471 1.510 . S
C462 C458 1.401 . S
C462 C461 1.396 . S
C463 C458 1.499 1_455 S
C463 H464 0.959 . S
C463 H465 0.960 . S
C463 H466 0.961 . S
H464 C463 0.959 . S
H465 C463 0.960 . S
H466 C463 0.961 . S
O467 Co442 1.967 . S
O467 C475 1.258 . S
O468 Co443 1.941 . S
O468 C475 1.266 . S
H469 C471 0.959 . S
H470 C471 0.961 . S
C471 C461 1.510 . S
C471 H469 0.959 . S
C471 H470 0.961 . S
C471 H472 0.960 . S
H472 C471 0.960 . S
H473 N453 0.862 . S
O474 Co442 1.945 . S
O474 C447 1.251 1_655 S
C475 O467 1.258 . S
C475 O468 1.266 . S
Co476 O479 1.970 . S
Co476 N493 1.989 . S
Co476 O501 1.967 . S
Co476 O508 1.945 . S
Co477 O480 1.966 . S
Co477 N486 2.022 . S
Co477 N494 1.993 . S
Co477 O502 1.941 . S
C478 O479 1.258 . S
C478 O480 1.263 . S
O479 Co476 1.970 . S
O479 C478 1.258 . S
O480 Co477 1.966 . S
O480 C478 1.263 . S
C481 O482 1.235 . S
C481 O508 1.251 1_545 S
O482 C481 1.235 . S
C483 C485 1.400 . S
C483 N486 1.351 . S
C483 C488 1.501 . S
C484 C485 1.387 . S
C484 N487 1.341 . S
C485 C483 1.400 . S
C485 C484 1.387 . S
N486 Co477 2.022 . S
N486 C483 1.351 . S
N486 N487 1.365 . S
N487 C484 1.341 . S
N487 N486 1.365 . S
N487 H507 0.862 . S
C488 C483 1.501 . S
C488 H489 0.961 . S
C488 H490 0.961 . S
C488 H491 0.960 . S
H489 C488 0.961 . S
H490 C488 0.961 . S
H491 C488 0.960 . S
C492 N493 1.342 . S
C492 C496 1.401 . S
C492 C497 1.499 1_565 S
N493 Co476 1.989 . S
N493 C492 1.342 . S
N493 N494 1.388 . S
N494 Co477 1.993 . S
N494 N493 1.388 . S
N494 C495 1.346 . S
C495 N494 1.346 . S
C495 C496 1.396 . S
C495 C505 1.510 . S
C496 C492 1.401 . S
C496 C495 1.396 . S
C497 C492 1.499 1_545 S
C497 H498 0.959 . S
C497 H499 0.960 . S
C497 H500 0.961 . S
H498 C497 0.959 . S
H499 C497 0.960 . S
H500 C497 0.961 . S
O501 Co476 1.967 . S
O501 C509 1.258 . S
O502 Co477 1.941 . S
O502 C509 1.266 . S
H503 C505 0.959 . S
H504 C505 0.961 . S
C505 C495 1.510 . S
C505 H503 0.959 . S
C505 H504 0.961 . S
C505 H506 0.960 . S
H506 C505 0.960 . S
H507 N487 0.862 . S
O508 Co476 1.945 . S
O508 C481 1.251 1_565 S
C509 O501 1.258 . S
C509 O502 1.266 . S
Co510 O513 1.970 . S
Co510 N527 1.989 . S
Co510 O535 1.967 . S
Co510 O542 1.920 . S
Co511 O514 1.966 . S
Co511 N520 2.022 . S
Co511 N528 1.993 . S
Co511 O536 1.941 . S
C512 O513 1.258 . S
C512 O514 1.263 . S
O513 Co510 1.970 . S
O513 C512 1.258 . S
O514 Co511 1.966 . S
O514 C512 1.263 . S
C515 O516 1.235 . S
C515 O542 1.289 . S
O516 C515 1.235 . S
C517 C519 1.400 . S
C517 N520 1.351 . S
C517 C522 1.501 . S
C518 C519 1.387 . S
C518 N521 1.341 . S
C519 C517 1.400 . S
C519 C518 1.387 . S
N520 Co511 2.022 . S
N520 C517 1.351 . S
N520 N521 1.365 . S
N521 C518 1.341 . S
N521 N520 1.365 . S
N521 H541 0.862 . S
C522 C517 1.501 . S
C522 H523 0.961 . S
C522 H524 0.961 . S
C522 H525 0.960 . S
H523 C522 0.961 . S
H524 C522 0.961 . S
H525 C522 0.960 . S
C526 N527 1.342 . S
C526 C530 1.401 . S
C526 C531 1.499 . S
N527 Co510 1.989 . S
N527 C526 1.342 . S
N527 N528 1.388 . S
N528 Co511 1.993 . S
N528 N527 1.388 . S
N528 C529 1.346 . S
C529 N528 1.346 . S
C529 C530 1.396 . S
C529 C539 1.510 . S
C530 C526 1.401 . S
C530 C529 1.396 . S
C531 C526 1.499 . S
C531 H532 0.959 . S
C531 H533 0.960 . S
C531 H534 0.961 . S
H532 C531 0.959 . S
H533 C531 0.960 . S
H534 C531 0.961 . S
O535 Co510 1.967 . S
O535 C543 1.258 . S
O536 Co511 1.941 . S
O536 C543 1.266 . S
H537 C539 0.959 . S
H538 C539 0.961 . S
C539 C529 1.510 . S
C539 H537 0.959 . S
C539 H538 0.961 . S
C539 H540 0.960 . S
H540 C539 0.960 . S
H541 N521 0.862 . S
O542 Co510 1.920 . S
O542 C515 1.289 . S
C543 O535 1.258 . S
C543 O536 1.266 . S
H544 C550 0.930 . S
H545 C553 0.930 . S
H546 C554 0.930 . S
H547 C555 0.930 . S
H548 C558 0.930 . S
H549 C559 0.930 . S
C550 H544 0.930 . S
C550 C551 1.355 . S
C550 C552 1.415 . S
C551 C550 1.355 . S
C551 C553 1.419 . S
C552 C550 1.415 . S
C552 C557 1.425 . S
C552 C559 1.409 . S
C553 H545 0.930 . S
C553 C551 1.419 . S
C553 C554 1.362 . S
C554 H546 0.930 . S
C554 C553 1.362 . S
C554 C557 1.409 . S
C555 H547 0.930 . S
C555 C556 1.355 . S
C555 C557 1.415 . S
C556 C555 1.355 . S
C556 C558 1.419 . S
C557 C552 1.425 . S
C557 C554 1.409 . S
C557 C555 1.415 . S
C558 H548 0.930 . S
C558 C556 1.419 . S
C558 C559 1.362 . S
C559 H549 0.930 . S
C559 C552 1.409 . S
C559 C558 1.362 . S
H560 C566 0.930 . S
H561 C569 0.930 . S
H562 C570 0.930 . S
H563 C571 0.930 . S
H564 C574 0.930 . S
H565 C575 0.930 . S
C566 H560 0.930 . S
C566 C567 1.355 . S
C566 C568 1.415 . S
C567 C566 1.355 . S
C567 C569 1.419 . S
C568 C566 1.415 . S
C568 C573 1.425 . S
C568 C575 1.409 . S
C569 H561 0.930 . S
C569 C567 1.419 . S
C569 C570 1.362 . S
C570 H562 0.930 . S
C570 C569 1.362 . S
C570 C573 1.409 . S
C571 H563 0.930 . S
C571 C572 1.355 . S
C571 C573 1.415 . S
C572 C571 1.355 . S
C572 C574 1.419 . S
C573 C568 1.425 . S
C573 C570 1.409 . S
C573 C571 1.415 . S
C574 H564 0.930 . S
C574 C572 1.419 . S
C574 C575 1.362 . S
C575 H565 0.930 . S
C575 C568 1.409 . S
C575 C574 1.362 . S
H576 C582 0.930 . S
H577 C585 0.930 . S
H578 C586 0.930 . S
H579 C587 0.930 . S
H580 C590 0.930 . S
H581 C591 0.930 . S
C582 H576 0.930 . S
C582 C583 1.355 . S
C582 C584 1.415 . S
C583 C582 1.355 . S
C583 C585 1.419 . S
C584 C582 1.415 . S
C584 C589 1.425 . S
C584 C591 1.409 . S
C585 H577 0.930 . S
C585 C583 1.419 . S
C585 C586 1.362 . S
C586 H578 0.930 . S
C586 C585 1.362 . S
C586 C589 1.409 . S
C587 H579 0.930 . S
C587 C588 1.355 . S
C587 C589 1.415 . S
C588 C587 1.355 . S
C588 C590 1.419 . S
C589 C584 1.425 . S
C589 C586 1.409 . S
C589 C587 1.415 . S
C590 H580 0.930 . S
C590 C588 1.419 . S
C590 C591 1.362 . S
C591 H581 0.930 . S
C591 C584 1.409 . S
C591 C590 1.362 . S
H592 C598 0.930 . S
H593 C601 0.930 . S
H594 C602 0.930 . S
H595 C603 0.930 . S
H596 C606 0.930 . S
H597 C607 0.930 . S
C598 H592 0.930 . S
C598 C599 1.355 . S
C598 C600 1.415 . S
C599 C598 1.355 . S
C599 C601 1.419 . S
C600 C598 1.415 . S
C600 C605 1.425 . S
C600 C607 1.409 . S
C601 H593 0.930 . S
C601 C599 1.419 . S
C601 C602 1.362 . S
C602 H594 0.930 . S
C602 C601 1.362 . S
C602 C605 1.409 . S
C603 H595 0.930 . S
C603 C604 1.355 . S
C603 C605 1.415 . S
C604 C603 1.355 . S
C604 C606 1.419 . S
C605 C600 1.425 . S
C605 C602 1.409 . S
C605 C603 1.415 . S
C606 H596 0.930 . S
C606 C604 1.419 . S
C606 C607 1.362 . S
C607 H597 0.930 . S
C607 C600 1.409 . S
C607 C606 1.362 . S
H608 C614 0.930 . S
H609 C617 0.930 . S
H610 C618 0.930 . S
H611 C619 0.930 . S
H612 C622 0.930 . S
H613 C623 0.930 . S
C614 H608 0.930 . S
C614 C615 1.355 . S
C614 C616 1.415 . S
C615 C614 1.355 . S
C615 C617 1.419 . S
C616 C614 1.415 . S
C616 C621 1.425 . S
C616 C623 1.409 . S
C617 H609 0.930 . S
C617 C615 1.419 . S
C617 C618 1.362 . S
C618 H610 0.930 . S
C618 C617 1.362 . S
C618 C621 1.409 . S
C619 H611 0.930 . S
C619 C620 1.355 . S
C619 C621 1.415 . S
C620 C619 1.355 . S
C620 C622 1.419 . S
C621 C616 1.425 . S
C621 C618 1.409 . S
C621 C619 1.415 . S
C622 H612 0.930 . S
C622 C620 1.419 . S
C622 C623 1.362 . S
C623 H613 0.930 . S
C623 C616 1.409 . S
C623 C622 1.362 . S
H624 C630 0.930 . S
H625 C633 0.930 . S
H626 C634 0.930 . S
H627 C635 0.930 . S
H628 C638 0.930 . S
H629 C639 0.930 . S
C630 H624 0.930 . S
C630 C631 1.355 . S
C630 C632 1.415 . S
C631 C630 1.355 . S
C631 C633 1.419 . S
C632 C630 1.415 . S
C632 C637 1.425 . S
C632 C639 1.409 . S
C633 H625 0.930 . S
C633 C631 1.419 . S
C633 C634 1.362 . S
C634 H626 0.930 . S
C634 C633 1.362 . S
C634 C637 1.409 . S
C635 H627 0.930 . S
C635 C636 1.355 . S
C635 C637 1.415 . S
C636 C635 1.355 . S
C636 C638 1.419 . S
C637 C632 1.425 . S
C637 C634 1.409 . S
C637 C635 1.415 . S
C638 H628 0.930 . S
C638 C636 1.419 . S
C638 C639 1.362 . S
C639 H629 0.930 . S
C639 C632 1.409 . S
C639 C638 1.362 . S
H640 C646 0.930 . S
H641 C649 0.930 . S
H642 C650 0.930 . S
H643 C651 0.930 . S
H644 C654 0.930 . S
H645 C655 0.930 . S
C646 H640 0.930 . S
C646 C647 1.355 . S
C646 C648 1.415 . S
C647 C646 1.355 . S
C647 C649 1.419 . S
C648 C646 1.415 . S
C648 C653 1.425 . S
C648 C655 1.409 . S
C649 H641 0.930 . S
C649 C647 1.419 . S
C649 C650 1.362 . S
C650 H642 0.930 . S
C650 C649 1.362 . S
C650 C653 1.409 . S
C651 H643 0.930 . S
C651 C652 1.355 . S
C651 C653 1.415 . S
C652 C651 1.355 . S
C652 C654 1.419 . S
C653 C648 1.425 . S
C653 C650 1.409 . S
C653 C651 1.415 . S
C654 H644 0.930 . S
C654 C652 1.419 . S
C654 C655 1.362 . S
C655 H645 0.930 . S
C655 C648 1.409 . S
C655 C654 1.362 . S
H656 C662 0.930 . S
H657 C665 0.930 . S
H658 C666 0.930 . S
H659 C667 0.930 . S
H660 C670 0.930 . S
H661 C671 0.930 . S
C662 H656 0.930 . S
C662 C663 1.355 . S
C662 C664 1.415 . S
C663 C662 1.355 . S
C663 C665 1.419 . S
C664 C662 1.415 . S
C664 C669 1.425 . S
C664 C671 1.409 . S
C665 H657 0.930 . S
C665 C663 1.419 . S
C665 C666 1.362 . S
C666 H658 0.930 . S
C666 C665 1.362 . S
C666 C669 1.409 . S
C667 H659 0.930 . S
C667 C668 1.355 . S
C667 C669 1.415 . S
C668 C667 1.355 . S
C668 C670 1.419 . S
C669 C664 1.425 . S
C669 C666 1.409 . S
C669 C667 1.415 . S
C670 H660 0.930 . S
C670 C668 1.419 . S
C670 C671 1.362 . S
C671 H661 0.930 . S
C671 C664 1.409 . S
C671 C670 1.362 . S
H672 C678 0.930 . S
H673 C681 0.930 . S
H674 C682 0.930 1_565 S
H675 C683 0.930 . S
H676 C686 0.930 . S
H677 C687 0.930 . S
C678 H672 0.930 . S
C678 C679 1.355 . S
C678 C680 1.415 . S
C679 C678 1.355 . S
C679 C681 1.419 . S
C680 C678 1.415 . S
C680 C685 1.425 . S
C680 C687 1.409 . S
C681 H673 0.930 . S
C681 C679 1.419 . S
C681 C682 1.362 . S
C682 H674 0.930 1_545 S
C682 C681 1.362 . S
C682 C685 1.409 . S
C683 H675 0.930 . S
C683 C684 1.355 . S
C683 C685 1.415 . S
C684 C683 1.355 . S
C684 C686 1.419 . S
C685 C680 1.425 . S
C685 C682 1.409 . S
C685 C683 1.415 . S
C686 H676 0.930 . S
C686 C684 1.419 . S
C686 C687 1.362 . S
C687 H677 0.930 . S
C687 C680 1.409 . S
C687 C686 1.362 . S
H688 C694 0.930 . S
H689 C697 0.930 . S
H690 C698 0.930 . S
H691 C699 0.930 . S
H692 C702 0.930 . S
H693 C703 0.930 . S
C694 H688 0.930 . S
C694 C695 1.355 . S
C694 C696 1.415 . S
C695 C694 1.355 . S
C695 C697 1.419 . S
C696 C694 1.415 . S
C696 C701 1.425 . S
C696 C703 1.409 . S
C697 H689 0.930 . S
C697 C695 1.419 . S
C697 C698 1.362 . S
C698 H690 0.930 . S
C698 C697 1.362 . S
C698 C701 1.409 . S
C699 H691 0.930 . S
C699 C700 1.355 . S
C699 C701 1.415 . S
C700 C699 1.355 . S
C700 C702 1.419 . S
C701 C696 1.425 . S
C701 C698 1.409 . S
C701 C699 1.415 . S
C702 H692 0.930 . S
C702 C700 1.419 . S
C702 C703 1.362 . S
C703 H693 0.930 . S
C703 C696 1.409 . S
C703 C702 1.362 . S
H704 C710 0.930 . S
H705 C713 0.930 . S
H706 C714 0.930 . S
H707 C715 0.930 . S
H708 C718 0.930 . S
H709 C719 0.930 . S
C710 H704 0.930 . S
C710 C711 1.355 . S
C710 C712 1.415 . S
C711 C710 1.355 . S
C711 C713 1.419 . S
C712 C710 1.415 . S
C712 C717 1.425 . S
C712 C719 1.409 . S
C713 H705 0.930 . S
C713 C711 1.419 . S
C713 C714 1.362 . S
C714 H706 0.930 . S
C714 C713 1.362 . S
C714 C717 1.409 . S
C715 H707 0.930 . S
C715 C716 1.355 . S
C715 C717 1.415 . S
C716 C715 1.355 . S
C716 C718 1.419 . S
C717 C712 1.425 . S
C717 C714 1.409 . S
C717 C715 1.415 . S
C718 H708 0.930 . S
C718 C716 1.419 . S
C718 C719 1.362 . S
C719 H709 0.930 . S
C719 C712 1.409 . S
C719 C718 1.362 . S
H720 C726 0.930 . S
H721 C729 0.930 . S
H722 C730 0.930 . S
H723 C731 0.930 . S
H724 C734 0.930 . S
H725 C735 0.930 . S
C726 H720 0.930 . S
C726 C727 1.355 . S
C726 C728 1.415 . S
C727 C726 1.355 . S
C727 C729 1.419 . S
C728 C726 1.415 . S
C728 C733 1.425 . S
C728 C735 1.409 . S
C729 H721 0.930 . S
C729 C727 1.419 . S
C729 C730 1.362 . S
C730 H722 0.930 . S
C730 C729 1.362 . S
C730 C733 1.409 . S
C731 H723 0.930 . S
C731 C732 1.355 . S
C731 C733 1.415 . S
C732 C731 1.355 . S
C732 C734 1.419 . S
C733 C728 1.425 . S
C733 C730 1.409 . S
C733 C731 1.415 . S
C734 H724 0.930 . S
C734 C732 1.419 . S
C734 C735 1.362 . S
C735 H725 0.930 . S
C735 C728 1.409 . S
C735 C734 1.362 . S
H736 C742 0.930 . S
H737 C745 0.930 . S
H738 C746 0.930 . S
H739 C747 0.930 . S
H740 C750 0.930 . S
H741 C751 0.930 . S
C742 H736 0.930 . S
C742 C743 1.355 . S
C742 C744 1.415 . S
C743 C742 1.355 . S
C743 C745 1.419 . S
C744 C742 1.415 . S
C744 C749 1.425 . S
C744 C751 1.409 . S
C745 H737 0.930 . S
C745 C743 1.419 . S
C745 C746 1.362 . S
C746 H738 0.930 . S
C746 C745 1.362 . S
C746 C749 1.409 . S
C747 H739 0.930 . S
C747 C748 1.355 . S
C747 C749 1.415 . S
C748 C747 1.355 . S
C748 C750 1.419 . S
C749 C744 1.425 . S
C749 C746 1.409 . S
C749 C747 1.415 . S
C750 H740 0.930 . S
C750 C748 1.419 . S
C750 C751 1.362 . S
C751 H741 0.930 . S
C751 C744 1.409 . S
C751 C750 1.362 . S
H752 C758 0.930 . S
H753 C761 0.930 . S
H754 C762 0.930 . S
H755 C763 0.930 . S
H756 C766 0.930 . S
H757 C767 0.930 . S
C758 H752 0.930 . S
C758 C759 1.355 . S
C758 C760 1.415 . S
C759 C758 1.355 . S
C759 C761 1.419 . S
C760 C758 1.415 . S
C760 C765 1.425 . S
C760 C767 1.409 . S
C761 H753 0.930 . S
C761 C759 1.419 . S
C761 C762 1.362 . S
C762 H754 0.930 . S
C762 C761 1.362 . S
C762 C765 1.409 . S
C763 H755 0.930 . S
C763 C764 1.355 . S
C763 C765 1.415 . S
C764 C763 1.355 . S
C764 C766 1.419 . S
C765 C760 1.425 . S
C765 C762 1.409 . S
C765 C763 1.415 . S
C766 H756 0.930 . S
C766 C764 1.419 . S
C766 C767 1.362 . S
C767 H757 0.930 . S
C767 C760 1.409 . S
C767 C766 1.362 . S
H768 C774 0.930 . S
H769 C777 0.930 . S
H770 C778 0.930 . S
H771 C779 0.930 . S
H772 C782 0.930 . S
H773 C783 0.930 . S
C774 H768 0.930 . S
C774 C775 1.355 . S
C774 C776 1.415 . S
C775 C774 1.355 . S
C775 C777 1.419 . S
C776 C774 1.415 . S
C776 C781 1.425 . S
C776 C783 1.409 . S
C777 H769 0.930 . S
C777 C775 1.419 . S
C777 C778 1.362 . S
C778 H770 0.930 . S
C778 C777 1.362 . S
C778 C781 1.409 . S
C779 H771 0.930 . S
C779 C780 1.355 . S
C779 C781 1.415 . S
C780 C779 1.355 . S
C780 C782 1.419 . S
C781 C776 1.425 . S
C781 C778 1.409 . S
C781 C779 1.415 . S
C782 H772 0.930 . S
C782 C780 1.419 . S
C782 C783 1.362 . S
C783 H773 0.930 . S
C783 C776 1.409 . S
C783 C782 1.362 . S
H784 C790 0.930 . S
H785 C793 0.930 . S
H786 C794 0.930 1_455 S
H787 C795 0.930 . S
H788 C798 0.930 . S
H789 C799 0.930 . S
C790 H784 0.930 . S
C790 C791 1.355 . S
C790 C792 1.415 . S
C791 C790 1.355 . S
C791 C793 1.419 . S
C792 C790 1.415 . S
C792 C797 1.425 . S
C792 C799 1.409 . S
C793 H785 0.930 . S
C793 C791 1.419 . S
C793 C794 1.362 . S
C794 H786 0.930 1_655 S
C794 C793 1.362 . S
C794 C797 1.409 . S
C795 H787 0.930 . S
C795 C796 1.355 . S
C795 C797 1.415 . S
C796 C795 1.355 . S
C796 C798 1.419 . S
C797 C792 1.425 . S
C797 C794 1.409 . S
C797 C795 1.415 . S
C798 H788 0.930 . S
C798 C796 1.419 . S
C798 C799 1.362 . S
C799 H789 0.930 . S
C799 C792 1.409 . S
C799 C798 1.362 . S
H800 C806 0.930 . S
H801 C809 0.930 . S
H802 C810 0.930 . S
H803 C811 0.930 . S
H804 C814 0.930 . S
H805 C815 0.930 . S
C806 H800 0.930 . S
C806 C807 1.355 . S
C806 C808 1.415 . S
C807 C806 1.355 . S
C807 C809 1.419 . S
C808 C806 1.415 . S
C808 C813 1.425 . S
C808 C815 1.409 . S
C809 H801 0.930 . S
C809 C807 1.419 . S
C809 C810 1.362 . S
C810 H802 0.930 . S
C810 C809 1.362 . S
C810 C813 1.409 . S
C811 H803 0.930 . S
C811 C812 1.355 . S
C811 C813 1.415 . S
C812 C811 1.355 . S
C812 C814 1.419 . S
C813 C808 1.425 . S
C813 C810 1.409 . S
C813 C811 1.415 . S
C814 H804 0.930 . S
C814 C812 1.419 . S
C814 C815 1.362 . S
C815 H805 0.930 . S
C815 C808 1.409 . S
C815 C814 1.362 . S
H816 C822 0.930 . S
H817 C825 0.930 . S
H818 C826 0.930 . S
H819 C827 0.930 . S
H820 C830 0.930 . S
H821 C831 0.930 . S
C822 H816 0.930 . S
C822 C823 1.355 . S
C822 C824 1.415 . S
C823 C822 1.355 . S
C823 C825 1.419 . S
C824 C822 1.415 . S
C824 C829 1.425 . S
C824 C831 1.409 . S
C825 H817 0.930 . S
C825 C823 1.419 . S
C825 C826 1.362 . S
C826 H818 0.930 . S
C826 C825 1.362 . S
C826 C829 1.409 . S
C827 H819 0.930 . S
C827 C828 1.355 . S
C827 C829 1.415 . S
C828 C827 1.355 . S
C828 C830 1.419 . S
C829 C824 1.425 . S
C829 C826 1.409 . S
C829 C827 1.415 . S
C830 H820 0.930 . S
C830 C828 1.419 . S
C830 C831 1.362 . S
C831 H821 0.930 . S
C831 C824 1.409 . S
C831 C830 1.362 . S
H832 C838 0.930 . S
H833 C841 0.930 . S
H834 C842 0.930 . S
H835 C843 0.930 . S
H836 C846 0.930 . S
H837 C847 0.930 . S
C838 H832 0.930 . S
C838 C839 1.355 . S
C838 C840 1.415 . S
C839 C838 1.355 . S
C839 C841 1.419 . S
C840 C838 1.415 . S
C840 C845 1.425 . S
C840 C847 1.409 . S
C841 H833 0.930 . S
C841 C839 1.419 . S
C841 C842 1.362 . S
C842 H834 0.930 . S
C842 C841 1.362 . S
C842 C845 1.409 . S
C843 H835 0.930 . S
C843 C844 1.355 . S
C843 C845 1.415 . S
C844 C843 1.355 . S
C844 C846 1.419 . S
C845 C840 1.425 . S
C845 C842 1.409 . S
C845 C843 1.415 . S
C846 H836 0.930 . S
C846 C844 1.419 . S
C846 C847 1.362 . S
C847 H837 0.930 . S
C847 C840 1.409 . S
C847 C846 1.362 . S
H848 C854 0.930 . S
H849 C857 0.930 . S
H850 C858 0.930 . S
H851 C859 0.930 . S
H852 C862 0.930 . S
H853 C863 0.930 . S
C854 H848 0.930 . S
C854 C855 1.355 . S
C854 C856 1.415 . S
C855 C854 1.355 . S
C855 C857 1.419 . S
C856 C854 1.415 . S
C856 C861 1.425 . S
C856 C863 1.409 . S
C857 H849 0.930 . S
C857 C855 1.419 . S
C857 C858 1.362 . S
C858 H850 0.930 . S
C858 C857 1.362 . S
C858 C861 1.409 . S
C859 H851 0.930 . S
C859 C860 1.355 . S
C859 C861 1.415 . S
C860 C859 1.355 . S
C860 C862 1.419 . S
C861 C856 1.425 . S
C861 C858 1.409 . S
C861 C859 1.415 . S
C862 H852 0.930 . S
C862 C860 1.419 . S
C862 C863 1.362 . S
C863 H853 0.930 . S
C863 C856 1.409 . S
C863 C862 1.362 . S
H864 C870 0.930 . S
H865 C873 0.930 . S
H866 C874 0.930 . S
H867 C875 0.930 . S
H868 C878 0.930 . S
H869 C879 0.930 . S
C870 H864 0.930 . S
C870 C871 1.355 . S
C870 C872 1.415 . S
C871 C870 1.355 . S
C871 C873 1.419 . S
C872 C870 1.415 . S
C872 C877 1.425 . S
C872 C879 1.409 . S
C873 H865 0.930 . S
C873 C871 1.419 . S
C873 C874 1.362 . S
C874 H866 0.930 . S
C874 C873 1.362 . S
C874 C877 1.409 . S
C875 H867 0.930 . S
C875 C876 1.355 . S
C875 C877 1.415 . S
C876 C875 1.355 . S
C876 C878 1.419 . S
C877 C872 1.425 . S
C877 C874 1.409 . S
C877 C875 1.415 . S
C878 H868 0.930 . S
C878 C876 1.419 . S
C878 C879 1.362 . S
C879 H869 0.930 . S
C879 C872 1.409 . S
C879 C878 1.362 . S
H880 C886 0.930 . S
H881 C889 0.930 . S
H882 C890 0.930 . S
H883 C891 0.930 . S
H884 C894 0.930 . S
H885 C895 0.930 . S
C886 H880 0.930 . S
C886 C887 1.355 . S
C886 C888 1.415 . S
C887 C886 1.355 . S
C887 C889 1.419 . S
C888 C886 1.415 . S
C888 C893 1.425 . S
C888 C895 1.409 . S
C889 H881 0.930 . S
C889 C887 1.419 . S
C889 C890 1.362 . S
C890 H882 0.930 . S
C890 C889 1.362 . S
C890 C893 1.409 . S
C891 H883 0.930 . S
C891 C892 1.355 . S
C891 C893 1.415 . S
C892 C891 1.355 . S
C892 C894 1.419 . S
C893 C888 1.425 . S
C893 C890 1.409 . S
C893 C891 1.415 . S
C894 H884 0.930 . S
C894 C892 1.419 . S
C894 C895 1.362 . S
C895 H885 0.930 . S
C895 C888 1.409 . S
C895 C894 1.362 . S
H896 C902 0.930 . S
H897 C905 0.930 . S
H898 C906 0.930 . S
H899 C907 0.930 . S
H900 C910 0.930 . S
H901 C911 0.930 . S
C902 H896 0.930 . S
C902 C903 1.355 . S
C902 C904 1.415 . S
C903 C902 1.355 . S
C903 C905 1.419 . S
C904 C902 1.415 . S
C904 C909 1.425 . S
C904 C911 1.409 . S
C905 H897 0.930 . S
C905 C903 1.419 . S
C905 C906 1.362 . S
C906 H898 0.930 . S
C906 C905 1.362 . S
C906 C909 1.409 . S
C907 H899 0.930 . S
C907 C908 1.355 . S
C907 C909 1.415 . S
C908 C907 1.355 . S
C908 C910 1.419 . S
C909 C904 1.425 . S
C909 C906 1.409 . S
C909 C907 1.415 . S
C910 H900 0.930 . S
C910 C908 1.419 . S
C910 C911 1.362 . S
C911 H901 0.930 . S
C911 C904 1.409 . S
C911 C910 1.362 . S
H912 C918 0.930 . S
H913 C921 0.930 . S
H914 C922 0.930 . S
H915 C923 0.930 . S
H916 C926 0.930 . S
H917 C927 0.930 . S
C918 H912 0.930 . S
C918 C919 1.355 . S
C918 C920 1.415 . S
C919 C918 1.355 . S
C919 C921 1.419 . S
C920 C918 1.415 . S
C920 C925 1.425 . S
C920 C927 1.409 . S
C921 H913 0.930 . S
C921 C919 1.419 . S
C921 C922 1.362 . S
C922 H914 0.930 . S
C922 C921 1.362 . S
C922 C925 1.409 . S
C923 H915 0.930 . S
C923 C924 1.355 . S
C923 C925 1.415 . S
C924 C923 1.355 . S
C924 C926 1.419 . S
C925 C920 1.425 . S
C925 C922 1.409 . S
C925 C923 1.415 . S
C926 H916 0.930 . S
C926 C924 1.419 . S
C926 C927 1.362 . S
C927 H917 0.930 . S
C927 C920 1.409 . S
C927 C926 1.362 . S
H928 C934 0.930 . S
H929 C937 0.930 . S
H930 C938 0.930 . S
H931 C939 0.930 . S
H932 C942 0.930 . S
H933 C943 0.930 . S
C934 H928 0.930 . S
C934 C935 1.355 . S
C934 C936 1.415 . S
C935 C934 1.355 . S
C935 C937 1.419 . S
C936 C934 1.415 . S
C936 C941 1.425 . S
C936 C943 1.409 . S
C937 H929 0.930 . S
C937 C935 1.419 . S
C937 C938 1.362 . S
C938 H930 0.930 . S
C938 C937 1.362 . S
C938 C941 1.409 . S
C939 H931 0.930 . S
C939 C940 1.355 . S
C939 C941 1.415 . S
C940 C939 1.355 . S
C940 C942 1.419 . S
C941 C936 1.425 . S
C941 C938 1.409 . S
C941 C939 1.415 . S
C942 H932 0.930 . S
C942 C940 1.419 . S
C942 C943 1.362 . S
C943 H933 0.930 . S
C943 C936 1.409 . S
C943 C942 1.362 . S
H944 C950 0.930 . S
H945 C953 0.930 . S
H946 C954 0.930 . S
H947 C955 0.930 . S
H948 C958 0.930 . S
H949 C959 0.930 . S
C950 H944 0.930 . S
C950 C951 1.355 . S
C950 C952 1.415 . S
C951 C950 1.355 . S
C951 C953 1.419 . S
C952 C950 1.415 . S
C952 C957 1.425 . S
C952 C959 1.409 . S
C953 H945 0.930 . S
C953 C951 1.419 . S
C953 C954 1.362 . S
C954 H946 0.930 . S
C954 C953 1.362 . S
C954 C957 1.409 . S
C955 H947 0.930 . S
C955 C956 1.355 . S
C955 C957 1.415 . S
C956 C955 1.355 . S
C956 C958 1.419 . S
C957 C952 1.425 . S
C957 C954 1.409 . S
C957 C955 1.415 . S
C958 H948 0.930 . S
C958 C956 1.419 . S
C958 C959 1.362 . S
C959 H949 0.930 . S
C959 C952 1.409 . S
C959 C958 1.362 . S
H960 C966 0.930 . S
H961 C969 0.930 . S
H962 C970 0.930 . S
H963 C971 0.930 . S
H964 C974 0.930 . S
H965 C975 0.930 . S
C966 H960 0.930 . S
C966 C967 1.355 . S
C966 C968 1.415 . S
C967 C966 1.355 . S
C967 C969 1.419 . S
C968 C966 1.415 . S
C968 C973 1.425 . S
C968 C975 1.409 . S
C969 H961 0.930 . S
C969 C967 1.419 . S
C969 C970 1.362 . S
C970 H962 0.930 . S
C970 C969 1.362 . S
C970 C973 1.409 . S
C971 H963 0.930 . S
C971 C972 1.355 . S
C971 C973 1.415 . S
C972 C971 1.355 . S
C972 C974 1.419 . S
C973 C968 1.425 . S
C973 C970 1.409 . S
C973 C971 1.415 . S
C974 H964 0.930 . S
C974 C972 1.419 . S
C974 C975 1.362 . S
C975 H965 0.930 . S
C975 C968 1.409 . S
C975 C974 1.362 . S
H976 C982 0.930 . S
H977 C985 0.930 . S
H978 C986 0.930 . S
H979 C987 0.930 . S
H980 C990 0.930 . S
H981 C991 0.930 . S
C982 H976 0.930 . S
C982 C983 1.355 . S
C982 C984 1.415 . S
C983 C982 1.355 . S
C983 C985 1.419 . S
C984 C982 1.415 . S
C984 C989 1.425 . S
C984 C991 1.409 . S
C985 H977 0.930 . S
C985 C983 1.419 . S
C985 C986 1.362 . S
C986 H978 0.930 . S
C986 C985 1.362 . S
C986 C989 1.409 . S
C987 H979 0.930 . S
C987 C988 1.355 . S
C987 C989 1.415 . S
C988 C987 1.355 . S
C988 C990 1.419 . S
C989 C984 1.425 . S
C989 C986 1.409 . S
C989 C987 1.415 . S
C990 H980 0.930 . S
C990 C988 1.419 . S
C990 C991 1.362 . S
C991 H981 0.930 . S
C991 C984 1.409 . S
C991 C990 1.362 . S
H992 C998 0.930 . S
H993 C1001 0.930 . S
H994 C1002 0.930 . S
H995 C1003 0.930 . S
H996 C1006 0.930 . S
H997 C1007 0.930 . S
C998 H992 0.930 . S
C998 C999 1.355 . S
C998 C1000 1.415 . S
C999 C998 1.355 . S
C999 C1001 1.419 . S
C1000 C998 1.415 . S
C1000 C1005 1.425 . S
C1000 C1007 1.409 . S
C1001 H993 0.930 . S
C1001 C999 1.419 . S
C1001 C1002 1.362 . S
C1002 H994 0.930 . S
C1002 C1001 1.362 . S
C1002 C1005 1.409 . S
C1003 H995 0.930 . S
C1003 C1004 1.355 . S
C1003 C1005 1.415 . S
C1004 C1003 1.355 . S
C1004 C1006 1.419 . S
C1005 C1000 1.425 . S
C1005 C1002 1.409 . S
C1005 C1003 1.415 . S
C1006 H996 0.930 . S
C1006 C1004 1.419 . S
C1006 C1007 1.362 . S
C1007 H997 0.930 . S
C1007 C1000 1.409 . S
C1007 C1006 1.362 . S
H1008 C1014 0.930 . S
H1009 C1017 0.930 . S
H1010 C1018 0.930 . S
H1011 C1019 0.930 . S
H1012 C1022 0.930 . S
H1013 C1023 0.930 . S
C1014 H1008 0.930 . S
C1014 C1015 1.355 . S
C1014 C1016 1.415 . S
C1015 C1014 1.355 . S
C1015 C1017 1.419 . S
C1016 C1014 1.415 . S
C1016 C1021 1.425 . S
C1016 C1023 1.409 . S
C1017 H1009 0.930 . S
C1017 C1015 1.419 . S
C1017 C1018 1.362 . S
C1018 H1010 0.930 . S
C1018 C1017 1.362 . S
C1018 C1021 1.409 . S
C1019 H1011 0.930 . S
C1019 C1020 1.355 . S
C1019 C1021 1.415 . S
C1020 C1019 1.355 . S
C1020 C1022 1.419 . S
C1021 C1016 1.425 . S
C1021 C1018 1.409 . S
C1021 C1019 1.415 . S
C1022 H1012 0.930 . S
C1022 C1020 1.419 . S
C1022 C1023 1.362 . S
C1023 H1013 0.930 . S
C1023 C1016 1.409 . S
C1023 C1022 1.362 . S
H1024 C1030 0.930 . S
H1025 C1033 0.930 . S
H1026 C1034 0.930 . S
H1027 C1035 0.930 . S
H1028 C1038 0.930 . S
H1029 C1039 0.930 . S
C1030 H1024 0.930 . S
C1030 C1031 1.355 . S
C1030 C1032 1.415 . S
C1031 C1030 1.355 . S
C1031 C1033 1.419 . S
C1032 C1030 1.415 . S
C1032 C1037 1.425 . S
C1032 C1039 1.409 . S
C1033 H1025 0.930 . S
C1033 C1031 1.419 . S
C1033 C1034 1.362 . S
C1034 H1026 0.930 . S
C1034 C1033 1.362 . S
C1034 C1037 1.409 . S
C1035 H1027 0.930 . S
C1035 C1036 1.355 . S
C1035 C1037 1.415 . S
C1036 C1035 1.355 . S
C1036 C1038 1.419 . S
C1037 C1032 1.425 . S
C1037 C1034 1.409 . S
C1037 C1035 1.415 . S
C1038 H1028 0.930 . S
C1038 C1036 1.419 . S
C1038 C1039 1.362 . S
C1039 H1029 0.930 . S
C1039 C1032 1.409 . S
C1039 C1038 1.362 . S
H1040 C1046 0.930 . S
H1041 C1049 0.930 . S
H1042 C1050 0.930 . S
H1043 C1051 0.930 . S
H1044 C1054 0.930 . S
H1045 C1055 0.930 . S
C1046 H1040 0.930 . S
C1046 C1047 1.355 . S
C1046 C1048 1.415 . S
C1047 C1046 1.355 . S
C1047 C1049 1.419 . S
C1048 C1046 1.415 . S
C1048 C1053 1.425 . S
C1048 C1055 1.409 . S
C1049 H1041 0.930 . S
C1049 C1047 1.419 . S
C1049 C1050 1.362 . S
C1050 H1042 0.930 . S
C1050 C1049 1.362 . S
C1050 C1053 1.409 . S
C1051 H1043 0.930 . S
C1051 C1052 1.355 . S
C1051 C1053 1.415 . S
C1052 C1051 1.355 . S
C1052 C1054 1.419 . S
C1053 C1048 1.425 . S
C1053 C1050 1.409 . S
C1053 C1051 1.415 . S
C1054 H1044 0.930 . S
C1054 C1052 1.419 . S
C1054 C1055 1.362 . S
C1055 H1045 0.930 . S
C1055 C1048 1.409 . S
C1055 C1054 1.362 . S
H1056 C1062 0.930 . S
H1057 C1065 0.930 . S
H1058 C1066 0.930 . S
H1059 C1067 0.930 . S
H1060 C1070 0.930 . S
H1061 C1071 0.930 . S
C1062 H1056 0.930 . S
C1062 C1063 1.355 1_566 S
C1062 C1064 1.415 . S
C1063 C1062 1.355 1_544 S
C1063 C1065 1.419 . S
C1064 C1062 1.415 . S
C1064 C1069 1.425 1_566 S
C1064 C1071 1.409 . S
C1065 H1057 0.930 . S
C1065 C1063 1.419 . S
C1065 C1066 1.362 . S
C1066 H1058 0.930 . S
C1066 C1065 1.362 . S
C1066 C1069 1.409 . S
C1067 H1059 0.930 . S
C1067 C1068 1.355 1_544 S
C1067 C1069 1.415 . S
C1068 C1067 1.355 1_566 S
C1068 C1070 1.419 . S
C1069 C1064 1.425 1_544 S
C1069 C1066 1.409 . S
C1069 C1067 1.415 . S
C1070 H1060 0.930 . S
C1070 C1068 1.419 . S
C1070 C1071 1.362 . S
C1071 H1061 0.930 . S
C1071 C1064 1.409 . S
C1071 C1070 1.362 . S
H1072 C1078 0.930 . S
H1073 C1081 0.930 . S
H1074 C1082 0.930 . S
H1075 C1083 0.930 . S
H1076 C1086 0.930 . S
H1077 C1087 0.930 . S
C1078 H1072 0.930 . S
C1078 C1079 1.355 . S
C1078 C1080 1.415 . S
C1079 C1078 1.355 . S
C1079 C1081 1.419 1_556 S
C1080 C1078 1.415 . S
C1080 C1085 1.425 1_556 S
C1080 C1087 1.409 . S
C1081 H1073 0.930 . S
C1081 C1079 1.419 1_554 S
C1081 C1082 1.362 . S
C1082 H1074 0.930 . S
C1082 C1081 1.362 . S
C1082 C1085 1.409 . S
C1083 H1075 0.930 . S
C1083 C1084 1.355 . S
C1083 C1085 1.415 . S
C1084 C1083 1.355 . S
C1084 C1086 1.419 1_554 S
C1085 C1080 1.425 1_554 S
C1085 C1082 1.409 . S
C1085 C1083 1.415 . S
C1086 H1076 0.930 . S
C1086 C1084 1.419 1_556 S
C1086 C1087 1.362 . S
C1087 H1077 0.930 . S
C1087 C1080 1.409 . S
C1087 C1086 1.362 . S
H1088 C1094 0.930 . S
H1089 C1097 0.930 . S
H1090 C1098 0.930 . S
H1091 C1099 0.930 . S
H1092 C1102 0.930 . S
H1093 C1103 0.930 . S
C1094 H1088 0.930 . S
C1094 C1095 1.355 1_554 S
C1094 C1096 1.415 . S
C1095 C1094 1.355 1_556 S
C1095 C1097 1.419 . S
C1096 C1094 1.415 . S
C1096 C1101 1.425 1_454 S
C1096 C1103 1.409 1_455 S
C1097 H1089 0.930 . S
C1097 C1095 1.419 . S
C1097 C1098 1.362 . S
C1098 H1090 0.930 . S
C1098 C1097 1.362 . S
C1098 C1101 1.409 1_455 S
C1099 H1091 0.930 . S
C1099 C1100 1.355 1_556 S
C1099 C1101 1.415 . S
C1100 C1099 1.355 1_554 S
C1100 C1102 1.419 . S
C1101 C1096 1.425 1_656 S
C1101 C1098 1.409 1_655 S
C1101 C1099 1.415 . S
C1102 H1092 0.930 . S
C1102 C1100 1.419 . S
C1102 C1103 1.362 . S
C1103 H1093 0.930 . S
C1103 C1096 1.409 1_655 S
C1103 C1102 1.362 . S
H1104 C1110 0.930 . S
H1105 C1113 0.930 . S
H1106 C1114 0.930 1_545 S
H1107 C1115 0.930 . S
H1108 C1118 0.930 . S
H1109 C1119 0.930 1_565 S
C1110 H1104 0.930 . S
C1110 C1111 1.355 1_656 S
C1110 C1112 1.415 . S
C1111 C1110 1.355 1_454 S
C1111 C1113 1.419 . S
C1112 C1110 1.415 . S
C1112 C1117 1.425 1_666 S
C1112 C1119 1.409 1_565 S
C1113 H1105 0.930 . S
C1113 C1111 1.419 . S
C1113 C1114 1.362 . S
C1114 H1106 0.930 1_565 S
C1114 C1113 1.362 . S
C1114 C1117 1.409 1_565 S
C1115 H1107 0.930 . S
C1115 C1116 1.355 1_454 S
C1115 C1117 1.415 . S
C1116 C1115 1.355 1_656 S
C1116 C1118 1.419 . S
C1117 C1112 1.425 1_444 S
C1117 C1114 1.409 1_545 S
C1117 C1115 1.415 . S
C1118 H1108 0.930 . S
C1118 C1116 1.419 . S
C1118 C1119 1.362 . S
C1119 H1109 0.930 1_545 S
C1119 C1112 1.409 1_545 S
C1119 C1118 1.362 . S
H1120 C1126 0.930 . S
H1121 C1129 0.930 . S
H1122 C1130 0.930 . S
H1123 C1131 0.930 . S
H1124 C1134 0.930 . S
H1125 C1135 0.930 . S
C1126 H1120 0.930 . S
C1126 C1127 1.355 . S
C1126 C1128 1.415 . S
C1127 C1126 1.355 . S
C1127 C1129 1.419 . S
C1128 C1126 1.415 . S
C1128 C1133 1.425 . S
C1128 C1135 1.409 . S
C1129 H1121 0.930 . S
C1129 C1127 1.419 . S
C1129 C1130 1.362 . S
C1130 H1122 0.930 . S
C1130 C1129 1.362 . S
C1130 C1133 1.409 . S
C1131 H1123 0.930 . S
C1131 C1132 1.355 . S
C1131 C1133 1.415 . S
C1132 C1131 1.355 . S
C1132 C1134 1.419 . S
C1133 C1128 1.425 . S
C1133 C1130 1.409 . S
C1133 C1131 1.415 . S
C1134 H1124 0.930 . S
C1134 C1132 1.419 . S
C1134 C1135 1.362 . S
C1135 H1125 0.930 . S
C1135 C1128 1.409 . S
C1135 C1134 1.362 . S
H1136 C1142 0.930 . S
H1137 C1145 0.930 . S
H1138 C1146 0.930 . S
H1139 C1147 0.930 . S
H1140 C1150 0.930 . S
H1141 C1151 0.930 . S
C1142 H1136 0.930 . S
C1142 C1143 1.355 . S
C1142 C1144 1.415 . S
C1143 C1142 1.355 . S
C1143 C1145 1.419 1_455 S
C1144 C1142 1.415 . S
C1144 C1149 1.425 1_455 S
C1144 C1151 1.409 . S
C1145 H1137 0.930 . S
C1145 C1143 1.419 1_655 S
C1145 C1146 1.362 . S
C1146 H1138 0.930 . S
C1146 C1145 1.362 . S
C1146 C1149 1.409 . S
C1147 H1139 0.930 . S
C1147 C1148 1.355 . S
C1147 C1149 1.415 . S
C1148 C1147 1.355 . S
C1148 C1150 1.419 1_655 S
C1149 C1144 1.425 1_655 S
C1149 C1146 1.409 . S
C1149 C1147 1.415 . S
C1150 H1140 0.930 . S
C1150 C1148 1.419 1_455 S
C1150 C1151 1.362 . S
C1151 H1141 0.930 . S
C1151 C1144 1.409 . S
C1151 C1150 1.362 . S
H1152 C1158 0.930 . S
H1153 C1161 0.930 . S
H1154 C1162 0.930 . S
H1155 C1163 0.930 . S
H1156 C1166 0.930 . S
H1157 C1167 0.930 . S
C1158 H1152 0.930 . S
C1158 C1159 1.355 . S
C1158 C1160 1.427 . S
C1159 C1158 1.355 . S
C1159 C1161 1.419 1_565 S
C1160 C1158 1.427 . S
C1160 C1165 1.425 1_465 S
C1160 C1167 1.397 1_455 S
C1161 H1153 0.930 . S
C1161 C1159 1.419 1_545 S
C1161 C1162 1.362 . S
C1162 H1154 0.930 . S
C1162 C1161 1.362 . S
C1162 C1165 1.397 1_455 S
C1163 H1155 0.930 . S
C1163 C1164 1.355 . S
C1163 C1165 1.427 . S
C1164 C1163 1.355 . S
C1164 C1166 1.419 1_545 S
C1165 C1160 1.425 1_645 S
C1165 C1162 1.397 1_655 S
C1165 C1163 1.427 . S
C1166 H1156 0.930 . S
C1166 C1164 1.419 1_565 S
C1166 C1167 1.362 . S
C1167 H1157 0.930 . S
C1167 C1160 1.397 1_655 S
C1167 C1166 1.362 . S
H1168 C1174 0.930 . S
H1169 C1177 0.930 . S
H1170 C1178 0.930 1_545 S
H1171 C1179 0.930 . S
H1172 C1182 0.930 . S
H1173 C1183 0.930 1_565 S
C1174 H1168 0.930 . S
C1174 C1175 1.355 . S
C1174 C1176 1.415 . S
C1175 C1174 1.355 . S
C1175 C1177 1.419 . S
C1176 C1174 1.415 . S
C1176 C1181 1.425 1_565 S
C1176 C1183 1.409 1_565 S
C1177 H1169 0.930 . S
C1177 C1175 1.419 . S
C1177 C1178 1.362 . S
C1178 H1170 0.930 1_565 S
C1178 C1177 1.362 . S
C1178 C1181 1.409 1_565 S
C1179 H1171 0.930 . S
C1179 C1180 1.355 . S
C1179 C1181 1.415 . S
C1180 C1179 1.355 . S
C1180 C1182 1.419 . S
C1181 C1176 1.425 1_545 S
C1181 C1178 1.409 1_545 S
C1181 C1179 1.415 . S
C1182 H1172 0.930 . S
C1182 C1180 1.419 . S
C1182 C1183 1.362 . S
C1183 H1173 0.930 1_545 S
C1183 C1176 1.409 1_545 S
C1183 C1182 1.362 . S
C551 C5 0.914 . S
C556 C243 0.879 . S
C567 C141 0.936 . S
C572 C39 0.922 . S
C583 C73 0.898 . S
C588 C175 0.860 . S
C599 C107 0.928 . S
C604 C209 0.901 . S
C615 C277 0.825 . S
C620 C515 0.863 . S
C631 C413 0.890 . S
C636 C311 0.851 . S
C647 C447 0.861 . S
C652 C345 0.823 . S
C663 C481 0.859 . S
C668 C379 0.822 . S
C679 C206 1.433 . S
C684 C2 1.422 . S
C695 C36 1.437 . S
C700 C240 1.425 . S
C711 C70 1.390 . S
C716 C138 1.388 . S
C727 C172 1.504 . S
C732 C104 1.500 . S
C743 C478 1.502 . S
C748 C274 1.505 . S
C759 C512 1.406 . S
C764 C308 1.416 . S
C775 C342 1.401 . S
C780 C410 1.409 . S
C791 C376 1.475 . S
C796 C444 1.464 . S
C807 C9 1.354 . S
C812 C543 1.600 . S
C823 C43 1.344 . S
C828 C441 1.606 . S
C839 C77 1.360 . S
C844 C475 1.622 . S
C855 C509 1.582 . S
C860 C111 1.432 . S
C871 C339 1.602 . S
C876 C145 1.457 . S
C887 C373 1.610 . S
C892 C179 1.341 . S
C903 C213 1.431 . S
C908 C407 1.613 . S
C919 C247 1.348 . S
C924 C305 1.620 . S
C935 C271 1.591 . S
C940 C281 1.466 . S
C951 C169 1.593 . S
C956 C315 1.466 . S
C967 C349 1.453 . S
C972 C203 1.604 . S
C983 C237 1.621 . S
C988 C383 1.353 . S
C999 C67 1.582 . S
C1004 C417 1.445 . S
C1015 C101 1.591 . S
C1020 C451 1.466 . S
C1031 C135 1.606 . S
C1036 C485 1.345 . S
C1047 C33 1.623 . S
C1052 C519 1.370 . S
C1063 C20 1.315 . S
C1068 C292 1.315 . S
C1079 C326 1.331 . S
C1084 C54 1.331 . S
C1095 C360 1.292 . S
C1100 C88 1.292 . S
C1111 C122 1.313 . S
C1116 C394 1.313 . S
C1127 C428 1.348 . S
C1132 C156 1.348 . S
C1143 C190 1.287 . S
C1148 C462 1.287 . S
C1159 C496 1.348 . S
C1164 C224 1.348 . S
C1175 C258 1.341 . S
C1180 C530 1.341 . S
