# Generated by pormake.
# Topology snk, (6)-cn, num edge types: 1
# Building blocks:
#     Node 0, Type 0, BuildingBlock: BETDEL_clean_sbu_0, # of connection points: 6
#     Node 1, Type 0, BuildingBlock: BETDEL_clean_sbu_0, # of connection points: 6
#     Node 2, Type 0, BuildingBlock: BETDEL_clean_sbu_0, # of connection points: 6
#     Node 3, Type 0, BuildingBlock: BETDEL_clean_sbu_0, # of connection points: 6
#     Node 4, Type 0, BuildingBlock: BETDEL_clean_sbu_0, # of connection points: 6
#     Node 5, Type 0, BuildingBlock: BETDEL_clean_sbu_0, # of connection points: 6
#     Node 6, Type 0, BuildingBlock: BETDEL_clean_sbu_0, # of connection points: 6
#     Node 7, Type 0, BuildingBlock: BETDEL_clean_sbu_0, # of connection points: 6
#     Edge 8, Type (0, 0), BuildingBlock: KIFKEQ_clean_linker_1, # of connection points: 2
#     Edge 9, Type (0, 0), BuildingBlock: KIFKEQ_clean_linker_1, # of connection points: 2
#     Edge 10, Type (0, 0), BuildingBlock: KIFKEQ_clean_linker_1, # of connection points: 2
#     Edge 11, Type (0, 0), BuildingBlock: KIFKEQ_clean_linker_1, # of connection points: 2
#     Edge 12, Type (0, 0), BuildingBlock: KIFKEQ_clean_linker_1, # of connection points: 2
#     Edge 13, Type (0, 0), BuildingBlock: KIFKEQ_clean_linker_1, # of connection points: 2
#     Edge 14, Type (0, 0), BuildingBlock: KIFKEQ_clean_linker_1, # of connection points: 2
#     Edge 15, Type (0, 0), BuildingBlock: KIFKEQ_clean_linker_1, # of connection points: 2
#     Edge 16, Type (0, 0), BuildingBlock: KIFKEQ_clean_linker_1, # of connection points: 2
#     Edge 17, Type (0, 0), BuildingBlock: KIFKEQ_clean_linker_1, # of connection points: 2
#     Edge 18, Type (0, 0), BuildingBlock: KIFKEQ_clean_linker_1, # of connection points: 2
#     Edge 19, Type (0, 0), BuildingBlock: KIFKEQ_clean_linker_1, # of connection points: 2
#     Edge 20, Type (0, 0), BuildingBlock: KIFKEQ_clean_linker_1, # of connection points: 2
#     Edge 21, Type (0, 0), BuildingBlock: KIFKEQ_clean_linker_1, # of connection points: 2
#     Edge 22, Type (0, 0), BuildingBlock: KIFKEQ_clean_linker_1, # of connection points: 2
#     Edge 23, Type (0, 0), BuildingBlock: KIFKEQ_clean_linker_1, # of connection points: 2
#     Edge 24, Type (0, 0), BuildingBlock: KIFKEQ_clean_linker_1, # of connection points: 2
#     Edge 25, Type (0, 0), BuildingBlock: KIFKEQ_clean_linker_1, # of connection points: 2
#     Edge 26, Type (0, 0), BuildingBlock: KIFKEQ_clean_linker_1, # of connection points: 2
#     Edge 27, Type (0, 0), BuildingBlock: KIFKEQ_clean_linker_1, # of connection points: 2
#     Edge 28, Type (0, 0), BuildingBlock: KIFKEQ_clean_linker_1, # of connection points: 2
#     Edge 29, Type (0, 0), BuildingBlock: KIFKEQ_clean_linker_1, # of connection points: 2
#     Edge 30, Type (0, 0), BuildingBlock: KIFKEQ_clean_linker_1, # of connection points: 2
#     Edge 31, Type (0, 0), BuildingBlock: KIFKEQ_clean_linker_1, # of connection points: 2
# Relax obj value: 0.058
# Max RMSD: 0.101
# Mean RMSD: 0.095
data_MOF--net-snk--node1-BETDEL_clean_sbu_0--edge1-KIFKEQ_clean_linker_1
_symmetry_space_group_name_H-M    P1
_symmetry_Int_Tables_number       1
_symmetry_cell_setting            triclinic
loop_
_symmetry_equiv_pos_as_xyz
'x, y, z'
_cell_length_a     40.821993
_cell_length_b     40.756904
_cell_length_c     18.202727
_cell_angle_alpha  85.369247
_cell_angle_beta   94.712106
_cell_angle_gamma 90.286523
loop_
_atom_site_label
_atom_site_type_symbol
_atom_site_fract_x
_atom_site_fract_y
_atom_site_fract_z
_atom_type_partial_charge
Dy0 Dy 0.99647 0.99412 0.43769 0.0
C1 C 0.01959 0.01026 0.74252 0.0
C2 C 0.99196 0.99076 0.28809 0.0
Dy3 Dy 0.01002 0.01209 0.59212 0.0
O4 O 0.01273 0.9748 0.33514 0.0
O5 O 0.97271 0.00838 0.32278 0.0
O6 O 0.01296 0.94297 0.47474 0.0
O7 O 0.03702 0.98281 0.5229 0.0
C8 C 0.0355 0.95184 0.52354 0.0
C9 C 0.97025 0.05461 0.50886 0.0
O10 O 0.05416 0.03591 0.54642 0.0
O11 O 0.0299 0.03786 0.4271 0.0
O12 O 0.01014 0.03589 0.69932 0.0
O13 O 0.0249 0.98589 0.70337 0.0
O14 O 0.9916 0.063 0.56068 0.0
O15 O 0.96936 0.02368 0.50728 0.0
O16 O 0.95292 0.96807 0.48032 0.0
O17 O 0.97199 0.97214 0.60264 0.0
C18 C 0.05307 0.04735 0.47612 0.0
C19 C 0.95125 0.95996 0.55182 0.0
Dy20 Dy 0.24395 0.7448 0.843 0.0
C21 C 0.25635 0.7577 0.53838 0.0
C22 C 0.24871 0.73425 0.99332 0.0
Dy23 Dy 0.25826 0.75785 0.68817 0.0
O24 O 0.22157 0.73377 0.95113 0.0
O25 O 0.27332 0.73937 0.95328 0.0
O26 O 0.19359 0.76628 0.82222 0.0
O27 O 0.23117 0.78624 0.76031 0.0
C28 C 0.20073 0.78679 0.76786 0.0
C29 C 0.30215 0.71805 0.76794 0.0
O30 O 0.28724 0.80048 0.72776 0.0
O31 O 0.28483 0.78176 0.85063 0.0
O32 O 0.25747 0.73199 0.58489 0.0
O33 O 0.25662 0.78433 0.57346 0.0
O34 O 0.30961 0.74004 0.71666 0.0
O35 O 0.27144 0.71684 0.77178 0.0
O36 O 0.2195 0.70104 0.79615 0.0
O37 O 0.21053 0.73057 0.68384 0.0
C38 C 0.29668 0.80206 0.79873 0.0
C39 C 0.20385 0.70505 0.72956 0.0
Dy40 Dy 0.50891 0.98986 0.09111 0.0
C41 C 0.48365 0.0162 0.77781 0.0
C42 C 0.51442 0.98473 0.24258 0.0
Dy43 Dy 0.49364 0.01614 0.92846 0.0
O44 O 0.49326 0.96932 0.20087 0.0
O45 O 0.53384 0.00204 0.20142 0.0
O46 O 0.49112 0.94024 0.06203 0.0
O47 O 0.4693 0.98282 1.00545 0.0
C48 C 0.47024 0.95179 1.00851 0.0
C49 C 0.53316 0.05419 1.0094 0.0
O50 O 0.45023 0.03769 0.9744 0.0
O51 O 0.47461 0.0324 0.09453 0.0
O52 O 0.49635 0.04034 0.81301 0.0
O53 O 0.47503 0.99285 0.8251 0.0
O54 O 0.51317 0.06573 0.95407 0.0
O55 O 0.53325 0.02315 0.01368 0.0
O56 O 0.5521 0.96676 0.04776 0.0
O57 O 0.53227 0.97743 0.92458 0.0
C58 C 0.45138 0.04446 0.04468 0.0
C59 C 0.55337 0.9629 0.97629 0.0
Dy60 Dy 0.23966 0.26064 0.18234 0.0
C61 C 0.26554 0.23497 0.4957 0.0
C62 C 0.23459 0.26626 0.03087 0.0
Dy63 Dy 0.26561 0.24521 0.34515 0.0
O64 O 0.21884 0.24535 0.07236 0.0
O65 O 0.25223 0.28539 0.07226 0.0
O66 O 0.19019 0.24233 0.21064 0.0
O67 O 0.2328 0.22069 0.26731 0.0
C68 C 0.20181 0.22134 0.26386 0.0
C69 C 0.3035 0.28532 0.26538 0.0
O70 O 0.2873 0.20187 0.29898 0.0
O71 O 0.28235 0.2265 0.1791 0.0
O72 O 0.28983 0.24737 0.46078 0.0
O73 O 0.24208 0.22678 0.44817 0.0
O74 O 0.31503 0.26534 0.32074 0.0
O75 O 0.27251 0.28512 0.26054 0.0
O76 O 0.21636 0.30372 0.22602 0.0
O77 O 0.2265 0.28343 0.34903 0.0
C78 C 0.29429 0.20316 0.22886 0.0
C79 C 0.21211 0.30466 0.29739 0.0
Dy80 Dy 0.74334 0.24465 0.33973 0.0
C81 C 0.76419 0.26339 0.03579 0.0
C82 C 0.74533 0.23491 0.4902 0.0
Dy83 Dy 0.76089 0.25879 0.18544 0.0
O84 O 0.71957 0.24387 0.447 0.0
O85 O 0.76977 0.23014 0.45101 0.0
O86 O 0.69235 0.26282 0.30935 0.0
O87 O 0.73128 0.28551 0.25552 0.0
C88 C 0.70042 0.28442 0.25777 0.0
C89 C 0.80369 0.21996 0.27058 0.0
O90 O 0.78661 0.30252 0.22859 0.0
O91 O 0.78291 0.28301 0.35069 0.0
O92 O 0.78037 0.2428 0.08284 0.0
O93 O 0.74637 0.28245 0.07051 0.0
O94 O 0.81214 0.24284 0.22214 0.0
O95 O 0.77277 0.218 0.26993 0.0
O96 O 0.71976 0.20039 0.29355 0.0
O97 O 0.71747 0.22501 0.17458 0.0
C98 C 0.79482 0.30404 0.30014 0.0
C99 C 0.70824 0.20159 0.22327 0.0
Dy100 Dy 0.739 0.76105 0.67973 0.0
C101 C 0.76973 0.73998 0.9939 0.0
C102 C 0.73933 0.77124 0.52925 0.0
Dy103 Dy 0.76472 0.74566 0.84244 0.0
O104 O 0.71471 0.75948 0.56399 0.0
O105 O 0.763 0.77882 0.57692 0.0
O106 O 0.68948 0.74116 0.70357 0.0
O107 O 0.73183 0.7211 0.76435 0.0
C108 C 0.70082 0.72109 0.75892 0.0
C109 C 0.8027 0.78495 0.76093 0.0
O110 O 0.78808 0.70252 0.79915 0.0
O111 O 0.77776 0.7225 0.67604 0.0
O112 O 0.78553 0.76087 0.95249 0.0
O113 O 0.75203 0.72092 0.95245 0.0
O114 O 0.81426 0.76394 0.81418 0.0
O115 O 0.77172 0.78558 0.75766 0.0
O116 O 0.71757 0.80455 0.72566 0.0
O117 O 0.72199 0.7798 0.84541 0.0
C118 C 0.79217 0.70134 0.72777 0.0
C119 C 0.71028 0.8032 0.79555 0.0
Dy120 Dy 0.49592 0.49325 0.93424 0.0
C121 C 0.51944 0.50995 0.23895 0.0
C122 C 0.49131 0.48987 0.7846 0.0
Dy123 Dy 0.50993 0.51156 0.08849 0.0
O124 O 0.51213 0.47396 0.8316 0.0
O125 O 0.47202 0.50742 0.81938 0.0
O126 O 0.51189 0.44203 0.97126 0.0
O127 O 0.53646 0.48162 0.01945 0.0
C128 C 0.53455 0.45063 0.02009 0.0
C129 C 0.47027 0.55406 1.00471 0.0
O130 O 0.55411 0.53506 0.04239 0.0
O131 O 0.52976 0.53667 0.92315 0.0
O132 O 0.50975 0.53545 0.19558 0.0
O133 O 0.52506 0.48562 0.19992 0.0
O134 O 0.49179 0.56258 0.05608 0.0
O135 O 0.46926 0.52311 1.00384 0.0
O136 O 0.4523 0.46755 0.97765 0.0
O137 O 0.47159 0.47202 0.09972 0.0
C138 C 0.55304 0.54619 0.9719 0.0
C139 C 0.45068 0.45979 0.04932 0.0
Dy140 Dy 0.00931 0.49008 0.59288 0.0
C141 C 0.98391 0.51631 0.27956 0.0
C142 C 0.01502 0.48516 0.74435 0.0
Dy143 Dy 0.99388 0.51614 0.43022 0.0
O144 O 0.99411 0.46936 0.70289 0.0
O145 O 0.03411 0.50278 0.70294 0.0
O146 O 0.99113 0.44045 0.56435 0.0
O147 O 0.96953 0.48306 0.50764 0.0
C148 C 0.97018 0.45203 0.51098 0.0
C149 C 0.03302 0.5545 0.51104 0.0
O150 O 0.9503 0.53729 0.47617 0.0
O151 O 0.97486 0.53255 0.59617 0.0
O152 O 0.99656 0.54045 0.31486 0.0
O153 O 0.97534 0.4929 0.32676 0.0
O154 O 0.01286 0.56589 0.45589 0.0
O155 O 0.03349 0.52345 0.5153 0.0
O156 O 0.05249 0.467 0.54939 0.0
O157 O 0.03238 0.47731 0.42633 0.0
C158 C 0.95151 0.54434 0.54627 0.0
C159 C 0.05358 0.46293 0.47798 0.0
H160 H 0.05521 0.07671 0.33717 0.0
H161 H 0.1051 0.07466 0.55652 0.0
H162 H 0.09211 0.11934 0.29396 0.0
H163 H 0.14235 0.11807 0.51236 0.0
H164 H 0.13535 0.21966 0.25729 0.0
H165 H 0.10067 0.17813 0.31562 0.0
H166 H 0.18695 0.12777 0.42156 0.0
H167 H 0.22189 0.16977 0.3632 0.0
C168 C 0.07408 0.0853 0.3764 0.0
C169 C 0.07701 0.07233 0.4506 0.0
C170 C 0.09514 0.10997 0.35153 0.0
C171 C 0.11981 0.12238 0.39998 0.0
C172 C 0.1235 0.10893 0.47384 0.0
C173 C 0.10215 0.08419 0.49908 0.0
C174 C 0.14694 0.19989 0.29347 0.0
C175 C 0.18127 0.19767 0.30503 0.0
C176 C 0.1271 0.17606 0.32671 0.0
C177 C 0.14113 0.14946 0.3723 0.0
C178 C 0.17548 0.14804 0.38678 0.0
C179 C 0.19543 0.17195 0.35319 0.0
H180 H 0.09377 0.96627 0.60003 0.0
H181 H 0.03242 0.88538 0.53393 0.0
H182 H 0.13512 0.92691 0.65932 0.0
H183 H 0.07339 0.84635 0.59287 0.0
H184 H 0.21367 0.84119 0.67588 0.0
H185 H 0.17396 0.88272 0.6188 0.0
H186 H 0.09593 0.82998 0.72326 0.0
H187 H 0.13528 0.78882 0.77984 0.0
C188 C 0.08911 0.94013 0.59853 0.0
C189 C 0.05997 0.92878 0.56255 0.0
C190 C 0.1128 0.91768 0.63186 0.0
C191 C 0.10741 0.88362 0.63057 0.0
C192 C 0.07806 0.87245 0.59523 0.0
C193 C 0.05466 0.89478 0.56137 0.0
C194 C 0.18802 0.83861 0.68646 0.0
C195 C 0.17746 0.81186 0.7321 0.0
C196 C 0.1654 0.86241 0.65432 0.0
C197 C 0.1319 0.85949 0.66665 0.0
C198 C 0.12153 0.83268 0.7123 0.0
C199 C 0.14407 0.80919 0.74482 0.0
H200 H 0.32583 0.80579 0.93734 0.0
H201 H 0.32511 0.85246 0.71516 0.0
H202 H 0.3687 0.84281 0.9787 0.0
H203 H 0.36872 0.89 0.75771 0.0
H204 H 0.41897 0.97153 0.90795 0.0
H205 H 0.37749 0.93619 0.84871 0.0
H206 H 0.42809 0.8502 0.95558 0.0
H207 H 0.46918 0.88523 0.01453 0.0
C208 C 0.33472 0.82402 0.89709 0.0
C209 C 0.32201 0.82602 0.82266 0.0
C210 C 0.35954 0.84513 0.92093 0.0
C211 C 0.37234 0.869 0.87128 0.0
C212 C 0.35926 0.87175 0.79709 0.0
C213 C 0.33441 0.85024 0.7728 0.0
C214 C 0.42136 0.94505 0.91786 0.0
C215 C 0.44698 0.93106 0.96655 0.0
C216 C 0.39775 0.92488 0.88376 0.0
C217 C 0.39938 0.8905 0.89834 0.0
C218 C 0.42593 0.87664 0.94431 0.0
C219 C 0.44947 0.89669 0.97797 0.0
H220 H 0.45055 0.06638 0.18178 0.0
H221 H 0.39606 0.07177 0.96707 0.0
H222 H 0.41117 0.10263 0.22607 0.0
H223 H 0.35579 0.10773 1.01265 0.0
H224 H 0.31734 0.20298 0.09284 0.0
H225 H 0.3531 0.16315 0.04839 0.0
H226 H 0.35567 0.10629 0.25974 0.0
H227 H 0.32021 0.14697 0.30548 0.0
C228 C 0.42997 0.07506 0.14396 0.0
C229 C 0.42656 0.06623 0.07052 0.0
C230 C 0.40718 0.09569 0.16984 0.0
C231 C 0.38024 0.10799 0.12317 0.0
C232 C 0.37651 0.09892 0.04984 0.0
C233 C 0.3995 0.07827 0.02371 0.0
C234 C 0.32538 0.18199 0.13015 0.0
C235 C 0.31597 0.17825 0.20306 0.0
C236 C 0.34571 0.15894 0.10418 0.0
C237 C 0.35714 0.13143 0.15023 0.0
C238 C 0.34754 0.12744 0.22304 0.0
C239 C 0.32719 0.15067 0.24927 0.0
H240 H 0.90192 0.92975 0.46906 0.0
H241 H 0.94546 0.93434 0.6928 0.0
H242 H 0.86455 0.88643 0.51312 0.0
H243 H 0.90854 0.89159 0.73575 0.0
H244 H 0.78263 0.83534 0.65835 0.0
H245 H 0.8173 0.87793 0.60104 0.0
H246 H 0.90349 0.83117 0.71666 0.0
H247 H 0.86912 0.78888 0.77342 0.0
C248 C 0.90341 0.92175 0.52744 0.0
C249 C 0.92683 0.93544 0.57723 0.0
C250 C 0.882 0.89705 0.55257 0.0
C251 C 0.88398 0.8854 0.62765 0.0
C252 C 0.90684 0.89967 0.67737 0.0
C253 C 0.92789 0.92438 0.65261 0.0
C254 C 0.80903 0.83405 0.67068 0.0
C255 C 0.82322 0.80906 0.72087 0.0
C256 C 0.82882 0.8583 0.63775 0.0
C257 C 0.86301 0.85804 0.65517 0.0
C258 C 0.87715 0.83228 0.70317 0.0
C259 C 0.85749 0.80802 0.7355 0.0
H260 H 0.97081 0.12077 0.51003 0.0
H261 H 0.91378 0.04073 0.42423 0.0
H262 H 0.92947 0.15992 0.45418 0.0
H263 H 0.8721 0.08031 0.36722 0.0
H264 H 0.8699 0.2222 0.27299 0.0
H265 H 0.90946 0.18103 0.32799 0.0
H266 H 0.83031 0.12053 0.40626 0.0
H267 H 0.79035 0.162 0.35013 0.0
C268 C 0.94943 0.11157 0.47886 0.0
C269 C 0.94546 0.07775 0.47139 0.0
C270 C 0.9258 0.13402 0.44667 0.0
C271 C 0.89757 0.12319 0.4063 0.0
C272 C 0.89351 0.08929 0.39866 0.0
C273 C 0.9174 0.06672 0.43067 0.0
C274 C 0.8609 0.20017 0.3021 0.0
C275 C 0.8271 0.19527 0.30745 0.0
C276 C 0.88357 0.17663 0.33375 0.0
C277 C 0.87298 0.14757 0.37146 0.0
C278 C 0.83911 0.14257 0.37687 0.0
C279 C 0.81632 0.16635 0.34539 0.0
H280 H 0.67956 0.15052 0.30397 0.0
H281 H 0.68053 0.19829 0.08318 0.0
H282 H 0.63596 0.11357 0.25917 0.0
H283 H 0.63771 0.16171 0.03936 0.0
H284 H 0.53665 0.12071 0.99964 0.0
H285 H 0.57859 0.15495 0.05815 0.0
H286 H 0.62585 0.06817 0.1703 0.0
H287 H 0.58341 0.03369 0.11176 0.0
C288 C 0.67069 0.15304 0.24607 0.0
C289 C 0.68339 0.17756 0.1974 0.0
C290 C 0.64581 0.13187 0.22047 0.0
C291 C 0.63311 0.13512 0.14602 0.0
C292 C 0.64647 0.15907 0.09736 0.0
C293 C 0.67124 0.17995 0.12261 0.0
C294 C 0.55583 0.10893 0.03721 0.0
C295 C 0.55705 0.07458 0.0505 0.0
C296 C 0.5799 0.12851 0.07054 0.0
C297 C 0.60576 0.11419 0.11796 0.0
C298 C 0.60617 0.07986 0.1341 0.0
C299 C 0.58201 0.06017 0.10043 0.0
H300 H 0.68328 0.80132 0.92748 0.0
H301 H 0.68826 0.8615 0.7219 0.0
H302 H 0.64779 0.84155 0.97151 0.0
H303 H 0.6532 0.90257 0.76732 0.0
H304 H 0.55796 0.94526 0.83652 0.0
H305 H 0.59725 0.90863 0.79342 0.0
H306 H 0.64613 0.89565 0.01363 0.0
H307 H 0.60579 0.93191 0.0579 0.0
C308 C 0.67703 0.82333 0.89174 0.0
C309 C 0.68856 0.82816 0.82089 0.0
C310 C 0.65686 0.84658 0.91748 0.0
C311 C 0.64778 0.87541 0.87329 0.0
C312 C 0.65947 0.88043 0.80251 0.0
C313 C 0.67958 0.85696 0.77644 0.0
C314 C 0.57713 0.93482 0.87608 0.0
C315 C 0.57862 0.94148 0.95099 0.0
C316 C 0.59989 0.91394 0.85095 0.0
C317 C 0.62493 0.89924 0.89985 0.0
C318 C 0.62686 0.90629 0.97464 0.0
C319 C 0.60385 0.92715 1.00003 0.0
H320 H 0.55672 0.5732 0.83137 0.0
H321 H 0.60373 0.57539 0.05269 0.0
H322 H 0.59336 0.6159 0.78729 0.0
H323 H 0.6407 0.61885 1.00765 0.0
H324 H 0.63441 0.71715 0.7465 0.0
H325 H 0.60004 0.6752 0.80438 0.0
H326 H 0.68633 0.62862 0.9202 0.0
H327 H 0.72092 0.67106 0.8623 0.0
C328 C 0.57491 0.58274 0.87085 0.0
C329 C 0.57707 0.57097 0.94585 0.0
C330 C 0.59582 0.60743 0.84545 0.0
C331 C 0.61957 0.62108 0.89418 0.0
C332 C 0.62257 0.60876 0.96888 0.0
C333 C 0.60139 0.58397 0.99461 0.0
C334 C 0.64605 0.69811 0.7847 0.0
C335 C 0.68031 0.6971 0.79928 0.0
C336 C 0.62639 0.67402 0.81766 0.0
C337 C 0.64055 0.64836 0.86601 0.0
C338 C 0.67476 0.64814 0.88327 0.0
C339 C 0.69452 0.67231 0.84997 0.0
H340 H 0.63441 0.28371 0.26075 0.0
H341 H 0.71368 0.34099 0.1729 0.0
H342 H 0.59497 0.32498 0.20567 0.0
H343 H 0.67384 0.38256 0.11672 0.0
H344 H 0.53212 0.38427 0.02418 0.0
H345 H 0.57326 0.34479 0.07974 0.0
H346 H 0.63386 0.42437 0.15617 0.0
H347 H 0.59242 0.46423 0.09955 0.0
C348 C 0.64337 0.30513 0.22931 0.0
C349 C 0.67706 0.30919 0.22101 0.0
C350 C 0.62077 0.32872 0.19759 0.0
C351 C 0.63131 0.35699 0.15687 0.0
C352 C 0.66508 0.36114 0.14846 0.0
C353 C 0.6878 0.3373 0.18 0.0
C354 C 0.55416 0.39338 0.05305 0.0
C355 C 0.55912 0.42727 0.05765 0.0
C356 C 0.57768 0.37075 0.08503 0.0
C357 C 0.60678 0.38149 0.12228 0.0
C358 C 0.61179 0.41545 0.12713 0.0
C359 C 0.58802 0.43819 0.09536 0.0
H360 H 0.96574 0.38549 0.52392 0.0
H361 H 0.92011 0.47229 0.40797 0.0
H362 H 0.92327 0.35129 0.4669 0.0
H363 H 0.87741 0.43781 0.35037 0.0
H364 H 0.81999 0.30999 0.44147 0.0
H365 H 0.86283 0.34672 0.48499 0.0
H366 H 0.86872 0.3905 0.26253 0.0
H367 H 0.82532 0.35331 0.21787 0.0
C368 C 0.94675 0.39722 0.48574 0.0
C369 C 0.94601 0.43153 0.47089 0.0
C370 C 0.9224 0.37767 0.45327 0.0
C371 C 0.89685 0.39196 0.40489 0.0
C372 C 0.89687 0.42617 0.38734 0.0
C373 C 0.9212 0.44585 0.42042 0.0
C374 C 0.83013 0.32747 0.40142 0.0
C375 C 0.81926 0.3285 0.32591 0.0
C376 C 0.8549 0.34841 0.42652 0.0
C377 C 0.86941 0.37113 0.37703 0.0
C378 C 0.85792 0.37314 0.30182 0.0
C379 C 0.83316 0.35184 0.27634 0.0
H380 H 0.81016 0.69704 0.58829 0.0
H381 H 0.82278 0.64858 0.80911 0.0
H382 H 0.84661 0.65762 0.54507 0.0
H383 H 0.85889 0.6081 0.76469 0.0
H384 H 0.95317 0.57084 0.67888 0.0
H385 H 0.913 0.60627 0.72317 0.0
H386 H 0.85236 0.60164 0.51812 0.0
H387 H 0.89338 0.56662 0.47245 0.0
C388 C 0.8204 0.6777 0.6277 0.0
C389 C 0.81358 0.67607 0.70249 0.0
C390 C 0.84118 0.65486 0.60249 0.0
C391 C 0.85561 0.6296 0.65118 0.0
C392 C 0.84844 0.62754 0.72586 0.0
C393 C 0.82768 0.65062 0.75134 0.0
C394 C 0.93126 0.57723 0.643 0.0
C395 C 0.92653 0.56595 0.57183 0.0
C396 C 0.90803 0.59738 0.66889 0.0
C397 C 0.87934 0.60668 0.62453 0.0
C398 C 0.87441 0.5952 0.55346 0.0
C399 C 0.89785 0.57511 0.52724 0.0
H400 H 0.28305 0.33389 0.15867 0.0
H401 H 0.36974 0.29118 0.28096 0.0
H402 H 0.31718 0.37648 0.0996 0.0
H403 H 0.40356 0.33351 0.22254 0.0
H404 H 0.40256 0.42751 0.96735 0.0
H405 H 0.36537 0.38442 0.0134 0.0
H406 H 0.40658 0.39458 0.23645 0.0
H407 H 0.44329 0.4371 0.1916 0.0
C408 C 0.30938 0.33341 0.17222 0.0
C409 C 0.32377 0.30948 0.22485 0.0
C410 C 0.32886 0.35767 0.13832 0.0
C411 C 0.36292 0.35847 0.15721 0.0
C412 C 0.3773 0.33377 0.20783 0.0
C413 C 0.35795 0.30951 0.24113 0.0
C414 C 0.40344 0.42068 0.02622 0.0
C415 C 0.42611 0.43563 0.0756 0.0
C416 C 0.38215 0.3961 0.05249 0.0
C417 C 0.38349 0.38588 0.12833 0.0
C418 C 0.40544 0.40152 0.17756 0.0
C419 C 0.42639 0.42608 0.15166 0.0
H420 H 0.41301 0.53963 0.92396 0.0
H421 H 0.47148 0.6204 1.0016 0.0
H422 H 0.37105 0.57888 0.86703 0.0
H423 H 0.42986 0.6593 0.94544 0.0
H424 H 0.36811 0.71946 0.76322 0.0
H425 H 0.40818 0.67868 0.81796 0.0
H426 H 0.33027 0.62011 0.90812 0.0
H427 H 0.28982 0.66122 0.8526 0.0
C428 C 0.4169 0.56573 0.92855 0.0
C429 C 0.44542 0.57706 0.96705 0.0
C430 C 0.39284 0.58811 0.89658 0.0
C431 C 0.39721 0.62212 0.90191 0.0
C432 C 0.42595 0.63328 0.93985 0.0
C433 C 0.44973 0.611 0.97217 0.0
C434 C 0.3595 0.69792 0.79481 0.0
C435 C 0.32591 0.69346 0.80377 0.0
C436 C 0.38246 0.67462 0.8263 0.0
C437 C 0.37235 0.64623 0.86729 0.0
C438 C 0.33868 0.64164 0.87617 0.0
C439 C 0.31562 0.66521 0.84498 0.0
H440 H 0.18037 0.64974 0.80603 0.0
H441 H 0.1693 0.7074 0.59542 0.0
H442 H 0.13717 0.61228 0.76153 0.0
H443 H 0.1272 0.67021 0.55144 0.0
H444 H 0.03128 0.62077 0.5118 0.0
H445 H 0.07102 0.65628 0.57335 0.0
H446 H 0.12633 0.57085 0.66825 0.0
H447 H 0.08576 0.5351 0.60761 0.0
C448 C 0.16881 0.65442 0.75048 0.0
C449 C 0.17815 0.6817 0.70456 0.0
C450 C 0.1442 0.63293 0.72494 0.0
C451 C 0.12846 0.63852 0.65327 0.0
C452 C 0.13821 0.66559 0.60751 0.0
C453 C 0.16262 0.68686 0.63276 0.0
C454 C 0.05176 0.60955 0.5463 0.0
C455 C 0.05576 0.57528 0.5541 0.0
C456 C 0.0746 0.62988 0.58139 0.0
C457 C 0.10216 0.61641 0.62465 0.0
C458 C 0.10533 0.58196 0.63543 0.0
C459 C 0.08225 0.56153 0.60044 0.0
H460 H 0.18979 0.3058 0.43377 0.0
H461 H 0.18555 0.3602 0.21919 0.0
H462 H 0.15374 0.34556 0.4773 0.0
H463 H 0.14996 0.401 0.26402 0.0
H464 H 0.05535 0.44136 0.34091 0.0
H465 H 0.09513 0.40533 0.29746 0.0
H466 H 0.14954 0.40031 0.5121 0.0
H467 H 0.10871 0.43588 0.55683 0.0
C468 C 0.18148 0.32651 0.39592 0.0
C469 C 0.19055 0.32978 0.32273 0.0
C470 C 0.16093 0.34953 0.42132 0.0
C471 C 0.14903 0.37661 0.37447 0.0
C472 C 0.15839 0.38018 0.30139 0.0
C473 C 0.17884 0.35689 0.27565 0.0
C474 C 0.07584 0.43279 0.37909 0.0
C475 C 0.0788 0.44149 0.45263 0.0
C476 C 0.09887 0.41226 0.35374 0.0
C477 C 0.12567 0.4 0.40099 0.0
C478 C 0.12894 0.40902 0.47441 0.0
C479 C 0.10564 0.42946 0.50009 0.0
H480 H 0.00766 0.05919 0.82997 0.0
H481 H 0.02717 0.95495 0.83617 0.0
H482 H 0.99972 0.05366 0.96189 0.0
H483 H 0.01821 0.94908 0.96731 0.0
H484 H 0.03451 0.95737 0.21579 0.0
H485 H 0.04229 0.96244 0.08459 0.0
H486 H 0.96117 0.03119 0.04651 0.0
H487 H 0.95416 0.02682 0.17936 0.0
C488 C 0.01045 0.03514 0.85981 0.0
C489 C 0.01822 0.00753 0.82326 0.0
C490 C 0.00549 0.03188 0.93507 0.0
C491 C 0.00804 1.00089 0.97509 0.0
C492 C 0.0164 0.97338 0.93843 0.0
C493 C 0.02156 0.9767 0.86332 0.0
C494 C 0.01813 0.97336 0.17933 0.0
C495 C 0.99371 0.99172 0.20753 0.0
C496 C 0.02252 0.97617 0.104 0.0
C497 C 0.00243 0.99727 0.05494 0.0
C498 C 0.97741 0.01509 0.08303 0.0
C499 C 0.97313 0.01238 0.15881 0.0
H500 H 0.23864 0.70459 0.46602 0.0
H501 H 0.2692 0.80585 0.43024 0.0
H502 H 0.23668 0.69879 0.33367 0.0
H503 H 0.2677 0.79978 0.29651 0.0
H504 H 0.30013 0.75482 0.08239 0.0
H505 H 0.30102 0.76252 0.2146 0.0
H506 H 0.20206 0.72481 0.21724 0.0
H507 H 0.20094 0.7176 0.08484 0.0
C508 C 0.2449 0.72565 0.42963 0.0
C509 C 0.25414 0.75567 0.45797 0.0
C510 C 0.24364 0.72231 0.354 0.0
C511 C 0.25209 0.7488 0.3053 0.0
C512 C 0.26127 0.77897 0.33339 0.0
C513 C 0.26196 0.7825 0.40941 0.0
C514 C 0.27873 0.74789 0.11151 0.0
C515 C 0.25052 0.73543 0.07394 0.0
C516 C 0.27912 0.75266 0.18669 0.0
C517 C 0.25152 0.7445 0.22552 0.0
C518 C 0.22363 0.73128 0.18826 0.0
C519 C 0.22303 0.72704 0.11286 0.0
H520 H 0.46879 0.96197 0.70423 0.0
H521 H 0.50363 0.06181 0.67218 0.0
H522 H 0.47814 0.95311 0.57706 0.0
H523 H 0.51181 0.05356 0.54339 0.0
H524 H 0.5543 0.01868 0.33874 0.0
H525 H 0.54628 0.02642 0.46806 0.0
H526 H 0.45913 0.96579 0.45343 0.0
H527 H 0.46807 0.95707 0.32621 0.0
C528 C 0.47783 0.98227 0.66938 0.0
C529 C 0.48532 0.01262 0.698 0.0
C530 C 0.48318 0.97723 0.59623 0.0
C531 C 0.49588 0.00256 0.54947 0.0
C532 C 0.5026 0.03326 0.5779 0.0
C533 C 0.4975 0.03818 0.65144 0.0
C534 C 0.53379 0.00663 0.36384 0.0
C535 C 0.51197 0.98709 0.32262 0.0
C536 C 0.5289 0.01138 0.43765 0.0
C537 C 0.5019 0.99689 0.47155 0.0
C538 C 0.48047 0.97695 0.43007 0.0
C539 C 0.48554 0.97199 0.35681 0.0
H540 H 0.2692 0.30557 0.9352 0.0
H541 H 0.20614 0.22034 0.94679 0.0
H542 H 0.27682 0.29738 0.80591 0.0
H543 H 0.21471 0.2112 0.81959 0.0
H544 H 0.21113 0.22097 0.56878 0.0
H545 H 0.20244 0.23044 0.69598 0.0
H546 H 0.30332 0.26234 0.73066 0.0
H547 H 0.31143 0.25406 0.60184 0.0
C548 C 0.25681 0.28524 0.90989 0.0
C549 C 0.2369 0.26376 0.95084 0.0
C550 C 0.26148 0.28024 0.83611 0.0
C551 C 0.24655 0.25347 0.80196 0.0
C552 C 0.22623 0.23237 0.84315 0.0
C553 C 0.22135 0.23756 0.91639 0.0
C554 C 0.23155 0.22964 0.60387 0.0
C555 C 0.262 0.23663 0.57552 0.0
C556 C 0.22661 0.23506 0.67703 0.0
C557 C 0.25212 0.24732 0.72406 0.0
C558 C 0.2829 0.2535 0.69592 0.0
C559 C 0.28773 0.24833 0.62237 0.0
H560 H 0.79838 0.22143 0.96358 0.0
H561 H 0.72742 0.30047 0.92686 0.0
H562 H 0.79348 0.21344 0.83245 0.0
H563 H 0.72321 0.29325 0.79405 0.0
H564 H 0.69624 0.24597 0.57762 0.0
H565 H 0.70157 0.25417 0.70948 0.0
H566 H 0.80633 0.23767 0.71506 0.0
H567 H 0.80068 0.22846 0.58397 0.0
C568 C 0.78208 0.23748 0.92707 0.0
C569 C 0.76327 0.26159 0.9552 0.0
C570 C 0.77937 0.23298 0.85177 0.0
C571 C 0.75791 0.25263 0.80262 0.0
C572 C 0.7396 0.27735 0.83063 0.0
C573 C 0.74223 0.28176 0.9064 0.0
C574 C 0.7203 0.24366 0.60748 0.0
C575 C 0.74802 0.23638 0.57097 0.0
C576 C 0.72344 0.24878 0.68271 0.0
C577 C 0.75442 0.24687 0.72277 0.0
C578 C 0.78205 0.23899 0.68616 0.0
C579 C 0.77885 0.23368 0.61108 0.0
H580 H 0.79396 0.78434 0.45643 0.0
H581 H 0.69313 0.75292 0.42288 0.0
H582 H 0.80249 0.77482 0.32917 0.0
H583 H 0.7011 0.74458 0.29402 0.0
H584 H 0.73469 0.70097 0.08927 0.0
H585 H 0.7272 0.70912 0.21865 0.0
H586 H 0.79033 0.79455 0.20566 0.0
H587 H 0.79874 0.78547 0.07834 0.0
C588 C 0.7734 0.77602 0.42123 0.0
C589 C 0.74284 0.76953 0.44944 0.0
C590 C 0.77824 0.77058 0.34805 0.0
C591 C 0.75254 0.75878 0.30087 0.0
C592 C 0.72167 0.75307 0.32888 0.0
C593 C 0.71692 0.75827 0.40245 0.0
C594 C 0.74733 0.72112 0.11475 0.0
C595 C 0.76747 0.74242 0.07396 0.0
C596 C 0.74274 0.72609 0.18858 0.0
C597 C 0.758 0.75265 0.22292 0.0
C598 C 0.77855 0.77355 0.1819 0.0
C599 C 0.78333 0.7684 0.10861 0.0
H600 H 0.53428 0.45703 0.71227 0.0
H601 H 0.45324 0.52567 0.67577 0.0
H602 H 0.54216 0.46232 0.58116 0.0
H603 H 0.46034 0.53022 0.54295 0.0
H604 H 0.50659 0.55872 0.3262 0.0
H605 H 0.49851 0.55309 0.45807 0.0
H606 H 0.51853 0.44878 0.4639 0.0
H607 H 0.52763 0.45478 0.33285 0.0
C608 C 0.51777 0.47288 0.67581 0.0
C609 C 0.49312 0.49094 0.704 0.0
C610 C 0.52221 0.47582 0.6005 0.0
C611 C 0.50195 0.49673 0.55139 0.0
C612 C 0.47671 0.51427 0.57947 0.0
C613 C 0.47238 0.51144 0.65525 0.0
C614 C 0.50969 0.53472 0.35612 0.0
C615 C 0.51795 0.50722 0.31971 0.0
C616 C 0.50465 0.53139 0.43137 0.0
C617 C 0.5076 0.50044 0.47152 0.0
C618 C 0.51641 0.47305 0.43496 0.0
C619 C 0.52165 0.47645 0.35989 0.0
H620 H 0.96903 0.457 0.82821 0.0
H621 H 0.05449 0.51966 0.84021 0.0
H622 H 0.95998 0.46567 0.95537 0.0
H623 H 0.04642 0.52735 0.96954 0.0
H624 H 0.00352 0.56214 0.17395 0.0
H625 H 0.01178 0.55402 0.04512 0.0
H626 H 0.97904 0.45326 0.07884 0.0
H627 H 0.96956 0.46199 0.20598 0.0
C628 C 0.98632 0.47214 0.8587 0.0
C629 C 0.01256 0.48754 0.82437 0.0
C630 C 0.98119 0.47708 0.93193 0.0
C631 C 0.00239 0.49729 0.97327 0.0
C632 C 0.0292 0.51209 0.93924 0.0
C633 C 0.03414 0.50738 0.86543 0.0
C634 C 0.99761 0.53847 0.15319 0.0
C635 C 0.98564 0.51279 0.19975 0.0
C636 C 0.00276 0.53362 0.07964 0.0
C637 C 0.99632 0.50288 0.05121 0.0
C638 C 0.98385 0.47742 0.09799 0.0
C639 C 0.97843 0.48238 0.17113 0.0
loop_
_geom_bond_atom_site_label_1
_geom_bond_atom_site_label_2
_geom_bond_distance
_geom_bond_site_symmetry_2
_ccdc_geom_bond_type
Dy0 O4 2.398 1_655 S
Dy0 O5 2.491 1_565 S
Dy0 O6 2.403 1_655 S
Dy0 O7 2.664 1_655 S
Dy0 O11 2.326 1_665 S
Dy0 O15 2.310 1_565 S
Dy0 O16 2.351 . S
C1 O12 1.174 1_565 S
C1 O13 1.365 1_655 S
C2 O4 1.161 1_545 S
C2 O5 1.376 1_455 S
Dy3 O7 2.310 1_545 S
Dy3 O10 2.351 . S
Dy3 O12 2.398 1_455 S
Dy3 O13 2.491 1_545 S
Dy3 O14 2.403 1_455 S
Dy3 O15 2.664 1_455 S
Dy3 O17 2.326 1_445 S
O4 Dy0 2.398 1_455 S
O4 C2 1.161 1_565 S
O5 Dy0 2.491 1_545 S
O5 C2 1.376 1_655 S
O6 Dy0 2.403 1_455 S
O6 C8 1.254 . S
O7 Dy0 2.664 1_455 S
O7 Dy3 2.310 1_565 S
O7 C8 1.268 . S
C8 O6 1.254 . S
C8 O7 1.268 . S
C9 O14 1.254 . S
C9 O15 1.268 . S
O10 Dy3 2.351 . S
O10 C18 1.249 . S
O11 Dy0 2.326 1_445 S
O11 C18 1.267 . S
O12 C1 1.174 1_545 S
O12 Dy3 2.398 1_655 S
O13 C1 1.365 1_455 S
O13 Dy3 2.491 1_565 S
O14 Dy3 2.403 1_655 S
O14 C9 1.254 . S
O15 Dy0 2.310 1_545 S
O15 Dy3 2.664 1_655 S
O15 C9 1.268 . S
O16 Dy0 2.351 . S
O16 C19 1.249 . S
O17 Dy3 2.326 1_665 S
O17 C19 1.267 . S
C18 O10 1.249 . S
C18 O11 1.267 . S
C19 O16 1.249 . S
C19 O17 1.267 . S
Dy20 O24 2.398 . S
Dy20 O25 2.491 . S
Dy20 O26 2.403 . S
Dy20 O27 2.664 . S
Dy20 O31 2.326 . S
Dy20 O35 2.310 . S
Dy20 O36 2.351 . S
C21 O32 1.185 . S
C21 O33 1.355 . S
C22 O24 1.185 . S
C22 O25 1.355 . S
Dy23 O27 2.310 . S
Dy23 O30 2.351 . S
Dy23 O32 2.398 . S
Dy23 O33 2.491 . S
Dy23 O34 2.403 . S
Dy23 O35 2.664 . S
Dy23 O37 2.326 . S
O24 Dy20 2.398 . S
O24 C22 1.185 . S
O25 Dy20 2.491 . S
O25 C22 1.355 . S
O26 Dy20 2.403 . S
O26 C28 1.254 . S
O27 Dy20 2.664 . S
O27 Dy23 2.310 . S
O27 C28 1.268 . S
C28 O26 1.254 . S
C28 O27 1.268 . S
C29 O34 1.254 . S
C29 O35 1.268 . S
O30 Dy23 2.351 . S
O30 C38 1.249 . S
O31 Dy20 2.326 . S
O31 C38 1.267 . S
O32 C21 1.185 . S
O32 Dy23 2.398 . S
O33 C21 1.355 . S
O33 Dy23 2.491 . S
O34 Dy23 2.403 . S
O34 C29 1.254 . S
O35 Dy20 2.310 . S
O35 Dy23 2.664 . S
O35 C29 1.268 . S
O36 Dy20 2.351 . S
O36 C39 1.249 . S
O37 Dy23 2.326 . S
O37 C39 1.267 . S
C38 O30 1.249 . S
C38 O31 1.267 . S
C39 O36 1.249 . S
C39 O37 1.267 . S
Dy40 O44 2.398 . S
Dy40 O45 2.491 1_565 S
Dy40 O46 2.403 . S
Dy40 O47 2.664 1_554 S
Dy40 O51 2.326 1_565 S
Dy40 O55 2.310 1_565 S
Dy40 O56 2.351 . S
C41 O52 1.185 . S
C41 O53 1.355 1_545 S
C42 O44 1.185 . S
C42 O45 1.355 1_565 S
Dy43 O47 2.310 1_545 S
Dy43 O50 2.351 . S
Dy43 O52 2.398 . S
Dy43 O53 2.491 1_545 S
Dy43 O54 2.403 . S
Dy43 O55 2.664 1_556 S
Dy43 O57 2.326 1_545 S
O44 Dy40 2.398 . S
O44 C42 1.185 . S
O45 Dy40 2.491 1_545 S
O45 C42 1.355 1_545 S
O46 Dy40 2.403 . S
O46 C48 1.254 1_554 S
O47 Dy40 2.664 1_556 S
O47 Dy43 2.310 1_565 S
O47 C48 1.268 . S
C48 O46 1.254 1_556 S
C48 O47 1.268 . S
C49 O54 1.254 1_554 S
C49 O55 1.268 . S
O50 Dy43 2.351 . S
O50 C58 1.249 1_556 S
O51 Dy40 2.326 1_545 S
O51 C58 1.267 . S
O52 C41 1.185 . S
O52 Dy43 2.398 . S
O53 C41 1.355 1_565 S
O53 Dy43 2.491 1_565 S
O54 Dy43 2.403 . S
O54 C49 1.254 1_556 S
O55 Dy40 2.310 1_545 S
O55 Dy43 2.664 1_554 S
O55 C49 1.268 . S
O56 Dy40 2.351 . S
O56 C59 1.249 1_554 S
O57 Dy43 2.326 1_565 S
O57 C59 1.267 . S
C58 O50 1.249 1_554 S
C58 O51 1.267 . S
C59 O56 1.249 1_556 S
C59 O57 1.267 . S
Dy60 O64 2.398 . S
Dy60 O65 2.491 . S
Dy60 O66 2.403 . S
Dy60 O67 2.664 . S
Dy60 O71 2.326 . S
Dy60 O75 2.310 . S
Dy60 O76 2.351 . S
C61 O72 1.185 . S
C61 O73 1.355 . S
C62 O64 1.185 . S
C62 O65 1.355 . S
Dy63 O67 2.310 . S
Dy63 O70 2.351 . S
Dy63 O72 2.398 . S
Dy63 O73 2.491 . S
Dy63 O74 2.403 . S
Dy63 O75 2.664 . S
Dy63 O77 2.326 . S
O64 Dy60 2.398 . S
O64 C62 1.185 . S
O65 Dy60 2.491 . S
O65 C62 1.355 . S
O66 Dy60 2.403 . S
O66 C68 1.254 . S
O67 Dy60 2.664 . S
O67 Dy63 2.310 . S
O67 C68 1.268 . S
C68 O66 1.254 . S
C68 O67 1.268 . S
C69 O74 1.254 . S
C69 O75 1.268 . S
O70 Dy63 2.351 . S
O70 C78 1.249 . S
O71 Dy60 2.326 . S
O71 C78 1.267 . S
O72 C61 1.185 . S
O72 Dy63 2.398 . S
O73 C61 1.355 . S
O73 Dy63 2.491 . S
O74 Dy63 2.403 . S
O74 C69 1.254 . S
O75 Dy60 2.310 . S
O75 Dy63 2.664 . S
O75 C69 1.268 . S
O76 Dy60 2.351 . S
O76 C79 1.249 . S
O77 Dy63 2.326 . S
O77 C79 1.267 . S
C78 O70 1.249 . S
C78 O71 1.267 . S
C79 O76 1.249 . S
C79 O77 1.267 . S
Dy80 O84 2.398 . S
Dy80 O85 2.491 . S
Dy80 O86 2.403 . S
Dy80 O87 2.664 . S
Dy80 O91 2.326 . S
Dy80 O95 2.310 . S
Dy80 O96 2.351 . S
C81 O92 1.185 . S
C81 O93 1.355 . S
C82 O84 1.185 . S
C82 O85 1.355 . S
Dy83 O87 2.310 . S
Dy83 O90 2.351 . S
Dy83 O92 2.398 . S
Dy83 O93 2.491 . S
Dy83 O94 2.403 . S
Dy83 O95 2.664 . S
Dy83 O97 2.326 . S
O84 Dy80 2.398 . S
O84 C82 1.185 . S
O85 Dy80 2.491 . S
O85 C82 1.355 . S
O86 Dy80 2.403 . S
O86 C88 1.254 . S
O87 Dy80 2.664 . S
O87 Dy83 2.310 . S
O87 C88 1.268 . S
C88 O86 1.254 . S
C88 O87 1.268 . S
C89 O94 1.254 . S
C89 O95 1.268 . S
O90 Dy83 2.351 . S
O90 C98 1.249 . S
O91 Dy80 2.326 . S
O91 C98 1.267 . S
O92 C81 1.185 . S
O92 Dy83 2.398 . S
O93 C81 1.355 . S
O93 Dy83 2.491 . S
O94 Dy83 2.403 . S
O94 C89 1.254 . S
O95 Dy80 2.310 . S
O95 Dy83 2.664 . S
O95 C89 1.268 . S
O96 Dy80 2.351 . S
O96 C99 1.249 . S
O97 Dy83 2.326 . S
O97 C99 1.267 . S
C98 O90 1.249 . S
C98 O91 1.267 . S
C99 O96 1.249 . S
C99 O97 1.267 . S
Dy100 O104 2.398 . S
Dy100 O105 2.491 . S
Dy100 O106 2.403 . S
Dy100 O107 2.664 . S
Dy100 O111 2.326 . S
Dy100 O115 2.310 . S
Dy100 O116 2.351 . S
C101 O112 1.185 . S
C101 O113 1.355 . S
C102 O104 1.185 . S
C102 O105 1.355 . S
Dy103 O107 2.310 . S
Dy103 O110 2.351 . S
Dy103 O112 2.398 . S
Dy103 O113 2.491 . S
Dy103 O114 2.403 . S
Dy103 O115 2.664 . S
Dy103 O117 2.326 . S
O104 Dy100 2.398 . S
O104 C102 1.185 . S
O105 Dy100 2.491 . S
O105 C102 1.355 . S
O106 Dy100 2.403 . S
O106 C108 1.254 . S
O107 Dy100 2.664 . S
O107 Dy103 2.310 . S
O107 C108 1.268 . S
C108 O106 1.254 . S
C108 O107 1.268 . S
C109 O114 1.254 . S
C109 O115 1.268 . S
O110 Dy103 2.351 . S
O110 C118 1.249 . S
O111 Dy100 2.326 . S
O111 C118 1.267 . S
O112 C101 1.185 . S
O112 Dy103 2.398 . S
O113 C101 1.355 . S
O113 Dy103 2.491 . S
O114 Dy103 2.403 . S
O114 C109 1.254 . S
O115 Dy100 2.310 . S
O115 Dy103 2.664 . S
O115 C109 1.268 . S
O116 Dy100 2.351 . S
O116 C119 1.249 . S
O117 Dy103 2.326 . S
O117 C119 1.267 . S
C118 O110 1.249 . S
C118 O111 1.267 . S
C119 O116 1.249 . S
C119 O117 1.267 . S
Dy120 O124 2.398 . S
Dy120 O125 2.491 . S
Dy120 O126 2.403 . S
Dy120 O127 2.664 1_556 S
Dy120 O131 2.326 . S
Dy120 O135 2.310 . S
Dy120 O136 2.351 . S
C121 O132 1.185 . S
C121 O133 1.355 . S
C122 O124 1.185 . S
C122 O125 1.355 . S
Dy123 O127 2.310 . S
Dy123 O130 2.351 . S
Dy123 O132 2.398 . S
Dy123 O133 2.491 . S
Dy123 O134 2.403 . S
Dy123 O135 2.664 1_554 S
Dy123 O137 2.326 . S
O124 Dy120 2.398 . S
O124 C122 1.185 . S
O125 Dy120 2.491 . S
O125 C122 1.355 . S
O126 Dy120 2.403 . S
O126 C128 1.254 1_556 S
O127 Dy120 2.664 1_554 S
O127 Dy123 2.310 . S
O127 C128 1.268 . S
C128 O126 1.254 1_554 S
C128 O127 1.268 . S
C129 O134 1.254 1_556 S
C129 O135 1.268 . S
O130 Dy123 2.351 . S
O130 C138 1.249 1_554 S
O131 Dy120 2.326 . S
O131 C138 1.267 . S
O132 C121 1.185 . S
O132 Dy123 2.398 . S
O133 C121 1.355 . S
O133 Dy123 2.491 . S
O134 Dy123 2.403 . S
O134 C129 1.254 1_554 S
O135 Dy120 2.310 . S
O135 Dy123 2.664 1_556 S
O135 C129 1.268 . S
O136 Dy120 2.351 . S
O136 C139 1.249 1_556 S
O137 Dy123 2.326 . S
O137 C139 1.267 . S
C138 O130 1.249 1_556 S
C138 O131 1.267 . S
C139 O136 1.249 1_554 S
C139 O137 1.267 . S
Dy140 O144 2.398 1_455 S
Dy140 O145 2.491 . S
Dy140 O146 2.403 1_455 S
Dy140 O147 2.664 1_455 S
Dy140 O151 2.326 1_455 S
Dy140 O155 2.310 . S
Dy140 O156 2.351 . S
C141 O152 1.185 . S
C141 O153 1.355 1_455 S
C142 O144 1.185 . S
C142 O145 1.355 1_655 S
Dy143 O147 2.310 . S
Dy143 O150 2.351 . S
Dy143 O152 2.398 1_655 S
Dy143 O153 2.491 . S
Dy143 O154 2.403 1_655 S
Dy143 O155 2.664 1_655 S
Dy143 O157 2.326 1_655 S
O144 Dy140 2.398 1_655 S
O144 C142 1.185 . S
O145 Dy140 2.491 . S
O145 C142 1.355 1_455 S
O146 Dy140 2.403 1_655 S
O146 C148 1.254 . S
O147 Dy140 2.664 1_655 S
O147 Dy143 2.310 . S
O147 C148 1.268 . S
C148 O146 1.254 . S
C148 O147 1.268 . S
C149 O154 1.254 . S
C149 O155 1.268 . S
O150 Dy143 2.351 . S
O150 C158 1.249 . S
O151 Dy140 2.326 1_655 S
O151 C158 1.267 . S
O152 C141 1.185 . S
O152 Dy143 2.398 1_455 S
O153 C141 1.355 1_655 S
O153 Dy143 2.491 . S
O154 Dy143 2.403 1_455 S
O154 C149 1.254 . S
O155 Dy140 2.310 . S
O155 Dy143 2.664 1_455 S
O155 C149 1.268 . S
O156 Dy140 2.351 . S
O156 C159 1.249 . S
O157 Dy143 2.326 1_455 S
O157 C159 1.267 . S
C158 O150 1.249 . S
C158 O151 1.267 . S
C159 O156 1.249 . S
C159 O157 1.267 . S
H160 C168 0.950 . S
H161 C173 0.950 . S
H162 C170 0.950 . S
H163 C172 0.950 . S
H164 C174 0.950 . S
H165 C176 0.950 . S
H166 C178 0.950 . S
H167 C179 0.950 . S
C168 H160 0.950 . S
C168 C169 1.386 . S
C168 C170 1.391 . S
C169 C168 1.386 . S
C169 C173 1.393 . S
C170 H162 0.950 . S
C170 C168 1.391 . S
C170 C171 1.400 . S
C171 C170 1.400 . S
C171 C172 1.398 . S
C171 C177 1.491 . S
C172 H163 0.950 . S
C172 C171 1.398 . S
C172 C173 1.391 . S
C173 H161 0.950 . S
C173 C169 1.393 . S
C173 C172 1.391 . S
C174 H164 0.950 . S
C174 C175 1.386 . S
C174 C176 1.391 . S
C175 C174 1.386 . S
C175 C179 1.393 . S
C176 H165 0.950 . S
C176 C174 1.391 . S
C176 C177 1.400 . S
C177 C171 1.491 . S
C177 C176 1.400 . S
C177 C178 1.398 . S
C178 H166 0.950 . S
C178 C177 1.398 . S
C178 C179 1.391 . S
C179 H167 0.950 . S
C179 C175 1.393 . S
C179 C178 1.391 . S
H180 C188 0.950 . S
H181 C193 0.950 . S
H182 C190 0.950 . S
H183 C192 0.950 . S
H184 C194 0.950 . S
H185 C196 0.950 . S
H186 C198 0.950 . S
H187 C199 0.950 . S
C188 H180 0.950 . S
C188 C189 1.386 . S
C188 C190 1.391 . S
C189 C188 1.386 . S
C189 C193 1.393 . S
C190 H182 0.950 . S
C190 C188 1.391 . S
C190 C191 1.400 . S
C191 C190 1.400 . S
C191 C192 1.398 . S
C191 C197 1.491 . S
C192 H183 0.950 . S
C192 C191 1.398 . S
C192 C193 1.391 . S
C193 H181 0.950 . S
C193 C189 1.393 . S
C193 C192 1.391 . S
C194 H184 0.950 . S
C194 C195 1.386 . S
C194 C196 1.391 . S
C195 C194 1.386 . S
C195 C199 1.393 . S
C196 H185 0.950 . S
C196 C194 1.391 . S
C196 C197 1.400 . S
C197 C191 1.491 . S
C197 C196 1.400 . S
C197 C198 1.398 . S
C198 H186 0.950 . S
C198 C197 1.398 . S
C198 C199 1.391 . S
C199 H187 0.950 . S
C199 C195 1.393 . S
C199 C198 1.391 . S
H200 C208 0.950 . S
H201 C213 0.950 . S
H202 C210 0.950 . S
H203 C212 0.950 . S
H204 C214 0.950 . S
H205 C216 0.950 . S
H206 C218 0.950 1_554 S
H207 C219 0.940 1_554 S
C208 H200 0.950 . S
C208 C209 1.386 . S
C208 C210 1.391 . S
C209 C208 1.386 . S
C209 C213 1.393 . S
C210 H202 0.950 . S
C210 C208 1.391 . S
C210 C211 1.400 . S
C211 C210 1.400 . S
C211 C212 1.398 . S
C211 C217 1.491 . S
C212 H203 0.950 . S
C212 C211 1.398 . S
C212 C213 1.391 . S
C213 H201 0.950 . S
C213 C209 1.393 . S
C213 C212 1.391 . S
C214 H204 0.950 . S
C214 C215 1.386 . S
C214 C216 1.391 . S
C215 C214 1.386 . S
C215 C219 1.399 . S
C216 H205 0.950 . S
C216 C214 1.391 . S
C216 C217 1.400 . S
C217 C211 1.491 . S
C217 C216 1.400 . S
C217 C218 1.398 . S
C218 H206 0.950 1_556 S
C218 C217 1.398 . S
C218 C219 1.394 . S
C219 H207 0.940 1_556 S
C219 C215 1.399 . S
C219 C218 1.394 . S
H220 C228 0.950 . S
H221 C233 0.950 1_556 S
H222 C230 0.950 . S
H223 C232 0.950 . S
H224 C234 0.950 . S
H225 C236 0.950 . S
H226 C238 0.950 . S
H227 C239 0.950 . S
C228 H220 0.950 . S
C228 C229 1.386 . S
C228 C230 1.391 . S
C229 C228 1.386 . S
C229 C233 1.393 . S
C230 H222 0.950 . S
C230 C228 1.391 . S
C230 C231 1.400 . S
C231 C230 1.400 . S
C231 C232 1.398 . S
C231 C237 1.491 . S
C232 H223 0.950 . S
C232 C231 1.398 . S
C232 C233 1.391 . S
C233 H221 0.950 1_554 S
C233 C229 1.393 . S
C233 C232 1.391 . S
C234 H224 0.950 . S
C234 C235 1.386 . S
C234 C236 1.391 . S
C235 C234 1.386 . S
C235 C239 1.393 . S
C236 H225 0.950 . S
C236 C234 1.391 . S
C236 C237 1.400 . S
C237 C231 1.491 . S
C237 C236 1.400 . S
C237 C238 1.398 . S
C238 H226 0.950 . S
C238 C237 1.398 . S
C238 C239 1.391 . S
C239 H227 0.950 . S
C239 C235 1.393 . S
C239 C238 1.391 . S
H240 C248 0.950 . S
H241 C253 0.950 . S
H242 C250 0.950 . S
H243 C252 0.950 . S
H244 C254 0.950 . S
H245 C256 0.950 . S
H246 C258 0.950 . S
H247 C259 0.950 . S
C248 H240 0.950 . S
C248 C249 1.386 . S
C248 C250 1.391 . S
C249 C248 1.386 . S
C249 C253 1.393 . S
C250 H242 0.950 . S
C250 C248 1.391 . S
C250 C251 1.400 . S
C251 C250 1.400 . S
C251 C252 1.398 . S
C251 C257 1.491 . S
C252 H243 0.950 . S
C252 C251 1.398 . S
C252 C253 1.391 . S
C253 H241 0.950 . S
C253 C249 1.393 . S
C253 C252 1.391 . S
C254 H244 0.950 . S
C254 C255 1.386 . S
C254 C256 1.391 . S
C255 C254 1.386 . S
C255 C259 1.393 . S
C256 H245 0.950 . S
C256 C254 1.391 . S
C256 C257 1.400 . S
C257 C251 1.491 . S
C257 C256 1.400 . S
C257 C258 1.398 . S
C258 H246 0.950 . S
C258 C257 1.398 . S
C258 C259 1.391 . S
C259 H247 0.950 . S
C259 C255 1.393 . S
C259 C258 1.391 . S
H260 C268 0.950 . S
H261 C273 0.950 . S
H262 C270 0.950 . S
H263 C272 0.950 . S
H264 C274 0.950 . S
H265 C276 0.950 . S
H266 C278 0.950 . S
H267 C279 0.950 . S
C268 H260 0.950 . S
C268 C269 1.386 . S
C268 C270 1.391 . S
C269 C268 1.386 . S
C269 C273 1.393 . S
C270 H262 0.950 . S
C270 C268 1.391 . S
C270 C271 1.400 . S
C271 C270 1.400 . S
C271 C272 1.398 . S
C271 C277 1.491 . S
C272 H263 0.950 . S
C272 C271 1.398 . S
C272 C273 1.391 . S
C273 H261 0.950 . S
C273 C269 1.393 . S
C273 C272 1.391 . S
C274 H264 0.950 . S
C274 C275 1.386 . S
C274 C276 1.391 . S
C275 C274 1.386 . S
C275 C279 1.393 . S
C276 H265 0.950 . S
C276 C274 1.391 . S
C276 C277 1.400 . S
C277 C271 1.491 . S
C277 C276 1.400 . S
C277 C278 1.398 . S
C278 H266 0.950 . S
C278 C277 1.398 . S
C278 C279 1.391 . S
C279 H267 0.950 . S
C279 C275 1.393 . S
C279 C278 1.391 . S
H280 C288 0.950 . S
H281 C293 0.950 . S
H282 C290 0.950 . S
H283 C292 0.950 . S
H284 C294 0.950 . S
H285 C296 0.950 . S
H286 C298 0.950 . S
H287 C299 0.950 . S
C288 H280 0.950 . S
C288 C289 1.386 . S
C288 C290 1.391 . S
C289 C288 1.386 . S
C289 C293 1.393 . S
C290 H282 0.950 . S
C290 C288 1.391 . S
C290 C291 1.400 . S
C291 C290 1.400 . S
C291 C292 1.398 . S
C291 C297 1.491 . S
C292 H283 0.950 . S
C292 C291 1.398 . S
C292 C293 1.391 . S
C293 H281 0.950 . S
C293 C289 1.393 . S
C293 C292 1.391 . S
C294 H284 0.950 . S
C294 C295 1.386 . S
C294 C296 1.391 . S
C295 C294 1.386 . S
C295 C299 1.393 . S
C296 H285 0.950 . S
C296 C294 1.391 . S
C296 C297 1.400 . S
C297 C291 1.491 . S
C297 C296 1.400 . S
C297 C298 1.398 . S
C298 H286 0.950 . S
C298 C297 1.398 . S
C298 C299 1.391 . S
C299 H287 0.950 . S
C299 C295 1.393 . S
C299 C298 1.391 . S
H300 C308 0.950 . S
H301 C313 0.950 . S
H302 C310 0.950 . S
H303 C312 0.950 . S
H304 C314 0.950 . S
H305 C316 0.950 . S
H306 C318 0.950 . S
H307 C319 0.950 . S
C308 H300 0.950 . S
C308 C309 1.386 . S
C308 C310 1.391 . S
C309 C308 1.386 . S
C309 C313 1.393 . S
C310 H302 0.950 . S
C310 C308 1.391 . S
C310 C311 1.400 . S
C311 C310 1.400 . S
C311 C312 1.398 . S
C311 C317 1.491 . S
C312 H303 0.950 . S
C312 C311 1.398 . S
C312 C313 1.391 . S
C313 H301 0.950 . S
C313 C309 1.393 . S
C313 C312 1.391 . S
C314 H304 0.950 . S
C314 C315 1.386 . S
C314 C316 1.391 . S
C315 C314 1.386 . S
C315 C319 1.393 . S
C316 H305 0.950 . S
C316 C314 1.391 . S
C316 C317 1.400 . S
C317 C311 1.491 . S
C317 C316 1.400 . S
C317 C318 1.398 . S
C318 H306 0.950 . S
C318 C317 1.398 . S
C318 C319 1.391 . S
C319 H307 0.950 . S
C319 C315 1.393 . S
C319 C318 1.391 . S
H320 C328 0.950 . S
H321 C333 0.950 . S
H322 C330 0.950 . S
H323 C332 0.950 . S
H324 C334 0.950 . S
H325 C336 0.950 . S
H326 C338 0.950 . S
H327 C339 0.950 . S
C328 H320 0.950 . S
C328 C329 1.386 . S
C328 C330 1.391 . S
C329 C328 1.386 . S
C329 C333 1.393 . S
C330 H322 0.950 . S
C330 C328 1.391 . S
C330 C331 1.400 . S
C331 C330 1.400 . S
C331 C332 1.398 . S
C331 C337 1.491 . S
C332 H323 0.950 . S
C332 C331 1.398 . S
C332 C333 1.391 . S
C333 H321 0.950 . S
C333 C329 1.393 . S
C333 C332 1.391 . S
C334 H324 0.950 . S
C334 C335 1.386 . S
C334 C336 1.391 . S
C335 C334 1.386 . S
C335 C339 1.393 . S
C336 H325 0.950 . S
C336 C334 1.391 . S
C336 C337 1.400 . S
C337 C331 1.491 . S
C337 C336 1.400 . S
C337 C338 1.398 . S
C338 H326 0.950 . S
C338 C337 1.398 . S
C338 C339 1.391 . S
C339 H327 0.950 . S
C339 C335 1.393 . S
C339 C338 1.391 . S
H340 C348 0.950 . S
H341 C353 0.950 . S
H342 C350 0.950 . S
H343 C352 0.950 . S
H344 C354 0.950 1_556 S
H345 C356 0.950 . S
H346 C358 0.950 . S
H347 C359 0.950 . S
C348 H340 0.950 . S
C348 C349 1.386 . S
C348 C350 1.391 . S
C349 C348 1.386 . S
C349 C353 1.393 . S
C350 H342 0.950 . S
C350 C348 1.391 . S
C350 C351 1.400 . S
C351 C350 1.400 . S
C351 C352 1.398 . S
C351 C357 1.491 . S
C352 H343 0.950 . S
C352 C351 1.398 . S
C352 C353 1.391 . S
C353 H341 0.950 . S
C353 C349 1.393 . S
C353 C352 1.391 . S
C354 H344 0.950 1_554 S
C354 C355 1.386 . S
C354 C356 1.391 . S
C355 C354 1.386 . S
C355 C359 1.393 . S
C356 H345 0.950 . S
C356 C354 1.391 . S
C356 C357 1.400 . S
C357 C351 1.491 . S
C357 C356 1.400 . S
C357 C358 1.398 . S
C358 H346 0.950 . S
C358 C357 1.398 . S
C358 C359 1.391 . S
C359 H347 0.950 . S
C359 C355 1.393 . S
C359 C358 1.391 . S
H360 C368 0.950 . S
H361 C373 0.950 . S
H362 C370 0.950 . S
H363 C372 0.950 . S
H364 C374 0.950 . S
H365 C376 0.950 . S
H366 C378 0.950 . S
H367 C379 0.950 . S
C368 H360 0.950 . S
C368 C369 1.386 . S
C368 C370 1.391 . S
C369 C368 1.386 . S
C369 C373 1.393 . S
C370 H362 0.950 . S
C370 C368 1.391 . S
C370 C371 1.400 . S
C371 C370 1.400 . S
C371 C372 1.398 . S
C371 C377 1.491 . S
C372 H363 0.950 . S
C372 C371 1.398 . S
C372 C373 1.391 . S
C373 H361 0.950 . S
C373 C369 1.393 . S
C373 C372 1.391 . S
C374 H364 0.950 . S
C374 C375 1.386 . S
C374 C376 1.391 . S
C375 C374 1.386 . S
C375 C379 1.393 . S
C376 H365 0.950 . S
C376 C374 1.391 . S
C376 C377 1.400 . S
C377 C371 1.491 . S
C377 C376 1.400 . S
C377 C378 1.398 . S
C378 H366 0.950 . S
C378 C377 1.398 . S
C378 C379 1.391 . S
C379 H367 0.950 . S
C379 C375 1.393 . S
C379 C378 1.391 . S
H380 C388 0.950 . S
H381 C393 0.950 . S
H382 C390 0.950 . S
H383 C392 0.950 . S
H384 C394 0.950 . S
H385 C396 0.950 . S
H386 C398 0.950 . S
H387 C399 0.950 . S
C388 H380 0.950 . S
C388 C389 1.386 . S
C388 C390 1.391 . S
C389 C388 1.386 . S
C389 C393 1.393 . S
C390 H382 0.950 . S
C390 C388 1.391 . S
C390 C391 1.400 . S
C391 C390 1.400 . S
C391 C392 1.398 . S
C391 C397 1.491 . S
C392 H383 0.950 . S
C392 C391 1.398 . S
C392 C393 1.391 . S
C393 H381 0.950 . S
C393 C389 1.393 . S
C393 C392 1.391 . S
C394 H384 0.950 . S
C394 C395 1.386 . S
C394 C396 1.391 . S
C395 C394 1.386 . S
C395 C399 1.393 . S
C396 H385 0.950 . S
C396 C394 1.391 . S
C396 C397 1.400 . S
C397 C391 1.491 . S
C397 C396 1.400 . S
C397 C398 1.398 . S
C398 H386 0.950 . S
C398 C397 1.398 . S
C398 C399 1.391 . S
C399 H387 0.950 . S
C399 C395 1.393 . S
C399 C398 1.391 . S
H400 C408 0.950 . S
H401 C413 0.950 . S
H402 C410 0.950 . S
H403 C412 0.950 . S
H404 C414 0.950 . S
H405 C416 0.950 . S
H406 C418 0.950 . S
H407 C419 0.950 . S
C408 H400 0.950 . S
C408 C409 1.386 . S
C408 C410 1.391 . S
C409 C408 1.386 . S
C409 C413 1.393 . S
C410 H402 0.950 . S
C410 C408 1.391 . S
C410 C411 1.400 . S
C411 C410 1.400 . S
C411 C412 1.398 . S
C411 C417 1.491 . S
C412 H403 0.950 . S
C412 C411 1.398 . S
C412 C413 1.391 . S
C413 H401 0.950 . S
C413 C409 1.393 . S
C413 C412 1.391 . S
C414 H404 0.950 . S
C414 C415 1.386 . S
C414 C416 1.391 . S
C415 C414 1.386 . S
C415 C419 1.393 . S
C416 H405 0.950 . S
C416 C414 1.391 . S
C416 C417 1.400 . S
C417 C411 1.491 . S
C417 C416 1.400 . S
C417 C418 1.398 . S
C418 H406 0.950 . S
C418 C417 1.398 . S
C418 C419 1.391 . S
C419 H407 0.950 . S
C419 C415 1.393 . S
C419 C418 1.391 . S
H420 C428 0.950 1_554 S
H421 C433 0.950 . S
H422 C430 0.950 . S
H423 C432 0.950 . S
H424 C434 0.950 . S
H425 C436 0.950 . S
H426 C438 0.950 . S
H427 C439 0.950 . S
C428 H420 0.950 1_556 S
C428 C429 1.386 . S
C428 C430 1.391 . S
C429 C428 1.386 . S
C429 C433 1.393 . S
C430 H422 0.950 . S
C430 C428 1.391 . S
C430 C431 1.400 . S
C431 C430 1.400 . S
C431 C432 1.398 . S
C431 C437 1.491 . S
C432 H423 0.950 . S
C432 C431 1.398 . S
C432 C433 1.391 . S
C433 H421 0.950 . S
C433 C429 1.393 . S
C433 C432 1.391 . S
C434 H424 0.950 . S
C434 C435 1.386 . S
C434 C436 1.391 . S
C435 C434 1.386 . S
C435 C439 1.393 . S
C436 H425 0.950 . S
C436 C434 1.391 . S
C436 C437 1.400 . S
C437 C431 1.491 . S
C437 C436 1.400 . S
C437 C438 1.398 . S
C438 H426 0.950 . S
C438 C437 1.398 . S
C438 C439 1.391 . S
C439 H427 0.950 . S
C439 C435 1.393 . S
C439 C438 1.391 . S
H440 C448 0.950 . S
H441 C453 0.950 . S
H442 C450 0.950 . S
H443 C452 0.950 . S
H444 C454 0.950 . S
H445 C456 0.950 . S
H446 C458 0.950 . S
H447 C459 0.950 . S
C448 H440 0.950 . S
C448 C449 1.386 . S
C448 C450 1.391 . S
C449 C448 1.386 . S
C449 C453 1.393 . S
C450 H442 0.950 . S
C450 C448 1.391 . S
C450 C451 1.400 . S
C451 C450 1.400 . S
C451 C452 1.398 . S
C451 C457 1.491 . S
C452 H443 0.950 . S
C452 C451 1.398 . S
C452 C453 1.391 . S
C453 H441 0.950 . S
C453 C449 1.393 . S
C453 C452 1.391 . S
C454 H444 0.950 . S
C454 C455 1.386 . S
C454 C456 1.391 . S
C455 C454 1.386 . S
C455 C459 1.393 . S
C456 H445 0.950 . S
C456 C454 1.391 . S
C456 C457 1.400 . S
C457 C451 1.491 . S
C457 C456 1.400 . S
C457 C458 1.398 . S
C458 H446 0.950 . S
C458 C457 1.398 . S
C458 C459 1.391 . S
C459 H447 0.950 . S
C459 C455 1.393 . S
C459 C458 1.391 . S
H460 C468 0.950 . S
H461 C473 0.950 . S
H462 C470 0.950 . S
H463 C472 0.950 . S
H464 C474 0.950 . S
H465 C476 0.950 . S
H466 C478 0.950 . S
H467 C479 0.950 . S
C468 H460 0.950 . S
C468 C469 1.386 . S
C468 C470 1.391 . S
C469 C468 1.386 . S
C469 C473 1.393 . S
C470 H462 0.950 . S
C470 C468 1.391 . S
C470 C471 1.400 . S
C471 C470 1.400 . S
C471 C472 1.398 . S
C471 C477 1.491 . S
C472 H463 0.950 . S
C472 C471 1.398 . S
C472 C473 1.391 . S
C473 H461 0.950 . S
C473 C469 1.393 . S
C473 C472 1.391 . S
C474 H464 0.950 . S
C474 C475 1.386 . S
C474 C476 1.391 . S
C475 C474 1.386 . S
C475 C479 1.393 . S
C476 H465 0.950 . S
C476 C474 1.391 . S
C476 C477 1.400 . S
C477 C471 1.491 . S
C477 C476 1.400 . S
C477 C478 1.398 . S
C478 H466 0.950 . S
C478 C477 1.398 . S
C478 C479 1.391 . S
C479 H467 0.950 . S
C479 C475 1.393 . S
C479 C478 1.391 . S
H480 C488 0.950 . S
H481 C493 0.950 . S
H482 C490 0.950 . S
H483 C492 0.950 . S
H484 C494 0.950 . S
H485 C496 0.950 . S
H486 C498 0.950 . S
H487 C499 0.950 . S
C488 H480 0.950 . S
C488 C489 1.386 1_545 S
C488 C490 1.391 . S
C489 C488 1.386 1_565 S
C489 C493 1.393 1_655 S
C490 H482 0.950 . S
C490 C488 1.391 . S
C490 C491 1.400 1_545 S
C491 C490 1.400 1_565 S
C491 C492 1.398 1_655 S
C491 C497 1.491 1_666 S
C492 H483 0.950 . S
C492 C491 1.398 1_455 S
C492 C493 1.391 . S
C493 H481 0.950 . S
C493 C489 1.393 1_455 S
C493 C492 1.391 . S
C494 H484 0.950 . S
C494 C495 1.386 1_565 S
C494 C496 1.391 . S
C495 C494 1.386 1_545 S
C495 C499 1.393 1_455 S
C496 H485 0.950 . S
C496 C494 1.391 . S
C496 C497 1.400 1_565 S
C497 C491 1.491 1_444 S
C497 C496 1.400 1_545 S
C497 C498 1.398 1_455 S
C498 H486 0.950 . S
C498 C497 1.398 1_655 S
C498 C499 1.391 . S
C499 H487 0.950 . S
C499 C495 1.393 1_655 S
C499 C498 1.391 . S
H500 C508 0.950 . S
H501 C513 0.950 . S
H502 C510 0.950 . S
H503 C512 0.950 . S
H504 C514 0.950 . S
H505 C516 0.950 . S
H506 C518 0.950 . S
H507 C519 0.950 . S
C508 H500 0.950 . S
C508 C509 1.386 . S
C508 C510 1.391 . S
C509 C508 1.386 . S
C509 C513 1.393 . S
C510 H502 0.950 . S
C510 C508 1.391 . S
C510 C511 1.400 . S
C511 C510 1.400 . S
C511 C512 1.398 . S
C511 C517 1.491 . S
C512 H503 0.950 . S
C512 C511 1.398 . S
C512 C513 1.391 . S
C513 H501 0.950 . S
C513 C509 1.393 . S
C513 C512 1.391 . S
C514 H504 0.950 . S
C514 C515 1.386 . S
C514 C516 1.391 . S
C515 C514 1.386 . S
C515 C519 1.393 . S
C516 H505 0.950 . S
C516 C514 1.391 . S
C516 C517 1.400 . S
C517 C511 1.491 . S
C517 C516 1.400 . S
C517 C518 1.398 . S
C518 H506 0.950 . S
C518 C517 1.398 . S
C518 C519 1.391 . S
C519 H507 0.950 . S
C519 C515 1.393 . S
C519 C518 1.391 . S
H520 C528 0.950 . S
H521 C533 0.950 . S
H522 C530 0.950 . S
H523 C532 0.950 . S
H524 C534 0.950 . S
H525 C536 0.950 . S
H526 C538 0.950 . S
H527 C539 0.950 . S
C528 H520 0.950 . S
C528 C529 1.386 . S
C528 C530 1.391 . S
C529 C528 1.386 . S
C529 C533 1.393 1_545 S
C530 H522 0.950 . S
C530 C528 1.391 . S
C530 C531 1.400 . S
C531 C530 1.400 . S
C531 C532 1.398 1_545 S
C531 C537 1.491 1_545 S
C532 H523 0.950 . S
C532 C531 1.398 1_565 S
C532 C533 1.391 . S
C533 H521 0.950 . S
C533 C529 1.393 1_565 S
C533 C532 1.391 . S
C534 H524 0.950 . S
C534 C535 1.386 . S
C534 C536 1.391 . S
C535 C534 1.386 . S
C535 C539 1.393 1_565 S
C536 H525 0.950 . S
C536 C534 1.391 . S
C536 C537 1.400 . S
C537 C531 1.491 1_565 S
C537 C536 1.400 . S
C537 C538 1.398 1_565 S
C538 H526 0.950 . S
C538 C537 1.398 1_545 S
C538 C539 1.391 . S
C539 H527 0.950 . S
C539 C535 1.393 1_545 S
C539 C538 1.391 . S
H540 C548 0.950 . S
H541 C553 0.950 . S
H542 C550 0.950 . S
H543 C552 0.950 . S
H544 C554 0.950 . S
H545 C556 0.950 . S
H546 C558 0.950 . S
H547 C559 0.950 . S
C548 H540 0.950 . S
C548 C549 1.386 . S
C548 C550 1.391 . S
C549 C548 1.386 . S
C549 C553 1.393 . S
C550 H542 0.950 . S
C550 C548 1.391 . S
C550 C551 1.400 . S
C551 C550 1.400 . S
C551 C552 1.398 . S
C551 C557 1.491 . S
C552 H543 0.950 . S
C552 C551 1.398 . S
C552 C553 1.391 . S
C553 H541 0.950 . S
C553 C549 1.393 . S
C553 C552 1.391 . S
C554 H544 0.950 . S
C554 C555 1.386 . S
C554 C556 1.391 . S
C555 C554 1.386 . S
C555 C559 1.393 . S
C556 H545 0.950 . S
C556 C554 1.391 . S
C556 C557 1.400 . S
C557 C551 1.491 . S
C557 C556 1.400 . S
C557 C558 1.398 . S
C558 H546 0.950 . S
C558 C557 1.398 . S
C558 C559 1.391 . S
C559 H547 0.950 . S
C559 C555 1.393 . S
C559 C558 1.391 . S
H560 C568 0.950 . S
H561 C573 0.950 . S
H562 C570 0.950 . S
H563 C572 0.950 . S
H564 C574 0.950 . S
H565 C576 0.950 . S
H566 C578 0.950 . S
H567 C579 0.950 . S
C568 H560 0.950 . S
C568 C569 1.386 . S
C568 C570 1.391 . S
C569 C568 1.386 . S
C569 C573 1.393 . S
C570 H562 0.950 . S
C570 C568 1.391 . S
C570 C571 1.400 . S
C571 C570 1.400 . S
C571 C572 1.398 . S
C571 C577 1.491 . S
C572 H563 0.950 . S
C572 C571 1.398 . S
C572 C573 1.391 . S
C573 H561 0.950 . S
C573 C569 1.393 . S
C573 C572 1.391 . S
C574 H564 0.950 . S
C574 C575 1.386 . S
C574 C576 1.391 . S
C575 C574 1.386 . S
C575 C579 1.393 . S
C576 H565 0.950 . S
C576 C574 1.391 . S
C576 C577 1.400 . S
C577 C571 1.491 . S
C577 C576 1.400 . S
C577 C578 1.398 . S
C578 H566 0.950 . S
C578 C577 1.398 . S
C578 C579 1.391 . S
C579 H567 0.950 . S
C579 C575 1.393 . S
C579 C578 1.391 . S
H580 C588 0.950 . S
H581 C593 0.950 . S
H582 C590 0.950 . S
H583 C592 0.950 . S
H584 C594 0.950 . S
H585 C596 0.950 . S
H586 C598 0.950 . S
H587 C599 0.950 . S
C588 H580 0.950 . S
C588 C589 1.386 . S
C588 C590 1.391 . S
C589 C588 1.386 . S
C589 C593 1.393 . S
C590 H582 0.950 . S
C590 C588 1.391 . S
C590 C591 1.400 . S
C591 C590 1.400 . S
C591 C592 1.398 . S
C591 C597 1.491 . S
C592 H583 0.950 . S
C592 C591 1.398 . S
C592 C593 1.391 . S
C593 H581 0.950 . S
C593 C589 1.393 . S
C593 C592 1.391 . S
C594 H584 0.950 . S
C594 C595 1.386 . S
C594 C596 1.391 . S
C595 C594 1.386 . S
C595 C599 1.393 . S
C596 H585 0.950 . S
C596 C594 1.391 . S
C596 C597 1.400 . S
C597 C591 1.491 . S
C597 C596 1.400 . S
C597 C598 1.398 . S
C598 H586 0.950 . S
C598 C597 1.398 . S
C598 C599 1.391 . S
C599 H587 0.950 . S
C599 C595 1.393 . S
C599 C598 1.391 . S
H600 C608 0.950 . S
H601 C613 0.950 . S
H602 C610 0.950 . S
H603 C612 0.950 . S
H604 C614 0.950 . S
H605 C616 0.950 . S
H606 C618 0.950 . S
H607 C619 0.950 . S
C608 H600 0.950 . S
C608 C609 1.386 . S
C608 C610 1.391 . S
C609 C608 1.386 . S
C609 C613 1.393 . S
C610 H602 0.950 . S
C610 C608 1.391 . S
C610 C611 1.400 . S
C611 C610 1.400 . S
C611 C612 1.398 . S
C611 C617 1.491 . S
C612 H603 0.950 . S
C612 C611 1.398 . S
C612 C613 1.391 . S
C613 H601 0.950 . S
C613 C609 1.393 . S
C613 C612 1.391 . S
C614 H604 0.950 . S
C614 C615 1.386 . S
C614 C616 1.391 . S
C615 C614 1.386 . S
C615 C619 1.393 . S
C616 H605 0.950 . S
C616 C614 1.391 . S
C616 C617 1.400 . S
C617 C611 1.491 . S
C617 C616 1.400 . S
C617 C618 1.398 . S
C618 H606 0.950 . S
C618 C617 1.398 . S
C618 C619 1.391 . S
C619 H607 0.950 . S
C619 C615 1.393 . S
C619 C618 1.391 . S
H620 C628 0.950 . S
H621 C633 0.950 . S
H622 C630 0.950 1_455 S
H623 C632 0.950 . S
H624 C634 0.950 . S
H625 C636 0.950 1_655 S
H626 C638 0.950 . S
H627 C639 0.950 . S
C628 H620 0.950 . S
C628 C629 1.386 . S
C628 C630 1.391 . S
C629 C628 1.386 . S
C629 C633 1.393 . S
C630 H622 0.950 1_655 S
C630 C628 1.391 . S
C630 C631 1.400 . S
C631 C630 1.400 . S
C631 C632 1.398 . S
C631 C637 1.491 1_656 S
C632 H623 0.950 . S
C632 C631 1.398 . S
C632 C633 1.391 . S
C633 H621 0.950 . S
C633 C629 1.393 . S
C633 C632 1.391 . S
C634 H624 0.950 . S
C634 C635 1.386 . S
C634 C636 1.391 . S
C635 C634 1.386 . S
C635 C639 1.393 . S
C636 H625 0.950 1_455 S
C636 C634 1.391 . S
C636 C637 1.400 . S
C637 C631 1.491 1_454 S
C637 C636 1.400 . S
C637 C638 1.398 . S
C638 H626 0.950 . S
C638 C637 1.398 . S
C638 C639 1.391 . S
C639 H627 0.950 . S
C639 C635 1.393 . S
C639 C638 1.391 . S
C169 C18 1.513 . S
C175 C68 1.499 . S
C189 C8 1.147 . S
C195 C28 1.152 . S
C209 C38 1.511 . S
C215 C48 1.499 . S
C229 C58 1.809 . S
C235 C78 1.803 . S
C249 C19 1.512 . S
C255 C109 1.503 . S
C269 C9 1.130 . S
C275 C89 1.145 . S
C289 C99 1.503 . S
C295 C49 1.488 . S
C309 C119 1.804 . S
C315 C59 1.809 . S
C329 C138 1.512 . S
C335 C108 1.501 . S
C349 C88 1.154 . S
C355 C128 1.145 . S
C369 C148 1.483 . S
C375 C98 1.502 . S
C389 C118 1.802 . S
C395 C158 1.804 . S
C409 C69 1.483 . S
C415 C139 1.499 . S
C429 C129 1.134 . S
C435 C29 1.148 . S
C449 C39 1.507 . S
C455 C149 1.490 . S
C469 C79 1.800 . S
C475 C159 1.805 . S
C489 C1 1.468 . S
C495 C2 1.469 . S
C509 C21 1.457 . S
C515 C22 1.457 1_554 S
C529 C41 1.492 . S
C535 C42 1.492 . S
C549 C62 1.500 1_556 S
C555 C61 1.500 . S
C569 C81 1.460 1_556 S
C575 C82 1.460 . S
C589 C102 1.499 . S
C595 C101 1.499 1_554 S
C609 C122 1.449 . S
C615 C121 1.449 . S
C629 C142 1.483 . S
C635 C141 1.483 . S
