# Generated by pormake.
# Topology smu, (6)-cn, num edge types: 1
# Building blocks:
#     Node 0, Type 0, BuildingBlock: JUFBIX_clean_sbu_0, # of connection points: 6
#     Node 1, Type 0, BuildingBlock: JUFBIX_clean_sbu_0, # of connection points: 6
#     Node 2, Type 0, BuildingBlock: JUFBIX_clean_sbu_0, # of connection points: 6
#     Node 3, Type 0, BuildingBlock: JUFBIX_clean_sbu_0, # of connection points: 6
#     Node 4, Type 0, BuildingBlock: JUFBIX_clean_sbu_0, # of connection points: 6
#     Node 5, Type 0, BuildingBlock: JUFBIX_clean_sbu_0, # of connection points: 6
#     Edge 6, Type (0, 0), BuildingBlock: UVAHIK_clean_linker_0, # of connection points: 2
#     Edge 7, Type (0, 0), BuildingBlock: UVAHIK_clean_linker_0, # of connection points: 2
#     Edge 8, Type (0, 0), BuildingBlock: UVAHIK_clean_linker_0, # of connection points: 2
#     Edge 9, Type (0, 0), BuildingBlock: UVAHIK_clean_linker_0, # of connection points: 2
#     Edge 10, Type (0, 0), BuildingBlock: UVAHIK_clean_linker_0, # of connection points: 2
#     Edge 11, Type (0, 0), BuildingBlock: UVAHIK_clean_linker_0, # of connection points: 2
#     Edge 12, Type (0, 0), BuildingBlock: UVAHIK_clean_linker_0, # of connection points: 2
#     Edge 13, Type (0, 0), BuildingBlock: UVAHIK_clean_linker_0, # of connection points: 2
#     Edge 14, Type (0, 0), BuildingBlock: UVAHIK_clean_linker_0, # of connection points: 2
#     Edge 15, Type (0, 0), BuildingBlock: UVAHIK_clean_linker_0, # of connection points: 2
#     Edge 16, Type (0, 0), BuildingBlock: UVAHIK_clean_linker_0, # of connection points: 2
#     Edge 17, Type (0, 0), BuildingBlock: UVAHIK_clean_linker_0, # of connection points: 2
#     Edge 18, Type (0, 0), BuildingBlock: UVAHIK_clean_linker_0, # of connection points: 2
#     Edge 19, Type (0, 0), BuildingBlock: UVAHIK_clean_linker_0, # of connection points: 2
#     Edge 20, Type (0, 0), BuildingBlock: UVAHIK_clean_linker_0, # of connection points: 2
#     Edge 21, Type (0, 0), BuildingBlock: UVAHIK_clean_linker_0, # of connection points: 2
#     Edge 22, Type (0, 0), BuildingBlock: UVAHIK_clean_linker_0, # of connection points: 2
#     Edge 23, Type (0, 0), BuildingBlock: UVAHIK_clean_linker_0, # of connection points: 2
# Relax obj value: 0.404
# Max RMSD: 0.297
# Mean RMSD: 0.296
data_MOF--net-smu--node1-JUFBIX_clean_sbu_0--edge1-UVAHIK_clean_linker_0
_symmetry_space_group_name_H-M    P1
_symmetry_Int_Tables_number       1
_symmetry_cell_setting            triclinic
loop_
_symmetry_equiv_pos_as_xyz
'x, y, z'
_cell_length_a     39.70514
_cell_length_b     39.710384
_cell_length_c     37.091972
_cell_angle_alpha  91.663477
_cell_angle_beta   89.692752
_cell_angle_gamma 119.95246
loop_
_atom_site_label
_atom_site_type_symbol
_atom_site_fract_x
_atom_site_fract_y
_atom_site_fract_z
_atom_type_partial_charge
Co0 Co 0.32676 0.03657 0.26872 0.0
C1 C 0.3595 0.07506 0.20594 0.0
Co2 Co 0.37398 0.0971 0.27873 0.0
C3 C 0.24799 0.97615 0.2698 0.0
C4 C 0.28165 0.95788 0.23841 0.0
N5 N 0.28467 0.98744 0.25966 0.0
N6 N 0.222 0.9414 0.25505 0.0
C7 C 0.24297 0.92936 0.23557 0.0
H8 H 0.24012 0.99386 0.28656 0.0
H9 H 0.30562 0.95805 0.22424 0.0
C10 C 0.34036 0.05477 0.34112 0.0
N11 N 0.41553 0.14661 0.28844 0.0
C12 C 0.42275 0.18118 0.27583 0.0
C13 C 0.44509 0.15543 0.31155 0.0
N14 N 0.45578 0.21116 0.2901 0.0
C15 C 0.46987 0.19494 0.31254 0.0
C16 C 0.30439 0.09437 0.27335 0.0
O17 O 0.31928 0.02859 0.31806 0.0
O18 O 0.3663 0.08803 0.33046 0.0
O19 O 0.34026 0.11706 0.27933 0.0
O20 O 0.29224 0.05827 0.26791 0.0
O21 O 0.38073 0.1044 0.22669 0.0
H22 H 0.44821 0.13446 0.32703 0.0
H23 H 0.40424 0.18423 0.25644 0.0
O24 O 0.33429 0.04352 0.21945 0.0
O25 O 0.36231 0.01654 0.26933 0.0
O26 O 0.40815 0.07747 0.27799 0.0
C27 C 0.3981 0.04193 0.27368 0.0
H28 H 0.23099 0.9032 0.21863 0.0
H29 H 0.49585 0.21057 0.32908 0.0
Co30 Co 0.7612 0.66092 0.24292 0.0
C31 C 0.73458 0.68268 0.18238 0.0
Co32 Co 0.73284 0.69602 0.25508 0.0
C33 C 0.79178 0.60579 0.24636 0.0
C34 C 0.80718 0.64047 0.19952 0.0
N35 N 0.78631 0.63291 0.23007 0.0
N36 N 0.81476 0.59606 0.22661 0.0
C37 C 0.82434 0.61806 0.19728 0.0
H38 H 0.77958 0.59382 0.27221 0.0
H39 H 0.81106 0.66215 0.18041 0.0
C40 C 0.75794 0.6763 0.31604 0.0
N41 N 0.71108 0.72695 0.26592 0.0
C42 C 0.72473 0.7628 0.25297 0.0
C43 C 0.68592 0.72395 0.29185 0.0
N44 N 0.71046 0.78317 0.27043 0.0
C45 C 0.68557 0.75856 0.29478 0.0
C46 C 0.68196 0.6162 0.25178 0.0
O47 O 0.77063 0.65945 0.29453 0.0
O48 O 0.74045 0.6928 0.30358 0.0
O49 O 0.68304 0.64872 0.25677 0.0
O50 O 0.7131 0.61534 0.24591 0.0
O51 O 0.72497 0.69969 0.20615 0.0
H52 H 0.67107 0.69943 0.30922 0.0
H53 H 0.74753 0.77495 0.23316 0.0
O54 O 0.75058 0.66349 0.19228 0.0
O55 O 0.8092 0.70637 0.23949 0.0
O56 O 0.78336 0.74228 0.25374 0.0
C57 C 0.81295 0.7395 0.24558 0.0
H58 H 0.84378 0.61911 0.1762 0.0
H59 H 0.66988 0.76563 0.3147 0.0
Co60 Co 0.97145 0.27854 0.26974 0.0
C61 C 0.92518 0.26679 0.2105 0.0
Co62 Co 0.91218 0.26515 0.28523 0.0
C63 C 0.03765 0.26773 0.26786 0.0
C64 C 0.04571 0.31356 0.23362 0.0
N65 N 0.02086 0.28829 0.25746 0.0
N66 N 0.07166 0.27855 0.25107 0.0
C67 C 0.07692 0.3076 0.22958 0.0
H68 H 0.02411 0.24386 0.28611 0.0
H69 H 0.04073 0.33393 0.21908 0.0
C70 C 0.96197 0.27946 0.344 0.0
N71 N 0.86235 0.25389 0.29808 0.0
C72 C 0.8277 0.22437 0.28604 0.0
C73 C 0.85339 0.27162 0.32491 0.0
N74 N 0.79761 0.2227 0.30474 0.0
C75 C 0.81372 0.25247 0.32914 0.0
C76 C 0.91847 0.19943 0.27806 0.0
O77 O 0.98534 0.28381 0.31875 0.0
O78 O 0.92711 0.27017 0.33591 0.0
O79 O 0.89567 0.21219 0.28541 0.0
O80 O 0.95354 0.22326 0.27001 0.0
O81 O 0.89915 0.26144 0.23372 0.0
H82 H 0.87447 0.29618 0.34114 0.0
H83 H 0.82472 0.20343 0.26513 0.0
O84 O 0.95836 0.27385 0.22108 0.0
O85 O 0.98763 0.33377 0.26922 0.0
O86 O 0.92826 0.31779 0.28557 0.0
C87 C 0.96244 0.34363 0.27775 0.0
H88 H 0.10116 0.32297 0.21165 0.0
H89 H 0.79794 0.25956 0.34896 0.0
Co90 Co 0.10381 0.36737 0.7864 0.0
C91 C 0.05654 0.33288 0.84656 0.0
Co92 Co 0.0451 0.31855 0.77304 0.0
C93 C 0.18715 0.41555 0.78197 0.0
C94 C 0.16422 0.43257 0.82682 0.0
N95 N 0.15346 0.40754 0.79816 0.0
N96 N 0.21841 0.44415 0.79969 0.0
C97 C 0.20416 0.45493 0.82797 0.0
H98 H 0.18884 0.39958 0.75853 0.0
H99 H 0.14436 0.43379 0.84619 0.0
C100 C 0.08918 0.35095 0.71255 0.0
N101 N 0.99632 0.27762 0.76083 0.0
C102 C 0.98073 0.2407 0.77169 0.0
C103 C 0.97275 0.27596 0.73392 0.0
N104 N 0.94909 0.21591 0.75199 0.0
C105 C 0.94384 0.2379 0.7282 0.0
C106 C 0.05108 0.39176 0.77706 0.0
O107 O 0.11524 0.37461 0.73483 0.0
O108 O 0.05722 0.32446 0.72431 0.0
O109 O 0.02688 0.3559 0.7701 0.0
O110 O 0.08592 0.40226 0.78528 0.0
O111 O 0.03227 0.31183 0.82216 0.0
H112 H 0.97798 0.30029 0.71771 0.0
H113 H 0.99426 0.2316 0.79149 0.0
O114 O 0.09044 0.35929 0.83743 0.0
O115 O 0.12244 0.33259 0.78769 0.0
O116 O 0.06488 0.28287 0.77552 0.0
C117 C 0.10086 0.29636 0.78215 0.0
H118 H 0.22145 0.47718 0.84812 0.0
H119 H 0.92201 0.22693 0.70696 0.0
Co120 Co 0.24364 0.90524 0.77244 0.0
C121 C 0.27153 0.95491 0.83408 0.0
Co122 Co 0.27317 0.96811 0.76126 0.0
C123 C 0.20892 0.82011 0.7632 0.0
C124 C 0.1951 0.83897 0.81294 0.0
N125 N 0.21695 0.85249 0.78311 0.0
N126 N 0.18254 0.78731 0.77947 0.0
C127 C 0.17407 0.7992 0.81077 0.0
H128 H 0.22038 0.82058 0.73656 0.0
H129 H 0.19283 0.85692 0.8342 0.0
C130 C 0.2468 0.92203 0.69939 0.0
N131 N 0.29659 0.02059 0.75187 0.0
C132 C 0.28546 0.04452 0.76744 0.0
C133 C 0.31966 0.04077 0.72448 0.0
N134 N 0.29932 0.07831 0.75033 0.0
C135 C 0.32118 0.07626 0.72331 0.0
C136 C 0.3221 0.93624 0.76215 0.0
O137 O 0.23423 0.8933 0.7204 0.0
O138 O 0.26467 0.95635 0.71249 0.0
O139 O 0.32232 0.96824 0.75783 0.0
O140 O 0.29035 0.90552 0.76862 0.0
O141 O 0.28183 0.98073 0.81069 0.0
H142 H 0.33186 0.02924 0.7049 0.0
H143 H 0.26428 0.03564 0.7888 0.0
O144 O 0.2545 0.91926 0.82366 0.0
O145 O 0.19652 0.90455 0.7765 0.0
O146 O 0.2234 0.96603 0.76392 0.0
C147 C 0.19341 0.93415 0.77147 0.0
H148 H 0.1533 0.78039 0.8303 0.0
H149 H 0.33527 0.09774 0.70288 0.0
Co150 Co 0.66012 0.7535 0.74347 0.0
C151 C 0.6774 0.72801 0.80781 0.0
Co152 Co 0.69626 0.72565 0.73756 0.0
C153 C 0.60273 0.77941 0.73231 0.0
C154 C 0.63391 0.79816 0.78258 0.0
N155 N 0.6303 0.7773 0.75194 0.0
N156 N 0.58902 0.80027 0.75007 0.0
C157 C 0.60846 0.8119 0.78163 0.0
H158 H 0.59261 0.76561 0.70594 0.0
H159 H 0.65409 0.80338 0.80437 0.0
C160 C 0.68128 0.74983 0.67305 0.0
N161 N 0.72828 0.70452 0.73055 0.0
C162 C 0.76297 0.71845 0.74731 0.0
C163 C 0.72913 0.68256 0.70251 0.0
N164 N 0.78625 0.70775 0.7301 0.0
C165 C 0.76499 0.68485 0.70196 0.0
C166 C 0.6169 0.67386 0.73219 0.0
O167 O 0.66329 0.76332 0.6918 0.0
O168 O 0.6958 0.73193 0.68838 0.0
O169 O 0.64976 0.67529 0.73323 0.0
O170 O 0.61536 0.70502 0.73514 0.0
O171 O 0.69719 0.71926 0.78677 0.0
H172 H 0.70692 0.66928 0.68171 0.0
H173 H 0.77283 0.74008 0.76912 0.0
O174 O 0.65811 0.74269 0.79479 0.0
O175 O 0.70467 0.80193 0.75192 0.0
O176 O 0.74187 0.77664 0.74195 0.0
C177 C 0.73826 0.80608 0.74933 0.0
H178 H 0.60461 0.82939 0.8024 0.0
H179 H 0.77569 0.67333 0.68086 0.0
C180 C 0.28732 1.0046 0.88366 0.0
C181 C 0.28015 0.96737 0.87266 0.0
C182 C 0.29811 0.01831 0.91922 0.0
C183 C 0.30156 0.98619 1.01206 0.0
H184 H 0.37399 0.09613 0.02965 0.0
C185 C 0.3689 0.04355 0.15176 0.0
C186 C 0.365 0.07434 0.16662 0.0
C187 C 0.36285 0.03407 0.11499 0.0
C188 C 0.35359 0.06544 0.02515 0.0
H189 H 0.27836 0.91514 0.89062 0.0
H190 H 0.2984 0.9394 0.95269 0.0
H191 H 0.35398 0.07093 0.96792 0.0
H192 H 0.35368 0.12074 0.1545 0.0
H193 H 0.34366 0.10455 0.08933 0.0
H194 H 0.30197 0.98068 0.06926 0.0
C195 C 0.29483 0.95782 0.93397 0.0
C196 C 0.34188 0.05088 0.98975 0.0
C197 C 0.28342 0.94383 0.89832 0.0
C198 C 0.3576 0.09736 0.14354 0.0
C199 C 0.35156 0.08784 0.10638 0.0
C200 C 0.31365 1.00065 0.0473 0.0
C201 C 0.30266 0.99545 0.94488 0.0
C202 C 0.31559 0.011 0.98265 0.0
C203 C 0.35254 0.05504 0.09206 0.0
C204 C 0.33985 0.04041 0.0543 0.0
H205 H 0.28465 0.02337 0.86465 0.0
H206 H 0.30273 0.04691 0.92654 0.0
H207 H 0.28071 0.95557 1.00802 0.0
H208 H 0.37436 0.02522 0.16908 0.0
H209 H 0.3646 0.00917 0.10472 0.0
C210 C 0.66064 0.7384 0.60793 0.0
C211 C 0.68985 0.75674 0.63439 0.0
C212 C 0.67029 0.73306 0.57244 0.0
C213 C 0.75695 0.75709 0.5127 0.0
H214 H 0.68323 0.66131 0.46292 0.0
C215 C 0.78591 0.71943 0.36916 0.0
C216 C 0.76519 0.68114 0.35521 0.0
C217 C 0.7799 0.72854 0.40434 0.0
C218 C 0.70469 0.68776 0.47671 0.0
H219 H 0.7518 0.78549 0.64445 0.0
H220 H 0.76856 0.77555 0.5842 0.0
H221 H 0.66509 0.68015 0.51917 0.0
H222 H 0.72388 0.62177 0.36791 0.0
H223 H 0.71579 0.63682 0.43074 0.0
H224 H 0.79766 0.76323 0.47222 0.0
C225 C 0.73834 0.76607 0.58941 0.0
C226 C 0.69378 0.69922 0.50879 0.0
C227 C 0.72877 0.77194 0.62431 0.0
C228 C 0.74102 0.65141 0.3783 0.0
C229 C 0.73555 0.66038 0.41404 0.0
C230 C 0.76824 0.74503 0.4814 0.0
C231 C 0.70926 0.74531 0.56306 0.0
C232 C 0.71972 0.73417 0.52736 0.0
C233 C 0.75337 0.69941 0.42705 0.0
C234 C 0.74225 0.71036 0.4625 0.0
H235 H 0.63034 0.72565 0.61522 0.0
H236 H 0.64698 0.71784 0.5529 0.0
H237 H 0.77781 0.7846 0.52531 0.0
H238 H 0.80383 0.74305 0.35156 0.0
H239 H 0.79395 0.75897 0.4124 0.0
C240 C 0.91414 0.23959 0.14758 0.0
C241 C 0.92063 0.27029 0.1716 0.0
C242 C 0.92412 0.24659 0.11109 0.0
C243 C 0.99772 0.32272 0.05671 0.0
H244 H 0.93636 0.26163 0.97397 0.0
C245 C 0.05776 0.35735 0.91044 0.0
C246 C 0.044 0.32654 0.88478 0.0
C247 C 0.04172 0.35134 0.94518 0.0
C248 C 0.95435 0.27864 0.99672 0.0
H249 H 0.94192 0.33209 0.1763 0.0
H250 H 0.95948 0.34445 0.11272 0.0
H251 H 0.90746 0.24864 0.0337 0.0
H252 H 1.00409 0.26492 0.87597 0.0
H253 H 0.978 0.25391 0.93649 0.0
H254 H 0.04519 0.35157 0.0205 0.0
C255 C 0.94617 0.3149 0.12187 0.0
C256 C 0.93748 0.27132 0.031 0.0
C257 C 0.93552 0.30774 0.15812 0.0
C258 C 0.0151 0.28939 0.89504 0.0
C259 C 0.99972 0.2832 0.9298 0.0
C260 C 0.01488 0.32956 0.02257 0.0
C261 C 0.94181 0.28464 0.09821 0.0
C262 C 0.95894 0.29328 0.0614 0.0
C263 C 0.01202 0.31418 0.95531 0.0
C264 C 0.99356 0.30754 0.99192 0.0
H265 H 0.90405 0.21075 0.15757 0.0
H266 H 0.92064 0.22272 0.09359 0.0
H267 H 0.01523 0.33978 0.07973 0.0
H268 H 0.07971 0.3864 0.9032 0.0
H269 H 0.05189 0.37619 0.96362 0.0
C270 C 0.33742 0.01026 0.38792 0.0
C271 C 0.33631 0.04387 0.37926 0.0
C272 C 0.32736 0.99494 0.42227 0.0
C273 C 0.30588 0.01608 0.51611 0.0
H274 H 0.25303 0.90363 0.5217 0.0
C275 C 0.22715 0.94025 0.6439 0.0
C276 C 0.24146 0.91817 0.65988 0.0
C277 C 0.2353 0.951 0.60804 0.0
C278 C 0.2679 0.93504 0.52052 0.0
H279 H 0.32429 0.08825 0.39967 0.0
H280 H 0.30534 0.06098 0.4597 0.0
H281 H 0.2758 0.93393 0.46355 0.0
H282 H 0.27331 0.88779 0.65024 0.0
H283 H 0.28637 0.90536 0.58648 0.0
H284 H 0.29644 0.01676 0.573 0.0
C285 C 0.3151 0.04686 0.44033 0.0
C286 C 0.28131 0.95261 0.48722 0.0
C287 C 0.32599 0.06267 0.40595 0.0
C288 C 0.26107 0.90393 0.63831 0.0
C289 C 0.26896 0.91445 0.60203 0.0
C290 C 0.29185 0.99845 0.54919 0.0
C291 C 0.31488 0.01224 0.44879 0.0
C292 C 0.30065 0.99348 0.48447 0.0
C293 C 0.25778 0.93972 0.5872 0.0
C294 C 0.27268 0.95777 0.55176 0.0
H295 H 0.34531 0.99525 0.36768 0.0
H296 H 0.32887 0.9691 0.42774 0.0
H297 H 0.32122 0.04751 0.51554 0.0
H298 H 0.21248 0.95209 0.66012 0.0
H299 H 0.22588 0.97003 0.5972 0.0
C300 C 0.69469 0.69926 0.85827 0.0
C301 C 0.67769 0.72091 0.84677 0.0
C302 C 0.6972 0.69344 0.89477 0.0
C303 C 0.70047 0.73572 0.98459 0.0
H304 H 0.68439 0.63659 0.01654 0.0
C305 C 0.70807 0.70641 0.13469 0.0
C306 C 0.72669 0.68554 0.14391 0.0
C307 C 0.70029 0.70967 0.09875 0.0
C308 C 0.68941 0.66456 1.008 0.0
H309 H 0.64943 0.75297 0.86475 0.0
H310 H 0.65389 0.74276 0.92917 0.0
H311 H 0.67162 0.64346 0.95372 0.0
H312 H 0.75174 0.6517 0.12241 0.0
H313 H 0.73847 0.65774 0.05922 0.0
H314 H 0.71874 0.75698 0.03873 0.0
C315 C 0.66542 0.73049 0.90959 0.0
C316 C 0.68193 0.66848 0.97203 0.0
C317 C 0.66266 0.73616 0.87277 0.0
C318 C 0.7373 0.66789 0.1162 0.0
C319 C 0.7295 0.6712 0.08005 0.0
C320 C 0.70799 0.73182 0.02057 0.0
C321 C 0.68289 0.70915 0.92094 0.0
C322 C 0.68772 0.7042 0.95982 0.0
C323 C 0.71098 0.69225 0.07094 0.0
C324 C 0.7028 0.69625 0.03266 0.0
H325 H 0.70656 0.68699 0.83905 0.0
H326 H 0.71136 0.67741 0.90251 0.0
H327 H 0.70581 0.76377 0.97595 0.0
H328 H 0.69929 0.72028 0.1553 0.0
H329 H 0.68544 0.72552 0.09281 0.0
C330 C 0.01564 0.29735 0.38872 0.0
C331 C 0.97684 0.28737 0.38188 0.0
C332 C 0.03135 0.30707 0.42357 0.0
C333 C 0.01748 0.33963 0.51457 0.0
H334 H 0.08938 0.30575 0.54319 0.0
C335 C 0.09478 0.38383 0.65453 0.0
C336 C 0.09362 0.35295 0.67305 0.0
C337 C 0.08566 0.37962 0.61749 0.0
C338 C 0.06935 0.31547 0.53575 0.0
H339 H 0.92409 0.27966 0.40685 0.0
H340 H 0.9514 0.29595 0.46827 0.0
H341 H 0.05975 0.28806 0.48344 0.0
H342 H 0.08352 0.29426 0.6675 0.0
H343 H 0.06859 0.28709 0.60332 0.0
H344 H 0.02613 0.36583 0.5676 0.0
C345 C 0.96982 0.29676 0.44628 0.0
C346 C 0.05253 0.30558 0.50124 0.0
C347 C 0.954 0.28705 0.41113 0.0
C348 C 0.08559 0.31886 0.65361 0.0
C349 C 0.0768 0.31473 0.61677 0.0
C350 C 0.0343 0.34949 0.54924 0.0
C351 C 0.00879 0.30696 0.45294 0.0
C352 C 0.02623 0.31737 0.49011 0.0
C353 C 0.07536 0.34449 0.59839 0.0
C354 C 0.06025 0.33727 0.56041 0.0
H355 H 0.03434 0.29819 0.36696 0.0
H356 H 0.06158 0.31539 0.42731 0.0
H357 H 0.99778 0.34967 0.50689 0.0
H358 H 0.0998 0.40998 0.66915 0.0
H359 H 0.08526 0.40331 0.60414 0.0
C360 C 0.45268 0.04019 0.24343 0.0
C361 C 0.42933 0.03235 0.27409 0.0
C362 C 0.4914 0.04904 0.24674 0.0
C363 C 0.56819 0.09923 0.31363 0.0
H364 H 0.63249 0.08053 0.2463 0.0
C365 C 0.73391 0.18091 0.33237 0.0
C366 C 0.75698 0.19379 0.30146 0.0
C367 C 0.6941 0.15444 0.32947 0.0
C368 C 0.61501 0.08636 0.26519 0.0
H369 H 0.42692 0.02497 0.3317 0.0
H370 H 0.49419 0.03938 0.33753 0.0
H371 H 0.56159 0.04263 0.24021 0.0
H372 H 0.75669 0.18837 0.24327 0.0
H373 H 0.68666 0.14318 0.23783 0.0
H374 H 0.62082 0.1441 0.33755 0.0
C375 C 0.48279 0.03886 0.31093 0.0
C376 C 0.57435 0.06439 0.26183 0.0
C377 C 0.44408 0.02991 0.30756 0.0
C378 C 0.73953 0.17881 0.26752 0.0
C379 C 0.69942 0.15274 0.26451 0.0
C380 C 0.6086 0.12138 0.31674 0.0
C381 C 0.50749 0.0507 0.28089 0.0
C382 C 0.55048 0.07069 0.28598 0.0
C383 C 0.67599 0.14064 0.29547 0.0
C384 C 0.63273 0.11548 0.29254 0.0
H385 H 0.44224 0.0434 0.21753 0.0
H386 H 0.50962 0.05823 0.22311 0.0
H387 H 0.55079 0.10566 0.3321 0.0
H388 H 0.74676 0.19131 0.35892 0.0
H389 H 0.6775 0.14504 0.35403 0.0
C390 C 0.62422 0.56381 0.28264 0.0
C391 C 0.64527 0.57896 0.25099 0.0
C392 C 0.59609 0.52423 0.28381 0.0
C393 C 0.57918 0.4331 0.23984 0.0
H394 H 0.48543 0.38478 0.29686 0.0
C395 C 0.51332 0.27659 0.28602 0.0
C396 C 0.47287 0.25203 0.28324 0.0
C397 C 0.5302 0.31629 0.28018 0.0
C398 C 0.51134 0.39788 0.28053 0.0
H399 H 0.65195 0.56614 0.19523 0.0
H400 H 0.60198 0.49774 0.19667 0.0
H401 H 0.51981 0.45537 0.28911 0.0
H402 H 0.41832 0.2501 0.27248 0.0
H403 H 0.44802 0.31994 0.26207 0.0
H404 H 0.57123 0.37611 0.23148 0.0
C405 C 0.60757 0.51576 0.22087 0.0
C406 C 0.53117 0.43829 0.27634 0.0
C407 C 0.63585 0.55498 0.21988 0.0
C408 C 0.44961 0.26822 0.27446 0.0
C409 C 0.46655 0.30821 0.26888 0.0
C410 C 0.55959 0.393 0.24416 0.0
C411 C 0.58871 0.49944 0.25329 0.0
C412 C 0.56551 0.45638 0.25611 0.0
C413 C 0.50708 0.33261 0.27151 0.0
C414 C 0.52578 0.37494 0.26494 0.0
H415 H 0.6316 0.58177 0.3071 0.0
H416 H 0.58224 0.51258 0.30925 0.0
H417 H 0.60586 0.44598 0.22459 0.0
H418 H 0.53209 0.26504 0.2924 0.0
H419 H 0.56147 0.33435 0.28281 0.0
C420 C 0.97367 0.40054 0.24267 0.0
C421 C 0.96974 0.38372 0.27627 0.0
C422 C 0.96357 0.4294 0.23851 0.0
C423 C 0.93662 0.49639 0.28573 0.0
H424 H 0.85856 0.46207 0.20995 0.0
C425 C 0.83677 0.5641 0.27001 0.0
C426 C 0.82897 0.56988 0.2345 0.0
C427 C 0.85522 0.54242 0.27657 0.0
C428 C 0.88069 0.47265 0.23089 0.0
H429 H 0.95557 0.3859 0.33237 0.0
H430 H 0.93958 0.43729 0.32553 0.0
H431 H 0.89532 0.42886 0.21715 0.0
H432 H 0.83251 0.55553 0.17828 0.0
H433 H 0.86538 0.51949 0.18935 0.0
H434 H 0.92222 0.54055 0.29923 0.0
C435 C 0.95014 0.42825 0.30233 0.0
C436 C 0.90189 0.45355 0.23494 0.0
C437 C 0.95961 0.39903 0.30632 0.0
C438 C 0.83861 0.55225 0.20595 0.0
C439 C 0.85713 0.53102 0.21239 0.0
C440 C 0.91574 0.51598 0.28135 0.0
C441 C 0.94988 0.44216 0.26801 0.0
C442 C 0.93012 0.46514 0.26235 0.0
C443 C 0.86615 0.52603 0.24772 0.0
C444 C 0.88747 0.5044 0.25378 0.0
H445 H 0.98068 0.38872 0.21899 0.0
H446 H 0.96405 0.43991 0.21178 0.0
H447 H 0.95805 0.50584 0.30725 0.0
H448 H 0.82985 0.5774 0.29258 0.0
H449 H 0.86112 0.53874 0.3042 0.0
C450 C 0.03738 0.43463 0.73982 0.0
C451 C 0.04154 0.42286 0.77408 0.0
C452 C 0.04574 0.47299 0.73496 0.0
C453 C 0.11458 0.56731 0.77276 0.0
H454 H 0.05988 0.61041 0.72279 0.0
C455 C 0.18665 0.73189 0.75236 0.0
C456 C 0.16435 0.74761 0.76624 0.0
C457 C 0.16954 0.69166 0.74578 0.0
C458 C 0.07558 0.59867 0.73655 0.0
H459 H 0.05445 0.44041 0.83035 0.0
H460 H 0.06814 0.50678 0.82211 0.0
H461 H 0.02933 0.53954 0.72834 0.0
H462 H 0.10642 0.73449 0.78135 0.0
H463 H 0.07644 0.66456 0.76942 0.0
H464 H 0.16058 0.6259 0.7814 0.0
C465 C 0.05877 0.48675 0.799 0.0
C466 C 0.0581 0.55823 0.73969 0.0
C467 C 0.05035 0.44863 0.80382 0.0
C468 C 0.12424 0.72292 0.77092 0.0
C469 C 0.10705 0.68296 0.76383 0.0
C470 C 0.13222 0.60746 0.76914 0.0
C471 C 0.05864 0.4999 0.76429 0.0
C472 C 0.07713 0.54231 0.7586 0.0
C473 C 0.12972 0.66667 0.75236 0.0
C474 C 0.1127 0.62372 0.75158 0.0
H475 H 0.03172 0.41559 0.71636 0.0
H476 H 0.04548 0.48246 0.70792 0.0
H477 H 0.13017 0.55574 0.787 0.0
H478 H 0.21762 0.75038 0.74868 0.0
H479 H 0.18769 0.67992 0.73671 0.0
C480 C 0.384 0.94911 0.73123 0.0
C481 C 0.35735 0.93273 0.75942 0.0
C482 C 0.41138 0.9371 0.72426 0.0
C483 C 0.4199 0.85021 0.73626 0.0
H484 H 0.5306 0.91477 0.72109 0.0
C485 C 0.52702 0.79724 0.76201 0.0
C486 C 0.55918 0.80847 0.73961 0.0
C487 C 0.50164 0.81145 0.75692 0.0
C488 C 0.49958 0.89633 0.72454 0.0
H489 H 0.34042 0.89373 0.8041 0.0
H490 H 0.38815 0.87364 0.79253 0.0
H491 H 0.48995 0.94507 0.7281 0.0
H492 H 0.59016 0.84285 0.69408 0.0
H493 H 0.54551 0.86823 0.68491 0.0
H494 H 0.42925 0.80165 0.73372 0.0
C495 C 0.38752 0.8948 0.77517 0.0
C496 C 0.47639 0.91371 0.72866 0.0
C497 C 0.3604 0.90659 0.782 0.0
C498 C 0.56499 0.83329 0.71115 0.0
C499 C 0.5398 0.8481 0.70628 0.0
C500 C 0.44289 0.83295 0.73211 0.0
C501 C 0.41222 0.90859 0.74538 0.0
C502 C 0.43652 0.89085 0.73582 0.0
C503 C 0.50818 0.83777 0.72954 0.0
C504 C 0.4832 0.85582 0.72739 0.0
H505 H 0.38195 0.96902 0.71323 0.0
H506 H 0.43028 0.94838 0.70123 0.0
H507 H 0.38906 0.83172 0.74083 0.0
H508 H 0.52255 0.77868 0.78448 0.0
H509 H 0.47798 0.80331 0.77566 0.0
C510 C 0.27165 0.467 0.75569 0.0
C511 C 0.2587 0.45883 0.79131 0.0
C512 C 0.31119 0.48316 0.74785 0.0
C513 C 0.40898 0.53506 0.79334 0.0
H514 H 0.44365 0.5222 0.69865 0.0
C515 C 0.57153 0.60947 0.75784 0.0
C516 C 0.57991 0.63676 0.73108 0.0
C517 C 0.53309 0.58 0.76327 0.0
C518 C 0.4343 0.52567 0.72531 0.0
H519 H 0.27622 0.45903 0.8464 0.0
H520 H 0.34475 0.48501 0.83283 0.0
H521 H 0.37462 0.48523 0.71308 0.0
H522 H 0.55572 0.65347 0.68756 0.0
H523 H 0.48894 0.60088 0.69585 0.0
H524 H 0.46896 0.57508 0.80548 0.0
C525 C 0.32506 0.48091 0.81091 0.0
C526 C 0.39467 0.50489 0.73354 0.0
C527 C 0.28571 0.46575 0.81879 0.0
C528 C 0.54995 0.63238 0.70805 0.0
C529 C 0.5118 0.60239 0.71283 0.0
C530 C 0.44859 0.55503 0.78535 0.0
C531 C 0.33864 0.49062 0.7754 0.0
C532 C 0.38124 0.50993 0.76745 0.0
C533 C 0.50278 0.57693 0.74141 0.0
C534 C 0.46155 0.55113 0.75107 0.0
H535 H 0.25129 0.46208 0.73411 0.0
H536 H 0.32019 0.49076 0.72029 0.0
H537 H 0.4002 0.54066 0.81945 0.0
H538 H 0.59408 0.61279 0.77635 0.0
H539 H 0.52678 0.56074 0.78554 0.0
C540 C 0.23837 0.08732 0.26269 0.0
C541 C 0.27797 0.11066 0.27177 0.0
C542 C 0.2145 0.10391 0.25986 0.0
C543 C 0.16723 0.14492 0.27526 0.0
H544 H 0.21166 0.24567 0.23152 0.0
C545 C 0.09397 0.23959 0.28382 0.0
C546 C 0.09494 0.25997 0.25306 0.0
C547 C 0.11516 0.22015 0.28519 0.0
C548 C 0.19861 0.21739 0.24351 0.0
H549 H 0.32324 0.16961 0.28582 0.0
H550 H 0.28187 0.19807 0.28133 0.0
H551 H 0.24961 0.21308 0.23476 0.0
H552 H 0.11891 0.27542 0.19946 0.0
H553 H 0.15589 0.24171 0.20185 0.0
H554 H 0.11599 0.14914 0.28359 0.0
C555 C 0.26924 0.16717 0.27569 0.0
C556 C 0.22056 0.19887 0.24575 0.0
C557 C 0.29295 0.1507 0.27853 0.0
C558 C 0.11793 0.26063 0.22381 0.0
C559 C 0.1391 0.24117 0.22516 0.0
C560 C 0.14523 0.16352 0.27306 0.0
C561 C 0.22984 0.14416 0.26594 0.0
C562 C 0.20535 0.16259 0.26198 0.0
C563 C 0.13792 0.22058 0.25583 0.0
C564 C 0.16077 0.20013 0.25738 0.0
H565 H 0.22595 0.0564 0.25729 0.0
H566 H 0.18428 0.08538 0.25214 0.0
H567 H 0.1547 0.11711 0.28809 0.0
H568 H 0.07707 0.23891 0.30706 0.0
H569 H 0.11412 0.20521 0.3095 0.0
C570 C 0.86894 0.79605 0.27623 0.0
C571 C 0.85207 0.77344 0.24475 0.0
C572 C 0.9092 0.82113 0.27829 0.0
C573 C 0.99886 0.87189 0.22636 0.0
H574 H 0.04635 0.84256 0.30128 0.0
C575 C 0.16442 0.94936 0.25338 0.0
C576 C 0.18052 0.92491 0.2549 0.0
C577 C 0.12425 0.93384 0.25303 0.0
C578 C 0.03342 0.85104 0.28032 0.0
H579 H 0.8627 0.76057 0.19019 0.0
H580 H 0.93275 0.80572 0.19314 0.0
H581 H 0.97562 0.81432 0.29936 0.0
H582 H 0.16745 0.86524 0.25724 0.0
H583 H 0.09653 0.83778 0.25734 0.0
H584 H 0.05664 0.90837 0.20713 0.0
C585 C 0.9152 0.80394 0.21627 0.0
C586 C 0.99313 0.83532 0.27948 0.0
C587 C 0.87525 0.77825 0.21454 0.0
C588 C 0.15563 0.88456 0.25607 0.0
C589 C 0.11528 0.86901 0.25634 0.0
C590 C 0.03921 0.88816 0.22759 0.0
C591 C 0.9327 0.82441 0.24859 0.0
C592 C 0.9755 0.84519 0.25218 0.0
C593 C 0.09932 0.89358 0.25468 0.0
C594 C 0.05675 0.87739 0.25424 0.0
H595 H 0.85153 0.79211 0.30002 0.0
H596 H 0.92217 0.83668 0.30347 0.0
H597 H 0.98583 0.87972 0.20496 0.0
H598 H 0.18296 0.98054 0.25188 0.0
H599 H 0.11265 0.95336 0.25179 0.0
C600 C 0.87374 0.13531 0.30372 0.0
C601 C 0.90321 0.15715 0.27914 0.0
C602 C 0.8554 0.09486 0.30281 0.0
C603 C 0.82561 0.01292 0.24144 0.0
H604 H 0.80904 0.95392 0.3277 0.0
C605 C 0.74687 0.84474 0.23809 0.0
C606 C 0.72624 0.82472 0.26868 0.0
C607 C 0.76812 0.88533 0.23848 0.0
C608 C 0.81272 0.96985 0.30343 0.0
H609 H 0.93718 0.15399 0.23468 0.0
H610 H 0.90404 0.0824 0.23239 0.0
H611 H 0.84988 0.02445 0.33071 0.0
H612 H 0.70959 0.83239 0.32279 0.0
H613 H 0.74475 0.90299 0.32276 0.0
H614 H 0.78723 0.95882 0.21435 0.0
C615 C 0.89565 0.09697 0.25262 0.0
C616 C 0.83655 0.01026 0.30514 0.0
C617 C 0.91474 0.13776 0.25408 0.0
C618 C 0.72512 0.84655 0.29874 0.0
C619 C 0.74595 0.88723 0.29893 0.0
C620 C 0.80123 0.97252 0.23982 0.0
C621 C 0.86556 0.07523 0.27682 0.0
C622 C 0.84312 0.03218 0.27421 0.0
C623 C 0.76876 0.90719 0.26924 0.0
C624 C 0.79429 0.95039 0.27085 0.0
H625 H 0.86432 0.14957 0.32334 0.0
H626 H 0.83217 0.07883 0.32159 0.0
H627 H 0.82973 0.02927 0.21734 0.0
H628 H 0.74772 0.82905 0.21409 0.0
H629 H 0.78526 0.89939 0.21506 0.0
C630 C 0.09831 0.23213 0.77061 0.0
C631 C 0.1188 0.27139 0.78218 0.0
C632 C 0.11716 0.21019 0.76863 0.0
C633 C 0.1724 0.18064 0.74497 0.0
H634 H 0.24847 0.19634 0.81846 0.0
C635 C 0.27939 0.12299 0.7254 0.0
C636 C 0.28514 0.10522 0.75515 0.0
C637 C 0.25975 0.14392 0.72941 0.0
C638 C 0.22716 0.19135 0.7978 0.0
H639 H 0.17491 0.31812 0.80135 0.0
H640 H 0.20734 0.28035 0.79762 0.0
H641 H 0.20971 0.2279 0.8257 0.0
H642 H 0.27679 0.0974 0.81271 0.0
H643 H 0.24222 0.13335 0.81968 0.0
H644 H 0.18945 0.14345 0.71741 0.0
C645 C 0.17676 0.26615 0.79046 0.0
C646 C 0.20514 0.20973 0.8018 0.0
C647 C 0.15811 0.28793 0.79237 0.0
C648 C 0.27249 0.11045 0.78923 0.0
C649 C 0.25287 0.1313 0.79324 0.0
C650 C 0.19443 0.16215 0.74099 0.0
C651 C 0.15671 0.2271 0.7784 0.0
C652 C 0.17776 0.20494 0.77529 0.0
C653 C 0.24553 0.14762 0.76325 0.0
C654 C 0.22227 0.16749 0.76726 0.0
H655 H 0.06804 0.21859 0.76253 0.0
H656 H 0.10082 0.18004 0.75948 0.0
H657 H 0.15183 0.17661 0.7239 0.0
H658 H 0.28846 0.11927 0.69873 0.0
H659 H 0.25521 0.15673 0.70587 0.0
C660 C 0.13646 0.92706 0.73789 0.0
C661 C 0.15416 0.92886 0.77103 0.0
C662 C 0.09586 0.90769 0.7348 0.0
C663 C 0.01197 0.82806 0.78016 0.0
H664 H 0.9514 0.84699 0.71045 0.0
C665 C 0.84426 0.7379 0.76952 0.0
C666 C 0.82781 0.7274 0.73473 0.0
C667 C 0.8842 0.76281 0.77431 0.0
C668 C 0.96809 0.84123 0.72982 0.0
H669 H 0.14427 0.91499 0.82739 0.0
H670 H 0.07365 0.88352 0.82275 0.0
H671 H 0.02012 0.89494 0.71988 0.0
H672 H 0.84034 0.73409 0.67763 0.0
H673 H 0.91036 0.77756 0.68596 0.0
H674 H 0.95987 0.77456 0.79028 0.0
C675 C 0.09066 0.89565 0.79878 0.0
C676 C 1.00743 0.86873 0.73529 0.0
C677 C 0.1311 0.91434 0.80167 0.0
C678 C 0.85231 0.74121 0.70474 0.0
C679 C 0.89225 0.76653 0.70952 0.0
C680 C 0.97266 0.80085 0.77495 0.0
C681 C 0.07246 0.89008 0.76493 0.0
C682 C 0.02994 0.86245 0.76048 0.0
C683 C 0.90847 0.77813 0.74436 0.0
C684 C 0.95034 0.80701 0.7496 0.0
H685 H 0.15377 0.93721 0.71375 0.0
H686 H 0.08301 0.90389 0.70826 0.0
H687 H 0.02847 0.82154 0.79905 0.0
H688 H 0.8259 0.72777 0.79301 0.0
H689 H 0.89585 0.77134 0.80149 0.0
C690 C 0.92424 0.15337 0.71866 0.0
C691 C 0.9308 0.17427 0.75146 0.0
C692 C 0.90949 0.11323 0.71821 0.0
C693 C 0.89137 0.03181 0.77861 0.0
H694 H 0.8228 0.96836 0.70017 0.0
C695 C 0.77291 0.86974 0.78195 0.0
C696 C 0.77199 0.84535 0.75338 0.0
C697 C 0.80009 0.90936 0.78244 0.0
C698 C 0.84245 0.98584 0.72191 0.0
H699 H 0.92665 0.17002 0.8094 0.0
H700 H 0.8985 0.09953 0.8089 0.0
H701 H 0.85198 0.03868 0.69947 0.0
H702 H 0.79908 0.8424 0.70352 0.0
H703 H 0.84609 0.91262 0.7036 0.0
H704 H 0.879 0.97807 0.80213 0.0
C705 C 0.90613 0.11402 0.78342 0.0
C706 C 0.85932 0.02624 0.72157 0.0
C707 C 0.92177 0.15433 0.78382 0.0
C708 C 0.79976 0.86073 0.72605 0.0
C709 C 0.82634 0.90072 0.726 0.0
C710 C 0.87372 0.99131 0.77931 0.0
C711 C 0.90012 0.09288 0.75059 0.0
C712 C 0.88371 0.04986 0.75012 0.0
C713 C 0.82606 0.92538 0.75382 0.0
C714 C 0.84892 0.96805 0.75109 0.0
H715 H 0.93181 0.16835 0.6934 0.0
H716 H 0.90619 0.09838 0.69242 0.0
H717 H 0.9107 0.04885 0.80065 0.0
H718 H 0.75147 0.85838 0.80312 0.0
H719 H 0.79913 0.9279 0.80396 0.0
loop_
_geom_bond_atom_site_label_1
_geom_bond_atom_site_label_2
_geom_bond_distance
_geom_bond_site_symmetry_2
_ccdc_geom_bond_type
Co0 N5 2.057 . S
Co0 O17 2.021 . S
Co0 O20 2.062 . S
Co0 O24 2.117 . S
Co0 O25 2.020 . S
C1 O21 1.259 . S
C1 O24 1.258 . S
Co2 N11 2.057 . S
Co2 O18 2.117 . S
Co2 O19 2.020 . S
Co2 O21 2.021 . S
Co2 O26 2.062 . S
C3 N5 1.316 1_565 S
C3 N6 1.347 . S
C3 H8 0.931 . S
C4 N5 1.375 1_565 S
C4 C7 1.350 . S
C4 H9 0.930 . S
N5 Co0 2.057 . S
N5 C3 1.316 1_545 S
N5 C4 1.375 1_545 S
N6 C3 1.347 . S
N6 C7 1.373 . S
C7 C4 1.350 . S
C7 N6 1.373 . S
C7 H28 0.931 . S
H8 C3 0.931 . S
H9 C4 0.930 . S
C10 O17 1.259 . S
C10 O18 1.258 . S
N11 Co2 2.057 . S
N11 C12 1.316 . S
N11 C13 1.375 . S
C12 N11 1.316 . S
C12 N14 1.347 . S
C12 H23 0.931 . S
C13 N11 1.375 . S
C13 C15 1.350 . S
C13 H22 0.930 . S
N14 C12 1.347 . S
N14 C15 1.373 . S
C15 C13 1.350 . S
C15 N14 1.373 . S
C15 H29 0.931 . S
C16 O19 1.256 . S
C16 O20 1.255 . S
O17 Co0 2.021 . S
O17 C10 1.259 . S
O18 Co2 2.117 . S
O18 C10 1.258 . S
O19 Co2 2.020 . S
O19 C16 1.256 . S
O20 Co0 2.062 . S
O20 C16 1.255 . S
O21 C1 1.259 . S
O21 Co2 2.021 . S
H22 C13 0.930 . S
H23 C12 0.931 . S
O24 Co0 2.117 . S
O24 C1 1.258 . S
O25 Co0 2.020 . S
O25 C27 1.256 . S
O26 Co2 2.062 . S
O26 C27 1.255 . S
C27 O25 1.256 . S
C27 O26 1.255 . S
H28 C7 0.931 . S
H29 C15 0.931 . S
Co30 N35 2.057 . S
Co30 O47 2.021 . S
Co30 O50 2.062 . S
Co30 O54 2.117 . S
Co30 O55 2.020 . S
C31 O51 1.259 . S
C31 O54 1.258 . S
Co32 N41 2.057 . S
Co32 O48 2.117 . S
Co32 O49 2.020 . S
Co32 O51 2.021 . S
Co32 O56 2.062 . S
C33 N35 1.316 . S
C33 N36 1.347 . S
C33 H38 0.931 . S
C34 N35 1.375 . S
C34 C37 1.350 . S
C34 H39 0.930 . S
N35 Co30 2.057 . S
N35 C33 1.316 . S
N35 C34 1.375 . S
N36 C33 1.347 . S
N36 C37 1.373 . S
C37 C34 1.350 . S
C37 N36 1.373 . S
C37 H58 0.931 . S
H38 C33 0.931 . S
H39 C34 0.930 . S
C40 O47 1.259 . S
C40 O48 1.258 . S
N41 Co32 2.057 . S
N41 C42 1.316 . S
N41 C43 1.375 . S
C42 N41 1.316 . S
C42 N44 1.347 . S
C42 H53 0.931 . S
C43 N41 1.375 . S
C43 C45 1.350 . S
C43 H52 0.930 . S
N44 C42 1.347 . S
N44 C45 1.373 . S
C45 C43 1.350 . S
C45 N44 1.373 . S
C45 H59 0.931 . S
C46 O49 1.256 . S
C46 O50 1.255 . S
O47 Co30 2.021 . S
O47 C40 1.259 . S
O48 Co32 2.117 . S
O48 C40 1.258 . S
O49 Co32 2.020 . S
O49 C46 1.256 . S
O50 Co30 2.062 . S
O50 C46 1.255 . S
O51 C31 1.259 . S
O51 Co32 2.021 . S
H52 C43 0.930 . S
H53 C42 0.931 . S
O54 Co30 2.117 . S
O54 C31 1.258 . S
O55 Co30 2.020 . S
O55 C57 1.256 . S
O56 Co32 2.062 . S
O56 C57 1.255 . S
C57 O55 1.256 . S
C57 O56 1.255 . S
H58 C37 0.931 . S
H59 C45 0.931 . S
Co60 N65 2.057 . S
Co60 O77 2.021 . S
Co60 O80 2.062 . S
Co60 O84 2.117 . S
Co60 O85 2.020 . S
C61 O81 1.259 . S
C61 O84 1.258 . S
Co62 N71 2.057 . S
Co62 O78 2.117 . S
Co62 O79 2.020 . S
Co62 O81 2.021 . S
Co62 O86 2.062 . S
C63 N65 1.316 1_455 S
C63 N66 1.347 . S
C63 H68 0.931 . S
C64 N65 1.375 1_455 S
C64 C67 1.350 . S
C64 H69 0.930 . S
N65 Co60 2.057 . S
N65 C63 1.316 1_655 S
N65 C64 1.375 1_655 S
N66 C63 1.347 . S
N66 C67 1.373 . S
C67 C64 1.350 . S
C67 N66 1.373 . S
C67 H88 0.931 . S
H68 C63 0.931 . S
H69 C64 0.930 . S
C70 O77 1.259 . S
C70 O78 1.258 . S
N71 Co62 2.057 . S
N71 C72 1.316 . S
N71 C73 1.375 . S
C72 N71 1.316 . S
C72 N74 1.347 . S
C72 H83 0.931 . S
C73 N71 1.375 . S
C73 C75 1.350 . S
C73 H82 0.930 . S
N74 C72 1.347 . S
N74 C75 1.373 . S
C75 C73 1.350 . S
C75 N74 1.373 . S
C75 H89 0.931 . S
C76 O79 1.256 . S
C76 O80 1.255 . S
O77 Co60 2.021 . S
O77 C70 1.259 . S
O78 Co62 2.117 . S
O78 C70 1.258 . S
O79 Co62 2.020 . S
O79 C76 1.256 . S
O80 Co60 2.062 . S
O80 C76 1.255 . S
O81 C61 1.259 . S
O81 Co62 2.021 . S
H82 C73 0.930 . S
H83 C72 0.931 . S
O84 Co60 2.117 . S
O84 C61 1.258 . S
O85 Co60 2.020 . S
O85 C87 1.256 . S
O86 Co62 2.062 . S
O86 C87 1.255 . S
C87 O85 1.256 . S
C87 O86 1.255 . S
H88 C67 0.931 . S
H89 C75 0.931 . S
Co90 N95 2.057 . S
Co90 O107 2.021 . S
Co90 O110 2.062 . S
Co90 O114 2.117 . S
Co90 O115 2.020 . S
C91 O111 1.259 . S
C91 O114 1.258 . S
Co92 N101 2.057 . S
Co92 O108 2.117 . S
Co92 O109 2.020 . S
Co92 O111 2.021 . S
Co92 O116 2.062 . S
C93 N95 1.316 . S
C93 N96 1.347 . S
C93 H98 0.931 . S
C94 N95 1.375 . S
C94 C97 1.350 . S
C94 H99 0.930 . S
N95 Co90 2.057 . S
N95 C93 1.316 . S
N95 C94 1.375 . S
N96 C93 1.347 . S
N96 C97 1.373 . S
C97 C94 1.350 . S
C97 N96 1.373 . S
C97 H118 0.931 . S
H98 C93 0.931 . S
H99 C94 0.930 . S
C100 O107 1.259 . S
C100 O108 1.258 . S
N101 Co92 2.057 . S
N101 C102 1.316 1_455 S
N101 C103 1.375 1_455 S
C102 N101 1.316 1_655 S
C102 N104 1.347 . S
C102 H113 0.931 . S
C103 N101 1.375 1_655 S
C103 C105 1.350 . S
C103 H112 0.930 . S
N104 C102 1.347 . S
N104 C105 1.373 . S
C105 C103 1.350 . S
C105 N104 1.373 . S
C105 H119 0.931 . S
C106 O109 1.256 . S
C106 O110 1.255 . S
O107 Co90 2.021 . S
O107 C100 1.259 . S
O108 Co92 2.117 . S
O108 C100 1.258 . S
O109 Co92 2.020 . S
O109 C106 1.256 . S
O110 Co90 2.062 . S
O110 C106 1.255 . S
O111 C91 1.259 . S
O111 Co92 2.021 . S
H112 C103 0.930 . S
H113 C102 0.931 . S
O114 Co90 2.117 . S
O114 C91 1.258 . S
O115 Co90 2.020 . S
O115 C117 1.256 . S
O116 Co92 2.062 . S
O116 C117 1.255 . S
C117 O115 1.256 . S
C117 O116 1.255 . S
H118 C97 0.931 . S
H119 C105 0.931 . S
Co120 N125 2.057 . S
Co120 O137 2.021 . S
Co120 O140 2.062 . S
Co120 O144 2.117 . S
Co120 O145 2.020 . S
C121 O141 1.259 . S
C121 O144 1.258 . S
Co122 N131 2.057 . S
Co122 O138 2.117 . S
Co122 O139 2.020 . S
Co122 O141 2.021 . S
Co122 O146 2.062 . S
C123 N125 1.316 . S
C123 N126 1.347 . S
C123 H128 0.931 . S
C124 N125 1.375 . S
C124 C127 1.350 . S
C124 H129 0.930 . S
N125 Co120 2.057 . S
N125 C123 1.316 . S
N125 C124 1.375 . S
N126 C123 1.347 . S
N126 C127 1.373 . S
C127 C124 1.350 . S
C127 N126 1.373 . S
C127 H148 0.931 . S
H128 C123 0.931 . S
H129 C124 0.930 . S
C130 O137 1.259 . S
C130 O138 1.258 . S
N131 Co122 2.057 . S
N131 C132 1.316 1_565 S
N131 C133 1.375 1_565 S
C132 N131 1.316 1_545 S
C132 N134 1.347 . S
C132 H143 0.931 . S
C133 N131 1.375 1_545 S
C133 C135 1.350 . S
C133 H142 0.948 . S
N134 C132 1.347 . S
N134 C135 1.373 . S
C135 C133 1.350 . S
C135 N134 1.373 . S
C135 H149 0.931 . S
C136 O139 1.256 . S
C136 O140 1.255 . S
O137 Co120 2.021 . S
O137 C130 1.259 . S
O138 Co122 2.117 . S
O138 C130 1.258 . S
O139 Co122 2.020 . S
O139 C136 1.256 . S
O140 Co120 2.062 . S
O140 C136 1.255 . S
O141 C121 1.259 . S
O141 Co122 2.021 . S
H142 C133 0.948 . S
H143 C132 0.931 . S
O144 Co120 2.117 . S
O144 C121 1.258 . S
O145 Co120 2.020 . S
O145 C147 1.256 . S
O146 Co122 2.062 . S
O146 C147 1.255 . S
C147 O145 1.256 . S
C147 O146 1.255 . S
H148 C127 0.931 . S
H149 C135 0.931 . S
Co150 N155 2.057 . S
Co150 O167 2.021 . S
Co150 O170 2.062 . S
Co150 O174 2.117 . S
Co150 O175 2.020 . S
C151 O171 1.259 . S
C151 O174 1.258 . S
Co152 N161 2.057 . S
Co152 O168 2.117 . S
Co152 O169 2.020 . S
Co152 O171 2.021 . S
Co152 O176 2.062 . S
C153 N155 1.316 . S
C153 N156 1.347 . S
C153 H158 0.931 . S
C154 N155 1.375 . S
C154 C157 1.350 . S
C154 H159 0.930 . S
N155 Co150 2.057 . S
N155 C153 1.316 . S
N155 C154 1.375 . S
N156 C153 1.347 . S
N156 C157 1.373 . S
C157 C154 1.350 . S
C157 N156 1.373 . S
C157 H178 0.931 . S
H158 C153 0.931 . S
H159 C154 0.930 . S
C160 O167 1.259 . S
C160 O168 1.258 . S
N161 Co152 2.057 . S
N161 C162 1.316 . S
N161 C163 1.375 . S
C162 N161 1.316 . S
C162 N164 1.347 . S
C162 H173 0.931 . S
C163 N161 1.375 . S
C163 C165 1.350 . S
C163 H172 0.930 . S
N164 C162 1.347 . S
N164 C165 1.373 . S
C165 C163 1.350 . S
C165 N164 1.373 . S
C165 H179 0.931 . S
C166 O169 1.256 . S
C166 O170 1.255 . S
O167 Co150 2.021 . S
O167 C160 1.259 . S
O168 Co152 2.117 . S
O168 C160 1.258 . S
O169 Co152 2.020 . S
O169 C166 1.256 . S
O170 Co150 2.062 . S
O170 C166 1.255 . S
O171 C151 1.259 . S
O171 Co152 2.021 . S
H172 C163 0.930 . S
H173 C162 0.931 . S
O174 Co150 2.117 . S
O174 C151 1.258 . S
O175 Co150 2.020 . S
O175 C177 1.256 . S
O176 Co152 2.062 . S
O176 C177 1.255 . S
C177 O175 1.256 . S
C177 O176 1.255 . S
H178 C157 0.931 . S
H179 C165 0.931 . S
C180 C181 1.349 . S
C180 C182 1.327 . S
C180 H205 0.950 . S
C181 C180 1.349 . S
C181 C197 1.349 . S
C182 C180 1.327 . S
C182 C201 1.429 . S
C182 H206 0.950 . S
C183 C200 1.574 1_556 S
C183 C202 1.368 . S
C183 H207 0.949 . S
H184 C188 0.949 . S
C185 C186 1.349 . S
C185 C187 1.327 . S
C185 H208 0.950 . S
C186 C185 1.349 . S
C186 C198 1.349 . S
C187 C185 1.327 . S
C187 C203 1.429 . S
C187 H209 0.950 . S
C188 H184 0.949 . S
C188 C196 1.574 1_554 S
C188 C204 1.368 . S
H189 C197 0.950 . S
H190 C195 0.950 . S
H191 C196 0.949 . S
H192 C198 0.950 . S
H193 C199 0.950 . S
H194 C200 0.949 . S
C195 H190 0.950 . S
C195 C197 1.327 . S
C195 C201 1.429 . S
C196 C188 1.574 1_556 S
C196 H191 0.949 . S
C196 C202 1.368 1_545 S
C197 C181 1.349 . S
C197 H189 0.950 . S
C197 C195 1.327 . S
C198 C186 1.349 . S
C198 H192 0.950 . S
C198 C199 1.327 . S
C199 H193 0.950 . S
C199 C198 1.327 . S
C199 C203 1.429 . S
C200 C183 1.574 1_554 S
C200 H194 0.949 . S
C200 C204 1.368 1_565 S
C201 C182 1.429 . S
C201 C195 1.429 . S
C201 C202 1.523 . S
C202 C183 1.368 . S
C202 C196 1.368 1_565 S
C202 C201 1.523 . S
C203 C187 1.429 . S
C203 C199 1.429 . S
C203 C204 1.523 . S
C204 C188 1.368 . S
C204 C200 1.368 1_545 S
C204 C203 1.523 . S
H205 C180 0.950 . S
H206 C182 0.950 . S
H207 C183 0.949 . S
H208 C185 0.950 . S
H209 C187 0.950 . S
C210 C211 1.349 . S
C210 C212 1.327 . S
C210 H235 0.950 . S
C211 C210 1.349 . S
C211 C227 1.349 . S
C212 C210 1.327 . S
C212 C231 1.429 . S
C212 H236 0.950 . S
C213 C230 1.574 . S
C213 C232 1.368 . S
C213 H237 0.949 . S
H214 C218 0.949 . S
C215 C216 1.349 . S
C215 C217 1.327 . S
C215 H238 0.950 . S
C216 C215 1.349 . S
C216 C228 1.349 . S
C217 C215 1.327 . S
C217 C233 1.429 . S
C217 H239 0.950 . S
C218 H214 0.949 . S
C218 C226 1.574 . S
C218 C234 1.368 . S
H219 C227 0.950 . S
H220 C225 0.950 . S
H221 C226 0.949 . S
H222 C228 0.950 . S
H223 C229 0.950 . S
H224 C230 0.949 . S
C225 H220 0.950 . S
C225 C227 1.327 . S
C225 C231 1.429 . S
C226 C218 1.574 . S
C226 H221 0.949 . S
C226 C232 1.368 . S
C227 C211 1.349 . S
C227 H219 0.950 . S
C227 C225 1.327 . S
C228 C216 1.349 . S
C228 H222 0.950 . S
C228 C229 1.327 . S
C229 H223 0.950 . S
C229 C228 1.327 . S
C229 C233 1.429 . S
C230 C213 1.574 . S
C230 H224 0.949 . S
C230 C234 1.368 . S
C231 C212 1.429 . S
C231 C225 1.429 . S
C231 C232 1.523 . S
C232 C213 1.368 . S
C232 C226 1.368 . S
C232 C231 1.523 . S
C233 C217 1.429 . S
C233 C229 1.429 . S
C233 C234 1.523 . S
C234 C218 1.368 . S
C234 C230 1.368 . S
C234 C233 1.523 . S
H235 C210 0.950 . S
H236 C212 0.950 . S
H237 C213 0.949 . S
H238 C215 0.950 . S
H239 C217 0.950 . S
C240 C241 1.349 . S
C240 C242 1.327 . S
C240 H265 0.950 . S
C241 C240 1.349 . S
C241 C257 1.349 . S
C242 C240 1.327 . S
C242 C261 1.429 . S
C242 H266 0.950 . S
C243 C260 1.574 1_554 S
C243 C262 1.368 1_455 S
C243 H267 0.949 . S
H244 C248 0.949 . S
C245 C246 1.349 . S
C245 C247 1.327 . S
C245 H268 0.950 . S
C246 C245 1.349 . S
C246 C258 1.349 . S
C247 C245 1.327 . S
C247 C263 1.429 . S
C247 H269 0.950 . S
C248 H244 0.949 . S
C248 C256 1.574 1_556 S
C248 C264 1.368 1_655 S
H249 C257 0.950 . S
H250 C255 0.942 1_455 S
H251 C256 0.949 . S
H252 C258 0.950 . S
H253 C259 0.950 1_655 S
H254 C260 0.949 . S
C255 H250 0.942 1_655 S
C255 C257 1.327 . S
C255 C261 1.429 . S
C256 C248 1.574 1_554 S
C256 H251 0.949 . S
C256 C262 1.368 . S
C257 C241 1.349 . S
C257 H249 0.950 . S
C257 C255 1.327 . S
C258 C246 1.349 . S
C258 H252 0.950 . S
C258 C259 1.327 . S
C259 H253 0.950 1_455 S
C259 C258 1.327 . S
C259 C263 1.429 . S
C260 C243 1.574 1_556 S
C260 H254 0.949 . S
C260 C264 1.368 . S
C261 C242 1.429 . S
C261 C255 1.429 . S
C261 C262 1.523 . S
C262 C243 1.368 1_655 S
C262 C256 1.368 . S
C262 C261 1.523 . S
C263 C247 1.429 . S
C263 C259 1.429 . S
C263 C264 1.523 . S
C264 C248 1.368 1_455 S
C264 C260 1.368 . S
C264 C263 1.523 . S
H265 C240 0.950 . S
H266 C242 0.950 . S
H267 C243 0.949 . S
H268 C245 0.950 . S
H269 C247 0.950 . S
C270 C271 1.349 . S
C270 C272 1.327 . S
C270 H295 0.950 . S
C271 C270 1.349 . S
C271 C287 1.349 . S
C272 C270 1.327 . S
C272 C291 1.429 . S
C272 H296 0.950 1_545 S
C273 C290 1.574 . S
C273 C292 1.368 . S
C273 H297 0.949 . S
H274 C278 0.949 . S
C275 C276 1.349 . S
C275 C277 1.327 . S
C275 H298 0.950 . S
C276 C275 1.349 . S
C276 C288 1.349 . S
C277 C275 1.327 . S
C277 C293 1.429 . S
C277 H299 0.950 . S
C278 H274 0.949 . S
C278 C286 1.574 . S
C278 C294 1.368 . S
H279 C287 0.950 . S
H280 C285 0.950 . S
H281 C286 0.949 . S
H282 C288 0.950 . S
H283 C289 0.950 . S
H284 C290 0.949 . S
C285 H280 0.950 . S
C285 C287 1.327 . S
C285 C291 1.429 . S
C286 C278 1.574 . S
C286 H281 0.949 . S
C286 C292 1.368 1_565 S
C287 C271 1.349 . S
C287 H279 0.950 . S
C287 C285 1.327 . S
C288 C276 1.349 . S
C288 H282 0.950 . S
C288 C289 1.327 . S
C289 H283 0.950 . S
C289 C288 1.327 . S
C289 C293 1.429 . S
C290 C273 1.574 . S
C290 H284 0.949 . S
C290 C294 1.368 1_545 S
C291 C272 1.429 . S
C291 C285 1.429 . S
C291 C292 1.523 . S
C292 C273 1.368 . S
C292 C286 1.368 1_545 S
C292 C291 1.523 . S
C293 C277 1.429 . S
C293 C289 1.429 . S
C293 C294 1.523 . S
C294 C278 1.368 . S
C294 C290 1.368 1_565 S
C294 C293 1.523 . S
H295 C270 0.950 . S
H296 C272 0.950 1_565 S
H297 C273 0.949 . S
H298 C275 0.950 . S
H299 C277 0.950 . S
C300 C301 1.349 . S
C300 C302 1.327 . S
C300 H325 0.950 . S
C301 C300 1.349 . S
C301 C317 1.349 . S
C302 C300 1.327 . S
C302 C321 1.429 . S
C302 H326 0.950 . S
C303 C320 1.574 1_556 S
C303 C322 1.368 . S
C303 H327 0.949 . S
H304 C308 0.949 . S
C305 C306 1.349 . S
C305 C307 1.327 . S
C305 H328 0.950 . S
C306 C305 1.349 . S
C306 C318 1.349 . S
C307 C305 1.327 . S
C307 C323 1.429 . S
C307 H329 0.950 . S
C308 H304 0.949 . S
C308 C316 1.574 1_554 S
C308 C324 1.368 . S
H309 C317 0.950 . S
H310 C315 0.950 . S
H311 C316 0.949 . S
H312 C318 0.950 . S
H313 C319 0.950 . S
H314 C320 0.949 . S
C315 H310 0.950 . S
C315 C317 1.327 . S
C315 C321 1.429 . S
C316 C308 1.574 1_556 S
C316 H311 0.949 . S
C316 C322 1.368 . S
C317 C301 1.349 . S
C317 H309 0.950 . S
C317 C315 1.327 . S
C318 C306 1.349 . S
C318 H312 0.950 . S
C318 C319 1.327 . S
C319 H313 0.950 . S
C319 C318 1.327 . S
C319 C323 1.429 . S
C320 C303 1.574 1_554 S
C320 H314 0.949 . S
C320 C324 1.368 . S
C321 C302 1.429 . S
C321 C315 1.429 . S
C321 C322 1.523 . S
C322 C303 1.368 . S
C322 C316 1.368 . S
C322 C321 1.523 . S
C323 C307 1.429 . S
C323 C319 1.429 . S
C323 C324 1.523 . S
C324 C308 1.368 . S
C324 C320 1.368 . S
C324 C323 1.523 . S
H325 C300 0.950 . S
H326 C302 0.950 . S
H327 C303 0.949 . S
H328 C305 0.950 . S
H329 C307 0.950 . S
C330 C331 1.349 . S
C330 C332 1.327 . S
C330 H355 0.950 . S
C331 C330 1.349 . S
C331 C347 1.349 . S
C332 C330 1.327 . S
C332 C351 1.429 . S
C332 H356 0.950 . S
C333 C350 1.574 1_655 S
C333 C352 1.368 . S
C333 H357 0.949 . S
H334 C338 0.949 . S
C335 C336 1.349 . S
C335 C337 1.327 . S
C335 H358 0.950 . S
C336 C335 1.349 . S
C336 C348 1.349 . S
C337 C335 1.327 . S
C337 C353 1.429 . S
C337 H359 0.950 . S
C338 H334 0.949 . S
C338 C346 1.574 1_455 S
C338 C354 1.368 . S
H339 C347 0.950 . S
H340 C345 0.950 . S
H341 C346 0.949 . S
H342 C348 0.950 . S
H343 C349 0.950 . S
H344 C350 0.949 . S
C345 H340 0.950 . S
C345 C347 1.327 . S
C345 C351 1.429 . S
C346 C338 1.574 1_655 S
C346 H341 0.949 . S
C346 C352 1.368 . S
C347 C331 1.349 . S
C347 H339 0.950 . S
C347 C345 1.327 . S
C348 C336 1.349 . S
C348 H342 0.950 . S
C348 C349 1.327 . S
C349 H343 0.950 . S
C349 C348 1.327 . S
C349 C353 1.429 . S
C350 C333 1.574 1_455 S
C350 H344 0.949 . S
C350 C354 1.368 . S
C351 C332 1.429 . S
C351 C345 1.429 . S
C351 C352 1.523 . S
C352 C333 1.368 . S
C352 C346 1.368 . S
C352 C351 1.523 . S
C353 C337 1.429 . S
C353 C349 1.429 . S
C353 C354 1.523 . S
C354 C338 1.368 . S
C354 C350 1.368 . S
C354 C353 1.523 . S
H355 C330 0.950 . S
H356 C332 0.950 . S
H357 C333 0.949 . S
H358 C335 0.950 . S
H359 C337 0.950 . S
C360 C361 1.349 . S
C360 C362 1.327 . S
C360 H385 0.950 . S
C361 C360 1.349 . S
C361 C377 1.349 . S
C362 C360 1.327 . S
C362 C381 1.429 . S
C362 H386 0.950 . S
C363 C380 1.574 . S
C363 C382 1.368 . S
C363 H387 0.949 . S
H364 C368 0.949 . S
C365 C366 1.349 . S
C365 C367 1.327 . S
C365 H388 0.950 . S
C366 C365 1.349 . S
C366 C378 1.349 . S
C367 C365 1.327 . S
C367 C383 1.429 . S
C367 H389 0.950 . S
C368 H364 0.949 . S
C368 C376 1.574 . S
C368 C384 1.368 . S
H369 C377 0.950 . S
H370 C375 0.950 . S
H371 C376 0.949 . S
H372 C378 0.950 . S
H373 C379 0.950 . S
H374 C380 0.949 . S
C375 H370 0.950 . S
C375 C377 1.327 . S
C375 C381 1.429 . S
C376 C368 1.574 . S
C376 H371 0.949 . S
C376 C382 1.368 . S
C377 C361 1.349 . S
C377 H369 0.950 . S
C377 C375 1.327 . S
C378 C366 1.349 . S
C378 H372 0.950 . S
C378 C379 1.327 . S
C379 H373 0.950 . S
C379 C378 1.327 . S
C379 C383 1.429 . S
C380 C363 1.574 . S
C380 H374 0.949 . S
C380 C384 1.368 . S
C381 C362 1.429 . S
C381 C375 1.429 . S
C381 C382 1.523 . S
C382 C363 1.368 . S
C382 C376 1.368 . S
C382 C381 1.523 . S
C383 C367 1.429 . S
C383 C379 1.429 . S
C383 C384 1.523 . S
C384 C368 1.368 . S
C384 C380 1.368 . S
C384 C383 1.523 . S
H385 C360 0.950 . S
H386 C362 0.950 . S
H387 C363 0.949 . S
H388 C365 0.950 . S
H389 C367 0.950 . S
C390 C391 1.349 . S
C390 C392 1.327 . S
C390 H415 0.950 . S
C391 C390 1.349 . S
C391 C407 1.349 . S
C392 C390 1.327 . S
C392 C411 1.429 . S
C392 H416 0.950 . S
C393 C410 1.574 . S
C393 C412 1.368 . S
C393 H417 0.949 . S
H394 C398 0.949 . S
C395 C396 1.349 . S
C395 C397 1.327 . S
C395 H418 0.950 . S
C396 C395 1.349 . S
C396 C408 1.349 . S
C397 C395 1.327 . S
C397 C413 1.429 . S
C397 H419 0.950 . S
C398 H394 0.949 . S
C398 C406 1.574 . S
C398 C414 1.368 . S
H399 C407 0.950 . S
H400 C405 0.950 . S
H401 C406 0.949 . S
H402 C408 0.950 . S
H403 C409 0.950 . S
H404 C410 0.949 . S
C405 H400 0.950 . S
C405 C407 1.327 . S
C405 C411 1.429 . S
C406 C398 1.574 . S
C406 H401 0.949 . S
C406 C412 1.368 . S
C407 C391 1.349 . S
C407 H399 0.950 . S
C407 C405 1.327 . S
C408 C396 1.349 . S
C408 H402 0.950 . S
C408 C409 1.327 . S
C409 H403 0.950 . S
C409 C408 1.327 . S
C409 C413 1.429 . S
C410 C393 1.574 . S
C410 H404 0.949 . S
C410 C414 1.368 . S
C411 C392 1.429 . S
C411 C405 1.429 . S
C411 C412 1.523 . S
C412 C393 1.368 . S
C412 C406 1.368 . S
C412 C411 1.523 . S
C413 C397 1.429 . S
C413 C409 1.429 . S
C413 C414 1.523 . S
C414 C398 1.368 . S
C414 C410 1.368 . S
C414 C413 1.523 . S
H415 C390 0.950 . S
H416 C392 0.950 . S
H417 C393 0.949 . S
H418 C395 0.950 . S
H419 C397 0.950 . S
C420 C421 1.349 . S
C420 C422 1.327 . S
C420 H445 0.950 . S
C421 C420 1.349 . S
C421 C437 1.349 . S
C422 C420 1.327 . S
C422 C441 1.429 . S
C422 H446 0.950 . S
C423 C440 1.574 . S
C423 C442 1.368 . S
C423 H447 0.949 . S
H424 C428 0.949 . S
C425 C426 1.349 . S
C425 C427 1.327 . S
C425 H448 0.950 . S
C426 C425 1.349 . S
C426 C438 1.349 . S
C427 C425 1.327 . S
C427 C443 1.429 . S
C427 H449 0.950 . S
C428 H424 0.949 . S
C428 C436 1.574 . S
C428 C444 1.368 . S
H429 C437 0.950 . S
H430 C435 0.950 . S
H431 C436 0.949 . S
H432 C438 0.950 . S
H433 C439 0.950 . S
H434 C440 0.949 . S
C435 H430 0.950 . S
C435 C437 1.327 . S
C435 C441 1.429 . S
C436 C428 1.574 . S
C436 H431 0.949 . S
C436 C442 1.368 . S
C437 C421 1.349 . S
C437 H429 0.950 . S
C437 C435 1.327 . S
C438 C426 1.349 . S
C438 H432 0.950 . S
C438 C439 1.327 . S
C439 H433 0.950 . S
C439 C438 1.327 . S
C439 C443 1.429 . S
C440 C423 1.574 . S
C440 H434 0.949 . S
C440 C444 1.368 . S
C441 C422 1.429 . S
C441 C435 1.429 . S
C441 C442 1.523 . S
C442 C423 1.368 . S
C442 C436 1.368 . S
C442 C441 1.523 . S
C443 C427 1.429 . S
C443 C439 1.429 . S
C443 C444 1.523 . S
C444 C428 1.368 . S
C444 C440 1.368 . S
C444 C443 1.523 . S
H445 C420 0.950 . S
H446 C422 0.950 . S
H447 C423 0.949 . S
H448 C425 0.950 . S
H449 C427 0.950 . S
C450 C451 1.349 . S
C450 C452 1.327 . S
C450 H475 0.950 . S
C451 C450 1.349 . S
C451 C467 1.349 . S
C452 C450 1.327 . S
C452 C471 1.429 . S
C452 H476 0.950 . S
C453 C470 1.574 . S
C453 C472 1.368 . S
C453 H477 0.949 . S
H454 C458 0.949 . S
C455 C456 1.349 . S
C455 C457 1.327 . S
C455 H478 0.950 . S
C456 C455 1.349 . S
C456 C468 1.349 . S
C457 C455 1.327 . S
C457 C473 1.429 . S
C457 H479 0.950 . S
C458 H454 0.949 . S
C458 C466 1.574 . S
C458 C474 1.368 . S
H459 C467 0.950 . S
H460 C465 0.950 . S
H461 C466 0.949 . S
H462 C468 0.950 . S
H463 C469 0.950 . S
H464 C470 0.949 . S
C465 H460 0.950 . S
C465 C467 1.327 . S
C465 C471 1.429 . S
C466 C458 1.574 . S
C466 H461 0.949 . S
C466 C472 1.368 . S
C467 C451 1.349 . S
C467 H459 0.950 . S
C467 C465 1.327 . S
C468 C456 1.349 . S
C468 H462 0.950 . S
C468 C469 1.327 . S
C469 H463 0.950 . S
C469 C468 1.327 . S
C469 C473 1.429 . S
C470 C453 1.574 . S
C470 H464 0.949 . S
C470 C474 1.368 . S
C471 C452 1.429 . S
C471 C465 1.429 . S
C471 C472 1.523 . S
C472 C453 1.368 . S
C472 C466 1.368 . S
C472 C471 1.523 . S
C473 C457 1.429 . S
C473 C469 1.429 . S
C473 C474 1.523 . S
C474 C458 1.368 . S
C474 C470 1.368 . S
C474 C473 1.523 . S
H475 C450 0.950 . S
H476 C452 0.950 . S
H477 C453 0.949 . S
H478 C455 0.950 . S
H479 C457 0.950 . S
C480 C481 1.349 . S
C480 C482 1.327 . S
C480 H505 0.950 . S
C481 C480 1.349 . S
C481 C497 1.349 . S
C482 C480 1.327 . S
C482 C501 1.429 . S
C482 H506 0.950 . S
C483 C500 1.574 . S
C483 C502 1.368 . S
C483 H507 0.949 . S
H484 C488 0.949 . S
C485 C486 1.349 . S
C485 C487 1.327 . S
C485 H508 0.950 . S
C486 C485 1.349 . S
C486 C498 1.349 . S
C487 C485 1.327 . S
C487 C503 1.429 . S
C487 H509 0.950 . S
C488 H484 0.949 . S
C488 C496 1.574 . S
C488 C504 1.368 . S
H489 C497 0.950 . S
H490 C495 0.950 . S
H491 C496 0.949 . S
H492 C498 0.950 . S
H493 C499 0.950 . S
H494 C500 0.949 . S
C495 H490 0.950 . S
C495 C497 1.327 . S
C495 C501 1.429 . S
C496 C488 1.574 . S
C496 H491 0.949 . S
C496 C502 1.368 . S
C497 C481 1.349 . S
C497 H489 0.950 . S
C497 C495 1.327 . S
C498 C486 1.349 . S
C498 H492 0.950 . S
C498 C499 1.327 . S
C499 H493 0.950 . S
C499 C498 1.327 . S
C499 C503 1.429 . S
C500 C483 1.574 . S
C500 H494 0.949 . S
C500 C504 1.368 . S
C501 C482 1.429 . S
C501 C495 1.429 . S
C501 C502 1.523 . S
C502 C483 1.368 . S
C502 C496 1.368 . S
C502 C501 1.523 . S
C503 C487 1.429 . S
C503 C499 1.429 . S
C503 C504 1.523 . S
C504 C488 1.368 . S
C504 C500 1.368 . S
C504 C503 1.523 . S
H505 C480 0.950 . S
H506 C482 0.950 . S
H507 C483 0.949 . S
H508 C485 0.950 . S
H509 C487 0.950 . S
C510 C511 1.349 . S
C510 C512 1.327 . S
C510 H535 0.950 . S
C511 C510 1.349 . S
C511 C527 1.349 . S
C512 C510 1.327 . S
C512 C531 1.429 . S
C512 H536 0.950 . S
C513 C530 1.574 . S
C513 C532 1.368 . S
C513 H537 0.949 . S
H514 C518 0.949 . S
C515 C516 1.349 . S
C515 C517 1.327 . S
C515 H538 0.950 . S
C516 C515 1.349 . S
C516 C528 1.349 . S
C517 C515 1.327 . S
C517 C533 1.429 . S
C517 H539 0.950 . S
C518 H514 0.949 . S
C518 C526 1.574 . S
C518 C534 1.368 . S
H519 C527 0.950 . S
H520 C525 0.950 . S
H521 C526 0.949 . S
H522 C528 0.950 . S
H523 C529 0.950 . S
H524 C530 0.949 . S
C525 H520 0.950 . S
C525 C527 1.327 . S
C525 C531 1.429 . S
C526 C518 1.574 . S
C526 H521 0.949 . S
C526 C532 1.368 . S
C527 C511 1.349 . S
C527 H519 0.950 . S
C527 C525 1.327 . S
C528 C516 1.349 . S
C528 H522 0.950 . S
C528 C529 1.327 . S
C529 H523 0.950 . S
C529 C528 1.327 . S
C529 C533 1.429 . S
C530 C513 1.574 . S
C530 H524 0.949 . S
C530 C534 1.368 . S
C531 C512 1.429 . S
C531 C525 1.429 . S
C531 C532 1.523 . S
C532 C513 1.368 . S
C532 C526 1.368 . S
C532 C531 1.523 . S
C533 C517 1.429 . S
C533 C529 1.429 . S
C533 C534 1.523 . S
C534 C518 1.368 . S
C534 C530 1.368 . S
C534 C533 1.523 . S
H535 C510 0.950 . S
H536 C512 0.950 . S
H537 C513 0.949 . S
H538 C515 0.950 . S
H539 C517 0.950 . S
C540 C541 1.349 . S
C540 C542 1.327 . S
C540 H565 0.950 . S
C541 C540 1.349 . S
C541 C557 1.349 . S
C542 C540 1.327 . S
C542 C561 1.429 . S
C542 H566 0.950 . S
C543 C560 1.574 . S
C543 C562 1.368 . S
C543 H567 0.949 . S
H544 C548 0.949 . S
C545 C546 1.349 . S
C545 C547 1.327 . S
C545 H568 0.950 . S
C546 C545 1.349 . S
C546 C558 1.349 . S
C547 C545 1.327 . S
C547 C563 1.429 . S
C547 H569 0.950 . S
C548 H544 0.949 . S
C548 C556 1.574 . S
C548 C564 1.368 . S
H549 C557 0.950 . S
H550 C555 0.950 . S
H551 C556 0.949 . S
H552 C558 0.950 . S
H553 C559 0.950 . S
H554 C560 0.949 . S
C555 H550 0.950 . S
C555 C557 1.327 . S
C555 C561 1.429 . S
C556 C548 1.574 . S
C556 H551 0.949 . S
C556 C562 1.368 . S
C557 C541 1.349 . S
C557 H549 0.950 . S
C557 C555 1.327 . S
C558 C546 1.349 . S
C558 H552 0.950 . S
C558 C559 1.327 . S
C559 H553 0.950 . S
C559 C558 1.327 . S
C559 C563 1.429 . S
C560 C543 1.574 . S
C560 H554 0.949 . S
C560 C564 1.368 . S
C561 C542 1.429 . S
C561 C555 1.429 . S
C561 C562 1.523 . S
C562 C543 1.368 . S
C562 C556 1.368 . S
C562 C561 1.523 . S
C563 C547 1.429 . S
C563 C559 1.429 . S
C563 C564 1.523 . S
C564 C548 1.368 . S
C564 C560 1.368 . S
C564 C563 1.523 . S
H565 C540 0.950 . S
H566 C542 0.950 . S
H567 C543 0.949 . S
H568 C545 0.950 . S
H569 C547 0.950 . S
C570 C571 1.349 . S
C570 C572 1.327 . S
C570 H595 0.950 . S
C571 C570 1.349 . S
C571 C587 1.349 . S
C572 C570 1.327 . S
C572 C591 1.429 . S
C572 H596 0.950 . S
C573 C590 1.574 . S
C573 C592 1.368 1_455 S
C573 H597 0.949 1_455 S
H574 C578 0.949 . S
C575 C576 1.349 . S
C575 C577 1.327 . S
C575 H598 0.950 . S
C576 C575 1.349 . S
C576 C588 1.349 . S
C577 C575 1.327 . S
C577 C593 1.429 . S
C577 H599 0.950 . S
C578 H574 0.949 . S
C578 C586 1.574 . S
C578 C594 1.368 . S
H579 C587 0.950 . S
H580 C585 0.950 . S
H581 C586 0.949 1_655 S
H582 C588 0.950 . S
H583 C589 0.950 . S
H584 C590 0.949 . S
C585 H580 0.950 . S
C585 C587 1.327 . S
C585 C591 1.429 . S
C586 C578 1.574 . S
C586 H581 0.949 1_455 S
C586 C592 1.368 1_455 S
C587 C571 1.349 . S
C587 H579 0.950 . S
C587 C585 1.327 . S
C588 C576 1.349 . S
C588 H582 0.950 . S
C588 C589 1.327 . S
C589 H583 0.950 . S
C589 C588 1.327 . S
C589 C593 1.429 . S
C590 C573 1.574 . S
C590 H584 0.949 . S
C590 C594 1.368 . S
C591 C572 1.429 . S
C591 C585 1.429 . S
C591 C592 1.523 . S
C592 C573 1.368 1_655 S
C592 C586 1.368 1_655 S
C592 C591 1.523 . S
C593 C577 1.429 . S
C593 C589 1.429 . S
C593 C594 1.523 . S
C594 C578 1.368 . S
C594 C590 1.368 . S
C594 C593 1.523 . S
H595 C570 0.950 . S
H596 C572 0.950 . S
H597 C573 0.949 1_655 S
H598 C575 0.950 . S
H599 C577 0.950 . S
C600 C601 1.349 . S
C600 C602 1.327 . S
C600 H625 0.950 . S
C601 C600 1.349 . S
C601 C617 1.349 . S
C602 C600 1.327 . S
C602 C621 1.429 . S
C602 H626 0.950 . S
C603 C620 1.574 . S
C603 C622 1.368 1_565 S
C603 H627 0.949 1_565 S
H604 C608 0.949 . S
C605 C606 1.349 . S
C605 C607 1.327 . S
C605 H628 0.950 . S
C606 C605 1.349 . S
C606 C618 1.349 . S
C607 C605 1.327 . S
C607 C623 1.429 . S
C607 H629 0.950 . S
C608 H604 0.949 . S
C608 C616 1.574 . S
C608 C624 1.368 . S
H609 C617 0.950 . S
H610 C615 0.950 . S
H611 C616 0.949 1_545 S
H612 C618 0.950 . S
H613 C619 0.950 . S
H614 C620 0.949 . S
C615 H610 0.950 . S
C615 C617 1.327 . S
C615 C621 1.429 . S
C616 C608 1.574 . S
C616 H611 0.949 1_565 S
C616 C622 1.368 1_565 S
C617 C601 1.349 . S
C617 H609 0.950 . S
C617 C615 1.327 . S
C618 C606 1.349 . S
C618 H612 0.950 . S
C618 C619 1.327 . S
C619 H613 0.950 . S
C619 C618 1.327 . S
C619 C623 1.429 . S
C620 C603 1.574 . S
C620 H614 0.949 . S
C620 C624 1.368 . S
C621 C602 1.429 . S
C621 C615 1.429 . S
C621 C622 1.523 . S
C622 C603 1.368 1_545 S
C622 C616 1.368 1_545 S
C622 C621 1.523 . S
C623 C607 1.429 . S
C623 C619 1.429 . S
C623 C624 1.523 . S
C624 C608 1.368 . S
C624 C620 1.368 . S
C624 C623 1.523 . S
H625 C600 0.950 . S
H626 C602 0.950 . S
H627 C603 0.949 1_545 S
H628 C605 0.950 . S
H629 C607 0.950 . S
C630 C631 1.349 . S
C630 C632 1.327 . S
C630 H655 0.950 . S
C631 C630 1.349 . S
C631 C647 1.349 . S
C632 C630 1.327 . S
C632 C651 1.429 . S
C632 H656 0.950 . S
C633 C650 1.574 . S
C633 C652 1.368 . S
C633 H657 0.949 . S
H634 C638 0.949 . S
C635 C636 1.349 . S
C635 C637 1.327 . S
C635 H658 0.950 . S
C636 C635 1.349 . S
C636 C648 1.349 . S
C637 C635 1.327 . S
C637 C653 1.429 . S
C637 H659 0.950 . S
C638 H634 0.949 . S
C638 C646 1.574 . S
C638 C654 1.368 . S
H639 C647 0.950 . S
H640 C645 0.950 . S
H641 C646 0.949 . S
H642 C648 0.950 . S
H643 C649 0.950 . S
H644 C650 0.949 . S
C645 H640 0.950 . S
C645 C647 1.327 . S
C645 C651 1.429 . S
C646 C638 1.574 . S
C646 H641 0.949 . S
C646 C652 1.368 . S
C647 C631 1.349 . S
C647 H639 0.950 . S
C647 C645 1.327 . S
C648 C636 1.349 . S
C648 H642 0.950 . S
C648 C649 1.327 . S
C649 H643 0.950 . S
C649 C648 1.327 . S
C649 C653 1.429 . S
C650 C633 1.574 . S
C650 H644 0.949 . S
C650 C654 1.368 . S
C651 C632 1.429 . S
C651 C645 1.429 . S
C651 C652 1.523 . S
C652 C633 1.368 . S
C652 C646 1.368 . S
C652 C651 1.523 . S
C653 C637 1.429 . S
C653 C649 1.429 . S
C653 C654 1.523 . S
C654 C638 1.368 . S
C654 C650 1.368 . S
C654 C653 1.523 . S
H655 C630 0.950 . S
H656 C632 0.950 . S
H657 C633 0.949 . S
H658 C635 0.950 . S
H659 C637 0.950 . S
C660 C661 1.349 . S
C660 C662 1.327 . S
C660 H685 0.950 . S
C661 C660 1.349 . S
C661 C677 1.349 . S
C662 C660 1.327 . S
C662 C681 1.429 . S
C662 H686 0.950 . S
C663 C680 1.599 . S
C663 C682 1.353 1_655 S
C663 H687 0.941 1_655 S
H664 C668 0.949 . S
C665 C666 1.349 . S
C665 C667 1.327 . S
C665 H688 0.950 . S
C666 C665 1.349 . S
C666 C678 1.349 . S
C667 C665 1.327 . S
C667 C683 1.429 . S
C667 H689 0.950 . S
C668 H664 0.949 . S
C668 C676 1.574 . S
C668 C684 1.368 . S
H669 C677 0.950 . S
H670 C675 0.950 . S
H671 C676 0.949 1_455 S
H672 C678 0.950 . S
H673 C679 0.950 . S
H674 C680 0.949 . S
C675 H670 0.950 . S
C675 C677 1.327 . S
C675 C681 1.429 . S
C676 C668 1.574 . S
C676 H671 0.949 1_655 S
C676 C682 1.368 1_655 S
C677 C661 1.349 . S
C677 H669 0.950 . S
C677 C675 1.327 . S
C678 C666 1.349 . S
C678 H672 0.950 . S
C678 C679 1.327 . S
C679 H673 0.950 . S
C679 C678 1.327 . S
C679 C683 1.429 . S
C680 C663 1.599 . S
C680 H674 0.949 . S
C680 C684 1.368 . S
C681 C662 1.429 . S
C681 C675 1.429 . S
C681 C682 1.523 . S
C682 C663 1.353 1_455 S
C682 C676 1.368 1_455 S
C682 C681 1.523 . S
C683 C667 1.429 . S
C683 C679 1.429 . S
C683 C684 1.523 . S
C684 C668 1.368 . S
C684 C680 1.368 . S
C684 C683 1.523 . S
H685 C660 0.950 . S
H686 C662 0.950 . S
H687 C663 0.941 1_455 S
H688 C665 0.950 . S
H689 C667 0.950 . S
C690 C691 1.349 . S
C690 C692 1.327 . S
C690 H715 0.950 . S
C691 C690 1.349 . S
C691 C707 1.349 . S
C692 C690 1.327 . S
C692 C711 1.429 . S
C692 H716 0.950 . S
C693 C710 1.574 . S
C693 C712 1.368 . S
C693 H717 0.949 . S
H694 C698 0.934 1_565 S
C695 C696 1.349 . S
C695 C697 1.327 . S
C695 H718 0.950 . S
C696 C695 1.349 . S
C696 C708 1.349 . S
C697 C695 1.327 . S
C697 C713 1.429 . S
C697 H719 0.950 . S
C698 H694 0.934 1_545 S
C698 C706 1.591 . S
C698 C714 1.368 1_545 S
H699 C707 0.950 . S
H700 C705 0.950 . S
H701 C706 0.949 . S
H702 C708 0.950 . S
H703 C709 0.950 . S
H704 C710 0.949 1_565 S
C705 H700 0.950 . S
C705 C707 1.327 . S
C705 C711 1.429 . S
C706 C698 1.591 . S
C706 H701 0.949 . S
C706 C712 1.368 . S
C707 C691 1.349 . S
C707 H699 0.950 . S
C707 C705 1.327 . S
C708 C696 1.349 . S
C708 H702 0.950 . S
C708 C709 1.327 . S
C709 H703 0.950 . S
C709 C708 1.327 . S
C709 C713 1.429 . S
C710 C693 1.574 . S
C710 H704 0.949 1_545 S
C710 C714 1.368 1_545 S
C711 C692 1.429 . S
C711 C705 1.429 . S
C711 C712 1.523 . S
C712 C693 1.368 . S
C712 C706 1.368 . S
C712 C711 1.523 . S
C713 C697 1.429 . S
C713 C709 1.429 . S
C713 C714 1.523 . S
C714 C698 1.368 1_565 S
C714 C710 1.368 1_565 S
C714 C713 1.523 . S
H715 C690 0.950 . S
H716 C692 0.950 . S
H717 C693 0.949 . S
H718 C695 0.950 . S
H719 C697 0.950 . S
C181 C121 2.016 . S
C186 C1 2.077 . S
C211 C160 2.146 . S
C216 C40 2.148 . S
C241 C61 2.200 . S
C246 C91 2.133 . S
C271 C10 2.173 . S
C276 C130 2.241 . S
C301 C151 2.107 . S
C306 C31 2.106 . S
C331 C70 2.053 . S
C336 C100 2.117 . S
C361 C27 1.131 . S
C366 N74 1.126 . S
C391 C46 1.130 . S
C396 N14 1.127 . S
C421 C87 1.130 . S
C426 N36 1.127 . S
C451 C106 1.133 . S
C456 N126 1.125 . S
C481 C136 1.131 . S
C486 N156 1.127 . S
C511 N96 1.128 . S
C516 C166 1.131 . S
C541 C16 0.577 . S
C546 N66 0.601 . S
C571 C57 0.577 . S
C576 N6 0.602 . S
C601 C76 0.576 . S
C606 N44 0.601 . S
C631 C117 0.577 . S
C636 N134 0.603 . S
C661 C147 0.577 . S
C666 N164 0.603 . S
C691 N104 0.601 . S
C696 C177 0.577 . S
