# Generated by pormake.
# Topology unn, (4)-cn, num edge types: 1
# Building blocks:
#     Node 0, Type 0, BuildingBlock: CEKHIL_clean_sbu_0, # of connection points: 4
#     Node 1, Type 0, BuildingBlock: CEKHIL_clean_sbu_0, # of connection points: 4
#     Node 2, Type 0, BuildingBlock: CEKHIL_clean_sbu_0, # of connection points: 4
#     Node 3, Type 0, BuildingBlock: CEKHIL_clean_sbu_0, # of connection points: 4
#     Node 4, Type 0, BuildingBlock: CEKHIL_clean_sbu_0, # of connection points: 4
#     Node 5, Type 0, BuildingBlock: CEKHIL_clean_sbu_0, # of connection points: 4
#     Node 6, Type 0, BuildingBlock: CEKHIL_clean_sbu_0, # of connection points: 4
#     Node 7, Type 0, BuildingBlock: CEKHIL_clean_sbu_0, # of connection points: 4
#     Node 8, Type 0, BuildingBlock: CEKHIL_clean_sbu_0, # of connection points: 4
#     Node 9, Type 0, BuildingBlock: CEKHIL_clean_sbu_0, # of connection points: 4
#     Node 10, Type 0, BuildingBlock: CEKHIL_clean_sbu_0, # of connection points: 4
#     Node 11, Type 0, BuildingBlock: CEKHIL_clean_sbu_0, # of connection points: 4
#     Node 12, Type 0, BuildingBlock: CEKHIL_clean_sbu_0, # of connection points: 4
#     Node 13, Type 0, BuildingBlock: CEKHIL_clean_sbu_0, # of connection points: 4
#     Node 14, Type 0, BuildingBlock: CEKHIL_clean_sbu_0, # of connection points: 4
#     Node 15, Type 0, BuildingBlock: CEKHIL_clean_sbu_0, # of connection points: 4
#     Node 16, Type 0, BuildingBlock: CEKHIL_clean_sbu_0, # of connection points: 4
#     Node 17, Type 0, BuildingBlock: CEKHIL_clean_sbu_0, # of connection points: 4
#     Edge 18, Type (0, 0), BuildingBlock: UVAHIK_clean_linker_0, # of connection points: 2
#     Edge 19, Type (0, 0), BuildingBlock: UVAHIK_clean_linker_0, # of connection points: 2
#     Edge 20, Type (0, 0), BuildingBlock: UVAHIK_clean_linker_0, # of connection points: 2
#     Edge 21, Type (0, 0), BuildingBlock: UVAHIK_clean_linker_0, # of connection points: 2
#     Edge 22, Type (0, 0), BuildingBlock: UVAHIK_clean_linker_0, # of connection points: 2
#     Edge 23, Type (0, 0), BuildingBlock: UVAHIK_clean_linker_0, # of connection points: 2
#     Edge 24, Type (0, 0), BuildingBlock: UVAHIK_clean_linker_0, # of connection points: 2
#     Edge 25, Type (0, 0), BuildingBlock: UVAHIK_clean_linker_0, # of connection points: 2
#     Edge 26, Type (0, 0), BuildingBlock: UVAHIK_clean_linker_0, # of connection points: 2
#     Edge 27, Type (0, 0), BuildingBlock: UVAHIK_clean_linker_0, # of connection points: 2
#     Edge 28, Type (0, 0), BuildingBlock: UVAHIK_clean_linker_0, # of connection points: 2
#     Edge 29, Type (0, 0), BuildingBlock: UVAHIK_clean_linker_0, # of connection points: 2
#     Edge 30, Type (0, 0), BuildingBlock: UVAHIK_clean_linker_0, # of connection points: 2
#     Edge 31, Type (0, 0), BuildingBlock: UVAHIK_clean_linker_0, # of connection points: 2
#     Edge 32, Type (0, 0), BuildingBlock: UVAHIK_clean_linker_0, # of connection points: 2
#     Edge 33, Type (0, 0), BuildingBlock: UVAHIK_clean_linker_0, # of connection points: 2
#     Edge 34, Type (0, 0), BuildingBlock: UVAHIK_clean_linker_0, # of connection points: 2
#     Edge 35, Type (0, 0), BuildingBlock: UVAHIK_clean_linker_0, # of connection points: 2
#     Edge 36, Type (0, 0), BuildingBlock: UVAHIK_clean_linker_0, # of connection points: 2
#     Edge 37, Type (0, 0), BuildingBlock: UVAHIK_clean_linker_0, # of connection points: 2
#     Edge 38, Type (0, 0), BuildingBlock: UVAHIK_clean_linker_0, # of connection points: 2
#     Edge 39, Type (0, 0), BuildingBlock: UVAHIK_clean_linker_0, # of connection points: 2
#     Edge 40, Type (0, 0), BuildingBlock: UVAHIK_clean_linker_0, # of connection points: 2
#     Edge 41, Type (0, 0), BuildingBlock: UVAHIK_clean_linker_0, # of connection points: 2
#     Edge 42, Type (0, 0), BuildingBlock: UVAHIK_clean_linker_0, # of connection points: 2
#     Edge 43, Type (0, 0), BuildingBlock: UVAHIK_clean_linker_0, # of connection points: 2
#     Edge 44, Type (0, 0), BuildingBlock: UVAHIK_clean_linker_0, # of connection points: 2
#     Edge 45, Type (0, 0), BuildingBlock: UVAHIK_clean_linker_0, # of connection points: 2
#     Edge 46, Type (0, 0), BuildingBlock: UVAHIK_clean_linker_0, # of connection points: 2
#     Edge 47, Type (0, 0), BuildingBlock: UVAHIK_clean_linker_0, # of connection points: 2
#     Edge 48, Type (0, 0), BuildingBlock: UVAHIK_clean_linker_0, # of connection points: 2
#     Edge 49, Type (0, 0), BuildingBlock: UVAHIK_clean_linker_0, # of connection points: 2
#     Edge 50, Type (0, 0), BuildingBlock: UVAHIK_clean_linker_0, # of connection points: 2
#     Edge 51, Type (0, 0), BuildingBlock: UVAHIK_clean_linker_0, # of connection points: 2
#     Edge 52, Type (0, 0), BuildingBlock: UVAHIK_clean_linker_0, # of connection points: 2
#     Edge 53, Type (0, 0), BuildingBlock: UVAHIK_clean_linker_0, # of connection points: 2
# Relax obj value: 0.132
# Max RMSD: 0.233
# Mean RMSD: 0.227
data_MOF--net-unn--node1-CEKHIL_clean_sbu_0--edge1-UVAHIK_clean_linker_0
_symmetry_space_group_name_H-M    P1
_symmetry_Int_Tables_number       1
_symmetry_cell_setting            triclinic
loop_
_symmetry_equiv_pos_as_xyz
'x, y, z'
_cell_length_a     60.048425
_cell_length_b     59.870841
_cell_length_c     48.152227
_cell_angle_alpha  90.210071
_cell_angle_beta   89.911461
_cell_angle_gamma 120.30333
loop_
_atom_site_label
_atom_site_type_symbol
_atom_site_fract_x
_atom_site_fract_y
_atom_site_fract_z
_atom_type_partial_charge
Co0 Co 0.99475 0.73818 0.26235 0.0
O1 O 0.95839 0.72314 0.25609 0.0
O2 O 0.98834 0.75884 0.23569 0.0
C3 C 0.99389 0.73455 0.30854 0.0
O4 O 0.03451 0.75919 0.26633 0.0
Co5 Co 0.01217 0.70071 0.2846 0.0
O6 O 0.04366 0.73404 0.29329 0.0
C7 C 0.99808 0.6973 0.22654 0.0
C8 C 0.96399 0.74143 0.2384 0.0
C9 C 0.04999 0.75574 0.28215 0.0
O10 O 0.99651 0.71768 0.23026 0.0
O11 O 1.00288 0.68598 0.24612 0.0
O12 O 0.99261 0.75359 0.29726 0.0
O13 O 0.99129 0.71658 0.29159 0.0
Co14 Co 0.28147 0.28919 0.22916 0.0
O15 O 0.26817 0.31123 0.23911 0.0
O16 O 0.24682 0.2689 0.24525 0.0
C17 C 0.29572 0.30817 0.1877 0.0
O18 O 0.29025 0.26089 0.21917 0.0
Co19 Co 0.34064 0.31535 0.21946 0.0
O20 O 0.33117 0.28146 0.20289 0.0
C21 C 0.31994 0.31153 0.27578 0.0
C22 C 0.24742 0.29094 0.24743 0.0
C23 C 0.30959 0.26097 0.20709 0.0
O24 O 0.29738 0.29464 0.26701 0.0
O25 O 0.33933 0.32376 0.25961 0.0
O26 O 0.27191 0.28972 0.1906 0.0
O27 O 0.30933 0.31523 0.21008 0.0
Co28 Co 0.74149 0.99028 0.19414 0.0
O29 O 0.72193 0.95317 0.19573 0.0
O30 O 0.75841 0.97723 0.21841 0.0
C31 C 0.73963 0.99499 0.14827 0.0
O32 O 0.7667 0.02957 0.19564 0.0
Co33 Co 0.71076 0.01703 0.17585 0.0
O34 O 0.74561 0.04827 0.17673 0.0
C35 C 0.70292 0.99563 0.23145 0.0
C36 C 0.73885 0.95426 0.21315 0.0
C37 C 0.76583 0.04953 0.18685 0.0
O38 O 0.72203 0.99207 0.22719 0.0
O39 O 0.69348 1.00338 0.21256 0.0
O40 O 0.75645 0.98955 0.1583 0.0
O41 O 0.72244 0.99328 0.16564 0.0
Co42 Co 0.03379 0.30031 0.72215 0.0
O43 O 0.06633 0.31961 0.74071 0.0
O44 O 0.04699 0.27752 0.73296 0.0
C45 C 0.04544 0.32937 0.68767 0.0
O46 O 0.99949 0.27471 0.70257 0.0
Co47 Co 1.00041 0.32599 0.71548 0.0
O48 O 0.98175 0.29803 0.68803 0.0
C49 C 1.00623 0.30776 0.77044 0.0
C50 C 0.06673 0.29837 0.74304 0.0
C51 C 0.98253 0.27717 0.68837 0.0
O52 O 0.01603 0.2953 0.75886 0.0
O53 O 1.00051 0.32261 0.75697 0.0
O54 O 0.05095 0.31102 0.68635 0.0
O55 O 0.03416 0.33017 0.71016 0.0
Co56 Co 0.74308 0.7153 0.76464 0.0
O57 O 0.75469 0.69267 0.7512 0.0
O58 O 0.76873 0.73198 0.73507 0.0
C59 C 0.74538 0.70946 0.81029 0.0
O60 O 0.73467 0.7437 0.77532 0.0
Co61 Co 0.69077 0.68898 0.79672 0.0
O62 O 0.70319 0.72535 0.8077 0.0
C63 C 0.69 0.68675 0.73609 0.0
C64 C 0.76925 0.71047 0.73372 0.0
C65 C 0.72015 0.74504 0.79444 0.0
O66 O 0.71473 0.70108 0.73617 0.0
O67 O 0.67657 0.67819 0.75825 0.0
O68 O 0.76612 0.72541 0.79674 0.0
O69 O 0.72553 0.69495 0.79505 0.0
Co70 Co 0.30353 0.04003 0.77992 0.0
O71 O 0.32486 0.07635 0.77282 0.0
O72 O 0.28648 0.0519 0.75405 0.0
C73 C 0.30869 0.04117 0.82606 0.0
O74 O 0.27652 1.00121 0.78457 0.0
Co75 Co 0.3325 0.0126 0.80173 0.0
O76 O 0.29671 0.98565 0.81107 0.0
C77 C 0.33595 0.0252 0.74301 0.0
C78 C 0.30738 0.07458 0.75583 0.0
C79 C 0.27641 0.9834 0.79995 0.0
O80 O 0.31945 0.03246 0.74727 0.0
O81 O 0.3452 0.01775 0.76241 0.0
O82 O 0.2921 0.04666 0.81544 0.0
O83 O 0.32393 0.03935 0.80842 0.0
Co84 Co 0.67776 0.06216 0.56124 0.0
O85 O 0.64348 0.0418 0.54688 0.0
O86 O 0.66675 0.08433 0.54303 0.0
C87 C 0.66747 0.04168 0.60233 0.0
O88 O 0.71445 0.08852 0.57516 0.0
Co89 Co 0.70582 0.03187 0.57535 0.0
O90 O 0.73032 0.06482 0.59389 0.0
C91 C 0.69272 0.03696 0.51795 0.0
C92 C 0.6452 0.06288 0.538 0.0
C93 C 0.73167 0.08645 0.58935 0.0
O94 O 0.69129 0.05681 0.52532 0.0
O95 O 0.69576 0.02256 0.53531 0.0
O96 O 0.66403 0.06119 0.59824 0.0
O97 O 0.67551 0.03463 0.58109 0.0
Co98 Co 0.95239 0.60721 0.56485 0.0
O99 O 0.97036 0.58936 0.55499 0.0
O100 O 0.94305 0.59296 0.52722 0.0
C101 C 0.94101 0.59061 0.60744 0.0
O102 O 0.92971 0.6238 0.57009 0.0
Co103 Co 0.97587 0.6471 0.61366 0.0
O104 O 0.94388 0.64849 0.60897 0.0
C105 C 1.00046 0.66111 0.55925 0.0
C106 C 0.9589 0.58438 0.53117 0.0
C107 C 0.92806 0.63848 0.58885 0.0
O108 O 0.9815 0.6402 0.54925 0.0
O109 O 1.00296 0.66699 0.58506 0.0
O110 O 0.92731 0.57717 0.5863 0.0
O111 O 0.9622 0.61159 0.60177 0.0
Co112 Co 0.41876 0.36539 0.59397 0.0
O113 O 0.43617 0.40234 0.5903 0.0
O114 O 0.44573 0.37722 0.56554 0.0
C115 C 0.41777 0.36283 0.64024 0.0
O116 O 0.40434 0.32591 0.59444 0.0
Co117 Co 0.36376 0.3399 0.62008 0.0
O118 O 0.36782 0.30909 0.62021 0.0
C119 C 0.3705 0.35769 0.56311 0.0
C120 C 0.44987 0.40044 0.57066 0.0
C121 C 0.38514 0.30689 0.60724 0.0
O122 O 0.39376 0.36217 0.56439 0.0
O123 O 0.3551 0.34998 0.58382 0.0
O124 O 0.43871 0.36794 0.62697 0.0
O125 O 0.40035 0.36394 0.62556 0.0
Co126 Co 0.6662 0.61806 0.08926 0.0
O127 O 0.63022 0.59978 0.07997 0.0
O128 O 0.66042 0.60016 0.05347 0.0
C129 C 0.66197 0.6057 0.13367 0.0
O130 O 0.70565 0.63521 0.09395 0.0
Co131 Co 0.68349 0.66213 0.13334 0.0
O132 O 0.71621 0.66174 0.13129 0.0
C133 C 0.6753 0.67227 0.07608 0.0
C134 C 0.6361 0.59281 0.05695 0.0
C135 C 0.72202 0.65073 0.11222 0.0
O136 O 0.67042 0.64942 0.06943 0.0
O137 O 0.68007 0.68112 0.1009 0.0
O138 O 0.66205 0.59058 0.11426 0.0
O139 O 0.6611 0.62569 0.12536 0.0
Co140 Co 0.43365 0.07383 0.08987 0.0
O141 O 0.45085 0.05607 0.07747 0.0
O142 O 0.4474 0.08505 0.05233 0.0
C143 C 0.45176 0.08335 0.13183 0.0
O144 O 0.41703 0.09609 0.09855 0.0
Co145 Co 0.39573 0.04852 0.13926 0.0
O146 O 0.40015 0.08356 0.14147 0.0
C147 C 0.37861 0.02769 0.08336 0.0
C148 C 0.45567 0.06872 0.05454 0.0
C149 C 0.40692 0.09913 0.12103 0.0
O150 O 0.40038 0.04555 0.07388 0.0
O151 O 0.37283 0.02472 0.10918 0.0
O152 O 0.46396 0.09837 0.11106 0.0
O153 O 0.4307 0.06214 0.12604 0.0
Co154 Co 0.98567 0.36632 0.10531 0.0
O155 O 0.0096 0.40268 0.10118 0.0
O156 O 0.97042 0.38248 0.08314 0.0
C157 C 0.9911 0.36312 0.15083 0.0
O158 O 0.95601 0.32849 0.10703 0.0
Co159 Co 0.01014 0.33269 0.12074 0.0
O160 O 0.97341 0.30569 0.12476 0.0
C161 C 0.01298 0.34926 0.06332 0.0
C162 C 0.9924 0.40395 0.08619 0.0
C163 C 0.95416 0.30738 0.11643 0.0
O164 O 0.99895 0.35898 0.07014 0.0
O165 O 0.02141 0.33935 0.08095 0.0
O166 O 0.97619 0.37168 0.14249 0.0
O167 O 1.005 0.3609 0.13174 0.0
Co168 Co 0.34689 0.4065 0.8976 0.0
O169 O 0.31047 0.38618 0.89125 0.0
O170 O 0.33833 0.41257 0.86012 0.0
C171 C 0.34383 0.42037 0.93968 0.0
O172 O 0.38631 0.43131 0.89927 0.0
Co173 Co 0.36852 0.38881 0.94646 0.0
O174 O 0.3995 0.42303 0.93999 0.0
C175 C 0.35622 0.36065 0.8938 0.0
C176 C 0.31444 0.39617 0.86676 0.0
C177 C 0.40363 0.43654 0.91817 0.0
O178 O 0.3514 0.37745 0.88316 0.0
O179 O 0.3621 0.36073 0.91932 0.0
O180 O 0.34218 0.43221 0.91793 0.0
O181 O 0.34426 0.39935 0.93521 0.0
Co182 Co 0.60239 0.94388 0.88948 0.0
O183 O 0.58541 0.96195 0.90158 0.0
O184 O 0.58878 0.93314 0.92714 0.0
C185 C 0.58409 0.93411 0.84761 0.0
O186 O 0.61873 0.9213 0.88127 0.0
Co187 Co 0.64002 0.96825 0.83958 0.0
O188 O 0.63588 0.9333 0.83838 0.0
C189 C 0.65714 0.99058 0.89499 0.0
C190 C 0.58061 0.94954 0.92467 0.0
C191 C 0.62894 0.91795 0.85904 0.0
O192 O 0.63583 0.97238 0.90503 0.0
O193 O 0.66245 0.99326 0.86905 0.0
O194 O 0.57184 0.91926 0.86847 0.0
O195 O 0.60531 0.95517 0.85324 0.0
Co196 Co 0.07176 0.66706 0.89993 0.0
O197 O 0.05082 0.63231 0.91258 0.0
O198 O 0.09218 0.6564 0.9224 0.0
C199 C 0.05605 0.65712 0.8565 0.0
O200 O 0.09869 0.70436 0.88825 0.0
Co201 Co 0.04266 0.69457 0.87988 0.0
O202 O 0.0766 0.71861 0.86316 0.0
C203 C 0.04487 0.68519 0.93935 0.0
C204 C 0.0708 0.63419 0.92474 0.0
C205 C 0.09773 0.7209 0.87171 0.0
O206 O 0.06252 0.67968 0.93413 0.0
O207 O 0.03286 0.6898 0.92032 0.0
O208 O 0.07523 0.65422 0.86392 0.0
O209 O 0.0463 0.66443 0.87593 0.0
Co210 Co 0.35753 0.95846 0.40906 0.0
O211 O 0.39011 0.97959 0.42692 0.0
O212 O 0.37038 0.93694 0.42513 0.0
C213 C 0.36959 0.98324 0.37083 0.0
O214 O 0.32307 0.93123 0.39109 0.0
Co215 Co 0.32527 0.98416 0.39562 0.0
O216 O 0.30624 0.95357 0.37133 0.0
C217 C 0.33153 0.97244 0.45348 0.0
C218 C 0.39023 0.95876 0.4332 0.0
C219 C 0.30652 0.93266 0.37504 0.0
O220 O 0.33999 0.95786 0.44463 0.0
O221 O 0.32645 0.98626 0.43734 0.0
O222 O 0.37447 0.96454 0.37331 0.0
O223 O 0.35863 0.98699 0.39198 0.0
Co224 Co 0.09826 0.42019 0.41629 0.0
O225 O 0.11434 0.39952 0.41595 0.0
O226 O 0.1121 0.42034 0.37933 0.0
C227 C 0.11557 0.4408 0.45617 0.0
O228 O 0.08286 0.44388 0.41086 0.0
Co229 Co 0.05909 0.4089 0.46444 0.0
O230 O 0.06221 0.44158 0.45104 0.0
C231 C 0.04314 0.37347 0.4173 0.0
C232 C 0.11914 0.40478 0.38986 0.0
C233 C 0.07095 0.45155 0.42732 0.0
O234 O 0.06472 0.38888 0.4055 0.0
O235 O 0.03699 0.37709 0.44163 0.0
O236 O 0.12888 0.44914 0.43341 0.0
O237 O 0.09422 0.41901 0.45448 0.0
Co238 Co 0.64811 0.6956 0.4156 0.0
O239 O 0.67134 0.73092 0.40573 0.0
O240 O 0.63668 0.70478 0.38146 0.0
C241 C 0.64556 0.70338 0.46067 0.0
O242 O 0.6196 0.65757 0.42179 0.0
Co243 Co 0.66884 0.6706 0.45741 0.0
O244 O 0.63163 0.64463 0.46019 0.0
C245 C 0.68379 0.67506 0.39873 0.0
C246 C 0.65697 0.72776 0.38444 0.0
C247 C 0.61507 0.64126 0.44166 0.0
O248 O 0.66909 0.68434 0.39317 0.0
O249 O 0.68741 0.66944 0.4233 0.0
O250 O 0.63096 0.70616 0.44282 0.0
O251 O 0.66274 0.69882 0.45041 0.0
C252 C 0.98065 0.69265 0.17884 0.0
C253 C 0.99543 0.68779 0.19783 0.0
C254 C 0.98132 0.68785 0.15064 0.0
C255 C 1.00368 0.6577 0.09853 0.0
H256 H 0.01355 0.71557 0.05336 0.0
C257 C 0.04872 0.67743 0.9896 0.0
C258 C 0.03747 0.68491 0.9687 0.0
C259 C 0.04077 0.67549 0.01712 0.0
C260 C 0.01043 0.69908 0.06558 0.0
H261 H 0.02112 0.67254 0.20263 0.0
H262 H 0.02286 0.66471 0.15303 0.0
H263 H 1.00338 0.71449 0.10237 0.0
H264 H 0.00915 0.69643 0.96048 0.0
H265 H 0.99536 0.69315 0.00874 0.0
H266 H 0.01152 0.64275 0.06167 0.0
C267 C 0.01047 0.6719 0.16 0.0
C268 C 1.00453 0.69839 0.09367 0.0
C269 C 0.00955 0.67642 0.18838 0.0
C270 C 0.01828 0.69072 0.97606 0.0
C271 C 0.01039 0.68886 0.00367 0.0
C272 C 0.00968 0.65844 0.07039 0.0
C273 C 0.99704 0.67842 0.14077 0.0
C274 C 1.00132 0.67782 0.11053 0.0
C275 C 0.02145 0.68105 0.02441 0.0
C276 C 0.0134 0.6793 0.05375 0.0
H277 H 0.96921 0.70099 0.18569 0.0
H278 H 0.97021 0.69242 0.13644 0.0
H279 H 1.00103 0.64146 0.11091 0.0
H280 H 0.06353 0.67275 0.98475 0.0
H281 H 0.04995 0.66987 0.03274 0.0
C282 C 0.36498 0.44142 0.98372 0.0
C283 C 0.34242 0.42824 0.96791 0.0
C284 C 0.36356 0.44032 0.01264 0.0
C285 C 0.31719 0.40961 0.07166 0.0
H286 H 0.36214 0.38237 0.08844 0.0
C287 C 0.28673 0.32295 0.14307 0.0
C288 C 0.30457 0.32471 0.16299 0.0
C289 C 0.29428 0.34181 0.12259 0.0
C290 C 0.34975 0.39029 0.08437 0.0
H291 H 0.30079 0.40605 0.96892 0.0
H292 H 0.29807 0.40351 0.01919 0.0
H293 H 0.3711 0.40994 0.04834 0.0
H294 H 0.3445 0.34657 0.17636 0.0
H295 H 0.35778 0.37925 0.14013 0.0
H296 H 0.29487 0.38823 0.10687 0.0
C297 C 0.31689 0.41519 0.00983 0.0
C298 C 0.355 0.40636 0.06151 0.0
C299 C 0.31836 0.41653 0.98098 0.0
C300 C 0.33037 0.34479 0.16122 0.0
C301 C 0.33795 0.36354 0.14062 0.0
C302 C 0.31182 0.39333 0.09443 0.0
C303 C 0.33956 0.42546 0.02585 0.0
C304 C 0.33815 0.4153 0.05419 0.0
C305 C 0.31981 0.36255 0.12158 0.0
C306 C 0.32752 0.38275 0.10026 0.0
H307 H 0.38372 0.45053 0.97379 0.0
H308 H 0.38132 0.44892 0.02449 0.0
H309 H 0.3041 0.41652 0.06681 0.0
H310 H 0.26672 0.30769 0.144 0.0
H311 H 0.28009 0.34031 0.10767 0.0
C312 C 0.72412 0.01271 0.11127 0.0
C313 C 0.74192 0.00562 0.12018 0.0
C314 C 0.72596 0.02273 0.08478 0.0
C315 C 0.7476 0.01892 0.01558 0.0
H316 H 0.72191 0.06545 0.00018 0.0
C317 C 0.70311 0.01588 0.91045 0.0
C318 C 0.677 0.00782 0.91495 0.0
C319 C 0.72095 0.02715 0.9321 0.0
C320 C 0.72963 0.05284 0.00406 0.0
H321 H 0.77617 1.00426 0.10879 0.0
H322 H 0.77922 0.0216 0.06206 0.0
H323 H 0.73601 0.06317 0.04709 0.0
H324 H 0.64947 0.00753 0.94427 0.0
H325 H 0.68049 0.02749 0.98176 0.0
H326 H 0.73967 0.00738 0.97302 0.0
C327 C 0.76382 0.01933 0.07565 0.0
C328 C 0.73755 0.0514 0.0309 0.0
C329 C 0.76201 0.00932 0.10231 0.0
C330 C 0.66947 0.01341 0.94039 0.0
C331 C 0.68732 0.02508 0.96176 0.0
C332 C 0.73984 0.02048 0.9887 0.0
C333 C 0.74565 0.02592 0.06653 0.0
C334 C 0.74502 0.03322 0.03727 0.0
C335 C 0.71296 0.03098 0.95824 0.0
C336 C 0.72928 0.03627 0.98315 0.0
H337 H 0.70847 0.01017 0.12459 0.0
H338 H 0.71127 0.02703 0.07824 0.0
H339 H 0.75327 1.00472 0.01978 0.0
H340 H 0.70935 0.01171 0.89098 0.0
H341 H 0.74062 0.03154 0.9289 0.0
C342 C 0.67612 1.00296 0.48135 0.0
C343 C 0.68861 0.02927 0.48854 0.0
C344 C 0.67062 0.99529 0.45366 0.0
C345 C 0.66982 0.02007 0.38262 0.0
H346 H 0.67817 0.96252 0.36007 0.0
C347 C 0.70483 0.98611 0.28143 0.0
C348 C 0.69294 0.99233 0.26013 0.0
C349 C 0.6978 0.98585 0.30899 0.0
C350 C 0.67581 0.97868 0.36597 0.0
H351 H 0.70506 0.06824 0.47267 0.0
H352 H 0.69718 0.05509 0.42408 0.0
H353 H 0.67998 0.97304 0.40882 0.0
H354 H 0.6631 1.00155 0.25102 0.0
H355 H 0.65029 1.00044 0.2994 0.0
H356 H 0.66803 0.02706 0.33944 0.0
C357 C 0.69062 0.0402 0.43978 0.0
C358 C 0.67645 0.98452 0.39408 0.0
C359 C 0.69551 0.04782 0.46759 0.0
C360 C 0.6728 0.99692 0.26695 0.0
C361 C 0.66557 0.99642 0.29468 0.0
C362 C 0.66975 0.01456 0.3544 0.0
C363 C 0.6781 0.0138 0.43244 0.0
C364 C 0.67419 0.00575 0.40277 0.0
C365 C 0.67842 0.99146 0.31606 0.0
C366 C 0.6736 0.99431 0.34575 0.0
H367 H 0.67001 0.98822 0.49721 0.0
H368 H 0.66038 0.97479 0.44898 0.0
H369 H 0.66724 0.03608 0.38853 0.0
H370 H 0.72036 0.98237 0.27702 0.0
H371 H 0.70852 0.98243 0.32481 0.0
C372 C 0.02884 0.70671 0.54362 0.0
C373 C 0.01869 0.68008 0.53929 0.0
C374 C 0.04053 0.72406 0.52168 0.0
C375 C 0.06037 0.72847 0.4475 0.0
H376 H 0.0147 0.75593 0.43686 0.0
C377 C 0.00767 0.71674 0.34711 0.0
C378 C 1.00402 0.73655 0.33685 0.0
C379 C 0.0197 0.71952 0.3726 0.0
C380 C 0.0282 0.74913 0.4396 0.0
H381 H 0.01555 0.651 0.51011 0.0
H382 H 0.03596 0.68102 0.4721 0.0
H383 H 0.02147 0.74473 0.4833 0.0
H384 H 0.00981 0.77475 0.34534 0.0
H385 H 0.0302 0.77922 0.39066 0.0
H386 H 0.06524 0.73083 0.40337 0.0
C387 C 0.03494 0.68873 0.49214 0.0
C388 C 0.0322 0.7428 0.46627 0.0
C389 C 0.02296 0.67143 0.51383 0.0
C390 C 0.01222 0.75907 0.35285 0.0
C391 C 0.02407 0.76175 0.37861 0.0
C392 C 0.05632 0.73476 0.42084 0.0
C393 C 0.04254 0.71498 0.49537 0.0
C394 C 0.04687 0.73073 0.47017 0.0
C395 C 0.02813 0.74207 0.38855 0.0
C396 C 0.03884 0.74348 0.41654 0.0
H397 H 0.02583 0.71386 0.56314 0.0
H398 H 0.04636 0.74422 0.52474 0.0
H399 H 0.07215 0.71964 0.45003 0.0
H400 H 1.00153 0.69915 0.33528 0.0
H401 H 0.02191 0.70371 0.38011 0.0
C402 C 0.37868 0.37742 0.51634 0.0
C403 C 0.36111 0.35981 0.53563 0.0
C404 C 0.37184 0.3759 0.48852 0.0
C405 C 0.31901 0.34465 0.43709 0.0
H406 H 0.37262 0.34363 0.39297 0.0
C407 C 0.30318 0.30421 0.32468 0.0
C408 C 0.32344 0.31787 0.30574 0.0
C409 C 0.30641 0.31095 0.35281 0.0
C410 C 0.35759 0.34424 0.40483 0.0
H411 H 0.32195 0.32833 0.54165 0.0
H412 H 0.3101 0.32521 0.49257 0.0
H413 H 0.38005 0.35453 0.44185 0.0
H414 H 0.3628 0.34972 0.30149 0.0
H415 H 0.36829 0.3616 0.35024 0.0
H416 H 0.29646 0.33397 0.39975 0.0
C417 C 0.32905 0.34036 0.49906 0.0
C418 C 0.36186 0.35055 0.43287 0.0
C419 C 0.33582 0.34211 0.52711 0.0
C420 C 0.3469 0.33854 0.3155 0.0
C421 C 0.35005 0.34534 0.3435 0.0
C422 C 0.31474 0.33839 0.40882 0.0
C423 C 0.34744 0.35646 0.47937 0.0
C424 C 0.3427 0.35091 0.44931 0.0
C425 C 0.32995 0.33154 0.3625 0.0
C426 C 0.33405 0.33817 0.39243 0.0
H427 H 0.39817 0.39156 0.52253 0.0
H428 H 0.38617 0.389 0.47388 0.0
H429 H 0.30391 0.34476 0.44932 0.0
H430 H 0.28479 0.28824 0.31783 0.0
H431 H 0.29067 0.29979 0.36702 0.0
C432 C 0.01373 0.29456 0.8173 0.0
C433 C 1.00336 0.30658 0.80101 0.0
C434 C 0.01405 0.2965 0.84624 0.0
C435 C 0.98619 0.3143 0.90515 0.0
H436 H 0.05075 0.33277 0.94188 0.0
C437 C 0.00848 0.35846 0.01376 0.0
C438 C 0.01699 0.34703 0.03334 0.0
C439 C 0.00799 0.35291 0.98558 0.0
C440 C 0.03255 0.32739 0.93192 0.0
H441 H 0.9841 0.32903 0.8025 0.0
H442 H 0.98491 0.3326 0.85271 0.0
H443 H 0.0455 0.32177 0.89246 0.0
H444 H 0.03332 0.32215 0.03836 0.0
H445 H 0.0326 0.31263 0.98887 0.0
H446 H 0.97347 0.32049 0.94439 0.0
C447 C 0.99262 0.32149 0.84321 0.0
C448 C 0.02947 0.32096 0.90369 0.0
C449 C 0.99229 0.31956 0.81435 0.0
C450 C 0.0266 0.33124 0.02386 0.0
C451 C 0.02618 0.32576 -0.00446 0.0
C452 C 0.98934 0.32086 0.93324 0.0
C453 C 1.00395 0.31043 0.85946 0.0
C454 C 1.00638 0.31474 0.88992 0.0
C455 C 0.01609 0.33591 0.97629 0.0
C456 C 0.01268 0.32787 0.94679 0.0
H457 H 0.02242 0.28439 0.80772 0.0
H458 H 0.02259 0.28745 0.85824 0.0
H459 H 0.968 0.30911 0.89528 0.0
H460 H 1.00125 0.37098 0.02024 0.0
H461 H 1.00068 0.36148 0.97108 0.0
C462 C 0.70008 0.71504 0.05276 0.0
C463 C 0.67876 0.68977 0.05305 0.0
C464 C 0.70821 0.72873 0.02779 0.0
C465 C 0.73239 0.73332 0.97088 0.0
H466 H 0.68774 0.72432 0.90862 0.0
C467 C 0.71885 0.69617 0.85316 0.0
C468 C 0.74224 0.71314 0.84002 0.0
C469 C 0.71346 0.70184 0.87949 0.0
C470 C 0.70054 0.72728 0.92585 0.0
H471 H 0.64743 0.66017 0.02867 0.0
H472 H 0.66115 0.68404 0.98541 0.0
H473 H 0.67204 0.72203 0.95593 0.0
H474 H 0.77894 0.74876 0.84466 0.0
H475 H 0.76971 0.75824 0.89152 0.0
H476 H 0.76025 0.73685 0.9407 0.0
C477 C 0.67181 0.6934 0.00414 0.0
C478 C 0.69161 0.72609 0.95286 0.0
C479 C 0.66397 0.67961 0.0289 0.0
C480 C 0.76078 0.73526 0.85438 0.0
C481 C 0.75545 0.74082 0.88101 0.0
C482 C 0.74135 0.7346 0.94381 0.0
C483 C 0.69482 0.71745 0.00301 0.0
C484 C 0.70689 0.72755 0.97562 0.0
C485 C 0.73144 0.72448 0.89341 0.0
C486 C 0.72492 0.73008 0.92118 0.0
H487 H 0.71186 0.72321 0.07116 0.0
H488 H 0.72591 0.7473 0.02749 0.0
H489 H 0.74458 0.73437 0.98799 0.0
H490 H 0.70426 0.67891 0.84269 0.0
H491 H 0.69509 0.68853 0.88896 0.0
C492 C 0.33332 0.00669 0.06594 0.0
C493 C 0.35875 0.01186 0.06274 0.0
C494 C 0.31651 0.9983 0.0432 0.0
C495 C 0.30964 0.97706 0.96938 0.0
H496 H 0.29414 0.0317 0.95641 0.0
C497 C 0.32381 0.02459 0.86458 0.0
C498 C 0.30665 0.03223 0.85493 0.0
C499 C 0.32096 0.0142 0.89104 0.0
C500 C 0.29761 0.01584 0.95981 0.0
H501 H 0.38572 0.00967 0.03457 0.0
H502 H 0.35646 0.99465 -0.00481 0.0
H503 H 0.30386 0.02402 0.00326 0.0
H504 H 0.27303 0.0351 0.86541 0.0
H505 H 0.26841 0.01737 0.91225 0.0
H506 H 0.30514 0.97012 0.92557 0.0
C507 C 0.34936 0.99713 0.01498 0.0
C508 C 0.3031 0.01135 0.9867 0.0
C509 C 0.36623 0.00591 0.03747 0.0
C510 C 0.28667 0.02954 0.87242 0.0
C511 C 0.28392 0.01926 0.89911 0.0
C512 C 0.30413 0.98152 0.94252 0.0
C513 C 0.32481 0.99453 0.0172 0.0
C514 C 0.31065 0.99295 0.99144 0.0
C515 C 0.30096 0.01132 0.90857 0.0
C516 C 0.29958 1.00196 0.9373 0.0
H517 H 0.32718 0.01126 0.08525 0.0
H518 H 0.29765 0.99635 0.04546 0.0
H519 H 0.31502 0.9625 0.97255 0.0
H520 H 0.33942 0.02646 0.85163 0.0
H521 H 0.33483 0.0089 0.898 0.0
C522 C 0.33834 0.03788 0.69356 0.0
C523 C 0.3426 0.02366 0.71387 0.0
C524 C 0.33964 0.03308 0.66551 0.0
C525 C 0.36033 1.00176 0.61416 0.0
H526 H 0.29968 0.99171 0.57451 0.0
C527 C 0.33739 0.96189 0.50221 0.0
C528 C 0.32972 0.97498 0.48382 0.0
C529 C 0.33877 0.96672 0.53071 0.0
C530 C 0.31684 0.99468 0.58519 0.0
H531 H 0.35361 0.99475 0.7208 0.0
H532 H 0.35575 0.98622 0.67139 0.0
H533 H 0.30536 1.00447 0.62315 0.0
H534 H 0.3167 1.00279 0.48111 0.0
H535 H 0.3193 0.0113 0.53071 0.0
H536 H 0.37189 0.99217 0.57598 0.0
C537 C 0.35141 1.00108 0.67734 0.0
C538 C 0.32012 1.00202 0.61302 0.0
C539 C 0.35019 0.00596 0.70557 0.0
C540 C 0.3226 0.99229 0.49466 0.0
C541 C 0.32402 0.99714 0.52313 0.0
C542 C 0.3571 0.99451 0.58618 0.0
C543 C 0.34513 0.0139 0.65715 0.0
C544 C 0.342 0.00589 0.62769 0.0
C545 C 0.3325 0.9847 0.5414 0.0
C546 C 0.3354 0.9911 0.57138 0.0
H547 H 0.33292 0.05202 0.69934 0.0
H548 H 0.33537 0.04371 0.65032 0.0
H549 H 0.37737 1.00467 0.62503 0.0
H550 H 0.343 0.9484 0.4946 0.0
H551 H 0.34497 0.95654 0.54435 0.0
C552 C 0.07604 0.3541 0.64965 0.0
C553 C 0.05686 0.35133 0.66832 0.0
C554 C 0.0891 0.37632 0.63353 0.0
C555 C 0.08058 0.42466 0.59988 0.0
H556 H 0.15375 0.45507 0.58518 0.0
C557 C 0.11431 0.46651 0.49572 0.0
C558 C 0.12515 0.4531 0.48311 0.0
C559 C 0.11519 0.46935 0.52456 0.0
C560 C 0.13338 0.4471 0.58925 0.0
H561 H 0.03592 0.3693 0.68454 0.0
H562 H 0.05828 0.40795 0.65542 0.0
H563 H 0.13459 0.42689 0.62532 0.0
H564 H 0.14789 0.43485 0.48947 0.0
H565 H 0.1489 0.43894 0.53957 0.0
H566 H 0.0785 0.44243 0.56264 0.0
C567 C 0.06346 0.39308 0.65375 0.0
C568 C 0.12245 0.43097 0.61219 0.0
C569 C 0.05058 0.37094 0.67019 0.0
C570 C 0.13956 0.44541 0.49898 0.0
C571 C 0.14017 0.44791 0.52779 0.0
C572 C 0.09141 0.44047 0.57678 0.0
C573 C 0.08305 0.39607 0.63555 0.0
C574 C 0.09571 0.41845 0.61667 0.0
C575 C 0.12622 0.45806 0.54102 0.0
C576 C 0.11761 0.45046 0.57016 0.0
H577 H 0.08138 0.33936 0.64787 0.0
H578 H 0.10367 0.37786 0.6191 0.0
H579 H 0.05992 0.41529 0.60295 0.0
H580 H 0.10324 0.47272 0.48362 0.0
H581 H 0.10492 0.47796 0.53406 0.0
C582 C 0.6171 0.69313 0.5023 0.0
C583 C 0.64185 0.7034 0.49073 0.0
C584 C 0.61387 0.69096 0.53118 0.0
C585 C 0.64805 0.71729 0.59623 0.0
H586 H 0.61652 0.6474 0.62512 0.0
C587 C 0.69118 0.69215 0.68477 0.0
C588 C 0.67659 0.68265 0.7092 0.0
C589 C 0.67952 0.69294 0.66018 0.0
C590 C 0.62473 0.66699 0.61748 0.0
H591 H 0.68255 0.72023 0.49964 0.0
H592 H 0.67707 0.71735 0.54987 0.0
H593 H 0.60858 0.65445 0.57676 0.0
H594 H 0.63785 0.6646 0.72634 0.0
H595 H 0.61735 0.66558 0.68262 0.0
H596 H 0.66592 0.72976 0.63603 0.0
C597 C 0.66018 0.71077 0.53683 0.0
C598 C 0.62015 0.67103 0.58997 0.0
C599 C 0.66331 0.71231 0.50818 0.0
C600 C 0.64966 0.67215 0.70792 0.0
C601 C 0.63791 0.67275 0.68303 0.0
C602 C 0.6526 0.71328 0.62356 0.0
C603 C 0.63547 0.69979 0.54855 0.0
C604 C 0.63294 0.69612 0.57883 0.0
C605 C 0.65301 0.68401 0.65935 0.0
C606 C 0.64209 0.68805 0.63385 0.0
H607 H 0.60027 0.68587 0.48905 0.0
H608 H 0.59465 0.68222 0.5399 0.0
H609 H 0.65802 0.73679 0.58801 0.0
H610 H 0.71188 0.70009 0.68481 0.0
H611 H 0.69139 0.70127 0.64189 0.0
C612 C 0.34229 0.33439 0.85057 0.0
C613 C 0.35743 0.34205 0.87469 0.0
C614 C 0.34748 0.322 0.82915 0.0
C615 C 0.3618 0.29598 0.78502 0.0
H616 H 0.43188 0.3479 0.76579 0.0
C617 C 0.43027 0.34744 0.68253 0.0
C618 C 0.41221 0.35152 0.66828 0.0
C619 C 0.42437 0.33582 0.70872 0.0
C620 C 0.41254 0.33266 0.77091 0.0
H621 H 0.38821 0.34066 0.89664 0.0
H622 H 0.39781 0.31954 0.85863 0.0
H623 H 0.41803 0.3429 0.81388 0.0
H624 H 0.37376 0.34625 0.66993 0.0
H625 H 0.36364 0.3264 0.7155 0.0
H626 H 0.35579 0.28732 0.74159 0.0
C627 C 0.38179 0.32292 0.85647 0.0
C628 C 0.40459 0.32971 0.79856 0.0
C629 C 0.37628 0.33497 0.87817 0.0
C630 C 0.38809 0.34343 0.68041 0.0
C631 C 0.38215 0.33168 0.70637 0.0
C632 C 0.36977 0.2989 0.75738 0.0
C633 C 0.3682 0.31743 0.83128 0.0
C634 C 0.37864 0.31269 0.80551 0.0
C635 C 0.40024 0.32787 0.7209 0.0
C636 C 0.39466 0.31857 0.74991 0.0
H637 H 0.32748 0.33943 0.84752 0.0
H638 H 0.33679 0.31828 0.80994 0.0
H639 H 0.34181 0.28239 0.78994 0.0
H640 H 0.44894 0.35327 0.67351 0.0
H641 H 0.43871 0.33323 0.71954 0.0
C642 C 0.65792 1.00191 0.62814 0.0
C643 C 0.65615 0.02438 0.62624 0.0
C644 C 0.64341 0.98301 0.64778 0.0
C645 C 0.58546 0.95977 0.69141 0.0
H646 H 0.61897 0.93363 0.7392 0.0
C647 C 0.56895 0.94443 0.80508 0.0
C648 C 0.57503 0.92782 0.81911 0.0
C649 C 0.56856 0.9445 0.77622 0.0
C650 C 0.60891 0.9399 0.72549 0.0
H651 H 0.63888 0.04537 0.64414 0.0
H652 H 0.61397 0.01261 0.67891 0.0
H653 H 0.64187 0.95963 0.69915 0.0
H654 H 0.58302 0.89655 0.81503 0.0
H655 H 0.5829 0.89693 0.76409 0.0
H656 H 0.5531 0.94137 0.71887 0.0
C657 C 0.62603 0.0093 0.66471 0.0
C658 C 0.62218 0.95503 0.70265 0.0
C659 C 0.64059 0.02823 0.64513 0.0
C660 C 0.57814 0.90939 0.80432 0.0
C661 C 0.57813 0.90968 0.7753 0.0
C662 C 0.57215 0.94456 0.71422 0.0
C663 C 0.62687 0.98628 0.66578 0.0
C664 C 0.61106 0.96619 0.68632 0.0
C665 C 0.57489 0.92834 0.76109 0.0
C666 C 0.58433 0.93573 0.73234 0.0
H667 H 0.66978 0.99846 0.61379 0.0
H668 H 0.64454 0.96553 0.64832 0.0
H669 H 0.57622 0.9676 0.67861 0.0
H670 H 0.56668 0.95886 0.81636 0.0
H671 H 0.56622 0.95926 0.76598 0.0
C672 C 0.04418 0.62644 0.8168 0.0
C673 C 0.0416 0.64562 0.83078 0.0
C674 C 0.02715 0.6121 0.79548 0.0
C675 C 0.96331 0.59578 0.76613 0.0
H676 H 0.98944 0.57992 0.69987 0.0
C677 C 0.933 0.59751 0.65593 0.0
C678 C 0.93503 0.58156 0.63602 0.0
C679 C 0.93664 0.59452 0.68391 0.0
C680 C 0.98158 0.58345 0.71855 0.0
H681 H 0.02028 0.66591 0.83268 0.0
H682 H 0.99145 0.64194 0.79445 0.0
H683 H 0.01757 0.59885 0.73969 0.0
H684 H 0.9399 0.54855 0.62918 0.0
H685 H 0.94702 0.54365 0.67836 0.0
H686 H 0.92793 0.58231 0.74375 0.0
C687 C 1.00582 0.63709 0.80067 0.0
C688 C 0.99779 0.59446 0.74138 0.0
C689 C 0.02258 0.65113 0.82224 0.0
C690 C 0.93801 0.56085 0.64444 0.0
C691 C 0.94217 0.55813 0.67245 0.0
C692 C 0.9472 0.58508 0.74311 0.0
C693 C 0.00749 0.61697 0.78749 0.0
C694 C 0.98915 0.6017 0.76502 0.0
C695 C 0.94302 0.57594 0.69212 0.0
C696 C 0.95654 0.57973 0.71878 0.0
H697 H 0.05851 0.6216 0.82322 0.0
H698 H 0.02894 0.5967 0.78587 0.0
H699 H 0.95581 0.60039 0.78437 0.0
H700 H 0.93079 0.61364 0.64969 0.0
H701 H 0.93737 0.60863 0.69859 0.0
C702 C 0.69745 0.64602 0.3768 0.0
C703 C 0.69466 0.66793 0.37515 0.0
C704 C 0.7022 0.63585 0.35284 0.0
C705 C 0.68212 0.60943 0.29622 0.0
H706 H 0.72701 0.64834 0.2351 0.0
C707 C 0.65356 0.60778 0.18355 0.0
C708 C 0.66705 0.60305 0.16282 0.0
C709 C 0.66079 0.60931 0.21126 0.0
C710 C 0.7148 0.63698 0.25216 0.0
H711 H 0.69711 0.69781 0.34789 0.0
H712 H 0.70602 0.6804 0.30619 0.0
H713 H 0.73692 0.66656 0.28216 0.0
H714 H 0.69836 0.59593 0.15427 0.0
H715 H 0.71195 0.59994 0.20316 0.0
H716 H 0.6585 0.58118 0.26572 0.0
C717 C 0.70432 0.67097 0.32589 0.0
C718 C 0.72039 0.64742 0.27895 0.0
C719 C 0.69903 0.68082 0.34969 0.0
C720 C 0.68747 0.59916 0.17014 0.0
C721 C 0.69526 0.60151 0.1979 0.0
C722 C 0.67627 0.59925 0.26937 0.0
C723 C 0.70486 0.64781 0.32707 0.0
C724 C 0.70348 0.63419 0.30095 0.0
C725 C 0.6821 0.6069 0.21852 0.0
C726 C 0.69204 0.61345 0.24706 0.0
H727 H 0.69407 0.63564 0.39617 0.0
H728 H 0.70247 0.61792 0.35417 0.0
H729 H 0.66863 0.59899 0.31279 0.0
H730 H 0.63791 0.61106 0.1782 0.0
H731 H 0.65066 0.61386 0.22688 0.0
C732 C 0.46354 0.07319 0.17684 0.0
C733 C 0.46016 0.09045 0.16046 0.0
C734 C 0.46561 0.07635 0.20549 0.0
C735 C 0.4325 0.09096 0.25513 0.0
H736 H 0.46536 0.06456 0.30357 0.0
C737 C 0.38146 0.02615 0.35044 0.0
C738 C 0.38261 1.00328 0.34956 0.0
C739 C 0.39715 0.04683 0.33302 0.0
C740 C 0.45622 0.07233 0.29052 0.0
H741 H 0.45801 0.12545 0.16007 0.0
H742 H 0.46028 0.13034 0.21088 0.0
H743 H 0.48757 0.08812 0.26165 0.0
H744 H 0.4002 0.98365 0.32912 0.0
H745 H 0.42714 0.01943 0.2985 0.0
H746 H 0.40009 0.07295 0.2825 0.0
C747 C 0.46214 0.11488 0.20151 0.0
C748 C 0.46902 0.086 0.26675 0.0
C749 C 0.46078 0.11207 0.17262 0.0
C750 C 0.39896 1.00106 0.33034 0.0
C751 C 0.4147 0.02171 0.31314 0.0
C752 C 0.41968 0.07725 0.27892 0.0
C753 C 0.46351 0.09639 0.21819 0.0
C754 C 0.45638 0.09361 0.2478 0.0
C755 C 0.41433 0.04495 0.31469 0.0
C756 C 0.43071 0.06622 0.2956 0.0
H757 H 0.46301 0.05638 0.16763 0.0
H758 H 0.46622 0.06155 0.21779 0.0
H759 H 0.42229 0.09657 0.24084 0.0
H760 H 0.36902 0.02837 0.36513 0.0
H761 H 0.39627 0.06444 0.33427 0.0
C762 C 0.03077 0.33591 0.38665 0.0
C763 C 0.02395 0.35242 0.40001 0.0
C764 C 0.01814 0.32302 0.36237 0.0
C765 C 0.96961 0.31721 0.30943 0.0
H766 H 0.02812 0.33859 0.26032 0.0
C767 C 0.97505 0.3571 0.19968 0.0
C768 C 0.98944 0.35323 0.17919 0.0
C769 C 0.97362 0.34784 0.22659 0.0
C770 C 0.01132 0.33183 0.27351 0.0
H771 H 0.99707 0.3664 0.40073 0.0
H772 H 0.97566 0.34491 0.35769 0.0
H773 H 0.03332 0.33506 0.30934 0.0
H774 H 0.01258 0.33559 0.17037 0.0
H775 H 0.00969 0.31901 0.21709 0.0
H776 H 0.9481 0.31549 0.27319 0.0
C777 C 0.99016 0.34114 0.36607 0.0
C778 C 0.01427 0.32967 0.30183 0.0
C779 C 1.00241 0.35351 0.39078 0.0
C780 C 1.00165 0.33919 0.18582 0.0
C781 C 0.99997 0.32967 0.21261 0.0
C782 C 0.96665 0.31937 0.28091 0.0
C783 C 0.99923 0.32735 0.35057 0.0
C784 C 0.99374 0.32321 0.32032 0.0
C785 C 0.98636 0.33432 0.23346 0.0
C786 C 0.98776 0.32758 0.26279 0.0
H787 H 0.04739 0.33485 0.39355 0.0
H788 H 0.02502 0.31186 0.35136 0.0
H789 H 0.95335 0.31192 0.32307 0.0
H790 H 0.96531 0.36773 0.19508 0.0
H791 H 0.96332 0.35213 0.24222 0.0
C792 C 0.27779 0.91076 0.33469 0.0
C793 C 0.28481 0.90931 0.36219 0.0
C794 C 0.2534 0.89272 0.32442 0.0
C795 C 0.1876 0.8527 0.3504 0.0
H796 H 0.17152 0.8253 0.27539 0.0
C797 C 0.08425 0.77795 0.31751 0.0
C798 C 0.07583 0.7774 0.29014 0.0
C799 C 0.1097 0.79495 0.32531 0.0
C800 C 0.17564 0.83315 0.29626 0.0
H801 H 0.27222 0.88703 0.40009 0.0
H802 H 0.22942 0.85527 0.38217 0.0
H803 H 0.21651 0.85008 0.29057 0.0
H804 H 0.08741 0.79517 0.24967 0.0
H805 H 0.13235 0.82565 0.26343 0.0
H806 H 0.14702 0.83649 0.35608 0.0
C807 C 0.24287 0.87045 0.36852 0.0
C808 C 0.20147 0.84717 0.30505 0.0
C809 C 0.26752 0.88837 0.37867 0.0
C810 C 0.09331 0.79527 0.27094 0.0
C811 C 0.1191 0.81243 0.27878 0.0
C812 C 0.16188 0.83895 0.34157 0.0
C813 C 0.2352 0.87299 0.34158 0.0
C814 C 0.20776 0.85694 0.33233 0.0
C815 C 0.12773 0.81216 0.30602 0.0
C816 C 0.15543 0.82872 0.31446 0.0
H817 H 0.29064 0.92691 0.32165 0.0
H818 H 0.2482 0.89537 0.30367 0.0
H819 H 0.19171 0.86052 0.3713 0.0
H820 H 0.07122 0.76448 0.33288 0.0
H821 H 0.11542 0.79374 0.3463 0.0
C822 C 0.22089 0.31184 0.24561 0.0
C823 C 0.22625 0.29411 0.25865 0.0
C824 C 0.20548 0.32012 0.25856 0.0
C825 C 0.18902 0.33117 0.32828 0.0
H826 H 0.14173 0.34668 0.28981 0.0
C827 C 0.13485 0.37343 0.38661 0.0
C828 C 0.13057 0.3919 0.37347 0.0
C829 C 0.14471 0.36018 0.37198 0.0
C830 C 0.15513 0.3428 0.3008 0.0
H831 H 0.21899 0.27041 0.2951 0.0
H832 H 0.1919 0.28501 0.31811 0.0
H833 H 0.15983 0.32351 0.26556 0.0
H834 H 0.13332 0.41078 0.33431 0.0
H835 H 0.15134 0.38799 0.30861 0.0
H836 H 0.18511 0.35105 0.36319 0.0
C837 C 0.19962 0.29241 0.29769 0.0
C838 C 0.16536 0.32932 0.28695 0.0
C839 C 0.21482 0.28378 0.28443 0.0
C840 C 0.13648 0.39677 0.34509 0.0
C841 C 0.1466 0.38352 0.33035 0.0
C842 C 0.17898 0.3448 0.34204 0.0
C843 C 0.19533 0.31121 0.28517 0.0
C844 C 0.18251 0.32339 0.3005 0.0
C845 C 0.15091 0.36506 0.34367 0.0
C846 C 0.16188 0.35085 0.32854 0.0
H847 H 0.22967 0.32027 0.22582 0.0
H848 H 0.20284 0.33473 0.24838 0.0
H849 H 0.20262 0.3275 0.33918 0.0
H850 H 0.13028 0.36886 0.40837 0.0
H851 H 0.1471 0.34576 0.38292 0.0
C852 C 0.74712 0.93165 0.25263 0.0
C853 C 0.73389 0.93047 0.22812 0.0
C854 C 0.7395 0.90924 0.26847 0.0
C855 C 0.69972 0.83683 0.26595 0.0
H856 H 0.69764 0.84349 0.34582 0.0
C857 C 0.65077 0.74758 0.34056 0.0
C858 C 0.66429 0.74987 0.36522 0.0
C859 C 0.65879 0.7691 0.32298 0.0
C860 C 0.69828 0.84125 0.32356 0.0
H861 H 0.7029 0.90458 0.20056 0.0
H862 H 0.68972 0.86593 0.22794 0.0
H863 H 0.71427 0.88184 0.31685 0.0
H864 H 0.69694 0.7767 0.39053 0.0
H865 H 0.7107 0.81347 0.36027 0.0
H866 H 0.68357 0.79612 0.27279 0.0
C867 C 0.70606 0.88395 0.235 0.0
C868 C 0.70797 0.86335 0.30691 0.0
C869 C 0.71359 0.90626 0.2193 0.0
C870 C 0.68588 0.77407 0.37181 0.0
C871 C 0.69376 0.79538 0.35448 0.0
C872 C 0.68999 0.81468 0.28264 0.0
C873 C 0.71855 0.88513 0.26008 0.0
C874 C 0.70894 0.86152 0.27785 0.0
C875 C 0.68036 0.79334 0.32986 0.0
C876 C 0.68928 0.81659 0.31171 0.0
H877 H 0.76273 0.94998 0.26009 0.0
H878 H 0.74985 0.91087 0.28746 0.0
H879 H 0.70035 0.83462 0.24368 0.0
H880 H 0.63411 0.72924 0.33482 0.0
H881 H 0.64792 0.76684 0.30422 0.0
C882 C 0.8097 0.0809 0.16894 0.0
C883 C 0.78909 0.07548 0.18678 0.0
C884 C 0.82779 0.10659 0.1621 0.0
C885 C 0.8529 0.1754 0.18135 0.0
H886 H 0.86415 0.18728 0.10216 0.0
C887 C 0.91082 0.2794 0.13783 0.0
C888 C 0.92917 0.28305 0.11757 0.0
C889 C 0.89146 0.25428 0.14513 0.0
C890 C 0.86146 0.18438 0.12437 0.0
H891 H 0.77179 0.0924 0.21245 0.0
H892 H 0.80377 0.13714 0.20139 0.0
H893 H 0.83837 0.14326 0.1195 0.0
H894 H 0.94118 0.26374 0.08829 0.0
H895 H 0.90763 0.22028 0.10058 0.0
H896 H 0.87637 0.21645 0.18633 0.0
C897 C 0.80608 0.12175 0.19261 0.0
C898 C 0.84673 0.15906 0.13431 0.0
C899 C 0.78783 0.09613 0.19907 0.0
C900 C 0.92688 0.26141 0.10355 0.0
C901 C 0.90763 0.23644 0.11073 0.0
C902 C 0.86786 0.20074 0.17142 0.0
C903 C 0.82569 0.12727 0.1732 0.0
C904 C 0.84236 0.15423 0.16293 0.0
C905 C 0.8902 0.23242 0.13234 0.0
C906 C 0.87247 0.20561 0.14277 0.0
H907 H 0.8107 0.0653 0.15868 0.0
H908 H 0.84284 0.11023 0.14729 0.0
H909 H 0.84993 0.17234 0.20352 0.0
H910 H 0.91259 0.29577 0.14941 0.0
H911 H 0.87814 0.25198 0.16156 0.0
C912 C 0.76766 0.68463 0.1066 0.0
C913 C 0.74955 0.65841 0.11107 0.0
C914 C 0.7934 0.69496 0.11456 0.0
C915 C 0.83549 0.7132 0.1583 0.0
H916 H 0.87996 0.68416 0.1491 0.0
C917 C 0.9195 0.73358 0.23228 0.0
C918 C 0.94331 0.73983 0.22039 0.0
C919 C 0.89783 0.72625 0.21559 0.0
C920 C 0.86782 0.69261 0.15161 0.0
H921 H 0.74435 0.62214 0.12626 0.0
H922 H 0.78978 0.6401 0.13967 0.0
H923 H 0.83843 0.66469 0.12443 0.0
H924 H 0.96316 0.74318 0.18171 0.0
H925 H 0.92488 0.72972 0.15233 0.0
H926 H 0.86421 0.7404 0.18628 0.0
C927 C 0.78402 0.65261 0.12976 0.0
C928 C 0.84401 0.68135 0.13767 0.0
C929 C 0.75808 0.64225 0.12187 0.0
C930 C 0.94518 0.73912 0.19133 0.0
C931 C 0.92323 0.73107 0.1746 0.0
C932 C 0.85896 0.72409 0.17259 0.0
C933 C 0.80168 0.67934 0.12731 0.0
C934 C 0.82755 0.69153 0.1409 0.0
C935 C 0.89924 0.72422 0.18663 0.0
C936 C 0.87536 0.71388 0.16954 0.0
H937 H 0.76146 0.69759 0.09881 0.0
H938 H 0.80655 0.71554 0.1121 0.0
H939 H 0.82314 0.72133 0.16155 0.0
H940 H 0.91744 0.73347 0.25465 0.0
H941 H 0.8796 0.72094 0.22548 0.0
C942 C 0.30496 0.22971 0.17022 0.0
C943 C 0.30838 0.23671 0.19842 0.0
C944 C 0.31244 0.21256 0.15974 0.0
C945 C 0.33556 0.16735 0.18104 0.0
H946 H 0.37159 0.18705 0.11044 0.0
C947 C 0.40421 0.13168 0.15056 0.0
C948 C 0.40108 0.12032 0.12418 0.0
C949 C 0.39262 0.14621 0.15706 0.0
C950 C 0.36138 0.18115 0.13004 0.0
H951 H 0.32195 0.2311 0.23784 0.0
H952 H 0.33492 0.20124 0.21993 0.0
H953 H 0.34923 0.20912 0.12722 0.0
H954 H 0.38463 0.11671 0.08331 0.0
H955 H 0.3645 0.14273 0.09459 0.0
H956 H 0.34839 0.13997 0.18424 0.0
C957 C 0.32588 0.2083 0.20578 0.0
C958 C 0.34839 0.1937 0.13967 0.0
C959 C 0.31826 0.22531 0.21621 0.0
C960 C 0.38766 0.12551 0.10368 0.0
C961 C 0.37597 0.14021 0.11024 0.0
C962 C 0.3487 0.15504 0.17156 0.0
C963 C 0.32391 0.20233 0.17719 0.0
C964 C 0.3356 0.18726 0.16556 0.0
C965 C 0.37746 0.1498 0.1374 0.0
C966 C 0.36218 0.16206 0.14618 0.0
H967 H 0.29806 0.23882 0.15592 0.0
H968 H 0.31015 0.20815 0.13775 0.0
H969 H 0.32551 0.16134 0.20071 0.0
H970 H 0.4145 0.1281 0.16678 0.0
H971 H 0.39476 0.15387 0.17793 0.0
C972 C 0.76521 0.10722 0.62598 0.0
C973 C 0.75504 0.10954 0.60055 0.0
C974 C 0.78994 0.1259 0.63452 0.0
C975 C 0.84436 0.19243 0.62272 0.0
H976 H 0.88477 0.16416 0.6531 0.0
C977 C 0.9519 0.25918 0.64864 0.0
C978 C 0.96102 0.25484 0.67375 0.0
C979 C 0.92795 0.24072 0.63781 0.0
C980 C 0.87377 0.17248 0.64495 0.0
H981 H 0.76248 0.13416 0.56484 0.0
H982 H 0.80606 0.1672 0.57986 0.0
H983 H 0.8403 0.13516 0.63889 0.0
H984 H 0.95259 0.22714 0.70658 0.0
H985 H 0.91051 0.19478 0.68791 0.0
H986 H 0.87768 0.22978 0.62913 0.0
C987 C 0.79469 0.15078 0.59322 0.0
C988 C 0.84817 0.1558 0.63677 0.0
C989 C 0.76967 0.13196 0.58466 0.0
C990 C 0.94629 0.23086 0.68696 0.0
C991 C 0.92205 0.21239 0.67626 0.0
C992 C 0.86996 0.20914 0.63102 0.0
C993 C 0.80546 0.14748 0.61783 0.0
C994 C 0.83301 0.16553 0.62574 0.0
C995 C 0.91216 0.21746 0.65201 0.0
C996 C 0.88506 0.19944 0.64236 0.0
H997 H 0.75433 0.09027 0.63884 0.0
H998 H 0.79719 0.12304 0.65397 0.0
H999 H 0.83327 0.20065 0.61458 0.0
H1000 H 0.96285 0.2775 0.63795 0.0
H1001 H 0.92149 0.2451 0.61869 0.0
C1002 C 0.88279 0.6265 0.59957 0.0
C1003 C 0.90697 0.64438 0.58858 0.0
C1004 C 0.86588 0.63467 0.60895 0.0
C1005 C 0.86911 0.69437 0.6364 0.0
H1006 H 0.7948 0.65067 0.63994 0.0
C1007 C 0.80313 0.7246 0.69573 0.0
C1008 C 0.78446 0.70522 0.7129 0.0
C1009 C 0.81721 0.7187 0.67658 0.0
C1010 C 0.81556 0.66313 0.63918 0.0
H1011 H 0.93199 0.6845 0.57754 0.0
H1012 H 0.90214 0.6986 0.59249 0.0
H1013 H 0.8199 0.63709 0.6121 0.0
H1014 H 0.76579 0.66435 0.72297 0.0
H1015 H 0.78996 0.65426 0.68998 0.0
H1016 H 0.86471 0.7202 0.66386 0.0
C1017 C 0.89627 0.67836 0.59451 0.0
C1018 C 0.82999 0.6553 0.62322 0.0
C1019 C 0.91321 0.67021 0.5854 0.0
C1020 C 0.78002 0.67987 0.71019 0.0
C1021 C 0.79377 0.67396 0.69101 0.0
C1022 C 0.85464 0.70226 0.65224 0.0
C1023 C 0.87284 0.66096 0.60757 0.0
C1024 C 0.85705 0.67053 0.62202 0.0
C1025 C 0.8126 0.69322 0.67394 0.0
C1026 C 0.82773 0.68648 0.65436 0.0
H1027 H 0.87789 0.60666 0.6031 0.0
H1028 H 0.8482 0.62066 0.61908 0.0
H1029 H 0.8899 0.70653 0.63647 0.0
H1030 H 0.80701 0.7443 0.69724 0.0
H1031 H 0.83155 0.73401 0.66369 0.0
C1032 C 0.2976 0.09496 0.71491 0.0
C1033 C 0.31305 0.09706 0.73784 0.0
C1034 C 0.30535 0.11593 0.6966 0.0
C1035 C 0.36438 0.17593 0.67357 0.0
H1036 H 0.31734 0.19777 0.64775 0.0
C1037 C 0.39899 0.27801 0.62837 0.0
C1038 C 0.38294 0.28127 0.60969 0.0
C1039 C 0.39136 0.25351 0.63947 0.0
C1040 C 0.33074 0.19172 0.65423 0.0
H1041 H 0.34834 0.12328 0.75987 0.0
H1042 H 0.36153 0.15931 0.72843 0.0
H1043 H 0.30109 0.15899 0.67615 0.0
H1044 H 0.34708 0.26138 0.58686 0.0
H1045 H 0.3344 0.21853 0.60486 0.0
H1046 H 0.39409 0.20867 0.65193 0.0
C1047 C 0.3437 0.14149 0.72415 0.0
C1048 C 0.32134 0.16944 0.67065 0.0
C1049 C 0.33595 0.12077 0.74238 0.0
C1050 C 0.36009 0.25931 0.60077 0.0
C1051 C 0.35258 0.23482 0.6116 0.0
C1052 C 0.37375 0.1981 0.65703 0.0
C1053 C 0.32882 0.13931 0.70074 0.0
C1054 C 0.33813 0.16153 0.68102 0.0
C1055 C 0.36749 0.23172 0.63209 0.0
C1056 C 0.35718 0.20663 0.64747 0.0
H1057 H 0.27995 0.07695 0.71069 0.0
H1058 H 0.29339 0.11359 0.67877 0.0
H1059 H 0.37782 0.17015 0.68073 0.0
H1060 H 0.41623 0.29473 0.63636 0.0
H1061 H 0.40334 0.25211 0.65535 0.0
C1062 C 0.23754 0.94151 0.78499 0.0
C1063 C 0.2524 0.95885 0.80612 0.0
C1064 C 0.21969 0.91552 0.79134 0.0
C1065 C 0.18635 0.87014 0.85094 0.0
H1066 H 0.18631 0.81891 0.80147 0.0
C1067 C 0.13826 0.76255 0.88305 0.0
C1068 C 0.12132 0.745 0.86319 0.0
C1069 C 0.15576 0.78832 0.87563 0.0
C1070 C 0.18603 0.83296 0.81549 0.0
H1071 H 0.25936 0.9631 0.85044 0.0
H1072 H 0.22851 0.9184 0.86153 0.0
H1073 H 0.21049 0.86459 0.78886 0.0
H1074 H 0.11042 0.74015 0.8198 0.0
H1075 H 0.14121 0.78458 0.80672 0.0
H1076 H 0.16215 0.83852 0.87769 0.0
C1077 C 0.23016 0.92445 0.8401 0.0
C1078 C 0.19973 0.8592 0.80813 0.0
C1079 C 0.2479 0.9502 0.83376 0.0
C1080 C 0.12349 0.75319 0.83548 0.0
C1081 C 0.14111 0.77873 0.828 0.0
C1082 C 0.17283 0.84395 0.85837 0.0
C1083 C 0.21636 0.90645 0.81895 0.0
C1084 C 0.20018 0.87824 0.82578 0.0
C1085 C 0.15681 0.79692 0.84815 0.0
C1086 C 0.17251 0.82498 0.84079 0.0
H1087 H 0.24095 0.94755 0.76347 0.0
H1088 H 0.20913 0.90236 0.77452 0.0
H1089 H 0.18581 0.88406 0.86493 0.0
H1090 H 0.1367 0.75691 0.90464 0.0
H1091 H 0.16781 0.80175 0.89162 0.0
C1092 C 0.10623 0.29415 0.74156 0.0
C1093 C 0.08922 0.29929 0.75657 0.0
C1094 C 0.13143 0.3031 0.75141 0.0
C1095 C 0.17913 0.35603 0.79624 0.0
H1096 H 0.21923 0.32181 0.7915 0.0
C1097 C 0.27022 0.38845 0.86084 0.0
C1098 C 0.29197 0.38943 0.84874 0.0
C1099 C 0.24707 0.37838 0.84625 0.0
C1100 C 0.20837 0.33175 0.79253 0.0
H1101 H 0.0844 0.31613 0.79426 0.0
H1102 H 0.12752 0.3306 0.81201 0.0
H1103 H 0.17468 0.29982 0.77403 0.0
H1104 H 0.30661 0.38053 0.81181 0.0
H1105 H 0.26554 0.36237 0.78599 0.0
H1106 H 0.21235 0.38765 0.81516 0.0
C1107 C 0.12197 0.32041 0.79232 0.0
C1108 C 0.18283 0.31912 0.78263 0.0
C1109 C 0.09709 0.31174 0.78241 0.0
C1110 C 0.29024 0.38044 0.82138 0.0
C1111 C 0.2667 0.36979 0.80681 0.0
C1112 C 0.20444 0.36852 0.80613 0.0
C1113 C 0.13993 0.31735 0.77638 0.0
C1114 C 0.16766 0.33088 0.78502 0.0
C1115 C 0.2448 0.36851 0.81923 0.0
C1116 C 0.21923 0.35637 0.805 0.0
H1117 H 0.1008 0.2851 0.72127 0.0
H1118 H 0.1447 0.30036 0.7386 0.0
H1119 H 0.16842 0.36611 0.79761 0.0
H1120 H 0.27095 0.39496 0.88204 0.0
H1121 H 0.23058 0.37743 0.85659 0.0
C1122 C 0.72133 0.77625 0.82923 0.0
C1123 C 0.72107 0.7696 0.80117 0.0
C1124 C 0.71439 0.79443 0.83709 0.0
C1125 C 0.69866 0.84342 0.80975 0.0
H1126 H 0.65516 0.82443 0.87527 0.0
C1127 C 0.63403 0.88645 0.82996 0.0
C1128 C 0.63463 0.89658 0.85655 0.0
C1129 C 0.64475 0.87085 0.82519 0.0
C1130 C 0.66748 0.83016 0.85712 0.0
H1131 H 0.71433 0.77745 0.75921 0.0
H1132 H 0.70191 0.80909 0.77274 0.0
H1133 H 0.67582 0.79968 0.86256 0.0
H1134 H 0.64558 0.89683 0.89941 0.0
H1135 H 0.66419 0.86895 0.89112 0.0
H1136 H 0.68965 0.87343 0.80393 0.0
C1137 C 0.70798 0.80071 0.7888 0.0
C1138 C 0.67949 0.81605 0.84981 0.0
C1139 C 0.71528 0.78268 0.78092 0.0
C1140 C 0.64464 0.88916 0.87876 0.0
C1141 C 0.65544 0.87336 0.87394 0.0
C1142 C 0.68649 0.85735 0.81693 0.0
C1143 C 0.70651 0.80613 0.81711 0.0
C1144 C 0.69509 0.82231 0.82585 0.0
C1145 C 0.65644 0.86483 0.84685 0.0
C1146 C 0.67047 0.85071 0.84048 0.0
H1147 H 0.72552 0.76625 0.84529 0.0
H1148 H 0.71426 0.79854 0.85899 0.0
H1149 H 0.71086 0.84924 0.79152 0.0
H1150 H 0.62622 0.89156 0.81243 0.0
H1151 H 0.6445 0.86404 0.80425 0.0
C1152 C 0.47765 0.42196 0.52825 0.0
C1153 C 0.46725 0.42369 0.55384 0.0
C1154 C 0.49147 0.44404 0.51147 0.0
C1155 C 0.49937 0.50926 0.50033 0.0
H1156 H 0.56345 0.52601 0.4638 0.0
C1157 C 0.57449 0.61281 0.46684 0.0
C1158 C 0.5903 0.61668 0.44374 0.0
C1159 C 0.55607 0.5878 0.47523 0.0
C1160 C 0.54532 0.52143 0.47339 0.0
H1161 H 0.46419 0.45027 0.5822 0.0
H1162 H 0.48821 0.48825 0.5535 0.0
H1163 H 0.53913 0.48504 0.48863 0.0
H1164 H 0.5989 0.59748 0.41088 0.0
H1165 H 0.56627 0.55361 0.42511 0.0
H1166 H 0.5057 0.54574 0.48567 0.0
C1167 C 0.48533 0.46992 0.54592 0.0
C1168 C 0.53139 0.49791 0.48772 0.0
C1169 C 0.4717 0.44806 0.56256 0.0
C1170 C 0.58642 0.59506 0.42828 0.0
C1171 C 0.56807 0.56993 0.43679 0.0
C1172 C 0.51323 0.53268 0.48603 0.0
C1173 C 0.49502 0.46823 0.5199 0.0
C1174 C 0.50857 0.49181 0.502 0.0
C1175 C 0.55325 0.56593 0.46096 0.0
C1176 C 0.53673 0.53943 0.47289 0.0
H1177 H 0.47445 0.40347 0.52082 0.0
H1178 H 0.49868 0.44202 0.49156 0.0
H1179 H 0.48154 0.50497 0.51047 0.0
H1180 H 0.57769 0.62911 0.47963 0.0
H1181 H 0.54535 0.58564 0.49411 0.0
C1182 C 0.60538 0.06603 0.53591 0.0
C1183 C 0.62315 0.06098 0.5225 0.0
C1184 C 0.58021 0.05561 0.52549 0.0
C1185 C 0.53314 0.99957 0.48321 0.0
H1186 H 0.49204 0.03265 0.48779 0.0
C1187 C 0.43017 0.95561 0.43516 0.0
C1188 C 0.41273 0.96128 0.44835 0.0
C1189 C 0.45548 0.96617 0.44529 0.0
C1190 C 0.50308 0.0229 0.48675 0.0
H1191 H 0.62904 0.04205 0.48729 0.0
H1192 H 0.5857 0.02486 0.46839 0.0
H1193 H 0.5373 0.05663 0.5013 0.0
H1194 H 0.40743 0.98108 0.48312 0.0
H1195 H 0.45086 0.99834 0.50159 0.0
H1196 H 0.4989 0.96581 0.46875 0.0
C1197 C 0.59083 0.03642 0.48717 0.0
C1198 C 0.52915 0.03678 0.49441 0.0
C1199 C 0.61585 0.04671 0.49766 0.0
C1200 C 0.42042 0.97612 0.47281 0.0
C1201 C 0.4455 0.98643 0.48306 0.0
C1202 C 0.50704 0.98567 0.47559 0.0
C1203 C 0.57231 0.0398 0.50154 0.0
C1204 C 0.5446 0.02534 0.49273 0.0
C1205 C 0.46377 0.98258 0.46879 0.0
C1206 C 0.49158 0.99709 0.47731 0.0
H1207 H 0.61027 0.07622 0.55561 0.0
H1208 H 0.56649 0.05852 0.53725 0.0
H1209 H 0.54421 0.98986 0.48216 0.0
H1210 H 0.42494 0.94485 0.41582 0.0
H1211 H 0.46896 0.96283 0.43363 0.0
C1212 C 0.07714 0.49541 0.4332 0.0
C1213 C 0.06497 0.47163 0.41901 0.0
C1214 C 0.06523 0.51033 0.43542 0.0
C1215 C 0.0364 0.54063 0.43482 0.0
H1216 H 0.96672 0.49594 0.46161 0.0
C1217 C 0.97304 0.5797 0.48331 0.0
C1218 C 0.9646 0.56988 0.51014 0.0
C1219 C 0.98336 0.56837 0.46569 0.0
C1220 C 0.98602 0.5087 0.45386 0.0
H1221 H 0.03152 0.44546 0.39475 0.0
H1222 H 0.01079 0.47163 0.39819 0.0
H1223 H 0.9903 0.47697 0.44043 0.0
H1224 H 0.95951 0.54023 0.53927 0.0
H1225 H 0.9763 0.51985 0.50832 0.0
H1226 H 0.03227 0.57233 0.4494 0.0
C1227 C 0.02959 0.47885 0.40757 0.0
C1228 C 0.99951 0.49785 0.4415 0.0
C1229 C 0.04166 0.46406 0.40515 0.0
C1230 C 0.96556 0.54795 0.51854 0.0
C1231 C 0.9752 0.53631 0.50081 0.0
C1232 C 0.02272 0.55153 0.44688 0.0
C1233 C 0.04063 0.50151 0.42389 0.0
C1234 C 0.02514 0.5136 0.43249 0.0
C1235 C 0.98479 0.54669 0.47443 0.0
C1236 C 0.99765 0.53562 0.45728 0.0
H1237 H 0.09472 0.50127 0.44477 0.0
H1238 H 0.07423 0.52752 0.44832 0.0
H1239 H 0.05606 0.55333 0.42804 0.0
H1240 H 0.973 0.59692 0.47658 0.0
H1241 H 0.99064 0.5768 0.44547 0.0
C1242 C 0.43565 0.48143 0.93158 0.0
C1243 C 0.4298 0.45927 0.91604 0.0
C1244 C 0.46114 0.49907 0.93927 0.0
C1245 C 0.52222 0.49956 0.95287 0.0
H1246 H 0.54677 0.57137 0.97112 0.0
C1247 C 0.61908 0.56628 0.01259 0.0
C1248 C 0.61579 0.579 0.03549 0.0
C1249 C 0.59909 0.55334 0.99302 0.0
C1250 C 0.54024 0.55135 0.96606 0.0
H1251 H 0.44603 0.43861 0.89543 0.0
H1252 H 0.49076 0.46996 0.90764 0.0
H1253 H 0.5074 0.54704 0.94394 0.0
H1254 H 0.58907 0.58847 0.05532 0.0
H1255 H 0.55493 0.56653 0.02143 0.0
H1256 H 0.55506 0.50399 0.97545 0.0
C1257 C 0.47569 0.47366 0.91431 0.0
C1258 C 0.51756 0.53732 0.95055 0.0
C1259 C 0.45011 0.45594 0.90675 0.0
C1260 C 0.59234 0.57881 0.03807 0.0
C1261 C 0.57274 0.56639 0.01845 0.0
C1262 C 0.54509 0.51371 0.96818 0.0
C1263 C 0.48146 0.4949 0.93171 0.0
C1264 C 0.50773 0.51097 0.9444 0.0
C1265 C 0.57574 0.55343 -0.00431 0.0
C1266 C 0.55395 0.53956 0.97568 0.0
H1267 H 0.42026 0.48398 0.9398 0.0
H1268 H 0.46453 0.51487 0.95295 0.0
H1269 H 0.51525 0.47927 0.94897 0.0
H1270 H 0.6369 0.56609 0.00998 0.0
H1271 H 0.60197 0.5435 0.97568 0.0
C1272 C 0.54012 0.94404 0.94452 0.0
C1273 C 0.56697 0.95524 0.94645 0.0
C1274 C 0.52765 0.95585 0.95722 0.0
C1275 C 0.53655 0.00824 0.00636 0.0
H1276 H 0.48619 0.01147 0.95876 0.0
C1277 C 0.49625 0.07457 0.03451 0.0
C1278 C 0.46938 0.06327 0.03261 0.0
C1279 C 0.5088 0.06289 0.0217 0.0
C1280 C 0.50007 0.01065 0.97242 0.0
H1281 H 0.60182 0.98711 0.96365 0.0
H1282 H 0.58022 0.0076 0.98624 0.0
H1283 H 0.50546 0.98586 0.94452 0.0
H1284 H 0.4346 0.03137 0.01534 0.0
H1285 H 0.45634 0.01111 0.99256 0.0
H1286 H 0.53115 0.03301 0.03427 0.0
C1287 C 0.56855 0.98947 0.97539 0.0
C1288 C 0.51104 0.99579 0.96434 0.0
C1289 C 0.58097 0.9776 0.96269 0.0
C1290 C 0.45546 0.04096 0.01628 0.0
C1291 C 0.46795 0.02923 0.00347 0.0
C1292 C 0.52558 0.02309 0.01444 0.0
C1293 C 0.54186 0.97934 0.97185 0.0
C1294 C 0.52941 0.99433 0.9812 0.0
C1295 C 0.49466 0.03944 0.007 0.0
C1296 C 0.50719 0.02454 -0.00241 0.0
H1297 H 0.52902 0.92724 0.93141 0.0
H1298 H 0.50703 0.94722 0.95446 0.0
H1299 H 0.55041 0.00741 0.02003 0.0
H1300 H 0.50729 0.09133 0.04769 0.0
H1301 H 0.52943 0.07158 0.02446 0.0
C1302 C 0.08317 0.61361 0.96325 0.0
C1303 C 0.06791 0.61145 0.94017 0.0
C1304 C 0.07703 0.59165 0.97943 0.0
C1305 C 0.03761 0.51918 0.97809 0.0
H1306 H 0.03772 0.52521 0.05823 0.0
C1307 C 0.98523 0.42885 0.04849 0.0
C1308 C 0.99904 0.42847 0.07182 0.0
C1309 C 0.99401 0.45168 0.03309 0.0
C1310 C 0.03773 0.52321 0.03587 0.0
H1311 H 0.03504 0.58448 0.91533 0.0
H1312 H 0.0245 0.54693 0.94309 0.0
H1313 H 0.05488 0.5641 0.02964 0.0
H1314 H 0.0323 0.45202 0.09791 0.0
H1315 H 0.04735 0.49157 0.07137 0.0
H1316 H 0.02013 0.47832 0.98424 0.0
C1317 C 0.04123 0.56519 0.9489 0.0
C1318 C 0.04775 0.54556 0.01947 0.0
C1319 C 0.04722 0.5869 0.93301 0.0
C1320 C 0.02117 0.45161 0.08003 0.0
C1321 C 0.02979 0.47439 0.06486 0.0
C1322 C 0.02748 0.49689 -0.00556 0.0
C1323 C 0.05574 0.56719 0.97258 0.0
C1324 C 0.04756 0.54383 0.99031 0.0
C1325 C 0.01664 0.47466 0.04087 0.0
C1326 C 0.02719 0.49854 0.02354 0.0
H1327 H 0.09911 0.63229 0.96938 0.0
H1328 H 0.08877 0.59387 -0.00257 0.0
H1329 H 0.03756 0.51706 0.95574 0.0
H1330 H 0.9682 0.41134 0.04155 0.0
H1331 H 0.98322 0.45129 0.01491 0.0
loop_
_geom_bond_atom_site_label_1
_geom_bond_atom_site_label_2
_geom_bond_distance
_geom_bond_site_symmetry_2
_ccdc_geom_bond_type
Co0 O1 2.216 1_455 S
Co0 O2 2.091 1_455 S
Co0 O4 2.004 . S
Co0 O10 2.021 . S
Co0 O12 2.137 1_455 S
Co0 O13 2.244 . S
O1 Co0 2.216 1_655 S
O1 C8 1.247 . S
O2 Co0 2.091 1_655 S
O2 C8 1.261 . S
C3 O12 1.247 . S
C3 O13 1.272 1_655 S
O4 Co0 2.004 . S
O4 C9 1.259 . S
Co5 O6 2.061 . S
Co5 O11 2.052 . S
Co5 O13 2.135 . S
O6 Co5 2.061 . S
O6 C9 1.235 . S
C7 O10 1.238 . S
C7 O11 1.241 . S
C8 O1 1.247 . S
C8 O2 1.261 . S
C9 O4 1.259 . S
C9 O6 1.235 . S
O10 Co0 2.021 . S
O10 C7 1.238 . S
O11 Co5 2.052 . S
O11 C7 1.241 . S
O12 Co0 2.137 1_655 S
O12 C3 1.247 . S
O13 Co0 2.244 . S
O13 C3 1.272 1_455 S
O13 Co5 2.135 . S
Co14 O15 2.216 . S
Co14 O16 2.091 . S
Co14 O18 2.004 . S
Co14 O24 2.021 . S
Co14 O26 2.137 . S
Co14 O27 2.244 . S
O15 Co14 2.216 . S
O15 C22 1.247 . S
O16 Co14 2.091 . S
O16 C22 1.261 . S
C17 O26 1.247 . S
C17 O27 1.272 . S
O18 Co14 2.004 . S
O18 C23 1.259 . S
Co19 O20 2.061 . S
Co19 O25 2.052 . S
Co19 O27 2.135 . S
O20 Co19 2.061 . S
O20 C23 1.235 . S
C21 O24 1.238 . S
C21 O25 1.241 . S
C22 O15 1.247 . S
C22 O16 1.261 . S
C23 O18 1.259 . S
C23 O20 1.235 . S
O24 Co14 2.021 . S
O24 C21 1.238 . S
O25 Co19 2.052 . S
O25 C21 1.241 . S
O26 Co14 2.137 . S
O26 C17 1.247 . S
O27 Co14 2.244 . S
O27 C17 1.272 . S
O27 Co19 2.135 . S
Co28 O29 2.216 1_545 S
Co28 O30 2.091 1_545 S
Co28 O32 2.004 . S
Co28 O38 2.021 . S
Co28 O40 2.137 1_545 S
Co28 O41 2.244 . S
O29 Co28 2.216 1_565 S
O29 C36 1.247 . S
O30 Co28 2.091 1_565 S
O30 C36 1.261 . S
C31 O40 1.247 . S
C31 O41 1.272 1_565 S
O32 Co28 2.004 . S
O32 C37 1.259 . S
Co33 O34 2.061 . S
Co33 O39 2.052 . S
Co33 O41 2.135 . S
O34 Co33 2.061 . S
O34 C37 1.235 . S
C35 O38 1.238 . S
C35 O39 1.241 . S
C36 O29 1.247 . S
C36 O30 1.261 . S
C37 O32 1.259 . S
C37 O34 1.235 . S
O38 Co28 2.021 . S
O38 C35 1.238 . S
O39 Co33 2.052 . S
O39 C35 1.241 . S
O40 Co28 2.137 1_565 S
O40 C31 1.247 . S
O41 Co28 2.244 . S
O41 C31 1.272 1_545 S
O41 Co33 2.135 . S
Co42 O43 2.216 . S
Co42 O44 2.091 . S
Co42 O46 2.004 1_455 S
Co42 O52 2.017 1_455 S
Co42 O54 2.137 . S
Co42 O55 2.244 . S
O43 Co42 2.216 . S
O43 C50 1.247 . S
O44 Co42 2.091 . S
O44 C50 1.261 . S
C45 O54 1.247 . S
C45 O55 1.272 . S
O46 Co42 2.004 1_655 S
O46 C51 1.259 . S
Co47 O48 2.061 . S
Co47 O53 2.052 . S
Co47 O55 2.135 1_655 S
O48 Co47 2.061 . S
O48 C51 1.235 . S
C49 O52 1.243 . S
C49 O53 1.241 . S
C50 O43 1.247 . S
C50 O44 1.261 . S
C51 O46 1.259 . S
C51 O48 1.235 . S
O52 Co42 2.017 1_655 S
O52 C49 1.243 . S
O53 Co47 2.052 . S
O53 C49 1.241 . S
O54 Co42 2.137 . S
O54 C45 1.247 . S
O55 Co42 2.244 . S
O55 C45 1.272 . S
O55 Co47 2.135 1_455 S
Co56 O57 2.216 . S
Co56 O58 2.091 . S
Co56 O60 2.004 . S
Co56 O66 2.021 . S
Co56 O68 2.137 . S
Co56 O69 2.244 . S
O57 Co56 2.216 . S
O57 C64 1.247 . S
O58 Co56 2.091 . S
O58 C64 1.261 . S
C59 O68 1.247 . S
C59 O69 1.272 . S
O60 Co56 2.004 . S
O60 C65 1.259 . S
Co61 O62 2.061 . S
Co61 O67 2.052 . S
Co61 O69 2.135 . S
O62 Co61 2.061 . S
O62 C65 1.235 . S
C63 O66 1.238 . S
C63 O67 1.241 . S
C64 O57 1.247 . S
C64 O58 1.261 . S
C65 O60 1.259 . S
C65 O62 1.235 . S
O66 Co56 2.021 . S
O66 C63 1.238 . S
O67 Co61 2.052 . S
O67 C63 1.241 . S
O68 Co56 2.137 . S
O68 C59 1.247 . S
O69 Co56 2.244 . S
O69 C59 1.272 . S
O69 Co61 2.135 . S
Co70 O71 2.216 . S
Co70 O72 2.091 . S
Co70 O74 2.004 1_545 S
Co70 O80 2.033 . S
Co70 O82 2.137 . S
Co70 O83 2.244 . S
O71 Co70 2.216 . S
O71 C78 1.247 . S
O72 Co70 2.091 . S
O72 C78 1.261 . S
C73 O82 1.247 . S
C73 O83 1.272 . S
O74 Co70 2.004 1_565 S
O74 C79 1.259 . S
Co75 O76 2.061 . S
Co75 O81 2.052 . S
Co75 O83 2.135 1_565 S
O76 Co75 2.061 . S
O76 C79 1.235 . S
C77 O80 1.217 1_565 S
C77 O81 1.241 . S
C78 O71 1.247 . S
C78 O72 1.261 . S
C79 O74 1.259 . S
C79 O76 1.235 . S
O80 Co70 2.033 . S
O80 C77 1.217 1_545 S
O81 Co75 2.052 . S
O81 C77 1.241 . S
O82 Co70 2.137 . S
O82 C73 1.247 . S
O83 Co70 2.244 . S
O83 C73 1.272 . S
O83 Co75 2.135 1_545 S
Co84 O85 2.216 . S
Co84 O86 2.091 . S
Co84 O88 2.004 . S
Co84 O94 2.021 . S
Co84 O96 2.137 . S
Co84 O97 2.244 . S
O85 Co84 2.216 . S
O85 C92 1.247 . S
O86 Co84 2.091 . S
O86 C92 1.261 . S
C87 O96 1.247 . S
C87 O97 1.272 . S
O88 Co84 2.004 . S
O88 C93 1.259 . S
Co89 O90 2.061 . S
Co89 O95 2.052 . S
Co89 O97 2.135 . S
O90 Co89 2.061 . S
O90 C93 1.235 . S
C91 O94 1.238 . S
C91 O95 1.241 . S
C92 O85 1.247 . S
C92 O86 1.261 . S
C93 O88 1.259 . S
C93 O90 1.235 . S
O94 Co84 2.021 . S
O94 C91 1.238 . S
O95 Co89 2.052 . S
O95 C91 1.241 . S
O96 Co84 2.137 . S
O96 C87 1.247 . S
O97 Co84 2.244 . S
O97 C87 1.272 . S
O97 Co89 2.135 . S
Co98 O99 2.216 . S
Co98 O100 2.091 . S
Co98 O102 2.004 . S
Co98 O108 2.021 . S
Co98 O110 2.137 . S
Co98 O111 2.244 . S
O99 Co98 2.216 . S
O99 C106 1.247 . S
O100 Co98 2.091 . S
O100 C106 1.261 . S
C101 O110 1.247 . S
C101 O111 1.272 . S
O102 Co98 2.004 . S
O102 C107 1.259 . S
Co103 O104 2.061 . S
Co103 O109 2.052 . S
Co103 O111 2.135 . S
O104 Co103 2.061 . S
O104 C107 1.235 . S
C105 O108 1.238 . S
C105 O109 1.241 . S
C106 O99 1.247 . S
C106 O100 1.261 . S
C107 O102 1.259 . S
C107 O104 1.235 . S
O108 Co98 2.021 . S
O108 C105 1.238 . S
O109 Co103 2.052 . S
O109 C105 1.241 . S
O110 Co98 2.137 . S
O110 C101 1.247 . S
O111 Co98 2.244 . S
O111 C101 1.272 . S
O111 Co103 2.135 . S
Co112 O113 2.216 . S
Co112 O114 2.091 . S
Co112 O116 2.004 . S
Co112 O122 2.021 . S
Co112 O124 2.137 . S
Co112 O125 2.244 . S
O113 Co112 2.216 . S
O113 C120 1.247 . S
O114 Co112 2.091 . S
O114 C120 1.261 . S
C115 O124 1.247 . S
C115 O125 1.272 . S
O116 Co112 2.004 . S
O116 C121 1.259 . S
Co117 O118 2.061 . S
Co117 O123 2.052 . S
Co117 O125 2.135 . S
O118 Co117 2.061 . S
O118 C121 1.235 . S
C119 O122 1.238 . S
C119 O123 1.241 . S
C120 O113 1.247 . S
C120 O114 1.261 . S
C121 O116 1.259 . S
C121 O118 1.235 . S
O122 Co112 2.021 . S
O122 C119 1.238 . S
O123 Co117 2.052 . S
O123 C119 1.241 . S
O124 Co112 2.137 . S
O124 C115 1.247 . S
O125 Co112 2.244 . S
O125 C115 1.272 . S
O125 Co117 2.135 . S
Co126 O127 2.216 . S
Co126 O128 2.091 . S
Co126 O130 2.004 . S
Co126 O136 2.021 . S
Co126 O138 2.137 . S
Co126 O139 2.244 . S
O127 Co126 2.216 . S
O127 C134 1.247 . S
O128 Co126 2.091 . S
O128 C134 1.261 . S
C129 O138 1.247 . S
C129 O139 1.272 . S
O130 Co126 2.004 . S
O130 C135 1.259 . S
Co131 O132 2.061 . S
Co131 O137 2.052 . S
Co131 O139 2.135 . S
O132 Co131 2.061 . S
O132 C135 1.235 . S
C133 O136 1.238 . S
C133 O137 1.241 . S
C134 O127 1.247 . S
C134 O128 1.261 . S
C135 O130 1.259 . S
C135 O132 1.235 . S
O136 Co126 2.021 . S
O136 C133 1.238 . S
O137 Co131 2.052 . S
O137 C133 1.241 . S
O138 Co126 2.137 . S
O138 C129 1.247 . S
O139 Co126 2.244 . S
O139 C129 1.272 . S
O139 Co131 2.135 . S
Co140 O141 2.216 . S
Co140 O142 2.091 . S
Co140 O144 2.004 . S
Co140 O150 2.021 . S
Co140 O152 2.137 . S
Co140 O153 2.244 . S
O141 Co140 2.216 . S
O141 C148 1.247 . S
O142 Co140 2.091 . S
O142 C148 1.261 . S
C143 O152 1.247 . S
C143 O153 1.272 . S
O144 Co140 2.004 . S
O144 C149 1.259 . S
Co145 O146 2.061 . S
Co145 O151 2.052 . S
Co145 O153 2.135 . S
O146 Co145 2.061 . S
O146 C149 1.235 . S
C147 O150 1.238 . S
C147 O151 1.241 . S
C148 O141 1.247 . S
C148 O142 1.261 . S
C149 O144 1.259 . S
C149 O146 1.235 . S
O150 Co140 2.021 . S
O150 C147 1.238 . S
O151 Co145 2.052 . S
O151 C147 1.241 . S
O152 Co140 2.137 . S
O152 C143 1.247 . S
O153 Co140 2.244 . S
O153 C143 1.272 . S
O153 Co145 2.135 . S
Co154 O155 2.216 . S
Co154 O156 2.091 . S
Co154 O158 2.004 . S
Co154 O164 2.021 . S
Co154 O166 2.137 . S
Co154 O167 2.244 . S
O155 Co154 2.216 . S
O155 C162 1.247 . S
O156 Co154 2.091 . S
O156 C162 1.261 . S
C157 O166 1.247 . S
C157 O167 1.272 . S
O158 Co154 2.004 . S
O158 C163 1.259 . S
Co159 O160 2.061 . S
Co159 O165 2.052 . S
Co159 O167 2.135 . S
O160 Co159 2.061 . S
O160 C163 1.235 . S
C161 O164 1.238 . S
C161 O165 1.241 . S
C162 O155 1.247 . S
C162 O156 1.261 . S
C163 O158 1.259 . S
C163 O160 1.235 . S
O164 Co154 2.021 . S
O164 C161 1.238 . S
O165 Co159 2.052 . S
O165 C161 1.241 . S
O166 Co154 2.137 . S
O166 C157 1.247 . S
O167 Co154 2.244 . S
O167 C157 1.272 . S
O167 Co159 2.135 . S
Co168 O169 2.216 . S
Co168 O170 2.091 . S
Co168 O172 2.004 . S
Co168 O178 2.021 . S
Co168 O180 2.137 . S
Co168 O181 2.244 . S
O169 Co168 2.216 . S
O169 C176 1.247 . S
O170 Co168 2.091 . S
O170 C176 1.261 . S
C171 O180 1.247 . S
C171 O181 1.272 . S
O172 Co168 2.004 . S
O172 C177 1.259 . S
Co173 O174 2.061 . S
Co173 O179 2.052 . S
Co173 O181 2.135 . S
O174 Co173 2.061 . S
O174 C177 1.235 . S
C175 O178 1.238 . S
C175 O179 1.241 . S
C176 O169 1.247 . S
C176 O170 1.261 . S
C177 O172 1.259 . S
C177 O174 1.235 . S
O178 Co168 2.021 . S
O178 C175 1.238 . S
O179 Co173 2.052 . S
O179 C175 1.241 . S
O180 Co168 2.137 . S
O180 C171 1.247 . S
O181 Co168 2.244 . S
O181 C171 1.272 . S
O181 Co173 2.135 . S
Co182 O183 2.216 . S
Co182 O184 2.091 . S
Co182 O186 2.004 . S
Co182 O192 2.021 . S
Co182 O194 2.137 . S
Co182 O195 2.244 . S
O183 Co182 2.216 . S
O183 C190 1.247 . S
O184 Co182 2.091 . S
O184 C190 1.261 . S
C185 O194 1.247 . S
C185 O195 1.272 . S
O186 Co182 2.004 . S
O186 C191 1.259 . S
Co187 O188 2.061 . S
Co187 O193 2.052 . S
Co187 O195 2.135 . S
O188 Co187 2.061 . S
O188 C191 1.235 . S
C189 O192 1.238 . S
C189 O193 1.241 . S
C190 O183 1.247 . S
C190 O184 1.261 . S
C191 O186 1.259 . S
C191 O188 1.235 . S
O192 Co182 2.021 . S
O192 C189 1.238 . S
O193 Co187 2.052 . S
O193 C189 1.241 . S
O194 Co182 2.137 . S
O194 C185 1.247 . S
O195 Co182 2.244 . S
O195 C185 1.272 . S
O195 Co187 2.135 . S
Co196 O197 2.216 . S
Co196 O198 2.091 . S
Co196 O200 2.004 . S
Co196 O206 2.021 . S
Co196 O208 2.137 . S
Co196 O209 2.244 . S
O197 Co196 2.216 . S
O197 C204 1.247 . S
O198 Co196 2.091 . S
O198 C204 1.261 . S
C199 O208 1.247 . S
C199 O209 1.272 . S
O200 Co196 2.004 . S
O200 C205 1.259 . S
Co201 O202 2.061 . S
Co201 O207 2.052 . S
Co201 O209 2.135 . S
O202 Co201 2.061 . S
O202 C205 1.235 . S
C203 O206 1.238 . S
C203 O207 1.241 . S
C204 O197 1.247 . S
C204 O198 1.261 . S
C205 O200 1.259 . S
C205 O202 1.235 . S
O206 Co196 2.021 . S
O206 C203 1.238 . S
O207 Co201 2.052 . S
O207 C203 1.241 . S
O208 Co196 2.137 . S
O208 C199 1.247 . S
O209 Co196 2.244 . S
O209 C199 1.272 . S
O209 Co201 2.135 . S
Co210 O211 2.216 . S
Co210 O212 2.091 . S
Co210 O214 2.004 . S
Co210 O220 2.021 . S
Co210 O222 2.137 . S
Co210 O223 2.244 . S
O211 Co210 2.216 . S
O211 C218 1.247 . S
O212 Co210 2.091 . S
O212 C218 1.261 . S
C213 O222 1.247 . S
C213 O223 1.272 . S
O214 Co210 2.004 . S
O214 C219 1.259 . S
Co215 O216 2.061 . S
Co215 O221 2.052 . S
Co215 O223 2.135 . S
O216 Co215 2.061 . S
O216 C219 1.235 . S
C217 O220 1.238 . S
C217 O221 1.241 . S
C218 O211 1.247 . S
C218 O212 1.261 . S
C219 O214 1.259 . S
C219 O216 1.235 . S
O220 Co210 2.021 . S
O220 C217 1.238 . S
O221 Co215 2.052 . S
O221 C217 1.241 . S
O222 Co210 2.137 . S
O222 C213 1.247 . S
O223 Co210 2.244 . S
O223 C213 1.272 . S
O223 Co215 2.135 . S
Co224 O225 2.216 . S
Co224 O226 2.091 . S
Co224 O228 2.004 . S
Co224 O234 2.021 . S
Co224 O236 2.137 . S
Co224 O237 2.244 . S
O225 Co224 2.216 . S
O225 C232 1.247 . S
O226 Co224 2.091 . S
O226 C232 1.261 . S
C227 O236 1.247 . S
C227 O237 1.272 . S
O228 Co224 2.004 . S
O228 C233 1.259 . S
Co229 O230 2.061 . S
Co229 O235 2.052 . S
Co229 O237 2.135 . S
O230 Co229 2.061 . S
O230 C233 1.235 . S
C231 O234 1.238 . S
C231 O235 1.241 . S
C232 O225 1.247 . S
C232 O226 1.261 . S
C233 O228 1.259 . S
C233 O230 1.235 . S
O234 Co224 2.021 . S
O234 C231 1.238 . S
O235 Co229 2.052 . S
O235 C231 1.241 . S
O236 Co224 2.137 . S
O236 C227 1.247 . S
O237 Co224 2.244 . S
O237 C227 1.272 . S
O237 Co229 2.135 . S
Co238 O239 2.216 . S
Co238 O240 2.091 . S
Co238 O242 2.004 . S
Co238 O248 2.021 . S
Co238 O250 2.137 . S
Co238 O251 2.244 . S
O239 Co238 2.216 . S
O239 C246 1.247 . S
O240 Co238 2.091 . S
O240 C246 1.261 . S
C241 O250 1.247 . S
C241 O251 1.272 . S
O242 Co238 2.004 . S
O242 C247 1.259 . S
Co243 O244 2.061 . S
Co243 O249 2.052 . S
Co243 O251 2.135 . S
O244 Co243 2.061 . S
O244 C247 1.235 . S
C245 O248 1.238 . S
C245 O249 1.241 . S
C246 O239 1.247 . S
C246 O240 1.261 . S
C247 O242 1.259 . S
C247 O244 1.235 . S
O248 Co238 2.021 . S
O248 C245 1.238 . S
O249 Co243 2.052 . S
O249 C245 1.241 . S
O250 Co238 2.137 . S
O250 C241 1.247 . S
O251 Co238 2.244 . S
O251 C241 1.272 . S
O251 Co243 2.135 . S
C252 C253 1.349 . S
C252 C254 1.327 . S
C252 H277 0.950 . S
C253 C252 1.349 . S
C253 C269 1.349 . S
C254 C252 1.327 . S
C254 C273 1.429 . S
C254 H278 0.950 . S
C255 C272 1.574 . S
C255 C274 1.368 . S
C255 H279 0.949 . S
H256 C260 0.949 . S
C257 C258 1.349 . S
C257 C259 1.327 1_556 S
C257 H280 0.950 . S
C258 C257 1.349 . S
C258 C270 1.349 . S
C259 C257 1.327 1_554 S
C259 C275 1.429 . S
C259 H281 0.950 . S
C260 H256 0.949 . S
C260 C268 1.574 . S
C260 C276 1.368 . S
H261 C269 0.921 1_655 S
H262 C267 0.950 . S
H263 C268 0.949 . S
H264 C270 0.950 . S
H265 C271 0.950 . S
H266 C272 0.949 . S
C267 H262 0.950 . S
C267 C269 1.327 . S
C267 C273 1.429 . S
C268 C260 1.574 . S
C268 H263 0.949 . S
C268 C274 1.368 . S
C269 C253 1.349 . S
C269 H261 0.921 1_455 S
C269 C267 1.327 . S
C270 C258 1.349 . S
C270 H264 0.950 . S
C270 C271 1.327 1_556 S
C271 H265 0.950 . S
C271 C270 1.327 1_554 S
C271 C275 1.429 . S
C272 C255 1.574 . S
C272 H266 0.949 . S
C272 C276 1.368 . S
C273 C254 1.429 . S
C273 C267 1.429 . S
C273 C274 1.523 . S
C274 C255 1.368 . S
C274 C268 1.368 . S
C274 C273 1.523 . S
C275 C259 1.429 . S
C275 C271 1.429 . S
C275 C276 1.523 . S
C276 C260 1.368 . S
C276 C272 1.368 . S
C276 C275 1.523 . S
H277 C252 0.950 . S
H278 C254 0.950 . S
H279 C255 0.949 . S
H280 C257 0.950 . S
H281 C259 0.950 . S
C282 C283 1.342 1_554 S
C282 C284 1.335 . S
C282 H307 0.948 1_554 S
C283 C282 1.342 1_556 S
C283 C299 1.349 . S
C284 C282 1.335 . S
C284 C303 1.429 . S
C284 H308 0.950 . S
C285 C302 1.574 . S
C285 C304 1.368 . S
C285 H309 0.949 . S
H286 C290 0.949 . S
C287 C288 1.349 . S
C287 C289 1.327 . S
C287 H310 0.950 . S
C288 C287 1.349 . S
C288 C300 1.349 . S
C289 C287 1.327 . S
C289 C305 1.429 . S
C289 H311 0.950 . S
C290 H286 0.949 . S
C290 C298 1.574 . S
C290 C306 1.368 . S
H291 C299 0.950 . S
H292 C297 0.950 . S
H293 C298 0.949 . S
H294 C300 0.950 . S
H295 C301 0.950 . S
H296 C302 0.949 . S
C297 H292 0.950 . S
C297 C299 1.327 1_554 S
C297 C303 1.429 . S
C298 C290 1.574 . S
C298 H293 0.949 . S
C298 C304 1.368 . S
C299 C283 1.349 . S
C299 H291 0.950 . S
C299 C297 1.327 1_556 S
C300 C288 1.349 . S
C300 H294 0.950 . S
C300 C301 1.327 . S
C301 H295 0.950 . S
C301 C300 1.327 . S
C301 C305 1.429 . S
C302 C285 1.574 . S
C302 H296 0.949 . S
C302 C306 1.368 . S
C303 C284 1.429 . S
C303 C297 1.429 . S
C303 C304 1.523 . S
C304 C285 1.368 . S
C304 C298 1.368 . S
C304 C303 1.523 . S
C305 C289 1.429 . S
C305 C301 1.429 . S
C305 C306 1.523 . S
C306 C290 1.368 . S
C306 C302 1.368 . S
C306 C305 1.523 . S
H307 C282 0.948 1_556 S
H308 C284 0.950 . S
H309 C285 0.949 . S
H310 C287 0.950 . S
H311 C289 0.950 . S
C312 C313 1.349 . S
C312 C314 1.327 . S
C312 H337 0.950 . S
C313 C312 1.349 . S
C313 C329 1.349 1_565 S
C314 C312 1.327 . S
C314 C333 1.429 . S
C314 H338 0.950 . S
C315 C332 1.574 . S
C315 C334 1.368 . S
C315 H339 0.949 1_565 S
H316 C320 0.949 . S
C317 C318 1.349 . S
C317 C319 1.327 1_556 S
C317 H340 0.950 . S
C318 C317 1.349 . S
C318 C330 1.338 1_556 S
C319 C317 1.327 1_554 S
C319 C335 1.429 . S
C319 H341 0.950 . S
C320 H316 0.949 . S
C320 C328 1.574 . S
C320 C336 1.368 . S
H321 C329 0.950 . S
H322 C327 0.950 . S
H323 C328 0.949 . S
H324 C330 0.948 1_556 S
H325 C331 0.950 . S
H326 C332 0.949 . S
C327 H322 0.950 . S
C327 C329 1.327 . S
C327 C333 1.429 1_545 S
C328 C320 1.574 . S
C328 H323 0.949 . S
C328 C334 1.368 . S
C329 C313 1.349 1_545 S
C329 H321 0.950 . S
C329 C327 1.327 . S
C330 C318 1.338 1_554 S
C330 H324 0.948 1_554 S
C330 C331 1.339 . S
C331 H325 0.950 . S
C331 C330 1.339 . S
C331 C335 1.429 . S
C332 C315 1.574 . S
C332 H326 0.949 . S
C332 C336 1.368 . S
C333 C314 1.429 . S
C333 C327 1.429 1_565 S
C333 C334 1.523 . S
C334 C315 1.368 . S
C334 C328 1.368 . S
C334 C333 1.523 . S
C335 C319 1.429 . S
C335 C331 1.429 . S
C335 C336 1.523 . S
C336 C320 1.368 . S
C336 C332 1.368 . S
C336 C335 1.523 . S
H337 C312 0.950 . S
H338 C314 0.950 . S
H339 C315 0.949 1_545 S
H340 C317 0.950 . S
H341 C319 0.950 . S
C342 C343 1.349 . S
C342 C344 1.327 . S
C342 H367 0.950 . S
C343 C342 1.349 . S
C343 C359 1.349 . S
C344 C342 1.327 . S
C344 C363 1.429 . S
C344 H368 0.950 . S
C345 C362 1.574 . S
C345 C364 1.368 . S
C345 H369 0.949 . S
H346 C350 0.949 . S
C347 C348 1.349 . S
C347 C349 1.327 . S
C347 H370 0.950 . S
C348 C347 1.349 . S
C348 C360 1.349 . S
C349 C347 1.327 . S
C349 C365 1.429 . S
C349 H371 0.950 . S
C350 H346 0.949 . S
C350 C358 1.574 . S
C350 C366 1.368 . S
H351 C359 0.950 . S
H352 C357 0.950 . S
H353 C358 0.949 . S
H354 C360 0.950 1_565 S
H355 C361 0.950 . S
H356 C362 0.949 . S
C357 H352 0.950 . S
C357 C359 1.327 . S
C357 C363 1.429 . S
C358 C350 1.574 . S
C358 H353 0.949 . S
C358 C364 1.368 . S
C359 C343 1.349 . S
C359 H351 0.950 . S
C359 C357 1.327 . S
C360 C348 1.349 . S
C360 H354 0.950 1_545 S
C360 C361 1.327 . S
C361 H355 0.950 . S
C361 C360 1.327 . S
C361 C365 1.429 . S
C362 C345 1.574 . S
C362 H356 0.949 . S
C362 C366 1.368 . S
C363 C344 1.429 . S
C363 C357 1.429 . S
C363 C364 1.523 . S
C364 C345 1.368 . S
C364 C358 1.368 . S
C364 C363 1.523 . S
C365 C349 1.429 . S
C365 C361 1.429 . S
C365 C366 1.523 . S
C366 C350 1.368 . S
C366 C362 1.368 . S
C366 C365 1.523 . S
H367 C342 0.950 . S
H368 C344 0.950 . S
H369 C345 0.949 . S
H370 C347 0.950 . S
H371 C349 0.950 . S
C372 C373 1.349 . S
C372 C374 1.327 . S
C372 H397 0.950 . S
C373 C372 1.349 . S
C373 C389 1.349 . S
C374 C372 1.327 . S
C374 C393 1.429 . S
C374 H398 0.950 . S
C375 C392 1.574 . S
C375 C394 1.368 . S
C375 H399 0.949 . S
H376 C380 0.949 1_455 S
C377 C378 1.349 . S
C377 C379 1.327 . S
C377 H400 0.950 . S
C378 C377 1.349 . S
C378 C390 1.349 1_655 S
C379 C377 1.327 . S
C379 C395 1.429 . S
C379 H401 0.950 . S
C380 H376 0.949 1_655 S
C380 C388 1.574 . S
C380 C396 1.368 . S
H381 C389 0.950 . S
H382 C387 0.950 . S
H383 C388 0.929 1_455 S
H384 C390 0.950 . S
H385 C391 0.950 . S
H386 C392 0.949 . S
C387 H382 0.950 . S
C387 C389 1.327 . S
C387 C393 1.429 . S
C388 C380 1.574 . S
C388 H383 0.929 1_655 S
C388 C394 1.368 . S
C389 C373 1.349 . S
C389 H381 0.950 . S
C389 C387 1.327 . S
C390 C378 1.349 1_455 S
C390 H384 0.950 . S
C390 C391 1.327 . S
C391 H385 0.950 . S
C391 C390 1.327 . S
C391 C395 1.429 1_455 S
C392 C375 1.574 . S
C392 H386 0.949 . S
C392 C396 1.368 . S
C393 C374 1.429 . S
C393 C387 1.429 . S
C393 C394 1.523 . S
C394 C375 1.368 . S
C394 C388 1.368 . S
C394 C393 1.523 . S
C395 C379 1.429 . S
C395 C391 1.429 1_655 S
C395 C396 1.523 . S
C396 C380 1.368 . S
C396 C392 1.368 . S
C396 C395 1.523 . S
H397 C372 0.950 . S
H398 C374 0.950 . S
H399 C375 0.949 . S
H400 C377 0.950 . S
H401 C379 0.950 . S
C402 C403 1.349 . S
C402 C404 1.327 . S
C402 H427 0.950 . S
C403 C402 1.349 . S
C403 C419 1.349 . S
C404 C402 1.327 . S
C404 C423 1.429 . S
C404 H428 0.950 . S
C405 C422 1.574 . S
C405 C424 1.368 . S
C405 H429 0.949 . S
H406 C410 0.949 . S
C407 C408 1.349 . S
C407 C409 1.327 . S
C407 H430 0.950 . S
C408 C407 1.349 . S
C408 C420 1.349 . S
C409 C407 1.327 . S
C409 C425 1.429 . S
C409 H431 0.950 . S
C410 H406 0.949 . S
C410 C418 1.574 . S
C410 C426 1.368 . S
H411 C419 0.950 . S
H412 C417 0.950 . S
H413 C418 0.949 . S
H414 C420 0.950 . S
H415 C421 0.950 . S
H416 C422 0.949 . S
C417 H412 0.950 . S
C417 C419 1.327 . S
C417 C423 1.429 . S
C418 C410 1.574 . S
C418 H413 0.949 . S
C418 C424 1.368 . S
C419 C403 1.349 . S
C419 H411 0.950 . S
C419 C417 1.327 . S
C420 C408 1.349 . S
C420 H414 0.950 . S
C420 C421 1.327 . S
C421 H415 0.950 . S
C421 C420 1.327 . S
C421 C425 1.429 . S
C422 C405 1.574 . S
C422 H416 0.949 . S
C422 C426 1.368 . S
C423 C404 1.429 . S
C423 C417 1.429 . S
C423 C424 1.523 . S
C424 C405 1.368 . S
C424 C418 1.368 . S
C424 C423 1.523 . S
C425 C409 1.429 . S
C425 C421 1.429 . S
C425 C426 1.523 . S
C426 C410 1.368 . S
C426 C422 1.368 . S
C426 C425 1.523 . S
H427 C402 0.950 . S
H428 C404 0.950 . S
H429 C405 0.949 . S
H430 C407 0.950 . S
H431 C409 0.950 . S
C432 C433 1.349 . S
C432 C434 1.327 . S
C432 H457 0.950 . S
C433 C432 1.349 . S
C433 C449 1.349 . S
C434 C432 1.327 . S
C434 C453 1.429 . S
C434 H458 0.950 . S
C435 C452 1.574 . S
C435 C454 1.368 . S
C435 H459 0.949 . S
H436 C440 0.949 . S
C437 C438 1.344 1_556 S
C437 C439 1.333 . S
C437 H460 0.949 1_556 S
C438 C437 1.344 1_554 S
C438 C450 1.349 . S
C439 C437 1.333 . S
C439 C455 1.429 . S
C439 H461 0.950 . S
C440 H436 0.949 . S
C440 C448 1.574 . S
C440 C456 1.368 . S
H441 C449 0.950 1_455 S
H442 C447 0.950 . S
H443 C448 0.949 . S
H444 C450 0.950 . S
H445 C451 0.950 . S
H446 C452 0.949 . S
C447 H442 0.950 . S
C447 C449 1.327 . S
C447 C453 1.429 . S
C448 C440 1.574 . S
C448 H443 0.949 . S
C448 C454 1.368 . S
C449 C433 1.349 . S
C449 H441 0.950 1_655 S
C449 C447 1.327 . S
C450 C438 1.349 . S
C450 H444 0.950 . S
C450 C451 1.327 1_554 S
C451 H445 0.950 . S
C451 C450 1.327 1_556 S
C451 C455 1.429 . S
C452 C435 1.574 . S
C452 H446 0.949 . S
C452 C456 1.368 . S
C453 C434 1.429 . S
C453 C447 1.429 . S
C453 C454 1.523 . S
C454 C435 1.368 . S
C454 C448 1.368 . S
C454 C453 1.523 . S
C455 C439 1.429 . S
C455 C451 1.429 . S
C455 C456 1.523 . S
C456 C440 1.368 . S
C456 C452 1.368 . S
C456 C455 1.523 . S
H457 C432 0.950 . S
H458 C434 0.950 . S
H459 C435 0.949 . S
H460 C437 0.949 1_554 S
H461 C439 0.950 . S
C462 C463 1.349 . S
C462 C464 1.327 1_554 S
C462 H487 0.950 . S
C463 C462 1.349 . S
C463 C479 1.349 . S
C464 C462 1.327 1_556 S
C464 C483 1.429 . S
C464 H488 0.950 . S
C465 C482 1.574 . S
C465 C484 1.368 . S
C465 H489 0.949 . S
H466 C470 0.949 . S
C467 C468 1.349 . S
C467 C469 1.327 . S
C467 H490 0.950 . S
C468 C467 1.349 . S
C468 C480 1.349 . S
C469 C467 1.327 . S
C469 C485 1.429 . S
C469 H491 0.950 . S
C470 H466 0.949 . S
C470 C478 1.574 . S
C470 C486 1.368 . S
H471 C479 0.950 . S
H472 C477 0.950 . S
H473 C478 0.949 . S
H474 C480 0.950 . S
H475 C481 0.950 . S
H476 C482 0.949 . S
C477 H472 0.950 . S
C477 C479 1.327 1_556 S
C477 C483 1.429 . S
C478 C470 1.574 . S
C478 H473 0.949 . S
C478 C484 1.368 . S
C479 C463 1.349 . S
C479 H471 0.950 . S
C479 C477 1.327 1_554 S
C480 C468 1.349 . S
C480 H474 0.950 . S
C480 C481 1.327 . S
C481 H475 0.950 . S
C481 C480 1.327 . S
C481 C485 1.429 . S
C482 C465 1.574 . S
C482 H476 0.949 . S
C482 C486 1.368 . S
C483 C464 1.429 . S
C483 C477 1.429 . S
C483 C484 1.523 . S
C484 C465 1.368 . S
C484 C478 1.368 . S
C484 C483 1.523 . S
C485 C469 1.429 . S
C485 C481 1.429 . S
C485 C486 1.523 . S
C486 C470 1.368 . S
C486 C482 1.368 . S
C486 C485 1.523 . S
H487 C462 0.950 . S
H488 C464 0.950 . S
H489 C465 0.949 . S
H490 C467 0.950 . S
H491 C469 0.950 . S
C492 C493 1.349 . S
C492 C494 1.327 1_554 S
C492 H517 0.950 . S
C493 C492 1.349 . S
C493 C509 1.349 1_554 S
C494 C492 1.327 1_556 S
C494 C513 1.429 . S
C494 H518 0.950 . S
C495 C512 1.574 . S
C495 C514 1.368 . S
C495 H519 0.949 . S
H496 C500 0.949 . S
C497 C498 1.349 . S
C497 C499 1.327 . S
C497 H520 0.950 . S
C498 C497 1.349 . S
C498 C510 1.349 . S
C499 C497 1.327 . S
C499 C515 1.429 . S
C499 H521 0.950 . S
C500 H496 0.949 . S
C500 C508 1.574 . S
C500 C516 1.368 . S
H501 C509 0.950 . S
H502 C507 0.950 . S
H503 C508 0.949 . S
H504 C510 0.950 . S
H505 C511 0.950 . S
H506 C512 0.949 . S
C507 H502 0.950 . S
C507 C509 1.327 . S
C507 C513 1.429 . S
C508 C500 1.574 . S
C508 H503 0.949 . S
C508 C514 1.368 . S
C509 C493 1.349 1_556 S
C509 H501 0.950 . S
C509 C507 1.327 . S
C510 C498 1.349 . S
C510 H504 0.950 . S
C510 C511 1.327 . S
C511 H505 0.950 . S
C511 C510 1.327 . S
C511 C515 1.429 . S
C512 C495 1.574 . S
C512 H506 0.949 . S
C512 C516 1.368 . S
C513 C494 1.429 . S
C513 C507 1.429 . S
C513 C514 1.523 . S
C514 C495 1.368 . S
C514 C508 1.368 . S
C514 C513 1.523 . S
C515 C499 1.429 . S
C515 C511 1.429 . S
C515 C516 1.523 . S
C516 C500 1.368 . S
C516 C512 1.368 . S
C516 C515 1.523 . S
H517 C492 0.950 . S
H518 C494 0.950 . S
H519 C495 0.949 . S
H520 C497 0.950 . S
H521 C499 0.950 . S
C522 C523 1.349 . S
C522 C524 1.327 . S
C522 H547 0.950 . S
C523 C522 1.349 . S
C523 C539 1.349 1_565 S
C524 C522 1.327 . S
C524 C543 1.429 . S
C524 H548 0.950 . S
C525 C542 1.574 . S
C525 C544 1.368 . S
C525 H549 0.949 1_565 S
H526 C530 0.949 . S
C527 C528 1.349 . S
C527 C529 1.327 . S
C527 H550 0.950 . S
C528 C527 1.349 . S
C528 C540 1.349 . S
C529 C527 1.327 . S
C529 C545 1.429 . S
C529 H551 0.950 . S
C530 H526 0.949 . S
C530 C538 1.574 . S
C530 C546 1.368 . S
H531 C539 0.950 . S
H532 C537 0.944 1_545 S
H533 C538 0.949 . S
H534 C540 0.950 . S
H535 C541 0.950 . S
H536 C542 0.949 . S
C537 H532 0.944 1_565 S
C537 C539 1.319 1_565 S
C537 C543 1.442 . S
C538 C530 1.574 . S
C538 H533 0.949 . S
C538 C544 1.368 . S
C539 C523 1.349 1_545 S
C539 H531 0.950 . S
C539 C537 1.319 1_545 S
C540 C528 1.349 . S
C540 H534 0.950 . S
C540 C541 1.327 . S
C541 H535 0.950 . S
C541 C540 1.327 . S
C541 C545 1.429 . S
C542 C525 1.574 . S
C542 H536 0.949 . S
C542 C546 1.368 . S
C543 C524 1.429 . S
C543 C537 1.442 . S
C543 C544 1.523 . S
C544 C525 1.368 . S
C544 C538 1.368 . S
C544 C543 1.523 . S
C545 C529 1.429 . S
C545 C541 1.429 . S
C545 C546 1.523 . S
C546 C530 1.368 . S
C546 C542 1.368 . S
C546 C545 1.523 . S
H547 C522 0.950 . S
H548 C524 0.950 . S
H549 C525 0.949 1_545 S
H550 C527 0.950 . S
H551 C529 0.950 . S
C552 C553 1.349 . S
C552 C554 1.327 . S
C552 H577 0.950 . S
C553 C552 1.349 . S
C553 C569 1.349 . S
C554 C552 1.327 . S
C554 C573 1.429 . S
C554 H578 0.950 . S
C555 C572 1.574 . S
C555 C574 1.368 . S
C555 H579 0.949 . S
H556 C560 0.949 . S
C557 C558 1.349 . S
C557 C559 1.327 . S
C557 H580 0.950 . S
C558 C557 1.349 . S
C558 C570 1.349 . S
C559 C557 1.327 . S
C559 C575 1.429 . S
C559 H581 0.950 . S
C560 H556 0.949 . S
C560 C568 1.574 . S
C560 C576 1.368 . S
H561 C569 0.950 1_655 S
H562 C567 0.950 . S
H563 C568 0.949 . S
H564 C570 0.950 . S
H565 C571 0.950 . S
H566 C572 0.949 . S
C567 H562 0.950 . S
C567 C569 1.327 . S
C567 C573 1.429 . S
C568 C560 1.574 . S
C568 H563 0.949 . S
C568 C574 1.368 . S
C569 C553 1.349 . S
C569 H561 0.950 1_455 S
C569 C567 1.327 . S
C570 C558 1.349 . S
C570 H564 0.950 . S
C570 C571 1.327 . S
C571 H565 0.950 . S
C571 C570 1.327 . S
C571 C575 1.429 . S
C572 C555 1.574 . S
C572 H566 0.949 . S
C572 C576 1.368 . S
C573 C554 1.429 . S
C573 C567 1.429 . S
C573 C574 1.523 . S
C574 C555 1.368 . S
C574 C568 1.368 . S
C574 C573 1.523 . S
C575 C559 1.429 . S
C575 C571 1.429 . S
C575 C576 1.523 . S
C576 C560 1.368 . S
C576 C572 1.368 . S
C576 C575 1.523 . S
H577 C552 0.950 . S
H578 C554 0.950 . S
H579 C555 0.949 . S
H580 C557 0.950 . S
H581 C559 0.950 . S
C582 C583 1.349 . S
C582 C584 1.327 . S
C582 H607 0.950 . S
C583 C582 1.349 . S
C583 C599 1.349 . S
C584 C582 1.327 . S
C584 C603 1.429 . S
C584 H608 0.950 . S
C585 C602 1.574 . S
C585 C604 1.368 . S
C585 H609 0.949 . S
H586 C590 0.949 . S
C587 C588 1.349 . S
C587 C589 1.327 . S
C587 H610 0.950 . S
C588 C587 1.349 . S
C588 C600 1.349 . S
C589 C587 1.327 . S
C589 C605 1.429 . S
C589 H611 0.950 . S
C590 H586 0.949 . S
C590 C598 1.574 . S
C590 C606 1.368 . S
H591 C599 0.950 . S
H592 C597 0.950 . S
H593 C598 0.949 . S
H594 C600 0.950 . S
H595 C601 0.950 . S
H596 C602 0.949 . S
C597 H592 0.950 . S
C597 C599 1.327 . S
C597 C603 1.429 . S
C598 C590 1.574 . S
C598 H593 0.949 . S
C598 C604 1.368 . S
C599 C583 1.349 . S
C599 H591 0.950 . S
C599 C597 1.327 . S
C600 C588 1.349 . S
C600 H594 0.950 . S
C600 C601 1.327 . S
C601 H595 0.950 . S
C601 C600 1.327 . S
C601 C605 1.429 . S
C602 C585 1.574 . S
C602 H596 0.949 . S
C602 C606 1.368 . S
C603 C584 1.429 . S
C603 C597 1.429 . S
C603 C604 1.523 . S
C604 C585 1.368 . S
C604 C598 1.368 . S
C604 C603 1.523 . S
C605 C589 1.429 . S
C605 C601 1.429 . S
C605 C606 1.523 . S
C606 C590 1.368 . S
C606 C602 1.368 . S
C606 C605 1.523 . S
H607 C582 0.950 . S
H608 C584 0.950 . S
H609 C585 0.949 . S
H610 C587 0.950 . S
H611 C589 0.950 . S
C612 C613 1.349 . S
C612 C614 1.327 . S
C612 H637 0.950 . S
C613 C612 1.349 . S
C613 C629 1.349 . S
C614 C612 1.327 . S
C614 C633 1.429 . S
C614 H638 0.950 . S
C615 C632 1.574 . S
C615 C634 1.368 . S
C615 H639 0.949 . S
H616 C620 0.949 . S
C617 C618 1.349 . S
C617 C619 1.327 . S
C617 H640 0.950 . S
C618 C617 1.349 . S
C618 C630 1.349 . S
C619 C617 1.327 . S
C619 C635 1.429 . S
C619 H641 0.950 . S
C620 H616 0.949 . S
C620 C628 1.574 . S
C620 C636 1.368 . S
H621 C629 0.950 . S
H622 C627 0.950 . S
H623 C628 0.949 . S
H624 C630 0.950 . S
H625 C631 0.950 . S
H626 C632 0.949 . S
C627 H622 0.950 . S
C627 C629 1.327 . S
C627 C633 1.429 . S
C628 C620 1.574 . S
C628 H623 0.949 . S
C628 C634 1.368 . S
C629 C613 1.349 . S
C629 H621 0.950 . S
C629 C627 1.327 . S
C630 C618 1.349 . S
C630 H624 0.950 . S
C630 C631 1.327 . S
C631 H625 0.950 . S
C631 C630 1.327 . S
C631 C635 1.429 . S
C632 C615 1.574 . S
C632 H626 0.949 . S
C632 C636 1.368 . S
C633 C614 1.429 . S
C633 C627 1.429 . S
C633 C634 1.523 . S
C634 C615 1.368 . S
C634 C628 1.368 . S
C634 C633 1.523 . S
C635 C619 1.429 . S
C635 C631 1.429 . S
C635 C636 1.523 . S
C636 C620 1.368 . S
C636 C632 1.368 . S
C636 C635 1.523 . S
H637 C612 0.950 . S
H638 C614 0.950 . S
H639 C615 0.949 . S
H640 C617 0.950 . S
H641 C619 0.950 . S
C642 C643 1.349 . S
C642 C644 1.327 . S
C642 H667 0.950 . S
C643 C642 1.349 . S
C643 C659 1.349 . S
C644 C642 1.327 . S
C644 C663 1.429 . S
C644 H668 0.950 . S
C645 C662 1.574 . S
C645 C664 1.368 . S
C645 H669 0.949 . S
H646 C650 0.949 . S
C647 C648 1.349 . S
C647 C649 1.327 . S
C647 H670 0.950 . S
C648 C647 1.349 . S
C648 C660 1.349 . S
C649 C647 1.327 . S
C649 C665 1.429 . S
C649 H671 0.950 1_565 S
C650 H646 0.949 . S
C650 C658 1.574 . S
C650 C666 1.368 . S
H651 C659 0.950 . S
H652 C657 0.950 . S
H653 C658 0.949 . S
H654 C660 0.950 . S
H655 C661 0.950 . S
H656 C662 0.949 . S
C657 H652 0.950 . S
C657 C659 1.327 . S
C657 C663 1.429 . S
C658 C650 1.574 . S
C658 H653 0.949 . S
C658 C664 1.368 1_565 S
C659 C643 1.349 . S
C659 H651 0.950 . S
C659 C657 1.327 . S
C660 C648 1.349 . S
C660 H654 0.950 . S
C660 C661 1.327 . S
C661 H655 0.950 . S
C661 C660 1.327 . S
C661 C665 1.429 . S
C662 C645 1.574 . S
C662 H656 0.949 . S
C662 C666 1.368 1_545 S
C663 C644 1.429 . S
C663 C657 1.429 . S
C663 C664 1.523 . S
C664 C645 1.368 . S
C664 C658 1.368 1_545 S
C664 C663 1.523 . S
C665 C649 1.429 . S
C665 C661 1.429 . S
C665 C666 1.523 . S
C666 C650 1.368 . S
C666 C662 1.368 1_565 S
C666 C665 1.523 . S
H667 C642 0.950 . S
H668 C644 0.950 . S
H669 C645 0.949 . S
H670 C647 0.950 . S
H671 C649 0.950 1_545 S
C672 C673 1.349 . S
C672 C674 1.327 . S
C672 H697 0.950 . S
C673 C672 1.349 . S
C673 C689 1.349 . S
C674 C672 1.327 . S
C674 C693 1.429 . S
C674 H698 0.950 . S
C675 C692 1.574 . S
C675 C694 1.368 . S
C675 H699 0.949 . S
H676 C680 0.949 . S
C677 C678 1.349 . S
C677 C679 1.327 1_655 S
C677 H700 0.950 . S
C678 C677 1.349 . S
C678 C690 1.349 . S
C679 C677 1.327 1_455 S
C679 C695 1.429 1_455 S
C679 H701 0.950 . S
C680 H676 0.949 . S
C680 C688 1.574 1_655 S
C680 C696 1.368 1_655 S
H681 C689 0.950 . S
H682 C687 0.950 . S
H683 C688 0.949 1_655 S
H684 C690 0.950 . S
H685 C691 0.950 . S
H686 C692 0.949 . S
C687 H682 0.950 . S
C687 C689 1.327 . S
C687 C693 1.429 . S
C688 C680 1.574 1_455 S
C688 H683 0.949 1_455 S
C688 C694 1.368 . S
C689 C673 1.349 . S
C689 H681 0.950 . S
C689 C687 1.327 . S
C690 C678 1.349 . S
C690 H684 0.950 . S
C690 C691 1.327 . S
C691 H685 0.950 . S
C691 C690 1.327 . S
C691 C695 1.429 . S
C692 C675 1.574 . S
C692 H686 0.949 . S
C692 C696 1.368 . S
C693 C674 1.429 . S
C693 C687 1.429 . S
C693 C694 1.523 . S
C694 C675 1.368 . S
C694 C688 1.368 . S
C694 C693 1.523 . S
C695 C679 1.429 1_655 S
C695 C691 1.429 . S
C695 C696 1.523 1_655 S
C696 C680 1.368 1_455 S
C696 C692 1.368 . S
C696 C695 1.523 1_455 S
H697 C672 0.950 . S
H698 C674 0.950 . S
H699 C675 0.949 . S
H700 C677 0.950 . S
H701 C679 0.950 . S
C702 C703 1.349 . S
C702 C704 1.327 . S
C702 H727 0.950 . S
C703 C702 1.349 . S
C703 C719 1.349 . S
C704 C702 1.327 . S
C704 C723 1.429 . S
C704 H728 0.950 . S
C705 C722 1.574 . S
C705 C724 1.368 . S
C705 H729 0.949 . S
H706 C710 0.949 . S
C707 C708 1.349 . S
C707 C709 1.327 . S
C707 H730 0.950 . S
C708 C707 1.349 . S
C708 C720 1.349 . S
C709 C707 1.327 . S
C709 C725 1.429 . S
C709 H731 0.950 . S
C710 H706 0.949 . S
C710 C718 1.574 . S
C710 C726 1.368 . S
H711 C719 0.950 . S
H712 C717 0.950 . S
H713 C718 0.949 . S
H714 C720 0.950 . S
H715 C721 0.950 . S
H716 C722 0.949 . S
C717 H712 0.950 . S
C717 C719 1.327 . S
C717 C723 1.429 . S
C718 C710 1.574 . S
C718 H713 0.949 . S
C718 C724 1.368 . S
C719 C703 1.349 . S
C719 H711 0.950 . S
C719 C717 1.327 . S
C720 C708 1.349 . S
C720 H714 0.950 . S
C720 C721 1.327 . S
C721 H715 0.950 . S
C721 C720 1.327 . S
C721 C725 1.429 . S
C722 C705 1.574 . S
C722 H716 0.949 . S
C722 C726 1.368 . S
C723 C704 1.429 . S
C723 C717 1.429 . S
C723 C724 1.523 . S
C724 C705 1.368 . S
C724 C718 1.368 . S
C724 C723 1.523 . S
C725 C709 1.429 . S
C725 C721 1.429 . S
C725 C726 1.523 . S
C726 C710 1.368 . S
C726 C722 1.368 . S
C726 C725 1.523 . S
H727 C702 0.950 . S
H728 C704 0.950 . S
H729 C705 0.949 . S
H730 C707 0.950 . S
H731 C709 0.950 . S
C732 C733 1.349 . S
C732 C734 1.327 . S
C732 H757 0.950 . S
C733 C732 1.349 . S
C733 C749 1.349 . S
C734 C732 1.327 . S
C734 C753 1.429 . S
C734 H758 0.950 . S
C735 C752 1.574 . S
C735 C754 1.368 . S
C735 H759 0.949 . S
H736 C740 0.949 . S
C737 C738 1.349 . S
C737 C739 1.327 . S
C737 H760 0.950 . S
C738 C737 1.349 . S
C738 C750 1.349 . S
C739 C737 1.327 . S
C739 C755 1.429 . S
C739 H761 0.950 1_565 S
C740 H736 0.949 . S
C740 C748 1.574 . S
C740 C756 1.368 . S
H741 C749 0.950 . S
H742 C747 0.950 . S
H743 C748 0.949 . S
H744 C750 0.950 . S
H745 C751 0.950 . S
H746 C752 0.949 . S
C747 H742 0.950 . S
C747 C749 1.327 . S
C747 C753 1.429 . S
C748 C740 1.574 . S
C748 H743 0.949 . S
C748 C754 1.368 1_565 S
C749 C733 1.349 . S
C749 H741 0.950 . S
C749 C747 1.327 . S
C750 C738 1.349 . S
C750 H744 0.950 . S
C750 C751 1.327 . S
C751 H745 0.950 . S
C751 C750 1.327 . S
C751 C755 1.429 . S
C752 C735 1.574 . S
C752 H746 0.949 . S
C752 C756 1.368 1_545 S
C753 C734 1.429 . S
C753 C747 1.429 . S
C753 C754 1.523 . S
C754 C735 1.368 . S
C754 C748 1.368 1_545 S
C754 C753 1.523 . S
C755 C739 1.429 . S
C755 C751 1.429 . S
C755 C756 1.523 . S
C756 C740 1.368 . S
C756 C752 1.368 1_565 S
C756 C755 1.523 . S
H757 C732 0.950 . S
H758 C734 0.950 . S
H759 C735 0.949 . S
H760 C737 0.950 . S
H761 C739 0.950 1_545 S
C762 C763 1.349 . S
C762 C764 1.327 . S
C762 H787 0.950 . S
C763 C762 1.349 . S
C763 C779 1.349 . S
C764 C762 1.327 . S
C764 C783 1.429 . S
C764 H788 0.950 . S
C765 C782 1.574 . S
C765 C784 1.368 1_655 S
C765 H789 0.949 . S
H766 C770 0.949 . S
C767 C768 1.349 . S
C767 C769 1.327 . S
C767 H790 0.950 . S
C768 C767 1.349 . S
C768 C780 1.349 . S
C769 C767 1.327 . S
C769 C785 1.429 . S
C769 H791 0.950 . S
C770 H766 0.949 . S
C770 C778 1.574 . S
C770 C786 1.368 1_455 S
H771 C779 0.950 . S
H772 C777 0.950 . S
H773 C778 0.949 . S
H774 C780 0.950 . S
H775 C781 0.950 1_455 S
H776 C782 0.949 . S
C777 H772 0.950 . S
C777 C779 1.327 . S
C777 C783 1.429 . S
C778 C770 1.574 . S
C778 H773 0.949 . S
C778 C784 1.368 . S
C779 C763 1.349 . S
C779 H771 0.950 . S
C779 C777 1.327 . S
C780 C768 1.349 . S
C780 H774 0.950 . S
C780 C781 1.327 . S
C781 H775 0.950 1_655 S
C781 C780 1.327 . S
C781 C785 1.429 . S
C782 C765 1.574 . S
C782 H776 0.949 . S
C782 C786 1.368 . S
C783 C764 1.429 . S
C783 C777 1.429 . S
C783 C784 1.523 . S
C784 C765 1.368 1_455 S
C784 C778 1.368 . S
C784 C783 1.523 . S
C785 C769 1.429 . S
C785 C781 1.429 . S
C785 C786 1.523 . S
C786 C770 1.368 1_655 S
C786 C782 1.368 . S
C786 C785 1.523 . S
H787 C762 0.950 . S
H788 C764 0.950 . S
H789 C765 0.949 . S
H790 C767 0.950 . S
H791 C769 0.950 . S
C792 C793 1.349 . S
C792 C794 1.327 . S
C792 H817 0.950 . S
C793 C792 1.349 . S
C793 C809 1.349 . S
C794 C792 1.327 . S
C794 C813 1.429 . S
C794 H818 0.950 . S
C795 C812 1.574 . S
C795 C814 1.368 . S
C795 H819 0.949 . S
H796 C800 0.949 . S
C797 C798 1.349 . S
C797 C799 1.327 . S
C797 H820 0.950 . S
C798 C797 1.349 . S
C798 C810 1.349 . S
C799 C797 1.327 . S
C799 C815 1.429 . S
C799 H821 0.950 . S
C800 H796 0.949 . S
C800 C808 1.574 . S
C800 C816 1.368 . S
H801 C809 0.950 . S
H802 C807 0.950 . S
H803 C808 0.949 . S
H804 C810 0.950 . S
H805 C811 0.950 . S
H806 C812 0.949 . S
C807 H802 0.950 . S
C807 C809 1.327 . S
C807 C813 1.429 . S
C808 C800 1.574 . S
C808 H803 0.949 . S
C808 C814 1.368 . S
C809 C793 1.349 . S
C809 H801 0.950 . S
C809 C807 1.327 . S
C810 C798 1.349 . S
C810 H804 0.950 . S
C810 C811 1.327 . S
C811 H805 0.950 . S
C811 C810 1.327 . S
C811 C815 1.429 . S
C812 C795 1.574 . S
C812 H806 0.949 . S
C812 C816 1.368 . S
C813 C794 1.429 . S
C813 C807 1.429 . S
C813 C814 1.523 . S
C814 C795 1.368 . S
C814 C808 1.368 . S
C814 C813 1.523 . S
C815 C799 1.429 . S
C815 C811 1.429 . S
C815 C816 1.523 . S
C816 C800 1.368 . S
C816 C812 1.368 . S
C816 C815 1.523 . S
H817 C792 0.950 . S
H818 C794 0.950 . S
H819 C795 0.949 . S
H820 C797 0.950 . S
H821 C799 0.950 . S
C822 C823 1.349 . S
C822 C824 1.327 . S
C822 H847 0.950 . S
C823 C822 1.349 . S
C823 C839 1.349 . S
C824 C822 1.327 . S
C824 C843 1.429 . S
C824 H848 0.950 . S
C825 C842 1.574 . S
C825 C844 1.368 . S
C825 H849 0.949 . S
H826 C830 0.949 . S
C827 C828 1.349 . S
C827 C829 1.327 . S
C827 H850 0.950 . S
C828 C827 1.349 . S
C828 C840 1.349 . S
C829 C827 1.327 . S
C829 C845 1.429 . S
C829 H851 0.950 . S
C830 H826 0.949 . S
C830 C838 1.574 . S
C830 C846 1.368 . S
H831 C839 0.950 . S
H832 C837 0.950 . S
H833 C838 0.949 . S
H834 C840 0.950 . S
H835 C841 0.950 . S
H836 C842 0.949 . S
C837 H832 0.950 . S
C837 C839 1.327 . S
C837 C843 1.429 . S
C838 C830 1.574 . S
C838 H833 0.949 . S
C838 C844 1.368 . S
C839 C823 1.349 . S
C839 H831 0.950 . S
C839 C837 1.327 . S
C840 C828 1.349 . S
C840 H834 0.950 . S
C840 C841 1.327 . S
C841 H835 0.950 . S
C841 C840 1.327 . S
C841 C845 1.429 . S
C842 C825 1.574 . S
C842 H836 0.949 . S
C842 C846 1.368 . S
C843 C824 1.429 . S
C843 C837 1.429 . S
C843 C844 1.523 . S
C844 C825 1.368 . S
C844 C838 1.368 . S
C844 C843 1.523 . S
C845 C829 1.429 . S
C845 C841 1.429 . S
C845 C846 1.523 . S
C846 C830 1.368 . S
C846 C842 1.368 . S
C846 C845 1.523 . S
H847 C822 0.950 . S
H848 C824 0.950 . S
H849 C825 0.949 . S
H850 C827 0.950 . S
H851 C829 0.950 . S
C852 C853 1.349 . S
C852 C854 1.327 . S
C852 H877 0.950 . S
C853 C852 1.349 . S
C853 C869 1.349 . S
C854 C852 1.327 . S
C854 C873 1.429 . S
C854 H878 0.950 . S
C855 C872 1.574 . S
C855 C874 1.368 . S
C855 H879 0.949 . S
H856 C860 0.949 . S
C857 C858 1.349 . S
C857 C859 1.327 . S
C857 H880 0.950 . S
C858 C857 1.349 . S
C858 C870 1.349 . S
C859 C857 1.327 . S
C859 C875 1.429 . S
C859 H881 0.950 . S
C860 H856 0.949 . S
C860 C868 1.574 . S
C860 C876 1.368 . S
H861 C869 0.950 . S
H862 C867 0.950 . S
H863 C868 0.949 . S
H864 C870 0.950 . S
H865 C871 0.950 . S
H866 C872 0.949 . S
C867 H862 0.950 . S
C867 C869 1.327 . S
C867 C873 1.429 . S
C868 C860 1.574 . S
C868 H863 0.949 . S
C868 C874 1.368 . S
C869 C853 1.349 . S
C869 H861 0.950 . S
C869 C867 1.327 . S
C870 C858 1.349 . S
C870 H864 0.950 . S
C870 C871 1.327 . S
C871 H865 0.950 . S
C871 C870 1.327 . S
C871 C875 1.429 . S
C872 C855 1.574 . S
C872 H866 0.949 . S
C872 C876 1.368 . S
C873 C854 1.429 . S
C873 C867 1.429 . S
C873 C874 1.523 . S
C874 C855 1.368 . S
C874 C868 1.368 . S
C874 C873 1.523 . S
C875 C859 1.429 . S
C875 C871 1.429 . S
C875 C876 1.523 . S
C876 C860 1.368 . S
C876 C872 1.368 . S
C876 C875 1.523 . S
H877 C852 0.950 . S
H878 C854 0.950 . S
H879 C855 0.949 . S
H880 C857 0.950 . S
H881 C859 0.950 . S
C882 C883 1.349 . S
C882 C884 1.327 . S
C882 H907 0.950 . S
C883 C882 1.349 . S
C883 C899 1.349 . S
C884 C882 1.327 . S
C884 C903 1.429 . S
C884 H908 0.950 . S
C885 C902 1.574 . S
C885 C904 1.368 . S
C885 H909 0.949 . S
H886 C890 0.949 . S
C887 C888 1.349 . S
C887 C889 1.327 . S
C887 H910 0.950 . S
C888 C887 1.349 . S
C888 C900 1.349 . S
C889 C887 1.327 . S
C889 C905 1.429 . S
C889 H911 0.950 . S
C890 H886 0.949 . S
C890 C898 1.574 . S
C890 C906 1.368 . S
H891 C899 0.950 . S
H892 C897 0.950 . S
H893 C898 0.949 . S
H894 C900 0.950 . S
H895 C901 0.950 . S
H896 C902 0.949 . S
C897 H892 0.950 . S
C897 C899 1.327 . S
C897 C903 1.429 . S
C898 C890 1.574 . S
C898 H893 0.949 . S
C898 C904 1.368 . S
C899 C883 1.349 . S
C899 H891 0.950 . S
C899 C897 1.327 . S
C900 C888 1.349 . S
C900 H894 0.950 . S
C900 C901 1.327 . S
C901 H895 0.950 . S
C901 C900 1.327 . S
C901 C905 1.429 . S
C902 C885 1.574 . S
C902 H896 0.949 . S
C902 C906 1.368 . S
C903 C884 1.429 . S
C903 C897 1.429 . S
C903 C904 1.523 . S
C904 C885 1.368 . S
C904 C898 1.368 . S
C904 C903 1.523 . S
C905 C889 1.429 . S
C905 C901 1.429 . S
C905 C906 1.523 . S
C906 C890 1.368 . S
C906 C902 1.368 . S
C906 C905 1.523 . S
H907 C882 0.950 . S
H908 C884 0.950 . S
H909 C885 0.949 . S
H910 C887 0.950 . S
H911 C889 0.950 . S
C912 C913 1.349 . S
C912 C914 1.327 . S
C912 H937 0.950 . S
C913 C912 1.349 . S
C913 C929 1.349 . S
C914 C912 1.327 . S
C914 C933 1.429 . S
C914 H938 0.950 . S
C915 C932 1.574 . S
C915 C934 1.368 . S
C915 H939 0.949 . S
H916 C920 0.949 . S
C917 C918 1.349 . S
C917 C919 1.327 . S
C917 H940 0.950 . S
C918 C917 1.349 . S
C918 C930 1.349 . S
C919 C917 1.327 . S
C919 C935 1.429 . S
C919 H941 0.950 . S
C920 H916 0.949 . S
C920 C928 1.574 . S
C920 C936 1.368 . S
H921 C929 0.950 . S
H922 C927 0.950 . S
H923 C928 0.949 . S
H924 C930 0.950 . S
H925 C931 0.950 . S
H926 C932 0.949 . S
C927 H922 0.950 . S
C927 C929 1.327 . S
C927 C933 1.429 . S
C928 C920 1.574 . S
C928 H923 0.949 . S
C928 C934 1.368 . S
C929 C913 1.349 . S
C929 H921 0.950 . S
C929 C927 1.327 . S
C930 C918 1.349 . S
C930 H924 0.950 . S
C930 C931 1.327 . S
C931 H925 0.950 . S
C931 C930 1.327 . S
C931 C935 1.429 . S
C932 C915 1.574 . S
C932 H926 0.949 . S
C932 C936 1.368 . S
C933 C914 1.429 . S
C933 C927 1.429 . S
C933 C934 1.523 . S
C934 C915 1.368 . S
C934 C928 1.368 . S
C934 C933 1.523 . S
C935 C919 1.429 . S
C935 C931 1.429 . S
C935 C936 1.523 . S
C936 C920 1.368 . S
C936 C932 1.368 . S
C936 C935 1.523 . S
H937 C912 0.950 . S
H938 C914 0.950 . S
H939 C915 0.949 . S
H940 C917 0.950 . S
H941 C919 0.950 . S
C942 C943 1.349 . S
C942 C944 1.327 . S
C942 H967 0.950 . S
C943 C942 1.349 . S
C943 C959 1.349 . S
C944 C942 1.327 . S
C944 C963 1.429 . S
C944 H968 0.950 . S
C945 C962 1.574 . S
C945 C964 1.368 . S
C945 H969 0.949 . S
H946 C950 0.949 . S
C947 C948 1.349 . S
C947 C949 1.327 . S
C947 H970 0.950 . S
C948 C947 1.349 . S
C948 C960 1.349 . S
C949 C947 1.327 . S
C949 C965 1.429 . S
C949 H971 0.950 . S
C950 H946 0.949 . S
C950 C958 1.574 . S
C950 C966 1.368 . S
H951 C959 0.950 . S
H952 C957 0.950 . S
H953 C958 0.949 . S
H954 C960 0.950 . S
H955 C961 0.950 . S
H956 C962 0.949 . S
C957 H952 0.950 . S
C957 C959 1.327 . S
C957 C963 1.429 . S
C958 C950 1.574 . S
C958 H953 0.949 . S
C958 C964 1.368 . S
C959 C943 1.349 . S
C959 H951 0.950 . S
C959 C957 1.327 . S
C960 C948 1.349 . S
C960 H954 0.950 . S
C960 C961 1.327 . S
C961 H955 0.950 . S
C961 C960 1.327 . S
C961 C965 1.429 . S
C962 C945 1.574 . S
C962 H956 0.949 . S
C962 C966 1.368 . S
C963 C944 1.429 . S
C963 C957 1.429 . S
C963 C964 1.523 . S
C964 C945 1.368 . S
C964 C958 1.368 . S
C964 C963 1.523 . S
C965 C949 1.429 . S
C965 C961 1.429 . S
C965 C966 1.523 . S
C966 C950 1.368 . S
C966 C962 1.368 . S
C966 C965 1.523 . S
H967 C942 0.950 . S
H968 C944 0.950 . S
H969 C945 0.949 . S
H970 C947 0.950 . S
H971 C949 0.950 . S
C972 C973 1.349 . S
C972 C974 1.327 . S
C972 H997 0.950 . S
C973 C972 1.349 . S
C973 C989 1.349 . S
C974 C972 1.327 . S
C974 C993 1.429 . S
C974 H998 0.950 . S
C975 C992 1.574 . S
C975 C994 1.368 . S
C975 H999 0.949 . S
H976 C980 0.949 . S
C977 C978 1.349 . S
C977 C979 1.327 . S
C977 H1000 0.950 . S
C978 C977 1.349 . S
C978 C990 1.349 . S
C979 C977 1.327 . S
C979 C995 1.429 . S
C979 H1001 0.950 . S
C980 H976 0.949 . S
C980 C988 1.574 . S
C980 C996 1.368 . S
H981 C989 0.950 . S
H982 C987 0.950 . S
H983 C988 0.949 . S
H984 C990 0.950 . S
H985 C991 0.950 . S
H986 C992 0.949 . S
C987 H982 0.950 . S
C987 C989 1.327 . S
C987 C993 1.429 . S
C988 C980 1.574 . S
C988 H983 0.949 . S
C988 C994 1.368 . S
C989 C973 1.349 . S
C989 H981 0.950 . S
C989 C987 1.327 . S
C990 C978 1.349 . S
C990 H984 0.950 . S
C990 C991 1.327 . S
C991 H985 0.950 . S
C991 C990 1.327 . S
C991 C995 1.429 . S
C992 C975 1.574 . S
C992 H986 0.949 . S
C992 C996 1.368 . S
C993 C974 1.429 . S
C993 C987 1.429 . S
C993 C994 1.523 . S
C994 C975 1.368 . S
C994 C988 1.368 . S
C994 C993 1.523 . S
C995 C979 1.429 . S
C995 C991 1.429 . S
C995 C996 1.523 . S
C996 C980 1.368 . S
C996 C992 1.368 . S
C996 C995 1.523 . S
H997 C972 0.950 . S
H998 C974 0.950 . S
H999 C975 0.949 . S
H1000 C977 0.950 . S
H1001 C979 0.950 . S
C1002 C1003 1.349 . S
C1002 C1004 1.327 . S
C1002 H1027 0.950 . S
C1003 C1002 1.349 . S
C1003 C1019 1.349 . S
C1004 C1002 1.327 . S
C1004 C1023 1.429 . S
C1004 H1028 0.950 . S
C1005 C1022 1.574 . S
C1005 C1024 1.368 . S
C1005 H1029 0.949 . S
H1006 C1010 0.949 . S
C1007 C1008 1.349 . S
C1007 C1009 1.327 . S
C1007 H1030 0.950 . S
C1008 C1007 1.349 . S
C1008 C1020 1.349 . S
C1009 C1007 1.327 . S
C1009 C1025 1.429 . S
C1009 H1031 0.950 . S
C1010 H1006 0.949 . S
C1010 C1018 1.574 . S
C1010 C1026 1.368 . S
H1011 C1019 0.950 . S
H1012 C1017 0.950 . S
H1013 C1018 0.949 . S
H1014 C1020 0.950 . S
H1015 C1021 0.950 . S
H1016 C1022 0.949 . S
C1017 H1012 0.950 . S
C1017 C1019 1.327 . S
C1017 C1023 1.429 . S
C1018 C1010 1.574 . S
C1018 H1013 0.949 . S
C1018 C1024 1.368 . S
C1019 C1003 1.349 . S
C1019 H1011 0.950 . S
C1019 C1017 1.327 . S
C1020 C1008 1.349 . S
C1020 H1014 0.950 . S
C1020 C1021 1.327 . S
C1021 H1015 0.950 . S
C1021 C1020 1.327 . S
C1021 C1025 1.429 . S
C1022 C1005 1.574 . S
C1022 H1016 0.949 . S
C1022 C1026 1.368 . S
C1023 C1004 1.429 . S
C1023 C1017 1.429 . S
C1023 C1024 1.523 . S
C1024 C1005 1.368 . S
C1024 C1018 1.368 . S
C1024 C1023 1.523 . S
C1025 C1009 1.429 . S
C1025 C1021 1.429 . S
C1025 C1026 1.523 . S
C1026 C1010 1.368 . S
C1026 C1022 1.368 . S
C1026 C1025 1.523 . S
H1027 C1002 0.950 . S
H1028 C1004 0.950 . S
H1029 C1005 0.949 . S
H1030 C1007 0.950 . S
H1031 C1009 0.950 . S
C1032 C1033 1.349 . S
C1032 C1034 1.327 . S
C1032 H1057 0.950 . S
C1033 C1032 1.349 . S
C1033 C1049 1.349 . S
C1034 C1032 1.327 . S
C1034 C1053 1.429 . S
C1034 H1058 0.950 . S
C1035 C1052 1.574 . S
C1035 C1054 1.368 . S
C1035 H1059 0.949 . S
H1036 C1040 0.949 . S
C1037 C1038 1.349 . S
C1037 C1039 1.327 . S
C1037 H1060 0.950 . S
C1038 C1037 1.349 . S
C1038 C1050 1.349 . S
C1039 C1037 1.327 . S
C1039 C1055 1.429 . S
C1039 H1061 0.950 . S
C1040 H1036 0.949 . S
C1040 C1048 1.574 . S
C1040 C1056 1.368 . S
H1041 C1049 0.950 . S
H1042 C1047 0.950 . S
H1043 C1048 0.949 . S
H1044 C1050 0.950 . S
H1045 C1051 0.950 . S
H1046 C1052 0.949 . S
C1047 H1042 0.950 . S
C1047 C1049 1.327 . S
C1047 C1053 1.429 . S
C1048 C1040 1.574 . S
C1048 H1043 0.949 . S
C1048 C1054 1.368 . S
C1049 C1033 1.349 . S
C1049 H1041 0.950 . S
C1049 C1047 1.327 . S
C1050 C1038 1.349 . S
C1050 H1044 0.950 . S
C1050 C1051 1.327 . S
C1051 H1045 0.950 . S
C1051 C1050 1.327 . S
C1051 C1055 1.429 . S
C1052 C1035 1.574 . S
C1052 H1046 0.949 . S
C1052 C1056 1.368 . S
C1053 C1034 1.429 . S
C1053 C1047 1.429 . S
C1053 C1054 1.523 . S
C1054 C1035 1.368 . S
C1054 C1048 1.368 . S
C1054 C1053 1.523 . S
C1055 C1039 1.429 . S
C1055 C1051 1.429 . S
C1055 C1056 1.523 . S
C1056 C1040 1.368 . S
C1056 C1052 1.368 . S
C1056 C1055 1.523 . S
H1057 C1032 0.950 . S
H1058 C1034 0.950 . S
H1059 C1035 0.949 . S
H1060 C1037 0.950 . S
H1061 C1039 0.950 . S
C1062 C1063 1.349 . S
C1062 C1064 1.327 . S
C1062 H1087 0.950 . S
C1063 C1062 1.349 . S
C1063 C1079 1.349 . S
C1064 C1062 1.327 . S
C1064 C1083 1.429 . S
C1064 H1088 0.950 . S
C1065 C1082 1.574 . S
C1065 C1084 1.368 . S
C1065 H1089 0.949 . S
H1066 C1070 0.949 . S
C1067 C1068 1.349 . S
C1067 C1069 1.327 . S
C1067 H1090 0.950 . S
C1068 C1067 1.349 . S
C1068 C1080 1.349 . S
C1069 C1067 1.327 . S
C1069 C1085 1.429 . S
C1069 H1091 0.950 . S
C1070 H1066 0.949 . S
C1070 C1078 1.574 . S
C1070 C1086 1.368 . S
H1071 C1079 0.950 . S
H1072 C1077 0.950 . S
H1073 C1078 0.949 . S
H1074 C1080 0.950 . S
H1075 C1081 0.950 . S
H1076 C1082 0.949 . S
C1077 H1072 0.950 . S
C1077 C1079 1.327 . S
C1077 C1083 1.429 . S
C1078 C1070 1.574 . S
C1078 H1073 0.949 . S
C1078 C1084 1.368 . S
C1079 C1063 1.349 . S
C1079 H1071 0.950 . S
C1079 C1077 1.327 . S
C1080 C1068 1.349 . S
C1080 H1074 0.950 . S
C1080 C1081 1.327 . S
C1081 H1075 0.950 . S
C1081 C1080 1.327 . S
C1081 C1085 1.429 . S
C1082 C1065 1.574 . S
C1082 H1076 0.949 . S
C1082 C1086 1.368 . S
C1083 C1064 1.429 . S
C1083 C1077 1.429 . S
C1083 C1084 1.523 . S
C1084 C1065 1.368 . S
C1084 C1078 1.368 . S
C1084 C1083 1.523 . S
C1085 C1069 1.429 . S
C1085 C1081 1.429 . S
C1085 C1086 1.523 . S
C1086 C1070 1.368 . S
C1086 C1082 1.368 . S
C1086 C1085 1.523 . S
H1087 C1062 0.950 . S
H1088 C1064 0.950 . S
H1089 C1065 0.949 . S
H1090 C1067 0.950 . S
H1091 C1069 0.950 . S
C1092 C1093 1.349 . S
C1092 C1094 1.327 . S
C1092 H1117 0.950 . S
C1093 C1092 1.349 . S
C1093 C1109 1.349 . S
C1094 C1092 1.327 . S
C1094 C1113 1.429 . S
C1094 H1118 0.950 . S
C1095 C1112 1.574 . S
C1095 C1114 1.368 . S
C1095 H1119 0.949 . S
H1096 C1100 0.949 . S
C1097 C1098 1.349 . S
C1097 C1099 1.327 . S
C1097 H1120 0.950 . S
C1098 C1097 1.349 . S
C1098 C1110 1.349 . S
C1099 C1097 1.327 . S
C1099 C1115 1.429 . S
C1099 H1121 0.950 . S
C1100 H1096 0.949 . S
C1100 C1108 1.574 . S
C1100 C1116 1.368 . S
H1101 C1109 0.950 . S
H1102 C1107 0.950 . S
H1103 C1108 0.949 . S
H1104 C1110 0.950 . S
H1105 C1111 0.950 . S
H1106 C1112 0.949 . S
C1107 H1102 0.950 . S
C1107 C1109 1.327 . S
C1107 C1113 1.429 . S
C1108 C1100 1.574 . S
C1108 H1103 0.949 . S
C1108 C1114 1.368 . S
C1109 C1093 1.349 . S
C1109 H1101 0.950 . S
C1109 C1107 1.327 . S
C1110 C1098 1.349 . S
C1110 H1104 0.950 . S
C1110 C1111 1.327 . S
C1111 H1105 0.950 . S
C1111 C1110 1.327 . S
C1111 C1115 1.429 . S
C1112 C1095 1.574 . S
C1112 H1106 0.949 . S
C1112 C1116 1.368 . S
C1113 C1094 1.429 . S
C1113 C1107 1.429 . S
C1113 C1114 1.523 . S
C1114 C1095 1.368 . S
C1114 C1108 1.368 . S
C1114 C1113 1.523 . S
C1115 C1099 1.429 . S
C1115 C1111 1.429 . S
C1115 C1116 1.523 . S
C1116 C1100 1.368 . S
C1116 C1112 1.368 . S
C1116 C1115 1.523 . S
H1117 C1092 0.950 . S
H1118 C1094 0.950 . S
H1119 C1095 0.949 . S
H1120 C1097 0.950 . S
H1121 C1099 0.950 . S
C1122 C1123 1.349 . S
C1122 C1124 1.327 . S
C1122 H1147 0.950 . S
C1123 C1122 1.349 . S
C1123 C1139 1.349 . S
C1124 C1122 1.327 . S
C1124 C1143 1.429 . S
C1124 H1148 0.950 . S
C1125 C1142 1.574 . S
C1125 C1144 1.368 . S
C1125 H1149 0.949 . S
H1126 C1130 0.949 . S
C1127 C1128 1.349 . S
C1127 C1129 1.327 . S
C1127 H1150 0.950 . S
C1128 C1127 1.349 . S
C1128 C1140 1.349 . S
C1129 C1127 1.327 . S
C1129 C1145 1.429 . S
C1129 H1151 0.950 . S
C1130 H1126 0.949 . S
C1130 C1138 1.574 . S
C1130 C1146 1.368 . S
H1131 C1139 0.950 . S
H1132 C1137 0.950 . S
H1133 C1138 0.949 . S
H1134 C1140 0.950 . S
H1135 C1141 0.950 . S
H1136 C1142 0.949 . S
C1137 H1132 0.950 . S
C1137 C1139 1.327 . S
C1137 C1143 1.429 . S
C1138 C1130 1.574 . S
C1138 H1133 0.949 . S
C1138 C1144 1.368 . S
C1139 C1123 1.349 . S
C1139 H1131 0.950 . S
C1139 C1137 1.327 . S
C1140 C1128 1.349 . S
C1140 H1134 0.950 . S
C1140 C1141 1.327 . S
C1141 H1135 0.950 . S
C1141 C1140 1.327 . S
C1141 C1145 1.429 . S
C1142 C1125 1.574 . S
C1142 H1136 0.949 . S
C1142 C1146 1.368 . S
C1143 C1124 1.429 . S
C1143 C1137 1.429 . S
C1143 C1144 1.523 . S
C1144 C1125 1.368 . S
C1144 C1138 1.368 . S
C1144 C1143 1.523 . S
C1145 C1129 1.429 . S
C1145 C1141 1.429 . S
C1145 C1146 1.523 . S
C1146 C1130 1.368 . S
C1146 C1142 1.368 . S
C1146 C1145 1.523 . S
H1147 C1122 0.950 . S
H1148 C1124 0.950 . S
H1149 C1125 0.949 . S
H1150 C1127 0.950 . S
H1151 C1129 0.950 . S
C1152 C1153 1.349 . S
C1152 C1154 1.327 . S
C1152 H1177 0.950 . S
C1153 C1152 1.349 . S
C1153 C1169 1.349 . S
C1154 C1152 1.327 . S
C1154 C1173 1.429 . S
C1154 H1178 0.950 . S
C1155 C1172 1.574 . S
C1155 C1174 1.368 . S
C1155 H1179 0.949 . S
H1156 C1160 0.949 . S
C1157 C1158 1.349 . S
C1157 C1159 1.327 . S
C1157 H1180 0.950 . S
C1158 C1157 1.349 . S
C1158 C1170 1.349 . S
C1159 C1157 1.327 . S
C1159 C1175 1.429 . S
C1159 H1181 0.950 . S
C1160 H1156 0.949 . S
C1160 C1168 1.574 . S
C1160 C1176 1.368 . S
H1161 C1169 0.950 . S
H1162 C1167 0.950 . S
H1163 C1168 0.949 . S
H1164 C1170 0.950 . S
H1165 C1171 0.950 . S
H1166 C1172 0.949 . S
C1167 H1162 0.950 . S
C1167 C1169 1.327 . S
C1167 C1173 1.429 . S
C1168 C1160 1.574 . S
C1168 H1163 0.949 . S
C1168 C1174 1.368 . S
C1169 C1153 1.349 . S
C1169 H1161 0.950 . S
C1169 C1167 1.327 . S
C1170 C1158 1.349 . S
C1170 H1164 0.950 . S
C1170 C1171 1.327 . S
C1171 H1165 0.950 . S
C1171 C1170 1.327 . S
C1171 C1175 1.429 . S
C1172 C1155 1.574 . S
C1172 H1166 0.949 . S
C1172 C1176 1.368 . S
C1173 C1154 1.429 . S
C1173 C1167 1.429 . S
C1173 C1174 1.523 . S
C1174 C1155 1.368 . S
C1174 C1168 1.368 . S
C1174 C1173 1.523 . S
C1175 C1159 1.429 . S
C1175 C1171 1.429 . S
C1175 C1176 1.523 . S
C1176 C1160 1.368 . S
C1176 C1172 1.368 . S
C1176 C1175 1.523 . S
H1177 C1152 0.950 . S
H1178 C1154 0.950 . S
H1179 C1155 0.949 . S
H1180 C1157 0.950 . S
H1181 C1159 0.950 . S
C1182 C1183 1.349 . S
C1182 C1184 1.327 . S
C1182 H1207 0.950 . S
C1183 C1182 1.349 . S
C1183 C1199 1.349 . S
C1184 C1182 1.327 . S
C1184 C1203 1.429 . S
C1184 H1208 0.950 . S
C1185 C1202 1.574 1_545 S
C1185 C1204 1.368 . S
C1185 H1209 0.949 . S
H1186 C1190 0.945 . S
C1187 C1188 1.349 . S
C1187 C1189 1.327 . S
C1187 H1210 0.950 . S
C1188 C1187 1.349 . S
C1188 C1200 1.349 . S
C1189 C1187 1.327 . S
C1189 C1205 1.429 . S
C1189 H1211 0.950 . S
C1190 H1186 0.945 . S
C1190 C1198 1.566 1_565 S
C1190 C1206 1.382 . S
H1191 C1199 0.950 . S
H1192 C1197 0.950 . S
H1193 C1198 0.949 . S
H1194 C1200 0.950 . S
H1195 C1201 0.950 . S
H1196 C1202 0.949 . S
C1197 H1192 0.950 . S
C1197 C1199 1.327 . S
C1197 C1203 1.429 . S
C1198 C1190 1.566 1_545 S
C1198 H1193 0.949 . S
C1198 C1204 1.368 . S
C1199 C1183 1.349 . S
C1199 H1191 0.950 . S
C1199 C1197 1.327 . S
C1200 C1188 1.349 . S
C1200 H1194 0.950 . S
C1200 C1201 1.327 . S
C1201 H1195 0.950 . S
C1201 C1200 1.327 . S
C1201 C1205 1.429 . S
C1202 C1185 1.574 1_565 S
C1202 H1196 0.949 . S
C1202 C1206 1.368 . S
C1203 C1184 1.429 . S
C1203 C1197 1.429 . S
C1203 C1204 1.523 . S
C1204 C1185 1.368 . S
C1204 C1198 1.368 . S
C1204 C1203 1.523 . S
C1205 C1189 1.429 . S
C1205 C1201 1.429 . S
C1205 C1206 1.523 . S
C1206 C1190 1.382 . S
C1206 C1202 1.368 . S
C1206 C1205 1.523 . S
H1207 C1182 0.950 . S
H1208 C1184 0.950 . S
H1209 C1185 0.949 . S
H1210 C1187 0.950 . S
H1211 C1189 0.950 . S
C1212 C1213 1.349 . S
C1212 C1214 1.327 . S
C1212 H1237 0.950 . S
C1213 C1212 1.349 . S
C1213 C1229 1.349 . S
C1214 C1212 1.327 . S
C1214 C1233 1.429 . S
C1214 H1238 0.950 . S
C1215 C1232 1.574 . S
C1215 C1234 1.368 . S
C1215 H1239 0.949 . S
H1216 C1220 0.949 . S
C1217 C1218 1.349 . S
C1217 C1219 1.327 . S
C1217 H1240 0.950 . S
C1218 C1217 1.349 . S
C1218 C1230 1.349 . S
C1219 C1217 1.327 . S
C1219 C1235 1.429 . S
C1219 H1241 0.950 . S
C1220 H1216 0.949 . S
C1220 C1228 1.574 1_655 S
C1220 C1236 1.368 . S
H1221 C1229 0.950 . S
H1222 C1227 0.950 . S
H1223 C1228 0.949 . S
H1224 C1230 0.950 . S
H1225 C1231 0.950 . S
H1226 C1232 0.949 . S
C1227 H1222 0.950 . S
C1227 C1229 1.327 . S
C1227 C1233 1.429 . S
C1228 C1220 1.574 1_455 S
C1228 H1223 0.949 . S
C1228 C1234 1.368 . S
C1229 C1213 1.349 . S
C1229 H1221 0.950 . S
C1229 C1227 1.327 . S
C1230 C1218 1.349 . S
C1230 H1224 0.950 . S
C1230 C1231 1.327 . S
C1231 H1225 0.950 . S
C1231 C1230 1.327 . S
C1231 C1235 1.429 . S
C1232 C1215 1.574 . S
C1232 H1226 0.949 . S
C1232 C1236 1.368 1_455 S
C1233 C1214 1.429 . S
C1233 C1227 1.429 . S
C1233 C1234 1.523 . S
C1234 C1215 1.368 . S
C1234 C1228 1.368 . S
C1234 C1233 1.523 . S
C1235 C1219 1.429 . S
C1235 C1231 1.429 . S
C1235 C1236 1.523 . S
C1236 C1220 1.368 . S
C1236 C1232 1.368 1_655 S
C1236 C1235 1.523 . S
H1237 C1212 0.950 . S
H1238 C1214 0.950 . S
H1239 C1215 0.949 . S
H1240 C1217 0.950 . S
H1241 C1219 0.950 . S
C1242 C1243 1.349 . S
C1242 C1244 1.327 . S
C1242 H1267 0.950 . S
C1243 C1242 1.349 . S
C1243 C1259 1.349 . S
C1244 C1242 1.327 . S
C1244 C1263 1.429 . S
C1244 H1268 0.950 1_556 S
C1245 C1262 1.574 . S
C1245 C1264 1.368 . S
C1245 H1269 0.949 . S
H1246 C1250 0.949 . S
C1247 C1248 1.349 . S
C1247 C1249 1.327 . S
C1247 H1270 0.950 . S
C1248 C1247 1.349 . S
C1248 C1260 1.349 . S
C1249 C1247 1.327 . S
C1249 C1265 1.429 . S
C1249 H1271 0.950 1_554 S
C1250 H1246 0.949 . S
C1250 C1258 1.574 . S
C1250 C1266 1.368 . S
H1251 C1259 0.950 . S
H1252 C1257 0.950 . S
H1253 C1258 0.949 . S
H1254 C1260 0.950 . S
H1255 C1261 0.950 . S
H1256 C1262 0.949 . S
C1257 H1252 0.950 . S
C1257 C1259 1.327 . S
C1257 C1263 1.429 . S
C1258 C1250 1.574 . S
C1258 H1253 0.949 . S
C1258 C1264 1.368 1_554 S
C1259 C1243 1.349 . S
C1259 H1251 0.950 . S
C1259 C1257 1.327 . S
C1260 C1248 1.349 . S
C1260 H1254 0.950 . S
C1260 C1261 1.327 . S
C1261 H1255 0.950 . S
C1261 C1260 1.327 . S
C1261 C1265 1.429 . S
C1262 C1245 1.574 . S
C1262 H1256 0.949 . S
C1262 C1266 1.368 1_556 S
C1263 C1244 1.429 . S
C1263 C1257 1.429 . S
C1263 C1264 1.523 . S
C1264 C1245 1.368 . S
C1264 C1258 1.368 1_556 S
C1264 C1263 1.523 . S
C1265 C1249 1.429 . S
C1265 C1261 1.429 . S
C1265 C1266 1.523 . S
C1266 C1250 1.368 . S
C1266 C1262 1.368 1_554 S
C1266 C1265 1.523 . S
H1267 C1242 0.950 . S
H1268 C1244 0.950 1_554 S
H1269 C1245 0.949 . S
H1270 C1247 0.950 . S
H1271 C1249 0.950 1_556 S
C1272 C1273 1.349 . S
C1272 C1274 1.327 . S
C1272 H1297 0.950 . S
C1273 C1272 1.349 . S
C1273 C1289 1.349 . S
C1274 C1272 1.327 . S
C1274 C1293 1.429 . S
C1274 H1298 0.950 . S
C1275 C1292 1.574 1_565 S
C1275 C1294 1.368 1_554 S
C1275 H1299 0.949 . S
H1276 C1280 0.949 . S
C1277 C1278 1.349 . S
C1277 C1279 1.327 . S
C1277 H1300 0.950 . S
C1278 C1277 1.349 . S
C1278 C1290 1.349 . S
C1279 C1277 1.327 . S
C1279 C1295 1.429 . S
C1279 H1301 0.950 . S
C1280 H1276 0.949 . S
C1280 C1288 1.574 . S
C1280 C1296 1.368 1_556 S
H1281 C1289 0.950 . S
H1282 C1287 0.950 1_554 S
H1283 C1288 0.949 . S
H1284 C1290 0.950 . S
H1285 C1291 0.950 1_556 S
H1286 C1292 0.949 . S
C1287 H1282 0.950 1_556 S
C1287 C1289 1.327 . S
C1287 C1293 1.429 . S
C1288 C1280 1.574 . S
C1288 H1283 0.949 . S
C1288 C1294 1.368 1_545 S
C1289 C1273 1.349 . S
C1289 H1281 0.950 . S
C1289 C1287 1.327 . S
C1290 C1278 1.349 . S
C1290 H1284 0.950 . S
C1290 C1291 1.327 . S
C1291 H1285 0.950 1_554 S
C1291 C1290 1.327 . S
C1291 C1295 1.429 . S
C1292 C1275 1.574 1_545 S
C1292 H1286 0.949 . S
C1292 C1296 1.368 . S
C1293 C1274 1.429 . S
C1293 C1287 1.429 . S
C1293 C1294 1.523 . S
C1294 C1275 1.368 1_556 S
C1294 C1288 1.368 1_565 S
C1294 C1293 1.523 . S
C1295 C1279 1.429 . S
C1295 C1291 1.429 . S
C1295 C1296 1.523 . S
C1296 C1280 1.368 1_554 S
C1296 C1292 1.368 . S
C1296 C1295 1.523 . S
H1297 C1272 0.950 . S
H1298 C1274 0.950 . S
H1299 C1275 0.949 . S
H1300 C1277 0.950 . S
H1301 C1279 0.950 . S
C1302 C1303 1.349 . S
C1302 C1304 1.327 . S
C1302 H1327 0.950 . S
C1303 C1302 1.349 . S
C1303 C1319 1.349 . S
C1304 C1302 1.327 . S
C1304 C1323 1.429 . S
C1304 H1328 0.950 . S
C1305 C1322 1.574 . S
C1305 C1324 1.368 . S
C1305 H1329 0.949 . S
H1306 C1310 0.949 . S
C1307 C1308 1.349 . S
C1307 C1309 1.327 . S
C1307 H1330 0.950 . S
C1308 C1307 1.349 . S
C1308 C1320 1.349 . S
C1309 C1307 1.327 . S
C1309 C1325 1.429 . S
C1309 H1331 0.950 . S
C1310 H1306 0.949 . S
C1310 C1318 1.574 1_655 S
C1310 C1326 1.368 . S
H1311 C1319 0.950 . S
H1312 C1317 0.950 . S
H1313 C1318 0.949 . S
H1314 C1320 0.950 . S
H1315 C1321 0.950 . S
H1316 C1322 0.949 . S
C1317 H1312 0.950 . S
C1317 C1319 1.327 . S
C1317 C1323 1.429 . S
C1318 C1310 1.574 1_455 S
C1318 H1313 0.949 . S
C1318 C1324 1.368 1_554 S
C1319 C1303 1.349 . S
C1319 H1311 0.950 . S
C1319 C1317 1.327 . S
C1320 C1308 1.349 . S
C1320 H1314 0.950 . S
C1320 C1321 1.327 . S
C1321 H1315 0.950 . S
C1321 C1320 1.327 . S
C1321 C1325 1.429 . S
C1322 C1305 1.574 . S
C1322 H1316 0.949 . S
C1322 C1326 1.368 1_456 S
C1323 C1304 1.429 . S
C1323 C1317 1.429 . S
C1323 C1324 1.523 . S
C1324 C1305 1.368 . S
C1324 C1318 1.368 1_556 S
C1324 C1323 1.523 . S
C1325 C1309 1.429 . S
C1325 C1321 1.429 . S
C1325 C1326 1.523 . S
C1326 C1310 1.368 . S
C1326 C1322 1.368 1_654 S
C1326 C1325 1.523 . S
H1327 C1302 0.950 . S
H1328 C1304 0.950 . S
H1329 C1305 0.949 . S
H1330 C1307 0.950 . S
H1331 C1309 0.950 . S
C253 C7 1.054 . S
C258 C203 1.055 . S
C283 C171 1.012 . S
C288 C17 1.013 . S
C313 C31 1.038 . S
C318 C189 1.030 . S
C343 C91 1.048 . S
C348 C35 1.048 . S
C373 C105 1.035 . S
C378 C3 1.044 . S
C403 C119 1.053 . S
C408 C21 1.053 . S
C433 C49 1.055 . S
C438 C161 1.054 . S
C463 C133 1.043 . S
C468 C59 1.052 . S
C493 C147 1.036 . S
C498 C73 1.044 . S
C523 C77 1.055 . S
C528 C217 1.055 . S
C553 C45 1.013 . S
C558 C227 1.013 . S
C583 C241 1.038 . S
C588 C63 1.030 . S
C613 C175 1.025 . S
C618 C115 1.033 . S
C643 C87 1.021 . S
C648 C185 1.021 . S
C673 C199 1.013 . S
C678 C101 1.013 . S
C703 C245 1.018 . S
C708 C129 1.026 . S
C733 C143 1.012 . S
C738 C213 1.013 . S
C763 C231 1.023 . S
C768 C157 1.031 . S
C793 C219 1.521 . S
C798 C9 1.518 . S
C823 C22 1.594 . S
C828 C232 1.596 . S
C853 C36 1.613 . S
C858 C246 1.615 . S
C883 C37 1.524 . S
C888 C163 1.521 . S
C913 C135 1.537 . S
C918 C8 1.644 . S
C943 C23 1.484 . S
C948 C149 1.485 . S
C973 C93 1.483 . S
C978 C51 1.486 . S
C1003 C107 1.497 . S
C1008 C64 1.599 . S
C1033 C78 1.648 . S
C1038 C121 1.534 . S
C1063 C79 1.526 . S
C1068 C205 1.529 . S
C1093 C50 1.606 . S
C1098 C176 1.608 . S
C1123 C65 1.516 . S
C1128 C191 1.519 . S
C1153 C120 1.635 . S
C1158 C247 1.527 . S
C1183 C92 1.647 . S
C1188 C218 1.645 . S
C1213 C233 1.487 . S
C1218 C106 1.589 . S
C1243 C177 1.490 . S
C1248 C134 1.592 . S
C1273 C190 1.600 . S
C1278 C148 1.601 . S
C1303 C204 1.649 . S
C1308 C162 1.649 . S
