# Generated by pormake.
# Topology wjw, (5)-cn, num edge types: 1
# Building blocks:
#     Node 0, Type 0, BuildingBlock: XOMCOT_clean_sbu_1, # of connection points: 5
#     Node 1, Type 0, BuildingBlock: XOMCOT_clean_sbu_1, # of connection points: 5
#     Node 2, Type 0, BuildingBlock: XOMCOT_clean_sbu_1, # of connection points: 5
#     Node 3, Type 0, BuildingBlock: XOMCOT_clean_sbu_1, # of connection points: 5
#     Node 4, Type 0, BuildingBlock: XOMCOT_clean_sbu_1, # of connection points: 5
#     Node 5, Type 0, BuildingBlock: XOMCOT_clean_sbu_1, # of connection points: 5
#     Node 6, Type 0, BuildingBlock: XOMCOT_clean_sbu_1, # of connection points: 5
#     Node 7, Type 0, BuildingBlock: XOMCOT_clean_sbu_1, # of connection points: 5
#     Node 8, Type 0, BuildingBlock: XOMCOT_clean_sbu_1, # of connection points: 5
#     Node 9, Type 0, BuildingBlock: XOMCOT_clean_sbu_1, # of connection points: 5
#     Node 10, Type 0, BuildingBlock: XOMCOT_clean_sbu_1, # of connection points: 5
#     Node 11, Type 0, BuildingBlock: XOMCOT_clean_sbu_1, # of connection points: 5
#     Edge 12, Type (0, 0), BuildingBlock: AJUNOK_clean_linker_0, # of connection points: 2
#     Edge 13, Type (0, 0), BuildingBlock: AJUNOK_clean_linker_0, # of connection points: 2
#     Edge 14, Type (0, 0), BuildingBlock: AJUNOK_clean_linker_0, # of connection points: 2
#     Edge 15, Type (0, 0), BuildingBlock: AJUNOK_clean_linker_0, # of connection points: 2
#     Edge 16, Type (0, 0), BuildingBlock: AJUNOK_clean_linker_0, # of connection points: 2
#     Edge 17, Type (0, 0), BuildingBlock: AJUNOK_clean_linker_0, # of connection points: 2
#     Edge 18, Type (0, 0), BuildingBlock: AJUNOK_clean_linker_0, # of connection points: 2
#     Edge 19, Type (0, 0), BuildingBlock: AJUNOK_clean_linker_0, # of connection points: 2
#     Edge 20, Type (0, 0), BuildingBlock: AJUNOK_clean_linker_0, # of connection points: 2
#     Edge 21, Type (0, 0), BuildingBlock: AJUNOK_clean_linker_0, # of connection points: 2
#     Edge 22, Type (0, 0), BuildingBlock: AJUNOK_clean_linker_0, # of connection points: 2
#     Edge 23, Type (0, 0), BuildingBlock: AJUNOK_clean_linker_0, # of connection points: 2
#     Edge 24, Type (0, 0), BuildingBlock: AJUNOK_clean_linker_0, # of connection points: 2
#     Edge 25, Type (0, 0), BuildingBlock: AJUNOK_clean_linker_0, # of connection points: 2
#     Edge 26, Type (0, 0), BuildingBlock: AJUNOK_clean_linker_0, # of connection points: 2
#     Edge 27, Type (0, 0), BuildingBlock: AJUNOK_clean_linker_0, # of connection points: 2
#     Edge 28, Type (0, 0), BuildingBlock: AJUNOK_clean_linker_0, # of connection points: 2
#     Edge 29, Type (0, 0), BuildingBlock: AJUNOK_clean_linker_0, # of connection points: 2
#     Edge 30, Type (0, 0), BuildingBlock: AJUNOK_clean_linker_0, # of connection points: 2
#     Edge 31, Type (0, 0), BuildingBlock: AJUNOK_clean_linker_0, # of connection points: 2
#     Edge 32, Type (0, 0), BuildingBlock: AJUNOK_clean_linker_0, # of connection points: 2
#     Edge 33, Type (0, 0), BuildingBlock: AJUNOK_clean_linker_0, # of connection points: 2
#     Edge 34, Type (0, 0), BuildingBlock: AJUNOK_clean_linker_0, # of connection points: 2
#     Edge 35, Type (0, 0), BuildingBlock: AJUNOK_clean_linker_0, # of connection points: 2
#     Edge 36, Type (0, 0), BuildingBlock: AJUNOK_clean_linker_0, # of connection points: 2
#     Edge 37, Type (0, 0), BuildingBlock: AJUNOK_clean_linker_0, # of connection points: 2
#     Edge 38, Type (0, 0), BuildingBlock: AJUNOK_clean_linker_0, # of connection points: 2
#     Edge 39, Type (0, 0), BuildingBlock: AJUNOK_clean_linker_0, # of connection points: 2
#     Edge 40, Type (0, 0), BuildingBlock: AJUNOK_clean_linker_0, # of connection points: 2
#     Edge 41, Type (0, 0), BuildingBlock: AJUNOK_clean_linker_0, # of connection points: 2
# Relax obj value: 0.186
# Max RMSD: 0.166
# Mean RMSD: 0.161
data_MOF--net-wjw--node1-XOMCOT_clean_sbu_1--edge1-AJUNOK_clean_linker_0
_symmetry_space_group_name_H-M    P1
_symmetry_Int_Tables_number       1
_symmetry_cell_setting            triclinic
loop_
_symmetry_equiv_pos_as_xyz
'x, y, z'
_cell_length_a     31.087726
_cell_length_b     31.170593
_cell_length_c     26.516613
_cell_angle_alpha  90.189334
_cell_angle_beta   90.520174
_cell_angle_gamma 120.64105
loop_
_atom_site_label
_atom_site_type_symbol
_atom_site_fract_x
_atom_site_fract_y
_atom_site_fract_z
_atom_type_partial_charge
C0 C 0.26559 0.41964 0.31483 0.0
C1 C 0.2929 0.39615 0.31987 0.0
N2 N 0.26302 0.35014 0.33865 0.0
N3 N 0.2186 0.38872 0.33053 0.0
C4 C 0.21798 0.34642 0.34358 0.0
H5 H 0.27976 0.45756 0.30267 0.0
Co6 Co 0.16587 0.40092 0.34082 0.0
C7 C 0.13776 0.36458 0.44816 0.0
O8 O 0.11644 0.39085 0.45737 0.0
N9 N 0.11073 0.41134 0.35125 0.0
C10 C 0.03141 0.39144 0.36221 0.0
C11 C 0.06392 0.37375 0.36109 0.0
C12 C 0.10502 0.45165 0.34601 0.0
N13 N 0.05724 0.44053 0.35235 0.0
O14 O 0.12145 0.34068 0.30503 0.0
H15 H 0.05387 0.33546 0.36715 0.0
H16 H 0.13448 0.48853 0.33636 0.0
O17 O 0.15472 0.36543 0.40437 0.0
C18 C 0.12652 0.34448 0.25728 0.0
O19 O 0.16404 0.38566 0.23917 0.0
N20 N 0.21103 0.4625 0.37176 0.0
C21 C 0.28502 0.55818 0.40299 0.0
C22 C 0.27341 0.51637 0.43234 0.0
C23 C 0.23638 0.469 0.4161 0.0
C24 C 0.22292 0.50248 0.34207 0.0
C25 C 0.25766 0.55075 0.35812 0.0
H26 H 0.23082 0.43789 0.43792 0.0
H27 H 0.20554 0.49674 0.30521 0.0
H28 H 0.18494 0.31375 0.3573 0.0
H29 H 0.33241 0.4127 0.31259 0.0
H30 H 0.99194 0.36987 0.37051 0.0
H31 H 0.29443 0.51968 0.46639 0.0
H32 H 0.26394 0.58162 0.33454 0.0
C33 C 0.8476 0.23045 0.60633 0.0
C34 C 0.89891 0.25451 0.60869 0.0
N35 N 0.9124 0.22825 0.63846 0.0
N36 N 0.82831 0.18944 0.63539 0.0
C37 C 0.86883 0.18713 0.65085 0.0
H38 H 0.82642 0.24472 0.58796 0.0
Co39 Co 0.76194 0.15097 0.66071 0.0
C40 C 0.82903 0.18777 0.7525 0.0
O41 O 0.85383 0.23171 0.73112 0.0
N42 N 0.69637 0.11222 0.68472 0.0
C43 C 0.63079 0.07426 0.73518 0.0
C44 C 0.68171 0.10557 0.73326 0.0
C45 C 0.65336 0.08502 0.6577 0.0
N46 N 0.61302 0.06151 0.68774 0.0
O47 O 0.76023 0.09141 0.64031 0.0
H48 H 0.70617 0.1225 0.76549 0.0
H49 H 0.65173 0.08192 0.61698 0.0
O50 O 0.79069 0.15189 0.72953 0.0
C51 C 0.75042 0.08684 0.59296 0.0
O52 O 0.75018 0.12385 0.56963 0.0
N53 N 0.75868 0.20807 0.67457 0.0
C54 C 0.75068 0.29311 0.67736 0.0
C55 C 0.762 0.27547 0.72129 0.0
C56 C 0.76293 0.2313 0.71961 0.0
C57 C 0.74285 0.22166 0.63285 0.0
C58 C 0.73797 0.26363 0.63348 0.0
H59 H 0.76688 0.21634 0.75469 0.0
H60 H 0.73428 0.19975 0.59857 0.0
H61 H 0.86652 0.1597 0.67732 0.0
H62 H 0.92427 0.29122 0.59396 0.0
H63 H 0.60835 0.06168 0.76885 0.0
H64 H 0.77016 0.29532 0.7569 0.0
H65 H 0.72423 0.27241 0.59981 0.0
C66 C 0.64114 0.86266 0.93174 0.0
C67 C 0.66685 0.914 0.93456 0.0
N68 N 0.70132 0.92855 0.97189 0.0
N69 N 0.65904 0.845 0.96752 0.0
C70 C 0.69676 0.88618 0.99011 0.0
H71 H 0.60871 0.83967 0.90816 0.0
Co72 Co 0.62822 0.77934 0.99142 0.0
C73 C 0.68035 0.80346 0.09275 0.0
O74 O 0.6992 0.7746 0.08578 0.0
N75 N 0.59653 0.71342 1.01754 0.0
C76 C 0.54876 0.65252 0.0701 0.0
C77 C 0.57082 0.70231 0.06093 0.0
C78 C 0.58964 0.66882 1.00116 0.0
N79 N 0.56059 0.63085 0.03298 0.0
O80 O 0.68574 0.77595 0.97335 0.0
H81 H 0.56745 0.72877 0.08449 0.0
H82 H 0.60599 0.66453 0.96707 0.0
O83 O 0.65296 0.80624 0.05859 0.0
C84 C 0.67994 0.76893 0.92559 0.0
O85 O 0.63922 0.76405 0.90454 0.0
N86 N 0.57046 0.78087 1.00238 0.0
C87 C 0.47745 0.77122 1.00921 0.0
C88 C 0.51588 0.80293 0.04259 0.0
C89 C 0.56287 0.80793 0.03805 0.0
C90 C 0.53372 0.75103 0.96888 0.0
C91 C 0.48665 0.74564 0.97158 0.0
H92 H 0.59261 0.83297 0.06335 0.0
H93 H 0.54105 0.73075 0.94037 0.0
H94 H 0.71769 0.88533 1.02246 0.0
H95 H 0.6584 0.93848 0.91335 0.0
H96 H 0.52508 0.63363 0.10187 0.0
H97 H 0.5096 0.82362 0.0716 0.0
H98 H 0.4575 0.72113 0.94518 0.0
C99 C 0.80565 0.62388 0.27389 0.0
C100 C 0.77429 0.64312 0.27295 0.0
N101 N 0.78915 0.67755 0.30992 0.0
N102 N 0.84005 0.64637 0.3112 0.0
C103 C 0.82937 0.67954 0.33169 0.0
H104 H 0.80195 0.59351 0.25073 0.0
Co105 Co 0.88526 0.62756 0.33494 0.0
C106 C 0.89875 0.68885 0.43445 0.0
O107 O 0.93208 0.73499 0.42295 0.0
N108 N 0.93108 0.60831 0.35892 0.0
C109 C 0.98412 0.5983 0.40771 0.0
C110 C 0.95571 0.62044 0.40376 0.0
C111 C 0.94628 0.57927 0.33598 0.0
N112 N 0.97797 0.57194 0.36528 0.0
O113 O 0.93959 0.68875 0.31143 0.0
H114 H 0.95337 0.64357 0.43262 0.0
H115 H 0.93477 0.56417 0.29826 0.0
O116 O 0.88482 0.6542 0.40146 0.0
C117 C 0.94036 0.68227 0.26392 0.0
O118 O 0.90774 0.63849 0.2446 0.0
N119 N 0.83109 0.56639 0.35288 0.0
C120 C 0.74222 0.4761 0.36117 0.0
C121 C 0.75062 0.51732 0.39008 0.0
C122 C 0.79463 0.56257 0.38411 0.0
C123 C 0.82375 0.52641 0.32496 0.0
C124 C 0.77968 0.48059 0.32893 0.0
H125 H 0.79781 0.59494 0.4026 0.0
H126 H 0.85055 0.53076 0.29693 0.0
H127 H 0.84929 0.70379 0.36315 0.0
H128 H 0.74156 0.63084 0.24908 0.0
H129 H 1.0066 0.60036 0.44009 0.0
H130 H 0.72264 0.51523 0.41563 0.0
H131 H 0.77391 0.44978 0.30505 0.0
C132 C 0.16597 0.7654 0.60293 0.0
C133 C 0.11486 0.7438 0.60185 0.0
N134 N 0.10276 0.77578 0.6226 0.0
N135 N 0.1865 0.8106 0.62542 0.0
C136 C 0.14719 0.81695 0.63415 0.0
H137 H 0.18598 0.74704 0.59197 0.0
Co138 Co 0.25266 0.85148 0.65101 0.0
C139 C 0.18598 0.82144 0.74221 0.0
O140 O 0.15687 0.77718 0.72191 0.0
N141 N 0.31849 0.8922 0.67616 0.0
C142 C 0.38361 0.92103 0.72894 0.0
C143 C 0.33255 0.89327 0.72471 0.0
C144 C 0.36222 0.91992 0.65142 0.0
N145 N 0.40239 0.93764 0.68295 0.0
O146 O 0.25224 0.90906 0.62726 0.0
H147 H 0.3077 0.87263 0.75493 0.0
H148 H 0.36469 0.92475 0.61094 0.0
O149 O 0.22496 0.85391 0.71831 0.0
C150 C 0.2572 0.90931 0.5794 0.0
O151 O 0.25959 0.87233 0.55843 0.0
N152 N 0.25719 0.79594 0.66794 0.0
C153 C 0.2693 0.71369 0.67375 0.0
C154 C 0.25215 0.72849 0.71531 0.0
C155 C 0.24834 0.77095 0.71233 0.0
C156 C 0.27737 0.78436 0.62857 0.0
C157 C 0.28426 0.7437 0.63078 0.0
H158 H 0.23923 0.7834 0.74616 0.0
H159 H 0.28762 0.80676 0.59488 0.0
H160 H 0.15082 0.84884 0.65445 0.0
H161 H 0.08878 0.70529 0.59184 0.0
H162 H 0.40555 0.92715 0.76302 0.0
H163 H 0.24159 0.70754 0.75001 0.0
H164 H 0.30104 0.73603 0.59905 0.0
C165 C 0.40614 0.1826 0.94561 0.0
C166 C 0.3737 0.13165 0.94543 0.0
N167 N 0.33808 0.12082 0.97996 0.0
N168 N 0.39145 0.20379 0.98064 0.0
C169 C 0.34929 0.16521 0.99989 0.0
H170 H 0.43951 0.20237 0.92331 0.0
Co171 Co 0.42315 0.27016 1.00491 0.0
C172 C 0.3725 0.23858 0.10714 0.0
O173 O 0.34794 0.26255 0.10474 0.0
N174 N 0.45459 0.3362 0.03083 0.0
C175 C 0.5002 0.39962 0.08304 0.0
C176 C 0.47703 0.34916 0.07658 0.0
C177 C 0.46442 0.38023 1.01025 0.0
N178 N 0.49227 0.41982 0.04167 0.0
O179 O 0.36352 0.27116 0.98995 0.0
H180 H 0.47748 0.32374 0.1038 0.0
H181 H 0.45101 0.38288 0.9733 0.0
O182 O 0.40106 0.24227 0.07132 0.0
C183 C 0.36392 0.27588 0.94208 0.0
O184 O 0.40296 0.28153 0.91743 0.0
N185 N 0.48299 0.27081 1.01386 0.0
C186 C 0.57716 0.28107 1.01594 0.0
C187 C 0.54645 0.26387 0.05829 0.0
C188 C 0.49946 0.25902 0.05656 0.0
C189 C 0.51252 0.28804 0.97249 0.0
C190 C 0.55967 0.29296 0.97244 0.0
H191 H 0.47778 0.24773 0.09039 0.0
H192 H 0.49918 0.29793 0.93925 0.0
H193 H 0.32796 0.16916 0.0296 0.0
H194 H 0.37815 0.10452 0.92411 0.0
H195 H 0.52201 0.41986 0.11598 0.0
H196 H 0.55905 0.25515 0.09292 0.0
H197 H 0.58196 0.30561 0.93867 0.0
C198 C 0.70462 0.854 0.41807 0.0
C199 C 0.73111 0.83004 0.41278 0.0
N200 N 0.70394 0.78958 0.38378 0.0
N201 N 0.65961 0.82781 0.39419 0.0
C202 C 0.66161 0.7895 0.37208 0.0
H203 H 0.7201 0.89058 0.43472 0.0
Co204 Co 0.61254 0.84849 0.37869 0.0
C205 C 0.63373 0.84964 0.28705 0.0
O206 O 0.59197 0.80828 0.29747 0.0
N207 N 0.56762 0.87069 0.36048 0.0
C208 C 0.49758 0.86762 0.33521 0.0
C209 C 0.52241 0.84163 0.33851 0.0
C210 C 0.5698 0.91477 0.3692 0.0
N211 N 0.52729 0.91369 0.3546 0.0
O212 O 0.64738 0.90539 0.42652 0.0
H213 H 0.50775 0.80332 0.32707 0.0
H214 H 0.60094 0.94624 0.38806 0.0
O215 O 0.65389 0.88321 0.3217 0.0
C216 C 0.65311 0.90344 0.47442 0.0
O217 O 0.63845 0.86018 0.49561 0.0
N218 N 0.56695 0.80725 0.42967 0.0
C219 C 0.47248 0.73293 0.45807 0.0
C220 C 0.50884 0.72112 0.44607 0.0
C221 C 0.55541 0.75872 0.43054 0.0
C222 C 0.53557 0.81998 0.45261 0.0
C223 C 0.48693 0.78298 0.46532 0.0
H224 H 0.57875 0.74705 0.41338 0.0
H225 H 0.54512 0.85847 0.45454 0.0
H226 H 0.63295 0.76253 0.34687 0.0
H227 H 0.76885 0.84312 0.42617 0.0
H228 H 0.46034 0.85357 0.31984 0.0
H229 H 0.49878 0.68261 0.44047 0.0
H230 H 0.45968 0.79339 0.47503 0.0
C231 C 0.85275 0.64705 0.77021 0.0
C232 C 0.90379 0.67052 0.76316 0.0
N233 N 0.91508 0.69938 0.72209 0.0
N234 N 0.83212 0.66112 0.73363 0.0
C235 C 0.87142 0.69371 0.7055 0.0
H236 H 0.83168 0.61917 0.79825 0.0
Co237 Co 0.76343 0.6343 0.71865 0.0
C238 C 0.76636 0.63604 0.607 0.0
O239 O 0.72563 0.59174 0.60636 0.0
N240 N 0.69364 0.60922 0.70297 0.0
C241 C 0.62739 0.60833 0.66797 0.0
C242 C 0.67871 0.63292 0.67091 0.0
C243 C 0.64963 0.57163 0.72122 0.0
N244 N 0.60884 0.56928 0.69934 0.0
O245 O 0.76791 0.69384 0.74342 0.0
H246 H 0.70365 0.6667 0.65096 0.0
H247 H 0.64672 0.548 0.75205 0.0
O248 O 0.7824 0.65962 0.64898 0.0
C249 C 0.76345 0.68784 0.79118 0.0
O250 O 0.75979 0.64713 0.80993 0.0
N251 N 0.75902 0.57368 0.70095 0.0
C252 C 0.75497 0.48257 0.6886 0.0
C253 C 0.79182 0.52571 0.66461 0.0
C254 C 0.79277 0.57065 0.67076 0.0
C255 C 0.72734 0.53374 0.7291 0.0
C256 C 0.72235 0.48732 0.72126 0.0
H257 H 0.82225 0.60347 0.65304 0.0
H258 H 0.70804 0.53829 0.76009 0.0
H259 H 0.86833 0.71119 0.67162 0.0
H260 H 0.92997 0.6642 0.78433 0.0
H261 H 0.60546 0.61844 0.64428 0.0
H262 H 0.82098 0.52572 0.64269 0.0
H263 H 0.69427 0.45603 0.74235 0.0
C264 C 0.2377 0.86622 0.10565 0.0
C265 C 0.26061 0.91707 0.10036 0.0
N266 N 0.23513 0.92679 0.06554 0.0
N267 N 0.19808 0.84328 0.07352 0.0
C268 C 0.19646 0.88178 0.05149 0.0
H269 H 0.2499 0.84813 0.13177 0.0
Co270 Co 0.15086 0.77376 0.06032 0.0
C271 C 0.18509 0.81815 0.96031 0.0
O272 O 0.23042 0.83947 0.98002 0.0
N273 N 0.10287 0.70641 0.04732 0.0
C274 C 0.03436 0.63986 1.01692 0.0
C275 C 0.06099 0.69109 1.01941 0.0
C276 C 0.10068 0.66362 0.06177 0.0
N277 N 0.05937 0.6224 0.04331 0.0
O278 O 0.09866 0.7846 0.08148 0.0
H279 H 0.05059 0.71574 1.00165 0.0
H280 H 0.12878 0.66286 0.08548 0.0
O281 O 0.14728 0.79022 0.98811 0.0
C282 C 0.10135 0.78589 0.12969 0.0
O283 O 0.13917 0.78512 0.15127 0.0
N284 N 0.20111 0.75963 0.0459 0.0
C285 C 0.28183 0.74649 0.03276 0.0
C286 C 0.27131 0.75789 0.08053 0.0
C287 C 0.22948 0.76246 0.0865 0.0
C288 C 0.20576 0.74021 1.00137 0.0
C289 C 0.24682 0.73445 0.99358 0.0
H290 H 0.21985 0.76883 0.12364 0.0
H291 H 0.17852 0.73028 0.97131 0.0
H292 H 0.168 0.87687 1.02444 0.0
H293 H 0.29459 0.94477 0.11935 0.0
H294 H 0.99972 0.61718 0.9962 0.0
H295 H 0.29591 0.76486 0.11261 0.0
H296 H 0.25162 0.72172 0.95716 0.0
C297 C 0.39328 0.21344 0.45117 0.0
C298 C 0.37086 0.24192 0.45158 0.0
N299 N 0.33939 0.22816 0.41174 0.0
N300 N 0.37607 0.18201 0.4111 0.0
C301 C 0.3428 0.19165 0.38828 0.0
H302 H 0.42289 0.21791 0.47634 0.0
Co303 Co 0.40349 0.1445 0.38607 0.0
C304 C 0.35538 0.11735 0.28148 0.0
O305 O 0.34613 0.07128 0.28006 0.0
N306 N 0.43233 0.10793 0.36 0.0
C307 C 0.47839 0.08995 0.31002 0.0
C308 C 0.45678 0.11855 0.31573 0.0
C309 C 0.43972 0.07221 0.38055 0.0
N310 N 0.46812 0.06102 0.35086 0.0
O311 O 0.34548 0.08437 0.40639 0.0
H312 H 0.45997 0.14653 0.28956 0.0
H313 H 0.42621 0.0561 0.41725 0.0
O314 O 0.37599 0.14444 0.3203 0.0
C315 C 0.35103 0.0816 0.45387 0.0
O316 O 0.39192 0.11717 0.47575 0.0
N317 N 0.46134 0.20314 0.37178 0.0
C318 C 0.55196 0.29138 0.36514 0.0
C319 C 0.51306 0.28076 0.33088 0.0
C320 C 0.46743 0.23657 0.33538 0.0
C321 C 0.49885 0.21252 0.40487 0.0
C322 C 0.54464 0.25656 0.40228 0.0
H323 H 0.43721 0.2299 0.31007 0.0
H324 H 0.49263 0.1858 0.434 0.0
H325 H 0.32285 0.17397 0.35387 0.0
H326 H 0.37964 0.27271 0.4769 0.0
H327 H 0.50029 0.09052 0.27823 0.0
H328 H 0.51769 0.30645 0.30114 0.0
H329 H 0.57365 0.26376 0.42971 0.0
C330 C 0.16699 0.38159 0.78488 0.0
C331 C 0.11576 0.35978 0.78205 0.0
N332 N 0.09722 0.31893 0.75212 0.0
N333 N 0.181 0.35506 0.75632 0.0
C334 C 0.13761 0.31629 0.73836 0.0
H335 H 0.19263 0.41638 0.80376 0.0
Co336 Co 0.24668 0.37346 0.73812 0.0
C337 C 0.23853 0.35637 0.62705 0.0
O338 O 0.28429 0.39457 0.62374 0.0
N339 N 0.31377 0.39059 0.72048 0.0
C340 C 0.37429 0.37738 0.69406 0.0
C341 C 0.32358 0.35676 0.69989 0.0
C342 C 0.36018 0.43141 0.72786 0.0
N343 N 0.39751 0.42444 0.71201 0.0
O344 O 0.23845 0.31453 0.76858 0.0
H345 H 0.29532 0.31908 0.68943 0.0
H346 H 0.3677 0.4656 0.74571 0.0
O347 O 0.21992 0.34101 0.67086 0.0
C348 C 0.24407 0.32284 0.81612 0.0
O349 O 0.24729 0.36396 0.83336 0.0
N350 N 0.25577 0.43378 0.71415 0.0
C351 C 0.26705 0.52665 0.69345 0.0
C352 C 0.22936 0.48324 0.66943 0.0
C353 C 0.22476 0.43736 0.67988 0.0
C354 C 0.28852 0.47447 0.74175 0.0
C355 C 0.2972 0.52157 0.72987 0.0
H356 H 0.19382 0.40447 0.66323 0.0
H357 H 0.30644 0.47007 0.77473 0.0
H358 H 0.13605 0.28859 0.71261 0.0
H359 H 0.09417 0.37467 0.79824 0.0
H360 H 0.39237 0.35922 0.67694 0.0
H361 H 0.20169 0.48371 0.64484 0.0
H362 H 0.32594 0.55324 0.75084 0.0
C363 C 0.81274 0.18269 0.11812 0.0
C364 C 0.78319 0.13164 0.11531 0.0
N365 N 0.80189 0.11489 0.07995 0.0
N366 N 0.84942 0.19871 0.08353 0.0
C367 C 0.84357 0.15577 0.06376 0.0
H368 H 0.80644 0.20586 0.14353 0.0
Co369 Co 0.89823 0.2651 0.06303 0.0
C370 C 0.85325 0.2099 0.96759 0.0
O371 O 0.80967 0.1934 0.98909 0.0
N372 N 0.94733 0.32967 0.04411 0.0
C373 C 1.01407 0.39276 1.00873 0.0
C374 C 0.98493 0.34163 1.01177 0.0
C375 C 0.95458 0.37413 0.06056 0.0
N376 N 0.99516 0.41331 0.03967 0.0
O377 O 0.94982 0.25224 0.08249 0.0
H378 H 0.99082 0.31486 0.99166 0.0
H379 H 0.93062 0.37769 0.08751 0.0
O380 O 0.89366 0.23975 0.99233 0.0
C381 C 0.95361 0.2562 0.13049 0.0
O382 O 0.92056 0.26238 0.15499 0.0
N383 N 0.84934 0.28173 0.04873 0.0
C384 C 0.77055 0.29803 0.03578 0.0
C385 C 0.78508 0.29243 0.08419 0.0
C386 C 0.82605 0.2862 0.08986 0.0
C387 C 0.84109 0.2957 1.00246 0.0
C388 C 0.80051 0.30252 0.99478 0.0
H389 H 0.83894 0.2842 0.12722 0.0
H390 H 0.86463 0.2999 0.9709 0.0
H391 H 0.86704 0.15461 0.03454 0.0
H392 H 0.74923 0.10882 0.13609 0.0
H393 H 0.04594 0.41311 0.98448 0.0
H394 H 0.76431 0.29178 0.11706 0.0
H395 H 0.79146 0.30907 0.9571 0.0
C396 C 0.9949 0.25642 0.21101 0.0
C397 C 0.99866 0.2649 0.15867 0.0
C398 C 0.03729 0.2784 0.24253 0.0
C399 C 0.08507 0.3101 0.22287 0.0
H400 H 0.95851 0.23563 0.22833 0.0
H401 H 0.03192 0.27371 0.28288 0.0
S402 S 0.11599 0.33572 0.08712 0.0
N403 N 0.05443 0.3005 0.08765 0.0
N404 N 0.13446 0.3418 0.14665 0.0
C405 C 0.08985 0.31425 0.16995 0.0
C406 C 0.04652 0.29158 0.13783 0.0
C407 C 0.70794 0.99622 0.48285 0.0
C408 C 0.68009 0.9495 0.50582 0.0
C409 C 0.73299 0.04011 0.51181 0.0
C410 C 0.73124 0.03922 0.56494 0.0
H411 H 0.71012 0.99908 0.44214 0.0
H412 H 0.75296 0.0753 0.49221 0.0
S413 S 0.66294 0.92673 0.64389 0.0
N414 N 0.65223 0.90504 0.58542 0.0
N415 N 0.6993 0.98777 0.6394 0.0
C416 C 0.70446 0.9928 0.58856 0.0
C417 C 0.6788 0.94794 0.55911 0.0
C418 C 0.73544 0.73391 0.91155 0.0
C419 C 0.71376 0.76083 0.89345 0.0
C420 C 0.75537 0.71385 0.878 0.0
C421 C 0.7544 0.72012 0.8253 0.0
H422 H 0.73347 0.72494 0.95121 0.0
H423 H 0.76885 0.69064 0.89339 0.0
S424 S 0.71077 0.79641 0.76044 0.0
N425 N 0.69945 0.79954 0.82066 0.0
N426 N 0.73663 0.76151 0.75776 0.0
C427 C 0.73748 0.75129 0.80742 0.0
C428 C 0.71712 0.77164 0.84152 0.0
C429 C 1.00968 0.73983 0.14374 0.0
C430 C 0.05801 0.77383 0.16157 0.0
C431 C 0.97064 0.71327 0.17752 0.0
C432 C 0.97853 0.71991 0.2302 0.0
H433 H 1.00295 0.73009 0.10402 0.0
H434 H 0.9348 0.68487 0.16221 0.0
S435 S 0.09573 0.81318 0.29479 0.0
N436 N 0.10977 0.81938 0.23431 0.0
N437 N 0.0362 0.7692 0.29778 0.0
C438 C 0.02514 0.75808 0.24802 0.0
C439 C 0.06496 0.78512 0.21361 0.0
C440 C 0.31934 0.04296 0.53761 0.0
C441 C 0.31645 0.03814 0.48454 0.0
C442 C 0.29592 1.00115 0.56882 0.0
C443 C 0.26902 0.953 0.54799 0.0
H444 H 0.34219 0.07919 0.55535 0.0
H445 H 0.30218 1.00646 0.6092 0.0
S446 S 0.2424 0.92058 0.41183 0.0
N447 N 0.27881 0.98188 0.41292 0.0
N448 N 0.23455 0.90311 0.4714 0.0
C449 C 0.26191 0.94796 0.49518 0.0
C450 C 0.28563 0.9906 0.46343 0.0
C451 C 0.28956 0.27721 0.82935 0.0
C452 C 0.26152 0.29678 0.84954 0.0
C453 C 0.32003 0.26737 0.86052 0.0
C454 C 0.32334 0.27638 0.91301 0.0
H455 H 0.29133 0.27339 0.78891 0.0
H456 H 0.34329 0.25515 0.84282 0.0
S457 S 0.24939 0.31772 0.98537 0.0
N458 N 0.23283 0.3175 0.92595 0.0
N459 N 0.29029 0.29882 0.98448 0.0
C460 C 0.29152 0.29088 0.93424 0.0
C461 C 0.26056 0.30114 0.90245 0.0
C462 C 0.20474 0.35404 0.48954 0.0
C463 C 0.15678 0.34824 0.4913 0.0
C464 C 0.22911 0.35179 0.53335 0.0
C465 C 0.20617 0.34237 0.58075 0.0
H466 H 0.22548 0.36432 0.4548 0.0
H467 H 0.26751 0.36058 0.53043 0.0
S468 S 0.07599 0.31249 0.60286 0.0
N469 N 0.08424 0.32499 0.54225 0.0
N470 N 0.1286 0.31808 0.62444 0.0
C471 C 0.15585 0.33042 0.58179 0.0
C472 C 0.1316 0.33415 0.53718 0.0
C473 C 0.80217 0.15249 0.8389 0.0
C474 C 0.84029 0.18481 0.80645 0.0
C475 C 0.80837 0.15882 0.89137 0.0
C476 C 0.85301 0.19748 0.91343 0.0
H477 H 0.76613 0.12435 0.82391 0.0
H478 H 0.77676 0.13471 0.91469 0.0
S479 S 0.96834 0.28426 0.84491 0.0
N480 N 0.92742 0.25096 0.80008 0.0
N481 N 0.93876 0.26293 0.89867 0.0
C482 C 0.89326 0.22644 0.88155 0.0
C483 C 0.88693 0.22006 0.82805 0.0
C484 C 0.66475 0.80665 0.23329 0.0
C485 C 0.65983 0.84865 0.24099 0.0
C486 C 0.67616 0.79505 0.1861 0.0
C487 C 0.68079 0.82376 0.1437 0.0
H488 H 0.6561 0.78023 0.26327 0.0
H489 H 0.67707 0.76091 0.18213 0.0
S490 S 0.67362 0.93921 0.14325 0.0
N491 N 0.66336 0.92087 0.20261 0.0
N492 N 0.68286 0.89829 0.11281 0.0
C493 C 0.67803 0.86723 0.15095 0.0
C494 C 0.66785 0.87982 0.19978 0.0
C495 C 0.83063 0.70031 0.54861 0.0
C496 C 0.8012 0.65038 0.56389 0.0
C497 C 0.86365 0.71333 0.50767 0.0
C498 C 0.86969 0.67707 0.48196 0.0
H499 H 0.82691 0.72917 0.56733 0.0
H500 H 0.88348 0.7517 0.49533 0.0
S501 S 0.81068 0.5435 0.51587 0.0
N502 N 0.78462 0.56571 0.55361 0.0
N503 N 0.85064 0.59118 0.48176 0.0
C504 C 0.84359 0.62794 0.49999 0.0
C505 C 0.8084 0.61433 0.53962 0.0
C506 C 0.22344 0.8575 0.87846 0.0
C507 C 0.18054 0.82322 0.90512 0.0
C508 C 0.22338 0.86023 0.82585 0.0
C509 C 0.18113 0.827 0.79721 0.0
H510 H 0.25825 0.88191 0.89823 0.0
H511 H 0.25775 0.88674 0.80769 0.0
S512 S 0.05744 0.73285 0.84815 0.0
N513 N 0.09296 0.75849 0.89877 0.0
N514 N 0.09346 0.76129 0.79949 0.0
C515 C 0.13706 0.794 0.82327 0.0
C516 C 0.13669 0.79242 0.87722 0.0
C517 C 0.34333 0.20791 0.19499 0.0
C518 C 0.36552 0.20486 0.15017 0.0
C519 C 0.33815 0.17792 0.23662 0.0
C520 C 0.35385 0.14278 0.23487 0.0
H521 H 0.33096 0.23458 0.19855 0.0
H522 H 0.32213 0.18282 0.27052 0.0
S523 S 0.41321 0.11857 0.12657 0.0
N524 N 0.40272 0.1626 0.10677 0.0
N525 N 0.39188 0.1061 0.18465 0.0
C526 C 0.3747 0.13817 0.19 0.0
C527 C 0.38094 0.1693 0.14788 0.0
C528 C 0.04731 0.55489 0.37466 0.0
C529 C 0.99898 0.54039 0.35637 0.0
C530 C 0.06665 0.52282 0.37173 0.0
C531 C 0.03823 0.47447 0.35104 0.0
H532 H 0.07015 0.59122 0.39214 0.0
H533 H 0.10349 0.53533 0.38743 0.0
S534 S 0.91073 0.41913 0.29505 0.0
N535 N 0.92397 0.47487 0.31493 0.0
N536 N 0.96032 0.41487 0.30898 0.0
C537 C 0.99044 0.46 0.33118 0.0
C538 C 0.97089 0.49287 0.33382 0.0
C539 C 0.53092 0.04495 0.65534 0.0
C540 C 0.56152 0.02734 0.67427 0.0
C541 C 0.47832 0.01397 0.65397 0.0
C542 C 0.45504 0.96469 0.67171 0.0
H543 H 0.54758 0.0837 0.64481 0.0
H544 H 0.45568 0.0296 0.64248 0.0
S545 S 0.51917 0.89974 0.71903 0.0
N546 N 0.56514 0.95669 0.70656 0.0
N547 N 0.46692 0.89865 0.70395 0.0
C548 C 0.48564 0.94602 0.68736 0.0
C549 C 0.53873 0.97732 0.68871 0.0
C550 C 0.51812 0.50179 0.08029 0.0
C551 C 0.50898 0.47257 0.03646 0.0
C552 C 0.53667 0.553 0.07825 0.0
C553 C 0.54585 0.5784 0.0322 0.0
H554 H 0.51054 0.48509 0.11723 0.0
H555 H 0.54371 0.5728 0.11375 0.0
S556 S 0.52839 0.52039 0.90536 0.0
N557 N 0.51196 0.47364 0.94469 0.0
N558 N 0.54431 0.57013 0.94084 0.0
C559 C 0.53695 0.55011 0.98757 0.0
C560 C 0.51873 0.49728 0.98968 0.0
C561 C 0.46511 0.93977 0.37051 0.0
C562 C 0.51454 0.95231 0.35942 0.0
C563 C 0.45067 0.97596 0.3708 0.0
C564 C 0.48491 0.02596 0.35921 0.0
H565 H 0.43712 0.90144 0.37825 0.0
H566 H 0.41199 0.96438 0.37776 0.0
S567 S 0.61927 0.07916 0.33074 0.0
N568 N 0.5981 0.01919 0.33913 0.0
N569 N 0.57103 0.08679 0.33947 0.0
C570 C 0.53476 0.03932 0.34993 0.0
C571 C 0.54958 1.00269 0.35017 0.0
C572 C 0.51974 0.54667 0.70102 0.0
C573 C 0.55624 0.53284 0.70664 0.0
C574 C 0.46831 0.51143 0.704 0.0
C575 C 0.45084 0.46058 0.71238 0.0
H576 H 0.53097 0.58513 0.69389 0.0
H577 H 0.44195 0.52397 0.69827 0.0
S578 S 0.53054 0.40487 0.73245 0.0
N579 N 0.57079 0.46443 0.72239 0.0
N580 N 0.47461 0.39876 0.72935 0.0
C581 C 0.48689 0.44638 0.71948 0.0
C582 C 0.53933 0.4823 0.71642 0.0
C583 C 0.97789 0.48222 0.04937 0.0
C584 C 1.01243 0.46592 0.04564 0.0
C585 C 0.99367 0.53329 0.05014 0.0
C586 C 0.04472 0.57034 0.04782 0.0
H587 H 0.93819 0.45529 0.0498 0.0
H588 H 0.96554 0.54391 0.05184 0.0
S589 S 0.15057 0.54742 0.04182 0.0
N590 N 0.10037 0.49108 0.04307 0.0
N591 N 0.12987 0.58677 0.04377 0.0
C592 C 0.07979 0.55456 0.04608 0.0
C593 C 0.06369 0.5025 0.04504 0.0
C594 C 0.31802 0.31437 0.33062 0.0
C595 C 0.27828 0.31531 0.35486 0.0
C596 C 0.33677 0.28453 0.34839 0.0
C597 C 0.31711 0.25518 0.39159 0.0
H598 H 0.33508 0.33722 0.29784 0.0
H599 H 0.3678 0.28539 0.32916 0.0
S600 S 0.21138 0.24048 0.46734 0.0
N601 N 0.21794 0.28039 0.42299 0.0
N602 N 0.25501 0.22638 0.45683 0.0
C603 C 0.27691 0.25449 0.41548 0.0
C604 C 0.25692 0.2839 0.39694 0.0
C605 C 0.98091 0.29894 0.68569 0.0
C606 C 0.9583 0.2494 0.66784 0.0
C607 C 0.02479 0.32043 0.71508 0.0
C608 C 0.04837 0.29349 0.72791 0.0
H609 H 0.96449 0.32146 0.67698 0.0
H610 H 0.04135 0.35917 0.72612 0.0
S611 S 1.00215 0.16119 0.69438 0.0
N612 N 0.96103 0.17299 0.66777 0.0
N613 N 0.04375 0.21333 0.72325 0.0
C614 C 0.02521 0.2433 0.71194 0.0
C615 C 0.98014 0.22128 0.68204 0.0
C616 C 0.80163 0.04301 0.03959 0.0
C617 C 0.77596 0.0673 0.05418 0.0
C618 C 0.77718 0.99778 1.01228 0.0
C619 C 0.72674 0.97622 0.99736 0.0
H620 H 0.84069 0.05897 0.04976 0.0
H621 H 0.79779 0.97959 1.00242 0.0
S622 S 0.64302 0.02518 1.02568 0.0
N623 N 0.69736 0.06653 0.05113 0.0
N624 N 0.65175 0.98186 1.00018 0.0
C625 C 0.70083 1.00028 1.01153 0.0
C626 C 0.72537 0.04575 0.03981 0.0
C627 C 0.75362 0.73138 0.29511 0.0
C628 C 0.76372 0.70217 0.3278 0.0
C629 C 0.73289 0.75918 0.31338 0.0
C630 C 0.72053 0.75748 0.36448 0.0
H631 H 0.76379 0.73431 0.25578 0.0
H632 H 0.72869 0.78383 0.28803 0.0
S633 S 0.73583 0.68354 0.46423 0.0
N634 N 0.75762 0.67123 0.41299 0.0
N635 N 0.71788 0.72295 0.44685 0.0
C636 C 0.72916 0.72737 0.39708 0.0
C637 C 0.75077 0.69963 0.37879 0.0
C638 C 0.05158 0.7793 0.69218 0.0
C639 C 0.05463 0.76185 0.64386 0.0
C640 C 1.00582 0.75914 0.71747 0.0
C641 C 0.9613 0.72182 0.69489 0.0
H642 H 0.08499 0.80705 0.71175 0.0
H643 H 1.00521 0.77228 0.75517 0.0
S644 S 0.94791 0.66534 0.56842 0.0
N645 N 1.00811 0.70676 0.57375 0.0
N646 N 0.92235 0.66922 0.62125 0.0
C647 C 0.96328 0.70562 0.64595 0.0
C648 C 1.00982 0.72564 0.62043 0.0
C649 C 0.29721 0.06553 0.05262 0.0
C650 C 0.30374 0.07222 1.00018 0.0
C651 C 0.27273 0.01779 0.07373 0.0
C652 C 0.2516 0.97479 0.04311 0.0
H653 H 0.31314 0.09725 0.0778 0.0
H654 H 0.27152 0.01441 0.1144 0.0
S655 S 0.2465 0.97257 0.90313 0.0
N656 N 0.27977 0.03236 0.91796 0.0
N657 N 0.23141 0.94233 0.95716 0.0
C658 C 0.25296 0.98102 0.99041 0.0
C659 C 0.27946 0.02978 0.96906 0.0
C660 C 0.38618 0.66565 0.48171 0.0
C661 C 0.42041 0.69537 0.44496 0.0
C662 C 0.34098 0.62271 0.46767 0.0
C663 C 0.329 0.60784 0.41657 0.0
H664 H 0.39543 0.67421 0.52136 0.0
H665 H 0.31631 0.59985 0.49724 0.0
S666 S 0.40801 0.67494 0.3066 0.0
N667 N 0.43939 0.7093 0.35599 0.0
N668 N 0.35659 0.6276 0.32947 0.0
C669 C 0.3628 0.63875 0.37961 0.0
C670 C 0.40795 0.68275 0.39391 0.0
C671 C 0.73932 0.40184 0.7252 0.0
C672 C 0.753 0.43393 0.68353 0.0
C673 C 0.73712 0.3561 0.72215 0.0
C674 C 0.75096 0.34109 0.6781 0.0
H675 H 0.7307 0.41204 0.76113 0.0
H676 H 0.72447 0.33252 0.75503 0.0
S677 S 0.79065 0.41161 0.55801 0.0
N678 N 0.77772 0.44579 0.59543 0.0
N679 N 0.78098 0.36334 0.59201 0.0
C680 C 0.76571 0.37316 0.63622 0.0
C681 C 0.76527 0.41872 0.63848 0.0
C682 C 0.39764 0.73795 0.05484 0.0
C683 C 0.42739 0.76417 1.01375 0.0
C684 C 0.34959 0.73053 0.0597 0.0
C685 C 0.33019 0.74967 1.02387 0.0
H686 H 0.41162 0.72303 0.08324 0.0
H687 H 0.32769 0.71012 0.09197 0.0
S688 S 0.39504 0.82226 0.91009 0.0
N689 N 0.43513 0.80906 0.93666 0.0
N690 N 0.34535 0.79698 0.94643 0.0
C691 C 0.35984 0.77577 0.98237 0.0
C692 C 0.40844 0.78267 0.97721 0.0
C693 C 0.64508 0.33895 0.3666 0.0
C694 C 0.5999 0.33893 0.36309 0.0
C695 C 0.69103 0.38355 0.36608 0.0
C696 C 0.6933 0.42955 0.36196 0.0
H697 H 0.6449 0.30421 0.36959 0.0
H698 H 0.72501 0.38204 0.36934 0.0
S699 S 0.58572 0.44963 0.35093 0.0
N700 N 0.56013 0.38868 0.3561 0.0
N701 N 0.6467 0.47252 0.35246 0.0
C702 C 0.64842 0.43005 0.35781 0.0
C703 C 0.60165 0.3847 0.35892 0.0
C704 C 0.28579 0.65459 0.7214 0.0
C705 C 0.27188 0.66753 0.67598 0.0
C706 C 0.28434 0.60942 0.72635 0.0
C707 C 0.27116 0.57589 0.68541 0.0
H708 H 0.29709 0.67913 0.75402 0.0
H709 H 0.29234 0.60051 0.76336 0.0
S710 S 0.23437 0.59359 0.55681 0.0
N711 N 0.24357 0.64292 0.58911 0.0
N712 N 0.24759 0.561 0.59628 0.0
C713 C 0.2596 0.58955 0.63878 0.0
C714 C 0.25864 0.63466 0.63449 0.0
C715 C 0.63183 0.2471 0.03832 0.0
C716 C 0.62699 0.28596 1.01777 0.0
C717 C 0.67861 0.25154 0.04365 0.0
C718 C 0.72212 0.29477 1.02819 0.0
H719 H 0.59919 0.21301 0.05061 0.0
H720 H 0.68081 0.22086 0.05995 0.0
S721 S 0.73021 0.40731 0.97245 0.0
N722 N 0.66994 0.36946 0.98238 0.0
N723 N 0.75815 0.377 0.99134 0.0
C724 C 0.71803 0.33355 1.00666 0.0
C725 C 0.67032 0.32932 1.00166 0.0
loop_
_geom_bond_atom_site_label_1
_geom_bond_atom_site_label_2
_geom_bond_distance
_geom_bond_site_symmetry_2
_ccdc_geom_bond_type
C0 C1 1.351 . S
C0 N3 1.368 . S
C0 H5 0.931 . S
C1 C0 1.351 . S
C1 N2 1.373 . S
C1 H29 0.930 . S
N2 C1 1.373 . S
N2 C4 1.340 . S
N3 C0 1.368 . S
N3 C4 1.321 . S
N3 Co6 2.135 . S
C4 N2 1.340 . S
C4 N3 1.321 . S
C4 H28 0.930 . S
H5 C0 0.931 . S
Co6 N3 2.135 . S
Co6 N9 2.121 . S
Co6 O14 2.055 . S
Co6 O17 2.039 . S
Co6 N20 2.140 . S
C7 O8 1.227 . S
C7 O17 1.265 . S
O8 C7 1.227 . S
N9 Co6 2.121 . S
N9 C11 1.375 . S
N9 C12 1.313 . S
C10 C11 1.338 . S
C10 N13 1.377 . S
C10 H30 0.930 . S
C11 N9 1.375 . S
C11 C10 1.338 . S
C11 H15 0.931 . S
C12 N9 1.313 . S
C12 N13 1.344 . S
C12 H16 0.930 . S
N13 C10 1.377 . S
N13 C12 1.344 . S
O14 Co6 2.055 . S
O14 C18 1.253 . S
H15 C11 0.931 . S
H16 C12 0.930 . S
O17 Co6 2.039 . S
O17 C7 1.265 . S
C18 O14 1.253 . S
C18 O19 1.227 . S
O19 C18 1.227 . S
N20 Co6 2.140 . S
N20 C23 1.346 . S
N20 C24 1.345 . S
C21 C22 1.387 . S
C21 C25 1.391 . S
C22 C21 1.387 . S
C22 C23 1.369 . S
C22 H31 0.929 . S
C23 N20 1.346 . S
C23 C22 1.369 . S
C23 H26 0.928 . S
C24 N20 1.345 . S
C24 C25 1.371 . S
C24 H27 0.931 . S
C25 C21 1.391 . S
C25 C24 1.371 . S
C25 H32 0.930 . S
H26 C23 0.928 . S
H27 C24 0.931 . S
H28 C4 0.930 . S
H29 C1 0.930 . S
H30 C10 0.930 . S
H31 C22 0.929 . S
H32 C25 0.930 . S
C33 C34 1.351 . S
C33 N36 1.368 . S
C33 H38 0.931 . S
C34 C33 1.351 . S
C34 N35 1.373 . S
C34 H62 0.930 . S
N35 C34 1.373 . S
N35 C37 1.340 . S
N36 C33 1.368 . S
N36 C37 1.321 . S
N36 Co39 2.135 . S
C37 N35 1.340 . S
C37 N36 1.321 . S
C37 H61 0.930 . S
H38 C33 0.931 . S
Co39 N36 2.135 . S
Co39 N42 2.121 . S
Co39 O47 2.055 . S
Co39 O50 2.039 . S
Co39 N53 2.140 . S
C40 O41 1.227 . S
C40 O50 1.265 . S
O41 C40 1.227 . S
N42 Co39 2.121 . S
N42 C44 1.375 . S
N42 C45 1.313 . S
C43 C44 1.338 . S
C43 N46 1.377 . S
C43 H63 0.930 . S
C44 N42 1.375 . S
C44 C43 1.338 . S
C44 H48 0.931 . S
C45 N42 1.313 . S
C45 N46 1.344 . S
C45 H49 0.930 . S
N46 C43 1.377 . S
N46 C45 1.344 . S
O47 Co39 2.055 . S
O47 C51 1.253 . S
H48 C44 0.931 . S
H49 C45 0.930 . S
O50 Co39 2.039 . S
O50 C40 1.265 . S
C51 O47 1.253 . S
C51 O52 1.227 . S
O52 C51 1.227 . S
N53 Co39 2.140 . S
N53 C56 1.346 . S
N53 C57 1.345 . S
C54 C55 1.387 . S
C54 C58 1.391 . S
C55 C54 1.387 . S
C55 C56 1.369 . S
C55 H64 0.929 . S
C56 N53 1.346 . S
C56 C55 1.369 . S
C56 H59 0.928 . S
C57 N53 1.345 . S
C57 C58 1.371 . S
C57 H60 0.931 . S
C58 C54 1.391 . S
C58 C57 1.371 . S
C58 H65 0.930 . S
H59 C56 0.928 . S
H60 C57 0.931 . S
H61 C37 0.930 . S
H62 C34 0.930 . S
H63 C43 0.930 . S
H64 C55 0.929 . S
H65 C58 0.930 . S
C66 C67 1.351 . S
C66 N69 1.368 . S
C66 H71 0.931 . S
C67 C66 1.351 . S
C67 N68 1.373 . S
C67 H95 0.930 . S
N68 C67 1.373 . S
N68 C70 1.340 1_556 S
N69 C66 1.368 . S
N69 C70 1.321 1_556 S
N69 Co72 2.135 1_556 S
C70 N68 1.340 1_554 S
C70 N69 1.321 1_554 S
C70 H94 0.930 . S
H71 C66 0.931 . S
Co72 N69 2.135 1_554 S
Co72 N75 2.121 . S
Co72 O80 2.055 1_554 S
Co72 O83 2.039 . S
Co72 N86 2.140 1_554 S
C73 O74 1.227 . S
C73 O83 1.265 . S
O74 C73 1.227 . S
N75 Co72 2.121 . S
N75 C77 1.375 . S
N75 C78 1.313 . S
C76 C77 1.338 . S
C76 N79 1.377 . S
C76 H96 0.930 . S
C77 N75 1.375 . S
C77 C76 1.338 . S
C77 H81 0.931 . S
C78 N75 1.313 . S
C78 N79 1.344 . S
C78 H82 0.930 1_554 S
N79 C76 1.377 . S
N79 C78 1.344 . S
O80 Co72 2.055 1_556 S
O80 C84 1.253 . S
H81 C77 0.931 . S
H82 C78 0.930 1_556 S
O83 Co72 2.039 . S
O83 C73 1.265 . S
C84 O80 1.253 . S
C84 O85 1.227 . S
O85 C84 1.227 . S
N86 Co72 2.140 1_556 S
N86 C89 1.346 1_556 S
N86 C90 1.345 . S
C87 C88 1.387 . S
C87 C91 1.391 . S
C88 C87 1.387 . S
C88 C89 1.369 1_556 S
C88 H97 0.929 1_556 S
C89 N86 1.346 1_554 S
C89 C88 1.369 1_554 S
C89 H92 0.928 . S
C90 N86 1.345 . S
C90 C91 1.371 . S
C90 H93 0.931 . S
C91 C87 1.391 . S
C91 C90 1.371 . S
C91 H98 0.930 . S
H92 C89 0.928 . S
H93 C90 0.931 . S
H94 C70 0.930 . S
H95 C67 0.930 . S
H96 C76 0.930 . S
H97 C88 0.929 1_554 S
H98 C91 0.930 . S
C99 C100 1.351 . S
C99 N102 1.368 . S
C99 H104 0.931 . S
C100 C99 1.351 . S
C100 N101 1.373 . S
C100 H128 0.930 . S
N101 C100 1.373 . S
N101 C103 1.340 . S
N102 C99 1.368 . S
N102 C103 1.321 . S
N102 Co105 2.135 . S
C103 N101 1.340 . S
C103 N102 1.321 . S
C103 H127 0.930 . S
H104 C99 0.931 . S
Co105 N102 2.135 . S
Co105 N108 2.121 . S
Co105 O113 2.055 . S
Co105 O116 2.039 . S
Co105 N119 2.140 . S
C106 O107 1.227 . S
C106 O116 1.265 . S
O107 C106 1.227 . S
N108 Co105 2.121 . S
N108 C110 1.375 . S
N108 C111 1.313 . S
C109 C110 1.338 . S
C109 N112 1.377 . S
C109 H129 0.930 . S
C110 N108 1.375 . S
C110 C109 1.338 . S
C110 H114 0.931 . S
C111 N108 1.313 . S
C111 N112 1.344 . S
C111 H115 0.930 . S
N112 C109 1.377 . S
N112 C111 1.344 . S
O113 Co105 2.055 . S
O113 C117 1.253 . S
H114 C110 0.931 . S
H115 C111 0.930 . S
O116 Co105 2.039 . S
O116 C106 1.265 . S
C117 O113 1.253 . S
C117 O118 1.227 . S
O118 C117 1.227 . S
N119 Co105 2.140 . S
N119 C122 1.346 . S
N119 C123 1.345 . S
C120 C121 1.387 . S
C120 C124 1.391 . S
C121 C120 1.387 . S
C121 C122 1.369 . S
C121 H130 0.929 . S
C122 N119 1.346 . S
C122 C121 1.369 . S
C122 H125 0.928 . S
C123 N119 1.345 . S
C123 C124 1.371 . S
C123 H126 0.931 . S
C124 C120 1.391 . S
C124 C123 1.371 . S
C124 H131 0.930 . S
H125 C122 0.928 . S
H126 C123 0.931 . S
H127 C103 0.930 . S
H128 C100 0.930 . S
H129 C109 0.930 . S
H130 C121 0.929 . S
H131 C124 0.930 . S
C132 C133 1.351 . S
C132 N135 1.368 . S
C132 H137 0.931 . S
C133 C132 1.351 . S
C133 N134 1.373 . S
C133 H161 0.930 . S
N134 C133 1.373 . S
N134 C136 1.340 . S
N135 C132 1.368 . S
N135 C136 1.321 . S
N135 Co138 2.135 . S
C136 N134 1.340 . S
C136 N135 1.321 . S
C136 H160 0.930 . S
H137 C132 0.931 . S
Co138 N135 2.135 . S
Co138 N141 2.121 . S
Co138 O146 2.055 . S
Co138 O149 2.039 . S
Co138 N152 2.140 . S
C139 O140 1.227 . S
C139 O149 1.265 . S
O140 C139 1.227 . S
N141 Co138 2.121 . S
N141 C143 1.375 . S
N141 C144 1.313 . S
C142 C143 1.338 . S
C142 N145 1.377 . S
C142 H162 0.930 . S
C143 N141 1.375 . S
C143 C142 1.338 . S
C143 H147 0.931 . S
C144 N141 1.313 . S
C144 N145 1.344 . S
C144 H148 0.930 . S
N145 C142 1.377 . S
N145 C144 1.344 . S
O146 Co138 2.055 . S
O146 C150 1.253 . S
H147 C143 0.931 . S
H148 C144 0.930 . S
O149 Co138 2.039 . S
O149 C139 1.265 . S
C150 O146 1.253 . S
C150 O151 1.227 . S
O151 C150 1.227 . S
N152 Co138 2.140 . S
N152 C155 1.346 . S
N152 C156 1.345 . S
C153 C154 1.387 . S
C153 C157 1.391 . S
C154 C153 1.387 . S
C154 C155 1.369 . S
C154 H163 0.929 . S
C155 N152 1.346 . S
C155 C154 1.369 . S
C155 H158 0.928 . S
C156 N152 1.345 . S
C156 C157 1.371 . S
C156 H159 0.931 . S
C157 C153 1.391 . S
C157 C156 1.371 . S
C157 H164 0.930 . S
H158 C155 0.928 . S
H159 C156 0.931 . S
H160 C136 0.930 . S
H161 C133 0.930 . S
H162 C142 0.930 . S
H163 C154 0.929 . S
H164 C157 0.930 . S
C165 C166 1.351 . S
C165 N168 1.368 . S
C165 H170 0.931 . S
C166 C165 1.351 . S
C166 N167 1.373 . S
C166 H194 0.930 . S
N167 C166 1.373 . S
N167 C169 1.340 1_556 S
N168 C165 1.368 . S
N168 C169 1.321 1_556 S
N168 Co171 2.135 1_556 S
C169 N167 1.340 1_554 S
C169 N168 1.321 1_554 S
C169 H193 0.930 . S
H170 C165 0.931 . S
Co171 N168 2.135 1_554 S
Co171 N174 2.121 . S
Co171 O179 2.055 1_554 S
Co171 O182 2.039 . S
Co171 N185 2.140 1_554 S
C172 O173 1.227 . S
C172 O182 1.265 . S
O173 C172 1.227 . S
N174 Co171 2.121 . S
N174 C176 1.375 . S
N174 C177 1.313 . S
C175 C176 1.338 . S
C175 N178 1.377 . S
C175 H195 0.930 . S
C176 N174 1.375 . S
C176 C175 1.338 . S
C176 H180 0.931 . S
C177 N174 1.313 . S
C177 N178 1.344 . S
C177 H181 0.930 1_554 S
N178 C175 1.377 . S
N178 C177 1.344 . S
O179 Co171 2.055 1_556 S
O179 C183 1.253 . S
H180 C176 0.931 . S
H181 C177 0.930 1_556 S
O182 Co171 2.039 . S
O182 C172 1.265 . S
C183 O179 1.253 . S
C183 O184 1.227 . S
O184 C183 1.227 . S
N185 Co171 2.140 1_556 S
N185 C188 1.346 1_556 S
N185 C189 1.345 . S
C186 C187 1.387 . S
C186 C190 1.391 . S
C187 C186 1.387 . S
C187 C188 1.369 1_556 S
C187 H196 0.929 1_556 S
C188 N185 1.346 1_554 S
C188 C187 1.369 1_554 S
C188 H191 0.928 . S
C189 N185 1.345 . S
C189 C190 1.371 . S
C189 H192 0.931 . S
C190 C186 1.391 . S
C190 C189 1.371 . S
C190 H197 0.930 . S
H191 C188 0.928 . S
H192 C189 0.931 . S
H193 C169 0.930 . S
H194 C166 0.930 . S
H195 C175 0.930 . S
H196 C187 0.929 1_554 S
H197 C190 0.930 . S
C198 C199 1.351 . S
C198 N201 1.368 . S
C198 H203 0.931 . S
C199 C198 1.351 . S
C199 N200 1.373 . S
C199 H227 0.930 . S
N200 C199 1.373 . S
N200 C202 1.340 . S
N201 C198 1.368 . S
N201 C202 1.321 . S
N201 Co204 2.135 . S
C202 N200 1.340 . S
C202 N201 1.321 . S
C202 H226 0.930 . S
H203 C198 0.931 . S
Co204 N201 2.135 . S
Co204 N207 2.121 . S
Co204 O212 2.055 . S
Co204 O215 2.039 . S
Co204 N218 2.140 . S
C205 O206 1.227 . S
C205 O215 1.265 . S
O206 C205 1.227 . S
N207 Co204 2.121 . S
N207 C209 1.375 . S
N207 C210 1.313 . S
C208 C209 1.338 . S
C208 N211 1.377 . S
C208 H228 0.930 . S
C209 N207 1.375 . S
C209 C208 1.338 . S
C209 H213 0.931 . S
C210 N207 1.313 . S
C210 N211 1.344 . S
C210 H214 0.930 . S
N211 C208 1.377 . S
N211 C210 1.344 . S
O212 Co204 2.055 . S
O212 C216 1.253 . S
H213 C209 0.931 . S
H214 C210 0.930 . S
O215 Co204 2.039 . S
O215 C205 1.265 . S
C216 O212 1.253 . S
C216 O217 1.227 . S
O217 C216 1.227 . S
N218 Co204 2.140 . S
N218 C221 1.346 . S
N218 C222 1.345 . S
C219 C220 1.387 . S
C219 C223 1.391 . S
C220 C219 1.387 . S
C220 C221 1.369 . S
C220 H229 0.929 . S
C221 N218 1.346 . S
C221 C220 1.369 . S
C221 H224 0.928 . S
C222 N218 1.345 . S
C222 C223 1.371 . S
C222 H225 0.931 . S
C223 C219 1.391 . S
C223 C222 1.371 . S
C223 H230 0.930 . S
H224 C221 0.928 . S
H225 C222 0.931 . S
H226 C202 0.930 . S
H227 C199 0.930 . S
H228 C208 0.930 . S
H229 C220 0.929 . S
H230 C223 0.930 . S
C231 C232 1.351 . S
C231 N234 1.368 . S
C231 H236 0.931 . S
C232 C231 1.351 . S
C232 N233 1.373 . S
C232 H260 0.930 . S
N233 C232 1.373 . S
N233 C235 1.340 . S
N234 C231 1.368 . S
N234 C235 1.321 . S
N234 Co237 2.135 . S
C235 N233 1.340 . S
C235 N234 1.321 . S
C235 H259 0.930 . S
H236 C231 0.931 . S
Co237 N234 2.135 . S
Co237 N240 2.121 . S
Co237 O245 2.055 . S
Co237 O248 2.039 . S
Co237 N251 2.140 . S
C238 O239 1.227 . S
C238 O248 1.265 . S
O239 C238 1.227 . S
N240 Co237 2.121 . S
N240 C242 1.375 . S
N240 C243 1.313 . S
C241 C242 1.338 . S
C241 N244 1.377 . S
C241 H261 0.930 . S
C242 N240 1.375 . S
C242 C241 1.338 . S
C242 H246 0.931 . S
C243 N240 1.313 . S
C243 N244 1.344 . S
C243 H247 0.930 . S
N244 C241 1.377 . S
N244 C243 1.344 . S
O245 Co237 2.055 . S
O245 C249 1.253 . S
H246 C242 0.931 . S
H247 C243 0.930 . S
O248 Co237 2.039 . S
O248 C238 1.265 . S
C249 O245 1.253 . S
C249 O250 1.227 . S
O250 C249 1.227 . S
N251 Co237 2.140 . S
N251 C254 1.346 . S
N251 C255 1.345 . S
C252 C253 1.387 . S
C252 C256 1.391 . S
C253 C252 1.387 . S
C253 C254 1.369 . S
C253 H262 0.929 . S
C254 N251 1.346 . S
C254 C253 1.369 . S
C254 H257 0.928 . S
C255 N251 1.345 . S
C255 C256 1.371 . S
C255 H258 0.931 . S
C256 C252 1.391 . S
C256 C255 1.371 . S
C256 H263 0.930 . S
H257 C254 0.928 . S
H258 C255 0.931 . S
H259 C235 0.930 . S
H260 C232 0.930 . S
H261 C241 0.930 . S
H262 C253 0.929 . S
H263 C256 0.930 . S
C264 C265 1.351 . S
C264 N267 1.368 . S
C264 H269 0.931 . S
C265 C264 1.351 . S
C265 N266 1.373 . S
C265 H293 0.930 . S
N266 C265 1.373 . S
N266 C268 1.340 1_554 S
N267 C264 1.368 . S
N267 C268 1.321 1_554 S
N267 Co270 2.135 1_554 S
C268 N266 1.340 1_556 S
C268 N267 1.321 1_556 S
C268 H292 0.930 . S
H269 C264 0.931 . S
Co270 N267 2.135 1_556 S
Co270 N273 2.121 . S
Co270 O278 2.055 1_556 S
Co270 O281 2.039 . S
Co270 N284 2.140 1_556 S
C271 O272 1.227 . S
C271 O281 1.265 . S
O272 C271 1.227 . S
N273 Co270 2.121 . S
N273 C275 1.375 . S
N273 C276 1.313 . S
C274 C275 1.338 . S
C274 N277 1.377 . S
C274 H294 0.930 . S
C275 N273 1.375 . S
C275 C274 1.338 . S
C275 H279 0.931 . S
C276 N273 1.313 . S
C276 N277 1.344 . S
C276 H280 0.930 1_556 S
N277 C274 1.377 . S
N277 C276 1.344 . S
O278 Co270 2.055 1_554 S
O278 C282 1.253 . S
H279 C275 0.931 . S
H280 C276 0.930 1_554 S
O281 Co270 2.039 . S
O281 C271 1.265 . S
C282 O278 1.253 . S
C282 O283 1.227 . S
O283 C282 1.227 . S
N284 Co270 2.140 1_554 S
N284 C287 1.346 1_554 S
N284 C288 1.345 . S
C285 C286 1.387 . S
C285 C289 1.391 . S
C286 C285 1.387 . S
C286 C287 1.369 1_554 S
C286 H295 0.929 1_554 S
C287 N284 1.346 1_556 S
C287 C286 1.369 1_556 S
C287 H290 0.928 . S
C288 N284 1.345 . S
C288 C289 1.371 . S
C288 H291 0.931 . S
C289 C285 1.391 . S
C289 C288 1.371 . S
C289 H296 0.930 . S
H290 C287 0.928 . S
H291 C288 0.931 . S
H292 C268 0.930 . S
H293 C265 0.930 . S
H294 C274 0.930 . S
H295 C286 0.929 1_556 S
H296 C289 0.930 . S
C297 C298 1.351 . S
C297 N300 1.368 . S
C297 H302 0.931 . S
C298 C297 1.351 . S
C298 N299 1.373 . S
C298 H326 0.930 . S
N299 C298 1.373 . S
N299 C301 1.340 . S
N300 C297 1.368 . S
N300 C301 1.321 . S
N300 Co303 2.135 . S
C301 N299 1.340 . S
C301 N300 1.321 . S
C301 H325 0.930 . S
H302 C297 0.931 . S
Co303 N300 2.135 . S
Co303 N306 2.121 . S
Co303 O311 2.055 . S
Co303 O314 2.039 . S
Co303 N317 2.140 . S
C304 O305 1.227 . S
C304 O314 1.265 . S
O305 C304 1.227 . S
N306 Co303 2.121 . S
N306 C308 1.375 . S
N306 C309 1.313 . S
C307 C308 1.338 . S
C307 N310 1.377 . S
C307 H327 0.930 . S
C308 N306 1.375 . S
C308 C307 1.338 . S
C308 H312 0.931 . S
C309 N306 1.313 . S
C309 N310 1.344 . S
C309 H313 0.930 . S
N310 C307 1.377 . S
N310 C309 1.344 . S
O311 Co303 2.055 . S
O311 C315 1.253 . S
H312 C308 0.931 . S
H313 C309 0.930 . S
O314 Co303 2.039 . S
O314 C304 1.265 . S
C315 O311 1.253 . S
C315 O316 1.227 . S
O316 C315 1.227 . S
N317 Co303 2.140 . S
N317 C320 1.346 . S
N317 C321 1.345 . S
C318 C319 1.387 . S
C318 C322 1.391 . S
C319 C318 1.387 . S
C319 C320 1.369 . S
C319 H328 0.929 . S
C320 N317 1.346 . S
C320 C319 1.369 . S
C320 H323 0.928 . S
C321 N317 1.345 . S
C321 C322 1.371 . S
C321 H324 0.931 . S
C322 C318 1.391 . S
C322 C321 1.371 . S
C322 H329 0.930 . S
H323 C320 0.928 . S
H324 C321 0.931 . S
H325 C301 0.930 . S
H326 C298 0.930 . S
H327 C307 0.930 . S
H328 C319 0.929 . S
H329 C322 0.930 . S
C330 C331 1.351 . S
C330 N333 1.368 . S
C330 H335 0.931 . S
C331 C330 1.351 . S
C331 N332 1.373 . S
C331 H359 0.930 . S
N332 C331 1.373 . S
N332 C334 1.340 . S
N333 C330 1.368 . S
N333 C334 1.321 . S
N333 Co336 2.135 . S
C334 N332 1.340 . S
C334 N333 1.321 . S
C334 H358 0.930 . S
H335 C330 0.931 . S
Co336 N333 2.135 . S
Co336 N339 2.121 . S
Co336 O344 2.055 . S
Co336 O347 2.039 . S
Co336 N350 2.140 . S
C337 O338 1.227 . S
C337 O347 1.265 . S
O338 C337 1.227 . S
N339 Co336 2.121 . S
N339 C341 1.375 . S
N339 C342 1.313 . S
C340 C341 1.338 . S
C340 N343 1.377 . S
C340 H360 0.930 . S
C341 N339 1.375 . S
C341 C340 1.338 . S
C341 H345 0.931 . S
C342 N339 1.313 . S
C342 N343 1.344 . S
C342 H346 0.930 . S
N343 C340 1.377 . S
N343 C342 1.344 . S
O344 Co336 2.055 . S
O344 C348 1.253 . S
H345 C341 0.931 . S
H346 C342 0.930 . S
O347 Co336 2.039 . S
O347 C337 1.265 . S
C348 O344 1.253 . S
C348 O349 1.227 . S
O349 C348 1.227 . S
N350 Co336 2.140 . S
N350 C353 1.346 . S
N350 C354 1.345 . S
C351 C352 1.387 . S
C351 C355 1.391 . S
C352 C351 1.387 . S
C352 C353 1.369 . S
C352 H361 0.929 . S
C353 N350 1.346 . S
C353 C352 1.369 . S
C353 H356 0.928 . S
C354 N350 1.345 . S
C354 C355 1.371 . S
C354 H357 0.931 . S
C355 C351 1.391 . S
C355 C354 1.371 . S
C355 H362 0.930 . S
H356 C353 0.928 . S
H357 C354 0.931 . S
H358 C334 0.930 . S
H359 C331 0.930 . S
H360 C340 0.930 . S
H361 C352 0.929 . S
H362 C355 0.930 . S
C363 C364 1.351 . S
C363 N366 1.368 . S
C363 H368 0.931 . S
C364 C363 1.351 . S
C364 N365 1.373 . S
C364 H392 0.930 . S
N365 C364 1.373 . S
N365 C367 1.340 1_554 S
N366 C363 1.368 . S
N366 C367 1.321 1_554 S
N366 Co369 2.135 1_554 S
C367 N365 1.340 1_556 S
C367 N366 1.321 1_556 S
C367 H391 0.930 . S
H368 C363 0.931 . S
Co369 N366 2.135 1_556 S
Co369 N372 2.121 . S
Co369 O377 2.055 1_556 S
Co369 O380 2.039 . S
Co369 N383 2.140 1_556 S
C370 O371 1.227 . S
C370 O380 1.265 . S
O371 C370 1.227 . S
N372 Co369 2.121 . S
N372 C374 1.375 . S
N372 C375 1.313 . S
C373 C374 1.338 . S
C373 N376 1.377 . S
C373 H393 0.930 . S
C374 N372 1.375 . S
C374 C373 1.338 . S
C374 H378 0.931 . S
C375 N372 1.313 . S
C375 N376 1.344 . S
C375 H379 0.930 1_556 S
N376 C373 1.377 . S
N376 C375 1.344 . S
O377 Co369 2.055 1_554 S
O377 C381 1.253 . S
H378 C374 0.931 . S
H379 C375 0.930 1_554 S
O380 Co369 2.039 . S
O380 C370 1.265 . S
C381 O377 1.253 . S
C381 O382 1.227 . S
O382 C381 1.227 . S
N383 Co369 2.140 1_554 S
N383 C386 1.346 1_554 S
N383 C387 1.345 . S
C384 C385 1.387 . S
C384 C388 1.391 . S
C385 C384 1.387 . S
C385 C386 1.369 1_554 S
C385 H394 0.929 1_554 S
C386 N383 1.346 1_556 S
C386 C385 1.369 1_556 S
C386 H389 0.928 . S
C387 N383 1.345 . S
C387 C388 1.371 . S
C387 H390 0.931 . S
C388 C384 1.391 . S
C388 C387 1.371 . S
C388 H395 0.930 . S
H389 C386 0.928 . S
H390 C387 0.931 . S
H391 C367 0.930 . S
H392 C364 0.930 . S
H393 C373 0.930 . S
H394 C385 0.929 1_556 S
H395 C388 0.930 . S
C396 C397 1.369 . S
C396 C398 1.419 1_655 S
C396 H400 0.930 . S
C397 C396 1.369 . S
C397 C406 1.429 . S
C398 C396 1.419 1_455 S
C398 C399 1.363 . S
C398 H401 0.929 . S
C399 C398 1.363 . S
C399 C405 1.428 . S
H400 C396 0.930 . S
H401 C398 0.929 . S
S402 N403 1.613 1_455 S
S402 N404 1.610 . S
N403 S402 1.613 1_655 S
N403 C406 1.350 . S
N404 S402 1.610 . S
N404 C405 1.351 . S
C405 C399 1.428 . S
C405 N404 1.351 . S
C405 C406 1.434 1_455 S
C406 C397 1.429 . S
C406 N403 1.350 . S
C406 C405 1.434 1_655 S
C407 C408 1.369 1_545 S
C407 C409 1.419 . S
C407 H411 0.930 . S
C408 C407 1.369 1_565 S
C408 C417 1.429 . S
C409 C407 1.419 . S
C409 C410 1.363 . S
C409 H412 0.929 . S
C410 C409 1.363 . S
C410 C416 1.428 1_545 S
H411 C407 0.930 . S
H412 C409 0.929 . S
S413 N414 1.613 . S
S413 N415 1.610 . S
N414 S413 1.613 . S
N414 C417 1.350 . S
N415 S413 1.610 . S
N415 C416 1.351 . S
C416 C410 1.428 1_565 S
C416 N415 1.351 . S
C416 C417 1.434 . S
C417 C408 1.429 . S
C417 N414 1.350 . S
C417 C416 1.434 . S
C418 C419 1.369 . S
C418 C420 1.419 . S
C418 H422 0.930 . S
C419 C418 1.369 . S
C419 C428 1.429 . S
C420 C418 1.419 . S
C420 C421 1.363 . S
C420 H423 0.929 . S
C421 C420 1.363 . S
C421 C427 1.428 . S
H422 C418 0.930 . S
H423 C420 0.929 . S
S424 N425 1.613 . S
S424 N426 1.610 . S
N425 S424 1.613 . S
N425 C428 1.350 . S
N426 S424 1.610 . S
N426 C427 1.351 . S
C427 C421 1.428 . S
C427 N426 1.351 . S
C427 C428 1.434 . S
C428 C419 1.429 . S
C428 N425 1.350 . S
C428 C427 1.434 . S
C429 C430 1.369 . S
C429 C431 1.419 1_455 S
C429 H433 0.930 . S
C430 C429 1.369 . S
C430 C439 1.429 . S
C431 C429 1.419 1_655 S
C431 C432 1.363 . S
C431 H434 0.929 . S
C432 C431 1.363 . S
C432 C438 1.428 . S
H433 C429 0.930 . S
H434 C431 0.929 . S
S435 N436 1.613 . S
S435 N437 1.610 1_455 S
N436 S435 1.613 . S
N436 C439 1.350 . S
N437 S435 1.610 1_655 S
N437 C438 1.351 . S
C438 C432 1.428 . S
C438 N437 1.351 . S
C438 C439 1.434 1_655 S
C439 C430 1.429 . S
C439 N436 1.350 . S
C439 C438 1.434 1_455 S
C440 C441 1.369 . S
C440 C442 1.419 . S
C440 H444 0.930 . S
C441 C440 1.369 . S
C441 C450 1.429 1_545 S
C442 C440 1.419 . S
C442 C443 1.363 1_545 S
C442 H445 0.929 . S
C443 C442 1.363 1_565 S
C443 C449 1.428 . S
H444 C440 0.930 . S
H445 C442 0.929 . S
S446 N447 1.613 . S
S446 N448 1.610 . S
N447 S446 1.613 . S
N447 C450 1.350 . S
N448 S446 1.610 . S
N448 C449 1.351 . S
C449 C443 1.428 . S
C449 N448 1.351 . S
C449 C450 1.434 . S
C450 C441 1.429 1_565 S
C450 N447 1.350 . S
C450 C449 1.434 . S
C451 C452 1.369 . S
C451 C453 1.419 . S
C451 H455 0.930 . S
C452 C451 1.369 . S
C452 C461 1.429 . S
C453 C451 1.419 . S
C453 C454 1.363 . S
C453 H456 0.929 . S
C454 C453 1.363 . S
C454 C460 1.428 . S
H455 C451 0.930 . S
H456 C453 0.929 . S
S457 N458 1.613 . S
S457 N459 1.610 . S
N458 S457 1.613 . S
N458 C461 1.350 . S
N459 S457 1.610 . S
N459 C460 1.351 . S
C460 C454 1.428 . S
C460 N459 1.351 . S
C460 C461 1.434 . S
C461 C452 1.429 . S
C461 N458 1.350 . S
C461 C460 1.434 . S
C462 C463 1.369 . S
C462 C464 1.419 . S
C462 H466 0.930 . S
C463 C462 1.369 . S
C463 C472 1.429 . S
C464 C462 1.419 . S
C464 C465 1.363 . S
C464 H467 0.929 . S
C465 C464 1.363 . S
C465 C471 1.428 . S
H466 C462 0.930 . S
H467 C464 0.929 . S
S468 N469 1.613 . S
S468 N470 1.610 . S
N469 S468 1.613 . S
N469 C472 1.350 . S
N470 S468 1.610 . S
N470 C471 1.351 . S
C471 C465 1.428 . S
C471 N470 1.351 . S
C471 C472 1.434 . S
C472 C463 1.429 . S
C472 N469 1.350 . S
C472 C471 1.434 . S
C473 C474 1.369 . S
C473 C475 1.419 . S
C473 H477 0.930 . S
C474 C473 1.369 . S
C474 C483 1.429 . S
C475 C473 1.419 . S
C475 C476 1.363 . S
C475 H478 0.929 . S
C476 C475 1.363 . S
C476 C482 1.428 . S
H477 C473 0.930 . S
H478 C475 0.929 . S
S479 N480 1.613 . S
S479 N481 1.610 . S
N480 S479 1.613 . S
N480 C483 1.350 . S
N481 S479 1.610 . S
N481 C482 1.351 . S
C482 C476 1.428 . S
C482 N481 1.351 . S
C482 C483 1.434 . S
C483 C474 1.429 . S
C483 N480 1.350 . S
C483 C482 1.434 . S
C484 C485 1.369 . S
C484 C486 1.419 . S
C484 H488 0.930 . S
C485 C484 1.369 . S
C485 C494 1.429 . S
C486 C484 1.419 . S
C486 C487 1.363 . S
C486 H489 0.929 . S
C487 C486 1.363 . S
C487 C493 1.428 . S
H488 C484 0.930 . S
H489 C486 0.929 . S
S490 N491 1.613 . S
S490 N492 1.610 . S
N491 S490 1.613 . S
N491 C494 1.350 . S
N492 S490 1.610 . S
N492 C493 1.351 . S
C493 C487 1.428 . S
C493 N492 1.351 . S
C493 C494 1.434 . S
C494 C485 1.429 . S
C494 N491 1.350 . S
C494 C493 1.434 . S
C495 C496 1.369 . S
C495 C497 1.419 . S
C495 H499 0.930 . S
C496 C495 1.369 . S
C496 C505 1.429 . S
C497 C495 1.419 . S
C497 C498 1.363 . S
C497 H500 0.929 . S
C498 C497 1.363 . S
C498 C504 1.428 . S
H499 C495 0.930 . S
H500 C497 0.929 . S
S501 N502 1.613 . S
S501 N503 1.610 . S
N502 S501 1.613 . S
N502 C505 1.350 . S
N503 S501 1.610 . S
N503 C504 1.351 . S
C504 C498 1.428 . S
C504 N503 1.351 . S
C504 C505 1.434 . S
C505 C496 1.429 . S
C505 N502 1.350 . S
C505 C504 1.434 . S
C506 C507 1.369 . S
C506 C508 1.419 . S
C506 H510 0.930 . S
C507 C506 1.369 . S
C507 C516 1.429 . S
C508 C506 1.419 . S
C508 C509 1.363 . S
C508 H511 0.929 . S
C509 C508 1.363 . S
C509 C515 1.428 . S
H510 C506 0.930 . S
H511 C508 0.929 . S
S512 N513 1.613 . S
S512 N514 1.610 . S
N513 S512 1.613 . S
N513 C516 1.350 . S
N514 S512 1.610 . S
N514 C515 1.351 . S
C515 C509 1.428 . S
C515 N514 1.351 . S
C515 C516 1.434 . S
C516 C507 1.429 . S
C516 N513 1.350 . S
C516 C515 1.434 . S
C517 C518 1.369 . S
C517 C519 1.419 . S
C517 H521 0.930 . S
C518 C517 1.369 . S
C518 C527 1.429 . S
C519 C517 1.419 . S
C519 C520 1.363 . S
C519 H522 0.929 . S
C520 C519 1.363 . S
C520 C526 1.428 . S
H521 C517 0.930 . S
H522 C519 0.929 . S
S523 N524 1.613 . S
S523 N525 1.610 . S
N524 S523 1.613 . S
N524 C527 1.350 . S
N525 S523 1.610 . S
N525 C526 1.351 . S
C526 C520 1.428 . S
C526 N525 1.351 . S
C526 C527 1.434 . S
C527 C518 1.429 . S
C527 N524 1.350 . S
C527 C526 1.434 . S
C528 C529 1.369 1_455 S
C528 C530 1.419 . S
C528 H532 0.930 . S
C529 C528 1.369 1_655 S
C529 C538 1.429 . S
C530 C528 1.419 . S
C530 C531 1.363 . S
C530 H533 0.929 . S
C531 C530 1.363 . S
C531 C537 1.428 1_455 S
H532 C528 0.930 . S
H533 C530 0.929 . S
S534 N535 1.613 . S
S534 N536 1.610 . S
N535 S534 1.613 . S
N535 C538 1.350 . S
N536 S534 1.610 . S
N536 C537 1.351 . S
C537 C531 1.428 1_655 S
C537 N536 1.351 . S
C537 C538 1.434 . S
C538 C529 1.429 . S
C538 N535 1.350 . S
C538 C537 1.434 . S
C539 C540 1.369 . S
C539 C541 1.419 . S
C539 H543 0.930 . S
C540 C539 1.369 . S
C540 C549 1.429 1_545 S
C541 C539 1.419 . S
C541 C542 1.363 1_545 S
C541 H544 0.929 . S
C542 C541 1.363 1_565 S
C542 C548 1.428 . S
H543 C539 0.930 . S
H544 C541 0.929 . S
S545 N546 1.613 . S
S545 N547 1.610 . S
N546 S545 1.613 . S
N546 C549 1.350 . S
N547 S545 1.610 . S
N547 C548 1.351 . S
C548 C542 1.428 . S
C548 N547 1.351 . S
C548 C549 1.434 . S
C549 C540 1.429 1_565 S
C549 N546 1.350 . S
C549 C548 1.434 . S
C550 C551 1.369 . S
C550 C552 1.419 . S
C550 H554 0.930 . S
C551 C550 1.369 . S
C551 C560 1.429 1_554 S
C552 C550 1.419 . S
C552 C553 1.363 . S
C552 H555 0.929 . S
C553 C552 1.363 . S
C553 C559 1.428 1_554 S
H554 C550 0.930 . S
H555 C552 0.929 . S
S556 N557 1.613 . S
S556 N558 1.610 . S
N557 S556 1.613 . S
N557 C560 1.350 . S
N558 S556 1.610 . S
N558 C559 1.351 . S
C559 C553 1.428 1_556 S
C559 N558 1.351 . S
C559 C560 1.434 . S
C560 C551 1.429 1_556 S
C560 N557 1.350 . S
C560 C559 1.434 . S
C561 C562 1.369 . S
C561 C563 1.419 . S
C561 H565 0.930 . S
C562 C561 1.369 . S
C562 C571 1.429 1_565 S
C563 C561 1.419 . S
C563 C564 1.363 1_565 S
C563 H566 0.929 . S
C564 C563 1.363 1_545 S
C564 C570 1.428 . S
H565 C561 0.930 . S
H566 C563 0.929 . S
S567 N568 1.613 . S
S567 N569 1.610 . S
N568 S567 1.613 . S
N568 C571 1.350 . S
N569 S567 1.610 . S
N569 C570 1.351 . S
C570 C564 1.428 . S
C570 N569 1.351 . S
C570 C571 1.434 . S
C571 C562 1.429 1_545 S
C571 N568 1.350 . S
C571 C570 1.434 . S
C572 C573 1.369 . S
C572 C574 1.419 . S
C572 H576 0.930 . S
C573 C572 1.369 . S
C573 C582 1.429 . S
C574 C572 1.419 . S
C574 C575 1.363 . S
C574 H577 0.929 . S
C575 C574 1.363 . S
C575 C581 1.428 . S
H576 C572 0.930 . S
H577 C574 0.929 . S
S578 N579 1.613 . S
S578 N580 1.610 . S
N579 S578 1.613 . S
N579 C582 1.350 . S
N580 S578 1.610 . S
N580 C581 1.351 . S
C581 C575 1.428 . S
C581 N580 1.351 . S
C581 C582 1.434 . S
C582 C573 1.429 . S
C582 N579 1.350 . S
C582 C581 1.434 . S
C583 C584 1.369 1_554 S
C583 C585 1.419 . S
C583 H587 0.930 . S
C584 C583 1.369 1_556 S
C584 C593 1.429 1_655 S
C585 C583 1.419 . S
C585 C586 1.363 1_654 S
C585 H588 0.929 . S
C586 C585 1.363 1_456 S
C586 C592 1.428 . S
H587 C583 0.930 . S
H588 C585 0.929 . S
S589 N590 1.613 . S
S589 N591 1.610 . S
N590 S589 1.613 . S
N590 C593 1.350 . S
N591 S589 1.610 . S
N591 C592 1.351 . S
C592 C586 1.428 . S
C592 N591 1.351 . S
C592 C593 1.434 . S
C593 C584 1.429 1_455 S
C593 N590 1.350 . S
C593 C592 1.434 . S
C594 C595 1.369 . S
C594 C596 1.419 . S
C594 H598 0.930 . S
C595 C594 1.369 . S
C595 C604 1.429 . S
C596 C594 1.419 . S
C596 C597 1.363 . S
C596 H599 0.929 . S
C597 C596 1.363 . S
C597 C603 1.428 . S
H598 C594 0.930 . S
H599 C596 0.929 . S
S600 N601 1.613 . S
S600 N602 1.610 . S
N601 S600 1.613 . S
N601 C604 1.350 . S
N602 S600 1.610 . S
N602 C603 1.351 . S
C603 C597 1.428 . S
C603 N602 1.351 . S
C603 C604 1.434 . S
C604 C595 1.429 . S
C604 N601 1.350 . S
C604 C603 1.434 . S
C605 C606 1.369 . S
C605 C607 1.419 1_655 S
C605 H609 0.930 . S
C606 C605 1.369 . S
C606 C615 1.429 . S
C607 C605 1.419 1_455 S
C607 C608 1.363 . S
C607 H610 0.929 . S
C608 C607 1.363 . S
C608 C614 1.428 . S
H609 C605 0.930 . S
H610 C607 0.929 . S
S611 N612 1.613 1_455 S
S611 N613 1.610 . S
N612 S611 1.613 1_655 S
N612 C615 1.350 . S
N613 S611 1.610 . S
N613 C614 1.351 . S
C614 C608 1.428 . S
C614 N613 1.351 . S
C614 C615 1.434 1_455 S
C615 C606 1.429 . S
C615 N612 1.350 . S
C615 C614 1.434 1_655 S
C616 C617 1.369 1_556 S
C616 C618 1.419 1_545 S
C616 H620 0.930 . S
C617 C616 1.369 1_554 S
C617 C626 1.429 . S
C618 C616 1.419 1_565 S
C618 C619 1.363 . S
C618 H621 0.929 . S
C619 C618 1.363 . S
C619 C625 1.428 1_556 S
H620 C616 0.930 . S
H621 C618 0.929 . S
S622 N623 1.613 1_565 S
S622 N624 1.610 . S
N623 S622 1.613 1_545 S
N623 C626 1.350 . S
N624 S622 1.610 . S
N624 C625 1.351 . S
C625 C619 1.428 1_554 S
C625 N624 1.351 . S
C625 C626 1.434 1_565 S
C626 C617 1.429 . S
C626 N623 1.350 . S
C626 C625 1.434 1_545 S
C627 C628 1.369 . S
C627 C629 1.419 . S
C627 H631 0.930 . S
C628 C627 1.369 . S
C628 C637 1.429 . S
C629 C627 1.419 . S
C629 C630 1.363 . S
C629 H632 0.929 . S
C630 C629 1.363 . S
C630 C636 1.428 . S
H631 C627 0.930 . S
H632 C629 0.929 . S
S633 N634 1.613 . S
S633 N635 1.610 . S
N634 S633 1.613 . S
N634 C637 1.350 . S
N635 S633 1.610 . S
N635 C636 1.351 . S
C636 C630 1.428 . S
C636 N635 1.351 . S
C636 C637 1.434 . S
C637 C628 1.429 . S
C637 N634 1.350 . S
C637 C636 1.434 . S
C638 C639 1.369 . S
C638 C640 1.419 1_455 S
C638 H642 0.930 . S
C639 C638 1.369 . S
C639 C648 1.429 . S
C640 C638 1.419 1_655 S
C640 C641 1.363 . S
C640 H643 0.929 . S
C641 C640 1.363 . S
C641 C647 1.428 . S
H642 C638 0.930 . S
H643 C640 0.929 . S
S644 N645 1.613 1_655 S
S644 N646 1.610 . S
N645 S644 1.613 1_455 S
N645 C648 1.350 . S
N646 S644 1.610 . S
N646 C647 1.351 . S
C647 C641 1.428 . S
C647 N646 1.351 . S
C647 C648 1.434 1_655 S
C648 C639 1.429 . S
C648 N645 1.350 . S
C648 C647 1.434 1_455 S
C649 C650 1.369 1_554 S
C649 C651 1.419 1_545 S
C649 H653 0.930 . S
C650 C649 1.369 1_556 S
C650 C659 1.429 . S
C651 C649 1.419 1_565 S
C651 C652 1.363 . S
C651 H654 0.929 . S
C652 C651 1.363 . S
C652 C658 1.428 1_554 S
H653 C649 0.930 . S
H654 C651 0.929 . S
S655 N656 1.613 1_565 S
S655 N657 1.610 . S
N656 S655 1.613 1_545 S
N656 C659 1.350 . S
N657 S655 1.610 . S
N657 C658 1.351 . S
C658 C652 1.428 1_556 S
C658 N657 1.351 . S
C658 C659 1.434 1_565 S
C659 C650 1.429 . S
C659 N656 1.350 . S
C659 C658 1.434 1_545 S
C660 C661 1.369 . S
C660 C662 1.419 . S
C660 H664 0.930 . S
C661 C660 1.369 . S
C661 C670 1.429 . S
C662 C660 1.419 . S
C662 C663 1.363 . S
C662 H665 0.929 . S
C663 C662 1.363 . S
C663 C669 1.428 . S
H664 C660 0.930 . S
H665 C662 0.929 . S
S666 N667 1.613 . S
S666 N668 1.610 . S
N667 S666 1.613 . S
N667 C670 1.350 . S
N668 S666 1.610 . S
N668 C669 1.351 . S
C669 C663 1.428 . S
C669 N668 1.351 . S
C669 C670 1.434 . S
C670 C661 1.429 . S
C670 N667 1.350 . S
C670 C669 1.434 . S
C671 C672 1.369 . S
C671 C673 1.419 . S
C671 H675 0.930 . S
C672 C671 1.369 . S
C672 C681 1.429 . S
C673 C671 1.419 . S
C673 C674 1.363 . S
C673 H676 0.929 . S
C674 C673 1.363 . S
C674 C680 1.428 . S
H675 C671 0.930 . S
H676 C673 0.929 . S
S677 N678 1.613 . S
S677 N679 1.610 . S
N678 S677 1.613 . S
N678 C681 1.350 . S
N679 S677 1.610 . S
N679 C680 1.351 . S
C680 C674 1.428 . S
C680 N679 1.351 . S
C680 C681 1.434 . S
C681 C672 1.429 . S
C681 N678 1.350 . S
C681 C680 1.434 . S
C682 C683 1.369 1_554 S
C682 C684 1.419 . S
C682 H686 0.930 . S
C683 C682 1.369 1_556 S
C683 C692 1.429 . S
C684 C682 1.419 . S
C684 C685 1.363 . S
C684 H687 0.929 . S
C685 C684 1.363 . S
C685 C691 1.428 1_554 S
H686 C682 0.930 . S
H687 C684 0.929 . S
S688 N689 1.613 . S
S688 N690 1.610 . S
N689 S688 1.613 . S
N689 C692 1.350 . S
N690 S688 1.610 . S
N690 C691 1.351 . S
C691 C685 1.428 1_556 S
C691 N690 1.351 . S
C691 C692 1.434 . S
C692 C683 1.429 . S
C692 N689 1.350 . S
C692 C691 1.434 . S
C693 C694 1.369 . S
C693 C695 1.419 . S
C693 H697 0.930 . S
C694 C693 1.369 . S
C694 C703 1.429 . S
C695 C693 1.419 . S
C695 C696 1.363 . S
C695 H698 0.929 . S
C696 C695 1.363 . S
C696 C702 1.428 . S
H697 C693 0.930 . S
H698 C695 0.929 . S
S699 N700 1.613 . S
S699 N701 1.610 . S
N700 S699 1.613 . S
N700 C703 1.350 . S
N701 S699 1.610 . S
N701 C702 1.351 . S
C702 C696 1.428 . S
C702 N701 1.351 . S
C702 C703 1.434 . S
C703 C694 1.429 . S
C703 N700 1.350 . S
C703 C702 1.434 . S
C704 C705 1.369 . S
C704 C706 1.419 . S
C704 H708 0.930 . S
C705 C704 1.369 . S
C705 C714 1.429 . S
C706 C704 1.419 . S
C706 C707 1.363 . S
C706 H709 0.929 . S
C707 C706 1.363 . S
C707 C713 1.428 . S
H708 C704 0.930 . S
H709 C706 0.929 . S
S710 N711 1.613 . S
S710 N712 1.610 . S
N711 S710 1.613 . S
N711 C714 1.350 . S
N712 S710 1.610 . S
N712 C713 1.351 . S
C713 C707 1.428 . S
C713 N712 1.351 . S
C713 C714 1.434 . S
C714 C705 1.429 . S
C714 N711 1.350 . S
C714 C713 1.434 . S
C715 C716 1.369 . S
C715 C717 1.419 . S
C715 H719 0.930 . S
C716 C715 1.369 . S
C716 C725 1.429 1_556 S
C717 C715 1.419 . S
C717 C718 1.363 1_556 S
C717 H720 0.929 . S
C718 C717 1.363 1_554 S
C718 C724 1.428 . S
H719 C715 0.930 . S
H720 C717 0.929 . S
S721 N722 1.613 . S
S721 N723 1.610 . S
N722 S721 1.613 . S
N722 C725 1.350 . S
N723 S721 1.610 . S
N723 C724 1.351 . S
C724 C718 1.428 . S
C724 N723 1.351 . S
C724 C725 1.434 . S
C725 C716 1.429 1_554 S
C725 N722 1.350 . S
C725 C724 1.434 . S
C397 C381 1.869 . S
C399 C18 1.867 . S
C408 C216 1.951 . S
C410 C51 1.954 . S
C419 C84 1.867 . S
C421 C249 1.864 . S
C430 C282 1.868 . S
C432 C117 1.867 . S
C441 C315 1.954 . S
C443 C150 1.952 . S
C452 C348 1.868 . S
C454 C183 1.867 . S
C463 C7 0.824 . S
C465 C337 0.802 . S
C474 C40 0.882 . S
C476 C370 0.877 . S
C485 C205 0.887 . S
C487 C73 0.870 . S
C496 C238 0.811 . S
C498 C106 0.807 . S
C507 C271 0.881 . S
C509 C139 0.878 . S
C518 C172 0.862 . S
C520 C304 0.886 . S
C529 N112 1.313 . S
C531 N13 1.317 . S
C540 N46 1.321 . S
C542 N145 1.317 . S
C551 N178 1.320 . S
C553 N79 1.320 . S
C562 N211 1.323 . S
C564 N310 1.318 . S
C573 N244 1.311 . S
C575 N343 1.316 . S
C584 N376 1.319 . S
C586 N277 1.315 . S
C595 N2 1.077 . S
C597 N299 1.071 . S
C606 N35 1.070 . S
C608 N332 1.076 . S
C617 N365 1.076 . S
C619 N68 1.081 . S
C628 N101 1.078 . S
C630 N200 1.073 . S
C639 N134 1.073 . S
C641 N233 1.078 . S
C650 N167 1.074 . S
C652 N266 1.079 . S
C661 C219 1.733 . S
C663 C21 1.739 . S
C672 C252 1.734 . S
C674 C54 1.739 . S
C683 C87 1.755 . S
C685 C285 1.749 . S
C694 C318 1.736 . S
C696 C120 1.737 . S
C705 C153 1.740 . S
C707 C351 1.734 . S
C716 C186 1.749 . S
C718 C384 1.753 . S
