# Generated by pormake.
# Topology vda, (6)-cn, num edge types: 1
# Building blocks:
#     Node 0, Type 0, BuildingBlock: VOLQOD_clean_sbu_1, # of connection points: 6
#     Node 1, Type 0, BuildingBlock: VOLQOD_clean_sbu_1, # of connection points: 6
#     Node 2, Type 0, BuildingBlock: VOLQOD_clean_sbu_1, # of connection points: 6
#     Node 3, Type 0, BuildingBlock: VOLQOD_clean_sbu_1, # of connection points: 6
#     Node 4, Type 0, BuildingBlock: VOLQOD_clean_sbu_1, # of connection points: 6
#     Node 5, Type 0, BuildingBlock: VOLQOD_clean_sbu_1, # of connection points: 6
#     Node 6, Type 0, BuildingBlock: VOLQOD_clean_sbu_1, # of connection points: 6
#     Node 7, Type 0, BuildingBlock: VOLQOD_clean_sbu_1, # of connection points: 6
#     Node 8, Type 0, BuildingBlock: VOLQOD_clean_sbu_1, # of connection points: 6
#     Node 9, Type 0, BuildingBlock: VOLQOD_clean_sbu_1, # of connection points: 6
#     Node 10, Type 0, BuildingBlock: VOLQOD_clean_sbu_1, # of connection points: 6
#     Node 11, Type 0, BuildingBlock: VOLQOD_clean_sbu_1, # of connection points: 6
#     Node 12, Type 0, BuildingBlock: VOLQOD_clean_sbu_1, # of connection points: 6
#     Node 13, Type 0, BuildingBlock: VOLQOD_clean_sbu_1, # of connection points: 6
#     Node 14, Type 0, BuildingBlock: VOLQOD_clean_sbu_1, # of connection points: 6
#     Node 15, Type 0, BuildingBlock: VOLQOD_clean_sbu_1, # of connection points: 6
#     Node 16, Type 0, BuildingBlock: VOLQOD_clean_sbu_1, # of connection points: 6
#     Node 17, Type 0, BuildingBlock: VOLQOD_clean_sbu_1, # of connection points: 6
#     Node 18, Type 0, BuildingBlock: VOLQOD_clean_sbu_1, # of connection points: 6
#     Node 19, Type 0, BuildingBlock: VOLQOD_clean_sbu_1, # of connection points: 6
#     Node 20, Type 0, BuildingBlock: VOLQOD_clean_sbu_1, # of connection points: 6
#     Node 21, Type 0, BuildingBlock: VOLQOD_clean_sbu_1, # of connection points: 6
#     Node 22, Type 0, BuildingBlock: VOLQOD_clean_sbu_1, # of connection points: 6
#     Node 23, Type 0, BuildingBlock: VOLQOD_clean_sbu_1, # of connection points: 6
#     Node 24, Type 0, BuildingBlock: VOLQOD_clean_sbu_1, # of connection points: 6
#     Node 25, Type 0, BuildingBlock: VOLQOD_clean_sbu_1, # of connection points: 6
#     Node 26, Type 0, BuildingBlock: VOLQOD_clean_sbu_1, # of connection points: 6
#     Node 27, Type 0, BuildingBlock: VOLQOD_clean_sbu_1, # of connection points: 6
#     Node 28, Type 0, BuildingBlock: VOLQOD_clean_sbu_1, # of connection points: 6
#     Node 29, Type 0, BuildingBlock: VOLQOD_clean_sbu_1, # of connection points: 6
#     Node 30, Type 0, BuildingBlock: VOLQOD_clean_sbu_1, # of connection points: 6
#     Node 31, Type 0, BuildingBlock: VOLQOD_clean_sbu_1, # of connection points: 6
#     Edge 32, Type (0, 0), BuildingBlock: OJICUG_clean_linker_0, # of connection points: 2
#     Edge 33, Type (0, 0), BuildingBlock: OJICUG_clean_linker_0, # of connection points: 2
#     Edge 34, Type (0, 0), BuildingBlock: OJICUG_clean_linker_0, # of connection points: 2
#     Edge 35, Type (0, 0), BuildingBlock: OJICUG_clean_linker_0, # of connection points: 2
#     Edge 36, Type (0, 0), BuildingBlock: OJICUG_clean_linker_0, # of connection points: 2
#     Edge 37, Type (0, 0), BuildingBlock: OJICUG_clean_linker_0, # of connection points: 2
#     Edge 38, Type (0, 0), BuildingBlock: OJICUG_clean_linker_0, # of connection points: 2
#     Edge 39, Type (0, 0), BuildingBlock: OJICUG_clean_linker_0, # of connection points: 2
#     Edge 40, Type (0, 0), BuildingBlock: OJICUG_clean_linker_0, # of connection points: 2
#     Edge 41, Type (0, 0), BuildingBlock: OJICUG_clean_linker_0, # of connection points: 2
#     Edge 42, Type (0, 0), BuildingBlock: OJICUG_clean_linker_0, # of connection points: 2
#     Edge 43, Type (0, 0), BuildingBlock: OJICUG_clean_linker_0, # of connection points: 2
#     Edge 44, Type (0, 0), BuildingBlock: OJICUG_clean_linker_0, # of connection points: 2
#     Edge 45, Type (0, 0), BuildingBlock: OJICUG_clean_linker_0, # of connection points: 2
#     Edge 46, Type (0, 0), BuildingBlock: OJICUG_clean_linker_0, # of connection points: 2
#     Edge 47, Type (0, 0), BuildingBlock: OJICUG_clean_linker_0, # of connection points: 2
#     Edge 48, Type (0, 0), BuildingBlock: OJICUG_clean_linker_0, # of connection points: 2
#     Edge 49, Type (0, 0), BuildingBlock: OJICUG_clean_linker_0, # of connection points: 2
#     Edge 50, Type (0, 0), BuildingBlock: OJICUG_clean_linker_0, # of connection points: 2
#     Edge 51, Type (0, 0), BuildingBlock: OJICUG_clean_linker_0, # of connection points: 2
#     Edge 52, Type (0, 0), BuildingBlock: OJICUG_clean_linker_0, # of connection points: 2
#     Edge 53, Type (0, 0), BuildingBlock: OJICUG_clean_linker_0, # of connection points: 2
#     Edge 54, Type (0, 0), BuildingBlock: OJICUG_clean_linker_0, # of connection points: 2
#     Edge 55, Type (0, 0), BuildingBlock: OJICUG_clean_linker_0, # of connection points: 2
#     Edge 56, Type (0, 0), BuildingBlock: OJICUG_clean_linker_0, # of connection points: 2
#     Edge 57, Type (0, 0), BuildingBlock: OJICUG_clean_linker_0, # of connection points: 2
#     Edge 58, Type (0, 0), BuildingBlock: OJICUG_clean_linker_0, # of connection points: 2
#     Edge 59, Type (0, 0), BuildingBlock: OJICUG_clean_linker_0, # of connection points: 2
#     Edge 60, Type (0, 0), BuildingBlock: OJICUG_clean_linker_0, # of connection points: 2
#     Edge 61, Type (0, 0), BuildingBlock: OJICUG_clean_linker_0, # of connection points: 2
#     Edge 62, Type (0, 0), BuildingBlock: OJICUG_clean_linker_0, # of connection points: 2
#     Edge 63, Type (0, 0), BuildingBlock: OJICUG_clean_linker_0, # of connection points: 2
#     Edge 64, Type (0, 0), BuildingBlock: OJICUG_clean_linker_0, # of connection points: 2
#     Edge 65, Type (0, 0), BuildingBlock: OJICUG_clean_linker_0, # of connection points: 2
#     Edge 66, Type (0, 0), BuildingBlock: OJICUG_clean_linker_0, # of connection points: 2
#     Edge 67, Type (0, 0), BuildingBlock: OJICUG_clean_linker_0, # of connection points: 2
#     Edge 68, Type (0, 0), BuildingBlock: OJICUG_clean_linker_0, # of connection points: 2
#     Edge 69, Type (0, 0), BuildingBlock: OJICUG_clean_linker_0, # of connection points: 2
#     Edge 70, Type (0, 0), BuildingBlock: OJICUG_clean_linker_0, # of connection points: 2
#     Edge 71, Type (0, 0), BuildingBlock: OJICUG_clean_linker_0, # of connection points: 2
#     Edge 72, Type (0, 0), BuildingBlock: OJICUG_clean_linker_0, # of connection points: 2
#     Edge 73, Type (0, 0), BuildingBlock: OJICUG_clean_linker_0, # of connection points: 2
#     Edge 74, Type (0, 0), BuildingBlock: OJICUG_clean_linker_0, # of connection points: 2
#     Edge 75, Type (0, 0), BuildingBlock: OJICUG_clean_linker_0, # of connection points: 2
#     Edge 76, Type (0, 0), BuildingBlock: OJICUG_clean_linker_0, # of connection points: 2
#     Edge 77, Type (0, 0), BuildingBlock: OJICUG_clean_linker_0, # of connection points: 2
#     Edge 78, Type (0, 0), BuildingBlock: OJICUG_clean_linker_0, # of connection points: 2
#     Edge 79, Type (0, 0), BuildingBlock: OJICUG_clean_linker_0, # of connection points: 2
#     Edge 80, Type (0, 0), BuildingBlock: OJICUG_clean_linker_0, # of connection points: 2
#     Edge 81, Type (0, 0), BuildingBlock: OJICUG_clean_linker_0, # of connection points: 2
#     Edge 82, Type (0, 0), BuildingBlock: OJICUG_clean_linker_0, # of connection points: 2
#     Edge 83, Type (0, 0), BuildingBlock: OJICUG_clean_linker_0, # of connection points: 2
#     Edge 84, Type (0, 0), BuildingBlock: OJICUG_clean_linker_0, # of connection points: 2
#     Edge 85, Type (0, 0), BuildingBlock: OJICUG_clean_linker_0, # of connection points: 2
#     Edge 86, Type (0, 0), BuildingBlock: OJICUG_clean_linker_0, # of connection points: 2
#     Edge 87, Type (0, 0), BuildingBlock: OJICUG_clean_linker_0, # of connection points: 2
#     Edge 88, Type (0, 0), BuildingBlock: OJICUG_clean_linker_0, # of connection points: 2
#     Edge 89, Type (0, 0), BuildingBlock: OJICUG_clean_linker_0, # of connection points: 2
#     Edge 90, Type (0, 0), BuildingBlock: OJICUG_clean_linker_0, # of connection points: 2
#     Edge 91, Type (0, 0), BuildingBlock: OJICUG_clean_linker_0, # of connection points: 2
#     Edge 92, Type (0, 0), BuildingBlock: OJICUG_clean_linker_0, # of connection points: 2
#     Edge 93, Type (0, 0), BuildingBlock: OJICUG_clean_linker_0, # of connection points: 2
#     Edge 94, Type (0, 0), BuildingBlock: OJICUG_clean_linker_0, # of connection points: 2
#     Edge 95, Type (0, 0), BuildingBlock: OJICUG_clean_linker_0, # of connection points: 2
#     Edge 96, Type (0, 0), BuildingBlock: OJICUG_clean_linker_0, # of connection points: 2
#     Edge 97, Type (0, 0), BuildingBlock: OJICUG_clean_linker_0, # of connection points: 2
#     Edge 98, Type (0, 0), BuildingBlock: OJICUG_clean_linker_0, # of connection points: 2
#     Edge 99, Type (0, 0), BuildingBlock: OJICUG_clean_linker_0, # of connection points: 2
#     Edge 100, Type (0, 0), BuildingBlock: OJICUG_clean_linker_0, # of connection points: 2
#     Edge 101, Type (0, 0), BuildingBlock: OJICUG_clean_linker_0, # of connection points: 2
#     Edge 102, Type (0, 0), BuildingBlock: OJICUG_clean_linker_0, # of connection points: 2
#     Edge 103, Type (0, 0), BuildingBlock: OJICUG_clean_linker_0, # of connection points: 2
#     Edge 104, Type (0, 0), BuildingBlock: OJICUG_clean_linker_0, # of connection points: 2
#     Edge 105, Type (0, 0), BuildingBlock: OJICUG_clean_linker_0, # of connection points: 2
#     Edge 106, Type (0, 0), BuildingBlock: OJICUG_clean_linker_0, # of connection points: 2
#     Edge 107, Type (0, 0), BuildingBlock: OJICUG_clean_linker_0, # of connection points: 2
#     Edge 108, Type (0, 0), BuildingBlock: OJICUG_clean_linker_0, # of connection points: 2
#     Edge 109, Type (0, 0), BuildingBlock: OJICUG_clean_linker_0, # of connection points: 2
#     Edge 110, Type (0, 0), BuildingBlock: OJICUG_clean_linker_0, # of connection points: 2
#     Edge 111, Type (0, 0), BuildingBlock: OJICUG_clean_linker_0, # of connection points: 2
#     Edge 112, Type (0, 0), BuildingBlock: OJICUG_clean_linker_0, # of connection points: 2
#     Edge 113, Type (0, 0), BuildingBlock: OJICUG_clean_linker_0, # of connection points: 2
#     Edge 114, Type (0, 0), BuildingBlock: OJICUG_clean_linker_0, # of connection points: 2
#     Edge 115, Type (0, 0), BuildingBlock: OJICUG_clean_linker_0, # of connection points: 2
#     Edge 116, Type (0, 0), BuildingBlock: OJICUG_clean_linker_0, # of connection points: 2
#     Edge 117, Type (0, 0), BuildingBlock: OJICUG_clean_linker_0, # of connection points: 2
#     Edge 118, Type (0, 0), BuildingBlock: OJICUG_clean_linker_0, # of connection points: 2
#     Edge 119, Type (0, 0), BuildingBlock: OJICUG_clean_linker_0, # of connection points: 2
#     Edge 120, Type (0, 0), BuildingBlock: OJICUG_clean_linker_0, # of connection points: 2
#     Edge 121, Type (0, 0), BuildingBlock: OJICUG_clean_linker_0, # of connection points: 2
#     Edge 122, Type (0, 0), BuildingBlock: OJICUG_clean_linker_0, # of connection points: 2
#     Edge 123, Type (0, 0), BuildingBlock: OJICUG_clean_linker_0, # of connection points: 2
#     Edge 124, Type (0, 0), BuildingBlock: OJICUG_clean_linker_0, # of connection points: 2
#     Edge 125, Type (0, 0), BuildingBlock: OJICUG_clean_linker_0, # of connection points: 2
#     Edge 126, Type (0, 0), BuildingBlock: OJICUG_clean_linker_0, # of connection points: 2
#     Edge 127, Type (0, 0), BuildingBlock: OJICUG_clean_linker_0, # of connection points: 2
# Relax obj value: 0.527
# Max RMSD: 0.261
# Mean RMSD: 0.261
data_MOF--net-vda--node1-VOLQOD_clean_sbu_1--edge1-OJICUG_clean_linker_0
_symmetry_space_group_name_H-M    P1
_symmetry_Int_Tables_number       1
_symmetry_cell_setting            triclinic
loop_
_symmetry_equiv_pos_as_xyz
'x, y, z'
_cell_length_a     35.508412
_cell_length_b     27.831173
_cell_length_c     51.691512
_cell_angle_alpha  89.954508
_cell_angle_beta   89.99758
_cell_angle_gamma 90.039281
loop_
_atom_site_label
_atom_site_type_symbol
_atom_site_fract_x
_atom_site_fract_y
_atom_site_fract_z
_atom_type_partial_charge
O0 O 0.34787 0.99986 0.96701 0.0
Zn1 Zn 0.37465 0.0621 0.96223 0.0
O2 O 0.36101 0.11166 -0.0138 0.0
Zn3 Zn 0.33706 0.16243 0.96583 0.0
Zn4 Zn 0.33031 0.0754 0.00979 0.0
Zn5 Zn 0.40317 0.13276 0.0064 0.0
O6 O 0.35987 0.2286 0.97828 0.0
O7 O 0.41171 0.20179 -0.00166 0.0
O8 O 0.3752 0.08344 0.92623 0.0
O9 O 0.35527 0.15863 0.9274 0.0
O10 O 0.27849 0.14681 0.96903 0.0
O11 O 0.2776 0.08469 -0.00303 0.0
O12 O 0.3344 0.10019 0.0465 0.0
O13 O 0.42689 0.04478 0.96838 0.0
O14 O 0.39193 0.13087 0.04451 0.0
O15 O 0.44904 0.09181 -0.00043 0.0
C16 C 0.35309 0.97995 -0.01116 0.0
C17 C 0.39204 0.23607 -0.01089 0.0
C18 C 0.26069 0.11387 0.98178 0.0
C19 C 0.36989 0.12343 0.91509 0.0
C20 C 0.36277 0.11945 0.05744 0.0
C21 C 0.45321 0.05796 0.98325 0.0
O22 O 0.34943 1.00514 0.0093 0.0
O23 O 0.9468 0.28221 0.96677 0.0
Zn24 Zn 0.91794 0.22165 0.96195 0.0
O25 O 0.93145 0.171 0.9853 0.0
Zn26 Zn 0.9548 0.1209 0.96418 0.0
Zn27 Zn 0.96287 0.20591 0.00907 0.0
Zn28 Zn 0.88925 0.14995 0.00555 0.0
O29 O 0.93164 0.05478 0.97617 0.0
O30 O 0.88004 0.08123 -0.00329 0.0
O31 O 0.91603 0.20142 0.92578 0.0
O32 O 0.93666 0.12652 0.92575 0.0
O33 O 1.01351 0.1353 0.96731 0.0
O34 O 1.0154 0.19623 -0.0041 0.0
O35 O 0.95886 0.18006 0.04569 0.0
O36 O 0.86651 0.24117 0.96932 0.0
O37 O 0.90122 0.14974 0.04364 0.0
O38 O 0.84383 0.19281 -0.00024 0.0
C39 C 0.94108 0.30188 -0.01143 0.0
C40 C 0.89956 0.04716 -0.01292 0.0
C41 C 0.03182 0.16736 0.98031 0.0
C42 C 0.9218 0.16222 0.91397 0.0
C43 C 0.93055 0.16045 0.05657 0.0
C44 C 0.84019 0.22818 0.98426 0.0
O45 O 0.94427 0.27636 0.00898 0.0
O46 O 0.35213 0.27664 0.25801 0.0
Zn47 Zn 0.37578 0.21254 0.26356 0.0
O48 O 0.36152 0.16425 0.23889 0.0
Zn49 Zn 0.33668 0.11277 0.25825 0.0
Zn50 Zn 0.33145 0.2013 0.21526 0.0
Zn51 Zn 0.40349 0.14324 0.21854 0.0
O52 O 0.36017 0.04682 0.24603 0.0
O53 O 0.41208 0.07423 0.22631 0.0
O54 O 0.37103 0.19183 0.29964 0.0
O55 O 0.35193 0.11619 0.29718 0.0
O56 O 0.27829 0.12833 0.2541 0.0
O57 O 0.27846 0.19271 0.22769 0.0
O58 O 0.33516 0.17657 0.17856 0.0
O59 O 0.4293 0.22649 0.25935 0.0
O60 O 0.39253 0.14556 0.18038 0.0
O61 O 0.44936 0.18358 0.22583 0.0
C62 C 0.35654 0.29626 0.23602 0.0
C63 C 0.39249 0.03971 0.23536 0.0
C64 C 0.26101 0.16248 0.24198 0.0
C65 C 0.36414 0.15179 0.31034 0.0
C66 C 0.36336 0.15719 0.16752 0.0
C67 C 0.45488 0.21453 0.24357 0.0
O68 O 0.35153 0.27119 0.21565 0.0
O69 O 0.94854 0.99547 0.25583 0.0
Zn70 Zn 0.91957 0.05581 0.26097 0.0
O71 O 0.93255 0.10654 0.23751 0.0
Zn72 Zn 0.95604 0.15676 0.25845 0.0
Zn73 Zn 0.96375 0.07177 0.21355 0.0
Zn74 Zn 0.89007 0.12734 0.21751 0.0
O75 O 0.93261 0.22277 0.2466 0.0
O76 O 0.88074 0.19602 0.22646 0.0
O77 O 0.91841 0.07589 0.29721 0.0
O78 O 0.93841 0.15111 0.29696 0.0
O79 O 1.01473 0.14241 0.25512 0.0
O80 O 1.01638 0.0815 0.22651 0.0
O81 O 0.95938 0.09781 0.17702 0.0
O82 O 0.86804 0.03604 0.25402 0.0
O83 O 0.90166 0.12773 0.17933 0.0
O84 O 0.84489 0.08407 0.22362 0.0
C85 C 0.94249 0.97571 0.23408 0.0
C86 C 0.90032 0.23021 0.23595 0.0
C87 C 0.03294 0.11036 0.24206 0.0
C88 C 0.92414 0.11522 0.30892 0.0
C89 C 0.93093 0.11729 0.16627 0.0
C90 C 0.84151 0.04879 0.23921 0.0
O91 O 0.94522 1.00123 0.21365 0.0
O92 O 0.66662 0.01956 0.9656 0.0
Zn93 Zn 0.66037 0.94948 0.95904 0.0
O94 O 0.68207 0.91014 -0.01386 0.0
Zn95 Zn 0.71482 0.86145 0.9706 0.0
Zn96 Zn 0.70468 0.9526 0.01141 0.0
Zn97 Zn 0.64186 0.87978 0.00415 0.0
O98 O 0.6908 0.79217 0.97597 0.0
O99 O 0.63454 0.8139 -0.00868 0.0
O100 O 0.68076 0.93443 0.92425 0.0
O101 O 0.71479 0.86886 0.93144 0.0
O102 O 0.76997 0.88035 0.98128 0.0
O103 O 0.76037 0.9453 0.00618 0.0
O104 O 0.68922 0.93647 0.04826 0.0
O105 O 0.60449 0.94311 0.95856 0.0
O106 O 0.64889 0.87671 0.04227 0.0
O107 O 0.59603 0.91881 -0.00101 0.0
C108 C 0.67468 0.04313 0.98589 0.0
C109 C 0.65651 0.7822 0.98214 0.0
C110 C 0.78245 0.91634 -0.00559 0.0
C111 C 0.70125 0.90027 0.91611 0.0
C112 C 0.66709 0.90445 0.0572 0.0
C113 C 0.5841 0.93934 0.97866 0.0
O114 O 0.68817 0.02225 0.00579 0.0
O115 O 0.12881 0.76224 0.96635 0.0
Zn116 Zn 0.13334 0.83257 0.95984 0.0
O117 O 0.1114 0.87052 -0.01256 0.0
Zn118 Zn 0.07807 0.9191 0.97241 0.0
Zn119 Zn 0.08934 0.82712 0.01249 0.0
Zn120 Zn 0.1517 0.90072 0.0055 0.0
O121 O 0.10244 0.98827 0.97719 0.0
O122 O 0.15873 0.96684 -0.00733 0.0
O123 O 0.11159 0.84728 0.92528 0.0
O124 O 0.07651 0.91152 0.93334 0.0
O125 O 0.02326 0.90037 0.98389 0.0
O126 O 0.03351 0.83432 0.00785 0.0
O127 O 0.10522 0.84241 0.04936 0.0
O128 O 0.18905 0.84109 0.95874 0.0
O129 O 0.14494 0.903 0.04379 0.0
O130 O 0.19748 0.86156 -0.00026 0.0
C131 C 0.12048 0.73784 -0.01367 0.0
C132 C 0.13673 0.99837 0.9833 0.0
C133 C 1.01112 0.86381 -0.00326 0.0
C134 C 0.09003 0.8808 0.91763 0.0
C135 C 0.12706 0.8745 0.05853 0.0
C136 C 0.20941 0.84271 0.97895 0.0
O137 O 0.10617 0.75778 0.00623 0.0
O138 O 0.65248 0.77228 0.75581 0.0
Zn139 Zn 0.65295 0.84263 0.76245 0.0
O140 O 0.67982 0.87701 0.73565 0.0
Zn141 Zn 0.71297 0.92461 0.75163 0.0
Zn142 Zn 0.70268 0.83136 0.71217 0.0
Zn143 Zn 0.64205 0.90824 0.71564 0.0
O144 O 0.68902 0.99409 0.7473 0.0
O145 O 0.63492 0.97456 0.72795 0.0
O146 O 0.67419 0.85417 0.79755 0.0
O147 O 0.7134 0.91499 0.79052 0.0
O148 O 0.76804 0.90619 0.74068 0.0
O149 O 0.75857 0.83867 0.71776 0.0
O150 O 0.68866 0.84494 0.67466 0.0
O151 O 0.59822 0.85881 0.76178 0.0
O152 O 0.65249 0.90955 0.67793 0.0
O153 O 0.59499 0.87052 0.71956 0.0
C154 C 0.66418 0.74553 0.73762 0.0
C155 C 0.65589 1.0052 0.7391 0.0
C156 C 0.7806 0.86905 0.72857 0.0
C157 C 0.69762 0.88513 0.80576 0.0
C158 C 0.66939 0.87844 0.66428 0.0
C159 C 0.58016 0.85648 0.74058 0.0
O160 O 0.68407 0.76265 0.71921 0.0
O161 O 0.12147 0.02288 0.75863 0.0
Zn162 Zn 0.1291 0.95301 0.7652 0.0
O163 O 0.10928 0.91301 0.73767 0.0
Zn164 Zn 0.07638 0.86377 0.7526 0.0
Zn165 Zn 0.08714 0.95499 0.712 0.0
Zn166 Zn 0.1506 0.88354 0.72042 0.0
O167 O 0.1011 0.79491 0.74738 0.0
O168 O 0.15801 0.81773 0.73358 0.0
O169 O 0.10819 0.93671 0.79975 0.0
O170 O 0.07524 0.87055 0.79176 0.0
O171 O 0.02139 0.88223 0.7413 0.0
O172 O 0.03131 0.94751 0.71667 0.0
O173 O 0.10336 0.93837 0.67537 0.0
O174 O 0.18509 0.94919 0.76646 0.0
O175 O 0.14484 0.88018 0.68207 0.0
O176 O 0.19581 0.92364 0.72651 0.0
C177 C 0.11511 0.04607 0.73792 0.0
C178 C 0.13582 0.78559 0.74215 0.0
C179 C 1.00906 0.91828 0.72814 0.0
C180 C 0.08797 0.90188 0.80746 0.0
C181 C 0.12627 0.90695 0.66681 0.0
C182 C 0.20647 0.94522 0.74686 0.0
O183 O 0.1035 0.02473 0.7176 0.0
O184 O 0.34552 0.49536 0.46766 0.0
Zn185 Zn 0.3749 0.55547 0.46269 0.0
O186 O 0.36151 0.60617 0.48598 0.0
Zn187 Zn 0.33813 0.65622 0.4649 0.0
Zn188 Zn 0.33003 0.57155 0.50989 0.0
Zn189 Zn 0.40388 0.62712 0.50606 0.0
O190 O 0.36123 0.72226 0.47693 0.0
O191 O 0.41332 0.69572 0.49689 0.0
O192 O 0.3772 0.57592 0.42646 0.0
O193 O 0.35641 0.65077 0.42654 0.0
O194 O 0.2794 0.64172 0.46792 0.0
O195 O 0.27747 0.58108 0.49673 0.0
O196 O 0.33417 0.59787 0.54639 0.0
O197 O 0.42607 0.53515 0.47033 0.0
O198 O 0.3918 0.62817 0.54411 0.0
O199 O 0.44907 0.58353 0.50059 0.0
C200 C 0.35154 0.47563 0.48945 0.0
C201 C 0.39356 0.72983 0.48751 0.0
C202 C 0.26106 0.60977 0.48102 0.0
C203 C 0.37143 0.61525 0.41473 0.0
C204 C 0.36248 0.61774 0.55713 0.0
C205 C 0.45244 0.54783 0.48531 0.0
O206 O 0.34857 0.5011 0.50986 0.0
O207 O 0.94547 0.77844 0.46769 0.0
Zn208 Zn 0.91883 0.71626 0.46262 0.0
O209 O 0.93252 0.66628 0.48635 0.0
Zn210 Zn 0.95641 0.61582 0.4657 0.0
Zn211 Zn 0.96322 0.70228 0.51007 0.0
Zn212 Zn 0.89048 0.64494 0.50661 0.0
O213 O 0.93333 0.54945 0.4777 0.0
O214 O 0.88207 0.57597 0.49852 0.0
O215 O 0.91929 0.69606 0.42652 0.0
O216 O 0.9389 0.62074 0.4271 0.0
O217 O 1.01499 0.63105 0.46921 0.0
O218 O 1.01593 0.69303 0.4972 0.0
O219 O 0.95921 0.67718 0.54674 0.0
O220 O 0.86632 0.73286 0.46845 0.0
O221 O 0.90156 0.64692 0.54476 0.0
O222 O 0.84448 0.68544 0.49964 0.0
C223 C 0.94019 0.79802 0.48957 0.0
C224 C 0.90141 0.54184 0.48885 0.0
C225 C 0.03281 0.66385 0.48202 0.0
C226 C 0.92491 0.6566 0.41496 0.0
C227 C 0.93075 0.65814 0.5577 0.0
C228 C 0.84006 0.71919 0.48327 0.0
O229 O 0.94394 0.77255 0.50994 0.0
O230 O 0.34439 0.7848 0.75643 0.0
Zn231 Zn 0.37367 0.72458 0.76121 0.0
O232 O 0.36055 0.67426 0.73762 0.0
Zn233 Zn 0.33697 0.62386 0.75839 0.0
Zn234 Zn 0.32934 0.70922 0.71374 0.0
Zn235 Zn 0.40307 0.65362 0.71766 0.0
O236 O 0.36004 0.558 0.74611 0.0
O237 O 0.41239 0.58494 0.72658 0.0
O238 O 0.37584 0.70349 0.79733 0.0
O239 O 0.35528 0.62852 0.79677 0.0
O240 O 0.27829 0.63865 0.75534 0.0
O241 O 0.2767 0.69948 0.72665 0.0
O242 O 0.33378 0.68344 0.67715 0.0
O243 O 0.42496 0.74498 0.75395 0.0
O244 O 0.39137 0.65312 0.67953 0.0
O245 O 0.44824 0.69705 0.7236 0.0
C246 C 0.35027 0.80497 0.73474 0.0
C247 C 0.39251 0.55065 0.73569 0.0
C248 C 0.26011 0.67073 0.74225 0.0
C249 C 0.37026 0.66383 0.80879 0.0
C250 C 0.36216 0.66372 0.66645 0.0
C251 C 0.4515 0.73245 0.7391 0.0
O252 O 0.34766 0.7798 0.71419 0.0
O253 O 0.93564 0.50587 0.75953 0.0
Zn254 Zn 0.91487 0.57164 0.7648 0.0
O255 O 0.93067 0.61848 0.73967 0.0
Zn256 Zn 0.95614 0.6701 0.75862 0.0
Zn257 Zn 0.96049 0.58023 0.71642 0.0
Zn258 Zn 0.88934 0.64009 0.71885 0.0
O259 O 0.93295 0.73628 0.74639 0.0
O260 O 0.88147 0.70928 0.72607 0.0
O261 O 0.9215 0.59217 0.80075 0.0
O262 O 0.94171 0.66732 0.79769 0.0
O263 O 1.01438 0.65411 0.75422 0.0
O264 O 1.01357 0.58853 0.72874 0.0
O265 O 0.95728 0.60388 0.67944 0.0
O266 O 0.86066 0.56116 0.76129 0.0
O267 O 0.90042 0.63638 0.68077 0.0
O268 O 0.84274 0.60161 0.72631 0.0
C269 C 0.93314 0.48595 0.7375 0.0
C270 C 0.90095 0.74364 0.73533 0.0
C271 C 0.03132 0.61923 0.74253 0.0
C272 C 0.92942 0.63212 0.81116 0.0
C273 C 0.92944 0.62357 0.66811 0.0
C274 C 0.83583 0.57287 0.74488 0.0
O275 O 0.93998 0.51053 0.71717 0.0
O276 O 0.655 0.5098 0.46871 0.0
Zn277 Zn 0.65475 0.43932 0.4623 0.0
O278 O 0.68164 0.40496 0.48912 0.0
Zn279 Zn 0.71484 0.35768 0.47296 0.0
Zn280 Zn 0.70451 0.45049 0.51263 0.0
Zn281 Zn 0.64405 0.37366 0.50937 0.0
O282 O 0.69076 0.28821 0.47711 0.0
O283 O 0.63684 0.30748 0.49678 0.0
O284 O 0.67531 0.42732 0.42698 0.0
O285 O 0.71504 0.36722 0.43407 0.0
O286 O 0.76999 0.37656 0.48367 0.0
O287 O 0.76027 0.44379 0.50677 0.0
O288 O 0.69099 0.43676 0.55022 0.0
O289 O 0.59996 0.42355 0.46338 0.0
O290 O 0.65488 0.37201 0.54717 0.0
O291 O 0.59686 0.41134 0.50561 0.0
C292 C 0.66658 0.53635 0.48704 0.0
C293 C 0.65764 0.27703 0.48535 0.0
C294 C 0.7824 0.4138 0.4958 0.0
C295 C 0.69887 0.39657 0.41877 0.0
C296 C 0.67198 0.40314 0.56073 0.0
C297 C 0.58193 0.42539 0.48461 0.0
O298 O 0.68592 0.519 0.50564 0.0
O299 O 0.12817 0.26043 0.46613 0.0
Zn300 Zn 0.13304 0.33064 0.45952 0.0
O301 O 0.11014 0.36882 0.48657 0.0
Zn302 Zn 0.07724 0.41726 0.471 0.0
Zn303 Zn 0.0876 0.32579 0.5116 0.0
Zn304 Zn 0.14988 0.39937 0.5049 0.0
O305 O 0.10165 0.48651 0.47565 0.0
O306 O 0.1576 0.46493 0.49162 0.0
O307 O 0.11231 0.34494 0.42466 0.0
O308 O 0.07666 0.40902 0.43198 0.0
O309 O 0.02215 0.39863 0.48195 0.0
O310 O 0.03187 0.33294 0.50631 0.0
O311 O 0.10268 0.34188 0.54855 0.0
O312 O 0.18879 0.33918 0.45927 0.0
O313 O 0.14181 0.40308 0.5429 0.0
O314 O 0.19583 0.36015 0.50032 0.0
C315 C 0.11929 0.2362 0.48605 0.0
C316 C 0.13591 0.49644 0.48192 0.0
C317 C 1.00973 0.36225 0.49483 0.0
C318 C 0.09079 0.37816 0.4166 0.0
C319 C 0.12393 0.37467 0.55767 0.0
C320 C 0.20852 0.34127 0.47976 0.0
O321 O 0.10454 0.25632 0.50576 0.0
O322 O 0.6739 0.25575 0.25951 0.0
Zn323 Zn 0.66415 0.32534 0.26587 0.0
O324 O 0.68286 0.36661 0.23846 0.0
Zn325 Zn 0.71561 0.41592 0.25349 0.0
Zn326 Zn 0.70511 0.32517 0.21263 0.0
Zn327 Zn 0.64131 0.39603 0.22137 0.0
O328 O 0.69149 0.48489 0.24746 0.0
O329 O 0.63439 0.4622 0.23401 0.0
O330 O 0.6839 0.34273 0.30054 0.0
O331 O 0.71564 0.40998 0.29278 0.0
O332 O 0.77072 0.39681 0.24271 0.0
O333 O 0.76086 0.33237 0.2175 0.0
O334 O 0.68901 0.34201 0.17605 0.0
O335 O 0.60815 0.32629 0.26678 0.0
O336 O 0.64639 0.39871 0.18294 0.0
O337 O 0.59597 0.35656 0.22793 0.0
C338 C 0.67883 0.2333 0.23839 0.0
C339 C 0.65682 0.4944 0.24217 0.0
C340 C 0.78307 0.36105 0.22936 0.0
C341 C 0.70309 0.37834 0.3084 0.0
C342 C 0.66538 0.37267 0.1676 0.0
C343 C 0.58602 0.33288 0.24779 0.0
O344 O 0.68876 0.25546 0.21791 0.0
O345 O 0.13151 0.5139 0.25748 0.0
Zn346 Zn 0.13525 0.44358 0.26402 0.0
O347 O 0.11253 0.40606 0.23658 0.0
Zn348 Zn 0.0792 0.35755 0.25176 0.0
Zn349 Zn 0.09026 0.44976 0.21176 0.0
Zn350 Zn 0.15249 0.37568 0.21833 0.0
O351 O 0.10314 0.28825 0.24676 0.0
O352 O 0.15928 0.30938 0.2309 0.0
O353 O 0.11345 0.42941 0.29858 0.0
O354 O 0.07814 0.36514 0.29082 0.0
O355 O 0.02432 0.3765 0.24062 0.0
O356 O 0.0344 0.44264 0.21669 0.0
O357 O 0.10579 0.43458 0.1748 0.0
O358 O 0.19086 0.43398 0.26501 0.0
O359 O 0.14528 0.37374 0.18018 0.0
O360 O 0.19857 0.41442 0.22384 0.0
C361 C 0.12259 0.53863 0.23775 0.0
C362 C 0.13725 0.27794 0.24034 0.0
C363 C 1.01209 0.41312 0.22789 0.0
C364 C 0.09186 0.39602 0.30638 0.0
C365 C 0.12745 0.40239 0.16554 0.0
C366 C 0.21094 0.4327 0.24466 0.0
O367 O 0.10738 0.51906 0.21804 0.0
O368 O 0.84796 0.99566 0.46764 0.0
Zn369 Zn 0.87472 0.05754 0.46176 0.0
O370 O 0.86134 0.10753 0.48559 0.0
Zn371 Zn 0.83698 0.15789 0.46526 0.0
Zn372 Zn 0.83084 0.07209 0.50974 0.0
Zn373 Zn 0.90377 0.12889 0.50546 0.0
O374 O 0.86014 0.2241 0.47711 0.0
O375 O 0.91256 0.19767 0.49664 0.0
O376 O 0.87277 0.07742 0.42541 0.0
O377 O 0.85328 0.15291 0.42652 0.0
O378 O 0.77853 0.1426 0.46906 0.0
O379 O 0.77787 0.08064 0.49708 0.0
O380 O 0.83512 0.09852 0.54614 0.0
O381 O 0.92722 0.04021 0.46746 0.0
O382 O 0.89269 0.12893 0.5437 0.0
O383 O 0.9492 0.08666 0.49897 0.0
C384 C 0.85397 0.9764 0.48954 0.0
C385 C 0.89258 0.23177 0.48748 0.0
C386 C 0.76082 0.10974 0.48191 0.0
C387 C 0.86633 0.11695 0.41404 0.0
C388 C 0.8635 0.11829 0.55681 0.0
C389 C 0.95341 0.05283 0.48261 0.0
O390 O 0.85044 1.00201 0.50986 0.0
O391 O 0.44531 0.27937 0.46708 0.0
Zn392 Zn 0.4179 0.21763 0.4623 0.0
O393 O 0.43154 0.16769 0.48609 0.0
Zn394 Zn 0.45532 0.11709 0.46554 0.0
Zn395 Zn 0.46254 0.20341 0.50971 0.0
Zn396 Zn 0.38933 0.14667 0.50632 0.0
O397 O 0.43238 0.05098 0.47788 0.0
O398 O 0.38071 0.07767 0.49819 0.0
O399 O 0.41694 0.19657 0.42626 0.0
O400 O 0.4371 0.12146 0.42711 0.0
O401 O 0.51398 0.13202 0.46882 0.0
O402 O 0.51521 0.19387 0.49687 0.0
O403 O 0.45833 0.17848 0.54643 0.0
O404 O 0.36587 0.23563 0.46876 0.0
O405 O 0.40064 0.1483 0.54444 0.0
O406 O 0.34352 0.18801 0.49966 0.0
C407 C 0.43989 0.29903 0.48894 0.0
C408 C 0.4003 0.04346 0.48882 0.0
C409 C 0.53196 0.16467 0.48163 0.0
C410 C 0.42237 0.1568 0.41494 0.0
C411 C 0.42985 0.15944 0.55739 0.0
C412 C 0.3395 0.22239 0.4836 0.0
O413 O 0.44356 0.27364 0.50934 0.0
O414 O 0.84624 0.28343 0.75631 0.0
Zn415 Zn 0.87319 0.22159 0.76181 0.0
O416 O 0.8602 0.17227 0.73748 0.0
Zn417 Zn 0.83545 0.12141 0.75722 0.0
Zn418 Zn 0.83015 0.20839 0.7134 0.0
Zn419 Zn 0.90287 0.15141 0.71777 0.0
O420 O 0.85875 0.05549 0.74504 0.0
O421 O 0.91168 0.08252 0.72637 0.0
O422 O 0.87074 0.20069 0.798 0.0
O423 O 0.85129 0.12518 0.79605 0.0
O424 O 0.77707 0.13727 0.75333 0.0
O425 O 0.77706 0.19976 0.72567 0.0
O426 O 0.83483 0.1828 0.67686 0.0
O427 O 0.92573 0.23944 0.7565 0.0
O428 O 0.89217 0.15183 0.67947 0.0
O429 O 0.94806 0.1939 0.72472 0.0
C430 C 0.85226 0.30357 0.73463 0.0
C431 C 0.89149 0.04816 0.73505 0.0
C432 C 0.75968 0.17054 0.74059 0.0
C433 C 0.86412 0.16078 0.80894 0.0
C434 C 0.8632 0.16293 0.66626 0.0
C435 C 0.95207 0.22736 0.74134 0.0
O436 O 0.84946 0.2786 0.71403 0.0
O437 O 0.43939 1.0041 0.7586 0.0
Zn438 Zn 0.41567 0.06823 0.76388 0.0
O439 O 0.43018 0.11628 0.73907 0.0
Zn440 Zn 0.45502 0.16795 0.75825 0.0
Zn441 Zn 0.46049 0.07917 0.71565 0.0
Zn442 Zn 0.38828 0.13706 0.71853 0.0
O443 O 0.43143 0.23369 0.7459 0.0
O444 O 0.37962 0.20614 0.72612 0.0
O445 O 0.4203 0.08933 0.7999 0.0
O446 O 0.43994 0.16476 0.7972 0.0
O447 O 0.51345 0.15276 0.75412 0.0
O448 O 0.51345 0.08789 0.72812 0.0
O449 O 0.45691 0.10352 0.67883 0.0
O450 O 0.36219 0.05402 0.7595 0.0
O451 O 0.39952 0.13451 0.68039 0.0
O452 O 0.34239 0.0965 0.72574 0.0
C453 C 0.43512 0.98444 0.73663 0.0
C454 C 0.39916 0.24071 0.73515 0.0
C455 C 0.53082 0.11844 0.74224 0.0
C456 C 0.42751 0.12937 0.81046 0.0
C457 C 0.42876 0.12277 0.66764 0.0
C458 C 0.33674 0.06564 0.74353 0.0
O459 O 0.44039 1.0094 0.71623 0.0
O460 O 0.16014 1.01326 0.46707 0.0
Zn461 Zn 0.15766 0.94283 0.46058 0.0
O462 O 0.18174 0.90631 0.48789 0.0
Zn463 Zn 0.21501 0.85829 0.47231 0.0
Zn464 Zn 0.20424 0.95062 0.51227 0.0
Zn465 Zn 0.14255 0.87564 0.50694 0.0
O466 O 0.19102 0.78893 0.47706 0.0
O467 O 0.13568 0.80935 0.49441 0.0
O468 O 0.17904 0.92946 0.42573 0.0
O469 O 0.21571 0.86642 0.43326 0.0
O470 O 0.27 0.87728 0.4833 0.0
O471 O 0.26002 0.94365 0.50702 0.0
O472 O 0.18945 0.93606 0.54948 0.0
O473 O 0.1023 0.93091 0.46023 0.0
O474 O 0.1509 0.87394 0.54507 0.0
O475 O 0.09606 0.91395 0.50186 0.0
C476 C 0.17005 0.03853 0.48636 0.0
C477 C 0.15727 0.77829 0.4842 0.0
C478 C 0.28228 0.91405 0.49588 0.0
C479 C 0.20118 0.89684 0.41777 0.0
C480 C 0.16861 0.90348 0.55927 0.0
C481 C 0.08288 0.93072 0.48089 0.0
O482 O 0.18671 0.01964 0.50571 0.0
O483 O 0.62135 0.7565 0.46539 0.0
Zn484 Zn 0.63035 0.82623 0.45897 0.0
O485 O 0.61038 0.86697 0.48609 0.0
Zn486 Zn 0.57768 0.91601 0.47079 0.0
Zn487 Zn 0.58797 0.82536 0.51183 0.0
Zn488 Zn 0.6513 0.89704 0.50346 0.0
O489 O 0.60186 0.98516 0.47624 0.0
O490 O 0.65866 0.96278 0.49035 0.0
O491 O 0.61068 0.84287 0.42417 0.0
O492 O 0.57758 0.90911 0.43163 0.0
O493 O 0.52258 0.89715 0.48157 0.0
O494 O 0.53227 0.8326 0.50678 0.0
O495 O 0.60386 0.84227 0.54845 0.0
O496 O 0.6864 0.82871 0.45857 0.0
O497 O 0.6452 0.90062 0.54166 0.0
O498 O 0.69684 0.85773 0.4979 0.0
C499 C 0.61523 0.73376 0.48629 0.0
C500 C 0.63646 0.99477 0.48171 0.0
C501 C 0.51014 0.86135 0.4949 0.0
C502 C 0.59074 0.8777 0.41617 0.0
C503 C 0.62669 0.87385 0.55695 0.0
C504 C 0.70772 0.83484 0.47804 0.0
O505 O 0.60423 0.75561 0.50659 0.0
O506 O 0.16456 0.76076 0.25799 0.0
Zn507 Zn 0.16034 0.83101 0.26463 0.0
O508 O 0.18313 0.86895 0.23735 0.0
Zn509 Zn 0.21611 0.91746 0.25284 0.0
Zn510 Zn 0.2057 0.82571 0.21247 0.0
Zn511 Zn 0.14322 0.89914 0.2189 0.0
O512 O 0.19185 0.98663 0.2478 0.0
O513 O 0.13592 0.96508 0.23174 0.0
O514 O 0.1814 0.84525 0.29943 0.0
O515 O 0.21653 0.9098 0.29197 0.0
O516 O 0.27122 0.89872 0.24193 0.0
O517 O 0.26145 0.83293 0.21769 0.0
O518 O 0.19069 0.84137 0.17542 0.0
O519 O 0.10467 0.84011 0.26524 0.0
O520 O 0.15096 0.90194 0.18074 0.0
O521 O 0.0972 0.85998 0.22407 0.0
C522 C 0.1735 0.73638 0.23816 0.0
C523 C 0.15769 0.99663 0.24134 0.0
C524 C 0.28362 0.86233 0.22909 0.0
C525 C 0.20263 0.87884 0.30743 0.0
C526 C 0.16915 0.87365 0.16612 0.0
C527 C 0.08472 0.84153 0.24484 0.0
O528 O 0.18861 0.75631 0.2185 0.0
O529 O 0.63784 1.00971 0.25636 0.0
Zn530 Zn 0.63866 0.93928 0.26281 0.0
O531 O 0.61263 0.90432 0.23584 0.0
Zn532 Zn 0.57929 0.85661 0.2516 0.0
Zn533 Zn 0.59008 0.9495 0.21194 0.0
Zn534 Zn 0.65083 0.87319 0.21627 0.0
O535 O 0.60321 0.7871 0.24722 0.0
O536 O 0.65797 0.80708 0.22887 0.0
O537 O 0.61753 0.92674 0.29783 0.0
O538 O 0.57872 0.86565 0.29052 0.0
O539 O 0.52429 0.87549 0.24061 0.0
O540 O 0.53419 0.94251 0.21732 0.0
O541 O 0.60458 0.93552 0.17457 0.0
O542 O 0.69371 0.92489 0.26233 0.0
O543 O 0.64101 0.87128 0.17848 0.0
O544 O 0.69769 0.91116 0.2203 0.0
C545 C 0.62682 0.03598 0.23775 0.0
C546 C 0.63668 0.77624 0.2396 0.0
C547 C 0.51196 0.91254 0.22828 0.0
C548 C 0.5943 0.89538 0.30589 0.0
C549 C 0.62417 0.90201 0.16452 0.0
C550 C 0.71211 0.92619 0.24125 0.0
O551 O 0.60827 0.01826 0.21888 0.0
O552 O 0.84787 0.49901 0.96667 0.0
Zn553 Zn 0.87561 0.56067 0.96231 0.0
O554 O 0.86191 0.61003 -0.01362 0.0
Zn555 Zn 0.83812 0.66112 0.96622 0.0
Zn556 Zn 0.83075 0.57407 0.00981 0.0
Zn557 Zn 0.90423 0.63057 0.00662 0.0
O558 O 0.86101 0.72683 0.97904 0.0
O559 O 0.9132 0.6996 -0.00146 0.0
O560 O 0.87759 0.58312 0.92644 0.0
O561 O 0.85672 0.65793 0.92792 0.0
O562 O 0.77943 0.64614 0.96921 0.0
O563 O 0.77808 0.58386 -0.003 0.0
O564 O 0.83501 0.59856 0.04661 0.0
O565 O 0.9273 0.54166 0.96915 0.0
O566 O 0.89259 0.62913 0.04465 0.0
O567 O 0.94984 0.58853 0.00024 0.0
C568 C 0.85323 0.47889 -0.01155 0.0
C569 C 0.89337 0.73405 -0.01036 0.0
C570 C 0.76138 0.6133 0.98186 0.0
C571 C 0.87211 0.62335 0.91555 0.0
C572 C 0.86339 0.61782 0.05756 0.0
C573 C 0.95363 0.55414 0.98417 0.0
O574 O 0.84955 0.50385 0.00899 0.0
O575 O 0.4431 0.78088 0.9667 0.0
Zn576 Zn 0.41783 0.7179 0.96102 0.0
O577 O 0.43168 0.66869 0.98531 0.0
Zn578 Zn 0.45638 0.61806 0.96534 0.0
Zn579 Zn 0.46186 0.70499 0.00926 0.0
Zn580 Zn 0.3895 0.64717 0.00543 0.0
O581 O 0.43321 0.5518 0.97722 0.0
O582 O 0.38105 0.57822 -0.00297 0.0
O583 O 0.42123 0.69796 0.92475 0.0
O584 O 0.44075 0.62249 0.92646 0.0
O585 O 0.51474 0.63367 0.96936 0.0
O586 O 0.51491 0.69656 -0.00327 0.0
O587 O 0.45777 0.67935 0.04589 0.0
O588 O 0.36482 0.73346 0.96604 0.0
O589 O 0.40043 0.6482 0.04371 0.0
O590 O 0.34376 0.68837 -0.00153 0.0
C591 C 0.43773 0.80031 -0.01139 0.0
C592 C 0.4009 0.54412 -0.01221 0.0
C593 C 0.5322 0.66708 0.98192 0.0
C594 C 0.4281 0.65832 0.91366 0.0
C595 C 0.42953 0.65954 0.05674 0.0
C596 C 0.3389 0.72095 0.98145 0.0
O597 O 0.44189 0.77497 0.009 0.0
O598 O 0.85046 0.77827 0.2574 0.0
Zn599 Zn 0.87614 0.71548 0.26291 0.0
O600 O 0.86238 0.66629 0.23867 0.0
Zn601 Zn 0.83805 0.615 0.25843 0.0
Zn602 Zn 0.83172 0.70235 0.21497 0.0
Zn603 Zn 0.90461 0.64566 0.21845 0.0
O604 O 0.86158 0.54927 0.24613 0.0
O605 O 0.91362 0.57674 0.22654 0.0
O606 O 0.87335 0.6946 0.29904 0.0
O607 O 0.85405 0.619 0.29723 0.0
O608 O 0.77951 0.62979 0.25458 0.0
O609 O 0.77887 0.69337 0.22764 0.0
O610 O 0.83557 0.67696 0.1784 0.0
O611 O 0.92898 0.73196 0.25772 0.0
O612 O 0.89325 0.64692 0.18032 0.0
O613 O 0.95016 0.6874 0.2252 0.0
C614 C 0.8557 0.79769 0.23544 0.0
C615 C 0.89395 0.5422 0.23554 0.0
C616 C 0.76182 0.66334 0.24228 0.0
C617 C 0.86683 0.65473 0.31005 0.0
C618 C 0.86392 0.65776 0.16744 0.0
C619 C 0.95489 0.72 0.2422 0.0
O620 O 0.85139 0.77232 0.2151 0.0
O621 O 0.44548 0.49675 0.25657 0.0
Zn622 Zn 0.41932 0.55906 0.26226 0.0
O623 O 0.43267 0.60855 0.23802 0.0
Zn624 Zn 0.45732 0.6592 0.25801 0.0
Zn625 Zn 0.46281 0.57254 0.21394 0.0
Zn626 Zn 0.39025 0.62979 0.21811 0.0
O627 O 0.43399 0.72535 0.24614 0.0
O628 O 0.38164 0.69868 0.22663 0.0
O629 O 0.42226 0.57913 0.29855 0.0
O630 O 0.44164 0.65468 0.29688 0.0
O631 O 0.51571 0.64369 0.25398 0.0
O632 O 0.51589 0.58123 0.22634 0.0
O633 O 0.45835 0.59822 0.17735 0.0
O634 O 0.36652 0.54241 0.25714 0.0
O635 O 0.40095 0.62902 0.17978 0.0
O636 O 0.34476 0.58802 0.22516 0.0
C637 C 0.43975 0.47708 0.23476 0.0
C638 C 0.40154 0.73287 0.23576 0.0
C639 C 0.53318 0.61053 0.24125 0.0
C640 C 0.42896 0.61881 0.30966 0.0
C641 C 0.42998 0.61791 0.16663 0.0
C642 C 0.34034 0.5549 0.24194 0.0
O643 O 0.44323 0.50237 0.21429 0.0
O644 O 0.16076 0.51507 0.96666 0.0
Zn645 Zn 0.15778 0.4448 0.95996 0.0
O646 O 0.18231 0.40778 -0.01319 0.0
Zn647 Zn 0.21526 0.35988 0.97083 0.0
Zn648 Zn 0.20504 0.45153 0.01136 0.0
Zn649 Zn 0.14335 0.37676 0.0058 0.0
O650 O 0.19103 0.29051 0.97522 0.0
O651 O 0.13581 0.31109 -0.00732 0.0
O652 O 0.17847 0.43183 0.92494 0.0
O653 O 0.21552 0.36888 0.93184 0.0
O654 O 0.2704 0.37841 0.98174 0.0
O655 O 0.26078 0.44427 0.00595 0.0
O656 O 0.19032 0.4362 0.04851 0.0
O657 O 0.10235 0.43329 0.96011 0.0
O658 O 0.15243 0.37352 0.04371 0.0
O659 O 0.09696 0.41551 0.00168 0.0
C660 C 0.17102 0.54007 -0.01404 0.0
C661 C 0.15719 0.28005 0.98226 0.0
C662 C 0.28288 0.41482 -0.00546 0.0
C663 C 0.20062 0.39951 0.91665 0.0
C664 C 0.16988 0.40299 0.05809 0.0
C665 C 0.08336 0.43272 0.98095 0.0
O666 O 0.18777 0.52083 0.00518 0.0
O667 O 0.63472 0.26676 0.96789 0.0
Zn668 Zn 0.6365 0.33727 0.96154 0.0
O669 O 0.61117 0.37274 -0.01135 0.0
Zn670 Zn 0.57796 0.42056 0.97291 0.0
Zn671 Zn 0.58858 0.32791 0.01274 0.0
Zn672 Zn 0.64969 0.40362 0.00816 0.0
O673 O 0.60228 0.48993 0.9772 0.0
O674 O 0.65707 0.46966 -0.00459 0.0
O675 O 0.61563 0.35038 0.92645 0.0
O676 O 0.57722 0.41167 0.93396 0.0
O677 O 0.5229 0.40175 0.98392 0.0
O678 O 0.53277 0.33489 0.00733 0.0
O679 O 0.60303 0.34211 0.0501 0.0
O680 O 0.69169 0.35058 0.96196 0.0
O681 O 0.64013 0.40576 0.04609 0.0
O682 O 0.69637 0.36533 0.0039 0.0
C683 C 0.62409 0.24087 -0.01322 0.0
C684 C 0.63588 0.50058 0.98468 0.0
C685 C 0.51056 0.36474 -0.0037 0.0
C686 C 0.59262 0.38202 0.91847 0.0
C687 C 0.62292 0.37541 0.0601 0.0
C688 C 0.7104 0.34979 0.98293 0.0
O689 O 0.60644 0.25907 0.00591 0.0
O690 O 0.1563 0.26919 0.75692 0.0
Zn691 Zn 0.15479 0.33953 0.76361 0.0
O692 O 0.17926 0.37576 0.73637 0.0
Zn693 Zn 0.21264 0.42376 0.75189 0.0
Zn694 Zn 0.20176 0.3312 0.71212 0.0
Zn695 Zn 0.14014 0.40653 0.71739 0.0
O696 O 0.18886 0.49319 0.74712 0.0
O697 O 0.13351 0.47298 0.72969 0.0
O698 O 0.17671 0.35219 0.79832 0.0
O699 O 0.21344 0.41534 0.79092 0.0
O700 O 0.26757 0.40495 0.74078 0.0
O701 O 0.25763 0.33835 0.71723 0.0
O702 O 0.18681 0.34558 0.67494 0.0
O703 O 0.09956 0.35245 0.7642 0.0
O704 O 0.14844 0.40784 0.67935 0.0
O705 O 0.0936 0.36832 0.72247 0.0
C706 C 0.16659 0.24362 0.73785 0.0
C707 C 0.15521 0.504 0.73985 0.0
C708 C 0.27988 0.36817 0.72824 0.0
C709 C 0.199 0.38465 0.80631 0.0
C710 C 0.16597 0.37814 0.66516 0.0
C711 C 0.08027 0.35192 0.74349 0.0
O712 O 0.18407 0.26216 0.71872 0.0
O713 O 0.6099 0.52789 0.75932 0.0
Zn714 Zn 0.62449 0.45957 0.76584 0.0
O715 O 0.60941 0.41574 0.73855 0.0
Zn716 Zn 0.577 0.36576 0.75314 0.0
Zn717 Zn 0.58759 0.4558 0.71203 0.0
Zn718 Zn 0.65246 0.38734 0.72278 0.0
O719 O 0.60164 0.29723 0.74676 0.0
O720 O 0.65952 0.32116 0.73565 0.0
O721 O 0.60593 0.43997 0.80048 0.0
O722 O 0.57667 0.37102 0.79245 0.0
O723 O 0.52198 0.38449 0.74213 0.0
O724 O 0.53178 0.44862 0.71661 0.0
O725 O 0.60454 0.43763 0.67591 0.0
O726 O 0.68024 0.46519 0.76674 0.0
O727 O 0.64933 0.38432 0.68417 0.0
O728 O 0.69676 0.42805 0.73043 0.0
C729 C 0.60953 0.54913 0.73755 0.0
C730 C 0.63677 0.28837 0.74267 0.0
C731 C 0.50959 0.41999 0.72857 0.0
C732 C 0.58811 0.40308 0.8082 0.0
C733 C 0.62969 0.40831 0.66821 0.0
C734 C 0.70428 0.45568 0.74927 0.0
O735 O 0.6041 0.52557 0.71675 0.0
C736 C 0.40632 0.86941 0.96619 0.0
C737 C 0.41784 0.84765 -0.01053 0.0
H738 H 0.37621 0.9262 0.94776 0.0
C739 C 0.40642 0.86893 0.01293 0.0
H740 H 0.41399 0.85407 0.94768 0.0
C741 C 0.38436 0.91103 0.01297 0.0
C742 C 0.37277 0.93246 -0.01044 0.0
H743 H 0.41429 0.85291 0.03124 0.0
H744 H 0.37666 0.92699 0.03133 0.0
C745 C 0.38404 0.91077 0.96624 0.0
C746 C 0.88607 0.41107 0.96582 0.0
C747 C 0.87375 0.43201 -0.0109 0.0
H748 H 0.91763 0.35554 0.94743 0.0
C749 C 0.88515 0.41063 0.01255 0.0
H750 H 0.87843 0.42657 0.94732 0.0
C751 C 0.90803 0.3693 0.01261 0.0
C752 C 0.92046 0.3487 -0.01077 0.0
H753 H 0.87666 0.42603 0.03088 0.0
H754 H 0.91571 0.3533 0.03097 0.0
C755 C 0.90916 0.37041 0.96588 0.0
C756 C 0.40821 0.40793 0.21095 0.0
C757 C 0.42018 0.42949 0.23422 0.0
H758 H 0.37837 0.34932 0.19306 0.0
C759 C 0.40953 0.40768 0.25768 0.0
H760 H 0.4154 0.42398 0.19251 0.0
C761 C 0.3876 0.36602 0.258 0.0
C762 C 0.3758 0.34403 0.23487 0.0
H763 H 0.41765 0.4232 0.27606 0.0
H764 H 0.38046 0.3506 0.27661 0.0
C765 C 0.38648 0.3655 0.21127 0.0
C766 C 0.88691 0.86598 0.21077 0.0
C767 C 0.87601 0.84473 0.23438 0.0
H768 H 0.91678 0.92356 0.19195 0.0
C769 C 0.88856 0.86611 0.25749 0.0
H770 H 0.87823 0.85025 0.19256 0.0
C771 C 0.91137 0.90703 0.25713 0.0
C772 C 0.92215 0.92865 0.23365 0.0
H773 H 0.88132 0.85076 0.2761 0.0
H774 H 0.92003 0.92217 0.27549 0.0
C775 C 0.9095 0.90764 0.21041 0.0
C776 C 0.65448 0.11716 0.01018 0.0
C777 C 0.66405 0.09461 -0.01326 0.0
H778 H 0.63319 0.1808 0.02861 0.0
C779 C 0.65948 0.12021 0.96352 0.0
H780 H 0.65714 0.09809 0.02836 0.0
C781 C 0.64581 0.16719 0.96365 0.0
C782 C 0.63574 0.1897 -0.01302 0.0
H783 H 0.66636 0.10381 0.94511 0.0
H784 H 0.643 0.18589 0.94536 0.0
C785 C 0.64016 0.16418 0.01029 0.0
C786 C 0.1373 0.66196 0.96338 0.0
C787 C 0.13149 0.68647 -0.0132 0.0
H788 H 0.15466 0.59711 0.94481 0.0
C789 C 0.13995 0.66286 0.01017 0.0
H790 H 0.13131 0.67917 0.94503 0.0
C791 C 0.15425 0.61583 0.01002 0.0
C792 C 0.15978 0.59136 -0.01348 0.0
H793 H 0.13631 0.68107 0.02851 0.0
H794 H 0.16025 0.59834 0.02829 0.0
C795 C 0.15097 0.61498 0.96325 0.0
C796 C 0.65181 0.66726 0.71442 0.0
C797 C 0.65116 0.69477 0.73723 0.0
H798 H 0.63816 0.59999 0.69635 0.0
C799 C 0.63493 0.67464 0.75959 0.0
H800 H 0.66362 0.6819 0.69677 0.0
C801 C 0.62022 0.62813 0.75932 0.0
C802 C 0.62093 0.60044 0.73661 0.0
H803 H 0.63366 0.6948 0.77749 0.0
H804 H 0.60858 0.61366 0.77706 0.0
C805 C 0.63665 0.62064 0.71408 0.0
C806 C 0.15116 0.16696 0.71407 0.0
C807 C 0.15463 0.19252 0.73743 0.0
H808 H 0.1348 0.10089 0.69573 0.0
C809 C 0.14332 0.17011 0.76055 0.0
H810 H 0.1591 0.18346 0.69589 0.0
C811 C 0.12936 0.12325 0.76045 0.0
C812 C 0.12583 0.09757 0.73719 0.0
H813 H 0.14535 0.18879 0.77888 0.0
H814 H 0.12153 0.10698 0.77872 0.0
C815 C 0.13664 0.12001 0.71393 0.0
C816 C 0.40755 0.36749 0.46651 0.0
C817 C 0.41938 0.34591 0.48976 0.0
H818 H 0.37625 0.42338 0.44819 0.0
C819 C 0.40746 0.36662 0.51324 0.0
H820 H 0.41564 0.35256 0.44798 0.0
C821 C 0.38448 0.40787 0.51337 0.0
C822 C 0.37245 0.42902 0.49 0.0
H823 H 0.41557 0.35073 0.53154 0.0
H824 H 0.37634 0.42333 0.53175 0.0
C825 C 0.38435 0.40803 0.46663 0.0
C826 C 0.88654 0.90834 0.46705 0.0
C827 C 0.87444 0.92947 0.49034 0.0
H828 H 0.91746 0.85237 0.44859 0.0
C829 C 0.88575 0.90798 0.51378 0.0
H830 H 0.87902 0.92391 0.44855 0.0
C831 C 0.90818 0.86619 0.51381 0.0
C832 C 0.92026 0.84532 0.49039 0.0
H833 H 0.87744 0.92354 0.53211 0.0
H834 H 0.91572 0.84999 0.53215 0.0
C835 C 0.9092 0.86733 0.46708 0.0
C836 C 0.40495 0.91572 0.71177 0.0
C837 C 0.41545 0.93697 0.73544 0.0
H838 H 0.37576 0.85784 0.69279 0.0
C839 C 0.40304 0.91516 0.75849 0.0
H840 H 0.41354 0.93177 0.69361 0.0
C841 C 0.38068 0.87385 0.75801 0.0
C842 C 0.37022 0.85229 0.73446 0.0
H843 H 0.41002 0.93046 0.77714 0.0
H844 H 0.37209 0.85838 0.77631 0.0
C845 C 0.38279 0.87371 0.71129 0.0
C846 C 0.88413 0.37323 0.71144 0.0
C847 C 0.87139 0.35144 0.73447 0.0
H848 H 0.91406 0.43243 0.69413 0.0
C849 C 0.88076 0.37338 0.75812 0.0
H850 H 0.87794 0.35708 0.69287 0.0
C851 C 0.90215 0.41546 0.75887 0.0
C852 C 0.91469 0.43773 0.73597 0.0
H853 H 0.872 0.35768 0.77634 0.0
H854 H 0.90828 0.43097 0.77761 0.0
C855 C 0.90535 0.41606 0.71218 0.0
C856 C 0.65237 0.61378 0.51038 0.0
C857 C 0.65432 0.58731 0.48725 0.0
H858 H 0.6373 0.68058 0.52842 0.0
C859 C 0.64147 0.60873 0.46424 0.0
H860 H 0.66154 0.59804 0.52849 0.0
C861 C 0.62761 0.65563 0.46422 0.0
C862 C 0.62567 0.68224 0.48725 0.0
H863 H 0.6423 0.58931 0.4461 0.0
H864 H 0.61864 0.67123 0.44602 0.0
C865 C 0.6379 0.66071 0.51042 0.0
C866 C 0.15283 0.11441 0.51017 0.0
C867 C 0.15855 0.08974 0.48674 0.0
H868 H 0.13474 0.1798 0.52843 0.0
C869 C 0.1498 0.1131 0.46339 0.0
H870 H 0.15878 0.09711 0.52849 0.0
C871 C 0.13608 0.16006 0.46336 0.0
C872 C 0.13015 0.18479 0.4867 0.0
H873 H 0.15363 0.09507 0.44501 0.0
H874 H 0.13019 0.1771 0.44495 0.0
C875 C 0.13847 0.16141 0.51015 0.0
C876 C 0.65575 0.16037 0.21431 0.0
C877 C 0.66809 0.18183 0.23746 0.0
H878 H 0.63195 0.09778 0.19626 0.0
C879 C 0.66602 0.1552 0.26051 0.0
H880 H 0.65644 0.18023 0.19629 0.0
C881 C 0.65194 0.10838 0.26051 0.0
C882 C 0.63906 0.08699 0.23751 0.0
H883 H 0.67505 0.1707 0.2787 0.0
H884 H 0.65103 0.08897 0.27868 0.0
C885 C 0.64113 0.11348 0.21436 0.0
C886 C 0.15527 0.66121 0.21402 0.0
C887 C 0.16233 0.68503 0.23753 0.0
H888 H 0.13602 0.59651 0.19556 0.0
C889 C 0.15499 0.66076 0.26084 0.0
H890 H 0.1601 0.67921 0.19573 0.0
C891 C 0.1412 0.61382 0.26074 0.0
C892 C 0.13383 0.58996 0.23733 0.0
H893 H 0.15988 0.67811 0.2793 0.0
H894 H 0.13633 0.59614 0.27913 0.0
C895 C 0.14088 0.61419 0.21392 0.0
C896 C 0.40611 0.08971 0.87808 0.0
C897 C 0.3856 0.12853 0.88843 0.0
H898 H 0.43653 0.06081 0.8462 0.0
C899 C 0.38288 0.17101 0.87366 0.0
H900 H 0.40977 0.05657 0.88879 0.0
C901 C 0.39896 0.1734 0.84868 0.0
C902 C 0.41807 0.13344 0.8383 0.0
H903 H 0.36784 0.20184 0.88115 0.0
H904 H 0.39489 0.20541 0.83709 0.0
C905 C 0.42206 0.09221 0.8536 0.0
C906 C 0.88979 0.11482 0.84769 0.0
C907 C 0.87479 0.15702 0.83666 0.0
H908 H 0.91732 0.08298 0.8808 0.0
C909 C 0.87525 0.19939 0.85132 0.0
H910 H 0.89036 0.08174 0.83668 0.0
C911 C 0.89117 0.2004 0.87584 0.0
C912 C 0.90711 0.15893 0.88696 0.0
H913 H 0.864 0.23257 0.84352 0.0
H914 H 0.89097 0.23439 0.88604 0.0
C915 C 0.90584 0.11575 0.87272 0.0
C916 C 0.38754 0.19182 0.37763 0.0
C917 C 0.4068 0.15218 0.38822 0.0
H918 H 0.35782 0.22159 0.34567 0.0
C919 C 0.40823 0.10935 0.37369 0.0
H920 H 0.38498 0.22534 0.38812 0.0
C921 C 0.39198 0.10728 0.34875 0.0
C922 C 0.374 0.14792 0.33815 0.0
H923 H 0.42227 0.0779 0.38137 0.0
H924 H 0.39497 0.07483 0.33738 0.0
C925 C 0.3714 0.18963 0.3532 0.0
C926 C 0.90624 0.1621 0.34961 0.0
C927 C 0.91014 0.11838 0.33609 0.0
H928 H 0.88844 0.19662 0.38499 0.0
C929 C 0.89711 0.07604 0.348 0.0
H930 H 0.91545 0.19549 0.34089 0.0
C931 C 0.88109 0.07688 0.3725 0.0
C932 C 0.87772 0.11997 0.38638 0.0
H933 H 0.89915 0.04157 0.33839 0.0
H934 H 0.87193 0.04308 0.38082 0.0
C935 C 0.89013 0.16289 0.37462 0.0
C936 C 0.64038 0.94624 0.12414 0.0
C937 C 0.63258 0.90253 0.13663 0.0
H938 H 0.65911 0.98083 0.08937 0.0
C939 C 0.63756 0.85926 0.1231 0.0
H940 H 0.63748 0.98002 0.13435 0.0
C941 C 0.64946 0.85976 0.09732 0.0
C942 C 0.65795 0.90342 0.08499 0.0
H943 H 0.63218 0.8251 0.13246 0.0
H944 H 0.65227 0.82602 0.08706 0.0
C945 C 0.65346 0.94665 0.09864 0.0
C946 C 0.15426 0.91796 0.12529 0.0
C947 C 0.16063 0.8743 0.13822 0.0
H948 H 0.13896 0.95224 0.08958 0.0
C949 C 0.15463 0.8309 0.12501 0.0
H950 H 0.15829 0.95186 0.1352 0.0
C951 C 0.14195 0.83112 0.09941 0.0
C952 C 0.13612 0.87474 0.08635 0.0
H953 H 0.15867 0.79678 0.13472 0.0
H954 H 0.13763 0.79715 0.08962 0.0
C955 C 0.14285 0.91818 0.09938 0.0
C956 C 0.64507 0.91933 0.59663 0.0
C957 C 0.63606 0.87549 0.58469 0.0
H958 H 0.66258 0.95463 0.63151 0.0
C959 C 0.64004 0.83257 0.59872 0.0
H960 H 0.64264 0.95283 0.58607 0.0
C961 C 0.65304 0.83344 0.62423 0.0
C962 C 0.66127 0.87734 0.63636 0.0
H963 H 0.63397 0.79825 0.58976 0.0
H964 H 0.65549 0.79989 0.63475 0.0
C965 C 0.65687 0.92032 0.62243 0.0
C966 C 0.15479 0.86086 0.60082 0.0
C967 C 0.16012 0.904 0.58718 0.0
H968 H 0.14024 0.82802 0.63708 0.0
C969 C 0.15304 0.94787 0.59967 0.0
H970 H 0.15965 0.82659 0.59147 0.0
C971 C 0.14031 0.94859 0.62525 0.0
C972 C 0.13552 0.90551 0.63903 0.0
H973 H 0.15626 0.98158 0.5894 0.0
H974 H 0.13513 0.9829 0.63448 0.0
C975 C 0.14333 0.86165 0.62672 0.0
C976 C 0.41813 0.57937 0.35191 0.0
C977 C 0.41844 0.62201 0.33743 0.0
H978 H 0.40256 0.54369 0.38653 0.0
C979 C 0.40334 0.66393 0.34866 0.0
H980 H 0.42944 0.54638 0.34395 0.0
C981 C 0.38733 0.66246 0.37369 0.0
C982 C 0.3862 0.61903 0.38775 0.0
H983 H 0.40264 0.6972 0.3378 0.0
H984 H 0.37574 0.69503 0.38191 0.0
C985 C 0.40226 0.57784 0.37646 0.0
C986 C 0.90832 0.60974 0.37394 0.0
C987 C 0.91054 0.65319 0.38788 0.0
H988 H 0.8919 0.57541 0.33818 0.0
C989 C 0.89545 0.69493 0.3765 0.0
H990 H 0.91912 0.57677 0.38224 0.0
C991 C 0.87924 0.69384 0.35209 0.0
C992 C 0.87778 0.65117 0.33773 0.0
H993 H 0.896 0.72917 0.38645 0.0
H994 H 0.86855 0.72722 0.34416 0.0
C995 C 0.89209 0.60875 0.34896 0.0
C996 C 0.38528 0.61603 0.8498 0.0
C997 C 0.38545 0.65937 0.83564 0.0
H998 H 0.39953 0.58092 0.88579 0.0
C999 C 0.40309 0.69974 0.84673 0.0
H1000 H 0.37247 0.58405 0.84174 0.0
C1001 C 0.41905 0.69761 0.87123 0.0
C1002 C 0.4179 0.65518 0.88585 0.0
H1003 H 0.40453 0.73374 0.83656 0.0
H1004 H 0.43148 0.73004 0.8791 0.0
C1005 C 0.40138 0.61396 0.87479 0.0
C1006 C 0.89966 0.67483 0.84922 0.0
C1007 C 0.9208 0.63637 0.83908 0.0
H1008 H 0.86683 0.70107 0.88141 0.0
C1009 C 0.92702 0.59594 0.85463 0.0
H1010 H 0.89382 0.7061 0.8374 0.0
C1011 C 0.91116 0.59256 0.87913 0.0
C1012 C 0.88841 0.62962 0.88914 0.0
H1013 H 0.94301 0.56566 0.84734 0.0
H1014 H 0.91648 0.56005 0.89006 0.0
C1015 C 0.88364 0.67155 0.87417 0.0
C1016 C 0.64214 0.44898 0.62616 0.0
C1017 C 0.63974 0.40631 0.64057 0.0
H1018 H 0.65601 0.48145 0.58977 0.0
C1019 C 0.65014 0.36268 0.62897 0.0
H1020 H 0.63493 0.48318 0.63485 0.0
C1021 C 0.66154 0.36158 0.60305 0.0
C1022 C 0.66425 0.40436 0.58872 0.0
H1023 H 0.64889 0.3294 0.63982 0.0
H1024 H 0.66822 0.32737 0.59418 0.0
C1025 C 0.65483 0.4481 0.60058 0.0
C1026 C 0.15093 0.4207 0.62388 0.0
C1027 C 0.15732 0.37757 0.6373 0.0
H1028 H 0.13551 0.45353 0.58783 0.0
C1029 C 0.15111 0.33364 0.62466 0.0
H1030 H 0.1551 0.455 0.63335 0.0
C1031 C 0.13831 0.33282 0.5991 0.0
C1032 C 0.13254 0.37592 0.58553 0.0
H1033 H 0.15513 0.29991 0.63477 0.0
H1034 H 0.13395 0.29847 0.58971 0.0
C1035 C 0.13934 0.41986 0.59803 0.0
C1036 C 0.65219 0.33083 0.126 0.0
C1037 C 0.65591 0.37395 0.13985 0.0
H1038 H 0.63708 0.29753 0.09008 0.0
C1039 C 0.64686 0.41756 0.12766 0.0
H1040 H 0.65833 0.29667 0.13514 0.0
C1041 C 0.63531 0.41811 0.10177 0.0
C1042 C 0.63114 0.37491 0.08804 0.0
H1043 H 0.6491 0.45121 0.13807 0.0
H1044 H 0.62956 0.45224 0.09249 0.0
C1045 C 0.63938 0.33125 0.10043 0.0
C1046 C 0.14179 0.44576 0.12454 0.0
C1047 C 0.13645 0.40216 0.13772 0.0
H1048 H 0.1583 0.48008 0.08917 0.0
C1049 C 0.14387 0.35874 0.12487 0.0
H1050 H 0.13696 0.47974 0.13421 0.0
C1051 C 0.15556 0.35892 0.09904 0.0
C1052 C 0.16143 0.40256 0.08598 0.0
H1053 H 0.14038 0.32469 0.13477 0.0
H1054 H 0.16013 0.32499 0.08927 0.0
C1055 C 0.15469 0.44598 0.099 0.0
C1056 C 0.52991 0.97918 0.95735 0.0
C1057 C 0.54939 0.96744 0.98003 0.0
H1058 H 0.48405 0.01797 0.94073 0.0
C1059 C 0.53811 0.98752 0.00376 0.0
H1060 H 0.53842 0.96457 0.93883 0.0
C1061 C 0.5078 0.01921 0.00474 0.0
C1062 C 0.48806 0.03032 0.9821 0.0
H1063 H 0.55326 0.97971 0.02146 0.0
H1064 H 0.49919 0.0339 0.02323 0.0
C1065 C 0.49919 1.01002 0.95843 0.0
C1066 C 0.78493 0.26439 0.00661 0.0
C1067 C 0.80599 0.25747 0.98402 0.0
H1068 H 0.73857 0.30089 0.02417 0.0
C1069 C 0.79646 0.28282 0.96142 0.0
H1070 H 0.79219 0.24578 0.02434 0.0
C1071 C 0.76608 0.31424 0.96128 0.0
C1072 C 0.74509 0.32145 0.98386 0.0
H1073 H 0.8125 0.27825 0.94375 0.0
H1074 H 0.75885 0.33264 0.94347 0.0
C1075 C 0.75484 0.29656 0.0066 0.0
C1076 C 0.5079 0.25591 0.22179 0.0
C1077 C 0.48999 0.24169 0.24467 0.0
H1078 H 0.55182 0.29792 0.20489 0.0
C1079 C 0.50295 0.25894 0.26859 0.0
H1080 H 0.49783 0.24368 0.20314 0.0
C1081 C 0.53369 0.28984 0.26965 0.0
C1082 C 0.55128 0.30475 0.24676 0.0
H1083 H 0.48916 0.24865 0.28646 0.0
H1084 H 0.54369 0.30209 0.28832 0.0
C1085 C 0.53815 0.28768 0.22281 0.0
C1086 C 0.76799 0.96206 0.2626 0.0
C1087 C 0.74668 0.95485 0.24016 0.0
H1088 H 0.8146 0.99823 0.27985 0.0
C1089 C 0.756 0.97999 0.21741 0.0
H1090 H 0.7611 0.94348 0.28042 0.0
C1091 C 0.78599 1.01236 0.21723 0.0
C1092 C 0.80739 0.01926 0.23967 0.0
H1093 H 0.73948 0.97568 0.19994 0.0
H1094 H 0.7929 0.03113 0.19948 0.0
C1095 C 0.79829 0.99368 0.26229 0.0
C1096 C 0.25519 0.79251 0.00318 0.0
C1097 C 0.24373 0.81363 0.97974 0.0
H1098 H 0.2938 0.74472 0.02193 0.0
C1099 C 0.26257 0.80198 0.95678 0.0
H1100 H 0.24057 0.80018 0.02111 0.0
C1101 C 0.29281 0.77029 0.95731 0.0
C1102 C 0.30417 0.74906 0.98071 0.0
H1103 H 0.25392 0.81735 0.93846 0.0
H1104 H 0.30747 0.76253 0.93941 0.0
C1105 C 0.28503 0.76005 0.00362 0.0
C1106 C 0.52435 0.82049 0.76203 0.0
C1107 C 0.54576 0.82743 0.7396 0.0
H1108 H 0.47791 0.78419 0.77942 0.0
C1109 C 0.53673 0.80168 0.717 0.0
H1110 H 0.53101 0.83952 0.77973 0.0
C1111 C 0.50693 0.769 0.71698 0.0
C1112 C 0.48544 0.76236 0.73941 0.0
H1113 H 0.55331 0.80577 0.69955 0.0
H1114 H 0.50025 0.74977 0.69935 0.0
C1115 C 0.49427 0.78852 0.76187 0.0
C1116 C 0.2836 0.02484 0.72149 0.0
C1117 C 0.30177 0.03804 0.74444 0.0
H1118 H 0.23975 0.98322 0.70425 0.0
C1119 C 0.28922 0.01935 0.76818 0.0
H1120 H 0.29331 0.03817 0.70295 0.0
C1121 C 0.25874 0.98797 0.76898 0.0
C1122 C 0.24092 0.97407 0.746 0.0
H1123 H 0.30315 0.02883 0.78612 0.0
H1124 H 0.24915 0.97457 0.78753 0.0
C1125 C 0.25358 0.99266 0.72223 0.0
C1126 C 0.53825 0.48023 0.5079 0.0
C1127 C 0.54716 0.45362 0.48558 0.0
H1128 H 0.50168 0.53255 0.52508 0.0
C1129 C 0.5253 0.4591 0.46325 0.0
H1130 H 0.55518 0.47723 0.52526 0.0
C1131 C 0.49499 0.49064 0.46318 0.0
C1132 C 0.48636 0.51786 0.48531 0.0
H1133 H 0.53185 0.43933 0.44577 0.0
H1134 H 0.47838 0.49391 0.44568 0.0
C1135 C 0.50819 0.51251 0.50769 0.0
C1136 C 0.79298 0.76469 0.45808 0.0
C1137 C 0.80487 0.74601 0.48196 0.0
H1138 H 0.75266 0.80811 0.43813 0.0
C1139 C 0.78546 0.75793 0.50461 0.0
H1140 H 0.8079 0.75608 0.44038 0.0
C1141 C 0.75473 0.7889 0.50341 0.0
C1142 C 0.74268 0.80736 0.47946 0.0
H1143 H 0.79466 0.74447 0.52324 0.0
H1144 H 0.73985 0.79743 0.52112 0.0
C1145 C 0.76179 0.79472 0.45679 0.0
C1146 C 0.78538 0.53316 0.77001 0.0
C1147 C 0.8002 0.54694 0.74595 0.0
H1148 H 0.74306 0.49275 0.78995 0.0
C1149 C 0.78392 0.52975 0.7231 0.0
H1150 H 0.79794 0.54578 0.78787 0.0
C1151 C 0.7536 0.49815 0.72432 0.0
C1152 C 0.73875 0.48427 0.74839 0.0
H1153 H 0.79546 0.53928 0.70438 0.0
H1154 H 0.74132 0.48537 0.70641 0.0
C1155 C 0.75448 0.50249 0.77122 0.0
C1156 C 0.29418 0.27236 0.45926 0.0
C1157 C 0.30475 0.25038 0.48264 0.0
H1158 H 0.25537 0.31905 0.44009 0.0
C1159 C 0.28437 0.25983 0.50524 0.0
H1160 H 0.30977 0.26572 0.44159 0.0
C1161 C 0.25398 0.29145 0.5045 0.0
C1162 C 0.24325 0.31315 0.48104 0.0
H1163 H 0.29249 0.24382 0.52352 0.0
H1164 H 0.23833 0.29793 0.52214 0.0
C1165 C 0.26342 0.30315 0.45841 0.0
C1166 C 0.26464 0.47271 0.26663 0.0
C1167 C 0.24531 0.46174 0.24377 0.0
H1168 H 0.30991 0.51173 0.28389 0.0
C1169 C 0.25632 0.48352 0.22039 0.0
H1170 H 0.25636 0.45682 0.28491 0.0
C1171 C 0.28616 0.51603 0.21993 0.0
C1172 C 0.30576 0.52642 0.24274 0.0
H1173 H 0.24132 0.47636 0.20256 0.0
H1174 H 0.29453 0.53194 0.20167 0.0
C1175 C 0.29489 0.50445 0.26607 0.0
C1176 C 0.02835 0.96868 0.45889 0.0
C1177 C 0.04836 0.95945 0.4817 0.0
H1178 H 0.98268 1.00637 0.44135 0.0
C1179 C 0.03789 0.98274 0.50474 0.0
H1180 H 0.03618 0.95157 0.44085 0.0
C1181 C 1.008 0.01518 0.50489 0.0
C1182 C 0.98782 0.02397 0.48211 0.0
H1183 H 0.0534 0.97691 0.52252 0.0
H1184 H 1.00011 0.03236 0.52289 0.0
C1185 C 0.9981 1.00036 0.45915 0.0
C1186 C 0.02624 0.31245 0.76542 0.0
C1187 C 0.04611 0.32241 0.74263 0.0
H1188 H 0.98098 0.27363 0.78283 0.0
C1189 C 0.03589 0.29914 0.71952 0.0
H1190 H 0.03388 0.32949 0.78352 0.0
C1191 C 1.00637 0.26613 0.71926 0.0
C1192 C 0.98628 0.25666 0.742 0.0
H1193 H 0.05129 0.30551 0.70175 0.0
H1194 H 0.99866 0.24904 0.70119 0.0
C1195 C 0.99634 0.28016 0.76505 0.0
C1196 C 1.00053 0.77022 0.26626 0.0
C1197 C 0.98949 0.74849 0.24293 0.0
H1198 H 0.0393 0.81746 0.28509 0.0
C1199 C 1.00901 0.75899 0.22008 0.0
H1200 H 0.9856 0.76286 0.28411 0.0
C1201 C 0.03898 0.79132 0.22053 0.0
C1202 C 0.0502 0.81279 0.24392 0.0
H1203 H 1.00051 0.74328 0.20182 0.0
H1204 H 0.05395 0.79854 0.20268 0.0
C1205 C 0.03088 0.80178 0.2668 0.0
C1206 C 1.00865 0.51641 0.00599 0.0
C1207 C 0.98797 0.52521 0.98343 0.0
H1208 H 0.05465 0.47833 0.02304 0.0
C1209 C 0.99785 0.50183 0.96031 0.0
H1210 H 1.00109 0.53347 0.02409 0.0
C1211 C 0.02821 0.47039 0.95967 0.0
C1212 C 0.04877 0.46118 0.98223 0.0
H1213 H 0.98207 0.5079 0.94267 0.0
H1214 H 0.03571 0.45347 0.94151 0.0
C1215 C 0.0387 0.48419 0.00545 0.0
C1216 C 0.39663 0.14265 0.12569 0.0
C1217 C 0.36266 0.14789 0.13933 0.0
H1218 H 0.42321 0.1301 0.08922 0.0
C1219 C 0.32844 0.14348 0.12584 0.0
H1220 H 0.42347 0.14598 0.1355 0.0
C1221 C 0.32829 0.13348 0.09927 0.0
C1222 C 0.36235 0.12877 0.08563 0.0
H1223 H 0.30181 0.14712 0.13587 0.0
H1224 H 0.30155 0.13009 0.08934 0.0
C1225 C 0.39648 0.13368 0.09914 0.0
C1226 C 0.96551 0.13334 0.1246 0.0
C1227 C 0.93142 0.12805 0.13817 0.0
H1228 H 0.99208 0.14867 0.08818 0.0
C1229 C 0.89734 0.13378 0.12471 0.0
H1230 H 0.99223 0.12936 0.13448 0.0
C1231 C 0.89725 0.14406 0.09826 0.0
C1232 C 0.93124 0.14983 0.08468 0.0
H1233 H 0.87058 0.12981 0.13455 0.0
H1234 H 0.87043 0.14796 0.0885 0.0
C1235 C 0.96542 0.14465 0.09815 0.0
C1236 C 0.70277 0.84673 0.84926 0.0
C1237 C 0.70446 0.88824 0.83379 0.0
H1238 H 0.70171 0.818 0.88776 0.0
C1239 C 0.70934 0.93318 0.84561 0.0
H1240 H 0.69918 0.81165 0.84053 0.0
C1241 C 0.70987 0.93687 0.87255 0.0
C1242 C 0.70669 0.89555 0.88802 0.0
H1243 H 0.71058 0.9657 0.83411 0.0
H1244 H 0.71169 0.97216 0.88131 0.0
C1245 C 0.70444 0.8503 0.87619 0.0
C1246 C 0.08323 0.84514 0.87359 0.0
C1247 C 0.0832 0.88588 0.88965 0.0
H1248 H 0.08361 0.81834 0.83472 0.0
C1249 C 0.08035 0.93167 0.87845 0.0
H1250 H 0.08523 0.80941 0.88181 0.0
C1251 C 0.08029 0.93678 0.85156 0.0
C1252 C 0.08201 0.89613 0.83549 0.0
H1253 H 0.08041 0.96363 0.8904 0.0
H1254 H 0.08005 0.97259 0.84332 0.0
C1255 C 0.08211 0.85021 0.8467 0.0
C1256 C 0.32752 0.64682 0.62491 0.0
C1257 C 0.36162 0.65253 0.63841 0.0
H1258 H 0.30094 0.63038 0.58865 0.0
C1259 C 0.39569 0.64648 0.62498 0.0
H1260 H 0.30081 0.65101 0.63477 0.0
C1261 C 0.39577 0.63541 0.59864 0.0
C1262 C 0.36177 0.62915 0.58514 0.0
H1263 H 0.42246 0.65074 0.63478 0.0
H1264 H 0.42259 0.63126 0.58891 0.0
C1265 C 0.32759 0.63473 0.59856 0.0
C1266 C 0.96498 0.64458 0.59969 0.0
C1267 C 0.931 0.64924 0.58594 0.0
H1268 H 0.99121 0.63184 0.63649 0.0
C1269 C 0.89679 0.64501 0.59941 0.0
H1270 H 0.99179 0.64747 0.5898 0.0
C1271 C 0.89647 0.63687 0.62605 0.0
C1272 C 0.93035 0.6318 0.63982 0.0
H1273 H 0.87012 0.64858 0.58941 0.0
H1274 H 0.86957 0.63412 0.63584 0.0
C1275 C 0.96466 0.63539 0.62636 0.0
C1276 C 0.7127 0.34365 0.35232 0.0
C1277 C 0.70815 0.38426 0.33648 0.0
H1278 H 0.71435 0.31601 0.39099 0.0
C1279 C 0.70419 0.42967 0.34793 0.0
H1280 H 0.71582 0.30826 0.34387 0.0
C1281 C 0.70232 0.43393 0.37485 0.0
C1282 C 0.70548 0.39303 0.39068 0.0
H1283 H 0.70036 0.46143 0.33608 0.0
H1284 H 0.69751 0.46903 0.38326 0.0
C1285 C 0.71194 0.34809 0.37922 0.0
C1286 C 0.08324 0.42824 0.37696 0.0
C1287 C 0.08469 0.38268 0.38855 0.0
H1288 H 0.08486 0.46811 0.3415 0.0
C1289 C 0.08421 0.34149 0.37285 0.0
H1290 H 0.08375 0.46051 0.38867 0.0
C1291 C 0.08391 0.3458 0.34593 0.0
C1292 C 0.08519 0.39138 0.33436 0.0
H1293 H 0.08517 0.30595 0.3814 0.0
H1294 H 0.08495 0.31354 0.33423 0.0
C1295 C 0.08404 0.43256 0.35005 0.0
C1296 C 0.82876 0.13499 0.59827 0.0
C1297 C 0.86293 0.1294 0.58484 0.0
H1298 H 0.80198 0.15095 0.63449 0.0
C1299 C 0.89694 0.13528 0.59838 0.0
H1300 H 0.8021 0.13093 0.58833 0.0
C1301 C 0.89688 0.14599 0.62477 0.0
C1302 C 0.86279 0.15206 0.63819 0.0
H1303 H 0.92375 0.1311 0.58863 0.0
H1304 H 0.92363 0.14995 0.63462 0.0
C1305 C 0.8287 0.14674 0.62464 0.0
C1306 C 0.46415 0.14559 0.59933 0.0
C1307 C 0.43015 0.15025 0.58561 0.0
H1308 H 0.49046 0.13232 0.63604 0.0
C1309 C 0.39596 0.14555 0.59907 0.0
H1310 H 0.49093 0.14883 0.58945 0.0
C1311 C 0.39569 0.13688 0.62567 0.0
C1312 C 0.42959 0.13175 0.6394 0.0
H1313 H 0.36927 0.1491 0.5891 0.0
H1314 H 0.3688 0.13374 0.63544 0.0
C1315 C 0.46387 0.1359 0.62595 0.0
C1316 C 0.20991 0.84257 0.35127 0.0
C1317 C 0.20852 0.88368 0.3355 0.0
H1318 H 0.20983 0.81467 0.38993 0.0
C1319 C 0.20877 0.92929 0.34705 0.0
H1320 H 0.20984 0.807 0.34276 0.0
C1321 C 0.20778 0.93363 0.37397 0.0
C1322 C 0.20766 0.89246 0.38973 0.0
H1323 H 0.20749 0.9615 0.33529 0.0
H1324 H 0.20608 0.96914 0.38246 0.0
C1325 C 0.21006 0.84694 0.37819 0.0
C1326 C 0.58778 0.9286 0.37654 0.0
C1327 C 0.58542 0.88308 0.3881 0.0
H1328 H 0.59303 0.96806 0.3411 0.0
C1329 C 0.58209 0.84214 0.37239 0.0
H1330 H 0.5906 0.96062 0.38828 0.0
C1331 C 0.58257 0.84645 0.34548 0.0
C1332 C 0.58753 0.89164 0.33392 0.0
H1333 H 0.58016 0.80666 0.38094 0.0
H1334 H 0.58122 0.81421 0.33378 0.0
C1335 C 0.58938 0.93279 0.34962 0.0
C1336 C 0.82885 0.63234 0.09934 0.0
C1337 C 0.86292 0.62745 0.08573 0.0
H1338 H 0.80235 0.64671 0.13586 0.0
C1339 C 0.89704 0.6327 0.09921 0.0
H1340 H 0.80211 0.6287 0.08943 0.0
C1341 C 0.89718 0.64226 0.1257 0.0
C1342 C 0.8632 0.64774 0.13931 0.0
H1343 H 0.92378 0.62899 0.08932 0.0
H1344 H 0.92402 0.64588 0.13548 0.0
C1345 C 0.82899 0.64291 0.12585 0.0
C1346 C 0.46443 0.63338 0.12487 0.0
C1347 C 0.43036 0.62825 0.13848 0.0
H1348 H 0.49097 0.64827 0.0884 0.0
C1349 C 0.39626 0.63375 0.125 0.0
H1350 H 0.49116 0.62958 0.13476 0.0
C1351 C 0.39615 0.64365 0.0985 0.0
C1352 C 0.43014 0.6493 0.0849 0.0
H1353 H 0.36952 0.62989 0.13488 0.0
H1354 H 0.36933 0.64737 0.08871 0.0
C1355 C 0.46432 0.64434 0.09838 0.0
C1356 C 0.20779 0.35048 0.87665 0.0
C1357 C 0.20656 0.39573 0.88856 0.0
H1358 H 0.20579 0.31158 0.84091 0.0
C1359 C 0.20703 0.43734 0.87315 0.0
H1360 H 0.20724 0.31791 0.88814 0.0
C1361 C 0.2072 0.43374 0.8462 0.0
C1362 C 0.20572 0.38849 0.83431 0.0
H1363 H 0.2062 0.47263 0.88196 0.0
H1364 H 0.2062 0.46631 0.83472 0.0
C1365 C 0.2068 0.34688 0.84971 0.0
C1366 C 0.57932 0.43146 0.87925 0.0
C1367 C 0.58588 0.38625 0.89042 0.0
H1368 H 0.57528 0.47218 0.84419 0.0
C1369 C 0.58909 0.34577 0.87431 0.0
H1370 H 0.57685 0.46324 0.89122 0.0
C1371 C 0.58725 0.35072 0.84742 0.0
C1372 C 0.58322 0.3964 0.83626 0.0
H1373 H 0.59395 0.31046 0.88248 0.0
H1374 H 0.59113 0.31927 0.83538 0.0
C1375 C 0.57854 0.43658 0.85238 0.0
C1376 C 0.17394 0.05436 0.95584 0.0
C1377 C 0.15407 0.0463 0.97904 0.0
H1378 H 0.22364 0.0842 0.9382 0.0
C1379 C 0.16449 0.07305 0.00094 0.0
H1380 H 0.16736 0.03323 0.93883 0.0
C1381 C 0.19692 0.10191 0.00064 0.0
C1382 C 0.21963 0.10495 0.97839 0.0
H1383 H 0.15044 0.06682 0.01925 0.0
H1384 H 0.20661 0.11734 0.0187 0.0
C1385 C 0.2064 0.08354 0.95549 0.0
C1386 C 0.11916 0.22574 0.95443 0.0
C1387 C 0.13938 0.23256 0.97759 0.0
H1388 H 0.0688 0.19776 0.93682 0.0
C1389 C 0.12884 0.20525 -0.0007 0.0
H1390 H 0.12585 0.24731 0.93758 0.0
C1391 C 0.09596 0.17723 -0.00107 0.0
C1392 C 0.07295 0.17556 0.97679 0.0
H1393 H 0.14318 0.21049 0.01758 0.0
H1394 H 0.08626 0.1614 0.0169 0.0
C1395 C 0.08624 0.1974 0.95401 0.0
C1396 C 0.20623 0.19187 0.26802 0.0
C1397 C 0.21991 0.17126 0.24504 0.0
H1398 H 0.16687 0.24156 0.28481 0.0
C1399 C 0.19767 0.17503 0.22261 0.0
H1400 H 0.22312 0.19062 0.28546 0.0
C1401 C 0.16525 0.20384 0.22229 0.0
C1402 C 0.1544 0.22986 0.24436 0.0
H1403 H 0.20773 0.16024 0.2045 0.0
H1404 H 0.15158 0.21068 0.20391 0.0
C1405 C 0.17377 0.22101 0.26766 0.0
C1406 C 0.08725 0.08098 0.26865 0.0
C1407 C 0.07402 0.10192 0.24561 0.0
H1408 H 0.12659 0.03148 0.28565 0.0
C1409 C 0.09699 0.09913 0.22348 0.0
H1410 H 0.06985 0.08153 0.28586 0.0
C1411 C 0.12972 0.07088 0.22343 0.0
C1412 C 0.14015 0.04444 0.24546 0.0
H1413 H 0.08734 0.11427 0.20533 0.0
H1414 H 0.144 0.06476 0.2052 0.0
C1415 C 0.12 0.05238 0.26855 0.0
C1416 C 0.83942 0.95073 0.01533 0.0
C1417 C 0.8226 0.93149 -0.00698 0.0
H1418 H 0.87853 1.00173 0.03078 0.0
C1419 C 0.83937 0.94129 0.96887 0.0
H1420 H 0.827 0.94425 0.03416 0.0
C1421 C 0.86909 0.97477 0.96689 0.0
C1422 C 0.88254 0.99851 -0.01093 0.0
H1423 H 0.82663 0.92775 0.95128 0.0
H1424 H 0.87841 0.98605 0.94788 0.0
C1425 C 0.86902 0.98375 0.01338 0.0
C1426 C 0.95325 0.84041 0.97181 0.0
C1427 C 0.97089 0.84891 -0.0042 0.0
H1428 H 0.9133 0.79695 0.95089 0.0
C1429 C 0.95472 0.82878 0.01812 0.0
H1430 H 0.96546 0.85468 0.9542 0.0
C1431 C 0.92486 0.79613 0.01623 0.0
C1432 C 0.91046 0.78261 -0.00803 0.0
H1433 H 0.96779 0.83428 0.03683 0.0
H1434 H 0.91585 0.77741 0.03355 0.0
C1435 C 0.92328 0.80728 0.96989 0.0
C1436 C 0.86967 0.81538 0.75543 0.0
C1437 C 0.88342 0.79197 0.73323 0.0
H1438 H 0.82603 0.86029 0.77127 0.0
C1439 C 0.86887 0.80559 0.70901 0.0
H1440 H 0.8797 0.8049 0.7744 0.0
C1441 C 0.838 0.83668 0.70723 0.0
C1442 C 0.82109 0.85538 0.72962 0.0
H1443 H 0.87853 0.78779 0.69159 0.0
H1444 H 0.82493 0.84207 0.68851 0.0
C1445 C 0.83877 0.84708 0.75362 0.0
C1446 C 0.92261 0.98551 0.70867 0.0
C1447 C 0.90845 0.99951 0.73291 0.0
H1448 H 0.96531 0.94697 0.68808 0.0
C1449 C 0.9215 0.9753 0.75507 0.0
H1450 H 0.91345 1.00391 0.69128 0.0
C1451 C 0.95142 0.94213 0.7532 0.0
C1452 C 0.96882 0.93315 0.72918 0.0
H1453 H 0.91171 0.98602 0.77405 0.0
H1454 H 0.96378 0.92822 0.77084 0.0
C1455 C 0.95242 0.95282 0.70682 0.0
C1456 C 0.19681 0.59904 0.4994 0.0
C1457 C 0.21999 0.60131 0.47735 0.0
H1458 H 0.14948 0.56526 0.51769 0.0
C1459 C 0.2069 0.57995 0.4544 0.0
H1460 H 0.20635 0.6145 0.51748 0.0
C1461 C 0.17404 0.55149 0.45454 0.0
C1462 C 0.15362 0.54412 0.47758 0.0
H1463 H 0.22447 0.58007 0.43726 0.0
H1464 H 0.16754 0.53028 0.43755 0.0
C1465 C 0.16395 0.57096 0.49948 0.0
C1466 C 0.1201 0.72277 0.45647 0.0
C1467 C 0.13977 0.73052 0.47977 0.0
H1468 H 0.07037 0.69353 0.4386 0.0
C1469 C 0.12904 0.70365 0.50159 0.0
H1470 H 0.12694 0.74397 0.43952 0.0
C1471 C 0.09647 0.67508 0.50112 0.0
C1472 C 0.07393 0.67245 0.47878 0.0
H1473 H 0.14296 0.70962 0.51996 0.0
H1474 H 0.08655 0.65958 0.51911 0.0
C1475 C 0.08747 0.6939 0.45596 0.0
C1476 C 0.196 0.68277 0.72386 0.0
C1477 C 0.21909 0.67954 0.74593 0.0
H1478 H 0.14906 0.71774 0.70578 0.0
C1479 C 0.20614 0.70044 0.76903 0.0
H1480 H 0.20546 0.6677 0.70566 0.0
C1481 C 0.17357 0.72939 0.76906 0.0
C1482 C 0.15327 0.73766 0.74606 0.0
H1483 H 0.22364 0.69959 0.78619 0.0
H1484 H 0.16721 0.75019 0.78622 0.0
C1485 C 0.16342 0.71132 0.72396 0.0
C1486 C 0.11893 0.56053 0.76753 0.0
C1487 C 0.13796 0.55195 0.74408 0.0
H1488 H 0.06979 0.59062 0.78572 0.0
C1489 C 0.12679 0.57821 0.72214 0.0
H1490 H 0.1261 0.5398 0.78458 0.0
C1491 C 0.09437 0.60701 0.72274 0.0
C1492 C 0.07246 0.6105 0.74533 0.0
H1493 H 0.14021 0.5716 0.70366 0.0
H1494 H 0.08405 0.622 0.70473 0.0
C1495 C 0.08645 0.5896 0.76817 0.0
C1496 C 0.83988 0.43749 0.47044 0.0
C1497 C 0.82273 0.42824 0.49453 0.0
H1498 H 0.87989 0.48103 0.44958 0.0
C1499 C 0.83969 0.44703 0.51689 0.0
H1500 H 0.82704 0.42428 0.45282 0.0
C1501 C 0.87001 0.47902 0.51504 0.0
C1502 C 0.88403 0.49336 0.49079 0.0
H1503 H 0.82698 0.44099 0.53567 0.0
H1504 H 0.87969 0.49674 0.53249 0.0
C1505 C 0.87027 0.47001 0.46857 0.0
C1506 C 0.95269 0.33771 0.46935 0.0
C1507 C 0.96955 0.34726 0.49349 0.0
H1508 H 0.91355 0.29321 0.44834 0.0
C1509 C 0.95273 0.32791 0.51579 0.0
H1510 H 0.96543 0.35134 0.45176 0.0
C1511 C 0.92303 0.29504 0.51383 0.0
C1512 C 0.90942 0.2805 0.48952 0.0
H1513 H 0.96522 0.33418 0.53462 0.0
H1514 H 0.91353 0.27693 0.53122 0.0
C1515 C 0.9229 0.30435 0.46736 0.0
C1516 C 0.84023 0.33591 0.25458 0.0
C1517 C 0.8232 0.34579 0.23053 0.0
H1518 H 0.87949 0.29114 0.27532 0.0
C1519 C 0.83975 0.32659 0.20812 0.0
H1520 H 0.82771 0.34941 0.27225 0.0
C1521 C 0.86933 0.29356 0.20989 0.0
C1522 C 0.88315 0.27878 0.2341 0.0
H1523 H 0.82714 0.33313 0.18935 0.0
H1524 H 0.87864 0.27564 0.19241 0.0
C1525 C 0.86996 0.30245 0.25637 0.0
C1526 C 0.92537 0.48028 0.20885 0.0
C1527 C 0.91118 0.49376 0.23318 0.0
H1528 H 0.96824 0.44248 0.18804 0.0
C1529 C 0.92441 0.46931 0.25521 0.0
H1530 H 0.91606 0.49887 0.19156 0.0
C1531 C 0.95449 0.43643 0.25315 0.0
C1532 C 0.97187 0.42797 0.22906 0.0
H1533 H 0.91461 0.47963 0.27426 0.0
H1534 H 0.96696 0.4223 0.2707 0.0
C1535 C 0.95537 0.44792 0.20682 0.0
C1536 C 0.70648 0.08072 0.45521 0.0
C1537 C 0.71978 0.10072 0.47845 0.0
H1538 H 0.66719 0.03172 0.43773 0.0
C1539 C 0.69699 0.09676 0.50062 0.0
H1540 H 0.72376 0.08219 0.43795 0.0
C1541 C 0.66429 0.06839 0.5004 0.0
C1542 C 0.65378 0.04287 0.47808 0.0
H1543 H 0.70671 0.11115 0.51892 0.0
H1544 H 0.65013 0.06137 0.51859 0.0
C1545 C 0.67381 0.05191 0.45506 0.0
C1546 C 0.59565 0.17413 0.50093 0.0
C1547 C 0.57317 0.17279 0.47854 0.0
H1548 H 0.64239 0.20713 0.52027 0.0
C1549 C 0.58698 0.19503 0.45601 0.0
H1550 H 0.58552 0.15802 0.51872 0.0
C1551 C 0.61992 0.22332 0.45691 0.0
C1552 C 0.63957 0.22979 0.48033 0.0
H1553 H 0.56993 0.19566 0.43863 0.0
H1554 H 0.62703 0.2451 0.44022 0.0
C1555 C 0.62848 0.20218 0.5018 0.0
C1556 C 0.66388 0.2154 0.72271 0.0
C1557 C 0.65378 0.2399 0.74543 0.0
H1558 H 0.70557 0.17253 0.70354 0.0
C1559 C 0.67368 0.22916 0.7683 0.0
H1560 H 0.64985 0.22378 0.70465 0.0
C1561 C 0.70579 0.19943 0.76771 0.0
C1562 C 0.71877 0.18032 0.74417 0.0
H1563 H 0.66736 0.24853 0.78594 0.0
H1564 H 0.72301 0.19657 0.78494 0.0
C1565 C 0.69608 0.18615 0.72206 0.0
C1566 C 0.61877 0.06028 0.76713 0.0
C1567 C 0.6381 0.05273 0.74369 0.0
H1568 H 0.56914 0.08899 0.78534 0.0
C1569 C 0.62688 0.07952 0.72194 0.0
H1570 H 0.62598 0.03914 0.78402 0.0
C1571 C 0.59418 0.10778 0.72265 0.0
C1572 C 0.57201 0.1102 0.74515 0.0
H1573 H 0.64056 0.07371 0.70347 0.0
H1574 H 0.5839 0.12317 0.70473 0.0
C1575 C 0.58598 0.08879 0.76787 0.0
C1576 C 0.33911 0.94825 0.51707 0.0
C1577 C 0.32252 0.92884 0.49473 0.0
H1578 H 0.37842 0.99892 0.53259 0.0
C1579 C 0.33981 0.93794 0.47067 0.0
H1580 H 0.32629 0.94231 0.53583 0.0
C1581 C 0.36988 0.97093 0.46877 0.0
C1582 C 0.38316 0.99489 0.49093 0.0
H1583 H 0.32727 0.92424 0.45305 0.0
H1584 H 0.37959 0.98176 0.44977 0.0
C1585 C 0.36908 0.98074 0.5152 0.0
C1586 C 0.42388 0.79326 0.51383 0.0
C1587 C 0.41043 0.77854 0.48952 0.0
H1588 H 0.46569 0.83297 0.53465 0.0
C1589 C 0.42377 0.8025 0.46736 0.0
H1590 H 0.41444 0.7751 0.53123 0.0
C1591 C 0.45333 0.83619 0.46936 0.0
C1592 C 0.47005 0.84598 0.49351 0.0
H1593 H 0.4145 0.79125 0.44834 0.0
H1594 H 0.466 0.84991 0.45177 0.0
C1595 C 0.45331 0.82651 0.51581 0.0
C1596 C 0.37047 0.79599 0.20962 0.0
C1597 C 0.38446 0.78149 0.23384 0.0
H1598 H 0.32782 0.83476 0.18908 0.0
C1599 C 0.37109 0.80508 0.25608 0.0
H1600 H 0.37987 0.77807 0.19216 0.0
C1601 C 0.34106 0.83811 0.25428 0.0
C1602 C 0.32388 0.84759 0.23024 0.0
H1603 H 0.38072 0.79395 0.27505 0.0
H1604 H 0.32847 0.85152 0.27194 0.0
C1605 C 0.34055 0.82854 0.20784 0.0
C1606 C 0.45403 0.93524 0.2534 0.0
C1607 C 0.4716 0.92687 0.22938 0.0
H1608 H 0.41354 0.97785 0.27431 0.0
C1609 C 0.45491 0.9462 0.20704 0.0
H1610 H 0.46663 0.92157 0.27102 0.0
C1611 C 0.42442 0.97786 0.20892 0.0
C1612 C 0.40997 0.99136 0.23318 0.0
H1613 H 0.46791 0.94081 0.1883 0.0
H1614 H 0.41494 0.99604 0.19155 0.0
C1615 C 0.42349 0.96747 0.25531 0.0
C1616 C 0.66469 0.57526 0.00151 0.0
C1617 C 0.65382 0.548 0.97988 0.0
H1618 H 0.70747 0.61917 0.01879 0.0
C1619 C 0.6737 0.55488 0.95658 0.0
H1620 H 0.65062 0.56996 0.0199 0.0
C1621 C 0.70661 0.58325 0.95593 0.0
C1622 C 0.7202 0.60514 0.9786 0.0
H1623 H 0.66678 0.53335 0.93978 0.0
H1624 H 0.72381 0.58294 0.93862 0.0
C1625 C 0.69751 0.60337 0.0009 0.0
C1626 C 0.59584 0.68011 0.00086 0.0
C1627 C 0.57325 0.67613 0.9786 0.0
H1628 H 0.64248 0.71556 0.01901 0.0
C1629 C 0.58673 0.69621 0.9554 0.0
H1630 H 0.58596 0.66568 0.01912 0.0
C1631 C 0.61937 0.72508 0.95537 0.0
C1632 C 0.63917 0.73412 0.97848 0.0
H1633 H 0.5696 0.69474 0.93808 0.0
H1634 H 0.62614 0.74529 0.93805 0.0
C1635 C 0.62849 0.70855 0.00076 0.0
C1636 C 0.66539 0.70186 0.22244 0.0
C1637 C 0.65437 0.72865 0.2442 0.0
H1638 H 0.70829 0.65838 0.20504 0.0
C1639 C 0.674 0.72121 0.26755 0.0
H1640 H 0.65149 0.70759 0.20403 0.0
C1641 C 0.70686 0.69282 0.26815 0.0
C1642 C 0.72064 0.67148 0.24538 0.0
H1643 H 0.66695 0.74237 0.28445 0.0
H1644 H 0.72389 0.69272 0.28553 0.0
C1645 C 0.69818 0.67376 0.223 0.0
C1646 C 0.62924 0.56761 0.22282 0.0
C1647 C 0.63974 0.54272 0.24535 0.0
H1648 H 0.58701 0.61024 0.20404 0.0
C1649 C 0.61997 0.55269 0.26836 0.0
H1650 H 0.64321 0.55986 0.20466 0.0
C1651 C 0.58754 0.58188 0.26805 0.0
C1652 C 0.57419 0.60126 0.24465 0.0
H1653 H 0.62661 0.53301 0.28587 0.0
H1654 H 0.57042 0.58407 0.28535 0.0
C1655 C 0.59677 0.59634 0.22244 0.0
C1656 C 0.36993 0.48091 0.01395 0.0
C1657 C 0.38385 0.49547 -0.01029 0.0
H1658 H 0.32724 0.44218 0.03452 0.0
C1659 C 0.37039 0.47193 0.96747 0.0
H1660 H 0.37941 0.49878 0.0314 0.0
C1661 C 0.3403 0.43895 0.96929 0.0
C1662 C 0.32316 0.42946 -0.00664 0.0
H1663 H 0.37998 0.4831 0.9485 0.0
H1664 H 0.32762 0.4256 0.95164 0.0
C1665 C 0.33994 0.44842 0.01575 0.0
C1666 C 0.45292 0.34133 0.97106 0.0
C1667 C 0.47025 0.35014 -0.00487 0.0
H1668 H 0.41294 0.29796 0.95012 0.0
C1669 C 0.45356 0.33071 0.01745 0.0
H1670 H 0.46554 0.35505 0.95346 0.0
C1671 C 0.42339 0.29851 0.01554 0.0
C1672 C 0.40924 0.28462 -0.00874 0.0
H1673 H 0.4664 0.33642 0.03622 0.0
H1674 H 0.41395 0.2803 0.03291 0.0
C1675 C 0.42268 0.3086 0.96913 0.0
C1676 C 0.3684 0.31308 0.75506 0.0
C1677 C 0.38165 0.28903 0.73292 0.0
H1678 H 0.32552 0.35922 0.77084 0.0
C1679 C 0.36708 0.3025 0.70869 0.0
H1680 H 0.37849 0.30273 0.77404 0.0
C1681 C 0.3367 0.33434 0.70687 0.0
C1682 C 0.32022 0.3538 0.72923 0.0
H1683 H 0.37638 0.28422 0.69132 0.0
H1684 H 0.32358 0.33973 0.68816 0.0
C1685 C 0.33794 0.34545 0.75321 0.0
C1686 C 0.45235 0.44451 0.75384 0.0
C1687 C 0.46946 0.43519 0.72976 0.0
H1688 H 0.41305 0.48885 0.77477 0.0
C1689 C 0.45293 0.45477 0.70742 0.0
H1690 H 0.46484 0.43067 0.77145 0.0
C1691 C 0.42331 0.48773 0.70933 0.0
C1692 C 0.40947 0.50203 0.73361 0.0
H1693 H 0.46557 0.44863 0.68864 0.0
H1694 H 0.41404 0.50601 0.69194 0.0
C1695 C 0.42261 0.47792 0.75577 0.0
loop_
_geom_bond_atom_site_label_1
_geom_bond_atom_site_label_2
_geom_bond_distance
_geom_bond_site_symmetry_2
_ccdc_geom_bond_type
O0 Zn1 1.953 1_565 S
O0 C16 1.225 1_556 S
Zn1 O0 1.953 1_545 S
Zn1 O2 1.930 1_556 S
Zn1 O8 1.919 . S
Zn1 O13 1.924 . S
O2 Zn1 1.930 1_554 S
O2 Zn3 1.909 1_554 S
O2 Zn4 1.970 . S
O2 Zn5 1.957 . S
Zn3 O2 1.909 1_556 S
Zn3 O6 1.933 . S
Zn3 O9 1.941 . S
Zn3 O10 1.965 . S
Zn4 O2 1.970 . S
Zn4 O11 1.938 . S
Zn4 O12 1.906 . S
Zn4 O22 1.953 1_545 S
Zn5 O2 1.957 . S
Zn5 O7 1.932 . S
Zn5 O14 1.977 . S
Zn5 O15 1.910 . S
O6 Zn3 1.933 . S
O6 C17 1.226 . S
O7 Zn5 1.932 . S
O7 C17 1.307 1_554 S
O8 Zn1 1.919 . S
O8 C19 1.253 . S
O9 Zn3 1.941 . S
O9 C19 1.283 . S
O10 Zn3 1.965 . S
O10 C18 1.303 1_556 S
O11 Zn4 1.938 . S
O11 C18 1.247 . S
O12 Zn4 1.906 . S
O12 C20 1.304 . S
O13 Zn1 1.924 . S
O13 C21 1.287 1_556 S
O14 Zn5 1.977 . S
O14 C20 1.272 . S
O15 Zn5 1.910 . S
O15 C21 1.249 . S
C16 O0 1.225 1_554 S
C16 O22 1.298 . S
C17 O6 1.226 . S
C17 O7 1.307 1_556 S
C18 O10 1.303 1_554 S
C18 O11 1.247 . S
C19 O8 1.253 . S
C19 O9 1.283 . S
C20 O12 1.304 . S
C20 O14 1.272 . S
C21 O13 1.287 1_554 S
C21 O15 1.249 . S
O22 Zn4 1.953 1_565 S
O22 C16 1.298 . S
O23 Zn24 1.953 . S
O23 C39 1.225 1_556 S
Zn24 O23 1.953 . S
Zn24 O25 1.930 1_556 S
Zn24 O31 1.919 . S
Zn24 O36 1.924 . S
O25 Zn24 1.930 1_554 S
O25 Zn26 1.909 1_554 S
O25 Zn27 1.970 . S
O25 Zn28 1.957 . S
Zn26 O25 1.909 1_556 S
Zn26 O29 1.933 . S
Zn26 O32 1.941 . S
Zn26 O33 1.965 . S
Zn27 O25 1.970 . S
Zn27 O34 1.938 . S
Zn27 O35 1.906 . S
Zn27 O45 1.953 . S
Zn28 O25 1.957 . S
Zn28 O30 1.932 . S
Zn28 O37 1.977 . S
Zn28 O38 1.910 . S
O29 Zn26 1.933 . S
O29 C40 1.226 . S
O30 Zn28 1.932 . S
O30 C40 1.307 1_554 S
O31 Zn24 1.919 . S
O31 C42 1.253 . S
O32 Zn26 1.941 . S
O32 C42 1.283 . S
O33 Zn26 1.965 . S
O33 C41 1.303 1_556 S
O34 Zn27 1.938 . S
O34 C41 1.247 . S
O35 Zn27 1.906 . S
O35 C43 1.304 . S
O36 Zn24 1.924 . S
O36 C44 1.287 1_556 S
O37 Zn28 1.977 . S
O37 C43 1.272 . S
O38 Zn28 1.910 . S
O38 C44 1.249 . S
C39 O23 1.225 1_554 S
C39 O45 1.298 . S
C40 O29 1.226 . S
C40 O30 1.307 1_556 S
C41 O33 1.303 1_554 S
C41 O34 1.247 . S
C42 O31 1.253 . S
C42 O32 1.283 . S
C43 O35 1.304 . S
C43 O37 1.272 . S
C44 O36 1.287 1_554 S
C44 O38 1.249 . S
O45 Zn27 1.953 . S
O45 C39 1.298 . S
O46 Zn47 1.953 . S
O46 C62 1.225 . S
Zn47 O46 1.953 . S
Zn47 O48 1.949 . S
Zn47 O54 1.919 . S
Zn47 O59 1.924 . S
O48 Zn47 1.949 . S
O48 Zn49 1.923 . S
O48 Zn50 1.950 . S
O48 Zn51 1.945 . S
Zn49 O48 1.923 . S
Zn49 O52 1.933 . S
Zn49 O55 1.941 . S
Zn49 O56 1.965 . S
Zn50 O48 1.950 . S
Zn50 O57 1.938 . S
Zn50 O58 1.906 . S
Zn50 O68 1.953 . S
Zn51 O48 1.945 . S
Zn51 O53 1.932 . S
Zn51 O60 1.977 . S
Zn51 O61 1.910 . S
O52 Zn49 1.933 . S
O52 C63 1.226 . S
O53 Zn51 1.932 . S
O53 C63 1.307 . S
O54 Zn47 1.919 . S
O54 C65 1.253 . S
O55 Zn49 1.941 . S
O55 C65 1.283 . S
O56 Zn49 1.965 . S
O56 C64 1.303 . S
O57 Zn50 1.938 . S
O57 C64 1.247 . S
O58 Zn50 1.906 . S
O58 C66 1.304 . S
O59 Zn47 1.924 . S
O59 C67 1.311 . S
O60 Zn51 1.977 . S
O60 C66 1.272 . S
O61 Zn51 1.910 . S
O61 C67 1.231 . S
C62 O46 1.225 . S
C62 O68 1.298 . S
C63 O52 1.226 . S
C63 O53 1.307 . S
C64 O56 1.303 . S
C64 O57 1.247 . S
C65 O54 1.253 . S
C65 O55 1.283 . S
C66 O58 1.304 . S
C66 O60 1.272 . S
C67 O59 1.311 . S
C67 O61 1.231 . S
O68 Zn50 1.953 . S
O68 C62 1.298 . S
O69 Zn70 1.953 1_565 S
O69 C85 1.225 . S
Zn70 O69 1.953 1_545 S
Zn70 O71 1.949 . S
Zn70 O77 1.919 . S
Zn70 O82 1.924 . S
O71 Zn70 1.949 . S
O71 Zn72 1.923 . S
O71 Zn73 1.950 . S
O71 Zn74 1.945 . S
Zn72 O71 1.923 . S
Zn72 O75 1.933 . S
Zn72 O78 1.941 . S
Zn72 O79 1.965 . S
Zn73 O71 1.950 . S
Zn73 O80 1.938 . S
Zn73 O81 1.906 . S
Zn73 O91 1.953 1_545 S
Zn74 O71 1.945 . S
Zn74 O76 1.932 . S
Zn74 O83 1.977 . S
Zn74 O84 1.910 . S
O75 Zn72 1.933 . S
O75 C86 1.226 . S
O76 Zn74 1.932 . S
O76 C86 1.307 . S
O77 Zn70 1.919 . S
O77 C88 1.253 . S
O78 Zn72 1.941 . S
O78 C88 1.283 . S
O79 Zn72 1.965 . S
O79 C87 1.303 . S
O80 Zn73 1.938 . S
O80 C87 1.247 . S
O81 Zn73 1.906 . S
O81 C89 1.304 . S
O82 Zn70 1.924 . S
O82 C90 1.311 . S
O83 Zn74 1.977 . S
O83 C89 1.272 . S
O84 Zn74 1.910 . S
O84 C90 1.231 . S
C85 O69 1.225 . S
C85 O91 1.298 . S
C86 O75 1.226 . S
C86 O76 1.307 . S
C87 O79 1.303 . S
C87 O80 1.247 . S
C88 O77 1.253 . S
C88 O78 1.283 . S
C89 O81 1.304 . S
C89 O83 1.272 . S
C90 O82 1.311 . S
C90 O84 1.231 . S
O91 Zn73 1.953 1_565 S
O91 C85 1.298 . S
O92 Zn93 1.953 1_545 S
O92 C108 1.225 . S
Zn93 O92 1.953 1_565 S
Zn93 O94 1.935 1_556 S
Zn93 O100 1.919 . S
Zn93 O105 1.924 . S
O94 Zn93 1.935 1_554 S
O94 Zn95 1.915 1_554 S
O94 Zn96 1.963 . S
O94 Zn97 1.953 . S
Zn95 O94 1.915 1_556 S
Zn95 O98 1.933 . S
Zn95 O101 1.941 . S
Zn95 O102 1.965 . S
Zn96 O94 1.963 . S
Zn96 O103 1.938 . S
Zn96 O104 1.906 . S
Zn96 O114 1.953 1_565 S
Zn97 O94 1.953 . S
Zn97 O99 1.932 . S
Zn97 O106 1.977 . S
Zn97 O107 1.910 . S
O98 Zn95 1.933 . S
O98 C109 1.226 1_556 S
O99 Zn97 1.932 . S
O99 C109 1.307 . S
O100 Zn93 1.919 . S
O100 C111 1.253 . S
O101 Zn95 1.941 . S
O101 C111 1.283 . S
O102 Zn95 1.965 . S
O102 C110 1.303 1_556 S
O103 Zn96 1.938 . S
O103 C110 1.247 . S
O104 Zn96 1.906 . S
O104 C112 1.304 . S
O105 Zn93 1.924 . S
O105 C113 1.311 . S
O106 Zn97 1.977 . S
O106 C112 1.272 . S
O107 Zn97 1.910 . S
O107 C113 1.231 1_554 S
C108 O92 1.225 . S
C108 O114 1.298 1_556 S
C109 O98 1.226 1_554 S
C109 O99 1.307 . S
C110 O102 1.303 1_554 S
C110 O103 1.247 . S
C111 O100 1.253 . S
C111 O101 1.283 . S
C112 O104 1.304 . S
C112 O106 1.272 . S
C113 O105 1.311 . S
C113 O107 1.231 1_556 S
O114 Zn96 1.953 1_545 S
O114 C108 1.298 1_554 S
O115 Zn116 1.953 . S
O115 C131 1.225 . S
Zn116 O115 1.953 . S
Zn116 O117 1.935 1_556 S
Zn116 O123 1.919 . S
Zn116 O128 1.924 . S
O117 Zn116 1.935 1_554 S
O117 Zn118 1.915 1_554 S
O117 Zn119 1.963 . S
O117 Zn120 1.953 . S
Zn118 O117 1.915 1_556 S
Zn118 O121 1.933 . S
Zn118 O124 1.941 . S
Zn118 O125 1.965 . S
Zn119 O117 1.963 . S
Zn119 O126 1.938 . S
Zn119 O127 1.906 . S
Zn119 O137 1.953 . S
Zn120 O117 1.953 . S
Zn120 O122 1.932 . S
Zn120 O129 1.977 . S
Zn120 O130 1.910 . S
O121 Zn118 1.933 . S
O121 C132 1.226 1_556 S
O122 Zn120 1.932 . S
O122 C132 1.307 . S
O123 Zn116 1.919 . S
O123 C134 1.253 . S
O124 Zn118 1.941 . S
O124 C134 1.283 . S
O125 Zn118 1.965 . S
O125 C133 1.303 1_556 S
O126 Zn119 1.938 . S
O126 C133 1.247 . S
O127 Zn119 1.906 . S
O127 C135 1.304 . S
O128 Zn116 1.924 . S
O128 C136 1.311 . S
O129 Zn120 1.977 . S
O129 C135 1.272 . S
O130 Zn120 1.910 . S
O130 C136 1.231 1_554 S
C131 O115 1.225 . S
C131 O137 1.298 1_556 S
C132 O121 1.226 1_554 S
C132 O122 1.307 . S
C133 O125 1.303 1_554 S
C133 O126 1.247 . S
C134 O123 1.253 . S
C134 O124 1.283 . S
C135 O127 1.304 . S
C135 O129 1.272 . S
C136 O128 1.311 . S
C136 O130 1.231 1_556 S
O137 Zn119 1.953 . S
O137 C131 1.298 1_554 S
O138 Zn139 1.953 . S
O138 C154 1.225 . S
Zn139 O138 1.953 . S
Zn139 O140 1.949 . S
Zn139 O146 1.919 . S
Zn139 O151 1.924 . S
O140 Zn139 1.949 . S
O140 Zn141 1.923 . S
O140 Zn142 1.950 . S
O140 Zn143 1.945 . S
Zn141 O140 1.923 . S
Zn141 O144 1.933 . S
Zn141 O147 1.941 . S
Zn141 O148 1.965 . S
Zn142 O140 1.950 . S
Zn142 O149 1.938 . S
Zn142 O150 1.906 . S
Zn142 O160 1.953 . S
Zn143 O140 1.945 . S
Zn143 O145 1.932 . S
Zn143 O152 1.977 . S
Zn143 O153 1.910 . S
O144 Zn141 1.933 . S
O144 C155 1.226 . S
O145 Zn143 1.932 . S
O145 C155 1.307 . S
O146 Zn139 1.919 . S
O146 C157 1.253 . S
O147 Zn141 1.941 . S
O147 C157 1.283 . S
O148 Zn141 1.965 . S
O148 C156 1.303 . S
O149 Zn142 1.938 . S
O149 C156 1.247 . S
O150 Zn142 1.906 . S
O150 C158 1.304 . S
O151 Zn139 1.924 . S
O151 C159 1.311 . S
O152 Zn143 1.977 . S
O152 C158 1.272 . S
O153 Zn143 1.910 . S
O153 C159 1.231 . S
C154 O138 1.225 . S
C154 O160 1.298 . S
C155 O144 1.226 . S
C155 O145 1.307 . S
C156 O148 1.303 . S
C156 O149 1.247 . S
C157 O146 1.253 . S
C157 O147 1.283 . S
C158 O150 1.304 . S
C158 O152 1.272 . S
C159 O151 1.311 . S
C159 O153 1.231 . S
O160 Zn142 1.953 . S
O160 C154 1.298 . S
O161 Zn162 1.953 1_545 S
O161 C177 1.225 . S
Zn162 O161 1.953 1_565 S
Zn162 O163 1.949 . S
Zn162 O169 1.919 . S
Zn162 O174 1.924 . S
O163 Zn162 1.949 . S
O163 Zn164 1.923 . S
O163 Zn165 1.950 . S
O163 Zn166 1.945 . S
Zn164 O163 1.923 . S
Zn164 O167 1.933 . S
Zn164 O170 1.941 . S
Zn164 O171 1.965 . S
Zn165 O163 1.950 . S
Zn165 O172 1.938 . S
Zn165 O173 1.906 . S
Zn165 O183 1.953 1_565 S
Zn166 O163 1.945 . S
Zn166 O168 1.932 . S
Zn166 O175 1.977 . S
Zn166 O176 1.910 . S
O167 Zn164 1.933 . S
O167 C178 1.226 . S
O168 Zn166 1.932 . S
O168 C178 1.307 . S
O169 Zn162 1.919 . S
O169 C180 1.253 . S
O170 Zn164 1.941 . S
O170 C180 1.283 . S
O171 Zn164 1.965 . S
O171 C179 1.303 . S
O172 Zn165 1.938 . S
O172 C179 1.247 . S
O173 Zn165 1.906 . S
O173 C181 1.304 . S
O174 Zn162 1.924 . S
O174 C182 1.311 . S
O175 Zn166 1.977 . S
O175 C181 1.272 . S
O176 Zn166 1.910 . S
O176 C182 1.231 . S
C177 O161 1.225 . S
C177 O183 1.298 . S
C178 O167 1.226 . S
C178 O168 1.307 . S
C179 O171 1.303 . S
C179 O172 1.247 . S
C180 O169 1.253 . S
C180 O170 1.283 . S
C181 O173 1.304 . S
C181 O175 1.272 . S
C182 O174 1.311 . S
C182 O176 1.231 . S
O183 Zn165 1.953 1_545 S
O183 C177 1.298 . S
O184 Zn185 1.953 . S
O184 C200 1.225 . S
Zn185 O184 1.953 . S
Zn185 O186 1.949 . S
Zn185 O192 1.919 . S
Zn185 O197 1.924 . S
O186 Zn185 1.949 . S
O186 Zn187 1.923 . S
O186 Zn188 1.950 . S
O186 Zn189 1.945 . S
Zn187 O186 1.923 . S
Zn187 O190 1.933 . S
Zn187 O193 1.941 . S
Zn187 O194 1.965 . S
Zn188 O186 1.950 . S
Zn188 O195 1.938 . S
Zn188 O196 1.906 . S
Zn188 O206 1.953 . S
Zn189 O186 1.945 . S
Zn189 O191 1.932 . S
Zn189 O198 1.977 . S
Zn189 O199 1.910 . S
O190 Zn187 1.933 . S
O190 C201 1.226 . S
O191 Zn189 1.932 . S
O191 C201 1.307 . S
O192 Zn185 1.919 . S
O192 C203 1.253 . S
O193 Zn187 1.941 . S
O193 C203 1.283 . S
O194 Zn187 1.965 . S
O194 C202 1.303 . S
O195 Zn188 1.938 . S
O195 C202 1.247 . S
O196 Zn188 1.906 . S
O196 C204 1.304 . S
O197 Zn185 1.924 . S
O197 C205 1.311 . S
O198 Zn189 1.977 . S
O198 C204 1.272 . S
O199 Zn189 1.910 . S
O199 C205 1.231 . S
C200 O184 1.225 . S
C200 O206 1.298 . S
C201 O190 1.226 . S
C201 O191 1.307 . S
C202 O194 1.303 . S
C202 O195 1.247 . S
C203 O192 1.253 . S
C203 O193 1.283 . S
C204 O196 1.304 . S
C204 O198 1.272 . S
C205 O197 1.311 . S
C205 O199 1.231 . S
O206 Zn188 1.953 . S
O206 C200 1.298 . S
O207 Zn208 1.953 . S
O207 C223 1.225 . S
Zn208 O207 1.953 . S
Zn208 O209 1.949 . S
Zn208 O215 1.919 . S
Zn208 O220 1.924 . S
O209 Zn208 1.949 . S
O209 Zn210 1.923 . S
O209 Zn211 1.950 . S
O209 Zn212 1.945 . S
Zn210 O209 1.923 . S
Zn210 O213 1.933 . S
Zn210 O216 1.941 . S
Zn210 O217 1.965 . S
Zn211 O209 1.950 . S
Zn211 O218 1.938 . S
Zn211 O219 1.906 . S
Zn211 O229 1.953 . S
Zn212 O209 1.945 . S
Zn212 O214 1.932 . S
Zn212 O221 1.977 . S
Zn212 O222 1.910 . S
O213 Zn210 1.933 . S
O213 C224 1.226 . S
O214 Zn212 1.932 . S
O214 C224 1.307 . S
O215 Zn208 1.919 . S
O215 C226 1.253 . S
O216 Zn210 1.941 . S
O216 C226 1.283 . S
O217 Zn210 1.965 . S
O217 C225 1.303 . S
O218 Zn211 1.938 . S
O218 C225 1.247 . S
O219 Zn211 1.906 . S
O219 C227 1.304 . S
O220 Zn208 1.924 . S
O220 C228 1.311 . S
O221 Zn212 1.977 . S
O221 C227 1.272 . S
O222 Zn212 1.910 . S
O222 C228 1.231 . S
C223 O207 1.225 . S
C223 O229 1.298 . S
C224 O213 1.226 . S
C224 O214 1.307 . S
C225 O217 1.303 . S
C225 O218 1.247 . S
C226 O215 1.253 . S
C226 O216 1.283 . S
C227 O219 1.304 . S
C227 O221 1.272 . S
C228 O220 1.311 . S
C228 O222 1.231 . S
O229 Zn211 1.953 . S
O229 C223 1.298 . S
O230 Zn231 1.953 . S
O230 C246 1.225 . S
Zn231 O230 1.953 . S
Zn231 O232 1.949 . S
Zn231 O238 1.919 . S
Zn231 O243 1.924 . S
O232 Zn231 1.949 . S
O232 Zn233 1.923 . S
O232 Zn234 1.950 . S
O232 Zn235 1.945 . S
Zn233 O232 1.923 . S
Zn233 O236 1.933 . S
Zn233 O239 1.941 . S
Zn233 O240 1.965 . S
Zn234 O232 1.950 . S
Zn234 O241 1.938 . S
Zn234 O242 1.906 . S
Zn234 O252 1.953 . S
Zn235 O232 1.945 . S
Zn235 O237 1.932 . S
Zn235 O244 1.977 . S
Zn235 O245 1.910 . S
O236 Zn233 1.933 . S
O236 C247 1.226 . S
O237 Zn235 1.932 . S
O237 C247 1.307 . S
O238 Zn231 1.919 . S
O238 C249 1.253 . S
O239 Zn233 1.941 . S
O239 C249 1.283 . S
O240 Zn233 1.965 . S
O240 C248 1.303 . S
O241 Zn234 1.938 . S
O241 C248 1.247 . S
O242 Zn234 1.906 . S
O242 C250 1.304 . S
O243 Zn231 1.924 . S
O243 C251 1.311 . S
O244 Zn235 1.977 . S
O244 C250 1.272 . S
O245 Zn235 1.910 . S
O245 C251 1.231 . S
C246 O230 1.225 . S
C246 O252 1.298 . S
C247 O236 1.226 . S
C247 O237 1.307 . S
C248 O240 1.303 . S
C248 O241 1.247 . S
C249 O238 1.253 . S
C249 O239 1.283 . S
C250 O242 1.304 . S
C250 O244 1.272 . S
C251 O243 1.311 . S
C251 O245 1.231 . S
O252 Zn234 1.953 . S
O252 C246 1.298 . S
O253 Zn254 1.953 . S
O253 C269 1.225 . S
Zn254 O253 1.953 . S
Zn254 O255 1.949 . S
Zn254 O261 1.919 . S
Zn254 O266 1.924 . S
O255 Zn254 1.949 . S
O255 Zn256 1.923 . S
O255 Zn257 1.950 . S
O255 Zn258 1.945 . S
Zn256 O255 1.923 . S
Zn256 O259 1.933 . S
Zn256 O262 1.941 . S
Zn256 O263 1.965 . S
Zn257 O255 1.950 . S
Zn257 O264 1.938 . S
Zn257 O265 1.906 . S
Zn257 O275 1.953 . S
Zn258 O255 1.945 . S
Zn258 O260 1.932 . S
Zn258 O267 1.977 . S
Zn258 O268 1.910 . S
O259 Zn256 1.933 . S
O259 C270 1.226 . S
O260 Zn258 1.932 . S
O260 C270 1.307 . S
O261 Zn254 1.919 . S
O261 C272 1.253 . S
O262 Zn256 1.941 . S
O262 C272 1.283 . S
O263 Zn256 1.965 . S
O263 C271 1.303 . S
O264 Zn257 1.938 . S
O264 C271 1.247 . S
O265 Zn257 1.906 . S
O265 C273 1.304 . S
O266 Zn254 1.924 . S
O266 C274 1.311 . S
O267 Zn258 1.977 . S
O267 C273 1.272 . S
O268 Zn258 1.910 . S
O268 C274 1.231 . S
C269 O253 1.225 . S
C269 O275 1.298 . S
C270 O259 1.226 . S
C270 O260 1.307 . S
C271 O263 1.303 . S
C271 O264 1.247 . S
C272 O261 1.253 . S
C272 O262 1.283 . S
C273 O265 1.304 . S
C273 O267 1.272 . S
C274 O266 1.311 . S
C274 O268 1.231 . S
O275 Zn257 1.953 . S
O275 C269 1.298 . S
O276 Zn277 1.953 . S
O276 C292 1.225 . S
Zn277 O276 1.953 . S
Zn277 O278 1.949 . S
Zn277 O284 1.919 . S
Zn277 O289 1.924 . S
O278 Zn277 1.949 . S
O278 Zn279 1.923 . S
O278 Zn280 1.950 . S
O278 Zn281 1.945 . S
Zn279 O278 1.923 . S
Zn279 O282 1.933 . S
Zn279 O285 1.941 . S
Zn279 O286 1.965 . S
Zn280 O278 1.950 . S
Zn280 O287 1.938 . S
Zn280 O288 1.906 . S
Zn280 O298 1.953 . S
Zn281 O278 1.945 . S
Zn281 O283 1.932 . S
Zn281 O290 1.977 . S
Zn281 O291 1.910 . S
O282 Zn279 1.933 . S
O282 C293 1.226 . S
O283 Zn281 1.932 . S
O283 C293 1.307 . S
O284 Zn277 1.919 . S
O284 C295 1.253 . S
O285 Zn279 1.941 . S
O285 C295 1.283 . S
O286 Zn279 1.965 . S
O286 C294 1.303 . S
O287 Zn280 1.938 . S
O287 C294 1.247 . S
O288 Zn280 1.906 . S
O288 C296 1.304 . S
O289 Zn277 1.924 . S
O289 C297 1.311 . S
O290 Zn281 1.977 . S
O290 C296 1.272 . S
O291 Zn281 1.910 . S
O291 C297 1.231 . S
C292 O276 1.225 . S
C292 O298 1.298 . S
C293 O282 1.226 . S
C293 O283 1.307 . S
C294 O286 1.303 . S
C294 O287 1.247 . S
C295 O284 1.253 . S
C295 O285 1.283 . S
C296 O288 1.304 . S
C296 O290 1.272 . S
C297 O289 1.311 . S
C297 O291 1.231 . S
O298 Zn280 1.953 . S
O298 C292 1.298 . S
O299 Zn300 1.953 . S
O299 C315 1.225 . S
Zn300 O299 1.953 . S
Zn300 O301 1.949 . S
Zn300 O307 1.919 . S
Zn300 O312 1.924 . S
O301 Zn300 1.949 . S
O301 Zn302 1.923 . S
O301 Zn303 1.950 . S
O301 Zn304 1.945 . S
Zn302 O301 1.923 . S
Zn302 O305 1.933 . S
Zn302 O308 1.941 . S
Zn302 O309 1.965 . S
Zn303 O301 1.950 . S
Zn303 O310 1.938 . S
Zn303 O311 1.906 . S
Zn303 O321 1.953 . S
Zn304 O301 1.945 . S
Zn304 O306 1.932 . S
Zn304 O313 1.977 . S
Zn304 O314 1.910 . S
O305 Zn302 1.933 . S
O305 C316 1.226 . S
O306 Zn304 1.932 . S
O306 C316 1.307 . S
O307 Zn300 1.919 . S
O307 C318 1.253 . S
O308 Zn302 1.941 . S
O308 C318 1.283 . S
O309 Zn302 1.965 . S
O309 C317 1.303 . S
O310 Zn303 1.938 . S
O310 C317 1.247 . S
O311 Zn303 1.906 . S
O311 C319 1.304 . S
O312 Zn300 1.924 . S
O312 C320 1.311 . S
O313 Zn304 1.977 . S
O313 C319 1.272 . S
O314 Zn304 1.910 . S
O314 C320 1.231 . S
C315 O299 1.225 . S
C315 O321 1.298 . S
C316 O305 1.226 . S
C316 O306 1.307 . S
C317 O309 1.303 . S
C317 O310 1.247 . S
C318 O307 1.253 . S
C318 O308 1.283 . S
C319 O311 1.304 . S
C319 O313 1.272 . S
C320 O312 1.311 . S
C320 O314 1.231 . S
O321 Zn303 1.953 . S
O321 C315 1.298 . S
O322 Zn323 1.953 . S
O322 C338 1.225 . S
Zn323 O322 1.953 . S
Zn323 O324 1.949 . S
Zn323 O330 1.919 . S
Zn323 O335 1.924 . S
O324 Zn323 1.949 . S
O324 Zn325 1.923 . S
O324 Zn326 1.950 . S
O324 Zn327 1.945 . S
Zn325 O324 1.923 . S
Zn325 O328 1.933 . S
Zn325 O331 1.941 . S
Zn325 O332 1.965 . S
Zn326 O324 1.950 . S
Zn326 O333 1.938 . S
Zn326 O334 1.906 . S
Zn326 O344 1.953 . S
Zn327 O324 1.945 . S
Zn327 O329 1.932 . S
Zn327 O336 1.977 . S
Zn327 O337 1.910 . S
O328 Zn325 1.933 . S
O328 C339 1.226 . S
O329 Zn327 1.932 . S
O329 C339 1.307 . S
O330 Zn323 1.919 . S
O330 C341 1.253 . S
O331 Zn325 1.941 . S
O331 C341 1.283 . S
O332 Zn325 1.965 . S
O332 C340 1.303 . S
O333 Zn326 1.938 . S
O333 C340 1.247 . S
O334 Zn326 1.906 . S
O334 C342 1.304 . S
O335 Zn323 1.924 . S
O335 C343 1.311 . S
O336 Zn327 1.977 . S
O336 C342 1.272 . S
O337 Zn327 1.910 . S
O337 C343 1.231 . S
C338 O322 1.225 . S
C338 O344 1.298 . S
C339 O328 1.226 . S
C339 O329 1.307 . S
C340 O332 1.303 . S
C340 O333 1.247 . S
C341 O330 1.253 . S
C341 O331 1.283 . S
C342 O334 1.304 . S
C342 O336 1.272 . S
C343 O335 1.311 . S
C343 O337 1.231 . S
O344 Zn326 1.953 . S
O344 C338 1.298 . S
O345 Zn346 1.953 . S
O345 C361 1.225 . S
Zn346 O345 1.953 . S
Zn346 O347 1.949 . S
Zn346 O353 1.919 . S
Zn346 O358 1.924 . S
O347 Zn346 1.949 . S
O347 Zn348 1.923 . S
O347 Zn349 1.950 . S
O347 Zn350 1.945 . S
Zn348 O347 1.923 . S
Zn348 O351 1.933 . S
Zn348 O354 1.941 . S
Zn348 O355 1.965 . S
Zn349 O347 1.950 . S
Zn349 O356 1.938 . S
Zn349 O357 1.906 . S
Zn349 O367 1.953 . S
Zn350 O347 1.945 . S
Zn350 O352 1.932 . S
Zn350 O359 1.977 . S
Zn350 O360 1.910 . S
O351 Zn348 1.933 . S
O351 C362 1.226 . S
O352 Zn350 1.932 . S
O352 C362 1.307 . S
O353 Zn346 1.919 . S
O353 C364 1.253 . S
O354 Zn348 1.941 . S
O354 C364 1.283 . S
O355 Zn348 1.965 . S
O355 C363 1.303 . S
O356 Zn349 1.938 . S
O356 C363 1.247 . S
O357 Zn349 1.906 . S
O357 C365 1.304 . S
O358 Zn346 1.924 . S
O358 C366 1.311 . S
O359 Zn350 1.977 . S
O359 C365 1.272 . S
O360 Zn350 1.910 . S
O360 C366 1.231 . S
C361 O345 1.225 . S
C361 O367 1.298 . S
C362 O351 1.226 . S
C362 O352 1.307 . S
C363 O355 1.303 . S
C363 O356 1.247 . S
C364 O353 1.253 . S
C364 O354 1.283 . S
C365 O357 1.304 . S
C365 O359 1.272 . S
C366 O358 1.311 . S
C366 O360 1.231 . S
O367 Zn349 1.953 . S
O367 C361 1.298 . S
O368 Zn369 1.953 1_565 S
O368 C384 1.225 . S
Zn369 O368 1.953 1_545 S
Zn369 O370 1.949 . S
Zn369 O376 1.919 . S
Zn369 O381 1.924 . S
O370 Zn369 1.949 . S
O370 Zn371 1.923 . S
O370 Zn372 1.950 . S
O370 Zn373 1.945 . S
Zn371 O370 1.923 . S
Zn371 O374 1.933 . S
Zn371 O377 1.941 . S
Zn371 O378 1.965 . S
Zn372 O370 1.950 . S
Zn372 O379 1.938 . S
Zn372 O380 1.906 . S
Zn372 O390 1.953 1_545 S
Zn373 O370 1.945 . S
Zn373 O375 1.932 . S
Zn373 O382 1.977 . S
Zn373 O383 1.910 . S
O374 Zn371 1.933 . S
O374 C385 1.226 . S
O375 Zn373 1.932 . S
O375 C385 1.307 . S
O376 Zn369 1.919 . S
O376 C387 1.253 . S
O377 Zn371 1.941 . S
O377 C387 1.283 . S
O378 Zn371 1.965 . S
O378 C386 1.303 . S
O379 Zn372 1.938 . S
O379 C386 1.247 . S
O380 Zn372 1.906 . S
O380 C388 1.304 . S
O381 Zn369 1.924 . S
O381 C389 1.311 . S
O382 Zn373 1.977 . S
O382 C388 1.272 . S
O383 Zn373 1.910 . S
O383 C389 1.231 . S
C384 O368 1.225 . S
C384 O390 1.298 . S
C385 O374 1.226 . S
C385 O375 1.307 . S
C386 O378 1.303 . S
C386 O379 1.247 . S
C387 O376 1.253 . S
C387 O377 1.283 . S
C388 O380 1.304 . S
C388 O382 1.272 . S
C389 O381 1.311 . S
C389 O383 1.231 . S
O390 Zn372 1.953 1_565 S
O390 C384 1.298 . S
O391 Zn392 1.953 . S
O391 C407 1.225 . S
Zn392 O391 1.953 . S
Zn392 O393 1.949 . S
Zn392 O399 1.919 . S
Zn392 O404 1.924 . S
O393 Zn392 1.949 . S
O393 Zn394 1.923 . S
O393 Zn395 1.950 . S
O393 Zn396 1.945 . S
Zn394 O393 1.923 . S
Zn394 O397 1.933 . S
Zn394 O400 1.941 . S
Zn394 O401 1.965 . S
Zn395 O393 1.950 . S
Zn395 O402 1.938 . S
Zn395 O403 1.906 . S
Zn395 O413 1.953 . S
Zn396 O393 1.945 . S
Zn396 O398 1.932 . S
Zn396 O405 1.977 . S
Zn396 O406 1.910 . S
O397 Zn394 1.933 . S
O397 C408 1.226 . S
O398 Zn396 1.932 . S
O398 C408 1.307 . S
O399 Zn392 1.919 . S
O399 C410 1.253 . S
O400 Zn394 1.941 . S
O400 C410 1.283 . S
O401 Zn394 1.965 . S
O401 C409 1.303 . S
O402 Zn395 1.938 . S
O402 C409 1.247 . S
O403 Zn395 1.906 . S
O403 C411 1.304 . S
O404 Zn392 1.924 . S
O404 C412 1.311 . S
O405 Zn396 1.977 . S
O405 C411 1.272 . S
O406 Zn396 1.910 . S
O406 C412 1.231 . S
C407 O391 1.225 . S
C407 O413 1.298 . S
C408 O397 1.226 . S
C408 O398 1.307 . S
C409 O401 1.303 . S
C409 O402 1.247 . S
C410 O399 1.253 . S
C410 O400 1.283 . S
C411 O403 1.304 . S
C411 O405 1.272 . S
C412 O404 1.311 . S
C412 O406 1.231 . S
O413 Zn395 1.953 . S
O413 C407 1.298 . S
O414 Zn415 1.953 . S
O414 C430 1.225 . S
Zn415 O414 1.953 . S
Zn415 O416 1.949 . S
Zn415 O422 1.919 . S
Zn415 O427 1.924 . S
O416 Zn415 1.949 . S
O416 Zn417 1.923 . S
O416 Zn418 1.950 . S
O416 Zn419 1.945 . S
Zn417 O416 1.923 . S
Zn417 O420 1.933 . S
Zn417 O423 1.941 . S
Zn417 O424 1.965 . S
Zn418 O416 1.950 . S
Zn418 O425 1.938 . S
Zn418 O426 1.906 . S
Zn418 O436 1.953 . S
Zn419 O416 1.945 . S
Zn419 O421 1.932 . S
Zn419 O428 1.977 . S
Zn419 O429 1.910 . S
O420 Zn417 1.933 . S
O420 C431 1.226 . S
O421 Zn419 1.932 . S
O421 C431 1.307 . S
O422 Zn415 1.919 . S
O422 C433 1.253 . S
O423 Zn417 1.941 . S
O423 C433 1.283 . S
O424 Zn417 1.965 . S
O424 C432 1.303 . S
O425 Zn418 1.938 . S
O425 C432 1.247 . S
O426 Zn418 1.906 . S
O426 C434 1.304 . S
O427 Zn415 1.924 . S
O427 C435 1.311 . S
O428 Zn419 1.977 . S
O428 C434 1.272 . S
O429 Zn419 1.910 . S
O429 C435 1.231 . S
C430 O414 1.225 . S
C430 O436 1.298 . S
C431 O420 1.226 . S
C431 O421 1.307 . S
C432 O424 1.303 . S
C432 O425 1.247 . S
C433 O422 1.253 . S
C433 O423 1.283 . S
C434 O426 1.304 . S
C434 O428 1.272 . S
C435 O427 1.311 . S
C435 O429 1.231 . S
O436 Zn418 1.953 . S
O436 C430 1.298 . S
O437 Zn438 1.953 1_565 S
O437 C453 1.225 . S
Zn438 O437 1.953 1_545 S
Zn438 O439 1.949 . S
Zn438 O445 1.919 . S
Zn438 O450 1.924 . S
O439 Zn438 1.949 . S
O439 Zn440 1.923 . S
O439 Zn441 1.950 . S
O439 Zn442 1.945 . S
Zn440 O439 1.923 . S
Zn440 O443 1.933 . S
Zn440 O446 1.941 . S
Zn440 O447 1.965 . S
Zn441 O439 1.950 . S
Zn441 O448 1.938 . S
Zn441 O449 1.906 . S
Zn441 O459 1.953 1_545 S
Zn442 O439 1.945 . S
Zn442 O444 1.932 . S
Zn442 O451 1.977 . S
Zn442 O452 1.910 . S
O443 Zn440 1.933 . S
O443 C454 1.226 . S
O444 Zn442 1.932 . S
O444 C454 1.307 . S
O445 Zn438 1.919 . S
O445 C456 1.253 . S
O446 Zn440 1.941 . S
O446 C456 1.283 . S
O447 Zn440 1.965 . S
O447 C455 1.303 . S
O448 Zn441 1.938 . S
O448 C455 1.247 . S
O449 Zn441 1.906 . S
O449 C457 1.304 . S
O450 Zn438 1.924 . S
O450 C458 1.311 . S
O451 Zn442 1.977 . S
O451 C457 1.272 . S
O452 Zn442 1.910 . S
O452 C458 1.231 . S
C453 O437 1.225 . S
C453 O459 1.298 . S
C454 O443 1.226 . S
C454 O444 1.307 . S
C455 O447 1.303 . S
C455 O448 1.247 . S
C456 O445 1.253 . S
C456 O446 1.283 . S
C457 O449 1.304 . S
C457 O451 1.272 . S
C458 O450 1.311 . S
C458 O452 1.231 . S
O459 Zn441 1.953 1_565 S
O459 C453 1.298 . S
O460 Zn461 1.953 1_545 S
O460 C476 1.225 . S
Zn461 O460 1.953 1_565 S
Zn461 O462 1.949 . S
Zn461 O468 1.919 . S
Zn461 O473 1.924 . S
O462 Zn461 1.949 . S
O462 Zn463 1.923 . S
O462 Zn464 1.950 . S
O462 Zn465 1.945 . S
Zn463 O462 1.923 . S
Zn463 O466 1.933 . S
Zn463 O469 1.941 . S
Zn463 O470 1.965 . S
Zn464 O462 1.950 . S
Zn464 O471 1.938 . S
Zn464 O472 1.906 . S
Zn464 O482 1.953 1_565 S
Zn465 O462 1.945 . S
Zn465 O467 1.932 . S
Zn465 O474 1.977 . S
Zn465 O475 1.910 . S
O466 Zn463 1.933 . S
O466 C477 1.226 . S
O467 Zn465 1.932 . S
O467 C477 1.307 . S
O468 Zn461 1.919 . S
O468 C479 1.253 . S
O469 Zn463 1.941 . S
O469 C479 1.283 . S
O470 Zn463 1.965 . S
O470 C478 1.303 . S
O471 Zn464 1.938 . S
O471 C478 1.247 . S
O472 Zn464 1.906 . S
O472 C480 1.304 . S
O473 Zn461 1.924 . S
O473 C481 1.311 . S
O474 Zn465 1.977 . S
O474 C480 1.272 . S
O475 Zn465 1.910 . S
O475 C481 1.231 . S
C476 O460 1.225 . S
C476 O482 1.298 . S
C477 O466 1.226 . S
C477 O467 1.307 . S
C478 O470 1.303 . S
C478 O471 1.247 . S
C479 O468 1.253 . S
C479 O469 1.283 . S
C480 O472 1.304 . S
C480 O474 1.272 . S
C481 O473 1.311 . S
C481 O475 1.231 . S
O482 Zn464 1.953 1_545 S
O482 C476 1.298 . S
O483 Zn484 1.953 . S
O483 C499 1.225 . S
Zn484 O483 1.953 . S
Zn484 O485 1.949 . S
Zn484 O491 1.919 . S
Zn484 O496 1.924 . S
O485 Zn484 1.949 . S
O485 Zn486 1.923 . S
O485 Zn487 1.950 . S
O485 Zn488 1.945 . S
Zn486 O485 1.923 . S
Zn486 O489 1.933 . S
Zn486 O492 1.941 . S
Zn486 O493 1.965 . S
Zn487 O485 1.950 . S
Zn487 O494 1.938 . S
Zn487 O495 1.906 . S
Zn487 O505 1.953 . S
Zn488 O485 1.945 . S
Zn488 O490 1.932 . S
Zn488 O497 1.977 . S
Zn488 O498 1.910 . S
O489 Zn486 1.933 . S
O489 C500 1.226 . S
O490 Zn488 1.932 . S
O490 C500 1.307 . S
O491 Zn484 1.919 . S
O491 C502 1.253 . S
O492 Zn486 1.941 . S
O492 C502 1.283 . S
O493 Zn486 1.965 . S
O493 C501 1.303 . S
O494 Zn487 1.938 . S
O494 C501 1.247 . S
O495 Zn487 1.906 . S
O495 C503 1.304 . S
O496 Zn484 1.924 . S
O496 C504 1.311 . S
O497 Zn488 1.977 . S
O497 C503 1.272 . S
O498 Zn488 1.910 . S
O498 C504 1.231 . S
C499 O483 1.225 . S
C499 O505 1.298 . S
C500 O489 1.226 . S
C500 O490 1.307 . S
C501 O493 1.303 . S
C501 O494 1.247 . S
C502 O491 1.253 . S
C502 O492 1.283 . S
C503 O495 1.304 . S
C503 O497 1.272 . S
C504 O496 1.311 . S
C504 O498 1.231 . S
O505 Zn487 1.953 . S
O505 C499 1.298 . S
O506 Zn507 1.953 . S
O506 C522 1.225 . S
Zn507 O506 1.953 . S
Zn507 O508 1.949 . S
Zn507 O514 1.919 . S
Zn507 O519 1.924 . S
O508 Zn507 1.949 . S
O508 Zn509 1.923 . S
O508 Zn510 1.950 . S
O508 Zn511 1.945 . S
Zn509 O508 1.923 . S
Zn509 O512 1.933 . S
Zn509 O515 1.941 . S
Zn509 O516 1.965 . S
Zn510 O508 1.950 . S
Zn510 O517 1.938 . S
Zn510 O518 1.906 . S
Zn510 O528 1.953 . S
Zn511 O508 1.945 . S
Zn511 O513 1.932 . S
Zn511 O520 1.977 . S
Zn511 O521 1.910 . S
O512 Zn509 1.933 . S
O512 C523 1.226 . S
O513 Zn511 1.932 . S
O513 C523 1.307 . S
O514 Zn507 1.919 . S
O514 C525 1.253 . S
O515 Zn509 1.941 . S
O515 C525 1.283 . S
O516 Zn509 1.965 . S
O516 C524 1.303 . S
O517 Zn510 1.938 . S
O517 C524 1.247 . S
O518 Zn510 1.906 . S
O518 C526 1.304 . S
O519 Zn507 1.924 . S
O519 C527 1.311 . S
O520 Zn511 1.977 . S
O520 C526 1.272 . S
O521 Zn511 1.910 . S
O521 C527 1.231 . S
C522 O506 1.225 . S
C522 O528 1.298 . S
C523 O512 1.226 . S
C523 O513 1.307 . S
C524 O516 1.303 . S
C524 O517 1.247 . S
C525 O514 1.253 . S
C525 O515 1.283 . S
C526 O518 1.304 . S
C526 O520 1.272 . S
C527 O519 1.311 . S
C527 O521 1.231 . S
O528 Zn510 1.953 . S
O528 C522 1.298 . S
O529 Zn530 1.953 1_545 S
O529 C545 1.225 . S
Zn530 O529 1.953 1_565 S
Zn530 O531 1.949 . S
Zn530 O537 1.919 . S
Zn530 O542 1.924 . S
O531 Zn530 1.949 . S
O531 Zn532 1.923 . S
O531 Zn533 1.950 . S
O531 Zn534 1.945 . S
Zn532 O531 1.923 . S
Zn532 O535 1.933 . S
Zn532 O538 1.941 . S
Zn532 O539 1.965 . S
Zn533 O531 1.950 . S
Zn533 O540 1.938 . S
Zn533 O541 1.906 . S
Zn533 O551 1.953 1_565 S
Zn534 O531 1.945 . S
Zn534 O536 1.932 . S
Zn534 O543 1.977 . S
Zn534 O544 1.910 . S
O535 Zn532 1.933 . S
O535 C546 1.226 . S
O536 Zn534 1.932 . S
O536 C546 1.307 . S
O537 Zn530 1.919 . S
O537 C548 1.253 . S
O538 Zn532 1.941 . S
O538 C548 1.283 . S
O539 Zn532 1.965 . S
O539 C547 1.303 . S
O540 Zn533 1.938 . S
O540 C547 1.247 . S
O541 Zn533 1.906 . S
O541 C549 1.304 . S
O542 Zn530 1.924 . S
O542 C550 1.311 . S
O543 Zn534 1.977 . S
O543 C549 1.272 . S
O544 Zn534 1.910 . S
O544 C550 1.231 . S
C545 O529 1.225 . S
C545 O551 1.298 . S
C546 O535 1.226 . S
C546 O536 1.307 . S
C547 O539 1.303 . S
C547 O540 1.247 . S
C548 O537 1.253 . S
C548 O538 1.283 . S
C549 O541 1.304 . S
C549 O543 1.272 . S
C550 O542 1.311 . S
C550 O544 1.231 . S
O551 Zn533 1.953 1_545 S
O551 C545 1.298 . S
O552 Zn553 1.953 . S
O552 C568 1.225 1_556 S
Zn553 O552 1.953 . S
Zn553 O554 1.930 1_556 S
Zn553 O560 1.919 . S
Zn553 O565 1.924 . S
O554 Zn553 1.930 1_554 S
O554 Zn555 1.909 1_554 S
O554 Zn556 1.970 . S
O554 Zn557 1.957 . S
Zn555 O554 1.909 1_556 S
Zn555 O558 1.933 . S
Zn555 O561 1.941 . S
Zn555 O562 1.965 . S
Zn556 O554 1.970 . S
Zn556 O563 1.938 . S
Zn556 O564 1.906 . S
Zn556 O574 1.953 . S
Zn557 O554 1.957 . S
Zn557 O559 1.932 . S
Zn557 O566 1.977 . S
Zn557 O567 1.910 . S
O558 Zn555 1.933 . S
O558 C569 1.226 . S
O559 Zn557 1.932 . S
O559 C569 1.307 1_554 S
O560 Zn553 1.919 . S
O560 C571 1.253 . S
O561 Zn555 1.941 . S
O561 C571 1.283 . S
O562 Zn555 1.965 . S
O562 C570 1.303 1_556 S
O563 Zn556 1.938 . S
O563 C570 1.247 . S
O564 Zn556 1.906 . S
O564 C572 1.304 . S
O565 Zn553 1.924 . S
O565 C573 1.287 1_556 S
O566 Zn557 1.977 . S
O566 C572 1.272 . S
O567 Zn557 1.910 . S
O567 C573 1.249 . S
C568 O552 1.225 1_554 S
C568 O574 1.298 . S
C569 O558 1.226 . S
C569 O559 1.307 1_556 S
C570 O562 1.303 1_554 S
C570 O563 1.247 . S
C571 O560 1.253 . S
C571 O561 1.283 . S
C572 O564 1.304 . S
C572 O566 1.272 . S
C573 O565 1.287 1_554 S
C573 O567 1.249 . S
O574 Zn556 1.953 . S
O574 C568 1.298 . S
O575 Zn576 1.953 . S
O575 C591 1.225 1_556 S
Zn576 O575 1.953 . S
Zn576 O577 1.930 1_556 S
Zn576 O583 1.919 . S
Zn576 O588 1.924 . S
O577 Zn576 1.930 1_554 S
O577 Zn578 1.909 1_554 S
O577 Zn579 1.970 . S
O577 Zn580 1.957 . S
Zn578 O577 1.909 1_556 S
Zn578 O581 1.933 . S
Zn578 O584 1.941 . S
Zn578 O585 1.965 . S
Zn579 O577 1.970 . S
Zn579 O586 1.938 . S
Zn579 O587 1.906 . S
Zn579 O597 1.953 . S
Zn580 O577 1.957 . S
Zn580 O582 1.932 . S
Zn580 O589 1.977 . S
Zn580 O590 1.910 . S
O581 Zn578 1.933 . S
O581 C592 1.226 . S
O582 Zn580 1.932 . S
O582 C592 1.307 1_554 S
O583 Zn576 1.919 . S
O583 C594 1.253 . S
O584 Zn578 1.941 . S
O584 C594 1.283 . S
O585 Zn578 1.965 . S
O585 C593 1.303 1_556 S
O586 Zn579 1.938 . S
O586 C593 1.247 . S
O587 Zn579 1.906 . S
O587 C595 1.304 . S
O588 Zn576 1.924 . S
O588 C596 1.287 1_556 S
O589 Zn580 1.977 . S
O589 C595 1.272 . S
O590 Zn580 1.910 . S
O590 C596 1.249 . S
C591 O575 1.225 1_554 S
C591 O597 1.298 . S
C592 O581 1.226 . S
C592 O582 1.307 1_556 S
C593 O585 1.303 1_554 S
C593 O586 1.247 . S
C594 O583 1.253 . S
C594 O584 1.283 . S
C595 O587 1.304 . S
C595 O589 1.272 . S
C596 O588 1.287 1_554 S
C596 O590 1.249 . S
O597 Zn579 1.953 . S
O597 C591 1.298 . S
O598 Zn599 1.953 . S
O598 C614 1.225 . S
Zn599 O598 1.953 . S
Zn599 O600 1.949 . S
Zn599 O606 1.919 . S
Zn599 O611 1.924 . S
O600 Zn599 1.949 . S
O600 Zn601 1.923 . S
O600 Zn602 1.950 . S
O600 Zn603 1.945 . S
Zn601 O600 1.923 . S
Zn601 O604 1.933 . S
Zn601 O607 1.941 . S
Zn601 O608 1.965 . S
Zn602 O600 1.950 . S
Zn602 O609 1.938 . S
Zn602 O610 1.906 . S
Zn602 O620 1.953 . S
Zn603 O600 1.945 . S
Zn603 O605 1.932 . S
Zn603 O612 1.977 . S
Zn603 O613 1.910 . S
O604 Zn601 1.933 . S
O604 C615 1.226 . S
O605 Zn603 1.932 . S
O605 C615 1.307 . S
O606 Zn599 1.919 . S
O606 C617 1.253 . S
O607 Zn601 1.941 . S
O607 C617 1.283 . S
O608 Zn601 1.965 . S
O608 C616 1.303 . S
O609 Zn602 1.938 . S
O609 C616 1.247 . S
O610 Zn602 1.906 . S
O610 C618 1.304 . S
O611 Zn599 1.924 . S
O611 C619 1.311 . S
O612 Zn603 1.977 . S
O612 C618 1.272 . S
O613 Zn603 1.910 . S
O613 C619 1.231 . S
C614 O598 1.225 . S
C614 O620 1.298 . S
C615 O604 1.226 . S
C615 O605 1.307 . S
C616 O608 1.303 . S
C616 O609 1.247 . S
C617 O606 1.253 . S
C617 O607 1.283 . S
C618 O610 1.304 . S
C618 O612 1.272 . S
C619 O611 1.311 . S
C619 O613 1.231 . S
O620 Zn602 1.953 . S
O620 C614 1.298 . S
O621 Zn622 1.953 . S
O621 C637 1.225 . S
Zn622 O621 1.953 . S
Zn622 O623 1.949 . S
Zn622 O629 1.919 . S
Zn622 O634 1.924 . S
O623 Zn622 1.949 . S
O623 Zn624 1.923 . S
O623 Zn625 1.950 . S
O623 Zn626 1.945 . S
Zn624 O623 1.923 . S
Zn624 O627 1.933 . S
Zn624 O630 1.941 . S
Zn624 O631 1.965 . S
Zn625 O623 1.950 . S
Zn625 O632 1.938 . S
Zn625 O633 1.906 . S
Zn625 O643 1.953 . S
Zn626 O623 1.945 . S
Zn626 O628 1.932 . S
Zn626 O635 1.977 . S
Zn626 O636 1.910 . S
O627 Zn624 1.933 . S
O627 C638 1.226 . S
O628 Zn626 1.932 . S
O628 C638 1.307 . S
O629 Zn622 1.919 . S
O629 C640 1.253 . S
O630 Zn624 1.941 . S
O630 C640 1.283 . S
O631 Zn624 1.965 . S
O631 C639 1.303 . S
O632 Zn625 1.938 . S
O632 C639 1.247 . S
O633 Zn625 1.906 . S
O633 C641 1.304 . S
O634 Zn622 1.924 . S
O634 C642 1.311 . S
O635 Zn626 1.977 . S
O635 C641 1.272 . S
O636 Zn626 1.910 . S
O636 C642 1.231 . S
C637 O621 1.225 . S
C637 O643 1.298 . S
C638 O627 1.226 . S
C638 O628 1.307 . S
C639 O631 1.303 . S
C639 O632 1.247 . S
C640 O629 1.253 . S
C640 O630 1.283 . S
C641 O633 1.304 . S
C641 O635 1.272 . S
C642 O634 1.311 . S
C642 O636 1.231 . S
O643 Zn625 1.953 . S
O643 C637 1.298 . S
O644 Zn645 1.953 . S
O644 C660 1.225 . S
Zn645 O644 1.953 . S
Zn645 O646 1.935 1_556 S
Zn645 O652 1.919 . S
Zn645 O657 1.924 . S
O646 Zn645 1.935 1_554 S
O646 Zn647 1.915 1_554 S
O646 Zn648 1.963 . S
O646 Zn649 1.953 . S
Zn647 O646 1.915 1_556 S
Zn647 O650 1.933 . S
Zn647 O653 1.941 . S
Zn647 O654 1.965 . S
Zn648 O646 1.963 . S
Zn648 O655 1.938 . S
Zn648 O656 1.906 . S
Zn648 O666 1.953 . S
Zn649 O646 1.953 . S
Zn649 O651 1.932 . S
Zn649 O658 1.977 . S
Zn649 O659 1.910 . S
O650 Zn647 1.933 . S
O650 C661 1.226 1_556 S
O651 Zn649 1.932 . S
O651 C661 1.307 . S
O652 Zn645 1.919 . S
O652 C663 1.253 . S
O653 Zn647 1.941 . S
O653 C663 1.283 . S
O654 Zn647 1.965 . S
O654 C662 1.303 1_556 S
O655 Zn648 1.938 . S
O655 C662 1.247 . S
O656 Zn648 1.906 . S
O656 C664 1.304 . S
O657 Zn645 1.924 . S
O657 C665 1.311 . S
O658 Zn649 1.977 . S
O658 C664 1.272 . S
O659 Zn649 1.910 . S
O659 C665 1.231 1_554 S
C660 O644 1.225 . S
C660 O666 1.298 1_556 S
C661 O650 1.226 1_554 S
C661 O651 1.307 . S
C662 O654 1.303 1_554 S
C662 O655 1.247 . S
C663 O652 1.253 . S
C663 O653 1.283 . S
C664 O656 1.304 . S
C664 O658 1.272 . S
C665 O657 1.311 . S
C665 O659 1.231 1_556 S
O666 Zn648 1.953 . S
O666 C660 1.298 1_554 S
O667 Zn668 1.953 . S
O667 C683 1.225 . S
Zn668 O667 1.953 . S
Zn668 O669 1.935 1_556 S
Zn668 O675 1.919 . S
Zn668 O680 1.924 . S
O669 Zn668 1.935 1_554 S
O669 Zn670 1.915 1_554 S
O669 Zn671 1.963 . S
O669 Zn672 1.953 . S
Zn670 O669 1.915 1_556 S
Zn670 O673 1.933 . S
Zn670 O676 1.941 . S
Zn670 O677 1.965 . S
Zn671 O669 1.963 . S
Zn671 O678 1.938 . S
Zn671 O679 1.906 . S
Zn671 O689 1.953 . S
Zn672 O669 1.953 . S
Zn672 O674 1.932 . S
Zn672 O681 1.977 . S
Zn672 O682 1.910 . S
O673 Zn670 1.933 . S
O673 C684 1.226 1_556 S
O674 Zn672 1.932 . S
O674 C684 1.307 . S
O675 Zn668 1.919 . S
O675 C686 1.253 . S
O676 Zn670 1.941 . S
O676 C686 1.283 . S
O677 Zn670 1.965 . S
O677 C685 1.303 1_556 S
O678 Zn671 1.938 . S
O678 C685 1.247 . S
O679 Zn671 1.906 . S
O679 C687 1.304 . S
O680 Zn668 1.924 . S
O680 C688 1.311 . S
O681 Zn672 1.977 . S
O681 C687 1.272 . S
O682 Zn672 1.910 . S
O682 C688 1.231 1_554 S
C683 O667 1.225 . S
C683 O689 1.298 1_556 S
C684 O673 1.226 1_554 S
C684 O674 1.307 . S
C685 O677 1.303 1_554 S
C685 O678 1.247 . S
C686 O675 1.253 . S
C686 O676 1.283 . S
C687 O679 1.304 . S
C687 O681 1.272 . S
C688 O680 1.311 . S
C688 O682 1.231 1_556 S
O689 Zn671 1.953 . S
O689 C683 1.298 1_554 S
O690 Zn691 1.953 . S
O690 C706 1.225 . S
Zn691 O690 1.953 . S
Zn691 O692 1.949 . S
Zn691 O698 1.919 . S
Zn691 O703 1.924 . S
O692 Zn691 1.949 . S
O692 Zn693 1.923 . S
O692 Zn694 1.950 . S
O692 Zn695 1.945 . S
Zn693 O692 1.923 . S
Zn693 O696 1.933 . S
Zn693 O699 1.941 . S
Zn693 O700 1.965 . S
Zn694 O692 1.950 . S
Zn694 O701 1.938 . S
Zn694 O702 1.906 . S
Zn694 O712 1.953 . S
Zn695 O692 1.945 . S
Zn695 O697 1.932 . S
Zn695 O704 1.977 . S
Zn695 O705 1.910 . S
O696 Zn693 1.933 . S
O696 C707 1.226 . S
O697 Zn695 1.932 . S
O697 C707 1.307 . S
O698 Zn691 1.919 . S
O698 C709 1.253 . S
O699 Zn693 1.941 . S
O699 C709 1.283 . S
O700 Zn693 1.965 . S
O700 C708 1.303 . S
O701 Zn694 1.938 . S
O701 C708 1.247 . S
O702 Zn694 1.906 . S
O702 C710 1.304 . S
O703 Zn691 1.924 . S
O703 C711 1.311 . S
O704 Zn695 1.977 . S
O704 C710 1.272 . S
O705 Zn695 1.910 . S
O705 C711 1.231 . S
C706 O690 1.225 . S
C706 O712 1.298 . S
C707 O696 1.226 . S
C707 O697 1.307 . S
C708 O700 1.303 . S
C708 O701 1.247 . S
C709 O698 1.253 . S
C709 O699 1.283 . S
C710 O702 1.304 . S
C710 O704 1.272 . S
C711 O703 1.311 . S
C711 O705 1.231 . S
O712 Zn694 1.953 . S
O712 C706 1.298 . S
O713 Zn714 1.953 . S
O713 C729 1.225 . S
Zn714 O713 1.953 . S
Zn714 O715 1.949 . S
Zn714 O721 1.919 . S
Zn714 O726 1.924 . S
O715 Zn714 1.949 . S
O715 Zn716 1.923 . S
O715 Zn717 1.950 . S
O715 Zn718 1.945 . S
Zn716 O715 1.923 . S
Zn716 O719 1.933 . S
Zn716 O722 1.941 . S
Zn716 O723 1.965 . S
Zn717 O715 1.950 . S
Zn717 O724 1.938 . S
Zn717 O725 1.906 . S
Zn717 O735 1.953 . S
Zn718 O715 1.945 . S
Zn718 O720 1.932 . S
Zn718 O727 1.977 . S
Zn718 O728 1.910 . S
O719 Zn716 1.933 . S
O719 C730 1.226 . S
O720 Zn718 1.932 . S
O720 C730 1.307 . S
O721 Zn714 1.919 . S
O721 C732 1.253 . S
O722 Zn716 1.941 . S
O722 C732 1.283 . S
O723 Zn716 1.965 . S
O723 C731 1.303 . S
O724 Zn717 1.938 . S
O724 C731 1.247 . S
O725 Zn717 1.906 . S
O725 C733 1.304 . S
O726 Zn714 1.924 . S
O726 C734 1.311 . S
O727 Zn718 1.977 . S
O727 C733 1.272 . S
O728 Zn718 1.910 . S
O728 C734 1.231 . S
C729 O713 1.225 . S
C729 O735 1.298 . S
C730 O719 1.226 . S
C730 O720 1.307 . S
C731 O723 1.303 . S
C731 O724 1.247 . S
C732 O721 1.253 . S
C732 O722 1.283 . S
C733 O725 1.304 . S
C733 O727 1.272 . S
C734 O726 1.311 . S
C734 O728 1.231 . S
O735 Zn717 1.953 . S
O735 C729 1.298 . S
C736 C737 1.387 1_556 S
C736 H740 0.950 . S
C736 C745 1.390 . S
C737 C736 1.387 1_554 S
C737 C739 1.387 . S
H738 C745 0.950 . S
C739 C737 1.387 . S
C739 C741 1.390 . S
C739 H743 0.950 . S
H740 C736 0.950 . S
C741 C739 1.390 . S
C741 C742 1.387 . S
C741 H744 0.950 . S
C742 C741 1.387 . S
C742 C745 1.387 1_554 S
H743 C739 0.950 . S
H744 C741 0.950 . S
C745 C736 1.390 . S
C745 H738 0.950 . S
C745 C742 1.387 1_556 S
C746 C747 1.387 1_556 S
C746 H750 0.950 . S
C746 C755 1.390 . S
C747 C746 1.387 1_554 S
C747 C749 1.387 . S
H748 C755 0.950 . S
C749 C747 1.387 . S
C749 C751 1.390 . S
C749 H753 0.950 . S
H750 C746 0.950 . S
C751 C749 1.390 . S
C751 C752 1.387 . S
C751 H754 0.950 . S
C752 C751 1.387 . S
C752 C755 1.387 1_554 S
H753 C749 0.950 . S
H754 C751 0.950 . S
C755 C746 1.390 . S
C755 H748 0.950 . S
C755 C752 1.387 1_556 S
C756 C757 1.387 . S
C756 H760 0.950 . S
C756 C765 1.390 . S
C757 C756 1.387 . S
C757 C759 1.387 . S
H758 C765 0.950 . S
C759 C757 1.387 . S
C759 C761 1.390 . S
C759 H763 0.950 . S
H760 C756 0.950 . S
C761 C759 1.390 . S
C761 C762 1.387 . S
C761 H764 0.950 . S
C762 C761 1.387 . S
C762 C765 1.387 . S
H763 C759 0.950 . S
H764 C761 0.950 . S
C765 C756 1.390 . S
C765 H758 0.950 . S
C765 C762 1.387 . S
C766 C767 1.387 . S
C766 H770 0.950 . S
C766 C775 1.390 . S
C767 C766 1.387 . S
C767 C769 1.387 . S
H768 C775 0.950 . S
C769 C767 1.387 . S
C769 C771 1.390 . S
C769 H773 0.950 . S
H770 C766 0.950 . S
C771 C769 1.390 . S
C771 C772 1.387 . S
C771 H774 0.950 . S
C772 C771 1.387 . S
C772 C775 1.387 . S
H773 C769 0.950 . S
H774 C771 0.950 . S
C775 C766 1.390 . S
C775 H768 0.950 . S
C775 C772 1.387 . S
C776 C777 1.387 1_554 S
C776 H780 0.950 . S
C776 C785 1.390 . S
C777 C776 1.387 1_556 S
C777 C779 1.387 . S
H778 C785 0.950 . S
C779 C777 1.387 . S
C779 C781 1.390 . S
C779 H783 0.950 . S
H780 C776 0.950 . S
C781 C779 1.390 . S
C781 C782 1.387 . S
C781 H784 0.950 . S
C782 C781 1.387 . S
C782 C785 1.387 1_556 S
H783 C779 0.950 . S
H784 C781 0.950 . S
C785 C776 1.390 . S
C785 H778 0.950 . S
C785 C782 1.387 1_554 S
C786 C787 1.387 . S
C786 H790 0.950 . S
C786 C795 1.390 . S
C787 C786 1.387 . S
C787 C789 1.387 1_556 S
H788 C795 0.950 . S
C789 C787 1.387 1_554 S
C789 C791 1.390 . S
C789 H793 0.950 . S
H790 C786 0.950 . S
C791 C789 1.390 . S
C791 C792 1.387 1_554 S
C791 H794 0.950 . S
C792 C791 1.387 1_556 S
C792 C795 1.387 . S
H793 C789 0.950 . S
H794 C791 0.950 . S
C795 C786 1.390 . S
C795 H788 0.950 . S
C795 C792 1.387 . S
C796 C797 1.387 . S
C796 H800 0.950 . S
C796 C805 1.390 . S
C797 C796 1.387 . S
C797 C799 1.387 . S
H798 C805 0.950 . S
C799 C797 1.387 . S
C799 C801 1.390 . S
C799 H803 0.950 . S
H800 C796 0.950 . S
C801 C799 1.390 . S
C801 C802 1.387 . S
C801 H804 0.950 . S
C802 C801 1.387 . S
C802 C805 1.387 . S
H803 C799 0.950 . S
H804 C801 0.950 . S
C805 C796 1.390 . S
C805 H798 0.950 . S
C805 C802 1.387 . S
C806 C807 1.387 . S
C806 H810 0.950 . S
C806 C815 1.390 . S
C807 C806 1.387 . S
C807 C809 1.387 . S
H808 C815 0.950 . S
C809 C807 1.387 . S
C809 C811 1.390 . S
C809 H813 0.950 . S
H810 C806 0.950 . S
C811 C809 1.390 . S
C811 C812 1.387 . S
C811 H814 0.950 . S
C812 C811 1.387 . S
C812 C815 1.387 . S
H813 C809 0.950 . S
H814 C811 0.950 . S
C815 C806 1.390 . S
C815 H808 0.950 . S
C815 C812 1.387 . S
C816 C817 1.387 . S
C816 H820 0.950 . S
C816 C825 1.390 . S
C817 C816 1.387 . S
C817 C819 1.387 . S
H818 C825 0.950 . S
C819 C817 1.387 . S
C819 C821 1.390 . S
C819 H823 0.950 . S
H820 C816 0.950 . S
C821 C819 1.390 . S
C821 C822 1.387 . S
C821 H824 0.950 . S
C822 C821 1.387 . S
C822 C825 1.387 . S
H823 C819 0.950 . S
H824 C821 0.950 . S
C825 C816 1.390 . S
C825 H818 0.950 . S
C825 C822 1.387 . S
C826 C827 1.387 . S
C826 H830 0.950 . S
C826 C835 1.390 . S
C827 C826 1.387 . S
C827 C829 1.387 . S
H828 C835 0.950 . S
C829 C827 1.387 . S
C829 C831 1.390 . S
C829 H833 0.950 . S
H830 C826 0.950 . S
C831 C829 1.390 . S
C831 C832 1.387 . S
C831 H834 0.950 . S
C832 C831 1.387 . S
C832 C835 1.387 . S
H833 C829 0.950 . S
H834 C831 0.950 . S
C835 C826 1.390 . S
C835 H828 0.950 . S
C835 C832 1.387 . S
C836 C837 1.387 . S
C836 H840 0.950 . S
C836 C845 1.390 . S
C837 C836 1.387 . S
C837 C839 1.387 . S
H838 C845 0.950 . S
C839 C837 1.387 . S
C839 C841 1.390 . S
C839 H843 0.950 . S
H840 C836 0.950 . S
C841 C839 1.390 . S
C841 C842 1.387 . S
C841 H844 0.950 . S
C842 C841 1.387 . S
C842 C845 1.387 . S
H843 C839 0.950 . S
H844 C841 0.950 . S
C845 C836 1.390 . S
C845 H838 0.950 . S
C845 C842 1.387 . S
C846 C847 1.387 . S
C846 H850 0.950 . S
C846 C855 1.390 . S
C847 C846 1.387 . S
C847 C849 1.387 . S
H848 C855 0.950 . S
C849 C847 1.387 . S
C849 C851 1.390 . S
C849 H853 0.950 . S
H850 C846 0.950 . S
C851 C849 1.390 . S
C851 C852 1.387 . S
C851 H854 0.950 . S
C852 C851 1.387 . S
C852 C855 1.387 . S
H853 C849 0.950 . S
H854 C851 0.950 . S
C855 C846 1.390 . S
C855 H848 0.950 . S
C855 C852 1.387 . S
C856 C857 1.387 . S
C856 H860 0.950 . S
C856 C865 1.390 . S
C857 C856 1.387 . S
C857 C859 1.387 . S
H858 C865 0.950 . S
C859 C857 1.387 . S
C859 C861 1.390 . S
C859 H863 0.950 . S
H860 C856 0.950 . S
C861 C859 1.390 . S
C861 C862 1.387 . S
C861 H864 0.950 . S
C862 C861 1.387 . S
C862 C865 1.387 . S
H863 C859 0.950 . S
H864 C861 0.950 . S
C865 C856 1.390 . S
C865 H858 0.950 . S
C865 C862 1.387 . S
C866 C867 1.387 . S
C866 H870 0.950 . S
C866 C875 1.390 . S
C867 C866 1.387 . S
C867 C869 1.387 . S
H868 C875 0.950 . S
C869 C867 1.387 . S
C869 C871 1.390 . S
C869 H873 0.950 . S
H870 C866 0.950 . S
C871 C869 1.390 . S
C871 C872 1.387 . S
C871 H874 0.950 . S
C872 C871 1.387 . S
C872 C875 1.387 . S
H873 C869 0.950 . S
H874 C871 0.950 . S
C875 C866 1.390 . S
C875 H868 0.950 . S
C875 C872 1.387 . S
C876 C877 1.387 . S
C876 H880 0.950 . S
C876 C885 1.390 . S
C877 C876 1.387 . S
C877 C879 1.387 . S
H878 C885 0.950 . S
C879 C877 1.387 . S
C879 C881 1.390 . S
C879 H883 0.950 . S
H880 C876 0.950 . S
C881 C879 1.390 . S
C881 C882 1.387 . S
C881 H884 0.950 . S
C882 C881 1.387 . S
C882 C885 1.387 . S
H883 C879 0.950 . S
H884 C881 0.950 . S
C885 C876 1.390 . S
C885 H878 0.950 . S
C885 C882 1.387 . S
C886 C887 1.387 . S
C886 H890 0.950 . S
C886 C895 1.390 . S
C887 C886 1.387 . S
C887 C889 1.387 . S
H888 C895 0.950 . S
C889 C887 1.387 . S
C889 C891 1.390 . S
C889 H893 0.950 . S
H890 C886 0.950 . S
C891 C889 1.390 . S
C891 C892 1.387 . S
C891 H894 0.950 . S
C892 C891 1.387 . S
C892 C895 1.387 . S
H893 C889 0.950 . S
H894 C891 0.950 . S
C895 C886 1.390 . S
C895 H888 0.950 . S
C895 C892 1.387 . S
C896 C897 1.387 . S
C896 H900 0.950 . S
C896 C905 1.390 . S
C897 C896 1.387 . S
C897 C899 1.387 . S
H898 C905 0.950 . S
C899 C897 1.387 . S
C899 C901 1.390 . S
C899 H903 0.950 . S
H900 C896 0.950 . S
C901 C899 1.390 . S
C901 C902 1.387 . S
C901 H904 0.950 . S
C902 C901 1.387 . S
C902 C905 1.387 . S
H903 C899 0.950 . S
H904 C901 0.950 . S
C905 C896 1.390 . S
C905 H898 0.950 . S
C905 C902 1.387 . S
C906 C907 1.387 . S
C906 H910 0.950 . S
C906 C915 1.390 . S
C907 C906 1.387 . S
C907 C909 1.387 . S
H908 C915 0.950 . S
C909 C907 1.387 . S
C909 C911 1.390 . S
C909 H913 0.950 . S
H910 C906 0.950 . S
C911 C909 1.390 . S
C911 C912 1.387 . S
C911 H914 0.950 . S
C912 C911 1.387 . S
C912 C915 1.387 . S
H913 C909 0.950 . S
H914 C911 0.950 . S
C915 C906 1.390 . S
C915 H908 0.950 . S
C915 C912 1.387 . S
C916 C917 1.387 . S
C916 H920 0.950 . S
C916 C925 1.390 . S
C917 C916 1.387 . S
C917 C919 1.387 . S
H918 C925 0.950 . S
C919 C917 1.387 . S
C919 C921 1.390 . S
C919 H923 0.950 . S
H920 C916 0.950 . S
C921 C919 1.390 . S
C921 C922 1.387 . S
C921 H924 0.950 . S
C922 C921 1.387 . S
C922 C925 1.387 . S
H923 C919 0.950 . S
H924 C921 0.950 . S
C925 C916 1.390 . S
C925 H918 0.950 . S
C925 C922 1.387 . S
C926 C927 1.387 . S
C926 H930 0.950 . S
C926 C935 1.390 . S
C927 C926 1.387 . S
C927 C929 1.387 . S
H928 C935 0.950 . S
C929 C927 1.387 . S
C929 C931 1.390 . S
C929 H933 0.950 . S
H930 C926 0.950 . S
C931 C929 1.390 . S
C931 C932 1.387 . S
C931 H934 0.950 . S
C932 C931 1.387 . S
C932 C935 1.387 . S
H933 C929 0.950 . S
H934 C931 0.950 . S
C935 C926 1.390 . S
C935 H928 0.950 . S
C935 C932 1.387 . S
C936 C937 1.387 . S
C936 H940 0.950 . S
C936 C945 1.390 . S
C937 C936 1.387 . S
C937 C939 1.387 . S
H938 C945 0.950 . S
C939 C937 1.387 . S
C939 C941 1.390 . S
C939 H943 0.950 . S
H940 C936 0.950 . S
C941 C939 1.390 . S
C941 C942 1.387 . S
C941 H944 0.950 . S
C942 C941 1.387 . S
C942 C945 1.387 . S
H943 C939 0.950 . S
H944 C941 0.950 . S
C945 C936 1.390 . S
C945 H938 0.950 . S
C945 C942 1.387 . S
C946 C947 1.387 . S
C946 H950 0.950 . S
C946 C955 1.390 . S
C947 C946 1.387 . S
C947 C949 1.387 . S
H948 C955 0.950 . S
C949 C947 1.387 . S
C949 C951 1.390 . S
C949 H953 0.950 . S
H950 C946 0.950 . S
C951 C949 1.390 . S
C951 C952 1.387 . S
C951 H954 0.950 . S
C952 C951 1.387 . S
C952 C955 1.387 . S
H953 C949 0.950 . S
H954 C951 0.950 . S
C955 C946 1.390 . S
C955 H948 0.950 . S
C955 C952 1.387 . S
C956 C957 1.387 . S
C956 H960 0.950 . S
C956 C965 1.390 . S
C957 C956 1.387 . S
C957 C959 1.387 . S
H958 C965 0.950 . S
C959 C957 1.387 . S
C959 C961 1.390 . S
C959 H963 0.950 . S
H960 C956 0.950 . S
C961 C959 1.390 . S
C961 C962 1.387 . S
C961 H964 0.950 . S
C962 C961 1.387 . S
C962 C965 1.387 . S
H963 C959 0.950 . S
H964 C961 0.950 . S
C965 C956 1.390 . S
C965 H958 0.950 . S
C965 C962 1.387 . S
C966 C967 1.387 . S
C966 H970 0.950 . S
C966 C975 1.390 . S
C967 C966 1.387 . S
C967 C969 1.387 . S
H968 C975 0.950 . S
C969 C967 1.387 . S
C969 C971 1.390 . S
C969 H973 0.950 . S
H970 C966 0.950 . S
C971 C969 1.390 . S
C971 C972 1.387 . S
C971 H974 0.950 . S
C972 C971 1.387 . S
C972 C975 1.387 . S
H973 C969 0.950 . S
H974 C971 0.950 . S
C975 C966 1.390 . S
C975 H968 0.950 . S
C975 C972 1.387 . S
C976 C977 1.387 . S
C976 H980 0.950 . S
C976 C985 1.390 . S
C977 C976 1.387 . S
C977 C979 1.387 . S
H978 C985 0.950 . S
C979 C977 1.387 . S
C979 C981 1.390 . S
C979 H983 0.950 . S
H980 C976 0.950 . S
C981 C979 1.390 . S
C981 C982 1.387 . S
C981 H984 0.950 . S
C982 C981 1.387 . S
C982 C985 1.387 . S
H983 C979 0.950 . S
H984 C981 0.950 . S
C985 C976 1.390 . S
C985 H978 0.950 . S
C985 C982 1.387 . S
C986 C987 1.387 . S
C986 H990 0.950 . S
C986 C995 1.390 . S
C987 C986 1.387 . S
C987 C989 1.387 . S
H988 C995 0.950 . S
C989 C987 1.387 . S
C989 C991 1.390 . S
C989 H993 0.950 . S
H990 C986 0.950 . S
C991 C989 1.390 . S
C991 C992 1.387 . S
C991 H994 0.950 . S
C992 C991 1.387 . S
C992 C995 1.387 . S
H993 C989 0.950 . S
H994 C991 0.950 . S
C995 C986 1.390 . S
C995 H988 0.950 . S
C995 C992 1.387 . S
C996 C997 1.387 . S
C996 H1000 0.950 . S
C996 C1005 1.390 . S
C997 C996 1.387 . S
C997 C999 1.387 . S
H998 C1005 0.950 . S
C999 C997 1.387 . S
C999 C1001 1.390 . S
C999 H1003 0.950 . S
H1000 C996 0.950 . S
C1001 C999 1.390 . S
C1001 C1002 1.387 . S
C1001 H1004 0.950 . S
C1002 C1001 1.387 . S
C1002 C1005 1.387 . S
H1003 C999 0.950 . S
H1004 C1001 0.950 . S
C1005 C996 1.390 . S
C1005 H998 0.950 . S
C1005 C1002 1.387 . S
C1006 C1007 1.387 . S
C1006 H1010 0.950 . S
C1006 C1015 1.390 . S
C1007 C1006 1.387 . S
C1007 C1009 1.387 . S
H1008 C1015 0.950 . S
C1009 C1007 1.387 . S
C1009 C1011 1.390 . S
C1009 H1013 0.950 . S
H1010 C1006 0.950 . S
C1011 C1009 1.390 . S
C1011 C1012 1.387 . S
C1011 H1014 0.950 . S
C1012 C1011 1.387 . S
C1012 C1015 1.387 . S
H1013 C1009 0.950 . S
H1014 C1011 0.950 . S
C1015 C1006 1.390 . S
C1015 H1008 0.950 . S
C1015 C1012 1.387 . S
C1016 C1017 1.387 . S
C1016 H1020 0.950 . S
C1016 C1025 1.390 . S
C1017 C1016 1.387 . S
C1017 C1019 1.387 . S
H1018 C1025 0.950 . S
C1019 C1017 1.387 . S
C1019 C1021 1.390 . S
C1019 H1023 0.950 . S
H1020 C1016 0.950 . S
C1021 C1019 1.390 . S
C1021 C1022 1.387 . S
C1021 H1024 0.950 . S
C1022 C1021 1.387 . S
C1022 C1025 1.387 . S
H1023 C1019 0.950 . S
H1024 C1021 0.950 . S
C1025 C1016 1.390 . S
C1025 H1018 0.950 . S
C1025 C1022 1.387 . S
C1026 C1027 1.387 . S
C1026 H1030 0.950 . S
C1026 C1035 1.390 . S
C1027 C1026 1.387 . S
C1027 C1029 1.387 . S
H1028 C1035 0.950 . S
C1029 C1027 1.387 . S
C1029 C1031 1.390 . S
C1029 H1033 0.950 . S
H1030 C1026 0.950 . S
C1031 C1029 1.390 . S
C1031 C1032 1.387 . S
C1031 H1034 0.950 . S
C1032 C1031 1.387 . S
C1032 C1035 1.387 . S
H1033 C1029 0.950 . S
H1034 C1031 0.950 . S
C1035 C1026 1.390 . S
C1035 H1028 0.950 . S
C1035 C1032 1.387 . S
C1036 C1037 1.387 . S
C1036 H1040 0.950 . S
C1036 C1045 1.390 . S
C1037 C1036 1.387 . S
C1037 C1039 1.387 . S
H1038 C1045 0.950 . S
C1039 C1037 1.387 . S
C1039 C1041 1.390 . S
C1039 H1043 0.950 . S
H1040 C1036 0.950 . S
C1041 C1039 1.390 . S
C1041 C1042 1.387 . S
C1041 H1044 0.950 . S
C1042 C1041 1.387 . S
C1042 C1045 1.387 . S
H1043 C1039 0.950 . S
H1044 C1041 0.950 . S
C1045 C1036 1.390 . S
C1045 H1038 0.950 . S
C1045 C1042 1.387 . S
C1046 C1047 1.387 . S
C1046 H1050 0.950 . S
C1046 C1055 1.390 . S
C1047 C1046 1.387 . S
C1047 C1049 1.387 . S
H1048 C1055 0.950 . S
C1049 C1047 1.387 . S
C1049 C1051 1.390 . S
C1049 H1053 0.950 . S
H1050 C1046 0.950 . S
C1051 C1049 1.390 . S
C1051 C1052 1.387 . S
C1051 H1054 0.950 . S
C1052 C1051 1.387 . S
C1052 C1055 1.387 . S
H1053 C1049 0.950 . S
H1054 C1051 0.950 . S
C1055 C1046 1.390 . S
C1055 H1048 0.950 . S
C1055 C1052 1.387 . S
C1056 C1057 1.387 . S
C1056 H1060 0.950 . S
C1056 C1065 1.390 1_565 S
C1057 C1056 1.387 . S
C1057 C1059 1.387 1_556 S
H1058 C1065 0.950 . S
C1059 C1057 1.387 1_554 S
C1059 C1061 1.377 1_565 S
C1059 H1063 0.950 . S
H1060 C1056 0.950 . S
C1061 C1059 1.377 1_545 S
C1061 C1062 1.400 . S
C1061 H1064 0.950 . S
C1062 C1061 1.400 . S
C1062 C1065 1.387 1_554 S
H1063 C1059 0.950 . S
H1064 C1061 0.950 . S
C1065 C1056 1.390 1_545 S
C1065 H1058 0.950 . S
C1065 C1062 1.387 1_556 S
C1066 C1067 1.387 . S
C1066 H1070 0.950 . S
C1066 C1075 1.390 . S
C1067 C1066 1.387 . S
C1067 C1069 1.387 1_554 S
H1068 C1075 0.950 . S
C1069 C1067 1.387 1_556 S
C1069 C1071 1.390 . S
C1069 H1073 0.950 . S
H1070 C1066 0.950 . S
C1071 C1069 1.390 . S
C1071 C1072 1.387 . S
C1071 H1074 0.950 . S
C1072 C1071 1.387 . S
C1072 C1075 1.387 1_556 S
H1073 C1069 0.950 . S
H1074 C1071 0.950 . S
C1075 C1066 1.390 . S
C1075 H1068 0.950 . S
C1075 C1072 1.387 1_554 S
C1076 C1077 1.387 . S
C1076 H1080 0.950 . S
C1076 C1085 1.390 . S
C1077 C1076 1.387 . S
C1077 C1079 1.387 . S
H1078 C1085 0.950 . S
C1079 C1077 1.387 . S
C1079 C1081 1.390 . S
C1079 H1083 0.950 . S
H1080 C1076 0.950 . S
C1081 C1079 1.390 . S
C1081 C1082 1.387 . S
C1081 H1084 0.950 . S
C1082 C1081 1.387 . S
C1082 C1085 1.387 . S
H1083 C1079 0.950 . S
H1084 C1081 0.950 . S
C1085 C1076 1.390 . S
C1085 H1078 0.950 . S
C1085 C1082 1.387 . S
C1086 C1087 1.387 . S
C1086 H1090 0.950 . S
C1086 C1095 1.390 1_565 S
C1087 C1086 1.387 . S
C1087 C1089 1.387 . S
H1088 C1095 0.950 . S
C1089 C1087 1.387 . S
C1089 C1091 1.390 1_565 S
C1089 H1093 0.950 . S
H1090 C1086 0.950 . S
C1091 C1089 1.390 1_545 S
C1091 C1092 1.387 . S
C1091 H1094 0.950 . S
C1092 C1091 1.387 . S
C1092 C1095 1.387 . S
H1093 C1089 0.950 . S
H1094 C1091 0.950 . S
C1095 C1086 1.390 1_545 S
C1095 H1088 0.950 . S
C1095 C1092 1.387 . S
C1096 C1097 1.387 1_554 S
C1096 H1100 0.950 . S
C1096 C1105 1.390 . S
C1097 C1096 1.387 1_556 S
C1097 C1099 1.387 . S
H1098 C1105 0.950 . S
C1099 C1097 1.387 . S
C1099 C1101 1.390 . S
C1099 H1103 0.950 . S
H1100 C1096 0.950 . S
C1101 C1099 1.390 . S
C1101 C1102 1.387 1_556 S
C1101 H1104 0.950 . S
C1102 C1101 1.387 1_554 S
C1102 C1105 1.387 . S
H1103 C1099 0.950 . S
H1104 C1101 0.950 . S
C1105 C1096 1.390 . S
C1105 H1098 0.950 . S
C1105 C1102 1.387 . S
C1106 C1107 1.387 . S
C1106 H1110 0.950 . S
C1106 C1115 1.390 . S
C1107 C1106 1.387 . S
C1107 C1109 1.387 . S
H1108 C1115 0.950 . S
C1109 C1107 1.387 . S
C1109 C1111 1.390 . S
C1109 H1113 0.950 . S
H1110 C1106 0.950 . S
C1111 C1109 1.390 . S
C1111 C1112 1.387 . S
C1111 H1114 0.950 . S
C1112 C1111 1.387 . S
C1112 C1115 1.387 . S
H1113 C1109 0.950 . S
H1114 C1111 0.950 . S
C1115 C1106 1.390 . S
C1115 H1108 0.950 . S
C1115 C1112 1.387 . S
C1116 C1117 1.387 . S
C1116 H1120 0.950 . S
C1116 C1125 1.390 1_545 S
C1117 C1116 1.387 . S
C1117 C1119 1.387 . S
H1118 C1125 0.950 . S
C1119 C1117 1.387 . S
C1119 C1121 1.390 1_545 S
C1119 H1123 0.950 . S
H1120 C1116 0.950 . S
C1121 C1119 1.390 1_565 S
C1121 C1122 1.387 . S
C1121 H1124 0.950 . S
C1122 C1121 1.387 . S
C1122 C1125 1.387 . S
H1123 C1119 0.950 . S
H1124 C1121 0.950 . S
C1125 C1116 1.390 1_565 S
C1125 H1118 0.950 . S
C1125 C1122 1.387 . S
C1126 C1127 1.387 . S
C1126 H1130 0.950 . S
C1126 C1135 1.390 . S
C1127 C1126 1.387 . S
C1127 C1129 1.387 . S
H1128 C1135 0.950 . S
C1129 C1127 1.387 . S
C1129 C1131 1.390 . S
C1129 H1133 0.950 . S
H1130 C1126 0.950 . S
C1131 C1129 1.390 . S
C1131 C1132 1.387 . S
C1131 H1134 0.950 . S
C1132 C1131 1.387 . S
C1132 C1135 1.387 . S
H1133 C1129 0.950 . S
H1134 C1131 0.950 . S
C1135 C1126 1.390 . S
C1135 H1128 0.950 . S
C1135 C1132 1.387 . S
C1136 C1137 1.387 . S
C1136 H1140 0.950 . S
C1136 C1145 1.390 . S
C1137 C1136 1.387 . S
C1137 C1139 1.387 . S
H1138 C1145 0.950 . S
C1139 C1137 1.387 . S
C1139 C1141 1.390 . S
C1139 H1143 0.950 . S
H1140 C1136 0.950 . S
C1141 C1139 1.390 . S
C1141 C1142 1.387 . S
C1141 H1144 0.950 . S
C1142 C1141 1.387 . S
C1142 C1145 1.387 . S
H1143 C1139 0.950 . S
H1144 C1141 0.950 . S
C1145 C1136 1.390 . S
C1145 H1138 0.950 . S
C1145 C1142 1.387 . S
C1146 C1147 1.387 . S
C1146 H1150 0.950 . S
C1146 C1155 1.390 . S
C1147 C1146 1.387 . S
C1147 C1149 1.387 . S
H1148 C1155 0.950 . S
C1149 C1147 1.387 . S
C1149 C1151 1.390 . S
C1149 H1153 0.950 . S
H1150 C1146 0.950 . S
C1151 C1149 1.390 . S
C1151 C1152 1.387 . S
C1151 H1154 0.950 . S
C1152 C1151 1.387 . S
C1152 C1155 1.387 . S
H1153 C1149 0.950 . S
H1154 C1151 0.950 . S
C1155 C1146 1.390 . S
C1155 H1148 0.950 . S
C1155 C1152 1.387 . S
C1156 C1157 1.387 . S
C1156 H1160 0.950 . S
C1156 C1165 1.390 . S
C1157 C1156 1.387 . S
C1157 C1159 1.387 . S
H1158 C1165 0.950 . S
C1159 C1157 1.387 . S
C1159 C1161 1.390 . S
C1159 H1163 0.950 . S
H1160 C1156 0.950 . S
C1161 C1159 1.390 . S
C1161 C1162 1.387 . S
C1161 H1164 0.950 . S
C1162 C1161 1.387 . S
C1162 C1165 1.387 . S
H1163 C1159 0.950 . S
H1164 C1161 0.950 . S
C1165 C1156 1.390 . S
C1165 H1158 0.950 . S
C1165 C1162 1.387 . S
C1166 C1167 1.387 . S
C1166 H1170 0.950 . S
C1166 C1175 1.390 . S
C1167 C1166 1.387 . S
C1167 C1169 1.387 . S
H1168 C1175 0.950 . S
C1169 C1167 1.387 . S
C1169 C1171 1.390 . S
C1169 H1173 0.950 . S
H1170 C1166 0.950 . S
C1171 C1169 1.390 . S
C1171 C1172 1.387 . S
C1171 H1174 0.950 . S
C1172 C1171 1.387 . S
C1172 C1175 1.387 . S
H1173 C1169 0.950 . S
H1174 C1171 0.950 . S
C1175 C1166 1.390 . S
C1175 H1168 0.950 . S
C1175 C1172 1.387 . S
C1176 C1177 1.387 . S
C1176 H1180 0.950 . S
C1176 C1185 1.390 1_465 S
C1177 C1176 1.387 . S
C1177 C1179 1.387 . S
H1178 C1185 0.950 . S
C1179 C1177 1.387 . S
C1179 C1181 1.390 1_465 S
C1179 H1183 0.950 . S
H1180 C1176 0.950 . S
C1181 C1179 1.390 1_645 S
C1181 C1182 1.387 . S
C1181 H1184 0.950 . S
C1182 C1181 1.387 . S
C1182 C1185 1.387 . S
H1183 C1179 0.950 . S
H1184 C1181 0.950 . S
C1185 C1176 1.390 1_645 S
C1185 H1178 0.950 . S
C1185 C1182 1.387 . S
C1186 C1187 1.387 . S
C1186 H1190 0.950 . S
C1186 C1195 1.390 1_455 S
C1187 C1186 1.387 . S
C1187 C1189 1.387 . S
H1188 C1195 0.950 . S
C1189 C1187 1.387 . S
C1189 C1191 1.390 1_455 S
C1189 H1193 0.950 . S
H1190 C1186 0.950 . S
C1191 C1189 1.390 1_655 S
C1191 C1192 1.387 . S
C1191 H1194 0.950 . S
C1192 C1191 1.387 . S
C1192 C1195 1.387 . S
H1193 C1189 0.950 . S
H1194 C1191 0.950 . S
C1195 C1186 1.390 1_655 S
C1195 H1188 0.950 . S
C1195 C1192 1.387 . S
C1196 C1197 1.387 . S
C1196 H1200 0.950 . S
C1196 C1205 1.390 1_655 S
C1197 C1196 1.387 . S
C1197 C1199 1.387 . S
H1198 C1205 0.950 . S
C1199 C1197 1.387 . S
C1199 C1201 1.390 1_655 S
C1199 H1203 0.950 . S
H1200 C1196 0.950 . S
C1201 C1199 1.390 1_455 S
C1201 C1202 1.387 . S
C1201 H1204 0.950 . S
C1202 C1201 1.387 . S
C1202 C1205 1.387 . S
H1203 C1199 0.950 . S
H1204 C1201 0.950 . S
C1205 C1196 1.390 1_455 S
C1205 H1198 0.950 . S
C1205 C1202 1.387 . S
C1206 C1207 1.387 . S
C1206 H1210 0.950 . S
C1206 C1215 1.390 1_655 S
C1207 C1206 1.387 . S
C1207 C1209 1.387 1_554 S
H1208 C1215 0.950 . S
C1209 C1207 1.387 1_556 S
C1209 C1211 1.390 1_655 S
C1209 H1213 0.950 . S
H1210 C1206 0.950 . S
C1211 C1209 1.390 1_455 S
C1211 C1212 1.387 . S
C1211 H1214 0.950 . S
C1212 C1211 1.387 . S
C1212 C1215 1.387 1_556 S
H1213 C1209 0.950 . S
H1214 C1211 0.950 . S
C1215 C1206 1.390 1_455 S
C1215 H1208 0.950 . S
C1215 C1212 1.387 1_554 S
C1216 C1217 1.387 . S
C1216 H1220 0.950 . S
C1216 C1225 1.390 . S
C1217 C1216 1.387 . S
C1217 C1219 1.387 . S
H1218 C1225 0.950 . S
C1219 C1217 1.387 . S
C1219 C1221 1.390 . S
C1219 H1223 0.950 . S
H1220 C1216 0.950 . S
C1221 C1219 1.390 . S
C1221 C1222 1.387 . S
C1221 H1224 0.950 . S
C1222 C1221 1.387 . S
C1222 C1225 1.387 . S
H1223 C1219 0.950 . S
H1224 C1221 0.950 . S
C1225 C1216 1.390 . S
C1225 H1218 0.950 . S
C1225 C1222 1.387 . S
C1226 C1227 1.387 . S
C1226 H1230 0.950 . S
C1226 C1235 1.390 . S
C1227 C1226 1.387 . S
C1227 C1229 1.387 . S
H1228 C1235 0.950 . S
C1229 C1227 1.387 . S
C1229 C1231 1.390 . S
C1229 H1233 0.950 . S
H1230 C1226 0.950 . S
C1231 C1229 1.390 . S
C1231 C1232 1.387 . S
C1231 H1234 0.950 . S
C1232 C1231 1.387 . S
C1232 C1235 1.387 . S
H1233 C1229 0.950 . S
H1234 C1231 0.950 . S
C1235 C1226 1.390 . S
C1235 H1228 0.950 . S
C1235 C1232 1.387 . S
C1236 C1237 1.387 . S
C1236 H1240 0.950 . S
C1236 C1245 1.390 . S
C1237 C1236 1.387 . S
C1237 C1239 1.387 . S
H1238 C1245 0.950 . S
C1239 C1237 1.387 . S
C1239 C1241 1.390 . S
C1239 H1243 0.950 . S
H1240 C1236 0.950 . S
C1241 C1239 1.390 . S
C1241 C1242 1.387 . S
C1241 H1244 0.950 . S
C1242 C1241 1.387 . S
C1242 C1245 1.387 . S
H1243 C1239 0.950 . S
H1244 C1241 0.950 . S
C1245 C1236 1.390 . S
C1245 H1238 0.950 . S
C1245 C1242 1.387 . S
C1246 C1247 1.387 . S
C1246 H1250 0.950 . S
C1246 C1255 1.390 . S
C1247 C1246 1.387 . S
C1247 C1249 1.387 . S
H1248 C1255 0.950 . S
C1249 C1247 1.387 . S
C1249 C1251 1.390 . S
C1249 H1253 0.950 . S
H1250 C1246 0.950 . S
C1251 C1249 1.390 . S
C1251 C1252 1.387 . S
C1251 H1254 0.950 . S
C1252 C1251 1.387 . S
C1252 C1255 1.387 . S
H1253 C1249 0.950 . S
H1254 C1251 0.950 . S
C1255 C1246 1.390 . S
C1255 H1248 0.950 . S
C1255 C1252 1.387 . S
C1256 C1257 1.387 . S
C1256 H1260 0.950 . S
C1256 C1265 1.390 . S
C1257 C1256 1.387 . S
C1257 C1259 1.387 . S
H1258 C1265 0.950 . S
C1259 C1257 1.387 . S
C1259 C1261 1.390 . S
C1259 H1263 0.950 . S
H1260 C1256 0.950 . S
C1261 C1259 1.390 . S
C1261 C1262 1.387 . S
C1261 H1264 0.950 . S
C1262 C1261 1.387 . S
C1262 C1265 1.387 . S
H1263 C1259 0.950 . S
H1264 C1261 0.950 . S
C1265 C1256 1.390 . S
C1265 H1258 0.950 . S
C1265 C1262 1.387 . S
C1266 C1267 1.387 . S
C1266 H1270 0.950 . S
C1266 C1275 1.390 . S
C1267 C1266 1.387 . S
C1267 C1269 1.387 . S
H1268 C1275 0.950 . S
C1269 C1267 1.387 . S
C1269 C1271 1.390 . S
C1269 H1273 0.950 . S
H1270 C1266 0.950 . S
C1271 C1269 1.390 . S
C1271 C1272 1.387 . S
C1271 H1274 0.950 . S
C1272 C1271 1.387 . S
C1272 C1275 1.387 . S
H1273 C1269 0.950 . S
H1274 C1271 0.950 . S
C1275 C1266 1.390 . S
C1275 H1268 0.950 . S
C1275 C1272 1.387 . S
C1276 C1277 1.387 . S
C1276 H1280 0.950 . S
C1276 C1285 1.390 . S
C1277 C1276 1.387 . S
C1277 C1279 1.387 . S
H1278 C1285 0.950 . S
C1279 C1277 1.387 . S
C1279 C1281 1.390 . S
C1279 H1283 0.950 . S
H1280 C1276 0.950 . S
C1281 C1279 1.390 . S
C1281 C1282 1.387 . S
C1281 H1284 0.950 . S
C1282 C1281 1.387 . S
C1282 C1285 1.387 . S
H1283 C1279 0.950 . S
H1284 C1281 0.950 . S
C1285 C1276 1.390 . S
C1285 H1278 0.950 . S
C1285 C1282 1.387 . S
C1286 C1287 1.387 . S
C1286 H1290 0.950 . S
C1286 C1295 1.390 . S
C1287 C1286 1.387 . S
C1287 C1289 1.387 . S
H1288 C1295 0.950 . S
C1289 C1287 1.387 . S
C1289 C1291 1.390 . S
C1289 H1293 0.950 . S
H1290 C1286 0.950 . S
C1291 C1289 1.390 . S
C1291 C1292 1.387 . S
C1291 H1294 0.950 . S
C1292 C1291 1.387 . S
C1292 C1295 1.387 . S
H1293 C1289 0.950 . S
H1294 C1291 0.950 . S
C1295 C1286 1.390 . S
C1295 H1288 0.950 . S
C1295 C1292 1.387 . S
C1296 C1297 1.387 . S
C1296 H1300 0.950 . S
C1296 C1305 1.390 . S
C1297 C1296 1.387 . S
C1297 C1299 1.387 . S
H1298 C1305 0.950 . S
C1299 C1297 1.387 . S
C1299 C1301 1.390 . S
C1299 H1303 0.950 . S
H1300 C1296 0.950 . S
C1301 C1299 1.390 . S
C1301 C1302 1.387 . S
C1301 H1304 0.950 . S
C1302 C1301 1.387 . S
C1302 C1305 1.387 . S
H1303 C1299 0.950 . S
H1304 C1301 0.950 . S
C1305 C1296 1.390 . S
C1305 H1298 0.950 . S
C1305 C1302 1.387 . S
C1306 C1307 1.387 . S
C1306 H1310 0.950 . S
C1306 C1315 1.390 . S
C1307 C1306 1.387 . S
C1307 C1309 1.387 . S
H1308 C1315 0.950 . S
C1309 C1307 1.387 . S
C1309 C1311 1.390 . S
C1309 H1313 0.950 . S
H1310 C1306 0.950 . S
C1311 C1309 1.390 . S
C1311 C1312 1.387 . S
C1311 H1314 0.950 . S
C1312 C1311 1.387 . S
C1312 C1315 1.387 . S
H1313 C1309 0.950 . S
H1314 C1311 0.950 . S
C1315 C1306 1.390 . S
C1315 H1308 0.950 . S
C1315 C1312 1.387 . S
C1316 C1317 1.387 . S
C1316 H1320 0.950 . S
C1316 C1325 1.390 . S
C1317 C1316 1.387 . S
C1317 C1319 1.387 . S
H1318 C1325 0.950 . S
C1319 C1317 1.387 . S
C1319 C1321 1.390 . S
C1319 H1323 0.950 . S
H1320 C1316 0.950 . S
C1321 C1319 1.390 . S
C1321 C1322 1.387 . S
C1321 H1324 0.950 . S
C1322 C1321 1.387 . S
C1322 C1325 1.387 . S
H1323 C1319 0.950 . S
H1324 C1321 0.950 . S
C1325 C1316 1.390 . S
C1325 H1318 0.950 . S
C1325 C1322 1.387 . S
C1326 C1327 1.387 . S
C1326 H1330 0.950 . S
C1326 C1335 1.390 . S
C1327 C1326 1.387 . S
C1327 C1329 1.387 . S
H1328 C1335 0.950 . S
C1329 C1327 1.387 . S
C1329 C1331 1.390 . S
C1329 H1333 0.950 . S
H1330 C1326 0.950 . S
C1331 C1329 1.390 . S
C1331 C1332 1.387 . S
C1331 H1334 0.950 . S
C1332 C1331 1.387 . S
C1332 C1335 1.387 . S
H1333 C1329 0.950 . S
H1334 C1331 0.950 . S
C1335 C1326 1.390 . S
C1335 H1328 0.950 . S
C1335 C1332 1.387 . S
C1336 C1337 1.387 . S
C1336 H1340 0.950 . S
C1336 C1345 1.390 . S
C1337 C1336 1.387 . S
C1337 C1339 1.387 . S
H1338 C1345 0.950 . S
C1339 C1337 1.387 . S
C1339 C1341 1.390 . S
C1339 H1343 0.950 . S
H1340 C1336 0.950 . S
C1341 C1339 1.390 . S
C1341 C1342 1.387 . S
C1341 H1344 0.950 . S
C1342 C1341 1.387 . S
C1342 C1345 1.387 . S
H1343 C1339 0.950 . S
H1344 C1341 0.950 . S
C1345 C1336 1.390 . S
C1345 H1338 0.950 . S
C1345 C1342 1.387 . S
C1346 C1347 1.387 . S
C1346 H1350 0.950 . S
C1346 C1355 1.390 . S
C1347 C1346 1.387 . S
C1347 C1349 1.387 . S
H1348 C1355 0.950 . S
C1349 C1347 1.387 . S
C1349 C1351 1.390 . S
C1349 H1353 0.950 . S
H1350 C1346 0.950 . S
C1351 C1349 1.390 . S
C1351 C1352 1.387 . S
C1351 H1354 0.950 . S
C1352 C1351 1.387 . S
C1352 C1355 1.387 . S
H1353 C1349 0.950 . S
H1354 C1351 0.950 . S
C1355 C1346 1.390 . S
C1355 H1348 0.950 . S
C1355 C1352 1.387 . S
C1356 C1357 1.387 . S
C1356 H1360 0.950 . S
C1356 C1365 1.390 . S
C1357 C1356 1.387 . S
C1357 C1359 1.387 . S
H1358 C1365 0.950 . S
C1359 C1357 1.387 . S
C1359 C1361 1.390 . S
C1359 H1363 0.950 . S
H1360 C1356 0.950 . S
C1361 C1359 1.390 . S
C1361 C1362 1.387 . S
C1361 H1364 0.950 . S
C1362 C1361 1.387 . S
C1362 C1365 1.387 . S
H1363 C1359 0.950 . S
H1364 C1361 0.950 . S
C1365 C1356 1.390 . S
C1365 H1358 0.950 . S
C1365 C1362 1.387 . S
C1366 C1367 1.387 . S
C1366 H1370 0.950 . S
C1366 C1375 1.390 . S
C1367 C1366 1.387 . S
C1367 C1369 1.387 . S
H1368 C1375 0.950 . S
C1369 C1367 1.387 . S
C1369 C1371 1.390 . S
C1369 H1373 0.950 . S
H1370 C1366 0.950 . S
C1371 C1369 1.390 . S
C1371 C1372 1.387 . S
C1371 H1374 0.950 . S
C1372 C1371 1.387 . S
C1372 C1375 1.387 . S
H1373 C1369 0.950 . S
H1374 C1371 0.950 . S
C1375 C1366 1.390 . S
C1375 H1368 0.950 . S
C1375 C1372 1.387 . S
C1376 C1377 1.360 1_556 S
C1376 H1380 0.950 . S
C1376 C1385 1.390 . S
C1377 C1376 1.360 1_554 S
C1377 C1379 1.414 . S
H1378 C1385 0.950 . S
C1379 C1377 1.414 . S
C1379 C1381 1.390 . S
C1379 H1383 0.950 . S
H1380 C1376 0.950 . S
C1381 C1379 1.390 . S
C1381 C1382 1.387 1_554 S
C1381 H1384 0.950 . S
C1382 C1381 1.387 1_556 S
C1382 C1385 1.387 . S
H1383 C1379 0.950 . S
H1384 C1381 0.950 . S
C1385 C1376 1.390 . S
C1385 H1378 0.950 . S
C1385 C1382 1.387 . S
C1386 C1387 1.360 1_556 S
C1386 H1390 0.950 . S
C1386 C1395 1.390 . S
C1387 C1386 1.360 1_554 S
C1387 C1389 1.414 . S
H1388 C1395 0.950 . S
C1389 C1387 1.414 . S
C1389 C1391 1.390 . S
C1389 H1393 0.950 . S
H1390 C1386 0.950 . S
C1391 C1389 1.390 . S
C1391 C1392 1.387 1_554 S
C1391 H1394 0.950 . S
C1392 C1391 1.387 1_556 S
C1392 C1395 1.387 . S
H1393 C1389 0.950 . S
H1394 C1391 0.950 . S
C1395 C1386 1.390 . S
C1395 H1388 0.950 . S
C1395 C1392 1.387 . S
C1396 C1397 1.387 . S
C1396 H1400 0.950 . S
C1396 C1405 1.390 . S
C1397 C1396 1.387 . S
C1397 C1399 1.387 . S
H1398 C1405 0.950 . S
C1399 C1397 1.387 . S
C1399 C1401 1.390 . S
C1399 H1403 0.950 . S
H1400 C1396 0.950 . S
C1401 C1399 1.390 . S
C1401 C1402 1.387 . S
C1401 H1404 0.950 . S
C1402 C1401 1.387 . S
C1402 C1405 1.387 . S
H1403 C1399 0.950 . S
H1404 C1401 0.950 . S
C1405 C1396 1.390 . S
C1405 H1398 0.950 . S
C1405 C1402 1.387 . S
C1406 C1407 1.387 . S
C1406 H1410 0.950 . S
C1406 C1415 1.390 . S
C1407 C1406 1.387 . S
C1407 C1409 1.387 . S
H1408 C1415 0.950 . S
C1409 C1407 1.387 . S
C1409 C1411 1.390 . S
C1409 H1413 0.950 . S
H1410 C1406 0.950 . S
C1411 C1409 1.390 . S
C1411 C1412 1.387 . S
C1411 H1414 0.950 . S
C1412 C1411 1.387 . S
C1412 C1415 1.387 . S
H1413 C1409 0.950 . S
H1414 C1411 0.950 . S
C1415 C1406 1.390 . S
C1415 H1408 0.950 . S
C1415 C1412 1.387 . S
C1416 C1417 1.387 1_554 S
C1416 H1420 0.950 . S
C1416 C1425 1.390 . S
C1417 C1416 1.387 1_556 S
C1417 C1419 1.387 . S
H1418 C1425 0.950 . S
C1419 C1417 1.387 . S
C1419 C1421 1.390 . S
C1419 H1423 0.950 . S
H1420 C1416 0.950 . S
C1421 C1419 1.390 . S
C1421 C1422 1.387 . S
C1421 H1424 0.950 . S
C1422 C1421 1.387 . S
C1422 C1425 1.387 1_556 S
H1423 C1419 0.950 . S
H1424 C1421 0.950 . S
C1425 C1416 1.390 . S
C1425 H1418 0.950 . S
C1425 C1422 1.387 1_554 S
C1426 C1427 1.387 . S
C1426 H1430 0.950 . S
C1426 C1435 1.390 . S
C1427 C1426 1.387 . S
C1427 C1429 1.387 1_556 S
H1428 C1435 0.950 . S
C1429 C1427 1.387 1_554 S
C1429 C1431 1.390 . S
C1429 H1433 0.950 . S
H1430 C1426 0.950 . S
C1431 C1429 1.390 . S
C1431 C1432 1.387 1_554 S
C1431 H1434 0.950 . S
C1432 C1431 1.387 1_556 S
C1432 C1435 1.387 . S
H1433 C1429 0.950 . S
H1434 C1431 0.950 . S
C1435 C1426 1.390 . S
C1435 H1428 0.950 . S
C1435 C1432 1.387 . S
C1436 C1437 1.387 . S
C1436 H1440 0.950 . S
C1436 C1445 1.390 . S
C1437 C1436 1.387 . S
C1437 C1439 1.387 . S
H1438 C1445 0.950 . S
C1439 C1437 1.387 . S
C1439 C1441 1.390 . S
C1439 H1443 0.950 . S
H1440 C1436 0.950 . S
C1441 C1439 1.390 . S
C1441 C1442 1.387 . S
C1441 H1444 0.950 . S
C1442 C1441 1.387 . S
C1442 C1445 1.387 . S
H1443 C1439 0.950 . S
H1444 C1441 0.950 . S
C1445 C1436 1.390 . S
C1445 H1438 0.950 . S
C1445 C1442 1.387 . S
C1446 C1447 1.387 . S
C1446 H1450 0.950 . S
C1446 C1455 1.390 . S
C1447 C1446 1.387 . S
C1447 C1449 1.387 1_565 S
H1448 C1455 0.950 . S
C1449 C1447 1.387 1_545 S
C1449 C1451 1.390 1_545 S
C1449 H1453 0.950 . S
H1450 C1446 0.950 . S
C1451 C1449 1.390 1_565 S
C1451 C1452 1.387 . S
C1451 H1454 0.950 . S
C1452 C1451 1.387 . S
C1452 C1455 1.387 . S
H1453 C1449 0.950 . S
H1454 C1451 0.950 . S
C1455 C1446 1.390 . S
C1455 H1448 0.950 . S
C1455 C1452 1.387 . S
C1456 C1457 1.387 . S
C1456 H1460 0.950 . S
C1456 C1465 1.390 . S
C1457 C1456 1.387 . S
C1457 C1459 1.387 . S
H1458 C1465 0.950 . S
C1459 C1457 1.387 . S
C1459 C1461 1.390 . S
C1459 H1463 0.950 . S
H1460 C1456 0.950 . S
C1461 C1459 1.390 . S
C1461 C1462 1.387 . S
C1461 H1464 0.950 . S
C1462 C1461 1.387 . S
C1462 C1465 1.387 . S
H1463 C1459 0.950 . S
H1464 C1461 0.950 . S
C1465 C1456 1.390 . S
C1465 H1458 0.950 . S
C1465 C1462 1.387 . S
C1466 C1467 1.387 . S
C1466 H1470 0.950 . S
C1466 C1475 1.390 . S
C1467 C1466 1.387 . S
C1467 C1469 1.387 . S
H1468 C1475 0.950 . S
C1469 C1467 1.387 . S
C1469 C1471 1.390 . S
C1469 H1473 0.950 . S
H1470 C1466 0.950 . S
C1471 C1469 1.390 . S
C1471 C1472 1.387 . S
C1471 H1474 0.950 . S
C1472 C1471 1.387 . S
C1472 C1475 1.387 . S
H1473 C1469 0.950 . S
H1474 C1471 0.950 . S
C1475 C1466 1.390 . S
C1475 H1468 0.950 . S
C1475 C1472 1.387 . S
C1476 C1477 1.387 . S
C1476 H1480 0.950 . S
C1476 C1485 1.390 . S
C1477 C1476 1.387 . S
C1477 C1479 1.387 . S
H1478 C1485 0.950 . S
C1479 C1477 1.387 . S
C1479 C1481 1.390 . S
C1479 H1483 0.950 . S
H1480 C1476 0.950 . S
C1481 C1479 1.390 . S
C1481 C1482 1.387 . S
C1481 H1484 0.950 . S
C1482 C1481 1.387 . S
C1482 C1485 1.387 . S
H1483 C1479 0.950 . S
H1484 C1481 0.950 . S
C1485 C1476 1.390 . S
C1485 H1478 0.950 . S
C1485 C1482 1.387 . S
C1486 C1487 1.387 . S
C1486 H1490 0.950 . S
C1486 C1495 1.390 . S
C1487 C1486 1.387 . S
C1487 C1489 1.387 . S
H1488 C1495 0.950 . S
C1489 C1487 1.387 . S
C1489 C1491 1.390 . S
C1489 H1493 0.950 . S
H1490 C1486 0.950 . S
C1491 C1489 1.390 . S
C1491 C1492 1.387 . S
C1491 H1494 0.950 . S
C1492 C1491 1.387 . S
C1492 C1495 1.387 . S
H1493 C1489 0.950 . S
H1494 C1491 0.950 . S
C1495 C1486 1.390 . S
C1495 H1488 0.950 . S
C1495 C1492 1.387 . S
C1496 C1497 1.387 . S
C1496 H1500 0.950 . S
C1496 C1505 1.390 . S
C1497 C1496 1.387 . S
C1497 C1499 1.387 . S
H1498 C1505 0.950 . S
C1499 C1497 1.387 . S
C1499 C1501 1.390 . S
C1499 H1503 0.950 . S
H1500 C1496 0.950 . S
C1501 C1499 1.390 . S
C1501 C1502 1.387 . S
C1501 H1504 0.950 . S
C1502 C1501 1.387 . S
C1502 C1505 1.387 . S
H1503 C1499 0.950 . S
H1504 C1501 0.950 . S
C1505 C1496 1.390 . S
C1505 H1498 0.950 . S
C1505 C1502 1.387 . S
C1506 C1507 1.387 . S
C1506 H1510 0.950 . S
C1506 C1515 1.390 . S
C1507 C1506 1.387 . S
C1507 C1509 1.387 . S
H1508 C1515 0.950 . S
C1509 C1507 1.387 . S
C1509 C1511 1.390 . S
C1509 H1513 0.950 . S
H1510 C1506 0.950 . S
C1511 C1509 1.390 . S
C1511 C1512 1.387 . S
C1511 H1514 0.950 . S
C1512 C1511 1.387 . S
C1512 C1515 1.387 . S
H1513 C1509 0.950 . S
H1514 C1511 0.950 . S
C1515 C1506 1.390 . S
C1515 H1508 0.950 . S
C1515 C1512 1.387 . S
C1516 C1517 1.387 . S
C1516 H1520 0.950 . S
C1516 C1525 1.390 . S
C1517 C1516 1.387 . S
C1517 C1519 1.387 . S
H1518 C1525 0.950 . S
C1519 C1517 1.387 . S
C1519 C1521 1.390 . S
C1519 H1523 0.950 . S
H1520 C1516 0.950 . S
C1521 C1519 1.390 . S
C1521 C1522 1.387 . S
C1521 H1524 0.950 . S
C1522 C1521 1.387 . S
C1522 C1525 1.387 . S
H1523 C1519 0.950 . S
H1524 C1521 0.950 . S
C1525 C1516 1.390 . S
C1525 H1518 0.950 . S
C1525 C1522 1.387 . S
C1526 C1527 1.387 . S
C1526 H1530 0.950 . S
C1526 C1535 1.390 . S
C1527 C1526 1.387 . S
C1527 C1529 1.387 . S
H1528 C1535 0.950 . S
C1529 C1527 1.387 . S
C1529 C1531 1.390 . S
C1529 H1533 0.950 . S
H1530 C1526 0.950 . S
C1531 C1529 1.390 . S
C1531 C1532 1.387 . S
C1531 H1534 0.950 . S
C1532 C1531 1.387 . S
C1532 C1535 1.387 . S
H1533 C1529 0.950 . S
H1534 C1531 0.950 . S
C1535 C1526 1.390 . S
C1535 H1528 0.950 . S
C1535 C1532 1.387 . S
C1536 C1537 1.387 . S
C1536 H1540 0.950 . S
C1536 C1545 1.390 . S
C1537 C1536 1.387 . S
C1537 C1539 1.387 . S
H1538 C1545 0.950 . S
C1539 C1537 1.387 . S
C1539 C1541 1.390 . S
C1539 H1543 0.950 . S
H1540 C1536 0.950 . S
C1541 C1539 1.390 . S
C1541 C1542 1.387 . S
C1541 H1544 0.950 1_545 S
C1542 C1541 1.387 . S
C1542 C1545 1.387 . S
H1543 C1539 0.950 . S
H1544 C1541 0.950 1_565 S
C1545 C1536 1.390 . S
C1545 H1538 0.950 . S
C1545 C1542 1.387 . S
C1546 C1547 1.387 . S
C1546 H1550 0.950 . S
C1546 C1555 1.390 . S
C1547 C1546 1.387 . S
C1547 C1549 1.387 . S
H1548 C1555 0.950 . S
C1549 C1547 1.387 . S
C1549 C1551 1.390 . S
C1549 H1553 0.950 . S
H1550 C1546 0.950 . S
C1551 C1549 1.390 . S
C1551 C1552 1.387 . S
C1551 H1554 0.950 . S
C1552 C1551 1.387 . S
C1552 C1555 1.387 . S
H1553 C1549 0.950 . S
H1554 C1551 0.950 . S
C1555 C1546 1.390 . S
C1555 H1548 0.950 . S
C1555 C1552 1.387 . S
C1556 C1557 1.387 . S
C1556 H1560 0.950 . S
C1556 C1565 1.390 . S
C1557 C1556 1.387 . S
C1557 C1559 1.387 . S
H1558 C1565 0.950 . S
C1559 C1557 1.387 . S
C1559 C1561 1.390 . S
C1559 H1563 0.950 . S
H1560 C1556 0.950 . S
C1561 C1559 1.390 . S
C1561 C1562 1.387 . S
C1561 H1564 0.950 . S
C1562 C1561 1.387 . S
C1562 C1565 1.387 . S
H1563 C1559 0.950 . S
H1564 C1561 0.950 . S
C1565 C1556 1.390 . S
C1565 H1558 0.950 . S
C1565 C1562 1.387 . S
C1566 C1567 1.387 . S
C1566 H1570 0.950 . S
C1566 C1575 1.390 . S
C1567 C1566 1.387 . S
C1567 C1569 1.387 . S
H1568 C1575 0.950 . S
C1569 C1567 1.387 . S
C1569 C1571 1.390 . S
C1569 H1573 0.950 . S
H1570 C1566 0.950 . S
C1571 C1569 1.390 . S
C1571 C1572 1.387 . S
C1571 H1574 0.950 . S
C1572 C1571 1.387 . S
C1572 C1575 1.387 . S
H1573 C1569 0.950 . S
H1574 C1571 0.950 . S
C1575 C1566 1.390 . S
C1575 H1568 0.950 . S
C1575 C1572 1.387 . S
C1576 C1577 1.387 . S
C1576 H1580 0.950 . S
C1576 C1585 1.390 . S
C1577 C1576 1.387 . S
C1577 C1579 1.387 . S
H1578 C1585 0.950 . S
C1579 C1577 1.387 . S
C1579 C1581 1.390 . S
C1579 H1583 0.950 . S
H1580 C1576 0.950 . S
C1581 C1579 1.390 . S
C1581 C1582 1.387 . S
C1581 H1584 0.950 . S
C1582 C1581 1.387 . S
C1582 C1585 1.387 . S
H1583 C1579 0.950 . S
H1584 C1581 0.950 . S
C1585 C1576 1.390 . S
C1585 H1578 0.950 . S
C1585 C1582 1.387 . S
C1586 C1587 1.387 . S
C1586 H1590 0.950 . S
C1586 C1595 1.390 . S
C1587 C1586 1.387 . S
C1587 C1589 1.387 . S
H1588 C1595 0.950 . S
C1589 C1587 1.387 . S
C1589 C1591 1.390 . S
C1589 H1593 0.950 . S
H1590 C1586 0.950 . S
C1591 C1589 1.390 . S
C1591 C1592 1.387 . S
C1591 H1594 0.950 . S
C1592 C1591 1.387 . S
C1592 C1595 1.387 . S
H1593 C1589 0.950 . S
H1594 C1591 0.950 . S
C1595 C1586 1.390 . S
C1595 H1588 0.950 . S
C1595 C1592 1.387 . S
C1596 C1597 1.387 . S
C1596 H1600 0.950 . S
C1596 C1605 1.390 . S
C1597 C1596 1.387 . S
C1597 C1599 1.387 . S
H1598 C1605 0.950 . S
C1599 C1597 1.387 . S
C1599 C1601 1.390 . S
C1599 H1603 0.950 . S
H1600 C1596 0.950 . S
C1601 C1599 1.390 . S
C1601 C1602 1.387 . S
C1601 H1604 0.950 . S
C1602 C1601 1.387 . S
C1602 C1605 1.387 . S
H1603 C1599 0.950 . S
H1604 C1601 0.950 . S
C1605 C1596 1.390 . S
C1605 H1598 0.950 . S
C1605 C1602 1.387 . S
C1606 C1607 1.387 . S
C1606 H1610 0.950 . S
C1606 C1615 1.390 . S
C1607 C1606 1.387 . S
C1607 C1609 1.387 . S
H1608 C1615 0.950 . S
C1609 C1607 1.387 . S
C1609 C1611 1.390 . S
C1609 H1613 0.950 . S
H1610 C1606 0.950 . S
C1611 C1609 1.390 . S
C1611 C1612 1.387 . S
C1611 H1614 0.950 . S
C1612 C1611 1.387 . S
C1612 C1615 1.387 . S
H1613 C1609 0.950 . S
H1614 C1611 0.950 . S
C1615 C1606 1.390 . S
C1615 H1608 0.950 . S
C1615 C1612 1.387 . S
C1616 C1617 1.413 . S
C1616 H1620 0.950 . S
C1616 C1625 1.390 . S
C1617 C1616 1.413 . S
C1617 C1619 1.361 1_554 S
H1618 C1625 0.950 . S
C1619 C1617 1.361 1_556 S
C1619 C1621 1.390 . S
C1619 H1623 0.950 . S
H1620 C1616 0.950 . S
C1621 C1619 1.390 . S
C1621 C1622 1.387 . S
C1621 H1624 0.950 . S
C1622 C1621 1.387 . S
C1622 C1625 1.387 1_556 S
H1623 C1619 0.950 . S
H1624 C1621 0.950 . S
C1625 C1616 1.390 . S
C1625 H1618 0.950 . S
C1625 C1622 1.387 1_554 S
C1626 C1627 1.387 1_554 S
C1626 H1630 0.950 . S
C1626 C1635 1.390 . S
C1627 C1626 1.387 1_556 S
C1627 C1629 1.387 . S
H1628 C1635 0.950 . S
C1629 C1627 1.387 . S
C1629 C1631 1.390 . S
C1629 H1633 0.950 . S
H1630 C1626 0.950 . S
C1631 C1629 1.390 . S
C1631 C1632 1.352 1_556 S
C1631 H1634 0.950 . S
C1632 C1631 1.352 1_554 S
C1632 C1635 1.421 . S
H1633 C1629 0.950 . S
H1634 C1631 0.950 . S
C1635 C1626 1.390 . S
C1635 H1628 0.950 . S
C1635 C1632 1.421 . S
C1636 C1637 1.387 . S
C1636 H1640 0.950 . S
C1636 C1645 1.390 . S
C1637 C1636 1.387 . S
C1637 C1639 1.387 . S
H1638 C1645 0.950 . S
C1639 C1637 1.387 . S
C1639 C1641 1.390 . S
C1639 H1643 0.950 . S
H1640 C1636 0.950 . S
C1641 C1639 1.390 . S
C1641 C1642 1.387 . S
C1641 H1644 0.950 . S
C1642 C1641 1.387 . S
C1642 C1645 1.387 . S
H1643 C1639 0.950 . S
H1644 C1641 0.950 . S
C1645 C1636 1.390 . S
C1645 H1638 0.950 . S
C1645 C1642 1.387 . S
C1646 C1647 1.387 . S
C1646 H1650 0.950 . S
C1646 C1655 1.390 . S
C1647 C1646 1.387 . S
C1647 C1649 1.387 . S
H1648 C1655 0.950 . S
C1649 C1647 1.387 . S
C1649 C1651 1.390 . S
C1649 H1653 0.950 . S
H1650 C1646 0.950 . S
C1651 C1649 1.390 . S
C1651 C1652 1.387 . S
C1651 H1654 0.950 . S
C1652 C1651 1.387 . S
C1652 C1655 1.387 . S
H1653 C1649 0.950 . S
H1654 C1651 0.950 . S
C1655 C1646 1.390 . S
C1655 H1648 0.950 . S
C1655 C1652 1.387 . S
C1656 C1657 1.387 1_554 S
C1656 H1660 0.950 . S
C1656 C1665 1.390 . S
C1657 C1656 1.387 1_556 S
C1657 C1659 1.387 . S
H1658 C1665 0.950 . S
C1659 C1657 1.387 . S
C1659 C1661 1.390 . S
C1659 H1663 0.950 . S
H1660 C1656 0.950 . S
C1661 C1659 1.390 . S
C1661 C1662 1.387 . S
C1661 H1664 0.950 . S
C1662 C1661 1.387 . S
C1662 C1665 1.387 1_556 S
H1663 C1659 0.950 . S
H1664 C1661 0.950 . S
C1665 C1656 1.390 . S
C1665 H1658 0.950 . S
C1665 C1662 1.387 1_554 S
C1666 C1667 1.387 . S
C1666 H1670 0.950 . S
C1666 C1675 1.390 . S
C1667 C1666 1.387 . S
C1667 C1669 1.387 1_556 S
H1668 C1675 0.950 . S
C1669 C1667 1.387 1_554 S
C1669 C1671 1.390 . S
C1669 H1673 0.950 . S
H1670 C1666 0.950 . S
C1671 C1669 1.390 . S
C1671 C1672 1.387 1_554 S
C1671 H1674 0.950 . S
C1672 C1671 1.387 1_556 S
C1672 C1675 1.387 . S
H1673 C1669 0.950 . S
H1674 C1671 0.950 . S
C1675 C1666 1.390 . S
C1675 H1668 0.950 . S
C1675 C1672 1.387 . S
C1676 C1677 1.387 . S
C1676 H1680 0.950 . S
C1676 C1685 1.390 . S
C1677 C1676 1.387 . S
C1677 C1679 1.387 . S
H1678 C1685 0.950 . S
C1679 C1677 1.387 . S
C1679 C1681 1.390 . S
C1679 H1683 0.950 . S
H1680 C1676 0.950 . S
C1681 C1679 1.390 . S
C1681 C1682 1.387 . S
C1681 H1684 0.950 . S
C1682 C1681 1.387 . S
C1682 C1685 1.387 . S
H1683 C1679 0.950 . S
H1684 C1681 0.950 . S
C1685 C1676 1.390 . S
C1685 H1678 0.950 . S
C1685 C1682 1.387 . S
C1686 C1687 1.387 . S
C1686 H1690 0.950 . S
C1686 C1695 1.390 . S
C1687 C1686 1.387 . S
C1687 C1689 1.387 . S
H1688 C1695 0.950 . S
C1689 C1687 1.387 . S
C1689 C1691 1.390 . S
C1689 H1693 0.950 . S
H1690 C1686 0.950 . S
C1691 C1689 1.390 . S
C1691 C1692 1.387 . S
C1691 H1694 0.950 . S
C1692 C1691 1.387 . S
C1692 C1695 1.387 . S
H1693 C1689 0.950 . S
H1694 C1691 0.950 . S
C1695 C1686 1.390 . S
C1695 H1688 0.950 . S
C1695 C1692 1.387 . S
C737 C591 1.451 . S
C742 C16 1.451 . S
C747 C568 1.451 . S
C752 C39 1.451 . S
C757 C637 1.449 . S
C762 C62 1.449 . S
C767 C614 1.449 . S
C772 C85 1.449 . S
C777 C108 1.496 . S
C782 C683 1.496 . S
C787 C131 1.499 . S
C792 C660 1.499 . S
C797 C154 1.497 . S
C802 C729 1.497 . S
C807 C706 1.497 . S
C812 C177 1.497 . S
C817 C407 1.452 . S
C822 C200 1.452 . S
C827 C384 1.452 . S
C832 C223 1.452 . S
C837 C453 1.449 . S
C842 C246 1.449 . S
C847 C430 1.449 . S
C852 C269 1.449 . S
C857 C292 1.497 . S
C862 C499 1.497 . S
C867 C476 1.497 . S
C872 C315 1.497 . S
C877 C338 1.497 . S
C882 C545 1.497 . S
C887 C522 1.497 . S
C892 C361 1.497 . S
C897 C19 1.422 . S
C902 C456 1.426 . S
C907 C433 1.420 . S
C912 C42 1.426 . S
C917 C410 1.406 . S
C922 C65 1.406 . S
C927 C88 1.406 . S
C932 C387 1.406 . S
C937 C549 1.410 . S
C942 C112 1.416 . S
C947 C526 1.409 . S
C952 C135 1.414 . S
C957 C503 1.394 . S
C962 C158 1.394 . S
C967 C480 1.394 . S
C972 C181 1.394 . S
C977 C640 1.406 . S
C982 C203 1.406 . S
C987 C226 1.406 . S
C992 C617 1.406 . S
C997 C249 1.420 . S
C1002 C594 1.426 . S
C1007 C272 1.420 . S
C1012 C571 1.426 . S
C1017 C733 1.396 . S
C1022 C296 1.396 . S
C1027 C710 1.394 . S
C1032 C319 1.394 . S
C1037 C342 1.410 . S
C1042 C687 1.416 . S
C1047 C365 1.410 . S
C1052 C664 1.416 . S
C1057 C113 0.957 . S
C1062 C21 0.954 . S
C1067 C44 0.959 . S
C1072 C688 0.961 . S
C1077 C67 0.952 . S
C1082 C343 0.956 . S
C1087 C550 0.954 . S
C1092 C90 0.949 . S
C1097 C136 0.960 . S
C1102 C596 0.957 . S
C1107 C159 0.954 . S
C1112 C251 0.949 . S
C1117 C458 0.952 . S
C1122 C182 0.956 . S
C1127 C297 0.958 . S
C1132 C205 0.954 . S
C1137 C228 0.951 . S
C1142 C504 0.956 . S
C1147 C274 0.949 . S
C1152 C734 0.954 . S
C1157 C412 0.951 . S
C1162 C320 0.956 . S
C1167 C366 0.954 . S
C1172 C642 0.949 . S
C1177 C481 0.956 . S
C1182 C389 0.951 . S
C1187 C711 0.954 . S
C1192 C435 0.949 . S
C1197 C619 0.949 . S
C1202 C527 0.954 . S
C1207 C573 0.959 . S
C1212 C665 0.961 . S
C1217 C66 1.494 . S
C1222 C20 1.489 . S
C1227 C89 1.496 . S
C1232 C43 1.491 . S
C1237 C157 1.488 . S
C1242 C111 1.483 . S
C1247 C134 1.485 . S
C1252 C180 1.480 . S
C1257 C250 1.511 . S
C1262 C204 1.511 . S
C1267 C227 1.511 . S
C1272 C273 1.511 . S
C1277 C341 1.500 . S
C1282 C295 1.500 . S
C1287 C318 1.503 . S
C1292 C364 1.503 . S
C1297 C388 1.511 . S
C1302 C434 1.511 . S
C1307 C411 1.511 . S
C1312 C457 1.511 . S
C1317 C525 1.500 . S
C1322 C479 1.500 . S
C1327 C502 1.503 . S
C1332 C548 1.503 . S
C1337 C572 1.496 . S
C1342 C618 1.491 . S
C1347 C641 1.496 . S
C1352 C595 1.491 . S
C1357 C663 1.487 . S
C1362 C709 1.483 . S
C1367 C686 1.485 . S
C1372 C732 1.480 . S
C1377 C132 1.807 1_545 S
C1382 C18 1.902 1_556 S
C1387 C661 1.807 . S
C1392 C41 1.902 1_456 S
C1397 C64 1.899 . S
C1402 C362 1.807 . S
C1407 C87 1.899 1_455 S
C1412 C523 1.807 1_545 S
C1417 C110 1.865 1_556 S
C1422 C40 1.775 1_565 S
C1427 C133 1.867 1_656 S
C1432 C569 1.771 . S
C1437 C270 1.771 . S
C1442 C156 1.869 . S
C1447 C431 1.773 1_565 S
C1452 C179 1.867 1_655 S
C1457 C202 1.899 . S
C1462 C316 1.811 . S
C1467 C477 1.807 . S
C1472 C225 1.901 1_455 S
C1477 C248 1.898 . S
C1482 C178 1.810 . S
C1487 C707 1.807 . S
C1492 C271 1.899 1_455 S
C1497 C294 1.869 . S
C1502 C224 1.772 . S
C1507 C317 1.869 1_655 S
C1512 C385 1.773 . S
C1517 C340 1.869 . S
C1522 C86 1.771 . S
C1527 C615 1.774 . S
C1532 C363 1.868 1_655 S
C1537 C386 1.900 . S
C1542 C500 1.807 1_545 S
C1547 C409 1.899 . S
C1552 C293 1.811 . S
C1557 C730 1.810 . S
C1562 C432 1.898 . S
C1567 C155 1.807 1_545 S
C1572 C455 1.899 . S
C1577 C478 1.868 . S
C1582 C408 1.775 1_565 S
C1587 C201 1.775 . S
C1592 C501 1.868 . S
C1597 C638 1.774 . S
C1602 C524 1.868 . S
C1607 C547 1.869 . S
C1612 C63 1.771 1_565 S
C1617 C684 1.811 . S
C1622 C570 1.901 1_556 S
C1627 C593 1.900 1_556 S
C1632 C109 1.811 . S
C1637 C546 1.810 . S
C1642 C616 1.898 . S
C1647 C339 1.810 . S
C1652 C639 1.898 . S
C1657 C592 1.775 . S
C1662 C662 1.864 1_556 S
C1667 C685 1.867 1_556 S
C1672 C17 1.771 . S
C1677 C454 1.771 . S
C1682 C708 1.869 . S
C1687 C731 1.869 . S
C1692 C247 1.773 . S
