# Generated by pormake.
# Topology vda, (6)-cn, num edge types: 1
# Building blocks:
#     Node 0, Type 0, BuildingBlock: VOLQOD_clean_sbu_1, # of connection points: 6
#     Node 1, Type 0, BuildingBlock: VOLQOD_clean_sbu_1, # of connection points: 6
#     Node 2, Type 0, BuildingBlock: VOLQOD_clean_sbu_1, # of connection points: 6
#     Node 3, Type 0, BuildingBlock: VOLQOD_clean_sbu_1, # of connection points: 6
#     Node 4, Type 0, BuildingBlock: VOLQOD_clean_sbu_1, # of connection points: 6
#     Node 5, Type 0, BuildingBlock: VOLQOD_clean_sbu_1, # of connection points: 6
#     Node 6, Type 0, BuildingBlock: VOLQOD_clean_sbu_1, # of connection points: 6
#     Node 7, Type 0, BuildingBlock: VOLQOD_clean_sbu_1, # of connection points: 6
#     Node 8, Type 0, BuildingBlock: VOLQOD_clean_sbu_1, # of connection points: 6
#     Node 9, Type 0, BuildingBlock: VOLQOD_clean_sbu_1, # of connection points: 6
#     Node 10, Type 0, BuildingBlock: VOLQOD_clean_sbu_1, # of connection points: 6
#     Node 11, Type 0, BuildingBlock: VOLQOD_clean_sbu_1, # of connection points: 6
#     Node 12, Type 0, BuildingBlock: VOLQOD_clean_sbu_1, # of connection points: 6
#     Node 13, Type 0, BuildingBlock: VOLQOD_clean_sbu_1, # of connection points: 6
#     Node 14, Type 0, BuildingBlock: VOLQOD_clean_sbu_1, # of connection points: 6
#     Node 15, Type 0, BuildingBlock: VOLQOD_clean_sbu_1, # of connection points: 6
#     Node 16, Type 0, BuildingBlock: VOLQOD_clean_sbu_1, # of connection points: 6
#     Node 17, Type 0, BuildingBlock: VOLQOD_clean_sbu_1, # of connection points: 6
#     Node 18, Type 0, BuildingBlock: VOLQOD_clean_sbu_1, # of connection points: 6
#     Node 19, Type 0, BuildingBlock: VOLQOD_clean_sbu_1, # of connection points: 6
#     Node 20, Type 0, BuildingBlock: VOLQOD_clean_sbu_1, # of connection points: 6
#     Node 21, Type 0, BuildingBlock: VOLQOD_clean_sbu_1, # of connection points: 6
#     Node 22, Type 0, BuildingBlock: VOLQOD_clean_sbu_1, # of connection points: 6
#     Node 23, Type 0, BuildingBlock: VOLQOD_clean_sbu_1, # of connection points: 6
#     Node 24, Type 0, BuildingBlock: VOLQOD_clean_sbu_1, # of connection points: 6
#     Node 25, Type 0, BuildingBlock: VOLQOD_clean_sbu_1, # of connection points: 6
#     Node 26, Type 0, BuildingBlock: VOLQOD_clean_sbu_1, # of connection points: 6
#     Node 27, Type 0, BuildingBlock: VOLQOD_clean_sbu_1, # of connection points: 6
#     Node 28, Type 0, BuildingBlock: VOLQOD_clean_sbu_1, # of connection points: 6
#     Node 29, Type 0, BuildingBlock: VOLQOD_clean_sbu_1, # of connection points: 6
#     Node 30, Type 0, BuildingBlock: VOLQOD_clean_sbu_1, # of connection points: 6
#     Node 31, Type 0, BuildingBlock: VOLQOD_clean_sbu_1, # of connection points: 6
#     Edge 32, Type (0, 0), None
#     Edge 33, Type (0, 0), None
#     Edge 34, Type (0, 0), None
#     Edge 35, Type (0, 0), None
#     Edge 36, Type (0, 0), None
#     Edge 37, Type (0, 0), None
#     Edge 38, Type (0, 0), None
#     Edge 39, Type (0, 0), None
#     Edge 40, Type (0, 0), None
#     Edge 41, Type (0, 0), None
#     Edge 42, Type (0, 0), None
#     Edge 43, Type (0, 0), None
#     Edge 44, Type (0, 0), None
#     Edge 45, Type (0, 0), None
#     Edge 46, Type (0, 0), None
#     Edge 47, Type (0, 0), None
#     Edge 48, Type (0, 0), None
#     Edge 49, Type (0, 0), None
#     Edge 50, Type (0, 0), None
#     Edge 51, Type (0, 0), None
#     Edge 52, Type (0, 0), None
#     Edge 53, Type (0, 0), None
#     Edge 54, Type (0, 0), None
#     Edge 55, Type (0, 0), None
#     Edge 56, Type (0, 0), None
#     Edge 57, Type (0, 0), None
#     Edge 58, Type (0, 0), None
#     Edge 59, Type (0, 0), None
#     Edge 60, Type (0, 0), None
#     Edge 61, Type (0, 0), None
#     Edge 62, Type (0, 0), None
#     Edge 63, Type (0, 0), None
#     Edge 64, Type (0, 0), None
#     Edge 65, Type (0, 0), None
#     Edge 66, Type (0, 0), None
#     Edge 67, Type (0, 0), None
#     Edge 68, Type (0, 0), None
#     Edge 69, Type (0, 0), None
#     Edge 70, Type (0, 0), None
#     Edge 71, Type (0, 0), None
#     Edge 72, Type (0, 0), None
#     Edge 73, Type (0, 0), None
#     Edge 74, Type (0, 0), None
#     Edge 75, Type (0, 0), None
#     Edge 76, Type (0, 0), None
#     Edge 77, Type (0, 0), None
#     Edge 78, Type (0, 0), None
#     Edge 79, Type (0, 0), None
#     Edge 80, Type (0, 0), None
#     Edge 81, Type (0, 0), None
#     Edge 82, Type (0, 0), None
#     Edge 83, Type (0, 0), None
#     Edge 84, Type (0, 0), None
#     Edge 85, Type (0, 0), None
#     Edge 86, Type (0, 0), None
#     Edge 87, Type (0, 0), None
#     Edge 88, Type (0, 0), None
#     Edge 89, Type (0, 0), None
#     Edge 90, Type (0, 0), None
#     Edge 91, Type (0, 0), None
#     Edge 92, Type (0, 0), None
#     Edge 93, Type (0, 0), None
#     Edge 94, Type (0, 0), None
#     Edge 95, Type (0, 0), None
#     Edge 96, Type (0, 0), None
#     Edge 97, Type (0, 0), None
#     Edge 98, Type (0, 0), None
#     Edge 99, Type (0, 0), None
#     Edge 100, Type (0, 0), None
#     Edge 101, Type (0, 0), None
#     Edge 102, Type (0, 0), None
#     Edge 103, Type (0, 0), None
#     Edge 104, Type (0, 0), None
#     Edge 105, Type (0, 0), None
#     Edge 106, Type (0, 0), None
#     Edge 107, Type (0, 0), None
#     Edge 108, Type (0, 0), None
#     Edge 109, Type (0, 0), None
#     Edge 110, Type (0, 0), None
#     Edge 111, Type (0, 0), None
#     Edge 112, Type (0, 0), None
#     Edge 113, Type (0, 0), None
#     Edge 114, Type (0, 0), None
#     Edge 115, Type (0, 0), None
#     Edge 116, Type (0, 0), None
#     Edge 117, Type (0, 0), None
#     Edge 118, Type (0, 0), None
#     Edge 119, Type (0, 0), None
#     Edge 120, Type (0, 0), None
#     Edge 121, Type (0, 0), None
#     Edge 122, Type (0, 0), None
#     Edge 123, Type (0, 0), None
#     Edge 124, Type (0, 0), None
#     Edge 125, Type (0, 0), None
#     Edge 126, Type (0, 0), None
#     Edge 127, Type (0, 0), None
# Relax obj value: 0.528
# Max RMSD: 0.262
# Mean RMSD: 0.261
data_MOF--net-vda--node1-VOLQOD_clean_sbu_1--edge1-none
_symmetry_space_group_name_H-M    P1
_symmetry_Int_Tables_number       1
_symmetry_cell_setting            triclinic
loop_
_symmetry_equiv_pos_as_xyz
'x, y, z'
_cell_length_a     22.272515
_cell_length_b     19.163577
_cell_length_c     33.777057
_cell_angle_alpha  89.856889
_cell_angle_beta   89.802519
_cell_angle_gamma 89.996663
loop_
_atom_site_label
_atom_site_type_symbol
_atom_site_fract_x
_atom_site_fract_y
_atom_site_fract_z
_atom_type_partial_charge
O0 O 0.35593 0.93329 0.97388 0.0
Zn1 Zn 0.40301 0.01438 0.95697 0.0
O2 O 0.39372 0.08803 -0.00562 0.0
Zn3 Zn 0.35684 0.1584 0.96441 0.0
Zn4 Zn 0.35131 0.04435 0.03611 0.0
Zn5 Zn 0.4659 0.11683 0.01586 0.0
O6 O 0.39403 0.25013 0.99167 0.0
O7 O 0.48437 0.20292 0.98592 0.0
O8 O 0.39905 0.04128 0.90106 0.0
O9 O 0.40201 0.15542 0.90902 0.0
O10 O 0.26733 0.10853 0.9667 0.0
O11 O 0.2637 0.05616 0.02584 0.0
O12 O 0.37141 0.08378 0.08746 0.0
O13 O 0.48359 0.97811 0.95969 0.0
O14 O 0.46088 0.13098 0.07576 0.0
O15 O 0.52544 0.04455 0.00594 0.0
C16 C 0.37848 0.90762 0.00527 0.0
C17 C 0.45189 0.25667 0.99097 0.0
C18 C 0.23853 0.07167 0.99316 0.0
C19 C 0.41488 0.10112 0.88873 0.0
C20 C 0.41878 0.11336 0.09945 0.0
C21 C 0.52665 0.99375 0.98199 0.0
O22 O 0.38243 0.94485 0.03617 0.0
O23 O 0.9082 0.31382 0.96872 0.0
Zn24 Zn 0.92029 0.21715 0.95351 0.0
O25 O 0.95581 0.16366 -0.00554 0.0
Zn26 Zn 1.00068 0.09355 0.9672 0.0
Zn27 Zn 0.98724 0.22239 0.0333 0.0
Zn28 Zn 0.88918 0.12247 0.01705 0.0
O29 O 0.96615 -0.00071 -0.00529 0.0
O30 O 0.87717 0.04184 0.98157 0.0
O31 O 0.96085 0.20668 0.90322 0.0
O32 O 0.96215 0.09262 0.90904 0.0
O33 O 0.09014 0.14287 0.97322 0.0
O34 O 0.07535 0.22315 0.02064 0.0
O35 O 0.97436 0.18227 0.08668 0.0
O36 O 0.83678 0.18692 0.94565 0.0
O37 O 0.90117 0.10541 0.07616 0.0
O38 O 0.82489 0.18897 0.01017 0.0
C39 C 0.91054 0.34268 0.00235 0.0
C40 C 0.90911 0.9896 0.99033 0.0
C41 C 0.11053 0.19208 -0.00379 0.0
C42 C 0.94972 0.14728 0.88871 0.0
C43 C 0.93699 0.13741 0.09936 0.0
C44 C 0.80737 0.20577 0.97585 0.0
O45 O 0.94007 0.31569 0.031 0.0
O46 O 0.36535 0.31623 0.26681 0.0
Zn47 Zn 0.40779 0.23208 0.28385 0.0
O48 O 0.39695 0.16025 0.24574 0.0
Zn49 Zn 0.35956 0.08953 0.27528 0.0
Zn50 Zn 0.35665 0.20712 0.20461 0.0
Zn51 Zn 0.46833 0.13046 0.22372 0.0
O52 O 0.3967 0.9979 0.24757 0.0
O53 O 0.4863 0.04551 0.25475 0.0
O54 O 0.39628 0.20529 0.33922 0.0
O55 O 0.40423 0.09183 0.33079 0.0
O56 O 0.27017 0.13968 0.273 0.0
O57 O 0.26934 0.20101 0.21645 0.0
O58 O 0.37361 0.1663 0.15318 0.0
O59 O 0.49062 0.2624 0.28353 0.0
O60 O 0.46173 0.11521 0.16385 0.0
O61 O 0.52854 0.20197 0.2331 0.0
C62 C 0.38936 0.3414 0.23569 0.0
C63 C 0.4545 0.99155 0.24898 0.0
C64 C 0.2426 0.18003 0.24772 0.0
C65 C 0.41438 0.14636 0.35146 0.0
C66 C 0.41958 0.13423 0.14069 0.0
C67 C 0.53224 0.24882 0.2594 0.0
O68 O 0.39222 0.30477 0.20448 0.0
O69 O 1.00299 0.93428 0.26586 0.0
Zn70 Zn 0.95903 0.01679 0.28373 0.0
O71 O 0.96811 0.09 0.24572 0.0
Zn72 Zn 1.00569 0.15979 0.27556 0.0
Zn73 Zn 1.00865 0.04553 0.20344 0.0
Zn74 Zn 0.89578 0.12043 0.22563 0.0
O75 O 0.96914 0.25216 0.24887 0.0
O76 O 0.87919 0.20574 0.25703 0.0
O77 O 0.96968 0.04271 0.33929 0.0
O78 O 0.9611 0.15622 0.33106 0.0
O79 O 0.0946 0.10969 0.27269 0.0
O80 O 0.09654 0.05401 0.2145 0.0
O81 O 0.9885 0.08629 0.15171 0.0
O82 O 0.87696 0.98398 0.28388 0.0
O83 O 0.90044 0.1356 0.16554 0.0
O84 O 0.83565 0.04856 0.23636 0.0
C85 C 0.97874 0.9094 0.23494 0.0
C86 C 0.9115 0.25945 0.2513 0.0
C87 C 0.12258 0.0715 0.24658 0.0
C88 C 0.95119 0.10136 0.35165 0.0
C89 C 0.94114 0.11753 0.14086 0.0
C90 C 0.83374 -0.00054 0.26158 0.0
O91 O 0.97497 0.94669 0.2039 0.0
O92 O 0.68414 0.05918 0.96947 0.0
Zn93 Zn 0.69146 0.95888 0.95544 0.0
O94 O 0.72452 0.90667 -0.00226 0.0
Zn95 Zn 0.77011 0.83118 0.97839 0.0
Zn96 Zn 0.74818 0.96322 0.03997 0.0
Zn97 Zn 0.65818 0.86267 0.01706 0.0
O98 O 0.71612 0.7378 -0.00386 0.0
O99 O 0.64046 0.79626 0.97373 0.0
O100 O 0.73207 0.93907 0.90385 0.0
O101 O 0.76505 0.83214 0.918 0.0
O102 O 0.85481 0.88222 0.98914 0.0
O103 O 0.83792 0.96245 0.03604 0.0
O104 O 0.7237 0.91914 0.09082 0.0
O105 O 0.60513 0.9348 0.95128 0.0
O106 O 0.66534 0.82994 0.07473 0.0
O107 O 0.59785 0.93289 0.0165 0.0
C108 C 0.68221 0.0892 0.00305 0.0
C109 C 0.66141 0.73771 0.98299 0.0
C110 C 0.87268 0.93463 0.01024 0.0
C111 C 0.75414 0.88079 0.89311 0.0
C112 C 0.69315 0.86577 0.10073 0.0
C113 C 0.57691 0.94854 0.98302 0.0
O114 O 0.70463 0.06024 0.03398 0.0
O115 O 0.12617 0.68063 0.97503 0.0
Zn116 Zn 0.14556 0.77615 0.95567 0.0
O117 O 0.13517 0.84475 -0.00329 0.0
Zn118 Zn 0.08914 0.91707 0.97536 0.0
Zn119 Zn 0.10753 0.79407 0.04115 0.0
Zn120 Zn 0.20828 0.87834 0.01323 0.0
O121 O 0.14092 0.01044 0.99079 0.0
O122 O 0.22601 0.95752 0.97619 0.0
O123 O 0.10806 0.8016 0.90379 0.0
O124 O 0.09804 0.91483 0.91588 0.0
O125 O 1.00413 0.86579 0.9846 0.0
O126 O 1.01857 0.79289 0.03549 0.0
O127 O 0.12947 0.84047 0.09172 0.0
O128 O 0.23195 0.76331 0.94579 0.0
O129 O 0.20961 0.90086 0.07304 0.0
O130 O 0.26043 0.79773 0.00556 0.0
C131 C 0.15004 0.6585 0.00694 0.0
C132 C 0.19725 0.01417 0.98077 0.0
C133 C 0.98549 0.81596 0.00753 0.0
C134 C 0.09983 0.8638 0.89181 0.0
C135 C 0.17285 0.88086 0.09995 0.0
C136 C 0.2656 0.75793 0.97578 0.0
O137 O 0.14954 0.69669 0.03793 0.0
O138 O 0.71416 0.68236 0.77106 0.0
Zn139 Zn 0.70689 0.78136 0.78763 0.0
O140 O 0.72502 0.84498 0.74523 0.0
Zn141 Zn 0.77092 0.91795 0.76624 0.0
Zn142 Zn 0.75213 0.79168 0.7018 0.0
Zn143 Zn 0.65401 0.88246 0.72739 0.0
O144 O 0.72027 0.01155 0.74907 0.0
O145 O 0.63625 0.95898 0.76545 0.0
O146 O 0.74657 0.80431 0.83905 0.0
O147 O 0.76154 0.91669 0.82617 0.0
O148 O 0.85611 0.86767 0.75661 0.0
O149 O 0.84127 0.79075 0.70782 0.0
O150 O 0.73106 0.83696 0.65045 0.0
O151 O 0.61959 0.78334 0.79688 0.0
O152 O 0.65551 0.90591 0.66778 0.0
O153 O 0.59922 0.80541 0.734 0.0
C154 C 0.6984 0.65915 0.73734 0.0
C155 C 0.66418 0.01558 0.75952 0.0
C156 C 0.87492 0.81677 0.73464 0.0
C157 C 0.75752 0.86608 0.85063 0.0
C158 C 0.69085 0.8812 0.64136 0.0
C159 C 0.58938 0.77224 0.76582 0.0
O160 O 0.70845 0.69469 0.70582 0.0
O161 O 0.1633 0.06041 0.77354 0.0
Zn162 Zn 0.16433 0.95999 0.78759 0.0
O163 O 0.13701 0.90435 0.74502 0.0
Zn164 Zn 0.09015 0.82972 0.76439 0.0
Zn165 Zn 0.11355 0.95989 0.70214 0.0
Zn166 Zn 0.2052 0.86188 0.72728 0.0
O167 O 0.14419 0.73691 0.74703 0.0
O168 O 0.21994 0.7938 0.77076 0.0
O169 O 0.12346 0.93745 0.83853 0.0
O170 O 0.09457 0.8291 0.82459 0.0
O171 O 1.00643 0.88338 0.75406 0.0
O172 O 1.02389 0.95761 0.70415 0.0
O173 O 0.1407 0.91728 0.65196 0.0
O174 O 0.25197 0.94548 0.79385 0.0
O175 O 0.2016 0.83077 0.669 0.0
O176 O 0.26446 0.93384 0.72923 0.0
C177 C 0.16959 0.08925 0.73977 0.0
C178 C 0.19853 0.73572 0.76084 0.0
C179 C 0.98923 0.93408 0.73134 0.0
C180 C 0.10344 0.87822 0.84934 0.0
C181 C 0.17353 0.86566 0.64258 0.0
C182 C 0.28174 0.95625 0.76235 0.0
O183 O 0.15414 0.05777 0.70798 0.0
O184 O 0.35487 0.43472 0.47505 0.0
Zn185 Zn 0.40276 0.51524 0.45859 0.0
O186 O 0.39238 0.5891 0.49568 0.0
Zn187 Zn 0.35611 0.65901 0.46506 0.0
Zn188 Zn 0.35013 0.54524 0.53761 0.0
Zn189 Zn 0.46406 0.61952 0.51659 0.0
O190 O 0.39261 0.75126 0.49163 0.0
O191 O 0.48234 0.70374 0.48465 0.0
O192 O 0.40066 0.54137 0.40257 0.0
O193 O 0.40232 0.65559 0.41005 0.0
O194 O 0.26664 0.60975 0.46732 0.0
O195 O 0.26263 0.55496 0.52589 0.0
O196 O 0.36958 0.58604 0.58943 0.0
O197 O 0.48329 0.47914 0.46244 0.0
O198 O 0.45737 0.63654 0.57609 0.0
O199 O 0.52429 0.54703 0.50833 0.0
C200 C 0.37782 0.40868 0.5062 0.0
C201 C 0.45035 0.75785 0.48974 0.0
C202 C 0.23764 0.57221 0.49339 0.0
C203 C 0.41628 0.60121 0.39017 0.0
C204 C 0.41624 0.61842 0.60044 0.0
C205 C 0.52596 0.49548 0.48491 0.0
O206 O 0.382 0.44562 0.53726 0.0
O207 O 0.90724 0.81076 0.46929 0.0
Zn208 Zn 0.92003 0.7144 0.45475 0.0
O209 O 0.95741 0.66252 0.49553 0.0
Zn210 Zn 1.00168 0.59231 0.46793 0.0
Zn211 Zn 0.98824 0.72183 0.53451 0.0
Zn212 Zn 0.89195 0.61935 0.51774 0.0
O213 O 0.96796 0.49782 0.49534 0.0
O214 O 0.88028 0.54089 0.48041 0.0
O215 O 0.95981 0.70505 0.40428 0.0
O216 O 0.96213 0.59109 0.40992 0.0
O217 O 0.09071 0.64173 0.47408 0.0
O218 O 0.07684 0.72198 0.52173 0.0
O219 O 0.97372 0.68271 0.58851 0.0
O220 O 0.83671 0.68257 0.44793 0.0
O221 O 0.90603 0.59983 0.57634 0.0
O222 O 0.82681 0.68547 0.51256 0.0
C223 C 0.91074 0.8411 0.50239 0.0
C224 C 0.91123 0.48824 0.48972 0.0
C225 C 0.11158 0.69055 0.49712 0.0
C226 C 0.94876 0.64568 0.3898 0.0
C227 C 0.93901 0.63425 0.6003 0.0
C228 C 0.80797 0.7014 0.47842 0.0
O229 O 0.9412 0.81541 0.53104 0.0
O230 O 0.4408 0.81679 0.77341 0.0
Zn231 Zn 0.4348 0.71895 0.78785 0.0
O232 O 0.40216 0.66343 0.7468 0.0
Zn233 Zn 0.36018 0.59189 0.77441 0.0
Zn234 Zn 0.36912 0.72143 0.708 0.0
Zn235 Zn 0.46949 0.62593 0.7236 0.0
O236 O 0.39617 0.4991 0.74689 0.0
O237 O 0.4853 0.5443 0.75755 0.0
O238 O 0.39693 0.70407 0.83875 0.0
O239 O 0.40082 0.59051 0.83183 0.0
O240 O 0.27025 0.64022 0.76936 0.0
O241 O 0.28159 0.72117 0.72156 0.0
O242 O 0.38089 0.6813 0.65463 0.0
O243 O 0.52006 0.69603 0.79482 0.0
O244 O 0.45757 0.60899 0.66476 0.0
O245 O 0.53114 0.69559 0.73011 0.0
C246 C 0.44178 0.84395 0.7392 0.0
C247 C 0.45357 0.49112 0.75031 0.0
C248 C 0.24813 0.68905 0.74663 0.0
C249 C 0.41157 0.64499 0.85246 0.0
C250 C 0.41976 0.63843 0.64183 0.0
C251 C 0.54819 0.71485 0.76405 0.0
O252 O 0.41574 0.81502 0.70979 0.0
O253 O 0.91859 0.43573 0.77332 0.0
Zn254 Zn 0.9268 0.53253 0.7884 0.0
O255 O 0.96018 0.58804 0.74722 0.0
Zn256 Zn 1.00333 0.65784 0.77524 0.0
Zn257 Zn 0.9922 0.53092 0.70738 0.0
Zn258 Zn 0.89302 0.62819 0.72545 0.0
O259 O 0.96831 0.75183 0.74869 0.0
O260 O 0.87935 0.70805 0.76135 0.0
O261 O 0.96599 0.54394 0.83895 0.0
O262 O 0.96336 0.65773 0.83305 0.0
O263 O 0.09252 0.60865 0.76909 0.0
O264 O 0.08046 0.53188 0.7195 0.0
O265 O 0.97706 0.57016 0.65368 0.0
O266 O 0.84218 0.55801 0.79651 0.0
O267 O 0.905 0.64756 0.66651 0.0
O268 O 0.83038 0.5588 0.73198 0.0
C269 C 0.91972 0.40791 0.7394 0.0
C270 C 0.91125 0.76089 0.75348 0.0
C271 C 0.11421 0.56138 0.74524 0.0
C272 C 0.95228 0.6027 0.85335 0.0
C273 C 0.93973 0.61599 0.64224 0.0
C274 C 0.81359 0.53925 0.7661 0.0
O275 O 0.94696 0.43649 0.71015 0.0
O276 O 0.6835 0.56051 0.47162 0.0
Zn277 Zn 0.69085 0.46075 0.45705 0.0
O278 O 0.72504 0.40802 0.49888 0.0
Zn279 Zn 0.7696 0.33258 0.4782 0.0
Zn280 Zn 0.74975 0.46429 0.54107 0.0
Zn281 Zn 0.65878 0.36558 0.51921 0.0
O282 O 0.71563 0.23858 0.49529 0.0
O283 O 0.63908 0.29934 0.47617 0.0
O284 O 0.72995 0.44287 0.40457 0.0
O285 O 0.7632 0.33574 0.41769 0.0
O286 O 0.85521 0.38183 0.48912 0.0
O287 O 0.83893 0.46423 0.53507 0.0
O288 O 0.72883 0.41965 0.59257 0.0
O289 O 0.60435 0.4367 0.45395 0.0
O290 O 0.66728 0.33329 0.57684 0.0
O291 O 0.59894 0.43676 0.51925 0.0
C292 C 0.68146 0.58989 0.50536 0.0
C293 C 0.66019 0.23998 0.48354 0.0
C294 C 0.87353 0.43468 0.50979 0.0
C295 C 0.75179 0.38489 0.39319 0.0
C296 C 0.69741 0.36708 0.60261 0.0
C297 C 0.57695 0.45129 0.48589 0.0
O298 O 0.70467 0.56087 0.53604 0.0
O299 O 0.13091 0.18158 0.47178 0.0
Zn300 Zn 0.14694 0.27896 0.45376 0.0
O301 O 0.13578 0.34572 0.49553 0.0
Zn302 Zn 0.08847 0.41827 0.47556 0.0
Zn303 Zn 0.10976 0.29379 0.53981 0.0
Zn304 Zn 0.20866 0.38175 0.51102 0.0
O305 O 0.14002 0.51129 0.49182 0.0
O306 O 0.22377 0.4602 0.47311 0.0
O307 O 0.1076 0.30596 0.40289 0.0
O308 O 0.09582 0.41866 0.41607 0.0
O309 O 1.00445 0.36516 0.48478 0.0
O310 O 1.02021 0.29365 0.53602 0.0
O311 O 0.13514 0.33879 0.59005 0.0
O312 O 0.23344 0.26994 0.44284 0.0
O313 O 0.21128 0.40537 0.57069 0.0
O314 O 0.26134 0.30221 0.50305 0.0
C315 C 0.1525 0.15854 0.50419 0.0
C316 C 0.19552 0.51629 0.48013 0.0
C317 C 0.98661 0.3154 0.50797 0.0
C318 C 0.09788 0.36829 0.39158 0.0
C319 C 0.17674 0.38189 0.59798 0.0
C320 C 0.26682 0.26343 0.47289 0.0
O321 O 0.15068 0.19604 0.53543 0.0
O322 O 0.69992 0.19022 0.2732 0.0
Zn323 Zn 0.69875 0.29037 0.28667 0.0
O324 O 0.72862 0.34566 0.24414 0.0
Zn325 Zn 0.77283 0.42041 0.26556 0.0
Zn326 Zn 0.75435 0.2901 0.20149 0.0
Zn327 Zn 0.66096 0.38542 0.22415 0.0
O328 O 0.71913 0.51298 0.24735 0.0
O329 O 0.64095 0.45355 0.26617 0.0
O330 O 0.73589 0.31095 0.33901 0.0
O331 O 0.76331 0.4201 0.32603 0.0
O332 O 0.8574 0.36715 0.25636 0.0
O333 O 0.84372 0.29427 0.20539 0.0
O334 O 0.72978 0.33119 0.14957 0.0
O335 O 0.611 0.30608 0.29079 0.0
O336 O 0.66637 0.41553 0.16583 0.0
O337 O 0.6032 0.31201 0.22564 0.0
C338 C 0.69665 0.16053 0.23964 0.0
C339 C 0.66339 0.51243 0.25876 0.0
C340 C 0.87644 0.31755 0.23345 0.0
C341 C 0.75345 0.37056 0.35057 0.0
C342 C 0.6962 0.38194 0.13969 0.0
C343 C 0.58338 0.29279 0.25892 0.0
O344 O 0.71439 0.1914 0.20795 0.0
O345 O 0.1512 0.56854 0.27094 0.0
Zn346 Zn 0.15733 0.46923 0.28801 0.0
O347 O 0.14074 0.40571 0.24582 0.0
Zn348 Zn 0.09253 0.33271 0.26494 0.0
Zn349 Zn 0.11601 0.45922 0.2021 0.0
Zn350 Zn 0.21243 0.36636 0.22988 0.0
O351 O 0.1441 0.23901 0.24917 0.0
O352 O 0.22622 0.29034 0.26948 0.0
O353 O 0.11459 0.44486 0.33827 0.0
O354 O 0.0962 0.33336 0.32465 0.0
O355 O 1.00807 0.38294 0.25375 0.0
O356 O 1.02649 0.46103 0.20597 0.0
O357 O 0.13991 0.41281 0.15228 0.0
O358 O 0.24424 0.46696 0.29863 0.0
O359 O 0.21275 0.34068 0.17049 0.0
O360 O 0.26754 0.44361 0.23634 0.0
C361 C 0.16846 0.59157 0.23733 0.0
C362 C 0.19905 0.23405 0.26167 0.0
C363 C 0.99101 0.43478 0.23189 0.0
C364 C 0.09995 0.38355 0.3492 0.0
C365 C 0.17887 0.36679 0.14377 0.0
C366 C 0.27568 0.47786 0.26789 0.0
O367 O 0.15984 0.5558 0.20589 0.0
O368 O 0.85598 0.93309 0.47419 0.0
Zn369 Zn 0.90304 0.0141 0.45715 0.0
O370 O 0.8936 0.08795 0.49439 0.0
Zn371 Zn 0.85685 0.15819 0.46426 0.0
Zn372 Zn 0.85109 0.04437 0.5361 0.0
Zn373 Zn 0.96567 0.11672 0.51601 0.0
O374 O 0.89412 0.25008 0.49128 0.0
O375 O 0.98445 0.2026 0.48598 0.0
O376 O 0.89886 0.04062 0.4012 0.0
O377 O 0.90193 0.15481 0.4089 0.0
O378 O 0.7673 0.10847 0.4665 0.0
O379 O 0.76356 0.05574 0.52555 0.0
O380 O 0.87065 0.08431 0.5874 0.0
O381 O 0.98371 0.97799 0.45992 0.0
O382 O 0.96026 0.13127 0.57586 0.0
O383 O 1.0252 0.04429 0.50638 0.0
C384 C 0.87859 0.90759 0.50559 0.0
C385 C 0.95199 0.25648 0.4907 0.0
C386 C 0.73846 0.07148 0.49289 0.0
C387 C 0.91468 0.10036 0.38872 0.0
C388 C 0.91794 0.11398 0.59945 0.0
C389 C 1.02659 0.99355 0.4824 0.0
O390 O 0.8825 0.94496 0.53645 0.0
O391 O 0.40816 0.31359 0.46871 0.0
Zn392 Zn 0.42032 0.21688 0.45357 0.0
O393 O 0.45578 0.16352 0.49461 0.0
Zn394 Zn 0.50076 0.09334 0.46745 0.0
Zn395 Zn 0.48705 0.22233 0.53349 0.0
Zn396 Zn 0.3891 0.12225 0.51713 0.0
O397 O 0.46627 -0.00084 0.4951 0.0
O398 O 0.37736 0.04154 0.48166 0.0
O399 O 0.4609 0.20623 0.40328 0.0
O400 O 0.46234 0.09219 0.40922 0.0
O401 O 0.59017 0.14278 0.47356 0.0
O402 O 0.57527 0.22301 0.52101 0.0
O403 O 0.47377 0.18245 0.58693 0.0
O404 O 0.33685 0.18656 0.44565 0.0
O405 O 0.40083 0.10533 0.57627 0.0
O406 O 0.32477 0.18866 0.51015 0.0
C407 C 0.41048 0.34256 0.50232 0.0
C408 C 0.40925 0.98939 0.49064 0.0
C409 C 0.61049 0.19194 0.4966 0.0
C410 C 0.44988 0.14676 0.38882 0.0
C411 C 0.43637 0.13758 0.59955 0.0
C412 C 0.30735 0.20541 0.47581 0.0
O413 O 0.43997 0.31566 0.53101 0.0
O414 O 0.86331 0.31644 0.7668 0.0
Zn415 Zn 0.90666 0.23285 0.78373 0.0
O416 O 0.89602 0.16074 0.74575 0.0
Zn417 Zn 0.85881 0.0901 0.77543 0.0
Zn418 Zn 0.8554 0.20734 0.70465 0.0
Zn419 Zn 0.96742 0.13119 0.72365 0.0
O420 O 0.89591 0.99836 0.74786 0.0
O421 O 0.98568 0.04605 0.75439 0.0
O422 O 0.89623 0.20607 0.83919 0.0
O423 O 0.90367 0.09252 0.83081 0.0
O424 O 0.76941 0.1402 0.77332 0.0
O425 O 0.76813 0.201 0.7166 0.0
O426 O 0.87243 0.1666 0.65319 0.0
O427 O 0.98922 0.26409 0.78293 0.0
O428 O 0.96083 0.11616 0.66381 0.0
O429 O 1.02757 0.20273 0.73302 0.0
C430 C 0.88727 0.3418 0.73572 0.0
C431 C 0.95374 0.99207 0.74901 0.0
C432 C 0.74164 0.18035 0.74802 0.0
C433 C 0.91415 0.14705 0.85141 0.0
C434 C 0.91858 0.13489 0.64068 0.0
C435 C 1.031 0.25015 0.759 0.0
O436 O 0.89053 0.30516 0.70454 0.0
O437 O 0.49987 0.93392 0.76629 0.0
Zn438 Zn 0.45774 0.01763 0.78427 0.0
O439 O 0.4674 0.09012 0.74588 0.0
Zn440 Zn 0.50535 0.16021 0.77533 0.0
Zn441 Zn 0.50728 0.04496 0.7036 0.0
Zn442 Zn 0.39517 0.1209 0.72589 0.0
O443 O 0.46873 0.25238 0.74841 0.0
O444 O 0.37906 0.20601 0.75759 0.0
O445 O 0.47079 0.04389 0.83955 0.0
O446 O 0.461 0.15712 0.83098 0.0
O447 O 0.59429 0.11011 0.7722 0.0
O448 O 0.59522 0.05269 0.7145 0.0
O449 O 0.48739 0.08579 0.65187 0.0
O450 O 0.37505 0.98666 0.78547 0.0
O451 O 0.39987 0.13632 0.66578 0.0
O452 O 0.33488 0.0492 0.73668 0.0
C453 C 0.47541 0.90944 0.73534 0.0
C454 C 0.41114 0.25969 0.75128 0.0
C455 C 0.62183 0.07131 0.74618 0.0
C456 C 0.45171 0.10236 0.85178 0.0
C457 C 0.44035 0.1177 0.64106 0.0
C458 C 0.33225 0.00137 0.76265 0.0
O459 O 0.47255 0.94658 0.70419 0.0
O460 O 0.18423 0.0589 0.46967 0.0
Zn461 Zn 0.19147 0.95853 0.45581 0.0
O462 O 0.22463 0.90657 0.49818 0.0
Zn463 Zn 0.27027 0.83102 0.4789 0.0
Zn464 Zn 0.24819 0.9633 0.54039 0.0
Zn465 Zn 0.15827 0.86273 0.51758 0.0
O466 O 0.21627 0.73767 0.49668 0.0
O467 O 0.14053 0.7962 0.47434 0.0
O468 O 0.23205 0.93852 0.40422 0.0
O469 O 0.2655 0.83183 0.41847 0.0
O470 O 0.35494 0.88203 0.48975 0.0
O471 O 0.33792 0.96275 0.53636 0.0
O472 O 0.22382 0.91931 0.59135 0.0
O473 O 0.1051 0.93451 0.45175 0.0
O474 O 0.16546 0.83009 0.57526 0.0
O475 O 0.09794 0.93298 0.51698 0.0
C476 C 0.1822 0.08907 0.50321 0.0
C477 C 0.16152 0.73768 0.4836 0.0
C478 C 0.37276 0.93465 0.5107 0.0
C479 C 0.25444 0.88037 0.39354 0.0
C480 C 0.1933 0.8659 0.60125 0.0
C481 C 0.07693 0.94843 0.48348 0.0
O482 O 0.20452 0.06024 0.53421 0.0
O483 O 0.62652 0.68043 0.47486 0.0
Zn484 Zn 0.64588 0.77592 0.45541 0.0
O485 O 0.63535 0.84464 0.49638 0.0
Zn486 Zn 0.58937 0.91684 0.47485 0.0
Zn487 Zn 0.60759 0.79417 0.54086 0.0
Zn488 Zn 0.70842 0.87842 0.51292 0.0
O489 O 0.64089 0.01027 0.49039 0.0
O490 O 0.72598 0.95745 0.47573 0.0
O491 O 0.6086 0.80118 0.40343 0.0
O492 O 0.5988 0.91447 0.4154 0.0
O493 O 0.50433 0.86559 0.484 0.0
O494 O 0.51861 0.79327 0.53521 0.0
O495 O 0.62957 0.84066 0.59137 0.0
O496 O 0.73228 0.76314 0.44561 0.0
O497 O 0.70969 0.90115 0.57273 0.0
O498 O 0.76064 0.79784 0.50535 0.0
C499 C 0.65019 0.65842 0.50686 0.0
C500 C 0.69721 0.01407 0.48036 0.0
C501 C 0.48563 0.81607 0.50712 0.0
C502 C 0.60069 0.86339 0.39137 0.0
C503 C 0.67288 0.88113 0.59962 0.0
C504 C 0.7659 0.75794 0.47563 0.0
O505 O 0.64951 0.69671 0.5378 0.0
O506 O 0.21904 0.68168 0.27072 0.0
Zn507 Zn 0.20935 0.78023 0.28774 0.0
O508 O 0.2259 0.84501 0.24553 0.0
Zn509 Zn 0.27155 0.91788 0.26673 0.0
Zn510 Zn 0.25331 0.79235 0.20187 0.0
Zn511 Zn 0.15443 0.8816 0.22782 0.0
O512 O 0.22072 0.01125 0.24959 0.0
O513 O 0.13631 0.95871 0.26546 0.0
O514 O 0.24829 0.8038 0.33937 0.0
O515 O 0.26182 0.91645 0.32662 0.0
O516 O 0.35671 0.86744 0.25723 0.0
O517 O 0.34246 0.7921 0.2076 0.0
O518 O 0.23187 0.83763 0.15061 0.0
O519 O 0.12211 0.77918 0.29704 0.0
O520 O 0.15527 0.90479 0.16817 0.0
O521 O 0.1005 0.80362 0.23459 0.0
C522 C 0.20178 0.6589 0.23721 0.0
C523 C 0.16453 0.01525 0.25979 0.0
C524 C 0.37576 0.8172 0.23487 0.0
C525 C 0.25827 0.86575 0.35104 0.0
C526 C 0.19093 0.88101 0.14168 0.0
C527 C 0.09164 0.76889 0.26601 0.0
O528 O 0.2102 0.69508 0.20574 0.0
O529 O 0.66619 0.05955 0.27335 0.0
Zn530 Zn 0.66632 0.95901 0.28714 0.0
O531 O 0.63787 0.90423 0.24459 0.0
Zn532 Zn 0.59119 0.82938 0.2639 0.0
Zn533 Zn 0.61455 0.96019 0.20187 0.0
Zn534 Zn 0.70571 0.8616 0.22652 0.0
O535 O 0.64553 0.7366 0.24659 0.0
O536 O 0.72102 0.79407 0.27013 0.0
O537 O 0.6256 0.93662 0.33815 0.0
O538 O 0.59537 0.82879 0.32413 0.0
O539 O 0.50739 0.88296 0.25352 0.0
O540 O 0.52493 0.95826 0.20408 0.0
O541 O 0.6413 0.9176 0.15159 0.0
O542 O 0.75388 0.94307 0.29284 0.0
O543 O 0.70136 0.83012 0.16837 0.0
O544 O 0.7651 0.93334 0.22803 0.0
C545 C 0.67172 0.08889 0.23967 0.0
C546 C 0.6999 0.73581 0.26036 0.0
C547 C 0.49021 0.93399 0.23102 0.0
C548 C 0.60479 0.87772 0.3489 0.0
C549 C 0.6735 0.86551 0.14207 0.0
C550 C 0.78323 0.95441 0.26123 0.0
O551 O 0.65544 0.05793 0.20788 0.0
O552 O 0.85471 0.43478 0.97522 0.0
Zn553 Zn 0.90239 0.51541 0.95862 0.0
O554 O 0.89227 0.58915 -0.00418 0.0
Zn555 Zn 0.85587 0.65921 0.96538 0.0
Zn556 Zn 0.85026 0.54524 0.03783 0.0
Zn557 Zn 0.96412 0.61959 0.01645 0.0
O558 O 0.89237 0.75133 0.99211 0.0
O559 O 0.98205 0.70398 0.98456 0.0
O560 O 0.8995 0.54178 0.90265 0.0
O561 O 0.90197 0.65593 0.91032 0.0
O562 O 0.76646 0.60989 0.96775 0.0
O563 O 0.76266 0.55498 0.02629 0.0
O564 O 0.87021 0.5858 0.08963 0.0
O565 O 0.98301 0.47935 0.96208 0.0
O566 O 0.95791 0.6363 0.07599 0.0
O567 O 1.02428 0.54719 0.00789 0.0
C568 C 0.87783 0.40875 0.00631 0.0
C569 C 0.95009 0.758 0.99 0.0
C570 C 0.73755 0.57229 0.99383 0.0
C571 C 0.9155 0.60154 0.89032 0.0
C572 C 0.91704 0.61804 0.10049 0.0
C573 C 1.02583 0.49571 0.98442 0.0
O574 O 0.88214 0.44565 0.03738 0.0
O575 O 0.40702 0.81082 0.9689 0.0
Zn576 Zn 0.41965 0.71442 0.95439 0.0
O577 O 0.4573 0.66258 -0.00488 0.0
Zn578 Zn 0.50149 0.59238 0.96746 0.0
Zn579 Zn 0.48822 0.72185 0.03408 0.0
Zn580 Zn 0.39198 0.61937 0.0175 0.0
O581 O 0.46783 0.49791 -0.00511 0.0
O582 O 0.38011 0.54104 0.98011 0.0
O583 O 0.45904 0.70494 0.90379 0.0
O584 O 0.46156 0.59101 0.90957 0.0
O585 O 0.59056 0.64179 0.9735 0.0
O586 O 0.57674 0.72211 0.02115 0.0
O587 O 0.47408 0.68256 0.08812 0.0
O588 O 0.33626 0.68265 0.94785 0.0
O589 O 0.40641 0.59963 0.07607 0.0
O590 O 0.32679 0.68549 0.01252 0.0
C591 C 0.41056 0.8411 0.00202 0.0
C592 C 0.41109 0.48835 0.98932 0.0
C593 C 0.61144 0.69063 -0.00347 0.0
C594 C 0.4479 0.64549 0.88945 0.0
C595 C 0.43954 0.63398 0.09997 0.0
C596 C 0.30772 0.70142 0.97844 0.0
O597 O 0.44104 0.81536 0.03065 0.0
O598 O 0.94689 0.81521 0.27279 0.0
Zn599 Zn 0.93828 0.71781 0.28755 0.0
O600 O 0.90397 0.6634 0.24674 0.0
Zn601 Zn 0.86153 0.59207 0.27439 0.0
Zn602 Zn 0.87121 0.72187 0.20805 0.0
Zn603 Zn 0.97083 0.62467 0.22353 0.0
O604 O 0.89707 0.49886 0.2469 0.0
O605 O 0.986 0.54375 0.25815 0.0
O606 O 0.89998 0.70472 0.3384 0.0
O607 O 0.90176 0.5909 0.33203 0.0
O608 O 0.77162 0.64032 0.26907 0.0
O609 O 0.78355 0.72159 0.22152 0.0
O610 O 0.883 0.68182 0.15467 0.0
O611 O 1.02282 0.69149 0.29441 0.0
O612 O 0.95821 0.60739 0.1648 0.0
O613 O 1.03336 0.69323 0.22971 0.0
C614 C 0.94577 0.84347 0.23888 0.0
C615 C 0.95441 0.4907 0.25055 0.0
C616 C 0.74977 0.6893 0.24635 0.0
C617 C 0.91334 0.64547 0.35244 0.0
C618 C 0.921 0.63791 0.14187 0.0
C619 C 1.05096 0.71105 0.26379 0.0
O620 O 0.91784 0.81557 0.2099 0.0
O621 O 0.42164 0.43485 0.27332 0.0
Zn622 Zn 0.42859 0.53183 0.28827 0.0
O623 O 0.46116 0.58797 0.24701 0.0
Zn624 Zn 0.50399 0.65775 0.27519 0.0
Zn625 Zn 0.49341 0.53107 0.20712 0.0
Zn626 Zn 0.39375 0.6275 0.22518 0.0
O627 O 0.46883 0.75169 0.24884 0.0
O628 O 0.37956 0.70774 0.26071 0.0
O629 O 0.46737 0.54388 0.33894 0.0
O630 O 0.46384 0.65758 0.33288 0.0
O631 O 0.59323 0.60866 0.2692 0.0
O632 O 0.58162 0.53212 0.2194 0.0
O633 O 0.4783 0.57036 0.15337 0.0
O634 O 0.34368 0.55574 0.29635 0.0
O635 O 0.40541 0.64669 0.16619 0.0
O636 O 0.33167 0.55739 0.23182 0.0
C637 C 0.42194 0.40745 0.23928 0.0
C638 C 0.4117 0.76067 0.25338 0.0
C639 C 0.6151 0.56154 0.24532 0.0
C640 C 0.45313 0.60254 0.35324 0.0
C641 C 0.44049 0.61566 0.14192 0.0
C642 C 0.31524 0.53704 0.26586 0.0
O643 O 0.4483 0.43653 0.20985 0.0
O644 O 0.1833 0.56079 0.97149 0.0
Zn645 Zn 0.19075 0.46109 0.95673 0.0
O646 O 0.22484 0.40814 -0.00148 0.0
Zn647 Zn 0.26942 0.33277 0.97777 0.0
Zn648 Zn 0.24971 0.46426 0.04072 0.0
Zn649 Zn 0.15856 0.36561 0.01879 0.0
O650 O 0.21562 0.2387 -0.00512 0.0
O651 O 0.13905 0.29941 0.97567 0.0
O652 O 0.22994 0.44337 0.90426 0.0
O653 O 0.26275 0.33602 0.9173 0.0
O654 O 0.35507 0.38195 0.98861 0.0
O655 O 0.33887 0.46415 0.03468 0.0
O656 O 0.22888 0.41947 0.09215 0.0
O657 O 0.10428 0.43701 0.95345 0.0
O658 O 0.16704 0.33333 0.07646 0.0
O659 O 0.09864 0.4367 0.01874 0.0
C660 C 0.18135 0.59001 0.00529 0.0
C661 C 0.1602 0.2401 0.9831 0.0
C662 C 0.37343 0.4347 0.00934 0.0
C663 C 0.25148 0.38526 0.89283 0.0
C664 C 0.19738 0.36697 0.10219 0.0
C665 C 0.07676 0.4514 0.98538 0.0
O666 O 0.20465 0.56085 0.03588 0.0
O667 O 0.63072 0.1818 0.97186 0.0
Zn668 Zn 0.64677 0.27922 0.95394 0.0
O669 O 0.63562 0.34581 -0.00421 0.0
Zn670 Zn 0.58825 0.41845 0.97596 0.0
Zn671 Zn 0.60977 0.29367 0.04006 0.0
Zn672 Zn 0.70851 0.38182 0.01127 0.0
O673 O 0.63988 0.51143 0.99227 0.0
O674 O 0.72359 0.46036 0.97344 0.0
O675 O 0.60728 0.30636 0.90315 0.0
O676 O 0.59515 0.41899 0.91642 0.0
O677 O 0.50428 0.36532 0.98532 0.0
O678 O 0.52021 0.29329 0.03633 0.0
O679 O 0.63522 0.33858 0.09035 0.0
O680 O 0.73327 0.27018 0.94299 0.0
O681 O 0.71122 0.40535 0.07094 0.0
O682 O 0.76123 0.30238 0.0032 0.0
C683 C 0.65249 0.15864 0.00419 0.0
C684 C 0.69538 0.51643 0.98056 0.0
C685 C 0.48652 0.31542 0.00842 0.0
C686 C 0.5972 0.36866 0.8919 0.0
C687 C 0.67677 0.38177 0.09824 0.0
C688 C 0.76672 0.2637 0.973 0.0
O689 O 0.6508 0.19601 0.03549 0.0
O690 O 0.19782 0.19075 0.77313 0.0
Zn691 Zn 0.19734 0.29095 0.78643 0.0
O692 O 0.22788 0.34563 0.74389 0.0
Zn693 Zn 0.27218 0.42047 0.76514 0.0
Zn694 Zn 0.25334 0.28972 0.70136 0.0
Zn695 Zn 0.16044 0.38557 0.72379 0.0
O696 O 0.21838 0.51309 0.74702 0.0
O697 O 0.14037 0.45343 0.76592 0.0
O698 O 0.23456 0.31148 0.83874 0.0
O699 O 0.26302 0.42024 0.82564 0.0
O700 O 0.35678 0.36729 0.7558 0.0
O701 O 0.34266 0.29304 0.70549 0.0
O702 O 0.22926 0.33097 0.64938 0.0
O703 O 0.10968 0.30759 0.79034 0.0
O704 O 0.16626 0.41582 0.66552 0.0
O705 O 0.10245 0.31244 0.72514 0.0
C706 C 0.19469 0.16082 0.73963 0.0
C707 C 0.16268 0.51236 0.75852 0.0
C708 C 0.37565 0.31718 0.73318 0.0
C709 C 0.25278 0.37087 0.85022 0.0
C710 C 0.19605 0.38202 0.63945 0.0
C711 C 0.08217 0.29406 0.75845 0.0
O712 O 0.21284 0.19131 0.70792 0.0
O713 O 0.64651 0.56915 0.77056 0.0
Zn714 Zn 0.65479 0.47029 0.7881 0.0
O715 O 0.63956 0.40586 0.74608 0.0
Zn716 Zn 0.59149 0.33294 0.7653 0.0
Zn717 Zn 0.61472 0.45875 0.70211 0.0
Zn718 Zn 0.71168 0.3672 0.73041 0.0
O719 O 0.64325 0.23948 0.74952 0.0
O720 O 0.72548 0.29077 0.7698 0.0
O721 O 0.6125 0.44544 0.83848 0.0
O722 O 0.59542 0.33363 0.82499 0.0
O723 O 0.50709 0.3834 0.7542 0.0
O724 O 0.52522 0.46028 0.70573 0.0
O725 O 0.63901 0.41221 0.65243 0.0
O726 O 0.74166 0.47069 0.79894 0.0
O727 O 0.71279 0.34167 0.67101 0.0
O728 O 0.76624 0.44504 0.73712 0.0
C729 C 0.66515 0.5918 0.73718 0.0
C730 C 0.69822 0.23451 0.76199 0.0
C731 C 0.48994 0.43469 0.73196 0.0
C732 C 0.59873 0.38391 0.84951 0.0
C733 C 0.67867 0.36688 0.64414 0.0
C734 C 0.77367 0.48045 0.76835 0.0
O735 O 0.65809 0.55546 0.70579 0.0
loop_
_geom_bond_atom_site_label_1
_geom_bond_atom_site_label_2
_geom_bond_distance
_geom_bond_site_symmetry_2
_ccdc_geom_bond_type
O0 Zn1 1.953 1_565 S
O0 C16 1.225 1_556 S
Zn1 O0 1.953 1_545 S
Zn1 O2 1.930 1_556 S
Zn1 O8 1.919 . S
Zn1 O13 1.924 . S
O2 Zn1 1.930 1_554 S
O2 Zn3 1.909 1_554 S
O2 Zn4 1.970 . S
O2 Zn5 1.957 . S
Zn3 O2 1.909 1_556 S
Zn3 O6 1.933 . S
Zn3 O9 1.941 . S
Zn3 O10 1.965 . S
Zn4 O2 1.970 . S
Zn4 O11 1.938 . S
Zn4 O12 1.906 . S
Zn4 O22 1.953 1_545 S
Zn5 O2 1.957 . S
Zn5 O7 1.932 . S
Zn5 O14 1.977 . S
Zn5 O15 1.910 . S
O6 Zn3 1.933 . S
O6 C17 1.226 . S
O7 Zn5 1.932 . S
O7 C17 1.307 1_554 S
O8 Zn1 1.919 . S
O8 C19 1.253 . S
O9 Zn3 1.941 . S
O9 C19 1.283 . S
O10 Zn3 1.965 . S
O10 C18 1.303 1_556 S
O11 Zn4 1.938 . S
O11 C18 1.247 . S
O12 Zn4 1.906 . S
O12 C20 1.304 . S
O13 Zn1 1.924 . S
O13 C21 1.311 1_556 S
O14 Zn5 1.977 . S
O14 C20 1.272 . S
O15 Zn5 1.910 . S
O15 C21 1.231 . S
C16 O0 1.225 1_554 S
C16 O22 1.298 . S
C17 O6 1.226 . S
C17 O7 1.307 1_556 S
C18 O10 1.303 1_554 S
C18 O11 1.247 . S
C19 O8 1.253 . S
C19 O9 1.283 . S
C20 O12 1.304 . S
C20 O14 1.272 . S
C21 O13 1.311 1_554 S
C21 O15 1.231 . S
O22 Zn4 1.953 1_565 S
O22 C16 1.298 . S
O23 Zn24 1.953 . S
O23 C39 1.225 1_556 S
Zn24 O23 1.953 . S
Zn24 O25 1.930 1_556 S
Zn24 O31 1.919 . S
Zn24 O36 1.924 . S
O25 Zn24 1.930 1_554 S
O25 Zn26 1.909 1_554 S
O25 Zn27 1.970 . S
O25 Zn28 1.957 . S
Zn26 O25 1.909 1_556 S
Zn26 O29 1.933 1_545 S
Zn26 O32 1.941 . S
Zn26 O33 1.965 1_655 S
Zn27 O25 1.970 . S
Zn27 O34 1.938 1_655 S
Zn27 O35 1.906 . S
Zn27 O45 1.953 . S
Zn28 O25 1.957 . S
Zn28 O30 1.932 . S
Zn28 O37 1.977 . S
Zn28 O38 1.910 . S
O29 Zn26 1.933 1_565 S
O29 C40 1.226 . S
O30 Zn28 1.932 . S
O30 C40 1.307 1_544 S
O31 Zn24 1.919 . S
O31 C42 1.253 . S
O32 Zn26 1.941 . S
O32 C42 1.283 . S
O33 Zn26 1.965 1_455 S
O33 C41 1.303 1_556 S
O34 Zn27 1.938 1_455 S
O34 C41 1.247 . S
O35 Zn27 1.906 . S
O35 C43 1.304 . S
O36 Zn24 1.924 . S
O36 C44 1.311 1_556 S
O37 Zn28 1.977 . S
O37 C43 1.272 . S
O38 Zn28 1.910 . S
O38 C44 1.231 . S
C39 O23 1.225 1_554 S
C39 O45 1.298 . S
C40 O29 1.226 . S
C40 O30 1.307 1_566 S
C41 O33 1.303 1_554 S
C41 O34 1.247 . S
C42 O31 1.253 . S
C42 O32 1.283 . S
C43 O35 1.304 . S
C43 O37 1.272 . S
C44 O36 1.311 1_554 S
C44 O38 1.231 . S
O45 Zn27 1.953 . S
O45 C39 1.298 . S
O46 Zn47 1.953 . S
O46 C62 1.225 . S
Zn47 O46 1.953 . S
Zn47 O48 1.949 . S
Zn47 O54 1.919 . S
Zn47 O59 1.924 . S
O48 Zn47 1.949 . S
O48 Zn49 1.923 . S
O48 Zn50 1.950 . S
O48 Zn51 1.945 . S
Zn49 O48 1.923 . S
Zn49 O52 1.933 1_545 S
Zn49 O55 1.941 . S
Zn49 O56 1.965 . S
Zn50 O48 1.950 . S
Zn50 O57 1.938 . S
Zn50 O58 1.906 . S
Zn50 O68 1.953 . S
Zn51 O48 1.945 . S
Zn51 O53 1.932 . S
Zn51 O60 1.977 . S
Zn51 O61 1.910 . S
O52 Zn49 1.933 1_565 S
O52 C63 1.226 . S
O53 Zn51 1.932 . S
O53 C63 1.307 1_545 S
O54 Zn47 1.919 . S
O54 C65 1.253 . S
O55 Zn49 1.941 . S
O55 C65 1.283 . S
O56 Zn49 1.965 . S
O56 C64 1.303 . S
O57 Zn50 1.938 . S
O57 C64 1.247 . S
O58 Zn50 1.906 . S
O58 C66 1.304 . S
O59 Zn47 1.924 . S
O59 C67 1.311 . S
O60 Zn51 1.977 . S
O60 C66 1.272 . S
O61 Zn51 1.910 . S
O61 C67 1.231 . S
C62 O46 1.225 . S
C62 O68 1.298 . S
C63 O52 1.226 . S
C63 O53 1.307 1_565 S
C64 O56 1.303 . S
C64 O57 1.247 . S
C65 O54 1.253 . S
C65 O55 1.283 . S
C66 O58 1.304 . S
C66 O60 1.272 . S
C67 O59 1.311 . S
C67 O61 1.231 . S
O68 Zn50 1.953 . S
O68 C62 1.298 . S
O69 Zn70 1.953 1_565 S
O69 C85 1.225 . S
Zn70 O69 1.953 1_545 S
Zn70 O71 1.949 . S
Zn70 O77 1.919 . S
Zn70 O82 1.924 . S
O71 Zn70 1.949 . S
O71 Zn72 1.923 . S
O71 Zn73 1.950 . S
O71 Zn74 1.945 . S
Zn72 O71 1.923 . S
Zn72 O75 1.933 . S
Zn72 O78 1.941 . S
Zn72 O79 1.965 1_655 S
Zn73 O71 1.950 . S
Zn73 O80 1.938 1_655 S
Zn73 O81 1.906 . S
Zn73 O91 1.953 1_545 S
Zn74 O71 1.945 . S
Zn74 O76 1.932 . S
Zn74 O83 1.977 . S
Zn74 O84 1.910 . S
O75 Zn72 1.933 . S
O75 C86 1.226 . S
O76 Zn74 1.932 . S
O76 C86 1.307 . S
O77 Zn70 1.919 . S
O77 C88 1.253 . S
O78 Zn72 1.941 . S
O78 C88 1.283 . S
O79 Zn72 1.965 1_455 S
O79 C87 1.303 . S
O80 Zn73 1.938 1_455 S
O80 C87 1.247 . S
O81 Zn73 1.906 . S
O81 C89 1.304 . S
O82 Zn70 1.924 . S
O82 C90 1.311 . S
O83 Zn74 1.977 . S
O83 C89 1.272 . S
O84 Zn74 1.910 . S
O84 C90 1.231 . S
C85 O69 1.225 . S
C85 O91 1.298 . S
C86 O75 1.226 . S
C86 O76 1.307 . S
C87 O79 1.303 . S
C87 O80 1.247 . S
C88 O77 1.253 . S
C88 O78 1.283 . S
C89 O81 1.304 . S
C89 O83 1.272 . S
C90 O82 1.311 . S
C90 O84 1.231 . S
O91 Zn73 1.953 1_565 S
O91 C85 1.298 . S
O92 Zn93 1.953 1_545 S
O92 C108 1.225 . S
Zn93 O92 1.953 1_565 S
Zn93 O94 1.933 1_556 S
Zn93 O100 1.919 . S
Zn93 O105 1.924 . S
O94 Zn93 1.933 1_554 S
O94 Zn95 1.914 1_554 S
O94 Zn96 1.965 . S
O94 Zn97 1.955 . S
Zn95 O94 1.914 1_556 S
Zn95 O98 1.933 . S
Zn95 O101 1.941 . S
Zn95 O102 1.965 . S
Zn96 O94 1.965 . S
Zn96 O103 1.938 . S
Zn96 O104 1.906 . S
Zn96 O114 1.953 1_565 S
Zn97 O94 1.955 . S
Zn97 O99 1.932 . S
Zn97 O106 1.977 . S
Zn97 O107 1.910 . S
O98 Zn95 1.933 . S
O98 C109 1.226 1_556 S
O99 Zn97 1.932 . S
O99 C109 1.307 . S
O100 Zn93 1.919 . S
O100 C111 1.253 . S
O101 Zn95 1.941 . S
O101 C111 1.283 . S
O102 Zn95 1.965 . S
O102 C110 1.303 1_556 S
O103 Zn96 1.938 . S
O103 C110 1.247 . S
O104 Zn96 1.906 . S
O104 C112 1.304 . S
O105 Zn93 1.924 . S
O105 C113 1.311 . S
O106 Zn97 1.977 . S
O106 C112 1.272 . S
O107 Zn97 1.910 . S
O107 C113 1.231 1_554 S
C108 O92 1.225 . S
C108 O114 1.298 1_556 S
C109 O98 1.226 1_554 S
C109 O99 1.307 . S
C110 O102 1.303 1_554 S
C110 O103 1.247 . S
C111 O100 1.253 . S
C111 O101 1.283 . S
C112 O104 1.304 . S
C112 O106 1.272 . S
C113 O105 1.311 . S
C113 O107 1.231 1_556 S
O114 Zn96 1.953 1_545 S
O114 C108 1.298 1_554 S
O115 Zn116 1.953 . S
O115 C131 1.225 . S
Zn116 O115 1.953 . S
Zn116 O117 1.933 1_556 S
Zn116 O123 1.919 . S
Zn116 O128 1.924 . S
O117 Zn116 1.933 1_554 S
O117 Zn118 1.914 1_554 S
O117 Zn119 1.965 . S
O117 Zn120 1.955 . S
Zn118 O117 1.914 1_556 S
Zn118 O121 1.933 1_565 S
Zn118 O124 1.941 . S
Zn118 O125 1.965 1_455 S
Zn119 O117 1.965 . S
Zn119 O126 1.938 1_455 S
Zn119 O127 1.906 . S
Zn119 O137 1.953 . S
Zn120 O117 1.955 . S
Zn120 O122 1.932 . S
Zn120 O129 1.977 . S
Zn120 O130 1.910 . S
O121 Zn118 1.933 1_545 S
O121 C132 1.226 1_556 S
O122 Zn120 1.932 . S
O122 C132 1.307 1_565 S
O123 Zn116 1.919 . S
O123 C134 1.253 . S
O124 Zn118 1.941 . S
O124 C134 1.283 . S
O125 Zn118 1.965 1_655 S
O125 C133 1.303 1_556 S
O126 Zn119 1.938 1_655 S
O126 C133 1.247 . S
O127 Zn119 1.906 . S
O127 C135 1.304 . S
O128 Zn116 1.924 . S
O128 C136 1.311 . S
O129 Zn120 1.977 . S
O129 C135 1.272 . S
O130 Zn120 1.910 . S
O130 C136 1.231 1_554 S
C131 O115 1.225 . S
C131 O137 1.298 1_556 S
C132 O121 1.226 1_554 S
C132 O122 1.307 1_545 S
C133 O125 1.303 1_554 S
C133 O126 1.247 . S
C134 O123 1.253 . S
C134 O124 1.283 . S
C135 O127 1.304 . S
C135 O129 1.272 . S
C136 O128 1.311 . S
C136 O130 1.231 1_556 S
O137 Zn119 1.953 . S
O137 C131 1.298 1_554 S
O138 Zn139 1.953 . S
O138 C154 1.225 . S
Zn139 O138 1.953 . S
Zn139 O140 1.949 . S
Zn139 O146 1.919 . S
Zn139 O151 1.924 . S
O140 Zn139 1.949 . S
O140 Zn141 1.923 . S
O140 Zn142 1.950 . S
O140 Zn143 1.945 . S
Zn141 O140 1.923 . S
Zn141 O144 1.933 1_565 S
Zn141 O147 1.941 . S
Zn141 O148 1.965 . S
Zn142 O140 1.950 . S
Zn142 O149 1.938 . S
Zn142 O150 1.906 . S
Zn142 O160 1.953 . S
Zn143 O140 1.945 . S
Zn143 O145 1.932 . S
Zn143 O152 1.977 . S
Zn143 O153 1.910 . S
O144 Zn141 1.933 1_545 S
O144 C155 1.226 . S
O145 Zn143 1.932 . S
O145 C155 1.307 1_565 S
O146 Zn139 1.919 . S
O146 C157 1.253 . S
O147 Zn141 1.941 . S
O147 C157 1.283 . S
O148 Zn141 1.965 . S
O148 C156 1.303 . S
O149 Zn142 1.938 . S
O149 C156 1.247 . S
O150 Zn142 1.906 . S
O150 C158 1.304 . S
O151 Zn139 1.924 . S
O151 C159 1.311 . S
O152 Zn143 1.977 . S
O152 C158 1.272 . S
O153 Zn143 1.910 . S
O153 C159 1.231 . S
C154 O138 1.225 . S
C154 O160 1.298 . S
C155 O144 1.226 . S
C155 O145 1.307 1_545 S
C156 O148 1.303 . S
C156 O149 1.247 . S
C157 O146 1.253 . S
C157 O147 1.283 . S
C158 O150 1.304 . S
C158 O152 1.272 . S
C159 O151 1.311 . S
C159 O153 1.231 . S
O160 Zn142 1.953 . S
O160 C154 1.298 . S
O161 Zn162 1.953 1_545 S
O161 C177 1.225 . S
Zn162 O161 1.953 1_565 S
Zn162 O163 1.949 . S
Zn162 O169 1.919 . S
Zn162 O174 1.924 . S
O163 Zn162 1.949 . S
O163 Zn164 1.923 . S
O163 Zn165 1.950 . S
O163 Zn166 1.945 . S
Zn164 O163 1.923 . S
Zn164 O167 1.933 . S
Zn164 O170 1.941 . S
Zn164 O171 1.965 1_455 S
Zn165 O163 1.950 . S
Zn165 O172 1.938 1_455 S
Zn165 O173 1.906 . S
Zn165 O183 1.953 1_565 S
Zn166 O163 1.945 . S
Zn166 O168 1.932 . S
Zn166 O175 1.977 . S
Zn166 O176 1.910 . S
O167 Zn164 1.933 . S
O167 C178 1.226 . S
O168 Zn166 1.932 . S
O168 C178 1.307 . S
O169 Zn162 1.919 . S
O169 C180 1.253 . S
O170 Zn164 1.941 . S
O170 C180 1.283 . S
O171 Zn164 1.965 1_655 S
O171 C179 1.303 . S
O172 Zn165 1.938 1_655 S
O172 C179 1.247 . S
O173 Zn165 1.906 . S
O173 C181 1.304 . S
O174 Zn162 1.924 . S
O174 C182 1.311 . S
O175 Zn166 1.977 . S
O175 C181 1.272 . S
O176 Zn166 1.910 . S
O176 C182 1.231 . S
C177 O161 1.225 . S
C177 O183 1.298 . S
C178 O167 1.226 . S
C178 O168 1.307 . S
C179 O171 1.303 . S
C179 O172 1.247 . S
C180 O169 1.253 . S
C180 O170 1.283 . S
C181 O173 1.304 . S
C181 O175 1.272 . S
C182 O174 1.311 . S
C182 O176 1.231 . S
O183 Zn165 1.953 1_545 S
O183 C177 1.298 . S
O184 Zn185 1.953 . S
O184 C200 1.225 . S
Zn185 O184 1.953 . S
Zn185 O186 1.949 . S
Zn185 O192 1.919 . S
Zn185 O197 1.924 . S
O186 Zn185 1.949 . S
O186 Zn187 1.923 . S
O186 Zn188 1.950 . S
O186 Zn189 1.945 . S
Zn187 O186 1.923 . S
Zn187 O190 1.933 . S
Zn187 O193 1.941 . S
Zn187 O194 1.965 . S
Zn188 O186 1.950 . S
Zn188 O195 1.938 . S
Zn188 O196 1.906 . S
Zn188 O206 1.953 . S
Zn189 O186 1.945 . S
Zn189 O191 1.932 . S
Zn189 O198 1.977 . S
Zn189 O199 1.910 . S
O190 Zn187 1.933 . S
O190 C201 1.226 . S
O191 Zn189 1.932 . S
O191 C201 1.307 . S
O192 Zn185 1.919 . S
O192 C203 1.253 . S
O193 Zn187 1.941 . S
O193 C203 1.283 . S
O194 Zn187 1.965 . S
O194 C202 1.303 . S
O195 Zn188 1.938 . S
O195 C202 1.247 . S
O196 Zn188 1.906 . S
O196 C204 1.304 . S
O197 Zn185 1.924 . S
O197 C205 1.311 . S
O198 Zn189 1.977 . S
O198 C204 1.272 . S
O199 Zn189 1.910 . S
O199 C205 1.231 . S
C200 O184 1.225 . S
C200 O206 1.298 . S
C201 O190 1.226 . S
C201 O191 1.307 . S
C202 O194 1.303 . S
C202 O195 1.247 . S
C203 O192 1.253 . S
C203 O193 1.283 . S
C204 O196 1.304 . S
C204 O198 1.272 . S
C205 O197 1.311 . S
C205 O199 1.231 . S
O206 Zn188 1.953 . S
O206 C200 1.298 . S
O207 Zn208 1.953 . S
O207 C223 1.225 . S
Zn208 O207 1.953 . S
Zn208 O209 1.949 . S
Zn208 O215 1.919 . S
Zn208 O220 1.924 . S
O209 Zn208 1.949 . S
O209 Zn210 1.923 . S
O209 Zn211 1.950 . S
O209 Zn212 1.945 . S
Zn210 O209 1.923 . S
Zn210 O213 1.933 . S
Zn210 O216 1.941 . S
Zn210 O217 1.965 1_655 S
Zn211 O209 1.950 . S
Zn211 O218 1.938 1_655 S
Zn211 O219 1.906 . S
Zn211 O229 1.953 . S
Zn212 O209 1.945 . S
Zn212 O214 1.932 . S
Zn212 O221 1.977 . S
Zn212 O222 1.910 . S
O213 Zn210 1.933 . S
O213 C224 1.226 . S
O214 Zn212 1.932 . S
O214 C224 1.307 . S
O215 Zn208 1.919 . S
O215 C226 1.253 . S
O216 Zn210 1.941 . S
O216 C226 1.283 . S
O217 Zn210 1.965 1_455 S
O217 C225 1.303 . S
O218 Zn211 1.938 1_455 S
O218 C225 1.247 . S
O219 Zn211 1.906 . S
O219 C227 1.304 . S
O220 Zn208 1.924 . S
O220 C228 1.311 . S
O221 Zn212 1.977 . S
O221 C227 1.272 . S
O222 Zn212 1.910 . S
O222 C228 1.231 . S
C223 O207 1.225 . S
C223 O229 1.298 . S
C224 O213 1.226 . S
C224 O214 1.307 . S
C225 O217 1.303 . S
C225 O218 1.247 . S
C226 O215 1.253 . S
C226 O216 1.283 . S
C227 O219 1.304 . S
C227 O221 1.272 . S
C228 O220 1.311 . S
C228 O222 1.231 . S
O229 Zn211 1.953 . S
O229 C223 1.298 . S
O230 Zn231 1.953 . S
O230 C246 1.225 . S
Zn231 O230 1.953 . S
Zn231 O232 1.949 . S
Zn231 O238 1.919 . S
Zn231 O243 1.924 . S
O232 Zn231 1.949 . S
O232 Zn233 1.923 . S
O232 Zn234 1.950 . S
O232 Zn235 1.945 . S
Zn233 O232 1.923 . S
Zn233 O236 1.933 . S
Zn233 O239 1.941 . S
Zn233 O240 1.965 . S
Zn234 O232 1.950 . S
Zn234 O241 1.938 . S
Zn234 O242 1.906 . S
Zn234 O252 1.953 . S
Zn235 O232 1.945 . S
Zn235 O237 1.932 . S
Zn235 O244 1.977 . S
Zn235 O245 1.910 . S
O236 Zn233 1.933 . S
O236 C247 1.226 . S
O237 Zn235 1.932 . S
O237 C247 1.307 . S
O238 Zn231 1.919 . S
O238 C249 1.253 . S
O239 Zn233 1.941 . S
O239 C249 1.283 . S
O240 Zn233 1.965 . S
O240 C248 1.303 . S
O241 Zn234 1.938 . S
O241 C248 1.247 . S
O242 Zn234 1.906 . S
O242 C250 1.304 . S
O243 Zn231 1.924 . S
O243 C251 1.311 . S
O244 Zn235 1.977 . S
O244 C250 1.272 . S
O245 Zn235 1.910 . S
O245 C251 1.231 . S
C246 O230 1.225 . S
C246 O252 1.298 . S
C247 O236 1.226 . S
C247 O237 1.307 . S
C248 O240 1.303 . S
C248 O241 1.247 . S
C249 O238 1.253 . S
C249 O239 1.283 . S
C250 O242 1.304 . S
C250 O244 1.272 . S
C251 O243 1.311 . S
C251 O245 1.231 . S
O252 Zn234 1.953 . S
O252 C246 1.298 . S
O253 Zn254 1.953 . S
O253 C269 1.225 . S
Zn254 O253 1.953 . S
Zn254 O255 1.949 . S
Zn254 O261 1.919 . S
Zn254 O266 1.924 . S
O255 Zn254 1.949 . S
O255 Zn256 1.923 . S
O255 Zn257 1.950 . S
O255 Zn258 1.945 . S
Zn256 O255 1.923 . S
Zn256 O259 1.933 . S
Zn256 O262 1.941 . S
Zn256 O263 1.965 1_655 S
Zn257 O255 1.950 . S
Zn257 O264 1.938 1_655 S
Zn257 O265 1.906 . S
Zn257 O275 1.953 . S
Zn258 O255 1.945 . S
Zn258 O260 1.932 . S
Zn258 O267 1.977 . S
Zn258 O268 1.910 . S
O259 Zn256 1.933 . S
O259 C270 1.226 . S
O260 Zn258 1.932 . S
O260 C270 1.307 . S
O261 Zn254 1.919 . S
O261 C272 1.253 . S
O262 Zn256 1.941 . S
O262 C272 1.283 . S
O263 Zn256 1.965 1_455 S
O263 C271 1.303 . S
O264 Zn257 1.938 1_455 S
O264 C271 1.247 . S
O265 Zn257 1.906 . S
O265 C273 1.304 . S
O266 Zn254 1.924 . S
O266 C274 1.311 . S
O267 Zn258 1.977 . S
O267 C273 1.272 . S
O268 Zn258 1.910 . S
O268 C274 1.231 . S
C269 O253 1.225 . S
C269 O275 1.298 . S
C270 O259 1.226 . S
C270 O260 1.307 . S
C271 O263 1.303 . S
C271 O264 1.247 . S
C272 O261 1.253 . S
C272 O262 1.283 . S
C273 O265 1.304 . S
C273 O267 1.272 . S
C274 O266 1.311 . S
C274 O268 1.231 . S
O275 Zn257 1.953 . S
O275 C269 1.298 . S
O276 Zn277 1.953 . S
O276 C292 1.225 . S
Zn277 O276 1.953 . S
Zn277 O278 1.949 . S
Zn277 O284 1.919 . S
Zn277 O289 1.924 . S
O278 Zn277 1.949 . S
O278 Zn279 1.923 . S
O278 Zn280 1.950 . S
O278 Zn281 1.945 . S
Zn279 O278 1.923 . S
Zn279 O282 1.933 . S
Zn279 O285 1.941 . S
Zn279 O286 1.965 . S
Zn280 O278 1.950 . S
Zn280 O287 1.938 . S
Zn280 O288 1.906 . S
Zn280 O298 1.953 . S
Zn281 O278 1.945 . S
Zn281 O283 1.932 . S
Zn281 O290 1.977 . S
Zn281 O291 1.910 . S
O282 Zn279 1.933 . S
O282 C293 1.226 . S
O283 Zn281 1.932 . S
O283 C293 1.307 . S
O284 Zn277 1.919 . S
O284 C295 1.253 . S
O285 Zn279 1.941 . S
O285 C295 1.283 . S
O286 Zn279 1.965 . S
O286 C294 1.303 . S
O287 Zn280 1.938 . S
O287 C294 1.247 . S
O288 Zn280 1.906 . S
O288 C296 1.304 . S
O289 Zn277 1.924 . S
O289 C297 1.311 . S
O290 Zn281 1.977 . S
O290 C296 1.272 . S
O291 Zn281 1.910 . S
O291 C297 1.231 . S
C292 O276 1.225 . S
C292 O298 1.298 . S
C293 O282 1.226 . S
C293 O283 1.307 . S
C294 O286 1.303 . S
C294 O287 1.247 . S
C295 O284 1.253 . S
C295 O285 1.283 . S
C296 O288 1.304 . S
C296 O290 1.272 . S
C297 O289 1.311 . S
C297 O291 1.231 . S
O298 Zn280 1.953 . S
O298 C292 1.298 . S
O299 Zn300 1.953 . S
O299 C315 1.225 . S
Zn300 O299 1.953 . S
Zn300 O301 1.949 . S
Zn300 O307 1.919 . S
Zn300 O312 1.924 . S
O301 Zn300 1.949 . S
O301 Zn302 1.923 . S
O301 Zn303 1.950 . S
O301 Zn304 1.945 . S
Zn302 O301 1.923 . S
Zn302 O305 1.933 . S
Zn302 O308 1.941 . S
Zn302 O309 1.965 1_455 S
Zn303 O301 1.950 . S
Zn303 O310 1.938 1_455 S
Zn303 O311 1.906 . S
Zn303 O321 1.953 . S
Zn304 O301 1.945 . S
Zn304 O306 1.932 . S
Zn304 O313 1.977 . S
Zn304 O314 1.910 . S
O305 Zn302 1.933 . S
O305 C316 1.226 . S
O306 Zn304 1.932 . S
O306 C316 1.307 . S
O307 Zn300 1.919 . S
O307 C318 1.253 . S
O308 Zn302 1.941 . S
O308 C318 1.283 . S
O309 Zn302 1.965 1_655 S
O309 C317 1.303 . S
O310 Zn303 1.938 1_655 S
O310 C317 1.247 . S
O311 Zn303 1.906 . S
O311 C319 1.304 . S
O312 Zn300 1.924 . S
O312 C320 1.311 . S
O313 Zn304 1.977 . S
O313 C319 1.272 . S
O314 Zn304 1.910 . S
O314 C320 1.231 . S
C315 O299 1.225 . S
C315 O321 1.298 . S
C316 O305 1.226 . S
C316 O306 1.307 . S
C317 O309 1.303 . S
C317 O310 1.247 . S
C318 O307 1.253 . S
C318 O308 1.283 . S
C319 O311 1.304 . S
C319 O313 1.272 . S
C320 O312 1.311 . S
C320 O314 1.231 . S
O321 Zn303 1.953 . S
O321 C315 1.298 . S
O322 Zn323 1.953 . S
O322 C338 1.225 . S
Zn323 O322 1.953 . S
Zn323 O324 1.949 . S
Zn323 O330 1.919 . S
Zn323 O335 1.924 . S
O324 Zn323 1.949 . S
O324 Zn325 1.923 . S
O324 Zn326 1.950 . S
O324 Zn327 1.945 . S
Zn325 O324 1.923 . S
Zn325 O328 1.933 . S
Zn325 O331 1.941 . S
Zn325 O332 1.965 . S
Zn326 O324 1.950 . S
Zn326 O333 1.938 . S
Zn326 O334 1.906 . S
Zn326 O344 1.953 . S
Zn327 O324 1.945 . S
Zn327 O329 1.932 . S
Zn327 O336 1.977 . S
Zn327 O337 1.910 . S
O328 Zn325 1.933 . S
O328 C339 1.226 . S
O329 Zn327 1.932 . S
O329 C339 1.307 . S
O330 Zn323 1.919 . S
O330 C341 1.253 . S
O331 Zn325 1.941 . S
O331 C341 1.283 . S
O332 Zn325 1.965 . S
O332 C340 1.303 . S
O333 Zn326 1.938 . S
O333 C340 1.247 . S
O334 Zn326 1.906 . S
O334 C342 1.304 . S
O335 Zn323 1.924 . S
O335 C343 1.311 . S
O336 Zn327 1.977 . S
O336 C342 1.272 . S
O337 Zn327 1.910 . S
O337 C343 1.231 . S
C338 O322 1.225 . S
C338 O344 1.298 . S
C339 O328 1.226 . S
C339 O329 1.307 . S
C340 O332 1.303 . S
C340 O333 1.247 . S
C341 O330 1.253 . S
C341 O331 1.283 . S
C342 O334 1.304 . S
C342 O336 1.272 . S
C343 O335 1.311 . S
C343 O337 1.231 . S
O344 Zn326 1.953 . S
O344 C338 1.298 . S
O345 Zn346 1.953 . S
O345 C361 1.225 . S
Zn346 O345 1.953 . S
Zn346 O347 1.949 . S
Zn346 O353 1.919 . S
Zn346 O358 1.924 . S
O347 Zn346 1.949 . S
O347 Zn348 1.923 . S
O347 Zn349 1.950 . S
O347 Zn350 1.945 . S
Zn348 O347 1.923 . S
Zn348 O351 1.933 . S
Zn348 O354 1.941 . S
Zn348 O355 1.965 1_455 S
Zn349 O347 1.950 . S
Zn349 O356 1.938 1_455 S
Zn349 O357 1.906 . S
Zn349 O367 1.953 . S
Zn350 O347 1.945 . S
Zn350 O352 1.932 . S
Zn350 O359 1.977 . S
Zn350 O360 1.910 . S
O351 Zn348 1.933 . S
O351 C362 1.226 . S
O352 Zn350 1.932 . S
O352 C362 1.307 . S
O353 Zn346 1.919 . S
O353 C364 1.253 . S
O354 Zn348 1.941 . S
O354 C364 1.283 . S
O355 Zn348 1.965 1_655 S
O355 C363 1.303 . S
O356 Zn349 1.938 1_655 S
O356 C363 1.247 . S
O357 Zn349 1.906 . S
O357 C365 1.304 . S
O358 Zn346 1.924 . S
O358 C366 1.311 . S
O359 Zn350 1.977 . S
O359 C365 1.272 . S
O360 Zn350 1.910 . S
O360 C366 1.231 . S
C361 O345 1.225 . S
C361 O367 1.298 . S
C362 O351 1.226 . S
C362 O352 1.307 . S
C363 O355 1.303 . S
C363 O356 1.247 . S
C364 O353 1.253 . S
C364 O354 1.283 . S
C365 O357 1.304 . S
C365 O359 1.272 . S
C366 O358 1.311 . S
C366 O360 1.231 . S
O367 Zn349 1.953 . S
O367 C361 1.298 . S
O368 Zn369 1.953 1_565 S
O368 C384 1.225 . S
Zn369 O368 1.953 1_545 S
Zn369 O370 1.949 . S
Zn369 O376 1.919 . S
Zn369 O381 1.924 . S
O370 Zn369 1.949 . S
O370 Zn371 1.923 . S
O370 Zn372 1.950 . S
O370 Zn373 1.945 . S
Zn371 O370 1.923 . S
Zn371 O374 1.933 . S
Zn371 O377 1.941 . S
Zn371 O378 1.965 . S
Zn372 O370 1.950 . S
Zn372 O379 1.938 . S
Zn372 O380 1.906 . S
Zn372 O390 1.953 1_545 S
Zn373 O370 1.945 . S
Zn373 O375 1.932 . S
Zn373 O382 1.977 . S
Zn373 O383 1.910 . S
O374 Zn371 1.933 . S
O374 C385 1.226 . S
O375 Zn373 1.932 . S
O375 C385 1.307 . S
O376 Zn369 1.919 . S
O376 C387 1.253 . S
O377 Zn371 1.941 . S
O377 C387 1.283 . S
O378 Zn371 1.965 . S
O378 C386 1.303 . S
O379 Zn372 1.938 . S
O379 C386 1.247 . S
O380 Zn372 1.906 . S
O380 C388 1.304 . S
O381 Zn369 1.924 . S
O381 C389 1.311 1_655 S
O382 Zn373 1.977 . S
O382 C388 1.272 . S
O383 Zn373 1.910 . S
O383 C389 1.231 1_655 S
C384 O368 1.225 . S
C384 O390 1.298 . S
C385 O374 1.226 . S
C385 O375 1.307 . S
C386 O378 1.303 . S
C386 O379 1.247 . S
C387 O376 1.253 . S
C387 O377 1.283 . S
C388 O380 1.304 . S
C388 O382 1.272 . S
C389 O381 1.311 1_455 S
C389 O383 1.231 1_455 S
O390 Zn372 1.953 1_565 S
O390 C384 1.298 . S
O391 Zn392 1.953 . S
O391 C407 1.225 . S
Zn392 O391 1.953 . S
Zn392 O393 1.949 . S
Zn392 O399 1.919 . S
Zn392 O404 1.924 . S
O393 Zn392 1.949 . S
O393 Zn394 1.923 . S
O393 Zn395 1.950 . S
O393 Zn396 1.945 . S
Zn394 O393 1.923 . S
Zn394 O397 1.933 1_545 S
Zn394 O400 1.941 . S
Zn394 O401 1.965 . S
Zn395 O393 1.950 . S
Zn395 O402 1.938 . S
Zn395 O403 1.906 . S
Zn395 O413 1.953 . S
Zn396 O393 1.945 . S
Zn396 O398 1.932 . S
Zn396 O405 1.977 . S
Zn396 O406 1.910 . S
O397 Zn394 1.933 1_565 S
O397 C408 1.226 . S
O398 Zn396 1.932 . S
O398 C408 1.307 1_545 S
O399 Zn392 1.919 . S
O399 C410 1.253 . S
O400 Zn394 1.941 . S
O400 C410 1.283 . S
O401 Zn394 1.965 . S
O401 C409 1.303 . S
O402 Zn395 1.938 . S
O402 C409 1.247 . S
O403 Zn395 1.906 . S
O403 C411 1.304 . S
O404 Zn392 1.924 . S
O404 C412 1.311 . S
O405 Zn396 1.977 . S
O405 C411 1.272 . S
O406 Zn396 1.910 . S
O406 C412 1.231 . S
C407 O391 1.225 . S
C407 O413 1.298 . S
C408 O397 1.226 . S
C408 O398 1.307 1_565 S
C409 O401 1.303 . S
C409 O402 1.247 . S
C410 O399 1.253 . S
C410 O400 1.283 . S
C411 O403 1.304 . S
C411 O405 1.272 . S
C412 O404 1.311 . S
C412 O406 1.231 . S
O413 Zn395 1.953 . S
O413 C407 1.298 . S
O414 Zn415 1.953 . S
O414 C430 1.225 . S
Zn415 O414 1.953 . S
Zn415 O416 1.949 . S
Zn415 O422 1.919 . S
Zn415 O427 1.924 . S
O416 Zn415 1.949 . S
O416 Zn417 1.923 . S
O416 Zn418 1.950 . S
O416 Zn419 1.945 . S
Zn417 O416 1.923 . S
Zn417 O420 1.933 1_545 S
Zn417 O423 1.941 . S
Zn417 O424 1.965 . S
Zn418 O416 1.950 . S
Zn418 O425 1.938 . S
Zn418 O426 1.906 . S
Zn418 O436 1.953 . S
Zn419 O416 1.945 . S
Zn419 O421 1.932 . S
Zn419 O428 1.977 . S
Zn419 O429 1.910 . S
O420 Zn417 1.933 1_565 S
O420 C431 1.226 . S
O421 Zn419 1.932 . S
O421 C431 1.307 1_545 S
O422 Zn415 1.919 . S
O422 C433 1.253 . S
O423 Zn417 1.941 . S
O423 C433 1.283 . S
O424 Zn417 1.965 . S
O424 C432 1.303 . S
O425 Zn418 1.938 . S
O425 C432 1.247 . S
O426 Zn418 1.906 . S
O426 C434 1.304 . S
O427 Zn415 1.924 . S
O427 C435 1.311 1_655 S
O428 Zn419 1.977 . S
O428 C434 1.272 . S
O429 Zn419 1.910 . S
O429 C435 1.231 1_655 S
C430 O414 1.225 . S
C430 O436 1.298 . S
C431 O420 1.226 . S
C431 O421 1.307 1_565 S
C432 O424 1.303 . S
C432 O425 1.247 . S
C433 O422 1.253 . S
C433 O423 1.283 . S
C434 O426 1.304 . S
C434 O428 1.272 . S
C435 O427 1.311 1_455 S
C435 O429 1.231 1_455 S
O436 Zn418 1.953 . S
O436 C430 1.298 . S
O437 Zn438 1.953 1_565 S
O437 C453 1.225 . S
Zn438 O437 1.953 1_545 S
Zn438 O439 1.949 . S
Zn438 O445 1.919 . S
Zn438 O450 1.924 . S
O439 Zn438 1.949 . S
O439 Zn440 1.923 . S
O439 Zn441 1.950 . S
O439 Zn442 1.945 . S
Zn440 O439 1.923 . S
Zn440 O443 1.933 . S
Zn440 O446 1.941 . S
Zn440 O447 1.965 . S
Zn441 O439 1.950 . S
Zn441 O448 1.938 . S
Zn441 O449 1.906 . S
Zn441 O459 1.953 1_545 S
Zn442 O439 1.945 . S
Zn442 O444 1.932 . S
Zn442 O451 1.977 . S
Zn442 O452 1.910 . S
O443 Zn440 1.933 . S
O443 C454 1.226 . S
O444 Zn442 1.932 . S
O444 C454 1.307 . S
O445 Zn438 1.919 . S
O445 C456 1.253 . S
O446 Zn440 1.941 . S
O446 C456 1.283 . S
O447 Zn440 1.965 . S
O447 C455 1.303 . S
O448 Zn441 1.938 . S
O448 C455 1.247 . S
O449 Zn441 1.906 . S
O449 C457 1.304 . S
O450 Zn438 1.924 . S
O450 C458 1.311 . S
O451 Zn442 1.977 . S
O451 C457 1.272 . S
O452 Zn442 1.910 . S
O452 C458 1.231 . S
C453 O437 1.225 . S
C453 O459 1.298 . S
C454 O443 1.226 . S
C454 O444 1.307 . S
C455 O447 1.303 . S
C455 O448 1.247 . S
C456 O445 1.253 . S
C456 O446 1.283 . S
C457 O449 1.304 . S
C457 O451 1.272 . S
C458 O450 1.311 . S
C458 O452 1.231 . S
O459 Zn441 1.953 1_565 S
O459 C453 1.298 . S
O460 Zn461 1.953 1_545 S
O460 C476 1.225 . S
Zn461 O460 1.953 1_565 S
Zn461 O462 1.949 . S
Zn461 O468 1.919 . S
Zn461 O473 1.924 . S
O462 Zn461 1.949 . S
O462 Zn463 1.923 . S
O462 Zn464 1.950 . S
O462 Zn465 1.945 . S
Zn463 O462 1.923 . S
Zn463 O466 1.933 . S
Zn463 O469 1.941 . S
Zn463 O470 1.965 . S
Zn464 O462 1.950 . S
Zn464 O471 1.938 . S
Zn464 O472 1.906 . S
Zn464 O482 1.953 1_565 S
Zn465 O462 1.945 . S
Zn465 O467 1.932 . S
Zn465 O474 1.977 . S
Zn465 O475 1.910 . S
O466 Zn463 1.933 . S
O466 C477 1.226 . S
O467 Zn465 1.932 . S
O467 C477 1.307 . S
O468 Zn461 1.919 . S
O468 C479 1.253 . S
O469 Zn463 1.941 . S
O469 C479 1.283 . S
O470 Zn463 1.965 . S
O470 C478 1.303 . S
O471 Zn464 1.938 . S
O471 C478 1.247 . S
O472 Zn464 1.906 . S
O472 C480 1.304 . S
O473 Zn461 1.924 . S
O473 C481 1.302 1_455 S
O474 Zn465 1.977 . S
O474 C480 1.272 . S
O475 Zn465 1.910 . S
O475 C481 1.229 1_455 S
C476 O460 1.225 . S
C476 O482 1.298 . S
C477 O466 1.226 . S
C477 O467 1.307 . S
C478 O470 1.303 . S
C478 O471 1.247 . S
C479 O468 1.253 . S
C479 O469 1.283 . S
C480 O472 1.304 . S
C480 O474 1.272 . S
C481 O473 1.302 1_655 S
C481 O475 1.229 1_655 S
O482 Zn464 1.953 1_545 S
O482 C476 1.298 . S
O483 Zn484 1.953 . S
O483 C499 1.225 . S
Zn484 O483 1.953 . S
Zn484 O485 1.949 . S
Zn484 O491 1.919 . S
Zn484 O496 1.924 . S
O485 Zn484 1.949 . S
O485 Zn486 1.923 . S
O485 Zn487 1.950 . S
O485 Zn488 1.945 . S
Zn486 O485 1.923 . S
Zn486 O489 1.933 1_565 S
Zn486 O492 1.941 . S
Zn486 O493 1.965 . S
Zn487 O485 1.950 . S
Zn487 O494 1.938 . S
Zn487 O495 1.906 . S
Zn487 O505 1.953 . S
Zn488 O485 1.945 . S
Zn488 O490 1.932 . S
Zn488 O497 1.977 . S
Zn488 O498 1.910 . S
O489 Zn486 1.933 1_545 S
O489 C500 1.226 . S
O490 Zn488 1.932 . S
O490 C500 1.307 1_565 S
O491 Zn484 1.919 . S
O491 C502 1.253 . S
O492 Zn486 1.941 . S
O492 C502 1.283 . S
O493 Zn486 1.965 . S
O493 C501 1.303 . S
O494 Zn487 1.938 . S
O494 C501 1.247 . S
O495 Zn487 1.906 . S
O495 C503 1.304 . S
O496 Zn484 1.924 . S
O496 C504 1.311 . S
O497 Zn488 1.977 . S
O497 C503 1.272 . S
O498 Zn488 1.910 . S
O498 C504 1.231 . S
C499 O483 1.225 . S
C499 O505 1.298 . S
C500 O489 1.226 . S
C500 O490 1.307 1_545 S
C501 O493 1.303 . S
C501 O494 1.247 . S
C502 O491 1.253 . S
C502 O492 1.283 . S
C503 O495 1.304 . S
C503 O497 1.272 . S
C504 O496 1.311 . S
C504 O498 1.231 . S
O505 Zn487 1.953 . S
O505 C499 1.298 . S
O506 Zn507 1.953 . S
O506 C522 1.225 . S
Zn507 O506 1.953 . S
Zn507 O508 1.949 . S
Zn507 O514 1.919 . S
Zn507 O519 1.924 . S
O508 Zn507 1.949 . S
O508 Zn509 1.923 . S
O508 Zn510 1.950 . S
O508 Zn511 1.945 . S
Zn509 O508 1.923 . S
Zn509 O512 1.933 1_565 S
Zn509 O515 1.941 . S
Zn509 O516 1.965 . S
Zn510 O508 1.950 . S
Zn510 O517 1.938 . S
Zn510 O518 1.906 . S
Zn510 O528 1.953 . S
Zn511 O508 1.945 . S
Zn511 O513 1.932 . S
Zn511 O520 1.977 . S
Zn511 O521 1.910 . S
O512 Zn509 1.933 1_545 S
O512 C523 1.226 . S
O513 Zn511 1.932 . S
O513 C523 1.307 1_565 S
O514 Zn507 1.919 . S
O514 C525 1.253 . S
O515 Zn509 1.941 . S
O515 C525 1.283 . S
O516 Zn509 1.965 . S
O516 C524 1.303 . S
O517 Zn510 1.938 . S
O517 C524 1.247 . S
O518 Zn510 1.906 . S
O518 C526 1.304 . S
O519 Zn507 1.924 . S
O519 C527 1.301 1_455 S
O520 Zn511 1.977 . S
O520 C526 1.272 . S
O521 Zn511 1.910 . S
O521 C527 1.229 1_455 S
C522 O506 1.225 . S
C522 O528 1.298 . S
C523 O512 1.226 . S
C523 O513 1.307 1_545 S
C524 O516 1.303 . S
C524 O517 1.247 . S
C525 O514 1.253 . S
C525 O515 1.283 . S
C526 O518 1.304 . S
C526 O520 1.272 . S
C527 O519 1.301 1_655 S
C527 O521 1.229 1_655 S
O528 Zn510 1.953 . S
O528 C522 1.298 . S
O529 Zn530 1.953 1_545 S
O529 C545 1.225 . S
Zn530 O529 1.953 1_565 S
Zn530 O531 1.949 . S
Zn530 O537 1.919 . S
Zn530 O542 1.924 . S
O531 Zn530 1.949 . S
O531 Zn532 1.923 . S
O531 Zn533 1.950 . S
O531 Zn534 1.945 . S
Zn532 O531 1.923 . S
Zn532 O535 1.933 . S
Zn532 O538 1.941 . S
Zn532 O539 1.965 . S
Zn533 O531 1.950 . S
Zn533 O540 1.938 . S
Zn533 O541 1.906 . S
Zn533 O551 1.953 1_565 S
Zn534 O531 1.945 . S
Zn534 O536 1.932 . S
Zn534 O543 1.977 . S
Zn534 O544 1.910 . S
O535 Zn532 1.933 . S
O535 C546 1.226 . S
O536 Zn534 1.932 . S
O536 C546 1.307 . S
O537 Zn530 1.919 . S
O537 C548 1.253 . S
O538 Zn532 1.941 . S
O538 C548 1.283 . S
O539 Zn532 1.965 . S
O539 C547 1.303 . S
O540 Zn533 1.938 . S
O540 C547 1.247 . S
O541 Zn533 1.906 . S
O541 C549 1.304 . S
O542 Zn530 1.924 . S
O542 C550 1.311 . S
O543 Zn534 1.977 . S
O543 C549 1.272 . S
O544 Zn534 1.910 . S
O544 C550 1.231 . S
C545 O529 1.225 . S
C545 O551 1.298 . S
C546 O535 1.226 . S
C546 O536 1.307 . S
C547 O539 1.303 . S
C547 O540 1.247 . S
C548 O537 1.253 . S
C548 O538 1.283 . S
C549 O541 1.304 . S
C549 O543 1.272 . S
C550 O542 1.311 . S
C550 O544 1.231 . S
O551 Zn533 1.953 1_545 S
O551 C545 1.298 . S
O552 Zn553 1.953 . S
O552 C568 1.225 1_556 S
Zn553 O552 1.953 . S
Zn553 O554 1.930 1_556 S
Zn553 O560 1.919 . S
Zn553 O565 1.924 . S
O554 Zn553 1.930 1_554 S
O554 Zn555 1.909 1_554 S
O554 Zn556 1.970 . S
O554 Zn557 1.957 . S
Zn555 O554 1.909 1_556 S
Zn555 O558 1.933 . S
Zn555 O561 1.941 . S
Zn555 O562 1.965 . S
Zn556 O554 1.970 . S
Zn556 O563 1.938 . S
Zn556 O564 1.906 . S
Zn556 O574 1.953 . S
Zn557 O554 1.957 . S
Zn557 O559 1.932 . S
Zn557 O566 1.977 . S
Zn557 O567 1.910 . S
O558 Zn555 1.933 . S
O558 C569 1.226 . S
O559 Zn557 1.932 . S
O559 C569 1.307 1_554 S
O560 Zn553 1.919 . S
O560 C571 1.253 . S
O561 Zn555 1.941 . S
O561 C571 1.283 . S
O562 Zn555 1.965 . S
O562 C570 1.303 1_556 S
O563 Zn556 1.938 . S
O563 C570 1.247 . S
O564 Zn556 1.906 . S
O564 C572 1.304 . S
O565 Zn553 1.924 . S
O565 C573 1.311 1_656 S
O566 Zn557 1.977 . S
O566 C572 1.272 . S
O567 Zn557 1.910 . S
O567 C573 1.231 1_655 S
C568 O552 1.225 1_554 S
C568 O574 1.298 . S
C569 O558 1.226 . S
C569 O559 1.307 1_556 S
C570 O562 1.303 1_554 S
C570 O563 1.247 . S
C571 O560 1.253 . S
C571 O561 1.283 . S
C572 O564 1.304 . S
C572 O566 1.272 . S
C573 O565 1.311 1_454 S
C573 O567 1.231 1_455 S
O574 Zn556 1.953 . S
O574 C568 1.298 . S
O575 Zn576 1.953 . S
O575 C591 1.225 1_556 S
Zn576 O575 1.953 . S
Zn576 O577 1.930 1_556 S
Zn576 O583 1.919 . S
Zn576 O588 1.924 . S
O577 Zn576 1.930 1_554 S
O577 Zn578 1.909 1_554 S
O577 Zn579 1.970 . S
O577 Zn580 1.957 . S
Zn578 O577 1.909 1_556 S
Zn578 O581 1.933 . S
Zn578 O584 1.941 . S
Zn578 O585 1.965 . S
Zn579 O577 1.970 . S
Zn579 O586 1.938 . S
Zn579 O587 1.906 . S
Zn579 O597 1.953 . S
Zn580 O577 1.957 . S
Zn580 O582 1.932 . S
Zn580 O589 1.977 . S
Zn580 O590 1.910 . S
O581 Zn578 1.933 . S
O581 C592 1.226 . S
O582 Zn580 1.932 . S
O582 C592 1.307 1_554 S
O583 Zn576 1.919 . S
O583 C594 1.253 . S
O584 Zn578 1.941 . S
O584 C594 1.283 . S
O585 Zn578 1.965 . S
O585 C593 1.303 1_556 S
O586 Zn579 1.938 . S
O586 C593 1.247 . S
O587 Zn579 1.906 . S
O587 C595 1.304 . S
O588 Zn576 1.924 . S
O588 C596 1.311 1_556 S
O589 Zn580 1.977 . S
O589 C595 1.272 . S
O590 Zn580 1.910 . S
O590 C596 1.231 . S
C591 O575 1.225 1_554 S
C591 O597 1.298 . S
C592 O581 1.226 . S
C592 O582 1.307 1_556 S
C593 O585 1.303 1_554 S
C593 O586 1.247 . S
C594 O583 1.253 . S
C594 O584 1.283 . S
C595 O587 1.304 . S
C595 O589 1.272 . S
C596 O588 1.311 1_554 S
C596 O590 1.231 . S
O597 Zn579 1.953 . S
O597 C591 1.298 . S
O598 Zn599 1.953 . S
O598 C614 1.225 . S
Zn599 O598 1.953 . S
Zn599 O600 1.949 . S
Zn599 O606 1.919 . S
Zn599 O611 1.924 . S
O600 Zn599 1.949 . S
O600 Zn601 1.923 . S
O600 Zn602 1.950 . S
O600 Zn603 1.945 . S
Zn601 O600 1.923 . S
Zn601 O604 1.933 . S
Zn601 O607 1.941 . S
Zn601 O608 1.965 . S
Zn602 O600 1.950 . S
Zn602 O609 1.938 . S
Zn602 O610 1.906 . S
Zn602 O620 1.953 . S
Zn603 O600 1.945 . S
Zn603 O605 1.932 . S
Zn603 O612 1.977 . S
Zn603 O613 1.910 . S
O604 Zn601 1.933 . S
O604 C615 1.226 . S
O605 Zn603 1.932 . S
O605 C615 1.307 . S
O606 Zn599 1.919 . S
O606 C617 1.253 . S
O607 Zn601 1.941 . S
O607 C617 1.283 . S
O608 Zn601 1.965 . S
O608 C616 1.303 . S
O609 Zn602 1.938 . S
O609 C616 1.247 . S
O610 Zn602 1.906 . S
O610 C618 1.304 . S
O611 Zn599 1.924 . S
O611 C619 1.311 1_655 S
O612 Zn603 1.977 . S
O612 C618 1.272 . S
O613 Zn603 1.910 . S
O613 C619 1.231 1_655 S
C614 O598 1.225 . S
C614 O620 1.298 . S
C615 O604 1.226 . S
C615 O605 1.307 . S
C616 O608 1.303 . S
C616 O609 1.247 . S
C617 O606 1.253 . S
C617 O607 1.283 . S
C618 O610 1.304 . S
C618 O612 1.272 . S
C619 O611 1.311 1_455 S
C619 O613 1.231 1_455 S
O620 Zn602 1.953 . S
O620 C614 1.298 . S
O621 Zn622 1.953 . S
O621 C637 1.225 . S
Zn622 O621 1.953 . S
Zn622 O623 1.949 . S
Zn622 O629 1.919 . S
Zn622 O634 1.924 . S
O623 Zn622 1.949 . S
O623 Zn624 1.923 . S
O623 Zn625 1.950 . S
O623 Zn626 1.945 . S
Zn624 O623 1.923 . S
Zn624 O627 1.933 . S
Zn624 O630 1.941 . S
Zn624 O631 1.965 . S
Zn625 O623 1.950 . S
Zn625 O632 1.938 . S
Zn625 O633 1.906 . S
Zn625 O643 1.953 . S
Zn626 O623 1.945 . S
Zn626 O628 1.932 . S
Zn626 O635 1.977 . S
Zn626 O636 1.910 . S
O627 Zn624 1.933 . S
O627 C638 1.226 . S
O628 Zn626 1.932 . S
O628 C638 1.307 . S
O629 Zn622 1.919 . S
O629 C640 1.253 . S
O630 Zn624 1.941 . S
O630 C640 1.283 . S
O631 Zn624 1.965 . S
O631 C639 1.303 . S
O632 Zn625 1.938 . S
O632 C639 1.247 . S
O633 Zn625 1.906 . S
O633 C641 1.304 . S
O634 Zn622 1.924 . S
O634 C642 1.311 . S
O635 Zn626 1.977 . S
O635 C641 1.272 . S
O636 Zn626 1.910 . S
O636 C642 1.231 . S
C637 O621 1.225 . S
C637 O643 1.298 . S
C638 O627 1.226 . S
C638 O628 1.307 . S
C639 O631 1.303 . S
C639 O632 1.247 . S
C640 O629 1.253 . S
C640 O630 1.283 . S
C641 O633 1.304 . S
C641 O635 1.272 . S
C642 O634 1.311 . S
C642 O636 1.231 . S
O643 Zn625 1.953 . S
O643 C637 1.298 . S
O644 Zn645 1.953 . S
O644 C660 1.225 . S
Zn645 O644 1.953 . S
Zn645 O646 1.933 1_556 S
Zn645 O652 1.919 . S
Zn645 O657 1.924 . S
O646 Zn645 1.933 1_554 S
O646 Zn647 1.914 1_554 S
O646 Zn648 1.965 . S
O646 Zn649 1.955 . S
Zn647 O646 1.914 1_556 S
Zn647 O650 1.933 . S
Zn647 O653 1.941 . S
Zn647 O654 1.965 . S
Zn648 O646 1.965 . S
Zn648 O655 1.938 . S
Zn648 O656 1.906 . S
Zn648 O666 1.953 . S
Zn649 O646 1.955 . S
Zn649 O651 1.932 . S
Zn649 O658 1.977 . S
Zn649 O659 1.910 . S
O650 Zn647 1.933 . S
O650 C661 1.226 1_556 S
O651 Zn649 1.932 . S
O651 C661 1.307 . S
O652 Zn645 1.919 . S
O652 C663 1.253 . S
O653 Zn647 1.941 . S
O653 C663 1.283 . S
O654 Zn647 1.965 . S
O654 C662 1.303 1_556 S
O655 Zn648 1.938 . S
O655 C662 1.247 . S
O656 Zn648 1.906 . S
O656 C664 1.304 . S
O657 Zn645 1.924 . S
O657 C665 1.302 1_455 S
O658 Zn649 1.977 . S
O658 C664 1.272 . S
O659 Zn649 1.910 . S
O659 C665 1.229 1_454 S
C660 O644 1.225 . S
C660 O666 1.298 1_556 S
C661 O650 1.226 1_554 S
C661 O651 1.307 . S
C662 O654 1.303 1_554 S
C662 O655 1.247 . S
C663 O652 1.253 . S
C663 O653 1.283 . S
C664 O656 1.304 . S
C664 O658 1.272 . S
C665 O657 1.302 1_655 S
C665 O659 1.229 1_656 S
O666 Zn648 1.953 . S
O666 C660 1.298 1_554 S
O667 Zn668 1.953 . S
O667 C683 1.225 . S
Zn668 O667 1.953 . S
Zn668 O669 1.933 1_556 S
Zn668 O675 1.919 . S
Zn668 O680 1.924 . S
O669 Zn668 1.933 1_554 S
O669 Zn670 1.914 1_554 S
O669 Zn671 1.965 . S
O669 Zn672 1.955 . S
Zn670 O669 1.914 1_556 S
Zn670 O673 1.933 . S
Zn670 O676 1.941 . S
Zn670 O677 1.965 . S
Zn671 O669 1.965 . S
Zn671 O678 1.938 . S
Zn671 O679 1.906 . S
Zn671 O689 1.953 . S
Zn672 O669 1.955 . S
Zn672 O674 1.932 . S
Zn672 O681 1.977 . S
Zn672 O682 1.910 . S
O673 Zn670 1.933 . S
O673 C684 1.226 1_556 S
O674 Zn672 1.932 . S
O674 C684 1.307 . S
O675 Zn668 1.919 . S
O675 C686 1.253 . S
O676 Zn670 1.941 . S
O676 C686 1.283 . S
O677 Zn670 1.965 . S
O677 C685 1.303 1_556 S
O678 Zn671 1.938 . S
O678 C685 1.247 . S
O679 Zn671 1.906 . S
O679 C687 1.304 . S
O680 Zn668 1.924 . S
O680 C688 1.311 . S
O681 Zn672 1.977 . S
O681 C687 1.272 . S
O682 Zn672 1.910 . S
O682 C688 1.231 1_554 S
C683 O667 1.225 . S
C683 O689 1.298 1_556 S
C684 O673 1.226 1_554 S
C684 O674 1.307 . S
C685 O677 1.303 1_554 S
C685 O678 1.247 . S
C686 O675 1.253 . S
C686 O676 1.283 . S
C687 O679 1.304 . S
C687 O681 1.272 . S
C688 O680 1.311 . S
C688 O682 1.231 1_556 S
O689 Zn671 1.953 . S
O689 C683 1.298 1_554 S
O690 Zn691 1.953 . S
O690 C706 1.225 . S
Zn691 O690 1.953 . S
Zn691 O692 1.949 . S
Zn691 O698 1.919 . S
Zn691 O703 1.924 . S
O692 Zn691 1.949 . S
O692 Zn693 1.923 . S
O692 Zn694 1.950 . S
O692 Zn695 1.945 . S
Zn693 O692 1.923 . S
Zn693 O696 1.933 . S
Zn693 O699 1.941 . S
Zn693 O700 1.965 . S
Zn694 O692 1.950 . S
Zn694 O701 1.938 . S
Zn694 O702 1.906 . S
Zn694 O712 1.953 . S
Zn695 O692 1.945 . S
Zn695 O697 1.932 . S
Zn695 O704 1.977 . S
Zn695 O705 1.910 . S
O696 Zn693 1.933 . S
O696 C707 1.226 . S
O697 Zn695 1.932 . S
O697 C707 1.307 . S
O698 Zn691 1.919 . S
O698 C709 1.253 . S
O699 Zn693 1.941 . S
O699 C709 1.283 . S
O700 Zn693 1.965 . S
O700 C708 1.303 . S
O701 Zn694 1.938 . S
O701 C708 1.247 . S
O702 Zn694 1.906 . S
O702 C710 1.304 . S
O703 Zn691 1.924 . S
O703 C711 1.301 1_455 S
O704 Zn695 1.977 . S
O704 C710 1.272 . S
O705 Zn695 1.910 . S
O705 C711 1.229 1_455 S
C706 O690 1.225 . S
C706 O712 1.298 . S
C707 O696 1.226 . S
C707 O697 1.307 . S
C708 O700 1.303 . S
C708 O701 1.247 . S
C709 O698 1.253 . S
C709 O699 1.283 . S
C710 O702 1.304 . S
C710 O704 1.272 . S
C711 O703 1.301 1_655 S
C711 O705 1.229 1_655 S
O712 Zn694 1.953 . S
O712 C706 1.298 . S
O713 Zn714 1.953 . S
O713 C729 1.225 . S
Zn714 O713 1.953 . S
Zn714 O715 1.949 . S
Zn714 O721 1.919 . S
Zn714 O726 1.924 . S
O715 Zn714 1.949 . S
O715 Zn716 1.923 . S
O715 Zn717 1.950 . S
O715 Zn718 1.945 . S
Zn716 O715 1.923 . S
Zn716 O719 1.933 . S
Zn716 O722 1.941 . S
Zn716 O723 1.965 . S
Zn717 O715 1.950 . S
Zn717 O724 1.938 . S
Zn717 O725 1.906 . S
Zn717 O735 1.953 . S
Zn718 O715 1.945 . S
Zn718 O720 1.932 . S
Zn718 O727 1.977 . S
Zn718 O728 1.910 . S
O719 Zn716 1.933 . S
O719 C730 1.226 . S
O720 Zn718 1.932 . S
O720 C730 1.307 . S
O721 Zn714 1.919 . S
O721 C732 1.253 . S
O722 Zn716 1.941 . S
O722 C732 1.283 . S
O723 Zn716 1.965 . S
O723 C731 1.303 . S
O724 Zn717 1.938 . S
O724 C731 1.247 . S
O725 Zn717 1.906 . S
O725 C733 1.304 . S
O726 Zn714 1.924 . S
O726 C734 1.311 . S
O727 Zn718 1.977 . S
O727 C733 1.272 . S
O728 Zn718 1.910 . S
O728 C734 1.231 . S
C729 O713 1.225 . S
C729 O735 1.298 . S
C730 O719 1.226 . S
C730 O720 1.307 . S
C731 O723 1.303 . S
C731 O724 1.247 . S
C732 O721 1.253 . S
C732 O722 1.283 . S
C733 O725 1.304 . S
C733 O727 1.272 . S
C734 O726 1.311 . S
C734 O728 1.231 . S
O735 Zn717 1.953 . S
O735 C729 1.298 . S
C591 C16 1.966 . S
C568 C39 1.966 . S
C637 C62 1.967 . S
C614 C85 1.967 . S
C108 C683 2.062 . S
C131 C660 2.062 . S
C154 C729 2.063 . S
C706 C177 2.063 . S
C407 C200 1.968 . S
C384 C223 1.968 . S
C453 C246 1.967 . S
C430 C269 1.967 . S
C292 C499 2.063 . S
C476 C315 2.063 . S
C338 C545 2.063 . S
C522 C361 2.063 . S
C19 C456 1.469 . S
C433 C42 1.469 . S
C410 C65 1.448 . S
C88 C387 1.448 . S
C549 C112 1.333 . S
C526 C135 1.333 . S
C503 C158 1.310 . S
C480 C181 1.310 . S
C640 C203 1.448 . S
C226 C617 1.448 . S
C249 C594 1.469 . S
C272 C571 1.469 . S
C733 C296 1.310 . S
C710 C319 1.310 . S
C342 C687 1.333 . S
C365 C664 1.333 . S
C113 C21 1.560 1_566 S
C44 C688 1.560 1_554 S
C67 C343 1.556 . S
C550 C90 1.556 1_565 S
C136 C596 1.560 1_556 S
C159 C251 1.556 . S
C458 C182 1.556 1_545 S
C297 C205 1.555 . S
C228 C504 1.555 . S
C274 C734 1.556 . S
C412 C320 1.555 . S
C366 C642 1.556 . S
C481 C389 1.555 1_665 S
C711 C435 1.555 1_655 S
C619 C527 1.555 1_455 S
C573 C665 1.559 1_454 S
C66 C20 1.451 . S
C89 C43 1.451 . S
C157 C111 1.423 . S
C134 C180 1.422 . S
C250 C204 1.474 . S
C227 C273 1.474 . S
C341 C295 1.446 . S
C318 C364 1.447 . S
C388 C434 1.474 . S
C411 C457 1.474 . S
C525 C479 1.446 . S
C502 C548 1.447 . S
C572 C618 1.451 . S
C641 C595 1.451 . S
C663 C709 1.423 . S
C686 C732 1.422 . S
C132 C18 2.479 . S
C661 C41 2.479 . S
C64 C362 2.478 . S
C87 C523 2.478 . S
C110 C40 2.442 1_554 S
C133 C569 2.442 1_554 S
C270 C156 2.450 . S
C431 C179 2.450 . S
C202 C316 2.479 . S
C477 C225 2.479 . S
C248 C178 2.478 . S
C707 C271 2.478 . S
C294 C224 2.449 . S
C317 C385 2.449 . S
C340 C86 2.450 . S
C615 C363 2.450 . S
C386 C500 2.479 . S
C409 C293 2.479 . S
C730 C432 2.478 . S
C155 C455 2.478 . S
C478 C408 2.449 . S
C201 C501 2.449 . S
C638 C524 2.450 . S
C547 C63 2.450 . S
C684 C570 2.479 . S
C593 C109 2.479 . S
C546 C616 2.478 . S
C339 C639 2.478 . S
C592 C662 2.442 1_556 S
C685 C17 2.442 1_554 S
C454 C708 2.450 . S
C731 C247 2.450 . S
